# Generated by pormake.
# Topology vmx, (8)-cn, num edge types: 1
# Building blocks:
#     Node 0, Type 0, BuildingBlock: TAGTUT_clean_sbu_3, # of connection points: 8
#     Node 1, Type 0, BuildingBlock: TAGTUT_clean_sbu_3, # of connection points: 8
#     Node 2, Type 0, BuildingBlock: TAGTUT_clean_sbu_3, # of connection points: 8
#     Node 3, Type 0, BuildingBlock: TAGTUT_clean_sbu_3, # of connection points: 8
#     Node 4, Type 0, BuildingBlock: TAGTUT_clean_sbu_3, # of connection points: 8
#     Node 5, Type 0, BuildingBlock: TAGTUT_clean_sbu_3, # of connection points: 8
#     Node 6, Type 0, BuildingBlock: TAGTUT_clean_sbu_3, # of connection points: 8
#     Node 7, Type 0, BuildingBlock: TAGTUT_clean_sbu_3, # of connection points: 8
#     Edge 8, Type (0, 0), BuildingBlock: OJICUG_clean_linker_0, # of connection points: 2
#     Edge 9, Type (0, 0), BuildingBlock: OJICUG_clean_linker_0, # of connection points: 2
#     Edge 10, Type (0, 0), BuildingBlock: OJICUG_clean_linker_0, # of connection points: 2
#     Edge 11, Type (0, 0), BuildingBlock: OJICUG_clean_linker_0, # of connection points: 2
#     Edge 12, Type (0, 0), BuildingBlock: OJICUG_clean_linker_0, # of connection points: 2
#     Edge 13, Type (0, 0), BuildingBlock: OJICUG_clean_linker_0, # of connection points: 2
#     Edge 14, Type (0, 0), BuildingBlock: OJICUG_clean_linker_0, # of connection points: 2
#     Edge 15, Type (0, 0), BuildingBlock: OJICUG_clean_linker_0, # of connection points: 2
#     Edge 16, Type (0, 0), BuildingBlock: OJICUG_clean_linker_0, # of connection points: 2
#     Edge 17, Type (0, 0), BuildingBlock: OJICUG_clean_linker_0, # of connection points: 2
#     Edge 18, Type (0, 0), BuildingBlock: OJICUG_clean_linker_0, # of connection points: 2
#     Edge 19, Type (0, 0), BuildingBlock: OJICUG_clean_linker_0, # of connection points: 2
#     Edge 20, Type (0, 0), BuildingBlock: OJICUG_clean_linker_0, # of connection points: 2
#     Edge 21, Type (0, 0), BuildingBlock: OJICUG_clean_linker_0, # of connection points: 2
#     Edge 22, Type (0, 0), BuildingBlock: OJICUG_clean_linker_0, # of connection points: 2
#     Edge 23, Type (0, 0), BuildingBlock: OJICUG_clean_linker_0, # of connection points: 2
#     Edge 24, Type (0, 0), BuildingBlock: OJICUG_clean_linker_0, # of connection points: 2
#     Edge 25, Type (0, 0), BuildingBlock: OJICUG_clean_linker_0, # of connection points: 2
#     Edge 26, Type (0, 0), BuildingBlock: OJICUG_clean_linker_0, # of connection points: 2
#     Edge 27, Type (0, 0), BuildingBlock: OJICUG_clean_linker_0, # of connection points: 2
#     Edge 28, Type (0, 0), BuildingBlock: OJICUG_clean_linker_0, # of connection points: 2
#     Edge 29, Type (0, 0), BuildingBlock: OJICUG_clean_linker_0, # of connection points: 2
#     Edge 30, Type (0, 0), BuildingBlock: OJICUG_clean_linker_0, # of connection points: 2
#     Edge 31, Type (0, 0), BuildingBlock: OJICUG_clean_linker_0, # of connection points: 2
#     Edge 32, Type (0, 0), BuildingBlock: OJICUG_clean_linker_0, # of connection points: 2
#     Edge 33, Type (0, 0), BuildingBlock: OJICUG_clean_linker_0, # of connection points: 2
#     Edge 34, Type (0, 0), BuildingBlock: OJICUG_clean_linker_0, # of connection points: 2
#     Edge 35, Type (0, 0), BuildingBlock: OJICUG_clean_linker_0, # of connection points: 2
#     Edge 36, Type (0, 0), BuildingBlock: OJICUG_clean_linker_0, # of connection points: 2
#     Edge 37, Type (0, 0), BuildingBlock: OJICUG_clean_linker_0, # of connection points: 2
#     Edge 38, Type (0, 0), BuildingBlock: OJICUG_clean_linker_0, # of connection points: 2
#     Edge 39, Type (0, 0), BuildingBlock: OJICUG_clean_linker_0, # of connection points: 2
# Relax obj value: 0.262
# Max RMSD: 0.280
# Mean RMSD: 0.280
data_MOF--net-vmx--node1-TAGTUT_clean_sbu_3--edge1-OJICUG_clean_linker_0
_symmetry_space_group_name_H-M    P1
_symmetry_Int_Tables_number       1
_symmetry_cell_setting            triclinic
loop_
_symmetry_equiv_pos_as_xyz
'x, y, z'
_cell_length_a     23.499742
_cell_length_b     44.210577
_cell_length_c     14.612731
_cell_angle_alpha  89.985953
_cell_angle_beta   110.53924
_cell_angle_gamma 90.578308
loop_
_atom_site_label
_atom_site_type_symbol
_atom_site_fract_x
_atom_site_fract_y
_atom_site_fract_z
_atom_type_partial_charge
C0 C 0.35065 0.41643 0.55862 0.0
C1 C 0.33962 0.38403 0.22282 0.0
C2 C 0.16351 0.39957 0.12114 0.0
Mg3 Mg 0.25313 0.42148 0.66004 0.0
Mg4 Mg 0.12726 0.37955 0.6197 0.0
O5 O 0.1811 0.39837 0.56857 0.0
Mg6 Mg 0.21524 0.38672 0.46406 0.0
O7 O 0.25586 0.38133 0.36422 0.0
Mg8 Mg 0.26421 0.42527 0.32911 0.0
Mg9 Mg 0.2281 0.35549 0.25743 0.0
C10 C 0.07219 0.36244 0.39052 0.0
O11 O 0.2288 0.33431 0.4922 0.0
O12 O 0.19386 0.44116 0.73385 0.0
O13 O 0.21717 0.31799 0.33921 0.0
O14 O 0.27299 0.38233 0.77345 0.0
O15 O 0.10295 0.41815 0.6948 0.0
O16 O 0.19243 0.35187 0.724 0.0
O17 O 0.19801 0.43514 0.40998 0.0
O18 O 0.22192 0.46073 0.54899 0.0
C19 C 0.1993 0.45974 0.45571 0.0
C20 C 0.14088 0.43915 0.73831 0.0
O21 O 0.11876 0.37193 0.37117 0.0
O22 O 0.32934 0.40886 0.25891 0.0
O23 O 0.06917 0.36246 0.47689 0.0
O24 O 0.19083 0.42228 0.17254 0.0
O25 O 0.30658 0.36022 0.21437 0.0
O26 O 0.15015 0.37717 0.16388 0.0
O27 O 0.30819 0.40114 0.57295 0.0
O28 O 0.34365 0.42769 0.47508 0.0
C29 C 0.23458 0.36503 0.79326 0.0
C30 C 0.22225 0.31301 0.42796 0.0
C31 C 0.58498 0.41637 0.86779 0.0
C32 C 0.57201 0.3823 0.18035 0.0
C33 C 0.75815 0.39224 0.31058 0.0
Mg34 Mg 0.68745 0.41828 0.77871 0.0
Mg35 Mg 0.80999 0.37409 0.82658 0.0
O36 O 0.75689 0.39513 0.87349 0.0
Mg37 Mg 0.71629 0.38389 0.96974 0.0
O38 O 0.66932 0.37899 0.05976 0.0
Mg39 Mg 0.66444 0.42233 0.09934 0.0
Mg40 Mg 0.68307 0.35126 0.15873 0.0
C41 C 0.85725 0.35829 0.05624 0.0
O42 O 0.70086 0.33166 0.93587 0.0
O43 O 0.75168 0.43608 0.70927 0.0
O44 O 0.69339 0.31406 0.07729 0.0
O45 O 0.66466 0.37751 0.67233 0.0
O46 O 0.8405 0.41169 0.75451 0.0
O47 O 0.7432 0.34698 0.72037 0.0
O48 O 0.73675 0.43177 0.02864 0.0
O49 O 0.72095 0.45749 0.89143 0.0
C50 C 0.74051 0.45622 -0.01508 0.0
C51 C 0.80536 0.43303 0.70877 0.0
O52 O 0.80966 0.36831 0.07028 0.0
O53 O 0.59046 0.40715 0.15492 0.0
O54 O 0.86311 0.35739 0.97182 0.0
O55 O 0.73096 0.41456 0.25799 0.0
O56 O 0.60064 0.35745 0.18741 0.0
O57 O 0.76097 0.36691 0.27188 0.0
O58 O 0.62629 0.3997 0.85704 0.0
O59 O 0.5911 0.42803 0.95041 0.0
C60 C 0.70358 0.36133 0.65196 0.0
C61 C 0.69749 0.30989 -0.00664 0.0
C62 C 0.60322 0.58091 0.39081 0.0
C63 C 0.61306 0.61304 0.72564 0.0
C64 C 0.78988 0.59794 0.82869 0.0
Mg65 Mg 0.70076 0.57602 0.28989 0.0
Mg66 Mg 0.82691 0.61781 0.33066 0.0
O67 O 0.77289 0.59905 0.38157 0.0
Mg68 Mg 0.73857 0.6107 0.48586 0.0
O69 O 0.69761 0.61601 0.58526 0.0
Mg70 Mg 0.68937 0.57207 0.62033 0.0
Mg71 Mg 0.7245 0.64189 0.6919 0.0
C72 C 0.8817 0.63488 0.56 0.0
O73 O 0.72532 0.66319 0.45798 0.0
O74 O 0.75991 0.55632 0.21602 0.0
O75 O 0.73522 0.67944 0.61026 0.0
O76 O 0.68101 0.61529 0.177 0.0
O77 O 0.85101 0.57914 0.25543 0.0
O78 O 0.76173 0.6456 0.22678 0.0
O79 O 0.75578 0.56228 0.53987 0.0
O80 O 0.73189 0.53671 0.40082 0.0
C81 C 0.75453 0.53769 0.49412 0.0
C82 C 0.81293 0.55821 0.2117 0.0
O83 O 0.83503 0.62543 0.57912 0.0
O84 O 0.62381 0.58826 0.68985 0.0
O85 O 0.88487 0.63482 0.4737 0.0
O86 O 0.76236 0.57528 0.77716 0.0
O87 O 0.64582 0.63694 0.73423 0.0
O88 O 0.80268 0.62053 0.78611 0.0
O89 O 0.64563 0.59631 0.37674 0.0
O90 O 0.61021 0.56953 0.47419 0.0
C91 C 0.71969 0.63243 0.15738 0.0
C92 C 0.73099 0.68448 0.52193 0.0
C93 C 0.36887 0.58077 0.08167 0.0
C94 C 0.38016 0.61419 0.76627 0.0
C95 C 0.19459 0.60417 0.63896 0.0
Mg96 Mg 0.26655 0.57901 0.17139 0.0
Mg97 Mg 0.14433 0.62335 0.12381 0.0
O98 O 0.19742 0.60237 0.0768 0.0
Mg99 Mg 0.23772 0.61336 -0.02013 0.0
O100 O 0.2844 0.61797 0.88915 0.0
Mg101 Mg 0.28887 0.57449 0.85016 0.0
Mg102 Mg 0.26933 0.64532 0.78879 0.0
C103 C 0.0968 0.63915 0.8941 0.0
O104 O 0.25386 0.66557 0.01299 0.0
O105 O 0.20232 0.56131 0.24095 0.0
O106 O 0.26009 0.68275 0.87025 0.0
O107 O 0.28961 0.61968 0.27824 0.0
O108 O 0.11356 0.58575 0.19545 0.0
O109 O 0.21116 0.65031 0.23062 0.0
O110 O 0.21682 0.56545 0.92155 0.0
O111 O 0.23265 0.53978 0.0588 0.0
C112 C 0.21295 0.54104 0.96533 0.0
C113 C 0.14862 0.56439 0.24129 0.0
O114 O 0.14424 0.62904 0.87973 0.0
O115 O 0.36242 0.58943 0.79345 0.0
O116 O 0.09116 0.64009 -0.02134 0.0
O117 O 0.22212 0.58189 0.69132 0.0
O118 O 0.35107 0.63894 0.75817 0.0
O119 O 0.1906 0.62919 0.6784 0.0
O120 O 0.32764 0.59747 0.09252 0.0
O121 O 0.36258 0.56903 -0.00092 0.0
C122 C 0.25086 0.63593 0.29888 0.0
C123 C 0.25702 0.68716 0.95474 0.0
C124 C 0.85588 0.91472 0.55572 0.0
C125 C 0.84438 0.88215 0.22002 0.0
C126 C 0.66849 0.89733 0.11892 0.0
Mg127 Mg 0.75928 0.91988 0.65837 0.0
Mg128 Mg 0.63324 0.87821 0.6195 0.0
O129 O 0.68685 0.89685 0.56755 0.0
Mg130 Mg 0.72048 0.885 0.46248 0.0
O131 O 0.7607 0.8795 0.36208 0.0
Mg132 Mg 0.76894 0.92338 0.32642 0.0
Mg133 Mg 0.73356 0.85345 0.25577 0.0
C134 C 0.57725 0.86123 0.39023 0.0
O135 O 0.73365 0.83248 0.49071 0.0
O136 O 0.70081 0.93983 0.73304 0.0
O137 O 0.72309 0.8161 0.33828 0.0
O138 O 0.77923 0.88084 0.77235 0.0
O139 O 0.60991 0.91694 0.69556 0.0
O140 O 0.69876 0.85034 0.72237 0.0
O141 O 0.70321 0.9334 0.40803 0.0
O142 O 0.72779 0.95903 0.54708 0.0
C143 C 0.70476 0.95802 0.45382 0.0
C144 C 0.64807 0.93794 0.73843 0.0
O145 O 0.62389 0.87042 0.37057 0.0
O146 O 0.83376 0.90698 0.25568 0.0
O147 O 0.57442 0.86138 0.47674 0.0
O148 O 0.69509 0.92021 0.17019 0.0
O149 O 0.81193 0.85818 0.21253 0.0
O150 O 0.65539 0.87486 0.16172 0.0
O151 O 0.81363 0.89939 0.57051 0.0
O152 O 0.84863 0.92594 0.47203 0.0
C153 C 0.74093 0.8634 0.79187 0.0
C154 C 0.72766 0.81113 0.42679 0.0
C155 C 0.08961 0.91679 0.86598 0.0
C156 C 0.07701 0.88266 0.17891 0.0
C157 C 0.26318 0.89419 0.30976 0.0
Mg158 Mg 0.19243 0.91929 0.77788 0.0
Mg159 Mg 0.31578 0.87567 0.82668 0.0
O160 O 0.26206 0.89636 0.87308 0.0
Mg161 Mg 0.2214 0.88495 0.96911 0.0
O162 O 0.17436 0.87993 0.05896 0.0
Mg163 Mg 0.16842 0.92328 0.09757 0.0
Mg164 Mg 0.18949 0.85256 0.15915 0.0
C165 C 0.36237 0.85953 0.05608 0.0
O166 O 0.2066 0.83266 0.9358 0.0
O167 O 0.25658 0.93743 0.70894 0.0
O168 O 0.20047 0.81537 0.07845 0.0
O169 O 0.1706 0.87846 0.67194 0.0
O170 O 0.34604 0.9136 0.75554 0.0
O171 O 0.24984 0.84838 0.71977 0.0
O172 O 0.24086 0.93293 0.0274 0.0
O173 O 0.225 0.95867 0.89026 0.0
C174 C 0.24432 0.95743 -0.01626 0.0
C175 C 0.31051 0.93474 0.70927 0.0
O176 O 0.31479 0.86959 0.07008 0.0
O177 O 0.09455 0.90764 0.15277 0.0
O178 O 0.36842 0.85878 0.9718 0.0
O179 O 0.23485 0.91614 0.25653 0.0
O180 O 0.10681 0.85812 0.18745 0.0
O181 O 0.26694 0.86886 0.2718 0.0
O182 O 0.13141 0.90037 0.85587 0.0
O183 O 0.09518 0.92849 0.94832 0.0
C184 C 0.20998 0.86266 0.65149 0.0
C185 C 0.20392 0.81102 -0.00582 0.0
C186 C 0.25741 0.03957 0.49615 0.0
C187 C 0.3145 0.05965 0.2117 0.0
C188 C 0.22121 0.13415 0.15721 0.0
Mg189 Mg 0.19374 0.07431 0.62404 0.0
Mg190 Mg 0.23012 0.1442 0.69487 0.0
O191 O 0.20204 0.11821 0.58837 0.0
Mg192 Mg 0.24191 0.11263 0.48747 0.0
O193 O 0.27535 0.10078 0.38221 0.0
Mg194 Mg 0.20311 0.07765 0.29154 0.0
Mg195 Mg 0.32892 0.11938 0.33016 0.0
C196 C 0.23538 0.18641 0.52331 0.0
O197 O 0.33857 0.12722 0.57907 0.0
O198 O 0.12943 0.09091 0.69569 0.0
O199 O 0.38783 0.13632 0.47264 0.0
O200 O 0.26811 0.0772 0.77991 0.0
O201 O 0.152 0.13966 0.73896 0.0
O202 O 0.3081 0.1224 0.78792 0.0
O203 O 0.14871 0.09822 0.37944 0.0
O204 O 0.11375 0.07198 0.47872 0.0
C205 C 0.10642 0.08308 0.39482 0.0
C206 C 0.11929 0.11579 0.73166 0.0
O207 O 0.22851 0.16507 0.4591 0.0
O208 O 0.26176 0.05768 0.21712 0.0
O209 O 0.24079 0.18151 0.61223 0.0
O210 O 0.18323 0.11654 0.177 0.0
O211 O 0.35253 0.08071 0.25444 0.0
O212 O 0.26365 0.14715 0.22646 0.0
O213 O 0.2591 0.06424 0.54172 0.0
O214 O 0.23445 0.03853 0.40291 0.0
C215 C 0.29444 0.10016 0.83096 0.0
C216 C 0.38511 0.13646 0.55921 0.0
C217 C 0.87268 0.08106 0.08469 0.0
C218 C 0.88724 0.11588 0.77494 0.0
C219 C 0.70044 0.10444 0.64085 0.0
Mg220 Mg 0.76966 0.07842 0.17206 0.0
Mg221 Mg 0.64604 0.1219 0.12287 0.0
O222 O 0.69977 0.10114 0.07661 0.0
Mg223 Mg 0.74077 0.1128 -0.01868 0.0
O224 O 0.78814 0.1181 0.89225 0.0
Mg225 Mg 0.79453 0.0749 0.85304 0.0
Mg226 Mg 0.77448 0.14588 0.79358 0.0
C227 C 0.59979 0.13805 0.89355 0.0
O228 O 0.75483 0.16509 0.01543 0.0
O229 O 0.70546 0.06019 0.24081 0.0
O230 O 0.76232 0.18283 0.87421 0.0
O231 O 0.7912 0.11934 0.2775 0.0
O232 O 0.61596 0.084 0.19441 0.0
O233 O 0.71189 0.14933 0.2293 0.0
O234 O 0.72179 0.06484 0.92243 0.0
O235 O 0.73754 0.03906 0.05954 0.0
C236 C 0.71843 0.04031 0.96605 0.0
C237 C 0.65155 0.06286 0.24062 0.0
O238 O 0.64752 0.12806 0.87989 0.0
O239 O 0.86893 0.09079 0.79914 0.0
O240 O 0.59351 0.13876 -0.02234 0.0
O241 O 0.72834 0.08242 0.69426 0.0
O242 O 0.85791 0.14052 0.76752 0.0
O243 O 0.69798 0.13008 0.67807 0.0
O244 O 0.83079 0.09745 0.09467 0.0
O245 O 0.86732 0.06944 0.00235 0.0
C246 C 0.75167 0.13507 0.29771 0.0
C247 C 0.75777 0.18692 0.95786 0.0
C248 C 0.14451 0.54009 0.38942 0.0
C249 C 0.12813 0.53928 0.28758 0.0
H250 H 0.18316 0.51595 0.52418 0.0
C251 C 0.12363 0.51112 0.24129 0.0
H252 H 0.14615 0.56138 0.42594 0.0
C253 C 0.14484 0.48514 0.29634 0.0
C254 C 0.17049 0.48678 0.39891 0.0
H255 H 0.11153 0.50983 0.16262 0.0
H256 H 0.14452 0.46418 0.25795 0.0
C257 C 0.16656 0.51416 0.44521 0.0
C258 C 0.81215 0.53405 0.06038 0.0
C259 C 0.82843 0.53252 0.16214 0.0
H260 H 0.76827 0.51164 0.92282 0.0
C261 C 0.82699 0.50426 0.20496 0.0
H262 H 0.81522 0.55533 0.02644 0.0
C263 C 0.79976 0.47938 0.14695 0.0
C264 C 0.77449 0.4821 0.04462 0.0
H265 H 0.83898 0.50242 0.28348 0.0
H266 H 0.79539 0.45854 0.18302 0.0
C267 C 0.78441 0.50917 0.00153 0.0
C268 C 0.80937 0.45734 0.56053 0.0
C269 C 0.82572 0.45816 0.66237 0.0
H270 H 0.77075 0.48147 0.42572 0.0
C271 C 0.83014 0.48633 0.70861 0.0
H272 H 0.80779 0.43605 0.52403 0.0
C273 C 0.80891 0.5123 0.65352 0.0
C274 C 0.78332 0.51064 0.55094 0.0
H275 H 0.8422 0.48763 0.78727 0.0
H276 H 0.80916 0.53325 0.69188 0.0
C277 C 0.78731 0.48327 0.50469 0.0
C278 C 0.16914 0.48807 0.94868 0.0
C279 C 0.17895 0.51516 0.90565 0.0
H280 H 0.13848 0.44189 0.92363 0.0
C281 C 0.15362 0.51792 0.80334 0.0
H282 H 0.18533 0.48558 0.02739 0.0
C283 C 0.12649 0.49305 0.74526 0.0
C284 C 0.12522 0.46476 0.78801 0.0
H285 H 0.15785 0.53879 0.76731 0.0
H286 H 0.11448 0.49492 0.66674 0.0
C287 C 0.14148 0.46319 0.88976 0.0
C288 C 0.62778 0.00945 0.24003 0.0
C289 C 0.63159 0.03751 0.28668 0.0
H290 H 0.64996 0.96264 0.25607 0.0
C291 C 0.64808 0.03815 0.38856 0.0
H292 H 0.61565 0.00829 0.16134 0.0
C293 C 0.67086 0.01223 0.44398 0.0
C294 C 0.67542 0.98502 0.3973 0.0
H295 H 0.64926 0.05935 0.42543 0.0
H296 H 0.68747 0.01392 0.52296 0.0
C297 C 0.64974 0.98348 0.29473 0.0
C298 C 0.31399 0.03561 0.06011 0.0
C299 C 0.32982 0.03399 0.16179 0.0
H300 H 0.2713 0.01313 0.92227 0.0
C301 C 0.32848 0.00568 0.20436 0.0
H302 H 0.31699 0.05695 0.0264 0.0
C303 C 0.30208 0.98074 0.14607 0.0
C304 C 0.2774 0.98346 0.0437 0.0
H305 H 0.34009 0.00379 0.2828 0.0
H306 H 0.29792 0.95983 0.18193 0.0
C307 C 0.28703 0.01066 0.00096 0.0
C308 C 0.3344 0.98815 0.70997 0.0
C309 C 0.33056 0.96008 0.66331 0.0
H310 H 0.31228 0.03497 0.69392 0.0
C311 C 0.31404 0.95945 0.56143 0.0
H312 H 0.34655 0.9893 0.78867 0.0
C313 C 0.29126 0.98537 0.50604 0.0
C314 C 0.28673 0.01258 0.55273 0.0
H315 H 0.31282 0.93825 0.52456 0.0
H316 H 0.27463 0.98367 0.42705 0.0
C317 C 0.31245 0.01412 0.65529 0.0
C318 C 0.64865 0.96213 0.88987 0.0
C319 C 0.63288 0.96368 0.7882 0.0
H320 H 0.69125 0.98467 0.0276 0.0
C321 C 0.63442 0.99196 0.74551 0.0
H322 H 0.64555 0.94083 0.9237 0.0
C323 C 0.66089 0.01691 0.80369 0.0
C324 C 0.68542 0.01426 0.90608 0.0
H325 H 0.6229 0.99379 0.66707 0.0
H326 H 0.66521 0.03778 0.76776 0.0
C327 C 0.67563 0.9871 0.9489 0.0
C328 C 0.96781 0.34751 0.13314 0.0
C329 C 0.91088 0.35141 0.14271 0.0
H330 H 0.06406 0.34738 0.20542 0.0
C331 C 0.9074 0.35306 0.23658 0.0
H332 H 0.97208 0.34556 0.06195 0.0
C333 C 0.96022 0.35428 0.31868 0.0
C334 C 0.01729 0.35391 0.30799 0.0
H335 H 0.86418 0.3554 0.24651 0.0
H336 H 0.95615 0.35768 0.38953 0.0
C337 C 0.02062 0.34879 0.21525 0.0
C338 C -0.01394 0.64954 0.81764 0.0
C339 C 0.04302 0.64602 0.80786 0.0
H340 H 0.8898 0.64934 0.74557 0.0
C341 C 0.04643 0.64473 0.71391 0.0
H342 H -0.01819 0.6512 0.88891 0.0
C343 C -0.00641 0.64345 0.63186 0.0
C344 C 0.93654 0.64342 0.64267 0.0
H345 H 0.08967 0.64275 0.70386 0.0
H346 H -0.00232 0.64034 0.56089 0.0
C347 C 0.93322 0.64822 0.73558 0.0
C348 C 0.46501 0.85435 0.31849 0.0
C349 C 0.52202 0.85317 0.30779 0.0
H350 H 0.36914 0.85683 0.24631 0.0
C351 C 0.52511 0.84793 0.21495 0.0
H352 H 0.46113 0.85788 0.38942 0.0
C353 C 0.4723 0.84739 0.1328 0.0
C354 C 0.41563 0.85214 0.14245 0.0
H355 H 0.56846 0.84592 0.20511 0.0
H356 H 0.47649 0.84533 0.06158 0.0
C357 C 0.4122 0.85386 0.23633 0.0
C358 C 0.49008 0.15057 0.81637 0.0
C359 C 0.54669 0.14545 0.80694 0.0
H360 H 0.39396 0.15237 0.74384 0.0
C361 C 0.55018 0.14337 0.71315 0.0
H362 H 0.48588 0.15293 0.8875 0.0
C363 C 0.49741 0.14294 0.63094 0.0
C364 C 0.4404 0.14451 0.6415 0.0
H365 H 0.59322 0.14006 0.70332 0.0
H366 H 0.50127 0.13912 0.56013 0.0
C367 C 0.43731 0.15007 0.73416 0.0
C368 C 0.48396 0.35489 0.20137 0.0
C369 C 0.51237 0.38216 0.19125 0.0
H370 H 0.40529 0.33397 0.21681 0.0
C371 C 0.48119 0.40949 0.1836 0.0
H372 H 0.50663 0.33343 0.2059 0.0
C373 C 0.42331 0.40969 0.18796 0.0
C374 C 0.39552 0.38262 0.20081 0.0
H375 H 0.50142 0.43089 0.17447 0.0
H376 H 0.40087 0.43123 0.18356 0.0
C377 C 0.42568 0.35511 0.20583 0.0
C378 C 0.52911 0.58711 0.75902 0.0
C379 C 0.55684 0.61427 0.74675 0.0
H380 H 0.45091 0.56572 0.77157 0.0
C381 C 0.52639 0.64171 0.74137 0.0
H382 H 0.55175 0.56563 0.76359 0.0
C383 C 0.46795 0.64179 0.74519 0.0
C384 C 0.43968 0.61444 0.75503 0.0
H385 H 0.54671 0.66291 0.73074 0.0
H386 H 0.44511 0.66319 0.74062 0.0
C387 C 0.47107 0.58717 0.76273 0.0
C388 C 0.92547 0.90817 0.17937 0.0
C389 C 0.9 0.88102 0.19728 0.0
H390 H 0.00188 0.9301 0.16239 0.0
C391 C 0.93239 0.85402 0.20732 0.0
H392 H 0.90116 0.9293 0.17095 0.0
C393 C -0.00922 0.85445 0.20328 0.0
C394 C 0.01704 0.88188 0.18862 0.0
H395 H 0.91373 0.83286 0.22227 0.0
H396 H 0.01531 0.83341 0.21209 0.0
C397 C -0.01654 0.90863 0.17542 0.0
C398 C 0.03195 0.14418 0.74588 0.0
C399 C 0.06402 0.11709 0.75541 0.0
H400 H 0.94939 0.165 0.74197 0.0
C401 C 0.0385 0.09003 0.77391 0.0
H402 H 0.05067 0.16528 0.73059 0.0
C403 C -0.0193 0.08973 0.77865 0.0
C404 C 0.94733 0.11655 0.76559 0.0
H405 H 0.0626 0.06885 0.78208 0.0
H406 H 0.96219 0.06832 0.79197 0.0
C407 C 0.97373 0.14391 0.75067 0.0
C408 C 0.41517 0.42032 0.7356 0.0
C409 C 0.41059 0.41918 0.6374 0.0
H410 H 0.47421 0.42118 0.88519 0.0
C411 C 0.46413 0.41879 0.61487 0.0
H412 H 0.37471 0.42063 0.75498 0.0
C413 C 0.52121 0.4183 0.68943 0.0
C414 C 0.5257 0.41917 0.78769 0.0
H415 H 0.46184 0.41766 0.53958 0.0
H416 H 0.56168 0.41702 0.67031 0.0
C417 C 0.47216 0.42078 0.80995 0.0
C418 C 0.48976 0.57839 0.33449 0.0
C419 C 0.54331 0.57813 0.31195 0.0
H420 H 0.39222 0.58 0.27909 0.0
C421 C 0.53874 0.57706 0.21374 0.0
H422 H 0.49205 0.57946 0.40977 0.0
C423 C 0.48173 0.57653 0.13938 0.0
C424 C 0.42819 0.578 0.16168 0.0
H425 H 0.5792 0.57685 0.19437 0.0
H426 H 0.47966 0.57618 0.06413 0.0
C427 C 0.43269 0.57881 0.25994 0.0
C428 C 0.91986 0.91941 0.73268 0.0
C429 C 0.91561 0.91799 0.63465 0.0
H430 H 0.97851 0.92102 0.88241 0.0
C431 C 0.96929 0.91792 0.61254 0.0
H432 H 0.87928 0.91951 0.75173 0.0
C433 C 0.02625 0.918 0.68742 0.0
C434 C 0.03042 0.91914 0.78552 0.0
H435 H 0.96724 0.9166 0.53741 0.0
H436 H 0.06688 0.91694 0.66869 0.0
C437 C 0.9767 0.92044 0.8073 0.0
C438 C -0.00703 0.08004 0.33822 0.0
C439 C 0.04664 0.07978 0.31607 0.0
H440 H 0.89539 0.08119 0.28207 0.0
C441 C 0.04237 0.0782 0.21807 0.0
H442 H -0.00493 0.08149 0.41336 0.0
C443 C -0.01447 0.0772 0.14349 0.0
C444 C 0.93182 0.07869 0.16526 0.0
H445 H 0.08292 0.07796 0.19899 0.0
H446 H -0.01627 0.07649 0.0684 0.0
C447 C 0.93601 0.07998 0.26335 0.0
C448 C 0.15086 0.36784 0.9732 0.0
C449 C 0.18046 0.39187 0.03501 0.0
H450 H 0.14549 0.34004 0.85078 0.0
C451 C 0.23058 0.40592 0.01999 0.0
H452 H 0.11275 0.35624 -0.01644 0.0
C453 C 0.25002 0.39638 0.94454 0.0
C454 C 0.21967 0.37265 0.88156 0.0
H455 H 0.25507 0.42431 0.06664 0.0
H456 H 0.28807 0.40811 0.93445 0.0
C457 C 0.17014 0.35837 0.89763 0.0
C458 C 0.70508 0.40329 0.42664 0.0
C459 C 0.75439 0.38991 0.40897 0.0
H460 H 0.64963 0.40437 0.51507 0.0
C461 C 0.78899 0.3683 0.47511 0.0
H462 H 0.67649 0.41954 0.37615 0.0
C463 C 0.77297 0.35926 0.5546 0.0
C464 C 0.72179 0.37154 0.5694 0.0
H465 H 0.8264 0.3572 0.46223 0.0
H466 H 0.7997 0.34197 0.60274 0.0
C467 C 0.68892 0.39416 0.50562 0.0
C468 C 0.80401 0.62907 -0.02169 0.0
C469 C 0.77369 0.60535 0.9157 0.0
H470 H 0.81005 0.65669 0.10142 0.0
C471 C 0.72322 0.59155 0.93036 0.0
H472 H 0.84238 0.64048 0.9682 0.0
C473 C 0.70401 0.6011 0.00603 0.0
C474 C 0.73493 0.6246 0.06956 0.0
H475 H 0.69816 0.57342 0.88304 0.0
H476 H 0.66556 0.58963 0.01564 0.0
C477 C 0.78495 0.63855 0.05411 0.0
C478 C 0.26578 0.60322 0.44568 0.0
C479 C 0.23287 0.62582 0.38182 0.0
H480 H 0.27781 0.57762 0.57466 0.0
C481 C 0.18164 0.63807 0.39654 0.0
H482 H 0.30515 0.59306 0.43635 0.0
C483 C 0.16536 0.62888 0.47565 0.0
C484 C 0.19975 0.60716 0.54157 0.0
H485 H 0.15489 0.65535 0.3484 0.0
H486 H 0.12769 0.63985 0.48815 0.0
C487 C 0.24937 0.59395 0.52433 0.0
C488 C 0.65712 0.86548 0.97171 0.0
C489 C 0.68599 0.8897 0.03324 0.0
H490 H 0.65264 0.83768 0.84969 0.0
C491 C 0.73587 0.90404 0.01835 0.0
H492 H 0.61924 0.85363 -0.018 0.0
C493 C 0.7557 0.89465 0.94315 0.0
C494 C 0.72597 0.87077 0.88031 0.0
H495 H 0.75981 0.92258 0.06481 0.0
H496 H 0.79347 0.90664 0.93305 0.0
C497 C 0.67679 0.85614 0.89641 0.0
C498 C 0.19476 0.89579 0.50567 0.0
C499 C 0.22811 0.87325 0.56926 0.0
H500 H 0.18158 0.92124 0.37612 0.0
C501 C 0.27956 0.86133 0.55439 0.0
H502 H 0.15529 0.90574 0.51526 0.0
C503 C 0.29526 0.87056 0.47478 0.0
C504 C 0.26003 0.89199 0.40856 0.0
H505 H 0.30669 0.84413 0.60245 0.0
H506 H 0.33283 0.85968 0.46173 0.0
C507 C 0.2106 0.90511 0.42657 0.0
C508 C 0.22669 0.09346 0.93109 0.0
C509 C 0.27606 0.10813 0.91555 0.0
H510 H 0.16942 0.09054 0.01689 0.0
C511 C 0.30396 0.13276 -0.02408 0.0
H512 H 0.2035 0.07459 0.88556 0.0
C513 C 0.28405 0.14209 0.05096 0.0
C514 C 0.2356 0.12705 0.06803 0.0
H515 H 0.34144 0.14486 0.96517 0.0
H516 H 0.30761 0.1608 0.097 0.0
C517 C 0.20661 0.10285 0.00603 0.0
C518 C 0.68209 0.13642 0.39476 0.0
C519 C 0.73335 0.12439 0.3796 0.0
H520 H 0.62948 0.13841 0.48839 0.0
C521 C 0.76657 0.10176 0.44291 0.0
H522 H 0.65505 0.15366 0.34684 0.0
C523 C 0.75101 0.09258 0.52238 0.0
C524 C 0.70205 0.10596 0.54106 0.0
H525 H 0.80586 0.09169 0.43302 0.0
H526 H 0.7801 0.07648 0.57283 0.0
C527 C 0.66668 0.12733 0.47478 0.0
C528 C 0.25368 0.24064 0.57233 0.0
C529 C 0.23421 0.21863 0.49714 0.0
H530 H 0.26409 0.28772 0.61005 0.0
C531 C 0.20956 0.22802 0.40012 0.0
H532 H 0.27323 0.23416 0.64842 0.0
C533 C 0.20398 0.25879 0.37877 0.0
C534 C 0.22342 0.2808 0.45398 0.0
H535 H 0.19355 0.2117 0.34107 0.0
H536 H 0.18446 0.26529 0.3027 0.0
C537 C 0.24808 0.27141 0.55098 0.0
C538 C 0.68325 0.25513 0.01523 0.0
C539 C 0.70759 0.27834 0.97314 0.0
H540 H 0.68221 0.20785 0.04759 0.0
C541 C 0.75182 0.27134 0.93317 0.0
H542 H 0.64957 0.26013 0.04802 0.0
C543 C 0.7717 0.24166 0.93591 0.0
C544 C 0.74735 0.21845 -0.02206 0.0
H545 H 0.77272 0.28891 0.90346 0.0
H546 H 0.80546 0.2367 0.90325 0.0
C547 C 0.70308 0.22543 0.01787 0.0
C548 C 0.74435 0.73893 0.57108 0.0
C549 C 0.73126 0.71674 0.49644 0.0
H550 H 0.75292 0.78606 0.60811 0.0
C551 C 0.71641 0.72596 0.39964 0.0
H552 H 0.75628 0.73267 0.64713 0.0
C553 C 0.71434 0.75668 0.37783 0.0
C554 C 0.72744 0.77888 0.45245 0.0
H555 H 0.70578 0.70956 0.34078 0.0
H556 H 0.7024 0.76293 0.30176 0.0
C557 C 0.74229 0.76966 0.54927 0.0
C558 C 0.18805 0.75651 0.01686 0.0
C559 C 0.21258 0.77932 0.97356 0.0
H560 H 0.18513 0.70933 0.04903 0.0
C561 C 0.25517 0.77166 0.93092 0.0
H562 H 0.15552 0.762 0.0515 0.0
C563 C 0.2732 0.74169 0.93215 0.0
C564 C 0.24868 0.71889 -0.0245 0.0
H565 H 0.27613 0.78889 0.90006 0.0
H566 H 0.30566 0.73617 0.89739 0.0
C567 C 0.20612 0.72656 0.01818 0.0
loop_
_geom_bond_atom_site_label_1
_geom_bond_atom_site_label_2
_geom_bond_distance
_geom_bond_site_symmetry_2
_ccdc_geom_bond_type
C0 O27 1.312 . S
C0 O28 1.208 . S
C1 O22 1.331 . S
C1 O25 1.244 . S
C2 O24 1.264 . S
C2 O26 1.273 . S
Mg3 O5 1.936 . S
Mg3 O12 2.081 . S
Mg3 O14 2.023 . S
Mg3 O18 2.031 . S
Mg3 O27 2.291 . S
Mg4 O5 1.963 . S
Mg4 O15 1.942 . S
Mg4 O16 1.955 . S
Mg4 O23 1.986 . S
O5 Mg3 1.936 . S
O5 Mg4 1.963 . S
O5 Mg6 1.915 . S
Mg6 O5 1.915 . S
Mg6 O7 1.915 . S
Mg6 O11 2.013 . S
Mg6 O17 2.114 . S
Mg6 O21 2.013 . S
Mg6 O27 2.114 . S
O7 Mg6 1.915 . S
O7 Mg8 1.936 . S
O7 Mg9 1.963 . S
Mg8 O7 1.936 . S
Mg8 O17 2.291 . S
Mg8 O22 2.081 . S
Mg8 O24 2.023 . S
Mg8 O28 2.031 . S
Mg9 O7 1.963 . S
Mg9 O13 1.986 . S
Mg9 O25 1.942 . S
Mg9 O26 1.955 . S
C10 O21 1.191 . S
C10 O23 1.307 . S
O11 Mg6 2.013 . S
O11 C30 1.191 . S
O12 Mg3 2.081 . S
O12 C20 1.331 . S
O13 Mg9 1.986 . S
O13 C30 1.307 . S
O14 Mg3 2.023 . S
O14 C29 1.264 . S
O15 Mg4 1.942 . S
O15 C20 1.244 . S
O16 Mg4 1.955 . S
O16 C29 1.273 . S
O17 Mg6 2.114 . S
O17 Mg8 2.291 . S
O17 C19 1.312 . S
O18 Mg3 2.031 . S
O18 C19 1.208 . S
C19 O17 1.312 . S
C19 O18 1.208 . S
C20 O12 1.331 . S
C20 O15 1.244 . S
O21 Mg6 2.013 . S
O21 C10 1.191 . S
O22 C1 1.331 . S
O22 Mg8 2.081 . S
O23 Mg4 1.986 . S
O23 C10 1.307 . S
O24 C2 1.264 . S
O24 Mg8 2.023 . S
O25 C1 1.244 . S
O25 Mg9 1.942 . S
O26 C2 1.273 . S
O26 Mg9 1.955 . S
O27 C0 1.312 . S
O27 Mg3 2.291 . S
O27 Mg6 2.114 . S
O28 C0 1.208 . S
O28 Mg8 2.031 . S
C29 O14 1.264 . S
C29 O16 1.273 . S
C30 O11 1.191 . S
C30 O13 1.307 . S
C31 O58 1.312 . S
C31 O59 1.208 1_556 S
C32 O53 1.331 . S
C32 O56 1.244 . S
C33 O55 1.264 . S
C33 O57 1.273 . S
Mg34 O36 1.936 . S
Mg34 O43 2.081 . S
Mg34 O45 2.023 . S
Mg34 O49 2.031 . S
Mg34 O58 2.291 . S
Mg35 O36 1.963 . S
Mg35 O46 1.942 . S
Mg35 O47 1.955 . S
Mg35 O54 1.986 1_556 S
O36 Mg34 1.936 . S
O36 Mg35 1.963 . S
O36 Mg37 1.915 1_556 S
Mg37 O36 1.915 1_554 S
Mg37 O38 1.915 . S
Mg37 O42 2.013 1_554 S
Mg37 O48 2.114 . S
Mg37 O52 2.013 . S
Mg37 O58 2.114 1_554 S
O38 Mg37 1.915 . S
O38 Mg39 1.936 . S
O38 Mg40 1.963 . S
Mg39 O38 1.936 . S
Mg39 O48 2.291 . S
Mg39 O53 2.081 . S
Mg39 O55 2.023 . S
Mg39 O59 2.031 . S
Mg40 O38 1.963 . S
Mg40 O44 1.986 . S
Mg40 O56 1.942 . S
Mg40 O57 1.955 . S
C41 O52 1.191 . S
C41 O54 1.307 . S
O42 Mg37 2.013 1_556 S
O42 C61 1.191 1_556 S
O43 Mg34 2.081 . S
O43 C51 1.331 . S
O44 Mg40 1.986 . S
O44 C61 1.307 . S
O45 Mg34 2.023 . S
O45 C60 1.264 . S
O46 Mg35 1.942 . S
O46 C51 1.244 . S
O47 Mg35 1.955 . S
O47 C60 1.273 . S
O48 Mg37 2.114 . S
O48 Mg39 2.291 . S
O48 C50 1.312 . S
O49 Mg34 2.031 . S
O49 C50 1.208 1_556 S
C50 O48 1.312 . S
C50 O49 1.208 1_554 S
C51 O43 1.331 . S
C51 O46 1.244 . S
O52 Mg37 2.013 . S
O52 C41 1.191 . S
O53 C32 1.331 . S
O53 Mg39 2.081 . S
O54 Mg35 1.986 1_554 S
O54 C41 1.307 . S
O55 C33 1.264 . S
O55 Mg39 2.023 . S
O56 C32 1.244 . S
O56 Mg40 1.942 . S
O57 C33 1.273 . S
O57 Mg40 1.955 . S
O58 C31 1.312 . S
O58 Mg34 2.291 . S
O58 Mg37 2.114 1_556 S
O59 C31 1.208 1_554 S
O59 Mg39 2.031 . S
C60 O45 1.264 . S
C60 O47 1.273 . S
C61 O42 1.191 1_554 S
C61 O44 1.307 . S
C62 O89 1.312 . S
C62 O90 1.208 . S
C63 O84 1.331 . S
C63 O87 1.244 . S
C64 O86 1.264 . S
C64 O88 1.273 . S
Mg65 O67 1.936 . S
Mg65 O74 2.081 . S
Mg65 O76 2.023 . S
Mg65 O80 2.031 . S
Mg65 O89 2.291 . S
Mg66 O67 1.963 . S
Mg66 O77 1.942 . S
Mg66 O78 1.955 . S
Mg66 O85 1.986 . S
O67 Mg65 1.936 . S
O67 Mg66 1.963 . S
O67 Mg68 1.915 . S
Mg68 O67 1.915 . S
Mg68 O69 1.915 . S
Mg68 O73 2.013 . S
Mg68 O79 2.114 . S
Mg68 O83 2.013 . S
Mg68 O89 2.114 . S
O69 Mg68 1.915 . S
O69 Mg70 1.936 . S
O69 Mg71 1.963 . S
Mg70 O69 1.936 . S
Mg70 O79 2.291 . S
Mg70 O84 2.081 . S
Mg70 O86 2.023 . S
Mg70 O90 2.031 . S
Mg71 O69 1.963 . S
Mg71 O75 1.986 . S
Mg71 O87 1.942 . S
Mg71 O88 1.955 . S
C72 O83 1.191 . S
C72 O85 1.307 . S
O73 Mg68 2.013 . S
O73 C92 1.191 . S
O74 Mg65 2.081 . S
O74 C82 1.331 . S
O75 Mg71 1.986 . S
O75 C92 1.307 . S
O76 Mg65 2.023 . S
O76 C91 1.264 . S
O77 Mg66 1.942 . S
O77 C82 1.244 . S
O78 Mg66 1.955 . S
O78 C91 1.273 . S
O79 Mg68 2.114 . S
O79 Mg70 2.291 . S
O79 C81 1.312 . S
O80 Mg65 2.031 . S
O80 C81 1.208 . S
C81 O79 1.312 . S
C81 O80 1.208 . S
C82 O74 1.331 . S
C82 O77 1.244 . S
O83 Mg68 2.013 . S
O83 C72 1.191 . S
O84 C63 1.331 . S
O84 Mg70 2.081 . S
O85 Mg66 1.986 . S
O85 C72 1.307 . S
O86 C64 1.264 . S
O86 Mg70 2.023 . S
O87 C63 1.244 . S
O87 Mg71 1.942 . S
O88 C64 1.273 . S
O88 Mg71 1.955 . S
O89 C62 1.312 . S
O89 Mg65 2.291 . S
O89 Mg68 2.114 . S
O90 C62 1.208 . S
O90 Mg70 2.031 . S
C91 O76 1.264 . S
C91 O78 1.273 . S
C92 O73 1.191 . S
C92 O75 1.307 . S
C93 O120 1.312 . S
C93 O121 1.208 1_554 S
C94 O115 1.331 . S
C94 O118 1.244 . S
C95 O117 1.264 . S
C95 O119 1.273 . S
Mg96 O98 1.936 . S
Mg96 O105 2.081 . S
Mg96 O107 2.023 . S
Mg96 O111 2.031 . S
Mg96 O120 2.291 . S
Mg97 O98 1.963 . S
Mg97 O108 1.942 . S
Mg97 O109 1.955 . S
Mg97 O116 1.986 1_554 S
O98 Mg96 1.936 . S
O98 Mg97 1.963 . S
O98 Mg99 1.915 1_554 S
Mg99 O98 1.915 1_556 S
Mg99 O100 1.915 . S
Mg99 O104 2.013 1_556 S
Mg99 O110 2.114 . S
Mg99 O114 2.013 . S
Mg99 O120 2.114 1_556 S
O100 Mg99 1.915 . S
O100 Mg101 1.936 . S
O100 Mg102 1.963 . S
Mg101 O100 1.936 . S
Mg101 O110 2.291 . S
Mg101 O115 2.081 . S
Mg101 O117 2.023 . S
Mg101 O121 2.031 . S
Mg102 O100 1.963 . S
Mg102 O106 1.986 . S
Mg102 O118 1.942 . S
Mg102 O119 1.955 . S
C103 O114 1.191 . S
C103 O116 1.307 . S
O104 Mg99 2.013 1_554 S
O104 C123 1.191 1_554 S
O105 Mg96 2.081 . S
O105 C113 1.331 . S
O106 Mg102 1.986 . S
O106 C123 1.307 . S
O107 Mg96 2.023 . S
O107 C122 1.264 . S
O108 Mg97 1.942 . S
O108 C113 1.244 . S
O109 Mg97 1.955 . S
O109 C122 1.273 . S
O110 Mg99 2.114 . S
O110 Mg101 2.291 . S
O110 C112 1.312 . S
O111 Mg96 2.031 . S
O111 C112 1.208 1_554 S
C112 O110 1.312 . S
C112 O111 1.208 1_556 S
C113 O105 1.331 . S
C113 O108 1.244 . S
O114 Mg99 2.013 . S
O114 C103 1.191 . S
O115 C94 1.331 . S
O115 Mg101 2.081 . S
O116 Mg97 1.986 1_556 S
O116 C103 1.307 . S
O117 C95 1.264 . S
O117 Mg101 2.023 . S
O118 C94 1.244 . S
O118 Mg102 1.942 . S
O119 C95 1.273 . S
O119 Mg102 1.955 . S
O120 C93 1.312 . S
O120 Mg96 2.291 . S
O120 Mg99 2.114 1_554 S
O121 C93 1.208 1_556 S
O121 Mg101 2.031 . S
C122 O107 1.264 . S
C122 O109 1.273 . S
C123 O104 1.191 1_556 S
C123 O106 1.307 . S
C124 O151 1.312 . S
C124 O152 1.208 . S
C125 O146 1.331 . S
C125 O149 1.244 . S
C126 O148 1.264 . S
C126 O150 1.273 . S
Mg127 O129 1.936 . S
Mg127 O136 2.081 . S
Mg127 O138 2.023 . S
Mg127 O142 2.031 . S
Mg127 O151 2.291 . S
Mg128 O129 1.963 . S
Mg128 O139 1.942 . S
Mg128 O140 1.955 . S
Mg128 O147 1.986 . S
O129 Mg127 1.936 . S
O129 Mg128 1.963 . S
O129 Mg130 1.915 . S
Mg130 O129 1.915 . S
Mg130 O131 1.915 . S
Mg130 O135 2.013 . S
Mg130 O141 2.114 . S
Mg130 O145 2.013 . S
Mg130 O151 2.114 . S
O131 Mg130 1.915 . S
O131 Mg132 1.936 . S
O131 Mg133 1.963 . S
Mg132 O131 1.936 . S
Mg132 O141 2.291 . S
Mg132 O146 2.081 . S
Mg132 O148 2.023 . S
Mg132 O152 2.031 . S
Mg133 O131 1.963 . S
Mg133 O137 1.986 . S
Mg133 O149 1.942 . S
Mg133 O150 1.955 . S
C134 O145 1.191 . S
C134 O147 1.307 . S
O135 Mg130 2.013 . S
O135 C154 1.191 . S
O136 Mg127 2.081 . S
O136 C144 1.331 . S
O137 Mg133 1.986 . S
O137 C154 1.307 . S
O138 Mg127 2.023 . S
O138 C153 1.264 . S
O139 Mg128 1.942 . S
O139 C144 1.244 . S
O140 Mg128 1.955 . S
O140 C153 1.273 . S
O141 Mg130 2.114 . S
O141 Mg132 2.291 . S
O141 C143 1.312 . S
O142 Mg127 2.031 . S
O142 C143 1.208 . S
C143 O141 1.312 . S
C143 O142 1.208 . S
C144 O136 1.331 . S
C144 O139 1.244 . S
O145 Mg130 2.013 . S
O145 C134 1.191 . S
O146 C125 1.331 . S
O146 Mg132 2.081 . S
O147 Mg128 1.986 . S
O147 C134 1.307 . S
O148 C126 1.264 . S
O148 Mg132 2.023 . S
O149 C125 1.244 . S
O149 Mg133 1.942 . S
O150 C126 1.273 . S
O150 Mg133 1.955 . S
O151 C124 1.312 . S
O151 Mg127 2.291 . S
O151 Mg130 2.114 . S
O152 C124 1.208 . S
O152 Mg132 2.031 . S
C153 O138 1.264 . S
C153 O140 1.273 . S
C154 O135 1.191 . S
C154 O137 1.307 . S
C155 O182 1.312 . S
C155 O183 1.208 1_556 S
C156 O177 1.331 . S
C156 O180 1.244 . S
C157 O179 1.264 . S
C157 O181 1.273 . S
Mg158 O160 1.936 . S
Mg158 O167 2.081 . S
Mg158 O169 2.023 . S
Mg158 O173 2.031 . S
Mg158 O182 2.291 . S
Mg159 O160 1.963 . S
Mg159 O170 1.942 . S
Mg159 O171 1.955 . S
Mg159 O178 1.986 1_556 S
O160 Mg158 1.936 . S
O160 Mg159 1.963 . S
O160 Mg161 1.915 1_556 S
Mg161 O160 1.915 1_554 S
Mg161 O162 1.915 . S
Mg161 O166 2.013 1_554 S
Mg161 O172 2.114 . S
Mg161 O176 2.013 . S
Mg161 O182 2.114 1_554 S
O162 Mg161 1.915 . S
O162 Mg163 1.936 . S
O162 Mg164 1.963 . S
Mg163 O162 1.936 . S
Mg163 O172 2.291 . S
Mg163 O177 2.081 . S
Mg163 O179 2.023 . S
Mg163 O183 2.031 . S
Mg164 O162 1.963 . S
Mg164 O168 1.986 . S
Mg164 O180 1.942 . S
Mg164 O181 1.955 . S
C165 O176 1.191 . S
C165 O178 1.307 . S
O166 Mg161 2.013 1_556 S
O166 C185 1.191 1_556 S
O167 Mg158 2.081 . S
O167 C175 1.331 . S
O168 Mg164 1.986 . S
O168 C185 1.307 . S
O169 Mg158 2.023 . S
O169 C184 1.264 . S
O170 Mg159 1.942 . S
O170 C175 1.244 . S
O171 Mg159 1.955 . S
O171 C184 1.273 . S
O172 Mg161 2.114 . S
O172 Mg163 2.291 . S
O172 C174 1.312 . S
O173 Mg158 2.031 . S
O173 C174 1.208 1_556 S
C174 O172 1.312 . S
C174 O173 1.208 1_554 S
C175 O167 1.331 . S
C175 O170 1.244 . S
O176 Mg161 2.013 . S
O176 C165 1.191 . S
O177 C156 1.331 . S
O177 Mg163 2.081 . S
O178 Mg159 1.986 1_554 S
O178 C165 1.307 . S
O179 C157 1.264 . S
O179 Mg163 2.023 . S
O180 C156 1.244 . S
O180 Mg164 1.942 . S
O181 C157 1.273 . S
O181 Mg164 1.955 . S
O182 C155 1.312 . S
O182 Mg158 2.291 . S
O182 Mg161 2.114 1_556 S
O183 C155 1.208 1_554 S
O183 Mg163 2.031 . S
C184 O169 1.264 . S
C184 O171 1.273 . S
C185 O166 1.191 1_554 S
C185 O168 1.307 . S
C186 O213 1.312 . S
C186 O214 1.208 . S
C187 O208 1.331 . S
C187 O211 1.244 . S
C188 O210 1.264 . S
C188 O212 1.273 . S
Mg189 O191 1.936 . S
Mg189 O198 2.081 . S
Mg189 O200 2.023 . S
Mg189 O204 2.031 . S
Mg189 O213 2.291 . S
Mg190 O191 1.963 . S
Mg190 O201 1.942 . S
Mg190 O202 1.955 . S
Mg190 O209 1.986 . S
O191 Mg189 1.936 . S
O191 Mg190 1.963 . S
O191 Mg192 1.915 . S
Mg192 O191 1.915 . S
Mg192 O193 1.915 . S
Mg192 O197 2.013 . S
Mg192 O203 2.114 . S
Mg192 O207 2.013 . S
Mg192 O213 2.114 . S
O193 Mg192 1.915 . S
O193 Mg194 1.936 . S
O193 Mg195 1.963 . S
Mg194 O193 1.936 . S
Mg194 O203 2.291 . S
Mg194 O208 2.081 . S
Mg194 O210 2.023 . S
Mg194 O214 2.031 . S
Mg195 O193 1.963 . S
Mg195 O199 1.986 . S
Mg195 O211 1.942 . S
Mg195 O212 1.955 . S
C196 O207 1.191 . S
C196 O209 1.307 . S
O197 Mg192 2.013 . S
O197 C216 1.191 . S
O198 Mg189 2.081 . S
O198 C206 1.331 . S
O199 Mg195 1.986 . S
O199 C216 1.307 . S
O200 Mg189 2.023 . S
O200 C215 1.264 . S
O201 Mg190 1.942 . S
O201 C206 1.244 . S
O202 Mg190 1.955 . S
O202 C215 1.273 . S
O203 Mg192 2.114 . S
O203 Mg194 2.291 . S
O203 C205 1.312 . S
O204 Mg189 2.031 . S
O204 C205 1.208 . S
C205 O203 1.312 . S
C205 O204 1.208 . S
C206 O198 1.331 . S
C206 O201 1.244 . S
O207 Mg192 2.013 . S
O207 C196 1.191 . S
O208 C187 1.331 . S
O208 Mg194 2.081 . S
O209 Mg190 1.986 . S
O209 C196 1.307 . S
O210 C188 1.264 . S
O210 Mg194 2.023 . S
O211 C187 1.244 . S
O211 Mg195 1.942 . S
O212 C188 1.273 . S
O212 Mg195 1.955 . S
O213 C186 1.312 . S
O213 Mg189 2.291 . S
O213 Mg192 2.114 . S
O214 C186 1.208 . S
O214 Mg194 2.031 . S
C215 O200 1.264 . S
C215 O202 1.273 . S
C216 O197 1.191 . S
C216 O199 1.307 . S
C217 O244 1.312 . S
C217 O245 1.208 1_554 S
C218 O239 1.331 . S
C218 O242 1.244 . S
C219 O241 1.264 . S
C219 O243 1.273 . S
Mg220 O222 1.936 . S
Mg220 O229 2.081 . S
Mg220 O231 2.023 . S
Mg220 O235 2.031 . S
Mg220 O244 2.291 . S
Mg221 O222 1.963 . S
Mg221 O232 1.942 . S
Mg221 O233 1.955 . S
Mg221 O240 1.986 1_554 S
O222 Mg220 1.936 . S
O222 Mg221 1.963 . S
O222 Mg223 1.915 1_554 S
Mg223 O222 1.915 1_556 S
Mg223 O224 1.915 . S
Mg223 O228 2.013 1_556 S
Mg223 O234 2.114 . S
Mg223 O238 2.013 . S
Mg223 O244 2.114 1_556 S
O224 Mg223 1.915 . S
O224 Mg225 1.936 . S
O224 Mg226 1.963 . S
Mg225 O224 1.936 . S
Mg225 O234 2.291 . S
Mg225 O239 2.081 . S
Mg225 O241 2.023 . S
Mg225 O245 2.031 . S
Mg226 O224 1.963 . S
Mg226 O230 1.986 . S
Mg226 O242 1.942 . S
Mg226 O243 1.955 . S
C227 O238 1.191 . S
C227 O240 1.307 . S
O228 Mg223 2.013 1_554 S
O228 C247 1.191 1_554 S
O229 Mg220 2.081 . S
O229 C237 1.331 . S
O230 Mg226 1.986 . S
O230 C247 1.307 . S
O231 Mg220 2.023 . S
O231 C246 1.264 . S
O232 Mg221 1.942 . S
O232 C237 1.244 . S
O233 Mg221 1.955 . S
O233 C246 1.273 . S
O234 Mg223 2.114 . S
O234 Mg225 2.291 . S
O234 C236 1.312 . S
O235 Mg220 2.031 . S
O235 C236 1.208 1_554 S
C236 O234 1.312 . S
C236 O235 1.208 1_556 S
C237 O229 1.331 . S
C237 O232 1.244 . S
O238 Mg223 2.013 . S
O238 C227 1.191 . S
O239 C218 1.331 . S
O239 Mg225 2.081 . S
O240 Mg221 1.986 1_556 S
O240 C227 1.307 . S
O241 C219 1.264 . S
O241 Mg225 2.023 . S
O242 C218 1.244 . S
O242 Mg226 1.942 . S
O243 C219 1.273 . S
O243 Mg226 1.955 . S
O244 C217 1.312 . S
O244 Mg220 2.291 . S
O244 Mg223 2.114 1_554 S
O245 C217 1.208 1_556 S
O245 Mg225 2.031 . S
C246 O231 1.264 . S
C246 O233 1.273 . S
C247 O228 1.191 1_556 S
C247 O230 1.307 . S
C248 C249 1.387 . S
C248 H252 0.950 . S
C248 C257 1.390 . S
C249 C248 1.387 . S
C249 C251 1.387 . S
H250 C257 0.950 . S
C251 C249 1.387 . S
C251 C253 1.390 . S
C251 H255 0.950 . S
H252 C248 0.950 . S
C253 C251 1.390 . S
C253 C254 1.387 . S
C253 H256 0.950 . S
C254 C253 1.387 . S
C254 C257 1.387 . S
H255 C251 0.950 . S
H256 C253 0.950 . S
C257 C248 1.390 . S
C257 H250 0.950 . S
C257 C254 1.387 . S
C258 C259 1.387 . S
C258 H262 0.950 . S
C258 C267 1.390 . S
C259 C258 1.387 . S
C259 C261 1.387 . S
H260 C267 0.950 . S
C261 C259 1.387 . S
C261 C263 1.390 . S
C261 H265 0.950 . S
H262 C258 0.950 . S
C263 C261 1.390 . S
C263 C264 1.387 . S
C263 H266 0.950 . S
C264 C263 1.387 . S
C264 C267 1.387 . S
H265 C261 0.950 . S
H266 C263 0.950 . S
C267 C258 1.390 . S
C267 H260 0.950 . S
C267 C264 1.387 . S
C268 C269 1.387 . S
C268 H272 0.950 . S
C268 C277 1.390 . S
C269 C268 1.387 . S
C269 C271 1.387 . S
H270 C277 0.950 . S
C271 C269 1.387 . S
C271 C273 1.390 . S
C271 H275 0.950 . S
H272 C268 0.950 . S
C273 C271 1.390 . S
C273 C274 1.387 . S
C273 H276 0.950 . S
C274 C273 1.387 . S
C274 C277 1.387 . S
H275 C271 0.950 . S
H276 C273 0.950 . S
C277 C268 1.390 . S
C277 H270 0.950 . S
C277 C274 1.387 . S
C278 C279 1.387 . S
C278 H282 0.950 . S
C278 C287 1.390 . S
C279 C278 1.387 . S
C279 C281 1.387 . S
H280 C287 0.950 . S
C281 C279 1.387 . S
C281 C283 1.390 . S
C281 H285 0.950 . S
H282 C278 0.950 . S
C283 C281 1.390 . S
C283 C284 1.387 . S
C283 H286 0.950 . S
C284 C283 1.387 . S
C284 C287 1.387 . S
H285 C281 0.950 . S
H286 C283 0.950 . S
C287 C278 1.390 . S
C287 H280 0.950 . S
C287 C284 1.387 . S
C288 C289 1.387 1_565 S
C288 H292 0.950 . S
C288 C297 1.390 . S
C289 C288 1.387 1_545 S
C289 C291 1.387 . S
H290 C297 0.950 . S
C291 C289 1.387 . S
C291 C293 1.390 . S
C291 H295 0.950 . S
H292 C288 0.950 . S
C293 C291 1.390 . S
C293 C294 1.387 1_545 S
C293 H296 0.950 . S
C294 C293 1.387 1_565 S
C294 C297 1.387 . S
H295 C291 0.950 . S
H296 C293 0.950 . S
C297 C288 1.390 . S
C297 H290 0.950 . S
C297 C294 1.387 . S
C298 C299 1.387 . S
C298 H302 0.950 . S
C298 C307 1.390 . S
C299 C298 1.387 . S
C299 C301 1.387 1_545 S
H300 C307 0.950 . S
C301 C299 1.387 1_565 S
C301 C303 1.390 . S
C301 H305 0.950 . S
H302 C298 0.950 . S
C303 C301 1.390 . S
C303 C304 1.387 . S
C303 H306 0.950 . S
C304 C303 1.387 . S
C304 C307 1.387 1_565 S
H305 C301 0.950 . S
H306 C303 0.950 . S
C307 C298 1.390 . S
C307 H300 0.950 . S
C307 C304 1.387 1_545 S
C308 C309 1.387 . S
C308 H312 0.950 . S
C308 C317 1.390 1_565 S
C309 C308 1.387 . S
C309 C311 1.387 . S
H310 C317 0.950 . S
C311 C309 1.387 . S
C311 C313 1.390 1_565 S
C311 H315 0.950 . S
H312 C308 0.950 . S
C313 C311 1.390 1_545 S
C313 C314 1.387 . S
C313 H316 0.950 . S
C314 C313 1.387 . S
C314 C317 1.387 . S
H315 C311 0.950 . S
H316 C313 0.950 . S
C317 C308 1.390 1_545 S
C317 H310 0.950 . S
C317 C314 1.387 . S
C318 C319 1.387 . S
C318 H322 0.950 . S
C318 C327 1.390 1_565 S
C319 C318 1.387 . S
C319 C321 1.374 1_565 S
H320 C327 0.950 . S
C321 C319 1.374 1_545 S
C321 C323 1.404 . S
C321 H325 0.950 . S
H322 C318 0.950 . S
C323 C321 1.404 . S
C323 C324 1.387 . S
C323 H326 0.950 . S
C324 C323 1.387 . S
C324 C327 1.387 . S
H325 C321 0.950 . S
H326 C323 0.950 . S
C327 C318 1.390 1_545 S
C327 H320 0.950 . S
C327 C324 1.387 . S
C328 C329 1.387 . S
C328 H332 0.950 . S
C328 C337 1.390 1_655 S
C329 C328 1.387 . S
C329 C331 1.387 . S
H330 C337 0.950 . S
C331 C329 1.387 . S
C331 C333 1.390 1_655 S
C331 H335 0.950 . S
H332 C328 0.950 . S
C333 C331 1.390 1_455 S
C333 C334 1.387 . S
C333 H336 0.950 . S
C334 C333 1.387 . S
C334 C337 1.387 . S
H335 C331 0.950 . S
H336 C333 0.950 . S
C337 C328 1.390 1_455 S
C337 H330 0.950 . S
C337 C334 1.387 . S
C338 C339 1.387 . S
C338 H342 0.950 . S
C338 C347 1.390 1_455 S
C339 C338 1.387 . S
C339 C341 1.387 . S
H340 C347 0.950 . S
C341 C339 1.387 . S
C341 C343 1.390 1_455 S
C341 H345 0.950 . S
H342 C338 0.950 . S
C343 C341 1.390 1_655 S
C343 C344 1.387 . S
C343 H346 0.950 . S
C344 C343 1.387 . S
C344 C347 1.387 . S
H345 C341 0.950 . S
H346 C343 0.950 . S
C347 C338 1.390 1_655 S
C347 H340 0.950 . S
C347 C344 1.387 . S
C348 C349 1.387 . S
C348 H352 0.950 . S
C348 C357 1.390 . S
C349 C348 1.387 . S
C349 C351 1.387 . S
H350 C357 0.950 . S
C351 C349 1.387 . S
C351 C353 1.390 . S
C351 H355 0.950 . S
H352 C348 0.950 . S
C353 C351 1.390 . S
C353 C354 1.387 . S
C353 H356 0.950 . S
C354 C353 1.387 . S
C354 C357 1.387 . S
H355 C351 0.950 . S
H356 C353 0.950 . S
C357 C348 1.390 . S
C357 H350 0.950 . S
C357 C354 1.387 . S
C358 C359 1.387 . S
C358 H362 0.950 . S
C358 C367 1.390 . S
C359 C358 1.387 . S
C359 C361 1.387 . S
H360 C367 0.950 . S
C361 C359 1.387 . S
C361 C363 1.390 . S
C361 H365 0.950 . S
H362 C358 0.950 . S
C363 C361 1.390 . S
C363 C364 1.387 . S
C363 H366 0.950 . S
C364 C363 1.387 . S
C364 C367 1.387 . S
H365 C361 0.950 . S
H366 C363 0.950 . S
C367 C358 1.390 . S
C367 H360 0.950 . S
C367 C364 1.387 . S
C368 C369 1.387 . S
C368 H372 0.950 . S
C368 C377 1.390 . S
C369 C368 1.387 . S
C369 C371 1.387 . S
H370 C377 0.950 . S
C371 C369 1.387 . S
C371 C373 1.390 . S
C371 H375 0.950 . S
H372 C368 0.950 . S
C373 C371 1.390 . S
C373 C374 1.387 . S
C373 H376 0.950 . S
C374 C373 1.387 . S
C374 C377 1.387 . S
H375 C371 0.950 . S
H376 C373 0.950 . S
C377 C368 1.390 . S
C377 H370 0.950 . S
C377 C374 1.387 . S
C378 C379 1.387 . S
C378 H382 0.950 . S
C378 C387 1.390 . S
C379 C378 1.387 . S
C379 C381 1.387 . S
H380 C387 0.950 . S
C381 C379 1.387 . S
C381 C383 1.390 . S
C381 H385 0.950 . S
H382 C378 0.950 . S
C383 C381 1.390 . S
C383 C384 1.387 . S
C383 H386 0.950 . S
C384 C383 1.387 . S
C384 C387 1.387 . S
H385 C381 0.950 . S
H386 C383 0.950 . S
C387 C378 1.390 . S
C387 H380 0.950 . S
C387 C384 1.387 . S
C388 C389 1.387 . S
C388 H392 0.950 . S
C388 C397 1.390 1_655 S
C389 C388 1.387 . S
C389 C391 1.387 . S
H390 C397 0.950 . S
C391 C389 1.387 . S
C391 C393 1.390 1_655 S
C391 H395 0.950 . S
H392 C388 0.950 . S
C393 C391 1.390 1_455 S
C393 C394 1.387 . S
C393 H396 0.950 . S
C394 C393 1.387 . S
C394 C397 1.387 . S
H395 C391 0.950 . S
H396 C393 0.950 . S
C397 C388 1.390 1_455 S
C397 H390 0.950 . S
C397 C394 1.387 . S
C398 C399 1.387 . S
C398 H402 0.950 . S
C398 C407 1.390 1_455 S
C399 C398 1.387 . S
C399 C401 1.387 . S
H400 C407 0.950 . S
C401 C399 1.387 . S
C401 C403 1.390 1_455 S
C401 H405 0.950 . S
H402 C398 0.950 . S
C403 C401 1.390 1_655 S
C403 C404 1.387 . S
C403 H406 0.950 . S
C404 C403 1.387 . S
C404 C407 1.387 . S
H405 C401 0.950 . S
H406 C403 0.950 . S
C407 C398 1.390 1_655 S
C407 H400 0.950 . S
C407 C404 1.387 . S
C408 C409 1.387 . S
C408 H412 0.950 . S
C408 C417 1.390 . S
C409 C408 1.387 . S
C409 C411 1.387 . S
H410 C417 0.950 . S
C411 C409 1.387 . S
C411 C413 1.390 . S
C411 H415 0.950 . S
H412 C408 0.950 . S
C413 C411 1.390 . S
C413 C414 1.387 . S
C413 H416 0.950 . S
C414 C413 1.387 . S
C414 C417 1.387 . S
H415 C411 0.950 . S
H416 C413 0.950 . S
C417 C408 1.390 . S
C417 H410 0.950 . S
C417 C414 1.387 . S
C418 C419 1.387 . S
C418 H422 0.950 . S
C418 C427 1.390 . S
C419 C418 1.387 . S
C419 C421 1.387 . S
H420 C427 0.950 . S
C421 C419 1.387 . S
C421 C423 1.390 . S
C421 H425 0.950 . S
H422 C418 0.950 . S
C423 C421 1.390 . S
C423 C424 1.387 . S
C423 H426 0.950 . S
C424 C423 1.387 . S
C424 C427 1.387 . S
H425 C421 0.950 . S
H426 C423 0.950 . S
C427 C418 1.390 . S
C427 H420 0.950 . S
C427 C424 1.387 . S
C428 C429 1.387 . S
C428 H432 0.950 . S
C428 C437 1.390 1_655 S
C429 C428 1.387 . S
C429 C431 1.387 . S
H430 C437 0.950 . S
C431 C429 1.387 . S
C431 C433 1.390 1_655 S
C431 H435 0.950 . S
H432 C428 0.950 . S
C433 C431 1.390 1_455 S
C433 C434 1.387 . S
C433 H436 0.950 . S
C434 C433 1.387 . S
C434 C437 1.387 . S
H435 C431 0.950 . S
H436 C433 0.950 . S
C437 C428 1.390 1_455 S
C437 H430 0.950 . S
C437 C434 1.387 . S
C438 C439 1.387 . S
C438 H442 0.950 . S
C438 C447 1.390 1_455 S
C439 C438 1.387 . S
C439 C441 1.387 . S
H440 C447 0.950 . S
C441 C439 1.387 . S
C441 C443 1.390 1_455 S
C441 H445 0.950 . S
H442 C438 0.950 . S
C443 C441 1.390 1_655 S
C443 C444 1.387 . S
C443 H446 0.950 . S
C444 C443 1.387 . S
C444 C447 1.387 . S
H445 C441 0.950 . S
H446 C443 0.950 . S
C447 C438 1.390 1_655 S
C447 H440 0.950 . S
C447 C444 1.387 . S
C448 C449 1.387 1_556 S
C448 H452 0.950 1_556 S
C448 C457 1.390 . S
C449 C448 1.387 1_554 S
C449 C451 1.387 . S
H450 C457 0.950 . S
C451 C449 1.387 . S
C451 C453 1.390 1_554 S
C451 H455 0.950 . S
H452 C448 0.950 1_554 S
C453 C451 1.390 1_556 S
C453 C454 1.387 . S
C453 H456 0.950 . S
C454 C453 1.387 . S
C454 C457 1.387 . S
H455 C451 0.950 . S
H456 C453 0.950 . S
C457 C448 1.390 . S
C457 H450 0.950 . S
C457 C454 1.387 . S
C458 C459 1.387 . S
C458 H462 0.950 . S
C458 C467 1.390 . S
C459 C458 1.387 . S
C459 C461 1.387 . S
H460 C467 0.950 . S
C461 C459 1.387 . S
C461 C463 1.390 . S
C461 H465 0.950 . S
H462 C458 0.950 . S
C463 C461 1.390 . S
C463 C464 1.387 . S
C463 H466 0.950 . S
C464 C463 1.387 . S
C464 C467 1.387 . S
H465 C461 0.950 . S
H466 C463 0.950 . S
C467 C458 1.390 . S
C467 H460 0.950 . S
C467 C464 1.387 . S
C468 C469 1.387 . S
C468 H472 0.950 . S
C468 C477 1.390 1_556 S
C469 C468 1.387 . S
C469 C471 1.387 1_556 S
H470 C477 0.950 . S
C471 C469 1.387 1_554 S
C471 C473 1.390 . S
C471 H475 0.950 . S
H472 C468 0.950 . S
C473 C471 1.390 . S
C473 C474 1.387 . S
C473 H476 0.950 . S
C474 C473 1.387 . S
C474 C477 1.387 . S
H475 C471 0.950 . S
H476 C473 0.950 . S
C477 C468 1.390 1_554 S
C477 H470 0.950 . S
C477 C474 1.387 . S
C478 C479 1.387 . S
C478 H482 0.950 . S
C478 C487 1.390 . S
C479 C478 1.387 . S
C479 C481 1.387 . S
H480 C487 0.950 . S
C481 C479 1.387 . S
C481 C483 1.390 . S
C481 H485 0.950 . S
H482 C478 0.950 . S
C483 C481 1.390 . S
C483 C484 1.387 . S
C483 H486 0.950 . S
C484 C483 1.387 . S
C484 C487 1.387 . S
H485 C481 0.950 . S
H486 C483 0.950 . S
C487 C478 1.390 . S
C487 H480 0.950 . S
C487 C484 1.387 . S
C488 C489 1.387 . S
C488 H492 0.950 . S
C488 C497 1.390 1_554 S
C489 C488 1.387 . S
C489 C491 1.387 1_554 S
H490 C497 0.950 . S
C491 C489 1.387 1_556 S
C491 C493 1.390 . S
C491 H495 0.950 1_556 S
H492 C488 0.950 . S
C493 C491 1.390 . S
C493 C494 1.387 . S
C493 H496 0.950 . S
C494 C493 1.387 . S
C494 C497 1.387 . S
H495 C491 0.950 1_554 S
H496 C493 0.950 . S
C497 C488 1.390 1_556 S
C497 H490 0.950 . S
C497 C494 1.387 . S
C498 C499 1.387 . S
C498 H502 0.950 . S
C498 C507 1.390 . S
C499 C498 1.387 . S
C499 C501 1.387 . S
H500 C507 0.950 . S
C501 C499 1.387 . S
C501 C503 1.390 . S
C501 H505 0.950 . S
H502 C498 0.950 . S
C503 C501 1.390 . S
C503 C504 1.387 . S
C503 H506 0.950 . S
C504 C503 1.387 . S
C504 C507 1.387 . S
H505 C501 0.950 . S
H506 C503 0.950 . S
C507 C498 1.390 . S
C507 H500 0.950 . S
C507 C504 1.387 . S
C508 C509 1.387 1_554 S
C508 H512 0.950 1_554 S
C508 C517 1.390 . S
C509 C508 1.387 1_556 S
C509 C511 1.387 . S
H510 C517 0.950 . S
C511 C509 1.387 . S
C511 C513 1.390 1_556 S
C511 H515 0.950 . S
H512 C508 0.950 1_556 S
C513 C511 1.390 1_554 S
C513 C514 1.387 . S
C513 H516 0.950 . S
C514 C513 1.387 . S
C514 C517 1.387 . S
H515 C511 0.950 . S
H516 C513 0.950 . S
C517 C508 1.390 . S
C517 H510 0.950 . S
C517 C514 1.387 . S
C518 C519 1.387 . S
C518 H522 0.950 . S
C518 C527 1.390 . S
C519 C518 1.387 . S
C519 C521 1.387 . S
H520 C527 0.950 . S
C521 C519 1.387 . S
C521 C523 1.390 . S
C521 H525 0.950 . S
H522 C518 0.950 . S
C523 C521 1.390 . S
C523 C524 1.387 . S
C523 H526 0.950 . S
C524 C523 1.387 . S
C524 C527 1.387 . S
H525 C521 0.950 . S
H526 C523 0.950 . S
C527 C518 1.390 . S
C527 H520 0.950 . S
C527 C524 1.387 . S
C528 C529 1.387 . S
C528 H532 0.950 . S
C528 C537 1.390 . S
C529 C528 1.387 . S
C529 C531 1.387 . S
H530 C537 0.950 . S
C531 C529 1.387 . S
C531 C533 1.390 . S
C531 H535 0.950 . S
H532 C528 0.950 . S
C533 C531 1.390 . S
C533 C534 1.387 . S
C533 H536 0.950 . S
C534 C533 1.387 . S
C534 C537 1.387 . S
H535 C531 0.950 . S
H536 C533 0.950 . S
C537 C528 1.390 . S
C537 H530 0.950 . S
C537 C534 1.387 . S
C538 C539 1.387 1_554 S
C538 H542 0.950 . S
C538 C547 1.390 . S
C539 C538 1.387 1_556 S
C539 C541 1.387 . S
H540 C547 0.950 . S
C541 C539 1.387 . S
C541 C543 1.390 . S
C541 H545 0.950 . S
H542 C538 0.950 . S
C543 C541 1.390 . S
C543 C544 1.387 1_556 S
C543 H546 0.950 . S
C544 C543 1.387 1_554 S
C544 C547 1.387 . S
H545 C541 0.950 . S
H546 C543 0.950 . S
C547 C538 1.390 . S
C547 H540 0.950 . S
C547 C544 1.387 . S
C548 C549 1.387 . S
C548 H552 0.950 . S
C548 C557 1.390 . S
C549 C548 1.387 . S
C549 C551 1.387 . S
H550 C557 0.950 . S
C551 C549 1.387 . S
C551 C553 1.390 . S
C551 H555 0.950 . S
H552 C548 0.950 . S
C553 C551 1.390 . S
C553 C554 1.387 . S
C553 H556 0.950 . S
C554 C553 1.387 . S
C554 C557 1.387 . S
H555 C551 0.950 . S
H556 C553 0.950 . S
C557 C548 1.390 . S
C557 H550 0.950 . S
C557 C554 1.387 . S
C558 C559 1.387 1_554 S
C558 H562 0.950 . S
C558 C567 1.390 . S
C559 C558 1.387 1_556 S
C559 C561 1.387 . S
H560 C567 0.950 . S
C561 C559 1.387 . S
C561 C563 1.390 . S
C561 H565 0.950 . S
H562 C558 0.950 . S
C563 C561 1.390 . S
C563 C564 1.387 1_556 S
C563 H566 0.950 . S
C564 C563 1.387 1_554 S
C564 C567 1.387 . S
H565 C561 0.950 . S
H566 C563 0.950 . S
C567 C558 1.390 . S
C567 H560 0.950 . S
C567 C564 1.387 . S
C249 C113 1.870 . S
C254 C19 2.195 . S
C259 C82 1.870 . S
C264 C50 2.195 . S
C269 C51 1.874 . S
C274 C81 2.196 . S
C279 C112 2.196 . S
C284 C20 1.874 . S
C289 C237 1.874 . S
C294 C143 2.196 . S
C299 C187 1.870 . S
C304 C174 2.195 . S
C309 C175 1.871 . S
C314 C186 2.196 . S
C319 C144 1.874 . S
C324 C236 2.196 . S
C329 C41 1.003 . S
C334 C10 1.003 . S
C339 C103 1.007 . S
C344 C72 1.007 . S
C349 C134 1.003 . S
C354 C165 1.003 . S
C359 C227 1.003 . S
C364 C216 1.003 . S
C369 C32 1.890 . S
C374 C1 1.890 . S
C379 C63 1.890 . S
C384 C94 1.890 . S
C389 C125 1.889 . S
C394 C156 1.889 . S
C399 C206 1.889 . S
C404 C218 1.889 . S
C409 C0 1.765 . S
C414 C31 1.765 . S
C419 C62 1.765 . S
C424 C93 1.765 . S
C429 C124 1.765 . S
C434 C155 1.765 . S
C439 C205 1.765 . S
C444 C217 1.765 . S
C449 C2 1.251 . S
C454 C29 1.255 . S
C459 C33 1.257 . S
C464 C60 1.260 . S
C469 C64 1.256 . S
C474 C91 1.259 . S
C479 C122 1.257 . S
C484 C95 1.253 . S
C489 C126 1.252 . S
C494 C153 1.256 . S
C499 C184 1.260 . S
C504 C157 1.257 . S
C509 C215 1.252 . S
C514 C188 1.256 . S
C519 C246 1.260 . S
C524 C219 1.257 . S
C529 C196 1.281 . S
C534 C30 1.281 . S
C539 C61 1.286 1_556 S
C544 C247 1.286 1_554 S
C549 C92 1.281 . S
C554 C154 1.281 . S
C559 C185 1.285 1_556 S
C564 C123 1.285 1_554 S
