# Generated by pormake.
# Topology wmp, (6)-cn, num edge types: 1
# Building blocks:
#     Node 0, Type 0, BuildingBlock: OJICUG_clean_sbu_0, # of connection points: 6
#     Node 1, Type 0, BuildingBlock: OJICUG_clean_sbu_0, # of connection points: 6
#     Node 2, Type 0, BuildingBlock: OJICUG_clean_sbu_0, # of connection points: 6
#     Node 3, Type 0, BuildingBlock: OJICUG_clean_sbu_0, # of connection points: 6
#     Node 4, Type 0, BuildingBlock: OJICUG_clean_sbu_0, # of connection points: 6
#     Node 5, Type 0, BuildingBlock: OJICUG_clean_sbu_0, # of connection points: 6
#     Node 6, Type 0, BuildingBlock: OJICUG_clean_sbu_0, # of connection points: 6
#     Node 7, Type 0, BuildingBlock: OJICUG_clean_sbu_0, # of connection points: 6
#     Node 8, Type 0, BuildingBlock: OJICUG_clean_sbu_0, # of connection points: 6
#     Node 9, Type 0, BuildingBlock: OJICUG_clean_sbu_0, # of connection points: 6
#     Node 10, Type 0, BuildingBlock: OJICUG_clean_sbu_0, # of connection points: 6
#     Node 11, Type 0, BuildingBlock: OJICUG_clean_sbu_0, # of connection points: 6
#     Node 12, Type 0, BuildingBlock: OJICUG_clean_sbu_0, # of connection points: 6
#     Node 13, Type 0, BuildingBlock: OJICUG_clean_sbu_0, # of connection points: 6
#     Node 14, Type 0, BuildingBlock: OJICUG_clean_sbu_0, # of connection points: 6
#     Node 15, Type 0, BuildingBlock: OJICUG_clean_sbu_0, # of connection points: 6
#     Node 16, Type 0, BuildingBlock: OJICUG_clean_sbu_0, # of connection points: 6
#     Node 17, Type 0, BuildingBlock: OJICUG_clean_sbu_0, # of connection points: 6
#     Node 18, Type 0, BuildingBlock: OJICUG_clean_sbu_0, # of connection points: 6
#     Node 19, Type 0, BuildingBlock: OJICUG_clean_sbu_0, # of connection points: 6
#     Node 20, Type 0, BuildingBlock: OJICUG_clean_sbu_0, # of connection points: 6
#     Node 21, Type 0, BuildingBlock: OJICUG_clean_sbu_0, # of connection points: 6
#     Node 22, Type 0, BuildingBlock: OJICUG_clean_sbu_0, # of connection points: 6
#     Node 23, Type 0, BuildingBlock: OJICUG_clean_sbu_0, # of connection points: 6
#     Node 24, Type 0, BuildingBlock: OJICUG_clean_sbu_0, # of connection points: 6
#     Node 25, Type 0, BuildingBlock: OJICUG_clean_sbu_0, # of connection points: 6
#     Node 26, Type 0, BuildingBlock: OJICUG_clean_sbu_0, # of connection points: 6
#     Node 27, Type 0, BuildingBlock: OJICUG_clean_sbu_0, # of connection points: 6
#     Node 28, Type 0, BuildingBlock: OJICUG_clean_sbu_0, # of connection points: 6
#     Node 29, Type 0, BuildingBlock: OJICUG_clean_sbu_0, # of connection points: 6
#     Node 30, Type 0, BuildingBlock: OJICUG_clean_sbu_0, # of connection points: 6
#     Node 31, Type 0, BuildingBlock: OJICUG_clean_sbu_0, # of connection points: 6
#     Node 32, Type 0, BuildingBlock: OJICUG_clean_sbu_0, # of connection points: 6
#     Node 33, Type 0, BuildingBlock: OJICUG_clean_sbu_0, # of connection points: 6
#     Node 34, Type 0, BuildingBlock: OJICUG_clean_sbu_0, # of connection points: 6
#     Node 35, Type 0, BuildingBlock: OJICUG_clean_sbu_0, # of connection points: 6
#     Edge 36, Type (0, 0), BuildingBlock: UVAHIK_clean_linker_0, # of connection points: 2
#     Edge 37, Type (0, 0), BuildingBlock: UVAHIK_clean_linker_0, # of connection points: 2
#     Edge 38, Type (0, 0), BuildingBlock: UVAHIK_clean_linker_0, # of connection points: 2
#     Edge 39, Type (0, 0), BuildingBlock: UVAHIK_clean_linker_0, # of connection points: 2
#     Edge 40, Type (0, 0), BuildingBlock: UVAHIK_clean_linker_0, # of connection points: 2
#     Edge 41, Type (0, 0), BuildingBlock: UVAHIK_clean_linker_0, # of connection points: 2
#     Edge 42, Type (0, 0), BuildingBlock: UVAHIK_clean_linker_0, # of connection points: 2
#     Edge 43, Type (0, 0), BuildingBlock: UVAHIK_clean_linker_0, # of connection points: 2
#     Edge 44, Type (0, 0), BuildingBlock: UVAHIK_clean_linker_0, # of connection points: 2
#     Edge 45, Type (0, 0), BuildingBlock: UVAHIK_clean_linker_0, # of connection points: 2
#     Edge 46, Type (0, 0), BuildingBlock: UVAHIK_clean_linker_0, # of connection points: 2
#     Edge 47, Type (0, 0), BuildingBlock: UVAHIK_clean_linker_0, # of connection points: 2
#     Edge 48, Type (0, 0), BuildingBlock: UVAHIK_clean_linker_0, # of connection points: 2
#     Edge 49, Type (0, 0), BuildingBlock: UVAHIK_clean_linker_0, # of connection points: 2
#     Edge 50, Type (0, 0), BuildingBlock: UVAHIK_clean_linker_0, # of connection points: 2
#     Edge 51, Type (0, 0), BuildingBlock: UVAHIK_clean_linker_0, # of connection points: 2
#     Edge 52, Type (0, 0), BuildingBlock: UVAHIK_clean_linker_0, # of connection points: 2
#     Edge 53, Type (0, 0), BuildingBlock: UVAHIK_clean_linker_0, # of connection points: 2
#     Edge 54, Type (0, 0), BuildingBlock: UVAHIK_clean_linker_0, # of connection points: 2
#     Edge 55, Type (0, 0), BuildingBlock: UVAHIK_clean_linker_0, # of connection points: 2
#     Edge 56, Type (0, 0), BuildingBlock: UVAHIK_clean_linker_0, # of connection points: 2
#     Edge 57, Type (0, 0), BuildingBlock: UVAHIK_clean_linker_0, # of connection points: 2
#     Edge 58, Type (0, 0), BuildingBlock: UVAHIK_clean_linker_0, # of connection points: 2
#     Edge 59, Type (0, 0), BuildingBlock: UVAHIK_clean_linker_0, # of connection points: 2
#     Edge 60, Type (0, 0), BuildingBlock: UVAHIK_clean_linker_0, # of connection points: 2
#     Edge 61, Type (0, 0), BuildingBlock: UVAHIK_clean_linker_0, # of connection points: 2
#     Edge 62, Type (0, 0), BuildingBlock: UVAHIK_clean_linker_0, # of connection points: 2
#     Edge 63, Type (0, 0), BuildingBlock: UVAHIK_clean_linker_0, # of connection points: 2
#     Edge 64, Type (0, 0), BuildingBlock: UVAHIK_clean_linker_0, # of connection points: 2
#     Edge 65, Type (0, 0), BuildingBlock: UVAHIK_clean_linker_0, # of connection points: 2
#     Edge 66, Type (0, 0), BuildingBlock: UVAHIK_clean_linker_0, # of connection points: 2
#     Edge 67, Type (0, 0), BuildingBlock: UVAHIK_clean_linker_0, # of connection points: 2
#     Edge 68, Type (0, 0), BuildingBlock: UVAHIK_clean_linker_0, # of connection points: 2
#     Edge 69, Type (0, 0), BuildingBlock: UVAHIK_clean_linker_0, # of connection points: 2
#     Edge 70, Type (0, 0), BuildingBlock: UVAHIK_clean_linker_0, # of connection points: 2
#     Edge 71, Type (0, 0), BuildingBlock: UVAHIK_clean_linker_0, # of connection points: 2
#     Edge 72, Type (0, 0), BuildingBlock: UVAHIK_clean_linker_0, # of connection points: 2
#     Edge 73, Type (0, 0), BuildingBlock: UVAHIK_clean_linker_0, # of connection points: 2
#     Edge 74, Type (0, 0), BuildingBlock: UVAHIK_clean_linker_0, # of connection points: 2
#     Edge 75, Type (0, 0), BuildingBlock: UVAHIK_clean_linker_0, # of connection points: 2
#     Edge 76, Type (0, 0), BuildingBlock: UVAHIK_clean_linker_0, # of connection points: 2
#     Edge 77, Type (0, 0), BuildingBlock: UVAHIK_clean_linker_0, # of connection points: 2
#     Edge 78, Type (0, 0), BuildingBlock: UVAHIK_clean_linker_0, # of connection points: 2
#     Edge 79, Type (0, 0), BuildingBlock: UVAHIK_clean_linker_0, # of connection points: 2
#     Edge 80, Type (0, 0), BuildingBlock: UVAHIK_clean_linker_0, # of connection points: 2
#     Edge 81, Type (0, 0), BuildingBlock: UVAHIK_clean_linker_0, # of connection points: 2
#     Edge 82, Type (0, 0), BuildingBlock: UVAHIK_clean_linker_0, # of connection points: 2
#     Edge 83, Type (0, 0), BuildingBlock: UVAHIK_clean_linker_0, # of connection points: 2
#     Edge 84, Type (0, 0), BuildingBlock: UVAHIK_clean_linker_0, # of connection points: 2
#     Edge 85, Type (0, 0), BuildingBlock: UVAHIK_clean_linker_0, # of connection points: 2
#     Edge 86, Type (0, 0), BuildingBlock: UVAHIK_clean_linker_0, # of connection points: 2
#     Edge 87, Type (0, 0), BuildingBlock: UVAHIK_clean_linker_0, # of connection points: 2
#     Edge 88, Type (0, 0), BuildingBlock: UVAHIK_clean_linker_0, # of connection points: 2
#     Edge 89, Type (0, 0), BuildingBlock: UVAHIK_clean_linker_0, # of connection points: 2
#     Edge 90, Type (0, 0), BuildingBlock: UVAHIK_clean_linker_0, # of connection points: 2
#     Edge 91, Type (0, 0), BuildingBlock: UVAHIK_clean_linker_0, # of connection points: 2
#     Edge 92, Type (0, 0), BuildingBlock: UVAHIK_clean_linker_0, # of connection points: 2
#     Edge 93, Type (0, 0), BuildingBlock: UVAHIK_clean_linker_0, # of connection points: 2
#     Edge 94, Type (0, 0), BuildingBlock: UVAHIK_clean_linker_0, # of connection points: 2
#     Edge 95, Type (0, 0), BuildingBlock: UVAHIK_clean_linker_0, # of connection points: 2
#     Edge 96, Type (0, 0), BuildingBlock: UVAHIK_clean_linker_0, # of connection points: 2
#     Edge 97, Type (0, 0), BuildingBlock: UVAHIK_clean_linker_0, # of connection points: 2
#     Edge 98, Type (0, 0), BuildingBlock: UVAHIK_clean_linker_0, # of connection points: 2
#     Edge 99, Type (0, 0), BuildingBlock: UVAHIK_clean_linker_0, # of connection points: 2
#     Edge 100, Type (0, 0), BuildingBlock: UVAHIK_clean_linker_0, # of connection points: 2
#     Edge 101, Type (0, 0), BuildingBlock: UVAHIK_clean_linker_0, # of connection points: 2
#     Edge 102, Type (0, 0), BuildingBlock: UVAHIK_clean_linker_0, # of connection points: 2
#     Edge 103, Type (0, 0), BuildingBlock: UVAHIK_clean_linker_0, # of connection points: 2
#     Edge 104, Type (0, 0), BuildingBlock: UVAHIK_clean_linker_0, # of connection points: 2
#     Edge 105, Type (0, 0), BuildingBlock: UVAHIK_clean_linker_0, # of connection points: 2
#     Edge 106, Type (0, 0), BuildingBlock: UVAHIK_clean_linker_0, # of connection points: 2
#     Edge 107, Type (0, 0), BuildingBlock: UVAHIK_clean_linker_0, # of connection points: 2
#     Edge 108, Type (0, 0), BuildingBlock: UVAHIK_clean_linker_0, # of connection points: 2
#     Edge 109, Type (0, 0), BuildingBlock: UVAHIK_clean_linker_0, # of connection points: 2
#     Edge 110, Type (0, 0), BuildingBlock: UVAHIK_clean_linker_0, # of connection points: 2
#     Edge 111, Type (0, 0), BuildingBlock: UVAHIK_clean_linker_0, # of connection points: 2
#     Edge 112, Type (0, 0), BuildingBlock: UVAHIK_clean_linker_0, # of connection points: 2
#     Edge 113, Type (0, 0), BuildingBlock: UVAHIK_clean_linker_0, # of connection points: 2
#     Edge 114, Type (0, 0), BuildingBlock: UVAHIK_clean_linker_0, # of connection points: 2
#     Edge 115, Type (0, 0), BuildingBlock: UVAHIK_clean_linker_0, # of connection points: 2
#     Edge 116, Type (0, 0), BuildingBlock: UVAHIK_clean_linker_0, # of connection points: 2
#     Edge 117, Type (0, 0), BuildingBlock: UVAHIK_clean_linker_0, # of connection points: 2
#     Edge 118, Type (0, 0), BuildingBlock: UVAHIK_clean_linker_0, # of connection points: 2
#     Edge 119, Type (0, 0), BuildingBlock: UVAHIK_clean_linker_0, # of connection points: 2
#     Edge 120, Type (0, 0), BuildingBlock: UVAHIK_clean_linker_0, # of connection points: 2
#     Edge 121, Type (0, 0), BuildingBlock: UVAHIK_clean_linker_0, # of connection points: 2
#     Edge 122, Type (0, 0), BuildingBlock: UVAHIK_clean_linker_0, # of connection points: 2
#     Edge 123, Type (0, 0), BuildingBlock: UVAHIK_clean_linker_0, # of connection points: 2
#     Edge 124, Type (0, 0), BuildingBlock: UVAHIK_clean_linker_0, # of connection points: 2
#     Edge 125, Type (0, 0), BuildingBlock: UVAHIK_clean_linker_0, # of connection points: 2
#     Edge 126, Type (0, 0), BuildingBlock: UVAHIK_clean_linker_0, # of connection points: 2
#     Edge 127, Type (0, 0), BuildingBlock: UVAHIK_clean_linker_0, # of connection points: 2
#     Edge 128, Type (0, 0), BuildingBlock: UVAHIK_clean_linker_0, # of connection points: 2
#     Edge 129, Type (0, 0), BuildingBlock: UVAHIK_clean_linker_0, # of connection points: 2
#     Edge 130, Type (0, 0), BuildingBlock: UVAHIK_clean_linker_0, # of connection points: 2
#     Edge 131, Type (0, 0), BuildingBlock: UVAHIK_clean_linker_0, # of connection points: 2
#     Edge 132, Type (0, 0), BuildingBlock: UVAHIK_clean_linker_0, # of connection points: 2
#     Edge 133, Type (0, 0), BuildingBlock: UVAHIK_clean_linker_0, # of connection points: 2
#     Edge 134, Type (0, 0), BuildingBlock: UVAHIK_clean_linker_0, # of connection points: 2
#     Edge 135, Type (0, 0), BuildingBlock: UVAHIK_clean_linker_0, # of connection points: 2
#     Edge 136, Type (0, 0), BuildingBlock: UVAHIK_clean_linker_0, # of connection points: 2
#     Edge 137, Type (0, 0), BuildingBlock: UVAHIK_clean_linker_0, # of connection points: 2
#     Edge 138, Type (0, 0), BuildingBlock: UVAHIK_clean_linker_0, # of connection points: 2
#     Edge 139, Type (0, 0), BuildingBlock: UVAHIK_clean_linker_0, # of connection points: 2
#     Edge 140, Type (0, 0), BuildingBlock: UVAHIK_clean_linker_0, # of connection points: 2
#     Edge 141, Type (0, 0), BuildingBlock: UVAHIK_clean_linker_0, # of connection points: 2
#     Edge 142, Type (0, 0), BuildingBlock: UVAHIK_clean_linker_0, # of connection points: 2
#     Edge 143, Type (0, 0), BuildingBlock: UVAHIK_clean_linker_0, # of connection points: 2
# Relax obj value: 0.347
# Max RMSD: 0.287
# Mean RMSD: 0.287
data_MOF--net-wmp--node1-OJICUG_clean_sbu_0--edge1-UVAHIK_clean_linker_0
_symmetry_space_group_name_H-M    P1
_symmetry_Int_Tables_number       1
_symmetry_cell_setting            triclinic
loop_
_symmetry_equiv_pos_as_xyz
'x, y, z'
_cell_length_a     157.89409
_cell_length_b     157.89647
_cell_length_c     20.101335
_cell_angle_alpha  90.005124
_cell_angle_beta   89.998012
_cell_angle_gamma 120.00016
loop_
_atom_site_label
_atom_site_type_symbol
_atom_site_fract_x
_atom_site_fract_y
_atom_site_fract_z
_atom_type_partial_charge
Sc0 Sc 0.13959 0.38881 0.11932 0.0
Sc1 Sc 0.12158 0.38809 0.01402 0.0
Sc2 Sc 0.14134 0.41079 0.06559 0.0
O3 O 0.13415 0.3959 0.06641 0.0
C4 C 0.14381 0.4066 0.21644 0.0
C5 C 0.11708 0.3752 0.14674 0.0
C6 C 0.11878 0.40498 0.07512 0.0
C7 C 0.13184 0.37565 0.98777 0.0
C8 C 0.15874 0.40618 0.05519 0.0
C9 C 0.13446 0.40595 0.91522 0.0
O10 O 0.1435 0.39859 0.20299 0.0
O11 O 0.11461 0.37719 0.09117 0.0
O12 O 0.12792 0.41106 0.07672 0.0
O13 O 0.13632 0.378 0.04318 0.0
O14 O 0.15562 0.4122 0.05452 0.0
O15 O 0.12698 0.39778 0.92945 0.0
O16 O 0.15364 0.39736 0.07406 0.0
O17 O 0.12676 0.3793 0.96699 0.0
O18 O 0.14072 0.41133 0.95857 0.0
O19 O 0.12585 0.37949 0.1676 0.0
O20 O 0.14262 0.41171 0.17253 0.0
O21 O 0.11525 0.39614 0.05665 0.0
Sc22 Sc 0.60593 0.75087 0.11313 0.0
Sc23 Sc 0.60774 0.73456 0.00518 0.0
Sc24 Sc 0.58475 0.73026 0.05746 0.0
O25 O 0.59946 0.73853 0.05863 0.0
C26 C 0.5882 0.7365 0.20712 0.0
C27 C 0.62007 0.74291 0.14039 0.0
C28 C 0.59178 0.71442 0.06388 0.0
C29 C 0.61945 0.75707 0.98325 0.0
C30 C 0.58841 0.75202 0.04935 0.0
C31 C 0.58968 0.72899 0.90755 0.0
O32 O 0.59545 0.74485 0.19338 0.0
O33 O 0.61896 0.73946 0.08163 0.0
O34 O 0.58523 0.71688 0.06206 0.0
O35 O 0.61749 0.7587 0.04158 0.0
O36 O 0.58267 0.74281 0.05302 0.0
O37 O 0.59773 0.72939 0.9217 0.0
O38 O 0.59745 0.75614 0.06375 0.0
O39 O 0.61535 0.7486 0.95736 0.0
O40 O 0.58443 0.73009 0.95072 0.0
O41 O 0.6148 0.74617 0.16428 0.0
O42 O 0.58399 0.72976 0.16421 0.0
O43 O 0.60069 0.72027 0.04948 0.0
Sc44 Sc 0.24407 0.85259 0.1134 0.0
Sc45 Sc 0.26105 0.87231 0.01618 0.0
Sc46 Sc 0.26572 0.85341 0.06173 0.0
O47 O 0.25696 0.85945 0.06372 0.0
C48 C 0.2584 0.84963 0.21157 0.0
C49 C 0.25163 0.8748 0.15088 0.0
C50 C 0.28122 0.87624 0.07711 0.0
C51 C 0.23824 0.86067 0.98589 0.0
C52 C 0.2445 0.83468 0.04538 0.0
C53 C 0.26727 0.8609 0.91264 0.0
O54 O 0.25036 0.84924 0.19748 0.0
O55 O 0.25679 0.87824 0.09852 0.0
O56 O 0.27873 0.86724 0.07846 0.0
O57 O 0.23611 0.85523 0.0369 0.0
O58 O 0.25377 0.83872 0.04517 0.0
O59 O 0.26558 0.86773 0.92831 0.0
O60 O 0.23997 0.83893 0.0659 0.0
O61 O 0.24699 0.86689 0.97017 0.0
O62 O 0.26731 0.85493 0.95505 0.0
O63 O 0.24696 0.86571 0.16422 0.0
O64 O 0.26496 0.85144 0.16828 0.0
O65 O 0.27555 0.87925 0.05734 0.0
Sc66 Sc 0.38829 0.14185 0.87969 0.0
Sc67 Sc 0.38646 0.1233 0.98308 0.0
Sc68 Sc 0.40958 0.14232 0.93476 0.0
O69 O 0.39479 0.1358 0.9323 0.0
C70 C 0.40615 0.14554 0.78489 0.0
C71 C 0.37399 0.11972 0.84909 0.0
C72 C 0.40275 0.11948 0.92634 0.0
C73 C 0.37478 0.13418 0.00928 0.0
C74 C 0.40595 0.16043 0.94498 0.0
C75 C 0.40433 0.13535 0.08353 0.0
O76 O 0.3986 0.1461 0.79918 0.0
O77 O 0.37543 0.11711 0.90595 0.0
O78 O 0.40922 0.12851 0.92827 0.0
O79 O 0.37696 0.13828 0.95255 0.0
O80 O 0.41165 0.15692 0.94246 0.0
O81 O 0.39624 0.12793 0.0671 0.0
O82 O 0.39696 0.15557 0.92907 0.0
O83 O 0.37855 0.12931 0.03223 0.0
O84 O 0.4098 0.1419 0.04202 0.0
O85 O 0.37902 0.12843 0.82744 0.0
O86 O 0.41063 0.14327 0.82757 0.0
O87 O 0.39376 0.11633 0.9384 0.0
Sc88 Sc 0.85258 0.24653 0.8838 0.0
Sc89 Sc 0.87086 0.26293 0.99141 0.0
Sc90 Sc 0.85167 0.26682 0.94411 0.0
O91 O 0.85839 0.25877 0.93968 0.0
C92 C 0.84918 0.26115 0.79233 0.0
C93 C 0.87484 0.25459 0.85612 0.0
C94 C 0.87442 0.28304 0.93608 0.0
C95 C 0.86001 0.24023 0.01311 0.0
C96 C 0.83369 0.24502 0.94874 0.0
C97 C 0.8584 0.26807 0.09262 0.0
O98 O 0.8486 0.25294 0.80352 0.0
O99 O 0.87729 0.25843 0.9137 0.0
O100 O 0.86537 0.28035 0.93916 0.0
O101 O 0.85592 0.23856 0.95632 0.0
O102 O 0.83713 0.25422 0.94937 0.0
O103 O 0.86607 0.26782 0.07656 0.0
O104 O 0.83864 0.24108 0.93081 0.0
O105 O 0.86489 0.24878 0.03765 0.0
O106 O 0.85182 0.26683 0.05104 0.0
O107 O 0.86619 0.25098 0.83352 0.0
O108 O 0.85107 0.26748 0.83744 0.0
O109 O 0.87773 0.27733 0.94844 0.0
Sc110 Sc 0.75101 0.60502 0.884 0.0
Sc111 Sc 0.73486 0.60712 0.99263 0.0
Sc112 Sc 0.73048 0.58395 0.94352 0.0
O113 O 0.73877 0.59869 0.93998 0.0
C114 C 0.73623 0.58716 0.792 0.0
C115 C 0.74325 0.61947 0.85756 0.0
C116 C 0.71461 0.59095 0.93651 0.0
C117 C 0.75753 0.61875 0.01342 0.0
C118 C 0.75217 0.58741 0.94827 0.0
C119 C 0.72933 0.5893 0.09255 0.0
O120 O 0.74452 0.59466 0.80355 0.0
O121 O 0.73952 0.61812 0.91548 0.0
O122 O 0.7171 0.58442 0.93864 0.0
O123 O 0.7591 0.61635 0.95625 0.0
O124 O 0.74295 0.58177 0.94843 0.0
O125 O 0.72982 0.59735 0.07719 0.0
O126 O 0.75627 0.59634 0.93098 0.0
O127 O 0.74903 0.61503 0.03879 0.0
O128 O 0.73041 0.58392 0.05049 0.0
O129 O 0.74668 0.61432 0.83408 0.0
O130 O 0.72983 0.5828 0.83686 0.0
O131 O 0.72047 0.59989 0.94984 0.0
Sc132 Sc 0.85521 0.58592 0.93564 0.0
Sc133 Sc 0.87322 0.60975 0.98395 0.0
Sc134 Sc 0.854 0.60638 0.8804 0.0
O135 O 0.86083 0.60066 0.93333 0.0
C136 C 0.85107 0.58879 0.7859 0.0
C137 C 0.87828 0.59429 0.92356 0.0
C138 C 0.87596 0.62146 0.84762 0.0
C139 C 0.86234 0.59178 0.0852 0.0
C140 C 0.8363 0.58818 0.9502 0.0
C141 C 0.86128 0.62052 0.00735 0.0
O142 O 0.8535 0.5845 0.82889 0.0
O143 O 0.88087 0.60291 0.94297 0.0
O144 O 0.86718 0.61622 0.82781 0.0
O145 O 0.85641 0.58575 0.04277 0.0
O146 O 0.84051 0.59701 0.93036 0.0
O147 O 0.8668 0.61749 0.03018 0.0
O148 O 0.84037 0.58296 0.94961 0.0
O149 O 0.86894 0.6004 0.06979 0.0
O150 O 0.8568 0.61759 0.9523 0.0
O151 O 0.86941 0.58743 0.92136 0.0
O152 O 0.85032 0.59623 0.79967 0.0
O153 O 0.87893 0.62036 0.90413 0.0
Sc154 Sc 0.40939 0.26665 0.93823 0.0
Sc155 Sc 0.38606 0.26203 0.988 0.0
Sc156 Sc 0.38828 0.24578 0.88097 0.0
O157 O 0.39458 0.25818 0.93562 0.0
C158 C 0.40591 0.26052 0.78665 0.0
C159 C 0.40229 0.28247 0.93327 0.0
C160 C 0.37367 0.25346 0.85354 0.0
C161 C 0.40397 0.26771 0.08829 0.0
C162 C 0.40624 0.24508 0.94454 0.0
C163 C 0.37472 0.23923 0.01093 0.0
O164 O 0.41052 0.26694 0.83111 0.0
O165 O 0.39338 0.27657 0.94726 0.0
O166 O 0.37854 0.2496 0.83219 0.0
O167 O 0.40961 0.26719 0.04534 0.0
O168 O 0.39735 0.24089 0.92627 0.0
O169 O 0.37795 0.24784 0.03325 0.0
O170 O 0.41177 0.25432 0.94548 0.0
O171 O 0.39567 0.26668 0.07334 0.0
O172 O 0.37736 0.23752 0.95515 0.0
O173 O 0.40881 0.27997 0.93239 0.0
O174 O 0.39829 0.25239 0.7992 0.0
O175 O 0.37522 0.25764 0.90999 0.0
Sc176 Sc 0.72874 0.14133 0.93994 0.0
Sc177 Sc 0.73363 0.12274 0.98759 0.0
Sc178 Sc 0.7496 0.14136 0.88039 0.0
O179 O 0.73729 0.13511 0.9359 0.0
C180 C 0.73461 0.14417 0.78829 0.0
C181 C 0.713 0.11841 0.93676 0.0
C182 C 0.74186 0.11913 0.85075 0.0
C183 C 0.72811 0.13491 0.08963 0.0
C184 C 0.75025 0.15985 0.94549 0.0
C185 C 0.75646 0.13418 0.00789 0.0
O186 O 0.72814 0.14203 0.83289 0.0
O187 O 0.71898 0.11542 0.94874 0.0
O188 O 0.74559 0.12787 0.82987 0.0
O189 O 0.72852 0.14107 0.04706 0.0
O190 O 0.75451 0.15519 0.92771 0.0
O191 O 0.74791 0.12887 0.03136 0.0
O192 O 0.74101 0.15608 0.94566 0.0
O193 O 0.72913 0.12765 0.07403 0.0
O194 O 0.75802 0.13852 0.95217 0.0
O195 O 0.71548 0.12741 0.93608 0.0
O196 O 0.74288 0.14497 0.80043 0.0
O197 O 0.73793 0.11642 0.90793 0.0
Sc198 Sc 0.58482 0.85428 0.06499 0.0
Sc199 Sc 0.60816 0.87318 0.01923 0.0
Sc200 Sc 0.6058 0.85442 0.12252 0.0
O201 O 0.59958 0.86066 0.06911 0.0
C202 C 0.58776 0.85079 0.21495 0.0
C203 C 0.59183 0.87716 0.07271 0.0
C204 C 0.62005 0.87642 0.15556 0.0
C205 C 0.59052 0.86129 0.91665 0.0
C206 C 0.58829 0.83609 0.05471 0.0
C207 C 0.61974 0.86218 0.99526 0.0
O208 O 0.58356 0.85337 0.17212 0.0
O209 O 0.60086 0.88026 0.06238 0.0
O210 O 0.61481 0.8677 0.17656 0.0
O211 O 0.5849 0.85475 0.95774 0.0
O212 O 0.59727 0.84087 0.07089 0.0
O213 O 0.61604 0.86705 0.97134 0.0
O214 O 0.58262 0.83963 0.0579 0.0
O215 O 0.5986 0.86868 0.93387 0.0
O216 O 0.61744 0.85811 0.05204 0.0
O217 O 0.58533 0.86815 0.07034 0.0
O218 O 0.59516 0.84995 0.20115 0.0
O219 O 0.61898 0.87916 0.09808 0.0
Sc220 Sc 0.14247 0.73016 0.0532 0.0
Sc221 Sc 0.12371 0.73497 0.00697 0.0
Sc222 Sc 0.14332 0.75184 0.10447 0.0
O223 O 0.13649 0.73897 0.05489 0.0
C224 C 0.14652 0.73766 0.20239 0.0
C225 C 0.11958 0.71493 0.07048 0.0
C226 C 0.12127 0.74467 0.1405 0.0
C227 C 0.13478 0.72819 0.90474 0.0
C228 C 0.16117 0.75139 0.03596 0.0
C229 C 0.13543 0.75761 0.97542 0.0
O230 O 0.14442 0.73091 0.15996 0.0
O231 O 0.11663 0.72071 0.05182 0.0
O232 O 0.13024 0.74882 0.15711 0.0
O233 O 0.14102 0.72851 0.94631 0.0
O234 O 0.15688 0.75594 0.05539 0.0
O235 O 0.1295 0.74887 0.95783 0.0
O236 O 0.15718 0.74212 0.03711 0.0
O237 O 0.12792 0.72978 0.92113 0.0
O238 O 0.14045 0.7597 0.02851 0.0
O239 O 0.12853 0.71723 0.06967 0.0
O240 O 0.14699 0.7457 0.18753 0.0
O241 O 0.11801 0.73992 0.08649 0.0
Sc242 Sc 0.26766 0.41009 0.07009 0.0
Sc243 Sc 0.26389 0.38714 0.01828 0.0
Sc244 Sc 0.24683 0.38844 0.12118 0.0
O245 O 0.25951 0.39526 0.07004 0.0
C246 C 0.26039 0.40608 0.21937 0.0
C247 C 0.28353 0.40313 0.08415 0.0
C248 C 0.2546 0.37409 0.14957 0.0
C249 C 0.27023 0.4054 0.92084 0.0
C250 C 0.2459 0.40612 0.05498 0.0
C251 C 0.24146 0.37551 0.98885 0.0
O252 O 0.26708 0.41094 0.17711 0.0
O253 O 0.27792 0.39433 0.06597 0.0
O254 O 0.25093 0.37906 0.17222 0.0
O255 O 0.2691 0.41076 0.963 0.0
O256 O 0.24187 0.3972 0.07239 0.0
O257 O 0.25015 0.37941 0.96671 0.0
O258 O 0.25508 0.412 0.05752 0.0
O259 O 0.26934 0.39718 0.93601 0.0
O260 O 0.23939 0.37744 0.04594 0.0
O261 O 0.28099 0.40963 0.08312 0.0
O262 O 0.25251 0.39834 0.20414 0.0
O263 O 0.25877 0.37575 0.09302 0.0
Sc264 Sc 0.8081 0.72221 0.45574 0.0
Sc265 Sc 0.78925 0.71968 0.3528 0.0
Sc266 Sc 0.80797 0.74308 0.3989 0.0
O267 O 0.80174 0.72834 0.40263 0.0
C268 C 0.81154 0.74013 0.54877 0.0
C269 C 0.78616 0.70773 0.48857 0.0
C270 C 0.78502 0.73577 0.40799 0.0
C271 C 0.80041 0.70831 0.32807 0.0
C272 C 0.82633 0.73986 0.38801 0.0
C273 C 0.80091 0.73743 0.25061 0.0
O274 O 0.81246 0.73278 0.53473 0.0
O275 O 0.7834 0.70878 0.4311 0.0
O276 O 0.79399 0.74238 0.40515 0.0
O277 O 0.80448 0.71062 0.38486 0.0
O278 O 0.82269 0.74545 0.39119 0.0
O279 O 0.79359 0.7293 0.26779 0.0
O280 O 0.82162 0.73088 0.40419 0.0
O281 O 0.79552 0.71198 0.30419 0.0
O282 O 0.80744 0.74306 0.29165 0.0
O283 O 0.79485 0.71306 0.50977 0.0
O284 O 0.80892 0.74431 0.50604 0.0
O285 O 0.78204 0.72678 0.39706 0.0
Sc286 Sc 0.27128 0.08301 0.45082 0.0
Sc287 Sc 0.27417 0.06752 0.3411 0.0
Sc288 Sc 0.2506 0.06219 0.3897 0.0
O289 O 0.26533 0.07086 0.39392 0.0
C290 C 0.25339 0.0679 0.54148 0.0
C291 C 0.28593 0.07554 0.47862 0.0
C292 C 0.25818 0.04676 0.39234 0.0
C293 C 0.28547 0.09026 0.32404 0.0
C294 C 0.25355 0.0837 0.38469 0.0
C295 C 0.25636 0.06172 0.23974 0.0
O296 O 0.26077 0.07624 0.52964 0.0
O297 O 0.28491 0.07203 0.42019 0.0
O298 O 0.2515 0.04903 0.39294 0.0
O299 O 0.28282 0.09155 0.38105 0.0
O300 O 0.24806 0.07444 0.38474 0.0
O301 O 0.26468 0.06284 0.25506 0.0
O302 O 0.26247 0.08798 0.40258 0.0
O303 O 0.28199 0.08186 0.29756 0.0
O304 O 0.25061 0.06206 0.28255 0.0
O305 O 0.28059 0.07879 0.50152 0.0
O306 O 0.24924 0.06142 0.49674 0.0
O307 O 0.2671 0.05288 0.38012 0.0
Sc308 Sc 0.91021 0.18739 0.45822 0.0
Sc309 Sc 0.92548 0.20553 0.34728 0.0
Sc310 Sc 0.93074 0.1874 0.39465 0.0
O311 O 0.92218 0.19347 0.40027 0.0
C312 C 0.92575 0.18501 0.54632 0.0
C313 C 0.9175 0.20935 0.48471 0.0
C314 C 0.94618 0.21045 0.39484 0.0
C315 C 0.90292 0.19406 0.33063 0.0
C316 C 0.90925 0.16885 0.39427 0.0
C317 C 0.93102 0.19336 0.24633 0.0
O318 O 0.91713 0.1834 0.53536 0.0
O319 O 0.9205 0.21159 0.42495 0.0
O320 O 0.94395 0.20151 0.39129 0.0
O321 O 0.9017 0.19072 0.38961 0.0
O322 O 0.9185 0.17256 0.39631 0.0
O323 O 0.93078 0.20103 0.26261 0.0
O324 O 0.905 0.17364 0.40899 0.0
O325 O 0.91123 0.1985 0.30247 0.0
O326 O 0.92982 0.18679 0.28788 0.0
O327 O 0.91481 0.20096 0.50941 0.0
O328 O 0.93222 0.18772 0.50115 0.0
O329 O 0.93993 0.21323 0.38863 0.0
Sc330 Sc 0.05559 0.47969 0.21895 0.0
Sc331 Sc 0.05322 0.45954 0.30843 0.0
Sc332 Sc 0.07659 0.4789 0.26642 0.0
O333 O 0.06178 0.47268 0.26445 0.0
C334 C 0.07279 0.4829 0.11835 0.0
C335 C 0.04104 0.45768 0.17625 0.0
C336 C 0.0698 0.45619 0.24982 0.0
C337 C 0.04186 0.47075 0.34633 0.0
C338 C 0.07397 0.49749 0.28587 0.0
C339 C 0.07068 0.47094 0.41369 0.0
O340 O 0.06537 0.48358 0.13497 0.0
O341 O 0.04289 0.45399 0.2267 0.0
O342 O 0.07619 0.46521 0.25287 0.0
O343 O 0.04492 0.47645 0.29642 0.0
O344 O 0.07928 0.49358 0.28118 0.0
O345 O 0.06247 0.46378 0.39561 0.0
O346 O 0.065 0.49311 0.26968 0.0
O347 O 0.0446 0.46459 0.35867 0.0
O348 O 0.07655 0.47747 0.37334 0.0
O349 O 0.04541 0.46683 0.1651 0.0
O350 O 0.07747 0.48064 0.15951 0.0
O351 O 0.06085 0.45295 0.26323 0.0
Sc352 Sc 0.51895 0.57873 0.22475 0.0
Sc353 Sc 0.53855 0.59582 0.32163 0.0
Sc354 Sc 0.51962 0.60032 0.27597 0.0
O355 O 0.52574 0.59164 0.27397 0.0
C356 C 0.51621 0.59322 0.12631 0.0
C357 C 0.54109 0.58613 0.18816 0.0
C358 C 0.54249 0.61601 0.2642 0.0
C359 C 0.52692 0.57314 0.35391 0.0
C360 C 0.50093 0.57906 0.29017 0.0
C361 C 0.52687 0.60185 0.42464 0.0
O362 O 0.51546 0.58503 0.14108 0.0
O363 O 0.54445 0.59117 0.24111 0.0
O364 O 0.5335 0.61354 0.26547 0.0
O365 O 0.52176 0.57084 0.30131 0.0
O366 O 0.50485 0.58831 0.28772 0.0
O367 O 0.53405 0.60073 0.40829 0.0
O368 O 0.50535 0.57455 0.27301 0.0
O369 O 0.5329 0.58194 0.36989 0.0
O370 O 0.52058 0.60135 0.38283 0.0
O371 O 0.53205 0.5817 0.17335 0.0
O372 O 0.5183 0.59993 0.16908 0.0
O373 O 0.54553 0.61015 0.27827 0.0
Sc374 Sc 0.41632 0.93988 0.21803 0.0
Sc375 Sc 0.40032 0.94283 0.32317 0.0
Sc376 Sc 0.39514 0.91924 0.27595 0.0
O377 O 0.4039 0.93399 0.27231 0.0
C378 C 0.40126 0.92229 0.12473 0.0
C379 C 0.409 0.9547 0.18694 0.0
C380 C 0.37967 0.92677 0.27075 0.0
C381 C 0.42312 0.95389 0.34574 0.0
C382 C 0.41647 0.9218 0.28347 0.0
C383 C 0.39441 0.92508 0.4254 0.0
O384 O 0.40959 0.92965 0.13746 0.0
O385 O 0.4049 0.95348 0.24347 0.0
O386 O 0.38201 0.92014 0.27078 0.0
O387 O 0.42474 0.95102 0.29058 0.0
O388 O 0.4072 0.91646 0.28282 0.0
O389 O 0.39557 0.93341 0.4096 0.0
O390 O 0.4209 0.93073 0.26599 0.0
O391 O 0.41454 0.95084 0.36807 0.0
O392 O 0.39477 0.91928 0.38303 0.0
O393 O 0.4127 0.94961 0.16694 0.0
O394 O 0.39471 0.91801 0.16891 0.0
O395 O 0.38573 0.93569 0.283 0.0
Sc396 Sc 0.51784 0.91817 0.26678 0.0
Sc397 Sc 0.53701 0.94144 0.31386 0.0
Sc398 Sc 0.51731 0.93942 0.22053 0.0
O399 O 0.52407 0.93301 0.26695 0.0
C400 C 0.51397 0.92235 0.11861 0.0
C401 C 0.5406 0.92532 0.24827 0.0
C402 C 0.53948 0.95412 0.18316 0.0
C403 C 0.52568 0.92354 0.41532 0.0
C404 C 0.49933 0.92092 0.28673 0.0
C405 C 0.52561 0.9526 0.35099 0.0
O406 O 0.51578 0.91737 0.16013 0.0
O407 O 0.54373 0.93402 0.268 0.0
O408 O 0.5304 0.9498 0.16947 0.0
O409 O 0.51939 0.91773 0.37355 0.0
O410 O 0.50368 0.9298 0.26818 0.0
O411 O 0.53169 0.94981 0.36451 0.0
O412 O 0.50324 0.91559 0.28458 0.0
O413 O 0.53264 0.93196 0.39929 0.0
O414 O 0.5202 0.94977 0.29955 0.0
O415 O 0.53159 0.91883 0.24851 0.0
O416 O 0.51374 0.93002 0.13496 0.0
O417 O 0.54286 0.95207 0.23433 0.0
Sc418 Sc 0.07709 0.60188 0.28688 0.0
Sc419 Sc 0.05323 0.59651 0.32968 0.0
Sc420 Sc 0.05678 0.58029 0.23024 0.0
O421 O 0.06235 0.59291 0.28225 0.0
C422 C 0.07425 0.59538 0.1362 0.0
C423 C 0.06945 0.61721 0.27785 0.0
C424 C 0.04192 0.58747 0.19225 0.0
C425 C 0.07065 0.60251 0.43532 0.0
C426 C 0.07501 0.58079 0.29853 0.0
C427 C 0.04234 0.57364 0.35526 0.0
O428 O 0.07849 0.60201 0.17999 0.0
O429 O 0.06055 0.61115 0.29062 0.0
O430 O 0.04678 0.5833 0.1775 0.0
O431 O 0.07672 0.6025 0.39375 0.0
O432 O 0.06614 0.57617 0.27995 0.0
O433 O 0.04483 0.58227 0.37392 0.0
O434 O 0.08019 0.59006 0.29736 0.0
O435 O 0.06224 0.60106 0.41842 0.0
O436 O 0.04575 0.57187 0.3032 0.0
O437 O 0.07609 0.61491 0.27828 0.0
O438 O 0.06695 0.58703 0.14933 0.0
O439 O 0.04314 0.59215 0.24644 0.0
Sc440 Sc 0.39748 0.47634 0.27418 0.0
Sc441 Sc 0.40304 0.45814 0.31904 0.0
Sc442 Sc 0.41884 0.47732 0.21537 0.0
O443 O 0.40641 0.47056 0.26941 0.0
C444 C 0.4038 0.48013 0.12394 0.0
C445 C 0.38229 0.45331 0.2674 0.0
C446 C 0.41174 0.45534 0.18139 0.0
C447 C 0.39685 0.46953 0.42285 0.0
C448 C 0.41873 0.4952 0.28375 0.0
C449 C 0.42579 0.46981 0.34042 0.0
O450 O 0.39704 0.47735 0.16714 0.0
O451 O 0.38848 0.45058 0.27892 0.0
O452 O 0.41526 0.46413 0.16153 0.0
O453 O 0.39708 0.47574 0.38143 0.0
O454 O 0.42329 0.49081 0.26659 0.0
O455 O 0.41728 0.46445 0.36421 0.0
O456 O 0.40946 0.49122 0.28179 0.0
O457 O 0.39818 0.46252 0.40586 0.0
O458 O 0.4273 0.47426 0.28526 0.0
O459 O 0.38446 0.46223 0.26824 0.0
O460 O 0.41217 0.48123 0.13704 0.0
O461 O 0.40775 0.45242 0.23819 0.0
Sc462 Sc 0.25082 0.18584 0.38869 0.0
Sc463 Sc 0.27421 0.20493 0.34241 0.0
Sc464 Sc 0.2719 0.18544 0.43945 0.0
O465 O 0.26564 0.19209 0.39019 0.0
C466 C 0.25446 0.18196 0.53782 0.0
C467 C 0.25804 0.20863 0.40615 0.0
C468 C 0.28648 0.20758 0.47551 0.0
C469 C 0.25639 0.19358 0.24029 0.0
C470 C 0.25373 0.16739 0.37153 0.0
C471 C 0.28548 0.19356 0.3101 0.0
O472 O 0.24971 0.18393 0.49548 0.0
O473 O 0.26681 0.21176 0.3877 0.0
O474 O 0.28184 0.1986 0.49195 0.0
O475 O 0.25057 0.18725 0.2818 0.0
O476 O 0.26259 0.17181 0.39063 0.0
O477 O 0.28252 0.19939 0.29292 0.0
O478 O 0.24834 0.17125 0.3728 0.0
O479 O 0.26477 0.20058 0.25673 0.0
O480 O 0.28263 0.1885 0.36307 0.0
O481 O 0.25153 0.19963 0.40498 0.0
O482 O 0.26212 0.18164 0.52279 0.0
O483 O 0.28487 0.21079 0.42172 0.0
Sc484 Sc 0.80818 0.06235 0.38861 0.0
Sc485 Sc 0.78901 0.06641 0.33976 0.0
Sc486 Sc 0.80822 0.08375 0.43783 0.0
O487 O 0.8018 0.07082 0.38878 0.0
C488 C 0.81172 0.06997 0.53782 0.0
C489 C 0.7854 0.04671 0.40588 0.0
C490 C 0.78598 0.07619 0.47069 0.0
C491 C 0.80053 0.05987 0.23979 0.0
C492 C 0.82653 0.08379 0.3721 0.0
C493 C 0.80042 0.08902 0.30607 0.0
O494 O 0.81009 0.06335 0.49542 0.0
O495 O 0.78224 0.05226 0.38609 0.0
O496 O 0.79492 0.08061 0.48803 0.0
O497 O 0.80686 0.06051 0.28178 0.0
O498 O 0.82202 0.08811 0.39148 0.0
O499 O 0.79458 0.0802 0.28936 0.0
O500 O 0.82274 0.07454 0.37244 0.0
O501 O 0.7935 0.06124 0.25536 0.0
O502 O 0.80539 0.0913 0.35948 0.0
O503 O 0.79442 0.04924 0.40547 0.0
O504 O 0.81176 0.07781 0.52261 0.0
O505 O 0.78293 0.07123 0.41736 0.0
Sc506 Sc 0.93315 0.74506 0.39332 0.0
Sc507 Sc 0.92907 0.72198 0.34211 0.0
Sc508 Sc 0.91219 0.72359 0.44554 0.0
O509 O 0.92483 0.73024 0.3937 0.0
C510 C 0.92601 0.7412 0.54302 0.0
C511 C 0.94888 0.73794 0.40674 0.0
C512 C 0.91993 0.70917 0.47435 0.0
C513 C 0.9355 0.74019 0.24404 0.0
C514 C 0.91143 0.74141 0.37977 0.0
C515 C 0.90655 0.71041 0.31418 0.0
O516 O 0.93265 0.746 0.50035 0.0
O517 O 0.94321 0.72916 0.38848 0.0
O518 O 0.91618 0.71411 0.49629 0.0
O519 O 0.93456 0.74566 0.28624 0.0
O520 O 0.90729 0.73251 0.3978 0.0
O521 O 0.91521 0.71415 0.29181 0.0
O522 O 0.92066 0.7471 0.38091 0.0
O523 O 0.93441 0.73189 0.25913 0.0
O524 O 0.90456 0.71257 0.37073 0.0
O525 O 0.94641 0.74448 0.4062 0.0
O526 O 0.91808 0.73349 0.52824 0.0
O527 O 0.9241 0.71076 0.41786 0.0
Sc528 Sc 0.47627 0.05674 0.77144 0.0
Sc529 Sc 0.45676 0.05452 0.67483 0.0
Sc530 Sc 0.47581 0.07788 0.72231 0.0
O531 O 0.4696 0.06305 0.72292 0.0
C532 C 0.47959 0.07398 0.87127 0.0
C533 C 0.45408 0.04196 0.80651 0.0
C534 C 0.453 0.07063 0.7394 0.0
C535 C 0.46827 0.04339 0.64112 0.0
C536 C 0.49434 0.07512 0.70486 0.0
C537 C 0.46812 0.07245 0.57362 0.0
O538 O 0.47983 0.06629 0.85591 0.0
O539 O 0.45087 0.04383 0.75375 0.0
O540 O 0.46201 0.07713 0.73911 0.0
O541 O 0.47344 0.04628 0.69361 0.0
O542 O 0.49041 0.08044 0.70586 0.0
O543 O 0.46116 0.06403 0.58954 0.0
O544 O 0.48997 0.06627 0.72399 0.0
O545 O 0.46229 0.04622 0.62508 0.0
O546 O 0.47439 0.07826 0.61546 0.0
O547 O 0.46308 0.04649 0.82256 0.0
O548 O 0.47776 0.07886 0.82908 0.0
O549 O 0.44989 0.0619 0.72013 0.0
Sc550 Sc 0.93673 0.42014 0.77512 0.0
Sc551 Sc 0.93912 0.40239 0.68549 0.0
Sc552 Sc 0.91573 0.39832 0.72802 0.0
O553 O 0.93055 0.40694 0.72969 0.0
C554 C 0.91957 0.4062 0.87604 0.0
C555 C 0.95137 0.41278 0.81735 0.0
C556 C 0.92265 0.3825 0.74553 0.0
C557 C 0.95038 0.42493 0.64722 0.0
C558 C 0.91833 0.41952 0.70794 0.0
C559 C 0.92158 0.39618 0.58069 0.0
O560 O 0.92701 0.41428 0.85936 0.0
O561 O 0.94952 0.40726 0.76681 0.0
O562 O 0.91621 0.38507 0.7425 0.0
O563 O 0.94736 0.42757 0.69739 0.0
O564 O 0.91301 0.41029 0.71253 0.0
O565 O 0.92982 0.39729 0.59859 0.0
O566 O 0.92728 0.4241 0.72452 0.0
O567 O 0.94765 0.41604 0.6348 0.0
O568 O 0.91572 0.39683 0.62114 0.0
O569 O 0.94695 0.41751 0.8288 0.0
O570 O 0.91486 0.39926 0.83489 0.0
O571 O 0.93157 0.38823 0.73129 0.0
Sc572 Sc 0.57737 0.51887 0.78369 0.0
Sc573 Sc 0.59523 0.53893 0.69403 0.0
Sc574 Sc 0.59901 0.51939 0.73552 0.0
O575 O 0.59055 0.52576 0.73788 0.0
C576 C 0.59124 0.51543 0.88382 0.0
C577 C 0.58509 0.54092 0.82665 0.0
C578 C 0.61508 0.54205 0.75259 0.0
C579 C 0.57264 0.52787 0.65642 0.0
C580 C 0.57768 0.50096 0.71609 0.0
C581 C 0.60112 0.52744 0.58836 0.0
O582 O 0.5832 0.51492 0.86754 0.0
O583 O 0.59063 0.54458 0.77617 0.0
O584 O 0.61237 0.53301 0.74966 0.0
O585 O 0.56998 0.52215 0.70622 0.0
O586 O 0.5869 0.50477 0.72011 0.0
O587 O 0.6001 0.53461 0.60653 0.0
O588 O 0.57321 0.50542 0.73317 0.0
O589 O 0.58154 0.53402 0.64422 0.0
O590 O 0.60044 0.5209 0.62865 0.0
O591 O 0.5802 0.53177 0.83749 0.0
O592 O 0.59813 0.51756 0.84241 0.0
O593 O 0.60945 0.54537 0.73883 0.0
Sc594 Sc 0.72251 0.80898 0.5359 0.0
Sc595 Sc 0.72043 0.79073 0.64448 0.0
Sc596 Sc 0.74359 0.80921 0.59152 0.0
O597 O 0.72885 0.80295 0.59059 0.0
C598 C 0.74011 0.812 0.44144 0.0
C599 C 0.70802 0.78676 0.5095 0.0
C600 C 0.73631 0.78628 0.58614 0.0
C601 C 0.7089 0.80188 0.66568 0.0
C602 C 0.74036 0.82759 0.59911 0.0
C603 C 0.73855 0.8031 0.74205 0.0
O604 O 0.73275 0.81294 0.45469 0.0
O605 O 0.70941 0.78435 0.56729 0.0
O606 O 0.7429 0.79527 0.58549 0.0
O607 O 0.71127 0.80582 0.6085 0.0
O608 O 0.74595 0.82394 0.59731 0.0
O609 O 0.73029 0.79568 0.72857 0.0
O610 O 0.73136 0.82282 0.58331 0.0
O611 O 0.71259 0.79706 0.69073 0.0
O612 O 0.744 0.80921 0.69834 0.0
O613 O 0.71312 0.79537 0.48623 0.0
O614 O 0.74443 0.80967 0.48474 0.0
O615 O 0.72749 0.78335 0.60246 0.0
Sc616 Sc 0.18558 0.91148 0.55721 0.0
Sc617 Sc 0.20523 0.92858 0.65444 0.0
Sc618 Sc 0.18617 0.93301 0.60901 0.0
O619 O 0.19234 0.92436 0.60695 0.0
C620 C 0.18248 0.92572 0.45908 0.0
C621 C 0.20782 0.91919 0.51989 0.0
C622 C 0.20895 0.94865 0.59336 0.0
C623 C 0.19373 0.90577 0.68493 0.0
C624 C 0.16756 0.91172 0.6249 0.0
C625 C 0.1937 0.93465 0.75801 0.0
O626 O 0.18217 0.91772 0.47311 0.0
O627 O 0.21123 0.92435 0.57228 0.0
O628 O 0.19993 0.94608 0.59248 0.0
O629 O 0.18829 0.9036 0.63386 0.0
O630 O 0.17153 0.92098 0.62525 0.0
O631 O 0.20061 0.93308 0.74224 0.0
O632 O 0.17188 0.90726 0.60447 0.0
O633 O 0.19991 0.91453 0.70067 0.0
O634 O 0.18767 0.93458 0.71568 0.0
O635 O 0.19873 0.91449 0.50648 0.0
O636 O 0.18423 0.93227 0.50243 0.0
O637 O 0.21206 0.94305 0.61288 0.0
Sc638 Sc 0.08163 0.27292 0.54971 0.0
Sc639 Sc 0.06451 0.27506 0.64789 0.0
Sc640 Sc 0.06024 0.25172 0.60023 0.0
O641 O 0.06877 0.26655 0.59922 0.0
C642 C 0.06781 0.25541 0.45135 0.0
C643 C 0.07401 0.2874 0.51467 0.0
C644 C 0.04468 0.25897 0.58342 0.0
C645 C 0.0871 0.28644 0.67938 0.0
C646 C 0.08168 0.2549 0.61816 0.0
C647 C 0.05802 0.25713 0.74898 0.0
O648 O 0.07577 0.26305 0.46665 0.0
O649 O 0.06937 0.28584 0.56927 0.0
O650 O 0.04712 0.25242 0.58416 0.0
O651 O 0.08927 0.28378 0.62544 0.0
O652 O 0.07246 0.24933 0.61585 0.0
O653 O 0.05937 0.26551 0.73296 0.0
O654 O 0.08604 0.26378 0.59969 0.0
O655 O 0.07832 0.28326 0.69781 0.0
O656 O 0.05858 0.25137 0.70718 0.0
O657 O 0.0782 0.28267 0.49691 0.0
O658 O 0.06105 0.25067 0.49345 0.0
O659 O 0.05033 0.26771 0.60228 0.0
Sc660 Sc 0.1858 0.25078 0.60796 0.0
Sc661 Sc 0.20465 0.27427 0.65259 0.0
Sc662 Sc 0.18599 0.27166 0.54767 0.0
O663 O 0.19218 0.26555 0.60262 0.0
C664 C 0.18212 0.25332 0.45783 0.0
C665 C 0.20868 0.25783 0.60082 0.0
C666 C 0.20798 0.28567 0.51385 0.0
C667 C 0.19273 0.25683 0.75652 0.0
C668 C 0.16777 0.25448 0.61822 0.0
C669 C 0.19399 0.28625 0.67177 0.0
O670 O 0.18483 0.24928 0.50096 0.0
O671 O 0.21171 0.26682 0.61196 0.0
O672 O 0.19927 0.28041 0.49264 0.0
O673 O 0.18635 0.25103 0.71522 0.0
O674 O 0.17259 0.26342 0.60118 0.0
O675 O 0.19867 0.28248 0.69784 0.0
O676 O 0.17114 0.24866 0.61507 0.0
O677 O 0.20001 0.26499 0.73932 0.0
O678 O 0.18987 0.28362 0.61536 0.0
O679 O 0.19968 0.25127 0.60245 0.0
O680 O 0.18126 0.26074 0.47087 0.0
O681 O 0.21066 0.28475 0.57194 0.0
Sc682 Sc 0.74346 0.93351 0.61684 0.0
Sc683 Sc 0.72006 0.92834 0.6648 0.0
Sc684 Sc 0.72282 0.91307 0.55276 0.0
O685 O 0.72879 0.925 0.61131 0.0
C686 C 0.74076 0.92861 0.46458 0.0
C687 C 0.73599 0.94904 0.61676 0.0
C688 C 0.70805 0.92037 0.52808 0.0
C689 C 0.73779 0.93377 0.76548 0.0
C690 C 0.74046 0.91199 0.61549 0.0
C691 C 0.70885 0.90567 0.68079 0.0
O692 O 0.74471 0.93497 0.51029 0.0
O693 O 0.72697 0.94285 0.62424 0.0
O694 O 0.71359 0.9175 0.50311 0.0
O695 O 0.7432 0.93267 0.72366 0.0
O696 O 0.73147 0.90782 0.59971 0.0
O697 O 0.71255 0.914 0.70868 0.0
O698 O 0.74602 0.92123 0.61559 0.0
O699 O 0.72983 0.93343 0.74959 0.0
O700 O 0.71125 0.9045 0.62251 0.0
O701 O 0.74267 0.94677 0.61953 0.0
O702 O 0.73353 0.92009 0.47483 0.0
O703 O 0.70907 0.9236 0.58734 0.0
Sc704 Sc 0.06296 0.80908 0.60798 0.0
Sc705 Sc 0.06783 0.79052 0.65719 0.0
Sc706 Sc 0.08403 0.80922 0.55107 0.0
O707 O 0.07158 0.80291 0.6053 0.0
C708 C 0.06915 0.81186 0.45657 0.0
C709 C 0.0473 0.78614 0.60317 0.0
C710 C 0.07653 0.78695 0.52248 0.0
C711 C 0.06201 0.80259 0.75794 0.0
C712 C 0.08439 0.8277 0.61481 0.0
C713 C 0.09064 0.80217 0.6805 0.0
O714 O 0.06268 0.80992 0.50088 0.0
O715 O 0.05326 0.78319 0.61685 0.0
O716 O 0.08042 0.79572 0.50186 0.0
O717 O 0.06243 0.80872 0.71509 0.0
O718 O 0.08872 0.82312 0.59686 0.0
O719 O 0.08203 0.79664 0.7023 0.0
O720 O 0.07514 0.82385 0.61528 0.0
O721 O 0.06315 0.79539 0.74285 0.0
O722 O 0.09236 0.80664 0.6252 0.0
O723 O 0.04975 0.79513 0.60221 0.0
O724 O 0.07735 0.81253 0.4693 0.0
O725 O 0.07227 0.78421 0.57859 0.0
Sc726 Sc 0.91863 0.52194 0.72332 0.0
Sc727 Sc 0.94263 0.54007 0.67871 0.0
Sc728 Sc 0.93881 0.51962 0.77167 0.0
O729 O 0.93336 0.52723 0.72459 0.0
C730 C 0.92192 0.51728 0.87167 0.0
C731 C 0.92712 0.54492 0.74126 0.0
C732 C 0.95429 0.54151 0.81254 0.0
C733 C 0.92492 0.52973 0.57473 0.0
C734 C 0.91986 0.50257 0.70245 0.0
C735 C 0.9528 0.52753 0.64489 0.0
O736 O 0.91736 0.51957 0.82972 0.0
O737 O 0.93564 0.54753 0.72005 0.0
O738 O 0.94963 0.53235 0.82374 0.0
O739 O 0.91864 0.52392 0.61661 0.0
O740 O 0.92863 0.50632 0.72273 0.0
O741 O 0.95083 0.53422 0.63162 0.0
O742 O 0.91507 0.50706 0.70374 0.0
O743 O 0.93363 0.53606 0.59097 0.0
O744 O 0.94916 0.52184 0.69439 0.0
O745 O 0.92029 0.53606 0.74339 0.0
O746 O 0.92933 0.51654 0.85612 0.0
O747 O 0.95269 0.54534 0.7618 0.0
Sc748 Sc 0.47589 0.39585 0.72169 0.0
Sc749 Sc 0.45749 0.40084 0.67075 0.0
Sc750 Sc 0.47608 0.41698 0.77722 0.0
O751 O 0.46981 0.40453 0.72326 0.0
C752 C 0.47907 0.40243 0.87249 0.0
C753 C 0.45289 0.3806 0.73244 0.0
C754 C 0.45401 0.40978 0.80486 0.0
C755 C 0.46914 0.39434 0.5717 0.0
C756 C 0.49443 0.41732 0.71125 0.0
C757 C 0.4691 0.42343 0.6467 0.0
O758 O 0.47704 0.39589 0.82863 0.0
O759 O 0.45002 0.3865 0.71495 0.0
O760 O 0.46262 0.41312 0.82743 0.0
O761 O 0.47529 0.39487 0.61466 0.0
O762 O 0.48988 0.42166 0.72974 0.0
O763 O 0.46404 0.41488 0.6228 0.0
O764 O 0.49062 0.40806 0.71149 0.0
O765 O 0.46199 0.39556 0.58646 0.0
O766 O 0.47308 0.42511 0.7038 0.0
O767 O 0.46183 0.38284 0.73214 0.0
O768 O 0.47974 0.4106 0.85918 0.0
O769 O 0.45141 0.40592 0.74742 0.0
Sc770 Sc 0.5989 0.07827 0.731 0.0
Sc771 Sc 0.59458 0.0549 0.6844 0.0
Sc772 Sc 0.57701 0.05716 0.77735 0.0
O773 O 0.59017 0.06344 0.73102 0.0
C774 C 0.59081 0.07419 0.87918 0.0
C775 C 0.61432 0.0709 0.7505 0.0
C776 C 0.58425 0.04229 0.81517 0.0
C777 C 0.60135 0.0728 0.58262 0.0
C778 C 0.57773 0.07571 0.71023 0.0
C779 C 0.57202 0.04393 0.64705 0.0
O780 O 0.5976 0.07914 0.83759 0.0
O781 O 0.60871 0.06223 0.73051 0.0
O782 O 0.57957 0.0467 0.82867 0.0
O783 O 0.60095 0.07867 0.6243 0.0
O784 O 0.57314 0.06686 0.72935 0.0
O785 O 0.58088 0.04662 0.63365 0.0
O786 O 0.58698 0.08098 0.71233 0.0
O787 O 0.59978 0.06435 0.59879 0.0
O788 O 0.5695 0.04683 0.69837 0.0
O789 O 0.61188 0.07745 0.75008 0.0
O790 O 0.58289 0.06655 0.8629 0.0
O791 O 0.58968 0.04429 0.76408 0.0
C792 C 0.10195 0.35879 0.15161 0.0
C793 C 0.10967 0.36672 0.18501 0.0
C794 C 0.09599 0.35003 0.18517 0.0
C795 C 0.08604 0.33786 0.33967 0.0
H796 H 0.09211 0.31796 0.28465 0.0
C797 C 0.07641 0.30418 0.5024 0.0
C798 C 0.07532 0.29564 0.47273 0.0
C799 C 0.07892 0.31248 0.46401 0.0
C800 C 0.09007 0.32327 0.29984 0.0
H801 H 0.11677 0.37194 0.28058 0.0
H802 H 0.10607 0.35667 0.33976 0.0
H803 H 0.09907 0.33333 0.22427 0.0
H804 H 0.07536 0.28884 0.37934 0.0
H805 H 0.0791 0.30308 0.31148 0.0
H806 H 0.07684 0.32782 0.41421 0.0
C807 C 0.10477 0.35725 0.28747 0.0
C808 C 0.09414 0.33212 0.26537 0.0
C809 C 0.11088 0.36595 0.25361 0.0
C810 C 0.07626 0.29538 0.4035 0.0
C811 C 0.07851 0.30359 0.36478 0.0
C812 C 0.08174 0.3289 0.37328 0.0
C813 C 0.09749 0.34915 0.25296 0.0
C814 C 0.0923 0.33952 0.28576 0.0
C815 C 0.08017 0.31238 0.39469 0.0
C816 C 0.08386 0.32154 0.35476 0.0
H817 H 0.10088 0.35913 0.09865 0.0
H818 H 0.09043 0.34383 0.15774 0.0
H819 H 0.08452 0.34351 0.35594 0.0
H820 H 0.07581 0.30461 0.55585 0.0
H821 H 0.08029 0.31908 0.48947 0.0
C822 C 0.69894 0.78065 0.40173 0.0
C823 C 0.69948 0.77954 0.47074 0.0
C824 C 0.69032 0.77457 0.36693 0.0
C825 C 0.66453 0.76268 0.39027 0.0
H826 H 0.66203 0.74816 0.22893 0.0
C827 C 0.62804 0.74386 0.24979 0.0
C828 C 0.62848 0.74416 0.18008 0.0
C829 C 0.63638 0.74624 0.28738 0.0
C830 C 0.66261 0.75227 0.27347 0.0
H831 H 0.69151 0.77095 0.55689 0.0
H832 H 0.67639 0.76054 0.49618 0.0
H833 H 0.6776 0.75616 0.28872 0.0
H834 H 0.63791 0.74695 0.09481 0.0
H835 H 0.65256 0.75161 0.1598 0.0
H836 H 0.64991 0.75949 0.37368 0.0
C837 C 0.68269 0.76603 0.46916 0.0
C838 C 0.67151 0.75677 0.30784 0.0
C839 C 0.69136 0.77197 0.5037 0.0
C840 C 0.63734 0.74656 0.14857 0.0
C841 C 0.64575 0.7492 0.18609 0.0
C842 C 0.65573 0.75838 0.35525 0.0
C843 C 0.68206 0.7674 0.40079 0.0
C844 C 0.67254 0.76205 0.3663 0.0
C845 C 0.64545 0.74927 0.25612 0.0
C846 C 0.65463 0.75317 0.29598 0.0
H847 H 0.70509 0.7864 0.37497 0.0
H848 H 0.68996 0.77578 0.31421 0.0
H849 H 0.66521 0.76683 0.43486 0.0
H850 H 0.62126 0.74193 0.27528 0.0
H851 H 0.63574 0.7459 0.34105 0.0
C852 C 0.211 0.91292 0.41417 0.0
C853 C 0.21449 0.9178 0.47521 0.0
C854 C 0.21656 0.91003 0.37693 0.0
C855 C 0.22538 0.89732 0.34996 0.0
H856 H 0.25309 0.91212 0.30926 0.0
C857 C 0.24513 0.87789 0.25592 0.0
C858 C 0.25021 0.88146 0.19562 0.0
C859 C 0.24229 0.8835 0.29315 0.0
C860 C 0.24535 0.90793 0.32038 0.0
H861 H 0.22694 0.92414 0.54221 0.0
H862 H 0.23668 0.91903 0.47673 0.0
H863 H 0.24513 0.92027 0.36369 0.0
H864 H 0.25695 0.89406 0.13 0.0
H865 H 0.25193 0.90386 0.19548 0.0
H866 H 0.2255 0.88501 0.30726 0.0
C867 C 0.2296 0.91746 0.45807 0.0
C868 C 0.24082 0.91257 0.35162 0.0
C869 C 0.22401 0.92036 0.49559 0.0
C870 C 0.25301 0.89107 0.17602 0.0
C871 C 0.25016 0.8967 0.21355 0.0
C872 C 0.2299 0.8927 0.31966 0.0
C873 C 0.22576 0.91195 0.39969 0.0
C874 C 0.23077 0.9073 0.36622 0.0
C875 C 0.24447 0.89281 0.27116 0.0
C876 C 0.23993 0.89792 0.30459 0.0
H877 H 0.20377 0.91096 0.39629 0.0
H878 H 0.21351 0.90596 0.33139 0.0
H879 H 0.21766 0.89304 0.36144 0.0
H880 H 0.24298 0.87059 0.27321 0.0
H881 H 0.23806 0.8804 0.33809 0.0
C882 C 0.36488 0.11393 0.7411 0.0
C883 C 0.36544 0.11262 0.80983 0.0
C884 C 0.35626 0.10792 0.70606 0.0
C885 C 0.33054 0.09607 0.72826 0.0
H886 H 0.3279 0.08105 0.56928 0.0
C887 C 0.29394 0.07692 0.58864 0.0
C888 C 0.29435 0.07692 0.51893 0.0
C889 C 0.30231 0.07944 0.6264 0.0
C890 C 0.32851 0.0853 0.6131 0.0
H891 H 0.35749 0.1038 0.89523 0.0
H892 H 0.34237 0.09353 0.83416 0.0
H893 H 0.34349 0.08917 0.62867 0.0
H894 H 0.30373 0.07935 0.43392 0.0
H895 H 0.3184 0.08424 0.49903 0.0
H896 H 0.31594 0.09291 0.7113 0.0
C897 C 0.34866 0.09911 0.80753 0.0
C898 C 0.33743 0.08988 0.64725 0.0
C899 C 0.35733 0.10497 0.84225 0.0
C900 C 0.30318 0.07918 0.48769 0.0
C901 C 0.31161 0.08195 0.5253 0.0
C902 C 0.32172 0.09172 0.6934 0.0
C903 C 0.34801 0.10065 0.73946 0.0
C904 C 0.33851 0.09532 0.70491 0.0
C905 C 0.31135 0.08231 0.59525 0.0
C906 C 0.32057 0.08631 0.63497 0.0
H907 H 0.37102 0.11976 0.71478 0.0
H908 H 0.35589 0.10926 0.65357 0.0
H909 H 0.33127 0.10034 0.77229 0.0
H910 H 0.28719 0.07511 0.61396 0.0
H911 H 0.3017 0.07931 0.68006 0.0
C912 C 0.88955 0.25258 0.84975 0.0
C913 C 0.88201 0.25322 0.81707 0.0
C914 C 0.89535 0.24969 0.81509 0.0
C915 C 0.90419 0.24731 0.65306 0.0
H916 H 0.9013 0.22299 0.72036 0.0
C917 C 0.91361 0.2228 0.49355 0.0
C918 C 0.91613 0.21641 0.5248 0.0
C919 C 0.91106 0.22862 0.53127 0.0
C920 C 0.90245 0.22991 0.70148 0.0
H921 H 0.87507 0.25195 0.72161 0.0
H922 H 0.88545 0.24717 0.66062 0.0
H923 H 0.89431 0.23127 0.7819 0.0
H924 H 0.91854 0.21152 0.61986 0.0
H925 H 0.91467 0.22209 0.68594 0.0
H926 H 0.91249 0.24613 0.57332 0.0
C927 C 0.88675 0.2488 0.71322 0.0
C928 C 0.89836 0.23461 0.73673 0.0
C929 C 0.8808 0.2515 0.74815 0.0
C930 C 0.91653 0.21632 0.59451 0.0
C931 C 0.91422 0.22232 0.63231 0.0
C932 C 0.90849 0.24273 0.61843 0.0
C933 C 0.89387 0.24759 0.74685 0.0
C934 C 0.89905 0.24325 0.71225 0.0
C935 C 0.91117 0.22836 0.60129 0.0
C936 C 0.90751 0.23384 0.64142 0.0
H937 H 0.89064 0.25381 0.90287 0.0
H938 H 0.90082 0.24882 0.84194 0.0
H939 H 0.90485 0.25401 0.63351 0.0
H940 H 0.91313 0.22295 0.43983 0.0
H941 H 0.90861 0.233 0.50517 0.0
C942 C 0.74619 0.62861 0.74997 0.0
C943 C 0.74464 0.62807 0.81911 0.0
C944 C 0.74875 0.63725 0.71545 0.0
C945 C 0.76297 0.66296 0.73749 0.0
H946 H 0.74998 0.66583 0.58271 0.0
C947 C 0.78003 0.69965 0.59909 0.0
C948 C 0.77931 0.6993 0.52948 0.0
C949 C 0.77432 0.69127 0.6371 0.0
C950 C 0.75379 0.66515 0.62532 0.0
H951 H 0.74429 0.63608 0.90585 0.0
H952 H 0.74905 0.65125 0.84563 0.0
H953 H 0.74265 0.65021 0.6417 0.0
H954 H 0.77192 0.68998 0.44497 0.0
H955 H 0.76239 0.67529 0.51037 0.0
H956 H 0.77444 0.67753 0.71958 0.0
C957 C 0.74813 0.64492 0.8183 0.0
C958 C 0.74953 0.65622 0.65926 0.0
C959 C 0.74537 0.63623 0.85255 0.0
C960 C 0.77256 0.69049 0.49868 0.0
C961 C 0.76704 0.68205 0.53647 0.0
C962 C 0.76736 0.6718 0.70278 0.0
C963 C 0.74999 0.64555 0.74975 0.0
C964 C 0.75411 0.65507 0.71542 0.0
C965 C 0.76796 0.68226 0.60623 0.0
C966 C 0.76287 0.67303 0.64586 0.0
H967 H 0.74567 0.62243 0.72287 0.0
H968 H 0.75021 0.63761 0.66256 0.0
H969 H 0.76669 0.66218 0.78033 0.0
H970 H 0.78512 0.70638 0.6241 0.0
H971 H 0.77506 0.69185 0.69068 0.0
C972 C 0.88188 0.62931 0.73628 0.0
C973 C 0.88278 0.62977 0.80578 0.0
C974 C 0.88769 0.63756 0.69742 0.0
C975 C 0.90884 0.66338 0.70654 0.0
H976 H 0.89598 0.66668 0.55251 0.0
C977 C 0.91677 0.7 0.58177 0.0
C978 C 0.91845 0.70056 0.51281 0.0
C979 C 0.91413 0.69134 0.61631 0.0
C980 C 0.89968 0.66579 0.59505 0.0
H981 H 0.89054 0.63914 0.88927 0.0
H982 H 0.90025 0.65363 0.82245 0.0
H983 H 0.88795 0.65141 0.61414 0.0
H984 H 0.91896 0.69259 0.42636 0.0
H985 H 0.91403 0.67737 0.48664 0.0
H986 H 0.92026 0.67818 0.68911 0.0
C987 C 0.89539 0.64687 0.79704 0.0
C988 C 0.89513 0.657 0.63025 0.0
C989 C 0.88977 0.63855 0.83565 0.0
C990 C 0.91778 0.69241 0.47955 0.0
C991 C 0.91493 0.6837 0.51381 0.0
C992 C 0.91327 0.67228 0.67214 0.0
C993 C 0.89433 0.64655 0.72736 0.0
C994 C 0.89959 0.65568 0.68692 0.0
C995 C 0.91294 0.68306 0.58216 0.0
C996 C 0.90869 0.67354 0.6164 0.0
H997 H 0.8766 0.62259 0.71201 0.0
H998 H 0.88683 0.6369 0.64393 0.0
H999 H 0.91263 0.66261 0.74887 0.0
H1000 H 0.91725 0.70617 0.60867 0.0
H1001 H 0.91256 0.69096 0.66904 0.0
C1002 C 0.35685 0.25118 0.84714 0.0
C1003 C 0.36511 0.252 0.81445 0.0
C1004 C 0.34813 0.24813 0.81241 0.0
C1005 C 0.3364 0.24612 0.65625 0.0
H1006 H 0.31686 0.21977 0.7069 0.0
C1007 C 0.30316 0.22205 0.48957 0.0
C1008 C 0.29465 0.21444 0.51825 0.0
C1009 C 0.31139 0.22782 0.5287 0.0
C1010 C 0.32206 0.22722 0.6929 0.0
H1011 H 0.3709 0.2509 0.71906 0.0
H1012 H 0.35568 0.24586 0.65788 0.0
H1013 H 0.33204 0.22832 0.76923 0.0
H1014 H 0.2878 0.20724 0.61069 0.0
H1015 H 0.30189 0.21767 0.67988 0.0
H1016 H 0.32641 0.24522 0.58106 0.0
C1017 C 0.35599 0.24748 0.71052 0.0
C1018 C 0.33081 0.23207 0.72848 0.0
C1019 C 0.36465 0.25032 0.74551 0.0
C1020 C 0.29432 0.21301 0.58728 0.0
C1021 C 0.30246 0.21895 0.62675 0.0
C1022 C 0.32753 0.24137 0.62153 0.0
C1023 C 0.3476 0.24609 0.74417 0.0
C1024 C 0.33808 0.24147 0.70975 0.0
C1025 C 0.31122 0.22625 0.59781 0.0
C1026 C 0.3203 0.23176 0.63853 0.0
H1027 H 0.35695 0.25236 0.9003 0.0
H1028 H 0.34171 0.24705 0.83918 0.0
H1029 H 0.34194 0.25341 0.64128 0.0
H1030 H 0.30364 0.22325 0.43629 0.0
H1031 H 0.31799 0.23321 0.50397 0.0
C1032 C 0.74525 0.10537 0.83954 0.0
C1033 C 0.7431 0.1121 0.80944 0.0
C1034 C 0.74799 0.09979 0.80089 0.0
C1035 C 0.75792 0.09998 0.63226 0.0
H1036 H 0.75543 0.07553 0.69335 0.0
C1037 C 0.77089 0.07748 0.48058 0.0
C1038 C 0.77899 0.07765 0.5111 0.0
C1039 C 0.76502 0.08019 0.51623 0.0
C1040 C 0.75611 0.08233 0.67577 0.0
H1041 H 0.74143 0.11778 0.7154 0.0
H1042 H 0.74555 0.10758 0.64745 0.0
H1043 H 0.7472 0.08277 0.75421 0.0
H1044 H 0.78695 0.08023 0.60376 0.0
H1045 H 0.77642 0.08465 0.66674 0.0
H1046 H 0.76661 0.0993 0.55282 0.0
C1047 C 0.74563 0.10692 0.70101 0.0
C1048 C 0.75148 0.08654 0.71078 0.0
C1049 C 0.74315 0.11271 0.73982 0.0
C1050 C 0.78078 0.08006 0.57896 0.0
C1051 C 0.77475 0.08254 0.615 0.0
C1052 C 0.76232 0.09563 0.59651 0.0
C1053 C 0.74843 0.10063 0.73102 0.0
C1054 C 0.75247 0.09554 0.69028 0.0
C1055 C 0.76699 0.08286 0.58338 0.0
C1056 C 0.76158 0.08687 0.6186 0.0
H1057 H 0.74536 0.10484 0.89324 0.0
H1058 H 0.75022 0.09518 0.82635 0.0
H1059 H 0.75911 0.107 0.61539 0.0
H1060 H 0.76937 0.07573 0.42826 0.0
H1061 H 0.75908 0.08042 0.491 0.0
C1062 C 0.63717 0.89025 0.1665 0.0
C1063 C 0.62839 0.88334 0.19686 0.0
C1064 C 0.64556 0.89584 0.20465 0.0
C1065 C 0.6558 0.8955 0.37093 0.0
H1066 H 0.67711 0.92053 0.31199 0.0
C1067 C 0.69105 0.91764 0.52319 0.0
C1068 C 0.6994 0.91884 0.48963 0.0
C1069 C 0.68236 0.91475 0.48865 0.0
C1070 C 0.67118 0.91356 0.32894 0.0
H1071 H 0.62129 0.87733 0.29114 0.0
H1072 H 0.63572 0.8875 0.35835 0.0
H1073 H 0.66155 0.91301 0.25221 0.0
H1074 H 0.70534 0.91853 0.39294 0.0
H1075 H 0.69013 0.91374 0.33221 0.0
H1076 H 0.66543 0.89625 0.44863 0.0
C1077 C 0.63632 0.88831 0.30481 0.0
C1078 C 0.66228 0.90919 0.29455 0.0
C1079 C 0.628 0.88254 0.26643 0.0
C1080 C 0.69902 0.91764 0.42017 0.0
C1081 C 0.69036 0.91494 0.3854 0.0
C1082 C 0.6646 0.89998 0.40607 0.0
C1083 C 0.64531 0.89483 0.27436 0.0
C1084 C 0.6545 0.9 0.31435 0.0
C1085 C 0.68189 0.91322 0.41971 0.0
C1086 C 0.6724 0.90897 0.38481 0.0
H1087 H 0.63771 0.89095 0.11283 0.0
H1088 H 0.65231 0.90062 0.17888 0.0
H1089 H 0.65015 0.88834 0.38714 0.0
H1090 H 0.69107 0.91845 0.57671 0.0
H1091 H 0.67591 0.91348 0.51601 0.0
C1092 C 0.10707 0.74731 0.15472 0.0
C1093 C 0.11452 0.74613 0.18333 0.0
C1094 C 0.10144 0.74993 0.19401 0.0
C1095 C 0.10225 0.76111 0.35907 0.0
H1096 H 0.0763 0.75555 0.30713 0.0
C1097 C 0.07873 0.77237 0.51479 0.0
C1098 C 0.07801 0.77991 0.48278 0.0
C1099 C 0.08171 0.76669 0.47948 0.0
C1100 C 0.08352 0.75709 0.32217 0.0
H1101 H 0.12155 0.74613 0.27578 0.0
H1102 H 0.11134 0.75006 0.34522 0.0
H1103 H 0.0842 0.74798 0.24618 0.0
H1104 H 0.07924 0.78699 0.38799 0.0
H1105 H 0.08415 0.77678 0.32578 0.0
H1106 H 0.10135 0.76999 0.43623 0.0
C1107 C 0.1101 0.74946 0.29204 0.0
C1108 C 0.08811 0.75284 0.28704 0.0
C1109 C 0.11591 0.7471 0.25242 0.0
C1110 C 0.07975 0.78125 0.41393 0.0
C1111 C 0.08252 0.7754 0.37835 0.0
C1112 C 0.09755 0.76513 0.39503 0.0
C1113 C 0.10298 0.7512 0.26321 0.0
C1114 C 0.09763 0.75494 0.3042 0.0
C1115 C 0.08378 0.76828 0.41131 0.0
C1116 C 0.08824 0.76328 0.37622 0.0
H1117 H 0.10591 0.74669 0.10139 0.0
H1118 H 0.09619 0.75135 0.16936 0.0
H1119 H 0.10964 0.76314 0.37321 0.0
H1120 H 0.07751 0.7712 0.56786 0.0
H1121 H 0.08268 0.76124 0.50573 0.0
C1122 C 0.2222 0.30256 0.50246 0.0
C1123 C 0.21503 0.29391 0.47218 0.0
C1124 C 0.22806 0.31085 0.46432 0.0
C1125 C 0.22838 0.32144 0.29824 0.0
H1126 H 0.25372 0.34195 0.35947 0.0
C1127 C 0.25205 0.35716 0.1523 0.0
C1128 C 0.25291 0.36531 0.1868 0.0
C1129 C 0.24891 0.34829 0.18521 0.0
C1130 C 0.24668 0.33624 0.34181 0.0
H1131 H 0.20877 0.28694 0.37795 0.0
H1132 H 0.2194 0.30121 0.31067 0.0
H1133 H 0.24562 0.32625 0.4174 0.0
H1134 H 0.25175 0.37072 0.28351 0.0
H1135 H 0.24657 0.35523 0.34155 0.0
H1136 H 0.22965 0.33145 0.22164 0.0
C1137 C 0.22023 0.30178 0.3642 0.0
C1138 C 0.24197 0.32727 0.37518 0.0
C1139 C 0.21418 0.29355 0.40262 0.0
C1140 C 0.25113 0.36457 0.25568 0.0
C1141 C 0.24821 0.35574 0.28888 0.0
C1142 C 0.2332 0.33032 0.26404 0.0
C1143 C 0.22707 0.31065 0.39463 0.0
C1144 C 0.23264 0.31981 0.35481 0.0
C1145 C 0.24682 0.34748 0.25346 0.0
C1146 C 0.24229 0.33784 0.28631 0.0
H1147 H 0.22294 0.30309 0.55611 0.0
H1148 H 0.23306 0.31752 0.49014 0.0
H1149 H 0.22115 0.31604 0.28153 0.0
H1150 H 0.25329 0.35747 0.09912 0.0
H1151 H 0.24786 0.34198 0.15706 0.0
C1152 C 0.96645 0.41176 0.84254 0.0
C1153 C 0.95965 0.41461 0.86146 0.0
C1154 C 0.9751 0.41495 0.87874 0.0
C1155 C 0.99161 0.43576 0.98188 0.0
H1156 H 0.00439 0.42083 0.02228 0.0
C1157 C 0.03105 0.45503 0.07353 0.0
C1158 C 0.03279 0.45123 0.13191 0.0
C1159 C 0.02245 0.44958 0.03734 0.0
C1160 C 0.00088 0.42506 0.01133 0.0
H1161 H 0.95627 0.42237 0.93657 0.0
H1162 H 0.97127 0.42783 0.9995 0.0
H1163 H 0.98812 0.41268 0.9705 0.0
H1164 H 0.02711 0.43839 0.19521 0.0
H1165 H 0.01203 0.42888 0.13182 0.0
H1166 H 0.00423 0.4481 0.02268 0.0
C1167 C 0.97001 0.42332 0.95588 0.0
C1168 C 0.99161 0.42043 0.98148 0.0
C1169 C 0.9614 0.42015 0.91987 0.0
C1170 C 0.026 0.44156 0.15061 0.0
C1171 C 0.01737 0.43609 0.11424 0.0
C1172 C 0.00085 0.44039 0.01106 0.0
C1173 C 0.97711 0.42104 0.93447 0.0
C1174 C 0.98687 0.42573 0.96684 0.0
C1175 C 0.01536 0.44019 0.05855 0.0
C1176 C 0.00561 0.43511 0.02606 0.0
H1177 H 0.96533 0.40748 0.79792 0.0
H1178 H 0.98044 0.41308 0.86101 0.0
H1179 H 0.98823 0.44009 0.97032 0.0
H1180 H 0.03617 0.46238 0.057 0.0
H1181 H 0.0212 0.45284 0.99376 0.0
C1182 C 0.55713 0.58682 0.16658 0.0
C1183 C 0.54773 0.58448 0.14479 0.0
C1184 C 0.56266 0.5837 0.13042 0.0
C1185 C 0.57397 0.57851 0.02709 0.0
H1186 H 0.55836 0.55115 0.97852 0.0
C1187 C 0.58663 0.5572 0.8541 0.0
C1188 C 0.58346 0.54743 0.87165 0.0
C1189 C 0.58366 0.56277 0.89124 0.0
C1190 C 0.56284 0.55877 0.99216 0.0
H1191 H 0.53717 0.57778 0.06483 0.0
H1192 H 0.5468 0.57241 0.0022 0.0
H1193 H 0.55057 0.55932 0.03145 0.0
H1194 H 0.57537 0.53617 0.94535 0.0
H1195 H 0.57026 0.54587 0.00968 0.0
H1196 H 0.58627 0.57786 0.9874 0.0
C1197 C 0.54981 0.57647 0.04785 0.0
C1198 C 0.55836 0.56349 0.02172 0.0
C1199 C 0.5443 0.57958 0.08376 0.0
C1200 C 0.57783 0.5436 0.92966 0.0
C1201 C 0.57487 0.54915 0.96653 0.0
C1202 C 0.57847 0.57378 0.9967 0.0
C1203 C 0.55888 0.57819 0.07195 0.0
C1204 C 0.56384 0.57341 0.03943 0.0
C1205 C 0.57747 0.55866 0.94645 0.0
C1206 C 0.57294 0.56384 0.97934 0.0
H1207 H 0.56001 0.59061 0.21326 0.0
H1208 H 0.56963 0.58512 0.15016 0.0
H1209 H 0.57836 0.58617 0.04023 0.0
H1210 H 0.591 0.5604 0.80986 0.0
H1211 H 0.58577 0.57009 0.87459 0.0
C1212 C 0.43884 0.02573 0.81868 0.0
C1213 C 0.4472 0.03356 0.84779 0.0
C1214 C 0.43303 0.01719 0.85481 0.0
C1215 C 0.42409 0.00597 0.01169 0.0
H1216 H 0.42782 0.98457 0.95573 0.0
C1217 C 0.41245 0.97187 0.1755 0.0
C1218 C 0.4105 0.96305 0.14544 0.0
C1219 C 0.41544 0.98027 0.13711 0.0
C1220 C 0.42644 0.99033 0.97132 0.0
H1221 H 0.45568 0.03878 0.93864 0.0
H1222 H 0.44526 0.02388 0.00247 0.0
H1223 H 0.43553 -0.00018 0.89361 0.0
H1224 H 0.40942 0.95588 0.0515 0.0
H1225 H 0.41399 0.97033 0.98386 0.0
H1226 H 0.41479 0.9965 0.08829 0.0
C1227 C 0.44335 0.02439 0.95142 0.0
C1228 C 0.43096 -0.0009 0.9359 0.0
C1229 C 0.44931 0.03286 0.91488 0.0
C1230 C 0.41099 0.96262 0.07594 0.0
C1231 C 0.41372 0.97096 0.03733 0.0
C1232 C 0.41936 0.9971 0.04638 0.0
C1233 C 0.43532 0.01642 0.92107 0.0
C1234 C 0.42993 0.00701 0.95638 0.0
C1235 C 0.41632 0.98 0.06751 0.0
C1236 C 0.42059 0.98919 0.02734 0.0
H1237 H 0.43706 0.02601 0.76698 0.0
H1238 H 0.42687 0.01108 0.83058 0.0
H1239 H 0.42319 0.01202 0.02797 0.0
H1240 H 0.41223 0.97242 0.22913 0.0
H1241 H 0.4175 0.98706 0.16267 0.0
C1242 C 0.54302 0.96434 0.08032 0.0
C1243 C 0.54629 0.96242 0.14044 0.0
C1244 C 0.54904 0.97279 0.04389 0.0
C1245 C 0.56901 0.99779 0.06872 0.0
H1246 H 0.56921 -0.00139 0.8759 0.0
C1247 C 0.57749 0.03215 0.91821 0.0
C1248 C 0.58265 0.03397 0.85798 0.0
C1249 C 0.57492 0.02367 0.95467 0.0
C1250 C 0.56936 -0.00149 0.92975 0.0
H1251 H 0.55867 0.96767 0.20772 0.0
H1252 H 0.56917 0.98242 0.14396 0.0
H1253 H 0.56129 0.98285 0.93286 0.0
H1254 H 0.58956 0.0285 0.79058 0.0
H1255 H 0.58505 0.01369 0.8544 0.0
H1256 H 0.57688 0.01345 0.06562 0.0
C1257 C 0.5619 0.97742 0.12546 0.0
C1258 C 0.56474 0.98948 0.96234 0.0
C1259 C 0.5559 0.96893 0.16174 0.0
C1260 C 0.58556 0.02732 0.83664 0.0
C1261 C 0.58293 0.0188 0.87294 0.0
C1262 C 0.57357 0.00681 0.03613 0.0
C1263 C 0.55847 0.97953 0.06684 0.0
C1264 C 0.56435 0.98903 0.03217 0.0
C1265 C 0.57742 0.0168 0.93165 0.0
C1266 C 0.57363 0.00727 0.96631 0.0
H1267 H 0.53569 0.95948 0.06222 0.0
H1268 H 0.54615 0.97424 0.99922 0.0
H1269 H 0.56876 0.99769 0.12258 0.0
H1270 H 0.57516 0.03712 0.93635 0.0
H1271 H 0.57061 0.0223 0.99941 0.0
C1272 C 0.03308 0.58172 0.0839 0.0
C1273 C 0.03384 0.58589 0.14699 0.0
C1274 C 0.02466 0.57854 0.04567 0.0
C1275 C 0.00175 0.57911 0.02388 0.0
H1276 H 0.99188 0.55246 0.9634 0.0
C1277 C 0.96447 0.54374 0.91362 0.0
C1278 C 0.96244 0.54783 0.858 0.0
C1279 C 0.97286 0.5493 0.95156 0.0
C1280 C 0.9945 0.55988 0.9803 0.0
H1281 H 0.02663 0.59069 0.21695 0.0
H1282 H 0.01185 0.58507 0.14982 0.0
H1283 H 0.00754 0.561 0.02013 0.0
H1284 H 0.96736 0.56121 0.80145 0.0
H1285 H 0.98206 0.57091 0.86806 0.0
H1286 H 0.98856 0.57788 0.98383 0.0
C1287 C 0.01781 0.58428 0.13023 0.0
C1288 C 0.00353 0.56482 0.01204 0.0
C1289 C 0.02627 0.58748 0.16869 0.0
C1290 C 0.96872 0.5578 0.84371 0.0
C1291 C 0.97712 0.56338 0.88197 0.0
C1292 C 0.99269 0.57418 0.99133 0.0
C1293 C 0.01679 0.57944 0.0695 0.0
C1294 C 0.00727 0.57448 0.03419 0.0
C1295 C 0.97942 0.55909 0.93502 0.0
C1296 C 0.98896 0.56448 0.96969 0.0
H1297 H 0.03883 0.58053 0.06507 0.0
H1298 H 0.02416 0.57503 0.99836 0.0
H1299 H 0.00447 0.58656 0.04044 0.0
H1300 H 0.95976 0.53613 0.92675 0.0
H1301 H 0.97436 0.54585 0.99296 0.0
C1302 C 0.44085 0.41409 0.81233 0.0
C1303 C 0.44711 0.41146 0.84426 0.0
C1304 C 0.43544 0.41724 0.84935 0.0
C1305 C 0.43549 0.42731 0.01715 0.0
H1306 H 0.41156 0.4257 0.95281 0.0
C1307 C 0.4135 0.44054 0.16982 0.0
C1308 C 0.41325 0.44847 0.13984 0.0
C1309 C 0.41625 0.4348 0.13319 0.0
C1310 C 0.41823 0.42616 0.97118 0.0
H1311 H 0.45213 0.40939 0.93978 0.0
H1312 H 0.44222 0.41422 0.00482 0.0
H1313 H 0.41863 0.41726 0.89254 0.0
H1314 H 0.41516 0.45622 0.04697 0.0
H1315 H 0.41971 0.44592 0.98235 0.0
H1316 H 0.43485 0.43599 0.09683 0.0
C1317 C 0.44181 0.41435 0.95112 0.0
C1318 C 0.42234 0.4214 0.93657 0.0
C1319 C 0.44742 0.41147 0.91397 0.0
C1320 C 0.4153 0.45019 0.07147 0.0
C1321 C 0.41787 0.44429 0.03448 0.0
C1322 C 0.43125 0.43186 0.05241 0.0
C1323 C 0.436 0.41762 0.91934 0.0
C1324 C 0.43112 0.42201 0.9586 0.0
C1325 C 0.4186 0.43672 0.06557 0.0
C1326 C 0.42266 0.43142 0.02934 0.0
H1327 H 0.44056 0.41426 0.75851 0.0
H1328 H 0.43121 0.4198 0.82265 0.0
H1329 H 0.44236 0.42823 0.03509 0.0
H1330 H 0.41201 0.43904 0.22242 0.0
H1331 H 0.41677 0.42899 0.15804 0.0
C1332 C 0.12874 0.40396 0.79701 0.0
C1333 C 0.13614 0.40902 0.84444 0.0
C1334 C 0.13052 0.40622 0.7295 0.0
C1335 C 0.13491 0.41501 0.59093 0.0
H1336 H 0.1585 0.41638 0.52208 0.0
C1337 C 0.14259 0.4167 0.3087 0.0
C1338 C 0.14505 0.40973 0.28701 0.0
C1339 C 0.14276 0.41881 0.37652 0.0
C1340 C 0.15191 0.41607 0.54059 0.0
H1341 H 0.15114 0.42068 0.85796 0.0
H1342 H 0.15424 0.4246 0.73969 0.0
H1343 H 0.15599 0.41601 0.64205 0.0
H1344 H 0.15009 0.39989 0.31941 0.0
H1345 H 0.1504 0.40356 0.43704 0.0
H1346 H 0.13063 0.41461 0.48942 0.0
C1347 C 0.14708 0.41885 0.75505 0.0
C1348 C 0.15051 0.41595 0.60931 0.0
C1349 C 0.14527 0.41663 0.82282 0.0
C1350 C 0.1481 0.40526 0.33431 0.0
C1351 C 0.14836 0.40742 0.40183 0.0
C1352 C 0.13633 0.41517 0.5222 0.0
C1353 C 0.13976 0.41357 0.70759 0.0
C1354 C 0.14187 0.41515 0.63521 0.0
C1355 C 0.14551 0.41408 0.42387 0.0
C1356 C 0.14472 0.41542 0.49629 0.0
H1357 H 0.12161 0.39808 0.81179 0.0
H1358 H 0.12476 0.40193 0.69419 0.0
H1359 H 0.12823 0.4145 0.60943 0.0
H1360 H 0.14019 0.42028 0.2736 0.0
H1361 H 0.1406 0.42403 0.39203 0.0
C1362 C 0.58119 0.73205 0.81361 0.0
C1363 C 0.58665 0.72785 0.83712 0.0
C1364 C 0.57927 0.73197 0.74572 0.0
C1365 C 0.57605 0.72019 0.58873 0.0
H1366 H 0.59122 0.74584 0.50883 0.0
C1367 C 0.58285 0.72545 0.30574 0.0
C1368 C 0.58506 0.73442 0.27703 0.0
C1369 C 0.5813 0.72402 0.37427 0.0
C1370 C 0.58669 0.73864 0.52995 0.0
H1371 H 0.59392 0.71983 0.80869 0.0
H1372 H 0.59027 0.71945 0.68982 0.0
H1373 H 0.59124 0.7441 0.62884 0.0
H1374 H 0.58668 0.74865 0.29571 0.0
H1375 H 0.5833 0.74596 0.41433 0.0
H1376 H 0.57126 0.71468 0.49051 0.0
C1377 C 0.58761 0.72288 0.72416 0.0
C1378 C 0.5868 0.73767 0.59883 0.0
C1379 C 0.58973 0.72315 0.79188 0.0
C1380 C 0.5851 0.74171 0.31704 0.0
C1381 C 0.58326 0.74018 0.38517 0.0
C1382 C 0.57573 0.72117 0.51974 0.0
C1383 C 0.58256 0.72747 0.70059 0.0
C1384 C 0.58162 0.72843 0.62851 0.0
C1385 C 0.58169 0.73145 0.41526 0.0
C1386 C 0.5812 0.73041 0.48919 0.0
H1387 H 0.57877 0.73578 0.84727 0.0
H1388 H 0.57541 0.7356 0.72819 0.0
H1389 H 0.57198 0.71299 0.61104 0.0
H1390 H 0.58287 0.71975 0.27581 0.0
H1391 H 0.58026 0.71725 0.39518 0.0
C1392 C 0.25277 0.84498 0.32928 0.0
C1393 C 0.26042 0.84872 0.28249 0.0
C1394 C 0.25474 0.84523 0.3972 0.0
C1395 C 0.27392 0.85959 0.51758 0.0
H1396 H 0.2569 0.8391 0.63988 0.0
C1397 C 0.26827 0.85086 0.81902 0.0
C1398 C 0.26866 0.85951 0.84121 0.0
C1399 C 0.26862 0.84916 0.75102 0.0
C1400 C 0.26181 0.84484 0.60643 0.0
H1401 H 0.27612 0.8553 0.2705 0.0
H1402 H 0.27955 0.85577 0.3895 0.0
H1403 H 0.25484 0.83615 0.52017 0.0
H1404 H 0.27016 0.87332 0.80906 0.0
H1405 H 0.27079 0.87035 0.69086 0.0
H1406 H 0.28074 0.86836 0.60383 0.0
C1407 C 0.27203 0.85269 0.37332 0.0
C1408 C 0.26057 0.84318 0.53787 0.0
C1409 C 0.27006 0.85235 0.30515 0.0
C1410 C 0.2698 0.86657 0.79388 0.0
C1411 C 0.27023 0.86489 0.72602 0.0
C1412 C 0.27511 0.86127 0.58615 0.0
C1413 C 0.26441 0.84929 0.42012 0.0
C1414 C 0.26649 0.8506 0.49267 0.0
C1415 C 0.26947 0.8561 0.70373 0.0
C1416 C 0.26895 0.85398 0.63131 0.0
H1417 H 0.24526 0.8421 0.31362 0.0
H1418 H 0.24871 0.84264 0.43196 0.0
H1419 H 0.27855 0.86548 0.48408 0.0
H1420 H 0.26739 0.84526 0.85399 0.0
H1421 H 0.2681 0.84235 0.73537 0.0
C1422 C 0.40556 0.15118 0.67004 0.0
C1423 C 0.40923 0.1469 0.71429 0.0
C1424 C 0.40702 0.1511 0.6018 0.0
C1425 C 0.42059 0.14723 0.46821 0.0
H1426 H 0.39573 0.13634 0.37593 0.0
C1427 C 0.41497 0.14534 0.1792 0.0
C1428 C 0.40707 0.13658 0.15492 0.0
C1429 C 0.41669 0.14681 0.24777 0.0
C1430 C 0.40273 0.13935 0.40097 0.0
H1431 H 0.41798 0.13986 0.72178 0.0
H1432 H 0.42049 0.13968 0.6015 0.0
H1433 H 0.39641 0.13927 0.49497 0.0
H1434 H 0.39525 0.12222 0.1837 0.0
H1435 H 0.39824 0.12483 0.30239 0.0
H1436 H 0.42685 0.14727 0.37305 0.0
C1437 C 0.41649 0.1431 0.62022 0.0
C1438 C 0.40314 0.14112 0.46901 0.0
C1439 C 0.41503 0.14318 0.68896 0.0
C1440 C 0.40131 0.12913 0.20043 0.0
C1441 C 0.403 0.1306 0.26856 0.0
C1442 C 0.4202 0.14555 0.39944 0.0
C1443 C 0.41218 0.14674 0.57601 0.0
C1444 C 0.41205 0.14508 0.50341 0.0
C1445 C 0.41052 0.13955 0.29303 0.0
C1446 C 0.41123 0.14152 0.36543 0.0
H1447 H 0.40121 0.15428 0.68786 0.0
H1448 H 0.40378 0.15413 0.56885 0.0
H1449 H 0.42756 0.15029 0.49369 0.0
H1450 H 0.41958 0.15122 0.14553 0.0
H1451 H 0.42252 0.15378 0.26547 0.0
C1452 C 0.85429 0.27328 0.69976 0.0
C1453 C 0.84844 0.26365 0.72272 0.0
C1454 C 0.85478 0.27536 0.6318 0.0
C1455 C 0.84323 0.26875 0.47269 0.0
H1456 H 0.86769 0.27305 0.39775 0.0
C1457 C 0.84763 0.26444 0.19192 0.0
C1458 C 0.85697 0.26951 0.16327 0.0
C1459 C 0.84641 0.26509 0.26024 0.0
C1460 C 0.8609 0.27213 0.41741 0.0
H1461 H 0.83802 0.24877 0.69363 0.0
H1462 H 0.83862 0.25251 0.57485 0.0
H1463 H 0.8655 0.27211 0.51768 0.0
H1464 H 0.87227 0.27971 0.1822 0.0
H1465 H 0.87012 0.28138 0.30042 0.0
H1466 H 0.83862 0.26896 0.37304 0.0
C1467 C 0.84291 0.25838 0.60947 0.0
C1468 C 0.85965 0.27153 0.48627 0.0
C1469 C 0.84261 0.25625 0.67715 0.0
C1470 C 0.86501 0.27562 0.20339 0.0
C1471 C 0.86376 0.27649 0.27133 0.0
C1472 C 0.84454 0.26959 0.40368 0.0
C1473 C 0.8492 0.26788 0.58625 0.0
C1474 C 0.85076 0.26967 0.51423 0.0
C1475 C 0.85448 0.27104 0.30118 0.0
C1476 C 0.85334 0.27109 0.3749 0.0
H1477 H 0.85892 0.2791 0.7338 0.0
H1478 H 0.85972 0.28272 0.61453 0.0
H1479 H 0.8363 0.2673 0.49362 0.0
H1480 H 0.84132 0.25962 0.162 0.0
H1481 H 0.83917 0.26063 0.28102 0.0
C1482 C 0.72171 0.5883 0.20302 0.0
C1483 C 0.7278 0.58634 0.16298 0.0
C1484 C 0.72081 0.58616 0.27091 0.0
C1485 C 0.72766 0.57386 0.40361 0.0
H1486 H 0.72534 0.59248 0.51687 0.0
C1487 C 0.74112 0.58547 0.67678 0.0
C1488 C 0.73374 0.58394 0.72232 0.0
C1489 C 0.73898 0.58361 0.60914 0.0
C1490 C 0.72587 0.58717 0.48567 0.0
H1491 H 0.73761 0.58048 0.16169 0.0
H1492 H 0.73656 0.5773 0.28073 0.0
H1493 H 0.72436 0.59364 0.39692 0.0
H1494 H 0.71829 0.57902 0.73334 0.0
H1495 H 0.71466 0.57614 0.61414 0.0
H1496 H 0.72994 0.56795 0.4938 0.0
C1497 C 0.73213 0.58012 0.2599 0.0
C1498 C 0.72524 0.58775 0.4168 0.0
C1499 C 0.73281 0.582 0.19159 0.0
C1500 C 0.7241 0.58018 0.69935 0.0
C1501 C 0.72202 0.57855 0.63142 0.0
C1502 C 0.72853 0.57344 0.47264 0.0
C1503 C 0.72623 0.5823 0.30081 0.0
C1504 C 0.7262 0.58116 0.37456 0.0
C1505 C 0.72948 0.58039 0.58592 0.0
C1506 C 0.72769 0.58013 0.5139 0.0
H1507 H 0.71767 0.59152 0.18181 0.0
H1508 H 0.71594 0.58767 0.29997 0.0
H1509 H 0.72824 0.56852 0.37317 0.0
H1510 H 0.7486 0.58834 0.69326 0.0
H1511 H 0.74484 0.58515 0.57453 0.0
C1512 C 0.85404 0.5803 0.69027 0.0
C1513 C 0.84982 0.58567 0.71539 0.0
C1514 C 0.85432 0.57896 0.62151 0.0
C1515 C 0.85073 0.57496 0.46915 0.0
H1516 H 0.86028 0.59975 0.37785 0.0
C1517 C 0.85284 0.58064 0.18026 0.0
C1518 C 0.86124 0.58902 0.15652 0.0
C1519 C 0.85136 0.57884 0.24877 0.0
C1520 C 0.85766 0.59278 0.40259 0.0
H1521 H 0.8418 0.59302 0.6886 0.0
H1522 H 0.84226 0.59064 0.56955 0.0
H1523 H 0.85708 0.59875 0.49657 0.0
H1524 H 0.87501 0.60164 0.18615 0.0
H1525 H 0.87241 0.59849 0.30471 0.0
H1526 H 0.85137 0.56906 0.37406 0.0
C1527 C 0.84552 0.58765 0.60264 0.0
C1528 C 0.85572 0.59218 0.47047 0.0
C1529 C 0.84526 0.589 0.67091 0.0
C1530 C 0.86837 0.59521 0.2025 0.0
C1531 C 0.8669 0.59342 0.27056 0.0
C1532 C 0.85259 0.57555 0.40054 0.0
C1533 C 0.85038 0.58296 0.57706 0.0
C1534 C 0.85223 0.58328 0.50455 0.0
C1535 C 0.85825 0.5854 0.29452 0.0
C1536 C 0.85614 0.5845 0.36684 0.0
H1537 H 0.8576 0.57763 0.72327 0.0
H1538 H 0.85811 0.57531 0.60302 0.0
H1539 H 0.84804 0.56802 0.49434 0.0
H1540 H 0.84721 0.5757 0.1462 0.0
H1541 H 0.84463 0.57261 0.26599 0.0
C1542 C 0.41522 0.26878 0.18064 0.0
C1543 C 0.40698 0.26925 0.1592 0.0
C1544 C 0.41761 0.26956 0.24826 0.0
C1545 C 0.41275 0.27723 0.41182 0.0
H1546 H 0.41737 0.25704 0.48252 0.0
C1547 C 0.4153 0.27232 0.69463 0.0
C1548 C 0.40915 0.26267 0.71642 0.0
C1549 C 0.41738 0.27434 0.62683 0.0
C1550 C 0.41616 0.26277 0.46348 0.0
H1551 H 0.39501 0.27128 0.19217 0.0
H1552 H 0.39914 0.27257 0.30954 0.0
H1553 H 0.4165 0.25869 0.36243 0.0
H1554 H 0.4008 0.24753 0.68445 0.0
H1555 H 0.40441 0.25105 0.567 0.0
H1556 H 0.41193 0.28099 0.51298 0.0
C1557 C 0.4038 0.27168 0.27414 0.0
C1558 C 0.41574 0.26377 0.39468 0.0
C1559 C 0.40139 0.27084 0.20675 0.0
C1560 C 0.40552 0.25506 0.66942 0.0
C1561 C 0.40766 0.25706 0.602 0.0
C1562 C 0.4132 0.27625 0.48064 0.0
C1563 C 0.41185 0.27091 0.29582 0.0
C1564 C 0.41375 0.27083 0.36814 0.0
C1565 C 0.41345 0.26674 0.57972 0.0
C1566 C 0.41462 0.26882 0.50722 0.0
H1567 H 0.41971 0.26758 0.14542 0.0
H1568 H 0.4239 0.26902 0.26342 0.0
H1569 H 0.41134 0.28282 0.39281 0.0
H1570 H 0.41822 0.27835 0.72955 0.0
H1571 H 0.42193 0.28186 0.61112 0.0
C1572 C 0.72267 0.14119 0.69601 0.0
C1573 C 0.73238 0.14524 0.71826 0.0
C1574 C 0.72066 0.14116 0.62811 0.0
C1575 C 0.71932 0.13519 0.48202 0.0
H1576 H 0.73612 0.1565 0.36422 0.0
C1577 C 0.72546 0.12931 0.20841 0.0
C1578 C 0.72661 0.13633 0.16075 0.0
C1579 C 0.72453 0.13082 0.27581 0.0
C1580 C 0.73125 0.15053 0.39633 0.0
H1581 H 0.74758 0.15295 0.68714 0.0
H1582 H 0.74407 0.15288 0.56956 0.0
H1583 H 0.73746 0.15907 0.48427 0.0
H1584 H 0.72744 0.15036 0.14687 0.0
H1585 H 0.72584 0.15299 0.26479 0.0
H1586 H 0.71325 0.12658 0.39412 0.0
C1587 C 0.73801 0.14975 0.60422 0.0
C1588 C 0.73208 0.15198 0.46513 0.0
C1589 C 0.74002 0.14971 0.67171 0.0
C1590 C 0.7266 0.14481 0.18215 0.0
C1591 C 0.72571 0.14634 0.24975 0.0
C1592 C 0.7185 0.13373 0.4132 0.0
C1593 C 0.72831 0.14528 0.5814 0.0
C1594 C 0.72631 0.14425 0.50877 0.0
C1595 C 0.72477 0.1394 0.29738 0.0
C1596 C 0.72465 0.14131 0.36967 0.0
H1597 H 0.71663 0.13769 0.7306 0.0
H1598 H 0.71311 0.13773 0.61199 0.0
H1599 H 0.71481 0.12907 0.51427 0.0
H1600 H 0.72541 0.12268 0.1939 0.0
H1601 H 0.72396 0.12539 0.31127 0.0
C1602 C 0.59419 0.86719 0.79901 0.0
C1603 C 0.58793 0.86009 0.84496 0.0
C1604 C 0.59246 0.86569 0.73089 0.0
C1605 C 0.57455 0.85173 0.60094 0.0
H1606 H 0.59754 0.85577 0.50421 0.0
C1607 C 0.5794 0.85378 0.31132 0.0
C1608 C 0.58456 0.84941 0.28531 0.0
C1609 C 0.57804 0.85391 0.38017 0.0
C1610 C 0.59103 0.85454 0.53051 0.0
H1611 H 0.5746 0.84606 0.85496 0.0
H1612 H 0.57159 0.84346 0.73514 0.0
H1613 H 0.59861 0.85879 0.62327 0.0
H1614 H 0.59149 0.84091 0.31044 0.0
H1615 H 0.58908 0.84111 0.42966 0.0
H1616 H 0.56701 0.84752 0.50704 0.0
C1617 C 0.57784 0.85018 0.75248 0.0
C1618 C 0.59167 0.85637 0.59857 0.0
C1619 C 0.57959 0.85166 0.821 0.0
C1620 C 0.58764 0.84451 0.32888 0.0
C1621 C 0.58627 0.84463 0.39723 0.0
C1622 C 0.57393 0.84999 0.53218 0.0
C1623 C 0.58442 0.85707 0.70686 0.0
C1624 C 0.58347 0.85501 0.63452 0.0
C1625 C 0.58182 0.84965 0.42379 0.0
C1626 C 0.58217 0.85134 0.49651 0.0
H1627 H 0.60062 0.87382 0.8154 0.0
H1628 H 0.59757 0.87119 0.69678 0.0
H1629 H 0.56812 0.85065 0.62763 0.0
H1630 H 0.57692 0.8576 0.279 0.0
H1631 H 0.57458 0.85784 0.39945 0.0
C1632 C 0.14395 0.72638 0.29851 0.0
C1633 C 0.14765 0.73591 0.27349 0.0
C1634 C 0.14356 0.72474 0.3673 0.0
C1635 C 0.14107 0.73592 0.51912 0.0
H1636 H 0.14652 0.71778 0.61403 0.0
C1637 C 0.14442 0.72702 0.80864 0.0
C1638 C 0.13588 0.72665 0.8331 0.0
C1639 C 0.14592 0.72692 0.73997 0.0
C1640 C 0.145 0.72288 0.58802 0.0
H1641 H 0.15461 0.75125 0.30088 0.0
H1642 H 0.15397 0.74839 0.41999 0.0
H1643 H 0.14991 0.7204 0.49405 0.0
H1644 H 0.12193 0.72515 0.80434 0.0
H1645 H 0.12457 0.72497 0.68548 0.0
H1646 H 0.13618 0.73845 0.61206 0.0
C1647 C 0.15118 0.74217 0.38672 0.0
C1648 C 0.14688 0.72433 0.51951 0.0
C1649 C 0.15156 0.7438 0.31837 0.0
C1650 C 0.12866 0.7256 0.7875 0.0
C1651 C 0.13017 0.72551 0.71923 0.0
C1652 C 0.13912 0.7344 0.58697 0.0
C1653 C 0.14686 0.73261 0.41205 0.0
C1654 C 0.14499 0.73093 0.48455 0.0
C1655 C 0.13893 0.72648 0.69464 0.0
C1656 C 0.14103 0.72787 0.62224 0.0
H1657 H 0.14089 0.72014 0.26528 0.0
H1658 H 0.14019 0.7173 0.38548 0.0
H1659 H 0.1394 0.74094 0.49346 0.0
H1660 H 0.15012 0.7278 0.84231 0.0
H1661 H 0.15275 0.72768 0.72237 0.0
C1662 C 0.25422 0.40435 0.33584 0.0
C1663 C 0.262 0.40896 0.29049 0.0
C1664 C 0.25586 0.40582 0.40404 0.0
C1665 C 0.26323 0.40324 0.5361 0.0
H1666 H 0.27889 0.4277 0.6302 0.0
C1667 C 0.27432 0.40307 0.80467 0.0
C1668 C 0.27187 0.40832 0.84978 0.0
C1669 C 0.27441 0.40466 0.73644 0.0
C1670 C 0.2745 0.42083 0.60437 0.0
H1671 H 0.27754 0.4193 0.28137 0.0
H1672 H 0.2804 0.42185 0.40139 0.0
H1673 H 0.27604 0.42787 0.50991 0.0
H1674 H 0.2683 0.41988 0.85846 0.0
H1675 H 0.26843 0.42263 0.73839 0.0
H1676 H 0.26165 0.39616 0.62944 0.0
C1677 C 0.27303 0.41709 0.38359 0.0
C1678 C 0.27291 0.42093 0.53574 0.0
C1679 C 0.27138 0.41561 0.31494 0.0
C1680 C 0.27018 0.41568 0.82509 0.0
C1681 C 0.27028 0.41728 0.7564 0.0
C1682 C 0.26489 0.40314 0.60401 0.0
C1683 C 0.26533 0.41195 0.42876 0.0
C1684 C 0.26719 0.41212 0.50117 0.0
C1685 C 0.27206 0.41153 0.71144 0.0
C1686 C 0.27054 0.41191 0.63895 0.0
H1687 H 0.24687 0.3993 0.31888 0.0
H1688 H 0.24976 0.40191 0.43772 0.0
H1689 H 0.2589 0.39633 0.51068 0.0
H1690 H 0.27582 0.39745 0.82183 0.0
H1691 H 0.276 0.40025 0.70294 0.0
C1692 C 0.79488 0.73384 0.1332 0.0
C1693 C 0.80206 0.74004 0.17895 0.0
C1694 C 0.79634 0.73555 0.06505 0.0
C1695 C 0.80551 0.73616 0.93247 0.0
H1696 H 0.8148 0.76087 0.84078 0.0
C1697 C 0.81758 0.74006 0.66323 0.0
C1698 C 0.81285 0.74327 0.61927 0.0
C1699 C 0.8174 0.7414 0.73156 0.0
C1700 C 0.8122 0.75394 0.86596 0.0
H1701 H 0.81617 0.75327 0.18858 0.0
H1702 H 0.8187 0.75625 0.06871 0.0
H1703 H 0.81165 0.75983 0.96132 0.0
H1704 H 0.80485 0.7511 0.61237 0.0
H1705 H 0.80449 0.75342 0.73276 0.0
H1706 H 0.80602 0.73021 0.8382 0.0
C1707 C 0.81195 0.75006 0.08622 0.0
C1708 C 0.81046 0.75336 0.9347 0.0
C1709 C 0.81051 0.74832 0.15478 0.0
C1710 C 0.80855 0.74852 0.64496 0.0
C1711 C 0.80835 0.74986 0.71379 0.0
C1712 C 0.80735 0.73676 0.86444 0.0
C1713 C 0.80499 0.74352 0.04077 0.0
C1714 C 0.80702 0.74442 0.96836 0.0
C1715 C 0.81246 0.74597 0.75773 0.0
C1716 C 0.81072 0.74564 0.83038 0.0
H1717 H 0.78821 0.72745 0.14978 0.0
H1718 H 0.79078 0.73048 0.03109 0.0
H1719 H 0.80297 0.7292 0.95721 0.0
H1720 H 0.82112 0.73613 0.6451 0.0
H1721 H 0.82079 0.7385 0.76426 0.0
C1722 C 0.25928 0.05909 0.12085 0.0
C1723 C 0.25339 0.06018 0.1687 0.0
C1724 C 0.25679 0.0581 0.05354 0.0
C1725 C 0.24347 0.06445 0.9332 0.0
H1726 H 0.24881 0.04821 0.81552 0.0
C1727 C 0.24449 0.0559 0.6336 0.0
C1728 C 0.25001 0.06562 0.61134 0.0
C1729 C 0.24248 0.05387 0.70146 0.0
C1730 C 0.2471 0.05265 0.84768 0.0
H1731 H 0.24009 0.06082 0.18299 0.0
H1732 H 0.23576 0.05909 0.0652 0.0
H1733 H 0.24981 0.04673 0.93567 0.0
H1734 H 0.25719 0.08082 0.64238 0.0
H1735 H 0.2537 0.07729 0.75986 0.0
H1736 H 0.24097 0.07051 0.84516 0.0
C1737 C 0.24235 0.05907 0.08003 0.0
C1738 C 0.24779 0.05189 0.91651 0.0
C1739 C 0.24482 0.06003 0.14756 0.0
C1740 C 0.25299 0.07324 0.65782 0.0
C1741 C 0.25091 0.07122 0.72526 0.0
C1742 C 0.2428 0.06522 0.86438 0.0
C1743 C 0.24836 0.05819 0.03221 0.0
C1744 C 0.24626 0.05798 0.95997 0.0
C1745 C 0.24583 0.06152 0.74814 0.0
C1746 C 0.24489 0.05953 0.8208 0.0
H1747 H 0.26593 0.05915 0.13514 0.0
H1748 H 0.26167 0.05759 0.01795 0.0
H1749 H 0.24228 0.06927 0.96522 0.0
H1750 H 0.24209 0.04986 0.59905 0.0
H1751 H 0.23848 0.04631 0.71759 0.0
C1752 C 0.93781 0.19107 0.63968 0.0
C1753 C 0.92844 0.18439 0.61568 0.0
C1754 C 0.93985 0.19154 0.70772 0.0
C1755 C 0.93298 0.17892 0.86615 0.0
H1756 H 0.93727 0.20331 0.94212 0.0
C1757 C 0.92756 0.18276 0.14613 0.0
C1758 C 0.93261 0.19204 0.17578 0.0
C1759 C 0.92846 0.18168 0.0779 0.0
C1760 C 0.93635 0.19654 0.92224 0.0
H1761 H 0.91407 0.17255 0.64283 0.0
H1762 H 0.91776 0.17317 0.76159 0.0
H1763 H 0.93684 0.20141 0.82214 0.0
H1764 H 0.94303 0.20734 0.15891 0.0
H1765 H 0.94512 0.20541 0.04104 0.0
H1766 H 0.93267 0.17404 0.96575 0.0
C1767 C 0.92346 0.1781 0.72785 0.0
C1768 C 0.93605 0.19545 0.85326 0.0
C1769 C 0.92134 0.17778 0.66015 0.0
C1770 C 0.93893 0.20013 0.13687 0.0
C1771 C 0.94006 0.19901 0.06911 0.0
C1772 C 0.93353 0.18007 0.93531 0.0
C1773 C 0.93262 0.18516 0.75234 0.0
C1774 C 0.93418 0.18658 0.82477 0.0
C1775 C 0.93464 0.18982 0.03816 0.0
C1776 C 0.93501 0.18883 0.96446 0.0
H1777 H 0.94339 0.19629 0.60649 0.0
H1778 H 0.94695 0.19707 0.72581 0.0
H1779 H 0.93154 0.17201 0.84494 0.0
H1780 H 0.92259 0.17642 0.17516 0.0
H1781 H 0.92402 0.1745 0.05621 0.0
C1782 C 0.0814 0.48048 0.02092 0.0
C1783 C 0.07537 0.4839 0.04664 0.0
C1784 C 0.08247 0.47999 0.952 0.0
C1785 C 0.06842 0.47695 0.80053 0.0
H1786 H 0.09215 0.48294 0.70551 0.0
C1787 C 0.06675 0.46482 0.53097 0.0
C1788 C 0.07305 0.47204 0.48584 0.0
C1789 C 0.06816 0.46632 0.59943 0.0
C1790 C 0.08548 0.48126 0.73149 0.0
H1791 H 0.06639 0.49024 0.01996 0.0
H1792 H 0.06832 0.48944 0.90064 0.0
H1793 H 0.09286 0.48632 0.82531 0.0
H1794 H 0.08613 0.48632 0.47785 0.0
H1795 H 0.08854 0.48893 0.59788 0.0
H1796 H 0.06101 0.47194 0.70757 0.0
C1797 C 0.07204 0.48693 0.93355 0.0
C1798 C 0.08588 0.48314 0.79998 0.0
C1799 C 0.07097 0.48742 0.00207 0.0
C1800 C 0.08112 0.4806 0.51107 0.0
C1801 C 0.08253 0.4821 0.57986 0.0
C1802 C 0.06801 0.47501 0.73261 0.0
C1803 C 0.07753 0.48291 0.90767 0.0
C1804 C 0.07734 0.48105 0.83507 0.0
C1805 C 0.07589 0.47508 0.62469 0.0
C1806 C 0.07652 0.47712 0.69724 0.0
H1807 H 0.08491 0.47772 0.05378 0.0
H1808 H 0.08674 0.47685 0.93349 0.0
H1809 H 0.06168 0.47512 0.82624 0.0
H1810 H 0.06053 0.45808 0.5136 0.0
H1811 H 0.06303 0.4607 0.63275 0.0
C1812 C 0.53268 0.60461 0.54307 0.0
C1813 C 0.52549 0.60322 0.49611 0.0
C1814 C 0.53106 0.60505 0.61098 0.0
C1815 C 0.51109 0.59632 0.73159 0.0
H1816 H 0.53174 0.61338 0.85278 0.0
C1817 C 0.51888 0.60482 0.03238 0.0
C1818 C 0.51532 0.5952 0.05526 0.0
C1819 C 0.51913 0.60675 0.96422 0.0
C1820 C 0.52584 0.60866 0.81961 0.0
H1821 H 0.51106 0.60152 0.48406 0.0
H1822 H 0.50824 0.60228 0.60274 0.0
H1823 H 0.53446 0.61554 0.73291 0.0
H1824 H 0.50878 0.58003 0.02444 0.0
H1825 H 0.50921 0.5834 0.90611 0.0
H1826 H 0.50254 0.58931 0.81829 0.0
C1827 C 0.51511 0.60296 0.58678 0.0
C1828 C 0.52744 0.60983 0.75097 0.0
C1829 C 0.51676 0.60259 0.51873 0.0
C1830 C 0.5116 0.58753 0.00865 0.0
C1831 C 0.51179 0.58945 0.94072 0.0
C1832 C 0.50951 0.59511 0.80022 0.0
C1833 C 0.52219 0.60406 0.63371 0.0
C1834 C 0.52014 0.60355 0.70621 0.0
C1835 C 0.51574 0.5991 0.9176 0.0
C1836 C 0.51694 0.60114 0.84501 0.0
H1837 H 0.53951 0.60515 0.52758 0.0
H1838 H 0.53662 0.60579 0.64586 0.0
H1839 H 0.50534 0.59132 0.69848 0.0
H1840 H 0.5218 0.6109 0.06687 0.0
H1841 H 0.52214 0.61425 0.94789 0.0
C1842 C 0.39289 0.91371 0.51822 0.0
C1843 C 0.39291 0.9222 0.49659 0.0
C1844 C 0.39208 0.91137 0.58592 0.0
C1845 C 0.39783 0.91288 0.73212 0.0
H1846 H 0.38148 0.91793 0.85084 0.0
C1847 C 0.40669 0.92231 0.0079 0.0
C1848 C 0.39905 0.91909 0.05448 0.0
C1849 C 0.40468 0.92035 0.9403 0.0
C1850 C 0.38597 0.91631 0.81837 0.0
H1851 H 0.39176 0.93469 0.52941 0.0
H1852 H 0.39043 0.93065 0.64698 0.0
H1853 H 0.37982 0.91882 0.73075 0.0
H1854 H 0.38329 0.91088 0.06668 0.0
H1855 H 0.37978 0.90747 0.94797 0.0
H1856 H 0.40412 0.91058 0.81977 0.0
C1857 C 0.39095 0.92575 0.61163 0.0
C1858 C 0.3851 0.91694 0.74959 0.0
C1859 C 0.3918 0.92812 0.54411 0.0
C1860 C 0.38934 0.91347 0.03209 0.0
C1861 C 0.38733 0.91157 0.96413 0.0
C1862 C 0.39872 0.91229 0.80089 0.0
C1863 C 0.39121 0.91742 0.63343 0.0
C1864 C 0.39119 0.91548 0.70577 0.0
C1865 C 0.39499 0.91515 0.91743 0.0
C1866 C 0.39298 0.91425 0.8448 0.0
H1867 H 0.3937 0.90897 0.48306 0.0
H1868 H 0.39221 0.90486 0.60114 0.0
H1869 H 0.40267 0.91176 0.69978 0.0
H1870 H 0.41425 0.92661 0.0234 0.0
H1871 H 0.41075 0.92331 0.90565 0.0
C1872 C 0.50992 0.92452 0.0018 0.0
C1873 C 0.51292 0.91973 0.04696 0.0
C1874 C 0.51031 0.92327 0.9334 0.0
C1875 C 0.5202 0.92606 0.80079 0.0
H1876 H 0.51249 0.90179 0.70708 0.0
C1877 C 0.53197 0.9267 0.53217 0.0
C1878 C 0.5245 0.92087 0.48692 0.0
C1879 C 0.53043 0.92527 0.60054 0.0
C1880 C 0.51465 0.90861 0.73272 0.0
H1881 H 0.51811 0.90937 0.0553 0.0
H1882 H 0.51882 0.90724 0.93522 0.0
H1883 H 0.5092 0.90147 0.82686 0.0
H1884 H 0.50977 0.90852 0.47842 0.0
H1885 H 0.50709 0.90604 0.59851 0.0
H1886 H 0.52561 0.93324 0.70759 0.0
C1887 C 0.51615 0.91194 0.95318 0.0
C1888 C 0.51282 0.90843 0.80117 0.0
C1889 C 0.51575 0.91318 0.02196 0.0
C1890 C 0.51567 0.91315 0.51183 0.0
C1891 C 0.51413 0.91172 0.5806 0.0
C1892 C 0.52209 0.92625 0.73296 0.0
C1893 C 0.51373 0.91723 0.90825 0.0
C1894 C 0.51554 0.91717 0.83576 0.0
C1895 C 0.5214 0.91798 0.62561 0.0
C1896 C 0.51937 0.91754 0.69807 0.0
H1897 H 0.50756 0.92951 0.01911 0.0
H1898 H 0.5082 0.92729 0.90002 0.0
H1899 H 0.52251 0.93293 0.82611 0.0
H1900 H 0.53892 0.93263 0.51493 0.0
H1901 H 0.53625 0.93007 0.63398 0.0
C1902 C 0.08252 0.60729 0.04267 0.0
C1903 C 0.07732 0.59759 0.06569 0.0
C1904 C 0.08411 0.60926 0.97446 0.0
C1905 C 0.07861 0.61017 0.82977 0.0
H1906 H 0.08408 0.59429 0.70939 0.0
C1907 C 0.06705 0.60446 0.55426 0.0
C1908 C 0.07331 0.6039 0.50693 0.0
C1909 C 0.06926 0.60518 0.62205 0.0
C1910 C 0.08268 0.59889 0.74225 0.0
H1911 H 0.07023 0.58236 0.03544 0.0
H1912 H 0.07303 0.58579 0.91716 0.0
H1913 H 0.08551 0.59286 0.82917 0.0
H1914 H 0.08699 0.60394 0.49415 0.0
H1915 H 0.09082 0.60519 0.61249 0.0
H1916 H 0.07559 0.61606 0.74286 0.0
C1917 C 0.07589 0.59189 0.95154 0.0
C1918 C 0.08342 0.59801 0.81088 0.0
C1919 C 0.07423 0.58992 0.01942 0.0
C1920 C 0.08197 0.60432 0.52909 0.0
C1921 C 0.08416 0.60499 0.59697 0.0
C1922 C 0.07782 0.61102 0.76111 0.0
C1923 C 0.08064 0.60156 0.92811 0.0
C1924 C 0.08119 0.60348 0.85544 0.0
C1925 C 0.07777 0.60532 0.64426 0.0
C1926 C 0.07965 0.60524 0.71664 0.0
H1927 H 0.08499 0.61336 0.07699 0.0
H1928 H 0.08787 0.61679 0.95786 0.0
H1929 H 0.07677 0.61443 0.86278 0.0
H1930 H 0.06033 0.60418 0.53915 0.0
H1931 H 0.06413 0.60529 0.65724 0.0
C1932 C 0.39547 0.46404 0.54103 0.0
C1933 C 0.39547 0.4707 0.4946 0.0
C1934 C 0.39516 0.46555 0.60904 0.0
C1935 C 0.38946 0.47835 0.73801 0.0
H1936 H 0.40982 0.47672 0.83524 0.0
C1937 C 0.39234 0.47648 0.02741 0.0
C1938 C 0.40185 0.48149 0.05392 0.0
C1939 C 0.39089 0.47636 0.95852 0.0
C1940 C 0.40415 0.47729 0.8088 0.0
H1941 H 0.3946 0.48393 0.48365 0.0
H1942 H 0.39405 0.48655 0.60331 0.0
H1943 H 0.40817 0.47367 0.71623 0.0
H1944 H 0.41716 0.49111 0.03002 0.0
H1945 H 0.41461 0.49096 0.91072 0.0
H1946 H 0.38543 0.48191 0.83173 0.0
C1947 C 0.3943 0.48016 0.58642 0.0
C1948 C 0.40314 0.47543 0.74076 0.0
C1949 C 0.39466 0.47868 0.51799 0.0
C1950 C 0.40976 0.48702 0.01104 0.0
C1951 C 0.40831 0.48693 0.94268 0.0
C1952 C 0.39041 0.48011 0.80675 0.0
C1953 C 0.39481 0.47374 0.63247 0.0
C1954 C 0.39577 0.4759 0.70466 0.0
C1955 C 0.39892 0.48127 0.91546 0.0
C1956 C 0.39781 0.47964 0.84263 0.0
H1957 H 0.39598 0.45776 0.52509 0.0
H1958 H 0.39541 0.46041 0.64352 0.0
H1959 H 0.38371 0.47873 0.71118 0.0
H1960 H 0.3861 0.47216 0.05927 0.0
H1961 H 0.38357 0.47193 0.93876 0.0
C1962 C 0.24574 0.18379 0.14406 0.0
C1963 C 0.25375 0.19245 0.16866 0.0
C1964 C 0.24417 0.18229 0.07537 0.0
C1965 C 0.2585 0.18954 0.92246 0.0
H1966 H 0.23366 0.17803 0.8295 0.0
C1967 C 0.25582 0.17714 0.65397 0.0
C1968 C 0.25162 0.18081 0.60899 0.0
C1969 C 0.25455 0.17751 0.72231 0.0
C1970 C 0.24063 0.18126 0.85496 0.0
H1971 H 0.26593 0.2066 0.14017 0.0
H1972 H 0.26317 0.20396 0.02126 0.0
H1973 H 0.2343 0.18137 0.94947 0.0
H1974 H 0.24222 0.18713 0.60067 0.0
H1975 H 0.24005 0.18781 0.72085 0.0
H1976 H 0.26488 0.1895 0.82895 0.0
C1977 C 0.25821 0.19827 0.05491 0.0
C1978 C 0.24099 0.18312 0.92348 0.0
C1979 C 0.25977 0.19978 0.1232 0.0
C1980 C 0.24556 0.18425 0.63395 0.0
C1981 C 0.2443 0.18463 0.70274 0.0
C1982 C 0.25812 0.18761 0.85461 0.0
C1983 C 0.25059 0.1894 0.03016 0.0
C1984 C 0.24996 0.18734 0.95772 0.0
C1985 C 0.24908 0.18157 0.74755 0.0
C1986 C 0.2492 0.18343 0.82003 0.0
H1987 H 0.24094 0.178 0.17763 0.0
H1988 H 0.23825 0.17537 0.05764 0.0
H1989 H 0.2655 0.19267 0.94756 0.0
H1990 H 0.2604 0.17429 0.63656 0.0
H1991 H 0.25815 0.17491 0.75564 0.0
C1992 C 0.8106 0.05953 0.14361 0.0
C1993 C 0.80169 0.05823 0.1685 0.0
C1994 C 0.81206 0.05944 0.07487 0.0
C1995 C 0.80369 0.0654 0.92243 0.0
H1996 H 0.81691 0.05383 0.82878 0.0
C1997 C 0.80999 0.0589 0.63348 0.0
C1998 C 0.81283 0.06831 0.60911 0.0
C1999 C 0.80966 0.0572 0.70216 0.0
C2000 C 0.81319 0.05707 0.85445 0.0
H2001 H 0.78709 0.05502 0.14078 0.0
H2002 H 0.78965 0.05485 0.02177 0.0
H2003 H 0.81372 0.05093 0.9488 0.0
H2004 H 0.81832 0.08344 0.63773 0.0
H2005 H 0.81776 0.08046 0.7566 0.0
H2006 H 0.80312 0.07154 0.82912 0.0
C2007 C 0.79556 0.05613 0.05515 0.0
C2008 C 0.81142 0.05546 0.92297 0.0
C2009 C 0.7941 0.05621 0.12346 0.0
C2010 C 0.81594 0.07607 0.65463 0.0
C2011 C 0.8156 0.07437 0.72286 0.0
C2012 C 0.80554 0.06708 0.85458 0.0
C2013 C 0.80465 0.05807 0.02999 0.0
C2014 C 0.80659 0.05958 0.95747 0.0
C2015 C 0.81215 0.06488 0.74745 0.0
C2016 C 0.81033 0.06297 0.81979 0.0
H2017 H 0.8166 0.06108 0.17691 0.0
H2018 H 0.81916 0.06098 0.05682 0.0
H2019 H 0.80008 0.06879 0.94772 0.0
H2020 H 0.80757 0.05276 0.59979 0.0
H2021 H 0.80696 0.0498 0.7198 0.0
C2022 C 0.92006 0.73937 0.66012 0.0
C2023 C 0.92774 0.74408 0.61412 0.0
C2024 C 0.92183 0.74081 0.72819 0.0
C2025 C 0.92967 0.73828 0.8585 0.0
H2026 H 0.9444 0.76273 0.95435 0.0
C2027 C 0.94005 0.73808 0.12875 0.0
C2028 C 0.9373 0.74316 0.17315 0.0
C2029 C 0.94037 0.73975 0.0605 0.0
C2030 C 0.94028 0.75587 0.92802 0.0
H2031 H 0.94322 0.75458 0.60381 0.0
H2032 H 0.9463 0.75711 0.72373 0.0
H2033 H 0.94162 0.76294 0.83399 0.0
H2034 H 0.93338 0.75449 0.1808 0.0
H2035 H 0.93386 0.75734 0.06072 0.0
H2036 H 0.92824 0.73115 0.95138 0.0
C2037 C 0.93891 0.75228 0.70645 0.0
C2038 C 0.93874 0.75599 0.85936 0.0
C2039 C 0.93714 0.75081 0.63788 0.0
C2040 C 0.9355 0.75043 0.14792 0.0
C2041 C 0.93581 0.75209 0.07922 0.0
C2042 C 0.9313 0.73815 0.92644 0.0
C2043 C 0.93132 0.74702 0.75213 0.0
C2044 C 0.93332 0.74718 0.82426 0.0
C2045 C 0.93792 0.74652 0.03481 0.0
C2046 C 0.93659 0.74692 0.96207 0.0
H2047 H 0.91269 0.73425 0.64376 0.0
H2048 H 0.91581 0.7368 0.76237 0.0
H2049 H 0.92557 0.73137 0.83257 0.0
H2050 H 0.94165 0.73255 0.14647 0.0
H2051 H 0.94222 0.73549 0.02751 0.0
C2052 C 0.48413 0.07234 0.98769 0.0
C2053 C 0.48072 0.07677 0.94257 0.0
C2054 C 0.48379 0.07365 0.05601 0.0
C2055 C 0.48067 0.08804 0.18829 0.0
H2056 H 0.46853 0.06319 0.28137 0.0
C2057 C 0.46184 0.06931 0.45678 0.0
C2058 C 0.46927 0.07516 0.50214 0.0
C2059 C 0.46335 0.07085 0.38849 0.0
C2060 C 0.47187 0.07019 0.25613 0.0
H2061 H 0.4749 0.0866 0.934 0.0
H2062 H 0.47428 0.08884 0.05412 0.0
H2063 H 0.47165 0.06364 0.16278 0.0
H2064 H 0.48391 0.08767 0.51101 0.0
H2065 H 0.48655 0.09033 0.39099 0.0
H2066 H 0.48082 0.09453 0.28265 0.0
C2067 C 0.47722 0.08437 0.03614 0.0
C2068 C 0.47377 0.07046 0.18829 0.0
C2069 C 0.47757 0.08307 0.96739 0.0
C2070 C 0.47804 0.08301 0.47749 0.0
C2071 C 0.47955 0.08456 0.40878 0.0
C2072 C 0.47884 0.08777 0.25679 0.0
C2073 C 0.48002 0.07939 0.08108 0.0
C2074 C 0.4782 0.07937 0.15354 0.0
C2075 C 0.47233 0.07828 0.36365 0.0
C2076 C 0.47436 0.07882 0.29121 0.0
H2077 H 0.48675 0.06756 0.97042 0.0
H2078 H 0.48619 0.06988 0.08944 0.0
H2079 H 0.48411 0.09501 0.16268 0.0
H2080 H 0.45493 0.06329 0.47383 0.0
H2081 H 0.45757 0.06602 0.3549 0.0
C2082 C 0.9215 0.41251 0.99249 0.0
C2083 C 0.917 0.40462 0.94779 0.0
C2084 C 0.92042 0.41094 0.061 0.0
C2085 C 0.92392 0.40444 0.19392 0.0
H2086 H 0.90009 0.38688 0.28878 0.0
C2087 C 0.92543 0.39387 0.46343 0.0
C2088 C 0.91918 0.39488 0.50857 0.0
C2089 C 0.92403 0.39398 0.39497 0.0
C2090 C 0.90679 0.39182 0.26285 0.0
H2091 H 0.9073 0.38893 0.94045 0.0
H2092 H 0.90546 0.38619 0.06071 0.0
H2093 H 0.89944 0.38961 0.16902 0.0
H2094 H 0.90619 0.39622 0.51657 0.0
H2095 H 0.90378 0.39644 0.39654 0.0
H2096 H 0.93129 0.40673 0.28688 0.0
C2097 C 0.90981 0.3936 0.04231 0.0
C2098 C 0.90642 0.39334 0.19438 0.0
C2099 C 0.91088 0.39517 0.97341 0.0
C2100 C 0.91116 0.39545 0.48334 0.0
C2101 C 0.90975 0.39555 0.41454 0.0
C2102 C 0.92429 0.40287 0.26182 0.0
C2103 C 0.91483 0.40144 0.08676 0.0
C2104 C 0.91499 0.39972 0.15934 0.0
C2105 C 0.91635 0.3951 0.3697 0.0
C2106 C 0.91575 0.39655 0.29715 0.0
H2107 H 0.92615 0.4199 0.9747 0.0
H2108 H 0.92422 0.41715 0.09399 0.0
H2109 H 0.93067 0.40929 0.16826 0.0
H2110 H 0.93162 0.3933 0.48081 0.0
H2111 H 0.92913 0.39343 0.36165 0.0
C2112 C 0.6019 0.51779 0.49095 0.0
C2113 C 0.60238 0.52634 0.51619 0.0
C2114 C 0.60183 0.5163 0.42216 0.0
C2115 C 0.60562 0.51712 0.27059 0.0
H2116 H 0.58797 0.52324 0.17566 0.0
C2117 C 0.6023 0.51783 0.98109 0.0
C2118 C 0.59283 0.51441 0.95546 0.0
C2119 C 0.60387 0.51833 0.05 0.0
C2120 C 0.59287 0.52142 0.20142 0.0
H2121 H 0.60378 0.54028 0.48843 0.0
H2122 H 0.60369 0.53768 0.36928 0.0
H2123 H 0.59047 0.52644 0.2943 0.0
H2124 H 0.57752 0.50808 0.98225 0.0
H2125 H 0.58027 0.50889 0.10155 0.0
H2126 H 0.60795 0.51205 0.17684 0.0
C2127 C 0.6032 0.53206 0.40259 0.0
C2128 C 0.5944 0.52337 0.26932 0.0
C2129 C 0.60329 0.53356 0.47105 0.0
C2130 C 0.58493 0.5109 9e-05 0.0
C2131 C 0.5865 0.5114 0.0686 0.0
C2132 C 0.60414 0.51523 0.20211 0.0
C2133 C 0.6022 0.52331 0.37733 0.0
C2134 C 0.6008 0.52127 0.30477 0.0
C2135 C 0.59601 0.51542 0.0944 0.0
C2136 C 0.5977 0.51731 0.16696 0.0
H2137 H 0.60121 0.51208 0.52417 0.0
H2138 H 0.60102 0.50947 0.40415 0.0
H2139 H 0.61062 0.51545 0.29662 0.0
H2140 H 0.60855 0.52059 0.94816 0.0
H2141 H 0.61128 0.52148 0.06845 0.0
C2142 C 0.74757 0.81461 0.83521 0.0
C2143 C 0.74166 0.80497 0.81234 0.0
C2144 C 0.74958 0.81647 0.90301 0.0
C2145 C 0.7526 0.80814 0.0602 0.0
H2146 H 0.73716 0.81832 0.14017 0.0
C2147 C 0.74561 0.80642 0.34306 0.0
C2148 C 0.7433 0.81311 0.37169 0.0
C2149 C 0.74723 0.80658 0.27458 0.0
C2150 C 0.74175 0.81573 0.11902 0.0
H2151 H 0.73368 0.78971 0.84176 0.0
H2152 H 0.73747 0.79302 0.96041 0.0
H2153 H 0.73713 0.81654 0.02015 0.0
H2154 H 0.74159 0.82567 0.35308 0.0
H2155 H 0.74508 0.82644 0.23459 0.0
H2156 H 0.75743 0.80749 0.15845 0.0
C2157 C 0.74042 0.79907 0.92567 0.0
C2158 C 0.74165 0.81464 0.05016 0.0
C2159 C 0.73821 0.79721 0.85807 0.0
C2160 C 0.74324 0.82035 0.33176 0.0
C2161 C 0.74515 0.82071 0.26372 0.0
C2162 C 0.7529 0.80944 0.1292 0.0
C2163 C 0.74593 0.80872 0.94859 0.0
C2164 C 0.74693 0.8107 0.0205 0.0
C2165 C 0.74681 0.81361 0.23365 0.0
C2166 C 0.74733 0.81309 0.15975 0.0
H2167 H 0.75027 0.82073 0.80114 0.0
H2168 H 0.75379 0.82397 0.92012 0.0
H2169 H 0.75673 0.80509 0.03786 0.0
H2170 H 0.74562 0.80071 0.37297 0.0
H2171 H 0.74835 0.8009 0.25363 0.0
C2172 C 0.17786 0.92009 0.34137 0.0
C2173 C 0.18155 0.92773 0.38818 0.0
C2174 C 0.1781 0.92205 0.27346 0.0
C2175 C 0.19235 0.94127 0.1531 0.0
H2176 H 0.17191 0.92415 0.03083 0.0
C2177 C 0.19938 0.93722 0.87676 0.0
C2178 C 0.19229 0.93602 0.82945 0.0
C2179 C 0.1977 0.93764 0.94462 0.0
C2180 C 0.17764 0.92909 0.06427 0.0
H2181 H 0.18804 0.94343 0.40021 0.0
H2182 H 0.18849 0.94685 0.28122 0.0
H2183 H 0.16897 0.92208 0.15054 0.0
H2184 H 0.17799 0.93463 0.81673 0.0
H2185 H 0.17508 0.93532 0.93535 0.0
H2186 H 0.2011 0.94813 0.06684 0.0
C2187 C 0.18544 0.93934 0.29739 0.0
C2188 C 0.17598 0.92785 0.13283 0.0
C2189 C 0.18512 0.93736 0.36555 0.0
C2190 C 0.18362 0.93555 0.85168 0.0
C2191 C 0.18191 0.93589 0.91969 0.0
C2192 C 0.19403 0.94247 0.08453 0.0
C2193 C 0.18209 0.93172 0.25057 0.0
C2194 C 0.18339 0.9338 0.17802 0.0
C2195 C 0.18888 0.9368 0.96695 0.0
C2196 C 0.18676 0.93627 0.03937 0.0
H2197 H 0.17503 0.91259 0.35702 0.0
H2198 H 0.17554 0.91603 0.23869 0.0
H2199 H 0.19823 0.94592 0.1866 0.0
H2200 H 0.20615 0.93764 0.86156 0.0
H2201 H 0.20318 0.93824 0.97977 0.0
C2202 C 0.05669 0.24639 0.35511 0.0
C2203 C 0.06616 0.25256 0.38016 0.0
C2204 C 0.05508 0.24509 0.28632 0.0
C2205 C 0.06581 0.25892 0.13437 0.0
H2206 H 0.04847 0.23499 0.03973 0.0
C2207 C 0.05735 0.24652 0.84494 0.0
C2208 C 0.05652 0.25443 0.82052 0.0
C2209 C 0.05732 0.24495 0.91361 0.0
C2210 C 0.05334 0.24171 0.06567 0.0
H2211 H 0.08145 0.2615 0.35273 0.0
H2212 H 0.07863 0.25919 0.23363 0.0
H2213 H 0.05121 0.23442 0.15973 0.0
H2214 H 0.05426 0.26642 0.84929 0.0
H2215 H 0.0542 0.26365 0.96814 0.0
H2216 H 0.068 0.26625 0.04135 0.0
C2217 C 0.07243 0.25553 0.26691 0.0
C2218 C 0.05486 0.24139 0.13419 0.0
C2219 C 0.07404 0.25683 0.33526 0.0
C2220 C 0.05506 0.26034 0.86612 0.0
C2221 C 0.05505 0.25878 0.93438 0.0
C2222 C 0.06422 0.25925 0.06652 0.0
C2223 C 0.06291 0.24994 0.24157 0.0
C2224 C 0.06117 0.25001 0.16905 0.0
C2225 C 0.05649 0.25127 0.95895 0.0
C2226 C 0.05797 0.25067 0.03135 0.0
H2227 H 0.05046 0.24298 0.38831 0.0
H2228 H 0.04766 0.24074 0.26814 0.0
H2229 H 0.0706 0.26571 0.15996 0.0
H2230 H 0.05845 0.2418 0.81126 0.0
H2231 H 0.05845 0.2391 0.93122 0.0
C2232 C 0.17521 0.25252 0.34513 0.0
C2233 C 0.18063 0.24997 0.38787 0.0
C2234 C 0.17526 0.25116 0.27672 0.0
C2235 C 0.18491 0.25653 0.14275 0.0
H2236 H 0.18301 0.23448 0.0447 0.0
C2237 C 0.19818 0.26091 0.87486 0.0
C2238 C 0.19146 0.25431 0.82833 0.0
C2239 C 0.1966 0.25911 0.94288 0.0
C2240 C 0.18352 0.24066 0.07164 0.0
H2241 H 0.18969 0.24326 0.39288 0.0
H2242 H 0.18985 0.24095 0.27232 0.0
H2243 H 0.17982 0.23304 0.16523 0.0
H2244 H 0.17807 0.24036 0.81727 0.0
H2245 H 0.17535 0.23723 0.9369 0.0
H2246 H 0.18867 0.26421 0.0503 0.0
C2247 C 0.18554 0.24397 0.29222 0.0
C2248 C 0.18175 0.23985 0.14038 0.0
C2249 C 0.18546 0.2453 0.36115 0.0
C2250 C 0.18336 0.24562 0.85168 0.0
C2251 C 0.18182 0.24379 0.92009 0.0
C2252 C 0.18677 0.25737 0.0747 0.0
C2253 C 0.18076 0.24727 0.2493 0.0
C2254 C 0.18239 0.24779 0.17643 0.0
C2255 C 0.18831 0.25065 0.96624 0.0
C2256 C 0.18614 0.24948 0.03843 0.0
H2257 H 0.17126 0.25597 0.36427 0.0
H2258 H 0.17134 0.25357 0.24489 0.0
H2259 H 0.1856 0.26282 0.16932 0.0
H2260 H 0.20455 0.26763 0.85898 0.0
H2261 H 0.20179 0.26445 0.97742 0.0
C2262 C 0.73909 0.94183 0.87452 0.0
C2263 C 0.74077 0.93541 0.83589 0.0
C2264 C 0.7414 0.94302 0.94217 0.0
C2265 C 0.75375 0.93646 0.07618 0.0
H2266 H 0.73587 0.94003 0.1892 0.0
C2267 C 0.74355 0.92421 0.35075 0.0
C2268 C 0.74414 0.93133 0.39542 0.0
C2269 C 0.74544 0.92637 0.28318 0.0
C2270 C 0.74101 0.93918 0.15812 0.0
H2271 H 0.74626 0.92531 0.8368 0.0
H2272 H 0.7497 0.92685 0.95565 0.0
H2273 H 0.7344 0.94043 0.06924 0.0
H2274 H 0.74748 0.94636 0.40521 0.0
H2275 H 0.75042 0.95001 0.28601 0.0
H2276 H 0.75977 0.93441 0.16661 0.0
C2277 C 0.74699 0.93131 0.93381 0.0
C2278 C 0.74022 0.93946 0.08915 0.0
C2279 C 0.74495 0.93034 0.86565 0.0
C2280 C 0.74704 0.94077 0.37181 0.0
C2281 C 0.74869 0.94285 0.30387 0.0
C2282 C 0.75436 0.93593 0.14535 0.0
C2283 C 0.74513 0.93758 0.97331 0.0
C2284 C 0.74652 0.93801 0.04698 0.0
C2285 C 0.74774 0.93561 0.25904 0.0
C2286 C 0.74794 0.93722 0.18666 0.0
H2287 H 0.736 0.94594 0.85233 0.0
H2288 H 0.74013 0.94815 0.97002 0.0
H2289 H 0.75888 0.93552 0.04578 0.0
H2290 H 0.74135 0.91688 0.36781 0.0
H2291 H 0.74459 0.92066 0.24926 0.0
C2292 C 0.05899 0.79688 0.87641 0.0
C2293 C 0.06046 0.80403 0.82891 0.0
C2294 C 0.05815 0.79844 0.94383 0.0
C2295 C 0.05252 0.80171 0.08161 0.0
H2296 H 0.07246 0.82665 0.15222 0.0
C2297 C 0.05731 0.80925 0.36436 0.0
C2298 C 0.06698 0.81289 0.38628 0.0
C2299 C 0.05529 0.80926 0.29653 0.0
C2300 C 0.0668 0.81967 0.13321 0.0
H2301 H 0.0619 0.81833 0.81525 0.0
H2302 H 0.06045 0.82104 0.93329 0.0
H2303 H 0.07084 0.82411 0.03215 0.0
H2304 H 0.08214 0.81988 0.35446 0.0
H2305 H 0.07861 0.81988 0.23694 0.0
H2306 H 0.04881 0.79712 0.18279 0.0
C2307 C 0.06001 0.81425 0.91808 0.0
C2308 C 0.06581 0.81825 0.06442 0.0
C2309 C 0.0608 0.81267 0.85043 0.0
C2310 C 0.0746 0.81696 0.33934 0.0
C2311 C 0.07259 0.81704 0.27188 0.0
C2312 C 0.05349 0.80315 0.15042 0.0
C2313 C 0.05878 0.80719 0.96558 0.0
C2314 C 0.05885 0.80916 0.03791 0.0
C2315 C 0.0629 0.81301 0.2495 0.0
C2316 C 0.06083 0.81205 0.17698 0.0
H2317 H 0.05866 0.79012 0.86176 0.0
H2318 H 0.05735 0.79291 0.97919 0.0
H2319 H 0.047 0.79467 0.06263 0.0
H2320 H 0.05127 0.80606 0.39923 0.0
H2321 H 0.04775 0.80617 0.28074 0.0
C2322 C 0.91359 0.52025 0.96845 0.0
C2323 C 0.91917 0.51629 0.94303 0.0
C2324 C 0.91249 0.52075 0.03732 0.0
C2325 C 0.9261 0.52274 0.18905 0.0
H2326 H 0.90292 0.51857 0.28375 0.0
C2327 C 0.9139 0.52042 0.47862 0.0
C2328 C 0.92237 0.52868 0.50293 0.0
C2329 C 0.91231 0.51887 0.40995 0.0
C2330 C 0.90943 0.51973 0.25785 0.0
H2331 H 0.92725 0.50899 0.96992 0.0
H2332 H 0.92524 0.50979 0.08918 0.0
H2333 H 0.90196 0.51502 0.16402 0.0
H2334 H 0.93541 0.54212 0.47382 0.0
H2335 H 0.9326 0.53943 0.35499 0.0
H2336 H 0.9336 0.5274 0.28191 0.0
C2337 C 0.92192 0.51272 0.05615 0.0
C2338 C 0.9089 0.51776 0.18941 0.0
C2339 C 0.92304 0.51224 0.98769 0.0
C2340 C 0.92889 0.53561 0.45711 0.0
C2341 C 0.9273 0.53405 0.38884 0.0
C2342 C 0.92665 0.52477 0.25685 0.0
C2343 C 0.91694 0.51729 0.08185 0.0
C2344 C 0.91724 0.51921 0.15444 0.0
C2345 C 0.91916 0.52554 0.36444 0.0
C2346 C 0.91835 0.52333 0.29209 0.0
H2347 H 0.91052 0.52343 0.93544 0.0
H2348 H 0.90862 0.52432 0.05569 0.0
H2349 H 0.9327 0.52408 0.16345 0.0
H2350 H 0.90872 0.51494 0.51246 0.0
H2351 H 0.90598 0.51223 0.39257 0.0
C2352 C 0.47933 0.39334 0.47911 0.0
C2353 C 0.47057 0.39273 0.5008 0.0
C2354 C 0.48099 0.39273 0.41132 0.0
C2355 C 0.46863 0.38539 0.24702 0.0
H2356 H 0.49342 0.40592 0.1785 0.0
C2357 C 0.47658 0.39065 0.96486 0.0
C2358 C 0.4801 0.4003 0.94296 0.0
C2359 C 0.4765 0.38861 0.03274 0.0
C2360 C 0.48649 0.40011 0.1969 0.0
H2361 H 0.45652 0.39057 0.46812 0.0
H2362 H 0.45943 0.38955 0.35049 0.0
H2363 H 0.49075 0.40399 0.2984 0.0
H2364 H 0.48677 0.41543 0.97504 0.0
H2365 H 0.48663 0.41188 0.09273 0.0
H2366 H 0.46421 0.3818 0.14546 0.0
C2367 C 0.465 0.39045 0.38578 0.0
C2368 C 0.48499 0.39894 0.26561 0.0
C2369 C 0.46337 0.39111 0.45334 0.0
C2370 C 0.48396 0.4079 0.9901 0.0
C2371 C 0.48395 0.40588 0.05767 0.0
C2372 C 0.47015 0.38653 0.1783 0.0
C2373 C 0.4739 0.39142 0.36383 0.0
C2374 C 0.47595 0.39174 0.29142 0.0
C2375 C 0.48004 0.3962 0.07996 0.0
C2376 C 0.479 0.39407 0.15247 0.0
H2377 H 0.48504 0.39457 0.51423 0.0
H2378 H 0.48788 0.39342 0.39598 0.0
H2379 H 0.46163 0.37969 0.2654 0.0
H2380 H 0.47354 0.38462 0.9299 0.0
H2381 H 0.47352 0.38109 0.04839 0.0
C2382 C 0.60182 0.08328 0.97581 0.0
C2383 C 0.59242 0.07681 0.95085 0.0
C2384 C 0.60348 0.08448 0.0446 0.0
C2385 C 0.60375 0.08796 0.19669 0.0
H2386 H 0.59146 0.06314 0.29013 0.0
C2387 C 0.60189 0.08325 0.48602 0.0
C2388 C 0.60285 0.07544 0.51096 0.0
C2389 C 0.6018 0.08469 0.41723 0.0
C2390 C 0.59501 0.07014 0.2648 0.0
H2391 H 0.57726 0.06715 0.9788 0.0
H2392 H 0.58016 0.06931 0.09789 0.0
H2393 H 0.58867 0.06351 0.17164 0.0
H2394 H 0.60525 0.06351 0.48295 0.0
H2395 H 0.60515 0.06607 0.36388 0.0
H2396 H 0.61012 0.09454 0.29078 0.0
C2397 C 0.58628 0.07328 0.06448 0.0
C2398 C 0.59331 0.07036 0.19698 0.0
C2399 C 0.58463 0.07208 0.99608 0.0
C2400 C 0.60434 0.06951 0.4657 0.0
C2401 C 0.60425 0.07095 0.39731 0.0
C2402 C 0.6054 0.08775 0.26513 0.0
C2403 C 0.59577 0.07924 0.08958 0.0
C2404 C 0.59763 0.07926 0.16206 0.0
C2405 C 0.60266 0.07834 0.37222 0.0
C2406 C 0.60108 0.07881 0.29974 0.0
H2407 H 0.60799 0.08704 0.94243 0.0
H2408 H 0.61087 0.08911 0.0625 0.0
H2409 H 0.60716 0.09493 0.17106 0.0
H2410 H 0.60074 0.08797 0.51942 0.0
H2411 H 0.60055 0.09045 0.39934 0.0
C2412 C 0.08312 0.45224 0.23567 0.0
C2413 C 0.0731 0.44919 0.23326 0.0
C2414 C 0.08633 0.44563 0.22375 0.0
C2415 C 0.08088 0.42347 0.1378 0.0
H2416 H 0.10023 0.42392 0.25901 0.0
C2417 C 0.10186 0.4025 0.08927 0.0
C2418 C 0.11205 0.40836 0.09736 0.0
C2419 C 0.0956 0.40581 0.11095 0.0
C2420 C 0.09481 0.42369 0.22482 0.0
H2421 H 0.05861 0.43684 0.21479 0.0
H2422 H 0.06435 0.42526 0.19251 0.0
H2423 H 0.09184 0.43287 0.28716 0.0
H2424 H 0.12361 0.42228 0.13498 0.0
H2425 H 0.11276 0.42802 0.17206 0.0
H2426 H 0.08423 0.41466 0.07392 0.0
C2427 C 0.06963 0.43278 0.20441 0.0
C2428 C 0.09001 0.42878 0.24098 0.0
C2429 C 0.06638 0.43939 0.21725 0.0
C2430 C 0.11582 0.41756 0.1278 0.0
C2431 C 0.10959 0.42082 0.1497 0.0
C2432 C 0.08574 0.41839 0.1214 0.0
C2433 C 0.07963 0.43584 0.20856 0.0
C2434 C 0.08328 0.42901 0.19655 0.0
C2435 C 0.09943 0.41499 0.14169 0.0
C2436 C 0.09301 0.41877 0.16373 0.0
H2437 H 0.08851 0.45972 0.24791 0.0
H2438 H 0.0941 0.4482 0.22612 0.0
H2439 H 0.07571 0.42356 0.10278 0.0
H2440 H 0.09872 0.39537 0.06598 0.0
H2441 H 0.08779 0.40118 0.10422 0.0
C2442 C 0.54697 0.63345 0.2514 0.0
C2443 C 0.5497 0.62625 0.2479 0.0
C2444 C 0.55374 0.64318 0.238 0.0
C2445 C 0.57535 0.65894 0.14399 0.0
H2446 H 0.57583 0.6788 0.26011 0.0
C2447 C 0.59518 0.70061 0.081 0.0
C2448 C 0.58888 0.70447 0.08732 0.0
C2449 C 0.59239 0.69129 0.10568 0.0
C2450 C 0.57584 0.67334 0.22751 0.0
H2451 H 0.56167 0.6236 0.22665 0.0
H2452 H 0.57352 0.64075 0.20171 0.0
H2453 H 0.56724 0.66173 0.29522 0.0
H2454 H 0.57475 0.70157 0.12456 0.0
H2455 H 0.56998 0.68545 0.1672 0.0
H2456 H 0.58355 0.67055 0.07474 0.0
C2457 C 0.56613 0.63877 0.21562 0.0
C2458 C 0.57094 0.6636 0.24757 0.0
C2459 C 0.55936 0.629 0.22997 0.0
C2460 C 0.57978 0.69883 0.11858 0.0
C2461 C 0.57707 0.68963 0.1437 0.0
C2462 C 0.58027 0.66872 0.12377 0.0
C2463 C 0.56337 0.64593 0.22022 0.0
C2464 C 0.5703 0.65628 0.20481 0.0
C2465 C 0.58336 0.68579 0.13792 0.0
C2466 C 0.58017 0.67592 0.16427 0.0
H2467 H 0.53961 0.63159 0.26521 0.0
H2468 H 0.55139 0.64855 0.24076 0.0
H2469 H 0.57494 0.65339 0.11021 0.0
H2470 H 0.60223 0.70478 0.05707 0.0
H2471 H 0.59733 0.68844 0.10045 0.0
C2472 C 0.36658 0.93057 0.2373 0.0
C2473 C 0.36935 0.92378 0.25797 0.0
C2474 C 0.35675 0.92752 0.22465 0.0
C2475 C 0.33189 0.90775 0.26275 0.0
H2476 H 0.32477 0.9119 0.08608 0.0
C2477 C 0.29647 0.88021 0.13875 0.0
C2478 C 0.29103 0.88343 0.10218 0.0
C2479 C 0.30562 0.8869 0.16405 0.0
C2480 C 0.32663 0.91087 0.13612 0.0
H2481 H 0.36396 0.90855 0.28304 0.0
H2482 H 0.34693 0.9033 0.2616 0.0
H2483 H 0.34192 0.92085 0.12098 0.0
H2484 H 0.29097 0.89623 0.06329 0.0
H2485 H 0.30715 0.90796 0.10709 0.0
H2486 H 0.31673 0.89744 0.277 0.0
C2487 C 0.35232 0.91096 0.2552 0.0
C2488 C 0.33643 0.91598 0.15605 0.0
C2489 C 0.3621 0.91396 0.26681 0.0
C2490 C 0.29498 0.89352 0.09131 0.0
C2491 C 0.30423 0.90023 0.11622 0.0
C2492 C 0.32214 0.90266 0.24296 0.0
C2493 C 0.34955 0.91768 0.23387 0.0
C2494 C 0.33916 0.91413 0.21845 0.0
C2495 C 0.30959 0.89696 0.15318 0.0
C2496 C 0.31948 0.90385 0.17846 0.0
H2497 H 0.37203 0.93819 0.22996 0.0
H2498 H 0.35476 0.93281 0.20797 0.0
H2499 H 0.33382 0.90633 0.31156 0.0
H2500 H 0.29364 0.8725 0.14834 0.0
H2501 H 0.30967 0.88416 0.19132 0.0
C2502 C 0.41591 0.1152 0.91853 0.0
C2503 C 0.40598 0.11236 0.91207 0.0
C2504 C 0.41906 0.10852 0.90718 0.0
C2505 C 0.41389 0.08699 0.81422 0.0
H2506 H 0.43275 0.08658 0.93599 0.0
C2507 C 0.43581 0.06728 0.75574 0.0
C2508 C 0.44594 0.07338 0.76504 0.0
C2509 C 0.42924 0.07005 0.7801 0.0
C2510 C 0.42745 0.08657 0.90171 0.0
H2511 H 0.39157 0.10029 0.8878 0.0
H2512 H 0.39719 0.0886 0.8664 0.0
H2513 H 0.42411 0.09517 0.96717 0.0
H2514 H 0.45709 0.08707 0.80817 0.0
H2515 H 0.44571 0.09187 0.85001 0.0
H2516 H 0.41764 0.07881 0.74725 0.0
C2517 C 0.40246 0.096 0.88102 0.0
C2518 C 0.42251 0.09147 0.91957 0.0
C2519 C 0.39926 0.10268 0.89334 0.0
C2520 C 0.44935 0.08221 0.79981 0.0
C2521 C 0.44281 0.08492 0.82448 0.0
C2522 C 0.41888 0.0821 0.79617 0.0
C2523 C 0.41237 0.09887 0.88849 0.0
C2524 C 0.41599 0.09205 0.87493 0.0
C2525 C 0.43271 0.07889 0.81486 0.0
C2526 C 0.42599 0.08221 0.83873 0.0
H2527 H 0.42128 0.12258 0.93311 0.0
H2528 H 0.42677 0.11095 0.91216 0.0
H2529 H 0.4089 0.08736 0.77896 0.0
H2530 H 0.43295 0.06042 0.72915 0.0
H2531 H 0.42148 0.06528 0.77202 0.0
C2532 C 0.90947 0.36527 0.76426 0.0
C2533 C 0.91948 0.37227 0.76369 0.0
C2534 C 0.90637 0.35551 0.778 0.0
C2535 C 0.91251 0.33923 0.86377 0.0
H2536 H 0.89228 0.31981 0.74985 0.0
C2537 C 0.89143 0.2972 0.91746 0.0
C2538 C 0.88122 0.29317 0.91419 0.0
C2539 C 0.8977 0.30672 0.89463 0.0
C2540 C 0.89797 0.32514 0.78188 0.0
H2541 H 0.93409 0.37455 0.77886 0.0
H2542 H 0.92858 0.35737 0.80416 0.0
H2543 H 0.90048 0.337 0.71803 0.0
H2544 H 0.86962 0.296 0.88449 0.0
H2545 H 0.88048 0.31243 0.84517 0.0
H2546 H 0.90963 0.32734 0.9292 0.0
C2547 C 0.9232 0.35952 0.79322 0.0
C2548 C 0.90265 0.33496 0.76371 0.0
C2549 C 0.92633 0.36931 0.77863 0.0
C2550 C 0.87744 0.29884 0.88793 0.0
C2551 C 0.88366 0.30825 0.86474 0.0
C2552 C 0.90779 0.32936 0.88215 0.0
C2553 C 0.9132 0.35253 0.79203 0.0
C2554 C 0.90968 0.34211 0.8057 0.0
C2555 C 0.89383 0.31226 0.86737 0.0
C2556 C 0.90021 0.32231 0.84253 0.0
H2557 H 0.90398 0.36727 0.75303 0.0
H2558 H 0.8986 0.35028 0.77793 0.0
H2559 H 0.91792 0.34464 0.89689 0.0
H2560 H 0.89458 0.29302 0.93753 0.0
H2561 H 0.90554 0.3097 0.89731 0.0
C2562 C 0.6323 0.54588 0.76766 0.0
C2563 C 0.62538 0.54899 0.76972 0.0
C2564 C 0.64211 0.55243 0.78039 0.0
C2565 C 0.65875 0.57439 0.86845 0.0
H2566 H 0.67778 0.57373 0.74964 0.0
C2567 C 0.70071 0.59425 0.92099 0.0
C2568 C 0.70456 0.58794 0.9147 0.0
C2569 C 0.69125 0.59132 0.89852 0.0
C2570 C 0.67256 0.57404 0.78304 0.0
H2571 H 0.62331 0.56138 0.78836 0.0
H2572 H 0.6406 0.57285 0.81207 0.0
H2573 H 0.66054 0.56517 0.71889 0.0
H2574 H 0.7015 0.57366 0.87974 0.0
H2575 H 0.68514 0.56863 0.84103 0.0
H2576 H 0.67078 0.58288 0.93414 0.0
C2577 C 0.63834 0.56533 0.79979 0.0
C2578 C 0.66272 0.56916 0.76546 0.0
C2579 C 0.62848 0.55878 0.78614 0.0
C2580 C 0.69878 0.5787 0.8856 0.0
C2581 C 0.68942 0.57584 0.86274 0.0
C2582 C 0.66864 0.57928 0.88622 0.0
C2583 C 0.64523 0.56222 0.79606 0.0
C2584 C 0.6557 0.56897 0.80916 0.0
C2585 C 0.68558 0.58213 0.86862 0.0
C2586 C 0.67555 0.57879 0.84477 0.0
H2587 H 0.63018 0.53841 0.75513 0.0
H2588 H 0.64728 0.54981 0.77836 0.0
H2589 H 0.65344 0.57433 0.9029 0.0
H2590 H 0.70499 0.60141 0.94328 0.0
H2591 H 0.68841 0.59627 0.90372 0.0
C2592 C 0.8837 0.58482 0.85421 0.0
C2593 C 0.88589 0.59211 0.90206 0.0
C2594 C 0.89074 0.58245 0.83525 0.0
C2595 C 0.9105 0.58042 0.90144 0.0
H2596 H 0.91507 0.57638 0.71746 0.0
C2597 C 0.91761 0.5502 0.81167 0.0
C2598 C 0.92501 0.55252 0.76454 0.0
C2599 C 0.91531 0.55725 0.83201 0.0
C2600 C 0.91402 0.57764 0.76901 0.0
H2601 H 0.89718 0.60275 0.96691 0.0
H2602 H 0.90946 0.5983 0.93519 0.0
H2603 H 0.90634 0.58516 0.74289 0.0
H2604 H 0.93597 0.56406 0.70264 0.0
H2605 H 0.93168 0.57635 0.73687 0.0
H2606 H 0.91757 0.5723 0.92743 0.0
C2607 C 0.90232 0.59458 0.91183 0.0
C2608 C 0.909 0.5826 0.78346 0.0
C2609 C 0.89532 0.59711 0.92983 0.0
C2610 C 0.93023 0.56209 0.73909 0.0
C2611 C 0.92779 0.5691 0.75853 0.0
C2612 C 0.91537 0.57531 0.88695 0.0
C2613 C 0.90005 0.5872 0.86463 0.0
C2614 C 0.90696 0.58376 0.8497 0.0
C2615 C 0.92027 0.5667 0.80482 0.0
C2616 C 0.9169 0.57364 0.8206 0.0
H2617 H 0.87651 0.58092 0.83162 0.0
H2618 H 0.88879 0.57665 0.79932 0.0
H2619 H 0.90894 0.58118 0.95287 0.0
H2620 H 0.91354 0.54291 0.83253 0.0
H2621 H 0.9094 0.5552 0.86719 0.0
C2622 C 0.44883 0.36524 0.79254 0.0
C2623 C 0.44563 0.37081 0.75751 0.0
C2624 C 0.44214 0.35614 0.81837 0.0
C2625 C 0.41801 0.33533 0.79461 0.0
H2626 H 0.42316 0.32835 0.96896 0.0
C2627 C 0.39853 0.29557 0.89977 0.0
C2628 C 0.40535 0.29278 0.91913 0.0
C2629 C 0.40161 0.30538 0.88611 0.0
C2630 C 0.42156 0.33022 0.92049 0.0
H2631 H 0.43283 0.37115 0.72174 0.0
H2632 H 0.42104 0.35502 0.76642 0.0
H2633 H 0.43193 0.3454 0.93338 0.0
H2634 H 0.42068 0.29808 0.94051 0.0
H2635 H 0.42597 0.3151 0.9174 0.0
H2636 H 0.40795 0.32002 0.7808 0.0
C2637 C 0.42878 0.35782 0.77398 0.0
C2638 C 0.42657 0.33995 0.90014 0.0
C2639 C 0.43552 0.36703 0.74855 0.0
C2640 C 0.41524 0.29997 0.92541 0.0
C2641 C 0.41827 0.30974 0.9128 0.0
C2642 C 0.41295 0.32556 0.81514 0.0
C2643 C 0.43206 0.35235 0.80961 0.0
C2644 C 0.42517 0.34252 0.83593 0.0
C2645 C 0.4115 0.31254 0.89298 0.0
C2646 C 0.41503 0.3229 0.87709 0.0
H2647 H 0.45655 0.36792 0.80069 0.0
H2648 H 0.44487 0.35199 0.84453 0.0
H2649 H 0.41681 0.33714 0.74482 0.0
H2650 H 0.39086 0.29017 0.89435 0.0
H2651 H 0.39627 0.30739 0.87063 0.0
C2652 C 0.62788 0.0672 0.76805 0.0
C2653 C 0.62404 0.07347 0.77706 0.0
C2654 C 0.63709 0.06971 0.79348 0.0
C2655 C 0.65532 0.0857 0.91719 0.0
H2656 H 0.67463 0.08621 0.79536 0.0
C2657 C 0.69551 0.11395 0.93395 0.0
C2658 C 0.70261 0.11116 0.92553 0.0
C2659 C 0.68566 0.10724 0.92423 0.0
C2660 C 0.66927 0.08589 0.83045 0.0
H2661 H 0.62678 0.08719 0.82074 0.0
H2662 H 0.64277 0.09155 0.86457 0.0
H2663 H 0.65741 0.07808 0.76235 0.0
H2664 H 0.70494 0.09912 0.90026 0.0
H2665 H 0.68756 0.08734 0.88159 0.0
H2666 H 0.66721 0.09396 0.98381 0.0
C2667 C 0.63865 0.08467 0.83839 0.0
C2668 C 0.65943 0.08125 0.8116 0.0
C2669 C 0.62953 0.08222 0.8126 0.0
C2670 C 0.69962 0.10147 0.90718 0.0
C2671 C 0.68972 0.09475 0.89646 0.0
C2672 C 0.66512 0.09033 0.93591 0.0
C2673 C 0.64253 0.07846 0.82903 0.0
C2674 C 0.65246 0.08149 0.85376 0.0
C2675 C 0.68267 0.09759 0.90528 0.0
C2676 C 0.67222 0.09083 0.89159 0.0
H2677 H 0.62383 0.0604 0.7409 0.0
H2678 H 0.63993 0.06481 0.7856 0.0
H2679 H 0.65004 0.0858 0.95114 0.0
H2680 H 0.69754 0.12134 0.94845 0.0
H2681 H 0.68039 0.10966 0.93021 0.0
C2682 C 0.5444 0.91378 0.18826 0.0
C2683 C 0.5477 0.92262 0.22279 0.0
C2684 C 0.55102 0.91116 0.16404 0.0
C2685 C 0.57508 0.91436 0.19441 0.0
H2686 H 0.5703 0.9012 0.02403 0.0
C2687 C 0.59521 0.89401 0.10336 0.0
C2688 C 0.58856 0.8843 0.08497 0.0
C2689 C 0.59195 0.90068 0.11377 0.0
C2690 C 0.57178 0.90494 0.07146 0.0
H2691 H 0.5606 0.93567 0.25866 0.0
H2692 H 0.57222 0.93098 0.21664 0.0
H2693 H 0.56134 0.90953 0.0536 0.0
H2694 H 0.57333 0.87402 0.06235 0.0
H2695 H 0.56773 0.8856 0.08012 0.0
H2696 H 0.58524 0.90937 0.2132 0.0
C2697 C 0.56447 0.92613 0.20838 0.0
C2698 C 0.56665 0.90968 0.0884 0.0
C2699 C 0.55782 0.92881 0.23225 0.0
C2700 C 0.57865 0.88142 0.07677 0.0
C2701 C 0.57544 0.88808 0.08625 0.0
C2702 C 0.58025 0.90962 0.17733 0.0
C2703 C 0.56111 0.91729 0.17399 0.0
C2704 C 0.56795 0.91407 0.15113 0.0
C2705 C 0.58204 0.89776 0.1047 0.0
C2706 C 0.57832 0.90453 0.11686 0.0
H2707 H 0.53667 0.90886 0.17983 0.0
H2708 H 0.54822 0.90421 0.13873 0.0
H2709 H 0.5762 0.91768 0.24316 0.0
H2710 H 0.6029 0.89644 0.11015 0.0
H2711 H 0.59715 0.90811 0.12829 0.0
C2712 C 0.11562 0.69982 0.13377 0.0
C2713 C 0.11238 0.70522 0.09699 0.0
C2714 C 0.10894 0.69078 0.16049 0.0
C2715 C 0.0849 0.6698 0.13634 0.0
H2716 H 0.08977 0.66316 0.31262 0.0
C2717 C 0.06551 0.63015 0.24283 0.0
C2718 C 0.07237 0.62749 0.26377 0.0
C2719 C 0.0685 0.63994 0.22892 0.0
C2720 C 0.08825 0.66493 0.2636 0.0
H2721 H 0.09955 0.70533 0.05913 0.0
H2722 H 0.08782 0.6893 0.10534 0.0
H2723 H 0.09858 0.68014 0.27564 0.0
H2724 H 0.08765 0.63301 0.28795 0.0
H2725 H 0.09279 0.64996 0.26431 0.0
H2726 H 0.07491 0.65446 0.12335 0.0
C2727 C 0.09556 0.69218 0.11359 0.0
C2728 C 0.09329 0.67462 0.24244 0.0
C2729 C 0.10227 0.70134 0.08731 0.0
C2730 C 0.0822 0.63479 0.27157 0.0
C2731 C 0.08513 0.64453 0.25869 0.0
C2732 C 0.07983 0.66006 0.15763 0.0
C2733 C 0.09886 0.68687 0.1508 0.0
C2734 C 0.09198 0.67707 0.1776 0.0
C2735 C 0.07833 0.64719 0.23711 0.0
C2736 C 0.08181 0.65752 0.22034 0.0
H2737 H 0.12334 0.7026 0.1425 0.0
H2738 H 0.11169 0.68675 0.18794 0.0
H2739 H 0.08378 0.67151 0.08607 0.0
H2740 H 0.05789 0.62466 0.23627 0.0
H2741 H 0.06315 0.64184 0.21206 0.0
C2742 C 0.29743 0.39987 0.09981 0.0
C2743 C 0.29336 0.40593 0.10961 0.0
C2744 C 0.30674 0.40263 0.12438 0.0
C2745 C 0.32487 0.41883 0.24768 0.0
H2746 H 0.34443 0.42039 0.12371 0.0
C2747 C 0.36464 0.44826 0.26357 0.0
C2748 C 0.372 0.44583 0.25509 0.0
C2749 C 0.35488 0.44128 0.25347 0.0
C2750 C 0.33901 0.41978 0.15935 0.0
H2751 H 0.2958 0.41953 0.15382 0.0
H2752 H 0.31196 0.42429 0.19623 0.0
H2753 H 0.32716 0.4117 0.09165 0.0
H2754 H 0.37492 0.43419 0.22899 0.0
H2755 H 0.35769 0.42196 0.20967 0.0
H2756 H 0.33673 0.42736 0.3139 0.0
C2757 C 0.30795 0.41739 0.17004 0.0
C2758 C 0.32914 0.41482 0.14106 0.0
C2759 C 0.29873 0.41471 0.14505 0.0
C2760 C 0.36939 0.43626 0.23601 0.0
C2761 C 0.35957 0.42927 0.22492 0.0
C2762 C 0.33469 0.42378 0.26583 0.0
C2763 C 0.31205 0.4114 0.15994 0.0
C2764 C 0.32206 0.41469 0.18404 0.0
C2765 C 0.35225 0.43174 0.23408 0.0
C2766 C 0.34187 0.42466 0.22073 0.0
H2767 H 0.29347 0.39306 0.07267 0.0
H2768 H 0.30977 0.3979 0.1159 0.0
H2769 H 0.31951 0.41865 0.28219 0.0
H2770 H 0.36639 0.45555 0.27856 0.0
H2771 H 0.34938 0.44341 0.25971 0.0
C2772 C 0.76819 0.73204 0.44262 0.0
C2773 C 0.77776 0.73882 0.42201 0.0
C2774 C 0.7614 0.73509 0.45494 0.0
C2775 C 0.75622 0.75462 0.41323 0.0
H2776 H 0.7445 0.75072 0.58829 0.0
C2777 C 0.74787 0.7822 0.52981 0.0
C2778 C 0.73903 0.77904 0.56404 0.0
C2779 C 0.75044 0.77549 0.50694 0.0
C2780 C 0.74753 0.75168 0.53868 0.0
H2781 H 0.78764 0.75407 0.39754 0.0
H2782 H 0.77582 0.75931 0.41844 0.0
H2783 H 0.75298 0.74187 0.55701 0.0
H2784 H 0.72598 0.7663 0.60155 0.0
H2785 H 0.73064 0.75449 0.56211 0.0
H2786 H 0.75121 0.76474 0.39576 0.0
C2787 C 0.77357 0.75165 0.42493 0.0
C2788 C 0.75236 0.74663 0.52085 0.0
C2789 C 0.78036 0.74866 0.4136 0.0
C2790 C 0.73283 0.76896 0.57525 0.0
C2791 C 0.73549 0.76221 0.55284 0.0
C2792 C 0.75139 0.75963 0.43091 0.0
C2793 C 0.76403 0.74491 0.44555 0.0
C2794 C 0.75711 0.7484 0.45906 0.0
C2795 C 0.74428 0.76544 0.518 0.0
C2796 C 0.74739 0.75854 0.49482 0.0
H2797 H 0.76599 0.72441 0.44969 0.0
H2798 H 0.75409 0.72978 0.47111 0.0
H2799 H 0.75969 0.75597 0.36484 0.0
H2800 H 0.7528 0.78989 0.52002 0.0
H2801 H 0.75736 0.77819 0.4813 0.0
C2802 C 0.2455 0.02913 0.39667 0.0
C2803 C 0.2553 0.03646 0.40499 0.0
C2804 C 0.24262 0.01939 0.40871 0.0
C2805 C 0.24809 0.00385 0.50861 0.0
H2806 H 0.22939 0.98378 0.39037 0.0
C2807 C 0.22615 0.9625 0.5773 0.0
C2808 C 0.21602 0.95846 0.5676 0.0
C2809 C 0.23274 0.97172 0.5514 0.0
C2810 C 0.23466 0.9893 0.42364 0.0
H2811 H 0.2698 0.03932 0.43237 0.0
H2812 H 0.26464 0.02213 0.45502 0.0
H2813 H 0.23801 0.0008 0.35414 0.0
H2814 H 0.20491 0.96089 0.52256 0.0
H2815 H 0.21634 0.97686 0.47792 0.0
H2816 H 0.24432 0.99236 0.57951 0.0
C2817 C 0.25926 0.02402 0.43846 0.0
C2818 C 0.23959 -0.00099 0.40291 0.0
C2819 C 0.26219 0.03382 0.42542 0.0
C2820 C 0.21264 0.96378 0.53128 0.0
C2821 C 0.21921 0.9729 0.505 0.0
C2822 C 0.24312 0.99409 0.52948 0.0
C2823 C 0.24944 0.01674 0.42995 0.0
C2824 C 0.24602 0.00641 0.44625 0.0
C2825 C 0.22931 0.97695 0.5146 0.0
C2826 C 0.23606 0.98681 0.48815 0.0
H2827 H 0.24002 0.03091 0.38066 0.0
H2828 H 0.23497 0.01393 0.40284 0.0
H2829 H 0.253 0.00944 0.54296 0.0
H2830 H 0.22898 0.95858 0.60509 0.0
H2831 H 0.24051 0.97472 0.55958 0.0
C2832 C 0.96383 0.21542 0.39281 0.0
C2833 C 0.95655 0.21786 0.40503 0.0
C2834 C 0.97363 0.22227 0.4028 0.0
C2835 C 0.98957 0.2432 0.50285 0.0
H2836 H 0.00923 0.24441 0.38129 0.0
C2837 C 0.03094 0.26245 0.56722 0.0
C2838 C 0.03493 0.25632 0.55718 0.0
C2839 C 0.02172 0.25987 0.54165 0.0
C2840 C 0.00383 0.24421 0.41547 0.0
H2841 H 0.95385 0.22944 0.43684 0.0
H2842 H 0.97114 0.24144 0.4556 0.0
H2843 H 0.99211 0.2361 0.3473 0.0
H2844 H 0.03245 0.2428 0.51153 0.0
H2845 H 0.01645 0.23835 0.46736 0.0
H2846 H 0.00126 0.25089 0.57227 0.0
C2847 C 0.96917 0.23421 0.43778 0.0
C2848 C 0.99406 0.23947 0.39604 0.0
C2849 C 0.95931 0.22736 0.42696 0.0
C2850 C 0.02958 0.24766 0.52053 0.0
C2851 C 0.02045 0.24516 0.49453 0.0
C2852 C -0.00063 0.24795 0.52235 0.0
C2853 C 0.9764 0.2317 0.4257 0.0
C2854 C 0.9868 0.23856 0.44061 0.0
C2855 C 0.01643 0.25122 0.50486 0.0
C2856 C 0.00651 0.24812 0.47979 0.0
H2857 H 0.96196 0.20819 0.37552 0.0
H2858 H 0.97905 0.22009 0.39422 0.0
H2859 H 0.9841 0.24256 0.53819 0.0
H2860 H 0.03489 0.26918 0.59525 0.0
H2861 H 0.01875 0.26465 0.55033 0.0
C2862 C 0.26138 0.22579 0.42408 0.0
C2863 C 0.25528 0.21564 0.43254 0.0
C2864 C 0.25864 0.23231 0.44971 0.0
C2865 C 0.24228 0.23388 0.57367 0.0
H2866 H 0.24104 0.2524 0.45307 0.0
C2867 C 0.21328 0.24489 0.59456 0.0
C2868 C 0.21594 0.25475 0.58731 0.0
C2869 C 0.22008 0.2419 0.58309 0.0
C2870 C 0.24154 0.24742 0.48777 0.0
H2871 H 0.24161 0.20441 0.47543 0.0
H2872 H 0.23686 0.21571 0.51951 0.0
H2873 H 0.24969 0.24386 0.41927 0.0
H2874 H 0.2278 0.26923 0.56189 0.0
H2875 H 0.2397 0.26389 0.54038 0.0
H2876 H 0.2337 0.23703 0.64068 0.0
C2877 C 0.24379 0.21865 0.49364 0.0
C2878 C 0.24649 0.24255 0.46851 0.0
C2879 C 0.24646 0.21217 0.46766 0.0
C2880 C 0.22555 0.26158 0.56803 0.0
C2881 C 0.23235 0.25854 0.55564 0.0
C2882 C 0.23733 0.23871 0.59277 0.0
C2883 C 0.24983 0.22877 0.48496 0.0
C2884 C 0.24653 0.23543 0.51025 0.0
C2885 C 0.22966 0.24868 0.56353 0.0
C2886 C 0.23658 0.24522 0.5489 0.0
H2887 H 0.26823 0.22869 0.39726 0.0
H2888 H 0.2634 0.24009 0.44231 0.0
H2889 H 0.24238 0.22856 0.60729 0.0
H2890 H 0.20596 0.23945 0.60959 0.0
H2891 H 0.21779 0.23422 0.58841 0.0
C2892 C 0.76825 0.03294 0.42462 0.0
C2893 C 0.77839 0.03701 0.43344 0.0
C2894 C 0.76171 0.02382 0.45206 0.0
C2895 C 0.76 0.00661 0.58199 0.0
H2896 H 0.74144 0.9862 0.4652 0.0
C2897 C 0.74871 0.96669 0.61525 0.0
C2898 C 0.73895 0.95939 0.60495 0.0
C2899 C 0.75169 0.97645 0.60285 0.0
C2900 C 0.74641 0.99186 0.49889 0.0
H2901 H 0.7896 0.03475 0.47864 0.0
H2902 H 0.77825 0.01893 0.52598 0.0
H2903 H 0.75013 0.00316 0.42655 0.0
H2904 H 0.7246 0.9566 0.57422 0.0
H2905 H 0.72991 0.97379 0.55131 0.0
H2906 H 0.75666 0.99529 0.65309 0.0
C2907 C 0.77534 0.0228 0.49837 0.0
C2908 C 0.75139 0.00155 0.47679 0.0
C2909 C 0.78185 0.03182 0.47054 0.0
C2910 C 0.73218 0.96208 0.58268 0.0
C2911 C 0.7352 0.97188 0.56945 0.0
C2912 C 0.75505 0.99695 0.60401 0.0
C2913 C 0.76522 0.01871 0.48951 0.0
C2914 C 0.75852 0.00893 0.5172 0.0
C2915 C 0.74499 0.97914 0.57939 0.0
C2916 C 0.74853 0.98945 0.56164 0.0
H2917 H 0.76536 0.03676 0.39628 0.0
H2918 H 0.75393 0.02079 0.44446 0.0
H2919 H 0.76533 0.01221 0.61456 0.0
H2920 H 0.75411 0.96487 0.63271 0.0
H2921 H 0.75932 0.98188 0.60987 0.0
C2922 C 0.96418 0.74949 0.46687 0.0
C2923 C 0.9587 0.74066 0.43217 0.0
C2924 C 0.97333 0.75204 0.4926 0.0
C2925 C 0.99427 0.74884 0.46854 0.0
H2926 H 0.00146 0.7613 0.64181 0.0
C2927 C 0.03415 0.76921 0.5712 0.0
C2928 C 0.03698 0.77886 0.58985 0.0
C2929 C 0.02431 0.76246 0.5584 0.0
C2930 C -0.00047 0.75775 0.59363 0.0
H2931 H 0.95857 0.72759 0.39694 0.0
H2932 H 0.97475 0.73219 0.44149 0.0
H2933 H 0.98438 0.75303 0.60696 0.0
H2934 H 0.03172 0.78893 0.61092 0.0
H2935 H 0.01467 0.77719 0.5892 0.0
H2936 H 0.00955 0.754 0.45427 0.0
C2937 C 0.97186 0.73706 0.44884 0.0
C2938 C 0.98978 0.75304 0.57367 0.0
C2939 C 0.96262 0.73444 0.42351 0.0
C2940 C 0.0298 0.78158 0.59633 0.0
C2941 C 0.02002 0.77483 0.58455 0.0
C2942 C 0.00406 0.75356 0.48865 0.0
C2943 C 0.97725 0.74585 0.48401 0.0
C2944 C 0.98713 0.74893 0.50986 0.0
C2945 C 0.01718 0.76523 0.56543 0.0
C2946 C 0.00679 0.7584 0.5502 0.0
H2947 H 0.96139 0.75444 0.47471 0.0
H2948 H 0.97742 0.75895 0.51843 0.0
H2949 H 0.9924 0.74573 0.41905 0.0
H2950 H 0.03953 0.76693 0.56568 0.0
H2951 H 0.02227 0.75509 0.54343 0.0
C2952 C 0.23935 0.4176 0.05832 0.0
C2953 C 0.23946 0.40957 0.0295 0.0
C2954 C 0.23175 0.41944 0.04329 0.0
C2955 C 0.20616 0.4047 0.99712 0.0
H2956 H 0.20604 0.42919 0.99162 0.0
C2957 C 0.16995 0.40347 0.98467 0.0
C2958 C 0.16863 0.40933 0.03105 0.0
C2959 C 0.17931 0.40537 0.96874 0.0
C2960 C 0.20599 0.42231 0.99312 0.0
H2961 H 0.23258 0.39784 0.95764 0.0
H2962 H 0.21961 0.40128 0.92921 0.0
H2963 H 0.22169 0.42934 0.99096 0.0
H2964 H 0.1759 0.4221 0.09417 0.0
H2965 H 0.19242 0.42519 0.0689 0.0
H2966 H 0.19066 0.39762 0.00207 0.0
C2967 C 0.22509 0.40595 0.96507 0.0
C2968 C 0.21492 0.4224 0.99268 0.0
C2969 C 0.23251 0.40399 0.98106 0.0
C2970 C 0.17681 0.41751 0.05825 0.0
C2971 C 0.18624 0.41929 0.04348 0.0
C2972 C 0.19733 0.40461 0.99773 0.0
C2973 C 0.22431 0.41333 0.99869 0.0
C2974 C 0.21506 0.41357 0.99465 0.0
C2975 C 0.18753 0.41298 0.00057 0.0
C2976 C 0.1971 0.41339 0.99572 0.0
H2977 H 0.24467 0.42197 0.0959 0.0
H2978 H 0.23133 0.42517 0.07006 0.0
H2979 H 0.20599 0.39778 0.00095 0.0
H2980 H 0.16371 0.39721 0.96237 0.0
H2981 H 0.18008 0.40055 0.93399 0.0
C2982 C 0.57452 0.75532 0.03539 0.0
C2983 C 0.58446 0.75826 0.02705 0.0
C2984 C 0.57107 0.76165 0.01822 0.0
C2985 C 0.57765 0.78441 0.92573 0.0
H2986 H 0.56752 0.79135 0.07926 0.0
C2987 C 0.59067 0.82321 0.00169 0.0
C2988 C 0.58435 0.82598 0.03089 0.0
C2989 C 0.58722 0.81357 0.98253 0.0
C2990 C 0.57005 0.78936 0.03506 0.0
H2991 H 0.59843 0.76981 0.9906 0.0
H2992 H 0.59244 0.78076 0.96058 0.0
H2993 H 0.56757 0.77594 0.07858 0.0
H2994 H 0.56937 0.82092 0.0608 0.0
H2995 H 0.56336 0.80383 0.02895 0.0
H2996 H 0.58086 0.7982 0.88457 0.0
C2997 C 0.58729 0.77361 0.98024 0.0
C2998 C 0.57007 0.78052 0.03467 0.0
C2999 C 0.59076 0.76739 0.99831 0.0
C3000 C 0.5744 0.81896 0.0385 0.0
C3001 C 0.57096 0.80922 0.02028 0.0
C3002 C 0.57763 0.79323 0.92613 0.0
C3003 C 0.57746 0.77089 0.99114 0.0
C3004 C 0.57444 0.77829 0.9818 0.0
C3005 C 0.57739 0.80643 0.99282 0.0
C3006 C 0.57439 0.79604 0.98259 0.0
H3007 H 0.5695 0.7483 0.05732 0.0
H3008 H 0.56347 0.75942 0.02734 0.0
H3009 H 0.5809 0.78276 0.88386 0.0
H3010 H 0.59835 0.82848 0.99455 0.0
H3011 H 0.59239 0.81161 0.96258 0.0
C3012 C 0.17422 0.76635 0.98134 0.0
C3013 C 0.17126 0.75725 0.01102 0.0
C3014 C 0.18392 0.7724 0.96272 0.0
C3015 C 0.20788 0.7791 0.01903 0.0
H3016 H 0.21506 0.79693 0.86965 0.0
C3017 C 0.24176 0.81776 0.02662 0.0
C3018 C 0.23862 0.82463 0.01977 0.0
C3019 C 0.23563 0.80802 0.00737 0.0
C3020 C 0.21326 0.79191 0.91098 0.0
H3021 H 0.17601 0.74713 0.04203 0.0
H3022 H 0.19321 0.75797 0.01118 0.0
H3023 H 0.19963 0.78145 0.86726 0.0
H3024 H 0.22698 0.82692 0.98358 0.0
H3025 H 0.21641 0.81007 0.94945 0.0
H3026 H 0.22114 0.78993 0.06508 0.0
C3027 C 0.18793 0.76031 0.00167 0.0
C3028 C 0.20444 0.78307 0.90963 0.0
C3029 C 0.17812 0.75413 0.01927 0.0
C3030 C 0.22954 0.82175 0.9901 0.0
C3031 C 0.22354 0.81213 0.96975 0.0
C3032 C 0.21673 0.78795 0.02035 0.0
C3033 C 0.19092 0.76956 0.97413 0.0
C3034 C 0.20139 0.7769 0.96548 0.0
C3035 C 0.22642 0.80512 0.97943 0.0
C3036 C 0.21916 0.7947 0.96815 0.0
H3037 H 0.16907 0.76889 0.97377 0.0
H3038 H 0.18602 0.77956 0.94266 0.0
H3039 H 0.20571 0.77448 0.06281 0.0
H3040 H 0.24875 0.81982 0.04935 0.0
H3041 H 0.23797 0.80273 0.01565 0.0
C3042 C 0.4198 0.17765 0.95887 0.0
C3043 C 0.40987 0.17061 0.96735 0.0
C3044 C 0.4232 0.18744 0.97552 0.0
C3045 C 0.41659 0.2036 0.06788 0.0
H3046 H 0.42669 0.22074 0.91467 0.0
C3047 C 0.40378 0.22965 0.99481 0.0
C3048 C 0.41016 0.23882 0.96683 0.0
C3049 C 0.40716 0.22335 0.01263 0.0
C3050 C 0.42417 0.21619 0.95876 0.0
H3051 H 0.39588 0.16816 0.00345 0.0
H3052 H 0.40179 0.18512 0.0328 0.0
H3053 H 0.42658 0.20523 0.91464 0.0
H3054 H 0.42515 0.24875 0.93751 0.0
H3055 H 0.43104 0.23747 0.96688 0.0
H3056 H 0.41347 0.2142 0.10973 0.0
C3057 C 0.40696 0.18314 0.01334 0.0
C3058 C 0.4241 0.20731 0.95874 0.0
C3059 C 0.40354 0.17343 0.99572 0.0
C3060 C 0.42009 0.24171 0.95893 0.0
C3061 C 0.42345 0.23529 0.97571 0.0
C3062 C 0.41666 0.21246 0.06791 0.0
C3063 C 0.41677 0.19027 0.00228 0.0
C3064 C 0.41976 0.20069 0.01158 0.0
C3065 C 0.41697 0.22601 0.00215 0.0
C3066 C 0.4199 0.21854 0.01162 0.0
H3067 H 0.42484 0.17566 0.93712 0.0
H3068 H 0.43079 0.19283 0.9663 0.0
H3069 H 0.41336 0.19868 0.10971 0.0
H3070 H 0.39611 0.22727 0.00212 0.0
H3071 H 0.40195 0.21619 0.0318 0.0
C3072 C 0.82085 0.22933 0.99713 0.0
C3073 C 0.82353 0.23856 0.97076 0.0
C3074 C 0.81121 0.22292 0.01526 0.0
C3075 C 0.79092 0.21183 0.07216 0.0
H3076 H 0.77357 0.20478 0.92011 0.0
C3077 C 0.75323 0.17688 0.96196 0.0
C3078 C 0.75639 0.17003 0.96806 0.0
C3079 C 0.75945 0.18667 0.9797 0.0
C3080 C 0.77817 0.2068 0.96393 0.0
H3081 H 0.81831 0.24848 0.9445 0.0
H3082 H 0.80122 0.23702 0.97439 0.0
H3083 H 0.78887 0.22038 0.92073 0.0
H3084 H 0.76825 0.16785 0.00095 0.0
H3085 H 0.77901 0.18479 0.03219 0.0
H3086 H 0.78061 0.1979 0.1129 0.0
C3087 C 0.80668 0.23487 0.98175 0.0
C3088 C 0.78693 0.21574 0.96428 0.0
C3089 C 0.81642 0.24138 0.96464 0.0
C3090 C 0.76566 0.173 0.99501 0.0
C3091 C 0.77177 0.18267 0.01376 0.0
C3092 C 0.78218 0.20291 0.07181 0.0
C3093 C 0.804 0.22555 0.00671 0.0
C3094 C 0.79364 0.21802 0.01652 0.0
C3095 C 0.76881 0.18964 0.00527 0.0
C3096 C 0.77605 0.20007 0.01582 0.0
H3097 H 0.8262 0.22699 0.00307 0.0
H3098 H 0.80933 0.21572 0.03324 0.0
H3099 H 0.79592 0.21351 0.1135 0.0
H3100 H 0.7461 0.17476 0.94138 0.0
H3101 H 0.75704 0.19193 0.97238 0.0
C3102 C 0.81939 0.57393 0.96711 0.0
C3103 C 0.82622 0.58392 0.97535 0.0
C3104 C 0.80959 0.57028 0.98494 0.0
C3105 C 0.78963 0.56909 0.96785 0.0
H3106 H 0.78249 0.57985 0.11691 0.0
C3107 C 0.76767 0.58988 0.99774 0.0
C3108 C 0.75846 0.58352 0.9703 0.0
C3109 C 0.77388 0.58642 0.01654 0.0
C3110 C 0.78429 0.57661 0.07568 0.0
H3111 H 0.82841 0.59774 0.0129 0.0
H3112 H 0.81147 0.59141 0.04432 0.0
H3113 H 0.79791 0.57975 0.11949 0.0
H3114 H 0.74838 0.56848 0.9425 0.0
H3115 H 0.7595 0.56246 0.97342 0.0
H3116 H 0.77637 0.56666 0.92183 0.0
C3117 C 0.81358 0.58638 0.02413 0.0
C3118 C 0.79309 0.57655 0.07714 0.0
C3119 C 0.82326 0.59004 0.00531 0.0
C3120 C 0.75547 0.57354 0.96349 0.0
C3121 C 0.76178 0.57009 0.98121 0.0
C3122 C 0.78079 0.56912 0.96647 0.0
C3123 C 0.80658 0.57653 0.01268 0.0
C3124 C 0.79612 0.57339 0.02139 0.0
C3125 C 0.77107 0.57654 0.00752 0.0
C3126 C 0.77839 0.57346 0.01857 0.0
H3127 H 0.82151 0.56907 0.94417 0.0
H3128 H 0.80432 0.56267 0.97541 0.0
H3129 H 0.79179 0.56662 0.92413 0.0
H3130 H 0.77014 0.59759 0.0042 0.0
H3131 H 0.78106 0.59159 0.03557 0.0
C3132 C 0.84343 0.75386 0.37228 0.0
C3133 C 0.83647 0.7439 0.36433 0.0
C3134 C 0.85319 0.75738 0.35426 0.0
C3135 C 0.86932 0.751 0.25914 0.0
H3136 H 0.88682 0.76137 0.41037 0.0
C3137 C 0.89602 0.73878 0.32788 0.0
C3138 C 0.90512 0.74523 0.35644 0.0
C3139 C 0.88961 0.74204 0.31034 0.0
C3140 C 0.88217 0.75878 0.3668 0.0
H3141 H 0.8341 0.72996 0.32772 0.0
H3142 H 0.85101 0.73607 0.29603 0.0
H3143 H 0.87121 0.76102 0.41258 0.0
H3144 H 0.91485 0.76023 0.38672 0.0
H3145 H 0.90339 0.7659 0.35765 0.0
H3146 H 0.87994 0.74805 0.2156 0.0
C3147 C 0.84899 0.74118 0.31613 0.0
C3148 C 0.87322 0.75858 0.36808 0.0
C3149 C 0.83932 0.73765 0.33509 0.0
C3150 C 0.90786 0.75511 0.36482 0.0
C3151 C 0.90133 0.75835 0.34825 0.0
C3152 C 0.87825 0.75121 0.25785 0.0
C3153 C 0.85606 0.75103 0.32665 0.0
C3154 C 0.86648 0.75414 0.31599 0.0
C3155 C 0.89209 0.75179 0.32166 0.0
C3156 C 0.88447 0.75454 0.31341 0.0
H3157 H 0.8414 0.75884 0.39465 0.0
H3158 H 0.85853 0.76499 0.36309 0.0
H3159 H 0.86431 0.7477 0.21786 0.0
H3160 H 0.89376 0.73115 0.32022 0.0
H3161 H 0.88248 0.73677 0.291 0.0
C3162 C 0.25586 0.09897 0.33264 0.0
C3163 C 0.24955 0.08982 0.36107 0.0
C3164 C 0.25232 0.10504 0.31227 0.0
C3165 C 0.23485 0.11187 0.35935 0.0
H3166 H 0.24573 0.12883 0.20581 0.0
C3167 C 0.2396 0.15042 0.3546 0.0
C3168 C 0.24959 0.15728 0.34714 0.0
C3169 C 0.23601 0.14061 0.33745 0.0
C3170 C 0.24246 0.12405 0.24826 0.0
H3171 H 0.23452 0.0797 0.38887 0.0
H3172 H 0.22836 0.0906 0.35516 0.0
H3173 H 0.2458 0.11341 0.21007 0.0
H3174 H 0.26352 0.15947 0.3117 0.0
H3175 H 0.25729 0.14249 0.28145 0.0
H3176 H 0.2323 0.12292 0.40012 0.0
C3177 C 0.23602 0.09293 0.34785 0.0
C3178 C 0.24249 0.11525 0.25068 0.0
C3179 C 0.23954 0.08674 0.36718 0.0
C3180 C 0.2558 0.15432 0.31867 0.0
C3181 C 0.2522 0.14461 0.30052 0.0
C3182 C 0.23483 0.1207 0.35697 0.0
C3183 C 0.24241 0.10217 0.32061 0.0
C3184 C 0.23927 0.10941 0.30809 0.0
C3185 C 0.24233 0.13761 0.31119 0.0
C3186 C 0.23922 0.12714 0.30328 0.0
H3187 H 0.26358 0.1015 0.32664 0.0
H3188 H 0.25746 0.1122 0.29258 0.0
H3189 H 0.23234 0.1075 0.40422 0.0
H3190 H 0.23465 0.15254 0.37639 0.0
H3191 H 0.22838 0.13534 0.34637 0.0
C3192 C 0.83944 0.09898 0.31921 0.0
C3193 C 0.83665 0.08991 0.34855 0.0
C3194 C 0.84916 0.10535 0.30286 0.0
C3195 C 0.87297 0.11268 0.36608 0.0
H3196 H 0.88041 0.13113 0.22021 0.0
C3197 C 0.90637 0.15182 0.3798 0.0
C3198 C 0.90317 0.15863 0.37226 0.0
C3199 C 0.90032 0.14205 0.3609 0.0
C3200 C 0.87853 0.12595 0.26062 0.0
H3201 H 0.84173 0.08011 0.38092 0.0
H3202 H 0.85897 0.09149 0.35397 0.0
H3203 H 0.86537 0.11534 0.21263 0.0
H3204 H 0.89139 0.16071 0.33622 0.0
H3205 H 0.88094 0.1438 0.30288 0.0
H3206 H 0.88576 0.12362 0.41613 0.0
C3207 C 0.85355 0.09358 0.34304 0.0
C3208 C 0.86994 0.11693 0.2563 0.0
C3209 C 0.84372 0.08709 0.3584 0.0
C3210 C 0.89401 0.15561 0.34329 0.0
C3211 C 0.88808 0.14595 0.32336 0.0
C3212 C 0.88159 0.12171 0.37031 0.0
C3213 C 0.85636 0.10284 0.31623 0.0
C3214 C 0.86677 0.1105 0.31077 0.0
C3215 C 0.89111 0.13905 0.33269 0.0
C3216 C 0.88409 0.12864 0.31932 0.0
H3217 H 0.83412 0.10129 0.31043 0.0
H3218 H 0.85111 0.11249 0.28329 0.0
H3219 H 0.87069 0.10787 0.40888 0.0
H3220 H 0.91342 0.15397 0.40195 0.0
H3221 H 0.90277 0.13684 0.36897 0.0
C3222 C 0.07332 0.566 0.35408 0.0
C3223 C 0.07935 0.57502 0.32316 0.0
C3224 C 0.07705 0.56002 0.37274 0.0
C3225 C 0.09407 0.55323 0.31386 0.0
H3226 H 0.08362 0.53549 0.46388 0.0
C3227 C 0.08837 0.51429 0.30326 0.0
C3228 C 0.07835 0.50756 0.31145 0.0
C3229 C 0.09224 0.52404 0.32303 0.0
C3230 C 0.08678 0.54048 0.42236 0.0
H3231 H 0.09411 0.58512 0.29013 0.0
H3232 H 0.10061 0.5744 0.32094 0.0
H3233 H 0.084 0.55113 0.46736 0.0
H3234 H 0.06466 0.50556 0.35042 0.0
H3235 H 0.07138 0.52245 0.38525 0.0
H3236 H 0.09608 0.54222 0.26659 0.0
C3237 C 0.09303 0.57207 0.33143 0.0
C3238 C 0.087 0.54941 0.42435 0.0
C3239 C 0.08932 0.57817 0.31379 0.0
C3240 C 0.07239 0.51061 0.34283 0.0
C3241 C 0.07627 0.52025 0.3636 0.0
C3242 C 0.09387 0.54428 0.31193 0.0
C3243 C 0.08687 0.56287 0.36014 0.0
C3244 C 0.09001 0.55554 0.36828 0.0
C3245 C 0.08618 0.52711 0.35269 0.0
C3246 C 0.08961 0.53758 0.36437 0.0
H3247 H 0.06564 0.56345 0.36258 0.0
H3248 H 0.07207 0.55291 0.39367 0.0
H3249 H 0.09642 0.55781 0.2699 0.0
H3250 H 0.09313 0.51211 0.27926 0.0
H3251 H 0.09989 0.52921 0.31378 0.0
C3252 C 0.48391 0.57623 0.30492 0.0
C3253 C 0.49082 0.5732 0.31464 0.0
C3254 C 0.47412 0.57006 0.32271 0.0
C3255 C 0.45771 0.54746 0.41686 0.0
H3256 H 0.44127 0.53998 0.25982 0.0
C3257 C 0.43364 0.50853 0.33731 0.0
C3258 C 0.42451 0.50536 0.30757 0.0
C3259 C 0.43943 0.51822 0.35705 0.0
C3260 C 0.44561 0.54212 0.30494 0.0
H3261 H 0.49312 0.56176 0.35476 0.0
H3262 H 0.47618 0.55111 0.38602 0.0
H3263 H 0.45647 0.55564 0.26211 0.0
H3264 H 0.41409 0.50975 0.27692 0.0
H3265 H 0.42447 0.52694 0.30948 0.0
H3266 H 0.44728 0.53354 0.45715 0.0
C3267 C 0.47824 0.55818 0.36473 0.0
C3268 C 0.45431 0.5511 0.3063 0.0
C3269 C 0.48792 0.56422 0.34596 0.0
C3270 C 0.42112 0.51202 0.2997 0.0
C3271 C 0.42702 0.52182 0.31836 0.0
C3272 C 0.44904 0.53848 0.41542 0.0
C3273 C 0.47118 0.56091 0.35188 0.0
C3274 C 0.46074 0.55352 0.36047 0.0
C3275 C 0.43627 0.525 0.34666 0.0
C3276 C 0.44326 0.53549 0.35771 0.0
H3277 H 0.48599 0.58314 0.28096 0.0
H3278 H 0.4688 0.5723 0.31204 0.0
H3279 H 0.46247 0.54925 0.4597 0.0
H3280 H 0.43639 0.50353 0.3446 0.0
H3281 H 0.4466 0.52051 0.37763 0.0
C3282 C 0.48236 0.90676 0.30334 0.0
C3283 C 0.48926 0.91672 0.31197 0.0
C3284 C 0.47258 0.90316 0.32138 0.0
C3285 C 0.45621 0.90947 0.41472 0.0
H3286 H 0.43955 0.90003 0.25886 0.0
C3287 C 0.43156 0.92367 0.33575 0.0
C3288 C 0.4224 0.91756 0.30673 0.0
C3289 C 0.43749 0.91993 0.35516 0.0
C3290 C 0.44395 0.90235 0.30368 0.0
H3291 H 0.49157 0.93055 0.35042 0.0
H3292 H 0.47465 0.9243 0.38222 0.0
H3293 H 0.45485 0.89976 0.26083 0.0
H3294 H 0.4121 0.90268 0.27702 0.0
H3295 H 0.42276 0.89615 0.30902 0.0
H3296 H 0.44571 0.91287 0.45505 0.0
C3297 C 0.4767 0.91925 0.36155 0.0
C3298 C 0.45272 0.9022 0.30484 0.0
C3299 C 0.48638 0.92286 0.34252 0.0
C3300 C 0.41915 0.90754 0.29922 0.0
C3301 C 0.42521 0.90381 0.31756 0.0
C3302 C 0.44747 0.90964 0.4135 0.0
C3303 C 0.46965 0.90943 0.34972 0.0
C3304 C 0.45921 0.90636 0.35856 0.0
C3305 C 0.43447 0.91001 0.3452 0.0
C3306 C 0.4416 0.90668 0.35619 0.0
H3307 H 0.48442 0.90188 0.27995 0.0
H3308 H 0.46726 0.89557 0.31152 0.0
H3309 H 0.46102 0.91256 0.45721 0.0
H3310 H 0.43421 0.9314 0.3428 0.0
H3311 H 0.44467 0.92492 0.37522 0.0
C3312 C 0.56294 0.07375 0.65284 0.0
C3313 C 0.57193 0.07991 0.68376 0.0
C3314 C 0.55695 0.07737 0.63226 0.0
C3315 C 0.55004 0.09461 0.68479 0.0
H3316 H 0.5326 0.08369 0.53363 0.0
C3317 C 0.51123 0.08936 0.68695 0.0
C3318 C 0.50445 0.07933 0.68015 0.0
C3319 C 0.52101 0.09306 0.66857 0.0
C3320 C 0.53751 0.08698 0.57541 0.0
H3321 H 0.58194 0.0948 0.71491 0.0
H3322 H 0.5712 0.10112 0.68063 0.0
H3323 H 0.54817 0.08392 0.53398 0.0
H3324 H 0.50237 0.06544 0.64495 0.0
H3325 H 0.51931 0.07186 0.61244 0.0
H3326 H 0.539 0.09692 0.7286 0.0
C3327 C 0.5689 0.09351 0.67168 0.0
C3328 C 0.5464 0.08711 0.57562 0.0
C3329 C 0.57502 0.0899 0.69128 0.0
C3330 C 0.50746 0.07318 0.65141 0.0
C3331 C 0.51714 0.07689 0.63197 0.0
C3332 C 0.54113 0.09449 0.68452 0.0
C3333 C 0.55975 0.08722 0.64286 0.0
C3334 C 0.55243 0.09032 0.63222 0.0
C3335 C 0.52406 0.08681 0.64165 0.0
C3336 C 0.53453 0.09008 0.63171 0.0
H3337 H 0.56042 0.06605 0.64573 0.0
H3338 H 0.54987 0.0723 0.61128 0.0
H3339 H 0.55453 0.09712 0.72911 0.0
H3340 H 0.50907 0.09426 0.70894 0.0
H3341 H 0.52623 0.10072 0.67682 0.0
C3342 C 0.90405 0.42214 0.69125 0.0
C3343 C 0.91401 0.42524 0.68197 0.0
C3344 C 0.90031 0.42815 0.67172 0.0
C3345 C 0.8992 0.44704 0.68345 0.0
H3346 H 0.90924 0.4638 0.52838 0.0
C3347 C 0.92091 0.48929 0.64394 0.0
C3348 C 0.91516 0.49254 0.67596 0.0
C3349 C 0.91684 0.47959 0.62418 0.0
C3350 C 0.90618 0.45907 0.57129 0.0
H3351 H 0.92769 0.43667 0.64105 0.0
H3352 H 0.9212 0.44704 0.60663 0.0
H3353 H 0.90906 0.44824 0.53039 0.0
H3354 H 0.90054 0.48834 0.70975 0.0
H3355 H 0.89343 0.4711 0.67708 0.0
H3356 H 0.89715 0.45826 0.72675 0.0
C3357 C 0.91626 0.44002 0.62896 0.0
C3358 C 0.90608 0.45019 0.57245 0.0
C3359 C 0.92001 0.43414 0.6495 0.0
C3360 C 0.90512 0.48599 0.6852 0.0
C3361 C 0.90106 0.47617 0.66651 0.0
C3362 C 0.89931 0.45594 0.6823 0.0
C3363 C 0.90643 0.4372 0.6412 0.0
C3364 C 0.90322 0.44443 0.63031 0.0
C3365 C 0.90694 0.47286 0.63685 0.0
C3366 C 0.90344 0.46232 0.62801 0.0
H3367 H 0.89927 0.41529 0.7161 0.0
H3368 H 0.89273 0.42585 0.68198 0.0
H3369 H 0.89695 0.44274 0.72871 0.0
H3370 H 0.92864 0.49422 0.63558 0.0
H3371 H 0.9216 0.47723 0.60248 0.0
C3372 C 0.56279 0.48803 0.65992 0.0
C3373 C 0.57182 0.49091 0.69045 0.0
C3374 C 0.55679 0.47839 0.63996 0.0
C3375 C 0.55004 0.45427 0.69308 0.0
H3376 H 0.53256 0.44751 0.54193 0.0
C3377 C 0.51147 0.4203 0.69475 0.0
C3378 C 0.50456 0.42338 0.68757 0.0
C3379 C 0.52124 0.42653 0.67678 0.0
C3380 C 0.53749 0.4492 0.58373 0.0
H3381 H 0.58188 0.48608 0.72161 0.0
H3382 H 0.57113 0.46899 0.68833 0.0
H3383 H 0.54801 0.46298 0.54223 0.0
H3384 H 0.50227 0.43506 0.65217 0.0
H3385 H 0.51919 0.44582 0.62047 0.0
H3386 H 0.53914 0.44086 0.73693 0.0
C3387 C 0.56881 0.47428 0.67926 0.0
C3388 C 0.54631 0.45804 0.58392 0.0
C3389 C 0.57493 0.48403 0.69828 0.0
C3390 C 0.50746 0.43254 0.65898 0.0
C3391 C 0.51712 0.43864 0.63997 0.0
C3392 C 0.5412 0.44541 0.69285 0.0
C3393 C 0.55963 0.47136 0.65077 0.0
C3394 C 0.55234 0.46092 0.64045 0.0
C3395 C 0.52415 0.4358 0.64989 0.0
C3396 C 0.53459 0.44312 0.64003 0.0
H3397 H 0.56026 0.4932 0.6526 0.0
H3398 H 0.54969 0.47633 0.61921 0.0
H3399 H 0.55455 0.45631 0.73735 0.0
H3400 H 0.5094 0.41326 0.7166 0.0
H3401 H 0.52655 0.42421 0.68522 0.0
C3402 C 0.73817 0.84062 0.65132 0.0
C3403 C 0.74439 0.83778 0.62155 0.0
C3404 C 0.7417 0.8503 0.66992 0.0
C3405 C 0.7587 0.87449 0.61659 0.0
H3406 H 0.74866 0.88112 0.77213 0.0
C3407 C 0.75442 0.90871 0.62496 0.0
C3408 C 0.74451 0.90574 0.63526 0.0
C3409 C 0.75793 0.90233 0.63946 0.0
C3410 C 0.75169 0.87946 0.72903 0.0
H3411 H 0.75927 0.84274 0.58959 0.0
H3412 H 0.76541 0.85991 0.62033 0.0
H3413 H 0.7486 0.86563 0.76881 0.0
H3414 H 0.73066 0.89409 0.67238 0.0
H3415 H 0.73674 0.88307 0.69808 0.0
H3416 H 0.76104 0.88795 0.57461 0.0
C3417 C 0.75783 0.85455 0.62998 0.0
C3418 C 0.75166 0.87061 0.72714 0.0
C3419 C 0.75432 0.84476 0.61241 0.0
C3420 C 0.7383 0.89653 0.66326 0.0
C3421 C 0.74182 0.89027 0.67881 0.0
C3422 C 0.75873 0.88335 0.61848 0.0
C3423 C 0.75151 0.85739 0.65844 0.0
C3424 C 0.75459 0.8678 0.66927 0.0
C3425 C 0.75161 0.89302 0.66596 0.0
C3426 C 0.75465 0.8856 0.67306 0.0
H3427 H 0.73051 0.83538 0.65961 0.0
H3428 H 0.73661 0.85231 0.69067 0.0
H3429 H 0.76099 0.87248 0.57134 0.0
H3430 H 0.75936 0.91579 0.60346 0.0
H3431 H 0.76549 0.90458 0.62882 0.0
C3432 C 0.09966 0.84086 0.66576 0.0
C3433 C 0.09045 0.83788 0.63776 0.0
C3434 C 0.10566 0.85052 0.68549 0.0
C3435 C 0.11218 0.87469 0.63733 0.0
H3436 H 0.12911 0.88115 0.79131 0.0
C3437 C 0.15055 0.90881 0.64154 0.0
C3438 C 0.15746 0.90576 0.64945 0.0
C3439 C 0.14074 0.90253 0.65868 0.0
C3440 C 0.12434 0.87954 0.74872 0.0
H3441 H 0.08016 0.84256 0.60993 0.0
H3442 H 0.09093 0.8597 0.64248 0.0
H3443 H 0.11383 0.86553 0.78732 0.0
H3444 H 0.15978 0.89414 0.68571 0.0
H3445 H 0.14282 0.8833 0.71604 0.0
H3446 H 0.1231 0.88831 0.59615 0.0
C3447 C 0.09336 0.85446 0.64999 0.0
C3448 C 0.11561 0.87062 0.74646 0.0
C3449 C 0.08724 0.84469 0.63134 0.0
C3450 C 0.15457 0.89663 0.67841 0.0
C3451 C 0.14488 0.89047 0.69659 0.0
C3452 C 0.12093 0.88362 0.63953 0.0
C3453 C 0.10265 0.85745 0.67688 0.0
C3454 C 0.10979 0.86787 0.68895 0.0
C3455 C 0.13782 0.89324 0.68545 0.0
C3456 C 0.12737 0.88581 0.69341 0.0
H3457 H 0.10228 0.83575 0.67195 0.0
H3458 H 0.11285 0.85265 0.70494 0.0
H3459 H 0.10781 0.87273 0.59239 0.0
H3460 H 0.15262 0.91583 0.61934 0.0
H3461 H 0.13542 0.9048 0.64937 0.0
C3462 C 0.14974 0.24319 0.61298 0.0
C3463 C 0.15789 0.2509 0.64414 0.0
C3464 C 0.14031 0.24118 0.6299 0.0
C3465 C 0.12928 0.25518 0.69204 0.0
H3466 H 0.10483 0.23064 0.6782 0.0
C3467 C 0.09412 0.25606 0.6976 0.0
C3468 C 0.08775 0.25111 0.64487 0.0
C3469 C 0.10128 0.25382 0.71565 0.0
C3470 C 0.11162 0.23753 0.68239 0.0
H3471 H 0.16278 0.26189 0.7214 0.0
H3472 H 0.14637 0.2581 0.75342 0.0
H3473 H 0.12038 0.23063 0.67782 0.0
H3474 H 0.0833 0.23954 0.57225 0.0
H3475 H 0.0962 0.23588 0.60154 0.0
H3476 H 0.12076 0.26216 0.69376 0.0
C3477 C 0.14716 0.25385 0.71422 0.0
C3478 C 0.1205 0.23753 0.68213 0.0
C3479 C 0.15654 0.25599 0.69624 0.0
C3480 C 0.08817 0.24341 0.61324 0.0
C3481 C 0.09551 0.2413 0.63031 0.0
C3482 C 0.12049 0.25517 0.69236 0.0
C3483 C 0.13898 0.24679 0.67885 0.0
C3484 C 0.12943 0.24639 0.68626 0.0
C3485 C 0.10241 0.2468 0.67977 0.0
C3486 C 0.11155 0.24639 0.68683 0.0
H3487 H 0.15069 0.2392 0.57254 0.0
H3488 H 0.13417 0.23573 0.60153 0.0
H3489 H 0.136 0.26217 0.69321 0.0
H3490 H 0.09381 0.26196 0.723 0.0
H3491 H 0.10631 0.258 0.75517 0.0
C3492 C 0.1046 0.2996 0.6927 0.0
C3493 C 0.09506 0.29432 0.71877 0.0
C3494 C 0.11169 0.30809 0.72417 0.0
C3495 C 0.12056 0.32935 0.76575 0.0
H3496 H 0.12221 0.3335 0.95649 0.0
C3497 C 0.12681 0.36467 0.88804 0.0
C3498 C 0.13178 0.36763 0.9491 0.0
C3499 C 0.12539 0.35616 0.8569 0.0
C3500 C 0.12203 0.33247 0.90312 0.0
H3501 H 0.08577 0.29335 0.80143 0.0
H3502 H 0.09811 0.30815 0.85592 0.0
H3503 H 0.11405 0.31688 0.91268 0.0
H3504 H 0.13985 0.36437 0.02256 0.0
H3505 H 0.13733 0.3495 0.96801 0.0
H3506 H 0.1282 0.34495 0.75618 0.0
C3507 C 0.10011 0.30575 0.81121 0.0
C3508 C 0.11727 0.32295 0.8781 0.0
C3509 C 0.09301 0.29729 0.77963 0.0
C3510 C 0.13589 0.36226 0.9759 0.0
C3511 C 0.13443 0.35372 0.94484 0.0
C3512 C 0.1253 0.33888 0.79078 0.0
C3513 C 0.10942 0.31142 0.78257 0.0
C3514 C 0.11617 0.3213 0.80918 0.0
C3515 C 0.1289 0.35042 0.88614 0.0
C3516 C 0.12576 0.34053 0.85967 0.0
H3517 H 0.10647 0.29748 0.64616 0.0
H3518 H 0.11884 0.31226 0.70147 0.0
H3519 H 0.11979 0.32833 0.71236 0.0
H3520 H 0.12361 0.36867 0.8657 0.0
H3521 H 0.12102 0.35377 0.81196 0.0
C3522 C 0.62772 0.76562 0.87796 0.0
C3523 C 0.62769 0.76511 0.94757 0.0
C3524 C 0.6361 0.77248 0.84422 0.0
C3525 C 0.66181 0.79338 0.87152 0.0
H3526 H 0.66663 0.78287 0.71085 0.0
C3527 C 0.69882 0.79934 0.76806 0.0
C3528 C 0.70062 0.80184 0.70036 0.0
C3529 C 0.69007 0.79763 0.79739 0.0
C3530 C 0.66532 0.78596 0.75515 0.0
H3531 H 0.6362 0.77151 0.03686 0.0
H3532 H 0.65097 0.78297 0.97865 0.0
H3533 H 0.65059 0.7744 0.76172 0.0
H3534 H 0.69494 0.8051 0.6115 0.0
H3535 H 0.67956 0.80178 0.66251 0.0
H3536 H 0.67699 0.80446 0.86698 0.0
C3537 C 0.64449 0.77846 0.9494 0.0
C3538 C 0.65608 0.78116 0.78426 0.0
C3539 C 0.63602 0.77181 0.98305 0.0
C3540 C 0.69379 0.80319 0.66378 0.0
C3541 C 0.68499 0.8013 0.69276 0.0
C3542 C 0.67115 0.79803 0.84319 0.0
C3543 C 0.64475 0.77872 0.87937 0.0
C3544 C 0.65421 0.78467 0.84367 0.0
C3545 C 0.68297 0.79825 0.75917 0.0
C3546 C 0.67298 0.79425 0.78535 0.0
H3547 H 0.62132 0.76059 0.84961 0.0
H3548 H 0.63587 0.77265 0.79046 0.0
H3549 H 0.66064 0.79648 0.91621 0.0
H3550 H 0.70396 0.79829 0.79757 0.0
H3551 H 0.68859 0.79521 0.84866 0.0
C3552 C 0.18921 0.8882 0.69767 0.0
C3553 C 0.19363 0.89775 0.72374 0.0
C3554 C 0.19063 0.88105 0.72825 0.0
C3555 C 0.20011 0.87528 0.88028 0.0
H3556 H 0.21086 0.86428 0.75623 0.0
C3557 C 0.22071 0.85631 0.97404 0.0
C3558 C 0.2302 0.86056 0.94727 0.0
C3559 C 0.21359 0.85779 0.94367 0.0
C3560 C 0.20777 0.86719 0.79142 0.0
H3561 H 0.20229 0.90701 0.80551 0.0
H3562 H 0.20475 0.89457 0.85862 0.0
H3563 H 0.20269 0.87284 0.71404 0.0
H3564 H 0.23939 0.86898 0.86451 0.0
H3565 H 0.227 0.87154 0.81174 0.0
H3566 H 0.20573 0.87016 0.95763 0.0
C3567 C 0.2002 0.8926 0.81455 0.0
C3568 C 0.20301 0.87202 0.76733 0.0
C3569 C 0.19886 0.89976 0.78376 0.0
C3570 C 0.23218 0.86567 0.88678 0.0
C3571 C 0.22505 0.86708 0.8562 0.0
C3572 C 0.20482 0.87041 0.90438 0.0
C3573 C 0.19639 0.88328 0.78585 0.0
C3574 C 0.19948 0.87644 0.81152 0.0
C3575 C 0.21579 0.86345 0.8856 0.0
C3576 C 0.20903 0.86665 0.86015 0.0
H3577 H 0.1851 0.88637 0.65167 0.0
H3578 H 0.18752 0.8739 0.70548 0.0
H3579 H 0.19737 0.87853 0.91545 0.0
H3580 H 0.21892 0.85229 0.02044 0.0
H3581 H 0.20648 0.85482 0.96699 0.0
C3582 C 0.29573 0.09835 0.22347 0.0
C3583 C 0.29384 0.09866 0.29149 0.0
C3584 C 0.30458 0.10546 0.19581 0.0
C3585 C 0.32918 0.11754 0.23957 0.0
H3586 H 0.33463 0.13404 0.08444 0.0
C3587 C 0.36671 0.1341 0.11636 0.0
C3588 C 0.36673 0.13411 0.04664 0.0
C3589 C 0.35847 0.13275 0.15124 0.0
C3590 C 0.33324 0.1294 0.12745 0.0
H3591 H 0.29947 0.10697 0.38286 0.0
H3592 H 0.31505 0.11915 0.33468 0.0
H3593 H 0.31824 0.12591 0.13305 0.0
H3594 H 0.35839 0.13306 0.95845 0.0
H3595 H 0.34384 0.13006 0.0184 0.0
H3596 H 0.3437 0.12011 0.23152 0.0
C3597 C 0.30961 0.11351 0.30289 0.0
C3598 C 0.32388 0.12485 0.15549 0.0
C3599 C 0.30069 0.10654 0.33025 0.0
C3600 C 0.35857 0.13315 0.01235 0.0
C3601 C 0.35023 0.1315 0.04703 0.0
C3602 C 0.33843 0.12184 0.21064 0.0
C3603 C 0.31171 0.11285 0.23602 0.0
C3604 C 0.32178 0.11878 0.2111 0.0
C3605 C 0.34996 0.13102 0.11703 0.0
C3606 C 0.34056 0.12768 0.15323 0.0
H3607 H 0.29057 0.09239 0.19237 0.0
H3608 H 0.30613 0.1048 0.14415 0.0
H3609 H 0.32764 0.11277 0.28209 0.0
H3610 H 0.37299 0.13495 0.14384 0.0
H3611 H 0.35871 0.13277 0.20505 0.0
C3612 C 0.85815 0.22357 0.01287 0.0
C3613 C 0.85994 0.23198 0.04845 0.0
C3614 C 0.8597 0.21648 0.04262 0.0
C3615 C 0.86274 0.20612 0.19555 0.0
H3616 H 0.8851 0.20691 0.10958 0.0
C3617 C 0.88844 0.19629 0.33327 0.0
C3618 C 0.89465 0.19405 0.297 0.0
C3619 C 0.88178 0.19819 0.30037 0.0
C3620 C 0.87866 0.20627 0.1335 0.0
H3621 H 0.86395 0.23915 0.14469 0.0
H3622 H 0.86647 0.22658 0.19709 0.0
H3623 H 0.87722 0.21505 0.05828 0.0
H3624 H 0.8982 0.19107 0.19902 0.0
H3625 H 0.88607 0.19364 0.14154 0.0
H3626 H 0.86404 0.19725 0.27053 0.0
C3627 C 0.86396 0.22558 0.14602 0.0
C3628 C 0.87421 0.21104 0.1041 0.0
C3629 C 0.86259 0.23278 0.11591 0.0
C3630 C 0.89355 0.19292 0.22785 0.0
C3631 C 0.88667 0.1945 0.19504 0.0
C3632 C 0.86703 0.20111 0.22428 0.0
C3633 C 0.86286 0.21756 0.10882 0.0
C3634 C 0.86641 0.21123 0.13579 0.0
C3635 C 0.88101 0.19763 0.2305 0.0
C3636 C 0.87528 0.20139 0.19478 0.0
H3637 H 0.85611 0.22272 0.96082 0.0
H3638 H 0.85884 0.21035 0.01313 0.0
H3639 H 0.85668 0.20616 0.22052 0.0
H3640 H 0.88921 0.19728 0.38672 0.0
H3641 H 0.87771 0.20069 0.32979 0.0
C3642 C 0.76509 0.62895 0.11523 0.0
C3643 C 0.76573 0.62713 0.04751 0.0
C3644 C 0.77202 0.63781 0.14393 0.0
C3645 C 0.78413 0.66242 0.1011 0.0
H3646 H 0.80023 0.66797 0.25847 0.0
C3647 C 0.80051 0.70008 0.22219 0.0
C3648 C 0.80039 0.7002 0.29188 0.0
C3649 C 0.79919 0.69178 0.18825 0.0
C3650 C 0.7957 0.66655 0.21484 0.0
H3651 H 0.77449 0.63289 0.95793 0.0
H3652 H 0.78634 0.64845 0.00787 0.0
H3653 H 0.79226 0.65156 0.21012 0.0
H3654 H 0.79912 0.69195 0.38107 0.0
H3655 H 0.79616 0.6773 0.32266 0.0
H3656 H 0.78666 0.67694 0.10804 0.0
C3657 C 0.78058 0.64296 0.03863 0.0
C3658 C 0.79124 0.65718 0.18698 0.0
C3659 C 0.77378 0.63405 0.01027 0.0
C3660 C 0.79932 0.69206 0.32717 0.0
C3661 C 0.79769 0.68366 0.29339 0.0
C3662 C 0.78834 0.67168 0.1298 0.0
C3663 C 0.77957 0.64499 0.10505 0.0
C3664 C 0.78533 0.65505 0.13047 0.0
C3665 C 0.79734 0.6833 0.22337 0.0
C3666 C 0.79405 0.67385 0.1879 0.0
H3667 H 0.759 0.62374 0.14521 0.0
H3668 H 0.77109 0.6393 0.19522 0.0
H3669 H 0.77948 0.66087 0.05785 0.0
H3670 H 0.80144 0.70634 0.19398 0.0
H3671 H 0.79931 0.69195 0.13443 0.0
C3672 C 0.89878 0.702 0.20725 0.0
C3673 C 0.89859 0.70231 0.27689 0.0
C3674 C 0.89191 0.69366 0.17309 0.0
C3675 C 0.86973 0.66868 0.19871 0.0
H3676 H 0.88115 0.66215 0.05064 0.0
C3677 C 0.8643 0.63107 0.10769 0.0
C3678 C 0.86118 0.62876 0.04131 0.0
C3679 C 0.86604 0.63992 0.13525 0.0
C3680 C 0.87783 0.66396 0.09137 0.0
H3681 H 0.89092 0.69437 0.36552 0.0
H3682 H 0.87942 0.67967 0.30704 0.0
H3683 H 0.88987 0.67844 0.09804 0.0
H3684 H 0.85683 0.63363 0.95328 0.0
H3685 H 0.86025 0.64924 0.00115 0.0
H3686 H 0.85809 0.65371 0.19467 0.0
C3687 C 0.88452 0.68591 0.27779 0.0
C3688 C 0.88277 0.67333 0.11837 0.0
C3689 C 0.89119 0.69434 0.31165 0.0
C3690 C 0.8592 0.63517 0.00462 0.0
C3691 C 0.86114 0.6441 0.0318 0.0
C3692 C 0.86491 0.6592 0.1726 0.0
C3693 C 0.88494 0.68533 0.20809 0.0
C3694 C 0.87891 0.6758 0.17341 0.0
C3695 C 0.86483 0.64662 0.09654 0.0
C3696 C 0.86903 0.65678 0.11944 0.0
H3697 H 0.90436 0.70813 0.17934 0.0
H3698 H 0.8923 0.69366 0.11934 0.0
H3699 H 0.86638 0.67032 0.23991 0.0
H3700 H 0.86584 0.62625 0.13721 0.0
H3701 H 0.86899 0.64183 0.18519 0.0
C3702 C 0.36162 0.22162 0.01863 0.0
C3703 C 0.36682 0.23094 0.048 0.0
C3704 C 0.35309 0.21426 0.04817 0.0
C3705 C 0.33788 0.2075 0.20124 0.0
H3706 H 0.31618 0.19753 0.0771 0.0
C3707 C 0.29647 0.1987 0.21057 0.0
C3708 C 0.29332 0.19344 0.2705 0.0
C3709 C 0.30493 0.20002 0.17915 0.0
C3710 C 0.32216 0.20016 0.11228 0.0
H3711 H 0.36759 0.23955 0.13439 0.0
H3712 H 0.35273 0.22677 0.18546 0.0
H3713 H 0.3329 0.20615 0.03518 0.0
H3714 H 0.29616 0.18477 0.34144 0.0
H3715 H 0.31095 0.18714 0.28642 0.0
H3716 H 0.32715 0.2021 0.27852 0.0
C3717 C 0.35523 0.22513 0.13968 0.0
C3718 C 0.33174 0.20501 0.0883 0.0
C3719 C 0.36373 0.23249 0.11007 0.0
C3720 C 0.29842 0.18894 0.29564 0.0
C3721 C 0.30692 0.19031 0.26433 0.0
C3722 C 0.3283 0.20263 0.22521 0.0
C3723 C 0.34964 0.21605 0.10786 0.0
C3724 C 0.33969 0.20908 0.13268 0.0
C3725 C 0.31043 0.19614 0.20701 0.0
C3726 C 0.32035 0.19926 0.18105 0.0
H3727 H 0.36383 0.22013 0.97109 0.0
H3728 H 0.34899 0.20729 0.02299 0.0
H3729 H 0.34386 0.21046 0.23653 0.0
H3730 H 0.29268 0.20219 0.18947 0.0
H3731 H 0.30748 0.20462 0.13531 0.0
C3732 C 0.77392 0.13812 0.01166 0.0
C3733 C 0.76481 0.13446 0.04339 0.0
C3734 C 0.78124 0.13677 0.03997 0.0
C3735 C 0.78836 0.12864 0.19293 0.0
H3736 H 0.79669 0.11539 0.06912 0.0
C3737 C 0.80574 0.1067 0.28789 0.0
C3738 C 0.80073 0.09696 0.26512 0.0
C3739 C 0.80464 0.11391 0.25548 0.0
C3740 C 0.79453 0.11917 0.10416 0.0
H3741 H 0.75656 0.1273 0.13251 0.0
H3742 H 0.76927 0.1249 0.18151 0.0
H3743 H 0.78849 0.12392 0.02742 0.0
H3744 H 0.79132 0.08738 0.18701 0.0
H3745 H 0.78934 0.09992 0.13105 0.0
H3746 H 0.79379 0.12332 0.27007 0.0
C3747 C 0.77079 0.12882 0.13482 0.0
C3748 C 0.78992 0.12415 0.08028 0.0
C3749 C 0.76346 0.13012 0.10641 0.0
C3750 C 0.79521 0.09478 0.20631 0.0
C3751 C 0.79414 0.102 0.17383 0.0
C3752 C 0.793 0.12369 0.21679 0.0
C3753 C 0.77961 0.13181 0.10077 0.0
C3754 C 0.78643 0.12858 0.1247 0.0
C3755 C 0.79856 0.11156 0.19945 0.0
C3756 C 0.79576 0.11856 0.17286 0.0
H3757 H 0.77525 0.14157 0.96326 0.0
H3758 H 0.78802 0.13924 0.01304 0.0
H3759 H 0.78585 0.1321 0.22819 0.0
H3760 H 0.81014 0.10867 0.33266 0.0
H3761 H 0.80824 0.12125 0.27579 0.0
C3762 C 0.69874 0.89747 0.78176 0.0
C3763 C 0.70053 0.89724 0.71348 0.0
C3764 C 0.68993 0.89033 0.80972 0.0
C3765 C 0.66522 0.87807 0.76541 0.0
H3766 H 0.66002 0.86232 0.92425 0.0
C3767 C 0.62778 0.86184 0.88918 0.0
C3768 C 0.62781 0.86217 0.95884 0.0
C3769 C 0.63601 0.86307 0.85481 0.0
C3770 C 0.66134 0.86674 0.88017 0.0
H3771 H 0.69479 0.88898 0.62199 0.0
H3772 H 0.6793 0.87675 0.67072 0.0
H3773 H 0.67638 0.87035 0.87512 0.0
H3774 H 0.63623 0.8637 0.0476 0.0
H3775 H 0.65078 0.86652 0.98835 0.0
H3776 H 0.65066 0.8754 0.77274 0.0
C3777 C 0.68477 0.88237 0.70245 0.0
C3778 C 0.67068 0.87124 0.85185 0.0
C3779 C 0.69364 0.88937 0.67476 0.0
C3780 C 0.63602 0.86335 0.99373 0.0
C3781 C 0.64436 0.86489 0.95948 0.0
C3782 C 0.65599 0.87382 0.79455 0.0
C3783 C 0.68275 0.88297 0.76958 0.0
C3784 C 0.6727 0.87705 0.7949 0.0
C3785 C 0.64457 0.86503 0.88942 0.0
C3786 C 0.65395 0.86827 0.85326 0.0
H3787 H 0.70393 0.9034 0.81288 0.0
H3788 H 0.68845 0.89096 0.86158 0.0
H3789 H 0.66668 0.88265 0.72187 0.0
H3790 H 0.62146 0.86081 0.86131 0.0
H3791 H 0.63573 0.86279 0.80102 0.0
C3792 C 0.13047 0.76372 0.87631 0.0
C3793 C 0.13571 0.76569 0.93622 0.0
C3794 C 0.12929 0.77097 0.84535 0.0
C3795 C 0.12944 0.78828 0.77958 0.0
H3796 H 0.11942 0.79981 0.90501 0.0
C3797 C 0.10825 0.80666 0.68792 0.0
C3798 C 0.09894 0.80256 0.71745 0.0
C3799 C 0.11559 0.80543 0.71713 0.0
C3800 C 0.1223 0.79675 0.8694 0.0
H3801 H 0.14451 0.77708 0.00756 0.0
H3802 H 0.14241 0.78971 0.95334 0.0
H3803 H 0.12761 0.79123 0.9461 0.0
H3804 H 0.09035 0.79472 0.80387 0.0
H3805 H 0.10309 0.79253 0.85437 0.0
H3806 H 0.12353 0.7932 0.70306 0.0
C3807 C 0.13912 0.78252 0.93092 0.0
C3808 C 0.12708 0.79192 0.89285 0.0
C3809 C 0.14035 0.77527 0.96178 0.0
C3810 C 0.0974 0.79789 0.77942 0.0
C3811 C 0.10475 0.7967 0.80872 0.0
C3812 C 0.12468 0.79314 0.75613 0.0
C3813 C 0.13331 0.78035 0.87364 0.0
C3814 C 0.13033 0.78729 0.84825 0.0
C3815 C 0.1138 0.80014 0.77666 0.0
C3816 C 0.12071 0.79706 0.80093 0.0
H3817 H 0.12687 0.75645 0.8549 0.0
H3818 H 0.12469 0.76904 0.80154 0.0
H3819 H 0.13198 0.78489 0.74407 0.0
H3820 H 0.10974 0.81038 0.64043 0.0
H3821 H 0.12255 0.80826 0.69177 0.0
C3822 C 0.22599 0.35956 0.98309 0.0
C3823 C 0.23355 0.36762 0.94999 0.0
C3824 C 0.21925 0.35138 0.94744 0.0
C3825 C 0.21734 0.33948 0.78493 0.0
H3826 H 0.19232 0.32005 0.85802 0.0
C3827 C 0.1937 0.30187 0.66486 0.0
C3828 C 0.19447 0.29488 0.7039 0.0
C3829 C 0.19601 0.31091 0.69177 0.0
C3830 C 0.19924 0.32548 0.83683 0.0
H3831 H 0.23956 0.37385 0.85367 0.0
H3832 H 0.2274 0.35981 0.79063 0.0
H3833 H 0.20095 0.33644 0.90655 0.0
H3834 H 0.19741 0.29155 0.80298 0.0
H3835 H 0.20119 0.30735 0.85045 0.0
H3836 H 0.21548 0.32848 0.71477 0.0
C3837 C 0.22693 0.35956 0.84437 0.0
C3838 C 0.20425 0.33483 0.86482 0.0
C3839 C 0.23386 0.36765 0.8803 0.0
C3840 C 0.19681 0.29681 0.77171 0.0
C3841 C 0.19891 0.3058 0.79893 0.0
C3842 C 0.21221 0.33024 0.756 0.0
C3843 C 0.21975 0.35115 0.87759 0.0
C3844 C 0.21355 0.34185 0.84078 0.0
C3845 C 0.19886 0.31301 0.75847 0.0
C3846 C 0.20328 0.32311 0.78296 0.0
H3847 H 0.22563 0.35933 0.03695 0.0
H3848 H 0.214 0.34505 0.97532 0.0
H3849 H 0.22452 0.34452 0.76547 0.0
H3850 H 0.19196 0.30062 0.61238 0.0
H3851 H 0.196 0.31643 0.65982 0.0
C3852 C 0.03152 0.46531 0.44849 0.0
C3853 C 0.03389 0.47032 0.38747 0.0
C3854 C 0.02273 0.46282 0.48018 0.0
C3855 C 0.00091 0.45028 0.48579 0.0
H3856 H 0.98749 0.4649 0.51522 0.0
C3857 C 0.96062 0.42984 0.54457 0.0
C3858 C 0.9583 0.43248 0.60581 0.0
C3859 C 0.96938 0.43614 0.51255 0.0
C3860 C 0.99118 0.46076 0.50698 0.0
H3861 H 0.02939 0.47754 0.31547 0.0
H3862 H 0.01392 0.47306 0.37094 0.0
H3863 H 0.00465 0.47348 0.47782 0.0
H3864 H 0.96287 0.4442 0.6779 0.0
H3865 H 0.97828 0.45519 0.62188 0.0
H3866 H 0.98761 0.4376 0.51429 0.0
C3867 C 0.0189 0.47109 0.39404 0.0
C3868 C 0.00095 0.46565 0.4857 0.0
C3869 C 0.02774 0.47363 0.36226 0.0
C3870 C 0.96447 0.44194 0.63094 0.0
C3871 C 0.97328 0.44825 0.59885 0.0
C3872 C 0.99119 0.44542 0.50603 0.0
C3873 C 0.01612 0.46525 0.45145 0.0
C3874 C 0.0059 0.46043 0.47554 0.0
C3875 C 0.97601 0.44519 0.54118 0.0
C3876 C 0.98621 0.45058 0.51677 0.0
H3877 H 0.03619 0.46282 0.46991 0.0
H3878 H 0.02083 0.45847 0.52521 0.0
H3879 H 0.00448 0.44604 0.47724 0.0
H3880 H 0.95594 0.42268 0.52321 0.0
H3881 H 0.97123 0.4337 0.46734 0.0
C3882 C 0.56784 0.53356 0.555 0.0
C3883 C 0.56512 0.52828 0.61497 0.0
C3884 C 0.56145 0.53592 0.52315 0.0
C3885 C 0.55154 0.54792 0.52055 0.0
H3886 H 0.52388 0.53264 0.47906 0.0
C3887 C 0.53106 0.56753 0.45844 0.0
C3888 C 0.52695 0.56535 0.39441 0.0
C3889 C 0.53336 0.56113 0.49071 0.0
C3890 C 0.53159 0.53695 0.49078 0.0
H3891 H 0.55318 0.52044 0.68469 0.0
H3892 H 0.54203 0.52468 0.6288 0.0
H3893 H 0.53272 0.52434 0.51727 0.0
H3894 H 0.52102 0.55427 0.31715 0.0
H3895 H 0.52518 0.54311 0.37363 0.0
H3896 H 0.55056 0.56049 0.49475 0.0
C3897 C 0.54912 0.52697 0.60677 0.0
C3898 C 0.53662 0.53223 0.51249 0.0
C3899 C 0.55552 0.52458 0.63879 0.0
C3900 C 0.52424 0.55618 0.36632 0.0
C3901 C 0.52659 0.54977 0.39867 0.0
C3902 C 0.54653 0.5526 0.49999 0.0
C3903 C 0.55223 0.53306 0.55057 0.0
C3904 C 0.54667 0.5377 0.52677 0.0
C3905 C 0.53163 0.55245 0.45952 0.0
C3906 C 0.53653 0.5472 0.48484 0.0
H3907 H 0.57511 0.53636 0.53458 0.0
H3908 H 0.56395 0.54049 0.47913 0.0
H3909 H 0.55925 0.55232 0.53228 0.0
H3910 H 0.53306 0.57445 0.48198 0.0
H3911 H 0.53708 0.56327 0.53827 0.0
C3912 C 0.43004 0.965 0.44416 0.0
C3913 C 0.43146 0.96189 0.38176 0.0
C3914 C 0.4374 0.97359 0.47277 0.0
C3915 C 0.45698 0.99721 0.41869 0.0
H3916 H 0.46055 0.00204 0.60849 0.0
C3917 C 0.46298 0.03234 0.5418 0.0
C3918 C 0.46845 0.03563 0.60083 0.0
C3919 C 0.46173 0.02392 0.51008 0.0
C3920 C 0.45983 0.00083 0.55525 0.0
H3921 H 0.44206 0.96498 0.30308 0.0
H3922 H 0.45488 0.98002 0.35321 0.0
H3923 H 0.45234 0.98527 0.56732 0.0
H3924 H 0.47757 0.0331 0.66965 0.0
H3925 H 0.47533 0.0184 0.61413 0.0
H3926 H 0.46411 0.01275 0.4068 0.0
C3927 C 0.44802 0.97583 0.37948 0.0
C3928 C 0.45505 0.99122 0.53177 0.0
C3929 C 0.44067 0.96719 0.35098 0.0
C3930 C 0.47323 0.03073 0.62461 0.0
C3931 C 0.47193 0.02228 0.59301 0.0
C3932 C 0.46174 0.00681 0.44219 0.0
C3933 C 0.44634 0.97929 0.43956 0.0
C3934 C 0.45323 0.98931 0.46346 0.0
C3935 C 0.46589 0.01861 0.53673 0.0
C3936 C 0.46287 0.00871 0.51084 0.0
H3937 H 0.42307 0.96105 0.46954 0.0
H3938 H 0.43584 0.97609 0.51889 0.0
H3939 H 0.45565 0.99598 0.36576 0.0
H3940 H 0.45927 0.03597 0.52173 0.0
H3941 H 0.45697 0.02125 0.46707 0.0
C3942 C 0.55487 0.03014 0.63093 0.0
C3943 C 0.56436 0.03611 0.60564 0.0
C3944 C 0.54841 0.02135 0.59923 0.0
C3945 C 0.55086 0.00307 0.50918 0.0
H3946 H 0.52281 0.98991 0.48072 0.0
C3947 C 0.5226 0.96663 0.36667 0.0
C3948 C 0.52585 0.96046 0.39241 0.0
C3949 C 0.52509 0.97545 0.39846 0.0
C3950 C 0.53064 0.99353 0.48875 0.0
H3951 H 0.57406 0.0382 0.52293 0.0
H3952 H 0.56278 0.02293 0.46779 0.0
H3953 H 0.53162 0.00717 0.51604 0.0
H3954 H 0.5331 0.95805 0.47593 0.0
H3955 H 0.53736 0.97338 0.53129 0.0
H3956 H 0.55002 0.98961 0.48259 0.0
C3957 C 0.56042 0.02492 0.51282 0.0
C3958 C 0.53565 0.00336 0.50877 0.0
C3959 C 0.56687 0.03367 0.54443 0.0
C3960 C 0.53067 0.96275 0.45411 0.0
C3961 C 0.53311 0.97152 0.48584 0.0
C3962 C 0.54588 0.99331 0.49022 0.0
C3963 C 0.55135 0.01845 0.54182 0.0
C3964 C 0.54583 0.00821 0.51853 0.0
C3965 C 0.53081 0.97818 0.45642 0.0
C3966 C 0.53573 0.98842 0.4799 0.0
H3967 H 0.55268 0.03185 0.6778 0.0
H3968 H 0.54144 0.01648 0.62252 0.0
H3969 H 0.55868 0.00658 0.51751 0.0
H3970 H 0.51882 0.96504 0.31939 0.0
H3971 H 0.52321 0.98047 0.37484 0.0
C3972 C 0.96549 0.52255 0.63124 0.0
C3973 C 0.96052 0.52715 0.6055 0.0
C3974 C 0.97403 0.52389 0.60083 0.0
C3975 C 0.98972 0.53386 0.45082 0.0
H3976 H 0.01106 0.54464 0.578 0.0
C3977 C 0.02951 0.55592 0.36308 0.0
C3978 C 0.03439 0.56531 0.39177 0.0
C3979 C 0.02094 0.54848 0.39169 0.0
C3980 C 0.00518 0.54154 0.54193 0.0
H3981 H 0.9601 0.53597 0.52418 0.0
H3982 H 0.97495 0.53829 0.47134 0.0
H3983 H 0.99422 0.53597 0.61774 0.0
H3984 H 0.03455 0.57398 0.47605 0.0
H3985 H 0.01963 0.56103 0.5257 0.0
H3986 H 0.00068 0.54 0.37511 0.0
C3987 C 0.97228 0.53367 0.51503 0.0
C3988 C 0.99553 0.53649 0.56461 0.0
C3989 C 0.9638 0.53241 0.54566 0.0
C3990 C 0.03093 0.56687 0.45232 0.0
C3991 C 0.02241 0.55941 0.48112 0.0
C3992 C -0.00063 0.53887 0.42812 0.0
C3993 C 0.9777 0.52975 0.54375 0.0
C3994 C 0.98771 0.53296 0.51932 0.0
C3995 C 0.01714 0.55024 0.44988 0.0
C3996 C 0.00718 0.54311 0.47355 0.0
H3997 H 0.96313 0.51841 0.67712 0.0
H3998 H 0.97801 0.5207 0.6236 0.0
H3999 H 0.98383 0.53113 0.41482 0.0
H4000 H 0.032 0.55444 0.31661 0.0
H4001 H 0.01707 0.54145 0.36695 0.0
C4002 C 0.46853 0.43887 0.64567 0.0
C4003 C 0.46931 0.43163 0.61036 0.0
C4004 C 0.467 0.44571 0.61203 0.0
C4005 C 0.45725 0.44822 0.44983 0.0
H4006 H 0.46148 0.47235 0.53055 0.0
C4007 C 0.4423 0.47136 0.33572 0.0
C4008 C 0.43413 0.46979 0.37352 0.0
C4009 C 0.44926 0.46937 0.3627 0.0
C4010 C 0.46038 0.46569 0.50723 0.0
H4011 H 0.47001 0.42633 0.51238 0.0
H4012 H 0.46805 0.43871 0.45298 0.0
H4013 H 0.46963 0.46397 0.57684 0.0
H4014 H 0.42734 0.46578 0.47088 0.0
H4015 H 0.43972 0.46255 0.51855 0.0
H4016 H 0.44811 0.4501 0.37982 0.0
C4017 C 0.46807 0.43883 0.50681 0.0
C4018 C 0.46494 0.46081 0.53395 0.0
C4019 C 0.46929 0.43179 0.54065 0.0
C4020 C 0.43352 0.46701 0.44054 0.0
C4021 C 0.44061 0.46522 0.46791 0.0
C4022 C 0.45294 0.45324 0.42223 0.0
C4023 C 0.46647 0.44563 0.54207 0.0
C4024 C 0.46316 0.4518 0.50705 0.0
C4025 C 0.44831 0.46603 0.42833 0.0
C4026 C 0.45424 0.46183 0.45186 0.0
H4027 H 0.46844 0.43885 0.69958 0.0
H4028 H 0.46566 0.45066 0.64146 0.0
H4029 H 0.45547 0.44125 0.42812 0.0
H4030 H 0.44297 0.47347 0.28386 0.0
H4031 H 0.45512 0.46997 0.33139 0.0
loop_
_geom_bond_atom_site_label_1
_geom_bond_atom_site_label_2
_geom_bond_distance
_geom_bond_site_symmetry_2
_ccdc_geom_bond_type
Sc0 O3 2.025 . S
Sc0 O10 2.105 . S
Sc0 O13 2.105 . S
Sc0 O16 2.105 . S
Sc0 O19 2.105 . S
Sc1 O3 2.025 . S
Sc1 O11 2.105 . S
Sc1 O15 2.105 1_554 S
Sc1 O17 2.105 1_554 S
Sc1 O21 2.105 . S
Sc2 O3 2.025 . S
Sc2 O12 2.105 . S
Sc2 O14 2.105 . S
Sc2 O18 2.105 1_554 S
Sc2 O20 2.105 . S
O3 Sc0 2.025 . S
O3 Sc1 2.025 . S
O3 Sc2 2.025 . S
C4 O10 1.268 . S
C4 O20 1.268 . S
C5 O11 1.268 . S
C5 O19 1.268 . S
C6 O12 1.268 . S
C6 O21 1.268 . S
C7 O13 1.268 1_556 S
C7 O17 1.268 . S
C8 O14 1.268 . S
C8 O16 1.268 . S
C9 O15 1.268 . S
C9 O18 1.268 . S
O10 Sc0 2.105 . S
O10 C4 1.268 . S
O11 Sc1 2.105 . S
O11 C5 1.268 . S
O12 Sc2 2.105 . S
O12 C6 1.268 . S
O13 Sc0 2.105 . S
O13 C7 1.268 1_554 S
O14 Sc2 2.105 . S
O14 C8 1.268 . S
O15 Sc1 2.105 1_556 S
O15 C9 1.268 . S
O16 Sc0 2.105 . S
O16 C8 1.268 . S
O17 Sc1 2.105 1_556 S
O17 C7 1.268 . S
O18 Sc2 2.105 1_556 S
O18 C9 1.268 . S
O19 Sc0 2.105 . S
O19 C5 1.268 . S
O20 Sc2 2.105 . S
O20 C4 1.268 . S
O21 Sc1 2.105 . S
O21 C6 1.268 . S
Sc22 O25 2.025 . S
Sc22 O32 2.105 . S
Sc22 O35 2.105 . S
Sc22 O38 2.105 . S
Sc22 O41 2.105 . S
Sc23 O25 2.025 . S
Sc23 O33 2.105 . S
Sc23 O37 2.105 1_554 S
Sc23 O39 2.105 1_554 S
Sc23 O43 2.105 . S
Sc24 O25 2.025 . S
Sc24 O34 2.105 . S
Sc24 O36 2.105 . S
Sc24 O40 2.105 1_554 S
Sc24 O42 2.105 . S
O25 Sc22 2.025 . S
O25 Sc23 2.025 . S
O25 Sc24 2.025 . S
C26 O32 1.268 . S
C26 O42 1.268 . S
C27 O33 1.268 . S
C27 O41 1.268 . S
C28 O34 1.268 . S
C28 O43 1.268 . S
C29 O35 1.268 1_556 S
C29 O39 1.268 . S
C30 O36 1.268 . S
C30 O38 1.268 . S
C31 O37 1.268 . S
C31 O40 1.268 . S
O32 Sc22 2.105 . S
O32 C26 1.268 . S
O33 Sc23 2.105 . S
O33 C27 1.268 . S
O34 Sc24 2.105 . S
O34 C28 1.268 . S
O35 Sc22 2.105 . S
O35 C29 1.268 1_554 S
O36 Sc24 2.105 . S
O36 C30 1.268 . S
O37 Sc23 2.105 1_556 S
O37 C31 1.268 . S
O38 Sc22 2.105 . S
O38 C30 1.268 . S
O39 Sc23 2.105 1_556 S
O39 C29 1.268 . S
O40 Sc24 2.105 1_556 S
O40 C31 1.268 . S
O41 Sc22 2.105 . S
O41 C27 1.268 . S
O42 Sc24 2.105 . S
O42 C26 1.268 . S
O43 Sc23 2.105 . S
O43 C28 1.268 . S
Sc44 O47 2.025 . S
Sc44 O54 2.105 . S
Sc44 O57 2.105 . S
Sc44 O60 2.105 . S
Sc44 O63 2.105 . S
Sc45 O47 2.025 . S
Sc45 O55 2.105 . S
Sc45 O59 2.105 1_554 S
Sc45 O61 2.105 1_554 S
Sc45 O65 2.105 . S
Sc46 O47 2.025 . S
Sc46 O56 2.105 . S
Sc46 O58 2.105 . S
Sc46 O62 2.105 1_554 S
Sc46 O64 2.105 . S
O47 Sc44 2.025 . S
O47 Sc45 2.025 . S
O47 Sc46 2.025 . S
C48 O54 1.268 . S
C48 O64 1.268 . S
C49 O55 1.268 . S
C49 O63 1.268 . S
C50 O56 1.268 . S
C50 O65 1.268 . S
C51 O57 1.268 1_556 S
C51 O61 1.268 . S
C52 O58 1.268 . S
C52 O60 1.268 . S
C53 O59 1.268 . S
C53 O62 1.268 . S
O54 Sc44 2.105 . S
O54 C48 1.268 . S
O55 Sc45 2.105 . S
O55 C49 1.268 . S
O56 Sc46 2.105 . S
O56 C50 1.268 . S
O57 Sc44 2.105 . S
O57 C51 1.268 1_554 S
O58 Sc46 2.105 . S
O58 C52 1.268 . S
O59 Sc45 2.105 1_556 S
O59 C53 1.268 . S
O60 Sc44 2.105 . S
O60 C52 1.268 . S
O61 Sc45 2.105 1_556 S
O61 C51 1.268 . S
O62 Sc46 2.105 1_556 S
O62 C53 1.268 . S
O63 Sc44 2.105 . S
O63 C49 1.268 . S
O64 Sc46 2.105 . S
O64 C48 1.268 . S
O65 Sc45 2.105 . S
O65 C50 1.268 . S
Sc66 O69 2.025 . S
Sc66 O76 2.105 . S
Sc66 O79 2.105 . S
Sc66 O82 2.105 . S
Sc66 O85 2.105 . S
Sc67 O69 2.025 . S
Sc67 O77 2.105 . S
Sc67 O81 2.105 1_556 S
Sc67 O83 2.105 1_556 S
Sc67 O87 2.105 . S
Sc68 O69 2.025 . S
Sc68 O78 2.105 . S
Sc68 O80 2.105 . S
Sc68 O84 2.105 1_556 S
Sc68 O86 2.105 . S
O69 Sc66 2.025 . S
O69 Sc67 2.025 . S
O69 Sc68 2.025 . S
C70 O76 1.268 . S
C70 O86 1.268 . S
C71 O77 1.268 . S
C71 O85 1.268 . S
C72 O78 1.268 . S
C72 O87 1.268 . S
C73 O79 1.268 1_554 S
C73 O83 1.268 . S
C74 O80 1.268 . S
C74 O82 1.268 . S
C75 O81 1.268 . S
C75 O84 1.268 . S
O76 Sc66 2.105 . S
O76 C70 1.268 . S
O77 Sc67 2.105 . S
O77 C71 1.268 . S
O78 Sc68 2.105 . S
O78 C72 1.268 . S
O79 Sc66 2.105 . S
O79 C73 1.268 1_556 S
O80 Sc68 2.105 . S
O80 C74 1.268 . S
O81 Sc67 2.105 1_554 S
O81 C75 1.268 . S
O82 Sc66 2.105 . S
O82 C74 1.268 . S
O83 Sc67 2.105 1_554 S
O83 C73 1.268 . S
O84 Sc68 2.105 1_554 S
O84 C75 1.268 . S
O85 Sc66 2.105 . S
O85 C71 1.268 . S
O86 Sc68 2.105 . S
O86 C70 1.268 . S
O87 Sc67 2.105 . S
O87 C72 1.268 . S
Sc88 O91 2.025 . S
Sc88 O98 2.105 . S
Sc88 O101 2.105 . S
Sc88 O104 2.105 . S
Sc88 O107 2.105 . S
Sc89 O91 2.025 . S
Sc89 O99 2.105 . S
Sc89 O103 2.105 1_556 S
Sc89 O105 2.105 1_556 S
Sc89 O109 2.105 . S
Sc90 O91 2.025 . S
Sc90 O100 2.105 . S
Sc90 O102 2.105 . S
Sc90 O106 2.105 1_556 S
Sc90 O108 2.105 . S
O91 Sc88 2.025 . S
O91 Sc89 2.025 . S
O91 Sc90 2.025 . S
C92 O98 1.268 . S
C92 O108 1.268 . S
C93 O99 1.268 . S
C93 O107 1.268 . S
C94 O100 1.268 . S
C94 O109 1.268 . S
C95 O101 1.268 1_554 S
C95 O105 1.268 . S
C96 O102 1.268 . S
C96 O104 1.268 . S
C97 O103 1.268 . S
C97 O106 1.268 . S
O98 Sc88 2.105 . S
O98 C92 1.268 . S
O99 Sc89 2.105 . S
O99 C93 1.268 . S
O100 Sc90 2.105 . S
O100 C94 1.268 . S
O101 Sc88 2.105 . S
O101 C95 1.268 1_556 S
O102 Sc90 2.105 . S
O102 C96 1.268 . S
O103 Sc89 2.105 1_554 S
O103 C97 1.268 . S
O104 Sc88 2.105 . S
O104 C96 1.268 . S
O105 Sc89 2.105 1_554 S
O105 C95 1.268 . S
O106 Sc90 2.105 1_554 S
O106 C97 1.268 . S
O107 Sc88 2.105 . S
O107 C93 1.268 . S
O108 Sc90 2.105 . S
O108 C92 1.268 . S
O109 Sc89 2.105 . S
O109 C94 1.268 . S
Sc110 O113 2.025 . S
Sc110 O120 2.105 . S
Sc110 O123 2.105 . S
Sc110 O126 2.105 . S
Sc110 O129 2.105 . S
Sc111 O113 2.025 . S
Sc111 O121 2.105 . S
Sc111 O125 2.105 1_556 S
Sc111 O127 2.105 1_556 S
Sc111 O131 2.105 . S
Sc112 O113 2.025 . S
Sc112 O122 2.105 . S
Sc112 O124 2.105 . S
Sc112 O128 2.105 1_556 S
Sc112 O130 2.105 . S
O113 Sc110 2.025 . S
O113 Sc111 2.025 . S
O113 Sc112 2.025 . S
C114 O120 1.268 . S
C114 O130 1.268 . S
C115 O121 1.268 . S
C115 O129 1.268 . S
C116 O122 1.268 . S
C116 O131 1.268 . S
C117 O123 1.268 1_554 S
C117 O127 1.268 . S
C118 O124 1.268 . S
C118 O126 1.268 . S
C119 O125 1.268 . S
C119 O128 1.268 . S
O120 Sc110 2.105 . S
O120 C114 1.268 . S
O121 Sc111 2.105 . S
O121 C115 1.268 . S
O122 Sc112 2.105 . S
O122 C116 1.268 . S
O123 Sc110 2.105 . S
O123 C117 1.268 1_556 S
O124 Sc112 2.105 . S
O124 C118 1.268 . S
O125 Sc111 2.105 1_554 S
O125 C119 1.268 . S
O126 Sc110 2.105 . S
O126 C118 1.268 . S
O127 Sc111 2.105 1_554 S
O127 C117 1.268 . S
O128 Sc112 2.105 1_554 S
O128 C119 1.268 . S
O129 Sc110 2.105 . S
O129 C115 1.268 . S
O130 Sc112 2.105 . S
O130 C114 1.268 . S
O131 Sc111 2.105 . S
O131 C116 1.268 . S
Sc132 O135 2.025 . S
Sc132 O142 2.105 . S
Sc132 O145 2.105 1_556 S
Sc132 O148 2.105 . S
Sc132 O151 2.105 . S
Sc133 O135 2.025 . S
Sc133 O143 2.105 . S
Sc133 O147 2.105 1_556 S
Sc133 O149 2.105 1_556 S
Sc133 O153 2.105 . S
Sc134 O135 2.025 . S
Sc134 O144 2.105 . S
Sc134 O146 2.105 . S
Sc134 O150 2.105 . S
Sc134 O152 2.105 . S
O135 Sc132 2.025 . S
O135 Sc133 2.025 . S
O135 Sc134 2.025 . S
C136 O142 1.268 . S
C136 O152 1.268 . S
C137 O143 1.268 . S
C137 O151 1.268 . S
C138 O144 1.268 . S
C138 O153 1.268 . S
C139 O145 1.268 . S
C139 O149 1.268 . S
C140 O146 1.268 . S
C140 O148 1.268 . S
C141 O147 1.268 . S
C141 O150 1.268 1_554 S
O142 Sc132 2.105 . S
O142 C136 1.268 . S
O143 Sc133 2.105 . S
O143 C137 1.268 . S
O144 Sc134 2.105 . S
O144 C138 1.268 . S
O145 Sc132 2.105 1_554 S
O145 C139 1.268 . S
O146 Sc134 2.105 . S
O146 C140 1.268 . S
O147 Sc133 2.105 1_554 S
O147 C141 1.268 . S
O148 Sc132 2.105 . S
O148 C140 1.268 . S
O149 Sc133 2.105 1_554 S
O149 C139 1.268 . S
O150 Sc134 2.105 . S
O150 C141 1.268 1_556 S
O151 Sc132 2.105 . S
O151 C137 1.268 . S
O152 Sc134 2.105 . S
O152 C136 1.268 . S
O153 Sc133 2.105 . S
O153 C138 1.268 . S
Sc154 O157 2.025 . S
Sc154 O164 2.105 . S
Sc154 O167 2.105 1_556 S
Sc154 O170 2.105 . S
Sc154 O173 2.105 . S
Sc155 O157 2.025 . S
Sc155 O165 2.105 . S
Sc155 O169 2.105 1_556 S
Sc155 O171 2.105 1_556 S
Sc155 O175 2.105 . S
Sc156 O157 2.025 . S
Sc156 O166 2.105 . S
Sc156 O168 2.105 . S
Sc156 O172 2.105 . S
Sc156 O174 2.105 . S
O157 Sc154 2.025 . S
O157 Sc155 2.025 . S
O157 Sc156 2.025 . S
C158 O164 1.268 . S
C158 O174 1.268 . S
C159 O165 1.268 . S
C159 O173 1.268 . S
C160 O166 1.268 . S
C160 O175 1.268 . S
C161 O167 1.268 . S
C161 O171 1.268 . S
C162 O168 1.268 . S
C162 O170 1.268 . S
C163 O169 1.268 . S
C163 O172 1.268 1_554 S
O164 Sc154 2.105 . S
O164 C158 1.268 . S
O165 Sc155 2.105 . S
O165 C159 1.268 . S
O166 Sc156 2.105 . S
O166 C160 1.268 . S
O167 Sc154 2.105 1_554 S
O167 C161 1.268 . S
O168 Sc156 2.105 . S
O168 C162 1.268 . S
O169 Sc155 2.105 1_554 S
O169 C163 1.268 . S
O170 Sc154 2.105 . S
O170 C162 1.268 . S
O171 Sc155 2.105 1_554 S
O171 C161 1.268 . S
O172 Sc156 2.105 . S
O172 C163 1.268 1_556 S
O173 Sc154 2.105 . S
O173 C159 1.268 . S
O174 Sc156 2.105 . S
O174 C158 1.268 . S
O175 Sc155 2.105 . S
O175 C160 1.268 . S
Sc176 O179 2.025 . S
Sc176 O186 2.105 . S
Sc176 O189 2.105 1_556 S
Sc176 O192 2.105 . S
Sc176 O195 2.105 . S
Sc177 O179 2.025 . S
Sc177 O187 2.105 . S
Sc177 O191 2.105 1_556 S
Sc177 O193 2.105 1_556 S
Sc177 O197 2.105 . S
Sc178 O179 2.025 . S
Sc178 O188 2.105 . S
Sc178 O190 2.105 . S
Sc178 O194 2.105 . S
Sc178 O196 2.105 . S
O179 Sc176 2.025 . S
O179 Sc177 2.025 . S
O179 Sc178 2.025 . S
C180 O186 1.268 . S
C180 O196 1.268 . S
C181 O187 1.268 . S
C181 O195 1.268 . S
C182 O188 1.268 . S
C182 O197 1.268 . S
C183 O189 1.268 . S
C183 O193 1.268 . S
C184 O190 1.268 . S
C184 O192 1.268 . S
C185 O191 1.268 . S
C185 O194 1.268 1_554 S
O186 Sc176 2.105 . S
O186 C180 1.268 . S
O187 Sc177 2.105 . S
O187 C181 1.268 . S
O188 Sc178 2.105 . S
O188 C182 1.268 . S
O189 Sc176 2.105 1_554 S
O189 C183 1.268 . S
O190 Sc178 2.105 . S
O190 C184 1.268 . S
O191 Sc177 2.105 1_554 S
O191 C185 1.268 . S
O192 Sc176 2.105 . S
O192 C184 1.268 . S
O193 Sc177 2.105 1_554 S
O193 C183 1.268 . S
O194 Sc178 2.105 . S
O194 C185 1.268 1_556 S
O195 Sc176 2.105 . S
O195 C181 1.268 . S
O196 Sc178 2.105 . S
O196 C180 1.268 . S
O197 Sc177 2.105 . S
O197 C182 1.268 . S
Sc198 O201 2.025 . S
Sc198 O208 2.105 . S
Sc198 O211 2.105 1_554 S
Sc198 O214 2.105 . S
Sc198 O217 2.105 . S
Sc199 O201 2.025 . S
Sc199 O209 2.105 . S
Sc199 O213 2.105 1_554 S
Sc199 O215 2.105 1_554 S
Sc199 O219 2.105 . S
Sc200 O201 2.025 . S
Sc200 O210 2.105 . S
Sc200 O212 2.105 . S
Sc200 O216 2.105 . S
Sc200 O218 2.105 . S
O201 Sc198 2.025 . S
O201 Sc199 2.025 . S
O201 Sc200 2.025 . S
C202 O208 1.268 . S
C202 O218 1.268 . S
C203 O209 1.268 . S
C203 O217 1.268 . S
C204 O210 1.268 . S
C204 O219 1.268 . S
C205 O211 1.268 . S
C205 O215 1.268 . S
C206 O212 1.268 . S
C206 O214 1.268 . S
C207 O213 1.268 . S
C207 O216 1.268 1_556 S
O208 Sc198 2.105 . S
O208 C202 1.268 . S
O209 Sc199 2.105 . S
O209 C203 1.268 . S
O210 Sc200 2.105 . S
O210 C204 1.268 . S
O211 Sc198 2.105 1_556 S
O211 C205 1.268 . S
O212 Sc200 2.105 . S
O212 C206 1.268 . S
O213 Sc199 2.105 1_556 S
O213 C207 1.268 . S
O214 Sc198 2.105 . S
O214 C206 1.268 . S
O215 Sc199 2.105 1_556 S
O215 C205 1.268 . S
O216 Sc200 2.105 . S
O216 C207 1.268 1_554 S
O217 Sc198 2.105 . S
O217 C203 1.268 . S
O218 Sc200 2.105 . S
O218 C202 1.268 . S
O219 Sc199 2.105 . S
O219 C204 1.268 . S
Sc220 O223 2.025 . S
Sc220 O230 2.105 . S
Sc220 O233 2.105 1_554 S
Sc220 O236 2.105 . S
Sc220 O239 2.105 . S
Sc221 O223 2.025 . S
Sc221 O231 2.105 . S
Sc221 O235 2.105 1_554 S
Sc221 O237 2.105 1_554 S
Sc221 O241 2.105 . S
Sc222 O223 2.025 . S
Sc222 O232 2.105 . S
Sc222 O234 2.105 . S
Sc222 O238 2.105 . S
Sc222 O240 2.105 . S
O223 Sc220 2.025 . S
O223 Sc221 2.025 . S
O223 Sc222 2.025 . S
C224 O230 1.268 . S
C224 O240 1.268 . S
C225 O231 1.268 . S
C225 O239 1.268 . S
C226 O232 1.268 . S
C226 O241 1.268 . S
C227 O233 1.268 . S
C227 O237 1.268 . S
C228 O234 1.268 . S
C228 O236 1.268 . S
C229 O235 1.268 . S
C229 O238 1.268 1_556 S
O230 Sc220 2.105 . S
O230 C224 1.268 . S
O231 Sc221 2.105 . S
O231 C225 1.268 . S
O232 Sc222 2.105 . S
O232 C226 1.268 . S
O233 Sc220 2.105 1_556 S
O233 C227 1.268 . S
O234 Sc222 2.105 . S
O234 C228 1.268 . S
O235 Sc221 2.105 1_556 S
O235 C229 1.268 . S
O236 Sc220 2.105 . S
O236 C228 1.268 . S
O237 Sc221 2.105 1_556 S
O237 C227 1.268 . S
O238 Sc222 2.105 . S
O238 C229 1.268 1_554 S
O239 Sc220 2.105 . S
O239 C225 1.268 . S
O240 Sc222 2.105 . S
O240 C224 1.268 . S
O241 Sc221 2.105 . S
O241 C226 1.268 . S
Sc242 O245 2.025 . S
Sc242 O252 2.105 . S
Sc242 O255 2.105 1_554 S
Sc242 O258 2.105 . S
Sc242 O261 2.105 . S
Sc243 O245 2.025 . S
Sc243 O253 2.105 . S
Sc243 O257 2.105 1_554 S
Sc243 O259 2.105 1_554 S
Sc243 O263 2.105 . S
Sc244 O245 2.025 . S
Sc244 O254 2.105 . S
Sc244 O256 2.105 . S
Sc244 O260 2.105 . S
Sc244 O262 2.105 . S
O245 Sc242 2.025 . S
O245 Sc243 2.025 . S
O245 Sc244 2.025 . S
C246 O252 1.268 . S
C246 O262 1.268 . S
C247 O253 1.268 . S
C247 O261 1.268 . S
C248 O254 1.268 . S
C248 O263 1.268 . S
C249 O255 1.268 . S
C249 O259 1.268 . S
C250 O256 1.268 . S
C250 O258 1.268 . S
C251 O257 1.268 . S
C251 O260 1.268 1_556 S
O252 Sc242 2.105 . S
O252 C246 1.268 . S
O253 Sc243 2.105 . S
O253 C247 1.268 . S
O254 Sc244 2.105 . S
O254 C248 1.268 . S
O255 Sc242 2.105 1_556 S
O255 C249 1.268 . S
O256 Sc244 2.105 . S
O256 C250 1.268 . S
O257 Sc243 2.105 1_556 S
O257 C251 1.268 . S
O258 Sc242 2.105 . S
O258 C250 1.268 . S
O259 Sc243 2.105 1_556 S
O259 C249 1.268 . S
O260 Sc244 2.105 . S
O260 C251 1.268 1_554 S
O261 Sc242 2.105 . S
O261 C247 1.268 . S
O262 Sc244 2.105 . S
O262 C246 1.268 . S
O263 Sc243 2.105 . S
O263 C248 1.268 . S
Sc264 O267 2.025 . S
Sc264 O274 2.105 . S
Sc264 O277 2.105 . S
Sc264 O280 2.105 . S
Sc264 O283 2.105 . S
Sc265 O267 2.025 . S
Sc265 O275 2.105 . S
Sc265 O279 2.105 . S
Sc265 O281 2.105 . S
Sc265 O285 2.105 . S
Sc266 O267 2.025 . S
Sc266 O276 2.105 . S
Sc266 O278 2.105 . S
Sc266 O282 2.105 . S
Sc266 O284 2.105 . S
O267 Sc264 2.025 . S
O267 Sc265 2.025 . S
O267 Sc266 2.025 . S
C268 O274 1.268 . S
C268 O284 1.268 . S
C269 O275 1.268 . S
C269 O283 1.268 . S
C270 O276 1.268 . S
C270 O285 1.268 . S
C271 O277 1.268 . S
C271 O281 1.268 . S
C272 O278 1.268 . S
C272 O280 1.268 . S
C273 O279 1.268 . S
C273 O282 1.268 . S
O274 Sc264 2.105 . S
O274 C268 1.268 . S
O275 Sc265 2.105 . S
O275 C269 1.268 . S
O276 Sc266 2.105 . S
O276 C270 1.268 . S
O277 Sc264 2.105 . S
O277 C271 1.268 . S
O278 Sc266 2.105 . S
O278 C272 1.268 . S
O279 Sc265 2.105 . S
O279 C273 1.268 . S
O280 Sc264 2.105 . S
O280 C272 1.268 . S
O281 Sc265 2.105 . S
O281 C271 1.268 . S
O282 Sc266 2.105 . S
O282 C273 1.268 . S
O283 Sc264 2.105 . S
O283 C269 1.268 . S
O284 Sc266 2.105 . S
O284 C268 1.268 . S
O285 Sc265 2.105 . S
O285 C270 1.268 . S
Sc286 O289 2.025 . S
Sc286 O296 2.105 . S
Sc286 O299 2.105 . S
Sc286 O302 2.105 . S
Sc286 O305 2.105 . S
Sc287 O289 2.025 . S
Sc287 O297 2.105 . S
Sc287 O301 2.105 . S
Sc287 O303 2.105 . S
Sc287 O307 2.105 . S
Sc288 O289 2.025 . S
Sc288 O298 2.105 . S
Sc288 O300 2.105 . S
Sc288 O304 2.105 . S
Sc288 O306 2.105 . S
O289 Sc286 2.025 . S
O289 Sc287 2.025 . S
O289 Sc288 2.025 . S
C290 O296 1.268 . S
C290 O306 1.268 . S
C291 O297 1.268 . S
C291 O305 1.268 . S
C292 O298 1.268 . S
C292 O307 1.268 . S
C293 O299 1.268 . S
C293 O303 1.268 . S
C294 O300 1.268 . S
C294 O302 1.268 . S
C295 O301 1.268 . S
C295 O304 1.268 . S
O296 Sc286 2.105 . S
O296 C290 1.268 . S
O297 Sc287 2.105 . S
O297 C291 1.268 . S
O298 Sc288 2.105 . S
O298 C292 1.268 . S
O299 Sc286 2.105 . S
O299 C293 1.268 . S
O300 Sc288 2.105 . S
O300 C294 1.268 . S
O301 Sc287 2.105 . S
O301 C295 1.268 . S
O302 Sc286 2.105 . S
O302 C294 1.268 . S
O303 Sc287 2.105 . S
O303 C293 1.268 . S
O304 Sc288 2.105 . S
O304 C295 1.268 . S
O305 Sc286 2.105 . S
O305 C291 1.268 . S
O306 Sc288 2.105 . S
O306 C290 1.268 . S
O307 Sc287 2.105 . S
O307 C292 1.268 . S
Sc308 O311 2.025 . S
Sc308 O318 2.105 . S
Sc308 O321 2.105 . S
Sc308 O324 2.105 . S
Sc308 O327 2.105 . S
Sc309 O311 2.025 . S
Sc309 O319 2.105 . S
Sc309 O323 2.105 . S
Sc309 O325 2.105 . S
Sc309 O329 2.105 . S
Sc310 O311 2.025 . S
Sc310 O320 2.105 . S
Sc310 O322 2.105 . S
Sc310 O326 2.105 . S
Sc310 O328 2.105 . S
O311 Sc308 2.025 . S
O311 Sc309 2.025 . S
O311 Sc310 2.025 . S
C312 O318 1.268 . S
C312 O328 1.268 . S
C313 O319 1.268 . S
C313 O327 1.268 . S
C314 O320 1.268 . S
C314 O329 1.268 . S
C315 O321 1.268 . S
C315 O325 1.268 . S
C316 O322 1.268 . S
C316 O324 1.268 . S
C317 O323 1.268 . S
C317 O326 1.268 . S
O318 Sc308 2.105 . S
O318 C312 1.268 . S
O319 Sc309 2.105 . S
O319 C313 1.268 . S
O320 Sc310 2.105 . S
O320 C314 1.268 . S
O321 Sc308 2.105 . S
O321 C315 1.268 . S
O322 Sc310 2.105 . S
O322 C316 1.268 . S
O323 Sc309 2.105 . S
O323 C317 1.268 . S
O324 Sc308 2.105 . S
O324 C316 1.268 . S
O325 Sc309 2.105 . S
O325 C315 1.268 . S
O326 Sc310 2.105 . S
O326 C317 1.268 . S
O327 Sc308 2.105 . S
O327 C313 1.268 . S
O328 Sc310 2.105 . S
O328 C312 1.268 . S
O329 Sc309 2.105 . S
O329 C314 1.268 . S
Sc330 O333 2.025 . S
Sc330 O340 2.105 . S
Sc330 O343 2.105 . S
Sc330 O346 2.105 . S
Sc330 O349 2.105 . S
Sc331 O333 2.025 . S
Sc331 O341 2.105 . S
Sc331 O345 2.105 . S
Sc331 O347 2.105 . S
Sc331 O351 2.105 . S
Sc332 O333 2.025 . S
Sc332 O342 2.105 . S
Sc332 O344 2.105 . S
Sc332 O348 2.105 . S
Sc332 O350 2.105 . S
O333 Sc330 2.025 . S
O333 Sc331 2.025 . S
O333 Sc332 2.025 . S
C334 O340 1.268 . S
C334 O350 1.268 . S
C335 O341 1.268 . S
C335 O349 1.268 . S
C336 O342 1.268 . S
C336 O351 1.268 . S
C337 O343 1.268 . S
C337 O347 1.268 . S
C338 O344 1.268 . S
C338 O346 1.268 . S
C339 O345 1.268 . S
C339 O348 1.268 . S
O340 Sc330 2.105 . S
O340 C334 1.268 . S
O341 Sc331 2.105 . S
O341 C335 1.268 . S
O342 Sc332 2.105 . S
O342 C336 1.268 . S
O343 Sc330 2.105 . S
O343 C337 1.268 . S
O344 Sc332 2.105 . S
O344 C338 1.268 . S
O345 Sc331 2.105 . S
O345 C339 1.268 . S
O346 Sc330 2.105 . S
O346 C338 1.268 . S
O347 Sc331 2.105 . S
O347 C337 1.268 . S
O348 Sc332 2.105 . S
O348 C339 1.268 . S
O349 Sc330 2.105 . S
O349 C335 1.268 . S
O350 Sc332 2.105 . S
O350 C334 1.268 . S
O351 Sc331 2.105 . S
O351 C336 1.268 . S
Sc352 O355 2.025 . S
Sc352 O362 2.105 . S
Sc352 O365 2.105 . S
Sc352 O368 2.105 . S
Sc352 O371 2.105 . S
Sc353 O355 2.025 . S
Sc353 O363 2.105 . S
Sc353 O367 2.105 . S
Sc353 O369 2.105 . S
Sc353 O373 2.105 . S
Sc354 O355 2.025 . S
Sc354 O364 2.105 . S
Sc354 O366 2.105 . S
Sc354 O370 2.105 . S
Sc354 O372 2.105 . S
O355 Sc352 2.025 . S
O355 Sc353 2.025 . S
O355 Sc354 2.025 . S
C356 O362 1.268 . S
C356 O372 1.268 . S
C357 O363 1.268 . S
C357 O371 1.268 . S
C358 O364 1.268 . S
C358 O373 1.268 . S
C359 O365 1.268 . S
C359 O369 1.268 . S
C360 O366 1.268 . S
C360 O368 1.268 . S
C361 O367 1.268 . S
C361 O370 1.268 . S
O362 Sc352 2.105 . S
O362 C356 1.268 . S
O363 Sc353 2.105 . S
O363 C357 1.268 . S
O364 Sc354 2.105 . S
O364 C358 1.268 . S
O365 Sc352 2.105 . S
O365 C359 1.268 . S
O366 Sc354 2.105 . S
O366 C360 1.268 . S
O367 Sc353 2.105 . S
O367 C361 1.268 . S
O368 Sc352 2.105 . S
O368 C360 1.268 . S
O369 Sc353 2.105 . S
O369 C359 1.268 . S
O370 Sc354 2.105 . S
O370 C361 1.268 . S
O371 Sc352 2.105 . S
O371 C357 1.268 . S
O372 Sc354 2.105 . S
O372 C356 1.268 . S
O373 Sc353 2.105 . S
O373 C358 1.268 . S
Sc374 O377 2.025 . S
Sc374 O384 2.105 . S
Sc374 O387 2.105 . S
Sc374 O390 2.105 . S
Sc374 O393 2.105 . S
Sc375 O377 2.025 . S
Sc375 O385 2.105 . S
Sc375 O389 2.105 . S
Sc375 O391 2.105 . S
Sc375 O395 2.105 . S
Sc376 O377 2.025 . S
Sc376 O386 2.105 . S
Sc376 O388 2.105 . S
Sc376 O392 2.105 . S
Sc376 O394 2.105 . S
O377 Sc374 2.025 . S
O377 Sc375 2.025 . S
O377 Sc376 2.025 . S
C378 O384 1.268 . S
C378 O394 1.268 . S
C379 O385 1.268 . S
C379 O393 1.268 . S
C380 O386 1.268 . S
C380 O395 1.268 . S
C381 O387 1.268 . S
C381 O391 1.268 . S
C382 O388 1.268 . S
C382 O390 1.268 . S
C383 O389 1.268 . S
C383 O392 1.268 . S
O384 Sc374 2.105 . S
O384 C378 1.268 . S
O385 Sc375 2.105 . S
O385 C379 1.268 . S
O386 Sc376 2.105 . S
O386 C380 1.268 . S
O387 Sc374 2.105 . S
O387 C381 1.268 . S
O388 Sc376 2.105 . S
O388 C382 1.268 . S
O389 Sc375 2.105 . S
O389 C383 1.268 . S
O390 Sc374 2.105 . S
O390 C382 1.268 . S
O391 Sc375 2.105 . S
O391 C381 1.268 . S
O392 Sc376 2.105 . S
O392 C383 1.268 . S
O393 Sc374 2.105 . S
O393 C379 1.268 . S
O394 Sc376 2.105 . S
O394 C378 1.268 . S
O395 Sc375 2.105 . S
O395 C380 1.268 . S
Sc396 O399 2.025 . S
Sc396 O406 2.105 . S
Sc396 O409 2.105 . S
Sc396 O412 2.105 . S
Sc396 O415 2.105 . S
Sc397 O399 2.025 . S
Sc397 O407 2.105 . S
Sc397 O411 2.105 . S
Sc397 O413 2.105 . S
Sc397 O417 2.105 . S
Sc398 O399 2.025 . S
Sc398 O408 2.105 . S
Sc398 O410 2.105 . S
Sc398 O414 2.105 . S
Sc398 O416 2.105 . S
O399 Sc396 2.025 . S
O399 Sc397 2.025 . S
O399 Sc398 2.025 . S
C400 O406 1.268 . S
C400 O416 1.268 . S
C401 O407 1.268 . S
C401 O415 1.268 . S
C402 O408 1.268 . S
C402 O417 1.268 . S
C403 O409 1.268 . S
C403 O413 1.268 . S
C404 O410 1.268 . S
C404 O412 1.268 . S
C405 O411 1.268 . S
C405 O414 1.268 . S
O406 Sc396 2.105 . S
O406 C400 1.268 . S
O407 Sc397 2.105 . S
O407 C401 1.268 . S
O408 Sc398 2.105 . S
O408 C402 1.268 . S
O409 Sc396 2.105 . S
O409 C403 1.268 . S
O410 Sc398 2.105 . S
O410 C404 1.268 . S
O411 Sc397 2.105 . S
O411 C405 1.268 . S
O412 Sc396 2.105 . S
O412 C404 1.268 . S
O413 Sc397 2.105 . S
O413 C403 1.268 . S
O414 Sc398 2.105 . S
O414 C405 1.268 . S
O415 Sc396 2.105 . S
O415 C401 1.268 . S
O416 Sc398 2.105 . S
O416 C400 1.268 . S
O417 Sc397 2.105 . S
O417 C402 1.268 . S
Sc418 O421 2.025 . S
Sc418 O428 2.105 . S
Sc418 O431 2.105 . S
Sc418 O434 2.105 . S
Sc418 O437 2.105 . S
Sc419 O421 2.025 . S
Sc419 O429 2.105 . S
Sc419 O433 2.105 . S
Sc419 O435 2.105 . S
Sc419 O439 2.105 . S
Sc420 O421 2.025 . S
Sc420 O430 2.105 . S
Sc420 O432 2.105 . S
Sc420 O436 2.105 . S
Sc420 O438 2.105 . S
O421 Sc418 2.025 . S
O421 Sc419 2.025 . S
O421 Sc420 2.025 . S
C422 O428 1.268 . S
C422 O438 1.268 . S
C423 O429 1.268 . S
C423 O437 1.268 . S
C424 O430 1.268 . S
C424 O439 1.268 . S
C425 O431 1.268 . S
C425 O435 1.268 . S
C426 O432 1.268 . S
C426 O434 1.268 . S
C427 O433 1.268 . S
C427 O436 1.268 . S
O428 Sc418 2.105 . S
O428 C422 1.268 . S
O429 Sc419 2.105 . S
O429 C423 1.268 . S
O430 Sc420 2.105 . S
O430 C424 1.268 . S
O431 Sc418 2.105 . S
O431 C425 1.268 . S
O432 Sc420 2.105 . S
O432 C426 1.268 . S
O433 Sc419 2.105 . S
O433 C427 1.268 . S
O434 Sc418 2.105 . S
O434 C426 1.268 . S
O435 Sc419 2.105 . S
O435 C425 1.268 . S
O436 Sc420 2.105 . S
O436 C427 1.268 . S
O437 Sc418 2.105 . S
O437 C423 1.268 . S
O438 Sc420 2.105 . S
O438 C422 1.268 . S
O439 Sc419 2.105 . S
O439 C424 1.268 . S
Sc440 O443 2.025 . S
Sc440 O450 2.105 . S
Sc440 O453 2.105 . S
Sc440 O456 2.105 . S
Sc440 O459 2.105 . S
Sc441 O443 2.025 . S
Sc441 O451 2.105 . S
Sc441 O455 2.105 . S
Sc441 O457 2.105 . S
Sc441 O461 2.105 . S
Sc442 O443 2.025 . S
Sc442 O452 2.105 . S
Sc442 O454 2.105 . S
Sc442 O458 2.105 . S
Sc442 O460 2.105 . S
O443 Sc440 2.025 . S
O443 Sc441 2.025 . S
O443 Sc442 2.025 . S
C444 O450 1.268 . S
C444 O460 1.268 . S
C445 O451 1.268 . S
C445 O459 1.268 . S
C446 O452 1.268 . S
C446 O461 1.268 . S
C447 O453 1.268 . S
C447 O457 1.268 . S
C448 O454 1.268 . S
C448 O456 1.268 . S
C449 O455 1.268 . S
C449 O458 1.268 . S
O450 Sc440 2.105 . S
O450 C444 1.268 . S
O451 Sc441 2.105 . S
O451 C445 1.268 . S
O452 Sc442 2.105 . S
O452 C446 1.268 . S
O453 Sc440 2.105 . S
O453 C447 1.268 . S
O454 Sc442 2.105 . S
O454 C448 1.268 . S
O455 Sc441 2.105 . S
O455 C449 1.268 . S
O456 Sc440 2.105 . S
O456 C448 1.268 . S
O457 Sc441 2.105 . S
O457 C447 1.268 . S
O458 Sc442 2.105 . S
O458 C449 1.268 . S
O459 Sc440 2.105 . S
O459 C445 1.268 . S
O460 Sc442 2.105 . S
O460 C444 1.268 . S
O461 Sc441 2.105 . S
O461 C446 1.268 . S
Sc462 O465 2.025 . S
Sc462 O472 2.105 . S
Sc462 O475 2.105 . S
Sc462 O478 2.105 . S
Sc462 O481 2.105 . S
Sc463 O465 2.025 . S
Sc463 O473 2.105 . S
Sc463 O477 2.105 . S
Sc463 O479 2.105 . S
Sc463 O483 2.105 . S
Sc464 O465 2.025 . S
Sc464 O474 2.105 . S
Sc464 O476 2.105 . S
Sc464 O480 2.105 . S
Sc464 O482 2.105 . S
O465 Sc462 2.025 . S
O465 Sc463 2.025 . S
O465 Sc464 2.025 . S
C466 O472 1.268 . S
C466 O482 1.268 . S
C467 O473 1.268 . S
C467 O481 1.268 . S
C468 O474 1.268 . S
C468 O483 1.268 . S
C469 O475 1.268 . S
C469 O479 1.268 . S
C470 O476 1.268 . S
C470 O478 1.268 . S
C471 O477 1.268 . S
C471 O480 1.268 . S
O472 Sc462 2.105 . S
O472 C466 1.268 . S
O473 Sc463 2.105 . S
O473 C467 1.268 . S
O474 Sc464 2.105 . S
O474 C468 1.268 . S
O475 Sc462 2.105 . S
O475 C469 1.268 . S
O476 Sc464 2.105 . S
O476 C470 1.268 . S
O477 Sc463 2.105 . S
O477 C471 1.268 . S
O478 Sc462 2.105 . S
O478 C470 1.268 . S
O479 Sc463 2.105 . S
O479 C469 1.268 . S
O480 Sc464 2.105 . S
O480 C471 1.268 . S
O481 Sc462 2.105 . S
O481 C467 1.268 . S
O482 Sc464 2.105 . S
O482 C466 1.268 . S
O483 Sc463 2.105 . S
O483 C468 1.268 . S
Sc484 O487 2.025 . S
Sc484 O494 2.105 . S
Sc484 O497 2.105 . S
Sc484 O500 2.105 . S
Sc484 O503 2.105 . S
Sc485 O487 2.025 . S
Sc485 O495 2.105 . S
Sc485 O499 2.105 . S
Sc485 O501 2.105 . S
Sc485 O505 2.105 . S
Sc486 O487 2.025 . S
Sc486 O496 2.105 . S
Sc486 O498 2.105 . S
Sc486 O502 2.105 . S
Sc486 O504 2.105 . S
O487 Sc484 2.025 . S
O487 Sc485 2.025 . S
O487 Sc486 2.025 . S
C488 O494 1.268 . S
C488 O504 1.268 . S
C489 O495 1.268 . S
C489 O503 1.268 . S
C490 O496 1.268 . S
C490 O505 1.268 . S
C491 O497 1.268 . S
C491 O501 1.268 . S
C492 O498 1.268 . S
C492 O500 1.268 . S
C493 O499 1.268 . S
C493 O502 1.268 . S
O494 Sc484 2.105 . S
O494 C488 1.268 . S
O495 Sc485 2.105 . S
O495 C489 1.268 . S
O496 Sc486 2.105 . S
O496 C490 1.268 . S
O497 Sc484 2.105 . S
O497 C491 1.268 . S
O498 Sc486 2.105 . S
O498 C492 1.268 . S
O499 Sc485 2.105 . S
O499 C493 1.268 . S
O500 Sc484 2.105 . S
O500 C492 1.268 . S
O501 Sc485 2.105 . S
O501 C491 1.268 . S
O502 Sc486 2.105 . S
O502 C493 1.268 . S
O503 Sc484 2.105 . S
O503 C489 1.268 . S
O504 Sc486 2.105 . S
O504 C488 1.268 . S
O505 Sc485 2.105 . S
O505 C490 1.268 . S
Sc506 O509 2.025 . S
Sc506 O516 2.105 . S
Sc506 O519 2.105 . S
Sc506 O522 2.105 . S
Sc506 O525 2.105 . S
Sc507 O509 2.025 . S
Sc507 O517 2.105 . S
Sc507 O521 2.105 . S
Sc507 O523 2.105 . S
Sc507 O527 2.105 . S
Sc508 O509 2.025 . S
Sc508 O518 2.105 . S
Sc508 O520 2.105 . S
Sc508 O524 2.105 . S
Sc508 O526 2.105 . S
O509 Sc506 2.025 . S
O509 Sc507 2.025 . S
O509 Sc508 2.025 . S
C510 O516 1.268 . S
C510 O526 1.268 . S
C511 O517 1.268 . S
C511 O525 1.268 . S
C512 O518 1.268 . S
C512 O527 1.268 . S
C513 O519 1.268 . S
C513 O523 1.268 . S
C514 O520 1.268 . S
C514 O522 1.268 . S
C515 O521 1.268 . S
C515 O524 1.268 . S
O516 Sc506 2.105 . S
O516 C510 1.268 . S
O517 Sc507 2.105 . S
O517 C511 1.268 . S
O518 Sc508 2.105 . S
O518 C512 1.268 . S
O519 Sc506 2.105 . S
O519 C513 1.268 . S
O520 Sc508 2.105 . S
O520 C514 1.268 . S
O521 Sc507 2.105 . S
O521 C515 1.268 . S
O522 Sc506 2.105 . S
O522 C514 1.268 . S
O523 Sc507 2.105 . S
O523 C513 1.268 . S
O524 Sc508 2.105 . S
O524 C515 1.268 . S
O525 Sc506 2.105 . S
O525 C511 1.268 . S
O526 Sc508 2.105 . S
O526 C510 1.268 . S
O527 Sc507 2.105 . S
O527 C512 1.268 . S
Sc528 O531 2.025 . S
Sc528 O538 2.105 . S
Sc528 O541 2.105 . S
Sc528 O544 2.105 . S
Sc528 O547 2.105 . S
Sc529 O531 2.025 . S
Sc529 O539 2.105 . S
Sc529 O543 2.105 . S
Sc529 O545 2.105 . S
Sc529 O549 2.105 . S
Sc530 O531 2.025 . S
Sc530 O540 2.105 . S
Sc530 O542 2.105 . S
Sc530 O546 2.105 . S
Sc530 O548 2.105 . S
O531 Sc528 2.025 . S
O531 Sc529 2.025 . S
O531 Sc530 2.025 . S
C532 O538 1.268 . S
C532 O548 1.268 . S
C533 O539 1.268 . S
C533 O547 1.268 . S
C534 O540 1.268 . S
C534 O549 1.268 . S
C535 O541 1.268 . S
C535 O545 1.268 . S
C536 O542 1.268 . S
C536 O544 1.268 . S
C537 O543 1.268 . S
C537 O546 1.268 . S
O538 Sc528 2.105 . S
O538 C532 1.268 . S
O539 Sc529 2.105 . S
O539 C533 1.268 . S
O540 Sc530 2.105 . S
O540 C534 1.268 . S
O541 Sc528 2.105 . S
O541 C535 1.268 . S
O542 Sc530 2.105 . S
O542 C536 1.268 . S
O543 Sc529 2.105 . S
O543 C537 1.268 . S
O544 Sc528 2.105 . S
O544 C536 1.268 . S
O545 Sc529 2.105 . S
O545 C535 1.268 . S
O546 Sc530 2.105 . S
O546 C537 1.268 . S
O547 Sc528 2.105 . S
O547 C533 1.268 . S
O548 Sc530 2.105 . S
O548 C532 1.268 . S
O549 Sc529 2.105 . S
O549 C534 1.268 . S
Sc550 O553 2.025 . S
Sc550 O560 2.105 . S
Sc550 O563 2.105 . S
Sc550 O566 2.105 . S
Sc550 O569 2.105 . S
Sc551 O553 2.025 . S
Sc551 O561 2.105 . S
Sc551 O565 2.105 . S
Sc551 O567 2.105 . S
Sc551 O571 2.105 . S
Sc552 O553 2.025 . S
Sc552 O562 2.105 . S
Sc552 O564 2.105 . S
Sc552 O568 2.105 . S
Sc552 O570 2.105 . S
O553 Sc550 2.025 . S
O553 Sc551 2.025 . S
O553 Sc552 2.025 . S
C554 O560 1.268 . S
C554 O570 1.268 . S
C555 O561 1.268 . S
C555 O569 1.268 . S
C556 O562 1.268 . S
C556 O571 1.268 . S
C557 O563 1.268 . S
C557 O567 1.268 . S
C558 O564 1.268 . S
C558 O566 1.268 . S
C559 O565 1.268 . S
C559 O568 1.268 . S
O560 Sc550 2.105 . S
O560 C554 1.268 . S
O561 Sc551 2.105 . S
O561 C555 1.268 . S
O562 Sc552 2.105 . S
O562 C556 1.268 . S
O563 Sc550 2.105 . S
O563 C557 1.268 . S
O564 Sc552 2.105 . S
O564 C558 1.268 . S
O565 Sc551 2.105 . S
O565 C559 1.268 . S
O566 Sc550 2.105 . S
O566 C558 1.268 . S
O567 Sc551 2.105 . S
O567 C557 1.268 . S
O568 Sc552 2.105 . S
O568 C559 1.268 . S
O569 Sc550 2.105 . S
O569 C555 1.268 . S
O570 Sc552 2.105 . S
O570 C554 1.268 . S
O571 Sc551 2.105 . S
O571 C556 1.268 . S
Sc572 O575 2.025 . S
Sc572 O582 2.105 . S
Sc572 O585 2.105 . S
Sc572 O588 2.105 . S
Sc572 O591 2.105 . S
Sc573 O575 2.025 . S
Sc573 O583 2.105 . S
Sc573 O587 2.105 . S
Sc573 O589 2.105 . S
Sc573 O593 2.105 . S
Sc574 O575 2.025 . S
Sc574 O584 2.105 . S
Sc574 O586 2.105 . S
Sc574 O590 2.105 . S
Sc574 O592 2.105 . S
O575 Sc572 2.025 . S
O575 Sc573 2.025 . S
O575 Sc574 2.025 . S
C576 O582 1.268 . S
C576 O592 1.268 . S
C577 O583 1.268 . S
C577 O591 1.268 . S
C578 O584 1.268 . S
C578 O593 1.268 . S
C579 O585 1.268 . S
C579 O589 1.268 . S
C580 O586 1.268 . S
C580 O588 1.268 . S
C581 O587 1.268 . S
C581 O590 1.268 . S
O582 Sc572 2.105 . S
O582 C576 1.268 . S
O583 Sc573 2.105 . S
O583 C577 1.268 . S
O584 Sc574 2.105 . S
O584 C578 1.268 . S
O585 Sc572 2.105 . S
O585 C579 1.268 . S
O586 Sc574 2.105 . S
O586 C580 1.268 . S
O587 Sc573 2.105 . S
O587 C581 1.268 . S
O588 Sc572 2.105 . S
O588 C580 1.268 . S
O589 Sc573 2.105 . S
O589 C579 1.268 . S
O590 Sc574 2.105 . S
O590 C581 1.268 . S
O591 Sc572 2.105 . S
O591 C577 1.268 . S
O592 Sc574 2.105 . S
O592 C576 1.268 . S
O593 Sc573 2.105 . S
O593 C578 1.268 . S
Sc594 O597 2.025 . S
Sc594 O604 2.105 . S
Sc594 O607 2.105 . S
Sc594 O610 2.105 . S
Sc594 O613 2.105 . S
Sc595 O597 2.025 . S
Sc595 O605 2.105 . S
Sc595 O609 2.105 . S
Sc595 O611 2.105 . S
Sc595 O615 2.105 . S
Sc596 O597 2.025 . S
Sc596 O606 2.105 . S
Sc596 O608 2.105 . S
Sc596 O612 2.105 . S
Sc596 O614 2.105 . S
O597 Sc594 2.025 . S
O597 Sc595 2.025 . S
O597 Sc596 2.025 . S
C598 O604 1.268 . S
C598 O614 1.268 . S
C599 O605 1.268 . S
C599 O613 1.268 . S
C600 O606 1.268 . S
C600 O615 1.268 . S
C601 O607 1.268 . S
C601 O611 1.268 . S
C602 O608 1.268 . S
C602 O610 1.268 . S
C603 O609 1.268 . S
C603 O612 1.268 . S
O604 Sc594 2.105 . S
O604 C598 1.268 . S
O605 Sc595 2.105 . S
O605 C599 1.268 . S
O606 Sc596 2.105 . S
O606 C600 1.268 . S
O607 Sc594 2.105 . S
O607 C601 1.268 . S
O608 Sc596 2.105 . S
O608 C602 1.268 . S
O609 Sc595 2.105 . S
O609 C603 1.268 . S
O610 Sc594 2.105 . S
O610 C602 1.268 . S
O611 Sc595 2.105 . S
O611 C601 1.268 . S
O612 Sc596 2.105 . S
O612 C603 1.268 . S
O613 Sc594 2.105 . S
O613 C599 1.268 . S
O614 Sc596 2.105 . S
O614 C598 1.268 . S
O615 Sc595 2.105 . S
O615 C600 1.268 . S
Sc616 O619 2.025 . S
Sc616 O626 2.105 . S
Sc616 O629 2.105 . S
Sc616 O632 2.105 . S
Sc616 O635 2.105 . S
Sc617 O619 2.025 . S
Sc617 O627 2.105 . S
Sc617 O631 2.105 . S
Sc617 O633 2.105 . S
Sc617 O637 2.105 . S
Sc618 O619 2.025 . S
Sc618 O628 2.105 . S
Sc618 O630 2.105 . S
Sc618 O634 2.105 . S
Sc618 O636 2.105 . S
O619 Sc616 2.025 . S
O619 Sc617 2.025 . S
O619 Sc618 2.025 . S
C620 O626 1.268 . S
C620 O636 1.268 . S
C621 O627 1.268 . S
C621 O635 1.268 . S
C622 O628 1.268 . S
C622 O637 1.268 . S
C623 O629 1.268 . S
C623 O633 1.268 . S
C624 O630 1.268 . S
C624 O632 1.268 . S
C625 O631 1.268 . S
C625 O634 1.268 . S
O626 Sc616 2.105 . S
O626 C620 1.268 . S
O627 Sc617 2.105 . S
O627 C621 1.268 . S
O628 Sc618 2.105 . S
O628 C622 1.268 . S
O629 Sc616 2.105 . S
O629 C623 1.268 . S
O630 Sc618 2.105 . S
O630 C624 1.268 . S
O631 Sc617 2.105 . S
O631 C625 1.268 . S
O632 Sc616 2.105 . S
O632 C624 1.268 . S
O633 Sc617 2.105 . S
O633 C623 1.268 . S
O634 Sc618 2.105 . S
O634 C625 1.268 . S
O635 Sc616 2.105 . S
O635 C621 1.268 . S
O636 Sc618 2.105 . S
O636 C620 1.268 . S
O637 Sc617 2.105 . S
O637 C622 1.268 . S
Sc638 O641 2.025 . S
Sc638 O648 2.105 . S
Sc638 O651 2.105 . S
Sc638 O654 2.105 . S
Sc638 O657 2.105 . S
Sc639 O641 2.025 . S
Sc639 O649 2.105 . S
Sc639 O653 2.105 . S
Sc639 O655 2.105 . S
Sc639 O659 2.105 . S
Sc640 O641 2.025 . S
Sc640 O650 2.105 . S
Sc640 O652 2.105 . S
Sc640 O656 2.105 . S
Sc640 O658 2.105 . S
O641 Sc638 2.025 . S
O641 Sc639 2.025 . S
O641 Sc640 2.025 . S
C642 O648 1.268 . S
C642 O658 1.268 . S
C643 O649 1.268 . S
C643 O657 1.268 . S
C644 O650 1.268 . S
C644 O659 1.268 . S
C645 O651 1.268 . S
C645 O655 1.268 . S
C646 O652 1.268 . S
C646 O654 1.268 . S
C647 O653 1.268 . S
C647 O656 1.268 . S
O648 Sc638 2.105 . S
O648 C642 1.268 . S
O649 Sc639 2.105 . S
O649 C643 1.268 . S
O650 Sc640 2.105 . S
O650 C644 1.268 . S
O651 Sc638 2.105 . S
O651 C645 1.268 . S
O652 Sc640 2.105 . S
O652 C646 1.268 . S
O653 Sc639 2.105 . S
O653 C647 1.268 . S
O654 Sc638 2.105 . S
O654 C646 1.268 . S
O655 Sc639 2.105 . S
O655 C645 1.268 . S
O656 Sc640 2.105 . S
O656 C647 1.268 . S
O657 Sc638 2.105 . S
O657 C643 1.268 . S
O658 Sc640 2.105 . S
O658 C642 1.268 . S
O659 Sc639 2.105 . S
O659 C644 1.268 . S
Sc660 O663 2.025 . S
Sc660 O670 2.105 . S
Sc660 O673 2.105 . S
Sc660 O676 2.105 . S
Sc660 O679 2.105 . S
Sc661 O663 2.025 . S
Sc661 O671 2.105 . S
Sc661 O675 2.105 . S
Sc661 O677 2.105 . S
Sc661 O681 2.105 . S
Sc662 O663 2.025 . S
Sc662 O672 2.105 . S
Sc662 O674 2.105 . S
Sc662 O678 2.105 . S
Sc662 O680 2.105 . S
O663 Sc660 2.025 . S
O663 Sc661 2.025 . S
O663 Sc662 2.025 . S
C664 O670 1.268 . S
C664 O680 1.268 . S
C665 O671 1.268 . S
C665 O679 1.268 . S
C666 O672 1.268 . S
C666 O681 1.268 . S
C667 O673 1.268 . S
C667 O677 1.268 . S
C668 O674 1.268 . S
C668 O676 1.268 . S
C669 O675 1.268 . S
C669 O678 1.268 . S
O670 Sc660 2.105 . S
O670 C664 1.268 . S
O671 Sc661 2.105 . S
O671 C665 1.268 . S
O672 Sc662 2.105 . S
O672 C666 1.268 . S
O673 Sc660 2.105 . S
O673 C667 1.268 . S
O674 Sc662 2.105 . S
O674 C668 1.268 . S
O675 Sc661 2.105 . S
O675 C669 1.268 . S
O676 Sc660 2.105 . S
O676 C668 1.268 . S
O677 Sc661 2.105 . S
O677 C667 1.268 . S
O678 Sc662 2.105 . S
O678 C669 1.268 . S
O679 Sc660 2.105 . S
O679 C665 1.268 . S
O680 Sc662 2.105 . S
O680 C664 1.268 . S
O681 Sc661 2.105 . S
O681 C666 1.268 . S
Sc682 O685 2.025 . S
Sc682 O692 2.105 . S
Sc682 O695 2.105 . S
Sc682 O698 2.105 . S
Sc682 O701 2.105 . S
Sc683 O685 2.025 . S
Sc683 O693 2.105 . S
Sc683 O697 2.105 . S
Sc683 O699 2.105 . S
Sc683 O703 2.105 . S
Sc684 O685 2.025 . S
Sc684 O694 2.105 . S
Sc684 O696 2.105 . S
Sc684 O700 2.105 . S
Sc684 O702 2.105 . S
O685 Sc682 2.025 . S
O685 Sc683 2.025 . S
O685 Sc684 2.025 . S
C686 O692 1.268 . S
C686 O702 1.268 . S
C687 O693 1.268 . S
C687 O701 1.268 . S
C688 O694 1.268 . S
C688 O703 1.268 . S
C689 O695 1.268 . S
C689 O699 1.268 . S
C690 O696 1.268 . S
C690 O698 1.268 . S
C691 O697 1.268 . S
C691 O700 1.268 . S
O692 Sc682 2.105 . S
O692 C686 1.268 . S
O693 Sc683 2.105 . S
O693 C687 1.268 . S
O694 Sc684 2.105 . S
O694 C688 1.268 . S
O695 Sc682 2.105 . S
O695 C689 1.268 . S
O696 Sc684 2.105 . S
O696 C690 1.268 . S
O697 Sc683 2.105 . S
O697 C691 1.268 . S
O698 Sc682 2.105 . S
O698 C690 1.268 . S
O699 Sc683 2.105 . S
O699 C689 1.268 . S
O700 Sc684 2.105 . S
O700 C691 1.268 . S
O701 Sc682 2.105 . S
O701 C687 1.268 . S
O702 Sc684 2.105 . S
O702 C686 1.268 . S
O703 Sc683 2.105 . S
O703 C688 1.268 . S
Sc704 O707 2.025 . S
Sc704 O714 2.105 . S
Sc704 O717 2.105 . S
Sc704 O720 2.105 . S
Sc704 O723 2.105 . S
Sc705 O707 2.025 . S
Sc705 O715 2.105 . S
Sc705 O719 2.105 . S
Sc705 O721 2.105 . S
Sc705 O725 2.105 . S
Sc706 O707 2.025 . S
Sc706 O716 2.105 . S
Sc706 O718 2.105 . S
Sc706 O722 2.105 . S
Sc706 O724 2.105 . S
O707 Sc704 2.025 . S
O707 Sc705 2.025 . S
O707 Sc706 2.025 . S
C708 O714 1.268 . S
C708 O724 1.268 . S
C709 O715 1.268 . S
C709 O723 1.268 . S
C710 O716 1.268 . S
C710 O725 1.268 . S
C711 O717 1.268 . S
C711 O721 1.268 . S
C712 O718 1.268 . S
C712 O720 1.268 . S
C713 O719 1.268 . S
C713 O722 1.268 . S
O714 Sc704 2.105 . S
O714 C708 1.268 . S
O715 Sc705 2.105 . S
O715 C709 1.268 . S
O716 Sc706 2.105 . S
O716 C710 1.268 . S
O717 Sc704 2.105 . S
O717 C711 1.268 . S
O718 Sc706 2.105 . S
O718 C712 1.268 . S
O719 Sc705 2.105 . S
O719 C713 1.268 . S
O720 Sc704 2.105 . S
O720 C712 1.268 . S
O721 Sc705 2.105 . S
O721 C711 1.268 . S
O722 Sc706 2.105 . S
O722 C713 1.268 . S
O723 Sc704 2.105 . S
O723 C709 1.268 . S
O724 Sc706 2.105 . S
O724 C708 1.268 . S
O725 Sc705 2.105 . S
O725 C710 1.268 . S
Sc726 O729 2.025 . S
Sc726 O736 2.105 . S
Sc726 O739 2.105 . S
Sc726 O742 2.105 . S
Sc726 O745 2.105 . S
Sc727 O729 2.025 . S
Sc727 O737 2.105 . S
Sc727 O741 2.105 . S
Sc727 O743 2.105 . S
Sc727 O747 2.105 . S
Sc728 O729 2.025 . S
Sc728 O738 2.105 . S
Sc728 O740 2.105 . S
Sc728 O744 2.105 . S
Sc728 O746 2.105 . S
O729 Sc726 2.025 . S
O729 Sc727 2.025 . S
O729 Sc728 2.025 . S
C730 O736 1.268 . S
C730 O746 1.268 . S
C731 O737 1.268 . S
C731 O745 1.268 . S
C732 O738 1.268 . S
C732 O747 1.268 . S
C733 O739 1.268 . S
C733 O743 1.268 . S
C734 O740 1.268 . S
C734 O742 1.268 . S
C735 O741 1.268 . S
C735 O744 1.268 . S
O736 Sc726 2.105 . S
O736 C730 1.268 . S
O737 Sc727 2.105 . S
O737 C731 1.268 . S
O738 Sc728 2.105 . S
O738 C732 1.268 . S
O739 Sc726 2.105 . S
O739 C733 1.268 . S
O740 Sc728 2.105 . S
O740 C734 1.268 . S
O741 Sc727 2.105 . S
O741 C735 1.268 . S
O742 Sc726 2.105 . S
O742 C734 1.268 . S
O743 Sc727 2.105 . S
O743 C733 1.268 . S
O744 Sc728 2.105 . S
O744 C735 1.268 . S
O745 Sc726 2.105 . S
O745 C731 1.268 . S
O746 Sc728 2.105 . S
O746 C730 1.268 . S
O747 Sc727 2.105 . S
O747 C732 1.268 . S
Sc748 O751 2.025 . S
Sc748 O758 2.105 . S
Sc748 O761 2.105 . S
Sc748 O764 2.105 . S
Sc748 O767 2.105 . S
Sc749 O751 2.025 . S
Sc749 O759 2.105 . S
Sc749 O763 2.105 . S
Sc749 O765 2.105 . S
Sc749 O769 2.105 . S
Sc750 O751 2.025 . S
Sc750 O760 2.105 . S
Sc750 O762 2.105 . S
Sc750 O766 2.105 . S
Sc750 O768 2.105 . S
O751 Sc748 2.025 . S
O751 Sc749 2.025 . S
O751 Sc750 2.025 . S
C752 O758 1.268 . S
C752 O768 1.268 . S
C753 O759 1.268 . S
C753 O767 1.268 . S
C754 O760 1.268 . S
C754 O769 1.268 . S
C755 O761 1.268 . S
C755 O765 1.268 . S
C756 O762 1.268 . S
C756 O764 1.268 . S
C757 O763 1.268 . S
C757 O766 1.268 . S
O758 Sc748 2.105 . S
O758 C752 1.268 . S
O759 Sc749 2.105 . S
O759 C753 1.268 . S
O760 Sc750 2.105 . S
O760 C754 1.268 . S
O761 Sc748 2.105 . S
O761 C755 1.268 . S
O762 Sc750 2.105 . S
O762 C756 1.268 . S
O763 Sc749 2.105 . S
O763 C757 1.268 . S
O764 Sc748 2.105 . S
O764 C756 1.268 . S
O765 Sc749 2.105 . S
O765 C755 1.268 . S
O766 Sc750 2.105 . S
O766 C757 1.268 . S
O767 Sc748 2.105 . S
O767 C753 1.268 . S
O768 Sc750 2.105 . S
O768 C752 1.268 . S
O769 Sc749 2.105 . S
O769 C754 1.268 . S
Sc770 O773 2.025 . S
Sc770 O780 2.105 . S
Sc770 O783 2.105 . S
Sc770 O786 2.105 . S
Sc770 O789 2.105 . S
Sc771 O773 2.025 . S
Sc771 O781 2.105 . S
Sc771 O785 2.105 . S
Sc771 O787 2.105 . S
Sc771 O791 2.105 . S
Sc772 O773 2.025 . S
Sc772 O782 2.105 . S
Sc772 O784 2.105 . S
Sc772 O788 2.105 . S
Sc772 O790 2.105 . S
O773 Sc770 2.025 . S
O773 Sc771 2.025 . S
O773 Sc772 2.025 . S
C774 O780 1.268 . S
C774 O790 1.268 . S
C775 O781 1.268 . S
C775 O789 1.268 . S
C776 O782 1.268 . S
C776 O791 1.268 . S
C777 O783 1.268 . S
C777 O787 1.268 . S
C778 O784 1.268 . S
C778 O786 1.268 . S
C779 O785 1.268 . S
C779 O788 1.268 . S
O780 Sc770 2.105 . S
O780 C774 1.268 . S
O781 Sc771 2.105 . S
O781 C775 1.268 . S
O782 Sc772 2.105 . S
O782 C776 1.268 . S
O783 Sc770 2.105 . S
O783 C777 1.268 . S
O784 Sc772 2.105 . S
O784 C778 1.268 . S
O785 Sc771 2.105 . S
O785 C779 1.268 . S
O786 Sc770 2.105 . S
O786 C778 1.268 . S
O787 Sc771 2.105 . S
O787 C777 1.268 . S
O788 Sc772 2.105 . S
O788 C779 1.268 . S
O789 Sc770 2.105 . S
O789 C775 1.268 . S
O790 Sc772 2.105 . S
O790 C774 1.268 . S
O791 Sc771 2.105 . S
O791 C776 1.268 . S
C792 C793 1.349 . S
C792 C794 1.327 . S
C792 H817 0.950 . S
C793 C792 1.349 . S
C793 C809 1.349 . S
C794 C792 1.327 . S
C794 C813 1.429 . S
C794 H818 0.950 . S
C795 C812 1.574 . S
C795 C814 1.368 . S
C795 H819 0.949 . S
H796 C800 0.949 . S
C797 C798 1.349 . S
C797 C799 1.327 . S
C797 H820 0.950 . S
C798 C797 1.349 . S
C798 C810 1.349 . S
C799 C797 1.327 . S
C799 C815 1.429 . S
C799 H821 0.950 . S
C800 H796 0.949 . S
C800 C808 1.574 . S
C800 C816 1.368 . S
H801 C809 0.950 . S
H802 C807 0.950 . S
H803 C808 0.949 . S
H804 C810 0.950 . S
H805 C811 0.950 . S
H806 C812 0.949 . S
C807 H802 0.950 . S
C807 C809 1.327 . S
C807 C813 1.429 . S
C808 C800 1.574 . S
C808 H803 0.949 . S
C808 C814 1.368 . S
C809 C793 1.349 . S
C809 H801 0.950 . S
C809 C807 1.327 . S
C810 C798 1.349 . S
C810 H804 0.950 . S
C810 C811 1.327 . S
C811 H805 0.950 . S
C811 C810 1.327 . S
C811 C815 1.429 . S
C812 C795 1.574 . S
C812 H806 0.949 . S
C812 C816 1.368 . S
C813 C794 1.429 . S
C813 C807 1.429 . S
C813 C814 1.523 . S
C814 C795 1.368 . S
C814 C808 1.368 . S
C814 C813 1.523 . S
C815 C799 1.429 . S
C815 C811 1.429 . S
C815 C816 1.523 . S
C816 C800 1.368 . S
C816 C812 1.368 . S
C816 C815 1.523 . S
H817 C792 0.950 . S
H818 C794 0.950 . S
H819 C795 0.949 . S
H820 C797 0.950 . S
H821 C799 0.950 . S
C822 C823 1.349 . S
C822 C824 1.327 . S
C822 H847 0.950 . S
C823 C822 1.349 . S
C823 C839 1.349 . S
C824 C822 1.327 . S
C824 C843 1.429 . S
C824 H848 0.950 . S
C825 C842 1.574 . S
C825 C844 1.368 . S
C825 H849 0.949 . S
H826 C830 0.949 . S
C827 C828 1.349 . S
C827 C829 1.327 . S
C827 H850 0.950 . S
C828 C827 1.349 . S
C828 C840 1.349 . S
C829 C827 1.327 . S
C829 C845 1.429 . S
C829 H851 0.950 . S
C830 H826 0.949 . S
C830 C838 1.574 . S
C830 C846 1.368 . S
H831 C839 0.950 . S
H832 C837 0.950 . S
H833 C838 0.949 . S
H834 C840 0.950 . S
H835 C841 0.950 . S
H836 C842 0.949 . S
C837 H832 0.950 . S
C837 C839 1.327 . S
C837 C843 1.429 . S
C838 C830 1.574 . S
C838 H833 0.949 . S
C838 C844 1.368 . S
C839 C823 1.349 . S
C839 H831 0.950 . S
C839 C837 1.327 . S
C840 C828 1.349 . S
C840 H834 0.950 . S
C840 C841 1.327 . S
C841 H835 0.950 . S
C841 C840 1.327 . S
C841 C845 1.429 . S
C842 C825 1.574 . S
C842 H836 0.949 . S
C842 C846 1.368 . S
C843 C824 1.429 . S
C843 C837 1.429 . S
C843 C844 1.523 . S
C844 C825 1.368 . S
C844 C838 1.368 . S
C844 C843 1.523 . S
C845 C829 1.429 . S
C845 C841 1.429 . S
C845 C846 1.523 . S
C846 C830 1.368 . S
C846 C842 1.368 . S
C846 C845 1.523 . S
H847 C822 0.950 . S
H848 C824 0.950 . S
H849 C825 0.949 . S
H850 C827 0.950 . S
H851 C829 0.950 . S
C852 C853 1.349 . S
C852 C854 1.327 . S
C852 H877 0.950 . S
C853 C852 1.349 . S
C853 C869 1.349 . S
C854 C852 1.327 . S
C854 C873 1.429 . S
C854 H878 0.950 . S
C855 C872 1.574 . S
C855 C874 1.368 . S
C855 H879 0.949 . S
H856 C860 0.949 . S
C857 C858 1.349 . S
C857 C859 1.327 . S
C857 H880 0.950 . S
C858 C857 1.349 . S
C858 C870 1.349 . S
C859 C857 1.327 . S
C859 C875 1.429 . S
C859 H881 0.950 . S
C860 H856 0.949 . S
C860 C868 1.574 . S
C860 C876 1.368 . S
H861 C869 0.950 . S
H862 C867 0.950 . S
H863 C868 0.949 . S
H864 C870 0.950 . S
H865 C871 0.950 . S
H866 C872 0.949 . S
C867 H862 0.950 . S
C867 C869 1.327 . S
C867 C873 1.429 . S
C868 C860 1.574 . S
C868 H863 0.949 . S
C868 C874 1.368 . S
C869 C853 1.349 . S
C869 H861 0.950 . S
C869 C867 1.327 . S
C870 C858 1.349 . S
C870 H864 0.950 . S
C870 C871 1.327 . S
C871 H865 0.950 . S
C871 C870 1.327 . S
C871 C875 1.429 . S
C872 C855 1.574 . S
C872 H866 0.949 . S
C872 C876 1.368 . S
C873 C854 1.429 . S
C873 C867 1.429 . S
C873 C874 1.523 . S
C874 C855 1.368 . S
C874 C868 1.368 . S
C874 C873 1.523 . S
C875 C859 1.429 . S
C875 C871 1.429 . S
C875 C876 1.523 . S
C876 C860 1.368 . S
C876 C872 1.368 . S
C876 C875 1.523 . S
H877 C852 0.950 . S
H878 C854 0.950 . S
H879 C855 0.949 . S
H880 C857 0.950 . S
H881 C859 0.950 . S
C882 C883 1.349 . S
C882 C884 1.327 . S
C882 H907 0.950 . S
C883 C882 1.349 . S
C883 C899 1.349 . S
C884 C882 1.327 . S
C884 C903 1.429 . S
C884 H908 0.950 . S
C885 C902 1.574 . S
C885 C904 1.368 . S
C885 H909 0.949 . S
H886 C890 0.949 . S
C887 C888 1.349 . S
C887 C889 1.327 . S
C887 H910 0.950 . S
C888 C887 1.349 . S
C888 C900 1.349 . S
C889 C887 1.327 . S
C889 C905 1.429 . S
C889 H911 0.950 . S
C890 H886 0.949 . S
C890 C898 1.574 . S
C890 C906 1.368 . S
H891 C899 0.950 . S
H892 C897 0.950 . S
H893 C898 0.949 . S
H894 C900 0.950 . S
H895 C901 0.950 . S
H896 C902 0.949 . S
C897 H892 0.950 . S
C897 C899 1.327 . S
C897 C903 1.429 . S
C898 C890 1.574 . S
C898 H893 0.949 . S
C898 C904 1.368 . S
C899 C883 1.349 . S
C899 H891 0.950 . S
C899 C897 1.327 . S
C900 C888 1.349 . S
C900 H894 0.950 . S
C900 C901 1.327 . S
C901 H895 0.950 . S
C901 C900 1.327 . S
C901 C905 1.429 . S
C902 C885 1.574 . S
C902 H896 0.949 . S
C902 C906 1.368 . S
C903 C884 1.429 . S
C903 C897 1.429 . S
C903 C904 1.523 . S
C904 C885 1.368 . S
C904 C898 1.368 . S
C904 C903 1.523 . S
C905 C889 1.429 . S
C905 C901 1.429 . S
C905 C906 1.523 . S
C906 C890 1.368 . S
C906 C902 1.368 . S
C906 C905 1.523 . S
H907 C882 0.950 . S
H908 C884 0.950 . S
H909 C885 0.949 . S
H910 C887 0.950 . S
H911 C889 0.950 . S
C912 C913 1.349 . S
C912 C914 1.327 . S
C912 H937 0.950 . S
C913 C912 1.349 . S
C913 C929 1.349 . S
C914 C912 1.327 . S
C914 C933 1.429 . S
C914 H938 0.950 . S
C915 C932 1.574 . S
C915 C934 1.368 . S
C915 H939 0.949 . S
H916 C920 0.949 . S
C917 C918 1.349 . S
C917 C919 1.327 . S
C917 H940 0.950 . S
C918 C917 1.349 . S
C918 C930 1.349 . S
C919 C917 1.327 . S
C919 C935 1.429 . S
C919 H941 0.950 . S
C920 H916 0.949 . S
C920 C928 1.574 . S
C920 C936 1.368 . S
H921 C929 0.950 . S
H922 C927 0.950 . S
H923 C928 0.949 . S
H924 C930 0.950 . S
H925 C931 0.950 . S
H926 C932 0.949 . S
C927 H922 0.950 . S
C927 C929 1.327 . S
C927 C933 1.429 . S
C928 C920 1.574 . S
C928 H923 0.949 . S
C928 C934 1.368 . S
C929 C913 1.349 . S
C929 H921 0.950 . S
C929 C927 1.327 . S
C930 C918 1.349 . S
C930 H924 0.950 . S
C930 C931 1.327 . S
C931 H925 0.950 . S
C931 C930 1.327 . S
C931 C935 1.429 . S
C932 C915 1.574 . S
C932 H926 0.949 . S
C932 C936 1.368 . S
C933 C914 1.429 . S
C933 C927 1.429 . S
C933 C934 1.523 . S
C934 C915 1.368 . S
C934 C928 1.368 . S
C934 C933 1.523 . S
C935 C919 1.429 . S
C935 C931 1.429 . S
C935 C936 1.523 . S
C936 C920 1.368 . S
C936 C932 1.368 . S
C936 C935 1.523 . S
H937 C912 0.950 . S
H938 C914 0.950 . S
H939 C915 0.949 . S
H940 C917 0.950 . S
H941 C919 0.950 . S
C942 C943 1.349 . S
C942 C944 1.327 . S
C942 H967 0.950 . S
C943 C942 1.349 . S
C943 C959 1.349 . S
C944 C942 1.327 . S
C944 C963 1.429 . S
C944 H968 0.950 . S
C945 C962 1.574 . S
C945 C964 1.368 . S
C945 H969 0.949 . S
H946 C950 0.949 . S
C947 C948 1.349 . S
C947 C949 1.327 . S
C947 H970 0.950 . S
C948 C947 1.349 . S
C948 C960 1.349 . S
C949 C947 1.327 . S
C949 C965 1.429 . S
C949 H971 0.950 . S
C950 H946 0.949 . S
C950 C958 1.574 . S
C950 C966 1.368 . S
H951 C959 0.950 . S
H952 C957 0.950 . S
H953 C958 0.949 . S
H954 C960 0.950 . S
H955 C961 0.950 . S
H956 C962 0.949 . S
C957 H952 0.950 . S
C957 C959 1.327 . S
C957 C963 1.429 . S
C958 C950 1.574 . S
C958 H953 0.949 . S
C958 C964 1.368 . S
C959 C943 1.349 . S
C959 H951 0.950 . S
C959 C957 1.327 . S
C960 C948 1.349 . S
C960 H954 0.950 . S
C960 C961 1.327 . S
C961 H955 0.950 . S
C961 C960 1.327 . S
C961 C965 1.429 . S
C962 C945 1.574 . S
C962 H956 0.949 . S
C962 C966 1.368 . S
C963 C944 1.429 . S
C963 C957 1.429 . S
C963 C964 1.523 . S
C964 C945 1.368 . S
C964 C958 1.368 . S
C964 C963 1.523 . S
C965 C949 1.429 . S
C965 C961 1.429 . S
C965 C966 1.523 . S
C966 C950 1.368 . S
C966 C962 1.368 . S
C966 C965 1.523 . S
H967 C942 0.950 . S
H968 C944 0.950 . S
H969 C945 0.949 . S
H970 C947 0.950 . S
H971 C949 0.950 . S
C972 C973 1.349 . S
C972 C974 1.327 . S
C972 H997 0.950 . S
C973 C972 1.349 . S
C973 C989 1.349 . S
C974 C972 1.327 . S
C974 C993 1.429 . S
C974 H998 0.950 . S
C975 C992 1.574 . S
C975 C994 1.368 . S
C975 H999 0.949 . S
H976 C980 0.949 . S
C977 C978 1.349 . S
C977 C979 1.327 . S
C977 H1000 0.950 . S
C978 C977 1.349 . S
C978 C990 1.349 . S
C979 C977 1.327 . S
C979 C995 1.429 . S
C979 H1001 0.950 . S
C980 H976 0.949 . S
C980 C988 1.574 . S
C980 C996 1.368 . S
H981 C989 0.950 . S
H982 C987 0.950 . S
H983 C988 0.949 . S
H984 C990 0.950 . S
H985 C991 0.950 . S
H986 C992 0.949 . S
C987 H982 0.950 . S
C987 C989 1.327 . S
C987 C993 1.429 . S
C988 C980 1.574 . S
C988 H983 0.949 . S
C988 C994 1.368 . S
C989 C973 1.349 . S
C989 H981 0.950 . S
C989 C987 1.327 . S
C990 C978 1.349 . S
C990 H984 0.950 . S
C990 C991 1.327 . S
C991 H985 0.950 . S
C991 C990 1.327 . S
C991 C995 1.429 . S
C992 C975 1.574 . S
C992 H986 0.949 . S
C992 C996 1.368 . S
C993 C974 1.429 . S
C993 C987 1.429 . S
C993 C994 1.523 . S
C994 C975 1.368 . S
C994 C988 1.368 . S
C994 C993 1.523 . S
C995 C979 1.429 . S
C995 C991 1.429 . S
C995 C996 1.523 . S
C996 C980 1.368 . S
C996 C992 1.368 . S
C996 C995 1.523 . S
H997 C972 0.950 . S
H998 C974 0.950 . S
H999 C975 0.949 . S
H1000 C977 0.950 . S
H1001 C979 0.950 . S
C1002 C1003 1.349 . S
C1002 C1004 1.327 . S
C1002 H1027 0.950 . S
C1003 C1002 1.349 . S
C1003 C1019 1.349 . S
C1004 C1002 1.327 . S
C1004 C1023 1.429 . S
C1004 H1028 0.950 . S
C1005 C1022 1.574 . S
C1005 C1024 1.368 . S
C1005 H1029 0.949 . S
H1006 C1010 0.949 . S
C1007 C1008 1.349 . S
C1007 C1009 1.327 . S
C1007 H1030 0.950 . S
C1008 C1007 1.349 . S
C1008 C1020 1.349 . S
C1009 C1007 1.327 . S
C1009 C1025 1.429 . S
C1009 H1031 0.950 . S
C1010 H1006 0.949 . S
C1010 C1018 1.574 . S
C1010 C1026 1.368 . S
H1011 C1019 0.950 . S
H1012 C1017 0.950 . S
H1013 C1018 0.949 . S
H1014 C1020 0.950 . S
H1015 C1021 0.950 . S
H1016 C1022 0.949 . S
C1017 H1012 0.950 . S
C1017 C1019 1.327 . S
C1017 C1023 1.429 . S
C1018 C1010 1.574 . S
C1018 H1013 0.949 . S
C1018 C1024 1.368 . S
C1019 C1003 1.349 . S
C1019 H1011 0.950 . S
C1019 C1017 1.327 . S
C1020 C1008 1.349 . S
C1020 H1014 0.950 . S
C1020 C1021 1.327 . S
C1021 H1015 0.950 . S
C1021 C1020 1.327 . S
C1021 C1025 1.429 . S
C1022 C1005 1.574 . S
C1022 H1016 0.949 . S
C1022 C1026 1.368 . S
C1023 C1004 1.429 . S
C1023 C1017 1.429 . S
C1023 C1024 1.523 . S
C1024 C1005 1.368 . S
C1024 C1018 1.368 . S
C1024 C1023 1.523 . S
C1025 C1009 1.429 . S
C1025 C1021 1.429 . S
C1025 C1026 1.523 . S
C1026 C1010 1.368 . S
C1026 C1022 1.368 . S
C1026 C1025 1.523 . S
H1027 C1002 0.950 . S
H1028 C1004 0.950 . S
H1029 C1005 0.949 . S
H1030 C1007 0.950 . S
H1031 C1009 0.950 . S
C1032 C1033 1.349 . S
C1032 C1034 1.327 . S
C1032 H1057 0.950 . S
C1033 C1032 1.349 . S
C1033 C1049 1.349 . S
C1034 C1032 1.327 . S
C1034 C1053 1.429 . S
C1034 H1058 0.950 . S
C1035 C1052 1.574 . S
C1035 C1054 1.368 . S
C1035 H1059 0.949 . S
H1036 C1040 0.949 . S
C1037 C1038 1.349 . S
C1037 C1039 1.327 . S
C1037 H1060 0.950 . S
C1038 C1037 1.349 . S
C1038 C1050 1.349 . S
C1039 C1037 1.327 . S
C1039 C1055 1.429 . S
C1039 H1061 0.950 . S
C1040 H1036 0.949 . S
C1040 C1048 1.574 . S
C1040 C1056 1.368 . S
H1041 C1049 0.950 . S
H1042 C1047 0.950 . S
H1043 C1048 0.949 . S
H1044 C1050 0.950 . S
H1045 C1051 0.950 . S
H1046 C1052 0.949 . S
C1047 H1042 0.950 . S
C1047 C1049 1.327 . S
C1047 C1053 1.429 . S
C1048 C1040 1.574 . S
C1048 H1043 0.949 . S
C1048 C1054 1.368 . S
C1049 C1033 1.349 . S
C1049 H1041 0.950 . S
C1049 C1047 1.327 . S
C1050 C1038 1.349 . S
C1050 H1044 0.950 . S
C1050 C1051 1.327 . S
C1051 H1045 0.950 . S
C1051 C1050 1.327 . S
C1051 C1055 1.429 . S
C1052 C1035 1.574 . S
C1052 H1046 0.949 . S
C1052 C1056 1.368 . S
C1053 C1034 1.429 . S
C1053 C1047 1.429 . S
C1053 C1054 1.523 . S
C1054 C1035 1.368 . S
C1054 C1048 1.368 . S
C1054 C1053 1.523 . S
C1055 C1039 1.429 . S
C1055 C1051 1.429 . S
C1055 C1056 1.523 . S
C1056 C1040 1.368 . S
C1056 C1052 1.368 . S
C1056 C1055 1.523 . S
H1057 C1032 0.950 . S
H1058 C1034 0.950 . S
H1059 C1035 0.949 . S
H1060 C1037 0.950 . S
H1061 C1039 0.950 . S
C1062 C1063 1.349 . S
C1062 C1064 1.327 . S
C1062 H1087 0.950 . S
C1063 C1062 1.349 . S
C1063 C1079 1.349 . S
C1064 C1062 1.327 . S
C1064 C1083 1.429 . S
C1064 H1088 0.950 . S
C1065 C1082 1.574 . S
C1065 C1084 1.368 . S
C1065 H1089 0.949 . S
H1066 C1070 0.949 . S
C1067 C1068 1.349 . S
C1067 C1069 1.327 . S
C1067 H1090 0.950 . S
C1068 C1067 1.349 . S
C1068 C1080 1.349 . S
C1069 C1067 1.327 . S
C1069 C1085 1.429 . S
C1069 H1091 0.950 . S
C1070 H1066 0.949 . S
C1070 C1078 1.574 . S
C1070 C1086 1.368 . S
H1071 C1079 0.950 . S
H1072 C1077 0.950 . S
H1073 C1078 0.949 . S
H1074 C1080 0.950 . S
H1075 C1081 0.950 . S
H1076 C1082 0.949 . S
C1077 H1072 0.950 . S
C1077 C1079 1.327 . S
C1077 C1083 1.429 . S
C1078 C1070 1.574 . S
C1078 H1073 0.949 . S
C1078 C1084 1.368 . S
C1079 C1063 1.349 . S
C1079 H1071 0.950 . S
C1079 C1077 1.327 . S
C1080 C1068 1.349 . S
C1080 H1074 0.950 . S
C1080 C1081 1.327 . S
C1081 H1075 0.950 . S
C1081 C1080 1.327 . S
C1081 C1085 1.429 . S
C1082 C1065 1.574 . S
C1082 H1076 0.949 . S
C1082 C1086 1.368 . S
C1083 C1064 1.429 . S
C1083 C1077 1.429 . S
C1083 C1084 1.523 . S
C1084 C1065 1.368 . S
C1084 C1078 1.368 . S
C1084 C1083 1.523 . S
C1085 C1069 1.429 . S
C1085 C1081 1.429 . S
C1085 C1086 1.523 . S
C1086 C1070 1.368 . S
C1086 C1082 1.368 . S
C1086 C1085 1.523 . S
H1087 C1062 0.950 . S
H1088 C1064 0.950 . S
H1089 C1065 0.949 . S
H1090 C1067 0.950 . S
H1091 C1069 0.950 . S
C1092 C1093 1.349 . S
C1092 C1094 1.327 . S
C1092 H1117 0.950 . S
C1093 C1092 1.349 . S
C1093 C1109 1.349 . S
C1094 C1092 1.327 . S
C1094 C1113 1.429 . S
C1094 H1118 0.950 . S
C1095 C1112 1.574 . S
C1095 C1114 1.368 . S
C1095 H1119 0.949 . S
H1096 C1100 0.949 . S
C1097 C1098 1.349 . S
C1097 C1099 1.327 . S
C1097 H1120 0.950 . S
C1098 C1097 1.349 . S
C1098 C1110 1.349 . S
C1099 C1097 1.327 . S
C1099 C1115 1.429 . S
C1099 H1121 0.950 . S
C1100 H1096 0.949 . S
C1100 C1108 1.574 . S
C1100 C1116 1.368 . S
H1101 C1109 0.950 . S
H1102 C1107 0.950 . S
H1103 C1108 0.949 . S
H1104 C1110 0.950 . S
H1105 C1111 0.950 . S
H1106 C1112 0.949 . S
C1107 H1102 0.950 . S
C1107 C1109 1.327 . S
C1107 C1113 1.429 . S
C1108 C1100 1.574 . S
C1108 H1103 0.949 . S
C1108 C1114 1.368 . S
C1109 C1093 1.349 . S
C1109 H1101 0.950 . S
C1109 C1107 1.327 . S
C1110 C1098 1.349 . S
C1110 H1104 0.950 . S
C1110 C1111 1.327 . S
C1111 H1105 0.950 . S
C1111 C1110 1.327 . S
C1111 C1115 1.429 . S
C1112 C1095 1.574 . S
C1112 H1106 0.949 . S
C1112 C1116 1.368 . S
C1113 C1094 1.429 . S
C1113 C1107 1.429 . S
C1113 C1114 1.523 . S
C1114 C1095 1.368 . S
C1114 C1108 1.368 . S
C1114 C1113 1.523 . S
C1115 C1099 1.429 . S
C1115 C1111 1.429 . S
C1115 C1116 1.523 . S
C1116 C1100 1.368 . S
C1116 C1112 1.368 . S
C1116 C1115 1.523 . S
H1117 C1092 0.950 . S
H1118 C1094 0.950 . S
H1119 C1095 0.949 . S
H1120 C1097 0.950 . S
H1121 C1099 0.950 . S
C1122 C1123 1.349 . S
C1122 C1124 1.327 . S
C1122 H1147 0.950 . S
C1123 C1122 1.349 . S
C1123 C1139 1.349 . S
C1124 C1122 1.327 . S
C1124 C1143 1.429 . S
C1124 H1148 0.950 . S
C1125 C1142 1.574 . S
C1125 C1144 1.368 . S
C1125 H1149 0.949 . S
H1126 C1130 0.949 . S
C1127 C1128 1.349 . S
C1127 C1129 1.327 . S
C1127 H1150 0.950 . S
C1128 C1127 1.349 . S
C1128 C1140 1.349 . S
C1129 C1127 1.327 . S
C1129 C1145 1.429 . S
C1129 H1151 0.950 . S
C1130 H1126 0.949 . S
C1130 C1138 1.574 . S
C1130 C1146 1.368 . S
H1131 C1139 0.950 . S
H1132 C1137 0.950 . S
H1133 C1138 0.949 . S
H1134 C1140 0.950 . S
H1135 C1141 0.950 . S
H1136 C1142 0.949 . S
C1137 H1132 0.950 . S
C1137 C1139 1.327 . S
C1137 C1143 1.429 . S
C1138 C1130 1.574 . S
C1138 H1133 0.949 . S
C1138 C1144 1.368 . S
C1139 C1123 1.349 . S
C1139 H1131 0.950 . S
C1139 C1137 1.327 . S
C1140 C1128 1.349 . S
C1140 H1134 0.950 . S
C1140 C1141 1.327 . S
C1141 H1135 0.950 . S
C1141 C1140 1.327 . S
C1141 C1145 1.429 . S
C1142 C1125 1.574 . S
C1142 H1136 0.949 . S
C1142 C1146 1.368 . S
C1143 C1124 1.429 . S
C1143 C1137 1.429 . S
C1143 C1144 1.523 . S
C1144 C1125 1.368 . S
C1144 C1138 1.368 . S
C1144 C1143 1.523 . S
C1145 C1129 1.429 . S
C1145 C1141 1.429 . S
C1145 C1146 1.523 . S
C1146 C1130 1.368 . S
C1146 C1142 1.368 . S
C1146 C1145 1.523 . S
H1147 C1122 0.950 . S
H1148 C1124 0.950 . S
H1149 C1125 0.949 . S
H1150 C1127 0.950 . S
H1151 C1129 0.950 . S
C1152 C1153 1.349 . S
C1152 C1154 1.327 . S
C1152 H1177 0.950 . S
C1153 C1152 1.349 . S
C1153 C1169 1.349 . S
C1154 C1152 1.327 . S
C1154 C1173 1.429 . S
C1154 H1178 0.950 . S
C1155 C1172 1.574 1_656 S
C1155 C1174 1.368 . S
C1155 H1179 0.949 . S
H1156 C1160 0.949 . S
C1157 C1158 1.349 . S
C1157 C1159 1.327 . S
C1157 H1180 0.950 . S
C1158 C1157 1.349 . S
C1158 C1170 1.349 . S
C1159 C1157 1.327 . S
C1159 C1175 1.429 . S
C1159 H1181 0.950 . S
C1160 H1156 0.949 . S
C1160 C1168 1.574 1_454 S
C1160 C1176 1.368 . S
H1161 C1169 0.950 . S
H1162 C1167 0.950 . S
H1163 C1168 0.949 . S
H1164 C1170 0.950 . S
H1165 C1171 0.950 . S
H1166 C1172 0.949 . S
C1167 H1162 0.950 . S
C1167 C1169 1.327 . S
C1167 C1173 1.429 . S
C1168 C1160 1.574 1_656 S
C1168 H1163 0.949 . S
C1168 C1174 1.368 . S
C1169 C1153 1.349 . S
C1169 H1161 0.950 . S
C1169 C1167 1.327 . S
C1170 C1158 1.349 . S
C1170 H1164 0.950 . S
C1170 C1171 1.327 . S
C1171 H1165 0.950 . S
C1171 C1170 1.327 . S
C1171 C1175 1.429 . S
C1172 C1155 1.574 1_454 S
C1172 H1166 0.949 . S
C1172 C1176 1.368 . S
C1173 C1154 1.429 . S
C1173 C1167 1.429 . S
C1173 C1174 1.523 . S
C1174 C1155 1.368 . S
C1174 C1168 1.368 . S
C1174 C1173 1.523 . S
C1175 C1159 1.429 . S
C1175 C1171 1.429 . S
C1175 C1176 1.523 . S
C1176 C1160 1.368 . S
C1176 C1172 1.368 . S
C1176 C1175 1.523 . S
H1177 C1152 0.950 . S
H1178 C1154 0.950 . S
H1179 C1155 0.949 . S
H1180 C1157 0.950 . S
H1181 C1159 0.950 . S
C1182 C1183 1.349 . S
C1182 C1184 1.327 . S
C1182 H1207 0.950 . S
C1183 C1182 1.349 . S
C1183 C1199 1.349 . S
C1184 C1182 1.327 . S
C1184 C1203 1.429 . S
C1184 H1208 0.950 . S
C1185 C1202 1.574 . S
C1185 C1204 1.368 1_556 S
C1185 H1209 0.949 . S
H1186 C1190 0.949 . S
C1187 C1188 1.349 . S
C1187 C1189 1.327 . S
C1187 H1210 0.950 . S
C1188 C1187 1.349 . S
C1188 C1200 1.349 . S
C1189 C1187 1.327 . S
C1189 C1205 1.429 . S
C1189 H1211 0.950 . S
C1190 H1186 0.949 . S
C1190 C1198 1.574 . S
C1190 C1206 1.368 1_554 S
H1191 C1199 0.950 . S
H1192 C1197 0.950 1_556 S
H1193 C1198 0.949 . S
H1194 C1200 0.950 . S
H1195 C1201 0.950 1_554 S
H1196 C1202 0.949 . S
C1197 H1192 0.950 1_554 S
C1197 C1199 1.327 . S
C1197 C1203 1.429 . S
C1198 C1190 1.574 . S
C1198 H1193 0.949 . S
C1198 C1204 1.368 . S
C1199 C1183 1.349 . S
C1199 H1191 0.950 . S
C1199 C1197 1.327 . S
C1200 C1188 1.349 . S
C1200 H1194 0.950 . S
C1200 C1201 1.327 . S
C1201 H1195 0.950 1_556 S
C1201 C1200 1.327 . S
C1201 C1205 1.429 . S
C1202 C1185 1.574 . S
C1202 H1196 0.949 . S
C1202 C1206 1.368 . S
C1203 C1184 1.429 . S
C1203 C1197 1.429 . S
C1203 C1204 1.523 . S
C1204 C1185 1.368 1_554 S
C1204 C1198 1.368 . S
C1204 C1203 1.523 . S
C1205 C1189 1.429 . S
C1205 C1201 1.429 . S
C1205 C1206 1.523 . S
C1206 C1190 1.368 1_556 S
C1206 C1202 1.368 . S
C1206 C1205 1.523 . S
H1207 C1182 0.950 . S
H1208 C1184 0.950 . S
H1209 C1185 0.949 . S
H1210 C1187 0.950 . S
H1211 C1189 0.950 . S
C1212 C1213 1.349 . S
C1212 C1214 1.327 . S
C1212 H1237 0.950 . S
C1213 C1212 1.349 . S
C1213 C1229 1.349 . S
C1214 C1212 1.327 . S
C1214 C1233 1.429 . S
C1214 H1238 0.950 . S
C1215 C1232 1.574 1_545 S
C1215 C1234 1.368 1_554 S
C1215 H1239 0.949 . S
H1216 C1220 0.949 . S
C1217 C1218 1.349 . S
C1217 C1219 1.327 . S
C1217 H1240 0.950 . S
C1218 C1217 1.349 . S
C1218 C1230 1.349 . S
C1219 C1217 1.327 . S
C1219 C1235 1.429 . S
C1219 H1241 0.950 . S
C1220 H1216 0.949 . S
C1220 C1228 1.574 1_565 S
C1220 C1236 1.368 1_556 S
H1221 C1229 0.950 . S
H1222 C1227 0.950 . S
H1223 C1228 0.949 . S
H1224 C1230 0.950 . S
H1225 C1231 0.950 . S
H1226 C1232 0.949 . S
C1227 H1222 0.950 . S
C1227 C1229 1.327 . S
C1227 C1233 1.429 . S
C1228 C1220 1.574 1_545 S
C1228 H1223 0.949 . S
C1228 C1234 1.368 . S
C1229 C1213 1.349 . S
C1229 H1221 0.950 . S
C1229 C1227 1.327 . S
C1230 C1218 1.349 . S
C1230 H1224 0.950 . S
C1230 C1231 1.327 . S
C1231 H1225 0.950 . S
C1231 C1230 1.327 . S
C1231 C1235 1.429 . S
C1232 C1215 1.574 1_565 S
C1232 H1226 0.949 . S
C1232 C1236 1.368 . S
C1233 C1214 1.429 . S
C1233 C1227 1.429 . S
C1233 C1234 1.523 . S
C1234 C1215 1.368 1_556 S
C1234 C1228 1.368 . S
C1234 C1233 1.523 . S
C1235 C1219 1.429 . S
C1235 C1231 1.429 . S
C1235 C1236 1.523 . S
C1236 C1220 1.368 1_554 S
C1236 C1232 1.368 . S
C1236 C1235 1.523 . S
H1237 C1212 0.950 . S
H1238 C1214 0.950 . S
H1239 C1215 0.949 . S
H1240 C1217 0.950 . S
H1241 C1219 0.950 . S
C1242 C1243 1.349 . S
C1242 C1244 1.327 . S
C1242 H1267 0.950 . S
C1243 C1242 1.349 . S
C1243 C1259 1.349 . S
C1244 C1242 1.327 . S
C1244 C1263 1.429 . S
C1244 H1268 0.950 1_554 S
C1245 C1262 1.531 1_565 S
C1245 C1264 1.406 . S
C1245 H1269 0.945 . S
H1246 C1250 0.945 . S
C1247 C1248 1.349 . S
C1247 C1249 1.327 . S
C1247 H1270 0.950 . S
C1248 C1247 1.349 . S
C1248 C1260 1.349 . S
C1249 C1247 1.327 . S
C1249 C1265 1.429 . S
C1249 H1271 0.950 1_556 S
C1250 H1246 0.945 . S
C1250 C1258 1.532 1_545 S
C1250 C1266 1.405 . S
H1251 C1259 0.950 . S
H1252 C1257 0.950 . S
H1253 C1258 0.949 . S
H1254 C1260 0.950 . S
H1255 C1261 0.950 . S
H1256 C1262 0.949 . S
C1257 H1252 0.950 . S
C1257 C1259 1.327 . S
C1257 C1263 1.429 . S
C1258 C1250 1.532 1_565 S
C1258 H1253 0.949 . S
C1258 C1264 1.368 1_556 S
C1259 C1243 1.349 . S
C1259 H1251 0.950 . S
C1259 C1257 1.327 . S
C1260 C1248 1.349 . S
C1260 H1254 0.950 . S
C1260 C1261 1.327 . S
C1261 H1255 0.950 . S
C1261 C1260 1.327 . S
C1261 C1265 1.429 . S
C1262 C1245 1.531 1_545 S
C1262 H1256 0.949 . S
C1262 C1266 1.368 1_554 S
C1263 C1244 1.429 . S
C1263 C1257 1.429 . S
C1263 C1264 1.523 . S
C1264 C1245 1.406 . S
C1264 C1258 1.368 1_554 S
C1264 C1263 1.523 . S
C1265 C1249 1.429 . S
C1265 C1261 1.429 . S
C1265 C1266 1.523 . S
C1266 C1250 1.405 . S
C1266 C1262 1.368 1_556 S
C1266 C1265 1.523 . S
H1267 C1242 0.950 . S
H1268 C1244 0.950 1_556 S
H1269 C1245 0.945 . S
H1270 C1247 0.950 . S
H1271 C1249 0.950 1_554 S
C1272 C1273 1.349 . S
C1272 C1274 1.327 . S
C1272 H1297 0.950 . S
C1273 C1272 1.349 . S
C1273 C1289 1.349 . S
C1274 C1272 1.327 . S
C1274 C1293 1.429 . S
C1274 H1298 0.950 1_554 S
C1275 C1292 1.530 1_455 S
C1275 C1294 1.412 . S
C1275 H1299 0.951 . S
H1276 C1280 0.951 . S
C1277 C1278 1.349 . S
C1277 C1279 1.327 . S
C1277 H1300 0.950 . S
C1278 C1277 1.349 . S
C1278 C1290 1.349 . S
C1279 C1277 1.327 . S
C1279 C1295 1.429 . S
C1279 H1301 0.950 1_556 S
C1280 H1276 0.951 . S
C1280 C1288 1.529 1_655 S
C1280 C1296 1.413 . S
H1281 C1289 0.950 . S
H1282 C1287 0.950 . S
H1283 C1288 0.949 . S
H1284 C1290 0.950 . S
H1285 C1291 0.950 . S
H1286 C1292 0.949 . S
C1287 H1282 0.950 . S
C1287 C1289 1.327 . S
C1287 C1293 1.429 . S
C1288 C1280 1.529 1_455 S
C1288 H1283 0.949 . S
C1288 C1294 1.368 1_556 S
C1289 C1273 1.349 . S
C1289 H1281 0.950 . S
C1289 C1287 1.327 . S
C1290 C1278 1.349 . S
C1290 H1284 0.950 . S
C1290 C1291 1.327 . S
C1291 H1285 0.950 . S
C1291 C1290 1.327 . S
C1291 C1295 1.429 . S
C1292 C1275 1.530 1_655 S
C1292 H1286 0.949 . S
C1292 C1296 1.368 1_554 S
C1293 C1274 1.429 . S
C1293 C1287 1.429 . S
C1293 C1294 1.523 . S
C1294 C1275 1.412 . S
C1294 C1288 1.368 1_554 S
C1294 C1293 1.523 . S
C1295 C1279 1.429 . S
C1295 C1291 1.429 . S
C1295 C1296 1.523 . S
C1296 C1280 1.413 . S
C1296 C1292 1.368 1_556 S
C1296 C1295 1.523 . S
H1297 C1272 0.950 . S
H1298 C1274 0.950 1_556 S
H1299 C1275 0.951 . S
H1300 C1277 0.950 . S
H1301 C1279 0.950 1_554 S
C1302 C1303 1.349 . S
C1302 C1304 1.327 . S
C1302 H1327 0.950 . S
C1303 C1302 1.349 . S
C1303 C1319 1.349 . S
C1304 C1302 1.327 . S
C1304 C1323 1.429 . S
C1304 H1328 0.950 . S
C1305 C1322 1.574 . S
C1305 C1324 1.368 1_554 S
C1305 H1329 0.949 . S
H1306 C1310 0.949 . S
C1307 C1308 1.349 . S
C1307 C1309 1.327 . S
C1307 H1330 0.950 . S
C1308 C1307 1.349 . S
C1308 C1320 1.349 . S
C1309 C1307 1.327 . S
C1309 C1325 1.429 . S
C1309 H1331 0.950 . S
C1310 H1306 0.949 . S
C1310 C1318 1.574 . S
C1310 C1326 1.368 1_556 S
H1311 C1319 0.950 . S
H1312 C1317 0.950 . S
H1313 C1318 0.949 . S
H1314 C1320 0.950 . S
H1315 C1321 0.950 . S
H1316 C1322 0.949 . S
C1317 H1312 0.950 . S
C1317 C1319 1.327 . S
C1317 C1323 1.429 . S
C1318 C1310 1.574 . S
C1318 H1313 0.949 . S
C1318 C1324 1.368 . S
C1319 C1303 1.349 . S
C1319 H1311 0.950 . S
C1319 C1317 1.327 . S
C1320 C1308 1.349 . S
C1320 H1314 0.950 . S
C1320 C1321 1.327 . S
C1321 H1315 0.950 . S
C1321 C1320 1.327 . S
C1321 C1325 1.429 . S
C1322 C1305 1.574 . S
C1322 H1316 0.949 . S
C1322 C1326 1.368 . S
C1323 C1304 1.429 . S
C1323 C1317 1.429 . S
C1323 C1324 1.523 . S
C1324 C1305 1.368 1_556 S
C1324 C1318 1.368 . S
C1324 C1323 1.523 . S
C1325 C1309 1.429 . S
C1325 C1321 1.429 . S
C1325 C1326 1.523 . S
C1326 C1310 1.368 1_554 S
C1326 C1322 1.368 . S
C1326 C1325 1.523 . S
H1327 C1302 0.950 . S
H1328 C1304 0.950 . S
H1329 C1305 0.949 . S
H1330 C1307 0.950 . S
H1331 C1309 0.950 . S
C1332 C1333 1.349 . S
C1332 C1334 1.327 . S
C1332 H1357 0.950 . S
C1333 C1332 1.349 . S
C1333 C1349 1.349 . S
C1334 C1332 1.327 . S
C1334 C1353 1.429 . S
C1334 H1358 0.950 . S
C1335 C1352 1.574 . S
C1335 C1354 1.368 . S
C1335 H1359 0.949 . S
H1336 C1340 0.949 . S
C1337 C1338 1.349 . S
C1337 C1339 1.327 . S
C1337 H1360 0.950 . S
C1338 C1337 1.349 . S
C1338 C1350 1.349 . S
C1339 C1337 1.327 . S
C1339 C1355 1.429 . S
C1339 H1361 0.950 . S
C1340 H1336 0.949 . S
C1340 C1348 1.574 . S
C1340 C1356 1.368 . S
H1341 C1349 0.950 . S
H1342 C1347 0.950 . S
H1343 C1348 0.949 . S
H1344 C1350 0.950 . S
H1345 C1351 0.950 . S
H1346 C1352 0.949 . S
C1347 H1342 0.950 . S
C1347 C1349 1.327 . S
C1347 C1353 1.429 . S
C1348 C1340 1.574 . S
C1348 H1343 0.949 . S
C1348 C1354 1.368 . S
C1349 C1333 1.349 . S
C1349 H1341 0.950 . S
C1349 C1347 1.327 . S
C1350 C1338 1.349 . S
C1350 H1344 0.950 . S
C1350 C1351 1.327 . S
C1351 H1345 0.950 . S
C1351 C1350 1.327 . S
C1351 C1355 1.429 . S
C1352 C1335 1.574 . S
C1352 H1346 0.949 . S
C1352 C1356 1.368 . S
C1353 C1334 1.429 . S
C1353 C1347 1.429 . S
C1353 C1354 1.523 . S
C1354 C1335 1.368 . S
C1354 C1348 1.368 . S
C1354 C1353 1.523 . S
C1355 C1339 1.429 . S
C1355 C1351 1.429 . S
C1355 C1356 1.523 . S
C1356 C1340 1.368 . S
C1356 C1352 1.368 . S
C1356 C1355 1.523 . S
H1357 C1332 0.950 . S
H1358 C1334 0.950 . S
H1359 C1335 0.949 . S
H1360 C1337 0.950 . S
H1361 C1339 0.950 . S
C1362 C1363 1.349 . S
C1362 C1364 1.327 . S
C1362 H1387 0.950 . S
C1363 C1362 1.349 . S
C1363 C1379 1.349 . S
C1364 C1362 1.327 . S
C1364 C1383 1.429 . S
C1364 H1388 0.950 . S
C1365 C1382 1.574 . S
C1365 C1384 1.368 . S
C1365 H1389 0.949 . S
H1366 C1370 0.949 . S
C1367 C1368 1.349 . S
C1367 C1369 1.327 . S
C1367 H1390 0.950 . S
C1368 C1367 1.349 . S
C1368 C1380 1.349 . S
C1369 C1367 1.327 . S
C1369 C1385 1.429 . S
C1369 H1391 0.950 . S
C1370 H1366 0.949 . S
C1370 C1378 1.574 . S
C1370 C1386 1.368 . S
H1371 C1379 0.950 . S
H1372 C1377 0.950 . S
H1373 C1378 0.949 . S
H1374 C1380 0.950 . S
H1375 C1381 0.950 . S
H1376 C1382 0.949 . S
C1377 H1372 0.950 . S
C1377 C1379 1.327 . S
C1377 C1383 1.429 . S
C1378 C1370 1.574 . S
C1378 H1373 0.949 . S
C1378 C1384 1.368 . S
C1379 C1363 1.349 . S
C1379 H1371 0.950 . S
C1379 C1377 1.327 . S
C1380 C1368 1.349 . S
C1380 H1374 0.950 . S
C1380 C1381 1.327 . S
C1381 H1375 0.950 . S
C1381 C1380 1.327 . S
C1381 C1385 1.429 . S
C1382 C1365 1.574 . S
C1382 H1376 0.949 . S
C1382 C1386 1.368 . S
C1383 C1364 1.429 . S
C1383 C1377 1.429 . S
C1383 C1384 1.523 . S
C1384 C1365 1.368 . S
C1384 C1378 1.368 . S
C1384 C1383 1.523 . S
C1385 C1369 1.429 . S
C1385 C1381 1.429 . S
C1385 C1386 1.523 . S
C1386 C1370 1.368 . S
C1386 C1382 1.368 . S
C1386 C1385 1.523 . S
H1387 C1362 0.950 . S
H1388 C1364 0.950 . S
H1389 C1365 0.949 . S
H1390 C1367 0.950 . S
H1391 C1369 0.950 . S
C1392 C1393 1.349 . S
C1392 C1394 1.327 . S
C1392 H1417 0.950 . S
C1393 C1392 1.349 . S
C1393 C1409 1.349 . S
C1394 C1392 1.327 . S
C1394 C1413 1.429 . S
C1394 H1418 0.950 . S
C1395 C1412 1.574 . S
C1395 C1414 1.368 . S
C1395 H1419 0.949 . S
H1396 C1400 0.949 . S
C1397 C1398 1.349 . S
C1397 C1399 1.327 . S
C1397 H1420 0.950 . S
C1398 C1397 1.349 . S
C1398 C1410 1.349 . S
C1399 C1397 1.327 . S
C1399 C1415 1.429 . S
C1399 H1421 0.950 . S
C1400 H1396 0.949 . S
C1400 C1408 1.574 . S
C1400 C1416 1.368 . S
H1401 C1409 0.950 . S
H1402 C1407 0.950 . S
H1403 C1408 0.949 . S
H1404 C1410 0.950 . S
H1405 C1411 0.950 . S
H1406 C1412 0.949 . S
C1407 H1402 0.950 . S
C1407 C1409 1.327 . S
C1407 C1413 1.429 . S
C1408 C1400 1.574 . S
C1408 H1403 0.949 . S
C1408 C1414 1.368 . S
C1409 C1393 1.349 . S
C1409 H1401 0.950 . S
C1409 C1407 1.327 . S
C1410 C1398 1.349 . S
C1410 H1404 0.950 . S
C1410 C1411 1.327 . S
C1411 H1405 0.950 . S
C1411 C1410 1.327 . S
C1411 C1415 1.429 . S
C1412 C1395 1.574 . S
C1412 H1406 0.949 . S
C1412 C1416 1.368 . S
C1413 C1394 1.429 . S
C1413 C1407 1.429 . S
C1413 C1414 1.523 . S
C1414 C1395 1.368 . S
C1414 C1408 1.368 . S
C1414 C1413 1.523 . S
C1415 C1399 1.429 . S
C1415 C1411 1.429 . S
C1415 C1416 1.523 . S
C1416 C1400 1.368 . S
C1416 C1412 1.368 . S
C1416 C1415 1.523 . S
H1417 C1392 0.950 . S
H1418 C1394 0.950 . S
H1419 C1395 0.949 . S
H1420 C1397 0.950 . S
H1421 C1399 0.950 . S
C1422 C1423 1.349 . S
C1422 C1424 1.327 . S
C1422 H1447 0.950 . S
C1423 C1422 1.349 . S
C1423 C1439 1.349 . S
C1424 C1422 1.327 . S
C1424 C1443 1.429 . S
C1424 H1448 0.950 . S
C1425 C1442 1.574 . S
C1425 C1444 1.368 . S
C1425 H1449 0.949 . S
H1426 C1430 0.949 . S
C1427 C1428 1.349 . S
C1427 C1429 1.327 . S
C1427 H1450 0.950 . S
C1428 C1427 1.349 . S
C1428 C1440 1.349 . S
C1429 C1427 1.327 . S
C1429 C1445 1.429 . S
C1429 H1451 0.950 . S
C1430 H1426 0.949 . S
C1430 C1438 1.574 . S
C1430 C1446 1.368 . S
H1431 C1439 0.950 . S
H1432 C1437 0.950 . S
H1433 C1438 0.949 . S
H1434 C1440 0.950 . S
H1435 C1441 0.950 . S
H1436 C1442 0.949 . S
C1437 H1432 0.950 . S
C1437 C1439 1.327 . S
C1437 C1443 1.429 . S
C1438 C1430 1.574 . S
C1438 H1433 0.949 . S
C1438 C1444 1.368 . S
C1439 C1423 1.349 . S
C1439 H1431 0.950 . S
C1439 C1437 1.327 . S
C1440 C1428 1.349 . S
C1440 H1434 0.950 . S
C1440 C1441 1.327 . S
C1441 H1435 0.950 . S
C1441 C1440 1.327 . S
C1441 C1445 1.429 . S
C1442 C1425 1.574 . S
C1442 H1436 0.949 . S
C1442 C1446 1.368 . S
C1443 C1424 1.429 . S
C1443 C1437 1.429 . S
C1443 C1444 1.523 . S
C1444 C1425 1.368 . S
C1444 C1438 1.368 . S
C1444 C1443 1.523 . S
C1445 C1429 1.429 . S
C1445 C1441 1.429 . S
C1445 C1446 1.523 . S
C1446 C1430 1.368 . S
C1446 C1442 1.368 . S
C1446 C1445 1.523 . S
H1447 C1422 0.950 . S
H1448 C1424 0.950 . S
H1449 C1425 0.949 . S
H1450 C1427 0.950 . S
H1451 C1429 0.950 . S
C1452 C1453 1.349 . S
C1452 C1454 1.327 . S
C1452 H1477 0.950 . S
C1453 C1452 1.349 . S
C1453 C1469 1.349 . S
C1454 C1452 1.327 . S
C1454 C1473 1.429 . S
C1454 H1478 0.950 . S
C1455 C1472 1.574 . S
C1455 C1474 1.368 . S
C1455 H1479 0.949 . S
H1456 C1460 0.949 . S
C1457 C1458 1.349 . S
C1457 C1459 1.327 . S
C1457 H1480 0.950 . S
C1458 C1457 1.349 . S
C1458 C1470 1.349 . S
C1459 C1457 1.327 . S
C1459 C1475 1.429 . S
C1459 H1481 0.950 . S
C1460 H1456 0.949 . S
C1460 C1468 1.574 . S
C1460 C1476 1.368 . S
H1461 C1469 0.950 . S
H1462 C1467 0.950 . S
H1463 C1468 0.949 . S
H1464 C1470 0.950 . S
H1465 C1471 0.950 . S
H1466 C1472 0.949 . S
C1467 H1462 0.950 . S
C1467 C1469 1.327 . S
C1467 C1473 1.429 . S
C1468 C1460 1.574 . S
C1468 H1463 0.949 . S
C1468 C1474 1.368 . S
C1469 C1453 1.349 . S
C1469 H1461 0.950 . S
C1469 C1467 1.327 . S
C1470 C1458 1.349 . S
C1470 H1464 0.950 . S
C1470 C1471 1.327 . S
C1471 H1465 0.950 . S
C1471 C1470 1.327 . S
C1471 C1475 1.429 . S
C1472 C1455 1.574 . S
C1472 H1466 0.949 . S
C1472 C1476 1.368 . S
C1473 C1454 1.429 . S
C1473 C1467 1.429 . S
C1473 C1474 1.523 . S
C1474 C1455 1.368 . S
C1474 C1468 1.368 . S
C1474 C1473 1.523 . S
C1475 C1459 1.429 . S
C1475 C1471 1.429 . S
C1475 C1476 1.523 . S
C1476 C1460 1.368 . S
C1476 C1472 1.368 . S
C1476 C1475 1.523 . S
H1477 C1452 0.950 . S
H1478 C1454 0.950 . S
H1479 C1455 0.949 . S
H1480 C1457 0.950 . S
H1481 C1459 0.950 . S
C1482 C1483 1.349 . S
C1482 C1484 1.327 . S
C1482 H1507 0.950 . S
C1483 C1482 1.349 . S
C1483 C1499 1.349 . S
C1484 C1482 1.327 . S
C1484 C1503 1.429 . S
C1484 H1508 0.950 . S
C1485 C1502 1.574 . S
C1485 C1504 1.368 . S
C1485 H1509 0.949 . S
H1486 C1490 0.949 . S
C1487 C1488 1.349 . S
C1487 C1489 1.327 . S
C1487 H1510 0.950 . S
C1488 C1487 1.349 . S
C1488 C1500 1.349 . S
C1489 C1487 1.327 . S
C1489 C1505 1.429 . S
C1489 H1511 0.950 . S
C1490 H1486 0.949 . S
C1490 C1498 1.574 . S
C1490 C1506 1.368 . S
H1491 C1499 0.950 . S
H1492 C1497 0.950 . S
H1493 C1498 0.949 . S
H1494 C1500 0.950 . S
H1495 C1501 0.950 . S
H1496 C1502 0.949 . S
C1497 H1492 0.950 . S
C1497 C1499 1.327 . S
C1497 C1503 1.429 . S
C1498 C1490 1.574 . S
C1498 H1493 0.949 . S
C1498 C1504 1.368 . S
C1499 C1483 1.349 . S
C1499 H1491 0.950 . S
C1499 C1497 1.327 . S
C1500 C1488 1.349 . S
C1500 H1494 0.950 . S
C1500 C1501 1.327 . S
C1501 H1495 0.950 . S
C1501 C1500 1.327 . S
C1501 C1505 1.429 . S
C1502 C1485 1.574 . S
C1502 H1496 0.949 . S
C1502 C1506 1.368 . S
C1503 C1484 1.429 . S
C1503 C1497 1.429 . S
C1503 C1504 1.523 . S
C1504 C1485 1.368 . S
C1504 C1498 1.368 . S
C1504 C1503 1.523 . S
C1505 C1489 1.429 . S
C1505 C1501 1.429 . S
C1505 C1506 1.523 . S
C1506 C1490 1.368 . S
C1506 C1502 1.368 . S
C1506 C1505 1.523 . S
H1507 C1482 0.950 . S
H1508 C1484 0.950 . S
H1509 C1485 0.949 . S
H1510 C1487 0.950 . S
H1511 C1489 0.950 . S
C1512 C1513 1.349 . S
C1512 C1514 1.327 . S
C1512 H1537 0.950 . S
C1513 C1512 1.349 . S
C1513 C1529 1.349 . S
C1514 C1512 1.327 . S
C1514 C1533 1.429 . S
C1514 H1538 0.950 . S
C1515 C1532 1.574 . S
C1515 C1534 1.368 . S
C1515 H1539 0.949 . S
H1516 C1520 0.949 . S
C1517 C1518 1.349 . S
C1517 C1519 1.327 . S
C1517 H1540 0.950 . S
C1518 C1517 1.349 . S
C1518 C1530 1.349 . S
C1519 C1517 1.327 . S
C1519 C1535 1.429 . S
C1519 H1541 0.950 . S
C1520 H1516 0.949 . S
C1520 C1528 1.574 . S
C1520 C1536 1.368 . S
H1521 C1529 0.950 . S
H1522 C1527 0.950 . S
H1523 C1528 0.949 . S
H1524 C1530 0.950 . S
H1525 C1531 0.950 . S
H1526 C1532 0.949 . S
C1527 H1522 0.950 . S
C1527 C1529 1.327 . S
C1527 C1533 1.429 . S
C1528 C1520 1.574 . S
C1528 H1523 0.949 . S
C1528 C1534 1.368 . S
C1529 C1513 1.349 . S
C1529 H1521 0.950 . S
C1529 C1527 1.327 . S
C1530 C1518 1.349 . S
C1530 H1524 0.950 . S
C1530 C1531 1.327 . S
C1531 H1525 0.950 . S
C1531 C1530 1.327 . S
C1531 C1535 1.429 . S
C1532 C1515 1.574 . S
C1532 H1526 0.949 . S
C1532 C1536 1.368 . S
C1533 C1514 1.429 . S
C1533 C1527 1.429 . S
C1533 C1534 1.523 . S
C1534 C1515 1.368 . S
C1534 C1528 1.368 . S
C1534 C1533 1.523 . S
C1535 C1519 1.429 . S
C1535 C1531 1.429 . S
C1535 C1536 1.523 . S
C1536 C1520 1.368 . S
C1536 C1532 1.368 . S
C1536 C1535 1.523 . S
H1537 C1512 0.950 . S
H1538 C1514 0.950 . S
H1539 C1515 0.949 . S
H1540 C1517 0.950 . S
H1541 C1519 0.950 . S
C1542 C1543 1.349 . S
C1542 C1544 1.327 . S
C1542 H1567 0.950 . S
C1543 C1542 1.349 . S
C1543 C1559 1.349 . S
C1544 C1542 1.327 . S
C1544 C1563 1.429 . S
C1544 H1568 0.950 . S
C1545 C1562 1.574 . S
C1545 C1564 1.368 . S
C1545 H1569 0.949 . S
H1546 C1550 0.949 . S
C1547 C1548 1.349 . S
C1547 C1549 1.327 . S
C1547 H1570 0.950 . S
C1548 C1547 1.349 . S
C1548 C1560 1.349 . S
C1549 C1547 1.327 . S
C1549 C1565 1.429 . S
C1549 H1571 0.950 . S
C1550 H1546 0.949 . S
C1550 C1558 1.574 . S
C1550 C1566 1.368 . S
H1551 C1559 0.950 . S
H1552 C1557 0.950 . S
H1553 C1558 0.949 . S
H1554 C1560 0.950 . S
H1555 C1561 0.950 . S
H1556 C1562 0.949 . S
C1557 H1552 0.950 . S
C1557 C1559 1.327 . S
C1557 C1563 1.429 . S
C1558 C1550 1.574 . S
C1558 H1553 0.949 . S
C1558 C1564 1.368 . S
C1559 C1543 1.349 . S
C1559 H1551 0.950 . S
C1559 C1557 1.327 . S
C1560 C1548 1.349 . S
C1560 H1554 0.950 . S
C1560 C1561 1.327 . S
C1561 H1555 0.950 . S
C1561 C1560 1.327 . S
C1561 C1565 1.429 . S
C1562 C1545 1.574 . S
C1562 H1556 0.949 . S
C1562 C1566 1.368 . S
C1563 C1544 1.429 . S
C1563 C1557 1.429 . S
C1563 C1564 1.523 . S
C1564 C1545 1.368 . S
C1564 C1558 1.368 . S
C1564 C1563 1.523 . S
C1565 C1549 1.429 . S
C1565 C1561 1.429 . S
C1565 C1566 1.523 . S
C1566 C1550 1.368 . S
C1566 C1562 1.368 . S
C1566 C1565 1.523 . S
H1567 C1542 0.950 . S
H1568 C1544 0.950 . S
H1569 C1545 0.949 . S
H1570 C1547 0.950 . S
H1571 C1549 0.950 . S
C1572 C1573 1.349 . S
C1572 C1574 1.327 . S
C1572 H1597 0.950 . S
C1573 C1572 1.349 . S
C1573 C1589 1.349 . S
C1574 C1572 1.327 . S
C1574 C1593 1.429 . S
C1574 H1598 0.950 . S
C1575 C1592 1.574 . S
C1575 C1594 1.368 . S
C1575 H1599 0.949 . S
H1576 C1580 0.949 . S
C1577 C1578 1.349 . S
C1577 C1579 1.327 . S
C1577 H1600 0.950 . S
C1578 C1577 1.349 . S
C1578 C1590 1.349 . S
C1579 C1577 1.327 . S
C1579 C1595 1.429 . S
C1579 H1601 0.950 . S
C1580 H1576 0.949 . S
C1580 C1588 1.574 . S
C1580 C1596 1.368 . S
H1581 C1589 0.950 . S
H1582 C1587 0.950 . S
H1583 C1588 0.949 . S
H1584 C1590 0.950 . S
H1585 C1591 0.950 . S
H1586 C1592 0.949 . S
C1587 H1582 0.950 . S
C1587 C1589 1.327 . S
C1587 C1593 1.429 . S
C1588 C1580 1.574 . S
C1588 H1583 0.949 . S
C1588 C1594 1.368 . S
C1589 C1573 1.349 . S
C1589 H1581 0.950 . S
C1589 C1587 1.327 . S
C1590 C1578 1.349 . S
C1590 H1584 0.950 . S
C1590 C1591 1.327 . S
C1591 H1585 0.950 . S
C1591 C1590 1.327 . S
C1591 C1595 1.429 . S
C1592 C1575 1.574 . S
C1592 H1586 0.949 . S
C1592 C1596 1.368 . S
C1593 C1574 1.429 . S
C1593 C1587 1.429 . S
C1593 C1594 1.523 . S
C1594 C1575 1.368 . S
C1594 C1588 1.368 . S
C1594 C1593 1.523 . S
C1595 C1579 1.429 . S
C1595 C1591 1.429 . S
C1595 C1596 1.523 . S
C1596 C1580 1.368 . S
C1596 C1592 1.368 . S
C1596 C1595 1.523 . S
H1597 C1572 0.950 . S
H1598 C1574 0.950 . S
H1599 C1575 0.949 . S
H1600 C1577 0.950 . S
H1601 C1579 0.950 . S
C1602 C1603 1.349 . S
C1602 C1604 1.327 . S
C1602 H1627 0.950 . S
C1603 C1602 1.349 . S
C1603 C1619 1.349 . S
C1604 C1602 1.327 . S
C1604 C1623 1.429 . S
C1604 H1628 0.950 . S
C1605 C1622 1.574 . S
C1605 C1624 1.368 . S
C1605 H1629 0.949 . S
H1606 C1610 0.949 . S
C1607 C1608 1.349 . S
C1607 C1609 1.327 . S
C1607 H1630 0.950 . S
C1608 C1607 1.349 . S
C1608 C1620 1.349 . S
C1609 C1607 1.327 . S
C1609 C1625 1.429 . S
C1609 H1631 0.950 . S
C1610 H1606 0.949 . S
C1610 C1618 1.574 . S
C1610 C1626 1.368 . S
H1611 C1619 0.950 . S
H1612 C1617 0.950 . S
H1613 C1618 0.949 . S
H1614 C1620 0.950 . S
H1615 C1621 0.950 . S
H1616 C1622 0.949 . S
C1617 H1612 0.950 . S
C1617 C1619 1.327 . S
C1617 C1623 1.429 . S
C1618 C1610 1.574 . S
C1618 H1613 0.949 . S
C1618 C1624 1.368 . S
C1619 C1603 1.349 . S
C1619 H1611 0.950 . S
C1619 C1617 1.327 . S
C1620 C1608 1.349 . S
C1620 H1614 0.950 . S
C1620 C1621 1.327 . S
C1621 H1615 0.950 . S
C1621 C1620 1.327 . S
C1621 C1625 1.429 . S
C1622 C1605 1.574 . S
C1622 H1616 0.949 . S
C1622 C1626 1.368 . S
C1623 C1604 1.429 . S
C1623 C1617 1.429 . S
C1623 C1624 1.523 . S
C1624 C1605 1.368 . S
C1624 C1618 1.368 . S
C1624 C1623 1.523 . S
C1625 C1609 1.429 . S
C1625 C1621 1.429 . S
C1625 C1626 1.523 . S
C1626 C1610 1.368 . S
C1626 C1622 1.368 . S
C1626 C1625 1.523 . S
H1627 C1602 0.950 . S
H1628 C1604 0.950 . S
H1629 C1605 0.949 . S
H1630 C1607 0.950 . S
H1631 C1609 0.950 . S
C1632 C1633 1.349 . S
C1632 C1634 1.327 . S
C1632 H1657 0.950 . S
C1633 C1632 1.349 . S
C1633 C1649 1.349 . S
C1634 C1632 1.327 . S
C1634 C1653 1.429 . S
C1634 H1658 0.950 . S
C1635 C1652 1.574 . S
C1635 C1654 1.368 . S
C1635 H1659 0.949 . S
H1636 C1640 0.949 . S
C1637 C1638 1.349 . S
C1637 C1639 1.327 . S
C1637 H1660 0.950 . S
C1638 C1637 1.349 . S
C1638 C1650 1.349 . S
C1639 C1637 1.327 . S
C1639 C1655 1.429 . S
C1639 H1661 0.950 . S
C1640 H1636 0.949 . S
C1640 C1648 1.574 . S
C1640 C1656 1.368 . S
H1641 C1649 0.950 . S
H1642 C1647 0.950 . S
H1643 C1648 0.949 . S
H1644 C1650 0.950 . S
H1645 C1651 0.950 . S
H1646 C1652 0.949 . S
C1647 H1642 0.950 . S
C1647 C1649 1.327 . S
C1647 C1653 1.429 . S
C1648 C1640 1.574 . S
C1648 H1643 0.949 . S
C1648 C1654 1.368 . S
C1649 C1633 1.349 . S
C1649 H1641 0.950 . S
C1649 C1647 1.327 . S
C1650 C1638 1.349 . S
C1650 H1644 0.950 . S
C1650 C1651 1.327 . S
C1651 H1645 0.950 . S
C1651 C1650 1.327 . S
C1651 C1655 1.429 . S
C1652 C1635 1.574 . S
C1652 H1646 0.949 . S
C1652 C1656 1.368 . S
C1653 C1634 1.429 . S
C1653 C1647 1.429 . S
C1653 C1654 1.523 . S
C1654 C1635 1.368 . S
C1654 C1648 1.368 . S
C1654 C1653 1.523 . S
C1655 C1639 1.429 . S
C1655 C1651 1.429 . S
C1655 C1656 1.523 . S
C1656 C1640 1.368 . S
C1656 C1652 1.368 . S
C1656 C1655 1.523 . S
H1657 C1632 0.950 . S
H1658 C1634 0.950 . S
H1659 C1635 0.949 . S
H1660 C1637 0.950 . S
H1661 C1639 0.950 . S
C1662 C1663 1.349 . S
C1662 C1664 1.327 . S
C1662 H1687 0.950 . S
C1663 C1662 1.349 . S
C1663 C1679 1.349 . S
C1664 C1662 1.327 . S
C1664 C1683 1.429 . S
C1664 H1688 0.950 . S
C1665 C1682 1.574 . S
C1665 C1684 1.368 . S
C1665 H1689 0.949 . S
H1666 C1670 0.949 . S
C1667 C1668 1.349 . S
C1667 C1669 1.327 . S
C1667 H1690 0.950 . S
C1668 C1667 1.349 . S
C1668 C1680 1.349 . S
C1669 C1667 1.327 . S
C1669 C1685 1.429 . S
C1669 H1691 0.950 . S
C1670 H1666 0.949 . S
C1670 C1678 1.574 . S
C1670 C1686 1.368 . S
H1671 C1679 0.950 . S
H1672 C1677 0.950 . S
H1673 C1678 0.949 . S
H1674 C1680 0.950 . S
H1675 C1681 0.950 . S
H1676 C1682 0.949 . S
C1677 H1672 0.950 . S
C1677 C1679 1.327 . S
C1677 C1683 1.429 . S
C1678 C1670 1.574 . S
C1678 H1673 0.949 . S
C1678 C1684 1.368 . S
C1679 C1663 1.349 . S
C1679 H1671 0.950 . S
C1679 C1677 1.327 . S
C1680 C1668 1.349 . S
C1680 H1674 0.950 . S
C1680 C1681 1.327 . S
C1681 H1675 0.950 . S
C1681 C1680 1.327 . S
C1681 C1685 1.429 . S
C1682 C1665 1.574 . S
C1682 H1676 0.949 . S
C1682 C1686 1.368 . S
C1683 C1664 1.429 . S
C1683 C1677 1.429 . S
C1683 C1684 1.523 . S
C1684 C1665 1.368 . S
C1684 C1678 1.368 . S
C1684 C1683 1.523 . S
C1685 C1669 1.429 . S
C1685 C1681 1.429 . S
C1685 C1686 1.523 . S
C1686 C1670 1.368 . S
C1686 C1682 1.368 . S
C1686 C1685 1.523 . S
H1687 C1662 0.950 . S
H1688 C1664 0.950 . S
H1689 C1665 0.949 . S
H1690 C1667 0.950 . S
H1691 C1669 0.950 . S
C1692 C1693 1.349 . S
C1692 C1694 1.327 . S
C1692 H1717 0.950 . S
C1693 C1692 1.349 . S
C1693 C1709 1.349 . S
C1694 C1692 1.327 . S
C1694 C1713 1.429 . S
C1694 H1718 0.950 . S
C1695 C1712 1.574 . S
C1695 C1714 1.368 . S
C1695 H1719 0.949 . S
H1696 C1700 0.949 . S
C1697 C1698 1.349 . S
C1697 C1699 1.327 . S
C1697 H1720 0.950 . S
C1698 C1697 1.349 . S
C1698 C1710 1.349 . S
C1699 C1697 1.327 . S
C1699 C1715 1.429 . S
C1699 H1721 0.950 . S
C1700 H1696 0.949 . S
C1700 C1708 1.574 . S
C1700 C1716 1.368 . S
H1701 C1709 0.950 . S
H1702 C1707 0.950 . S
H1703 C1708 0.949 . S
H1704 C1710 0.950 . S
H1705 C1711 0.950 . S
H1706 C1712 0.949 . S
C1707 H1702 0.950 . S
C1707 C1709 1.327 . S
C1707 C1713 1.429 . S
C1708 C1700 1.574 . S
C1708 H1703 0.949 . S
C1708 C1714 1.368 . S
C1709 C1693 1.349 . S
C1709 H1701 0.950 . S
C1709 C1707 1.327 . S
C1710 C1698 1.349 . S
C1710 H1704 0.950 . S
C1710 C1711 1.327 . S
C1711 H1705 0.950 . S
C1711 C1710 1.327 . S
C1711 C1715 1.429 . S
C1712 C1695 1.574 . S
C1712 H1706 0.949 . S
C1712 C1716 1.368 . S
C1713 C1694 1.429 . S
C1713 C1707 1.429 . S
C1713 C1714 1.523 1_554 S
C1714 C1695 1.368 . S
C1714 C1708 1.368 . S
C1714 C1713 1.523 1_556 S
C1715 C1699 1.429 . S
C1715 C1711 1.429 . S
C1715 C1716 1.523 . S
C1716 C1700 1.368 . S
C1716 C1712 1.368 . S
C1716 C1715 1.523 . S
H1717 C1692 0.950 . S
H1718 C1694 0.950 . S
H1719 C1695 0.949 . S
H1720 C1697 0.950 . S
H1721 C1699 0.950 . S
C1722 C1723 1.349 . S
C1722 C1724 1.327 . S
C1722 H1747 0.950 . S
C1723 C1722 1.349 . S
C1723 C1739 1.349 . S
C1724 C1722 1.327 . S
C1724 C1743 1.429 . S
C1724 H1748 0.950 . S
C1725 C1742 1.574 . S
C1725 C1744 1.368 . S
C1725 H1749 0.949 . S
H1726 C1730 0.949 . S
C1727 C1728 1.349 . S
C1727 C1729 1.327 . S
C1727 H1750 0.950 . S
C1728 C1727 1.349 . S
C1728 C1740 1.349 . S
C1729 C1727 1.327 . S
C1729 C1745 1.429 . S
C1729 H1751 0.950 . S
C1730 H1726 0.949 . S
C1730 C1738 1.574 . S
C1730 C1746 1.368 . S
H1731 C1739 0.950 . S
H1732 C1737 0.950 . S
H1733 C1738 0.949 . S
H1734 C1740 0.950 . S
H1735 C1741 0.950 . S
H1736 C1742 0.949 . S
C1737 H1732 0.950 . S
C1737 C1739 1.327 . S
C1737 C1743 1.429 . S
C1738 C1730 1.574 . S
C1738 H1733 0.949 . S
C1738 C1744 1.368 . S
C1739 C1723 1.349 . S
C1739 H1731 0.950 . S
C1739 C1737 1.327 . S
C1740 C1728 1.349 . S
C1740 H1734 0.950 . S
C1740 C1741 1.327 . S
C1741 H1735 0.950 . S
C1741 C1740 1.327 . S
C1741 C1745 1.429 . S
C1742 C1725 1.574 . S
C1742 H1736 0.949 . S
C1742 C1746 1.368 . S
C1743 C1724 1.429 . S
C1743 C1737 1.429 . S
C1743 C1744 1.523 1_554 S
C1744 C1725 1.368 . S
C1744 C1738 1.368 . S
C1744 C1743 1.523 1_556 S
C1745 C1729 1.429 . S
C1745 C1741 1.429 . S
C1745 C1746 1.523 . S
C1746 C1730 1.368 . S
C1746 C1742 1.368 . S
C1746 C1745 1.523 . S
H1747 C1722 0.950 . S
H1748 C1724 0.950 . S
H1749 C1725 0.949 . S
H1750 C1727 0.950 . S
H1751 C1729 0.950 . S
C1752 C1753 1.349 . S
C1752 C1754 1.327 . S
C1752 H1777 0.950 . S
C1753 C1752 1.349 . S
C1753 C1769 1.349 . S
C1754 C1752 1.327 . S
C1754 C1773 1.429 . S
C1754 H1778 0.950 . S
C1755 C1772 1.574 . S
C1755 C1774 1.368 . S
C1755 H1779 0.949 . S
H1756 C1760 0.949 . S
C1757 C1758 1.349 . S
C1757 C1759 1.327 . S
C1757 H1780 0.950 . S
C1758 C1757 1.349 . S
C1758 C1770 1.349 . S
C1759 C1757 1.327 . S
C1759 C1775 1.429 . S
C1759 H1781 0.950 . S
C1760 H1756 0.949 . S
C1760 C1768 1.574 . S
C1760 C1776 1.368 . S
H1761 C1769 0.950 . S
H1762 C1767 0.950 . S
H1763 C1768 0.949 . S
H1764 C1770 0.950 . S
H1765 C1771 0.950 . S
H1766 C1772 0.949 . S
C1767 H1762 0.950 . S
C1767 C1769 1.327 . S
C1767 C1773 1.429 . S
C1768 C1760 1.574 . S
C1768 H1763 0.949 . S
C1768 C1774 1.368 . S
C1769 C1753 1.349 . S
C1769 H1761 0.950 . S
C1769 C1767 1.327 . S
C1770 C1758 1.349 . S
C1770 H1764 0.950 . S
C1770 C1771 1.327 . S
C1771 H1765 0.950 . S
C1771 C1770 1.327 . S
C1771 C1775 1.429 . S
C1772 C1755 1.574 . S
C1772 H1766 0.949 . S
C1772 C1776 1.368 . S
C1773 C1754 1.429 . S
C1773 C1767 1.429 . S
C1773 C1774 1.523 . S
C1774 C1755 1.368 . S
C1774 C1768 1.368 . S
C1774 C1773 1.523 . S
C1775 C1759 1.429 . S
C1775 C1771 1.429 . S
C1775 C1776 1.523 1_554 S
C1776 C1760 1.368 . S
C1776 C1772 1.368 . S
C1776 C1775 1.523 1_556 S
H1777 C1752 0.950 . S
H1778 C1754 0.950 . S
H1779 C1755 0.949 . S
H1780 C1757 0.950 . S
H1781 C1759 0.950 . S
C1782 C1783 1.349 . S
C1782 C1784 1.327 1_554 S
C1782 H1807 0.950 . S
C1783 C1782 1.349 . S
C1783 C1799 1.349 . S
C1784 C1782 1.327 1_556 S
C1784 C1803 1.429 . S
C1784 H1808 0.950 . S
C1785 C1802 1.574 . S
C1785 C1804 1.368 . S
C1785 H1809 0.949 . S
H1786 C1790 0.949 . S
C1787 C1788 1.349 . S
C1787 C1789 1.327 . S
C1787 H1810 0.950 . S
C1788 C1787 1.349 . S
C1788 C1800 1.349 . S
C1789 C1787 1.327 . S
C1789 C1805 1.429 . S
C1789 H1811 0.950 . S
C1790 H1786 0.949 . S
C1790 C1798 1.574 . S
C1790 C1806 1.368 . S
H1791 C1799 0.950 . S
H1792 C1797 0.950 . S
H1793 C1798 0.949 . S
H1794 C1800 0.950 . S
H1795 C1801 0.950 . S
H1796 C1802 0.949 . S
C1797 H1792 0.950 . S
C1797 C1799 1.327 1_556 S
C1797 C1803 1.429 . S
C1798 C1790 1.574 . S
C1798 H1793 0.949 . S
C1798 C1804 1.368 . S
C1799 C1783 1.349 . S
C1799 H1791 0.950 . S
C1799 C1797 1.327 1_554 S
C1800 C1788 1.349 . S
C1800 H1794 0.950 . S
C1800 C1801 1.327 . S
C1801 H1795 0.950 . S
C1801 C1800 1.327 . S
C1801 C1805 1.429 . S
C1802 C1785 1.574 . S
C1802 H1796 0.949 . S
C1802 C1806 1.368 . S
C1803 C1784 1.429 . S
C1803 C1797 1.429 . S
C1803 C1804 1.523 . S
C1804 C1785 1.368 . S
C1804 C1798 1.368 . S
C1804 C1803 1.523 . S
C1805 C1789 1.429 . S
C1805 C1801 1.429 . S
C1805 C1806 1.523 . S
C1806 C1790 1.368 . S
C1806 C1802 1.368 . S
C1806 C1805 1.523 . S
H1807 C1782 0.950 . S
H1808 C1784 0.950 . S
H1809 C1785 0.949 . S
H1810 C1787 0.950 . S
H1811 C1789 0.950 . S
C1812 C1813 1.349 . S
C1812 C1814 1.327 . S
C1812 H1837 0.950 . S
C1813 C1812 1.349 . S
C1813 C1829 1.349 . S
C1814 C1812 1.327 . S
C1814 C1833 1.429 . S
C1814 H1838 0.950 . S
C1815 C1832 1.574 . S
C1815 C1834 1.368 . S
C1815 H1839 0.949 . S
H1816 C1820 0.949 . S
C1817 C1818 1.349 . S
C1817 C1819 1.327 1_554 S
C1817 H1840 0.950 . S
C1818 C1817 1.349 . S
C1818 C1830 1.350 . S
C1819 C1817 1.327 1_556 S
C1819 C1835 1.429 . S
C1819 H1841 0.950 . S
C1820 H1816 0.949 . S
C1820 C1828 1.574 . S
C1820 C1836 1.368 . S
H1821 C1829 0.950 . S
H1822 C1827 0.950 . S
H1823 C1828 0.949 . S
H1824 C1830 0.951 . S
H1825 C1831 0.950 . S
H1826 C1832 0.949 . S
C1827 H1822 0.950 . S
C1827 C1829 1.327 . S
C1827 C1833 1.429 . S
C1828 C1820 1.574 . S
C1828 H1823 0.949 . S
C1828 C1834 1.368 . S
C1829 C1813 1.349 . S
C1829 H1821 0.950 . S
C1829 C1827 1.327 . S
C1830 C1818 1.350 . S
C1830 H1824 0.951 . S
C1830 C1831 1.325 1_554 S
C1831 H1825 0.950 . S
C1831 C1830 1.325 1_556 S
C1831 C1835 1.429 . S
C1832 C1815 1.574 . S
C1832 H1826 0.949 . S
C1832 C1836 1.368 . S
C1833 C1814 1.429 . S
C1833 C1827 1.429 . S
C1833 C1834 1.523 . S
C1834 C1815 1.368 . S
C1834 C1828 1.368 . S
C1834 C1833 1.523 . S
C1835 C1819 1.429 . S
C1835 C1831 1.429 . S
C1835 C1836 1.523 . S
C1836 C1820 1.368 . S
C1836 C1832 1.368 . S
C1836 C1835 1.523 . S
H1837 C1812 0.950 . S
H1838 C1814 0.950 . S
H1839 C1815 0.949 . S
H1840 C1817 0.950 . S
H1841 C1819 0.950 . S
C1842 C1843 1.349 . S
C1842 C1844 1.327 . S
C1842 H1867 0.950 . S
C1843 C1842 1.349 . S
C1843 C1859 1.349 . S
C1844 C1842 1.327 . S
C1844 C1863 1.429 . S
C1844 H1868 0.950 . S
C1845 C1862 1.574 . S
C1845 C1864 1.368 . S
C1845 H1869 0.949 . S
H1846 C1850 0.949 . S
C1847 C1848 1.349 . S
C1847 C1849 1.327 1_554 S
C1847 H1870 0.950 . S
C1848 C1847 1.349 . S
C1848 C1860 1.349 . S
C1849 C1847 1.327 1_556 S
C1849 C1865 1.429 . S
C1849 H1871 0.950 . S
C1850 H1846 0.949 . S
C1850 C1858 1.574 . S
C1850 C1866 1.368 . S
H1851 C1859 0.950 . S
H1852 C1857 0.950 . S
H1853 C1858 0.949 . S
H1854 C1860 0.950 . S
H1855 C1861 0.950 . S
H1856 C1862 0.949 . S
C1857 H1852 0.950 . S
C1857 C1859 1.327 . S
C1857 C1863 1.429 . S
C1858 C1850 1.574 . S
C1858 H1853 0.949 . S
C1858 C1864 1.368 . S
C1859 C1843 1.349 . S
C1859 H1851 0.950 . S
C1859 C1857 1.327 . S
C1860 C1848 1.349 . S
C1860 H1854 0.950 . S
C1860 C1861 1.327 1_554 S
C1861 H1855 0.950 . S
C1861 C1860 1.327 1_556 S
C1861 C1865 1.429 . S
C1862 C1845 1.574 . S
C1862 H1856 0.949 . S
C1862 C1866 1.368 . S
C1863 C1844 1.429 . S
C1863 C1857 1.429 . S
C1863 C1864 1.523 . S
C1864 C1845 1.368 . S
C1864 C1858 1.368 . S
C1864 C1863 1.523 . S
C1865 C1849 1.429 . S
C1865 C1861 1.429 . S
C1865 C1866 1.523 . S
C1866 C1850 1.368 . S
C1866 C1862 1.368 . S
C1866 C1865 1.523 . S
H1867 C1842 0.950 . S
H1868 C1844 0.950 . S
H1869 C1845 0.949 . S
H1870 C1847 0.950 . S
H1871 C1849 0.950 . S
C1872 C1873 1.358 . S
C1872 C1874 1.310 1_554 S
C1872 H1897 0.958 . S
C1873 C1872 1.358 . S
C1873 C1889 1.349 . S
C1874 C1872 1.310 1_556 S
C1874 C1893 1.429 . S
C1874 H1898 0.950 . S
C1875 C1892 1.574 . S
C1875 C1894 1.368 . S
C1875 H1899 0.949 . S
H1876 C1880 0.949 . S
C1877 C1878 1.349 . S
C1877 C1879 1.327 . S
C1877 H1900 0.950 . S
C1878 C1877 1.349 . S
C1878 C1890 1.349 . S
C1879 C1877 1.327 . S
C1879 C1895 1.429 . S
C1879 H1901 0.950 . S
C1880 H1876 0.949 . S
C1880 C1888 1.574 . S
C1880 C1896 1.368 . S
H1881 C1889 0.950 . S
H1882 C1887 0.950 . S
H1883 C1888 0.949 . S
H1884 C1890 0.950 . S
H1885 C1891 0.950 . S
H1886 C1892 0.949 . S
C1887 H1882 0.950 . S
C1887 C1889 1.327 1_556 S
C1887 C1893 1.429 . S
C1888 C1880 1.574 . S
C1888 H1883 0.949 . S
C1888 C1894 1.368 . S
C1889 C1873 1.349 . S
C1889 H1881 0.950 . S
C1889 C1887 1.327 1_554 S
C1890 C1878 1.349 . S
C1890 H1884 0.950 . S
C1890 C1891 1.327 . S
C1891 H1885 0.950 . S
C1891 C1890 1.327 . S
C1891 C1895 1.429 . S
C1892 C1875 1.574 . S
C1892 H1886 0.949 . S
C1892 C1896 1.368 . S
C1893 C1874 1.429 . S
C1893 C1887 1.429 . S
C1893 C1894 1.523 . S
C1894 C1875 1.368 . S
C1894 C1888 1.368 . S
C1894 C1893 1.523 . S
C1895 C1879 1.429 . S
C1895 C1891 1.429 . S
C1895 C1896 1.523 . S
C1896 C1880 1.368 . S
C1896 C1892 1.368 . S
C1896 C1895 1.523 . S
H1897 C1872 0.958 . S
H1898 C1874 0.950 . S
H1899 C1875 0.949 . S
H1900 C1877 0.950 . S
H1901 C1879 0.950 . S
C1902 C1903 1.349 . S
C1902 C1904 1.327 1_554 S
C1902 H1927 0.950 . S
C1903 C1902 1.349 . S
C1903 C1919 1.354 . S
C1904 C1902 1.327 1_556 S
C1904 C1923 1.429 . S
C1904 H1928 0.950 . S
C1905 C1922 1.574 . S
C1905 C1924 1.368 . S
C1905 H1929 0.949 . S
H1906 C1910 0.949 . S
C1907 C1908 1.349 . S
C1907 C1909 1.327 . S
C1907 H1930 0.950 . S
C1908 C1907 1.349 . S
C1908 C1920 1.349 . S
C1909 C1907 1.327 . S
C1909 C1925 1.429 . S
C1909 H1931 0.950 . S
C1910 H1906 0.949 . S
C1910 C1918 1.574 . S
C1910 C1926 1.368 . S
H1911 C1919 0.954 . S
H1912 C1917 0.950 . S
H1913 C1918 0.949 . S
H1914 C1920 0.950 . S
H1915 C1921 0.950 . S
H1916 C1922 0.949 . S
C1917 H1912 0.950 . S
C1917 C1919 1.319 1_556 S
C1917 C1923 1.429 . S
C1918 C1910 1.574 . S
C1918 H1913 0.949 . S
C1918 C1924 1.368 . S
C1919 C1903 1.354 . S
C1919 H1911 0.954 . S
C1919 C1917 1.319 1_554 S
C1920 C1908 1.349 . S
C1920 H1914 0.950 . S
C1920 C1921 1.327 . S
C1921 H1915 0.950 . S
C1921 C1920 1.327 . S
C1921 C1925 1.429 . S
C1922 C1905 1.574 . S
C1922 H1916 0.949 . S
C1922 C1926 1.368 . S
C1923 C1904 1.429 . S
C1923 C1917 1.429 . S
C1923 C1924 1.523 . S
C1924 C1905 1.368 . S
C1924 C1918 1.368 . S
C1924 C1923 1.523 . S
C1925 C1909 1.429 . S
C1925 C1921 1.429 . S
C1925 C1926 1.523 . S
C1926 C1910 1.368 . S
C1926 C1922 1.368 . S
C1926 C1925 1.523 . S
H1927 C1902 0.950 . S
H1928 C1904 0.950 . S
H1929 C1905 0.949 . S
H1930 C1907 0.950 . S
H1931 C1909 0.950 . S
C1932 C1933 1.349 . S
C1932 C1934 1.327 . S
C1932 H1957 0.950 . S
C1933 C1932 1.349 . S
C1933 C1949 1.349 . S
C1934 C1932 1.327 . S
C1934 C1953 1.429 . S
C1934 H1958 0.950 . S
C1935 C1952 1.574 . S
C1935 C1954 1.368 . S
C1935 H1959 0.949 . S
H1936 C1940 0.949 . S
C1937 C1938 1.349 . S
C1937 C1939 1.327 1_554 S
C1937 H1960 0.950 . S
C1938 C1937 1.349 . S
C1938 C1950 1.349 . S
C1939 C1937 1.327 1_556 S
C1939 C1955 1.429 . S
C1939 H1961 0.950 . S
C1940 H1936 0.949 . S
C1940 C1948 1.574 . S
C1940 C1956 1.368 . S
H1941 C1949 0.950 . S
H1942 C1947 0.950 . S
H1943 C1948 0.949 . S
H1944 C1950 0.950 . S
H1945 C1951 0.950 . S
H1946 C1952 0.949 . S
C1947 H1942 0.950 . S
C1947 C1949 1.327 . S
C1947 C1953 1.429 . S
C1948 C1940 1.574 . S
C1948 H1943 0.949 . S
C1948 C1954 1.368 . S
C1949 C1933 1.349 . S
C1949 H1941 0.950 . S
C1949 C1947 1.327 . S
C1950 C1938 1.349 . S
C1950 H1944 0.950 . S
C1950 C1951 1.327 1_554 S
C1951 H1945 0.950 . S
C1951 C1950 1.327 1_556 S
C1951 C1955 1.429 . S
C1952 C1935 1.574 . S
C1952 H1946 0.949 . S
C1952 C1956 1.368 . S
C1953 C1934 1.429 . S
C1953 C1947 1.429 . S
C1953 C1954 1.523 . S
C1954 C1935 1.368 . S
C1954 C1948 1.368 . S
C1954 C1953 1.523 . S
C1955 C1939 1.429 . S
C1955 C1951 1.429 . S
C1955 C1956 1.523 . S
C1956 C1940 1.368 . S
C1956 C1952 1.368 . S
C1956 C1955 1.523 . S
H1957 C1932 0.950 . S
H1958 C1934 0.950 . S
H1959 C1935 0.949 . S
H1960 C1937 0.950 . S
H1961 C1939 0.950 . S
C1962 C1963 1.349 . S
C1962 C1964 1.327 . S
C1962 H1987 0.950 . S
C1963 C1962 1.349 . S
C1963 C1979 1.349 . S
C1964 C1962 1.327 . S
C1964 C1983 1.429 . S
C1964 H1988 0.950 . S
C1965 C1982 1.574 . S
C1965 C1984 1.368 . S
C1965 H1989 0.949 . S
H1966 C1970 0.949 . S
C1967 C1968 1.349 . S
C1967 C1969 1.327 . S
C1967 H1990 0.950 . S
C1968 C1967 1.349 . S
C1968 C1980 1.349 . S
C1969 C1967 1.327 . S
C1969 C1985 1.429 . S
C1969 H1991 0.950 . S
C1970 H1966 0.949 . S
C1970 C1978 1.574 . S
C1970 C1986 1.368 . S
H1971 C1979 0.950 . S
H1972 C1977 0.950 . S
H1973 C1978 0.949 . S
H1974 C1980 0.950 . S
H1975 C1981 0.950 . S
H1976 C1982 0.949 . S
C1977 H1972 0.950 . S
C1977 C1979 1.327 . S
C1977 C1983 1.429 . S
C1978 C1970 1.574 . S
C1978 H1973 0.949 . S
C1978 C1984 1.368 . S
C1979 C1963 1.349 . S
C1979 H1971 0.950 . S
C1979 C1977 1.327 . S
C1980 C1968 1.349 . S
C1980 H1974 0.950 . S
C1980 C1981 1.327 . S
C1981 H1975 0.950 . S
C1981 C1980 1.327 . S
C1981 C1985 1.429 . S
C1982 C1965 1.574 . S
C1982 H1976 0.949 . S
C1982 C1986 1.368 . S
C1983 C1964 1.429 . S
C1983 C1977 1.429 . S
C1983 C1984 1.523 1_554 S
C1984 C1965 1.368 . S
C1984 C1978 1.368 . S
C1984 C1983 1.523 1_556 S
C1985 C1969 1.429 . S
C1985 C1981 1.429 . S
C1985 C1986 1.523 . S
C1986 C1970 1.368 . S
C1986 C1982 1.368 . S
C1986 C1985 1.523 . S
H1987 C1962 0.950 . S
H1988 C1964 0.950 . S
H1989 C1965 0.949 . S
H1990 C1967 0.950 . S
H1991 C1969 0.950 . S
C1992 C1993 1.349 . S
C1992 C1994 1.327 . S
C1992 H2017 0.950 . S
C1993 C1992 1.349 . S
C1993 C2009 1.349 . S
C1994 C1992 1.327 . S
C1994 C2013 1.429 . S
C1994 H2018 0.950 . S
C1995 C2012 1.574 . S
C1995 C2014 1.368 . S
C1995 H2019 0.949 . S
H1996 C2000 0.949 . S
C1997 C1998 1.349 . S
C1997 C1999 1.327 . S
C1997 H2020 0.950 . S
C1998 C1997 1.349 . S
C1998 C2010 1.349 . S
C1999 C1997 1.327 . S
C1999 C2015 1.429 . S
C1999 H2021 0.950 . S
C2000 H1996 0.949 . S
C2000 C2008 1.574 . S
C2000 C2016 1.368 . S
H2001 C2009 0.950 . S
H2002 C2007 0.950 . S
H2003 C2008 0.949 . S
H2004 C2010 0.950 . S
H2005 C2011 0.950 . S
H2006 C2012 0.949 . S
C2007 H2002 0.950 . S
C2007 C2009 1.327 . S
C2007 C2013 1.429 . S
C2008 C2000 1.574 . S
C2008 H2003 0.949 . S
C2008 C2014 1.368 . S
C2009 C1993 1.349 . S
C2009 H2001 0.950 . S
C2009 C2007 1.327 . S
C2010 C1998 1.349 . S
C2010 H2004 0.950 . S
C2010 C2011 1.327 . S
C2011 H2005 0.950 . S
C2011 C2010 1.327 . S
C2011 C2015 1.429 . S
C2012 C1995 1.574 . S
C2012 H2006 0.949 . S
C2012 C2016 1.368 . S
C2013 C1994 1.429 . S
C2013 C2007 1.429 . S
C2013 C2014 1.523 1_554 S
C2014 C1995 1.368 . S
C2014 C2008 1.368 . S
C2014 C2013 1.523 1_556 S
C2015 C1999 1.429 . S
C2015 C2011 1.429 . S
C2015 C2016 1.523 . S
C2016 C2000 1.368 . S
C2016 C2012 1.368 . S
C2016 C2015 1.523 . S
H2017 C1992 0.950 . S
H2018 C1994 0.950 . S
H2019 C1995 0.949 . S
H2020 C1997 0.950 . S
H2021 C1999 0.950 . S
C2022 C2023 1.349 . S
C2022 C2024 1.327 . S
C2022 H2047 0.950 . S
C2023 C2022 1.349 . S
C2023 C2039 1.349 . S
C2024 C2022 1.327 . S
C2024 C2043 1.429 . S
C2024 H2048 0.950 . S
C2025 C2042 1.574 . S
C2025 C2044 1.368 . S
C2025 H2049 0.949 . S
H2026 C2030 0.949 . S
C2027 C2028 1.349 . S
C2027 C2029 1.327 . S
C2027 H2050 0.950 . S
C2028 C2027 1.349 . S
C2028 C2040 1.349 . S
C2029 C2027 1.327 . S
C2029 C2045 1.429 . S
C2029 H2051 0.950 . S
C2030 H2026 0.949 . S
C2030 C2038 1.574 . S
C2030 C2046 1.368 . S
H2031 C2039 0.950 . S
H2032 C2037 0.950 . S
H2033 C2038 0.949 . S
H2034 C2040 0.950 . S
H2035 C2041 0.950 . S
H2036 C2042 0.949 . S
C2037 H2032 0.950 . S
C2037 C2039 1.327 . S
C2037 C2043 1.429 . S
C2038 C2030 1.574 . S
C2038 H2033 0.949 . S
C2038 C2044 1.368 . S
C2039 C2023 1.349 . S
C2039 H2031 0.950 . S
C2039 C2037 1.327 . S
C2040 C2028 1.349 . S
C2040 H2034 0.950 . S
C2040 C2041 1.327 . S
C2041 H2035 0.950 . S
C2041 C2040 1.327 . S
C2041 C2045 1.429 . S
C2042 C2025 1.574 . S
C2042 H2036 0.949 . S
C2042 C2046 1.368 . S
C2043 C2024 1.429 . S
C2043 C2037 1.429 . S
C2043 C2044 1.523 . S
C2044 C2025 1.368 . S
C2044 C2038 1.368 . S
C2044 C2043 1.523 . S
C2045 C2029 1.429 . S
C2045 C2041 1.429 . S
C2045 C2046 1.523 1_554 S
C2046 C2030 1.368 . S
C2046 C2042 1.368 . S
C2046 C2045 1.523 1_556 S
H2047 C2022 0.950 . S
H2048 C2024 0.950 . S
H2049 C2025 0.949 . S
H2050 C2027 0.950 . S
H2051 C2029 0.950 . S
C2052 C2053 1.349 1_554 S
C2052 C2054 1.327 . S
C2052 H2077 0.950 1_554 S
C2053 C2052 1.349 1_556 S
C2053 C2069 1.349 . S
C2054 C2052 1.327 . S
C2054 C2073 1.429 . S
C2054 H2078 0.950 . S
C2055 C2072 1.574 . S
C2055 C2074 1.368 . S
C2055 H2079 0.949 . S
H2056 C2060 0.949 . S
C2057 C2058 1.349 . S
C2057 C2059 1.327 . S
C2057 H2080 0.950 . S
C2058 C2057 1.349 . S
C2058 C2070 1.349 . S
C2059 C2057 1.327 . S
C2059 C2075 1.429 . S
C2059 H2081 0.950 . S
C2060 H2056 0.949 . S
C2060 C2068 1.574 . S
C2060 C2076 1.368 . S
H2061 C2069 0.950 . S
H2062 C2067 0.950 . S
H2063 C2068 0.949 . S
H2064 C2070 0.950 . S
H2065 C2071 0.950 . S
H2066 C2072 0.949 . S
C2067 H2062 0.950 . S
C2067 C2069 1.327 1_554 S
C2067 C2073 1.429 . S
C2068 C2060 1.574 . S
C2068 H2063 0.949 . S
C2068 C2074 1.368 . S
C2069 C2053 1.349 . S
C2069 H2061 0.950 . S
C2069 C2067 1.327 1_556 S
C2070 C2058 1.349 . S
C2070 H2064 0.950 . S
C2070 C2071 1.327 . S
C2071 H2065 0.950 . S
C2071 C2070 1.327 . S
C2071 C2075 1.429 . S
C2072 C2055 1.574 . S
C2072 H2066 0.949 . S
C2072 C2076 1.368 . S
C2073 C2054 1.429 . S
C2073 C2067 1.429 . S
C2073 C2074 1.523 . S
C2074 C2055 1.368 . S
C2074 C2068 1.368 . S
C2074 C2073 1.523 . S
C2075 C2059 1.429 . S
C2075 C2071 1.429 . S
C2075 C2076 1.523 . S
C2076 C2060 1.368 . S
C2076 C2072 1.368 . S
C2076 C2075 1.523 . S
H2077 C2052 0.950 1_556 S
H2078 C2054 0.950 . S
H2079 C2055 0.949 . S
H2080 C2057 0.950 . S
H2081 C2059 0.950 . S
C2082 C2083 1.349 1_554 S
C2082 C2084 1.327 . S
C2082 H2107 0.950 1_554 S
C2083 C2082 1.349 1_556 S
C2083 C2099 1.349 . S
C2084 C2082 1.327 . S
C2084 C2103 1.429 . S
C2084 H2108 0.950 . S
C2085 C2102 1.574 . S
C2085 C2104 1.368 . S
C2085 H2109 0.949 . S
H2086 C2090 0.949 . S
C2087 C2088 1.349 . S
C2087 C2089 1.327 . S
C2087 H2110 0.950 . S
C2088 C2087 1.349 . S
C2088 C2100 1.349 . S
C2089 C2087 1.327 . S
C2089 C2105 1.429 . S
C2089 H2111 0.950 . S
C2090 H2086 0.949 . S
C2090 C2098 1.574 . S
C2090 C2106 1.368 . S
H2091 C2099 0.950 . S
H2092 C2097 0.950 . S
H2093 C2098 0.949 . S
H2094 C2100 0.950 . S
H2095 C2101 0.950 . S
H2096 C2102 0.949 . S
C2097 H2092 0.950 . S
C2097 C2099 1.327 1_554 S
C2097 C2103 1.429 . S
C2098 C2090 1.574 . S
C2098 H2093 0.949 . S
C2098 C2104 1.368 . S
C2099 C2083 1.349 . S
C2099 H2091 0.950 . S
C2099 C2097 1.327 1_556 S
C2100 C2088 1.349 . S
C2100 H2094 0.950 . S
C2100 C2101 1.327 . S
C2101 H2095 0.950 . S
C2101 C2100 1.327 . S
C2101 C2105 1.429 . S
C2102 C2085 1.574 . S
C2102 H2096 0.949 . S
C2102 C2106 1.368 . S
C2103 C2084 1.429 . S
C2103 C2097 1.429 . S
C2103 C2104 1.523 . S
C2104 C2085 1.368 . S
C2104 C2098 1.368 . S
C2104 C2103 1.523 . S
C2105 C2089 1.429 . S
C2105 C2101 1.429 . S
C2105 C2106 1.523 . S
C2106 C2090 1.368 . S
C2106 C2102 1.368 . S
C2106 C2105 1.523 . S
H2107 C2082 0.950 1_556 S
H2108 C2084 0.950 . S
H2109 C2085 0.949 . S
H2110 C2087 0.950 . S
H2111 C2089 0.950 . S
C2112 C2113 1.349 . S
C2112 C2114 1.327 . S
C2112 H2137 0.950 . S
C2113 C2112 1.349 . S
C2113 C2129 1.349 . S
C2114 C2112 1.327 . S
C2114 C2133 1.429 . S
C2114 H2138 0.950 . S
C2115 C2132 1.574 . S
C2115 C2134 1.368 . S
C2115 H2139 0.949 . S
H2116 C2120 0.949 . S
C2117 C2118 1.349 . S
C2117 C2119 1.327 1_556 S
C2117 H2140 0.950 . S
C2118 C2117 1.349 . S
C2118 C2130 1.349 1_556 S
C2119 C2117 1.327 1_554 S
C2119 C2135 1.429 . S
C2119 H2141 0.950 . S
C2120 H2116 0.949 . S
C2120 C2128 1.574 . S
C2120 C2136 1.368 . S
H2121 C2129 0.950 . S
H2122 C2127 0.950 . S
H2123 C2128 0.949 . S
H2124 C2130 0.950 1_556 S
H2125 C2131 0.950 . S
H2126 C2132 0.949 . S
C2127 H2122 0.950 . S
C2127 C2129 1.327 . S
C2127 C2133 1.429 . S
C2128 C2120 1.574 . S
C2128 H2123 0.949 . S
C2128 C2134 1.368 . S
C2129 C2113 1.349 . S
C2129 H2121 0.950 . S
C2129 C2127 1.327 . S
C2130 C2118 1.349 1_554 S
C2130 H2124 0.950 1_554 S
C2130 C2131 1.327 . S
C2131 H2125 0.950 . S
C2131 C2130 1.327 . S
C2131 C2135 1.429 . S
C2132 C2115 1.574 . S
C2132 H2126 0.949 . S
C2132 C2136 1.368 . S
C2133 C2114 1.429 . S
C2133 C2127 1.429 . S
C2133 C2134 1.523 . S
C2134 C2115 1.368 . S
C2134 C2128 1.368 . S
C2134 C2133 1.523 . S
C2135 C2119 1.429 . S
C2135 C2131 1.429 . S
C2135 C2136 1.523 . S
C2136 C2120 1.368 . S
C2136 C2132 1.368 . S
C2136 C2135 1.523 . S
H2137 C2112 0.950 . S
H2138 C2114 0.950 . S
H2139 C2115 0.949 . S
H2140 C2117 0.950 . S
H2141 C2119 0.950 . S
C2142 C2143 1.349 . S
C2142 C2144 1.327 . S
C2142 H2167 0.950 . S
C2143 C2142 1.349 . S
C2143 C2159 1.349 . S
C2144 C2142 1.327 . S
C2144 C2163 1.429 . S
C2144 H2168 0.950 . S
C2145 C2162 1.574 . S
C2145 C2164 1.368 . S
C2145 H2169 0.949 . S
H2146 C2150 0.949 . S
C2147 C2148 1.349 . S
C2147 C2149 1.327 . S
C2147 H2170 0.950 . S
C2148 C2147 1.349 . S
C2148 C2160 1.349 . S
C2149 C2147 1.327 . S
C2149 C2165 1.429 . S
C2149 H2171 0.950 . S
C2150 H2146 0.949 . S
C2150 C2158 1.574 . S
C2150 C2166 1.368 . S
H2151 C2159 0.950 . S
H2152 C2157 0.950 . S
H2153 C2158 0.949 . S
H2154 C2160 0.950 . S
H2155 C2161 0.950 . S
H2156 C2162 0.949 . S
C2157 H2152 0.950 . S
C2157 C2159 1.327 . S
C2157 C2163 1.429 . S
C2158 C2150 1.574 . S
C2158 H2153 0.949 . S
C2158 C2164 1.368 . S
C2159 C2143 1.349 . S
C2159 H2151 0.950 . S
C2159 C2157 1.327 . S
C2160 C2148 1.349 . S
C2160 H2154 0.950 . S
C2160 C2161 1.327 . S
C2161 H2155 0.950 . S
C2161 C2160 1.327 . S
C2161 C2165 1.429 . S
C2162 C2145 1.574 . S
C2162 H2156 0.949 . S
C2162 C2166 1.368 . S
C2163 C2144 1.429 . S
C2163 C2157 1.429 . S
C2163 C2164 1.523 1_556 S
C2164 C2145 1.368 . S
C2164 C2158 1.368 . S
C2164 C2163 1.523 1_554 S
C2165 C2149 1.429 . S
C2165 C2161 1.429 . S
C2165 C2166 1.523 . S
C2166 C2150 1.368 . S
C2166 C2162 1.368 . S
C2166 C2165 1.523 . S
H2167 C2142 0.950 . S
H2168 C2144 0.950 . S
H2169 C2145 0.949 . S
H2170 C2147 0.950 . S
H2171 C2149 0.950 . S
C2172 C2173 1.349 . S
C2172 C2174 1.327 . S
C2172 H2197 0.950 . S
C2173 C2172 1.349 . S
C2173 C2189 1.349 . S
C2174 C2172 1.327 . S
C2174 C2193 1.429 . S
C2174 H2198 0.950 . S
C2175 C2192 1.574 . S
C2175 C2194 1.368 . S
C2175 H2199 0.949 . S
H2176 C2180 0.949 . S
C2177 C2178 1.349 . S
C2177 C2179 1.327 . S
C2177 H2200 0.950 . S
C2178 C2177 1.349 . S
C2178 C2190 1.349 . S
C2179 C2177 1.327 . S
C2179 C2195 1.429 . S
C2179 H2201 0.950 . S
C2180 H2176 0.949 . S
C2180 C2188 1.574 . S
C2180 C2196 1.368 . S
H2181 C2189 0.950 . S
H2182 C2187 0.950 . S
H2183 C2188 0.949 . S
H2184 C2190 0.950 . S
H2185 C2191 0.950 . S
H2186 C2192 0.949 . S
C2187 H2182 0.950 . S
C2187 C2189 1.327 . S
C2187 C2193 1.429 . S
C2188 C2180 1.574 . S
C2188 H2183 0.949 . S
C2188 C2194 1.368 . S
C2189 C2173 1.349 . S
C2189 H2181 0.950 . S
C2189 C2187 1.327 . S
C2190 C2178 1.349 . S
C2190 H2184 0.950 . S
C2190 C2191 1.327 . S
C2191 H2185 0.950 . S
C2191 C2190 1.327 . S
C2191 C2195 1.429 . S
C2192 C2175 1.574 . S
C2192 H2186 0.949 . S
C2192 C2196 1.368 . S
C2193 C2174 1.429 . S
C2193 C2187 1.429 . S
C2193 C2194 1.523 . S
C2194 C2175 1.368 . S
C2194 C2188 1.368 . S
C2194 C2193 1.523 . S
C2195 C2179 1.429 . S
C2195 C2191 1.429 . S
C2195 C2196 1.523 1_556 S
C2196 C2180 1.368 . S
C2196 C2192 1.368 . S
C2196 C2195 1.523 1_554 S
H2197 C2172 0.950 . S
H2198 C2174 0.950 . S
H2199 C2175 0.949 . S
H2200 C2177 0.950 . S
H2201 C2179 0.950 . S
C2202 C2203 1.349 . S
C2202 C2204 1.327 . S
C2202 H2227 0.950 . S
C2203 C2202 1.349 . S
C2203 C2219 1.349 . S
C2204 C2202 1.327 . S
C2204 C2223 1.429 . S
C2204 H2228 0.950 . S
C2205 C2222 1.574 . S
C2205 C2224 1.368 . S
C2205 H2229 0.949 . S
H2206 C2210 0.949 . S
C2207 C2208 1.349 . S
C2207 C2209 1.327 . S
C2207 H2230 0.950 . S
C2208 C2207 1.349 . S
C2208 C2220 1.349 . S
C2209 C2207 1.327 . S
C2209 C2225 1.429 . S
C2209 H2231 0.950 . S
C2210 H2206 0.949 . S
C2210 C2218 1.574 . S
C2210 C2226 1.368 . S
H2211 C2219 0.950 . S
H2212 C2217 0.950 . S
H2213 C2218 0.949 . S
H2214 C2220 0.950 . S
H2215 C2221 0.950 . S
H2216 C2222 0.949 . S
C2217 H2212 0.950 . S
C2217 C2219 1.327 . S
C2217 C2223 1.429 . S
C2218 C2210 1.574 . S
C2218 H2213 0.949 . S
C2218 C2224 1.368 . S
C2219 C2203 1.349 . S
C2219 H2211 0.950 . S
C2219 C2217 1.327 . S
C2220 C2208 1.349 . S
C2220 H2214 0.950 . S
C2220 C2221 1.327 . S
C2221 H2215 0.950 . S
C2221 C2220 1.327 . S
C2221 C2225 1.429 . S
C2222 C2205 1.574 . S
C2222 H2216 0.949 . S
C2222 C2226 1.368 . S
C2223 C2204 1.429 . S
C2223 C2217 1.429 . S
C2223 C2224 1.523 . S
C2224 C2205 1.368 . S
C2224 C2218 1.368 . S
C2224 C2223 1.523 . S
C2225 C2209 1.429 . S
C2225 C2221 1.429 . S
C2225 C2226 1.523 1_556 S
C2226 C2210 1.368 . S
C2226 C2222 1.368 . S
C2226 C2225 1.523 1_554 S
H2227 C2202 0.950 . S
H2228 C2204 0.950 . S
H2229 C2205 0.949 . S
H2230 C2207 0.950 . S
H2231 C2209 0.950 . S
C2232 C2233 1.349 . S
C2232 C2234 1.327 . S
C2232 H2257 0.950 . S
C2233 C2232 1.349 . S
C2233 C2249 1.349 . S
C2234 C2232 1.327 . S
C2234 C2253 1.429 . S
C2234 H2258 0.950 . S
C2235 C2252 1.574 . S
C2235 C2254 1.368 . S
C2235 H2259 0.949 . S
H2236 C2240 0.949 . S
C2237 C2238 1.349 . S
C2237 C2239 1.327 . S
C2237 H2260 0.950 . S
C2238 C2237 1.349 . S
C2238 C2250 1.349 . S
C2239 C2237 1.327 . S
C2239 C2255 1.429 . S
C2239 H2261 0.950 . S
C2240 H2236 0.949 . S
C2240 C2248 1.574 . S
C2240 C2256 1.368 . S
H2241 C2249 0.950 . S
H2242 C2247 0.950 . S
H2243 C2248 0.949 . S
H2244 C2250 0.950 . S
H2245 C2251 0.950 . S
H2246 C2252 0.949 . S
C2247 H2242 0.950 . S
C2247 C2249 1.327 . S
C2247 C2253 1.429 . S
C2248 C2240 1.574 . S
C2248 H2243 0.949 . S
C2248 C2254 1.368 . S
C2249 C2233 1.349 . S
C2249 H2241 0.950 . S
C2249 C2247 1.327 . S
C2250 C2238 1.349 . S
C2250 H2244 0.950 . S
C2250 C2251 1.327 . S
C2251 H2245 0.950 . S
C2251 C2250 1.327 . S
C2251 C2255 1.429 . S
C2252 C2235 1.574 . S
C2252 H2246 0.949 . S
C2252 C2256 1.368 . S
C2253 C2234 1.429 . S
C2253 C2247 1.429 . S
C2253 C2254 1.523 . S
C2254 C2235 1.368 . S
C2254 C2248 1.368 . S
C2254 C2253 1.523 . S
C2255 C2239 1.429 . S
C2255 C2251 1.429 . S
C2255 C2256 1.523 1_556 S
C2256 C2240 1.368 . S
C2256 C2252 1.368 . S
C2256 C2255 1.523 1_554 S
H2257 C2232 0.950 . S
H2258 C2234 0.950 . S
H2259 C2235 0.949 . S
H2260 C2237 0.950 . S
H2261 C2239 0.950 . S
C2262 C2263 1.349 . S
C2262 C2264 1.327 . S
C2262 H2287 0.950 . S
C2263 C2262 1.349 . S
C2263 C2279 1.349 . S
C2264 C2262 1.327 . S
C2264 C2283 1.429 . S
C2264 H2288 0.950 . S
C2265 C2282 1.574 . S
C2265 C2284 1.368 . S
C2265 H2289 0.949 . S
H2266 C2270 0.949 . S
C2267 C2268 1.349 . S
C2267 C2269 1.327 . S
C2267 H2290 0.950 . S
C2268 C2267 1.349 . S
C2268 C2280 1.349 . S
C2269 C2267 1.327 . S
C2269 C2285 1.429 . S
C2269 H2291 0.950 . S
C2270 H2266 0.949 . S
C2270 C2278 1.574 . S
C2270 C2286 1.368 . S
H2271 C2279 0.950 . S
H2272 C2277 0.950 . S
H2273 C2278 0.949 . S
H2274 C2280 0.950 . S
H2275 C2281 0.950 . S
H2276 C2282 0.949 . S
C2277 H2272 0.950 . S
C2277 C2279 1.327 . S
C2277 C2283 1.429 . S
C2278 C2270 1.574 . S
C2278 H2273 0.949 . S
C2278 C2284 1.368 . S
C2279 C2263 1.349 . S
C2279 H2271 0.950 . S
C2279 C2277 1.327 . S
C2280 C2268 1.349 . S
C2280 H2274 0.950 . S
C2280 C2281 1.327 . S
C2281 H2275 0.950 . S
C2281 C2280 1.327 . S
C2281 C2285 1.429 . S
C2282 C2265 1.574 . S
C2282 H2276 0.949 . S
C2282 C2286 1.368 . S
C2283 C2264 1.429 . S
C2283 C2277 1.429 . S
C2283 C2284 1.523 1_556 S
C2284 C2265 1.368 . S
C2284 C2278 1.368 . S
C2284 C2283 1.523 1_554 S
C2285 C2269 1.429 . S
C2285 C2281 1.429 . S
C2285 C2286 1.523 . S
C2286 C2270 1.368 . S
C2286 C2282 1.368 . S
C2286 C2285 1.523 . S
H2287 C2262 0.950 . S
H2288 C2264 0.950 . S
H2289 C2265 0.949 . S
H2290 C2267 0.950 . S
H2291 C2269 0.950 . S
C2292 C2293 1.349 . S
C2292 C2294 1.327 . S
C2292 H2317 0.950 . S
C2293 C2292 1.349 . S
C2293 C2309 1.349 . S
C2294 C2292 1.327 . S
C2294 C2313 1.429 . S
C2294 H2318 0.950 . S
C2295 C2312 1.574 . S
C2295 C2314 1.368 . S
C2295 H2319 0.949 . S
H2296 C2300 0.949 . S
C2297 C2298 1.349 . S
C2297 C2299 1.327 . S
C2297 H2320 0.950 . S
C2298 C2297 1.349 . S
C2298 C2310 1.349 . S
C2299 C2297 1.327 . S
C2299 C2315 1.429 . S
C2299 H2321 0.950 . S
C2300 H2296 0.949 . S
C2300 C2308 1.574 . S
C2300 C2316 1.368 . S
H2301 C2309 0.950 . S
H2302 C2307 0.950 . S
H2303 C2308 0.949 . S
H2304 C2310 0.950 . S
H2305 C2311 0.950 . S
H2306 C2312 0.949 . S
C2307 H2302 0.950 . S
C2307 C2309 1.327 . S
C2307 C2313 1.429 . S
C2308 C2300 1.574 . S
C2308 H2303 0.949 . S
C2308 C2314 1.368 . S
C2309 C2293 1.349 . S
C2309 H2301 0.950 . S
C2309 C2307 1.327 . S
C2310 C2298 1.349 . S
C2310 H2304 0.950 . S
C2310 C2311 1.327 . S
C2311 H2305 0.950 . S
C2311 C2310 1.327 . S
C2311 C2315 1.429 . S
C2312 C2295 1.574 . S
C2312 H2306 0.949 . S
C2312 C2316 1.368 . S
C2313 C2294 1.429 . S
C2313 C2307 1.429 . S
C2313 C2314 1.523 1_556 S
C2314 C2295 1.368 . S
C2314 C2308 1.368 . S
C2314 C2313 1.523 1_554 S
C2315 C2299 1.429 . S
C2315 C2311 1.429 . S
C2315 C2316 1.523 . S
C2316 C2300 1.368 . S
C2316 C2312 1.368 . S
C2316 C2315 1.523 . S
H2317 C2292 0.950 . S
H2318 C2294 0.950 . S
H2319 C2295 0.949 . S
H2320 C2297 0.950 . S
H2321 C2299 0.950 . S
C2322 C2323 1.349 . S
C2322 C2324 1.327 1_556 S
C2322 H2347 0.950 . S
C2323 C2322 1.349 . S
C2323 C2339 1.349 1_556 S
C2324 C2322 1.327 1_554 S
C2324 C2343 1.429 . S
C2324 H2348 0.950 . S
C2325 C2342 1.574 . S
C2325 C2344 1.368 . S
C2325 H2349 0.949 . S
H2326 C2330 0.949 . S
C2327 C2328 1.349 . S
C2327 C2329 1.327 . S
C2327 H2350 0.950 . S
C2328 C2327 1.349 . S
C2328 C2340 1.349 . S
C2329 C2327 1.327 . S
C2329 C2345 1.429 . S
C2329 H2351 0.950 . S
C2330 H2326 0.949 . S
C2330 C2338 1.574 . S
C2330 C2346 1.368 . S
H2331 C2339 0.950 1_556 S
H2332 C2337 0.950 . S
H2333 C2338 0.949 . S
H2334 C2340 0.950 . S
H2335 C2341 0.950 . S
H2336 C2342 0.949 . S
C2337 H2332 0.950 . S
C2337 C2339 1.327 . S
C2337 C2343 1.429 . S
C2338 C2330 1.574 . S
C2338 H2333 0.949 . S
C2338 C2344 1.368 . S
C2339 C2323 1.349 1_554 S
C2339 H2331 0.950 1_554 S
C2339 C2337 1.327 . S
C2340 C2328 1.349 . S
C2340 H2334 0.950 . S
C2340 C2341 1.327 . S
C2341 H2335 0.950 . S
C2341 C2340 1.327 . S
C2341 C2345 1.429 . S
C2342 C2325 1.574 . S
C2342 H2336 0.949 . S
C2342 C2346 1.368 . S
C2343 C2324 1.429 . S
C2343 C2337 1.429 . S
C2343 C2344 1.523 . S
C2344 C2325 1.368 . S
C2344 C2338 1.368 . S
C2344 C2343 1.523 . S
C2345 C2329 1.429 . S
C2345 C2341 1.429 . S
C2345 C2346 1.523 . S
C2346 C2330 1.368 . S
C2346 C2342 1.368 . S
C2346 C2345 1.523 . S
H2347 C2322 0.950 . S
H2348 C2324 0.950 . S
H2349 C2325 0.949 . S
H2350 C2327 0.950 . S
H2351 C2329 0.950 . S
C2352 C2353 1.349 . S
C2352 C2354 1.327 . S
C2352 H2377 0.950 . S
C2353 C2352 1.349 . S
C2353 C2369 1.349 . S
C2354 C2352 1.327 . S
C2354 C2373 1.429 . S
C2354 H2378 0.950 . S
C2355 C2372 1.574 . S
C2355 C2374 1.368 . S
C2355 H2379 0.949 . S
H2356 C2360 0.949 . S
C2357 C2358 1.349 . S
C2357 C2359 1.327 1_556 S
C2357 H2380 0.950 . S
C2358 C2357 1.349 . S
C2358 C2370 1.349 1_556 S
C2359 C2357 1.327 1_554 S
C2359 C2375 1.429 . S
C2359 H2381 0.950 . S
C2360 H2356 0.949 . S
C2360 C2368 1.574 . S
C2360 C2376 1.368 . S
H2361 C2369 0.950 . S
H2362 C2367 0.950 . S
H2363 C2368 0.949 . S
H2364 C2370 0.950 1_556 S
H2365 C2371 0.950 . S
H2366 C2372 0.949 . S
C2367 H2362 0.950 . S
C2367 C2369 1.327 . S
C2367 C2373 1.429 . S
C2368 C2360 1.574 . S
C2368 H2363 0.949 . S
C2368 C2374 1.368 . S
C2369 C2353 1.349 . S
C2369 H2361 0.950 . S
C2369 C2367 1.327 . S
C2370 C2358 1.349 1_554 S
C2370 H2364 0.950 1_554 S
C2370 C2371 1.327 . S
C2371 H2365 0.950 . S
C2371 C2370 1.327 . S
C2371 C2375 1.429 . S
C2372 C2355 1.574 . S
C2372 H2366 0.949 . S
C2372 C2376 1.368 . S
C2373 C2354 1.429 . S
C2373 C2367 1.429 . S
C2373 C2374 1.523 . S
C2374 C2355 1.368 . S
C2374 C2368 1.368 . S
C2374 C2373 1.523 . S
C2375 C2359 1.429 . S
C2375 C2371 1.429 . S
C2375 C2376 1.523 . S
C2376 C2360 1.368 . S
C2376 C2372 1.368 . S
C2376 C2375 1.523 . S
H2377 C2352 0.950 . S
H2378 C2354 0.950 . S
H2379 C2355 0.949 . S
H2380 C2357 0.950 . S
H2381 C2359 0.950 . S
C2382 C2383 1.349 . S
C2382 C2384 1.327 1_556 S
C2382 H2407 0.950 . S
C2383 C2382 1.349 . S
C2383 C2399 1.358 . S
C2384 C2382 1.327 1_554 S
C2384 C2403 1.429 . S
C2384 H2408 0.950 . S
C2385 C2402 1.574 . S
C2385 C2404 1.368 . S
C2385 H2409 0.949 . S
H2386 C2390 0.949 . S
C2387 C2388 1.349 . S
C2387 C2389 1.327 . S
C2387 H2410 0.950 . S
C2388 C2387 1.349 . S
C2388 C2400 1.349 . S
C2389 C2387 1.327 . S
C2389 C2405 1.429 . S
C2389 H2411 0.950 . S
C2390 H2386 0.949 . S
C2390 C2398 1.574 . S
C2390 C2406 1.368 . S
H2391 C2399 0.958 . S
H2392 C2397 0.950 . S
H2393 C2398 0.949 . S
H2394 C2400 0.950 . S
H2395 C2401 0.950 . S
H2396 C2402 0.949 . S
C2397 H2392 0.950 . S
C2397 C2399 1.310 1_554 S
C2397 C2403 1.429 . S
C2398 C2390 1.574 . S
C2398 H2393 0.949 . S
C2398 C2404 1.368 . S
C2399 C2383 1.358 . S
C2399 H2391 0.958 . S
C2399 C2397 1.310 1_556 S
C2400 C2388 1.349 . S
C2400 H2394 0.950 . S
C2400 C2401 1.327 . S
C2401 H2395 0.950 . S
C2401 C2400 1.327 . S
C2401 C2405 1.429 . S
C2402 C2385 1.574 . S
C2402 H2396 0.949 . S
C2402 C2406 1.368 . S
C2403 C2384 1.429 . S
C2403 C2397 1.429 . S
C2403 C2404 1.523 . S
C2404 C2385 1.368 . S
C2404 C2398 1.368 . S
C2404 C2403 1.523 . S
C2405 C2389 1.429 . S
C2405 C2401 1.429 . S
C2405 C2406 1.523 . S
C2406 C2390 1.368 . S
C2406 C2402 1.368 . S
C2406 C2405 1.523 . S
H2407 C2382 0.950 . S
H2408 C2384 0.950 . S
H2409 C2385 0.949 . S
H2410 C2387 0.950 . S
H2411 C2389 0.950 . S
C2412 C2413 1.349 . S
C2412 C2414 1.327 . S
C2412 H2437 0.950 . S
C2413 C2412 1.349 . S
C2413 C2429 1.349 . S
C2414 C2412 1.327 . S
C2414 C2433 1.429 . S
C2414 H2438 0.950 . S
C2415 C2432 1.574 . S
C2415 C2434 1.368 . S
C2415 H2439 0.949 . S
H2416 C2420 0.949 . S
C2417 C2418 1.349 . S
C2417 C2419 1.327 . S
C2417 H2440 0.950 . S
C2418 C2417 1.349 . S
C2418 C2430 1.349 . S
C2419 C2417 1.327 . S
C2419 C2435 1.429 . S
C2419 H2441 0.950 . S
C2420 H2416 0.949 . S
C2420 C2428 1.574 . S
C2420 C2436 1.368 . S
H2421 C2429 0.950 . S
H2422 C2427 0.950 . S
H2423 C2428 0.949 . S
H2424 C2430 0.950 . S
H2425 C2431 0.950 . S
H2426 C2432 0.949 . S
C2427 H2422 0.950 . S
C2427 C2429 1.327 . S
C2427 C2433 1.429 . S
C2428 C2420 1.574 . S
C2428 H2423 0.949 . S
C2428 C2434 1.368 . S
C2429 C2413 1.349 . S
C2429 H2421 0.950 . S
C2429 C2427 1.327 . S
C2430 C2418 1.349 . S
C2430 H2424 0.950 . S
C2430 C2431 1.327 . S
C2431 H2425 0.950 . S
C2431 C2430 1.327 . S
C2431 C2435 1.429 . S
C2432 C2415 1.574 . S
C2432 H2426 0.949 . S
C2432 C2436 1.368 . S
C2433 C2414 1.429 . S
C2433 C2427 1.429 . S
C2433 C2434 1.523 . S
C2434 C2415 1.368 . S
C2434 C2428 1.368 . S
C2434 C2433 1.523 . S
C2435 C2419 1.429 . S
C2435 C2431 1.429 . S
C2435 C2436 1.523 . S
C2436 C2420 1.368 . S
C2436 C2432 1.368 . S
C2436 C2435 1.523 . S
H2437 C2412 0.950 . S
H2438 C2414 0.950 . S
H2439 C2415 0.949 . S
H2440 C2417 0.950 . S
H2441 C2419 0.950 . S
C2442 C2443 1.349 . S
C2442 C2444 1.327 . S
C2442 H2467 0.950 . S
C2443 C2442 1.349 . S
C2443 C2459 1.349 . S
C2444 C2442 1.327 . S
C2444 C2463 1.429 . S
C2444 H2468 0.950 . S
C2445 C2462 1.574 . S
C2445 C2464 1.368 . S
C2445 H2469 0.949 . S
H2446 C2450 0.949 . S
C2447 C2448 1.349 . S
C2447 C2449 1.327 . S
C2447 H2470 0.950 . S
C2448 C2447 1.349 . S
C2448 C2460 1.349 . S
C2449 C2447 1.327 . S
C2449 C2465 1.429 . S
C2449 H2471 0.950 . S
C2450 H2446 0.949 . S
C2450 C2458 1.574 . S
C2450 C2466 1.368 . S
H2451 C2459 0.950 . S
H2452 C2457 0.950 . S
H2453 C2458 0.949 . S
H2454 C2460 0.950 . S
H2455 C2461 0.950 . S
H2456 C2462 0.949 . S
C2457 H2452 0.950 . S
C2457 C2459 1.327 . S
C2457 C2463 1.429 . S
C2458 C2450 1.574 . S
C2458 H2453 0.949 . S
C2458 C2464 1.368 . S
C2459 C2443 1.349 . S
C2459 H2451 0.950 . S
C2459 C2457 1.327 . S
C2460 C2448 1.349 . S
C2460 H2454 0.950 . S
C2460 C2461 1.327 . S
C2461 H2455 0.950 . S
C2461 C2460 1.327 . S
C2461 C2465 1.429 . S
C2462 C2445 1.574 . S
C2462 H2456 0.949 . S
C2462 C2466 1.368 . S
C2463 C2444 1.429 . S
C2463 C2457 1.429 . S
C2463 C2464 1.523 . S
C2464 C2445 1.368 . S
C2464 C2458 1.368 . S
C2464 C2463 1.523 . S
C2465 C2449 1.429 . S
C2465 C2461 1.429 . S
C2465 C2466 1.523 . S
C2466 C2450 1.368 . S
C2466 C2462 1.368 . S
C2466 C2465 1.523 . S
H2467 C2442 0.950 . S
H2468 C2444 0.950 . S
H2469 C2445 0.949 . S
H2470 C2447 0.950 . S
H2471 C2449 0.950 . S
C2472 C2473 1.349 . S
C2472 C2474 1.327 . S
C2472 H2497 0.950 . S
C2473 C2472 1.349 . S
C2473 C2489 1.349 . S
C2474 C2472 1.327 . S
C2474 C2493 1.429 . S
C2474 H2498 0.950 . S
C2475 C2492 1.574 . S
C2475 C2494 1.368 . S
C2475 H2499 0.949 . S
H2476 C2480 0.949 . S
C2477 C2478 1.349 . S
C2477 C2479 1.327 . S
C2477 H2500 0.950 . S
C2478 C2477 1.349 . S
C2478 C2490 1.349 . S
C2479 C2477 1.327 . S
C2479 C2495 1.429 . S
C2479 H2501 0.950 . S
C2480 H2476 0.949 . S
C2480 C2488 1.574 . S
C2480 C2496 1.368 . S
H2481 C2489 0.950 . S
H2482 C2487 0.950 . S
H2483 C2488 0.949 . S
H2484 C2490 0.950 . S
H2485 C2491 0.950 . S
H2486 C2492 0.949 . S
C2487 H2482 0.950 . S
C2487 C2489 1.327 . S
C2487 C2493 1.429 . S
C2488 C2480 1.574 . S
C2488 H2483 0.949 . S
C2488 C2494 1.368 . S
C2489 C2473 1.349 . S
C2489 H2481 0.950 . S
C2489 C2487 1.327 . S
C2490 C2478 1.349 . S
C2490 H2484 0.950 . S
C2490 C2491 1.327 . S
C2491 H2485 0.950 . S
C2491 C2490 1.327 . S
C2491 C2495 1.429 . S
C2492 C2475 1.574 . S
C2492 H2486 0.949 . S
C2492 C2496 1.368 . S
C2493 C2474 1.429 . S
C2493 C2487 1.429 . S
C2493 C2494 1.523 . S
C2494 C2475 1.368 . S
C2494 C2488 1.368 . S
C2494 C2493 1.523 . S
C2495 C2479 1.429 . S
C2495 C2491 1.429 . S
C2495 C2496 1.523 . S
C2496 C2480 1.368 . S
C2496 C2492 1.368 . S
C2496 C2495 1.523 . S
H2497 C2472 0.950 . S
H2498 C2474 0.950 . S
H2499 C2475 0.949 . S
H2500 C2477 0.950 . S
H2501 C2479 0.950 . S
C2502 C2503 1.349 . S
C2502 C2504 1.327 . S
C2502 H2527 0.950 . S
C2503 C2502 1.349 . S
C2503 C2519 1.349 . S
C2504 C2502 1.327 . S
C2504 C2523 1.429 . S
C2504 H2528 0.950 . S
C2505 C2522 1.574 . S
C2505 C2524 1.368 . S
C2505 H2529 0.949 . S
H2506 C2510 0.949 . S
C2507 C2508 1.349 . S
C2507 C2509 1.327 . S
C2507 H2530 0.950 . S
C2508 C2507 1.349 . S
C2508 C2520 1.349 . S
C2509 C2507 1.327 . S
C2509 C2525 1.429 . S
C2509 H2531 0.950 . S
C2510 H2506 0.949 . S
C2510 C2518 1.574 . S
C2510 C2526 1.368 . S
H2511 C2519 0.950 . S
H2512 C2517 0.950 . S
H2513 C2518 0.949 . S
H2514 C2520 0.950 . S
H2515 C2521 0.950 . S
H2516 C2522 0.949 . S
C2517 H2512 0.950 . S
C2517 C2519 1.327 . S
C2517 C2523 1.429 . S
C2518 C2510 1.574 . S
C2518 H2513 0.949 . S
C2518 C2524 1.368 . S
C2519 C2503 1.349 . S
C2519 H2511 0.950 . S
C2519 C2517 1.327 . S
C2520 C2508 1.349 . S
C2520 H2514 0.950 . S
C2520 C2521 1.327 . S
C2521 H2515 0.950 . S
C2521 C2520 1.327 . S
C2521 C2525 1.429 . S
C2522 C2505 1.574 . S
C2522 H2516 0.949 . S
C2522 C2526 1.368 . S
C2523 C2504 1.429 . S
C2523 C2517 1.429 . S
C2523 C2524 1.523 . S
C2524 C2505 1.368 . S
C2524 C2518 1.368 . S
C2524 C2523 1.523 . S
C2525 C2509 1.429 . S
C2525 C2521 1.429 . S
C2525 C2526 1.523 . S
C2526 C2510 1.368 . S
C2526 C2522 1.368 . S
C2526 C2525 1.523 . S
H2527 C2502 0.950 . S
H2528 C2504 0.950 . S
H2529 C2505 0.949 . S
H2530 C2507 0.950 . S
H2531 C2509 0.950 . S
C2532 C2533 1.349 . S
C2532 C2534 1.327 . S
C2532 H2557 0.950 . S
C2533 C2532 1.349 . S
C2533 C2549 1.349 . S
C2534 C2532 1.327 . S
C2534 C2553 1.429 . S
C2534 H2558 0.950 . S
C2535 C2552 1.574 . S
C2535 C2554 1.368 . S
C2535 H2559 0.949 . S
H2536 C2540 0.949 . S
C2537 C2538 1.349 . S
C2537 C2539 1.327 . S
C2537 H2560 0.950 . S
C2538 C2537 1.349 . S
C2538 C2550 1.349 . S
C2539 C2537 1.327 . S
C2539 C2555 1.429 . S
C2539 H2561 0.950 . S
C2540 H2536 0.949 . S
C2540 C2548 1.574 . S
C2540 C2556 1.368 . S
H2541 C2549 0.950 . S
H2542 C2547 0.950 . S
H2543 C2548 0.949 . S
H2544 C2550 0.950 . S
H2545 C2551 0.950 . S
H2546 C2552 0.949 . S
C2547 H2542 0.950 . S
C2547 C2549 1.327 . S
C2547 C2553 1.429 . S
C2548 C2540 1.574 . S
C2548 H2543 0.949 . S
C2548 C2554 1.368 . S
C2549 C2533 1.349 . S
C2549 H2541 0.950 . S
C2549 C2547 1.327 . S
C2550 C2538 1.349 . S
C2550 H2544 0.950 . S
C2550 C2551 1.327 . S
C2551 H2545 0.950 . S
C2551 C2550 1.327 . S
C2551 C2555 1.429 . S
C2552 C2535 1.574 . S
C2552 H2546 0.949 . S
C2552 C2556 1.368 . S
C2553 C2534 1.429 . S
C2553 C2547 1.429 . S
C2553 C2554 1.523 . S
C2554 C2535 1.368 . S
C2554 C2548 1.368 . S
C2554 C2553 1.523 . S
C2555 C2539 1.429 . S
C2555 C2551 1.429 . S
C2555 C2556 1.523 . S
C2556 C2540 1.368 . S
C2556 C2552 1.368 . S
C2556 C2555 1.523 . S
H2557 C2532 0.950 . S
H2558 C2534 0.950 . S
H2559 C2535 0.949 . S
H2560 C2537 0.950 . S
H2561 C2539 0.950 . S
C2562 C2563 1.349 . S
C2562 C2564 1.327 . S
C2562 H2587 0.950 . S
C2563 C2562 1.349 . S
C2563 C2579 1.349 . S
C2564 C2562 1.327 . S
C2564 C2583 1.429 . S
C2564 H2588 0.950 . S
C2565 C2582 1.574 . S
C2565 C2584 1.368 . S
C2565 H2589 0.949 . S
H2566 C2570 0.949 . S
C2567 C2568 1.349 . S
C2567 C2569 1.327 . S
C2567 H2590 0.950 . S
C2568 C2567 1.349 . S
C2568 C2580 1.349 . S
C2569 C2567 1.327 . S
C2569 C2585 1.429 . S
C2569 H2591 0.950 . S
C2570 H2566 0.949 . S
C2570 C2578 1.574 . S
C2570 C2586 1.368 . S
H2571 C2579 0.950 . S
H2572 C2577 0.950 . S
H2573 C2578 0.949 . S
H2574 C2580 0.950 . S
H2575 C2581 0.950 . S
H2576 C2582 0.949 . S
C2577 H2572 0.950 . S
C2577 C2579 1.327 . S
C2577 C2583 1.429 . S
C2578 C2570 1.574 . S
C2578 H2573 0.949 . S
C2578 C2584 1.368 . S
C2579 C2563 1.349 . S
C2579 H2571 0.950 . S
C2579 C2577 1.327 . S
C2580 C2568 1.349 . S
C2580 H2574 0.950 . S
C2580 C2581 1.327 . S
C2581 H2575 0.950 . S
C2581 C2580 1.327 . S
C2581 C2585 1.429 . S
C2582 C2565 1.574 . S
C2582 H2576 0.949 . S
C2582 C2586 1.368 . S
C2583 C2564 1.429 . S
C2583 C2577 1.429 . S
C2583 C2584 1.523 . S
C2584 C2565 1.368 . S
C2584 C2578 1.368 . S
C2584 C2583 1.523 . S
C2585 C2569 1.429 . S
C2585 C2581 1.429 . S
C2585 C2586 1.523 . S
C2586 C2570 1.368 . S
C2586 C2582 1.368 . S
C2586 C2585 1.523 . S
H2587 C2562 0.950 . S
H2588 C2564 0.950 . S
H2589 C2565 0.949 . S
H2590 C2567 0.950 . S
H2591 C2569 0.950 . S
C2592 C2593 1.349 . S
C2592 C2594 1.327 . S
C2592 H2617 0.950 . S
C2593 C2592 1.349 . S
C2593 C2609 1.349 . S
C2594 C2592 1.327 . S
C2594 C2613 1.429 . S
C2594 H2618 0.950 . S
C2595 C2612 1.574 . S
C2595 C2614 1.368 . S
C2595 H2619 0.949 . S
H2596 C2600 0.949 . S
C2597 C2598 1.349 . S
C2597 C2599 1.327 . S
C2597 H2620 0.950 . S
C2598 C2597 1.349 . S
C2598 C2610 1.349 . S
C2599 C2597 1.327 . S
C2599 C2615 1.429 . S
C2599 H2621 0.950 . S
C2600 H2596 0.949 . S
C2600 C2608 1.574 . S
C2600 C2616 1.368 . S
H2601 C2609 0.950 . S
H2602 C2607 0.950 . S
H2603 C2608 0.949 . S
H2604 C2610 0.950 . S
H2605 C2611 0.950 . S
H2606 C2612 0.949 . S
C2607 H2602 0.950 . S
C2607 C2609 1.327 . S
C2607 C2613 1.429 . S
C2608 C2600 1.574 . S
C2608 H2603 0.949 . S
C2608 C2614 1.368 . S
C2609 C2593 1.349 . S
C2609 H2601 0.950 . S
C2609 C2607 1.327 . S
C2610 C2598 1.349 . S
C2610 H2604 0.950 . S
C2610 C2611 1.327 . S
C2611 H2605 0.950 . S
C2611 C2610 1.327 . S
C2611 C2615 1.429 . S
C2612 C2595 1.574 . S
C2612 H2606 0.949 . S
C2612 C2616 1.368 . S
C2613 C2594 1.429 . S
C2613 C2607 1.429 . S
C2613 C2614 1.523 . S
C2614 C2595 1.368 . S
C2614 C2608 1.368 . S
C2614 C2613 1.523 . S
C2615 C2599 1.429 . S
C2615 C2611 1.429 . S
C2615 C2616 1.523 . S
C2616 C2600 1.368 . S
C2616 C2612 1.368 . S
C2616 C2615 1.523 . S
H2617 C2592 0.950 . S
H2618 C2594 0.950 . S
H2619 C2595 0.949 . S
H2620 C2597 0.950 . S
H2621 C2599 0.950 . S
C2622 C2623 1.349 . S
C2622 C2624 1.327 . S
C2622 H2647 0.950 . S
C2623 C2622 1.349 . S
C2623 C2639 1.349 . S
C2624 C2622 1.327 . S
C2624 C2643 1.429 . S
C2624 H2648 0.950 . S
C2625 C2642 1.574 . S
C2625 C2644 1.368 . S
C2625 H2649 0.949 . S
H2626 C2630 0.949 . S
C2627 C2628 1.349 . S
C2627 C2629 1.327 . S
C2627 H2650 0.950 . S
C2628 C2627 1.349 . S
C2628 C2640 1.349 . S
C2629 C2627 1.327 . S
C2629 C2645 1.429 . S
C2629 H2651 0.950 . S
C2630 H2626 0.949 . S
C2630 C2638 1.574 . S
C2630 C2646 1.368 . S
H2631 C2639 0.950 . S
H2632 C2637 0.950 . S
H2633 C2638 0.949 . S
H2634 C2640 0.950 . S
H2635 C2641 0.950 . S
H2636 C2642 0.949 . S
C2637 H2632 0.950 . S
C2637 C2639 1.327 . S
C2637 C2643 1.429 . S
C2638 C2630 1.574 . S
C2638 H2633 0.949 . S
C2638 C2644 1.368 . S
C2639 C2623 1.349 . S
C2639 H2631 0.950 . S
C2639 C2637 1.327 . S
C2640 C2628 1.349 . S
C2640 H2634 0.950 . S
C2640 C2641 1.327 . S
C2641 H2635 0.950 . S
C2641 C2640 1.327 . S
C2641 C2645 1.429 . S
C2642 C2625 1.574 . S
C2642 H2636 0.949 . S
C2642 C2646 1.368 . S
C2643 C2624 1.429 . S
C2643 C2637 1.429 . S
C2643 C2644 1.523 . S
C2644 C2625 1.368 . S
C2644 C2638 1.368 . S
C2644 C2643 1.523 . S
C2645 C2629 1.429 . S
C2645 C2641 1.429 . S
C2645 C2646 1.523 . S
C2646 C2630 1.368 . S
C2646 C2642 1.368 . S
C2646 C2645 1.523 . S
H2647 C2622 0.950 . S
H2648 C2624 0.950 . S
H2649 C2625 0.949 . S
H2650 C2627 0.950 . S
H2651 C2629 0.950 . S
C2652 C2653 1.349 . S
C2652 C2654 1.327 . S
C2652 H2677 0.950 . S
C2653 C2652 1.349 . S
C2653 C2669 1.349 . S
C2654 C2652 1.327 . S
C2654 C2673 1.429 . S
C2654 H2678 0.950 . S
C2655 C2672 1.574 . S
C2655 C2674 1.368 . S
C2655 H2679 0.949 . S
H2656 C2660 0.949 . S
C2657 C2658 1.349 . S
C2657 C2659 1.327 . S
C2657 H2680 0.950 . S
C2658 C2657 1.349 . S
C2658 C2670 1.349 . S
C2659 C2657 1.327 . S
C2659 C2675 1.429 . S
C2659 H2681 0.950 . S
C2660 H2656 0.949 . S
C2660 C2668 1.574 . S
C2660 C2676 1.368 . S
H2661 C2669 0.950 . S
H2662 C2667 0.950 . S
H2663 C2668 0.949 . S
H2664 C2670 0.950 . S
H2665 C2671 0.950 . S
H2666 C2672 0.949 . S
C2667 H2662 0.950 . S
C2667 C2669 1.327 . S
C2667 C2673 1.429 . S
C2668 C2660 1.574 . S
C2668 H2663 0.949 . S
C2668 C2674 1.368 . S
C2669 C2653 1.349 . S
C2669 H2661 0.950 . S
C2669 C2667 1.327 . S
C2670 C2658 1.349 . S
C2670 H2664 0.950 . S
C2670 C2671 1.327 . S
C2671 H2665 0.950 . S
C2671 C2670 1.327 . S
C2671 C2675 1.429 . S
C2672 C2655 1.574 . S
C2672 H2666 0.949 . S
C2672 C2676 1.368 . S
C2673 C2654 1.429 . S
C2673 C2667 1.429 . S
C2673 C2674 1.523 . S
C2674 C2655 1.368 . S
C2674 C2668 1.368 . S
C2674 C2673 1.523 . S
C2675 C2659 1.429 . S
C2675 C2671 1.429 . S
C2675 C2676 1.523 . S
C2676 C2660 1.368 . S
C2676 C2672 1.368 . S
C2676 C2675 1.523 . S
H2677 C2652 0.950 . S
H2678 C2654 0.950 . S
H2679 C2655 0.949 . S
H2680 C2657 0.950 . S
H2681 C2659 0.950 . S
C2682 C2683 1.349 . S
C2682 C2684 1.327 . S
C2682 H2707 0.950 . S
C2683 C2682 1.349 . S
C2683 C2699 1.349 . S
C2684 C2682 1.327 . S
C2684 C2703 1.429 . S
C2684 H2708 0.950 . S
C2685 C2702 1.574 . S
C2685 C2704 1.368 . S
C2685 H2709 0.949 . S
H2686 C2690 0.949 . S
C2687 C2688 1.349 . S
C2687 C2689 1.327 . S
C2687 H2710 0.950 . S
C2688 C2687 1.349 . S
C2688 C2700 1.349 . S
C2689 C2687 1.327 . S
C2689 C2705 1.429 . S
C2689 H2711 0.950 . S
C2690 H2686 0.949 . S
C2690 C2698 1.574 . S
C2690 C2706 1.368 . S
H2691 C2699 0.950 . S
H2692 C2697 0.950 . S
H2693 C2698 0.949 . S
H2694 C2700 0.950 . S
H2695 C2701 0.950 . S
H2696 C2702 0.949 . S
C2697 H2692 0.950 . S
C2697 C2699 1.327 . S
C2697 C2703 1.429 . S
C2698 C2690 1.574 . S
C2698 H2693 0.949 . S
C2698 C2704 1.368 . S
C2699 C2683 1.349 . S
C2699 H2691 0.950 . S
C2699 C2697 1.327 . S
C2700 C2688 1.349 . S
C2700 H2694 0.950 . S
C2700 C2701 1.327 . S
C2701 H2695 0.950 . S
C2701 C2700 1.327 . S
C2701 C2705 1.429 . S
C2702 C2685 1.574 . S
C2702 H2696 0.949 . S
C2702 C2706 1.368 . S
C2703 C2684 1.429 . S
C2703 C2697 1.429 . S
C2703 C2704 1.523 . S
C2704 C2685 1.368 . S
C2704 C2698 1.368 . S
C2704 C2703 1.523 . S
C2705 C2689 1.429 . S
C2705 C2701 1.429 . S
C2705 C2706 1.523 . S
C2706 C2690 1.368 . S
C2706 C2702 1.368 . S
C2706 C2705 1.523 . S
H2707 C2682 0.950 . S
H2708 C2684 0.950 . S
H2709 C2685 0.949 . S
H2710 C2687 0.950 . S
H2711 C2689 0.950 . S
C2712 C2713 1.349 . S
C2712 C2714 1.327 . S
C2712 H2737 0.950 . S
C2713 C2712 1.349 . S
C2713 C2729 1.349 . S
C2714 C2712 1.327 . S
C2714 C2733 1.429 . S
C2714 H2738 0.950 . S
C2715 C2732 1.574 . S
C2715 C2734 1.368 . S
C2715 H2739 0.949 . S
H2716 C2720 0.949 . S
C2717 C2718 1.349 . S
C2717 C2719 1.327 . S
C2717 H2740 0.950 . S
C2718 C2717 1.349 . S
C2718 C2730 1.349 . S
C2719 C2717 1.327 . S
C2719 C2735 1.429 . S
C2719 H2741 0.950 . S
C2720 H2716 0.949 . S
C2720 C2728 1.574 . S
C2720 C2736 1.368 . S
H2721 C2729 0.950 . S
H2722 C2727 0.950 . S
H2723 C2728 0.949 . S
H2724 C2730 0.950 . S
H2725 C2731 0.950 . S
H2726 C2732 0.949 . S
C2727 H2722 0.950 . S
C2727 C2729 1.327 . S
C2727 C2733 1.429 . S
C2728 C2720 1.574 . S
C2728 H2723 0.949 . S
C2728 C2734 1.368 . S
C2729 C2713 1.349 . S
C2729 H2721 0.950 . S
C2729 C2727 1.327 . S
C2730 C2718 1.349 . S
C2730 H2724 0.950 . S
C2730 C2731 1.327 . S
C2731 H2725 0.950 . S
C2731 C2730 1.327 . S
C2731 C2735 1.429 . S
C2732 C2715 1.574 . S
C2732 H2726 0.949 . S
C2732 C2736 1.368 . S
C2733 C2714 1.429 . S
C2733 C2727 1.429 . S
C2733 C2734 1.523 . S
C2734 C2715 1.368 . S
C2734 C2728 1.368 . S
C2734 C2733 1.523 . S
C2735 C2719 1.429 . S
C2735 C2731 1.429 . S
C2735 C2736 1.523 . S
C2736 C2720 1.368 . S
C2736 C2732 1.368 . S
C2736 C2735 1.523 . S
H2737 C2712 0.950 . S
H2738 C2714 0.950 . S
H2739 C2715 0.949 . S
H2740 C2717 0.950 . S
H2741 C2719 0.950 . S
C2742 C2743 1.349 . S
C2742 C2744 1.327 . S
C2742 H2767 0.950 . S
C2743 C2742 1.349 . S
C2743 C2759 1.349 . S
C2744 C2742 1.327 . S
C2744 C2763 1.429 . S
C2744 H2768 0.950 . S
C2745 C2762 1.574 . S
C2745 C2764 1.368 . S
C2745 H2769 0.949 . S
H2746 C2750 0.949 . S
C2747 C2748 1.349 . S
C2747 C2749 1.327 . S
C2747 H2770 0.950 . S
C2748 C2747 1.349 . S
C2748 C2760 1.349 . S
C2749 C2747 1.327 . S
C2749 C2765 1.429 . S
C2749 H2771 0.950 . S
C2750 H2746 0.949 . S
C2750 C2758 1.574 . S
C2750 C2766 1.368 . S
H2751 C2759 0.950 . S
H2752 C2757 0.950 . S
H2753 C2758 0.949 . S
H2754 C2760 0.950 . S
H2755 C2761 0.950 . S
H2756 C2762 0.949 . S
C2757 H2752 0.950 . S
C2757 C2759 1.327 . S
C2757 C2763 1.429 . S
C2758 C2750 1.574 . S
C2758 H2753 0.949 . S
C2758 C2764 1.368 . S
C2759 C2743 1.349 . S
C2759 H2751 0.950 . S
C2759 C2757 1.327 . S
C2760 C2748 1.349 . S
C2760 H2754 0.950 . S
C2760 C2761 1.327 . S
C2761 H2755 0.950 . S
C2761 C2760 1.327 . S
C2761 C2765 1.429 . S
C2762 C2745 1.574 . S
C2762 H2756 0.949 . S
C2762 C2766 1.368 . S
C2763 C2744 1.429 . S
C2763 C2757 1.429 . S
C2763 C2764 1.523 . S
C2764 C2745 1.368 . S
C2764 C2758 1.368 . S
C2764 C2763 1.523 . S
C2765 C2749 1.429 . S
C2765 C2761 1.429 . S
C2765 C2766 1.523 . S
C2766 C2750 1.368 . S
C2766 C2762 1.368 . S
C2766 C2765 1.523 . S
H2767 C2742 0.950 . S
H2768 C2744 0.950 . S
H2769 C2745 0.949 . S
H2770 C2747 0.950 . S
H2771 C2749 0.950 . S
C2772 C2773 1.349 . S
C2772 C2774 1.327 . S
C2772 H2797 0.950 . S
C2773 C2772 1.349 . S
C2773 C2789 1.349 . S
C2774 C2772 1.327 . S
C2774 C2793 1.429 . S
C2774 H2798 0.950 . S
C2775 C2792 1.574 . S
C2775 C2794 1.368 . S
C2775 H2799 0.949 . S
H2776 C2780 0.949 . S
C2777 C2778 1.349 . S
C2777 C2779 1.327 . S
C2777 H2800 0.950 . S
C2778 C2777 1.349 . S
C2778 C2790 1.349 . S
C2779 C2777 1.327 . S
C2779 C2795 1.429 . S
C2779 H2801 0.950 . S
C2780 H2776 0.949 . S
C2780 C2788 1.574 . S
C2780 C2796 1.368 . S
H2781 C2789 0.950 . S
H2782 C2787 0.950 . S
H2783 C2788 0.949 . S
H2784 C2790 0.950 . S
H2785 C2791 0.950 . S
H2786 C2792 0.949 . S
C2787 H2782 0.950 . S
C2787 C2789 1.327 . S
C2787 C2793 1.429 . S
C2788 C2780 1.574 . S
C2788 H2783 0.949 . S
C2788 C2794 1.368 . S
C2789 C2773 1.349 . S
C2789 H2781 0.950 . S
C2789 C2787 1.327 . S
C2790 C2778 1.349 . S
C2790 H2784 0.950 . S
C2790 C2791 1.327 . S
C2791 H2785 0.950 . S
C2791 C2790 1.327 . S
C2791 C2795 1.429 . S
C2792 C2775 1.574 . S
C2792 H2786 0.949 . S
C2792 C2796 1.368 . S
C2793 C2774 1.429 . S
C2793 C2787 1.429 . S
C2793 C2794 1.523 . S
C2794 C2775 1.368 . S
C2794 C2788 1.368 . S
C2794 C2793 1.523 . S
C2795 C2779 1.429 . S
C2795 C2791 1.429 . S
C2795 C2796 1.523 . S
C2796 C2780 1.368 . S
C2796 C2792 1.368 . S
C2796 C2795 1.523 . S
H2797 C2772 0.950 . S
H2798 C2774 0.950 . S
H2799 C2775 0.949 . S
H2800 C2777 0.950 . S
H2801 C2779 0.950 . S
C2802 C2803 1.349 . S
C2802 C2804 1.327 . S
C2802 H2827 0.950 . S
C2803 C2802 1.349 . S
C2803 C2819 1.349 . S
C2804 C2802 1.327 . S
C2804 C2823 1.429 . S
C2804 H2828 0.950 . S
C2805 C2822 1.574 1_545 S
C2805 C2824 1.368 . S
C2805 H2829 0.949 . S
H2806 C2810 0.949 . S
C2807 C2808 1.349 . S
C2807 C2809 1.327 . S
C2807 H2830 0.950 . S
C2808 C2807 1.349 . S
C2808 C2820 1.349 . S
C2809 C2807 1.327 . S
C2809 C2825 1.429 . S
C2809 H2831 0.950 . S
C2810 H2806 0.949 . S
C2810 C2818 1.574 1_565 S
C2810 C2826 1.368 . S
H2811 C2819 0.950 . S
H2812 C2817 0.950 . S
H2813 C2818 0.949 . S
H2814 C2820 0.950 . S
H2815 C2821 0.950 . S
H2816 C2822 0.949 . S
C2817 H2812 0.950 . S
C2817 C2819 1.327 . S
C2817 C2823 1.429 . S
C2818 C2810 1.574 1_545 S
C2818 H2813 0.949 . S
C2818 C2824 1.368 . S
C2819 C2803 1.349 . S
C2819 H2811 0.950 . S
C2819 C2817 1.327 . S
C2820 C2808 1.349 . S
C2820 H2814 0.950 . S
C2820 C2821 1.327 . S
C2821 H2815 0.950 . S
C2821 C2820 1.327 . S
C2821 C2825 1.429 . S
C2822 C2805 1.574 1_565 S
C2822 H2816 0.949 . S
C2822 C2826 1.368 . S
C2823 C2804 1.429 . S
C2823 C2817 1.429 . S
C2823 C2824 1.523 . S
C2824 C2805 1.368 . S
C2824 C2818 1.368 . S
C2824 C2823 1.523 . S
C2825 C2809 1.429 . S
C2825 C2821 1.429 . S
C2825 C2826 1.523 . S
C2826 C2810 1.368 . S
C2826 C2822 1.368 . S
C2826 C2825 1.523 . S
H2827 C2802 0.950 . S
H2828 C2804 0.950 . S
H2829 C2805 0.949 . S
H2830 C2807 0.950 . S
H2831 C2809 0.950 . S
C2832 C2833 1.349 . S
C2832 C2834 1.327 . S
C2832 H2857 0.950 . S
C2833 C2832 1.349 . S
C2833 C2849 1.349 . S
C2834 C2832 1.327 . S
C2834 C2853 1.429 . S
C2834 H2858 0.950 . S
C2835 C2852 1.574 1_655 S
C2835 C2854 1.368 . S
C2835 H2859 0.949 . S
H2836 C2840 0.949 . S
C2837 C2838 1.349 . S
C2837 C2839 1.327 . S
C2837 H2860 0.950 . S
C2838 C2837 1.349 . S
C2838 C2850 1.349 . S
C2839 C2837 1.327 . S
C2839 C2855 1.429 . S
C2839 H2861 0.950 . S
C2840 H2836 0.949 . S
C2840 C2848 1.574 1_455 S
C2840 C2856 1.368 . S
H2841 C2849 0.950 . S
H2842 C2847 0.950 . S
H2843 C2848 0.949 . S
H2844 C2850 0.950 . S
H2845 C2851 0.950 . S
H2846 C2852 0.949 . S
C2847 H2842 0.950 . S
C2847 C2849 1.327 . S
C2847 C2853 1.429 . S
C2848 C2840 1.574 1_655 S
C2848 H2843 0.949 . S
C2848 C2854 1.368 . S
C2849 C2833 1.349 . S
C2849 H2841 0.950 . S
C2849 C2847 1.327 . S
C2850 C2838 1.349 . S
C2850 H2844 0.950 . S
C2850 C2851 1.327 . S
C2851 H2845 0.950 . S
C2851 C2850 1.327 . S
C2851 C2855 1.429 . S
C2852 C2835 1.574 1_455 S
C2852 H2846 0.949 . S
C2852 C2856 1.368 . S
C2853 C2834 1.429 . S
C2853 C2847 1.429 . S
C2853 C2854 1.523 . S
C2854 C2835 1.368 . S
C2854 C2848 1.368 . S
C2854 C2853 1.523 . S
C2855 C2839 1.429 . S
C2855 C2851 1.429 . S
C2855 C2856 1.523 . S
C2856 C2840 1.368 . S
C2856 C2852 1.368 . S
C2856 C2855 1.523 . S
H2857 C2832 0.950 . S
H2858 C2834 0.950 . S
H2859 C2835 0.949 . S
H2860 C2837 0.950 . S
H2861 C2839 0.950 . S
C2862 C2863 1.349 . S
C2862 C2864 1.327 . S
C2862 H2887 0.950 . S
C2863 C2862 1.349 . S
C2863 C2879 1.349 . S
C2864 C2862 1.327 . S
C2864 C2883 1.429 . S
C2864 H2888 0.950 . S
C2865 C2882 1.574 . S
C2865 C2884 1.368 . S
C2865 H2889 0.949 . S
H2866 C2870 0.949 . S
C2867 C2868 1.349 . S
C2867 C2869 1.327 . S
C2867 H2890 0.950 . S
C2868 C2867 1.349 . S
C2868 C2880 1.349 . S
C2869 C2867 1.327 . S
C2869 C2885 1.429 . S
C2869 H2891 0.950 . S
C2870 H2866 0.949 . S
C2870 C2878 1.574 . S
C2870 C2886 1.368 . S
H2871 C2879 0.950 . S
H2872 C2877 0.950 . S
H2873 C2878 0.949 . S
H2874 C2880 0.950 . S
H2875 C2881 0.950 . S
H2876 C2882 0.949 . S
C2877 H2872 0.950 . S
C2877 C2879 1.327 . S
C2877 C2883 1.429 . S
C2878 C2870 1.574 . S
C2878 H2873 0.949 . S
C2878 C2884 1.368 . S
C2879 C2863 1.349 . S
C2879 H2871 0.950 . S
C2879 C2877 1.327 . S
C2880 C2868 1.349 . S
C2880 H2874 0.950 . S
C2880 C2881 1.327 . S
C2881 H2875 0.950 . S
C2881 C2880 1.327 . S
C2881 C2885 1.429 . S
C2882 C2865 1.574 . S
C2882 H2876 0.949 . S
C2882 C2886 1.368 . S
C2883 C2864 1.429 . S
C2883 C2877 1.429 . S
C2883 C2884 1.523 . S
C2884 C2865 1.368 . S
C2884 C2878 1.368 . S
C2884 C2883 1.523 . S
C2885 C2869 1.429 . S
C2885 C2881 1.429 . S
C2885 C2886 1.523 . S
C2886 C2870 1.368 . S
C2886 C2882 1.368 . S
C2886 C2885 1.523 . S
H2887 C2862 0.950 . S
H2888 C2864 0.950 . S
H2889 C2865 0.949 . S
H2890 C2867 0.950 . S
H2891 C2869 0.950 . S
C2892 C2893 1.349 . S
C2892 C2894 1.327 . S
C2892 H2917 0.950 . S
C2893 C2892 1.349 . S
C2893 C2909 1.349 . S
C2894 C2892 1.327 . S
C2894 C2913 1.429 . S
C2894 H2918 0.950 . S
C2895 C2912 1.574 1_545 S
C2895 C2914 1.368 . S
C2895 H2919 0.949 . S
H2896 C2900 0.949 . S
C2897 C2898 1.349 . S
C2897 C2899 1.327 . S
C2897 H2920 0.950 . S
C2898 C2897 1.349 . S
C2898 C2910 1.349 . S
C2899 C2897 1.327 . S
C2899 C2915 1.429 . S
C2899 H2921 0.950 . S
C2900 H2896 0.949 . S
C2900 C2908 1.574 1_565 S
C2900 C2916 1.368 . S
H2901 C2909 0.950 . S
H2902 C2907 0.950 . S
H2903 C2908 0.949 . S
H2904 C2910 0.950 . S
H2905 C2911 0.950 . S
H2906 C2912 0.949 . S
C2907 H2902 0.950 . S
C2907 C2909 1.327 . S
C2907 C2913 1.429 . S
C2908 C2900 1.574 1_545 S
C2908 H2903 0.949 . S
C2908 C2914 1.368 . S
C2909 C2893 1.349 . S
C2909 H2901 0.950 . S
C2909 C2907 1.327 . S
C2910 C2898 1.349 . S
C2910 H2904 0.950 . S
C2910 C2911 1.327 . S
C2911 H2905 0.950 . S
C2911 C2910 1.327 . S
C2911 C2915 1.429 . S
C2912 C2895 1.574 1_565 S
C2912 H2906 0.949 . S
C2912 C2916 1.368 . S
C2913 C2894 1.429 . S
C2913 C2907 1.429 . S
C2913 C2914 1.523 . S
C2914 C2895 1.368 . S
C2914 C2908 1.368 . S
C2914 C2913 1.523 . S
C2915 C2899 1.429 . S
C2915 C2911 1.429 . S
C2915 C2916 1.523 . S
C2916 C2900 1.368 . S
C2916 C2912 1.368 . S
C2916 C2915 1.523 . S
H2917 C2892 0.950 . S
H2918 C2894 0.950 . S
H2919 C2895 0.949 . S
H2920 C2897 0.950 . S
H2921 C2899 0.950 . S
C2922 C2923 1.349 . S
C2922 C2924 1.327 . S
C2922 H2947 0.950 . S
C2923 C2922 1.349 . S
C2923 C2939 1.349 . S
C2924 C2922 1.327 . S
C2924 C2943 1.429 . S
C2924 H2948 0.950 . S
C2925 C2942 1.574 1_655 S
C2925 C2944 1.368 . S
C2925 H2949 0.949 . S
H2926 C2930 0.949 . S
C2927 C2928 1.349 . S
C2927 C2929 1.327 . S
C2927 H2950 0.950 . S
C2928 C2927 1.349 . S
C2928 C2940 1.349 . S
C2929 C2927 1.327 . S
C2929 C2945 1.429 . S
C2929 H2951 0.950 . S
C2930 H2926 0.949 . S
C2930 C2938 1.574 1_455 S
C2930 C2946 1.368 . S
H2931 C2939 0.950 . S
H2932 C2937 0.950 . S
H2933 C2938 0.949 . S
H2934 C2940 0.950 . S
H2935 C2941 0.950 . S
H2936 C2942 0.949 . S
C2937 H2932 0.950 . S
C2937 C2939 1.327 . S
C2937 C2943 1.429 . S
C2938 C2930 1.574 1_655 S
C2938 H2933 0.949 . S
C2938 C2944 1.368 . S
C2939 C2923 1.349 . S
C2939 H2931 0.950 . S
C2939 C2937 1.327 . S
C2940 C2928 1.349 . S
C2940 H2934 0.950 . S
C2940 C2941 1.327 . S
C2941 H2935 0.950 . S
C2941 C2940 1.327 . S
C2941 C2945 1.429 . S
C2942 C2925 1.574 1_455 S
C2942 H2936 0.949 . S
C2942 C2946 1.368 . S
C2943 C2924 1.429 . S
C2943 C2937 1.429 . S
C2943 C2944 1.523 . S
C2944 C2925 1.368 . S
C2944 C2938 1.368 . S
C2944 C2943 1.523 . S
C2945 C2929 1.429 . S
C2945 C2941 1.429 . S
C2945 C2946 1.523 . S
C2946 C2930 1.368 . S
C2946 C2942 1.368 . S
C2946 C2945 1.523 . S
H2947 C2922 0.950 . S
H2948 C2924 0.950 . S
H2949 C2925 0.949 . S
H2950 C2927 0.950 . S
H2951 C2929 0.950 . S
C2952 C2953 1.349 . S
C2952 C2954 1.327 . S
C2952 H2977 0.950 1_554 S
C2953 C2952 1.349 . S
C2953 C2969 1.349 . S
C2954 C2952 1.327 . S
C2954 C2973 1.429 . S
C2954 H2978 0.950 1_554 S
C2955 C2972 1.574 . S
C2955 C2974 1.368 . S
C2955 H2979 0.949 . S
H2956 C2960 0.955 . S
C2957 C2958 1.349 . S
C2957 C2959 1.327 . S
C2957 H2980 0.950 . S
C2958 C2957 1.349 . S
C2958 C2970 1.349 . S
C2959 C2957 1.327 . S
C2959 C2975 1.429 . S
C2959 H2981 0.950 . S
C2960 H2956 0.955 . S
C2960 C2968 1.574 . S
C2960 C2976 1.362 1_556 S
H2961 C2969 0.950 . S
H2962 C2967 0.950 . S
H2963 C2968 0.955 . S
H2964 C2970 0.950 1_556 S
H2965 C2971 0.950 1_556 S
H2966 C2972 0.949 . S
C2967 H2962 0.950 . S
C2967 C2969 1.327 . S
C2967 C2973 1.429 . S
C2968 C2960 1.574 . S
C2968 H2963 0.955 . S
C2968 C2974 1.362 1_556 S
C2969 C2953 1.349 . S
C2969 H2961 0.950 . S
C2969 C2967 1.327 . S
C2970 C2958 1.349 . S
C2970 H2964 0.950 1_554 S
C2970 C2971 1.327 . S
C2971 H2965 0.950 1_554 S
C2971 C2970 1.327 . S
C2971 C2975 1.429 . S
C2972 C2955 1.574 . S
C2972 H2966 0.949 . S
C2972 C2976 1.368 . S
C2973 C2954 1.429 . S
C2973 C2967 1.429 . S
C2973 C2974 1.523 . S
C2974 C2955 1.368 . S
C2974 C2968 1.362 1_554 S
C2974 C2973 1.523 . S
C2975 C2959 1.429 . S
C2975 C2971 1.429 . S
C2975 C2976 1.523 . S
C2976 C2960 1.362 1_554 S
C2976 C2972 1.368 . S
C2976 C2975 1.523 . S
H2977 C2952 0.950 1_556 S
H2978 C2954 0.950 1_556 S
H2979 C2955 0.949 . S
H2980 C2957 0.950 . S
H2981 C2959 0.950 . S
C2982 C2983 1.349 1_556 S
C2982 C2984 1.327 . S
C2982 H3007 0.950 . S
C2983 C2982 1.349 1_554 S
C2983 C2999 1.349 . S
C2984 C2982 1.327 . S
C2984 C3003 1.429 1_556 S
C2984 H3008 0.950 . S
C2985 C3002 1.574 . S
C2985 C3004 1.368 . S
C2985 H3009 0.949 . S
H2986 C2990 0.949 . S
C2987 C2988 1.349 . S
C2987 C2989 1.327 . S
C2987 H3010 0.950 . S
C2988 C2987 1.349 . S
C2988 C3000 1.349 1_554 S
C2989 C2987 1.327 . S
C2989 C3005 1.429 . S
C2989 H3011 0.950 . S
C2990 H2986 0.949 . S
C2990 C2998 1.574 . S
C2990 C3006 1.368 1_556 S
H2991 C2999 0.950 . S
H2992 C2997 0.950 . S
H2993 C2998 0.949 . S
H2994 C3000 0.950 . S
H2995 C3001 0.950 . S
H2996 C3002 0.949 . S
C2997 H2992 0.950 . S
C2997 C2999 1.327 . S
C2997 C3003 1.429 . S
C2998 C2990 1.574 . S
C2998 H2993 0.949 . S
C2998 C3004 1.368 1_556 S
C2999 C2983 1.349 . S
C2999 H2991 0.950 . S
C2999 C2997 1.327 . S
C3000 C2988 1.349 1_556 S
C3000 H2994 0.950 . S
C3000 C3001 1.327 . S
C3001 H2995 0.950 . S
C3001 C3000 1.327 . S
C3001 C3005 1.429 1_556 S
C3002 C2985 1.574 . S
C3002 H2996 0.949 . S
C3002 C3006 1.368 . S
C3003 C2984 1.429 1_554 S
C3003 C2997 1.429 . S
C3003 C3004 1.523 . S
C3004 C2985 1.368 . S
C3004 C2998 1.368 1_554 S
C3004 C3003 1.523 . S
C3005 C2989 1.429 . S
C3005 C3001 1.429 1_554 S
C3005 C3006 1.523 . S
C3006 C2990 1.368 1_554 S
C3006 C3002 1.368 . S
C3006 C3005 1.523 . S
H3007 C2982 0.950 . S
H3008 C2984 0.950 . S
H3009 C2985 0.949 . S
H3010 C2987 0.950 . S
H3011 C2989 0.950 . S
C3012 C3013 1.349 1_556 S
C3012 C3014 1.327 . S
C3012 H3037 0.950 . S
C3013 C3012 1.349 1_554 S
C3013 C3029 1.349 . S
C3014 C3012 1.327 . S
C3014 C3033 1.429 1_556 S
C3014 H3038 0.950 . S
C3015 C3032 1.574 . S
C3015 C3034 1.368 . S
C3015 H3039 0.949 . S
H3016 C3020 0.949 . S
C3017 C3018 1.349 . S
C3017 C3019 1.327 . S
C3017 H3040 0.950 . S
C3018 C3017 1.349 . S
C3018 C3030 1.349 1_554 S
C3019 C3017 1.327 . S
C3019 C3035 1.429 . S
C3019 H3041 0.950 . S
C3020 H3016 0.949 . S
C3020 C3028 1.574 . S
C3020 C3036 1.368 1_556 S
H3021 C3029 0.950 . S
H3022 C3027 0.950 . S
H3023 C3028 0.949 . S
H3024 C3030 0.950 . S
H3025 C3031 0.950 . S
H3026 C3032 0.949 . S
C3027 H3022 0.950 . S
C3027 C3029 1.327 . S
C3027 C3033 1.429 . S
C3028 C3020 1.574 . S
C3028 H3023 0.949 . S
C3028 C3034 1.368 1_556 S
C3029 C3013 1.349 . S
C3029 H3021 0.950 . S
C3029 C3027 1.327 . S
C3030 C3018 1.349 1_556 S
C3030 H3024 0.950 . S
C3030 C3031 1.327 . S
C3031 H3025 0.950 . S
C3031 C3030 1.327 . S
C3031 C3035 1.429 1_556 S
C3032 C3015 1.574 . S
C3032 H3026 0.949 . S
C3032 C3036 1.368 . S
C3033 C3014 1.429 1_554 S
C3033 C3027 1.429 . S
C3033 C3034 1.523 . S
C3034 C3015 1.368 . S
C3034 C3028 1.368 1_554 S
C3034 C3033 1.523 . S
C3035 C3019 1.429 . S
C3035 C3031 1.429 1_554 S
C3035 C3036 1.523 . S
C3036 C3020 1.368 1_554 S
C3036 C3032 1.368 . S
C3036 C3035 1.523 . S
H3037 C3012 0.950 . S
H3038 C3014 0.950 . S
H3039 C3015 0.949 . S
H3040 C3017 0.950 . S
H3041 C3019 0.950 . S
C3042 C3043 1.349 1_554 S
C3042 C3044 1.327 . S
C3042 H3067 0.950 . S
C3043 C3042 1.349 1_556 S
C3043 C3059 1.349 . S
C3044 C3042 1.327 . S
C3044 C3063 1.429 1_554 S
C3044 H3068 0.950 . S
C3045 C3062 1.574 . S
C3045 C3064 1.368 . S
C3045 H3069 0.949 . S
H3046 C3050 0.949 . S
C3047 C3048 1.349 . S
C3047 C3049 1.327 . S
C3047 H3070 0.950 . S
C3048 C3047 1.349 . S
C3048 C3060 1.349 1_556 S
C3049 C3047 1.327 . S
C3049 C3065 1.429 . S
C3049 H3071 0.950 . S
C3050 H3046 0.949 . S
C3050 C3058 1.574 . S
C3050 C3066 1.368 1_554 S
H3051 C3059 0.950 . S
H3052 C3057 0.950 . S
H3053 C3058 0.949 . S
H3054 C3060 0.950 . S
H3055 C3061 0.950 . S
H3056 C3062 0.949 . S
C3057 H3052 0.950 . S
C3057 C3059 1.327 . S
C3057 C3063 1.429 . S
C3058 C3050 1.574 . S
C3058 H3053 0.949 . S
C3058 C3064 1.368 1_554 S
C3059 C3043 1.349 . S
C3059 H3051 0.950 . S
C3059 C3057 1.327 . S
C3060 C3048 1.349 1_554 S
C3060 H3054 0.950 . S
C3060 C3061 1.327 . S
C3061 H3055 0.950 . S
C3061 C3060 1.327 . S
C3061 C3065 1.429 1_554 S
C3062 C3045 1.574 . S
C3062 H3056 0.949 . S
C3062 C3066 1.368 . S
C3063 C3044 1.429 1_556 S
C3063 C3057 1.429 . S
C3063 C3064 1.523 . S
C3064 C3045 1.368 . S
C3064 C3058 1.368 1_556 S
C3064 C3063 1.523 . S
C3065 C3049 1.429 . S
C3065 C3061 1.429 1_556 S
C3065 C3066 1.523 . S
C3066 C3050 1.368 1_556 S
C3066 C3062 1.368 . S
C3066 C3065 1.523 . S
H3067 C3042 0.950 . S
H3068 C3044 0.950 . S
H3069 C3045 0.949 . S
H3070 C3047 0.950 . S
H3071 C3049 0.950 . S
C3072 C3073 1.349 . S
C3072 C3074 1.327 . S
C3072 H3097 0.950 . S
C3073 C3072 1.349 . S
C3073 C3089 1.349 1_556 S
C3074 C3072 1.327 . S
C3074 C3093 1.429 . S
C3074 H3098 0.950 . S
C3075 C3092 1.574 . S
C3075 C3094 1.368 1_554 S
C3075 H3099 0.949 . S
H3076 C3080 0.949 . S
C3077 C3078 1.349 1_554 S
C3077 C3079 1.327 . S
C3077 H3100 0.950 . S
C3078 C3077 1.349 1_556 S
C3078 C3090 1.349 . S
C3079 C3077 1.327 . S
C3079 C3095 1.429 1_554 S
C3079 H3101 0.950 . S
C3080 H3076 0.949 . S
C3080 C3088 1.574 . S
C3080 C3096 1.368 . S
H3081 C3089 0.950 . S
H3082 C3087 0.950 . S
H3083 C3088 0.949 . S
H3084 C3090 0.950 . S
H3085 C3091 0.950 . S
H3086 C3092 0.949 . S
C3087 H3082 0.950 . S
C3087 C3089 1.327 . S
C3087 C3093 1.429 1_554 S
C3088 C3080 1.574 . S
C3088 H3083 0.949 . S
C3088 C3094 1.368 . S
C3089 C3073 1.349 1_554 S
C3089 H3081 0.950 . S
C3089 C3087 1.327 . S
C3090 C3078 1.349 . S
C3090 H3084 0.950 . S
C3090 C3091 1.327 . S
C3091 H3085 0.950 . S
C3091 C3090 1.327 . S
C3091 C3095 1.429 . S
C3092 C3075 1.574 . S
C3092 H3086 0.949 . S
C3092 C3096 1.368 1_554 S
C3093 C3074 1.429 . S
C3093 C3087 1.429 1_556 S
C3093 C3094 1.523 . S
C3094 C3075 1.368 1_556 S
C3094 C3088 1.368 . S
C3094 C3093 1.523 . S
C3095 C3079 1.429 1_556 S
C3095 C3091 1.429 . S
C3095 C3096 1.523 . S
C3096 C3080 1.368 . S
C3096 C3092 1.368 1_556 S
C3096 C3095 1.523 . S
H3097 C3072 0.950 . S
H3098 C3074 0.950 . S
H3099 C3075 0.949 . S
H3100 C3077 0.950 . S
H3101 C3079 0.950 . S
C3102 C3103 1.349 1_554 S
C3102 C3104 1.327 . S
C3102 H3127 0.950 . S
C3103 C3102 1.349 1_556 S
C3103 C3119 1.349 . S
C3104 C3102 1.327 . S
C3104 C3123 1.429 1_554 S
C3104 H3128 0.950 . S
C3105 C3122 1.574 . S
C3105 C3124 1.368 . S
C3105 H3129 0.949 . S
H3106 C3110 0.949 . S
C3107 C3108 1.349 . S
C3107 C3109 1.327 . S
C3107 H3130 0.950 . S
C3108 C3107 1.349 . S
C3108 C3120 1.349 1_556 S
C3109 C3107 1.327 . S
C3109 C3125 1.429 . S
C3109 H3131 0.950 . S
C3110 H3106 0.949 . S
C3110 C3118 1.574 . S
C3110 C3126 1.368 1_554 S
H3111 C3119 0.950 . S
H3112 C3117 0.950 . S
H3113 C3118 0.949 . S
H3114 C3120 0.950 . S
H3115 C3121 0.950 . S
H3116 C3122 0.949 . S
C3117 H3112 0.950 . S
C3117 C3119 1.327 . S
C3117 C3123 1.429 . S
C3118 C3110 1.574 . S
C3118 H3113 0.949 . S
C3118 C3124 1.368 1_554 S
C3119 C3103 1.349 . S
C3119 H3111 0.950 . S
C3119 C3117 1.327 . S
C3120 C3108 1.349 1_554 S
C3120 H3114 0.950 . S
C3120 C3121 1.327 . S
C3121 H3115 0.950 . S
C3121 C3120 1.327 . S
C3121 C3125 1.429 1_554 S
C3122 C3105 1.574 . S
C3122 H3116 0.949 . S
C3122 C3126 1.368 . S
C3123 C3104 1.429 1_556 S
C3123 C3117 1.429 . S
C3123 C3124 1.523 . S
C3124 C3105 1.368 . S
C3124 C3118 1.368 1_556 S
C3124 C3123 1.523 . S
C3125 C3109 1.429 . S
C3125 C3121 1.429 1_556 S
C3125 C3126 1.523 . S
C3126 C3110 1.368 1_556 S
C3126 C3122 1.368 . S
C3126 C3125 1.523 . S
H3127 C3102 0.950 . S
H3128 C3104 0.950 . S
H3129 C3105 0.949 . S
H3130 C3107 0.950 . S
H3131 C3109 0.950 . S
C3132 C3133 1.349 . S
C3132 C3134 1.327 . S
C3132 H3157 0.950 . S
C3133 C3132 1.349 . S
C3133 C3149 1.349 . S
C3134 C3132 1.327 . S
C3134 C3153 1.429 . S
C3134 H3158 0.950 . S
C3135 C3152 1.574 . S
C3135 C3154 1.368 . S
C3135 H3159 0.949 . S
H3136 C3140 0.949 . S
C3137 C3138 1.349 . S
C3137 C3139 1.327 . S
C3137 H3160 0.950 . S
C3138 C3137 1.349 . S
C3138 C3150 1.349 . S
C3139 C3137 1.327 . S
C3139 C3155 1.429 . S
C3139 H3161 0.950 . S
C3140 H3136 0.949 . S
C3140 C3148 1.574 . S
C3140 C3156 1.368 . S
H3141 C3149 0.950 . S
H3142 C3147 0.950 . S
H3143 C3148 0.949 . S
H3144 C3150 0.950 . S
H3145 C3151 0.950 . S
H3146 C3152 0.949 . S
C3147 H3142 0.950 . S
C3147 C3149 1.327 . S
C3147 C3153 1.429 . S
C3148 C3140 1.574 . S
C3148 H3143 0.949 . S
C3148 C3154 1.368 . S
C3149 C3133 1.349 . S
C3149 H3141 0.950 . S
C3149 C3147 1.327 . S
C3150 C3138 1.349 . S
C3150 H3144 0.950 . S
C3150 C3151 1.327 . S
C3151 H3145 0.950 . S
C3151 C3150 1.327 . S
C3151 C3155 1.429 . S
C3152 C3135 1.574 . S
C3152 H3146 0.949 . S
C3152 C3156 1.368 . S
C3153 C3134 1.429 . S
C3153 C3147 1.429 . S
C3153 C3154 1.523 . S
C3154 C3135 1.368 . S
C3154 C3148 1.368 . S
C3154 C3153 1.523 . S
C3155 C3139 1.429 . S
C3155 C3151 1.429 . S
C3155 C3156 1.523 . S
C3156 C3140 1.368 . S
C3156 C3152 1.368 . S
C3156 C3155 1.523 . S
H3157 C3132 0.950 . S
H3158 C3134 0.950 . S
H3159 C3135 0.949 . S
H3160 C3137 0.950 . S
H3161 C3139 0.950 . S
C3162 C3163 1.349 . S
C3162 C3164 1.327 . S
C3162 H3187 0.950 . S
C3163 C3162 1.349 . S
C3163 C3179 1.349 . S
C3164 C3162 1.327 . S
C3164 C3183 1.429 . S
C3164 H3188 0.950 . S
C3165 C3182 1.574 . S
C3165 C3184 1.368 . S
C3165 H3189 0.949 . S
H3166 C3170 0.949 . S
C3167 C3168 1.349 . S
C3167 C3169 1.327 . S
C3167 H3190 0.950 . S
C3168 C3167 1.349 . S
C3168 C3180 1.349 . S
C3169 C3167 1.327 . S
C3169 C3185 1.429 . S
C3169 H3191 0.950 . S
C3170 H3166 0.949 . S
C3170 C3178 1.574 . S
C3170 C3186 1.368 . S
H3171 C3179 0.950 . S
H3172 C3177 0.950 . S
H3173 C3178 0.949 . S
H3174 C3180 0.950 . S
H3175 C3181 0.950 . S
H3176 C3182 0.949 . S
C3177 H3172 0.950 . S
C3177 C3179 1.327 . S
C3177 C3183 1.429 . S
C3178 C3170 1.574 . S
C3178 H3173 0.949 . S
C3178 C3184 1.368 . S
C3179 C3163 1.349 . S
C3179 H3171 0.950 . S
C3179 C3177 1.327 . S
C3180 C3168 1.349 . S
C3180 H3174 0.950 . S
C3180 C3181 1.327 . S
C3181 H3175 0.950 . S
C3181 C3180 1.327 . S
C3181 C3185 1.429 . S
C3182 C3165 1.574 . S
C3182 H3176 0.949 . S
C3182 C3186 1.368 . S
C3183 C3164 1.429 . S
C3183 C3177 1.429 . S
C3183 C3184 1.523 . S
C3184 C3165 1.368 . S
C3184 C3178 1.368 . S
C3184 C3183 1.523 . S
C3185 C3169 1.429 . S
C3185 C3181 1.429 . S
C3185 C3186 1.523 . S
C3186 C3170 1.368 . S
C3186 C3182 1.368 . S
C3186 C3185 1.523 . S
H3187 C3162 0.950 . S
H3188 C3164 0.950 . S
H3189 C3165 0.949 . S
H3190 C3167 0.950 . S
H3191 C3169 0.950 . S
C3192 C3193 1.349 . S
C3192 C3194 1.327 . S
C3192 H3217 0.950 . S
C3193 C3192 1.349 . S
C3193 C3209 1.349 . S
C3194 C3192 1.327 . S
C3194 C3213 1.429 . S
C3194 H3218 0.950 . S
C3195 C3212 1.574 . S
C3195 C3214 1.368 . S
C3195 H3219 0.949 . S
H3196 C3200 0.949 . S
C3197 C3198 1.349 . S
C3197 C3199 1.327 . S
C3197 H3220 0.950 . S
C3198 C3197 1.349 . S
C3198 C3210 1.349 . S
C3199 C3197 1.327 . S
C3199 C3215 1.429 . S
C3199 H3221 0.950 . S
C3200 H3196 0.949 . S
C3200 C3208 1.574 . S
C3200 C3216 1.368 . S
H3201 C3209 0.950 . S
H3202 C3207 0.950 . S
H3203 C3208 0.949 . S
H3204 C3210 0.950 . S
H3205 C3211 0.950 . S
H3206 C3212 0.949 . S
C3207 H3202 0.950 . S
C3207 C3209 1.327 . S
C3207 C3213 1.429 . S
C3208 C3200 1.574 . S
C3208 H3203 0.949 . S
C3208 C3214 1.368 . S
C3209 C3193 1.349 . S
C3209 H3201 0.950 . S
C3209 C3207 1.327 . S
C3210 C3198 1.349 . S
C3210 H3204 0.950 . S
C3210 C3211 1.327 . S
C3211 H3205 0.950 . S
C3211 C3210 1.327 . S
C3211 C3215 1.429 . S
C3212 C3195 1.574 . S
C3212 H3206 0.949 . S
C3212 C3216 1.368 . S
C3213 C3194 1.429 . S
C3213 C3207 1.429 . S
C3213 C3214 1.523 . S
C3214 C3195 1.368 . S
C3214 C3208 1.368 . S
C3214 C3213 1.523 . S
C3215 C3199 1.429 . S
C3215 C3211 1.429 . S
C3215 C3216 1.523 . S
C3216 C3200 1.368 . S
C3216 C3212 1.368 . S
C3216 C3215 1.523 . S
H3217 C3192 0.950 . S
H3218 C3194 0.950 . S
H3219 C3195 0.949 . S
H3220 C3197 0.950 . S
H3221 C3199 0.950 . S
C3222 C3223 1.349 . S
C3222 C3224 1.327 . S
C3222 H3247 0.950 . S
C3223 C3222 1.349 . S
C3223 C3239 1.349 . S
C3224 C3222 1.327 . S
C3224 C3243 1.429 . S
C3224 H3248 0.950 . S
C3225 C3242 1.574 . S
C3225 C3244 1.368 . S
C3225 H3249 0.949 . S
H3226 C3230 0.949 . S
C3227 C3228 1.349 . S
C3227 C3229 1.327 . S
C3227 H3250 0.950 . S
C3228 C3227 1.349 . S
C3228 C3240 1.349 . S
C3229 C3227 1.327 . S
C3229 C3245 1.429 . S
C3229 H3251 0.950 . S
C3230 H3226 0.949 . S
C3230 C3238 1.574 . S
C3230 C3246 1.368 . S
H3231 C3239 0.950 . S
H3232 C3237 0.950 . S
H3233 C3238 0.949 . S
H3234 C3240 0.950 . S
H3235 C3241 0.950 . S
H3236 C3242 0.949 . S
C3237 H3232 0.950 . S
C3237 C3239 1.327 . S
C3237 C3243 1.429 . S
C3238 C3230 1.574 . S
C3238 H3233 0.949 . S
C3238 C3244 1.368 . S
C3239 C3223 1.349 . S
C3239 H3231 0.950 . S
C3239 C3237 1.327 . S
C3240 C3228 1.349 . S
C3240 H3234 0.950 . S
C3240 C3241 1.327 . S
C3241 H3235 0.950 . S
C3241 C3240 1.327 . S
C3241 C3245 1.429 . S
C3242 C3225 1.574 . S
C3242 H3236 0.949 . S
C3242 C3246 1.368 . S
C3243 C3224 1.429 . S
C3243 C3237 1.429 . S
C3243 C3244 1.523 . S
C3244 C3225 1.368 . S
C3244 C3238 1.368 . S
C3244 C3243 1.523 . S
C3245 C3229 1.429 . S
C3245 C3241 1.429 . S
C3245 C3246 1.523 . S
C3246 C3230 1.368 . S
C3246 C3242 1.368 . S
C3246 C3245 1.523 . S
H3247 C3222 0.950 . S
H3248 C3224 0.950 . S
H3249 C3225 0.949 . S
H3250 C3227 0.950 . S
H3251 C3229 0.950 . S
C3252 C3253 1.349 . S
C3252 C3254 1.327 . S
C3252 H3277 0.950 . S
C3253 C3252 1.349 . S
C3253 C3269 1.349 . S
C3254 C3252 1.327 . S
C3254 C3273 1.429 . S
C3254 H3278 0.950 . S
C3255 C3272 1.574 . S
C3255 C3274 1.368 . S
C3255 H3279 0.949 . S
H3256 C3260 0.949 . S
C3257 C3258 1.349 . S
C3257 C3259 1.327 . S
C3257 H3280 0.950 . S
C3258 C3257 1.349 . S
C3258 C3270 1.349 . S
C3259 C3257 1.327 . S
C3259 C3275 1.429 . S
C3259 H3281 0.950 . S
C3260 H3256 0.949 . S
C3260 C3268 1.574 . S
C3260 C3276 1.368 . S
H3261 C3269 0.950 . S
H3262 C3267 0.950 . S
H3263 C3268 0.949 . S
H3264 C3270 0.950 . S
H3265 C3271 0.950 . S
H3266 C3272 0.949 . S
C3267 H3262 0.950 . S
C3267 C3269 1.327 . S
C3267 C3273 1.429 . S
C3268 C3260 1.574 . S
C3268 H3263 0.949 . S
C3268 C3274 1.368 . S
C3269 C3253 1.349 . S
C3269 H3261 0.950 . S
C3269 C3267 1.327 . S
C3270 C3258 1.349 . S
C3270 H3264 0.950 . S
C3270 C3271 1.327 . S
C3271 H3265 0.950 . S
C3271 C3270 1.327 . S
C3271 C3275 1.429 . S
C3272 C3255 1.574 . S
C3272 H3266 0.949 . S
C3272 C3276 1.368 . S
C3273 C3254 1.429 . S
C3273 C3267 1.429 . S
C3273 C3274 1.523 . S
C3274 C3255 1.368 . S
C3274 C3268 1.368 . S
C3274 C3273 1.523 . S
C3275 C3259 1.429 . S
C3275 C3271 1.429 . S
C3275 C3276 1.523 . S
C3276 C3260 1.368 . S
C3276 C3272 1.368 . S
C3276 C3275 1.523 . S
H3277 C3252 0.950 . S
H3278 C3254 0.950 . S
H3279 C3255 0.949 . S
H3280 C3257 0.950 . S
H3281 C3259 0.950 . S
C3282 C3283 1.349 . S
C3282 C3284 1.327 . S
C3282 H3307 0.950 . S
C3283 C3282 1.349 . S
C3283 C3299 1.349 . S
C3284 C3282 1.327 . S
C3284 C3303 1.429 . S
C3284 H3308 0.950 . S
C3285 C3302 1.574 . S
C3285 C3304 1.368 . S
C3285 H3309 0.949 . S
H3286 C3290 0.949 . S
C3287 C3288 1.349 . S
C3287 C3289 1.327 . S
C3287 H3310 0.950 . S
C3288 C3287 1.349 . S
C3288 C3300 1.349 . S
C3289 C3287 1.327 . S
C3289 C3305 1.429 . S
C3289 H3311 0.950 . S
C3290 H3286 0.949 . S
C3290 C3298 1.574 . S
C3290 C3306 1.368 . S
H3291 C3299 0.950 . S
H3292 C3297 0.950 . S
H3293 C3298 0.949 . S
H3294 C3300 0.950 . S
H3295 C3301 0.950 . S
H3296 C3302 0.949 . S
C3297 H3292 0.950 . S
C3297 C3299 1.327 . S
C3297 C3303 1.429 . S
C3298 C3290 1.574 . S
C3298 H3293 0.949 . S
C3298 C3304 1.368 . S
C3299 C3283 1.349 . S
C3299 H3291 0.950 . S
C3299 C3297 1.327 . S
C3300 C3288 1.349 . S
C3300 H3294 0.950 . S
C3300 C3301 1.327 . S
C3301 H3295 0.950 . S
C3301 C3300 1.327 . S
C3301 C3305 1.429 . S
C3302 C3285 1.574 . S
C3302 H3296 0.949 . S
C3302 C3306 1.368 . S
C3303 C3284 1.429 . S
C3303 C3297 1.429 . S
C3303 C3304 1.523 . S
C3304 C3285 1.368 . S
C3304 C3298 1.368 . S
C3304 C3303 1.523 . S
C3305 C3289 1.429 . S
C3305 C3301 1.429 . S
C3305 C3306 1.523 . S
C3306 C3290 1.368 . S
C3306 C3302 1.368 . S
C3306 C3305 1.523 . S
H3307 C3282 0.950 . S
H3308 C3284 0.950 . S
H3309 C3285 0.949 . S
H3310 C3287 0.950 . S
H3311 C3289 0.950 . S
C3312 C3313 1.349 . S
C3312 C3314 1.327 . S
C3312 H3337 0.950 . S
C3313 C3312 1.349 . S
C3313 C3329 1.349 . S
C3314 C3312 1.327 . S
C3314 C3333 1.429 . S
C3314 H3338 0.950 . S
C3315 C3332 1.574 . S
C3315 C3334 1.368 . S
C3315 H3339 0.949 . S
H3316 C3320 0.949 . S
C3317 C3318 1.349 . S
C3317 C3319 1.327 . S
C3317 H3340 0.950 . S
C3318 C3317 1.349 . S
C3318 C3330 1.349 . S
C3319 C3317 1.327 . S
C3319 C3335 1.429 . S
C3319 H3341 0.950 . S
C3320 H3316 0.949 . S
C3320 C3328 1.574 . S
C3320 C3336 1.368 . S
H3321 C3329 0.950 . S
H3322 C3327 0.950 . S
H3323 C3328 0.949 . S
H3324 C3330 0.950 . S
H3325 C3331 0.950 . S
H3326 C3332 0.949 . S
C3327 H3322 0.950 . S
C3327 C3329 1.327 . S
C3327 C3333 1.429 . S
C3328 C3320 1.574 . S
C3328 H3323 0.949 . S
C3328 C3334 1.368 . S
C3329 C3313 1.349 . S
C3329 H3321 0.950 . S
C3329 C3327 1.327 . S
C3330 C3318 1.349 . S
C3330 H3324 0.950 . S
C3330 C3331 1.327 . S
C3331 H3325 0.950 . S
C3331 C3330 1.327 . S
C3331 C3335 1.429 . S
C3332 C3315 1.574 . S
C3332 H3326 0.949 . S
C3332 C3336 1.368 . S
C3333 C3314 1.429 . S
C3333 C3327 1.429 . S
C3333 C3334 1.523 . S
C3334 C3315 1.368 . S
C3334 C3328 1.368 . S
C3334 C3333 1.523 . S
C3335 C3319 1.429 . S
C3335 C3331 1.429 . S
C3335 C3336 1.523 . S
C3336 C3320 1.368 . S
C3336 C3332 1.368 . S
C3336 C3335 1.523 . S
H3337 C3312 0.950 . S
H3338 C3314 0.950 . S
H3339 C3315 0.949 . S
H3340 C3317 0.950 . S
H3341 C3319 0.950 . S
C3342 C3343 1.349 . S
C3342 C3344 1.327 . S
C3342 H3367 0.950 . S
C3343 C3342 1.349 . S
C3343 C3359 1.349 . S
C3344 C3342 1.327 . S
C3344 C3363 1.429 . S
C3344 H3368 0.950 . S
C3345 C3362 1.574 . S
C3345 C3364 1.368 . S
C3345 H3369 0.949 . S
H3346 C3350 0.949 . S
C3347 C3348 1.349 . S
C3347 C3349 1.327 . S
C3347 H3370 0.950 . S
C3348 C3347 1.349 . S
C3348 C3360 1.349 . S
C3349 C3347 1.327 . S
C3349 C3365 1.429 . S
C3349 H3371 0.950 . S
C3350 H3346 0.949 . S
C3350 C3358 1.574 . S
C3350 C3366 1.368 . S
H3351 C3359 0.950 . S
H3352 C3357 0.950 . S
H3353 C3358 0.949 . S
H3354 C3360 0.950 . S
H3355 C3361 0.950 . S
H3356 C3362 0.949 . S
C3357 H3352 0.950 . S
C3357 C3359 1.327 . S
C3357 C3363 1.429 . S
C3358 C3350 1.574 . S
C3358 H3353 0.949 . S
C3358 C3364 1.368 . S
C3359 C3343 1.349 . S
C3359 H3351 0.950 . S
C3359 C3357 1.327 . S
C3360 C3348 1.349 . S
C3360 H3354 0.950 . S
C3360 C3361 1.327 . S
C3361 H3355 0.950 . S
C3361 C3360 1.327 . S
C3361 C3365 1.429 . S
C3362 C3345 1.574 . S
C3362 H3356 0.949 . S
C3362 C3366 1.368 . S
C3363 C3344 1.429 . S
C3363 C3357 1.429 . S
C3363 C3364 1.523 . S
C3364 C3345 1.368 . S
C3364 C3358 1.368 . S
C3364 C3363 1.523 . S
C3365 C3349 1.429 . S
C3365 C3361 1.429 . S
C3365 C3366 1.523 . S
C3366 C3350 1.368 . S
C3366 C3362 1.368 . S
C3366 C3365 1.523 . S
H3367 C3342 0.950 . S
H3368 C3344 0.950 . S
H3369 C3345 0.949 . S
H3370 C3347 0.950 . S
H3371 C3349 0.950 . S
C3372 C3373 1.349 . S
C3372 C3374 1.327 . S
C3372 H3397 0.950 . S
C3373 C3372 1.349 . S
C3373 C3389 1.349 . S
C3374 C3372 1.327 . S
C3374 C3393 1.429 . S
C3374 H3398 0.950 . S
C3375 C3392 1.574 . S
C3375 C3394 1.368 . S
C3375 H3399 0.949 . S
H3376 C3380 0.949 . S
C3377 C3378 1.349 . S
C3377 C3379 1.327 . S
C3377 H3400 0.950 . S
C3378 C3377 1.349 . S
C3378 C3390 1.349 . S
C3379 C3377 1.327 . S
C3379 C3395 1.429 . S
C3379 H3401 0.950 . S
C3380 H3376 0.949 . S
C3380 C3388 1.574 . S
C3380 C3396 1.368 . S
H3381 C3389 0.950 . S
H3382 C3387 0.950 . S
H3383 C3388 0.949 . S
H3384 C3390 0.950 . S
H3385 C3391 0.950 . S
H3386 C3392 0.949 . S
C3387 H3382 0.950 . S
C3387 C3389 1.327 . S
C3387 C3393 1.429 . S
C3388 C3380 1.574 . S
C3388 H3383 0.949 . S
C3388 C3394 1.368 . S
C3389 C3373 1.349 . S
C3389 H3381 0.950 . S
C3389 C3387 1.327 . S
C3390 C3378 1.349 . S
C3390 H3384 0.950 . S
C3390 C3391 1.327 . S
C3391 H3385 0.950 . S
C3391 C3390 1.327 . S
C3391 C3395 1.429 . S
C3392 C3375 1.574 . S
C3392 H3386 0.949 . S
C3392 C3396 1.368 . S
C3393 C3374 1.429 . S
C3393 C3387 1.429 . S
C3393 C3394 1.523 . S
C3394 C3375 1.368 . S
C3394 C3388 1.368 . S
C3394 C3393 1.523 . S
C3395 C3379 1.429 . S
C3395 C3391 1.429 . S
C3395 C3396 1.523 . S
C3396 C3380 1.368 . S
C3396 C3392 1.368 . S
C3396 C3395 1.523 . S
H3397 C3372 0.950 . S
H3398 C3374 0.950 . S
H3399 C3375 0.949 . S
H3400 C3377 0.950 . S
H3401 C3379 0.950 . S
C3402 C3403 1.349 . S
C3402 C3404 1.327 . S
C3402 H3427 0.950 . S
C3403 C3402 1.349 . S
C3403 C3419 1.349 . S
C3404 C3402 1.327 . S
C3404 C3423 1.429 . S
C3404 H3428 0.950 . S
C3405 C3422 1.574 . S
C3405 C3424 1.368 . S
C3405 H3429 0.949 . S
H3406 C3410 0.949 . S
C3407 C3408 1.349 . S
C3407 C3409 1.327 . S
C3407 H3430 0.950 . S
C3408 C3407 1.349 . S
C3408 C3420 1.349 . S
C3409 C3407 1.327 . S
C3409 C3425 1.429 . S
C3409 H3431 0.950 . S
C3410 H3406 0.949 . S
C3410 C3418 1.574 . S
C3410 C3426 1.368 . S
H3411 C3419 0.950 . S
H3412 C3417 0.950 . S
H3413 C3418 0.949 . S
H3414 C3420 0.950 . S
H3415 C3421 0.950 . S
H3416 C3422 0.949 . S
C3417 H3412 0.950 . S
C3417 C3419 1.327 . S
C3417 C3423 1.429 . S
C3418 C3410 1.574 . S
C3418 H3413 0.949 . S
C3418 C3424 1.368 . S
C3419 C3403 1.349 . S
C3419 H3411 0.950 . S
C3419 C3417 1.327 . S
C3420 C3408 1.349 . S
C3420 H3414 0.950 . S
C3420 C3421 1.327 . S
C3421 H3415 0.950 . S
C3421 C3420 1.327 . S
C3421 C3425 1.429 . S
C3422 C3405 1.574 . S
C3422 H3416 0.949 . S
C3422 C3426 1.368 . S
C3423 C3404 1.429 . S
C3423 C3417 1.429 . S
C3423 C3424 1.523 . S
C3424 C3405 1.368 . S
C3424 C3418 1.368 . S
C3424 C3423 1.523 . S
C3425 C3409 1.429 . S
C3425 C3421 1.429 . S
C3425 C3426 1.523 . S
C3426 C3410 1.368 . S
C3426 C3422 1.368 . S
C3426 C3425 1.523 . S
H3427 C3402 0.950 . S
H3428 C3404 0.950 . S
H3429 C3405 0.949 . S
H3430 C3407 0.950 . S
H3431 C3409 0.950 . S
C3432 C3433 1.349 . S
C3432 C3434 1.327 . S
C3432 H3457 0.950 . S
C3433 C3432 1.349 . S
C3433 C3449 1.349 . S
C3434 C3432 1.327 . S
C3434 C3453 1.429 . S
C3434 H3458 0.950 . S
C3435 C3452 1.574 . S
C3435 C3454 1.368 . S
C3435 H3459 0.949 . S
H3436 C3440 0.949 . S
C3437 C3438 1.349 . S
C3437 C3439 1.327 . S
C3437 H3460 0.950 . S
C3438 C3437 1.349 . S
C3438 C3450 1.349 . S
C3439 C3437 1.327 . S
C3439 C3455 1.429 . S
C3439 H3461 0.950 . S
C3440 H3436 0.949 . S
C3440 C3448 1.574 . S
C3440 C3456 1.368 . S
H3441 C3449 0.950 . S
H3442 C3447 0.950 . S
H3443 C3448 0.949 . S
H3444 C3450 0.950 . S
H3445 C3451 0.950 . S
H3446 C3452 0.949 . S
C3447 H3442 0.950 . S
C3447 C3449 1.327 . S
C3447 C3453 1.429 . S
C3448 C3440 1.574 . S
C3448 H3443 0.949 . S
C3448 C3454 1.368 . S
C3449 C3433 1.349 . S
C3449 H3441 0.950 . S
C3449 C3447 1.327 . S
C3450 C3438 1.349 . S
C3450 H3444 0.950 . S
C3450 C3451 1.327 . S
C3451 H3445 0.950 . S
C3451 C3450 1.327 . S
C3451 C3455 1.429 . S
C3452 C3435 1.574 . S
C3452 H3446 0.949 . S
C3452 C3456 1.368 . S
C3453 C3434 1.429 . S
C3453 C3447 1.429 . S
C3453 C3454 1.523 . S
C3454 C3435 1.368 . S
C3454 C3448 1.368 . S
C3454 C3453 1.523 . S
C3455 C3439 1.429 . S
C3455 C3451 1.429 . S
C3455 C3456 1.523 . S
C3456 C3440 1.368 . S
C3456 C3452 1.368 . S
C3456 C3455 1.523 . S
H3457 C3432 0.950 . S
H3458 C3434 0.950 . S
H3459 C3435 0.949 . S
H3460 C3437 0.950 . S
H3461 C3439 0.950 . S
C3462 C3463 1.349 . S
C3462 C3464 1.327 . S
C3462 H3487 0.950 . S
C3463 C3462 1.349 . S
C3463 C3479 1.349 . S
C3464 C3462 1.327 . S
C3464 C3483 1.429 . S
C3464 H3488 0.950 . S
C3465 C3482 1.574 . S
C3465 C3484 1.368 . S
C3465 H3489 0.949 . S
H3466 C3470 0.949 . S
C3467 C3468 1.349 . S
C3467 C3469 1.327 . S
C3467 H3490 0.950 . S
C3468 C3467 1.349 . S
C3468 C3480 1.349 . S
C3469 C3467 1.327 . S
C3469 C3485 1.429 . S
C3469 H3491 0.950 . S
C3470 H3466 0.949 . S
C3470 C3478 1.574 . S
C3470 C3486 1.368 . S
H3471 C3479 0.950 . S
H3472 C3477 0.950 . S
H3473 C3478 0.949 . S
H3474 C3480 0.950 . S
H3475 C3481 0.950 . S
H3476 C3482 0.949 . S
C3477 H3472 0.950 . S
C3477 C3479 1.327 . S
C3477 C3483 1.429 . S
C3478 C3470 1.574 . S
C3478 H3473 0.949 . S
C3478 C3484 1.368 . S
C3479 C3463 1.349 . S
C3479 H3471 0.950 . S
C3479 C3477 1.327 . S
C3480 C3468 1.349 . S
C3480 H3474 0.950 . S
C3480 C3481 1.327 . S
C3481 H3475 0.950 . S
C3481 C3480 1.327 . S
C3481 C3485 1.429 . S
C3482 C3465 1.574 . S
C3482 H3476 0.949 . S
C3482 C3486 1.368 . S
C3483 C3464 1.429 . S
C3483 C3477 1.429 . S
C3483 C3484 1.523 . S
C3484 C3465 1.368 . S
C3484 C3478 1.368 . S
C3484 C3483 1.523 . S
C3485 C3469 1.429 . S
C3485 C3481 1.429 . S
C3485 C3486 1.523 . S
C3486 C3470 1.368 . S
C3486 C3482 1.368 . S
C3486 C3485 1.523 . S
H3487 C3462 0.950 . S
H3488 C3464 0.950 . S
H3489 C3465 0.949 . S
H3490 C3467 0.950 . S
H3491 C3469 0.950 . S
C3492 C3493 1.349 . S
C3492 C3494 1.327 . S
C3492 H3517 0.950 . S
C3493 C3492 1.349 . S
C3493 C3509 1.349 . S
C3494 C3492 1.327 . S
C3494 C3513 1.429 . S
C3494 H3518 0.950 . S
C3495 C3512 1.574 . S
C3495 C3514 1.368 . S
C3495 H3519 0.949 . S
H3496 C3500 0.949 . S
C3497 C3498 1.349 . S
C3497 C3499 1.327 . S
C3497 H3520 0.950 . S
C3498 C3497 1.349 . S
C3498 C3510 1.349 . S
C3499 C3497 1.327 . S
C3499 C3515 1.429 . S
C3499 H3521 0.950 . S
C3500 H3496 0.949 . S
C3500 C3508 1.574 . S
C3500 C3516 1.368 . S
H3501 C3509 0.950 . S
H3502 C3507 0.950 . S
H3503 C3508 0.949 . S
H3504 C3510 0.950 . S
H3505 C3511 0.950 . S
H3506 C3512 0.949 . S
C3507 H3502 0.950 . S
C3507 C3509 1.327 . S
C3507 C3513 1.429 . S
C3508 C3500 1.574 . S
C3508 H3503 0.949 . S
C3508 C3514 1.368 . S
C3509 C3493 1.349 . S
C3509 H3501 0.950 . S
C3509 C3507 1.327 . S
C3510 C3498 1.349 . S
C3510 H3504 0.950 . S
C3510 C3511 1.327 . S
C3511 H3505 0.950 . S
C3511 C3510 1.327 . S
C3511 C3515 1.429 . S
C3512 C3495 1.574 . S
C3512 H3506 0.949 . S
C3512 C3516 1.368 . S
C3513 C3494 1.429 . S
C3513 C3507 1.429 . S
C3513 C3514 1.523 . S
C3514 C3495 1.368 . S
C3514 C3508 1.368 . S
C3514 C3513 1.523 . S
C3515 C3499 1.429 . S
C3515 C3511 1.429 . S
C3515 C3516 1.523 . S
C3516 C3500 1.368 . S
C3516 C3512 1.368 . S
C3516 C3515 1.523 . S
H3517 C3492 0.950 . S
H3518 C3494 0.950 . S
H3519 C3495 0.949 . S
H3520 C3497 0.950 . S
H3521 C3499 0.950 . S
C3522 C3523 1.349 . S
C3522 C3524 1.327 . S
C3522 H3547 0.950 . S
C3523 C3522 1.349 . S
C3523 C3539 1.349 . S
C3524 C3522 1.327 . S
C3524 C3543 1.429 . S
C3524 H3548 0.950 . S
C3525 C3542 1.574 . S
C3525 C3544 1.368 . S
C3525 H3549 0.949 . S
H3526 C3530 0.949 . S
C3527 C3528 1.349 . S
C3527 C3529 1.327 . S
C3527 H3550 0.950 . S
C3528 C3527 1.349 . S
C3528 C3540 1.349 . S
C3529 C3527 1.327 . S
C3529 C3545 1.429 . S
C3529 H3551 0.950 . S
C3530 H3526 0.949 . S
C3530 C3538 1.574 . S
C3530 C3546 1.368 . S
H3531 C3539 0.950 1_554 S
H3532 C3537 0.950 . S
H3533 C3538 0.949 . S
H3534 C3540 0.950 . S
H3535 C3541 0.950 . S
H3536 C3542 0.949 . S
C3537 H3532 0.950 . S
C3537 C3539 1.327 . S
C3537 C3543 1.429 . S
C3538 C3530 1.574 . S
C3538 H3533 0.949 . S
C3538 C3544 1.368 . S
C3539 C3523 1.349 . S
C3539 H3531 0.950 1_556 S
C3539 C3537 1.327 . S
C3540 C3528 1.349 . S
C3540 H3534 0.950 . S
C3540 C3541 1.327 . S
C3541 H3535 0.950 . S
C3541 C3540 1.327 . S
C3541 C3545 1.429 . S
C3542 C3525 1.574 . S
C3542 H3536 0.949 . S
C3542 C3546 1.368 . S
C3543 C3524 1.429 . S
C3543 C3537 1.429 . S
C3543 C3544 1.523 . S
C3544 C3525 1.368 . S
C3544 C3538 1.368 . S
C3544 C3543 1.523 . S
C3545 C3529 1.429 . S
C3545 C3541 1.429 . S
C3545 C3546 1.523 . S
C3546 C3530 1.368 . S
C3546 C3542 1.368 . S
C3546 C3545 1.523 . S
H3547 C3522 0.950 . S
H3548 C3524 0.950 . S
H3549 C3525 0.949 . S
H3550 C3527 0.950 . S
H3551 C3529 0.950 . S
C3552 C3553 1.349 . S
C3552 C3554 1.327 . S
C3552 H3577 0.950 . S
C3553 C3552 1.349 . S
C3553 C3569 1.349 . S
C3554 C3552 1.327 . S
C3554 C3573 1.429 . S
C3554 H3578 0.950 . S
C3555 C3572 1.574 . S
C3555 C3574 1.368 . S
C3555 H3579 0.949 . S
H3556 C3560 0.949 . S
C3557 C3558 1.348 . S
C3557 C3559 1.326 . S
C3557 H3580 0.952 1_556 S
C3558 C3557 1.348 . S
C3558 C3570 1.349 . S
C3559 C3557 1.326 . S
C3559 C3575 1.429 . S
C3559 H3581 0.950 . S
C3560 H3556 0.949 . S
C3560 C3568 1.574 . S
C3560 C3576 1.368 . S
H3561 C3569 0.950 . S
H3562 C3567 0.950 . S
H3563 C3568 0.949 . S
H3564 C3570 0.950 . S
H3565 C3571 0.950 . S
H3566 C3572 0.949 . S
C3567 H3562 0.950 . S
C3567 C3569 1.327 . S
C3567 C3573 1.429 . S
C3568 C3560 1.574 . S
C3568 H3563 0.949 . S
C3568 C3574 1.368 . S
C3569 C3553 1.349 . S
C3569 H3561 0.950 . S
C3569 C3567 1.327 . S
C3570 C3558 1.349 . S
C3570 H3564 0.950 . S
C3570 C3571 1.327 . S
C3571 H3565 0.950 . S
C3571 C3570 1.327 . S
C3571 C3575 1.429 . S
C3572 C3555 1.574 . S
C3572 H3566 0.949 . S
C3572 C3576 1.368 . S
C3573 C3554 1.429 . S
C3573 C3567 1.429 . S
C3573 C3574 1.523 . S
C3574 C3555 1.368 . S
C3574 C3568 1.368 . S
C3574 C3573 1.523 . S
C3575 C3559 1.429 . S
C3575 C3571 1.429 . S
C3575 C3576 1.523 . S
C3576 C3560 1.368 . S
C3576 C3572 1.368 . S
C3576 C3575 1.523 . S
H3577 C3552 0.950 . S
H3578 C3554 0.950 . S
H3579 C3555 0.949 . S
H3580 C3557 0.952 1_554 S
H3581 C3559 0.950 . S
C3582 C3583 1.349 . S
C3582 C3584 1.327 . S
C3582 H3607 0.950 . S
C3583 C3582 1.349 . S
C3583 C3599 1.349 . S
C3584 C3582 1.327 . S
C3584 C3603 1.429 . S
C3584 H3608 0.950 . S
C3585 C3602 1.574 . S
C3585 C3604 1.368 . S
C3585 H3609 0.949 . S
H3586 C3590 0.949 . S
C3587 C3588 1.349 . S
C3587 C3589 1.327 . S
C3587 H3610 0.950 . S
C3588 C3587 1.349 . S
C3588 C3600 1.349 . S
C3589 C3587 1.327 . S
C3589 C3605 1.429 . S
C3589 H3611 0.950 . S
C3590 H3586 0.949 . S
C3590 C3598 1.574 . S
C3590 C3606 1.368 . S
H3591 C3599 0.950 . S
H3592 C3597 0.950 . S
H3593 C3598 0.949 . S
H3594 C3600 0.950 1_556 S
H3595 C3601 0.950 . S
H3596 C3602 0.949 . S
C3597 H3592 0.950 . S
C3597 C3599 1.327 . S
C3597 C3603 1.429 . S
C3598 C3590 1.574 . S
C3598 H3593 0.949 . S
C3598 C3604 1.368 . S
C3599 C3583 1.349 . S
C3599 H3591 0.950 . S
C3599 C3597 1.327 . S
C3600 C3588 1.349 . S
C3600 H3594 0.950 1_554 S
C3600 C3601 1.327 . S
C3601 H3595 0.950 . S
C3601 C3600 1.327 . S
C3601 C3605 1.429 . S
C3602 C3585 1.574 . S
C3602 H3596 0.949 . S
C3602 C3606 1.368 . S
C3603 C3584 1.429 . S
C3603 C3597 1.429 . S
C3603 C3604 1.523 . S
C3604 C3585 1.368 . S
C3604 C3598 1.368 . S
C3604 C3603 1.523 . S
C3605 C3589 1.429 . S
C3605 C3601 1.429 . S
C3605 C3606 1.523 . S
C3606 C3590 1.368 . S
C3606 C3602 1.368 . S
C3606 C3605 1.523 . S
H3607 C3582 0.950 . S
H3608 C3584 0.950 . S
H3609 C3585 0.949 . S
H3610 C3587 0.950 . S
H3611 C3589 0.950 . S
C3612 C3613 1.349 . S
C3612 C3614 1.327 . S
C3612 H3637 0.950 1_554 S
C3613 C3612 1.349 . S
C3613 C3629 1.349 . S
C3614 C3612 1.327 . S
C3614 C3633 1.429 . S
C3614 H3638 0.950 . S
C3615 C3632 1.574 . S
C3615 C3634 1.368 . S
C3615 H3639 0.949 . S
H3616 C3620 0.949 . S
C3617 C3618 1.349 . S
C3617 C3619 1.327 . S
C3617 H3640 0.950 . S
C3618 C3617 1.349 . S
C3618 C3630 1.349 . S
C3619 C3617 1.327 . S
C3619 C3635 1.429 . S
C3619 H3641 0.950 . S
C3620 H3616 0.949 . S
C3620 C3628 1.574 . S
C3620 C3636 1.368 . S
H3621 C3629 0.950 . S
H3622 C3627 0.950 . S
H3623 C3628 0.949 . S
H3624 C3630 0.950 . S
H3625 C3631 0.950 . S
H3626 C3632 0.949 . S
C3627 H3622 0.950 . S
C3627 C3629 1.327 . S
C3627 C3633 1.429 . S
C3628 C3620 1.574 . S
C3628 H3623 0.949 . S
C3628 C3634 1.368 . S
C3629 C3613 1.349 . S
C3629 H3621 0.950 . S
C3629 C3627 1.327 . S
C3630 C3618 1.349 . S
C3630 H3624 0.950 . S
C3630 C3631 1.327 . S
C3631 H3625 0.950 . S
C3631 C3630 1.327 . S
C3631 C3635 1.429 . S
C3632 C3615 1.574 . S
C3632 H3626 0.949 . S
C3632 C3636 1.368 . S
C3633 C3614 1.429 . S
C3633 C3627 1.429 . S
C3633 C3634 1.523 . S
C3634 C3615 1.368 . S
C3634 C3628 1.368 . S
C3634 C3633 1.523 . S
C3635 C3619 1.429 . S
C3635 C3631 1.429 . S
C3635 C3636 1.523 . S
C3636 C3620 1.368 . S
C3636 C3632 1.368 . S
C3636 C3635 1.523 . S
H3637 C3612 0.950 1_556 S
H3638 C3614 0.950 . S
H3639 C3615 0.949 . S
H3640 C3617 0.950 . S
H3641 C3619 0.950 . S
C3642 C3643 1.349 . S
C3642 C3644 1.327 . S
C3642 H3667 0.950 . S
C3643 C3642 1.349 . S
C3643 C3659 1.349 . S
C3644 C3642 1.327 . S
C3644 C3663 1.429 . S
C3644 H3668 0.950 . S
C3645 C3662 1.574 . S
C3645 C3664 1.368 . S
C3645 H3669 0.949 . S
H3646 C3650 0.949 . S
C3647 C3648 1.349 . S
C3647 C3649 1.327 . S
C3647 H3670 0.950 . S
C3648 C3647 1.349 . S
C3648 C3660 1.349 . S
C3649 C3647 1.327 . S
C3649 C3665 1.429 . S
C3649 H3671 0.950 . S
C3650 H3646 0.949 . S
C3650 C3658 1.574 . S
C3650 C3666 1.368 . S
H3651 C3659 0.950 1_556 S
H3652 C3657 0.950 . S
H3653 C3658 0.949 . S
H3654 C3660 0.950 . S
H3655 C3661 0.950 . S
H3656 C3662 0.949 . S
C3657 H3652 0.950 . S
C3657 C3659 1.327 . S
C3657 C3663 1.429 . S
C3658 C3650 1.574 . S
C3658 H3653 0.949 . S
C3658 C3664 1.368 . S
C3659 C3643 1.349 . S
C3659 H3651 0.950 1_554 S
C3659 C3657 1.327 . S
C3660 C3648 1.349 . S
C3660 H3654 0.950 . S
C3660 C3661 1.327 . S
C3661 H3655 0.950 . S
C3661 C3660 1.327 . S
C3661 C3665 1.429 . S
C3662 C3645 1.574 . S
C3662 H3656 0.949 . S
C3662 C3666 1.368 . S
C3663 C3644 1.429 . S
C3663 C3657 1.429 . S
C3663 C3664 1.523 . S
C3664 C3645 1.368 . S
C3664 C3658 1.368 . S
C3664 C3663 1.523 . S
C3665 C3649 1.429 . S
C3665 C3661 1.429 . S
C3665 C3666 1.523 . S
C3666 C3650 1.368 . S
C3666 C3662 1.368 . S
C3666 C3665 1.523 . S
H3667 C3642 0.950 . S
H3668 C3644 0.950 . S
H3669 C3645 0.949 . S
H3670 C3647 0.950 . S
H3671 C3649 0.950 . S
C3672 C3673 1.349 . S
C3672 C3674 1.327 . S
C3672 H3697 0.950 . S
C3673 C3672 1.349 . S
C3673 C3689 1.349 . S
C3674 C3672 1.327 . S
C3674 C3693 1.429 . S
C3674 H3698 0.950 . S
C3675 C3692 1.574 . S
C3675 C3694 1.368 . S
C3675 H3699 0.949 . S
H3676 C3680 0.949 . S
C3677 C3678 1.349 . S
C3677 C3679 1.327 . S
C3677 H3700 0.950 . S
C3678 C3677 1.349 . S
C3678 C3690 1.349 . S
C3679 C3677 1.327 . S
C3679 C3695 1.429 . S
C3679 H3701 0.950 . S
C3680 H3676 0.949 . S
C3680 C3688 1.574 . S
C3680 C3696 1.368 . S
H3681 C3689 0.950 . S
H3682 C3687 0.950 . S
H3683 C3688 0.949 . S
H3684 C3690 0.950 1_556 S
H3685 C3691 0.950 . S
H3686 C3692 0.949 . S
C3687 H3682 0.950 . S
C3687 C3689 1.327 . S
C3687 C3693 1.429 . S
C3688 C3680 1.574 . S
C3688 H3683 0.949 . S
C3688 C3694 1.368 . S
C3689 C3673 1.349 . S
C3689 H3681 0.950 . S
C3689 C3687 1.327 . S
C3690 C3678 1.349 . S
C3690 H3684 0.950 1_554 S
C3690 C3691 1.327 . S
C3691 H3685 0.950 . S
C3691 C3690 1.327 . S
C3691 C3695 1.429 . S
C3692 C3675 1.574 . S
C3692 H3686 0.949 . S
C3692 C3696 1.368 . S
C3693 C3674 1.429 . S
C3693 C3687 1.429 . S
C3693 C3694 1.523 . S
C3694 C3675 1.368 . S
C3694 C3688 1.368 . S
C3694 C3693 1.523 . S
C3695 C3679 1.429 . S
C3695 C3691 1.429 . S
C3695 C3696 1.523 . S
C3696 C3680 1.368 . S
C3696 C3692 1.368 . S
C3696 C3695 1.523 . S
H3697 C3672 0.950 . S
H3698 C3674 0.950 . S
H3699 C3675 0.949 . S
H3700 C3677 0.950 . S
H3701 C3679 0.950 . S
C3702 C3703 1.349 . S
C3702 C3704 1.327 . S
C3702 H3727 0.950 . S
C3703 C3702 1.349 . S
C3703 C3719 1.349 . S
C3704 C3702 1.327 . S
C3704 C3723 1.429 . S
C3704 H3728 0.950 . S
C3705 C3722 1.574 . S
C3705 C3724 1.368 . S
C3705 H3729 0.949 . S
H3706 C3710 0.949 . S
C3707 C3708 1.349 . S
C3707 C3709 1.327 . S
C3707 H3730 0.950 . S
C3708 C3707 1.349 . S
C3708 C3720 1.349 . S
C3709 C3707 1.327 . S
C3709 C3725 1.429 . S
C3709 H3731 0.950 . S
C3710 H3706 0.949 . S
C3710 C3718 1.574 . S
C3710 C3726 1.368 . S
H3711 C3719 0.950 . S
H3712 C3717 0.950 . S
H3713 C3718 0.949 . S
H3714 C3720 0.950 . S
H3715 C3721 0.950 . S
H3716 C3722 0.949 . S
C3717 H3712 0.950 . S
C3717 C3719 1.327 . S
C3717 C3723 1.429 . S
C3718 C3710 1.574 . S
C3718 H3713 0.949 . S
C3718 C3724 1.368 . S
C3719 C3703 1.349 . S
C3719 H3711 0.950 . S
C3719 C3717 1.327 . S
C3720 C3708 1.349 . S
C3720 H3714 0.950 . S
C3720 C3721 1.327 . S
C3721 H3715 0.950 . S
C3721 C3720 1.327 . S
C3721 C3725 1.429 . S
C3722 C3705 1.574 . S
C3722 H3716 0.949 . S
C3722 C3726 1.368 . S
C3723 C3704 1.429 . S
C3723 C3717 1.429 . S
C3723 C3724 1.523 . S
C3724 C3705 1.368 . S
C3724 C3718 1.368 . S
C3724 C3723 1.523 . S
C3725 C3709 1.429 . S
C3725 C3721 1.429 . S
C3725 C3726 1.523 . S
C3726 C3710 1.368 . S
C3726 C3722 1.368 . S
C3726 C3725 1.523 . S
H3727 C3702 0.950 . S
H3728 C3704 0.950 . S
H3729 C3705 0.949 . S
H3730 C3707 0.950 . S
H3731 C3709 0.950 . S
C3732 C3733 1.347 1_556 S
C3732 C3734 1.325 1_556 S
C3732 H3757 0.954 . S
C3733 C3732 1.347 1_554 S
C3733 C3749 1.349 . S
C3734 C3732 1.325 1_554 S
C3734 C3753 1.429 . S
C3734 H3758 0.950 . S
C3735 C3752 1.574 . S
C3735 C3754 1.368 . S
C3735 H3759 0.949 . S
H3736 C3740 0.949 . S
C3737 C3738 1.349 . S
C3737 C3739 1.327 . S
C3737 H3760 0.950 . S
C3738 C3737 1.349 . S
C3738 C3750 1.349 . S
C3739 C3737 1.327 . S
C3739 C3755 1.429 . S
C3739 H3761 0.950 . S
C3740 H3736 0.949 . S
C3740 C3748 1.574 . S
C3740 C3756 1.368 . S
H3741 C3749 0.950 . S
H3742 C3747 0.950 . S
H3743 C3748 0.949 . S
H3744 C3750 0.950 . S
H3745 C3751 0.950 . S
H3746 C3752 0.949 . S
C3747 H3742 0.950 . S
C3747 C3749 1.327 . S
C3747 C3753 1.429 . S
C3748 C3740 1.574 . S
C3748 H3743 0.949 . S
C3748 C3754 1.368 . S
C3749 C3733 1.349 . S
C3749 H3741 0.950 . S
C3749 C3747 1.327 . S
C3750 C3738 1.349 . S
C3750 H3744 0.950 . S
C3750 C3751 1.327 . S
C3751 H3745 0.950 . S
C3751 C3750 1.327 . S
C3751 C3755 1.429 . S
C3752 C3735 1.574 . S
C3752 H3746 0.949 . S
C3752 C3756 1.368 . S
C3753 C3734 1.429 . S
C3753 C3747 1.429 . S
C3753 C3754 1.523 . S
C3754 C3735 1.368 . S
C3754 C3748 1.368 . S
C3754 C3753 1.523 . S
C3755 C3739 1.429 . S
C3755 C3751 1.429 . S
C3755 C3756 1.523 . S
C3756 C3740 1.368 . S
C3756 C3752 1.368 . S
C3756 C3755 1.523 . S
H3757 C3732 0.954 . S
H3758 C3734 0.950 . S
H3759 C3735 0.949 . S
H3760 C3737 0.950 . S
H3761 C3739 0.950 . S
C3762 C3763 1.349 . S
C3762 C3764 1.327 . S
C3762 H3787 0.950 . S
C3763 C3762 1.349 . S
C3763 C3779 1.349 . S
C3764 C3762 1.327 . S
C3764 C3783 1.429 . S
C3764 H3788 0.950 . S
C3765 C3782 1.574 . S
C3765 C3784 1.368 . S
C3765 H3789 0.949 . S
H3766 C3770 0.949 . S
C3767 C3768 1.349 . S
C3767 C3769 1.327 . S
C3767 H3790 0.950 . S
C3768 C3767 1.349 . S
C3768 C3780 1.349 . S
C3769 C3767 1.327 . S
C3769 C3785 1.429 . S
C3769 H3791 0.950 . S
C3770 H3766 0.949 . S
C3770 C3778 1.574 . S
C3770 C3786 1.368 . S
H3771 C3779 0.950 . S
H3772 C3777 0.950 . S
H3773 C3778 0.949 . S
H3774 C3780 0.950 . S
H3775 C3781 0.950 . S
H3776 C3782 0.949 . S
C3777 H3772 0.950 . S
C3777 C3779 1.327 . S
C3777 C3783 1.429 . S
C3778 C3770 1.574 . S
C3778 H3773 0.949 . S
C3778 C3784 1.368 . S
C3779 C3763 1.349 . S
C3779 H3771 0.950 . S
C3779 C3777 1.327 . S
C3780 C3768 1.349 . S
C3780 H3774 0.950 . S
C3780 C3781 1.327 . S
C3781 H3775 0.950 . S
C3781 C3780 1.327 . S
C3781 C3785 1.429 . S
C3782 C3765 1.574 . S
C3782 H3776 0.949 . S
C3782 C3786 1.368 . S
C3783 C3764 1.429 . S
C3783 C3777 1.429 . S
C3783 C3784 1.523 . S
C3784 C3765 1.368 . S
C3784 C3778 1.368 . S
C3784 C3783 1.523 . S
C3785 C3769 1.429 . S
C3785 C3781 1.429 . S
C3785 C3786 1.523 . S
C3786 C3770 1.368 . S
C3786 C3782 1.368 . S
C3786 C3785 1.523 . S
H3787 C3762 0.950 . S
H3788 C3764 0.950 . S
H3789 C3765 0.949 . S
H3790 C3767 0.950 . S
H3791 C3769 0.950 . S
C3792 C3793 1.349 . S
C3792 C3794 1.327 . S
C3792 H3817 0.950 . S
C3793 C3792 1.349 . S
C3793 C3809 1.349 . S
C3794 C3792 1.327 . S
C3794 C3813 1.429 . S
C3794 H3818 0.950 . S
C3795 C3812 1.574 . S
C3795 C3814 1.368 . S
C3795 H3819 0.949 . S
H3796 C3800 0.949 . S
C3797 C3798 1.349 . S
C3797 C3799 1.327 . S
C3797 H3820 0.950 . S
C3798 C3797 1.349 . S
C3798 C3810 1.349 . S
C3799 C3797 1.327 . S
C3799 C3815 1.429 . S
C3799 H3821 0.950 . S
C3800 H3796 0.949 . S
C3800 C3808 1.574 . S
C3800 C3816 1.368 . S
H3801 C3809 0.950 . S
H3802 C3807 0.950 . S
H3803 C3808 0.949 . S
H3804 C3810 0.950 . S
H3805 C3811 0.950 . S
H3806 C3812 0.949 . S
C3807 H3802 0.950 . S
C3807 C3809 1.327 . S
C3807 C3813 1.429 . S
C3808 C3800 1.574 . S
C3808 H3803 0.949 . S
C3808 C3814 1.368 . S
C3809 C3793 1.349 . S
C3809 H3801 0.950 . S
C3809 C3807 1.327 . S
C3810 C3798 1.349 . S
C3810 H3804 0.950 . S
C3810 C3811 1.327 . S
C3811 H3805 0.950 . S
C3811 C3810 1.327 . S
C3811 C3815 1.429 . S
C3812 C3795 1.574 . S
C3812 H3806 0.949 . S
C3812 C3816 1.368 . S
C3813 C3794 1.429 . S
C3813 C3807 1.429 . S
C3813 C3814 1.523 . S
C3814 C3795 1.368 . S
C3814 C3808 1.368 . S
C3814 C3813 1.523 . S
C3815 C3799 1.429 . S
C3815 C3811 1.429 . S
C3815 C3816 1.523 . S
C3816 C3800 1.368 . S
C3816 C3812 1.368 . S
C3816 C3815 1.523 . S
H3817 C3792 0.950 . S
H3818 C3794 0.950 . S
H3819 C3795 0.949 . S
H3820 C3797 0.950 . S
H3821 C3799 0.950 . S
C3822 C3823 1.349 . S
C3822 C3824 1.327 . S
C3822 H3847 0.950 1_556 S
C3823 C3822 1.349 . S
C3823 C3839 1.349 . S
C3824 C3822 1.327 . S
C3824 C3843 1.429 . S
C3824 H3848 0.950 . S
C3825 C3842 1.574 . S
C3825 C3844 1.368 . S
C3825 H3849 0.949 . S
H3826 C3830 0.949 . S
C3827 C3828 1.349 . S
C3827 C3829 1.327 . S
C3827 H3850 0.950 . S
C3828 C3827 1.349 . S
C3828 C3840 1.349 . S
C3829 C3827 1.327 . S
C3829 C3845 1.429 . S
C3829 H3851 0.950 . S
C3830 H3826 0.949 . S
C3830 C3838 1.574 . S
C3830 C3846 1.368 . S
H3831 C3839 0.950 . S
H3832 C3837 0.950 . S
H3833 C3838 0.949 . S
H3834 C3840 0.950 . S
H3835 C3841 0.950 . S
H3836 C3842 0.949 . S
C3837 H3832 0.950 . S
C3837 C3839 1.327 . S
C3837 C3843 1.429 . S
C3838 C3830 1.574 . S
C3838 H3833 0.949 . S
C3838 C3844 1.368 . S
C3839 C3823 1.349 . S
C3839 H3831 0.950 . S
C3839 C3837 1.327 . S
C3840 C3828 1.349 . S
C3840 H3834 0.950 . S
C3840 C3841 1.327 . S
C3841 H3835 0.950 . S
C3841 C3840 1.327 . S
C3841 C3845 1.429 . S
C3842 C3825 1.574 . S
C3842 H3836 0.949 . S
C3842 C3846 1.368 . S
C3843 C3824 1.429 . S
C3843 C3837 1.429 . S
C3843 C3844 1.523 . S
C3844 C3825 1.368 . S
C3844 C3838 1.368 . S
C3844 C3843 1.523 . S
C3845 C3829 1.429 . S
C3845 C3841 1.429 . S
C3845 C3846 1.523 . S
C3846 C3830 1.368 . S
C3846 C3842 1.368 . S
C3846 C3845 1.523 . S
H3847 C3822 0.950 1_554 S
H3848 C3824 0.950 . S
H3849 C3825 0.949 . S
H3850 C3827 0.950 . S
H3851 C3829 0.950 . S
C3852 C3853 1.349 . S
C3852 C3854 1.327 . S
C3852 H3877 0.950 . S
C3853 C3852 1.349 . S
C3853 C3869 1.349 . S
C3854 C3852 1.327 . S
C3854 C3873 1.429 . S
C3854 H3878 0.950 . S
C3855 C3872 1.574 1_455 S
C3855 C3874 1.368 . S
C3855 H3879 0.949 . S
H3856 C3860 0.949 . S
C3857 C3858 1.349 . S
C3857 C3859 1.327 . S
C3857 H3880 0.950 . S
C3858 C3857 1.349 . S
C3858 C3870 1.349 . S
C3859 C3857 1.327 . S
C3859 C3875 1.429 . S
C3859 H3881 0.950 . S
C3860 H3856 0.949 . S
C3860 C3868 1.574 1_655 S
C3860 C3876 1.368 . S
H3861 C3869 0.950 . S
H3862 C3867 0.950 . S
H3863 C3868 0.949 . S
H3864 C3870 0.950 . S
H3865 C3871 0.950 . S
H3866 C3872 0.949 . S
C3867 H3862 0.950 . S
C3867 C3869 1.327 . S
C3867 C3873 1.429 . S
C3868 C3860 1.574 1_455 S
C3868 H3863 0.949 . S
C3868 C3874 1.368 . S
C3869 C3853 1.349 . S
C3869 H3861 0.950 . S
C3869 C3867 1.327 . S
C3870 C3858 1.349 . S
C3870 H3864 0.950 . S
C3870 C3871 1.327 . S
C3871 H3865 0.950 . S
C3871 C3870 1.327 . S
C3871 C3875 1.429 . S
C3872 C3855 1.574 1_655 S
C3872 H3866 0.949 . S
C3872 C3876 1.368 . S
C3873 C3854 1.429 . S
C3873 C3867 1.429 . S
C3873 C3874 1.523 . S
C3874 C3855 1.368 . S
C3874 C3868 1.368 . S
C3874 C3873 1.523 . S
C3875 C3859 1.429 . S
C3875 C3871 1.429 . S
C3875 C3876 1.523 . S
C3876 C3860 1.368 . S
C3876 C3872 1.368 . S
C3876 C3875 1.523 . S
H3877 C3852 0.950 . S
H3878 C3854 0.950 . S
H3879 C3855 0.949 . S
H3880 C3857 0.950 . S
H3881 C3859 0.950 . S
C3882 C3883 1.349 . S
C3882 C3884 1.327 . S
C3882 H3907 0.950 . S
C3883 C3882 1.349 . S
C3883 C3899 1.349 . S
C3884 C3882 1.327 . S
C3884 C3903 1.429 . S
C3884 H3908 0.950 . S
C3885 C3902 1.574 . S
C3885 C3904 1.368 . S
C3885 H3909 0.949 . S
H3886 C3890 0.949 . S
C3887 C3888 1.349 . S
C3887 C3889 1.327 . S
C3887 H3910 0.950 . S
C3888 C3887 1.349 . S
C3888 C3900 1.349 . S
C3889 C3887 1.327 . S
C3889 C3905 1.429 . S
C3889 H3911 0.950 . S
C3890 H3886 0.949 . S
C3890 C3898 1.574 . S
C3890 C3906 1.368 . S
H3891 C3899 0.950 . S
H3892 C3897 0.950 . S
H3893 C3898 0.949 . S
H3894 C3900 0.950 . S
H3895 C3901 0.950 . S
H3896 C3902 0.949 . S
C3897 H3892 0.950 . S
C3897 C3899 1.327 . S
C3897 C3903 1.429 . S
C3898 C3890 1.574 . S
C3898 H3893 0.949 . S
C3898 C3904 1.368 . S
C3899 C3883 1.349 . S
C3899 H3891 0.950 . S
C3899 C3897 1.327 . S
C3900 C3888 1.349 . S
C3900 H3894 0.950 . S
C3900 C3901 1.327 . S
C3901 H3895 0.950 . S
C3901 C3900 1.327 . S
C3901 C3905 1.429 . S
C3902 C3885 1.574 . S
C3902 H3896 0.949 . S
C3902 C3906 1.368 . S
C3903 C3884 1.429 . S
C3903 C3897 1.429 . S
C3903 C3904 1.523 . S
C3904 C3885 1.368 . S
C3904 C3898 1.368 . S
C3904 C3903 1.523 . S
C3905 C3889 1.429 . S
C3905 C3901 1.429 . S
C3905 C3906 1.523 . S
C3906 C3890 1.368 . S
C3906 C3902 1.368 . S
C3906 C3905 1.523 . S
H3907 C3882 0.950 . S
H3908 C3884 0.950 . S
H3909 C3885 0.949 . S
H3910 C3887 0.950 . S
H3911 C3889 0.950 . S
C3912 C3913 1.349 . S
C3912 C3914 1.327 . S
C3912 H3937 0.950 . S
C3913 C3912 1.349 . S
C3913 C3929 1.349 . S
C3914 C3912 1.327 . S
C3914 C3933 1.429 . S
C3914 H3938 0.950 . S
C3915 C3932 1.473 1_565 S
C3915 C3934 1.479 . S
C3915 H3939 0.954 . S
H3916 C3920 0.955 . S
C3917 C3918 1.349 . S
C3917 C3919 1.327 . S
C3917 H3940 0.950 . S
C3918 C3917 1.349 . S
C3918 C3930 1.349 . S
C3919 C3917 1.327 . S
C3919 C3935 1.429 . S
C3919 H3941 0.950 . S
C3920 H3916 0.955 . S
C3920 C3928 1.471 1_545 S
C3920 C3936 1.480 . S
H3921 C3929 0.950 . S
H3922 C3927 0.950 . S
H3923 C3928 0.949 . S
H3924 C3930 0.950 . S
H3925 C3931 0.950 . S
H3926 C3932 0.949 . S
C3927 H3922 0.950 . S
C3927 C3929 1.327 . S
C3927 C3933 1.429 . S
C3928 C3920 1.471 1_565 S
C3928 H3923 0.949 . S
C3928 C3934 1.368 . S
C3929 C3913 1.349 . S
C3929 H3921 0.950 . S
C3929 C3927 1.327 . S
C3930 C3918 1.349 . S
C3930 H3924 0.950 . S
C3930 C3931 1.327 . S
C3931 H3925 0.950 . S
C3931 C3930 1.327 . S
C3931 C3935 1.429 . S
C3932 C3915 1.473 1_545 S
C3932 H3926 0.949 . S
C3932 C3936 1.368 . S
C3933 C3914 1.429 . S
C3933 C3927 1.429 . S
C3933 C3934 1.523 . S
C3934 C3915 1.479 . S
C3934 C3928 1.368 . S
C3934 C3933 1.523 . S
C3935 C3919 1.429 . S
C3935 C3931 1.429 . S
C3935 C3936 1.523 . S
C3936 C3920 1.480 . S
C3936 C3932 1.368 . S
C3936 C3935 1.523 . S
H3937 C3912 0.950 . S
H3938 C3914 0.950 . S
H3939 C3915 0.954 . S
H3940 C3917 0.950 . S
H3941 C3919 0.950 . S
C3942 C3943 1.349 . S
C3942 C3944 1.327 . S
C3942 H3967 0.950 . S
C3943 C3942 1.349 . S
C3943 C3959 1.349 . S
C3944 C3942 1.327 . S
C3944 C3963 1.429 . S
C3944 H3968 0.950 . S
C3945 C3962 1.574 1_545 S
C3945 C3964 1.368 . S
C3945 H3969 0.949 . S
H3946 C3950 0.949 . S
C3947 C3948 1.349 . S
C3947 C3949 1.327 . S
C3947 H3970 0.950 . S
C3948 C3947 1.349 . S
C3948 C3960 1.349 . S
C3949 C3947 1.327 . S
C3949 C3965 1.429 . S
C3949 H3971 0.950 . S
C3950 H3946 0.949 . S
C3950 C3958 1.574 1_565 S
C3950 C3966 1.368 . S
H3951 C3959 0.950 . S
H3952 C3957 0.950 . S
H3953 C3958 0.949 . S
H3954 C3960 0.950 . S
H3955 C3961 0.950 . S
H3956 C3962 0.949 . S
C3957 H3952 0.950 . S
C3957 C3959 1.327 . S
C3957 C3963 1.429 . S
C3958 C3950 1.574 1_545 S
C3958 H3953 0.949 . S
C3958 C3964 1.368 . S
C3959 C3943 1.349 . S
C3959 H3951 0.950 . S
C3959 C3957 1.327 . S
C3960 C3948 1.349 . S
C3960 H3954 0.950 . S
C3960 C3961 1.327 . S
C3961 H3955 0.950 . S
C3961 C3960 1.327 . S
C3961 C3965 1.429 . S
C3962 C3945 1.574 1_565 S
C3962 H3956 0.949 . S
C3962 C3966 1.368 . S
C3963 C3944 1.429 . S
C3963 C3957 1.429 . S
C3963 C3964 1.523 . S
C3964 C3945 1.368 . S
C3964 C3958 1.368 . S
C3964 C3963 1.523 . S
C3965 C3949 1.429 . S
C3965 C3961 1.429 . S
C3965 C3966 1.523 . S
C3966 C3950 1.368 . S
C3966 C3962 1.368 . S
C3966 C3965 1.523 . S
H3967 C3942 0.950 . S
H3968 C3944 0.950 . S
H3969 C3945 0.949 . S
H3970 C3947 0.950 . S
H3971 C3949 0.950 . S
C3972 C3973 1.349 . S
C3972 C3974 1.327 . S
C3972 H3997 0.950 . S
C3973 C3972 1.349 . S
C3973 C3989 1.349 . S
C3974 C3972 1.327 . S
C3974 C3993 1.429 . S
C3974 H3998 0.950 . S
C3975 C3992 1.494 1_655 S
C3975 C3994 1.368 . S
C3975 H3999 0.949 . S
H3976 C3980 0.949 . S
C3977 C3978 1.349 . S
C3977 C3979 1.327 . S
C3977 H4000 0.950 . S
C3978 C3977 1.349 . S
C3978 C3990 1.349 . S
C3979 C3977 1.327 . S
C3979 C3995 1.429 . S
C3979 H4001 0.950 . S
C3980 H3976 0.949 . S
C3980 C3988 1.493 1_455 S
C3980 C3996 1.368 . S
H3981 C3989 0.950 . S
H3982 C3987 0.950 . S
H3983 C3988 0.959 . S
H3984 C3990 0.950 . S
H3985 C3991 0.950 . S
H3986 C3992 0.958 . S
C3987 H3982 0.950 . S
C3987 C3989 1.327 . S
C3987 C3993 1.429 . S
C3988 C3980 1.493 1_655 S
C3988 H3983 0.959 . S
C3988 C3994 1.448 . S
C3989 C3973 1.349 . S
C3989 H3981 0.950 . S
C3989 C3987 1.327 . S
C3990 C3978 1.349 . S
C3990 H3984 0.950 . S
C3990 C3991 1.327 . S
C3991 H3985 0.950 . S
C3991 C3990 1.327 . S
C3991 C3995 1.429 . S
C3992 C3975 1.494 1_455 S
C3992 H3986 0.958 . S
C3992 C3996 1.447 . S
C3993 C3974 1.429 . S
C3993 C3987 1.429 . S
C3993 C3994 1.523 . S
C3994 C3975 1.368 . S
C3994 C3988 1.448 . S
C3994 C3993 1.523 . S
C3995 C3979 1.429 . S
C3995 C3991 1.429 . S
C3995 C3996 1.523 . S
C3996 C3980 1.368 . S
C3996 C3992 1.447 . S
C3996 C3995 1.523 . S
H3997 C3972 0.950 . S
H3998 C3974 0.950 . S
H3999 C3975 0.949 . S
H4000 C3977 0.950 . S
H4001 C3979 0.950 . S
C4002 C4003 1.349 . S
C4002 C4004 1.327 . S
C4002 H4027 0.950 . S
C4003 C4002 1.349 . S
C4003 C4019 1.349 . S
C4004 C4002 1.327 . S
C4004 C4023 1.429 . S
C4004 H4028 0.950 . S
C4005 C4022 1.574 . S
C4005 C4024 1.368 . S
C4005 H4029 0.949 . S
H4006 C4010 0.949 . S
C4007 C4008 1.349 . S
C4007 C4009 1.327 . S
C4007 H4030 0.950 . S
C4008 C4007 1.349 . S
C4008 C4020 1.349 . S
C4009 C4007 1.327 . S
C4009 C4025 1.429 . S
C4009 H4031 0.950 . S
C4010 H4006 0.949 . S
C4010 C4018 1.574 . S
C4010 C4026 1.368 . S
H4011 C4019 0.950 . S
H4012 C4017 0.950 . S
H4013 C4018 0.949 . S
H4014 C4020 0.950 . S
H4015 C4021 0.950 . S
H4016 C4022 0.949 . S
C4017 H4012 0.950 . S
C4017 C4019 1.327 . S
C4017 C4023 1.429 . S
C4018 C4010 1.574 . S
C4018 H4013 0.949 . S
C4018 C4024 1.368 . S
C4019 C4003 1.349 . S
C4019 H4011 0.950 . S
C4019 C4017 1.327 . S
C4020 C4008 1.349 . S
C4020 H4014 0.950 . S
C4020 C4021 1.327 . S
C4021 H4015 0.950 . S
C4021 C4020 1.327 . S
C4021 C4025 1.429 . S
C4022 C4005 1.574 . S
C4022 H4016 0.949 . S
C4022 C4026 1.368 . S
C4023 C4004 1.429 . S
C4023 C4017 1.429 . S
C4023 C4024 1.523 . S
C4024 C4005 1.368 . S
C4024 C4018 1.368 . S
C4024 C4023 1.523 . S
C4025 C4009 1.429 . S
C4025 C4021 1.429 . S
C4025 C4026 1.523 . S
C4026 C4010 1.368 . S
C4026 C4022 1.368 . S
C4026 C4025 1.523 . S
H4027 C4002 0.950 . S
H4028 C4004 0.950 . S
H4029 C4005 0.949 . S
H4030 C4007 0.950 . S
H4031 C4009 0.950 . S
C793 C5 1.202 . S
C798 C643 1.202 . S
C823 C599 1.202 . S
C828 C27 1.202 . S
C853 C621 1.202 . S
C858 C49 1.202 . S
C883 C71 1.202 . S
C888 C291 1.202 . S
C913 C93 1.202 . S
C918 C313 1.202 . S
C943 C115 1.202 . S
C948 C269 1.202 . S
C973 C138 1.202 . S
C978 C512 1.202 . S
C1003 C160 1.202 . S
C1008 C468 1.202 . S
C1033 C182 1.202 . S
C1038 C490 1.202 . S
C1063 C204 1.202 . S
C1068 C688 1.202 . S
C1093 C226 1.202 . S
C1098 C710 1.202 . S
C1123 C666 1.202 . S
C1128 C248 1.202 . S
C1153 C555 1.202 . S
C1158 C335 1.202 . S
C1183 C357 1.201 . S
C1188 C577 1.201 . S
C1213 C533 1.202 . S
C1218 C379 1.202 . S
C1243 C402 1.202 . S
C1248 C776 1.202 . S
C1273 C424 1.202 . S
C1278 C732 1.202 . S
C1303 C754 1.202 . S
C1308 C446 1.202 . S
C1333 C9 1.529 . S
C1338 C4 1.531 . S
C1363 C31 1.529 . S
C1368 C26 1.531 . S
C1393 C48 1.531 . S
C1398 C53 1.529 . S
C1423 C70 1.531 . S
C1428 C75 1.529 . S
C1453 C92 1.531 . S
C1458 C97 1.529 . S
C1483 C119 1.529 . S
C1488 C114 1.531 . S
C1513 C136 1.531 . S
C1518 C139 1.529 . S
C1543 C161 1.529 . S
C1548 C158 1.531 . S
C1573 C180 1.531 . S
C1578 C183 1.529 . S
C1603 C205 1.529 . S
C1608 C202 1.531 . S
C1633 C224 1.531 . S
C1638 C227 1.529 . S
C1663 C246 1.531 . S
C1668 C249 1.529 . S
C1693 C273 1.529 . S
C1698 C268 1.531 . S
C1723 C295 1.529 . S
C1728 C290 1.531 . S
C1753 C312 1.531 . S
C1758 C317 1.529 . S
C1783 C334 1.531 . S
C1788 C339 1.529 . S
C1813 C361 1.529 . S
C1818 C356 1.531 . S
C1843 C383 1.529 . S
C1848 C378 1.531 . S
C1873 C400 1.531 . S
C1878 C403 1.529 . S
C1903 C422 1.531 . S
C1908 C425 1.529 . S
C1933 C447 1.529 . S
C1938 C444 1.531 . S
C1963 C469 1.529 . S
C1968 C466 1.531 . S
C1993 C491 1.529 . S
C1998 C488 1.531 . S
C2023 C510 1.531 . S
C2028 C513 1.529 . S
C2053 C532 1.531 . S
C2058 C537 1.529 . S
C2083 C554 1.531 . S
C2088 C559 1.529 . S
C2113 C581 1.529 . S
C2118 C576 1.531 . S
C2143 C603 1.529 . S
C2148 C598 1.531 . S
C2173 C620 1.531 . S
C2178 C625 1.529 . S
C2203 C642 1.531 . S
C2208 C647 1.529 . S
C2233 C664 1.531 . S
C2238 C667 1.529 . S
C2263 C689 1.529 . S
C2268 C686 1.531 . S
C2293 C711 1.529 . S
C2298 C708 1.531 . S
C2323 C730 1.531 . S
C2328 C733 1.529 . S
C2353 C755 1.529 . S
C2358 C752 1.531 . S
C2383 C774 1.531 . S
C2388 C777 1.529 . S
C2413 C336 1.098 . S
C2418 C6 1.098 . S
C2443 C358 1.098 . S
C2448 C28 1.098 . S
C2473 C380 1.099 . S
C2478 C50 1.099 . S
C2503 C72 1.099 . S
C2508 C534 1.099 . S
C2533 C556 1.098 . S
C2538 C94 1.098 . S
C2563 C578 1.098 . S
C2568 C116 1.098 . S
C2593 C137 1.098 . S
C2598 C731 1.098 . S
C2623 C753 1.098 . S
C2628 C159 1.098 . S
C2653 C775 1.099 . S
C2658 C181 1.099 . S
C2683 C401 1.098 . S
C2688 C203 1.098 . S
C2713 C225 1.098 . S
C2718 C423 1.098 . S
C2743 C247 1.098 . S
C2748 C445 1.098 . S
C2773 C270 1.099 . S
C2778 C600 1.099 . S
C2803 C292 1.099 . S
C2808 C622 1.099 . S
C2833 C314 1.099 . S
C2838 C644 1.099 . S
C2863 C467 1.099 . S
C2868 C665 1.099 . S
C2893 C489 1.099 . S
C2898 C687 1.099 . S
C2923 C511 1.099 . S
C2928 C709 1.099 . S
C2953 C250 1.444 . S
C2958 C8 1.444 . S
C2983 C30 1.444 . S
C2988 C206 1.444 . S
C3013 C228 1.443 . S
C3018 C52 1.443 . S
C3043 C74 1.444 . S
C3048 C162 1.444 . S
C3073 C96 1.443 . S
C3078 C184 1.443 . S
C3103 C140 1.444 . S
C3108 C118 1.444 . S
C3133 C272 1.444 . S
C3138 C514 1.444 . S
C3163 C294 1.444 . S
C3168 C470 1.444 . S
C3193 C492 1.444 . S
C3198 C316 1.444 . S
C3223 C426 1.444 . S
C3228 C338 1.443 . S
C3253 C360 1.443 . S
C3258 C448 1.443 . S
C3283 C404 1.444 . S
C3288 C382 1.444 . S
C3313 C778 1.444 . S
C3318 C536 1.444 . S
C3343 C558 1.444 . S
C3348 C734 1.444 . S
C3373 C580 1.443 . S
C3378 C756 1.443 . S
C3403 C602 1.444 . S
C3408 C690 1.444 . S
C3433 C712 1.444 . S
C3438 C624 1.444 . S
C3463 C668 1.444 . S
C3468 C646 1.444 . S
C3493 C645 0.731 . S
C3498 C7 0.731 . S
C3523 C29 0.731 . S
C3528 C601 0.731 . S
C3553 C623 0.731 . S
C3558 C51 0.731 . S
C3583 C293 0.731 . S
C3588 C73 0.731 . S
C3613 C95 0.731 . S
C3618 C315 0.731 . S
C3643 C117 0.731 . S
C3648 C271 0.731 . S
C3673 C515 0.731 . S
C3678 C141 0.731 . S
C3703 C163 0.731 . S
C3708 C471 0.731 . S
C3733 C185 0.731 . S
C3738 C493 0.731 . S
C3763 C691 0.731 . S
C3768 C207 0.731 . S
C3793 C229 0.731 . S
C3798 C713 0.731 . S
C3823 C251 0.731 . S
C3828 C669 0.731 . S
C3853 C337 0.731 . S
C3858 C557 0.731 . S
C3883 C579 0.731 . S
C3888 C359 0.731 . S
C3913 C381 0.731 . S
C3918 C535 0.731 . S
C3943 C779 0.731 . S
C3948 C405 0.731 . S
C3973 C735 0.731 . S
C3978 C427 0.731 . S
C4003 C757 0.731 . S
C4008 C449 0.731 . S
