# Generated by pormake.
# Topology wjo, (5)-cn, num edge types: 1
# Building blocks:
#     Node 0, Type 0, BuildingBlock: BEQFEK_clean_sbu_0, # of connection points: 5
#     Node 1, Type 0, BuildingBlock: BEQFEK_clean_sbu_0, # of connection points: 5
#     Node 2, Type 0, BuildingBlock: BEQFEK_clean_sbu_0, # of connection points: 5
#     Node 3, Type 0, BuildingBlock: BEQFEK_clean_sbu_0, # of connection points: 5
#     Node 4, Type 0, BuildingBlock: BEQFEK_clean_sbu_0, # of connection points: 5
#     Node 5, Type 0, BuildingBlock: BEQFEK_clean_sbu_0, # of connection points: 5
#     Node 6, Type 0, BuildingBlock: BEQFEK_clean_sbu_0, # of connection points: 5
#     Node 7, Type 0, BuildingBlock: BEQFEK_clean_sbu_0, # of connection points: 5
#     Node 8, Type 0, BuildingBlock: BEQFEK_clean_sbu_0, # of connection points: 5
#     Node 9, Type 0, BuildingBlock: BEQFEK_clean_sbu_0, # of connection points: 5
#     Node 10, Type 0, BuildingBlock: BEQFEK_clean_sbu_0, # of connection points: 5
#     Node 11, Type 0, BuildingBlock: BEQFEK_clean_sbu_0, # of connection points: 5
#     Edge 12, Type (0, 0), BuildingBlock: ZUJKAS_clean_linker_0, # of connection points: 2
#     Edge 13, Type (0, 0), BuildingBlock: ZUJKAS_clean_linker_0, # of connection points: 2
#     Edge 14, Type (0, 0), BuildingBlock: ZUJKAS_clean_linker_0, # of connection points: 2
#     Edge 15, Type (0, 0), BuildingBlock: ZUJKAS_clean_linker_0, # of connection points: 2
#     Edge 16, Type (0, 0), BuildingBlock: ZUJKAS_clean_linker_0, # of connection points: 2
#     Edge 17, Type (0, 0), BuildingBlock: ZUJKAS_clean_linker_0, # of connection points: 2
#     Edge 18, Type (0, 0), BuildingBlock: ZUJKAS_clean_linker_0, # of connection points: 2
#     Edge 19, Type (0, 0), BuildingBlock: ZUJKAS_clean_linker_0, # of connection points: 2
#     Edge 20, Type (0, 0), BuildingBlock: ZUJKAS_clean_linker_0, # of connection points: 2
#     Edge 21, Type (0, 0), BuildingBlock: ZUJKAS_clean_linker_0, # of connection points: 2
#     Edge 22, Type (0, 0), BuildingBlock: ZUJKAS_clean_linker_0, # of connection points: 2
#     Edge 23, Type (0, 0), BuildingBlock: ZUJKAS_clean_linker_0, # of connection points: 2
#     Edge 24, Type (0, 0), BuildingBlock: ZUJKAS_clean_linker_0, # of connection points: 2
#     Edge 25, Type (0, 0), BuildingBlock: ZUJKAS_clean_linker_0, # of connection points: 2
#     Edge 26, Type (0, 0), BuildingBlock: ZUJKAS_clean_linker_0, # of connection points: 2
#     Edge 27, Type (0, 0), BuildingBlock: ZUJKAS_clean_linker_0, # of connection points: 2
#     Edge 28, Type (0, 0), BuildingBlock: ZUJKAS_clean_linker_0, # of connection points: 2
#     Edge 29, Type (0, 0), BuildingBlock: ZUJKAS_clean_linker_0, # of connection points: 2
#     Edge 30, Type (0, 0), BuildingBlock: ZUJKAS_clean_linker_0, # of connection points: 2
#     Edge 31, Type (0, 0), BuildingBlock: ZUJKAS_clean_linker_0, # of connection points: 2
#     Edge 32, Type (0, 0), BuildingBlock: ZUJKAS_clean_linker_0, # of connection points: 2
#     Edge 33, Type (0, 0), BuildingBlock: ZUJKAS_clean_linker_0, # of connection points: 2
#     Edge 34, Type (0, 0), BuildingBlock: ZUJKAS_clean_linker_0, # of connection points: 2
#     Edge 35, Type (0, 0), BuildingBlock: ZUJKAS_clean_linker_0, # of connection points: 2
#     Edge 36, Type (0, 0), BuildingBlock: ZUJKAS_clean_linker_0, # of connection points: 2
#     Edge 37, Type (0, 0), BuildingBlock: ZUJKAS_clean_linker_0, # of connection points: 2
#     Edge 38, Type (0, 0), BuildingBlock: ZUJKAS_clean_linker_0, # of connection points: 2
#     Edge 39, Type (0, 0), BuildingBlock: ZUJKAS_clean_linker_0, # of connection points: 2
#     Edge 40, Type (0, 0), BuildingBlock: ZUJKAS_clean_linker_0, # of connection points: 2
#     Edge 41, Type (0, 0), BuildingBlock: ZUJKAS_clean_linker_0, # of connection points: 2
# Relax obj value: 0.761
# Max RMSD: 0.254
# Mean RMSD: 0.244
data_MOF--net-wjo--node1-BEQFEK_clean_sbu_0--edge1-ZUJKAS_clean_linker_0
_symmetry_space_group_name_H-M    P1
_symmetry_Int_Tables_number       1
_symmetry_cell_setting            triclinic
loop_
_symmetry_equiv_pos_as_xyz
'x, y, z'
_cell_length_a     58.307999
_cell_length_b     58.038895
_cell_length_c     33.657614
_cell_angle_alpha  90.18358
_cell_angle_beta   90.02667
_cell_angle_gamma 120.15094
loop_
_atom_site_label
_atom_site_type_symbol
_atom_site_fract_x
_atom_site_fract_y
_atom_site_fract_z
_atom_type_partial_charge
Co0 Co 0.28919 0.37541 0.91604 0.0
Co1 Co 0.27877 0.40727 0.98263 0.0
C2 C 0.28587 0.36197 0.00388 0.0
O3 O 0.29043 0.35901 0.9677 0.0
O4 O 0.28008 0.37956 0.01409 0.0
C5 C 0.27888 0.32692 0.8784 0.0
O6 O 0.26422 0.31658 0.91021 0.0
C7 C 0.27013 0.42995 0.05524 0.0
C8 C 0.26624 0.4634 0.032 0.0
C9 C 0.26705 0.45116 0.06675 0.0
N10 N 0.27135 0.4297 0.01541 0.0
N11 N 0.26908 0.4498 0.00169 0.0
C12 C 0.27073 0.40948 0.08141 0.0
H13 H 0.25586 0.38936 0.07051 0.0
H14 H 0.26614 0.41147 0.11276 0.0
H15 H 0.29061 0.41138 0.07973 0.0
C16 C 0.23437 0.36334 0.8929 0.0
N17 N 0.25719 0.3773 0.91367 0.0
N18 N 0.25342 0.39096 0.94167 0.0
C19 C 0.22827 0.38598 0.93991 0.0
C20 C 0.21534 0.36851 0.9087 0.0
C21 C 0.22992 0.34335 0.86131 0.0
H22 H 0.24794 0.35063 0.84275 0.0
H23 H 0.22571 0.32441 0.87551 0.0
H24 H 0.21273 0.33939 0.84232 0.0
O25 O 0.32239 0.41128 0.91217 0.0
O26 O 0.31456 0.43082 0.96281 0.0
H27 H 0.22077 0.41458 0.96811 0.0
H28 H 0.19362 0.38091 0.9719 0.0
C29 C 0.21553 0.39354 0.97219 0.0
H30 H 0.22294 0.39161 0.0016 0.0
H31 H 0.26987 0.45447 0.97162 0.0
O32 O 0.29067 0.35205 0.87358 0.0
C33 C 0.32976 0.43103 0.93568 0.0
Co34 Co 0.91714 0.28656 0.07515 0.0
Co35 Co 0.87108 0.27746 0.13357 0.0
C36 C 0.92354 0.28795 0.16425 0.0
O37 O 0.93261 0.28982 0.12921 0.0
O38 O 0.89996 0.28313 0.17011 0.0
C39 C 0.95618 0.27531 0.04412 0.0
O40 O 0.94971 0.26013 0.07577 0.0
C41 C 0.83515 0.26482 0.20167 0.0
C42 C 0.80029 0.26396 0.17429 0.0
C43 C 0.81052 0.26168 0.2102 0.0
N44 N 0.83961 0.26919 0.16254 0.0
N45 N 0.81867 0.26865 0.14632 0.0
C46 C 0.85362 0.26246 0.22997 0.0
H47 H 0.86263 0.25172 0.21551 0.0
H48 H 0.84321 0.25162 0.25729 0.0
H49 H 0.8696 0.28276 0.2383 0.0
C50 C 0.87552 0.23041 0.05215 0.0
N51 N 0.88363 0.2537 0.07159 0.0
N52 N 0.86487 0.25038 0.09669 0.0
C53 C 0.84463 0.22512 0.09443 0.0
C54 C 0.85047 0.21161 0.06583 0.0
C55 C 0.89196 0.22559 0.02293 0.0
H56 H 0.90396 0.24371 0.00488 0.0
H57 H 0.90556 0.2208 0.03924 0.0
H58 H 0.87921 0.20852 0.00315 0.0
O59 O 0.91405 0.31919 0.06601 0.0
O60 O 0.88132 0.31119 0.10732 0.0
H61 H 0.80782 0.21953 0.11655 0.0
H62 H 0.81193 0.19105 0.12369 0.0
C63 C 0.82232 0.21312 0.12379 0.0
H64 H 0.83012 0.22021 0.15413 0.0
H65 H 0.81704 0.27172 0.11617 0.0
O66 O 0.94392 0.28782 0.03689 0.0
C67 C 0.89849 0.32601 0.08196 0.0
Co68 Co 0.62829 0.91194 0.23387 0.0
Co69 Co 0.58702 0.86571 0.28795 0.0
C70 C 0.62931 0.9188 0.32098 0.0
O71 O 0.64015 0.92772 0.28743 0.0
O72 O 0.60868 0.89594 0.32424 0.0
C73 C 0.65817 0.96099 0.19681 0.0
O74 O 0.64278 0.96542 0.22031 0.0
C75 C 0.56907 0.83279 0.35863 0.0
C76 C 0.52879 0.80078 0.34229 0.0
C77 C 0.54668 0.81079 0.37355 0.0
N78 N 0.56455 0.83603 0.32053 0.0
N79 N 0.54048 0.81674 0.31079 0.0
C80 C 0.59483 0.84993 0.37974 0.0
H81 H 0.61155 0.85761 0.35842 0.0
H82 H 0.59801 0.83858 0.40347 0.0
H83 H 0.59452 0.86716 0.39352 0.0
C84 C 0.64376 0.87079 0.21831 0.0
N85 N 0.62678 0.87816 0.23269 0.0
N86 N 0.60896 0.8587 0.25473 0.0
C87 C 0.61352 0.83815 0.2542 0.0
C88 C 0.63586 0.84509 0.23127 0.0
C89 C 0.66861 0.88913 0.19636 0.0
H90 H 0.66374 0.89805 0.17093 0.0
H91 H 0.68214 0.90563 0.21642 0.0
H92 H 0.67876 0.87851 0.18535 0.0
O93 O 0.59307 0.9097 0.22234 0.0
O94 O 0.56426 0.87458 0.25719 0.0
H95 H 0.57758 0.80526 0.2763 0.0
H96 H 0.60477 0.79886 0.27376 0.0
C97 C 0.59928 0.81418 0.2803 0.0
H98 H 0.60418 0.82038 0.31178 0.0
H99 H 0.5318 0.81487 0.28296 0.0
O100 O 0.65533 0.93778 0.19618 0.0
C101 C 0.56935 0.89347 0.23337 0.0
Co102 Co 0.71909 0.62619 0.40194 0.0
Co103 Co 0.72722 0.58618 0.4549 0.0
C104 C 0.71773 0.62839 0.49013 0.0
O105 O 0.71742 0.63819 0.4565 0.0
O106 O 0.72066 0.60819 0.49311 0.0
C107 C 0.7285 0.67695 0.37478 0.0
O108 O 0.7424 0.68499 0.4078 0.0
C109 C 0.74677 0.56831 0.52119 0.0
C110 C 0.73482 0.52708 0.50339 0.0
C111 C 0.74641 0.54542 0.53396 0.0
N112 N 0.73606 0.56375 0.48463 0.0
N113 N 0.72922 0.53917 0.47396 0.0
C114 C 0.75389 0.59292 0.54488 0.0
H115 H 0.76263 0.61058 0.52515 0.0
H116 H 0.76797 0.59617 0.56922 0.0
H117 H 0.73558 0.5909 0.55826 0.0
C118 C 0.77502 0.64155 0.37922 0.0
N119 N 0.75148 0.62513 0.39674 0.0
N120 N 0.75421 0.60784 0.41857 0.0
C121 C 0.7791 0.61229 0.41496 0.0
C122 C 0.79324 0.63388 0.39008 0.0
C123 C 0.78084 0.66572 0.35582 0.0
H124 H 0.76387 0.66121 0.33603 0.0
H125 H 0.78384 0.68189 0.37657 0.0
H126 H 0.7991 0.67272 0.33785 0.0
O127 O 0.68579 0.59038 0.39312 0.0
O128 O 0.69401 0.56278 0.42762 0.0
H129 H 0.81064 0.60435 0.43074 0.0
H130 H 0.79041 0.60415 0.47125 0.0
C131 C 0.79018 0.59869 0.4396 0.0
H132 H 0.77734 0.5768 0.43661 0.0
H133 H 0.71978 0.53031 0.44723 0.0
O134 O 0.71751 0.65243 0.36512 0.0
C135 C 0.67902 0.56694 0.40506 0.0
Co136 Co 0.09358 0.72089 0.56494 0.0
Co137 Co 0.14082 0.72992 0.62083 0.0
C138 C 0.08837 0.72007 0.65273 0.0
O139 O 0.07878 0.71944 0.6185 0.0
O140 O 0.11148 0.72331 0.65702 0.0
C141 C 0.05219 0.72878 0.5336 0.0
O142 O 0.05627 0.74219 0.56689 0.0
C143 C 0.17666 0.74965 0.6894 0.0
C144 C 0.20691 0.73898 0.67322 0.0
C145 C 0.19912 0.7498 0.70346 0.0
N146 N 0.17154 0.73936 0.65246 0.0
N147 N 0.18985 0.73329 0.64279 0.0
C148 C 0.15827 0.75581 0.71208 0.0
H149 H 0.14152 0.73693 0.72351 0.0
H150 H 0.15009 0.76508 0.69205 0.0
H151 H 0.16807 0.76916 0.73772 0.0
C152 C 0.13443 0.77707 0.54265 0.0
N153 N 0.12708 0.75357 0.56064 0.0
N154 N 0.14674 0.75663 0.58361 0.0
C155 C 0.1672 0.7817 0.58028 0.0
C156 C 0.16014 0.7956 0.55435 0.0
C157 C 0.11633 0.78258 0.5182 0.0
H158 H 0.1047 0.76572 0.49754 0.0
H159 H 0.10232 0.78463 0.53815 0.0
H160 H 0.1277 0.8013 0.50108 0.0
O161 O 0.09638 0.68763 0.55803 0.0
O162 O 0.13164 0.6965 0.59448 0.0
H163 H 0.20077 0.7807 0.60389 0.0
H164 H 0.20618 0.81392 0.59776 0.0
C165 C 0.19141 0.79321 0.60615 0.0
H166 H 0.18553 0.79316 0.63748 0.0
H167 H 0.19009 0.72429 0.61602 0.0
O168 O 0.06673 0.71876 0.52568 0.0
C169 C 0.11288 0.68116 0.57136 0.0
Co170 Co 0.37628 0.09313 0.73729 0.0
Co171 Co 0.41471 0.13888 0.79582 0.0
C172 C 0.37219 0.08494 0.8244 0.0
O173 O 0.36288 0.0764 0.78985 0.0
O174 O 0.39219 0.10801 0.82978 0.0
C175 C 0.32687 0.05293 0.70403 0.0
O176 O 0.31762 0.05649 0.73766 0.0
C177 C 0.4295 0.17217 0.86728 0.0
C178 C 0.47075 0.20339 0.85427 0.0
C179 C 0.45146 0.19427 0.88352 0.0
N180 N 0.43553 0.16854 0.83009 0.0
N181 N 0.4601 0.18742 0.82233 0.0
C182 C 0.40444 0.15266 0.88795 0.0
H183 H 0.40641 0.1356 0.89827 0.0
H184 H 0.3875 0.145 0.86689 0.0
H185 H 0.40014 0.16139 0.91414 0.0
C186 C 0.36174 0.13491 0.71831 0.0
N187 N 0.3773 0.12678 0.73593 0.0
N188 N 0.39385 0.14579 0.76015 0.0
C189 C 0.38975 0.1666 0.75813 0.0
C190 C 0.36924 0.16045 0.73164 0.0
C191 C 0.33868 0.11781 0.69195 0.0
H192 H 0.34414 0.10669 0.67077 0.0
H193 H 0.32196 0.1032 0.71043 0.0
H194 H 0.33214 0.13 0.67533 0.0
O195 O 0.41233 0.09662 0.72913 0.0
O196 O 0.43909 0.13107 0.76736 0.0
H197 H 0.42458 0.19958 0.78311 0.0
H198 H 0.39715 0.20548 0.77787 0.0
C199 C 0.40273 0.19033 0.7852 0.0
H200 H 0.39677 0.18376 0.81626 0.0
H201 H 0.46994 0.1888 0.79577 0.0
O202 O 0.35153 0.06737 0.69666 0.0
C203 C 0.43542 0.11292 0.74269 0.0
Co204 Co 0.63256 0.71921 0.92289 0.0
Co205 Co 0.59511 0.72627 0.86301 0.0
C206 C 0.63593 0.7131 0.83516 0.0
O207 O 0.64459 0.71375 0.8701 0.0
O208 O 0.6168 0.71722 0.82882 0.0
C209 C 0.68274 0.73052 0.95329 0.0
O210 O 0.69071 0.74379 0.9198 0.0
C211 C 0.57766 0.74085 0.7911 0.0
C212 C 0.53812 0.73409 0.80792 0.0
C213 C 0.55548 0.74086 0.77624 0.0
N214 N 0.57344 0.73391 0.82955 0.0
N215 N 0.54983 0.73002 0.83953 0.0
C216 C 0.603 0.74838 0.76978 0.0
H217 H 0.61998 0.75773 0.79078 0.0
H218 H 0.60637 0.76244 0.74521 0.0
H219 H 0.60195 0.73018 0.75722 0.0
C220 C 0.64813 0.77643 0.94009 0.0
N221 N 0.6326 0.75246 0.92261 0.0
N222 N 0.6165 0.75478 0.89755 0.0
C223 C 0.62095 0.77986 0.89867 0.0
C224 C 0.64112 0.79447 0.92563 0.0
C225 C 0.67042 0.78256 0.96803 0.0
H226 H 0.66475 0.76553 0.98833 0.0
H227 H 0.68799 0.78592 0.95068 0.0
H228 H 0.67584 0.80083 0.98559 0.0
O229 O 0.59624 0.68733 0.9341 0.0
O230 O 0.57109 0.69459 0.89246 0.0
H231 H 0.58646 0.7788 0.87476 0.0
H232 H 0.61531 0.81176 0.87616 0.0
C233 C 0.60828 0.79036 0.87093 0.0
H234 H 0.61284 0.78772 0.83986 0.0
H235 H 0.54144 0.72395 0.86766 0.0
O236 O 0.65823 0.7191 0.96216 0.0
C237 C 0.57358 0.68055 0.91903 0.0
Co238 Co 0.9158 0.62891 0.08274 0.0
Co239 Co 0.8703 0.5911 0.02355 0.0
C240 C 0.92327 0.63411 0.99475 0.0
O241 O 0.93194 0.64241 0.02968 0.0
O242 O 0.90016 0.61438 0.98874 0.0
C243 C 0.95633 0.67862 0.11515 0.0
O244 O 0.95285 0.68777 0.08138 0.0
C245 C 0.83567 0.57296 0.95332 0.0
C246 C 0.80365 0.53326 0.97225 0.0
C247 C 0.81259 0.5506 0.94036 0.0
N248 N 0.84001 0.56908 0.9913 0.0
N249 N 0.82071 0.5454 0.00251 0.0
C250 C 0.85508 0.59625 0.92908 0.0
H251 H 0.87251 0.594 0.92266 0.0
H252 H 0.86205 0.61494 0.94631 0.0
H253 H 0.84668 0.59777 0.90039 0.0
C254 C 0.87452 0.64363 0.10278 0.0
N255 N 0.88229 0.62779 0.08494 0.0
N256 N 0.86348 0.61172 0.06015 0.0
C257 C 0.84325 0.61661 0.06161 0.0
C258 C 0.84948 0.63702 0.08872 0.0
C259 C 0.89168 0.66634 0.12984 0.0
H260 H 0.90248 0.66033 0.15064 0.0
H261 H 0.90646 0.6833 0.11184 0.0
H262 H 0.87969 0.67293 0.1469 0.0
O263 O 0.9126 0.5929 0.09089 0.0
O264 O 0.87941 0.56712 0.05045 0.0
H265 H 0.80925 0.58312 0.03591 0.0
H266 H 0.80704 0.61301 0.03677 0.0
C267 C 0.82064 0.60509 0.03262 0.0
H268 H 0.82861 0.60973 0.00198 0.0
H269 H 0.81964 0.5372 0.03048 0.0
O270 O 0.94171 0.65396 0.12293 0.0
C271 C 0.89691 0.5701 0.07564 0.0
Co272 Co 0.28728 0.91226 0.25608 0.0
Co273 Co 0.2791 0.86557 0.19892 0.0
C274 C 0.28965 0.91883 0.16854 0.0
O275 O 0.28967 0.92799 0.20294 0.0
O276 O 0.28645 0.89565 0.16373 0.0
C277 C 0.27912 0.95348 0.28813 0.0
O278 O 0.26697 0.95036 0.25396 0.0
C279 C 0.25994 0.83067 0.12911 0.0
C280 C 0.2706 0.8001 0.1437 0.0
C281 C 0.2599 0.80835 0.11403 0.0
N282 N 0.27005 0.83525 0.16609 0.0
N283 N 0.27612 0.81676 0.1748 0.0
C284 C 0.25381 0.84944 0.1074 0.0
H285 H 0.2726 0.86637 0.09613 0.0
H286 H 0.24467 0.85747 0.12804 0.0
H287 H 0.24045 0.8399 0.08174 0.0
C288 C 0.23114 0.87098 0.27652 0.0
N289 N 0.25471 0.87859 0.2589 0.0
N290 N 0.25194 0.85914 0.2354 0.0
C291 C 0.22696 0.83853 0.23799 0.0
C292 C 0.21284 0.84529 0.26401 0.0
C293 C 0.22547 0.8888 0.30164 0.0
H294 H 0.24189 0.89983 0.32313 0.0
H295 H 0.22409 0.9035 0.2823 0.0
H296 H 0.20649 0.87721 0.3179 0.0
O297 O 0.32024 0.90928 0.26351 0.0
O298 O 0.31192 0.8743 0.22617 0.0
H299 H 0.22843 0.80521 0.21356 0.0
H300 H 0.19521 0.79947 0.21941 0.0
C301 C 0.21586 0.8145 0.21151 0.0
H302 H 0.21613 0.82072 0.18033 0.0
H303 H 0.28499 0.81612 0.20141 0.0
O304 O 0.2886 0.93849 0.29621 0.0
C305 C 0.32688 0.89286 0.24996 0.0
Co306 Co 0.37648 0.28315 0.43118 0.0
Co307 Co 0.41554 0.27356 0.37831 0.0
C308 C 0.37291 0.28254 0.34326 0.0
O309 O 0.36405 0.28439 0.37696 0.0
O310 O 0.39259 0.27886 0.34046 0.0
C311 C 0.34921 0.30583 0.46723 0.0
O312 O 0.36544 0.32509 0.44349 0.0
C313 C 0.43115 0.25015 0.31367 0.0
C314 C 0.47438 0.26931 0.32339 0.0
C315 C 0.45432 0.2531 0.29713 0.0
N316 N 0.43734 0.26414 0.34784 0.0
N317 N 0.46314 0.27508 0.35386 0.0
C318 C 0.40405 0.23664 0.29534 0.0
H319 H 0.38955 0.2381 0.3148 0.0
H320 H 0.39699 0.21518 0.29098 0.0
H321 H 0.40477 0.24547 0.26583 0.0
C322 C 0.36018 0.2272 0.45419 0.0
N323 N 0.37724 0.25061 0.43688 0.0
N324 N 0.39467 0.24744 0.41629 0.0
C325 C 0.38997 0.22243 0.4212 0.0
C326 C 0.36776 0.20856 0.44501 0.0
C327 C 0.33543 0.22207 0.47506 0.0
H328 H 0.34063 0.23672 0.49955 0.0
H329 H 0.32251 0.22502 0.45393 0.0
H330 H 0.32449 0.20156 0.48724 0.0
O331 O 0.41226 0.31636 0.43925 0.0
O332 O 0.43919 0.30776 0.40374 0.0
H333 H 0.40091 0.1922 0.41222 0.0
H334 H 0.39601 0.20626 0.36779 0.0
C335 C 0.40392 0.21085 0.39853 0.0
H336 H 0.42547 0.22538 0.39739 0.0
H337 H 0.4733 0.28777 0.37759 0.0
O338 O 0.35044 0.28456 0.46831 0.0
C339 C 0.43538 0.32308 0.42636 0.0
Co340 Co 0.09509 0.37933 0.59676 0.0
Co341 Co 0.14231 0.41999 0.54299 0.0
C342 C 0.09044 0.378 0.50822 0.0
O343 O 0.08082 0.36822 0.5421 0.0
O344 O 0.11364 0.39811 0.50479 0.0
C345 C 0.05453 0.328 0.6235 0.0
O346 O 0.06028 0.32033 0.59004 0.0
C347 C 0.17877 0.44194 0.47568 0.0
C348 C 0.21162 0.4793 0.50048 0.0
C349 C 0.20259 0.46433 0.46597 0.0
N350 N 0.17361 0.44364 0.51411 0.0
N351 N 0.19336 0.46601 0.52882 0.0
C352 C 0.16189 0.41865 0.44931 0.0
H353 H 0.15222 0.39999 0.46683 0.0
H354 H 0.17388 0.41673 0.42531 0.0
H355 H 0.14634 0.42165 0.43549 0.0
C356 C 0.13638 0.36443 0.61718 0.0
N357 N 0.12875 0.38066 0.60035 0.0
N358 N 0.14821 0.3979 0.57766 0.0
C359 C 0.16865 0.39334 0.57944 0.0
C360 C 0.16197 0.37201 0.60464 0.0
C361 C 0.11883 0.34074 0.64205 0.0
H362 H 0.1067 0.34551 0.66214 0.0
H363 H 0.10529 0.32403 0.62235 0.0
H364 H 0.13071 0.33437 0.6598 0.0
O365 O 0.09728 0.41465 0.60767 0.0
O366 O 0.13215 0.44265 0.57189 0.0
H367 H 0.20383 0.42793 0.55929 0.0
H368 H 0.2053 0.39773 0.55509 0.0
C369 C 0.19219 0.40634 0.55239 0.0
H370 H 0.18528 0.40395 0.52119 0.0
H371 H 0.1942 0.47236 0.5581 0.0
O372 O 0.06784 0.35247 0.63345 0.0
C373 C 0.11343 0.43817 0.59558 0.0
Co374 Co 0.71738 0.09291 0.75571 0.0
Co375 Co 0.72379 0.13806 0.69739 0.0
C376 C 0.71078 0.08369 0.66843 0.0
O377 O 0.71237 0.0756 0.70287 0.0
O378 O 0.71407 0.10684 0.66306 0.0
C379 C 0.72762 0.05314 0.78708 0.0
O380 O 0.74019 0.05706 0.75317 0.0
C381 C 0.73568 0.16955 0.6248 0.0
C382 C 0.73511 0.20549 0.64514 0.0
C383 C 0.73778 0.1931 0.6117 0.0
N384 N 0.73154 0.16775 0.6642 0.0
N385 N 0.7313 0.18935 0.67624 0.0
C386 C 0.73875 0.14964 0.60047 0.0
H387 H 0.74947 0.14174 0.61782 0.0
H388 H 0.74982 0.15867 0.57265 0.0
H389 H 0.71883 0.13285 0.59261 0.0
C390 C 0.77444 0.13437 0.77182 0.0
N391 N 0.75036 0.12638 0.75557 0.0
N392 N 0.75266 0.14488 0.73064 0.0
C393 C 0.77797 0.16502 0.73022 0.0
C394 C 0.7927 0.15916 0.75642 0.0
C395 C 0.78039 0.11783 0.79924 0.0
H396 H 0.76377 0.10703 0.82033 0.0
H397 H 0.78276 0.103 0.78157 0.0
H398 H 0.79904 0.13043 0.81598 0.0
O399 O 0.68522 0.09668 0.76626 0.0
O400 O 0.69267 0.13089 0.72818 0.0
H401 H 0.78003 0.20025 0.70706 0.0
H402 H 0.81038 0.19948 0.70112 0.0
C403 C 0.78846 0.18725 0.70064 0.0
H404 H 0.78212 0.17885 0.67036 0.0
H405 H 0.72808 0.19285 0.70558 0.0
O406 O 0.71717 0.06726 0.79541 0.0
C407 C 0.67856 0.11316 0.75337 0.0
H408 H 0.25385 0.48042 0.44686 0.0
H409 H 0.27283 0.48744 0.37964 0.0
H410 H 0.19811 0.47164 0.32981 0.0
H411 H 0.17918 0.46454 0.39653 0.0
H412 H 0.24724 0.44436 0.31959 0.0
H413 H 0.25626 0.53982 0.27056 0.0
H414 H 0.25601 0.53146 0.32234 0.0
H415 H 0.22556 0.51709 0.29461 0.0
C416 C 0.24174 0.47894 0.42148 0.0
C417 C 0.21503 0.47156 0.4265 0.0
C418 C 0.25254 0.48294 0.38329 0.0
C419 C 0.23688 0.48026 0.34997 0.0
C420 C 0.21057 0.47413 0.35523 0.0
H421 H 0.2301 0.46128 0.09823 0.0
H422 H 0.22623 0.47145 0.16795 0.0
C423 C 0.19972 0.4698 0.39322 0.0
C424 C 0.24669 0.48063 0.30944 0.0
H425 H 0.25758 0.51166 0.21981 0.0
C426 C 0.25002 0.4593 0.29784 0.0
C427 C 0.24988 0.50001 0.2813 0.0
C428 C 0.24696 0.52354 0.29276 0.0
C429 C 0.25523 0.45607 0.2582 0.0
C430 C 0.258 0.47522 0.22973 0.0
C431 C 0.2555 0.49706 0.24168 0.0
C432 C 0.26197 0.47199 0.18709 0.0
C433 C 0.25626 0.43139 0.2469 0.0
C434 C 0.28379 0.46986 0.17459 0.0
C435 C 0.28574 0.46367 0.13511 0.0
C436 C 0.26612 0.45992 0.10747 0.0
C437 C 0.24527 0.46383 0.11928 0.0
C438 C 0.24311 0.46967 0.15895 0.0
H439 H 0.24707 0.41565 0.26992 0.0
H440 H 0.24594 0.42302 0.21822 0.0
H441 H 0.27726 0.43661 0.24363 0.0
H442 H 0.29897 0.47236 0.19557 0.0
H443 H 0.30236 0.4614 0.12626 0.0
H444 H 0.76049 0.22392 0.23123 0.0
H445 H 0.74183 0.21405 0.29872 0.0
H446 H 0.81391 0.28062 0.34443 0.0
H447 H 0.83257 0.29043 0.27732 0.0
H448 H 0.77148 0.2041 0.36256 0.0
H449 H 0.75096 0.2856 0.39849 0.0
H450 H 0.75186 0.27521 0.34808 0.0
H451 H 0.78219 0.2953 0.37485 0.0
C452 C 0.77205 0.23666 0.25569 0.0
C453 C 0.79803 0.25762 0.2495 0.0
C454 C 0.76144 0.23105 0.29404 0.0
C455 C 0.77648 0.24675 0.32632 0.0
C456 C 0.80192 0.2685 0.31977 0.0
H457 H 0.77325 0.24184 0.58208 0.0
H458 H 0.78046 0.25497 0.51178 0.0
C459 C 0.81262 0.27391 0.28161 0.0
C460 C 0.76713 0.23867 0.36739 0.0
H461 H 0.75017 0.25875 0.45229 0.0
C462 C 0.76644 0.21579 0.38212 0.0
C463 C 0.76107 0.25431 0.39272 0.0
C464 C 0.76134 0.27892 0.37784 0.0
C465 C 0.7606 0.20848 0.42206 0.0
C466 C 0.75444 0.22407 0.44757 0.0
C467 C 0.75478 0.2468 0.43263 0.0
C468 C 0.74833 0.21733 0.49008 0.0
C469 C 0.76223 0.18479 0.43683 0.0
C470 C 0.72733 0.19227 0.50114 0.0
C471 C 0.72353 0.1847 0.54093 0.0
C472 C 0.74038 0.20223 0.57035 0.0
C473 C 0.76022 0.22797 0.55971 0.0
C474 C 0.76429 0.23544 0.51971 0.0
H475 H 0.77423 0.1798 0.41671 0.0
H476 H 0.77107 0.18853 0.46705 0.0
H477 H 0.74197 0.16716 0.43817 0.0
H478 H 0.71429 0.17832 0.47887 0.0
H479 H 0.70765 0.16497 0.5487 0.0
H480 H 0.52383 0.7595 0.39971 0.0
H481 H 0.51963 0.74457 0.46901 0.0
H482 H 0.55371 0.82594 0.50925 0.0
H483 H 0.55778 0.84079 0.44054 0.0
H484 H 0.5796 0.79939 0.53738 0.0
H485 H 0.47062 0.74043 0.5616 0.0
H486 H 0.48268 0.73209 0.51785 0.0
H487 H 0.48535 0.7642 0.52171 0.0
C488 C 0.53007 0.77406 0.4235 0.0
C489 C 0.54181 0.80132 0.41494 0.0
C490 C 0.52755 0.76554 0.46294 0.0
C491 C 0.53636 0.7842 0.49414 0.0
C492 C 0.54694 0.81128 0.48555 0.0
H493 H 0.53081 0.76743 0.75078 0.0
H494 H 0.52415 0.77652 0.68171 0.0
C495 C 0.54951 0.81975 0.44631 0.0
C496 C 0.53696 0.7761 0.53551 0.0
H497 H 0.49809 0.73968 0.61314 0.0
C498 C 0.56178 0.78636 0.55396 0.0
C499 C 0.51364 0.75926 0.557 0.0
C500 C 0.4865 0.74846 0.53877 0.0
C501 C 0.56398 0.78012 0.59339 0.0
C502 C 0.54073 0.76289 0.6147 0.0
C503 C 0.51583 0.75277 0.59647 0.0
C504 C 0.54223 0.75528 0.65598 0.0
C505 C 0.59115 0.79227 0.61214 0.0
C506 C 0.5539 0.73978 0.66402 0.0
C507 C 0.55777 0.73469 0.70315 0.0
C508 C 0.55015 0.74515 0.73488 0.0
C509 C 0.5372 0.75951 0.72678 0.0
C510 C 0.53334 0.76463 0.68749 0.0
H511 H 0.60631 0.80942 0.59476 0.0
H512 H 0.59089 0.7991 0.64291 0.0
H513 H 0.59726 0.777 0.61363 0.0
H514 H 0.5604 0.73198 0.63997 0.0
H515 H 0.56672 0.72255 0.70851 0.0
H516 H 0.79234 0.57408 0.57581 0.0
H517 H 0.80043 0.56761 0.64516 0.0
H518 H 0.72313 0.49686 0.65071 0.0
H519 H 0.71466 0.50389 0.58163 0.0
H520 H 0.73166 0.53125 0.71177 0.0
H521 H 0.81703 0.51498 0.69799 0.0
H522 H 0.82274 0.5447 0.67315 0.0
H523 H 0.79669 0.51275 0.65602 0.0
C524 C 0.77712 0.55718 0.59193 0.0
C525 C 0.75267 0.53982 0.57393 0.0
C526 C 0.78189 0.55326 0.63129 0.0
C527 C 0.76245 0.53163 0.65299 0.0
C528 C 0.7384 0.51364 0.63444 0.0
H529 H 0.79882 0.50627 0.89623 0.0
H530 H 0.78299 0.49775 0.82719 0.0
C531 C 0.73362 0.5176 0.59506 0.0
C532 C 0.7664 0.5292 0.6959 0.0
H533 H 0.80997 0.52823 0.7626 0.0
C534 C 0.74857 0.53018 0.72291 0.0
C535 C 0.78823 0.52742 0.71036 0.0
C536 C 0.8071 0.52462 0.68284 0.0
C537 C 0.7527 0.53075 0.76403 0.0
C538 C 0.77552 0.53082 0.77841 0.0
C539 C 0.79264 0.52849 0.75148 0.0
C540 C 0.78284 0.53479 0.82102 0.0
C541 C 0.73271 0.5315 0.79165 0.0
C542 C 0.78775 0.55828 0.84044 0.0
C543 C 0.79665 0.56308 0.87973 0.0
C544 C 0.80124 0.54468 0.89998 0.0
C545 C 0.79555 0.5208 0.88103 0.0
C546 C 0.78661 0.51597 0.84169 0.0
H547 H 0.7129 0.52289 0.77734 0.0
H548 H 0.73071 0.52044 0.8195 0.0
H549 H 0.73934 0.55252 0.7995 0.0
H550 H 0.78533 0.57324 0.82488 0.0
H551 H 0.8003 0.58134 0.89414 0.0
H552 H 0.21392 0.79477 0.74735 0.0
H553 H 0.22732 0.80212 0.81732 0.0
H554 H 0.22399 0.72616 0.82026 0.0
H555 H 0.20946 0.7183 0.75066 0.0
H556 H 0.19726 0.73201 0.88173 0.0
H557 H 0.29698 0.82155 0.87035 0.0
H558 H 0.27199 0.82607 0.84656 0.0
H559 H 0.2794 0.80148 0.82767 0.0
C560 C 0.21593 0.77963 0.76308 0.0
C561 C 0.21005 0.75571 0.74413 0.0
C562 C 0.224 0.78401 0.8028 0.0
C563 C 0.22685 0.76476 0.82392 0.0
C564 C 0.22193 0.74127 0.80449 0.0
H565 H 0.29118 0.79856 0.06549 0.0
H566 H 0.28315 0.78463 0.99557 0.0
C567 C 0.21376 0.73685 0.7648 0.0
C568 C 0.23311 0.76835 0.86694 0.0
H569 H 0.27697 0.81187 0.93502 0.0
C570 C 0.21486 0.7493 0.89338 0.0
C571 C 0.25625 0.79071 0.88208 0.0
C572 C 0.27741 0.81096 0.85515 0.0
C573 C 0.21861 0.75254 0.93464 0.0
C574 C 0.24092 0.77572 0.9498 0.0
C575 C 0.25971 0.79424 0.92335 0.0
C576 C 0.2447 0.78176 0.9929 0.0
C577 C 0.19862 0.73111 0.96152 0.0
C578 C 0.22561 0.78442 0.01466 0.0
C579 C 0.2301 0.79215 0.05455 0.0
C580 C 0.25396 0.79788 0.07305 0.0
C581 C 0.27268 0.79438 0.05171 0.0
C582 C 0.26816 0.78655 0.01183 0.0
H583 H 0.18803 0.71153 0.94604 0.0
H584 H 0.20823 0.72896 0.98865 0.0
H585 H 0.18361 0.73645 0.97073 0.0
H586 H 0.20753 0.78118 0.00054 0.0
H587 H 0.21506 0.79399 0.07079 0.0
H588 H 0.49285 0.2048 0.93205 0.0
H589 H 0.49788 0.21717 0.00258 0.0
H590 H 0.42406 0.21747 -0.00129 0.0
H591 H 0.41976 0.20653 0.92776 0.0
H592 H 0.46101 0.25859 0.04151 0.0
H593 H 0.45621 0.1649 0.08976 0.0
H594 H 0.48253 0.18406 0.05545 0.0
H595 H 0.44859 0.16985 0.03967 0.0
C596 C 0.47785 0.20774 0.94628 0.0
C597 C 0.45543 0.20381 0.92501 0.0
C598 C 0.48059 0.21452 0.98659 0.0
C599 C 0.4609 0.21736 0.0062 0.0
C600 C 0.43925 0.21489 0.98434 0.0
H601 H 0.42428 0.20642 0.25557 0.0
H602 H 0.4275 0.19877 0.18491 0.0
C603 C 0.43663 0.20834 0.944 0.0
C604 C 0.46256 0.22262 0.04953 0.0
H605 H 0.46485 0.19705 0.13974 0.0
C606 C 0.46192 0.24519 0.06302 0.0
C607 C 0.46334 0.20486 0.07752 0.0
C608 C 0.46245 0.17942 0.06499 0.0
C609 C 0.46191 0.25045 0.10372 0.0
C610 C 0.46334 0.23305 0.1317 0.0
C611 C 0.46408 0.21052 0.11822 0.0
C612 C 0.46264 0.23712 0.17507 0.0
C613 C 0.45941 0.27409 0.11631 0.0
C614 C 0.48186 0.26079 0.19334 0.0
C615 C 0.47964 0.26546 0.23352 0.0
C616 C 0.45826 0.24645 0.25615 0.0
C617 C 0.44015 0.222 0.23849 0.0
C618 C 0.44223 0.21743 0.19823 0.0
H619 H 0.45158 0.28108 0.09192 0.0
H620 H 0.44612 0.26917 0.1424 0.0
H621 H 0.47927 0.29081 0.12469 0.0
H622 H 0.49825 0.27592 0.17632 0.0
H623 H 0.49413 0.28437 0.24647 0.0
H624 H 0.31426 0.34232 0.81672 0.0
H625 H 0.32575 0.31408 0.77714 0.0
H626 H 0.26646 0.24465 0.83896 0.0
H627 H 0.25476 0.2726 0.87845 0.0
H628 H 0.34471 0.28297 0.81211 0.0
H629 H 0.25466 0.21981 0.72228 0.0
H630 H 0.26112 0.25079 0.74491 0.0
H631 H 0.24822 0.22101 0.77421 0.0
C632 C 0.30329 0.32098 0.82136 0.0
C633 C 0.28366 0.30974 0.85091 0.0
C634 C 0.3099 0.30488 0.79871 0.0
C635 C 0.29677 0.27722 0.80478 0.0
C636 C 0.2765 0.26585 0.83319 0.0
H637 H 0.32078 0.1457 0.76215 0.0
H638 H 0.30201 0.17474 0.77307 0.0
C639 C 0.26998 0.28193 0.85598 0.0
C640 C 0.30621 0.26065 0.78488 0.0
H641 H 0.28613 0.20492 0.72772 0.0
C642 C 0.33207 0.26617 0.7931 0.0
C643 C 0.28957 0.23859 0.76044 0.0
C644 C 0.26191 0.23227 0.74959 0.0
C645 C 0.34143 0.24964 0.77894 0.0
C646 C 0.32469 0.22731 0.75491 0.0
C647 C 0.29898 0.2221 0.74592 0.0
C648 C 0.3331 0.2083 0.74136 0.0
C649 C 0.36873 0.25552 0.79154 0.0
C650 C 0.35599 0.21702 0.71811 0.0
C651 C 0.36674 0.2005 0.71208 0.0
C652 C 0.35448 0.17489 0.72859 0.0
C653 C 0.33037 0.16531 0.74882 0.0
C654 C 0.31974 0.18192 0.75518 0.0
H655 H 0.37638 0.26944 0.81728 0.0
H656 H 0.36861 0.23693 0.79966 0.0
H657 H 0.38274 0.26493 0.7665 0.0
H658 H 0.36633 0.23711 0.70649 0.0
H659 H 0.38545 0.20826 0.69657 0.0
H660 H 0.18227 0.31544 0.91977 0.0
H661 H 0.13411 0.2931 0.92961 0.0
H662 H 0.13507 0.36559 0.89848 0.0
H663 H 0.1832 0.38792 0.88877 0.0
H664 H 0.11601 0.31566 0.98946 0.0
H665 H 0.06602 0.30582 0.84478 0.0
H666 H 0.09828 0.30866 0.84863 0.0
H667 H 0.09504 0.33767 0.8542 0.0
C668 C 0.17197 0.32618 0.91331 0.0
C669 C 0.18625 0.35327 0.90317 0.0
C670 C 0.14453 0.31349 0.91919 0.0
C671 C 0.13098 0.32763 0.91451 0.0
C672 C 0.14501 0.35416 0.90152 0.0
H673 H 0.98394 0.31506 0.99024 0.0
H674 H 0.02511 0.32522 0.95635 0.0
C675 C 0.17247 0.3669 0.89596 0.0
C676 C 0.10349 0.31633 0.92956 0.0
H677 H 0.04053 0.30007 0.90312 0.0
C678 C 0.09939 0.31186 0.97053 0.0
C679 C 0.08203 0.31188 0.90487 0.0
C680 C 0.08538 0.31604 0.86059 0.0
C681 C 0.0746 0.30381 0.98777 0.0
C682 C 0.05299 0.29925 0.96313 0.0
C683 C 0.05702 0.3034 0.92197 0.0
C684 C 0.02645 0.29128 0.98001 0.0
C685 C 0.07222 0.30151 0.03245 0.0
C686 C 0.01297 0.26831 0.00345 0.0
C687 C 0.98967 0.26268 0.02332 0.0
C688 C 0.97906 0.27961 0.01948 0.0
C689 C 0.99164 0.30166 0.99393 0.0
C690 C 0.01517 0.30748 0.97449 0.0
H691 H 0.09189 0.31266 0.04728 0.0
H692 H 0.05943 0.30914 0.04395 0.0
H693 H 0.06323 0.28026 0.04094 0.0
H694 H 0.02086 0.25508 0.00726 0.0
H695 H 0.98025 0.24532 0.0423 0.0
H696 H 0.79942 0.18145 0.04186 0.0
H697 H 0.77098 0.13343 0.05176 0.0
H698 H 0.83915 0.12797 0.08739 0.0
H699 H 0.86759 0.17624 0.07819 0.0
H700 H 0.76797 0.08432 0.02913 0.0
H701 H 0.79367 0.11031 0.18872 0.0
H702 H 0.80221 0.13537 0.1511 0.0
H703 H 0.82093 0.11861 0.15571 0.0
C704 C 0.80842 0.16978 0.05036 0.0
C705 C 0.83556 0.18242 0.05952 0.0
C706 C 0.79218 0.14238 0.05608 0.0
C707 C 0.80286 0.12722 0.07108 0.0
C708 C 0.83046 0.13938 0.07632 0.0
H709 H 0.69558 0.9603 0.14751 0.0
H710 H 0.73219 0.99848 0.11342 0.0
C711 C 0.84673 0.16688 0.07068 0.0
C712 C 0.78464 0.10012 0.0867 0.0
H713 H 0.76088 0.06657 0.17399 0.0
C714 C 0.76668 0.0802 0.06071 0.0
C715 C 0.78277 0.09498 0.12805 0.0
C716 C 0.80073 0.11593 0.15768 0.0
C717 C 0.74647 0.05554 0.07512 0.0
C718 C 0.74427 0.05077 0.11648 0.0
C719 C 0.76275 0.0703 0.14227 0.0
C720 C 0.72135 0.02702 0.13429 0.0
C721 C 0.72678 0.03526 0.04639 0.0
C722 C 0.70318 0.03043 0.15718 0.0
C723 C 0.6824 0.00883 0.17656 0.0
C724 C 0.67936 0.98326 0.17375 0.0
C725 C 0.69733 0.97972 0.1502 0.0
C726 C 0.71819 1.00147 0.13062 0.0
H727 H 0.72968 0.04305 0.01558 0.0
H728 H 0.7289 0.01729 0.04633 0.0
H729 H 0.70623 0.02899 0.05591 0.0
H730 H 0.7053 0.04999 0.16044 0.0
H731 H 0.66897 0.01234 0.19435 0.0
H732 H 0.75374 0.73108 0.38226 0.0
H733 H 0.74293 0.76182 0.34911 0.0
H734 H 0.68149 0.69657 0.28197 0.0
H735 H 0.69261 0.66566 0.31443 0.0
H736 H 0.7096 0.74293 0.23683 0.0
H737 H 0.67693 0.76452 0.38003 0.0
H738 H 0.71048 0.77116 0.38087 0.0
H739 H 0.6836 0.73755 0.37421 0.0
C740 C 0.73809 0.72325 0.36017 0.0
C741 C 0.72381 0.69584 0.35138 0.0
C742 C 0.73186 0.74086 0.34136 0.0
C743 C 0.71098 0.73142 0.31375 0.0
C744 C 0.69756 0.70428 0.30339 0.0
H745 H 0.62181 0.79597 0.20195 0.0
H746 H 0.64294 0.76956 0.21691 0.0
C747 C 0.70393 0.68663 0.322 0.0
C748 C 0.70233 0.74961 0.29734 0.0
H749 H 0.67853 0.79038 0.32489 0.0
C750 C 0.7028 0.75331 0.25604 0.0
C751 C 0.69328 0.76302 0.32242 0.0
C752 C 0.69076 0.75871 0.36679 0.0
C753 C 0.69486 0.77042 0.23926 0.0
C754 C 0.68605 0.78396 0.26443 0.0
C755 C 0.68561 0.78024 0.30565 0.0
C756 C 0.67599 0.80122 0.24903 0.0
C757 C 0.69626 0.77413 0.19483 0.0
C758 C 0.68774 0.82791 0.26149 0.0
C759 C 0.67568 0.84295 0.25294 0.0
C760 C 0.65156 0.83147 0.23208 0.0
C761 C 0.64056 0.80527 0.21773 0.0
C762 C 0.65265 0.79023 0.22619 0.0
H763 H 0.70968 0.76805 0.18086 0.0
H764 H 0.67616 0.76163 0.18196 0.0
H765 H 0.70322 0.79522 0.1871 0.0
H766 H 0.70562 0.83672 0.27939 0.0
H767 H 0.68432 0.863 0.26476 0.0
H768 H 0.03267 0.69518 0.4692 0.0
H769 H 0.99224 0.68312 0.43132 0.0
H770 H 0.97954 0.73783 0.50187 0.0
H771 H 0.01984 0.75006 0.5397 0.0
H772 H 0.9418 0.66053 0.46644 0.0
H773 H 0.96604 0.75388 0.38803 0.0
H774 H 0.99119 0.74778 0.40832 0.0
H775 H 0.97338 0.75822 0.44026 0.0
C776 C 0.02154 0.705 0.4762 0.0
C777 C 0.02947 0.72354 0.5076 0.0
C778 C 0.99843 0.69808 0.45452 0.0
C779 C 0.98302 0.7098 0.46343 0.0
C780 C 0.99136 0.72891 0.49391 0.0
H781 H 0.82591 0.68144 0.42534 0.0
H782 H 0.87373 0.70118 0.43666 0.0
C783 C 0.01435 0.73573 0.51573 0.0
C784 C 0.9569 0.70018 0.44384 0.0
H785 H 0.92004 0.72065 0.39165 0.0
C786 C 0.93714 0.67354 0.44952 0.0
C787 C 0.95082 0.71727 0.42211 0.0
C788 C 0.97153 0.74583 0.41395 0.0
C789 C 0.91116 0.66377 0.43552 0.0
C790 C 0.90492 0.68094 0.41423 0.0
C791 C 0.92486 0.70747 0.40776 0.0
C792 C 0.87734 0.67203 0.40104 0.0
C793 C 0.89036 0.63548 0.44543 0.0
C794 C 0.86378 0.64998 0.37555 0.0
C795 C 0.83648 0.63868 0.36923 0.0
C796 C 0.82249 0.64956 0.38775 0.0
C797 C 0.83642 0.67293 0.41044 0.0
C798 C 0.86368 0.6841 0.41704 0.0
H799 H 0.89691 0.62717 0.46973 0.0
H800 H 0.87149 0.63431 0.45448 0.0
H801 H 0.88637 0.6227 0.41878 0.0
H802 H 0.87403 0.64068 0.3622 0.0
H803 H 0.82602 0.62055 0.35181 0.0
H804 H 0.34062 0.03421 0.63862 0.0
H805 H 0.31181 0.99442 0.59909 0.0
H806 H 0.24454 0.98139 0.66933 0.0
H807 H 0.27307 0.02105 0.70883 0.0
H808 H 0.28298 0.94331 0.63278 0.0
H809 H 0.21559 0.96973 0.55492 0.0
H810 H 0.24701 0.99449 0.57589 0.0
H811 H 0.21856 0.97651 0.60736 0.0
C812 C 0.31961 0.02316 0.64519 0.0
C813 C 0.30918 0.03078 0.67702 0.0
C814 C 0.30318 1.00043 0.62256 0.0
C815 C 0.27597 0.9851 0.63094 0.0
C816 C 0.26536 0.99318 0.66179 0.0
H817 H 0.14561 0.82843 0.58934 0.0
H818 H 0.17421 0.87641 0.60113 0.0
C819 C 0.28177 0.01579 0.68456 0.0
C820 C 0.25919 0.95919 0.6105 0.0
H821 H 0.20195 0.92334 0.55715 0.0
C822 C 0.2655 0.93904 0.61566 0.0
C823 C 0.23627 0.95364 0.58853 0.0
C824 C 0.22902 0.97479 0.58098 0.0
C825 C 0.24897 0.91317 0.60093 0.0
C826 C 0.22578 0.90744 0.57939 0.0
C827 C 0.21977 0.92778 0.57342 0.0
C828 C 0.20674 0.87995 0.56554 0.0
C829 C 0.25582 0.8919 0.61036 0.0
C830 C 0.21493 0.86633 0.53984 0.0
C831 C 0.19865 0.83895 0.53329 0.0
C832 C 0.17378 0.82494 0.5517 0.0
C833 C 0.16461 0.83896 0.57447 0.0
C834 C 0.18099 0.8663 0.58135 0.0
H835 H 0.27057 0.89806 0.63483 0.0
H836 H 0.23784 0.87299 0.61895 0.0
H837 H 0.26449 0.88798 0.58364 0.0
H838 H 0.2345 0.87657 0.52667 0.0
H839 H 0.20612 0.8284 0.51588 0.0
H840 H 0.79919 0.62016 0.11382 0.0
H841 H 0.77335 0.64231 0.10192 0.0
H842 H 0.84327 0.71098 0.0562 0.0
H843 H 0.86903 0.68874 0.06771 0.0
H844 H 0.77953 0.69574 0.12113 0.0
H845 H 0.78934 0.67783 0.96111 0.0
H846 H 0.79657 0.66127 0.00033 0.0
H847 H 0.81979 0.69542 0.98875 0.0
C848 C 0.80915 0.64033 0.10247 0.0
C849 C 0.83598 0.65278 0.09154 0.0
C850 C 0.79442 0.65293 0.09564 0.0
C851 C 0.80635 0.67811 0.07771 0.0
C852 C 0.83368 0.69146 0.06982 0.0
H853 H 0.73664 0.75641 0.94678 0.0
H854 H 0.76747 0.74656 0.98154 0.0
C855 C 0.84841 0.67886 0.07667 0.0
C856 C 0.78962 0.68876 0.06258 0.0
H857 H 0.76576 0.69965 0.97638 0.0
C858 C 0.77657 0.69676 0.08951 0.0
C859 C 0.78568 0.68984 0.02131 0.0
C860 C 0.79837 0.68047 0.99106 0.0
C861 C 0.75989 0.7062 0.07614 0.0
C862 C 0.7558 0.70709 0.03481 0.0
C863 C 0.769 0.69915 0.00803 0.0
C864 C 0.73748 0.71546 0.0182 0.0
C865 C 0.74715 0.71548 0.10634 0.0
C866 C 0.71035 0.70159 0.02767 0.0
C867 C 0.69264 0.70732 0.00796 0.0
C868 C 0.70169 0.72677 0.97799 0.0
C869 C 0.72898 0.74123 0.96956 0.0
C870 C 0.74666 0.73563 0.98944 0.0
H871 H 0.75827 0.72112 0.13488 0.0
H872 H 0.74589 0.7328 0.09518 0.0
H873 H 0.72673 0.69902 0.11245 0.0
H874 H 0.70266 0.68553 0.04904 0.0
H875 H 0.67173 0.69571 0.015 0.0
H876 H 0.9904 0.73213 0.10729 0.0
H877 H 0.03025 0.76034 0.1464 0.0
H878 H 0.01294 0.69385 0.22224 0.0
H879 H 0.97303 0.66532 0.18309 0.0
H880 H 0.03917 0.77287 0.23105 0.0
H881 H 0.08709 0.71713 0.17403 0.0
H882 H 0.05775 0.71439 0.15141 0.0
H883 H 0.05528 0.69759 0.19727 0.0
C884 C 0.99485 0.72351 0.13254 0.0
C885 C 0.97866 0.69635 0.14175 0.0
C886 C 0.01762 0.73972 0.15495 0.0
C887 C 0.02472 0.72911 0.18688 0.0
C888 C 0.00797 0.70234 0.19738 0.0
H889 H 0.18034 0.7977 0.29901 0.0
H890 H 0.13231 0.76969 0.28893 0.0
C891 C 0.98513 0.68609 0.17502 0.0
C892 C 0.05058 0.74564 0.20719 0.0
H893 H 0.11215 0.75297 0.21705 0.0
C894 C 0.0551 0.76844 0.22835 0.0
C895 C 0.0713 0.7398 0.2036 0.0
C896 C 0.06784 0.71604 0.18015 0.0
C897 C 0.07991 0.78569 0.24582 0.0
C898 C 0.10089 0.78027 0.24121 0.0
C899 C 0.09608 0.75709 0.22084 0.0
C900 C 0.12851 0.79907 0.25453 0.0
C901 C 0.08334 0.80947 0.2691 0.0
C902 C 0.14224 0.82523 0.23977 0.0
C903 C 0.16956 0.84131 0.24606 0.0
C904 C 0.18362 0.83137 0.26675 0.0
C905 C 0.16975 0.80583 0.28342 0.0
C906 C 0.1424 0.78982 0.27743 0.0
H907 H 0.06414 0.80585 0.28143 0.0
H908 H 0.09767 0.81451 0.29391 0.0
H909 H 0.09092 0.82691 0.24904 0.0
H910 H 0.13222 0.83264 0.22117 0.0
H911 H 0.18001 0.86077 0.23228 0.0
H912 H 0.26127 0.9886 0.27906 0.0
H913 H 0.2723 0.02788 0.31947 0.0
H914 H 0.31778 0.00802 0.39886 0.0
H915 H 0.30707 0.9687 0.35829 0.0
H916 H 0.26537 0.03514 0.40211 0.0
H917 H 0.37162 0.0833 0.35855 0.0
H918 H 0.34599 0.05439 0.33306 0.0
H919 H 0.35777 0.0509 0.3807 0.0
C920 C 0.27344 0.99239 0.3053 0.0
C921 C 0.28354 0.97563 0.31514 0.0
C922 C 0.27965 0.01484 0.32845 0.0
C923 C 0.29616 0.02109 0.36184 0.0
C924 C 0.30532 0.00378 0.37285 0.0
H925 H 0.37918 0.17464 0.48421 0.0
H926 H 0.35883 0.12652 0.47255 0.0
C927 C 0.2991 0.98127 0.34969 0.0
C928 C 0.30498 0.04656 0.38343 0.0
H929 H 0.35937 0.1077 0.40023 0.0
C930 C 0.28595 0.05096 0.40206 0.0
C931 C 0.33184 0.06716 0.38333 0.0
C932 C 0.35303 0.06393 0.36263 0.0
C933 C 0.29305 0.07553 0.42024 0.0
C934 C 0.3198 0.09641 0.41905 0.0
C935 C 0.33889 0.09168 0.40137 0.0
C936 C 0.32836 0.12395 0.43291 0.0
C937 C 0.27183 0.07886 0.44052 0.0
C938 C 0.31749 0.13838 0.41565 0.0
C939 C 0.32894 0.16576 0.42269 0.0
C940 C 0.35158 0.17918 0.44678 0.0
C941 C 0.3615 0.16456 0.46595 0.0
C942 C 0.34999 0.13716 0.45907 0.0
H943 H 0.25526 0.05941 0.45079 0.0
H944 H 0.27993 0.09258 0.4664 0.0
H945 H 0.26356 0.08728 0.41907 0.0
H946 H 0.30129 0.1289 0.39459 0.0
H947 H 0.32132 0.17678 0.40697 0.0
H948 H 0.34333 0.34943 0.47175 0.0
H949 H 0.30853 0.35364 0.50509 0.0
H950 H 0.27383 0.27292 0.54735 0.0
H951 H 0.30897 0.26852 0.51409 0.0
H952 H 0.25417 0.32157 0.48836 0.0
H953 H 0.27636 0.31614 0.64778 0.0
H954 H 0.3005 0.32361 0.60901 0.0
H955 H 0.27379 0.2901 0.61564 0.0
C956 C 0.32851 0.33258 0.48842 0.0
C957 C 0.32894 0.30859 0.49012 0.0
C958 C 0.30859 0.33505 0.5075 0.0
C959 C 0.28866 0.31368 0.52891 0.0
C960 C 0.28923 0.28981 0.53146 0.0
H961 H 0.14502 0.32115 0.58018 0.0
H962 H 0.17308 0.30151 0.56752 0.0
C963 C 0.30926 0.2873 0.51229 0.0
C964 C 0.26657 0.31625 0.54613 0.0
H965 H 0.23957 0.32136 0.63358 0.0
C966 C 0.25077 0.32122 0.52009 0.0
C967 C 0.26231 0.31595 0.58756 0.0
C968 C 0.27918 0.31135 0.61682 0.0
C969 C 0.23132 0.32663 0.53426 0.0
C970 C 0.22714 0.32656 0.57572 0.0
C971 C 0.24258 0.32106 0.60184 0.0
C972 C 0.20868 0.33483 0.59204 0.0
C973 C 0.21628 0.33363 0.50474 0.0
C974 C 0.21894 0.35917 0.61247 0.0
C975 C 0.20287 0.3702 0.62013 0.0
C976 C 0.17632 0.35706 0.60747 0.0
C977 C 0.1654 0.33158 0.59041 0.0
C978 C 0.18148 0.32049 0.58284 0.0
H979 H 0.22543 0.33777 0.47474 0.0
H980 H 0.19567 0.3167 0.50204 0.0
H981 H 0.21535 0.35137 0.51487 0.0
H982 H 0.23984 0.37055 0.61993 0.0
H983 H 0.21168 0.38992 0.63322 0.0
H984 H 0.03007 0.33865 0.68463 0.0
H985 H 0.98848 0.30741 0.71739 0.0
H986 H 0.98474 0.24271 0.64877 0.0
H987 H 0.0259 0.2739 0.61518 0.0
H988 H 0.93966 0.24356 0.64364 0.0
H989 H 0.96783 0.2518 0.80242 0.0
H990 H 0.97719 0.28344 0.78047 0.0
H991 H 0.99211 0.26464 0.7631 0.0
C992 C 0.02065 0.3177 0.67702 0.0
C993 C 0.03126 0.3088 0.64713 0.0
C994 C 0.99693 0.2998 0.69602 0.0
C995 C 0.98357 0.27259 0.68596 0.0
C996 C 0.99469 0.26357 0.65715 0.0
H997 H 0.82502 0.13973 0.73645 0.0
H998 H 0.873 0.16586 0.72452 0.0
C999 C 0.01824 0.28145 0.63794 0.0
C1000 C 0.95677 0.25402 0.70226 0.0
H1001 H 0.92122 0.23049 0.7882 0.0
C1002 C 0.93575 0.24046 0.67525 0.0
C1003 C 0.95157 0.25007 0.74355 0.0
C1004 C 0.97342 0.26306 0.77406 0.0
C1005 C 0.90969 0.22361 0.68827 0.0
C1006 C 0.90444 0.21993 0.72948 0.0
C1007 C 0.92537 0.23329 0.75663 0.0
C1008 C 0.87696 0.2032 0.74433 0.0
C1009 C 0.88777 0.21046 0.65781 0.0
C1010 C 0.86365 0.21531 0.76126 0.0
C1011 C 0.83633 0.2004 0.76823 0.0
C1012 C 0.82201 0.17317 0.75852 0.0
C1013 C 0.8357 0.16065 0.74449 0.0
C1014 C 0.86302 0.17558 0.73741 0.0
H1015 H 0.89439 0.21902 0.62769 0.0
H1016 H 0.88102 0.18887 0.65627 0.0
H1017 H 0.87051 0.21254 0.66641 0.0
H1018 H 0.87405 0.2366 0.76677 0.0
H1019 H 0.82609 0.21045 0.77891 0.0
H1020 H 0.69447 0.03272 0.85124 0.0
H1021 H 0.68386 0.99244 0.8887 0.0
H1022 H 0.74036 0.98253 0.81903 0.0
H1023 H 0.75107 0.02265 0.78143 0.0
H1024 H 0.66368 0.94189 0.84975 0.0
H1025 H 0.75544 0.96921 0.93493 0.0
H1026 H 0.74793 0.99375 0.91579 0.0
H1027 H 0.76047 0.97806 0.88323 0.0
C1028 C 0.70502 0.02227 0.84438 0.0
C1029 C 0.72353 0.03084 0.81319 0.0
C1030 C 0.69892 0.99925 0.86583 0.0
C1031 C 0.71151 0.98465 0.85693 0.0
C1032 C 0.73074 0.99375 0.82688 0.0
H1033 H 0.68948 0.82906 0.89533 0.0
H1034 H 0.70775 0.877 0.88503 0.0
C1035 C 0.7367 0.0166 0.80521 0.0
C1036 C 0.70251 0.95839 0.87574 0.0
H1037 H 0.72357 0.92281 0.93005 0.0
C1038 C 0.67661 0.93778 0.86784 0.0
C1039 C 0.71956 0.95308 0.8989 0.0
C1040 C 0.74735 0.97471 0.90908 0.0
C1041 C 0.66755 0.91172 0.88115 0.0
C1042 C 0.68464 0.90626 0.90413 0.0
C1043 C 0.71043 0.92703 0.91271 0.0
C1044 C 0.67646 0.87872 0.91709 0.0
C1045 C 0.64019 0.89004 0.86874 0.0
C1046 C 0.65362 0.86409 0.94034 0.0
C1047 C 0.64313 0.83674 0.94593 0.0
C1048 C 0.65565 0.82379 0.92914 0.0
C1049 C 0.67971 0.83879 0.90891 0.0
C1050 C 0.69005 0.86611 0.9029 0.0
H1051 H 0.6324 0.89626 0.84332 0.0
H1052 H 0.64026 0.87158 0.8602 0.0
H1053 H 0.62632 0.88532 0.89399 0.0
H1054 H 0.64313 0.87353 0.95232 0.0
H1055 H 0.62443 0.82541 0.96138 0.0
H1056 H 0.27172 0.35805 0.08199 0.0
H1057 H 0.2829 0.33717 0.13545 0.0
H1058 H 0.31871 0.30887 0.05086 0.0
H1059 H 0.30786 0.33003 0.99689 0.0
H1060 H 0.27205 0.28287 0.14782 0.0
H1061 H 0.37922 0.35777 0.12978 0.0
H1062 H 0.35334 0.36209 0.108 0.0
H1063 H 0.36188 0.33914 0.08619 0.0
C1064 C 0.28177 0.34723 0.07456 0.0
C1065 C 0.28931 0.34613 0.03522 0.0
C1066 C 0.288 0.33517 0.10518 0.0
C1067 C 0.30194 0.32186 0.09707 0.0
C1068 C 0.30822 0.31938 0.05765 0.0
H1069 H 0.38374 0.27528 0.26678 0.0
H1070 H 0.36445 0.28097 0.20591 0.0
C1071 C 0.30192 0.3314 0.02689 0.0
C1072 C 0.31156 0.31247 0.13041 0.0
H1073 H 0.3678 0.32685 0.18134 0.0
C1074 C 0.29299 0.29226 0.15505 0.0
C1075 C 0.33888 0.32489 0.13965 0.0
C1076 C 0.35957 0.34731 0.11479 0.0
C1077 C 0.30105 0.28422 0.18902 0.0
C1078 C 0.32832 0.29718 0.19889 0.0
C1079 C 0.3469 0.31695 0.17367 0.0
C1080 C 0.33813 0.29144 0.23599 0.0
C1081 C 0.28033 0.26189 0.21391 0.0
C1082 C 0.32974 0.29546 0.27313 0.0
C1083 C 0.34065 0.2921 0.3081 0.0
C1084 C 0.3604 0.28499 0.30648 0.0
C1085 C 0.36858 0.28077 0.26917 0.0
C1086 C 0.35756 0.28398 0.2343 0.0
H1087 H 0.26216 0.24892 0.19633 0.0
H1088 H 0.28803 0.24942 0.22649 0.0
H1089 H 0.27461 0.27048 0.23888 0.0
H1090 H 0.31527 0.3019 0.27509 0.0
H1091 H 0.33401 0.29564 0.33631 0.0
H1092 H 0.97684 0.30497 0.16467 0.0
H1093 H 0.00606 0.31678 0.22274 0.0
H1094 H 0.93915 0.29369 0.30015 0.0
H1095 H 0.90994 0.28185 0.24275 0.0
H1096 H 0.9831 0.34653 0.312 0.0
H1097 H 0.01298 0.26931 0.3101 0.0
H1098 H 0.01584 0.28608 0.26391 0.0
H1099 H 0.98366 0.26489 0.28487 0.0
C1100 C 0.96827 0.30205 0.19406 0.0
C1101 C 0.94102 0.29271 0.19898 0.0
C1102 C 0.98499 0.30871 0.22717 0.0
C1103 C 0.97468 0.30598 0.26563 0.0
C1104 C 0.94744 0.29591 0.27065 0.0
H1105 H 0.0448 0.32967 0.50039 0.0
H1106 H 0.01718 0.31143 0.44074 0.0
C1107 C 0.93078 0.28924 0.23771 0.0
C1108 C 0.99238 0.31559 0.30066 0.0
H1109 H 0.03405 0.30407 0.35762 0.0
C1110 C 0.99425 0.33726 0.322 0.0
C1111 C 0.00668 0.30328 0.31362 0.0
C1112 C 0.00466 0.27946 0.29221 0.0
C1113 C 0.01025 0.34714 0.35593 0.0
C1114 C 0.02486 0.3351 0.36861 0.0
C1115 C 0.02285 0.31326 0.34755 0.0
C1116 C 0.04237 0.3452 0.40373 0.0
C1117 C 0.01128 0.37023 0.37828 0.0
C1118 C 0.06573 0.37001 0.40227 0.0
C1119 C 0.08149 0.38047 0.43612 0.0
C1120 C 0.07417 0.36628 0.47207 0.0
C1121 C 0.05093 0.34115 0.47321 0.0
C1122 C 0.03521 0.33064 0.43918 0.0
H1123 H 0.99524 0.37408 0.36889 0.0
H1124 H 0.00962 0.36643 0.41076 0.0
H1125 H 0.03063 0.38849 0.37267 0.0
H1126 H 0.07153 0.38147 0.37505 0.0
H1127 H 0.09906 0.39997 0.4343 0.0
H1128 H 0.68071 0.95773 0.33427 0.0
H1129 H 0.69924 0.9842 0.39491 0.0
H1130 H 0.62151 0.94437 0.4484 0.0
H1131 H 0.60331 0.91699 0.38894 0.0
H1132 H 0.69137 0.01899 0.42857 0.0
H1133 H 0.66221 0.93817 0.53719 0.0
H1134 H 0.65934 0.932 0.48437 0.0
H1135 H 0.63345 0.93372 0.51123 0.0
C1136 C 0.66768 0.95451 0.35918 0.0
C1137 C 0.64064 0.93517 0.35708 0.0
C1138 C 0.67827 0.96959 0.39381 0.0
C1139 C 0.66192 0.96585 0.42672 0.0
C1140 C 0.63477 0.94694 0.42415 0.0
H1141 H 0.68526 0.08333 0.6008 0.0
H1142 H 0.67574 0.05476 0.54267 0.0
C1143 C 0.62432 0.93147 0.38995 0.0
C1144 C 0.67281 0.98277 0.4628 0.0
H1145 H 0.67129 0.98066 0.56415 0.0
C1146 C 0.68732 0.01055 0.45819 0.0
C1147 C 0.6682 0.97189 0.50155 0.0
C1148 C 0.65522 0.9423 0.50881 0.0
C1149 C 0.69621 0.02772 0.49116 0.0
C1150 C 0.68939 0.01685 0.52986 0.0
C1151 C 0.67606 0.98907 0.53452 0.0
C1152 C 0.69496 0.03387 0.56567 0.0
C1153 C 0.71296 0.05731 0.48397 0.0
C1154 C 0.70767 0.03072 0.59897 0.0
C1155 C 0.71245 0.04657 0.63284 0.0
C1156 C 0.70487 0.06603 0.63369 0.0
C1157 C 0.6918 0.06886 0.60063 0.0
C1158 C 0.68655 0.05267 0.56723 0.0
H1159 H 0.72438 0.06143 0.4559 0.0
H1160 H 0.69984 0.06594 0.48099 0.0
H1161 H 0.72712 0.06757 0.50872 0.0
H1162 H 0.7141 0.01615 0.59865 0.0
H1163 H 0.72253 0.04398 0.65799 0.0
H1164 H 0.69443 0.6026 0.55853 0.0
H1165 H 0.6848 0.62085 0.61743 0.0
H1166 H 0.72377 0.69894 0.56403 0.0
H1167 H 0.73181 0.68027 0.50381 0.0
H1168 H 0.71267 0.65512 0.67058 0.0
H1169 H 0.65583 0.69411 0.59161 0.0
H1170 H 0.66675 0.67368 0.56717 0.0
H1171 H 0.68933 0.70881 0.57442 0.0
C1172 C 0.70087 0.62365 0.55935 0.0
C1173 C 0.71354 0.63998 0.5265 0.0
C1174 C 0.69543 0.6341 0.59306 0.0
C1175 C 0.703 0.6612 0.59494 0.0
C1176 C 0.71684 0.67781 0.56281 0.0
H1177 H 0.68718 0.72442 0.82587 0.0
H1178 H 0.7062 0.71453 0.76781 0.0
C1179 C 0.72162 0.66719 0.52855 0.0
C1180 C 0.69598 0.67166 0.63041 0.0
H1181 H 0.66413 0.70461 0.6598 0.0
C1182 C 0.70198 0.6659 0.66823 0.0
C1183 C 0.68181 0.68552 0.62739 0.0
C1184 C 0.67281 0.69066 0.588 0.0
C1185 C 0.69361 0.67287 0.70303 0.0
C1186 C 0.67996 0.68723 0.69999 0.0
C1187 C 0.67469 0.69372 0.66218 0.0
C1188 C 0.66912 0.69405 0.7352 0.0
C1189 C 0.69839 0.66358 0.7424 0.0
C1190 C 0.64225 0.68687 0.73563 0.0
C1191 C 0.63166 0.69333 0.76801 0.0
C1192 C 0.64757 0.70665 0.80108 0.0
C1193 C 0.67444 0.71382 0.80091 0.0
C1194 C 0.68525 0.70798 0.76789 0.0
H1195 H 0.70184 0.64653 0.73866 0.0
H1196 H 0.71634 0.6801 0.75656 0.0
H1197 H 0.68134 0.65741 0.76279 0.0
H1198 H 0.62935 0.67609 0.71088 0.0
H1199 H 0.61085 0.6875 0.76744 0.0
H1200 H 0.04967 0.73301 0.66288 0.0
H1201 H 0.02305 0.72647 0.7226 0.0
H1202 H 0.06286 0.69018 0.78119 0.0
H1203 H 0.09045 0.69818 0.72276 0.0
H1204 H 0.98842 0.68477 0.75669 0.0
H1205 H 0.06721 0.73775 0.86774 0.0
H1206 H 0.0742 0.74047 0.81524 0.0
H1207 H 0.0725 0.7133 0.84361 0.0
C1208 C 0.05289 0.72395 0.68878 0.0
C1209 C 0.07224 0.71631 0.68842 0.0
C1210 C 0.03773 0.72025 0.72288 0.0
C1211 C 0.04137 0.70844 0.75691 0.0
C1212 C 0.06038 0.70035 0.75609 0.0
H1213 H 0.92352 0.61109 0.92469 0.0
H1214 H 0.95188 0.6321 0.86739 0.0
C1215 C 0.07597 0.70466 0.72247 0.0
C1216 C 0.02408 0.70272 0.79222 0.0
H1217 H 0.025 0.70282 0.89357 0.0
C1218 C 0.99648 0.6892 0.78659 0.0
C1219 C 0.03442 0.7091 0.83136 0.0
C1220 C 0.06372 0.72625 0.83974 0.0
C1221 C 0.97901 0.68054 0.81892 0.0
C1222 C 0.98938 0.68433 0.85799 0.0
C1223 C 0.01695 0.69928 0.86368 0.0
C1224 C 0.97213 0.67178 0.89305 0.0
C1225 C 0.94964 0.66746 0.81063 0.0
C1226 C 0.97497 0.68673 0.92756 0.0
C1227 C 0.95935 0.67448 0.961 0.0
C1228 C 0.94037 0.6472 0.96019 0.0
C1229 C 0.93766 0.63227 0.92582 0.0
C1230 C 0.9537 0.64434 0.89287 0.0
H1231 H 0.94582 0.67546 0.78302 0.0
H1232 H 0.9414 0.64576 0.80605 0.0
H1233 H 0.93889 0.67048 0.83547 0.0
H1234 H 0.98924 0.70787 0.9286 0.0
H1235 H 0.9618 0.6864 0.98721 0.0
H1236 H 0.31325 0.91774 0.09976 0.0
H1237 H 0.32278 0.94633 0.04198 0.0
H1238 H 0.28457 0.98503 0.09861 0.0
H1239 H 0.27651 0.95747 0.15777 0.0
H1240 H 0.29367 0.95216 0.99073 0.0
H1241 H 0.35227 0.04877 0.06941 0.0
H1242 H 0.34167 0.01735 0.09349 0.0
H1243 H 0.31897 0.02962 0.08746 0.0
C1244 C 0.30697 0.93243 0.09994 0.0
C1245 C 0.29438 0.93561 0.13331 0.0
C1246 C 0.31237 0.94873 0.06686 0.0
C1247 C 0.30484 0.96822 0.06611 0.0
C1248 C 0.29137 0.97078 0.09893 0.0
H1249 H 0.32032 0.0465 0.83516 0.0
H1250 H 0.30088 0.01853 0.89398 0.0
C1251 C 0.28659 0.95491 0.13259 0.0
C1252 C 0.31136 0.98571 0.03083 0.0
H1253 H 0.34387 0.05067 0.00133 0.0
C1254 C 0.30468 0.97372 0.99304 0.0
C1255 C 0.32587 0.01385 0.03383 0.0
C1256 C 0.33535 0.02817 0.07318 0.0
C1257 C 0.31291 0.98896 0.95821 0.0
C1258 C 0.32711 0.01711 0.96122 0.0
C1259 C 0.3329 0.02911 -0.00099 0.0
C1260 C 0.33812 0.03457 0.92593 0.0
C1261 C 0.30749 0.97462 0.91881 0.0
C1262 C 0.36525 0.0537 0.92494 0.0
C1263 C 0.37613 0.07022 0.89209 0.0
C1264 C 0.36022 0.06762 0.85916 0.0
C1265 C 0.33306 0.04859 0.86001 0.0
C1266 C 0.32199 0.0325 0.89346 0.0
H1267 H 0.30337 0.95385 0.92242 0.0
H1268 H 0.28975 0.97361 0.90491 0.0
H1269 H 0.32451 0.98515 0.89824 0.0
H1270 H 0.37814 0.05571 0.94953 0.0
H1271 H 0.39716 0.08468 0.89214 0.0
H1272 H 0.56997 0.63798 0.96124 0.0
H1273 H 0.53033 0.59365 0.96861 0.0
H1274 H 0.4841 0.62044 0.90417 0.0
H1275 H 0.52275 0.66441 0.8981 0.0
H1276 H 0.45748 0.59192 0.96549 0.0
H1277 H 0.4981 0.53768 0.88193 0.0
H1278 H 0.51694 0.55537 0.92508 0.0
H1279 H 0.5146 0.57357 0.88367 0.0
C1280 C 0.55123 0.63446 0.94925 0.0
C1281 C 0.54965 0.65474 0.92884 0.0
C1282 C 0.52869 0.60903 0.95298 0.0
C1283 C 0.50435 0.6035 0.93607 0.0
C1284 C 0.50264 0.62408 0.91721 0.0
H1285 H 0.3626 0.45395 0.87099 0.0
H1286 H 0.4062 0.49525 0.87121 0.0
C1287 C 0.52489 0.64932 0.91377 0.0
C1288 C 0.48031 0.57656 0.93761 0.0
H1289 H 0.45466 0.51183 0.90758 0.0
C1290 C 0.45694 0.57441 0.95296 0.0
C1291 C 0.47945 0.5538 0.92051 0.0
C1292 C 0.50351 0.55514 0.90151 0.0
C1293 C 0.43274 0.55036 0.95135 0.0
C1294 C 0.43198 0.52738 0.93533 0.0
C1295 C 0.45533 0.5294 0.92007 0.0
C1296 C 0.40707 0.50114 0.93491 0.0
C1297 C 0.40808 0.55011 0.9657 0.0
C1298 C 0.39366 0.49034 0.97061 0.0
C1299 C 0.36881 0.46735 0.9704 0.0
C1300 C 0.35703 0.45414 0.93457 0.0
C1301 C 0.37117 0.46387 0.89895 0.0
C1302 C 0.39602 0.48737 0.8991 0.0
H1303 H 0.41052 0.57037 0.96511 0.0
H1304 H 0.39055 0.53665 0.94729 0.0
H1305 H 0.40406 0.54303 0.99687 0.0
H1306 H 0.40214 0.50009 -0.00131 0.0
H1307 H 0.35868 0.45998 -0.00152 0.0
H1308 H 0.94143 0.37073 0.05056 0.0
H1309 H 0.94856 0.41629 0.05048 0.0
H1310 H 0.8702 0.38697 0.09831 0.0
H1311 H 0.86288 0.34183 0.0985 0.0
H1312 H 0.91766 0.4382 0.01544 0.0
H1313 H 0.92068 0.44419 0.17985 0.0
H1314 H 0.92506 0.41978 0.15265 0.0
H1315 H 0.89234 0.41464 0.16088 0.0
C1316 C 0.92557 0.37397 0.06037 0.0
C1317 C 0.9017 0.35268 0.07492 0.0
C1318 C 0.92975 0.4 0.06057 0.0
C1319 C 0.91016 0.40502 0.07545 0.0
C1320 C 0.88582 0.3836 0.08771 0.0
H1321 H 0.86261 0.51833 0.05656 0.0
H1322 H 0.87066 0.48109 0.05819 0.0
C1323 C 0.88164 0.35776 0.08752 0.0
C1324 C 0.91474 0.43249 0.07877 0.0
H1325 H 0.91245 0.47569 0.14573 0.0
C1326 C 0.91707 0.44666 0.04393 0.0
C1327 C 0.91432 0.44366 0.11604 0.0
C1328 C 0.91323 0.42992 0.15454 0.0
C1329 C 0.91714 0.47089 0.04528 0.0
C1330 C 0.91464 0.481 0.08234 0.0
C1331 C 0.91413 0.46776 0.11735 0.0
C1332 C 0.90961 0.50357 0.08469 0.0
C1333 C 0.91896 0.48508 0.00692 0.0
C1334 C 0.92842 0.52832 0.10082 0.0
C1335 C 0.92388 0.5499 0.10003 0.0
C1336 C 0.90039 0.54687 0.08327 0.0
C1337 C 0.88106 0.52154 0.06931 0.0
C1338 C 0.88564 0.50019 0.07001 0.0
H1339 H 0.92762 0.47881 0.98271 0.0
H1340 H 0.89875 0.48024 0.99761 0.0
H1341 H 0.93116 0.50702 0.01083 0.0
H1342 H 0.94694 0.53116 0.11272 0.0
H1343 H 0.93918 0.56912 0.11096 0.0
H1344 H 0.57153 0.94115 0.21996 0.0
H1345 H 0.53366 0.94879 0.21938 0.0
H1346 H 0.47976 0.86406 0.22552 0.0
H1347 H 0.51723 0.85632 0.22641 0.0
H1348 H 0.46571 0.89554 0.16995 0.0
H1349 H 0.48835 0.93359 0.32575 0.0
H1350 H 0.51446 0.94757 0.2893 0.0
H1351 H 0.5013 0.91373 0.30483 0.0
C1352 C 0.55158 0.92416 0.22001 0.0
C1353 C 0.54731 0.89813 0.22331 0.0
C1354 C 0.53001 0.92856 0.22012 0.0
C1355 C 0.50398 0.90698 0.22304 0.0
C1356 C 0.49971 0.88097 0.22348 0.0
H1357 H 0.3414 0.8552 0.24855 0.0
H1358 H 0.38628 0.86247 0.24352 0.0
C1359 C 0.52113 0.87659 0.22386 0.0
C1360 C 0.48099 0.91103 0.22818 0.0
H1361 H 0.44774 0.92536 0.29871 0.0
C1362 C 0.46197 0.90249 0.19783 0.0
C1363 C 0.47622 0.92015 0.26459 0.0
C1364 C 0.49602 0.92923 0.29822 0.0
C1365 C 0.43786 0.90198 0.20338 0.0
C1366 C 0.43236 0.90954 0.24064 0.0
C1367 C 0.45194 0.91939 0.27032 0.0
C1368 C 0.40562 0.90531 0.24989 0.0
C1369 C 0.41825 0.89283 0.16947 0.0
C1370 C 0.40166 0.92683 0.25795 0.0
C1371 C 0.37585 0.92267 0.26146 0.0
C1372 C 0.35376 0.89694 0.25686 0.0
C1373 C 0.358 0.8753 0.25188 0.0
C1374 C 0.38364 0.87943 0.24867 0.0
H1375 H 0.42824 0.89554 0.14034 0.0
H1376 H 0.4037 0.87129 0.17296 0.0
H1377 H 0.40724 0.90384 0.16913 0.0
H1378 H 0.41842 0.94694 0.25946 0.0
H1379 H 0.37321 0.93975 0.26506 0.0
H1380 H 0.43458 0.36926 0.44145 0.0
H1381 H 0.47281 0.41493 0.44019 0.0
H1382 H 0.52544 0.38365 0.42465 0.0
H1383 H 0.48767 0.33831 0.42563 0.0
H1384 H 0.5415 0.42847 0.4833 0.0
H1385 H 0.51546 0.44694 0.33185 0.0
H1386 H 0.49027 0.43392 0.36976 0.0
H1387 H 0.50283 0.41358 0.35058 0.0
C1388 C 0.45437 0.37216 0.4387 0.0
C1389 C 0.45812 0.3502 0.43352 0.0
C1390 C 0.47612 0.39822 0.43758 0.0
C1391 C 0.50186 0.40259 0.43174 0.0
C1392 C 0.50572 0.38068 0.42894 0.0
H1393 H 0.66423 0.5146 0.4014 0.0
H1394 H 0.61934 0.47659 0.40628 0.0
C1395 C 0.4841 0.35478 0.42959 0.0
C1396 C 0.52496 0.42977 0.4268 0.0
H1397 H 0.55691 0.4789 0.35783 0.0
C1398 C 0.5447 0.43972 0.45617 0.0
C1399 C 0.52902 0.4444 0.39138 0.0
C1400 C 0.50841 0.4343 0.35884 0.0
C1401 C 0.56879 0.46351 0.45055 0.0
C1402 C 0.57355 0.47736 0.41415 0.0
C1403 C 0.55329 0.46813 0.38554 0.0
C1404 C 0.60014 0.50021 0.40458 0.0
C1405 C 0.58918 0.47337 0.48346 0.0
C1406 C 0.60414 0.52598 0.39917 0.0
C1407 C 0.62994 0.54787 0.39573 0.0
C1408 C 0.652 0.54419 0.39779 0.0
C1409 C 0.64767 0.51811 0.40005 0.0
C1410 C 0.62202 0.49637 0.40316 0.0
H1411 H 0.57986 0.46543 0.51279 0.0
H1412 H 0.60354 0.46652 0.47768 0.0
H1413 H 0.6003 0.49548 0.48501 0.0
H1414 H 0.58745 0.52931 0.39976 0.0
H1415 H 0.63267 0.56774 0.39428 0.0
H1416 H 0.06604 0.63425 0.55918 0.0
H1417 H 0.05927 0.58903 0.5659 0.0
H1418 H 0.14373 0.62198 0.57712 0.0
H1419 H 0.15058 0.66686 0.57101 0.0
H1420 H 0.08001 0.55887 0.52635 0.0
H1421 H 0.11352 0.58216 0.68281 0.0
H1422 H 0.10441 0.60249 0.65386 0.0
H1423 H 0.13675 0.60608 0.64847 0.0
C1424 C 0.08317 0.63175 0.56196 0.0
C1425 C 0.10882 0.6541 0.56496 0.0
C1426 C 0.07926 0.60595 0.56611 0.0
C1427 C 0.10096 0.60226 0.57318 0.0
C1428 C 0.12667 0.62443 0.57274 0.0
H1429 H 0.1505 0.49071 0.59904 0.0
H1430 H 0.14283 0.52837 0.59841 0.0
C1431 C 0.13056 0.65007 0.56892 0.0
C1432 C 0.09712 0.57567 0.58329 0.0
H1433 H 0.11284 0.54387 0.65428 0.0
C1434 C 0.08666 0.55533 0.55458 0.0
C1435 C 0.10558 0.57103 0.62035 0.0
C1436 C 0.11544 0.5915 0.65331 0.0
C1437 C 0.08612 0.5311 0.56102 0.0
C1438 C 0.09607 0.52717 0.59717 0.0
C1439 C 0.10526 0.54698 0.62659 0.0
C1440 C 0.10017 0.50417 0.60289 0.0
C1441 C 0.07632 0.51045 0.52835 0.0
C1442 C 0.07875 0.47812 0.60738 0.0
C1443 C 0.08312 0.45645 0.60834 0.0
C1444 C 0.10894 0.46061 0.60434 0.0
C1445 C 0.13038 0.48687 0.60213 0.0
C1446 C 0.12603 0.50841 0.60165 0.0
H1447 H 0.07143 0.51755 0.50074 0.0
H1448 H 0.09155 0.50492 0.52138 0.0
H1449 H 0.05824 0.49218 0.53847 0.0
H1450 H 0.05865 0.47451 0.60878 0.0
H1451 H 0.06621 0.43644 0.60969 0.0
H1452 H 0.63201 0.06695 0.76904 0.0
H1453 H 0.58721 0.061 0.76569 0.0
H1454 H 0.62107 0.14591 0.75367 0.0
H1455 H 0.66557 0.15192 0.75624 0.0
H1456 H 0.55879 0.08216 0.80684 0.0
H1457 H 0.5785 0.11571 0.65038 0.0
H1458 H 0.59944 0.10669 0.67779 0.0
H1459 H 0.60307 0.13918 0.68405 0.0
C1460 C 0.62984 0.08438 0.76688 0.0
C1461 C 0.65227 0.10988 0.76252 0.0
C1462 C 0.60427 0.08094 0.76464 0.0
C1463 C 0.60088 0.10295 0.75819 0.0
C1464 C 0.62325 0.12859 0.75753 0.0
H1465 H 0.48749 0.15102 0.74312 0.0
H1466 H 0.52566 0.14438 0.74249 0.0
C1467 C 0.64867 0.13201 0.75937 0.0
C1468 C 0.57431 0.09941 0.74967 0.0
H1469 H 0.54103 0.115 0.68108 0.0
C1470 C 0.55467 0.08886 0.77911 0.0
C1471 C 0.56888 0.10789 0.7132 0.0
C1472 C 0.58849 0.11774 0.67937 0.0
C1473 C 0.53037 0.08813 0.77395 0.0
C1474 C 0.52565 0.09806 0.73841 0.0
C1475 C 0.54477 0.10745 0.70829 0.0
C1476 C 0.50242 0.10172 0.73397 0.0
C1477 C 0.51038 0.07805 0.8072 0.0
C1478 C 0.47678 0.08 0.72778 0.0
C1479 C 0.45483 0.08378 0.72754 0.0
C1480 C 0.4583 0.10931 0.73398 0.0
C1481 C 0.48417 0.13111 0.73815 0.0
C1482 C 0.506 0.12736 0.73791 0.0
H1483 H 0.51772 0.07249 0.83389 0.0
H1484 H 0.50541 0.09353 0.81574 0.0
H1485 H 0.49181 0.06028 0.79689 0.0
H1486 H 0.47371 0.06007 0.7244 0.0
H1487 H 0.43513 0.06659 0.72464 0.0
loop_
_geom_bond_atom_site_label_1
_geom_bond_atom_site_label_2
_geom_bond_distance
_geom_bond_site_symmetry_2
_ccdc_geom_bond_type
Co0 O3 1.970 1_556 S
Co0 N17 1.989 . S
Co0 O25 1.967 . S
Co0 O32 1.920 . S
Co1 O4 1.966 . S
Co1 N10 2.022 . S
Co1 N18 1.993 1_554 S
Co1 O26 1.941 1_554 S
C2 O3 1.258 . S
C2 O4 1.263 . S
O3 Co0 1.970 1_554 S
O3 C2 1.258 . S
O4 Co1 1.966 . S
O4 C2 1.263 . S
C5 O6 1.235 . S
C5 O32 1.289 . S
O6 C5 1.235 . S
C7 C9 1.400 . S
C7 N10 1.351 . S
C7 C12 1.501 . S
C8 C9 1.387 . S
C8 N11 1.341 . S
C9 C7 1.400 . S
C9 C8 1.387 . S
N10 Co1 2.022 . S
N10 C7 1.351 . S
N10 N11 1.365 . S
N11 C8 1.341 . S
N11 N10 1.365 . S
N11 H31 0.862 . S
C12 C7 1.501 . S
C12 H13 0.961 . S
C12 H14 0.961 . S
C12 H15 0.960 . S
H13 C12 0.961 . S
H14 C12 0.961 . S
H15 C12 0.960 . S
C16 N17 1.342 . S
C16 C20 1.401 . S
C16 C21 1.499 . S
N17 Co0 1.989 . S
N17 C16 1.342 . S
N17 N18 1.388 . S
N18 Co1 1.993 1_556 S
N18 N17 1.388 . S
N18 C19 1.346 . S
C19 N18 1.346 . S
C19 C20 1.396 . S
C19 C29 1.510 1_556 S
C20 C16 1.401 . S
C20 C19 1.396 . S
C21 C16 1.499 . S
C21 H22 0.959 . S
C21 H23 0.960 . S
C21 H24 0.961 . S
H22 C21 0.959 . S
H23 C21 0.960 . S
H24 C21 0.961 . S
O25 Co0 1.967 . S
O25 C33 1.258 . S
O26 Co1 1.941 1_556 S
O26 C33 1.266 . S
H27 C29 0.959 . S
H28 C29 0.961 . S
C29 C19 1.510 1_554 S
C29 H27 0.959 . S
C29 H28 0.961 . S
C29 H30 0.960 . S
H30 C29 0.960 . S
H31 N11 0.862 . S
O32 Co0 1.920 . S
O32 C5 1.289 . S
C33 O25 1.258 . S
C33 O26 1.266 . S
Co34 O37 1.970 . S
Co34 N51 1.989 . S
Co34 O59 1.967 . S
Co34 O66 1.920 . S
Co35 O38 1.966 . S
Co35 N44 2.022 . S
Co35 N52 1.993 . S
Co35 O60 1.941 . S
C36 O37 1.258 . S
C36 O38 1.263 . S
O37 Co34 1.970 . S
O37 C36 1.258 . S
O38 Co35 1.966 . S
O38 C36 1.263 . S
C39 O40 1.235 . S
C39 O66 1.289 . S
O40 C39 1.235 . S
C41 C43 1.400 . S
C41 N44 1.351 . S
C41 C46 1.501 . S
C42 C43 1.387 . S
C42 N45 1.341 . S
C43 C41 1.400 . S
C43 C42 1.387 . S
N44 Co35 2.022 . S
N44 C41 1.351 . S
N44 N45 1.365 . S
N45 C42 1.341 . S
N45 N44 1.365 . S
N45 H65 0.862 . S
C46 C41 1.501 . S
C46 H47 0.961 . S
C46 H48 0.961 . S
C46 H49 0.960 . S
H47 C46 0.961 . S
H48 C46 0.961 . S
H49 C46 0.960 . S
C50 N51 1.342 . S
C50 C54 1.401 . S
C50 C55 1.499 . S
N51 Co34 1.989 . S
N51 C50 1.342 . S
N51 N52 1.388 . S
N52 Co35 1.993 . S
N52 N51 1.388 . S
N52 C53 1.346 . S
C53 N52 1.346 . S
C53 C54 1.396 . S
C53 C63 1.510 . S
C54 C50 1.401 . S
C54 C53 1.396 . S
C55 C50 1.499 . S
C55 H56 0.959 . S
C55 H57 0.960 . S
C55 H58 0.961 . S
H56 C55 0.959 . S
H57 C55 0.960 . S
H58 C55 0.961 . S
O59 Co34 1.967 . S
O59 C67 1.258 . S
O60 Co35 1.941 . S
O60 C67 1.266 . S
H61 C63 0.959 . S
H62 C63 0.961 . S
C63 C53 1.510 . S
C63 H61 0.959 . S
C63 H62 0.961 . S
C63 H64 0.960 . S
H64 C63 0.960 . S
H65 N45 0.862 . S
O66 Co34 1.920 . S
O66 C39 1.289 . S
C67 O59 1.258 . S
C67 O60 1.266 . S
Co68 O71 1.970 . S
Co68 N85 1.989 . S
Co68 O93 1.967 . S
Co68 O100 1.920 . S
Co69 O72 1.966 . S
Co69 N78 2.022 . S
Co69 N86 1.993 . S
Co69 O94 1.941 . S
C70 O71 1.258 . S
C70 O72 1.263 . S
O71 Co68 1.970 . S
O71 C70 1.258 . S
O72 Co69 1.966 . S
O72 C70 1.263 . S
C73 O74 1.235 . S
C73 O100 1.289 . S
O74 C73 1.235 . S
C75 C77 1.400 . S
C75 N78 1.351 . S
C75 C80 1.501 . S
C76 C77 1.387 . S
C76 N79 1.341 . S
C77 C75 1.400 . S
C77 C76 1.387 . S
N78 Co69 2.022 . S
N78 C75 1.351 . S
N78 N79 1.365 . S
N79 C76 1.341 . S
N79 N78 1.365 . S
N79 H99 0.862 . S
C80 C75 1.501 . S
C80 H81 0.961 . S
C80 H82 0.961 . S
C80 H83 0.960 . S
H81 C80 0.961 . S
H82 C80 0.961 . S
H83 C80 0.960 . S
C84 N85 1.342 . S
C84 C88 1.401 . S
C84 C89 1.499 . S
N85 Co68 1.989 . S
N85 C84 1.342 . S
N85 N86 1.388 . S
N86 Co69 1.993 . S
N86 N85 1.388 . S
N86 C87 1.346 . S
C87 N86 1.346 . S
C87 C88 1.396 . S
C87 C97 1.510 . S
C88 C84 1.401 . S
C88 C87 1.396 . S
C89 C84 1.499 . S
C89 H90 0.959 . S
C89 H91 0.960 . S
C89 H92 0.961 . S
H90 C89 0.959 . S
H91 C89 0.960 . S
H92 C89 0.961 . S
O93 Co68 1.967 . S
O93 C101 1.258 . S
O94 Co69 1.941 . S
O94 C101 1.266 . S
H95 C97 0.959 . S
H96 C97 0.961 . S
C97 C87 1.510 . S
C97 H95 0.959 . S
C97 H96 0.961 . S
C97 H98 0.960 . S
H98 C97 0.960 . S
H99 N79 0.862 . S
O100 Co68 1.920 . S
O100 C73 1.289 . S
C101 O93 1.258 . S
C101 O94 1.266 . S
Co102 O105 1.970 . S
Co102 N119 1.989 . S
Co102 O127 1.967 . S
Co102 O134 1.920 . S
Co103 O106 1.966 . S
Co103 N112 2.022 . S
Co103 N120 1.993 . S
Co103 O128 1.941 . S
C104 O105 1.258 . S
C104 O106 1.263 . S
O105 Co102 1.970 . S
O105 C104 1.258 . S
O106 Co103 1.966 . S
O106 C104 1.263 . S
C107 O108 1.235 . S
C107 O134 1.289 . S
O108 C107 1.235 . S
C109 C111 1.400 . S
C109 N112 1.351 . S
C109 C114 1.501 . S
C110 C111 1.387 . S
C110 N113 1.341 . S
C111 C109 1.400 . S
C111 C110 1.387 . S
N112 Co103 2.022 . S
N112 C109 1.351 . S
N112 N113 1.365 . S
N113 C110 1.341 . S
N113 N112 1.365 . S
N113 H133 0.862 . S
C114 C109 1.501 . S
C114 H115 0.961 . S
C114 H116 0.961 . S
C114 H117 0.960 . S
H115 C114 0.961 . S
H116 C114 0.961 . S
H117 C114 0.960 . S
C118 N119 1.342 . S
C118 C122 1.401 . S
C118 C123 1.499 . S
N119 Co102 1.989 . S
N119 C118 1.342 . S
N119 N120 1.388 . S
N120 Co103 1.993 . S
N120 N119 1.388 . S
N120 C121 1.346 . S
C121 N120 1.346 . S
C121 C122 1.396 . S
C121 C131 1.510 . S
C122 C118 1.401 . S
C122 C121 1.396 . S
C123 C118 1.499 . S
C123 H124 0.959 . S
C123 H125 0.960 . S
C123 H126 0.961 . S
H124 C123 0.959 . S
H125 C123 0.960 . S
H126 C123 0.961 . S
O127 Co102 1.967 . S
O127 C135 1.258 . S
O128 Co103 1.941 . S
O128 C135 1.266 . S
H129 C131 0.959 . S
H130 C131 0.961 . S
C131 C121 1.510 . S
C131 H129 0.959 . S
C131 H130 0.961 . S
C131 H132 0.960 . S
H132 C131 0.960 . S
H133 N113 0.862 . S
O134 Co102 1.920 . S
O134 C107 1.289 . S
C135 O127 1.258 . S
C135 O128 1.266 . S
Co136 O139 1.970 . S
Co136 N153 1.989 . S
Co136 O161 1.967 . S
Co136 O168 1.920 . S
Co137 O140 1.966 . S
Co137 N146 2.022 . S
Co137 N154 1.993 . S
Co137 O162 1.941 . S
C138 O139 1.258 . S
C138 O140 1.263 . S
O139 Co136 1.970 . S
O139 C138 1.258 . S
O140 Co137 1.966 . S
O140 C138 1.263 . S
C141 O142 1.235 . S
C141 O168 1.289 . S
O142 C141 1.235 . S
C143 C145 1.400 . S
C143 N146 1.351 . S
C143 C148 1.501 . S
C144 C145 1.387 . S
C144 N147 1.341 . S
C145 C143 1.400 . S
C145 C144 1.387 . S
N146 Co137 2.022 . S
N146 C143 1.351 . S
N146 N147 1.365 . S
N147 C144 1.341 . S
N147 N146 1.365 . S
N147 H167 0.862 . S
C148 C143 1.501 . S
C148 H149 0.961 . S
C148 H150 0.961 . S
C148 H151 0.960 . S
H149 C148 0.961 . S
H150 C148 0.961 . S
H151 C148 0.960 . S
C152 N153 1.342 . S
C152 C156 1.401 . S
C152 C157 1.499 . S
N153 Co136 1.989 . S
N153 C152 1.342 . S
N153 N154 1.388 . S
N154 Co137 1.993 . S
N154 N153 1.388 . S
N154 C155 1.346 . S
C155 N154 1.346 . S
C155 C156 1.396 . S
C155 C165 1.510 . S
C156 C152 1.401 . S
C156 C155 1.396 . S
C157 C152 1.499 . S
C157 H158 0.959 . S
C157 H159 0.960 . S
C157 H160 0.961 . S
H158 C157 0.959 . S
H159 C157 0.960 . S
H160 C157 0.961 . S
O161 Co136 1.967 . S
O161 C169 1.258 . S
O162 Co137 1.941 . S
O162 C169 1.266 . S
H163 C165 0.959 . S
H164 C165 0.961 . S
C165 C155 1.510 . S
C165 H163 0.959 . S
C165 H164 0.961 . S
C165 H166 0.960 . S
H166 C165 0.960 . S
H167 N147 0.862 . S
O168 Co136 1.920 . S
O168 C141 1.289 . S
C169 O161 1.258 . S
C169 O162 1.266 . S
Co170 O173 1.970 . S
Co170 N187 1.989 . S
Co170 O195 1.967 . S
Co170 O202 1.920 . S
Co171 O174 1.966 . S
Co171 N180 2.022 . S
Co171 N188 1.993 . S
Co171 O196 1.941 . S
C172 O173 1.258 . S
C172 O174 1.263 . S
O173 Co170 1.970 . S
O173 C172 1.258 . S
O174 Co171 1.966 . S
O174 C172 1.263 . S
C175 O176 1.235 . S
C175 O202 1.289 . S
O176 C175 1.235 . S
C177 C179 1.400 . S
C177 N180 1.351 . S
C177 C182 1.501 . S
C178 C179 1.387 . S
C178 N181 1.341 . S
C179 C177 1.400 . S
C179 C178 1.387 . S
N180 Co171 2.022 . S
N180 C177 1.351 . S
N180 N181 1.365 . S
N181 C178 1.341 . S
N181 N180 1.365 . S
N181 H201 0.862 . S
C182 C177 1.501 . S
C182 H183 0.961 . S
C182 H184 0.961 . S
C182 H185 0.960 . S
H183 C182 0.961 . S
H184 C182 0.961 . S
H185 C182 0.960 . S
C186 N187 1.342 . S
C186 C190 1.401 . S
C186 C191 1.499 . S
N187 Co170 1.989 . S
N187 C186 1.342 . S
N187 N188 1.388 . S
N188 Co171 1.993 . S
N188 N187 1.388 . S
N188 C189 1.346 . S
C189 N188 1.346 . S
C189 C190 1.396 . S
C189 C199 1.510 . S
C190 C186 1.401 . S
C190 C189 1.396 . S
C191 C186 1.499 . S
C191 H192 0.959 . S
C191 H193 0.960 . S
C191 H194 0.961 . S
H192 C191 0.959 . S
H193 C191 0.960 . S
H194 C191 0.961 . S
O195 Co170 1.967 . S
O195 C203 1.258 . S
O196 Co171 1.941 . S
O196 C203 1.266 . S
H197 C199 0.959 . S
H198 C199 0.961 . S
C199 C189 1.510 . S
C199 H197 0.959 . S
C199 H198 0.961 . S
C199 H200 0.960 . S
H200 C199 0.960 . S
H201 N181 0.862 . S
O202 Co170 1.920 . S
O202 C175 1.289 . S
C203 O195 1.258 . S
C203 O196 1.266 . S
Co204 O207 1.970 . S
Co204 N221 1.989 . S
Co204 O229 1.967 . S
Co204 O236 1.920 . S
Co205 O208 1.966 . S
Co205 N214 2.022 . S
Co205 N222 1.993 . S
Co205 O230 1.941 . S
C206 O207 1.258 . S
C206 O208 1.263 . S
O207 Co204 1.970 . S
O207 C206 1.258 . S
O208 Co205 1.966 . S
O208 C206 1.263 . S
C209 O210 1.235 . S
C209 O236 1.289 . S
O210 C209 1.235 . S
C211 C213 1.400 . S
C211 N214 1.351 . S
C211 C216 1.501 . S
C212 C213 1.387 . S
C212 N215 1.341 . S
C213 C211 1.400 . S
C213 C212 1.387 . S
N214 Co205 2.022 . S
N214 C211 1.351 . S
N214 N215 1.365 . S
N215 C212 1.341 . S
N215 N214 1.365 . S
N215 H235 0.862 . S
C216 C211 1.501 . S
C216 H217 0.961 . S
C216 H218 0.961 . S
C216 H219 0.960 . S
H217 C216 0.961 . S
H218 C216 0.961 . S
H219 C216 0.960 . S
C220 N221 1.342 . S
C220 C224 1.401 . S
C220 C225 1.499 . S
N221 Co204 1.989 . S
N221 C220 1.342 . S
N221 N222 1.388 . S
N222 Co205 1.993 . S
N222 N221 1.388 . S
N222 C223 1.346 . S
C223 N222 1.346 . S
C223 C224 1.396 . S
C223 C233 1.510 . S
C224 C220 1.401 . S
C224 C223 1.396 . S
C225 C220 1.499 . S
C225 H226 0.959 . S
C225 H227 0.960 . S
C225 H228 0.961 . S
H226 C225 0.959 . S
H227 C225 0.960 . S
H228 C225 0.961 . S
O229 Co204 1.967 . S
O229 C237 1.258 . S
O230 Co205 1.941 . S
O230 C237 1.266 . S
H231 C233 0.959 . S
H232 C233 0.961 . S
C233 C223 1.510 . S
C233 H231 0.959 . S
C233 H232 0.961 . S
C233 H234 0.960 . S
H234 C233 0.960 . S
H235 N215 0.862 . S
O236 Co204 1.920 . S
O236 C209 1.289 . S
C237 O229 1.258 . S
C237 O230 1.266 . S
Co238 O241 1.970 1_554 S
Co238 N255 1.989 . S
Co238 O263 1.967 . S
Co238 O270 1.920 . S
Co239 O242 1.966 . S
Co239 N248 2.022 . S
Co239 N256 1.993 1_556 S
Co239 O264 1.941 1_556 S
C240 O241 1.258 . S
C240 O242 1.263 . S
O241 Co238 1.970 1_556 S
O241 C240 1.258 . S
O242 Co239 1.966 . S
O242 C240 1.263 . S
C243 O244 1.235 . S
C243 O270 1.289 . S
O244 C243 1.235 . S
C245 C247 1.400 . S
C245 N248 1.351 . S
C245 C250 1.501 . S
C246 C247 1.387 . S
C246 N249 1.341 . S
C247 C245 1.400 . S
C247 C246 1.387 . S
N248 Co239 2.022 . S
N248 C245 1.351 . S
N248 N249 1.365 . S
N249 C246 1.341 . S
N249 N248 1.365 . S
N249 H269 0.862 . S
C250 C245 1.501 . S
C250 H251 0.961 . S
C250 H252 0.961 . S
C250 H253 0.960 . S
H251 C250 0.961 . S
H252 C250 0.961 . S
H253 C250 0.960 . S
C254 N255 1.342 . S
C254 C258 1.401 . S
C254 C259 1.499 . S
N255 Co238 1.989 . S
N255 C254 1.342 . S
N255 N256 1.388 . S
N256 Co239 1.993 1_554 S
N256 N255 1.388 . S
N256 C257 1.346 . S
C257 N256 1.346 . S
C257 C258 1.396 . S
C257 C267 1.510 1_554 S
C258 C254 1.401 . S
C258 C257 1.396 . S
C259 C254 1.499 . S
C259 H260 0.959 . S
C259 H261 0.960 . S
C259 H262 0.961 . S
H260 C259 0.959 . S
H261 C259 0.960 . S
H262 C259 0.961 . S
O263 Co238 1.967 . S
O263 C271 1.258 . S
O264 Co239 1.941 1_554 S
O264 C271 1.266 . S
H265 C267 0.959 . S
H266 C267 0.961 . S
C267 C257 1.510 1_556 S
C267 H265 0.959 . S
C267 H266 0.961 . S
C267 H268 0.960 . S
H268 C267 0.960 . S
H269 N249 0.862 . S
O270 Co238 1.920 . S
O270 C243 1.289 . S
C271 O263 1.258 . S
C271 O264 1.266 . S
Co272 O275 1.970 . S
Co272 N289 1.989 . S
Co272 O297 1.967 . S
Co272 O304 1.920 . S
Co273 O276 1.966 . S
Co273 N282 2.022 . S
Co273 N290 1.993 . S
Co273 O298 1.941 . S
C274 O275 1.258 . S
C274 O276 1.263 . S
O275 Co272 1.970 . S
O275 C274 1.258 . S
O276 Co273 1.966 . S
O276 C274 1.263 . S
C277 O278 1.235 . S
C277 O304 1.289 . S
O278 C277 1.235 . S
C279 C281 1.400 . S
C279 N282 1.351 . S
C279 C284 1.501 . S
C280 C281 1.387 . S
C280 N283 1.341 . S
C281 C279 1.400 . S
C281 C280 1.387 . S
N282 Co273 2.022 . S
N282 C279 1.351 . S
N282 N283 1.365 . S
N283 C280 1.341 . S
N283 N282 1.365 . S
N283 H303 0.862 . S
C284 C279 1.501 . S
C284 H285 0.961 . S
C284 H286 0.961 . S
C284 H287 0.960 . S
H285 C284 0.961 . S
H286 C284 0.961 . S
H287 C284 0.960 . S
C288 N289 1.342 . S
C288 C292 1.401 . S
C288 C293 1.499 . S
N289 Co272 1.989 . S
N289 C288 1.342 . S
N289 N290 1.388 . S
N290 Co273 1.993 . S
N290 N289 1.388 . S
N290 C291 1.346 . S
C291 N290 1.346 . S
C291 C292 1.396 . S
C291 C301 1.510 . S
C292 C288 1.401 . S
C292 C291 1.396 . S
C293 C288 1.499 . S
C293 H294 0.959 . S
C293 H295 0.960 . S
C293 H296 0.961 . S
H294 C293 0.959 . S
H295 C293 0.960 . S
H296 C293 0.961 . S
O297 Co272 1.967 . S
O297 C305 1.258 . S
O298 Co273 1.941 . S
O298 C305 1.266 . S
H299 C301 0.959 . S
H300 C301 0.961 . S
C301 C291 1.510 . S
C301 H299 0.959 . S
C301 H300 0.961 . S
C301 H302 0.960 . S
H302 C301 0.960 . S
H303 N283 0.862 . S
O304 Co272 1.920 . S
O304 C277 1.289 . S
C305 O297 1.258 . S
C305 O298 1.266 . S
Co306 O309 1.970 . S
Co306 N323 1.989 . S
Co306 O331 1.967 . S
Co306 O338 1.920 . S
Co307 O310 1.966 . S
Co307 N316 2.022 . S
Co307 N324 1.993 . S
Co307 O332 1.941 . S
C308 O309 1.258 . S
C308 O310 1.263 . S
O309 Co306 1.970 . S
O309 C308 1.258 . S
O310 Co307 1.966 . S
O310 C308 1.263 . S
C311 O312 1.235 . S
C311 O338 1.289 . S
O312 C311 1.235 . S
C313 C315 1.400 . S
C313 N316 1.351 . S
C313 C318 1.501 . S
C314 C315 1.387 . S
C314 N317 1.341 . S
C315 C313 1.400 . S
C315 C314 1.387 . S
N316 Co307 2.022 . S
N316 C313 1.351 . S
N316 N317 1.365 . S
N317 C314 1.341 . S
N317 N316 1.365 . S
N317 H337 0.862 . S
C318 C313 1.501 . S
C318 H319 0.961 . S
C318 H320 0.961 . S
C318 H321 0.960 . S
H319 C318 0.961 . S
H320 C318 0.961 . S
H321 C318 0.960 . S
C322 N323 1.342 . S
C322 C326 1.401 . S
C322 C327 1.499 . S
N323 Co306 1.989 . S
N323 C322 1.342 . S
N323 N324 1.388 . S
N324 Co307 1.993 . S
N324 N323 1.388 . S
N324 C325 1.346 . S
C325 N324 1.346 . S
C325 C326 1.396 . S
C325 C335 1.510 . S
C326 C322 1.401 . S
C326 C325 1.396 . S
C327 C322 1.499 . S
C327 H328 0.959 . S
C327 H329 0.960 . S
C327 H330 0.961 . S
H328 C327 0.959 . S
H329 C327 0.960 . S
H330 C327 0.961 . S
O331 Co306 1.967 . S
O331 C339 1.258 . S
O332 Co307 1.941 . S
O332 C339 1.266 . S
H333 C335 0.959 . S
H334 C335 0.961 . S
C335 C325 1.510 . S
C335 H333 0.959 . S
C335 H334 0.961 . S
C335 H336 0.960 . S
H336 C335 0.960 . S
H337 N317 0.862 . S
O338 Co306 1.920 . S
O338 C311 1.289 . S
C339 O331 1.258 . S
C339 O332 1.266 . S
Co340 O343 1.970 . S
Co340 N357 1.989 . S
Co340 O365 1.967 . S
Co340 O372 1.920 . S
Co341 O344 1.966 . S
Co341 N350 2.022 . S
Co341 N358 1.993 . S
Co341 O366 1.941 . S
C342 O343 1.258 . S
C342 O344 1.263 . S
O343 Co340 1.970 . S
O343 C342 1.258 . S
O344 Co341 1.966 . S
O344 C342 1.263 . S
C345 O346 1.235 . S
C345 O372 1.289 . S
O346 C345 1.235 . S
C347 C349 1.400 . S
C347 N350 1.351 . S
C347 C352 1.501 . S
C348 C349 1.387 . S
C348 N351 1.341 . S
C349 C347 1.400 . S
C349 C348 1.387 . S
N350 Co341 2.022 . S
N350 C347 1.351 . S
N350 N351 1.365 . S
N351 C348 1.341 . S
N351 N350 1.365 . S
N351 H371 0.862 . S
C352 C347 1.501 . S
C352 H353 0.961 . S
C352 H354 0.961 . S
C352 H355 0.960 . S
H353 C352 0.961 . S
H354 C352 0.961 . S
H355 C352 0.960 . S
C356 N357 1.342 . S
C356 C360 1.401 . S
C356 C361 1.499 . S
N357 Co340 1.989 . S
N357 C356 1.342 . S
N357 N358 1.388 . S
N358 Co341 1.993 . S
N358 N357 1.388 . S
N358 C359 1.346 . S
C359 N358 1.346 . S
C359 C360 1.396 . S
C359 C369 1.510 . S
C360 C356 1.401 . S
C360 C359 1.396 . S
C361 C356 1.499 . S
C361 H362 0.959 . S
C361 H363 0.960 . S
C361 H364 0.961 . S
H362 C361 0.959 . S
H363 C361 0.960 . S
H364 C361 0.961 . S
O365 Co340 1.967 . S
O365 C373 1.258 . S
O366 Co341 1.941 . S
O366 C373 1.266 . S
H367 C369 0.959 . S
H368 C369 0.961 . S
C369 C359 1.510 . S
C369 H367 0.959 . S
C369 H368 0.961 . S
C369 H370 0.960 . S
H370 C369 0.960 . S
H371 N351 0.862 . S
O372 Co340 1.920 . S
O372 C345 1.289 . S
C373 O365 1.258 . S
C373 O366 1.266 . S
Co374 O377 1.970 . S
Co374 N391 1.989 . S
Co374 O399 1.967 . S
Co374 O406 1.920 . S
Co375 O378 1.966 . S
Co375 N384 2.022 . S
Co375 N392 1.993 . S
Co375 O400 1.941 . S
C376 O377 1.258 . S
C376 O378 1.263 . S
O377 Co374 1.970 . S
O377 C376 1.258 . S
O378 Co375 1.966 . S
O378 C376 1.263 . S
C379 O380 1.235 . S
C379 O406 1.289 . S
O380 C379 1.235 . S
C381 C383 1.400 . S
C381 N384 1.351 . S
C381 C386 1.501 . S
C382 C383 1.387 . S
C382 N385 1.341 . S
C383 C381 1.400 . S
C383 C382 1.387 . S
N384 Co375 2.022 . S
N384 C381 1.351 . S
N384 N385 1.365 . S
N385 C382 1.341 . S
N385 N384 1.365 . S
N385 H405 0.862 . S
C386 C381 1.501 . S
C386 H387 0.961 . S
C386 H388 0.961 . S
C386 H389 0.960 . S
H387 C386 0.961 . S
H388 C386 0.961 . S
H389 C386 0.960 . S
C390 N391 1.342 . S
C390 C394 1.401 . S
C390 C395 1.499 . S
N391 Co374 1.989 . S
N391 C390 1.342 . S
N391 N392 1.388 . S
N392 Co375 1.993 . S
N392 N391 1.388 . S
N392 C393 1.346 . S
C393 N392 1.346 . S
C393 C394 1.396 . S
C393 C403 1.510 . S
C394 C390 1.401 . S
C394 C393 1.396 . S
C395 C390 1.499 . S
C395 H396 0.959 . S
C395 H397 0.960 . S
C395 H398 0.961 . S
H396 C395 0.959 . S
H397 C395 0.960 . S
H398 C395 0.961 . S
O399 Co374 1.967 . S
O399 C407 1.258 . S
O400 Co375 1.941 . S
O400 C407 1.266 . S
H401 C403 0.959 . S
H402 C403 0.961 . S
C403 C393 1.510 . S
C403 H401 0.959 . S
C403 H402 0.961 . S
C403 H404 0.960 . S
H404 C403 0.960 . S
H405 N385 0.862 . S
O406 Co374 1.920 . S
O406 C379 1.289 . S
C407 O399 1.258 . S
C407 O400 1.266 . S
H408 C416 0.929 . S
H409 C418 0.930 . S
H410 C420 0.930 . S
H411 C423 0.929 . S
H412 C426 0.930 . S
H413 C428 0.960 . S
H414 C428 0.960 . S
H415 C428 0.960 . S
C416 H408 0.929 . S
C416 C417 1.377 . S
C416 C418 1.384 . S
C417 C416 1.377 . S
C417 C423 1.390 . S
C418 H409 0.930 . S
C418 C416 1.384 . S
C418 C419 1.372 . S
C419 C418 1.372 . S
C419 C420 1.400 . S
C419 C424 1.490 . S
C420 H410 0.930 . S
C420 C419 1.400 . S
C420 C423 1.386 . S
H421 C437 0.930 . S
H422 C438 0.931 . S
C423 H411 0.929 . S
C423 C417 1.390 . S
C423 C420 1.386 . S
C424 C419 1.490 . S
C424 C426 1.395 . S
C424 C427 1.403 . S
H425 C431 0.930 . S
C426 H412 0.930 . S
C426 C424 1.395 . S
C426 C429 1.403 . S
C427 C424 1.403 . S
C427 C428 1.524 . S
C427 C431 1.400 . S
C428 H413 0.960 . S
C428 H414 0.960 . S
C428 H415 0.960 . S
C428 C427 1.524 . S
C429 C426 1.403 . S
C429 C430 1.392 . S
C429 C433 1.495 . S
C430 C429 1.392 . S
C430 C431 1.385 . S
C430 C432 1.478 . S
C431 H425 0.930 . S
C431 C427 1.400 . S
C431 C430 1.385 . S
C432 C430 1.478 . S
C432 C434 1.381 . S
C432 C438 1.383 . S
C433 C429 1.495 . S
C433 H439 0.959 . S
C433 H440 0.961 . S
C433 H441 0.960 . S
C434 C432 1.381 . S
C434 C435 1.394 . S
C434 H442 0.930 . S
C435 C434 1.394 . S
C435 C436 1.383 . S
C435 H443 0.929 . S
C436 C435 1.383 . S
C436 C437 1.377 . S
C437 H421 0.930 . S
C437 C436 1.377 . S
C437 C438 1.379 . S
C438 H422 0.931 . S
C438 C432 1.383 . S
C438 C437 1.379 . S
H439 C433 0.959 . S
H440 C433 0.961 . S
H441 C433 0.960 . S
H442 C434 0.930 . S
H443 C435 0.929 . S
H444 C452 0.929 . S
H445 C454 0.930 . S
H446 C456 0.930 . S
H447 C459 0.929 . S
H448 C462 0.930 . S
H449 C464 0.960 . S
H450 C464 0.960 . S
H451 C464 0.960 . S
C452 H444 0.929 . S
C452 C453 1.377 . S
C452 C454 1.384 . S
C453 C452 1.377 . S
C453 C459 1.390 . S
C454 H445 0.930 . S
C454 C452 1.384 . S
C454 C455 1.372 . S
C455 C454 1.372 . S
C455 C456 1.400 . S
C455 C460 1.490 . S
C456 H446 0.930 . S
C456 C455 1.400 . S
C456 C459 1.386 . S
H457 C473 0.930 . S
H458 C474 0.931 . S
C459 H447 0.929 . S
C459 C453 1.390 . S
C459 C456 1.386 . S
C460 C455 1.490 . S
C460 C462 1.395 . S
C460 C463 1.403 . S
H461 C467 0.930 . S
C462 H448 0.930 . S
C462 C460 1.395 . S
C462 C465 1.403 . S
C463 C460 1.403 . S
C463 C464 1.524 . S
C463 C467 1.400 . S
C464 H449 0.960 . S
C464 H450 0.960 . S
C464 H451 0.960 . S
C464 C463 1.524 . S
C465 C462 1.403 . S
C465 C466 1.392 . S
C465 C469 1.495 . S
C466 C465 1.392 . S
C466 C467 1.385 . S
C466 C468 1.478 . S
C467 H461 0.930 . S
C467 C463 1.400 . S
C467 C466 1.385 . S
C468 C466 1.478 . S
C468 C470 1.381 . S
C468 C474 1.383 . S
C469 C465 1.495 . S
C469 H475 0.959 . S
C469 H476 0.961 . S
C469 H477 0.960 . S
C470 C468 1.381 . S
C470 C471 1.394 . S
C470 H478 0.930 . S
C471 C470 1.394 . S
C471 C472 1.383 . S
C471 H479 0.929 . S
C472 C471 1.383 . S
C472 C473 1.377 . S
C473 H457 0.930 . S
C473 C472 1.377 . S
C473 C474 1.379 . S
C474 H458 0.931 . S
C474 C468 1.383 . S
C474 C473 1.379 . S
H475 C469 0.959 . S
H476 C469 0.961 . S
H477 C469 0.960 . S
H478 C470 0.930 . S
H479 C471 0.929 . S
H480 C488 0.929 . S
H481 C490 0.930 . S
H482 C492 0.930 . S
H483 C495 0.929 . S
H484 C498 0.930 . S
H485 C500 0.960 . S
H486 C500 0.960 . S
H487 C500 0.960 . S
C488 H480 0.929 . S
C488 C489 1.377 . S
C488 C490 1.384 . S
C489 C488 1.377 . S
C489 C495 1.390 . S
C490 H481 0.930 . S
C490 C488 1.384 . S
C490 C491 1.372 . S
C491 C490 1.372 . S
C491 C492 1.400 . S
C491 C496 1.490 . S
C492 H482 0.930 . S
C492 C491 1.400 . S
C492 C495 1.386 . S
H493 C509 0.930 . S
H494 C510 0.931 . S
C495 H483 0.929 . S
C495 C489 1.390 . S
C495 C492 1.386 . S
C496 C491 1.490 . S
C496 C498 1.395 . S
C496 C499 1.403 . S
H497 C503 0.930 . S
C498 H484 0.930 . S
C498 C496 1.395 . S
C498 C501 1.403 . S
C499 C496 1.403 . S
C499 C500 1.524 . S
C499 C503 1.400 . S
C500 H485 0.960 . S
C500 H486 0.960 . S
C500 H487 0.960 . S
C500 C499 1.524 . S
C501 C498 1.403 . S
C501 C502 1.392 . S
C501 C505 1.495 . S
C502 C501 1.392 . S
C502 C503 1.385 . S
C502 C504 1.478 . S
C503 H497 0.930 . S
C503 C499 1.400 . S
C503 C502 1.385 . S
C504 C502 1.478 . S
C504 C506 1.381 . S
C504 C510 1.383 . S
C505 C501 1.495 . S
C505 H511 0.959 . S
C505 H512 0.961 . S
C505 H513 0.960 . S
C506 C504 1.381 . S
C506 C507 1.394 . S
C506 H514 0.930 . S
C507 C506 1.394 . S
C507 C508 1.383 . S
C507 H515 0.929 . S
C508 C507 1.383 . S
C508 C509 1.377 . S
C509 H493 0.930 . S
C509 C508 1.377 . S
C509 C510 1.379 . S
C510 H494 0.931 . S
C510 C504 1.383 . S
C510 C509 1.379 . S
H511 C505 0.959 . S
H512 C505 0.961 . S
H513 C505 0.960 . S
H514 C506 0.930 . S
H515 C507 0.929 . S
H516 C524 0.929 . S
H517 C526 0.930 . S
H518 C528 0.930 . S
H519 C531 0.929 . S
H520 C534 0.930 . S
H521 C536 0.960 . S
H522 C536 0.960 . S
H523 C536 0.960 . S
C524 H516 0.929 . S
C524 C525 1.377 . S
C524 C526 1.384 . S
C525 C524 1.377 . S
C525 C531 1.390 . S
C526 H517 0.930 . S
C526 C524 1.384 . S
C526 C527 1.372 . S
C527 C526 1.372 . S
C527 C528 1.400 . S
C527 C532 1.490 . S
C528 H518 0.930 . S
C528 C527 1.400 . S
C528 C531 1.386 . S
H529 C545 0.930 . S
H530 C546 0.931 . S
C531 H519 0.929 . S
C531 C525 1.390 . S
C531 C528 1.386 . S
C532 C527 1.490 . S
C532 C534 1.395 . S
C532 C535 1.403 . S
H533 C539 0.930 . S
C534 H520 0.930 . S
C534 C532 1.395 . S
C534 C537 1.403 . S
C535 C532 1.403 . S
C535 C536 1.524 . S
C535 C539 1.400 . S
C536 H521 0.960 . S
C536 H522 0.960 . S
C536 H523 0.960 . S
C536 C535 1.524 . S
C537 C534 1.403 . S
C537 C538 1.392 . S
C537 C541 1.495 . S
C538 C537 1.392 . S
C538 C539 1.385 . S
C538 C540 1.478 . S
C539 H533 0.930 . S
C539 C535 1.400 . S
C539 C538 1.385 . S
C540 C538 1.478 . S
C540 C542 1.381 . S
C540 C546 1.383 . S
C541 C537 1.495 . S
C541 H547 0.959 . S
C541 H548 0.961 . S
C541 H549 0.960 . S
C542 C540 1.381 . S
C542 C543 1.394 . S
C542 H550 0.930 . S
C543 C542 1.394 . S
C543 C544 1.383 . S
C543 H551 0.929 . S
C544 C543 1.383 . S
C544 C545 1.377 . S
C545 H529 0.930 . S
C545 C544 1.377 . S
C545 C546 1.379 . S
C546 H530 0.931 . S
C546 C540 1.383 . S
C546 C545 1.379 . S
H547 C541 0.959 . S
H548 C541 0.961 . S
H549 C541 0.960 . S
H550 C542 0.930 . S
H551 C543 0.929 . S
H552 C560 0.929 . S
H553 C562 0.930 . S
H554 C564 0.930 . S
H555 C567 0.929 . S
H556 C570 0.930 . S
H557 C572 0.960 . S
H558 C572 0.960 . S
H559 C572 0.960 . S
C560 H552 0.929 . S
C560 C561 1.377 . S
C560 C562 1.384 . S
C561 C560 1.377 . S
C561 C567 1.390 . S
C562 H553 0.930 . S
C562 C560 1.384 . S
C562 C563 1.372 . S
C563 C562 1.372 . S
C563 C564 1.400 . S
C563 C568 1.490 . S
C564 H554 0.930 . S
C564 C563 1.400 . S
C564 C567 1.386 . S
H565 C581 0.930 . S
H566 C582 0.931 1_556 S
C567 H555 0.929 . S
C567 C561 1.390 . S
C567 C564 1.386 . S
C568 C563 1.490 . S
C568 C570 1.395 . S
C568 C571 1.403 . S
H569 C575 0.930 . S
C570 H556 0.930 . S
C570 C568 1.395 . S
C570 C573 1.403 . S
C571 C568 1.403 . S
C571 C572 1.524 . S
C571 C575 1.400 . S
C572 H557 0.960 . S
C572 H558 0.960 . S
C572 H559 0.960 . S
C572 C571 1.524 . S
C573 C570 1.403 . S
C573 C574 1.392 . S
C573 C577 1.495 . S
C574 C573 1.392 . S
C574 C575 1.385 . S
C574 C576 1.478 . S
C575 H569 0.930 . S
C575 C571 1.400 . S
C575 C574 1.385 . S
C576 C574 1.478 . S
C576 C578 1.381 1_556 S
C576 C582 1.383 1_556 S
C577 C573 1.495 . S
C577 H583 0.959 . S
C577 H584 0.961 . S
C577 H585 0.960 . S
C578 C576 1.381 1_554 S
C578 C579 1.394 . S
C578 H586 0.930 1_554 S
C579 C578 1.394 . S
C579 C580 1.383 . S
C579 H587 0.929 . S
C580 C579 1.383 . S
C580 C581 1.377 . S
C581 H565 0.930 . S
C581 C580 1.377 . S
C581 C582 1.379 . S
C582 H566 0.931 1_554 S
C582 C576 1.383 1_554 S
C582 C581 1.379 . S
H583 C577 0.959 . S
H584 C577 0.961 . S
H585 C577 0.960 . S
H586 C578 0.930 1_556 S
H587 C579 0.929 . S
H588 C596 0.929 . S
H589 C598 0.930 . S
H590 C600 0.930 . S
H591 C603 0.929 . S
H592 C606 0.930 . S
H593 C608 0.960 . S
H594 C608 0.960 . S
H595 C608 0.960 . S
C596 H588 0.929 . S
C596 C597 1.377 . S
C596 C598 1.384 . S
C597 C596 1.377 . S
C597 C603 1.390 . S
C598 H589 0.930 . S
C598 C596 1.384 . S
C598 C599 1.372 1_556 S
C599 C598 1.372 1_554 S
C599 C600 1.400 . S
C599 C604 1.490 . S
C600 H590 0.930 . S
C600 C599 1.400 . S
C600 C603 1.386 1_554 S
H601 C617 0.930 . S
H602 C618 0.931 . S
C603 H591 0.929 . S
C603 C597 1.390 . S
C603 C600 1.386 1_556 S
C604 C599 1.490 . S
C604 C606 1.395 . S
C604 C607 1.403 . S
H605 C611 0.930 . S
C606 H592 0.930 . S
C606 C604 1.395 . S
C606 C609 1.403 . S
C607 C604 1.403 . S
C607 C608 1.524 . S
C607 C611 1.400 . S
C608 H593 0.960 . S
C608 H594 0.960 . S
C608 H595 0.960 . S
C608 C607 1.524 . S
C609 C606 1.403 . S
C609 C610 1.392 . S
C609 C613 1.495 . S
C610 C609 1.392 . S
C610 C611 1.385 . S
C610 C612 1.478 . S
C611 H605 0.930 . S
C611 C607 1.400 . S
C611 C610 1.385 . S
C612 C610 1.478 . S
C612 C614 1.381 . S
C612 C618 1.383 . S
C613 C609 1.495 . S
C613 H619 0.959 . S
C613 H620 0.961 . S
C613 H621 0.960 . S
C614 C612 1.381 . S
C614 C615 1.394 . S
C614 H622 0.930 . S
C615 C614 1.394 . S
C615 C616 1.383 . S
C615 H623 0.929 . S
C616 C615 1.383 . S
C616 C617 1.377 . S
C617 H601 0.930 . S
C617 C616 1.377 . S
C617 C618 1.379 . S
C618 H602 0.931 . S
C618 C612 1.383 . S
C618 C617 1.379 . S
H619 C613 0.959 . S
H620 C613 0.961 . S
H621 C613 0.960 . S
H622 C614 0.930 . S
H623 C615 0.929 . S
H624 C632 0.929 . S
H625 C634 0.930 . S
H626 C636 0.930 . S
H627 C639 0.929 . S
H628 C642 0.930 . S
H629 C644 0.960 . S
H630 C644 0.960 . S
H631 C644 0.960 . S
C632 H624 0.929 . S
C632 C633 1.377 . S
C632 C634 1.384 . S
C633 C632 1.377 . S
C633 C639 1.390 . S
C634 H625 0.930 . S
C634 C632 1.384 . S
C634 C635 1.372 . S
C635 C634 1.372 . S
C635 C636 1.400 . S
C635 C640 1.490 . S
C636 H626 0.930 . S
C636 C635 1.400 . S
C636 C639 1.386 . S
H637 C653 0.930 . S
H638 C654 0.931 . S
C639 H627 0.929 . S
C639 C633 1.390 . S
C639 C636 1.386 . S
C640 C635 1.490 . S
C640 C642 1.395 . S
C640 C643 1.403 . S
H641 C647 0.930 . S
C642 H628 0.930 . S
C642 C640 1.395 . S
C642 C645 1.403 . S
C643 C640 1.403 . S
C643 C644 1.524 . S
C643 C647 1.400 . S
C644 H629 0.960 . S
C644 H630 0.960 . S
C644 H631 0.960 . S
C644 C643 1.524 . S
C645 C642 1.403 . S
C645 C646 1.392 . S
C645 C649 1.495 . S
C646 C645 1.392 . S
C646 C647 1.385 . S
C646 C648 1.478 . S
C647 H641 0.930 . S
C647 C643 1.400 . S
C647 C646 1.385 . S
C648 C646 1.478 . S
C648 C650 1.381 . S
C648 C654 1.383 . S
C649 C645 1.495 . S
C649 H655 0.959 . S
C649 H656 0.961 . S
C649 H657 0.960 . S
C650 C648 1.381 . S
C650 C651 1.394 . S
C650 H658 0.930 . S
C651 C650 1.394 . S
C651 C652 1.383 . S
C651 H659 0.929 . S
C652 C651 1.383 . S
C652 C653 1.377 . S
C653 H637 0.930 . S
C653 C652 1.377 . S
C653 C654 1.379 . S
C654 H638 0.931 . S
C654 C648 1.383 . S
C654 C653 1.379 . S
H655 C649 0.959 . S
H656 C649 0.961 . S
H657 C649 0.960 . S
H658 C650 0.930 . S
H659 C651 0.929 . S
H660 C668 0.929 . S
H661 C670 0.930 . S
H662 C672 0.930 . S
H663 C675 0.929 . S
H664 C678 0.930 . S
H665 C680 0.960 . S
H666 C680 0.960 . S
H667 C680 0.960 . S
C668 H660 0.929 . S
C668 C669 1.377 . S
C668 C670 1.384 . S
C669 C668 1.377 . S
C669 C675 1.390 . S
C670 H661 0.930 . S
C670 C668 1.384 . S
C670 C671 1.372 . S
C671 C670 1.372 . S
C671 C672 1.400 . S
C671 C676 1.490 . S
C672 H662 0.930 . S
C672 C671 1.400 . S
C672 C675 1.386 . S
H673 C689 0.930 . S
H674 C690 0.931 . S
C675 H663 0.929 . S
C675 C669 1.390 . S
C675 C672 1.386 . S
C676 C671 1.490 . S
C676 C678 1.395 1_556 S
C676 C679 1.403 . S
H677 C683 0.930 . S
C678 H664 0.930 . S
C678 C676 1.395 1_554 S
C678 C681 1.403 . S
C679 C676 1.403 . S
C679 C680 1.524 . S
C679 C683 1.400 . S
C680 H665 0.960 . S
C680 H666 0.960 . S
C680 H667 0.960 . S
C680 C679 1.524 . S
C681 C678 1.403 . S
C681 C682 1.392 1_554 S
C681 C685 1.495 . S
C682 C681 1.392 1_556 S
C682 C683 1.385 . S
C682 C684 1.478 1_556 S
C683 H677 0.930 . S
C683 C679 1.400 . S
C683 C682 1.385 . S
C684 C682 1.478 1_554 S
C684 C686 1.381 1_554 S
C684 C690 1.383 . S
C685 C681 1.495 . S
C685 H691 0.959 . S
C685 H692 0.961 . S
C685 H693 0.960 . S
C686 C684 1.381 1_556 S
C686 C687 1.391 1_456 S
C686 H694 0.930 . S
C687 C686 1.391 1_654 S
C687 C688 1.394 . S
C687 H695 0.922 1_554 S
C688 C687 1.394 . S
C688 C689 1.377 . S
C689 H673 0.930 . S
C689 C688 1.377 . S
C689 C690 1.379 1_655 S
C690 H674 0.931 . S
C690 C684 1.383 . S
C690 C689 1.379 1_455 S
H691 C685 0.959 . S
H692 C685 0.961 . S
H693 C685 0.960 . S
H694 C686 0.930 . S
H695 C687 0.922 1_556 S
H696 C704 0.929 . S
H697 C706 0.930 . S
H698 C708 0.930 . S
H699 C711 0.929 . S
H700 C714 0.930 . S
H701 C716 0.960 . S
H702 C716 0.960 . S
H703 C716 0.960 . S
C704 H696 0.929 . S
C704 C705 1.377 . S
C704 C706 1.384 . S
C705 C704 1.377 . S
C705 C711 1.390 . S
C706 H697 0.930 . S
C706 C704 1.384 . S
C706 C707 1.372 . S
C707 C706 1.372 . S
C707 C708 1.400 . S
C707 C712 1.490 . S
C708 H698 0.930 . S
C708 C707 1.400 . S
C708 C711 1.386 . S
H709 C725 0.930 . S
H710 C726 0.931 . S
C711 H699 0.929 . S
C711 C705 1.390 . S
C711 C708 1.386 . S
C712 C707 1.490 . S
C712 C714 1.395 . S
C712 C715 1.403 . S
H713 C719 0.930 . S
C714 H700 0.930 . S
C714 C712 1.395 . S
C714 C717 1.403 . S
C715 C712 1.403 . S
C715 C716 1.524 . S
C715 C719 1.400 . S
C716 H701 0.960 . S
C716 H702 0.960 . S
C716 H703 0.960 . S
C716 C715 1.524 . S
C717 C714 1.403 . S
C717 C718 1.392 . S
C717 C721 1.495 . S
C718 C717 1.392 . S
C718 C719 1.385 . S
C718 C720 1.478 . S
C719 H713 0.930 . S
C719 C715 1.400 . S
C719 C718 1.385 . S
C720 C718 1.478 . S
C720 C722 1.381 . S
C720 C726 1.383 . S
C721 C717 1.495 . S
C721 H727 0.959 . S
C721 H728 0.961 . S
C721 H729 0.960 . S
C722 C720 1.381 . S
C722 C723 1.394 1_545 S
C722 H730 0.930 . S
C723 C722 1.394 1_565 S
C723 C724 1.383 . S
C723 H731 0.929 . S
C724 C723 1.383 . S
C724 C725 1.377 . S
C725 H709 0.930 . S
C725 C724 1.377 . S
C725 C726 1.379 1_565 S
C726 H710 0.931 . S
C726 C720 1.383 . S
C726 C725 1.379 1_545 S
H727 C721 0.959 . S
H728 C721 0.961 . S
H729 C721 0.960 . S
H730 C722 0.930 . S
H731 C723 0.929 . S
H732 C740 0.929 . S
H733 C742 0.930 . S
H734 C744 0.930 . S
H735 C747 0.929 . S
H736 C750 0.930 . S
H737 C752 0.960 . S
H738 C752 0.960 . S
H739 C752 0.960 . S
C740 H732 0.929 . S
C740 C741 1.377 . S
C740 C742 1.384 . S
C741 C740 1.377 . S
C741 C747 1.390 . S
C742 H733 0.930 . S
C742 C740 1.384 . S
C742 C743 1.372 . S
C743 C742 1.372 . S
C743 C744 1.400 . S
C743 C748 1.490 . S
C744 H734 0.930 . S
C744 C743 1.400 . S
C744 C747 1.386 . S
H745 C761 0.930 . S
H746 C762 0.931 . S
C747 H735 0.929 . S
C747 C741 1.390 . S
C747 C744 1.386 . S
C748 C743 1.490 . S
C748 C750 1.395 . S
C748 C751 1.403 . S
H749 C755 0.930 . S
C750 H736 0.930 . S
C750 C748 1.395 . S
C750 C753 1.403 . S
C751 C748 1.403 . S
C751 C752 1.524 . S
C751 C755 1.400 . S
C752 H737 0.960 . S
C752 H738 0.960 . S
C752 H739 0.960 . S
C752 C751 1.524 . S
C753 C750 1.403 . S
C753 C754 1.392 . S
C753 C757 1.495 . S
C754 C753 1.392 . S
C754 C755 1.385 . S
C754 C756 1.478 . S
C755 H749 0.930 . S
C755 C751 1.400 . S
C755 C754 1.385 . S
C756 C754 1.478 . S
C756 C758 1.381 . S
C756 C762 1.383 . S
C757 C753 1.495 . S
C757 H763 0.959 . S
C757 H764 0.961 . S
C757 H765 0.960 . S
C758 C756 1.381 . S
C758 C759 1.394 . S
C758 H766 0.930 . S
C759 C758 1.394 . S
C759 C760 1.383 . S
C759 H767 0.929 . S
C760 C759 1.383 . S
C760 C761 1.377 . S
C761 H745 0.930 . S
C761 C760 1.377 . S
C761 C762 1.379 . S
C762 H746 0.931 . S
C762 C756 1.383 . S
C762 C761 1.379 . S
H763 C757 0.959 . S
H764 C757 0.961 . S
H765 C757 0.960 . S
H766 C758 0.930 . S
H767 C759 0.929 . S
H768 C776 0.929 . S
H769 C778 0.927 1_655 S
H770 C780 0.930 . S
H771 C783 0.929 . S
H772 C786 0.930 . S
H773 C788 0.960 . S
H774 C788 0.960 . S
H775 C788 0.960 . S
C776 H768 0.929 . S
C776 C777 1.377 . S
C776 C778 1.395 . S
C777 C776 1.377 . S
C777 C783 1.390 . S
C778 H769 0.927 1_455 S
C778 C776 1.395 . S
C778 C779 1.364 1_455 S
C779 C778 1.364 1_655 S
C779 C780 1.400 . S
C779 C784 1.490 . S
C780 H770 0.930 . S
C780 C779 1.400 . S
C780 C783 1.386 1_655 S
H781 C797 0.930 . S
H782 C798 0.931 . S
C783 H771 0.929 . S
C783 C777 1.390 . S
C783 C780 1.386 1_455 S
C784 C779 1.490 . S
C784 C786 1.395 . S
C784 C787 1.403 . S
H785 C791 0.930 . S
C786 H772 0.930 . S
C786 C784 1.395 . S
C786 C789 1.403 . S
C787 C784 1.403 . S
C787 C788 1.524 . S
C787 C791 1.400 . S
C788 H773 0.960 . S
C788 H774 0.960 . S
C788 H775 0.960 . S
C788 C787 1.524 . S
C789 C786 1.403 . S
C789 C790 1.392 . S
C789 C793 1.495 . S
C790 C789 1.392 . S
C790 C791 1.385 . S
C790 C792 1.478 . S
C791 H785 0.930 . S
C791 C787 1.400 . S
C791 C790 1.385 . S
C792 C790 1.478 . S
C792 C794 1.381 . S
C792 C798 1.383 . S
C793 C789 1.495 . S
C793 H799 0.959 . S
C793 H800 0.961 . S
C793 H801 0.960 . S
C794 C792 1.381 . S
C794 C795 1.394 . S
C794 H802 0.930 . S
C795 C794 1.394 . S
C795 C796 1.383 . S
C795 H803 0.929 . S
C796 C795 1.383 . S
C796 C797 1.377 . S
C797 H781 0.930 . S
C797 C796 1.377 . S
C797 C798 1.379 . S
C798 H782 0.931 . S
C798 C792 1.383 . S
C798 C797 1.379 . S
H799 C793 0.959 . S
H800 C793 0.961 . S
H801 C793 0.960 . S
H802 C794 0.930 . S
H803 C795 0.929 . S
H804 C812 0.929 . S
H805 C814 0.905 1_565 S
H806 C816 0.930 . S
H807 C819 0.929 . S
H808 C822 0.930 . S
H809 C824 0.960 . S
H810 C824 0.960 . S
H811 C824 0.960 . S
C812 H804 0.929 . S
C812 C813 1.377 . S
C812 C814 1.418 . S
C813 C812 1.377 . S
C813 C819 1.390 . S
C814 H805 0.905 1_545 S
C814 C812 1.418 . S
C814 C815 1.363 1_545 S
C815 C814 1.363 1_565 S
C815 C816 1.400 . S
C815 C820 1.490 . S
C816 H806 0.930 . S
C816 C815 1.400 . S
C816 C819 1.386 1_565 S
H817 C833 0.930 . S
H818 C834 0.931 . S
C819 H807 0.929 . S
C819 C813 1.390 . S
C819 C816 1.386 1_545 S
C820 C815 1.490 . S
C820 C822 1.395 . S
C820 C823 1.403 . S
H821 C827 0.930 . S
C822 H808 0.930 . S
C822 C820 1.395 . S
C822 C825 1.403 . S
C823 C820 1.403 . S
C823 C824 1.524 . S
C823 C827 1.400 . S
C824 H809 0.960 . S
C824 H810 0.960 . S
C824 H811 0.960 . S
C824 C823 1.524 . S
C825 C822 1.403 . S
C825 C826 1.392 . S
C825 C829 1.495 . S
C826 C825 1.392 . S
C826 C827 1.385 . S
C826 C828 1.478 . S
C827 H821 0.930 . S
C827 C823 1.400 . S
C827 C826 1.385 . S
C828 C826 1.478 . S
C828 C830 1.381 . S
C828 C834 1.383 . S
C829 C825 1.495 . S
C829 H835 0.959 . S
C829 H836 0.961 . S
C829 H837 0.960 . S
C830 C828 1.381 . S
C830 C831 1.394 . S
C830 H838 0.930 . S
C831 C830 1.394 . S
C831 C832 1.383 . S
C831 H839 0.929 . S
C832 C831 1.383 . S
C832 C833 1.377 . S
C833 H817 0.930 . S
C833 C832 1.377 . S
C833 C834 1.379 . S
C834 H818 0.931 . S
C834 C828 1.383 . S
C834 C833 1.379 . S
H835 C829 0.959 . S
H836 C829 0.961 . S
H837 C829 0.960 . S
H838 C830 0.930 . S
H839 C831 0.929 . S
H840 C848 0.929 . S
H841 C850 0.930 . S
H842 C852 0.930 . S
H843 C855 0.929 . S
H844 C858 0.930 . S
H845 C860 0.960 . S
H846 C860 0.960 . S
H847 C860 0.960 . S
C848 H840 0.929 . S
C848 C849 1.377 . S
C848 C850 1.384 . S
C849 C848 1.377 . S
C849 C855 1.390 . S
C850 H841 0.930 . S
C850 C848 1.384 . S
C850 C851 1.372 . S
C851 C850 1.372 . S
C851 C852 1.400 . S
C851 C856 1.490 . S
C852 H842 0.930 . S
C852 C851 1.400 . S
C852 C855 1.386 . S
H853 C869 0.930 . S
H854 C870 0.931 . S
C855 H843 0.929 . S
C855 C849 1.390 . S
C855 C852 1.386 . S
C856 C851 1.490 . S
C856 C858 1.395 . S
C856 C859 1.403 1_554 S
H857 C863 0.930 . S
C858 H844 0.930 . S
C858 C856 1.395 . S
C858 C861 1.403 . S
C859 C856 1.403 1_556 S
C859 C860 1.524 . S
C859 C863 1.400 . S
C860 H845 0.960 . S
C860 H846 0.960 . S
C860 H847 0.960 . S
C860 C859 1.524 . S
C861 C858 1.403 . S
C861 C862 1.392 . S
C861 C865 1.495 . S
C862 C861 1.392 . S
C862 C863 1.385 1_554 S
C862 C864 1.478 . S
C863 H857 0.930 . S
C863 C859 1.400 . S
C863 C862 1.385 1_556 S
C864 C862 1.478 . S
C864 C866 1.381 . S
C864 C870 1.383 1_554 S
C865 C861 1.495 . S
C865 H871 0.959 . S
C865 H872 0.961 . S
C865 H873 0.960 . S
C866 C864 1.381 . S
C866 C867 1.394 1_554 S
C866 H874 0.930 . S
C867 C866 1.394 1_556 S
C867 C868 1.383 . S
C867 H875 0.929 . S
C868 C867 1.383 . S
C868 C869 1.377 . S
C869 H853 0.930 . S
C869 C868 1.377 . S
C869 C870 1.379 . S
C870 H854 0.931 . S
C870 C864 1.383 1_556 S
C870 C869 1.379 . S
H871 C865 0.959 . S
H872 C865 0.961 . S
H873 C865 0.960 . S
H874 C866 0.930 . S
H875 C867 0.929 . S
H876 C884 0.929 . S
H877 C886 0.930 . S
H878 C888 0.930 . S
H879 C891 0.929 . S
H880 C894 0.930 . S
H881 C896 0.960 . S
H882 C896 0.960 . S
H883 C896 0.960 . S
C884 H876 0.929 . S
C884 C885 1.377 . S
C884 C886 1.384 1_655 S
C885 C884 1.377 . S
C885 C891 1.390 . S
C886 H877 0.930 . S
C886 C884 1.384 1_455 S
C886 C887 1.372 . S
C887 C886 1.372 . S
C887 C888 1.400 . S
C887 C892 1.490 . S
C888 H878 0.930 . S
C888 C887 1.400 . S
C888 C891 1.386 1_455 S
H889 C905 0.930 . S
H890 C906 0.931 . S
C891 H879 0.929 . S
C891 C885 1.390 . S
C891 C888 1.386 1_655 S
C892 C887 1.490 . S
C892 C894 1.395 . S
C892 C895 1.403 . S
H893 C899 0.930 . S
C894 H880 0.930 . S
C894 C892 1.395 . S
C894 C897 1.403 . S
C895 C892 1.403 . S
C895 C896 1.524 . S
C895 C899 1.400 . S
C896 H881 0.960 . S
C896 H882 0.960 . S
C896 H883 0.960 . S
C896 C895 1.524 . S
C897 C894 1.403 . S
C897 C898 1.392 . S
C897 C901 1.495 . S
C898 C897 1.392 . S
C898 C899 1.385 . S
C898 C900 1.478 . S
C899 H893 0.930 . S
C899 C895 1.400 . S
C899 C898 1.385 . S
C900 C898 1.478 . S
C900 C902 1.381 . S
C900 C906 1.383 . S
C901 C897 1.495 . S
C901 H907 0.959 . S
C901 H908 0.961 . S
C901 H909 0.960 . S
C902 C900 1.381 . S
C902 C903 1.394 . S
C902 H910 0.930 . S
C903 C902 1.394 . S
C903 C904 1.383 . S
C903 H911 0.929 . S
C904 C903 1.383 . S
C904 C905 1.377 . S
C905 H889 0.930 . S
C905 C904 1.377 . S
C905 C906 1.379 . S
C906 H890 0.931 . S
C906 C900 1.383 . S
C906 C905 1.379 . S
H907 C901 0.959 . S
H908 C901 0.961 . S
H909 C901 0.960 . S
H910 C902 0.930 . S
H911 C903 0.929 . S
H912 C920 0.929 . S
H913 C922 0.930 . S
H914 C924 0.930 1_545 S
H915 C927 0.929 . S
H916 C930 0.930 . S
H917 C932 0.960 . S
H918 C932 0.960 . S
H919 C932 0.960 . S
C920 H912 0.929 . S
C920 C921 1.377 . S
C920 C922 1.384 1_565 S
C921 C920 1.377 . S
C921 C927 1.390 . S
C922 H913 0.930 . S
C922 C920 1.384 1_545 S
C922 C923 1.372 . S
C923 C922 1.372 . S
C923 C924 1.400 1_545 S
C923 C928 1.490 . S
C924 H914 0.930 1_565 S
C924 C923 1.400 1_565 S
C924 C927 1.386 . S
H925 C941 0.930 . S
H926 C942 0.931 . S
C927 H915 0.929 . S
C927 C921 1.390 . S
C927 C924 1.386 . S
C928 C923 1.490 . S
C928 C930 1.395 . S
C928 C931 1.403 . S
H929 C935 0.930 . S
C930 H916 0.930 . S
C930 C928 1.395 . S
C930 C933 1.403 . S
C931 C928 1.403 . S
C931 C932 1.524 . S
C931 C935 1.400 . S
C932 H917 0.960 . S
C932 H918 0.960 . S
C932 H919 0.960 . S
C932 C931 1.524 . S
C933 C930 1.403 . S
C933 C934 1.392 . S
C933 C937 1.495 . S
C934 C933 1.392 . S
C934 C935 1.385 . S
C934 C936 1.478 . S
C935 H929 0.930 . S
C935 C931 1.400 . S
C935 C934 1.385 . S
C936 C934 1.478 . S
C936 C938 1.381 . S
C936 C942 1.383 . S
C937 C933 1.495 . S
C937 H943 0.959 . S
C937 H944 0.961 . S
C937 H945 0.960 . S
C938 C936 1.381 . S
C938 C939 1.394 . S
C938 H946 0.930 . S
C939 C938 1.394 . S
C939 C940 1.383 . S
C939 H947 0.929 . S
C940 C939 1.383 . S
C940 C941 1.377 . S
C941 H925 0.930 . S
C941 C940 1.377 . S
C941 C942 1.379 . S
C942 H926 0.931 . S
C942 C936 1.383 . S
C942 C941 1.379 . S
H943 C937 0.959 . S
H944 C937 0.961 . S
H945 C937 0.960 . S
H946 C938 0.930 . S
H947 C939 0.929 . S
H948 C956 0.929 . S
H949 C958 0.930 . S
H950 C960 0.930 . S
H951 C963 0.929 . S
H952 C966 0.930 . S
H953 C968 0.960 . S
H954 C968 0.960 . S
H955 C968 0.960 . S
C956 H948 0.929 . S
C956 C957 1.377 . S
C956 C958 1.384 . S
C957 C956 1.377 . S
C957 C963 1.390 . S
C958 H949 0.930 . S
C958 C956 1.384 . S
C958 C959 1.372 . S
C959 C958 1.372 . S
C959 C960 1.400 . S
C959 C964 1.490 . S
C960 H950 0.930 . S
C960 C959 1.400 . S
C960 C963 1.386 . S
H961 C977 0.930 . S
H962 C978 0.931 . S
C963 H951 0.929 . S
C963 C957 1.390 . S
C963 C960 1.386 . S
C964 C959 1.490 . S
C964 C966 1.395 . S
C964 C967 1.403 . S
H965 C971 0.930 . S
C966 H952 0.930 . S
C966 C964 1.395 . S
C966 C969 1.403 . S
C967 C964 1.403 . S
C967 C968 1.524 . S
C967 C971 1.400 . S
C968 H953 0.960 . S
C968 H954 0.960 . S
C968 H955 0.960 . S
C968 C967 1.524 . S
C969 C966 1.403 . S
C969 C970 1.392 . S
C969 C973 1.495 . S
C970 C969 1.392 . S
C970 C971 1.385 . S
C970 C972 1.478 . S
C971 H965 0.930 . S
C971 C967 1.400 . S
C971 C970 1.385 . S
C972 C970 1.478 . S
C972 C974 1.381 . S
C972 C978 1.383 . S
C973 C969 1.495 . S
C973 H979 0.959 . S
C973 H980 0.961 . S
C973 H981 0.960 . S
C974 C972 1.381 . S
C974 C975 1.394 . S
C974 H982 0.930 . S
C975 C974 1.394 . S
C975 C976 1.383 . S
C975 H983 0.929 . S
C976 C975 1.383 . S
C976 C977 1.377 . S
C977 H961 0.930 . S
C977 C976 1.377 . S
C977 C978 1.379 . S
C978 H962 0.931 . S
C978 C972 1.383 . S
C978 C977 1.379 . S
H979 C973 0.959 . S
H980 C973 0.961 . S
H981 C973 0.960 . S
H982 C974 0.930 . S
H983 C975 0.929 . S
H984 C992 0.929 . S
H985 C994 0.930 . S
H986 C996 0.930 . S
H987 C999 0.929 . S
H988 C1002 0.930 . S
H989 C1004 0.960 . S
H990 C1004 0.960 . S
H991 C1004 0.960 . S
C992 H984 0.929 . S
C992 C993 1.377 . S
C992 C994 1.384 1_455 S
C993 C992 1.377 . S
C993 C999 1.390 . S
C994 H985 0.930 . S
C994 C992 1.384 1_655 S
C994 C995 1.372 . S
C995 C994 1.372 . S
C995 C996 1.400 . S
C995 C1000 1.490 . S
C996 H986 0.930 . S
C996 C995 1.400 . S
C996 C999 1.386 1_655 S
H997 C1013 0.930 . S
H998 C1014 0.931 . S
C999 H987 0.929 . S
C999 C993 1.390 . S
C999 C996 1.386 1_455 S
C1000 C995 1.490 . S
C1000 C1002 1.395 . S
C1000 C1003 1.403 . S
H1001 C1007 0.930 . S
C1002 H988 0.930 . S
C1002 C1000 1.395 . S
C1002 C1005 1.403 . S
C1003 C1000 1.403 . S
C1003 C1004 1.524 . S
C1003 C1007 1.400 . S
C1004 H989 0.960 . S
C1004 H990 0.960 . S
C1004 H991 0.960 . S
C1004 C1003 1.524 . S
C1005 C1002 1.403 . S
C1005 C1006 1.392 . S
C1005 C1009 1.495 . S
C1006 C1005 1.392 . S
C1006 C1007 1.385 . S
C1006 C1008 1.478 . S
C1007 H1001 0.930 . S
C1007 C1003 1.400 . S
C1007 C1006 1.385 . S
C1008 C1006 1.478 . S
C1008 C1010 1.381 . S
C1008 C1014 1.383 . S
C1009 C1005 1.495 . S
C1009 H1015 0.959 . S
C1009 H1016 0.961 . S
C1009 H1017 0.960 . S
C1010 C1008 1.381 . S
C1010 C1011 1.394 . S
C1010 H1018 0.930 . S
C1011 C1010 1.394 . S
C1011 C1012 1.383 . S
C1011 H1019 0.929 . S
C1012 C1011 1.383 . S
C1012 C1013 1.377 . S
C1013 H997 0.930 . S
C1013 C1012 1.377 . S
C1013 C1014 1.379 . S
C1014 H998 0.931 . S
C1014 C1008 1.383 . S
C1014 C1013 1.379 . S
H1015 C1009 0.959 . S
H1016 C1009 0.961 . S
H1017 C1009 0.960 . S
H1018 C1010 0.930 . S
H1019 C1011 0.929 . S
H1020 C1028 0.929 . S
H1021 C1030 0.930 . S
H1022 C1032 0.930 . S
H1023 C1035 0.929 . S
H1024 C1038 0.930 . S
H1025 C1040 0.960 . S
H1026 C1040 0.960 . S
H1027 C1040 0.960 . S
C1028 H1020 0.929 . S
C1028 C1029 1.377 . S
C1028 C1030 1.384 1_545 S
C1029 C1028 1.377 . S
C1029 C1035 1.390 . S
C1030 H1021 0.930 . S
C1030 C1028 1.384 1_565 S
C1030 C1031 1.372 . S
C1031 C1030 1.372 . S
C1031 C1032 1.400 . S
C1031 C1036 1.490 . S
C1032 H1022 0.930 . S
C1032 C1031 1.400 . S
C1032 C1035 1.386 1_565 S
H1033 C1049 0.930 . S
H1034 C1050 0.931 . S
C1035 H1023 0.929 . S
C1035 C1029 1.390 . S
C1035 C1032 1.386 1_545 S
C1036 C1031 1.490 . S
C1036 C1038 1.395 . S
C1036 C1039 1.403 . S
H1037 C1043 0.930 . S
C1038 H1024 0.930 . S
C1038 C1036 1.395 . S
C1038 C1041 1.403 . S
C1039 C1036 1.403 . S
C1039 C1040 1.524 . S
C1039 C1043 1.400 . S
C1040 H1025 0.960 . S
C1040 H1026 0.960 . S
C1040 H1027 0.960 . S
C1040 C1039 1.524 . S
C1041 C1038 1.403 . S
C1041 C1042 1.392 . S
C1041 C1045 1.495 . S
C1042 C1041 1.392 . S
C1042 C1043 1.385 . S
C1042 C1044 1.478 . S
C1043 H1037 0.930 . S
C1043 C1039 1.400 . S
C1043 C1042 1.385 . S
C1044 C1042 1.478 . S
C1044 C1046 1.381 . S
C1044 C1050 1.383 . S
C1045 C1041 1.495 . S
C1045 H1051 0.959 . S
C1045 H1052 0.961 . S
C1045 H1053 0.960 . S
C1046 C1044 1.381 . S
C1046 C1047 1.394 . S
C1046 H1054 0.930 . S
C1047 C1046 1.394 . S
C1047 C1048 1.383 . S
C1047 H1055 0.929 . S
C1048 C1047 1.383 . S
C1048 C1049 1.377 . S
C1049 H1033 0.930 . S
C1049 C1048 1.377 . S
C1049 C1050 1.379 . S
C1050 H1034 0.931 . S
C1050 C1044 1.383 . S
C1050 C1049 1.379 . S
H1051 C1045 0.959 . S
H1052 C1045 0.961 . S
H1053 C1045 0.960 . S
H1054 C1046 0.930 . S
H1055 C1047 0.929 . S
H1056 C1064 0.929 . S
H1057 C1066 0.930 . S
H1058 C1068 0.930 . S
H1059 C1071 0.929 . S
H1060 C1074 0.930 . S
H1061 C1076 0.960 . S
H1062 C1076 0.960 . S
H1063 C1076 0.960 . S
C1064 H1056 0.929 . S
C1064 C1065 1.377 . S
C1064 C1066 1.384 . S
C1065 C1064 1.377 . S
C1065 C1071 1.390 . S
C1066 H1057 0.930 . S
C1066 C1064 1.384 . S
C1066 C1067 1.372 . S
C1067 C1066 1.372 . S
C1067 C1068 1.400 . S
C1067 C1072 1.490 . S
C1068 H1058 0.930 . S
C1068 C1067 1.400 . S
C1068 C1071 1.386 . S
H1069 C1085 0.930 . S
H1070 C1086 0.931 . S
C1071 H1059 0.929 . S
C1071 C1065 1.390 . S
C1071 C1068 1.386 . S
C1072 C1067 1.490 . S
C1072 C1074 1.395 . S
C1072 C1075 1.403 . S
H1073 C1079 0.930 . S
C1074 H1060 0.930 . S
C1074 C1072 1.395 . S
C1074 C1077 1.403 . S
C1075 C1072 1.403 . S
C1075 C1076 1.524 . S
C1075 C1079 1.400 . S
C1076 H1061 0.960 . S
C1076 H1062 0.960 . S
C1076 H1063 0.960 . S
C1076 C1075 1.524 . S
C1077 C1074 1.403 . S
C1077 C1078 1.392 . S
C1077 C1081 1.495 . S
C1078 C1077 1.392 . S
C1078 C1079 1.385 . S
C1078 C1080 1.478 . S
C1079 H1073 0.930 . S
C1079 C1075 1.400 . S
C1079 C1078 1.385 . S
C1080 C1078 1.478 . S
C1080 C1082 1.381 . S
C1080 C1086 1.383 . S
C1081 C1077 1.495 . S
C1081 H1087 0.959 . S
C1081 H1088 0.961 . S
C1081 H1089 0.960 . S
C1082 C1080 1.381 . S
C1082 C1083 1.394 . S
C1082 H1090 0.930 . S
C1083 C1082 1.394 . S
C1083 C1084 1.383 . S
C1083 H1091 0.929 . S
C1084 C1083 1.383 . S
C1084 C1085 1.377 . S
C1085 H1069 0.930 . S
C1085 C1084 1.377 . S
C1085 C1086 1.379 . S
C1086 H1070 0.931 . S
C1086 C1080 1.383 . S
C1086 C1085 1.379 . S
H1087 C1081 0.959 . S
H1088 C1081 0.961 . S
H1089 C1081 0.960 . S
H1090 C1082 0.930 . S
H1091 C1083 0.929 . S
H1092 C1100 0.929 . S
H1093 C1102 0.930 . S
H1094 C1104 0.930 . S
H1095 C1107 0.929 . S
H1096 C1110 0.930 . S
H1097 C1112 0.960 . S
H1098 C1112 0.960 . S
H1099 C1112 0.960 1_655 S
C1100 H1092 0.929 . S
C1100 C1101 1.377 . S
C1100 C1102 1.384 . S
C1101 C1100 1.377 . S
C1101 C1107 1.390 . S
C1102 H1093 0.930 . S
C1102 C1100 1.384 . S
C1102 C1103 1.372 . S
C1103 C1102 1.372 . S
C1103 C1104 1.400 . S
C1103 C1108 1.490 . S
C1104 H1094 0.930 . S
C1104 C1103 1.400 . S
C1104 C1107 1.386 . S
H1105 C1121 0.930 . S
H1106 C1122 0.931 . S
C1107 H1095 0.929 . S
C1107 C1101 1.390 . S
C1107 C1104 1.386 . S
C1108 C1103 1.490 . S
C1108 C1110 1.395 . S
C1108 C1111 1.403 1_655 S
H1109 C1115 0.930 . S
C1110 H1096 0.930 . S
C1110 C1108 1.395 . S
C1110 C1113 1.403 . S
C1111 C1108 1.403 1_455 S
C1111 C1112 1.524 . S
C1111 C1115 1.400 . S
C1112 H1097 0.960 . S
C1112 H1098 0.960 . S
C1112 H1099 0.960 1_455 S
C1112 C1111 1.524 . S
C1113 C1110 1.403 . S
C1113 C1114 1.392 1_655 S
C1113 C1117 1.495 . S
C1114 C1113 1.392 1_455 S
C1114 C1115 1.385 . S
C1114 C1116 1.478 . S
C1115 H1109 0.930 . S
C1115 C1111 1.400 . S
C1115 C1114 1.385 . S
C1116 C1114 1.478 . S
C1116 C1118 1.381 . S
C1116 C1122 1.383 . S
C1117 C1113 1.495 . S
C1117 H1123 0.959 . S
C1117 H1124 0.961 . S
C1117 H1125 0.960 1_655 S
C1118 C1116 1.381 . S
C1118 C1119 1.394 . S
C1118 H1126 0.930 . S
C1119 C1118 1.394 . S
C1119 C1120 1.383 . S
C1119 H1127 0.929 . S
C1120 C1119 1.383 . S
C1120 C1121 1.377 . S
C1121 H1105 0.930 . S
C1121 C1120 1.377 . S
C1121 C1122 1.379 . S
C1122 H1106 0.931 . S
C1122 C1116 1.383 . S
C1122 C1121 1.379 . S
H1123 C1117 0.959 . S
H1124 C1117 0.961 . S
H1125 C1117 0.960 1_455 S
H1126 C1118 0.930 . S
H1127 C1119 0.929 . S
H1128 C1136 0.929 . S
H1129 C1138 0.930 . S
H1130 C1140 0.930 . S
H1131 C1143 0.929 . S
H1132 C1146 0.930 . S
H1133 C1148 0.960 . S
H1134 C1148 0.960 . S
H1135 C1148 0.960 . S
C1136 H1128 0.929 . S
C1136 C1137 1.377 . S
C1136 C1138 1.384 . S
C1137 C1136 1.377 . S
C1137 C1143 1.390 . S
C1138 H1129 0.930 . S
C1138 C1136 1.384 . S
C1138 C1139 1.372 . S
C1139 C1138 1.372 . S
C1139 C1140 1.400 . S
C1139 C1144 1.490 . S
C1140 H1130 0.930 . S
C1140 C1139 1.400 . S
C1140 C1143 1.386 . S
H1141 C1157 0.930 . S
H1142 C1158 0.931 . S
C1143 H1131 0.929 . S
C1143 C1137 1.390 . S
C1143 C1140 1.386 . S
C1144 C1139 1.490 . S
C1144 C1146 1.395 1_565 S
C1144 C1147 1.403 . S
H1145 C1151 0.930 . S
C1146 H1132 0.930 . S
C1146 C1144 1.395 1_545 S
C1146 C1149 1.403 . S
C1147 C1144 1.403 . S
C1147 C1148 1.524 . S
C1147 C1151 1.400 . S
C1148 H1133 0.960 . S
C1148 H1134 0.960 . S
C1148 H1135 0.960 . S
C1148 C1147 1.524 . S
C1149 C1146 1.403 . S
C1149 C1150 1.392 . S
C1149 C1153 1.495 . S
C1150 C1149 1.392 . S
C1150 C1151 1.385 1_545 S
C1150 C1152 1.478 . S
C1151 H1145 0.930 . S
C1151 C1147 1.400 . S
C1151 C1150 1.385 1_565 S
C1152 C1150 1.478 . S
C1152 C1154 1.381 . S
C1152 C1158 1.383 . S
C1153 C1149 1.495 . S
C1153 H1159 0.959 . S
C1153 H1160 0.961 . S
C1153 H1161 0.960 . S
C1154 C1152 1.381 . S
C1154 C1155 1.394 . S
C1154 H1162 0.930 . S
C1155 C1154 1.394 . S
C1155 C1156 1.383 . S
C1155 H1163 0.929 . S
C1156 C1155 1.383 . S
C1156 C1157 1.377 . S
C1157 H1141 0.930 . S
C1157 C1156 1.377 . S
C1157 C1158 1.379 . S
C1158 H1142 0.931 . S
C1158 C1152 1.383 . S
C1158 C1157 1.379 . S
H1159 C1153 0.959 . S
H1160 C1153 0.961 . S
H1161 C1153 0.960 . S
H1162 C1154 0.930 . S
H1163 C1155 0.929 . S
H1164 C1172 0.929 . S
H1165 C1174 0.930 . S
H1166 C1176 0.930 . S
H1167 C1179 0.929 . S
H1168 C1182 0.930 . S
H1169 C1184 0.960 . S
H1170 C1184 0.960 . S
H1171 C1184 0.960 . S
C1172 H1164 0.929 . S
C1172 C1173 1.377 . S
C1172 C1174 1.384 . S
C1173 C1172 1.377 . S
C1173 C1179 1.390 . S
C1174 H1165 0.930 . S
C1174 C1172 1.384 . S
C1174 C1175 1.372 . S
C1175 C1174 1.372 . S
C1175 C1176 1.400 . S
C1175 C1180 1.490 . S
C1176 H1166 0.930 . S
C1176 C1175 1.400 . S
C1176 C1179 1.386 . S
H1177 C1193 0.930 . S
H1178 C1194 0.931 . S
C1179 H1167 0.929 . S
C1179 C1173 1.390 . S
C1179 C1176 1.386 . S
C1180 C1175 1.490 . S
C1180 C1182 1.395 . S
C1180 C1183 1.403 . S
H1181 C1187 0.930 . S
C1182 H1168 0.930 . S
C1182 C1180 1.395 . S
C1182 C1185 1.403 . S
C1183 C1180 1.403 . S
C1183 C1184 1.524 . S
C1183 C1187 1.400 . S
C1184 H1169 0.960 . S
C1184 H1170 0.960 . S
C1184 H1171 0.960 . S
C1184 C1183 1.524 . S
C1185 C1182 1.403 . S
C1185 C1186 1.392 . S
C1185 C1189 1.495 . S
C1186 C1185 1.392 . S
C1186 C1187 1.385 . S
C1186 C1188 1.478 . S
C1187 H1181 0.930 . S
C1187 C1183 1.400 . S
C1187 C1186 1.385 . S
C1188 C1186 1.478 . S
C1188 C1190 1.381 . S
C1188 C1194 1.383 . S
C1189 C1185 1.495 . S
C1189 H1195 0.959 . S
C1189 H1196 0.961 . S
C1189 H1197 0.960 . S
C1190 C1188 1.381 . S
C1190 C1191 1.394 . S
C1190 H1198 0.930 . S
C1191 C1190 1.394 . S
C1191 C1192 1.383 . S
C1191 H1199 0.929 . S
C1192 C1191 1.383 . S
C1192 C1193 1.377 . S
C1193 H1177 0.930 . S
C1193 C1192 1.377 . S
C1193 C1194 1.379 . S
C1194 H1178 0.931 . S
C1194 C1188 1.383 . S
C1194 C1193 1.379 . S
H1195 C1189 0.959 . S
H1196 C1189 0.961 . S
H1197 C1189 0.960 . S
H1198 C1190 0.930 . S
H1199 C1191 0.929 . S
H1200 C1208 0.929 . S
H1201 C1210 0.930 . S
H1202 C1212 0.930 . S
H1203 C1215 0.929 . S
H1204 C1218 0.930 . S
H1205 C1220 0.960 . S
H1206 C1220 0.960 . S
H1207 C1220 0.960 . S
C1208 H1200 0.929 . S
C1208 C1209 1.377 . S
C1208 C1210 1.384 . S
C1209 C1208 1.377 . S
C1209 C1215 1.390 . S
C1210 H1201 0.930 . S
C1210 C1208 1.384 . S
C1210 C1211 1.372 . S
C1211 C1210 1.372 . S
C1211 C1212 1.400 . S
C1211 C1216 1.490 . S
C1212 H1202 0.930 . S
C1212 C1211 1.400 . S
C1212 C1215 1.386 . S
H1213 C1229 0.930 . S
H1214 C1230 0.931 . S
C1215 H1203 0.929 . S
C1215 C1209 1.390 . S
C1215 C1212 1.386 . S
C1216 C1211 1.490 . S
C1216 C1218 1.395 1_455 S
C1216 C1219 1.403 . S
H1217 C1223 0.930 . S
C1218 H1204 0.930 . S
C1218 C1216 1.395 1_655 S
C1218 C1221 1.403 . S
C1219 C1216 1.403 . S
C1219 C1220 1.524 . S
C1219 C1223 1.400 . S
C1220 H1205 0.960 . S
C1220 H1206 0.960 . S
C1220 H1207 0.960 . S
C1220 C1219 1.524 . S
C1221 C1218 1.403 . S
C1221 C1222 1.392 . S
C1221 C1225 1.495 . S
C1222 C1221 1.392 . S
C1222 C1223 1.385 1_655 S
C1222 C1224 1.478 . S
C1223 H1217 0.930 . S
C1223 C1219 1.400 . S
C1223 C1222 1.385 1_455 S
C1224 C1222 1.478 . S
C1224 C1226 1.381 . S
C1224 C1230 1.383 . S
C1225 C1221 1.495 . S
C1225 H1231 0.959 . S
C1225 H1232 0.961 . S
C1225 H1233 0.960 . S
C1226 C1224 1.381 . S
C1226 C1227 1.394 . S
C1226 H1234 0.930 . S
C1227 C1226 1.394 . S
C1227 C1228 1.383 . S
C1227 H1235 0.929 . S
C1228 C1227 1.383 . S
C1228 C1229 1.377 . S
C1229 H1213 0.930 . S
C1229 C1228 1.377 . S
C1229 C1230 1.379 . S
C1230 H1214 0.931 . S
C1230 C1224 1.383 . S
C1230 C1229 1.379 . S
H1231 C1225 0.959 . S
H1232 C1225 0.961 . S
H1233 C1225 0.960 . S
H1234 C1226 0.930 . S
H1235 C1227 0.929 . S
H1236 C1244 0.929 . S
H1237 C1246 0.930 . S
H1238 C1248 0.930 . S
H1239 C1251 0.929 . S
H1240 C1254 0.930 1_554 S
H1241 C1256 0.960 . S
H1242 C1256 0.960 . S
H1243 C1256 0.960 . S
C1244 H1236 0.929 . S
C1244 C1245 1.377 . S
C1244 C1246 1.384 . S
C1245 C1244 1.377 . S
C1245 C1251 1.390 . S
C1246 H1237 0.930 . S
C1246 C1244 1.384 . S
C1246 C1247 1.372 . S
C1247 C1246 1.372 . S
C1247 C1248 1.400 . S
C1247 C1252 1.490 . S
C1248 H1238 0.930 . S
C1248 C1247 1.400 . S
C1248 C1251 1.386 . S
H1249 C1265 0.930 . S
H1250 C1266 0.931 . S
C1251 H1239 0.929 . S
C1251 C1245 1.390 . S
C1251 C1248 1.386 . S
C1252 C1247 1.490 . S
C1252 C1254 1.391 1_554 S
C1252 C1255 1.403 1_565 S
H1253 C1259 0.930 . S
C1254 H1240 0.930 1_556 S
C1254 C1252 1.391 1_556 S
C1254 C1257 1.407 . S
C1255 C1252 1.403 1_545 S
C1255 C1256 1.524 . S
C1255 C1259 1.400 1_554 S
C1256 H1241 0.960 . S
C1256 H1242 0.960 . S
C1256 H1243 0.960 . S
C1256 C1255 1.524 . S
C1257 C1254 1.407 . S
C1257 C1258 1.392 1_565 S
C1257 C1261 1.495 . S
C1258 C1257 1.392 1_545 S
C1258 C1259 1.385 . S
C1258 C1260 1.478 . S
C1259 H1253 0.930 . S
C1259 C1255 1.400 1_556 S
C1259 C1258 1.385 . S
C1260 C1258 1.478 . S
C1260 C1262 1.381 . S
C1260 C1266 1.383 . S
C1261 C1257 1.495 . S
C1261 H1267 0.959 . S
C1261 H1268 0.961 . S
C1261 H1269 0.960 . S
C1262 C1260 1.381 . S
C1262 C1263 1.394 . S
C1262 H1270 0.930 . S
C1263 C1262 1.394 . S
C1263 C1264 1.383 . S
C1263 H1271 0.929 . S
C1264 C1263 1.383 . S
C1264 C1265 1.377 . S
C1265 H1249 0.930 . S
C1265 C1264 1.377 . S
C1265 C1266 1.379 . S
C1266 H1250 0.931 . S
C1266 C1260 1.383 . S
C1266 C1265 1.379 . S
H1267 C1261 0.959 . S
H1268 C1261 0.961 . S
H1269 C1261 0.960 . S
H1270 C1262 0.930 . S
H1271 C1263 0.929 . S
H1272 C1280 0.929 . S
H1273 C1282 0.930 . S
H1274 C1284 0.930 . S
H1275 C1287 0.929 . S
H1276 C1290 0.930 . S
H1277 C1292 0.960 . S
H1278 C1292 0.960 . S
H1279 C1292 0.960 . S
C1280 H1272 0.929 . S
C1280 C1281 1.377 . S
C1280 C1282 1.384 . S
C1281 C1280 1.377 . S
C1281 C1287 1.390 . S
C1282 H1273 0.930 . S
C1282 C1280 1.384 . S
C1282 C1283 1.372 . S
C1283 C1282 1.372 . S
C1283 C1284 1.400 . S
C1283 C1288 1.490 . S
C1284 H1274 0.930 . S
C1284 C1283 1.400 . S
C1284 C1287 1.386 . S
H1285 C1301 0.930 . S
H1286 C1302 0.931 . S
C1287 H1275 0.929 . S
C1287 C1281 1.390 . S
C1287 C1284 1.386 . S
C1288 C1283 1.490 . S
C1288 C1290 1.395 . S
C1288 C1291 1.403 . S
H1289 C1295 0.930 . S
C1290 H1276 0.930 . S
C1290 C1288 1.395 . S
C1290 C1293 1.403 . S
C1291 C1288 1.403 . S
C1291 C1292 1.524 . S
C1291 C1295 1.400 . S
C1292 H1277 0.960 . S
C1292 H1278 0.960 . S
C1292 H1279 0.960 . S
C1292 C1291 1.524 . S
C1293 C1290 1.403 . S
C1293 C1294 1.392 . S
C1293 C1297 1.495 . S
C1294 C1293 1.392 . S
C1294 C1295 1.385 . S
C1294 C1296 1.478 . S
C1295 H1289 0.930 . S
C1295 C1291 1.400 . S
C1295 C1294 1.385 . S
C1296 C1294 1.478 . S
C1296 C1298 1.381 . S
C1296 C1302 1.383 . S
C1297 C1293 1.495 . S
C1297 H1303 0.959 . S
C1297 H1304 0.961 . S
C1297 H1305 0.960 1_556 S
C1298 C1296 1.381 . S
C1298 C1299 1.394 . S
C1298 H1306 0.930 1_556 S
C1299 C1298 1.394 . S
C1299 C1300 1.383 . S
C1299 H1307 0.929 1_556 S
C1300 C1299 1.383 . S
C1300 C1301 1.377 . S
C1301 H1285 0.930 . S
C1301 C1300 1.377 . S
C1301 C1302 1.379 . S
C1302 H1286 0.931 . S
C1302 C1296 1.383 . S
C1302 C1301 1.379 . S
H1303 C1297 0.959 . S
H1304 C1297 0.961 . S
H1305 C1297 0.960 1_554 S
H1306 C1298 0.930 1_554 S
H1307 C1299 0.929 1_554 S
H1308 C1316 0.929 . S
H1309 C1318 0.930 . S
H1310 C1320 0.930 . S
H1311 C1323 0.929 . S
H1312 C1326 0.930 . S
H1313 C1328 0.960 . S
H1314 C1328 0.960 . S
H1315 C1328 0.960 . S
C1316 H1308 0.929 . S
C1316 C1317 1.377 . S
C1316 C1318 1.384 . S
C1317 C1316 1.377 . S
C1317 C1323 1.390 . S
C1318 H1309 0.930 . S
C1318 C1316 1.384 . S
C1318 C1319 1.372 . S
C1319 C1318 1.372 . S
C1319 C1320 1.400 . S
C1319 C1324 1.490 . S
C1320 H1310 0.930 . S
C1320 C1319 1.400 . S
C1320 C1323 1.386 . S
H1321 C1337 0.930 . S
H1322 C1338 0.931 . S
C1323 H1311 0.929 . S
C1323 C1317 1.390 . S
C1323 C1320 1.386 . S
C1324 C1319 1.490 . S
C1324 C1326 1.395 . S
C1324 C1327 1.403 . S
H1325 C1331 0.930 . S
C1326 H1312 0.930 . S
C1326 C1324 1.395 . S
C1326 C1329 1.403 . S
C1327 C1324 1.403 . S
C1327 C1328 1.524 . S
C1327 C1331 1.400 . S
C1328 H1313 0.960 . S
C1328 H1314 0.960 . S
C1328 H1315 0.960 . S
C1328 C1327 1.524 . S
C1329 C1326 1.403 . S
C1329 C1330 1.392 . S
C1329 C1333 1.495 1_554 S
C1330 C1329 1.392 . S
C1330 C1331 1.385 . S
C1330 C1332 1.478 . S
C1331 H1325 0.930 . S
C1331 C1327 1.400 . S
C1331 C1330 1.385 . S
C1332 C1330 1.478 . S
C1332 C1334 1.381 . S
C1332 C1338 1.383 . S
C1333 C1329 1.495 1_556 S
C1333 H1339 0.959 . S
C1333 H1340 0.961 . S
C1333 H1341 0.960 . S
C1334 C1332 1.381 . S
C1334 C1335 1.394 . S
C1334 H1342 0.930 . S
C1335 C1334 1.394 . S
C1335 C1336 1.383 . S
C1335 H1343 0.929 . S
C1336 C1335 1.383 . S
C1336 C1337 1.377 . S
C1337 H1321 0.930 . S
C1337 C1336 1.377 . S
C1337 C1338 1.379 . S
C1338 H1322 0.931 . S
C1338 C1332 1.383 . S
C1338 C1337 1.379 . S
H1339 C1333 0.959 . S
H1340 C1333 0.961 . S
H1341 C1333 0.960 . S
H1342 C1334 0.930 . S
H1343 C1335 0.929 . S
H1344 C1352 0.929 . S
H1345 C1354 0.930 . S
H1346 C1356 0.930 . S
H1347 C1359 0.929 . S
H1348 C1362 0.930 . S
H1349 C1364 0.960 . S
H1350 C1364 0.960 . S
H1351 C1364 0.960 . S
C1352 H1344 0.929 . S
C1352 C1353 1.377 . S
C1352 C1354 1.384 . S
C1353 C1352 1.377 . S
C1353 C1359 1.390 . S
C1354 H1345 0.930 . S
C1354 C1352 1.384 . S
C1354 C1355 1.372 . S
C1355 C1354 1.372 . S
C1355 C1356 1.400 . S
C1355 C1360 1.490 . S
C1356 H1346 0.930 . S
C1356 C1355 1.400 . S
C1356 C1359 1.386 . S
H1357 C1373 0.930 . S
H1358 C1374 0.931 . S
C1359 H1347 0.929 . S
C1359 C1353 1.390 . S
C1359 C1356 1.386 . S
C1360 C1355 1.490 . S
C1360 C1362 1.395 . S
C1360 C1363 1.403 . S
H1361 C1367 0.930 . S
C1362 H1348 0.930 . S
C1362 C1360 1.395 . S
C1362 C1365 1.403 . S
C1363 C1360 1.403 . S
C1363 C1364 1.524 . S
C1363 C1367 1.400 . S
C1364 H1349 0.960 . S
C1364 H1350 0.960 . S
C1364 H1351 0.960 . S
C1364 C1363 1.524 . S
C1365 C1362 1.403 . S
C1365 C1366 1.392 . S
C1365 C1369 1.495 . S
C1366 C1365 1.392 . S
C1366 C1367 1.385 . S
C1366 C1368 1.478 . S
C1367 H1361 0.930 . S
C1367 C1363 1.400 . S
C1367 C1366 1.385 . S
C1368 C1366 1.478 . S
C1368 C1370 1.381 . S
C1368 C1374 1.383 . S
C1369 C1365 1.495 . S
C1369 H1375 0.959 . S
C1369 H1376 0.961 . S
C1369 H1377 0.960 . S
C1370 C1368 1.381 . S
C1370 C1371 1.394 . S
C1370 H1378 0.930 . S
C1371 C1370 1.394 . S
C1371 C1372 1.383 . S
C1371 H1379 0.929 . S
C1372 C1371 1.383 . S
C1372 C1373 1.377 . S
C1373 H1357 0.930 . S
C1373 C1372 1.377 . S
C1373 C1374 1.379 . S
C1374 H1358 0.931 . S
C1374 C1368 1.383 . S
C1374 C1373 1.379 . S
H1375 C1369 0.959 . S
H1376 C1369 0.961 . S
H1377 C1369 0.960 . S
H1378 C1370 0.930 . S
H1379 C1371 0.929 . S
H1380 C1388 0.929 . S
H1381 C1390 0.930 . S
H1382 C1392 0.930 . S
H1383 C1395 0.929 . S
H1384 C1398 0.930 . S
H1385 C1400 0.960 . S
H1386 C1400 0.960 . S
H1387 C1400 0.960 . S
C1388 H1380 0.929 . S
C1388 C1389 1.377 . S
C1388 C1390 1.384 . S
C1389 C1388 1.377 . S
C1389 C1395 1.390 . S
C1390 H1381 0.930 . S
C1390 C1388 1.384 . S
C1390 C1391 1.372 . S
C1391 C1390 1.372 . S
C1391 C1392 1.400 . S
C1391 C1396 1.490 . S
C1392 H1382 0.930 . S
C1392 C1391 1.400 . S
C1392 C1395 1.386 . S
H1393 C1409 0.930 . S
H1394 C1410 0.931 . S
C1395 H1383 0.929 . S
C1395 C1389 1.390 . S
C1395 C1392 1.386 . S
C1396 C1391 1.490 . S
C1396 C1398 1.395 . S
C1396 C1399 1.403 . S
H1397 C1403 0.930 . S
C1398 H1384 0.930 . S
C1398 C1396 1.395 . S
C1398 C1401 1.403 . S
C1399 C1396 1.403 . S
C1399 C1400 1.524 . S
C1399 C1403 1.400 . S
C1400 H1385 0.960 . S
C1400 H1386 0.960 . S
C1400 H1387 0.960 . S
C1400 C1399 1.524 . S
C1401 C1398 1.403 . S
C1401 C1402 1.392 . S
C1401 C1405 1.495 . S
C1402 C1401 1.392 . S
C1402 C1403 1.385 . S
C1402 C1404 1.478 . S
C1403 H1397 0.930 . S
C1403 C1399 1.400 . S
C1403 C1402 1.385 . S
C1404 C1402 1.478 . S
C1404 C1406 1.381 . S
C1404 C1410 1.383 . S
C1405 C1401 1.495 . S
C1405 H1411 0.959 . S
C1405 H1412 0.961 . S
C1405 H1413 0.960 . S
C1406 C1404 1.381 . S
C1406 C1407 1.394 . S
C1406 H1414 0.930 . S
C1407 C1406 1.394 . S
C1407 C1408 1.383 . S
C1407 H1415 0.929 . S
C1408 C1407 1.383 . S
C1408 C1409 1.377 . S
C1409 H1393 0.930 . S
C1409 C1408 1.377 . S
C1409 C1410 1.379 . S
C1410 H1394 0.931 . S
C1410 C1404 1.383 . S
C1410 C1409 1.379 . S
H1411 C1405 0.959 . S
H1412 C1405 0.961 . S
H1413 C1405 0.960 . S
H1414 C1406 0.930 . S
H1415 C1407 0.929 . S
H1416 C1424 0.929 . S
H1417 C1426 0.930 . S
H1418 C1428 0.930 . S
H1419 C1431 0.929 . S
H1420 C1434 0.930 . S
H1421 C1436 0.960 . S
H1422 C1436 0.960 . S
H1423 C1436 0.960 . S
C1424 H1416 0.929 . S
C1424 C1425 1.377 . S
C1424 C1426 1.384 . S
C1425 C1424 1.377 . S
C1425 C1431 1.390 . S
C1426 H1417 0.930 . S
C1426 C1424 1.384 . S
C1426 C1427 1.372 . S
C1427 C1426 1.372 . S
C1427 C1428 1.400 . S
C1427 C1432 1.490 . S
C1428 H1418 0.930 . S
C1428 C1427 1.400 . S
C1428 C1431 1.386 . S
H1429 C1445 0.930 . S
H1430 C1446 0.931 . S
C1431 H1419 0.929 . S
C1431 C1425 1.390 . S
C1431 C1428 1.386 . S
C1432 C1427 1.490 . S
C1432 C1434 1.395 . S
C1432 C1435 1.403 . S
H1433 C1439 0.930 . S
C1434 H1420 0.930 . S
C1434 C1432 1.395 . S
C1434 C1437 1.403 . S
C1435 C1432 1.403 . S
C1435 C1436 1.524 . S
C1435 C1439 1.400 . S
C1436 H1421 0.960 . S
C1436 H1422 0.960 . S
C1436 H1423 0.960 . S
C1436 C1435 1.524 . S
C1437 C1434 1.403 . S
C1437 C1438 1.392 . S
C1437 C1441 1.495 . S
C1438 C1437 1.392 . S
C1438 C1439 1.385 . S
C1438 C1440 1.478 . S
C1439 H1433 0.930 . S
C1439 C1435 1.400 . S
C1439 C1438 1.385 . S
C1440 C1438 1.478 . S
C1440 C1442 1.381 . S
C1440 C1446 1.383 . S
C1441 C1437 1.495 . S
C1441 H1447 0.959 . S
C1441 H1448 0.961 . S
C1441 H1449 0.960 . S
C1442 C1440 1.381 . S
C1442 C1443 1.394 . S
C1442 H1450 0.930 . S
C1443 C1442 1.394 . S
C1443 C1444 1.383 . S
C1443 H1451 0.929 . S
C1444 C1443 1.383 . S
C1444 C1445 1.377 . S
C1445 H1429 0.930 . S
C1445 C1444 1.377 . S
C1445 C1446 1.379 . S
C1446 H1430 0.931 . S
C1446 C1440 1.383 . S
C1446 C1445 1.379 . S
H1447 C1441 0.959 . S
H1448 C1441 0.961 . S
H1449 C1441 0.960 . S
H1450 C1442 0.930 . S
H1451 C1443 0.929 . S
H1452 C1460 0.929 . S
H1453 C1462 0.930 . S
H1454 C1464 0.930 . S
H1455 C1467 0.929 . S
H1456 C1470 0.930 . S
H1457 C1472 0.960 . S
H1458 C1472 0.960 . S
H1459 C1472 0.960 . S
C1460 H1452 0.929 . S
C1460 C1461 1.377 . S
C1460 C1462 1.384 . S
C1461 C1460 1.377 . S
C1461 C1467 1.390 . S
C1462 H1453 0.930 . S
C1462 C1460 1.384 . S
C1462 C1463 1.372 . S
C1463 C1462 1.372 . S
C1463 C1464 1.400 . S
C1463 C1468 1.490 . S
C1464 H1454 0.930 . S
C1464 C1463 1.400 . S
C1464 C1467 1.386 . S
H1465 C1481 0.930 . S
H1466 C1482 0.931 . S
C1467 H1455 0.929 . S
C1467 C1461 1.390 . S
C1467 C1464 1.386 . S
C1468 C1463 1.490 . S
C1468 C1470 1.395 . S
C1468 C1471 1.403 . S
H1469 C1475 0.930 . S
C1470 H1456 0.930 . S
C1470 C1468 1.395 . S
C1470 C1473 1.403 . S
C1471 C1468 1.403 . S
C1471 C1472 1.524 . S
C1471 C1475 1.400 . S
C1472 H1457 0.960 . S
C1472 H1458 0.960 . S
C1472 H1459 0.960 . S
C1472 C1471 1.524 . S
C1473 C1470 1.403 . S
C1473 C1474 1.392 . S
C1473 C1477 1.495 . S
C1474 C1473 1.392 . S
C1474 C1475 1.385 . S
C1474 C1476 1.478 . S
C1475 H1469 0.930 . S
C1475 C1471 1.400 . S
C1475 C1474 1.385 . S
C1476 C1474 1.478 . S
C1476 C1478 1.381 . S
C1476 C1482 1.383 . S
C1477 C1473 1.495 . S
C1477 H1483 0.959 . S
C1477 H1484 0.961 . S
C1477 H1485 0.960 . S
C1478 C1476 1.381 . S
C1478 C1479 1.394 . S
C1478 H1486 0.930 . S
C1479 C1478 1.394 . S
C1479 C1480 1.383 . S
C1479 H1487 0.929 . S
C1480 C1479 1.383 . S
C1480 C1481 1.377 . S
C1481 H1465 0.930 . S
C1481 C1480 1.377 . S
C1481 C1482 1.379 . S
C1482 H1466 0.931 . S
C1482 C1476 1.383 . S
C1482 C1481 1.379 . S
H1483 C1477 0.959 . S
H1484 C1477 0.961 . S
H1485 C1477 0.960 . S
H1486 C1478 0.930 . S
H1487 C1479 0.929 . S
C417 C349 0.189 . S
C436 C9 0.257 . S
C453 C43 0.293 . S
C472 C383 0.355 . S
C489 C77 0.297 . S
C508 C213 0.346 . S
C525 C111 0.205 . S
C544 C247 0.247 . S
C561 C145 0.301 . S
C580 C281 0.311 . S
C597 C179 0.268 . S
C616 C315 0.311 . S
C633 C5 1.709 . S
C652 C190 1.680 . S
C669 C20 1.746 . S
C688 C39 1.648 . S
C705 C54 1.798 . S
C724 C73 1.768 . S
C741 C107 1.728 . S
C760 C88 1.797 . S
C777 C141 1.923 . S
C796 C122 1.971 . S
C813 C175 1.811 . S
C832 C156 1.814 . S
C849 C258 1.738 . S
C868 C209 1.703 . S
C885 C243 1.699 . S
C904 C292 1.704 . S
C921 C277 1.801 . S
C940 C326 1.811 . S
C957 C311 1.920 . S
C976 C360 1.939 . S
C993 C345 1.733 . S
C1012 C394 1.750 . S
C1029 C379 1.769 . S
C1048 C224 1.787 . S
C1065 C2 0.987 . S
C1084 C308 0.979 . S
C1101 C36 1.387 . S
C1120 C342 1.399 . S
C1137 C70 1.272 . S
C1156 C376 1.256 . S
C1173 C104 1.389 . S
C1192 C206 1.393 . S
C1209 C138 0.983 . S
C1228 C240 0.965 . S
C1245 C274 1.154 . S
C1264 C172 1.168 . S
C1281 C237 1.013 . S
C1300 C33 1.008 . S
C1317 C67 1.005 . S
C1336 C271 0.987 . S
C1353 C101 1.059 . S
C1372 C305 1.031 . S
C1389 C339 1.153 . S
C1408 C135 1.144 . S
C1425 C169 1.143 . S
C1444 C373 1.117 . S
C1461 C407 1.058 . S
C1480 C203 1.029 . S
