# Generated by pormake.
# Topology unv, (4)-cn, num edge types: 1
# Building blocks:
#     Node 0, Type 0, BuildingBlock: ICAMEG_clean_sbu_1, # of connection points: 4
#     Node 1, Type 0, BuildingBlock: ICAMEG_clean_sbu_1, # of connection points: 4
#     Node 2, Type 0, BuildingBlock: ICAMEG_clean_sbu_1, # of connection points: 4
#     Node 3, Type 0, BuildingBlock: ICAMEG_clean_sbu_1, # of connection points: 4
#     Node 4, Type 0, BuildingBlock: ICAMEG_clean_sbu_1, # of connection points: 4
#     Node 5, Type 0, BuildingBlock: ICAMEG_clean_sbu_1, # of connection points: 4
#     Node 6, Type 0, BuildingBlock: ICAMEG_clean_sbu_1, # of connection points: 4
#     Node 7, Type 0, BuildingBlock: ICAMEG_clean_sbu_1, # of connection points: 4
#     Node 8, Type 0, BuildingBlock: ICAMEG_clean_sbu_1, # of connection points: 4
#     Node 9, Type 0, BuildingBlock: ICAMEG_clean_sbu_1, # of connection points: 4
#     Node 10, Type 0, BuildingBlock: ICAMEG_clean_sbu_1, # of connection points: 4
#     Node 11, Type 0, BuildingBlock: ICAMEG_clean_sbu_1, # of connection points: 4
#     Node 12, Type 0, BuildingBlock: ICAMEG_clean_sbu_1, # of connection points: 4
#     Node 13, Type 0, BuildingBlock: ICAMEG_clean_sbu_1, # of connection points: 4
#     Node 14, Type 0, BuildingBlock: ICAMEG_clean_sbu_1, # of connection points: 4
#     Node 15, Type 0, BuildingBlock: ICAMEG_clean_sbu_1, # of connection points: 4
#     Node 16, Type 0, BuildingBlock: ICAMEG_clean_sbu_1, # of connection points: 4
#     Node 17, Type 0, BuildingBlock: ICAMEG_clean_sbu_1, # of connection points: 4
#     Node 18, Type 0, BuildingBlock: ICAMEG_clean_sbu_1, # of connection points: 4
#     Node 19, Type 0, BuildingBlock: ICAMEG_clean_sbu_1, # of connection points: 4
#     Node 20, Type 0, BuildingBlock: ICAMEG_clean_sbu_1, # of connection points: 4
#     Node 21, Type 0, BuildingBlock: ICAMEG_clean_sbu_1, # of connection points: 4
#     Node 22, Type 0, BuildingBlock: ICAMEG_clean_sbu_1, # of connection points: 4
#     Node 23, Type 0, BuildingBlock: ICAMEG_clean_sbu_1, # of connection points: 4
#     Edge 24, Type (0, 0), BuildingBlock: CIFDUS_clean_linker_0, # of connection points: 2
#     Edge 25, Type (0, 0), BuildingBlock: CIFDUS_clean_linker_0, # of connection points: 2
#     Edge 26, Type (0, 0), BuildingBlock: CIFDUS_clean_linker_0, # of connection points: 2
#     Edge 27, Type (0, 0), BuildingBlock: CIFDUS_clean_linker_0, # of connection points: 2
#     Edge 28, Type (0, 0), BuildingBlock: CIFDUS_clean_linker_0, # of connection points: 2
#     Edge 29, Type (0, 0), BuildingBlock: CIFDUS_clean_linker_0, # of connection points: 2
#     Edge 30, Type (0, 0), BuildingBlock: CIFDUS_clean_linker_0, # of connection points: 2
#     Edge 31, Type (0, 0), BuildingBlock: CIFDUS_clean_linker_0, # of connection points: 2
#     Edge 32, Type (0, 0), BuildingBlock: CIFDUS_clean_linker_0, # of connection points: 2
#     Edge 33, Type (0, 0), BuildingBlock: CIFDUS_clean_linker_0, # of connection points: 2
#     Edge 34, Type (0, 0), BuildingBlock: CIFDUS_clean_linker_0, # of connection points: 2
#     Edge 35, Type (0, 0), BuildingBlock: CIFDUS_clean_linker_0, # of connection points: 2
#     Edge 36, Type (0, 0), BuildingBlock: CIFDUS_clean_linker_0, # of connection points: 2
#     Edge 37, Type (0, 0), BuildingBlock: CIFDUS_clean_linker_0, # of connection points: 2
#     Edge 38, Type (0, 0), BuildingBlock: CIFDUS_clean_linker_0, # of connection points: 2
#     Edge 39, Type (0, 0), BuildingBlock: CIFDUS_clean_linker_0, # of connection points: 2
#     Edge 40, Type (0, 0), BuildingBlock: CIFDUS_clean_linker_0, # of connection points: 2
#     Edge 41, Type (0, 0), BuildingBlock: CIFDUS_clean_linker_0, # of connection points: 2
#     Edge 42, Type (0, 0), BuildingBlock: CIFDUS_clean_linker_0, # of connection points: 2
#     Edge 43, Type (0, 0), BuildingBlock: CIFDUS_clean_linker_0, # of connection points: 2
#     Edge 44, Type (0, 0), BuildingBlock: CIFDUS_clean_linker_0, # of connection points: 2
#     Edge 45, Type (0, 0), BuildingBlock: CIFDUS_clean_linker_0, # of connection points: 2
#     Edge 46, Type (0, 0), BuildingBlock: CIFDUS_clean_linker_0, # of connection points: 2
#     Edge 47, Type (0, 0), BuildingBlock: CIFDUS_clean_linker_0, # of connection points: 2
#     Edge 48, Type (0, 0), BuildingBlock: CIFDUS_clean_linker_0, # of connection points: 2
#     Edge 49, Type (0, 0), BuildingBlock: CIFDUS_clean_linker_0, # of connection points: 2
#     Edge 50, Type (0, 0), BuildingBlock: CIFDUS_clean_linker_0, # of connection points: 2
#     Edge 51, Type (0, 0), BuildingBlock: CIFDUS_clean_linker_0, # of connection points: 2
#     Edge 52, Type (0, 0), BuildingBlock: CIFDUS_clean_linker_0, # of connection points: 2
#     Edge 53, Type (0, 0), BuildingBlock: CIFDUS_clean_linker_0, # of connection points: 2
#     Edge 54, Type (0, 0), BuildingBlock: CIFDUS_clean_linker_0, # of connection points: 2
#     Edge 55, Type (0, 0), BuildingBlock: CIFDUS_clean_linker_0, # of connection points: 2
#     Edge 56, Type (0, 0), BuildingBlock: CIFDUS_clean_linker_0, # of connection points: 2
#     Edge 57, Type (0, 0), BuildingBlock: CIFDUS_clean_linker_0, # of connection points: 2
#     Edge 58, Type (0, 0), BuildingBlock: CIFDUS_clean_linker_0, # of connection points: 2
#     Edge 59, Type (0, 0), BuildingBlock: CIFDUS_clean_linker_0, # of connection points: 2
#     Edge 60, Type (0, 0), BuildingBlock: CIFDUS_clean_linker_0, # of connection points: 2
#     Edge 61, Type (0, 0), BuildingBlock: CIFDUS_clean_linker_0, # of connection points: 2
#     Edge 62, Type (0, 0), BuildingBlock: CIFDUS_clean_linker_0, # of connection points: 2
#     Edge 63, Type (0, 0), BuildingBlock: CIFDUS_clean_linker_0, # of connection points: 2
#     Edge 64, Type (0, 0), BuildingBlock: CIFDUS_clean_linker_0, # of connection points: 2
#     Edge 65, Type (0, 0), BuildingBlock: CIFDUS_clean_linker_0, # of connection points: 2
#     Edge 66, Type (0, 0), BuildingBlock: CIFDUS_clean_linker_0, # of connection points: 2
#     Edge 67, Type (0, 0), BuildingBlock: CIFDUS_clean_linker_0, # of connection points: 2
#     Edge 68, Type (0, 0), BuildingBlock: CIFDUS_clean_linker_0, # of connection points: 2
#     Edge 69, Type (0, 0), BuildingBlock: CIFDUS_clean_linker_0, # of connection points: 2
#     Edge 70, Type (0, 0), BuildingBlock: CIFDUS_clean_linker_0, # of connection points: 2
#     Edge 71, Type (0, 0), BuildingBlock: CIFDUS_clean_linker_0, # of connection points: 2
# Relax obj value: 0.188
# Max RMSD: 0.147
# Mean RMSD: 0.125
data_MOF--net-unv--node1-ICAMEG_clean_sbu_1--edge1-CIFDUS_clean_linker_0
_symmetry_space_group_name_H-M    P1
_symmetry_Int_Tables_number       1
_symmetry_cell_setting            triclinic
loop_
_symmetry_equiv_pos_as_xyz
'x, y, z'
_cell_length_a     46.538765
_cell_length_b     46.523397
_cell_length_c     46.498046
_cell_angle_alpha  89.965059
_cell_angle_beta   89.9662
_cell_angle_gamma 89.970663
loop_
_atom_site_label
_atom_site_type_symbol
_atom_site_fract_x
_atom_site_fract_y
_atom_site_fract_z
_atom_type_partial_charge
Co0 Co 0.99475 0.067 0.37455 0.0
Co1 Co 0.94363 0.10606 0.41185 0.0
O2 O 0.96534 0.09679 0.37692 0.0
C3 C 0.95391 0.04745 0.32957 0.0
O4 O 0.93209 0.05403 0.34621 0.0
C5 C 0.97413 0.15967 0.39789 0.0
O6 O 0.99728 0.14383 0.39484 0.0
O7 O 0.97871 0.10461 0.43677 0.0
O8 O 0.01092 0.07877 0.41198 0.0
H9 H 0.91257 0.09382 0.51465 0.0
H10 H 0.98692 0.10727 0.32593 0.0
O11 O 0.97952 0.05356 0.33692 0.0
H12 H 0.08672 0.12173 0.35841 0.0
H13 H 0.06948 0.00693 0.32421 0.0
H14 H 0.01927 0.02504 0.41585 0.0
H15 H 0.05569 0.08575 0.38192 0.0
H16 H 0.03273 0.04498 0.3277 0.0
O17 O 0.95033 0.14799 0.40472 0.0
H18 H 0.94015 0.08211 0.4709 0.0
H19 H 0.90023 0.15099 0.42615 0.0
H20 H 0.05613 0.98702 0.4134 0.0
H21 H 0.01728 0.14336 0.30161 0.0
H22 H 0.08149 0.97772 0.3673 0.0
H23 H 0.06754 0.15083 0.31793 0.0
O24 O 0.96931 0.03888 0.39438 0.0
H25 H 0.88522 0.13528 0.32577 0.0
H26 H 0.88513 0.08042 0.41655 0.0
H27 H 0.84159 0.08096 0.38635 0.0
H28 H 0.84144 0.1086 0.34062 0.0
H29 H 0.92838 0.13396 0.35651 0.0
H30 H 0.87239 0.16362 0.46952 0.0
H31 H 0.8784 0.13486 0.51414 0.0
O32 O 0.93683 0.06447 0.4195 0.0
C33 C 0.00322 0.09256 0.43425 0.0
C34 C 0.9097 0.10646 0.49532 0.0
C35 C 0.88718 0.14567 0.47 0.0
N36 N 0.92164 0.11571 0.44595 0.0
C37 C 0.92519 0.09988 0.47045 0.0
C38 C 0.90304 0.13845 0.44553 0.0
C39 C 0.89055 0.12951 0.49502 0.0
C40 C 0.00885 0.11025 0.33295 0.0
N41 N 0.01955 0.09437 0.35523 0.0
C42 C 0.0259 0.13077 0.31919 0.0
C43 C 0.05409 0.13498 0.32838 0.0
C44 C 0.06486 0.11867 0.3511 0.0
C45 C 0.04717 0.09837 0.36438 0.0
C46 C 0.05863 0.01081 0.34443 0.0
C47 C 0.03036 0.02127 0.39577 0.0
C48 C 0.03777 0.0323 0.34653 0.0
N49 N 0.02401 0.03737 0.37201 0.0
C50 C 0.05115 0.99965 0.39449 0.0
C51 C 0.06535 0.99444 0.36862 0.0
C52 C 0.94796 0.0407 0.41155 0.0
C53 C 0.88499 0.12323 0.34568 0.0
C54 C 0.88526 0.09242 0.39664 0.0
C55 C 0.86052 0.0927 0.37965 0.0
C56 C 0.86045 0.10822 0.35401 0.0
N57 N 0.90922 0.10727 0.38836 0.0
C58 C 0.90933 0.12249 0.36322 0.0
Co59 Co 0.98262 0.41891 0.36849 0.0
Co60 Co 0.03837 0.38186 0.40086 0.0
O61 O 0.0133 0.39038 0.36816 0.0
C62 C 0.01829 0.44222 0.32079 0.0
O63 O 0.04081 0.44182 0.33777 0.0
C64 C 0.00858 0.32734 0.39 0.0
O65 O 0.98498 0.34271 0.38853 0.0
O66 O 0.00564 0.38192 0.4288 0.0
O67 O 0.97019 0.40649 0.40729 0.0
H68 H 0.07811 0.39521 0.50044 0.0
H69 H 0.98786 0.37891 0.31922 0.0
O70 O 0.99422 0.43247 0.32942 0.0
H71 H 0.89193 0.36048 0.36038 0.0
H72 H 0.90171 0.4758 0.32448 0.0
H73 H 0.9595 0.45958 0.41187 0.0
H74 H 0.92345 0.39765 0.38117 0.0
H75 H 0.94041 0.43955 0.32482 0.0
O76 O 0.03264 0.33966 0.39437 0.0
H77 H 0.04617 0.40582 0.45949 0.0
H78 H 0.08464 0.33874 0.41094 0.0
H79 H 0.92081 0.4958 0.41255 0.0
H80 H 0.95693 0.34169 0.29757 0.0
H81 H 0.89161 0.50412 0.36862 0.0
H82 H 0.90863 0.33222 0.31825 0.0
O83 O 0.00824 0.44807 0.38652 0.0
H84 H 0.08993 0.35506 0.30975 0.0
H85 H 0.09589 0.40996 0.40025 0.0
H86 H 0.13653 0.41123 0.36618 0.0
H87 H 0.13372 0.38357 0.32059 0.0
H88 H 0.0497 0.3546 0.34433 0.0
H89 H 0.11684 0.32721 0.45149 0.0
H90 H 0.11376 0.35564 0.49659 0.0
O91 O 0.044 0.42366 0.40812 0.0
C92 C 0.98055 0.39297 0.42869 0.0
C93 C 0.07972 0.38272 0.48087 0.0
C94 C 0.10142 0.34453 0.45341 0.0
N95 N 0.0637 0.37306 0.43278 0.0
C96 C 0.06174 0.38869 0.45758 0.0
C97 C 0.0831 0.35111 0.43055 0.0
C98 C 0.0997 0.3605 0.4787 0.0
C99 C 0.96676 0.37508 0.32815 0.0
N100 N 0.95742 0.39051 0.35134 0.0
C101 C 0.94939 0.35391 0.31588 0.0
C102 C 0.92231 0.34858 0.32752 0.0
C103 C 0.91293 0.36442 0.35117 0.0
C104 C 0.93089 0.3854 0.36289 0.0
C105 C 0.91425 0.47233 0.34377 0.0
C106 C 0.94677 0.46294 0.39271 0.0
C107 C 0.93623 0.45189 0.34408 0.0
N108 N 0.95205 0.44729 0.36841 0.0
C109 C 0.92495 0.48354 0.39321 0.0
C110 C 0.90859 0.48821 0.36855 0.0
C111 C 0.03097 0.44697 0.40186 0.0
C112 C 0.09144 0.36714 0.32958 0.0
C113 C 0.09448 0.39795 0.38041 0.0
C114 C 0.11758 0.3987 0.36123 0.0
C115 C 0.11599 0.38317 0.33566 0.0
N116 N 0.07053 0.38209 0.37433 0.0
C117 C 0.06877 0.36688 0.34928 0.0
Co118 Co 0.00992 0.93 0.14421 0.0
Co119 Co 0.95725 0.8896 0.11105 0.0
O120 O 0.98142 0.89952 0.14393 0.0
C121 C 0.97217 0.94792 0.19252 0.0
O122 O 0.94982 0.94597 0.17541 0.0
C123 C 0.99202 0.83851 0.12235 0.0
O124 O 0.01367 0.85651 0.12337 0.0
O125 O 0.98985 0.8925 0.08329 0.0
O126 O 0.02331 0.9195 0.10504 0.0
H127 H 0.917 0.90029 0.01134 0.0
H128 H 0.00779 0.8884 0.19244 0.0
O129 O 0.99721 0.94148 0.18353 0.0
H130 H 0.10492 0.87859 0.15113 0.0
H131 H 0.08592 0.99201 0.18982 0.0
H132 H 0.02979 0.97338 0.10187 0.0
H133 H 0.07063 0.91381 0.13125 0.0
H134 H 0.05029 0.95279 0.18848 0.0
O135 O 0.96672 0.84791 0.11746 0.0
H136 H 0.94779 0.91322 0.0525 0.0
H137 H 0.9148 0.84293 0.10056 0.0
H138 H 0.06539 0.01262 0.10219 0.0
H139 H 0.04149 0.85305 0.21315 0.0
H140 H 0.09374 0.02215 0.14641 0.0
H141 H 0.0904 0.84791 0.19238 0.0
O142 O 0.98204 0.95733 0.12703 0.0
H143 H 0.9076 0.85784 0.20167 0.0
H144 H 0.89772 0.91311 0.11168 0.0
H145 H 0.85697 0.91085 0.14556 0.0
H146 H 0.86176 0.883 0.1909 0.0
H147 H 0.94788 0.86087 0.1673 0.0
H148 H 0.88383 0.82905 0.0598 0.0
H149 H 0.88472 0.85791 0.01485 0.0
O150 O 0.94834 0.93116 0.10408 0.0
C151 C 0.014 0.90542 0.0835 0.0
C152 C 0.91633 0.88761 0.03085 0.0
C153 C 0.89774 0.8476 0.05804 0.0
N154 N 0.93284 0.87903 0.07899 0.0
C155 C 0.93363 0.8949 0.05427 0.0
C156 C 0.91535 0.85553 0.08102 0.0
C157 C 0.89825 0.86381 0.03283 0.0
C158 C 0.02915 0.88648 0.18348 0.0
N159 N 0.03727 0.90322 0.16074 0.0
C160 C 0.04809 0.86635 0.19522 0.0
C161 C 0.07552 0.86344 0.18353 0.0
C162 C 0.08367 0.88064 0.16037 0.0
C163 C 0.06414 0.90051 0.14917 0.0
C164 C 0.07375 0.98802 0.17041 0.0
C165 C 0.04219 0.97726 0.12113 0.0
C166 C 0.0535 0.96589 0.16953 0.0
N167 N 0.03816 0.96064 0.14503 0.0
C168 C 0.06225 0.99957 0.12121 0.0
C169 C 0.07813 0.00492 0.14604 0.0
C170 C 0.95958 0.95514 0.11142 0.0
C171 C 0.90522 0.86998 0.18195 0.0
C172 C 0.89999 0.90102 0.13141 0.0
C173 C 0.87682 0.89977 0.15048 0.0
C174 C 0.87952 0.88413 0.17591 0.0
N175 N 0.92509 0.887 0.13745 0.0
C176 C 0.92792 0.87168 0.16236 0.0
Co177 Co 0.98741 0.57221 0.14454 0.0
Co178 Co 0.03737 0.61905 0.11551 0.0
O179 O 0.01353 0.60485 0.14729 0.0
C180 C 0.02687 0.55315 0.19097 0.0
O181 O 0.04868 0.56409 0.17679 0.0
C182 C 0.99882 0.6675 0.12859 0.0
O183 O 0.97789 0.64865 0.12958 0.0
O184 O 0.00552 0.61527 0.08689 0.0
O185 O 0.97287 0.58611 0.10702 0.0
H186 H 0.07963 0.6185 0.01602 0.0
H187 H 0.98723 0.60803 0.19706 0.0
O188 O 0.00126 0.55661 0.18201 0.0
H189 H 0.88901 0.61529 0.15797 0.0
H190 H 0.91624 0.50012 0.18277 0.0
H191 H 0.97065 0.53245 0.09766 0.0
H192 H 0.92549 0.58531 0.13386 0.0
H193 H 0.94877 0.54185 0.18586 0.0
O194 O 0.02453 0.65927 0.1239 0.0
H195 H 0.04944 0.60038 0.05569 0.0
H196 H 0.0762 0.66952 0.1089 0.0
H197 H 0.93811 0.49083 0.09353 0.0
H198 H 0.95133 0.63809 0.22205 0.0
H199 H 0.91066 0.47439 0.13631 0.0
H200 H 0.90185 0.64192 0.20243 0.0
O201 O 0.01714 0.5489 0.12459 0.0
H202 H 0.08227 0.64922 0.20898 0.0
H203 H 0.09878 0.60081 0.1161 0.0
H204 H 0.13848 0.60444 0.15104 0.0
H205 H 0.13034 0.62884 0.19785 0.0
H206 H 0.04311 0.64489 0.17351 0.0
H207 H 0.10647 0.68857 0.06971 0.0
H208 H 0.10842 0.66291 0.02291 0.0
O209 O 0.05015 0.57917 0.10622 0.0
C210 C 0.98172 0.60172 0.08638 0.0
C211 C 0.07907 0.6298 0.03635 0.0
C212 C 0.0941 0.66915 0.06647 0.0
N213 N 0.06134 0.63368 0.08467 0.0
C214 C 0.06211 0.61957 0.05893 0.0
C215 C 0.07689 0.65829 0.08856 0.0
C216 C 0.09519 0.65474 0.04022 0.0
C217 C 0.96566 0.60943 0.18856 0.0
N218 N 0.95843 0.59489 0.1641 0.0
C219 C 0.94546 0.62655 0.20273 0.0
C220 C 0.91771 0.62872 0.19168 0.0
C221 C 0.9105 0.6138 0.16673 0.0
C222 C 0.93126 0.59692 0.15312 0.0
C223 C 0.92804 0.50712 0.16396 0.0
C224 C 0.95862 0.52556 0.11632 0.0
C225 C 0.94653 0.5307 0.16559 0.0
N226 N 0.96144 0.53971 0.14191 0.0
C227 C 0.94029 0.50192 0.11387 0.0
C228 C 0.92491 0.49269 0.13789 0.0
C229 C 0.04024 0.554 0.11068 0.0
C230 C 0.0861 0.6386 0.18863 0.0
C231 C 0.09506 0.61137 0.13646 0.0
C232 C 0.11763 0.61342 0.15613 0.0
C233 C 0.11306 0.62713 0.18238 0.0
N234 N 0.0687 0.62275 0.14272 0.0
C235 C 0.06404 0.63618 0.16843 0.0
Co236 Co 0.38426 0.99062 0.06222 0.0
Co237 Co 0.42213 0.95142 0.11287 0.0
O238 O 0.38677 0.96842 0.09769 0.0
C239 C 0.34096 0.95757 0.02968 0.0
O240 O 0.36101 0.95263 0.01044 0.0
C241 C 0.4037 0.99135 0.15844 0.0
O242 O 0.40113 0.01081 0.13816 0.0
O243 O 0.44463 0.98723 0.10556 0.0
O244 O 0.42075 0.01081 0.07089 0.0
H245 H 0.52719 0.92641 0.11288 0.0
H246 H 0.33491 0.98974 0.10253 0.0
O247 O 0.34714 0.97083 0.05288 0.0
H248 H 0.36288 0.09167 0.09476 0.0
H249 H 0.33307 0.04914 0.98667 0.0
H250 H 0.42549 0.00653 0.01628 0.0
H251 H 0.38867 0.05449 0.06716 0.0
H252 H 0.33684 0.02174 0.03194 0.0
O253 O 0.4118 0.96594 0.15215 0.0
H254 H 0.48273 0.94763 0.09333 0.0
H255 H 0.43599 0.91912 0.16645 0.0
H256 H 0.42271 0.03389 0.97093 0.0
H257 H 0.30832 0.02627 0.13029 0.0
H258 H 0.37623 0.0554 0.95585 0.0
H259 H 0.32233 0.07765 0.12656 0.0
O260 O 0.40646 0.96071 0.04125 0.0
H261 H 0.33849 0.89377 0.14961 0.0
H262 H 0.4321 0.88945 0.10001 0.0
H263 H 0.40494 0.8447 0.10842 0.0
H264 H 0.35783 0.84669 0.13348 0.0
H265 H 0.36624 0.93803 0.14052 0.0
H266 H 0.48001 0.89779 0.18693 0.0
H267 H 0.526 0.90127 0.16002 0.0
O268 O 0.4331 0.93698 0.07387 0.0
C269 C 0.44203 0.008 0.08782 0.0
C270 C 0.50726 0.92466 0.12477 0.0
C271 C 0.48079 0.90863 0.16634 0.0
N272 N 0.45675 0.93439 0.12862 0.0
C273 C 0.482 0.93655 0.11376 0.0
C274 C 0.45595 0.9208 0.15467 0.0
C275 C 0.50659 0.91059 0.15123 0.0
C276 C 0.34095 0.01209 0.10058 0.0
N277 N 0.36321 0.01998 0.0831 0.0
C278 C 0.32589 0.03266 0.11644 0.0
C279 C 0.33379 0.06148 0.11437 0.0
C280 C 0.35655 0.06936 0.09654 0.0
C281 C 0.37113 0.04819 0.08102 0.0
C282 C 0.35345 0.03989 0.99303 0.0
C283 C 0.40521 0.01591 0.00992 0.0
C284 C 0.35571 0.02434 0.01862 0.0
N285 N 0.38139 0.0126 0.02679 0.0
C286 C 0.40376 0.03134 0.9842 0.0
C287 C 0.37767 0.0434 0.97574 0.0
C288 C 0.42537 0.94202 0.04802 0.0
C289 C 0.35902 0.89262 0.13872 0.0
C290 C 0.41153 0.89051 0.11079 0.0
C291 C 0.3963 0.86509 0.11556 0.0
C292 C 0.36988 0.86621 0.12964 0.0
N293 N 0.4008 0.91631 0.11988 0.0
C294 C 0.37486 0.9176 0.13359 0.0
Co295 Co 0.62309 0.51374 0.07098 0.0
Co296 Co 0.58254 0.55722 0.1155 0.0
O297 O 0.61826 0.53778 0.10481 0.0
C298 C 0.66971 0.5554 0.05559 0.0
O299 O 0.65087 0.57623 0.0529 0.0
C300 C 0.59423 0.51781 0.16341 0.0
O301 O 0.59737 0.49807 0.14352 0.0
O302 O 0.55866 0.52255 0.10726 0.0
O303 O 0.58475 0.49607 0.0766 0.0
H304 H 0.4797 0.58811 0.10382 0.0
H305 H 0.66792 0.51391 0.11619 0.0
O306 O 0.66206 0.53057 0.06427 0.0
H307 H 0.63495 0.41339 0.10988 0.0
H308 H 0.67914 0.45069 0.00309 0.0
H309 H 0.58568 0.49691 0.02217 0.0
H310 H 0.61446 0.45056 0.07808 0.0
H311 H 0.67204 0.48017 0.04658 0.0
O312 O 0.58809 0.54358 0.15623 0.0
H313 H 0.52451 0.56348 0.08979 0.0
H314 H 0.56535 0.59247 0.16609 0.0
H315 H 0.59177 0.46738 0.97858 0.0
H316 H 0.68917 0.47737 0.14827 0.0
H317 H 0.63878 0.44404 0.96879 0.0
H318 H 0.6726 0.42672 0.14528 0.0
O319 O 0.60513 0.54356 0.04636 0.0
H320 H 0.66539 0.61171 0.15821 0.0
H321 H 0.57775 0.61892 0.09907 0.0
H322 H 0.60666 0.66239 0.1082 0.0
H323 H 0.65078 0.65895 0.13804 0.0
H324 H 0.63599 0.56873 0.14834 0.0
H325 H 0.52089 0.61722 0.1811 0.0
H326 H 0.47771 0.61522 0.14979 0.0
O327 O 0.5765 0.57041 0.07482 0.0
C328 C 0.56187 0.50091 0.09077 0.0
C329 C 0.49841 0.58924 0.11759 0.0
C330 C 0.52152 0.60554 0.16099 0.0
N331 N 0.54759 0.57681 0.12695 0.0
C332 C 0.52387 0.57543 0.1097 0.0
C333 C 0.54661 0.59145 0.1524 0.0
C334 C 0.4973 0.60442 0.1434 0.0
C335 C 0.66081 0.49185 0.11459 0.0
N336 N 0.64008 0.48434 0.0952 0.0
C337 C 0.67283 0.47128 0.13288 0.0
C338 C 0.6635 0.44287 0.13122 0.0
C339 C 0.64236 0.43538 0.11137 0.0
C340 C 0.63079 0.45653 0.09346 0.0
C341 C 0.65853 0.46069 0.00715 0.0
C342 C 0.60614 0.48665 0.01819 0.0
C343 C 0.65439 0.47745 0.03172 0.0
N344 N 0.62839 0.49005 0.03705 0.0
C345 C 0.60949 0.47002 0.99341 0.0
C346 C 0.63588 0.45696 0.98792 0.0
C347 C 0.58674 0.56358 0.05021 0.0
C348 C 0.64617 0.61349 0.14524 0.0
C349 C 0.597 0.61723 0.11197 0.0
C350 C 0.61324 0.64193 0.11712 0.0
C351 C 0.63798 0.63999 0.13388 0.0
N352 N 0.60511 0.59135 0.12328 0.0
C353 C 0.62939 0.58925 0.13965 0.0
Co354 Co 0.36836 0.99679 0.42261 0.0
Co355 Co 0.4018 0.04545 0.37726 0.0
O356 O 0.36822 0.02338 0.39014 0.0
C357 C 0.32366 0.03882 0.44055 0.0
O358 O 0.33879 0.05994 0.42955 0.0
C359 C 0.38869 0.0074 0.32855 0.0
O360 O 0.38518 0.98711 0.34783 0.0
O361 O 0.42856 0.01215 0.38239 0.0
O362 O 0.40524 0.98003 0.40967 0.0
H363 H 0.50301 0.08266 0.38264 0.0
H364 H 0.31693 0.00025 0.38544 0.0
O365 O 0.33148 0.0128 0.43739 0.0
H366 H 0.35024 0.89989 0.37793 0.0
H367 H 0.32368 0.92752 0.4929 0.0
H368 H 0.41289 0.97662 0.46352 0.0
H369 H 0.37569 0.93448 0.40898 0.0
H370 H 0.32385 0.96063 0.45145 0.0
O371 O 0.39467 0.03292 0.33653 0.0
H372 H 0.46109 0.05457 0.39886 0.0
H373 H 0.4128 0.0837 0.32704 0.0
H374 H 0.41375 0.94342 0.50488 0.0
H375 H 0.29066 0.9663 0.35429 0.0
H376 H 0.3689 0.91863 0.51984 0.0
H377 H 0.30737 0.91574 0.35034 0.0
O378 O 0.38943 0.02492 0.44681 0.0
H379 H 0.3124 0.09521 0.3427 0.0
H380 H 0.40353 0.10682 0.3955 0.0
H381 H 0.37094 0.14834 0.39021 0.0
H382 H 0.32504 0.14267 0.36359 0.0
H383 H 0.34551 0.05421 0.34871 0.0
H384 H 0.45431 0.11189 0.30987 0.0
H385 H 0.49977 0.11158 0.33783 0.0
O386 O 0.40986 0.05774 0.41765 0.0
C387 C 0.42712 0.98808 0.39542 0.0
C388 C 0.48329 0.08306 0.37033 0.0
C389 C 0.45596 0.09944 0.32947 0.0
N390 N 0.43444 0.06775 0.36408 0.0
C391 C 0.45944 0.06729 0.37947 0.0
C392 C 0.43255 0.0834 0.33927 0.0
C393 C 0.48146 0.09926 0.34517 0.0
C394 C 0.32415 0.97821 0.38399 0.0
N395 N 0.34771 0.96932 0.39908 0.0
C396 C 0.30927 0.95912 0.36626 0.0
C397 C 0.31868 0.93076 0.36403 0.0
C398 C 0.34274 0.92186 0.37949 0.0
C399 C 0.3571 0.94155 0.39698 0.0
C400 C 0.34338 0.93813 0.48654 0.0
C401 C 0.39333 0.96574 0.46975 0.0
C402 C 0.3436 0.95693 0.46311 0.0
N403 N 0.36842 0.97035 0.45491 0.0
C404 C 0.39393 0.94704 0.49325 0.0
C405 C 0.36876 0.93316 0.50165 0.0
C406 C 0.4044 0.04751 0.44255 0.0
C407 C 0.33238 0.09796 0.35427 0.0
C408 C 0.38354 0.10418 0.38397 0.0
C409 C 0.36521 0.12777 0.38099 0.0
C410 C 0.33946 0.12458 0.36604 0.0
N411 N 0.37647 0.07817 0.3723 0.0
C412 C 0.35125 0.07486 0.35765 0.0
Co413 Co 0.63606 0.50447 0.4264 0.0
Co414 Co 0.5963 0.45997 0.38208 0.0
O415 O 0.63224 0.47889 0.39335 0.0
C416 C 0.67664 0.45743 0.44109 0.0
O417 O 0.65938 0.43867 0.42906 0.0
C418 C 0.60912 0.4988 0.33356 0.0
O419 O 0.61564 0.51817 0.35297 0.0
O420 O 0.57274 0.49498 0.39019 0.0
O421 O 0.60055 0.52522 0.41532 0.0
H422 H 0.49302 0.43055 0.39332 0.0
H423 H 0.68543 0.49677 0.38711 0.0
O424 O 0.67159 0.48427 0.43942 0.0
H425 H 0.66227 0.60015 0.38303 0.0
H426 H 0.69042 0.56653 0.49642 0.0
H427 H 0.59546 0.528 0.46956 0.0
H428 H 0.63457 0.5675 0.41435 0.0
H429 H 0.68516 0.53498 0.45414 0.0
O430 O 0.60168 0.47357 0.34136 0.0
H431 H 0.5381 0.45447 0.40756 0.0
H432 H 0.57893 0.42486 0.33141 0.0
H433 H 0.5997 0.55973 0.51182 0.0
H434 H 0.71388 0.52869 0.35564 0.0
H435 H 0.64746 0.57919 0.52552 0.0
H436 H 0.70227 0.58076 0.35343 0.0
O437 O 0.61332 0.47795 0.45099 0.0
H438 H 0.67892 0.40499 0.33943 0.0
H439 H 0.59088 0.39817 0.39813 0.0
H440 H 0.61958 0.35452 0.38895 0.0
H441 H 0.66391 0.35777 0.35935 0.0
H442 H 0.6497 0.44814 0.34935 0.0
H443 H 0.5342 0.40081 0.31621 0.0
H444 H 0.49088 0.40348 0.34733 0.0
O445 O 0.59004 0.44658 0.4225 0.0
C446 C 0.57709 0.51891 0.4028 0.0
C447 C 0.51178 0.42913 0.37962 0.0
C448 C 0.53489 0.41248 0.33633 0.0
N449 N 0.56118 0.44081 0.37047 0.0
C450 C 0.5374 0.44254 0.38763 0.0
C451 C 0.56013 0.42617 0.34502 0.0
C452 C 0.51059 0.41398 0.3538 0.0
C453 C 0.68044 0.51946 0.3864 0.0
N454 N 0.65849 0.5303 0.4026 0.0
C455 C 0.69654 0.5374 0.36849 0.0
C456 C 0.69 0.56661 0.36723 0.0
C457 C 0.66754 0.5775 0.38383 0.0
C458 C 0.6519 0.55891 0.40147 0.0
C459 C 0.66948 0.55826 0.49062 0.0
C460 C 0.61627 0.5366 0.47523 0.0
C461 C 0.66637 0.54036 0.46672 0.0
N462 N 0.63998 0.52989 0.45923 0.0
C463 C 0.61856 0.55446 0.49925 0.0
C464 C 0.64537 0.56535 0.50694 0.0
C465 C 0.59715 0.45614 0.44723 0.0
C466 C 0.65961 0.40329 0.3523 0.0
C467 C 0.61021 0.39976 0.38531 0.0
C468 C 0.62633 0.37497 0.38013 0.0
C469 C 0.65119 0.37681 0.36351 0.0
N470 N 0.61856 0.42563 0.37416 0.0
C471 C 0.64293 0.42762 0.35789 0.0
Co472 Co 0.06387 0.37927 0.99158 0.0
Co473 Co 0.11217 0.41162 0.94518 0.0
O474 O 0.09678 0.37814 0.9657 0.0
C475 C 0.04535 0.33495 0.9492 0.0
O476 O 0.0561 0.34996 0.92784 0.0
C477 C 0.1596 0.3926 0.98218 0.0
O478 O 0.14057 0.39148 0.00298 0.0
O479 O 0.10937 0.43705 0.97983 0.0
O480 O 0.07774 0.41538 0.00898 0.0
H481 H 0.11531 0.51471 0.91296 0.0
H482 H 0.09982 0.32693 0.98831 0.0
O483 O 0.04843 0.34304 0.97513 0.0
H484 H 0.10499 0.35803 0.08954 0.0
H485 H 0.99046 0.33678 0.05898 0.0
H486 H 0.02421 0.42516 0.01112 0.0
H487 H 0.07558 0.38485 0.05453 0.0
H488 H 0.03262 0.3356 0.02685 0.0
O489 O 0.15198 0.40015 0.95696 0.0
H490 H 0.09558 0.47291 0.93897 0.0
H491 H 0.16308 0.42023 0.90729 0.0
H492 H 0.98218 0.42738 0.04337 0.0
H493 H 0.12931 0.29925 0.02266 0.0
H494 H 0.96502 0.38295 0.06753 0.0
H495 H 0.13211 0.31485 0.07366 0.0
O496 O 0.04119 0.4015 0.96297 0.0
H497 H 0.1387 0.32216 0.89073 0.0
H498 H 0.09408 0.4181 0.88405 0.0
H499 H 0.09643 0.38737 0.8409 0.0
H500 H 0.11892 0.33904 0.84408 0.0
H501 H 0.13569 0.3535 0.9334 0.0
H502 H 0.1837 0.46152 0.88112 0.0
H503 H 0.15969 0.50914 0.88378 0.0
O504 O 0.07264 0.42366 0.93355 0.0
C505 C 0.09464 0.43594 0.00293 0.0
C506 C 0.1259 0.49404 0.91154 0.0
C507 C 0.16431 0.4642 0.89371 0.0
N508 N 0.12801 0.44411 0.92441 0.0
C509 C 0.11477 0.47028 0.92614 0.0
C510 C 0.15257 0.44091 0.9086 0.0
C511 C 0.15082 0.49091 0.8952 0.0
C512 C 0.10078 0.3337 0.01052 0.0
N513 N 0.08601 0.35748 0.01941 0.0
C514 C 0.11757 0.31801 0.02985 0.0
C515 C 0.11916 0.3268 0.05845 0.0
C516 C 0.10398 0.35104 0.06737 0.0
C517 C 0.08744 0.36622 0.04743 0.0
C518 C 0.99777 0.3563 0.04863 0.0
C519 C 0.017 0.40578 0.02172 0.0
C520 C 0.02159 0.35575 0.03036 0.0
N521 N 0.031 0.38033 0.01727 0.0
C522 C 0.99314 0.40715 0.03989 0.0
C523 C 0.9835 0.38221 0.05342 0.0
C524 C 0.0471 0.41818 0.94197 0.0
C525 C 0.12892 0.3432 0.88906 0.0
C526 C 0.10382 0.39706 0.88562 0.0
C527 C 0.10515 0.37978 0.8611 0.0
C528 C 0.11778 0.35267 0.86289 0.0
N529 N 0.11486 0.38765 0.91118 0.0
C530 C 0.12724 0.36108 0.91312 0.0
Co531 Co 0.05803 0.62549 0.52806 0.0
Co532 Co 0.11072 0.58802 0.56483 0.0
O533 O 0.09426 0.62332 0.5489 0.0
C534 C 0.02605 0.66764 0.56324 0.0
O535 O 0.00718 0.64728 0.56805 0.0
C536 C 0.15366 0.60764 0.52287 0.0
O537 O 0.13209 0.61078 0.50498 0.0
O538 O 0.10234 0.56588 0.52915 0.0
O539 O 0.06657 0.58937 0.50689 0.0
H540 H 0.11397 0.48257 0.58819 0.0
H541 H 0.09716 0.67574 0.52807 0.0
O542 O 0.04879 0.66216 0.5489 0.0
H543 H 0.08631 0.64878 0.4261 0.0
H544 H 0.97931 0.67625 0.47356 0.0
H545 H 0.01229 0.58368 0.5134 0.0
H546 H 0.06075 0.6219 0.464 0.0
H547 H 0.02569 0.67284 0.49898 0.0
O548 O 0.14909 0.59907 0.54853 0.0
H549 H 0.09267 0.52694 0.56844 0.0
H550 H 0.16576 0.5748 0.59472 0.0
H551 H 0.96583 0.5861 0.48805 0.0
H552 H 0.12288 0.7034 0.49082 0.0
H553 H 0.94905 0.63265 0.46793 0.0
H554 H 0.1176 0.6899 0.43943 0.0
O555 O 0.03876 0.60245 0.5584 0.0
H556 H 0.14861 0.67153 0.62183 0.0
H557 H 0.1006 0.57719 0.6272 0.0
H558 H 0.11049 0.60397 0.67189 0.0
H559 H 0.13476 0.65145 0.66937 0.0
H560 H 0.13807 0.64414 0.57766 0.0
H561 H 0.18798 0.53089 0.61455 0.0
H562 H 0.16198 0.48438 0.61145 0.0
O563 O 0.07255 0.57609 0.58078 0.0
C564 C 0.08396 0.56833 0.50898 0.0
C565 C 0.12546 0.50273 0.58978 0.0
C566 C 0.16702 0.52984 0.60454 0.0
N567 N 0.12781 0.55347 0.58072 0.0
C568 C 0.11346 0.52794 0.57874 0.0
C569 C 0.15435 0.55462 0.59325 0.0
C570 C 0.15241 0.50375 0.6028 0.0
C571 C 0.09451 0.66994 0.50572 0.0
N572 N 0.0773 0.64737 0.49821 0.0
C573 C 0.10923 0.68559 0.48474 0.0
C574 C 0.10629 0.67798 0.45591 0.0
C575 C 0.08875 0.6549 0.44842 0.0
C576 C 0.07438 0.63971 0.46999 0.0
C577 C 0.98641 0.65583 0.48219 0.0
C578 C 0.00519 0.60399 0.50461 0.0
C579 C 0.01265 0.65377 0.4966 0.0
N580 N 0.02175 0.62806 0.50756 0.0
C581 C 0.97884 0.60524 0.49031 0.0
C582 C 0.96944 0.63136 0.47904 0.0
C583 C 0.04643 0.58341 0.57659 0.0
C584 C 0.13807 0.65084 0.62321 0.0
C585 C 0.11102 0.59792 0.62592 0.0
C586 C 0.11664 0.61294 0.6513 0.0
C587 C 0.13027 0.63957 0.64988 0.0
N588 N 0.11886 0.60906 0.59987 0.0
C589 C 0.13213 0.6352 0.59828 0.0
Co590 Co 0.92445 0.85645 0.52549 0.0
Co591 Co 0.87777 0.89135 0.57174 0.0
O592 O 0.89134 0.85717 0.55119 0.0
C593 C 0.93851 0.81215 0.56913 0.0
O594 O 0.92651 0.82807 0.58909 0.0
C595 C 0.82908 0.87482 0.53497 0.0
O596 O 0.84781 0.87266 0.51398 0.0
O597 O 0.88189 0.91628 0.53698 0.0
O598 O 0.91239 0.89319 0.50761 0.0
H599 H 0.87992 0.99462 0.60332 0.0
H600 H 0.88654 0.80552 0.529 0.0
O601 O 0.93818 0.81978 0.54286 0.0
H602 H 0.88227 0.83685 0.42775 0.0
H603 H 0.99624 0.8093 0.45955 0.0
H604 H 0.96637 0.90008 0.50542 0.0
H605 H 0.91266 0.86263 0.46269 0.0
H606 H 0.95381 0.81076 0.49134 0.0
O607 O 0.83736 0.88195 0.56011 0.0
H608 H 0.89741 0.95175 0.57748 0.0
H609 H 0.82751 0.90273 0.60978 0.0
H610 H 0.00875 0.89964 0.47357 0.0
H611 H 0.85602 0.77896 0.49473 0.0
H612 H 0.02396 0.854 0.4504 0.0
H613 H 0.8537 0.79467 0.44372 0.0
O614 O 0.94802 0.87788 0.55373 0.0
H615 H 0.84653 0.80369 0.62666 0.0
H616 H 0.89633 0.89702 0.63282 0.0
H617 H 0.89241 0.86659 0.67611 0.0
H618 H 0.86731 0.81958 0.67319 0.0
H619 H 0.85116 0.83467 0.58384 0.0
H620 H 0.80912 0.94514 0.6358 0.0
H621 H 0.83546 0.99147 0.63274 0.0
O622 O 0.91791 0.90151 0.58331 0.0
C623 C 0.89659 0.91461 0.51387 0.0
C624 C 0.86831 0.97453 0.60491 0.0
C625 C 0.82855 0.94677 0.62311 0.0
N626 N 0.86366 0.92471 0.59237 0.0
C627 C 0.87817 0.95016 0.59041 0.0
C628 C 0.83904 0.92284 0.6083 0.0
C629 C 0.84335 0.97275 0.62139 0.0
C630 C 0.88582 0.8123 0.50677 0.0
N631 N 0.90145 0.83548 0.49782 0.0
C632 C 0.86842 0.79726 0.4875 0.0
C633 C 0.8671 0.80611 0.45889 0.0
C634 C 0.88312 0.82979 0.44992 0.0
C635 C 0.90025 0.84433 0.46981 0.0
C636 C 0.98978 0.82933 0.46945 0.0
C637 C 0.97271 0.88018 0.49523 0.0
C638 C 0.9658 0.83028 0.4875 0.0
N639 N 0.95746 0.85554 0.5 0.0
C640 C 0.99679 0.88005 0.47729 0.0
C641 C 0.00532 0.85442 0.46433 0.0
C642 C 0.9431 0.89494 0.57463 0.0
C643 C 0.85744 0.82416 0.62822 0.0
C644 C 0.88546 0.87655 0.63136 0.0
C645 C 0.88325 0.85944 0.65596 0.0
C646 C 0.86914 0.83308 0.65431 0.0
N647 N 0.87387 0.86768 0.60587 0.0
C648 C 0.86003 0.84185 0.60408 0.0
Co649 Co 0.41675 0.63206 0.49374 0.0
Co650 Co 0.36649 0.59992 0.44939 0.0
O651 O 0.3819 0.63286 0.4706 0.0
C652 C 0.43824 0.6784 0.45418 0.0
O653 O 0.43918 0.66038 0.4325 0.0
C654 C 0.32195 0.61357 0.49185 0.0
O655 O 0.3431 0.61522 0.5104 0.0
O656 O 0.37361 0.57274 0.48188 0.0
O657 O 0.40646 0.594 0.50994 0.0
H658 H 0.36573 0.49892 0.41107 0.0
H659 H 0.37792 0.68244 0.4969 0.0
O660 O 0.42817 0.67066 0.47847 0.0
H661 H 0.38264 0.64439 0.5958 0.0
H662 H 0.49311 0.67538 0.55703 0.0
H663 H 0.46043 0.58765 0.50738 0.0
H664 H 0.41035 0.62159 0.55677 0.0
H665 H 0.44835 0.67563 0.52866 0.0
O666 O 0.32728 0.60819 0.46548 0.0
H667 H 0.38551 0.54009 0.43794 0.0
H668 H 0.31298 0.59079 0.41553 0.0
H669 H 0.50516 0.58639 0.53575 0.0
H670 H 0.35005 0.7061 0.53536 0.0
H671 H 0.52178 0.63049 0.56081 0.0
H672 H 0.35224 0.68699 0.5852 0.0
O673 O 0.43802 0.6124 0.46239 0.0
H674 H 0.33011 0.69057 0.40319 0.0
H675 H 0.37959 0.59827 0.38668 0.0
H676 H 0.37154 0.63124 0.34589 0.0
H677 H 0.34655 0.67772 0.35402 0.0
H678 H 0.33883 0.65707 0.44341 0.0
H679 H 0.29226 0.55008 0.38861 0.0
H680 H 0.31876 0.50378 0.38616 0.0
O681 O 0.40551 0.59077 0.43375 0.0
C682 C 0.39014 0.57298 0.50372 0.0
C683 C 0.35403 0.51902 0.41187 0.0
C684 C 0.31278 0.54772 0.3993 0.0
N685 N 0.35057 0.56789 0.42802 0.0
C686 C 0.36519 0.54244 0.42696 0.0
C687 C 0.3246 0.57068 0.4146 0.0
C688 C 0.32767 0.52175 0.39793 0.0
C689 C 0.37917 0.67417 0.5186 0.0
N690 N 0.39581 0.65073 0.52461 0.0
C691 C 0.36327 0.68759 0.54026 0.0
C692 C 0.36447 0.67683 0.56821 0.0
C693 C 0.38151 0.65292 0.57417 0.0
C694 C 0.3971 0.64005 0.55197 0.0
C695 C 0.48605 0.65601 0.54626 0.0
C696 C 0.4674 0.60688 0.51839 0.0
C697 C 0.46075 0.65603 0.53011 0.0
N698 N 0.45165 0.63162 0.51655 0.0
C699 C 0.4928 0.60606 0.53435 0.0
C700 C 0.50213 0.63081 0.54838 0.0
C701 C 0.43135 0.5967 0.44089 0.0
C702 C 0.34096 0.67035 0.39937 0.0
C703 C 0.36882 0.61853 0.3904 0.0
C704 C 0.36426 0.63707 0.36721 0.0
C705 C 0.35022 0.66314 0.37179 0.0
N706 N 0.35957 0.62571 0.41736 0.0
C707 C 0.34588 0.65126 0.42204 0.0
Co708 Co 0.48817 0.57773 0.86042 0.0
Co709 Co 0.43622 0.62452 0.88605 0.0
O710 O 0.46171 0.60989 0.85577 0.0
C711 C 0.45517 0.55114 0.81173 0.0
O712 O 0.43165 0.55063 0.82731 0.0
C713 C 0.47383 0.67338 0.87255 0.0
O714 O 0.49504 0.65484 0.87386 0.0
O715 O 0.46702 0.62278 0.91603 0.0
O716 O 0.49962 0.59153 0.89913 0.0
H717 H 0.3899 0.62623 0.98371 0.0
H718 H 0.49165 0.61473 0.80872 0.0
O719 O 0.47799 0.56283 0.82132 0.0
H720 H 0.58686 0.62182 0.85466 0.0
H721 H 0.56309 0.50683 0.82733 0.0
H722 H 0.50205 0.53793 0.90827 0.0
H723 H 0.54918 0.59085 0.8754 0.0
H724 H 0.53025 0.5481 0.82195 0.0
O725 O 0.44807 0.6649 0.87643 0.0
H726 H 0.42223 0.60763 0.94601 0.0
H727 H 0.39563 0.67395 0.88915 0.0
H728 H 0.53482 0.49675 0.91466 0.0
H729 H 0.52881 0.64574 0.78701 0.0
H730 H 0.56562 0.48094 0.87399 0.0
H731 H 0.57677 0.64953 0.81011 0.0
O732 O 0.45742 0.55398 0.87831 0.0
H733 H 0.39387 0.6497 0.78988 0.0
H734 H 0.37554 0.60421 0.88393 0.0
H735 H 0.33703 0.60532 0.84751 0.0
H736 H 0.34607 0.62826 0.80012 0.0
H737 H 0.43185 0.64789 0.82684 0.0
H738 H 0.36318 0.69344 0.92632 0.0
H739 H 0.36008 0.66944 0.97396 0.0
O740 O 0.42447 0.58455 0.89646 0.0
C741 C 0.49025 0.60844 0.91847 0.0
C742 C 0.39097 0.6368 0.963 0.0
C743 C 0.37601 0.67455 0.9308 0.0
N744 N 0.41059 0.63951 0.91533 0.0
C745 C 0.40916 0.62631 0.94154 0.0
C746 C 0.39445 0.66345 0.90986 0.0
C747 C 0.37427 0.66107 0.95753 0.0
C748 C 0.51255 0.61611 0.81875 0.0
N749 N 0.51823 0.60104 0.84333 0.0
C750 C 0.53347 0.63376 0.80642 0.0
C751 C 0.56036 0.63591 0.81941 0.0
C752 C 0.56603 0.62039 0.84442 0.0
C753 C 0.54458 0.60298 0.85615 0.0
C754 C 0.54981 0.51355 0.84522 0.0
C755 C 0.51552 0.5313 0.89052 0.0
C756 C 0.53111 0.53686 0.84228 0.0
N757 N 0.51437 0.54555 0.86484 0.0
C758 C 0.53397 0.50791 0.89425 0.0
C759 C 0.55123 0.49904 0.87141 0.0
C760 C 0.43428 0.55928 0.89215 0.0
C761 C 0.38965 0.63971 0.81047 0.0
C762 C 0.37967 0.61413 0.86331 0.0
C763 C 0.35776 0.61475 0.8428 0.0
C764 C 0.36284 0.62765 0.81622 0.0
N765 N 0.40586 0.6261 0.85755 0.0
C766 C 0.41104 0.6387 0.83151 0.0
Co767 Co 0.53037 0.92986 0.84742 0.0
Co768 Co 0.56996 0.88239 0.88909 0.0
O769 O 0.55399 0.89551 0.85232 0.0
C770 C 0.56511 0.96313 0.80569 0.0
O771 O 0.56861 0.98231 0.82604 0.0
C772 C 0.53279 0.83421 0.87123 0.0
O773 O 0.51264 0.85333 0.86626 0.0
O774 O 0.53297 0.88935 0.90983 0.0
O775 O 0.50836 0.92102 0.88297 0.0
H776 H 0.59 0.88765 0.99515 0.0
H777 H 0.53629 0.8887 0.7992 0.0
O778 O 0.55199 0.93961 0.81111 0.0
H779 H 0.43258 0.89195 0.82078 0.0
H780 H 0.47204 0.00146 0.79069 0.0
H781 H 0.50978 0.97587 0.88643 0.0
H782 H 0.46671 0.92186 0.84812 0.0
H783 H 0.50098 0.95755 0.79738 0.0
O784 O 0.55742 0.84219 0.88011 0.0
H785 H 0.57024 0.90453 0.94893 0.0
H786 H 0.60366 0.8308 0.9067 0.0
H787 H 0.4808 0.0199 0.88072 0.0
H788 H 0.50288 0.85864 0.7711 0.0
H789 H 0.46174 0.03296 0.83257 0.0
H790 H 0.45063 0.8601 0.7819 0.0
O791 O 0.55771 0.95272 0.87093 0.0
H792 H 0.63236 0.84438 0.80948 0.0
H793 H 0.63096 0.89787 0.901 0.0
H794 H 0.67708 0.88998 0.87605 0.0
H795 H 0.67797 0.86296 0.83 0.0
H796 H 0.58668 0.85298 0.83502 0.0
H797 H 0.62363 0.81301 0.95252 0.0
H798 H 0.61692 0.84157 0.99714 0.0
O799 O 0.58256 0.92218 0.89891 0.0
C800 C 0.51127 0.90553 0.90537 0.0
C801 C 0.59316 0.87506 0.97584 0.0
C802 C 0.61199 0.83315 0.95191 0.0
N803 N 0.586 0.86879 0.9251 0.0
C804 C 0.58209 0.88455 0.94958 0.0
C805 C 0.60059 0.8433 0.92604 0.0
C806 C 0.60823 0.84919 0.97694 0.0
C807 C 0.51355 0.88964 0.80383 0.0
N808 N 0.50345 0.90714 0.82515 0.0
C809 C 0.49475 0.87249 0.78793 0.0
C810 C 0.46544 0.87329 0.79403 0.0
C811 C 0.4553 0.89115 0.81585 0.0
C812 C 0.47474 0.90798 0.83132 0.0
C813 C 0.4802 0.99599 0.81179 0.0
C814 C 0.50146 0.98134 0.86542 0.0
C815 C 0.49661 0.97116 0.81571 0.0
N816 N 0.507 0.9641 0.84229 0.0
C817 C 0.4851 0.00632 0.86232 0.0
C818 C 0.47443 0.01365 0.83529 0.0
C819 C 0.57624 0.94747 0.89043 0.0
C820 C 0.63225 0.85612 0.82956 0.0
C821 C 0.63115 0.88624 0.88089 0.0
C822 C 0.65734 0.88176 0.8669 0.0
C823 C 0.65783 0.86658 0.84107 0.0
N824 N 0.60617 0.87579 0.86953 0.0
C825 C 0.60646 0.86099 0.84416 0.0
Co826 Co 0.49577 0.42184 0.63559 0.0
Co827 Co 0.44432 0.38007 0.60182 0.0
O828 O 0.46803 0.39042 0.6351 0.0
C829 C 0.45546 0.43919 0.68185 0.0
O830 O 0.43405 0.42982 0.66607 0.0
C831 C 0.48033 0.32896 0.61185 0.0
O832 O 0.5019 0.3469 0.61456 0.0
O833 O 0.47694 0.38494 0.5742 0.0
O834 O 0.51074 0.41025 0.59738 0.0
H835 H 0.40422 0.39144 0.50212 0.0
H836 H 0.49265 0.38235 0.68537 0.0
O837 O 0.48135 0.43533 0.6738 0.0
H838 H 0.59127 0.37241 0.64779 0.0
H839 H 0.56912 0.48693 0.6813 0.0
H840 H 0.51598 0.46424 0.59244 0.0
H841 H 0.55711 0.40612 0.62523 0.0
H842 H 0.53444 0.44686 0.6802 0.0
O843 O 0.45511 0.33856 0.60708 0.0
H844 H 0.43428 0.40458 0.54374 0.0
H845 H 0.40355 0.33214 0.59007 0.0
H846 H 0.5507 0.50426 0.59249 0.0
H847 H 0.5262 0.34852 0.70876 0.0
H848 H 0.57753 0.51586 0.63717 0.0
H849 H 0.57587 0.34334 0.68988 0.0
O850 O 0.46798 0.4481 0.61667 0.0
H851 H 0.39582 0.3442 0.6915 0.0
H852 H 0.38382 0.40106 0.60276 0.0
H853 H 0.34314 0.39632 0.63646 0.0
H854 H 0.349 0.36767 0.68117 0.0
H855 H 0.43602 0.3497 0.65732 0.0
H856 H 0.37334 0.31804 0.54884 0.0
H857 H 0.37346 0.34787 0.50451 0.0
O858 O 0.43363 0.42126 0.59574 0.0
C859 C 0.50138 0.3973 0.57518 0.0
C860 C 0.40389 0.37833 0.52135 0.0
C861 C 0.3866 0.33711 0.54756 0.0
N862 N 0.42045 0.36931 0.5694 0.0
C863 C 0.42079 0.38572 0.54502 0.0
C864 C 0.40378 0.34517 0.57081 0.0
C865 C 0.38667 0.35386 0.5227 0.0
C866 C 0.51432 0.38037 0.67723 0.0
N867 N 0.52297 0.39626 0.65408 0.0
C868 C 0.53318 0.36112 0.69048 0.0
C869 C 0.56104 0.3582 0.67985 0.0
C870 C 0.56969 0.37449 0.65622 0.0
C871 C 0.55024 0.3935 0.64351 0.0
C872 C 0.55762 0.48204 0.66168 0.0
C873 C 0.52774 0.46901 0.61191 0.0
C874 C 0.53793 0.45941 0.66094 0.0
N875 N 0.52338 0.45306 0.63621 0.0
C876 C 0.5473 0.49176 0.61183 0.0
C877 C 0.56233 0.49826 0.63691 0.0
C878 C 0.44493 0.44544 0.60208 0.0
C879 C 0.39298 0.35668 0.67205 0.0
C880 C 0.38656 0.38863 0.62222 0.0
C881 C 0.36343 0.38597 0.64118 0.0
C882 C 0.36673 0.36988 0.66626 0.0
N883 N 0.41221 0.37554 0.62801 0.0
C884 C 0.41563 0.35977 0.65257 0.0
Co885 Co 0.52528 0.07007 0.61964 0.0
Co886 Co 0.57084 0.11758 0.5848 0.0
O887 O 0.55094 0.10326 0.61917 0.0
C888 C 0.56934 0.05452 0.66318 0.0
O889 O 0.58924 0.06681 0.64741 0.0
C890 C 0.53462 0.16645 0.60269 0.0
O891 O 0.51349 0.14793 0.60509 0.0
O892 O 0.53562 0.11412 0.56042 0.0
O893 O 0.50686 0.08305 0.58348 0.0
H894 H 0.60034 0.11756 0.48081 0.0
H895 H 0.52965 0.107 0.6712 0.0
O896 O 0.54304 0.05537 0.65583 0.0
H897 H 0.4279 0.11172 0.64203 0.0
H898 H 0.45996 0.99725 0.66607 0.0
H899 H 0.50452 0.02931 0.57531 0.0
H900 H 0.46236 0.08183 0.615 0.0
H901 H 0.49179 0.03962 0.66519 0.0
O902 O 0.55954 0.15791 0.59517 0.0
H903 H 0.57529 0.09927 0.52384 0.0
H904 H 0.60888 0.1679 0.57372 0.0
H905 H 0.47258 0.98702 0.57517 0.0
H906 H 0.49587 0.137 0.69904 0.0
H907 H 0.45008 0.97071 0.6208 0.0
H908 H 0.44461 0.13955 0.68442 0.0
O909 O 0.55328 0.0469 0.5973 0.0
H910 H 0.62734 0.14679 0.67208 0.0
H911 H 0.63173 0.09899 0.57754 0.0
H912 H 0.67553 0.10215 0.60722 0.0
H913 H 0.6735 0.12624 0.65484 0.0
H914 H 0.584 0.14293 0.64181 0.0
H915 H 0.63411 0.18709 0.53117 0.0
H916 H 0.63002 0.16179 0.48432 0.0
O917 O 0.58217 0.07764 0.57361 0.0
C918 C 0.51257 0.09943 0.56232 0.0
C919 C 0.60239 0.12871 0.50112 0.0
C920 C 0.62131 0.16776 0.52938 0.0
N921 N 0.59087 0.13233 0.55132 0.0
C922 C 0.58834 0.1184 0.52559 0.0
C923 C 0.60694 0.15682 0.55339 0.0
C924 C 0.61901 0.15355 0.5031 0.0
C925 C 0.50732 0.10784 0.66488 0.0
N926 N 0.49796 0.09264 0.64158 0.0
C927 C 0.48832 0.12493 0.68065 0.0
C928 C 0.45957 0.12638 0.67241 0.0
C929 C 0.45018 0.11078 0.64862 0.0
C930 C 0.4698 0.09395 0.63335 0.0
C931 C 0.46958 0.00418 0.64604 0.0
C932 C 0.49462 0.02248 0.59521 0.0
C933 C 0.48766 0.02813 0.64541 0.0
N934 N 0.49979 0.03708 0.62017 0.0
C935 C 0.47663 0.99846 0.59502 0.0
C936 C 0.46404 0.98931 0.62063 0.0
C937 C 0.57386 0.05228 0.58 0.0
C938 C 0.62851 0.13631 0.65134 0.0
C939 C 0.63066 0.10942 0.59828 0.0
C940 C 0.65554 0.1112 0.61496 0.0
C941 C 0.6544 0.12474 0.64167 0.0
N942 N 0.60537 0.12088 0.60789 0.0
C943 C 0.60407 0.13416 0.63406 0.0
Co944 Co 0.84323 0.48579 0.58375 0.0
Co945 Co 0.88323 0.43839 0.62489 0.0
O946 O 0.84732 0.45805 0.61489 0.0
C947 C 0.7991 0.44617 0.55821 0.0
O948 O 0.81878 0.42682 0.55242 0.0
C949 C 0.86926 0.47229 0.67627 0.0
O950 O 0.86496 0.49376 0.65848 0.0
O951 O 0.90662 0.47421 0.62092 0.0
O952 O 0.88031 0.50414 0.59383 0.0
H953 H 0.98702 0.4109 0.61317 0.0
H954 H 0.79621 0.47827 0.62603 0.0
O955 O 0.80532 0.4686 0.57266 0.0
H956 H 0.82418 0.58024 0.63315 0.0
H957 H 0.78842 0.55448 0.52042 0.0
H958 H 0.88258 0.50978 0.53966 0.0
H959 H 0.8481 0.54808 0.59844 0.0
H960 H 0.79433 0.52034 0.56056 0.0
O961 O 0.87647 0.4477 0.66653 0.0
H962 H 0.94205 0.43587 0.60034 0.0
H963 H 0.89981 0.39852 0.6722 0.0
H964 H 0.87769 0.54407 0.49949 0.0
H965 H 0.7715 0.50973 0.66087 0.0
H966 H 0.83033 0.56665 0.48963 0.0
H967 H 0.78555 0.56109 0.66466 0.0
O968 O 0.86391 0.45982 0.55683 0.0
H969 H 0.80044 0.3784 0.65973 0.0
H970 H 0.88982 0.37867 0.6027 0.0
H971 H 0.86162 0.33397 0.60677 0.0
H972 H 0.81662 0.33364 0.63553 0.0
H973 H 0.82917 0.42269 0.65488 0.0
H974 H 0.94441 0.37331 0.68597 0.0
H975 H 0.98838 0.37935 0.65627 0.0
O976 O 0.8906 0.42939 0.58349 0.0
C977 C 0.903 0.49798 0.60778 0.0
C978 C 0.96797 0.40801 0.62622 0.0
C979 C 0.94406 0.38695 0.6671 0.0
N980 N 0.91828 0.41843 0.63535 0.0
C981 C 0.94242 0.42201 0.619 0.0
C982 C 0.9189 0.40131 0.65924 0.0
C983 C 0.96873 0.39034 0.65043 0.0
C984 C 0.80227 0.50065 0.6274 0.0
N985 N 0.82354 0.51134 0.61019 0.0
C986 C 0.78827 0.51834 0.64723 0.0
C987 C 0.79619 0.54714 0.64937 0.0
C988 C 0.81788 0.5579 0.63171 0.0
C989 C 0.83141 0.53957 0.61216 0.0
C990 C 0.80918 0.54482 0.52453 0.0
C991 C 0.86195 0.51968 0.53564 0.0
C992 C 0.81265 0.52542 0.54719 0.0
N993 N 0.83883 0.51321 0.55258 0.0
C994 C 0.85929 0.53901 0.51281 0.0
C995 C 0.8327 0.55165 0.50727 0.0
C996 C 0.8819 0.43921 0.55936 0.0
C997 C 0.82004 0.37826 0.64719 0.0
C998 C 0.87019 0.37873 0.61514 0.0
C999 C 0.85435 0.35333 0.61743 0.0
C1000 C 0.82912 0.35316 0.63358 0.0
N1001 N 0.8612 0.40322 0.62865 0.0
C1002 C 0.83644 0.40325 0.64444 0.0
Co1003 Co 0.14987 0.98821 0.57213 0.0
Co1004 Co 0.11274 0.0331 0.61832 0.0
O1005 O 0.14769 0.01352 0.60543 0.0
C1006 C 0.19426 0.02985 0.55066 0.0
O1007 O 0.17491 0.05026 0.54844 0.0
C1008 C 0.12825 0.99622 0.66725 0.0
O1009 O 0.1314 0.97544 0.64845 0.0
O1010 O 0.08874 0.99784 0.6135 0.0
O1011 O 0.11264 0.97004 0.58221 0.0
H1012 H 0.00888 0.06234 0.6136 0.0
H1013 H 0.19861 0.9912 0.61298 0.0
O1014 O 0.18772 0.00538 0.56111 0.0
H1015 H 0.1679 0.88977 0.61355 0.0
H1016 H 0.20063 0.92313 0.50203 0.0
H1017 H 0.1084 0.96853 0.52792 0.0
H1018 H 0.14362 0.92515 0.58241 0.0
H1019 H 0.19705 0.95452 0.5446 0.0
O1020 O 0.12127 0.02137 0.65888 0.0
H1021 H 0.0528 0.03765 0.59708 0.0
H1022 H 0.09914 0.07046 0.66854 0.0
H1023 H 0.11097 0.93707 0.48532 0.0
H1024 H 0.22369 0.95647 0.64427 0.0
H1025 H 0.15735 0.91413 0.47213 0.0
H1026 H 0.20828 0.90537 0.64475 0.0
O1027 O 0.12904 0.01672 0.54792 0.0
H1028 H 0.19826 0.08968 0.65201 0.0
H1029 H 0.10603 0.09415 0.60002 0.0
H1030 H 0.13525 0.13809 0.60504 0.0
H1031 H 0.18169 0.13603 0.63127 0.0
H1032 H 0.16848 0.04621 0.64626 0.0
H1033 H 0.05565 0.09533 0.68599 0.0
H1034 H 0.01014 0.09144 0.65837 0.0
O1035 O 0.10347 0.04468 0.57807 0.0
C1036 C 0.09104 0.97526 0.59814 0.0
C1037 C 0.02861 0.0643 0.62577 0.0
C1038 C 0.05485 0.08278 0.66641 0.0
N1039 N 0.07855 0.05286 0.63168 0.0
C1040 C 0.05357 0.05045 0.61646 0.0
C1041 C 0.07938 0.06862 0.65646 0.0
C1042 C 0.02932 0.08059 0.6509 0.0
C1043 C 0.19194 0.96895 0.61291 0.0
N1044 N 0.16972 0.9602 0.59584 0.0
C1045 C 0.20616 0.9494 0.63074 0.0
C1046 C 0.19748 0.92074 0.63102 0.0
C1047 C 0.17481 0.91198 0.61354 0.0
C1048 C 0.16108 0.93213 0.59601 0.0
C1049 C 0.18029 0.93296 0.50759 0.0
C1050 C 0.12862 0.95848 0.52242 0.0
C1051 C 0.17814 0.95081 0.53163 0.0
N1052 N 0.15248 0.96318 0.53887 0.0
C1053 C 0.12996 0.94075 0.49823 0.0
C1054 C 0.15599 0.92791 0.49082 0.0
C1055 C 0.11115 0.03698 0.55288 0.0
C1056 C 0.17804 0.09087 0.64059 0.0
C1057 C 0.12628 0.09306 0.61135 0.0
C1058 C 0.14269 0.11802 0.6142 0.0
C1059 C 0.16874 0.11686 0.62893 0.0
N1060 N 0.1355 0.06768 0.62295 0.0
C1061 C 0.16104 0.06635 0.63735 0.0
Co1062 Co 0.84201 0.5121 0.932 0.0
Co1063 Co 0.88265 0.55884 0.89081 0.0
O1064 O 0.84647 0.5397 0.90074 0.0
C1065 C 0.80096 0.55797 0.94877 0.0
O1066 O 0.81881 0.57762 0.93923 0.0
C1067 C 0.86864 0.52444 0.83963 0.0
O1068 O 0.86334 0.50326 0.85749 0.0
O1069 O 0.90558 0.52282 0.89584 0.0
O1070 O 0.8779 0.49216 0.92068 0.0
H1071 H 0.9866 0.58523 0.90327 0.0
H1072 H 0.79366 0.52202 0.89195 0.0
O1073 O 0.80609 0.53134 0.94517 0.0
H1074 H 0.8175 0.41918 0.88225 0.0
H1075 H 0.78605 0.44581 0.9968 0.0
H1076 H 0.88154 0.48616 0.97478 0.0
H1077 H 0.84409 0.44992 0.91626 0.0
H1078 H 0.79234 0.4798 0.95656 0.0
O1079 O 0.87639 0.54889 0.84927 0.0
H1080 H 0.94119 0.56103 0.91597 0.0
H1081 H 0.90028 0.59774 0.84304 0.0
H1082 H 0.87628 0.452 0.01502 0.0
H1083 H 0.76633 0.49202 0.8578 0.0
H1084 H 0.82824 0.43161 0.02628 0.0
H1085 H 0.77829 0.44023 0.85274 0.0
O1086 O 0.86409 0.5371 0.95857 0.0
H1087 H 0.80075 0.61892 0.85406 0.0
H1088 H 0.88955 0.61892 0.91188 0.0
H1089 H 0.8617 0.66376 0.9068 0.0
H1090 H 0.81698 0.66395 0.87766 0.0
H1091 H 0.82912 0.5745 0.85991 0.0
H1092 H 0.94533 0.62216 0.82939 0.0
H1093 H 0.98886 0.61606 0.85969 0.0
O1094 O 0.88958 0.5686 0.9321 0.0
C1095 C 0.9012 0.49859 0.90792 0.0
C1096 C 0.96775 0.58815 0.88996 0.0
C1097 C 0.9446 0.60884 0.84847 0.0
N1098 N 0.91805 0.57821 0.88042 0.0
C1099 C 0.94195 0.57459 0.8971 0.0
C1100 C 0.91917 0.59493 0.85627 0.0
C1101 C 0.96901 0.60542 0.86548 0.0
C1102 C 0.79879 0.49944 0.89001 0.0
N1103 N 0.82033 0.4877 0.90614 0.0
C1104 C 0.78333 0.48259 0.87059 0.0
C1105 C 0.79007 0.45354 0.86773 0.0
C1106 C 0.81208 0.44172 0.88427 0.0
C1107 C 0.8271 0.45924 0.90345 0.0
C1108 C 0.80711 0.45447 0.99205 0.0
C1109 C 0.86062 0.47718 0.97938 0.0
C1110 C 0.8108 0.47375 0.96931 0.0
N1111 N 0.83734 0.48473 0.96315 0.0
C1112 C 0.85775 0.45793 0.00226 0.0
C1113 C 0.83079 0.44652 0.00858 0.0
C1114 C 0.88147 0.55817 0.95617 0.0
C1115 C 0.82023 0.61913 0.86675 0.0
C1116 C 0.87006 0.61881 0.89925 0.0
C1117 C 0.85441 0.64428 0.89639 0.0
C1118 C 0.82934 0.64438 0.88003 0.0
N1119 N 0.86103 0.59416 0.88608 0.0
C1120 C 0.83644 0.59407 0.87005 0.0
Co1121 Co 0.14946 0.00178 0.93146 0.0
Co1122 Co 0.11354 0.95286 0.88852 0.0
O1123 O 0.14769 0.97484 0.89941 0.0
C1124 C 0.19455 0.95889 0.94441 0.0
O1125 O 0.17802 0.93886 0.93349 0.0
C1126 C 0.12627 0.98917 0.83847 0.0
O1127 O 0.12931 0.01022 0.85697 0.0
O1128 O 0.0878 0.98681 0.89336 0.0
O1129 O 0.11186 0.01871 0.92035 0.0
H1130 H 0.01179 0.91801 0.89803 0.0
H1131 H 0.19875 0.99753 0.89143 0.0
O1132 O 0.18693 0.98518 0.94413 0.0
H1133 H 0.16568 0.09803 0.88465 0.0
H1134 H 0.19888 0.07095 0.99837 0.0
H1135 H 0.10744 0.0231 0.97443 0.0
H1136 H 0.14179 0.06392 0.91751 0.0
H1137 H 0.19598 0.03735 0.95745 0.0
O1138 O 0.12001 0.96397 0.84731 0.0
H1139 H 0.05474 0.94565 0.91213 0.0
H1140 H 0.10034 0.91337 0.83989 0.0
H1141 H 0.10929 0.05677 0.01534 0.0
H1142 H 0.22343 0.03097 0.85843 0.0
H1143 H 0.15527 0.08094 0.02755 0.0
H1144 H 0.20683 0.0816 0.85484 0.0
O1145 O 0.12964 0.97419 0.95711 0.0
H1146 H 0.20085 0.90014 0.8529 0.0
H1147 H 0.11112 0.89214 0.90882 0.0
H1148 H 0.14269 0.8498 0.90394 0.0
H1149 H 0.1879 0.85365 0.87578 0.0
H1150 H 0.16878 0.942 0.85854 0.0
H1151 H 0.05778 0.88556 0.82484 0.0
H1152 H 0.01315 0.88769 0.85409 0.0
O1153 O 0.10636 0.94194 0.92959 0.0
C1154 C 0.08968 0.01084 0.90639 0.0
C1155 C 0.03115 0.9168 0.88518 0.0
C1156 C 0.05695 0.89862 0.84408 0.0
N1157 N 0.0801 0.93084 0.87704 0.0
C1158 C 0.05557 0.93231 0.89312 0.0
C1159 C 0.08096 0.91444 0.85268 0.0
C1160 C 0.03192 0.89982 0.8605 0.0
C1161 C 0.19161 0.0196 0.89016 0.0
N1162 N 0.16899 0.02882 0.90647 0.0
C1163 C 0.20558 0.03841 0.87136 0.0
C1164 C 0.19622 0.0668 0.86933 0.0
C1165 C 0.17313 0.07603 0.88604 0.0
C1166 C 0.15965 0.05661 0.90457 0.0
C1167 C 0.1787 0.06061 0.99322 0.0
C1168 C 0.12747 0.03371 0.97947 0.0
C1169 C 0.17694 0.04153 0.9701 0.0
N1170 N 0.1515 0.0285 0.96339 0.0
C1171 C 0.12841 0.05268 0.00272 0.0
C1172 C 0.15422 0.06621 0.00958 0.0
C1173 C 0.11368 0.95214 0.95401 0.0
C1174 C 0.18117 0.89817 0.86516 0.0
C1175 C 0.13081 0.894 0.8966 0.0
C1176 C 0.14856 0.86994 0.89386 0.0
C1177 C 0.17391 0.87211 0.87804 0.0
N1178 N 0.13806 0.91947 0.88387 0.0
C1179 C 0.16287 0.92177 0.86832 0.0
Co1180 Co 0.57411 0.84502 0.49319 0.0
Co1181 Co 0.61699 0.88095 0.44411 0.0
O1182 O 0.60523 0.84628 0.46506 0.0
C1183 C 0.55383 0.80312 0.44951 0.0
O1184 O 0.56405 0.81944 0.42888 0.0
C1185 C 0.66752 0.8659 0.47899 0.0
O1186 O 0.6494 0.86154 0.50016 0.0
O1187 O 0.61342 0.90593 0.47896 0.0
O1188 O 0.58802 0.88088 0.51138 0.0
H1189 H 0.6098 0.98403 0.41252 0.0
H1190 H 0.61082 0.79377 0.48498 0.0
O1191 O 0.55839 0.80917 0.47581 0.0
H1192 H 0.62339 0.8212 0.58663 0.0
H1193 H 0.50699 0.79647 0.56296 0.0
H1194 H 0.53439 0.8884 0.51778 0.0
H1195 H 0.59077 0.84866 0.55511 0.0
H1196 H 0.54694 0.79854 0.52814 0.0
O1197 O 0.65821 0.87321 0.45425 0.0
H1198 H 0.59493 0.94059 0.43906 0.0
H1199 H 0.6653 0.89408 0.40411 0.0
H1200 H 0.49451 0.88735 0.55272 0.0
H1201 H 0.6435 0.76552 0.51581 0.0
H1202 H 0.48055 0.84113 0.57554 0.0
H1203 H 0.65 0.77927 0.56701 0.0
O1204 O 0.54864 0.86771 0.46747 0.0
H1205 H 0.64914 0.79427 0.38825 0.0
H1206 H 0.59598 0.8859 0.38377 0.0
H1207 H 0.59935 0.85555 0.34041 0.0
H1208 H 0.62614 0.8094 0.34248 0.0
H1209 H 0.64503 0.82518 0.43116 0.0
H1210 H 0.68109 0.93709 0.37736 0.0
H1211 H 0.65318 0.98244 0.3814 0.0
O1212 O 0.57615 0.88952 0.43413 0.0
C1213 C 0.60177 0.9032 0.50365 0.0
C1214 C 0.62208 0.96437 0.41049 0.0
C1215 C 0.66211 0.93803 0.3908 0.0
N1216 N 0.62906 0.91476 0.4229 0.0
C1217 C 0.6137 0.93967 0.42539 0.0
C1218 C 0.6531 0.91376 0.40603 0.0
C1219 C 0.64643 0.96347 0.39306 0.0
C1220 C 0.61338 0.7997 0.50731 0.0
N1221 N 0.59885 0.82274 0.51827 0.0
C1222 C 0.63198 0.78371 0.52463 0.0
C1223 C 0.63564 0.79146 0.55334 0.0
C1224 C 0.62073 0.81499 0.56437 0.0
C1225 C 0.60234 0.8305 0.5464 0.0
C1226 C 0.51293 0.81676 0.55323 0.0
C1227 C 0.5286 0.86824 0.5278 0.0
C1228 C 0.53551 0.81806 0.53347 0.0
N1229 N 0.54316 0.84362 0.52113 0.0
C1230 C 0.50594 0.86777 0.54749 0.0
C1231 C 0.4981 0.84182 0.56027 0.0
C1232 C 0.5518 0.88362 0.44533 0.0
C1233 C 0.63747 0.81437 0.38706 0.0
C1234 C 0.60759 0.8658 0.38485 0.0
C1235 C 0.60948 0.84874 0.36022 0.0
C1236 C 0.62453 0.82285 0.36139 0.0
N1237 N 0.62042 0.85737 0.40991 0.0
C1238 C 0.63516 0.832 0.41125 0.0
Co1239 Co 0.58183 0.15516 0.98214 0.0
Co1240 Co 0.6248 0.11592 0.02831 0.0
O1241 O 0.61406 0.15142 0.00856 0.0
C1242 C 0.56306 0.19846 0.02554 0.0
O1243 O 0.56321 0.17865 0.04564 0.0
C1244 C 0.67498 0.12934 0.99243 0.0
O1245 O 0.65674 0.13368 0.97137 0.0
O1246 O 0.61945 0.09216 0.99295 0.0
O1247 O 0.59141 0.11807 0.96351 0.0
H1248 H 0.61403 0.01254 0.05778 0.0
H1249 H 0.62371 0.20278 0.98781 0.0
O1250 O 0.57125 0.19268 5e-05 0.0
H1251 H 0.62762 0.17403 0.88582 0.0
H1252 H 0.51577 0.20985 0.91607 0.0
H1253 H 0.53722 0.11557 0.95963 0.0
H1254 H 0.59452 0.14984 0.91945 0.0
H1255 H 0.55701 0.20406 0.94884 0.0
O1256 O 0.66587 0.12244 0.01736 0.0
H1257 H 0.6003 0.05719 0.03269 0.0
H1258 H 0.67358 0.09975 0.0665 0.0
H1259 H 0.49593 0.12035 0.92675 0.0
H1260 H 0.65698 0.22773 0.95486 0.0
H1261 H 0.48497 0.16776 0.90473 0.0
H1262 H 0.65913 0.2133 0.90348 0.0
O1263 O 0.55584 0.13438 0.00914 0.0
H1264 H 0.66149 0.1997 0.08569 0.0
H1265 H 0.60496 0.11012 0.08899 0.0
H1266 H 0.61052 0.13905 0.13307 0.0
H1267 H 0.63903 0.18416 0.13161 0.0
H1268 H 0.65518 0.17023 0.04205 0.0
H1269 H 0.68825 0.05546 0.09177 0.0
H1270 H 0.6583 0.01148 0.08758 0.0
O1271 O 0.584 0.1087 0.03897 0.0
C1272 C 0.60552 0.09544 0.96957 0.0
C1273 C 0.6272 0.03158 0.05985 0.0
C1274 C 0.66889 0.05567 0.0789 0.0
N1275 N 0.636 0.08111 0.04833 0.0
C1276 C 0.61949 0.05696 0.04577 0.0
C1277 C 0.66051 0.08066 0.0645 0.0
C1278 C 0.65206 0.031 0.07654 0.0
C1279 C 0.62436 0.19656 0.96542 0.0
N1280 N 0.60712 0.17496 0.95554 0.0
C1281 C 0.64331 0.21069 0.94689 0.0
C1282 C 0.64453 0.20256 0.91807 0.0
C1283 C 0.62687 0.18051 0.90815 0.0
C1284 C 0.60821 0.16685 0.92731 0.0
C1285 C 0.52036 0.18906 0.92547 0.0
C1286 C 0.53272 0.13623 0.94997 0.0
C1287 C 0.54366 0.18566 0.94409 0.0
N1288 N 0.54967 0.15944 0.95596 0.0
C1289 C 0.50925 0.13882 0.93144 0.0
C1290 C 0.50309 0.16544 0.91912 0.0
C1291 C 0.55941 0.11666 0.02984 0.0
C1292 C 0.64908 0.18005 0.08662 0.0
C1293 C 0.6173 0.12978 0.08816 0.0
C1294 C 0.62043 0.14604 0.1132 0.0
C1295 C 0.63644 0.17133 0.11237 0.0
N1296 N 0.62986 0.13842 0.06302 0.0
C1297 C 0.64551 0.16324 0.06201 0.0
Co1298 Co 0.42364 0.35402 0.98101 0.0
Co1299 Co 0.37896 0.39217 0.0265 0.0
O1300 O 0.39129 0.35662 0.00762 0.0
C1301 C 0.442 0.31527 0.02821 0.0
O1302 O 0.43025 0.33249 0.0472 0.0
C1303 C 0.32966 0.37635 0.99005 0.0
O1304 O 0.34829 0.37077 0.96962 0.0
O1305 O 0.38475 0.41561 0.99085 0.0
O1306 O 0.41021 0.38857 0.96011 0.0
H1307 H 0.38622 0.4963 0.05422 0.0
H1308 H 0.38716 0.30289 0.99083 0.0
O1309 O 0.43888 0.31959 0.00136 0.0
H1310 H 0.37868 0.32404 0.88724 0.0
H1311 H 0.49419 0.30179 0.91763 0.0
H1312 H 0.46397 0.39617 0.95526 0.0
H1313 H 0.40948 0.35385 0.91841 0.0
H1314 H 0.45275 0.3057 0.95048 0.0
O1315 O 0.33829 0.3846 0.0147 0.0
H1316 H 0.40175 0.45159 0.03035 0.0
H1317 H 0.32881 0.40767 0.06329 0.0
H1318 H 0.50532 0.39329 0.9222 0.0
H1319 H 0.35626 0.27235 0.96041 0.0
H1320 H 0.52071 0.34582 0.90318 0.0
H1321 H 0.35184 0.28293 0.90823 0.0
O1322 O 0.44797 0.37853 0.00623 0.0
H1323 H 0.34275 0.30828 0.08416 0.0
H1324 H 0.39681 0.39936 0.08763 0.0
H1325 H 0.39072 0.37088 0.13199 0.0
H1326 H 0.36346 0.32502 0.13043 0.0
H1327 H 0.34956 0.33731 0.04026 0.0
H1328 H 0.31235 0.45198 0.08733 0.0
H1329 H 0.3412 0.49668 0.08296 0.0
O1330 O 0.41921 0.40053 0.03824 0.0
C1331 C 0.39694 0.41157 0.96659 0.0
C1332 C 0.37351 0.47694 0.05637 0.0
C1333 C 0.33203 0.45207 0.07492 0.0
N1334 N 0.36634 0.42699 0.04564 0.0
C1335 C 0.38224 0.45153 0.04298 0.0
C1336 C 0.34143 0.42706 0.06122 0.0
C1337 C 0.34823 0.47714 0.07247 0.0
C1338 C 0.38549 0.30746 0.9681 0.0
N1339 N 0.40018 0.33001 0.95637 0.0
C1340 C 0.3679 0.29017 0.951 0.0
C1341 C 0.3654 0.29613 0.92173 0.0
C1342 C 0.38044 0.31921 0.90994 0.0
C1343 C 0.3978 0.33605 0.9277 0.0
C1344 C 0.48764 0.32261 0.92569 0.0
C1345 C 0.47037 0.37547 0.94686 0.0
C1346 C 0.46421 0.32495 0.94433 0.0
N1347 N 0.45576 0.35118 0.95455 0.0
C1348 C 0.49387 0.37396 0.92824 0.0
C1349 C 0.50251 0.34732 0.9176 0.0
C1350 C 0.44394 0.39488 0.02788 0.0
C1351 C 0.3546 0.32826 0.08513 0.0
C1352 C 0.385 0.37937 0.08677 0.0
C1353 C 0.38157 0.36338 0.11197 0.0
C1354 C 0.36626 0.33765 0.11108 0.0
N1355 N 0.37342 0.37006 0.06143 0.0
C1356 C 0.35844 0.34483 0.06037 0.0
Co1357 Co 0.93759 0.14562 0.0055 0.0
Co1358 Co 0.89708 0.11103 0.95391 0.0
O1359 O 0.90662 0.1443 0.97755 0.0
C1360 C 0.95315 0.19368 0.96653 0.0
O1361 O 0.95181 0.17595 0.94462 0.0
C1362 C 0.84593 0.12171 0.98884 0.0
O1363 O 0.86381 0.12312 0.01058 0.0
O1364 O 0.90066 0.08395 0.98699 0.0
O1365 O 0.92821 0.10638 0.01958 0.0
H1366 H 0.90906 0.01093 0.91514 0.0
H1367 H 0.89479 0.19281 0.00353 0.0
O1368 O 0.94772 0.18502 0.99195 0.0
H1369 H 0.88774 0.15251 0.1014 0.0
H1370 H -0.0003 0.19381 0.07981 0.0
H1371 H 0.98223 0.10461 0.02532 0.0
H1372 H 0.92273 0.133 0.06665 0.0
H1373 H 0.96001 0.19101 0.04478 0.0
O1374 O 0.85545 0.11692 0.96356 0.0
H1375 H 0.92155 0.05276 0.94519 0.0
H1376 H 0.85029 0.09913 0.91194 0.0
H1377 H 0.02198 0.1064 0.06032 0.0
H1378 H 0.85966 0.21314 0.03768 0.0
H1379 H 0.03092 0.15125 0.08786 0.0
H1380 H 0.85591 0.19288 0.08697 0.0
O1381 O 0.96492 0.1287 0.97739 0.0
H1382 H 0.86366 0.20041 0.90319 0.0
H1383 H 0.92004 0.11109 0.89409 0.0
H1384 H 0.91698 0.14434 0.85286 0.0
H1385 H 0.88858 0.18935 0.85725 0.0
H1386 H 0.86748 0.16667 0.94396 0.0
H1387 H 0.83684 0.05768 0.88171 0.0
H1388 H 0.86641 0.01324 0.88311 0.0
O1389 O 0.93857 0.10458 0.94471 0.0
C1390 C 0.91406 0.08463 0.01089 0.0
C1391 C 0.89607 0.03021 0.91425 0.0
C1392 C 0.85551 0.05644 0.89552 0.0
N1393 N 0.88685 0.07844 0.93007 0.0
C1394 C 0.9031 0.054 0.93114 0.0
C1395 C 0.8632 0.07981 0.91271 0.0
C1396 C 0.87212 0.03151 0.89631 0.0
C1397 C 0.89348 0.18408 0.02504 0.0
N1398 N 0.91088 0.16184 0.03313 0.0
C1399 C 0.87347 0.1956 0.04424 0.0
C1400 C 0.87134 0.18419 0.07188 0.0
C1401 C 0.88919 0.16153 0.07998 0.0
C1402 C 0.90892 0.15053 0.0602 0.0
C1403 C 0.99598 0.17413 0.06799 0.0
C1404 C 0.98586 0.12415 0.03736 0.0
C1405 C 0.97357 0.17243 0.04809 0.0
N1406 N 0.96865 0.14759 0.03322 0.0
C1407 C 0.00846 0.12505 0.05708 0.0
C1408 C 0.01348 0.15023 0.0725 0.0
C1409 C 0.96261 0.11255 0.95532 0.0
C1410 C 0.87604 0.18083 0.90099 0.0
C1411 C 0.9077 0.13067 0.89619 0.0
C1412 C 0.906 0.14939 0.87275 0.0
C1413 C 0.89005 0.17463 0.87523 0.0
N1414 N 0.89382 0.13687 0.92134 0.0
C1415 C 0.87819 0.1616 0.92396 0.0
H1416 H 0.06401 0.07196 0.55304 0.0
H1417 H 0.12717 0.03384 0.4965 0.0
H1418 H 0.10108 0.05182 0.45483 0.0
H1419 H 0.05813 0.07331 0.43453 0.0
H1420 H 0.9928 0.10865 0.49029 0.0
H1421 H 0.02248 0.09738 0.53225 0.0
C1422 C 0.07232 0.0679 0.53163 0.0
C1423 C 0.09735 0.0512 0.52796 0.0
C1424 C 0.05684 0.07775 0.50764 0.0
C1425 C 0.10781 0.04631 0.50002 0.0
C1426 C 0.09292 0.0566 0.47614 0.0
C1427 C 0.0504 0.079 0.45578 0.0
C1428 C 0.02303 0.09149 0.45919 0.0
C1429 C 0.06703 0.07159 0.47971 0.0
C1430 C 0.01371 0.09897 0.48697 0.0
C1431 C 0.03059 0.09233 0.511 0.0
H1432 H 0.92562 0.41122 0.43499 0.0
H1433 H 0.99653 0.3751 0.48283 0.0
H1434 H 0.97055 0.38347 0.52781 0.0
H1435 H 0.93019 0.40625 0.55359 0.0
H1436 H 0.8612 0.44494 0.50486 0.0
H1437 H 0.88411 0.43027 0.46017 0.0
C1438 C 0.93539 0.40477 0.45516 0.0
C1439 C 0.9632 0.39286 0.45545 0.0
C1440 C 0.92079 0.41043 0.48086 0.0
C1441 C 0.97521 0.38439 0.48189 0.0
C1442 C 0.96043 0.38934 0.50766 0.0
C1443 C 0.91996 0.41113 0.53322 0.0
C1444 C 0.89417 0.42702 0.53264 0.0
C1445 C 0.93359 0.40317 0.50743 0.0
C1446 C 0.8812 0.43307 0.506 0.0
C1447 C 0.89427 0.42466 0.48038 0.0
H1448 H 0.06852 0.92498 0.07779 0.0
H1449 H 0.99899 0.88725 0.02931 0.0
H1450 H 0.02559 0.89523 0.98465 0.0
H1451 H 0.06613 0.91807 0.95917 0.0
H1452 H 0.13412 0.95758 0.00848 0.0
H1453 H 0.11058 0.94344 0.05302 0.0
C1454 C 0.05922 0.91812 0.05755 0.0
C1455 C 0.0316 0.90588 0.05695 0.0
C1456 C 0.07429 0.92328 0.03202 0.0
C1457 C 0.02016 0.89685 0.03045 0.0
C1458 C 0.03531 0.90152 0.00486 0.0
C1459 C 0.07604 0.92313 0.97964 0.0
C1460 C 0.10164 0.93923 0.98045 0.0
C1461 C 0.06204 0.91548 0.00533 0.0
C1462 C 0.11423 0.94555 0.0072 0.0
C1463 C 0.10079 0.93749 0.03272 0.0
H1464 H 0.92728 0.58221 0.08042 0.0
H1465 H 0.99645 0.62155 0.0326 0.0
H1466 H 0.96979 0.61434 0.98782 0.0
H1467 H 0.92929 0.59182 0.96202 0.0
H1468 H 0.86173 0.55065 0.01075 0.0
H1469 H 0.88541 0.56383 0.05545 0.0
C1470 C 0.9365 0.58959 0.06031 0.0
C1471 C 0.96403 0.60207 0.0599 0.0
C1472 C 0.92144 0.58479 0.03474 0.0
C1473 C 0.97535 0.61179 0.03358 0.0
C1474 C 0.96018 0.60752 0.00794 0.0
C1475 C 0.91953 0.5861 0.98241 0.0
C1476 C 0.89397 0.56988 0.98297 0.0
C1477 C 0.93357 0.59327 0.0082 0.0
C1478 C 0.88158 0.56277 0.00963 0.0
C1479 C 0.89508 0.5703 0.03525 0.0
H1480 H 0.44143 0.05777 0.0574 0.0
H1481 H 0.49597 0.00567 0.11162 0.0
H1482 H 0.53672 0.03695 0.10075 0.0
H1483 H 0.55772 0.07577 0.07187 0.0
H1484 H 0.50303 0.12653 0.01641 0.0
H1485 H 0.46135 0.09907 0.03216 0.0
C1486 C 0.4621 0.05335 0.0672 0.0
C1487 C 0.46565 0.02914 0.08504 0.0
C1488 C 0.48547 0.07106 0.06051 0.0
C1489 C 0.49259 0.02406 0.09773 0.0
C1490 C 0.51595 0.04188 0.09143 0.0
C1491 C 0.53666 0.08114 0.06346 0.0
C1492 C 0.53368 0.10297 0.04263 0.0
C1493 C 0.51278 0.06495 0.07221 0.0
C1494 C 0.5061 0.10972 0.03225 0.0
C1495 C 0.48221 0.09398 0.04119 0.0
H1496 H 0.56206 0.45147 0.05993 0.0
H1497 H 0.50652 0.50581 0.11084 0.0
H1498 H 0.46526 0.47609 0.09769 0.0
H1499 H 0.44455 0.43731 0.0684 0.0
H1500 H 0.50051 0.38453 0.01621 0.0
H1501 H 0.54209 0.41116 0.03343 0.0
C1502 C 0.54103 0.45677 0.06848 0.0
C1503 C 0.53744 0.48105 0.08618 0.0
C1504 C 0.51742 0.44 0.06043 0.0
C1505 C 0.50997 0.4873 0.09714 0.0
C1506 C 0.48633 0.47038 0.08952 0.0
C1507 C 0.46585 0.43139 0.061 0.0
C1508 C 0.46929 0.40912 0.04076 0.0
C1509 C 0.48973 0.44707 0.07066 0.0
C1510 C 0.49712 0.40173 0.03154 0.0
C1511 C 0.52096 0.41694 0.04138 0.0
H1512 H 0.54855 0.93005 0.40945 0.0
H1513 H 0.49629 0.86724 0.45366 0.0
H1514 H 0.45293 0.89241 0.43875 0.0
H1515 H 0.43022 0.93436 0.41768 0.0
H1516 H 0.48178 0.99921 0.37571 0.0
H1517 H 0.52505 0.97072 0.3848 0.0
C1518 C 0.52767 0.92165 0.41549 0.0
C1519 C 0.52573 0.89699 0.43299 0.0
C1520 C 0.50272 0.93661 0.40735 0.0
C1521 C 0.49847 0.88637 0.44054 0.0
C1522 C 0.47362 0.90073 0.432 0.0
C1523 C 0.45082 0.94225 0.41013 0.0
C1524 C 0.4527 0.96911 0.39631 0.0
C1525 C 0.47556 0.92624 0.4161 0.0
C1526 C 0.47964 0.97867 0.38648 0.0
C1527 C 0.50443 0.96245 0.39181 0.0
H1528 H 0.4876 0.61163 0.44164 0.0
H1529 H 0.42872 0.55027 0.40463 0.0
H1530 H 0.46912 0.52212 0.38638 0.0
H1531 H 0.52104 0.51179 0.38657 0.0
H1532 H 0.57931 0.57327 0.42465 0.0
H1533 H 0.53921 0.60451 0.43653 0.0
C1534 C 0.48352 0.59231 0.42923 0.0
C1535 C 0.45517 0.58279 0.42504 0.0
C1536 C 0.50678 0.57605 0.41918 0.0
C1537 C 0.45032 0.558 0.40843 0.0
C1538 C 0.47344 0.54179 0.39808 0.0
C1539 C 0.52505 0.53225 0.39698 0.0
C1540 C 0.55319 0.53983 0.40512 0.0
C1541 C 0.50177 0.55011 0.40419 0.0
C1542 C 0.55791 0.56659 0.41843 0.0
C1543 C 0.53496 0.58454 0.42531 0.0
H1544 H 0.07578 0.43598 0.05781 0.0
H1545 H 0.11302 0.49138 0.99332 0.0
H1546 H 0.10287 0.53333 0.02352 0.0
H1547 H 0.07702 0.55432 0.06491 0.0
H1548 H 0.03676 0.49797 0.12684 0.0
H1549 H 0.05466 0.4562 0.10088 0.0
C1550 C 0.08214 0.45713 0.05042 0.0
C1551 C 0.09471 0.46054 0.0231 0.0
C1552 C 0.07534 0.48101 0.0673 0.0
C1553 C 0.10321 0.48813 0.0142 0.0
C1554 C 0.0972 0.51214 0.03137 0.0
C1555 C 0.07259 0.53292 0.07299 0.0
C1556 C 0.05517 0.52926 0.09752 0.0
C1557 C 0.08227 0.50888 0.05746 0.0
C1558 C 0.04974 0.50137 0.10779 0.0
C1559 C 0.05997 0.47747 0.09297 0.0
H1560 H 0.07605 0.45324 0.43866 0.0
H1561 H 0.00929 0.50135 0.39548 0.0
H1562 H 0.02189 0.54402 0.42312 0.0
H1563 H 0.04831 0.56611 0.4627 0.0
H1564 H 0.11373 0.51749 0.50731 0.0
H1565 H 0.10517 0.47659 0.47565 0.0
C1566 C 0.06443 0.47311 0.43495 0.0
C1567 C 0.04149 0.47388 0.41521 0.0
C1568 C 0.07136 0.49743 0.45132 0.0
C1569 C 0.02692 0.49999 0.41063 0.0
C1570 C 0.03403 0.52442 0.4265 0.0
C1571 C 0.06099 0.54673 0.46538 0.0
C1572 C 0.08143 0.54485 0.48763 0.0
C1573 C 0.05567 0.52314 0.44744 0.0
C1574 C 0.09775 0.51956 0.49051 0.0
C1575 C 0.09282 0.4961 0.47245 0.0
H1576 H 0.92434 0.9181 0.46265 0.0
H1577 H 0.872 0.96785 0.52112 0.0
H1578 H 0.88108 0.01103 0.49257 0.0
H1579 H 0.90807 0.03535 0.45425 0.0
H1580 H 0.9624 0.98546 0.39768 0.0
H1581 H 0.94816 0.94156 0.42243 0.0
C1582 C 0.91454 0.93826 0.46908 0.0
C1583 C 0.89777 0.9397 0.49426 0.0
C1584 C 0.92045 0.96306 0.45308 0.0
C1585 C 0.88509 0.96605 0.50193 0.0
C1586 C 0.8904 0.99081 0.4857 0.0
C1587 C 0.91657 0.01487 0.44705 0.0
C1588 C 0.93659 0.01384 0.42431 0.0
C1589 C 0.90873 0.98969 0.46172 0.0
C1590 C 0.94719 0.98701 0.41527 0.0
C1591 C 0.93907 0.96185 0.42941 0.0
H1592 H 0.41683 0.56844 0.55525 0.0
H1593 H 0.36832 0.51904 0.49346 0.0
H1594 H 0.37834 0.47511 0.52061 0.0
H1595 H 0.40538 0.45032 0.5589 0.0
H1596 H 0.45536 0.50047 0.61899 0.0
H1597 H 0.43993 0.54457 0.5955 0.0
C1598 C 0.40808 0.54817 0.54779 0.0
C1599 C 0.39214 0.54706 0.52212 0.0
C1600 C 0.41436 0.52306 0.5631 0.0
C1601 C 0.38075 0.52056 0.51309 0.0
C1602 C 0.38659 0.49539 0.52854 0.0
C1603 C 0.41255 0.4709 0.56714 0.0
C1604 C 0.43186 0.472 0.59043 0.0
C1605 C 0.40405 0.4963 0.55314 0.0
C1606 C 0.44081 0.49891 0.60088 0.0
C1607 C 0.43201 0.52419 0.58746 0.0
H1608 H 0.53673 0.59413 0.04453 0.0
H1609 H 0.611 0.56485 0.99701 0.0
H1610 H 0.58879 0.58002 0.95219 0.0
H1611 H 0.54629 0.59546 0.92612 0.0
H1612 H 0.47085 0.62326 0.97232 0.0
H1613 H 0.49575 0.61533 0.01806 0.0
C1614 C 0.54829 0.5916 0.02444 0.0
C1615 C 0.5753 0.57789 0.02415 0.0
C1616 C 0.53511 0.59987 0.99848 0.0
C1617 C 0.59001 0.57491 0.99789 0.0
C1618 C 0.57733 0.58356 0.97218 0.0
C1619 C 0.53535 0.60021 0.94613 0.0
C1620 C 0.50659 0.60947 0.94577 0.0
C1621 C 0.54953 0.59507 0.97216 0.0
C1622 C 0.49296 0.61601 0.97196 0.0
C1623 C 0.50714 0.61129 0.99813 0.0
H1624 H 0.4155 0.94692 0.99059 0.0
H1625 H 0.47092 0.9046 0.05193 0.0
H1626 H 0.50087 0.88669 0.01269 0.0
H1627 H 0.51415 0.88749 0.96135 0.0
H1628 H 0.45876 0.93114 0.90085 0.0
H1629 H 0.42585 0.94361 0.93945 0.0
C1630 C 0.4338 0.93337 0.99551 0.0
C1631 C 0.44099 0.92743 0.0243 0.0
C1632 C 0.45113 0.92346 0.97294 0.0
C1633 C 0.46486 0.90973 0.03003 0.0
C1634 C 0.4821 0.89951 0.00758 0.0
C1635 C 0.49463 0.89926 0.9565 0.0
C1636 C 0.48921 0.90859 0.92819 0.0
C1637 C 0.47587 0.9069 0.97898 0.0
C1638 C 0.46372 0.92384 0.9224 0.0
C1639 C 0.44484 0.93108 0.9445 0.0
H1640 H 0.55498 0.41951 0.57 0.0
H1641 H 0.48684 0.38095 0.52021 0.0
H1642 H 0.51215 0.39327 0.47577 0.0
H1643 H 0.55091 0.42 0.45117 0.0
H1644 H 0.61715 0.46058 0.502 0.0
H1645 H 0.59517 0.44243 0.54586 0.0
C1646 C 0.54572 0.41337 0.5495 0.0
C1647 C 0.51882 0.3996 0.54855 0.0
C1648 C 0.5599 0.42124 0.52412 0.0
C1649 C 0.50746 0.39162 0.52167 0.0
C1650 C 0.52185 0.39884 0.49621 0.0
C1651 C 0.56074 0.42453 0.47181 0.0
C1652 C 0.58542 0.442 0.47325 0.0
C1653 C 0.54766 0.41445 0.49717 0.0
C1654 C 0.59792 0.44758 0.50022 0.0
C1655 C 0.58541 0.43715 0.52536 0.0
H1656 H 0.45886 0.0771 0.56185 0.0
H1657 H 0.52053 0.12029 0.50752 0.0
H1658 H 0.49021 0.11109 0.46555 0.0
H1659 H 0.44934 0.08534 0.44376 0.0
H1660 H 0.38964 0.04008 0.49874 0.0
H1661 H 0.41608 0.0558 0.54101 0.0
C1662 C 0.46561 0.08493 0.54094 0.0
C1663 C 0.49219 0.09901 0.53785 0.0
C1664 C 0.44853 0.07894 0.51693 0.0
C1665 C 0.50025 0.10929 0.51056 0.0
C1666 C 0.48299 0.10388 0.48651 0.0
C1667 C 0.44182 0.07931 0.465 0.0
C1668 C 0.41778 0.06114 0.46799 0.0
C1669 C 0.45755 0.08788 0.48933 0.0
C1670 C 0.40829 0.05369 0.49573 0.0
C1671 C 0.4234 0.06266 0.51996 0.0
H1672 H 0.98962 0.59606 0.57776 0.0
H1673 H 0.05094 0.53305 0.60743 0.0
H1674 H 0.01154 0.50182 0.62285 0.0
H1675 H 0.95961 0.49018 0.62229 0.0
H1676 H 0.89956 0.55393 0.59118 0.0
H1677 H 0.93867 0.58716 0.58235 0.0
C1678 C 0.99459 0.57581 0.58811 0.0
C1679 C 0.02329 0.5669 0.59107 0.0
C1680 C 0.97197 0.55788 0.59647 0.0
C1681 C 0.02906 0.5405 0.60471 0.0
C1682 C 0.00651 0.52253 0.61341 0.0
C1683 C 0.95504 0.51153 0.6141 0.0
C1684 C 0.92663 0.51929 0.60707 0.0
C1685 C 0.97784 0.53063 0.60855 0.0
C1686 C 0.92116 0.54712 0.59651 0.0
C1687 C 0.94355 0.56623 0.59139 0.0
H1688 H 0.9993 0.88156 0.56761 0.0
H1689 H 0.94327 0.94194 0.61042 0.0
H1690 H 0.98479 0.97096 0.62425 0.0
H1691 H 0.03644 0.98197 0.61917 0.0
H1692 H 0.09137 0.92164 0.57466 0.0
H1693 H 0.05081 0.88991 0.56673 0.0
C1694 C 0.99609 0.90088 0.58027 0.0
C1695 C 0.96813 0.90977 0.58751 0.0
C1696 C 0.01989 0.91769 0.58767 0.0
C1697 C 0.96452 0.93464 0.60435 0.0
C1698 C 0.98826 0.95135 0.61216 0.0
C1699 C 0.03963 0.96167 0.60816 0.0
C1700 C 0.06695 0.95448 0.59725 0.0
C1701 C 0.01599 0.94353 0.60317 0.0
C1702 C 0.07063 0.92799 0.58308 0.0
C1703 C 0.0474 0.90975 0.57847 0.0
H1704 H 0.9905 0.40459 0.94449 0.0
H1705 H 0.04945 0.46628 0.90798 0.0
H1706 H 0.00911 0.49534 0.89116 0.0
H1707 H 0.95726 0.50585 0.89169 0.0
H1708 H 0.89882 0.44377 0.92866 0.0
H1709 H 0.93884 0.41224 0.94001 0.0
C1710 C 0.99458 0.42424 0.93258 0.0
C1711 C 0.02296 0.43347 0.92799 0.0
C1712 C 0.97135 0.44091 0.92312 0.0
C1713 C 0.02782 0.45873 0.91204 0.0
C1714 C 0.00475 0.47544 0.90247 0.0
C1715 C 0.95319 0.4852 0.90173 0.0
C1716 C 0.92502 0.47752 0.90967 0.0
C1717 C 0.97642 0.46714 0.9086 0.0
C1718 C 0.92024 0.45052 0.92255 0.0
C1719 C 0.94315 0.43241 0.92916 0.0
H1720 H 0.08569 0.06362 0.93103 0.0
H1721 H 0.03606 0.00086 0.88395 0.0
H1722 H 0.99254 0.02908 0.89196 0.0
H1723 H 0.96792 0.06847 0.91702 0.0
H1724 H 0.0177 0.12957 0.9661 0.0
H1725 H 0.06185 0.10512 0.95225 0.0
C1726 C 0.06547 0.05619 0.92215 0.0
C1727 C 0.06418 0.0299 0.90723 0.0
C1728 C 0.04046 0.07213 0.92735 0.0
C1729 C 0.03774 0.0209 0.89568 0.0
C1730 C 0.01279 0.03698 0.90033 0.0
C1731 C 0.98843 0.07675 0.92433 0.0
C1732 C 0.98938 0.10061 0.94293 0.0
C1733 C 0.01378 0.06218 0.91685 0.0
C1734 C 0.01623 0.11107 0.95204 0.0
C1735 C 0.04154 0.09708 0.94417 0.0
H1736 H 0.57263 0.99642 0.59627 0.0
H1737 H 0.6051 0.05266 0.52994 0.0
H1738 H 0.61993 0.01104 0.50151 0.0
H1739 H 0.6182 0.95872 0.49307 0.0
H1740 H 0.585 0.90318 0.55982 0.0
H1741 H 0.57631 0.94449 0.59048 0.0
C1742 C 0.58326 0.99963 0.57574 0.0
C1743 C 0.58723 0.0276 0.56503 0.0
C1744 C 0.59148 0.97569 0.55943 0.0
C1745 C 0.60155 0.03136 0.53864 0.0
C1746 C 0.60995 0.00755 0.52229 0.0
C1747 C 0.60961 0.95559 0.51452 0.0
C1748 C 0.60186 0.92784 0.52383 0.0
C1749 C 0.60422 0.97959 0.5321 0.0
C1750 C 0.59086 0.92425 0.55183 0.0
C1751 C 0.5858 0.9479 0.56945 0.0
H1752 H 0.62397 0.04003 0.977 0.0
H1753 H 0.58236 0.09628 0.91577 0.0
H1754 H 0.57205 0.05561 0.88483 0.0
H1755 H 0.57002 0.00406 0.87757 0.0
H1756 H 0.61118 0.94687 0.93807 0.0
H1757 H 0.62652 0.98807 0.96675 0.0
C1758 C 0.6131 0.04348 0.95667 0.0
C1759 C 0.60365 0.07121 0.94902 0.0
C1760 C 0.60685 0.01983 0.93892 0.0
C1761 C 0.58967 0.07521 0.92248 0.0
C1762 C 0.58367 0.05193 0.9047 0.0
C1763 C 0.58283 0.00044 0.89667 0.0
C1764 C 0.5892 0.97228 0.90564 0.0
C1765 C 0.59143 0.02411 0.9131 0.0
C1766 C 0.6058 0.96827 0.93062 0.0
C1767 C 0.61454 0.99183 0.94712 0.0
H1768 H 0.43742 0.50318 0.87674 0.0
H1769 H 0.39698 0.5603 0.93767 0.0
H1770 H 0.37847 0.51917 0.9645 0.0
H1771 H 0.37905 0.46711 0.97391 0.0
H1772 H 0.41947 0.41038 0.91239 0.0
H1773 H 0.43217 0.45123 0.88244 0.0
C1774 C 0.42425 0.50665 0.89569 0.0
C1775 C 0.41912 0.53474 0.90551 0.0
C1776 C 0.41373 0.48295 0.91105 0.0
C1777 C 0.40151 0.53889 0.92976 0.0
C1778 C 0.39096 0.51536 0.9452 0.0
C1779 C 0.39009 0.46359 0.95367 0.0
C1780 C 0.39875 0.43568 0.94582 0.0
C1781 C 0.3977 0.48729 0.93653 0.0
C1782 C 0.41283 0.4316 0.91931 0.0
C1783 C 0.42024 0.45498 0.90211 0.0
H1784 H 0.93673 0.07916 0.06437 0.0
H1785 H 0.8931 0.03095 0.99811 0.0
H1786 H 0.90023 0.98667 0.02547 0.0
H1787 H 0.92349 0.96114 0.06556 0.0
H1788 H 0.96892 0.00977 0.13029 0.0
H1789 H 0.95604 0.05442 0.10622 0.0
C1790 C 0.92843 0.05907 0.05595 0.0
C1791 C 0.91471 0.05842 0.029 0.0
C1792 C 0.93305 0.03369 0.07147 0.0
C1793 C 0.90388 0.03214 0.01871 0.0
C1794 C 0.90803 0.00676 0.03431 0.0
C1795 C 0.93016 0.98151 0.07469 0.0
C1796 C 0.94749 0.98203 0.09949 0.0
C1797 C 0.92326 0.00719 0.06034 0.0
C1798 C 0.95586 0.00868 0.11104 0.0
C1799 C 0.94855 0.03426 0.09727 0.0
H1800 H 0.02214 0.19242 0.39146 0.0
H1801 H 0.92962 0.19782 0.39637 0.0
H1802 H 0.93214 0.25006 0.39265 0.0
H1803 H 0.96056 0.29426 0.39009 0.0
H1804 H 0.05315 0.28916 0.38703 0.0
H1805 H 0.05058 0.23673 0.38776 0.0
C1806 C 0.00251 0.205 0.39157 0.0
C1807 C 0.97575 0.19121 0.39433 0.0
C1808 C 0.0041 0.23509 0.38981 0.0
C1809 C 0.95053 0.20787 0.39444 0.0
C1810 C 0.95193 0.23776 0.39229 0.0
C1811 C 0.9802 0.28171 0.38938 0.0
C1812 C 0.007 0.29563 0.3886 0.0
C1813 C 0.9786 0.25161 0.39028 0.0
C1814 C 0.03223 0.279 0.38775 0.0
C1815 C 0.03079 0.249 0.38819 0.0
H1816 H 0.03704 0.7113 0.13198 0.0
H1817 H 0.94606 0.69347 0.12918 0.0
H1818 H 0.93572 0.74495 0.12782 0.0
H1819 H 0.95272 0.79503 0.12492 0.0
H1820 H 0.04388 0.81221 0.12826 0.0
H1821 H 0.05382 0.761 0.13193 0.0
C1822 C 0.01492 0.71863 0.13124 0.0
C1823 C 0.99239 0.69856 0.13042 0.0
C1824 C 0.00913 0.74818 0.13038 0.0
C1825 C 0.96384 0.70847 0.12976 0.0
C1826 C 0.9579 0.73791 0.12888 0.0
C1827 C 0.97474 0.78755 0.12655 0.0
C1828 C 0.99749 0.80743 0.126 0.0
C1829 C 0.9804 0.75796 0.12876 0.0
C1830 C 0.02591 0.79741 0.12843 0.0
C1831 C 0.03167 0.76809 0.13054 0.0
H1832 H 0.39641 0.95521 0.20373 0.0
H1833 H 0.39908 0.04521 0.18131 0.0
H1834 H 0.39353 0.05825 0.23191 0.0
H1835 H 0.39023 0.04403 0.28278 0.0
H1836 H 0.38635 0.95391 0.30478 0.0
H1837 H 0.38985 0.94107 0.25409 0.0
C1838 C 0.39568 0.97769 0.20989 0.0
C1839 C 0.39846 0.99919 0.18882 0.0
C1840 C 0.3923 0.98504 0.23897 0.0
C1841 C 0.39708 0.02821 0.19712 0.0
C1842 C 0.39396 0.0357 0.22606 0.0
C1843 C 0.38996 0.02159 0.27647 0.0
C1844 C 0.38829 -1e-05 0.2976 0.0
C1845 C 0.3919 0.01429 0.24721 0.0
C1846 C 0.3877 0.97101 0.28902 0.0
C1847 C 0.38978 0.96361 0.26001 0.0
H1848 H 0.60158 0.55344 0.20934 0.0
H1849 H 0.59451 0.46389 0.18615 0.0
H1850 H 0.59898 0.45005 0.23653 0.0
H1851 H 0.60393 0.46329 0.28736 0.0
H1852 H 0.61277 0.55267 0.31058 0.0
H1853 H 0.60878 0.56655 0.26011 0.0
C1854 C 0.60099 0.53091 0.21534 0.0
C1855 C 0.59748 0.50977 0.19403 0.0
C1856 C 0.60396 0.52302 0.24439 0.0
C1857 C 0.59713 0.48064 0.20211 0.0
C1858 C 0.59967 0.47267 0.23094 0.0
C1859 C 0.60509 0.4858 0.28138 0.0
C1860 C 0.60848 0.50688 0.30276 0.0
C1861 C 0.60297 0.49366 0.25228 0.0
C1862 C 0.61017 0.53595 0.29459 0.0
C1863 C 0.6078 0.54395 0.26571 0.0
H1864 H 0.28588 0.37815 0.02857 0.0
H1865 H 0.30359 0.3729 0.93757 0.0
H1866 H 0.25229 0.37639 0.9271 0.0
H1867 H 0.20271 0.38383 0.94369 0.0
H1868 H 0.18506 0.38806 0.03477 0.0
H1869 H 0.23606 0.38196 0.04526 0.0
C1870 C 0.27851 0.37758 0.00644 0.0
C1871 C 0.29854 0.37558 0.98388 0.0
C1872 C 0.24902 0.37957 0.00057 0.0
C1873 C 0.28863 0.3745 0.95535 0.0
C1874 C 0.2593 0.3766 0.94933 0.0
C1875 C 0.21001 0.38329 0.96584 0.0
C1876 C 0.19017 0.38673 0.9884 0.0
C1877 C 0.23936 0.37962 0.97175 0.0
C1878 C 0.1999 0.38558 0.01699 0.0
C1879 C 0.22907 0.38214 0.02302 0.0
H1880 H 0.20221 0.61109 0.55511 0.0
H1881 H 0.17187 0.61398 0.46743 0.0
H1882 H 0.22125 0.61725 0.45004 0.0
H1883 H 0.2732 0.61664 0.45959 0.0
H1884 H 0.30332 0.61488 0.5474 0.0
H1885 H 0.25391 0.614 0.56478 0.0
C1886 C 0.20639 0.61259 0.5322 0.0
C1887 C 0.18341 0.61198 0.51261 0.0
C1888 C 0.23482 0.61458 0.52232 0.0
C1889 C 0.18917 0.6143 0.483 0.0
C1890 C 0.21742 0.6161 0.473 0.0
C1891 C 0.26894 0.61625 0.48253 0.0
C1892 C 0.29194 0.61553 0.50212 0.0
C1893 C 0.24043 0.61585 0.49245 0.0
C1894 C 0.28605 0.61533 0.5318 0.0
C1895 C 0.25778 0.61476 0.5418 0.0
H1896 H 0.69424 0.86294 0.53076 0.0
H1897 H 0.71106 0.86643 0.4395 0.0
H1898 H 0.76271 0.86775 0.44881 0.0
H1899 H 0.80291 0.87042 0.4829 0.0
H1900 H 0.78576 0.86929 0.57417 0.0
H1901 H 0.73439 0.86444 0.56476 0.0
C1902 C 0.70918 0.86373 0.51287 0.0
C1903 C 0.69879 0.86465 0.48448 0.0
C1904 C 0.73879 0.86507 0.51838 0.0
C1905 C 0.71848 0.86582 0.46157 0.0
C1906 C 0.74802 0.8666 0.46687 0.0
C1907 C 0.78797 0.86891 0.50075 0.0
C1908 C 0.79816 0.87032 0.52919 0.0
C1909 C 0.7584 0.86663 0.4952 0.0
C1910 C 0.77848 0.86842 0.55206 0.0
C1911 C 0.74909 0.86563 0.54671 0.0
H1912 H 0.48051 0.8087 0.86471 0.0
H1913 H 0.5711 0.78988 0.87175 0.0
H1914 H 0.56086 0.73849 0.87083 0.0
H1915 H 0.52621 0.69896 0.87082 0.0
H1916 H 0.43542 0.71746 0.86584 0.0
H1917 H 0.44578 0.76887 0.86297 0.0
C1918 C 0.49803 0.79336 0.86578 0.0
C1919 C 0.52651 0.80315 0.86844 0.0
C1920 C 0.49197 0.76377 0.86575 0.0
C1921 C 0.54895 0.78296 0.86988 0.0
C1922 C 0.54314 0.75354 0.86936 0.0
C1923 C 0.50865 0.71419 0.8689 0.0
C1924 C 0.48008 0.70435 0.86871 0.0
C1925 C 0.51471 0.74371 0.86774 0.0
C1926 C 0.45763 0.72443 0.86617 0.0
C1927 C 0.46352 0.75386 0.86455 0.0
H1928 H 0.53193 0.30161 0.61304 0.0
H1929 H 0.44053 0.28572 0.61241 0.0
H1930 H 0.44931 0.23396 0.61122 0.0
H1931 H 0.48291 0.19329 0.60814 0.0
H1932 H 0.57425 0.20948 0.60679 0.0
H1933 H 0.56546 0.26102 0.6111 0.0
C1934 C 0.51389 0.28685 0.61283 0.0
C1935 C 0.48561 0.29757 0.61272 0.0
C1936 C 0.51908 0.25714 0.61169 0.0
C1937 C 0.46253 0.27808 0.61239 0.0
C1938 C 0.46752 0.24846 0.6117 0.0
C1939 C 0.50091 0.20806 0.609 0.0
C1940 C 0.52919 0.19751 0.60705 0.0
C1941 C 0.49571 0.23775 0.61101 0.0
C1942 C 0.55225 0.217 0.60811 0.0
C1943 C 0.54726 0.2465 0.61057 0.0
H1944 H 0.86574 0.47317 0.81191 0.0
H1945 H 0.8678 0.56474 0.79694 0.0
H1946 H 0.8667 0.55658 0.74505 0.0
H1947 H 0.86681 0.5235 0.70403 0.0
H1948 H 0.86723 0.4319 0.71892 0.0
H1949 H 0.86559 0.44005 0.77082 0.0
C1950 C 0.86576 0.49136 0.79731 0.0
C1951 C 0.86686 0.51952 0.80827 0.0
C1952 C 0.86566 0.48651 0.76751 0.0
C1953 C 0.86708 0.54284 0.78905 0.0
C1954 C 0.86643 0.5382 0.75938 0.0
C1955 C 0.86637 0.50529 0.7186 0.0
C1956 C 0.86715 0.47713 0.70762 0.0
C1957 C 0.86597 0.51013 0.74839 0.0
C1958 C 0.86675 0.45379 0.72682 0.0
C1959 C 0.8658 0.45844 0.7565 0.0
H1960 H 0.13024 0.0348 0.71096 0.0
H1961 H 0.13179 0.94371 0.69332 0.0
H1962 H 0.13203 0.93342 0.74483 0.0
H1963 H 0.12954 0.95029 0.79487 0.0
H1964 H 0.12906 0.04146 0.81225 0.0
H1965 H 0.13073 0.05165 0.76084 0.0
C1966 C 0.13077 0.01269 0.71837 0.0
C1967 C 0.13073 0.99007 0.69833 0.0
C1968 C 0.13097 0.00691 0.74797 0.0
C1969 C 0.13174 0.96155 0.70829 0.0
C1970 C 0.13179 0.95562 0.73775 0.0
C1971 C 0.12989 0.97238 0.7874 0.0
C1972 C 0.12889 0.99506 0.80736 0.0
C1973 C 0.13102 0.97813 0.75778 0.0
C1974 C 0.1297 0.02358 0.79736 0.0
C1975 C 0.13062 0.02945 0.76795 0.0
H1976 H 0.80336 0.12717 0.94904 0.0
H1977 H 0.81864 0.12347 0.04058 0.0
H1978 H 0.76719 0.12651 0.04972 0.0
H1979 H 0.71784 0.12842 0.03186 0.0
H1980 H 0.70216 0.13314 0.94047 0.0
H1981 H 0.75382 0.13174 0.9312 0.0
C1982 C 0.79542 0.12708 0.97098 0.0
C1983 C 0.81479 0.12481 0.99406 0.0
C1984 C 0.76576 0.12903 0.97615 0.0
C1985 C 0.80421 0.12507 0.02239 0.0
C1986 C 0.77477 0.12679 0.02767 0.0
C1987 C 0.7257 0.12926 0.0099 0.0
C1988 C 0.70619 0.13062 0.9869 0.0
C1989 C 0.75536 0.1285 0.00472 0.0
C1990 C 0.71674 0.13201 0.95859 0.0
C1991 C 0.74627 0.13113 0.95325 0.0
H1992 H 0.92836 0.98112 0.21381 0.0
H1993 H 0.01048 0.94382 0.236 0.0
H1994 H 0.01097 0.97055 0.28086 0.0
H1995 H 0.99045 0.00698 0.31177 0.0
H1996 H 0.9086 0.04529 0.29146 0.0
H1997 H 0.90542 0.01546 0.24785 0.0
C1998 C 0.94607 0.97851 0.22873 0.0
C1999 C 0.96952 0.96077 0.22142 0.0
C2000 C 0.94644 0.99432 0.25454 0.0
C2001 C 0.99234 0.95758 0.24094 0.0
C2002 C 0.99269 0.97288 0.26659 0.0
C2003 C 0.97191 0.00893 0.29777 0.0
C2004 C 0.95011 0.02873 0.30431 0.0
C2005 C 0.97029 0.99183 0.27318 0.0
C2006 C 0.92577 0.03034 0.28658 0.0
C2007 C 0.92401 0.01333 0.26171 0.0
H2008 H 0.05884 0.48031 0.30137 0.0
H2009 H 0.9789 0.4393 0.278 0.0
H2010 H 0.97511 0.46984 0.23576 0.0
H2011 H 0.99238 0.50995 0.20732 0.0
H2012 H 0.07231 0.55153 0.2288 0.0
H2013 H 0.07829 0.51891 0.27 0.0
C2014 C 0.04088 0.47775 0.28675 0.0
C2015 C 0.01905 0.45771 0.29302 0.0
C2016 C 0.03861 0.49571 0.26246 0.0
C2017 C 0.99587 0.4547 0.27387 0.0
C2018 C 0.99361 0.47221 0.24973 0.0
C2019 C 0.01109 0.51204 0.22106 0.0
C2020 C 0.03159 0.53348 0.21545 0.0
C2021 C 0.01444 0.49319 0.24423 0.0
C2022 C 0.05611 0.53533 0.23293 0.0
C2023 C 0.05951 0.51669 0.25641 0.0
H2024 H 0.21306 0.97949 0.99483 0.0
H2025 H 0.23561 0.92091 0.92672 0.0
H2026 H 0.28276 0.91267 0.94903 0.0
H2027 H 0.3189 0.92621 0.98547 0.0
H2028 H 0.29464 0.98338 0.05454 0.0
H2029 H 0.24646 0.98754 0.03466 0.0
C2030 C 0.22828 0.96472 0.98507 0.0
C2031 C 0.2214 0.9512 0.95902 0.0
C2032 C 0.25487 0.95981 0.99822 0.0
C2033 C 0.24076 0.93163 0.94674 0.0
C2034 C 0.26763 0.92701 0.95945 0.0
C2035 C 0.3029 0.93914 0.99645 0.0
C2036 C 0.31051 0.95479 0.02119 0.0
C2037 C 0.27514 0.94152 0.98486 0.0
C2038 C 0.28944 0.97115 0.03542 0.0
C2039 C 0.2619 0.97375 0.02395 0.0
H2040 H 0.6883 0.59358 0.01486 0.0
H2041 H 0.71614 0.52264 0.06798 0.0
H2042 H 0.76038 0.51882 0.04035 0.0
H2043 H 0.78818 0.53144 0.99791 0.0
H2044 H 0.76187 0.60204 0.94402 0.0
H2045 H 0.71994 0.61042 0.97525 0.0
C2046 C 0.70441 0.57782 0.02083 0.0
C2047 C 0.6988 0.55818 0.04322 0.0
C2048 C 0.72973 0.57535 0.00443 0.0
C2049 C 0.71983 0.53782 0.05067 0.0
C2050 C 0.74507 0.5355 0.03481 0.0
C2051 C 0.77331 0.54878 0.9931 0.0
C2052 C 0.77749 0.56571 0.96848 0.0
C2053 C 0.74969 0.55341 0.01106 0.0
C2054 C 0.75873 0.58861 0.96279 0.0
C2055 C 0.73483 0.59332 0.9806 0.0
H2056 H 0.31146 0.00934 0.48833 0.0
H2057 H 0.2829 0.08162 0.43787 0.0
H2058 H 0.24118 0.08759 0.46989 0.0
H2059 H 0.21085 0.06894 0.50976 0.0
H2060 H 0.24122 0.99662 0.55958 0.0
H2061 H 0.28454 0.99427 0.53045 0.0
C2062 C 0.2961 0.02645 0.48432 0.0
C2063 C 0.29972 0.04462 0.46049 0.0
C2064 C 0.27262 0.02976 0.50277 0.0
C2065 C 0.28026 0.06722 0.456 0.0
C2066 C 0.25648 0.07058 0.47426 0.0
C2067 C 0.22725 0.0531 0.51461 0.0
C2068 C 0.22262 0.03276 0.53661 0.0
C2069 C 0.25215 0.05157 0.49743 0.0
C2070 C 0.24408 0.01234 0.54261 0.0
C2071 C 0.26884 0.01088 0.5259 0.0
H2072 H 0.78349 0.41337 0.51185 0.0
H2073 H 0.75225 0.47902 0.56969 0.0
H2074 H 0.71096 0.48718 0.53873 0.0
H2075 H 0.68657 0.4796 0.49305 0.0
H2076 H 0.71581 0.41365 0.43498 0.0
H2077 H 0.75511 0.40153 0.46827 0.0
C2078 C 0.76729 0.42895 0.51802 0.0
C2079 C 0.77123 0.44584 0.54288 0.0
C2080 C 0.74358 0.43384 0.49986 0.0
C2081 C 0.74997 0.46593 0.55055 0.0
C2082 C 0.72639 0.47074 0.5328 0.0
C2083 C 0.70154 0.46249 0.48773 0.0
C2084 C 0.69893 0.44795 0.46144 0.0
C2085 C 0.72355 0.45555 0.50699 0.0
C2086 C 0.71777 0.42529 0.45505 0.0
C2087 C 0.74015 0.41842 0.47405 0.0
H2088 H 0.001 0.31802 0.98139 0.0
H2089 H 0.04899 0.29508 0.90548 0.0
H2090 H 0.02183 0.24982 0.90194 0.0
H2091 H 0.98793 0.21482 0.92404 0.0
H2092 H 0.94207 0.23889 0.00115 0.0
H2093 H 0.96486 0.28592 0.00053 0.0
C2094 C 0.00552 0.30317 0.96398 0.0
C2095 C 0.02733 0.30943 0.94408 0.0
C2096 C 0.99023 0.27744 0.9624 0.0
C2097 C 0.03238 0.29049 0.92116 0.0
C2098 C 0.01695 0.26465 0.91924 0.0
C2099 C 0.98257 0.23062 0.94032 0.0
C2100 C 0.9636 0.22334 0.96279 0.0
C2101 C 0.9963 0.25758 0.94022 0.0
C2102 C 0.95686 0.2439 0.98384 0.0
C2103 C 0.96988 0.27078 0.98354 0.0
H2104 H 0.98243 0.68771 0.59674 0.0
H2105 H 0.05021 0.71551 0.53963 0.0
H2106 H 0.02993 0.76373 0.53851 0.0
H2107 H 0.9897 0.79607 0.54856 0.0
H2108 H 0.92234 0.76967 0.60641 0.0
H2109 H 0.94576 0.72271 0.61262 0.0
C2110 C 0.99306 0.70447 0.58451 0.0
C2111 C 0.01751 0.69787 0.56792 0.0
C2112 C 0.98116 0.73222 0.58379 0.0
C2113 C 0.03131 0.71991 0.5525 0.0
C2114 C 0.01961 0.74749 0.55166 0.0
C2115 C 0.9804 0.7801 0.56283 0.0
C2116 C 0.95422 0.78584 0.57665 0.0
C2117 C 0.99403 0.75354 0.56637 0.0
C2118 C 0.94249 0.76545 0.59551 0.0
C2119 C 0.9558 0.73867 0.59893 0.0
H2120 H 0.50703 0.79069 0.48039 0.0
H2121 H 0.55305 0.76525 0.40409 0.0
H2122 H 0.51895 0.72552 0.39665 0.0
H2123 H 0.47841 0.69586 0.41475 0.0
H2124 H 0.43296 0.72317 0.49106 0.0
H2125 H 0.46431 0.76471 0.49533 0.0
C2126 C 0.50964 0.77643 0.46211 0.0
C2127 C 0.53281 0.78031 0.44318 0.0
C2128 C 0.48998 0.75413 0.45794 0.0
C2129 C 0.53547 0.76235 0.41909 0.0
C2130 C 0.51601 0.73971 0.41489 0.0
C2131 C 0.47499 0.71125 0.43192 0.0
C2132 C 0.45356 0.7062 0.45275 0.0
C2133 C 0.49344 0.73509 0.43451 0.0
C2134 C 0.44944 0.72635 0.4749 0.0
C2135 C 0.46743 0.75008 0.47745 0.0
H2136 H 0.4162 0.51292 0.78939 0.0
H2137 H 0.49911 0.55156 0.77326 0.0
H2138 H 0.50645 0.51985 0.73244 0.0
H2139 H 0.4907 0.48007 0.70255 0.0
H2140 H 0.40748 0.4417 0.71624 0.0
H2141 H 0.39895 0.47433 0.75688 0.0
C2142 C 0.43568 0.51467 0.77669 0.0
C2143 C 0.45714 0.5345 0.78462 0.0
C2144 C 0.43991 0.49617 0.75307 0.0
C2145 C 0.48227 0.53642 0.76788 0.0
C2146 C 0.48659 0.51821 0.74453 0.0
C2147 C 0.47075 0.47862 0.71453 0.0
C2148 C 0.44997 0.45815 0.70677 0.0
C2149 C 0.46583 0.4977 0.73727 0.0
C2150 C 0.42392 0.45712 0.72203 0.0
C2151 C 0.41903 0.47582 0.74517 0.0
H2152 H 0.59861 0.00683 0.78605 0.0
H2153 H 0.54075 0.94014 0.75757 0.0
H2154 H 0.53874 0.96186 0.7099 0.0
H2155 H 0.54837 0.00307 0.67843 0.0
H2156 H 0.60729 0.06911 0.70556 0.0
H2157 H 0.61409 0.04434 0.75175 0.0
C2158 C 0.58605 0.99673 0.76922 0.0
C2159 C 0.56951 0.97216 0.7755 0.0
C2160 C 0.58486 0.00944 0.74182 0.0
C2161 C 0.55363 0.95908 0.75339 0.0
C2162 C 0.55227 0.97162 0.72615 0.0
C2163 C 0.56299 0.01179 0.69438 0.0
C2164 C 0.57697 0.03801 0.68906 0.0
C2165 C 0.56695 0.99732 0.7205 0.0
C2166 C 0.59626 0.04897 0.70943 0.0
C2167 C 0.60004 0.03487 0.73578 0.0
H2168 H 0.49436 0.31122 0.00576 0.0
H2169 H 0.43937 0.27368 0.07013 0.0
H2170 H 0.4751 0.23556 0.07871 0.0
H2171 H 0.51908 0.20987 0.06268 0.0
H2172 H 0.57266 0.24828 0.99731 0.0
H2173 H 0.54066 0.28962 0.99474 0.0
C2174 C 0.49037 0.2948 0.02189 0.0
C2175 C 0.46423 0.29462 0.0369 0.0
C2176 C 0.51077 0.27328 0.0265 0.0
C2177 C 0.45937 0.27388 0.05822 0.0
C2178 C 0.47973 0.25215 0.06301 0.0
C2179 C 0.52416 0.22772 0.04856 0.0
C2180 C 0.548 0.22596 0.02999 0.0
C2181 C 0.50516 0.25118 0.04663 0.0
C2182 C 0.55429 0.24911 0.01163 0.0
C2183 C 0.53594 0.27265 0.01002 0.0
loop_
_geom_bond_atom_site_label_1
_geom_bond_atom_site_label_2
_geom_bond_distance
_geom_bond_site_symmetry_2
_ccdc_geom_bond_type
Co0 O2 2.143 . S
Co0 O8 2.074 . S
Co0 O11 2.093 . S
Co0 O24 2.097 1_455 S
Co0 N41 2.151 . S
Co0 N49 2.214 . S
Co1 O2 2.160 1_655 S
Co1 O7 2.058 1_655 S
Co1 O17 2.057 . S
Co1 O32 2.037 . S
Co1 N36 2.145 . S
Co1 N57 2.257 . S
O2 Co0 2.143 . S
O2 Co1 2.160 1_455 S
C3 O4 1.278 . S
C3 O11 1.224 1_655 S
O4 C3 1.278 . S
C5 O6 1.237 1_655 S
C5 O17 1.238 . S
O6 C5 1.237 1_455 S
O7 Co1 2.058 1_455 S
O7 C33 1.269 . S
O8 Co0 2.074 . S
O8 C33 1.257 . S
H9 C34 0.930 . S
H10 C40 0.930 . S
O11 Co0 2.093 . S
O11 C3 1.224 1_455 S
H12 C44 0.929 . S
H13 C46 0.930 . S
H14 C47 0.930 . S
H15 C45 0.929 . S
H16 C48 0.928 . S
O17 Co1 2.057 . S
O17 C5 1.238 . S
H18 C37 0.929 . S
H19 C38 0.929 . S
H20 C50 0.931 . S
H21 C42 0.929 . S
H22 C51 0.930 . S
H23 C43 0.931 . S
O24 Co0 2.097 1_655 S
O24 C52 1.214 . S
H25 C53 0.929 . S
H26 C54 0.929 . S
H27 C55 0.930 . S
H28 C56 0.929 . S
H29 C58 0.930 . S
H30 C35 0.930 . S
H31 C39 0.930 . S
O32 Co1 2.037 . S
O32 C52 1.234 . S
C33 O7 1.269 . S
C33 O8 1.257 . S
C34 H9 0.930 . S
C34 C37 1.388 . S
C34 C39 1.418 . S
C35 H30 0.930 . S
C35 C38 1.404 . S
C35 C39 1.353 . S
N36 Co1 2.145 . S
N36 C37 1.397 . S
N36 C38 1.334 . S
C37 H18 0.929 . S
C37 C34 1.388 . S
C37 N36 1.397 . S
C38 H19 0.929 . S
C38 C35 1.404 . S
C38 N36 1.334 . S
C39 H31 0.930 . S
C39 C34 1.418 . S
C39 C35 1.353 . S
C40 H10 0.930 . S
C40 N41 1.330 . S
C40 C42 1.446 . S
N41 Co0 2.151 . S
N41 C40 1.330 . S
N41 C45 1.418 . S
C42 H21 0.929 . S
C42 C40 1.446 . S
C42 C43 1.332 . S
C43 H23 0.931 . S
C43 C42 1.332 . S
C43 C44 1.267 . S
C44 H12 0.929 . S
C44 C43 1.267 . S
C44 C45 1.251 . S
C45 H15 0.929 . S
C45 N41 1.418 . S
C45 C44 1.251 . S
C46 H13 0.930 . S
C46 C48 1.406 . S
C46 C51 1.261 . S
C47 H14 0.930 . S
C47 N49 1.325 1_565 S
C47 C50 1.357 . S
C48 H16 0.928 . S
C48 C46 1.406 . S
C48 N49 1.261 1_565 S
N49 Co0 2.214 . S
N49 C47 1.325 1_545 S
N49 C48 1.261 1_545 S
C50 H20 0.931 . S
C50 C47 1.357 . S
C50 C51 1.312 . S
C51 H22 0.930 . S
C51 C46 1.261 . S
C51 C50 1.312 . S
C52 O24 1.214 . S
C52 O32 1.234 . S
C53 H25 0.929 . S
C53 C56 1.391 . S
C53 C58 1.391 . S
C54 H26 0.929 . S
C54 C55 1.390 . S
C54 N57 1.391 . S
C55 H27 0.930 . S
C55 C54 1.390 . S
C55 C56 1.392 . S
C56 H28 0.929 . S
C56 C53 1.391 . S
C56 C55 1.392 . S
N57 Co1 2.257 . S
N57 C54 1.391 . S
N57 C58 1.388 . S
C58 H29 0.930 . S
C58 C53 1.391 . S
C58 N57 1.388 . S
Co59 O61 2.162 . S
Co59 O67 2.074 . S
Co59 O70 2.093 . S
Co59 O83 2.097 1_655 S
Co59 N100 2.151 . S
Co59 N108 2.214 . S
Co60 O61 2.141 1_455 S
Co60 O66 2.058 1_455 S
Co60 O76 2.057 . S
Co60 O91 2.037 . S
Co60 N95 2.145 . S
Co60 N116 2.257 . S
O61 Co59 2.162 . S
O61 Co60 2.141 1_655 S
C62 O63 1.278 . S
C62 O70 1.224 1_455 S
O63 C62 1.278 . S
C64 O65 1.245 1_455 S
C64 O76 1.232 . S
O65 C64 1.245 1_655 S
O66 Co60 2.058 1_655 S
O66 C92 1.269 . S
O67 Co59 2.074 . S
O67 C92 1.257 . S
H68 C93 0.930 . S
H69 C99 0.930 . S
O70 Co59 2.093 . S
O70 C62 1.224 1_655 S
H71 C103 0.929 . S
H72 C105 0.930 . S
H73 C106 0.930 . S
H74 C104 0.929 . S
H75 C107 0.928 . S
O76 Co60 2.057 . S
O76 C64 1.232 . S
H77 C96 0.929 . S
H78 C97 0.929 . S
H79 C109 0.931 . S
H80 C101 0.929 . S
H81 C110 0.930 . S
H82 C102 0.931 . S
O83 Co59 2.097 1_455 S
O83 C111 1.214 . S
H84 C112 0.929 . S
H85 C113 0.929 . S
H86 C114 0.930 . S
H87 C115 0.929 . S
H88 C117 0.930 . S
H89 C94 0.930 . S
H90 C98 0.930 . S
O91 Co60 2.037 . S
O91 C111 1.234 . S
C92 O66 1.269 . S
C92 O67 1.257 . S
C93 H68 0.930 . S
C93 C96 1.388 . S
C93 C98 1.418 . S
C94 H89 0.930 . S
C94 C97 1.404 . S
C94 C98 1.353 . S
N95 Co60 2.145 . S
N95 C96 1.397 . S
N95 C97 1.334 . S
C96 H77 0.929 . S
C96 C93 1.388 . S
C96 N95 1.397 . S
C97 H78 0.929 . S
C97 C94 1.404 . S
C97 N95 1.334 . S
C98 H90 0.930 . S
C98 C93 1.418 . S
C98 C94 1.353 . S
C99 H69 0.930 . S
C99 N100 1.330 . S
C99 C101 1.446 . S
N100 Co59 2.151 . S
N100 C99 1.330 . S
N100 C104 1.418 . S
C101 H80 0.929 . S
C101 C99 1.446 . S
C101 C102 1.332 . S
C102 H82 0.931 . S
C102 C101 1.332 . S
C102 C103 1.267 . S
C103 H71 0.929 . S
C103 C102 1.267 . S
C103 C104 1.251 . S
C104 H74 0.929 . S
C104 N100 1.418 . S
C104 C103 1.251 . S
C105 H72 0.930 . S
C105 C107 1.406 . S
C105 C110 1.261 . S
C106 H73 0.930 . S
C106 N108 1.325 . S
C106 C109 1.357 . S
C107 H75 0.928 . S
C107 C105 1.406 . S
C107 N108 1.261 . S
N108 Co59 2.214 . S
N108 C106 1.325 . S
N108 C107 1.261 . S
C109 H79 0.931 . S
C109 C106 1.357 . S
C109 C110 1.312 . S
C110 H81 0.930 . S
C110 C105 1.261 . S
C110 C109 1.312 . S
C111 O83 1.214 . S
C111 O91 1.234 . S
C112 H84 0.929 . S
C112 C115 1.391 . S
C112 C117 1.391 . S
C113 H85 0.929 . S
C113 C114 1.390 . S
C113 N116 1.391 . S
C114 H86 0.930 . S
C114 C113 1.390 . S
C114 C115 1.392 . S
C115 H87 0.929 . S
C115 C112 1.391 . S
C115 C114 1.392 . S
N116 Co60 2.257 . S
N116 C113 1.391 . S
N116 C117 1.388 . S
C117 H88 0.930 . S
C117 C112 1.391 . S
C117 N116 1.388 . S
Co118 O120 2.143 . S
Co118 O126 2.074 . S
Co118 O129 2.093 . S
Co118 O142 2.097 1_455 S
Co118 N159 2.151 . S
Co118 N167 2.214 . S
Co119 O120 2.160 1_655 S
Co119 O125 2.058 1_655 S
Co119 O135 2.057 . S
Co119 O150 2.037 . S
Co119 N154 2.145 . S
Co119 N175 2.257 . S
O120 Co118 2.143 . S
O120 Co119 2.160 1_455 S
C121 O122 1.278 . S
C121 O129 1.224 1_655 S
O122 C121 1.278 . S
C123 O124 1.245 1_655 S
C123 O135 1.232 . S
O124 C123 1.245 1_455 S
O125 Co119 2.058 1_455 S
O125 C151 1.269 . S
O126 Co118 2.074 . S
O126 C151 1.257 . S
H127 C152 0.930 . S
H128 C158 0.930 . S
O129 Co118 2.093 . S
O129 C121 1.224 1_455 S
H130 C162 0.929 . S
H131 C164 0.930 . S
H132 C165 0.945 . S
H133 C163 0.929 . S
H134 C166 0.928 1_565 S
O135 Co119 2.057 . S
O135 C123 1.232 . S
H136 C155 0.929 . S
H137 C156 0.929 . S
H138 C168 0.931 . S
H139 C160 0.929 . S
H140 C169 0.930 . S
H141 C161 0.931 . S
O142 Co118 2.097 1_655 S
O142 C170 1.214 . S
H143 C171 0.929 . S
H144 C172 0.929 . S
H145 C173 0.930 . S
H146 C174 0.929 . S
H147 C176 0.930 . S
H148 C153 0.930 . S
H149 C157 0.930 . S
O150 Co119 2.037 . S
O150 C170 1.234 . S
C151 O125 1.269 . S
C151 O126 1.257 . S
C152 H127 0.930 . S
C152 C155 1.388 . S
C152 C157 1.418 . S
C153 H148 0.930 . S
C153 C156 1.404 . S
C153 C157 1.353 . S
N154 Co119 2.145 . S
N154 C155 1.397 . S
N154 C156 1.334 . S
C155 H136 0.929 . S
C155 C152 1.388 . S
C155 N154 1.397 . S
C156 H137 0.929 . S
C156 C153 1.404 . S
C156 N154 1.334 . S
C157 H149 0.930 . S
C157 C152 1.418 . S
C157 C153 1.353 . S
C158 H128 0.930 . S
C158 N159 1.330 . S
C158 C160 1.446 . S
N159 Co118 2.151 . S
N159 C158 1.330 . S
N159 C163 1.418 . S
C160 H139 0.929 . S
C160 C158 1.446 . S
C160 C161 1.332 . S
C161 H141 0.931 . S
C161 C160 1.332 . S
C161 C162 1.267 . S
C162 H130 0.929 . S
C162 C161 1.267 . S
C162 C163 1.251 . S
C163 H133 0.929 . S
C163 N159 1.418 . S
C163 C162 1.251 . S
C164 H131 0.930 . S
C164 C166 1.406 . S
C164 C169 1.261 . S
C165 H132 0.945 . S
C165 N167 1.325 1_545 S
C165 C168 1.357 . S
C166 H134 0.928 1_545 S
C166 C164 1.406 . S
C166 N167 1.261 1_545 S
N167 Co118 2.214 . S
N167 C165 1.325 1_565 S
N167 C166 1.261 1_565 S
C168 H138 0.931 . S
C168 C165 1.357 . S
C168 C169 1.312 . S
C169 H140 0.930 . S
C169 C164 1.261 . S
C169 C168 1.312 . S
C170 O142 1.214 . S
C170 O150 1.234 . S
C171 H143 0.929 . S
C171 C174 1.391 . S
C171 C176 1.391 . S
C172 H144 0.929 . S
C172 C173 1.390 . S
C172 N175 1.391 . S
C173 H145 0.930 . S
C173 C172 1.390 . S
C173 C174 1.392 . S
C174 H146 0.929 . S
C174 C171 1.391 . S
C174 C173 1.392 . S
N175 Co119 2.257 . S
N175 C172 1.391 . S
N175 C176 1.388 . S
C176 H147 0.930 . S
C176 C171 1.391 . S
C176 N175 1.388 . S
Co177 O179 2.143 . S
Co177 O185 2.074 . S
Co177 O188 2.093 . S
Co177 O201 2.097 1_655 S
Co177 N218 2.151 . S
Co177 N226 2.214 . S
Co178 O179 2.160 1_455 S
Co178 O184 2.058 1_455 S
Co178 O194 2.057 . S
Co178 O209 2.037 . S
Co178 N213 2.145 . S
Co178 N234 2.257 . S
O179 Co177 2.143 . S
O179 Co178 2.160 1_655 S
C180 O181 1.278 . S
C180 O188 1.224 1_455 S
O181 C180 1.278 . S
C182 O183 1.245 1_455 S
C182 O194 1.232 . S
O183 C182 1.245 1_655 S
O184 Co178 2.058 1_655 S
O184 C210 1.269 . S
O185 Co177 2.074 . S
O185 C210 1.257 . S
H186 C211 0.930 . S
H187 C217 0.930 . S
O188 Co177 2.093 . S
O188 C180 1.224 1_655 S
H189 C221 0.929 . S
H190 C223 0.930 . S
H191 C224 0.930 . S
H192 C222 0.929 . S
H193 C225 0.928 . S
O194 Co178 2.057 . S
O194 C182 1.232 . S
H195 C214 0.929 . S
H196 C215 0.929 . S
H197 C227 0.931 . S
H198 C219 0.929 . S
H199 C228 0.930 . S
H200 C220 0.931 . S
O201 Co177 2.097 1_455 S
O201 C229 1.214 . S
H202 C230 0.929 . S
H203 C231 0.929 . S
H204 C232 0.930 . S
H205 C233 0.929 . S
H206 C235 0.930 . S
H207 C212 0.930 . S
H208 C216 0.930 . S
O209 Co178 2.037 . S
O209 C229 1.234 . S
C210 O184 1.269 . S
C210 O185 1.257 . S
C211 H186 0.930 . S
C211 C214 1.388 . S
C211 C216 1.418 . S
C212 H207 0.930 . S
C212 C215 1.404 . S
C212 C216 1.353 . S
N213 Co178 2.145 . S
N213 C214 1.397 . S
N213 C215 1.334 . S
C214 H195 0.929 . S
C214 C211 1.388 . S
C214 N213 1.397 . S
C215 H196 0.929 . S
C215 C212 1.404 . S
C215 N213 1.334 . S
C216 H208 0.930 . S
C216 C211 1.418 . S
C216 C212 1.353 . S
C217 H187 0.930 . S
C217 N218 1.330 . S
C217 C219 1.446 . S
N218 Co177 2.151 . S
N218 C217 1.330 . S
N218 C222 1.418 . S
C219 H198 0.929 . S
C219 C217 1.446 . S
C219 C220 1.332 . S
C220 H200 0.931 . S
C220 C219 1.332 . S
C220 C221 1.267 . S
C221 H189 0.929 . S
C221 C220 1.267 . S
C221 C222 1.251 . S
C222 H192 0.929 . S
C222 N218 1.418 . S
C222 C221 1.251 . S
C223 H190 0.930 . S
C223 C225 1.406 . S
C223 C228 1.261 . S
C224 H191 0.930 . S
C224 N226 1.325 . S
C224 C227 1.357 . S
C225 H193 0.928 . S
C225 C223 1.406 . S
C225 N226 1.261 . S
N226 Co177 2.214 . S
N226 C224 1.325 . S
N226 C225 1.261 . S
C227 H197 0.931 . S
C227 C224 1.357 . S
C227 C228 1.312 . S
C228 H199 0.930 . S
C228 C223 1.261 . S
C228 C227 1.312 . S
C229 O201 1.214 . S
C229 O209 1.234 . S
C230 H202 0.929 . S
C230 C233 1.391 . S
C230 C235 1.391 . S
C231 H203 0.929 . S
C231 C232 1.390 . S
C231 N234 1.391 . S
C232 H204 0.930 . S
C232 C231 1.390 . S
C232 C233 1.392 . S
C233 H205 0.929 . S
C233 C230 1.391 . S
C233 C232 1.392 . S
N234 Co178 2.257 . S
N234 C231 1.391 . S
N234 C235 1.388 . S
C235 H206 0.930 . S
C235 C230 1.391 . S
C235 N234 1.388 . S
Co236 O238 2.143 . S
Co236 O244 2.074 . S
Co236 O247 2.093 . S
Co236 O260 2.097 1_545 S
Co236 N277 2.151 . S
Co236 N285 2.214 . S
Co237 O238 2.160 1_565 S
Co237 O243 2.058 1_565 S
Co237 O253 2.057 . S
Co237 O268 2.037 . S
Co237 N272 2.145 . S
Co237 N293 2.257 . S
O238 Co236 2.143 . S
O238 Co237 2.160 1_545 S
C239 O240 1.278 . S
C239 O247 1.224 1_565 S
O240 C239 1.278 . S
C241 O242 1.237 1_565 S
C241 O253 1.238 . S
O242 C241 1.237 1_545 S
O243 Co237 2.058 1_545 S
O243 C269 1.269 . S
O244 Co236 2.074 . S
O244 C269 1.257 . S
H245 C270 0.930 . S
H246 C276 0.930 . S
O247 Co236 2.093 . S
O247 C239 1.224 1_545 S
H248 C280 0.929 . S
H249 C282 0.930 . S
H250 C283 0.930 . S
H251 C281 0.929 . S
H252 C284 0.928 . S
O253 Co237 2.057 . S
O253 C241 1.238 . S
H254 C273 0.929 . S
H255 C274 0.929 . S
H256 C286 0.931 . S
H257 C278 0.929 . S
H258 C287 0.930 . S
H259 C279 0.931 . S
O260 Co236 2.097 1_565 S
O260 C288 1.214 . S
H261 C289 0.929 . S
H262 C290 0.929 . S
H263 C291 0.930 . S
H264 C292 0.929 . S
H265 C294 0.930 . S
H266 C271 0.930 . S
H267 C275 0.930 . S
O268 Co237 2.037 . S
O268 C288 1.234 . S
C269 O243 1.269 . S
C269 O244 1.257 . S
C270 H245 0.930 . S
C270 C273 1.388 . S
C270 C275 1.418 . S
C271 H266 0.930 . S
C271 C274 1.404 . S
C271 C275 1.353 . S
N272 Co237 2.145 . S
N272 C273 1.397 . S
N272 C274 1.334 . S
C273 H254 0.929 . S
C273 C270 1.388 . S
C273 N272 1.397 . S
C274 H255 0.929 . S
C274 C271 1.404 . S
C274 N272 1.334 . S
C275 H267 0.930 . S
C275 C270 1.418 . S
C275 C271 1.353 . S
C276 H246 0.930 . S
C276 N277 1.330 . S
C276 C278 1.446 . S
N277 Co236 2.151 . S
N277 C276 1.330 . S
N277 C281 1.418 . S
C278 H257 0.929 . S
C278 C276 1.446 . S
C278 C279 1.332 . S
C279 H259 0.931 . S
C279 C278 1.332 . S
C279 C280 1.267 . S
C280 H248 0.929 . S
C280 C279 1.267 . S
C280 C281 1.251 . S
C281 H251 0.929 . S
C281 N277 1.418 . S
C281 C280 1.251 . S
C282 H249 0.930 . S
C282 C284 1.406 . S
C282 C287 1.261 . S
C283 H250 0.930 . S
C283 N285 1.325 1_556 S
C283 C286 1.357 . S
C284 H252 0.928 . S
C284 C282 1.406 . S
C284 N285 1.261 1_556 S
N285 Co236 2.214 . S
N285 C283 1.325 1_554 S
N285 C284 1.261 1_554 S
C286 H256 0.931 . S
C286 C283 1.357 . S
C286 C287 1.312 . S
C287 H258 0.930 . S
C287 C282 1.261 . S
C287 C286 1.312 . S
C288 O260 1.214 . S
C288 O268 1.234 . S
C289 H261 0.929 . S
C289 C292 1.391 . S
C289 C294 1.391 . S
C290 H262 0.929 . S
C290 C291 1.390 . S
C290 N293 1.391 . S
C291 H263 0.930 . S
C291 C290 1.390 . S
C291 C292 1.392 . S
C292 H264 0.929 . S
C292 C289 1.391 . S
C292 C291 1.392 . S
N293 Co237 2.257 . S
N293 C290 1.391 . S
N293 C294 1.388 . S
C294 H265 0.930 . S
C294 C289 1.391 . S
C294 N293 1.388 . S
Co295 O297 2.143 . S
Co295 O303 2.074 . S
Co295 O306 2.093 . S
Co295 O319 2.097 . S
Co295 N336 2.151 . S
Co295 N344 2.214 . S
Co296 O297 2.160 . S
Co296 O302 2.058 . S
Co296 O312 2.057 . S
Co296 O327 2.037 . S
Co296 N331 2.145 . S
Co296 N352 2.257 . S
O297 Co295 2.143 . S
O297 Co296 2.160 . S
C298 O299 1.278 . S
C298 O306 1.224 . S
O299 C298 1.278 . S
C300 O301 1.245 . S
C300 O312 1.232 . S
O301 C300 1.245 . S
O302 Co296 2.058 . S
O302 C328 1.269 . S
O303 Co295 2.074 . S
O303 C328 1.257 . S
H304 C329 0.930 . S
H305 C335 0.930 . S
O306 Co295 2.093 . S
O306 C298 1.224 . S
H307 C339 0.929 . S
H308 C341 0.930 . S
H309 C342 0.946 . S
H310 C340 0.929 . S
H311 C343 0.928 . S
O312 Co296 2.057 . S
O312 C300 1.232 . S
H313 C332 0.929 . S
H314 C333 0.929 . S
H315 C345 0.931 . S
H316 C337 0.929 . S
H317 C346 0.930 . S
H318 C338 0.931 . S
O319 Co295 2.097 . S
O319 C347 1.214 . S
H320 C348 0.929 . S
H321 C349 0.929 . S
H322 C350 0.930 . S
H323 C351 0.929 . S
H324 C353 0.930 . S
H325 C330 0.930 . S
H326 C334 0.930 . S
O327 Co296 2.037 . S
O327 C347 1.234 . S
C328 O302 1.269 . S
C328 O303 1.257 . S
C329 H304 0.930 . S
C329 C332 1.388 . S
C329 C334 1.418 . S
C330 H325 0.930 . S
C330 C333 1.404 . S
C330 C334 1.353 . S
N331 Co296 2.145 . S
N331 C332 1.397 . S
N331 C333 1.334 . S
C332 H313 0.929 . S
C332 C329 1.388 . S
C332 N331 1.397 . S
C333 H314 0.929 . S
C333 C330 1.404 . S
C333 N331 1.334 . S
C334 H326 0.930 . S
C334 C329 1.418 . S
C334 C330 1.353 . S
C335 H305 0.930 . S
C335 N336 1.330 . S
C335 C337 1.446 . S
N336 Co295 2.151 . S
N336 C335 1.330 . S
N336 C340 1.418 . S
C337 H316 0.929 . S
C337 C335 1.446 . S
C337 C338 1.332 . S
C338 H318 0.931 . S
C338 C337 1.332 . S
C338 C339 1.267 . S
C339 H307 0.929 . S
C339 C338 1.267 . S
C339 C340 1.251 . S
C340 H310 0.929 . S
C340 N336 1.418 . S
C340 C339 1.251 . S
C341 H308 0.930 . S
C341 C343 1.406 . S
C341 C346 1.261 . S
C342 H309 0.946 . S
C342 N344 1.325 1_556 S
C342 C345 1.357 . S
C343 H311 0.928 . S
C343 C341 1.406 . S
C343 N344 1.261 1_556 S
N344 Co295 2.214 . S
N344 C342 1.325 1_554 S
N344 C343 1.261 1_554 S
C345 H315 0.931 . S
C345 C342 1.357 . S
C345 C346 1.312 . S
C346 H317 0.930 . S
C346 C341 1.261 . S
C346 C345 1.312 . S
C347 O319 1.214 . S
C347 O327 1.234 . S
C348 H320 0.929 . S
C348 C351 1.391 . S
C348 C353 1.391 . S
C349 H321 0.929 . S
C349 C350 1.390 . S
C349 N352 1.391 . S
C350 H322 0.930 . S
C350 C349 1.390 . S
C350 C351 1.392 . S
C351 H323 0.929 . S
C351 C348 1.391 . S
C351 C350 1.392 . S
N352 Co296 2.257 . S
N352 C349 1.391 . S
N352 C353 1.388 . S
C353 H324 0.930 . S
C353 C348 1.391 . S
C353 N352 1.388 . S
Co354 O356 2.162 . S
Co354 O362 2.074 . S
Co354 O365 2.093 . S
Co354 O378 2.097 1_565 S
Co354 N395 2.151 . S
Co354 N403 2.214 . S
Co355 O356 2.141 1_545 S
Co355 O361 2.058 1_545 S
Co355 O371 2.057 . S
Co355 O386 2.037 . S
Co355 N390 2.145 . S
Co355 N411 2.257 . S
O356 Co354 2.162 . S
O356 Co355 2.141 1_565 S
C357 O358 1.278 . S
C357 O365 1.224 1_545 S
O358 C357 1.278 . S
C359 O360 1.245 1_545 S
C359 O371 1.232 . S
O360 C359 1.245 1_565 S
O361 Co355 2.058 1_565 S
O361 C387 1.269 . S
O362 Co354 2.074 . S
O362 C387 1.257 . S
H363 C388 0.930 . S
H364 C394 0.930 . S
O365 Co354 2.093 . S
O365 C357 1.224 1_565 S
H366 C398 0.929 . S
H367 C400 0.930 . S
H368 C401 0.930 . S
H369 C399 0.929 . S
H370 C402 0.928 . S
O371 Co355 2.057 . S
O371 C359 1.232 . S
H372 C391 0.929 . S
H373 C392 0.929 . S
H374 C404 0.931 . S
H375 C396 0.929 . S
H376 C405 0.930 . S
H377 C397 0.931 . S
O378 Co354 2.097 1_545 S
O378 C406 1.214 . S
H379 C407 0.929 . S
H380 C408 0.929 . S
H381 C409 0.930 . S
H382 C410 0.929 . S
H383 C412 0.930 . S
H384 C389 0.930 . S
H385 C393 0.930 . S
O386 Co355 2.037 . S
O386 C406 1.234 . S
C387 O361 1.269 . S
C387 O362 1.257 . S
C388 H363 0.930 . S
C388 C391 1.388 . S
C388 C393 1.418 . S
C389 H384 0.930 . S
C389 C392 1.404 . S
C389 C393 1.353 . S
N390 Co355 2.145 . S
N390 C391 1.397 . S
N390 C392 1.334 . S
C391 H372 0.929 . S
C391 C388 1.388 . S
C391 N390 1.397 . S
C392 H373 0.929 . S
C392 C389 1.404 . S
C392 N390 1.334 . S
C393 H385 0.930 . S
C393 C388 1.418 . S
C393 C389 1.353 . S
C394 H364 0.930 . S
C394 N395 1.330 . S
C394 C396 1.446 . S
N395 Co354 2.151 . S
N395 C394 1.330 . S
N395 C399 1.418 . S
C396 H375 0.929 . S
C396 C394 1.446 . S
C396 C397 1.332 . S
C397 H377 0.931 . S
C397 C396 1.332 . S
C397 C398 1.267 . S
C398 H366 0.929 . S
C398 C397 1.267 . S
C398 C399 1.251 . S
C399 H369 0.929 . S
C399 N395 1.418 . S
C399 C398 1.251 . S
C400 H367 0.930 . S
C400 C402 1.406 . S
C400 C405 1.261 . S
C401 H368 0.930 . S
C401 N403 1.325 . S
C401 C404 1.357 . S
C402 H370 0.928 . S
C402 C400 1.406 . S
C402 N403 1.261 . S
N403 Co354 2.214 . S
N403 C401 1.325 . S
N403 C402 1.261 . S
C404 H374 0.931 . S
C404 C401 1.357 . S
C404 C405 1.312 . S
C405 H376 0.930 . S
C405 C400 1.261 . S
C405 C404 1.312 . S
C406 O378 1.214 . S
C406 O386 1.234 . S
C407 H379 0.929 . S
C407 C410 1.391 . S
C407 C412 1.391 . S
C408 H380 0.929 . S
C408 C409 1.390 . S
C408 N411 1.391 . S
C409 H381 0.930 . S
C409 C408 1.390 . S
C409 C410 1.392 . S
C410 H382 0.929 . S
C410 C407 1.391 . S
C410 C409 1.392 . S
N411 Co355 2.257 . S
N411 C408 1.391 . S
N411 C412 1.388 . S
C412 H383 0.930 . S
C412 C407 1.391 . S
C412 N411 1.388 . S
Co413 O415 2.143 . S
Co413 O421 2.074 . S
Co413 O424 2.093 . S
Co413 O437 2.097 . S
Co413 N454 2.151 . S
Co413 N462 2.214 . S
Co414 O415 2.160 . S
Co414 O420 2.058 . S
Co414 O430 2.057 . S
Co414 O445 2.037 . S
Co414 N449 2.145 . S
Co414 N470 2.257 . S
O415 Co413 2.143 . S
O415 Co414 2.160 . S
C416 O417 1.278 . S
C416 O424 1.224 . S
O417 C416 1.278 . S
C418 O419 1.245 . S
C418 O430 1.232 . S
O419 C418 1.245 . S
O420 Co414 2.058 . S
O420 C446 1.269 . S
O421 Co413 2.074 . S
O421 C446 1.257 . S
H422 C447 0.930 . S
H423 C453 0.930 . S
O424 Co413 2.093 . S
O424 C416 1.224 . S
H425 C457 0.929 . S
H426 C459 0.930 . S
H427 C460 0.930 . S
H428 C458 0.929 . S
H429 C461 0.928 . S
O430 Co414 2.057 . S
O430 C418 1.232 . S
H431 C450 0.929 . S
H432 C451 0.929 . S
H433 C463 0.931 . S
H434 C455 0.929 . S
H435 C464 0.930 . S
H436 C456 0.931 . S
O437 Co413 2.097 . S
O437 C465 1.214 . S
H438 C466 0.929 . S
H439 C467 0.929 . S
H440 C468 0.930 . S
H441 C469 0.929 . S
H442 C471 0.930 . S
H443 C448 0.930 . S
H444 C452 0.930 . S
O445 Co414 2.037 . S
O445 C465 1.234 . S
C446 O420 1.269 . S
C446 O421 1.257 . S
C447 H422 0.930 . S
C447 C450 1.388 . S
C447 C452 1.418 . S
C448 H443 0.930 . S
C448 C451 1.404 . S
C448 C452 1.353 . S
N449 Co414 2.145 . S
N449 C450 1.397 . S
N449 C451 1.334 . S
C450 H431 0.929 . S
C450 C447 1.388 . S
C450 N449 1.397 . S
C451 H432 0.929 . S
C451 C448 1.404 . S
C451 N449 1.334 . S
C452 H444 0.930 . S
C452 C447 1.418 . S
C452 C448 1.353 . S
C453 H423 0.930 . S
C453 N454 1.330 . S
C453 C455 1.446 . S
N454 Co413 2.151 . S
N454 C453 1.330 . S
N454 C458 1.418 . S
C455 H434 0.929 . S
C455 C453 1.446 . S
C455 C456 1.332 . S
C456 H436 0.931 . S
C456 C455 1.332 . S
C456 C457 1.267 . S
C457 H425 0.929 . S
C457 C456 1.267 . S
C457 C458 1.251 . S
C458 H428 0.929 . S
C458 N454 1.418 . S
C458 C457 1.251 . S
C459 H426 0.930 . S
C459 C461 1.406 . S
C459 C464 1.261 . S
C460 H427 0.930 . S
C460 N462 1.325 . S
C460 C463 1.357 . S
C461 H429 0.928 . S
C461 C459 1.406 . S
C461 N462 1.261 . S
N462 Co413 2.214 . S
N462 C460 1.325 . S
N462 C461 1.261 . S
C463 H433 0.931 . S
C463 C460 1.357 . S
C463 C464 1.312 . S
C464 H435 0.930 . S
C464 C459 1.261 . S
C464 C463 1.312 . S
C465 O437 1.214 . S
C465 O445 1.234 . S
C466 H438 0.929 . S
C466 C469 1.391 . S
C466 C471 1.391 . S
C467 H439 0.929 . S
C467 C468 1.390 . S
C467 N470 1.391 . S
C468 H440 0.930 . S
C468 C467 1.390 . S
C468 C469 1.392 . S
C469 H441 0.929 . S
C469 C466 1.391 . S
C469 C468 1.392 . S
N470 Co414 2.257 . S
N470 C467 1.391 . S
N470 C471 1.388 . S
C471 H442 0.930 . S
C471 C466 1.391 . S
C471 N470 1.388 . S
Co472 O474 2.143 . S
Co472 O480 2.074 . S
Co472 O483 2.093 . S
Co472 O496 2.097 1_554 S
Co472 N513 2.151 . S
Co472 N521 2.214 . S
Co473 O474 2.160 1_556 S
Co473 O479 2.058 1_556 S
Co473 O489 2.057 . S
Co473 O504 2.037 . S
Co473 N508 2.145 . S
Co473 N529 2.257 . S
O474 Co472 2.143 . S
O474 Co473 2.160 1_554 S
C475 O476 1.278 . S
C475 O483 1.224 1_556 S
O476 C475 1.278 . S
C477 O478 1.237 1_556 S
C477 O489 1.238 . S
O478 C477 1.237 1_554 S
O479 Co473 2.058 1_554 S
O479 C505 1.269 . S
O480 Co472 2.074 . S
O480 C505 1.257 . S
H481 C506 0.930 . S
H482 C512 0.930 . S
O483 Co472 2.093 . S
O483 C475 1.224 1_554 S
H484 C516 0.929 . S
H485 C518 0.930 . S
H486 C519 0.930 . S
H487 C517 0.929 . S
H488 C520 0.928 . S
O489 Co473 2.057 . S
O489 C477 1.238 . S
H490 C509 0.929 . S
H491 C510 0.929 . S
H492 C522 0.931 . S
H493 C514 0.929 . S
H494 C523 0.930 . S
H495 C515 0.931 . S
O496 Co472 2.097 1_556 S
O496 C524 1.214 . S
H497 C525 0.929 . S
H498 C526 0.929 . S
H499 C527 0.930 . S
H500 C528 0.929 . S
H501 C530 0.930 . S
H502 C507 0.930 . S
H503 C511 0.930 . S
O504 Co473 2.037 . S
O504 C524 1.234 . S
C505 O479 1.269 . S
C505 O480 1.257 . S
C506 H481 0.930 . S
C506 C509 1.388 . S
C506 C511 1.418 . S
C507 H502 0.930 . S
C507 C510 1.404 . S
C507 C511 1.353 . S
N508 Co473 2.145 . S
N508 C509 1.397 . S
N508 C510 1.334 . S
C509 H490 0.929 . S
C509 C506 1.388 . S
C509 N508 1.397 . S
C510 H491 0.929 . S
C510 C507 1.404 . S
C510 N508 1.334 . S
C511 H503 0.930 . S
C511 C506 1.418 . S
C511 C507 1.353 . S
C512 H482 0.930 . S
C512 N513 1.330 . S
C512 C514 1.446 . S
N513 Co472 2.151 . S
N513 C512 1.330 . S
N513 C517 1.418 . S
C514 H493 0.929 . S
C514 C512 1.446 . S
C514 C515 1.332 . S
C515 H495 0.931 . S
C515 C514 1.332 . S
C515 C516 1.267 . S
C516 H484 0.929 . S
C516 C515 1.267 . S
C516 C517 1.251 . S
C517 H487 0.929 . S
C517 N513 1.418 . S
C517 C516 1.251 . S
C518 H485 0.930 . S
C518 C520 1.406 . S
C518 C523 1.261 . S
C519 H486 0.930 . S
C519 N521 1.325 1_655 S
C519 C522 1.357 . S
C520 H488 0.928 . S
C520 C518 1.406 . S
C520 N521 1.261 1_655 S
N521 Co472 2.214 . S
N521 C519 1.325 1_455 S
N521 C520 1.261 1_455 S
C522 H492 0.931 . S
C522 C519 1.357 . S
C522 C523 1.312 . S
C523 H494 0.930 . S
C523 C518 1.261 . S
C523 C522 1.312 . S
C524 O496 1.214 . S
C524 O504 1.234 . S
C525 H497 0.929 . S
C525 C528 1.391 . S
C525 C530 1.391 . S
C526 H498 0.929 . S
C526 C527 1.390 . S
C526 N529 1.391 . S
C527 H499 0.930 . S
C527 C526 1.390 . S
C527 C528 1.392 . S
C528 H500 0.929 . S
C528 C525 1.391 . S
C528 C527 1.392 . S
N529 Co473 2.257 . S
N529 C526 1.391 . S
N529 C530 1.388 . S
C530 H501 0.930 . S
C530 C525 1.391 . S
C530 N529 1.388 . S
Co531 O533 2.143 . S
Co531 O539 2.074 . S
Co531 O542 2.093 . S
Co531 O555 2.097 . S
Co531 N572 2.151 . S
Co531 N580 2.214 . S
Co532 O533 2.160 . S
Co532 O538 2.058 . S
Co532 O548 2.057 . S
Co532 O563 2.037 . S
Co532 N567 2.145 . S
Co532 N588 2.257 . S
O533 Co531 2.143 . S
O533 Co532 2.160 . S
C534 O535 1.278 . S
C534 O542 1.224 . S
O535 C534 1.278 . S
C536 O537 1.245 . S
C536 O548 1.232 . S
O537 C536 1.245 . S
O538 Co532 2.058 . S
O538 C564 1.269 . S
O539 Co531 2.074 . S
O539 C564 1.257 . S
H540 C565 0.930 . S
H541 C571 0.930 . S
O542 Co531 2.093 . S
O542 C534 1.224 . S
H543 C575 0.929 . S
H544 C577 0.930 . S
H545 C578 0.946 . S
H546 C576 0.929 . S
H547 C579 0.928 . S
O548 Co532 2.057 . S
O548 C536 1.232 . S
H549 C568 0.929 . S
H550 C569 0.929 . S
H551 C581 0.931 . S
H552 C573 0.929 . S
H553 C582 0.930 . S
H554 C574 0.931 . S
O555 Co531 2.097 . S
O555 C583 1.214 . S
H556 C584 0.929 . S
H557 C585 0.929 . S
H558 C586 0.930 . S
H559 C587 0.929 . S
H560 C589 0.930 . S
H561 C566 0.930 . S
H562 C570 0.930 . S
O563 Co532 2.037 . S
O563 C583 1.234 . S
C564 O538 1.269 . S
C564 O539 1.257 . S
C565 H540 0.930 . S
C565 C568 1.388 . S
C565 C570 1.418 . S
C566 H561 0.930 . S
C566 C569 1.404 . S
C566 C570 1.353 . S
N567 Co532 2.145 . S
N567 C568 1.397 . S
N567 C569 1.334 . S
C568 H549 0.929 . S
C568 C565 1.388 . S
C568 N567 1.397 . S
C569 H550 0.929 . S
C569 C566 1.404 . S
C569 N567 1.334 . S
C570 H562 0.930 . S
C570 C565 1.418 . S
C570 C566 1.353 . S
C571 H541 0.930 . S
C571 N572 1.330 . S
C571 C573 1.446 . S
N572 Co531 2.151 . S
N572 C571 1.330 . S
N572 C576 1.418 . S
C573 H552 0.929 . S
C573 C571 1.446 . S
C573 C574 1.332 . S
C574 H554 0.931 . S
C574 C573 1.332 . S
C574 C575 1.267 . S
C575 H543 0.929 . S
C575 C574 1.267 . S
C575 C576 1.251 . S
C576 H546 0.929 . S
C576 N572 1.418 . S
C576 C575 1.251 . S
C577 H544 0.930 . S
C577 C579 1.406 . S
C577 C582 1.261 . S
C578 H545 0.946 . S
C578 N580 1.325 1_655 S
C578 C581 1.357 . S
C579 H547 0.928 . S
C579 C577 1.406 . S
C579 N580 1.261 1_655 S
N580 Co531 2.214 . S
N580 C578 1.325 1_455 S
N580 C579 1.261 1_455 S
C581 H551 0.931 . S
C581 C578 1.357 . S
C581 C582 1.312 . S
C582 H553 0.930 . S
C582 C577 1.261 . S
C582 C581 1.312 . S
C583 O555 1.214 . S
C583 O563 1.234 . S
C584 H556 0.929 . S
C584 C587 1.391 . S
C584 C589 1.391 . S
C585 H557 0.929 . S
C585 C586 1.390 . S
C585 N588 1.391 . S
C586 H558 0.930 . S
C586 C585 1.390 . S
C586 C587 1.392 . S
C587 H559 0.929 . S
C587 C584 1.391 . S
C587 C586 1.392 . S
N588 Co532 2.257 . S
N588 C585 1.391 . S
N588 C589 1.388 . S
C589 H560 0.930 . S
C589 C584 1.391 . S
C589 N588 1.388 . S
Co590 O592 2.143 . S
Co590 O598 2.074 . S
Co590 O601 2.093 . S
Co590 O614 2.097 . S
Co590 N631 2.151 . S
Co590 N639 2.214 . S
Co591 O592 2.160 . S
Co591 O597 2.058 . S
Co591 O607 2.057 . S
Co591 O622 2.037 . S
Co591 N626 2.145 . S
Co591 N647 2.257 . S
O592 Co590 2.143 . S
O592 Co591 2.160 . S
C593 O594 1.278 . S
C593 O601 1.224 . S
O594 C593 1.278 . S
C595 O596 1.245 . S
C595 O607 1.232 . S
O596 C595 1.245 . S
O597 Co591 2.058 . S
O597 C623 1.269 . S
O598 Co590 2.074 . S
O598 C623 1.257 . S
H599 C624 0.930 . S
H600 C630 0.930 . S
O601 Co590 2.093 . S
O601 C593 1.224 . S
H602 C634 0.929 . S
H603 C636 0.930 . S
H604 C637 0.930 1_655 S
H605 C635 0.929 . S
H606 C638 0.932 . S
O607 Co591 2.057 . S
O607 C595 1.232 . S
H608 C627 0.929 . S
H609 C628 0.929 . S
H610 C640 0.931 . S
H611 C632 0.929 . S
H612 C641 0.930 . S
H613 C633 0.931 . S
O614 Co590 2.097 . S
O614 C642 1.214 . S
H615 C643 0.929 . S
H616 C644 0.929 . S
H617 C645 0.930 . S
H618 C646 0.929 . S
H619 C648 0.930 . S
H620 C625 0.930 . S
H621 C629 0.930 . S
O622 Co591 2.037 . S
O622 C642 1.234 . S
C623 O597 1.269 . S
C623 O598 1.257 . S
C624 H599 0.930 . S
C624 C627 1.388 . S
C624 C629 1.418 . S
C625 H620 0.930 . S
C625 C628 1.404 . S
C625 C629 1.353 . S
N626 Co591 2.145 . S
N626 C627 1.397 . S
N626 C628 1.334 . S
C627 H608 0.929 . S
C627 C624 1.388 . S
C627 N626 1.397 . S
C628 H609 0.929 . S
C628 C625 1.404 . S
C628 N626 1.334 . S
C629 H621 0.930 . S
C629 C624 1.418 . S
C629 C625 1.353 . S
C630 H600 0.930 . S
C630 N631 1.330 . S
C630 C632 1.446 . S
N631 Co590 2.151 . S
N631 C630 1.330 . S
N631 C635 1.418 . S
C632 H611 0.929 . S
C632 C630 1.446 . S
C632 C633 1.332 . S
C633 H613 0.931 . S
C633 C632 1.332 . S
C633 C634 1.267 . S
C634 H602 0.929 . S
C634 C633 1.267 . S
C634 C635 1.251 . S
C635 H605 0.929 . S
C635 N631 1.418 . S
C635 C634 1.251 . S
C636 H603 0.930 . S
C636 C638 1.406 . S
C636 C641 1.261 . S
C637 H604 0.930 1_455 S
C637 N639 1.325 1_455 S
C637 C640 1.357 . S
C638 H606 0.932 . S
C638 C636 1.406 . S
C638 N639 1.261 1_455 S
N639 Co590 2.214 . S
N639 C637 1.325 1_655 S
N639 C638 1.261 1_655 S
C640 H610 0.931 . S
C640 C637 1.357 . S
C640 C641 1.312 . S
C641 H612 0.930 . S
C641 C636 1.261 . S
C641 C640 1.312 . S
C642 O614 1.214 . S
C642 O622 1.234 . S
C643 H615 0.929 . S
C643 C646 1.391 . S
C643 C648 1.391 . S
C644 H616 0.929 . S
C644 C645 1.390 . S
C644 N647 1.391 . S
C645 H617 0.930 . S
C645 C644 1.390 . S
C645 C646 1.392 . S
C646 H618 0.929 . S
C646 C643 1.391 . S
C646 C645 1.392 . S
N647 Co591 2.257 . S
N647 C644 1.391 . S
N647 C648 1.388 . S
C648 H619 0.930 . S
C648 C643 1.391 . S
C648 N647 1.388 . S
Co649 O651 2.143 . S
Co649 O657 2.074 . S
Co649 O660 2.093 . S
Co649 O673 2.097 . S
Co649 N690 2.151 . S
Co649 N698 2.214 . S
Co650 O651 2.160 . S
Co650 O656 2.058 . S
Co650 O666 2.057 . S
Co650 O681 2.037 . S
Co650 N685 2.145 . S
Co650 N706 2.257 . S
O651 Co649 2.143 . S
O651 Co650 2.160 . S
C652 O653 1.278 . S
C652 O660 1.224 . S
O653 C652 1.278 . S
C654 O655 1.245 . S
C654 O666 1.232 . S
O655 C654 1.245 . S
O656 Co650 2.058 . S
O656 C682 1.269 . S
O657 Co649 2.074 . S
O657 C682 1.257 . S
H658 C683 0.930 . S
H659 C689 0.930 . S
O660 Co649 2.093 . S
O660 C652 1.224 . S
H661 C693 0.929 . S
H662 C695 0.930 . S
H663 C696 0.930 . S
H664 C694 0.929 . S
H665 C697 0.928 . S
O666 Co650 2.057 . S
O666 C654 1.232 . S
H667 C686 0.929 . S
H668 C687 0.929 . S
H669 C699 0.931 . S
H670 C691 0.929 . S
H671 C700 0.930 . S
H672 C692 0.931 . S
O673 Co649 2.097 . S
O673 C701 1.214 . S
H674 C702 0.929 . S
H675 C703 0.929 . S
H676 C704 0.930 . S
H677 C705 0.929 . S
H678 C707 0.930 . S
H679 C684 0.930 . S
H680 C688 0.930 . S
O681 Co650 2.037 . S
O681 C701 1.234 . S
C682 O656 1.269 . S
C682 O657 1.257 . S
C683 H658 0.930 . S
C683 C686 1.388 . S
C683 C688 1.418 . S
C684 H679 0.930 . S
C684 C687 1.404 . S
C684 C688 1.353 . S
N685 Co650 2.145 . S
N685 C686 1.397 . S
N685 C687 1.334 . S
C686 H667 0.929 . S
C686 C683 1.388 . S
C686 N685 1.397 . S
C687 H668 0.929 . S
C687 C684 1.404 . S
C687 N685 1.334 . S
C688 H680 0.930 . S
C688 C683 1.418 . S
C688 C684 1.353 . S
C689 H659 0.930 . S
C689 N690 1.330 . S
C689 C691 1.446 . S
N690 Co649 2.151 . S
N690 C689 1.330 . S
N690 C694 1.418 . S
C691 H670 0.929 . S
C691 C689 1.446 . S
C691 C692 1.332 . S
C692 H672 0.931 . S
C692 C691 1.332 . S
C692 C693 1.267 . S
C693 H661 0.929 . S
C693 C692 1.267 . S
C693 C694 1.251 . S
C694 H664 0.929 . S
C694 N690 1.418 . S
C694 C693 1.251 . S
C695 H662 0.930 . S
C695 C697 1.406 . S
C695 C700 1.261 . S
C696 H663 0.930 . S
C696 N698 1.325 . S
C696 C699 1.357 . S
C697 H665 0.928 . S
C697 C695 1.406 . S
C697 N698 1.261 . S
N698 Co649 2.214 . S
N698 C696 1.325 . S
N698 C697 1.261 . S
C699 H669 0.931 . S
C699 C696 1.357 . S
C699 C700 1.312 . S
C700 H671 0.930 . S
C700 C695 1.261 . S
C700 C699 1.312 . S
C701 O673 1.214 . S
C701 O681 1.234 . S
C702 H674 0.929 . S
C702 C705 1.391 . S
C702 C707 1.391 . S
C703 H675 0.929 . S
C703 C704 1.390 . S
C703 N706 1.391 . S
C704 H676 0.930 . S
C704 C703 1.390 . S
C704 C705 1.392 . S
C705 H677 0.929 . S
C705 C702 1.391 . S
C705 C704 1.392 . S
N706 Co650 2.257 . S
N706 C703 1.391 . S
N706 C707 1.388 . S
C707 H678 0.930 . S
C707 C702 1.391 . S
C707 N706 1.388 . S
Co708 O710 2.143 . S
Co708 O716 2.074 . S
Co708 O719 2.093 . S
Co708 O732 2.097 . S
Co708 N749 2.151 . S
Co708 N757 2.214 . S
Co709 O710 2.160 . S
Co709 O715 2.058 . S
Co709 O725 2.057 . S
Co709 O740 2.037 . S
Co709 N744 2.145 . S
Co709 N765 2.257 . S
O710 Co708 2.143 . S
O710 Co709 2.160 . S
C711 O712 1.278 . S
C711 O719 1.224 . S
O712 C711 1.278 . S
C713 O714 1.245 . S
C713 O725 1.232 . S
O714 C713 1.245 . S
O715 Co709 2.058 . S
O715 C741 1.269 . S
O716 Co708 2.074 . S
O716 C741 1.257 . S
H717 C742 0.930 . S
H718 C748 0.930 . S
O719 Co708 2.093 . S
O719 C711 1.224 . S
H720 C752 0.929 . S
H721 C754 0.930 . S
H722 C755 0.930 . S
H723 C753 0.929 . S
H724 C756 0.928 . S
O725 Co709 2.057 . S
O725 C713 1.232 . S
H726 C745 0.929 . S
H727 C746 0.929 . S
H728 C758 0.931 . S
H729 C750 0.929 . S
H730 C759 0.930 . S
H731 C751 0.931 . S
O732 Co708 2.097 . S
O732 C760 1.214 . S
H733 C761 0.929 . S
H734 C762 0.929 . S
H735 C763 0.930 . S
H736 C764 0.929 . S
H737 C766 0.930 . S
H738 C743 0.930 . S
H739 C747 0.930 . S
O740 Co709 2.037 . S
O740 C760 1.234 . S
C741 O715 1.269 . S
C741 O716 1.257 . S
C742 H717 0.930 . S
C742 C745 1.388 . S
C742 C747 1.418 . S
C743 H738 0.930 . S
C743 C746 1.404 . S
C743 C747 1.353 . S
N744 Co709 2.145 . S
N744 C745 1.397 . S
N744 C746 1.334 . S
C745 H726 0.929 . S
C745 C742 1.388 . S
C745 N744 1.397 . S
C746 H727 0.929 . S
C746 C743 1.404 . S
C746 N744 1.334 . S
C747 H739 0.930 . S
C747 C742 1.418 . S
C747 C743 1.353 . S
C748 H718 0.930 . S
C748 N749 1.330 . S
C748 C750 1.446 . S
N749 Co708 2.151 . S
N749 C748 1.330 . S
N749 C753 1.418 . S
C750 H729 0.929 . S
C750 C748 1.446 . S
C750 C751 1.332 . S
C751 H731 0.931 . S
C751 C750 1.332 . S
C751 C752 1.267 . S
C752 H720 0.929 . S
C752 C751 1.267 . S
C752 C753 1.251 . S
C753 H723 0.929 . S
C753 N749 1.418 . S
C753 C752 1.251 . S
C754 H721 0.930 . S
C754 C756 1.406 . S
C754 C759 1.261 . S
C755 H722 0.930 . S
C755 N757 1.325 . S
C755 C758 1.357 . S
C756 H724 0.928 . S
C756 C754 1.406 . S
C756 N757 1.261 . S
N757 Co708 2.214 . S
N757 C755 1.325 . S
N757 C756 1.261 . S
C758 H728 0.931 . S
C758 C755 1.357 . S
C758 C759 1.312 . S
C759 H730 0.930 . S
C759 C754 1.261 . S
C759 C758 1.312 . S
C760 O732 1.214 . S
C760 O740 1.234 . S
C761 H733 0.929 . S
C761 C764 1.391 . S
C761 C766 1.391 . S
C762 H734 0.929 . S
C762 C763 1.390 . S
C762 N765 1.391 . S
C763 H735 0.930 . S
C763 C762 1.390 . S
C763 C764 1.392 . S
C764 H736 0.929 . S
C764 C761 1.391 . S
C764 C763 1.392 . S
N765 Co709 2.257 . S
N765 C762 1.391 . S
N765 C766 1.388 . S
C766 H737 0.930 . S
C766 C761 1.391 . S
C766 N765 1.388 . S
Co767 O769 2.143 . S
Co767 O775 2.074 . S
Co767 O778 2.093 . S
Co767 O791 2.097 . S
Co767 N808 2.151 . S
Co767 N816 2.214 . S
Co768 O769 2.160 . S
Co768 O774 2.058 . S
Co768 O784 2.057 . S
Co768 O799 2.037 . S
Co768 N803 2.145 . S
Co768 N824 2.257 . S
O769 Co767 2.143 . S
O769 Co768 2.160 . S
C770 O771 1.278 . S
C770 O778 1.224 . S
O771 C770 1.278 . S
C772 O773 1.245 . S
C772 O784 1.232 . S
O773 C772 1.245 . S
O774 Co768 2.058 . S
O774 C800 1.269 . S
O775 Co767 2.074 . S
O775 C800 1.257 . S
H776 C801 0.930 . S
H777 C807 0.930 . S
O778 Co767 2.093 . S
O778 C770 1.224 . S
H779 C811 0.929 . S
H780 C813 0.930 . S
H781 C814 0.930 1_565 S
H782 C812 0.929 . S
H783 C815 0.932 . S
O784 Co768 2.057 . S
O784 C772 1.232 . S
H785 C804 0.929 . S
H786 C805 0.929 . S
H787 C817 0.931 . S
H788 C809 0.929 . S
H789 C818 0.930 . S
H790 C810 0.931 . S
O791 Co767 2.097 . S
O791 C819 1.214 . S
H792 C820 0.929 . S
H793 C821 0.929 . S
H794 C822 0.930 . S
H795 C823 0.929 . S
H796 C825 0.930 . S
H797 C802 0.930 . S
H798 C806 0.930 . S
O799 Co768 2.037 . S
O799 C819 1.234 . S
C800 O774 1.269 . S
C800 O775 1.257 . S
C801 H776 0.930 . S
C801 C804 1.388 . S
C801 C806 1.418 . S
C802 H797 0.930 . S
C802 C805 1.404 . S
C802 C806 1.353 . S
N803 Co768 2.145 . S
N803 C804 1.397 . S
N803 C805 1.334 . S
C804 H785 0.929 . S
C804 C801 1.388 . S
C804 N803 1.397 . S
C805 H786 0.929 . S
C805 C802 1.404 . S
C805 N803 1.334 . S
C806 H798 0.930 . S
C806 C801 1.418 . S
C806 C802 1.353 . S
C807 H777 0.930 . S
C807 N808 1.330 . S
C807 C809 1.446 . S
N808 Co767 2.151 . S
N808 C807 1.330 . S
N808 C812 1.418 . S
C809 H788 0.929 . S
C809 C807 1.446 . S
C809 C810 1.332 . S
C810 H790 0.931 . S
C810 C809 1.332 . S
C810 C811 1.267 . S
C811 H779 0.929 . S
C811 C810 1.267 . S
C811 C812 1.251 . S
C812 H782 0.929 . S
C812 N808 1.418 . S
C812 C811 1.251 . S
C813 H780 0.930 . S
C813 C815 1.406 . S
C813 C818 1.261 . S
C814 H781 0.930 1_545 S
C814 N816 1.325 1_545 S
C814 C817 1.357 . S
C815 H783 0.932 . S
C815 C813 1.406 . S
C815 N816 1.261 1_545 S
N816 Co767 2.214 . S
N816 C814 1.325 1_565 S
N816 C815 1.261 1_565 S
C817 H787 0.931 . S
C817 C814 1.357 . S
C817 C818 1.312 . S
C818 H789 0.930 . S
C818 C813 1.261 . S
C818 C817 1.312 . S
C819 O791 1.214 . S
C819 O799 1.234 . S
C820 H792 0.929 . S
C820 C823 1.391 . S
C820 C825 1.391 . S
C821 H793 0.929 . S
C821 C822 1.390 . S
C821 N824 1.391 . S
C822 H794 0.930 . S
C822 C821 1.390 . S
C822 C823 1.392 . S
C823 H795 0.929 . S
C823 C820 1.391 . S
C823 C822 1.392 . S
N824 Co768 2.257 . S
N824 C821 1.391 . S
N824 C825 1.388 . S
C825 H796 0.930 . S
C825 C820 1.391 . S
C825 N824 1.388 . S
Co826 O828 2.143 . S
Co826 O834 2.074 . S
Co826 O837 2.093 . S
Co826 O850 2.097 . S
Co826 N867 2.151 . S
Co826 N875 2.214 . S
Co827 O828 2.160 . S
Co827 O833 2.058 . S
Co827 O843 2.057 . S
Co827 O858 2.037 . S
Co827 N862 2.145 . S
Co827 N883 2.257 . S
O828 Co826 2.143 . S
O828 Co827 2.160 . S
C829 O830 1.278 . S
C829 O837 1.224 . S
O830 C829 1.278 . S
C831 O832 1.245 . S
C831 O843 1.232 . S
O832 C831 1.245 . S
O833 Co827 2.058 . S
O833 C859 1.269 . S
O834 Co826 2.074 . S
O834 C859 1.257 . S
H835 C860 0.930 . S
H836 C866 0.930 . S
O837 Co826 2.093 . S
O837 C829 1.224 . S
H838 C870 0.929 . S
H839 C872 0.930 . S
H840 C873 0.930 . S
H841 C871 0.929 . S
H842 C874 0.928 . S
O843 Co827 2.057 . S
O843 C831 1.232 . S
H844 C863 0.929 . S
H845 C864 0.929 . S
H846 C876 0.931 . S
H847 C868 0.929 . S
H848 C877 0.930 . S
H849 C869 0.931 . S
O850 Co826 2.097 . S
O850 C878 1.214 . S
H851 C879 0.929 . S
H852 C880 0.929 . S
H853 C881 0.930 . S
H854 C882 0.929 . S
H855 C884 0.930 . S
H856 C861 0.930 . S
H857 C865 0.930 . S
O858 Co827 2.037 . S
O858 C878 1.234 . S
C859 O833 1.269 . S
C859 O834 1.257 . S
C860 H835 0.930 . S
C860 C863 1.388 . S
C860 C865 1.418 . S
C861 H856 0.930 . S
C861 C864 1.404 . S
C861 C865 1.353 . S
N862 Co827 2.145 . S
N862 C863 1.397 . S
N862 C864 1.334 . S
C863 H844 0.929 . S
C863 C860 1.388 . S
C863 N862 1.397 . S
C864 H845 0.929 . S
C864 C861 1.404 . S
C864 N862 1.334 . S
C865 H857 0.930 . S
C865 C860 1.418 . S
C865 C861 1.353 . S
C866 H836 0.930 . S
C866 N867 1.330 . S
C866 C868 1.446 . S
N867 Co826 2.151 . S
N867 C866 1.330 . S
N867 C871 1.418 . S
C868 H847 0.929 . S
C868 C866 1.446 . S
C868 C869 1.332 . S
C869 H849 0.931 . S
C869 C868 1.332 . S
C869 C870 1.267 . S
C870 H838 0.929 . S
C870 C869 1.267 . S
C870 C871 1.251 . S
C871 H841 0.929 . S
C871 N867 1.418 . S
C871 C870 1.251 . S
C872 H839 0.930 . S
C872 C874 1.406 . S
C872 C877 1.261 . S
C873 H840 0.930 . S
C873 N875 1.325 . S
C873 C876 1.357 . S
C874 H842 0.928 . S
C874 C872 1.406 . S
C874 N875 1.261 . S
N875 Co826 2.214 . S
N875 C873 1.325 . S
N875 C874 1.261 . S
C876 H846 0.931 . S
C876 C873 1.357 . S
C876 C877 1.312 . S
C877 H848 0.930 . S
C877 C872 1.261 . S
C877 C876 1.312 . S
C878 O850 1.214 . S
C878 O858 1.234 . S
C879 H851 0.929 . S
C879 C882 1.391 . S
C879 C884 1.391 . S
C880 H852 0.929 . S
C880 C881 1.390 . S
C880 N883 1.391 . S
C881 H853 0.930 . S
C881 C880 1.390 . S
C881 C882 1.392 . S
C882 H854 0.929 . S
C882 C879 1.391 . S
C882 C881 1.392 . S
N883 Co827 2.257 . S
N883 C880 1.391 . S
N883 C884 1.388 . S
C884 H855 0.930 . S
C884 C879 1.391 . S
C884 N883 1.388 . S
Co885 O887 2.143 . S
Co885 O893 2.074 . S
Co885 O896 2.093 . S
Co885 O909 2.097 . S
Co885 N926 2.151 . S
Co885 N934 2.214 . S
Co886 O887 2.160 . S
Co886 O892 2.058 . S
Co886 O902 2.057 . S
Co886 O917 2.037 . S
Co886 N921 2.145 . S
Co886 N942 2.257 . S
O887 Co885 2.143 . S
O887 Co886 2.160 . S
C888 O889 1.278 . S
C888 O896 1.224 . S
O889 C888 1.278 . S
C890 O891 1.245 . S
C890 O902 1.232 . S
O891 C890 1.245 . S
O892 Co886 2.058 . S
O892 C918 1.269 . S
O893 Co885 2.074 . S
O893 C918 1.257 . S
H894 C919 0.930 . S
H895 C925 0.930 . S
O896 Co885 2.093 . S
O896 C888 1.224 . S
H897 C929 0.929 . S
H898 C931 0.930 . S
H899 C932 0.946 . S
H900 C930 0.929 . S
H901 C933 0.928 . S
O902 Co886 2.057 . S
O902 C890 1.232 . S
H903 C922 0.929 . S
H904 C923 0.929 . S
H905 C935 0.931 . S
H906 C927 0.929 . S
H907 C936 0.930 . S
H908 C928 0.931 . S
O909 Co885 2.097 . S
O909 C937 1.214 . S
H910 C938 0.929 . S
H911 C939 0.929 . S
H912 C940 0.930 . S
H913 C941 0.929 . S
H914 C943 0.930 . S
H915 C920 0.930 . S
H916 C924 0.930 . S
O917 Co886 2.037 . S
O917 C937 1.234 . S
C918 O892 1.269 . S
C918 O893 1.257 . S
C919 H894 0.930 . S
C919 C922 1.388 . S
C919 C924 1.418 . S
C920 H915 0.930 . S
C920 C923 1.404 . S
C920 C924 1.353 . S
N921 Co886 2.145 . S
N921 C922 1.397 . S
N921 C923 1.334 . S
C922 H903 0.929 . S
C922 C919 1.388 . S
C922 N921 1.397 . S
C923 H904 0.929 . S
C923 C920 1.404 . S
C923 N921 1.334 . S
C924 H916 0.930 . S
C924 C919 1.418 . S
C924 C920 1.353 . S
C925 H895 0.930 . S
C925 N926 1.330 . S
C925 C927 1.446 . S
N926 Co885 2.151 . S
N926 C925 1.330 . S
N926 C930 1.418 . S
C927 H906 0.929 . S
C927 C925 1.446 . S
C927 C928 1.332 . S
C928 H908 0.931 . S
C928 C927 1.332 . S
C928 C929 1.267 . S
C929 H897 0.929 . S
C929 C928 1.267 . S
C929 C930 1.251 . S
C930 H900 0.929 . S
C930 N926 1.418 . S
C930 C929 1.251 . S
C931 H898 0.930 . S
C931 C933 1.406 . S
C931 C936 1.261 . S
C932 H899 0.946 . S
C932 N934 1.325 1_565 S
C932 C935 1.357 . S
C933 H901 0.928 . S
C933 C931 1.406 . S
C933 N934 1.261 1_565 S
N934 Co885 2.214 . S
N934 C932 1.325 1_545 S
N934 C933 1.261 1_545 S
C935 H905 0.931 . S
C935 C932 1.357 . S
C935 C936 1.312 . S
C936 H907 0.930 . S
C936 C931 1.261 . S
C936 C935 1.312 . S
C937 O909 1.214 . S
C937 O917 1.234 . S
C938 H910 0.929 . S
C938 C941 1.391 . S
C938 C943 1.391 . S
C939 H911 0.929 . S
C939 C940 1.390 . S
C939 N942 1.391 . S
C940 H912 0.930 . S
C940 C939 1.390 . S
C940 C941 1.392 . S
C941 H913 0.929 . S
C941 C938 1.391 . S
C941 C940 1.392 . S
N942 Co886 2.257 . S
N942 C939 1.391 . S
N942 C943 1.388 . S
C943 H914 0.930 . S
C943 C938 1.391 . S
C943 N942 1.388 . S
Co944 O946 2.143 . S
Co944 O952 2.074 . S
Co944 O955 2.093 . S
Co944 O968 2.097 . S
Co944 N985 2.151 . S
Co944 N993 2.214 . S
Co945 O946 2.160 . S
Co945 O951 2.058 . S
Co945 O961 2.057 . S
Co945 O976 2.037 . S
Co945 N980 2.145 . S
Co945 N1001 2.257 . S
O946 Co944 2.143 . S
O946 Co945 2.160 . S
C947 O948 1.278 . S
C947 O955 1.224 . S
O948 C947 1.278 . S
C949 O950 1.245 . S
C949 O961 1.232 . S
O950 C949 1.245 . S
O951 Co945 2.058 . S
O951 C977 1.269 . S
O952 Co944 2.074 . S
O952 C977 1.257 . S
H953 C978 0.930 . S
H954 C984 0.930 . S
O955 Co944 2.093 . S
O955 C947 1.224 . S
H956 C988 0.929 . S
H957 C990 0.930 . S
H958 C991 0.930 . S
H959 C989 0.929 . S
H960 C992 0.928 . S
O961 Co945 2.057 . S
O961 C949 1.232 . S
H962 C981 0.929 . S
H963 C982 0.929 . S
H964 C994 0.931 . S
H965 C986 0.929 . S
H966 C995 0.930 . S
H967 C987 0.931 . S
O968 Co944 2.097 . S
O968 C996 1.214 . S
H969 C997 0.929 . S
H970 C998 0.929 . S
H971 C999 0.930 . S
H972 C1000 0.929 . S
H973 C1002 0.930 . S
H974 C979 0.930 . S
H975 C983 0.930 . S
O976 Co945 2.037 . S
O976 C996 1.234 . S
C977 O951 1.269 . S
C977 O952 1.257 . S
C978 H953 0.930 . S
C978 C981 1.388 . S
C978 C983 1.418 . S
C979 H974 0.930 . S
C979 C982 1.404 . S
C979 C983 1.353 . S
N980 Co945 2.145 . S
N980 C981 1.397 . S
N980 C982 1.334 . S
C981 H962 0.929 . S
C981 C978 1.388 . S
C981 N980 1.397 . S
C982 H963 0.929 . S
C982 C979 1.404 . S
C982 N980 1.334 . S
C983 H975 0.930 . S
C983 C978 1.418 . S
C983 C979 1.353 . S
C984 H954 0.930 . S
C984 N985 1.330 . S
C984 C986 1.446 . S
N985 Co944 2.151 . S
N985 C984 1.330 . S
N985 C989 1.418 . S
C986 H965 0.929 . S
C986 C984 1.446 . S
C986 C987 1.332 . S
C987 H967 0.931 . S
C987 C986 1.332 . S
C987 C988 1.267 . S
C988 H956 0.929 . S
C988 C987 1.267 . S
C988 C989 1.251 . S
C989 H959 0.929 . S
C989 N985 1.418 . S
C989 C988 1.251 . S
C990 H957 0.930 . S
C990 C992 1.406 . S
C990 C995 1.261 . S
C991 H958 0.930 . S
C991 N993 1.325 . S
C991 C994 1.357 . S
C992 H960 0.928 . S
C992 C990 1.406 . S
C992 N993 1.261 . S
N993 Co944 2.214 . S
N993 C991 1.325 . S
N993 C992 1.261 . S
C994 H964 0.931 . S
C994 C991 1.357 . S
C994 C995 1.312 . S
C995 H966 0.930 . S
C995 C990 1.261 . S
C995 C994 1.312 . S
C996 O968 1.214 . S
C996 O976 1.234 . S
C997 H969 0.929 . S
C997 C1000 1.391 . S
C997 C1002 1.391 . S
C998 H970 0.929 . S
C998 C999 1.390 . S
C998 N1001 1.391 . S
C999 H971 0.930 . S
C999 C998 1.390 . S
C999 C1000 1.392 . S
C1000 H972 0.929 . S
C1000 C997 1.391 . S
C1000 C999 1.392 . S
N1001 Co945 2.257 . S
N1001 C998 1.391 . S
N1001 C1002 1.388 . S
C1002 H973 0.930 . S
C1002 C997 1.391 . S
C1002 N1001 1.388 . S
Co1003 O1005 2.143 . S
Co1003 O1011 2.074 . S
Co1003 O1014 2.093 . S
Co1003 O1027 2.097 1_565 S
Co1003 N1044 2.151 . S
Co1003 N1052 2.214 . S
Co1004 O1005 2.160 1_545 S
Co1004 O1010 2.058 1_545 S
Co1004 O1020 2.057 . S
Co1004 O1035 2.037 . S
Co1004 N1039 2.145 . S
Co1004 N1060 2.257 . S
O1005 Co1003 2.143 . S
O1005 Co1004 2.160 1_565 S
C1006 O1007 1.278 . S
C1006 O1014 1.224 1_545 S
O1007 C1006 1.278 . S
C1008 O1009 1.245 1_545 S
C1008 O1020 1.232 . S
O1009 C1008 1.245 1_565 S
O1010 Co1004 2.058 1_565 S
O1010 C1036 1.269 . S
O1011 Co1003 2.074 . S
O1011 C1036 1.257 . S
H1012 C1037 0.930 . S
H1013 C1043 0.930 . S
O1014 Co1003 2.093 . S
O1014 C1006 1.224 1_565 S
H1015 C1047 0.929 . S
H1016 C1049 0.930 . S
H1017 C1050 0.930 . S
H1018 C1048 0.929 . S
H1019 C1051 0.928 . S
O1020 Co1004 2.057 . S
O1020 C1008 1.232 . S
H1021 C1040 0.929 . S
H1022 C1041 0.929 . S
H1023 C1053 0.931 . S
H1024 C1045 0.929 . S
H1025 C1054 0.930 . S
H1026 C1046 0.931 . S
O1027 Co1003 2.097 1_545 S
O1027 C1055 1.214 . S
H1028 C1056 0.929 . S
H1029 C1057 0.929 . S
H1030 C1058 0.930 . S
H1031 C1059 0.929 . S
H1032 C1061 0.930 . S
H1033 C1038 0.930 . S
H1034 C1042 0.930 . S
O1035 Co1004 2.037 . S
O1035 C1055 1.234 . S
C1036 O1010 1.269 . S
C1036 O1011 1.257 . S
C1037 H1012 0.930 . S
C1037 C1040 1.388 . S
C1037 C1042 1.418 . S
C1038 H1033 0.930 . S
C1038 C1041 1.404 . S
C1038 C1042 1.353 . S
N1039 Co1004 2.145 . S
N1039 C1040 1.397 . S
N1039 C1041 1.334 . S
C1040 H1021 0.929 . S
C1040 C1037 1.388 . S
C1040 N1039 1.397 . S
C1041 H1022 0.929 . S
C1041 C1038 1.404 . S
C1041 N1039 1.334 . S
C1042 H1034 0.930 . S
C1042 C1037 1.418 . S
C1042 C1038 1.353 . S
C1043 H1013 0.930 . S
C1043 N1044 1.330 . S
C1043 C1045 1.446 . S
N1044 Co1003 2.151 . S
N1044 C1043 1.330 . S
N1044 C1048 1.418 . S
C1045 H1024 0.929 . S
C1045 C1043 1.446 . S
C1045 C1046 1.332 . S
C1046 H1026 0.931 . S
C1046 C1045 1.332 . S
C1046 C1047 1.267 . S
C1047 H1015 0.929 . S
C1047 C1046 1.267 . S
C1047 C1048 1.251 . S
C1048 H1018 0.929 . S
C1048 N1044 1.418 . S
C1048 C1047 1.251 . S
C1049 H1016 0.930 . S
C1049 C1051 1.406 . S
C1049 C1054 1.261 . S
C1050 H1017 0.930 . S
C1050 N1052 1.325 . S
C1050 C1053 1.357 . S
C1051 H1019 0.928 . S
C1051 C1049 1.406 . S
C1051 N1052 1.261 . S
N1052 Co1003 2.214 . S
N1052 C1050 1.325 . S
N1052 C1051 1.261 . S
C1053 H1023 0.931 . S
C1053 C1050 1.357 . S
C1053 C1054 1.312 . S
C1054 H1025 0.930 . S
C1054 C1049 1.261 . S
C1054 C1053 1.312 . S
C1055 O1027 1.214 . S
C1055 O1035 1.234 . S
C1056 H1028 0.929 . S
C1056 C1059 1.391 . S
C1056 C1061 1.391 . S
C1057 H1029 0.929 . S
C1057 C1058 1.390 . S
C1057 N1060 1.391 . S
C1058 H1030 0.930 . S
C1058 C1057 1.390 . S
C1058 C1059 1.392 . S
C1059 H1031 0.929 . S
C1059 C1056 1.391 . S
C1059 C1058 1.392 . S
N1060 Co1004 2.257 . S
N1060 C1057 1.391 . S
N1060 C1061 1.388 . S
C1061 H1032 0.930 . S
C1061 C1056 1.391 . S
C1061 N1060 1.388 . S
Co1062 O1064 2.143 . S
Co1062 O1070 2.074 . S
Co1062 O1073 2.093 . S
Co1062 O1086 2.097 . S
Co1062 N1103 2.151 . S
Co1062 N1111 2.214 . S
Co1063 O1064 2.160 . S
Co1063 O1069 2.058 . S
Co1063 O1079 2.057 . S
Co1063 O1094 2.037 . S
Co1063 N1098 2.145 . S
Co1063 N1119 2.257 . S
O1064 Co1062 2.143 . S
O1064 Co1063 2.160 . S
C1065 O1066 1.278 . S
C1065 O1073 1.224 . S
O1066 C1065 1.278 . S
C1067 O1068 1.245 . S
C1067 O1079 1.232 . S
O1068 C1067 1.245 . S
O1069 Co1063 2.058 . S
O1069 C1095 1.269 . S
O1070 Co1062 2.074 . S
O1070 C1095 1.257 . S
H1071 C1096 0.930 . S
H1072 C1102 0.930 . S
O1073 Co1062 2.093 . S
O1073 C1065 1.224 . S
H1074 C1106 0.929 . S
H1075 C1108 0.930 . S
H1076 C1109 0.930 1_556 S
H1077 C1107 0.929 . S
H1078 C1110 0.932 . S
O1079 Co1063 2.057 . S
O1079 C1067 1.232 . S
H1080 C1099 0.929 . S
H1081 C1100 0.929 . S
H1082 C1112 0.931 . S
H1083 C1104 0.929 . S
H1084 C1113 0.930 . S
H1085 C1105 0.931 . S
O1086 Co1062 2.097 . S
O1086 C1114 1.214 . S
H1087 C1115 0.929 . S
H1088 C1116 0.929 . S
H1089 C1117 0.930 . S
H1090 C1118 0.929 . S
H1091 C1120 0.930 . S
H1092 C1097 0.930 . S
H1093 C1101 0.930 . S
O1094 Co1063 2.037 . S
O1094 C1114 1.234 . S
C1095 O1069 1.269 . S
C1095 O1070 1.257 . S
C1096 H1071 0.930 . S
C1096 C1099 1.388 . S
C1096 C1101 1.418 . S
C1097 H1092 0.930 . S
C1097 C1100 1.404 . S
C1097 C1101 1.353 . S
N1098 Co1063 2.145 . S
N1098 C1099 1.397 . S
N1098 C1100 1.334 . S
C1099 H1080 0.929 . S
C1099 C1096 1.388 . S
C1099 N1098 1.397 . S
C1100 H1081 0.929 . S
C1100 C1097 1.404 . S
C1100 N1098 1.334 . S
C1101 H1093 0.930 . S
C1101 C1096 1.418 . S
C1101 C1097 1.353 . S
C1102 H1072 0.930 . S
C1102 N1103 1.330 . S
C1102 C1104 1.446 . S
N1103 Co1062 2.151 . S
N1103 C1102 1.330 . S
N1103 C1107 1.418 . S
C1104 H1083 0.929 . S
C1104 C1102 1.446 . S
C1104 C1105 1.332 . S
C1105 H1085 0.931 . S
C1105 C1104 1.332 . S
C1105 C1106 1.267 . S
C1106 H1074 0.929 . S
C1106 C1105 1.267 . S
C1106 C1107 1.251 . S
C1107 H1077 0.929 . S
C1107 N1103 1.418 . S
C1107 C1106 1.251 . S
C1108 H1075 0.930 . S
C1108 C1110 1.406 . S
C1108 C1113 1.261 . S
C1109 H1076 0.930 1_554 S
C1109 N1111 1.325 1_554 S
C1109 C1112 1.357 . S
C1110 H1078 0.932 . S
C1110 C1108 1.406 . S
C1110 N1111 1.261 1_554 S
N1111 Co1062 2.214 . S
N1111 C1109 1.325 1_556 S
N1111 C1110 1.261 1_556 S
C1112 H1082 0.931 . S
C1112 C1109 1.357 . S
C1112 C1113 1.312 . S
C1113 H1084 0.930 . S
C1113 C1108 1.261 . S
C1113 C1112 1.312 . S
C1114 O1086 1.214 . S
C1114 O1094 1.234 . S
C1115 H1087 0.929 . S
C1115 C1118 1.391 . S
C1115 C1120 1.391 . S
C1116 H1088 0.929 . S
C1116 C1117 1.390 . S
C1116 N1119 1.391 . S
C1117 H1089 0.930 . S
C1117 C1116 1.390 . S
C1117 C1118 1.392 . S
C1118 H1090 0.929 . S
C1118 C1115 1.391 . S
C1118 C1117 1.392 . S
N1119 Co1063 2.257 . S
N1119 C1116 1.391 . S
N1119 C1120 1.388 . S
C1120 H1091 0.930 . S
C1120 C1115 1.391 . S
C1120 N1119 1.388 . S
Co1121 O1123 2.143 . S
Co1121 O1129 2.074 . S
Co1121 O1132 2.093 . S
Co1121 O1145 2.097 1_545 S
Co1121 N1162 2.151 . S
Co1121 N1170 2.214 . S
Co1122 O1123 2.160 1_565 S
Co1122 O1128 2.058 1_565 S
Co1122 O1138 2.057 . S
Co1122 O1153 2.037 . S
Co1122 N1157 2.145 . S
Co1122 N1178 2.257 . S
O1123 Co1121 2.143 . S
O1123 Co1122 2.160 1_545 S
C1124 O1125 1.278 . S
C1124 O1132 1.224 1_565 S
O1125 C1124 1.278 . S
C1126 O1127 1.245 1_565 S
C1126 O1138 1.232 . S
O1127 C1126 1.245 1_545 S
O1128 Co1122 2.058 1_545 S
O1128 C1154 1.269 . S
O1129 Co1121 2.074 . S
O1129 C1154 1.257 . S
H1130 C1155 0.930 . S
H1131 C1161 0.930 . S
O1132 Co1121 2.093 . S
O1132 C1124 1.224 1_545 S
H1133 C1165 0.929 . S
H1134 C1167 0.930 . S
H1135 C1168 0.945 . S
H1136 C1166 0.929 . S
H1137 C1169 0.928 1_556 S
O1138 Co1122 2.057 . S
O1138 C1126 1.232 . S
H1139 C1158 0.929 . S
H1140 C1159 0.929 . S
H1141 C1171 0.931 . S
H1142 C1163 0.929 . S
H1143 C1172 0.930 . S
H1144 C1164 0.931 . S
O1145 Co1121 2.097 1_565 S
O1145 C1173 1.214 . S
H1146 C1174 0.929 . S
H1147 C1175 0.929 . S
H1148 C1176 0.930 . S
H1149 C1177 0.929 . S
H1150 C1179 0.930 . S
H1151 C1156 0.930 . S
H1152 C1160 0.930 . S
O1153 Co1122 2.037 . S
O1153 C1173 1.234 . S
C1154 O1128 1.269 . S
C1154 O1129 1.257 . S
C1155 H1130 0.930 . S
C1155 C1158 1.388 . S
C1155 C1160 1.418 . S
C1156 H1151 0.930 . S
C1156 C1159 1.404 . S
C1156 C1160 1.353 . S
N1157 Co1122 2.145 . S
N1157 C1158 1.397 . S
N1157 C1159 1.334 . S
C1158 H1139 0.929 . S
C1158 C1155 1.388 . S
C1158 N1157 1.397 . S
C1159 H1140 0.929 . S
C1159 C1156 1.404 . S
C1159 N1157 1.334 . S
C1160 H1152 0.930 . S
C1160 C1155 1.418 . S
C1160 C1156 1.353 . S
C1161 H1131 0.930 . S
C1161 N1162 1.330 . S
C1161 C1163 1.446 . S
N1162 Co1121 2.151 . S
N1162 C1161 1.330 . S
N1162 C1166 1.418 . S
C1163 H1142 0.929 . S
C1163 C1161 1.446 . S
C1163 C1164 1.332 . S
C1164 H1144 0.931 . S
C1164 C1163 1.332 . S
C1164 C1165 1.267 . S
C1165 H1133 0.929 . S
C1165 C1164 1.267 . S
C1165 C1166 1.251 . S
C1166 H1136 0.929 . S
C1166 N1162 1.418 . S
C1166 C1165 1.251 . S
C1167 H1134 0.930 . S
C1167 C1169 1.406 . S
C1167 C1172 1.261 . S
C1168 H1135 0.945 . S
C1168 N1170 1.325 1_554 S
C1168 C1171 1.357 . S
C1169 H1137 0.928 1_554 S
C1169 C1167 1.406 . S
C1169 N1170 1.261 1_554 S
N1170 Co1121 2.214 . S
N1170 C1168 1.325 1_556 S
N1170 C1169 1.261 1_556 S
C1171 H1141 0.931 . S
C1171 C1168 1.357 . S
C1171 C1172 1.312 . S
C1172 H1143 0.930 . S
C1172 C1167 1.261 . S
C1172 C1171 1.312 . S
C1173 O1145 1.214 . S
C1173 O1153 1.234 . S
C1174 H1146 0.929 . S
C1174 C1177 1.391 . S
C1174 C1179 1.391 . S
C1175 H1147 0.929 . S
C1175 C1176 1.390 . S
C1175 N1178 1.391 . S
C1176 H1148 0.930 . S
C1176 C1175 1.390 . S
C1176 C1177 1.392 . S
C1177 H1149 0.929 . S
C1177 C1174 1.391 . S
C1177 C1176 1.392 . S
N1178 Co1122 2.257 . S
N1178 C1175 1.391 . S
N1178 C1179 1.388 . S
C1179 H1150 0.930 . S
C1179 C1174 1.391 . S
C1179 N1178 1.388 . S
Co1180 O1182 2.143 . S
Co1180 O1188 2.074 . S
Co1180 O1191 2.093 . S
Co1180 O1204 2.097 . S
Co1180 N1221 2.151 . S
Co1180 N1229 2.214 . S
Co1181 O1182 2.160 . S
Co1181 O1187 2.058 . S
Co1181 O1197 2.057 . S
Co1181 O1212 2.037 . S
Co1181 N1216 2.145 . S
Co1181 N1237 2.257 . S
O1182 Co1180 2.143 . S
O1182 Co1181 2.160 . S
C1183 O1184 1.278 . S
C1183 O1191 1.224 . S
O1184 C1183 1.278 . S
C1185 O1186 1.245 . S
C1185 O1197 1.232 . S
O1186 C1185 1.245 . S
O1187 Co1181 2.058 . S
O1187 C1213 1.269 . S
O1188 Co1180 2.074 . S
O1188 C1213 1.257 . S
H1189 C1214 0.930 . S
H1190 C1220 0.930 . S
O1191 Co1180 2.093 . S
O1191 C1183 1.224 . S
H1192 C1224 0.929 . S
H1193 C1226 0.930 . S
H1194 C1227 0.930 . S
H1195 C1225 0.929 . S
H1196 C1228 0.928 . S
O1197 Co1181 2.057 . S
O1197 C1185 1.232 . S
H1198 C1217 0.929 . S
H1199 C1218 0.929 . S
H1200 C1230 0.931 . S
H1201 C1222 0.929 . S
H1202 C1231 0.930 . S
H1203 C1223 0.931 . S
O1204 Co1180 2.097 . S
O1204 C1232 1.214 . S
H1205 C1233 0.929 . S
H1206 C1234 0.929 . S
H1207 C1235 0.930 . S
H1208 C1236 0.929 . S
H1209 C1238 0.930 . S
H1210 C1215 0.930 . S
H1211 C1219 0.930 . S
O1212 Co1181 2.037 . S
O1212 C1232 1.234 . S
C1213 O1187 1.269 . S
C1213 O1188 1.257 . S
C1214 H1189 0.930 . S
C1214 C1217 1.388 . S
C1214 C1219 1.418 . S
C1215 H1210 0.930 . S
C1215 C1218 1.404 . S
C1215 C1219 1.353 . S
N1216 Co1181 2.145 . S
N1216 C1217 1.397 . S
N1216 C1218 1.334 . S
C1217 H1198 0.929 . S
C1217 C1214 1.388 . S
C1217 N1216 1.397 . S
C1218 H1199 0.929 . S
C1218 C1215 1.404 . S
C1218 N1216 1.334 . S
C1219 H1211 0.930 . S
C1219 C1214 1.418 . S
C1219 C1215 1.353 . S
C1220 H1190 0.930 . S
C1220 N1221 1.330 . S
C1220 C1222 1.446 . S
N1221 Co1180 2.151 . S
N1221 C1220 1.330 . S
N1221 C1225 1.418 . S
C1222 H1201 0.929 . S
C1222 C1220 1.446 . S
C1222 C1223 1.332 . S
C1223 H1203 0.931 . S
C1223 C1222 1.332 . S
C1223 C1224 1.267 . S
C1224 H1192 0.929 . S
C1224 C1223 1.267 . S
C1224 C1225 1.251 . S
C1225 H1195 0.929 . S
C1225 N1221 1.418 . S
C1225 C1224 1.251 . S
C1226 H1193 0.930 . S
C1226 C1228 1.406 . S
C1226 C1231 1.261 . S
C1227 H1194 0.930 . S
C1227 N1229 1.325 . S
C1227 C1230 1.357 . S
C1228 H1196 0.928 . S
C1228 C1226 1.406 . S
C1228 N1229 1.261 . S
N1229 Co1180 2.214 . S
N1229 C1227 1.325 . S
N1229 C1228 1.261 . S
C1230 H1200 0.931 . S
C1230 C1227 1.357 . S
C1230 C1231 1.312 . S
C1231 H1202 0.930 . S
C1231 C1226 1.261 . S
C1231 C1230 1.312 . S
C1232 O1204 1.214 . S
C1232 O1212 1.234 . S
C1233 H1205 0.929 . S
C1233 C1236 1.391 . S
C1233 C1238 1.391 . S
C1234 H1206 0.929 . S
C1234 C1235 1.390 . S
C1234 N1237 1.391 . S
C1235 H1207 0.930 . S
C1235 C1234 1.390 . S
C1235 C1236 1.392 . S
C1236 H1208 0.929 . S
C1236 C1233 1.391 . S
C1236 C1235 1.392 . S
N1237 Co1181 2.257 . S
N1237 C1234 1.391 . S
N1237 C1238 1.388 . S
C1238 H1209 0.930 . S
C1238 C1233 1.391 . S
C1238 N1237 1.388 . S
Co1239 O1241 2.143 . S
Co1239 O1247 2.074 . S
Co1239 O1250 2.093 . S
Co1239 O1263 2.097 1_556 S
Co1239 N1280 2.151 . S
Co1239 N1288 2.214 . S
Co1240 O1241 2.160 1_554 S
Co1240 O1246 2.058 1_554 S
Co1240 O1256 2.057 . S
Co1240 O1271 2.037 . S
Co1240 N1275 2.145 . S
Co1240 N1296 2.257 . S
O1241 Co1239 2.143 . S
O1241 Co1240 2.160 1_556 S
C1242 O1243 1.278 . S
C1242 O1250 1.224 1_554 S
O1243 C1242 1.278 . S
C1244 O1245 1.245 1_554 S
C1244 O1256 1.232 . S
O1245 C1244 1.245 1_556 S
O1246 Co1240 2.058 1_556 S
O1246 C1272 1.269 . S
O1247 Co1239 2.074 . S
O1247 C1272 1.257 . S
H1248 C1273 0.930 . S
H1249 C1279 0.930 . S
O1250 Co1239 2.093 . S
O1250 C1242 1.224 1_556 S
H1251 C1283 0.929 . S
H1252 C1285 0.930 . S
H1253 C1286 0.930 . S
H1254 C1284 0.929 . S
H1255 C1287 0.928 . S
O1256 Co1240 2.057 . S
O1256 C1244 1.232 . S
H1257 C1276 0.929 . S
H1258 C1277 0.929 . S
H1259 C1289 0.931 . S
H1260 C1281 0.929 . S
H1261 C1290 0.930 . S
H1262 C1282 0.931 . S
O1263 Co1239 2.097 1_554 S
O1263 C1291 1.214 . S
H1264 C1292 0.929 . S
H1265 C1293 0.929 . S
H1266 C1294 0.930 . S
H1267 C1295 0.929 . S
H1268 C1297 0.930 . S
H1269 C1274 0.930 . S
H1270 C1278 0.930 . S
O1271 Co1240 2.037 . S
O1271 C1291 1.234 . S
C1272 O1246 1.269 . S
C1272 O1247 1.257 . S
C1273 H1248 0.930 . S
C1273 C1276 1.388 . S
C1273 C1278 1.418 . S
C1274 H1269 0.930 . S
C1274 C1277 1.404 . S
C1274 C1278 1.353 . S
N1275 Co1240 2.145 . S
N1275 C1276 1.397 . S
N1275 C1277 1.334 . S
C1276 H1257 0.929 . S
C1276 C1273 1.388 . S
C1276 N1275 1.397 . S
C1277 H1258 0.929 . S
C1277 C1274 1.404 . S
C1277 N1275 1.334 . S
C1278 H1270 0.930 . S
C1278 C1273 1.418 . S
C1278 C1274 1.353 . S
C1279 H1249 0.930 . S
C1279 N1280 1.330 . S
C1279 C1281 1.446 . S
N1280 Co1239 2.151 . S
N1280 C1279 1.330 . S
N1280 C1284 1.418 . S
C1281 H1260 0.929 . S
C1281 C1279 1.446 . S
C1281 C1282 1.332 . S
C1282 H1262 0.931 . S
C1282 C1281 1.332 . S
C1282 C1283 1.267 . S
C1283 H1251 0.929 . S
C1283 C1282 1.267 . S
C1283 C1284 1.251 . S
C1284 H1254 0.929 . S
C1284 N1280 1.418 . S
C1284 C1283 1.251 . S
C1285 H1252 0.930 . S
C1285 C1287 1.406 . S
C1285 C1290 1.261 . S
C1286 H1253 0.930 . S
C1286 N1288 1.325 . S
C1286 C1289 1.357 . S
C1287 H1255 0.928 . S
C1287 C1285 1.406 . S
C1287 N1288 1.261 . S
N1288 Co1239 2.214 . S
N1288 C1286 1.325 . S
N1288 C1287 1.261 . S
C1289 H1259 0.931 . S
C1289 C1286 1.357 . S
C1289 C1290 1.312 . S
C1290 H1261 0.930 . S
C1290 C1285 1.261 . S
C1290 C1289 1.312 . S
C1291 O1263 1.214 . S
C1291 O1271 1.234 . S
C1292 H1264 0.929 . S
C1292 C1295 1.391 . S
C1292 C1297 1.391 . S
C1293 H1265 0.929 . S
C1293 C1294 1.390 . S
C1293 N1296 1.391 . S
C1294 H1266 0.930 . S
C1294 C1293 1.390 . S
C1294 C1295 1.392 . S
C1295 H1267 0.929 . S
C1295 C1292 1.391 . S
C1295 C1294 1.392 . S
N1296 Co1240 2.257 . S
N1296 C1293 1.391 . S
N1296 C1297 1.388 . S
C1297 H1268 0.930 . S
C1297 C1292 1.391 . S
C1297 N1296 1.388 . S
Co1298 O1300 2.162 . S
Co1298 O1306 2.074 . S
Co1298 O1309 2.093 . S
Co1298 O1322 2.097 1_556 S
Co1298 N1339 2.151 . S
Co1298 N1347 2.214 . S
Co1299 O1300 2.141 1_554 S
Co1299 O1305 2.058 1_554 S
Co1299 O1315 2.057 . S
Co1299 O1330 2.037 . S
Co1299 N1334 2.145 . S
Co1299 N1355 2.257 . S
O1300 Co1298 2.162 . S
O1300 Co1299 2.141 1_556 S
C1301 O1302 1.278 . S
C1301 O1309 1.224 1_554 S
O1302 C1301 1.278 . S
C1303 O1304 1.245 1_554 S
C1303 O1315 1.232 . S
O1304 C1303 1.245 1_556 S
O1305 Co1299 2.058 1_556 S
O1305 C1331 1.269 . S
O1306 Co1298 2.074 . S
O1306 C1331 1.257 . S
H1307 C1332 0.930 . S
H1308 C1338 0.930 . S
O1309 Co1298 2.093 . S
O1309 C1301 1.224 1_556 S
H1310 C1342 0.929 . S
H1311 C1344 0.930 . S
H1312 C1345 0.930 . S
H1313 C1343 0.929 . S
H1314 C1346 0.928 . S
O1315 Co1299 2.057 . S
O1315 C1303 1.232 . S
H1316 C1335 0.929 . S
H1317 C1336 0.929 . S
H1318 C1348 0.931 . S
H1319 C1340 0.929 . S
H1320 C1349 0.930 . S
H1321 C1341 0.931 . S
O1322 Co1298 2.097 1_554 S
O1322 C1350 1.214 . S
H1323 C1351 0.929 . S
H1324 C1352 0.929 . S
H1325 C1353 0.930 . S
H1326 C1354 0.929 . S
H1327 C1356 0.930 . S
H1328 C1333 0.930 . S
H1329 C1337 0.930 . S
O1330 Co1299 2.037 . S
O1330 C1350 1.234 . S
C1331 O1305 1.269 . S
C1331 O1306 1.257 . S
C1332 H1307 0.930 . S
C1332 C1335 1.388 . S
C1332 C1337 1.418 . S
C1333 H1328 0.930 . S
C1333 C1336 1.404 . S
C1333 C1337 1.353 . S
N1334 Co1299 2.145 . S
N1334 C1335 1.397 . S
N1334 C1336 1.334 . S
C1335 H1316 0.929 . S
C1335 C1332 1.388 . S
C1335 N1334 1.397 . S
C1336 H1317 0.929 . S
C1336 C1333 1.404 . S
C1336 N1334 1.334 . S
C1337 H1329 0.930 . S
C1337 C1332 1.418 . S
C1337 C1333 1.353 . S
C1338 H1308 0.930 . S
C1338 N1339 1.330 . S
C1338 C1340 1.446 . S
N1339 Co1298 2.151 . S
N1339 C1338 1.330 . S
N1339 C1343 1.418 . S
C1340 H1319 0.929 . S
C1340 C1338 1.446 . S
C1340 C1341 1.332 . S
C1341 H1321 0.931 . S
C1341 C1340 1.332 . S
C1341 C1342 1.267 . S
C1342 H1310 0.929 . S
C1342 C1341 1.267 . S
C1342 C1343 1.251 . S
C1343 H1313 0.929 . S
C1343 N1339 1.418 . S
C1343 C1342 1.251 . S
C1344 H1311 0.930 . S
C1344 C1346 1.406 . S
C1344 C1349 1.261 . S
C1345 H1312 0.930 . S
C1345 N1347 1.325 . S
C1345 C1348 1.357 . S
C1346 H1314 0.928 . S
C1346 C1344 1.406 . S
C1346 N1347 1.261 . S
N1347 Co1298 2.214 . S
N1347 C1345 1.325 . S
N1347 C1346 1.261 . S
C1348 H1318 0.931 . S
C1348 C1345 1.357 . S
C1348 C1349 1.312 . S
C1349 H1320 0.930 . S
C1349 C1344 1.261 . S
C1349 C1348 1.312 . S
C1350 O1322 1.214 . S
C1350 O1330 1.234 . S
C1351 H1323 0.929 . S
C1351 C1354 1.391 . S
C1351 C1356 1.391 . S
C1352 H1324 0.929 . S
C1352 C1353 1.390 . S
C1352 N1355 1.391 . S
C1353 H1325 0.930 . S
C1353 C1352 1.390 . S
C1353 C1354 1.392 . S
C1354 H1326 0.929 . S
C1354 C1351 1.391 . S
C1354 C1353 1.392 . S
N1355 Co1299 2.257 . S
N1355 C1352 1.391 . S
N1355 C1356 1.388 . S
C1356 H1327 0.930 . S
C1356 C1351 1.391 . S
C1356 N1355 1.388 . S
Co1357 O1359 2.143 . S
Co1357 O1365 2.074 . S
Co1357 O1368 2.093 . S
Co1357 O1381 2.097 1_554 S
Co1357 N1398 2.151 . S
Co1357 N1406 2.214 . S
Co1358 O1359 2.160 1_556 S
Co1358 O1364 2.058 1_556 S
Co1358 O1374 2.057 . S
Co1358 O1389 2.037 . S
Co1358 N1393 2.145 . S
Co1358 N1414 2.257 . S
O1359 Co1357 2.143 . S
O1359 Co1358 2.160 1_554 S
C1360 O1361 1.278 . S
C1360 O1368 1.224 1_556 S
O1361 C1360 1.278 . S
C1362 O1363 1.245 1_556 S
C1362 O1374 1.232 . S
O1363 C1362 1.245 1_554 S
O1364 Co1358 2.058 1_554 S
O1364 C1390 1.269 . S
O1365 Co1357 2.074 . S
O1365 C1390 1.257 . S
H1366 C1391 0.930 . S
H1367 C1397 0.930 . S
O1368 Co1357 2.093 . S
O1368 C1360 1.224 1_554 S
H1369 C1401 0.929 . S
H1370 C1403 0.930 . S
H1371 C1404 0.945 . S
H1372 C1402 0.929 . S
H1373 C1405 0.928 1_655 S
O1374 Co1358 2.057 . S
O1374 C1362 1.232 . S
H1375 C1394 0.929 . S
H1376 C1395 0.929 . S
H1377 C1407 0.931 . S
H1378 C1399 0.929 . S
H1379 C1408 0.930 . S
H1380 C1400 0.931 . S
O1381 Co1357 2.097 1_556 S
O1381 C1409 1.214 . S
H1382 C1410 0.929 . S
H1383 C1411 0.929 . S
H1384 C1412 0.930 . S
H1385 C1413 0.929 . S
H1386 C1415 0.930 . S
H1387 C1392 0.930 . S
H1388 C1396 0.930 . S
O1389 Co1358 2.037 . S
O1389 C1409 1.234 . S
C1390 O1364 1.269 . S
C1390 O1365 1.257 . S
C1391 H1366 0.930 . S
C1391 C1394 1.388 . S
C1391 C1396 1.418 . S
C1392 H1387 0.930 . S
C1392 C1395 1.404 . S
C1392 C1396 1.353 . S
N1393 Co1358 2.145 . S
N1393 C1394 1.397 . S
N1393 C1395 1.334 . S
C1394 H1375 0.929 . S
C1394 C1391 1.388 . S
C1394 N1393 1.397 . S
C1395 H1376 0.929 . S
C1395 C1392 1.404 . S
C1395 N1393 1.334 . S
C1396 H1388 0.930 . S
C1396 C1391 1.418 . S
C1396 C1392 1.353 . S
C1397 H1367 0.930 . S
C1397 N1398 1.330 . S
C1397 C1399 1.446 . S
N1398 Co1357 2.151 . S
N1398 C1397 1.330 . S
N1398 C1402 1.418 . S
C1399 H1378 0.929 . S
C1399 C1397 1.446 . S
C1399 C1400 1.332 . S
C1400 H1380 0.931 . S
C1400 C1399 1.332 . S
C1400 C1401 1.267 . S
C1401 H1369 0.929 . S
C1401 C1400 1.267 . S
C1401 C1402 1.251 . S
C1402 H1372 0.929 . S
C1402 N1398 1.418 . S
C1402 C1401 1.251 . S
C1403 H1370 0.930 . S
C1403 C1405 1.406 . S
C1403 C1408 1.261 . S
C1404 H1371 0.945 . S
C1404 N1406 1.325 1_455 S
C1404 C1407 1.357 . S
C1405 H1373 0.928 1_455 S
C1405 C1403 1.406 . S
C1405 N1406 1.261 1_455 S
N1406 Co1357 2.214 . S
N1406 C1404 1.325 1_655 S
N1406 C1405 1.261 1_655 S
C1407 H1377 0.931 . S
C1407 C1404 1.357 . S
C1407 C1408 1.312 . S
C1408 H1379 0.930 . S
C1408 C1403 1.261 . S
C1408 C1407 1.312 . S
C1409 O1381 1.214 . S
C1409 O1389 1.234 . S
C1410 H1382 0.929 . S
C1410 C1413 1.391 . S
C1410 C1415 1.391 . S
C1411 H1383 0.929 . S
C1411 C1412 1.390 . S
C1411 N1414 1.391 . S
C1412 H1384 0.930 . S
C1412 C1411 1.390 . S
C1412 C1413 1.392 . S
C1413 H1385 0.929 . S
C1413 C1410 1.391 . S
C1413 C1412 1.392 . S
N1414 Co1358 2.257 . S
N1414 C1411 1.391 . S
N1414 C1415 1.388 . S
C1415 H1386 0.930 . S
C1415 C1410 1.391 . S
C1415 N1414 1.388 . S
H1416 C1422 0.930 . S
H1417 C1425 0.930 . S
H1418 C1426 0.930 . S
H1419 C1427 0.930 . S
H1420 C1430 0.930 . S
H1421 C1431 0.930 . S
C1422 H1416 0.930 . S
C1422 C1423 1.355 . S
C1422 C1424 1.415 . S
C1423 C1422 1.355 . S
C1423 C1425 1.419 . S
C1424 C1422 1.415 . S
C1424 C1429 1.425 . S
C1424 C1431 1.409 . S
C1425 H1417 0.930 . S
C1425 C1423 1.419 . S
C1425 C1426 1.362 . S
C1426 H1418 0.930 . S
C1426 C1425 1.362 . S
C1426 C1429 1.409 . S
C1427 H1419 0.930 . S
C1427 C1428 1.355 . S
C1427 C1429 1.415 . S
C1428 C1427 1.355 . S
C1428 C1430 1.419 . S
C1429 C1424 1.425 . S
C1429 C1426 1.409 . S
C1429 C1427 1.415 . S
C1430 H1420 0.930 . S
C1430 C1428 1.419 . S
C1430 C1431 1.362 . S
C1431 H1421 0.930 . S
C1431 C1424 1.409 . S
C1431 C1430 1.362 . S
H1432 C1438 0.930 . S
H1433 C1441 0.930 . S
H1434 C1442 0.930 . S
H1435 C1443 0.930 . S
H1436 C1446 0.930 . S
H1437 C1447 0.930 . S
C1438 H1432 0.930 . S
C1438 C1439 1.355 . S
C1438 C1440 1.415 . S
C1439 C1438 1.355 . S
C1439 C1441 1.419 . S
C1440 C1438 1.415 . S
C1440 C1445 1.425 . S
C1440 C1447 1.409 . S
C1441 H1433 0.930 . S
C1441 C1439 1.419 . S
C1441 C1442 1.362 . S
C1442 H1434 0.930 . S
C1442 C1441 1.362 . S
C1442 C1445 1.409 . S
C1443 H1435 0.930 . S
C1443 C1444 1.355 . S
C1443 C1445 1.415 . S
C1444 C1443 1.355 . S
C1444 C1446 1.419 . S
C1445 C1440 1.425 . S
C1445 C1442 1.409 . S
C1445 C1443 1.415 . S
C1446 H1436 0.930 . S
C1446 C1444 1.419 . S
C1446 C1447 1.362 . S
C1447 H1437 0.930 . S
C1447 C1440 1.409 . S
C1447 C1446 1.362 . S
H1448 C1454 0.930 . S
H1449 C1457 0.930 . S
H1450 C1458 0.930 . S
H1451 C1459 0.930 . S
H1452 C1462 0.904 1_545 S
H1453 C1463 0.930 . S
C1454 H1448 0.930 . S
C1454 C1455 1.355 . S
C1454 C1456 1.415 . S
C1455 C1454 1.355 . S
C1455 C1457 1.419 . S
C1456 C1454 1.415 . S
C1456 C1461 1.425 . S
C1456 C1463 1.409 . S
C1457 H1449 0.930 . S
C1457 C1455 1.419 . S
C1457 C1458 1.362 . S
C1458 H1450 0.930 . S
C1458 C1457 1.362 . S
C1458 C1461 1.409 . S
C1459 H1451 0.930 . S
C1459 C1460 1.355 . S
C1459 C1461 1.415 1_556 S
C1460 C1459 1.355 . S
C1460 C1462 1.419 1_556 S
C1461 C1456 1.425 . S
C1461 C1458 1.409 . S
C1461 C1459 1.415 1_554 S
C1462 H1452 0.904 1_565 S
C1462 C1460 1.419 1_554 S
C1462 C1463 1.362 . S
C1463 H1453 0.930 . S
C1463 C1456 1.409 . S
C1463 C1462 1.362 . S
H1464 C1470 0.930 . S
H1465 C1473 0.930 . S
H1466 C1474 0.930 . S
H1467 C1475 0.930 . S
H1468 C1478 0.930 . S
H1469 C1479 0.930 . S
C1470 H1464 0.930 . S
C1470 C1471 1.355 . S
C1470 C1472 1.415 . S
C1471 C1470 1.355 . S
C1471 C1473 1.419 . S
C1472 C1470 1.415 . S
C1472 C1477 1.425 . S
C1472 C1479 1.409 . S
C1473 H1465 0.930 . S
C1473 C1471 1.419 . S
C1473 C1474 1.362 . S
C1474 H1466 0.930 . S
C1474 C1473 1.362 . S
C1474 C1477 1.409 . S
C1475 H1467 0.930 . S
C1475 C1476 1.355 . S
C1475 C1477 1.415 1_556 S
C1476 C1475 1.355 . S
C1476 C1478 1.419 . S
C1477 C1472 1.425 . S
C1477 C1474 1.409 . S
C1477 C1475 1.415 1_554 S
C1478 H1468 0.930 . S
C1478 C1476 1.419 . S
C1478 C1479 1.362 1_556 S
C1479 H1469 0.930 . S
C1479 C1472 1.409 . S
C1479 C1478 1.362 1_554 S
H1480 C1486 0.930 . S
H1481 C1489 0.930 . S
H1482 C1490 0.930 . S
H1483 C1491 0.930 . S
H1484 C1494 0.930 . S
H1485 C1495 0.930 . S
C1486 H1480 0.930 . S
C1486 C1487 1.355 . S
C1486 C1488 1.415 . S
C1487 C1486 1.355 . S
C1487 C1489 1.419 . S
C1488 C1486 1.415 . S
C1488 C1493 1.425 . S
C1488 C1495 1.409 . S
C1489 H1481 0.930 . S
C1489 C1487 1.419 . S
C1489 C1490 1.362 . S
C1490 H1482 0.930 . S
C1490 C1489 1.362 . S
C1490 C1493 1.409 . S
C1491 H1483 0.930 . S
C1491 C1492 1.355 . S
C1491 C1493 1.415 . S
C1492 C1491 1.355 . S
C1492 C1494 1.419 . S
C1493 C1488 1.425 . S
C1493 C1490 1.409 . S
C1493 C1491 1.415 . S
C1494 H1484 0.930 . S
C1494 C1492 1.419 . S
C1494 C1495 1.362 . S
C1495 H1485 0.930 . S
C1495 C1488 1.409 . S
C1495 C1494 1.362 . S
H1496 C1502 0.930 . S
H1497 C1505 0.930 . S
H1498 C1506 0.930 . S
H1499 C1507 0.930 . S
H1500 C1510 0.930 . S
H1501 C1511 0.930 . S
C1502 H1496 0.930 . S
C1502 C1503 1.355 . S
C1502 C1504 1.415 . S
C1503 C1502 1.355 . S
C1503 C1505 1.419 . S
C1504 C1502 1.415 . S
C1504 C1509 1.425 . S
C1504 C1511 1.409 . S
C1505 H1497 0.930 . S
C1505 C1503 1.419 . S
C1505 C1506 1.362 . S
C1506 H1498 0.930 . S
C1506 C1505 1.362 . S
C1506 C1509 1.409 . S
C1507 H1499 0.930 . S
C1507 C1508 1.355 . S
C1507 C1509 1.415 . S
C1508 C1507 1.355 . S
C1508 C1510 1.419 . S
C1509 C1504 1.425 . S
C1509 C1506 1.409 . S
C1509 C1507 1.415 . S
C1510 H1500 0.930 . S
C1510 C1508 1.419 . S
C1510 C1511 1.362 . S
C1511 H1501 0.930 . S
C1511 C1504 1.409 . S
C1511 C1510 1.362 . S
H1512 C1518 0.930 . S
H1513 C1521 0.930 . S
H1514 C1522 0.930 . S
H1515 C1523 0.930 . S
H1516 C1526 0.930 . S
H1517 C1527 0.930 . S
C1518 H1512 0.930 . S
C1518 C1519 1.355 . S
C1518 C1520 1.415 . S
C1519 C1518 1.355 . S
C1519 C1521 1.419 . S
C1520 C1518 1.415 . S
C1520 C1525 1.425 . S
C1520 C1527 1.409 . S
C1521 H1513 0.930 . S
C1521 C1519 1.419 . S
C1521 C1522 1.362 . S
C1522 H1514 0.930 . S
C1522 C1521 1.362 . S
C1522 C1525 1.409 . S
C1523 H1515 0.930 . S
C1523 C1524 1.355 . S
C1523 C1525 1.415 . S
C1524 C1523 1.355 . S
C1524 C1526 1.419 . S
C1525 C1520 1.425 . S
C1525 C1522 1.409 . S
C1525 C1523 1.415 . S
C1526 H1516 0.930 . S
C1526 C1524 1.419 . S
C1526 C1527 1.362 . S
C1527 H1517 0.930 . S
C1527 C1520 1.409 . S
C1527 C1526 1.362 . S
H1528 C1534 0.930 . S
H1529 C1537 0.930 . S
H1530 C1538 0.930 . S
H1531 C1539 0.930 . S
H1532 C1542 0.930 . S
H1533 C1543 0.930 . S
C1534 H1528 0.930 . S
C1534 C1535 1.355 . S
C1534 C1536 1.415 . S
C1535 C1534 1.355 . S
C1535 C1537 1.419 . S
C1536 C1534 1.415 . S
C1536 C1541 1.425 . S
C1536 C1543 1.409 . S
C1537 H1529 0.930 . S
C1537 C1535 1.419 . S
C1537 C1538 1.362 . S
C1538 H1530 0.930 . S
C1538 C1537 1.362 . S
C1538 C1541 1.409 . S
C1539 H1531 0.930 . S
C1539 C1540 1.355 . S
C1539 C1541 1.415 . S
C1540 C1539 1.355 . S
C1540 C1542 1.419 . S
C1541 C1536 1.425 . S
C1541 C1538 1.409 . S
C1541 C1539 1.415 . S
C1542 H1532 0.930 . S
C1542 C1540 1.419 . S
C1542 C1543 1.362 . S
C1543 H1533 0.930 . S
C1543 C1536 1.409 . S
C1543 C1542 1.362 . S
H1544 C1550 0.930 . S
H1545 C1553 0.930 . S
H1546 C1554 0.930 . S
H1547 C1555 0.930 . S
H1548 C1558 0.930 . S
H1549 C1559 0.930 . S
C1550 H1544 0.930 . S
C1550 C1551 1.355 . S
C1550 C1552 1.415 . S
C1551 C1550 1.355 . S
C1551 C1553 1.419 . S
C1552 C1550 1.415 . S
C1552 C1557 1.425 . S
C1552 C1559 1.409 . S
C1553 H1545 0.930 . S
C1553 C1551 1.419 . S
C1553 C1554 1.362 . S
C1554 H1546 0.930 . S
C1554 C1553 1.362 . S
C1554 C1557 1.409 . S
C1555 H1547 0.930 . S
C1555 C1556 1.355 . S
C1555 C1557 1.415 . S
C1556 C1555 1.355 . S
C1556 C1558 1.419 . S
C1557 C1552 1.425 . S
C1557 C1554 1.409 . S
C1557 C1555 1.415 . S
C1558 H1548 0.930 . S
C1558 C1556 1.419 . S
C1558 C1559 1.362 . S
C1559 H1549 0.930 . S
C1559 C1552 1.409 . S
C1559 C1558 1.362 . S
H1560 C1566 0.930 . S
H1561 C1569 0.930 . S
H1562 C1570 0.930 . S
H1563 C1571 0.930 . S
H1564 C1574 0.930 . S
H1565 C1575 0.930 . S
C1566 H1560 0.930 . S
C1566 C1567 1.355 . S
C1566 C1568 1.415 . S
C1567 C1566 1.355 . S
C1567 C1569 1.419 . S
C1568 C1566 1.415 . S
C1568 C1573 1.425 . S
C1568 C1575 1.409 . S
C1569 H1561 0.930 . S
C1569 C1567 1.419 . S
C1569 C1570 1.362 . S
C1570 H1562 0.930 . S
C1570 C1569 1.362 . S
C1570 C1573 1.409 . S
C1571 H1563 0.930 . S
C1571 C1572 1.355 . S
C1571 C1573 1.415 . S
C1572 C1571 1.355 . S
C1572 C1574 1.419 . S
C1573 C1568 1.425 . S
C1573 C1570 1.409 . S
C1573 C1571 1.415 . S
C1574 H1564 0.930 . S
C1574 C1572 1.419 . S
C1574 C1575 1.362 . S
C1575 H1565 0.930 . S
C1575 C1568 1.409 . S
C1575 C1574 1.362 . S
H1576 C1582 0.930 . S
H1577 C1585 0.930 . S
H1578 C1586 0.930 1_545 S
H1579 C1587 0.930 . S
H1580 C1590 0.930 . S
H1581 C1591 0.930 . S
C1582 H1576 0.930 . S
C1582 C1583 1.355 . S
C1582 C1584 1.415 . S
C1583 C1582 1.355 . S
C1583 C1585 1.419 . S
C1584 C1582 1.415 . S
C1584 C1589 1.425 . S
C1584 C1591 1.409 . S
C1585 H1577 0.930 . S
C1585 C1583 1.419 . S
C1585 C1586 1.362 . S
C1586 H1578 0.930 1_565 S
C1586 C1585 1.362 . S
C1586 C1589 1.409 . S
C1587 H1579 0.930 . S
C1587 C1588 1.355 . S
C1587 C1589 1.415 1_545 S
C1588 C1587 1.355 . S
C1588 C1590 1.419 1_545 S
C1589 C1584 1.425 . S
C1589 C1586 1.409 . S
C1589 C1587 1.415 1_565 S
C1590 H1580 0.930 . S
C1590 C1588 1.419 1_565 S
C1590 C1591 1.362 . S
C1591 H1581 0.930 . S
C1591 C1584 1.409 . S
C1591 C1590 1.362 . S
H1592 C1598 0.930 . S
H1593 C1601 0.930 . S
H1594 C1602 0.930 . S
H1595 C1603 0.930 . S
H1596 C1606 0.930 . S
H1597 C1607 0.930 . S
C1598 H1592 0.930 . S
C1598 C1599 1.355 . S
C1598 C1600 1.415 . S
C1599 C1598 1.355 . S
C1599 C1601 1.419 . S
C1600 C1598 1.415 . S
C1600 C1605 1.425 . S
C1600 C1607 1.409 . S
C1601 H1593 0.930 . S
C1601 C1599 1.419 . S
C1601 C1602 1.362 . S
C1602 H1594 0.930 . S
C1602 C1601 1.362 . S
C1602 C1605 1.409 . S
C1603 H1595 0.930 . S
C1603 C1604 1.355 . S
C1603 C1605 1.415 . S
C1604 C1603 1.355 . S
C1604 C1606 1.419 . S
C1605 C1600 1.425 . S
C1605 C1602 1.409 . S
C1605 C1603 1.415 . S
C1606 H1596 0.930 . S
C1606 C1604 1.419 . S
C1606 C1607 1.362 . S
C1607 H1597 0.930 . S
C1607 C1600 1.409 . S
C1607 C1606 1.362 . S
H1608 C1614 0.930 . S
H1609 C1617 0.930 . S
H1610 C1618 0.930 . S
H1611 C1619 0.930 . S
H1612 C1622 0.930 . S
H1613 C1623 0.930 1_554 S
C1614 H1608 0.930 . S
C1614 C1615 1.355 . S
C1614 C1616 1.415 1_554 S
C1615 C1614 1.355 . S
C1615 C1617 1.419 1_554 S
C1616 C1614 1.415 1_556 S
C1616 C1621 1.425 . S
C1616 C1623 1.409 . S
C1617 H1609 0.930 . S
C1617 C1615 1.419 1_556 S
C1617 C1618 1.362 . S
C1618 H1610 0.930 . S
C1618 C1617 1.362 . S
C1618 C1621 1.409 . S
C1619 H1611 0.930 . S
C1619 C1620 1.355 . S
C1619 C1621 1.415 . S
C1620 C1619 1.355 . S
C1620 C1622 1.419 . S
C1621 C1616 1.425 . S
C1621 C1618 1.409 . S
C1621 C1619 1.415 . S
C1622 H1612 0.930 . S
C1622 C1620 1.419 . S
C1622 C1623 1.362 . S
C1623 H1613 0.930 1_556 S
C1623 C1616 1.409 . S
C1623 C1622 1.362 . S
H1624 C1630 0.930 . S
H1625 C1633 0.930 . S
H1626 C1634 0.930 . S
H1627 C1635 0.930 . S
H1628 C1638 0.930 . S
H1629 C1639 0.930 . S
C1630 H1624 0.930 . S
C1630 C1631 1.355 1_556 S
C1630 C1632 1.415 . S
C1631 C1630 1.355 1_554 S
C1631 C1633 1.419 . S
C1632 C1630 1.415 . S
C1632 C1637 1.425 . S
C1632 C1639 1.409 . S
C1633 H1625 0.930 . S
C1633 C1631 1.419 . S
C1633 C1634 1.362 . S
C1634 H1626 0.930 . S
C1634 C1633 1.362 . S
C1634 C1637 1.409 1_554 S
C1635 H1627 0.930 . S
C1635 C1636 1.355 . S
C1635 C1637 1.415 . S
C1636 C1635 1.355 . S
C1636 C1638 1.419 . S
C1637 C1632 1.425 . S
C1637 C1634 1.409 1_556 S
C1637 C1635 1.415 . S
C1638 H1628 0.930 . S
C1638 C1636 1.419 . S
C1638 C1639 1.362 . S
C1639 H1629 0.930 . S
C1639 C1632 1.409 . S
C1639 C1638 1.362 . S
H1640 C1646 0.930 . S
H1641 C1649 0.930 . S
H1642 C1650 0.930 . S
H1643 C1651 0.930 . S
H1644 C1654 0.930 . S
H1645 C1655 0.930 . S
C1646 H1640 0.930 . S
C1646 C1647 1.355 . S
C1646 C1648 1.415 . S
C1647 C1646 1.355 . S
C1647 C1649 1.419 . S
C1648 C1646 1.415 . S
C1648 C1653 1.425 . S
C1648 C1655 1.409 . S
C1649 H1641 0.930 . S
C1649 C1647 1.419 . S
C1649 C1650 1.362 . S
C1650 H1642 0.930 . S
C1650 C1649 1.362 . S
C1650 C1653 1.409 . S
C1651 H1643 0.930 . S
C1651 C1652 1.355 . S
C1651 C1653 1.415 . S
C1652 C1651 1.355 . S
C1652 C1654 1.419 . S
C1653 C1648 1.425 . S
C1653 C1650 1.409 . S
C1653 C1651 1.415 . S
C1654 H1644 0.930 . S
C1654 C1652 1.419 . S
C1654 C1655 1.362 . S
C1655 H1645 0.930 . S
C1655 C1648 1.409 . S
C1655 C1654 1.362 . S
H1656 C1662 0.930 . S
H1657 C1665 0.930 . S
H1658 C1666 0.930 . S
H1659 C1667 0.930 . S
H1660 C1670 0.930 . S
H1661 C1671 0.930 . S
C1662 H1656 0.930 . S
C1662 C1663 1.355 . S
C1662 C1664 1.415 . S
C1663 C1662 1.355 . S
C1663 C1665 1.419 . S
C1664 C1662 1.415 . S
C1664 C1669 1.425 . S
C1664 C1671 1.409 . S
C1665 H1657 0.930 . S
C1665 C1663 1.419 . S
C1665 C1666 1.362 . S
C1666 H1658 0.930 . S
C1666 C1665 1.362 . S
C1666 C1669 1.409 . S
C1667 H1659 0.930 . S
C1667 C1668 1.355 . S
C1667 C1669 1.415 . S
C1668 C1667 1.355 . S
C1668 C1670 1.419 . S
C1669 C1664 1.425 . S
C1669 C1666 1.409 . S
C1669 C1667 1.415 . S
C1670 H1660 0.930 . S
C1670 C1668 1.419 . S
C1670 C1671 1.362 . S
C1671 H1661 0.930 . S
C1671 C1664 1.409 . S
C1671 C1670 1.362 . S
H1672 C1678 0.930 . S
H1673 C1681 0.930 . S
H1674 C1682 0.930 . S
H1675 C1683 0.930 . S
H1676 C1686 0.930 . S
H1677 C1687 0.930 . S
C1678 H1672 0.930 . S
C1678 C1679 1.355 1_655 S
C1678 C1680 1.415 . S
C1679 C1678 1.355 1_455 S
C1679 C1681 1.419 . S
C1680 C1678 1.415 . S
C1680 C1685 1.425 . S
C1680 C1687 1.409 . S
C1681 H1673 0.930 . S
C1681 C1679 1.419 . S
C1681 C1682 1.362 . S
C1682 H1674 0.930 . S
C1682 C1681 1.362 . S
C1682 C1685 1.409 1_455 S
C1683 H1675 0.930 . S
C1683 C1684 1.355 . S
C1683 C1685 1.415 . S
C1684 C1683 1.355 . S
C1684 C1686 1.419 . S
C1685 C1680 1.425 . S
C1685 C1682 1.409 1_655 S
C1685 C1683 1.415 . S
C1686 H1676 0.930 . S
C1686 C1684 1.419 . S
C1686 C1687 1.362 . S
C1687 H1677 0.930 . S
C1687 C1680 1.409 . S
C1687 C1686 1.362 . S
H1688 C1694 0.931 . S
H1689 C1697 0.930 . S
H1690 C1698 0.930 . S
H1691 C1699 0.930 . S
H1692 C1702 0.930 . S
H1693 C1703 0.930 . S
C1694 H1688 0.931 . S
C1694 C1695 1.355 . S
C1694 C1696 1.415 1_655 S
C1695 C1694 1.355 . S
C1695 C1697 1.419 . S
C1696 C1694 1.415 1_455 S
C1696 C1701 1.425 . S
C1696 C1703 1.409 . S
C1697 H1689 0.930 . S
C1697 C1695 1.419 . S
C1697 C1698 1.362 . S
C1698 H1690 0.930 . S
C1698 C1697 1.362 . S
C1698 C1701 1.409 1_655 S
C1699 H1691 0.930 . S
C1699 C1700 1.355 . S
C1699 C1701 1.415 . S
C1700 C1699 1.355 . S
C1700 C1702 1.419 . S
C1701 C1696 1.425 . S
C1701 C1698 1.409 1_455 S
C1701 C1699 1.415 . S
C1702 H1692 0.930 . S
C1702 C1700 1.419 . S
C1702 C1703 1.362 . S
C1703 H1693 0.930 . S
C1703 C1696 1.409 . S
C1703 C1702 1.362 . S
H1704 C1710 0.930 . S
H1705 C1713 0.930 . S
H1706 C1714 0.930 . S
H1707 C1715 0.930 . S
H1708 C1718 0.930 . S
H1709 C1719 0.930 . S
C1710 H1704 0.930 . S
C1710 C1711 1.355 1_655 S
C1710 C1712 1.415 . S
C1711 C1710 1.355 1_455 S
C1711 C1713 1.419 . S
C1712 C1710 1.415 . S
C1712 C1717 1.425 . S
C1712 C1719 1.409 . S
C1713 H1705 0.930 . S
C1713 C1711 1.419 . S
C1713 C1714 1.362 . S
C1714 H1706 0.930 . S
C1714 C1713 1.362 . S
C1714 C1717 1.409 1_455 S
C1715 H1707 0.930 . S
C1715 C1716 1.355 . S
C1715 C1717 1.415 . S
C1716 C1715 1.355 . S
C1716 C1718 1.419 . S
C1717 C1712 1.425 . S
C1717 C1714 1.409 1_655 S
C1717 C1715 1.415 . S
C1718 H1708 0.930 . S
C1718 C1716 1.419 . S
C1718 C1719 1.362 . S
C1719 H1709 0.930 . S
C1719 C1712 1.409 . S
C1719 C1718 1.362 . S
H1720 C1726 0.930 . S
H1721 C1729 0.930 . S
H1722 C1730 0.900 1_655 S
H1723 C1731 0.930 . S
H1724 C1734 0.930 . S
H1725 C1735 0.930 . S
C1726 H1720 0.930 . S
C1726 C1727 1.355 . S
C1726 C1728 1.415 . S
C1727 C1726 1.355 . S
C1727 C1729 1.419 . S
C1728 C1726 1.415 . S
C1728 C1733 1.425 . S
C1728 C1735 1.409 . S
C1729 H1721 0.930 . S
C1729 C1727 1.419 . S
C1729 C1730 1.362 . S
C1730 H1722 0.900 1_455 S
C1730 C1729 1.362 . S
C1730 C1733 1.409 . S
C1731 H1723 0.930 . S
C1731 C1732 1.355 . S
C1731 C1733 1.415 1_655 S
C1732 C1731 1.355 . S
C1732 C1734 1.419 1_655 S
C1733 C1728 1.425 . S
C1733 C1730 1.409 . S
C1733 C1731 1.415 1_455 S
C1734 H1724 0.930 . S
C1734 C1732 1.419 1_455 S
C1734 C1735 1.362 . S
C1735 H1725 0.930 . S
C1735 C1728 1.409 . S
C1735 C1734 1.362 . S
H1736 C1742 0.930 . S
H1737 C1745 0.930 . S
H1738 C1746 0.930 . S
H1739 C1747 0.930 . S
H1740 C1750 0.930 . S
H1741 C1751 0.930 . S
C1742 H1736 0.930 . S
C1742 C1743 1.355 1_565 S
C1742 C1744 1.415 . S
C1743 C1742 1.355 1_545 S
C1743 C1745 1.419 . S
C1744 C1742 1.415 . S
C1744 C1749 1.425 . S
C1744 C1751 1.409 . S
C1745 H1737 0.930 . S
C1745 C1743 1.419 . S
C1745 C1746 1.362 . S
C1746 H1738 0.930 . S
C1746 C1745 1.362 . S
C1746 C1749 1.409 1_545 S
C1747 H1739 0.930 . S
C1747 C1748 1.355 . S
C1747 C1749 1.415 . S
C1748 C1747 1.355 . S
C1748 C1750 1.419 . S
C1749 C1744 1.425 . S
C1749 C1746 1.409 1_565 S
C1749 C1747 1.415 . S
C1750 H1740 0.930 . S
C1750 C1748 1.419 . S
C1750 C1751 1.362 . S
C1751 H1741 0.930 . S
C1751 C1744 1.409 . S
C1751 C1750 1.362 . S
H1752 C1758 0.930 . S
H1753 C1761 0.930 . S
H1754 C1762 0.930 . S
H1755 C1763 0.926 1_545 S
H1756 C1766 0.930 . S
H1757 C1767 0.930 . S
C1758 H1752 0.930 . S
C1758 C1759 1.355 . S
C1758 C1760 1.415 . S
C1759 C1758 1.355 . S
C1759 C1761 1.419 . S
C1760 C1758 1.415 . S
C1760 C1765 1.425 . S
C1760 C1767 1.409 1_545 S
C1761 H1753 0.930 . S
C1761 C1759 1.419 . S
C1761 C1762 1.362 . S
C1762 H1754 0.930 . S
C1762 C1761 1.362 . S
C1762 C1765 1.409 . S
C1763 H1755 0.926 1_565 S
C1763 C1764 1.355 . S
C1763 C1765 1.415 1_565 S
C1764 C1763 1.355 . S
C1764 C1766 1.419 . S
C1765 C1760 1.425 . S
C1765 C1762 1.409 . S
C1765 C1763 1.415 1_545 S
C1766 H1756 0.930 . S
C1766 C1764 1.419 . S
C1766 C1767 1.362 . S
C1767 H1757 0.930 . S
C1767 C1760 1.409 1_565 S
C1767 C1766 1.362 . S
H1768 C1774 0.930 . S
H1769 C1777 0.930 . S
H1770 C1778 0.930 . S
H1771 C1779 0.930 . S
H1772 C1782 0.930 . S
H1773 C1783 0.930 . S
C1774 H1768 0.930 . S
C1774 C1775 1.355 . S
C1774 C1776 1.415 . S
C1775 C1774 1.355 . S
C1775 C1777 1.419 . S
C1776 C1774 1.415 . S
C1776 C1781 1.425 . S
C1776 C1783 1.409 . S
C1777 H1769 0.930 . S
C1777 C1775 1.419 . S
C1777 C1778 1.362 . S
C1778 H1770 0.930 . S
C1778 C1777 1.362 . S
C1778 C1781 1.409 . S
C1779 H1771 0.930 . S
C1779 C1780 1.355 . S
C1779 C1781 1.415 . S
C1780 C1779 1.355 . S
C1780 C1782 1.419 . S
C1781 C1776 1.425 . S
C1781 C1778 1.409 . S
C1781 C1779 1.415 . S
C1782 H1772 0.930 . S
C1782 C1780 1.419 . S
C1782 C1783 1.362 . S
C1783 H1773 0.930 . S
C1783 C1776 1.409 . S
C1783 C1782 1.362 . S
H1784 C1790 0.930 . S
H1785 C1793 0.930 . S
H1786 C1794 0.930 . S
H1787 C1795 0.930 . S
H1788 C1798 0.930 . S
H1789 C1799 0.930 . S
C1790 H1784 0.930 . S
C1790 C1791 1.355 . S
C1790 C1792 1.415 . S
C1791 C1790 1.355 . S
C1791 C1793 1.419 . S
C1792 C1790 1.415 . S
C1792 C1797 1.425 . S
C1792 C1799 1.409 . S
C1793 H1785 0.930 . S
C1793 C1791 1.419 . S
C1793 C1794 1.362 . S
C1794 H1786 0.930 . S
C1794 C1793 1.362 . S
C1794 C1797 1.409 . S
C1795 H1787 0.930 . S
C1795 C1796 1.355 . S
C1795 C1797 1.415 1_565 S
C1796 C1795 1.355 . S
C1796 C1798 1.419 . S
C1797 C1792 1.425 . S
C1797 C1794 1.409 . S
C1797 C1795 1.415 1_545 S
C1798 H1788 0.930 . S
C1798 C1796 1.419 . S
C1798 C1799 1.362 1_565 S
C1799 H1789 0.930 . S
C1799 C1792 1.409 . S
C1799 C1798 1.362 1_545 S
H1800 C1806 0.930 . S
H1801 C1809 0.930 . S
H1802 C1810 0.930 . S
H1803 C1811 0.930 . S
H1804 C1814 0.930 . S
H1805 C1815 0.930 . S
C1806 H1800 0.930 . S
C1806 C1807 1.355 1_455 S
C1806 C1808 1.415 . S
C1807 C1806 1.355 1_655 S
C1807 C1809 1.419 . S
C1808 C1806 1.415 . S
C1808 C1813 1.425 1_455 S
C1808 C1815 1.409 . S
C1809 H1801 0.930 . S
C1809 C1807 1.419 . S
C1809 C1810 1.362 . S
C1810 H1802 0.930 . S
C1810 C1809 1.362 . S
C1810 C1813 1.409 . S
C1811 H1803 0.930 . S
C1811 C1812 1.355 1_655 S
C1811 C1813 1.415 . S
C1812 C1811 1.355 1_455 S
C1812 C1814 1.419 . S
C1813 C1808 1.425 1_655 S
C1813 C1810 1.409 . S
C1813 C1811 1.415 . S
C1814 H1804 0.930 . S
C1814 C1812 1.419 . S
C1814 C1815 1.362 . S
C1815 H1805 0.930 . S
C1815 C1808 1.409 . S
C1815 C1814 1.362 . S
H1816 C1822 0.930 . S
H1817 C1825 0.930 . S
H1818 C1826 0.930 . S
H1819 C1827 0.930 . S
H1820 C1830 0.930 . S
H1821 C1831 0.930 . S
C1822 H1816 0.930 . S
C1822 C1823 1.355 . S
C1822 C1824 1.415 . S
C1823 C1822 1.355 . S
C1823 C1825 1.419 1_455 S
C1824 C1822 1.415 . S
C1824 C1829 1.425 1_455 S
C1824 C1831 1.409 . S
C1825 H1817 0.930 . S
C1825 C1823 1.419 1_655 S
C1825 C1826 1.362 . S
C1826 H1818 0.930 . S
C1826 C1825 1.362 . S
C1826 C1829 1.409 . S
C1827 H1819 0.930 . S
C1827 C1828 1.355 . S
C1827 C1829 1.415 . S
C1828 C1827 1.355 . S
C1828 C1830 1.419 1_655 S
C1829 C1824 1.425 1_655 S
C1829 C1826 1.409 . S
C1829 C1827 1.415 . S
C1830 H1820 0.930 . S
C1830 C1828 1.419 1_455 S
C1830 C1831 1.362 . S
C1831 H1821 0.930 . S
C1831 C1824 1.409 . S
C1831 C1830 1.362 . S
H1832 C1838 0.930 . S
H1833 C1841 0.930 . S
H1834 C1842 0.930 . S
H1835 C1843 0.930 . S
H1836 C1846 0.930 . S
H1837 C1847 0.930 . S
C1838 H1832 0.930 . S
C1838 C1839 1.355 . S
C1838 C1840 1.415 . S
C1839 C1838 1.355 . S
C1839 C1841 1.419 1_565 S
C1840 C1838 1.415 . S
C1840 C1845 1.425 1_565 S
C1840 C1847 1.409 . S
C1841 H1833 0.930 . S
C1841 C1839 1.419 1_545 S
C1841 C1842 1.362 . S
C1842 H1834 0.930 . S
C1842 C1841 1.362 . S
C1842 C1845 1.409 . S
C1843 H1835 0.930 . S
C1843 C1844 1.355 . S
C1843 C1845 1.415 . S
C1844 C1843 1.355 . S
C1844 C1846 1.419 1_545 S
C1845 C1840 1.425 1_545 S
C1845 C1842 1.409 . S
C1845 C1843 1.415 . S
C1846 H1836 0.930 . S
C1846 C1844 1.419 1_565 S
C1846 C1847 1.362 . S
C1847 H1837 0.930 . S
C1847 C1840 1.409 . S
C1847 C1846 1.362 . S
H1848 C1854 0.930 . S
H1849 C1857 0.930 . S
H1850 C1858 0.930 . S
H1851 C1859 0.930 . S
H1852 C1862 0.930 . S
H1853 C1863 0.930 . S
C1854 H1848 0.930 . S
C1854 C1855 1.355 . S
C1854 C1856 1.415 . S
C1855 C1854 1.355 . S
C1855 C1857 1.419 . S
C1856 C1854 1.415 . S
C1856 C1861 1.425 . S
C1856 C1863 1.409 . S
C1857 H1849 0.930 . S
C1857 C1855 1.419 . S
C1857 C1858 1.362 . S
C1858 H1850 0.930 . S
C1858 C1857 1.362 . S
C1858 C1861 1.409 . S
C1859 H1851 0.930 . S
C1859 C1860 1.355 . S
C1859 C1861 1.415 . S
C1860 C1859 1.355 . S
C1860 C1862 1.419 . S
C1861 C1856 1.425 . S
C1861 C1858 1.409 . S
C1861 C1859 1.415 . S
C1862 H1852 0.930 . S
C1862 C1860 1.419 . S
C1862 C1863 1.362 . S
C1863 H1853 0.930 . S
C1863 C1856 1.409 . S
C1863 C1862 1.362 . S
H1864 C1870 0.929 1_556 S
H1865 C1873 0.930 . S
H1866 C1874 0.930 . S
H1867 C1875 0.930 . S
H1868 C1878 0.930 . S
H1869 C1879 0.930 . S
C1870 H1864 0.929 1_554 S
C1870 C1871 1.355 . S
C1870 C1872 1.414 1_554 S
C1871 C1870 1.355 . S
C1871 C1873 1.419 . S
C1872 C1870 1.414 1_556 S
C1872 C1877 1.425 1_556 S
C1872 C1879 1.409 . S
C1873 H1865 0.930 . S
C1873 C1871 1.419 . S
C1873 C1874 1.362 . S
C1874 H1866 0.930 . S
C1874 C1873 1.362 . S
C1874 C1877 1.409 . S
C1875 H1867 0.930 . S
C1875 C1876 1.355 1_554 S
C1875 C1877 1.415 . S
C1876 C1875 1.355 1_556 S
C1876 C1878 1.419 . S
C1877 C1872 1.425 1_554 S
C1877 C1874 1.409 . S
C1877 C1875 1.415 . S
C1878 H1868 0.930 . S
C1878 C1876 1.419 . S
C1878 C1879 1.362 . S
C1879 H1869 0.930 . S
C1879 C1872 1.409 . S
C1879 C1878 1.362 . S
H1880 C1886 0.930 . S
H1881 C1889 0.930 . S
H1882 C1890 0.930 . S
H1883 C1891 0.930 . S
H1884 C1894 0.930 . S
H1885 C1895 0.930 . S
C1886 H1880 0.930 . S
C1886 C1887 1.355 . S
C1886 C1888 1.415 . S
C1887 C1886 1.355 . S
C1887 C1889 1.419 . S
C1888 C1886 1.415 . S
C1888 C1893 1.425 . S
C1888 C1895 1.409 . S
C1889 H1881 0.930 . S
C1889 C1887 1.419 . S
C1889 C1890 1.362 . S
C1890 H1882 0.930 . S
C1890 C1889 1.362 . S
C1890 C1893 1.409 . S
C1891 H1883 0.930 . S
C1891 C1892 1.355 . S
C1891 C1893 1.415 . S
C1892 C1891 1.355 . S
C1892 C1894 1.419 . S
C1893 C1888 1.425 . S
C1893 C1890 1.409 . S
C1893 C1891 1.415 . S
C1894 H1884 0.930 . S
C1894 C1892 1.419 . S
C1894 C1895 1.362 . S
C1895 H1885 0.930 . S
C1895 C1888 1.409 . S
C1895 C1894 1.362 . S
H1896 C1902 0.930 . S
H1897 C1905 0.930 . S
H1898 C1906 0.930 . S
H1899 C1907 0.930 . S
H1900 C1910 0.930 . S
H1901 C1911 0.930 . S
C1902 H1896 0.930 . S
C1902 C1903 1.355 . S
C1902 C1904 1.415 . S
C1903 C1902 1.355 . S
C1903 C1905 1.419 . S
C1904 C1902 1.415 . S
C1904 C1909 1.425 . S
C1904 C1911 1.409 . S
C1905 H1897 0.930 . S
C1905 C1903 1.419 . S
C1905 C1906 1.362 . S
C1906 H1898 0.930 . S
C1906 C1905 1.362 . S
C1906 C1909 1.409 . S
C1907 H1899 0.930 . S
C1907 C1908 1.355 . S
C1907 C1909 1.415 . S
C1908 C1907 1.355 . S
C1908 C1910 1.419 . S
C1909 C1904 1.425 . S
C1909 C1906 1.409 . S
C1909 C1907 1.415 . S
C1910 H1900 0.930 . S
C1910 C1908 1.419 . S
C1910 C1911 1.362 . S
C1911 H1901 0.930 . S
C1911 C1904 1.409 . S
C1911 C1910 1.362 . S
H1912 C1918 0.930 . S
H1913 C1921 0.930 . S
H1914 C1922 0.930 . S
H1915 C1923 0.930 . S
H1916 C1926 0.930 . S
H1917 C1927 0.930 . S
C1918 H1912 0.930 . S
C1918 C1919 1.355 . S
C1918 C1920 1.415 . S
C1919 C1918 1.355 . S
C1919 C1921 1.419 . S
C1920 C1918 1.415 . S
C1920 C1925 1.425 . S
C1920 C1927 1.409 . S
C1921 H1913 0.930 . S
C1921 C1919 1.419 . S
C1921 C1922 1.362 . S
C1922 H1914 0.930 . S
C1922 C1921 1.362 . S
C1922 C1925 1.409 . S
C1923 H1915 0.930 . S
C1923 C1924 1.355 . S
C1923 C1925 1.415 . S
C1924 C1923 1.355 . S
C1924 C1926 1.419 . S
C1925 C1920 1.425 . S
C1925 C1922 1.409 . S
C1925 C1923 1.415 . S
C1926 H1916 0.930 . S
C1926 C1924 1.419 . S
C1926 C1927 1.362 . S
C1927 H1917 0.930 . S
C1927 C1920 1.409 . S
C1927 C1926 1.362 . S
H1928 C1934 0.930 . S
H1929 C1937 0.930 . S
H1930 C1938 0.930 . S
H1931 C1939 0.930 . S
H1932 C1942 0.930 . S
H1933 C1943 0.930 . S
C1934 H1928 0.930 . S
C1934 C1935 1.355 . S
C1934 C1936 1.415 . S
C1935 C1934 1.355 . S
C1935 C1937 1.419 . S
C1936 C1934 1.415 . S
C1936 C1941 1.425 . S
C1936 C1943 1.409 . S
C1937 H1929 0.930 . S
C1937 C1935 1.419 . S
C1937 C1938 1.362 . S
C1938 H1930 0.930 . S
C1938 C1937 1.362 . S
C1938 C1941 1.409 . S
C1939 H1931 0.930 . S
C1939 C1940 1.355 . S
C1939 C1941 1.415 . S
C1940 C1939 1.355 . S
C1940 C1942 1.419 . S
C1941 C1936 1.425 . S
C1941 C1938 1.409 . S
C1941 C1939 1.415 . S
C1942 H1932 0.930 . S
C1942 C1940 1.419 . S
C1942 C1943 1.362 . S
C1943 H1933 0.930 . S
C1943 C1936 1.409 . S
C1943 C1942 1.362 . S
H1944 C1950 0.930 . S
H1945 C1953 0.930 . S
H1946 C1954 0.930 . S
H1947 C1955 0.930 . S
H1948 C1958 0.930 . S
H1949 C1959 0.930 . S
C1950 H1944 0.930 . S
C1950 C1951 1.355 . S
C1950 C1952 1.415 . S
C1951 C1950 1.355 . S
C1951 C1953 1.419 . S
C1952 C1950 1.415 . S
C1952 C1957 1.425 . S
C1952 C1959 1.409 . S
C1953 H1945 0.930 . S
C1953 C1951 1.419 . S
C1953 C1954 1.362 . S
C1954 H1946 0.930 . S
C1954 C1953 1.362 . S
C1954 C1957 1.409 . S
C1955 H1947 0.930 . S
C1955 C1956 1.355 . S
C1955 C1957 1.415 . S
C1956 C1955 1.355 . S
C1956 C1958 1.419 . S
C1957 C1952 1.425 . S
C1957 C1954 1.409 . S
C1957 C1955 1.415 . S
C1958 H1948 0.930 . S
C1958 C1956 1.419 . S
C1958 C1959 1.362 . S
C1959 H1949 0.930 . S
C1959 C1952 1.409 . S
C1959 C1958 1.362 . S
H1960 C1966 0.929 1_565 S
H1961 C1969 0.930 . S
H1962 C1970 0.930 . S
H1963 C1971 0.930 . S
H1964 C1974 0.930 . S
H1965 C1975 0.930 . S
C1966 H1960 0.929 1_545 S
C1966 C1967 1.355 . S
C1966 C1968 1.415 1_545 S
C1967 C1966 1.355 . S
C1967 C1969 1.419 . S
C1968 C1966 1.415 1_565 S
C1968 C1973 1.425 1_565 S
C1968 C1975 1.409 . S
C1969 H1961 0.930 . S
C1969 C1967 1.419 . S
C1969 C1970 1.362 . S
C1970 H1962 0.930 . S
C1970 C1969 1.362 . S
C1970 C1973 1.409 . S
C1971 H1963 0.930 . S
C1971 C1972 1.355 1_545 S
C1971 C1973 1.415 . S
C1972 C1971 1.355 1_565 S
C1972 C1974 1.419 . S
C1973 C1968 1.425 1_545 S
C1973 C1970 1.409 . S
C1973 C1971 1.415 . S
C1974 H1964 0.930 . S
C1974 C1972 1.419 . S
C1974 C1975 1.362 . S
C1975 H1965 0.930 . S
C1975 C1968 1.409 . S
C1975 C1974 1.362 . S
H1976 C1982 0.930 . S
H1977 C1985 0.930 . S
H1978 C1986 0.930 . S
H1979 C1987 0.930 . S
H1980 C1990 0.930 . S
H1981 C1991 0.930 . S
C1982 H1976 0.930 . S
C1982 C1983 1.345 1_556 S
C1982 C1984 1.415 . S
C1983 C1982 1.345 1_554 S
C1983 C1985 1.433 . S
C1984 C1982 1.415 . S
C1984 C1989 1.425 1_556 S
C1984 C1991 1.409 . S
C1985 H1977 0.930 . S
C1985 C1983 1.433 . S
C1985 C1986 1.362 . S
C1986 H1978 0.930 . S
C1986 C1985 1.362 . S
C1986 C1989 1.409 . S
C1987 H1979 0.930 . S
C1987 C1988 1.355 . S
C1987 C1989 1.415 . S
C1988 C1987 1.355 . S
C1988 C1990 1.419 1_554 S
C1989 C1984 1.425 1_554 S
C1989 C1986 1.409 . S
C1989 C1987 1.415 . S
C1990 H1980 0.930 . S
C1990 C1988 1.419 1_556 S
C1990 C1991 1.362 . S
C1991 H1981 0.930 . S
C1991 C1984 1.409 . S
C1991 C1990 1.362 . S
H1992 C1998 0.930 . S
H1993 C2001 0.930 . S
H1994 C2002 0.930 . S
H1995 C2003 0.930 . S
H1996 C2006 0.930 . S
H1997 C2007 0.930 . S
C1998 H1992 0.930 . S
C1998 C1999 1.385 . S
C1998 C2000 1.415 . S
C1999 C1998 1.385 . S
C1999 C2001 1.383 1_655 S
C2000 C1998 1.415 . S
C2000 C2005 1.427 1_655 S
C2000 C2007 1.409 1_565 S
C2001 H1993 0.930 . S
C2001 C1999 1.383 1_455 S
C2001 C2002 1.362 . S
C2002 H1994 0.930 . S
C2002 C2001 1.362 . S
C2002 C2005 1.420 . S
C2003 H1995 0.930 . S
C2003 C2004 1.355 1_455 S
C2003 C2005 1.402 1_545 S
C2004 C2003 1.355 1_655 S
C2004 C2006 1.419 . S
C2005 C2000 1.427 1_455 S
C2005 C2002 1.420 . S
C2005 C2003 1.402 1_565 S
C2006 H1996 0.930 . S
C2006 C2004 1.419 . S
C2006 C2007 1.362 . S
C2007 H1997 0.930 . S
C2007 C2000 1.409 1_545 S
C2007 C2006 1.362 . S
H2008 C2014 0.930 . S
H2009 C2017 0.930 . S
H2010 C2018 0.930 . S
H2011 C2019 0.930 . S
H2012 C2022 0.930 . S
H2013 C2023 0.930 . S
C2014 H2008 0.930 . S
C2014 C2015 1.355 . S
C2014 C2016 1.415 . S
C2015 C2014 1.355 . S
C2015 C2017 1.419 1_455 S
C2016 C2014 1.415 . S
C2016 C2021 1.425 1_455 S
C2016 C2023 1.409 . S
C2017 H2009 0.930 . S
C2017 C2015 1.419 1_655 S
C2017 C2018 1.362 . S
C2018 H2010 0.930 . S
C2018 C2017 1.362 . S
C2018 C2021 1.409 . S
C2019 H2011 0.930 . S
C2019 C2020 1.355 1_655 S
C2019 C2021 1.415 . S
C2020 C2019 1.355 1_455 S
C2020 C2022 1.419 . S
C2021 C2016 1.425 1_655 S
C2021 C2018 1.409 . S
C2021 C2019 1.415 . S
C2022 H2012 0.930 . S
C2022 C2020 1.419 . S
C2022 C2023 1.362 . S
C2023 H2013 0.930 . S
C2023 C2016 1.409 . S
C2023 C2022 1.362 . S
H2024 C2030 0.930 . S
H2025 C2033 0.930 . S
H2026 C2034 0.930 1_554 S
H2027 C2035 0.930 . S
H2028 C2038 0.930 . S
H2029 C2039 0.930 . S
C2030 H2024 0.930 . S
C2030 C2031 1.355 1_545 S
C2030 C2032 1.415 . S
C2031 C2030 1.355 1_565 S
C2031 C2033 1.419 . S
C2032 C2030 1.415 . S
C2032 C2037 1.425 1_546 S
C2032 C2039 1.409 . S
C2033 H2025 0.930 . S
C2033 C2031 1.419 . S
C2033 C2034 1.362 . S
C2034 H2026 0.930 1_556 S
C2034 C2033 1.362 . S
C2034 C2037 1.409 1_556 S
C2035 H2027 0.930 . S
C2035 C2036 1.355 . S
C2035 C2037 1.415 . S
C2036 C2035 1.355 . S
C2036 C2038 1.419 1_565 S
C2037 C2032 1.425 1_564 S
C2037 C2034 1.409 1_554 S
C2037 C2035 1.415 . S
C2038 H2028 0.930 . S
C2038 C2036 1.419 1_545 S
C2038 C2039 1.362 1_554 S
C2039 H2029 0.930 . S
C2039 C2032 1.409 . S
C2039 C2038 1.362 1_556 S
H2040 C2046 0.930 . S
H2041 C2049 0.930 . S
H2042 C2050 0.930 . S
H2043 C2051 0.930 . S
H2044 C2054 0.930 . S
H2045 C2055 0.930 . S
C2046 H2040 0.930 . S
C2046 C2047 1.355 . S
C2046 C2048 1.415 1_554 S
C2047 C2046 1.355 . S
C2047 C2049 1.419 . S
C2048 C2046 1.415 1_556 S
C2048 C2053 1.425 1_556 S
C2048 C2055 1.409 . S
C2049 H2041 0.930 . S
C2049 C2047 1.419 . S
C2049 C2050 1.362 . S
C2050 H2042 0.930 . S
C2050 C2049 1.362 . S
C2050 C2053 1.409 . S
C2051 H2043 0.930 . S
C2051 C2052 1.355 . S
C2051 C2053 1.415 1_556 S
C2052 C2051 1.355 . S
C2052 C2054 1.419 . S
C2053 C2048 1.425 1_554 S
C2053 C2050 1.409 . S
C2053 C2051 1.415 1_554 S
C2054 H2044 0.930 . S
C2054 C2052 1.419 . S
C2054 C2055 1.362 . S
C2055 H2045 0.930 . S
C2055 C2048 1.409 . S
C2055 C2054 1.362 . S
H2056 C2062 0.930 . S
H2057 C2065 0.930 . S
H2058 C2066 0.930 . S
H2059 C2067 0.930 . S
H2060 C2070 0.930 . S
H2061 C2071 0.930 . S
C2062 H2056 0.930 . S
C2062 C2063 1.355 1_565 S
C2062 C2064 1.415 . S
C2063 C2062 1.355 1_545 S
C2063 C2065 1.419 . S
C2064 C2062 1.415 . S
C2064 C2069 1.425 1_565 S
C2064 C2071 1.409 . S
C2065 H2057 0.930 . S
C2065 C2063 1.419 . S
C2065 C2066 1.362 . S
C2066 H2058 0.930 . S
C2066 C2065 1.362 . S
C2066 C2069 1.409 . S
C2067 H2059 0.930 . S
C2067 C2068 1.372 . S
C2067 C2069 1.415 . S
C2068 C2067 1.372 . S
C2068 C2070 1.398 1_545 S
C2069 C2064 1.425 1_545 S
C2069 C2066 1.409 . S
C2069 C2067 1.415 . S
C2070 H2060 0.930 . S
C2070 C2068 1.398 1_565 S
C2070 C2071 1.362 . S
C2071 H2061 0.930 . S
C2071 C2064 1.409 . S
C2071 C2070 1.362 . S
H2072 C2078 0.930 . S
H2073 C2081 0.930 . S
H2074 C2082 0.930 . S
H2075 C2083 0.930 . S
H2076 C2086 0.930 . S
H2077 C2087 0.930 . S
C2078 H2072 0.930 . S
C2078 C2079 1.355 . S
C2078 C2080 1.415 . S
C2079 C2078 1.355 . S
C2079 C2081 1.419 . S
C2080 C2078 1.415 . S
C2080 C2085 1.425 . S
C2080 C2087 1.409 . S
C2081 H2073 0.930 . S
C2081 C2079 1.419 . S
C2081 C2082 1.362 . S
C2082 H2074 0.930 . S
C2082 C2081 1.362 . S
C2082 C2085 1.409 . S
C2083 H2075 0.930 . S
C2083 C2084 1.355 . S
C2083 C2085 1.415 . S
C2084 C2083 1.355 . S
C2084 C2086 1.419 . S
C2085 C2080 1.425 . S
C2085 C2082 1.409 . S
C2085 C2083 1.415 . S
C2086 H2076 0.930 . S
C2086 C2084 1.419 . S
C2086 C2087 1.362 . S
C2087 H2077 0.930 . S
C2087 C2080 1.409 . S
C2087 C2086 1.362 . S
H2088 C2094 0.930 . S
H2089 C2097 0.930 . S
H2090 C2098 0.930 1_655 S
H2091 C2099 0.930 . S
H2092 C2102 0.930 . S
H2093 C2103 0.930 1_455 S
C2094 H2088 0.930 . S
C2094 C2095 1.355 1_554 S
C2094 C2096 1.415 . S
C2095 C2094 1.355 1_556 S
C2095 C2097 1.419 . S
C2096 C2094 1.415 . S
C2096 C2101 1.425 1_454 S
C2096 C2103 1.409 1_455 S
C2097 H2089 0.930 . S
C2097 C2095 1.419 . S
C2097 C2098 1.362 . S
C2098 H2090 0.930 1_455 S
C2098 C2097 1.362 . S
C2098 C2101 1.409 1_455 S
C2099 H2091 0.930 . S
C2099 C2100 1.384 . S
C2099 C2101 1.415 . S
C2100 C2099 1.384 . S
C2100 C2102 1.384 1_556 S
C2101 C2096 1.425 1_656 S
C2101 C2098 1.409 1_655 S
C2101 C2099 1.415 . S
C2102 H2092 0.930 . S
C2102 C2100 1.384 1_554 S
C2102 C2103 1.362 . S
C2103 H2093 0.930 1_655 S
C2103 C2096 1.409 1_655 S
C2103 C2102 1.362 . S
H2104 C2110 0.930 . S
H2105 C2113 0.930 . S
H2106 C2114 0.930 . S
H2107 C2115 0.930 . S
H2108 C2118 0.930 . S
H2109 C2119 0.930 . S
C2110 H2104 0.930 . S
C2110 C2111 1.355 . S
C2110 C2112 1.415 1_455 S
C2111 C2110 1.355 . S
C2111 C2113 1.419 . S
C2112 C2110 1.415 1_655 S
C2112 C2117 1.425 1_655 S
C2112 C2119 1.409 . S
C2113 H2105 0.930 . S
C2113 C2111 1.419 . S
C2113 C2114 1.362 . S
C2114 H2106 0.930 . S
C2114 C2113 1.362 . S
C2114 C2117 1.409 . S
C2115 H2107 0.930 . S
C2115 C2116 1.355 . S
C2115 C2117 1.415 1_655 S
C2116 C2115 1.355 . S
C2116 C2118 1.419 . S
C2117 C2112 1.425 1_455 S
C2117 C2114 1.409 . S
C2117 C2115 1.415 1_455 S
C2118 H2108 0.930 . S
C2118 C2116 1.419 . S
C2118 C2119 1.362 . S
C2119 H2109 0.930 . S
C2119 C2112 1.409 . S
C2119 C2118 1.362 . S
H2120 C2126 0.930 . S
H2121 C2129 0.930 . S
H2122 C2130 0.930 . S
H2123 C2131 0.930 . S
H2124 C2134 0.930 . S
H2125 C2135 0.930 . S
C2126 H2120 0.930 . S
C2126 C2127 1.355 . S
C2126 C2128 1.415 . S
C2127 C2126 1.355 . S
C2127 C2129 1.419 . S
C2128 C2126 1.415 . S
C2128 C2133 1.425 . S
C2128 C2135 1.409 . S
C2129 H2121 0.930 . S
C2129 C2127 1.419 . S
C2129 C2130 1.362 . S
C2130 H2122 0.930 . S
C2130 C2129 1.362 . S
C2130 C2133 1.409 . S
C2131 H2123 0.930 . S
C2131 C2132 1.355 . S
C2131 C2133 1.415 . S
C2132 C2131 1.355 . S
C2132 C2134 1.419 . S
C2133 C2128 1.425 . S
C2133 C2130 1.409 . S
C2133 C2131 1.415 . S
C2134 H2124 0.930 . S
C2134 C2132 1.419 . S
C2134 C2135 1.362 . S
C2135 H2125 0.930 . S
C2135 C2128 1.409 . S
C2135 C2134 1.362 . S
H2136 C2142 0.930 . S
H2137 C2145 0.930 . S
H2138 C2146 0.930 . S
H2139 C2147 0.930 . S
H2140 C2150 0.930 . S
H2141 C2151 0.930 . S
C2142 H2136 0.930 . S
C2142 C2143 1.355 . S
C2142 C2144 1.415 . S
C2143 C2142 1.355 . S
C2143 C2145 1.419 . S
C2144 C2142 1.415 . S
C2144 C2149 1.425 . S
C2144 C2151 1.409 . S
C2145 H2137 0.930 . S
C2145 C2143 1.419 . S
C2145 C2146 1.362 . S
C2146 H2138 0.930 . S
C2146 C2145 1.362 . S
C2146 C2149 1.409 . S
C2147 H2139 0.930 . S
C2147 C2148 1.355 . S
C2147 C2149 1.415 . S
C2148 C2147 1.355 . S
C2148 C2150 1.419 . S
C2149 C2144 1.425 . S
C2149 C2146 1.409 . S
C2149 C2147 1.415 . S
C2150 H2140 0.930 . S
C2150 C2148 1.419 . S
C2150 C2151 1.362 . S
C2151 H2141 0.930 . S
C2151 C2144 1.409 . S
C2151 C2150 1.362 . S
H2152 C2158 0.930 . S
H2153 C2161 0.930 . S
H2154 C2162 0.930 . S
H2155 C2163 0.930 . S
H2156 C2166 0.930 . S
H2157 C2167 0.930 . S
C2158 H2152 0.930 . S
C2158 C2159 1.355 . S
C2158 C2160 1.415 1_565 S
C2159 C2158 1.355 . S
C2159 C2161 1.419 . S
C2160 C2158 1.415 1_545 S
C2160 C2165 1.425 1_545 S
C2160 C2167 1.409 . S
C2161 H2153 0.930 . S
C2161 C2159 1.419 . S
C2161 C2162 1.362 . S
C2162 H2154 0.930 . S
C2162 C2161 1.362 . S
C2162 C2165 1.409 . S
C2163 H2155 0.930 . S
C2163 C2164 1.355 . S
C2163 C2165 1.415 1_545 S
C2164 C2163 1.355 . S
C2164 C2166 1.419 . S
C2165 C2160 1.425 1_565 S
C2165 C2162 1.409 . S
C2165 C2163 1.415 1_565 S
C2166 H2156 0.930 . S
C2166 C2164 1.419 . S
C2166 C2167 1.362 . S
C2167 H2157 0.930 . S
C2167 C2160 1.409 . S
C2167 C2166 1.362 . S
H2168 C2174 0.930 . S
H2169 C2177 0.930 . S
H2170 C2178 0.930 . S
H2171 C2179 0.930 . S
H2172 C2182 0.930 . S
H2173 C2183 0.930 . S
C2174 H2168 0.930 . S
C2174 C2175 1.355 1_556 S
C2174 C2176 1.415 . S
C2175 C2174 1.355 1_554 S
C2175 C2177 1.419 . S
C2176 C2174 1.415 . S
C2176 C2181 1.425 1_556 S
C2176 C2183 1.409 . S
C2177 H2169 0.930 . S
C2177 C2175 1.419 . S
C2177 C2178 1.362 . S
C2178 H2170 0.930 . S
C2178 C2177 1.362 . S
C2178 C2181 1.409 . S
C2179 H2171 0.930 . S
C2179 C2180 1.374 . S
C2179 C2181 1.415 . S
C2180 C2179 1.374 . S
C2180 C2182 1.397 1_554 S
C2181 C2176 1.425 1_554 S
C2181 C2178 1.409 . S
C2181 C2179 1.415 . S
C2182 H2172 0.930 . S
C2182 C2180 1.397 1_556 S
C2182 C2183 1.362 . S
C2183 H2173 0.930 . S
C2183 C2176 1.409 . S
C2183 C2182 1.362 . S
C1423 C1055 0.781 . S
C1428 C33 0.768 . S
C1439 C92 0.819 . S
C1444 C996 0.867 . S
C1455 C151 0.998 . S
C1460 C1173 0.983 . S
C1471 C210 1.036 . S
C1476 C1114 1.060 . S
C1487 C269 0.779 . S
C1492 C1291 0.778 . S
C1503 C328 1.004 . S
C1508 C1350 1.032 . S
C1519 C1232 0.784 . S
C1524 C387 0.818 . S
C1535 C701 1.059 . S
C1540 C446 1.050 . S
C1551 C505 0.746 . S
C1556 C229 0.796 . S
C1567 C111 1.035 . S
C1572 C564 0.994 . S
C1583 C623 1.215 . S
C1588 C52 1.221 . S
C1599 C682 1.049 . S
C1604 C878 1.061 . S
C1615 C347 1.183 . S
C1620 C741 1.245 . S
C1631 C288 1.211 . S
C1636 C800 1.222 . S
C1647 C859 1.037 . S
C1652 C465 1.021 . S
C1663 C918 0.994 . S
C1668 C406 1.037 . S
C1679 C583 1.233 . S
C1684 C977 1.257 . S
C1695 C642 1.067 . S
C1700 C1036 1.057 . S
C1711 C524 1.221 . S
C1716 C1095 1.211 . S
C1727 C1154 0.979 . S
C1732 C1409 0.992 . S
C1743 C937 1.205 . S
C1748 C1213 1.258 . S
C1759 C1272 1.070 . S
C1764 C819 1.006 . S
C1775 C760 0.814 . S
C1780 C1331 0.863 . S
C1791 C1390 0.957 . S
C1796 C170 1.015 . S
C1807 C5 1.752 . S
C1812 C64 1.747 . S
C1823 C182 1.640 . S
C1828 C123 1.632 . S
C1839 C241 1.753 . S
C1844 C359 1.717 . S
C1855 C300 2.005 . S
C1860 C418 1.969 . S
C1871 C1303 1.749 . S
C1876 C477 1.746 . S
C1887 C536 1.997 . S
C1892 C654 1.968 . S
C1903 C1185 1.950 . S
C1908 C595 1.976 . S
C1919 C772 1.973 . S
C1924 C713 1.942 . S
C1935 C831 2.022 . S
C1940 C890 2.026 . S
C1951 C1067 1.974 . S
C1956 C949 1.959 . S
C1967 C1008 1.608 . S
C1972 C1126 1.643 . S
C1983 C1362 1.627 1_554 S
C1988 C1244 1.625 . S
C1999 C121 1.291 . S
C2004 C3 1.286 . S
C2015 C62 1.593 . S
C2020 C180 1.582 . S
C2031 C1124 1.266 . S
C2036 C239 1.277 . S
C2047 C298 1.529 . S
C2052 C1065 1.526 . S
C2063 C357 1.597 . S
C2068 C1006 1.595 . S
C2079 C947 1.785 . S
C2084 C416 1.788 . S
C2095 C475 1.291 . S
C2100 C1360 1.296 . S
C2111 C534 1.547 . S
C2116 C593 1.544 . S
C2127 C1183 1.731 . S
C2132 C652 1.740 . S
C2143 C711 1.722 . S
C2148 C829 1.728 . S
C2159 C770 1.542 . S
C2164 C888 1.545 . S
C2175 C1301 1.598 . S
C2180 C1242 1.596 . S
