# Generated by pormake.
# Topology kag, (6)-cn, num edge types: 1
# Building blocks:
#     Node 0, Type 0, BuildingBlock: BETFEN_clean_sbu_0, # of connection points: 6
#     Node 1, Type 0, BuildingBlock: BETFEN_clean_sbu_0, # of connection points: 6
#     Node 2, Type 0, BuildingBlock: BETFEN_clean_sbu_0, # of connection points: 6
#     Edge 3, Type (0, 0), BuildingBlock: UVAHIK_clean_linker_0, # of connection points: 2
#     Edge 4, Type (0, 0), BuildingBlock: UVAHIK_clean_linker_0, # of connection points: 2
#     Edge 5, Type (0, 0), BuildingBlock: UVAHIK_clean_linker_0, # of connection points: 2
#     Edge 6, Type (0, 0), BuildingBlock: UVAHIK_clean_linker_0, # of connection points: 2
#     Edge 7, Type (0, 0), BuildingBlock: UVAHIK_clean_linker_0, # of connection points: 2
#     Edge 8, Type (0, 0), BuildingBlock: UVAHIK_clean_linker_0, # of connection points: 2
#     Edge 9, Type (0, 0), BuildingBlock: UVAHIK_clean_linker_0, # of connection points: 2
#     Edge 10, Type (0, 0), BuildingBlock: UVAHIK_clean_linker_0, # of connection points: 2
#     Edge 11, Type (0, 0), BuildingBlock: UVAHIK_clean_linker_0, # of connection points: 2
# Relax obj value: 0.053
# Max RMSD: 0.167
# Mean RMSD: 0.088
data_MOF--net-kag--node1-BETFEN_clean_sbu_0--edge1-UVAHIK_clean_linker_0
_symmetry_space_group_name_H-M    P1
_symmetry_Int_Tables_number       1
_symmetry_cell_setting            triclinic
loop_
_symmetry_equiv_pos_as_xyz
'x, y, z'
_cell_length_a     40.488989
_cell_length_b     51.303373
_cell_length_c     19.098255
_cell_angle_alpha  94.885404
_cell_angle_beta   91.124212
_cell_angle_gamma 100.43827
loop_
_atom_site_label
_atom_site_type_symbol
_atom_site_fract_x
_atom_site_fract_y
_atom_site_fract_z
_atom_type_partial_charge
Pr0 Pr 1.03613 0.47441 0.01767 0.0
Pr1 Pr 0.05147 0.53996 0.99071 0.0
C2 C 1.01936 0.42824 0.07625 0.0
C3 C 0.99473 0.40315 0.06505 0.0
C4 C 0.98778 0.38946 0.99801 0.0
C5 C 0.96395 0.36587 0.98883 0.0
C6 C 0.9464 0.35561 0.0464 0.0
C7 C 0.95337 0.36956 0.11332 0.0
C8 C 0.97733 0.39301 0.12248 0.0
C9 C 1.03468 0.48322 0.87336 0.0
C10 C 0.97238 0.50703 0.99436 0.0
C11 C 0.0682 0.58613 0.93212 0.0
C12 C 0.09283 0.61123 0.94326 0.0
C13 C 0.09963 0.62504 0.01019 0.0
C14 C 0.12347 0.64862 0.0193 0.0
C15 C 0.14116 0.65878 0.96178 0.0
C16 C 0.13433 0.64471 0.89497 0.0
C17 C 0.11037 0.62126 0.88587 0.0
C18 C 0.05298 0.53117 0.13503 0.0
C19 C 0.11521 0.50733 0.01382 0.0
O20 O 1.00722 0.44958 0.09644 0.0
O21 O 0.04331 0.43243 0.03091 0.0
O22 O 1.03914 0.49998 0.92621 0.0
O23 O 1.03022 0.45951 0.89529 0.0
O24 O 0.99291 0.52786 0.97303 0.0
O25 O 0.98302 0.48646 0.01891 0.0
O26 O 0.08034 0.56479 0.91191 0.0
O27 O 0.04426 0.58194 0.9775 0.0
O28 O 0.04837 0.51439 0.0822 0.0
O29 O 0.0575 0.55487 0.11308 0.0
O30 O 0.0947 0.4865 0.03525 0.0
O31 O 0.10454 0.52788 0.98927 0.0
H32 H 1.00072 0.39696 0.95268 0.0
H33 H 0.95958 0.35555 0.93671 0.0
H34 H 0.93999 0.36258 0.15865 0.0
H35 H 0.98212 0.40338 0.17456 0.0
H36 H 0.08658 0.61763 0.05549 0.0
H37 H 0.12773 0.65904 0.07134 0.0
H38 H 0.14783 0.6516 0.84968 0.0
H39 H 0.1057 0.6108 0.83388 0.0
Pr40 Pr 0.58065 0.01251 0.98855 0.0
Pr41 Pr 0.50692 1.0019 0.01887 0.0
C42 C 0.64164 0.03196 0.94121 0.0
C43 C 0.66463 0.05786 0.94979 0.0
C44 C 0.6642 0.07539 0.01027 0.0
C45 C 0.6858 0.1001 0.01758 0.0
C46 C 0.70794 0.10788 0.96417 0.0
C47 C 0.70795 0.09039 0.90327 0.0
C48 C 0.68652 0.06557 0.89627 0.0
C49 C 0.56784 0.00851 0.13057 0.0
C50 C 0.54048 0.06401 0.01965 0.0
C51 C 0.44583 0.98247 0.06583 0.0
C52 C 0.42289 0.95654 0.05736 0.0
C53 C 0.4235 0.93892 0.99717 0.0
C54 C 0.40192 0.91419 0.98996 0.0
C55 C 0.37964 0.90651 0.0432 0.0
C56 C 0.37946 0.9241 0.10382 0.0
C57 C 0.40086 0.94893 0.11071 0.0
C58 C 0.51993 1.00599 0.87689 0.0
C59 C 0.5471 0.9504 0.98802 0.0
O60 O 0.61368 0.03129 0.90508 0.0
O61 O 0.63736 0.01879 0.99705 0.0
O62 O 0.5526 0.0209 0.08998 0.0
O63 O 0.59147 0.9986 0.09893 0.0
O64 O 0.51557 0.04784 0.04565 0.0
O65 O 0.56564 0.05483 0.98935 0.0
O66 O 0.47373 0.98324 0.10226 0.0
O67 O 0.45021 0.99553 0.00982 0.0
O68 O 0.53495 0.99345 0.91746 0.0
O69 O 0.49638 0.01601 0.90852 0.0
O70 O 0.57199 0.96656 0.96194 0.0
O71 O 0.52195 0.9596 0.0183 0.0
H72 H 0.64707 0.06999 0.05175 0.0
H73 H 0.68489 0.11329 0.06464 0.0
H74 H 0.72487 0.09576 0.86147 0.0
H75 H 0.68701 0.05238 0.84902 0.0
H76 H 0.44074 0.94424 0.95583 0.0
H77 H 0.40297 0.90092 0.94312 0.0
H78 H 0.36242 0.9188 0.14548 0.0
H79 H 0.40023 0.9622 0.15775 0.0
Pr80 Pr 0.55235 0.53664 0.99301 0.0
Pr81 Pr 0.53529 0.47781 0.01514 0.0
C82 C 0.56029 0.58624 0.95045 0.0
C83 C 0.553 0.61354 0.96298 0.0
C84 C 0.57153 0.63205 0.01427 0.0
C85 C 0.56794 0.65875 0.01927 0.0
C86 C 0.5458 0.66767 0.97302 0.0
C87 C 0.52646 0.64895 0.92325 0.0
C88 C 0.53013 0.62224 0.91811 0.0
C89 C 0.5539 0.52622 0.13462 0.0
C90 C 0.47267 0.50931 0.01284 0.0
C91 C 0.52729 0.42816 0.05735 0.0
C92 C 0.53461 0.40087 0.04481 0.0
C93 C 0.51606 0.38235 0.99356 0.0
C94 C 0.51967 0.35565 0.98855 0.0
C95 C 0.54184 0.34674 0.03475 0.0
C96 C 0.56119 0.36548 0.08449 0.0
C97 C 0.55751 0.39219 0.08963 0.0
C98 C 0.53372 0.48841 0.87356 0.0
C99 C 0.61498 0.50514 0.99538 0.0
O100 O 0.53617 0.5669 0.92547 0.0
O101 O 0.58099 0.57871 0.99465 0.0
O102 O 0.53205 0.5148 0.08894 0.0
O103 O 0.5747 0.54501 0.10907 0.0
O104 O 0.48437 0.49049 0.04291 0.0
O105 O 0.49307 0.52755 0.98164 0.0
O106 O 0.55134 0.4475 0.08264 0.0
O107 O 0.50669 0.43572 0.013 0.0
O108 O 0.55565 0.49964 0.91927 0.0
O109 O 0.51282 0.46966 0.89906 0.0
O110 O 0.60326 0.52396 0.96531 0.0
O111 O 0.59459 0.48689 0.02657 0.0
H112 H 0.58971 0.62617 0.04918 0.0
H113 H 0.58359 0.67259 0.05764 0.0
H114 H 0.50879 0.65498 0.88746 0.0
H115 H 0.51574 0.60854 0.87759 0.0
H116 H 0.49785 0.38822 0.9587 0.0
H117 H 0.50401 0.34181 0.95022 0.0
H118 H 0.57889 0.35945 0.12024 0.0
H119 H 0.57192 0.40589 0.13012 0.0
C120 C 1.03421 0.46757 0.74554 0.0
C121 C 1.0363 0.48876 0.79815 0.0
C122 C 1.03608 0.4722 0.67436 0.0
C123 C 1.02684 0.5226 0.54949 0.0
H124 H 0.07488 0.47993 0.42535 0.0
C125 C 0.05363 0.54684 0.26286 0.0
C126 C 0.05145 0.52564 0.21026 0.0
C127 C 0.05179 0.54221 0.33405 0.0
C128 C 0.06098 0.49182 0.45892 0.0
H129 H 1.04133 0.53149 0.81695 0.0
H130 H 0.04515 0.5398 0.69262 0.0
H131 H 0.07201 0.47269 0.54974 0.0
H132 H 0.04628 0.4829 0.19146 0.0
H133 H 1.04253 0.4746 0.31582 0.0
H134 H 1.01582 0.54174 0.45868 0.0
C135 C 1.04184 0.51947 0.70632 0.0
C136 C 0.05935 0.48769 0.53058 0.0
C137 C 1.03997 0.51478 0.77777 0.0
C138 C 0.04772 0.49962 0.23065 0.0
C139 C 0.04589 0.49494 0.3021 0.0
C140 C 1.02848 0.52674 0.47784 0.0
C141 C 1.04006 0.49822 0.65349 0.0
C142 C 1.04221 0.50299 0.57705 0.0
C143 C 0.04774 0.5162 0.35493 0.0
C144 C 0.04561 0.51144 0.43137 0.0
H145 H 1.03116 0.44724 0.75937 0.0
H146 H 1.03396 0.45526 0.63558 0.0
H147 H 1.01293 0.5345 0.58306 0.0
H148 H 0.05672 0.56717 0.24902 0.0
H149 H 0.05396 0.55916 0.37283 0.0
C150 C 0.58193 0.99494 0.24848 0.0
C151 C 0.5623 0.00796 0.20675 0.0
C152 C 0.5772 0.99462 0.32075 0.0
C153 C 0.54245 0.03023 0.47032 0.0
H154 H 0.54626 0.96612 0.56171 0.0
C155 C 0.50599 0.01963 0.75897 0.0
C156 C 0.52554 1.00655 0.80073 0.0
C157 C 0.51076 0.01995 0.68672 0.0
C158 C 0.54553 0.98429 0.5372 0.0
H159 H 0.52201 0.0306 0.20759 0.0
H160 H 0.51351 0.02991 0.3339 0.0
H161 H 0.55332 0.96612 0.43522 0.0
H162 H 0.56572 0.98381 0.79996 0.0
H163 H 0.57432 0.98451 0.67368 0.0
H164 H 0.53467 0.04841 0.57229 0.0
C165 C 0.53291 0.02023 0.31097 0.0
C166 C 0.54954 0.98429 0.4646 0.0
C167 C 0.53763 0.02052 0.23858 0.0
C168 C 0.55017 0.99394 0.76894 0.0
C169 C 0.55494 0.99423 0.69657 0.0
C170 C 0.53844 0.03024 0.54292 0.0
C171 C 0.5527 0.00733 0.35301 0.0
C172 C 0.54806 0.00726 0.43022 0.0
C173 C 0.53523 0.00719 0.6545 0.0
C174 C 0.53992 0.00727 0.5773 0.0
H175 H 0.60116 0.9851 0.22538 0.0
H176 H 0.59317 0.98479 0.35156 0.0
H177 H 0.54171 0.0484 0.4458 0.0
H178 H 0.4868 0.02952 0.78204 0.0
H179 H 0.49485 0.02983 0.6559 0.0
C180 C 0.5605 0.51221 0.77421 0.0
C181 C 0.53524 0.4928 0.79812 0.0
C182 C 0.56243 0.51593 0.70257 0.0
C183 C 0.53591 0.48181 0.52647 0.0
H184 H 0.55759 0.55294 0.46574 0.0
C185 C 0.52722 0.50243 0.2341 0.0
C186 C 0.55242 0.52187 0.2101 0.0
C187 C 0.52534 0.49873 0.30575 0.0
C188 C 0.5519 0.53292 0.48181 0.0
H189 H 0.49186 0.4624 0.76624 0.0
H190 H 0.49499 0.46902 0.64124 0.0
H191 H 0.55354 0.54706 0.59082 0.0
H192 H 0.59572 0.55237 0.24186 0.0
H193 H 0.59268 0.54578 0.3669 0.0
H194 H 0.53428 0.46767 0.41748 0.0
C195 C 0.51365 0.4811 0.67757 0.0
C196 C 0.54956 0.52955 0.55358 0.0
C197 C 0.51172 0.4774 0.74921 0.0
C198 C 0.57592 0.53733 0.25895 0.0
C199 C 0.57403 0.53366 0.33062 0.0
C200 C 0.53826 0.48518 0.45471 0.0
C201 C 0.53913 0.50033 0.65328 0.0
C202 C 0.54152 0.50395 0.57684 0.0
C203 C 0.54863 0.51439 0.35499 0.0
C204 C 0.54628 0.51078 0.43144 0.0
H205 H 0.57898 0.52439 0.81079 0.0
H206 H 0.58258 0.53072 0.68568 0.0
H207 H 0.53022 0.46179 0.54255 0.0
H208 H 0.50877 0.4902 0.19757 0.0
H209 H 0.50524 0.48392 0.32269 0.0
C210 C 0.16538 0.48687 0.04255 0.0
C211 C 0.15204 0.50778 0.01653 0.0
C212 C 0.20009 0.48731 0.04362 0.0
C213 C 0.27802 0.51742 0.96076 0.0
H214 H 0.32258 0.49592 0.1219 0.0
C215 C 0.42291 0.53063 0.98777 0.0
C216 C 0.4362 0.50998 0.01517 0.0
C217 C 0.38836 0.53079 0.98915 0.0
C218 C 0.3105 0.50171 0.0761 0.0
H219 H 0.1651 0.54571 0.97181 0.0
H220 H 0.22529 0.54645 0.97415 0.0
H221 H 0.26212 0.49489 0.12177 0.0
H222 H 0.42345 0.47325 0.06543 0.0
H223 H 0.36346 0.47334 0.06681 0.0
H224 H 0.32626 0.52404 0.91476 0.0
C225 C 0.20892 0.52955 0.99294 0.0
C226 C 0.27581 0.50112 0.07607 0.0
C227 C 0.17432 0.52917 0.99204 0.0
C228 C 0.41417 0.48957 0.04417 0.0
C229 C 0.37969 0.48969 0.04536 0.0
C230 C 0.31268 0.51794 0.96067 0.0
C231 C 0.22226 0.5086 0.01848 0.0
C232 C 0.25914 0.50899 0.01843 0.0
C233 C 0.36629 0.51027 0.0178 0.0
C234 C 0.32941 0.51009 0.01834 0.0
H235 H 0.14905 0.47006 0.06175 0.0
H236 H 0.20951 0.47072 0.06305 0.0
H237 H 0.26591 0.52323 0.91502 0.0
H238 H 0.43915 0.54671 0.96525 0.0
H239 H 0.37901 0.54715 0.96831 0.0
C240 C 0.74938 0.1428 0.03577 0.0
C241 C 0.73111 0.13404 0.97222 0.0
C242 C 0.77163 0.1672 0.04312 0.0
C243 C 0.81961 0.2182 0.93841 0.0
H244 H 0.82983 0.26121 0.11726 0.0
C245 C 0.89949 0.3246 0.97656 0.0
C246 C 0.92097 0.3305 0.0369 0.0
C247 C 0.8756 0.30105 0.96794 0.0
C248 C 0.82741 0.24932 0.06713 0.0
H249 H 0.72125 0.14429 0.86705 0.0
H250 H 0.75955 0.18713 0.88015 0.0
H251 H 0.78904 0.21972 0.10357 0.0
H252 H 0.93432 0.31578 0.1349 0.0
H253 H 0.89232 0.27504 0.1203 0.0
H254 H 0.8578 0.24809 0.90195 0.0
C255 C 0.75737 0.17488 0.92388 0.0
C256 C 0.80409 0.22548 0.05926 0.0
C257 C 0.73534 0.15035 0.91636 0.0
C258 C 0.91785 0.31222 0.08839 0.0
C259 C 0.8938 0.2888 0.08 0.0
C260 C 0.84274 0.24217 0.94614 0.0
C261 C 0.77596 0.18359 0.98728 0.0
C262 C 0.80005 0.20947 0.99496 0.0
C263 C 0.87243 0.28293 0.01968 0.0
C264 C 0.84709 0.25789 0.01074 0.0
H265 H 0.74698 0.13052 0.07946 0.0
H266 H 0.78591 0.17296 0.09227 0.0
H267 H 0.81763 0.20625 0.88845 0.0
H268 H 0.90073 0.33837 0.93635 0.0
H269 H 0.85922 0.29723 0.92125 0.0
C270 C 0.51793 0.9037 1.00065 0.0
C271 C 0.54686 0.92135 0.98364 0.0
C272 C 0.51766 0.87637 0.99853 0.0
C273 C 0.56269 0.82344 0.92714 0.0
H274 H 0.51481 0.78375 0.06967 0.0
C275 C 0.54159 0.70856 0.91159 0.0
C276 C 0.54418 0.69656 0.97455 0.0
C277 C 0.5416 0.73586 0.91264 0.0
C278 C 0.52857 0.79452 0.02979 0.0
H279 H 0.59821 0.92398 0.95072 0.0
H280 H 0.59799 0.8763 0.94832 0.0
H281 H 0.51658 0.83146 0.07225 0.0
H282 H 0.54816 0.70404 0.08819 0.0
H283 H 0.54906 0.75169 0.08996 0.0
H284 H 0.57553 0.7866 0.88596 0.0
C285 C 0.57526 0.88355 0.96217 0.0
C286 C 0.5292 0.8219 0.03069 0.0
C287 C 0.57546 0.91094 0.96384 0.0
C288 C 0.54646 0.7126 0.03863 0.0
C289 C 0.54659 0.73993 0.03966 0.0
C290 C 0.56217 0.79606 0.92641 0.0
C291 C 0.54639 0.8659 0.97983 0.0
C292 C 0.54616 0.83674 0.97923 0.0
C293 C 0.54433 0.75197 0.97665 0.0
C294 C 0.54502 0.7812 0.97761 0.0
H295 H 0.49531 0.91096 0.0155 0.0
H296 H 0.49474 0.86341 0.01105 0.0
H297 H 0.57573 0.8341 0.88624 0.0
H298 H 0.54025 0.69697 0.86117 0.0
H299 H 0.53935 0.74432 0.86309 0.0
C300 C 0.91324 0.48542 0.01677 0.0
C301 C 0.93556 0.50659 0.99144 0.0
C302 C 0.87863 0.48504 0.01545 0.0
C303 C 0.8159 0.52902 0.00496 0.0
H304 H 0.75363 0.46248 0.95999 0.0
C305 C 0.67336 0.52475 0.9631 0.0
C306 C 0.65146 0.50451 0.99304 0.0
C307 C 0.70786 0.52473 0.96199 0.0
C308 C 0.77068 0.48117 0.97337 0.0
H309 H 0.93862 0.5439 0.94413 0.0
H310 H 0.87818 0.54306 0.94102 0.0
H311 H 0.81399 0.4631 0.95829 0.0
H312 H 0.64878 0.46821 0.04486 0.0
H313 H 0.70912 0.4682 0.04297 0.0
H314 H 0.77256 0.54709 0.01976 0.0
C315 C 0.88758 0.52691 0.96291 0.0
C316 C 0.80531 0.48155 0.97241 0.0
C317 C 0.92227 0.52731 0.96432 0.0
C318 C 0.6649 0.48409 0.02132 0.0
C319 C 0.69947 0.48401 0.01992 0.0
C320 C 0.78128 0.52865 0.00571 0.0
C321 C 0.86531 0.50579 0.98864 0.0
C322 C 0.8284 0.50547 0.98833 0.0
C323 C 0.72138 0.50443 0.99057 0.0
C324 C 0.75823 0.50472 0.98999 0.0
H325 H 0.92245 0.46912 0.03834 0.0
H326 H 0.86236 0.46866 0.03669 0.0
H327 H 0.83288 0.54771 0.0187 0.0
H328 H 0.66395 0.54079 0.94069 0.0
H329 H 0.72392 0.54055 0.9381 0.0
C330 C 0.16987 0.70206 0.91945 0.0
C331 C 0.16661 0.68388 0.9712 0.0
C332 C 0.19393 0.72547 0.92777 0.0
C333 C 0.24472 0.77231 0.06159 0.0
H334 H 0.29883 0.79444 0.90445 0.0
C335 C 0.35211 0.86414 0.09132 0.0
C336 C 0.35649 0.88033 0.03524 0.0
C337 C 0.33008 0.8396 0.08389 0.0
C338 C 0.28366 0.78877 0.94867 0.0
H339 H 0.18659 0.67619 0.07216 0.0
H340 H 0.22811 0.71733 0.08715 0.0
H341 H 0.25803 0.75296 0.89089 0.0
H342 H 0.3409 0.88365 0.92769 0.0
H343 H 0.30198 0.8412 0.91504 0.0
H344 H 0.26971 0.80832 0.11904 0.0
C345 C 0.21184 0.71342 0.04029 0.0
C346 C 0.26033 0.76493 0.94088 0.0
C347 C 0.18795 0.68988 0.03174 0.0
C348 C 0.33839 0.87145 0.97156 0.0
C349 C 0.31614 0.84705 0.9643 0.0
C350 C 0.26785 0.79628 0.06924 0.0
C351 C 0.21516 0.73144 0.98829 0.0
C352 C 0.24051 0.75648 0.99716 0.0
C353 C 0.31165 0.83077 0.02037 0.0
C354 C 0.28756 0.8049 0.01278 0.0
H355 H 0.1535 0.69842 0.87278 0.0
H356 H 0.19553 0.73915 0.88726 0.0
H357 H 0.22953 0.76648 0.10568 0.0
H358 H 0.36607 0.87029 0.14074 0.0
H359 H 0.32779 0.82744 0.12781 0.0
C360 C 0.54116 0.30182 0.96917 0.0
C361 C 0.54347 0.31786 0.03324 0.0
C362 C 0.54104 0.27448 0.96814 0.0
C363 C 0.52547 0.21836 0.08142 0.0
H364 H 0.57102 0.18295 0.93554 0.0
C365 C 0.51214 0.10348 0.04394 0.0
C366 C 0.54073 0.09307 0.02412 0.0
C367 C 0.51235 0.13087 0.04564 0.0
C368 C 0.55841 0.19251 0.97711 0.0
H369 H 0.54745 0.31746 0.14661 0.0
H370 H 0.54834 0.27012 0.14471 0.0
H371 H 0.5728 0.23066 0.93812 0.0
H372 H 0.59229 0.10345 0.99226 0.0
H373 H 0.59287 0.15101 0.99677 0.0
H374 H 0.51191 0.18032 0.1216 0.0
C375 C 0.54607 0.27856 0.09516 0.0
C376 C 0.55905 0.2199 0.97801 0.0
C377 C 0.54608 0.30587 0.0962 0.0
C378 C 0.56967 0.11071 0.00713 0.0
C379 C 0.56995 0.13805 0.00928 0.0
C380 C 0.52494 0.19098 0.08069 0.0
C381 C 0.54331 0.26245 0.03116 0.0
C382 C 0.54262 0.23322 0.0302 0.0
C383 C 0.54122 0.14852 0.02799 0.0
C384 C 0.54146 0.17768 0.02859 0.0
H385 H 0.53945 0.31037 0.9196 0.0
H386 H 0.53855 0.26272 0.91785 0.0
H387 H 0.51213 0.22783 0.12188 0.0
H388 H 0.48939 0.09044 0.05704 0.0
H389 H 0.48962 0.13813 0.0595 0.0
loop_
_geom_bond_atom_site_label_1
_geom_bond_atom_site_label_2
_geom_bond_distance
_geom_bond_site_symmetry_2
_ccdc_geom_bond_type
Pr0 C2 2.880 . S
Pr0 O20 2.562 1_556 S
Pr0 O21 2.490 . S
Pr0 O22 2.695 1_655 S
Pr0 O23 2.512 . S
Pr0 O25 2.437 . S
Pr0 O28 2.436 1_556 S
Pr0 O30 2.438 1_655 S
Pr1 C11 2.880 . S
Pr1 O22 2.436 1_554 S
Pr1 O24 2.438 1_455 S
Pr1 O26 2.562 1_554 S
Pr1 O27 2.490 . S
Pr1 O28 2.695 1_455 S
Pr1 O29 2.512 . S
Pr1 O31 2.437 . S
C2 Pr0 2.880 . S
C2 C3 1.491 . S
C2 O20 1.254 1_556 S
C2 O21 1.225 . S
C3 C2 1.491 . S
C3 C4 1.392 . S
C3 C8 1.356 1_556 S
C4 C3 1.392 . S
C4 C5 1.368 . S
C4 H32 0.929 . S
C5 C4 1.368 . S
C5 C6 1.386 . S
C5 H33 0.929 . S
C6 C5 1.386 . S
C6 C7 1.373 1_556 S
C7 C6 1.373 1_554 S
C7 C8 1.409 . S
C7 H34 0.931 . S
C8 C3 1.356 1_554 S
C8 C7 1.409 . S
C8 H35 0.930 . S
C9 O22 1.271 . S
C9 O23 1.248 1_455 S
C10 O24 1.267 1_556 S
C10 O25 1.278 . S
C11 Pr1 2.880 . S
C11 C12 1.491 . S
C11 O26 1.254 1_554 S
C11 O27 1.225 . S
C12 C11 1.491 . S
C12 C13 1.392 . S
C12 C17 1.356 1_554 S
C13 C12 1.392 . S
C13 C14 1.368 . S
C13 H36 0.929 . S
C14 C13 1.368 . S
C14 C15 1.386 . S
C14 H37 0.929 . S
C15 C14 1.386 . S
C15 C16 1.373 1_554 S
C16 C15 1.373 1_556 S
C16 C17 1.409 . S
C16 H38 0.931 . S
C17 C12 1.356 1_556 S
C17 C16 1.409 . S
C17 H39 0.930 . S
C18 O28 1.270 1_455 S
C18 O29 1.248 . S
C19 O30 1.267 1_554 S
C19 O31 1.278 . S
O20 Pr0 2.562 1_554 S
O20 C2 1.254 1_554 S
O21 Pr0 2.490 . S
O21 C2 1.225 . S
O22 Pr0 2.695 1_455 S
O22 Pr1 2.436 1_556 S
O22 C9 1.271 . S
O23 Pr0 2.512 . S
O23 C9 1.248 1_655 S
O24 Pr1 2.438 1_655 S
O24 C10 1.267 1_554 S
O25 Pr0 2.437 . S
O25 C10 1.278 . S
O26 Pr1 2.562 1_556 S
O26 C11 1.254 1_556 S
O27 Pr1 2.490 . S
O27 C11 1.225 . S
O28 Pr0 2.436 1_554 S
O28 Pr1 2.695 1_655 S
O28 C18 1.270 1_655 S
O29 Pr1 2.512 . S
O29 C18 1.248 . S
O30 Pr0 2.438 1_455 S
O30 C19 1.267 1_556 S
O31 Pr1 2.437 . S
O31 C19 1.278 . S
H32 C4 0.929 . S
H33 C5 0.929 . S
H34 C7 0.931 . S
H35 C8 0.930 . S
H36 C13 0.929 . S
H37 C14 0.929 . S
H38 C16 0.931 . S
H39 C17 0.930 . S
Pr40 C42 2.880 . S
Pr40 O60 2.562 1_554 S
Pr40 O61 2.490 . S
Pr40 O62 2.695 1_545 S
Pr40 O63 2.512 . S
Pr40 O65 2.437 . S
Pr40 O68 2.436 1_554 S
Pr40 O70 2.438 1_545 S
Pr41 C51 2.880 . S
Pr41 O62 2.436 1_556 S
Pr41 O64 2.438 1_565 S
Pr41 O66 2.562 1_556 S
Pr41 O67 2.490 . S
Pr41 O68 2.695 1_565 S
Pr41 O69 2.512 . S
Pr41 O71 2.437 . S
C42 Pr40 2.880 . S
C42 C43 1.491 . S
C42 O60 1.254 1_554 S
C42 O61 1.225 . S
C43 C42 1.491 . S
C43 C44 1.391 . S
C43 C48 1.356 1_554 S
C44 C43 1.391 . S
C44 C45 1.368 . S
C44 H72 0.929 . S
C45 C44 1.368 . S
C45 C46 1.386 1_554 S
C45 H73 0.929 . S
C46 C45 1.386 1_556 S
C46 C47 1.373 . S
C47 C46 1.373 . S
C47 C48 1.409 . S
C47 H74 0.931 . S
C48 C43 1.356 1_556 S
C48 C47 1.409 . S
C48 H75 0.930 . S
C49 O62 1.270 1_545 S
C49 O63 1.248 . S
C50 O64 1.266 1_554 S
C50 O65 1.278 . S
C51 Pr41 2.880 . S
C51 C52 1.491 1_556 S
C51 O66 1.254 1_556 S
C51 O67 1.225 . S
C52 C51 1.491 1_554 S
C52 C53 1.391 1_554 S
C52 C57 1.356 . S
C53 C52 1.391 1_556 S
C53 C54 1.368 . S
C53 H76 0.929 . S
C54 C53 1.368 . S
C54 C55 1.386 1_556 S
C54 H77 0.929 . S
C55 C54 1.386 1_554 S
C55 C56 1.373 . S
C56 C55 1.373 . S
C56 C57 1.409 . S
C56 H78 0.931 . S
C57 C52 1.356 . S
C57 C56 1.409 . S
C57 H79 0.930 . S
C58 O68 1.270 1_565 S
C58 O69 1.248 . S
C59 O70 1.265 1_556 S
C59 O71 1.278 . S
O60 Pr40 2.562 1_556 S
O60 C42 1.254 1_556 S
O61 Pr40 2.490 . S
O61 C42 1.225 . S
O62 Pr40 2.695 1_565 S
O62 Pr41 2.436 1_554 S
O62 C49 1.270 1_565 S
O63 Pr40 2.512 . S
O63 C49 1.248 . S
O64 Pr41 2.438 1_545 S
O64 C50 1.266 1_556 S
O65 Pr40 2.437 . S
O65 C50 1.278 . S
O66 Pr41 2.562 1_554 S
O66 C51 1.254 1_554 S
O67 Pr41 2.490 . S
O67 C51 1.225 . S
O68 Pr40 2.436 1_556 S
O68 Pr41 2.695 1_545 S
O68 C58 1.270 1_545 S
O69 Pr41 2.512 . S
O69 C58 1.248 . S
O70 Pr40 2.438 1_565 S
O70 C59 1.265 1_554 S
O71 Pr41 2.437 . S
O71 C59 1.278 . S
H72 C44 0.929 . S
H73 C45 0.929 . S
H74 C47 0.931 . S
H75 C48 0.930 . S
H76 C53 0.929 . S
H77 C54 0.929 . S
H78 C56 0.931 . S
H79 C57 0.930 . S
Pr80 C82 2.880 . S
Pr80 O100 2.562 1_554 S
Pr80 O101 2.490 . S
Pr80 O102 2.695 . S
Pr80 O103 2.512 . S
Pr80 O105 2.437 . S
Pr80 O108 2.436 1_554 S
Pr80 O110 2.438 . S
Pr81 C91 2.880 . S
Pr81 O102 2.436 1_556 S
Pr81 O104 2.438 . S
Pr81 O106 2.562 1_556 S
Pr81 O107 2.490 . S
Pr81 O108 2.695 . S
Pr81 O109 2.512 . S
Pr81 O111 2.437 . S
C82 Pr80 2.880 . S
C82 C83 1.491 . S
C82 O100 1.254 1_554 S
C82 O101 1.225 . S
C83 C82 1.491 . S
C83 C84 1.392 . S
C83 C88 1.356 1_554 S
C84 C83 1.392 . S
C84 C85 1.368 . S
C84 H112 0.929 . S
C85 C84 1.368 . S
C85 C86 1.393 . S
C85 H113 0.929 . S
C86 C85 1.393 . S
C86 C87 1.366 1_554 S
C87 C86 1.366 1_556 S
C87 C88 1.409 . S
C87 H114 0.931 . S
C88 C83 1.356 1_556 S
C88 C87 1.409 . S
C88 H115 0.930 . S
C89 O102 1.270 . S
C89 O103 1.248 . S
C90 O104 1.267 1_554 S
C90 O105 1.278 . S
C91 Pr81 2.880 . S
C91 C92 1.491 . S
C91 O106 1.254 1_556 S
C91 O107 1.225 . S
C92 C91 1.491 . S
C92 C93 1.392 . S
C92 C97 1.356 1_556 S
C93 C92 1.392 . S
C93 C94 1.368 . S
C93 H116 0.929 . S
C94 C93 1.368 . S
C94 C95 1.390 . S
C94 H117 0.929 . S
C95 C94 1.390 . S
C95 C96 1.369 1_556 S
C96 C95 1.369 1_554 S
C96 C97 1.409 . S
C96 H118 0.931 . S
C97 C92 1.356 1_554 S
C97 C96 1.409 . S
C97 H119 0.930 . S
C98 O108 1.270 . S
C98 O109 1.248 . S
C99 O110 1.267 1_556 S
C99 O111 1.278 . S
O100 Pr80 2.562 1_556 S
O100 C82 1.254 1_556 S
O101 Pr80 2.490 . S
O101 C82 1.225 . S
O102 Pr80 2.695 . S
O102 Pr81 2.436 1_554 S
O102 C89 1.270 . S
O103 Pr80 2.512 . S
O103 C89 1.248 . S
O104 Pr81 2.438 . S
O104 C90 1.267 1_556 S
O105 Pr80 2.437 . S
O105 C90 1.278 . S
O106 Pr81 2.562 1_554 S
O106 C91 1.254 1_554 S
O107 Pr81 2.490 . S
O107 C91 1.225 . S
O108 Pr80 2.436 1_556 S
O108 Pr81 2.695 . S
O108 C98 1.270 . S
O109 Pr81 2.512 . S
O109 C98 1.248 . S
O110 Pr80 2.438 . S
O110 C99 1.267 1_554 S
O111 Pr81 2.437 . S
O111 C99 1.278 . S
H112 C84 0.929 . S
H113 C85 0.929 . S
H114 C87 0.931 . S
H115 C88 0.930 . S
H116 C93 0.929 . S
H117 C94 0.929 . S
H118 C96 0.931 . S
H119 C97 0.930 . S
C120 C121 1.349 1_655 S
C120 C122 1.327 . S
C120 H145 0.950 . S
C121 C120 1.349 1_455 S
C121 C137 1.349 . S
C122 C120 1.327 . S
C122 C141 1.429 1_655 S
C122 H146 0.950 . S
C123 C140 1.574 . S
C123 C142 1.393 . S
C123 H147 0.949 . S
H124 C128 0.949 . S
C125 C126 1.334 1_455 S
C125 C127 1.327 . S
C125 H148 0.950 . S
C126 C125 1.334 1_655 S
C126 C138 1.364 . S
C127 C125 1.327 . S
C127 C143 1.431 1_455 S
C127 H149 0.950 . S
C128 H124 0.949 . S
C128 C136 1.574 . S
C128 C144 1.361 1_655 S
H129 C137 0.950 . S
H130 C135 0.950 . S
H131 C136 0.949 . S
H132 C138 0.950 . S
H133 C139 0.950 . S
H134 C140 0.949 . S
C135 H130 0.950 . S
C135 C137 1.327 . S
C135 C141 1.429 . S
C136 C128 1.574 . S
C136 H131 0.949 . S
C136 C142 1.344 1_655 S
C137 C121 1.349 . S
C137 H129 0.950 . S
C137 C135 1.327 . S
C138 C126 1.364 . S
C138 H132 0.950 . S
C138 C139 1.327 . S
C139 H133 0.950 . S
C139 C138 1.327 . S
C139 C143 1.426 . S
C140 C123 1.574 . S
C140 H134 0.949 . S
C140 C144 1.375 . S
C141 C122 1.429 1_455 S
C141 C135 1.429 . S
C141 C142 1.523 . S
C142 C123 1.393 . S
C142 C136 1.344 1_455 S
C142 C141 1.523 . S
C143 C127 1.431 1_655 S
C143 C139 1.426 . S
C143 C144 1.523 1_655 S
C144 C128 1.361 1_455 S
C144 C140 1.375 . S
C144 C143 1.523 1_455 S
H145 C120 0.950 . S
H146 C122 0.950 . S
H147 C123 0.949 . S
H148 C125 0.950 . S
H149 C127 0.950 . S
C150 C151 1.332 1_565 S
C150 C152 1.327 . S
C150 H175 0.950 . S
C151 C150 1.332 1_545 S
C151 C167 1.364 . S
C152 C150 1.327 . S
C152 C171 1.421 1_565 S
C152 H176 0.950 . S
C153 C170 1.574 . S
C153 C172 1.372 . S
C153 H177 0.949 . S
H154 C158 0.949 . S
C155 C156 1.341 1_545 S
C155 C157 1.327 . S
C155 H178 0.950 . S
C156 C155 1.341 1_565 S
C156 C168 1.356 . S
C157 C155 1.327 . S
C157 C173 1.429 1_545 S
C157 H179 0.950 . S
C158 H154 0.949 . S
C158 C166 1.574 . S
C158 C174 1.372 1_565 S
H159 C167 0.950 . S
H160 C165 0.950 . S
H161 C166 0.949 . S
H162 C168 0.950 . S
H163 C169 0.950 . S
H164 C170 0.949 . S
C165 H160 0.950 . S
C165 C167 1.327 . S
C165 C171 1.437 . S
C166 C158 1.574 . S
C166 H161 0.949 . S
C166 C172 1.364 1_565 S
C167 C151 1.364 . S
C167 H159 0.950 . S
C167 C165 1.327 . S
C168 C156 1.356 . S
C168 H162 0.950 . S
C168 C169 1.327 . S
C169 H163 0.950 . S
C169 C168 1.327 . S
C169 C173 1.428 . S
C170 C153 1.574 . S
C170 H164 0.949 . S
C170 C174 1.364 . S
C171 C152 1.421 1_545 S
C171 C165 1.437 . S
C171 C172 1.522 . S
C172 C153 1.372 . S
C172 C166 1.364 1_545 S
C172 C171 1.522 . S
C173 C157 1.429 1_565 S
C173 C169 1.428 . S
C173 C174 1.523 1_565 S
C174 C158 1.372 1_545 S
C174 C170 1.364 . S
C174 C173 1.523 1_545 S
H175 C150 0.950 . S
H176 C152 0.950 . S
H177 C153 0.949 . S
H178 C155 0.950 . S
H179 C157 0.950 . S
C180 C181 1.349 . S
C180 C182 1.327 . S
C180 H205 0.950 . S
C181 C180 1.349 . S
C181 C197 1.349 . S
C182 C180 1.327 . S
C182 C201 1.429 . S
C182 H206 0.950 . S
C183 C200 1.574 . S
C183 C202 1.368 . S
C183 H207 0.949 . S
H184 C188 0.949 . S
C185 C186 1.349 . S
C185 C187 1.327 . S
C185 H208 0.950 . S
C186 C185 1.349 . S
C186 C198 1.349 . S
C187 C185 1.327 . S
C187 C203 1.429 . S
C187 H209 0.950 . S
C188 H184 0.949 . S
C188 C196 1.574 . S
C188 C204 1.368 . S
H189 C197 0.950 . S
H190 C195 0.950 . S
H191 C196 0.949 . S
H192 C198 0.950 . S
H193 C199 0.950 . S
H194 C200 0.949 . S
C195 H190 0.950 . S
C195 C197 1.327 . S
C195 C201 1.429 . S
C196 C188 1.574 . S
C196 H191 0.949 . S
C196 C202 1.368 . S
C197 C181 1.349 . S
C197 H189 0.950 . S
C197 C195 1.327 . S
C198 C186 1.349 . S
C198 H192 0.950 . S
C198 C199 1.327 . S
C199 H193 0.950 . S
C199 C198 1.327 . S
C199 C203 1.429 . S
C200 C183 1.574 . S
C200 H194 0.949 . S
C200 C204 1.368 . S
C201 C182 1.429 . S
C201 C195 1.429 . S
C201 C202 1.523 . S
C202 C183 1.368 . S
C202 C196 1.368 . S
C202 C201 1.523 . S
C203 C187 1.429 . S
C203 C199 1.429 . S
C203 C204 1.523 . S
C204 C188 1.368 . S
C204 C200 1.368 . S
C204 C203 1.523 . S
H205 C180 0.950 . S
H206 C182 0.950 . S
H207 C183 0.949 . S
H208 C185 0.950 . S
H209 C187 0.950 . S
C210 C211 1.349 1_554 S
C210 C212 1.327 . S
C210 H235 0.950 . S
C211 C210 1.349 1_556 S
C211 C227 1.349 . S
C212 C210 1.327 . S
C212 C231 1.429 1_554 S
C212 H236 0.950 . S
C213 C230 1.574 . S
C213 C232 1.368 . S
C213 H237 0.949 . S
H214 C218 0.949 . S
C215 C216 1.349 . S
C215 C217 1.327 . S
C215 H238 0.950 . S
C216 C215 1.349 . S
C216 C228 1.349 1_556 S
C217 C215 1.327 . S
C217 C233 1.429 . S
C217 H239 0.950 . S
C218 H214 0.949 . S
C218 C226 1.574 . S
C218 C234 1.368 1_554 S
H219 C227 0.950 . S
H220 C225 0.950 . S
H221 C226 0.949 . S
H222 C228 0.950 . S
H223 C229 0.950 . S
H224 C230 0.949 . S
C225 H220 0.950 . S
C225 C227 1.327 . S
C225 C231 1.429 . S
C226 C218 1.574 . S
C226 H221 0.949 . S
C226 C232 1.368 1_554 S
C227 C211 1.349 . S
C227 H219 0.950 . S
C227 C225 1.327 . S
C228 C216 1.349 1_554 S
C228 H222 0.950 . S
C228 C229 1.327 . S
C229 H223 0.950 . S
C229 C228 1.327 . S
C229 C233 1.429 1_554 S
C230 C213 1.574 . S
C230 H224 0.949 . S
C230 C234 1.368 . S
C231 C212 1.429 1_556 S
C231 C225 1.429 . S
C231 C232 1.523 . S
C232 C213 1.368 . S
C232 C226 1.368 1_556 S
C232 C231 1.523 . S
C233 C217 1.429 . S
C233 C229 1.429 1_556 S
C233 C234 1.523 . S
C234 C218 1.368 1_556 S
C234 C230 1.368 . S
C234 C233 1.523 . S
H235 C210 0.950 . S
H236 C212 0.950 . S
H237 C213 0.949 . S
H238 C215 0.950 . S
H239 C217 0.950 . S
C240 C241 1.349 1_554 S
C240 C242 1.327 . S
C240 H265 0.950 . S
C241 C240 1.349 1_556 S
C241 C257 1.349 . S
C242 C240 1.327 . S
C242 C261 1.429 1_554 S
C242 H266 0.950 . S
C243 C260 1.574 . S
C243 C262 1.368 . S
C243 H267 0.949 . S
H244 C248 0.949 . S
C245 C246 1.349 . S
C245 C247 1.327 . S
C245 H268 0.950 . S
C246 C245 1.349 . S
C246 C258 1.349 1_556 S
C247 C245 1.327 . S
C247 C263 1.429 . S
C247 H269 0.950 . S
C248 H244 0.949 . S
C248 C256 1.574 . S
C248 C264 1.368 1_554 S
H249 C257 0.950 . S
H250 C255 0.950 . S
H251 C256 0.949 . S
H252 C258 0.950 . S
H253 C259 0.950 . S
H254 C260 0.949 . S
C255 H250 0.950 . S
C255 C257 1.327 . S
C255 C261 1.429 . S
C256 C248 1.574 . S
C256 H251 0.949 . S
C256 C262 1.368 1_554 S
C257 C241 1.349 . S
C257 H249 0.950 . S
C257 C255 1.327 . S
C258 C246 1.349 1_554 S
C258 H252 0.950 . S
C258 C259 1.327 . S
C259 H253 0.950 . S
C259 C258 1.327 . S
C259 C263 1.429 1_554 S
C260 C243 1.574 . S
C260 H254 0.949 . S
C260 C264 1.368 . S
C261 C242 1.429 1_556 S
C261 C255 1.429 . S
C261 C262 1.523 . S
C262 C243 1.368 . S
C262 C256 1.368 1_556 S
C262 C261 1.523 . S
C263 C247 1.429 . S
C263 C259 1.429 1_556 S
C263 C264 1.523 . S
C264 C248 1.368 1_556 S
C264 C260 1.368 . S
C264 C263 1.523 . S
H265 C240 0.950 . S
H266 C242 0.950 . S
H267 C243 0.949 . S
H268 C245 0.950 . S
H269 C247 0.950 . S
C270 C271 1.349 1_554 S
C270 C272 1.327 . S
C270 H295 0.950 . S
C271 C270 1.349 1_556 S
C271 C287 1.349 . S
C272 C270 1.327 . S
C272 C291 1.429 1_554 S
C272 H296 0.950 . S
C273 C290 1.574 . S
C273 C292 1.368 . S
C273 H297 0.949 . S
H274 C278 0.949 . S
C275 C276 1.357 . S
C275 C277 1.327 . S
C275 H298 0.950 . S
C276 C275 1.357 . S
C276 C288 1.341 1_556 S
C277 C275 1.327 . S
C277 C293 1.429 . S
C277 H299 0.950 . S
C278 H274 0.949 . S
C278 C286 1.574 . S
C278 C294 1.368 1_554 S
H279 C287 0.950 . S
H280 C285 0.950 . S
H281 C286 0.949 . S
H282 C288 0.950 . S
H283 C289 0.950 . S
H284 C290 0.949 . S
C285 H280 0.950 . S
C285 C287 1.327 . S
C285 C291 1.429 . S
C286 C278 1.574 . S
C286 H281 0.949 . S
C286 C292 1.368 1_554 S
C287 C271 1.349 . S
C287 H279 0.950 . S
C287 C285 1.327 . S
C288 C276 1.341 1_554 S
C288 H282 0.950 . S
C288 C289 1.327 . S
C289 H283 0.950 . S
C289 C288 1.327 . S
C289 C293 1.429 1_554 S
C290 C273 1.574 . S
C290 H284 0.949 . S
C290 C294 1.368 . S
C291 C272 1.429 1_556 S
C291 C285 1.429 . S
C291 C292 1.523 . S
C292 C273 1.368 . S
C292 C286 1.368 1_556 S
C292 C291 1.523 . S
C293 C277 1.429 . S
C293 C289 1.429 1_556 S
C293 C294 1.523 . S
C294 C278 1.368 1_556 S
C294 C290 1.368 . S
C294 C293 1.523 . S
H295 C270 0.950 . S
H296 C272 0.950 . S
H297 C273 0.949 . S
H298 C275 0.950 . S
H299 C277 0.950 . S
C300 C301 1.349 1_556 S
C300 C302 1.327 . S
C300 H325 0.950 . S
C301 C300 1.349 1_554 S
C301 C317 1.349 . S
C302 C300 1.327 . S
C302 C321 1.429 1_556 S
C302 H326 0.950 . S
C303 C320 1.574 . S
C303 C322 1.368 . S
C303 H327 0.949 . S
H304 C308 0.949 . S
C305 C306 1.349 . S
C305 C307 1.327 . S
C305 H328 0.950 . S
C306 C305 1.349 . S
C306 C318 1.349 1_554 S
C307 C305 1.327 . S
C307 C323 1.429 . S
C307 H329 0.950 . S
C308 H304 0.949 . S
C308 C316 1.574 . S
C308 C324 1.368 1_556 S
H309 C317 0.950 . S
H310 C315 0.950 . S
H311 C316 0.949 . S
H312 C318 0.950 . S
H313 C319 0.950 . S
H314 C320 0.949 . S
C315 H310 0.950 . S
C315 C317 1.327 . S
C315 C321 1.429 . S
C316 C308 1.574 . S
C316 H311 0.949 . S
C316 C322 1.368 1_556 S
C317 C301 1.349 . S
C317 H309 0.950 . S
C317 C315 1.327 . S
C318 C306 1.349 1_556 S
C318 H312 0.950 . S
C318 C319 1.327 . S
C319 H313 0.950 . S
C319 C318 1.327 . S
C319 C323 1.429 1_556 S
C320 C303 1.574 . S
C320 H314 0.949 . S
C320 C324 1.368 . S
C321 C302 1.429 1_554 S
C321 C315 1.429 . S
C321 C322 1.523 . S
C322 C303 1.368 . S
C322 C316 1.368 1_554 S
C322 C321 1.523 . S
C323 C307 1.429 . S
C323 C319 1.429 1_554 S
C323 C324 1.523 . S
C324 C308 1.368 1_554 S
C324 C320 1.368 . S
C324 C323 1.523 . S
H325 C300 0.950 . S
H326 C302 0.950 . S
H327 C303 0.949 . S
H328 C305 0.950 . S
H329 C307 0.950 . S
C330 C331 1.349 1_556 S
C330 C332 1.327 . S
C330 H355 0.950 . S
C331 C330 1.349 1_554 S
C331 C347 1.349 . S
C332 C330 1.327 . S
C332 C351 1.429 1_556 S
C332 H356 0.950 . S
C333 C350 1.574 . S
C333 C352 1.368 . S
C333 H357 0.949 . S
H334 C338 0.949 . S
C335 C336 1.349 . S
C335 C337 1.327 . S
C335 H358 0.950 . S
C336 C335 1.349 . S
C336 C348 1.349 1_554 S
C337 C335 1.327 . S
C337 C353 1.429 . S
C337 H359 0.950 . S
C338 H334 0.949 . S
C338 C346 1.574 . S
C338 C354 1.368 1_556 S
H339 C347 0.950 . S
H340 C345 0.950 . S
H341 C346 0.949 . S
H342 C348 0.950 . S
H343 C349 0.950 . S
H344 C350 0.949 . S
C345 H340 0.950 . S
C345 C347 1.327 . S
C345 C351 1.429 . S
C346 C338 1.574 . S
C346 H341 0.949 . S
C346 C352 1.368 1_556 S
C347 C331 1.349 . S
C347 H339 0.950 . S
C347 C345 1.327 . S
C348 C336 1.349 1_556 S
C348 H342 0.950 . S
C348 C349 1.327 . S
C349 H343 0.950 . S
C349 C348 1.327 . S
C349 C353 1.429 1_556 S
C350 C333 1.574 . S
C350 H344 0.949 . S
C350 C354 1.368 . S
C351 C332 1.429 1_554 S
C351 C345 1.429 . S
C351 C352 1.523 . S
C352 C333 1.368 . S
C352 C346 1.368 1_554 S
C352 C351 1.523 . S
C353 C337 1.429 . S
C353 C349 1.429 1_554 S
C353 C354 1.523 . S
C354 C338 1.368 1_554 S
C354 C350 1.368 . S
C354 C353 1.523 . S
H355 C330 0.950 . S
H356 C332 0.950 . S
H357 C333 0.949 . S
H358 C335 0.950 . S
H359 C337 0.950 . S
C360 C361 1.339 1_556 S
C360 C362 1.327 . S
C360 H385 0.950 . S
C361 C360 1.339 1_554 S
C361 C377 1.360 . S
C362 C360 1.327 . S
C362 C381 1.429 1_556 S
C362 H386 0.950 . S
C363 C380 1.574 . S
C363 C382 1.368 . S
C363 H387 0.949 . S
H364 C368 0.949 . S
C365 C366 1.349 . S
C365 C367 1.327 . S
C365 H388 0.950 . S
C366 C365 1.349 . S
C366 C378 1.349 1_554 S
C367 C365 1.327 . S
C367 C383 1.429 . S
C367 H389 0.950 . S
C368 H364 0.949 . S
C368 C376 1.574 . S
C368 C384 1.368 1_556 S
H369 C377 0.950 . S
H370 C375 0.950 . S
H371 C376 0.949 . S
H372 C378 0.950 . S
H373 C379 0.950 . S
H374 C380 0.949 . S
C375 H370 0.950 . S
C375 C377 1.327 . S
C375 C381 1.429 . S
C376 C368 1.574 . S
C376 H371 0.949 . S
C376 C382 1.368 1_556 S
C377 C361 1.360 . S
C377 H369 0.950 . S
C377 C375 1.327 . S
C378 C366 1.349 1_556 S
C378 H372 0.950 . S
C378 C379 1.327 . S
C379 H373 0.950 . S
C379 C378 1.327 . S
C379 C383 1.429 1_556 S
C380 C363 1.574 . S
C380 H374 0.949 . S
C380 C384 1.368 . S
C381 C362 1.429 1_554 S
C381 C375 1.429 . S
C381 C382 1.523 . S
C382 C363 1.368 . S
C382 C376 1.368 1_554 S
C382 C381 1.523 . S
C383 C367 1.429 . S
C383 C379 1.429 1_554 S
C383 C384 1.523 . S
C384 C368 1.368 1_554 S
C384 C380 1.368 . S
C384 C383 1.523 . S
H385 C360 0.950 . S
H386 C362 0.950 . S
H387 C363 0.949 . S
H388 C365 0.950 . S
H389 C367 0.950 . S
C121 C9 1.452 . S
C126 C18 1.452 1_655 S
C151 C49 1.452 . S
C156 C58 1.450 . S
C181 C98 1.454 . S
C186 C89 1.454 . S
C211 C19 2.605 1_556 S
C216 C90 2.573 1_556 S
C241 C46 0.870 . S
C246 C6 0.867 . S
C271 C59 1.926 . S
C276 C86 1.898 1_556 S
C301 C10 2.605 1_554 S
C306 C99 2.572 1_554 S
C331 C15 0.869 . S
C336 C55 0.871 . S
C361 C95 1.896 1_554 S
C366 C50 1.924 . S
