# Generated by pormake.
# Topology uoc, (4)-cn, num edge types: 1
# Building blocks:
#     Node 0, Type 0, BuildingBlock: GALJAG_clean_sbu_0, # of connection points: 4
#     Node 1, Type 0, BuildingBlock: GALJAG_clean_sbu_0, # of connection points: 4
#     Node 2, Type 0, BuildingBlock: GALJAG_clean_sbu_0, # of connection points: 4
#     Node 3, Type 0, BuildingBlock: GALJAG_clean_sbu_0, # of connection points: 4
#     Node 4, Type 0, BuildingBlock: GALJAG_clean_sbu_0, # of connection points: 4
#     Node 5, Type 0, BuildingBlock: GALJAG_clean_sbu_0, # of connection points: 4
#     Node 6, Type 0, BuildingBlock: GALJAG_clean_sbu_0, # of connection points: 4
#     Node 7, Type 0, BuildingBlock: GALJAG_clean_sbu_0, # of connection points: 4
#     Edge 8, Type (0, 0), BuildingBlock: EZIPEK_clean_linker_0, # of connection points: 2
#     Edge 9, Type (0, 0), BuildingBlock: EZIPEK_clean_linker_0, # of connection points: 2
#     Edge 10, Type (0, 0), BuildingBlock: EZIPEK_clean_linker_0, # of connection points: 2
#     Edge 11, Type (0, 0), BuildingBlock: EZIPEK_clean_linker_0, # of connection points: 2
#     Edge 12, Type (0, 0), BuildingBlock: EZIPEK_clean_linker_0, # of connection points: 2
#     Edge 13, Type (0, 0), BuildingBlock: EZIPEK_clean_linker_0, # of connection points: 2
#     Edge 14, Type (0, 0), BuildingBlock: EZIPEK_clean_linker_0, # of connection points: 2
#     Edge 15, Type (0, 0), BuildingBlock: EZIPEK_clean_linker_0, # of connection points: 2
#     Edge 16, Type (0, 0), BuildingBlock: EZIPEK_clean_linker_0, # of connection points: 2
#     Edge 17, Type (0, 0), BuildingBlock: EZIPEK_clean_linker_0, # of connection points: 2
#     Edge 18, Type (0, 0), BuildingBlock: EZIPEK_clean_linker_0, # of connection points: 2
#     Edge 19, Type (0, 0), BuildingBlock: EZIPEK_clean_linker_0, # of connection points: 2
#     Edge 20, Type (0, 0), BuildingBlock: EZIPEK_clean_linker_0, # of connection points: 2
#     Edge 21, Type (0, 0), BuildingBlock: EZIPEK_clean_linker_0, # of connection points: 2
#     Edge 22, Type (0, 0), BuildingBlock: EZIPEK_clean_linker_0, # of connection points: 2
#     Edge 23, Type (0, 0), BuildingBlock: EZIPEK_clean_linker_0, # of connection points: 2
# Relax obj value: 0.017
# Max RMSD: 0.050
# Mean RMSD: 0.050
data_MOF--net-uoc--node1-GALJAG_clean_sbu_0--edge1-EZIPEK_clean_linker_0
_symmetry_space_group_name_H-M    P1
_symmetry_Int_Tables_number       1
_symmetry_cell_setting            triclinic
loop_
_symmetry_equiv_pos_as_xyz
'x, y, z'
_cell_length_a     20.456888
_cell_length_b     20.43618
_cell_length_c     40.816701
_cell_angle_alpha  90.223944
_cell_angle_beta   89.894736
_cell_angle_gamma 90.589263
loop_
_atom_site_label
_atom_site_type_symbol
_atom_site_fract_x
_atom_site_fract_y
_atom_site_fract_z
_atom_type_partial_charge
In0 In 0.10943 0.24408 0.12099 0.0
O1 O 0.02347 0.31486 0.12164 0.0
O2 O 0.11839 0.35276 0.11063 0.0
C3 C 0.05466 0.12449 0.12262 0.0
C4 C 0.15333 0.25968 0.18249 0.0
C5 C 0.16692 0.22878 0.06255 0.0
O6 O 0.02132 0.1754 0.1178 0.0
O7 O 0.11518 0.13402 0.12695 0.0
O8 O 0.20014 0.23298 0.08866 0.0
O9 O 0.10585 0.23298 0.06622 0.0
C10 C 0.05867 0.36433 0.11504 0.0
O11 O 0.19092 0.26572 0.15801 0.0
O12 O 0.09547 0.24268 0.17584 0.0
In13 In 0.74727 0.60498 0.36813 0.0
O14 O 0.76891 0.68667 0.33123 0.0
O15 O 0.74645 0.59098 0.31326 0.0
C16 C 0.73279 0.66113 0.42705 0.0
C17 C 0.86687 0.55307 0.37402 0.0
C18 C 0.62682 0.55276 0.36621 0.0
O19 O 0.73872 0.69503 0.40125 0.0
O20 O 0.73488 0.59997 0.42283 0.0
O21 O 0.67691 0.51815 0.37085 0.0
O22 O 0.63752 0.61321 0.36214 0.0
C23 C 0.76324 0.64897 0.3067 0.0
O24 O 0.81724 0.51836 0.36702 0.0
O25 O 0.85572 0.61281 0.37889 0.0
In26 In 0.39249 0.24578 0.62066 0.0
O27 O 0.47971 0.17777 0.61527 0.0
O28 O 0.38436 0.13496 0.61774 0.0
C29 C 0.44832 0.36536 0.62484 0.0
C30 C 0.33811 0.23712 0.68049 0.0
C31 C 0.33926 0.25468 0.56085 0.0
O32 O 0.48157 0.31356 0.62596 0.0
O33 O 0.38743 0.3567 0.62214 0.0
O34 O 0.30522 0.24099 0.58585 0.0
O35 O 0.39962 0.26198 0.56607 0.0
C36 C 0.4451 0.12612 0.61532 0.0
O37 O 0.30472 0.25061 0.65541 0.0
O38 O 0.39842 0.22996 0.67536 0.0
In39 In 0.74303 0.89723 0.87012 0.0
O40 O 0.7368 0.8109 0.83429 0.0
O41 O 0.73018 0.90798 0.81552 0.0
C42 C 0.75733 0.84134 0.92916 0.0
C43 C 0.62373 0.95069 0.87563 0.0
C44 C 0.86232 0.95218 0.86505 0.0
O45 O 0.74422 0.80796 0.90381 0.0
O46 O 0.76155 0.9022 0.92466 0.0
O47 O 0.81171 0.98573 0.87019 0.0
O48 O 0.85266 0.89139 0.86185 0.0
C49 C 0.72923 0.84735 0.80964 0.0
O50 O 0.67517 0.98525 0.87362 0.0
O51 O 0.63264 0.88975 0.87553 0.0
In52 In 0.61039 0.74771 0.61805 0.0
O53 O 0.52293 0.81628 0.62144 0.0
O54 O 0.61476 0.85611 0.60641 0.0
C55 C 0.55911 0.6269 0.62081 0.0
C56 C 0.65697 0.76508 0.67897 0.0
C57 C 0.66471 0.7325 0.55882 0.0
O58 O 0.52418 0.6767 0.61591 0.0
O59 O 0.61948 0.63812 0.62472 0.0
O60 O 0.69933 0.73925 0.58436 0.0
O61 O 0.60372 0.73431 0.56342 0.0
C62 C 0.55571 0.86643 0.61329 0.0
O63 O 0.69319 0.77242 0.65405 0.0
O64 O 0.59948 0.74594 0.67299 0.0
In65 In 0.2449 0.11235 0.86985 0.0
O66 O 0.25062 0.20126 0.83621 0.0
O67 O 0.25759 0.10589 0.81501 0.0
C68 C 0.23518 0.16312 0.93035 0.0
C69 C 0.36331 0.05778 0.87332 0.0
C70 C 0.12429 0.06052 0.86501 0.0
O71 O 0.24555 0.19875 0.90558 0.0
O72 O 0.23091 0.1026 0.92451 0.0
O73 O 0.17421 0.02536 0.86866 0.0
O74 O 0.13522 0.12129 0.86331 0.0
C75 C 0.25855 0.16695 0.81068 0.0
O76 O 0.31194 0.02372 0.86951 0.0
O77 O 0.35485 0.11858 0.87596 0.0
In78 In 0.89251 0.74205 0.116 0.0
O79 O 0.80627 0.72842 0.15123 0.0
O80 O 0.90295 0.73068 0.17079 0.0
C81 C 0.83501 0.75729 0.05748 0.0
C82 C 0.94942 0.62427 0.11066 0.0
C83 C 0.94542 0.86256 0.12099 0.0
O84 O 0.80208 0.75043 0.0835 0.0
O85 O 0.89611 0.754 0.06094 0.0
O86 O 0.97969 0.81267 0.1154 0.0
O87 O 0.88505 0.85171 0.12463 0.0
C88 C 0.84251 0.72444 0.17618 0.0
O89 O 0.98225 0.67665 0.11377 0.0
O90 O 0.88835 0.63152 0.10915 0.0
In91 In 0.24527 0.3886 0.37351 0.0
O92 O 0.23334 0.30261 0.33787 0.0
O93 O 0.23374 0.39968 0.31878 0.0
C94 C 0.26001 0.32969 0.43168 0.0
C95 C 0.12681 0.44415 0.3787 0.0
C96 C 0.36495 0.44372 0.36893 0.0
O97 O 0.25406 0.29732 0.40539 0.0
O98 O 0.25627 0.3909 0.42863 0.0
O99 O 0.31442 0.477 0.37455 0.0
O100 O 0.35506 0.38314 0.36513 0.0
C101 C 0.22862 0.33917 0.3131 0.0
O102 O 0.17886 0.47764 0.37623 0.0
O103 O 0.1347 0.38306 0.37966 0.0
C104 C 0.23966 0.16856 0.02275 0.0
C105 C 0.19583 0.22031 0.02954 0.0
C106 C 0.18154 0.23916 0.97081 0.0
C107 C 0.2273 0.18916 0.96401 0.0
N108 N 0.31449 0.12098 0.9835 0.0
N109 N 0.14241 0.31777 0.01056 0.0
C110 C 0.26119 0.15868 0.99004 0.0
C111 C 0.17256 0.25992 0.00368 0.0
N112 N 0.25746 0.12608 0.04684 0.0
N113 N 0.14322 0.26382 0.94649 0.0
H114 H 0.13695 0.3355 0.03441 0.0
H115 H 0.12964 0.35128 0.99255 0.0
H116 H 0.14585 0.2486 0.92215 0.0
H117 H 0.10424 0.29501 0.95107 0.0
H118 H 0.28329 0.08336 0.04215 0.0
H119 H 0.24174 0.12997 0.07104 0.0
H120 H 0.34448 0.10231 0.00176 0.0
H121 H 0.33286 0.11453 0.95985 0.0
C122 C 0.82638 0.62965 0.25498 0.0
C123 C 0.7815 0.66864 0.27295 0.0
C124 C 0.777 0.74627 0.22726 0.0
C125 C 0.81774 0.70443 0.20866 0.0
N126 N 0.868 0.599 0.20171 0.0
N127 N 0.70445 0.7573 0.274 0.0
C128 C 0.8385 0.64395 0.22161 0.0
C129 C 0.7541 0.72525 0.25852 0.0
N130 N 0.8601 0.58077 0.27005 0.0
N131 N 0.76194 0.80682 0.21554 0.0
H132 H 0.68542 0.74252 0.29653 0.0
H133 H 0.67811 0.79481 0.2632 0.0
H134 H 0.77722 0.82332 0.19258 0.0
H135 H 0.73857 0.8424 0.22949 0.0
H136 H 0.89901 0.55656 0.25904 0.0
H137 H 0.85414 0.56842 0.29459 0.0
H138 H 0.87792 0.55133 0.209 0.0
H139 H 0.87638 0.60687 0.17682 0.0
C140 C 0.25834 0.30805 0.52326 0.0
C141 C 0.31131 0.26468 0.52783 0.0
C142 C 0.32809 0.25896 0.46841 0.0
C143 C 0.273 0.29953 0.46389 0.0
N144 N 0.17465 0.34561 0.48628 0.0
N145 N 0.38456 0.18507 0.50454 0.0
C146 C 0.23451 0.31845 0.49114 0.0
C147 C 0.34223 0.23559 0.50029 0.0
N148 N 0.23359 0.34303 0.54898 0.0
N149 N 0.36955 0.24613 0.44293 0.0
H150 H 0.39549 0.16609 0.52751 0.0
H151 H 0.4034 0.15777 0.48515 0.0
H152 H 0.36241 0.26331 0.41923 0.0
H153 H 0.41438 0.22319 0.44595 0.0
H154 H 0.19988 0.38042 0.54601 0.0
H155 H 0.25114 0.33981 0.57284 0.0
H156 H 0.14189 0.35521 0.50524 0.0
H157 H 0.15503 0.35121 0.46294 0.0
C158 C 0.64931 0.83979 0.76403 0.0
C159 C 0.71069 0.82192 0.77701 0.0
C160 C 0.73478 0.76022 0.72685 0.0
C161 C 0.67686 0.7849 0.71249 0.0
N162 N 0.58608 0.86005 0.71546 0.0
N163 N 0.81596 0.77194 0.76988 0.0
C164 C 0.63599 0.8279 0.73054 0.0
C165 C 0.75465 0.78379 0.75823 0.0
N166 N 0.60259 0.86612 0.78399 0.0
N167 N 0.7693 0.71248 0.71117 0.0
H168 H 0.83177 0.788 0.79286 0.0
H169 H 0.85263 0.75062 0.75584 0.0
H170 H 0.75561 0.6932 0.68848 0.0
H171 H 0.80806 0.6879 0.72191 0.0
H172 H 0.55461 0.87381 0.77652 0.0
H173 H 0.60955 0.8737 0.80902 0.0
H174 H 0.56006 0.89757 0.72669 0.0
H175 H 0.57476 0.85457 0.69075 0.0
C176 C 0.14805 0.33464 0.26768 0.0
C177 C 0.2088 0.3145 0.28055 0.0
C178 C 0.22989 0.25111 0.2306 0.0
C179 C 0.17294 0.27797 0.21626 0.0
N180 N 0.08458 0.35598 0.2193 0.0
N181 N 0.31179 0.26007 0.27342 0.0
C182 C 0.13371 0.32253 0.2343 0.0
C183 C 0.25095 0.27429 0.26184 0.0
N184 N 0.1029 0.36355 0.28766 0.0
N185 N 0.26226 0.20171 0.21505 0.0
H186 H 0.3284 0.27572 0.29633 0.0
H187 H 0.34746 0.23711 0.25938 0.0
H188 H 0.24742 0.18242 0.19254 0.0
H189 H 0.30012 0.17577 0.2258 0.0
H190 H 0.05512 0.37295 0.28039 0.0
H191 H 0.11078 0.37191 0.31256 0.0
H192 H 0.06011 0.39467 0.23041 0.0
H193 H 0.07227 0.35014 0.19473 0.0
C194 C 0.7389 0.67361 0.5192 0.0
C195 C 0.69206 0.72287 0.52551 0.0
C196 C 0.6747 0.73628 0.46655 0.0
C197 C 0.72393 0.68942 0.46023 0.0
N198 N 0.81669 0.62973 0.48039 0.0
N199 N 0.63151 0.81493 0.50519 0.0
C200 C 0.7606 0.66344 0.48656 0.0
C201 C 0.66527 0.75879 0.49914 0.0
N202 N 0.75952 0.63338 0.54369 0.0
N203 N 0.63385 0.75617 0.44216 0.0
H204 H 0.62571 0.83417 0.52872 0.0
H205 H 0.61589 0.846 0.48665 0.0
H206 H 0.63683 0.73936 0.4181 0.0
H207 H 0.5928 0.7847 0.44656 0.0
H208 H 0.78805 0.59228 0.53935 0.0
H209 H 0.7433 0.63687 0.56782 0.0
H210 H 0.84825 0.6147 0.49885 0.0
H211 H 0.83537 0.62342 0.45679 0.0
C212 C 0.25669 0.18367 0.7187 0.0
C213 C 0.30962 0.2281 0.7136 0.0
C214 C 0.32628 0.23686 0.7729 0.0
C215 C 0.27146 0.19504 0.77798 0.0
N216 N 0.17436 0.14297 0.75645 0.0
N217 N 0.38265 0.31034 0.73587 0.0
C218 C 0.23328 0.17325 0.75106 0.0
C219 C 0.34042 0.25907 0.74075 0.0
N220 N 0.23171 0.14779 0.69322 0.0
N221 N 0.3676 0.25193 0.79818 0.0
H222 H 0.39355 0.3285 0.71266 0.0
H223 H 0.40142 0.33894 0.7549 0.0
H224 H 0.36043 0.2357 0.8221 0.0
H225 H 0.41239 0.27574 0.79485 0.0
H226 H 0.19827 0.10954 0.69641 0.0
H227 H 0.24856 0.1516 0.66921 0.0
H228 H 0.14154 0.13155 0.73774 0.0
H229 H 0.15539 0.13548 0.77991 0.0
C230 C 0.76448 0.82684 0.02145 0.0
C231 C 0.80553 0.77188 0.02527 0.0
C232 C 0.81347 0.76003 0.96568 0.0
C233 C 0.769 0.81236 0.96185 0.0
N234 N 0.68836 0.88283 0.98641 0.0
N235 N 0.85334 0.67543 0.00155 0.0
C236 C 0.74002 0.84164 0.98987 0.0
C237 C 0.82487 0.73497 -0.0025 0.0
N238 N 0.75211 0.86762 0.04731 0.0
N239 N 0.84841 0.73704 0.93955 0.0
H240 H 0.86007 0.65491 0.02461 0.0
H241 H 0.86317 0.64368 0.98216 0.0
H242 H 0.84444 0.75563 0.91594 0.0
H243 H 0.8864 0.70384 0.94198 0.0
H244 H 0.72869 0.91234 0.04473 0.0
H245 H 0.77041 0.86029 0.07079 0.0
H246 H 0.6614 0.90044 0.0062 0.0
H247 H 0.66809 0.89362 0.96371 0.0
C248 C 0.99306 0.03431 0.09398 0.0
C249 C 0.02542 0.05791 0.12247 0.0
C250 C 0.01015 0.95118 0.14894 0.0
C251 C 0.97327 0.92953 0.12151 0.0
N252 N 0.92206 0.95192 0.06957 0.0
N253 N 0.05571 0.04344 0.17905 0.0
C254 C 0.96216 0.9717 0.09459 0.0
C255 C 0.0318 0.0175 0.15049 0.0
N256 N 0.99504 0.0701 0.06572 0.0
N257 N 0.02461 0.90828 0.17345 0.0
H258 H 0.07081 0.09214 0.18136 0.0
H259 H 0.05528 0.01862 0.20127 0.0
H260 H 0.00697 0.86021 0.17393 0.0
H261 H 0.05758 0.91879 0.19219 0.0
H262 H 0.9788 0.05238 0.04318 0.0
H263 H 0.01833 0.11557 0.06397 0.0
H264 H 0.90561 0.98321 0.05136 0.0
H265 H 0.90153 0.90508 0.06807 0.0
C266 C 0.01482 0.45803 0.40311 0.0
C267 C 0.06091 0.47375 0.37822 0.0
C268 C 0.98211 0.54773 0.35311 0.0
C269 C 0.93373 0.52632 0.37579 0.0
N270 N 0.90167 0.45696 0.4209 0.0
N271 N 0.08351 0.52253 0.32551 0.0
C272 C 0.94926 0.47978 0.4002 0.0
C273 C 0.04343 0.51588 0.35219 0.0
N274 N 0.03463 0.42535 0.43043 0.0
N275 N 0.96997 0.59864 0.33242 0.0
H276 H 0.12798 0.49855 0.32313 0.0
H277 H 0.06965 0.54645 0.30417 0.0
H278 H 0.92529 0.62243 0.33127 0.0
H279 H 0.00613 0.62094 0.3182 0.0
H280 H 0.00527 0.41806 0.45098 0.0
H281 H 0.08279 0.41113 0.43391 0.0
H282 H 0.90805 0.41715 0.43638 0.0
H283 H 0.85429 0.47529 0.42135 0.0
C284 C 0.46106 0.47807 0.64898 0.0
C285 C 0.47845 0.4317 0.62449 0.0
C286 C 0.5488 0.51366 0.59753 0.0
C287 C 0.53125 0.55986 0.622 0.0
N288 N 0.47968 0.58517 0.67354 0.0
N289 N 0.52929 0.40731 0.57251 0.0
C290 C 0.48931 0.54202 0.64828 0.0
C291 C 0.52047 0.44972 0.59816 0.0
N292 N 0.4165 0.4612 0.6726 0.0
N293 N 0.59299 0.53095 0.57378 0.0
H294 H 0.5084 0.36062 0.57154 0.0
H295 H 0.55306 0.41953 0.5508 0.0
H296 H 0.61088 0.57854 0.57085 0.0
H297 H 0.61482 0.49784 0.55785 0.0
H298 H 0.3951 0.49432 0.68866 0.0
H299 H 0.39781 0.41395 0.67524 0.0
H300 H 0.4558 0.57346 0.69529 0.0
H301 H 0.49979 0.63227 0.67399 0.0
C302 C 0.51336 0.96539 0.9017 0.0
C303 C 0.55729 0.97903 0.87548 0.0
C304 C 0.47304 0.04277 0.84754 0.0
C305 C 0.42926 0.02907 0.87371 0.0
N306 N 0.40782 0.98494 0.92731 0.0
N307 N 0.57617 0.01964 0.82075 0.0
C308 C 0.44919 0.99179 0.9011 0.0
C309 C 0.53665 0.01535 0.8478 0.0
N310 N 0.53292 0.92638 0.92693 0.0
N311 N 0.45391 0.08281 0.82258 0.0
H312 H 0.62277 -0.00033 0.81958 0.0
H313 H 0.5613 0.03826 0.79832 0.0
H314 H 0.40628 0.09977 0.82005 0.0
H315 H 0.48576 0.10233 0.80519 0.0
H316 H 0.50186 0.90778 0.94488 0.0
H317 H 0.58057 0.90976 0.92933 0.0
H318 H 0.42088 0.9646 0.94963 0.0
H319 H 0.36043 0.0033 0.92764 0.0
C320 C 0.9653 0.51308 0.08551 0.0
C321 C 0.97963 0.55861 0.11093 0.0
C322 C 0.05275 0.47941 0.13638 0.0
C323 C 0.03239 0.43142 0.11317 0.0
N324 N 0.96551 0.40024 0.06691 0.0
N325 N 0.0263 0.58032 0.16429 0.0
C326 C 0.98713 0.44746 0.08824 0.0
C327 C 0.02077 0.5407 0.13731 0.0
N328 N 0.9338 0.5335 0.05795 0.0
N329 N 0.10277 0.46689 0.15755 0.0
H330 H 0.00229 0.62481 0.16664 0.0
H331 H 0.04935 0.56606 0.18581 0.0
H332 H 0.12666 0.42222 0.15861 0.0
H333 H 0.12435 0.50277 0.17229 0.0
H334 H 0.92761 0.50462 0.03709 0.0
H335 H 0.91945 0.58174 0.05464 0.0
H336 H 0.92659 0.40691 0.0509 0.0
H337 H 0.98396 0.35287 0.06641 0.0
C338 C 0.45606 0.50713 0.39572 0.0
C339 C 0.43147 0.47297 0.36792 0.0
C340 C 0.5372 0.48642 0.34009 0.0
C341 C 0.55981 0.52504 0.36678 0.0
N342 N 0.53908 0.57982 0.41821 0.0
N343 N 0.44396 0.43913 0.31159 0.0
C344 C 0.51855 0.53803 0.39397 0.0
C345 C 0.47087 0.46476 0.33955 0.0
N346 N 0.42144 0.5068 0.42443 0.0
N347 N 0.57916 0.47038 0.31526 0.0
H348 H 0.3952 0.42405 0.31 0.0
H349 H 0.46801 0.43811 0.2891 0.0
H350 H 0.62709 0.4881 0.31393 0.0
H351 H 0.568 0.43615 0.29711 0.0
H352 H 0.43999 0.5245 0.44652 0.0
H353 H 0.37624 0.48338 0.42709 0.0
H354 H 0.50834 0.59757 0.43649 0.0
H355 H 0.5859 0.60044 0.41896 0.0
C356 C 0.45197 0.0133 0.59066 0.0
C357 C 0.4736 0.05972 0.6144 0.0
C358 C 0.55354 0.98147 0.63498 0.0
C359 C 0.52801 0.9331 0.61322 0.0
N360 N 0.44934 0.90034 0.57218 0.0
N361 N 0.53397 0.08292 0.66394 0.0
C362 C 0.47581 0.94814 0.59175 0.0
C363 C 0.52167 0.04262 0.63776 0.0
N364 N 0.41104 0.03228 0.56609 0.0
N365 N 0.6082 0.96934 0.65312 0.0
H366 H 0.50995 0.12704 0.66777 0.0
H367 H 0.56287 0.06956 0.68375 0.0
H368 H 0.63162 0.92437 0.65352 0.0
H369 H 0.63339 0.00558 0.66611 0.0
H370 H 0.39948 0.00316 0.5459 0.0
H371 H 0.39252 0.07938 0.56434 0.0
H372 H 0.40594 0.90583 0.55924 0.0
H373 H 0.46876 0.85353 0.57013 0.0
C374 C 0.9532 0.01314 0.89314 0.0
C375 C 0.92884 0.98127 0.86464 0.0
C376 C 0.03471 0.9969 0.83721 0.0
C377 C 0.05722 0.03305 0.86478 0.0
N378 N 0.03657 0.08286 0.9175 0.0
N379 N 0.94183 0.95059 0.80793 0.0
C380 C 0.01589 0.04367 0.89222 0.0
C381 C 0.96846 0.97494 0.83624 0.0
N382 N 0.91806 0.01093 0.92169 0.0
N383 N 0.0767 0.98356 0.812 0.0
H384 H 0.89328 0.93483 0.80619 0.0
H385 H 0.96586 0.95085 0.78544 0.0
H386 H 0.12445 0.00188 0.81101 0.0
H387 H 0.06579 0.95116 0.793 0.0
H388 H 0.93638 0.02654 0.94421 0.0
H389 H 0.87244 0.9881 0.92367 0.0
H390 H 0.00584 0.09924 0.93609 0.0
H391 H 0.08365 0.10269 0.91896 0.0
loop_
_geom_bond_atom_site_label_1
_geom_bond_atom_site_label_2
_geom_bond_distance
_geom_bond_site_symmetry_2
_ccdc_geom_bond_type
In0 O1 2.294 . S
In0 O2 2.326 . S
In0 O6 2.266 . S
In0 O7 2.326 . S
In0 O8 2.266 . S
In0 O9 2.326 . S
In0 O11 2.294 . S
In0 O12 2.326 . S
O1 In0 2.294 . S
O1 C10 1.240 . S
O2 In0 2.326 . S
O2 C10 1.252 . S
C3 O6 1.252 . S
C3 O7 1.260 . S
C4 O11 1.240 . S
C4 O12 1.252 . S
C5 O8 1.252 . S
C5 O9 1.260 . S
O6 In0 2.266 . S
O6 C3 1.252 . S
O7 In0 2.326 . S
O7 C3 1.260 . S
O8 In0 2.266 . S
O8 C5 1.252 . S
O9 In0 2.326 . S
O9 C5 1.260 . S
C10 O1 1.240 . S
C10 O2 1.252 . S
O11 In0 2.294 . S
O11 C4 1.240 . S
O12 In0 2.326 . S
O12 C4 1.252 . S
In13 O14 2.294 . S
In13 O15 2.326 . S
In13 O19 2.266 . S
In13 O20 2.326 . S
In13 O21 2.266 . S
In13 O22 2.326 . S
In13 O24 2.294 . S
In13 O25 2.326 . S
O14 In13 2.294 . S
O14 C23 1.240 . S
O15 In13 2.326 . S
O15 C23 1.252 . S
C16 O19 1.252 . S
C16 O20 1.260 . S
C17 O24 1.240 . S
C17 O25 1.252 . S
C18 O21 1.252 . S
C18 O22 1.260 . S
O19 In13 2.266 . S
O19 C16 1.252 . S
O20 In13 2.326 . S
O20 C16 1.260 . S
O21 In13 2.266 . S
O21 C18 1.252 . S
O22 In13 2.326 . S
O22 C18 1.260 . S
C23 O14 1.240 . S
C23 O15 1.252 . S
O24 In13 2.294 . S
O24 C17 1.240 . S
O25 In13 2.326 . S
O25 C17 1.252 . S
In26 O27 2.294 . S
In26 O28 2.326 . S
In26 O32 2.266 . S
In26 O33 2.326 . S
In26 O34 2.266 . S
In26 O35 2.326 . S
In26 O37 2.294 . S
In26 O38 2.326 . S
O27 In26 2.294 . S
O27 C36 1.240 . S
O28 In26 2.326 . S
O28 C36 1.252 . S
C29 O32 1.252 . S
C29 O33 1.260 . S
C30 O37 1.240 . S
C30 O38 1.252 . S
C31 O34 1.252 . S
C31 O35 1.260 . S
O32 In26 2.266 . S
O32 C29 1.252 . S
O33 In26 2.326 . S
O33 C29 1.260 . S
O34 In26 2.266 . S
O34 C31 1.252 . S
O35 In26 2.326 . S
O35 C31 1.260 . S
C36 O27 1.240 . S
C36 O28 1.252 . S
O37 In26 2.294 . S
O37 C30 1.240 . S
O38 In26 2.326 . S
O38 C30 1.252 . S
In39 O40 2.294 . S
In39 O41 2.326 . S
In39 O45 2.266 . S
In39 O46 2.326 . S
In39 O47 2.266 . S
In39 O48 2.326 . S
In39 O50 2.294 . S
In39 O51 2.326 . S
O40 In39 2.294 . S
O40 C49 1.240 . S
O41 In39 2.326 . S
O41 C49 1.252 . S
C42 O45 1.252 . S
C42 O46 1.260 . S
C43 O50 1.240 . S
C43 O51 1.252 . S
C44 O47 1.252 . S
C44 O48 1.260 . S
O45 In39 2.266 . S
O45 C42 1.252 . S
O46 In39 2.326 . S
O46 C42 1.260 . S
O47 In39 2.266 . S
O47 C44 1.252 . S
O48 In39 2.326 . S
O48 C44 1.260 . S
C49 O40 1.240 . S
C49 O41 1.252 . S
O50 In39 2.294 . S
O50 C43 1.240 . S
O51 In39 2.326 . S
O51 C43 1.252 . S
In52 O53 2.294 . S
In52 O54 2.326 . S
In52 O58 2.266 . S
In52 O59 2.326 . S
In52 O60 2.266 . S
In52 O61 2.326 . S
In52 O63 2.294 . S
In52 O64 2.326 . S
O53 In52 2.294 . S
O53 C62 1.240 . S
O54 In52 2.326 . S
O54 C62 1.252 . S
C55 O58 1.252 . S
C55 O59 1.260 . S
C56 O63 1.240 . S
C56 O64 1.252 . S
C57 O60 1.252 . S
C57 O61 1.260 . S
O58 In52 2.266 . S
O58 C55 1.252 . S
O59 In52 2.326 . S
O59 C55 1.260 . S
O60 In52 2.266 . S
O60 C57 1.252 . S
O61 In52 2.326 . S
O61 C57 1.260 . S
C62 O53 1.240 . S
C62 O54 1.252 . S
O63 In52 2.294 . S
O63 C56 1.240 . S
O64 In52 2.326 . S
O64 C56 1.252 . S
In65 O66 2.294 . S
In65 O67 2.326 . S
In65 O71 2.266 . S
In65 O72 2.326 . S
In65 O73 2.266 . S
In65 O74 2.326 . S
In65 O76 2.294 . S
In65 O77 2.326 . S
O66 In65 2.294 . S
O66 C75 1.240 . S
O67 In65 2.326 . S
O67 C75 1.252 . S
C68 O71 1.252 . S
C68 O72 1.260 . S
C69 O76 1.240 . S
C69 O77 1.252 . S
C70 O73 1.252 . S
C70 O74 1.260 . S
O71 In65 2.266 . S
O71 C68 1.252 . S
O72 In65 2.326 . S
O72 C68 1.260 . S
O73 In65 2.266 . S
O73 C70 1.252 . S
O74 In65 2.326 . S
O74 C70 1.260 . S
C75 O66 1.240 . S
C75 O67 1.252 . S
O76 In65 2.294 . S
O76 C69 1.240 . S
O77 In65 2.326 . S
O77 C69 1.252 . S
In78 O79 2.294 . S
In78 O80 2.326 . S
In78 O84 2.266 . S
In78 O85 2.326 . S
In78 O86 2.266 . S
In78 O87 2.326 . S
In78 O89 2.294 . S
In78 O90 2.326 . S
O79 In78 2.294 . S
O79 C88 1.240 . S
O80 In78 2.326 . S
O80 C88 1.252 . S
C81 O84 1.252 . S
C81 O85 1.260 . S
C82 O89 1.240 . S
C82 O90 1.252 . S
C83 O86 1.252 . S
C83 O87 1.260 . S
O84 In78 2.266 . S
O84 C81 1.252 . S
O85 In78 2.326 . S
O85 C81 1.260 . S
O86 In78 2.266 . S
O86 C83 1.252 . S
O87 In78 2.326 . S
O87 C83 1.260 . S
C88 O79 1.240 . S
C88 O80 1.252 . S
O89 In78 2.294 . S
O89 C82 1.240 . S
O90 In78 2.326 . S
O90 C82 1.252 . S
In91 O92 2.294 . S
In91 O93 2.326 . S
In91 O97 2.266 . S
In91 O98 2.326 . S
In91 O99 2.266 . S
In91 O100 2.326 . S
In91 O102 2.294 . S
In91 O103 2.326 . S
O92 In91 2.294 . S
O92 C101 1.240 . S
O93 In91 2.326 . S
O93 C101 1.252 . S
C94 O97 1.252 . S
C94 O98 1.260 . S
C95 O102 1.240 . S
C95 O103 1.252 . S
C96 O99 1.252 . S
C96 O100 1.260 . S
O97 In91 2.266 . S
O97 C94 1.252 . S
O98 In91 2.326 . S
O98 C94 1.260 . S
O99 In91 2.266 . S
O99 C96 1.252 . S
O100 In91 2.326 . S
O100 C96 1.260 . S
C101 O92 1.240 . S
C101 O93 1.252 . S
O102 In91 2.294 . S
O102 C95 1.240 . S
O103 In91 2.326 . S
O103 C95 1.252 . S
C104 C105 1.363 . S
C104 C110 1.379 1_554 S
C104 N112 1.356 . S
C105 C104 1.363 . S
C105 C111 1.363 . S
C106 C107 1.363 . S
C106 C111 1.379 1_556 S
C106 N113 1.356 . S
C107 C106 1.363 . S
C107 C110 1.363 . S
N108 C110 1.356 . S
N108 H120 0.984 . S
N108 H121 0.985 . S
N109 C111 1.356 . S
N109 H114 0.984 . S
N109 H115 0.985 . S
C110 C104 1.379 1_556 S
C110 C107 1.363 . S
C110 N108 1.356 . S
C111 C105 1.363 . S
C111 C106 1.379 1_554 S
C111 N109 1.356 . S
N112 C104 1.356 . S
N112 H118 0.984 . S
N112 H119 0.984 . S
N113 C106 1.356 . S
N113 H116 0.984 . S
N113 H117 0.985 . S
H114 N109 0.984 . S
H115 N109 0.985 . S
H116 N113 0.984 . S
H117 N113 0.985 . S
H118 N112 0.984 . S
H119 N112 0.984 . S
H120 N108 0.984 . S
H121 N108 0.985 . S
C122 C123 1.363 . S
C122 C128 1.379 . S
C122 N130 1.356 . S
C123 C122 1.363 . S
C123 C129 1.363 . S
C124 C125 1.363 . S
C124 C129 1.379 . S
C124 N131 1.356 . S
C125 C124 1.363 . S
C125 C128 1.363 . S
N126 C128 1.356 . S
N126 H138 0.984 . S
N126 H139 0.985 . S
N127 C129 1.356 . S
N127 H132 0.984 . S
N127 H133 0.985 . S
C128 C122 1.379 . S
C128 C125 1.363 . S
C128 N126 1.356 . S
C129 C123 1.363 . S
C129 C124 1.379 . S
C129 N127 1.356 . S
N130 C122 1.356 . S
N130 H136 0.984 . S
N130 H137 0.984 . S
N131 C124 1.356 . S
N131 H134 0.984 . S
N131 H135 0.985 . S
H132 N127 0.984 . S
H133 N127 0.985 . S
H134 N131 0.984 . S
H135 N131 0.985 . S
H136 N130 0.984 . S
H137 N130 0.984 . S
H138 N126 0.984 . S
H139 N126 0.985 . S
C140 C141 1.363 . S
C140 C146 1.379 . S
C140 N148 1.356 . S
C141 C140 1.363 . S
C141 C147 1.363 . S
C142 C143 1.363 . S
C142 C147 1.379 . S
C142 N149 1.356 . S
C143 C142 1.363 . S
C143 C146 1.363 . S
N144 C146 1.356 . S
N144 H156 0.984 . S
N144 H157 0.985 . S
N145 C147 1.356 . S
N145 H150 0.984 . S
N145 H151 0.985 . S
C146 C140 1.379 . S
C146 C143 1.363 . S
C146 N144 1.356 . S
C147 C141 1.363 . S
C147 C142 1.379 . S
C147 N145 1.356 . S
N148 C140 1.356 . S
N148 H154 0.984 . S
N148 H155 0.984 . S
N149 C142 1.356 . S
N149 H152 0.984 . S
N149 H153 0.985 . S
H150 N145 0.984 . S
H151 N145 0.985 . S
H152 N149 0.984 . S
H153 N149 0.985 . S
H154 N148 0.984 . S
H155 N148 0.984 . S
H156 N144 0.984 . S
H157 N144 0.985 . S
C158 C159 1.363 . S
C158 C164 1.379 . S
C158 N166 1.356 . S
C159 C158 1.363 . S
C159 C165 1.363 . S
C160 C161 1.363 . S
C160 C165 1.379 . S
C160 N167 1.356 . S
C161 C160 1.363 . S
C161 C164 1.363 . S
N162 C164 1.356 . S
N162 H174 0.984 . S
N162 H175 0.985 . S
N163 C165 1.356 . S
N163 H168 0.984 . S
N163 H169 0.985 . S
C164 C158 1.379 . S
C164 C161 1.363 . S
C164 N162 1.356 . S
C165 C159 1.363 . S
C165 C160 1.379 . S
C165 N163 1.356 . S
N166 C158 1.356 . S
N166 H172 0.984 . S
N166 H173 0.984 . S
N167 C160 1.356 . S
N167 H170 0.984 . S
N167 H171 0.985 . S
H168 N163 0.984 . S
H169 N163 0.985 . S
H170 N167 0.984 . S
H171 N167 0.985 . S
H172 N166 0.984 . S
H173 N166 0.984 . S
H174 N162 0.984 . S
H175 N162 0.985 . S
C176 C177 1.363 . S
C176 C182 1.379 . S
C176 N184 1.356 . S
C177 C176 1.363 . S
C177 C183 1.363 . S
C178 C179 1.363 . S
C178 C183 1.379 . S
C178 N185 1.356 . S
C179 C178 1.363 . S
C179 C182 1.363 . S
N180 C182 1.356 . S
N180 H192 0.984 . S
N180 H193 0.985 . S
N181 C183 1.356 . S
N181 H186 0.984 . S
N181 H187 0.985 . S
C182 C176 1.379 . S
C182 C179 1.363 . S
C182 N180 1.356 . S
C183 C177 1.363 . S
C183 C178 1.379 . S
C183 N181 1.356 . S
N184 C176 1.356 . S
N184 H190 0.984 . S
N184 H191 0.984 . S
N185 C178 1.356 . S
N185 H188 0.984 . S
N185 H189 0.985 . S
H186 N181 0.984 . S
H187 N181 0.985 . S
H188 N185 0.984 . S
H189 N185 0.985 . S
H190 N184 0.984 . S
H191 N184 0.984 . S
H192 N180 0.984 . S
H193 N180 0.985 . S
C194 C195 1.363 . S
C194 C200 1.379 . S
C194 N202 1.356 . S
C195 C194 1.363 . S
C195 C201 1.363 . S
C196 C197 1.363 . S
C196 C201 1.379 . S
C196 N203 1.356 . S
C197 C196 1.363 . S
C197 C200 1.363 . S
N198 C200 1.356 . S
N198 H210 0.984 . S
N198 H211 0.985 . S
N199 C201 1.356 . S
N199 H204 0.984 . S
N199 H205 0.985 . S
C200 C194 1.379 . S
C200 C197 1.363 . S
C200 N198 1.356 . S
C201 C195 1.363 . S
C201 C196 1.379 . S
C201 N199 1.356 . S
N202 C194 1.356 . S
N202 H208 0.984 . S
N202 H209 0.984 . S
N203 C196 1.356 . S
N203 H206 0.984 . S
N203 H207 0.985 . S
H204 N199 0.984 . S
H205 N199 0.985 . S
H206 N203 0.984 . S
H207 N203 0.985 . S
H208 N202 0.984 . S
H209 N202 0.984 . S
H210 N198 0.984 . S
H211 N198 0.985 . S
C212 C213 1.363 . S
C212 C218 1.379 . S
C212 N220 1.356 . S
C213 C212 1.363 . S
C213 C219 1.363 . S
C214 C215 1.363 . S
C214 C219 1.379 . S
C214 N221 1.356 . S
C215 C214 1.363 . S
C215 C218 1.363 . S
N216 C218 1.356 . S
N216 H228 0.984 . S
N216 H229 0.985 . S
N217 C219 1.356 . S
N217 H222 0.984 . S
N217 H223 0.985 . S
C218 C212 1.379 . S
C218 C215 1.363 . S
C218 N216 1.356 . S
C219 C213 1.363 . S
C219 C214 1.379 . S
C219 N217 1.356 . S
N220 C212 1.356 . S
N220 H226 0.984 . S
N220 H227 0.984 . S
N221 C214 1.356 . S
N221 H224 0.984 . S
N221 H225 0.985 . S
H222 N217 0.984 . S
H223 N217 0.985 . S
H224 N221 0.984 . S
H225 N221 0.985 . S
H226 N220 0.984 . S
H227 N220 0.984 . S
H228 N216 0.984 . S
H229 N216 0.985 . S
C230 C231 1.363 . S
C230 C236 1.379 1_554 S
C230 N238 1.356 . S
C231 C230 1.363 . S
C231 C237 1.363 . S
C232 C233 1.363 . S
C232 C237 1.379 1_556 S
C232 N239 1.356 . S
C233 C232 1.363 . S
C233 C236 1.363 . S
N234 C236 1.356 . S
N234 H246 0.984 . S
N234 H247 0.985 . S
N235 C237 1.356 . S
N235 H240 0.984 . S
N235 H241 0.985 . S
C236 C230 1.379 1_556 S
C236 C233 1.363 . S
C236 N234 1.356 . S
C237 C231 1.363 . S
C237 C232 1.379 1_554 S
C237 N235 1.356 . S
N238 C230 1.356 . S
N238 H244 0.984 . S
N238 H245 0.984 . S
N239 C232 1.356 . S
N239 H242 0.984 . S
N239 H243 0.985 . S
H240 N235 0.984 . S
H241 N235 0.985 . S
H242 N239 0.984 . S
H243 N239 0.985 . S
H244 N238 0.984 . S
H245 N238 0.984 . S
H246 N234 0.984 . S
H247 N234 0.985 . S
C248 C249 1.363 1_655 S
C248 C254 1.379 1_545 S
C248 N256 1.356 . S
C249 C248 1.363 1_455 S
C249 C255 1.363 . S
C250 C251 1.363 1_455 S
C250 C255 1.379 1_565 S
C250 N257 1.356 . S
C251 C250 1.363 1_655 S
C251 C254 1.363 . S
N252 C254 1.356 . S
N252 H264 0.984 . S
N252 H265 0.985 . S
N253 C255 1.356 . S
N253 H258 0.984 . S
N253 H259 0.985 . S
C254 C248 1.379 1_565 S
C254 C251 1.363 . S
C254 N252 1.356 . S
C255 C249 1.363 . S
C255 C250 1.379 1_545 S
C255 N253 1.356 . S
N256 C248 1.356 . S
N256 H262 0.984 . S
N256 H263 0.984 1_655 S
N257 C250 1.356 . S
N257 H260 0.984 1_455 S
N257 H261 0.985 . S
H258 N253 0.984 . S
H259 N253 0.985 . S
H260 N257 0.984 1_655 S
H261 N257 0.985 . S
H262 N256 0.984 . S
H263 N256 0.984 1_455 S
H264 N252 0.984 . S
H265 N252 0.985 . S
C266 C267 1.363 . S
C266 C272 1.379 1_455 S
C266 N274 1.356 . S
C267 C266 1.363 . S
C267 C273 1.363 . S
C268 C269 1.363 . S
C268 C273 1.379 1_655 S
C268 N275 1.356 . S
C269 C268 1.363 . S
C269 C272 1.363 . S
N270 C272 1.356 . S
N270 H282 0.984 . S
N270 H283 0.985 . S
N271 C273 1.356 . S
N271 H276 0.984 . S
N271 H277 0.985 . S
C272 C266 1.379 1_655 S
C272 C269 1.363 . S
C272 N270 1.356 . S
C273 C267 1.363 . S
C273 C268 1.379 1_455 S
C273 N271 1.356 . S
N274 C266 1.356 . S
N274 H280 0.984 . S
N274 H281 0.984 . S
N275 C268 1.356 . S
N275 H278 0.984 . S
N275 H279 0.985 . S
H276 N271 0.984 . S
H277 N271 0.985 . S
H278 N275 0.984 . S
H279 N275 0.985 . S
H280 N274 0.984 . S
H281 N274 0.984 . S
H282 N270 0.984 . S
H283 N270 0.985 . S
C284 C285 1.363 . S
C284 C290 1.379 . S
C284 N292 1.356 . S
C285 C284 1.363 . S
C285 C291 1.363 . S
C286 C287 1.363 . S
C286 C291 1.379 . S
C286 N293 1.356 . S
C287 C286 1.363 . S
C287 C290 1.363 . S
N288 C290 1.356 . S
N288 H300 0.984 . S
N288 H301 0.985 . S
N289 C291 1.356 . S
N289 H294 0.984 . S
N289 H295 0.985 . S
C290 C284 1.379 . S
C290 C287 1.363 . S
C290 N288 1.356 . S
C291 C285 1.363 . S
C291 C286 1.379 . S
C291 N289 1.356 . S
N292 C284 1.356 . S
N292 H298 0.984 . S
N292 H299 0.984 . S
N293 C286 1.356 . S
N293 H296 0.984 . S
N293 H297 0.985 . S
H294 N289 0.984 . S
H295 N289 0.985 . S
H296 N293 0.984 . S
H297 N293 0.985 . S
H298 N292 0.984 . S
H299 N292 0.984 . S
H300 N288 0.984 . S
H301 N288 0.985 . S
C302 C303 1.363 . S
C302 C308 1.379 . S
C302 N310 1.356 . S
C303 C302 1.363 . S
C303 C309 1.363 1_565 S
C304 C305 1.363 . S
C304 C309 1.379 . S
C304 N311 1.356 . S
C305 C304 1.363 . S
C305 C308 1.363 1_545 S
N306 C308 1.356 . S
N306 H318 0.984 . S
N306 H319 0.985 1_565 S
N307 C309 1.356 . S
N307 H312 0.984 1_545 S
N307 H313 0.985 . S
C308 C302 1.379 . S
C308 C305 1.363 1_565 S
C308 N306 1.356 . S
C309 C303 1.363 1_545 S
C309 C304 1.379 . S
C309 N307 1.356 . S
N310 C302 1.356 . S
N310 H316 0.984 . S
N310 H317 0.984 . S
N311 C304 1.356 . S
N311 H314 0.984 . S
N311 H315 0.985 . S
H312 N307 0.984 1_565 S
H313 N307 0.985 . S
H314 N311 0.984 . S
H315 N311 0.985 . S
H316 N310 0.984 . S
H317 N310 0.984 . S
H318 N306 0.984 . S
H319 N306 0.985 1_545 S
C320 C321 1.363 . S
C320 C326 1.379 . S
C320 N328 1.356 . S
C321 C320 1.363 . S
C321 C327 1.363 1_655 S
C322 C323 1.363 . S
C322 C327 1.379 . S
C322 N329 1.356 . S
C323 C322 1.363 . S
C323 C326 1.363 1_455 S
N324 C326 1.356 . S
N324 H336 0.984 . S
N324 H337 0.985 1_655 S
N325 C327 1.356 . S
N325 H330 0.984 1_455 S
N325 H331 0.985 . S
C326 C320 1.379 . S
C326 C323 1.363 1_655 S
C326 N324 1.356 . S
C327 C321 1.363 1_455 S
C327 C322 1.379 . S
C327 N325 1.356 . S
N328 C320 1.356 . S
N328 H334 0.984 . S
N328 H335 0.984 . S
N329 C322 1.356 . S
N329 H332 0.984 . S
N329 H333 0.985 . S
H330 N325 0.984 1_655 S
H331 N325 0.985 . S
H332 N329 0.984 . S
H333 N329 0.985 . S
H334 N328 0.984 . S
H335 N328 0.984 . S
H336 N324 0.984 . S
H337 N324 0.985 1_455 S
C338 C339 1.363 . S
C338 C344 1.379 . S
C338 N346 1.356 . S
C339 C338 1.363 . S
C339 C345 1.363 . S
C340 C341 1.363 . S
C340 C345 1.379 . S
C340 N347 1.356 . S
C341 C340 1.363 . S
C341 C344 1.363 . S
N342 C344 1.356 . S
N342 H354 0.984 . S
N342 H355 0.985 . S
N343 C345 1.356 . S
N343 H348 0.984 . S
N343 H349 0.985 . S
C344 C338 1.379 . S
C344 C341 1.363 . S
C344 N342 1.356 . S
C345 C339 1.363 . S
C345 C340 1.379 . S
C345 N343 1.356 . S
N346 C338 1.356 . S
N346 H352 0.984 . S
N346 H353 0.984 . S
N347 C340 1.356 . S
N347 H350 0.984 . S
N347 H351 0.985 . S
H348 N343 0.984 . S
H349 N343 0.985 . S
H350 N347 0.984 . S
H351 N347 0.985 . S
H352 N346 0.984 . S
H353 N346 0.984 . S
H354 N342 0.984 . S
H355 N342 0.985 . S
C356 C357 1.363 . S
C356 C362 1.379 1_545 S
C356 N364 1.356 . S
C357 C356 1.363 . S
C357 C363 1.363 . S
C358 C359 1.363 . S
C358 C363 1.379 1_565 S
C358 N365 1.356 . S
C359 C358 1.363 . S
C359 C362 1.363 . S
N360 C362 1.356 . S
N360 H372 0.984 . S
N360 H373 0.985 . S
N361 C363 1.356 . S
N361 H366 0.984 . S
N361 H367 0.985 . S
C362 C356 1.379 1_565 S
C362 C359 1.363 . S
C362 N360 1.356 . S
C363 C357 1.363 . S
C363 C358 1.379 1_545 S
C363 N361 1.356 . S
N364 C356 1.356 . S
N364 H370 0.984 . S
N364 H371 0.984 . S
N365 C358 1.356 . S
N365 H368 0.984 . S
N365 H369 0.985 . S
H366 N361 0.984 . S
H367 N361 0.985 . S
H368 N365 0.984 . S
H369 N365 0.985 . S
H370 N364 0.984 . S
H371 N364 0.984 . S
H372 N360 0.984 . S
H373 N360 0.985 . S
C374 C375 1.363 1_545 S
C374 C380 1.379 1_655 S
C374 N382 1.356 . S
C375 C374 1.363 1_565 S
C375 C381 1.363 . S
C376 C377 1.363 1_565 S
C376 C381 1.379 1_455 S
C376 N383 1.356 . S
C377 C376 1.363 1_545 S
C377 C380 1.363 . S
N378 C380 1.356 . S
N378 H390 0.984 . S
N378 H391 0.985 . S
N379 C381 1.356 . S
N379 H384 0.984 . S
N379 H385 0.985 . S
C380 C374 1.379 1_455 S
C380 C377 1.363 . S
C380 N378 1.356 . S
C381 C375 1.363 . S
C381 C376 1.379 1_655 S
C381 N379 1.356 . S
N382 C374 1.356 . S
N382 H388 0.984 . S
N382 H389 0.984 1_545 S
N383 C376 1.356 . S
N383 H386 0.984 1_565 S
N383 H387 0.985 . S
H384 N379 0.984 . S
H385 N379 0.985 . S
H386 N383 0.984 1_545 S
H387 N383 0.985 . S
H388 N382 0.984 . S
H389 N382 0.984 1_565 S
H390 N378 0.984 . S
H391 N378 0.985 . S
C105 C5 1.383 . S
C107 C68 1.383 . S
C123 C23 1.388 . S
C125 C88 1.388 . S
C141 C31 1.383 . S
C143 C94 1.383 . S
C159 C49 1.388 . S
C161 C56 1.388 . S
C177 C101 1.388 . S
C179 C4 1.388 . S
C195 C57 1.383 . S
C197 C16 1.383 . S
C213 C30 1.388 . S
C215 C75 1.388 . S
C231 C81 1.383 . S
C233 C42 1.383 . S
C249 C3 1.527 . S
C251 C83 1.527 . S
C267 C95 1.523 . S
C269 C17 1.523 . S
C285 C29 1.527 . S
C287 C55 1.527 . S
C303 C43 1.523 . S
C305 C69 1.523 . S
C321 C82 1.523 . S
C323 C10 1.523 . S
C339 C96 1.527 . S
C341 C18 1.527 . S
C357 C36 1.523 . S
C359 C62 1.523 . S
C375 C44 1.527 . S
C377 C70 1.527 . S
