# Generated by pormake.
# Topology wju, (5)-cn, num edge types: 1
# Building blocks:
#     Node 0, Type 0, BuildingBlock: BEQFEK_clean_sbu_0, # of connection points: 5
#     Node 1, Type 0, BuildingBlock: BEQFEK_clean_sbu_0, # of connection points: 5
#     Node 2, Type 0, BuildingBlock: BEQFEK_clean_sbu_0, # of connection points: 5
#     Node 3, Type 0, BuildingBlock: BEQFEK_clean_sbu_0, # of connection points: 5
#     Node 4, Type 0, BuildingBlock: BEQFEK_clean_sbu_0, # of connection points: 5
#     Node 5, Type 0, BuildingBlock: BEQFEK_clean_sbu_0, # of connection points: 5
#     Node 6, Type 0, BuildingBlock: BEQFEK_clean_sbu_0, # of connection points: 5
#     Node 7, Type 0, BuildingBlock: BEQFEK_clean_sbu_0, # of connection points: 5
#     Node 8, Type 0, BuildingBlock: BEQFEK_clean_sbu_0, # of connection points: 5
#     Node 9, Type 0, BuildingBlock: BEQFEK_clean_sbu_0, # of connection points: 5
#     Node 10, Type 0, BuildingBlock: BEQFEK_clean_sbu_0, # of connection points: 5
#     Node 11, Type 0, BuildingBlock: BEQFEK_clean_sbu_0, # of connection points: 5
#     Edge 12, Type (0, 0), None
#     Edge 13, Type (0, 0), None
#     Edge 14, Type (0, 0), None
#     Edge 15, Type (0, 0), None
#     Edge 16, Type (0, 0), None
#     Edge 17, Type (0, 0), None
#     Edge 18, Type (0, 0), None
#     Edge 19, Type (0, 0), None
#     Edge 20, Type (0, 0), None
#     Edge 21, Type (0, 0), None
#     Edge 22, Type (0, 0), None
#     Edge 23, Type (0, 0), None
#     Edge 24, Type (0, 0), None
#     Edge 25, Type (0, 0), None
#     Edge 26, Type (0, 0), None
#     Edge 27, Type (0, 0), None
#     Edge 28, Type (0, 0), None
#     Edge 29, Type (0, 0), None
#     Edge 30, Type (0, 0), None
#     Edge 31, Type (0, 0), None
#     Edge 32, Type (0, 0), None
#     Edge 33, Type (0, 0), None
#     Edge 34, Type (0, 0), None
#     Edge 35, Type (0, 0), None
#     Edge 36, Type (0, 0), None
#     Edge 37, Type (0, 0), None
#     Edge 38, Type (0, 0), None
#     Edge 39, Type (0, 0), None
#     Edge 40, Type (0, 0), None
#     Edge 41, Type (0, 0), None
# Relax obj value: 0.095
# Max RMSD: 0.140
# Mean RMSD: 0.140
data_MOF--net-wju--node1-BEQFEK_clean_sbu_0--edge1-none
_symmetry_space_group_name_H-M    P1
_symmetry_Int_Tables_number       1
_symmetry_cell_setting            triclinic
loop_
_symmetry_equiv_pos_as_xyz
'x, y, z'
_cell_length_a     12.594188
_cell_length_b     12.594181
_cell_length_c     65.363774
_cell_angle_alpha  90.00096
_cell_angle_beta   89.99952
_cell_angle_gamma 119.99954
loop_
_atom_site_label
_atom_site_type_symbol
_atom_site_fract_x
_atom_site_fract_y
_atom_site_fract_z
_atom_type_partial_charge
Co0 Co 0.31134 0.22572 0.12236 0.0
Co1 Co 0.30405 0.18875 0.07506 0.0
C2 C 0.07609 0.0621 0.09887 0.0
O3 O 0.13342 0.1052 0.11565 0.0
O4 O 0.12723 0.10787 0.0818 0.0
C5 C 0.28699 0.1404 0.16387 0.0
O6 O 0.25223 0.03363 0.15532 0.0
C7 C 0.23482 0.04348 0.03615 0.0
C8 C 0.38492 0.16865 0.0157 0.0
C9 C 0.27967 0.055 0.0165 0.0
N10 N 0.3109 0.14584 0.04681 0.0
N11 N 0.3999 0.22033 0.03433 0.0
C12 C 0.11938 0.9361 0.04408 0.0
H13 H 0.10994 0.94146 0.06078 0.0
H14 H 0.11857 0.8497 0.0404 0.0
H15 H 0.03923 0.93158 0.03622 0.0
C16 C 0.46043 0.10616 0.11978 0.0
N17 N 0.39045 0.1479 0.11169 0.0
N18 N 0.36425 0.11129 0.09255 0.0
C19 C 0.4047 0.03368 0.08856 0.0
C20 C 0.47083 0.03224 0.10529 0.0
C21 C 0.52905 0.15051 0.13951 0.0
H22 H 0.53727 0.23931 0.14399 0.0
H23 H 0.4793 0.08259 0.15173 0.0
H24 H 0.62174 0.16116 0.1381 0.0
O25 O 0.41142 0.3974 0.11196 0.0
O26 O 0.42379 0.37689 0.07846 0.0
H27 H 0.41097 1.00801 0.05619 0.0
H28 H 0.39674 0.88165 0.07148 0.0
C29 C 0.36937 0.95241 0.07012 0.0
H30 H 0.2687 0.90333 0.06863 0.0
H31 H 0.47176 0.30632 0.03858 0.0
O32 O 0.31847 0.23425 0.15276 0.0
C33 C 0.46003 0.44313 0.09467 0.0
Co34 Co 0.09395 0.30713 0.45569 0.0
Co35 Co 0.12362 0.29984 0.40839 0.0
C36 C 0.02231 0.07188 0.43221 0.0
O37 O 0.03655 0.12921 0.44899 0.0
O38 O 0.02769 0.12302 0.41513 0.0
C39 C 0.15489 0.28274 0.4972 0.0
O40 O 0.22688 0.24794 0.48865 0.0
C41 C 0.19967 0.23062 0.36948 0.0
C42 C 0.22461 0.38074 0.34904 0.0
C43 C 0.23302 0.2755 0.34983 0.0
N44 N 0.17338 0.3067 0.38015 0.0
N45 N 0.1879 0.39571 0.36766 0.0
C46 C 0.1916 0.11518 0.37741 0.0
H47 H 0.1768 0.10573 0.39411 0.0
H48 H 0.27719 0.11437 0.37372 0.0
H49 H 0.11599 0.03504 0.36955 0.0
C50 C 0.36259 0.4562 0.45311 0.0
N51 N 0.25087 0.38624 0.44502 0.0
N52 N 0.26128 0.36004 0.42588 0.0
C53 C 0.37934 0.40049 0.42189 0.0
C54 C 0.44692 0.46662 0.43862 0.0
C55 C 0.38687 0.52481 0.47285 0.0
H56 H 0.30629 0.53304 0.47733 0.0
H57 H 0.40501 0.47503 0.48507 0.0
H58 H 0.46892 0.61749 0.47144 0.0
O59 O 0.02234 0.40721 0.4453 0.0
O60 O 0.05522 0.41958 0.41179 0.0
H61 H 0.41129 0.40678 0.38952 0.0
H62 H 0.52342 0.39254 0.40481 0.0
C63 C 0.42528 0.36517 0.40345 0.0
H64 H 0.3737 0.2645 0.40196 0.0
H65 H 0.17377 0.46757 0.37191 0.0
O66 O 0.09256 0.31427 0.48609 0.0
C67 C 0.02523 0.45582 0.428 0.0
Co68 Co 0.7951 0.08979 0.78903 0.0
Co69 Co 0.83206 0.11945 0.74172 0.0
C70 C 0.95871 0.01814 0.76554 0.0
O71 O 0.91562 0.03239 0.78232 0.0
O72 O 0.91294 0.02352 0.74847 0.0
C73 C 0.88046 0.15075 0.83053 0.0
O74 O 0.98723 0.22273 0.82198 0.0
C75 C 0.97731 0.19549 0.70282 0.0
C76 C 0.85208 0.22032 0.68236 0.0
C77 C 0.96576 0.22878 0.68316 0.0
N78 N 0.87495 0.16919 0.71348 0.0
N79 N 0.80043 0.18365 0.70099 0.0
C80 C 0.08471 0.18745 0.71075 0.0
H81 H 0.07933 0.1726 0.72744 0.0
H82 H 0.17109 0.27309 0.70707 0.0
H83 H 0.0893 0.11189 0.70288 0.0
C84 C 0.91467 0.35843 0.78644 0.0
N85 N 0.87292 0.24671 0.77835 0.0
N86 N 0.90952 0.25712 0.75921 0.0
C87 C 0.98713 0.37518 0.75523 0.0
C88 C 0.98859 0.44276 0.77195 0.0
C89 C 0.87035 0.38272 0.80618 0.0
H90 H 0.78154 0.30214 0.81066 0.0
H91 H 0.93827 0.40086 0.8184 0.0
H92 H 0.85971 0.46476 0.80477 0.0
O93 O 0.62341 0.01819 0.77863 0.0
O94 O 0.64392 0.05105 0.74512 0.0
H95 H 0.0128 0.4071 0.72286 0.0
H96 H 0.13916 0.51925 0.73814 0.0
C97 C 0.0684 0.42111 0.73678 0.0
H98 H 0.11749 0.36953 0.73529 0.0
H99 H 0.71443 0.16948 0.70524 0.0
O100 O 0.78659 0.08842 0.81942 0.0
C101 C 0.57769 0.02107 0.76134 0.0
Co102 Co 0.7139 0.79104 0.12236 0.0
Co103 Co 0.72105 0.82799 0.07506 0.0
C104 C 0.94906 0.9549 0.09887 0.0
O105 O 0.89177 0.91173 0.11566 0.0
O106 O 0.89789 0.90914 0.0818 0.0
C107 C 0.73814 0.87633 0.16387 0.0
O108 O 0.77273 0.98306 0.15532 0.0
C109 C 0.79013 0.97335 0.03617 0.0
C110 C 0.6404 0.84789 0.01569 0.0
C111 C 0.74542 0.96172 0.0165 0.0
N112 N 0.71418 0.87089 0.04682 0.0
N113 N 0.62539 0.79624 0.03432 0.0
C114 C 0.90538 0.08088 0.04412 0.0
H115 H 0.91474 0.07551 0.06082 0.0
H116 H 0.90596 0.16717 0.04044 0.0
H117 H 0.98568 0.08566 0.03627 0.0
C118 C 0.56414 0.90989 0.11978 0.0
N119 N 0.63453 0.86862 0.1117 0.0
N120 N 0.66057 0.90518 0.09255 0.0
C121 C 0.61951 0.98227 0.08855 0.0
C122 C 0.55314 0.98334 0.10527 0.0
C123 C 0.49568 0.86549 0.13953 0.0
H124 H 0.48767 0.77676 0.144 0.0
H125 H 0.54547 0.93343 0.15174 0.0
H126 H 0.40292 0.85467 0.13814 0.0
O127 O 0.61398 0.61933 0.11196 0.0
O128 O 0.60151 0.63983 0.07846 0.0
H129 H 0.61299 1.00784 0.05618 0.0
H130 H 0.6271 0.13416 0.07147 0.0
C131 C 0.6546 0.0635 0.0701 0.0
H132 H 0.75526 0.11274 0.06859 0.0
H133 H 0.55368 0.71013 0.03855 0.0
O134 O 0.70678 0.7825 0.15276 0.0
C135 C 0.56536 0.57359 0.09467 0.0
Co136 Co 0.93118 0.70969 0.4557 0.0
Co137 Co 0.90138 0.71684 0.40839 0.0
C138 C 1.00248 0.94485 0.43221 0.0
O139 O 0.98836 0.88756 0.44899 0.0
O140 O 0.99708 0.89368 0.41514 0.0
C141 C 0.8701 0.73388 0.49721 0.0
O142 O 0.79793 0.76844 0.48865 0.0
C143 C 0.8251 0.78593 0.3695 0.0
C144 C 0.80085 0.63622 0.34902 0.0
C145 C 0.79205 0.74124 0.34984 0.0
N146 N 0.85161 0.70997 0.38015 0.0
N147 N 0.83748 0.6212 0.36765 0.0
C148 C 0.83282 0.90118 0.37746 0.0
H149 H 0.84754 0.91052 0.39416 0.0
H150 H 0.74712 0.90177 0.37377 0.0
H151 H 0.90835 0.98148 0.36961 0.0
C152 C 0.66257 0.55991 0.45311 0.0
N153 N 0.77424 0.63032 0.44503 0.0
N154 N 0.76371 0.65637 0.42589 0.0
C155 C 0.64557 0.61531 0.42188 0.0
C156 C 0.57812 0.54892 0.4386 0.0
C157 C 0.63852 0.49144 0.47286 0.0
H158 H 0.71925 0.48344 0.47733 0.0
H159 H 0.62033 0.54119 0.48508 0.0
H160 H 0.55659 0.39867 0.47147 0.0
O161 O 1.00297 0.60977 0.44529 0.0
O162 O 0.97 0.5973 0.41179 0.0
H163 H 0.61347 0.6088 0.38951 0.0
H164 H 0.50126 0.6229 0.4048 0.0
C165 C 0.59943 0.6504 0.40344 0.0
H166 H 0.65085 0.75106 0.40193 0.0
H167 H 0.85188 0.54949 0.37188 0.0
O168 O 0.93261 0.70257 0.48609 0.0
C169 C 1.00008 0.56114 0.428 0.0
Co170 Co 0.22978 0.92703 0.78903 0.0
Co171 Co 0.19281 0.89721 0.74173 0.0
C172 C 0.06592 0.99832 0.76554 0.0
O173 O 0.10908 0.9842 0.78232 0.0
O174 O 0.11168 0.99291 0.74847 0.0
C175 C 0.14453 0.86597 0.83054 0.0
O176 O 0.0378 0.79379 0.82199 0.0
C177 C 0.04744 0.82093 0.70284 0.0
C178 C 0.17285 0.79656 0.68236 0.0
C179 C 0.05905 0.78781 0.68317 0.0
N180 N 0.1499 0.84742 0.71349 0.0
N181 N 0.22452 0.83323 0.70099 0.0
C182 C 0.93993 0.82868 0.71079 0.0
H183 H 0.94528 0.84335 0.72749 0.0
H184 H 0.85362 0.74301 0.7071 0.0
H185 H 0.93521 0.90426 0.70295 0.0
C186 C 0.11094 0.65841 0.78644 0.0
N187 N 0.15221 0.77008 0.77836 0.0
N188 N 0.11563 0.75955 0.75922 0.0
C189 C 0.03855 0.6414 0.75522 0.0
C190 C 0.03749 0.57396 0.77193 0.0
C191 C 0.15537 0.63436 0.80619 0.0
H192 H 0.2441 0.71509 0.81066 0.0
H193 H 0.08743 0.61618 0.81841 0.0
H194 H 0.1662 0.55242 0.8048 0.0
O195 O 0.40148 0.99881 0.77863 0.0
O196 O 0.38098 0.96583 0.74512 0.0
H197 H 0.01297 0.60929 0.72285 0.0
H198 H 0.88665 0.4971 0.73814 0.0
C199 C 0.95731 0.59526 0.73677 0.0
H200 H 0.90809 0.64669 0.73526 0.0
H201 H 0.31062 0.8476 0.70522 0.0
O202 O 0.23834 0.92847 0.81943 0.0
C203 C 0.44722 0.99592 0.76134 0.0
Co204 Co 0.79509 0.70949 0.56101 0.0
Co205 Co 0.83208 0.71679 0.60831 0.0
C206 C 0.95871 0.94475 0.58449 0.0
O207 O 0.91561 0.88741 0.56771 0.0
O208 O 0.91294 0.89361 0.60157 0.0
C209 C 0.88042 0.73389 0.5195 0.0
O210 O 0.98719 0.76868 0.52805 0.0
C211 C 0.97744 0.78603 0.6472 0.0
C212 C 0.85226 0.63602 0.66767 0.0
C213 C 0.96598 0.74118 0.66686 0.0
N214 N 0.87503 0.70996 0.63655 0.0
N215 N 0.80054 0.62102 0.64905 0.0
C216 C 0.08478 0.90146 0.63927 0.0
H217 H 0.07939 0.91088 0.62257 0.0
H218 H 0.1712 0.90229 0.64295 0.0
H219 H 0.08931 0.98161 0.64713 0.0
C220 C 0.91467 0.56043 0.56359 0.0
N221 N 0.87292 0.63039 0.57168 0.0
N222 N 0.90954 0.65659 0.59082 0.0
C223 C 0.98716 0.61615 0.5948 0.0
C224 C 0.98861 0.55002 0.57807 0.0
C225 C 0.87034 0.49182 0.54385 0.0
H226 H 0.78153 0.48361 0.53937 0.0
H227 H 0.93826 0.54159 0.53163 0.0
H228 H 0.85968 0.39913 0.54526 0.0
O229 O 0.62341 0.60941 0.57141 0.0
O230 O 0.64393 0.59704 0.60491 0.0
H231 H 0.01285 0.60989 0.62717 0.0
H232 H 0.13919 0.62408 0.61188 0.0
C233 C 0.06844 0.65147 0.61324 0.0
H234 H 0.11756 0.75214 0.61473 0.0
H235 H 0.7145 0.5492 0.64481 0.0
O236 O 0.78655 0.70236 0.53061 0.0
C237 C 0.57769 0.5608 0.5887 0.0
Co238 Co 0.09393 0.79098 0.89434 0.0
Co239 Co 0.12364 0.82798 0.94164 0.0
C240 C 0.02231 0.95461 0.91783 0.0
O241 O 0.03655 0.91151 0.90105 0.0
O242 O 0.02769 0.90885 0.9349 0.0
C243 C 0.15485 0.8763 0.85283 0.0
O244 O 0.22684 0.98307 0.86138 0.0
C245 C 0.19977 0.97335 0.98054 0.0
C246 C 0.22471 0.84822 1.001 0.0
C247 C 0.23321 0.96192 1.00019 0.0
N248 N 0.17344 0.87094 0.96988 0.0
N249 N 0.18796 0.79648 0.98237 0.0
C250 C 0.19164 0.08068 0.9726 0.0
H251 H 0.17688 0.07532 0.9559 0.0
H252 H 0.27719 0.16711 0.97629 0.0
H253 H 0.11597 0.08514 0.98045 0.0
C254 C 0.36258 0.91056 0.89692 0.0
N255 N 0.25087 0.86881 0.90501 0.0
N256 N 0.26129 0.90544 0.92415 0.0
C257 C 0.37936 0.98305 0.92813 0.0
C258 C 0.44692 0.98449 0.9114 0.0
C259 C 0.38685 0.86623 0.87718 0.0
H260 H 0.30626 0.77742 0.8727 0.0
H261 H 0.405 0.93415 0.86496 0.0
H262 H 0.46889 0.85558 0.87859 0.0
O263 O 0.02234 0.61931 0.90474 0.0
O264 O 0.05524 0.63983 0.93825 0.0
H265 H 0.41132 0.00873 0.9605 0.0
H266 H 0.52346 0.13508 0.94521 0.0
C267 C 0.42532 0.06433 0.94657 0.0
H268 H 0.37376 0.11344 0.94806 0.0
H269 H 0.17377 0.71046 0.97813 0.0
O270 O 0.09252 0.78244 0.86394 0.0
C271 C 0.02523 0.57359 0.92203 0.0
Co272 Co 0.31134 0.08979 0.22768 0.0
Co273 Co 0.30405 0.11949 0.27498 0.0
C274 C 0.07609 0.01816 0.25116 0.0
O275 O 0.13342 0.0324 0.23438 0.0
O276 O 0.12723 0.02353 0.26823 0.0
C277 C 0.28698 0.15073 0.18616 0.0
O278 O 0.25223 0.22275 0.19471 0.0
C279 C 0.23479 0.19562 0.31387 0.0
C280 C 0.38484 0.22055 0.33433 0.0
C281 C 0.27966 0.22905 0.33352 0.0
N282 N 0.31088 0.16929 0.30322 0.0
N283 N 0.39985 0.18381 0.31571 0.0
C284 C 0.11934 0.18749 0.30593 0.0
H285 H 0.10996 0.17275 0.28923 0.0
H286 H 0.11845 0.27304 0.30962 0.0
H287 H 0.0392 0.11181 0.31378 0.0
C288 C 0.46042 0.35844 0.23025 0.0
N289 N 0.39045 0.24672 0.23834 0.0
N290 N 0.36424 0.25715 0.25748 0.0
C291 C 0.40468 0.37521 0.26146 0.0
C292 C 0.47082 0.44278 0.24474 0.0
C293 C 0.52905 0.38271 0.21052 0.0
H294 H 0.53725 0.30211 0.20604 0.0
H295 H 0.47931 0.40088 0.19829 0.0
H296 H 0.62174 0.46473 0.21193 0.0
O297 O 0.41142 0.01819 0.23808 0.0
O298 O 0.4238 0.0511 0.27158 0.0
H299 H 0.41096 0.40718 0.29383 0.0
H300 H 0.39675 0.51932 0.27854 0.0
C301 C 0.36937 0.42118 0.27991 0.0
H302 H 0.2687 0.36962 0.28139 0.0
H303 H 0.47169 0.16962 0.31147 0.0
O304 O 0.31847 0.08837 0.19728 0.0
C305 C 0.46004 0.02109 0.25537 0.0
Co306 Co 0.22979 0.30693 0.56101 0.0
Co307 Co 0.19279 0.29978 0.6083 0.0
C308 C 0.06592 0.07178 0.58449 0.0
O309 O 0.10909 0.12906 0.56771 0.0
O310 O 0.11168 0.12294 0.60156 0.0
C311 C 0.14456 0.28273 0.51949 0.0
O312 O 0.03783 0.24818 0.52804 0.0
C313 C 0.04732 0.23066 0.64718 0.0
C314 C 0.17267 0.38039 0.66767 0.0
C315 C 0.05883 0.27539 0.66684 0.0
N316 N 0.14982 0.30664 0.63654 0.0
N317 N 0.22441 0.39542 0.64905 0.0
C318 C 0.93985 0.11539 0.63922 0.0
H319 H 0.94521 0.10613 0.62252 0.0
H320 H 0.85351 0.11468 0.64292 0.0
H321 H 0.9352 0.0351 0.64705 0.0
C322 C 0.11095 0.45671 0.56358 0.0
N323 N 0.1522 0.3863 0.57167 0.0
N324 N 0.11561 0.36025 0.59081 0.0
C325 C 0.03852 0.40131 0.59481 0.0
C326 C 0.03748 0.4677 0.57809 0.0
C327 C 0.15538 0.52518 0.54384 0.0
H328 H 0.2441 0.53316 0.53936 0.0
H329 H 0.08744 0.47543 0.53162 0.0
H330 H 0.16623 0.61796 0.54522 0.0
O331 O 0.40149 0.40684 0.57141 0.0
O332 O 0.38096 0.41933 0.60492 0.0
H333 H 0.01292 0.40784 0.62718 0.0
H334 H 0.88662 0.39374 0.61188 0.0
C335 C 0.95727 0.36623 0.61325 0.0
H336 H 0.90802 0.26557 0.61476 0.0
H337 H 0.31054 0.46712 0.64483 0.0
O338 O 0.23838 0.31405 0.53061 0.0
C339 C 0.44722 0.45548 0.5887 0.0
Co340 Co 0.9312 0.22568 0.89434 0.0
Co341 Co 0.90136 0.18869 0.94164 0.0
C342 C 1.00249 0.06182 0.91782 0.0
O343 O 0.98836 0.10498 0.90104 0.0
O344 O 0.99709 0.10758 0.9349 0.0
C345 C 0.87014 0.14044 0.85283 0.0
O346 O 0.79797 0.03371 0.86138 0.0
C347 C 0.82501 0.04323 0.98052 0.0
C348 C 0.80075 0.16864 1.00101 0.0
C349 C 0.79185 0.05477 1.00018 0.0
N350 N 0.85155 0.14574 0.96988 0.0
N351 N 0.83743 0.22036 0.98239 0.0
C352 C 0.83278 0.93575 0.97256 0.0
H353 H 0.84746 0.94113 0.95586 0.0
H354 H 0.74712 0.84942 0.97625 0.0
H355 H 0.90836 0.93102 0.98039 0.0
C356 C 0.66258 0.10684 0.89692 0.0
N357 N 0.77424 0.1481 0.905 0.0
N358 N 0.7637 0.11151 0.92414 0.0
C359 C 0.64555 0.03441 0.92814 0.0
C360 C 0.57812 0.03336 0.91142 0.0
C361 C 0.63854 0.15127 0.87717 0.0
H362 H 0.71927 0.23999 0.8727 0.0
H363 H 0.62034 0.08333 0.86495 0.0
H364 H 0.55661 0.16212 0.87856 0.0
O365 O 1.00298 0.39738 0.90474 0.0
O366 O 0.96998 0.37686 0.93825 0.0
H367 H 0.61344 0.0088 0.96051 0.0
H368 H 0.50122 0.88251 0.94522 0.0
C369 C 0.59939 0.95316 0.94659 0.0
H370 H 0.65079 0.9039 0.94809 0.0
H371 H 0.85188 0.3065 0.97817 0.0
O372 O 0.93265 0.23425 0.86394 0.0
C373 C 1.00008 0.44312 0.92204 0.0
Co374 Co 0.7139 0.92705 0.22767 0.0
Co375 Co 0.72105 0.89721 0.27497 0.0
C376 C 0.94906 0.99834 0.25116 0.0
O377 O 0.89177 0.98422 0.23438 0.0
O378 O 0.89789 0.99293 0.26823 0.0
C379 C 0.73814 0.86602 0.18616 0.0
O380 O 0.77273 0.79388 0.19472 0.0
C381 C 0.79015 0.82086 0.31385 0.0
C382 C 0.64047 0.79659 0.33435 0.0
C383 C 0.74544 0.78769 0.33352 0.0
N384 N 0.71419 0.84741 0.30321 0.0
N385 N 0.62544 0.83328 0.31572 0.0
C386 C 0.90541 0.82863 0.30589 0.0
H387 H 0.91471 0.84332 0.28919 0.0
H388 H 0.90607 0.74297 0.30958 0.0
H389 H 0.98571 0.90421 0.31373 0.0
C390 C 0.56414 0.65843 0.23025 0.0
N391 N 0.63454 0.7701 0.23833 0.0
N392 N 0.66058 0.75956 0.25748 0.0
C393 C 0.61953 0.64141 0.26148 0.0
C394 C 0.55315 0.57398 0.24476 0.0
C395 C 0.49569 0.6344 0.2105 0.0
H396 H 0.48769 0.71512 0.20603 0.0
H397 H 0.54546 0.61622 0.19828 0.0
H398 H 0.40292 0.55246 0.21189 0.0
O399 O 0.61398 0.99883 0.23808 0.0
O400 O 0.60151 0.96584 0.27158 0.0
H401 H 0.61301 0.60929 0.29384 0.0
H402 H 0.62709 0.49707 0.27855 0.0
C403 C 0.65461 0.59524 0.27992 0.0
H404 H 0.75526 0.64664 0.28143 0.0
H405 H 0.55375 0.84773 0.3115 0.0
O406 O 0.70678 0.9285 0.19727 0.0
C407 C 0.56536 0.99594 0.25537 0.0
loop_
_geom_bond_atom_site_label_1
_geom_bond_atom_site_label_2
_geom_bond_distance
_geom_bond_site_symmetry_2
_ccdc_geom_bond_type
Co0 O3 1.970 . S
Co0 N17 1.989 . S
Co0 O25 1.967 . S
Co0 O32 1.920 . S
Co1 O4 1.966 . S
Co1 N10 2.022 . S
Co1 N18 1.993 . S
Co1 O26 1.941 . S
C2 O3 1.258 . S
C2 O4 1.263 . S
O3 Co0 1.970 . S
O3 C2 1.258 . S
O4 Co1 1.966 . S
O4 C2 1.263 . S
C5 O6 1.235 . S
C5 O32 1.289 . S
O6 C5 1.235 . S
C7 C9 1.400 . S
C7 N10 1.351 . S
C7 C12 1.501 1_545 S
C8 C9 1.387 . S
C8 N11 1.341 . S
C9 C7 1.400 . S
C9 C8 1.387 . S
N10 Co1 2.022 . S
N10 C7 1.351 . S
N10 N11 1.365 . S
N11 C8 1.341 . S
N11 N10 1.365 . S
N11 H31 0.862 . S
C12 C7 1.501 1_565 S
C12 H13 0.961 1_565 S
C12 H14 0.961 . S
C12 H15 0.959 1_565 S
H13 C12 0.961 1_545 S
H14 C12 0.961 . S
H15 C12 0.959 1_545 S
C16 N17 1.342 . S
C16 C20 1.401 . S
C16 C21 1.499 . S
N17 Co0 1.989 . S
N17 C16 1.342 . S
N17 N18 1.388 . S
N18 Co1 1.993 . S
N18 N17 1.388 . S
N18 C19 1.346 . S
C19 N18 1.346 . S
C19 C20 1.396 . S
C19 C29 1.510 . S
C20 C16 1.401 . S
C20 C19 1.396 . S
C21 C16 1.499 . S
C21 H22 0.959 . S
C21 H23 0.960 1_545 S
C21 H24 0.961 . S
H22 C21 0.959 . S
H23 C21 0.960 1_565 S
H24 C21 0.961 . S
O25 Co0 1.967 . S
O25 C33 1.258 . S
O26 Co1 1.941 . S
O26 C33 1.266 . S
H27 C29 0.959 . S
H28 C29 0.961 1_565 S
C29 C19 1.510 . S
C29 H27 0.959 . S
C29 H28 0.961 1_545 S
C29 H30 0.960 . S
H30 C29 0.960 . S
H31 N11 0.862 . S
O32 Co0 1.920 . S
O32 C5 1.289 . S
C33 O25 1.258 . S
C33 O26 1.266 . S
Co34 O37 1.970 . S
Co34 N51 1.989 . S
Co34 O59 1.967 . S
Co34 O66 1.920 . S
Co35 O38 1.966 . S
Co35 N44 2.022 . S
Co35 N52 1.993 . S
Co35 O60 1.941 . S
C36 O37 1.258 1_655 S
C36 O38 1.263 1_655 S
O37 Co34 1.970 . S
O37 C36 1.258 1_455 S
O38 Co35 1.966 . S
O38 C36 1.263 1_455 S
C39 O40 1.235 . S
C39 O66 1.289 . S
O40 C39 1.235 . S
C41 C43 1.400 . S
C41 N44 1.351 . S
C41 C46 1.501 . S
C42 C43 1.387 . S
C42 N45 1.341 . S
C43 C41 1.400 . S
C43 C42 1.387 . S
N44 Co35 2.022 . S
N44 C41 1.351 . S
N44 N45 1.365 . S
N45 C42 1.341 . S
N45 N44 1.365 . S
N45 H65 0.862 . S
C46 C41 1.501 . S
C46 H47 0.961 . S
C46 H48 0.961 . S
C46 H49 0.960 . S
H47 C46 0.961 . S
H48 C46 0.961 . S
H49 C46 0.960 . S
C50 N51 1.342 . S
C50 C54 1.401 . S
C50 C55 1.499 . S
N51 Co34 1.989 . S
N51 C50 1.342 . S
N51 N52 1.388 . S
N52 Co35 1.993 . S
N52 N51 1.388 . S
N52 C53 1.346 . S
C53 N52 1.346 . S
C53 C54 1.396 . S
C53 C63 1.510 . S
C54 C50 1.401 . S
C54 C53 1.396 . S
C55 C50 1.499 . S
C55 H56 0.959 . S
C55 H57 0.960 . S
C55 H58 0.961 . S
H56 C55 0.959 . S
H57 C55 0.960 . S
H58 C55 0.961 . S
O59 Co34 1.967 . S
O59 C67 1.258 1_455 S
O60 Co35 1.941 . S
O60 C67 1.266 1_455 S
H61 C63 0.959 . S
H62 C63 0.961 . S
C63 C53 1.510 . S
C63 H61 0.959 . S
C63 H62 0.961 . S
C63 H64 0.960 . S
H64 C63 0.960 . S
H65 N45 0.862 . S
O66 Co34 1.920 . S
O66 C39 1.289 . S
C67 O59 1.258 1_655 S
C67 O60 1.266 1_655 S
Co68 O71 1.970 . S
Co68 N85 1.989 . S
Co68 O93 1.967 . S
Co68 O100 1.920 . S
Co69 O72 1.966 . S
Co69 N78 2.022 . S
Co69 N86 1.993 . S
Co69 O94 1.941 . S
C70 O71 1.258 1_565 S
C70 O72 1.263 1_565 S
O71 Co68 1.970 . S
O71 C70 1.258 1_545 S
O72 Co69 1.966 . S
O72 C70 1.263 1_545 S
C73 O74 1.235 . S
C73 O100 1.289 . S
O74 C73 1.235 . S
C75 C77 1.400 . S
C75 N78 1.351 . S
C75 C80 1.501 1_655 S
C76 C77 1.387 . S
C76 N79 1.341 . S
C77 C75 1.400 . S
C77 C76 1.387 . S
N78 Co69 2.022 . S
N78 C75 1.351 . S
N78 N79 1.365 . S
N79 C76 1.341 . S
N79 N78 1.365 . S
N79 H99 0.862 . S
C80 C75 1.501 1_455 S
C80 H81 0.961 1_455 S
C80 H82 0.961 . S
C80 H83 0.961 1_455 S
H81 C80 0.961 1_655 S
H82 C80 0.961 . S
H83 C80 0.961 1_655 S
C84 N85 1.342 . S
C84 C88 1.401 . S
C84 C89 1.499 . S
N85 Co68 1.989 . S
N85 C84 1.342 . S
N85 N86 1.388 . S
N86 Co69 1.993 . S
N86 N85 1.388 . S
N86 C87 1.346 . S
C87 N86 1.346 . S
C87 C88 1.396 . S
C87 C97 1.510 . S
C88 C84 1.401 . S
C88 C87 1.396 . S
C89 C84 1.499 . S
C89 H90 0.959 . S
C89 H91 0.960 1_655 S
C89 H92 0.961 . S
H90 C89 0.959 . S
H91 C89 0.960 1_455 S
H92 C89 0.961 . S
O93 Co68 1.967 . S
O93 C101 1.258 1_545 S
O94 Co69 1.941 . S
O94 C101 1.266 1_545 S
H95 C97 0.959 . S
H96 C97 0.961 1_455 S
C97 C87 1.510 . S
C97 H95 0.959 . S
C97 H96 0.961 1_655 S
C97 H98 0.960 . S
H98 C97 0.960 . S
H99 N79 0.862 . S
O100 Co68 1.920 . S
O100 C73 1.289 . S
C101 O93 1.258 1_565 S
C101 O94 1.266 1_565 S
Co102 O105 1.970 . S
Co102 N119 1.989 . S
Co102 O127 1.967 . S
Co102 O134 1.920 . S
Co103 O106 1.966 . S
Co103 N112 2.022 . S
Co103 N120 1.993 . S
Co103 O128 1.941 . S
C104 O105 1.258 . S
C104 O106 1.263 . S
O105 Co102 1.970 . S
O105 C104 1.258 . S
O106 Co103 1.966 . S
O106 C104 1.263 . S
C107 O108 1.235 . S
C107 O134 1.289 . S
O108 C107 1.235 . S
C109 C111 1.400 . S
C109 N112 1.351 . S
C109 C114 1.501 1_565 S
C110 C111 1.387 . S
C110 N113 1.341 . S
C111 C109 1.400 . S
C111 C110 1.387 . S
N112 Co103 2.022 . S
N112 C109 1.351 . S
N112 N113 1.365 . S
N113 C110 1.341 . S
N113 N112 1.365 . S
N113 H133 0.862 . S
C114 C109 1.501 1_545 S
C114 H115 0.961 1_545 S
C114 H116 0.961 . S
C114 H117 0.959 1_545 S
H115 C114 0.961 1_565 S
H116 C114 0.961 . S
H117 C114 0.959 1_565 S
C118 N119 1.342 . S
C118 C122 1.401 . S
C118 C123 1.499 . S
N119 Co102 1.989 . S
N119 C118 1.342 . S
N119 N120 1.388 . S
N120 Co103 1.993 . S
N120 N119 1.388 . S
N120 C121 1.346 . S
C121 N120 1.346 . S
C121 C122 1.396 . S
C121 C131 1.510 . S
C122 C118 1.401 . S
C122 C121 1.396 . S
C123 C118 1.499 . S
C123 H124 0.959 . S
C123 H125 0.960 1_565 S
C123 H126 0.961 . S
H124 C123 0.959 . S
H125 C123 0.960 1_545 S
H126 C123 0.961 . S
O127 Co102 1.967 . S
O127 C135 1.258 . S
O128 Co103 1.941 . S
O128 C135 1.266 . S
H129 C131 0.959 . S
H130 C131 0.961 1_545 S
C131 C121 1.510 . S
C131 H129 0.959 . S
C131 H130 0.961 1_565 S
C131 H132 0.960 . S
H132 C131 0.960 . S
H133 N113 0.862 . S
O134 Co102 1.920 . S
O134 C107 1.289 . S
C135 O127 1.258 . S
C135 O128 1.266 . S
Co136 O139 1.970 . S
Co136 N153 1.989 . S
Co136 O161 1.967 . S
Co136 O168 1.920 . S
Co137 O140 1.966 . S
Co137 N146 2.022 . S
Co137 N154 1.993 . S
Co137 O162 1.941 . S
C138 O139 1.258 1_455 S
C138 O140 1.263 1_455 S
O139 Co136 1.970 . S
O139 C138 1.258 1_655 S
O140 Co137 1.966 . S
O140 C138 1.263 1_655 S
C141 O142 1.235 . S
C141 O168 1.289 . S
O142 C141 1.235 . S
C143 C145 1.400 . S
C143 N146 1.351 . S
C143 C148 1.501 . S
C144 C145 1.387 . S
C144 N147 1.341 . S
C145 C143 1.400 . S
C145 C144 1.387 . S
N146 Co137 2.022 . S
N146 C143 1.351 . S
N146 N147 1.365 . S
N147 C144 1.341 . S
N147 N146 1.365 . S
N147 H167 0.862 . S
C148 C143 1.501 . S
C148 H149 0.961 . S
C148 H150 0.961 . S
C148 H151 0.960 . S
H149 C148 0.961 . S
H150 C148 0.961 . S
H151 C148 0.960 . S
C152 N153 1.342 . S
C152 C156 1.401 . S
C152 C157 1.499 . S
N153 Co136 1.989 . S
N153 C152 1.342 . S
N153 N154 1.388 . S
N154 Co137 1.993 . S
N154 N153 1.388 . S
N154 C155 1.346 . S
C155 N154 1.346 . S
C155 C156 1.396 . S
C155 C165 1.510 . S
C156 C152 1.401 . S
C156 C155 1.396 . S
C157 C152 1.499 . S
C157 H158 0.959 . S
C157 H159 0.960 . S
C157 H160 0.961 . S
H158 C157 0.959 . S
H159 C157 0.960 . S
H160 C157 0.961 . S
O161 Co136 1.967 . S
O161 C169 1.258 1_655 S
O162 Co137 1.941 . S
O162 C169 1.266 1_655 S
H163 C165 0.959 . S
H164 C165 0.961 . S
C165 C155 1.510 . S
C165 H163 0.959 . S
C165 H164 0.961 . S
C165 H166 0.960 . S
H166 C165 0.960 . S
H167 N147 0.862 . S
O168 Co136 1.920 . S
O168 C141 1.289 . S
C169 O161 1.258 1_455 S
C169 O162 1.266 1_455 S
Co170 O173 1.970 . S
Co170 N187 1.989 . S
Co170 O195 1.967 . S
Co170 O202 1.920 . S
Co171 O174 1.966 . S
Co171 N180 2.022 . S
Co171 N188 1.993 . S
Co171 O196 1.941 . S
C172 O173 1.258 1_545 S
C172 O174 1.263 1_545 S
O173 Co170 1.970 . S
O173 C172 1.258 1_565 S
O174 Co171 1.966 . S
O174 C172 1.263 1_565 S
C175 O176 1.235 . S
C175 O202 1.289 . S
O176 C175 1.235 . S
C177 C179 1.400 . S
C177 N180 1.351 . S
C177 C182 1.501 1_455 S
C178 C179 1.387 . S
C178 N181 1.341 . S
C179 C177 1.400 . S
C179 C178 1.387 . S
N180 Co171 2.022 . S
N180 C177 1.351 . S
N180 N181 1.365 . S
N181 C178 1.341 . S
N181 N180 1.365 . S
N181 H201 0.862 . S
C182 C177 1.501 1_655 S
C182 H183 0.961 1_655 S
C182 H184 0.961 . S
C182 H185 0.961 1_655 S
H183 C182 0.961 1_455 S
H184 C182 0.961 . S
H185 C182 0.961 1_455 S
C186 N187 1.342 . S
C186 C190 1.401 . S
C186 C191 1.499 . S
N187 Co170 1.989 . S
N187 C186 1.342 . S
N187 N188 1.388 . S
N188 Co171 1.993 . S
N188 N187 1.388 . S
N188 C189 1.346 . S
C189 N188 1.346 . S
C189 C190 1.396 . S
C189 C199 1.510 . S
C190 C186 1.401 . S
C190 C189 1.396 . S
C191 C186 1.499 . S
C191 H192 0.959 . S
C191 H193 0.960 1_455 S
C191 H194 0.961 . S
H192 C191 0.959 . S
H193 C191 0.960 1_655 S
H194 C191 0.961 . S
O195 Co170 1.967 . S
O195 C203 1.258 1_565 S
O196 Co171 1.941 . S
O196 C203 1.266 1_565 S
H197 C199 0.959 . S
H198 C199 0.961 1_655 S
C199 C189 1.510 . S
C199 H197 0.959 . S
C199 H198 0.961 1_455 S
C199 H200 0.960 . S
H200 C199 0.960 . S
H201 N181 0.862 . S
O202 Co170 1.920 . S
O202 C175 1.289 . S
C203 O195 1.258 1_545 S
C203 O196 1.266 1_545 S
Co204 O207 1.970 . S
Co204 N221 1.989 . S
Co204 O229 1.967 . S
Co204 O236 1.920 . S
Co205 O208 1.966 . S
Co205 N214 2.022 . S
Co205 N222 1.993 . S
Co205 O230 1.941 . S
C206 O207 1.258 . S
C206 O208 1.263 . S
O207 Co204 1.970 . S
O207 C206 1.258 . S
O208 Co205 1.966 . S
O208 C206 1.263 . S
C209 O210 1.235 . S
C209 O236 1.289 . S
O210 C209 1.235 . S
C211 C213 1.400 . S
C211 N214 1.351 . S
C211 C216 1.501 1_655 S
C212 C213 1.387 . S
C212 N215 1.341 . S
C213 C211 1.400 . S
C213 C212 1.387 . S
N214 Co205 2.022 . S
N214 C211 1.351 . S
N214 N215 1.365 . S
N215 C212 1.341 . S
N215 N214 1.365 . S
N215 H235 0.862 . S
C216 C211 1.501 1_455 S
C216 H217 0.961 1_455 S
C216 H218 0.961 . S
C216 H219 0.959 1_455 S
H217 C216 0.961 1_655 S
H218 C216 0.961 . S
H219 C216 0.959 1_655 S
C220 N221 1.342 . S
C220 C224 1.401 . S
C220 C225 1.499 . S
N221 Co204 1.989 . S
N221 C220 1.342 . S
N221 N222 1.388 . S
N222 Co205 1.993 . S
N222 N221 1.388 . S
N222 C223 1.346 . S
C223 N222 1.346 . S
C223 C224 1.396 . S
C223 C233 1.510 . S
C224 C220 1.401 . S
C224 C223 1.396 . S
C225 C220 1.499 . S
C225 H226 0.959 . S
C225 H227 0.960 1_655 S
C225 H228 0.961 . S
H226 C225 0.959 . S
H227 C225 0.960 1_455 S
H228 C225 0.961 . S
O229 Co204 1.967 . S
O229 C237 1.258 . S
O230 Co205 1.941 . S
O230 C237 1.266 . S
H231 C233 0.959 . S
H232 C233 0.961 1_455 S
C233 C223 1.510 . S
C233 H231 0.959 . S
C233 H232 0.961 1_655 S
C233 H234 0.960 . S
H234 C233 0.960 . S
H235 N215 0.862 . S
O236 Co204 1.920 . S
O236 C209 1.289 . S
C237 O229 1.258 . S
C237 O230 1.266 . S
Co238 O241 1.970 . S
Co238 N255 1.989 . S
Co238 O263 1.967 . S
Co238 O270 1.920 . S
Co239 O242 1.966 . S
Co239 N248 2.022 . S
Co239 N256 1.993 . S
Co239 O264 1.941 . S
C240 O241 1.258 1_655 S
C240 O242 1.263 1_655 S
O241 Co238 1.970 . S
O241 C240 1.258 1_455 S
O242 Co239 1.966 . S
O242 C240 1.263 1_455 S
C243 O244 1.235 . S
C243 O270 1.289 . S
O244 C243 1.235 . S
C245 C247 1.400 . S
C245 N248 1.351 . S
C245 C250 1.501 1_565 S
C246 C247 1.387 . S
C246 N249 1.341 . S
C247 C245 1.400 . S
C247 C246 1.387 . S
N248 Co239 2.022 . S
N248 C245 1.351 . S
N248 N249 1.365 . S
N249 C246 1.341 . S
N249 N248 1.365 . S
N249 H269 0.862 . S
C250 C245 1.501 1_545 S
C250 H251 0.961 1_545 S
C250 H252 0.961 . S
C250 H253 0.961 1_545 S
H251 C250 0.961 1_565 S
H252 C250 0.961 . S
H253 C250 0.961 1_565 S
C254 N255 1.342 . S
C254 C258 1.401 . S
C254 C259 1.499 . S
N255 Co238 1.989 . S
N255 C254 1.342 . S
N255 N256 1.388 . S
N256 Co239 1.993 . S
N256 N255 1.388 . S
N256 C257 1.346 . S
C257 N256 1.346 . S
C257 C258 1.396 . S
C257 C267 1.510 . S
C258 C254 1.401 . S
C258 C257 1.396 . S
C259 C254 1.499 . S
C259 H260 0.959 . S
C259 H261 0.960 1_565 S
C259 H262 0.961 . S
H260 C259 0.959 . S
H261 C259 0.960 1_545 S
H262 C259 0.961 . S
O263 Co238 1.967 . S
O263 C271 1.258 1_455 S
O264 Co239 1.941 . S
O264 C271 1.266 1_455 S
H265 C267 0.959 . S
H266 C267 0.961 1_545 S
C267 C257 1.510 . S
C267 H265 0.959 . S
C267 H266 0.961 1_565 S
C267 H268 0.960 . S
H268 C267 0.960 . S
H269 N249 0.862 . S
O270 Co238 1.920 . S
O270 C243 1.289 . S
C271 O263 1.258 1_655 S
C271 O264 1.266 1_655 S
Co272 O275 1.970 . S
Co272 N289 1.989 . S
Co272 O297 1.967 . S
Co272 O304 1.920 . S
Co273 O276 1.966 . S
Co273 N282 2.022 . S
Co273 N290 1.993 . S
Co273 O298 1.941 . S
C274 O275 1.258 1_565 S
C274 O276 1.263 1_565 S
O275 Co272 1.970 . S
O275 C274 1.258 1_545 S
O276 Co273 1.966 . S
O276 C274 1.263 1_545 S
C277 O278 1.235 . S
C277 O304 1.289 . S
O278 C277 1.235 . S
C279 C281 1.400 . S
C279 N282 1.351 . S
C279 C284 1.501 . S
C280 C281 1.387 . S
C280 N283 1.341 . S
C281 C279 1.400 . S
C281 C280 1.387 . S
N282 Co273 2.022 . S
N282 C279 1.351 . S
N282 N283 1.365 . S
N283 C280 1.341 . S
N283 N282 1.365 . S
N283 H303 0.862 . S
C284 C279 1.501 . S
C284 H285 0.961 . S
C284 H286 0.961 . S
C284 H287 0.960 . S
H285 C284 0.961 . S
H286 C284 0.961 . S
H287 C284 0.960 . S
C288 N289 1.342 . S
C288 C292 1.401 . S
C288 C293 1.499 . S
N289 Co272 1.989 . S
N289 C288 1.342 . S
N289 N290 1.388 . S
N290 Co273 1.993 . S
N290 N289 1.388 . S
N290 C291 1.346 . S
C291 N290 1.346 . S
C291 C292 1.396 . S
C291 C301 1.510 . S
C292 C288 1.401 . S
C292 C291 1.396 . S
C293 C288 1.499 . S
C293 H294 0.959 . S
C293 H295 0.960 . S
C293 H296 0.961 . S
H294 C293 0.959 . S
H295 C293 0.960 . S
H296 C293 0.961 . S
O297 Co272 1.967 . S
O297 C305 1.258 1_545 S
O298 Co273 1.941 . S
O298 C305 1.266 1_545 S
H299 C301 0.959 . S
H300 C301 0.961 . S
C301 C291 1.510 . S
C301 H299 0.959 . S
C301 H300 0.961 . S
C301 H302 0.960 . S
H302 C301 0.960 . S
H303 N283 0.862 . S
O304 Co272 1.920 . S
O304 C277 1.289 . S
C305 O297 1.258 1_565 S
C305 O298 1.266 1_565 S
Co306 O309 1.970 . S
Co306 N323 1.989 . S
Co306 O331 1.967 . S
Co306 O338 1.920 . S
Co307 O310 1.966 . S
Co307 N316 2.022 . S
Co307 N324 1.993 . S
Co307 O332 1.941 . S
C308 O309 1.258 . S
C308 O310 1.263 . S
O309 Co306 1.970 . S
O309 C308 1.258 . S
O310 Co307 1.966 . S
O310 C308 1.263 . S
C311 O312 1.235 . S
C311 O338 1.289 . S
O312 C311 1.235 . S
C313 C315 1.400 . S
C313 N316 1.351 . S
C313 C318 1.501 1_455 S
C314 C315 1.387 . S
C314 N317 1.341 . S
C315 C313 1.400 . S
C315 C314 1.387 . S
N316 Co307 2.022 . S
N316 C313 1.351 . S
N316 N317 1.365 . S
N317 C314 1.341 . S
N317 N316 1.365 . S
N317 H337 0.862 . S
C318 C313 1.501 1_655 S
C318 H319 0.961 1_655 S
C318 H320 0.961 . S
C318 H321 0.959 1_655 S
H319 C318 0.961 1_455 S
H320 C318 0.961 . S
H321 C318 0.959 1_455 S
C322 N323 1.342 . S
C322 C326 1.401 . S
C322 C327 1.499 . S
N323 Co306 1.989 . S
N323 C322 1.342 . S
N323 N324 1.388 . S
N324 Co307 1.993 . S
N324 N323 1.388 . S
N324 C325 1.346 . S
C325 N324 1.346 . S
C325 C326 1.396 . S
C325 C335 1.510 . S
C326 C322 1.401 . S
C326 C325 1.396 . S
C327 C322 1.499 . S
C327 H328 0.959 . S
C327 H329 0.960 1_455 S
C327 H330 0.961 . S
H328 C327 0.959 . S
H329 C327 0.960 1_655 S
H330 C327 0.961 . S
O331 Co306 1.967 . S
O331 C339 1.258 . S
O332 Co307 1.941 . S
O332 C339 1.266 . S
H333 C335 0.959 . S
H334 C335 0.961 1_655 S
C335 C325 1.510 . S
C335 H333 0.959 . S
C335 H334 0.961 1_455 S
C335 H336 0.960 . S
H336 C335 0.960 . S
H337 N317 0.862 . S
O338 Co306 1.920 . S
O338 C311 1.289 . S
C339 O331 1.258 . S
C339 O332 1.266 . S
Co340 O343 1.970 . S
Co340 N357 1.989 . S
Co340 O365 1.967 . S
Co340 O372 1.920 . S
Co341 O344 1.966 . S
Co341 N350 2.022 . S
Co341 N358 1.993 . S
Co341 O366 1.941 . S
C342 O343 1.258 1_455 S
C342 O344 1.263 1_455 S
O343 Co340 1.970 . S
O343 C342 1.258 1_655 S
O344 Co341 1.966 . S
O344 C342 1.263 1_655 S
C345 O346 1.235 . S
C345 O372 1.289 . S
O346 C345 1.235 . S
C347 C349 1.400 . S
C347 N350 1.351 . S
C347 C352 1.501 1_545 S
C348 C349 1.387 . S
C348 N351 1.341 . S
C349 C347 1.400 . S
C349 C348 1.387 . S
N350 Co341 2.022 . S
N350 C347 1.351 . S
N350 N351 1.365 . S
N351 C348 1.341 . S
N351 N350 1.365 . S
N351 H371 0.862 . S
C352 C347 1.501 1_565 S
C352 H353 0.961 1_565 S
C352 H354 0.961 . S
C352 H355 0.961 1_565 S
H353 C352 0.961 1_545 S
H354 C352 0.961 . S
H355 C352 0.961 1_545 S
C356 N357 1.342 . S
C356 C360 1.401 . S
C356 C361 1.499 . S
N357 Co340 1.989 . S
N357 C356 1.342 . S
N357 N358 1.388 . S
N358 Co341 1.993 . S
N358 N357 1.388 . S
N358 C359 1.346 . S
C359 N358 1.346 . S
C359 C360 1.396 . S
C359 C369 1.510 . S
C360 C356 1.401 . S
C360 C359 1.396 . S
C361 C356 1.499 . S
C361 H362 0.959 . S
C361 H363 0.960 1_545 S
C361 H364 0.961 . S
H362 C361 0.959 . S
H363 C361 0.960 1_565 S
H364 C361 0.961 . S
O365 Co340 1.967 . S
O365 C373 1.258 1_655 S
O366 Co341 1.941 . S
O366 C373 1.266 1_655 S
H367 C369 0.959 . S
H368 C369 0.961 1_565 S
C369 C359 1.510 . S
C369 H367 0.959 . S
C369 H368 0.961 1_545 S
C369 H370 0.960 . S
H370 C369 0.960 . S
H371 N351 0.862 . S
O372 Co340 1.920 . S
O372 C345 1.289 . S
C373 O365 1.258 1_455 S
C373 O366 1.266 1_455 S
Co374 O377 1.970 . S
Co374 N391 1.989 . S
Co374 O399 1.967 . S
Co374 O406 1.920 . S
Co375 O378 1.966 . S
Co375 N384 2.022 . S
Co375 N392 1.993 . S
Co375 O400 1.941 . S
C376 O377 1.258 1_545 S
C376 O378 1.263 1_545 S
O377 Co374 1.970 . S
O377 C376 1.258 1_565 S
O378 Co375 1.966 . S
O378 C376 1.263 1_565 S
C379 O380 1.235 . S
C379 O406 1.289 . S
O380 C379 1.235 . S
C381 C383 1.400 . S
C381 N384 1.351 . S
C381 C386 1.501 . S
C382 C383 1.387 . S
C382 N385 1.341 . S
C383 C381 1.400 . S
C383 C382 1.387 . S
N384 Co375 2.022 . S
N384 C381 1.351 . S
N384 N385 1.365 . S
N385 C382 1.341 . S
N385 N384 1.365 . S
N385 H405 0.862 . S
C386 C381 1.501 . S
C386 H387 0.961 . S
C386 H388 0.961 . S
C386 H389 0.960 . S
H387 C386 0.961 . S
H388 C386 0.961 . S
H389 C386 0.960 . S
C390 N391 1.342 . S
C390 C394 1.401 . S
C390 C395 1.499 . S
N391 Co374 1.989 . S
N391 C390 1.342 . S
N391 N392 1.388 . S
N392 Co375 1.993 . S
N392 N391 1.388 . S
N392 C393 1.346 . S
C393 N392 1.346 . S
C393 C394 1.396 . S
C393 C403 1.510 . S
C394 C390 1.401 . S
C394 C393 1.396 . S
C395 C390 1.499 . S
C395 H396 0.959 . S
C395 H397 0.960 . S
C395 H398 0.961 . S
H396 C395 0.959 . S
H397 C395 0.960 . S
H398 C395 0.961 . S
O399 Co374 1.967 . S
O399 C407 1.258 1_565 S
O400 Co375 1.941 . S
O400 C407 1.266 1_565 S
H401 C403 0.959 . S
H402 C403 0.961 . S
C403 C393 1.510 . S
C403 H401 0.959 . S
C403 H402 0.961 . S
C403 H404 0.960 . S
H404 C403 0.960 . S
H405 N385 0.862 . S
O406 Co374 1.920 . S
O406 C379 1.289 . S
C407 O399 1.258 1_545 S
C407 O400 1.266 1_545 S
C9 C247 1.496 1_544 S
C43 C281 1.496 . S
C77 C315 1.496 1_655 S
C349 C111 1.496 1_546 S
C383 C145 1.496 . S
C179 C213 1.496 1_455 S
C122 C20 0.669 1_565 S
C54 C156 0.670 . S
C190 C88 0.669 1_455 S
C326 C224 0.669 1_455 S
C360 C258 0.669 1_545 S
C292 C394 0.670 . S
C277 C5 1.534 . S
C39 C311 1.534 . S
C73 C345 1.534 . S
C107 C379 1.534 . S
C141 C209 1.534 . S
C243 C175 1.534 . S
C135 C33 2.675 . S
C67 C169 2.675 1_655 S
C203 C101 2.675 1_545 S
C237 C339 2.675 . S
C271 C373 2.675 1_655 S
C407 C305 2.675 1_545 S
C2 C104 2.307 1_445 S
C36 C138 2.307 1_645 S
C70 C172 2.307 1_665 S
C206 C308 2.307 1_665 S
C342 C240 2.307 1_445 S
C274 C376 2.307 1_465 S
