# Generated by pormake.
# Topology vcn, (7)-cn, num edge types: 1
# Building blocks:
#     Node 0, Type 0, BuildingBlock: HICVOG_clean_sbu_0, # of connection points: 7
#     Node 1, Type 0, BuildingBlock: HICVOG_clean_sbu_0, # of connection points: 7
#     Node 2, Type 0, BuildingBlock: HICVOG_clean_sbu_0, # of connection points: 7
#     Node 3, Type 0, BuildingBlock: HICVOG_clean_sbu_0, # of connection points: 7
#     Node 4, Type 0, BuildingBlock: HICVOG_clean_sbu_0, # of connection points: 7
#     Node 5, Type 0, BuildingBlock: HICVOG_clean_sbu_0, # of connection points: 7
#     Node 6, Type 0, BuildingBlock: HICVOG_clean_sbu_0, # of connection points: 7
#     Node 7, Type 0, BuildingBlock: HICVOG_clean_sbu_0, # of connection points: 7
#     Edge 8, Type (0, 0), BuildingBlock: OJICUG_clean_linker_0, # of connection points: 2
#     Edge 9, Type (0, 0), BuildingBlock: OJICUG_clean_linker_0, # of connection points: 2
#     Edge 10, Type (0, 0), BuildingBlock: OJICUG_clean_linker_0, # of connection points: 2
#     Edge 11, Type (0, 0), BuildingBlock: OJICUG_clean_linker_0, # of connection points: 2
#     Edge 12, Type (0, 0), BuildingBlock: OJICUG_clean_linker_0, # of connection points: 2
#     Edge 13, Type (0, 0), BuildingBlock: OJICUG_clean_linker_0, # of connection points: 2
#     Edge 14, Type (0, 0), BuildingBlock: OJICUG_clean_linker_0, # of connection points: 2
#     Edge 15, Type (0, 0), BuildingBlock: OJICUG_clean_linker_0, # of connection points: 2
#     Edge 16, Type (0, 0), BuildingBlock: OJICUG_clean_linker_0, # of connection points: 2
#     Edge 17, Type (0, 0), BuildingBlock: OJICUG_clean_linker_0, # of connection points: 2
#     Edge 18, Type (0, 0), BuildingBlock: OJICUG_clean_linker_0, # of connection points: 2
#     Edge 19, Type (0, 0), BuildingBlock: OJICUG_clean_linker_0, # of connection points: 2
#     Edge 20, Type (0, 0), BuildingBlock: OJICUG_clean_linker_0, # of connection points: 2
#     Edge 21, Type (0, 0), BuildingBlock: OJICUG_clean_linker_0, # of connection points: 2
#     Edge 22, Type (0, 0), BuildingBlock: OJICUG_clean_linker_0, # of connection points: 2
#     Edge 23, Type (0, 0), BuildingBlock: OJICUG_clean_linker_0, # of connection points: 2
#     Edge 24, Type (0, 0), BuildingBlock: OJICUG_clean_linker_0, # of connection points: 2
#     Edge 25, Type (0, 0), BuildingBlock: OJICUG_clean_linker_0, # of connection points: 2
#     Edge 26, Type (0, 0), BuildingBlock: OJICUG_clean_linker_0, # of connection points: 2
#     Edge 27, Type (0, 0), BuildingBlock: OJICUG_clean_linker_0, # of connection points: 2
#     Edge 28, Type (0, 0), BuildingBlock: OJICUG_clean_linker_0, # of connection points: 2
#     Edge 29, Type (0, 0), BuildingBlock: OJICUG_clean_linker_0, # of connection points: 2
#     Edge 30, Type (0, 0), BuildingBlock: OJICUG_clean_linker_0, # of connection points: 2
#     Edge 31, Type (0, 0), BuildingBlock: OJICUG_clean_linker_0, # of connection points: 2
#     Edge 32, Type (0, 0), BuildingBlock: OJICUG_clean_linker_0, # of connection points: 2
#     Edge 33, Type (0, 0), BuildingBlock: OJICUG_clean_linker_0, # of connection points: 2
#     Edge 34, Type (0, 0), BuildingBlock: OJICUG_clean_linker_0, # of connection points: 2
#     Edge 35, Type (0, 0), BuildingBlock: OJICUG_clean_linker_0, # of connection points: 2
# Relax obj value: 0.244
# Max RMSD: 0.225
# Mean RMSD: 0.225
data_MOF--net-vcn--node1-HICVOG_clean_sbu_0--edge1-OJICUG_clean_linker_0
_symmetry_space_group_name_H-M    P1
_symmetry_Int_Tables_number       1
_symmetry_cell_setting            triclinic
loop_
_symmetry_equiv_pos_as_xyz
'x, y, z'
_cell_length_a     32.118342
_cell_length_b     48.420508
_cell_length_c     10.360756
_cell_angle_alpha  90.002294
_cell_angle_beta   89.981576
_cell_angle_gamma 90.004733
loop_
_atom_site_label
_atom_site_type_symbol
_atom_site_fract_x
_atom_site_fract_y
_atom_site_fract_z
_atom_type_partial_charge
Zn0 Zn 0.13127 0.38898 0.25307 0.0
C1 C 0.1239 0.31958 0.09798 0.0
N2 N 0.13622 0.3339 0.99364 0.0
C3 C 0.1245 0.35995 1.01934 0.0
N4 N 0.10716 0.36165 0.13795 0.0
N5 N 0.1048 0.33624 0.18503 0.0
C6 C 0.09792 0.28216 0.47393 0.0
O7 O 0.13118 0.29735 0.49332 0.0
O8 O 0.13506 0.42704 0.17374 0.0
Zn9 Zn 0.06266 0.32888 0.31828 0.0
N10 N 0.18579 0.37559 0.30506 0.0
C11 C 0.21825 0.3452 0.455 0.0
C12 C 0.18273 0.35513 0.39434 0.0
C13 C 0.22361 0.38615 0.27079 0.0
N14 N 0.25579 0.35589 0.42285 0.0
C15 C 0.25979 0.37603 0.33204 0.0
O16 O 0.06684 0.3554 0.47223 0.0
C17 C 0.08245 0.3786 0.50537 0.0
O18 O 0.10366 0.39311 0.42686 0.0
H19 H 0.15257 0.3471 0.4205 0.0
H20 H 0.22538 0.40255 0.19998 0.0
C21 C 0.96992 0.33289 0.28475 0.0
C22 C 0.93359 0.33136 0.20702 0.0
C23 C 0.976 0.32395 1.02266 0.0
C24 C 1.01136 0.32541 0.0989 0.0
N25 N 1.0082 0.32978 0.22841 0.0
N26 N 0.93823 0.32692 0.07816 0.0
H27 H 0.96786 0.33595 0.38796 0.0
C28 C 0.10148 0.43994 0.14933 0.0
O29 O 0.06579 0.42719 0.16658 0.0
O30 O 0.06856 0.29122 0.40291 0.0
H31 H 0.04118 0.32261 0.05375 0.0
H32 H 0.21604 0.32919 0.5275 0.0
H33 H 0.97849 0.3204 0.91984 0.0
Zn34 Zn 0.5349 0.62307 0.57869 0.0
C35 C 0.59595 0.68746 0.43392 0.0
N36 N 0.58843 0.6753 0.32011 0.0
C37 C 0.57413 0.65036 0.35509 0.0
N38 N 0.57213 0.6475 0.48464 0.0
N39 N 0.58715 0.67066 0.53419 0.0
C40 C 0.58237 0.71714 0.8034 0.0
O41 O 0.55003 0.70133 0.77945 0.0
O42 O 0.53799 0.58448 0.50775 0.0
Zn43 Zn 0.62234 0.67109 0.68687 0.0
N44 N 0.478 0.63669 0.55798 0.0
C45 C 0.4305 0.66603 0.44682 0.0
C46 C 0.47088 0.65681 0.46908 0.0
C47 C 0.44617 0.62637 0.63064 0.0
N48 N 0.3988 0.65559 0.51801 0.0
C49 C 0.40531 0.63618 0.61082 0.0
O50 O 0.60304 0.64452 0.82442 0.0
C51 C 0.57439 0.6273 0.852 0.0
O52 O 0.54679 0.62 0.77064 0.0
H53 H 0.49622 0.66575 0.41536 0.0
H54 H 0.45266 0.61075 0.70257 0.0
C55 C 0.71551 0.6681 0.70046 0.0
C56 C 0.75497 0.66093 0.64821 0.0
C57 C 0.72098 0.64248 0.46373 0.0
C58 C 0.68248 0.64903 0.51647 0.0
N59 N 0.68004 0.66214 0.63238 0.0
N60 N 0.75603 0.6485 0.53043 0.0
H61 H 0.71298 0.67834 0.79291 0.0
C62 C 0.57166 0.57098 0.52035 0.0
O63 O 0.60409 0.58326 0.57221 0.0
O64 O 0.61847 0.70891 0.76995 0.0
H65 H 0.65471 0.64355 0.46444 0.0
H66 H 0.42443 0.68171 0.37484 0.0
H67 H 0.72303 0.63235 0.37087 0.0
Zn68 Zn 0.04762 0.65847 0.86529 0.0
C69 C 0.09174 0.63603 0.19793 0.0
N70 N 0.07713 0.66086 0.23374 0.0
C71 C 0.07142 0.67368 0.12053 0.0
N72 N 0.08161 0.65736 1.01991 0.0
N73 N 0.09571 0.63384 0.06838 0.0
C74 C 0.10209 0.5567 0.02527 0.0
O75 O 0.06952 0.56786 0.96897 0.0
O76 O 0.05256 0.69602 0.78136 0.0
Zn77 Zn 0.13468 0.61048 0.97424 0.0
N78 N 0.9896 0.65027 0.91629 0.0
C79 C 0.94731 0.62723 0.07158 0.0
C80 C 0.98627 0.63374 1.02188 0.0
C81 C 0.95468 0.65995 0.85545 0.0
N82 N 0.91274 0.63682 1.01179 0.0
C83 C 0.91472 0.65288 0.9041 0.0
O84 O 0.12275 0.60691 0.78189 0.0
C85 C 0.09489 0.61415 0.70122 0.0
O86 O 0.06654 0.63155 0.7292 0.0
H87 H 0.01374 0.62559 0.06783 0.0
H88 H 0.95808 0.67302 0.77146 0.0
C89 C 0.22301 0.61851 0.91875 0.0
C90 C 0.26271 0.63017 0.93997 0.0
C91 C 0.23487 0.65675 0.11185 0.0
C92 C 0.19561 0.64574 0.08845 0.0
N93 N 0.19041 0.62629 0.99507 0.0
N94 N 0.26735 0.64877 0.03734 0.0
H95 H 0.21806 0.6035 0.84291 0.0
C96 C 0.0885 0.70404 0.74539 0.0
O97 O 0.12096 0.68833 0.76906 0.0
O98 O 0.1342 0.57152 0.04432 0.0
H99 H 0.16957 0.65283 0.14481 0.0
H100 H 0.9445 0.61434 0.15642 0.0
H101 H 0.2394 0.67188 0.18738 0.0
Zn102 Zn 0.63769 0.3505 0.21311 0.0
C103 C 0.56919 0.37515 0.51177 0.0
N104 N 0.56431 0.34817 0.53778 0.0
C105 C 0.58143 0.3356 0.43532 0.0
N106 N 0.59669 0.35403 0.34991 0.0
N107 N 0.58681 0.37877 0.39477 0.0
C108 C 0.5808 0.45562 0.3773 0.0
O109 O 0.61727 0.44491 0.34956 0.0
O110 O 0.64252 0.31089 0.15064 0.0
Zn111 Zn 0.55729 0.40353 0.27974 0.0
N112 N 0.69057 0.3639 0.28293 0.0
C113 C 0.72353 0.40008 0.40003 0.0
C114 C 0.68823 0.38869 0.34378 0.0
C115 C 0.72754 0.35014 0.27381 0.0
N116 N 0.76038 0.38666 0.3898 0.0
C117 C 0.76403 0.36202 0.32733 0.0
O118 O 0.58273 0.40965 0.10437 0.0
C119 C 0.60432 0.39586 1.02412 0.0
O120 O 0.62319 0.37372 0.05608 0.0
H121 H 0.65902 0.39953 0.34868 0.0
H122 H 0.72811 0.33036 0.22561 0.0
C123 C 0.46593 0.39424 0.26282 0.0
C124 C 0.43166 0.38061 0.20597 0.0
C125 C 0.47807 0.3506 0.096 0.0
C126 C 0.51171 0.36398 0.15232 0.0
N127 N 0.50526 0.3857 0.23297 0.0
N128 N 0.43899 0.35924 0.12371 0.0
H129 H 0.46146 0.41167 0.32675 0.0
C130 C 0.61728 0.30132 0.06695 0.0
O131 O 0.58736 0.31723 1.02312 0.0
O132 O 0.54833 0.44106 0.35985 0.0
H133 H 0.54303 0.35757 0.12962 0.0
H134 H 0.72184 0.41969 0.44985 0.0
H135 H 0.48293 0.33352 0.03037 0.0
Zn136 Zn 0.63478 0.89419 0.07504 0.0
C137 C 0.57131 0.83102 0.92893 0.0
N138 N 0.57684 0.84389 0.81573 0.0
C139 C 0.59162 0.86867 0.85146 0.0
N140 N 0.5959 0.87077 0.98093 0.0
N141 N 0.58177 0.84727 0.02956 0.0
C142 C 0.58855 0.80065 0.30385 0.0
O143 O 0.62099 0.81638 0.28005 0.0
O144 O 0.63426 0.93313 1.0049 0.0
Zn145 Zn 0.54771 0.84621 0.18412 0.0
N146 N 0.69052 0.87842 0.05414 0.0
C147 C 0.735 0.84799 0.93724 0.0
C148 C 0.69573 0.85898 0.96071 0.0
C149 C 0.72312 0.8862 0.13045 0.0
N150 N 0.76748 0.85596 1.01174 0.0
C151 C 0.76282 0.87455 0.10917 0.0
O152 O 0.56663 0.87313 0.32018 0.0
C153 C 0.59497 0.89053 0.34813 0.0
O154 O 0.62284 0.89777 0.26744 0.0
H155 H 0.6697 0.85189 0.90439 0.0
H156 H 0.71815 0.9012 0.20634 0.0
C157 C 0.45476 0.84473 0.19368 0.0
C158 C 0.41483 0.85186 0.1451 0.0
C159 C 0.44751 0.87763 0.97811 0.0
C160 C 0.48644 0.87107 0.02779 0.0
N161 N 0.48972 0.85445 0.13308 0.0
N162 N 0.41291 0.868 0.03767 0.0
H163 H 0.45812 0.8316 0.27746 0.0
C164 C 0.60216 0.94795 1.02414 0.0
O165 O 0.5696 0.93679 0.0806 0.0
O166 O 0.55259 0.80866 0.26809 0.0
H167 H 0.51394 0.87925 0.98207 0.0
H168 H 0.73954 0.83286 0.86167 0.0
H169 H 0.44475 0.89059 0.89348 0.0
Zn170 Zn 0.05747 0.10115 0.77072 0.0
C171 C 0.08153 0.16908 0.61509 0.0
N172 N 0.06449 0.15649 0.51256 0.0
C173 C 0.06936 0.12951 0.5386 0.0
N174 N 0.08693 0.12594 0.65563 0.0
N175 N 0.09673 0.15067 0.70069 0.0
C176 C 0.11741 0.20337 0.98337 0.0
O177 O 0.08751 0.18744 0.02728 0.0
O178 O 0.04853 0.06362 0.69052 0.0
Zn179 Zn 0.13782 0.1542 0.83716 0.0
N180 N 1.00543 0.11895 0.81771 0.0
C181 C 0.9782 0.15394 0.95523 0.0
C182 C 1.01185 0.1406 0.89872 0.0
C183 C 0.9661 0.11042 0.78773 0.0
N184 N 0.93912 0.14532 0.92734 0.0
C185 C 0.93181 0.124 0.84474 0.0
O186 O 0.12339 0.13097 0.99425 0.0
C187 C 0.10454 0.10882 0.02623 0.0
O188 O 0.08295 0.09503 0.94602 0.0
H189 H 0.04317 0.14701 0.92153 0.0
H190 H 0.96165 0.09303 0.72353 0.0
C191 C 0.22764 0.15457 0.77616 0.0
C192 C 0.26413 0.1427 0.72253 0.0
C193 C 0.22363 0.10466 0.64966 0.0
C194 C 0.18833 0.11604 0.70604 0.0
N195 N 0.19067 0.14081 0.76701 0.0
N196 N 0.26048 0.11808 0.65992 0.0
H197 H 0.22822 0.17433 0.82449 0.0
C198 C 0.08098 0.04903 0.67351 0.0
O199 O 0.11744 0.05969 0.70177 0.0
O200 O 0.14265 0.19381 0.89962 0.0
H201 H 0.15912 0.10518 0.70115 0.0
H202 H 0.98304 0.17097 1.02113 0.0
H203 H 0.22194 0.08507 0.59973 0.0
Zn204 Zn 0.5628 0.17579 0.73205 0.0
C205 C 0.62472 0.14477 0.0308 0.0
N206 N 0.63641 0.17083 0.05643 0.0
C207 C 0.62401 0.18512 0.95219 0.0
N208 N 0.60487 0.16844 0.86541 0.0
N209 N 0.60734 0.14301 0.91228 0.0
C210 C 0.60163 0.06474 0.90067 0.0
O211 O 0.56595 0.0775 0.88347 0.0
O212 O 0.56867 0.21346 0.64755 0.0
Zn213 Zn 0.63147 0.1157 0.7971 0.0
N214 N 0.5083 0.17484 0.82185 0.0
C215 C 0.47604 0.18058 0.02763 0.0
C216 C 0.51143 0.17915 0.95141 0.0
C217 C 0.47003 0.17176 0.76545 0.0
N218 N 0.43829 0.17764 0.97207 0.0
C219 C 0.43368 0.17327 0.84316 0.0
O220 O 0.60391 0.11159 0.62334 0.0
C221 C 0.5827 0.1261 0.54487 0.0
O222 O 0.56705 0.14929 0.57806 0.0
H223 H 0.54123 0.18193 0.99662 0.0
H224 H 0.468 0.16876 0.6622 0.0
C225 C 0.72379 0.11854 0.77944 0.0
C226 C 0.76 0.12869 0.71834 0.0
C227 C 0.7185 0.15956 0.59559 0.0
C228 C 0.68296 0.1496 0.6561 0.0
N229 N 0.68599 0.12911 0.74518 0.0
N230 N 0.75603 0.14886 0.6277 0.0
H231 H 0.72554 0.10212 0.85012 0.0
C232 C 0.598 0.22254 0.5764 0.0
O233 O 0.63125 0.20735 0.55677 0.0
O234 O 0.63522 0.07764 0.87631 0.0
H235 H 0.65281 0.15765 0.62998 0.0
H236 H 0.47851 0.18408 0.13049 0.0
H237 H 0.71632 0.17561 0.52324 0.0
Zn238 Zn 0.12236 0.83361 0.36236 0.0
C239 C 0.07385 0.85431 0.69416 0.0
N240 N 0.08792 0.82931 0.72912 0.0
C241 C 0.09565 0.81721 0.61532 0.0
N242 N 0.08719 0.8341 0.51516 0.0
N243 N 0.07221 0.85728 0.56461 0.0
C244 C 0.07173 0.93371 0.52963 0.0
O245 O 0.10424 0.92139 0.47844 0.0
O246 O 0.11844 0.79579 0.27935 0.0
Zn247 Zn 0.03493 0.88167 0.47061 0.0
N248 N 0.18007 0.84251 0.4168 0.0
C249 C 0.22104 0.862 0.58576 0.0
C250 C 0.18253 0.85551 0.53299 0.0
C251 C 0.21554 0.83661 0.34853 0.0
N252 N 0.25608 0.85603 0.51887 0.0
C253 C 0.25501 0.84371 0.40085 0.0
O254 O 0.04686 0.88472 0.2787 0.0
C255 C 0.07444 0.87741 0.19727 0.0
O256 O 0.10309 0.86019 0.22478 0.0
H257 H 0.15477 0.86093 0.58524 0.0
H258 H 0.213 0.82645 0.25589 0.0
C259 C 0.94622 0.87834 0.4186 0.0
C260 C 0.90535 0.86853 0.43839 0.0
C261 C 0.93046 0.83869 0.60248 0.0
C262 C 0.97086 0.84791 0.58027 0.0
N263 N 0.97802 0.86802 0.49133 0.0
N264 N 0.89879 0.84913 0.53124 0.0
H265 H 0.95273 0.89395 0.34666 0.0
C266 C 0.08234 0.78756 0.24586 0.0
O267 O 0.04999 0.80336 0.26976 0.0
O268 O 0.03799 0.92026 0.5415 0.0
H269 H 0.99617 0.83897 0.63404 0.0
H270 H 0.2231 0.87204 0.67882 0.0
H271 H 0.92437 0.82302 0.67448 0.0
C272 C 0.35767 0.38638 0.13824 0.0
C273 C 0.38784 0.38737 0.23663 0.0
H274 H 0.29286 0.38284 0.09118 0.0
C275 C 0.37475 0.38962 0.36536 0.0
H276 H 0.36703 0.38456 0.03811 0.0
C277 C 0.33234 0.38821 0.39567 0.0
C278 C 0.30234 0.38512 0.29775 0.0
H279 H 0.39727 0.39006 0.44313 0.0
H280 H 0.32315 0.38785 0.49629 0.0
C281 C 0.31522 0.38555 0.16842 0.0
C282 C 0.33926 0.62445 0.90764 0.0
C283 C 0.29891 0.62482 0.85484 0.0
H284 H 0.40481 0.62716 0.87197 0.0
C285 C 0.29436 0.62476 0.72005 0.0
H286 H 0.34367 0.62457 1.01133 0.0
C287 C 0.32941 0.62655 0.64019 0.0
C288 C 0.36968 0.62795 0.69336 0.0
H289 H 0.26373 0.62545 0.67641 0.0
H290 H 0.32491 0.62824 0.53686 0.0
C291 C 0.37433 0.62575 0.82775 0.0
C292 C 0.79834 0.66287 0.85233 0.0
C293 C 0.79548 0.66468 0.71732 0.0
H294 H 0.83814 0.6582 1.01653 0.0
C295 C 0.83279 0.66629 0.64563 0.0
H296 H 0.7706 0.66127 0.91118 0.0
C297 C 0.87175 0.66432 0.706 0.0
C298 C 0.87457 0.66062 0.84021 0.0
H299 H 0.83192 0.66784 0.54136 0.0
H300 H 0.89934 0.66399 0.64606 0.0
C301 C 0.83732 0.66083 0.91274 0.0
C302 C 0.85696 0.32374 0.18581 0.0
C303 C 0.89035 0.33512 0.25619 0.0
H304 H 0.79176 0.32304 0.15005 0.0
C305 C 0.88124 0.35257 0.36059 0.0
H306 H 0.86269 0.30996 0.10535 0.0
C307 C 0.83991 0.35986 0.38795 0.0
C308 C 0.80664 0.35 0.31152 0.0
H309 H 0.90594 0.36194 0.41651 0.0
H310 H 0.83427 0.37426 0.46602 0.0
C311 C 0.81579 0.3311 0.21254 0.0
C312 C 0.79442 0.87996 0.32909 0.0
C313 C 0.79901 0.87989 0.1943 0.0
H314 H 0.82493 0.87649 0.5123 0.0
C315 C 0.83938 0.88025 0.14152 0.0
H316 H 0.76379 0.87927 0.37272 0.0
C317 C 0.87442 0.87894 0.22143 0.0
C318 C 0.86974 0.87676 0.35582 0.0
H319 H 0.84381 0.88012 0.03783 0.0
H320 H 0.90492 0.87754 0.17723 0.0
C321 C 0.82946 0.87817 0.40896 0.0
C322 C 0.87497 0.11511 0.68511 0.0
C323 C 0.88801 0.11728 0.8139 0.0
H324 H 0.82344 0.11697 0.55408 0.0
C325 C 0.85779 0.11821 0.91223 0.0
H326 H 0.89753 0.11472 0.60739 0.0
C327 C 0.81536 0.11907 0.88196 0.0
C328 C 0.80254 0.11958 0.75259 0.0
H329 H 0.86711 0.11997 1.01241 0.0
H330 H 0.79296 0.12173 0.95917 0.0
C331 C 0.83259 0.11655 0.65471 0.0
C332 C 0.34003 0.14486 0.66194 0.0
C333 C 0.30675 0.15471 0.73842 0.0
H334 H 0.40607 0.14277 0.6334 0.0
C335 C 0.3159 0.17357 0.83755 0.0
H336 H 0.3344 0.13049 0.58376 0.0
C337 C 0.35706 0.18092 0.86434 0.0
C338 C 0.39046 0.16954 0.79391 0.0
H339 H 0.29185 0.18162 0.90006 0.0
H340 H 0.36279 0.19467 0.94491 0.0
C341 C 0.38136 0.15213 0.68937 0.0
C342 C 0.33741 0.84398 0.1363 0.0
C343 C 0.37464 0.8441 0.20883 0.0
H344 H 0.27069 0.84359 0.13785 0.0
C345 C 0.37179 0.84028 0.34297 0.0
H346 H 0.33826 0.84669 0.03256 0.0
C347 C 0.33281 0.83829 0.4033 0.0
C348 C 0.29552 0.83999 0.33165 0.0
H349 H 0.39936 0.84054 0.40292 0.0
H350 H 0.33192 0.83664 0.50754 0.0
C351 C 0.29842 0.84191 0.19667 0.0
C352 C 0.13903 0.51347 0.0957 0.0
C353 C 0.10214 0.52687 0.05804 0.0
H354 H 0.16799 0.47545 0.15201 0.0
C355 C 0.06536 0.51128 0.04779 0.0
H356 H 0.16797 0.52483 0.10374 0.0
C357 C 0.06536 0.48302 0.07565 0.0
C358 C 0.10219 0.4696 0.11345 0.0
H359 H 0.03642 0.52091 1.01868 0.0
H360 H 0.03637 0.47171 0.06781 0.0
C361 C 0.1391 0.48511 0.12249 0.0
C362 C 0.53947 0.49875 0.41874 0.0
C363 C 0.57787 0.48483 0.41843 0.0
H364 H 0.50743 0.537 0.44932 0.0
C365 C 0.61406 0.49947 0.45224 0.0
H366 H 0.51106 0.48808 0.39257 0.0
C367 C 0.612 0.52742 0.48503 0.0
C368 C 0.57373 0.54146 0.48375 0.0
H369 H 0.64414 0.48935 0.45309 0.0
H370 H 0.6405 0.53805 0.51063 0.0
C371 C 0.53745 0.52682 0.45042 0.0
C372 C 0.56547 0.02165 0.97419 0.0
C373 C 0.60231 0.03508 0.93638 0.0
H374 H 0.5365 0.98375 0.03104 0.0
C375 C 0.63921 0.01955 0.92715 0.0
H376 H 0.53649 0.03297 0.98216 0.0
C377 C 0.63912 0.99119 0.95379 0.0
C378 C 0.60221 0.97779 0.99147 0.0
H379 H 0.6681 0.02922 0.89761 0.0
H380 H 0.66804 0.97982 0.94561 0.0
C381 C 0.56545 0.99339 1.0019 0.0
C382 C 0.11215 0.97721 0.56597 0.0
C383 C 0.07383 0.96323 0.56642 0.0
H384 H 0.14437 0.01522 0.59876 0.0
C385 C 0.03754 0.97791 0.59915 0.0
H386 H 0.14067 0.96654 0.54086 0.0
C387 C 0.03959 0.00597 0.63105 0.0
C388 C 0.07804 0.01983 0.63218 0.0
H389 H 1.00747 0.96778 0.59961 0.0
H390 H 1.01116 0.01668 0.65673 0.0
C391 C 0.11425 0.00515 0.59898 0.0
C392 C 0.08971 0.27308 0.12838 0.0
C393 C 0.12453 0.28901 0.09472 0.0
H394 H 0.06017 0.23341 0.12061 0.0
C395 C 0.15807 0.27602 0.03192 0.0
H396 H 0.06265 0.2825 0.17114 0.0
C397 C 0.1562 0.2481 0.99856 0.0
C398 C 0.12078 0.23237 0.0281 0.0
H399 H 0.18518 0.28784 1.00317 0.0
H400 H 0.18212 0.23905 0.94669 0.0
C401 C 0.08802 0.24495 0.09673 0.0
C402 C 0.56596 0.73342 0.47632 0.0
C403 C 0.60071 0.71755 0.44099 0.0
H404 H 0.53443 0.77229 0.45801 0.0
C405 C 0.63352 0.73015 0.37379 0.0
H406 H 0.53967 0.72386 0.52434 0.0
C407 C 0.63068 0.75784 0.3364 0.0
C408 C 0.59433 0.77305 0.36189 0.0
H409 H 0.66 0.71803 0.34226 0.0
H410 H 0.65559 0.7667 0.2793 0.0
C411 C 0.5626 0.76091 0.43601 0.0
C412 C 0.10733 0.74693 0.11709 0.0
C413 C 0.07616 0.75962 0.19146 0.0
H414 H 0.12889 0.70943 0.02933 0.0
C415 C 0.03969 0.74478 0.21998 0.0
H416 H 0.13559 0.758 0.09289 0.0
C417 C 0.03605 0.71701 0.18447 0.0
C418 C 0.06813 0.70392 0.11601 0.0
H419 H 0.01519 0.75404 0.2774 0.0
H420 H 1.00936 0.70527 0.21752 0.0
C421 C 0.10314 0.71935 0.07849 0.0
C422 C 0.62925 0.26514 0.4745 0.0
C423 C 0.59412 0.25022 0.51685 0.0
H424 H 0.65293 0.30467 0.41328 0.0
C425 C 0.55471 0.26257 0.50785 0.0
H426 H 0.66003 0.25609 0.47993 0.0
C427 C 0.55069 0.28978 0.46644 0.0
C428 C 0.5859 0.3054 0.43349 0.0
H429 H 0.52696 0.25154 0.53764 0.0
H430 H 0.52013 0.29927 0.46835 0.0
C431 C 0.6252 0.29274 0.43426 0.0
C432 C 0.6073 0.75777 0.93218 0.0
C433 C 0.57616 0.74507 0.85772 0.0
H434 H 0.6288 0.79527 1.02004 0.0
C435 C 0.5397 0.75991 0.82909 0.0
H436 H 0.63554 0.7467 0.95646 0.0
C437 C 0.53604 0.78768 0.8646 0.0
C438 C 0.56808 0.80077 0.93318 0.0
H439 H 0.51524 0.75064 0.77161 0.0
H440 H 0.50936 0.7994 0.83151 0.0
C441 C 0.60307 0.78535 0.97078 0.0
C442 C 0.12924 0.23958 0.57579 0.0
C443 C 0.09409 0.25447 0.53351 0.0
H444 H 0.15298 0.20007 0.63697 0.0
C445 C 0.05469 0.24209 0.54259 0.0
H446 H 0.16001 0.24865 0.57029 0.0
C447 C 0.05072 0.21487 0.58403 0.0
C448 C 0.08595 0.19929 0.61691 0.0
H449 H 0.02693 0.25309 0.51286 0.0
H450 H 0.02017 0.20536 0.58217 0.0
C451 C 0.12524 0.21198 0.61605 0.0
C452 C 0.65619 0.25664 0.05141 0.0
C453 C 0.62071 0.27232 1.02216 0.0
H454 H 0.68527 0.21694 0.04653 0.0
C455 C 0.58794 0.25971 0.95376 0.0
H456 H 0.68211 0.26572 0.1031 0.0
C457 C 0.58968 0.23159 0.92205 0.0
C458 C 0.62456 0.2157 0.95543 0.0
H459 H 0.56005 0.27121 0.93009 0.0
H460 H 0.56262 0.22213 0.87947 0.0
C461 C 0.65811 0.22873 1.01799 0.0
C462 C 0.06245 0.74373 0.61321 0.0
C463 C 0.09423 0.73164 0.68719 0.0
H464 H 0.03943 0.78075 0.52497 0.0
C465 C 0.13057 0.74687 0.71242 0.0
H466 H 0.0343 0.73233 0.5914 0.0
C467 C 0.13335 0.77457 0.67495 0.0
C468 C 0.10049 0.78713 0.60794 0.0
H469 H 0.15552 0.73803 0.7694 0.0
H470 H 0.15982 0.78671 0.70633 0.0
C471 C 0.06576 0.77122 0.57282 0.0
C472 C 0.06853 0.37332 0.86683 0.0
C473 C 0.11003 0.37655 0.90811 0.0
H474 H 0.02692 0.37071 0.70463 0.0
C475 C 0.13938 0.38668 0.81996 0.0
H476 H 0.04529 0.36534 0.93238 0.0
C477 C 0.12842 0.39094 0.69052 0.0
C478 C 0.08831 0.38399 0.64551 0.0
H479 H 0.17171 0.38877 0.84816 0.0
H480 H 0.15279 0.39659 0.62317 0.0
C481 C 0.05795 0.37633 0.73612 0.0
C482 C 0.53019 0.63049 0.18399 0.0
C483 C 0.56701 0.62909 0.2568 0.0
H484 H 0.50356 0.63014 0.99433 0.0
C485 C 0.60303 0.6184 0.19845 0.0
H486 H 0.5021 0.63899 0.2255 0.0
C487 C 0.60442 0.6145 0.06489 0.0
C488 C 0.5692 0.62007 0.98925 0.0
H489 H 0.63197 0.61744 0.25212 0.0
H490 H 0.63406 0.61 1.01955 0.0
C491 C 0.53117 0.62571 0.05073 0.0
C492 C 0.06343 0.60461 0.35767 0.0
C493 C 0.09925 0.61468 0.29587 0.0
H494 H 0.03362 0.59703 0.53926 0.0
C495 C 0.13672 0.61564 0.3657 0.0
H496 H 0.03402 0.60395 0.30639 0.0
C497 C 0.13666 0.6113 0.49943 0.0
C498 C 0.09898 0.60637 0.56417 0.0
H499 H 0.1648 0.62347 0.32154 0.0
H500 H 0.16485 0.6155 0.55344 0.0
C501 C 0.06303 0.60102 0.49147 0.0
C502 C 0.54805 0.40064 0.70845 0.0
C503 C 0.5796 0.39286 0.62247 0.0
H504 H 0.53184 0.4089 0.90508 0.0
C505 C 0.62112 0.3926 0.66572 0.0
H506 H 0.51577 0.40029 0.67807 0.0
C507 C 0.63023 0.39625 0.79663 0.0
C508 C 0.59809 0.40128 0.88514 0.0
H509 H 0.64588 0.38593 0.60189 0.0
H510 H 0.66177 0.39286 0.83009 0.0
C511 C 0.55735 0.40535 0.83862 0.0
C512 C 0.63667 0.88906 0.68377 0.0
C513 C 0.59916 0.89002 0.75351 0.0
H514 H 0.66488 0.88917 0.4961 0.0
C515 C 0.56338 0.9001 0.69161 0.0
H516 H 0.66472 0.88122 0.72802 0.0
C517 C 0.56305 0.90368 0.5578 0.0
C518 C 0.59902 0.89832 0.48519 0.0
H519 H 0.53395 0.90078 0.7428 0.0
H520 H 0.53367 0.90768 0.50993 0.0
C521 C 0.63667 0.89338 0.55003 0.0
C522 C 0.04832 0.10394 0.34208 0.0
C523 C 0.07984 0.1118 0.42795 0.0
H524 H 0.03213 0.09563 0.14551 0.0
C525 C 0.12136 0.11214 0.38458 0.0
H526 H 0.01604 0.10423 0.37255 0.0
C527 C 0.13047 0.10849 0.25365 0.0
C528 C 0.09835 0.10338 0.16524 0.0
H529 H 0.14609 0.11887 0.44831 0.0
H530 H 0.162 0.11194 0.2201 0.0
C531 C 0.05763 0.09924 0.21189 0.0
C532 C 0.6397 0.11812 0.23026 0.0
C533 C 0.6103 0.12817 0.14212 0.0
H534 H 0.65314 0.10827 0.42705 0.0
C535 C 0.56878 0.13131 0.18343 0.0
H536 H 0.67204 0.11611 0.20203 0.0
C537 C 0.55821 0.1283 0.31416 0.0
C538 C 0.5886 0.12072 0.40475 0.0
H539 H 0.54551 0.13921 0.11788 0.0
H540 H 0.52715 0.13384 0.34568 0.0
C541 C 0.62875 0.11385 0.35972 0.0
C542 C 0.03007 0.87421 0.86561 0.0
C543 C 0.06684 0.87559 0.79253 0.0
H544 H 1.00354 0.8746 0.05546 0.0
C545 C 0.10292 0.88625 0.85057 0.0
H546 H 1.00194 0.86573 0.82432 0.0
C547 C 0.1044 0.89015 0.98412 0.0
C548 C 0.06921 0.88462 0.06003 0.0
H549 H 0.13182 0.88719 0.79667 0.0
H550 H 0.13407 0.89463 0.02923 0.0
C551 C 0.03113 0.87901 0.99884 0.0
loop_
_geom_bond_atom_site_label_1
_geom_bond_atom_site_label_2
_geom_bond_distance
_geom_bond_site_symmetry_2
_ccdc_geom_bond_type
Zn0 N4 2.020 . S
Zn0 O8 2.019 . S
Zn0 N10 2.119 . S
Zn0 O18 1.975 . S
C1 N2 1.334 . S
C1 N5 1.336 1_556 S
N2 C1 1.334 . S
N2 C3 1.334 . S
C3 N2 1.334 . S
C3 N4 1.336 1_556 S
N4 Zn0 2.020 . S
N4 C3 1.336 1_554 S
N4 N5 1.354 . S
N5 C1 1.336 1_554 S
N5 N4 1.354 . S
N5 Zn9 2.020 . S
C6 O7 1.244 . S
C6 O30 1.257 . S
O7 C6 1.244 . S
O8 Zn0 2.019 . S
O8 C28 1.257 . S
Zn9 N5 2.020 . S
Zn9 O16 1.975 . S
Zn9 N25 2.119 . S
Zn9 O30 2.019 . S
N10 Zn0 2.119 . S
N10 C12 1.334 . S
N10 C13 1.328 . S
C11 C12 1.391 . S
C11 N14 1.329 . S
C11 H32 0.930 . S
C12 N10 1.334 . S
C12 C11 1.391 . S
C12 H19 0.930 . S
C13 N10 1.328 . S
C13 C15 1.392 . S
C13 H20 0.930 . S
N14 C11 1.329 . S
N14 C15 1.331 . S
C15 C13 1.392 . S
C15 N14 1.331 . S
O16 Zn9 1.975 . S
O16 C17 1.252 . S
C17 O16 1.252 . S
C17 O18 1.252 . S
O18 Zn0 1.975 . S
O18 C17 1.252 . S
H19 C12 0.930 . S
H20 C13 0.930 . S
C21 C22 1.392 . S
C21 N25 1.328 1_655 S
C21 H27 0.930 . S
C22 C21 1.392 . S
C22 N26 1.331 . S
C23 C24 1.391 1_655 S
C23 N26 1.329 . S
C23 H33 0.930 . S
C24 C23 1.391 1_455 S
C24 N25 1.334 . S
C24 H31 0.930 . S
N25 Zn9 2.119 . S
N25 C21 1.328 1_455 S
N25 C24 1.334 . S
N26 C22 1.331 . S
N26 C23 1.329 . S
H27 C21 0.930 . S
C28 O8 1.257 . S
C28 O29 1.244 . S
O29 C28 1.244 . S
O30 C6 1.257 . S
O30 Zn9 2.019 . S
H31 C24 0.930 . S
H32 C11 0.930 . S
H33 C23 0.930 . S
Zn34 N38 2.020 . S
Zn34 O42 2.019 . S
Zn34 N44 2.119 . S
Zn34 O52 1.975 . S
C35 N36 1.334 . S
C35 N39 1.336 . S
N36 C35 1.334 . S
N36 C37 1.334 . S
C37 N36 1.334 . S
C37 N38 1.336 . S
N38 Zn34 2.020 . S
N38 C37 1.336 . S
N38 N39 1.354 . S
N39 C35 1.336 . S
N39 N38 1.354 . S
N39 Zn43 2.020 . S
C40 O41 1.244 . S
C40 O64 1.257 . S
O41 C40 1.244 . S
O42 Zn34 2.019 . S
O42 C62 1.257 . S
Zn43 N39 2.020 . S
Zn43 O50 1.975 . S
Zn43 N59 2.119 . S
Zn43 O64 2.019 . S
N44 Zn34 2.119 . S
N44 C46 1.334 . S
N44 C47 1.328 . S
C45 C46 1.391 . S
C45 N48 1.329 . S
C45 H66 0.930 . S
C46 N44 1.334 . S
C46 C45 1.391 . S
C46 H53 0.930 . S
C47 N44 1.328 . S
C47 C49 1.392 . S
C47 H54 0.930 . S
N48 C45 1.329 . S
N48 C49 1.331 . S
C49 C47 1.392 . S
C49 N48 1.331 . S
O50 Zn43 1.975 . S
O50 C51 1.252 . S
C51 O50 1.252 . S
C51 O52 1.252 . S
O52 Zn34 1.975 . S
O52 C51 1.252 . S
H53 C46 0.930 . S
H54 C47 0.930 . S
C55 C56 1.392 . S
C55 N59 1.328 . S
C55 H61 0.930 . S
C56 C55 1.392 . S
C56 N60 1.331 . S
C57 C58 1.391 . S
C57 N60 1.329 . S
C57 H67 0.930 . S
C58 C57 1.391 . S
C58 N59 1.334 . S
C58 H65 0.930 . S
N59 Zn43 2.119 . S
N59 C55 1.328 . S
N59 C58 1.334 . S
N60 C56 1.331 . S
N60 C57 1.329 . S
H61 C55 0.930 . S
C62 O42 1.257 . S
C62 O63 1.244 . S
O63 C62 1.244 . S
O64 C40 1.257 . S
O64 Zn43 2.019 . S
H65 C58 0.930 . S
H66 C45 0.930 . S
H67 C57 0.930 . S
Zn68 N72 2.020 . S
Zn68 O76 2.019 . S
Zn68 N78 2.119 . S
Zn68 O86 1.975 . S
C69 N70 1.334 . S
C69 N73 1.336 1_554 S
N70 C69 1.334 . S
N70 C71 1.334 . S
C71 N70 1.334 . S
C71 N72 1.336 1_554 S
N72 Zn68 2.020 . S
N72 C71 1.336 1_556 S
N72 N73 1.354 . S
N73 C69 1.336 1_556 S
N73 N72 1.354 . S
N73 Zn77 2.020 . S
C74 O75 1.244 . S
C74 O98 1.257 . S
O75 C74 1.244 . S
O76 Zn68 2.019 . S
O76 C96 1.257 . S
Zn77 N73 2.020 . S
Zn77 O84 1.975 . S
Zn77 N93 2.119 . S
Zn77 O98 2.019 . S
N78 Zn68 2.119 . S
N78 C80 1.334 . S
N78 C81 1.328 1_455 S
C79 C80 1.391 1_655 S
C79 N82 1.329 . S
C79 H100 0.930 . S
C80 N78 1.334 . S
C80 C79 1.391 1_455 S
C80 H87 0.930 . S
C81 N78 1.328 1_655 S
C81 C83 1.392 . S
C81 H88 0.930 . S
N82 C79 1.329 . S
N82 C83 1.331 . S
C83 C81 1.392 . S
C83 N82 1.331 . S
O84 Zn77 1.975 . S
O84 C85 1.252 . S
C85 O84 1.252 . S
C85 O86 1.252 . S
O86 Zn68 1.975 . S
O86 C85 1.252 . S
H87 C80 0.930 . S
H88 C81 0.930 . S
C89 C90 1.392 . S
C89 N93 1.328 . S
C89 H95 0.930 . S
C90 C89 1.392 . S
C90 N94 1.331 . S
C91 C92 1.391 . S
C91 N94 1.329 . S
C91 H101 0.930 . S
C92 C91 1.391 . S
C92 N93 1.334 . S
C92 H99 0.930 . S
N93 Zn77 2.119 . S
N93 C89 1.328 . S
N93 C92 1.334 . S
N94 C90 1.331 . S
N94 C91 1.329 . S
H95 C89 0.930 . S
C96 O76 1.257 . S
C96 O97 1.244 . S
O97 C96 1.244 . S
O98 C74 1.257 . S
O98 Zn77 2.019 . S
H99 C92 0.930 . S
H100 C79 0.930 . S
H101 C91 0.930 . S
Zn102 N106 2.020 . S
Zn102 O110 2.019 . S
Zn102 N112 2.119 . S
Zn102 O120 1.975 . S
C103 N104 1.334 . S
C103 N107 1.336 . S
N104 C103 1.334 . S
N104 C105 1.334 . S
C105 N104 1.334 . S
C105 N106 1.336 . S
N106 Zn102 2.020 . S
N106 C105 1.336 . S
N106 N107 1.354 . S
N107 C103 1.336 . S
N107 N106 1.354 . S
N107 Zn111 2.020 . S
C108 O109 1.244 . S
C108 O132 1.257 . S
O109 C108 1.244 . S
O110 Zn102 2.019 . S
O110 C130 1.257 . S
Zn111 N107 2.020 . S
Zn111 O118 1.975 . S
Zn111 N127 2.119 . S
Zn111 O132 2.019 . S
N112 Zn102 2.119 . S
N112 C114 1.334 . S
N112 C115 1.328 . S
C113 C114 1.391 . S
C113 N116 1.329 . S
C113 H134 0.930 . S
C114 N112 1.334 . S
C114 C113 1.391 . S
C114 H121 0.930 . S
C115 N112 1.328 . S
C115 C117 1.392 . S
C115 H122 0.930 . S
N116 C113 1.329 . S
N116 C117 1.331 . S
C117 C115 1.392 . S
C117 N116 1.331 . S
O118 Zn111 1.975 . S
O118 C119 1.252 . S
C119 O118 1.252 . S
C119 O120 1.252 . S
O120 Zn102 1.975 . S
O120 C119 1.252 . S
H121 C114 0.930 . S
H122 C115 0.930 . S
C123 C124 1.392 . S
C123 N127 1.328 . S
C123 H129 0.930 . S
C124 C123 1.392 . S
C124 N128 1.331 . S
C125 C126 1.391 . S
C125 N128 1.329 . S
C125 H135 0.930 . S
C126 C125 1.391 . S
C126 N127 1.334 . S
C126 H133 0.930 . S
N127 Zn111 2.119 . S
N127 C123 1.328 . S
N127 C126 1.334 . S
N128 C124 1.331 . S
N128 C125 1.329 . S
H129 C123 0.930 . S
C130 O110 1.257 . S
C130 O131 1.244 . S
O131 C130 1.244 . S
O132 C108 1.257 . S
O132 Zn111 2.019 . S
H133 C126 0.930 . S
H134 C113 0.930 . S
H135 C125 0.930 . S
Zn136 N140 2.020 . S
Zn136 O144 2.019 . S
Zn136 N146 2.119 . S
Zn136 O154 1.975 . S
C137 N138 1.334 . S
C137 N141 1.336 1_556 S
N138 C137 1.334 . S
N138 C139 1.334 . S
C139 N138 1.334 . S
C139 N140 1.336 1_556 S
N140 Zn136 2.020 . S
N140 C139 1.336 1_554 S
N140 N141 1.354 . S
N141 C137 1.336 1_554 S
N141 N140 1.354 . S
N141 Zn145 2.020 . S
C142 O143 1.244 . S
C142 O166 1.257 . S
O143 C142 1.244 . S
O144 Zn136 2.019 . S
O144 C164 1.257 . S
Zn145 N141 2.020 . S
Zn145 O152 1.975 . S
Zn145 N161 2.119 . S
Zn145 O166 2.019 . S
N146 Zn136 2.119 . S
N146 C148 1.334 . S
N146 C149 1.328 . S
C147 C148 1.391 . S
C147 N150 1.329 . S
C147 H168 0.930 . S
C148 N146 1.334 . S
C148 C147 1.391 . S
C148 H155 0.930 . S
C149 N146 1.328 . S
C149 C151 1.392 . S
C149 H156 0.930 . S
N150 C147 1.329 . S
N150 C151 1.331 . S
C151 C149 1.392 . S
C151 N150 1.331 . S
O152 Zn145 1.975 . S
O152 C153 1.252 . S
C153 O152 1.252 . S
C153 O154 1.252 . S
O154 Zn136 1.975 . S
O154 C153 1.252 . S
H155 C148 0.930 . S
H156 C149 0.930 . S
C157 C158 1.392 . S
C157 N161 1.328 . S
C157 H163 0.930 . S
C158 C157 1.392 . S
C158 N162 1.331 . S
C159 C160 1.391 . S
C159 N162 1.329 . S
C159 H169 0.930 . S
C160 C159 1.391 . S
C160 N161 1.334 . S
C160 H167 0.930 . S
N161 Zn145 2.119 . S
N161 C157 1.328 . S
N161 C160 1.334 . S
N162 C158 1.331 . S
N162 C159 1.329 . S
H163 C157 0.930 . S
C164 O144 1.257 . S
C164 O165 1.244 . S
O165 C164 1.244 . S
O166 C142 1.257 . S
O166 Zn145 2.019 . S
H167 C160 0.930 . S
H168 C147 0.930 . S
H169 C159 0.930 . S
Zn170 N174 2.020 . S
Zn170 O178 2.019 1_455 S
Zn170 N180 2.119 1_455 S
Zn170 O188 1.975 . S
C171 N172 1.334 . S
C171 N175 1.336 . S
N172 C171 1.334 . S
N172 C173 1.334 . S
C173 N172 1.334 . S
C173 N174 1.336 . S
N174 Zn170 2.020 . S
N174 C173 1.336 . S
N174 N175 1.354 . S
N175 C171 1.336 . S
N175 N174 1.354 . S
N175 Zn179 2.020 . S
C176 O177 1.244 . S
C176 O200 1.257 . S
O177 C176 1.244 . S
O178 Zn170 2.019 1_655 S
O178 C198 1.257 1_655 S
Zn179 N175 2.020 . S
Zn179 O186 1.975 . S
Zn179 N195 2.119 . S
Zn179 O200 2.019 . S
N180 Zn170 2.119 1_655 S
N180 C182 1.334 . S
N180 C183 1.328 . S
C181 C182 1.391 . S
C181 N184 1.329 . S
C181 H202 0.930 . S
C182 N180 1.334 . S
C182 C181 1.391 . S
C182 H189 0.930 . S
C183 N180 1.328 . S
C183 C185 1.392 . S
C183 H190 0.930 . S
N184 C181 1.329 . S
N184 C185 1.331 . S
C185 C183 1.392 . S
C185 N184 1.331 . S
O186 Zn179 1.975 . S
O186 C187 1.252 . S
C187 O186 1.252 . S
C187 O188 1.252 . S
O188 Zn170 1.975 . S
O188 C187 1.252 . S
H189 C182 0.930 . S
H190 C183 0.930 . S
C191 C192 1.392 . S
C191 N195 1.328 . S
C191 H197 0.930 . S
C192 C191 1.392 . S
C192 N196 1.331 . S
C193 C194 1.391 . S
C193 N196 1.329 . S
C193 H203 0.930 . S
C194 C193 1.391 . S
C194 N195 1.334 . S
C194 H201 0.930 . S
N195 Zn179 2.119 . S
N195 C191 1.328 . S
N195 C194 1.334 . S
N196 C192 1.331 . S
N196 C193 1.329 . S
H197 C191 0.930 . S
C198 O178 1.257 1_455 S
C198 O199 1.244 . S
O199 C198 1.244 . S
O200 C176 1.257 . S
O200 Zn179 2.019 . S
H201 C194 0.930 . S
H202 C181 0.930 . S
H203 C193 0.930 . S
Zn204 N208 2.020 . S
Zn204 O212 2.019 . S
Zn204 N214 2.119 . S
Zn204 O222 1.975 . S
C205 N206 1.334 . S
C205 N209 1.336 1_554 S
N206 C205 1.334 . S
N206 C207 1.334 . S
C207 N206 1.334 . S
C207 N208 1.336 1_554 S
N208 Zn204 2.020 . S
N208 C207 1.336 1_556 S
N208 N209 1.354 . S
N209 C205 1.336 1_556 S
N209 N208 1.354 . S
N209 Zn213 2.020 . S
C210 O211 1.244 . S
C210 O234 1.257 . S
O211 C210 1.244 . S
O212 Zn204 2.019 . S
O212 C232 1.257 . S
Zn213 N209 2.020 . S
Zn213 O220 1.975 . S
Zn213 N229 2.119 . S
Zn213 O234 2.019 . S
N214 Zn204 2.119 . S
N214 C216 1.334 . S
N214 C217 1.328 . S
C215 C216 1.391 . S
C215 N218 1.329 . S
C215 H236 0.930 . S
C216 N214 1.334 . S
C216 C215 1.391 . S
C216 H223 0.930 . S
C217 N214 1.328 . S
C217 C219 1.392 . S
C217 H224 0.930 . S
N218 C215 1.329 . S
N218 C219 1.331 . S
C219 C217 1.392 . S
C219 N218 1.331 . S
O220 Zn213 1.975 . S
O220 C221 1.252 . S
C221 O220 1.252 . S
C221 O222 1.252 . S
O222 Zn204 1.975 . S
O222 C221 1.252 . S
H223 C216 0.930 . S
H224 C217 0.930 . S
C225 C226 1.392 . S
C225 N229 1.328 . S
C225 H231 0.930 . S
C226 C225 1.392 . S
C226 N230 1.331 . S
C227 C228 1.391 . S
C227 N230 1.329 . S
C227 H237 0.930 . S
C228 C227 1.391 . S
C228 N229 1.334 . S
C228 H235 0.930 . S
N229 Zn213 2.119 . S
N229 C225 1.328 . S
N229 C228 1.334 . S
N230 C226 1.331 . S
N230 C227 1.329 . S
H231 C225 0.930 . S
C232 O212 1.257 . S
C232 O233 1.244 . S
O233 C232 1.244 . S
O234 C210 1.257 . S
O234 Zn213 2.019 . S
H235 C228 0.930 . S
H236 C215 0.930 . S
H237 C227 0.930 . S
Zn238 N242 2.020 . S
Zn238 O246 2.019 . S
Zn238 N248 2.119 . S
Zn238 O256 1.975 . S
C239 N240 1.334 . S
C239 N243 1.336 . S
N240 C239 1.334 . S
N240 C241 1.334 . S
C241 N240 1.334 . S
C241 N242 1.336 . S
N242 Zn238 2.020 . S
N242 C241 1.336 . S
N242 N243 1.354 . S
N243 C239 1.336 . S
N243 N242 1.354 . S
N243 Zn247 2.020 . S
C244 O245 1.244 . S
C244 O268 1.257 1_455 S
O245 C244 1.244 . S
O246 Zn238 2.019 . S
O246 C266 1.257 . S
Zn247 N243 2.020 . S
Zn247 O254 1.975 . S
Zn247 N263 2.119 1_455 S
Zn247 O268 2.019 1_455 S
N248 Zn238 2.119 . S
N248 C250 1.334 . S
N248 C251 1.328 . S
C249 C250 1.391 . S
C249 N252 1.329 . S
C249 H270 0.930 . S
C250 N248 1.334 . S
C250 C249 1.391 . S
C250 H257 0.930 . S
C251 N248 1.328 . S
C251 C253 1.392 . S
C251 H258 0.930 . S
N252 C249 1.329 . S
N252 C253 1.331 . S
C253 C251 1.392 . S
C253 N252 1.331 . S
O254 Zn247 1.975 . S
O254 C255 1.252 . S
C255 O254 1.252 . S
C255 O256 1.252 . S
O256 Zn238 1.975 . S
O256 C255 1.252 . S
H257 C250 0.930 . S
H258 C251 0.930 . S
C259 C260 1.392 . S
C259 N263 1.328 . S
C259 H265 0.930 . S
C260 C259 1.392 . S
C260 N264 1.331 . S
C261 C262 1.391 . S
C261 N264 1.329 . S
C261 H271 0.930 . S
C262 C261 1.391 . S
C262 N263 1.334 . S
C262 H269 0.930 . S
N263 Zn247 2.119 1_655 S
N263 C259 1.328 . S
N263 C262 1.334 . S
N264 C260 1.331 . S
N264 C261 1.329 . S
H265 C259 0.930 . S
C266 O246 1.257 . S
C266 O267 1.244 . S
O267 C266 1.244 . S
O268 C244 1.257 1_655 S
O268 Zn247 2.019 1_655 S
H269 C262 0.930 . S
H270 C249 0.930 . S
H271 C261 0.930 . S
C272 C273 1.387 . S
C272 H276 0.950 . S
C272 C281 1.390 . S
C273 C272 1.387 . S
C273 C275 1.387 . S
H274 C281 0.950 . S
C275 C273 1.387 . S
C275 C277 1.390 . S
C275 H279 0.950 . S
H276 C272 0.950 . S
C277 C275 1.390 . S
C277 C278 1.387 . S
C277 H280 0.950 . S
C278 C277 1.387 . S
C278 C281 1.387 . S
H279 C275 0.950 . S
H280 C277 0.950 . S
C281 C272 1.390 . S
C281 H274 0.950 . S
C281 C278 1.387 . S
C282 C283 1.387 . S
C282 H286 0.950 . S
C282 C291 1.390 . S
C283 C282 1.387 . S
C283 C285 1.387 . S
H284 C291 0.950 . S
C285 C283 1.387 . S
C285 C287 1.390 . S
C285 H289 0.950 . S
H286 C282 0.950 . S
C287 C285 1.390 . S
C287 C288 1.387 . S
C287 H290 0.950 . S
C288 C287 1.387 . S
C288 C291 1.387 . S
H289 C285 0.950 . S
H290 C287 0.950 . S
C291 C282 1.390 . S
C291 H284 0.950 . S
C291 C288 1.387 . S
C292 C293 1.387 . S
C292 H296 0.950 . S
C292 C301 1.390 . S
C293 C292 1.387 . S
C293 C295 1.387 . S
H294 C301 0.950 . S
C295 C293 1.387 . S
C295 C297 1.390 . S
C295 H299 0.950 . S
H296 C292 0.950 . S
C297 C295 1.390 . S
C297 C298 1.387 . S
C297 H300 0.950 . S
C298 C297 1.387 . S
C298 C301 1.387 . S
H299 C295 0.950 . S
H300 C297 0.950 . S
C301 C292 1.390 . S
C301 H294 0.950 . S
C301 C298 1.387 . S
C302 C303 1.387 . S
C302 H306 0.950 . S
C302 C311 1.390 . S
C303 C302 1.387 . S
C303 C305 1.387 . S
H304 C311 0.950 . S
C305 C303 1.387 . S
C305 C307 1.390 . S
C305 H309 0.950 . S
H306 C302 0.950 . S
C307 C305 1.390 . S
C307 C308 1.387 . S
C307 H310 0.950 . S
C308 C307 1.387 . S
C308 C311 1.387 . S
H309 C305 0.950 . S
H310 C307 0.950 . S
C311 C302 1.390 . S
C311 H304 0.950 . S
C311 C308 1.387 . S
C312 C313 1.387 . S
C312 H316 0.950 . S
C312 C321 1.390 . S
C313 C312 1.387 . S
C313 C315 1.387 . S
H314 C321 0.950 . S
C315 C313 1.387 . S
C315 C317 1.390 . S
C315 H319 0.950 . S
H316 C312 0.950 . S
C317 C315 1.390 . S
C317 C318 1.387 . S
C317 H320 0.950 . S
C318 C317 1.387 . S
C318 C321 1.387 . S
H319 C315 0.950 . S
H320 C317 0.950 . S
C321 C312 1.390 . S
C321 H314 0.950 . S
C321 C318 1.387 . S
C322 C323 1.387 . S
C322 H326 0.950 . S
C322 C331 1.390 . S
C323 C322 1.387 . S
C323 C325 1.387 . S
H324 C331 0.950 . S
C325 C323 1.387 . S
C325 C327 1.390 . S
C325 H329 0.950 . S
H326 C322 0.950 . S
C327 C325 1.390 . S
C327 C328 1.387 . S
C327 H330 0.950 . S
C328 C327 1.387 . S
C328 C331 1.387 . S
H329 C325 0.950 . S
H330 C327 0.950 . S
C331 C322 1.390 . S
C331 H324 0.950 . S
C331 C328 1.387 . S
C332 C333 1.387 . S
C332 H336 0.950 . S
C332 C341 1.390 . S
C333 C332 1.387 . S
C333 C335 1.387 . S
H334 C341 0.950 . S
C335 C333 1.387 . S
C335 C337 1.390 . S
C335 H339 0.950 . S
H336 C332 0.950 . S
C337 C335 1.390 . S
C337 C338 1.387 . S
C337 H340 0.950 . S
C338 C337 1.387 . S
C338 C341 1.387 . S
H339 C335 0.950 . S
H340 C337 0.950 . S
C341 C332 1.390 . S
C341 H334 0.950 . S
C341 C338 1.387 . S
C342 C343 1.387 . S
C342 H346 0.950 . S
C342 C351 1.390 . S
C343 C342 1.387 . S
C343 C345 1.387 . S
H344 C351 0.950 . S
C345 C343 1.387 . S
C345 C347 1.390 . S
C345 H349 0.950 . S
H346 C342 0.950 . S
C347 C345 1.390 . S
C347 C348 1.387 . S
C347 H350 0.950 . S
C348 C347 1.387 . S
C348 C351 1.387 . S
H349 C345 0.950 . S
H350 C347 0.950 . S
C351 C342 1.390 . S
C351 H344 0.950 . S
C351 C348 1.387 . S
C352 C353 1.387 . S
C352 H356 0.950 . S
C352 C361 1.390 1_556 S
C353 C352 1.387 . S
C353 C355 1.387 . S
H354 C361 0.950 . S
C355 C353 1.387 . S
C355 C357 1.390 1_556 S
C355 H359 0.950 . S
H356 C352 0.950 . S
C357 C355 1.390 1_554 S
C357 C358 1.387 . S
C357 H360 0.950 . S
C358 C357 1.387 . S
C358 C361 1.387 . S
H359 C355 0.950 . S
H360 C357 0.950 . S
C361 C352 1.390 1_554 S
C361 H354 0.950 . S
C361 C358 1.387 . S
C362 C363 1.387 . S
C362 H366 0.950 . S
C362 C371 1.390 . S
C363 C362 1.387 . S
C363 C365 1.387 . S
H364 C371 0.950 . S
C365 C363 1.387 . S
C365 C367 1.390 . S
C365 H369 0.950 . S
H366 C362 0.950 . S
C367 C365 1.390 . S
C367 C368 1.387 . S
C367 H370 0.950 . S
C368 C367 1.387 . S
C368 C371 1.387 . S
H369 C365 0.950 . S
H370 C367 0.950 . S
C371 C362 1.390 . S
C371 H364 0.950 . S
C371 C368 1.387 . S
C372 C373 1.387 . S
C372 H376 0.950 . S
C372 C381 1.390 1_546 S
C373 C372 1.387 . S
C373 C375 1.387 . S
H374 C381 0.950 . S
C375 C373 1.387 . S
C375 C377 1.390 1_546 S
C375 H379 0.950 . S
H376 C372 0.950 . S
C377 C375 1.390 1_564 S
C377 C378 1.387 . S
C377 H380 0.950 . S
C378 C377 1.387 . S
C378 C381 1.387 . S
H379 C375 0.950 . S
H380 C377 0.950 . S
C381 C372 1.390 1_564 S
C381 H374 0.950 . S
C381 C378 1.387 . S
C382 C383 1.387 . S
C382 H386 0.950 . S
C382 C391 1.390 1_565 S
C383 C382 1.387 . S
C383 C385 1.387 1_455 S
H384 C391 0.950 . S
C385 C383 1.387 1_655 S
C385 C387 1.390 1_565 S
C385 H389 0.950 . S
H386 C382 0.950 . S
C387 C385 1.390 1_545 S
C387 C388 1.387 1_655 S
C387 H390 0.950 . S
C388 C387 1.387 1_455 S
C388 C391 1.387 . S
H389 C385 0.950 . S
H390 C387 0.950 . S
C391 C382 1.390 1_545 S
C391 H384 0.950 . S
C391 C388 1.387 . S
C392 C393 1.387 . S
C392 H396 0.950 . S
C392 C401 1.390 . S
C393 C392 1.387 . S
C393 C395 1.387 1_556 S
H394 C401 0.950 . S
C395 C393 1.387 1_554 S
C395 C397 1.388 1_554 S
C395 H399 0.950 . S
H396 C392 0.950 . S
C397 C395 1.388 1_556 S
C397 C398 1.394 . S
C397 H400 0.945 1_556 S
C398 C397 1.394 . S
C398 C401 1.387 . S
H399 C395 0.950 . S
H400 C397 0.945 1_554 S
C401 C392 1.390 . S
C401 H394 0.950 . S
C401 C398 1.387 . S
C402 C403 1.387 . S
C402 H406 0.950 . S
C402 C411 1.390 . S
C403 C402 1.387 . S
C403 C405 1.387 . S
H404 C411 0.950 . S
C405 C403 1.387 . S
C405 C407 1.390 . S
C405 H409 0.950 . S
H406 C402 0.950 . S
C407 C405 1.390 . S
C407 C408 1.387 . S
C407 H410 0.950 . S
C408 C407 1.387 . S
C408 C411 1.387 . S
H409 C405 0.950 . S
H410 C407 0.950 . S
C411 C402 1.390 . S
C411 H404 0.950 . S
C411 C408 1.387 . S
C412 C413 1.387 . S
C412 H416 0.950 . S
C412 C421 1.390 . S
C413 C412 1.387 . S
C413 C415 1.387 . S
H414 C421 0.950 . S
C415 C413 1.387 . S
C415 C417 1.390 1_554 S
C415 H419 0.950 1_554 S
H416 C412 0.950 . S
C417 C415 1.390 1_556 S
C417 C418 1.387 1_556 S
C417 H420 0.950 . S
C418 C417 1.387 1_554 S
C418 C421 1.387 . S
H419 C415 0.950 1_556 S
H420 C417 0.950 . S
C421 C412 1.390 . S
C421 H414 0.950 . S
C421 C418 1.387 . S
C422 C423 1.387 . S
C422 H426 0.950 . S
C422 C431 1.390 . S
C423 C422 1.387 . S
C423 C425 1.387 . S
H424 C431 0.950 . S
C425 C423 1.387 . S
C425 C427 1.390 . S
C425 H429 0.950 . S
H426 C422 0.950 . S
C427 C425 1.390 . S
C427 C428 1.387 . S
C427 H430 0.950 . S
C428 C427 1.387 . S
C428 C431 1.387 . S
H429 C425 0.950 . S
H430 C427 0.950 . S
C431 C422 1.390 . S
C431 H424 0.950 . S
C431 C428 1.387 . S
C432 C433 1.387 . S
C432 H436 0.950 . S
C432 C441 1.390 . S
C433 C432 1.387 . S
C433 C435 1.387 . S
H434 C441 0.950 . S
C435 C433 1.387 . S
C435 C437 1.390 1_556 S
C435 H439 0.950 1_556 S
H436 C432 0.950 . S
C437 C435 1.390 1_554 S
C437 C438 1.387 1_554 S
C437 H440 0.950 . S
C438 C437 1.387 1_556 S
C438 C441 1.387 . S
H439 C435 0.950 1_554 S
H440 C437 0.950 . S
C441 C432 1.390 . S
C441 H434 0.950 . S
C441 C438 1.387 . S
C442 C443 1.387 . S
C442 H446 0.950 . S
C442 C451 1.390 . S
C443 C442 1.387 . S
C443 C445 1.387 . S
H444 C451 0.950 . S
C445 C443 1.387 . S
C445 C447 1.390 . S
C445 H449 0.950 . S
H446 C442 0.950 . S
C447 C445 1.390 . S
C447 C448 1.387 . S
C447 H450 0.950 . S
C448 C447 1.387 . S
C448 C451 1.387 . S
H449 C445 0.950 . S
H450 C447 0.950 . S
C451 C442 1.390 . S
C451 H444 0.950 . S
C451 C448 1.387 . S
C452 C453 1.387 . S
C452 H456 0.950 . S
C452 C461 1.390 . S
C453 C452 1.387 . S
C453 C455 1.387 . S
H454 C461 0.950 . S
C455 C453 1.387 . S
C455 C457 1.390 . S
C455 H459 0.950 . S
H456 C452 0.950 . S
C457 C455 1.390 . S
C457 C458 1.387 . S
C457 H460 0.950 1_554 S
C458 C457 1.387 . S
C458 C461 1.387 . S
H459 C455 0.950 . S
H460 C457 0.950 1_556 S
C461 C452 1.390 . S
C461 H454 0.950 . S
C461 C458 1.387 . S
C462 C463 1.387 . S
C462 H466 0.950 . S
C462 C471 1.390 . S
C463 C462 1.387 . S
C463 C465 1.387 . S
H464 C471 0.950 . S
C465 C463 1.387 . S
C465 C467 1.390 . S
C465 H469 0.950 . S
H466 C462 0.950 . S
C467 C465 1.390 . S
C467 C468 1.387 . S
C467 H470 0.950 . S
C468 C467 1.387 . S
C468 C471 1.387 . S
H469 C465 0.950 . S
H470 C467 0.950 . S
C471 C462 1.390 . S
C471 H464 0.950 . S
C471 C468 1.387 . S
C472 C473 1.387 . S
C472 H476 0.950 . S
C472 C481 1.390 . S
C473 C472 1.387 . S
C473 C475 1.387 . S
H474 C481 0.950 . S
C475 C473 1.387 . S
C475 C477 1.390 . S
C475 H479 0.950 . S
H476 C472 0.950 . S
C477 C475 1.390 . S
C477 C478 1.387 . S
C477 H480 0.950 . S
C478 C477 1.387 . S
C478 C481 1.387 . S
H479 C475 0.950 . S
H480 C477 0.950 . S
C481 C472 1.390 . S
C481 H474 0.950 . S
C481 C478 1.387 . S
C482 C483 1.387 . S
C482 H486 0.950 . S
C482 C491 1.390 . S
C483 C482 1.387 . S
C483 C485 1.387 . S
H484 C491 0.950 . S
C485 C483 1.387 . S
C485 C487 1.390 . S
C485 H489 0.950 . S
H486 C482 0.950 . S
C487 C485 1.390 . S
C487 C488 1.387 . S
C487 H490 0.950 . S
C488 C487 1.387 . S
C488 C491 1.387 . S
H489 C485 0.950 . S
H490 C487 0.950 . S
C491 C482 1.390 . S
C491 H484 0.950 . S
C491 C488 1.387 . S
C492 C493 1.387 . S
C492 H496 0.950 . S
C492 C501 1.390 . S
C493 C492 1.387 . S
C493 C495 1.387 . S
H494 C501 0.950 . S
C495 C493 1.387 . S
C495 C497 1.390 . S
C495 H499 0.950 . S
H496 C492 0.950 . S
C497 C495 1.390 . S
C497 C498 1.387 . S
C497 H500 0.950 . S
C498 C497 1.387 . S
C498 C501 1.387 . S
H499 C495 0.950 . S
H500 C497 0.950 . S
C501 C492 1.390 . S
C501 H494 0.950 . S
C501 C498 1.387 . S
C502 C503 1.387 . S
C502 H506 0.950 . S
C502 C511 1.390 . S
C503 C502 1.387 . S
C503 C505 1.387 . S
H504 C511 0.950 . S
C505 C503 1.387 . S
C505 C507 1.390 . S
C505 H509 0.950 . S
H506 C502 0.950 . S
C507 C505 1.390 . S
C507 C508 1.387 . S
C507 H510 0.950 . S
C508 C507 1.387 . S
C508 C511 1.387 . S
H509 C505 0.950 . S
H510 C507 0.950 . S
C511 C502 1.390 . S
C511 H504 0.950 . S
C511 C508 1.387 . S
C512 C513 1.387 . S
C512 H516 0.950 . S
C512 C521 1.390 . S
C513 C512 1.387 . S
C513 C515 1.387 . S
H514 C521 0.950 . S
C515 C513 1.387 . S
C515 C517 1.390 . S
C515 H519 0.950 . S
H516 C512 0.950 . S
C517 C515 1.390 . S
C517 C518 1.387 . S
C517 H520 0.950 . S
C518 C517 1.387 . S
C518 C521 1.387 . S
H519 C515 0.950 . S
H520 C517 0.950 . S
C521 C512 1.390 . S
C521 H514 0.950 . S
C521 C518 1.387 . S
C522 C523 1.387 . S
C522 H526 0.950 . S
C522 C531 1.390 . S
C523 C522 1.387 . S
C523 C525 1.387 . S
H524 C531 0.950 . S
C525 C523 1.387 . S
C525 C527 1.390 . S
C525 H529 0.950 . S
H526 C522 0.950 . S
C527 C525 1.390 . S
C527 C528 1.387 . S
C527 H530 0.950 . S
C528 C527 1.387 . S
C528 C531 1.387 . S
H529 C525 0.950 . S
H530 C527 0.950 . S
C531 C522 1.390 . S
C531 H524 0.950 . S
C531 C528 1.387 . S
C532 C533 1.387 . S
C532 H536 0.950 . S
C532 C541 1.390 . S
C533 C532 1.387 . S
C533 C535 1.387 . S
H534 C541 0.950 . S
C535 C533 1.387 . S
C535 C537 1.390 . S
C535 H539 0.950 . S
H536 C532 0.950 . S
C537 C535 1.390 . S
C537 C538 1.387 . S
C537 H540 0.950 . S
C538 C537 1.387 . S
C538 C541 1.387 . S
H539 C535 0.950 . S
H540 C537 0.950 . S
C541 C532 1.390 . S
C541 H534 0.950 . S
C541 C538 1.387 . S
C542 C543 1.387 . S
C542 H546 0.950 . S
C542 C551 1.390 . S
C543 C542 1.387 . S
C543 C545 1.387 . S
H544 C551 0.950 . S
C545 C543 1.387 . S
C545 C547 1.390 . S
C545 H549 0.950 . S
H546 C542 0.950 . S
C547 C545 1.390 . S
C547 C548 1.387 . S
C547 H550 0.950 . S
C548 C547 1.387 . S
C548 C551 1.387 . S
H549 C545 0.950 . S
H550 C547 0.950 . S
C551 C542 1.390 . S
C551 H544 0.950 . S
C551 C548 1.387 . S
C273 C124 0.994 . S
C278 C15 0.994 . S
C283 C90 0.994 . S
C288 C49 0.994 . S
C293 C56 2.367 . S
C298 C83 2.367 . S
C303 C22 2.366 . S
C308 C117 2.366 . S
C313 C151 1.000 . S
C318 C260 1.000 . S
C323 C185 0.994 . S
C328 C226 0.994 . S
C333 C192 2.367 . S
C338 C219 2.367 . S
C343 C158 2.367 . S
C348 C253 2.367 . S
C353 C74 1.509 . S
C358 C28 1.509 . S
C363 C108 1.508 . S
C368 C62 1.508 . S
C373 C210 1.508 . S
C378 C164 1.508 . S
C383 C244 1.509 . S
C388 C198 1.509 . S
C393 C1 1.277 . S
C398 C176 1.344 . S
C403 C35 1.274 . S
C408 C142 1.344 . S
C413 C266 1.345 . S
C418 C71 1.276 . S
C423 C232 1.343 . S
C428 C105 1.276 . S
C433 C40 1.345 . S
C438 C137 1.276 . S
C443 C6 1.344 . S
C448 C171 1.277 . S
C453 C130 1.345 . S
C458 C207 1.276 . S
C463 C96 1.344 . S
C468 C241 1.273 . S
C473 C3 1.578 . S
C478 C17 1.727 . S
C483 C37 1.578 . S
C488 C51 1.727 1_554 S
C493 C69 1.574 . S
C498 C85 1.726 . S
C503 C103 1.578 . S
C508 C119 1.727 1_556 S
C513 C139 1.579 . S
C518 C153 1.725 . S
C523 C173 1.578 . S
C528 C187 1.727 1_554 S
C533 C205 1.577 . S
C538 C221 1.727 . S
C543 C239 1.578 . S
C548 C255 1.727 1_556 S
