# Generated by pormake.
# Topology uon, (4)-cn, num edge types: 1
# Building blocks:
#     Node 0, Type 0, BuildingBlock: KOZSID_clean_sbu_0, # of connection points: 4
#     Node 1, Type 0, BuildingBlock: KOZSID_clean_sbu_0, # of connection points: 4
#     Node 2, Type 0, BuildingBlock: KOZSID_clean_sbu_0, # of connection points: 4
#     Node 3, Type 0, BuildingBlock: KOZSID_clean_sbu_0, # of connection points: 4
#     Node 4, Type 0, BuildingBlock: KOZSID_clean_sbu_0, # of connection points: 4
#     Node 5, Type 0, BuildingBlock: KOZSID_clean_sbu_0, # of connection points: 4
#     Edge 6, Type (0, 0), BuildingBlock: UVAHIK_clean_linker_0, # of connection points: 2
#     Edge 7, Type (0, 0), BuildingBlock: UVAHIK_clean_linker_0, # of connection points: 2
#     Edge 8, Type (0, 0), BuildingBlock: UVAHIK_clean_linker_0, # of connection points: 2
#     Edge 9, Type (0, 0), BuildingBlock: UVAHIK_clean_linker_0, # of connection points: 2
#     Edge 10, Type (0, 0), BuildingBlock: UVAHIK_clean_linker_0, # of connection points: 2
#     Edge 11, Type (0, 0), BuildingBlock: UVAHIK_clean_linker_0, # of connection points: 2
#     Edge 12, Type (0, 0), BuildingBlock: UVAHIK_clean_linker_0, # of connection points: 2
#     Edge 13, Type (0, 0), BuildingBlock: UVAHIK_clean_linker_0, # of connection points: 2
#     Edge 14, Type (0, 0), BuildingBlock: UVAHIK_clean_linker_0, # of connection points: 2
#     Edge 15, Type (0, 0), BuildingBlock: UVAHIK_clean_linker_0, # of connection points: 2
#     Edge 16, Type (0, 0), BuildingBlock: UVAHIK_clean_linker_0, # of connection points: 2
#     Edge 17, Type (0, 0), BuildingBlock: UVAHIK_clean_linker_0, # of connection points: 2
# Relax obj value: 0.068
# Max RMSD: 0.128
# Mean RMSD: 0.128
data_MOF--net-uon--node1-KOZSID_clean_sbu_0--edge1-UVAHIK_clean_linker_0
_symmetry_space_group_name_H-M    P1
_symmetry_Int_Tables_number       1
_symmetry_cell_setting            triclinic
loop_
_symmetry_equiv_pos_as_xyz
'x, y, z'
_cell_length_a     47.507634
_cell_length_b     47.506964
_cell_length_c     42.071003
_cell_angle_alpha  90.033119
_cell_angle_beta   89.96412
_cell_angle_gamma 120.03232
loop_
_atom_site_label
_atom_site_type_symbol
_atom_site_fract_x
_atom_site_fract_y
_atom_site_fract_z
_atom_type_partial_charge
C0 C 0.14191 0.36862 0.01715 0.0
C1 C 0.11079 0.35598 0.00482 0.0
C2 C 0.11364 0.3733 0.97796 0.0
C3 C 0.14617 0.39539 0.97543 0.0
N4 N 0.16435 0.39296 0.99883 0.0
Co5 Co 0.21262 0.42027 0.00439 0.0
N6 N 0.21622 0.44844 0.96739 0.0
C7 C 0.19149 0.44697 0.95015 0.0
C8 C 0.20143 0.46997 0.92666 0.0
C9 C 0.23452 0.48692 0.92877 0.0
C10 C 0.24287 0.47299 0.95335 0.0
N11 N 0.26118 0.44667 0.00896 0.0
C12 C 0.28368 0.47019 0.98986 0.0
C13 C 0.31511 0.48014 0.0 0.0
C14 C 0.3124 0.46223 0.02634 0.0
C15 C 0.27966 0.44225 0.03064 0.0
N16 N 0.2088 0.39299 0.04231 0.0
C17 C 0.23317 0.39609 0.06129 0.0
C18 C 0.22278 0.37524 0.08671 0.0
C19 C 0.1897 0.35828 0.08424 0.0
C20 C 0.18191 0.36981 0.05732 0.0
N21 N 0.21844 0.3904 0.97568 0.0
C22 C 0.23285 0.35369 0.93295 0.0
C23 C 0.24354 0.35808 0.96441 0.0
C24 C 0.23611 0.3763 0.98517 0.0
C25 C 0.21335 0.36656 0.92366 0.0
C26 C 0.20638 0.38458 0.94529 0.0
N27 N 0.20689 0.45019 0.03315 0.0
C28 C 0.22255 0.48385 0.08025 0.0
C29 C 0.19726 0.49044 0.07587 0.0
C30 C 0.17713 0.47684 0.04938 0.0
C31 C 0.18241 0.45708 0.02844 0.0
C32 C 0.22682 0.46382 0.05891 0.0
H33 H 0.16617 0.44741 0.00879 0.0
H34 H 0.24636 0.45961 0.0639 0.0
H35 H 0.24553 0.37912 0.00859 0.0
H36 H 0.19183 0.3942 0.93664 0.0
C37 C 0.1597 0.4214 0.95413 0.0
C38 C 0.14859 0.35896 0.04778 0.0
C39 C 0.27642 0.48269 0.9612 0.0
C40 C 0.26553 0.41892 0.05461 0.0
H41 H 0.08821 0.33709 0.01485 0.0
H42 H 0.09412 0.37116 0.96301 0.0
H43 H 0.18649 0.47319 0.90927 0.0
H44 H 0.25073 0.50667 0.91334 0.0
H45 H 0.33774 0.498 0.98918 0.0
H46 H 0.33199 0.46319 0.04032 0.0
H47 H 0.23746 0.37305 0.10513 0.0
H48 H 0.17308 0.33988 0.10063 0.0
H49 H 0.25801 0.34785 0.97299 0.0
H50 H 0.20445 0.36378 0.89951 0.0
H51 H 0.2393 0.4943 0.09998 0.0
H52 H 0.157 0.48094 0.045 0.0
C53 C 0.77503 0.14186 0.35421 0.0
C54 C 0.75652 0.11031 0.34284 0.0
C55 C 0.74257 0.11227 0.31524 0.0
C56 C 0.75331 0.14472 0.31135 0.0
N57 N 0.77352 0.16369 0.33464 0.0
Co58 Co 0.79468 0.21218 0.33835 0.0
N59 N 0.77108 0.2146 0.29983 0.0
C60 C 0.7488 0.18934 0.28234 0.0
C61 C 0.73689 0.19844 0.25717 0.0
C62 C 0.75252 0.23153 0.25856 0.0
C63 C 0.77313 0.24075 0.28469 0.0
N64 N 0.81694 0.26086 0.34128 0.0
C65 C 0.81547 0.28269 0.32161 0.0
C66 C 0.83585 0.31442 0.33169 0.0
C67 C 0.85119 0.31263 0.35835 0.0
C68 C 0.83933 0.28008 0.36306 0.0
N69 N 0.81722 0.20963 0.37768 0.0
C70 C 0.83824 0.23466 0.39623 0.0
C71 C 0.84833 0.22518 0.42257 0.0
C72 C 0.83236 0.19205 0.42112 0.0
C73 C 0.81342 0.18329 0.39384 0.0
N74 N 0.83104 0.2169 0.31125 0.0
C75 C 0.8832 0.23085 0.27007 0.0
C76 C 0.88876 0.24247 0.30123 0.0
C77 C 0.86261 0.23522 0.32123 0.0
C78 C 0.85109 0.2104 0.26047 0.0
C79 C 0.82556 0.20364 0.28136 0.0
N80 N 0.75842 0.20767 0.36543 0.0
C81 C 0.7396 0.22545 0.41036 0.0
C82 C 0.70761 0.20087 0.40512 0.0
C83 C 0.70138 0.1797 0.37962 0.0
C84 C 0.72694 0.18365 0.36006 0.0
C85 C 0.76439 0.22831 0.39051 0.0
H86 H 0.72069 0.16696 0.3408 0.0
H87 H 0.78822 0.24731 0.39614 0.0
H88 H 0.86869 0.24542 0.3444 0.0
H89 H 0.80163 0.18835 0.27247 0.0
C90 C 0.74202 0.15765 0.28821 0.0
C91 C 0.79163 0.14961 0.38477 0.0
C92 C 0.79537 0.27463 0.29314 0.0
C93 C 0.84803 0.26679 0.3882 0.0
H94 H 0.75264 0.08807 0.35385 0.0
H95 H 0.72556 0.09229 0.30047 0.0
H96 H 0.71973 0.18294 0.23929 0.0
H97 H 0.74965 0.24707 0.24167 0.0
H98 H 0.83934 0.33659 0.32084 0.0
H99 H 0.86888 0.33268 0.3726 0.0
H100 H 0.86501 0.24051 0.44085 0.0
H101 H 0.83411 0.17608 0.43834 0.0
H102 H 0.91326 0.25763 0.31009 0.0
H103 H 0.84552 0.20066 0.23656 0.0
H104 H 0.74568 0.24216 0.43011 0.0
H105 H 0.67686 0.16042 0.37454 0.0
C106 C 0.63349 0.77403 0.68286 0.0
C107 C 0.64626 0.75532 0.67147 0.0
C108 C 0.62936 0.74045 0.64454 0.0
C109 C 0.60745 0.75099 0.64104 0.0
N110 N 0.60957 0.77201 0.66388 0.0
Co111 Co 0.58267 0.79355 0.66789 0.0
N112 N 0.55524 0.76878 0.63047 0.0
C113 C 0.55757 0.74596 0.61322 0.0
C114 C 0.53582 0.7335 0.58867 0.0
C115 C 0.51859 0.74932 0.59018 0.0
C116 C 0.53077 0.77057 0.61582 0.0
N117 N 0.55648 0.81599 0.67119 0.0
C118 C 0.53243 0.81389 0.65223 0.0
C119 C 0.52132 0.83442 0.66245 0.0
C120 C 0.5394 0.85052 0.68843 0.0
C121 C 0.56037 0.83892 0.69265 0.0
N122 N 0.60941 0.81744 0.70603 0.0
C123 C 0.60637 0.83928 0.7242 0.0
C124 C 0.6269 0.85009 0.74986 0.0
C125 C 0.64367 0.83372 0.74836 0.0
C126 C 0.63238 0.81393 0.72171 0.0
N127 N 0.61353 0.82889 0.63935 0.0
C128 C 0.65491 0.8794 0.59789 0.0
C129 C 0.64764 0.88619 0.62808 0.0
C130 C 0.6271 0.86083 0.6482 0.0
C131 C 0.64163 0.84688 0.58899 0.0
C132 C 0.62129 0.82221 0.60997 0.0
N133 N 0.55187 0.75827 0.69649 0.0
C134 C 0.51805 0.7411 0.74349 0.0
C135 C 0.51018 0.70884 0.7389 0.0
C136 C 0.52321 0.70169 0.71234 0.0
C137 C 0.54374 0.72656 0.69155 0.0
C138 C 0.53878 0.76516 0.7223 0.0
H139 H 0.55298 0.71959 0.6718 0.0
H140 H 0.54393 0.78918 0.72745 0.0
H141 H 0.62222 0.86781 0.6706 0.0
H142 H 0.61193 0.79797 0.60172 0.0
C143 C 0.58249 0.7391 0.61864 0.0
C144 C 0.64307 0.79113 0.71309 0.0
C145 C 0.51948 0.7931 0.62426 0.0
C146 C 0.58352 0.84861 0.71686 0.0
H147 H 0.66511 0.75197 0.68215 0.0
H148 H 0.63186 0.72303 0.62998 0.0
H149 H 0.53356 0.71586 0.57106 0.0
H150 H 0.4998 0.74612 0.57363 0.0
H151 H 0.5022 0.83753 0.65211 0.0
H152 H 0.53754 0.86858 0.70253 0.0
H153 H 0.62896 0.8673 0.76787 0.0
H154 H 0.66176 0.83565 0.76522 0.0
H155 H 0.65701 0.91103 0.63592 0.0
H156 H 0.64688 0.84042 0.56593 0.0
H157 H 0.50807 0.74789 0.76326 0.0
H158 H 0.51808 0.67713 0.70779 0.0
C159 C 0.85684 0.63226 0.01837 0.0
C160 C 0.88828 0.64341 0.00751 0.0
C161 C 0.88574 0.62576 0.98101 0.0
C162 C 0.85307 0.60488 0.9773 0.0
N163 N 0.83448 0.60847 -0.00052 0.0
Co164 Co 0.786 0.58188 0.00417 0.0
N165 N 0.78248 0.55397 0.96682 0.0
C166 C 0.80705 0.55711 0.94806 0.0
C167 C 0.79712 0.53551 0.92333 0.0
C168 C 0.76418 0.51756 0.92624 0.0
C169 C 0.75588 0.52916 0.9529 0.0
N170 N 0.73756 0.55491 0.00926 0.0
C171 C 0.71528 0.5295 0.99176 0.0
C172 C 0.68408 0.5173 0.00378 0.0
C173 C 0.68663 0.53597 0.02947 0.0
C174 C 0.71911 0.55829 0.03182 0.0
N175 N 0.78948 0.61015 0.04117 0.0
C176 C 0.76482 0.60861 0.05865 0.0
C177 C 0.77497 0.63084 0.08293 0.0
C178 C 0.8081 0.64727 0.08113 0.0
C179 C 0.8162 0.63395 0.05583 0.0
N180 N 0.78043 0.61165 0.97503 0.0
C181 C 0.76742 0.64847 0.93119 0.0
C182 C 0.75072 0.63855 0.95997 0.0
C183 C 0.75762 0.62049 0.98136 0.0
C184 C 0.79195 0.6411 0.92532 0.0
C185 C 0.79802 0.62278 0.94743 0.0
N186 N 0.79135 0.552 0.03323 0.0
C187 C 0.77881 0.52273 0.08294 0.0
C188 C 0.79711 0.5083 0.0744 0.0
C189 C 0.81315 0.51676 0.04507 0.0
C190 C 0.81005 0.53859 0.02504 0.0
C191 C 0.77618 0.54413 0.0622 0.0
H192 H 0.82281 0.54411 0.00299 0.0
H193 H 0.76165 0.55395 0.0702 0.0
H194 H 0.74366 0.61347 0.00255 0.0
H195 H 0.81654 0.61738 0.94133 0.0
C196 C 0.83921 0.58084 0.95404 0.0
C197 C 0.84957 0.6434 0.04786 0.0
C198 C 0.72236 0.51646 0.9634 0.0
C199 C 0.73275 0.58378 0.05382 0.0
H200 H 0.9108 0.66181 0.01807 0.0
H201 H 0.9054 0.62734 0.96666 0.0
H202 H 0.81202 0.53336 0.9051 0.0
H203 H 0.74813 0.49843 0.9102 0.0
H204 H 0.66172 0.4972 0.99468 0.0
H205 H 0.66707 0.53387 0.04433 0.0
H206 H 0.76011 0.63385 0.1006 0.0
H207 H 0.82455 0.66624 0.09715 0.0
H208 H 0.73201 0.64438 0.96588 0.0
H209 H 0.8056 0.64839 0.9033 0.0
H210 H 0.76657 0.51772 0.10571 0.0
H211 H 0.82756 0.50618 0.03728 0.0
C212 C 0.22732 0.86019 0.34996 0.0
C213 C 0.24762 0.89088 0.33739 0.0
C214 C 0.2609 0.88646 0.31045 0.0
C215 C 0.24804 0.8535 0.30812 0.0
N216 N 0.22708 0.83652 0.33179 0.0
Co217 Co 0.20302 0.78813 0.33773 0.0
N218 N 0.22505 0.78196 0.29985 0.0
C219 C 0.24833 0.8055 0.28151 0.0
C220 C 0.25934 0.7939 0.25762 0.0
C221 C 0.24183 0.76092 0.26063 0.0
C222 C 0.22084 0.75432 0.28614 0.0
N223 N 0.17825 0.7396 0.34311 0.0
C224 C 0.17754 0.71591 0.32449 0.0
C225 C 0.15528 0.68513 0.3356 0.0
C226 C 0.14135 0.68947 0.36211 0.0
C227 C 0.15566 0.72249 0.36558 0.0
N228 N 0.18171 0.7944 0.37621 0.0
C229 C 0.15956 0.771 0.39553 0.0
C230 C 0.15042 0.78286 0.42079 0.0
C231 C 0.16817 0.81585 0.41774 0.0
C232 C 0.18715 0.82216 0.39069 0.0
N233 N 0.16752 0.78456 0.31006 0.0
C234 C 0.11605 0.77158 0.26833 0.0
C235 C 0.11006 0.76122 0.29989 0.0
C236 C 0.13586 0.76792 0.32012 0.0
C237 C 0.14838 0.79045 0.25854 0.0
C238 C 0.17358 0.79678 0.27973 0.0
N239 N 0.23841 0.79143 0.36537 0.0
C240 C 0.25538 0.77493 0.41252 0.0
C241 C 0.28814 0.79519 0.40491 0.0
C242 C 0.29556 0.81395 0.37727 0.0
C243 C 0.27052 0.81179 0.35805 0.0
C244 C 0.23122 0.77332 0.39258 0.0
H245 H 0.27771 0.82675 0.33738 0.0
H246 H 0.20688 0.75724 0.39978 0.0
H247 H 0.12937 0.7586 0.34356 0.0
H248 H 0.1977 0.81084 0.27075 0.0
C249 C 0.25755 0.83811 0.28585 0.0
C250 C 0.21054 0.85492 0.38025 0.0
C251 C 0.19645 0.72142 0.29547 0.0
C252 C 0.14804 0.7381 0.3894 0.0
H253 H 0.25301 0.91413 0.34715 0.0
H254 H 0.27874 0.90512 0.29505 0.0
H255 H 0.27736 0.80773 0.23966 0.0
H256 H 0.24382 0.74367 0.24534 0.0
H257 H 0.14925 0.66189 0.32533 0.0
H258 H 0.1226 0.67078 0.37679 0.0
H259 H 0.13323 0.76916 0.4394 0.0
H260 H 0.16753 0.83334 0.43379 0.0
H261 H 0.08544 0.74738 0.3089 0.0
H262 H 0.15428 0.79922 0.23433 0.0
H263 H 0.24821 0.76044 0.43401 0.0
H264 H 0.32056 0.82989 0.37016 0.0
C265 C 0.37046 0.23125 0.68133 0.0
C266 C 0.362 0.2534 0.66984 0.0
C267 C 0.38124 0.26791 0.64402 0.0
C268 C 0.40024 0.25385 0.64125 0.0
N269 N 0.39401 0.23089 0.66349 0.0
Co270 Co 0.41621 0.2047 0.66863 0.0
N271 N 0.44681 0.22845 0.63275 0.0
C272 C 0.44857 0.2534 0.61562 0.0
C273 C 0.47234 0.26504 0.59281 0.0
C274 C 0.4864 0.24619 0.59521 0.0
C275 C 0.47011 0.22385 0.6193 0.0
N276 N 0.43802 0.17801 0.67333 0.0
C277 C 0.46151 0.17755 0.65535 0.0
C278 C 0.46847 0.15394 0.66567 0.0
C279 C 0.44863 0.13887 0.69099 0.0
C280 C 0.43062 0.1539 0.69459 0.0
N281 N 0.38598 0.18139 0.70496 0.0
C282 C 0.38479 0.15713 0.72282 0.0
C283 C 0.36244 0.14708 0.74696 0.0
C284 C 0.3489 0.16646 0.74477 0.0
C285 C 0.36388 0.18722 0.71932 0.0
N286 N 0.385 0.17199 0.63819 0.0
C287 C 0.34386 0.12488 0.59377 0.0
C288 C 0.3484 0.11589 0.62406 0.0
C289 C 0.36887 0.13958 0.64565 0.0
C290 C 0.35965 0.15795 0.58628 0.0
C291 C 0.37978 0.18094 0.60875 0.0
N292 N 0.44743 0.23735 0.69909 0.0
C293 C 0.47691 0.25004 0.74874 0.0
C294 C 0.49092 0.28339 0.74318 0.0
C295 C 0.48263 0.29326 0.7151 0.0
C296 C 0.46096 0.27004 0.69363 0.0
C297 C 0.4556 0.22772 0.72657 0.0
H298 H 0.4555 0.27912 0.6728 0.0
H299 H 0.4459 0.20277 0.73235 0.0
H300 H 0.37166 0.13089 0.66798 0.0
H301 H 0.39118 0.20573 0.6016 0.0
C302 C 0.4261 0.26382 0.62003 0.0
C303 C 0.35733 0.21302 0.71063 0.0
C304 C 0.47677 0.19793 0.62754 0.0
C305 C 0.4059 0.14521 0.71702 0.0
H306 H 0.34448 0.25921 0.6797 0.0
H307 H 0.38217 0.2873 0.62974 0.0
H308 H 0.47819 0.28439 0.57592 0.0
H309 H 0.50599 0.24822 0.58044 0.0
H310 H 0.48564 0.14777 0.65558 0.0
H311 H 0.44702 0.11884 0.7047 0.0
H312 H 0.35717 0.12842 0.76451 0.0
H313 H 0.33056 0.16588 0.76047 0.0
H314 H 0.33703 0.09053 0.63086 0.0
H315 H 0.35658 0.16608 0.56317 0.0
H316 H 0.48198 0.24101 0.77036 0.0
H317 H 0.49307 0.31879 0.70942 0.0
C318 C 0.27569 0.34364 0.91018 0.0
C319 C 0.24344 0.33727 0.90976 0.0
C320 C 0.28626 0.32906 0.8881 0.0
C321 C 0.25787 0.26007 0.83273 0.0
H322 H 0.34349 0.31305 0.7958 0.0
C323 C 0.30934 0.21591 0.73108 0.0
C324 C 0.34205 0.22446 0.73402 0.0
C325 C 0.29575 0.22849 0.75231 0.0
C326 C 0.31966 0.29785 0.80613 0.0
H327 H 0.19687 0.31025 0.88597 0.0
H328 H 0.21557 0.28502 0.84691 0.0
H329 H 0.32243 0.33747 0.83273 0.0
H330 H 0.38621 0.25181 0.76121 0.0
H331 H 0.36256 0.2737 0.79862 0.0
H332 H 0.25525 0.2204 0.80597 0.0
C333 C 0.23254 0.30114 0.8646 0.0
C334 C 0.30759 0.31184 0.82728 0.0
C335 C 0.22193 0.31582 0.88675 0.0
C336 C 0.36091 0.24509 0.75866 0.0
C337 C 0.34742 0.25772 0.77981 0.0
C338 C 0.26997 0.24604 0.81146 0.0
C339 C 0.26491 0.30781 0.86493 0.0
C340 C 0.27674 0.29305 0.84115 0.0
C341 C 0.31481 0.24988 0.77664 0.0
C342 C 0.30118 0.26473 0.79826 0.0
H343 H 0.29302 0.36039 0.92729 0.0
H344 H 0.31122 0.33437 0.88928 0.0
H345 H 0.23412 0.24491 0.84322 0.0
H346 H 0.29456 0.2 0.71205 0.0
H347 H 0.27064 0.2222 0.74916 0.0
C348 C 0.93574 0.27432 0.24729 0.0
C349 C 0.91066 0.24168 0.24737 0.0
C350 C 0.96114 0.28521 0.22547 0.0
C351 C 0.00426 0.25821 0.17189 0.0
H352 H 0.03303 0.34195 0.1322 0.0
C353 C 0.09937 0.31013 0.06978 0.0
C354 C 0.12216 0.34342 0.07146 0.0
C355 C 0.07341 0.29618 0.09124 0.0
C356 C 0.02552 0.31868 0.14331 0.0
H357 H 0.89285 0.19473 0.2248 0.0
H358 H 0.93727 0.21396 0.18618 0.0
H359 H 0.98759 0.32017 0.16921 0.0
H360 H 0.13684 0.38824 0.09683 0.0
H361 H 0.09174 0.36397 0.1347 0.0
H362 H 0.04241 0.25689 0.14587 0.0
C363 C 0.93727 0.231 0.20329 0.0
C364 C -0.00053 0.30619 0.1645 0.0
C365 C 0.91171 0.22007 0.22519 0.0
C366 C 0.1193 0.3625 0.09521 0.0
C367 C 0.09343 0.34864 0.11662 0.0
C368 C 0.03042 0.27075 0.1506 0.0
C369 C 0.96209 0.26378 0.20305 0.0
C370 C 0.98878 0.27601 0.17934 0.0
C371 C 0.06994 0.31542 0.11462 0.0
C372 C 0.04155 0.30131 0.13639 0.0
H373 H 0.93546 0.29173 0.26375 0.0
H374 H 0.98012 0.31051 0.22619 0.0
H375 H 0.99672 0.235 0.18313 0.0
H376 H 0.10137 0.29514 0.05151 0.0
H377 H 0.05561 0.27059 0.089 0.0
C378 C 0.76148 0.11868 0.43284 0.0
C379 C 0.78323 0.12337 0.40821 0.0
C380 C 0.75206 0.093 0.45415 0.0
C381 C 0.74835 0.0466 0.50544 0.0
H382 H 0.7254 0.96196 0.47117 0.0
C383 C 0.7027 0.93451 0.58635 0.0
C384 C 0.67504 0.90618 0.57553 0.0
C385 C 0.71998 0.96088 0.56595 0.0
C386 C 0.73169 0.98544 0.48109 0.0
H387 H 0.81297 0.10603 0.3865 0.0
H388 H 0.79672 0.06095 0.42403 0.0
H389 H 0.74775 0.00914 0.43605 0.0
H390 H 0.64426 0.88301 0.53462 0.0
H391 H 0.67428 0.92905 0.49905 0.0
H392 H 0.73114 0.02278 0.55018 0.0
C393 C 0.7866 0.0768 0.42671 0.0
C394 C 0.74482 0.01253 0.46104 0.0
C395 C 0.79604 0.10256 0.4054 0.0
C396 C 0.66569 0.90436 0.54357 0.0
C397 C 0.68293 0.93075 0.52318 0.0
C398 C 0.73524 0.01955 0.52546 0.0
C399 C 0.7643 0.07159 0.45119 0.0
C400 C 0.75283 0.04332 0.47291 0.0
C401 C 0.70995 0.95952 0.53429 0.0
C402 C 0.72633 0.98857 0.51343 0.0
H403 H 0.75132 0.13455 0.43517 0.0
H404 H 0.7345 0.0894 0.47243 0.0
H405 H 0.75464 0.07007 0.51538 0.0
H406 H 0.71081 0.93642 0.61073 0.0
H407 H 0.74103 0.98248 0.57508 0.0
C408 C 0.78138 0.69227 0.89039 0.0
C409 C 0.75792 0.66484 0.90703 0.0
C410 C 0.77179 0.70769 0.86805 0.0
C411 C 0.70261 0.69266 0.81706 0.0
H412 H 0.73896 0.78617 0.81912 0.0
C413 C 0.63924 0.7525 0.75481 0.0
C414 C 0.65859 0.78061 0.73707 0.0
C415 C 0.65363 0.74012 0.77505 0.0
C416 C 0.72888 0.76008 0.81802 0.0
H417 H 0.70623 0.63155 0.91277 0.0
H418 H 0.68959 0.65844 0.87417 0.0
H419 H 0.76079 0.76076 0.85445 0.0
H420 H 0.70768 0.81841 0.72643 0.0
H421 H 0.73325 0.79673 0.76209 0.0
H422 H 0.67053 0.69175 0.781 0.0
C423 C 0.71532 0.66808 0.87824 0.0
C424 C 0.7414 0.74557 0.83817 0.0
C425 C 0.72484 0.65289 0.90061 0.0
C426 C 0.69249 0.79679 0.74028 0.0
C427 C 0.70698 0.78441 0.76061 0.0
C428 C 0.69016 0.70711 0.79699 0.0
C429 C 0.73864 0.69564 0.86173 0.0
C430 C 0.7279 0.71163 0.83831 0.0
C431 C 0.68767 0.75558 0.77775 0.0
C432 C 0.70268 0.74088 0.79769 0.0
H433 H 0.80704 0.70205 0.89498 0.0
H434 H 0.79027 0.72881 0.85554 0.0
H435 H 0.69218 0.66651 0.81618 0.0
H436 H 0.613 0.73975 0.75244 0.0
H437 H 0.63809 0.71821 0.78838 0.0
C438 C 0.89911 0.69239 0.06917 0.0
C439 C 0.87538 0.65949 0.07207 0.0
C440 C 0.92502 0.70651 0.09066 0.0
C441 C 0.97096 0.68343 0.14446 0.0
H442 H 0.00443 0.76963 0.18024 0.0
C443 C 0.06257 0.7288 0.2467 0.0
C444 C 0.08869 0.76093 0.24558 0.0
C445 C 0.03698 0.71807 0.22515 0.0
C446 C 0.99558 0.74569 0.17012 0.0
H447 H 0.85884 0.61568 0.09975 0.0
H448 H 0.90385 0.64029 0.13767 0.0
H449 H 0.95802 0.74786 0.14385 0.0
H450 H 0.10823 0.80709 0.22103 0.0
H451 H 0.06345 0.78808 0.18286 0.0
H452 H 0.00831 0.6811 0.17051 0.0
C453 C 0.90293 0.65514 0.11863 0.0
C454 C 0.969 0.73322 0.14935 0.0
C455 C 0.8771 0.64111 0.09719 0.0
C456 C 0.08855 0.78215 0.22237 0.0
C457 C 0.06279 0.77136 0.20074 0.0
C458 C 0.99744 0.69586 0.16509 0.0
C459 C 0.9275 0.68783 0.11527 0.0
C460 C 0.95619 0.70178 0.13663 0.0
C461 C 0.03685 0.73911 0.20178 0.0
C462 C 0.00981 0.72695 0.17849 0.0
H463 H 0.89802 0.70684 0.04981 0.0
H464 H 0.94365 0.73168 0.08737 0.0
H465 H 0.96216 0.65945 0.13444 0.0
H466 H 0.06211 0.71166 0.26395 0.0
H467 H 0.01717 0.6932 0.22688 0.0
C468 C 0.29493 0.07186 0.5788 0.0
C469 C 0.32415 0.09963 0.56989 0.0
C470 C 0.27839 0.04622 0.55746 0.0
C471 C 0.2726 0.02243 0.47264 0.0
H472 H 0.24522 0.93714 0.50797 0.0
C473 C 0.24076 0.88718 0.4277 0.0
C474 C 0.22006 0.88263 0.40214 0.0
C475 C 0.25051 0.91361 0.44813 0.0
C476 C 0.25279 0.96079 0.49772 0.0
H477 H 0.35826 0.12284 0.53121 0.0
H478 H 0.32946 0.07802 0.49395 0.0
H479 H 0.26725 0.98425 0.54292 0.0
H480 H 0.19276 0.90123 0.37766 0.0
H481 H 0.20962 0.94768 0.41362 0.0
H482 H 0.25915 0.99895 0.42723 0.0
C483 C 0.31913 0.07619 0.51733 0.0
C484 C 0.26504 0.98775 0.51781 0.0
C485 C 0.33565 0.10189 0.53868 0.0
C486 C 0.20888 0.90458 0.3973 0.0
C487 C 0.21865 0.9311 0.41772 0.0
C488 C 0.26028 0.99539 0.45252 0.0
C489 C 0.29073 0.04775 0.52675 0.0
C490 C 0.27544 0.01894 0.50548 0.0
C491 C 0.23964 0.93593 0.44334 0.0
C492 C 0.25067 0.96434 0.46481 0.0
H493 H 0.28517 0.06968 0.60253 0.0
H494 H 0.25623 0.02491 0.56522 0.0
H495 H 0.28016 0.0461 0.46247 0.0
H496 H 0.24965 0.87044 0.43162 0.0
H497 H 0.26706 0.9169 0.46733 0.0
C498 C 0.1995 0.67131 0.28359 0.0
C499 C 0.19019 0.69383 0.27437 0.0
C500 C 0.19611 0.64704 0.2625 0.0
C501 C 0.194 0.63084 0.17732 0.0
H502 H 0.16191 0.54159 0.20331 0.0
C503 C 0.18282 0.5336 0.08801 0.0
C504 C 0.19218 0.51145 0.09871 0.0
C505 C 0.17929 0.55415 0.10942 0.0
C506 C 0.17125 0.56649 0.19573 0.0
H507 H 0.16971 0.70878 0.23655 0.0
H508 H 0.16392 0.66643 0.19942 0.0
H509 H 0.16177 0.58049 0.24118 0.0
H510 H 0.20403 0.49284 0.14065 0.0
H511 H 0.19913 0.52941 0.17769 0.0
H512 H 0.20444 0.61735 0.13227 0.0
C513 C 0.17383 0.66746 0.22285 0.0
C514 C 0.17106 0.58871 0.21742 0.0
C515 C 0.17695 0.6915 0.24404 0.0
C516 C 0.19734 0.50997 0.13145 0.0
C517 C 0.19403 0.53065 0.15281 0.0
C518 C 0.19446 0.60873 0.15573 0.0
C519 C 0.18372 0.6452 0.23173 0.0
C520 C 0.18258 0.62115 0.20847 0.0
C521 C 0.1852 0.55319 0.14207 0.0
C522 C 0.18327 0.57629 0.16469 0.0
H523 H 0.21008 0.673 0.30681 0.0
H524 H 0.20425 0.63043 0.26986 0.0
H525 H 0.20348 0.65581 0.16988 0.0
H526 H 0.17888 0.53561 0.06297 0.0
H527 H 0.172 0.57086 0.10033 0.0
C528 C 0.48874 0.18058 0.57563 0.0
C529 C 0.49846 0.19196 0.60671 0.0
C530 C 0.51027 0.17811 0.55474 0.0
C531 C 0.59825 0.2126 0.54183 0.0
H532 H 0.56995 0.14521 0.47761 0.0
C533 C 0.67997 0.22512 0.43611 0.0
C534 C 0.68124 0.19746 0.42651 0.0
C535 C 0.65667 0.22249 0.45797 0.0
C536 C 0.57832 0.16404 0.49558 0.0
H537 H 0.53755 0.20892 0.6409 0.0
H538 H 0.57515 0.20382 0.60473 0.0
H539 H 0.53141 0.1425 0.51759 0.0
H540 H 0.65872 0.14523 0.43183 0.0
H541 H 0.61808 0.14058 0.4704 0.0
H542 H 0.64523 0.23384 0.52031 0.0
C543 C 0.55115 0.19731 0.59619 0.0
C544 C 0.55615 0.16267 0.5183 0.0
C545 C 0.52963 0.19996 0.617 0.0
C546 C 0.65813 0.16693 0.43861 0.0
C547 C 0.63488 0.16429 0.46069 0.0
C548 C 0.62039 0.2139 0.51923 0.0
C549 C 0.54194 0.18693 0.56461 0.0
C550 C 0.56579 0.1871 0.54155 0.0
C551 C 0.63418 0.19214 0.47096 0.0
C552 C 0.61064 0.18987 0.49559 0.0
H553 H 0.46478 0.17452 0.56728 0.0
H554 H 0.50248 0.17046 0.53053 0.0
H555 H 0.60648 0.23206 0.55908 0.0
H556 H 0.6971 0.2489 0.42674 0.0
H557 H 0.65633 0.24432 0.46472 0.0
C558 C 0.46522 0.65191 0.75092 0.0
C559 C 0.48845 0.68306 0.76168 0.0
C560 C 0.44389 0.62829 0.77231 0.0
C561 C 0.43079 0.60821 0.85867 0.0
H562 H 0.34079 0.55441 0.83311 0.0
C563 C 0.32589 0.53581 0.94747 0.0
C564 C 0.30281 0.50392 0.93888 0.0
C565 C 0.34985 0.5561 0.92583 0.0
C566 C 0.36592 0.56901 0.84047 0.0
H567 H 0.50819 0.71325 0.80368 0.0
H568 H 0.47037 0.67268 0.84063 0.0
H569 H 0.38032 0.59251 0.79525 0.0
H570 H 0.28621 0.46798 0.90137 0.0
H571 H 0.32793 0.50359 0.8632 0.0
H572 H 0.41597 0.58524 0.90424 0.0
C573 C 0.46882 0.66623 0.81575 0.0
C574 C 0.38864 0.59079 0.81874 0.0
C575 C 0.49025 0.68973 0.79443 0.0
C576 C 0.30392 0.49254 0.9084 0.0
C577 C 0.32764 0.51291 0.88663 0.0
C578 C 0.40798 0.58664 0.88048 0.0
C579 C 0.44517 0.63527 0.80497 0.0
C580 C 0.42135 0.61086 0.82762 0.0
C581 C 0.35079 0.54494 0.89509 0.0
C582 C 0.37528 0.56696 0.87166 0.0
H583 H 0.46296 0.64595 0.72586 0.0
H584 H 0.42631 0.60457 0.76319 0.0
H585 H 0.45585 0.6228 0.86619 0.0
H586 H 0.32512 0.54509 0.97079 0.0
H587 H 0.36712 0.58079 0.93287 0.0
C588 C 0.77153 0.46251 0.11366 0.0
C589 C 0.79899 0.48452 0.09604 0.0
C590 C 0.77338 0.44124 0.13527 0.0
C591 C 0.81858 0.40011 0.15545 0.0
H592 H 0.78075 0.39243 0.23897 0.0
C593 C 0.82623 0.31899 0.25365 0.0
C594 C 0.79822 0.30098 0.2721 0.0
C595 C 0.82848 0.34308 0.23299 0.0
C596 C 0.79112 0.39397 0.21566 0.0
H597 H 0.84985 0.50083 0.08698 0.0
H598 H 0.85283 0.46298 0.12441 0.0
H599 H 0.78043 0.43064 0.20059 0.0
H600 H 0.75086 0.29386 0.28414 0.0
H601 H 0.75421 0.33534 0.24751 0.0
H602 H 0.82852 0.36283 0.17013 0.0
C603 C 0.82992 0.46245 0.12142 0.0
C604 C 0.79101 0.41596 0.19372 0.0
C605 C 0.82816 0.48402 0.09993 0.0
C606 C 0.77266 0.30759 0.27003 0.0
C607 C 0.77477 0.33148 0.24924 0.0
C608 C 0.81844 0.37786 0.17732 0.0
C609 C 0.80263 0.44117 0.13961 0.0
C610 C 0.80443 0.41902 0.16329 0.0
C611 C 0.80266 0.34947 0.23034 0.0
C612 C 0.80439 0.37428 0.2076 0.0
H613 H 0.74844 0.46159 0.11072 0.0
H614 H 0.75178 0.42464 0.14848 0.0
H615 H 0.82887 0.4018 0.13206 0.0
H616 H 0.84623 0.31421 0.25509 0.0
H617 H 0.85049 0.35675 0.21918 0.0
C618 C 0.30962 0.76805 0.44076 0.0
C619 C 0.31405 0.79643 0.42576 0.0
C620 C 0.33303 0.76916 0.46153 0.0
C621 C 0.4032 0.82618 0.51111 0.0
H622 H 0.41747 0.75274 0.51591 0.0
C623 C 0.50564 0.82384 0.58495 0.0
C624 C 0.49579 0.79583 0.60339 0.0
C625 C 0.48399 0.8255 0.56357 0.0
C626 C 0.41356 0.77332 0.51494 0.0
H627 H 0.34711 0.84827 0.42057 0.0
H628 H 0.38863 0.84999 0.45587 0.0
H629 H 0.38018 0.75288 0.47632 0.0
H630 H 0.45575 0.74818 0.61513 0.0
H631 H 0.41789 0.75073 0.57723 0.0
H632 H 0.43737 0.84679 0.54945 0.0
C633 C 0.3666 0.82695 0.45212 0.0
C634 C 0.39212 0.77341 0.49233 0.0
C635 C 0.34296 0.82588 0.4315 0.0
C636 C 0.4638 0.76988 0.60088 0.0
C637 C 0.44231 0.77132 0.5792 0.0
C638 C 0.42503 0.82626 0.53348 0.0
C639 C 0.3618 0.79862 0.46759 0.0
C640 C 0.38627 0.79961 0.49039 0.0
C641 C 0.45232 0.799 0.56009 0.0
C642 C 0.43005 0.79962 0.53586 0.0
H643 H 0.28795 0.74481 0.43652 0.0
H644 H 0.32819 0.74691 0.47327 0.0
H645 H 0.39903 0.84659 0.51063 0.0
H646 H 0.53029 0.84409 0.58663 0.0
H647 H 0.49231 0.84705 0.54904 0.0
C648 C 0.53624 0.30146 0.7829 0.0
C649 C 0.51402 0.3075 0.76647 0.0
C650 C 0.5576 0.32371 0.80515 0.0
C651 C 0.57104 0.39384 0.85519 0.0
H652 H 0.65862 0.40785 0.86091 0.0
C653 C 0.67533 0.49907 0.92632 0.0
C654 C 0.69536 0.49117 0.94413 0.0
C655 C 0.65163 0.47603 0.90612 0.0
C656 C 0.63413 0.40394 0.85982 0.0
H657 H 0.49692 0.34186 0.76081 0.0
H658 H 0.53504 0.38124 0.79874 0.0
H659 H 0.62107 0.36973 0.82188 0.0
H660 H 0.70598 0.45317 0.95599 0.0
H661 H 0.66465 0.41274 0.9204 0.0
H662 H 0.58464 0.42878 0.89279 0.0
C663 C 0.5355 0.35894 0.79485 0.0
C664 C 0.61255 0.38204 0.83748 0.0
C665 C 0.51393 0.33654 0.77272 0.0
C666 C 0.6908 0.45969 0.94225 0.0
C667 C 0.66735 0.43674 0.92184 0.0
C668 C 0.59278 0.41601 0.87736 0.0
C669 C 0.55759 0.35279 0.81139 0.0
C670 C 0.58066 0.37656 0.83494 0.0
C671 C 0.64781 0.44481 0.90325 0.0
C672 C 0.6245 0.42116 0.87999 0.0
H673 H 0.53737 0.2796 0.77843 0.0
H674 H 0.57393 0.31789 0.8177 0.0
H675 H 0.54655 0.3899 0.85427 0.0
H676 H 0.67862 0.52332 0.92747 0.0
H677 H 0.63706 0.48297 0.89194 0.0
loop_
_geom_bond_atom_site_label_1
_geom_bond_atom_site_label_2
_geom_bond_distance
_geom_bond_site_symmetry_2
_ccdc_geom_bond_type
C0 C1 1.443 . S
C0 N4 1.376 . S
C0 C38 1.389 . S
C1 C0 1.443 . S
C1 C2 1.340 1_554 S
C1 H41 0.951 . S
C2 C1 1.340 1_556 S
C2 C3 1.439 . S
C2 H42 0.950 . S
C3 C2 1.439 . S
C3 N4 1.374 1_556 S
C3 C37 1.395 . S
N4 C0 1.376 . S
N4 C3 1.374 1_554 S
N4 Co5 2.008 . S
Co5 N4 2.008 . S
Co5 N6 1.995 1_554 S
Co5 N11 2.008 . S
Co5 N16 1.995 . S
Co5 N21 2.282 1_554 S
Co5 N27 2.282 . S
N6 Co5 1.995 1_556 S
N6 C7 1.376 . S
N6 C10 1.383 . S
C7 N6 1.376 . S
C7 C8 1.446 . S
C7 C37 1.391 . S
C8 C7 1.446 . S
C8 C9 1.339 . S
C8 H43 0.949 . S
C9 C8 1.339 . S
C9 C10 1.439 . S
C9 H44 0.950 . S
C10 N6 1.383 . S
C10 C9 1.439 . S
C10 C39 1.392 . S
N11 Co5 2.008 . S
N11 C12 1.376 1_554 S
N11 C15 1.374 . S
C12 N11 1.376 1_556 S
C12 C13 1.443 . S
C12 C39 1.389 . S
C13 C12 1.443 . S
C13 C14 1.340 1_556 S
C13 H45 0.951 . S
C14 C13 1.340 1_554 S
C14 C15 1.439 . S
C14 H46 0.950 . S
C15 N11 1.374 . S
C15 C14 1.439 . S
C15 C40 1.395 . S
N16 Co5 1.995 . S
N16 C17 1.376 . S
N16 C20 1.383 . S
C17 N16 1.376 . S
C17 C18 1.446 . S
C17 C40 1.391 . S
C18 C17 1.446 . S
C18 C19 1.339 . S
C18 H47 0.949 . S
C19 C18 1.339 . S
C19 C20 1.439 . S
C19 H48 0.950 . S
C20 N16 1.383 . S
C20 C19 1.439 . S
C20 C38 1.392 . S
N21 Co5 2.282 1_556 S
N21 C24 1.332 . S
N21 C26 1.332 . S
C22 C23 1.386 . S
C22 C25 1.388 . S
C23 C22 1.386 . S
C23 C24 1.382 . S
C23 H49 0.950 . S
C24 N21 1.332 . S
C24 C23 1.382 . S
C24 H35 0.952 1_556 S
C25 C22 1.388 . S
C25 C26 1.382 . S
C25 H50 0.950 . S
C26 N21 1.332 . S
C26 C25 1.382 . S
C26 H36 0.948 . S
N27 Co5 2.282 . S
N27 C31 1.332 . S
N27 C32 1.332 . S
C28 C29 1.388 . S
C28 C32 1.382 . S
C28 H51 0.950 . S
C29 C28 1.388 . S
C29 C30 1.386 . S
C30 C29 1.386 . S
C30 C31 1.382 . S
C30 H52 0.950 . S
C31 N27 1.332 . S
C31 C30 1.382 . S
C31 H33 0.952 . S
C32 N27 1.332 . S
C32 C28 1.382 . S
C32 H34 0.948 . S
H33 C31 0.952 . S
H34 C32 0.948 . S
H35 C24 0.952 1_554 S
H36 C26 0.948 . S
C37 C3 1.395 . S
C37 C7 1.391 . S
C38 C0 1.389 . S
C38 C20 1.392 . S
C39 C10 1.392 . S
C39 C12 1.389 . S
C40 C15 1.395 . S
C40 C17 1.391 . S
H41 C1 0.951 . S
H42 C2 0.950 . S
H43 C8 0.949 . S
H44 C9 0.950 . S
H45 C13 0.951 . S
H46 C14 0.950 . S
H47 C18 0.949 . S
H48 C19 0.950 . S
H49 C23 0.950 . S
H50 C25 0.950 . S
H51 C28 0.950 . S
H52 C30 0.950 . S
C53 C54 1.443 . S
C53 N57 1.376 . S
C53 C91 1.389 . S
C54 C53 1.443 . S
C54 C55 1.340 . S
C54 H94 0.951 . S
C55 C54 1.340 . S
C55 C56 1.439 . S
C55 H95 0.950 . S
C56 C55 1.439 . S
C56 N57 1.374 . S
C56 C90 1.395 . S
N57 C53 1.376 . S
N57 C56 1.374 . S
N57 Co58 2.008 . S
Co58 N57 2.008 . S
Co58 N59 1.995 . S
Co58 N64 2.008 . S
Co58 N69 1.995 . S
Co58 N74 2.282 . S
Co58 N80 2.282 . S
N59 Co58 1.995 . S
N59 C60 1.376 . S
N59 C63 1.383 . S
C60 N59 1.376 . S
C60 C61 1.446 . S
C60 C90 1.391 . S
C61 C60 1.446 . S
C61 C62 1.339 . S
C61 H96 0.949 . S
C62 C61 1.339 . S
C62 C63 1.439 . S
C62 H97 0.950 . S
C63 N59 1.383 . S
C63 C62 1.439 . S
C63 C92 1.392 . S
N64 Co58 2.008 . S
N64 C65 1.376 . S
N64 C68 1.374 . S
C65 N64 1.376 . S
C65 C66 1.443 . S
C65 C92 1.389 . S
C66 C65 1.443 . S
C66 C67 1.340 . S
C66 H98 0.951 . S
C67 C66 1.340 . S
C67 C68 1.439 . S
C67 H99 0.950 . S
C68 N64 1.374 . S
C68 C67 1.439 . S
C68 C93 1.395 . S
N69 Co58 1.995 . S
N69 C70 1.376 . S
N69 C73 1.383 . S
C70 N69 1.376 . S
C70 C71 1.446 . S
C70 C93 1.391 . S
C71 C70 1.446 . S
C71 C72 1.339 . S
C71 H100 0.949 . S
C72 C71 1.339 . S
C72 C73 1.439 . S
C72 H101 0.950 . S
C73 N69 1.383 . S
C73 C72 1.439 . S
C73 C91 1.392 . S
N74 Co58 2.282 . S
N74 C77 1.332 . S
N74 C79 1.332 . S
C75 C76 1.386 . S
C75 C78 1.388 . S
C76 C75 1.386 . S
C76 C77 1.382 . S
C76 H102 0.950 . S
C77 N74 1.332 . S
C77 C76 1.382 . S
C77 H88 0.952 . S
C78 C75 1.388 . S
C78 C79 1.382 . S
C78 H103 0.950 . S
C79 N74 1.332 . S
C79 C78 1.382 . S
C79 H89 0.948 . S
N80 Co58 2.282 . S
N80 C84 1.332 . S
N80 C85 1.332 . S
C81 C82 1.388 . S
C81 C85 1.382 . S
C81 H104 0.950 . S
C82 C81 1.388 . S
C82 C83 1.386 . S
C83 C82 1.386 . S
C83 C84 1.382 . S
C83 H105 0.950 . S
C84 N80 1.332 . S
C84 C83 1.382 . S
C84 H86 0.952 . S
C85 N80 1.332 . S
C85 C81 1.382 . S
C85 H87 0.948 . S
H86 C84 0.952 . S
H87 C85 0.948 . S
H88 C77 0.952 . S
H89 C79 0.948 . S
C90 C56 1.395 . S
C90 C60 1.391 . S
C91 C53 1.389 . S
C91 C73 1.392 . S
C92 C63 1.392 . S
C92 C65 1.389 . S
C93 C68 1.395 . S
C93 C70 1.391 . S
H94 C54 0.951 . S
H95 C55 0.950 . S
H96 C61 0.949 . S
H97 C62 0.950 . S
H98 C66 0.951 . S
H99 C67 0.950 . S
H100 C71 0.949 . S
H101 C72 0.950 . S
H102 C76 0.950 . S
H103 C78 0.950 . S
H104 C81 0.950 . S
H105 C83 0.950 . S
C106 C107 1.443 . S
C106 N110 1.376 . S
C106 C144 1.389 . S
C107 C106 1.443 . S
C107 C108 1.340 . S
C107 H147 0.951 . S
C108 C107 1.340 . S
C108 C109 1.439 . S
C108 H148 0.950 . S
C109 C108 1.439 . S
C109 N110 1.374 . S
C109 C143 1.395 . S
N110 C106 1.376 . S
N110 C109 1.374 . S
N110 Co111 2.008 . S
Co111 N110 2.008 . S
Co111 N112 1.995 . S
Co111 N117 2.008 . S
Co111 N122 1.995 . S
Co111 N127 2.282 . S
Co111 N133 2.282 . S
N112 Co111 1.995 . S
N112 C113 1.376 . S
N112 C116 1.383 . S
C113 N112 1.376 . S
C113 C114 1.446 . S
C113 C143 1.391 . S
C114 C113 1.446 . S
C114 C115 1.339 . S
C114 H149 0.949 . S
C115 C114 1.339 . S
C115 C116 1.439 . S
C115 H150 0.950 . S
C116 N112 1.383 . S
C116 C115 1.439 . S
C116 C145 1.392 . S
N117 Co111 2.008 . S
N117 C118 1.376 . S
N117 C121 1.374 . S
C118 N117 1.376 . S
C118 C119 1.443 . S
C118 C145 1.389 . S
C119 C118 1.443 . S
C119 C120 1.340 . S
C119 H151 0.951 . S
C120 C119 1.340 . S
C120 C121 1.439 . S
C120 H152 0.950 . S
C121 N117 1.374 . S
C121 C120 1.439 . S
C121 C146 1.395 . S
N122 Co111 1.995 . S
N122 C123 1.376 . S
N122 C126 1.383 . S
C123 N122 1.376 . S
C123 C124 1.446 . S
C123 C146 1.391 . S
C124 C123 1.446 . S
C124 C125 1.339 . S
C124 H153 0.949 . S
C125 C124 1.339 . S
C125 C126 1.439 . S
C125 H154 0.950 . S
C126 N122 1.383 . S
C126 C125 1.439 . S
C126 C144 1.392 . S
N127 Co111 2.282 . S
N127 C130 1.332 . S
N127 C132 1.332 . S
C128 C129 1.386 . S
C128 C131 1.388 . S
C129 C128 1.386 . S
C129 C130 1.382 . S
C129 H155 0.950 . S
C130 N127 1.332 . S
C130 C129 1.382 . S
C130 H141 0.952 . S
C131 C128 1.388 . S
C131 C132 1.382 . S
C131 H156 0.950 . S
C132 N127 1.332 . S
C132 C131 1.382 . S
C132 H142 0.948 . S
N133 Co111 2.282 . S
N133 C137 1.332 . S
N133 C138 1.332 . S
C134 C135 1.388 . S
C134 C138 1.382 . S
C134 H157 0.950 . S
C135 C134 1.388 . S
C135 C136 1.386 . S
C136 C135 1.386 . S
C136 C137 1.382 . S
C136 H158 0.950 . S
C137 N133 1.332 . S
C137 C136 1.382 . S
C137 H139 0.952 . S
C138 N133 1.332 . S
C138 C134 1.382 . S
C138 H140 0.948 . S
H139 C137 0.952 . S
H140 C138 0.948 . S
H141 C130 0.952 . S
H142 C132 0.948 . S
C143 C109 1.395 . S
C143 C113 1.391 . S
C144 C106 1.389 . S
C144 C126 1.392 . S
C145 C116 1.392 . S
C145 C118 1.389 . S
C146 C121 1.395 . S
C146 C123 1.391 . S
H147 C107 0.951 . S
H148 C108 0.950 . S
H149 C114 0.949 . S
H150 C115 0.950 . S
H151 C119 0.951 . S
H152 C120 0.950 . S
H153 C124 0.949 . S
H154 C125 0.950 . S
H155 C129 0.950 . S
H156 C131 0.950 . S
H157 C134 0.950 . S
H158 C136 0.950 . S
C159 C160 1.443 . S
C159 N163 1.376 . S
C159 C197 1.389 . S
C160 C159 1.443 . S
C160 C161 1.340 1_554 S
C160 H200 0.951 . S
C161 C160 1.340 1_556 S
C161 C162 1.439 . S
C161 H201 0.950 . S
C162 C161 1.439 . S
C162 N163 1.374 1_556 S
C162 C196 1.395 . S
N163 C159 1.376 . S
N163 C162 1.374 1_554 S
N163 Co164 2.008 . S
Co164 N163 2.008 . S
Co164 N165 1.995 1_554 S
Co164 N170 2.008 . S
Co164 N175 1.995 . S
Co164 N180 2.282 1_554 S
Co164 N186 2.282 . S
N165 Co164 1.995 1_556 S
N165 C166 1.376 . S
N165 C169 1.383 . S
C166 N165 1.376 . S
C166 C167 1.446 . S
C166 C196 1.391 . S
C167 C166 1.446 . S
C167 C168 1.339 . S
C167 H202 0.949 . S
C168 C167 1.339 . S
C168 C169 1.439 . S
C168 H203 0.950 . S
C169 N165 1.383 . S
C169 C168 1.439 . S
C169 C198 1.392 . S
N170 Co164 2.008 . S
N170 C171 1.376 1_554 S
N170 C174 1.374 . S
C171 N170 1.376 1_556 S
C171 C172 1.443 . S
C171 C198 1.389 . S
C172 C171 1.443 . S
C172 C173 1.340 1_556 S
C172 H204 0.951 . S
C173 C172 1.340 1_554 S
C173 C174 1.439 . S
C173 H205 0.950 . S
C174 N170 1.374 . S
C174 C173 1.439 . S
C174 C199 1.395 . S
N175 Co164 1.995 . S
N175 C176 1.376 . S
N175 C179 1.383 . S
C176 N175 1.376 . S
C176 C177 1.446 . S
C176 C199 1.391 . S
C177 C176 1.446 . S
C177 C178 1.339 . S
C177 H206 0.949 . S
C178 C177 1.339 . S
C178 C179 1.439 . S
C178 H207 0.950 . S
C179 N175 1.383 . S
C179 C178 1.439 . S
C179 C197 1.392 . S
N180 Co164 2.282 1_556 S
N180 C183 1.332 . S
N180 C185 1.332 . S
C181 C182 1.386 . S
C181 C184 1.388 . S
C182 C181 1.386 . S
C182 C183 1.382 . S
C182 H208 0.950 . S
C183 N180 1.332 . S
C183 C182 1.382 . S
C183 H194 0.952 1_556 S
C184 C181 1.388 . S
C184 C185 1.382 . S
C184 H209 0.950 . S
C185 N180 1.332 . S
C185 C184 1.382 . S
C185 H195 0.948 . S
N186 Co164 2.282 . S
N186 C190 1.332 . S
N186 C191 1.332 . S
C187 C188 1.388 . S
C187 C191 1.382 . S
C187 H210 0.950 . S
C188 C187 1.388 . S
C188 C189 1.386 . S
C189 C188 1.386 . S
C189 C190 1.382 . S
C189 H211 0.950 . S
C190 N186 1.332 . S
C190 C189 1.382 . S
C190 H192 0.952 . S
C191 N186 1.332 . S
C191 C187 1.382 . S
C191 H193 0.948 . S
H192 C190 0.952 . S
H193 C191 0.948 . S
H194 C183 0.952 1_554 S
H195 C185 0.948 . S
C196 C162 1.395 . S
C196 C166 1.391 . S
C197 C159 1.389 . S
C197 C179 1.392 . S
C198 C169 1.392 . S
C198 C171 1.389 . S
C199 C174 1.395 . S
C199 C176 1.391 . S
H200 C160 0.951 . S
H201 C161 0.950 . S
H202 C167 0.949 . S
H203 C168 0.950 . S
H204 C172 0.951 . S
H205 C173 0.950 . S
H206 C177 0.949 . S
H207 C178 0.950 . S
H208 C182 0.950 . S
H209 C184 0.950 . S
H210 C187 0.950 . S
H211 C189 0.950 . S
C212 C213 1.443 . S
C212 N216 1.376 . S
C212 C250 1.389 . S
C213 C212 1.443 . S
C213 C214 1.340 . S
C213 H253 0.951 . S
C214 C213 1.340 . S
C214 C215 1.439 . S
C214 H254 0.950 . S
C215 C214 1.439 . S
C215 N216 1.374 . S
C215 C249 1.395 . S
N216 C212 1.376 . S
N216 C215 1.374 . S
N216 Co217 2.008 . S
Co217 N216 2.008 . S
Co217 N218 1.995 . S
Co217 N223 2.008 . S
Co217 N228 1.995 . S
Co217 N233 2.282 . S
Co217 N239 2.282 . S
N218 Co217 1.995 . S
N218 C219 1.376 . S
N218 C222 1.383 . S
C219 N218 1.376 . S
C219 C220 1.446 . S
C219 C249 1.391 . S
C220 C219 1.446 . S
C220 C221 1.339 . S
C220 H255 0.949 . S
C221 C220 1.339 . S
C221 C222 1.439 . S
C221 H256 0.950 . S
C222 N218 1.383 . S
C222 C221 1.439 . S
C222 C251 1.392 . S
N223 Co217 2.008 . S
N223 C224 1.376 . S
N223 C227 1.374 . S
C224 N223 1.376 . S
C224 C225 1.443 . S
C224 C251 1.389 . S
C225 C224 1.443 . S
C225 C226 1.340 . S
C225 H257 0.951 . S
C226 C225 1.340 . S
C226 C227 1.439 . S
C226 H258 0.950 . S
C227 N223 1.374 . S
C227 C226 1.439 . S
C227 C252 1.395 . S
N228 Co217 1.995 . S
N228 C229 1.376 . S
N228 C232 1.383 . S
C229 N228 1.376 . S
C229 C230 1.446 . S
C229 C252 1.391 . S
C230 C229 1.446 . S
C230 C231 1.339 . S
C230 H259 0.949 . S
C231 C230 1.339 . S
C231 C232 1.439 . S
C231 H260 0.950 . S
C232 N228 1.383 . S
C232 C231 1.439 . S
C232 C250 1.392 . S
N233 Co217 2.282 . S
N233 C236 1.332 . S
N233 C238 1.332 . S
C234 C235 1.386 . S
C234 C237 1.388 . S
C235 C234 1.386 . S
C235 C236 1.382 . S
C235 H261 0.950 . S
C236 N233 1.332 . S
C236 C235 1.382 . S
C236 H247 0.952 . S
C237 C234 1.388 . S
C237 C238 1.382 . S
C237 H262 0.950 . S
C238 N233 1.332 . S
C238 C237 1.382 . S
C238 H248 0.948 . S
N239 Co217 2.282 . S
N239 C243 1.332 . S
N239 C244 1.332 . S
C240 C241 1.388 . S
C240 C244 1.382 . S
C240 H263 0.950 . S
C241 C240 1.388 . S
C241 C242 1.386 . S
C242 C241 1.386 . S
C242 C243 1.382 . S
C242 H264 0.950 . S
C243 N239 1.332 . S
C243 C242 1.382 . S
C243 H245 0.952 . S
C244 N239 1.332 . S
C244 C240 1.382 . S
C244 H246 0.948 . S
H245 C243 0.952 . S
H246 C244 0.948 . S
H247 C236 0.952 . S
H248 C238 0.948 . S
C249 C215 1.395 . S
C249 C219 1.391 . S
C250 C212 1.389 . S
C250 C232 1.392 . S
C251 C222 1.392 . S
C251 C224 1.389 . S
C252 C227 1.395 . S
C252 C229 1.391 . S
H253 C213 0.951 . S
H254 C214 0.950 . S
H255 C220 0.949 . S
H256 C221 0.950 . S
H257 C225 0.951 . S
H258 C226 0.950 . S
H259 C230 0.949 . S
H260 C231 0.950 . S
H261 C235 0.950 . S
H262 C237 0.950 . S
H263 C240 0.950 . S
H264 C242 0.950 . S
C265 C266 1.443 . S
C265 N269 1.376 . S
C265 C303 1.389 . S
C266 C265 1.443 . S
C266 C267 1.340 . S
C266 H306 0.951 . S
C267 C266 1.340 . S
C267 C268 1.439 . S
C267 H307 0.950 . S
C268 C267 1.439 . S
C268 N269 1.374 . S
C268 C302 1.395 . S
N269 C265 1.376 . S
N269 C268 1.374 . S
N269 Co270 2.008 . S
Co270 N269 2.008 . S
Co270 N271 1.995 . S
Co270 N276 2.008 . S
Co270 N281 1.995 . S
Co270 N286 2.282 . S
Co270 N292 2.282 . S
N271 Co270 1.995 . S
N271 C272 1.376 . S
N271 C275 1.383 . S
C272 N271 1.376 . S
C272 C273 1.446 . S
C272 C302 1.391 . S
C273 C272 1.446 . S
C273 C274 1.339 . S
C273 H308 0.949 . S
C274 C273 1.339 . S
C274 C275 1.439 . S
C274 H309 0.950 . S
C275 N271 1.383 . S
C275 C274 1.439 . S
C275 C304 1.392 . S
N276 Co270 2.008 . S
N276 C277 1.376 . S
N276 C280 1.374 . S
C277 N276 1.376 . S
C277 C278 1.443 . S
C277 C304 1.389 . S
C278 C277 1.443 . S
C278 C279 1.340 . S
C278 H310 0.951 . S
C279 C278 1.340 . S
C279 C280 1.439 . S
C279 H311 0.950 . S
C280 N276 1.374 . S
C280 C279 1.439 . S
C280 C305 1.395 . S
N281 Co270 1.995 . S
N281 C282 1.376 . S
N281 C285 1.383 . S
C282 N281 1.376 . S
C282 C283 1.446 . S
C282 C305 1.391 . S
C283 C282 1.446 . S
C283 C284 1.339 . S
C283 H312 0.949 . S
C284 C283 1.339 . S
C284 C285 1.439 . S
C284 H313 0.950 . S
C285 N281 1.383 . S
C285 C284 1.439 . S
C285 C303 1.392 . S
N286 Co270 2.282 . S
N286 C289 1.332 . S
N286 C291 1.332 . S
C287 C288 1.386 . S
C287 C290 1.388 . S
C288 C287 1.386 . S
C288 C289 1.382 . S
C288 H314 0.950 . S
C289 N286 1.332 . S
C289 C288 1.382 . S
C289 H300 0.952 . S
C290 C287 1.388 . S
C290 C291 1.382 . S
C290 H315 0.950 . S
C291 N286 1.332 . S
C291 C290 1.382 . S
C291 H301 0.948 . S
N292 Co270 2.282 . S
N292 C296 1.332 . S
N292 C297 1.332 . S
C293 C294 1.388 . S
C293 C297 1.382 . S
C293 H316 0.950 . S
C294 C293 1.388 . S
C294 C295 1.386 . S
C295 C294 1.386 . S
C295 C296 1.382 . S
C295 H317 0.950 . S
C296 N292 1.332 . S
C296 C295 1.382 . S
C296 H298 0.952 . S
C297 N292 1.332 . S
C297 C293 1.382 . S
C297 H299 0.948 . S
H298 C296 0.952 . S
H299 C297 0.948 . S
H300 C289 0.952 . S
H301 C291 0.948 . S
C302 C268 1.395 . S
C302 C272 1.391 . S
C303 C265 1.389 . S
C303 C285 1.392 . S
C304 C275 1.392 . S
C304 C277 1.389 . S
C305 C280 1.395 . S
C305 C282 1.391 . S
H306 C266 0.951 . S
H307 C267 0.950 . S
H308 C273 0.949 . S
H309 C274 0.950 . S
H310 C278 0.951 . S
H311 C279 0.950 . S
H312 C283 0.949 . S
H313 C284 0.950 . S
H314 C288 0.950 . S
H315 C290 0.950 . S
H316 C293 0.950 . S
H317 C295 0.950 . S
C318 C319 1.349 . S
C318 C320 1.327 . S
C318 H343 0.950 . S
C319 C318 1.349 . S
C319 C335 1.349 . S
C320 C318 1.327 . S
C320 C339 1.429 . S
C320 H344 0.950 . S
C321 C338 1.574 . S
C321 C340 1.368 . S
C321 H345 0.949 . S
H322 C326 0.949 . S
C323 C324 1.349 . S
C323 C325 1.327 . S
C323 H346 0.950 . S
C324 C323 1.349 . S
C324 C336 1.349 . S
C325 C323 1.327 . S
C325 C341 1.429 . S
C325 H347 0.950 . S
C326 H322 0.949 . S
C326 C334 1.574 . S
C326 C342 1.368 . S
H327 C335 0.950 . S
H328 C333 0.950 . S
H329 C334 0.949 . S
H330 C336 0.950 . S
H331 C337 0.950 . S
H332 C338 0.949 . S
C333 H328 0.950 . S
C333 C335 1.327 . S
C333 C339 1.429 . S
C334 C326 1.574 . S
C334 H329 0.949 . S
C334 C340 1.368 . S
C335 C319 1.349 . S
C335 H327 0.950 . S
C335 C333 1.327 . S
C336 C324 1.349 . S
C336 H330 0.950 . S
C336 C337 1.327 . S
C337 H331 0.950 . S
C337 C336 1.327 . S
C337 C341 1.429 . S
C338 C321 1.574 . S
C338 H332 0.949 . S
C338 C342 1.368 . S
C339 C320 1.429 . S
C339 C333 1.429 . S
C339 C340 1.523 . S
C340 C321 1.368 . S
C340 C334 1.368 . S
C340 C339 1.523 . S
C341 C325 1.429 . S
C341 C337 1.429 . S
C341 C342 1.523 . S
C342 C326 1.368 . S
C342 C338 1.368 . S
C342 C341 1.523 . S
H343 C318 0.950 . S
H344 C320 0.950 . S
H345 C321 0.949 . S
H346 C323 0.950 . S
H347 C325 0.950 . S
C348 C349 1.349 . S
C348 C350 1.327 . S
C348 H373 0.950 . S
C349 C348 1.349 . S
C349 C365 1.349 . S
C350 C348 1.327 . S
C350 C369 1.429 . S
C350 H374 0.950 . S
C351 C368 1.574 1_655 S
C351 C370 1.368 . S
C351 H375 0.949 . S
H352 C356 0.949 . S
C353 C354 1.349 . S
C353 C355 1.327 . S
C353 H376 0.950 . S
C354 C353 1.349 . S
C354 C366 1.349 . S
C355 C353 1.327 . S
C355 C371 1.429 . S
C355 H377 0.950 . S
C356 H352 0.949 . S
C356 C364 1.574 . S
C356 C372 1.368 . S
H357 C365 0.950 . S
H358 C363 0.950 . S
H359 C364 0.949 1_655 S
H360 C366 0.950 . S
H361 C367 0.950 . S
H362 C368 0.949 . S
C363 H358 0.950 . S
C363 C365 1.327 . S
C363 C369 1.429 . S
C364 C356 1.574 . S
C364 H359 0.949 1_455 S
C364 C370 1.368 1_455 S
C365 C349 1.349 . S
C365 H357 0.950 . S
C365 C363 1.327 . S
C366 C354 1.349 . S
C366 H360 0.950 . S
C366 C367 1.327 . S
C367 H361 0.950 . S
C367 C366 1.327 . S
C367 C371 1.429 . S
C368 C351 1.574 1_455 S
C368 H362 0.949 . S
C368 C372 1.368 . S
C369 C350 1.429 . S
C369 C363 1.429 . S
C369 C370 1.523 . S
C370 C351 1.368 . S
C370 C364 1.368 1_655 S
C370 C369 1.523 . S
C371 C355 1.429 . S
C371 C367 1.429 . S
C371 C372 1.523 . S
C372 C356 1.368 . S
C372 C368 1.368 . S
C372 C371 1.523 . S
H373 C348 0.950 . S
H374 C350 0.950 . S
H375 C351 0.949 . S
H376 C353 0.950 . S
H377 C355 0.950 . S
C378 C379 1.349 . S
C378 C380 1.327 . S
C378 H403 0.950 . S
C379 C378 1.349 . S
C379 C395 1.349 . S
C380 C378 1.327 . S
C380 C399 1.429 . S
C380 H404 0.950 . S
C381 C398 1.574 . S
C381 C400 1.368 . S
C381 H405 0.949 . S
H382 C386 0.949 . S
C383 C384 1.349 . S
C383 C385 1.327 . S
C383 H406 0.950 . S
C384 C383 1.349 . S
C384 C396 1.349 . S
C385 C383 1.327 . S
C385 C401 1.429 . S
C385 H407 0.950 . S
C386 H382 0.949 . S
C386 C394 1.574 1_565 S
C386 C402 1.368 . S
H387 C395 0.950 . S
H388 C393 0.950 . S
H389 C394 0.949 . S
H390 C396 0.950 . S
H391 C397 0.950 . S
H392 C398 0.949 . S
C393 H388 0.950 . S
C393 C395 1.327 . S
C393 C399 1.429 . S
C394 C386 1.574 1_545 S
C394 H389 0.949 . S
C394 C400 1.368 . S
C395 C379 1.349 . S
C395 H387 0.950 . S
C395 C393 1.327 . S
C396 C384 1.349 . S
C396 H390 0.950 . S
C396 C397 1.327 . S
C397 H391 0.950 . S
C397 C396 1.327 . S
C397 C401 1.429 . S
C398 C381 1.574 . S
C398 H392 0.949 . S
C398 C402 1.368 1_545 S
C399 C380 1.429 . S
C399 C393 1.429 . S
C399 C400 1.523 . S
C400 C381 1.368 . S
C400 C394 1.368 . S
C400 C399 1.523 . S
C401 C385 1.429 . S
C401 C397 1.429 . S
C401 C402 1.523 . S
C402 C386 1.368 . S
C402 C398 1.368 1_565 S
C402 C401 1.523 . S
H403 C378 0.950 . S
H404 C380 0.950 . S
H405 C381 0.949 . S
H406 C383 0.950 . S
H407 C385 0.950 . S
C408 C409 1.349 . S
C408 C410 1.327 . S
C408 H433 0.950 . S
C409 C408 1.349 . S
C409 C425 1.349 . S
C410 C408 1.327 . S
C410 C429 1.429 . S
C410 H434 0.950 . S
C411 C428 1.574 . S
C411 C430 1.368 . S
C411 H435 0.949 . S
H412 C416 0.949 . S
C413 C414 1.349 . S
C413 C415 1.327 . S
C413 H436 0.950 . S
C414 C413 1.349 . S
C414 C426 1.349 . S
C415 C413 1.327 . S
C415 C431 1.429 . S
C415 H437 0.950 . S
C416 H412 0.949 . S
C416 C424 1.574 . S
C416 C432 1.368 . S
H417 C425 0.950 . S
H418 C423 0.950 . S
H419 C424 0.949 . S
H420 C426 0.950 . S
H421 C427 0.950 . S
H422 C428 0.949 . S
C423 H418 0.950 . S
C423 C425 1.327 . S
C423 C429 1.429 . S
C424 C416 1.574 . S
C424 H419 0.949 . S
C424 C430 1.368 . S
C425 C409 1.349 . S
C425 H417 0.950 . S
C425 C423 1.327 . S
C426 C414 1.349 . S
C426 H420 0.950 . S
C426 C427 1.327 . S
C427 H421 0.950 . S
C427 C426 1.327 . S
C427 C431 1.429 . S
C428 C411 1.574 . S
C428 H422 0.949 . S
C428 C432 1.368 . S
C429 C410 1.429 . S
C429 C423 1.429 . S
C429 C430 1.523 . S
C430 C411 1.368 . S
C430 C424 1.368 . S
C430 C429 1.523 . S
C431 C415 1.429 . S
C431 C427 1.429 . S
C431 C432 1.523 . S
C432 C416 1.368 . S
C432 C428 1.368 . S
C432 C431 1.523 . S
H433 C408 0.950 . S
H434 C410 0.950 . S
H435 C411 0.949 . S
H436 C413 0.950 . S
H437 C415 0.950 . S
C438 C439 1.349 . S
C438 C440 1.327 . S
C438 H463 0.950 . S
C439 C438 1.349 . S
C439 C455 1.349 . S
C440 C438 1.327 . S
C440 C459 1.429 . S
C440 H464 0.950 . S
C441 C458 1.574 . S
C441 C460 1.368 . S
C441 H465 0.949 . S
H442 C446 0.949 . S
C443 C444 1.349 . S
C443 C445 1.327 . S
C443 H466 0.950 . S
C444 C443 1.349 . S
C444 C456 1.349 . S
C445 C443 1.327 . S
C445 C461 1.429 . S
C445 H467 0.950 . S
C446 H442 0.949 . S
C446 C454 1.574 1_455 S
C446 C462 1.368 . S
H447 C455 0.950 . S
H448 C453 0.950 . S
H449 C454 0.949 . S
H450 C456 0.950 . S
H451 C457 0.950 . S
H452 C458 0.949 1_455 S
C453 H448 0.950 . S
C453 C455 1.327 . S
C453 C459 1.429 . S
C454 C446 1.574 1_655 S
C454 H449 0.949 . S
C454 C460 1.368 . S
C455 C439 1.349 . S
C455 H447 0.950 . S
C455 C453 1.327 . S
C456 C444 1.349 . S
C456 H450 0.950 . S
C456 C457 1.327 . S
C457 H451 0.950 . S
C457 C456 1.327 . S
C457 C461 1.429 . S
C458 C441 1.574 . S
C458 H452 0.949 1_655 S
C458 C462 1.368 1_655 S
C459 C440 1.429 . S
C459 C453 1.429 . S
C459 C460 1.523 . S
C460 C441 1.368 . S
C460 C454 1.368 . S
C460 C459 1.523 . S
C461 C445 1.429 . S
C461 C457 1.429 . S
C461 C462 1.523 . S
C462 C446 1.368 . S
C462 C458 1.368 1_455 S
C462 C461 1.523 . S
H463 C438 0.950 . S
H464 C440 0.950 . S
H465 C441 0.949 . S
H466 C443 0.950 . S
H467 C445 0.950 . S
C468 C469 1.349 . S
C468 C470 1.327 . S
C468 H493 0.950 . S
C469 C468 1.349 . S
C469 C485 1.349 . S
C470 C468 1.327 . S
C470 C489 1.429 . S
C470 H494 0.950 . S
C471 C488 1.574 1_545 S
C471 C490 1.368 . S
C471 H495 0.949 . S
H472 C476 0.949 . S
C473 C474 1.349 . S
C473 C475 1.327 . S
C473 H496 0.950 . S
C474 C473 1.349 . S
C474 C486 1.349 . S
C475 C473 1.327 . S
C475 C491 1.429 . S
C475 H497 0.950 . S
C476 H472 0.949 . S
C476 C484 1.574 . S
C476 C492 1.368 . S
H477 C485 0.950 . S
H478 C483 0.950 . S
H479 C484 0.949 . S
H480 C486 0.950 . S
H481 C487 0.950 . S
H482 C488 0.949 . S
C483 H478 0.950 . S
C483 C485 1.327 . S
C483 C489 1.429 . S
C484 C476 1.574 . S
C484 H479 0.949 . S
C484 C490 1.368 1_565 S
C485 C469 1.349 . S
C485 H477 0.950 . S
C485 C483 1.327 . S
C486 C474 1.349 . S
C486 H480 0.950 . S
C486 C487 1.327 . S
C487 H481 0.950 . S
C487 C486 1.327 . S
C487 C491 1.429 . S
C488 C471 1.574 1_565 S
C488 H482 0.949 . S
C488 C492 1.368 . S
C489 C470 1.429 . S
C489 C483 1.429 . S
C489 C490 1.523 . S
C490 C471 1.368 . S
C490 C484 1.368 1_545 S
C490 C489 1.523 . S
C491 C475 1.429 . S
C491 C487 1.429 . S
C491 C492 1.523 . S
C492 C476 1.368 . S
C492 C488 1.368 . S
C492 C491 1.523 . S
H493 C468 0.950 . S
H494 C470 0.950 . S
H495 C471 0.949 . S
H496 C473 0.950 . S
H497 C475 0.950 . S
C498 C499 1.349 . S
C498 C500 1.327 . S
C498 H523 0.950 . S
C499 C498 1.349 . S
C499 C515 1.349 . S
C500 C498 1.327 . S
C500 C519 1.429 . S
C500 H524 0.950 . S
C501 C518 1.574 . S
C501 C520 1.368 . S
C501 H525 0.949 . S
H502 C506 0.949 . S
C503 C504 1.349 . S
C503 C505 1.327 . S
C503 H526 0.950 . S
C504 C503 1.349 . S
C504 C516 1.349 . S
C505 C503 1.327 . S
C505 C521 1.429 . S
C505 H527 0.950 . S
C506 H502 0.949 . S
C506 C514 1.574 . S
C506 C522 1.368 . S
H507 C515 0.950 . S
H508 C513 0.950 . S
H509 C514 0.949 . S
H510 C516 0.950 . S
H511 C517 0.950 . S
H512 C518 0.949 . S
C513 H508 0.950 . S
C513 C515 1.327 . S
C513 C519 1.429 . S
C514 C506 1.574 . S
C514 H509 0.949 . S
C514 C520 1.368 . S
C515 C499 1.349 . S
C515 H507 0.950 . S
C515 C513 1.327 . S
C516 C504 1.349 . S
C516 H510 0.950 . S
C516 C517 1.327 . S
C517 H511 0.950 . S
C517 C516 1.327 . S
C517 C521 1.429 . S
C518 C501 1.574 . S
C518 H512 0.949 . S
C518 C522 1.368 . S
C519 C500 1.429 . S
C519 C513 1.429 . S
C519 C520 1.523 . S
C520 C501 1.368 . S
C520 C514 1.368 . S
C520 C519 1.523 . S
C521 C505 1.429 . S
C521 C517 1.429 . S
C521 C522 1.523 . S
C522 C506 1.368 . S
C522 C518 1.368 . S
C522 C521 1.523 . S
H523 C498 0.950 . S
H524 C500 0.950 . S
H525 C501 0.949 . S
H526 C503 0.950 . S
H527 C505 0.950 . S
C528 C529 1.349 . S
C528 C530 1.327 . S
C528 H553 0.950 . S
C529 C528 1.349 . S
C529 C545 1.349 . S
C530 C528 1.327 . S
C530 C549 1.429 . S
C530 H554 0.950 . S
C531 C548 1.574 . S
C531 C550 1.368 . S
C531 H555 0.949 . S
H532 C536 0.949 . S
C533 C534 1.349 . S
C533 C535 1.327 . S
C533 H556 0.950 . S
C534 C533 1.349 . S
C534 C546 1.349 . S
C535 C533 1.327 . S
C535 C551 1.429 . S
C535 H557 0.950 . S
C536 H532 0.949 . S
C536 C544 1.574 . S
C536 C552 1.368 . S
H537 C545 0.950 . S
H538 C543 0.950 . S
H539 C544 0.949 . S
H540 C546 0.950 . S
H541 C547 0.950 . S
H542 C548 0.949 . S
C543 H538 0.950 . S
C543 C545 1.327 . S
C543 C549 1.429 . S
C544 C536 1.574 . S
C544 H539 0.949 . S
C544 C550 1.368 . S
C545 C529 1.349 . S
C545 H537 0.950 . S
C545 C543 1.327 . S
C546 C534 1.349 . S
C546 H540 0.950 . S
C546 C547 1.327 . S
C547 H541 0.950 . S
C547 C546 1.327 . S
C547 C551 1.429 . S
C548 C531 1.574 . S
C548 H542 0.949 . S
C548 C552 1.368 . S
C549 C530 1.429 . S
C549 C543 1.429 . S
C549 C550 1.523 . S
C550 C531 1.368 . S
C550 C544 1.368 . S
C550 C549 1.523 . S
C551 C535 1.429 . S
C551 C547 1.429 . S
C551 C552 1.523 . S
C552 C536 1.368 . S
C552 C548 1.368 . S
C552 C551 1.523 . S
H553 C528 0.950 . S
H554 C530 0.950 . S
H555 C531 0.949 . S
H556 C533 0.950 . S
H557 C535 0.950 . S
C558 C559 1.349 . S
C558 C560 1.327 . S
C558 H583 0.950 . S
C559 C558 1.349 . S
C559 C575 1.349 . S
C560 C558 1.327 . S
C560 C579 1.429 . S
C560 H584 0.950 . S
C561 C578 1.574 . S
C561 C580 1.368 . S
C561 H585 0.949 . S
H562 C566 0.949 . S
C563 C564 1.349 . S
C563 C565 1.327 . S
C563 H586 0.950 . S
C564 C563 1.349 . S
C564 C576 1.349 . S
C565 C563 1.327 . S
C565 C581 1.429 . S
C565 H587 0.950 . S
C566 H562 0.949 . S
C566 C574 1.574 . S
C566 C582 1.368 . S
H567 C575 0.950 . S
H568 C573 0.950 . S
H569 C574 0.949 . S
H570 C576 0.950 . S
H571 C577 0.950 . S
H572 C578 0.949 . S
C573 H568 0.950 . S
C573 C575 1.327 . S
C573 C579 1.429 . S
C574 C566 1.574 . S
C574 H569 0.949 . S
C574 C580 1.368 . S
C575 C559 1.349 . S
C575 H567 0.950 . S
C575 C573 1.327 . S
C576 C564 1.349 . S
C576 H570 0.950 . S
C576 C577 1.327 . S
C577 H571 0.950 . S
C577 C576 1.327 . S
C577 C581 1.429 . S
C578 C561 1.574 . S
C578 H572 0.949 . S
C578 C582 1.368 . S
C579 C560 1.429 . S
C579 C573 1.429 . S
C579 C580 1.523 . S
C580 C561 1.368 . S
C580 C574 1.368 . S
C580 C579 1.523 . S
C581 C565 1.429 . S
C581 C577 1.429 . S
C581 C582 1.523 . S
C582 C566 1.368 . S
C582 C578 1.368 . S
C582 C581 1.523 . S
H583 C558 0.950 . S
H584 C560 0.950 . S
H585 C561 0.949 . S
H586 C563 0.950 . S
H587 C565 0.950 . S
C588 C589 1.349 . S
C588 C590 1.327 . S
C588 H613 0.950 . S
C589 C588 1.349 . S
C589 C605 1.349 . S
C590 C588 1.327 . S
C590 C609 1.429 . S
C590 H614 0.950 . S
C591 C608 1.574 . S
C591 C610 1.368 . S
C591 H615 0.949 . S
H592 C596 0.949 . S
C593 C594 1.349 . S
C593 C595 1.327 . S
C593 H616 0.950 . S
C594 C593 1.349 . S
C594 C606 1.349 . S
C595 C593 1.327 . S
C595 C611 1.429 . S
C595 H617 0.950 . S
C596 H592 0.949 . S
C596 C604 1.574 . S
C596 C612 1.368 . S
H597 C605 0.950 . S
H598 C603 0.950 . S
H599 C604 0.949 . S
H600 C606 0.950 . S
H601 C607 0.950 . S
H602 C608 0.949 . S
C603 H598 0.950 . S
C603 C605 1.327 . S
C603 C609 1.429 . S
C604 C596 1.574 . S
C604 H599 0.949 . S
C604 C610 1.368 . S
C605 C589 1.349 . S
C605 H597 0.950 . S
C605 C603 1.327 . S
C606 C594 1.349 . S
C606 H600 0.950 . S
C606 C607 1.327 . S
C607 H601 0.950 . S
C607 C606 1.327 . S
C607 C611 1.429 . S
C608 C591 1.574 . S
C608 H602 0.949 . S
C608 C612 1.368 . S
C609 C590 1.429 . S
C609 C603 1.429 . S
C609 C610 1.523 . S
C610 C591 1.368 . S
C610 C604 1.368 . S
C610 C609 1.523 . S
C611 C595 1.429 . S
C611 C607 1.429 . S
C611 C612 1.523 . S
C612 C596 1.368 . S
C612 C608 1.368 . S
C612 C611 1.523 . S
H613 C588 0.950 . S
H614 C590 0.950 . S
H615 C591 0.949 . S
H616 C593 0.950 . S
H617 C595 0.950 . S
C618 C619 1.349 . S
C618 C620 1.327 . S
C618 H643 0.950 . S
C619 C618 1.349 . S
C619 C635 1.349 . S
C620 C618 1.327 . S
C620 C639 1.429 . S
C620 H644 0.950 . S
C621 C638 1.574 . S
C621 C640 1.368 . S
C621 H645 0.949 . S
H622 C626 0.949 . S
C623 C624 1.349 . S
C623 C625 1.327 . S
C623 H646 0.950 . S
C624 C623 1.349 . S
C624 C636 1.349 . S
C625 C623 1.327 . S
C625 C641 1.429 . S
C625 H647 0.950 . S
C626 H622 0.949 . S
C626 C634 1.574 . S
C626 C642 1.368 . S
H627 C635 0.950 . S
H628 C633 0.950 . S
H629 C634 0.949 . S
H630 C636 0.950 . S
H631 C637 0.950 . S
H632 C638 0.949 . S
C633 H628 0.950 . S
C633 C635 1.327 . S
C633 C639 1.429 . S
C634 C626 1.574 . S
C634 H629 0.949 . S
C634 C640 1.368 . S
C635 C619 1.349 . S
C635 H627 0.950 . S
C635 C633 1.327 . S
C636 C624 1.349 . S
C636 H630 0.950 . S
C636 C637 1.327 . S
C637 H631 0.950 . S
C637 C636 1.327 . S
C637 C641 1.429 . S
C638 C621 1.574 . S
C638 H632 0.949 . S
C638 C642 1.368 . S
C639 C620 1.429 . S
C639 C633 1.429 . S
C639 C640 1.523 . S
C640 C621 1.368 . S
C640 C634 1.368 . S
C640 C639 1.523 . S
C641 C625 1.429 . S
C641 C637 1.429 . S
C641 C642 1.523 . S
C642 C626 1.368 . S
C642 C638 1.368 . S
C642 C641 1.523 . S
H643 C618 0.950 . S
H644 C620 0.950 . S
H645 C621 0.949 . S
H646 C623 0.950 . S
H647 C625 0.950 . S
C648 C649 1.349 . S
C648 C650 1.327 . S
C648 H673 0.950 . S
C649 C648 1.349 . S
C649 C665 1.349 . S
C650 C648 1.327 . S
C650 C669 1.429 . S
C650 H674 0.950 . S
C651 C668 1.574 . S
C651 C670 1.368 . S
C651 H675 0.949 . S
H652 C656 0.949 . S
C653 C654 1.349 . S
C653 C655 1.327 . S
C653 H676 0.950 . S
C654 C653 1.349 . S
C654 C666 1.349 . S
C655 C653 1.327 . S
C655 C671 1.429 . S
C655 H677 0.950 . S
C656 H652 0.949 . S
C656 C664 1.574 . S
C656 C672 1.368 . S
H657 C665 0.950 . S
H658 C663 0.950 . S
H659 C664 0.949 . S
H660 C666 0.950 . S
H661 C667 0.950 . S
H662 C668 0.949 . S
C663 H658 0.950 . S
C663 C665 1.327 . S
C663 C669 1.429 . S
C664 C656 1.574 . S
C664 H659 0.949 . S
C664 C670 1.368 . S
C665 C649 1.349 . S
C665 H657 0.950 . S
C665 C663 1.327 . S
C666 C654 1.349 . S
C666 H660 0.950 . S
C666 C667 1.327 . S
C667 H661 0.950 . S
C667 C666 1.327 . S
C667 C671 1.429 . S
C668 C651 1.574 . S
C668 H662 0.949 . S
C668 C672 1.368 . S
C669 C650 1.429 . S
C669 C663 1.429 . S
C669 C670 1.523 . S
C670 C651 1.368 . S
C670 C664 1.368 . S
C670 C669 1.523 . S
C671 C655 1.429 . S
C671 C667 1.429 . S
C671 C672 1.523 . S
C672 C656 1.368 . S
C672 C668 1.368 . S
C672 C671 1.523 . S
H673 C648 0.950 . S
H674 C650 0.950 . S
H675 C651 0.949 . S
H676 C653 0.950 . S
H677 C655 0.950 . S
C319 C22 1.400 . S
C324 C303 1.405 . S
C349 C75 1.400 . S
C354 C38 1.404 . S
C379 C91 1.404 . S
C384 C128 1.400 . S
C409 C181 1.400 . S
C414 C144 1.405 . S
C439 C197 1.404 . S
C444 C234 1.400 . S
C469 C287 1.400 . S
C474 C250 1.404 . S
C499 C251 1.496 . S
C504 C29 1.493 . S
C529 C304 1.496 . S
C534 C82 1.493 . S
C559 C135 1.493 . S
C564 C39 1.496 . S
C589 C188 1.493 . S
C594 C92 1.496 . S
C619 C241 1.493 . S
C624 C145 1.496 . S
C649 C294 1.493 . S
C654 C198 1.496 . S
