# Generated by pormake.
# Topology twf-e, (6)-cn, num edge types: 1
# Building blocks:
#     Node 0, Type 0, BuildingBlock: CUKXOW_clean_sbu_0, # of connection points: 6
#     Node 1, Type 0, BuildingBlock: CUKXOW_clean_sbu_0, # of connection points: 6
#     Node 2, Type 0, BuildingBlock: CUKXOW_clean_sbu_0, # of connection points: 6
#     Node 3, Type 0, BuildingBlock: CUKXOW_clean_sbu_0, # of connection points: 6
#     Node 4, Type 0, BuildingBlock: CUKXOW_clean_sbu_0, # of connection points: 6
#     Node 5, Type 0, BuildingBlock: CUKXOW_clean_sbu_0, # of connection points: 6
#     Node 6, Type 0, BuildingBlock: CUKXOW_clean_sbu_0, # of connection points: 6
#     Node 7, Type 0, BuildingBlock: CUKXOW_clean_sbu_0, # of connection points: 6
#     Node 8, Type 0, BuildingBlock: CUKXOW_clean_sbu_0, # of connection points: 6
#     Node 9, Type 0, BuildingBlock: CUKXOW_clean_sbu_0, # of connection points: 6
#     Node 10, Type 0, BuildingBlock: CUKXOW_clean_sbu_0, # of connection points: 6
#     Node 11, Type 0, BuildingBlock: CUKXOW_clean_sbu_0, # of connection points: 6
#     Node 12, Type 0, BuildingBlock: CUKXOW_clean_sbu_0, # of connection points: 6
#     Node 13, Type 0, BuildingBlock: CUKXOW_clean_sbu_0, # of connection points: 6
#     Node 14, Type 0, BuildingBlock: CUKXOW_clean_sbu_0, # of connection points: 6
#     Node 15, Type 0, BuildingBlock: CUKXOW_clean_sbu_0, # of connection points: 6
#     Node 16, Type 0, BuildingBlock: CUKXOW_clean_sbu_0, # of connection points: 6
#     Node 17, Type 0, BuildingBlock: CUKXOW_clean_sbu_0, # of connection points: 6
#     Node 18, Type 0, BuildingBlock: CUKXOW_clean_sbu_0, # of connection points: 6
#     Node 19, Type 0, BuildingBlock: CUKXOW_clean_sbu_0, # of connection points: 6
#     Node 20, Type 0, BuildingBlock: CUKXOW_clean_sbu_0, # of connection points: 6
#     Node 21, Type 0, BuildingBlock: CUKXOW_clean_sbu_0, # of connection points: 6
#     Node 22, Type 0, BuildingBlock: CUKXOW_clean_sbu_0, # of connection points: 6
#     Node 23, Type 0, BuildingBlock: CUKXOW_clean_sbu_0, # of connection points: 6
#     Node 24, Type 0, BuildingBlock: CUKXOW_clean_sbu_0, # of connection points: 6
#     Node 25, Type 0, BuildingBlock: CUKXOW_clean_sbu_0, # of connection points: 6
#     Node 26, Type 0, BuildingBlock: CUKXOW_clean_sbu_0, # of connection points: 6
#     Node 27, Type 0, BuildingBlock: CUKXOW_clean_sbu_0, # of connection points: 6
#     Node 28, Type 0, BuildingBlock: CUKXOW_clean_sbu_0, # of connection points: 6
#     Node 29, Type 0, BuildingBlock: CUKXOW_clean_sbu_0, # of connection points: 6
#     Node 30, Type 0, BuildingBlock: CUKXOW_clean_sbu_0, # of connection points: 6
#     Node 31, Type 0, BuildingBlock: CUKXOW_clean_sbu_0, # of connection points: 6
#     Node 32, Type 0, BuildingBlock: CUKXOW_clean_sbu_0, # of connection points: 6
#     Node 33, Type 0, BuildingBlock: CUKXOW_clean_sbu_0, # of connection points: 6
#     Node 34, Type 0, BuildingBlock: CUKXOW_clean_sbu_0, # of connection points: 6
#     Node 35, Type 0, BuildingBlock: CUKXOW_clean_sbu_0, # of connection points: 6
#     Node 36, Type 0, BuildingBlock: CUKXOW_clean_sbu_0, # of connection points: 6
#     Node 37, Type 0, BuildingBlock: CUKXOW_clean_sbu_0, # of connection points: 6
#     Node 38, Type 0, BuildingBlock: CUKXOW_clean_sbu_0, # of connection points: 6
#     Node 39, Type 0, BuildingBlock: CUKXOW_clean_sbu_0, # of connection points: 6
#     Node 40, Type 0, BuildingBlock: CUKXOW_clean_sbu_0, # of connection points: 6
#     Node 41, Type 0, BuildingBlock: CUKXOW_clean_sbu_0, # of connection points: 6
#     Node 42, Type 0, BuildingBlock: CUKXOW_clean_sbu_0, # of connection points: 6
#     Node 43, Type 0, BuildingBlock: CUKXOW_clean_sbu_0, # of connection points: 6
#     Node 44, Type 0, BuildingBlock: CUKXOW_clean_sbu_0, # of connection points: 6
#     Node 45, Type 0, BuildingBlock: CUKXOW_clean_sbu_0, # of connection points: 6
#     Node 46, Type 0, BuildingBlock: CUKXOW_clean_sbu_0, # of connection points: 6
#     Node 47, Type 0, BuildingBlock: CUKXOW_clean_sbu_0, # of connection points: 6
#     Edge 48, Type (0, 0), BuildingBlock: AJUNOK_clean_linker_0, # of connection points: 2
#     Edge 49, Type (0, 0), BuildingBlock: AJUNOK_clean_linker_0, # of connection points: 2
#     Edge 50, Type (0, 0), BuildingBlock: AJUNOK_clean_linker_0, # of connection points: 2
#     Edge 51, Type (0, 0), BuildingBlock: AJUNOK_clean_linker_0, # of connection points: 2
#     Edge 52, Type (0, 0), BuildingBlock: AJUNOK_clean_linker_0, # of connection points: 2
#     Edge 53, Type (0, 0), BuildingBlock: AJUNOK_clean_linker_0, # of connection points: 2
#     Edge 54, Type (0, 0), BuildingBlock: AJUNOK_clean_linker_0, # of connection points: 2
#     Edge 55, Type (0, 0), BuildingBlock: AJUNOK_clean_linker_0, # of connection points: 2
#     Edge 56, Type (0, 0), BuildingBlock: AJUNOK_clean_linker_0, # of connection points: 2
#     Edge 57, Type (0, 0), BuildingBlock: AJUNOK_clean_linker_0, # of connection points: 2
#     Edge 58, Type (0, 0), BuildingBlock: AJUNOK_clean_linker_0, # of connection points: 2
#     Edge 59, Type (0, 0), BuildingBlock: AJUNOK_clean_linker_0, # of connection points: 2
#     Edge 60, Type (0, 0), BuildingBlock: AJUNOK_clean_linker_0, # of connection points: 2
#     Edge 61, Type (0, 0), BuildingBlock: AJUNOK_clean_linker_0, # of connection points: 2
#     Edge 62, Type (0, 0), BuildingBlock: AJUNOK_clean_linker_0, # of connection points: 2
#     Edge 63, Type (0, 0), BuildingBlock: AJUNOK_clean_linker_0, # of connection points: 2
#     Edge 64, Type (0, 0), BuildingBlock: AJUNOK_clean_linker_0, # of connection points: 2
#     Edge 65, Type (0, 0), BuildingBlock: AJUNOK_clean_linker_0, # of connection points: 2
#     Edge 66, Type (0, 0), BuildingBlock: AJUNOK_clean_linker_0, # of connection points: 2
#     Edge 67, Type (0, 0), BuildingBlock: AJUNOK_clean_linker_0, # of connection points: 2
#     Edge 68, Type (0, 0), BuildingBlock: AJUNOK_clean_linker_0, # of connection points: 2
#     Edge 69, Type (0, 0), BuildingBlock: AJUNOK_clean_linker_0, # of connection points: 2
#     Edge 70, Type (0, 0), BuildingBlock: AJUNOK_clean_linker_0, # of connection points: 2
#     Edge 71, Type (0, 0), BuildingBlock: AJUNOK_clean_linker_0, # of connection points: 2
#     Edge 72, Type (0, 0), BuildingBlock: AJUNOK_clean_linker_0, # of connection points: 2
#     Edge 73, Type (0, 0), BuildingBlock: AJUNOK_clean_linker_0, # of connection points: 2
#     Edge 74, Type (0, 0), BuildingBlock: AJUNOK_clean_linker_0, # of connection points: 2
#     Edge 75, Type (0, 0), BuildingBlock: AJUNOK_clean_linker_0, # of connection points: 2
#     Edge 76, Type (0, 0), BuildingBlock: AJUNOK_clean_linker_0, # of connection points: 2
#     Edge 77, Type (0, 0), BuildingBlock: AJUNOK_clean_linker_0, # of connection points: 2
#     Edge 78, Type (0, 0), BuildingBlock: AJUNOK_clean_linker_0, # of connection points: 2
#     Edge 79, Type (0, 0), BuildingBlock: AJUNOK_clean_linker_0, # of connection points: 2
#     Edge 80, Type (0, 0), BuildingBlock: AJUNOK_clean_linker_0, # of connection points: 2
#     Edge 81, Type (0, 0), BuildingBlock: AJUNOK_clean_linker_0, # of connection points: 2
#     Edge 82, Type (0, 0), BuildingBlock: AJUNOK_clean_linker_0, # of connection points: 2
#     Edge 83, Type (0, 0), BuildingBlock: AJUNOK_clean_linker_0, # of connection points: 2
#     Edge 84, Type (0, 0), BuildingBlock: AJUNOK_clean_linker_0, # of connection points: 2
#     Edge 85, Type (0, 0), BuildingBlock: AJUNOK_clean_linker_0, # of connection points: 2
#     Edge 86, Type (0, 0), BuildingBlock: AJUNOK_clean_linker_0, # of connection points: 2
#     Edge 87, Type (0, 0), BuildingBlock: AJUNOK_clean_linker_0, # of connection points: 2
#     Edge 88, Type (0, 0), BuildingBlock: AJUNOK_clean_linker_0, # of connection points: 2
#     Edge 89, Type (0, 0), BuildingBlock: AJUNOK_clean_linker_0, # of connection points: 2
#     Edge 90, Type (0, 0), BuildingBlock: AJUNOK_clean_linker_0, # of connection points: 2
#     Edge 91, Type (0, 0), BuildingBlock: AJUNOK_clean_linker_0, # of connection points: 2
#     Edge 92, Type (0, 0), BuildingBlock: AJUNOK_clean_linker_0, # of connection points: 2
#     Edge 93, Type (0, 0), BuildingBlock: AJUNOK_clean_linker_0, # of connection points: 2
#     Edge 94, Type (0, 0), BuildingBlock: AJUNOK_clean_linker_0, # of connection points: 2
#     Edge 95, Type (0, 0), BuildingBlock: AJUNOK_clean_linker_0, # of connection points: 2
#     Edge 96, Type (0, 0), BuildingBlock: AJUNOK_clean_linker_0, # of connection points: 2
#     Edge 97, Type (0, 0), BuildingBlock: AJUNOK_clean_linker_0, # of connection points: 2
#     Edge 98, Type (0, 0), BuildingBlock: AJUNOK_clean_linker_0, # of connection points: 2
#     Edge 99, Type (0, 0), BuildingBlock: AJUNOK_clean_linker_0, # of connection points: 2
#     Edge 100, Type (0, 0), BuildingBlock: AJUNOK_clean_linker_0, # of connection points: 2
#     Edge 101, Type (0, 0), BuildingBlock: AJUNOK_clean_linker_0, # of connection points: 2
#     Edge 102, Type (0, 0), BuildingBlock: AJUNOK_clean_linker_0, # of connection points: 2
#     Edge 103, Type (0, 0), BuildingBlock: AJUNOK_clean_linker_0, # of connection points: 2
#     Edge 104, Type (0, 0), BuildingBlock: AJUNOK_clean_linker_0, # of connection points: 2
#     Edge 105, Type (0, 0), BuildingBlock: AJUNOK_clean_linker_0, # of connection points: 2
#     Edge 106, Type (0, 0), BuildingBlock: AJUNOK_clean_linker_0, # of connection points: 2
#     Edge 107, Type (0, 0), BuildingBlock: AJUNOK_clean_linker_0, # of connection points: 2
#     Edge 108, Type (0, 0), BuildingBlock: AJUNOK_clean_linker_0, # of connection points: 2
#     Edge 109, Type (0, 0), BuildingBlock: AJUNOK_clean_linker_0, # of connection points: 2
#     Edge 110, Type (0, 0), BuildingBlock: AJUNOK_clean_linker_0, # of connection points: 2
#     Edge 111, Type (0, 0), BuildingBlock: AJUNOK_clean_linker_0, # of connection points: 2
#     Edge 112, Type (0, 0), BuildingBlock: AJUNOK_clean_linker_0, # of connection points: 2
#     Edge 113, Type (0, 0), BuildingBlock: AJUNOK_clean_linker_0, # of connection points: 2
#     Edge 114, Type (0, 0), BuildingBlock: AJUNOK_clean_linker_0, # of connection points: 2
#     Edge 115, Type (0, 0), BuildingBlock: AJUNOK_clean_linker_0, # of connection points: 2
#     Edge 116, Type (0, 0), BuildingBlock: AJUNOK_clean_linker_0, # of connection points: 2
#     Edge 117, Type (0, 0), BuildingBlock: AJUNOK_clean_linker_0, # of connection points: 2
#     Edge 118, Type (0, 0), BuildingBlock: AJUNOK_clean_linker_0, # of connection points: 2
#     Edge 119, Type (0, 0), BuildingBlock: AJUNOK_clean_linker_0, # of connection points: 2
#     Edge 120, Type (0, 0), BuildingBlock: AJUNOK_clean_linker_0, # of connection points: 2
#     Edge 121, Type (0, 0), BuildingBlock: AJUNOK_clean_linker_0, # of connection points: 2
#     Edge 122, Type (0, 0), BuildingBlock: AJUNOK_clean_linker_0, # of connection points: 2
#     Edge 123, Type (0, 0), BuildingBlock: AJUNOK_clean_linker_0, # of connection points: 2
#     Edge 124, Type (0, 0), BuildingBlock: AJUNOK_clean_linker_0, # of connection points: 2
#     Edge 125, Type (0, 0), BuildingBlock: AJUNOK_clean_linker_0, # of connection points: 2
#     Edge 126, Type (0, 0), BuildingBlock: AJUNOK_clean_linker_0, # of connection points: 2
#     Edge 127, Type (0, 0), BuildingBlock: AJUNOK_clean_linker_0, # of connection points: 2
#     Edge 128, Type (0, 0), BuildingBlock: AJUNOK_clean_linker_0, # of connection points: 2
#     Edge 129, Type (0, 0), BuildingBlock: AJUNOK_clean_linker_0, # of connection points: 2
#     Edge 130, Type (0, 0), BuildingBlock: AJUNOK_clean_linker_0, # of connection points: 2
#     Edge 131, Type (0, 0), BuildingBlock: AJUNOK_clean_linker_0, # of connection points: 2
#     Edge 132, Type (0, 0), BuildingBlock: AJUNOK_clean_linker_0, # of connection points: 2
#     Edge 133, Type (0, 0), BuildingBlock: AJUNOK_clean_linker_0, # of connection points: 2
#     Edge 134, Type (0, 0), BuildingBlock: AJUNOK_clean_linker_0, # of connection points: 2
#     Edge 135, Type (0, 0), BuildingBlock: AJUNOK_clean_linker_0, # of connection points: 2
#     Edge 136, Type (0, 0), BuildingBlock: AJUNOK_clean_linker_0, # of connection points: 2
#     Edge 137, Type (0, 0), BuildingBlock: AJUNOK_clean_linker_0, # of connection points: 2
#     Edge 138, Type (0, 0), BuildingBlock: AJUNOK_clean_linker_0, # of connection points: 2
#     Edge 139, Type (0, 0), BuildingBlock: AJUNOK_clean_linker_0, # of connection points: 2
#     Edge 140, Type (0, 0), BuildingBlock: AJUNOK_clean_linker_0, # of connection points: 2
#     Edge 141, Type (0, 0), BuildingBlock: AJUNOK_clean_linker_0, # of connection points: 2
#     Edge 142, Type (0, 0), BuildingBlock: AJUNOK_clean_linker_0, # of connection points: 2
#     Edge 143, Type (0, 0), BuildingBlock: AJUNOK_clean_linker_0, # of connection points: 2
#     Edge 144, Type (0, 0), BuildingBlock: AJUNOK_clean_linker_0, # of connection points: 2
#     Edge 145, Type (0, 0), BuildingBlock: AJUNOK_clean_linker_0, # of connection points: 2
#     Edge 146, Type (0, 0), BuildingBlock: AJUNOK_clean_linker_0, # of connection points: 2
#     Edge 147, Type (0, 0), BuildingBlock: AJUNOK_clean_linker_0, # of connection points: 2
#     Edge 148, Type (0, 0), BuildingBlock: AJUNOK_clean_linker_0, # of connection points: 2
#     Edge 149, Type (0, 0), BuildingBlock: AJUNOK_clean_linker_0, # of connection points: 2
#     Edge 150, Type (0, 0), BuildingBlock: AJUNOK_clean_linker_0, # of connection points: 2
#     Edge 151, Type (0, 0), BuildingBlock: AJUNOK_clean_linker_0, # of connection points: 2
#     Edge 152, Type (0, 0), BuildingBlock: AJUNOK_clean_linker_0, # of connection points: 2
#     Edge 153, Type (0, 0), BuildingBlock: AJUNOK_clean_linker_0, # of connection points: 2
#     Edge 154, Type (0, 0), BuildingBlock: AJUNOK_clean_linker_0, # of connection points: 2
#     Edge 155, Type (0, 0), BuildingBlock: AJUNOK_clean_linker_0, # of connection points: 2
#     Edge 156, Type (0, 0), BuildingBlock: AJUNOK_clean_linker_0, # of connection points: 2
#     Edge 157, Type (0, 0), BuildingBlock: AJUNOK_clean_linker_0, # of connection points: 2
#     Edge 158, Type (0, 0), BuildingBlock: AJUNOK_clean_linker_0, # of connection points: 2
#     Edge 159, Type (0, 0), BuildingBlock: AJUNOK_clean_linker_0, # of connection points: 2
#     Edge 160, Type (0, 0), BuildingBlock: AJUNOK_clean_linker_0, # of connection points: 2
#     Edge 161, Type (0, 0), BuildingBlock: AJUNOK_clean_linker_0, # of connection points: 2
#     Edge 162, Type (0, 0), BuildingBlock: AJUNOK_clean_linker_0, # of connection points: 2
#     Edge 163, Type (0, 0), BuildingBlock: AJUNOK_clean_linker_0, # of connection points: 2
#     Edge 164, Type (0, 0), BuildingBlock: AJUNOK_clean_linker_0, # of connection points: 2
#     Edge 165, Type (0, 0), BuildingBlock: AJUNOK_clean_linker_0, # of connection points: 2
#     Edge 166, Type (0, 0), BuildingBlock: AJUNOK_clean_linker_0, # of connection points: 2
#     Edge 167, Type (0, 0), BuildingBlock: AJUNOK_clean_linker_0, # of connection points: 2
#     Edge 168, Type (0, 0), BuildingBlock: AJUNOK_clean_linker_0, # of connection points: 2
#     Edge 169, Type (0, 0), BuildingBlock: AJUNOK_clean_linker_0, # of connection points: 2
#     Edge 170, Type (0, 0), BuildingBlock: AJUNOK_clean_linker_0, # of connection points: 2
#     Edge 171, Type (0, 0), BuildingBlock: AJUNOK_clean_linker_0, # of connection points: 2
#     Edge 172, Type (0, 0), BuildingBlock: AJUNOK_clean_linker_0, # of connection points: 2
#     Edge 173, Type (0, 0), BuildingBlock: AJUNOK_clean_linker_0, # of connection points: 2
#     Edge 174, Type (0, 0), BuildingBlock: AJUNOK_clean_linker_0, # of connection points: 2
#     Edge 175, Type (0, 0), BuildingBlock: AJUNOK_clean_linker_0, # of connection points: 2
#     Edge 176, Type (0, 0), BuildingBlock: AJUNOK_clean_linker_0, # of connection points: 2
#     Edge 177, Type (0, 0), BuildingBlock: AJUNOK_clean_linker_0, # of connection points: 2
#     Edge 178, Type (0, 0), BuildingBlock: AJUNOK_clean_linker_0, # of connection points: 2
#     Edge 179, Type (0, 0), BuildingBlock: AJUNOK_clean_linker_0, # of connection points: 2
#     Edge 180, Type (0, 0), BuildingBlock: AJUNOK_clean_linker_0, # of connection points: 2
#     Edge 181, Type (0, 0), BuildingBlock: AJUNOK_clean_linker_0, # of connection points: 2
#     Edge 182, Type (0, 0), BuildingBlock: AJUNOK_clean_linker_0, # of connection points: 2
#     Edge 183, Type (0, 0), BuildingBlock: AJUNOK_clean_linker_0, # of connection points: 2
#     Edge 184, Type (0, 0), BuildingBlock: AJUNOK_clean_linker_0, # of connection points: 2
#     Edge 185, Type (0, 0), BuildingBlock: AJUNOK_clean_linker_0, # of connection points: 2
#     Edge 186, Type (0, 0), BuildingBlock: AJUNOK_clean_linker_0, # of connection points: 2
#     Edge 187, Type (0, 0), BuildingBlock: AJUNOK_clean_linker_0, # of connection points: 2
#     Edge 188, Type (0, 0), BuildingBlock: AJUNOK_clean_linker_0, # of connection points: 2
#     Edge 189, Type (0, 0), BuildingBlock: AJUNOK_clean_linker_0, # of connection points: 2
#     Edge 190, Type (0, 0), BuildingBlock: AJUNOK_clean_linker_0, # of connection points: 2
#     Edge 191, Type (0, 0), BuildingBlock: AJUNOK_clean_linker_0, # of connection points: 2
# Relax obj value: 0.563
# Max RMSD: 0.266
# Mean RMSD: 0.253
data_MOF--net-twf-e--node1-CUKXOW_clean_sbu_0--edge1-AJUNOK_clean_linker_0
_symmetry_space_group_name_H-M    P1
_symmetry_Int_Tables_number       1
_symmetry_cell_setting            triclinic
loop_
_symmetry_equiv_pos_as_xyz
'x, y, z'
_cell_length_a     44.721121
_cell_length_b     44.87683
_cell_length_c     44.788731
_cell_angle_alpha  90.709795
_cell_angle_beta   88.916363
_cell_angle_gamma 89.886231
loop_
_atom_site_label
_atom_site_type_symbol
_atom_site_fract_x
_atom_site_fract_y
_atom_site_fract_z
_atom_type_partial_charge
Tb0 Tb 0.04718 0.22845 0.41128 0.0
C1 C 0.02596 0.24596 0.34867 0.0
Tb2 Tb 0.00846 0.1917 0.39173 0.0
O3 O 0.07291 0.18917 0.42389 0.0
O4 O 0.0536 0.19142 0.3821 0.0
O5 O 0.03664 0.25659 0.37363 0.0
C6 C 0.99018 0.14319 0.36456 0.0
O7 O 0.01534 0.21824 0.34929 0.0
C8 C 0.97235 0.23033 0.4089 0.0
C9 C 0.02095 0.19647 0.46574 0.0
O10 O 0.98386 0.17005 0.35702 0.0
O11 O 1.00582 0.14333 0.38871 0.0
O12 O 0.96401 0.20646 0.39504 0.0
O13 O 1.00018 0.23328 0.41283 0.0
O14 O 0.00852 0.18079 0.44286 0.0
O15 O 0.03771 0.21945 0.45835 0.0
C16 C 0.08934 0.268 0.41282 0.0
O17 O 0.0659 0.26787 0.43033 0.0
O18 O 0.08906 0.24548 0.39485 0.0
C19 C 0.06958 0.17607 0.39844 0.0
Tb20 Tb 0.86085 0.02743 0.3714 0.0
C21 C 0.84897 0.01229 0.44387 0.0
Tb22 Tb 0.81915 0.98312 0.38697 0.0
O23 O 0.82836 0.05829 0.35672 0.0
O24 O 0.81943 0.03006 0.39294 0.0
O25 O 0.86496 0.02805 0.42323 0.0
C26 C 0.77477 0.94922 0.40066 0.0
O27 O 0.82947 0.99236 0.43399 0.0
C28 C 0.8702 0.95478 0.37466 0.0
C29 C 0.80894 0.00992 0.32343 0.0
O30 O 0.7823 0.97289 0.41555 0.0
O31 O 0.7906 0.94647 0.37643 0.0
O32 O 0.84602 0.9419 0.38344 0.0
O33 O 0.86481 0.98206 0.37373 0.0
O34 O 0.79715 0.99514 0.3459 0.0
O35 O 0.8363 0.02209 0.32685 0.0
C36 C 0.91047 0.05347 0.35606 0.0
O37 O 0.90325 0.02705 0.34695 0.0
O38 O 0.8904 0.06489 0.37406 0.0
C39 C 0.80887 0.05037 0.37689 0.0
Tb40 Tb 0.99163 0.82417 0.39894 0.0
C41 C 0.01813 0.81508 0.33618 0.0
Tb42 Tb 0.03193 0.85566 0.3932 0.0
O43 O 0.96215 0.86007 0.41433 0.0
O44 O 0.98948 0.86616 0.3769 0.0
O45 O 0.99325 0.81377 0.35124 0.0
C46 C 0.05901 0.90749 0.38425 0.0
O47 O 0.03945 0.83075 0.34911 0.0
C48 C 0.0631 0.81077 0.40659 0.0
C49 C 0.01034 0.84239 0.46236 0.0
O50 O 0.05739 0.88597 0.36515 0.0
O51 O 0.04632 0.89945 0.40902 0.0
O52 O 0.07255 0.83206 0.38976 0.0
O53 O 0.03593 0.814 0.41545 0.0
O54 O 0.02625 0.86076 0.44458 0.0
O55 O 0.99438 0.82217 0.448 0.0
C56 C 0.95698 0.77887 0.38417 0.0
O57 O 0.94864 0.80218 0.39987 0.0
O58 O 0.98566 0.77977 0.38029 0.0
C59 C 0.96989 0.87835 0.39354 0.0
Tb60 Tb 0.21712 0.98823 0.39583 0.0
C61 C 0.23578 0.01037 0.33373 0.0
Tb62 Tb 0.18718 0.03512 0.38105 0.0
O63 O 0.17545 0.969 0.41146 0.0
O64 O 0.17695 0.99167 0.37083 0.0
O65 O 0.24566 0.99941 0.35852 0.0
C66 C 0.14394 0.07542 0.37298 0.0
O67 O 0.20858 0.0232 0.33537 0.0
C68 C 0.23978 0.05388 0.38947 0.0
C69 C 0.19441 0.01471 0.45395 0.0
O70 O 0.17218 0.07949 0.36883 0.0
O71 O 0.13973 0.04844 0.38194 0.0
O72 O 0.22446 0.06009 0.36623 0.0
O73 O 0.22651 0.03449 0.40545 0.0
O74 O 0.18169 0.03292 0.43343 0.0
O75 O 0.21271 0.99373 0.44376 0.0
C76 C 0.248 0.94065 0.38213 0.0
O77 O 0.2532 0.95817 0.40491 0.0
O78 O 0.2239 0.94821 0.36894 0.0
C79 C 0.16062 0.97764 0.38872 0.0
Tb80 Tb 0.04002 0.79979 0.65351 0.0
C81 C 0.01719 0.78897 0.71805 0.0
Tb82 Tb 1.00007 0.83945 0.6716 0.0
O83 O 0.06975 0.83572 0.63871 0.0
O84 O 0.04609 0.84076 0.67837 0.0
O85 O 0.02947 0.77648 0.69433 0.0
C86 C 0.97409 0.88967 0.68756 0.0
O87 O 1.00497 0.81598 0.71558 0.0
C88 C 0.97213 0.79067 0.65993 0.0
C89 C 0.01647 0.83408 0.59912 0.0
O90 O 0.99984 0.8811 0.69647 0.0
O91 O 0.9631 0.87008 0.6695 0.0
O92 O 0.96551 0.8079 0.68251 0.0
O93 O 0.99396 0.80118 0.64542 0.0
O94 O 1.00587 0.85194 0.62152 0.0
O95 O 0.02867 0.80869 0.60709 0.0
C96 C 0.08133 0.7627 0.63905 0.0
O97 O 0.05385 0.7591 0.63142 0.0
O98 O 0.08054 0.77672 0.66437 0.0
C99 C 0.0637 0.85373 0.66057 0.0
Tb100 Tb 0.2206 0.04532 0.64734 0.0
C101 C 0.23304 0.02365 0.71195 0.0
Tb102 Tb 0.18691 0.99587 0.66296 0.0
O103 O 0.17936 0.06771 0.6359 0.0
O104 O 0.1805 0.04053 0.67347 0.0
O105 O 0.24313 0.03938 0.6894 0.0
C106 C 0.14494 0.9537 0.67132 0.0
O107 O 0.2085 1.00647 0.70805 0.0
C108 C 0.24079 0.98061 0.65278 0.0
C109 C 0.194 0.01817 0.59048 0.0
O110 O 0.17317 0.94945 0.66676 0.0
O111 O 0.13988 0.98224 0.67139 0.0
O112 O 0.2254 0.97148 0.67562 0.0
O113 O 0.22613 0.99933 0.63805 0.0
O114 O 0.18012 1.0004 0.61112 0.0
O115 O 0.21382 0.03749 0.60015 0.0
C116 C 0.2582 0.08906 0.64079 0.0
O117 O 0.23256 0.09113 0.65432 0.0
O118 O 0.26252 0.06218 0.63079 0.0
C119 C 0.16416 0.0563 0.65768 0.0
Tb120 Tb 0.9825 0.20901 0.6642 0.0
C121 C 1.00561 0.21707 0.72836 0.0
Tb122 Tb 0.02632 0.17196 0.67463 0.0
O123 O 0.95464 0.17188 0.65181 0.0
O124 O 0.98194 0.16814 0.68871 0.0
O125 O 0.98897 0.22847 0.70795 0.0
C126 C 0.05928 0.12293 0.68019 0.0
O127 O 0.02074 0.1919 0.72164 0.0
C128 C 0.04931 0.22281 0.6713 0.0
C129 C 0.00992 0.18891 0.60317 0.0
O130 O 0.06405 0.14834 0.69279 0.0
O131 O 0.03574 0.12493 0.66398 0.0
O132 O 0.05942 0.20228 0.68832 0.0
O133 O 0.02894 0.21341 0.65433 0.0
O134 O 0.02532 0.17136 0.62224 0.0
O135 O 0.99168 0.20903 0.61563 0.0
C136 C 0.94311 0.25259 0.67163 0.0
O137 O 0.93814 0.22663 0.65967 0.0
O138 O 0.9708 0.25357 0.6791 0.0
C139 C 0.96335 0.15483 0.67283 0.0
Tb140 Tb 0.86093 0.01187 0.65017 0.0
C141 C 0.84924 0.02927 0.58109 0.0
Tb142 Tb 0.82366 0.05442 0.64338 0.0
O143 O 0.83355 0.97522 0.66157 0.0
O144 O 0.81823 0.00874 0.63176 0.0
O145 O 0.8662 0.01321 0.59947 0.0
C146 C 0.79293 0.1029 0.64049 0.0
O147 O 0.82871 0.04726 0.59382 0.0
C148 C 0.87233 0.07061 0.67206 0.0
C149 C 0.80886 0.02455 0.70146 0.0
O150 O 0.81886 0.09892 0.62768 0.0
O151 O 0.78297 0.07827 0.65143 0.0
O152 O 0.84566 0.0748 0.68211 0.0
O153 O 0.87083 0.05664 0.64796 0.0
O154 O 0.79577 0.03795 0.67953 0.0
O155 O 0.83734 0.01566 0.69653 0.0
C156 C 0.91226 0.98969 0.66426 0.0
O157 O 0.89715 0.00798 0.68105 0.0
O158 O 0.89785 0.98258 0.64032 0.0
C159 C 0.81128 0.9863 0.64727 0.0
Tb160 Tb 0.39769 0.03427 0.227 0.0
C161 C 0.33718 1.00561 0.24283 0.0
Tb162 Tb 0.38397 0.99209 0.18814 0.0
O163 O 0.41444 0.06087 0.18996 0.0
O164 O 0.37542 0.03699 0.1851 0.0
O165 O 0.36123 0.01767 0.25379 0.0
C166 C 0.36294 0.96177 0.1418 0.0
O167 O 0.33945 0.99482 0.21477 0.0
C168 C 0.41431 0.96653 0.2275 0.0
C169 C 0.45531 0.0136 0.19835 0.0
O170 O 0.35876 0.955 0.16958 0.0
O171 O 0.37919 0.98557 0.14018 0.0
O172 O 0.41495 0.95905 0.19956 0.0
O173 O 0.39515 0.98679 0.23337 0.0
O174 O 0.43479 1.00232 0.17906 0.0
O175 O 0.44509 0.02565 0.22355 0.0
C176 C 0.37969 0.07883 0.26052 0.0
O177 O 0.4042 0.06367 0.2649 0.0
O178 O 0.36676 0.07015 0.23655 0.0
C179 C 0.39333 0.05403 0.17193 0.0
Tb180 Tb 0.9985 0.39872 0.24291 0.0
C181 C 0.02535 0.33542 0.25061 0.0
Tb182 Tb 0.0405 0.38406 0.20047 0.0
O183 O 0.96618 0.40776 0.2085 0.0
O184 O 0.99578 0.37147 0.20337 0.0
O185 O 0.01249 0.35817 0.26376 0.0
C186 C 0.07293 0.37163 0.15186 0.0
O187 O 0.03555 0.33863 0.22246 0.0
C188 C 0.06567 0.39966 0.24925 0.0
C189 C 0.01919 0.45656 0.21072 0.0
O190 O 0.0819 0.37038 0.17891 0.0
O191 O 0.04553 0.38107 0.1516 0.0
O192 O 0.07474 0.37743 0.23288 0.0
O193 O 0.04326 0.41147 0.2378 0.0
O194 O 0.03401 0.43573 0.19332 0.0
O195 O 1.00404 0.44655 0.23439 0.0
C196 C 0.96849 0.39867 0.29458 0.0
O197 O 0.9581 0.39193 0.26842 0.0
O198 O 0.99688 0.40365 0.29103 0.0
C199 C 0.97547 0.38625 0.19114 0.0
Tb200 Tb 0.64937 1.00162 0.22456 0.0
C201 C 0.70952 0.02732 0.23641 0.0
Tb202 Tb 0.65999 0.04465 0.18495 0.0
O203 O 0.68122 0.9739 0.19869 0.0
O204 O 0.65119 0.99935 0.17636 0.0
O205 O 0.6857 0.01776 0.25071 0.0
C206 C 0.67668 0.07945 0.13897 0.0
O207 O 0.70573 0.0361 0.20778 0.0
C208 C 0.63193 0.06739 0.2296 0.0
C209 C 0.59076 0.02054 0.19299 0.0
O210 O 0.67871 0.08614 0.16704 0.0
O211 O 0.66647 0.05252 0.13685 0.0
O212 O 0.62861 0.07628 0.20259 0.0
O213 O 0.65259 0.04834 0.23174 0.0
O214 O 0.60999 0.03692 0.17642 0.0
O215 O 0.6016 1.00499 0.21503 0.0
C216 C 0.63284 0.95673 0.2577 0.0
O217 O 0.65866 0.95956 0.24485 0.0
O218 O 0.61873 0.98189 0.25616 0.0
C219 C 0.6713 0.98003 0.17271 0.0
Tb220 Tb 0.04166 0.65237 0.24141 0.0
C221 C 0.0233 0.71891 0.24356 0.0
Tb222 Tb 1.00754 0.66692 0.195 0.0
O223 O 0.07847 0.6402 0.21072 0.0
O224 O 0.05182 0.67745 0.20237 0.0
O225 O 0.03534 0.69713 0.25775 0.0
C226 C 0.98917 0.68185 0.14179 0.0
O227 O 0.01226 0.71328 0.21641 0.0
C228 C 0.97403 0.65699 0.24107 0.0
C229 C 0.02461 0.59423 0.20834 0.0
O230 O 0.97439 0.68573 0.16649 0.0
O231 O 0.01368 0.66741 0.14645 0.0
O232 O 0.96783 0.67674 0.22141 0.0
O233 O 0.99674 0.64246 0.23266 0.0
O234 O 0.01247 0.61477 0.18962 0.0
O235 O 0.03729 0.60443 0.23297 0.0
C236 C 0.05569 0.65476 0.29848 0.0
O237 O 0.07316 0.66028 0.27553 0.0
O238 O 0.02937 0.64873 0.28823 0.0
C239 C 0.07314 0.66167 0.19227 0.0
Tb240 Tb 0.39159 1.00659 0.81211 0.0
C241 C 0.32818 0.03226 0.80395 0.0
Tb242 Tb 0.37937 0.05118 0.85043 0.0
O243 O 0.40214 0.97669 0.8475 0.0
O244 O 0.36607 1.00634 0.85356 0.0
O245 O 0.35114 0.02046 0.7901 0.0
C246 C 0.36843 0.08629 0.89794 0.0
O247 O 0.33267 0.04355 0.83143 0.0
C248 C 0.39346 0.07271 0.79865 0.0
C249 C 0.45157 0.02641 0.84039 0.0
O250 O 0.36392 0.09291 0.8705 0.0
O251 O 0.38021 0.05995 0.89884 0.0
O252 O 0.37257 0.08385 0.81572 0.0
O253 O 0.4052 0.05115 0.8117 0.0
O254 O 0.4316 0.0446 0.8556 0.0
O255 O 0.44026 0.00848 0.81953 0.0
C256 C 0.38284 0.97013 0.7662 0.0
O257 O 0.37466 0.96558 0.79367 0.0
O258 O 0.39729 0.99535 0.76548 0.0
C259 C 0.38139 0.98617 0.86581 0.0
Tb260 Tb 0.03236 0.38492 0.81545 0.0
C261 C 0.00961 0.31875 0.81449 0.0
Tb262 Tb 0.9886 0.37184 0.86118 0.0
O263 O 0.06776 0.39175 0.8468 0.0
O264 O 0.03381 0.36031 0.85605 0.0
O265 O 0.02517 0.33954 0.80123 0.0
C266 C 0.95654 0.36366 0.911 0.0
O267 O 0.9947 0.32536 0.84019 0.0
C268 C 0.96538 0.38883 0.81177 0.0
C269 C 0.01333 0.44245 0.85091 0.0
O270 O 0.95012 0.35374 0.88475 0.0
O271 O 0.98161 0.37814 0.90946 0.0
O272 O 0.95183 0.37062 0.82956 0.0
O273 O 0.98845 0.39774 0.82404 0.0
O274 O 0.99766 0.42277 0.86819 0.0
O275 O 0.02818 0.43222 0.82692 0.0
C276 C 0.04898 0.38561 0.75877 0.0
O277 O 0.06672 0.38414 0.78161 0.0
O278 O 0.02163 0.38755 0.76858 0.0
C279 C 0.05574 0.37435 0.86671 0.0
Tb280 Tb 0.65241 0.04733 0.80321 0.0
C281 C 0.71372 0.01832 0.79503 0.0
Tb282 Tb 0.6628 1.0073 0.8444 0.0
O283 O 0.6406 0.08002 0.83727 0.0
O284 O 0.67698 0.05168 0.84414 0.0
O285 O 0.69057 0.02718 0.78047 0.0
C286 C 0.67216 0.98121 0.89563 0.0
O287 O 0.70958 0.01305 0.82417 0.0
C288 C 0.64998 0.97995 0.79551 0.0
C289 C 0.59141 0.02843 0.83551 0.0
O290 O 0.68212 0.97184 0.86999 0.0
O291 O 0.65582 1.00466 0.89246 0.0
O292 O 0.66957 0.97028 0.81391 0.0
O293 O 0.63786 1.00323 0.80585 0.0
O294 O 0.6112 0.01268 0.85176 0.0
O295 O 0.60312 0.0436 0.81263 0.0
C296 C 0.65617 0.08742 0.76039 0.0
O297 O 0.64811 0.05985 0.75692 0.0
O298 O 0.67182 0.0872 0.78433 0.0
C299 C 0.66137 0.07263 0.85549 0.0
Tb300 Tb 0.98985 0.63659 0.82622 0.0
C301 C 0.01856 0.69585 0.80976 0.0
Tb302 Tb 0.03203 0.64749 0.86053 0.0
O303 O 0.96393 0.62076 0.86467 0.0
O304 O 0.98758 0.66008 0.86885 0.0
O305 O 1.0025 0.67421 0.79903 0.0
C306 C 0.07126 0.66999 0.89782 0.0
O307 O 0.03214 0.69129 0.83557 0.0
C308 C 0.05604 0.61524 0.81971 0.0
C309 C 0.00993 0.57797 0.8514 0.0
O310 O 0.07266 0.6715 0.86916 0.0
O311 O 0.04722 0.65588 0.90608 0.0
O312 O 0.0624 0.61344 0.8476 0.0
O313 O 0.03686 0.63555 0.81478 0.0
O314 O 0.02109 0.59805 0.87114 0.0
O315 O 0.99784 0.58892 0.82723 0.0
C316 C 0.94364 0.65024 0.79414 0.0
O317 O 0.95933 0.62583 0.7908 0.0
O318 O 0.95314 0.66579 0.81627 0.0
C319 C 0.96952 0.64306 0.88207 0.0
Tb320 Tb 0.2159 0.39238 0.04435 0.0
C321 C 0.22814 0.32893 0.02507 0.0
Tb322 Tb 0.17835 0.37764 1.00161 0.0
O323 O 0.19302 0.35921 0.07198 0.0
O324 O 0.16858 0.38655 0.04582 0.0
O325 O 0.24146 0.35306 0.03424 0.0
C326 C 0.13321 0.36757 0.9648 0.0
O327 O 0.20007 0.33217 0.01438 0.0
C328 C 0.23055 0.3808 0.9778 0.0
C329 C 0.18768 0.45015 0.01979 0.0
O330 O 0.13361 0.35903 0.99236 0.0
O331 O 0.15752 0.38164 0.95854 0.0
O332 O 0.21277 0.35853 0.97398 0.0
O333 O 0.21973 0.39881 0.99722 0.0
O334 O 0.17326 0.42953 1.0028 0.0
O335 O 0.20724 0.44017 0.03896 0.0
C336 C 0.25307 0.40684 0.08514 0.0
O337 O 0.2244 0.40883 0.0881 0.0
O338 O 0.26093 0.39827 0.05848 0.0
C339 C 0.16636 0.36611 0.06424 0.0
Tb340 Tb 0.2188 0.64745 0.99282 0.0
C341 C 0.22969 0.7104 0.01358 0.0
Tb342 Tb 0.17843 0.65948 0.03607 0.0
O343 O 0.19803 0.68216 0.96664 0.0
O344 O 0.17117 0.65403 0.99112 0.0
O345 O 0.24372 0.6871 1.0025 0.0
C346 C 0.13358 0.66145 0.07685 0.0
O347 O 0.2013 0.70589 0.02489 0.0
C348 C 0.22906 0.66326 0.05893 0.0
C349 C 0.19146 0.58798 0.01618 0.0
O350 O 0.13692 0.68021 0.05502 0.0
O351 O 0.1549 0.64208 0.07502 0.0
O352 O 0.20748 0.68158 0.06494 0.0
O353 O 0.22194 0.64296 0.04031 0.0
O354 O 0.17492 0.60757 0.03293 0.0
O355 O 0.2121 0.59948 0.9984 0.0
C356 C 0.2547 0.63221 0.9492 0.0
O357 O 0.2261 0.62814 0.94926 0.0
O358 O 0.26332 0.64328 0.97442 0.0
C359 C 0.17092 0.67573 0.97399 0.0
Tb360 Tb 0.38999 0.22825 1.00743 0.0
C361 C 0.32773 0.23887 0.03503 0.0
Tb362 Tb 0.37909 0.19169 0.05054 0.0
O363 O 0.39958 0.19061 0.97826 0.0
O364 O 0.36304 0.18844 1.00757 0.0
O365 O 0.35215 0.25215 0.02665 0.0
C366 C 0.37303 0.14387 0.08509 0.0
O367 O 0.33146 0.21049 0.04349 0.0
C368 C 0.39424 0.24144 0.07454 0.0
C369 C 0.45049 0.20321 0.02319 0.0
O370 O 0.36766 0.17111 0.09297 0.0
O371 O 0.38205 0.14328 0.05745 0.0
O372 O 0.37188 0.22572 0.08395 0.0
O373 O 0.40617 0.22953 0.05162 0.0
O374 O 0.43101 0.18595 0.03956 0.0
O375 O 0.43855 0.22604 0.00916 0.0
C376 C 0.37189 0.27015 0.97054 0.0
O377 O 0.38258 0.24425 0.96262 0.0
O378 O 0.37584 0.27337 0.99889 0.0
C379 C 0.37791 0.17431 0.98796 0.0
Tb380 Tb 0.80916 0.40539 0.0194 0.0
C381 C 0.80174 0.3423 0.04004 0.0
Tb382 Tb 0.8557 0.38927 0.05542 0.0
O383 O 0.84171 0.41233 0.98286 0.0
O384 O 0.84793 0.37737 0.01155 0.0
O385 O 0.78689 0.36722 0.03782 0.0
C386 C 0.90492 0.37509 0.08602 0.0
O387 O 0.83184 0.34476 0.0427 0.0
C388 C 0.8088 0.40022 0.08664 0.0
C389 C 0.84349 0.46206 0.03598 0.0
O390 O 0.87864 0.36375 0.08916 0.0
O391 O 0.90402 0.39414 0.06436 0.0
O392 O 0.82869 0.38151 0.09486 0.0
O393 O 0.81772 0.41449 0.0644 0.0
O394 O 0.86323 0.4412 0.04645 0.0
O395 O 0.81761 0.45182 0.02709 0.0
C396 C 0.76009 0.40879 0.98765 0.0
O397 O 0.77327 0.431 1.00062 0.0
O398 O 0.77267 0.38472 0.99648 0.0
C399 C 0.85918 0.39105 0.99024 0.0
Tb400 Tb 0.65871 0.86384 0.02477 0.0
C401 C 0.58738 0.85048 0.03822 0.0
Tb402 Tb 0.64791 0.82812 0.07042 0.0
O403 O 0.63312 0.84263 0.99231 0.0
O404 O 0.65672 0.81764 0.02545 0.0
O405 O 0.60709 0.86854 0.02394 0.0
C406 C 0.63561 0.79411 0.11524 0.0
O407 O 0.59932 0.83079 0.0569 0.0
C408 C 0.66892 0.88062 0.0878 0.0
C409 C 0.71118 0.81425 0.04188 0.0
O410 O 0.62794 0.82177 0.11385 0.0
O411 O 0.64811 0.78511 0.09058 0.0
O412 O 0.67931 0.85532 0.09616 0.0
O413 O 0.64883 0.87556 0.06928 0.0
O414 O 0.69099 0.80496 0.06159 0.0
O415 O 0.70404 0.83876 0.02623 0.0
C416 C 0.6823 0.9088 0.9952 0.0
O417 O 0.68162 0.88147 0.98603 0.0
O418 O 0.66904 0.91108 0.021 0.0
C419 C 0.63928 0.81688 1.00399 0.0
Tb420 Tb 0.86148 0.67231 0.02699 0.0
C421 C 0.84882 0.5995 0.01461 0.0
Tb422 Tb 0.81626 0.6564 0.9862 0.0
O423 O 0.83021 0.68285 0.06294 0.0
O424 O 0.82248 0.64922 0.031 0.0
O425 O 0.86777 0.62048 0.02563 0.0
C426 C 0.76427 0.64817 0.96178 0.0
O427 O 0.82578 0.60945 0.99888 0.0
C428 C 0.86797 0.66371 0.95927 0.0
C429 C 0.80837 0.72144 0.01496 0.0
O430 O 0.78973 0.64981 0.94751 0.0
O431 O 0.76836 0.65055 0.99014 0.0
O432 O 0.84813 0.64437 0.95135 0.0
O433 O 0.85778 0.67982 0.98065 0.0
O434 O 0.79891 0.70181 0.995 0.0
O435 O 0.83404 0.71572 0.02942 0.0
C436 C 0.91407 0.68523 0.04881 0.0
O437 O 0.90474 0.69483 0.02352 0.0
O438 O 0.89393 0.66904 0.06181 0.0
C439 C 0.81106 0.66378 0.0524 0.0
Tb440 Tb 0.3866 0.81454 0.0431 0.0
C441 C 0.32426 0.80646 0.01274 0.0
Tb442 Tb 0.37783 0.85483 0.99337 0.0
O443 O 0.39563 0.85276 0.07102 0.0
O444 O 0.36335 0.85565 0.03795 0.0
O445 O 0.34221 0.79783 0.03374 0.0
C446 C 0.36411 0.90222 0.96054 0.0
O447 O 0.33272 0.82932 0.99484 0.0
C448 C 0.39762 0.80691 0.9701 0.0
C449 C 0.4478 0.84304 0.02169 0.0
O450 O 0.35566 0.87505 0.95586 0.0
O451 O 0.38021 0.90307 0.98448 0.0
O452 O 0.39208 0.83011 0.95427 0.0
O453 O 0.3925 0.8119 0.99721 0.0
O454 O 0.42914 0.86031 1.00489 0.0
O455 O 0.43538 0.82095 0.0373 0.0
C456 C 0.38028 0.76993 0.08052 0.0
O457 O 0.38955 0.76794 0.05285 0.0
O458 O 0.37419 0.79772 0.08627 0.0
C459 C 0.37702 0.87003 0.05771 0.0
Tb460 Tb 0.64466 0.2279 0.041 0.0
C461 C 0.70623 0.24873 0.02038 0.0
Tb462 Tb 0.66096 0.19886 0.99463 0.0
O463 O 0.63277 0.18474 0.05977 0.0
O464 O 0.67343 0.18899 0.03821 0.0
O465 O 0.68056 0.25871 0.03096 0.0
C466 C 0.67323 0.15621 0.95332 0.0
O467 O 0.70542 0.22161 1.00711 0.0
C468 C 0.64673 0.25089 0.97638 0.0
C469 C 0.58781 0.20144 0.01697 0.0
O470 O 0.67384 0.18457 0.94939 0.0
O471 O 0.66559 0.15144 0.98088 0.0
O472 O 0.66997 0.23625 0.96678 0.0
O473 O 0.63273 0.23639 0.99615 0.0
O474 O 0.60925 0.18867 0.99881 0.0
O475 O 0.59701 0.22166 0.036 0.0
C476 C 0.64051 0.25064 0.09471 0.0
O477 O 0.66399 0.23793 0.08351 0.0
O478 O 0.62326 0.25758 0.07283 0.0
C479 C 0.65734 0.17138 0.05301 0.0
Tb480 Tb 0.54997 0.73154 0.90867 0.0
C481 C 0.52543 0.7425 0.84511 0.0
Tb482 Tb 0.50908 0.69196 0.8936 0.0
O483 O 0.58062 0.69539 0.9179 0.0
O484 O 0.55347 0.69359 0.88023 0.0
O485 O 0.5394 0.75411 0.86775 0.0
C486 C 0.48171 0.64256 0.87866 0.0
O487 O 0.5129 0.71557 0.84866 0.0
C488 C 0.48289 0.74062 0.9066 0.0
C489 C 0.52741 0.69968 0.96634 0.0
O490 O 0.4686 0.66666 0.88801 0.0
O491 O 0.51039 0.64569 0.87887 0.0
O492 O 0.47594 0.72421 0.8838 0.0
O493 O 0.50433 0.72955 0.92062 0.0
O494 O 0.51412 0.68261 0.94491 0.0
O495 O 0.54224 0.72345 0.95666 0.0
C496 C 0.58624 0.77714 0.91078 0.0
O497 O 0.59377 0.74997 0.90465 0.0
O498 O 0.55735 0.77866 0.91245 0.0
C499 C 0.5727 0.68001 0.89483 0.0
Tb500 Tb 0.36282 0.51498 0.87364 0.0
C501 C 0.3519 0.50936 0.94807 0.0
Tb502 Tb 0.32493 0.48238 0.89274 0.0
O503 O 0.34042 0.55448 0.86107 0.0
O504 O 0.32527 0.52985 0.8986 0.0
O505 O 0.36978 0.51926 0.92539 0.0
C506 C 0.28325 0.44225 0.8926 0.0
O507 O 0.32842 0.49384 0.93999 0.0
C508 C 0.37631 0.4533 0.8878 0.0
C509 C 0.30626 0.50665 0.83163 0.0
O510 O 0.28546 0.46357 0.91225 0.0
O511 O 0.30518 0.44261 0.87362 0.0
O512 O 0.35934 0.45429 0.91136 0.0
O513 O 0.36499 0.469 0.86776 0.0
O514 O 0.29608 0.49698 0.85722 0.0
O515 O 0.33573 0.51155 0.83058 0.0
C516 C 0.41605 0.53754 0.85805 0.0
O517 O 0.39311 0.53524 0.84136 0.0
O518 O 0.40883 0.52643 0.88359 0.0
C519 C 0.32016 0.55151 0.88158 0.0
Tb520 Tb 0.49654 0.31325 0.90274 0.0
C521 C 0.51941 0.30395 0.83973 0.0
Tb522 Tb 0.53478 0.3534 0.88795 0.0
O523 O 0.46686 0.34878 0.91823 0.0
O524 O 0.48917 0.35413 0.87802 0.0
O525 O 0.51362 0.28911 0.86402 0.0
C526 C 0.56592 0.40103 0.87153 0.0
O527 O 0.52404 0.33314 0.84288 0.0
C528 C 0.56465 0.3051 0.89963 0.0
C529 C 0.51866 0.34349 0.95996 0.0
O530 O 0.57171 0.37384 0.86422 0.0
O531 O 0.54269 0.40177 0.88928 0.0
O532 O 0.57146 0.32305 0.8784 0.0
O533 O 0.54213 0.31501 0.91356 0.0
O534 O 0.53042 0.36216 0.93924 0.0
O535 O 0.50627 0.31882 0.9499 0.0
C536 C 0.45174 0.2756 0.90627 0.0
O537 O 0.45812 0.29195 0.88364 0.0
O538 O 0.47488 0.2756 0.92314 0.0
C539 C 0.4703 0.36594 0.89576 0.0
Tb540 Tb 0.71766 0.48916 0.88901 0.0
C541 C 0.73347 0.51258 0.82643 0.0
Tb542 Tb 0.68891 0.53783 0.87711 0.0
O543 O 0.67482 0.47021 0.90168 0.0
O544 O 0.67833 0.49532 0.86312 0.0
O545 O 0.74394 0.49834 0.84919 0.0
C546 C 0.6469 0.57943 0.87029 0.0
O547 O 0.70826 0.52838 0.83072 0.0
C548 C 0.7409 0.55482 0.89086 0.0
C549 C 0.6943 0.51438 0.94876 0.0
O550 O 0.67527 0.58303 0.86634 0.0
O551 O 0.64196 0.55235 0.87852 0.0
O552 O 0.72909 0.56063 0.86556 0.0
O553 O 0.72677 0.53377 0.90325 0.0
O554 O 0.68173 0.53349 0.92906 0.0
O555 O 0.71258 0.49385 0.93737 0.0
C556 C 0.74888 0.43929 0.88344 0.0
O557 O 0.75767 0.46394 0.89611 0.0
O558 O 0.72195 0.44311 0.87447 0.0
C559 C 0.66069 0.4807 0.87925 0.0
Tb560 Tb 0.5484 0.30402 0.1525 0.0
C561 C 0.52031 0.29619 0.2169 0.0
Tb562 Tb 0.50115 0.34197 0.16602 0.0
O563 O 0.5888 0.32935 0.16003 0.0
O564 O 0.5469 0.34878 0.16829 0.0
O565 O 0.54324 0.29186 0.19893 0.0
C566 C 0.47376 0.39175 0.17842 0.0
O567 O 0.50009 0.31669 0.20968 0.0
C568 C 0.48116 0.29037 0.1515 0.0
C569 C 0.5258 0.33618 0.09539 0.0
O570 O 0.49611 0.38179 0.19316 0.0
O571 O 0.46626 0.37351 0.15721 0.0
O572 O 0.46965 0.30665 0.17298 0.0
O573 O 0.50321 0.30361 0.13979 0.0
O574 O 0.50794 0.35092 0.11553 0.0
O575 O 0.54371 0.31488 0.10531 0.0
C576 C 0.57048 0.25107 0.15777 0.0
O577 O 0.58344 0.27311 0.14373 0.0
O578 O 0.5432 0.25768 0.16517 0.0
C579 C 0.57466 0.35284 0.16964 0.0
Tb580 Tb 0.71685 0.54827 0.14216 0.0
C581 C 0.7346 0.52894 0.20596 0.0
Tb582 Tb 0.68809 0.50017 0.15902 0.0
O583 O 0.67481 0.56983 0.13353 0.0
O584 O 0.67864 0.54398 0.17179 0.0
O585 O 0.74217 0.54451 0.18253 0.0
C586 C 0.64708 0.45817 0.17034 0.0
O587 O 0.71017 0.51156 0.20378 0.0
C588 C 0.74182 0.4858 0.14592 0.0
C589 C 0.6922 0.51984 0.08565 0.0
O590 O 0.67538 0.45612 0.17477 0.0
O591 O 0.64162 0.48399 0.15914 0.0
O592 O 0.72757 0.47633 0.1692 0.0
O593 O 0.72566 0.50309 0.13118 0.0
O594 O 0.68059 0.50147 0.10703 0.0
O595 O 0.70993 0.54124 0.09474 0.0
C596 C 0.75391 0.59208 0.1342 0.0
O597 O 0.76058 0.56419 0.13105 0.0
O598 O 0.72642 0.59511 0.14282 0.0
C599 C 0.66127 0.55998 0.15711 0.0
Tb600 Tb 0.49625 0.72487 0.16071 0.0
C601 C 0.5097 0.72492 0.22675 0.0
Tb602 Tb 0.52699 0.67438 0.1769 0.0
O603 O 0.45905 0.69786 0.14523 0.0
O604 O 0.482 0.68423 0.18268 0.0
O605 O 0.50774 0.74222 0.20376 0.0
C606 C 0.55383 0.62232 0.18846 0.0
O607 O 0.51291 0.69533 0.22194 0.0
C608 C 0.56169 0.71922 0.17582 0.0
C609 C 0.51734 0.68956 0.104 0.0
O610 O 0.55327 0.6458 0.20521 0.0
O611 O 0.53745 0.62784 0.16563 0.0
O612 O 0.56545 0.69719 0.19327 0.0
O613 O 0.54186 0.71352 0.15715 0.0
O614 O 0.52566 0.66934 0.12473 0.0
O615 O 0.50697 0.71545 0.11393 0.0
C616 C 0.46876 0.77624 0.15277 0.0
O617 O 0.46331 0.7576 0.174 0.0
O618 O 0.49464 0.7688 0.1414 0.0
C619 C 0.4621 0.6771 0.16469 0.0
Tb620 Tb 0.36034 0.52098 0.15742 0.0
C621 C 0.35153 0.53305 0.08385 0.0
Tb622 Tb 0.3262 0.56256 0.14147 0.0
O623 O 0.32962 0.48631 0.16709 0.0
O624 O 0.32199 0.51669 0.13235 0.0
O625 O 0.36666 0.51805 0.10517 0.0
C626 C 0.29305 0.61011 0.14077 0.0
O627 O 0.33175 0.55289 0.0938 0.0
C628 C 0.38048 0.58119 0.15233 0.0
C629 C 0.30704 0.53759 0.20295 0.0
O630 O 0.31845 0.60851 0.15333 0.0
O631 O 0.28637 0.58484 0.12832 0.0
O632 O 0.36725 0.58407 0.12717 0.0
O633 O 0.36437 0.56562 0.16927 0.0
O634 O 0.29764 0.55153 0.17941 0.0
O635 O 0.33468 0.5263 0.20141 0.0
C636 C 0.41096 0.496 0.17233 0.0
O637 O 0.38498 0.48952 0.18324 0.0
O638 O 0.40841 0.51517 0.15127 0.0
C639 C 0.31109 0.49572 0.14743 0.0
Tb640 Tb 0.89483 0.53478 0.72852 0.0
C641 C 0.83314 0.5057 0.73875 0.0
Tb642 Tb 0.88409 0.4898 0.68828 0.0
O643 O 0.91268 0.56044 0.69106 0.0
O644 O 0.87482 0.53472 0.68573 0.0
O645 O 0.85503 0.51957 0.75214 0.0
C646 C 0.86416 0.46095 0.64088 0.0
O647 O 0.83868 0.49262 0.71209 0.0
C648 C 0.91132 0.46767 0.7316 0.0
C649 C 0.95393 0.51319 0.70013 0.0
O650 O 0.86071 0.45236 0.66825 0.0
O651 O 0.87967 0.48531 0.64019 0.0
O652 O 0.91415 0.45744 0.70454 0.0
O653 O 0.89145 0.48765 0.73438 0.0
O654 O 0.93443 0.50066 0.68069 0.0
O655 O 0.9429 0.52603 0.72487 0.0
C656 C 0.87451 0.58144 0.75824 0.0
O657 O 0.89897 0.56684 0.7647 0.0
O658 O 0.86267 0.57004 0.73479 0.0
C659 C 0.89256 0.55192 0.67264 0.0
Tb660 Tb 0.50444 0.90321 0.7446 0.0
C661 C 0.52665 0.84035 0.75436 0.0
Tb662 Tb 0.53827 0.88291 0.69776 0.0
O663 O 0.46962 0.9137 0.71269 0.0
O664 O 0.49328 0.87477 0.7065 0.0
O665 O 0.52469 0.86648 0.76744 0.0
C666 C 0.55887 0.86645 0.64404 0.0
O667 O 0.52847 0.84037 0.72434 0.0
C668 C 0.57266 0.8982 0.74035 0.0
C669 C 0.52251 0.95692 0.70618 0.0
O670 O 0.56471 0.85347 0.66877 0.0
O671 O 0.54137 0.88889 0.64961 0.0
O672 O 0.57979 0.87739 0.72135 0.0
O673 O 0.54921 0.911 0.73267 0.0
O674 O 0.53267 0.93421 0.68795 0.0
O675 O 0.51243 0.94955 0.73296 0.0
C676 C 0.46684 0.91119 0.78965 0.0
O677 O 0.47158 0.88623 0.77575 0.0
O678 O 0.49065 0.92715 0.78496 0.0
C679 C 0.47332 0.89082 0.69572 0.0
Tb680 Tb 0.14281 0.49521 0.73369 0.0
C681 C 0.20728 0.52197 0.74118 0.0
Tb682 Tb 0.16127 0.54246 0.6863 0.0
O683 O 0.15223 0.4551 0.70605 0.0
O684 O 0.15845 0.49638 0.68872 0.0
O685 O 0.18467 0.50689 0.7528 0.0
C686 C 0.17193 0.57119 0.63487 0.0
O687 O 0.20462 0.53536 0.71393 0.0
C688 C 0.13901 0.56742 0.73375 0.0
C689 C 0.08947 0.519 0.69612 0.0
O690 O 0.19107 0.56794 0.65618 0.0
O691 O 0.1478 0.55693 0.64214 0.0
O692 O 0.14553 0.58236 0.70992 0.0
O693 O 0.14921 0.5415 0.73035 0.0
O694 O 0.11008 0.53524 0.68047 0.0
O695 O 0.09778 0.50211 0.7183 0.0
C696 C 0.11789 0.46213 0.77346 0.0
O697 O 0.10992 0.48951 0.76863 0.0
O698 O 0.1458 0.45971 0.76525 0.0
C699 C 0.16024 0.4692 0.68231 0.0
Tb700 Tb 0.54002 0.14809 0.73717 0.0
C701 C 0.51791 0.21225 0.74417 0.0
Tb702 Tb 0.50547 0.1662 0.69085 0.0
O703 O 0.57639 0.13797 0.70507 0.0
O704 O 0.5499 0.17588 0.69978 0.0
O705 O 0.52119 0.18736 0.75826 0.0
C706 C 0.48839 0.18275 0.63792 0.0
O707 O 0.51465 0.21045 0.71455 0.0
C708 C 0.47242 0.15081 0.73601 0.0
C709 C 0.52298 0.09288 0.69908 0.0
O710 O 0.47527 0.18996 0.66292 0.0
O711 O 0.51048 0.16478 0.6424 0.0
O712 O 0.46427 0.17139 0.71782 0.0
O713 O 0.49587 0.13883 0.72605 0.0
O714 O 0.51058 0.11458 0.68196 0.0
O715 O 0.53551 0.1013 0.72432 0.0
C716 C 0.56519 0.14744 0.79039 0.0
O717 O 0.57565 0.15967 0.76623 0.0
O718 O 0.53882 0.13743 0.78424 0.0
C719 C 0.57115 0.16079 0.68851 0.0
Tb720 Tb 0.89479 0.51652 0.30394 0.0
C721 C 0.83178 0.54009 0.29778 0.0
Tb722 Tb 0.87853 0.55401 0.35013 0.0
O723 O 0.90604 0.48292 0.33669 0.0
O724 O 0.86804 0.50927 0.34388 0.0
O725 O 0.85702 0.53673 0.28304 0.0
C726 C 0.86778 0.58125 0.40312 0.0
O727 O 0.83367 0.54325 0.32768 0.0
C728 C 0.89241 0.58454 0.30355 0.0
C729 C 0.95106 0.53199 0.34017 0.0
O730 O 0.85685 0.58871 0.37779 0.0
O731 O 0.88428 0.55774 0.39877 0.0
O732 O 0.87242 0.59285 0.32307 0.0
O733 O 0.90558 0.56156 0.31217 0.0
O734 O 0.92973 0.54595 0.35758 0.0
O735 O 0.94243 0.51965 0.31466 0.0
C736 C 0.89584 0.47648 0.2613 0.0
O737 O 0.90952 0.50206 0.25975 0.0
O738 O 0.8735 0.48096 0.27944 0.0
C739 C 0.88393 0.48904 0.35456 0.0
Tb740 Tb 0.53563 0.88507 0.31916 0.0
C741 C 0.50915 0.82049 0.31701 0.0
Tb742 Tb 0.49058 0.87592 0.36002 0.0
O743 O 0.56716 0.89496 0.35332 0.0
O744 O 0.53546 0.86138 0.36076 0.0
O745 O 0.52743 0.8396 0.30482 0.0
C746 C 0.46073 0.86802 0.41069 0.0
O747 O 0.49315 0.82884 0.34122 0.0
C748 C 0.46782 0.88829 0.30941 0.0
C749 C 0.51398 0.9454 0.34774 0.0
O750 O 0.45267 0.85844 0.38485 0.0
O751 O 0.48503 0.88338 0.40797 0.0
O752 O 0.45424 0.8722 0.32913 0.0
O753 O 0.49092 0.89957 0.32025 0.0
O754 O 0.49784 0.92675 0.36538 0.0
O755 O 0.52959 0.93348 0.32497 0.0
C756 C 0.56668 0.8763 0.26932 0.0
O757 O 0.57761 0.8851 0.29467 0.0
O758 O 0.53792 0.87574 0.27158 0.0
C759 C 0.55665 0.87598 0.37231 0.0
Tb760 Tb 0.14186 0.54684 0.30166 0.0
C761 C 0.20598 0.52457 0.29139 0.0
Tb762 Tb 0.16068 0.51056 0.34579 0.0
O763 O 0.13043 0.57798 0.33823 0.0
O764 O 0.17059 0.55506 0.3388 0.0
O765 O 0.18098 0.53018 0.27764 0.0
C766 C 0.17861 0.4909 0.39769 0.0
O767 O 0.20437 0.51992 0.32088 0.0
C768 C 0.14808 0.47875 0.30004 0.0
C769 C 0.08713 0.52631 0.3402 0.0
O770 O 0.18414 0.4784 0.37209 0.0
O771 O 0.16161 0.51392 0.39443 0.0
O772 O 0.16864 0.47151 0.31853 0.0
O773 O 0.13394 0.50139 0.30935 0.0
O774 O 0.1093 0.5142 0.35671 0.0
O775 O 0.09505 0.53898 0.31478 0.0
C776 C 0.12935 0.58827 0.26477 0.0
O777 O 0.12007 0.56101 0.26157 0.0
O778 O 0.15485 0.58623 0.27756 0.0
C779 C 0.15499 0.57435 0.35208 0.0
Tb780 Tb 0.48714 0.13919 0.32485 0.0
C781 C 0.51298 0.19818 0.3064 0.0
Tb782 Tb 0.53112 0.1519 0.35462 0.0
O783 O 0.46514 0.12524 0.3662 0.0
O784 O 0.48736 0.16542 0.36573 0.0
O785 O 0.50392 0.17313 0.29448 0.0
C786 C 0.56756 0.1655 0.39874 0.0
O787 O 0.52102 0.19678 0.33476 0.0
C788 C 0.55429 0.13662 0.30344 0.0
C789 C 0.51046 0.08069 0.3487 0.0
O790 O 0.57193 0.17164 0.37104 0.0
O791 O 0.54302 0.15056 0.40176 0.0
O792 O 0.56379 0.1585 0.31963 0.0
O793 O 0.53195 0.12439 0.31582 0.0
O794 O 0.52777 0.10105 0.36277 0.0
O795 O 0.49157 0.09087 0.32885 0.0
C796 C 0.43722 0.1532 0.29804 0.0
O797 O 0.45207 0.12828 0.29412 0.0
O798 O 0.45114 0.17001 0.31648 0.0
C799 C 0.47098 0.14883 0.38161 0.0
Tb800 Tb 0.71113 0.89367 0.55518 0.0
C801 C 0.7298 0.83219 0.53598 0.0
Tb802 Tb 0.68075 0.8809 0.50767 0.0
O803 O 0.68387 0.85816 0.57582 0.0
O804 O 0.66439 0.88922 0.5495 0.0
O805 O 0.7405 0.85591 0.54935 0.0
C806 C 0.63823 0.87008 0.46806 0.0
O807 O 0.70331 0.83561 0.52155 0.0
C808 C 0.73459 0.87873 0.49017 0.0
C809 C 0.69241 0.95289 0.5242 0.0
O810 O 0.63842 0.85938 0.49485 0.0
O811 O 0.6614 0.88685 0.46407 0.0
O812 O 0.71538 0.85793 0.48486 0.0
O813 O 0.72403 0.89846 0.5084 0.0
O814 O 0.6774 0.93292 0.50706 0.0
O815 O 0.71053 0.94147 0.54407 0.0
C816 C 0.72461 0.91479 0.60774 0.0
O817 O 0.69992 0.91964 0.59436 0.0
O818 O 0.7427 0.89923 0.59062 0.0
C819 C 0.65895 0.86762 0.56559 0.0
Tb820 Tb 0.71895 0.14704 0.49069 0.0
C821 C 0.73358 0.21278 0.50923 0.0
Tb822 Tb 0.68434 0.1658 0.53691 0.0
O823 O 0.67822 0.13364 0.46899 0.0
O824 O 0.67915 0.17416 0.49219 0.0
O825 O 0.74385 0.18841 0.49608 0.0
C826 C 0.63991 0.17453 0.57825 0.0
O827 O 0.7069 0.21061 0.52408 0.0
C828 C 0.73717 0.15819 0.55478 0.0
C829 C 0.69283 0.09117 0.5194 0.0
O830 O 0.66701 0.18415 0.57964 0.0
O831 O 0.63741 0.16051 0.55297 0.0
O832 O 0.72094 0.18101 0.56183 0.0
O833 O 0.7236 0.14091 0.53719 0.0
O834 O 0.67812 0.11322 0.53529 0.0
O835 O 0.71355 0.09979 0.50016 0.0
C836 C 0.75562 0.13936 0.44556 0.0
O837 O 0.76123 0.13222 0.47279 0.0
O838 O 0.72939 0.15102 0.44384 0.0
C839 C 0.6632 0.15698 0.47722 0.0
Tb840 Tb 0.8936 0.72675 0.51375 0.0
C841 C 0.83078 0.74166 0.5373 0.0
Tb842 Tb 0.87777 0.68964 0.55415 0.0
O843 O 0.90677 0.68814 0.48632 0.0
O844 O 0.86618 0.68728 0.5094 0.0
O845 O 0.85596 0.75398 0.52867 0.0
C846 C 0.87121 0.63763 0.58219 0.0
O847 O 0.83262 0.71287 0.54549 0.0
C848 C 0.88968 0.73781 0.58239 0.0
C849 C 0.95082 0.69669 0.53375 0.0
O850 O 0.8588 0.66257 0.59028 0.0
O851 O 0.88658 0.64187 0.55794 0.0
O852 O 0.86878 0.71962 0.59053 0.0
O853 O 0.90418 0.72787 0.55989 0.0
O854 O 0.92966 0.68172 0.54979 0.0
O855 O 0.94131 0.71887 0.51765 0.0
C856 C 0.89748 0.76178 0.46755 0.0
O857 O 0.87543 0.74433 0.47357 0.0
O858 O 0.91439 0.76333 0.49072 0.0
C859 C 0.88296 0.67298 0.49159 0.0
Tb860 Tb 0.31739 0.89803 0.50512 0.0
C861 C 0.30181 0.8375 0.53274 0.0
Tb862 Tb 0.34685 0.88893 0.55772 0.0
O863 O 0.36046 0.90922 0.48574 0.0
O864 O 0.3571 0.87402 0.51499 0.0
O865 O 0.29022 0.86009 0.51866 0.0
C866 C 0.3884 0.88231 0.60008 0.0
O867 O 0.32717 0.84245 0.54807 0.0
C868 C 0.29177 0.90127 0.56894 0.0
C869 C 0.34054 0.95882 0.52931 0.0
O870 O 0.35981 0.88466 0.60433 0.0
O871 O 0.39392 0.88397 0.57161 0.0
O872 O 0.30642 0.88055 0.58237 0.0
O873 O 0.30806 0.91276 0.549 0.0
O874 O 0.35405 0.94032 0.54914 0.0
O875 O 0.32224 0.94626 0.5098 0.0
C876 C 0.29123 0.88522 0.45495 0.0
O877 O 0.312 0.86968 0.46661 0.0
O878 O 0.28566 0.90898 0.47119 0.0
C879 C 0.37492 0.88853 0.49905 0.0
Tb880 Tb 0.1615 0.36605 0.52049 0.0
C881 C 0.08811 0.35835 0.53022 0.0
Tb882 Tb 0.14406 0.33249 0.56482 0.0
O883 O 0.17969 0.33195 0.49318 0.0
O884 O 0.139 0.32567 0.51806 0.0
O885 O 0.1102 0.37203 0.51448 0.0
C886 C 0.11848 0.29922 0.60386 0.0
O887 O 0.09695 0.34071 0.55186 0.0
C888 C 0.16286 0.38015 0.59326 0.0
C889 C 0.20768 0.31343 0.5417 0.0
O890 O 0.10742 0.32375 0.59419 0.0
O891 O 0.14337 0.29198 0.59014 0.0
O892 O 0.15563 0.35571 0.60576 0.0
O893 O 0.16265 0.37739 0.5654 0.0
O894 O 0.18378 0.30438 0.55675 0.0
O895 O 0.20566 0.34042 0.52869 0.0
C896 C 0.1795 0.41322 0.49108 0.0
O897 O 0.17969 0.4112 0.51976 0.0
O898 O 0.16836 0.38948 0.47912 0.0
C899 C 0.15742 0.31435 0.49909 0.0
Tb900 Tb 0.35601 0.1706 0.52492 0.0
C901 C 0.34322 0.09677 0.51689 0.0
Tb902 Tb 0.31815 0.15391 0.48952 0.0
O903 O 0.33117 0.18397 0.56354 0.0
O904 O 0.31703 0.14739 0.53669 0.0
O905 O 0.36069 0.11831 0.52936 0.0
C906 C 0.27617 0.15064 0.4497 0.0
O907 O 0.32231 0.10668 0.49918 0.0
C908 C 0.37105 0.15928 0.46287 0.0
C909 C 0.3018 0.21656 0.51459 0.0
O910 O 0.2767 0.13618 0.4745 0.0
O911 O 0.29997 0.16659 0.44699 0.0
O912 O 0.35511 0.13539 0.46234 0.0
O913 O 0.35825 0.17866 0.47921 0.0
O914 O 0.29074 0.19217 0.50307 0.0
O915 O 0.33088 0.2152 0.52117 0.0
C916 C 0.40899 0.18589 0.54572 0.0
O917 O 0.38394 0.19879 0.55199 0.0
O918 O 0.40425 0.16309 0.52859 0.0
C919 C 0.31073 0.16432 0.55877 0.0
Tb920 Tb 0.89047 0.32252 0.53391 0.0
C921 C 0.82931 0.30942 0.50513 0.0
Tb922 Tb 0.87893 0.36026 0.48655 0.0
O923 O 0.89664 0.36061 0.56263 0.0
O924 O 0.8631 0.3617 0.53074 0.0
O925 O 0.85219 0.29731 0.5182 0.0
C926 C 0.8715 0.40769 0.45178 0.0
O927 O 0.8331 0.33706 0.49374 0.0
C928 C 0.89445 0.3084 0.46891 0.0
C929 C 0.95001 0.35372 0.51469 0.0
O930 O 0.86192 0.38106 0.44646 0.0
O931 O 0.88537 0.40784 0.47693 0.0
O932 O 0.87655 0.32462 0.4535 0.0
O933 O 0.90494 0.32332 0.48979 0.0
O934 O 0.93089 0.36697 0.49509 0.0
O935 O 0.9383 0.33377 0.53314 0.0
C936 C 0.8893 0.28138 0.57444 0.0
O937 O 0.87296 0.30512 0.57479 0.0
O938 O 0.90466 0.27994 0.54962 0.0
C939 C 0.87595 0.37646 0.55078 0.0
Tb940 Tb 0.14684 0.72692 0.546 0.0
C941 C 0.21077 0.73877 0.52076 0.0
Tb942 Tb 0.15868 0.69368 0.49538 0.0
O943 O 0.17664 0.70018 0.57331 0.0
O944 O 0.1541 0.67995 0.53963 0.0
O945 O 0.18893 0.74745 0.53776 0.0
C946 C 0.16564 0.65169 0.45315 0.0
O947 O 0.20562 0.715 0.50271 0.0
C948 C 0.14292 0.7471 0.48183 0.0
C949 C 0.0881 0.6974 0.52735 0.0
O950 O 0.1764 0.65026 0.47975 0.0
O951 O 0.15052 0.67602 0.45067 0.0
O952 O 0.16555 0.73359 0.46927 0.0
O953 O 0.13196 0.73079 0.50175 0.0
O954 O 0.10693 0.68663 0.50499 0.0
O955 O 0.0998 0.71463 0.54851 0.0
C956 C 0.14769 0.78152 0.567 0.0
O957 O 0.14302 0.75715 0.58268 0.0
O958 O 0.1507 0.77433 0.53903 0.0
C959 C 0.17341 0.67523 0.55899 0.0
C960 C 0.98867 0.19609 0.54922 0.0
C961 C 0.01277 0.18733 0.56779 0.0
C962 C 0.99052 0.19669 0.51693 0.0
C963 C 0.01698 0.18954 0.50014 0.0
H964 H 0.96776 0.2029 0.55983 0.0
H965 H 0.97103 0.20401 0.50506 0.0
S966 S 0.08755 0.16577 0.53614 0.0
N967 N 0.06443 0.17077 0.56503 0.0
N968 N 0.06836 0.1737 0.50606 0.0
C969 C 0.04129 0.18089 0.51834 0.0
C970 C 0.03912 0.17929 0.55121 0.0
C971 C 0.87386 0.03521 0.52689 0.0
C972 C 0.85043 0.02465 0.54617 0.0
C973 C 0.87364 0.03182 0.49458 0.0
C974 C 0.85022 0.01709 0.47899 0.0
H975 H 0.89255 0.04667 0.53682 0.0
H976 H 0.89228 0.0407 0.48176 0.0
S977 S 0.7838 0.98419 0.51846 0.0
N978 N 0.80331 0.99847 0.54606 0.0
N979 N 0.80291 0.99149 0.48757 0.0
C980 C 0.82701 1.00619 0.49838 0.0
C981 C 0.82708 0.0101 0.53092 0.0
C982 C 0.0237 0.86402 0.54839 0.0
C983 C 0.01243 0.83924 0.5648 0.0
C984 C 0.02327 0.86537 0.51599 0.0
C985 C 0.01125 0.8422 0.4976 0.0
H986 H 0.03388 0.88223 0.56055 0.0
H987 H 0.03264 0.88483 0.5053 0.0
S988 S 0.98022 0.77198 0.52879 0.0
N989 N 0.98994 0.79076 0.55886 0.0
N990 N 0.98846 0.79331 0.50015 0.0
C991 C 0.9999 0.81766 0.51406 0.0
C992 C 1.00066 0.81622 0.54663 0.0
C993 C 0.18476 0.99124 0.53857 0.0
C994 C 0.18907 0.01762 0.55578 0.0
C995 C 0.18535 0.9909 0.50632 0.0
C996 C 0.18931 0.01694 0.48861 0.0
H997 H 0.18235 0.97026 0.55002 0.0
H998 H 0.1832 0.96957 0.49501 0.0
S999 S 0.20093 0.09239 0.52148 0.0
N1000 N 0.19725 0.07102 0.55109 0.0
N1001 N 0.19724 0.07015 0.49213 0.0
C1002 C 0.19256 0.04353 0.50549 0.0
C1003 C 0.19273 0.04387 0.53823 0.0
C1004 C 0.53793 0.04255 0.20256 0.0
C1005 C 0.55633 0.02027 0.18909 0.0
C1006 C 0.506 0.04028 0.20429 0.0
C1007 C 0.4897 0.0158 0.19227 0.0
H1008 H 0.54838 0.06164 0.21301 0.0
H1009 H 0.49387 0.05803 0.2158 0.0
S1010 S 0.5266 0.95032 0.15535 0.0
N1011 N 0.55507 0.97177 0.16458 0.0
N1012 N 0.49594 0.96837 0.16626 0.0
C1013 C 0.5078 0.9935 0.17824 0.0
C1014 C 0.54053 0.99546 0.1772 0.0
C1015 C 0.00929 0.5427 0.22928 0.0
C1016 C 0.02149 0.55926 0.20515 0.0
C1017 C 0.00875 0.51073 0.23006 0.0
C1018 C 0.02076 0.4917 0.20702 0.0
H1019 H 1.00012 0.55477 0.24846 0.0
H1020 H 0.99923 0.5008 0.24991 0.0
S1021 S 0.05859 0.52237 0.13905 0.0
N1022 N 0.04791 0.55281 0.15758 0.0
N1023 N 0.04721 0.4937 0.15914 0.0
C1024 C 0.03372 0.50785 0.18272 0.0
C1025 C 0.03399 0.54087 0.18178 0.0
C1026 C 0.53788 1.00225 0.83327 0.0
C1027 C 0.5558 0.02747 0.84082 0.0
C1028 C 0.50542 1.00221 0.83411 0.0
C1029 C 0.48723 0.027 0.84356 0.0
H1030 H 0.54892 0.98202 0.82579 0.0
H1031 H 0.49433 0.98205 0.82679 0.0
S1032 S 0.52122 0.0993 0.86704 0.0
N1033 N 0.5509 0.07852 0.8589 0.0
N1034 N 0.49165 0.07807 0.86136 0.0
C1035 C 0.50476 0.05211 0.85236 0.0
C1036 C 0.53797 0.05241 0.85075 0.0
C1037 C 0.00891 0.52578 0.82771 0.0
C1038 C 0.01151 0.54348 0.85398 0.0
C1039 C 0.00916 0.49408 0.82768 0.0
C1040 C 0.01123 0.47699 0.85399 0.0
H1041 H 1.00697 0.53657 0.80633 0.0
H1042 H 1.00763 0.48277 0.80629 0.0
S1043 S 0.02014 0.51119 0.92952 0.0
N1044 N 0.01777 0.54048 0.90762 0.0
N1045 N 0.01722 0.48134 0.9077 0.0
C1046 C 0.01399 0.49419 0.8807 0.0
C1047 C 0.01445 0.52695 0.88065 0.0
C1048 C 0.16859 0.53623 0.03547 0.0
C1049 C 0.18825 0.55262 0.01629 0.0
C1050 C 0.16728 0.50385 0.03565 0.0
C1051 C 0.18505 0.48503 0.01629 0.0
H1052 H 0.15432 0.54849 0.0511 0.0
H1053 H 0.15242 0.49342 0.05174 0.0
S1054 S 0.2408 0.51479 0.96168 0.0
N1055 N 0.22611 0.54524 0.977 0.0
N1056 N 0.22377 0.48659 0.97803 0.0
C1057 C 0.2046 0.50106 0.99713 0.0
C1058 C 0.20603 0.53378 0.99686 0.0
C1059 C 0.53611 0.18404 0.04007 0.0
C1060 C 0.55314 0.19613 0.01572 0.0
C1061 C 0.50368 0.1847 0.04199 0.0
C1062 C 0.48563 0.19882 0.02036 0.0
H1063 H 0.54805 0.17442 0.05843 0.0
H1064 H 0.49281 0.17514 0.06142 0.0
S1065 S 0.51859 0.23569 0.95297 0.0
N1066 N 0.5483 0.22293 0.96987 0.0
N1067 N 0.48935 0.22586 0.97366 0.0
C1068 C 0.50268 0.21116 0.99614 0.0
C1069 C 0.53543 0.20949 0.99383 0.0
C1070 C 0.87459 0.54742 0.0319 0.0
C1071 C 0.84964 0.56462 0.02176 0.0
C1072 C 0.87348 0.51518 0.03698 0.0
C1073 C 0.84716 0.49746 0.03279 0.0
H1074 H 0.89554 0.5588 0.03557 0.0
H1075 H 0.89364 0.50412 0.04402 0.0
S1076 S 0.77439 0.53112 0.0094 0.0
N1077 N 0.79732 0.55971 0.00969 0.0
N1078 N 0.79478 0.50255 0.01942 0.0
C1079 C 0.82213 0.51499 0.02362 0.0
C1080 C 0.82345 0.5471 0.01818 0.0
C1081 C 0.53249 0.82939 0.04718 0.0
C1082 C 0.55179 0.85038 0.03284 0.0
C1083 C 0.50046 0.82765 0.04306 0.0
C1084 C 0.48358 0.84692 0.02439 0.0
H1085 H 0.54228 0.81368 0.0623 0.0
H1086 H 0.48862 0.81052 0.05523 0.0
S1087 S 0.52134 0.90747 0.98129 0.0
N1088 N 0.54962 0.89181 0.99851 0.0
N1089 N 0.49091 0.88897 0.9914 0.0
C1090 C 0.50243 0.8684 0.00992 0.0
C1091 C 0.53547 0.87 0.01394 0.0
C1092 C 0.51064 0.67005 0.01624 0.0
C1093 C 0.52572 0.69416 1.00157 0.0
C1094 C 0.50911 0.66677 0.04868 0.0
C1095 C 0.52286 0.68717 0.06908 0.0
H1096 H 0.49931 0.65369 1.0026 0.0
H1097 H 0.49609 0.64859 0.05776 0.0
S1098 S 0.5649 0.75364 0.04489 0.0
N1099 N 0.55454 0.73869 0.01287 0.0
N1100 N 0.55188 0.7319 0.07118 0.0
C1101 C 0.53805 0.71063 0.05471 0.0
C1102 C 0.53946 0.71423 0.02222 0.0
C1103 C 0.37675 0.50545 1.00138 0.0
C1104 C 0.35495 0.51769 0.98205 0.0
C1105 C 0.37609 0.51 0.03358 0.0
C1106 C 0.3536 0.52727 0.04892 0.0
H1107 H 0.39419 0.49142 0.99168 0.0
H1108 H 0.39339 0.49968 0.04652 0.0
S1109 S 0.29096 0.56432 0.00927 0.0
N1110 N 0.31 0.5476 0.98194 0.0
N1111 N 0.3088 0.55658 0.04012 0.0
C1112 C 0.33195 0.53964 0.02948 0.0
C1113 C 0.33254 0.53473 0.99712 0.0
C1114 C 0.50987 0.36715 0.01391 0.0
C1115 C 0.52332 0.34557 0.99422 0.0
C1116 C 0.51049 0.36466 0.04613 0.0
C1117 C 0.5247 0.34049 0.06074 0.0
H1118 H 0.49785 0.38562 1.00445 0.0
H1119 H 0.49948 0.38175 0.05962 0.0
S1120 S 0.56244 0.27781 0.01956 0.0
N1121 N 0.55027 0.29902 0.99266 0.0
N1122 N 0.55225 0.29454 0.05104 0.0
C1123 C 0.53815 0.31916 0.04091 0.0
C1124 C 0.53717 0.32158 0.00862 0.0
C1125 C 0.69977 0.49161 1.00179 0.0
C1126 C 0.69018 0.51576 0.98374 0.0
C1127 C 0.69858 0.49207 0.03395 0.0
C1128 C 0.6878 0.51681 0.05104 0.0
H1129 H 0.70905 0.4719 0.9909 0.0
H1130 H 0.70759 0.47318 0.04549 0.0
S1131 S 0.66027 0.58669 0.01645 0.0
N1132 N 0.66923 0.56559 0.9871 0.0
N1133 N 0.6678 0.56681 0.04622 0.0
C1134 C 0.67818 0.54116 0.03338 0.0
C1135 C 0.67898 0.54054 1.00053 0.0
C1136 C 1.00691 0.48958 0.69035 0.0
C1137 C 0.98834 0.51508 0.69408 0.0
C1138 C 0.03904 0.4914 0.68903 0.0
C1139 C 0.05515 0.51879 0.69059 0.0
H1140 H 0.99663 0.46775 0.68982 0.0
H1141 H 0.0516 0.47078 0.68744 0.0
S1142 S 0.01785 0.59248 0.69983 0.0
N1143 N 0.9895 0.56894 0.69908 0.0
N1144 N 0.04855 0.57213 0.69589 0.0
C1145 C 0.03676 0.5444 0.69346 0.0
C1146 C 1.00409 0.54256 0.69541 0.0
C1147 C 0.49959 0.00993 0.7133 0.0
C1148 C 0.52127 0.9912 0.69862 0.0
C1149 C 0.49862 0.04176 0.7105 0.0
C1150 C 0.51989 0.05831 0.69377 0.0
H1151 H 0.48287 0.9999 0.7277 0.0
H1152 H 0.48101 0.05374 0.72232 0.0
S1153 S 0.58038 0.02176 0.64793 0.0
N1154 N 0.56332 0.99309 0.66362 0.0
N1155 N 0.56276 0.05209 0.66021 0.0
C1156 C 0.54123 0.04005 0.678 0.0
C1157 C 0.54161 1.00719 0.67996 0.0
C1158 C 1.00409 0.55568 0.34959 0.0
C1159 C 0.98535 0.53024 0.34781 0.0
C1160 C 0.03627 0.55365 0.35108 0.0
C1161 C 0.0527 0.52653 0.34845 0.0
H1162 H 0.9939 0.57759 0.34939 0.0
H1163 H 0.04873 0.57378 0.3548 0.0
S1164 S 0.01547 0.45314 0.35617 0.0
N1165 N 0.98697 0.47665 0.35461 0.0
N1166 N 0.04613 0.47325 0.35202 0.0
C1167 C 0.03427 0.50095 0.34977 0.0
C1168 C 1.00138 0.50282 0.35036 0.0
C1169 C 0.53374 0.02953 0.33449 0.0
C1170 C 0.51354 0.04653 0.35251 0.0
C1171 C 0.53379 0.99766 0.33381 0.0
C1172 C 0.5138 0.98005 0.35127 0.0
H1173 H 0.54948 0.04091 0.32008 0.0
H1174 H 0.54974 0.98668 0.31885 0.0
S1175 S 0.45705 0.01304 0.40403 0.0
N1176 N 0.47327 0.0426 0.38924 0.0
N1177 N 0.47375 0.98358 0.38863 0.0
C1178 C 0.49403 0.99681 0.37022 0.0
C1179 C 0.49378 0.02947 0.37061 0.0
C1180 C 0.70977 1.0069 0.53954 0.0
C1181 C 0.69013 0.98837 0.52263 0.0
C1182 C 0.70933 0.03909 0.53954 0.0
C1183 C 0.68861 0.05631 0.52328 0.0
H1184 H 0.72655 0.99638 0.5529 0.0
H1185 H 0.72614 0.05072 0.55227 0.0
S1186 S 0.63127 0.02093 0.47476 0.0
N1187 N 0.64856 0.99176 0.4887 0.0
N1188 N 0.64764 0.05086 0.48881 0.0
C1189 C 0.66856 0.03831 0.50627 0.0
C1190 C 0.66919 1.00526 0.50605 0.0
C1191 C 0.03598 0.70355 0.55434 0.0
C1192 C 0.05299 0.69282 0.52904 0.0
C1193 C 1.00383 0.70292 0.55658 0.0
C1194 C 0.98551 0.69087 0.53395 0.0
H1195 H 0.04768 0.71326 0.57297 0.0
H1196 H 0.99315 0.71307 0.57609 0.0
S1197 S 0.01693 0.65547 0.46424 0.0
N1198 N 0.04719 0.66726 0.48141 0.0
N1199 N 0.98806 0.6652 0.4859 0.0
C1200 C 1.00203 0.67874 0.50902 0.0
C1201 C 0.03496 0.67973 0.50656 0.0
C1202 C 0.36606 0.01261 0.54006 0.0
C1203 C 0.34241 0.99425 0.52896 0.0
C1204 C 0.36682 0.04503 0.53693 0.0
C1205 C 0.34395 0.06172 0.52249 0.0
H1206 H 0.3846 1.00188 0.55083 0.0
H1207 H 0.38584 0.05697 0.54562 0.0
S1208 S 0.27542 0.02572 0.49173 0.0
N1209 N 0.29457 0.9974 0.50452 0.0
N1210 N 0.2959 0.05533 0.49876 0.0
C1211 C 0.32009 0.04339 0.5122 0.0
C1212 C 0.31935 0.01098 0.51535 0.0
C1213 C 0.03872 0.3628 0.49653 0.0
C1214 C 0.05297 0.36125 0.5249 0.0
C1215 C 1.00628 0.36185 0.49285 0.0
C1216 C 0.98519 0.35943 0.51724 0.0
H1217 H 0.05278 0.36369 0.47663 0.0
H1218 H 0.99778 0.36197 0.47039 0.0
S1219 S 0.00927 0.35934 0.59661 0.0
N1220 N 0.04137 0.3599 0.57788 0.0
N1221 N 0.9829 0.35859 0.57132 0.0
C1222 C 0.99936 0.35906 0.54553 0.0
C1223 C 0.032 0.35985 0.54921 0.0
C1224 C 0.0407 0.29464 0.32354 0.0
C1225 C 0.02734 0.26613 0.32094 0.0
C1226 C 0.04204 0.31515 0.29976 0.0
C1227 C 0.0304 0.30892 0.2712 0.0
H1228 H 0.04986 0.30182 0.34465 0.0
H1229 H 0.05144 0.33696 0.30427 0.0
S1230 S 0.99313 0.23771 0.25103 0.0
N1231 N 1.00254 0.23275 0.28617 0.0
N1232 N 1.00472 0.27143 0.24189 0.0
C1233 C 0.01745 0.28034 0.26774 0.0
C1234 C 0.01606 0.2591 0.29227 0.0
C1235 C 0.78494 0.04054 0.27975 0.0
C1236 C 0.78836 0.01373 0.29614 0.0
C1237 C 0.76115 0.04477 0.25873 0.0
C1238 C 0.73942 0.02241 0.25276 0.0
H1239 H 0.79971 0.05904 0.28435 0.0
H1240 H 0.75889 0.0663 0.24836 0.0
S1241 S 0.73847 0.94777 0.28833 0.0
N1242 N 0.76759 0.96436 0.30321 0.0
N1243 N 0.72452 0.97201 0.26497 0.0
C1244 C 0.74349 0.99542 0.26833 0.0
C1245 C 0.76726 0.9912 0.28944 0.0
C1246 C 0.99569 0.78604 0.29211 0.0
C1247 C 0.02146 0.79535 0.30794 0.0
C1248 C 0.99659 0.76364 0.26912 0.0
C1249 C 0.02333 0.74878 0.2606 0.0
H1250 H 0.9741 0.79535 0.29842 0.0
H1251 H 0.97574 0.75653 0.25942 0.0
S1252 S 0.09714 0.76283 0.29544 0.0
N1253 N 0.0746 0.78673 0.313 0.0
N1254 N 0.07636 0.74495 0.27097 0.0
C1255 C 0.04931 0.75811 0.27601 0.0
C1256 C 0.04843 0.78116 0.29912 0.0
C1257 C 0.279 1.00379 0.25581 0.0
C1258 C 0.30954 1.00538 0.26428 0.0
C1259 C 0.25455 1.00681 0.27728 0.0
C1260 C 0.25939 0.01218 0.30822 0.0
H1261 H 0.27386 1.00033 0.23251 0.0
H1262 H 0.23187 1.00428 0.26963 0.0
S1263 S 0.33448 0.01905 0.34249 0.0
N1264 N 0.34192 0.01201 0.307 0.0
N1265 N 0.29779 0.02026 0.34505 0.0
C1266 C 0.28974 0.01458 0.31636 0.0
C1267 C 0.3141 0.01051 0.29523 0.0
C1268 C 0.99272 0.73849 0.78335 0.0
C1269 C 0.01971 0.72462 0.79206 0.0
C1270 C 0.99197 0.76135 0.76156 0.0
C1271 C 0.01819 0.77112 0.74669 0.0
H1272 H 0.97165 0.73064 0.7926 0.0
H1273 H 0.97048 0.76991 0.75488 0.0
S1274 S 0.09473 0.74241 0.76046 0.0
N1275 N 0.07339 0.72332 0.78387 0.0
N1276 N 0.07208 0.76503 0.74279 0.0
C1277 C 0.04534 0.75793 0.75569 0.0
C1278 C 0.04613 0.73515 0.77828 0.0
C1279 C 0.28696 0.05586 0.772 0.0
C1280 C 0.29839 0.03085 0.78704 0.0
C1281 C 0.26468 0.05329 0.74953 0.0
C1282 C 0.25182 0.02561 0.7406 0.0
H1283 H 0.29667 0.07756 0.77624 0.0
H1284 H 0.25828 0.07335 0.73805 0.0
S1285 S 0.27534 0.95265 0.77065 0.0
N1286 N 0.29583 0.97689 0.78931 0.0
N1287 N 0.25407 0.9724 0.74847 0.0
C1288 C 0.26279 1.00049 0.75566 0.0
C1289 C 0.28588 1.00303 0.77819 0.0
C1290 C 0.98519 0.26946 0.79559 0.0
C1291 C 0.01042 0.28824 0.79817 0.0
C1292 C 0.98465 0.2448 0.77492 0.0
C1293 C 0.00956 0.23667 0.75626 0.0
H1294 H 0.96495 0.275 0.80811 0.0
H1295 H 0.96386 0.23278 0.77246 0.0
S1296 S 0.08068 0.2791 0.75242 0.0
N1297 N 0.06097 0.29667 0.77875 0.0
N1298 N 0.0596 0.25114 0.74118 0.0
C1299 C 0.03497 0.25492 0.75907 0.0
C1300 C 0.03549 0.28018 0.77959 0.0
C1301 C 0.76575 0.99813 0.72816 0.0
C1302 C 0.78991 0.01838 0.72965 0.0
C1303 C 0.7431 0.99639 0.75086 0.0
C1304 C 0.74285 0.01484 0.77676 0.0
H1305 H 0.7633 0.98445 0.70834 0.0
H1306 H 0.7245 0.98143 0.74719 0.0
S1307 S 0.7984 0.07462 0.79056 0.0
N1308 N 0.81045 0.05908 0.75888 0.0
N1309 N 0.76827 0.05588 0.80101 0.0
C1310 C 0.76678 0.03531 0.77863 0.0
C1311 C 0.78998 0.03709 0.75538 0.0
C1312 C 0.30124 0.2847 0.015 0.0
C1313 C 0.29863 0.25777 0.03134 0.0
C1314 C 0.27756 0.30518 0.01125 0.0
C1315 C 0.24859 0.30108 0.02343 0.0
H1316 H 0.3224 0.29107 1.0051 0.0
H1317 H 0.28261 0.32556 0.99942 0.0
S1318 S 0.22723 0.23487 0.06841 0.0
N1319 N 0.26275 0.2282 0.05957 0.0
N1320 N 0.21849 0.26711 0.05324 0.0
C1321 C 0.24478 0.27411 0.03953 0.0
C1322 C 0.26939 0.25259 0.04321 0.0
C1323 C 0.27748 0.78073 0.03636 0.0
C1324 C 0.29498 0.78772 0.01032 0.0
C1325 C 0.25458 0.75812 0.03703 0.0
C1326 C 0.24782 0.74012 0.01179 0.0
H1327 H 0.28244 0.79214 0.05712 0.0
H1328 H 0.24351 0.75344 0.05816 0.0
S1329 S 0.28844 0.7462 0.93845 0.0
N1330 N 0.30396 0.77264 0.9589 0.0
N1331 N 0.26258 0.73072 0.96 0.0
C1332 C 0.26529 0.74683 0.98568 0.0
C1333 C 0.28814 0.77017 0.98493 0.0
C1334 C 0.75254 0.31596 0.04999 0.0
C1335 C 0.78199 0.31381 0.03798 0.0
C1336 C 0.7298 0.29477 0.04429 0.0
C1337 C 0.734 0.26905 0.02589 0.0
H1338 H 0.74638 0.33522 0.06359 0.0
H1339 H 0.70807 0.29929 0.05444 0.0
S1340 S 0.80717 0.25054 0.98886 0.0
N1341 N 0.8142 0.2823 1.00655 0.0
N1342 N 0.77177 0.24229 0.9963 0.0
C1343 C 0.7637 0.26564 0.01421 0.0
C1344 C 0.78732 0.28778 0.02005 0.0
C1345 C 0.77017 0.7623 0.99951 0.0
C1346 C 0.78724 0.74857 0.02217 0.0
C1347 C 0.7475 0.78454 1.00558 0.0
C1348 C 0.7391 0.79399 0.03498 0.0
H1349 H 0.77407 0.75543 0.9765 0.0
H1350 H 0.73547 0.79342 0.98692 0.0
S1351 S 0.77459 0.76455 0.10319 0.0
N1352 N 0.79296 0.747 0.07583 0.0
N1353 N 0.74984 0.78619 0.08714 0.0
C1354 C 0.75558 0.78009 0.05784 0.0
C1355 C 0.77949 0.75834 0.05158 0.0
C1356 C 0.53299 0.75984 0.78959 0.0
C1357 C 0.52066 0.76382 0.81892 0.0
C1358 C 0.5341 0.7836 0.76813 0.0
C1359 C 0.52355 0.81288 0.77502 0.0
H1360 H 0.54307 0.73861 0.78355 0.0
H1361 H 0.54444 0.77924 0.74647 0.0
S1362 S 0.48853 0.83492 0.84858 0.0
N1363 N 0.49709 0.79951 0.85275 0.0
N1364 N 0.49928 0.84297 0.81423 0.0
C1365 C 0.5107 0.81651 0.8042 0.0
C1366 C 0.50933 0.79256 0.82548 0.0
C1367 C 0.26538 0.52376 0.75476 0.0
C1368 C 0.23438 0.52313 0.76283 0.0
C1369 C 0.28885 0.5194 0.77631 0.0
C1370 C 0.28279 0.51359 0.80714 0.0
H1371 H 0.27167 0.52665 0.73153 0.0
H1372 H 0.31188 0.51974 0.76846 0.0
S1373 S 0.20582 0.51225 0.84116 0.0
N1374 N 0.20024 0.51902 0.8057 0.0
N1375 N 0.24231 0.50951 0.84389 0.0
C1376 C 0.25194 0.51398 0.81526 0.0
C1377 C 0.22857 0.51904 0.79397 0.0
C1378 C 0.50252 0.26536 0.76348 0.0
C1379 C 0.52208 0.24046 0.76329 0.0
C1380 C 0.50309 0.28767 0.78673 0.0
C1381 C 0.52324 0.28612 0.81081 0.0
H1382 H 0.48544 0.26668 0.74674 0.0
H1383 H 0.48639 0.30518 0.78682 0.0
S1384 S 0.58032 0.2271 0.82022 0.0
N1385 N 0.56365 0.21771 0.78896 0.0
N1386 N 0.56377 0.2581 0.83186 0.0
C1387 C 0.5435 0.26217 0.80999 0.0
C1388 C 0.5432 0.23994 0.78656 0.0
C1389 C 0.76576 0.53646 0.78519 0.0
C1390 C 0.75245 0.51092 0.79781 0.0
C1391 C 0.79036 0.53429 0.76451 0.0
C1392 C 0.80272 0.50655 0.75477 0.0
H1393 H 0.75866 0.55834 0.79298 0.0
H1394 H 0.80079 0.55475 0.75712 0.0
S1395 S 0.77591 0.4329 0.78046 0.0
N1396 N 0.75367 0.45684 0.79834 0.0
N1397 N 0.79876 0.45303 0.75948 0.0
C1398 C 0.78872 0.48094 0.76617 0.0
C1399 C 0.76405 0.4831 0.78756 0.0
C1400 C 0.5303 0.22199 0.2586 0.0
C1401 C 0.51604 0.22548 0.28663 0.0
C1402 C 0.53133 0.24502 0.23747 0.0
C1403 C 0.51732 0.27323 0.24207 0.0
H1404 H 0.5409 0.20092 0.25272 0.0
H1405 H 0.54322 0.23999 0.21687 0.0
S1406 S 0.47586 0.29418 0.31191 0.0
N1407 N 0.48726 0.25977 0.31825 0.0
N1408 N 0.48815 0.30269 0.278 0.0
C1409 C 0.50253 0.27709 0.27007 0.0
C1410 C 0.5022 0.25351 0.2923 0.0
C1411 C 0.78495 0.54461 0.22644 0.0
C1412 C 0.75672 0.53124 0.23231 0.0
C1413 C 0.80715 0.54847 0.24821 0.0
C1414 C 0.80355 0.5394 0.27821 0.0
H1415 H 0.79066 0.5521 0.20416 0.0
H1416 H 0.82805 0.55844 0.24093 0.0
S1417 S 0.73435 0.50283 0.3072 0.0
N1418 N 0.72666 0.50878 0.27176 0.0
N1419 N 0.76849 0.51577 0.3126 0.0
C1420 C 0.77541 0.52608 0.28502 0.0
C1421 C 0.7523 0.52201 0.26233 0.0
C1422 C 0.48166 0.75554 0.26673 0.0
C1423 C 0.50842 0.741 0.25693 0.0
C1424 C 0.48128 0.77906 0.28859 0.0
C1425 C 0.50782 0.78999 0.30143 0.0
H1426 H 0.46091 0.75004 0.25589 0.0
H1427 H 0.46031 0.79033 0.29359 0.0
S1428 S 0.58415 0.76158 0.28243 0.0
N1429 N 0.56218 0.74049 0.26184 0.0
N1430 N 0.56179 0.78431 0.30171 0.0
C1431 C 0.53458 0.77536 0.29207 0.0
C1432 C 0.53484 0.7512 0.27028 0.0
C1433 C 0.25885 0.55298 0.22937 0.0
C1434 C 0.28454 0.53451 0.22913 0.0
C1435 C 0.235 0.54986 0.25018 0.0
C1436 C 0.23482 0.5282 0.27278 0.0
H1437 H 0.25657 0.57004 0.21266 0.0
H1438 H 0.216 0.56466 0.2481 0.0
S1439 S 0.29609 0.47338 0.28317 0.0
N1440 N 0.30799 0.49307 0.25431 0.0
N1441 N 0.26332 0.48758 0.29369 0.0
C1442 C 0.26059 0.50979 0.27366 0.0
C1443 C 0.2852 0.51283 0.25195 0.0
C1444 C 0.7807 0.81085 0.52042 0.0
C1445 C 0.75176 0.80545 0.53246 0.0
C1446 C 0.80462 0.78994 0.52174 0.0
C1447 C 0.80213 0.76165 0.53563 0.0
H1448 H 0.78534 0.83224 0.51039 0.0
H1449 H 0.82586 0.79668 0.512 0.0
S1450 S 0.73122 0.73535 0.57135 0.0
N1451 N 0.72217 0.76876 0.55914 0.0
N1452 N 0.76668 0.72968 0.56162 0.0
C1453 C 0.77305 0.75547 0.54742 0.0
C1454 C 0.74831 0.77709 0.54594 0.0
C1455 C 0.80342 0.26165 0.48702 0.0
C1456 C 0.80105 0.28921 0.50263 0.0
C1457 C 0.78129 0.23873 0.48887 0.0
C1458 C 0.75476 0.24072 0.50707 0.0
H1459 H 0.82341 0.25718 0.47364 0.0
H1460 H 0.78578 0.21853 0.4761 0.0
S1461 S 0.73779 0.30707 0.5553 0.0
N1462 N 0.7698 0.31619 0.53873 0.0
N1463 N 0.72876 0.27368 0.54229 0.0
C1464 C 0.75202 0.26818 0.52315 0.0
C1465 C 0.77478 0.29188 0.52105 0.0
C1466 C 0.25973 0.76666 0.50152 0.0
C1467 C 0.23915 0.75886 0.52464 0.0
C1468 C 0.28122 0.79046 0.5049 0.0
C1469 C 0.28411 0.80779 0.5317 0.0
H1470 H 0.2582 0.75554 0.48003 0.0
H1471 H 0.29503 0.79616 0.4857 0.0
S1472 S 0.2352 0.79898 0.59877 0.0
N1473 N 0.22389 0.77241 0.57586 0.0
N1474 N 0.26277 0.81593 0.58093 0.0
C1475 C 0.26402 0.80012 0.55485 0.0
C1476 C 0.24231 0.77618 0.55167 0.0
C1477 C 0.26399 0.29644 0.52969 0.0
C1478 C 0.23307 0.28994 0.53479 0.0
C1479 C 0.28645 0.27352 0.52413 0.0
C1480 C 0.27939 0.24257 0.52236 0.0
H1481 H 0.2711 0.31947 0.5304 0.0
H1482 H 0.30945 0.28029 0.52063 0.0
S1483 S 0.20217 0.21269 0.53331 0.0
N1484 N 0.19777 0.24898 0.53757 0.0
N1485 N 0.23813 0.20766 0.52637 0.0
C1486 C 0.24857 0.23611 0.52712 0.0
C1487 C 0.22617 0.25904 0.53343 0.0
C1488 C 0.07826 0.12172 0.39923 0.0
C1489 C 0.08603 0.14985 0.38832 0.0
C1490 C 0.09588 0.09675 0.392 0.0
C1491 C 0.12197 0.09967 0.37429 0.0
H1492 H 0.05905 0.11919 0.41409 0.0
H1493 H 0.09008 0.07555 0.40183 0.0
S1494 S 0.14956 0.16858 0.33814 0.0
N1495 N 0.11918 0.17913 0.357 0.0
N1496 N 0.15309 0.13247 0.34397 0.0
C1497 C 0.12881 0.12755 0.36193 0.0
C1498 C 0.11059 0.1527 0.36888 0.0
C1499 C 0.98312 0.08896 0.36247 0.0
C1500 C 0.97576 0.11725 0.35185 0.0
C1501 C 0.96315 0.06542 0.35931 0.0
C1502 C 0.93574 0.07019 0.34564 0.0
H1503 H 1.00277 0.08578 0.37589 0.0
H1504 H 0.96743 0.0448 0.37084 0.0
S1505 S 0.90901 0.13817 0.30878 0.0
N1506 N 0.94191 0.14722 0.32229 0.0
N1507 N 0.904 0.10283 0.31729 0.0
C1508 C 0.93003 0.09703 0.33139 0.0
C1509 C 0.95034 0.12084 0.33426 0.0
C1510 C 0.92793 0.89459 0.3622 0.0
C1511 C 0.94924 0.90167 0.38375 0.0
C1512 C 0.90333 0.91333 0.35771 0.0
C1513 C 0.89972 0.94009 0.37403 0.0
H1514 H 0.92912 0.87342 0.35031 0.0
H1515 H 0.88619 0.9061 0.34247 0.0
S1516 S 0.95106 0.96989 0.43105 0.0
N1517 N 0.96636 0.93785 0.42032 0.0
N1518 N 0.92067 0.97377 0.41099 0.0
C1519 C 0.92211 0.94848 0.39403 0.0
C1520 C 0.94678 0.92902 0.39915 0.0
C1521 C 0.11018 0.96778 0.40761 0.0
C1522 C 0.13028 0.96834 0.38328 0.0
C1523 C 0.08448 0.95048 0.4064 0.0
C1524 C 0.07887 0.93291 0.38105 0.0
H1525 H 0.11555 0.97889 0.42846 0.0
H1526 H 0.07064 0.94864 0.42641 0.0
S1527 S 0.12197 0.9319 0.30945 0.0
N1528 N 0.1408 0.95451 0.33156 0.0
N1529 N 0.09251 0.92104 0.32926 0.0
C1530 C 0.09694 0.93621 0.35527 0.0
C1531 C 0.12288 0.95428 0.35641 0.0
C1532 C 0.13328 0.89954 0.67318 0.0
C1533 C 0.12284 0.92916 0.6727 0.0
C1534 C 0.11367 0.87534 0.67065 0.0
C1535 C 0.08279 0.87971 0.6679 0.0
H1536 H 0.157 0.89492 0.67454 0.0
H1537 H 0.12288 0.853 0.67006 0.0
S1538 S 0.04398 0.9529 0.6664 0.0
N1539 N 0.07955 0.96159 0.67015 0.0
N1540 N 0.04258 0.91607 0.66536 0.0
C1541 C 0.07187 0.9092 0.66844 0.0
C1542 C 0.09193 0.93395 0.67092 0.0
C1543 C 0.10599 0.10124 0.69827 0.0
C1544 C 0.08191 0.09947 0.67856 0.0
C1545 C 0.13218 0.08511 0.69259 0.0
C1546 C 0.13489 0.06712 0.66696 0.0
H1547 H 0.10538 0.11669 0.71707 0.0
H1548 H 0.15109 0.0884 0.70706 0.0
S1549 S 0.0769 0.05089 0.6114 0.0
N1550 N 0.06101 0.07514 0.63483 0.0
N1551 N 0.11094 0.04516 0.62389 0.0
C1552 C 0.11033 0.06318 0.64849 0.0
C1553 C 0.08345 0.07924 0.65447 0.0
C1554 C 0.91643 0.13738 0.69522 0.0
C1555 C 0.94471 0.13052 0.68293 0.0
C1556 C 0.8934 0.11646 0.69436 0.0
C1557 C 0.89811 0.08858 0.68047 0.0
H1558 H 0.91139 0.15982 0.70307 0.0
H1559 H 0.87124 0.12319 0.70202 0.0
S1560 S 0.96996 0.05874 0.64989 0.0
N1561 N 0.9777 0.09309 0.66086 0.0
N1562 N 0.93413 0.0539 0.65794 0.0
C1563 C 0.92712 0.08067 0.67069 0.0
C1564 C 0.95062 0.10174 0.67225 0.0
C1565 C 0.95158 0.93521 0.70837 0.0
C1566 C 0.9667 0.9204 0.68502 0.0
C1567 C 0.93714 0.96199 0.70277 0.0
C1568 C 0.93784 0.97354 0.67379 0.0
H1569 H 0.94849 0.92475 0.72989 0.0
H1570 H 0.92238 0.97138 0.71992 0.0
S1571 S 0.98026 0.9459 0.60766 0.0
N1572 N 0.98555 0.92079 0.63367 0.0
N1573 N 0.95943 0.97217 0.62372 0.0
C1574 C 0.95653 0.9611 0.65176 0.0
C1575 C 0.97053 0.93375 0.65715 0.0
C1576 C 0.37645 0.10391 0.15801 0.0
C1577 C 0.38399 0.0748 0.14916 0.0
C1578 C 0.37122 0.12571 0.13684 0.0
C1579 C 0.37381 0.11911 0.10613 0.0
H1580 H 0.37552 0.11009 0.18148 0.0
H1581 H 0.3665 0.14819 0.14469 0.0
S1582 S 0.38967 0.04506 0.07178 0.0
N1583 N 0.3912 0.03947 0.10812 0.0
N1584 N 0.38167 0.08076 0.06789 0.0
C1585 C 0.37972 0.08961 0.09698 0.0
C1586 C 0.38477 0.06729 0.11869 0.0
C1587 C 0.96643 0.39877 0.13806 0.0
C1588 C 0.96229 0.37923 0.16209 0.0
C1589 C 0.94963 0.3957 0.11198 0.0
C1590 C 0.92775 0.37337 0.10949 0.0
H1591 H 0.98183 0.41728 0.13997 0.0
H1592 H 0.95238 0.4121 0.0946 0.0
S1593 S 0.91002 0.31567 0.16593 0.0
N1594 N 0.93658 0.3359 0.18126 0.0
N1595 N 0.9044 0.33025 0.13281 0.0
C1596 C 0.92469 0.35277 0.1329 0.0
C1597 C 0.9421 0.35571 0.15913 0.0
C1598 C 0.69509 0.93616 0.14653 0.0
C1599 C 0.67185 0.95737 0.1481 0.0
C1600 C 0.69445 0.91205 0.12621 0.0
C1601 C 0.67057 0.90814 0.10657 0.0
H1602 H 0.71359 0.93775 0.16173 0.0
H1603 H 0.71252 0.89593 0.12638 0.0
S1604 S 0.60389 0.95719 0.10166 0.0
N1605 N 0.62417 0.97285 0.12797 0.0
N1606 N 0.62305 0.92772 0.08982 0.0
C1607 C 0.64751 0.92961 0.1073 0.0
C1608 C 0.64813 0.95416 0.12804 0.0
C1609 C 0.09157 0.63609 0.14563 0.0
C1610 C 0.08503 0.66282 0.16109 0.0
C1611 C 0.10501 0.63619 0.11709 0.0
C1612 C 0.11258 0.66298 0.10283 0.0
H1613 H 0.08683 0.61486 0.15594 0.0
H1614 H 0.11075 0.61499 0.10662 0.0
S1615 S 0.09863 0.73911 0.133 0.0
N1616 N 0.08532 0.71692 0.15926 0.0
N1617 N 0.11131 0.71704 0.10575 0.0
C1618 C 0.10469 0.68994 0.11725 0.0
C1619 C 0.09073 0.68985 0.14638 0.0
C1620 C 0.3697 0.93587 0.88415 0.0
C1621 C 0.37058 0.96667 0.89 0.0
C1622 C 0.36589 0.9155 0.90721 0.0
C1623 C 0.36358 0.92505 0.93716 0.0
H1624 H 0.37314 0.92733 0.86159 0.0
H1625 H 0.36646 0.89194 0.90157 0.0
S1626 S 0.36086 1.00333 0.96421 0.0
N1627 N 0.36557 1.00596 0.92763 0.0
N1628 N 0.35963 0.9673 0.9714 0.0
C1629 C 0.36295 0.95578 0.94335 0.0
C1630 C 0.36606 0.97672 0.91961 0.0
C1631 C 0.08107 0.37181 0.94646 0.0
C1632 C 0.11053 0.36139 0.94244 0.0
C1633 C 0.06199 0.37383 0.92193 0.0
C1634 C 0.07204 0.36524 0.89312 0.0
H1635 H 0.07363 0.38065 0.96797 0.0
H1636 H 0.04023 0.38412 0.92514 0.0
S1637 S 0.14578 0.33317 0.8721 0.0
N1638 N 0.14778 0.33997 0.90833 0.0
N1639 N 0.11184 0.34344 0.86256 0.0
C1640 C 0.10057 0.35283 0.88947 0.0
C1641 C 0.11989 0.35095 0.91414 0.0
C1642 C 0.66984 0.14383 0.89957 0.0
C1643 C 0.67493 0.13409 0.92872 0.0
C1644 C 0.66715 0.12357 0.87588 0.0
C1645 C 0.67032 0.0928 0.88011 0.0
H1646 H 0.66636 0.16726 0.89518 0.0
H1647 H 0.66168 0.13211 0.85412 0.0
S1648 S 0.6893 0.05637 0.95131 0.0
N1649 N 0.68608 0.09206 0.96029 0.0
N1650 N 0.68295 0.05386 0.91512 0.0
C1651 C 0.67796 0.08287 0.90871 0.0
C1652 C 0.67972 0.10357 0.93322 0.0
C1653 C 0.93613 0.62874 0.92412 0.0
C1654 C 0.94877 0.65159 0.90697 0.0
C1655 C 0.91187 0.63417 0.94359 0.0
C1656 C 0.89886 0.66259 0.94661 0.0
H1657 H 0.94405 0.60602 0.92129 0.0
H1658 H 0.90183 0.61536 0.95492 0.0
S1659 S 0.92502 0.73084 0.90808 0.0
N1660 N 0.94808 0.70444 0.89568 0.0
N1661 N 0.90174 0.71465 0.93201 0.0
C1662 C 0.91245 0.6863 0.93107 0.0
C1663 C 0.93761 0.68075 0.91127 0.0
C1664 C 0.11893 0.34633 0.08541 0.0
C1665 C 0.14224 0.36716 0.08619 0.0
C1666 C 0.0949 0.34865 0.10586 0.0
C1667 C 0.09397 0.37198 0.12699 0.0
H1668 H 0.11943 0.32822 0.06918 0.0
H1669 H 0.07765 0.33174 0.10583 0.0
S1670 S 0.14895 0.4327 0.13665 0.0
N1671 N 0.1624 0.41227 0.10856 0.0
N1672 N 0.11745 0.41643 0.14714 0.0
C1673 C 0.11683 0.39317 0.12738 0.0
C1674 C 0.14103 0.39083 0.10681 0.0
C1675 C 0.11761 0.68503 0.96527 0.0
C1676 C 0.14655 0.67985 0.95372 0.0
C1677 C 0.09292 0.68301 0.94672 0.0
C1678 C 0.09689 0.67569 0.91641 0.0
H1679 H 0.11402 0.68952 0.9889 0.0
H1680 H 0.07068 0.68633 0.95622 0.0
S1681 S 0.16822 0.65735 0.8765 0.0
N1682 N 0.1779 0.66574 0.91094 0.0
N1683 N 0.13162 0.66194 0.87591 0.0
C1684 C 0.12587 0.67091 0.90459 0.0
C1685 C 0.15081 0.67299 0.92339 0.0
C1686 C 0.3746 0.12089 0.97471 0.0
C1687 C 0.36622 0.15046 0.96933 0.0
C1688 C 0.37325 0.09928 0.9519 0.0
C1689 C 0.3639 0.10703 0.92322 0.0
H1690 H 0.38436 0.11499 0.9958 0.0
H1691 H 0.38144 0.07703 0.95617 0.0
S1692 S 0.33647 0.18111 0.89967 0.0
N1693 N 0.34567 0.1859 0.93491 0.0
N1694 N 0.34307 0.14562 0.89185 0.0
C1695 C 0.35315 0.13605 0.91854 0.0
C1696 C 0.35438 0.15778 0.94174 0.0
C1697 C 0.93673 0.38873 0.95688 0.0
C1698 C 0.93436 0.36585 0.93537 0.0
C1699 C 0.91226 0.39631 0.97538 0.0
C1700 C 0.88517 0.38089 0.97303 0.0
H1701 H 0.95683 0.40208 0.95812 0.0
H1702 H 0.9142 0.41489 0.99091 0.0
S1703 S 0.86881 0.31687 0.92328 0.0
N1704 N 0.90365 0.3261 0.91476 0.0
N1705 N 0.85791 0.34018 0.9502 0.0
C1706 C 0.88317 0.35664 0.95332 0.0
C1707 C 0.90784 0.34909 0.93427 0.0
C1708 C 0.69971 0.94372 0.92327 0.0
C1709 C 0.67908 0.96728 0.92366 0.0
C1710 C 0.70372 0.92677 0.94856 0.0
C1711 C 0.68719 0.93304 0.97476 0.0
H1712 H 0.71158 0.93721 0.90289 0.0
H1713 H 0.71786 0.90715 0.94681 0.0
S1714 S 0.6342 0.99541 0.98844 0.0
N1715 N 0.64464 0.99839 0.95304 0.0
N1716 N 0.65279 0.96659 1.00124 0.0
C1717 C 0.66896 0.95846 0.97644 0.0
C1718 C 0.66456 0.97556 0.95051 0.0
C1719 C 0.9543 0.71163 0.11328 0.0
C1720 C 0.9778 0.69086 0.11319 0.0
C1721 C 0.93582 0.71366 0.08883 0.0
C1722 C 0.94054 0.69494 0.06397 0.0
H1723 H 0.94833 0.72421 0.13335 0.0
H1724 H 0.91567 0.72707 0.09093 0.0
S1725 S 1.00344 0.64273 0.05025 0.0
N1726 N 0.00867 0.65598 0.08433 0.0
N1727 N 0.97308 0.65941 0.03811 0.0
C1728 C 0.96639 0.67738 0.06193 0.0
C1729 C 0.98542 0.67543 0.08682 0.0
C1730 C 0.37193 0.94684 0.08902 0.0
C1731 C 0.35769 0.94138 0.1167 0.0
C1732 C 0.3754 0.92398 0.06775 0.0
C1733 C 0.36424 0.89549 0.0736 0.0
H1734 H 0.3828 0.96798 0.08485 0.0
H1735 H 0.38901 0.9279 0.04792 0.0
S1736 S 0.32044 0.87138 0.13979 0.0
N1737 N 0.32866 0.90662 0.14681 0.0
N1738 N 0.33501 0.8638 0.1064 0.0
C1739 C 0.3471 0.89069 0.09952 0.0
C1740 C 0.34377 0.91375 0.12128 0.0
C1741 C 0.65598 0.11828 0.06762 0.0
C1742 C 0.66815 0.14685 0.07147 0.0
C1743 C 0.66075 0.09583 0.08858 0.0
C1744 C 0.67714 0.10148 0.11457 0.0
H1745 H 0.64167 0.11363 0.04887 0.0
H1746 H 0.64999 0.07447 0.08525 0.0
S1747 S 0.71346 0.17295 0.13499 0.0
N1748 N 0.69765 0.17961 0.1027 0.0
N1749 N 0.70602 0.13776 0.14259 0.0
C1750 C 0.68998 0.12985 0.11829 0.0
C1751 C 0.68558 0.1525 0.09664 0.0
C1752 C 0.58033 0.62559 0.89422 0.0
C1753 C 0.58865 0.65381 0.88395 0.0
C1754 C 0.59826 0.60071 0.88764 0.0
C1755 C 0.62512 0.6038 0.87117 0.0
H1756 H 0.56063 0.62298 0.90841 0.0
H1757 H 0.59204 0.57942 0.89706 0.0
S1758 S 0.65418 0.67288 0.8366 0.0
N1759 N 0.62316 0.68336 0.85441 0.0
N1760 N 0.65742 0.63672 0.84227 0.0
C1761 C 0.63249 0.63173 0.85929 0.0
C1762 C 0.61407 0.65684 0.86573 0.0
C1763 C 0.4186 0.59088 0.86489 0.0
C1764 C 0.43352 0.5643 0.85724 0.0
C1765 C 0.43463 0.61653 0.87084 0.0
C1766 C 0.46594 0.61613 0.8692 0.0
H1767 H 0.39447 0.59142 0.8679 0.0
H1768 H 0.42242 0.63639 0.87782 0.0
S1769 S 0.51462 0.55279 0.84582 0.0
N1770 N 0.48032 0.53915 0.84553 0.0
N1771 N 0.51118 0.58816 0.85609 0.0
C1772 C 0.481 0.59016 0.85959 0.0
C1773 C 0.46452 0.56385 0.8538 0.0
C1774 C 0.39403 0.4016 0.89373 0.0
C1775 C 0.39989 0.43047 0.8835 0.0
C1776 C 0.41687 0.38046 0.89576 0.0
C1777 C 0.44661 0.38732 0.88777 0.0
H1778 H 0.37171 0.39561 0.90133 0.0
H1779 H 0.4113 0.35881 0.90475 0.0
S1780 S 0.47386 0.45981 0.85948 0.0
N1781 N 0.43748 0.46487 0.86466 0.0
N1782 N 0.48071 0.4249 0.86864 0.0
C1783 C 0.45272 0.41572 0.87629 0.0
C1784 C 0.42925 0.43741 0.87413 0.0
C1785 C 0.61492 0.41789 0.85297 0.0
C1786 C 0.58681 0.42524 0.86567 0.0
C1787 C 0.63856 0.43789 0.85441 0.0
C1788 C 0.63448 0.46574 0.86817 0.0
H1789 H 0.61951 0.39571 0.84419 0.0
H1790 H 0.66067 0.43054 0.84715 0.0
S1791 S 0.56362 0.49836 0.89747 0.0
N1792 N 0.55475 0.46408 0.88709 0.0
N1793 N 0.59971 0.50202 0.88975 0.0
C1794 C 0.60581 0.47475 0.87762 0.0
C1795 C 0.58165 0.45431 0.87629 0.0
C1796 C 0.6192 0.38074 0.18492 0.0
C1797 C 0.58974 0.38148 0.17481 0.0
C1798 C 0.63691 0.40627 0.18491 0.0
C1799 C 0.62595 0.43342 0.17432 0.0
H1800 H 0.62908 0.35993 0.19187 0.0
H1801 H 0.65984 0.40429 0.19202 0.0
S1802 S 0.54941 0.44797 0.14781 0.0
N1803 N 0.54938 0.41215 0.15606 0.0
N1804 N 0.58318 0.46033 0.15551 0.0
C1805 C 0.59598 0.43502 0.16565 0.0
C1806 C 0.57768 0.40895 0.16604 0.0
C1807 C 0.60725 0.62131 0.1757 0.0
C1808 C 0.58156 0.60566 0.18484 0.0
C1809 C 0.63353 0.60618 0.16803 0.0
C1810 C 0.635 0.57506 0.16987 0.0
H1811 H 0.60661 0.64531 0.17319 0.0
H1812 H 0.65255 0.61883 0.15985 0.0
S1813 S 0.57468 0.52467 0.19599 0.0
N1814 N 0.55934 0.55818 0.19723 0.0
N1815 N 0.60959 0.52945 0.18426 0.0
C1816 C 0.61008 0.55941 0.18094 0.0
C1817 C 0.58298 0.57484 0.188 0.0
C1818 C 0.39064 0.63441 0.15984 0.0
C1819 C 0.40006 0.60481 0.16304 0.0
C1820 C 0.41075 0.65788 0.16248 0.0
C1821 C 0.44084 0.65253 0.16866 0.0
H1822 H 0.36799 0.63941 0.1534 0.0
H1823 H 0.40298 0.6803 0.15821 0.0
S1824 S 0.47564 0.57896 0.18273 0.0
N1825 N 0.44042 0.57117 0.17534 0.0
N1826 N 0.47849 0.61566 0.18122 0.0
C1827 C 0.45 0.62317 0.1746 0.0
C1828 C 0.42944 0.5991 0.17154 0.0
C1829 C 0.43732 0.46178 0.2041 0.0
C1830 C 0.43656 0.4774 0.17714 0.0
C1831 C 0.45163 0.43432 0.20523 0.0
C1832 C 0.4648 0.42232 0.17929 0.0
H1833 H 0.4242 0.46927 0.22338 0.0
H1834 H 0.45007 0.42141 0.22549 0.0
S1835 S 0.47461 0.45765 0.10561 0.0
N1836 N 0.45501 0.48191 0.12597 0.0
N1837 N 0.481 0.42929 0.12776 0.0
C1838 C 0.46725 0.43921 0.15335 0.0
C1839 C 0.45349 0.46744 0.15244 0.0
C1840 C 0.85825 0.58599 0.64684 0.0
C1841 C 0.88491 0.56944 0.64665 0.0
C1842 C 0.85315 0.60719 0.62482 0.0
C1843 C 0.87421 0.61175 0.60166 0.0
H1844 H 0.84214 0.58383 0.66507 0.0
H1845 H 0.83316 0.62084 0.62655 0.0
S1846 S 0.94626 0.57166 0.59023 0.0
N1847 N 0.93173 0.55749 0.6211 0.0
N1848 N 0.92179 0.59648 0.57885 0.0
C1849 C 0.90008 0.59387 0.60031 0.0
C1850 C 0.90556 0.57289 0.62313 0.0
C1851 C 0.44156 0.88125 0.61816 0.0
C1852 C 0.41056 0.88025 0.62428 0.0
C1853 C 0.46229 0.88245 0.64151 0.0
C1854 C 0.45263 0.88273 0.6716 0.0
H1855 H 0.44981 0.88218 0.5953 0.0
H1856 H 0.48578 0.88473 0.63592 0.0
S1857 S 0.37448 0.87639 0.69929 0.0
N1858 N 0.3717 0.87658 0.66266 0.0
N1859 N 0.41052 0.87921 0.70612 0.0
C1860 C 0.42195 0.88022 0.67785 0.0
C1861 C 0.40096 0.87881 0.65429 0.0
C1862 C 0.14988 0.43268 0.60753 0.0
C1863 C 0.16895 0.40786 0.60995 0.0
C1864 C 0.14969 0.45553 0.62943 0.0
C1865 C 0.16876 0.45412 0.65401 0.0
H1866 H 0.13321 0.43307 0.59028 0.0
H1867 H 0.13261 0.47265 0.6287 0.0
S1868 S 0.22647 0.39661 0.66695 0.0
N1869 N 0.20994 0.38535 0.63615 0.0
N1870 N 0.20984 0.42817 0.67702 0.0
C1871 C 0.18987 0.43096 0.65472 0.0
C1872 C 0.18989 0.40778 0.63274 0.0
C1873 C 0.58415 0.14504 0.63584 0.0
C1874 C 0.58576 0.16636 0.6591 0.0
C1875 C 0.59996 0.14888 0.60862 0.0
C1876 C 0.61868 0.17371 0.60417 0.0
H1877 H 0.57093 0.12506 0.63889 0.0
H1878 H 0.5988 0.13153 0.59165 0.0
S1879 S 0.62909 0.23652 0.65754 0.0
N1880 N 0.60564 0.21401 0.67508 0.0
N1881 N 0.63658 0.22054 0.62481 0.0
C1882 C 0.61964 0.19554 0.62695 0.0
C1883 C 0.60286 0.19204 0.6542 0.0
C1884 C 0.89428 0.4531 0.42932 0.0
C1885 C 0.87116 0.43192 0.4299 0.0
C1886 C 0.89751 0.47266 0.40526 0.0
C1887 C 0.87718 0.47222 0.38172 0.0
H1888 H 0.91097 0.45335 0.44654 0.0
H1889 H 0.91654 0.48758 0.40458 0.0
S1890 S 0.8115 0.42295 0.37415 0.0
N1891 N 0.82682 0.41277 0.40572 0.0
N1892 N 0.83234 0.45044 0.36121 0.0
C1893 C 0.85302 0.45249 0.38297 0.0
C1894 C 0.85013 0.43208 0.40698 0.0
C1895 C 0.60666 0.86603 0.39146 0.0
C1896 C 0.57562 0.86585 0.39678 0.0
C1897 C 0.62662 0.86536 0.4149 0.0
C1898 C 0.6164 0.86417 0.44463 0.0
H1899 H 0.61567 0.86863 0.369 0.0
H1900 H 0.65031 0.86728 0.40971 0.0
S1901 S 0.5375 0.85877 0.47064 0.0
N1902 N 0.53555 0.86091 0.4339 0.0
N1903 N 0.5735 0.85945 0.47837 0.0
C1904 C 0.58558 0.86118 0.45038 0.0
C1905 C 0.56501 0.86203 0.42627 0.0
C1906 C 0.14965 0.58366 0.40666 0.0
C1907 C 0.16318 0.59082 0.37911 0.0
C1908 C 0.15289 0.60234 0.4317 0.0
C1909 C 0.16866 0.6292 0.42938 0.0
H1910 H 0.13539 0.56428 0.40853 0.0
H1911 H 0.14125 0.5968 0.45234 0.0
S1912 S 0.21003 0.65672 0.36286 0.0
N1913 N 0.1953 0.62481 0.3517 0.0
N1914 N 0.19925 0.66135 0.39812 0.0
C1915 C 0.18309 0.63608 0.40227 0.0
C1916 C 0.18084 0.61646 0.37719 0.0
C1917 C 0.44994 0.14596 0.43333 0.0
C1918 C 0.44948 0.1592 0.40505 0.0
C1919 C 0.42512 0.14801 0.45307 0.0
C1920 C 0.39893 0.16315 0.44505 0.0
H1921 H 0.46889 0.13243 0.43951 0.0
H1922 H 0.4258 0.13625 0.47403 0.0
S1923 S 0.3864 0.20161 0.37374 0.0
N1924 N 0.42106 0.18897 0.37065 0.0
N1925 N 0.37412 0.19168 0.40717 0.0
C1926 C 0.39866 0.17747 0.41742 0.0
C1927 C 0.42407 0.17583 0.39756 0.0
C1928 C 0.58854 0.89104 0.60528 0.0
C1929 C 0.57892 0.86442 0.61826 0.0
C1930 C 0.61405 0.89144 0.58715 0.0
C1931 C 0.63054 0.86522 0.58152 0.0
H1932 H 0.57777 0.91207 0.61099 0.0
H1933 H 0.6218 0.91275 0.57893 0.0
S1934 S 0.61099 0.78913 0.60546 0.0
N1935 N 0.58505 0.81072 0.62127 0.0
N1936 N 0.6334 0.81153 0.58644 0.0
C1937 C 0.6199 0.83813 0.59238 0.0
C1938 C 0.59384 0.83772 0.61096 0.0
C1939 C 0.61859 0.17944 0.41254 0.0
C1940 C 0.58982 0.17021 0.42153 0.0
C1941 C 0.64234 0.17751 0.43201 0.0
C1942 C 0.63764 0.16677 0.46087 0.0
H1943 H 0.62328 0.18609 0.38976 0.0
H1944 H 0.66474 0.18247 0.42385 0.0
S1945 S 0.56585 0.14574 0.49687 0.0
N1946 N 0.55713 0.15435 0.46234 0.0
N1947 N 0.60232 0.15077 0.49914 0.0
C1948 C 0.60871 0.16032 0.47109 0.0
C1949 C 0.58447 0.16213 0.45126 0.0
C1950 C 0.84849 0.62593 0.43116 0.0
C1951 C 0.86759 0.6009 0.42989 0.0
C1952 C 0.85189 0.64833 0.453 0.0
C1953 C 0.87477 0.64656 0.4739 0.0
H1954 H 0.83176 0.62897 0.41428 0.0
H1955 H 0.83788 0.66803 0.45225 0.0
S1956 S 0.92849 0.5845 0.48235 0.0
N1957 N 0.90825 0.57449 0.45343 0.0
N1958 N 0.91513 0.61711 0.49379 0.0
C1959 C 0.89285 0.621 0.47398 0.0
C1960 C 0.88908 0.59795 0.45217 0.0
C1961 C 0.4278 0.88889 0.48498 0.0
C1962 C 0.40001 0.87479 0.48367 0.0
C1963 C 0.44911 0.88415 0.46233 0.0
C1964 C 0.44247 0.86587 0.4377 0.0
H1965 H 0.43206 0.90552 0.50213 0.0
H1966 H 0.46963 0.89693 0.46279 0.0
S1967 S 0.37403 0.82082 0.42675 0.0
N1968 N 0.36818 0.83894 0.45862 0.0
N1969 N 0.40786 0.83061 0.41522 0.0
C1970 C 0.41583 0.84939 0.43777 0.0
C1971 C 0.39452 0.85377 0.46112 0.0
C1972 C 0.20536 0.45244 0.42448 0.0
C1973 C 0.18668 0.47758 0.42576 0.0
C1974 C 0.20608 0.433 0.44825 0.0
C1975 C 0.18859 0.43864 0.47389 0.0
H1976 H 0.21722 0.44616 0.40402 0.0
H1977 H 0.21801 0.41206 0.44542 0.0
S1978 S 0.14196 0.50499 0.49092 0.0
N1979 N 0.15467 0.51005 0.45646 0.0
N1980 N 0.15661 0.47319 0.50187 0.0
C1981 C 0.17331 0.46573 0.47723 0.0
C1982 C 0.1722 0.48546 0.45277 0.0
C1983 C 0.4339 0.2129 0.58565 0.0
C1984 C 0.43589 0.19174 0.56237 0.0
C1985 C 0.4537 0.21195 0.609 0.0
C1986 C 0.4761 0.19011 0.60932 0.0
H1987 H 0.41519 0.22824 0.58754 0.0
H1988 H 0.44968 0.22657 0.62812 0.0
S1989 S 0.49639 0.13661 0.54878 0.0
N1990 N 0.46584 0.15336 0.53723 0.0
N1991 N 0.50388 0.15189 0.58153 0.0
C1992 C 0.48132 0.17214 0.58398 0.0
C1993 C 0.46085 0.17289 0.5602 0.0
C1994 C 0.84914 0.39229 0.59613 0.0
C1995 C 0.86162 0.39995 0.56833 0.0
C1996 C 0.84693 0.41342 0.61913 0.0
C1997 C 0.85739 0.44255 0.61477 0.0
H1998 H 0.84397 0.36925 0.60102 0.0
H1999 H 0.83968 0.40612 0.64108 0.0
S2000 S 0.88544 0.4747 0.54381 0.0
N2001 N 0.87973 0.43913 0.53594 0.0
N2002 N 0.87527 0.47935 0.57921 0.0
C2003 C 0.86624 0.45129 0.58595 0.0
C2004 C 0.8685 0.4297 0.56257 0.0
C2005 C 0.14703 0.61392 0.6105 0.0
C2006 C 0.17246 0.5956 0.61289 0.0
C2007 C 0.14745 0.63926 0.59243 0.0
C2008 C 0.1732 0.64704 0.57581 0.0
H2009 H 0.12697 0.60932 0.62358 0.0
H2010 H 0.12771 0.65328 0.59201 0.0
S2011 S 0.24384 0.60394 0.57072 0.0
N2012 N 0.22301 0.58544 0.59507 0.0
N2013 N 0.22353 0.63273 0.56035 0.0
C2014 C 0.19819 0.62812 0.57677 0.0
C2015 C 0.19791 0.60248 0.59555 0.0
C2016 C 0.12087 0.30808 0.42683 0.0
C2017 C 0.11644 0.2775 0.42504 0.0
C2018 C 0.13569 0.31973 0.45096 0.0
C2019 C 0.14574 0.30077 0.47339 0.0
H2020 H 0.11009 0.32307 0.41154 0.0
H2021 H 0.13745 0.34374 0.45321 0.0
S2022 S 0.13941 0.21928 0.47787 0.0
N2023 N 0.1241 0.22821 0.44592 0.0
N2024 N 0.15124 0.25096 0.49251 0.0
C2025 C 0.14302 0.27017 0.47096 0.0
C2026 C 0.12875 0.25817 0.44597 0.0
C2027 C 0.7999 0.11763 0.42365 0.0
C2028 C 0.76932 0.12312 0.42149 0.0
C2029 C 0.81243 0.09347 0.4088 0.0
C2030 C 0.7945 0.07466 0.39154 0.0
H2031 H 0.81364 0.13069 0.4386 0.0
H2032 H 0.83606 0.08892 0.41143 0.0
S2033 S 0.71367 0.07975 0.37862 0.0
N2034 N 0.72133 0.10839 0.4007 0.0
N2035 N 0.74588 0.06261 0.372 0.0
C2036 C 0.76433 0.0804 0.38806 0.0
C2037 C 0.75141 0.10509 0.40318 0.0
C2038 C 0.90938 0.75668 0.38494 0.0
C2039 C 0.94027 0.75126 0.38439 0.0
C2040 C 0.89517 0.76116 0.41273 0.0
C2041 C 0.91143 0.7565 0.43877 0.0
H2042 H 0.89848 0.76441 0.36508 0.0
H2043 H 0.87251 0.76975 0.41387 0.0
S2044 S 0.98669 0.72174 0.44298 0.0
N2045 N 0.98012 0.724 0.40701 0.0
N2046 N 0.95629 0.73449 0.46017 0.0
C2047 C 0.93918 0.74141 0.4365 0.0
C2048 C 0.95184 0.73525 0.4079 0.0
C2049 C 0.25025 0.88861 0.38578 0.0
C2050 C 0.26501 0.91408 0.3754 0.0
C2051 C 0.26072 0.87527 0.41151 0.0
C2052 C 0.28766 0.88513 0.4234 0.0
H2053 H 0.22726 0.88446 0.3797 0.0
H2054 H 0.2461 0.86057 0.42405 0.0
S2055 S 0.34075 0.93998 0.39234 0.0
N2056 N 0.31195 0.94026 0.36978 0.0
N2057 N 0.33324 0.91395 0.4171 0.0
C2058 C 0.30652 0.90391 0.40699 0.0
C2059 C 0.29528 0.91775 0.38145 0.0
C2060 C 0.1225 0.79795 0.62684 0.0
C2061 C 0.0979 0.78045 0.61725 0.0
C2062 C 0.13853 0.81495 0.60606 0.0
C2063 C 0.13315 0.80935 0.57595 0.0
H2064 H 0.12998 0.79759 0.6497 0.0
H2065 H 0.15909 0.82567 0.61266 0.0
S2066 S 0.06548 0.7824 0.54111 0.0
N2067 N 0.06386 0.77022 0.57571 0.0
N2068 N 0.09416 0.80542 0.53976 0.0
C2069 C 0.10337 0.8044 0.56852 0.0
C2070 C 0.08704 0.78529 0.58799 0.0
C2071 C 0.2546 0.11862 0.5968 0.0
C2072 C 0.26885 0.11332 0.6238 0.0
C2073 C 0.26705 0.13814 0.57652 0.0
C2074 C 0.29371 0.15267 0.58323 0.0
H2075 H 0.23482 0.1062 0.59063 0.0
H2076 H 0.25706 0.14025 0.55476 0.0
S2077 S 0.33827 0.14633 0.65193 0.0
N2078 N 0.30952 0.12382 0.65714 0.0
N2079 N 0.33337 0.16165 0.61902 0.0
C2080 C 0.30713 0.14883 0.61109 0.0
C2081 C 0.29455 0.12855 0.6315 0.0
C2082 C 0.89898 0.27581 0.65567 0.0
C2083 C 0.93014 0.27749 0.65729 0.0
C2084 C 0.88568 0.27418 0.62792 0.0
C2085 C 0.90345 0.27495 0.60183 0.0
H2086 H 0.88555 0.27104 0.67544 0.0
H2087 H 0.86159 0.27204 0.62675 0.0
S2088 S 0.98548 0.28663 0.59575 0.0
N2089 N 0.97734 0.28812 0.63177 0.0
N2090 N 0.9532 0.28144 0.57945 0.0
C2091 C 0.93425 0.28035 0.6036 0.0
C2092 C 0.94711 0.28448 0.63168 0.0
C2093 C 0.76155 0.98298 0.62627 0.0
C2094 C 0.78282 0.97179 0.64572 0.0
C2095 C 0.73783 0.96524 0.61801 0.0
C2096 C 0.73588 0.936 0.62845 0.0
H2097 H 0.76467 1.00418 0.61528 0.0
H2098 H 0.72366 0.97284 0.60028 0.0
S2099 S 0.7797 0.90111 0.68746 0.0
N2100 N 0.79553 0.93385 0.68199 0.0
N2101 N 0.75167 0.89926 0.66402 0.0
C2102 C 0.75409 0.92645 0.65121 0.0
C2103 C 0.7777 0.94483 0.66046 0.0
C2104 C 0.37601 0.13206 0.25828 0.0
C2105 C 0.37254 0.10638 0.27555 0.0
C2106 C 0.39272 0.15568 0.2695 0.0
C2107 C 0.40503 0.15309 0.29777 0.0
H2108 H 0.37187 0.13136 0.23451 0.0
H2109 H 0.40137 0.17205 0.254 0.0
S2110 S 0.3896 0.0965 0.35483 0.0
N2111 N 0.37338 0.08402 0.32436 0.0
N2112 N 0.40226 0.12992 0.34637 0.0
C2113 C 0.39276 0.13249 0.31786 0.0
C2114 C 0.37733 0.10776 0.30612 0.0
C2115 C 0.96008 0.44813 0.30189 0.0
C2116 C 0.95083 0.41999 0.31162 0.0
C2117 C 0.94463 0.46133 0.27918 0.0
C2118 C 0.91493 0.45313 0.2733 0.0
H2119 H 0.98321 0.45488 0.30331 0.0
H2120 H 0.95546 0.47968 0.26791 0.0
S2121 S 0.87323 0.39278 0.31201 0.0
N2122 N 0.90745 0.39074 0.32515 0.0
N2123 N 0.87349 0.42056 0.28808 0.0
C2124 C 0.9024 0.42948 0.29001 0.0
C2125 C 0.9203 0.41392 0.31064 0.0
C2126 C 0.58887 0.93206 0.23667 0.0
C2127 C 0.61681 0.92979 0.25068 0.0
C2128 C 0.5735 0.9063 0.22874 0.0
C2129 C 0.58285 0.8796 0.24128 0.0
H2130 H 0.5786 0.95338 0.23222 0.0
H2131 H 0.55099 0.90867 0.22077 0.0
S2132 S 0.66063 0.86041 0.25818 0.0
N2133 N 0.65943 0.89724 0.25959 0.0
N2134 N 0.62689 0.84928 0.24855 0.0
C2135 C 0.61354 0.87612 0.24496 0.0
C2136 C 0.63066 0.90177 0.25158 0.0
C2137 C 0.06152 0.60712 0.31206 0.0
C2138 C 0.06823 0.63613 0.3214 0.0
C2139 C 0.07967 0.59436 0.2897 0.0
C2140 C 0.10858 0.60595 0.28371 0.0
H2141 H 0.03852 0.59959 0.31319 0.0
H2142 H 0.07088 0.57548 0.27738 0.0
S2143 S 0.14286 0.6686 0.32615 0.0
N2144 N 0.10835 0.66655 0.33966 0.0
N2145 N 0.14648 0.64144 0.30102 0.0
C2146 C 0.11875 0.62925 0.3028 0.0
C2147 C 0.09854 0.64239 0.32429 0.0
C2148 C 0.42009 0.9512 0.73595 0.0
C2149 C 0.39133 0.94511 0.74664 0.0
C2150 C 0.44283 0.94647 0.75633 0.0
C2151 C 0.4396 0.92422 0.77833 0.0
H2152 H 0.42347 0.9683 0.71932 0.0
H2153 H 0.46323 0.95884 0.75337 0.0
S2154 S 0.37237 0.87724 0.78844 0.0
N2155 N 0.36207 0.90343 0.76504 0.0
N2156 N 0.40785 0.88371 0.79604 0.0
C2157 C 0.41263 0.90818 0.77913 0.0
C2158 C 0.38839 0.91804 0.76165 0.0
C2159 C 0.05003 0.43068 0.73568 0.0
C2160 C 0.05894 0.40093 0.73197 0.0
C2161 C 0.06835 0.44933 0.75262 0.0
C2162 C 0.09813 0.44065 0.75862 0.0
H2163 H 0.02668 0.43674 0.7336 0.0
H2164 H 0.05917 0.47028 0.76092 0.0
S2165 S 0.13626 0.37445 0.72387 0.0
N2166 N 0.10077 0.37088 0.71491 0.0
N2167 N 0.13835 0.40556 0.74389 0.0
C2168 C 0.10942 0.41482 0.7435 0.0
C2169 C 0.08943 0.39631 0.72736 0.0
C2170 C 0.63574 0.13278 0.78341 0.0
C2171 C 0.63085 0.10793 0.76426 0.0
C2172 C 0.6145 0.14075 0.80552 0.0
C2173 C 0.58597 0.12786 0.80475 0.0
H2174 H 0.65741 0.14355 0.78374 0.0
H2175 H 0.61816 0.16069 0.81882 0.0
S2176 S 0.56366 0.05972 0.76401 0.0
N2177 N 0.59455 0.07109 0.74726 0.0
N2178 N 0.55871 0.0827 0.7928 0.0
C2179 C 0.58342 0.10016 0.79029 0.0
C2180 C 0.60258 0.09411 0.76558 0.0
C2181 C 0.89218 0.64148 0.80469 0.0
C2182 C 0.91352 0.65247 0.7843 0.0
C2183 C 0.87133 0.62084 0.79485 0.0
C2184 C 0.87139 0.61272 0.76466 0.0
H2185 H 0.89572 0.64341 0.82854 0.0
H2186 H 0.85978 0.60724 0.81123 0.0
S2187 S 0.9135 0.64653 0.70221 0.0
N2188 N 0.92766 0.66141 0.73275 0.0
N2189 N 0.8854 0.62551 0.71373 0.0
C2190 C 0.88611 0.63074 0.7437 0.0
C2191 C 0.90872 0.65003 0.75378 0.0
C2192 C 0.27923 0.45247 0.08644 0.0
C2193 C 0.27064 0.42672 0.10143 0.0
C2194 C 0.2892 0.47661 0.10237 0.0
C2195 C 0.29203 0.47473 0.13341 0.0
H2196 H 0.27697 0.45446 0.06245 0.0
H2197 H 0.29611 0.49612 0.09001 0.0
S2198 S 0.26911 0.4127 0.18233 0.0
N2199 N 0.26182 0.40107 0.14809 0.0
N2200 N 0.28338 0.44644 0.17883 0.0
C2201 C 0.28245 0.44939 0.1487 0.0
C2202 C 0.27128 0.42509 0.13237 0.0
C2203 C 0.2616 0.60606 0.9017 0.0
C2204 C 0.27438 0.61942 0.92694 0.0
C2205 C 0.27761 0.58496 0.88515 0.0
C2206 C 0.30647 0.57761 0.8936 0.0
H2207 H 0.2384 0.60993 0.89629 0.0
H2208 H 0.26678 0.57294 0.86721 0.0
S2209 S 0.35136 0.60998 0.95435 0.0
N2210 N 0.31864 0.62698 0.95705 0.0
N2211 N 0.34894 0.58707 0.92538 0.0
C2212 C 0.32059 0.59299 0.91665 0.0
C2213 C 0.3044 0.61435 0.93351 0.0
C2214 C 0.36971 0.28573 0.92049 0.0
C2215 C 0.37094 0.29538 0.95037 0.0
C2216 C 0.3967 0.27795 0.906 0.0
C2217 C 0.42369 0.28368 0.92054 0.0
H2218 H 0.34892 0.27756 0.91154 0.0
H2219 H 0.39646 0.26626 0.88469 0.0
S2220 S 0.43248 0.33105 0.98894 0.0
N2221 N 0.3961 0.32934 0.98359 0.0
N2222 N 0.44775 0.31125 0.96139 0.0
C2223 C 0.42323 0.3029 0.94596 0.0
C2224 C 0.39541 0.31278 0.95792 0.0
C2225 C 0.78413 0.41806 0.94002 0.0
C2226 C 0.75798 0.40994 0.95594 0.0
C2227 C 0.78597 0.41445 0.90922 0.0
C2228 C 0.75912 0.41077 0.89421 0.0
H2229 H 0.80293 0.42782 0.95118 0.0
H2230 H 0.80531 0.42372 0.89772 0.0
S2231 S 0.69104 0.37471 0.92471 0.0
N2232 N 0.7102 0.38462 0.95442 0.0
N2233 N 0.71172 0.38419 0.89532 0.0
C2234 C 0.73609 0.39532 0.90915 0.0
C2235 C 0.73487 0.39615 0.94078 0.0
C2236 C 0.60128 0.78842 0.98873 0.0
C2237 C 0.63217 0.79068 0.98847 0.0
C2238 C 0.58635 0.78993 0.96241 0.0
C2239 C 0.60222 0.78926 0.93502 0.0
H2240 H 0.58846 0.79335 0.00881 0.0
H2241 H 0.56211 0.79039 0.96383 0.0
S2242 S 0.68407 0.78463 0.92365 0.0
N2243 N 0.67888 0.78661 0.96027 0.0
N2244 N 0.65034 0.78498 0.90919 0.0
C2245 C 0.63336 0.78699 0.93462 0.0
C2246 C 0.64853 0.7869 0.96185 0.0
C2247 C 0.77921 0.62175 0.06242 0.0
C2248 C 0.78816 0.65056 0.0706 0.0
C2249 C 0.76909 0.60258 0.08394 0.0
C2250 C 0.76583 0.61257 0.11354 0.0
H2251 H 0.78275 0.61294 0.04003 0.0
H2252 H 0.76402 0.57981 0.07737 0.0
S2253 S 0.77448 0.6889 0.14311 0.0
N2254 N 0.78635 0.69032 0.108 0.0
N2255 N 0.76388 0.65413 0.14859 0.0
C2256 C 0.76968 0.64243 0.12098 0.0
C2257 C 0.78141 0.66176 0.09921 0.0
C2258 C 0.39098 0.76531 0.13197 0.0
C2259 C 0.39468 0.75261 0.10332 0.0
C2260 C 0.41525 0.77914 0.14551 0.0
C2261 C 0.44404 0.77733 0.1323 0.0
H2262 H 0.36874 0.76966 0.14103 0.0
H2263 H 0.41193 0.78967 0.16724 0.0
S2264 S 0.46436 0.73688 0.06173 0.0
N2265 N 0.42905 0.72845 0.0684 0.0
N2266 N 0.47371 0.75988 0.08899 0.0
C2267 C 0.44761 0.76145 0.10505 0.0
C2268 C 0.42355 0.74467 0.09382 0.0
C2269 C 0.60099 0.21583 0.11164 0.0
C2270 C 0.62639 0.23356 0.11812 0.0
C2271 C 0.58192 0.207 0.13494 0.0
C2272 C 0.58506 0.22232 0.16193 0.0
H2273 H 0.59377 0.21178 0.08918 0.0
H2274 H 0.56059 0.19715 0.12937 0.0
S2275 S 0.65691 0.24611 0.19292 0.0
N2276 N 0.662 0.24723 0.15627 0.0
N2277 N 0.6229 0.23259 0.19892 0.0
C2278 C 0.61476 0.22723 0.17036 0.0
C2279 C 0.63562 0.2354 0.14762 0.0
C2280 C 0.93579 0.75116 0.64933 0.0
C2281 C 0.94769 0.7791 0.64287 0.0
C2282 C 0.91473 0.7386 0.63048 0.0
C2283 C 0.90559 0.75385 0.60494 0.0
H2284 H 0.94371 0.73857 0.66812 0.0
H2285 H 0.90696 0.71618 0.63486 0.0
S2286 S 0.92813 0.82881 0.58047 0.0
N2287 N 0.94687 0.82304 0.61131 0.0
N2288 N 0.90834 0.79829 0.57492 0.0
C2289 C 0.91645 0.78219 0.59899 0.0
C2290 C 0.93731 0.79522 0.61836 0.0
C2291 C 0.27533 0.96973 0.61261 0.0
C2292 C 0.25707 0.95878 0.63546 0.0
C2293 C 0.28389 0.95139 0.58911 0.0
C2294 C 0.27526 0.92126 0.58833 0.0
H2295 H 0.28173 0.99303 0.61214 0.0
H2296 H 0.29821 0.96088 0.57209 0.0
S2297 S 0.22629 0.88208 0.6421 0.0
N2298 N 0.2291 0.91636 0.65555 0.0
N2299 N 0.24709 0.88131 0.61128 0.0
C2300 C 0.25701 0.90993 0.61096 0.0
C2301 C 0.24775 0.92874 0.63484 0.0
C2302 C 0.09697 0.23425 0.64853 0.0
C2303 C 0.06977 0.24435 0.66093 0.0
C2304 C 0.11416 0.25317 0.63135 0.0
C2305 C 0.10413 0.28217 0.62658 0.0
H2306 H 0.10377 0.21112 0.65019 0.0
H2307 H 0.13412 0.24446 0.6202 0.0
S2308 S 0.03784 0.31997 0.66085 0.0
N2309 N 0.03567 0.28511 0.67199 0.0
N2310 N 0.06856 0.32184 0.63991 0.0
C2311 C 0.07852 0.29328 0.64163 0.0
C2312 C 0.06097 0.27384 0.65884 0.0
C2313 C 0.78805 0.15013 0.6174 0.0
C2314 C 0.77388 0.12687 0.63272 0.0
C2315 C 0.77661 0.15944 0.59059 0.0
C2316 C 0.75066 0.14618 0.58004 0.0
H2317 H 0.8102 0.15755 0.6235 0.0
H2318 H 0.78845 0.17611 0.57766 0.0
S2319 S 0.69928 0.09456 0.61962 0.0
N2320 N 0.72824 0.09859 0.64158 0.0
N2321 N 0.7065 0.11591 0.59067 0.0
C2322 C 0.73359 0.12719 0.5982 0.0
C2323 C 0.74486 0.11844 0.62562 0.0
C2324 C 0.92332 0.25391 0.41317 0.0
C2325 C 0.95144 0.24838 0.42509 0.0
C2326 C 0.9031 0.2719 0.42883 0.0
C2327 C 0.91067 0.28344 0.45682 0.0
H2328 H 0.91756 0.24545 0.39126 0.0
H2329 H 0.88231 0.27797 0.41843 0.0
S2330 S 0.98022 0.27098 0.49908 0.0
N2331 N 0.9854 0.25391 0.46666 0.0
N2332 N 0.94598 0.28428 0.49783 0.0
C2333 C 0.93759 0.27525 0.47013 0.0
C2334 C 0.95865 0.25871 0.45357 0.0
C2335 C 0.74152 0.90992 0.41524 0.0
C2336 C 0.76912 0.92341 0.41747 0.0
C2337 C 0.73187 0.89197 0.43814 0.0
C2338 C 0.74944 0.88843 0.46374 0.0
H2339 H 0.72647 0.9153 0.39737 0.0
H2340 H 0.70948 0.88317 0.43687 0.0
S2341 S 0.8266 0.91358 0.47521 0.0
N2342 N 0.81705 0.92718 0.44261 0.0
N2343 N 0.79717 0.89487 0.48752 0.0
C2344 C 0.77842 0.899 0.4644 0.0
C2345 C 0.78882 0.91625 0.44048 0.0
C2346 C 0.07469 0.76883 0.43957 0.0
C2347 C 0.0844 0.79433 0.42456 0.0
C2348 C 0.09371 0.75401 0.45872 0.0
C2349 C 0.12296 0.76437 0.46347 0.0
H2350 H 0.05227 0.76032 0.43652 0.0
H2351 H 0.08556 0.73404 0.46947 0.0
S2352 S 0.15823 0.83161 0.43207 0.0
N2353 N 0.1246 0.8306 0.41744 0.0
N2354 N 0.16037 0.80191 0.45331 0.0
C2355 C 0.13287 0.78993 0.44906 0.0
C2356 C 0.11354 0.80519 0.4296 0.0
C2357 C 0.23425 0.12369 0.43312 0.0
C2358 C 0.26081 0.13798 0.42495 0.0
C2359 C 0.22925 0.09487 0.4233 0.0
C2360 C 0.24959 0.08074 0.40345 0.0
H2361 H 0.21982 0.13285 0.45071 0.0
H2362 H 0.20916 0.08376 0.43105 0.0
S2363 S 0.31472 0.11461 0.36548 0.0
N2364 N 0.30313 0.14008 0.39002 0.0
N2365 N 0.29159 0.08618 0.36895 0.0
C2366 C 0.27305 0.097 0.39088 0.0
C2367 C 0.27874 0.12609 0.40169 0.0
C2368 C 0.60088 0.96057 0.78484 0.0
C2369 C 0.63182 0.9587 0.78008 0.0
C2370 C 0.58238 0.93863 0.77436 0.0
C2371 C 0.59406 0.91503 0.75707 0.0
H2372 H 0.5908 0.97888 0.79719 0.0
H2373 H 0.55852 0.94109 0.77854 0.0
S2374 S 0.6737 0.90093 0.73731 0.0
N2375 N 0.67391 0.93167 0.75801 0.0
N2376 N 0.63827 0.89081 0.73515 0.0
C2377 C 0.62503 0.91272 0.75191 0.0
C2378 C 0.64416 0.93474 0.76394 0.0
C2379 C 0.0767 0.61217 0.76835 0.0
C2380 C 0.07521 0.60094 0.79729 0.0
C2381 C 0.09759 0.6008 0.74784 0.0
C2382 C 0.11715 0.57772 0.75571 0.0
H2383 H 0.06237 0.63036 0.76179 0.0
H2384 H 0.09849 0.61028 0.72571 0.0
S2385 S 0.12197 0.54078 0.82867 0.0
N2386 N 0.09453 0.56522 0.83289 0.0
N2387 N 0.13425 0.5443 0.79391 0.0
C2388 C 0.11563 0.56599 0.78432 0.0
C2389 C 0.09441 0.57752 0.80529 0.0
C2390 C 0.40154 0.1195 0.76993 0.0
C2391 C 0.41224 0.09209 0.78033 0.0
C2392 C 0.42122 0.13985 0.75646 0.0
C2393 C 0.45203 0.13374 0.75484 0.0
H2394 H 0.37803 0.1251 0.77211 0.0
H2395 H 0.41235 0.16007 0.74704 0.0
S2396 S 0.49097 0.0667 0.78188 0.0
N2397 N 0.45527 0.05977 0.78643 0.0
N2398 N 0.49234 0.10054 0.76853 0.0
C2399 C 0.46282 0.10745 0.76722 0.0
C2400 C 0.44285 0.08577 0.77772 0.0
C2401 C 0.96586 0.43306 0.78038 0.0
C2402 C 0.95021 0.40809 0.79114 0.0
C2403 C 0.95188 0.45397 0.76304 0.0
C2404 C 0.92201 0.45032 0.75571 0.0
H2405 H 0.9892 0.43651 0.78518 0.0
H2406 H 0.96487 0.4724 0.75429 0.0
S2407 S 0.87171 0.38807 0.77588 0.0
N2408 N 0.90352 0.38039 0.79237 0.0
N2409 N 0.87721 0.41981 0.75828 0.0
C2410 C 0.90599 0.42546 0.76571 0.0
C2411 C 0.92019 0.40417 0.78378 0.0
C2412 C 0.59004 0.07074 0.26456 0.0
C2413 C 0.61704 0.08264 0.25406 0.0
C2414 C 0.56926 0.08888 0.27954 0.0
C2415 C 0.57537 0.11913 0.28513 0.0
H2416 H 0.58405 0.04789 0.25936 0.0
H2417 H 0.54808 0.07926 0.28633 0.0
S2418 S 0.64333 0.16039 0.26137 0.0
N2419 N 0.64898 0.12595 0.24909 0.0
N2420 N 0.61049 0.16011 0.27889 0.0
C2421 C 0.60277 0.13103 0.27525 0.0
C2422 C 0.62361 0.11264 0.25943 0.0
C2423 C 0.94603 0.64535 0.28694 0.0
C2424 C 0.95005 0.64171 0.25611 0.0
C2425 C 0.92534 0.62776 0.30216 0.0
C2426 C 0.90878 0.60621 0.28669 0.0
H2427 H 0.9596 0.661 0.29934 0.0
H2428 H 0.92337 0.6299 0.32626 0.0
S2429 S 0.91225 0.58795 0.20613 0.0
N2430 N 0.93643 0.61539 0.21054 0.0
N2431 N 0.89771 0.58171 0.23965 0.0
C2432 C 0.91246 0.60259 0.25592 0.0
C2433 C 0.9332 0.62063 0.24039 0.0
C2434 C 0.41602 0.94475 0.27818 0.0
C2435 C 0.42766 0.94699 0.24901 0.0
C2436 C 0.42793 0.92388 0.2976 0.0
C2437 C 0.45138 0.90499 0.28793 0.0
H2438 H 0.39774 0.95893 0.28589 0.0
H2439 H 0.41951 0.92315 0.32043 0.0
S2440 S 0.48837 0.90167 0.21364 0.0
N2441 N 0.46361 0.92874 0.21151 0.0
N2442 N 0.4848 0.88888 0.24786 0.0
C2443 C 0.46264 0.9068 0.25889 0.0
C2444 C 0.45105 0.92808 0.23939 0.0
C2445 C 0.08802 0.44889 0.25438 0.0
C2446 C 0.08798 0.41866 0.26204 0.0
C2447 C 0.11017 0.46761 0.26425 0.0
C2448 C 0.13244 0.45682 0.28273 0.0
H2449 H 0.07097 0.45839 0.24062 0.0
H2450 H 0.10878 0.49109 0.25891 0.0
S2451 S 0.1434 0.37886 0.30684 0.0
N2452 N 0.113 0.37794 0.28649 0.0
N2453 N 0.15476 0.41388 0.30679 0.0
C2454 C 0.13367 0.42634 0.28938 0.0
C2455 C 0.11117 0.40706 0.27874 0.0
C2456 C 0.74139 0.601 0.96064 0.0
C2457 C 0.74133 0.62999 0.94944 0.0
C2458 C 0.74458 0.57691 0.94112 0.0
C2459 C 0.74486 0.58104 0.91001 0.0
H2460 H 0.74408 0.59715 0.9843 0.0
H2461 H 0.74672 0.55488 0.95048 0.0
S2462 S 0.73474 0.65338 0.8714 0.0
N2463 N 0.73422 0.66196 0.90731 0.0
N2464 N 0.73929 0.61689 0.86953 0.0
C2465 C 0.74035 0.61011 0.89902 0.0
C2466 C 0.73711 0.63439 0.91918 0.0
C2467 C 0.8035 0.4338 0.1283 0.0
C2468 C 0.78982 0.41496 0.10748 0.0
C2469 C 0.78798 0.45808 0.14005 0.0
C2470 C 0.75896 0.46363 0.13073 0.0
H2471 H 0.82689 0.43106 0.13367 0.0
H2472 H 0.79869 0.47274 0.156 0.0
S2473 S 0.71275 0.41785 0.0799 0.0
N2474 N 0.74574 0.40132 0.07986 0.0
N2475 N 0.71566 0.44682 0.10278 0.0
C2476 C 0.74454 0.44385 0.11127 0.0
C2477 C 0.76031 0.41927 0.09946 0.0
C2478 C 0.62531 0.74382 0.13074 0.0
C2479 C 0.625 0.77433 0.13771 0.0
C2480 C 0.60588 0.72505 0.1455 0.0
C2481 C 0.5866 0.73664 0.16759 0.0
H2482 H 0.63811 0.73493 0.11184 0.0
H2483 H 0.60408 0.70206 0.13794 0.0
S2484 S 0.58222 0.81313 0.19812 0.0
N2485 N 0.60796 0.81437 0.17122 0.0
N2486 N 0.57081 0.77819 0.1992 0.0
C2487 C 0.58852 0.76609 0.17723 0.0
C2488 C 0.60829 0.78533 0.16221 0.0
C2489 C 0.23807 0.6573 0.11132 0.0
C2490 C 0.24953 0.65827 0.08193 0.0
C2491 C 0.25543 0.64629 0.13373 0.0
C2492 C 0.28422 0.63651 0.12676 0.0
H2493 H 0.21475 0.66218 0.11645 0.0
H2494 H 0.24505 0.64161 0.15525 0.0
S2495 S 0.32514 0.63894 0.05416 0.0
N2496 N 0.2915 0.6522 0.04739 0.0
N2497 N 0.32524 0.63198 0.09031 0.0
C2498 C 0.29718 0.64115 0.09838 0.0
C2499 C 0.2792 0.65155 0.07537 0.0
C2500 C 0.43712 0.27311 0.08382 0.0
C2501 C 0.41357 0.25619 0.0956 0.0
C2502 C 0.46024 0.28232 0.10182 0.0
C2503 C 0.46025 0.27525 0.13231 0.0
H2504 H 0.43808 0.27855 0.06028 0.0
H2505 H 0.4777 0.29578 0.09182 0.0
S2506 S 0.40442 0.23054 0.1738 0.0
N2507 N 0.39202 0.23157 0.13933 0.0
N2508 N 0.43553 0.25029 0.1736 0.0
C2509 C 0.43688 0.25847 0.14448 0.0
C2510 C 0.41336 0.24871 0.12605 0.0
C2511 C 0.26813 0.38074 0.93725 0.0
C2512 C 0.24202 0.39254 0.95032 0.0
C2513 C 0.27941 0.39298 0.91095 0.0
C2514 C 0.26465 0.41721 0.89819 0.0
H2515 H 0.28069 0.36354 0.94832 0.0
H2516 H 0.30182 0.38681 0.9035 0.0
S2517 S 0.19123 0.4492 0.91895 0.0
N2518 N 0.19846 0.42477 0.94509 0.0
N2519 N 0.21973 0.44692 0.89511 0.0
C2520 C 0.23597 0.42493 0.90783 0.0
C2521 C 0.22493 0.41339 0.93484 0.0
C2522 C 0.61819 0.2503 0.93036 0.0
C2523 C 0.62953 0.26647 0.95475 0.0
C2524 C 0.59769 0.26334 0.91147 0.0
C2525 C 0.58852 0.2927 0.9167 0.0
H2526 H 0.62421 0.22711 0.92672 0.0
H2527 H 0.58823 0.25022 0.89352 0.0
S2528 S 0.61263 0.34408 0.97711 0.0
N2529 N 0.6307 0.31265 0.98313 0.0
N2530 N 0.59281 0.33803 0.94687 0.0
C2531 C 0.60051 0.30932 0.94044 0.0
C2532 C 0.62094 0.29587 0.95983 0.0
C2533 C 0.44444 0.7806 0.96917 0.0
C2534 C 0.41549 0.78323 0.95843 0.0
C2535 C 0.46663 0.76788 0.95132 0.0
C2536 C 0.45991 0.75672 0.92284 0.0
H2537 H 0.4506 0.79037 0.99032 0.0
H2538 H 0.48915 0.76697 0.95984 0.0
S2539 S 0.38563 0.75509 0.88726 0.0
N2540 N 0.37997 0.77221 0.9197 0.0
N2541 N 0.42156 0.74657 0.8859 0.0
C2542 C 0.43039 0.75765 0.91272 0.0
C2543 C 0.40802 0.77108 0.93084 0.0
loop_
_geom_bond_atom_site_label_1
_geom_bond_atom_site_label_2
_geom_bond_distance
_geom_bond_site_symmetry_2
_ccdc_geom_bond_type
Tb0 O3 2.453 . S
Tb0 O4 2.596 . S
Tb0 O5 2.374 . S
Tb0 O13 2.343 . S
Tb0 O15 2.353 . S
Tb0 O17 2.427 . S
Tb0 O18 2.513 . S
C1 O5 1.251 . S
C1 O7 1.263 1_455 S
Tb2 O4 2.343 1_655 S
Tb2 O7 2.353 . S
Tb2 O10 2.427 . S
Tb2 O11 2.513 . S
Tb2 O12 2.453 . S
Tb2 O13 2.596 1_655 S
Tb2 O14 2.374 . S
O3 Tb0 2.453 . S
O3 C19 1.245 . S
O4 Tb0 2.596 . S
O4 Tb2 2.343 1_455 S
O4 C19 1.259 . S
O5 Tb0 2.374 . S
O5 C1 1.251 . S
C6 O10 1.275 . S
C6 O11 1.246 . S
O7 C1 1.263 1_655 S
O7 Tb2 2.353 . S
C8 O12 1.245 . S
C8 O13 1.259 1_655 S
C9 O14 1.250 1_455 S
C9 O15 1.263 . S
O10 Tb2 2.427 . S
O10 C6 1.275 . S
O11 Tb2 2.513 . S
O11 C6 1.246 . S
O12 Tb2 2.453 . S
O12 C8 1.245 . S
O13 Tb0 2.343 . S
O13 Tb2 2.596 1_455 S
O13 C8 1.259 1_455 S
O14 Tb2 2.374 . S
O14 C9 1.250 1_655 S
O15 Tb0 2.353 . S
O15 C9 1.263 . S
C16 O17 1.275 . S
C16 O18 1.246 . S
O17 Tb0 2.427 . S
O17 C16 1.275 . S
O18 Tb0 2.513 . S
O18 C16 1.246 . S
C19 O3 1.245 . S
C19 O4 1.259 . S
Tb20 O23 2.453 . S
Tb20 O24 2.596 . S
Tb20 O25 2.374 . S
Tb20 O33 2.343 1_545 S
Tb20 O35 2.353 . S
Tb20 O37 2.427 . S
Tb20 O38 2.513 . S
C21 O25 1.251 . S
C21 O27 1.263 1_545 S
Tb22 O24 2.343 1_565 S
Tb22 O27 2.353 . S
Tb22 O30 2.427 . S
Tb22 O31 2.513 . S
Tb22 O32 2.453 . S
Tb22 O33 2.596 . S
Tb22 O34 2.374 . S
O23 Tb20 2.453 . S
O23 C39 1.245 . S
O24 Tb20 2.596 . S
O24 Tb22 2.343 1_545 S
O24 C39 1.259 . S
O25 Tb20 2.374 . S
O25 C21 1.251 . S
C26 O30 1.275 . S
C26 O31 1.246 . S
O27 C21 1.263 1_565 S
O27 Tb22 2.353 . S
C28 O32 1.245 . S
C28 O33 1.259 . S
C29 O34 1.250 . S
C29 O35 1.263 1_565 S
O30 Tb22 2.427 . S
O30 C26 1.275 . S
O31 Tb22 2.513 . S
O31 C26 1.246 . S
O32 Tb22 2.453 . S
O32 C28 1.245 . S
O33 Tb20 2.343 1_565 S
O33 Tb22 2.596 . S
O33 C28 1.259 . S
O34 Tb22 2.374 . S
O34 C29 1.250 . S
O35 Tb20 2.353 . S
O35 C29 1.263 1_545 S
C36 O37 1.275 . S
C36 O38 1.246 . S
O37 Tb20 2.427 . S
O37 C36 1.275 . S
O38 Tb20 2.513 . S
O38 C36 1.246 . S
C39 O23 1.245 . S
C39 O24 1.259 . S
Tb40 O43 2.453 . S
Tb40 O44 2.577 1_655 S
Tb40 O45 2.374 . S
Tb40 O53 2.343 1_655 S
Tb40 O55 2.353 . S
Tb40 O57 2.427 . S
Tb40 O58 2.513 . S
C41 O45 1.251 1_455 S
C41 O47 1.263 . S
Tb42 O44 2.378 . S
Tb42 O47 2.353 . S
Tb42 O50 2.427 . S
Tb42 O51 2.513 . S
Tb42 O52 2.453 . S
Tb42 O53 2.596 . S
Tb42 O54 2.374 . S
O43 Tb40 2.453 . S
O43 C59 1.245 . S
O44 Tb40 2.577 1_455 S
O44 Tb42 2.378 . S
O44 C59 1.228 1_455 S
O45 Tb40 2.374 . S
O45 C41 1.251 1_655 S
C46 O50 1.275 . S
C46 O51 1.246 . S
O47 C41 1.263 . S
O47 Tb42 2.353 . S
C48 O52 1.245 . S
C48 O53 1.259 . S
C49 O54 1.250 . S
C49 O55 1.263 1_455 S
O50 Tb42 2.427 . S
O50 C46 1.275 . S
O51 Tb42 2.513 . S
O51 C46 1.246 . S
O52 Tb42 2.453 . S
O52 C48 1.245 . S
O53 Tb40 2.343 1_455 S
O53 Tb42 2.596 . S
O53 C48 1.259 . S
O54 Tb42 2.374 . S
O54 C49 1.250 . S
O55 Tb40 2.353 . S
O55 C49 1.263 1_655 S
C56 O57 1.275 . S
C56 O58 1.246 . S
O57 Tb40 2.427 . S
O57 C56 1.275 . S
O58 Tb40 2.513 . S
O58 C56 1.246 . S
C59 O43 1.245 . S
C59 O44 1.228 1_655 S
Tb60 O63 2.453 . S
Tb60 O64 2.596 1_565 S
Tb60 O65 2.374 . S
Tb60 O73 2.343 1_565 S
Tb60 O75 2.353 . S
Tb60 O77 2.427 . S
Tb60 O78 2.513 . S
C61 O65 1.251 1_545 S
C61 O67 1.263 . S
Tb62 O64 2.343 . S
Tb62 O67 2.353 . S
Tb62 O70 2.427 . S
Tb62 O71 2.513 . S
Tb62 O72 2.453 . S
Tb62 O73 2.596 . S
Tb62 O74 2.374 . S
O63 Tb60 2.453 . S
O63 C79 1.245 . S
O64 Tb60 2.596 1_545 S
O64 Tb62 2.343 . S
O64 C79 1.259 1_545 S
O65 Tb60 2.374 . S
O65 C61 1.251 1_565 S
C66 O70 1.275 . S
C66 O71 1.246 . S
O67 C61 1.263 . S
O67 Tb62 2.353 . S
C68 O72 1.245 . S
C68 O73 1.259 . S
C69 O74 1.250 . S
C69 O75 1.263 1_545 S
O70 Tb62 2.427 . S
O70 C66 1.275 . S
O71 Tb62 2.513 . S
O71 C66 1.246 . S
O72 Tb62 2.453 . S
O72 C68 1.245 . S
O73 Tb60 2.343 1_545 S
O73 Tb62 2.596 . S
O73 C68 1.259 . S
O74 Tb62 2.374 . S
O74 C69 1.250 . S
O75 Tb60 2.353 . S
O75 C69 1.263 1_565 S
C76 O77 1.275 . S
C76 O78 1.246 . S
O77 Tb60 2.427 . S
O77 C76 1.275 . S
O78 Tb60 2.513 . S
O78 C76 1.246 . S
C79 O63 1.245 . S
C79 O64 1.259 1_565 S
Tb80 O83 2.453 . S
Tb80 O84 2.596 . S
Tb80 O85 2.374 . S
Tb80 O93 2.343 . S
Tb80 O95 2.353 . S
Tb80 O97 2.427 . S
Tb80 O98 2.513 . S
C81 O85 1.251 . S
C81 O87 1.263 1_455 S
Tb82 O84 2.343 1_655 S
Tb82 O87 2.353 . S
Tb82 O90 2.427 . S
Tb82 O91 2.513 . S
Tb82 O92 2.453 . S
Tb82 O93 2.596 1_655 S
Tb82 O94 2.374 . S
O83 Tb80 2.453 . S
O83 C99 1.245 . S
O84 Tb80 2.596 . S
O84 Tb82 2.343 1_455 S
O84 C99 1.259 . S
O85 Tb80 2.374 . S
O85 C81 1.251 . S
C86 O90 1.275 . S
C86 O91 1.246 . S
O87 C81 1.263 1_655 S
O87 Tb82 2.353 . S
C88 O92 1.245 . S
C88 O93 1.259 1_655 S
C89 O94 1.250 1_455 S
C89 O95 1.263 . S
O90 Tb82 2.427 . S
O90 C86 1.275 . S
O91 Tb82 2.513 . S
O91 C86 1.246 . S
O92 Tb82 2.453 . S
O92 C88 1.245 . S
O93 Tb80 2.343 . S
O93 Tb82 2.596 1_455 S
O93 C88 1.259 1_455 S
O94 Tb82 2.374 . S
O94 C89 1.250 1_655 S
O95 Tb80 2.353 . S
O95 C89 1.263 . S
C96 O97 1.275 . S
C96 O98 1.246 . S
O97 Tb80 2.427 . S
O97 C96 1.275 . S
O98 Tb80 2.513 . S
O98 C96 1.246 . S
C99 O83 1.245 . S
C99 O84 1.259 . S
Tb100 O103 2.453 . S
Tb100 O104 2.596 . S
Tb100 O105 2.374 . S
Tb100 O113 2.344 . S
Tb100 O115 2.353 . S
Tb100 O117 2.427 . S
Tb100 O118 2.513 . S
C101 O105 1.251 . S
C101 O107 1.263 1_545 S
Tb102 O104 2.343 1_565 S
Tb102 O107 2.353 . S
Tb102 O110 2.427 . S
Tb102 O111 2.513 . S
Tb102 O112 2.453 . S
Tb102 O113 2.595 1_565 S
Tb102 O114 2.374 . S
O103 Tb100 2.453 . S
O103 C119 1.245 . S
O104 Tb100 2.596 . S
O104 Tb102 2.343 1_545 S
O104 C119 1.259 . S
O105 Tb100 2.374 . S
O105 C101 1.251 . S
C106 O110 1.275 . S
C106 O111 1.246 . S
O107 C101 1.263 1_565 S
O107 Tb102 2.353 . S
C108 O112 1.245 . S
C108 O113 1.259 1_565 S
C109 O114 1.250 1_545 S
C109 O115 1.263 . S
O110 Tb102 2.427 . S
O110 C106 1.275 . S
O111 Tb102 2.513 . S
O111 C106 1.246 . S
O112 Tb102 2.453 . S
O112 C108 1.245 . S
O113 Tb100 2.344 . S
O113 Tb102 2.595 1_545 S
O113 C108 1.259 1_545 S
O114 Tb102 2.374 . S
O114 C109 1.250 1_565 S
O115 Tb100 2.353 . S
O115 C109 1.263 . S
C116 O117 1.275 . S
C116 O118 1.246 . S
O117 Tb100 2.427 . S
O117 C116 1.275 . S
O118 Tb100 2.513 . S
O118 C116 1.246 . S
C119 O103 1.245 . S
C119 O104 1.259 . S
Tb120 O123 2.453 . S
Tb120 O124 2.596 . S
Tb120 O125 2.374 . S
Tb120 O133 2.343 1_655 S
Tb120 O135 2.353 . S
Tb120 O137 2.427 . S
Tb120 O138 2.513 . S
C121 O125 1.251 1_455 S
C121 O127 1.263 . S
Tb122 O124 2.343 1_455 S
Tb122 O127 2.353 . S
Tb122 O130 2.427 . S
Tb122 O131 2.513 . S
Tb122 O132 2.453 . S
Tb122 O133 2.596 . S
Tb122 O134 2.374 . S
O123 Tb120 2.453 . S
O123 C139 1.245 . S
O124 Tb120 2.596 . S
O124 Tb122 2.343 1_655 S
O124 C139 1.259 . S
O125 Tb120 2.374 . S
O125 C121 1.251 1_655 S
C126 O130 1.275 . S
C126 O131 1.246 . S
O127 C121 1.263 . S
O127 Tb122 2.353 . S
C128 O132 1.245 . S
C128 O133 1.259 . S
C129 O134 1.250 . S
C129 O135 1.263 1_455 S
O130 Tb122 2.427 . S
O130 C126 1.275 . S
O131 Tb122 2.513 . S
O131 C126 1.246 . S
O132 Tb122 2.453 . S
O132 C128 1.245 . S
O133 Tb120 2.343 1_455 S
O133 Tb122 2.596 . S
O133 C128 1.259 . S
O134 Tb122 2.374 . S
O134 C129 1.250 . S
O135 Tb120 2.353 . S
O135 C129 1.263 1_655 S
C136 O137 1.275 . S
C136 O138 1.246 . S
O137 Tb120 2.427 . S
O137 C136 1.275 . S
O138 Tb120 2.513 . S
O138 C136 1.246 . S
C139 O123 1.245 . S
C139 O124 1.259 . S
Tb140 O143 2.453 . S
Tb140 O144 2.596 1_565 S
Tb140 O145 2.374 1_565 S
Tb140 O153 2.343 1_565 S
Tb140 O155 2.353 1_565 S
Tb140 O157 2.427 . S
Tb140 O158 2.513 . S
C141 O145 1.251 . S
C141 O147 1.263 . S
Tb142 O144 2.343 . S
Tb142 O147 2.353 . S
Tb142 O150 2.427 . S
Tb142 O151 2.513 . S
Tb142 O152 2.453 . S
Tb142 O153 2.596 . S
Tb142 O154 2.374 . S
O143 Tb140 2.453 . S
O143 C159 1.245 . S
O144 Tb140 2.596 1_545 S
O144 Tb142 2.343 . S
O144 C159 1.259 1_545 S
O145 Tb140 2.374 1_545 S
O145 C141 1.251 . S
C146 O150 1.275 . S
C146 O151 1.246 . S
O147 C141 1.263 . S
O147 Tb142 2.353 . S
C148 O152 1.245 . S
C148 O153 1.259 . S
C149 O154 1.250 . S
C149 O155 1.263 . S
O150 Tb142 2.427 . S
O150 C146 1.275 . S
O151 Tb142 2.513 . S
O151 C146 1.246 . S
O152 Tb142 2.453 . S
O152 C148 1.245 . S
O153 Tb140 2.343 1_545 S
O153 Tb142 2.596 . S
O153 C148 1.259 . S
O154 Tb142 2.374 . S
O154 C149 1.250 . S
O155 Tb140 2.353 1_545 S
O155 C149 1.263 . S
C156 O157 1.275 . S
C156 O158 1.246 . S
O157 Tb140 2.427 . S
O157 C156 1.275 . S
O158 Tb140 2.513 . S
O158 C156 1.246 . S
C159 O143 1.245 . S
C159 O144 1.259 1_565 S
Tb160 O163 2.453 . S
Tb160 O164 2.596 . S
Tb160 O165 2.374 . S
Tb160 O173 2.343 1_545 S
Tb160 O175 2.353 . S
Tb160 O177 2.427 . S
Tb160 O178 2.513 . S
C161 O165 1.251 . S
C161 O167 1.263 1_545 S
Tb162 O164 2.343 1_565 S
Tb162 O167 2.353 . S
Tb162 O170 2.427 . S
Tb162 O171 2.513 . S
Tb162 O172 2.453 . S
Tb162 O173 2.596 . S
Tb162 O174 2.374 . S
O163 Tb160 2.453 . S
O163 C179 1.245 . S
O164 Tb160 2.596 . S
O164 Tb162 2.343 1_545 S
O164 C179 1.259 . S
O165 Tb160 2.374 . S
O165 C161 1.251 . S
C166 O170 1.275 . S
C166 O171 1.246 . S
O167 C161 1.263 1_565 S
O167 Tb162 2.353 . S
C168 O172 1.245 . S
C168 O173 1.259 . S
C169 O174 1.250 . S
C169 O175 1.263 1_565 S
O170 Tb162 2.427 . S
O170 C166 1.275 . S
O171 Tb162 2.513 . S
O171 C166 1.246 . S
O172 Tb162 2.453 . S
O172 C168 1.245 . S
O173 Tb160 2.343 1_565 S
O173 Tb162 2.596 . S
O173 C168 1.259 . S
O174 Tb162 2.374 . S
O174 C169 1.250 . S
O175 Tb160 2.353 . S
O175 C169 1.263 1_545 S
C176 O177 1.275 . S
C176 O178 1.246 . S
O177 Tb160 2.427 . S
O177 C176 1.275 . S
O178 Tb160 2.513 . S
O178 C176 1.246 . S
C179 O163 1.245 . S
C179 O164 1.259 . S
Tb180 O183 2.453 . S
Tb180 O184 2.596 1_655 S
Tb180 O185 2.374 . S
Tb180 O193 2.343 1_655 S
Tb180 O195 2.353 . S
Tb180 O197 2.427 . S
Tb180 O198 2.513 . S
C181 O185 1.251 1_455 S
C181 O187 1.263 . S
Tb182 O184 2.343 . S
Tb182 O187 2.353 . S
Tb182 O190 2.427 . S
Tb182 O191 2.513 . S
Tb182 O192 2.453 . S
Tb182 O193 2.596 . S
Tb182 O194 2.374 . S
O183 Tb180 2.453 . S
O183 C199 1.245 . S
O184 Tb180 2.596 1_455 S
O184 Tb182 2.343 . S
O184 C199 1.259 1_455 S
O185 Tb180 2.374 . S
O185 C181 1.251 1_655 S
C186 O190 1.275 . S
C186 O191 1.246 . S
O187 C181 1.263 . S
O187 Tb182 2.353 . S
C188 O192 1.245 . S
C188 O193 1.259 . S
C189 O194 1.250 . S
C189 O195 1.263 1_455 S
O190 Tb182 2.427 . S
O190 C186 1.275 . S
O191 Tb182 2.513 . S
O191 C186 1.246 . S
O192 Tb182 2.453 . S
O192 C188 1.245 . S
O193 Tb180 2.343 1_455 S
O193 Tb182 2.596 . S
O193 C188 1.259 . S
O194 Tb182 2.374 . S
O194 C189 1.250 . S
O195 Tb180 2.353 . S
O195 C189 1.263 1_655 S
C196 O197 1.275 . S
C196 O198 1.246 . S
O197 Tb180 2.427 . S
O197 C196 1.275 . S
O198 Tb180 2.513 . S
O198 C196 1.246 . S
C199 O183 1.245 . S
C199 O184 1.259 1_655 S
Tb200 O203 2.453 . S
Tb200 O204 2.596 . S
Tb200 O205 2.374 . S
Tb200 O213 2.343 1_565 S
Tb200 O215 2.353 . S
Tb200 O217 2.427 . S
Tb200 O218 2.513 . S
C201 O205 1.251 1_545 S
C201 O207 1.263 . S
Tb202 O204 2.343 1_545 S
Tb202 O207 2.353 . S
Tb202 O210 2.427 . S
Tb202 O211 2.513 . S
Tb202 O212 2.453 . S
Tb202 O213 2.596 . S
Tb202 O214 2.374 . S
O203 Tb200 2.453 . S
O203 C219 1.245 . S
O204 Tb200 2.596 . S
O204 Tb202 2.343 1_565 S
O204 C219 1.259 . S
O205 Tb200 2.374 . S
O205 C201 1.251 1_565 S
C206 O210 1.275 . S
C206 O211 1.246 . S
O207 C201 1.263 . S
O207 Tb202 2.353 . S
C208 O212 1.245 . S
C208 O213 1.259 . S
C209 O214 1.250 . S
C209 O215 1.263 1_545 S
O210 Tb202 2.427 . S
O210 C206 1.275 . S
O211 Tb202 2.513 . S
O211 C206 1.246 . S
O212 Tb202 2.453 . S
O212 C208 1.245 . S
O213 Tb200 2.343 1_545 S
O213 Tb202 2.596 . S
O213 C208 1.259 . S
O214 Tb202 2.374 . S
O214 C209 1.250 . S
O215 Tb200 2.353 . S
O215 C209 1.263 1_565 S
C216 O217 1.275 . S
C216 O218 1.246 . S
O217 Tb200 2.427 . S
O217 C216 1.275 . S
O218 Tb200 2.513 . S
O218 C216 1.246 . S
C219 O203 1.245 . S
C219 O204 1.259 . S
Tb220 O223 2.453 . S
Tb220 O224 2.596 . S
Tb220 O225 2.374 . S
Tb220 O233 2.343 . S
Tb220 O235 2.353 . S
Tb220 O237 2.427 . S
Tb220 O238 2.513 . S
C221 O225 1.251 . S
C221 O227 1.263 1_455 S
Tb222 O224 2.343 1_655 S
Tb222 O227 2.353 . S
Tb222 O230 2.427 . S
Tb222 O231 2.513 . S
Tb222 O232 2.453 . S
Tb222 O233 2.596 1_655 S
Tb222 O234 2.374 . S
O223 Tb220 2.453 . S
O223 C239 1.245 . S
O224 Tb220 2.596 . S
O224 Tb222 2.343 1_455 S
O224 C239 1.259 . S
O225 Tb220 2.374 . S
O225 C221 1.251 . S
C226 O230 1.275 . S
C226 O231 1.246 . S
O227 C221 1.263 1_655 S
O227 Tb222 2.353 . S
C228 O232 1.245 . S
C228 O233 1.259 1_655 S
C229 O234 1.250 1_455 S
C229 O235 1.263 . S
O230 Tb222 2.427 . S
O230 C226 1.275 . S
O231 Tb222 2.513 . S
O231 C226 1.246 . S
O232 Tb222 2.453 . S
O232 C228 1.245 . S
O233 Tb220 2.343 . S
O233 Tb222 2.596 1_455 S
O233 C228 1.259 1_455 S
O234 Tb222 2.374 . S
O234 C229 1.250 1_655 S
O235 Tb220 2.353 . S
O235 C229 1.263 . S
C236 O237 1.275 . S
C236 O238 1.246 . S
O237 Tb220 2.427 . S
O237 C236 1.275 . S
O238 Tb220 2.513 . S
O238 C236 1.246 . S
C239 O223 1.245 . S
C239 O224 1.259 . S
Tb240 O243 2.453 . S
Tb240 O244 2.596 1_565 S
Tb240 O245 2.374 1_565 S
Tb240 O253 2.343 1_565 S
Tb240 O255 2.353 1_565 S
Tb240 O257 2.427 . S
Tb240 O258 2.513 . S
C241 O245 1.251 . S
C241 O247 1.263 . S
Tb242 O244 2.343 . S
Tb242 O247 2.353 . S
Tb242 O250 2.427 . S
Tb242 O251 2.513 . S
Tb242 O252 2.453 . S
Tb242 O253 2.596 . S
Tb242 O254 2.374 . S
O243 Tb240 2.453 . S
O243 C259 1.245 . S
O244 Tb240 2.596 1_545 S
O244 Tb242 2.343 . S
O244 C259 1.259 1_545 S
O245 Tb240 2.374 1_545 S
O245 C241 1.251 . S
C246 O250 1.275 . S
C246 O251 1.246 . S
O247 C241 1.263 . S
O247 Tb242 2.353 . S
C248 O252 1.245 . S
C248 O253 1.259 . S
C249 O254 1.250 . S
C249 O255 1.263 . S
O250 Tb242 2.427 . S
O250 C246 1.275 . S
O251 Tb242 2.513 . S
O251 C246 1.246 . S
O252 Tb242 2.453 . S
O252 C248 1.245 . S
O253 Tb240 2.343 1_545 S
O253 Tb242 2.596 . S
O253 C248 1.259 . S
O254 Tb242 2.374 . S
O254 C249 1.250 . S
O255 Tb240 2.353 1_545 S
O255 C249 1.263 . S
C256 O257 1.275 . S
C256 O258 1.246 . S
O257 Tb240 2.427 . S
O257 C256 1.275 . S
O258 Tb240 2.513 . S
O258 C256 1.246 . S
C259 O243 1.245 . S
C259 O244 1.259 1_565 S
Tb260 O263 2.453 . S
Tb260 O264 2.596 . S
Tb260 O265 2.374 . S
Tb260 O273 2.343 1_455 S
Tb260 O275 2.353 . S
Tb260 O277 2.427 . S
Tb260 O278 2.513 . S
C261 O265 1.251 . S
C261 O267 1.263 1_455 S
Tb262 O264 2.343 1_655 S
Tb262 O267 2.353 . S
Tb262 O270 2.427 . S
Tb262 O271 2.513 . S
Tb262 O272 2.453 . S
Tb262 O273 2.596 . S
Tb262 O274 2.374 . S
O263 Tb260 2.453 . S
O263 C279 1.245 . S
O264 Tb260 2.596 . S
O264 Tb262 2.343 1_455 S
O264 C279 1.259 . S
O265 Tb260 2.374 . S
O265 C261 1.251 . S
C266 O270 1.275 . S
C266 O271 1.246 . S
O267 C261 1.263 1_655 S
O267 Tb262 2.353 . S
C268 O272 1.245 . S
C268 O273 1.259 . S
C269 O274 1.250 . S
C269 O275 1.263 1_655 S
O270 Tb262 2.427 . S
O270 C266 1.275 . S
O271 Tb262 2.513 . S
O271 C266 1.246 . S
O272 Tb262 2.453 . S
O272 C268 1.245 . S
O273 Tb260 2.343 1_655 S
O273 Tb262 2.596 . S
O273 C268 1.259 . S
O274 Tb262 2.374 . S
O274 C269 1.250 . S
O275 Tb260 2.353 . S
O275 C269 1.263 1_455 S
C276 O277 1.275 . S
C276 O278 1.246 . S
O277 Tb260 2.427 . S
O277 C276 1.275 . S
O278 Tb260 2.513 . S
O278 C276 1.246 . S
C279 O263 1.245 . S
C279 O264 1.259 . S
Tb280 O283 2.453 . S
Tb280 O284 2.596 . S
Tb280 O285 2.374 . S
Tb280 O293 2.343 . S
Tb280 O295 2.353 . S
Tb280 O297 2.427 . S
Tb280 O298 2.513 . S
C281 O285 1.251 . S
C281 O287 1.275 . S
Tb282 O284 2.343 1_565 S
Tb282 O287 2.349 1_565 S
Tb282 O290 2.427 . S
Tb282 O291 2.513 . S
Tb282 O292 2.453 . S
Tb282 O293 2.596 1_565 S
Tb282 O294 2.379 . S
O283 Tb280 2.453 . S
O283 C299 1.245 . S
O284 Tb280 2.596 . S
O284 Tb282 2.343 1_545 S
O284 C299 1.259 . S
O285 Tb280 2.374 . S
O285 C281 1.251 . S
C286 O290 1.275 . S
C286 O291 1.246 . S
O287 C281 1.275 . S
O287 Tb282 2.349 1_545 S
C288 O292 1.245 . S
C288 O293 1.259 1_565 S
C289 O294 1.237 1_545 S
C289 O295 1.263 . S
O290 Tb282 2.427 . S
O290 C286 1.275 . S
O291 Tb282 2.513 . S
O291 C286 1.246 . S
O292 Tb282 2.453 . S
O292 C288 1.245 . S
O293 Tb280 2.343 . S
O293 Tb282 2.596 1_545 S
O293 C288 1.259 1_545 S
O294 Tb282 2.379 . S
O294 C289 1.237 1_565 S
O295 Tb280 2.353 . S
O295 C289 1.263 . S
C296 O297 1.275 . S
C296 O298 1.246 . S
O297 Tb280 2.427 . S
O297 C296 1.275 . S
O298 Tb280 2.513 . S
O298 C296 1.246 . S
C299 O283 1.245 . S
C299 O284 1.259 . S
Tb300 O303 2.453 . S
Tb300 O304 2.618 . S
Tb300 O305 2.374 . S
Tb300 O313 2.343 1_655 S
Tb300 O315 2.353 . S
Tb300 O317 2.427 . S
Tb300 O318 2.513 . S
C301 O305 1.251 1_455 S
C301 O307 1.263 . S
Tb302 O304 2.305 1_455 S
Tb302 O307 2.353 . S
Tb302 O310 2.427 . S
Tb302 O311 2.513 . S
Tb302 O312 2.453 . S
Tb302 O313 2.596 . S
Tb302 O314 2.374 . S
O303 Tb300 2.453 . S
O303 C319 1.245 . S
O304 Tb300 2.618 . S
O304 Tb302 2.305 1_655 S
O304 C319 1.293 . S
O305 Tb300 2.374 . S
O305 C301 1.251 1_655 S
C306 O310 1.275 . S
C306 O311 1.246 . S
O307 C301 1.263 . S
O307 Tb302 2.353 . S
C308 O312 1.245 . S
C308 O313 1.259 . S
C309 O314 1.250 . S
C309 O315 1.263 1_455 S
O310 Tb302 2.427 . S
O310 C306 1.275 . S
O311 Tb302 2.513 . S
O311 C306 1.246 . S
O312 Tb302 2.453 . S
O312 C308 1.245 . S
O313 Tb300 2.343 1_455 S
O313 Tb302 2.596 . S
O313 C308 1.259 . S
O314 Tb302 2.374 . S
O314 C309 1.250 . S
O315 Tb300 2.353 . S
O315 C309 1.263 1_655 S
C316 O317 1.275 . S
C316 O318 1.246 . S
O317 Tb300 2.427 . S
O317 C316 1.275 . S
O318 Tb300 2.513 . S
O318 C316 1.246 . S
C319 O303 1.245 . S
C319 O304 1.293 . S
Tb320 O323 2.453 . S
Tb320 O324 2.596 . S
Tb320 O325 2.374 . S
Tb320 O333 2.343 . S
Tb320 O335 2.353 . S
Tb320 O337 2.427 . S
Tb320 O338 2.513 . S
C321 O325 1.251 . S
C321 O327 1.263 1_554 S
Tb322 O324 2.343 1_556 S
Tb322 O327 2.353 . S
Tb322 O330 2.427 . S
Tb322 O331 2.513 . S
Tb322 O332 2.453 . S
Tb322 O333 2.596 1_556 S
Tb322 O334 2.374 . S
O323 Tb320 2.453 . S
O323 C339 1.245 . S
O324 Tb320 2.596 . S
O324 Tb322 2.343 1_554 S
O324 C339 1.259 . S
O325 Tb320 2.374 . S
O325 C321 1.251 . S
C326 O330 1.275 . S
C326 O331 1.246 . S
O327 C321 1.263 1_556 S
O327 Tb322 2.353 . S
C328 O332 1.245 . S
C328 O333 1.259 1_556 S
C329 O334 1.250 1_554 S
C329 O335 1.263 . S
O330 Tb322 2.427 . S
O330 C326 1.275 . S
O331 Tb322 2.513 . S
O331 C326 1.246 . S
O332 Tb322 2.453 . S
O332 C328 1.245 . S
O333 Tb320 2.343 . S
O333 Tb322 2.596 1_554 S
O333 C328 1.259 1_554 S
O334 Tb322 2.374 . S
O334 C329 1.250 1_556 S
O335 Tb320 2.353 . S
O335 C329 1.263 . S
C336 O337 1.275 . S
C336 O338 1.246 . S
O337 Tb320 2.427 . S
O337 C336 1.275 . S
O338 Tb320 2.513 . S
O338 C336 1.246 . S
C339 O323 1.245 . S
C339 O324 1.259 . S
Tb340 O343 2.453 . S
Tb340 O344 2.596 1_556 S
Tb340 O345 2.374 . S
Tb340 O353 2.343 1_556 S
Tb340 O355 2.353 . S
Tb340 O357 2.427 . S
Tb340 O358 2.513 . S
C341 O345 1.251 1_554 S
C341 O347 1.263 . S
Tb342 O344 2.343 . S
Tb342 O347 2.353 . S
Tb342 O350 2.427 . S
Tb342 O351 2.513 . S
Tb342 O352 2.453 . S
Tb342 O353 2.596 . S
Tb342 O354 2.374 . S
O343 Tb340 2.453 . S
O343 C359 1.245 . S
O344 Tb340 2.596 1_554 S
O344 Tb342 2.343 . S
O344 C359 1.259 1_554 S
O345 Tb340 2.374 . S
O345 C341 1.251 1_556 S
C346 O350 1.275 . S
C346 O351 1.246 . S
O347 C341 1.263 . S
O347 Tb342 2.353 . S
C348 O352 1.245 . S
C348 O353 1.259 . S
C349 O354 1.250 . S
C349 O355 1.263 1_554 S
O350 Tb342 2.427 . S
O350 C346 1.275 . S
O351 Tb342 2.513 . S
O351 C346 1.246 . S
O352 Tb342 2.453 . S
O352 C348 1.245 . S
O353 Tb340 2.343 1_554 S
O353 Tb342 2.596 . S
O353 C348 1.259 . S
O354 Tb342 2.374 . S
O354 C349 1.250 . S
O355 Tb340 2.353 . S
O355 C349 1.263 1_556 S
C356 O357 1.275 . S
C356 O358 1.246 . S
O357 Tb340 2.427 . S
O357 C356 1.275 . S
O358 Tb340 2.513 . S
O358 C356 1.246 . S
C359 O343 1.245 . S
C359 O344 1.259 1_556 S
Tb360 O363 2.453 . S
Tb360 O364 2.596 1_556 S
Tb360 O365 2.374 1_556 S
Tb360 O373 2.343 1_556 S
Tb360 O375 2.353 1_556 S
Tb360 O377 2.427 . S
Tb360 O378 2.513 . S
C361 O365 1.251 . S
C361 O367 1.263 . S
Tb362 O364 2.343 . S
Tb362 O367 2.353 . S
Tb362 O370 2.427 . S
Tb362 O371 2.513 . S
Tb362 O372 2.453 . S
Tb362 O373 2.596 . S
Tb362 O374 2.374 . S
O363 Tb360 2.453 . S
O363 C379 1.245 . S
O364 Tb360 2.596 1_554 S
O364 Tb362 2.343 . S
O364 C379 1.259 1_554 S
O365 Tb360 2.374 1_554 S
O365 C361 1.251 . S
C366 O370 1.275 . S
C366 O371 1.246 . S
O367 C361 1.263 . S
O367 Tb362 2.353 . S
C368 O372 1.245 . S
C368 O373 1.259 . S
C369 O374 1.250 . S
C369 O375 1.263 . S
O370 Tb362 2.427 . S
O370 C366 1.275 . S
O371 Tb362 2.513 . S
O371 C366 1.246 . S
O372 Tb362 2.453 . S
O372 C368 1.245 . S
O373 Tb360 2.343 1_554 S
O373 Tb362 2.596 . S
O373 C368 1.259 . S
O374 Tb362 2.374 . S
O374 C369 1.250 . S
O375 Tb360 2.353 1_554 S
O375 C369 1.263 . S
C376 O377 1.275 . S
C376 O378 1.246 . S
O377 Tb360 2.427 . S
O377 C376 1.275 . S
O378 Tb360 2.513 . S
O378 C376 1.246 . S
C379 O363 1.245 . S
C379 O364 1.259 1_556 S
Tb380 O383 2.453 . S
Tb380 O384 2.596 1_556 S
Tb380 O385 2.373 . S
Tb380 O393 2.343 1_556 S
Tb380 O395 2.353 . S
Tb380 O397 2.427 . S
Tb380 O398 2.513 . S
C381 O385 1.252 1_554 S
C381 O387 1.263 . S
Tb382 O384 2.343 . S
Tb382 O387 2.353 . S
Tb382 O390 2.427 . S
Tb382 O391 2.513 . S
Tb382 O392 2.453 . S
Tb382 O393 2.596 . S
Tb382 O394 2.374 . S
O383 Tb380 2.453 . S
O383 C399 1.245 . S
O384 Tb380 2.596 1_554 S
O384 Tb382 2.343 . S
O384 C399 1.259 1_554 S
O385 Tb380 2.373 . S
O385 C381 1.252 1_556 S
C386 O390 1.275 . S
C386 O391 1.246 . S
O387 C381 1.263 . S
O387 Tb382 2.353 . S
C388 O392 1.245 . S
C388 O393 1.259 . S
C389 O394 1.250 . S
C389 O395 1.265 1_554 S
O390 Tb382 2.427 . S
O390 C386 1.275 . S
O391 Tb382 2.513 . S
O391 C386 1.246 . S
O392 Tb382 2.453 . S
O392 C388 1.245 . S
O393 Tb380 2.343 1_554 S
O393 Tb382 2.596 . S
O393 C388 1.259 . S
O394 Tb382 2.374 . S
O394 C389 1.250 . S
O395 Tb380 2.353 . S
O395 C389 1.265 1_556 S
C396 O397 1.275 . S
C396 O398 1.246 . S
O397 Tb380 2.427 . S
O397 C396 1.275 . S
O398 Tb380 2.513 . S
O398 C396 1.246 . S
C399 O383 1.245 . S
C399 O384 1.259 1_556 S
Tb400 O403 2.453 . S
Tb400 O404 2.596 1_556 S
Tb400 O405 2.374 1_556 S
Tb400 O413 2.343 1_556 S
Tb400 O415 2.353 1_556 S
Tb400 O417 2.427 . S
Tb400 O418 2.513 . S
C401 O405 1.251 . S
C401 O407 1.263 . S
Tb402 O404 2.343 . S
Tb402 O407 2.353 . S
Tb402 O410 2.427 . S
Tb402 O411 2.513 . S
Tb402 O412 2.453 . S
Tb402 O413 2.596 . S
Tb402 O414 2.374 . S
O403 Tb400 2.453 . S
O403 C419 1.245 . S
O404 Tb400 2.596 1_554 S
O404 Tb402 2.343 . S
O404 C419 1.259 1_554 S
O405 Tb400 2.374 1_554 S
O405 C401 1.251 . S
C406 O410 1.275 . S
C406 O411 1.246 . S
O407 C401 1.263 . S
O407 Tb402 2.353 . S
C408 O412 1.245 . S
C408 O413 1.259 . S
C409 O414 1.250 . S
C409 O415 1.263 . S
O410 Tb402 2.427 . S
O410 C406 1.275 . S
O411 Tb402 2.513 . S
O411 C406 1.246 . S
O412 Tb402 2.453 . S
O412 C408 1.245 . S
O413 Tb400 2.343 1_554 S
O413 Tb402 2.596 . S
O413 C408 1.259 . S
O414 Tb402 2.374 . S
O414 C409 1.250 . S
O415 Tb400 2.353 1_554 S
O415 C409 1.263 . S
C416 O417 1.275 . S
C416 O418 1.246 . S
O417 Tb400 2.427 . S
O417 C416 1.275 . S
O418 Tb400 2.513 . S
O418 C416 1.246 . S
C419 O403 1.245 . S
C419 O404 1.259 1_556 S
Tb420 O423 2.453 . S
Tb420 O424 2.596 . S
Tb420 O425 2.374 . S
Tb420 O433 2.343 1_554 S
Tb420 O435 2.353 . S
Tb420 O437 2.427 . S
Tb420 O438 2.513 . S
C421 O425 1.251 . S
C421 O427 1.263 1_554 S
Tb422 O424 2.343 1_556 S
Tb422 O427 2.353 . S
Tb422 O430 2.427 . S
Tb422 O431 2.513 . S
Tb422 O432 2.453 . S
Tb422 O433 2.596 . S
Tb422 O434 2.374 . S
O423 Tb420 2.453 . S
O423 C439 1.245 . S
O424 Tb420 2.596 . S
O424 Tb422 2.343 1_554 S
O424 C439 1.259 . S
O425 Tb420 2.374 . S
O425 C421 1.251 . S
C426 O430 1.275 . S
C426 O431 1.246 . S
O427 C421 1.263 1_556 S
O427 Tb422 2.353 . S
C428 O432 1.245 . S
C428 O433 1.259 . S
C429 O434 1.250 1_554 S
C429 O435 1.263 . S
O430 Tb422 2.427 . S
O430 C426 1.275 . S
O431 Tb422 2.513 . S
O431 C426 1.246 . S
O432 Tb422 2.453 . S
O432 C428 1.245 . S
O433 Tb420 2.343 1_556 S
O433 Tb422 2.596 . S
O433 C428 1.259 . S
O434 Tb422 2.374 . S
O434 C429 1.250 1_556 S
O435 Tb420 2.353 . S
O435 C429 1.263 . S
C436 O437 1.275 . S
C436 O438 1.246 . S
O437 Tb420 2.427 . S
O437 C436 1.275 . S
O438 Tb420 2.513 . S
O438 C436 1.246 . S
C439 O423 1.245 . S
C439 O424 1.259 . S
Tb440 O443 2.453 . S
Tb440 O444 2.596 . S
Tb440 O445 2.374 . S
Tb440 O453 2.343 . S
Tb440 O455 2.353 . S
Tb440 O457 2.427 . S
Tb440 O458 2.513 . S
C441 O445 1.251 . S
C441 O447 1.263 1_554 S
Tb442 O444 2.343 1_556 S
Tb442 O447 2.353 . S
Tb442 O450 2.427 . S
Tb442 O451 2.513 . S
Tb442 O452 2.453 . S
Tb442 O453 2.596 1_556 S
Tb442 O454 2.374 . S
O443 Tb440 2.453 . S
O443 C459 1.245 . S
O444 Tb440 2.596 . S
O444 Tb442 2.343 1_554 S
O444 C459 1.259 . S
O445 Tb440 2.374 . S
O445 C441 1.251 . S
C446 O450 1.275 . S
C446 O451 1.246 . S
O447 C441 1.263 1_556 S
O447 Tb442 2.353 . S
C448 O452 1.245 . S
C448 O453 1.259 1_556 S
C449 O454 1.250 1_554 S
C449 O455 1.263 . S
O450 Tb442 2.427 . S
O450 C446 1.275 . S
O451 Tb442 2.513 . S
O451 C446 1.246 . S
O452 Tb442 2.453 . S
O452 C448 1.245 . S
O453 Tb440 2.343 . S
O453 Tb442 2.596 1_554 S
O453 C448 1.259 1_554 S
O454 Tb442 2.374 . S
O454 C449 1.250 1_556 S
O455 Tb440 2.353 . S
O455 C449 1.263 . S
C456 O457 1.275 . S
C456 O458 1.246 . S
O457 Tb440 2.427 . S
O457 C456 1.275 . S
O458 Tb440 2.513 . S
O458 C456 1.246 . S
C459 O443 1.245 . S
C459 O444 1.259 . S
Tb460 O463 2.453 . S
Tb460 O464 2.596 . S
Tb460 O465 2.374 . S
Tb460 O473 2.343 1_554 S
Tb460 O475 2.353 . S
Tb460 O477 2.427 . S
Tb460 O478 2.513 . S
C461 O465 1.251 . S
C461 O467 1.263 1_554 S
Tb462 O464 2.343 1_556 S
Tb462 O467 2.353 . S
Tb462 O470 2.427 . S
Tb462 O471 2.513 . S
Tb462 O472 2.453 . S
Tb462 O473 2.596 . S
Tb462 O474 2.374 . S
O463 Tb460 2.453 . S
O463 C479 1.245 . S
O464 Tb460 2.596 . S
O464 Tb462 2.343 1_554 S
O464 C479 1.259 . S
O465 Tb460 2.374 . S
O465 C461 1.251 . S
C466 O470 1.275 . S
C466 O471 1.246 . S
O467 C461 1.263 1_556 S
O467 Tb462 2.353 . S
C468 O472 1.245 . S
C468 O473 1.259 . S
C469 O474 1.250 1_554 S
C469 O475 1.263 . S
O470 Tb462 2.427 . S
O470 C466 1.275 . S
O471 Tb462 2.513 . S
O471 C466 1.246 . S
O472 Tb462 2.453 . S
O472 C468 1.245 . S
O473 Tb460 2.343 1_556 S
O473 Tb462 2.596 . S
O473 C468 1.259 . S
O474 Tb462 2.374 . S
O474 C469 1.250 1_556 S
O475 Tb460 2.353 . S
O475 C469 1.263 . S
C476 O477 1.275 . S
C476 O478 1.246 . S
O477 Tb460 2.427 . S
O477 C476 1.275 . S
O478 Tb460 2.513 . S
O478 C476 1.246 . S
C479 O463 1.245 . S
C479 O464 1.259 . S
Tb480 O483 2.453 . S
Tb480 O484 2.596 . S
Tb480 O485 2.374 . S
Tb480 O493 2.343 . S
Tb480 O495 2.353 . S
Tb480 O497 2.427 . S
Tb480 O498 2.513 . S
C481 O485 1.251 . S
C481 O487 1.263 . S
Tb482 O484 2.343 . S
Tb482 O487 2.353 . S
Tb482 O490 2.427 . S
Tb482 O491 2.513 . S
Tb482 O492 2.453 . S
Tb482 O493 2.596 . S
Tb482 O494 2.374 . S
O483 Tb480 2.453 . S
O483 C499 1.245 . S
O484 Tb480 2.596 . S
O484 Tb482 2.343 . S
O484 C499 1.259 . S
O485 Tb480 2.374 . S
O485 C481 1.251 . S
C486 O490 1.275 . S
C486 O491 1.246 . S
O487 C481 1.263 . S
O487 Tb482 2.353 . S
C488 O492 1.245 . S
C488 O493 1.259 . S
C489 O494 1.250 . S
C489 O495 1.263 . S
O490 Tb482 2.427 . S
O490 C486 1.275 . S
O491 Tb482 2.513 . S
O491 C486 1.246 . S
O492 Tb482 2.453 . S
O492 C488 1.245 . S
O493 Tb480 2.343 . S
O493 Tb482 2.596 . S
O493 C488 1.259 . S
O494 Tb482 2.374 . S
O494 C489 1.250 . S
O495 Tb480 2.353 . S
O495 C489 1.263 . S
C496 O497 1.275 . S
C496 O498 1.246 . S
O497 Tb480 2.427 . S
O497 C496 1.275 . S
O498 Tb480 2.513 . S
O498 C496 1.246 . S
C499 O483 1.245 . S
C499 O484 1.259 . S
Tb500 O503 2.453 . S
Tb500 O504 2.596 . S
Tb500 O505 2.374 . S
Tb500 O513 2.343 . S
Tb500 O515 2.353 . S
Tb500 O517 2.427 . S
Tb500 O518 2.513 . S
C501 O505 1.251 . S
C501 O507 1.263 . S
Tb502 O504 2.343 . S
Tb502 O507 2.353 . S
Tb502 O510 2.427 . S
Tb502 O511 2.513 . S
Tb502 O512 2.453 . S
Tb502 O513 2.596 . S
Tb502 O514 2.374 . S
O503 Tb500 2.453 . S
O503 C519 1.245 . S
O504 Tb500 2.596 . S
O504 Tb502 2.343 . S
O504 C519 1.259 . S
O505 Tb500 2.374 . S
O505 C501 1.251 . S
C506 O510 1.275 . S
C506 O511 1.246 . S
O507 C501 1.263 . S
O507 Tb502 2.353 . S
C508 O512 1.245 . S
C508 O513 1.259 . S
C509 O514 1.250 . S
C509 O515 1.263 . S
O510 Tb502 2.427 . S
O510 C506 1.275 . S
O511 Tb502 2.513 . S
O511 C506 1.246 . S
O512 Tb502 2.453 . S
O512 C508 1.245 . S
O513 Tb500 2.343 . S
O513 Tb502 2.596 . S
O513 C508 1.259 . S
O514 Tb502 2.374 . S
O514 C509 1.250 . S
O515 Tb500 2.353 . S
O515 C509 1.263 . S
C516 O517 1.275 . S
C516 O518 1.246 . S
O517 Tb500 2.427 . S
O517 C516 1.275 . S
O518 Tb500 2.513 . S
O518 C516 1.246 . S
C519 O503 1.245 . S
C519 O504 1.259 . S
Tb520 O523 2.453 . S
Tb520 O524 2.596 . S
Tb520 O525 2.374 . S
Tb520 O533 2.343 . S
Tb520 O535 2.353 . S
Tb520 O537 2.427 . S
Tb520 O538 2.513 . S
C521 O525 1.251 . S
C521 O527 1.263 . S
Tb522 O524 2.343 . S
Tb522 O527 2.353 . S
Tb522 O530 2.427 . S
Tb522 O531 2.513 . S
Tb522 O532 2.453 . S
Tb522 O533 2.596 . S
Tb522 O534 2.374 . S
O523 Tb520 2.453 . S
O523 C539 1.245 . S
O524 Tb520 2.596 . S
O524 Tb522 2.343 . S
O524 C539 1.259 . S
O525 Tb520 2.374 . S
O525 C521 1.251 . S
C526 O530 1.275 . S
C526 O531 1.246 . S
O527 C521 1.263 . S
O527 Tb522 2.353 . S
C528 O532 1.245 . S
C528 O533 1.259 . S
C529 O534 1.250 . S
C529 O535 1.263 . S
O530 Tb522 2.427 . S
O530 C526 1.275 . S
O531 Tb522 2.513 . S
O531 C526 1.246 . S
O532 Tb522 2.453 . S
O532 C528 1.245 . S
O533 Tb520 2.343 . S
O533 Tb522 2.596 . S
O533 C528 1.259 . S
O534 Tb522 2.374 . S
O534 C529 1.250 . S
O535 Tb520 2.353 . S
O535 C529 1.263 . S
C536 O537 1.275 . S
C536 O538 1.246 . S
O537 Tb520 2.427 . S
O537 C536 1.275 . S
O538 Tb520 2.513 . S
O538 C536 1.246 . S
C539 O523 1.245 . S
C539 O524 1.259 . S
Tb540 O543 2.453 . S
Tb540 O544 2.596 . S
Tb540 O545 2.374 . S
Tb540 O553 2.343 . S
Tb540 O555 2.353 . S
Tb540 O557 2.427 . S
Tb540 O558 2.513 . S
C541 O545 1.251 . S
C541 O547 1.263 . S
Tb542 O544 2.343 . S
Tb542 O547 2.353 . S
Tb542 O550 2.427 . S
Tb542 O551 2.513 . S
Tb542 O552 2.453 . S
Tb542 O553 2.596 . S
Tb542 O554 2.374 . S
O543 Tb540 2.453 . S
O543 C559 1.245 . S
O544 Tb540 2.596 . S
O544 Tb542 2.343 . S
O544 C559 1.259 . S
O545 Tb540 2.374 . S
O545 C541 1.251 . S
C546 O550 1.275 . S
C546 O551 1.246 . S
O547 C541 1.263 . S
O547 Tb542 2.353 . S
C548 O552 1.245 . S
C548 O553 1.259 . S
C549 O554 1.250 . S
C549 O555 1.263 . S
O550 Tb542 2.427 . S
O550 C546 1.275 . S
O551 Tb542 2.513 . S
O551 C546 1.246 . S
O552 Tb542 2.453 . S
O552 C548 1.245 . S
O553 Tb540 2.343 . S
O553 Tb542 2.596 . S
O553 C548 1.259 . S
O554 Tb542 2.374 . S
O554 C549 1.250 . S
O555 Tb540 2.353 . S
O555 C549 1.263 . S
C556 O557 1.275 . S
C556 O558 1.246 . S
O557 Tb540 2.427 . S
O557 C556 1.275 . S
O558 Tb540 2.513 . S
O558 C556 1.246 . S
C559 O543 1.245 . S
C559 O544 1.259 . S
Tb560 O563 2.453 . S
Tb560 O564 2.596 . S
Tb560 O565 2.374 . S
Tb560 O573 2.343 . S
Tb560 O575 2.353 . S
Tb560 O577 2.427 . S
Tb560 O578 2.513 . S
C561 O565 1.251 . S
C561 O567 1.263 . S
Tb562 O564 2.343 . S
Tb562 O567 2.353 . S
Tb562 O570 2.427 . S
Tb562 O571 2.513 . S
Tb562 O572 2.453 . S
Tb562 O573 2.596 . S
Tb562 O574 2.374 . S
O563 Tb560 2.453 . S
O563 C579 1.245 . S
O564 Tb560 2.596 . S
O564 Tb562 2.343 . S
O564 C579 1.259 . S
O565 Tb560 2.374 . S
O565 C561 1.251 . S
C566 O570 1.275 . S
C566 O571 1.246 . S
O567 C561 1.263 . S
O567 Tb562 2.353 . S
C568 O572 1.245 . S
C568 O573 1.259 . S
C569 O574 1.250 . S
C569 O575 1.263 . S
O570 Tb562 2.427 . S
O570 C566 1.275 . S
O571 Tb562 2.513 . S
O571 C566 1.246 . S
O572 Tb562 2.453 . S
O572 C568 1.245 . S
O573 Tb560 2.343 . S
O573 Tb562 2.596 . S
O573 C568 1.259 . S
O574 Tb562 2.374 . S
O574 C569 1.250 . S
O575 Tb560 2.353 . S
O575 C569 1.263 . S
C576 O577 1.275 . S
C576 O578 1.246 . S
O577 Tb560 2.427 . S
O577 C576 1.275 . S
O578 Tb560 2.513 . S
O578 C576 1.246 . S
C579 O563 1.245 . S
C579 O564 1.259 . S
Tb580 O583 2.453 . S
Tb580 O584 2.596 . S
Tb580 O585 2.374 . S
Tb580 O593 2.343 . S
Tb580 O595 2.353 . S
Tb580 O597 2.427 . S
Tb580 O598 2.513 . S
C581 O585 1.251 . S
C581 O587 1.263 . S
Tb582 O584 2.343 . S
Tb582 O587 2.353 . S
Tb582 O590 2.427 . S
Tb582 O591 2.513 . S
Tb582 O592 2.453 . S
Tb582 O593 2.596 . S
Tb582 O594 2.374 . S
O583 Tb580 2.453 . S
O583 C599 1.245 . S
O584 Tb580 2.596 . S
O584 Tb582 2.343 . S
O584 C599 1.259 . S
O585 Tb580 2.374 . S
O585 C581 1.251 . S
C586 O590 1.275 . S
C586 O591 1.246 . S
O587 C581 1.263 . S
O587 Tb582 2.353 . S
C588 O592 1.245 . S
C588 O593 1.259 . S
C589 O594 1.250 . S
C589 O595 1.263 . S
O590 Tb582 2.427 . S
O590 C586 1.275 . S
O591 Tb582 2.513 . S
O591 C586 1.246 . S
O592 Tb582 2.453 . S
O592 C588 1.245 . S
O593 Tb580 2.343 . S
O593 Tb582 2.596 . S
O593 C588 1.259 . S
O594 Tb582 2.374 . S
O594 C589 1.250 . S
O595 Tb580 2.353 . S
O595 C589 1.263 . S
C596 O597 1.275 . S
C596 O598 1.246 . S
O597 Tb580 2.427 . S
O597 C596 1.275 . S
O598 Tb580 2.513 . S
O598 C596 1.246 . S
C599 O583 1.245 . S
C599 O584 1.259 . S
Tb600 O603 2.453 . S
Tb600 O604 2.596 . S
Tb600 O605 2.374 . S
Tb600 O613 2.343 . S
Tb600 O615 2.353 . S
Tb600 O617 2.427 . S
Tb600 O618 2.513 . S
C601 O605 1.251 . S
C601 O607 1.263 . S
Tb602 O604 2.343 . S
Tb602 O607 2.353 . S
Tb602 O610 2.427 . S
Tb602 O611 2.513 . S
Tb602 O612 2.453 . S
Tb602 O613 2.596 . S
Tb602 O614 2.374 . S
O603 Tb600 2.453 . S
O603 C619 1.245 . S
O604 Tb600 2.596 . S
O604 Tb602 2.343 . S
O604 C619 1.259 . S
O605 Tb600 2.374 . S
O605 C601 1.251 . S
C606 O610 1.275 . S
C606 O611 1.246 . S
O607 C601 1.263 . S
O607 Tb602 2.353 . S
C608 O612 1.245 . S
C608 O613 1.259 . S
C609 O614 1.250 . S
C609 O615 1.263 . S
O610 Tb602 2.427 . S
O610 C606 1.275 . S
O611 Tb602 2.513 . S
O611 C606 1.246 . S
O612 Tb602 2.453 . S
O612 C608 1.245 . S
O613 Tb600 2.343 . S
O613 Tb602 2.596 . S
O613 C608 1.259 . S
O614 Tb602 2.374 . S
O614 C609 1.250 . S
O615 Tb600 2.353 . S
O615 C609 1.263 . S
C616 O617 1.275 . S
C616 O618 1.246 . S
O617 Tb600 2.427 . S
O617 C616 1.275 . S
O618 Tb600 2.513 . S
O618 C616 1.246 . S
C619 O603 1.245 . S
C619 O604 1.259 . S
Tb620 O623 2.453 . S
Tb620 O624 2.596 . S
Tb620 O625 2.374 . S
Tb620 O633 2.343 . S
Tb620 O635 2.353 . S
Tb620 O637 2.427 . S
Tb620 O638 2.513 . S
C621 O625 1.251 . S
C621 O627 1.263 . S
Tb622 O624 2.343 . S
Tb622 O627 2.353 . S
Tb622 O630 2.427 . S
Tb622 O631 2.513 . S
Tb622 O632 2.453 . S
Tb622 O633 2.596 . S
Tb622 O634 2.374 . S
O623 Tb620 2.453 . S
O623 C639 1.245 . S
O624 Tb620 2.596 . S
O624 Tb622 2.343 . S
O624 C639 1.259 . S
O625 Tb620 2.374 . S
O625 C621 1.251 . S
C626 O630 1.275 . S
C626 O631 1.246 . S
O627 C621 1.263 . S
O627 Tb622 2.353 . S
C628 O632 1.245 . S
C628 O633 1.259 . S
C629 O634 1.250 . S
C629 O635 1.263 . S
O630 Tb622 2.427 . S
O630 C626 1.275 . S
O631 Tb622 2.513 . S
O631 C626 1.246 . S
O632 Tb622 2.453 . S
O632 C628 1.245 . S
O633 Tb620 2.343 . S
O633 Tb622 2.596 . S
O633 C628 1.259 . S
O634 Tb622 2.374 . S
O634 C629 1.250 . S
O635 Tb620 2.353 . S
O635 C629 1.263 . S
C636 O637 1.275 . S
C636 O638 1.246 . S
O637 Tb620 2.427 . S
O637 C636 1.275 . S
O638 Tb620 2.513 . S
O638 C636 1.246 . S
C639 O623 1.245 . S
C639 O624 1.259 . S
Tb640 O643 2.453 . S
Tb640 O644 2.596 . S
Tb640 O645 2.374 . S
Tb640 O653 2.343 . S
Tb640 O655 2.353 . S
Tb640 O657 2.427 . S
Tb640 O658 2.513 . S
C641 O645 1.251 . S
C641 O647 1.263 . S
Tb642 O644 2.343 . S
Tb642 O647 2.353 . S
Tb642 O650 2.427 . S
Tb642 O651 2.513 . S
Tb642 O652 2.453 . S
Tb642 O653 2.596 . S
Tb642 O654 2.374 . S
O643 Tb640 2.453 . S
O643 C659 1.245 . S
O644 Tb640 2.596 . S
O644 Tb642 2.343 . S
O644 C659 1.259 . S
O645 Tb640 2.374 . S
O645 C641 1.251 . S
C646 O650 1.275 . S
C646 O651 1.246 . S
O647 C641 1.263 . S
O647 Tb642 2.353 . S
C648 O652 1.245 . S
C648 O653 1.259 . S
C649 O654 1.250 . S
C649 O655 1.263 . S
O650 Tb642 2.427 . S
O650 C646 1.275 . S
O651 Tb642 2.513 . S
O651 C646 1.246 . S
O652 Tb642 2.453 . S
O652 C648 1.245 . S
O653 Tb640 2.343 . S
O653 Tb642 2.596 . S
O653 C648 1.259 . S
O654 Tb642 2.374 . S
O654 C649 1.250 . S
O655 Tb640 2.353 . S
O655 C649 1.263 . S
C656 O657 1.275 . S
C656 O658 1.246 . S
O657 Tb640 2.427 . S
O657 C656 1.275 . S
O658 Tb640 2.513 . S
O658 C656 1.246 . S
C659 O643 1.245 . S
C659 O644 1.259 . S
Tb660 O663 2.453 . S
Tb660 O664 2.596 . S
Tb660 O665 2.374 . S
Tb660 O673 2.343 . S
Tb660 O675 2.353 . S
Tb660 O677 2.427 . S
Tb660 O678 2.513 . S
C661 O665 1.251 . S
C661 O667 1.263 . S
Tb662 O664 2.343 . S
Tb662 O667 2.353 . S
Tb662 O670 2.427 . S
Tb662 O671 2.513 . S
Tb662 O672 2.453 . S
Tb662 O673 2.596 . S
Tb662 O674 2.374 . S
O663 Tb660 2.453 . S
O663 C679 1.245 . S
O664 Tb660 2.596 . S
O664 Tb662 2.343 . S
O664 C679 1.259 . S
O665 Tb660 2.374 . S
O665 C661 1.251 . S
C666 O670 1.275 . S
C666 O671 1.246 . S
O667 C661 1.263 . S
O667 Tb662 2.353 . S
C668 O672 1.245 . S
C668 O673 1.259 . S
C669 O674 1.250 . S
C669 O675 1.263 . S
O670 Tb662 2.427 . S
O670 C666 1.275 . S
O671 Tb662 2.513 . S
O671 C666 1.246 . S
O672 Tb662 2.453 . S
O672 C668 1.245 . S
O673 Tb660 2.343 . S
O673 Tb662 2.596 . S
O673 C668 1.259 . S
O674 Tb662 2.374 . S
O674 C669 1.250 . S
O675 Tb660 2.353 . S
O675 C669 1.263 . S
C676 O677 1.275 . S
C676 O678 1.246 . S
O677 Tb660 2.427 . S
O677 C676 1.275 . S
O678 Tb660 2.513 . S
O678 C676 1.246 . S
C679 O663 1.245 . S
C679 O664 1.259 . S
Tb680 O683 2.453 . S
Tb680 O684 2.596 . S
Tb680 O685 2.374 . S
Tb680 O693 2.343 . S
Tb680 O695 2.353 . S
Tb680 O697 2.427 . S
Tb680 O698 2.513 . S
C681 O685 1.251 . S
C681 O687 1.263 . S
Tb682 O684 2.343 . S
Tb682 O687 2.353 . S
Tb682 O690 2.427 . S
Tb682 O691 2.513 . S
Tb682 O692 2.453 . S
Tb682 O693 2.596 . S
Tb682 O694 2.374 . S
O683 Tb680 2.453 . S
O683 C699 1.245 . S
O684 Tb680 2.596 . S
O684 Tb682 2.343 . S
O684 C699 1.259 . S
O685 Tb680 2.374 . S
O685 C681 1.251 . S
C686 O690 1.275 . S
C686 O691 1.246 . S
O687 C681 1.263 . S
O687 Tb682 2.353 . S
C688 O692 1.245 . S
C688 O693 1.259 . S
C689 O694 1.250 . S
C689 O695 1.263 . S
O690 Tb682 2.427 . S
O690 C686 1.275 . S
O691 Tb682 2.513 . S
O691 C686 1.246 . S
O692 Tb682 2.453 . S
O692 C688 1.245 . S
O693 Tb680 2.343 . S
O693 Tb682 2.596 . S
O693 C688 1.259 . S
O694 Tb682 2.374 . S
O694 C689 1.250 . S
O695 Tb680 2.353 . S
O695 C689 1.263 . S
C696 O697 1.275 . S
C696 O698 1.246 . S
O697 Tb680 2.427 . S
O697 C696 1.275 . S
O698 Tb680 2.513 . S
O698 C696 1.246 . S
C699 O683 1.245 . S
C699 O684 1.259 . S
Tb700 O703 2.453 . S
Tb700 O704 2.596 . S
Tb700 O705 2.374 . S
Tb700 O713 2.343 . S
Tb700 O715 2.353 . S
Tb700 O717 2.427 . S
Tb700 O718 2.513 . S
C701 O705 1.251 . S
C701 O707 1.263 . S
Tb702 O704 2.343 . S
Tb702 O707 2.353 . S
Tb702 O710 2.427 . S
Tb702 O711 2.513 . S
Tb702 O712 2.453 . S
Tb702 O713 2.596 . S
Tb702 O714 2.374 . S
O703 Tb700 2.453 . S
O703 C719 1.245 . S
O704 Tb700 2.596 . S
O704 Tb702 2.343 . S
O704 C719 1.259 . S
O705 Tb700 2.374 . S
O705 C701 1.251 . S
C706 O710 1.275 . S
C706 O711 1.246 . S
O707 C701 1.263 . S
O707 Tb702 2.353 . S
C708 O712 1.245 . S
C708 O713 1.259 . S
C709 O714 1.250 . S
C709 O715 1.263 . S
O710 Tb702 2.427 . S
O710 C706 1.275 . S
O711 Tb702 2.513 . S
O711 C706 1.246 . S
O712 Tb702 2.453 . S
O712 C708 1.245 . S
O713 Tb700 2.343 . S
O713 Tb702 2.596 . S
O713 C708 1.259 . S
O714 Tb702 2.374 . S
O714 C709 1.250 . S
O715 Tb700 2.353 . S
O715 C709 1.263 . S
C716 O717 1.275 . S
C716 O718 1.246 . S
O717 Tb700 2.427 . S
O717 C716 1.275 . S
O718 Tb700 2.513 . S
O718 C716 1.246 . S
C719 O703 1.245 . S
C719 O704 1.259 . S
Tb720 O723 2.453 . S
Tb720 O724 2.596 . S
Tb720 O725 2.374 . S
Tb720 O733 2.343 . S
Tb720 O735 2.353 . S
Tb720 O737 2.427 . S
Tb720 O738 2.513 . S
C721 O725 1.251 . S
C721 O727 1.263 . S
Tb722 O724 2.343 . S
Tb722 O727 2.353 . S
Tb722 O730 2.427 . S
Tb722 O731 2.513 . S
Tb722 O732 2.453 . S
Tb722 O733 2.596 . S
Tb722 O734 2.374 . S
O723 Tb720 2.453 . S
O723 C739 1.245 . S
O724 Tb720 2.596 . S
O724 Tb722 2.343 . S
O724 C739 1.259 . S
O725 Tb720 2.374 . S
O725 C721 1.251 . S
C726 O730 1.275 . S
C726 O731 1.246 . S
O727 C721 1.263 . S
O727 Tb722 2.353 . S
C728 O732 1.245 . S
C728 O733 1.259 . S
C729 O734 1.250 . S
C729 O735 1.263 . S
O730 Tb722 2.427 . S
O730 C726 1.275 . S
O731 Tb722 2.513 . S
O731 C726 1.246 . S
O732 Tb722 2.453 . S
O732 C728 1.245 . S
O733 Tb720 2.343 . S
O733 Tb722 2.596 . S
O733 C728 1.259 . S
O734 Tb722 2.374 . S
O734 C729 1.250 . S
O735 Tb720 2.353 . S
O735 C729 1.263 . S
C736 O737 1.275 . S
C736 O738 1.246 . S
O737 Tb720 2.427 . S
O737 C736 1.275 . S
O738 Tb720 2.513 . S
O738 C736 1.246 . S
C739 O723 1.245 . S
C739 O724 1.259 . S
Tb740 O743 2.453 . S
Tb740 O744 2.596 . S
Tb740 O745 2.374 . S
Tb740 O753 2.343 . S
Tb740 O755 2.353 . S
Tb740 O757 2.427 . S
Tb740 O758 2.513 . S
C741 O745 1.251 . S
C741 O747 1.263 . S
Tb742 O744 2.343 . S
Tb742 O747 2.353 . S
Tb742 O750 2.427 . S
Tb742 O751 2.513 . S
Tb742 O752 2.453 . S
Tb742 O753 2.596 . S
Tb742 O754 2.374 . S
O743 Tb740 2.453 . S
O743 C759 1.245 . S
O744 Tb740 2.596 . S
O744 Tb742 2.343 . S
O744 C759 1.259 . S
O745 Tb740 2.374 . S
O745 C741 1.251 . S
C746 O750 1.275 . S
C746 O751 1.246 . S
O747 C741 1.263 . S
O747 Tb742 2.353 . S
C748 O752 1.245 . S
C748 O753 1.259 . S
C749 O754 1.250 . S
C749 O755 1.263 . S
O750 Tb742 2.427 . S
O750 C746 1.275 . S
O751 Tb742 2.513 . S
O751 C746 1.246 . S
O752 Tb742 2.453 . S
O752 C748 1.245 . S
O753 Tb740 2.343 . S
O753 Tb742 2.596 . S
O753 C748 1.259 . S
O754 Tb742 2.374 . S
O754 C749 1.250 . S
O755 Tb740 2.353 . S
O755 C749 1.263 . S
C756 O757 1.275 . S
C756 O758 1.246 . S
O757 Tb740 2.427 . S
O757 C756 1.275 . S
O758 Tb740 2.513 . S
O758 C756 1.246 . S
C759 O743 1.245 . S
C759 O744 1.259 . S
Tb760 O763 2.453 . S
Tb760 O764 2.596 . S
Tb760 O765 2.374 . S
Tb760 O773 2.343 . S
Tb760 O775 2.353 . S
Tb760 O777 2.427 . S
Tb760 O778 2.513 . S
C761 O765 1.251 . S
C761 O767 1.263 . S
Tb762 O764 2.343 . S
Tb762 O767 2.353 . S
Tb762 O770 2.427 . S
Tb762 O771 2.513 . S
Tb762 O772 2.453 . S
Tb762 O773 2.596 . S
Tb762 O774 2.374 . S
O763 Tb760 2.453 . S
O763 C779 1.245 . S
O764 Tb760 2.596 . S
O764 Tb762 2.343 . S
O764 C779 1.259 . S
O765 Tb760 2.374 . S
O765 C761 1.251 . S
C766 O770 1.275 . S
C766 O771 1.246 . S
O767 C761 1.263 . S
O767 Tb762 2.353 . S
C768 O772 1.245 . S
C768 O773 1.259 . S
C769 O774 1.250 . S
C769 O775 1.263 . S
O770 Tb762 2.427 . S
O770 C766 1.275 . S
O771 Tb762 2.513 . S
O771 C766 1.246 . S
O772 Tb762 2.453 . S
O772 C768 1.245 . S
O773 Tb760 2.343 . S
O773 Tb762 2.596 . S
O773 C768 1.259 . S
O774 Tb762 2.374 . S
O774 C769 1.250 . S
O775 Tb760 2.353 . S
O775 C769 1.263 . S
C776 O777 1.275 . S
C776 O778 1.246 . S
O777 Tb760 2.427 . S
O777 C776 1.275 . S
O778 Tb760 2.513 . S
O778 C776 1.246 . S
C779 O763 1.245 . S
C779 O764 1.259 . S
Tb780 O783 2.453 . S
Tb780 O784 2.596 . S
Tb780 O785 2.374 . S
Tb780 O793 2.343 . S
Tb780 O795 2.353 . S
Tb780 O797 2.427 . S
Tb780 O798 2.513 . S
C781 O785 1.251 . S
C781 O787 1.263 . S
Tb782 O784 2.343 . S
Tb782 O787 2.353 . S
Tb782 O790 2.427 . S
Tb782 O791 2.513 . S
Tb782 O792 2.453 . S
Tb782 O793 2.596 . S
Tb782 O794 2.374 . S
O783 Tb780 2.453 . S
O783 C799 1.245 . S
O784 Tb780 2.596 . S
O784 Tb782 2.343 . S
O784 C799 1.259 . S
O785 Tb780 2.374 . S
O785 C781 1.251 . S
C786 O790 1.275 . S
C786 O791 1.246 . S
O787 C781 1.263 . S
O787 Tb782 2.353 . S
C788 O792 1.245 . S
C788 O793 1.259 . S
C789 O794 1.250 . S
C789 O795 1.263 . S
O790 Tb782 2.427 . S
O790 C786 1.275 . S
O791 Tb782 2.513 . S
O791 C786 1.246 . S
O792 Tb782 2.453 . S
O792 C788 1.245 . S
O793 Tb780 2.343 . S
O793 Tb782 2.596 . S
O793 C788 1.259 . S
O794 Tb782 2.374 . S
O794 C789 1.250 . S
O795 Tb780 2.353 . S
O795 C789 1.263 . S
C796 O797 1.275 . S
C796 O798 1.246 . S
O797 Tb780 2.427 . S
O797 C796 1.275 . S
O798 Tb780 2.513 . S
O798 C796 1.246 . S
C799 O783 1.245 . S
C799 O784 1.259 . S
Tb800 O803 2.453 . S
Tb800 O804 2.596 . S
Tb800 O805 2.374 . S
Tb800 O813 2.343 . S
Tb800 O815 2.353 . S
Tb800 O817 2.427 . S
Tb800 O818 2.513 . S
C801 O805 1.251 . S
C801 O807 1.263 . S
Tb802 O804 2.343 . S
Tb802 O807 2.353 . S
Tb802 O810 2.427 . S
Tb802 O811 2.513 . S
Tb802 O812 2.453 . S
Tb802 O813 2.596 . S
Tb802 O814 2.374 . S
O803 Tb800 2.453 . S
O803 C819 1.245 . S
O804 Tb800 2.596 . S
O804 Tb802 2.343 . S
O804 C819 1.259 . S
O805 Tb800 2.374 . S
O805 C801 1.251 . S
C806 O810 1.275 . S
C806 O811 1.246 . S
O807 C801 1.263 . S
O807 Tb802 2.353 . S
C808 O812 1.245 . S
C808 O813 1.259 . S
C809 O814 1.250 . S
C809 O815 1.263 . S
O810 Tb802 2.427 . S
O810 C806 1.275 . S
O811 Tb802 2.513 . S
O811 C806 1.246 . S
O812 Tb802 2.453 . S
O812 C808 1.245 . S
O813 Tb800 2.343 . S
O813 Tb802 2.596 . S
O813 C808 1.259 . S
O814 Tb802 2.374 . S
O814 C809 1.250 . S
O815 Tb800 2.353 . S
O815 C809 1.263 . S
C816 O817 1.275 . S
C816 O818 1.246 . S
O817 Tb800 2.427 . S
O817 C816 1.275 . S
O818 Tb800 2.513 . S
O818 C816 1.246 . S
C819 O803 1.245 . S
C819 O804 1.259 . S
Tb820 O823 2.453 . S
Tb820 O824 2.596 . S
Tb820 O825 2.374 . S
Tb820 O833 2.343 . S
Tb820 O835 2.353 . S
Tb820 O837 2.427 . S
Tb820 O838 2.513 . S
C821 O825 1.251 . S
C821 O827 1.263 . S
Tb822 O824 2.343 . S
Tb822 O827 2.353 . S
Tb822 O830 2.427 . S
Tb822 O831 2.513 . S
Tb822 O832 2.453 . S
Tb822 O833 2.596 . S
Tb822 O834 2.374 . S
O823 Tb820 2.453 . S
O823 C839 1.245 . S
O824 Tb820 2.596 . S
O824 Tb822 2.343 . S
O824 C839 1.259 . S
O825 Tb820 2.374 . S
O825 C821 1.251 . S
C826 O830 1.275 . S
C826 O831 1.246 . S
O827 C821 1.263 . S
O827 Tb822 2.353 . S
C828 O832 1.245 . S
C828 O833 1.259 . S
C829 O834 1.250 . S
C829 O835 1.263 . S
O830 Tb822 2.427 . S
O830 C826 1.275 . S
O831 Tb822 2.513 . S
O831 C826 1.246 . S
O832 Tb822 2.453 . S
O832 C828 1.245 . S
O833 Tb820 2.343 . S
O833 Tb822 2.596 . S
O833 C828 1.259 . S
O834 Tb822 2.374 . S
O834 C829 1.250 . S
O835 Tb820 2.353 . S
O835 C829 1.263 . S
C836 O837 1.275 . S
C836 O838 1.246 . S
O837 Tb820 2.427 . S
O837 C836 1.275 . S
O838 Tb820 2.513 . S
O838 C836 1.246 . S
C839 O823 1.245 . S
C839 O824 1.259 . S
Tb840 O843 2.453 . S
Tb840 O844 2.596 . S
Tb840 O845 2.374 . S
Tb840 O853 2.343 . S
Tb840 O855 2.353 . S
Tb840 O857 2.427 . S
Tb840 O858 2.513 . S
C841 O845 1.251 . S
C841 O847 1.263 . S
Tb842 O844 2.343 . S
Tb842 O847 2.353 . S
Tb842 O850 2.427 . S
Tb842 O851 2.513 . S
Tb842 O852 2.453 . S
Tb842 O853 2.596 . S
Tb842 O854 2.374 . S
O843 Tb840 2.453 . S
O843 C859 1.245 . S
O844 Tb840 2.596 . S
O844 Tb842 2.343 . S
O844 C859 1.259 . S
O845 Tb840 2.374 . S
O845 C841 1.251 . S
C846 O850 1.275 . S
C846 O851 1.246 . S
O847 C841 1.263 . S
O847 Tb842 2.353 . S
C848 O852 1.245 . S
C848 O853 1.259 . S
C849 O854 1.250 . S
C849 O855 1.263 . S
O850 Tb842 2.427 . S
O850 C846 1.275 . S
O851 Tb842 2.513 . S
O851 C846 1.246 . S
O852 Tb842 2.453 . S
O852 C848 1.245 . S
O853 Tb840 2.343 . S
O853 Tb842 2.596 . S
O853 C848 1.259 . S
O854 Tb842 2.374 . S
O854 C849 1.250 . S
O855 Tb840 2.353 . S
O855 C849 1.263 . S
C856 O857 1.275 . S
C856 O858 1.246 . S
O857 Tb840 2.427 . S
O857 C856 1.275 . S
O858 Tb840 2.513 . S
O858 C856 1.246 . S
C859 O843 1.245 . S
C859 O844 1.259 . S
Tb860 O863 2.453 . S
Tb860 O864 2.596 . S
Tb860 O865 2.374 . S
Tb860 O873 2.343 . S
Tb860 O875 2.353 . S
Tb860 O877 2.427 . S
Tb860 O878 2.513 . S
C861 O865 1.251 . S
C861 O867 1.263 . S
Tb862 O864 2.343 . S
Tb862 O867 2.353 . S
Tb862 O870 2.427 . S
Tb862 O871 2.513 . S
Tb862 O872 2.453 . S
Tb862 O873 2.596 . S
Tb862 O874 2.374 . S
O863 Tb860 2.453 . S
O863 C879 1.245 . S
O864 Tb860 2.596 . S
O864 Tb862 2.343 . S
O864 C879 1.259 . S
O865 Tb860 2.374 . S
O865 C861 1.251 . S
C866 O870 1.275 . S
C866 O871 1.246 . S
O867 C861 1.263 . S
O867 Tb862 2.353 . S
C868 O872 1.245 . S
C868 O873 1.259 . S
C869 O874 1.250 . S
C869 O875 1.263 . S
O870 Tb862 2.427 . S
O870 C866 1.275 . S
O871 Tb862 2.513 . S
O871 C866 1.246 . S
O872 Tb862 2.453 . S
O872 C868 1.245 . S
O873 Tb860 2.343 . S
O873 Tb862 2.596 . S
O873 C868 1.259 . S
O874 Tb862 2.374 . S
O874 C869 1.250 . S
O875 Tb860 2.353 . S
O875 C869 1.263 . S
C876 O877 1.275 . S
C876 O878 1.246 . S
O877 Tb860 2.427 . S
O877 C876 1.275 . S
O878 Tb860 2.513 . S
O878 C876 1.246 . S
C879 O863 1.245 . S
C879 O864 1.259 . S
Tb880 O883 2.453 . S
Tb880 O884 2.596 . S
Tb880 O885 2.374 . S
Tb880 O893 2.343 . S
Tb880 O895 2.353 . S
Tb880 O897 2.427 . S
Tb880 O898 2.513 . S
C881 O885 1.251 . S
C881 O887 1.263 . S
Tb882 O884 2.343 . S
Tb882 O887 2.353 . S
Tb882 O890 2.427 . S
Tb882 O891 2.513 . S
Tb882 O892 2.453 . S
Tb882 O893 2.596 . S
Tb882 O894 2.374 . S
O883 Tb880 2.453 . S
O883 C899 1.245 . S
O884 Tb880 2.596 . S
O884 Tb882 2.343 . S
O884 C899 1.259 . S
O885 Tb880 2.374 . S
O885 C881 1.251 . S
C886 O890 1.275 . S
C886 O891 1.246 . S
O887 C881 1.263 . S
O887 Tb882 2.353 . S
C888 O892 1.245 . S
C888 O893 1.259 . S
C889 O894 1.250 . S
C889 O895 1.263 . S
O890 Tb882 2.427 . S
O890 C886 1.275 . S
O891 Tb882 2.513 . S
O891 C886 1.246 . S
O892 Tb882 2.453 . S
O892 C888 1.245 . S
O893 Tb880 2.343 . S
O893 Tb882 2.596 . S
O893 C888 1.259 . S
O894 Tb882 2.374 . S
O894 C889 1.250 . S
O895 Tb880 2.353 . S
O895 C889 1.263 . S
C896 O897 1.275 . S
C896 O898 1.246 . S
O897 Tb880 2.427 . S
O897 C896 1.275 . S
O898 Tb880 2.513 . S
O898 C896 1.246 . S
C899 O883 1.245 . S
C899 O884 1.259 . S
Tb900 O903 2.453 . S
Tb900 O904 2.596 . S
Tb900 O905 2.374 . S
Tb900 O913 2.343 . S
Tb900 O915 2.353 . S
Tb900 O917 2.427 . S
Tb900 O918 2.513 . S
C901 O905 1.251 . S
C901 O907 1.263 . S
Tb902 O904 2.343 . S
Tb902 O907 2.353 . S
Tb902 O910 2.427 . S
Tb902 O911 2.513 . S
Tb902 O912 2.453 . S
Tb902 O913 2.596 . S
Tb902 O914 2.374 . S
O903 Tb900 2.453 . S
O903 C919 1.245 . S
O904 Tb900 2.596 . S
O904 Tb902 2.343 . S
O904 C919 1.259 . S
O905 Tb900 2.374 . S
O905 C901 1.251 . S
C906 O910 1.275 . S
C906 O911 1.246 . S
O907 C901 1.263 . S
O907 Tb902 2.353 . S
C908 O912 1.245 . S
C908 O913 1.259 . S
C909 O914 1.250 . S
C909 O915 1.263 . S
O910 Tb902 2.427 . S
O910 C906 1.275 . S
O911 Tb902 2.513 . S
O911 C906 1.246 . S
O912 Tb902 2.453 . S
O912 C908 1.245 . S
O913 Tb900 2.343 . S
O913 Tb902 2.596 . S
O913 C908 1.259 . S
O914 Tb902 2.374 . S
O914 C909 1.250 . S
O915 Tb900 2.353 . S
O915 C909 1.263 . S
C916 O917 1.275 . S
C916 O918 1.246 . S
O917 Tb900 2.427 . S
O917 C916 1.275 . S
O918 Tb900 2.513 . S
O918 C916 1.246 . S
C919 O903 1.245 . S
C919 O904 1.259 . S
Tb920 O923 2.453 . S
Tb920 O924 2.596 . S
Tb920 O925 2.374 . S
Tb920 O933 2.343 . S
Tb920 O935 2.353 . S
Tb920 O937 2.427 . S
Tb920 O938 2.513 . S
C921 O925 1.251 . S
C921 O927 1.263 . S
Tb922 O924 2.343 . S
Tb922 O927 2.353 . S
Tb922 O930 2.427 . S
Tb922 O931 2.513 . S
Tb922 O932 2.453 . S
Tb922 O933 2.596 . S
Tb922 O934 2.374 . S
O923 Tb920 2.453 . S
O923 C939 1.245 . S
O924 Tb920 2.596 . S
O924 Tb922 2.343 . S
O924 C939 1.259 . S
O925 Tb920 2.374 . S
O925 C921 1.251 . S
C926 O930 1.275 . S
C926 O931 1.246 . S
O927 C921 1.263 . S
O927 Tb922 2.353 . S
C928 O932 1.245 . S
C928 O933 1.259 . S
C929 O934 1.250 . S
C929 O935 1.263 . S
O930 Tb922 2.427 . S
O930 C926 1.275 . S
O931 Tb922 2.513 . S
O931 C926 1.246 . S
O932 Tb922 2.453 . S
O932 C928 1.245 . S
O933 Tb920 2.343 . S
O933 Tb922 2.596 . S
O933 C928 1.259 . S
O934 Tb922 2.374 . S
O934 C929 1.250 . S
O935 Tb920 2.353 . S
O935 C929 1.263 . S
C936 O937 1.275 . S
C936 O938 1.246 . S
O937 Tb920 2.427 . S
O937 C936 1.275 . S
O938 Tb920 2.513 . S
O938 C936 1.246 . S
C939 O923 1.245 . S
C939 O924 1.259 . S
Tb940 O943 2.453 . S
Tb940 O944 2.596 . S
Tb940 O945 2.374 . S
Tb940 O953 2.343 . S
Tb940 O955 2.353 . S
Tb940 O957 2.427 . S
Tb940 O958 2.513 . S
C941 O945 1.251 . S
C941 O947 1.263 . S
Tb942 O944 2.343 . S
Tb942 O947 2.353 . S
Tb942 O950 2.427 . S
Tb942 O951 2.513 . S
Tb942 O952 2.453 . S
Tb942 O953 2.596 . S
Tb942 O954 2.374 . S
O943 Tb940 2.453 . S
O943 C959 1.245 . S
O944 Tb940 2.596 . S
O944 Tb942 2.343 . S
O944 C959 1.259 . S
O945 Tb940 2.374 . S
O945 C941 1.251 . S
C946 O950 1.275 . S
C946 O951 1.246 . S
O947 C941 1.263 . S
O947 Tb942 2.353 . S
C948 O952 1.245 . S
C948 O953 1.259 . S
C949 O954 1.250 . S
C949 O955 1.263 . S
O950 Tb942 2.427 . S
O950 C946 1.275 . S
O951 Tb942 2.513 . S
O951 C946 1.246 . S
O952 Tb942 2.453 . S
O952 C948 1.245 . S
O953 Tb940 2.343 . S
O953 Tb942 2.596 . S
O953 C948 1.259 . S
O954 Tb942 2.374 . S
O954 C949 1.250 . S
O955 Tb940 2.353 . S
O955 C949 1.263 . S
C956 O957 1.275 . S
C956 O958 1.246 . S
O957 Tb940 2.427 . S
O957 C956 1.275 . S
O958 Tb940 2.513 . S
O958 C956 1.246 . S
C959 O943 1.245 . S
C959 O944 1.259 . S
C960 C961 1.369 1_655 S
C960 C962 1.419 . S
C960 H964 0.930 . S
C961 C960 1.369 1_455 S
C961 C970 1.429 . S
C962 C960 1.419 . S
C962 C963 1.363 1_655 S
C962 H965 0.929 . S
C963 C962 1.363 1_455 S
C963 C969 1.428 . S
H964 C960 0.930 . S
H965 C962 0.929 . S
S966 N967 1.613 . S
S966 N968 1.610 . S
N967 S966 1.613 . S
N967 C970 1.350 . S
N968 S966 1.610 . S
N968 C969 1.351 . S
C969 C963 1.428 . S
C969 N968 1.351 . S
C969 C970 1.434 . S
C970 C961 1.429 . S
C970 N967 1.350 . S
C970 C969 1.434 . S
C971 C972 1.369 . S
C971 C973 1.419 . S
C971 H975 0.930 . S
C972 C971 1.369 . S
C972 C981 1.429 . S
C973 C971 1.419 . S
C973 C974 1.363 . S
C973 H976 0.929 . S
C974 C973 1.363 . S
C974 C980 1.417 1_545 S
H975 C971 0.930 . S
H976 C973 0.929 . S
S977 N978 1.613 . S
S977 N979 1.610 . S
N978 S977 1.613 . S
N978 C981 1.350 1_565 S
N979 S977 1.610 . S
N979 C980 1.366 . S
C980 C974 1.417 1_565 S
C980 N979 1.366 . S
C980 C981 1.433 1_565 S
C981 C972 1.429 . S
C981 N978 1.350 1_545 S
C981 C980 1.433 1_545 S
C982 C983 1.369 . S
C982 C984 1.419 . S
C982 H986 0.930 . S
C983 C982 1.369 . S
C983 C992 1.429 . S
C984 C982 1.419 . S
C984 C985 1.363 . S
C984 H987 0.929 . S
C985 C984 1.363 . S
C985 C991 1.428 . S
H986 C982 0.930 . S
H987 C984 0.929 . S
S988 N989 1.616 . S
S988 N990 1.610 1_655 S
N989 S988 1.616 . S
N989 C992 1.344 1_655 S
N990 S988 1.610 1_455 S
N990 C991 1.351 . S
C991 C985 1.428 . S
C991 N990 1.351 . S
C991 C992 1.434 . S
C992 C983 1.429 . S
C992 N989 1.344 1_455 S
C992 C991 1.434 . S
C993 C994 1.369 1_565 S
C993 C995 1.419 . S
C993 H997 0.930 . S
C994 C993 1.369 1_545 S
C994 C1003 1.429 . S
C995 C993 1.419 . S
C995 C996 1.363 1_565 S
C995 H998 0.929 . S
C996 C995 1.363 1_545 S
C996 C1002 1.428 . S
H997 C993 0.930 . S
H998 C995 0.929 . S
S999 N1000 1.613 . S
S999 N1001 1.610 . S
N1000 S999 1.613 . S
N1000 C1003 1.350 . S
N1001 S999 1.610 . S
N1001 C1002 1.351 . S
C1002 C996 1.428 . S
C1002 N1001 1.351 . S
C1002 C1003 1.434 . S
C1003 C994 1.429 . S
C1003 N1000 1.350 . S
C1003 C1002 1.434 . S
C1004 C1005 1.369 . S
C1004 C1006 1.419 . S
C1004 H1008 0.930 . S
C1005 C1004 1.369 . S
C1005 C1014 1.429 1_545 S
C1006 C1004 1.419 . S
C1006 C1007 1.363 1_545 S
C1006 H1009 0.929 . S
C1007 C1006 1.363 1_565 S
C1007 C1013 1.428 . S
H1008 C1004 0.930 . S
H1009 C1006 0.929 . S
S1010 N1011 1.613 . S
S1010 N1012 1.610 . S
N1011 S1010 1.613 . S
N1011 C1014 1.350 . S
N1012 S1010 1.610 . S
N1012 C1013 1.351 . S
C1013 C1007 1.428 . S
C1013 N1012 1.351 . S
C1013 C1014 1.434 . S
C1014 C1005 1.429 1_565 S
C1014 N1011 1.350 . S
C1014 C1013 1.434 . S
C1015 C1016 1.380 . S
C1015 C1017 1.422 . S
C1015 H1019 0.916 1_455 S
C1016 C1015 1.380 . S
C1016 C1025 1.429 . S
C1017 C1015 1.422 . S
C1017 C1018 1.363 . S
C1017 H1020 0.929 1_455 S
C1018 C1017 1.363 . S
C1018 C1024 1.428 . S
H1019 C1015 0.916 1_655 S
H1020 C1017 0.929 1_655 S
S1021 N1022 1.613 . S
S1021 N1023 1.610 . S
N1022 S1021 1.613 . S
N1022 C1025 1.350 . S
N1023 S1021 1.610 . S
N1023 C1024 1.351 . S
C1024 C1018 1.428 . S
C1024 N1023 1.351 . S
C1024 C1025 1.434 . S
C1025 C1016 1.429 . S
C1025 N1022 1.350 . S
C1025 C1024 1.434 . S
C1026 C1027 1.395 . S
C1026 C1028 1.424 . S
C1026 H1030 0.898 1_545 S
C1027 C1026 1.395 . S
C1027 C1036 1.429 . S
C1028 C1026 1.424 . S
C1028 C1029 1.363 . S
C1028 H1031 0.929 1_545 S
C1029 C1028 1.363 . S
C1029 C1035 1.428 . S
H1030 C1026 0.898 1_565 S
H1031 C1028 0.929 1_565 S
S1032 N1033 1.613 . S
S1032 N1034 1.610 . S
N1033 S1032 1.613 . S
N1033 C1036 1.350 . S
N1034 S1032 1.610 . S
N1034 C1035 1.351 . S
C1035 C1029 1.428 . S
C1035 N1034 1.351 . S
C1035 C1036 1.434 . S
C1036 C1027 1.429 . S
C1036 N1033 1.350 . S
C1036 C1035 1.434 . S
C1037 C1038 1.369 . S
C1037 C1039 1.419 1_455 S
C1037 H1041 0.930 . S
C1038 C1037 1.369 . S
C1038 C1047 1.429 . S
C1039 C1037 1.419 1_655 S
C1039 C1040 1.364 . S
C1039 H1042 0.929 . S
C1040 C1039 1.364 . S
C1040 C1046 1.423 1_655 S
H1041 C1037 0.930 . S
H1042 C1039 0.929 . S
S1043 N1044 1.613 . S
S1043 N1045 1.610 . S
N1044 S1043 1.613 . S
N1044 C1047 1.350 . S
N1045 S1043 1.610 . S
N1045 C1046 1.351 . S
C1046 C1040 1.423 1_455 S
C1046 N1045 1.351 . S
C1046 C1047 1.434 . S
C1047 C1038 1.429 . S
C1047 N1044 1.350 . S
C1047 C1046 1.434 . S
C1048 C1049 1.369 . S
C1048 C1050 1.419 . S
C1048 H1052 0.930 . S
C1049 C1048 1.369 . S
C1049 C1058 1.429 . S
C1050 C1048 1.419 . S
C1050 C1051 1.363 . S
C1050 H1053 0.929 . S
C1051 C1050 1.363 . S
C1051 C1057 1.428 . S
H1052 C1048 0.930 . S
H1053 C1050 0.929 . S
S1054 N1055 1.613 . S
S1054 N1056 1.610 . S
N1055 S1054 1.613 . S
N1055 C1058 1.350 1_556 S
N1056 S1054 1.610 . S
N1056 C1057 1.351 1_556 S
C1057 C1051 1.428 . S
C1057 N1056 1.351 1_554 S
C1057 C1058 1.434 . S
C1058 C1049 1.429 . S
C1058 N1055 1.350 1_554 S
C1058 C1057 1.434 . S
C1059 C1060 1.369 . S
C1059 C1061 1.419 . S
C1059 H1063 0.930 . S
C1060 C1059 1.369 . S
C1060 C1069 1.429 . S
C1061 C1059 1.419 . S
C1061 C1062 1.363 . S
C1061 H1064 0.929 . S
C1062 C1061 1.363 . S
C1062 C1068 1.428 . S
H1063 C1059 0.930 . S
H1064 C1061 0.929 . S
S1065 N1066 1.613 . S
S1065 N1067 1.606 1_556 S
N1066 S1065 1.613 . S
N1066 C1069 1.350 1_556 S
N1067 S1065 1.606 1_554 S
N1067 C1068 1.355 . S
C1068 C1062 1.428 . S
C1068 N1067 1.355 . S
C1068 C1069 1.434 . S
C1069 C1060 1.429 . S
C1069 N1066 1.350 1_554 S
C1069 C1068 1.434 . S
C1070 C1071 1.369 . S
C1070 C1072 1.419 . S
C1070 H1074 0.930 . S
C1071 C1070 1.369 . S
C1071 C1080 1.429 . S
C1072 C1070 1.419 . S
C1072 C1073 1.363 . S
C1072 H1075 0.929 . S
C1073 C1072 1.363 . S
C1073 C1079 1.428 . S
H1074 C1070 0.930 . S
H1075 C1072 0.929 . S
S1076 N1077 1.613 . S
S1076 N1078 1.610 . S
N1077 S1076 1.613 . S
N1077 C1080 1.350 . S
N1078 S1076 1.610 . S
N1078 C1079 1.351 . S
C1079 C1073 1.428 . S
C1079 N1078 1.351 . S
C1079 C1080 1.434 . S
C1080 C1071 1.429 . S
C1080 N1077 1.350 . S
C1080 C1079 1.434 . S
C1081 C1082 1.369 . S
C1081 C1083 1.419 . S
C1081 H1085 0.930 . S
C1082 C1081 1.369 . S
C1082 C1091 1.429 . S
C1083 C1081 1.419 . S
C1083 C1084 1.363 . S
C1083 H1086 0.929 . S
C1084 C1083 1.363 . S
C1084 C1090 1.428 . S
H1085 C1081 0.930 . S
H1086 C1083 0.929 . S
S1087 N1088 1.613 . S
S1087 N1089 1.610 . S
N1088 S1087 1.613 . S
N1088 C1091 1.350 1_556 S
N1089 S1087 1.610 . S
N1089 C1090 1.351 1_556 S
C1090 C1084 1.428 . S
C1090 N1089 1.351 1_554 S
C1090 C1091 1.434 . S
C1091 C1082 1.429 . S
C1091 N1088 1.350 1_554 S
C1091 C1090 1.434 . S
C1092 C1093 1.369 1_554 S
C1092 C1094 1.419 . S
C1092 H1096 0.930 1_554 S
C1093 C1092 1.369 1_556 S
C1093 C1102 1.429 1_556 S
C1094 C1092 1.419 . S
C1094 C1095 1.363 . S
C1094 H1097 0.929 . S
C1095 C1094 1.363 . S
C1095 C1101 1.428 . S
H1096 C1092 0.930 1_556 S
H1097 C1094 0.929 . S
S1098 N1099 1.613 . S
S1098 N1100 1.610 . S
N1099 S1098 1.613 . S
N1099 C1102 1.350 . S
N1100 S1098 1.610 . S
N1100 C1101 1.351 . S
C1101 C1095 1.428 . S
C1101 N1100 1.351 . S
C1101 C1102 1.434 . S
C1102 C1093 1.429 1_554 S
C1102 N1099 1.350 . S
C1102 C1101 1.434 . S
C1103 C1104 1.369 . S
C1103 C1105 1.419 1_556 S
C1103 H1107 0.930 . S
C1104 C1103 1.369 . S
C1104 C1113 1.429 . S
C1105 C1103 1.419 1_554 S
C1105 C1106 1.363 . S
C1105 H1108 0.929 . S
C1106 C1105 1.363 . S
C1106 C1112 1.428 . S
H1107 C1103 0.930 . S
H1108 C1105 0.929 . S
S1109 N1110 1.613 1_554 S
S1109 N1111 1.610 . S
N1110 S1109 1.613 1_556 S
N1110 C1113 1.350 . S
N1111 S1109 1.610 . S
N1111 C1112 1.351 . S
C1112 C1106 1.428 . S
C1112 N1111 1.351 . S
C1112 C1113 1.434 1_554 S
C1113 C1104 1.429 . S
C1113 N1110 1.350 . S
C1113 C1112 1.434 1_556 S
C1114 C1115 1.369 1_554 S
C1114 C1116 1.419 . S
C1114 H1118 0.930 1_554 S
C1115 C1114 1.369 1_556 S
C1115 C1124 1.429 . S
C1116 C1114 1.419 . S
C1116 C1117 1.363 . S
C1116 H1119 0.929 . S
C1117 C1116 1.363 . S
C1117 C1123 1.428 . S
H1118 C1114 0.930 1_556 S
H1119 C1116 0.929 . S
S1120 N1121 1.613 1_554 S
S1120 N1122 1.610 . S
N1121 S1120 1.613 1_556 S
N1121 C1124 1.350 . S
N1122 S1120 1.610 . S
N1122 C1123 1.351 . S
C1123 C1117 1.428 . S
C1123 N1122 1.351 . S
C1123 C1124 1.434 1_554 S
C1124 C1115 1.429 . S
C1124 N1121 1.350 . S
C1124 C1123 1.434 1_556 S
C1125 C1126 1.369 . S
C1125 C1127 1.419 1_556 S
C1125 H1129 0.930 . S
C1126 C1125 1.369 . S
C1126 C1135 1.418 1_556 S
C1127 C1125 1.419 1_554 S
C1127 C1128 1.363 . S
C1127 H1130 0.929 . S
C1128 C1127 1.363 . S
C1128 C1134 1.428 . S
H1129 C1125 0.930 . S
H1130 C1127 0.929 . S
S1131 N1132 1.613 1_554 S
S1131 N1133 1.610 . S
N1132 S1131 1.613 1_556 S
N1132 C1135 1.347 1_556 S
N1133 S1131 1.610 . S
N1133 C1134 1.351 . S
C1134 C1128 1.428 . S
C1134 N1133 1.351 . S
C1134 C1135 1.450 . S
C1135 C1126 1.418 1_554 S
C1135 N1132 1.347 1_554 S
C1135 C1134 1.450 . S
C1136 C1137 1.369 . S
C1136 C1138 1.419 1_655 S
C1136 H1140 0.930 . S
C1137 C1136 1.369 . S
C1137 C1146 1.429 . S
C1138 C1136 1.419 1_455 S
C1138 C1139 1.363 . S
C1138 H1141 0.929 . S
C1139 C1138 1.363 . S
C1139 C1145 1.428 . S
H1140 C1136 0.930 . S
H1141 C1138 0.929 . S
S1142 N1143 1.632 . S
S1142 N1144 1.587 1_655 S
N1143 S1142 1.632 . S
N1143 C1146 1.350 . S
N1144 S1142 1.587 1_455 S
N1144 C1145 1.351 . S
C1145 C1139 1.428 . S
C1145 N1144 1.351 . S
C1145 C1146 1.434 1_455 S
C1146 C1137 1.429 . S
C1146 N1143 1.350 . S
C1146 C1145 1.434 1_655 S
C1147 C1148 1.369 1_545 S
C1147 C1149 1.419 . S
C1147 H1151 0.930 1_545 S
C1148 C1147 1.369 1_565 S
C1148 C1157 1.429 1_565 S
C1149 C1147 1.419 . S
C1149 C1150 1.363 . S
C1149 H1152 0.929 . S
C1150 C1149 1.363 . S
C1150 C1156 1.428 . S
H1151 C1147 0.930 1_565 S
H1152 C1149 0.929 . S
S1153 N1154 1.613 1_545 S
S1153 N1155 1.610 . S
N1154 S1153 1.613 1_565 S
N1154 C1157 1.350 1_565 S
N1155 S1153 1.610 . S
N1155 C1156 1.351 . S
C1156 C1150 1.428 . S
C1156 N1155 1.351 . S
C1156 C1157 1.434 . S
C1157 C1148 1.429 1_545 S
C1157 N1154 1.350 1_545 S
C1157 C1156 1.434 . S
C1158 C1159 1.369 . S
C1158 C1160 1.419 1_655 S
C1158 H1162 0.930 . S
C1159 C1158 1.369 . S
C1159 C1168 1.429 . S
C1160 C1158 1.419 1_455 S
C1160 C1161 1.363 . S
C1160 H1163 0.929 . S
C1161 C1160 1.363 . S
C1161 C1167 1.428 . S
H1162 C1158 0.930 . S
H1163 C1160 0.929 . S
S1164 N1165 1.613 1_455 S
S1164 N1166 1.610 . S
N1165 S1164 1.613 1_655 S
N1165 C1168 1.350 . S
N1166 S1164 1.610 . S
N1166 C1167 1.351 . S
C1167 C1161 1.428 . S
C1167 N1166 1.351 . S
C1167 C1168 1.434 1_455 S
C1168 C1159 1.429 . S
C1168 N1165 1.350 . S
C1168 C1167 1.434 1_655 S
C1169 C1170 1.369 . S
C1169 C1171 1.419 1_545 S
C1169 H1173 0.930 . S
C1170 C1169 1.369 . S
C1170 C1179 1.429 . S
C1171 C1169 1.419 1_565 S
C1171 C1172 1.363 . S
C1171 H1174 0.929 . S
C1172 C1171 1.363 . S
C1172 C1178 1.428 . S
H1173 C1169 0.930 . S
H1174 C1171 0.929 . S
S1175 N1176 1.613 . S
S1175 N1177 1.610 1_545 S
N1176 S1175 1.613 . S
N1176 C1179 1.350 . S
N1177 S1175 1.610 1_565 S
N1177 C1178 1.351 . S
C1178 C1172 1.428 . S
C1178 N1177 1.351 . S
C1178 C1179 1.434 1_565 S
C1179 C1170 1.429 . S
C1179 N1176 1.350 . S
C1179 C1178 1.434 1_545 S
C1180 C1181 1.369 . S
C1180 C1182 1.419 1_565 S
C1180 H1184 0.930 . S
C1181 C1180 1.369 . S
C1181 C1190 1.442 . S
C1182 C1180 1.419 1_545 S
C1182 C1183 1.363 . S
C1182 H1185 0.929 . S
C1183 C1182 1.363 . S
C1183 C1189 1.428 . S
H1184 C1180 0.930 . S
H1185 C1182 0.929 . S
S1186 N1187 1.613 1_545 S
S1186 N1188 1.610 . S
N1187 S1186 1.613 1_565 S
N1187 C1190 1.357 . S
N1188 S1186 1.610 . S
N1188 C1189 1.351 . S
C1189 C1183 1.428 . S
C1189 N1188 1.351 . S
C1189 C1190 1.411 1_545 S
C1190 C1181 1.442 . S
C1190 N1187 1.357 . S
C1190 C1189 1.411 1_565 S
C1191 C1192 1.369 . S
C1191 C1193 1.382 1_455 S
C1191 H1195 0.930 . S
C1192 C1191 1.369 . S
C1192 C1201 1.429 . S
C1193 C1191 1.382 1_655 S
C1193 C1194 1.389 . S
C1193 H1196 0.941 . S
C1194 C1193 1.389 . S
C1194 C1200 1.428 . S
H1195 C1191 0.930 . S
H1196 C1193 0.941 . S
S1197 N1198 1.613 1_655 S
S1197 N1199 1.610 . S
N1198 S1197 1.613 1_455 S
N1198 C1201 1.350 . S
N1199 S1197 1.610 . S
N1199 C1200 1.351 . S
C1200 C1194 1.428 . S
C1200 N1199 1.351 . S
C1200 C1201 1.434 1_655 S
C1201 C1192 1.429 . S
C1201 N1198 1.350 . S
C1201 C1200 1.434 1_455 S
C1202 C1203 1.369 1_545 S
C1202 C1204 1.419 . S
C1202 H1206 0.930 1_545 S
C1203 C1202 1.369 1_565 S
C1203 C1212 1.429 . S
C1204 C1202 1.419 . S
C1204 C1205 1.363 . S
C1204 H1207 0.929 . S
C1205 C1204 1.363 . S
C1205 C1211 1.428 . S
H1206 C1202 0.930 1_565 S
H1207 C1204 0.929 . S
S1208 N1209 1.613 1_545 S
S1208 N1210 1.610 . S
N1209 S1208 1.613 1_565 S
N1209 C1212 1.350 . S
N1210 S1208 1.610 . S
N1210 C1211 1.351 . S
C1211 C1205 1.428 . S
C1211 N1210 1.351 . S
C1211 C1212 1.434 1_545 S
C1212 C1203 1.429 . S
C1212 N1209 1.350 . S
C1212 C1211 1.434 1_565 S
C1213 C1214 1.369 . S
C1213 C1215 1.385 1_455 S
C1213 H1217 0.930 . S
C1214 C1213 1.369 . S
C1214 C1223 1.429 . S
C1215 C1213 1.385 1_655 S
C1215 C1216 1.386 . S
C1215 H1218 0.942 . S
C1216 C1215 1.386 . S
C1216 C1222 1.428 . S
H1217 C1213 0.930 . S
H1218 C1215 0.942 . S
S1219 N1220 1.613 1_655 S
S1219 N1221 1.610 . S
N1220 S1219 1.613 1_455 S
N1220 C1223 1.350 . S
N1221 S1219 1.610 . S
N1221 C1222 1.351 . S
C1222 C1216 1.428 . S
C1222 N1221 1.351 . S
C1222 C1223 1.434 1_655 S
C1223 C1214 1.429 . S
C1223 N1220 1.350 . S
C1223 C1222 1.434 1_455 S
C1224 C1225 1.369 . S
C1224 C1226 1.419 . S
C1224 H1228 0.930 . S
C1225 C1224 1.369 . S
C1225 C1234 1.429 . S
C1226 C1224 1.419 . S
C1226 C1227 1.363 . S
C1226 H1229 0.929 . S
C1227 C1226 1.363 . S
C1227 C1233 1.428 . S
H1228 C1224 0.930 . S
H1229 C1226 0.929 . S
S1230 N1231 1.613 1_655 S
S1230 N1232 1.608 1_655 S
N1231 S1230 1.613 1_455 S
N1231 C1234 1.350 . S
N1232 S1230 1.608 1_455 S
N1232 C1233 1.357 . S
C1233 C1227 1.428 . S
C1233 N1232 1.357 . S
C1233 C1234 1.434 . S
C1234 C1225 1.429 . S
C1234 N1231 1.350 . S
C1234 C1233 1.434 . S
C1235 C1236 1.369 1_545 S
C1235 C1237 1.419 . S
C1235 H1239 0.930 . S
C1236 C1235 1.369 1_565 S
C1236 C1245 1.429 . S
C1237 C1235 1.419 . S
C1237 C1238 1.339 1_545 S
C1237 H1240 0.929 . S
C1238 C1237 1.339 1_565 S
C1238 C1244 1.456 . S
H1239 C1235 0.930 . S
H1240 C1237 0.929 . S
S1241 N1242 1.613 . S
S1241 N1243 1.610 . S
N1242 S1241 1.613 . S
N1242 C1245 1.350 . S
N1243 S1241 1.610 . S
N1243 C1244 1.351 . S
C1244 C1238 1.456 . S
C1244 N1243 1.351 . S
C1244 C1245 1.434 . S
C1245 C1236 1.429 . S
C1245 N1242 1.350 . S
C1245 C1244 1.434 . S
C1246 C1247 1.369 1_655 S
C1246 C1248 1.419 . S
C1246 H1250 0.930 . S
C1247 C1246 1.369 1_455 S
C1247 C1256 1.429 . S
C1248 C1246 1.419 . S
C1248 C1249 1.363 1_655 S
C1248 H1251 0.929 . S
C1249 C1248 1.363 1_455 S
C1249 C1255 1.428 . S
H1250 C1246 0.930 . S
H1251 C1248 0.929 . S
S1252 N1253 1.613 . S
S1252 N1254 1.610 . S
N1253 S1252 1.613 . S
N1253 C1256 1.350 . S
N1254 S1252 1.610 . S
N1254 C1255 1.351 . S
C1255 C1249 1.428 . S
C1255 N1254 1.351 . S
C1255 C1256 1.434 . S
C1256 C1247 1.429 . S
C1256 N1253 1.350 . S
C1256 C1255 1.434 . S
C1257 C1258 1.369 . S
C1257 C1259 1.419 . S
C1257 H1261 0.930 . S
C1258 C1257 1.369 . S
C1258 C1267 1.429 . S
C1259 C1257 1.419 . S
C1259 C1260 1.363 . S
C1259 H1262 0.929 . S
C1260 C1259 1.363 . S
C1260 C1266 1.428 . S
H1261 C1257 0.930 . S
H1262 C1259 0.929 . S
S1263 N1264 1.613 . S
S1263 N1265 1.610 . S
N1264 S1263 1.613 . S
N1264 C1267 1.350 . S
N1265 S1263 1.610 . S
N1265 C1266 1.351 . S
C1266 C1260 1.428 . S
C1266 N1265 1.351 . S
C1266 C1267 1.434 . S
C1267 C1258 1.429 . S
C1267 N1264 1.350 . S
C1267 C1266 1.434 . S
C1268 C1269 1.369 1_655 S
C1268 C1270 1.419 . S
C1268 H1272 0.930 . S
C1269 C1268 1.369 1_455 S
C1269 C1278 1.429 . S
C1270 C1268 1.419 . S
C1270 C1271 1.363 1_655 S
C1270 H1273 0.929 . S
C1271 C1270 1.363 1_455 S
C1271 C1277 1.428 . S
H1272 C1268 0.930 . S
H1273 C1270 0.929 . S
S1274 N1275 1.613 . S
S1274 N1276 1.610 . S
N1275 S1274 1.613 . S
N1275 C1278 1.350 . S
N1276 S1274 1.610 . S
N1276 C1277 1.351 . S
C1277 C1271 1.428 . S
C1277 N1276 1.351 . S
C1277 C1278 1.434 . S
C1278 C1269 1.429 . S
C1278 N1275 1.350 . S
C1278 C1277 1.434 . S
C1279 C1280 1.369 . S
C1279 C1281 1.419 . S
C1279 H1283 0.930 . S
C1280 C1279 1.369 . S
C1280 C1289 1.429 1_545 S
C1281 C1279 1.419 . S
C1281 C1282 1.363 . S
C1281 H1284 0.929 . S
C1282 C1281 1.363 . S
C1282 C1288 1.428 1_545 S
H1283 C1279 0.930 . S
H1284 C1281 0.929 . S
S1285 N1286 1.613 . S
S1285 N1287 1.610 . S
N1286 S1285 1.613 . S
N1286 C1289 1.350 . S
N1287 S1285 1.610 . S
N1287 C1288 1.351 . S
C1288 C1282 1.428 1_565 S
C1288 N1287 1.351 . S
C1288 C1289 1.434 . S
C1289 C1280 1.429 1_565 S
C1289 N1286 1.350 . S
C1289 C1288 1.434 . S
C1290 C1291 1.369 1_655 S
C1290 C1292 1.419 . S
C1290 H1294 0.930 . S
C1291 C1290 1.369 1_455 S
C1291 C1300 1.429 . S
C1292 C1290 1.419 . S
C1292 C1293 1.350 1_655 S
C1292 H1295 0.929 . S
C1293 C1292 1.350 1_455 S
C1293 C1299 1.443 . S
H1294 C1290 0.930 . S
H1295 C1292 0.929 . S
S1296 N1297 1.613 . S
S1296 N1298 1.610 . S
N1297 S1296 1.613 . S
N1297 C1300 1.350 . S
N1298 S1296 1.610 . S
N1298 C1299 1.351 . S
C1299 C1293 1.443 . S
C1299 N1298 1.351 . S
C1299 C1300 1.434 . S
C1300 C1291 1.429 . S
C1300 N1297 1.350 . S
C1300 C1299 1.434 . S
C1301 C1302 1.369 . S
C1301 C1303 1.419 . S
C1301 H1305 0.941 . S
C1302 C1301 1.369 . S
C1302 C1311 1.429 . S
C1303 C1301 1.419 . S
C1303 C1304 1.363 . S
C1303 H1306 0.929 1_545 S
C1304 C1303 1.363 . S
C1304 C1310 1.428 . S
H1305 C1301 0.941 . S
H1306 C1303 0.929 1_565 S
S1307 N1308 1.613 . S
S1307 N1309 1.610 . S
N1308 S1307 1.613 . S
N1308 C1311 1.350 . S
N1309 S1307 1.610 . S
N1309 C1310 1.351 . S
C1310 C1304 1.428 . S
C1310 N1309 1.351 . S
C1310 C1311 1.434 . S
C1311 C1302 1.429 . S
C1311 N1308 1.350 . S
C1311 C1310 1.434 . S
C1312 C1313 1.369 . S
C1312 C1314 1.419 . S
C1312 H1316 0.923 1_554 S
C1313 C1312 1.369 . S
C1313 C1322 1.429 . S
C1314 C1312 1.419 . S
C1314 C1315 1.363 . S
C1314 H1317 0.929 1_554 S
C1315 C1314 1.363 . S
C1315 C1321 1.428 . S
H1316 C1312 0.923 1_556 S
H1317 C1314 0.929 1_556 S
S1318 N1319 1.613 . S
S1318 N1320 1.610 . S
N1319 S1318 1.613 . S
N1319 C1322 1.350 . S
N1320 S1318 1.610 . S
N1320 C1321 1.351 . S
C1321 C1315 1.428 . S
C1321 N1320 1.351 . S
C1321 C1322 1.434 . S
C1322 C1313 1.429 . S
C1322 N1319 1.350 . S
C1322 C1321 1.434 . S
C1323 C1324 1.369 . S
C1323 C1325 1.419 . S
C1323 H1327 0.930 . S
C1324 C1323 1.369 . S
C1324 C1333 1.429 1_554 S
C1325 C1323 1.419 . S
C1325 C1326 1.363 . S
C1325 H1328 0.929 . S
C1326 C1325 1.363 . S
C1326 C1332 1.428 1_554 S
H1327 C1323 0.930 . S
H1328 C1325 0.929 . S
S1329 N1330 1.613 . S
S1329 N1331 1.610 . S
N1330 S1329 1.613 . S
N1330 C1333 1.350 . S
N1331 S1329 1.610 . S
N1331 C1332 1.351 . S
C1332 C1326 1.428 1_556 S
C1332 N1331 1.351 . S
C1332 C1333 1.434 . S
C1333 C1324 1.429 1_556 S
C1333 N1330 1.350 . S
C1333 C1332 1.434 . S
C1334 C1335 1.369 . S
C1334 C1336 1.419 . S
C1334 H1338 0.930 . S
C1335 C1334 1.369 . S
C1335 C1344 1.429 . S
C1336 C1334 1.419 . S
C1336 C1337 1.363 . S
C1336 H1339 0.929 . S
C1337 C1336 1.363 . S
C1337 C1343 1.428 . S
H1338 C1334 0.930 . S
H1339 C1336 0.929 . S
S1340 N1341 1.613 . S
S1340 N1342 1.610 . S
N1341 S1340 1.613 . S
N1341 C1344 1.350 1_556 S
N1342 S1340 1.610 . S
N1342 C1343 1.351 1_556 S
C1343 C1337 1.428 . S
C1343 N1342 1.351 1_554 S
C1343 C1344 1.434 . S
C1344 C1335 1.429 . S
C1344 N1341 1.350 1_554 S
C1344 C1343 1.434 . S
C1345 C1346 1.369 1_556 S
C1345 C1347 1.419 . S
C1345 H1349 0.930 . S
C1346 C1345 1.369 1_554 S
C1346 C1355 1.429 . S
C1347 C1345 1.419 . S
C1347 C1348 1.363 1_556 S
C1347 H1350 0.929 . S
C1348 C1347 1.363 1_554 S
C1348 C1354 1.428 . S
H1349 C1345 0.930 . S
H1350 C1347 0.929 . S
S1351 N1352 1.613 . S
S1351 N1353 1.610 . S
N1352 S1351 1.613 . S
N1352 C1355 1.350 . S
N1353 S1351 1.610 . S
N1353 C1354 1.351 . S
C1354 C1348 1.428 . S
C1354 N1353 1.351 . S
C1354 C1355 1.434 . S
C1355 C1346 1.429 . S
C1355 N1352 1.350 . S
C1355 C1354 1.434 . S
C1356 C1357 1.369 . S
C1356 C1358 1.419 . S
C1356 H1360 0.930 . S
C1357 C1356 1.369 . S
C1357 C1366 1.429 . S
C1358 C1356 1.419 . S
C1358 C1359 1.363 . S
C1358 H1361 0.929 . S
C1359 C1358 1.363 . S
C1359 C1365 1.428 . S
H1360 C1356 0.930 . S
H1361 C1358 0.929 . S
S1362 N1363 1.613 . S
S1362 N1364 1.610 . S
N1363 S1362 1.613 . S
N1363 C1366 1.350 . S
N1364 S1362 1.610 . S
N1364 C1365 1.351 . S
C1365 C1359 1.428 . S
C1365 N1364 1.351 . S
C1365 C1366 1.434 . S
C1366 C1357 1.429 . S
C1366 N1363 1.350 . S
C1366 C1365 1.434 . S
C1367 C1368 1.369 . S
C1367 C1369 1.419 . S
C1367 H1371 0.930 . S
C1368 C1367 1.369 . S
C1368 C1377 1.429 . S
C1369 C1367 1.419 . S
C1369 C1370 1.363 . S
C1369 H1372 0.929 . S
C1370 C1369 1.363 . S
C1370 C1376 1.428 . S
H1371 C1367 0.930 . S
H1372 C1369 0.929 . S
S1373 N1374 1.613 . S
S1373 N1375 1.610 . S
N1374 S1373 1.613 . S
N1374 C1377 1.350 . S
N1375 S1373 1.610 . S
N1375 C1376 1.351 . S
C1376 C1370 1.428 . S
C1376 N1375 1.351 . S
C1376 C1377 1.434 . S
C1377 C1368 1.429 . S
C1377 N1374 1.350 . S
C1377 C1376 1.434 . S
C1378 C1379 1.369 . S
C1378 C1380 1.419 . S
C1378 H1382 0.930 . S
C1379 C1378 1.369 . S
C1379 C1388 1.429 . S
C1380 C1378 1.419 . S
C1380 C1381 1.363 . S
C1380 H1383 0.929 . S
C1381 C1380 1.363 . S
C1381 C1387 1.428 . S
H1382 C1378 0.930 . S
H1383 C1380 0.929 . S
S1384 N1385 1.613 . S
S1384 N1386 1.610 . S
N1385 S1384 1.613 . S
N1385 C1388 1.350 . S
N1386 S1384 1.610 . S
N1386 C1387 1.351 . S
C1387 C1381 1.428 . S
C1387 N1386 1.351 . S
C1387 C1388 1.434 . S
C1388 C1379 1.429 . S
C1388 N1385 1.350 . S
C1388 C1387 1.434 . S
C1389 C1390 1.369 . S
C1389 C1391 1.419 . S
C1389 H1393 0.930 . S
C1390 C1389 1.369 . S
C1390 C1399 1.429 . S
C1391 C1389 1.419 . S
C1391 C1392 1.363 . S
C1391 H1394 0.929 . S
C1392 C1391 1.363 . S
C1392 C1398 1.428 . S
H1393 C1389 0.930 . S
H1394 C1391 0.929 . S
S1395 N1396 1.613 . S
S1395 N1397 1.610 . S
N1396 S1395 1.613 . S
N1396 C1399 1.350 . S
N1397 S1395 1.610 . S
N1397 C1398 1.351 . S
C1398 C1392 1.428 . S
C1398 N1397 1.351 . S
C1398 C1399 1.434 . S
C1399 C1390 1.429 . S
C1399 N1396 1.350 . S
C1399 C1398 1.434 . S
C1400 C1401 1.369 . S
C1400 C1402 1.419 . S
C1400 H1404 0.930 . S
C1401 C1400 1.369 . S
C1401 C1410 1.429 . S
C1402 C1400 1.419 . S
C1402 C1403 1.363 . S
C1402 H1405 0.929 . S
C1403 C1402 1.363 . S
C1403 C1409 1.428 . S
H1404 C1400 0.930 . S
H1405 C1402 0.929 . S
S1406 N1407 1.613 . S
S1406 N1408 1.610 . S
N1407 S1406 1.613 . S
N1407 C1410 1.350 . S
N1408 S1406 1.610 . S
N1408 C1409 1.351 . S
C1409 C1403 1.428 . S
C1409 N1408 1.351 . S
C1409 C1410 1.434 . S
C1410 C1401 1.429 . S
C1410 N1407 1.350 . S
C1410 C1409 1.434 . S
C1411 C1412 1.369 . S
C1411 C1413 1.419 . S
C1411 H1415 0.930 . S
C1412 C1411 1.369 . S
C1412 C1421 1.429 . S
C1413 C1411 1.419 . S
C1413 C1414 1.363 . S
C1413 H1416 0.929 . S
C1414 C1413 1.363 . S
C1414 C1420 1.428 . S
H1415 C1411 0.930 . S
H1416 C1413 0.929 . S
S1417 N1418 1.613 . S
S1417 N1419 1.610 . S
N1418 S1417 1.613 . S
N1418 C1421 1.350 . S
N1419 S1417 1.610 . S
N1419 C1420 1.351 . S
C1420 C1414 1.428 . S
C1420 N1419 1.351 . S
C1420 C1421 1.434 . S
C1421 C1412 1.429 . S
C1421 N1418 1.350 . S
C1421 C1420 1.434 . S
C1422 C1423 1.369 . S
C1422 C1424 1.419 . S
C1422 H1426 0.930 . S
C1423 C1422 1.369 . S
C1423 C1432 1.429 . S
C1424 C1422 1.419 . S
C1424 C1425 1.363 . S
C1424 H1427 0.929 . S
C1425 C1424 1.363 . S
C1425 C1431 1.428 . S
H1426 C1422 0.930 . S
H1427 C1424 0.929 . S
S1428 N1429 1.613 . S
S1428 N1430 1.610 . S
N1429 S1428 1.613 . S
N1429 C1432 1.350 . S
N1430 S1428 1.610 . S
N1430 C1431 1.351 . S
C1431 C1425 1.428 . S
C1431 N1430 1.351 . S
C1431 C1432 1.434 . S
C1432 C1423 1.429 . S
C1432 N1429 1.350 . S
C1432 C1431 1.434 . S
C1433 C1434 1.369 . S
C1433 C1435 1.419 . S
C1433 H1437 0.930 . S
C1434 C1433 1.369 . S
C1434 C1443 1.429 . S
C1435 C1433 1.419 . S
C1435 C1436 1.363 . S
C1435 H1438 0.929 . S
C1436 C1435 1.363 . S
C1436 C1442 1.428 . S
H1437 C1433 0.930 . S
H1438 C1435 0.929 . S
S1439 N1440 1.613 . S
S1439 N1441 1.610 . S
N1440 S1439 1.613 . S
N1440 C1443 1.350 . S
N1441 S1439 1.610 . S
N1441 C1442 1.351 . S
C1442 C1436 1.428 . S
C1442 N1441 1.351 . S
C1442 C1443 1.434 . S
C1443 C1434 1.429 . S
C1443 N1440 1.350 . S
C1443 C1442 1.434 . S
C1444 C1445 1.369 . S
C1444 C1446 1.419 . S
C1444 H1448 0.930 . S
C1445 C1444 1.369 . S
C1445 C1454 1.429 . S
C1446 C1444 1.419 . S
C1446 C1447 1.363 . S
C1446 H1449 0.929 . S
C1447 C1446 1.363 . S
C1447 C1453 1.428 . S
H1448 C1444 0.930 . S
H1449 C1446 0.929 . S
S1450 N1451 1.613 . S
S1450 N1452 1.610 . S
N1451 S1450 1.613 . S
N1451 C1454 1.350 . S
N1452 S1450 1.610 . S
N1452 C1453 1.351 . S
C1453 C1447 1.428 . S
C1453 N1452 1.351 . S
C1453 C1454 1.434 . S
C1454 C1445 1.429 . S
C1454 N1451 1.350 . S
C1454 C1453 1.434 . S
C1455 C1456 1.369 . S
C1455 C1457 1.419 . S
C1455 H1459 0.930 . S
C1456 C1455 1.369 . S
C1456 C1465 1.429 . S
C1457 C1455 1.419 . S
C1457 C1458 1.363 . S
C1457 H1460 0.929 . S
C1458 C1457 1.363 . S
C1458 C1464 1.428 . S
H1459 C1455 0.930 . S
H1460 C1457 0.929 . S
S1461 N1462 1.613 . S
S1461 N1463 1.610 . S
N1462 S1461 1.613 . S
N1462 C1465 1.350 . S
N1463 S1461 1.610 . S
N1463 C1464 1.351 . S
C1464 C1458 1.428 . S
C1464 N1463 1.351 . S
C1464 C1465 1.434 . S
C1465 C1456 1.429 . S
C1465 N1462 1.350 . S
C1465 C1464 1.434 . S
C1466 C1467 1.369 . S
C1466 C1468 1.419 . S
C1466 H1470 0.930 . S
C1467 C1466 1.369 . S
C1467 C1476 1.429 . S
C1468 C1466 1.419 . S
C1468 C1469 1.363 . S
C1468 H1471 0.929 . S
C1469 C1468 1.363 . S
C1469 C1475 1.428 . S
H1470 C1466 0.930 . S
H1471 C1468 0.929 . S
S1472 N1473 1.613 . S
S1472 N1474 1.610 . S
N1473 S1472 1.613 . S
N1473 C1476 1.350 . S
N1474 S1472 1.610 . S
N1474 C1475 1.351 . S
C1475 C1469 1.428 . S
C1475 N1474 1.351 . S
C1475 C1476 1.434 . S
C1476 C1467 1.429 . S
C1476 N1473 1.350 . S
C1476 C1475 1.434 . S
C1477 C1478 1.369 . S
C1477 C1479 1.419 . S
C1477 H1481 0.930 . S
C1478 C1477 1.369 . S
C1478 C1487 1.429 . S
C1479 C1477 1.419 . S
C1479 C1480 1.363 . S
C1479 H1482 0.929 . S
C1480 C1479 1.363 . S
C1480 C1486 1.428 . S
H1481 C1477 0.930 . S
H1482 C1479 0.929 . S
S1483 N1484 1.613 . S
S1483 N1485 1.610 . S
N1484 S1483 1.613 . S
N1484 C1487 1.350 . S
N1485 S1483 1.610 . S
N1485 C1486 1.351 . S
C1486 C1480 1.428 . S
C1486 N1485 1.351 . S
C1486 C1487 1.434 . S
C1487 C1478 1.429 . S
C1487 N1484 1.350 . S
C1487 C1486 1.434 . S
C1488 C1489 1.369 . S
C1488 C1490 1.419 . S
C1488 H1492 0.930 . S
C1489 C1488 1.369 . S
C1489 C1498 1.429 . S
C1490 C1488 1.419 . S
C1490 C1491 1.363 . S
C1490 H1493 0.929 . S
C1491 C1490 1.363 . S
C1491 C1497 1.428 . S
H1492 C1488 0.930 . S
H1493 C1490 0.929 . S
S1494 N1495 1.613 . S
S1494 N1496 1.610 . S
N1495 S1494 1.613 . S
N1495 C1498 1.350 . S
N1496 S1494 1.610 . S
N1496 C1497 1.351 . S
C1497 C1491 1.428 . S
C1497 N1496 1.351 . S
C1497 C1498 1.434 . S
C1498 C1489 1.429 . S
C1498 N1495 1.350 . S
C1498 C1497 1.434 . S
C1499 C1500 1.369 . S
C1499 C1501 1.419 . S
C1499 H1503 0.930 . S
C1500 C1499 1.369 . S
C1500 C1509 1.429 . S
C1501 C1499 1.419 . S
C1501 C1502 1.363 . S
C1501 H1504 0.929 . S
C1502 C1501 1.363 . S
C1502 C1508 1.428 . S
H1503 C1499 0.930 . S
H1504 C1501 0.929 . S
S1505 N1506 1.613 . S
S1505 N1507 1.610 . S
N1506 S1505 1.613 . S
N1506 C1509 1.350 . S
N1507 S1505 1.610 . S
N1507 C1508 1.351 . S
C1508 C1502 1.428 . S
C1508 N1507 1.351 . S
C1508 C1509 1.434 . S
C1509 C1500 1.429 . S
C1509 N1506 1.350 . S
C1509 C1508 1.434 . S
C1510 C1511 1.369 . S
C1510 C1512 1.419 . S
C1510 H1514 0.930 . S
C1511 C1510 1.369 . S
C1511 C1520 1.429 . S
C1512 C1510 1.419 . S
C1512 C1513 1.363 . S
C1512 H1515 0.929 . S
C1513 C1512 1.363 . S
C1513 C1519 1.428 . S
H1514 C1510 0.930 . S
H1515 C1512 0.929 . S
S1516 N1517 1.613 . S
S1516 N1518 1.610 . S
N1517 S1516 1.613 . S
N1517 C1520 1.350 . S
N1518 S1516 1.610 . S
N1518 C1519 1.351 . S
C1519 C1513 1.428 . S
C1519 N1518 1.351 . S
C1519 C1520 1.434 . S
C1520 C1511 1.429 . S
C1520 N1517 1.350 . S
C1520 C1519 1.434 . S
C1521 C1522 1.369 . S
C1521 C1523 1.419 . S
C1521 H1525 0.930 . S
C1522 C1521 1.369 . S
C1522 C1531 1.429 . S
C1523 C1521 1.419 . S
C1523 C1524 1.363 . S
C1523 H1526 0.929 . S
C1524 C1523 1.363 . S
C1524 C1530 1.428 . S
H1525 C1521 0.930 . S
H1526 C1523 0.929 . S
S1527 N1528 1.613 . S
S1527 N1529 1.610 . S
N1528 S1527 1.613 . S
N1528 C1531 1.350 . S
N1529 S1527 1.610 . S
N1529 C1530 1.351 . S
C1530 C1524 1.428 . S
C1530 N1529 1.351 . S
C1530 C1531 1.434 . S
C1531 C1522 1.429 . S
C1531 N1528 1.350 . S
C1531 C1530 1.434 . S
C1532 C1533 1.369 . S
C1532 C1534 1.419 . S
C1532 H1536 0.930 . S
C1533 C1532 1.369 . S
C1533 C1542 1.429 . S
C1534 C1532 1.419 . S
C1534 C1535 1.363 . S
C1534 H1537 0.929 . S
C1535 C1534 1.363 . S
C1535 C1541 1.428 . S
H1536 C1532 0.930 . S
H1537 C1534 0.929 . S
S1538 N1539 1.613 . S
S1538 N1540 1.610 . S
N1539 S1538 1.613 . S
N1539 C1542 1.350 . S
N1540 S1538 1.610 . S
N1540 C1541 1.351 . S
C1541 C1535 1.428 . S
C1541 N1540 1.351 . S
C1541 C1542 1.434 . S
C1542 C1533 1.429 . S
C1542 N1539 1.350 . S
C1542 C1541 1.434 . S
C1543 C1544 1.369 . S
C1543 C1545 1.419 . S
C1543 H1547 0.930 . S
C1544 C1543 1.369 . S
C1544 C1553 1.429 . S
C1545 C1543 1.419 . S
C1545 C1546 1.363 . S
C1545 H1548 0.929 . S
C1546 C1545 1.363 . S
C1546 C1552 1.428 . S
H1547 C1543 0.930 . S
H1548 C1545 0.929 . S
S1549 N1550 1.613 . S
S1549 N1551 1.610 . S
N1550 S1549 1.613 . S
N1550 C1553 1.350 . S
N1551 S1549 1.610 . S
N1551 C1552 1.351 . S
C1552 C1546 1.428 . S
C1552 N1551 1.351 . S
C1552 C1553 1.434 . S
C1553 C1544 1.429 . S
C1553 N1550 1.350 . S
C1553 C1552 1.434 . S
C1554 C1555 1.369 . S
C1554 C1556 1.419 . S
C1554 H1558 0.930 . S
C1555 C1554 1.369 . S
C1555 C1564 1.429 . S
C1556 C1554 1.419 . S
C1556 C1557 1.363 . S
C1556 H1559 0.929 . S
C1557 C1556 1.363 . S
C1557 C1563 1.428 . S
H1558 C1554 0.930 . S
H1559 C1556 0.929 . S
S1560 N1561 1.613 . S
S1560 N1562 1.610 . S
N1561 S1560 1.613 . S
N1561 C1564 1.350 . S
N1562 S1560 1.610 . S
N1562 C1563 1.351 . S
C1563 C1557 1.428 . S
C1563 N1562 1.351 . S
C1563 C1564 1.434 . S
C1564 C1555 1.429 . S
C1564 N1561 1.350 . S
C1564 C1563 1.434 . S
C1565 C1566 1.369 . S
C1565 C1567 1.419 . S
C1565 H1569 0.930 . S
C1566 C1565 1.369 . S
C1566 C1575 1.429 . S
C1567 C1565 1.419 . S
C1567 C1568 1.363 . S
C1567 H1570 0.929 . S
C1568 C1567 1.363 . S
C1568 C1574 1.428 . S
H1569 C1565 0.930 . S
H1570 C1567 0.929 . S
S1571 N1572 1.613 . S
S1571 N1573 1.610 . S
N1572 S1571 1.613 . S
N1572 C1575 1.350 . S
N1573 S1571 1.610 . S
N1573 C1574 1.351 . S
C1574 C1568 1.428 . S
C1574 N1573 1.351 . S
C1574 C1575 1.434 . S
C1575 C1566 1.429 . S
C1575 N1572 1.350 . S
C1575 C1574 1.434 . S
C1576 C1577 1.369 . S
C1576 C1578 1.419 . S
C1576 H1580 0.930 . S
C1577 C1576 1.369 . S
C1577 C1586 1.429 . S
C1578 C1576 1.419 . S
C1578 C1579 1.363 . S
C1578 H1581 0.929 . S
C1579 C1578 1.363 . S
C1579 C1585 1.428 . S
H1580 C1576 0.930 . S
H1581 C1578 0.929 . S
S1582 N1583 1.613 . S
S1582 N1584 1.610 . S
N1583 S1582 1.613 . S
N1583 C1586 1.350 . S
N1584 S1582 1.610 . S
N1584 C1585 1.351 . S
C1585 C1579 1.428 . S
C1585 N1584 1.351 . S
C1585 C1586 1.434 . S
C1586 C1577 1.429 . S
C1586 N1583 1.350 . S
C1586 C1585 1.434 . S
C1587 C1588 1.369 . S
C1587 C1589 1.419 . S
C1587 H1591 0.930 1_655 S
C1588 C1587 1.369 . S
C1588 C1597 1.429 . S
C1589 C1587 1.419 . S
C1589 C1590 1.363 . S
C1589 H1592 0.929 . S
C1590 C1589 1.363 . S
C1590 C1596 1.428 . S
H1591 C1587 0.930 1_455 S
H1592 C1589 0.929 . S
S1593 N1594 1.613 . S
S1593 N1595 1.610 . S
N1594 S1593 1.613 . S
N1594 C1597 1.350 . S
N1595 S1593 1.610 . S
N1595 C1596 1.351 . S
C1596 C1590 1.428 . S
C1596 N1595 1.351 . S
C1596 C1597 1.434 . S
C1597 C1588 1.429 . S
C1597 N1594 1.350 . S
C1597 C1596 1.434 . S
C1598 C1599 1.369 . S
C1598 C1600 1.419 . S
C1598 H1602 0.930 . S
C1599 C1598 1.369 . S
C1599 C1608 1.429 . S
C1600 C1598 1.419 . S
C1600 C1601 1.363 . S
C1600 H1603 0.929 . S
C1601 C1600 1.363 . S
C1601 C1607 1.428 . S
H1602 C1598 0.930 . S
H1603 C1600 0.929 . S
S1604 N1605 1.613 . S
S1604 N1606 1.610 . S
N1605 S1604 1.613 . S
N1605 C1608 1.350 . S
N1606 S1604 1.610 . S
N1606 C1607 1.351 . S
C1607 C1601 1.428 . S
C1607 N1606 1.351 . S
C1607 C1608 1.434 . S
C1608 C1599 1.429 . S
C1608 N1605 1.350 . S
C1608 C1607 1.434 . S
C1609 C1610 1.369 . S
C1609 C1611 1.419 . S
C1609 H1613 0.930 . S
C1610 C1609 1.369 . S
C1610 C1619 1.429 . S
C1611 C1609 1.419 . S
C1611 C1612 1.363 . S
C1611 H1614 0.929 . S
C1612 C1611 1.363 . S
C1612 C1618 1.428 . S
H1613 C1609 0.930 . S
H1614 C1611 0.929 . S
S1615 N1616 1.613 . S
S1615 N1617 1.610 . S
N1616 S1615 1.613 . S
N1616 C1619 1.350 . S
N1617 S1615 1.610 . S
N1617 C1618 1.351 . S
C1618 C1612 1.428 . S
C1618 N1617 1.351 . S
C1618 C1619 1.434 . S
C1619 C1610 1.429 . S
C1619 N1616 1.350 . S
C1619 C1618 1.434 . S
C1620 C1621 1.369 . S
C1620 C1622 1.419 . S
C1620 H1624 0.930 . S
C1621 C1620 1.369 . S
C1621 C1630 1.429 . S
C1622 C1620 1.419 . S
C1622 C1623 1.363 . S
C1622 H1625 0.929 . S
C1623 C1622 1.363 . S
C1623 C1629 1.428 . S
H1624 C1620 0.930 . S
H1625 C1622 0.929 . S
S1626 N1627 1.613 . S
S1626 N1628 1.610 1_545 S
N1627 S1626 1.613 . S
N1627 C1630 1.350 1_545 S
N1628 S1626 1.610 1_565 S
N1628 C1629 1.351 . S
C1629 C1623 1.428 . S
C1629 N1628 1.351 . S
C1629 C1630 1.434 . S
C1630 C1621 1.429 . S
C1630 N1627 1.350 1_565 S
C1630 C1629 1.434 . S
C1631 C1632 1.369 . S
C1631 C1633 1.419 . S
C1631 H1635 0.930 . S
C1632 C1631 1.369 . S
C1632 C1641 1.429 . S
C1633 C1631 1.419 . S
C1633 C1634 1.363 . S
C1633 H1636 0.929 . S
C1634 C1633 1.363 . S
C1634 C1640 1.428 . S
H1635 C1631 0.930 . S
H1636 C1633 0.929 . S
S1637 N1638 1.613 . S
S1637 N1639 1.610 . S
N1638 S1637 1.613 . S
N1638 C1641 1.350 . S
N1639 S1637 1.610 . S
N1639 C1640 1.351 . S
C1640 C1634 1.428 . S
C1640 N1639 1.351 . S
C1640 C1641 1.434 . S
C1641 C1632 1.429 . S
C1641 N1638 1.350 . S
C1641 C1640 1.434 . S
C1642 C1643 1.369 . S
C1642 C1644 1.419 . S
C1642 H1646 0.930 . S
C1643 C1642 1.369 . S
C1643 C1652 1.429 . S
C1644 C1642 1.419 . S
C1644 C1645 1.363 . S
C1644 H1647 0.929 . S
C1645 C1644 1.363 . S
C1645 C1651 1.428 . S
H1646 C1642 0.930 . S
H1647 C1644 0.929 . S
S1648 N1649 1.613 . S
S1648 N1650 1.610 . S
N1649 S1648 1.613 . S
N1649 C1652 1.350 . S
N1650 S1648 1.610 . S
N1650 C1651 1.351 . S
C1651 C1645 1.428 . S
C1651 N1650 1.351 . S
C1651 C1652 1.434 . S
C1652 C1643 1.429 . S
C1652 N1649 1.350 . S
C1652 C1651 1.434 . S
C1653 C1654 1.369 . S
C1653 C1655 1.419 . S
C1653 H1657 0.930 . S
C1654 C1653 1.369 . S
C1654 C1663 1.429 . S
C1655 C1653 1.419 . S
C1655 C1656 1.363 . S
C1655 H1658 0.929 . S
C1656 C1655 1.363 . S
C1656 C1662 1.428 . S
H1657 C1653 0.930 . S
H1658 C1655 0.929 . S
S1659 N1660 1.613 . S
S1659 N1661 1.610 . S
N1660 S1659 1.613 . S
N1660 C1663 1.350 . S
N1661 S1659 1.610 . S
N1661 C1662 1.351 . S
C1662 C1656 1.428 . S
C1662 N1661 1.351 . S
C1662 C1663 1.434 . S
C1663 C1654 1.429 . S
C1663 N1660 1.350 . S
C1663 C1662 1.434 . S
C1664 C1665 1.369 . S
C1664 C1666 1.419 . S
C1664 H1668 0.930 . S
C1665 C1664 1.369 . S
C1665 C1674 1.429 . S
C1666 C1664 1.419 . S
C1666 C1667 1.363 . S
C1666 H1669 0.929 . S
C1667 C1666 1.363 . S
C1667 C1673 1.428 . S
H1668 C1664 0.930 . S
H1669 C1666 0.929 . S
S1670 N1671 1.613 . S
S1670 N1672 1.610 . S
N1671 S1670 1.613 . S
N1671 C1674 1.350 . S
N1672 S1670 1.610 . S
N1672 C1673 1.351 . S
C1673 C1667 1.428 . S
C1673 N1672 1.351 . S
C1673 C1674 1.434 . S
C1674 C1665 1.429 . S
C1674 N1671 1.350 . S
C1674 C1673 1.434 . S
C1675 C1676 1.369 . S
C1675 C1677 1.419 . S
C1675 H1679 0.930 1_556 S
C1676 C1675 1.369 . S
C1676 C1685 1.429 . S
C1677 C1675 1.419 . S
C1677 C1678 1.363 . S
C1677 H1680 0.929 . S
C1678 C1677 1.363 . S
C1678 C1684 1.428 . S
H1679 C1675 0.930 1_554 S
H1680 C1677 0.929 . S
S1681 N1682 1.613 . S
S1681 N1683 1.610 . S
N1682 S1681 1.613 . S
N1682 C1685 1.350 . S
N1683 S1681 1.610 . S
N1683 C1684 1.351 . S
C1684 C1678 1.428 . S
C1684 N1683 1.351 . S
C1684 C1685 1.434 . S
C1685 C1676 1.429 . S
C1685 N1682 1.350 . S
C1685 C1684 1.434 . S
C1686 C1687 1.369 . S
C1686 C1688 1.419 . S
C1686 H1690 0.930 1_556 S
C1687 C1686 1.369 . S
C1687 C1696 1.429 . S
C1688 C1686 1.419 . S
C1688 C1689 1.363 . S
C1688 H1691 0.929 . S
C1689 C1688 1.363 . S
C1689 C1695 1.428 . S
H1690 C1686 0.930 1_554 S
H1691 C1688 0.929 . S
S1692 N1693 1.613 . S
S1692 N1694 1.610 . S
N1693 S1692 1.613 . S
N1693 C1696 1.350 . S
N1694 S1692 1.610 . S
N1694 C1695 1.351 . S
C1695 C1689 1.428 . S
C1695 N1694 1.351 . S
C1695 C1696 1.434 . S
C1696 C1687 1.429 . S
C1696 N1693 1.350 . S
C1696 C1695 1.434 . S
C1697 C1698 1.369 . S
C1697 C1699 1.419 . S
C1697 H1701 0.930 . S
C1698 C1697 1.369 . S
C1698 C1707 1.429 . S
C1699 C1697 1.419 . S
C1699 C1700 1.363 . S
C1699 H1702 0.929 1_556 S
C1700 C1699 1.363 . S
C1700 C1706 1.428 . S
H1701 C1697 0.930 . S
H1702 C1699 0.929 1_554 S
S1703 N1704 1.613 . S
S1703 N1705 1.610 . S
N1704 S1703 1.613 . S
N1704 C1707 1.350 . S
N1705 S1703 1.610 . S
N1705 C1706 1.351 . S
C1706 C1700 1.428 . S
C1706 N1705 1.351 . S
C1706 C1707 1.434 . S
C1707 C1698 1.429 . S
C1707 N1704 1.350 . S
C1707 C1706 1.434 . S
C1708 C1709 1.369 . S
C1708 C1710 1.419 . S
C1708 H1712 0.930 . S
C1709 C1708 1.369 . S
C1709 C1718 1.429 . S
C1710 C1708 1.419 . S
C1710 C1711 1.363 . S
C1710 H1713 0.929 . S
C1711 C1710 1.363 . S
C1711 C1717 1.428 . S
H1712 C1708 0.930 . S
H1713 C1710 0.929 . S
S1714 N1715 1.613 1_554 S
S1714 N1716 1.610 1_545 S
N1715 S1714 1.613 1_556 S
N1715 C1718 1.350 1_545 S
N1716 S1714 1.610 1_565 S
N1716 C1717 1.351 1_554 S
C1717 C1711 1.428 . S
C1717 N1716 1.351 1_556 S
C1717 C1718 1.434 . S
C1718 C1709 1.429 . S
C1718 N1715 1.350 1_565 S
C1718 C1717 1.434 . S
C1719 C1720 1.369 . S
C1719 C1721 1.419 . S
C1719 H1723 0.930 . S
C1720 C1719 1.369 . S
C1720 C1729 1.429 . S
C1721 C1719 1.419 . S
C1721 C1722 1.363 . S
C1721 H1724 0.929 . S
C1722 C1721 1.363 . S
C1722 C1728 1.428 . S
H1723 C1719 0.930 . S
H1724 C1721 0.929 . S
S1725 N1726 1.612 . S
S1725 N1727 1.613 1_455 S
N1726 S1725 1.612 . S
N1726 C1729 1.316 1_455 S
N1727 S1725 1.613 1_655 S
N1727 C1728 1.351 . S
C1728 C1722 1.428 . S
C1728 N1727 1.351 . S
C1728 C1729 1.434 . S
C1729 C1720 1.429 . S
C1729 N1726 1.316 1_655 S
C1729 C1728 1.434 . S
C1730 C1731 1.369 . S
C1730 C1732 1.419 . S
C1730 H1734 0.930 . S
C1731 C1730 1.369 . S
C1731 C1740 1.429 . S
C1732 C1730 1.419 . S
C1732 C1733 1.363 . S
C1732 H1735 0.929 . S
C1733 C1732 1.363 . S
C1733 C1739 1.428 . S
H1734 C1730 0.930 . S
H1735 C1732 0.929 . S
S1736 N1737 1.613 . S
S1736 N1738 1.610 . S
N1737 S1736 1.613 . S
N1737 C1740 1.350 . S
N1738 S1736 1.610 . S
N1738 C1739 1.351 . S
C1739 C1733 1.428 . S
C1739 N1738 1.351 . S
C1739 C1740 1.434 . S
C1740 C1731 1.429 . S
C1740 N1737 1.350 . S
C1740 C1739 1.434 . S
C1741 C1742 1.369 . S
C1741 C1743 1.419 . S
C1741 H1745 0.930 . S
C1742 C1741 1.369 . S
C1742 C1751 1.429 . S
C1743 C1741 1.419 . S
C1743 C1744 1.363 . S
C1743 H1746 0.929 . S
C1744 C1743 1.363 . S
C1744 C1750 1.428 . S
H1745 C1741 0.930 . S
H1746 C1743 0.929 . S
S1747 N1748 1.613 . S
S1747 N1749 1.610 . S
N1748 S1747 1.613 . S
N1748 C1751 1.350 . S
N1749 S1747 1.610 . S
N1749 C1750 1.351 . S
C1750 C1744 1.428 . S
C1750 N1749 1.351 . S
C1750 C1751 1.434 . S
C1751 C1742 1.429 . S
C1751 N1748 1.350 . S
C1751 C1750 1.434 . S
C1752 C1753 1.369 . S
C1752 C1754 1.419 . S
C1752 H1756 0.930 . S
C1753 C1752 1.369 . S
C1753 C1762 1.429 . S
C1754 C1752 1.419 . S
C1754 C1755 1.363 . S
C1754 H1757 0.929 . S
C1755 C1754 1.363 . S
C1755 C1761 1.428 . S
H1756 C1752 0.930 . S
H1757 C1754 0.929 . S
S1758 N1759 1.613 . S
S1758 N1760 1.610 . S
N1759 S1758 1.613 . S
N1759 C1762 1.350 . S
N1760 S1758 1.610 . S
N1760 C1761 1.351 . S
C1761 C1755 1.428 . S
C1761 N1760 1.351 . S
C1761 C1762 1.434 . S
C1762 C1753 1.429 . S
C1762 N1759 1.350 . S
C1762 C1761 1.434 . S
C1763 C1764 1.369 . S
C1763 C1765 1.419 . S
C1763 H1767 0.930 . S
C1764 C1763 1.369 . S
C1764 C1773 1.429 . S
C1765 C1763 1.419 . S
C1765 C1766 1.363 . S
C1765 H1768 0.929 . S
C1766 C1765 1.363 . S
C1766 C1772 1.428 . S
H1767 C1763 0.930 . S
H1768 C1765 0.929 . S
S1769 N1770 1.613 . S
S1769 N1771 1.610 . S
N1770 S1769 1.613 . S
N1770 C1773 1.350 . S
N1771 S1769 1.610 . S
N1771 C1772 1.351 . S
C1772 C1766 1.428 . S
C1772 N1771 1.351 . S
C1772 C1773 1.434 . S
C1773 C1764 1.429 . S
C1773 N1770 1.350 . S
C1773 C1772 1.434 . S
C1774 C1775 1.369 . S
C1774 C1776 1.419 . S
C1774 H1778 0.930 . S
C1775 C1774 1.369 . S
C1775 C1784 1.429 . S
C1776 C1774 1.419 . S
C1776 C1777 1.363 . S
C1776 H1779 0.929 . S
C1777 C1776 1.363 . S
C1777 C1783 1.428 . S
H1778 C1774 0.930 . S
H1779 C1776 0.929 . S
S1780 N1781 1.613 . S
S1780 N1782 1.610 . S
N1781 S1780 1.613 . S
N1781 C1784 1.350 . S
N1782 S1780 1.610 . S
N1782 C1783 1.351 . S
C1783 C1777 1.428 . S
C1783 N1782 1.351 . S
C1783 C1784 1.434 . S
C1784 C1775 1.429 . S
C1784 N1781 1.350 . S
C1784 C1783 1.434 . S
C1785 C1786 1.369 . S
C1785 C1787 1.419 . S
C1785 H1789 0.930 . S
C1786 C1785 1.369 . S
C1786 C1795 1.429 . S
C1787 C1785 1.419 . S
C1787 C1788 1.363 . S
C1787 H1790 0.929 . S
C1788 C1787 1.363 . S
C1788 C1794 1.428 . S
H1789 C1785 0.930 . S
H1790 C1787 0.929 . S
S1791 N1792 1.613 . S
S1791 N1793 1.610 . S
N1792 S1791 1.613 . S
N1792 C1795 1.350 . S
N1793 S1791 1.610 . S
N1793 C1794 1.351 . S
C1794 C1788 1.428 . S
C1794 N1793 1.351 . S
C1794 C1795 1.434 . S
C1795 C1786 1.429 . S
C1795 N1792 1.350 . S
C1795 C1794 1.434 . S
C1796 C1797 1.369 . S
C1796 C1798 1.419 . S
C1796 H1800 0.930 . S
C1797 C1796 1.369 . S
C1797 C1806 1.429 . S
C1798 C1796 1.419 . S
C1798 C1799 1.363 . S
C1798 H1801 0.929 . S
C1799 C1798 1.363 . S
C1799 C1805 1.428 . S
H1800 C1796 0.930 . S
H1801 C1798 0.929 . S
S1802 N1803 1.613 . S
S1802 N1804 1.610 . S
N1803 S1802 1.613 . S
N1803 C1806 1.350 . S
N1804 S1802 1.610 . S
N1804 C1805 1.351 . S
C1805 C1799 1.428 . S
C1805 N1804 1.351 . S
C1805 C1806 1.434 . S
C1806 C1797 1.429 . S
C1806 N1803 1.350 . S
C1806 C1805 1.434 . S
C1807 C1808 1.369 . S
C1807 C1809 1.419 . S
C1807 H1811 0.930 . S
C1808 C1807 1.369 . S
C1808 C1817 1.429 . S
C1809 C1807 1.419 . S
C1809 C1810 1.363 . S
C1809 H1812 0.929 . S
C1810 C1809 1.363 . S
C1810 C1816 1.428 . S
H1811 C1807 0.930 . S
H1812 C1809 0.929 . S
S1813 N1814 1.613 . S
S1813 N1815 1.610 . S
N1814 S1813 1.613 . S
N1814 C1817 1.350 . S
N1815 S1813 1.610 . S
N1815 C1816 1.351 . S
C1816 C1810 1.428 . S
C1816 N1815 1.351 . S
C1816 C1817 1.434 . S
C1817 C1808 1.429 . S
C1817 N1814 1.350 . S
C1817 C1816 1.434 . S
C1818 C1819 1.369 . S
C1818 C1820 1.419 . S
C1818 H1822 0.930 . S
C1819 C1818 1.369 . S
C1819 C1828 1.429 . S
C1820 C1818 1.419 . S
C1820 C1821 1.363 . S
C1820 H1823 0.929 . S
C1821 C1820 1.363 . S
C1821 C1827 1.428 . S
H1822 C1818 0.930 . S
H1823 C1820 0.929 . S
S1824 N1825 1.613 . S
S1824 N1826 1.610 . S
N1825 S1824 1.613 . S
N1825 C1828 1.350 . S
N1826 S1824 1.610 . S
N1826 C1827 1.351 . S
C1827 C1821 1.428 . S
C1827 N1826 1.351 . S
C1827 C1828 1.434 . S
C1828 C1819 1.429 . S
C1828 N1825 1.350 . S
C1828 C1827 1.434 . S
C1829 C1830 1.369 . S
C1829 C1831 1.419 . S
C1829 H1833 0.930 . S
C1830 C1829 1.369 . S
C1830 C1839 1.429 . S
C1831 C1829 1.419 . S
C1831 C1832 1.363 . S
C1831 H1834 0.929 . S
C1832 C1831 1.363 . S
C1832 C1838 1.428 . S
H1833 C1829 0.930 . S
H1834 C1831 0.929 . S
S1835 N1836 1.613 . S
S1835 N1837 1.610 . S
N1836 S1835 1.613 . S
N1836 C1839 1.350 . S
N1837 S1835 1.610 . S
N1837 C1838 1.351 . S
C1838 C1832 1.428 . S
C1838 N1837 1.351 . S
C1838 C1839 1.434 . S
C1839 C1830 1.429 . S
C1839 N1836 1.350 . S
C1839 C1838 1.434 . S
C1840 C1841 1.369 . S
C1840 C1842 1.419 . S
C1840 H1844 0.930 . S
C1841 C1840 1.369 . S
C1841 C1850 1.429 . S
C1842 C1840 1.419 . S
C1842 C1843 1.363 . S
C1842 H1845 0.929 . S
C1843 C1842 1.363 . S
C1843 C1849 1.428 . S
H1844 C1840 0.930 . S
H1845 C1842 0.929 . S
S1846 N1847 1.613 . S
S1846 N1848 1.610 . S
N1847 S1846 1.613 . S
N1847 C1850 1.350 . S
N1848 S1846 1.610 . S
N1848 C1849 1.351 . S
C1849 C1843 1.428 . S
C1849 N1848 1.351 . S
C1849 C1850 1.434 . S
C1850 C1841 1.429 . S
C1850 N1847 1.350 . S
C1850 C1849 1.434 . S
C1851 C1852 1.369 . S
C1851 C1853 1.419 . S
C1851 H1855 0.930 . S
C1852 C1851 1.369 . S
C1852 C1861 1.429 . S
C1853 C1851 1.419 . S
C1853 C1854 1.363 . S
C1853 H1856 0.929 . S
C1854 C1853 1.363 . S
C1854 C1860 1.428 . S
H1855 C1851 0.930 . S
H1856 C1853 0.929 . S
S1857 N1858 1.613 . S
S1857 N1859 1.610 . S
N1858 S1857 1.613 . S
N1858 C1861 1.350 . S
N1859 S1857 1.610 . S
N1859 C1860 1.351 . S
C1860 C1854 1.428 . S
C1860 N1859 1.351 . S
C1860 C1861 1.434 . S
C1861 C1852 1.429 . S
C1861 N1858 1.350 . S
C1861 C1860 1.434 . S
C1862 C1863 1.369 . S
C1862 C1864 1.419 . S
C1862 H1866 0.930 . S
C1863 C1862 1.369 . S
C1863 C1872 1.429 . S
C1864 C1862 1.419 . S
C1864 C1865 1.363 . S
C1864 H1867 0.929 . S
C1865 C1864 1.363 . S
C1865 C1871 1.428 . S
H1866 C1862 0.930 . S
H1867 C1864 0.929 . S
S1868 N1869 1.613 . S
S1868 N1870 1.610 . S
N1869 S1868 1.613 . S
N1869 C1872 1.350 . S
N1870 S1868 1.610 . S
N1870 C1871 1.351 . S
C1871 C1865 1.428 . S
C1871 N1870 1.351 . S
C1871 C1872 1.434 . S
C1872 C1863 1.429 . S
C1872 N1869 1.350 . S
C1872 C1871 1.434 . S
C1873 C1874 1.369 . S
C1873 C1875 1.419 . S
C1873 H1877 0.930 . S
C1874 C1873 1.369 . S
C1874 C1883 1.429 . S
C1875 C1873 1.419 . S
C1875 C1876 1.363 . S
C1875 H1878 0.929 . S
C1876 C1875 1.363 . S
C1876 C1882 1.428 . S
H1877 C1873 0.930 . S
H1878 C1875 0.929 . S
S1879 N1880 1.613 . S
S1879 N1881 1.610 . S
N1880 S1879 1.613 . S
N1880 C1883 1.350 . S
N1881 S1879 1.610 . S
N1881 C1882 1.351 . S
C1882 C1876 1.428 . S
C1882 N1881 1.351 . S
C1882 C1883 1.434 . S
C1883 C1874 1.429 . S
C1883 N1880 1.350 . S
C1883 C1882 1.434 . S
C1884 C1885 1.369 . S
C1884 C1886 1.419 . S
C1884 H1888 0.930 . S
C1885 C1884 1.369 . S
C1885 C1894 1.429 . S
C1886 C1884 1.419 . S
C1886 C1887 1.363 . S
C1886 H1889 0.929 . S
C1887 C1886 1.363 . S
C1887 C1893 1.428 . S
H1888 C1884 0.930 . S
H1889 C1886 0.929 . S
S1890 N1891 1.613 . S
S1890 N1892 1.610 . S
N1891 S1890 1.613 . S
N1891 C1894 1.350 . S
N1892 S1890 1.610 . S
N1892 C1893 1.351 . S
C1893 C1887 1.428 . S
C1893 N1892 1.351 . S
C1893 C1894 1.434 . S
C1894 C1885 1.429 . S
C1894 N1891 1.350 . S
C1894 C1893 1.434 . S
C1895 C1896 1.369 . S
C1895 C1897 1.419 . S
C1895 H1899 0.930 . S
C1896 C1895 1.369 . S
C1896 C1905 1.429 . S
C1897 C1895 1.419 . S
C1897 C1898 1.363 . S
C1897 H1900 0.929 . S
C1898 C1897 1.363 . S
C1898 C1904 1.428 . S
H1899 C1895 0.930 . S
H1900 C1897 0.929 . S
S1901 N1902 1.613 . S
S1901 N1903 1.610 . S
N1902 S1901 1.613 . S
N1902 C1905 1.350 . S
N1903 S1901 1.610 . S
N1903 C1904 1.351 . S
C1904 C1898 1.428 . S
C1904 N1903 1.351 . S
C1904 C1905 1.434 . S
C1905 C1896 1.429 . S
C1905 N1902 1.350 . S
C1905 C1904 1.434 . S
C1906 C1907 1.369 . S
C1906 C1908 1.419 . S
C1906 H1910 0.930 . S
C1907 C1906 1.369 . S
C1907 C1916 1.429 . S
C1908 C1906 1.419 . S
C1908 C1909 1.363 . S
C1908 H1911 0.929 . S
C1909 C1908 1.363 . S
C1909 C1915 1.428 . S
H1910 C1906 0.930 . S
H1911 C1908 0.929 . S
S1912 N1913 1.613 . S
S1912 N1914 1.610 . S
N1913 S1912 1.613 . S
N1913 C1916 1.350 . S
N1914 S1912 1.610 . S
N1914 C1915 1.351 . S
C1915 C1909 1.428 . S
C1915 N1914 1.351 . S
C1915 C1916 1.434 . S
C1916 C1907 1.429 . S
C1916 N1913 1.350 . S
C1916 C1915 1.434 . S
C1917 C1918 1.369 . S
C1917 C1919 1.419 . S
C1917 H1921 0.930 . S
C1918 C1917 1.369 . S
C1918 C1927 1.429 . S
C1919 C1917 1.419 . S
C1919 C1920 1.363 . S
C1919 H1922 0.929 . S
C1920 C1919 1.363 . S
C1920 C1926 1.428 . S
H1921 C1917 0.930 . S
H1922 C1919 0.929 . S
S1923 N1924 1.613 . S
S1923 N1925 1.610 . S
N1924 S1923 1.613 . S
N1924 C1927 1.350 . S
N1925 S1923 1.610 . S
N1925 C1926 1.351 . S
C1926 C1920 1.428 . S
C1926 N1925 1.351 . S
C1926 C1927 1.434 . S
C1927 C1918 1.429 . S
C1927 N1924 1.350 . S
C1927 C1926 1.434 . S
C1928 C1929 1.369 . S
C1928 C1930 1.419 . S
C1928 H1932 0.930 . S
C1929 C1928 1.369 . S
C1929 C1938 1.429 . S
C1930 C1928 1.419 . S
C1930 C1931 1.363 . S
C1930 H1933 0.929 . S
C1931 C1930 1.363 . S
C1931 C1937 1.428 . S
H1932 C1928 0.930 . S
H1933 C1930 0.929 . S
S1934 N1935 1.613 . S
S1934 N1936 1.610 . S
N1935 S1934 1.613 . S
N1935 C1938 1.350 . S
N1936 S1934 1.610 . S
N1936 C1937 1.351 . S
C1937 C1931 1.428 . S
C1937 N1936 1.351 . S
C1937 C1938 1.434 . S
C1938 C1929 1.429 . S
C1938 N1935 1.350 . S
C1938 C1937 1.434 . S
C1939 C1940 1.369 . S
C1939 C1941 1.419 . S
C1939 H1943 0.930 . S
C1940 C1939 1.369 . S
C1940 C1949 1.429 . S
C1941 C1939 1.419 . S
C1941 C1942 1.363 . S
C1941 H1944 0.929 . S
C1942 C1941 1.363 . S
C1942 C1948 1.428 . S
H1943 C1939 0.930 . S
H1944 C1941 0.929 . S
S1945 N1946 1.613 . S
S1945 N1947 1.610 . S
N1946 S1945 1.613 . S
N1946 C1949 1.350 . S
N1947 S1945 1.610 . S
N1947 C1948 1.351 . S
C1948 C1942 1.428 . S
C1948 N1947 1.351 . S
C1948 C1949 1.434 . S
C1949 C1940 1.429 . S
C1949 N1946 1.350 . S
C1949 C1948 1.434 . S
C1950 C1951 1.369 . S
C1950 C1952 1.419 . S
C1950 H1954 0.930 . S
C1951 C1950 1.369 . S
C1951 C1960 1.429 . S
C1952 C1950 1.419 . S
C1952 C1953 1.363 . S
C1952 H1955 0.929 . S
C1953 C1952 1.363 . S
C1953 C1959 1.428 . S
H1954 C1950 0.930 . S
H1955 C1952 0.929 . S
S1956 N1957 1.613 . S
S1956 N1958 1.610 . S
N1957 S1956 1.613 . S
N1957 C1960 1.350 . S
N1958 S1956 1.610 . S
N1958 C1959 1.351 . S
C1959 C1953 1.428 . S
C1959 N1958 1.351 . S
C1959 C1960 1.434 . S
C1960 C1951 1.429 . S
C1960 N1957 1.350 . S
C1960 C1959 1.434 . S
C1961 C1962 1.369 . S
C1961 C1963 1.419 . S
C1961 H1965 0.930 . S
C1962 C1961 1.369 . S
C1962 C1971 1.429 . S
C1963 C1961 1.419 . S
C1963 C1964 1.363 . S
C1963 H1966 0.929 . S
C1964 C1963 1.363 . S
C1964 C1970 1.428 . S
H1965 C1961 0.930 . S
H1966 C1963 0.929 . S
S1967 N1968 1.613 . S
S1967 N1969 1.610 . S
N1968 S1967 1.613 . S
N1968 C1971 1.350 . S
N1969 S1967 1.610 . S
N1969 C1970 1.351 . S
C1970 C1964 1.428 . S
C1970 N1969 1.351 . S
C1970 C1971 1.434 . S
C1971 C1962 1.429 . S
C1971 N1968 1.350 . S
C1971 C1970 1.434 . S
C1972 C1973 1.369 . S
C1972 C1974 1.419 . S
C1972 H1976 0.930 . S
C1973 C1972 1.369 . S
C1973 C1982 1.429 . S
C1974 C1972 1.419 . S
C1974 C1975 1.363 . S
C1974 H1977 0.929 . S
C1975 C1974 1.363 . S
C1975 C1981 1.428 . S
H1976 C1972 0.930 . S
H1977 C1974 0.929 . S
S1978 N1979 1.613 . S
S1978 N1980 1.610 . S
N1979 S1978 1.613 . S
N1979 C1982 1.350 . S
N1980 S1978 1.610 . S
N1980 C1981 1.351 . S
C1981 C1975 1.428 . S
C1981 N1980 1.351 . S
C1981 C1982 1.434 . S
C1982 C1973 1.429 . S
C1982 N1979 1.350 . S
C1982 C1981 1.434 . S
C1983 C1984 1.369 . S
C1983 C1985 1.419 . S
C1983 H1987 0.930 . S
C1984 C1983 1.369 . S
C1984 C1993 1.429 . S
C1985 C1983 1.419 . S
C1985 C1986 1.363 . S
C1985 H1988 0.929 . S
C1986 C1985 1.363 . S
C1986 C1992 1.428 . S
H1987 C1983 0.930 . S
H1988 C1985 0.929 . S
S1989 N1990 1.613 . S
S1989 N1991 1.610 . S
N1990 S1989 1.613 . S
N1990 C1993 1.350 . S
N1991 S1989 1.610 . S
N1991 C1992 1.351 . S
C1992 C1986 1.428 . S
C1992 N1991 1.351 . S
C1992 C1993 1.434 . S
C1993 C1984 1.429 . S
C1993 N1990 1.350 . S
C1993 C1992 1.434 . S
C1994 C1995 1.369 . S
C1994 C1996 1.419 . S
C1994 H1998 0.930 . S
C1995 C1994 1.369 . S
C1995 C2004 1.429 . S
C1996 C1994 1.419 . S
C1996 C1997 1.363 . S
C1996 H1999 0.929 . S
C1997 C1996 1.363 . S
C1997 C2003 1.428 . S
H1998 C1994 0.930 . S
H1999 C1996 0.929 . S
S2000 N2001 1.613 . S
S2000 N2002 1.610 . S
N2001 S2000 1.613 . S
N2001 C2004 1.350 . S
N2002 S2000 1.610 . S
N2002 C2003 1.351 . S
C2003 C1997 1.428 . S
C2003 N2002 1.351 . S
C2003 C2004 1.434 . S
C2004 C1995 1.429 . S
C2004 N2001 1.350 . S
C2004 C2003 1.434 . S
C2005 C2006 1.369 . S
C2005 C2007 1.419 . S
C2005 H2009 0.930 . S
C2006 C2005 1.369 . S
C2006 C2015 1.429 . S
C2007 C2005 1.419 . S
C2007 C2008 1.363 . S
C2007 H2010 0.929 . S
C2008 C2007 1.363 . S
C2008 C2014 1.428 . S
H2009 C2005 0.930 . S
H2010 C2007 0.929 . S
S2011 N2012 1.613 . S
S2011 N2013 1.610 . S
N2012 S2011 1.613 . S
N2012 C2015 1.350 . S
N2013 S2011 1.610 . S
N2013 C2014 1.351 . S
C2014 C2008 1.428 . S
C2014 N2013 1.351 . S
C2014 C2015 1.434 . S
C2015 C2006 1.429 . S
C2015 N2012 1.350 . S
C2015 C2014 1.434 . S
C2016 C2017 1.369 . S
C2016 C2018 1.419 . S
C2016 H2020 0.930 . S
C2017 C2016 1.369 . S
C2017 C2026 1.429 . S
C2018 C2016 1.419 . S
C2018 C2019 1.363 . S
C2018 H2021 0.929 . S
C2019 C2018 1.363 . S
C2019 C2025 1.428 . S
H2020 C2016 0.930 . S
H2021 C2018 0.929 . S
S2022 N2023 1.613 . S
S2022 N2024 1.610 . S
N2023 S2022 1.613 . S
N2023 C2026 1.350 . S
N2024 S2022 1.610 . S
N2024 C2025 1.351 . S
C2025 C2019 1.428 . S
C2025 N2024 1.351 . S
C2025 C2026 1.434 . S
C2026 C2017 1.429 . S
C2026 N2023 1.350 . S
C2026 C2025 1.434 . S
C2027 C2028 1.369 . S
C2027 C2029 1.419 . S
C2027 H2031 0.930 . S
C2028 C2027 1.369 . S
C2028 C2037 1.429 . S
C2029 C2027 1.419 . S
C2029 C2030 1.363 . S
C2029 H2032 0.929 . S
C2030 C2029 1.363 . S
C2030 C2036 1.428 . S
H2031 C2027 0.930 . S
H2032 C2029 0.929 . S
S2033 N2034 1.613 . S
S2033 N2035 1.610 . S
N2034 S2033 1.613 . S
N2034 C2037 1.350 . S
N2035 S2033 1.610 . S
N2035 C2036 1.351 . S
C2036 C2030 1.428 . S
C2036 N2035 1.351 . S
C2036 C2037 1.434 . S
C2037 C2028 1.429 . S
C2037 N2034 1.350 . S
C2037 C2036 1.434 . S
C2038 C2039 1.369 . S
C2038 C2040 1.419 . S
C2038 H2042 0.930 . S
C2039 C2038 1.369 . S
C2039 C2048 1.429 . S
C2040 C2038 1.419 . S
C2040 C2041 1.363 . S
C2040 H2043 0.929 . S
C2041 C2040 1.363 . S
C2041 C2047 1.428 . S
H2042 C2038 0.930 . S
H2043 C2040 0.929 . S
S2044 N2045 1.613 . S
S2044 N2046 1.610 . S
N2045 S2044 1.613 . S
N2045 C2048 1.350 . S
N2046 S2044 1.610 . S
N2046 C2047 1.351 . S
C2047 C2041 1.428 . S
C2047 N2046 1.351 . S
C2047 C2048 1.434 . S
C2048 C2039 1.429 . S
C2048 N2045 1.350 . S
C2048 C2047 1.434 . S
C2049 C2050 1.369 . S
C2049 C2051 1.419 . S
C2049 H2053 0.930 . S
C2050 C2049 1.369 . S
C2050 C2059 1.429 . S
C2051 C2049 1.419 . S
C2051 C2052 1.363 . S
C2051 H2054 0.929 . S
C2052 C2051 1.363 . S
C2052 C2058 1.428 . S
H2053 C2049 0.930 . S
H2054 C2051 0.929 . S
S2055 N2056 1.613 . S
S2055 N2057 1.610 . S
N2056 S2055 1.613 . S
N2056 C2059 1.350 . S
N2057 S2055 1.610 . S
N2057 C2058 1.351 . S
C2058 C2052 1.428 . S
C2058 N2057 1.351 . S
C2058 C2059 1.434 . S
C2059 C2050 1.429 . S
C2059 N2056 1.350 . S
C2059 C2058 1.434 . S
C2060 C2061 1.369 . S
C2060 C2062 1.419 . S
C2060 H2064 0.930 . S
C2061 C2060 1.369 . S
C2061 C2070 1.429 . S
C2062 C2060 1.419 . S
C2062 C2063 1.363 . S
C2062 H2065 0.929 . S
C2063 C2062 1.363 . S
C2063 C2069 1.428 . S
H2064 C2060 0.930 . S
H2065 C2062 0.929 . S
S2066 N2067 1.613 . S
S2066 N2068 1.610 . S
N2067 S2066 1.613 . S
N2067 C2070 1.350 . S
N2068 S2066 1.610 . S
N2068 C2069 1.351 . S
C2069 C2063 1.428 . S
C2069 N2068 1.351 . S
C2069 C2070 1.434 . S
C2070 C2061 1.429 . S
C2070 N2067 1.350 . S
C2070 C2069 1.434 . S
C2071 C2072 1.369 . S
C2071 C2073 1.419 . S
C2071 H2075 0.930 . S
C2072 C2071 1.369 . S
C2072 C2081 1.429 . S
C2073 C2071 1.419 . S
C2073 C2074 1.363 . S
C2073 H2076 0.929 . S
C2074 C2073 1.363 . S
C2074 C2080 1.428 . S
H2075 C2071 0.930 . S
H2076 C2073 0.929 . S
S2077 N2078 1.613 . S
S2077 N2079 1.610 . S
N2078 S2077 1.613 . S
N2078 C2081 1.350 . S
N2079 S2077 1.610 . S
N2079 C2080 1.351 . S
C2080 C2074 1.428 . S
C2080 N2079 1.351 . S
C2080 C2081 1.434 . S
C2081 C2072 1.429 . S
C2081 N2078 1.350 . S
C2081 C2080 1.434 . S
C2082 C2083 1.369 . S
C2082 C2084 1.419 . S
C2082 H2086 0.930 . S
C2083 C2082 1.369 . S
C2083 C2092 1.429 . S
C2084 C2082 1.419 . S
C2084 C2085 1.363 . S
C2084 H2087 0.929 . S
C2085 C2084 1.363 . S
C2085 C2091 1.428 . S
H2086 C2082 0.930 . S
H2087 C2084 0.929 . S
S2088 N2089 1.613 . S
S2088 N2090 1.610 . S
N2089 S2088 1.613 . S
N2089 C2092 1.350 . S
N2090 S2088 1.610 . S
N2090 C2091 1.351 . S
C2091 C2085 1.428 . S
C2091 N2090 1.351 . S
C2091 C2092 1.434 . S
C2092 C2083 1.429 . S
C2092 N2089 1.350 . S
C2092 C2091 1.434 . S
C2093 C2094 1.369 . S
C2093 C2095 1.419 . S
C2093 H2097 0.930 . S
C2094 C2093 1.369 . S
C2094 C2103 1.429 . S
C2095 C2093 1.419 . S
C2095 C2096 1.363 . S
C2095 H2098 0.929 . S
C2096 C2095 1.363 . S
C2096 C2102 1.428 . S
H2097 C2093 0.930 . S
H2098 C2095 0.929 . S
S2099 N2100 1.613 . S
S2099 N2101 1.610 . S
N2100 S2099 1.613 . S
N2100 C2103 1.350 . S
N2101 S2099 1.610 . S
N2101 C2102 1.351 . S
C2102 C2096 1.428 . S
C2102 N2101 1.351 . S
C2102 C2103 1.434 . S
C2103 C2094 1.429 . S
C2103 N2100 1.350 . S
C2103 C2102 1.434 . S
C2104 C2105 1.369 . S
C2104 C2106 1.419 . S
C2104 H2108 0.930 . S
C2105 C2104 1.369 . S
C2105 C2114 1.429 . S
C2106 C2104 1.419 . S
C2106 C2107 1.363 . S
C2106 H2109 0.929 . S
C2107 C2106 1.363 . S
C2107 C2113 1.428 . S
H2108 C2104 0.930 . S
H2109 C2106 0.929 . S
S2110 N2111 1.613 . S
S2110 N2112 1.610 . S
N2111 S2110 1.613 . S
N2111 C2114 1.350 . S
N2112 S2110 1.610 . S
N2112 C2113 1.351 . S
C2113 C2107 1.428 . S
C2113 N2112 1.351 . S
C2113 C2114 1.434 . S
C2114 C2105 1.429 . S
C2114 N2111 1.350 . S
C2114 C2113 1.434 . S
C2115 C2116 1.369 . S
C2115 C2117 1.419 . S
C2115 H2119 0.930 . S
C2116 C2115 1.369 . S
C2116 C2125 1.429 . S
C2117 C2115 1.419 . S
C2117 C2118 1.363 . S
C2117 H2120 0.929 . S
C2118 C2117 1.363 . S
C2118 C2124 1.428 . S
H2119 C2115 0.930 . S
H2120 C2117 0.929 . S
S2121 N2122 1.613 . S
S2121 N2123 1.610 . S
N2122 S2121 1.613 . S
N2122 C2125 1.350 . S
N2123 S2121 1.610 . S
N2123 C2124 1.351 . S
C2124 C2118 1.428 . S
C2124 N2123 1.351 . S
C2124 C2125 1.434 . S
C2125 C2116 1.429 . S
C2125 N2122 1.350 . S
C2125 C2124 1.434 . S
C2126 C2127 1.369 . S
C2126 C2128 1.419 . S
C2126 H2130 0.930 . S
C2127 C2126 1.369 . S
C2127 C2136 1.429 . S
C2128 C2126 1.419 . S
C2128 C2129 1.363 . S
C2128 H2131 0.929 . S
C2129 C2128 1.363 . S
C2129 C2135 1.428 . S
H2130 C2126 0.930 . S
H2131 C2128 0.929 . S
S2132 N2133 1.613 . S
S2132 N2134 1.610 . S
N2133 S2132 1.613 . S
N2133 C2136 1.350 . S
N2134 S2132 1.610 . S
N2134 C2135 1.351 . S
C2135 C2129 1.428 . S
C2135 N2134 1.351 . S
C2135 C2136 1.434 . S
C2136 C2127 1.429 . S
C2136 N2133 1.350 . S
C2136 C2135 1.434 . S
C2137 C2138 1.369 . S
C2137 C2139 1.419 . S
C2137 H2141 0.930 . S
C2138 C2137 1.369 . S
C2138 C2147 1.429 . S
C2139 C2137 1.419 . S
C2139 C2140 1.363 . S
C2139 H2142 0.929 . S
C2140 C2139 1.363 . S
C2140 C2146 1.428 . S
H2141 C2137 0.930 . S
H2142 C2139 0.929 . S
S2143 N2144 1.613 . S
S2143 N2145 1.610 . S
N2144 S2143 1.613 . S
N2144 C2147 1.350 . S
N2145 S2143 1.610 . S
N2145 C2146 1.351 . S
C2146 C2140 1.428 . S
C2146 N2145 1.351 . S
C2146 C2147 1.434 . S
C2147 C2138 1.429 . S
C2147 N2144 1.350 . S
C2147 C2146 1.434 . S
C2148 C2149 1.369 . S
C2148 C2150 1.419 . S
C2148 H2152 0.930 . S
C2149 C2148 1.369 . S
C2149 C2158 1.429 . S
C2150 C2148 1.419 . S
C2150 C2151 1.363 . S
C2150 H2153 0.929 . S
C2151 C2150 1.363 . S
C2151 C2157 1.428 . S
H2152 C2148 0.930 . S
H2153 C2150 0.929 . S
S2154 N2155 1.613 . S
S2154 N2156 1.610 . S
N2155 S2154 1.613 . S
N2155 C2158 1.350 . S
N2156 S2154 1.610 . S
N2156 C2157 1.351 . S
C2157 C2151 1.428 . S
C2157 N2156 1.351 . S
C2157 C2158 1.434 . S
C2158 C2149 1.429 . S
C2158 N2155 1.350 . S
C2158 C2157 1.434 . S
C2159 C2160 1.369 . S
C2159 C2161 1.419 . S
C2159 H2163 0.930 . S
C2160 C2159 1.369 . S
C2160 C2169 1.429 . S
C2161 C2159 1.419 . S
C2161 C2162 1.363 . S
C2161 H2164 0.929 . S
C2162 C2161 1.363 . S
C2162 C2168 1.428 . S
H2163 C2159 0.930 . S
H2164 C2161 0.929 . S
S2165 N2166 1.613 . S
S2165 N2167 1.610 . S
N2166 S2165 1.613 . S
N2166 C2169 1.350 . S
N2167 S2165 1.610 . S
N2167 C2168 1.351 . S
C2168 C2162 1.428 . S
C2168 N2167 1.351 . S
C2168 C2169 1.434 . S
C2169 C2160 1.429 . S
C2169 N2166 1.350 . S
C2169 C2168 1.434 . S
C2170 C2171 1.369 . S
C2170 C2172 1.419 . S
C2170 H2174 0.930 . S
C2171 C2170 1.369 . S
C2171 C2180 1.429 . S
C2172 C2170 1.419 . S
C2172 C2173 1.363 . S
C2172 H2175 0.929 . S
C2173 C2172 1.363 . S
C2173 C2179 1.428 . S
H2174 C2170 0.930 . S
H2175 C2172 0.929 . S
S2176 N2177 1.613 . S
S2176 N2178 1.610 . S
N2177 S2176 1.613 . S
N2177 C2180 1.350 . S
N2178 S2176 1.610 . S
N2178 C2179 1.351 . S
C2179 C2173 1.428 . S
C2179 N2178 1.351 . S
C2179 C2180 1.434 . S
C2180 C2171 1.429 . S
C2180 N2177 1.350 . S
C2180 C2179 1.434 . S
C2181 C2182 1.369 . S
C2181 C2183 1.419 . S
C2181 H2185 0.930 . S
C2182 C2181 1.369 . S
C2182 C2191 1.429 . S
C2183 C2181 1.419 . S
C2183 C2184 1.363 . S
C2183 H2186 0.929 . S
C2184 C2183 1.363 . S
C2184 C2190 1.428 . S
H2185 C2181 0.930 . S
H2186 C2183 0.929 . S
S2187 N2188 1.613 . S
S2187 N2189 1.610 . S
N2188 S2187 1.613 . S
N2188 C2191 1.350 . S
N2189 S2187 1.610 . S
N2189 C2190 1.351 . S
C2190 C2184 1.428 . S
C2190 N2189 1.351 . S
C2190 C2191 1.434 . S
C2191 C2182 1.429 . S
C2191 N2188 1.350 . S
C2191 C2190 1.434 . S
C2192 C2193 1.369 . S
C2192 C2194 1.419 . S
C2192 H2196 0.930 . S
C2193 C2192 1.369 . S
C2193 C2202 1.429 . S
C2194 C2192 1.419 . S
C2194 C2195 1.363 . S
C2194 H2197 0.929 . S
C2195 C2194 1.363 . S
C2195 C2201 1.428 . S
H2196 C2192 0.930 . S
H2197 C2194 0.929 . S
S2198 N2199 1.613 . S
S2198 N2200 1.610 . S
N2199 S2198 1.613 . S
N2199 C2202 1.350 . S
N2200 S2198 1.610 . S
N2200 C2201 1.351 . S
C2201 C2195 1.428 . S
C2201 N2200 1.351 . S
C2201 C2202 1.434 . S
C2202 C2193 1.429 . S
C2202 N2199 1.350 . S
C2202 C2201 1.434 . S
C2203 C2204 1.369 . S
C2203 C2205 1.419 . S
C2203 H2207 0.930 . S
C2204 C2203 1.369 . S
C2204 C2213 1.429 . S
C2205 C2203 1.419 . S
C2205 C2206 1.363 . S
C2205 H2208 0.929 . S
C2206 C2205 1.363 . S
C2206 C2212 1.428 . S
H2207 C2203 0.930 . S
H2208 C2205 0.929 . S
S2209 N2210 1.613 . S
S2209 N2211 1.610 . S
N2210 S2209 1.613 . S
N2210 C2213 1.350 . S
N2211 S2209 1.610 . S
N2211 C2212 1.351 . S
C2212 C2206 1.428 . S
C2212 N2211 1.351 . S
C2212 C2213 1.434 . S
C2213 C2204 1.429 . S
C2213 N2210 1.350 . S
C2213 C2212 1.434 . S
C2214 C2215 1.369 . S
C2214 C2216 1.419 . S
C2214 H2218 0.930 . S
C2215 C2214 1.369 . S
C2215 C2224 1.429 . S
C2216 C2214 1.419 . S
C2216 C2217 1.363 . S
C2216 H2219 0.929 . S
C2217 C2216 1.363 . S
C2217 C2223 1.428 . S
H2218 C2214 0.930 . S
H2219 C2216 0.929 . S
S2220 N2221 1.613 1_556 S
S2220 N2222 1.610 . S
N2221 S2220 1.613 1_554 S
N2221 C2224 1.350 1_554 S
N2222 S2220 1.610 . S
N2222 C2223 1.351 . S
C2223 C2217 1.428 . S
C2223 N2222 1.351 . S
C2223 C2224 1.434 . S
C2224 C2215 1.429 . S
C2224 N2221 1.350 1_556 S
C2224 C2223 1.434 . S
C2225 C2226 1.369 . S
C2225 C2227 1.419 . S
C2225 H2229 0.930 . S
C2226 C2225 1.369 . S
C2226 C2235 1.429 . S
C2227 C2225 1.419 . S
C2227 C2228 1.363 . S
C2227 H2230 0.929 . S
C2228 C2227 1.363 . S
C2228 C2234 1.428 . S
H2229 C2225 0.930 . S
H2230 C2227 0.929 . S
S2231 N2232 1.613 . S
S2231 N2233 1.610 . S
N2232 S2231 1.613 . S
N2232 C2235 1.350 . S
N2233 S2231 1.610 . S
N2233 C2234 1.351 . S
C2234 C2228 1.428 . S
C2234 N2233 1.351 . S
C2234 C2235 1.434 . S
C2235 C2226 1.429 . S
C2235 N2232 1.350 . S
C2235 C2234 1.434 . S
C2236 C2237 1.369 . S
C2236 C2238 1.419 . S
C2236 H2240 0.930 1_556 S
C2237 C2236 1.369 . S
C2237 C2246 1.429 . S
C2238 C2236 1.419 . S
C2238 C2239 1.363 . S
C2238 H2241 0.929 . S
C2239 C2238 1.363 . S
C2239 C2245 1.428 . S
H2240 C2236 0.930 1_554 S
H2241 C2238 0.929 . S
S2242 N2243 1.613 . S
S2242 N2244 1.610 . S
N2243 S2242 1.613 . S
N2243 C2246 1.350 . S
N2244 S2242 1.610 . S
N2244 C2245 1.351 . S
C2245 C2239 1.428 . S
C2245 N2244 1.351 . S
C2245 C2246 1.434 . S
C2246 C2237 1.429 . S
C2246 N2243 1.350 . S
C2246 C2245 1.434 . S
C2247 C2248 1.369 . S
C2247 C2249 1.419 . S
C2247 H2251 0.930 . S
C2248 C2247 1.369 . S
C2248 C2257 1.429 . S
C2249 C2247 1.419 . S
C2249 C2250 1.363 . S
C2249 H2252 0.929 . S
C2250 C2249 1.363 . S
C2250 C2256 1.428 . S
H2251 C2247 0.930 . S
H2252 C2249 0.929 . S
S2253 N2254 1.613 . S
S2253 N2255 1.610 . S
N2254 S2253 1.613 . S
N2254 C2257 1.350 . S
N2255 S2253 1.610 . S
N2255 C2256 1.351 . S
C2256 C2250 1.428 . S
C2256 N2255 1.351 . S
C2256 C2257 1.434 . S
C2257 C2248 1.429 . S
C2257 N2254 1.350 . S
C2257 C2256 1.434 . S
C2258 C2259 1.369 . S
C2258 C2260 1.419 . S
C2258 H2262 0.930 . S
C2259 C2258 1.369 . S
C2259 C2268 1.429 . S
C2260 C2258 1.419 . S
C2260 C2261 1.363 . S
C2260 H2263 0.929 . S
C2261 C2260 1.363 . S
C2261 C2267 1.428 . S
H2262 C2258 0.930 . S
H2263 C2260 0.929 . S
S2264 N2265 1.613 . S
S2264 N2266 1.610 . S
N2265 S2264 1.613 . S
N2265 C2268 1.350 . S
N2266 S2264 1.610 . S
N2266 C2267 1.351 . S
C2267 C2261 1.428 . S
C2267 N2266 1.351 . S
C2267 C2268 1.434 . S
C2268 C2259 1.429 . S
C2268 N2265 1.350 . S
C2268 C2267 1.434 . S
C2269 C2270 1.369 . S
C2269 C2271 1.419 . S
C2269 H2273 0.930 . S
C2270 C2269 1.369 . S
C2270 C2279 1.429 . S
C2271 C2269 1.419 . S
C2271 C2272 1.363 . S
C2271 H2274 0.929 . S
C2272 C2271 1.363 . S
C2272 C2278 1.428 . S
H2273 C2269 0.930 . S
H2274 C2271 0.929 . S
S2275 N2276 1.613 . S
S2275 N2277 1.610 . S
N2276 S2275 1.613 . S
N2276 C2279 1.350 . S
N2277 S2275 1.610 . S
N2277 C2278 1.351 . S
C2278 C2272 1.428 . S
C2278 N2277 1.351 . S
C2278 C2279 1.434 . S
C2279 C2270 1.429 . S
C2279 N2276 1.350 . S
C2279 C2278 1.434 . S
C2280 C2281 1.369 . S
C2280 C2282 1.419 . S
C2280 H2284 0.930 . S
C2281 C2280 1.369 . S
C2281 C2290 1.429 . S
C2282 C2280 1.419 . S
C2282 C2283 1.363 . S
C2282 H2285 0.929 . S
C2283 C2282 1.363 . S
C2283 C2289 1.428 . S
H2284 C2280 0.930 . S
H2285 C2282 0.929 . S
S2286 N2287 1.613 . S
S2286 N2288 1.610 . S
N2287 S2286 1.613 . S
N2287 C2290 1.350 . S
N2288 S2286 1.610 . S
N2288 C2289 1.351 . S
C2289 C2283 1.428 . S
C2289 N2288 1.351 . S
C2289 C2290 1.434 . S
C2290 C2281 1.429 . S
C2290 N2287 1.350 . S
C2290 C2289 1.434 . S
C2291 C2292 1.369 . S
C2291 C2293 1.419 . S
C2291 H2295 0.930 . S
C2292 C2291 1.369 . S
C2292 C2301 1.429 . S
C2293 C2291 1.419 . S
C2293 C2294 1.363 . S
C2293 H2296 0.929 . S
C2294 C2293 1.363 . S
C2294 C2300 1.428 . S
H2295 C2291 0.930 . S
H2296 C2293 0.929 . S
S2297 N2298 1.613 . S
S2297 N2299 1.610 . S
N2298 S2297 1.613 . S
N2298 C2301 1.350 . S
N2299 S2297 1.610 . S
N2299 C2300 1.351 . S
C2300 C2294 1.428 . S
C2300 N2299 1.351 . S
C2300 C2301 1.434 . S
C2301 C2292 1.429 . S
C2301 N2298 1.350 . S
C2301 C2300 1.434 . S
C2302 C2303 1.369 . S
C2302 C2304 1.419 . S
C2302 H2306 0.930 . S
C2303 C2302 1.369 . S
C2303 C2312 1.429 . S
C2304 C2302 1.419 . S
C2304 C2305 1.363 . S
C2304 H2307 0.929 . S
C2305 C2304 1.363 . S
C2305 C2311 1.428 . S
H2306 C2302 0.930 . S
H2307 C2304 0.929 . S
S2308 N2309 1.613 . S
S2308 N2310 1.610 . S
N2309 S2308 1.613 . S
N2309 C2312 1.350 . S
N2310 S2308 1.610 . S
N2310 C2311 1.351 . S
C2311 C2305 1.428 . S
C2311 N2310 1.351 . S
C2311 C2312 1.434 . S
C2312 C2303 1.429 . S
C2312 N2309 1.350 . S
C2312 C2311 1.434 . S
C2313 C2314 1.369 . S
C2313 C2315 1.419 . S
C2313 H2317 0.930 . S
C2314 C2313 1.369 . S
C2314 C2323 1.429 . S
C2315 C2313 1.419 . S
C2315 C2316 1.363 . S
C2315 H2318 0.929 . S
C2316 C2315 1.363 . S
C2316 C2322 1.428 . S
H2317 C2313 0.930 . S
H2318 C2315 0.929 . S
S2319 N2320 1.613 . S
S2319 N2321 1.610 . S
N2320 S2319 1.613 . S
N2320 C2323 1.350 . S
N2321 S2319 1.610 . S
N2321 C2322 1.351 . S
C2322 C2316 1.428 . S
C2322 N2321 1.351 . S
C2322 C2323 1.434 . S
C2323 C2314 1.429 . S
C2323 N2320 1.350 . S
C2323 C2322 1.434 . S
C2324 C2325 1.369 . S
C2324 C2326 1.419 . S
C2324 H2328 0.930 . S
C2325 C2324 1.369 . S
C2325 C2334 1.429 . S
C2326 C2324 1.419 . S
C2326 C2327 1.363 . S
C2326 H2329 0.929 . S
C2327 C2326 1.363 . S
C2327 C2333 1.428 . S
H2328 C2324 0.930 . S
H2329 C2326 0.929 . S
S2330 N2331 1.613 . S
S2330 N2332 1.610 . S
N2331 S2330 1.613 . S
N2331 C2334 1.350 . S
N2332 S2330 1.610 . S
N2332 C2333 1.351 . S
C2333 C2327 1.428 . S
C2333 N2332 1.351 . S
C2333 C2334 1.434 . S
C2334 C2325 1.429 . S
C2334 N2331 1.350 . S
C2334 C2333 1.434 . S
C2335 C2336 1.369 . S
C2335 C2337 1.419 . S
C2335 H2339 0.930 . S
C2336 C2335 1.369 . S
C2336 C2345 1.429 . S
C2337 C2335 1.419 . S
C2337 C2338 1.363 . S
C2337 H2340 0.929 . S
C2338 C2337 1.363 . S
C2338 C2344 1.428 . S
H2339 C2335 0.930 . S
H2340 C2337 0.929 . S
S2341 N2342 1.613 . S
S2341 N2343 1.610 . S
N2342 S2341 1.613 . S
N2342 C2345 1.350 . S
N2343 S2341 1.610 . S
N2343 C2344 1.351 . S
C2344 C2338 1.428 . S
C2344 N2343 1.351 . S
C2344 C2345 1.434 . S
C2345 C2336 1.429 . S
C2345 N2342 1.350 . S
C2345 C2344 1.434 . S
C2346 C2347 1.369 . S
C2346 C2348 1.419 . S
C2346 H2350 0.930 . S
C2347 C2346 1.369 . S
C2347 C2356 1.429 . S
C2348 C2346 1.419 . S
C2348 C2349 1.363 . S
C2348 H2351 0.929 . S
C2349 C2348 1.363 . S
C2349 C2355 1.428 . S
H2350 C2346 0.930 . S
H2351 C2348 0.929 . S
S2352 N2353 1.613 . S
S2352 N2354 1.610 . S
N2353 S2352 1.613 . S
N2353 C2356 1.350 . S
N2354 S2352 1.610 . S
N2354 C2355 1.351 . S
C2355 C2349 1.428 . S
C2355 N2354 1.351 . S
C2355 C2356 1.434 . S
C2356 C2347 1.429 . S
C2356 N2353 1.350 . S
C2356 C2355 1.434 . S
C2357 C2358 1.369 . S
C2357 C2359 1.419 . S
C2357 H2361 0.930 . S
C2358 C2357 1.369 . S
C2358 C2367 1.429 . S
C2359 C2357 1.419 . S
C2359 C2360 1.363 . S
C2359 H2362 0.929 . S
C2360 C2359 1.363 . S
C2360 C2366 1.428 . S
H2361 C2357 0.930 . S
H2362 C2359 0.929 . S
S2363 N2364 1.613 . S
S2363 N2365 1.610 . S
N2364 S2363 1.613 . S
N2364 C2367 1.350 . S
N2365 S2363 1.610 . S
N2365 C2366 1.351 . S
C2366 C2360 1.428 . S
C2366 N2365 1.351 . S
C2366 C2367 1.434 . S
C2367 C2358 1.429 . S
C2367 N2364 1.350 . S
C2367 C2366 1.434 . S
C2368 C2369 1.369 . S
C2368 C2370 1.419 . S
C2368 H2372 0.930 . S
C2369 C2368 1.369 . S
C2369 C2378 1.429 . S
C2370 C2368 1.419 . S
C2370 C2371 1.363 . S
C2370 H2373 0.929 . S
C2371 C2370 1.363 . S
C2371 C2377 1.428 . S
H2372 C2368 0.930 . S
H2373 C2370 0.929 . S
S2374 N2375 1.613 . S
S2374 N2376 1.610 . S
N2375 S2374 1.613 . S
N2375 C2378 1.350 . S
N2376 S2374 1.610 . S
N2376 C2377 1.351 . S
C2377 C2371 1.428 . S
C2377 N2376 1.351 . S
C2377 C2378 1.434 . S
C2378 C2369 1.429 . S
C2378 N2375 1.350 . S
C2378 C2377 1.434 . S
C2379 C2380 1.369 . S
C2379 C2381 1.419 . S
C2379 H2383 0.930 . S
C2380 C2379 1.369 . S
C2380 C2389 1.429 . S
C2381 C2379 1.419 . S
C2381 C2382 1.363 . S
C2381 H2384 0.929 . S
C2382 C2381 1.363 . S
C2382 C2388 1.428 . S
H2383 C2379 0.930 . S
H2384 C2381 0.929 . S
S2385 N2386 1.613 . S
S2385 N2387 1.610 . S
N2386 S2385 1.613 . S
N2386 C2389 1.350 . S
N2387 S2385 1.610 . S
N2387 C2388 1.351 . S
C2388 C2382 1.428 . S
C2388 N2387 1.351 . S
C2388 C2389 1.434 . S
C2389 C2380 1.429 . S
C2389 N2386 1.350 . S
C2389 C2388 1.434 . S
C2390 C2391 1.369 . S
C2390 C2392 1.419 . S
C2390 H2394 0.930 . S
C2391 C2390 1.369 . S
C2391 C2400 1.429 . S
C2392 C2390 1.419 . S
C2392 C2393 1.363 . S
C2392 H2395 0.929 . S
C2393 C2392 1.363 . S
C2393 C2399 1.428 . S
H2394 C2390 0.930 . S
H2395 C2392 0.929 . S
S2396 N2397 1.613 . S
S2396 N2398 1.610 . S
N2397 S2396 1.613 . S
N2397 C2400 1.350 . S
N2398 S2396 1.610 . S
N2398 C2399 1.351 . S
C2399 C2393 1.428 . S
C2399 N2398 1.351 . S
C2399 C2400 1.434 . S
C2400 C2391 1.429 . S
C2400 N2397 1.350 . S
C2400 C2399 1.434 . S
C2401 C2402 1.369 . S
C2401 C2403 1.419 . S
C2401 H2405 0.930 . S
C2402 C2401 1.369 . S
C2402 C2411 1.429 . S
C2403 C2401 1.419 . S
C2403 C2404 1.363 . S
C2403 H2406 0.929 . S
C2404 C2403 1.363 . S
C2404 C2410 1.428 . S
H2405 C2401 0.930 . S
H2406 C2403 0.929 . S
S2407 N2408 1.613 . S
S2407 N2409 1.610 . S
N2408 S2407 1.613 . S
N2408 C2411 1.350 . S
N2409 S2407 1.610 . S
N2409 C2410 1.351 . S
C2410 C2404 1.428 . S
C2410 N2409 1.351 . S
C2410 C2411 1.434 . S
C2411 C2402 1.429 . S
C2411 N2408 1.350 . S
C2411 C2410 1.434 . S
C2412 C2413 1.369 . S
C2412 C2414 1.419 . S
C2412 H2416 0.930 . S
C2413 C2412 1.369 . S
C2413 C2422 1.429 . S
C2414 C2412 1.419 . S
C2414 C2415 1.363 . S
C2414 H2417 0.929 . S
C2415 C2414 1.363 . S
C2415 C2421 1.428 . S
H2416 C2412 0.930 . S
H2417 C2414 0.929 . S
S2418 N2419 1.613 . S
S2418 N2420 1.610 . S
N2419 S2418 1.613 . S
N2419 C2422 1.350 . S
N2420 S2418 1.610 . S
N2420 C2421 1.351 . S
C2421 C2415 1.428 . S
C2421 N2420 1.351 . S
C2421 C2422 1.434 . S
C2422 C2413 1.429 . S
C2422 N2419 1.350 . S
C2422 C2421 1.434 . S
C2423 C2424 1.369 . S
C2423 C2425 1.419 . S
C2423 H2427 0.930 . S
C2424 C2423 1.369 . S
C2424 C2433 1.429 . S
C2425 C2423 1.419 . S
C2425 C2426 1.363 . S
C2425 H2428 0.929 . S
C2426 C2425 1.363 . S
C2426 C2432 1.428 . S
H2427 C2423 0.930 . S
H2428 C2425 0.929 . S
S2429 N2430 1.613 . S
S2429 N2431 1.610 . S
N2430 S2429 1.613 . S
N2430 C2433 1.350 . S
N2431 S2429 1.610 . S
N2431 C2432 1.351 . S
C2432 C2426 1.428 . S
C2432 N2431 1.351 . S
C2432 C2433 1.434 . S
C2433 C2424 1.429 . S
C2433 N2430 1.350 . S
C2433 C2432 1.434 . S
C2434 C2435 1.369 . S
C2434 C2436 1.419 . S
C2434 H2438 0.930 . S
C2435 C2434 1.369 . S
C2435 C2444 1.429 . S
C2436 C2434 1.419 . S
C2436 C2437 1.363 . S
C2436 H2439 0.929 . S
C2437 C2436 1.363 . S
C2437 C2443 1.428 . S
H2438 C2434 0.930 . S
H2439 C2436 0.929 . S
S2440 N2441 1.613 . S
S2440 N2442 1.610 . S
N2441 S2440 1.613 . S
N2441 C2444 1.350 . S
N2442 S2440 1.610 . S
N2442 C2443 1.351 . S
C2443 C2437 1.428 . S
C2443 N2442 1.351 . S
C2443 C2444 1.434 . S
C2444 C2435 1.429 . S
C2444 N2441 1.350 . S
C2444 C2443 1.434 . S
C2445 C2446 1.369 . S
C2445 C2447 1.419 . S
C2445 H2449 0.930 . S
C2446 C2445 1.369 . S
C2446 C2455 1.429 . S
C2447 C2445 1.419 . S
C2447 C2448 1.363 . S
C2447 H2450 0.929 . S
C2448 C2447 1.363 . S
C2448 C2454 1.428 . S
H2449 C2445 0.930 . S
H2450 C2447 0.929 . S
S2451 N2452 1.613 . S
S2451 N2453 1.610 . S
N2452 S2451 1.613 . S
N2452 C2455 1.350 . S
N2453 S2451 1.610 . S
N2453 C2454 1.351 . S
C2454 C2448 1.428 . S
C2454 N2453 1.351 . S
C2454 C2455 1.434 . S
C2455 C2446 1.429 . S
C2455 N2452 1.350 . S
C2455 C2454 1.434 . S
C2456 C2457 1.369 . S
C2456 C2458 1.419 . S
C2456 H2460 0.930 . S
C2457 C2456 1.369 . S
C2457 C2466 1.429 . S
C2458 C2456 1.419 . S
C2458 C2459 1.363 . S
C2458 H2461 0.929 . S
C2459 C2458 1.363 . S
C2459 C2465 1.428 . S
H2460 C2456 0.930 . S
H2461 C2458 0.929 . S
S2462 N2463 1.613 . S
S2462 N2464 1.610 . S
N2463 S2462 1.613 . S
N2463 C2466 1.350 . S
N2464 S2462 1.610 . S
N2464 C2465 1.351 . S
C2465 C2459 1.428 . S
C2465 N2464 1.351 . S
C2465 C2466 1.434 . S
C2466 C2457 1.429 . S
C2466 N2463 1.350 . S
C2466 C2465 1.434 . S
C2467 C2468 1.369 . S
C2467 C2469 1.419 . S
C2467 H2471 0.930 . S
C2468 C2467 1.369 . S
C2468 C2477 1.429 . S
C2469 C2467 1.419 . S
C2469 C2470 1.363 . S
C2469 H2472 0.929 . S
C2470 C2469 1.363 . S
C2470 C2476 1.428 . S
H2471 C2467 0.930 . S
H2472 C2469 0.929 . S
S2473 N2474 1.613 . S
S2473 N2475 1.610 . S
N2474 S2473 1.613 . S
N2474 C2477 1.350 . S
N2475 S2473 1.610 . S
N2475 C2476 1.351 . S
C2476 C2470 1.428 . S
C2476 N2475 1.351 . S
C2476 C2477 1.434 . S
C2477 C2468 1.429 . S
C2477 N2474 1.350 . S
C2477 C2476 1.434 . S
C2478 C2479 1.369 . S
C2478 C2480 1.419 . S
C2478 H2482 0.930 . S
C2479 C2478 1.369 . S
C2479 C2488 1.429 . S
C2480 C2478 1.419 . S
C2480 C2481 1.363 . S
C2480 H2483 0.929 . S
C2481 C2480 1.363 . S
C2481 C2487 1.428 . S
H2482 C2478 0.930 . S
H2483 C2480 0.929 . S
S2484 N2485 1.613 . S
S2484 N2486 1.610 . S
N2485 S2484 1.613 . S
N2485 C2488 1.350 . S
N2486 S2484 1.610 . S
N2486 C2487 1.351 . S
C2487 C2481 1.428 . S
C2487 N2486 1.351 . S
C2487 C2488 1.434 . S
C2488 C2479 1.429 . S
C2488 N2485 1.350 . S
C2488 C2487 1.434 . S
C2489 C2490 1.369 . S
C2489 C2491 1.419 . S
C2489 H2493 0.930 . S
C2490 C2489 1.369 . S
C2490 C2499 1.429 . S
C2491 C2489 1.419 . S
C2491 C2492 1.363 . S
C2491 H2494 0.929 . S
C2492 C2491 1.363 . S
C2492 C2498 1.428 . S
H2493 C2489 0.930 . S
H2494 C2491 0.929 . S
S2495 N2496 1.613 . S
S2495 N2497 1.610 . S
N2496 S2495 1.613 . S
N2496 C2499 1.350 . S
N2497 S2495 1.610 . S
N2497 C2498 1.351 . S
C2498 C2492 1.428 . S
C2498 N2497 1.351 . S
C2498 C2499 1.434 . S
C2499 C2490 1.429 . S
C2499 N2496 1.350 . S
C2499 C2498 1.434 . S
C2500 C2501 1.369 . S
C2500 C2502 1.419 . S
C2500 H2504 0.930 . S
C2501 C2500 1.369 . S
C2501 C2510 1.429 . S
C2502 C2500 1.419 . S
C2502 C2503 1.363 . S
C2502 H2505 0.929 . S
C2503 C2502 1.363 . S
C2503 C2509 1.428 . S
H2504 C2500 0.930 . S
H2505 C2502 0.929 . S
S2506 N2507 1.613 . S
S2506 N2508 1.610 . S
N2507 S2506 1.613 . S
N2507 C2510 1.350 . S
N2508 S2506 1.610 . S
N2508 C2509 1.351 . S
C2509 C2503 1.428 . S
C2509 N2508 1.351 . S
C2509 C2510 1.434 . S
C2510 C2501 1.429 . S
C2510 N2507 1.350 . S
C2510 C2509 1.434 . S
C2511 C2512 1.369 . S
C2511 C2513 1.419 . S
C2511 H2515 0.930 . S
C2512 C2511 1.369 . S
C2512 C2521 1.429 . S
C2513 C2511 1.419 . S
C2513 C2514 1.363 . S
C2513 H2516 0.929 . S
C2514 C2513 1.363 . S
C2514 C2520 1.428 . S
H2515 C2511 0.930 . S
H2516 C2513 0.929 . S
S2517 N2518 1.613 . S
S2517 N2519 1.610 . S
N2518 S2517 1.613 . S
N2518 C2521 1.350 . S
N2519 S2517 1.610 . S
N2519 C2520 1.351 . S
C2520 C2514 1.428 . S
C2520 N2519 1.351 . S
C2520 C2521 1.434 . S
C2521 C2512 1.429 . S
C2521 N2518 1.350 . S
C2521 C2520 1.434 . S
C2522 C2523 1.369 . S
C2522 C2524 1.419 . S
C2522 H2526 0.930 . S
C2523 C2522 1.369 . S
C2523 C2532 1.429 . S
C2524 C2522 1.419 . S
C2524 C2525 1.363 . S
C2524 H2527 0.929 . S
C2525 C2524 1.363 . S
C2525 C2531 1.428 . S
H2526 C2522 0.930 . S
H2527 C2524 0.929 . S
S2528 N2529 1.613 . S
S2528 N2530 1.610 1_554 S
N2529 S2528 1.613 . S
N2529 C2532 1.346 1_554 S
N2530 S2528 1.610 1_556 S
N2530 C2531 1.351 . S
C2531 C2525 1.428 . S
C2531 N2530 1.351 . S
C2531 C2532 1.434 . S
C2532 C2523 1.429 . S
C2532 N2529 1.346 1_556 S
C2532 C2531 1.434 . S
C2533 C2534 1.369 . S
C2533 C2535 1.419 . S
C2533 H2537 0.930 . S
C2534 C2533 1.369 . S
C2534 C2543 1.429 . S
C2535 C2533 1.419 . S
C2535 C2536 1.363 . S
C2535 H2538 0.929 . S
C2536 C2535 1.363 . S
C2536 C2542 1.428 . S
H2537 C2533 0.930 . S
H2538 C2535 0.929 . S
S2539 N2540 1.613 . S
S2539 N2541 1.610 . S
N2540 S2539 1.613 . S
N2540 C2543 1.350 . S
N2541 S2539 1.610 . S
N2541 C2542 1.351 . S
C2542 C2536 1.428 . S
C2542 N2541 1.351 . S
C2542 C2543 1.434 . S
C2543 C2534 1.429 . S
C2543 N2540 1.350 . S
C2543 C2542 1.434 . S
C961 C129 2.226 . S
C963 C9 2.227 . S
C972 C141 2.208 . S
C974 C21 2.208 . S
C983 C89 2.225 . S
C985 C49 2.223 . S
C994 C109 2.246 . S
C996 C69 2.248 . S
C1005 C209 2.258 . S
C1007 C169 2.258 . S
C1016 C229 2.203 . S
C1018 C189 2.201 . S
C1027 C289 2.203 . S
C1029 C249 2.201 . S
C1038 C309 2.259 . S
C1040 C269 2.257 . S
C1049 C349 2.217 . S
C1051 C329 2.215 . S
C1060 C469 2.246 . S
C1062 C369 2.246 . S
C1071 C421 2.241 . S
C1073 C389 2.220 . S
C1082 C401 2.242 . S
C1084 C449 2.226 . S
C1093 C489 2.228 . S
C1095 C609 2.225 . S
C1104 C501 2.208 . S
C1106 C621 2.207 . S
C1115 C529 2.222 . S
C1117 C569 2.225 . S
C1126 C549 2.249 . S
C1128 C589 2.246 . S
C1137 C649 2.255 . S
C1139 C689 2.260 . S
C1148 C669 2.202 . S
C1150 C709 2.203 . S
C1159 C729 2.198 . S
C1161 C769 2.205 . S
C1170 C789 2.258 . S
C1172 C749 2.257 . S
C1181 C809 2.216 . S
C1183 C829 2.217 . S
C1192 C949 2.248 . S
C1194 C849 2.245 . S
C1203 C869 2.218 . S
C1205 C901 2.241 . S
C1214 C881 2.242 . S
C1216 C929 2.224 . S
C1225 C1 2.529 . S
C1227 C181 2.476 . S
C1236 C29 2.612 . S
C1238 C201 2.636 1_565 S
C1247 C41 2.375 . S
C1249 C221 2.368 . S
C1258 C161 2.381 . S
C1260 C61 2.342 . S
C1269 C301 2.531 . S
C1271 C81 2.525 . S
C1280 C241 2.574 . S
C1282 C101 2.613 . S
C1291 C261 2.480 . S
C1293 C121 2.424 . S
C1302 C149 2.292 . S
C1304 C281 2.273 . S
C1313 C361 2.483 . S
C1315 C321 2.481 . S
C1324 C441 2.482 . S
C1326 C341 2.479 . S
C1335 C381 2.484 . S
C1337 C461 2.475 . S
C1346 C429 2.506 . S
C1348 C409 2.503 . S
C1357 C481 2.522 . S
C1359 C661 2.471 . S
C1368 C681 2.636 . S
C1370 C509 2.609 . S
C1379 C701 2.363 . S
C1381 C521 2.374 . S
C1390 C541 2.342 . S
C1392 C641 2.383 . S
C1401 C781 2.536 . S
C1403 C561 2.526 . S
C1412 C581 2.617 . S
C1414 C721 2.578 . S
C1423 C601 2.429 . S
C1425 C741 2.484 . S
C1434 C629 2.288 . S
C1436 C761 2.270 . S
C1445 C801 2.482 . S
C1447 C841 2.481 . S
C1456 C921 2.485 . S
C1458 C821 2.479 . S
C1467 C941 2.469 . S
C1469 C861 2.478 . S
C1478 C889 2.500 . S
C1480 C909 2.507 . S
C1489 C19 1.139 . S
C1491 C66 1.018 . S
C1500 C6 0.796 . S
C1502 C36 0.771 . S
C1511 C59 1.416 . S
C1513 C28 1.415 . S
C1522 C79 0.947 . S
C1524 C46 0.953 . S
C1533 C106 1.073 . S
C1535 C99 1.058 . S
C1544 C126 1.076 . S
C1546 C119 1.182 . S
C1555 C139 1.277 . S
C1557 C148 1.421 . S
C1566 C86 0.685 . S
C1568 C156 0.686 . S
C1577 C179 1.050 . S
C1579 C366 1.077 . S
C1588 C199 1.155 . S
C1590 C386 1.174 . S
C1599 C219 1.203 . S
C1601 C408 1.257 . S
C1610 C239 1.044 . S
C1612 C346 1.014 . S
C1621 C259 1.120 . S
C1623 C446 1.158 . S
C1632 C326 1.128 . S
C1634 C279 1.110 . S
C1643 C466 0.834 . S
C1645 C299 0.843 . S
C1654 C319 1.380 . S
C1656 C428 1.420 . S
C1665 C339 0.864 . S
C1667 C186 0.875 . S
C1676 C359 1.029 . S
C1678 C306 0.999 . S
C1687 C379 0.917 . S
C1689 C246 0.937 . S
C1698 C266 0.850 . S
C1700 C399 0.853 . S
C1709 C286 0.804 . S
C1711 C416 0.797 . S
C1720 C226 0.665 . S
C1722 C436 0.680 . S
C1731 C166 0.866 . S
C1733 C459 0.855 . S
C1742 C479 1.201 . S
C1744 C206 1.180 . S
C1753 C499 1.139 . S
C1755 C546 1.018 . S
C1764 C516 0.793 . S
C1766 C486 0.808 . S
C1775 C508 1.426 . S
C1777 C539 1.427 . S
C1786 C526 0.958 . S
C1788 C559 0.945 . S
C1797 C579 1.053 . S
C1799 C586 1.067 . S
C1808 C606 1.083 . S
C1810 C599 1.187 . S
C1819 C628 1.425 . S
C1821 C619 1.280 . S
C1830 C636 0.678 . S
C1832 C566 0.680 . S
C1841 C659 1.036 . S
C1843 C846 1.068 . S
C1852 C866 1.166 . S
C1854 C679 1.147 . S
C1863 C888 1.260 . S
C1865 C699 1.210 . S
C1874 C719 1.037 . S
C1876 C826 1.006 . S
C1885 C926 1.148 . S
C1887 C739 1.111 . S
C1896 C759 1.124 . S
C1898 C806 1.142 . S
C1907 C779 0.831 . S
C1909 C946 0.814 . S
C1918 C799 1.369 . S
C1920 C908 1.413 . S
C1929 C666 0.892 . S
C1931 C819 0.883 . S
C1940 C786 1.016 . S
C1942 C839 1.041 . S
C1951 C726 0.942 . S
C1953 C859 0.923 . S
C1962 C879 0.854 . S
C1964 C746 0.856 . S
C1973 C766 0.803 . S
C1975 C896 0.795 . S
C1984 C916 0.676 . S
C1986 C706 0.659 . S
C1995 C939 0.866 . S
C1997 C646 0.880 . S
C2006 C686 1.189 . S
C2008 C959 1.207 . S
C2017 C16 1.129 . S
C2019 C899 1.112 . S
C2028 C836 1.365 . S
C2030 C39 1.314 . S
C2039 C56 0.918 . S
C2041 C856 0.893 . S
C2050 C76 1.095 . S
C2052 C876 1.060 . S
C2061 C96 0.838 . S
C2063 C956 0.816 . S
C2072 C116 1.289 . S
C2074 C919 1.244 . S
C2083 C136 1.074 . S
C2085 C936 1.050 . S
C2094 C159 1.340 . S
C2096 C816 1.390 . S
C2105 C176 0.914 . S
C2107 C796 0.906 . S
C2116 C196 0.899 . S
C2118 C736 0.889 . S
C2127 C216 0.905 . S
C2129 C756 0.910 . S
C2138 C236 0.817 . S
C2140 C776 0.799 . S
C2149 C256 0.884 . S
C2151 C676 0.902 . S
C2160 C276 0.910 . S
C2162 C696 0.906 . S
C2171 C296 0.825 . S
C2173 C716 0.797 . S
C2182 C316 0.925 . S
C2184 C656 0.891 . S
C2193 C336 1.387 . S
C2195 C639 1.344 . S
C2204 C356 1.379 . S
C2206 C519 1.306 . S
C2215 C376 0.907 . S
C2217 C536 0.905 . S
C2226 C396 1.075 . S
C2228 C556 1.076 . S
C2237 C419 1.097 . S
C2239 C496 1.137 . S
C2248 C439 1.244 . S
C2250 C596 1.287 . S
C2259 C456 1.062 . S
C2261 C616 1.059 . S
C2270 C476 0.817 . S
C2272 C576 0.824 . S
C2281 C88 1.734 . S
C2283 C848 1.769 . S
C2292 C108 1.496 . S
C2294 C868 1.537 . S
C2303 C128 1.311 . S
C2305 C886 1.341 . S
C2314 C146 1.137 . S
C2316 C828 1.079 . S
C2325 C8 1.486 . S
C2327 C928 1.539 . S
C2336 C26 1.122 . S
C2338 C808 1.099 . S
C2347 C48 1.938 . S
C2349 C948 1.942 . S
C2358 C906 1.175 . S
C2360 C68 1.145 . S
C2369 C288 1.703 . S
C2371 C668 1.728 . S
C2380 C308 1.976 . S
C2382 C688 1.979 . S
C2391 C248 1.760 . S
C2393 C708 1.728 . S
C2402 C268 1.858 . S
C2404 C648 1.866 . S
C2413 C208 1.975 . S
C2415 C788 1.976 . S
C2424 C228 1.721 . S
C2426 C728 1.758 . S
C2435 C168 1.863 . S
C2437 C748 1.863 . S
C2446 C188 1.732 . S
C2448 C768 1.698 . S
C2457 C426 1.185 . S
C2459 C548 1.139 . S
C2468 C388 1.543 . S
C2470 C588 1.500 . S
C2479 C406 1.339 . S
C2481 C608 1.302 . S
C2490 C348 1.087 . S
C2492 C626 1.129 . S
C2501 C368 1.762 . S
C2503 C568 1.735 . S
C2512 C328 1.087 . S
C2514 C506 1.136 . S
C2523 C468 1.946 . S
C2525 C528 1.944 . S
C2534 C448 1.535 . S
C2536 C488 1.480 . S
