# Generated by pormake.
# Topology acs-h, (5)-cn, num edge types: 1
# Building blocks:
#     Node 0, Type 0, BuildingBlock: BEQFEK_clean_sbu_0, # of connection points: 5
#     Node 1, Type 0, BuildingBlock: BEQFEK_clean_sbu_0, # of connection points: 5
#     Node 2, Type 0, BuildingBlock: BEQFEK_clean_sbu_0, # of connection points: 5
#     Node 3, Type 0, BuildingBlock: BEQFEK_clean_sbu_0, # of connection points: 5
#     Node 4, Type 0, BuildingBlock: BEQFEK_clean_sbu_0, # of connection points: 5
#     Node 5, Type 0, BuildingBlock: BEQFEK_clean_sbu_0, # of connection points: 5
#     Node 6, Type 0, BuildingBlock: BEQFEK_clean_sbu_0, # of connection points: 5
#     Node 7, Type 0, BuildingBlock: BEQFEK_clean_sbu_0, # of connection points: 5
#     Node 8, Type 0, BuildingBlock: BEQFEK_clean_sbu_0, # of connection points: 5
#     Node 9, Type 0, BuildingBlock: BEQFEK_clean_sbu_0, # of connection points: 5
#     Node 10, Type 0, BuildingBlock: BEQFEK_clean_sbu_0, # of connection points: 5
#     Node 11, Type 0, BuildingBlock: BEQFEK_clean_sbu_0, # of connection points: 5
#     Edge 12, Type (0, 0), None
#     Edge 13, Type (0, 0), None
#     Edge 14, Type (0, 0), None
#     Edge 15, Type (0, 0), None
#     Edge 16, Type (0, 0), None
#     Edge 17, Type (0, 0), None
#     Edge 18, Type (0, 0), None
#     Edge 19, Type (0, 0), None
#     Edge 20, Type (0, 0), None
#     Edge 21, Type (0, 0), None
#     Edge 22, Type (0, 0), None
#     Edge 23, Type (0, 0), None
#     Edge 24, Type (0, 0), None
#     Edge 25, Type (0, 0), None
#     Edge 26, Type (0, 0), None
#     Edge 27, Type (0, 0), None
#     Edge 28, Type (0, 0), None
#     Edge 29, Type (0, 0), None
#     Edge 30, Type (0, 0), None
#     Edge 31, Type (0, 0), None
#     Edge 32, Type (0, 0), None
#     Edge 33, Type (0, 0), None
#     Edge 34, Type (0, 0), None
#     Edge 35, Type (0, 0), None
#     Edge 36, Type (0, 0), None
#     Edge 37, Type (0, 0), None
#     Edge 38, Type (0, 0), None
#     Edge 39, Type (0, 0), None
#     Edge 40, Type (0, 0), None
#     Edge 41, Type (0, 0), None
# Relax obj value: 1.354
# Max RMSD: 0.203
# Mean RMSD: 0.203
data_MOF--net-acs-h--node1-BEQFEK_clean_sbu_0--edge1-none
_symmetry_space_group_name_H-M    P1
_symmetry_Int_Tables_number       1
_symmetry_cell_setting            triclinic
loop_
_symmetry_equiv_pos_as_xyz
'x, y, z'
_cell_length_a     20.810651
_cell_length_b     20.746559
_cell_length_c     19.368037
_cell_angle_alpha  90.036575
_cell_angle_beta   89.968429
_cell_angle_gamma 119.96931
loop_
_atom_site_label
_atom_site_type_symbol
_atom_site_fract_x
_atom_site_fract_y
_atom_site_fract_z
_atom_type_partial_charge
Co0 Co 0.48862 0.07213 0.09529 0.0
Co1 Co 0.47004 0.15127 0.00169 0.0
C2 C 0.62022 0.1727 0.01912 0.0
O3 O 0.59643 0.12851 0.07054 0.0
O4 O 0.57939 0.19454 -0.00884 0.0
C5 C 0.49262 0.99685 0.2125 0.0
O6 O 0.53245 0.06594 0.23354 0.0
C7 C 0.51278 0.26923 0.93599 0.0
C8 C 0.4262 0.28401 -0.01577 0.0
C9 C 0.50191 0.31474 0.98153 0.0
N10 N 0.44822 0.20423 0.93119 0.0
N11 N 0.3958 0.21824 0.95096 0.0
C12 C 0.55713 0.30168 0.87191 0.0
H13 H 0.56181 0.25851 0.84225 0.0
H14 H 0.61174 0.349 0.8847 0.0
H15 H 0.52836 0.3229 0.83856 0.0
C16 C 0.42693 0.1404 0.20014 0.0
N17 N 0.453 0.13241 0.13855 0.0
N18 N 0.43797 0.16814 0.09143 0.0
C19 C 0.39699 0.19569 0.12082 0.0
C20 C 0.39957 0.18874 0.19156 0.0
C21 C 0.39744 0.08167 0.25466 0.0
H22 H 0.39423 0.02995 0.23654 0.0
H23 H 0.43121 0.10306 0.30171 0.0
H24 H 0.33963 0.06608 0.26753 0.0
O25 O 0.44341 0.03835 -0.00215 0.0
O26 O 0.43917 0.03688 -0.00538 0.0
H27 H 0.27906 0.15683 0.13109 0.0
H28 H 0.32506 0.23078 0.07212 0.0
C29 C 0.3234 0.17981 0.09113 0.0
H30 H 0.30547 0.13731 0.04987 0.0
H31 H 0.33929 0.18185 0.94332 0.0
O32 O 0.46565 0.98412 0.15212 0.0
C33 C 0.47901 0.01391 0.96402 0.0
Co34 Co 0.93324 0.42314 0.09324 0.0
Co35 Co 0.85423 0.32517 -4e-05 0.0
C36 C 0.83699 0.458 0.01279 0.0
O37 O 0.87905 0.47731 0.06576 0.0
O38 O 0.81569 0.39528 -0.01486 0.0
C39 C 0.01038 0.49992 0.21162 0.0
O40 O 0.94198 0.47028 0.2341 0.0
C41 C 0.73609 0.24871 0.94309 0.0
C42 C 0.72057 0.1436 0.98177 0.0
C43 C 0.69037 0.18925 -0.01524 0.0
N44 N 0.79964 0.24819 0.9314 0.0
N45 N 0.78594 0.1808 0.94806 0.0
C46 C 0.70694 0.28154 0.89262 0.0
H47 H 0.748 0.31082 0.85104 0.0
H48 H 0.69366 0.31973 0.92071 0.0
H49 H 0.65565 0.2366 0.86869 0.0
C50 C 0.86257 0.29367 0.19901 0.0
N51 N 0.87094 0.32823 0.13754 0.0
N52 N 0.83448 0.27773 0.0904 0.0
C53 C 0.80578 0.209 0.11965 0.0
C54 C 0.81161 0.21856 0.19032 0.0
C55 C 0.92385 0.31864 0.25066 0.0
H56 H 0.97552 0.36684 0.23233 0.0
H57 H 0.90589 0.32956 0.30051 0.0
H58 H 0.93776 0.27413 0.25879 0.0
O59 O 0.96784 0.408 -0.00259 0.0
O60 O 0.96942 0.40497 -0.00576 0.0
H61 H 0.84923 0.13348 0.13088 0.0
H62 H 0.77166 0.09993 0.07581 0.0
C63 C 0.82267 0.15126 0.09115 0.0
H64 H 0.86253 0.17429 0.04781 0.0
H65 H 0.82181 0.1606 0.93727 0.0
O66 O 0.02171 0.48712 0.15018 0.0
C67 C 0.99529 0.46854 0.96405 0.0
Co68 Co 0.58773 0.51675 0.09425 0.0
Co69 Co 0.6852 0.53647 0.00065 0.0
C70 C 0.55647 0.38548 0.01525 0.0
O71 O 0.53651 0.40913 0.06723 0.0
O72 O 0.61917 0.42658 -0.01277 0.0
C73 C 0.50553 0.51228 0.21056 0.0
O74 O 0.53229 0.47062 0.23253 0.0
C75 C 0.7653 0.49964 0.93051 0.0
C76 C 0.86275 0.58809 -0.0172 0.0
C77 C 0.82075 0.51205 0.97789 0.0
N78 N 0.76025 0.56207 0.92993 0.0
N79 N 0.8252 0.61654 0.95052 0.0
C80 C 0.7671 0.46753 0.86148 0.0
H81 H 0.71125 0.43798 0.83818 0.0
H82 H 0.79233 0.4318 0.86437 0.0
H83 H 0.802 0.51362 0.82544 0.0
C84 C 0.71634 0.57385 0.20027 0.0
N85 N 0.68274 0.55049 0.13813 0.0
N86 N 0.7337 0.5665 0.09105 0.0
C87 C 0.8019 0.606 0.12128 0.0
C88 C 0.79162 0.59978 0.19188 0.0
C89 C 0.68848 0.60334 0.25595 0.0
H90 H 0.63695 0.60209 0.24166 0.0
H91 H 0.68287 0.57314 0.30422 0.0
H92 H 0.72924 0.66287 0.26488 0.0
O93 O 0.60032 0.56458 -0.00205 0.0
O94 O 0.60305 0.56885 -0.00509 0.0
H95 H 0.87861 0.72424 0.13703 0.0
H96 H 0.9101 0.68244 0.07692 0.0
C97 C 0.85953 0.68187 0.09517 0.0
H98 H 0.83595 0.70142 0.05455 0.0
H99 H 0.84188 0.67281 0.94563 0.0
O100 O 0.52254 0.54015 0.15062 0.0
C101 C 0.54027 0.53027 0.9641 0.0
Co102 Co 0.96032 0.52862 0.35729 0.0
Co103 Co 0.86343 0.5373 0.43847 0.0
C104 C 0.85015 0.38986 0.41899 0.0
O105 O 0.90315 0.41884 0.37536 0.0
O106 O 0.82264 0.42772 0.44287 0.0
C107 C 0.07256 0.54539 0.25763 0.0
O108 O 0.14103 0.57111 0.23639 0.0
C109 C 0.73107 0.49053 0.48177 0.0
C110 C 0.72066 0.58464 0.44697 0.0
C111 C 0.68603 0.50817 0.44341 0.0
N112 N 0.79581 0.55251 0.4957 0.0
N113 N 0.78606 0.60896 0.47988 0.0
C114 C 0.70365 0.42192 0.5235 0.0
H115 H 0.74521 0.42948 0.56302 0.0
H116 H 0.69101 0.3747 0.48865 0.0
H117 H 0.65239 0.41118 0.55064 0.0
C118 C 0.89958 0.5901 0.24244 0.0
N119 N 0.90393 0.56356 0.3051 0.0
N120 N 0.86123 0.57375 0.34779 0.0
C121 C 0.83511 0.61442 0.31624 0.0
C122 C 0.84888 0.61533 0.24622 0.0
C123 C 0.96147 0.62004 0.19097 0.0
H124 H 0.01361 0.63018 0.21563 0.0
H125 H 0.94735 0.58089 0.14744 0.0
H126 H 0.97183 0.67418 0.17036 0.0
O127 O 0.97422 0.56634 0.45851 0.0
O128 O 0.97471 0.57013 0.46216 0.0
H129 H 0.87738 0.73364 0.30856 0.0
H130 H 0.79918 0.68679 0.36256 0.0
C131 C 0.85057 0.68772 0.34686 0.0
H132 H 0.88923 0.70304 0.39115 0.0
H133 H 0.82518 0.66444 0.48969 0.0
O134 O 0.06081 0.56189 0.31769 0.0
C135 C 0.99136 0.5285 0.49813 0.0
Co136 Co 0.47357 0.43179 0.35544 0.0
Co137 Co 0.46511 0.32627 0.43814 0.0
C138 C 0.61212 0.45722 0.41359 0.0
O139 O 0.58244 0.48229 0.37179 0.0
O140 O 0.57478 0.39163 0.43771 0.0
C141 C 0.45909 0.52863 0.25576 0.0
O142 O 0.43436 0.57227 0.23425 0.0
C143 C 0.51174 0.24281 0.49376 0.0
C144 C 0.42183 0.1436 0.44487 0.0
C145 C 0.49796 0.18511 0.44851 0.0
N146 N 0.44884 0.24605 0.50003 0.0
N147 N 0.39435 0.1813 0.47877 0.0
C148 C 0.55806 0.25512 0.5565 0.0
H149 H 0.55985 0.29999 0.58905 0.0
H150 H 0.6138 0.26746 0.54144 0.0
H151 H 0.53326 0.20339 0.58785 0.0
C152 C 0.41132 0.30792 0.24215 0.0
N153 N 0.43639 0.33868 0.30512 0.0
N154 N 0.42519 0.28556 0.34817 0.0
C155 C 0.38554 0.21869 0.31614 0.0
C156 C 0.38569 0.23183 0.24599 0.0
C157 C 0.38609 0.3417 0.18799 0.0
H158 H 0.37741 0.3857 0.2105 0.0
H159 H 0.42704 0.36439 0.14562 0.0
H160 H 0.33208 0.29933 0.16631 0.0
O161 O 0.44065 0.41201 0.45789 0.0
O162 O 0.43758 0.40896 0.46145 0.0
H163 H 0.2677 0.13833 0.3059 0.0
H164 H 0.31449 0.11111 0.36459 0.0
C165 C 0.31221 0.16007 0.3457 0.0
H166 H 0.2942 0.18389 0.38768 0.0
H167 H 0.3384 0.16439 0.48513 0.0
O168 O 0.44106 0.49954 0.31541 0.0
C169 C 0.48061 0.46634 0.49774 0.0
Co170 Co 0.57509 0.04949 0.35761 0.0
Co171 Co 0.6811 0.14576 0.43939 0.0
C172 C 0.54987 0.1625 0.41965 0.0
O173 O 0.52558 0.10878 0.37652 0.0
O174 O 0.61531 0.19048 0.44392 0.0
C175 C 0.4771 0.93549 0.25926 0.0
O176 O 0.43366 0.86639 0.23944 0.0
C177 C 0.77183 0.27564 0.49811 0.0
C178 C 0.86466 0.27733 0.44286 0.0
C179 C 0.82688 0.31562 0.44912 0.0
N180 N 0.76326 0.2067 0.50075 0.0
N181 N 0.82554 0.21276 0.47733 0.0
C182 C 0.77598 0.31279 0.56608 0.0
H183 H 0.7204 0.29912 0.58408 0.0
H184 H 0.81331 0.37389 0.56409 0.0
H185 H 0.79846 0.29123 0.60627 0.0
C186 C 0.69528 0.11006 0.24201 0.0
N187 N 0.66619 0.10548 0.30557 0.0
N188 N 0.72009 0.14754 0.34772 0.0
C189 C 0.78595 0.17318 0.31434 0.0
C190 C 0.77111 0.16051 0.24445 0.0
C191 C 0.66233 0.04761 0.19092 0.0
H192 H 0.62015 0.99567 0.21593 0.0
H193 H 0.63761 0.06188 0.14736 0.0
H194 H 0.70547 0.03648 0.17021 0.0
O195 O 0.59734 0.03477 0.45862 0.0
O196 O 0.60043 0.03441 0.46206 0.0
H197 H 0.86094 0.12922 0.29988 0.0
H198 H 0.89395 0.20382 0.35855 0.0
C199 C 0.84271 0.15409 0.34101 0.0
H200 H 0.81875 0.11214 0.38281 0.0
H201 H 0.83913 0.17095 0.4819 0.0
O202 O 0.50674 0.94848 0.3187 0.0
C203 C 0.54238 0.01777 0.49819 0.0
Co204 Co 0.51972 0.9353 0.87076 0.0
Co205 Co 0.53886 0.85722 0.96393 0.0
C206 C 0.38847 0.83549 0.94746 0.0
O207 O 0.41196 0.87931 0.89579 0.0
O208 O 0.42952 0.81391 0.97536 0.0
C209 C 0.51641 0.01042 0.75294 0.0
O210 O 0.47696 0.94134 0.73176 0.0
C211 C 0.49679 0.73971 0.03007 0.0
C212 C 0.58373 0.72504 0.98247 0.0
C213 C 0.50799 0.69402 -0.01494 0.0
N214 N 0.5612 0.80488 0.03469 0.0
N215 N 0.61385 0.79105 0.01529 0.0
C216 C 0.4523 0.70758 0.09411 0.0
H217 H 0.44741 0.75087 0.12334 0.0
H218 H 0.3978 0.66008 0.08135 0.0
H219 H 0.48109 0.6867 0.12785 0.0
C220 C 0.58124 0.86709 0.76559 0.0
N221 N 0.55511 0.87497 0.8272 0.0
N222 N 0.57028 0.83935 0.87431 0.0
C223 C 0.61118 0.81174 0.84485 0.0
C224 C 0.60836 0.81855 0.77413 0.0
C225 C 0.61187 0.92652 0.71169 0.0
H226 H 0.61592 0.97843 0.73046 0.0
H227 H 0.57834 0.90625 0.66441 0.0
H228 H 0.66952 0.94142 0.69894 0.0
O229 O 0.56586 0.97 0.96804 0.0
O230 O 0.5702 0.97208 0.97055 0.0
H231 H 0.72909 0.85069 0.83419 0.0
H232 H 0.68332 0.77673 0.89317 0.0
C233 C 0.68489 0.8277 0.87428 0.0
H234 H 0.70298 0.87024 0.91551 0.0
H235 H 0.67031 0.82776 0.02277 0.0
O236 O 0.54267 0.02313 0.81359 0.0
C237 C 0.53001 0.99444 0.00144 0.0
Co238 Co 0.07697 0.58464 0.87275 0.0
Co239 Co 0.15491 0.68224 0.96572 0.0
C240 C 0.17261 0.54959 0.95383 0.0
O241 O 0.13088 0.53028 0.90063 0.0
O242 O 0.1936 0.61227 0.98143 0.0
C243 C 0.99997 0.50876 0.75374 0.0
O244 O 0.06834 0.53879 0.73111 0.0
C245 C 0.27248 0.75907 0.02322 0.0
C246 C 0.28779 0.86419 -0.01522 0.0
C247 C 0.31831 0.81881 0.9819 0.0
N248 N 0.20869 0.75921 0.03456 0.0
N249 N 0.22219 0.82657 0.01805 0.0
C250 C 0.30162 0.72651 0.07396 0.0
H251 H 0.26033 0.69701 0.11532 0.0
H252 H 0.31534 0.68857 0.04602 0.0
H253 H 0.35263 0.77161 0.09814 0.0
C254 C 0.14753 0.71393 0.76675 0.0
N255 N 0.13929 0.67942 0.82824 0.0
N256 N 0.17557 0.72995 0.87538 0.0
C257 C 0.20427 0.79865 0.84604 0.0
C258 C 0.19867 0.789 0.77539 0.0
C259 C 0.08566 0.68944 0.71577 0.0
H260 H 0.03384 0.64189 0.7348 0.0
H261 H 0.10252 0.67765 0.66573 0.0
H262 H 0.07248 0.73446 0.7077 0.0
O263 O 0.04145 0.59976 0.96836 0.0
O264 O 0.03936 0.60233 0.97084 0.0
H265 H 0.16064 0.87396 0.83427 0.0
H266 H 0.23805 0.90777 0.88955 0.0
C267 C 0.18714 0.85634 0.8742 0.0
H268 H 0.14711 0.83335 0.91742 0.0
H269 H 0.186 0.84645 0.0286 0.0
O270 O 0.98867 0.5208 0.81546 0.0
C271 C 0.01403 0.53901 0.00135 0.0
Co272 Co 0.42211 0.49252 0.87151 0.0
Co273 Co 0.32513 0.47211 0.96472 0.0
C274 C 0.45359 0.62333 0.95115 0.0
O275 O 0.47357 0.60005 0.89893 0.0
O276 O 0.39093 0.58194 0.97907 0.0
C277 C 0.50326 0.4963 0.7544 0.0
O278 O 0.47583 0.5373 0.73223 0.0
C279 C 0.24496 0.50822 0.03556 0.0
C280 C 0.14717 0.41958 -0.01617 0.0
C281 C 0.18894 0.49562 -0.01117 0.0
N282 N 0.25025 0.44591 0.03572 0.0
N283 N 0.18522 0.3913 0.01546 0.0
C284 C 0.24386 0.54028 0.10479 0.0
H285 H 0.29979 0.56893 0.12801 0.0
H286 H 0.21946 0.57673 0.10222 0.0
H287 H 0.20848 0.49421 0.14065 0.0
C288 C 0.29368 0.43541 0.76525 0.0
N289 N 0.32723 0.45891 0.82741 0.0
N290 N 0.27626 0.44279 0.87448 0.0
C291 C 0.20809 0.40339 0.84419 0.0
C292 C 0.21846 0.40977 0.77361 0.0
C293 C 0.32096 0.4045 0.71031 0.0
H294 H 0.37175 0.40456 0.7254 0.0
H295 H 0.32768 0.43451 0.66168 0.0
H296 H 0.27941 0.34516 0.70156 0.0
O297 O 0.40959 0.44372 0.9676 0.0
O298 O 0.40736 0.43939 0.9699 0.0
H299 H 0.13123 0.28523 0.82812 0.0
H300 H 0.09981 0.32696 0.88835 0.0
C301 C 0.15035 0.32747 0.87009 0.0
H302 H 0.17383 0.30769 0.91058 0.0
H303 H 0.16885 0.33508 0.02004 0.0
O304 O 0.48721 0.46931 0.81472 0.0
C305 C 0.46987 0.47833 0.00104 0.0
Co306 Co 0.04985 0.48039 0.60771 0.0
Co307 Co 0.14567 0.4712 0.52694 0.0
C308 C 0.15949 0.61891 0.54583 0.0
O309 O 0.10671 0.5901 0.58964 0.0
O310 O 0.18673 0.58085 0.52189 0.0
C311 C 0.93776 0.46357 0.70767 0.0
O312 O 0.86931 0.43783 0.72897 0.0
C313 C 0.27771 0.51746 0.48288 0.0
C314 C 0.288 0.42329 0.51769 0.0
C315 C 0.32283 0.49978 0.52101 0.0
N316 N 0.21278 0.45554 0.46934 0.0
N317 N 0.22243 0.39902 0.48512 0.0
C318 C 0.30507 0.58595 0.44098 0.0
H319 H 0.26332 0.57842 0.40169 0.0
H320 H 0.31806 0.63331 0.47577 0.0
H321 H 0.35611 0.59645 0.41359 0.0
C322 C 0.1104 0.41905 0.72295 0.0
N323 N 0.10609 0.44554 0.66025 0.0
N324 N 0.1487 0.43523 0.6176 0.0
C325 C 0.17488 0.39464 0.64925 0.0
C326 C 0.16114 0.39391 0.71926 0.0
C327 C 0.04826 0.38869 0.77418 0.0
H328 H 0.99614 0.37836 0.74933 0.0
H329 H 0.06202 0.42764 0.81782 0.0
H330 H 0.03802 0.33454 0.79466 0.0
O331 O 0.03523 0.44193 0.50645 0.0
O332 O 0.03387 0.43784 0.50331 0.0
H333 H 0.13263 0.27544 0.65733 0.0
H334 H 0.21062 0.32206 0.60307 0.0
C335 C 0.15928 0.3212 0.61885 0.0
H336 H 0.12041 0.30566 0.57473 0.0
H337 H 0.18313 0.34355 0.47557 0.0
O338 O 0.94946 0.44729 0.64749 0.0
C339 C 0.01806 0.48004 0.46724 0.0
Co340 Co 0.53499 0.57655 0.60922 0.0
Co341 Co 0.54412 0.68139 0.52738 0.0
C342 C 0.39677 0.55064 0.55079 0.0
O343 O 0.42622 0.52563 0.59283 0.0
O344 O 0.43434 0.61617 0.52667 0.0
C345 C 0.54947 0.47975 0.70908 0.0
O346 O 0.57427 0.43617 0.73059 0.0
C347 C 0.4981 0.76513 0.47137 0.0
C348 C 0.58804 0.86442 0.52013 0.0
C349 C 0.51192 0.82305 0.51631 0.0
N350 N 0.56094 0.76173 0.46538 0.0
N351 N 0.61547 0.82648 0.48658 0.0
C352 C 0.45181 0.75249 0.40857 0.0
H353 H 0.4499 0.70734 0.37636 0.0
H354 H 0.39613 0.7404 0.42355 0.0
H355 H 0.4767 0.80401 0.37691 0.0
C356 C 0.59693 0.69967 0.72334 0.0
N357 N 0.57189 0.66912 0.66029 0.0
N358 N 0.58334 0.72237 0.61737 0.0
C359 C 0.62304 0.78915 0.64957 0.0
C360 C 0.62264 0.77577 0.71968 0.0
C361 C 0.62269 0.66596 0.77709 0.0
H362 H 0.63186 0.62244 0.75415 0.0
H363 H 0.58181 0.64265 0.81947 0.0
H364 H 0.67657 0.70849 0.79888 0.0
O365 O 0.56915 0.59664 0.50678 0.0
O366 O 0.57277 0.59906 0.50367 0.0
H367 H 0.74088 0.86931 0.66025 0.0
H368 H 0.69448 0.89676 0.60137 0.0
C369 C 0.69656 0.8477 0.62028 0.0
H370 H 0.7147 0.82388 0.57842 0.0
H371 H 0.67141 0.84322 0.48045 0.0
O372 O 0.5673 0.50867 0.64935 0.0
C373 C 0.5289 0.54195 0.46743 0.0
Co374 Co 0.43434 0.95796 0.60743 0.0
Co375 Co 0.32901 0.86289 0.52627 0.0
C376 C 0.46004 0.8457 0.54514 0.0
O377 O 0.48424 0.89915 0.58849 0.0
O378 O 0.39465 0.81795 0.52085 0.0
C379 C 0.53219 0.0718 0.70611 0.0
O380 O 0.57559 0.14088 0.72599 0.0
C381 C 0.23816 0.73334 0.46705 0.0
C382 C 0.14523 0.7316 0.52216 0.0
C383 C 0.18287 0.6932 0.51578 0.0
N384 N 0.24689 0.80236 0.4647 0.0
N385 N 0.1846 0.79634 0.48803 0.0
C386 C 0.23421 0.69651 0.39895 0.0
H387 H 0.2898 0.71 0.38119 0.0
H388 H 0.19663 0.63544 0.40064 0.0
H389 H 0.21213 0.71849 0.35875 0.0
C390 C 0.31466 0.89763 0.72361 0.0
N391 N 0.34362 0.90211 0.65999 0.0
N392 N 0.28966 0.86015 0.61792 0.0
C393 C 0.22386 0.83452 0.65141 0.0
C394 C 0.23885 0.84714 0.72128 0.0
C395 C 0.34742 0.96042 0.77435 0.0
H396 H 0.38922 0.01235 0.74904 0.0
H397 H 0.37256 0.94672 0.81796 0.0
H398 H 0.30409 0.97128 0.79508 0.0
O399 O 0.41196 0.97354 0.5064 0.0
O400 O 0.40946 0.97489 0.50349 0.0
H401 H 0.14895 0.87852 0.66627 0.0
H402 H 0.11582 0.80409 0.60742 0.0
C403 C 0.16711 0.85375 0.62498 0.0
H404 H 0.19106 0.89584 0.58331 0.0
H405 H 0.17119 0.8383 0.48367 0.0
O406 O 0.50278 0.05885 0.64656 0.0
C407 C 0.46726 0.99061 0.46731 0.0
loop_
_geom_bond_atom_site_label_1
_geom_bond_atom_site_label_2
_geom_bond_distance
_geom_bond_site_symmetry_2
_ccdc_geom_bond_type
Co0 O3 1.970 . S
Co0 N17 1.989 . S
Co0 O25 1.967 1_545 S
Co0 O32 1.920 1_545 S
Co1 O4 1.966 . S
Co1 N10 2.022 . S
Co1 N18 1.993 1_556 S
Co1 O26 1.941 . S
C2 O3 1.258 . S
C2 O4 1.263 1_554 S
O3 Co0 1.970 . S
O3 C2 1.258 . S
O4 Co1 1.966 . S
O4 C2 1.263 1_556 S
C5 O6 1.235 1_565 S
C5 O32 1.289 . S
O6 C5 1.235 1_545 S
C7 C9 1.400 . S
C7 N10 1.351 . S
C7 C12 1.501 . S
C8 C9 1.387 . S
C8 N11 1.341 . S
C9 C7 1.400 . S
C9 C8 1.387 . S
N10 Co1 2.022 . S
N10 C7 1.351 . S
N10 N11 1.365 . S
N11 C8 1.341 . S
N11 N10 1.365 . S
N11 H31 0.862 . S
C12 C7 1.501 . S
C12 H13 0.961 . S
C12 H14 0.961 . S
C12 H15 0.960 . S
H13 C12 0.961 . S
H14 C12 0.961 . S
H15 C12 0.960 . S
C16 N17 1.342 . S
C16 C20 1.401 . S
C16 C21 1.499 . S
N17 Co0 1.989 . S
N17 C16 1.342 . S
N17 N18 1.388 . S
N18 Co1 1.993 1_554 S
N18 N17 1.388 . S
N18 C19 1.346 . S
C19 N18 1.346 . S
C19 C20 1.396 . S
C19 C29 1.510 . S
C20 C16 1.401 . S
C20 C19 1.396 . S
C21 C16 1.499 . S
C21 H22 0.959 . S
C21 H23 0.960 . S
C21 H24 0.961 . S
H22 C21 0.959 . S
H23 C21 0.960 . S
H24 C21 0.961 . S
O25 Co0 1.967 1_565 S
O25 C33 1.258 1_554 S
O26 Co1 1.941 . S
O26 C33 1.266 1_545 S
H27 C29 0.959 . S
H28 C29 0.961 . S
C29 C19 1.510 . S
C29 H27 0.959 . S
C29 H28 0.961 . S
C29 H30 0.960 . S
H30 C29 0.960 . S
H31 N11 0.862 . S
O32 Co0 1.920 1_565 S
O32 C5 1.289 . S
C33 O25 1.258 1_556 S
C33 O26 1.266 1_565 S
Co34 O37 1.970 . S
Co34 N51 1.989 . S
Co34 O59 1.967 1_655 S
Co34 O66 1.920 1_655 S
Co35 O38 1.966 . S
Co35 N44 2.022 . S
Co35 N52 1.993 1_556 S
Co35 O60 1.941 . S
C36 O37 1.258 . S
C36 O38 1.263 1_554 S
O37 Co34 1.970 . S
O37 C36 1.258 . S
O38 Co35 1.966 . S
O38 C36 1.263 1_556 S
C39 O40 1.235 1_455 S
C39 O66 1.289 . S
O40 C39 1.235 1_655 S
C41 C43 1.400 . S
C41 N44 1.351 . S
C41 C46 1.501 . S
C42 C43 1.387 . S
C42 N45 1.341 . S
C43 C41 1.400 . S
C43 C42 1.387 . S
N44 Co35 2.022 . S
N44 C41 1.351 . S
N44 N45 1.365 . S
N45 C42 1.341 . S
N45 N44 1.365 . S
N45 H65 0.862 . S
C46 C41 1.501 . S
C46 H47 0.961 . S
C46 H48 0.961 . S
C46 H49 0.960 . S
H47 C46 0.961 . S
H48 C46 0.961 . S
H49 C46 0.960 . S
C50 N51 1.342 . S
C50 C54 1.401 . S
C50 C55 1.499 . S
N51 Co34 1.989 . S
N51 C50 1.342 . S
N51 N52 1.388 . S
N52 Co35 1.993 1_554 S
N52 N51 1.388 . S
N52 C53 1.346 . S
C53 N52 1.346 . S
C53 C54 1.396 . S
C53 C63 1.510 . S
C54 C50 1.401 . S
C54 C53 1.396 . S
C55 C50 1.499 . S
C55 H56 0.959 . S
C55 H57 0.960 . S
C55 H58 0.961 . S
H56 C55 0.959 . S
H57 C55 0.960 . S
H58 C55 0.961 . S
O59 Co34 1.967 1_455 S
O59 C67 1.258 1_554 S
O60 Co35 1.941 . S
O60 C67 1.266 1_655 S
H61 C63 0.959 . S
H62 C63 0.961 . S
C63 C53 1.510 . S
C63 H61 0.959 . S
C63 H62 0.961 . S
C63 H64 0.960 . S
H64 C63 0.960 . S
H65 N45 0.862 . S
O66 Co34 1.920 1_455 S
O66 C39 1.289 . S
C67 O59 1.258 1_556 S
C67 O60 1.266 1_455 S
Co68 O71 1.970 . S
Co68 N85 1.989 . S
Co68 O93 1.967 . S
Co68 O100 1.920 . S
Co69 O72 1.966 . S
Co69 N78 2.022 . S
Co69 N86 1.993 1_556 S
Co69 O94 1.941 . S
C70 O71 1.258 . S
C70 O72 1.263 1_554 S
O71 Co68 1.970 . S
O71 C70 1.258 . S
O72 Co69 1.966 . S
O72 C70 1.263 1_556 S
C73 O74 1.235 . S
C73 O100 1.289 . S
O74 C73 1.235 . S
C75 C77 1.400 . S
C75 N78 1.351 . S
C75 C80 1.501 . S
C76 C77 1.387 . S
C76 N79 1.341 . S
C77 C75 1.400 . S
C77 C76 1.387 . S
N78 Co69 2.022 . S
N78 C75 1.351 . S
N78 N79 1.365 . S
N79 C76 1.341 . S
N79 N78 1.365 . S
N79 H99 0.862 . S
C80 C75 1.501 . S
C80 H81 0.961 . S
C80 H82 0.961 . S
C80 H83 0.960 . S
H81 C80 0.961 . S
H82 C80 0.961 . S
H83 C80 0.960 . S
C84 N85 1.342 . S
C84 C88 1.401 . S
C84 C89 1.499 . S
N85 Co68 1.989 . S
N85 C84 1.342 . S
N85 N86 1.388 . S
N86 Co69 1.993 1_554 S
N86 N85 1.388 . S
N86 C87 1.346 . S
C87 N86 1.346 . S
C87 C88 1.396 . S
C87 C97 1.510 . S
C88 C84 1.401 . S
C88 C87 1.396 . S
C89 C84 1.499 . S
C89 H90 0.959 . S
C89 H91 0.960 . S
C89 H92 0.961 . S
H90 C89 0.959 . S
H91 C89 0.960 . S
H92 C89 0.961 . S
O93 Co68 1.967 . S
O93 C101 1.258 1_554 S
O94 Co69 1.941 . S
O94 C101 1.266 . S
H95 C97 0.959 . S
H96 C97 0.961 . S
C97 C87 1.510 . S
C97 H95 0.959 . S
C97 H96 0.961 . S
C97 H98 0.960 . S
H98 C97 0.960 . S
H99 N79 0.862 . S
O100 Co68 1.920 . S
O100 C73 1.289 . S
C101 O93 1.258 1_556 S
C101 O94 1.266 . S
Co102 O105 1.970 . S
Co102 N119 1.989 . S
Co102 O127 1.967 1_655 S
Co102 O134 1.920 1_655 S
Co103 O106 1.966 . S
Co103 N112 2.022 . S
Co103 N120 1.993 . S
Co103 O128 1.941 . S
C104 O105 1.258 . S
C104 O106 1.263 . S
O105 Co102 1.970 . S
O105 C104 1.258 . S
O106 Co103 1.966 . S
O106 C104 1.263 . S
C107 O108 1.235 1_455 S
C107 O134 1.289 . S
O108 C107 1.235 1_655 S
C109 C111 1.400 . S
C109 N112 1.351 . S
C109 C114 1.501 . S
C110 C111 1.387 . S
C110 N113 1.341 . S
C111 C109 1.400 . S
C111 C110 1.387 . S
N112 Co103 2.022 . S
N112 C109 1.351 . S
N112 N113 1.365 . S
N113 C110 1.341 . S
N113 N112 1.365 . S
N113 H133 0.862 . S
C114 C109 1.501 . S
C114 H115 0.961 . S
C114 H116 0.961 . S
C114 H117 0.960 . S
H115 C114 0.961 . S
H116 C114 0.961 . S
H117 C114 0.960 . S
C118 N119 1.342 . S
C118 C122 1.401 . S
C118 C123 1.499 . S
N119 Co102 1.989 . S
N119 C118 1.342 . S
N119 N120 1.388 . S
N120 Co103 1.993 . S
N120 N119 1.388 . S
N120 C121 1.346 . S
C121 N120 1.346 . S
C121 C122 1.396 . S
C121 C131 1.510 . S
C122 C118 1.401 . S
C122 C121 1.396 . S
C123 C118 1.499 . S
C123 H124 0.959 . S
C123 H125 0.960 . S
C123 H126 0.961 . S
H124 C123 0.959 . S
H125 C123 0.960 . S
H126 C123 0.961 . S
O127 Co102 1.967 1_455 S
O127 C135 1.258 . S
O128 Co103 1.941 . S
O128 C135 1.266 1_655 S
H129 C131 0.959 . S
H130 C131 0.961 . S
C131 C121 1.510 . S
C131 H129 0.959 . S
C131 H130 0.961 . S
C131 H132 0.960 . S
H132 C131 0.960 . S
H133 N113 0.862 . S
O134 Co102 1.920 1_455 S
O134 C107 1.289 . S
C135 O127 1.258 . S
C135 O128 1.266 1_455 S
Co136 O139 1.970 . S
Co136 N153 1.989 . S
Co136 O161 1.967 . S
Co136 O168 1.920 . S
Co137 O140 1.966 . S
Co137 N146 2.022 . S
Co137 N154 1.993 . S
Co137 O162 1.941 . S
C138 O139 1.258 . S
C138 O140 1.263 . S
O139 Co136 1.970 . S
O139 C138 1.258 . S
O140 Co137 1.966 . S
O140 C138 1.263 . S
C141 O142 1.235 . S
C141 O168 1.289 . S
O142 C141 1.235 . S
C143 C145 1.400 . S
C143 N146 1.351 . S
C143 C148 1.501 . S
C144 C145 1.387 . S
C144 N147 1.341 . S
C145 C143 1.400 . S
C145 C144 1.387 . S
N146 Co137 2.022 . S
N146 C143 1.351 . S
N146 N147 1.365 . S
N147 C144 1.341 . S
N147 N146 1.365 . S
N147 H167 0.862 . S
C148 C143 1.501 . S
C148 H149 0.961 . S
C148 H150 0.961 . S
C148 H151 0.960 . S
H149 C148 0.961 . S
H150 C148 0.961 . S
H151 C148 0.960 . S
C152 N153 1.342 . S
C152 C156 1.401 . S
C152 C157 1.499 . S
N153 Co136 1.989 . S
N153 C152 1.342 . S
N153 N154 1.388 . S
N154 Co137 1.993 . S
N154 N153 1.388 . S
N154 C155 1.346 . S
C155 N154 1.346 . S
C155 C156 1.396 . S
C155 C165 1.510 . S
C156 C152 1.401 . S
C156 C155 1.396 . S
C157 C152 1.499 . S
C157 H158 0.959 . S
C157 H159 0.960 . S
C157 H160 0.961 . S
H158 C157 0.959 . S
H159 C157 0.960 . S
H160 C157 0.961 . S
O161 Co136 1.967 . S
O161 C169 1.258 . S
O162 Co137 1.941 . S
O162 C169 1.266 . S
H163 C165 0.959 . S
H164 C165 0.961 . S
C165 C155 1.510 . S
C165 H163 0.959 . S
C165 H164 0.961 . S
C165 H166 0.960 . S
H166 C165 0.960 . S
H167 N147 0.862 . S
O168 Co136 1.920 . S
O168 C141 1.289 . S
C169 O161 1.258 . S
C169 O162 1.266 . S
Co170 O173 1.970 . S
Co170 N187 1.989 . S
Co170 O195 1.967 1_545 S
Co170 O202 1.920 1_545 S
Co171 O174 1.966 . S
Co171 N180 2.022 . S
Co171 N188 1.993 . S
Co171 O196 1.941 . S
C172 O173 1.258 . S
C172 O174 1.263 . S
O173 Co170 1.970 . S
O173 C172 1.258 . S
O174 Co171 1.966 . S
O174 C172 1.263 . S
C175 O176 1.235 1_565 S
C175 O202 1.289 . S
O176 C175 1.235 1_545 S
C177 C179 1.400 . S
C177 N180 1.351 . S
C177 C182 1.501 . S
C178 C179 1.387 . S
C178 N181 1.341 . S
C179 C177 1.400 . S
C179 C178 1.387 . S
N180 Co171 2.022 . S
N180 C177 1.351 . S
N180 N181 1.365 . S
N181 C178 1.341 . S
N181 N180 1.365 . S
N181 H201 0.862 . S
C182 C177 1.501 . S
C182 H183 0.961 . S
C182 H184 0.961 . S
C182 H185 0.960 . S
H183 C182 0.961 . S
H184 C182 0.961 . S
H185 C182 0.960 . S
C186 N187 1.342 . S
C186 C190 1.401 . S
C186 C191 1.499 . S
N187 Co170 1.989 . S
N187 C186 1.342 . S
N187 N188 1.388 . S
N188 Co171 1.993 . S
N188 N187 1.388 . S
N188 C189 1.346 . S
C189 N188 1.346 . S
C189 C190 1.396 . S
C189 C199 1.510 . S
C190 C186 1.401 . S
C190 C189 1.396 . S
C191 C186 1.499 . S
C191 H192 0.959 . S
C191 H193 0.960 . S
C191 H194 0.961 . S
H192 C191 0.959 . S
H193 C191 0.960 . S
H194 C191 0.961 . S
O195 Co170 1.967 1_565 S
O195 C203 1.258 . S
O196 Co171 1.941 . S
O196 C203 1.266 1_545 S
H197 C199 0.959 . S
H198 C199 0.961 . S
C199 C189 1.510 . S
C199 H197 0.959 . S
C199 H198 0.961 . S
C199 H200 0.960 . S
H200 C199 0.960 . S
H201 N181 0.862 . S
O202 Co170 1.920 1_565 S
O202 C175 1.289 . S
C203 O195 1.258 . S
C203 O196 1.266 1_565 S
Co204 O207 1.970 . S
Co204 N221 1.989 . S
Co204 O229 1.967 1_565 S
Co204 O236 1.920 1_565 S
Co205 O208 1.966 . S
Co205 N214 2.022 . S
Co205 N222 1.993 1_554 S
Co205 O230 1.941 . S
C206 O207 1.258 . S
C206 O208 1.263 1_556 S
O207 Co204 1.970 . S
O207 C206 1.258 . S
O208 Co205 1.966 . S
O208 C206 1.263 1_554 S
C209 O210 1.235 1_545 S
C209 O236 1.289 . S
O210 C209 1.235 1_565 S
C211 C213 1.400 . S
C211 N214 1.351 . S
C211 C216 1.501 . S
C212 C213 1.387 . S
C212 N215 1.341 . S
C213 C211 1.400 . S
C213 C212 1.387 . S
N214 Co205 2.022 . S
N214 C211 1.351 . S
N214 N215 1.365 . S
N215 C212 1.341 . S
N215 N214 1.365 . S
N215 H235 0.862 . S
C216 C211 1.501 . S
C216 H217 0.961 . S
C216 H218 0.961 . S
C216 H219 0.960 . S
H217 C216 0.961 . S
H218 C216 0.961 . S
H219 C216 0.960 . S
C220 N221 1.342 . S
C220 C224 1.401 . S
C220 C225 1.499 . S
N221 Co204 1.989 . S
N221 C220 1.342 . S
N221 N222 1.388 . S
N222 Co205 1.993 1_556 S
N222 N221 1.388 . S
N222 C223 1.346 . S
C223 N222 1.346 . S
C223 C224 1.396 . S
C223 C233 1.510 . S
C224 C220 1.401 . S
C224 C223 1.396 . S
C225 C220 1.499 . S
C225 H226 0.959 . S
C225 H227 0.960 . S
C225 H228 0.961 . S
H226 C225 0.959 . S
H227 C225 0.960 . S
H228 C225 0.961 . S
O229 Co204 1.967 1_545 S
O229 C237 1.258 1_556 S
O230 Co205 1.941 . S
O230 C237 1.266 1_565 S
H231 C233 0.959 . S
H232 C233 0.961 . S
C233 C223 1.510 . S
C233 H231 0.959 . S
C233 H232 0.961 . S
C233 H234 0.960 . S
H234 C233 0.960 . S
H235 N215 0.862 . S
O236 Co204 1.920 1_545 S
O236 C209 1.289 . S
C237 O229 1.258 1_554 S
C237 O230 1.266 1_545 S
Co238 O241 1.970 . S
Co238 N255 1.989 . S
Co238 O263 1.967 1_455 S
Co238 O270 1.920 1_455 S
Co239 O242 1.966 . S
Co239 N248 2.022 . S
Co239 N256 1.993 1_554 S
Co239 O264 1.941 . S
C240 O241 1.258 . S
C240 O242 1.263 1_556 S
O241 Co238 1.970 . S
O241 C240 1.258 . S
O242 Co239 1.966 . S
O242 C240 1.263 1_554 S
C243 O244 1.235 1_655 S
C243 O270 1.289 . S
O244 C243 1.235 1_455 S
C245 C247 1.400 . S
C245 N248 1.351 . S
C245 C250 1.501 . S
C246 C247 1.387 . S
C246 N249 1.341 . S
C247 C245 1.400 . S
C247 C246 1.387 . S
N248 Co239 2.022 . S
N248 C245 1.351 . S
N248 N249 1.365 . S
N249 C246 1.341 . S
N249 N248 1.365 . S
N249 H269 0.862 . S
C250 C245 1.501 . S
C250 H251 0.961 . S
C250 H252 0.961 . S
C250 H253 0.960 . S
H251 C250 0.961 . S
H252 C250 0.961 . S
H253 C250 0.960 . S
C254 N255 1.342 . S
C254 C258 1.401 . S
C254 C259 1.499 . S
N255 Co238 1.989 . S
N255 C254 1.342 . S
N255 N256 1.388 . S
N256 Co239 1.993 1_556 S
N256 N255 1.388 . S
N256 C257 1.346 . S
C257 N256 1.346 . S
C257 C258 1.396 . S
C257 C267 1.510 . S
C258 C254 1.401 . S
C258 C257 1.396 . S
C259 C254 1.499 . S
C259 H260 0.959 . S
C259 H261 0.960 . S
C259 H262 0.961 . S
H260 C259 0.959 . S
H261 C259 0.960 . S
H262 C259 0.961 . S
O263 Co238 1.967 1_655 S
O263 C271 1.258 1_556 S
O264 Co239 1.941 . S
O264 C271 1.266 1_455 S
H265 C267 0.959 . S
H266 C267 0.961 . S
C267 C257 1.510 . S
C267 H265 0.959 . S
C267 H266 0.961 . S
C267 H268 0.960 . S
H268 C267 0.960 . S
H269 N249 0.862 . S
O270 Co238 1.920 1_655 S
O270 C243 1.289 . S
C271 O263 1.258 1_554 S
C271 O264 1.266 1_655 S
Co272 O275 1.970 . S
Co272 N289 1.989 . S
Co272 O297 1.967 . S
Co272 O304 1.920 . S
Co273 O276 1.966 . S
Co273 N282 2.022 . S
Co273 N290 1.993 1_554 S
Co273 O298 1.941 . S
C274 O275 1.258 . S
C274 O276 1.263 1_556 S
O275 Co272 1.970 . S
O275 C274 1.258 . S
O276 Co273 1.966 . S
O276 C274 1.263 1_554 S
C277 O278 1.235 . S
C277 O304 1.289 . S
O278 C277 1.235 . S
C279 C281 1.400 . S
C279 N282 1.351 . S
C279 C284 1.501 . S
C280 C281 1.387 . S
C280 N283 1.341 . S
C281 C279 1.400 . S
C281 C280 1.387 . S
N282 Co273 2.022 . S
N282 C279 1.351 . S
N282 N283 1.365 . S
N283 C280 1.341 . S
N283 N282 1.365 . S
N283 H303 0.862 . S
C284 C279 1.501 . S
C284 H285 0.961 . S
C284 H286 0.961 . S
C284 H287 0.960 . S
H285 C284 0.961 . S
H286 C284 0.961 . S
H287 C284 0.960 . S
C288 N289 1.342 . S
C288 C292 1.401 . S
C288 C293 1.499 . S
N289 Co272 1.989 . S
N289 C288 1.342 . S
N289 N290 1.388 . S
N290 Co273 1.993 1_556 S
N290 N289 1.388 . S
N290 C291 1.346 . S
C291 N290 1.346 . S
C291 C292 1.396 . S
C291 C301 1.510 . S
C292 C288 1.401 . S
C292 C291 1.396 . S
C293 C288 1.499 . S
C293 H294 0.959 . S
C293 H295 0.960 . S
C293 H296 0.961 . S
H294 C293 0.959 . S
H295 C293 0.960 . S
H296 C293 0.961 . S
O297 Co272 1.967 . S
O297 C305 1.258 1_556 S
O298 Co273 1.941 . S
O298 C305 1.266 . S
H299 C301 0.959 . S
H300 C301 0.961 . S
C301 C291 1.510 . S
C301 H299 0.959 . S
C301 H300 0.961 . S
C301 H302 0.960 . S
H302 C301 0.960 . S
H303 N283 0.862 . S
O304 Co272 1.920 . S
O304 C277 1.289 . S
C305 O297 1.258 1_554 S
C305 O298 1.266 . S
Co306 O309 1.970 . S
Co306 N323 1.989 . S
Co306 O331 1.967 1_455 S
Co306 O338 1.920 1_455 S
Co307 O310 1.966 . S
Co307 N316 2.022 . S
Co307 N324 1.993 . S
Co307 O332 1.941 . S
C308 O309 1.258 . S
C308 O310 1.263 . S
O309 Co306 1.970 . S
O309 C308 1.258 . S
O310 Co307 1.966 . S
O310 C308 1.263 . S
C311 O312 1.235 1_655 S
C311 O338 1.289 . S
O312 C311 1.235 1_455 S
C313 C315 1.400 . S
C313 N316 1.351 . S
C313 C318 1.501 . S
C314 C315 1.387 . S
C314 N317 1.341 . S
C315 C313 1.400 . S
C315 C314 1.387 . S
N316 Co307 2.022 . S
N316 C313 1.351 . S
N316 N317 1.365 . S
N317 C314 1.341 . S
N317 N316 1.365 . S
N317 H337 0.862 . S
C318 C313 1.501 . S
C318 H319 0.961 . S
C318 H320 0.961 . S
C318 H321 0.960 . S
H319 C318 0.961 . S
H320 C318 0.961 . S
H321 C318 0.960 . S
C322 N323 1.342 . S
C322 C326 1.401 . S
C322 C327 1.499 . S
N323 Co306 1.989 . S
N323 C322 1.342 . S
N323 N324 1.388 . S
N324 Co307 1.993 . S
N324 N323 1.388 . S
N324 C325 1.346 . S
C325 N324 1.346 . S
C325 C326 1.396 . S
C325 C335 1.510 . S
C326 C322 1.401 . S
C326 C325 1.396 . S
C327 C322 1.499 . S
C327 H328 0.959 . S
C327 H329 0.960 . S
C327 H330 0.961 . S
H328 C327 0.959 . S
H329 C327 0.960 . S
H330 C327 0.961 . S
O331 Co306 1.967 1_655 S
O331 C339 1.258 . S
O332 Co307 1.941 . S
O332 C339 1.266 1_455 S
H333 C335 0.959 . S
H334 C335 0.961 . S
C335 C325 1.510 . S
C335 H333 0.959 . S
C335 H334 0.961 . S
C335 H336 0.960 . S
H336 C335 0.960 . S
H337 N317 0.862 . S
O338 Co306 1.920 1_655 S
O338 C311 1.289 . S
C339 O331 1.258 . S
C339 O332 1.266 1_655 S
Co340 O343 1.970 . S
Co340 N357 1.989 . S
Co340 O365 1.967 . S
Co340 O372 1.920 . S
Co341 O344 1.966 . S
Co341 N350 2.022 . S
Co341 N358 1.993 . S
Co341 O366 1.941 . S
C342 O343 1.258 . S
C342 O344 1.263 . S
O343 Co340 1.970 . S
O343 C342 1.258 . S
O344 Co341 1.966 . S
O344 C342 1.263 . S
C345 O346 1.235 . S
C345 O372 1.289 . S
O346 C345 1.235 . S
C347 C349 1.400 . S
C347 N350 1.351 . S
C347 C352 1.501 . S
C348 C349 1.387 . S
C348 N351 1.341 . S
C349 C347 1.400 . S
C349 C348 1.387 . S
N350 Co341 2.022 . S
N350 C347 1.351 . S
N350 N351 1.365 . S
N351 C348 1.341 . S
N351 N350 1.365 . S
N351 H371 0.862 . S
C352 C347 1.501 . S
C352 H353 0.961 . S
C352 H354 0.961 . S
C352 H355 0.960 . S
H353 C352 0.961 . S
H354 C352 0.961 . S
H355 C352 0.960 . S
C356 N357 1.342 . S
C356 C360 1.401 . S
C356 C361 1.499 . S
N357 Co340 1.989 . S
N357 C356 1.342 . S
N357 N358 1.388 . S
N358 Co341 1.993 . S
N358 N357 1.388 . S
N358 C359 1.346 . S
C359 N358 1.346 . S
C359 C360 1.396 . S
C359 C369 1.510 . S
C360 C356 1.401 . S
C360 C359 1.396 . S
C361 C356 1.499 . S
C361 H362 0.959 . S
C361 H363 0.960 . S
C361 H364 0.961 . S
H362 C361 0.959 . S
H363 C361 0.960 . S
H364 C361 0.961 . S
O365 Co340 1.967 . S
O365 C373 1.258 . S
O366 Co341 1.941 . S
O366 C373 1.266 . S
H367 C369 0.959 . S
H368 C369 0.961 . S
C369 C359 1.510 . S
C369 H367 0.959 . S
C369 H368 0.961 . S
C369 H370 0.960 . S
H370 C369 0.960 . S
H371 N351 0.862 . S
O372 Co340 1.920 . S
O372 C345 1.289 . S
C373 O365 1.258 . S
C373 O366 1.266 . S
Co374 O377 1.970 . S
Co374 N391 1.989 . S
Co374 O399 1.967 1_565 S
Co374 O406 1.920 1_565 S
Co375 O378 1.966 . S
Co375 N384 2.022 . S
Co375 N392 1.993 . S
Co375 O400 1.941 . S
C376 O377 1.258 . S
C376 O378 1.263 . S
O377 Co374 1.970 . S
O377 C376 1.258 . S
O378 Co375 1.966 . S
O378 C376 1.263 . S
C379 O380 1.235 1_545 S
C379 O406 1.289 . S
O380 C379 1.235 1_565 S
C381 C383 1.400 . S
C381 N384 1.351 . S
C381 C386 1.501 . S
C382 C383 1.387 . S
C382 N385 1.341 . S
C383 C381 1.400 . S
C383 C382 1.387 . S
N384 Co375 2.022 . S
N384 C381 1.351 . S
N384 N385 1.365 . S
N385 C382 1.341 . S
N385 N384 1.365 . S
N385 H405 0.862 . S
C386 C381 1.501 . S
C386 H387 0.961 . S
C386 H388 0.961 . S
C386 H389 0.960 . S
H387 C386 0.961 . S
H388 C386 0.961 . S
H389 C386 0.960 . S
C390 N391 1.342 . S
C390 C394 1.401 . S
C390 C395 1.499 . S
N391 Co374 1.989 . S
N391 C390 1.342 . S
N391 N392 1.388 . S
N392 Co375 1.993 . S
N392 N391 1.388 . S
N392 C393 1.346 . S
C393 N392 1.346 . S
C393 C394 1.396 . S
C393 C403 1.510 . S
C394 C390 1.401 . S
C394 C393 1.396 . S
C395 C390 1.499 . S
C395 H396 0.959 . S
C395 H397 0.960 . S
C395 H398 0.961 . S
H396 C395 0.959 . S
H397 C395 0.960 . S
H398 C395 0.961 . S
O399 Co374 1.967 1_545 S
O399 C407 1.258 . S
O400 Co375 1.941 . S
O400 C407 1.266 1_565 S
H401 C403 0.959 . S
H402 C403 0.961 . S
C403 C393 1.510 . S
C403 H401 0.959 . S
C403 H402 0.961 . S
C403 H404 0.960 . S
H404 C403 0.960 . S
H405 N385 0.862 . S
O406 Co374 1.920 1_545 S
O406 C379 1.289 . S
C407 O399 1.258 . S
C407 O400 1.266 1_545 S
C175 C5 0.610 . S
C39 C107 0.610 . S
C73 C141 0.610 . S
C209 C379 0.610 . S
C311 C243 0.610 . S
C345 C277 0.610 . S
C33 C237 4.865 1_566 S
C67 C271 4.865 1_456 S
C305 C101 4.866 1_554 S
C339 C135 4.864 1_655 S
C169 C373 4.866 . S
C203 C407 4.866 1_565 S
C156 C20 2.785 . S
C190 C54 2.784 . S
C122 C88 2.784 . S
C224 C360 2.785 . S
C258 C394 2.784 . S
C326 C292 2.784 . S
C9 C70 3.974 1_556 S
C43 C2 3.974 1_556 S
C36 C77 3.974 1_554 S
C111 C138 3.974 . S
C172 C145 3.974 . S
C104 C179 3.974 . S
C274 C213 3.974 1_556 S
C247 C206 3.974 1_554 S
C240 C281 3.974 1_556 S
C342 C315 3.974 . S
C376 C349 3.974 . S
C383 C308 3.974 . S
