# Generated by pormake.
# Topology umd, (4)-cn, num edge types: 1
# Building blocks:
#     Node 0, Type 0, BuildingBlock: ESEHIV_clean_sbu_0, # of connection points: 4
#     Node 1, Type 0, BuildingBlock: ESEHIV_clean_sbu_0, # of connection points: 4
#     Node 2, Type 0, BuildingBlock: ESEHIV_clean_sbu_0, # of connection points: 4
#     Node 3, Type 0, BuildingBlock: ESEHIV_clean_sbu_0, # of connection points: 4
#     Node 4, Type 0, BuildingBlock: ESEHIV_clean_sbu_0, # of connection points: 4
#     Node 5, Type 0, BuildingBlock: ESEHIV_clean_sbu_0, # of connection points: 4
#     Node 6, Type 0, BuildingBlock: ESEHIV_clean_sbu_0, # of connection points: 4
#     Node 7, Type 0, BuildingBlock: ESEHIV_clean_sbu_0, # of connection points: 4
#     Node 8, Type 0, BuildingBlock: ESEHIV_clean_sbu_0, # of connection points: 4
#     Node 9, Type 0, BuildingBlock: ESEHIV_clean_sbu_0, # of connection points: 4
#     Node 10, Type 0, BuildingBlock: ESEHIV_clean_sbu_0, # of connection points: 4
#     Node 11, Type 0, BuildingBlock: ESEHIV_clean_sbu_0, # of connection points: 4
#     Node 12, Type 0, BuildingBlock: ESEHIV_clean_sbu_0, # of connection points: 4
#     Node 13, Type 0, BuildingBlock: ESEHIV_clean_sbu_0, # of connection points: 4
#     Node 14, Type 0, BuildingBlock: ESEHIV_clean_sbu_0, # of connection points: 4
#     Node 15, Type 0, BuildingBlock: ESEHIV_clean_sbu_0, # of connection points: 4
#     Edge 16, Type (0, 0), BuildingBlock: AJUNOK_clean_linker_0, # of connection points: 2
#     Edge 17, Type (0, 0), BuildingBlock: AJUNOK_clean_linker_0, # of connection points: 2
#     Edge 18, Type (0, 0), BuildingBlock: AJUNOK_clean_linker_0, # of connection points: 2
#     Edge 19, Type (0, 0), BuildingBlock: AJUNOK_clean_linker_0, # of connection points: 2
#     Edge 20, Type (0, 0), BuildingBlock: AJUNOK_clean_linker_0, # of connection points: 2
#     Edge 21, Type (0, 0), BuildingBlock: AJUNOK_clean_linker_0, # of connection points: 2
#     Edge 22, Type (0, 0), BuildingBlock: AJUNOK_clean_linker_0, # of connection points: 2
#     Edge 23, Type (0, 0), BuildingBlock: AJUNOK_clean_linker_0, # of connection points: 2
#     Edge 24, Type (0, 0), BuildingBlock: AJUNOK_clean_linker_0, # of connection points: 2
#     Edge 25, Type (0, 0), BuildingBlock: AJUNOK_clean_linker_0, # of connection points: 2
#     Edge 26, Type (0, 0), BuildingBlock: AJUNOK_clean_linker_0, # of connection points: 2
#     Edge 27, Type (0, 0), BuildingBlock: AJUNOK_clean_linker_0, # of connection points: 2
#     Edge 28, Type (0, 0), BuildingBlock: AJUNOK_clean_linker_0, # of connection points: 2
#     Edge 29, Type (0, 0), BuildingBlock: AJUNOK_clean_linker_0, # of connection points: 2
#     Edge 30, Type (0, 0), BuildingBlock: AJUNOK_clean_linker_0, # of connection points: 2
#     Edge 31, Type (0, 0), BuildingBlock: AJUNOK_clean_linker_0, # of connection points: 2
#     Edge 32, Type (0, 0), BuildingBlock: AJUNOK_clean_linker_0, # of connection points: 2
#     Edge 33, Type (0, 0), BuildingBlock: AJUNOK_clean_linker_0, # of connection points: 2
#     Edge 34, Type (0, 0), BuildingBlock: AJUNOK_clean_linker_0, # of connection points: 2
#     Edge 35, Type (0, 0), BuildingBlock: AJUNOK_clean_linker_0, # of connection points: 2
#     Edge 36, Type (0, 0), BuildingBlock: AJUNOK_clean_linker_0, # of connection points: 2
#     Edge 37, Type (0, 0), BuildingBlock: AJUNOK_clean_linker_0, # of connection points: 2
#     Edge 38, Type (0, 0), BuildingBlock: AJUNOK_clean_linker_0, # of connection points: 2
#     Edge 39, Type (0, 0), BuildingBlock: AJUNOK_clean_linker_0, # of connection points: 2
#     Edge 40, Type (0, 0), BuildingBlock: AJUNOK_clean_linker_0, # of connection points: 2
#     Edge 41, Type (0, 0), BuildingBlock: AJUNOK_clean_linker_0, # of connection points: 2
#     Edge 42, Type (0, 0), BuildingBlock: AJUNOK_clean_linker_0, # of connection points: 2
#     Edge 43, Type (0, 0), BuildingBlock: AJUNOK_clean_linker_0, # of connection points: 2
#     Edge 44, Type (0, 0), BuildingBlock: AJUNOK_clean_linker_0, # of connection points: 2
#     Edge 45, Type (0, 0), BuildingBlock: AJUNOK_clean_linker_0, # of connection points: 2
#     Edge 46, Type (0, 0), BuildingBlock: AJUNOK_clean_linker_0, # of connection points: 2
#     Edge 47, Type (0, 0), BuildingBlock: AJUNOK_clean_linker_0, # of connection points: 2
# Relax obj value: 0.041
# Max RMSD: 0.130
# Mean RMSD: 0.130
data_MOF--net-umd--node1-ESEHIV_clean_sbu_0--edge1-AJUNOK_clean_linker_0
_symmetry_space_group_name_H-M    P1
_symmetry_Int_Tables_number       1
_symmetry_cell_setting            triclinic
loop_
_symmetry_equiv_pos_as_xyz
'x, y, z'
_cell_length_a     36.667986
_cell_length_b     36.866866
_cell_length_c     39.482894
_cell_angle_alpha  89.821955
_cell_angle_beta   90.274857
_cell_angle_gamma 89.98186
loop_
_atom_site_label
_atom_site_type_symbol
_atom_site_fract_x
_atom_site_fract_y
_atom_site_fract_z
_atom_type_partial_charge
Cu0 Cu 0.18905 0.43352 0.18122 0.0
N1 N 0.13857 0.4403 0.18037 0.0
N2 N 0.08433 0.4675 0.18378 0.0
C3 C 0.12079 0.47162 0.18616 0.0
C4 C 0.07887 0.43239 0.1758 0.0
C5 C 0.11244 0.41569 0.17356 0.0
O6 O 0.20749 0.4577 0.22147 0.0
C7 C 0.20357 0.43118 0.11222 0.0
O8 O 0.18884 0.399 0.1162 0.0
H9 H 0.13423 0.49695 0.19205 0.0
H10 H 0.11742 0.38768 0.16698 0.0
N11 N 0.19949 0.38423 0.18699 0.0
N12 N 0.22736 0.33032 0.18606 0.0
C13 C 0.2286 0.36535 0.17593 0.0
C14 C 0.17979 0.36059 0.20536 0.0
C15 C 0.19682 0.32736 0.20479 0.0
C16 C 0.21079 0.49173 0.22557 0.0
O17 O 0.20498 0.51349 0.19969 0.0
H18 H 0.25025 0.37706 0.1609 0.0
H19 H 0.15519 0.36733 0.21896 0.0
O20 O 0.20778 0.45145 0.13805 0.0
H21 H 0.0526 0.41999 0.17103 0.0
H22 H 0.18813 0.30327 0.21824 0.0
Cu23 Cu 0.60575 0.18582 0.67652 0.0
N24 N 0.59817 0.13596 0.67226 0.0
N25 N 0.57241 0.08108 0.67471 0.0
C26 C 0.56866 0.11675 0.68169 0.0
C27 C 0.60546 0.0779 0.6601 0.0
C28 C 0.62127 0.11176 0.65868 0.0
O29 O 0.5815 0.2032 0.71716 0.0
C30 C 0.57454 0.19689 0.61049 0.0
O31 O 0.55362 0.16903 0.61773 0.0
H32 H 0.54455 0.12889 0.69244 0.0
H33 H 0.64771 0.11837 0.64831 0.0
N34 N 0.65514 0.19373 0.68437 0.0
N35 N 0.70858 0.22245 0.68807 0.0
C36 C 0.67389 0.22395 0.67651 0.0
C37 C 0.67868 0.17226 0.70128 0.0
C38 C 0.71177 0.18984 0.70343 0.0
C39 C 0.54749 0.20482 0.72309 0.0
O40 O 0.52428 0.19773 0.69854 0.0
H41 H 0.66214 0.24659 0.6628 0.0
H42 H 0.67194 0.14611 0.71204 0.0
O43 O 0.59479 0.21014 0.63366 0.0
H44 H 0.61739 0.05288 0.65111 0.0
H45 H 0.73594 0.17995 0.71633 0.0
Cu46 Cu 0.87072 0.61177 0.18274 0.0
N47 N 0.92109 0.60629 0.1888 0.0
N48 N 0.97553 0.57897 0.19211 0.0
C49 C 0.93898 0.57446 0.19109 0.0
C50 C 0.98082 0.61512 0.1899 0.0
C51 C 0.94728 0.63185 0.18767 0.0
O52 O 0.84726 0.58561 0.21951 0.0
C53 C 0.83423 0.59569 0.11727 0.0
O54 O 0.80253 0.60554 0.12952 0.0
H55 H 0.9255 0.54845 0.18992 0.0
H56 H 0.94255 0.66052 0.18396 0.0
N57 N 0.85814 0.66061 0.18818 0.0
N58 N 0.82687 0.71267 0.18881 0.0
C59 C 0.82874 0.67869 0.17622 0.0
C60 C 0.87471 0.68374 0.20961 0.0
C61 C 0.85572 0.71587 0.20985 0.0
C62 C 0.84688 0.5515 0.22417 0.0
O63 O 0.85838 0.53012 0.1999 0.0
H64 H 0.80844 0.66693 0.15965 0.0
H65 H 0.89789 0.67704 0.22546 0.0
O66 O 0.86222 0.59531 0.13649 0.0
H67 H 1.00708 0.62849 0.18905 0.0
H68 H 0.86141 0.739 0.22586 0.0
Cu69 Cu 0.43215 0.86437 0.68552 0.0
N70 N 0.4382 0.91477 0.68855 0.0
N71 N 0.4653 0.96897 0.68973 0.0
C72 C 0.46992 0.93295 0.68575 0.0
C73 C 0.42933 0.97384 0.6948 0.0
C74 C 0.41264 0.94038 0.69388 0.0
O75 O 0.45821 0.8434 0.72377 0.0
C76 C 0.44217 0.8686 0.61575 0.0
O77 O 0.42579 0.89976 0.62085 0.0
H78 H 0.49588 0.9201 0.68083 0.0
H79 H 0.38377 0.93536 0.69624 0.0
N80 N 0.3833 0.85192 0.6914 0.0
N81 N 0.33161 0.81998 0.69017 0.0
C82 C 0.36536 0.82393 0.67711 0.0
C83 C 0.36029 0.86574 0.71447 0.0
C84 C 0.32823 0.8464 0.71346 0.0
C85 C 0.49269 0.84276 0.72725 0.0
O86 O 0.51322 0.85305 0.7018 0.0
H87 H 0.37725 0.80618 0.65837 0.0
H88 H 0.36703 0.88711 0.7321 0.0
O89 O 0.44809 0.84764 0.64093 0.0
H90 H 0.416 0.99981 0.69796 0.0
H91 H 0.30502 0.85006 0.72995 0.0
Cu92 Cu 0.18906 0.60553 0.40942 0.0
N93 N 0.13836 0.59992 0.41092 0.0
N94 N 0.0828 0.57482 0.40846 0.0
C95 C 0.11903 0.56968 0.40425 0.0
C96 C 0.07941 0.60971 0.41827 0.0
C97 C 0.11362 0.62505 0.41981 0.0
O98 O 0.20719 0.58096 0.36929 0.0
C99 C 0.19864 0.56321 0.46934 0.0
O100 O 0.17544 0.54117 0.45459 0.0
H101 H 0.13155 0.54411 0.39783 0.0
H102 H 0.12006 0.65249 0.42733 0.0
N103 N 0.19969 0.65443 0.40266 0.0
N104 N 0.23018 0.70681 0.39991 0.0
C105 C 0.23002 0.67249 0.41209 0.0
C106 C 0.18013 0.67799 0.38389 0.0
C107 C 0.1987 0.71036 0.38237 0.0
C108 C 0.20903 0.54705 0.36381 0.0
O109 O 0.2014 0.5243 0.38842 0.0
H110 H 0.2516 0.66049 0.42717 0.0
H111 H 0.1547 0.67164 0.37125 0.0
O112 O 0.20981 0.59091 0.45306 0.0
H113 H 0.05402 0.62321 0.42418 0.0
H114 H 0.19039 0.73422 0.36827 0.0
Cu115 Cu 0.4349 0.17845 0.90515 0.0
N116 N 0.44246 0.12836 0.90262 0.0
N117 N 0.47107 0.07513 0.89902 0.0
C118 C 0.4748 0.11149 0.89918 0.0
C119 C 0.43522 0.06867 0.90301 0.0
C120 C 0.41764 0.10158 0.90555 0.0
O121 O 0.45998 0.20031 0.86678 0.0
C122 C 0.45048 0.22337 0.96476 0.0
O123 O 0.44243 0.25219 0.94658 0.0
H124 H 0.50066 0.12543 0.89738 0.0
H125 H 0.38892 0.10555 0.91031 0.0
N126 N 0.38533 0.18819 0.89838 0.0
N127 N 0.33213 0.21763 0.89418 0.0
C128 C 0.36621 0.21784 0.90746 0.0
C129 C 0.36274 0.16898 0.87836 0.0
C130 C 0.32993 0.18681 0.87598 0.0
C131 C 0.49421 0.20248 0.86221 0.0
O132 O 0.51639 0.19382 0.88717 0.0
H133 H 0.37776 0.24014 0.92158 0.0
H134 H 0.37019 0.14464 0.86487 0.0
O135 O 0.45028 0.19228 0.95078 0.0
H136 H 0.42293 0.04208 0.90537 0.0
H137 H 0.30666 0.17835 0.861 0.0
Cu138 Cu 0.86546 0.43247 0.40445 0.0
N139 N 0.91586 0.43987 0.40742 0.0
N140 N 0.97037 0.4667 0.40622 0.0
C141 C 0.93401 0.47137 0.4034 0.0
C142 C 0.97545 0.43112 0.41243 0.0
C143 C 0.94172 0.41464 0.41333 0.0
O144 O 0.84702 0.45852 0.36503 0.0
C145 C 0.85463 0.46527 0.46976 0.0
O146 O 0.87998 0.48846 0.46073 0.0
H147 H 0.92096 0.49717 0.39844 0.0
H148 H 0.93644 0.38626 0.4182 0.0
N149 N 0.85644 0.38368 0.39562 0.0
N150 N 0.82764 0.33044 0.39307 0.0
C151 C 0.82679 0.36468 0.40501 0.0
C152 C 0.87643 0.3609 0.37669 0.0
C153 C 0.85879 0.32794 0.37519 0.0
C154 C 0.84376 0.49262 0.36129 0.0
O155 O 0.84981 0.51396 0.38729 0.0
H156 H 0.80477 0.3759 0.41987 0.0
H157 H 0.90154 0.36807 0.36406 0.0
O158 O 0.84288 0.44247 0.44812 0.0
H159 H 1.00159 0.41822 0.41678 0.0
H160 H 0.86743 0.30448 0.36089 0.0
Cu161 Cu 0.61292 0.86071 0.90841 0.0
N162 N 0.60733 0.91101 0.90937 0.0
N163 N 0.5821 0.96605 0.90513 0.0
C164 C 0.57722 0.93 0.90106 0.0
C165 C 0.61667 0.96973 0.91656 0.0
C166 C 0.63213 0.93577 0.91912 0.0
O167 O 0.58772 0.84255 0.86845 0.0
C168 C 0.57111 0.85253 0.96861 0.0
O169 O 0.54961 0.87662 0.95429 0.0
H170 H 0.55184 0.9174 0.89359 0.0
H171 H 0.65941 0.9295 0.92789 0.0
N172 N 0.66201 0.85024 0.90193 0.0
N173 N 0.71474 0.82002 0.90003 0.0
C174 C 0.68033 0.82047 0.91216 0.0
C175 C 0.68551 0.86929 0.88283 0.0
C176 C 0.71811 0.85085 0.88178 0.0
C177 C 0.5535 0.83995 0.8638 0.0
O178 O 0.5314 0.84645 0.88915 0.0
H179 H 0.6684 0.79946 0.92776 0.0
H180 H 0.67895 0.89423 0.86966 0.0
O181 O 0.59826 0.84051 0.95204 0.0
H182 H 0.62977 0.99513 0.92292 0.0
H183 H 0.74196 0.85873 0.86748 0.0
Cu184 Cu 0.86718 0.60946 0.90399 0.0
N185 N 0.91784 0.60307 0.9024 0.0
N186 N 0.97225 0.57567 0.90126 0.0
C187 C 0.93575 0.57119 0.90321 0.0
C188 C 0.97746 0.61186 0.89968 0.0
C189 C 0.94393 0.62866 0.90042 0.0
O190 O 0.84708 0.58352 0.86537 0.0
C191 C 0.8692 0.59903 0.97418 0.0
O192 O 0.90206 0.61227 0.96969 0.0
H193 H 0.92224 0.54537 0.90633 0.0
H194 H 0.9391 0.65756 0.90009 0.0
N195 N 0.85576 0.65814 0.89696 0.0
N196 N 0.82511 0.71044 0.89672 0.0
C197 C 0.82759 0.67677 0.91011 0.0
C198 C 0.87132 0.68064 0.87436 0.0
C199 C 0.85274 0.71306 0.87444 0.0
C200 C 0.84629 0.54922 0.86217 0.0
O201 O 0.85536 0.5288 0.88819 0.0
H202 H 0.80882 0.66552 0.92843 0.0
H203 H 0.89362 0.67343 0.85788 0.0
O204 O 0.84853 0.59458 0.94843 0.0
H205 H 1.00365 0.62529 0.89808 0.0
H206 H 0.85791 0.73613 0.85812 0.0
Cu207 Cu 0.43785 0.86689 0.40473 0.0
N208 N 0.44177 0.9165 0.39607 0.0
N209 N 0.46872 0.97043 0.3906 0.0
C210 C 0.47366 0.93437 0.39384 0.0
C211 C 0.43235 0.97565 0.3911 0.0
C212 C 0.41575 0.94229 0.3948 0.0
O213 O 0.47248 0.84381 0.37423 0.0
C214 C 0.45168 0.83566 0.47265 0.0
O215 O 0.44634 0.80279 0.46089 0.0
H216 H 0.50003 0.92127 0.39574 0.0
H217 H 0.38691 0.93755 0.39813 0.0
N218 N 0.39022 0.85084 0.39574 0.0
N219 N 0.33911 0.8178 0.39473 0.0
C220 C 0.37324 0.8209 0.40749 0.0
C221 C 0.36601 0.86685 0.37472 0.0
C222 C 0.33448 0.84673 0.37424 0.0
C223 C 0.46564 0.84627 0.3426 0.0
O224 O 0.43493 0.86155 0.33302 0.0
H225 H 0.38555 0.80183 0.42498 0.0
H226 H 0.37119 0.89098 0.35993 0.0
O227 O 0.4497 0.86276 0.45269 0.0
H228 H 0.41892 1.00181 0.39085 0.0
H229 H 0.31035 0.85232 0.35919 0.0
Cu230 Cu 0.1885 0.43261 0.9061 0.0
N231 N 0.13843 0.44049 0.91054 0.0
N232 N 0.08362 0.46673 0.90949 0.0
C233 C 0.11954 0.47094 0.90347 0.0
C234 C 0.07968 0.43251 0.92097 0.0
C235 C 0.1136 0.41641 0.9217 0.0
O236 O 0.20607 0.45731 0.86575 0.0
C237 C 0.20172 0.46689 0.96997 0.0
O238 O 0.1766 0.4902 0.9604 0.0
H239 H 0.13175 0.4957 0.89412 0.0
H240 H 0.1198 0.38913 0.93006 0.0
N241 N 0.19589 0.38348 0.89802 0.0
N242 N 0.22331 0.32963 0.89407 0.0
C243 C 0.22567 0.36382 0.90606 0.0
C244 C 0.17409 0.36115 0.88024 0.0
C245 C 0.19093 0.32789 0.87777 0.0
C246 C 0.20807 0.49122 0.86015 0.0
O247 O 0.20103 0.51394 0.88484 0.0
H248 H 0.24924 0.37491 0.91897 0.0
H249 H 0.14824 0.36886 0.86904 0.0
O250 O 0.21279 0.44328 0.94889 0.0
H251 H 0.05426 0.42038 0.92904 0.0
H252 H 0.18051 0.30443 0.86445 0.0
Cu253 Cu 0.61153 0.1854 0.4007 0.0
N254 N 0.60487 0.13529 0.40292 0.0
N255 N 0.57836 0.08077 0.40027 0.0
C256 C 0.57434 0.11679 0.39505 0.0
C257 C 0.61265 0.07662 0.41228 0.0
C258 C 0.62887 0.11026 0.41394 0.0
O259 O 0.58784 0.20258 0.3594 0.0
C260 C 0.61407 0.20415 0.46942 0.0
O261 O 0.64749 0.19191 0.46613 0.0
H262 H 0.54933 0.1297 0.38691 0.0
H263 H 0.65611 0.11613 0.42302 0.0
N264 N 0.66124 0.19486 0.3949 0.0
N265 N 0.71558 0.22225 0.39336 0.0
C266 C 0.68045 0.22471 0.40335 0.0
C267 C 0.68476 0.17334 0.37834 0.0
C268 C 0.71824 0.19007 0.3774 0.0
C269 C 0.5538 0.20484 0.35349 0.0
O270 O 0.53078 0.19881 0.37827 0.0
H271 H 0.66886 0.24781 0.41631 0.0
H272 H 0.67773 0.1477 0.36681 0.0
O273 O 0.59326 0.20517 0.44343 0.0
H274 H 0.62508 0.05111 0.41955 0.0
H275 H 0.74224 0.17998 0.36465 0.0
Cu276 Cu 0.86606 0.42996 0.68095 0.0
N277 N 0.91669 0.43506 0.6798 0.0
N278 N 0.97139 0.46146 0.68004 0.0
C279 C 0.93504 0.46664 0.68115 0.0
C280 C 0.97627 0.42537 0.67744 0.0
C281 C 0.9424 0.40912 0.67702 0.0
O282 O 0.84882 0.4551 0.72101 0.0
C283 C 0.85004 0.42754 0.61187 0.0
O284 O 0.86238 0.39438 0.61608 0.0
H285 H 0.92209 0.49293 0.6829 0.0
H286 H 0.93701 0.38047 0.67427 0.0
N287 N 0.85364 0.38129 0.6877 0.0
N288 N 0.82153 0.32988 0.6902 0.0
C289 C 0.82279 0.3642 0.67815 0.0
C290 C 0.87211 0.35715 0.70683 0.0
C291 C 0.85261 0.32531 0.70807 0.0
C292 C 0.84678 0.48913 0.72565 0.0
O293 O 0.85357 0.51118 0.70025 0.0
H294 H 0.8016 0.37684 0.66301 0.0
H295 H 0.89733 0.36276 0.72009 0.0
O296 O 0.84752 0.44818 0.6376 0.0
H297 H 1.00238 0.4119 0.67509 0.0
H298 H 0.85993 0.30116 0.72223 0.0
Cu299 Cu 0.60888 0.85586 0.17688 0.0
N300 N 0.60434 0.90625 0.17672 0.0
N301 N 0.5791 0.96137 0.1794 0.0
C302 C 0.57355 0.92523 0.18205 0.0
C303 C 0.61479 0.96508 0.17185 0.0
C304 C 0.63026 0.93107 0.17019 0.0
O305 O 0.57353 0.83749 0.20948 0.0
C306 C 0.56986 0.84582 0.11568 0.0
O307 O 0.54325 0.86085 0.13282 0.0
H308 H 0.5474 0.91257 0.18653 0.0
H309 H 0.65831 0.92483 0.16421 0.0
N310 N 0.65656 0.84354 0.18932 0.0
N311 N 0.71086 0.81614 0.19165 0.0
C312 C 0.67658 0.81498 0.17897 0.0
C313 C 0.67883 0.8631 0.20935 0.0
C314 C 0.71222 0.84621 0.21099 0.0
C315 C 0.57951 0.8407 0.24117 0.0
O316 O 0.6112 0.85326 0.25133 0.0
H317 H 0.66649 0.79421 0.16203 0.0
H318 H 0.67128 0.88802 0.22188 0.0
O319 O 0.59986 0.83934 0.13086 0.0
H320 H 0.62871 0.99057 0.16759 0.0
H321 H 0.73551 0.85508 0.22573 0.0
Cu322 Cu 0.18739 0.60423 0.6758 0.0
N323 N 0.13698 0.59752 0.67327 0.0
N324 N 0.08213 0.57111 0.67519 0.0
C325 C 0.11837 0.56696 0.68027 0.0
C326 C 0.07795 0.6057 0.66449 0.0
C327 C 0.11178 0.62187 0.66331 0.0
O328 O 0.2052 0.57974 0.71647 0.0
C329 C 0.19797 0.56249 0.61603 0.0
O330 O 0.17457 0.54033 0.63026 0.0
H331 H 0.13145 0.54186 0.68758 0.0
H332 H 0.11766 0.64934 0.65536 0.0
N333 N 0.19654 0.65337 0.68242 0.0
N334 N 0.2252 0.70677 0.68461 0.0
C335 C 0.22591 0.6725 0.67251 0.0
C336 C 0.17657 0.67618 0.70129 0.0
C337 C 0.19403 0.70917 0.70251 0.0
C338 C 0.20851 0.54575 0.72118 0.0
O339 O 0.20299 0.52364 0.69567 0.0
H340 H 0.24746 0.66128 0.65712 0.0
H341 H 0.15163 0.66892 0.71417 0.0
O342 O 0.20894 0.59003 0.63262 0.0
H343 H 0.0523 0.61841 0.65777 0.0
H344 H 0.18526 0.73266 0.71671 0.0
Cu345 Cu 0.43758 0.1779 0.17247 0.0
N346 N 0.44373 0.12757 0.17563 0.0
N347 N 0.47045 0.07332 0.18028 0.0
C348 C 0.47546 0.10956 0.17962 0.0
C349 C 0.43434 0.06817 0.17611 0.0
C350 C 0.41795 0.10167 0.17301 0.0
O351 O 0.46374 0.19949 0.21043 0.0
C352 C 0.45314 0.2226 0.11286 0.0
O353 O 0.44639 0.25136 0.13134 0.0
H354 H 0.50177 0.12263 0.18161 0.0
H355 H 0.38934 0.10667 0.16824 0.0
N356 N 0.38834 0.18901 0.17911 0.0
N357 N 0.33506 0.21841 0.1807 0.0
C358 C 0.36919 0.21799 0.16796 0.0
C359 C 0.36572 0.17112 0.20008 0.0
C360 C 0.33283 0.18899 0.20093 0.0
C361 C 0.49811 0.20078 0.21477 0.0
O362 O 0.5196 0.19107 0.18988 0.0
H363 H 0.3802 0.23887 0.15169 0.0
H364 H 0.37318 0.1476 0.215 0.0
O365 O 0.45251 0.19134 0.12667 0.0
H366 H 0.42101 0.04206 0.17412 0.0
H367 H 0.30977 0.18205 0.21669 0.0
C368 C 0.06246 0.52942 0.17169 0.0
C369 C 0.05716 0.49542 0.18704 0.0
C370 C 0.03588 0.55666 0.17373 0.0
C371 C 1.00312 0.55102 0.19149 0.0
H372 H 0.087 0.53466 0.15732 0.0
H373 H 0.04071 0.58201 0.16063 0.0
S374 S 0.97839 0.468 0.23964 0.0
N375 N 1.01822 0.45828 0.22252 0.0
N376 N 0.96852 0.50968 0.22719 0.0
C377 C 0.9981 0.51742 0.20788 0.0
C378 C 0.02504 0.48957 0.20545 0.0
C379 C 0.51758 0.99619 0.66015 0.0
C380 C 0.4927 0.99667 0.68706 0.0
C381 C 0.54362 0.02373 0.65641 0.0
C382 C 0.54594 0.05258 0.67964 0.0
H383 H 0.51628 0.97481 0.64144 0.0
H384 H 0.56157 0.02279 0.63475 0.0
S385 S 0.48967 0.06342 0.75692 0.0
N386 N 0.4734 0.02655 0.7386 0.0
N387 N 0.52291 0.07792 0.73225 0.0
C388 C 0.52184 0.05264 0.70731 0.0
C389 C 0.49509 0.02477 0.71086 0.0
C390 C 1.02285 0.55113 0.42681 0.0
C391 C 0.05403 0.54807 0.40621 0.0
C392 C 0.99521 0.52487 0.42611 0.0
C393 C 0.99795 0.49431 0.40521 0.0
H394 H 1.0201 0.57353 0.44425 0.0
H395 H 0.97198 0.52788 0.44271 0.0
S396 S 0.0712 0.47494 0.34369 0.0
N397 N 0.0838 0.51329 0.3618 0.0
N398 N 0.03243 0.46329 0.36186 0.0
C399 C 0.02831 0.4911 0.384 0.0
C400 C 0.05621 0.51812 0.38417 0.0
C401 C 0.55616 0.02478 0.92307 0.0
C402 C 0.55507 0.99431 0.90161 0.0
C403 C 0.5291 0.05158 0.92149 0.0
C404 C 0.49976 0.04866 0.89872 0.0
H405 H 0.5775 0.02748 0.94191 0.0
H406 H 0.53044 0.07418 0.9389 0.0
S407 S 0.48618 0.97725 0.83422 0.0
N408 N 0.52383 0.9651 0.85442 0.0
N409 N 0.47232 1.01499 0.85257 0.0
C410 C 0.4987 1.01911 0.87651 0.0
C411 C 0.52652 0.99204 0.87768 0.0
C412 C 0.03422 0.5554 0.9174 0.0
C413 C 1.00011 0.548 0.90235 0.0
C414 C 0.06156 0.52888 0.91921 0.0
C415 C 0.05567 0.49387 0.90639 0.0
H416 H 0.03965 0.58169 0.92843 0.0
H417 H 0.08723 0.53548 0.93138 0.0
S418 S 0.97306 0.46142 0.86148 0.0
N419 N 0.96338 0.50369 0.87187 0.0
N420 N 1.01452 0.45363 0.87635 0.0
C421 C 1.02211 0.48616 0.89082 0.0
C422 C 0.99438 0.51326 0.88854 0.0
C423 C 0.55102 0.02283 0.41876 0.0
C424 C 0.55106 0.05284 0.3966 0.0
C425 C 0.52434 0.99577 0.41632 0.0
C426 C 0.4965 0.99786 0.39185 0.0
H427 H 0.57133 1.02056 0.43863 0.0
H428 H 0.52495 0.97345 0.43421 0.0
S429 S 0.48598 0.06845 0.32564 0.0
N430 N 0.52221 0.08127 0.34755 0.0
N431 N 0.47147 0.03074 0.34382 0.0
C432 C 0.49638 0.02721 0.3692 0.0
C433 C 0.5238 0.05463 0.37136 0.0
C434 C 0.9961 0.51859 0.65747 0.0
C435 C 0.99905 0.489 0.67974 0.0
C436 C 1.02322 0.54532 0.65626 0.0
C437 C 0.05406 0.54373 0.67768 0.0
H438 H 0.973 0.52058 0.64036 0.0
H439 H 1.02029 0.567 0.63792 0.0
S440 S 0.07185 0.47349 0.74343 0.0
N441 N 0.03353 0.46041 0.72503 0.0
N442 N 0.08397 0.5113 0.72397 0.0
C443 C 0.0566 0.51467 0.70088 0.0
C444 C 0.02921 0.48717 0.70162 0.0
C445 C 0.52933 0.04869 0.16129 0.0
C446 C 0.49819 0.04577 0.18168 0.0
C447 C 0.55575 1.0212 0.16094 0.0
C448 C 0.5522 0.98991 0.18125 0.0
H449 H 0.53272 0.07195 0.14479 0.0
H450 H 0.57868 0.02413 0.144 0.0
S451 S 0.4777 0.97186 0.24243 0.0
N452 N 0.46638 1.01082 0.22448 0.0
N453 N 0.51646 0.9595 0.22471 0.0
C454 C 0.5217 0.98738 0.20269 0.0
C455 C 0.49461 1.01523 0.2027 0.0
C456 C 0.21216 0.49613 0.32187 0.0
C457 C 0.21463 0.53351 0.32863 0.0
C458 C 0.21265 0.48287 0.28861 0.0
C459 C 0.21546 0.50638 0.2605 0.0
H460 H 0.20861 0.47686 0.34236 0.0
H461 H 0.20942 0.45394 0.28498 0.0
S462 S 0.22692 0.60636 0.26431 0.0
N463 N 0.22328 0.5937 0.30428 0.0
N464 N 0.22393 0.56874 0.24191 0.0
C465 C 0.21982 0.54367 0.26691 0.0
C466 C 0.21949 0.55721 0.30086 0.0
C467 C 0.49697 0.20746 0.76584 0.0
C468 C 0.53447 0.20949 0.75863 0.0
C469 C 0.4842 0.20707 0.79932 0.0
C470 C 0.50835 0.20848 0.82722 0.0
H471 H 0.47721 0.20493 0.74551 0.0
H472 H 0.45514 0.20417 0.80325 0.0
S473 S 0.60896 0.21829 0.8224 0.0
N474 N 0.59551 0.21626 0.7825 0.0
N475 N 0.57147 0.21519 0.8452 0.0
C476 C 0.54578 0.2124 0.82041 0.0
C477 C 0.55883 0.213 0.78626 0.0
C478 C 0.8443 0.49928 0.26506 0.0
C479 C 0.84004 0.53665 0.25879 0.0
C480 C 0.84365 0.48518 0.29811 0.0
C481 C 0.83896 0.50782 0.32649 0.0
H482 H 0.84957 0.48077 0.2444 0.0
H483 H 0.84844 0.45639 0.3014 0.0
S484 S 0.82187 0.60704 0.32389 0.0
N485 N 0.82724 0.59562 0.28383 0.0
N486 N 0.82644 0.56909 0.3458 0.0
C487 C 0.83261 0.54494 0.32053 0.0
C488 C 0.83301 0.55932 0.28679 0.0
C489 C 0.50079 0.83637 0.82316 0.0
C490 C 0.53869 0.83514 0.82884 0.0
C491 C 0.48617 0.83693 0.79026 0.0
C492 C 0.50881 0.83651 0.76149 0.0
H493 H 0.48212 0.83819 0.84427 0.0
H494 H 0.45686 0.83925 0.78748 0.0
S495 S 0.60975 0.82872 0.76221 0.0
N496 N 0.5985 0.82995 0.80261 0.0
N497 N 0.57097 0.83134 0.74094 0.0
C498 C 0.54665 0.83328 0.76674 0.0
C499 C 0.56158 0.83249 0.8003 0.0
C500 C 0.84114 0.55574 0.79898 0.0
C501 C 0.84117 0.53312 0.82786 0.0
C502 C 0.84146 0.54132 0.76611 0.0
C503 C 0.8416 0.50363 0.76057 0.0
H504 H 0.8423 0.58495 0.80165 0.0
H505 H 0.84273 0.56001 0.74493 0.0
S506 S 0.83753 0.43247 0.82747 0.0
N507 N 0.83834 0.47102 0.84859 0.0
N508 N 0.83863 0.44389 0.78704 0.0
C509 C 0.8396 0.48067 0.7892 0.0
C510 C 0.83948 0.4954 0.82272 0.0
C511 C 0.53091 0.83676 0.32595 0.0
C512 C 0.49385 0.83815 0.31675 0.0
C513 C 0.55835 0.8357 0.30128 0.0
C514 C 0.54988 0.83567 0.2664 0.0
H515 H 0.53896 0.8384 0.35234 0.0
H516 H 0.5865 0.83625 0.3097 0.0
S517 S 0.45678 0.83435 0.22905 0.0
N518 N 0.44999 0.83584 0.27031 0.0
N519 N 0.50145 0.83382 0.22412 0.0
C520 C 0.51286 0.83462 0.25692 0.0
C521 C 0.48492 0.8359 0.28203 0.0
C522 C 0.21046 0.54204 0.81763 0.0
C523 C 0.2132 0.50471 0.82479 0.0
C524 C 0.21059 0.5551 0.78418 0.0
C525 C 0.21332 0.53143 0.75631 0.0
H526 H 0.207 0.56139 0.83794 0.0
H527 H 0.2072 0.58399 0.78022 0.0
S528 S 0.22521 0.4315 0.76116 0.0
N529 N 0.22188 0.44441 0.80101 0.0
N530 N 0.22187 0.46897 0.73838 0.0
C531 C 0.21787 0.4942 0.76313 0.0
C532 C 0.21789 0.48086 0.79723 0.0
C533 C 0.50268 0.20785 0.31094 0.0
C534 C 0.54034 0.209 0.3179 0.0
C535 C 0.48933 0.20703 0.27756 0.0
C536 C 0.51302 0.20711 0.24952 0.0
H537 H 0.4832 0.20637 0.33144 0.0
H538 H 0.46012 0.20487 0.27387 0.0
S539 S 0.61396 0.21413 0.25355 0.0
N540 N 0.60114 0.21343 0.29356 0.0
N541 N 0.57601 0.21158 0.23104 0.0
C542 C 0.55067 0.21011 0.25602 0.0
C543 C 0.56431 0.21115 0.29007 0.0
C544 C 0.22221 0.42774 1.01831 0.0
C545 C 0.20986 0.46179 1.00668 0.0
C546 C 0.22227 0.41898 0.05288 0.0
C547 C 0.21088 0.44411 0.07735 0.0
H548 H 0.2296 0.40669 1.00053 0.0
H549 H 0.22982 0.39168 0.06038 0.0
S550 S 0.1811 0.53866 0.06096 0.0
N551 N 0.18943 0.52207 1.02295 0.0
N552 N 0.19044 0.50566 0.08805 0.0
C553 C 0.20141 0.47922 0.06648 0.0
C554 C 0.20068 0.48802 1.03112 0.0
C555 C 0.56666 0.19559 0.51428 0.0
C556 C 0.60008 0.21063 0.50405 0.0
C557 C 0.55735 0.19345 0.54878 0.0
C558 C 0.58086 0.20679 0.57427 0.0
H559 H 0.54882 0.18301 0.49579 0.0
H560 H 0.53239 0.17958 0.55558 0.0
S561 S 0.66898 0.25406 0.55972 0.0
N562 N 0.65483 0.2426 0.52146 0.0
N563 N 0.63716 0.23967 0.58596 0.0
C564 C 0.61289 0.22478 0.56391 0.0
C565 C 0.62257 0.22634 0.5289 0.0
C566 C 0.87471 0.5813 0.06833 0.0
C567 C 0.83967 0.59043 0.08012 0.0
C568 C 0.88316 0.58225 1.03382 0.0
C569 C 0.85692 0.59181 1.00932 0.0
H570 H 0.89651 0.57488 0.08597 0.0
H571 H 0.91099 0.57659 1.02637 0.0
S572 S 0.76001 0.61403 1.02581 0.0
N573 N 0.77754 0.60644 0.06381 0.0
N574 N 0.79359 0.60768 0.99872 0.0
C575 C 0.82111 0.59851 1.02025 0.0
C576 C 0.81246 0.59794 0.05568 0.0
C577 C 0.44389 0.82313 0.5684 0.0
C578 C 0.45129 0.85819 0.58058 0.0
C579 C 0.44587 0.81532 0.53353 0.0
C580 C 0.45553 0.84228 0.50975 0.0
H581 H 0.43448 0.80222 0.5856 0.0
H582 H 0.43807 0.7885 0.52507 0.0
S583 S 0.48393 0.93658 0.53007 0.0
N584 N 0.47292 0.91869 0.567 0.0
N585 N 0.47738 0.90415 0.50197 0.0
C586 C 0.46569 0.87665 0.52221 0.0
C587 C 0.46334 0.88456 0.55748 0.0
C588 C 0.21791 0.59003 0.52509 0.0
C589 C 0.20562 0.55985 0.50643 0.0
C590 C 0.21777 0.58985 0.56069 0.0
C591 C 0.20534 0.55948 0.57907 0.0
H592 H 0.22574 0.61479 0.51221 0.0
H593 H 0.22548 0.61449 0.57377 0.0
S594 S 0.1772 0.47111 0.54239 0.0
N595 N 0.18572 0.49697 0.50916 0.0
N596 N 0.18547 0.49663 0.57583 0.0
C597 C 0.19594 0.52812 0.56073 0.0
C598 C 0.19607 0.5283 0.52452 0.0
C599 C 0.46458 0.19424 1.02086 0.0
C600 C 0.45557 0.22574 1.00231 0.0
C601 C 0.46525 0.19406 0.05639 0.0
C602 C 0.45696 0.22536 0.07524 0.0
H603 H 0.47022 0.16901 1.00792 0.0
H604 H 0.47135 0.1687 0.06914 0.0
S605 S 0.43469 0.31597 1.03916 0.0
N606 N 0.44053 0.28992 1.00569 0.0
N607 N 0.44182 0.28959 0.0724 0.0
C608 C 0.44964 0.25758 0.05708 0.0
C609 C 0.44894 0.25777 1.02072 0.0
C610 C 0.83302 0.4258 0.51734 0.0
C611 C 0.84639 0.45966 0.50636 0.0
C612 C 0.83223 0.41657 0.5518 0.0
C613 C 0.84396 0.44103 0.57685 0.0
H614 H 0.8252 0.40525 0.49914 0.0
H615 H 0.82373 0.38942 0.5588 0.0
S616 S 0.87675 0.53487 0.56216 0.0
N617 N 0.8684 0.51905 0.52379 0.0
N618 N 0.86612 0.5018 0.58865 0.0
C619 C 0.85466 0.47596 0.56656 0.0
C620 C 0.85609 0.48523 0.53131 0.0
C621 C 0.59782 0.83051 0.05951 0.0
C622 C 0.56721 0.8419 0.07815 0.0
C623 C 0.59808 0.83187 1.02396 0.0
C624 C 0.56779 0.84487 1.00551 0.0
H625 H 0.62246 0.82184 0.07244 0.0
H626 H 0.62294 0.82441 1.01101 0.0
S627 S 0.47875 0.87254 1.04166 0.0
N628 N 0.50418 0.86253 0.07501 0.0
N629 N 0.50482 0.86529 1.0084 0.0
C630 C 0.53615 0.85399 1.02367 0.0
C631 C 0.53581 0.85245 0.05988 0.0
C632 C 0.29175 0.31082 0.18177 0.0
C633 C 0.2543 0.30247 0.18063 0.0
C634 C 0.31825 0.28334 0.18025 0.0
C635 C 0.30813 0.24665 0.17762 0.0
H636 H 0.30057 0.33857 0.18532 0.0
H637 H 0.34673 0.29066 0.18273 0.0
S638 S 0.21416 0.21116 0.16788 0.0
N639 N 0.20879 0.25536 0.1724 0.0
N640 N 0.25855 0.20385 0.16996 0.0
C641 C 0.27094 0.23821 0.17454 0.0
C642 C 0.24404 0.26608 0.17594 0.0
C643 C 0.80064 0.26684 0.68316 0.0
C644 C 0.79244 0.30385 0.68707 0.0
C645 C 0.77304 0.24057 0.68274 0.0
C646 C 0.73616 0.25026 0.68631 0.0
H647 H 0.8287 0.25816 0.68064 0.0
H648 H 0.78062 0.21237 0.67977 0.0
S649 S 0.70046 0.34342 0.69913 0.0
N650 N 0.74496 0.34884 0.69548 0.0
N651 N 0.69304 0.29949 0.69496 0.0
C652 C 0.72754 0.28725 0.68997 0.0
C653 C 0.75569 0.31404 0.69029 0.0
C654 C 0.76107 0.72733 0.18624 0.0
C655 C 0.79772 0.73857 0.18498 0.0
C656 C 0.73256 0.75281 0.18712 0.0
C657 C 0.73984 0.79029 0.18678 0.0
H658 H 0.75451 0.69877 0.18814 0.0
H659 H 0.70481 0.7432 0.18957 0.0
S660 S 0.83072 0.83323 0.17759 0.0
N661 N 0.8394 0.78931 0.1793 0.0
N662 N 0.786 0.83712 0.18073 0.0
C663 C 0.77622 0.80169 0.18345 0.0
C664 C 0.80512 0.77584 0.1826 0.0
C665 C 0.24239 0.77133 0.68127 0.0
C666 C 0.25275 0.73457 0.68191 0.0
C667 C 0.26842 0.79908 0.68264 0.0
C668 C 0.30586 0.79119 0.68438 0.0
H669 H 0.21381 0.77869 0.68039 0.0
H670 H 0.25925 0.827 0.683 0.0
S671 S 0.34761 0.69965 0.68713 0.0
N672 N 0.30333 0.69188 0.68462 0.0
N673 N 0.35221 0.74419 0.68662 0.0
C674 C 0.31679 0.75467 0.68398 0.0
C675 C 0.29025 0.72631 0.68285 0.0
C676 C 0.2757 0.79793 0.40287 0.0
C677 C 0.31289 0.78929 0.4001 0.0
C678 C 0.24906 0.77076 0.40415 0.0
C679 C 0.25851 0.73383 0.40253 0.0
H680 H 0.26711 0.82602 0.40347 0.0
H681 H 0.22071 0.77874 0.40581 0.0
S682 S 0.35228 0.69689 0.39478 0.0
N683 N 0.35801 0.7413 0.396 0.0
N684 N 0.30792 0.69007 0.39802 0.0
C685 C 0.29576 0.72474 0.40066 0.0
C686 C 0.32295 0.75252 0.39952 0.0
C687 C 0.2831 0.25272 0.86636 0.0
C688 C 0.30529 0.24625 0.89494 0.0
C689 C 0.2565 0.27992 0.86637 0.0
C690 C 0.25104 0.30194 0.89488 0.0
H691 H 0.2866 0.23694 0.84354 0.0
H692 H 0.2404 0.2841 0.84363 0.0
S693 S 0.30054 0.29516 0.97679 0.0
N694 N 0.31914 0.26341 0.95301 0.0
N695 N 0.26917 0.31489 0.95287 0.0
C696 C 0.27297 0.2959 0.92367 0.0
C697 C 0.30008 0.268 0.92374 0.0
C698 C 0.73514 0.28643 0.39256 0.0
C699 C 0.74369 0.24941 0.39627 0.0
C700 C 0.76262 0.31294 0.39244 0.0
C701 C 0.79958 0.30331 0.39592 0.0
H702 H 0.70716 0.29485 0.38853 0.0
H703 H 0.75503 0.34101 0.38841 0.0
S704 S 0.83584 0.21092 0.41153 0.0
N705 N 0.79141 0.20506 0.40728 0.0
N706 N 0.84296 0.25484 0.40663 0.0
C707 C 0.80833 0.26665 0.40111 0.0
C708 C 0.78042 0.23971 0.40141 0.0
C709 C 0.80608 0.77403 0.90302 0.0
C710 C 0.79695 0.73706 0.90167 0.0
C711 C 0.77904 0.80084 0.90384 0.0
C712 C 0.74177 0.79174 0.90306 0.0
H713 H 0.83443 0.78224 0.90286 0.0
H714 H 0.78735 0.829 0.90446 0.0
S715 S 0.7036 0.6986 0.89865 0.0
N716 N 0.74821 0.69254 0.89955 0.0
N717 N 0.69724 0.74288 0.90057 0.0
C718 C 0.73225 0.75475 0.90245 0.0
C719 C 0.75988 0.72741 0.90186 0.0
loop_
_geom_bond_atom_site_label_1
_geom_bond_atom_site_label_2
_geom_bond_distance
_geom_bond_site_symmetry_2
_ccdc_geom_bond_type
Cu0 N1 1.999 . S
Cu0 O6 1.974 . S
Cu0 N11 1.985 . S
Cu0 O20 1.959 . S
N1 Cu0 1.999 . S
N1 C3 1.263 . S
N1 C5 1.389 . S
N2 C3 1.358 . S
N2 C4 1.400 . S
C3 N1 1.263 . S
C3 N2 1.358 . S
C3 H9 0.930 . S
C4 N2 1.400 . S
C4 C5 1.351 . S
C4 H21 0.930 . S
C5 N1 1.389 . S
C5 C4 1.351 . S
C5 H10 0.930 . S
O6 Cu0 1.974 . S
O6 C16 1.282 . S
C7 O8 1.261 . S
C7 O20 1.251 . S
O8 C7 1.261 . S
H9 C3 0.930 . S
H10 C5 0.930 . S
N11 Cu0 1.985 . S
N11 C13 1.335 . S
N11 C14 1.390 . S
N12 C13 1.345 . S
N12 C15 1.336 . S
C13 N11 1.335 . S
C13 N12 1.345 . S
C13 H18 0.930 . S
C14 N11 1.390 . S
C14 C15 1.346 . S
C14 H19 0.930 . S
C15 N12 1.336 . S
C15 C14 1.346 . S
C15 H22 0.929 . S
C16 O6 1.282 . S
C16 O17 1.216 . S
O17 C16 1.216 . S
H18 C13 0.930 . S
H19 C14 0.930 . S
O20 Cu0 1.959 . S
O20 C7 1.251 . S
H21 C4 0.930 . S
H22 C15 0.929 . S
Cu23 N24 1.999 . S
Cu23 O29 1.974 . S
Cu23 N34 1.985 . S
Cu23 O43 1.959 . S
N24 Cu23 1.999 . S
N24 C26 1.263 . S
N24 C28 1.389 . S
N25 C26 1.358 . S
N25 C27 1.400 . S
C26 N24 1.263 . S
C26 N25 1.358 . S
C26 H32 0.930 . S
C27 N25 1.400 . S
C27 C28 1.351 . S
C27 H44 0.930 . S
C28 N24 1.389 . S
C28 C27 1.351 . S
C28 H33 0.930 . S
O29 Cu23 1.974 . S
O29 C39 1.282 . S
C30 O31 1.261 . S
C30 O43 1.251 . S
O31 C30 1.261 . S
H32 C26 0.930 . S
H33 C28 0.930 . S
N34 Cu23 1.985 . S
N34 C36 1.335 . S
N34 C37 1.390 . S
N35 C36 1.345 . S
N35 C38 1.336 . S
C36 N34 1.335 . S
C36 N35 1.345 . S
C36 H41 0.930 . S
C37 N34 1.390 . S
C37 C38 1.346 . S
C37 H42 0.930 . S
C38 N35 1.336 . S
C38 C37 1.346 . S
C38 H45 0.929 . S
C39 O29 1.282 . S
C39 O40 1.216 . S
O40 C39 1.216 . S
H41 C36 0.930 . S
H42 C37 0.930 . S
O43 Cu23 1.959 . S
O43 C30 1.251 . S
H44 C27 0.930 . S
H45 C38 0.929 . S
Cu46 N47 1.999 . S
Cu46 O52 1.974 . S
Cu46 N57 1.985 . S
Cu46 O66 1.959 . S
N47 Cu46 1.999 . S
N47 C49 1.263 . S
N47 C51 1.389 . S
N48 C49 1.358 . S
N48 C50 1.400 . S
C49 N47 1.263 . S
C49 N48 1.358 . S
C49 H55 0.930 . S
C50 N48 1.400 . S
C50 C51 1.351 . S
C50 H67 0.930 . S
C51 N47 1.389 . S
C51 C50 1.351 . S
C51 H56 0.930 . S
O52 Cu46 1.974 . S
O52 C62 1.282 . S
C53 O54 1.261 . S
C53 O66 1.251 . S
O54 C53 1.261 . S
H55 C49 0.930 . S
H56 C51 0.930 . S
N57 Cu46 1.985 . S
N57 C59 1.335 . S
N57 C60 1.390 . S
N58 C59 1.345 . S
N58 C61 1.336 . S
C59 N57 1.335 . S
C59 N58 1.345 . S
C59 H64 0.930 . S
C60 N57 1.390 . S
C60 C61 1.346 . S
C60 H65 0.930 . S
C61 N58 1.336 . S
C61 C60 1.346 . S
C61 H68 0.929 . S
C62 O52 1.282 . S
C62 O63 1.216 . S
O63 C62 1.216 . S
H64 C59 0.930 . S
H65 C60 0.930 . S
O66 Cu46 1.959 . S
O66 C53 1.251 . S
H67 C50 0.930 . S
H68 C61 0.929 . S
Cu69 N70 1.999 . S
Cu69 O75 1.974 . S
Cu69 N80 1.985 . S
Cu69 O89 1.959 . S
N70 Cu69 1.999 . S
N70 C72 1.263 . S
N70 C74 1.389 . S
N71 C72 1.358 . S
N71 C73 1.400 . S
C72 N70 1.263 . S
C72 N71 1.358 . S
C72 H78 0.930 . S
C73 N71 1.400 . S
C73 C74 1.351 . S
C73 H90 0.930 . S
C74 N70 1.389 . S
C74 C73 1.351 . S
C74 H79 0.930 . S
O75 Cu69 1.974 . S
O75 C85 1.282 . S
C76 O77 1.261 . S
C76 O89 1.251 . S
O77 C76 1.261 . S
H78 C72 0.930 . S
H79 C74 0.930 . S
N80 Cu69 1.985 . S
N80 C82 1.335 . S
N80 C83 1.390 . S
N81 C82 1.345 . S
N81 C84 1.336 . S
C82 N80 1.335 . S
C82 N81 1.345 . S
C82 H87 0.930 . S
C83 N80 1.390 . S
C83 C84 1.346 . S
C83 H88 0.930 . S
C84 N81 1.336 . S
C84 C83 1.346 . S
C84 H91 0.929 . S
C85 O75 1.282 . S
C85 O86 1.216 . S
O86 C85 1.216 . S
H87 C82 0.930 . S
H88 C83 0.930 . S
O89 Cu69 1.959 . S
O89 C76 1.251 . S
H90 C73 0.930 . S
H91 C84 0.929 . S
Cu92 N93 1.999 . S
Cu92 O98 1.974 . S
Cu92 N103 1.985 . S
Cu92 O112 1.959 . S
N93 Cu92 1.999 . S
N93 C95 1.263 . S
N93 C97 1.389 . S
N94 C95 1.358 . S
N94 C96 1.400 . S
C95 N93 1.263 . S
C95 N94 1.358 . S
C95 H101 0.930 . S
C96 N94 1.400 . S
C96 C97 1.351 . S
C96 H113 0.930 . S
C97 N93 1.389 . S
C97 C96 1.351 . S
C97 H102 0.930 . S
O98 Cu92 1.974 . S
O98 C108 1.282 . S
C99 O100 1.261 . S
C99 O112 1.251 . S
O100 C99 1.261 . S
H101 C95 0.930 . S
H102 C97 0.930 . S
N103 Cu92 1.985 . S
N103 C105 1.335 . S
N103 C106 1.390 . S
N104 C105 1.345 . S
N104 C107 1.336 . S
C105 N103 1.335 . S
C105 N104 1.345 . S
C105 H110 0.930 . S
C106 N103 1.390 . S
C106 C107 1.346 . S
C106 H111 0.930 . S
C107 N104 1.336 . S
C107 C106 1.346 . S
C107 H114 0.929 . S
C108 O98 1.282 . S
C108 O109 1.216 . S
O109 C108 1.216 . S
H110 C105 0.930 . S
H111 C106 0.930 . S
O112 Cu92 1.959 . S
O112 C99 1.251 . S
H113 C96 0.930 . S
H114 C107 0.929 . S
Cu115 N116 1.999 . S
Cu115 O121 1.974 . S
Cu115 N126 1.985 . S
Cu115 O135 1.959 . S
N116 Cu115 1.999 . S
N116 C118 1.263 . S
N116 C120 1.389 . S
N117 C118 1.358 . S
N117 C119 1.400 . S
C118 N116 1.263 . S
C118 N117 1.358 . S
C118 H124 0.930 . S
C119 N117 1.400 . S
C119 C120 1.351 . S
C119 H136 0.930 . S
C120 N116 1.389 . S
C120 C119 1.351 . S
C120 H125 0.930 . S
O121 Cu115 1.974 . S
O121 C131 1.282 . S
C122 O123 1.261 . S
C122 O135 1.251 . S
O123 C122 1.261 . S
H124 C118 0.930 . S
H125 C120 0.930 . S
N126 Cu115 1.985 . S
N126 C128 1.335 . S
N126 C129 1.390 . S
N127 C128 1.345 . S
N127 C130 1.336 . S
C128 N126 1.335 . S
C128 N127 1.345 . S
C128 H133 0.930 . S
C129 N126 1.390 . S
C129 C130 1.346 . S
C129 H134 0.930 . S
C130 N127 1.336 . S
C130 C129 1.346 . S
C130 H137 0.929 . S
C131 O121 1.282 . S
C131 O132 1.216 . S
O132 C131 1.216 . S
H133 C128 0.930 . S
H134 C129 0.930 . S
O135 Cu115 1.959 . S
O135 C122 1.251 . S
H136 C119 0.930 . S
H137 C130 0.929 . S
Cu138 N139 1.999 . S
Cu138 O144 1.974 . S
Cu138 N149 1.985 . S
Cu138 O158 1.959 . S
N139 Cu138 1.999 . S
N139 C141 1.263 . S
N139 C143 1.389 . S
N140 C141 1.358 . S
N140 C142 1.400 . S
C141 N139 1.263 . S
C141 N140 1.358 . S
C141 H147 0.930 . S
C142 N140 1.400 . S
C142 C143 1.351 . S
C142 H159 0.930 . S
C143 N139 1.389 . S
C143 C142 1.351 . S
C143 H148 0.930 . S
O144 Cu138 1.974 . S
O144 C154 1.282 . S
C145 O146 1.261 . S
C145 O158 1.251 . S
O146 C145 1.261 . S
H147 C141 0.930 . S
H148 C143 0.930 . S
N149 Cu138 1.985 . S
N149 C151 1.335 . S
N149 C152 1.390 . S
N150 C151 1.345 . S
N150 C153 1.336 . S
C151 N149 1.335 . S
C151 N150 1.345 . S
C151 H156 0.930 . S
C152 N149 1.390 . S
C152 C153 1.346 . S
C152 H157 0.930 . S
C153 N150 1.336 . S
C153 C152 1.346 . S
C153 H160 0.929 . S
C154 O144 1.282 . S
C154 O155 1.216 . S
O155 C154 1.216 . S
H156 C151 0.930 . S
H157 C152 0.930 . S
O158 Cu138 1.959 . S
O158 C145 1.251 . S
H159 C142 0.930 . S
H160 C153 0.929 . S
Cu161 N162 1.999 . S
Cu161 O167 1.974 . S
Cu161 N172 1.985 . S
Cu161 O181 1.959 . S
N162 Cu161 1.999 . S
N162 C164 1.263 . S
N162 C166 1.389 . S
N163 C164 1.358 . S
N163 C165 1.400 . S
C164 N162 1.263 . S
C164 N163 1.358 . S
C164 H170 0.930 . S
C165 N163 1.400 . S
C165 C166 1.351 . S
C165 H182 0.930 . S
C166 N162 1.389 . S
C166 C165 1.351 . S
C166 H171 0.930 . S
O167 Cu161 1.974 . S
O167 C177 1.282 . S
C168 O169 1.261 . S
C168 O181 1.251 . S
O169 C168 1.261 . S
H170 C164 0.930 . S
H171 C166 0.930 . S
N172 Cu161 1.985 . S
N172 C174 1.335 . S
N172 C175 1.390 . S
N173 C174 1.345 . S
N173 C176 1.336 . S
C174 N172 1.335 . S
C174 N173 1.345 . S
C174 H179 0.930 . S
C175 N172 1.390 . S
C175 C176 1.346 . S
C175 H180 0.930 . S
C176 N173 1.336 . S
C176 C175 1.346 . S
C176 H183 0.929 . S
C177 O167 1.282 . S
C177 O178 1.216 . S
O178 C177 1.216 . S
H179 C174 0.930 . S
H180 C175 0.930 . S
O181 Cu161 1.959 . S
O181 C168 1.251 . S
H182 C165 0.930 . S
H183 C176 0.929 . S
Cu184 N185 1.999 . S
Cu184 O190 1.974 . S
Cu184 N195 1.985 . S
Cu184 O204 1.959 . S
N185 Cu184 1.999 . S
N185 C187 1.263 . S
N185 C189 1.389 . S
N186 C187 1.358 . S
N186 C188 1.400 . S
C187 N185 1.263 . S
C187 N186 1.358 . S
C187 H193 0.930 . S
C188 N186 1.400 . S
C188 C189 1.351 . S
C188 H205 0.930 . S
C189 N185 1.389 . S
C189 C188 1.351 . S
C189 H194 0.930 . S
O190 Cu184 1.974 . S
O190 C200 1.282 . S
C191 O192 1.261 . S
C191 O204 1.251 . S
O192 C191 1.261 . S
H193 C187 0.930 . S
H194 C189 0.930 . S
N195 Cu184 1.985 . S
N195 C197 1.335 . S
N195 C198 1.390 . S
N196 C197 1.345 . S
N196 C199 1.336 . S
C197 N195 1.335 . S
C197 N196 1.345 . S
C197 H202 0.930 . S
C198 N195 1.390 . S
C198 C199 1.346 . S
C198 H203 0.930 . S
C199 N196 1.336 . S
C199 C198 1.346 . S
C199 H206 0.929 . S
C200 O190 1.282 . S
C200 O201 1.216 . S
O201 C200 1.216 . S
H202 C197 0.930 . S
H203 C198 0.930 . S
O204 Cu184 1.959 . S
O204 C191 1.251 . S
H205 C188 0.930 . S
H206 C199 0.929 . S
Cu207 N208 1.999 . S
Cu207 O213 1.974 . S
Cu207 N218 1.985 . S
Cu207 O227 1.959 . S
N208 Cu207 1.999 . S
N208 C210 1.263 . S
N208 C212 1.389 . S
N209 C210 1.358 . S
N209 C211 1.400 . S
C210 N208 1.263 . S
C210 N209 1.358 . S
C210 H216 0.930 . S
C211 N209 1.400 . S
C211 C212 1.351 . S
C211 H228 0.930 . S
C212 N208 1.389 . S
C212 C211 1.351 . S
C212 H217 0.930 . S
O213 Cu207 1.974 . S
O213 C223 1.282 . S
C214 O215 1.261 . S
C214 O227 1.251 . S
O215 C214 1.261 . S
H216 C210 0.930 . S
H217 C212 0.930 . S
N218 Cu207 1.985 . S
N218 C220 1.335 . S
N218 C221 1.390 . S
N219 C220 1.345 . S
N219 C222 1.336 . S
C220 N218 1.335 . S
C220 N219 1.345 . S
C220 H225 0.930 . S
C221 N218 1.390 . S
C221 C222 1.346 . S
C221 H226 0.930 . S
C222 N219 1.336 . S
C222 C221 1.346 . S
C222 H229 0.929 . S
C223 O213 1.282 . S
C223 O224 1.216 . S
O224 C223 1.216 . S
H225 C220 0.930 . S
H226 C221 0.930 . S
O227 Cu207 1.959 . S
O227 C214 1.251 . S
H228 C211 0.930 . S
H229 C222 0.929 . S
Cu230 N231 1.999 . S
Cu230 O236 1.974 . S
Cu230 N241 1.985 . S
Cu230 O250 1.959 . S
N231 Cu230 1.999 . S
N231 C233 1.263 . S
N231 C235 1.389 . S
N232 C233 1.358 . S
N232 C234 1.400 . S
C233 N231 1.263 . S
C233 N232 1.358 . S
C233 H239 0.930 . S
C234 N232 1.400 . S
C234 C235 1.351 . S
C234 H251 0.930 . S
C235 N231 1.389 . S
C235 C234 1.351 . S
C235 H240 0.930 . S
O236 Cu230 1.974 . S
O236 C246 1.282 . S
C237 O238 1.261 . S
C237 O250 1.251 . S
O238 C237 1.261 . S
H239 C233 0.930 . S
H240 C235 0.930 . S
N241 Cu230 1.985 . S
N241 C243 1.335 . S
N241 C244 1.390 . S
N242 C243 1.345 . S
N242 C245 1.336 . S
C243 N241 1.335 . S
C243 N242 1.345 . S
C243 H248 0.930 . S
C244 N241 1.390 . S
C244 C245 1.346 . S
C244 H249 0.930 . S
C245 N242 1.336 . S
C245 C244 1.346 . S
C245 H252 0.929 . S
C246 O236 1.282 . S
C246 O247 1.216 . S
O247 C246 1.216 . S
H248 C243 0.930 . S
H249 C244 0.930 . S
O250 Cu230 1.959 . S
O250 C237 1.251 . S
H251 C234 0.930 . S
H252 C245 0.929 . S
Cu253 N254 1.999 . S
Cu253 O259 1.974 . S
Cu253 N264 1.985 . S
Cu253 O273 1.959 . S
N254 Cu253 1.999 . S
N254 C256 1.263 . S
N254 C258 1.389 . S
N255 C256 1.358 . S
N255 C257 1.400 . S
C256 N254 1.263 . S
C256 N255 1.358 . S
C256 H262 0.930 . S
C257 N255 1.400 . S
C257 C258 1.351 . S
C257 H274 0.930 . S
C258 N254 1.389 . S
C258 C257 1.351 . S
C258 H263 0.930 . S
O259 Cu253 1.974 . S
O259 C269 1.282 . S
C260 O261 1.261 . S
C260 O273 1.251 . S
O261 C260 1.261 . S
H262 C256 0.930 . S
H263 C258 0.930 . S
N264 Cu253 1.985 . S
N264 C266 1.335 . S
N264 C267 1.390 . S
N265 C266 1.345 . S
N265 C268 1.336 . S
C266 N264 1.335 . S
C266 N265 1.345 . S
C266 H271 0.930 . S
C267 N264 1.390 . S
C267 C268 1.346 . S
C267 H272 0.930 . S
C268 N265 1.336 . S
C268 C267 1.346 . S
C268 H275 0.929 . S
C269 O259 1.282 . S
C269 O270 1.216 . S
O270 C269 1.216 . S
H271 C266 0.930 . S
H272 C267 0.930 . S
O273 Cu253 1.959 . S
O273 C260 1.251 . S
H274 C257 0.930 . S
H275 C268 0.929 . S
Cu276 N277 1.999 . S
Cu276 O282 1.974 . S
Cu276 N287 1.985 . S
Cu276 O296 1.959 . S
N277 Cu276 1.999 . S
N277 C279 1.263 . S
N277 C281 1.389 . S
N278 C279 1.358 . S
N278 C280 1.400 . S
C279 N277 1.263 . S
C279 N278 1.358 . S
C279 H285 0.930 . S
C280 N278 1.400 . S
C280 C281 1.351 . S
C280 H297 0.930 . S
C281 N277 1.389 . S
C281 C280 1.351 . S
C281 H286 0.930 . S
O282 Cu276 1.974 . S
O282 C292 1.282 . S
C283 O284 1.261 . S
C283 O296 1.251 . S
O284 C283 1.261 . S
H285 C279 0.930 . S
H286 C281 0.930 . S
N287 Cu276 1.985 . S
N287 C289 1.335 . S
N287 C290 1.390 . S
N288 C289 1.345 . S
N288 C291 1.336 . S
C289 N287 1.335 . S
C289 N288 1.345 . S
C289 H294 0.930 . S
C290 N287 1.390 . S
C290 C291 1.346 . S
C290 H295 0.930 . S
C291 N288 1.336 . S
C291 C290 1.346 . S
C291 H298 0.929 . S
C292 O282 1.282 . S
C292 O293 1.216 . S
O293 C292 1.216 . S
H294 C289 0.930 . S
H295 C290 0.930 . S
O296 Cu276 1.959 . S
O296 C283 1.251 . S
H297 C280 0.930 . S
H298 C291 0.929 . S
Cu299 N300 1.999 . S
Cu299 O305 1.974 . S
Cu299 N310 1.985 . S
Cu299 O319 1.959 . S
N300 Cu299 1.999 . S
N300 C302 1.263 . S
N300 C304 1.389 . S
N301 C302 1.358 . S
N301 C303 1.400 . S
C302 N300 1.263 . S
C302 N301 1.358 . S
C302 H308 0.930 . S
C303 N301 1.400 . S
C303 C304 1.351 . S
C303 H320 0.930 . S
C304 N300 1.389 . S
C304 C303 1.351 . S
C304 H309 0.930 . S
O305 Cu299 1.974 . S
O305 C315 1.282 . S
C306 O307 1.261 . S
C306 O319 1.251 . S
O307 C306 1.261 . S
H308 C302 0.930 . S
H309 C304 0.930 . S
N310 Cu299 1.985 . S
N310 C312 1.335 . S
N310 C313 1.390 . S
N311 C312 1.345 . S
N311 C314 1.336 . S
C312 N310 1.335 . S
C312 N311 1.345 . S
C312 H317 0.930 . S
C313 N310 1.390 . S
C313 C314 1.346 . S
C313 H318 0.930 . S
C314 N311 1.336 . S
C314 C313 1.346 . S
C314 H321 0.929 . S
C315 O305 1.282 . S
C315 O316 1.216 . S
O316 C315 1.216 . S
H317 C312 0.930 . S
H318 C313 0.930 . S
O319 Cu299 1.959 . S
O319 C306 1.251 . S
H320 C303 0.930 . S
H321 C314 0.929 . S
Cu322 N323 1.999 . S
Cu322 O328 1.974 . S
Cu322 N333 1.985 . S
Cu322 O342 1.959 . S
N323 Cu322 1.999 . S
N323 C325 1.263 . S
N323 C327 1.389 . S
N324 C325 1.358 . S
N324 C326 1.400 . S
C325 N323 1.263 . S
C325 N324 1.358 . S
C325 H331 0.930 . S
C326 N324 1.400 . S
C326 C327 1.351 . S
C326 H343 0.930 . S
C327 N323 1.389 . S
C327 C326 1.351 . S
C327 H332 0.930 . S
O328 Cu322 1.974 . S
O328 C338 1.282 . S
C329 O330 1.261 . S
C329 O342 1.251 . S
O330 C329 1.261 . S
H331 C325 0.930 . S
H332 C327 0.930 . S
N333 Cu322 1.985 . S
N333 C335 1.335 . S
N333 C336 1.390 . S
N334 C335 1.345 . S
N334 C337 1.336 . S
C335 N333 1.335 . S
C335 N334 1.345 . S
C335 H340 0.930 . S
C336 N333 1.390 . S
C336 C337 1.346 . S
C336 H341 0.930 . S
C337 N334 1.336 . S
C337 C336 1.346 . S
C337 H344 0.929 . S
C338 O328 1.282 . S
C338 O339 1.216 . S
O339 C338 1.216 . S
H340 C335 0.930 . S
H341 C336 0.930 . S
O342 Cu322 1.959 . S
O342 C329 1.251 . S
H343 C326 0.930 . S
H344 C337 0.929 . S
Cu345 N346 1.999 . S
Cu345 O351 1.974 . S
Cu345 N356 1.985 . S
Cu345 O365 1.959 . S
N346 Cu345 1.999 . S
N346 C348 1.263 . S
N346 C350 1.389 . S
N347 C348 1.358 . S
N347 C349 1.400 . S
C348 N346 1.263 . S
C348 N347 1.358 . S
C348 H354 0.930 . S
C349 N347 1.400 . S
C349 C350 1.351 . S
C349 H366 0.930 . S
C350 N346 1.389 . S
C350 C349 1.351 . S
C350 H355 0.930 . S
O351 Cu345 1.974 . S
O351 C361 1.282 . S
C352 O353 1.261 . S
C352 O365 1.251 . S
O353 C352 1.261 . S
H354 C348 0.930 . S
H355 C350 0.930 . S
N356 Cu345 1.985 . S
N356 C358 1.335 . S
N356 C359 1.390 . S
N357 C358 1.345 . S
N357 C360 1.336 . S
C358 N356 1.335 . S
C358 N357 1.345 . S
C358 H363 0.930 . S
C359 N356 1.390 . S
C359 C360 1.346 . S
C359 H364 0.930 . S
C360 N357 1.336 . S
C360 C359 1.346 . S
C360 H367 0.929 . S
C361 O351 1.282 . S
C361 O362 1.216 . S
O362 C361 1.216 . S
H363 C358 0.930 . S
H364 C359 0.930 . S
O365 Cu345 1.959 . S
O365 C352 1.251 . S
H366 C349 0.930 . S
H367 C360 0.929 . S
C368 C369 1.369 . S
C368 C370 1.419 1_455 S
C368 H372 0.930 . S
C369 C368 1.369 . S
C369 C378 1.429 . S
C370 C368 1.419 1_655 S
C370 C371 1.363 . S
C370 H373 0.929 . S
C371 C370 1.363 . S
C371 C377 1.428 . S
H372 C368 0.930 . S
H373 C370 0.929 . S
S374 N375 1.613 1_655 S
S374 N376 1.610 . S
N375 S374 1.613 1_455 S
N375 C378 1.350 . S
N376 S374 1.610 . S
N376 C377 1.351 . S
C377 C371 1.428 . S
C377 N376 1.351 . S
C377 C378 1.434 1_655 S
C378 C369 1.429 . S
C378 N375 1.350 . S
C378 C377 1.434 1_455 S
C379 C380 1.369 . S
C379 C381 1.419 1_565 S
C379 H383 0.930 . S
C380 C379 1.369 . S
C380 C389 1.429 . S
C381 C379 1.419 1_545 S
C381 C382 1.363 . S
C381 H384 0.929 . S
C382 C381 1.363 . S
C382 C388 1.428 . S
H383 C379 0.930 . S
H384 C381 0.929 . S
S385 N386 1.613 1_545 S
S385 N387 1.610 . S
N386 S385 1.613 1_565 S
N386 C389 1.350 . S
N387 S385 1.610 . S
N387 C388 1.351 . S
C388 C382 1.428 . S
C388 N387 1.351 . S
C388 C389 1.434 1_545 S
C389 C380 1.429 . S
C389 N386 1.350 . S
C389 C388 1.434 1_565 S
C390 C391 1.369 . S
C390 C392 1.419 1_455 S
C390 H394 0.930 . S
C391 C390 1.369 . S
C391 C400 1.429 . S
C392 C390 1.419 1_655 S
C392 C393 1.363 . S
C392 H395 0.929 . S
C393 C392 1.363 . S
C393 C399 1.428 . S
H394 C390 0.930 . S
H395 C392 0.929 . S
S396 N397 1.613 . S
S396 N398 1.610 1_455 S
N397 S396 1.613 . S
N397 C400 1.350 . S
N398 S396 1.610 1_655 S
N398 C399 1.351 . S
C399 C393 1.428 . S
C399 N398 1.351 . S
C399 C400 1.434 1_655 S
C400 C391 1.429 . S
C400 N397 1.350 . S
C400 C399 1.434 1_455 S
C401 C402 1.369 . S
C401 C403 1.419 1_565 S
C401 H405 0.930 . S
C402 C401 1.369 . S
C402 C411 1.429 . S
C403 C401 1.419 1_545 S
C403 C404 1.363 . S
C403 H406 0.929 . S
C404 C403 1.363 . S
C404 C410 1.428 . S
H405 C401 0.930 . S
H406 C403 0.929 . S
S407 N408 1.613 . S
S407 N409 1.610 1_565 S
N408 S407 1.613 . S
N408 C411 1.350 . S
N409 S407 1.610 1_545 S
N409 C410 1.351 . S
C410 C404 1.428 . S
C410 N409 1.351 . S
C410 C411 1.434 1_545 S
C411 C402 1.429 . S
C411 N408 1.350 . S
C411 C410 1.434 1_565 S
C412 C413 1.369 . S
C412 C414 1.419 1_655 S
C412 H416 0.930 . S
C413 C412 1.369 . S
C413 C422 1.429 . S
C414 C412 1.419 1_455 S
C414 C415 1.363 . S
C414 H417 0.929 . S
C415 C414 1.363 . S
C415 C421 1.428 . S
H416 C412 0.930 . S
H417 C414 0.929 . S
S418 N419 1.613 . S
S418 N420 1.610 1_655 S
N419 S418 1.613 . S
N419 C422 1.350 . S
N420 S418 1.610 1_455 S
N420 C421 1.351 . S
C421 C415 1.428 . S
C421 N420 1.351 . S
C421 C422 1.434 1_455 S
C422 C413 1.429 . S
C422 N419 1.350 . S
C422 C421 1.434 1_655 S
C423 C424 1.369 . S
C423 C425 1.419 1_545 S
C423 H427 0.930 . S
C424 C423 1.369 . S
C424 C433 1.429 . S
C425 C423 1.419 1_565 S
C425 C426 1.363 . S
C425 H428 0.929 . S
C426 C425 1.363 . S
C426 C432 1.428 . S
H427 C423 0.930 . S
H428 C425 0.929 . S
S429 N430 1.613 . S
S429 N431 1.610 1_545 S
N430 S429 1.613 . S
N430 C433 1.350 . S
N431 S429 1.610 1_565 S
N431 C432 1.351 . S
C432 C426 1.428 . S
C432 N431 1.351 . S
C432 C433 1.434 1_565 S
C433 C424 1.429 . S
C433 N430 1.350 . S
C433 C432 1.434 1_545 S
C434 C435 1.369 . S
C434 C436 1.419 1_655 S
C434 H438 0.930 . S
C435 C434 1.369 . S
C435 C444 1.429 . S
C436 C434 1.419 1_455 S
C436 C437 1.363 . S
C436 H439 0.929 . S
C437 C436 1.363 . S
C437 C443 1.428 . S
H438 C434 0.930 . S
H439 C436 0.929 . S
S440 N441 1.613 1_455 S
S440 N442 1.610 . S
N441 S440 1.613 1_655 S
N441 C444 1.350 . S
N442 S440 1.610 . S
N442 C443 1.351 . S
C443 C437 1.428 . S
C443 N442 1.351 . S
C443 C444 1.434 1_455 S
C444 C435 1.429 . S
C444 N441 1.350 . S
C444 C443 1.434 1_655 S
C445 C446 1.369 . S
C445 C447 1.419 1_545 S
C445 H449 0.930 . S
C446 C445 1.369 . S
C446 C455 1.429 . S
C447 C445 1.419 1_565 S
C447 C448 1.363 . S
C447 H450 0.929 . S
C448 C447 1.363 . S
C448 C454 1.428 . S
H449 C445 0.930 . S
H450 C447 0.929 . S
S451 N452 1.613 1_565 S
S451 N453 1.610 . S
N452 S451 1.613 1_545 S
N452 C455 1.350 . S
N453 S451 1.610 . S
N453 C454 1.351 . S
C454 C448 1.428 . S
C454 N453 1.351 . S
C454 C455 1.434 1_565 S
C455 C446 1.429 . S
C455 N452 1.350 . S
C455 C454 1.434 1_545 S
C456 C457 1.369 . S
C456 C458 1.419 . S
C456 H460 0.930 . S
C457 C456 1.369 . S
C457 C466 1.429 . S
C458 C456 1.419 . S
C458 C459 1.363 . S
C458 H461 0.929 . S
C459 C458 1.363 . S
C459 C465 1.428 . S
H460 C456 0.930 . S
H461 C458 0.929 . S
S462 N463 1.613 . S
S462 N464 1.610 . S
N463 S462 1.613 . S
N463 C466 1.350 . S
N464 S462 1.610 . S
N464 C465 1.351 . S
C465 C459 1.428 . S
C465 N464 1.351 . S
C465 C466 1.434 . S
C466 C457 1.429 . S
C466 N463 1.350 . S
C466 C465 1.434 . S
C467 C468 1.369 . S
C467 C469 1.419 . S
C467 H471 0.930 . S
C468 C467 1.369 . S
C468 C477 1.429 . S
C469 C467 1.419 . S
C469 C470 1.363 . S
C469 H472 0.929 . S
C470 C469 1.363 . S
C470 C476 1.428 . S
H471 C467 0.930 . S
H472 C469 0.929 . S
S473 N474 1.613 . S
S473 N475 1.610 . S
N474 S473 1.613 . S
N474 C477 1.350 . S
N475 S473 1.610 . S
N475 C476 1.351 . S
C476 C470 1.428 . S
C476 N475 1.351 . S
C476 C477 1.434 . S
C477 C468 1.429 . S
C477 N474 1.350 . S
C477 C476 1.434 . S
C478 C479 1.369 . S
C478 C480 1.419 . S
C478 H482 0.930 . S
C479 C478 1.369 . S
C479 C488 1.429 . S
C480 C478 1.419 . S
C480 C481 1.363 . S
C480 H483 0.929 . S
C481 C480 1.363 . S
C481 C487 1.428 . S
H482 C478 0.930 . S
H483 C480 0.929 . S
S484 N485 1.613 . S
S484 N486 1.610 . S
N485 S484 1.613 . S
N485 C488 1.350 . S
N486 S484 1.610 . S
N486 C487 1.351 . S
C487 C481 1.428 . S
C487 N486 1.351 . S
C487 C488 1.434 . S
C488 C479 1.429 . S
C488 N485 1.350 . S
C488 C487 1.434 . S
C489 C490 1.369 . S
C489 C491 1.419 . S
C489 H493 0.930 . S
C490 C489 1.369 . S
C490 C499 1.429 . S
C491 C489 1.419 . S
C491 C492 1.363 . S
C491 H494 0.929 . S
C492 C491 1.363 . S
C492 C498 1.428 . S
H493 C489 0.930 . S
H494 C491 0.929 . S
S495 N496 1.613 . S
S495 N497 1.610 . S
N496 S495 1.613 . S
N496 C499 1.350 . S
N497 S495 1.610 . S
N497 C498 1.351 . S
C498 C492 1.428 . S
C498 N497 1.351 . S
C498 C499 1.434 . S
C499 C490 1.429 . S
C499 N496 1.350 . S
C499 C498 1.434 . S
C500 C501 1.369 . S
C500 C502 1.419 . S
C500 H504 0.930 . S
C501 C500 1.369 . S
C501 C510 1.429 . S
C502 C500 1.419 . S
C502 C503 1.363 . S
C502 H505 0.929 . S
C503 C502 1.363 . S
C503 C509 1.428 . S
H504 C500 0.930 . S
H505 C502 0.929 . S
S506 N507 1.613 . S
S506 N508 1.610 . S
N507 S506 1.613 . S
N507 C510 1.350 . S
N508 S506 1.610 . S
N508 C509 1.351 . S
C509 C503 1.428 . S
C509 N508 1.351 . S
C509 C510 1.434 . S
C510 C501 1.429 . S
C510 N507 1.350 . S
C510 C509 1.434 . S
C511 C512 1.369 . S
C511 C513 1.419 . S
C511 H515 0.930 . S
C512 C511 1.369 . S
C512 C521 1.429 . S
C513 C511 1.419 . S
C513 C514 1.363 . S
C513 H516 0.929 . S
C514 C513 1.363 . S
C514 C520 1.428 . S
H515 C511 0.930 . S
H516 C513 0.929 . S
S517 N518 1.613 . S
S517 N519 1.610 . S
N518 S517 1.613 . S
N518 C521 1.350 . S
N519 S517 1.610 . S
N519 C520 1.351 . S
C520 C514 1.428 . S
C520 N519 1.351 . S
C520 C521 1.434 . S
C521 C512 1.429 . S
C521 N518 1.350 . S
C521 C520 1.434 . S
C522 C523 1.369 . S
C522 C524 1.419 . S
C522 H526 0.930 . S
C523 C522 1.369 . S
C523 C532 1.429 . S
C524 C522 1.419 . S
C524 C525 1.363 . S
C524 H527 0.929 . S
C525 C524 1.363 . S
C525 C531 1.428 . S
H526 C522 0.930 . S
H527 C524 0.929 . S
S528 N529 1.613 . S
S528 N530 1.610 . S
N529 S528 1.613 . S
N529 C532 1.350 . S
N530 S528 1.610 . S
N530 C531 1.351 . S
C531 C525 1.428 . S
C531 N530 1.351 . S
C531 C532 1.434 . S
C532 C523 1.429 . S
C532 N529 1.350 . S
C532 C531 1.434 . S
C533 C534 1.369 . S
C533 C535 1.419 . S
C533 H537 0.930 . S
C534 C533 1.369 . S
C534 C543 1.429 . S
C535 C533 1.419 . S
C535 C536 1.363 . S
C535 H538 0.929 . S
C536 C535 1.363 . S
C536 C542 1.428 . S
H537 C533 0.930 . S
H538 C535 0.929 . S
S539 N540 1.613 . S
S539 N541 1.610 . S
N540 S539 1.613 . S
N540 C543 1.350 . S
N541 S539 1.610 . S
N541 C542 1.351 . S
C542 C536 1.428 . S
C542 N541 1.351 . S
C542 C543 1.434 . S
C543 C534 1.429 . S
C543 N540 1.350 . S
C543 C542 1.434 . S
C544 C545 1.369 . S
C544 C546 1.419 1_556 S
C544 H548 0.930 . S
C545 C544 1.369 . S
C545 C554 1.429 . S
C546 C544 1.419 1_554 S
C546 C547 1.363 . S
C546 H549 0.929 . S
C547 C546 1.363 . S
C547 C553 1.428 . S
H548 C544 0.930 . S
H549 C546 0.929 . S
S550 N551 1.616 1_554 S
S550 N552 1.608 . S
N551 S550 1.616 1_556 S
N551 C554 1.350 . S
N552 S550 1.608 . S
N552 C553 1.351 . S
C553 C547 1.428 . S
C553 N552 1.351 . S
C553 C554 1.434 1_554 S
C554 C545 1.429 . S
C554 N551 1.350 . S
C554 C553 1.434 1_556 S
C555 C556 1.369 . S
C555 C557 1.419 . S
C555 H559 0.930 . S
C556 C555 1.369 . S
C556 C565 1.429 . S
C557 C555 1.419 . S
C557 C558 1.363 . S
C557 H560 0.929 . S
C558 C557 1.363 . S
C558 C564 1.428 . S
H559 C555 0.930 . S
H560 C557 0.929 . S
S561 N562 1.613 . S
S561 N563 1.610 . S
N562 S561 1.613 . S
N562 C565 1.350 . S
N563 S561 1.610 . S
N563 C564 1.351 . S
C564 C558 1.428 . S
C564 N563 1.351 . S
C564 C565 1.434 . S
C565 C556 1.429 . S
C565 N562 1.350 . S
C565 C564 1.434 . S
C566 C567 1.369 . S
C566 C568 1.419 1_554 S
C566 H570 0.930 . S
C567 C566 1.369 . S
C567 C576 1.429 . S
C568 C566 1.419 1_556 S
C568 C569 1.363 . S
C568 H571 0.929 . S
C569 C568 1.363 . S
C569 C575 1.428 . S
H570 C566 0.930 . S
H571 C568 0.929 . S
S572 N573 1.616 1_556 S
S572 N574 1.608 . S
N573 S572 1.616 1_554 S
N573 C576 1.350 . S
N574 S572 1.608 . S
N574 C575 1.351 . S
C575 C569 1.428 . S
C575 N574 1.351 . S
C575 C576 1.434 1_556 S
C576 C567 1.429 . S
C576 N573 1.350 . S
C576 C575 1.434 1_554 S
C577 C578 1.369 . S
C577 C579 1.419 . S
C577 H581 0.930 . S
C578 C577 1.369 . S
C578 C587 1.429 . S
C579 C577 1.419 . S
C579 C580 1.363 . S
C579 H582 0.929 . S
C580 C579 1.363 . S
C580 C586 1.428 . S
H581 C577 0.930 . S
H582 C579 0.929 . S
S583 N584 1.613 . S
S583 N585 1.610 . S
N584 S583 1.613 . S
N584 C587 1.350 . S
N585 S583 1.610 . S
N585 C586 1.351 . S
C586 C580 1.428 . S
C586 N585 1.351 . S
C586 C587 1.434 . S
C587 C578 1.429 . S
C587 N584 1.350 . S
C587 C586 1.434 . S
C588 C589 1.369 . S
C588 C590 1.419 . S
C588 H592 0.930 . S
C589 C588 1.369 . S
C589 C598 1.429 . S
C590 C588 1.419 . S
C590 C591 1.363 . S
C590 H593 0.929 . S
C591 C590 1.363 . S
C591 C597 1.428 . S
H592 C588 0.930 . S
H593 C590 0.929 . S
S594 N595 1.613 . S
S594 N596 1.610 . S
N595 S594 1.613 . S
N595 C598 1.350 . S
N596 S594 1.610 . S
N596 C597 1.351 . S
C597 C591 1.428 . S
C597 N596 1.351 . S
C597 C598 1.434 . S
C598 C589 1.429 . S
C598 N595 1.350 . S
C598 C597 1.434 . S
C599 C600 1.369 . S
C599 C601 1.419 1_556 S
C599 H603 0.930 . S
C600 C599 1.369 . S
C600 C609 1.429 . S
C601 C599 1.419 1_554 S
C601 C602 1.363 . S
C601 H604 0.929 . S
C602 C601 1.363 . S
C602 C608 1.428 . S
H603 C599 0.930 . S
H604 C601 0.929 . S
S605 N606 1.616 1_554 S
S605 N607 1.608 . S
N606 S605 1.616 1_556 S
N606 C609 1.350 . S
N607 S605 1.608 . S
N607 C608 1.351 . S
C608 C602 1.428 . S
C608 N607 1.351 . S
C608 C609 1.434 1_554 S
C609 C600 1.429 . S
C609 N606 1.350 . S
C609 C608 1.434 1_556 S
C610 C611 1.369 . S
C610 C612 1.419 . S
C610 H614 0.930 . S
C611 C610 1.369 . S
C611 C620 1.429 . S
C612 C610 1.419 . S
C612 C613 1.363 . S
C612 H615 0.929 . S
C613 C612 1.363 . S
C613 C619 1.428 . S
H614 C610 0.930 . S
H615 C612 0.929 . S
S616 N617 1.613 . S
S616 N618 1.610 . S
N617 S616 1.613 . S
N617 C620 1.350 . S
N618 S616 1.610 . S
N618 C619 1.351 . S
C619 C613 1.428 . S
C619 N618 1.351 . S
C619 C620 1.434 . S
C620 C611 1.429 . S
C620 N617 1.350 . S
C620 C619 1.434 . S
C621 C622 1.369 . S
C621 C623 1.419 1_554 S
C621 H625 0.930 . S
C622 C621 1.369 . S
C622 C631 1.429 . S
C623 C621 1.419 1_556 S
C623 C624 1.363 . S
C623 H626 0.929 . S
C624 C623 1.363 . S
C624 C630 1.428 . S
H625 C621 0.930 . S
H626 C623 0.929 . S
S627 N628 1.616 1_556 S
S627 N629 1.608 . S
N628 S627 1.616 1_554 S
N628 C631 1.350 . S
N629 S627 1.608 . S
N629 C630 1.351 . S
C630 C624 1.428 . S
C630 N629 1.351 . S
C630 C631 1.434 1_556 S
C631 C622 1.429 . S
C631 N628 1.350 . S
C631 C630 1.434 1_554 S
C632 C633 1.369 . S
C632 C634 1.419 . S
C632 H636 0.930 . S
C633 C632 1.369 . S
C633 C642 1.429 . S
C634 C632 1.419 . S
C634 C635 1.363 . S
C634 H637 0.929 . S
C635 C634 1.363 . S
C635 C641 1.428 . S
H636 C632 0.930 . S
H637 C634 0.929 . S
S638 N639 1.613 . S
S638 N640 1.610 . S
N639 S638 1.613 . S
N639 C642 1.350 . S
N640 S638 1.610 . S
N640 C641 1.351 . S
C641 C635 1.428 . S
C641 N640 1.351 . S
C641 C642 1.434 . S
C642 C633 1.429 . S
C642 N639 1.350 . S
C642 C641 1.434 . S
C643 C644 1.369 . S
C643 C645 1.419 . S
C643 H647 0.930 . S
C644 C643 1.369 . S
C644 C653 1.429 . S
C645 C643 1.419 . S
C645 C646 1.363 . S
C645 H648 0.929 . S
C646 C645 1.363 . S
C646 C652 1.428 . S
H647 C643 0.930 . S
H648 C645 0.929 . S
S649 N650 1.613 . S
S649 N651 1.610 . S
N650 S649 1.613 . S
N650 C653 1.350 . S
N651 S649 1.610 . S
N651 C652 1.351 . S
C652 C646 1.428 . S
C652 N651 1.351 . S
C652 C653 1.434 . S
C653 C644 1.429 . S
C653 N650 1.350 . S
C653 C652 1.434 . S
C654 C655 1.369 . S
C654 C656 1.419 . S
C654 H658 0.930 . S
C655 C654 1.369 . S
C655 C664 1.429 . S
C656 C654 1.419 . S
C656 C657 1.363 . S
C656 H659 0.929 . S
C657 C656 1.363 . S
C657 C663 1.428 . S
H658 C654 0.930 . S
H659 C656 0.929 . S
S660 N661 1.613 . S
S660 N662 1.610 . S
N661 S660 1.613 . S
N661 C664 1.350 . S
N662 S660 1.610 . S
N662 C663 1.351 . S
C663 C657 1.428 . S
C663 N662 1.351 . S
C663 C664 1.434 . S
C664 C655 1.429 . S
C664 N661 1.350 . S
C664 C663 1.434 . S
C665 C666 1.369 . S
C665 C667 1.419 . S
C665 H669 0.930 . S
C666 C665 1.369 . S
C666 C675 1.429 . S
C667 C665 1.419 . S
C667 C668 1.363 . S
C667 H670 0.929 . S
C668 C667 1.363 . S
C668 C674 1.428 . S
H669 C665 0.930 . S
H670 C667 0.929 . S
S671 N672 1.613 . S
S671 N673 1.610 . S
N672 S671 1.613 . S
N672 C675 1.350 . S
N673 S671 1.610 . S
N673 C674 1.351 . S
C674 C668 1.428 . S
C674 N673 1.351 . S
C674 C675 1.434 . S
C675 C666 1.429 . S
C675 N672 1.350 . S
C675 C674 1.434 . S
C676 C677 1.369 . S
C676 C678 1.419 . S
C676 H680 0.930 . S
C677 C676 1.369 . S
C677 C686 1.429 . S
C678 C676 1.419 . S
C678 C679 1.363 . S
C678 H681 0.929 . S
C679 C678 1.363 . S
C679 C685 1.428 . S
H680 C676 0.930 . S
H681 C678 0.929 . S
S682 N683 1.613 . S
S682 N684 1.610 . S
N683 S682 1.613 . S
N683 C686 1.350 . S
N684 S682 1.610 . S
N684 C685 1.351 . S
C685 C679 1.428 . S
C685 N684 1.351 . S
C685 C686 1.434 . S
C686 C677 1.429 . S
C686 N683 1.350 . S
C686 C685 1.434 . S
C687 C688 1.369 . S
C687 C689 1.419 . S
C687 H691 0.930 . S
C688 C687 1.369 . S
C688 C697 1.429 . S
C689 C687 1.419 . S
C689 C690 1.363 . S
C689 H692 0.929 . S
C690 C689 1.363 . S
C690 C696 1.428 . S
H691 C687 0.930 . S
H692 C689 0.929 . S
S693 N694 1.613 . S
S693 N695 1.610 . S
N694 S693 1.613 . S
N694 C697 1.350 . S
N695 S693 1.610 . S
N695 C696 1.351 . S
C696 C690 1.428 . S
C696 N695 1.351 . S
C696 C697 1.434 . S
C697 C688 1.429 . S
C697 N694 1.350 . S
C697 C696 1.434 . S
C698 C699 1.369 . S
C698 C700 1.419 . S
C698 H702 0.930 . S
C699 C698 1.369 . S
C699 C708 1.429 . S
C700 C698 1.419 . S
C700 C701 1.363 . S
C700 H703 0.929 . S
C701 C700 1.363 . S
C701 C707 1.428 . S
H702 C698 0.930 . S
H703 C700 0.929 . S
S704 N705 1.613 . S
S704 N706 1.610 . S
N705 S704 1.613 . S
N705 C708 1.350 . S
N706 S704 1.610 . S
N706 C707 1.351 . S
C707 C701 1.428 . S
C707 N706 1.351 . S
C707 C708 1.434 . S
C708 C699 1.429 . S
C708 N705 1.350 . S
C708 C707 1.434 . S
C709 C710 1.369 . S
C709 C711 1.419 . S
C709 H713 0.930 . S
C710 C709 1.369 . S
C710 C719 1.429 . S
C711 C709 1.419 . S
C711 C712 1.363 . S
C711 H714 0.929 . S
C712 C711 1.363 . S
C712 C718 1.428 . S
H713 C709 0.930 . S
H714 C711 0.929 . S
S715 N716 1.613 . S
S715 N717 1.610 . S
N716 S715 1.613 . S
N716 C719 1.350 . S
N717 S715 1.610 . S
N717 C718 1.351 . S
C718 C712 1.428 . S
C718 N717 1.351 . S
C718 C719 1.434 . S
C719 C710 1.429 . S
C719 N716 1.350 . S
C719 C718 1.434 . S
C369 N2 1.517 . S
C371 N48 1.527 . S
C380 N71 1.518 . S
C382 N25 1.525 . S
C391 N94 1.530 . S
C393 N140 1.519 . S
C402 N163 1.527 . S
C404 N117 1.524 . S
C413 N186 1.524 . S
C415 N232 1.519 . S
C424 N255 1.529 . S
C426 N209 1.519 . S
C435 N278 1.523 . S
C437 N324 1.527 . S
C446 N347 1.520 . S
C448 N301 1.528 . S
C457 C108 1.603 . S
C459 C16 1.597 . S
C468 C39 1.603 . S
C470 C131 1.599 . S
C479 C62 1.604 . S
C481 C154 1.598 . S
C490 C177 1.604 . S
C492 C85 1.598 . S
C501 C200 1.596 . S
C503 C292 1.602 . S
C512 C223 1.602 . S
C514 C315 1.601 . S
C523 C246 1.604 . S
C525 C338 1.598 . S
C534 C269 1.603 . S
C536 C361 1.597 . S
C545 C237 1.627 . S
C547 C7 1.628 . S
C556 C260 1.631 . S
C558 C30 1.631 . S
C567 C53 1.628 . S
C569 C191 1.629 . S
C578 C76 1.629 . S
C580 C214 1.629 . S
C589 C99 1.628 . S
C591 C329 1.628 . S
C600 C122 1.629 . S
C602 C352 1.629 . S
C611 C145 1.631 . S
C613 C283 1.631 . S
C622 C306 1.629 . S
C624 C168 1.629 . S
C633 N12 1.554 . S
C635 N357 1.555 . S
C644 N288 1.559 . S
C646 N35 1.559 . S
C655 N58 1.554 . S
C657 N311 1.555 . S
C666 N334 1.557 . S
C668 N81 1.557 . S
C677 N219 1.558 . S
C679 N104 1.558 . S
C688 N127 1.559 . S
C690 N242 1.559 . S
C699 N265 1.560 . S
C701 N150 1.559 . S
C710 N196 1.558 . S
C712 N173 1.558 . S
