# Generated by pormake.
# Topology pcb, (4)-cn, num edge types: 1
# Building blocks:
#     Node 0, Type 0, BuildingBlock: CEKHIL_clean_sbu_0, # of connection points: 4
#     Node 1, Type 0, BuildingBlock: CEKHIL_clean_sbu_0, # of connection points: 4
#     Node 2, Type 0, BuildingBlock: CEKHIL_clean_sbu_0, # of connection points: 4
#     Node 3, Type 0, BuildingBlock: CEKHIL_clean_sbu_0, # of connection points: 4
#     Node 4, Type 0, BuildingBlock: CEKHIL_clean_sbu_0, # of connection points: 4
#     Node 5, Type 0, BuildingBlock: CEKHIL_clean_sbu_0, # of connection points: 4
#     Node 6, Type 0, BuildingBlock: CEKHIL_clean_sbu_0, # of connection points: 4
#     Node 7, Type 0, BuildingBlock: CEKHIL_clean_sbu_0, # of connection points: 4
#     Node 8, Type 0, BuildingBlock: CEKHIL_clean_sbu_0, # of connection points: 4
#     Node 9, Type 0, BuildingBlock: CEKHIL_clean_sbu_0, # of connection points: 4
#     Node 10, Type 0, BuildingBlock: CEKHIL_clean_sbu_0, # of connection points: 4
#     Node 11, Type 0, BuildingBlock: CEKHIL_clean_sbu_0, # of connection points: 4
#     Node 12, Type 0, BuildingBlock: CEKHIL_clean_sbu_0, # of connection points: 4
#     Node 13, Type 0, BuildingBlock: CEKHIL_clean_sbu_0, # of connection points: 4
#     Node 14, Type 0, BuildingBlock: CEKHIL_clean_sbu_0, # of connection points: 4
#     Node 15, Type 0, BuildingBlock: CEKHIL_clean_sbu_0, # of connection points: 4
#     Edge 16, Type (0, 0), BuildingBlock: ZUJKAS_clean_linker_0, # of connection points: 2
#     Edge 17, Type (0, 0), BuildingBlock: ZUJKAS_clean_linker_0, # of connection points: 2
#     Edge 18, Type (0, 0), BuildingBlock: ZUJKAS_clean_linker_0, # of connection points: 2
#     Edge 19, Type (0, 0), BuildingBlock: ZUJKAS_clean_linker_0, # of connection points: 2
#     Edge 20, Type (0, 0), BuildingBlock: ZUJKAS_clean_linker_0, # of connection points: 2
#     Edge 21, Type (0, 0), BuildingBlock: ZUJKAS_clean_linker_0, # of connection points: 2
#     Edge 22, Type (0, 0), BuildingBlock: ZUJKAS_clean_linker_0, # of connection points: 2
#     Edge 23, Type (0, 0), BuildingBlock: ZUJKAS_clean_linker_0, # of connection points: 2
#     Edge 24, Type (0, 0), BuildingBlock: ZUJKAS_clean_linker_0, # of connection points: 2
#     Edge 25, Type (0, 0), BuildingBlock: ZUJKAS_clean_linker_0, # of connection points: 2
#     Edge 26, Type (0, 0), BuildingBlock: ZUJKAS_clean_linker_0, # of connection points: 2
#     Edge 27, Type (0, 0), BuildingBlock: ZUJKAS_clean_linker_0, # of connection points: 2
#     Edge 28, Type (0, 0), BuildingBlock: ZUJKAS_clean_linker_0, # of connection points: 2
#     Edge 29, Type (0, 0), BuildingBlock: ZUJKAS_clean_linker_0, # of connection points: 2
#     Edge 30, Type (0, 0), BuildingBlock: ZUJKAS_clean_linker_0, # of connection points: 2
#     Edge 31, Type (0, 0), BuildingBlock: ZUJKAS_clean_linker_0, # of connection points: 2
#     Edge 32, Type (0, 0), BuildingBlock: ZUJKAS_clean_linker_0, # of connection points: 2
#     Edge 33, Type (0, 0), BuildingBlock: ZUJKAS_clean_linker_0, # of connection points: 2
#     Edge 34, Type (0, 0), BuildingBlock: ZUJKAS_clean_linker_0, # of connection points: 2
#     Edge 35, Type (0, 0), BuildingBlock: ZUJKAS_clean_linker_0, # of connection points: 2
#     Edge 36, Type (0, 0), BuildingBlock: ZUJKAS_clean_linker_0, # of connection points: 2
#     Edge 37, Type (0, 0), BuildingBlock: ZUJKAS_clean_linker_0, # of connection points: 2
#     Edge 38, Type (0, 0), BuildingBlock: ZUJKAS_clean_linker_0, # of connection points: 2
#     Edge 39, Type (0, 0), BuildingBlock: ZUJKAS_clean_linker_0, # of connection points: 2
#     Edge 40, Type (0, 0), BuildingBlock: ZUJKAS_clean_linker_0, # of connection points: 2
#     Edge 41, Type (0, 0), BuildingBlock: ZUJKAS_clean_linker_0, # of connection points: 2
#     Edge 42, Type (0, 0), BuildingBlock: ZUJKAS_clean_linker_0, # of connection points: 2
#     Edge 43, Type (0, 0), BuildingBlock: ZUJKAS_clean_linker_0, # of connection points: 2
#     Edge 44, Type (0, 0), BuildingBlock: ZUJKAS_clean_linker_0, # of connection points: 2
#     Edge 45, Type (0, 0), BuildingBlock: ZUJKAS_clean_linker_0, # of connection points: 2
#     Edge 46, Type (0, 0), BuildingBlock: ZUJKAS_clean_linker_0, # of connection points: 2
#     Edge 47, Type (0, 0), BuildingBlock: ZUJKAS_clean_linker_0, # of connection points: 2
# Relax obj value: 0.237
# Max RMSD: 0.082
# Mean RMSD: 0.082
data_MOF--net-pcb--node1-CEKHIL_clean_sbu_0--edge1-ZUJKAS_clean_linker_0
_symmetry_space_group_name_H-M    P1
_symmetry_Int_Tables_number       1
_symmetry_cell_setting            triclinic
loop_
_symmetry_equiv_pos_as_xyz
'x, y, z'
_cell_length_a     73.16584
_cell_length_b     47.793583
_cell_length_c     47.793758
_cell_angle_alpha  90.006382
_cell_angle_beta   90.000331
_cell_angle_gamma 90.004005
loop_
_atom_site_label
_atom_site_type_symbol
_atom_site_fract_x
_atom_site_fract_y
_atom_site_fract_z
_atom_type_partial_charge
Co0 Co 0.13753 0.18739 0.19583 0.0
O1 O 0.16362 0.18625 0.19261 0.0
O2 O 0.14828 0.22253 0.20892 0.0
C3 C 0.13487 0.14463 0.2156 0.0
O4 O 0.11005 0.19444 0.20236 0.0
Co5 Co 0.1158 0.14261 0.16171 0.0
O6 O 0.09526 0.15706 0.18448 0.0
C7 C 0.13357 0.18957 0.13273 0.0
C8 C 0.16402 0.2113 0.20277 0.0
C9 C 0.09533 0.17996 0.19824 0.0
O10 O 0.13589 0.20224 0.15625 0.0
O11 O 0.12761 0.16445 0.13083 0.0
O12 O 0.13871 0.16619 0.23106 0.0
O13 O 0.13454 0.14934 0.18908 0.0
Co14 Co 0.86993 0.19524 0.18881 0.0
O15 O 0.84406 0.18848 0.18828 0.0
O16 O 0.85887 0.20685 0.22412 0.0
C17 C 0.8708 0.21541 0.14604 0.0
O18 O 0.8969 0.20574 0.19586 0.0
Co19 Co 0.8944 0.16662 0.14359 0.0
O20 O 0.91272 0.1938 0.1572 0.0
C21 C 0.87992 0.13351 0.19106 0.0
C22 C 0.84337 0.19893 0.21323 0.0
C23 C 0.91168 0.20582 0.18097 0.0
O24 O 0.87416 0.1559 0.20327 0.0
O25 O 0.8869 0.1335 0.16648 0.0
O26 O 0.86633 0.23019 0.16778 0.0
O27 O 0.87311 0.1891 0.1506 0.0
Co28 Co 0.87194 0.80808 0.19687 0.0
O29 O 0.84604 0.81097 0.1911 0.0
O30 O 0.85981 0.77388 0.20905 0.0
C31 C 0.87457 0.85115 0.21606 0.0
O32 O 0.89858 0.79861 0.20692 0.0
Co33 Co 0.8983 0.84983 0.16738 0.0
O34 O 0.91554 0.83645 0.19629 0.0
C35 C 0.8829 0.80206 0.13564 0.0
C36 C 0.84464 0.7862 0.20184 0.0
C37 C 0.91366 0.81266 0.20797 0.0
O38 O 0.87522 0.79239 0.15788 0.0
O39 O 0.89172 0.82521 0.13498 0.0
O40 O 0.86957 0.83006 0.23142 0.0
O41 O 0.87656 0.84585 0.18979 0.0
Co42 Co 0.13841 0.80191 0.1889 0.0
O43 O 0.16446 0.80525 0.18631 0.0
O44 O 0.14994 0.78799 0.22299 0.0
C45 C 0.13482 0.78355 0.14559 0.0
O46 O 0.11133 0.79502 0.19791 0.0
Co47 Co 0.11503 0.83679 0.14684 0.0
O48 O 0.09436 0.81772 0.16557 0.0
C49 C 0.13445 0.86472 0.19284 0.0
C50 C 0.16541 0.79452 0.21112 0.0
C51 C 0.09582 0.8021 0.1871 0.0
O52 O 0.13705 0.841 0.20497 0.0
O53 O 0.12794 0.86707 0.1681 0.0
O54 O 0.13906 0.7674 0.16648 0.0
O55 O 0.13439 0.80986 0.15127 0.0
Co56 Co 0.13632 0.80642 0.80257 0.0
O57 O 0.16221 0.80602 0.80932 0.0
O58 O 0.14713 0.77224 0.78779 0.0
C59 C 0.13578 0.85098 0.7867 0.0
O60 O 0.10945 0.80042 0.79128 0.0
Co61 Co 0.11139 0.84867 0.83431 0.0
O62 O 0.09381 0.83872 0.80455 0.0
C63 C 0.12443 0.79736 0.86293 0.0
C64 C 0.1627 0.7821 0.79661 0.0
C65 C 0.09486 0.81567 0.79125 0.0
O66 O 0.13193 0.78832 0.84026 0.0
O67 O 0.11658 0.82123 0.86493 0.0
O68 O 0.14002 0.83066 0.76986 0.0
O69 O 0.13326 0.84392 0.81242 0.0
Co70 Co 0.13602 0.19848 0.8096 0.0
O71 O 0.16178 0.19115 0.8126 0.0
O72 O 0.1485 0.20983 0.77551 0.0
C73 C 0.13359 0.21831 0.85232 0.0
O74 O 0.1097 0.20978 0.79961 0.0
Co75 Co 0.10857 0.17124 0.85116 0.0
O76 O 0.09211 0.20094 0.8372 0.0
C77 C 0.12405 0.1377 0.80464 0.0
C78 C 0.16348 0.20161 0.78773 0.0
C79 C 0.09452 0.21198 0.81323 0.0
O80 O 0.13198 0.15949 0.79443 0.0
O81 O 0.11507 0.13794 0.82766 0.0
O82 O 0.1391 0.2331 0.83114 0.0
O83 O 0.13099 0.19209 0.84739 0.0
Co84 Co 0.8699 0.19047 0.80207 0.0
O85 O 0.84402 0.18677 0.80832 0.0
O86 O 0.85729 0.22432 0.79051 0.0
C87 C 0.87319 0.14791 0.78201 0.0
O88 O 0.8962 0.20144 0.79185 0.0
Co89 Co 0.89745 0.14942 0.82997 0.0
O90 O 0.91499 0.16579 0.80305 0.0
C91 C 0.88048 0.19482 0.86342 0.0
C92 C 0.84228 0.21172 0.798 0.0
C93 C 0.91193 0.18925 0.79135 0.0
O94 O 0.87315 0.20543 0.84133 0.0
O95 O 0.88947 0.17181 0.86328 0.0
O96 O 0.86767 0.16906 0.76718 0.0
O97 O 0.87531 0.15275 0.80834 0.0
Co98 Co 0.86847 0.80385 0.80947 0.0
O99 O 0.84229 0.80385 0.80979 0.0
O100 O 0.85906 0.78925 0.77413 0.0
C101 C 0.87107 0.78546 0.85292 0.0
O102 O 0.89612 0.79984 0.80311 0.0
Co103 Co 0.88875 0.8401 0.85405 0.0
O104 O 0.91032 0.81928 0.84016 0.0
C105 C 0.87046 0.86712 0.80627 0.0
C106 C 0.84291 0.79312 0.78497 0.0
C107 C 0.91069 0.80532 0.81741 0.0
O108 O 0.86866 0.8433 0.79395 0.0
O109 O 0.87628 0.86975 0.83139 0.0
O110 O 0.86854 0.76906 0.83157 0.0
O111 O 0.87057 0.81179 0.84741 0.0
Co112 Co 0.6359 0.68943 0.69846 0.0
O113 O 0.66169 0.68546 0.69187 0.0
O114 O 0.64872 0.72345 0.70927 0.0
C115 C 0.63281 0.64699 0.71882 0.0
O116 O 0.60964 0.70043 0.709 0.0
Co117 Co 0.60806 0.6483 0.67149 0.0
O118 O 0.59159 0.66317 0.70079 0.0
C119 C 0.624 0.69424 0.6376 0.0
C120 C 0.6636 0.71053 0.70176 0.0
C121 C 0.59432 0.68725 0.71136 0.0
O122 O 0.6323 0.70415 0.65922 0.0
O123 O 0.61462 0.6716 0.63806 0.0
O124 O 0.63841 0.66824 0.73346 0.0
O125 O 0.63043 0.65172 0.69252 0.0
Co126 Co 0.36916 0.69705 0.68743 0.0
O127 O 0.34342 0.68917 0.68568 0.0
O128 O 0.35731 0.70798 0.7222 0.0
C129 C 0.37045 0.71719 0.64466 0.0
O130 O 0.39558 0.7087 0.69624 0.0
Co131 Co 0.39595 0.67099 0.64401 0.0
O132 O 0.41278 0.70018 0.65814 0.0
C133 C 0.38171 0.63652 0.6909 0.0
C134 C 0.34215 0.6995 0.71067 0.0
C135 C 0.41064 0.71089 0.68233 0.0
O136 O 0.37398 0.65805 0.70206 0.0
O137 O 0.3899 0.6373 0.66723 0.0
O138 O 0.36532 0.73177 0.66621 0.0
O139 O 0.37341 0.69104 0.64937 0.0
Co140 Co 0.36951 0.30919 0.69748 0.0
O141 O 0.34345 0.309 0.69356 0.0
O142 O 0.35939 0.27436 0.71212 0.0
C143 C 0.37119 0.35308 0.71492 0.0
O144 O 0.3969 0.30336 0.70515 0.0
Co145 Co 0.39145 0.35286 0.6623 0.0
O146 O 0.41172 0.34045 0.6868 0.0
C147 C 0.3744 0.30426 0.63486 0.0
C148 C 0.3435 0.28447 0.70501 0.0
C149 C 0.41153 0.31806 0.70136 0.0
O150 O 0.37189 0.29245 0.65877 0.0
O151 O 0.38017 0.3294 0.63212 0.0
O152 O 0.36757 0.33224 0.73147 0.0
O153 O 0.37201 0.34691 0.68873 0.0
Co154 Co 0.63679 0.30314 0.68841 0.0
O155 O 0.66285 0.30759 0.68842 0.0
O156 O 0.64705 0.28978 0.7236 0.0
C157 C 0.63529 0.28424 0.64509 0.0
O158 O 0.60951 0.29489 0.69479 0.0
Co159 Co 0.61395 0.33563 0.64384 0.0
O160 O 0.59424 0.31047 0.65692 0.0
C161 C 0.63057 0.36574 0.69141 0.0
C162 C 0.66289 0.29671 0.71323 0.0
C163 C 0.59478 0.29712 0.68002 0.0
O164 O 0.63404 0.3424 0.70383 0.0
O165 O 0.62427 0.36719 0.66645 0.0
O166 O 0.63909 0.26848 0.66646 0.0
O167 O 0.63408 0.31059 0.65039 0.0
Co168 Co 0.63729 0.31005 0.29996 0.0
O169 O 0.66335 0.31117 0.30471 0.0
O170 O 0.64825 0.27474 0.28815 0.0
C171 C 0.63525 0.35254 0.2794 0.0
O172 O 0.61011 0.30245 0.29164 0.0
Co173 Co 0.61366 0.35503 0.33055 0.0
O174 O 0.59444 0.34075 0.30515 0.0
C175 C 0.63042 0.30882 0.36257 0.0
C176 C 0.6639 0.28597 0.29483 0.0
C177 C 0.59526 0.3171 0.29286 0.0
O178 O 0.63453 0.29598 0.33971 0.0
O179 O 0.62363 0.33352 0.36311 0.0
O180 O 0.63949 0.33073 0.26453 0.0
O181 O 0.63397 0.34823 0.30592 0.0
Co182 Co 0.63831 0.69439 0.30882 0.0
O183 O 0.66446 0.69276 0.30973 0.0
O184 O 0.64847 0.70946 0.27419 0.0
C185 C 0.63572 0.71166 0.35272 0.0
O186 O 0.61085 0.70031 0.30194 0.0
Co187 Co 0.61649 0.65829 0.35173 0.0
O188 O 0.59587 0.68178 0.33874 0.0
C189 C 0.63486 0.63148 0.30385 0.0
C190 C 0.6644 0.70427 0.28524 0.0
C191 C 0.59609 0.69612 0.31622 0.0
O192 O 0.63732 0.65548 0.29216 0.0
O193 O 0.62858 0.62855 0.32868 0.0
O194 O 0.6389 0.72849 0.33192 0.0
O195 O 0.63558 0.68547 0.34646 0.0
Co196 Co 0.37214 0.69169 0.30351 0.0
O197 O 0.34627 0.69132 0.31015 0.0
O198 O 0.36103 0.72597 0.28947 0.0
C199 C 0.37325 0.64764 0.28642 0.0
O200 O 0.39901 0.69835 0.29255 0.0
Co201 Co 0.39701 0.64932 0.33516 0.0
O202 O 0.41483 0.66029 0.30609 0.0
C203 C 0.38311 0.69955 0.36452 0.0
C204 C 0.34555 0.71552 0.29803 0.0
C205 C 0.41371 0.68332 0.29277 0.0
O206 O 0.37618 0.70906 0.34164 0.0
O207 O 0.39091 0.67563 0.3664 0.0
O208 O 0.36878 0.66831 0.27016 0.0
O209 O 0.37549 0.65398 0.31241 0.0
Co210 Co 0.36959 0.30126 0.31435 0.0
O211 O 0.34346 0.30431 0.31523 0.0
O212 O 0.3591 0.28897 0.2788 0.0
C213 C 0.37213 0.28055 0.35667 0.0
O214 O 0.39708 0.29493 0.30734 0.0
Co215 Co 0.39133 0.33411 0.36009 0.0
O216 O 0.41187 0.31164 0.34523 0.0
C217 C 0.37383 0.36439 0.31363 0.0
C218 C 0.34326 0.29468 0.28994 0.0
C219 C 0.4118 0.29856 0.32195 0.0
O220 O 0.37127 0.34121 0.30045 0.0
O221 O 0.37986 0.3656 0.33875 0.0
O222 O 0.36837 0.26555 0.33475 0.0
O223 O 0.37246 0.30717 0.35255 0.0
H224 H 0.31013 0.31485 0.30547 0.0
H225 H 0.28027 0.30393 0.28576 0.0
H226 H 0.30587 0.25301 0.22244 0.0
H227 H 0.33611 0.26385 0.24231 0.0
H228 H 0.26515 0.31105 0.23107 0.0
H229 H 0.26992 0.19938 0.2631 0.0
H230 H 0.28517 0.22585 0.27653 0.0
H231 H 0.28834 0.21231 0.24182 0.0
C232 C 0.3095 0.30147 0.2872 0.0
C233 C 0.32552 0.28998 0.27561 0.0
C234 C 0.29237 0.29535 0.2759 0.0
C235 C 0.29078 0.27739 0.25287 0.0
C236 C 0.30677 0.26666 0.24048 0.0
H237 H 0.19639 0.19723 0.17927 0.0
H238 H 0.22662 0.21568 0.18967 0.0
C239 C 0.32404 0.27296 0.25173 0.0
C240 C 0.27229 0.26902 0.24302 0.0
H241 H 0.24315 0.21332 0.23979 0.0
C242 C 0.26034 0.28966 0.23281 0.0
C243 C 0.26597 0.24118 0.2456 0.0
C244 C 0.27791 0.21836 0.25755 0.0
C245 C 0.24233 0.2831 0.22472 0.0
C246 C 0.23598 0.25526 0.22748 0.0
C247 C 0.24798 0.23467 0.23765 0.0
C248 C 0.21714 0.24657 0.21938 0.0
C249 C 0.2304 0.30591 0.21282 0.0
C250 C 0.20154 0.25811 0.23224 0.0
C251 C 0.18402 0.24766 0.2261 0.0
C252 C 0.1819 0.22526 0.20732 0.0
C253 C 0.19751 0.21438 0.194 0.0
C254 C 0.21486 0.22491 0.19992 0.0
H255 H 0.23862 0.32393 0.20524 0.0
H256 H 0.22195 0.29792 0.19525 0.0
H257 H 0.22106 0.31365 0.22939 0.0
H258 H 0.20294 0.27449 0.24774 0.0
H259 H 0.17227 0.25632 0.23684 0.0
H260 H 0.67149 0.23819 0.26466 0.0
H261 H 0.70184 0.21825 0.25484 0.0
H262 H 0.72685 0.28241 0.30539 0.0
H263 H 0.69686 0.30224 0.31527 0.0
H264 H 0.73074 0.24805 0.22836 0.0
H265 H 0.75207 0.21089 0.3333 0.0
H266 H 0.72851 0.21813 0.32458 0.0
H267 H 0.74389 0.24631 0.33276 0.0
C268 C 0.68345 0.24771 0.27403 0.0
C269 C 0.68175 0.27179 0.29072 0.0
C270 C 0.70077 0.23636 0.26838 0.0
C271 C 0.71662 0.24862 0.27969 0.0
C272 C 0.71485 0.27223 0.29688 0.0
H273 H 0.83448 0.23459 0.25647 0.0
H274 H 0.80359 0.24538 0.2738 0.0
C275 C 0.69764 0.28366 0.30234 0.0
C276 C 0.73513 0.23843 0.2718 0.0
H277 H 0.77549 0.21424 0.29869 0.0
C278 C 0.74045 0.24032 0.24367 0.0
C279 C 0.74789 0.22878 0.29188 0.0
C280 C 0.7428 0.22565 0.3223 0.0
C281 C 0.75828 0.23348 0.23514 0.0
C282 C 0.77107 0.22373 0.25519 0.0
C283 C 0.76572 0.22169 0.28333 0.0
C284 C 0.78995 0.21536 0.24706 0.0
C285 C 0.7634 0.23769 0.20483 0.0
C286 C 0.79262 0.19417 0.22717 0.0
C287 C 0.81012 0.18819 0.21717 0.0
C288 C 0.82544 0.20291 0.22715 0.0
C289 C 0.82295 0.22291 0.24839 0.0
C290 C 0.80531 0.22912 0.25824 0.0
H291 H 0.75402 0.25258 0.19422 0.0
H292 H 0.7776 0.24567 0.20281 0.0
H293 H 0.7625 0.21737 0.19369 0.0
H294 H 0.78108 0.1827 0.21881 0.0
H295 H 0.81159 0.1724 0.20106 0.0
H296 H 0.81374 0.81453 0.21374 0.0
H297 H 0.78335 0.79601 0.22294 0.0
H298 H 0.80329 0.71216 0.20876 0.0
H299 H 0.83426 0.73079 0.20145 0.0
H300 H 0.75991 0.77057 0.19335 0.0
H301 H 0.77825 0.69885 0.28025 0.0
H302 H 0.79442 0.72319 0.26566 0.0
H303 H 0.78959 0.69068 0.24804 0.0
C304 C 0.81169 0.7921 0.21278 0.0
C305 C 0.82637 0.77406 0.2071 0.0
C306 C 0.79425 0.7815 0.21793 0.0
C307 C 0.7909 0.75258 0.21697 0.0
C308 C 0.80552 0.73447 0.21054 0.0
H309 H 0.67331 0.70521 0.22914 0.0
H310 H 0.70372 0.71409 0.20894 0.0
C311 C 0.8232 0.7451 0.20617 0.0
C312 C 0.77207 0.74202 0.22287 0.0
H313 H 0.74756 0.69903 0.26589 0.0
C314 C 0.75723 0.75489 0.20924 0.0
C315 C 0.76846 0.72156 0.2436 0.0
C316 C 0.78349 0.70795 0.26042 0.0
C317 C 0.73902 0.74902 0.21666 0.0
C318 C 0.73543 0.72862 0.23742 0.0
C319 C 0.75025 0.71469 0.24998 0.0
C320 C 0.71671 0.7233 0.24868 0.0
C321 C 0.72396 0.76594 0.20326 0.0
C322 C 0.71386 0.72486 0.27769 0.0
C323 C 0.69678 0.719 0.28915 0.0
C324 C 0.68193 0.71194 0.27193 0.0
C325 C 0.6845 0.71095 0.24282 0.0
C326 C 0.70186 0.71616 0.2313 0.0
H327 H 0.72926 0.78544 0.19355 0.0
H328 H 0.71743 0.75333 0.18653 0.0
H329 H 0.71333 0.77172 0.2188 0.0
H330 H 0.72495 0.7305 0.29163 0.0
H331 H 0.69518 0.72006 0.31167 0.0
H332 H 0.31291 0.70141 0.32111 0.0
H333 H 0.28268 0.71933 0.3092 0.0
H334 H 0.30704 0.77808 0.2518 0.0
H335 H 0.33756 0.76003 0.26355 0.0
H336 H 0.26689 0.77412 0.31102 0.0
H337 H 0.27148 0.73101 0.20314 0.0
H338 H 0.28705 0.72084 0.2306 0.0
H339 H 0.28973 0.754 0.21341 0.0
C340 C 0.31191 0.71835 0.30613 0.0
C341 C 0.32764 0.72913 0.29305 0.0
C342 C 0.29459 0.72861 0.29943 0.0
C343 C 0.29258 0.74973 0.27935 0.0
C344 C 0.30829 0.76147 0.2671 0.0
H345 H 0.19792 0.81551 0.19391 0.0
H346 H 0.22823 0.80612 0.21259 0.0
C347 C 0.32571 0.75127 0.27393 0.0
C348 C 0.27395 0.75816 0.27031 0.0
H349 H 0.2447 0.75565 0.21472 0.0
C350 C 0.26202 0.77021 0.28994 0.0
C351 C 0.26759 0.75275 0.2429 0.0
C352 C 0.27952 0.73874 0.22128 0.0
C353 C 0.24397 0.77746 0.28272 0.0
C354 C 0.23761 0.77195 0.25531 0.0
C355 C 0.24957 0.75988 0.23574 0.0
C356 C 0.21879 0.77918 0.24595 0.0
C357 C 0.23203 0.79144 0.30431 0.0
C358 C 0.20323 0.76739 0.25866 0.0
C359 C 0.18569 0.7729 0.24805 0.0
C360 C 0.1835 0.78999 0.22435 0.0
C361 C 0.19909 0.8021 0.21209 0.0
C362 C 0.21649 0.79678 0.22276 0.0
H363 H 0.24024 0.80063 0.32158 0.0
H364 H 0.22362 0.80823 0.29471 0.0
H365 H 0.22266 0.77568 0.31351 0.0
H366 H 0.20468 0.7533 0.27626 0.0
H367 H 0.17395 0.76316 0.25783 0.0
H368 H 0.33304 0.73116 0.75666 0.0
H369 H 0.30221 0.74046 0.77466 0.0
H370 H 0.27957 0.68448 0.71293 0.0
H371 H 0.31012 0.67566 0.69454 0.0
H372 H 0.26247 0.73419 0.71274 0.0
H373 H 0.26696 0.69532 0.82182 0.0
H374 H 0.28438 0.72027 0.81306 0.0
H375 H 0.28388 0.68691 0.79564 0.0
C376 C 0.32151 0.72048 0.74728 0.0
C377 C 0.32402 0.70274 0.72414 0.0
C378 C 0.30389 0.7257 0.75766 0.0
C379 C 0.28854 0.71295 0.74533 0.0
C380 C 0.29116 0.69455 0.72282 0.0
H381 H 0.16982 0.7363 0.76338 0.0
H382 H 0.19995 0.71679 0.75165 0.0
C383 C 0.30867 0.68951 0.71234 0.0
C384 C 0.26963 0.72035 0.7542 0.0
H385 H 0.24066 0.72254 0.81029 0.0
C386 C 0.25765 0.73136 0.73402 0.0
C387 C 0.26334 0.71674 0.78198 0.0
C388 C 0.27524 0.70392 0.80433 0.0
C389 C 0.23976 0.73946 0.74094 0.0
C390 C 0.23353 0.7361 0.76875 0.0
C391 C 0.24543 0.72493 0.78894 0.0
C392 C 0.21511 0.74581 0.77757 0.0
C393 C 0.22789 0.75244 0.71862 0.0
C394 C 0.21359 0.76787 0.79675 0.0
C395 C 0.19648 0.77894 0.80349 0.0
C396 C 0.18046 0.76808 0.79134 0.0
C397 C 0.1819 0.74517 0.77302 0.0
C398 C 0.1991 0.73412 0.76619 0.0
H399 H 0.23593 0.75882 0.69996 0.0
H400 H 0.21748 0.737 0.71179 0.0
H401 H 0.22061 0.77108 0.72689 0.0
H402 H 0.22572 0.77715 0.80586 0.0
H403 H 0.19588 0.79648 0.81781 0.0
H404 H 0.19592 0.1823 0.80785 0.0
H405 H 0.22659 0.1922 0.79036 0.0
H406 H 0.20359 0.239 0.72176 0.0
H407 H 0.17268 0.22937 0.73934 0.0
H408 H 0.24409 0.18216 0.73803 0.0
H409 H 0.23732 0.29549 0.76199 0.0
H410 H 0.2216 0.26966 0.77537 0.0
H411 H 0.21982 0.28134 0.73975 0.0
C412 C 0.19733 0.19452 0.78889 0.0
C413 C 0.18184 0.2053 0.77512 0.0
C414 C 0.2149 0.20008 0.77889 0.0
C415 C 0.21739 0.21666 0.75501 0.0
C416 C 0.20196 0.2265 0.74049 0.0
H417 H 0.31127 0.29448 0.67917 0.0
H418 H 0.28136 0.27509 0.69014 0.0
C419 C 0.18432 0.22087 0.75047 0.0
C420 C 0.23616 0.22474 0.74631 0.0
H421 H 0.26451 0.28108 0.73989 0.0
C422 C 0.24859 0.20378 0.73836 0.0
C423 C 0.24204 0.25291 0.74708 0.0
C424 C 0.22959 0.27619 0.75673 0.0
C425 C 0.26663 0.21036 0.73048 0.0
C426 C 0.27247 0.23859 0.73112 0.0
C427 C 0.26003 0.25945 0.7393 0.0
C428 C 0.29117 0.24742 0.72266 0.0
C429 C 0.27914 0.18715 0.72095 0.0
C430 C 0.30683 0.23792 0.73689 0.0
C431 C 0.32415 0.24887 0.73042 0.0
C432 C 0.32596 0.26979 0.70994 0.0
C433 C 0.31034 0.27854 0.69522 0.0
C434 C 0.29319 0.26746 0.70146 0.0
H435 H 0.27137 0.16812 0.71487 0.0
H436 H 0.28761 0.19394 0.70291 0.0
H437 H 0.28846 0.18143 0.73835 0.0
H438 H 0.3056 0.22285 0.7537 0.0
H439 H 0.33593 0.24189 0.74222 0.0
H440 H 0.80958 0.191 0.81576 0.0
H441 H 0.77901 0.20872 0.8053 0.0
H442 H 0.80259 0.27804 0.76027 0.0
H443 H 0.83336 0.26033 0.77055 0.0
H444 H 0.76186 0.26213 0.81593 0.0
H445 H 0.76896 0.23818 0.70261 0.0
H446 H 0.78423 0.22401 0.72866 0.0
H447 H 0.78671 0.25963 0.71731 0.0
C448 C 0.80831 0.21016 0.8038 0.0
C449 C 0.82392 0.22415 0.79377 0.0
C450 C 0.7908 0.22028 0.79792 0.0
C451 C 0.78851 0.24447 0.78172 0.0
C452 C 0.80406 0.2591 0.77251 0.0
H453 H 0.6954 0.32152 0.7023 0.0
H454 H 0.72527 0.31018 0.72173 0.0
C455 C 0.82163 0.24904 0.77849 0.0
C456 C 0.76986 0.25352 0.77345 0.0
H457 H 0.74186 0.26065 0.7168 0.0
C458 C 0.75745 0.26188 0.79426 0.0
C459 C 0.76412 0.25292 0.74522 0.0
C460 C 0.7766 0.24299 0.72211 0.0
C461 C 0.73955 0.27032 0.78748 0.0
C462 C 0.73382 0.26977 0.75919 0.0
C463 C 0.74625 0.26119 0.73847 0.0
C464 C 0.71519 0.27853 0.75017 0.0
C465 C 0.72711 0.28034 0.81056 0.0
C466 C 0.6994 0.26491 0.76006 0.0
C467 C 0.68213 0.27164 0.74913 0.0
C468 C 0.68046 0.29174 0.72782 0.0
C469 C 0.69622 0.30581 0.7186 0.0
C470 C 0.71335 0.29934 0.72968 0.0
H471 H 0.73495 0.28668 0.82944 0.0
H472 H 0.71868 0.29834 0.80354 0.0
H473 H 0.71777 0.2631 0.81666 0.0
H474 H 0.70048 0.24837 0.77544 0.0
H475 H 0.67024 0.26029 0.75646 0.0
H476 H 0.83336 0.79823 0.72939 0.0
H477 H 0.80286 0.78983 0.70907 0.0
H478 H 0.78385 0.75977 0.78909 0.0
H479 H 0.81366 0.7696 0.8095 0.0
H480 H 0.78142 0.74702 0.70119 0.0
H481 H 0.74573 0.81653 0.77486 0.0
H482 H 0.77032 0.81543 0.7727 0.0
H483 H 0.75808 0.79069 0.79425 0.0
C484 C 0.82262 0.78973 0.74245 0.0
C485 C 0.82572 0.7849 0.77104 0.0
C486 C 0.8052 0.78504 0.73092 0.0
C487 C 0.79079 0.77514 0.7478 0.0
C488 C 0.7944 0.76863 0.77589 0.0
H489 H 0.69575 0.68249 0.70421 0.0
H490 H 0.72621 0.70127 0.71189 0.0
C491 C 0.81153 0.77393 0.78748 0.0
C492 C 0.77198 0.77112 0.73643 0.0
H493 H 0.72704 0.78063 0.75325 0.0
C494 C 0.76954 0.75477 0.71231 0.0
C495 C 0.75635 0.78199 0.75021 0.0
C496 C 0.75779 0.80241 0.77422 0.0
C497 C 0.75198 0.74748 0.70278 0.0
C498 C 0.73642 0.75575 0.71847 0.0
C499 C 0.73886 0.77365 0.74147 0.0
C500 C 0.71771 0.74468 0.71266 0.0
C501 C 0.7504 0.73105 0.67594 0.0
C502 C 0.70241 0.76258 0.71181 0.0
C503 C 0.68474 0.75169 0.70833 0.0
C504 C 0.68207 0.72274 0.70529 0.0
C505 C 0.69736 0.70495 0.70604 0.0
C506 C 0.71489 0.71573 0.71011 0.0
H507 H 0.76172 0.73636 0.66138 0.0
H508 H 0.75147 0.70838 0.68065 0.0
H509 H 0.73721 0.73506 0.66517 0.0
H510 H 0.70413 0.78498 0.714 0.0
H511 H 0.6732 0.76589 0.70787 0.0
H512 H 0.11449 0.19583 0.89534 0.0
H513 H 0.11519 0.2099 0.94428 0.0
H514 H 0.14978 0.27994 0.9234 0.0
H515 H 0.14901 0.26594 0.87388 0.0
H516 H 0.1641 0.24406 0.96476 0.0
H517 H 0.09323 0.27347 0.99114 0.0
H518 H 0.09389 0.24173 0.97114 0.0
H519 H 0.10182 0.27388 0.95565 0.0
C520 C 0.12189 0.21462 0.901 0.0
C521 C 0.13175 0.22974 0.88085 0.0
C522 C 0.12216 0.22279 0.92898 0.0
C523 C 0.13233 0.24619 0.93743 0.0
C524 C 0.14167 0.26202 0.91722 0.0
H525 H 0.1308 0.24592 0.12213 0.0
H526 H 0.13333 0.26905 0.07625 0.0
C527 C 0.1412 0.25402 0.889 0.0
C528 C 0.13507 0.25114 0.96773 0.0
H529 H 0.11099 0.25186 0.02881 0.0
C530 C 0.1526 0.24674 0.97883 0.0
C531 C 0.12014 0.25504 0.98609 0.0
C532 C 0.10124 0.2616 0.97536 0.0
C533 C 0.15519 0.24303 0.00767 0.0
C534 C 0.13987 0.2436 0.02566 0.0
C535 C 0.12271 0.25111 0.01492 0.0
C536 C 0.14064 0.23125 0.05401 0.0
C537 C 0.1741 0.23666 0.01847 0.0
C538 C 0.14396 0.20248 0.05658 0.0
C539 C 0.14225 0.18926 0.08241 0.0
C540 C 0.1373 0.20458 0.10632 0.0
C541 C 0.13473 0.23366 0.10405 0.0
C542 C 0.13615 0.24687 0.07793 0.0
H543 H 0.18476 0.24585 0.0047 0.0
H544 H 0.17598 0.24476 0.04007 0.0
H545 H 0.17612 0.21365 0.01883 0.0
H546 H 0.14713 0.18996 0.03831 0.0
H547 H 0.14441 0.16686 0.08354 0.0
H548 H 0.89945 0.18458 0.91128 0.0
H549 H 0.89536 0.20584 0.95696 0.0
H550 H 0.85351 0.25995 0.92366 0.0
H551 H 0.85736 0.23834 0.87732 0.0
H552 H 0.89811 0.26266 0.97473 0.0
H553 H 0.82825 0.21796 0.98918 0.0
H554 H 0.8433 0.20539 0.96204 0.0
H555 H 0.83278 0.23913 0.95881 0.0
C556 C 0.88937 0.20104 0.91345 0.0
C557 C 0.87858 0.2095 0.89062 0.0
C558 C 0.88714 0.21332 0.93963 0.0
C559 C 0.87406 0.23431 0.94375 0.0
C560 C 0.86357 0.24356 0.92094 0.0
H561 H 0.85425 0.26223 0.12462 0.0
H562 H 0.85393 0.2771 0.07521 0.0
C563 C 0.86584 0.23126 0.89449 0.0
C564 C 0.87111 0.24481 0.97256 0.0
H565 H 0.84363 0.23354 0.02916 0.0
C566 C 0.88596 0.25715 0.98651 0.0
C567 C 0.85521 0.23769 0.98785 0.0
C568 C 0.83893 0.22422 0.9739 0.0
C569 C 0.88597 0.26016 0.0157 0.0
C570 C 0.8708 0.25056 0.03118 0.0
C571 C 0.85523 0.24088 0.01708 0.0
C572 C 0.87238 0.24456 0.0614 0.0
C573 C 0.90272 0.27162 0.03003 0.0
C574 C 0.88292 0.22156 0.06977 0.0
C575 C 0.88288 0.21282 0.09756 0.0
C576 C 0.87245 0.22714 0.11762 0.0
C577 C 0.86251 0.25098 0.10954 0.0
C578 C 0.86228 0.25944 0.08143 0.0
H579 H 0.91102 0.2847 0.01561 0.0
H580 H 0.89887 0.28431 0.04859 0.0
H581 H 0.91134 0.25395 0.0373 0.0
H582 H 0.89064 0.20964 0.05452 0.0
H583 H 0.89069 0.19442 0.10317 0.0
H584 H 0.86774 0.73161 0.8729 0.0
H585 H 0.86741 0.717 0.9224 0.0
H586 H 0.87751 0.80223 0.94757 0.0
H587 H 0.87795 0.81686 0.89883 0.0
H588 H 0.89695 0.73046 0.96864 0.0
H589 H 0.82764 0.77371 0.98643 0.0
H590 H 0.83561 0.7626 0.95236 0.0
H591 H 0.84229 0.79608 0.96614 0.0
C592 C 0.87011 0.74709 0.88905 0.0
C593 C 0.87275 0.7754 0.88203 0.0
C594 C 0.86986 0.73874 0.91721 0.0
C595 C 0.87216 0.75868 0.93848 0.0
C596 C 0.87548 0.78664 0.93139 0.0
H597 H 0.90547 0.80564 0.0907 0.0
H598 H 0.90167 0.78417 0.04504 0.0
C599 C 0.87578 0.79493 0.9035 0.0
C600 C 0.87085 0.75125 0.96841 0.0
H601 H 0.84748 0.77147 0.02665 0.0
C602 C 0.88588 0.73855 0.98139 0.0
C603 C 0.85625 0.76135 0.98491 0.0
C604 C 0.83942 0.77398 0.97177 0.0
C605 C 0.88753 0.7384 0.01068 0.0
C606 C 0.87395 0.75169 0.02708 0.0
C607 C 0.858 0.76153 0.01411 0.0
C608 C 0.87751 0.76055 0.0563 0.0
C609 C 0.90427 0.72543 0.02369 0.0
C610 C 0.8651 0.75461 0.07794 0.0
C611 C 0.86721 0.76709 0.10432 0.0
C612 C 0.88154 0.78613 0.10915 0.0
C613 C 0.89421 0.79124 0.08765 0.0
C614 C 0.89221 0.77864 0.06157 0.0
H615 H 0.90918 0.70745 0.011 0.0
H616 H 0.91541 0.74118 0.02431 0.0
H617 H 0.90154 0.71817 0.04536 0.0
H618 H 0.85352 0.74102 0.07418 0.0
H619 H 0.8572 0.76279 0.12046 0.0
H620 H 0.14031 0.73034 0.1253 0.0
H621 H 0.14055 0.71588 0.07582 0.0
H622 H 0.12549 0.79955 0.05129 0.0
H623 H 0.12515 0.81407 0.10015 0.0
H624 H 0.10998 0.72559 0.02997 0.0
H625 H 0.17679 0.77744 0.0121 0.0
H626 H 0.16943 0.76554 0.04621 0.0
H627 H 0.1608 0.79781 0.03214 0.0
C628 C 0.1368 0.74548 0.10933 0.0
C629 C 0.13285 0.77339 0.11656 0.0
C630 C 0.13698 0.73721 0.08116 0.0
C631 C 0.13328 0.7568 0.06005 0.0
C632 C 0.12857 0.78425 0.06736 0.0
H633 H 0.09979 0.79679 0.90519 0.0
H634 H 0.10323 0.77574 0.95114 0.0
C635 C 0.12835 0.79248 0.0953 0.0
C636 C 0.13489 0.74958 0.03011 0.0
H637 H 0.15769 0.77098 0.97177 0.0
C638 C 0.12067 0.73475 0.01719 0.0
C639 C 0.14903 0.76109 0.0136 0.0
C640 C 0.165 0.77617 0.02669 0.0
C641 C 0.11935 0.73351 0.98789 0.0
C642 C 0.1324 0.74784 0.97135 0.0
C643 C 0.14759 0.76015 0.98438 0.0
C644 C 0.12885 0.75512 0.94169 0.0
C645 C 0.10348 0.71811 0.97494 0.0
C646 C 0.14206 0.75042 0.92084 0.0
C647 C 0.14012 0.76261 0.89431 0.0
C648 C 0.12515 0.78013 0.88858 0.0
C649 C 0.11154 0.78354 0.90904 0.0
C650 C 0.11338 0.77119 0.93527 0.0
H651 H 0.09941 0.69997 0.98808 0.0
H652 H 0.09156 0.73239 0.97359 0.0
H653 H 0.10682 0.71055 0.95357 0.0
H654 H 0.15423 0.73837 0.92548 0.0
H655 H 0.15085 0.75974 0.87895 0.0
H656 H 0.08588 0.23126 0.22177 0.0
H657 H 0.05489 0.24748 0.23398 0.0
H658 H 0.03292 0.1679 0.20794 0.0
H659 H 0.06319 0.15146 0.19696 0.0
H660 H 0.02604 0.25551 0.20182 0.0
H661 H 0.00562 0.17657 0.27875 0.0
H662 H 0.0292 0.18104 0.26855 0.0
H663 H 0.01421 0.15838 0.2488 0.0
C664 C 0.07445 0.21708 0.21928 0.0
C665 C 0.07718 0.19002 0.20838 0.0
C666 C 0.05673 0.22639 0.22619 0.0
C667 C 0.0415 0.2087 0.22256 0.0
C668 C 0.04436 0.1817 0.21198 0.0
H669 H 0.9412 0.22241 0.15094 0.0
H670 H 0.97186 0.23095 0.16771 0.0
C671 C 0.06185 0.17242 0.20531 0.0
C672 C 0.02233 0.21852 0.22699 0.0
H673 H 0.98082 0.19323 0.24761 0.0
C674 C 0.01621 0.24233 0.21253 0.0
C675 C 0.00938 0.20217 0.24181 0.0
C676 C 0.01504 0.17834 0.26061 0.0
C677 C 0.99744 0.24826 0.2099 0.0
C678 C 0.98441 0.22933 0.22109 0.0
C679 C 0.99062 0.20744 0.23825 0.0
C680 C 0.9649 0.22904 0.21173 0.0
C681 C 0.99184 0.27434 0.19435 0.0
C682 C 0.95039 0.22492 0.23071 0.0
C683 C 0.93259 0.21938 0.22099 0.0
C684 C 0.92905 0.21764 0.19211 0.0
C685 C 0.94337 0.22347 0.17334 0.0
C686 C 0.96102 0.22878 0.18297 0.0
H687 H 1.00151 0.29171 0.19882 0.0
H688 H 0.9924 0.2703 0.1715 0.0
H689 H 0.97783 0.28119 0.20005 0.0
H690 H 0.95298 0.22479 0.25302 0.0
H691 H 0.92192 0.21482 0.23602 0.0
H692 H 0.86273 0.8724 0.26636 0.0
H693 H 0.86312 0.92184 0.28096 0.0
H694 H 0.89123 0.94366 0.20472 0.0
H695 H 0.89087 0.89487 0.19011 0.0
H696 H 0.90487 0.96994 0.25703 0.0
H697 H 0.82985 0.98107 0.23895 0.0
H698 H 0.83841 0.95337 0.26093 0.0
H699 H 0.84238 0.9522 0.22395 0.0
C700 C 0.86924 0.88775 0.25299 0.0
C701 C 0.87666 0.87986 0.22701 0.0
C702 C 0.86937 0.91592 0.26129 0.0
C703 C 0.87707 0.93634 0.24378 0.0
C704 C 0.88522 0.92819 0.21852 0.0
H705 H 0.89271 0.08339 0.17249 0.0
H706 H 0.89124 0.03827 0.19537 0.0
C707 C 0.88496 0.90029 0.21016 0.0
C708 C 0.87587 0.96659 0.25012 0.0
H709 H 0.84749 0.02211 0.23868 0.0
C710 C 0.89222 0.98141 0.25406 0.0
C711 C 0.85933 0.98147 0.2464 0.0
C712 C 0.84142 0.9664 0.24228 0.0
C713 C 0.89272 0.01063 0.25169 0.0
C714 C 0.87653 0.02524 0.24485 0.0
C715 C 0.85987 0.01077 0.24388 0.0
C716 C 0.87743 0.05349 0.23234 0.0
C717 C 0.91081 0.0255 0.25422 0.0
C718 C 0.86977 0.07706 0.24538 0.0
C719 C 0.87059 0.10333 0.23224 0.0
C720 C 0.87886 0.10617 0.20575 0.0
C721 C 0.88628 0.08225 0.19287 0.0
C722 C 0.88555 0.05632 0.20598 0.0
H723 H 0.92051 0.0135 0.26748 0.0
H724 H 0.91697 0.02771 0.23311 0.0
H725 H 0.90902 0.04676 0.26322 0.0
H726 H 0.86326 0.07513 0.26564 0.0
H727 H 0.86468 0.12128 0.2427 0.0
H728 H 0.92441 0.75747 0.20846 0.0
H729 H 0.95542 0.74004 0.21819 0.0
H730 H 0.97188 0.82315 0.2428 0.0
H731 H 0.94123 0.84031 0.2336 0.0
H732 H 0.98447 0.7573 0.18904 0.0
H733 H 0.99914 0.77853 0.29976 0.0
H734 H 0.97605 0.77748 0.28637 0.0
H735 H 0.98938 0.80921 0.28432 0.0
C736 C 0.93449 0.77169 0.21703 0.0
C737 C 0.93041 0.80026 0.22023 0.0
C738 C 0.95223 0.76177 0.22243 0.0
C739 C 0.96602 0.78017 0.23157 0.0
C740 C 0.9615 0.80829 0.2365 0.0
H741 H 0.06676 0.83514 0.19664 0.0
H742 H 0.03636 0.82155 0.21253 0.0
C743 C 0.94393 0.81817 0.23098 0.0
C744 C 0.98564 0.7718 0.2317 0.0
H745 H 0.02532 0.78427 0.26733 0.0
C746 C 0.99335 0.76211 0.20655 0.0
C747 C 0.99734 0.77788 0.25453 0.0
C748 C 0.98997 0.78605 0.28283 0.0
C749 C 0.01239 0.76126 0.20274 0.0
C750 C 0.024 0.7703 0.22458 0.0
C751 C 0.01639 0.77748 0.25054 0.0
C752 C 0.04325 0.77802 0.21876 0.0
C753 C 0.02002 0.75313 0.17458 0.0
C754 C 0.05737 0.75809 0.2177 0.0
C755 C 0.075 0.76595 0.2089 0.0
C756 C 0.07848 0.79368 0.20061 0.0
C757 C 0.06443 0.81359 0.20275 0.0
C758 C 0.04707 0.80589 0.21189 0.0
H759 H 0.00932 0.74478 0.16035 0.0
H760 H 0.0264 0.7717 0.16459 0.0
H761 H 0.03084 0.73706 0.17721 0.0
H762 H 0.05462 0.73642 0.22284 0.0
H763 H 0.08559 0.7502 0.20724 0.0
H764 H 0.11868 0.1006 0.18987 0.0
H765 H 0.11823 0.05202 0.20522 0.0
H766 H 0.14557 0.07519 0.28175 0.0
H767 H 0.14588 0.12435 0.2665 0.0
H768 H 0.16324 0.03262 0.24957 0.0
H769 H 0.09032 0.00741 0.26562 0.0
H770 H 0.09389 0.02691 0.234 0.0
H771 H 0.09905 0.04279 0.26725 0.0
C772 C 0.12424 0.09552 0.21024 0.0
C773 C 0.13237 0.1162 0.22695 0.0
C774 C 0.12384 0.06776 0.2191 0.0
C775 C 0.13165 0.06007 0.24478 0.0
C776 C 0.13927 0.0808 0.26201 0.0
H777 H 0.12931 0.87558 0.24863 0.0
H778 H 0.13095 0.92169 0.27157 0.0
C779 C 0.13944 0.1088 0.25329 0.0
C780 C 0.13385 0.02998 0.2512 0.0
H781 H 0.10962 0.96909 0.24911 0.0
C782 C 0.15155 0.01869 0.25049 0.0
C783 C 0.11863 0.01183 0.25278 0.0
C784 C 0.0994 0.02288 0.25526 0.0
C785 C 0.15429 0.98974 0.24809 0.0
C786 C 0.13896 0.97186 0.24629 0.0
C787 C 0.12137 0.98289 0.25024 0.0
C788 C 0.14055 0.94333 0.23462 0.0
C789 C 0.17349 0.97863 0.24545 0.0
C790 C 0.14552 0.94036 0.20645 0.0
C791 C 0.14429 0.91443 0.19331 0.0
C792 C 0.13824 0.89085 0.20817 0.0
C793 C 0.13416 0.89344 0.23681 0.0
C794 C 0.13505 0.91968 0.24988 0.0
H795 H 0.18348 0.99273 0.25583 0.0
H796 H 0.17465 0.95738 0.25469 0.0
H797 H 0.17717 0.97727 0.22296 0.0
H798 H 0.14949 0.95844 0.1942 0.0
H799 H 0.14754 0.91298 0.17124 0.0
H800 H 0.94367 0.81694 0.84102 0.0
H801 H 0.97386 0.80491 0.82447 0.0
H802 H 0.95044 0.76082 0.75437 0.0
H803 H 0.91959 0.77356 0.77063 0.0
H804 H 0.98991 0.75424 0.81653 0.0
H805 H 0.98667 0.81328 0.71613 0.0
H806 H 0.96968 0.81784 0.74309 0.0
H807 H 0.96981 0.78659 0.72228 0.0
C808 C 0.94472 0.80463 0.82206 0.0
C809 C 0.92903 0.79638 0.80712 0.0
C810 C 0.96213 0.79767 0.81264 0.0
C811 C 0.96453 0.78211 0.78806 0.0
C812 C 0.94897 0.77323 0.77318 0.0
H813 H 0.0845 0.76113 0.78034 0.0
H814 H 0.05322 0.74478 0.77094 0.0
C815 C 0.93134 0.7804 0.78258 0.0
C816 C 0.98355 0.77628 0.77857 0.0
H817 H 0.01545 0.7986 0.73138 0.0
C818 C 0.9955 0.76332 0.79757 0.0
C819 C 0.99078 0.78801 0.75374 0.0
C820 C 0.97867 0.80235 0.73259 0.0
C821 C 0.01455 0.76428 0.79396 0.0
C822 C 0.0219 0.77779 0.77007 0.0
C823 C 0.00984 0.78829 0.74968 0.0
C824 C 0.04149 0.78636 0.76887 0.0
C825 C 0.02657 0.75313 0.81711 0.0
C826 C 0.04561 0.81502 0.7685 0.0
C827 C 0.06339 0.82431 0.7733 0.0
C828 C 0.07757 0.8052 0.77875 0.0
C829 C 0.07386 0.77639 0.77642 0.0
C830 C 0.05594 0.76704 0.77138 0.0
H831 H 0.0186 0.74714 0.83597 0.0
H832 H 0.03392 0.73428 0.80962 0.0
H833 H 0.03687 0.769 0.82338 0.0
H834 H 0.03483 0.83042 0.76638 0.0
H835 H 0.06579 0.84666 0.77447 0.0
H836 H 0.12394 0.89477 0.81777 0.0
H837 H 0.12443 0.94422 0.80561 0.0
H838 H 0.1456 0.9242 0.72386 0.0
H839 H 0.14511 0.87405 0.7359 0.0
H840 H 0.16032 0.97181 0.78449 0.0
H841 H 0.09898 0.98135 0.71597 0.0
H842 H 0.10001 0.95431 0.74232 0.0
H843 H 0.11465 0.95237 0.71235 0.0
C844 C 0.12854 0.90072 0.79707 0.0
C845 C 0.13456 0.88052 0.77782 0.0
C846 C 0.12881 0.92901 0.79019 0.0
C847 C 0.13509 0.93775 0.76392 0.0
C848 C 0.14066 0.91773 0.74421 0.0
H849 H 0.15009 0.12141 0.76642 0.0
H850 H 0.15466 0.07411 0.74742 0.0
C851 C 0.14035 0.88919 0.75111 0.0
C852 C 0.1365 0.96808 0.75843 0.0
H853 H 0.11119 0.02309 0.73469 0.0
C854 C 0.14996 0.98315 0.77287 0.0
C855 C 0.12289 0.98255 0.74333 0.0
C856 C 0.10825 0.967 0.7275 0.0
C857 C 0.14934 0.01244 0.77445 0.0
C858 C 0.13496 0.02691 0.76098 0.0
C859 C 0.12226 0.0119 0.74482 0.0
C860 C 0.13097 0.05645 0.76796 0.0
C861 C 0.16314 0.02748 0.7925 0.0
C862 C 0.11581 0.06228 0.7849 0.0
C863 C 0.11323 0.08901 0.79582 0.0
C864 C 0.1257 0.11058 0.78988 0.0
C865 C 0.14028 0.10519 0.77145 0.0
C866 C 0.14294 0.07822 0.76064 0.0
H867 H 0.17243 0.01279 0.80356 0.0
H868 H 0.17156 0.04154 0.77927 0.0
H869 H 0.15605 0.04059 0.80832 0.0
H870 H 0.10642 0.04576 0.79081 0.0
H871 H 0.10171 0.09253 0.80963 0.0
H872 H 0.08402 0.20774 0.75838 0.0
H873 H 0.05301 0.21552 0.74021 0.0
H874 H 0.03671 0.24939 0.82002 0.0
H875 H 0.06742 0.24154 0.83818 0.0
H876 H 0.02457 0.18661 0.76668 0.0
H877 H 0.00896 0.29973 0.76499 0.0
H878 H 0.03208 0.28634 0.76425 0.0
H879 H 0.01988 0.28895 0.79684 0.0
C880 C 0.07401 0.21795 0.77161 0.0
C881 C 0.0781 0.22399 0.7997 0.0
C882 C 0.05628 0.22226 0.76126 0.0
C883 C 0.04254 0.23323 0.77867 0.0
C884 C 0.0471 0.24142 0.80599 0.0
H885 H 0.93139 0.22833 0.81887 0.0
H886 H 0.96291 0.24223 0.80884 0.0
C887 C 0.06467 0.23678 0.81641 0.0
C888 C 0.02295 0.23134 0.77065 0.0
H889 H 0.9831 0.26859 0.7702 0.0
C890 C 0.01551 0.20458 0.76668 0.0
C891 C 0.01116 0.25478 0.77099 0.0
C892 C 0.01845 0.2841 0.77424 0.0
C893 C 0.99654 0.20033 0.76518 0.0
C894 C 0.98461 0.2237 0.76667 0.0
C895 C 0.99216 0.25067 0.769 0.0
C896 C 0.96444 0.22014 0.76933 0.0
C897 C 0.98954 0.1706 0.76424 0.0
C898 C 0.95438 0.2044 0.74977 0.0
C899 C 0.93644 0.19606 0.75578 0.0
C900 C 0.92808 0.20428 0.78089 0.0
C901 C 0.93749 0.22219 0.79914 0.0
C902 C 0.95552 0.23003 0.79344 0.0
H903 H 1.00033 0.15517 0.76966 0.0
H904 H 0.97794 0.1677 0.77894 0.0
H905 H 0.98471 0.16577 0.74278 0.0
H906 H 0.96075 0.19717 0.73065 0.0
H907 H 0.92947 0.18195 0.7416 0.0
H908 H 0.85635 0.91496 0.82734 0.0
H909 H 0.85484 0.96059 0.80475 0.0
H910 H 0.87529 0.92466 0.72812 0.0
H911 H 0.87662 0.87839 0.75075 0.0
H912 H 0.89588 0.97099 0.74963 0.0
H913 H 0.8224 0.99671 0.74404 0.0
H914 H 0.82844 0.98207 0.77736 0.0
H915 H 0.8307 0.96112 0.74623 0.0
C916 C 0.8601 0.9166 0.80546 0.0
C917 C 0.86663 0.8932 0.79079 0.0
C918 C 0.85911 0.94266 0.79251 0.0
C919 C 0.86476 0.94596 0.76467 0.0
C920 C 0.87068 0.92244 0.74953 0.0
H921 H 0.85985 0.12691 0.73264 0.0
H922 H 0.85942 0.07754 0.71814 0.0
C923 C 0.87137 0.89608 0.76243 0.0
C924 C 0.86662 0.97465 0.75334 0.0
H925 H 0.84312 0.03617 0.75051 0.0
C926 C 0.8843 0.98515 0.74887 0.0
C927 C 0.85152 0.99303 0.75193 0.0
C928 C 0.83217 0.98258 0.75485 0.0
C929 C 0.88739 0.014 0.74604 0.0
C930 C 0.87245 0.03267 0.74799 0.0
C931 C 0.85463 0.02189 0.74937 0.0
C932 C 0.87512 0.0629 0.75361 0.0
C933 C 0.90674 0.02432 0.74259 0.0
C934 C 0.88422 0.07102 0.77814 0.0
C935 C 0.88433 0.09895 0.78653 0.0
C936 C 0.87535 0.1194 0.77055 0.0
C937 C 0.86697 0.11157 0.74526 0.0
C938 C 0.8667 0.08343 0.73698 0.0
H939 H 0.91525 0.00865 0.7314 0.0
H940 H 0.90718 0.04441 0.73094 0.0
H941 H 0.91289 0.02764 0.76356 0.0
H942 H 0.89044 0.05551 0.79166 0.0
H943 H 0.8909 0.10432 0.80612 0.0
H944 H 0.63989 0.76478 0.37416 0.0
H945 H 0.64003 0.77811 0.42401 0.0
H946 H 0.62814 0.69277 0.4468 0.0
H947 H 0.62787 0.67938 0.39767 0.0
H948 H 0.6096 0.76403 0.46956 0.0
H949 H 0.67856 0.71901 0.48677 0.0
H950 H 0.67086 0.73139 0.45299 0.0
H951 H 0.66368 0.69774 0.46567 0.0
C952 C 0.63708 0.74901 0.38985 0.0
C953 C 0.63398 0.72101 0.38205 0.0
C954 C 0.63722 0.75663 0.41822 0.0
C955 C 0.63434 0.73628 0.43892 0.0
C956 C 0.63058 0.70866 0.43105 0.0
H957 H 0.60131 0.68943 0.59282 0.0
H958 H 0.60496 0.70981 0.54661 0.0
C959 C 0.6304 0.70108 0.40295 0.0
C960 C 0.63559 0.74293 0.46902 0.0
H961 H 0.65891 0.72179 0.52699 0.0
C962 C 0.62062 0.75562 0.4822 0.0
C963 C 0.65012 0.73235 0.48536 0.0
C964 C 0.66682 0.71956 0.47202 0.0
C965 C 0.61902 0.75553 0.51148 0.0
C966 C 0.63259 0.74201 0.52771 0.0
C967 C 0.64842 0.73194 0.51457 0.0
C968 C 0.62922 0.73353 0.55709 0.0
C969 C 0.60238 0.7686 0.52469 0.0
C970 C 0.64175 0.73988 0.57844 0.0
C971 C 0.63974 0.72805 0.60511 0.0
C972 C 0.62536 0.70926 0.61058 0.0
C973 C 0.6126 0.70365 0.58931 0.0
C974 C 0.61453 0.71562 0.56291 0.0
H975 H 0.59735 0.78648 0.51197 0.0
H976 H 0.59126 0.75284 0.52569 0.0
H977 H 0.60529 0.77605 0.54624 0.0
H978 H 0.65334 0.75336 0.57425 0.0
H979 H 0.64982 0.73272 0.62104 0.0
H980 H 0.35756 0.76748 0.62479 0.0
H981 H 0.35748 0.78333 0.57568 0.0
H982 H 0.38677 0.70887 0.55163 0.0
H983 H 0.38679 0.69289 0.60002 0.0
H984 H 0.39703 0.77455 0.52975 0.0
H985 H 0.32841 0.7273 0.51197 0.0
H986 H 0.33423 0.74514 0.54412 0.0
H987 H 0.34331 0.71099 0.53723 0.0
C988 C 0.36422 0.75478 0.60903 0.0
C989 C 0.3721 0.72888 0.61618 0.0
C990 C 0.36414 0.76383 0.5811 0.0
C991 C 0.37209 0.74717 0.56022 0.0
C992 C 0.38059 0.72197 0.56755 0.0
H993 H 0.40552 0.69689 0.40964 0.0
H994 H 0.40156 0.71941 0.45478 0.0
C995 C 0.38055 0.71286 0.59521 0.0
C996 C 0.37074 0.75435 0.53026 0.0
H997 H 0.34745 0.73318 0.47227 0.0
C998 C 0.38592 0.76644 0.51709 0.0
C999 C 0.35616 0.74399 0.51392 0.0
C1000 C 0.3395 0.7312 0.52738 0.0
C1001 C 0.3876 0.76611 0.48783 0.0
C1002 C 0.37398 0.75273 0.47161 0.0
C1003 C 0.35795 0.74331 0.48469 0.0
C1004 C 0.37765 0.74317 0.44263 0.0
C1005 C 0.40446 0.77862 0.47469 0.0
C1006 C 0.36546 0.74891 0.42064 0.0
C1007 C 0.36768 0.73587 0.39455 0.0
C1008 C 0.38189 0.71647 0.39039 0.0
C1009 C 0.39437 0.71159 0.4122 0.0
C1010 C 0.39226 0.72476 0.43798 0.0
H1011 H 0.40941 0.79679 0.48706 0.0
H1012 H 0.41552 0.76274 0.47446 0.0
H1013 H 0.40182 0.7855 0.45286 0.0
H1014 H 0.35394 0.76276 0.42393 0.0
H1015 H 0.35781 0.73992 0.37816 0.0
H1016 H 0.389 0.3052 0.40067 0.0
H1017 H 0.38993 0.28901 0.44891 0.0
H1018 H 0.36183 0.21329 0.42523 0.0
H1019 H 0.36102 0.22942 0.37632 0.0
H1020 H 0.34484 0.24464 0.46867 0.0
H1021 H 0.41789 0.22807 0.49219 0.0
H1022 H 0.41438 0.25998 0.47317 0.0
H1023 H 0.40889 0.22701 0.45695 0.0
C1024 C 0.38337 0.28482 0.40554 0.0
C1025 C 0.37488 0.2686 0.3848 0.0
C1026 C 0.38405 0.27547 0.43311 0.0
C1027 C 0.37618 0.24977 0.44058 0.0
C1028 C 0.36819 0.23302 0.41978 0.0
H1029 H 0.38023 0.24835 0.62501 0.0
H1030 H 0.37843 0.22433 0.57943 0.0
C1031 C 0.36774 0.24224 0.39193 0.0
C1032 C 0.37425 0.24298 0.47064 0.0
H1033 H 0.39907 0.24537 0.53096 0.0
C1034 C 0.35667 0.24372 0.48233 0.0
C1035 C 0.38963 0.24137 0.48846 0.0
C1036 C 0.40875 0.23876 0.477 0.0
C1037 C 0.35421 0.24632 0.51133 0.0
C1038 C 0.36972 0.2483 0.52883 0.0
C1039 C 0.38718 0.24414 0.51745 0.0
C1040 C 0.36843 0.26063 0.55713 0.0
C1041 C 0.33512 0.24908 0.52283 0.0
C1042 C 0.36336 0.28881 0.55954 0.0
C1043 C 0.36469 0.30255 0.58514 0.0
C1044 C 0.37096 0.28832 0.60896 0.0
C1045 C 0.37524 0.2597 0.60694 0.0
C1046 C 0.37424 0.24601 0.58101 0.0
H1047 H 0.32503 0.23826 0.50922 0.0
H1048 H 0.3342 0.24037 0.54433 0.0
H1049 H 0.33135 0.27156 0.52368 0.0
H1050 H 0.35915 0.30059 0.54126 0.0
H1051 H 0.36123 0.32457 0.58613 0.0
H1052 H 0.6343 0.25239 0.37342 0.0
H1053 H 0.63663 0.22997 0.41976 0.0
H1054 H 0.63536 0.3111 0.45908 0.0
H1055 H 0.63294 0.33349 0.41356 0.0
H1056 H 0.66508 0.26297 0.47597 0.0
H1057 H 0.59049 0.24014 0.48138 0.0
H1058 H 0.60356 0.23471 0.44974 0.0
H1059 H 0.59815 0.26956 0.46083 0.0
C1060 C 0.63471 0.26539 0.39197 0.0
C1061 C 0.63327 0.29471 0.38982 0.0
C1062 C 0.63602 0.25257 0.41833 0.0
C1063 C 0.63612 0.26898 0.44267 0.0
C1064 C 0.63529 0.29815 0.44046 0.0
H1065 H 0.62024 0.31119 0.60091 0.0
H1066 H 0.62028 0.29675 0.55207 0.0
C1067 C 0.63383 0.31088 0.41439 0.0
C1068 C 0.63618 0.25656 0.47095 0.0
H1069 H 0.60637 0.24433 0.5244 0.0
C1070 C 0.65241 0.25768 0.4865 0.0
C1071 C 0.61958 0.2499 0.48446 0.0
C1072 C 0.60188 0.24834 0.46837 0.0
C1073 C 0.65217 0.25485 0.51575 0.0
C1074 C 0.63527 0.2509 0.52954 0.0
C1075 C 0.61931 0.24723 0.5137 0.0
C1076 C 0.63339 0.25693 0.55976 0.0
C1077 C 0.66968 0.25887 0.53194 0.0
C1078 C 0.64036 0.23893 0.58037 0.0
C1079 C 0.64025 0.24712 0.60857 0.0
C1080 C 0.63336 0.2735 0.61628 0.0
C1081 C 0.62574 0.29083 0.59564 0.0
C1082 C 0.62569 0.28257 0.56771 0.0
H1083 H 0.68165 0.26207 0.51801 0.0
H1084 H 0.66839 0.27727 0.546 0.0
H1085 H 0.67227 0.24025 0.54522 0.0
H1086 H 0.64632 0.21901 0.57457 0.0
H1087 H 0.64622 0.23338 0.6241 0.0
H1088 H 0.57373 0.6727 0.75635 0.0
H1089 H 0.54204 0.68698 0.76495 0.0
H1090 H 0.54544 0.74539 0.69631 0.0
H1091 H 0.57749 0.73244 0.68905 0.0
H1092 H 0.5219 0.76443 0.73428 0.0
H1093 H 0.50624 0.65278 0.71259 0.0
H1094 H 0.51974 0.65774 0.74346 0.0
H1095 H 0.529 0.66674 0.70971 0.0
C1096 C 0.5679 0.68948 0.74399 0.0
C1097 C 0.57799 0.70164 0.72218 0.0
C1098 C 0.54972 0.69732 0.74858 0.0
C1099 C 0.54109 0.71648 0.73057 0.0
C1100 C 0.55169 0.7304 0.71036 0.0
H1101 H 0.43788 0.7408 0.6579 0.0
H1102 H 0.46881 0.74758 0.67606 0.0
C1103 C 0.57005 0.72313 0.7063 0.0
C1104 C 0.52079 0.71953 0.73039 0.0
H1105 H 0.48133 0.68241 0.72061 0.0
C1106 C 0.51303 0.74645 0.73158 0.0
C1107 C 0.50913 0.69611 0.72648 0.0
C1108 C 0.51642 0.66677 0.7227 0.0
C1109 C 0.49407 0.75054 0.72853 0.0
C1110 C 0.48258 0.72715 0.72444 0.0
C1111 C 0.49019 0.70026 0.72421 0.0
C1112 C 0.46301 0.72988 0.71674 0.0
C1113 C 0.48643 0.77981 0.72909 0.0
C1114 C 0.4493 0.71853 0.73392 0.0
C1115 C 0.43147 0.71502 0.7237 0.0
C1116 C 0.42727 0.72216 0.6959 0.0
C1117 C 0.44072 0.73524 0.67945 0.0
C1118 C 0.45839 0.73919 0.68983 0.0
H1119 H 0.49621 0.79491 0.73847 0.0
H1120 H 0.48345 0.78661 0.70736 0.0
H1121 H 0.47343 0.78043 0.74107 0.0
H1122 H 0.45265 0.71089 0.75463 0.0
H1123 H 0.42146 0.70454 0.7367 0.0
H1124 H 0.36196 0.62174 0.73791 0.0
H1125 H 0.36063 0.5754 0.76019 0.0
H1126 H 0.39884 0.54365 0.69927 0.0
H1127 H 0.40046 0.58925 0.67735 0.0
H1128 H 0.34913 0.52649 0.73521 0.0
H1129 H 0.42009 0.51279 0.77094 0.0
H1130 H 0.41074 0.54677 0.76252 0.0
H1131 H 0.4199 0.52462 0.73537 0.0
C1132 C 0.37028 0.60495 0.72955 0.0
C1133 C 0.3813 0.60927 0.70579 0.0
C1134 C 0.36952 0.57854 0.74234 0.0
C1135 C 0.37997 0.55625 0.73179 0.0
C1136 C 0.39108 0.56071 0.70833 0.0
H1137 H 0.3845 0.39677 0.68512 0.0
H1138 H 0.38621 0.44569 0.69913 0.0
C1139 C 0.39181 0.58684 0.69556 0.0
C1140 C 0.37813 0.52743 0.74289 0.0
H1141 H 0.40431 0.46977 0.75576 0.0
C1142 C 0.36105 0.51422 0.74083 0.0
C1143 C 0.39365 0.51147 0.75051 0.0
C1144 C 0.41207 0.52479 0.75526 0.0
C1145 C 0.35951 0.48501 0.743 0.0
C1146 C 0.37543 0.46886 0.7473 0.0
C1147 C 0.39215 0.48227 0.75224 0.0
C1148 C 0.37561 0.43869 0.74077 0.0
C1149 C 0.34122 0.47131 0.73807 0.0
C1150 C 0.36935 0.41853 0.75984 0.0
C1151 C 0.36847 0.39029 0.75191 0.0
C1152 C 0.37366 0.38211 0.72477 0.0
C1153 C 0.38034 0.40238 0.70613 0.0
C1154 C 0.38137 0.43035 0.7141 0.0
H1155 H 0.32994 0.48682 0.7369 0.0
H1156 H 0.34163 0.45934 0.71817 0.0
H1157 H 0.33824 0.45627 0.75517 0.0
H1158 H 0.36485 0.4247 0.78053 0.0
H1159 H 0.36323 0.37508 0.76666 0.0
H1160 H 0.58521 0.28178 0.73392 0.0
H1161 H 0.55433 0.2706 0.75098 0.0
H1162 H 0.53357 0.27775 0.6668 0.0
H1163 H 0.56398 0.28774 0.64975 0.0
H1164 H 0.52611 0.30347 0.75097 0.0
H1165 H 0.50527 0.21162 0.69046 0.0
H1166 H 0.52892 0.22221 0.69267 0.0
H1167 H 0.51407 0.23668 0.66615 0.0
C1168 C 0.57413 0.28008 0.71901 0.0
C1169 C 0.57711 0.28582 0.69048 0.0
C1170 C 0.55646 0.27379 0.72878 0.0
C1171 C 0.54155 0.27282 0.71016 0.0
C1172 C 0.54477 0.27743 0.68159 0.0
H1173 H 0.44262 0.34872 0.70624 0.0
H1174 H 0.47314 0.33255 0.71674 0.0
C1175 C 0.56227 0.28357 0.67188 0.0
C1176 C 0.52229 0.2709 0.72028 0.0
H1177 H 0.48064 0.2464 0.69936 0.0
C1178 C 0.51624 0.29035 0.74028 0.0
C1179 C 0.50926 0.25322 0.70728 0.0
C1180 C 0.51482 0.22956 0.68822 0.0
C1181 C 0.49751 0.29477 0.7451 0.0
C1182 C 0.48447 0.28008 0.72882 0.0
C1183 C 0.49052 0.25835 0.71133 0.0
C1184 C 0.4652 0.28991 0.7261 0.0
C1185 C 0.49196 0.316 0.76685 0.0
C1186 C 0.45028 0.27132 0.72732 0.0
C1187 C 0.43252 0.28054 0.72073 0.0
C1188 C 0.42946 0.30843 0.7125 0.0
C1189 C 0.44436 0.32706 0.71238 0.0
C1190 C 0.46193 0.31789 0.7188 0.0
H1191 H 0.50158 0.3156 0.78484 0.0
H1192 H 0.4926 0.33728 0.75761 0.0
H1193 H 0.4779 0.31217 0.77473 0.0
H1194 H 0.45244 0.24953 0.7326 0.0
H1195 H 0.42139 0.26559 0.72091 0.0
H1196 H 0.64614 0.62612 0.76838 0.0
H1197 H 0.64667 0.57668 0.78284 0.0
H1198 H 0.61571 0.55455 0.7093 0.0
H1199 H 0.61509 0.60338 0.69491 0.0
H1200 H 0.60531 0.52513 0.76001 0.0
H1201 H 0.68012 0.52227 0.73735 0.0
H1202 H 0.67145 0.54759 0.7619 0.0
H1203 H 0.66603 0.55086 0.72545 0.0
C1204 C 0.63913 0.61072 0.75568 0.0
C1205 C 0.63075 0.61851 0.73036 0.0
C1206 C 0.63951 0.58253 0.76389 0.0
C1207 C 0.63139 0.56197 0.74696 0.0
C1208 C 0.62205 0.57008 0.72267 0.0
H1209 H 0.63665 0.41648 0.66795 0.0
H1210 H 0.63885 0.46165 0.69113 0.0
C1211 C 0.62178 0.59802 0.71441 0.0
C1212 C 0.63395 0.53168 0.75224 0.0
H1213 H 0.66452 0.47959 0.73825 0.0
C1214 C 0.61837 0.51504 0.75632 0.0
C1215 C 0.65102 0.51868 0.7473 0.0
C1216 C 0.66817 0.5356 0.74266 0.0
C1217 C 0.61911 0.48586 0.7531 0.0
C1218 C 0.63585 0.47316 0.74564 0.0
C1219 C 0.65175 0.48949 0.74411 0.0
C1220 C 0.63622 0.44494 0.73298 0.0
C1221 C 0.60171 0.46905 0.75499 0.0
C1222 C 0.63435 0.42046 0.74897 0.0
C1223 C 0.63318 0.39431 0.73568 0.0
C1224 C 0.63361 0.39252 0.70628 0.0
C1225 C 0.63605 0.41711 0.6906 0.0
C1226 C 0.63741 0.44297 0.70381 0.0
H1227 H 0.58986 0.482 0.76161 0.0
H1228 H 0.5986 0.45959 0.7343 0.0
H1229 H 0.60348 0.45171 0.77019 0.0
H1230 H 0.63345 0.42165 0.77156 0.0
H1231 H 0.63131 0.3757 0.74829 0.0
H1232 H 0.42096 0.27524 0.27045 0.0
H1233 H 0.45185 0.26321 0.25373 0.0
H1234 H 0.47433 0.28935 0.33294 0.0
H1235 H 0.44415 0.30021 0.34988 0.0
H1236 H 0.48059 0.29565 0.24534 0.0
H1237 H 0.50164 0.21854 0.32375 0.0
H1238 H 0.47802 0.22862 0.31961 0.0
H1239 H 0.49308 0.2484 0.3421 0.0
C1240 C 0.43248 0.27782 0.28444 0.0
C1241 C 0.42992 0.28868 0.31156 0.0
C1242 C 0.45014 0.27099 0.27485 0.0
C1243 C 0.46548 0.27467 0.29229 0.0
C1244 C 0.4628 0.28526 0.31933 0.0
H1245 H 0.56528 0.34703 0.2782 0.0
H1246 H 0.53461 0.33001 0.2701 0.0
C1247 C 0.44536 0.29185 0.3289 0.0
C1248 C 0.48458 0.27033 0.28216 0.0
H1249 H 0.52628 0.24982 0.30678 0.0
C1250 C 0.49052 0.28491 0.25833 0.0
C1251 C 0.49765 0.2555 0.29827 0.0
C1252 C 0.49217 0.23663 0.32214 0.0
C1253 C 0.50924 0.2877 0.25216 0.0
C1254 C 0.52239 0.27649 0.27087 0.0
C1255 C 0.51636 0.25918 0.29275 0.0
C1256 C 0.54184 0.28607 0.27101 0.0
C1257 C 0.51467 0.3035 0.22615 0.0
C1258 C 0.55647 0.26719 0.27445 0.0
C1259 C 0.57428 0.27704 0.27967 0.0
C1260 C 0.57769 0.30593 0.28182 0.0
C1261 C 0.5632 0.32463 0.27682 0.0
C1262 C 0.54556 0.31487 0.27175 0.0
H1263 H 0.50489 0.2992 0.20889 0.0
H1264 H 0.51416 0.32631 0.23043 0.0
H1265 H 0.52865 0.29785 0.21906 0.0
H1266 H 0.554 0.24485 0.27422 0.0
H1267 H 0.5851 0.26207 0.28358 0.0
H1268 H 0.61785 0.39653 0.30319 0.0
H1269 H 0.61785 0.44498 0.28761 0.0
H1270 H 0.64819 0.42171 0.21382 0.0
H1271 H 0.6481 0.3726 0.22936 0.0
H1272 H 0.6645 0.46436 0.24627 0.0
H1273 H 0.59216 0.4897 0.22577 0.0
H1274 H 0.59465 0.47062 0.25786 0.0
H1275 H 0.60078 0.45423 0.22524 0.0
C1276 C 0.62418 0.40154 0.28333 0.0
C1277 C 0.63303 0.38083 0.26753 0.0
C1278 C 0.62402 0.42925 0.27431 0.0
C1279 C 0.63279 0.4369 0.24936 0.0
C1280 C 0.64115 0.41614 0.23296 0.0
H1281 H 0.62978 0.62135 0.24782 0.0
H1282 H 0.63181 0.57561 0.22418 0.0
C1283 C 0.64108 0.38817 0.24184 0.0
C1284 C 0.63517 0.46703 0.24307 0.0
H1285 H 0.61094 0.52795 0.24427 0.0
C1286 C 0.65284 0.47831 0.2448 0.0
C1287 C 0.62002 0.48524 0.24072 0.0
C1288 C 0.60085 0.47428 0.23699 0.0
C1289 C 0.65554 0.50724 0.24754 0.0
C1290 C 0.64019 0.52514 0.24872 0.0
C1291 C 0.62271 0.51416 0.24368 0.0
C1292 C 0.64152 0.55356 0.26082 0.0
C1293 C 0.6747 0.51827 0.25117 0.0
C1294 C 0.64641 0.55622 0.28906 0.0
C1295 C 0.64498 0.58193 0.30256 0.0
C1296 C 0.63878 0.60564 0.28806 0.0
C1297 C 0.63474 0.6034 0.25938 0.0
C1298 C 0.63586 0.57736 0.24591 0.0
H1299 H 0.68482 0.50449 0.24064 0.0
H1300 H 0.676 0.5398 0.24267 0.0
H1301 H 0.67809 0.51883 0.2738 0.0
H1302 H 0.65048 0.53804 0.30108 0.0
H1303 H 0.64822 0.58309 0.32466 0.0
H1304 H 0.58726 0.71918 0.26469 0.0
H1305 H 0.55662 0.73253 0.24804 0.0
H1306 H 0.53393 0.70947 0.32807 0.0
H1307 H 0.56399 0.69713 0.34489 0.0
H1308 H 0.52752 0.7007 0.24076 0.0
H1309 H 0.50773 0.78119 0.3165 0.0
H1310 H 0.5312 0.77016 0.31259 0.0
H1311 H 0.51592 0.7517 0.33585 0.0
C1312 C 0.57576 0.71757 0.27888 0.0
C1313 C 0.57818 0.707 0.30614 0.0
C1314 C 0.55825 0.72516 0.26932 0.0
C1315 C 0.54293 0.72263 0.28698 0.0
C1316 C 0.54549 0.71258 0.31426 0.0
H1317 H 0.443 0.65233 0.27709 0.0
H1318 H 0.47356 0.66863 0.26699 0.0
C1319 C 0.56281 0.70513 0.32377 0.0
C1320 C 0.52393 0.72738 0.27672 0.0
H1321 H 0.48261 0.75006 0.3008 0.0
C1322 C 0.51776 0.7122 0.2534 0.0
C1323 C 0.51112 0.74322 0.29233 0.0
C1324 C 0.51694 0.76273 0.31548 0.0
C1325 C 0.49901 0.70977 0.24743 0.0
C1326 C 0.48606 0.72198 0.26583 0.0
C1327 C 0.49236 0.73993 0.28702 0.0
C1328 C 0.46658 0.71269 0.26668 0.0
C1329 C 0.49331 0.69322 0.22202 0.0
C1330 C 0.45211 0.73188 0.27001 0.0
C1331 C 0.43438 0.72246 0.27644 0.0
C1332 C 0.4309 0.69372 0.27988 0.0
C1333 C 0.44516 0.67464 0.27474 0.0
C1334 C 0.46273 0.68398 0.26852 0.0
H1335 H 0.50298 0.69687 0.20448 0.0
H1336 H 0.49376 0.67055 0.227 0.0
H1337 H 0.47931 0.69879 0.21498 0.0
H1338 H 0.4547 0.75416 0.26891 0.0
H1339 H 0.42375 0.73771 0.28041 0.0
H1340 H 0.37461 0.37567 0.25713 0.0
H1341 H 0.37255 0.42208 0.23489 0.0
H1342 H 0.36327 0.45971 0.31564 0.0
H1343 H 0.3654 0.414 0.33784 0.0
H1344 H 0.33989 0.47933 0.26707 0.0
H1345 H 0.41537 0.48157 0.25053 0.0
H1346 H 0.40208 0.45189 0.23913 0.0
H1347 H 0.40534 0.45806 0.27578 0.0
C1348 C 0.37184 0.39383 0.27 0.0
C1349 C 0.37038 0.39128 0.29926 0.0
C1350 C 0.37071 0.42025 0.2573 0.0
C1351 C 0.36786 0.44422 0.27371 0.0
C1352 C 0.36547 0.44142 0.30265 0.0
H1353 H 0.38761 0.60359 0.31458 0.0
H1354 H 0.38663 0.55435 0.30147 0.0
C1355 C 0.36679 0.41529 0.31531 0.0
C1356 C 0.36877 0.47275 0.26188 0.0
H1357 H 0.39994 0.52464 0.25073 0.0
C1358 C 0.35289 0.48919 0.26242 0.0
C1359 C 0.3858 0.4854 0.25602 0.0
C1360 C 0.4032 0.46849 0.25528 0.0
C1361 C 0.35383 0.5184 0.25961 0.0
C1362 C 0.37108 0.53128 0.2562 0.0
C1363 C 0.38674 0.5146 0.25326 0.0
C1364 C 0.37351 0.56152 0.26154 0.0
C1365 C 0.33662 0.53548 0.26291 0.0
C1366 C 0.36685 0.58193 0.24306 0.0
C1367 C 0.36746 0.61029 0.2505 0.0
C1368 C 0.3746 0.61844 0.2766 0.0
C1369 C 0.38193 0.59797 0.29442 0.0
C1370 C 0.38145 0.56983 0.28691 0.0
H1371 H 0.32439 0.52222 0.26658 0.0
H1372 H 0.33811 0.55023 0.28073 0.0
H1373 H 0.33431 0.54809 0.24374 0.0
H1374 H 0.36076 0.57587 0.22331 0.0
H1375 H 0.36173 0.62567 0.23636 0.0
loop_
_geom_bond_atom_site_label_1
_geom_bond_atom_site_label_2
_geom_bond_distance
_geom_bond_site_symmetry_2
_ccdc_geom_bond_type
Co0 O1 2.216 . S
Co0 O2 2.091 . S
Co0 O4 2.004 . S
Co0 O10 2.021 . S
Co0 O12 2.137 . S
Co0 O13 2.244 . S
O1 Co0 2.216 . S
O1 C8 1.247 . S
O2 Co0 2.091 . S
O2 C8 1.261 . S
C3 O12 1.247 . S
C3 O13 1.272 . S
O4 Co0 2.004 . S
O4 C9 1.259 . S
Co5 O6 2.061 . S
Co5 O11 2.052 . S
Co5 O13 2.135 . S
O6 Co5 2.061 . S
O6 C9 1.235 . S
C7 O10 1.238 . S
C7 O11 1.241 . S
C8 O1 1.247 . S
C8 O2 1.261 . S
C9 O4 1.259 . S
C9 O6 1.235 . S
O10 Co0 2.021 . S
O10 C7 1.238 . S
O11 Co5 2.052 . S
O11 C7 1.241 . S
O12 Co0 2.137 . S
O12 C3 1.247 . S
O13 Co0 2.244 . S
O13 C3 1.272 . S
O13 Co5 2.135 . S
Co14 O15 2.216 . S
Co14 O16 2.091 . S
Co14 O18 2.004 . S
Co14 O24 2.021 . S
Co14 O26 2.137 . S
Co14 O27 2.244 . S
O15 Co14 2.216 . S
O15 C22 1.247 . S
O16 Co14 2.091 . S
O16 C22 1.261 . S
C17 O26 1.247 . S
C17 O27 1.272 . S
O18 Co14 2.004 . S
O18 C23 1.259 . S
Co19 O20 2.061 . S
Co19 O25 2.052 . S
Co19 O27 2.135 . S
O20 Co19 2.061 . S
O20 C23 1.235 . S
C21 O24 1.238 . S
C21 O25 1.241 . S
C22 O15 1.247 . S
C22 O16 1.261 . S
C23 O18 1.259 . S
C23 O20 1.235 . S
O24 Co14 2.021 . S
O24 C21 1.238 . S
O25 Co19 2.052 . S
O25 C21 1.241 . S
O26 Co14 2.137 . S
O26 C17 1.247 . S
O27 Co14 2.244 . S
O27 C17 1.272 . S
O27 Co19 2.135 . S
Co28 O29 2.216 . S
Co28 O30 2.091 . S
Co28 O32 2.004 . S
Co28 O38 2.021 . S
Co28 O40 2.137 . S
Co28 O41 2.244 . S
O29 Co28 2.216 . S
O29 C36 1.247 . S
O30 Co28 2.091 . S
O30 C36 1.261 . S
C31 O40 1.247 . S
C31 O41 1.272 . S
O32 Co28 2.004 . S
O32 C37 1.259 . S
Co33 O34 2.061 . S
Co33 O39 2.052 . S
Co33 O41 2.135 . S
O34 Co33 2.061 . S
O34 C37 1.235 . S
C35 O38 1.238 . S
C35 O39 1.241 . S
C36 O29 1.247 . S
C36 O30 1.261 . S
C37 O32 1.259 . S
C37 O34 1.235 . S
O38 Co28 2.021 . S
O38 C35 1.238 . S
O39 Co33 2.052 . S
O39 C35 1.241 . S
O40 Co28 2.137 . S
O40 C31 1.247 . S
O41 Co28 2.244 . S
O41 C31 1.272 . S
O41 Co33 2.135 . S
Co42 O43 2.216 . S
Co42 O44 2.091 . S
Co42 O46 2.004 . S
Co42 O52 2.021 . S
Co42 O54 2.137 . S
Co42 O55 2.244 . S
O43 Co42 2.216 . S
O43 C50 1.247 . S
O44 Co42 2.091 . S
O44 C50 1.261 . S
C45 O54 1.247 . S
C45 O55 1.272 . S
O46 Co42 2.004 . S
O46 C51 1.259 . S
Co47 O48 2.061 . S
Co47 O53 2.052 . S
Co47 O55 2.135 . S
O48 Co47 2.061 . S
O48 C51 1.235 . S
C49 O52 1.238 . S
C49 O53 1.241 . S
C50 O43 1.247 . S
C50 O44 1.261 . S
C51 O46 1.259 . S
C51 O48 1.235 . S
O52 Co42 2.021 . S
O52 C49 1.238 . S
O53 Co47 2.052 . S
O53 C49 1.241 . S
O54 Co42 2.137 . S
O54 C45 1.247 . S
O55 Co42 2.244 . S
O55 C45 1.272 . S
O55 Co47 2.135 . S
Co56 O57 2.216 . S
Co56 O58 2.091 . S
Co56 O60 2.004 . S
Co56 O66 2.021 . S
Co56 O68 2.137 . S
Co56 O69 2.244 . S
O57 Co56 2.216 . S
O57 C64 1.247 . S
O58 Co56 2.091 . S
O58 C64 1.261 . S
C59 O68 1.247 . S
C59 O69 1.272 . S
O60 Co56 2.004 . S
O60 C65 1.259 . S
Co61 O62 2.061 . S
Co61 O67 2.052 . S
Co61 O69 2.135 . S
O62 Co61 2.061 . S
O62 C65 1.235 . S
C63 O66 1.238 . S
C63 O67 1.241 . S
C64 O57 1.247 . S
C64 O58 1.261 . S
C65 O60 1.259 . S
C65 O62 1.235 . S
O66 Co56 2.021 . S
O66 C63 1.238 . S
O67 Co61 2.052 . S
O67 C63 1.241 . S
O68 Co56 2.137 . S
O68 C59 1.247 . S
O69 Co56 2.244 . S
O69 C59 1.272 . S
O69 Co61 2.135 . S
Co70 O71 2.216 . S
Co70 O72 2.091 . S
Co70 O74 2.004 . S
Co70 O80 2.021 . S
Co70 O82 2.137 . S
Co70 O83 2.244 . S
O71 Co70 2.216 . S
O71 C78 1.247 . S
O72 Co70 2.091 . S
O72 C78 1.261 . S
C73 O82 1.247 . S
C73 O83 1.272 . S
O74 Co70 2.004 . S
O74 C79 1.259 . S
Co75 O76 2.061 . S
Co75 O81 2.052 . S
Co75 O83 2.135 . S
O76 Co75 2.061 . S
O76 C79 1.235 . S
C77 O80 1.238 . S
C77 O81 1.241 . S
C78 O71 1.247 . S
C78 O72 1.261 . S
C79 O74 1.259 . S
C79 O76 1.235 . S
O80 Co70 2.021 . S
O80 C77 1.238 . S
O81 Co75 2.052 . S
O81 C77 1.241 . S
O82 Co70 2.137 . S
O82 C73 1.247 . S
O83 Co70 2.244 . S
O83 C73 1.272 . S
O83 Co75 2.135 . S
Co84 O85 2.216 . S
Co84 O86 2.091 . S
Co84 O88 2.004 . S
Co84 O94 2.021 . S
Co84 O96 2.137 . S
Co84 O97 2.244 . S
O85 Co84 2.216 . S
O85 C92 1.247 . S
O86 Co84 2.091 . S
O86 C92 1.261 . S
C87 O96 1.247 . S
C87 O97 1.272 . S
O88 Co84 2.004 . S
O88 C93 1.259 . S
Co89 O90 2.061 . S
Co89 O95 2.052 . S
Co89 O97 2.135 . S
O90 Co89 2.061 . S
O90 C93 1.235 . S
C91 O94 1.238 . S
C91 O95 1.241 . S
C92 O85 1.247 . S
C92 O86 1.261 . S
C93 O88 1.259 . S
C93 O90 1.235 . S
O94 Co84 2.021 . S
O94 C91 1.238 . S
O95 Co89 2.052 . S
O95 C91 1.241 . S
O96 Co84 2.137 . S
O96 C87 1.247 . S
O97 Co84 2.244 . S
O97 C87 1.272 . S
O97 Co89 2.135 . S
Co98 O99 2.216 . S
Co98 O100 2.091 . S
Co98 O102 2.004 . S
Co98 O108 2.021 . S
Co98 O110 2.137 . S
Co98 O111 2.244 . S
O99 Co98 2.216 . S
O99 C106 1.247 . S
O100 Co98 2.091 . S
O100 C106 1.261 . S
C101 O110 1.247 . S
C101 O111 1.272 . S
O102 Co98 2.004 . S
O102 C107 1.259 . S
Co103 O104 2.061 . S
Co103 O109 2.052 . S
Co103 O111 2.135 . S
O104 Co103 2.061 . S
O104 C107 1.235 . S
C105 O108 1.238 . S
C105 O109 1.241 . S
C106 O99 1.247 . S
C106 O100 1.261 . S
C107 O102 1.259 . S
C107 O104 1.235 . S
O108 Co98 2.021 . S
O108 C105 1.238 . S
O109 Co103 2.052 . S
O109 C105 1.241 . S
O110 Co98 2.137 . S
O110 C101 1.247 . S
O111 Co98 2.244 . S
O111 C101 1.272 . S
O111 Co103 2.135 . S
Co112 O113 2.216 . S
Co112 O114 2.091 . S
Co112 O116 2.004 . S
Co112 O122 2.021 . S
Co112 O124 2.137 . S
Co112 O125 2.244 . S
O113 Co112 2.216 . S
O113 C120 1.247 . S
O114 Co112 2.091 . S
O114 C120 1.261 . S
C115 O124 1.247 . S
C115 O125 1.272 . S
O116 Co112 2.004 . S
O116 C121 1.259 . S
Co117 O118 2.061 . S
Co117 O123 2.052 . S
Co117 O125 2.135 . S
O118 Co117 2.061 . S
O118 C121 1.235 . S
C119 O122 1.238 . S
C119 O123 1.241 . S
C120 O113 1.247 . S
C120 O114 1.261 . S
C121 O116 1.259 . S
C121 O118 1.235 . S
O122 Co112 2.021 . S
O122 C119 1.238 . S
O123 Co117 2.052 . S
O123 C119 1.241 . S
O124 Co112 2.137 . S
O124 C115 1.247 . S
O125 Co112 2.244 . S
O125 C115 1.272 . S
O125 Co117 2.135 . S
Co126 O127 2.216 . S
Co126 O128 2.091 . S
Co126 O130 2.004 . S
Co126 O136 2.021 . S
Co126 O138 2.137 . S
Co126 O139 2.244 . S
O127 Co126 2.216 . S
O127 C134 1.247 . S
O128 Co126 2.091 . S
O128 C134 1.261 . S
C129 O138 1.247 . S
C129 O139 1.272 . S
O130 Co126 2.004 . S
O130 C135 1.259 . S
Co131 O132 2.061 . S
Co131 O137 2.052 . S
Co131 O139 2.135 . S
O132 Co131 2.061 . S
O132 C135 1.235 . S
C133 O136 1.238 . S
C133 O137 1.241 . S
C134 O127 1.247 . S
C134 O128 1.261 . S
C135 O130 1.259 . S
C135 O132 1.235 . S
O136 Co126 2.021 . S
O136 C133 1.238 . S
O137 Co131 2.052 . S
O137 C133 1.241 . S
O138 Co126 2.137 . S
O138 C129 1.247 . S
O139 Co126 2.244 . S
O139 C129 1.272 . S
O139 Co131 2.135 . S
Co140 O141 2.216 . S
Co140 O142 2.091 . S
Co140 O144 2.004 . S
Co140 O150 2.021 . S
Co140 O152 2.137 . S
Co140 O153 2.244 . S
O141 Co140 2.216 . S
O141 C148 1.247 . S
O142 Co140 2.091 . S
O142 C148 1.261 . S
C143 O152 1.247 . S
C143 O153 1.272 . S
O144 Co140 2.004 . S
O144 C149 1.259 . S
Co145 O146 2.061 . S
Co145 O151 2.052 . S
Co145 O153 2.135 . S
O146 Co145 2.061 . S
O146 C149 1.235 . S
C147 O150 1.238 . S
C147 O151 1.241 . S
C148 O141 1.247 . S
C148 O142 1.261 . S
C149 O144 1.259 . S
C149 O146 1.235 . S
O150 Co140 2.021 . S
O150 C147 1.238 . S
O151 Co145 2.052 . S
O151 C147 1.241 . S
O152 Co140 2.137 . S
O152 C143 1.247 . S
O153 Co140 2.244 . S
O153 C143 1.272 . S
O153 Co145 2.135 . S
Co154 O155 2.216 . S
Co154 O156 2.091 . S
Co154 O158 2.004 . S
Co154 O164 2.021 . S
Co154 O166 2.137 . S
Co154 O167 2.244 . S
O155 Co154 2.216 . S
O155 C162 1.247 . S
O156 Co154 2.091 . S
O156 C162 1.261 . S
C157 O166 1.247 . S
C157 O167 1.272 . S
O158 Co154 2.004 . S
O158 C163 1.259 . S
Co159 O160 2.061 . S
Co159 O165 2.052 . S
Co159 O167 2.135 . S
O160 Co159 2.061 . S
O160 C163 1.235 . S
C161 O164 1.238 . S
C161 O165 1.241 . S
C162 O155 1.247 . S
C162 O156 1.261 . S
C163 O158 1.259 . S
C163 O160 1.235 . S
O164 Co154 2.021 . S
O164 C161 1.238 . S
O165 Co159 2.052 . S
O165 C161 1.241 . S
O166 Co154 2.137 . S
O166 C157 1.247 . S
O167 Co154 2.244 . S
O167 C157 1.272 . S
O167 Co159 2.135 . S
Co168 O169 2.216 . S
Co168 O170 2.091 . S
Co168 O172 2.004 . S
Co168 O178 2.021 . S
Co168 O180 2.137 . S
Co168 O181 2.244 . S
O169 Co168 2.216 . S
O169 C176 1.247 . S
O170 Co168 2.091 . S
O170 C176 1.261 . S
C171 O180 1.247 . S
C171 O181 1.272 . S
O172 Co168 2.004 . S
O172 C177 1.259 . S
Co173 O174 2.061 . S
Co173 O179 2.052 . S
Co173 O181 2.135 . S
O174 Co173 2.061 . S
O174 C177 1.235 . S
C175 O178 1.238 . S
C175 O179 1.241 . S
C176 O169 1.247 . S
C176 O170 1.261 . S
C177 O172 1.259 . S
C177 O174 1.235 . S
O178 Co168 2.021 . S
O178 C175 1.238 . S
O179 Co173 2.052 . S
O179 C175 1.241 . S
O180 Co168 2.137 . S
O180 C171 1.247 . S
O181 Co168 2.244 . S
O181 C171 1.272 . S
O181 Co173 2.135 . S
Co182 O183 2.216 . S
Co182 O184 2.091 . S
Co182 O186 2.004 . S
Co182 O192 2.021 . S
Co182 O194 2.137 . S
Co182 O195 2.244 . S
O183 Co182 2.216 . S
O183 C190 1.247 . S
O184 Co182 2.091 . S
O184 C190 1.261 . S
C185 O194 1.247 . S
C185 O195 1.272 . S
O186 Co182 2.004 . S
O186 C191 1.259 . S
Co187 O188 2.061 . S
Co187 O193 2.052 . S
Co187 O195 2.135 . S
O188 Co187 2.061 . S
O188 C191 1.235 . S
C189 O192 1.238 . S
C189 O193 1.241 . S
C190 O183 1.247 . S
C190 O184 1.261 . S
C191 O186 1.259 . S
C191 O188 1.235 . S
O192 Co182 2.021 . S
O192 C189 1.238 . S
O193 Co187 2.052 . S
O193 C189 1.241 . S
O194 Co182 2.137 . S
O194 C185 1.247 . S
O195 Co182 2.244 . S
O195 C185 1.272 . S
O195 Co187 2.135 . S
Co196 O197 2.216 . S
Co196 O198 2.091 . S
Co196 O200 2.004 . S
Co196 O206 2.021 . S
Co196 O208 2.137 . S
Co196 O209 2.244 . S
O197 Co196 2.216 . S
O197 C204 1.247 . S
O198 Co196 2.091 . S
O198 C204 1.261 . S
C199 O208 1.247 . S
C199 O209 1.272 . S
O200 Co196 2.004 . S
O200 C205 1.259 . S
Co201 O202 2.061 . S
Co201 O207 2.052 . S
Co201 O209 2.135 . S
O202 Co201 2.061 . S
O202 C205 1.235 . S
C203 O206 1.238 . S
C203 O207 1.241 . S
C204 O197 1.247 . S
C204 O198 1.261 . S
C205 O200 1.259 . S
C205 O202 1.235 . S
O206 Co196 2.021 . S
O206 C203 1.238 . S
O207 Co201 2.052 . S
O207 C203 1.241 . S
O208 Co196 2.137 . S
O208 C199 1.247 . S
O209 Co196 2.244 . S
O209 C199 1.272 . S
O209 Co201 2.135 . S
Co210 O211 2.216 . S
Co210 O212 2.091 . S
Co210 O214 2.004 . S
Co210 O220 2.021 . S
Co210 O222 2.137 . S
Co210 O223 2.244 . S
O211 Co210 2.216 . S
O211 C218 1.247 . S
O212 Co210 2.091 . S
O212 C218 1.261 . S
C213 O222 1.247 . S
C213 O223 1.272 . S
O214 Co210 2.004 . S
O214 C219 1.259 . S
Co215 O216 2.061 . S
Co215 O221 2.052 . S
Co215 O223 2.135 . S
O216 Co215 2.061 . S
O216 C219 1.235 . S
C217 O220 1.238 . S
C217 O221 1.241 . S
C218 O211 1.247 . S
C218 O212 1.261 . S
C219 O214 1.259 . S
C219 O216 1.235 . S
O220 Co210 2.021 . S
O220 C217 1.238 . S
O221 Co215 2.052 . S
O221 C217 1.241 . S
O222 Co210 2.137 . S
O222 C213 1.247 . S
O223 Co210 2.244 . S
O223 C213 1.272 . S
O223 Co215 2.135 . S
H224 C232 0.929 . S
H225 C234 0.930 . S
H226 C236 0.930 . S
H227 C239 0.929 . S
H228 C242 0.930 . S
H229 C244 0.960 . S
H230 C244 0.960 . S
H231 C244 0.960 . S
C232 H224 0.929 . S
C232 C233 1.377 . S
C232 C234 1.384 . S
C233 C232 1.377 . S
C233 C239 1.390 . S
C234 H225 0.930 . S
C234 C232 1.384 . S
C234 C235 1.372 . S
C235 C234 1.372 . S
C235 C236 1.400 . S
C235 C240 1.490 . S
C236 H226 0.930 . S
C236 C235 1.400 . S
C236 C239 1.386 . S
H237 C253 0.930 . S
H238 C254 0.931 . S
C239 H227 0.929 . S
C239 C233 1.390 . S
C239 C236 1.386 . S
C240 C235 1.490 . S
C240 C242 1.395 . S
C240 C243 1.403 . S
H241 C247 0.930 . S
C242 H228 0.930 . S
C242 C240 1.395 . S
C242 C245 1.403 . S
C243 C240 1.403 . S
C243 C244 1.524 . S
C243 C247 1.400 . S
C244 H229 0.960 . S
C244 H230 0.960 . S
C244 H231 0.960 . S
C244 C243 1.524 . S
C245 C242 1.403 . S
C245 C246 1.392 . S
C245 C249 1.495 . S
C246 C245 1.392 . S
C246 C247 1.385 . S
C246 C248 1.478 . S
C247 H241 0.930 . S
C247 C243 1.400 . S
C247 C246 1.385 . S
C248 C246 1.478 . S
C248 C250 1.381 . S
C248 C254 1.383 . S
C249 C245 1.495 . S
C249 H255 0.959 . S
C249 H256 0.961 . S
C249 H257 0.960 . S
C250 C248 1.381 . S
C250 C251 1.394 . S
C250 H258 0.930 . S
C251 C250 1.394 . S
C251 C252 1.383 . S
C251 H259 0.929 . S
C252 C251 1.383 . S
C252 C253 1.377 . S
C253 H237 0.930 . S
C253 C252 1.377 . S
C253 C254 1.379 . S
C254 H238 0.931 . S
C254 C248 1.383 . S
C254 C253 1.379 . S
H255 C249 0.959 . S
H256 C249 0.961 . S
H257 C249 0.960 . S
H258 C250 0.930 . S
H259 C251 0.929 . S
H260 C268 0.929 . S
H261 C270 0.930 . S
H262 C272 0.930 . S
H263 C275 0.929 . S
H264 C278 0.930 . S
H265 C280 0.960 . S
H266 C280 0.960 . S
H267 C280 0.960 . S
C268 H260 0.929 . S
C268 C269 1.377 . S
C268 C270 1.384 . S
C269 C268 1.377 . S
C269 C275 1.390 . S
C270 H261 0.930 . S
C270 C268 1.384 . S
C270 C271 1.372 . S
C271 C270 1.372 . S
C271 C272 1.400 . S
C271 C276 1.490 . S
C272 H262 0.930 . S
C272 C271 1.400 . S
C272 C275 1.386 . S
H273 C289 0.930 . S
H274 C290 0.931 . S
C275 H263 0.929 . S
C275 C269 1.390 . S
C275 C272 1.386 . S
C276 C271 1.490 . S
C276 C278 1.395 . S
C276 C279 1.403 . S
H277 C283 0.930 . S
C278 H264 0.930 . S
C278 C276 1.395 . S
C278 C281 1.403 . S
C279 C276 1.403 . S
C279 C280 1.524 . S
C279 C283 1.400 . S
C280 H265 0.960 . S
C280 H266 0.960 . S
C280 H267 0.960 . S
C280 C279 1.524 . S
C281 C278 1.403 . S
C281 C282 1.392 . S
C281 C285 1.495 . S
C282 C281 1.392 . S
C282 C283 1.385 . S
C282 C284 1.478 . S
C283 H277 0.930 . S
C283 C279 1.400 . S
C283 C282 1.385 . S
C284 C282 1.478 . S
C284 C286 1.381 . S
C284 C290 1.383 . S
C285 C281 1.495 . S
C285 H291 0.959 . S
C285 H292 0.961 . S
C285 H293 0.960 . S
C286 C284 1.381 . S
C286 C287 1.394 . S
C286 H294 0.930 . S
C287 C286 1.394 . S
C287 C288 1.383 . S
C287 H295 0.929 . S
C288 C287 1.383 . S
C288 C289 1.377 . S
C289 H273 0.930 . S
C289 C288 1.377 . S
C289 C290 1.379 . S
C290 H274 0.931 . S
C290 C284 1.383 . S
C290 C289 1.379 . S
H291 C285 0.959 . S
H292 C285 0.961 . S
H293 C285 0.960 . S
H294 C286 0.930 . S
H295 C287 0.929 . S
H296 C304 0.929 . S
H297 C306 0.930 . S
H298 C308 0.930 . S
H299 C311 0.929 . S
H300 C314 0.930 . S
H301 C316 0.960 . S
H302 C316 0.960 . S
H303 C316 0.960 . S
C304 H296 0.929 . S
C304 C305 1.377 . S
C304 C306 1.384 . S
C305 C304 1.377 . S
C305 C311 1.390 . S
C306 H297 0.930 . S
C306 C304 1.384 . S
C306 C307 1.372 . S
C307 C306 1.372 . S
C307 C308 1.400 . S
C307 C312 1.490 . S
C308 H298 0.930 . S
C308 C307 1.400 . S
C308 C311 1.386 . S
H309 C325 0.930 . S
H310 C326 0.931 . S
C311 H299 0.929 . S
C311 C305 1.390 . S
C311 C308 1.386 . S
C312 C307 1.490 . S
C312 C314 1.395 . S
C312 C315 1.403 . S
H313 C319 0.930 . S
C314 H300 0.930 . S
C314 C312 1.395 . S
C314 C317 1.403 . S
C315 C312 1.403 . S
C315 C316 1.524 . S
C315 C319 1.400 . S
C316 H301 0.960 . S
C316 H302 0.960 . S
C316 H303 0.960 . S
C316 C315 1.524 . S
C317 C314 1.403 . S
C317 C318 1.392 . S
C317 C321 1.495 . S
C318 C317 1.392 . S
C318 C319 1.385 . S
C318 C320 1.478 . S
C319 H313 0.930 . S
C319 C315 1.400 . S
C319 C318 1.385 . S
C320 C318 1.478 . S
C320 C322 1.381 . S
C320 C326 1.383 . S
C321 C317 1.495 . S
C321 H327 0.959 . S
C321 H328 0.961 . S
C321 H329 0.960 . S
C322 C320 1.381 . S
C322 C323 1.394 . S
C322 H330 0.930 . S
C323 C322 1.394 . S
C323 C324 1.383 . S
C323 H331 0.929 . S
C324 C323 1.383 . S
C324 C325 1.377 . S
C325 H309 0.930 . S
C325 C324 1.377 . S
C325 C326 1.379 . S
C326 H310 0.931 . S
C326 C320 1.383 . S
C326 C325 1.379 . S
H327 C321 0.959 . S
H328 C321 0.961 . S
H329 C321 0.960 . S
H330 C322 0.930 . S
H331 C323 0.929 . S
H332 C340 0.929 . S
H333 C342 0.930 . S
H334 C344 0.930 . S
H335 C347 0.929 . S
H336 C350 0.930 . S
H337 C352 0.960 . S
H338 C352 0.960 . S
H339 C352 0.960 . S
C340 H332 0.929 . S
C340 C341 1.377 . S
C340 C342 1.384 . S
C341 C340 1.377 . S
C341 C347 1.390 . S
C342 H333 0.930 . S
C342 C340 1.384 . S
C342 C343 1.372 . S
C343 C342 1.372 . S
C343 C344 1.400 . S
C343 C348 1.490 . S
C344 H334 0.930 . S
C344 C343 1.400 . S
C344 C347 1.386 . S
H345 C361 0.930 . S
H346 C362 0.931 . S
C347 H335 0.929 . S
C347 C341 1.390 . S
C347 C344 1.386 . S
C348 C343 1.490 . S
C348 C350 1.395 . S
C348 C351 1.403 . S
H349 C355 0.930 . S
C350 H336 0.930 . S
C350 C348 1.395 . S
C350 C353 1.403 . S
C351 C348 1.403 . S
C351 C352 1.524 . S
C351 C355 1.400 . S
C352 H337 0.960 . S
C352 H338 0.960 . S
C352 H339 0.960 . S
C352 C351 1.524 . S
C353 C350 1.403 . S
C353 C354 1.392 . S
C353 C357 1.495 . S
C354 C353 1.392 . S
C354 C355 1.385 . S
C354 C356 1.478 . S
C355 H349 0.930 . S
C355 C351 1.400 . S
C355 C354 1.385 . S
C356 C354 1.478 . S
C356 C358 1.381 . S
C356 C362 1.383 . S
C357 C353 1.495 . S
C357 H363 0.959 . S
C357 H364 0.961 . S
C357 H365 0.960 . S
C358 C356 1.381 . S
C358 C359 1.394 . S
C358 H366 0.930 . S
C359 C358 1.394 . S
C359 C360 1.383 . S
C359 H367 0.929 . S
C360 C359 1.383 . S
C360 C361 1.377 . S
C361 H345 0.930 . S
C361 C360 1.377 . S
C361 C362 1.379 . S
C362 H346 0.931 . S
C362 C356 1.383 . S
C362 C361 1.379 . S
H363 C357 0.959 . S
H364 C357 0.961 . S
H365 C357 0.960 . S
H366 C358 0.930 . S
H367 C359 0.929 . S
H368 C376 0.929 . S
H369 C378 0.930 . S
H370 C380 0.930 . S
H371 C383 0.929 . S
H372 C386 0.930 . S
H373 C388 0.960 . S
H374 C388 0.960 . S
H375 C388 0.960 . S
C376 H368 0.929 . S
C376 C377 1.377 . S
C376 C378 1.384 . S
C377 C376 1.377 . S
C377 C383 1.390 . S
C378 H369 0.930 . S
C378 C376 1.384 . S
C378 C379 1.372 . S
C379 C378 1.372 . S
C379 C380 1.400 . S
C379 C384 1.490 . S
C380 H370 0.930 . S
C380 C379 1.400 . S
C380 C383 1.386 . S
H381 C397 0.930 . S
H382 C398 0.931 . S
C383 H371 0.929 . S
C383 C377 1.390 . S
C383 C380 1.386 . S
C384 C379 1.490 . S
C384 C386 1.395 . S
C384 C387 1.403 . S
H385 C391 0.930 . S
C386 H372 0.930 . S
C386 C384 1.395 . S
C386 C389 1.403 . S
C387 C384 1.403 . S
C387 C388 1.524 . S
C387 C391 1.400 . S
C388 H373 0.960 . S
C388 H374 0.960 . S
C388 H375 0.960 . S
C388 C387 1.524 . S
C389 C386 1.403 . S
C389 C390 1.392 . S
C389 C393 1.495 . S
C390 C389 1.392 . S
C390 C391 1.385 . S
C390 C392 1.478 . S
C391 H385 0.930 . S
C391 C387 1.400 . S
C391 C390 1.385 . S
C392 C390 1.478 . S
C392 C394 1.381 . S
C392 C398 1.383 . S
C393 C389 1.495 . S
C393 H399 0.959 . S
C393 H400 0.961 . S
C393 H401 0.960 . S
C394 C392 1.381 . S
C394 C395 1.394 . S
C394 H402 0.930 . S
C395 C394 1.394 . S
C395 C396 1.383 . S
C395 H403 0.929 . S
C396 C395 1.383 . S
C396 C397 1.377 . S
C397 H381 0.930 . S
C397 C396 1.377 . S
C397 C398 1.379 . S
C398 H382 0.931 . S
C398 C392 1.383 . S
C398 C397 1.379 . S
H399 C393 0.959 . S
H400 C393 0.961 . S
H401 C393 0.960 . S
H402 C394 0.930 . S
H403 C395 0.929 . S
H404 C412 0.929 . S
H405 C414 0.930 . S
H406 C416 0.930 . S
H407 C419 0.929 . S
H408 C422 0.930 . S
H409 C424 0.960 . S
H410 C424 0.960 . S
H411 C424 0.960 . S
C412 H404 0.929 . S
C412 C413 1.377 . S
C412 C414 1.384 . S
C413 C412 1.377 . S
C413 C419 1.390 . S
C414 H405 0.930 . S
C414 C412 1.384 . S
C414 C415 1.372 . S
C415 C414 1.372 . S
C415 C416 1.400 . S
C415 C420 1.490 . S
C416 H406 0.930 . S
C416 C415 1.400 . S
C416 C419 1.386 . S
H417 C433 0.930 . S
H418 C434 0.931 . S
C419 H407 0.929 . S
C419 C413 1.390 . S
C419 C416 1.386 . S
C420 C415 1.490 . S
C420 C422 1.395 . S
C420 C423 1.403 . S
H421 C427 0.930 . S
C422 H408 0.930 . S
C422 C420 1.395 . S
C422 C425 1.403 . S
C423 C420 1.403 . S
C423 C424 1.524 . S
C423 C427 1.400 . S
C424 H409 0.960 . S
C424 H410 0.960 . S
C424 H411 0.960 . S
C424 C423 1.524 . S
C425 C422 1.403 . S
C425 C426 1.392 . S
C425 C429 1.495 . S
C426 C425 1.392 . S
C426 C427 1.385 . S
C426 C428 1.478 . S
C427 H421 0.930 . S
C427 C423 1.400 . S
C427 C426 1.385 . S
C428 C426 1.478 . S
C428 C430 1.381 . S
C428 C434 1.383 . S
C429 C425 1.495 . S
C429 H435 0.959 . S
C429 H436 0.961 . S
C429 H437 0.960 . S
C430 C428 1.381 . S
C430 C431 1.394 . S
C430 H438 0.930 . S
C431 C430 1.394 . S
C431 C432 1.383 . S
C431 H439 0.929 . S
C432 C431 1.383 . S
C432 C433 1.377 . S
C433 H417 0.930 . S
C433 C432 1.377 . S
C433 C434 1.379 . S
C434 H418 0.931 . S
C434 C428 1.383 . S
C434 C433 1.379 . S
H435 C429 0.959 . S
H436 C429 0.961 . S
H437 C429 0.960 . S
H438 C430 0.930 . S
H439 C431 0.929 . S
H440 C448 0.929 . S
H441 C450 0.930 . S
H442 C452 0.930 . S
H443 C455 0.929 . S
H444 C458 0.930 . S
H445 C460 0.960 . S
H446 C460 0.960 . S
H447 C460 0.960 . S
C448 H440 0.929 . S
C448 C449 1.377 . S
C448 C450 1.384 . S
C449 C448 1.377 . S
C449 C455 1.390 . S
C450 H441 0.930 . S
C450 C448 1.384 . S
C450 C451 1.372 . S
C451 C450 1.372 . S
C451 C452 1.400 . S
C451 C456 1.490 . S
C452 H442 0.930 . S
C452 C451 1.400 . S
C452 C455 1.386 . S
H453 C469 0.930 . S
H454 C470 0.931 . S
C455 H443 0.929 . S
C455 C449 1.390 . S
C455 C452 1.386 . S
C456 C451 1.490 . S
C456 C458 1.395 . S
C456 C459 1.403 . S
H457 C463 0.930 . S
C458 H444 0.930 . S
C458 C456 1.395 . S
C458 C461 1.403 . S
C459 C456 1.403 . S
C459 C460 1.524 . S
C459 C463 1.400 . S
C460 H445 0.960 . S
C460 H446 0.960 . S
C460 H447 0.960 . S
C460 C459 1.524 . S
C461 C458 1.403 . S
C461 C462 1.392 . S
C461 C465 1.495 . S
C462 C461 1.392 . S
C462 C463 1.385 . S
C462 C464 1.478 . S
C463 H457 0.930 . S
C463 C459 1.400 . S
C463 C462 1.385 . S
C464 C462 1.478 . S
C464 C466 1.381 . S
C464 C470 1.383 . S
C465 C461 1.495 . S
C465 H471 0.959 . S
C465 H472 0.961 . S
C465 H473 0.960 . S
C466 C464 1.381 . S
C466 C467 1.394 . S
C466 H474 0.930 . S
C467 C466 1.394 . S
C467 C468 1.383 . S
C467 H475 0.929 . S
C468 C467 1.383 . S
C468 C469 1.377 . S
C469 H453 0.930 . S
C469 C468 1.377 . S
C469 C470 1.379 . S
C470 H454 0.931 . S
C470 C464 1.383 . S
C470 C469 1.379 . S
H471 C465 0.959 . S
H472 C465 0.961 . S
H473 C465 0.960 . S
H474 C466 0.930 . S
H475 C467 0.929 . S
H476 C484 0.929 . S
H477 C486 0.930 . S
H478 C488 0.930 . S
H479 C491 0.929 . S
H480 C494 0.930 . S
H481 C496 0.960 . S
H482 C496 0.960 . S
H483 C496 0.960 . S
C484 H476 0.929 . S
C484 C485 1.377 . S
C484 C486 1.384 . S
C485 C484 1.377 . S
C485 C491 1.390 . S
C486 H477 0.930 . S
C486 C484 1.384 . S
C486 C487 1.372 . S
C487 C486 1.372 . S
C487 C488 1.400 . S
C487 C492 1.490 . S
C488 H478 0.930 . S
C488 C487 1.400 . S
C488 C491 1.386 . S
H489 C505 0.930 . S
H490 C506 0.931 . S
C491 H479 0.929 . S
C491 C485 1.390 . S
C491 C488 1.386 . S
C492 C487 1.490 . S
C492 C494 1.395 . S
C492 C495 1.403 . S
H493 C499 0.930 . S
C494 H480 0.930 . S
C494 C492 1.395 . S
C494 C497 1.403 . S
C495 C492 1.403 . S
C495 C496 1.524 . S
C495 C499 1.400 . S
C496 H481 0.960 . S
C496 H482 0.960 . S
C496 H483 0.960 . S
C496 C495 1.524 . S
C497 C494 1.403 . S
C497 C498 1.392 . S
C497 C501 1.495 . S
C498 C497 1.392 . S
C498 C499 1.385 . S
C498 C500 1.478 . S
C499 H493 0.930 . S
C499 C495 1.400 . S
C499 C498 1.385 . S
C500 C498 1.478 . S
C500 C502 1.381 . S
C500 C506 1.383 . S
C501 C497 1.495 . S
C501 H507 0.959 . S
C501 H508 0.961 . S
C501 H509 0.960 . S
C502 C500 1.381 . S
C502 C503 1.394 . S
C502 H510 0.930 . S
C503 C502 1.394 . S
C503 C504 1.383 . S
C503 H511 0.929 . S
C504 C503 1.383 . S
C504 C505 1.377 . S
C505 H489 0.930 . S
C505 C504 1.377 . S
C505 C506 1.379 . S
C506 H490 0.931 . S
C506 C500 1.383 . S
C506 C505 1.379 . S
H507 C501 0.959 . S
H508 C501 0.961 . S
H509 C501 0.960 . S
H510 C502 0.930 . S
H511 C503 0.929 . S
H512 C520 0.929 . S
H513 C522 0.930 . S
H514 C524 0.930 . S
H515 C527 0.929 . S
H516 C530 0.930 . S
H517 C532 0.960 . S
H518 C532 0.960 . S
H519 C532 0.960 . S
C520 H512 0.929 . S
C520 C521 1.377 . S
C520 C522 1.384 . S
C521 C520 1.377 . S
C521 C527 1.390 . S
C522 H513 0.930 . S
C522 C520 1.384 . S
C522 C523 1.372 . S
C523 C522 1.372 . S
C523 C524 1.400 . S
C523 C528 1.490 . S
C524 H514 0.930 . S
C524 C523 1.400 . S
C524 C527 1.386 . S
H525 C541 0.930 . S
H526 C542 0.931 . S
C527 H515 0.929 . S
C527 C521 1.390 . S
C527 C524 1.386 . S
C528 C523 1.490 . S
C528 C530 1.395 . S
C528 C531 1.403 . S
H529 C535 0.930 . S
C530 H516 0.930 . S
C530 C528 1.395 . S
C530 C533 1.403 1_556 S
C531 C528 1.403 . S
C531 C532 1.524 . S
C531 C535 1.400 1_556 S
C532 H517 0.960 . S
C532 H518 0.960 . S
C532 H519 0.960 . S
C532 C531 1.524 . S
C533 C530 1.403 1_554 S
C533 C534 1.392 . S
C533 C537 1.495 . S
C534 C533 1.392 . S
C534 C535 1.385 . S
C534 C536 1.478 . S
C535 H529 0.930 . S
C535 C531 1.400 1_554 S
C535 C534 1.385 . S
C536 C534 1.478 . S
C536 C538 1.381 . S
C536 C542 1.383 . S
C537 C533 1.495 . S
C537 H543 0.959 . S
C537 H544 0.961 . S
C537 H545 0.960 . S
C538 C536 1.381 . S
C538 C539 1.394 . S
C538 H546 0.930 . S
C539 C538 1.394 . S
C539 C540 1.383 . S
C539 H547 0.929 . S
C540 C539 1.383 . S
C540 C541 1.377 . S
C541 H525 0.930 . S
C541 C540 1.377 . S
C541 C542 1.379 . S
C542 H526 0.931 . S
C542 C536 1.383 . S
C542 C541 1.379 . S
H543 C537 0.959 . S
H544 C537 0.961 . S
H545 C537 0.960 . S
H546 C538 0.930 . S
H547 C539 0.929 . S
H548 C556 0.929 . S
H549 C558 0.930 . S
H550 C560 0.930 . S
H551 C563 0.929 . S
H552 C566 0.930 . S
H553 C568 0.960 . S
H554 C568 0.960 . S
H555 C568 0.960 . S
C556 H548 0.929 . S
C556 C557 1.377 . S
C556 C558 1.384 . S
C557 C556 1.377 . S
C557 C563 1.390 . S
C558 H549 0.930 . S
C558 C556 1.384 . S
C558 C559 1.372 . S
C559 C558 1.372 . S
C559 C560 1.400 . S
C559 C564 1.490 . S
C560 H550 0.930 . S
C560 C559 1.400 . S
C560 C563 1.386 . S
H561 C577 0.930 . S
H562 C578 0.931 . S
C563 H551 0.929 . S
C563 C557 1.390 . S
C563 C560 1.386 . S
C564 C559 1.490 . S
C564 C566 1.395 . S
C564 C567 1.403 . S
H565 C571 0.930 . S
C566 H552 0.930 . S
C566 C564 1.395 . S
C566 C569 1.403 1_556 S
C567 C564 1.403 . S
C567 C568 1.524 . S
C567 C571 1.400 1_556 S
C568 H553 0.960 . S
C568 H554 0.960 . S
C568 H555 0.960 . S
C568 C567 1.524 . S
C569 C566 1.403 1_554 S
C569 C570 1.392 . S
C569 C573 1.495 . S
C570 C569 1.392 . S
C570 C571 1.385 . S
C570 C572 1.478 . S
C571 H565 0.930 . S
C571 C567 1.400 1_554 S
C571 C570 1.385 . S
C572 C570 1.478 . S
C572 C574 1.381 . S
C572 C578 1.383 . S
C573 C569 1.495 . S
C573 H579 0.959 . S
C573 H580 0.961 . S
C573 H581 0.960 . S
C574 C572 1.381 . S
C574 C575 1.394 . S
C574 H582 0.930 . S
C575 C574 1.394 . S
C575 C576 1.383 . S
C575 H583 0.929 . S
C576 C575 1.383 . S
C576 C577 1.377 . S
C577 H561 0.930 . S
C577 C576 1.377 . S
C577 C578 1.379 . S
C578 H562 0.931 . S
C578 C572 1.383 . S
C578 C577 1.379 . S
H579 C573 0.959 . S
H580 C573 0.961 . S
H581 C573 0.960 . S
H582 C574 0.930 . S
H583 C575 0.929 . S
H584 C592 0.929 . S
H585 C594 0.930 . S
H586 C596 0.930 . S
H587 C599 0.929 . S
H588 C602 0.930 . S
H589 C604 0.960 . S
H590 C604 0.960 . S
H591 C604 0.960 . S
C592 H584 0.929 . S
C592 C593 1.377 . S
C592 C594 1.384 . S
C593 C592 1.377 . S
C593 C599 1.390 . S
C594 H585 0.930 . S
C594 C592 1.384 . S
C594 C595 1.372 . S
C595 C594 1.372 . S
C595 C596 1.400 . S
C595 C600 1.490 . S
C596 H586 0.930 . S
C596 C595 1.400 . S
C596 C599 1.386 . S
H597 C613 0.930 . S
H598 C614 0.931 . S
C599 H587 0.929 . S
C599 C593 1.390 . S
C599 C596 1.386 . S
C600 C595 1.490 . S
C600 C602 1.395 . S
C600 C603 1.403 . S
H601 C607 0.930 . S
C602 H588 0.930 . S
C602 C600 1.395 . S
C602 C605 1.403 1_556 S
C603 C600 1.403 . S
C603 C604 1.524 . S
C603 C607 1.400 1_556 S
C604 H589 0.960 . S
C604 H590 0.960 . S
C604 H591 0.960 . S
C604 C603 1.524 . S
C605 C602 1.403 1_554 S
C605 C606 1.392 . S
C605 C609 1.495 . S
C606 C605 1.392 . S
C606 C607 1.385 . S
C606 C608 1.478 . S
C607 H601 0.930 . S
C607 C603 1.400 1_554 S
C607 C606 1.385 . S
C608 C606 1.478 . S
C608 C610 1.381 . S
C608 C614 1.383 . S
C609 C605 1.495 . S
C609 H615 0.959 . S
C609 H616 0.961 . S
C609 H617 0.960 . S
C610 C608 1.381 . S
C610 C611 1.394 . S
C610 H618 0.930 . S
C611 C610 1.394 . S
C611 C612 1.383 . S
C611 H619 0.929 . S
C612 C611 1.383 . S
C612 C613 1.377 . S
C613 H597 0.930 . S
C613 C612 1.377 . S
C613 C614 1.379 . S
C614 H598 0.931 . S
C614 C608 1.383 . S
C614 C613 1.379 . S
H615 C609 0.959 . S
H616 C609 0.961 . S
H617 C609 0.960 . S
H618 C610 0.930 . S
H619 C611 0.929 . S
H620 C628 0.929 . S
H621 C630 0.930 . S
H622 C632 0.930 . S
H623 C635 0.929 . S
H624 C638 0.930 . S
H625 C640 0.960 . S
H626 C640 0.960 . S
H627 C640 0.960 . S
C628 H620 0.929 . S
C628 C629 1.377 . S
C628 C630 1.384 . S
C629 C628 1.377 . S
C629 C635 1.390 . S
C630 H621 0.930 . S
C630 C628 1.384 . S
C630 C631 1.372 . S
C631 C630 1.372 . S
C631 C632 1.400 . S
C631 C636 1.490 . S
C632 H622 0.930 . S
C632 C631 1.400 . S
C632 C635 1.386 . S
H633 C649 0.930 . S
H634 C650 0.931 . S
C635 H623 0.929 . S
C635 C629 1.390 . S
C635 C632 1.386 . S
C636 C631 1.490 . S
C636 C638 1.395 . S
C636 C639 1.403 . S
H637 C643 0.930 . S
C638 H624 0.930 . S
C638 C636 1.395 . S
C638 C641 1.403 1_554 S
C639 C636 1.403 . S
C639 C640 1.524 . S
C639 C643 1.400 1_554 S
C640 H625 0.960 . S
C640 H626 0.960 . S
C640 H627 0.960 . S
C640 C639 1.524 . S
C641 C638 1.403 1_556 S
C641 C642 1.392 . S
C641 C645 1.495 . S
C642 C641 1.392 . S
C642 C643 1.385 . S
C642 C644 1.478 . S
C643 H637 0.930 . S
C643 C639 1.400 1_556 S
C643 C642 1.385 . S
C644 C642 1.478 . S
C644 C646 1.381 . S
C644 C650 1.383 . S
C645 C641 1.495 . S
C645 H651 0.959 . S
C645 H652 0.961 . S
C645 H653 0.960 . S
C646 C644 1.381 . S
C646 C647 1.394 . S
C646 H654 0.930 . S
C647 C646 1.394 . S
C647 C648 1.383 . S
C647 H655 0.929 . S
C648 C647 1.383 . S
C648 C649 1.377 . S
C649 H633 0.930 . S
C649 C648 1.377 . S
C649 C650 1.379 . S
C650 H634 0.931 . S
C650 C644 1.383 . S
C650 C649 1.379 . S
H651 C645 0.959 . S
H652 C645 0.961 . S
H653 C645 0.960 . S
H654 C646 0.930 . S
H655 C647 0.929 . S
H656 C664 0.929 . S
H657 C666 0.930 . S
H658 C668 0.930 . S
H659 C671 0.929 . S
H660 C674 0.930 . S
H661 C676 0.960 . S
H662 C676 0.960 . S
H663 C676 0.960 . S
C664 H656 0.929 . S
C664 C665 1.377 . S
C664 C666 1.384 . S
C665 C664 1.377 . S
C665 C671 1.390 . S
C666 H657 0.930 . S
C666 C664 1.384 . S
C666 C667 1.372 . S
C667 C666 1.372 . S
C667 C668 1.400 . S
C667 C672 1.490 . S
C668 H658 0.930 . S
C668 C667 1.400 . S
C668 C671 1.386 . S
H669 C685 0.930 . S
H670 C686 0.931 . S
C671 H659 0.929 . S
C671 C665 1.390 . S
C671 C668 1.386 . S
C672 C667 1.490 . S
C672 C674 1.395 . S
C672 C675 1.403 . S
H673 C679 0.930 . S
C674 H660 0.930 . S
C674 C672 1.395 . S
C674 C677 1.403 1_455 S
C675 C672 1.403 . S
C675 C676 1.524 . S
C675 C679 1.400 1_455 S
C676 H661 0.960 . S
C676 H662 0.960 . S
C676 H663 0.960 . S
C676 C675 1.524 . S
C677 C674 1.403 1_655 S
C677 C678 1.392 . S
C677 C681 1.495 . S
C678 C677 1.392 . S
C678 C679 1.385 . S
C678 C680 1.478 . S
C679 H673 0.930 . S
C679 C675 1.400 1_655 S
C679 C678 1.385 . S
C680 C678 1.478 . S
C680 C682 1.381 . S
C680 C686 1.383 . S
C681 C677 1.495 . S
C681 H687 0.959 . S
C681 H688 0.961 . S
C681 H689 0.960 . S
C682 C680 1.381 . S
C682 C683 1.394 . S
C682 H690 0.930 . S
C683 C682 1.394 . S
C683 C684 1.383 . S
C683 H691 0.929 . S
C684 C683 1.383 . S
C684 C685 1.377 . S
C685 H669 0.930 . S
C685 C684 1.377 . S
C685 C686 1.379 . S
C686 H670 0.931 . S
C686 C680 1.383 . S
C686 C685 1.379 . S
H687 C681 0.959 . S
H688 C681 0.961 . S
H689 C681 0.960 . S
H690 C682 0.930 . S
H691 C683 0.929 . S
H692 C700 0.929 . S
H693 C702 0.930 . S
H694 C704 0.930 . S
H695 C707 0.929 . S
H696 C710 0.930 . S
H697 C712 0.960 . S
H698 C712 0.960 . S
H699 C712 0.960 . S
C700 H692 0.929 . S
C700 C701 1.377 . S
C700 C702 1.384 . S
C701 C700 1.377 . S
C701 C707 1.390 . S
C702 H693 0.930 . S
C702 C700 1.384 . S
C702 C703 1.372 . S
C703 C702 1.372 . S
C703 C704 1.400 . S
C703 C708 1.490 . S
C704 H694 0.930 . S
C704 C703 1.400 . S
C704 C707 1.386 . S
H705 C721 0.930 . S
H706 C722 0.931 . S
C707 H695 0.929 . S
C707 C701 1.390 . S
C707 C704 1.386 . S
C708 C703 1.490 . S
C708 C710 1.395 . S
C708 C711 1.403 . S
H709 C715 0.930 . S
C710 H696 0.930 . S
C710 C708 1.395 . S
C710 C713 1.403 1_565 S
C711 C708 1.403 . S
C711 C712 1.524 . S
C711 C715 1.400 1_565 S
C712 H697 0.960 . S
C712 H698 0.960 . S
C712 H699 0.960 . S
C712 C711 1.524 . S
C713 C710 1.403 1_545 S
C713 C714 1.392 . S
C713 C717 1.495 . S
C714 C713 1.392 . S
C714 C715 1.385 . S
C714 C716 1.478 . S
C715 H709 0.930 . S
C715 C711 1.400 1_545 S
C715 C714 1.385 . S
C716 C714 1.478 . S
C716 C718 1.381 . S
C716 C722 1.383 . S
C717 C713 1.495 . S
C717 H723 0.959 . S
C717 H724 0.961 . S
C717 H725 0.960 . S
C718 C716 1.381 . S
C718 C719 1.394 . S
C718 H726 0.930 . S
C719 C718 1.394 . S
C719 C720 1.383 . S
C719 H727 0.929 . S
C720 C719 1.383 . S
C720 C721 1.377 . S
C721 H705 0.930 . S
C721 C720 1.377 . S
C721 C722 1.379 . S
C722 H706 0.931 . S
C722 C716 1.383 . S
C722 C721 1.379 . S
H723 C717 0.959 . S
H724 C717 0.961 . S
H725 C717 0.960 . S
H726 C718 0.930 . S
H727 C719 0.929 . S
H728 C736 0.929 . S
H729 C738 0.930 . S
H730 C740 0.930 . S
H731 C743 0.929 . S
H732 C746 0.930 . S
H733 C748 0.960 . S
H734 C748 0.960 . S
H735 C748 0.960 . S
C736 H728 0.929 . S
C736 C737 1.377 . S
C736 C738 1.384 . S
C737 C736 1.377 . S
C737 C743 1.390 . S
C738 H729 0.930 . S
C738 C736 1.384 . S
C738 C739 1.372 . S
C739 C738 1.372 . S
C739 C740 1.400 . S
C739 C744 1.490 . S
C740 H730 0.930 . S
C740 C739 1.400 . S
C740 C743 1.386 . S
H741 C757 0.930 . S
H742 C758 0.931 . S
C743 H731 0.929 . S
C743 C737 1.390 . S
C743 C740 1.386 . S
C744 C739 1.490 . S
C744 C746 1.395 . S
C744 C747 1.403 . S
H745 C751 0.930 . S
C746 H732 0.930 . S
C746 C744 1.395 . S
C746 C749 1.403 1_655 S
C747 C744 1.403 . S
C747 C748 1.524 . S
C747 C751 1.400 1_655 S
C748 H733 0.960 . S
C748 H734 0.960 . S
C748 H735 0.960 . S
C748 C747 1.524 . S
C749 C746 1.403 1_455 S
C749 C750 1.392 . S
C749 C753 1.495 . S
C750 C749 1.392 . S
C750 C751 1.385 . S
C750 C752 1.478 . S
C751 H745 0.930 . S
C751 C747 1.400 1_455 S
C751 C750 1.385 . S
C752 C750 1.478 . S
C752 C754 1.381 . S
C752 C758 1.383 . S
C753 C749 1.495 . S
C753 H759 0.959 . S
C753 H760 0.961 . S
C753 H761 0.960 . S
C754 C752 1.381 . S
C754 C755 1.394 . S
C754 H762 0.930 . S
C755 C754 1.394 . S
C755 C756 1.383 . S
C755 H763 0.929 . S
C756 C755 1.383 . S
C756 C757 1.377 . S
C757 H741 0.930 . S
C757 C756 1.377 . S
C757 C758 1.379 . S
C758 H742 0.931 . S
C758 C752 1.383 . S
C758 C757 1.379 . S
H759 C753 0.959 . S
H760 C753 0.961 . S
H761 C753 0.960 . S
H762 C754 0.930 . S
H763 C755 0.929 . S
H764 C772 0.929 . S
H765 C774 0.930 . S
H766 C776 0.930 . S
H767 C779 0.929 . S
H768 C782 0.930 . S
H769 C784 0.960 . S
H770 C784 0.960 . S
H771 C784 0.960 . S
C772 H764 0.929 . S
C772 C773 1.377 . S
C772 C774 1.384 . S
C773 C772 1.377 . S
C773 C779 1.390 . S
C774 H765 0.930 . S
C774 C772 1.384 . S
C774 C775 1.372 . S
C775 C774 1.372 . S
C775 C776 1.400 . S
C775 C780 1.490 . S
C776 H766 0.930 . S
C776 C775 1.400 . S
C776 C779 1.386 . S
H777 C793 0.930 . S
H778 C794 0.931 . S
C779 H767 0.929 . S
C779 C773 1.390 . S
C779 C776 1.386 . S
C780 C775 1.490 . S
C780 C782 1.395 . S
C780 C783 1.403 . S
H781 C787 0.930 . S
C782 H768 0.930 . S
C782 C780 1.395 . S
C782 C785 1.403 1_545 S
C783 C780 1.403 . S
C783 C784 1.524 . S
C783 C787 1.400 1_545 S
C784 H769 0.960 . S
C784 H770 0.960 . S
C784 H771 0.960 . S
C784 C783 1.524 . S
C785 C782 1.403 1_565 S
C785 C786 1.392 . S
C785 C789 1.495 . S
C786 C785 1.392 . S
C786 C787 1.385 . S
C786 C788 1.478 . S
C787 H781 0.930 . S
C787 C783 1.400 1_565 S
C787 C786 1.385 . S
C788 C786 1.478 . S
C788 C790 1.381 . S
C788 C794 1.383 . S
C789 C785 1.495 . S
C789 H795 0.959 . S
C789 H796 0.961 . S
C789 H797 0.960 . S
C790 C788 1.381 . S
C790 C791 1.394 . S
C790 H798 0.930 . S
C791 C790 1.394 . S
C791 C792 1.383 . S
C791 H799 0.929 . S
C792 C791 1.383 . S
C792 C793 1.377 . S
C793 H777 0.930 . S
C793 C792 1.377 . S
C793 C794 1.379 . S
C794 H778 0.931 . S
C794 C788 1.383 . S
C794 C793 1.379 . S
H795 C789 0.959 . S
H796 C789 0.961 . S
H797 C789 0.960 . S
H798 C790 0.930 . S
H799 C791 0.929 . S
H800 C808 0.929 . S
H801 C810 0.930 . S
H802 C812 0.930 . S
H803 C815 0.929 . S
H804 C818 0.930 . S
H805 C820 0.960 . S
H806 C820 0.960 . S
H807 C820 0.960 . S
C808 H800 0.929 . S
C808 C809 1.377 . S
C808 C810 1.384 . S
C809 C808 1.377 . S
C809 C815 1.390 . S
C810 H801 0.930 . S
C810 C808 1.384 . S
C810 C811 1.372 . S
C811 C810 1.372 . S
C811 C812 1.400 . S
C811 C816 1.490 . S
C812 H802 0.930 . S
C812 C811 1.400 . S
C812 C815 1.386 . S
H813 C829 0.930 . S
H814 C830 0.931 . S
C815 H803 0.929 . S
C815 C809 1.390 . S
C815 C812 1.386 . S
C816 C811 1.490 . S
C816 C818 1.395 . S
C816 C819 1.403 . S
H817 C823 0.930 . S
C818 H804 0.930 . S
C818 C816 1.395 . S
C818 C821 1.403 1_655 S
C819 C816 1.403 . S
C819 C820 1.524 . S
C819 C823 1.400 1_655 S
C820 H805 0.960 . S
C820 H806 0.960 . S
C820 H807 0.960 . S
C820 C819 1.524 . S
C821 C818 1.403 1_455 S
C821 C822 1.392 . S
C821 C825 1.495 . S
C822 C821 1.392 . S
C822 C823 1.385 . S
C822 C824 1.478 . S
C823 H817 0.930 . S
C823 C819 1.400 1_455 S
C823 C822 1.385 . S
C824 C822 1.478 . S
C824 C826 1.381 . S
C824 C830 1.383 . S
C825 C821 1.495 . S
C825 H831 0.959 . S
C825 H832 0.961 . S
C825 H833 0.960 . S
C826 C824 1.381 . S
C826 C827 1.394 . S
C826 H834 0.930 . S
C827 C826 1.394 . S
C827 C828 1.383 . S
C827 H835 0.929 . S
C828 C827 1.383 . S
C828 C829 1.377 . S
C829 H813 0.930 . S
C829 C828 1.377 . S
C829 C830 1.379 . S
C830 H814 0.931 . S
C830 C824 1.383 . S
C830 C829 1.379 . S
H831 C825 0.959 . S
H832 C825 0.961 . S
H833 C825 0.960 . S
H834 C826 0.930 . S
H835 C827 0.929 . S
H836 C844 0.929 . S
H837 C846 0.930 . S
H838 C848 0.930 . S
H839 C851 0.929 . S
H840 C854 0.930 . S
H841 C856 0.960 . S
H842 C856 0.960 . S
H843 C856 0.960 . S
C844 H836 0.929 . S
C844 C845 1.377 . S
C844 C846 1.384 . S
C845 C844 1.377 . S
C845 C851 1.390 . S
C846 H837 0.930 . S
C846 C844 1.384 . S
C846 C847 1.372 . S
C847 C846 1.372 . S
C847 C848 1.400 . S
C847 C852 1.490 . S
C848 H838 0.930 . S
C848 C847 1.400 . S
C848 C851 1.386 . S
H849 C865 0.930 . S
H850 C866 0.931 . S
C851 H839 0.929 . S
C851 C845 1.390 . S
C851 C848 1.386 . S
C852 C847 1.490 . S
C852 C854 1.395 . S
C852 C855 1.403 . S
H853 C859 0.930 . S
C854 H840 0.930 . S
C854 C852 1.395 . S
C854 C857 1.403 1_565 S
C855 C852 1.403 . S
C855 C856 1.524 . S
C855 C859 1.400 1_565 S
C856 H841 0.960 . S
C856 H842 0.960 . S
C856 H843 0.960 . S
C856 C855 1.524 . S
C857 C854 1.403 1_545 S
C857 C858 1.392 . S
C857 C861 1.495 . S
C858 C857 1.392 . S
C858 C859 1.385 . S
C858 C860 1.478 . S
C859 H853 0.930 . S
C859 C855 1.400 1_545 S
C859 C858 1.385 . S
C860 C858 1.478 . S
C860 C862 1.381 . S
C860 C866 1.383 . S
C861 C857 1.495 . S
C861 H867 0.959 . S
C861 H868 0.961 . S
C861 H869 0.960 . S
C862 C860 1.381 . S
C862 C863 1.394 . S
C862 H870 0.930 . S
C863 C862 1.394 . S
C863 C864 1.383 . S
C863 H871 0.929 . S
C864 C863 1.383 . S
C864 C865 1.377 . S
C865 H849 0.930 . S
C865 C864 1.377 . S
C865 C866 1.379 . S
C866 H850 0.931 . S
C866 C860 1.383 . S
C866 C865 1.379 . S
H867 C861 0.959 . S
H868 C861 0.961 . S
H869 C861 0.960 . S
H870 C862 0.930 . S
H871 C863 0.929 . S
H872 C880 0.929 . S
H873 C882 0.930 . S
H874 C884 0.930 . S
H875 C887 0.929 . S
H876 C890 0.930 . S
H877 C892 0.960 . S
H878 C892 0.960 . S
H879 C892 0.960 . S
C880 H872 0.929 . S
C880 C881 1.377 . S
C880 C882 1.384 . S
C881 C880 1.377 . S
C881 C887 1.390 . S
C882 H873 0.930 . S
C882 C880 1.384 . S
C882 C883 1.372 . S
C883 C882 1.372 . S
C883 C884 1.400 . S
C883 C888 1.490 . S
C884 H874 0.930 . S
C884 C883 1.400 . S
C884 C887 1.386 . S
H885 C901 0.930 . S
H886 C902 0.931 . S
C887 H875 0.929 . S
C887 C881 1.390 . S
C887 C884 1.386 . S
C888 C883 1.490 . S
C888 C890 1.395 . S
C888 C891 1.403 . S
H889 C895 0.930 . S
C890 H876 0.930 . S
C890 C888 1.395 . S
C890 C893 1.403 1_455 S
C891 C888 1.403 . S
C891 C892 1.524 . S
C891 C895 1.400 1_455 S
C892 H877 0.960 . S
C892 H878 0.960 . S
C892 H879 0.960 . S
C892 C891 1.524 . S
C893 C890 1.403 1_655 S
C893 C894 1.392 . S
C893 C897 1.495 . S
C894 C893 1.392 . S
C894 C895 1.385 . S
C894 C896 1.478 . S
C895 H889 0.930 . S
C895 C891 1.400 1_655 S
C895 C894 1.385 . S
C896 C894 1.478 . S
C896 C898 1.381 . S
C896 C902 1.383 . S
C897 C893 1.495 . S
C897 H903 0.959 . S
C897 H904 0.961 . S
C897 H905 0.960 . S
C898 C896 1.381 . S
C898 C899 1.394 . S
C898 H906 0.930 . S
C899 C898 1.394 . S
C899 C900 1.383 . S
C899 H907 0.929 . S
C900 C899 1.383 . S
C900 C901 1.377 . S
C901 H885 0.930 . S
C901 C900 1.377 . S
C901 C902 1.379 . S
C902 H886 0.931 . S
C902 C896 1.383 . S
C902 C901 1.379 . S
H903 C897 0.959 . S
H904 C897 0.961 . S
H905 C897 0.960 . S
H906 C898 0.930 . S
H907 C899 0.929 . S
H908 C916 0.929 . S
H909 C918 0.930 . S
H910 C920 0.930 . S
H911 C923 0.929 . S
H912 C926 0.930 . S
H913 C928 0.960 . S
H914 C928 0.960 . S
H915 C928 0.960 . S
C916 H908 0.929 . S
C916 C917 1.377 . S
C916 C918 1.384 . S
C917 C916 1.377 . S
C917 C923 1.390 . S
C918 H909 0.930 . S
C918 C916 1.384 . S
C918 C919 1.372 . S
C919 C918 1.372 . S
C919 C920 1.400 . S
C919 C924 1.490 . S
C920 H910 0.930 . S
C920 C919 1.400 . S
C920 C923 1.386 . S
H921 C937 0.930 . S
H922 C938 0.931 . S
C923 H911 0.929 . S
C923 C917 1.390 . S
C923 C920 1.386 . S
C924 C919 1.490 . S
C924 C926 1.395 . S
C924 C927 1.403 . S
H925 C931 0.930 . S
C926 H912 0.930 . S
C926 C924 1.395 . S
C926 C929 1.403 1_565 S
C927 C924 1.403 . S
C927 C928 1.524 . S
C927 C931 1.400 1_565 S
C928 H913 0.960 . S
C928 H914 0.960 . S
C928 H915 0.960 . S
C928 C927 1.524 . S
C929 C926 1.403 1_545 S
C929 C930 1.392 . S
C929 C933 1.495 . S
C930 C929 1.392 . S
C930 C931 1.385 . S
C930 C932 1.478 . S
C931 H925 0.930 . S
C931 C927 1.400 1_545 S
C931 C930 1.385 . S
C932 C930 1.478 . S
C932 C934 1.381 . S
C932 C938 1.383 . S
C933 C929 1.495 . S
C933 H939 0.959 . S
C933 H940 0.961 . S
C933 H941 0.960 . S
C934 C932 1.381 . S
C934 C935 1.394 . S
C934 H942 0.930 . S
C935 C934 1.394 . S
C935 C936 1.383 . S
C935 H943 0.929 . S
C936 C935 1.383 . S
C936 C937 1.377 . S
C937 H921 0.930 . S
C937 C936 1.377 . S
C937 C938 1.379 . S
C938 H922 0.931 . S
C938 C932 1.383 . S
C938 C937 1.379 . S
H939 C933 0.959 . S
H940 C933 0.961 . S
H941 C933 0.960 . S
H942 C934 0.930 . S
H943 C935 0.929 . S
H944 C952 0.929 . S
H945 C954 0.930 . S
H946 C956 0.930 . S
H947 C959 0.929 . S
H948 C962 0.930 . S
H949 C964 0.960 . S
H950 C964 0.960 . S
H951 C964 0.960 . S
C952 H944 0.929 . S
C952 C953 1.377 . S
C952 C954 1.384 . S
C953 C952 1.377 . S
C953 C959 1.390 . S
C954 H945 0.930 . S
C954 C952 1.384 . S
C954 C955 1.372 . S
C955 C954 1.372 . S
C955 C956 1.400 . S
C955 C960 1.490 . S
C956 H946 0.930 . S
C956 C955 1.400 . S
C956 C959 1.386 . S
H957 C973 0.930 . S
H958 C974 0.931 . S
C959 H947 0.929 . S
C959 C953 1.390 . S
C959 C956 1.386 . S
C960 C955 1.490 . S
C960 C962 1.395 . S
C960 C963 1.403 . S
H961 C967 0.930 . S
C962 H948 0.930 . S
C962 C960 1.395 . S
C962 C965 1.403 . S
C963 C960 1.403 . S
C963 C964 1.524 . S
C963 C967 1.400 . S
C964 H949 0.960 . S
C964 H950 0.960 . S
C964 H951 0.960 . S
C964 C963 1.524 . S
C965 C962 1.403 . S
C965 C966 1.392 . S
C965 C969 1.495 . S
C966 C965 1.392 . S
C966 C967 1.385 . S
C966 C968 1.478 . S
C967 H961 0.930 . S
C967 C963 1.400 . S
C967 C966 1.385 . S
C968 C966 1.478 . S
C968 C970 1.381 . S
C968 C974 1.383 . S
C969 C965 1.495 . S
C969 H975 0.959 . S
C969 H976 0.961 . S
C969 H977 0.960 . S
C970 C968 1.381 . S
C970 C971 1.394 . S
C970 H978 0.930 . S
C971 C970 1.394 . S
C971 C972 1.383 . S
C971 H979 0.929 . S
C972 C971 1.383 . S
C972 C973 1.377 . S
C973 H957 0.930 . S
C973 C972 1.377 . S
C973 C974 1.379 . S
C974 H958 0.931 . S
C974 C968 1.383 . S
C974 C973 1.379 . S
H975 C969 0.959 . S
H976 C969 0.961 . S
H977 C969 0.960 . S
H978 C970 0.930 . S
H979 C971 0.929 . S
H980 C988 0.929 . S
H981 C990 0.930 . S
H982 C992 0.930 . S
H983 C995 0.929 . S
H984 C998 0.930 . S
H985 C1000 0.960 . S
H986 C1000 0.960 . S
H987 C1000 0.960 . S
C988 H980 0.929 . S
C988 C989 1.377 . S
C988 C990 1.384 . S
C989 C988 1.377 . S
C989 C995 1.390 . S
C990 H981 0.930 . S
C990 C988 1.384 . S
C990 C991 1.372 . S
C991 C990 1.372 . S
C991 C992 1.400 . S
C991 C996 1.490 . S
C992 H982 0.930 . S
C992 C991 1.400 . S
C992 C995 1.386 . S
H993 C1009 0.930 . S
H994 C1010 0.931 . S
C995 H983 0.929 . S
C995 C989 1.390 . S
C995 C992 1.386 . S
C996 C991 1.490 . S
C996 C998 1.395 . S
C996 C999 1.403 . S
H997 C1003 0.930 . S
C998 H984 0.930 . S
C998 C996 1.395 . S
C998 C1001 1.403 . S
C999 C996 1.403 . S
C999 C1000 1.524 . S
C999 C1003 1.400 . S
C1000 H985 0.960 . S
C1000 H986 0.960 . S
C1000 H987 0.960 . S
C1000 C999 1.524 . S
C1001 C998 1.403 . S
C1001 C1002 1.392 . S
C1001 C1005 1.495 . S
C1002 C1001 1.392 . S
C1002 C1003 1.385 . S
C1002 C1004 1.478 . S
C1003 H997 0.930 . S
C1003 C999 1.400 . S
C1003 C1002 1.385 . S
C1004 C1002 1.478 . S
C1004 C1006 1.381 . S
C1004 C1010 1.383 . S
C1005 C1001 1.495 . S
C1005 H1011 0.959 . S
C1005 H1012 0.961 . S
C1005 H1013 0.960 . S
C1006 C1004 1.381 . S
C1006 C1007 1.394 . S
C1006 H1014 0.930 . S
C1007 C1006 1.394 . S
C1007 C1008 1.383 . S
C1007 H1015 0.929 . S
C1008 C1007 1.383 . S
C1008 C1009 1.377 . S
C1009 H993 0.930 . S
C1009 C1008 1.377 . S
C1009 C1010 1.379 . S
C1010 H994 0.931 . S
C1010 C1004 1.383 . S
C1010 C1009 1.379 . S
H1011 C1005 0.959 . S
H1012 C1005 0.961 . S
H1013 C1005 0.960 . S
H1014 C1006 0.930 . S
H1015 C1007 0.929 . S
H1016 C1024 0.929 . S
H1017 C1026 0.930 . S
H1018 C1028 0.930 . S
H1019 C1031 0.929 . S
H1020 C1034 0.930 . S
H1021 C1036 0.960 . S
H1022 C1036 0.960 . S
H1023 C1036 0.960 . S
C1024 H1016 0.929 . S
C1024 C1025 1.377 . S
C1024 C1026 1.384 . S
C1025 C1024 1.377 . S
C1025 C1031 1.390 . S
C1026 H1017 0.930 . S
C1026 C1024 1.384 . S
C1026 C1027 1.372 . S
C1027 C1026 1.372 . S
C1027 C1028 1.400 . S
C1027 C1032 1.490 . S
C1028 H1018 0.930 . S
C1028 C1027 1.400 . S
C1028 C1031 1.386 . S
H1029 C1045 0.930 . S
H1030 C1046 0.931 . S
C1031 H1019 0.929 . S
C1031 C1025 1.390 . S
C1031 C1028 1.386 . S
C1032 C1027 1.490 . S
C1032 C1034 1.395 . S
C1032 C1035 1.403 . S
H1033 C1039 0.930 . S
C1034 H1020 0.930 . S
C1034 C1032 1.395 . S
C1034 C1037 1.403 . S
C1035 C1032 1.403 . S
C1035 C1036 1.524 . S
C1035 C1039 1.400 . S
C1036 H1021 0.960 . S
C1036 H1022 0.960 . S
C1036 H1023 0.960 . S
C1036 C1035 1.524 . S
C1037 C1034 1.403 . S
C1037 C1038 1.392 . S
C1037 C1041 1.495 . S
C1038 C1037 1.392 . S
C1038 C1039 1.385 . S
C1038 C1040 1.478 . S
C1039 H1033 0.930 . S
C1039 C1035 1.400 . S
C1039 C1038 1.385 . S
C1040 C1038 1.478 . S
C1040 C1042 1.381 . S
C1040 C1046 1.383 . S
C1041 C1037 1.495 . S
C1041 H1047 0.959 . S
C1041 H1048 0.961 . S
C1041 H1049 0.960 . S
C1042 C1040 1.381 . S
C1042 C1043 1.394 . S
C1042 H1050 0.930 . S
C1043 C1042 1.394 . S
C1043 C1044 1.383 . S
C1043 H1051 0.929 . S
C1044 C1043 1.383 . S
C1044 C1045 1.377 . S
C1045 H1029 0.930 . S
C1045 C1044 1.377 . S
C1045 C1046 1.379 . S
C1046 H1030 0.931 . S
C1046 C1040 1.383 . S
C1046 C1045 1.379 . S
H1047 C1041 0.959 . S
H1048 C1041 0.961 . S
H1049 C1041 0.960 . S
H1050 C1042 0.930 . S
H1051 C1043 0.929 . S
H1052 C1060 0.929 . S
H1053 C1062 0.930 . S
H1054 C1064 0.930 . S
H1055 C1067 0.929 . S
H1056 C1070 0.930 . S
H1057 C1072 0.960 . S
H1058 C1072 0.960 . S
H1059 C1072 0.960 . S
C1060 H1052 0.929 . S
C1060 C1061 1.377 . S
C1060 C1062 1.384 . S
C1061 C1060 1.377 . S
C1061 C1067 1.390 . S
C1062 H1053 0.930 . S
C1062 C1060 1.384 . S
C1062 C1063 1.372 . S
C1063 C1062 1.372 . S
C1063 C1064 1.400 . S
C1063 C1068 1.490 . S
C1064 H1054 0.930 . S
C1064 C1063 1.400 . S
C1064 C1067 1.386 . S
H1065 C1081 0.930 . S
H1066 C1082 0.931 . S
C1067 H1055 0.929 . S
C1067 C1061 1.390 . S
C1067 C1064 1.386 . S
C1068 C1063 1.490 . S
C1068 C1070 1.395 . S
C1068 C1071 1.403 . S
H1069 C1075 0.930 . S
C1070 H1056 0.930 . S
C1070 C1068 1.395 . S
C1070 C1073 1.403 . S
C1071 C1068 1.403 . S
C1071 C1072 1.524 . S
C1071 C1075 1.400 . S
C1072 H1057 0.960 . S
C1072 H1058 0.960 . S
C1072 H1059 0.960 . S
C1072 C1071 1.524 . S
C1073 C1070 1.403 . S
C1073 C1074 1.392 . S
C1073 C1077 1.495 . S
C1074 C1073 1.392 . S
C1074 C1075 1.385 . S
C1074 C1076 1.478 . S
C1075 H1069 0.930 . S
C1075 C1071 1.400 . S
C1075 C1074 1.385 . S
C1076 C1074 1.478 . S
C1076 C1078 1.381 . S
C1076 C1082 1.383 . S
C1077 C1073 1.495 . S
C1077 H1083 0.959 . S
C1077 H1084 0.961 . S
C1077 H1085 0.960 . S
C1078 C1076 1.381 . S
C1078 C1079 1.394 . S
C1078 H1086 0.930 . S
C1079 C1078 1.394 . S
C1079 C1080 1.383 . S
C1079 H1087 0.929 . S
C1080 C1079 1.383 . S
C1080 C1081 1.377 . S
C1081 H1065 0.930 . S
C1081 C1080 1.377 . S
C1081 C1082 1.379 . S
C1082 H1066 0.931 . S
C1082 C1076 1.383 . S
C1082 C1081 1.379 . S
H1083 C1077 0.959 . S
H1084 C1077 0.961 . S
H1085 C1077 0.960 . S
H1086 C1078 0.930 . S
H1087 C1079 0.929 . S
H1088 C1096 0.929 . S
H1089 C1098 0.930 . S
H1090 C1100 0.930 . S
H1091 C1103 0.929 . S
H1092 C1106 0.930 . S
H1093 C1108 0.960 . S
H1094 C1108 0.960 . S
H1095 C1108 0.960 . S
C1096 H1088 0.929 . S
C1096 C1097 1.377 . S
C1096 C1098 1.384 . S
C1097 C1096 1.377 . S
C1097 C1103 1.390 . S
C1098 H1089 0.930 . S
C1098 C1096 1.384 . S
C1098 C1099 1.372 . S
C1099 C1098 1.372 . S
C1099 C1100 1.400 . S
C1099 C1104 1.490 . S
C1100 H1090 0.930 . S
C1100 C1099 1.400 . S
C1100 C1103 1.386 . S
H1101 C1117 0.930 . S
H1102 C1118 0.931 . S
C1103 H1091 0.929 . S
C1103 C1097 1.390 . S
C1103 C1100 1.386 . S
C1104 C1099 1.490 . S
C1104 C1106 1.395 . S
C1104 C1107 1.403 . S
H1105 C1111 0.930 . S
C1106 H1092 0.930 . S
C1106 C1104 1.395 . S
C1106 C1109 1.403 . S
C1107 C1104 1.403 . S
C1107 C1108 1.524 . S
C1107 C1111 1.400 . S
C1108 H1093 0.960 . S
C1108 H1094 0.960 . S
C1108 H1095 0.960 . S
C1108 C1107 1.524 . S
C1109 C1106 1.403 . S
C1109 C1110 1.392 . S
C1109 C1113 1.495 . S
C1110 C1109 1.392 . S
C1110 C1111 1.385 . S
C1110 C1112 1.478 . S
C1111 H1105 0.930 . S
C1111 C1107 1.400 . S
C1111 C1110 1.385 . S
C1112 C1110 1.478 . S
C1112 C1114 1.381 . S
C1112 C1118 1.383 . S
C1113 C1109 1.495 . S
C1113 H1119 0.959 . S
C1113 H1120 0.961 . S
C1113 H1121 0.960 . S
C1114 C1112 1.381 . S
C1114 C1115 1.394 . S
C1114 H1122 0.930 . S
C1115 C1114 1.394 . S
C1115 C1116 1.383 . S
C1115 H1123 0.929 . S
C1116 C1115 1.383 . S
C1116 C1117 1.377 . S
C1117 H1101 0.930 . S
C1117 C1116 1.377 . S
C1117 C1118 1.379 . S
C1118 H1102 0.931 . S
C1118 C1112 1.383 . S
C1118 C1117 1.379 . S
H1119 C1113 0.959 . S
H1120 C1113 0.961 . S
H1121 C1113 0.960 . S
H1122 C1114 0.930 . S
H1123 C1115 0.929 . S
H1124 C1132 0.929 . S
H1125 C1134 0.930 . S
H1126 C1136 0.930 . S
H1127 C1139 0.929 . S
H1128 C1142 0.930 . S
H1129 C1144 0.960 . S
H1130 C1144 0.960 . S
H1131 C1144 0.960 . S
C1132 H1124 0.929 . S
C1132 C1133 1.377 . S
C1132 C1134 1.384 . S
C1133 C1132 1.377 . S
C1133 C1139 1.390 . S
C1134 H1125 0.930 . S
C1134 C1132 1.384 . S
C1134 C1135 1.372 . S
C1135 C1134 1.372 . S
C1135 C1136 1.400 . S
C1135 C1140 1.490 . S
C1136 H1126 0.930 . S
C1136 C1135 1.400 . S
C1136 C1139 1.386 . S
H1137 C1153 0.930 . S
H1138 C1154 0.931 . S
C1139 H1127 0.929 . S
C1139 C1133 1.390 . S
C1139 C1136 1.386 . S
C1140 C1135 1.490 . S
C1140 C1142 1.395 . S
C1140 C1143 1.403 . S
H1141 C1147 0.930 . S
C1142 H1128 0.930 . S
C1142 C1140 1.395 . S
C1142 C1145 1.403 . S
C1143 C1140 1.403 . S
C1143 C1144 1.524 . S
C1143 C1147 1.400 . S
C1144 H1129 0.960 . S
C1144 H1130 0.960 . S
C1144 H1131 0.960 . S
C1144 C1143 1.524 . S
C1145 C1142 1.403 . S
C1145 C1146 1.392 . S
C1145 C1149 1.495 . S
C1146 C1145 1.392 . S
C1146 C1147 1.385 . S
C1146 C1148 1.478 . S
C1147 H1141 0.930 . S
C1147 C1143 1.400 . S
C1147 C1146 1.385 . S
C1148 C1146 1.478 . S
C1148 C1150 1.381 . S
C1148 C1154 1.383 . S
C1149 C1145 1.495 . S
C1149 H1155 0.959 . S
C1149 H1156 0.961 . S
C1149 H1157 0.960 . S
C1150 C1148 1.381 . S
C1150 C1151 1.394 . S
C1150 H1158 0.930 . S
C1151 C1150 1.394 . S
C1151 C1152 1.383 . S
C1151 H1159 0.929 . S
C1152 C1151 1.383 . S
C1152 C1153 1.377 . S
C1153 H1137 0.930 . S
C1153 C1152 1.377 . S
C1153 C1154 1.379 . S
C1154 H1138 0.931 . S
C1154 C1148 1.383 . S
C1154 C1153 1.379 . S
H1155 C1149 0.959 . S
H1156 C1149 0.961 . S
H1157 C1149 0.960 . S
H1158 C1150 0.930 . S
H1159 C1151 0.929 . S
H1160 C1168 0.929 . S
H1161 C1170 0.930 . S
H1162 C1172 0.930 . S
H1163 C1175 0.929 . S
H1164 C1178 0.930 . S
H1165 C1180 0.960 . S
H1166 C1180 0.960 . S
H1167 C1180 0.960 . S
C1168 H1160 0.929 . S
C1168 C1169 1.377 . S
C1168 C1170 1.384 . S
C1169 C1168 1.377 . S
C1169 C1175 1.390 . S
C1170 H1161 0.930 . S
C1170 C1168 1.384 . S
C1170 C1171 1.372 . S
C1171 C1170 1.372 . S
C1171 C1172 1.400 . S
C1171 C1176 1.490 . S
C1172 H1162 0.930 . S
C1172 C1171 1.400 . S
C1172 C1175 1.386 . S
H1173 C1189 0.930 . S
H1174 C1190 0.931 . S
C1175 H1163 0.929 . S
C1175 C1169 1.390 . S
C1175 C1172 1.386 . S
C1176 C1171 1.490 . S
C1176 C1178 1.395 . S
C1176 C1179 1.403 . S
H1177 C1183 0.930 . S
C1178 H1164 0.930 . S
C1178 C1176 1.395 . S
C1178 C1181 1.403 . S
C1179 C1176 1.403 . S
C1179 C1180 1.524 . S
C1179 C1183 1.400 . S
C1180 H1165 0.960 . S
C1180 H1166 0.960 . S
C1180 H1167 0.960 . S
C1180 C1179 1.524 . S
C1181 C1178 1.403 . S
C1181 C1182 1.392 . S
C1181 C1185 1.495 . S
C1182 C1181 1.392 . S
C1182 C1183 1.385 . S
C1182 C1184 1.478 . S
C1183 H1177 0.930 . S
C1183 C1179 1.400 . S
C1183 C1182 1.385 . S
C1184 C1182 1.478 . S
C1184 C1186 1.381 . S
C1184 C1190 1.383 . S
C1185 C1181 1.495 . S
C1185 H1191 0.959 . S
C1185 H1192 0.961 . S
C1185 H1193 0.960 . S
C1186 C1184 1.381 . S
C1186 C1187 1.394 . S
C1186 H1194 0.930 . S
C1187 C1186 1.394 . S
C1187 C1188 1.383 . S
C1187 H1195 0.929 . S
C1188 C1187 1.383 . S
C1188 C1189 1.377 . S
C1189 H1173 0.930 . S
C1189 C1188 1.377 . S
C1189 C1190 1.379 . S
C1190 H1174 0.931 . S
C1190 C1184 1.383 . S
C1190 C1189 1.379 . S
H1191 C1185 0.959 . S
H1192 C1185 0.961 . S
H1193 C1185 0.960 . S
H1194 C1186 0.930 . S
H1195 C1187 0.929 . S
H1196 C1204 0.929 . S
H1197 C1206 0.930 . S
H1198 C1208 0.930 . S
H1199 C1211 0.929 . S
H1200 C1214 0.930 . S
H1201 C1216 0.960 . S
H1202 C1216 0.960 . S
H1203 C1216 0.960 . S
C1204 H1196 0.929 . S
C1204 C1205 1.377 . S
C1204 C1206 1.384 . S
C1205 C1204 1.377 . S
C1205 C1211 1.390 . S
C1206 H1197 0.930 . S
C1206 C1204 1.384 . S
C1206 C1207 1.372 . S
C1207 C1206 1.372 . S
C1207 C1208 1.400 . S
C1207 C1212 1.490 . S
C1208 H1198 0.930 . S
C1208 C1207 1.400 . S
C1208 C1211 1.386 . S
H1209 C1225 0.930 . S
H1210 C1226 0.931 . S
C1211 H1199 0.929 . S
C1211 C1205 1.390 . S
C1211 C1208 1.386 . S
C1212 C1207 1.490 . S
C1212 C1214 1.395 . S
C1212 C1215 1.403 . S
H1213 C1219 0.930 . S
C1214 H1200 0.930 . S
C1214 C1212 1.395 . S
C1214 C1217 1.403 . S
C1215 C1212 1.403 . S
C1215 C1216 1.524 . S
C1215 C1219 1.400 . S
C1216 H1201 0.960 . S
C1216 H1202 0.960 . S
C1216 H1203 0.960 . S
C1216 C1215 1.524 . S
C1217 C1214 1.403 . S
C1217 C1218 1.392 . S
C1217 C1221 1.495 . S
C1218 C1217 1.392 . S
C1218 C1219 1.385 . S
C1218 C1220 1.478 . S
C1219 H1213 0.930 . S
C1219 C1215 1.400 . S
C1219 C1218 1.385 . S
C1220 C1218 1.478 . S
C1220 C1222 1.381 . S
C1220 C1226 1.383 . S
C1221 C1217 1.495 . S
C1221 H1227 0.959 . S
C1221 H1228 0.961 . S
C1221 H1229 0.960 . S
C1222 C1220 1.381 . S
C1222 C1223 1.394 . S
C1222 H1230 0.930 . S
C1223 C1222 1.394 . S
C1223 C1224 1.383 . S
C1223 H1231 0.929 . S
C1224 C1223 1.383 . S
C1224 C1225 1.377 . S
C1225 H1209 0.930 . S
C1225 C1224 1.377 . S
C1225 C1226 1.379 . S
C1226 H1210 0.931 . S
C1226 C1220 1.383 . S
C1226 C1225 1.379 . S
H1227 C1221 0.959 . S
H1228 C1221 0.961 . S
H1229 C1221 0.960 . S
H1230 C1222 0.930 . S
H1231 C1223 0.929 . S
H1232 C1240 0.929 . S
H1233 C1242 0.930 . S
H1234 C1244 0.930 . S
H1235 C1247 0.929 . S
H1236 C1250 0.930 . S
H1237 C1252 0.960 . S
H1238 C1252 0.960 . S
H1239 C1252 0.960 . S
C1240 H1232 0.929 . S
C1240 C1241 1.377 . S
C1240 C1242 1.384 . S
C1241 C1240 1.377 . S
C1241 C1247 1.390 . S
C1242 H1233 0.930 . S
C1242 C1240 1.384 . S
C1242 C1243 1.372 . S
C1243 C1242 1.372 . S
C1243 C1244 1.400 . S
C1243 C1248 1.490 . S
C1244 H1234 0.930 . S
C1244 C1243 1.400 . S
C1244 C1247 1.386 . S
H1245 C1261 0.930 . S
H1246 C1262 0.931 . S
C1247 H1235 0.929 . S
C1247 C1241 1.390 . S
C1247 C1244 1.386 . S
C1248 C1243 1.490 . S
C1248 C1250 1.395 . S
C1248 C1251 1.403 . S
H1249 C1255 0.930 . S
C1250 H1236 0.930 . S
C1250 C1248 1.395 . S
C1250 C1253 1.403 . S
C1251 C1248 1.403 . S
C1251 C1252 1.524 . S
C1251 C1255 1.400 . S
C1252 H1237 0.960 . S
C1252 H1238 0.960 . S
C1252 H1239 0.960 . S
C1252 C1251 1.524 . S
C1253 C1250 1.403 . S
C1253 C1254 1.392 . S
C1253 C1257 1.495 . S
C1254 C1253 1.392 . S
C1254 C1255 1.385 . S
C1254 C1256 1.478 . S
C1255 H1249 0.930 . S
C1255 C1251 1.400 . S
C1255 C1254 1.385 . S
C1256 C1254 1.478 . S
C1256 C1258 1.381 . S
C1256 C1262 1.383 . S
C1257 C1253 1.495 . S
C1257 H1263 0.959 . S
C1257 H1264 0.961 . S
C1257 H1265 0.960 . S
C1258 C1256 1.381 . S
C1258 C1259 1.394 . S
C1258 H1266 0.930 . S
C1259 C1258 1.394 . S
C1259 C1260 1.383 . S
C1259 H1267 0.929 . S
C1260 C1259 1.383 . S
C1260 C1261 1.377 . S
C1261 H1245 0.930 . S
C1261 C1260 1.377 . S
C1261 C1262 1.379 . S
C1262 H1246 0.931 . S
C1262 C1256 1.383 . S
C1262 C1261 1.379 . S
H1263 C1257 0.959 . S
H1264 C1257 0.961 . S
H1265 C1257 0.960 . S
H1266 C1258 0.930 . S
H1267 C1259 0.929 . S
H1268 C1276 0.929 . S
H1269 C1278 0.930 . S
H1270 C1280 0.930 . S
H1271 C1283 0.929 . S
H1272 C1286 0.930 . S
H1273 C1288 0.960 . S
H1274 C1288 0.960 . S
H1275 C1288 0.960 . S
C1276 H1268 0.929 . S
C1276 C1277 1.377 . S
C1276 C1278 1.384 . S
C1277 C1276 1.377 . S
C1277 C1283 1.390 . S
C1278 H1269 0.930 . S
C1278 C1276 1.384 . S
C1278 C1279 1.372 . S
C1279 C1278 1.372 . S
C1279 C1280 1.400 . S
C1279 C1284 1.490 . S
C1280 H1270 0.930 . S
C1280 C1279 1.400 . S
C1280 C1283 1.386 . S
H1281 C1297 0.930 . S
H1282 C1298 0.931 . S
C1283 H1271 0.929 . S
C1283 C1277 1.390 . S
C1283 C1280 1.386 . S
C1284 C1279 1.490 . S
C1284 C1286 1.395 . S
C1284 C1287 1.403 . S
H1285 C1291 0.930 . S
C1286 H1272 0.930 . S
C1286 C1284 1.395 . S
C1286 C1289 1.403 . S
C1287 C1284 1.403 . S
C1287 C1288 1.524 . S
C1287 C1291 1.400 . S
C1288 H1273 0.960 . S
C1288 H1274 0.960 . S
C1288 H1275 0.960 . S
C1288 C1287 1.524 . S
C1289 C1286 1.403 . S
C1289 C1290 1.392 . S
C1289 C1293 1.495 . S
C1290 C1289 1.392 . S
C1290 C1291 1.385 . S
C1290 C1292 1.478 . S
C1291 H1285 0.930 . S
C1291 C1287 1.400 . S
C1291 C1290 1.385 . S
C1292 C1290 1.478 . S
C1292 C1294 1.381 . S
C1292 C1298 1.383 . S
C1293 C1289 1.495 . S
C1293 H1299 0.959 . S
C1293 H1300 0.961 . S
C1293 H1301 0.960 . S
C1294 C1292 1.381 . S
C1294 C1295 1.394 . S
C1294 H1302 0.930 . S
C1295 C1294 1.394 . S
C1295 C1296 1.383 . S
C1295 H1303 0.929 . S
C1296 C1295 1.383 . S
C1296 C1297 1.377 . S
C1297 H1281 0.930 . S
C1297 C1296 1.377 . S
C1297 C1298 1.379 . S
C1298 H1282 0.931 . S
C1298 C1292 1.383 . S
C1298 C1297 1.379 . S
H1299 C1293 0.959 . S
H1300 C1293 0.961 . S
H1301 C1293 0.960 . S
H1302 C1294 0.930 . S
H1303 C1295 0.929 . S
H1304 C1312 0.929 . S
H1305 C1314 0.930 . S
H1306 C1316 0.930 . S
H1307 C1319 0.929 . S
H1308 C1322 0.930 . S
H1309 C1324 0.960 . S
H1310 C1324 0.960 . S
H1311 C1324 0.960 . S
C1312 H1304 0.929 . S
C1312 C1313 1.377 . S
C1312 C1314 1.384 . S
C1313 C1312 1.377 . S
C1313 C1319 1.390 . S
C1314 H1305 0.930 . S
C1314 C1312 1.384 . S
C1314 C1315 1.372 . S
C1315 C1314 1.372 . S
C1315 C1316 1.400 . S
C1315 C1320 1.490 . S
C1316 H1306 0.930 . S
C1316 C1315 1.400 . S
C1316 C1319 1.386 . S
H1317 C1333 0.930 . S
H1318 C1334 0.931 . S
C1319 H1307 0.929 . S
C1319 C1313 1.390 . S
C1319 C1316 1.386 . S
C1320 C1315 1.490 . S
C1320 C1322 1.395 . S
C1320 C1323 1.403 . S
H1321 C1327 0.930 . S
C1322 H1308 0.930 . S
C1322 C1320 1.395 . S
C1322 C1325 1.403 . S
C1323 C1320 1.403 . S
C1323 C1324 1.524 . S
C1323 C1327 1.400 . S
C1324 H1309 0.960 . S
C1324 H1310 0.960 . S
C1324 H1311 0.960 . S
C1324 C1323 1.524 . S
C1325 C1322 1.403 . S
C1325 C1326 1.392 . S
C1325 C1329 1.495 . S
C1326 C1325 1.392 . S
C1326 C1327 1.385 . S
C1326 C1328 1.478 . S
C1327 H1321 0.930 . S
C1327 C1323 1.400 . S
C1327 C1326 1.385 . S
C1328 C1326 1.478 . S
C1328 C1330 1.381 . S
C1328 C1334 1.383 . S
C1329 C1325 1.495 . S
C1329 H1335 0.959 . S
C1329 H1336 0.961 . S
C1329 H1337 0.960 . S
C1330 C1328 1.381 . S
C1330 C1331 1.394 . S
C1330 H1338 0.930 . S
C1331 C1330 1.394 . S
C1331 C1332 1.383 . S
C1331 H1339 0.929 . S
C1332 C1331 1.383 . S
C1332 C1333 1.377 . S
C1333 H1317 0.930 . S
C1333 C1332 1.377 . S
C1333 C1334 1.379 . S
C1334 H1318 0.931 . S
C1334 C1328 1.383 . S
C1334 C1333 1.379 . S
H1335 C1329 0.959 . S
H1336 C1329 0.961 . S
H1337 C1329 0.960 . S
H1338 C1330 0.930 . S
H1339 C1331 0.929 . S
H1340 C1348 0.929 . S
H1341 C1350 0.930 . S
H1342 C1352 0.930 . S
H1343 C1355 0.929 . S
H1344 C1358 0.930 . S
H1345 C1360 0.960 . S
H1346 C1360 0.960 . S
H1347 C1360 0.960 . S
C1348 H1340 0.929 . S
C1348 C1349 1.377 . S
C1348 C1350 1.384 . S
C1349 C1348 1.377 . S
C1349 C1355 1.390 . S
C1350 H1341 0.930 . S
C1350 C1348 1.384 . S
C1350 C1351 1.372 . S
C1351 C1350 1.372 . S
C1351 C1352 1.400 . S
C1351 C1356 1.490 . S
C1352 H1342 0.930 . S
C1352 C1351 1.400 . S
C1352 C1355 1.386 . S
H1353 C1369 0.930 . S
H1354 C1370 0.931 . S
C1355 H1343 0.929 . S
C1355 C1349 1.390 . S
C1355 C1352 1.386 . S
C1356 C1351 1.490 . S
C1356 C1358 1.395 . S
C1356 C1359 1.403 . S
H1357 C1363 0.930 . S
C1358 H1344 0.930 . S
C1358 C1356 1.395 . S
C1358 C1361 1.403 . S
C1359 C1356 1.403 . S
C1359 C1360 1.524 . S
C1359 C1363 1.400 . S
C1360 H1345 0.960 . S
C1360 H1346 0.960 . S
C1360 H1347 0.960 . S
C1360 C1359 1.524 . S
C1361 C1358 1.403 . S
C1361 C1362 1.392 . S
C1361 C1365 1.495 . S
C1362 C1361 1.392 . S
C1362 C1363 1.385 . S
C1362 C1364 1.478 . S
C1363 H1357 0.930 . S
C1363 C1359 1.400 . S
C1363 C1362 1.385 . S
C1364 C1362 1.478 . S
C1364 C1366 1.381 . S
C1364 C1370 1.383 . S
C1365 C1361 1.495 . S
C1365 H1371 0.959 . S
C1365 H1372 0.961 . S
C1365 H1373 0.960 . S
C1366 C1364 1.381 . S
C1366 C1367 1.394 . S
C1366 H1374 0.930 . S
C1367 C1366 1.394 . S
C1367 C1368 1.383 . S
C1367 H1375 0.929 . S
C1368 C1367 1.383 . S
C1368 C1369 1.377 . S
C1369 H1353 0.930 . S
C1369 C1368 1.377 . S
C1369 C1370 1.379 . S
C1370 H1354 0.931 . S
C1370 C1364 1.383 . S
C1370 C1369 1.379 . S
H1371 C1365 0.959 . S
H1372 C1365 0.961 . S
H1373 C1365 0.960 . S
H1374 C1366 0.930 . S
H1375 C1367 0.929 . S
C233 C218 1.132 . S
C252 C8 1.138 . S
C269 C176 1.135 . S
C288 C22 1.116 . S
C305 C36 1.138 . S
C324 C190 1.146 . S
C341 C204 1.132 . S
C360 C50 1.136 . S
C377 C134 1.139 . S
C396 C64 1.140 . S
C413 C78 1.135 . S
C432 C148 1.151 . S
C449 C92 1.136 . S
C468 C162 1.150 . S
C485 C106 1.133 . S
C504 C120 1.121 . S
C521 C73 1.651 . S
C540 C7 1.572 . S
C557 C91 1.557 . S
C576 C17 1.658 . S
C593 C101 1.652 . S
C612 C35 1.588 . S
C629 C45 1.652 . S
C648 C63 1.588 . S
C665 C9 1.169 . S
C684 C23 1.180 . S
C701 C31 1.655 . S
C720 C21 1.548 . S
C737 C37 1.174 . S
C756 C51 1.140 . S
C773 C3 1.651 . S
C792 C49 1.589 . S
C809 C107 1.165 . S
C828 C65 1.144 . S
C845 C59 1.655 . S
C864 C77 1.530 . S
C881 C79 1.174 . S
C900 C93 1.143 . S
C917 C105 1.566 . S
C936 C87 1.642 . S
C953 C185 1.652 . S
C972 C119 1.586 . S
C989 C129 1.652 . S
C1008 C203 1.589 . S
C1025 C213 1.651 . S
C1044 C147 1.586 . S
C1061 C175 1.564 . S
C1080 C157 1.655 . S
C1097 C121 1.165 . S
C1116 C135 1.195 . S
C1133 C133 1.562 . S
C1152 C143 1.657 . S
C1169 C163 1.173 . S
C1188 C149 1.152 . S
C1205 C115 1.655 . S
C1224 C161 1.544 . S
C1241 C219 1.169 . S
C1260 C177 1.182 . S
C1277 C171 1.651 . S
C1296 C189 1.587 . S
C1313 C191 1.172 . S
C1332 C205 1.165 . S
C1349 C217 1.567 . S
C1368 C199 1.651 . S
