# Generated by pormake.
# Topology vbf, (5)-cn, num edge types: 1
# Building blocks:
#     Node 0, Type 0, BuildingBlock: BEQFEK_clean_sbu_0, # of connection points: 5
#     Node 1, Type 0, BuildingBlock: BEQFEK_clean_sbu_0, # of connection points: 5
#     Node 2, Type 0, BuildingBlock: BEQFEK_clean_sbu_0, # of connection points: 5
#     Node 3, Type 0, BuildingBlock: BEQFEK_clean_sbu_0, # of connection points: 5
#     Node 4, Type 0, BuildingBlock: BEQFEK_clean_sbu_0, # of connection points: 5
#     Node 5, Type 0, BuildingBlock: BEQFEK_clean_sbu_0, # of connection points: 5
#     Node 6, Type 0, BuildingBlock: BEQFEK_clean_sbu_0, # of connection points: 5
#     Node 7, Type 0, BuildingBlock: BEQFEK_clean_sbu_0, # of connection points: 5
#     Node 8, Type 0, BuildingBlock: BEQFEK_clean_sbu_0, # of connection points: 5
#     Node 9, Type 0, BuildingBlock: BEQFEK_clean_sbu_0, # of connection points: 5
#     Node 10, Type 0, BuildingBlock: BEQFEK_clean_sbu_0, # of connection points: 5
#     Node 11, Type 0, BuildingBlock: BEQFEK_clean_sbu_0, # of connection points: 5
#     Node 12, Type 0, BuildingBlock: BEQFEK_clean_sbu_0, # of connection points: 5
#     Node 13, Type 0, BuildingBlock: BEQFEK_clean_sbu_0, # of connection points: 5
#     Node 14, Type 0, BuildingBlock: BEQFEK_clean_sbu_0, # of connection points: 5
#     Node 15, Type 0, BuildingBlock: BEQFEK_clean_sbu_0, # of connection points: 5
#     Edge 16, Type (0, 0), BuildingBlock: OJICUG_clean_linker_0, # of connection points: 2
#     Edge 17, Type (0, 0), BuildingBlock: OJICUG_clean_linker_0, # of connection points: 2
#     Edge 18, Type (0, 0), BuildingBlock: OJICUG_clean_linker_0, # of connection points: 2
#     Edge 19, Type (0, 0), BuildingBlock: OJICUG_clean_linker_0, # of connection points: 2
#     Edge 20, Type (0, 0), BuildingBlock: OJICUG_clean_linker_0, # of connection points: 2
#     Edge 21, Type (0, 0), BuildingBlock: OJICUG_clean_linker_0, # of connection points: 2
#     Edge 22, Type (0, 0), BuildingBlock: OJICUG_clean_linker_0, # of connection points: 2
#     Edge 23, Type (0, 0), BuildingBlock: OJICUG_clean_linker_0, # of connection points: 2
#     Edge 24, Type (0, 0), BuildingBlock: OJICUG_clean_linker_0, # of connection points: 2
#     Edge 25, Type (0, 0), BuildingBlock: OJICUG_clean_linker_0, # of connection points: 2
#     Edge 26, Type (0, 0), BuildingBlock: OJICUG_clean_linker_0, # of connection points: 2
#     Edge 27, Type (0, 0), BuildingBlock: OJICUG_clean_linker_0, # of connection points: 2
#     Edge 28, Type (0, 0), BuildingBlock: OJICUG_clean_linker_0, # of connection points: 2
#     Edge 29, Type (0, 0), BuildingBlock: OJICUG_clean_linker_0, # of connection points: 2
#     Edge 30, Type (0, 0), BuildingBlock: OJICUG_clean_linker_0, # of connection points: 2
#     Edge 31, Type (0, 0), BuildingBlock: OJICUG_clean_linker_0, # of connection points: 2
#     Edge 32, Type (0, 0), BuildingBlock: OJICUG_clean_linker_0, # of connection points: 2
#     Edge 33, Type (0, 0), BuildingBlock: OJICUG_clean_linker_0, # of connection points: 2
#     Edge 34, Type (0, 0), BuildingBlock: OJICUG_clean_linker_0, # of connection points: 2
#     Edge 35, Type (0, 0), BuildingBlock: OJICUG_clean_linker_0, # of connection points: 2
#     Edge 36, Type (0, 0), BuildingBlock: OJICUG_clean_linker_0, # of connection points: 2
#     Edge 37, Type (0, 0), BuildingBlock: OJICUG_clean_linker_0, # of connection points: 2
#     Edge 38, Type (0, 0), BuildingBlock: OJICUG_clean_linker_0, # of connection points: 2
#     Edge 39, Type (0, 0), BuildingBlock: OJICUG_clean_linker_0, # of connection points: 2
#     Edge 40, Type (0, 0), BuildingBlock: OJICUG_clean_linker_0, # of connection points: 2
#     Edge 41, Type (0, 0), BuildingBlock: OJICUG_clean_linker_0, # of connection points: 2
#     Edge 42, Type (0, 0), BuildingBlock: OJICUG_clean_linker_0, # of connection points: 2
#     Edge 43, Type (0, 0), BuildingBlock: OJICUG_clean_linker_0, # of connection points: 2
#     Edge 44, Type (0, 0), BuildingBlock: OJICUG_clean_linker_0, # of connection points: 2
#     Edge 45, Type (0, 0), BuildingBlock: OJICUG_clean_linker_0, # of connection points: 2
#     Edge 46, Type (0, 0), BuildingBlock: OJICUG_clean_linker_0, # of connection points: 2
#     Edge 47, Type (0, 0), BuildingBlock: OJICUG_clean_linker_0, # of connection points: 2
#     Edge 48, Type (0, 0), BuildingBlock: OJICUG_clean_linker_0, # of connection points: 2
#     Edge 49, Type (0, 0), BuildingBlock: OJICUG_clean_linker_0, # of connection points: 2
#     Edge 50, Type (0, 0), BuildingBlock: OJICUG_clean_linker_0, # of connection points: 2
#     Edge 51, Type (0, 0), BuildingBlock: OJICUG_clean_linker_0, # of connection points: 2
#     Edge 52, Type (0, 0), BuildingBlock: OJICUG_clean_linker_0, # of connection points: 2
#     Edge 53, Type (0, 0), BuildingBlock: OJICUG_clean_linker_0, # of connection points: 2
#     Edge 54, Type (0, 0), BuildingBlock: OJICUG_clean_linker_0, # of connection points: 2
#     Edge 55, Type (0, 0), BuildingBlock: OJICUG_clean_linker_0, # of connection points: 2
# Relax obj value: 0.048
# Max RMSD: 0.099
# Mean RMSD: 0.099
data_MOF--net-vbf--node1-BEQFEK_clean_sbu_0--edge1-OJICUG_clean_linker_0
_symmetry_space_group_name_H-M    P1
_symmetry_Int_Tables_number       1
_symmetry_cell_setting            triclinic
loop_
_symmetry_equiv_pos_as_xyz
'x, y, z'
_cell_length_a     28.292577
_cell_length_b     65.071604
_cell_length_c     22.419479
_cell_angle_alpha  90.004473
_cell_angle_beta   90.001477
_cell_angle_gamma 89.985531
loop_
_atom_site_label
_atom_site_type_symbol
_atom_site_fract_x
_atom_site_fract_y
_atom_site_fract_z
_atom_type_partial_charge
Co0 Co 0.12335 0.31811 0.95181 0.0
Co1 Co 0.0596 0.28595 0.01868 0.0
C2 C 0.16608 0.28225 1.01267 0.0
O3 O 0.17097 0.29924 0.98536 0.0
O4 O 0.12539 0.27542 0.02646 0.0
C5 C 0.1911 0.35051 0.93957 0.0
O6 O 0.20322 0.34504 0.99387 0.0
C7 C 0.02879 0.2657 0.12975 0.0
C8 C 0.96173 0.25119 0.10233 0.0
C9 C 0.99135 0.25393 0.15102 0.0
N10 N 0.02113 0.2699 0.07165 0.0
N11 N 0.98103 0.26111 0.05557 0.0
C12 C 0.07209 0.27222 0.16326 0.0
H13 H 0.10102 0.27636 0.1324 0.0
H14 H 0.06395 0.28597 0.19055 0.0
H15 H 0.08394 0.25977 0.19363 0.0
C16 C 0.07024 0.34695 0.02925 0.0
N17 N 0.08135 0.32781 1.01103 0.0
N18 N 0.05396 0.31449 0.0386 0.0
C19 C 0.0241 0.32486 0.0748 0.0
C20 C 0.034 0.3457 0.07056 0.0
C21 C 0.09055 0.36625 1.00344 0.0
H22 H 0.09362 0.36477 0.95435 0.0
H23 H 0.12624 0.36882 0.02242 0.0
H24 H 0.06826 0.37981 0.01381 0.0
O25 O 0.08747 0.30374 0.88837 0.0
O26 O 0.04018 0.28135 0.9338 0.0
H27 H 0.96645 0.30374 0.08424 0.0
H28 H 0.9611 0.32655 0.12987 0.0
C29 C 0.98613 0.31507 0.11159 0.0
H30 H 0.0025 0.30689 0.14961 0.0
H31 H 0.96675 0.26194 1.01273 0.0
O32 O 0.1577 0.34107 0.91345 0.0
C33 C 0.05591 0.28977 0.88628 0.0
Co34 Co 0.87558 0.69528 0.95323 0.0
Co35 Co 0.93827 0.72792 0.01981 0.0
C36 C 0.83195 0.73137 1.01242 0.0
O37 O 0.8275 0.71427 0.9855 0.0
O38 O 0.87242 0.73833 0.02666 0.0
C39 C 0.80745 0.66301 0.94068 0.0
O40 O 0.79371 0.66919 0.99371 0.0
C41 C 0.96879 0.74807 0.13079 0.0
C42 C 0.03448 0.76364 0.10293 0.0
C43 C 0.00556 0.76026 0.15197 0.0
N44 N 0.97618 0.74428 0.07243 0.0
N45 N 0.01544 0.7537 0.05607 0.0
C46 C 0.9262 0.74084 0.16445 0.0
H47 H 0.89733 0.73655 0.13361 0.0
H48 H 0.93541 0.72702 0.19088 0.0
H49 H 0.91379 0.75296 0.1956 0.0
C50 C 0.92914 0.66694 0.03154 0.0
N51 N 0.91735 0.68599 0.0132 0.0
N52 N 0.94389 0.69955 0.0412 0.0
C53 C 0.97347 0.68943 0.07831 0.0
C54 C 0.96463 0.66854 0.07373 0.0
C55 C 0.90777 0.64754 1.00791 0.0
H56 H 0.90739 0.64793 0.95847 0.0
H57 H 0.87085 0.64632 0.024 0.0
H58 H 0.92729 0.63372 0.02308 0.0
O59 O 0.91172 0.70942 0.88964 0.0
O60 O 0.95824 0.73213 0.93498 0.0
H61 H 0.03009 0.71124 0.08512 0.0
H62 H 0.03995 0.68762 0.12567 0.0
C63 C 0.01301 0.69916 0.11248 0.0
H64 H 0.99877 0.7063 0.15355 0.0
H65 H 0.02933 0.75326 1.01297 0.0
O66 O 0.84198 0.67197 0.91544 0.0
C67 C 0.94309 0.72347 0.88754 0.0
Co68 Co 0.12548 0.56831 0.2027 0.0
Co69 Co 0.18795 0.53564 0.26943 0.0
C70 C 0.08156 0.53239 0.26225 0.0
O71 O 0.07722 0.54946 0.23519 0.0
O72 O 0.122 0.52537 0.27648 0.0
C73 C 0.05757 0.60066 0.18988 0.0
O74 O 0.04383 0.59456 0.24299 0.0
C75 C 0.21844 0.51546 0.38045 0.0
C76 C 0.28402 0.49981 0.3525 0.0
C77 C 0.25516 0.50323 0.40158 0.0
N78 N 0.22579 0.51925 0.32207 0.0
N79 N 0.26499 0.50978 0.30567 0.0
C80 C 0.17591 0.52275 0.41417 0.0
H81 H 0.14705 0.52709 0.38337 0.0
H82 H 0.18523 0.53655 0.44064 0.0
H83 H 0.16344 0.51064 0.44529 0.0
C84 C 0.17935 0.59664 0.28076 0.0
N85 N 0.16742 0.5776 0.26251 0.0
N86 N 0.19386 0.56402 0.29058 0.0
C87 C 0.2235 0.57412 0.32766 0.0
C88 C 0.21483 0.59501 0.32297 0.0
C89 C 0.15805 0.61606 0.25711 0.0
H90 H 0.15761 0.61564 0.20767 0.0
H91 H 0.12115 0.61732 0.27325 0.0
H92 H 0.17766 0.62986 0.27221 0.0
O93 O 0.16138 0.55403 0.13915 0.0
O94 O 0.20778 0.53128 0.18457 0.0
H95 H 0.27993 0.55221 0.33474 0.0
H96 H 0.28991 0.57583 0.37521 0.0
C97 C 0.2629 0.56433 0.362 0.0
H98 H 0.24852 0.55724 0.40306 0.0
H99 H 0.27885 0.51019 0.26255 0.0
O100 O 0.09205 0.59163 0.16473 0.0
C101 C 0.19262 0.53992 0.13709 0.0
Co102 Co 0.87217 0.44506 0.20536 0.0
Co103 Co 0.80932 0.47782 0.27165 0.0
C104 C 0.91565 0.48149 0.26308 0.0
O105 O 0.92012 0.4644 0.23609 0.0
O106 O 0.8752 0.48836 0.27796 0.0
C107 C 0.94664 0.41608 0.18181 0.0
O108 O 0.97034 0.42725 0.22036 0.0
C109 C 0.7788 0.49784 0.38263 0.0
C110 C 0.71351 0.51374 0.35481 0.0
C111 C 0.74228 0.51016 0.40389 0.0
N112 N 0.77145 0.49419 0.3242 0.0
N113 N 0.73241 0.50379 0.30786 0.0
C114 C 0.82122 0.49037 0.41623 0.0
H115 H 0.84996 0.48596 0.38531 0.0
H116 H 0.81165 0.47657 0.44255 0.0
H117 H 0.83393 0.5024 0.44747 0.0
C118 C 0.82117 0.41708 0.28601 0.0
N119 N 0.83151 0.43611 0.26653 0.0
N120 N 0.80419 0.44953 0.29376 0.0
C121 C 0.77504 0.43929 0.33112 0.0
C122 C 0.7852 0.41846 0.32766 0.0
C123 C 0.84496 0.39794 0.26431 0.0
H124 H 0.88373 0.39954 0.26983 0.0
H125 H 0.83295 0.38414 0.28908 0.0
H126 H 0.83746 0.39588 0.2161 0.0
O127 O 0.83529 0.45889 0.14163 0.0
O128 O 0.78911 0.48178 0.18686 0.0
H129 H 0.70751 0.43715 0.37584 0.0
H130 H 0.74785 0.45571 0.40618 0.0
C131 C 0.73463 0.4488 0.36422 0.0
H132 H 0.71808 0.46102 0.33686 0.0
H133 H 0.7186 0.5035 0.26471 0.0
O134 O 0.90441 0.42104 0.16888 0.0
C135 C 0.80396 0.47296 0.1395 0.0
Co136 Co 0.12281 0.81807 0.45327 0.0
Co137 Co 0.06013 0.78543 0.51982 0.0
C138 C 0.16645 0.78198 0.51241 0.0
O139 O 0.1709 0.79908 0.48551 0.0
O140 O 0.12597 0.77502 0.52664 0.0
C141 C 0.19089 0.85037 0.44069 0.0
O142 O 0.20463 0.84421 0.49375 0.0
C143 C 0.02961 0.76527 0.63079 0.0
C144 C 0.96392 0.74971 0.60293 0.0
C145 C 0.99285 0.75308 0.65197 0.0
N146 N 0.02223 0.76907 0.57243 0.0
N147 N 0.98296 0.75966 0.55607 0.0
C148 C 0.07222 0.7725 0.66445 0.0
H149 H 0.10109 0.77679 0.63361 0.0
H150 H 0.06302 0.78633 0.69089 0.0
H151 H 0.08462 0.76039 0.6956 0.0
C152 C 0.06924 0.84641 0.5316 0.0
N153 N 0.08104 0.82736 0.51325 0.0
N154 N 0.05451 0.8138 0.54124 0.0
C155 C 0.02493 0.82392 0.57836 0.0
C156 C 0.03376 0.8448 0.5738 0.0
C157 C 0.09058 0.86582 0.50797 0.0
H158 H 0.12749 0.86705 0.52408 0.0
H159 H 0.07102 0.87963 0.52311 0.0
H160 H 0.09099 0.86541 0.45853 0.0
O161 O 0.08667 0.80393 0.38967 0.0
O162 O 0.04014 0.78122 0.43499 0.0
H163 H 0.95846 0.82572 0.62574 0.0
H164 H -0.00035 0.80704 0.65359 0.0
C165 C 0.9854 0.81418 0.61253 0.0
H166 H 0.96831 0.8021 0.58516 0.0
H167 H 0.96906 0.76009 0.51297 0.0
O168 O 0.15639 0.84139 0.41547 0.0
C169 C 0.0553 0.78989 0.38756 0.0
Co170 Co 0.87528 0.19522 0.45184 0.0
Co171 Co 0.93903 0.2274 0.51866 0.0
C172 C 0.83254 0.23106 0.51273 0.0
O173 O 0.82765 0.21407 0.48542 0.0
O174 O 0.87323 0.2379 0.52649 0.0
C175 C 0.80755 0.1628 0.43973 0.0
O176 O 0.79548 0.1683 0.49404 0.0
C177 C 0.96982 0.24762 0.62975 0.0
C178 C 0.03677 0.26223 0.6023 0.0
C179 C 0.0072 0.25943 0.65102 0.0
N180 N 0.97747 0.24346 0.57162 0.0
N181 N 0.01749 0.25231 0.55553 0.0
C182 C 0.92659 0.24104 0.66327 0.0
H183 H 0.89769 0.23685 0.63242 0.0
H184 H 0.93484 0.2273 0.69056 0.0
H185 H 0.91465 0.25348 0.69365 0.0
C186 C 0.92843 0.1664 0.5293 0.0
N187 N 0.91732 0.18553 0.51104 0.0
N188 N 0.94472 0.19886 0.53857 0.0
C189 C 0.97461 0.18851 0.57475 0.0
C190 C 0.96469 0.16766 0.57057 0.0
C191 C 0.90809 0.14709 0.50357 0.0
H192 H 0.90501 0.14855 0.45449 0.0
H193 H 0.87241 0.14453 0.52259 0.0
H194 H 0.93038 0.13353 0.51397 0.0
O195 O 0.91111 0.20959 0.38836 0.0
O196 O 0.9584 0.23199 0.43376 0.0
H197 H 0.03219 0.20966 0.5841 0.0
H198 H 0.03776 0.18682 0.62952 0.0
C199 C 0.01263 0.1983 0.61145 0.0
H200 H 0.99633 0.20643 0.6496 0.0
H201 H 0.03174 0.25152 0.51266 0.0
O202 O 0.84093 0.17224 0.41354 0.0
C203 C 0.94265 0.22357 0.38626 0.0
Co204 Co 0.12632 0.06824 0.70524 0.0
Co205 Co 0.18915 0.03546 0.77142 0.0
C206 C 0.0828 0.03182 0.76291 0.0
O207 O 0.07834 0.04892 0.73596 0.0
O208 O 0.12325 0.02495 0.77774 0.0
C209 C 0.05196 0.09729 0.68188 0.0
O210 O 0.0283 0.08616 0.72057 0.0
C211 C 0.21966 0.01543 0.88236 0.0
C212 C 0.28492 0.99951 0.85453 0.0
C213 C 0.25616 1.00311 0.90361 0.0
N214 N 0.227 0.01908 0.82393 0.0
N215 N 0.26603 0.00946 0.80758 0.0
C216 C 0.17726 0.02291 0.91596 0.0
H217 H 0.1485 0.02731 0.88505 0.0
H218 H 0.18683 0.03673 0.94224 0.0
H219 H 0.16455 0.0109 0.94724 0.0
C220 C 0.1774 0.09621 0.7859 0.0
N221 N 0.16702 0.07717 0.76639 0.0
N222 N 0.19434 0.06374 0.79358 0.0
C223 C 0.22353 0.07397 0.83093 0.0
C224 C 0.21339 0.09481 0.82752 0.0
C225 C 0.15364 0.11536 0.76425 0.0
H226 H 0.11487 0.11377 0.76985 0.0
H227 H 0.16572 0.12915 0.78899 0.0
H228 H 0.16108 0.1174 0.71602 0.0
O229 O 0.16315 0.05442 0.64147 0.0
O230 O 0.20933 0.03151 0.68663 0.0
H231 H 0.29109 0.07609 0.8756 0.0
H232 H 0.25074 0.05754 0.90595 0.0
C233 C 0.26394 0.06445 0.864 0.0
H234 H 0.28046 0.05223 0.8366 0.0
H235 H 0.27983 0.00975 0.76443 0.0
O236 O 0.09413 0.09228 0.6688 0.0
C237 C 0.19448 0.04034 0.63929 0.0
Co238 Co 0.87288 0.94499 0.70306 0.0
Co239 Co 0.81049 0.97767 0.76989 0.0
C240 C 0.91686 0.98094 0.76246 0.0
O241 O 0.92116 0.96386 0.7354 0.0
O242 O 0.87644 0.98795 0.7768 0.0
C243 C 0.9408 0.91265 0.69012 0.0
O244 O 0.95461 0.91876 0.74321 0.0
C245 C 0.78007 0.99787 0.88094 0.0
C246 C 0.71445 0.01349 0.85304 0.0
C247 C 0.74335 0.0101 0.9021 0.0
N248 N 0.77268 0.99407 0.82258 0.0
N249 N 0.73346 1.00352 0.8062 0.0
C250 C 0.82264 0.9906 0.91462 0.0
H251 H 0.85149 0.98627 0.88379 0.0
H252 H 0.81336 0.9768 0.94109 0.0
H253 H 0.8351 1.00271 0.94574 0.0
C254 C 0.81912 0.91667 0.78123 0.0
N255 N 0.83103 0.93571 0.76298 0.0
N256 N 0.80463 0.94929 0.7911 0.0
C257 C 0.77502 0.93919 0.82821 0.0
C258 C 0.78368 0.9183 0.82349 0.0
C259 C 0.84036 0.89725 0.7575 0.0
H260 H 0.87729 0.89598 0.77353 0.0
H261 H 0.82077 0.88345 0.77264 0.0
H262 H 0.84071 0.89767 0.70806 0.0
O263 O 0.83686 0.95925 0.63958 0.0
O264 O 0.79054 0.98201 0.68508 0.0
H265 H 0.70865 0.93748 0.87585 0.0
H266 H 0.75005 0.95609 0.90361 0.0
C267 C 0.73564 0.94898 0.86258 0.0
H268 H 0.71857 0.9611 0.83533 0.0
H269 H 0.71956 1.00309 0.7631 0.0
O270 O 0.90628 0.92167 0.66503 0.0
C271 C 0.80562 0.97336 0.63757 0.0
Co272 Co 0.62362 0.31809 0.4542 0.0
Co273 Co 0.56074 0.28564 0.52148 0.0
C274 C 0.667 0.28211 0.51449 0.0
O275 O 0.67145 0.29913 0.48715 0.0
O276 O 0.62652 0.27519 0.52883 0.0
C277 C 0.69131 0.35057 0.44269 0.0
O278 O 0.70317 0.34503 0.49702 0.0
C279 C 0.52976 0.26556 0.63264 0.0
C280 C 0.46386 0.25021 0.60457 0.0
C281 C 0.49277 0.25346 0.6537 0.0
N282 N 0.52252 0.26941 0.57426 0.0
N283 N 0.48312 0.26013 0.5578 0.0
C284 C 0.57242 0.27263 0.66644 0.0
H285 H 0.60133 0.27696 0.63569 0.0
H286 H 0.56333 0.2864 0.6932 0.0
H287 H 0.58472 0.26041 0.69732 0.0
C288 C 0.56954 0.34669 0.53136 0.0
N289 N 0.58158 0.32759 0.5137 0.0
N290 N 0.5552 0.31409 0.5422 0.0
C291 C 0.52562 0.3243 0.5791 0.0
C292 C 0.5342 0.34518 0.57377 0.0
C293 C 0.59031 0.36606 0.50671 0.0
H294 H 0.62664 0.36795 0.52432 0.0
H295 H 0.56949 0.37979 0.51967 0.0
H296 H 0.59207 0.36512 0.45738 0.0
O297 O 0.58758 0.30382 0.39072 0.0
O298 O 0.54098 0.28124 0.4365 0.0
H299 H 0.45962 0.32619 0.62754 0.0
H300 H 0.50095 0.30744 0.65467 0.0
C301 C 0.48634 0.31462 0.61388 0.0
H302 H 0.46889 0.30258 0.58674 0.0
H303 H 0.46928 0.26062 0.51467 0.0
O304 O 0.65795 0.34119 0.41624 0.0
C305 C 0.55619 0.28977 0.38888 0.0
Co306 Co 0.37606 0.69499 0.45307 0.0
Co307 Co 0.4386 0.72762 0.51998 0.0
C308 C 0.33227 0.73101 0.51239 0.0
O309 O 0.32788 0.71393 0.48537 0.0
O310 O 0.37272 0.73798 0.52675 0.0
C311 C 0.30793 0.66272 0.43985 0.0
O312 O 0.29405 0.66881 0.4929 0.0
C313 C 0.4689 0.74781 0.63107 0.0
C314 C 0.53458 0.7634 0.60331 0.0
C315 C 0.50558 0.76005 0.65228 0.0
N316 N 0.4764 0.74398 0.57274 0.0
N317 N 0.51567 0.75341 0.55645 0.0
C318 C 0.42626 0.74059 0.66465 0.0
H319 H 0.3975 0.73619 0.63375 0.0
H320 H 0.43549 0.72683 0.69136 0.0
H321 H 0.41368 0.75275 0.69554 0.0
C322 C 0.42953 0.66663 0.53146 0.0
N323 N 0.4178 0.68568 0.51308 0.0
N324 N 0.44424 0.69923 0.54122 0.0
C325 C 0.4737 0.6891 0.57848 0.0
C326 C 0.46489 0.66822 0.57384 0.0
C327 C 0.40816 0.64723 0.50779 0.0
H328 H 0.3712 0.64604 0.52374 0.0
H329 H 0.42762 0.6334 0.52305 0.0
H330 H 0.40788 0.64762 0.45835 0.0
O331 O 0.41221 0.70921 0.38965 0.0
O332 O 0.45864 0.73192 0.43519 0.0
H333 H 0.53995 0.68732 0.62635 0.0
H334 H 0.49859 0.70597 0.65394 0.0
C335 C 0.51305 0.69885 0.61297 0.0
H336 H 0.53024 0.71094 0.58577 0.0
H337 H 0.52964 0.75296 0.51339 0.0
O338 O 0.34256 0.6717 0.41492 0.0
C339 C 0.44353 0.72328 0.38767 0.0
Co340 Co 0.6256 0.56821 0.70485 0.0
Co341 Co 0.68808 0.53554 0.77179 0.0
C342 C 0.58175 0.53221 0.76401 0.0
O343 O 0.5774 0.5493 0.73703 0.0
O344 O 0.62217 0.52521 0.77841 0.0
C345 C 0.5575 0.60051 0.69137 0.0
O346 O 0.54346 0.59444 0.74439 0.0
C347 C 0.71823 0.51527 0.88287 0.0
C348 C 0.78377 0.49956 0.85509 0.0
C349 C 0.75477 0.50293 0.90406 0.0
N350 N 0.72581 0.51913 0.82458 0.0
N351 N 0.765 0.50963 0.80828 0.0
C352 C 0.67562 0.52256 0.91642 0.0
H353 H 0.64693 0.52701 0.88548 0.0
H354 H 0.68495 0.5363 0.94315 0.0
H355 H 0.66292 0.51042 0.94728 0.0
C356 C 0.67911 0.59654 0.78314 0.0
N357 N 0.6673 0.57749 0.76489 0.0
N358 N 0.69374 0.56393 0.79306 0.0
C359 C 0.72326 0.57406 0.83021 0.0
C360 C 0.71452 0.59495 0.82543 0.0
C361 C 0.65783 0.61593 0.7593 0.0
H362 H 0.6577 0.61552 0.70986 0.0
H363 H 0.62081 0.61714 0.77506 0.0
H364 H 0.67724 0.62976 0.77461 0.0
O365 O 0.66179 0.55398 0.64152 0.0
O366 O 0.70818 0.53125 0.687 0.0
H367 H 0.77979 0.5522 0.83742 0.0
H368 H 0.78952 0.57582 0.87808 0.0
C369 C 0.76262 0.56429 0.86466 0.0
H370 H 0.74815 0.55715 0.9056 0.0
H371 H 0.77899 0.51007 0.76523 0.0
O372 O 0.59219 0.5915 0.66661 0.0
C373 C 0.6931 0.53991 0.63951 0.0
Co374 Co 0.37266 0.44529 0.70252 0.0
Co375 Co 0.30965 0.47778 0.76937 0.0
C376 C 0.41597 0.48131 0.7623 0.0
O377 O 0.42056 0.46427 0.7351 0.0
O378 O 0.37544 0.48822 0.77653 0.0
C379 C 0.4414 0.41327 0.68917 0.0
O380 O 0.45564 0.41963 0.74181 0.0
C381 C 0.27888 0.49783 0.88048 0.0
C382 C 0.21313 0.51335 0.85257 0.0
C383 C 0.24204 0.50999 0.90164 0.0
N384 N 0.27156 0.49404 0.82209 0.0
N385 N 0.23225 0.50343 0.80572 0.0
C386 C 0.32149 0.49062 0.91417 0.0
H387 H 0.35034 0.48628 0.88335 0.0
H388 H 0.31228 0.47684 0.94077 0.0
H389 H 0.33392 0.50278 0.94518 0.0
C390 C 0.31952 0.41681 0.78077 0.0
N391 N 0.33096 0.43589 0.76241 0.0
N392 N 0.30424 0.44938 0.79044 0.0
C393 C 0.27484 0.43917 0.82756 0.0
C394 C 0.28398 0.41831 0.82295 0.0
C395 C 0.34153 0.3975 0.75744 0.0
H396 H 0.3414 0.3977 0.70799 0.0
H397 H 0.37867 0.39667 0.77292 0.0
H398 H 0.32286 0.38357 0.7734 0.0
O399 O 0.33644 0.45947 0.63906 0.0
O400 O 0.28975 0.48209 0.68454 0.0
H401 H 0.21805 0.46091 0.83455 0.0
H402 H 0.20832 0.43723 0.87478 0.0
C403 C 0.23519 0.44882 0.86178 0.0
H404 H 0.24935 0.45591 0.90297 0.0
H405 H 0.21839 0.503 0.7626 0.0
O406 O 0.40635 0.42203 0.66447 0.0
C407 C 0.30499 0.47349 0.63704 0.0
Co408 Co 0.62228 0.81831 0.95312 0.0
Co409 Co 0.55976 0.78568 0.02 0.0
C410 C 0.66608 0.7823 1.01245 0.0
O411 O 0.67046 0.79938 0.98543 0.0
O412 O 0.62564 0.77532 0.0268 0.0
C413 C 0.69041 0.85058 0.94004 0.0
O414 O 0.70425 0.84446 0.9931 0.0
C415 C 0.52946 0.76548 0.13107 0.0
C416 C 0.46379 0.74988 0.1033 0.0
C417 C 0.49279 0.75324 0.15228 0.0
N418 N 0.52196 0.76931 0.07275 0.0
N419 N 0.48271 0.75988 0.05645 0.0
C420 C 0.57209 0.77272 0.16467 0.0
H421 H 0.60084 0.77712 0.13377 0.0
H422 H 0.56284 0.78647 0.19138 0.0
H423 H 0.58468 0.76056 0.19556 0.0
C424 C 0.56878 0.84667 0.0315 0.0
N425 N 0.58053 0.82762 0.01312 0.0
N426 N 0.55409 0.81406 0.04125 0.0
C427 C 0.52462 0.82418 0.0785 0.0
C428 C 0.53342 0.84507 0.07387 0.0
C429 C 0.59013 0.86607 1.00783 0.0
H430 H 0.59044 0.86567 0.95839 0.0
H431 H 0.62709 0.86727 0.02381 0.0
H432 H 0.57065 0.87989 0.02307 0.0
O433 O 0.58615 0.80409 0.88968 0.0
O434 O 0.53974 0.78138 0.93519 0.0
H435 H 0.46809 0.80234 0.08576 0.0
H436 H 0.45836 0.82597 0.12635 0.0
C437 C 0.48527 0.81444 0.11298 0.0
H438 H 0.49972 0.80731 0.15395 0.0
H439 H 0.46874 0.76032 0.01338 0.0
O440 O 0.6558 0.8416 0.91504 0.0
C441 C 0.55484 0.79001 0.88769 0.0
Co442 Co 0.37497 0.19518 0.95417 0.0
Co443 Co 0.43784 0.22763 0.02146 0.0
C444 C 0.33158 0.23116 0.0144 0.0
O445 O 0.32712 0.21415 0.98707 0.0
O446 O 0.37206 0.23809 0.02877 0.0
C447 C 0.3073 0.16268 0.94263 0.0
O448 O 0.29542 0.16822 0.99697 0.0
C449 C 0.46881 0.24772 0.13262 0.0
C450 C 0.53475 0.26304 0.10457 0.0
C451 C 0.50583 0.2598 0.15369 0.0
N452 N 0.47606 0.24386 0.07424 0.0
N453 N 0.51548 0.25313 0.0578 0.0
C454 C 0.42612 0.24067 0.1664 0.0
H455 H 0.39721 0.23636 0.13564 0.0
H456 H 0.43517 0.2269 0.19315 0.0
H457 H 0.41386 0.25289 0.19729 0.0
C458 C 0.42901 0.16659 0.03141 0.0
N459 N 0.41699 0.18568 0.0137 0.0
N460 N 0.44336 0.19918 0.04221 0.0
C461 C 0.47292 0.18898 0.07915 0.0
C462 C 0.46434 0.1681 0.07384 0.0
C463 C 0.40826 0.14721 1.00676 0.0
H464 H 0.37193 0.14531 0.02436 0.0
H465 H 0.4291 0.13348 0.01973 0.0
H466 H 0.4065 0.14814 0.95743 0.0
O467 O 0.41103 0.20943 0.89069 0.0
O468 O 0.45762 0.23202 0.93649 0.0
H469 H 0.52966 0.21069 0.08681 0.0
H470 H 0.53889 0.18709 0.12765 0.0
C471 C 0.51219 0.19866 0.11395 0.0
H472 H 0.49757 0.20585 0.15472 0.0
H473 H 0.52933 0.25262 0.01468 0.0
O474 O 0.34066 0.17207 0.9162 0.0
C475 C 0.44242 0.22348 0.88886 0.0
Co476 Co 0.62579 0.06803 0.20299 0.0
Co477 Co 0.68872 0.03552 0.26985 0.0
C478 C 0.58239 0.03201 0.26264 0.0
O479 O 0.57784 0.04905 0.23546 0.0
O480 O 0.62291 0.02509 0.27692 0.0
C481 C 0.55706 0.10005 0.18952 0.0
O482 O 0.54275 0.09369 0.24213 0.0
C483 C 0.7194 0.01548 0.38099 0.0
C484 C 0.78501 0.99985 0.35309 0.0
C485 C 0.75614 1.00326 0.40216 0.0
N486 N 0.72673 0.01924 0.3226 0.0
N487 N 0.76596 0.00979 0.30623 0.0
C488 C 0.67683 0.02274 0.41467 0.0
H489 H 0.64803 0.02714 0.38384 0.0
H490 H 0.68615 0.03651 0.44129 0.0
H491 H 0.6643 0.01061 0.44567 0.0
C492 C 0.67891 0.09648 0.2813 0.0
N493 N 0.66744 0.07741 0.26294 0.0
N494 N 0.69415 0.06392 0.29096 0.0
C495 C 0.72359 0.07412 0.32806 0.0
C496 C 0.71447 0.09498 0.32346 0.0
C497 C 0.65693 0.1158 0.25797 0.0
H498 H 0.61976 0.11662 0.27335 0.0
H499 H 0.67556 0.12973 0.27401 0.0
H500 H 0.65714 0.11561 0.20851 0.0
O501 O 0.66204 0.05385 0.13955 0.0
O502 O 0.70868 0.03121 0.18505 0.0
H503 H 0.78032 0.05234 0.335 0.0
H504 H 0.79018 0.07604 0.37512 0.0
C505 C 0.76325 0.06446 0.36223 0.0
H506 H 0.74913 0.0574 0.40347 0.0
H507 H 0.77981 0.01019 0.2631 0.0
O508 O 0.59215 0.09129 0.1649 0.0
C509 C 0.69348 0.03982 0.13755 0.0
Co510 Co 0.37275 0.94511 0.20472 0.0
Co511 Co 0.31025 0.9778 0.27154 0.0
C512 C 0.4166 0.98111 0.26388 0.0
O513 O 0.42096 0.96402 0.23693 0.0
O514 O 0.37616 0.98811 0.27821 0.0
C515 C 0.44084 0.91281 0.1913 0.0
O516 O 0.45489 0.91889 0.24429 0.0
C517 C 0.2801 0.99806 0.38259 0.0
C518 C 0.21461 0.01382 0.35481 0.0
C519 C 0.24359 0.01041 0.40378 0.0
N520 N 0.27253 0.99422 0.32429 0.0
N521 N 0.23338 1.00375 0.30799 0.0
C522 C 0.32268 0.99074 0.41616 0.0
H523 H 0.35137 0.98629 0.38523 0.0
H524 H 0.31331 0.977 0.44284 0.0
H525 H 0.33539 1.00287 0.44706 0.0
C526 C 0.3192 0.9168 0.283 0.0
N527 N 0.33102 0.93585 0.26473 0.0
N528 N 0.30456 0.94941 0.29283 0.0
C529 C 0.275 0.93929 0.32997 0.0
C530 C 0.28375 0.9184 0.32525 0.0
C531 C 0.34052 0.8974 0.25925 0.0
H532 H 0.37753 0.89621 0.27503 0.0
H533 H 0.32113 0.88357 0.27461 0.0
H534 H 0.34066 0.89778 0.20981 0.0
O535 O 0.33661 0.95933 0.14134 0.0
O536 O 0.29019 0.98208 0.18675 0.0
H537 H 0.20867 0.93755 0.37767 0.0
H538 H 0.25003 0.95619 0.40534 0.0
C539 C 0.23561 0.94907 0.36435 0.0
H540 H 0.2185 0.96117 0.33709 0.0
H541 H 0.2194 1.00332 0.26493 0.0
O542 O 0.40615 0.92181 0.16653 0.0
C543 C 0.3053 0.97341 0.13929 0.0
C544 C 0.24137 0.38218 0.94316 0.0
C545 C 0.21447 0.36806 0.90996 0.0
H546 H 0.28391 0.40953 0.94116 0.0
C547 C 0.20973 0.37095 0.84809 0.0
H548 H 0.2453 0.38046 0.99095 0.0
C549 C 0.23215 0.3874 0.81985 0.0
C550 C 0.25918 0.40135 0.85307 0.0
H551 H 0.18918 0.36036 0.82133 0.0
H552 H 0.22852 0.38923 0.77203 0.0
C553 C 0.26323 0.39882 0.91492 0.0
C554 C 0.756 0.63171 0.94463 0.0
C555 C 0.78435 0.6453 0.9115 0.0
H556 H 0.71224 0.60473 0.94293 0.0
C557 C 0.79061 0.64178 0.85012 0.0
H558 H 0.75086 0.63393 0.99207 0.0
C559 C 0.76815 0.62526 0.82222 0.0
C560 C 0.73963 0.61187 0.85535 0.0
H561 H 0.81228 0.65196 0.82344 0.0
H562 H 0.77284 0.62298 0.77471 0.0
C563 C 0.73413 0.615 0.91678 0.0
C564 C 0.98428 0.64865 0.16533 0.0
C565 C 0.98968 0.65164 0.10382 0.0
H566 H 0.00113 0.62988 0.24092 0.0
C567 C 0.01811 0.63816 0.07085 0.0
H568 H 0.96247 0.659 0.19136 0.0
C569 C 0.0406 0.6217 0.09899 0.0
C570 C 0.03446 0.61832 0.16046 0.0
H571 H 0.02272 0.64034 0.02329 0.0
H572 H 0.0622 0.61144 0.07243 0.0
C573 C 0.00618 0.63199 0.19342 0.0
C574 C 0.03785 0.37647 0.13627 0.0
C575 C 0.01083 0.36304 0.10125 0.0
H576 H 0.03871 0.40374 0.18955 0.0
C577 C 0.96254 0.36696 0.09301 0.0
H578 H 0.07529 0.37376 0.14271 0.0
C579 C 0.94155 0.38416 0.1194 0.0
C580 C 0.96857 0.39771 0.15447 0.0
H581 H 0.9413 0.35693 0.06526 0.0
H582 H 0.90422 0.38687 0.11208 0.0
C583 C 0.01689 0.3936 0.16293 0.0
C584 C 0.24225 0.8817 0.44457 0.0
C585 C 0.21397 0.86808 0.41147 0.0
H586 H 0.28593 0.90871 0.4428 0.0
C587 C 0.20776 0.87155 0.35006 0.0
H588 H 0.24734 0.87952 0.49203 0.0
C589 C 0.2302 0.88806 0.32211 0.0
C590 C 0.25865 0.90149 0.35521 0.0
H591 H 0.18614 0.86134 0.32339 0.0
H592 H 0.22556 0.89031 0.27458 0.0
C593 C 0.2641 0.89841 0.41667 0.0
C594 C 0.78883 0.14233 0.34835 0.0
C595 C 0.78415 0.14524 0.41022 0.0
H596 H 0.76993 0.12402 0.27238 0.0
C597 C 0.75729 0.13114 0.44351 0.0
H598 H 0.80935 0.15291 0.32153 0.0
C599 C 0.73538 0.11449 0.41536 0.0
C600 C 0.73934 0.11194 0.3535 0.0
H601 H 0.75342 0.13288 0.4913 0.0
H602 H 0.71472 0.1038 0.44166 0.0
C603 C 0.76635 0.12587 0.3202 0.0
C604 C 0.03611 0.14637 0.59294 0.0
C605 C 0.98786 0.15033 0.6013 0.0
H606 H 0.09438 0.12642 0.61191 0.0
C607 C 0.96085 0.13695 0.63649 0.0
H608 H 0.05734 0.15636 0.56507 0.0
C609 C 0.98178 0.11982 0.66316 0.0
C610 C 0.03006 0.11566 0.65455 0.0
H611 H 0.92343 0.1397 0.64302 0.0
H612 H 0.95997 0.10971 0.6899 0.0
C613 C 0.05708 0.12917 0.61934 0.0
C614 C 0.95772 0.89162 0.5992 0.0
C615 C 0.96392 0.895 0.66065 0.0
H616 H 0.97556 0.87299 0.52346 0.0
C617 C 0.99227 0.88134 0.69356 0.0
H618 H 0.93607 0.90187 0.57267 0.0
C619 C 0.01417 0.86469 0.66543 0.0
C620 C 0.00872 0.8617 0.60393 0.0
H621 H 0.99736 0.88345 0.74105 0.0
H622 H 0.03603 0.85436 0.69142 0.0
C623 C 0.98022 0.87517 0.57101 0.0
C624 C 0.73645 0.38662 0.32321 0.0
C625 C 0.76035 0.40139 0.3573 0.0
H626 H 0.6954 0.35899 0.32371 0.0
C627 C 0.76105 0.39962 0.4196 0.0
H628 H 0.73541 0.38784 0.27503 0.0
C629 C 0.73896 0.38296 0.44748 0.0
C630 C 0.71501 0.3681 0.41344 0.0
H631 H 0.77931 0.41094 0.44652 0.0
H632 H 0.74026 0.38182 0.49565 0.0
C633 C 0.7136 0.3702 0.35107 0.0
C634 C 0.23445 0.61482 0.41474 0.0
C635 C 0.23987 0.61189 0.35321 0.0
H636 H 0.25133 0.6335 0.49052 0.0
C637 C 0.26838 0.62538 0.3204 0.0
H638 H 0.21259 0.60447 0.44066 0.0
C639 C 0.29093 0.64179 0.34872 0.0
C640 C 0.28476 0.64511 0.41021 0.0
H641 H 0.27302 0.62324 0.27283 0.0
H642 H 0.3126 0.65205 0.32228 0.0
C643 C 0.25639 0.63143 0.44301 0.0
C644 C 0.51828 0.63779 0.5716 0.0
C645 C 0.48975 0.65133 0.60424 0.0
H646 H 0.56242 0.61109 0.57377 0.0
C647 C 0.48417 0.64843 0.66577 0.0
H648 H 0.52305 0.6399 0.52403 0.0
C649 C 0.506 0.63182 0.6942 0.0
C650 C 0.53441 0.61811 0.66157 0.0
H651 H 0.46229 0.65882 0.69156 0.0
H652 H 0.50082 0.62979 0.7417 0.0
C653 C 0.54072 0.62138 0.60008 0.0
C654 C 0.51571 0.36556 0.66482 0.0
C655 C 0.50923 0.36214 0.60367 0.0
H656 H 0.49972 0.3847 0.73992 0.0
C657 C 0.47979 0.37526 0.57087 0.0
H658 H 0.53831 0.3555 0.69072 0.0
C659 C 0.45735 0.39178 0.59883 0.0
C660 C 0.46454 0.39558 0.65991 0.0
H661 H 0.47434 0.37275 0.52359 0.0
H662 H 0.43493 0.40175 0.5724 0.0
C663 C 0.49385 0.38227 0.6927 0.0
C664 C 0.74203 0.88183 0.94336 0.0
C665 C 0.71362 0.86819 0.9105 0.0
H666 H 0.78592 0.90877 0.94114 0.0
C667 C 0.70745 0.87155 0.84902 0.0
H668 H 0.74711 0.87974 0.99085 0.0
C669 C 0.73004 0.88797 0.82078 0.0
C670 C 0.75859 0.90142 0.85366 0.0
H671 H 0.68574 0.86132 0.82254 0.0
H672 H 0.72539 0.89014 0.77323 0.0
C673 C 0.76402 0.89845 0.91517 0.0
C674 C 0.25964 0.13029 0.94739 0.0
C675 C 0.28361 0.14515 0.91336 0.0
H676 H 0.21927 0.10232 0.94639 0.0
C677 C 0.28505 0.14305 0.85099 0.0
H678 H 0.25832 0.13143 0.99556 0.0
C679 C 0.2622 0.12663 0.82312 0.0
C680 C 0.23828 0.11187 0.85719 0.0
H681 H 0.30326 0.15426 0.82365 0.0
H682 H 0.26325 0.12541 0.77493 0.0
C683 C 0.23756 0.11364 0.91948 0.0
C684 C 0.5412 0.12152 0.09912 0.0
C685 C 0.53394 0.11773 0.16019 0.0
H686 H 0.52427 0.14053 0.02382 0.0
C687 C 0.50457 0.13104 0.1929 0.0
H688 H 0.56366 0.11155 0.07275 0.0
C689 C 0.48271 0.14774 0.16495 0.0
C690 C 0.48927 0.15114 0.10381 0.0
H691 H 0.49864 0.12862 0.24011 0.0
H692 H 0.46007 0.15779 0.19079 0.0
C693 C 0.51877 0.13803 0.07109 0.0
C694 C 0.51418 0.86488 0.16576 0.0
C695 C 0.50855 0.86196 0.10426 0.0
H696 H 0.49757 0.88355 0.24166 0.0
C697 C 0.47998 0.87548 0.0716 0.0
H698 H 0.53609 0.85451 0.19156 0.0
C699 C 0.45755 0.8919 0.10006 0.0
C700 C 0.46391 0.8952 0.16153 0.0
H701 H 0.47518 0.87335 0.02405 0.0
H702 H 0.43582 0.90218 0.07374 0.0
C703 C 0.49236 0.8815 0.19417 0.0
C704 C 0.94631 0.21971 0.27516 0.0
C705 C 0.959 0.2307 0.32679 0.0
H706 H 0.94704 0.21837 0.17983 0.0
C707 C 0.98457 0.24909 0.32033 0.0
H708 H 0.92667 0.20547 0.27829 0.0
C709 C 0.99596 0.25658 0.26348 0.0
C710 C 0.98264 0.24569 0.21189 0.0
H711 H 0.99438 0.25808 0.35906 0.0
H712 H 0.01343 0.27129 0.26033 0.0
C713 C 0.9579 0.22713 0.21856 0.0
C714 C 0.0137 0.76438 0.32132 0.0
C715 C 0.03849 0.78295 0.32812 0.0
H716 H 0.98529 0.74221 0.26088 0.0
C717 C 0.05007 0.79431 0.27678 0.0
H718 H 0.00476 0.75511 0.35982 0.0
C719 C 0.0382 0.78708 0.22008 0.0
C720 C 0.01433 0.76832 0.21303 0.0
H721 H 0.06906 0.80872 0.2802 0.0
H722 H 0.04824 0.79613 0.18155 0.0
C723 C 0.00206 0.75706 0.26436 0.0
C724 C 0.28782 0.47638 0.46958 0.0
C725 C 0.26395 0.49515 0.46262 0.0
H726 H 0.3187 0.4547 0.5296 0.0
C727 C 0.25171 0.50638 0.51401 0.0
H728 H 0.29782 0.46733 0.43102 0.0
C729 C 0.26337 0.49904 0.57093 0.0
C730 C 0.28816 0.48046 0.57764 0.0
H731 H 0.23495 0.52125 0.5106 0.0
H732 H 0.25446 0.5083 0.60948 0.0
C733 C 0.29971 0.46911 0.52624 0.0
C734 C 0.69854 0.54435 0.52879 0.0
C735 C 0.70986 0.53292 0.5801 0.0
H736 H 0.70041 0.5462 0.43358 0.0
C737 C 0.73427 0.51425 0.57326 0.0
H738 H 0.67986 0.55884 0.53224 0.0
C739 C 0.74574 0.5069 0.51628 0.0
C740 C 0.73369 0.51822 0.46498 0.0
H741 H 0.74299 0.50493 0.61175 0.0
H742 H 0.7622 0.49198 0.51275 0.0
C743 C 0.71024 0.53709 0.47208 0.0
C744 C 0.9847 0.74898 0.82131 0.0
C745 C 0.9599 0.7304 0.8281 0.0
H746 H 0.01312 0.77114 0.76088 0.0
C747 C 0.94832 0.71904 0.77676 0.0
H748 H 0.99364 0.75825 0.85982 0.0
C749 C 0.96019 0.72627 0.72006 0.0
C750 C 0.98407 0.74503 0.71302 0.0
H751 H 0.92932 0.70464 0.78017 0.0
H752 H 0.95016 0.71722 0.68153 0.0
C753 C 0.99634 0.75629 0.76436 0.0
C754 C 0.01406 0.26423 0.82033 0.0
C755 C 0.03953 0.28264 0.82682 0.0
H756 H 0.9853 0.24202 0.7603 0.0
C757 C 0.05212 0.29366 0.77521 0.0
H758 H 0.00435 0.25522 0.85905 0.0
C759 C 0.04052 0.28626 0.7186 0.0
C760 C 0.01589 0.26767 0.71191 0.0
H761 H 0.07167 0.30793 0.77836 0.0
H762 H 0.0513 0.29504 0.67989 0.0
C763 C 0.00267 0.25675 0.76348 0.0
C764 C 0.25272 1.00639 0.016 0.0
C765 C 0.26476 0.99506 0.96471 0.0
H766 H 0.25547 0.00839 0.11146 0.0
C767 C 0.28819 0.97619 0.97184 0.0
H768 H 0.23628 0.02132 1.01244 0.0
C769 C 0.29988 0.96894 0.02856 0.0
C770 C 0.28856 0.98038 0.07985 0.0
H771 H 0.29802 0.96707 0.93335 0.0
H772 H 0.31855 0.95445 0.03204 0.0
C773 C 0.26418 0.99906 0.07298 0.0
C774 C 0.71071 0.03695 0.9701 0.0
C775 C 0.73458 0.01818 0.96313 0.0
H776 H 0.67981 0.05862 0.03012 0.0
C777 C 0.74682 0.00694 0.01452 0.0
H778 H 0.7007 0.04599 0.93154 0.0
C779 C 0.73515 0.01428 0.07144 0.0
C780 C 0.71034 0.03286 0.07816 0.0
H781 H 0.7636 0.99208 1.01109 0.0
H782 H 0.74406 1.00502 0.10999 0.0
C783 C 0.6988 0.04421 0.02676 0.0
C784 C 0.45954 0.22664 0.72138 0.0
C785 C 0.4838 0.24533 0.71466 0.0
H786 H 0.42824 0.20499 0.78107 0.0
C787 C 0.49628 0.25642 0.76623 0.0
H788 H 0.44933 0.21771 0.68269 0.0
C789 C 0.48446 0.24903 0.82306 0.0
C790 C 0.45929 0.23053 0.82952 0.0
H791 H 0.51338 0.27121 0.76302 0.0
H792 H 0.49359 0.25818 0.86175 0.0
C793 C 0.44751 0.21933 0.77794 0.0
C794 C 0.51338 0.76439 0.82162 0.0
C795 C 0.53809 0.78299 0.82829 0.0
H796 H 0.48514 0.74212 0.76135 0.0
C797 C 0.54969 0.7943 0.77685 0.0
H798 H 0.50442 0.75516 0.86021 0.0
C799 C 0.53795 0.78698 0.7202 0.0
C800 C 0.51418 0.76819 0.71329 0.0
H801 H 0.56862 0.80872 0.78016 0.0
H802 H 0.54801 0.79599 0.6816 0.0
C803 C 0.50186 0.757 0.76472 0.0
C804 C 0.79868 0.46859 0.02863 0.0
C805 C 0.78709 0.47991 0.08007 0.0
H806 H 0.79706 0.46692 0.93336 0.0
C807 C 0.7624 0.49852 0.07338 0.0
H808 H 0.81761 0.45417 0.03196 0.0
C809 C 0.75093 0.50593 0.01648 0.0
C810 C 0.76327 0.49475 0.96505 0.0
H811 H 0.75346 0.50777 0.11195 0.0
H812 H 0.73428 0.52082 0.01314 0.0
C813 C 0.78698 0.47593 0.97197 0.0
C814 C 0.23411 0.51431 0.07099 0.0
C815 C 0.20927 0.53288 0.07766 0.0
H816 H 0.26251 0.49208 1.01072 0.0
C817 C 0.19753 0.54416 0.02622 0.0
H818 H 0.24317 0.5051 0.10958 0.0
C819 C 0.20931 0.53685 0.96956 0.0
C820 C 0.23327 0.5181 0.96265 0.0
H821 H 0.17849 0.55856 0.02952 0.0
H822 H 0.19917 0.54585 0.93097 0.0
C823 C 0.24567 0.50692 0.01408 0.0
C824 C 0.4487 0.71899 0.27684 0.0
C825 C 0.46028 0.7303 0.32828 0.0
H826 H 0.45039 0.71729 0.18159 0.0
C827 C 0.48498 0.74891 0.32162 0.0
H828 H 0.42978 0.70456 0.28015 0.0
C829 C 0.4965 0.7563 0.26471 0.0
C830 C 0.48419 0.7451 0.21328 0.0
H831 H 0.49392 0.75814 0.36021 0.0
H832 H 0.51319 0.77117 0.26135 0.0
C833 C 0.46044 0.72631 0.22019 0.0
C834 C 0.51413 0.26423 0.32305 0.0
C835 C 0.53933 0.28272 0.32953 0.0
H836 H 0.48517 0.24206 0.263 0.0
C837 C 0.55114 0.29392 0.27796 0.0
H838 H 0.50497 0.25509 0.36174 0.0
C839 C 0.53911 0.28661 0.22139 0.0
C840 C 0.5148 0.26793 0.21466 0.0
H841 H 0.57044 0.30825 0.28109 0.0
H842 H 0.54933 0.29554 0.18271 0.0
C843 C 0.5023 0.25685 0.26622 0.0
C844 C 0.80044 0.96905 0.52674 0.0
C845 C 0.78888 0.98038 0.57818 0.0
H846 H 0.79866 0.96733 0.43151 0.0
C847 C 0.76418 0.99899 0.5715 0.0
H848 H 0.81936 0.95463 0.53006 0.0
C849 C 0.7526 1.00637 0.51459 0.0
C850 C 0.76486 0.99515 0.46318 0.0
H851 H 0.75526 0.00823 0.61008 0.0
H852 H 0.73589 0.02124 0.51122 0.0
C853 C 0.78864 0.97636 0.4701 0.0
C854 C 0.19977 0.04474 0.52845 0.0
C855 C 0.21132 0.0334 0.57985 0.0
H856 H 0.20142 0.04644 0.43318 0.0
C857 C 0.23594 0.01477 0.57311 0.0
H858 H 0.18089 0.05918 0.53182 0.0
C859 C 0.24738 0.00737 0.51619 0.0
C860 C 0.23509 0.01859 0.46479 0.0
H861 H 0.24483 1.00551 0.61165 0.0
H862 H 0.26397 0.99247 0.5128 0.0
C863 C 0.21145 0.03742 0.47176 0.0
C864 C 0.244 0.23529 0.02459 0.0
C865 C 0.28932 0.24411 0.02379 0.0
H866 H 0.16931 0.24053 0.02329 0.0
C867 C 0.29365 0.26561 0.02606 0.0
H868 H 0.23963 0.21876 0.02319 0.0
C869 C 0.25344 0.27808 0.02491 0.0
C870 C 0.20815 0.26927 0.02291 0.0
H871 H 0.32812 0.27285 0.02539 0.0
H872 H 0.25784 0.29462 0.02378 0.0
C873 C 0.20377 0.24776 0.02487 0.0
C874 C 0.74443 0.73544 0.02322 0.0
C875 C 0.78968 0.7443 0.02177 0.0
H876 H 0.66972 0.74059 0.02298 0.0
C877 C 0.79392 0.76581 0.02367 0.0
H878 H 0.74014 0.7189 0.02212 0.0
C879 C 0.75364 0.77824 0.02296 0.0
C880 C 0.70839 0.76938 0.02179 0.0
H881 H 0.82835 0.77308 0.02248 0.0
H882 H 0.75793 0.79478 0.02165 0.0
C883 C 0.70415 0.74787 0.02395 0.0
C884 C 0.04343 0.498 0.27414 0.0
C885 C 0.03922 0.51951 0.27171 0.0
H886 H 0.00744 0.46905 0.27276 0.0
C887 C 0.99396 0.52839 0.27274 0.0
H888 H 0.07785 0.49071 0.27329 0.0
C889 C 0.95366 0.51597 0.27363 0.0
C890 C 0.9579 0.49446 0.27206 0.0
H891 H 0.98968 0.54493 0.2712 0.0
H892 H 0.91922 0.52324 0.27236 0.0
C893 C 0.00315 0.48559 0.2736 0.0
C894 C 0.24472 0.73509 0.52289 0.0
C895 C 0.28998 0.74394 0.52172 0.0
H896 H 0.17001 0.74026 0.52243 0.0
C897 C 0.29424 0.76545 0.52387 0.0
H898 H 0.24041 0.71855 0.52158 0.0
C899 C 0.25397 0.77789 0.52316 0.0
C900 C 0.20871 0.76904 0.52173 0.0
H901 H 0.32868 0.77272 0.52291 0.0
H902 H 0.25828 0.79443 0.52206 0.0
C903 C 0.20445 0.74753 0.52361 0.0
C904 C 0.74518 0.23521 0.52501 0.0
C905 C 0.79046 0.24403 0.52301 0.0
H906 H 0.67049 0.24043 0.52549 0.0
C907 C 0.79481 0.26554 0.52499 0.0
H908 H 0.7408 0.21868 0.52388 0.0
C909 C 0.75457 0.278 0.52472 0.0
C910 C 0.70927 0.26918 0.52391 0.0
H911 H 0.82927 0.27278 0.52341 0.0
H912 H 0.75893 0.29454 0.52333 0.0
C913 C 0.70496 0.24767 0.52617 0.0
C914 C 0.04478 0.99735 0.77354 0.0
C915 C 0.04055 0.01887 0.77193 0.0
H916 H 0.00874 0.9684 0.77125 0.0
C917 C 0.99531 0.02774 0.77352 0.0
H918 H 0.07921 0.99008 0.77224 0.0
C919 C 0.95502 0.01533 0.77417 0.0
C920 C 0.95922 0.99382 0.77179 0.0
H921 H 0.99102 0.04428 0.77265 0.0
H922 H 0.9206 0.02262 0.77335 0.0
C923 C 0.00447 0.98494 0.77275 0.0
C924 C 0.50342 0.48535 0.77374 0.0
C925 C 0.45818 0.49422 0.77213 0.0
H926 H 0.57813 0.4905 0.77403 0.0
C927 C 0.45391 0.51573 0.77437 0.0
H928 H 0.50773 0.46881 0.77239 0.0
C929 C 0.49418 0.52815 0.77412 0.0
C930 C 0.53944 0.51929 0.77307 0.0
H931 H 0.41947 0.523 0.77309 0.0
H932 H 0.48989 0.54469 0.77303 0.0
C933 C 0.54369 0.49777 0.77492 0.0
C934 C 0.45466 0.01554 0.27493 0.0
C935 C 0.4589 0.99403 0.27303 0.0
H936 H 0.49062 0.04451 0.27257 0.0
C937 C 0.50416 0.98516 0.27415 0.0
H938 H 0.42022 0.02282 0.274 0.0
C939 C 0.54443 0.99759 0.27453 0.0
C940 C 0.54017 0.0191 0.27235 0.0
H941 H 0.50845 0.96862 0.27302 0.0
H942 H 0.57887 0.99031 0.2733 0.0
C943 C 0.49493 0.02797 0.27388 0.0
loop_
_geom_bond_atom_site_label_1
_geom_bond_atom_site_label_2
_geom_bond_distance
_geom_bond_site_symmetry_2
_ccdc_geom_bond_type
Co0 O3 1.970 . S
Co0 N17 1.989 . S
Co0 O25 1.967 . S
Co0 O32 1.920 . S
Co1 O4 1.966 . S
Co1 N10 2.022 . S
Co1 N18 1.993 . S
Co1 O26 1.941 1_554 S
C2 O3 1.258 . S
C2 O4 1.263 1_556 S
O3 Co0 1.970 . S
O3 C2 1.258 . S
O4 Co1 1.966 . S
O4 C2 1.263 1_554 S
C5 O6 1.235 . S
C5 O32 1.289 . S
O6 C5 1.235 . S
C7 C9 1.400 . S
C7 N10 1.351 . S
C7 C12 1.501 . S
C8 C9 1.387 1_655 S
C8 N11 1.341 . S
C9 C7 1.400 . S
C9 C8 1.387 1_455 S
N10 Co1 2.022 . S
N10 C7 1.351 . S
N10 N11 1.365 1_455 S
N11 C8 1.341 . S
N11 N10 1.365 1_655 S
N11 H31 0.862 . S
C12 C7 1.501 . S
C12 H13 0.961 . S
C12 H14 0.961 . S
C12 H15 0.960 . S
H13 C12 0.961 . S
H14 C12 0.961 . S
H15 C12 0.960 . S
C16 N17 1.342 1_554 S
C16 C20 1.401 . S
C16 C21 1.499 1_554 S
N17 Co0 1.989 . S
N17 C16 1.342 1_556 S
N17 N18 1.388 1_556 S
N18 Co1 1.993 . S
N18 N17 1.388 1_554 S
N18 C19 1.346 . S
C19 N18 1.346 . S
C19 C20 1.396 . S
C19 C29 1.510 1_455 S
C20 C16 1.401 . S
C20 C19 1.396 . S
C21 C16 1.499 1_556 S
C21 H22 0.959 . S
C21 H23 0.965 . S
C21 H24 0.961 . S
H22 C21 0.959 . S
H23 C21 0.965 . S
H24 C21 0.961 . S
O25 Co0 1.967 . S
O25 C33 1.258 . S
O26 Co1 1.941 1_556 S
O26 C33 1.266 . S
H27 C29 0.959 . S
H28 C29 0.961 1_455 S
C29 C19 1.510 1_655 S
C29 H27 0.959 . S
C29 H28 0.961 1_655 S
C29 H30 0.960 1_655 S
H30 C29 0.960 1_455 S
H31 N11 0.862 . S
O32 Co0 1.920 . S
O32 C5 1.289 . S
C33 O25 1.258 . S
C33 O26 1.266 . S
Co34 O37 1.970 . S
Co34 N51 1.989 . S
Co34 O59 1.967 . S
Co34 O66 1.920 . S
Co35 O38 1.966 . S
Co35 N44 2.022 . S
Co35 N52 1.993 . S
Co35 O60 1.941 1_554 S
C36 O37 1.258 . S
C36 O38 1.263 1_556 S
O37 Co34 1.970 . S
O37 C36 1.258 . S
O38 Co35 1.966 . S
O38 C36 1.263 1_554 S
C39 O40 1.235 . S
C39 O66 1.289 . S
O40 C39 1.235 . S
C41 C43 1.400 . S
C41 N44 1.351 . S
C41 C46 1.501 . S
C42 C43 1.387 1_455 S
C42 N45 1.341 . S
C43 C41 1.400 . S
C43 C42 1.387 1_655 S
N44 Co35 2.022 . S
N44 C41 1.351 . S
N44 N45 1.365 1_655 S
N45 C42 1.341 . S
N45 N44 1.365 1_455 S
N45 H65 0.862 . S
C46 C41 1.501 . S
C46 H47 0.961 . S
C46 H48 0.961 . S
C46 H49 0.960 . S
H47 C46 0.961 . S
H48 C46 0.961 . S
H49 C46 0.960 . S
C50 N51 1.342 1_554 S
C50 C54 1.401 . S
C50 C55 1.499 1_554 S
N51 Co34 1.989 . S
N51 C50 1.342 1_556 S
N51 N52 1.388 1_556 S
N52 Co35 1.993 . S
N52 N51 1.388 1_554 S
N52 C53 1.346 . S
C53 N52 1.346 . S
C53 C54 1.396 . S
C53 C63 1.510 1_655 S
C54 C50 1.401 . S
C54 C53 1.396 . S
C55 C50 1.499 1_556 S
C55 H56 0.959 . S
C55 H57 0.965 . S
C55 H58 0.961 . S
H56 C55 0.959 . S
H57 C55 0.965 . S
H58 C55 0.961 . S
O59 Co34 1.967 . S
O59 C67 1.258 . S
O60 Co35 1.941 1_556 S
O60 C67 1.266 . S
H61 C63 0.959 . S
H62 C63 0.961 1_655 S
C63 C53 1.510 1_455 S
C63 H61 0.959 . S
C63 H62 0.961 1_455 S
C63 H64 0.960 1_455 S
H64 C63 0.960 1_655 S
H65 N45 0.862 . S
O66 Co34 1.920 . S
O66 C39 1.289 . S
C67 O59 1.258 . S
C67 O60 1.266 . S
Co68 O71 1.970 . S
Co68 N85 1.989 . S
Co68 O93 1.967 . S
Co68 O100 1.920 . S
Co69 O72 1.966 . S
Co69 N78 2.022 . S
Co69 N86 1.993 . S
Co69 O94 1.941 . S
C70 O71 1.258 . S
C70 O72 1.263 . S
O71 Co68 1.970 . S
O71 C70 1.258 . S
O72 Co69 1.966 . S
O72 C70 1.263 . S
C73 O74 1.235 . S
C73 O100 1.289 . S
O74 C73 1.235 . S
C75 C77 1.400 . S
C75 N78 1.351 . S
C75 C80 1.501 . S
C76 C77 1.387 . S
C76 N79 1.341 . S
C77 C75 1.400 . S
C77 C76 1.387 . S
N78 Co69 2.022 . S
N78 C75 1.351 . S
N78 N79 1.365 . S
N79 C76 1.341 . S
N79 N78 1.365 . S
N79 H99 0.862 . S
C80 C75 1.501 . S
C80 H81 0.961 . S
C80 H82 0.961 . S
C80 H83 0.960 . S
H81 C80 0.961 . S
H82 C80 0.961 . S
H83 C80 0.960 . S
C84 N85 1.342 . S
C84 C88 1.401 . S
C84 C89 1.499 . S
N85 Co68 1.989 . S
N85 C84 1.342 . S
N85 N86 1.388 . S
N86 Co69 1.993 . S
N86 N85 1.388 . S
N86 C87 1.346 . S
C87 N86 1.346 . S
C87 C88 1.396 . S
C87 C97 1.510 . S
C88 C84 1.401 . S
C88 C87 1.396 . S
C89 C84 1.499 . S
C89 H90 0.959 . S
C89 H91 0.960 . S
C89 H92 0.961 . S
H90 C89 0.959 . S
H91 C89 0.960 . S
H92 C89 0.961 . S
O93 Co68 1.967 . S
O93 C101 1.258 . S
O94 Co69 1.941 . S
O94 C101 1.266 . S
H95 C97 0.959 . S
H96 C97 0.961 . S
C97 C87 1.510 . S
C97 H95 0.959 . S
C97 H96 0.961 . S
C97 H98 0.960 . S
H98 C97 0.960 . S
H99 N79 0.862 . S
O100 Co68 1.920 . S
O100 C73 1.289 . S
C101 O93 1.258 . S
C101 O94 1.266 . S
Co102 O105 1.970 . S
Co102 N119 1.989 . S
Co102 O127 1.967 . S
Co102 O134 1.920 . S
Co103 O106 1.966 . S
Co103 N112 2.022 . S
Co103 N120 1.993 . S
Co103 O128 1.941 . S
C104 O105 1.258 . S
C104 O106 1.263 . S
O105 Co102 1.970 . S
O105 C104 1.258 . S
O106 Co103 1.966 . S
O106 C104 1.263 . S
C107 O108 1.235 . S
C107 O134 1.289 . S
O108 C107 1.235 . S
C109 C111 1.400 . S
C109 N112 1.351 . S
C109 C114 1.501 . S
C110 C111 1.387 . S
C110 N113 1.341 . S
C111 C109 1.400 . S
C111 C110 1.387 . S
N112 Co103 2.022 . S
N112 C109 1.351 . S
N112 N113 1.365 . S
N113 C110 1.341 . S
N113 N112 1.365 . S
N113 H133 0.862 . S
C114 C109 1.501 . S
C114 H115 0.961 . S
C114 H116 0.961 . S
C114 H117 0.960 . S
H115 C114 0.961 . S
H116 C114 0.961 . S
H117 C114 0.960 . S
C118 N119 1.342 . S
C118 C122 1.401 . S
C118 C123 1.499 . S
N119 Co102 1.989 . S
N119 C118 1.342 . S
N119 N120 1.388 . S
N120 Co103 1.993 . S
N120 N119 1.388 . S
N120 C121 1.346 . S
C121 N120 1.346 . S
C121 C122 1.396 . S
C121 C131 1.510 . S
C122 C118 1.401 . S
C122 C121 1.396 . S
C123 C118 1.499 . S
C123 H124 0.959 . S
C123 H125 0.960 . S
C123 H126 0.961 . S
H124 C123 0.959 . S
H125 C123 0.960 . S
H126 C123 0.961 . S
O127 Co102 1.967 . S
O127 C135 1.258 . S
O128 Co103 1.941 . S
O128 C135 1.266 . S
H129 C131 0.959 . S
H130 C131 0.961 . S
C131 C121 1.510 . S
C131 H129 0.959 . S
C131 H130 0.961 . S
C131 H132 0.960 . S
H132 C131 0.960 . S
H133 N113 0.862 . S
O134 Co102 1.920 . S
O134 C107 1.289 . S
C135 O127 1.258 . S
C135 O128 1.266 . S
Co136 O139 1.970 . S
Co136 N153 1.989 . S
Co136 O161 1.967 . S
Co136 O168 1.920 . S
Co137 O140 1.966 . S
Co137 N146 2.022 . S
Co137 N154 1.993 . S
Co137 O162 1.941 . S
C138 O139 1.258 . S
C138 O140 1.263 . S
O139 Co136 1.970 . S
O139 C138 1.258 . S
O140 Co137 1.966 . S
O140 C138 1.263 . S
C141 O142 1.235 . S
C141 O168 1.289 . S
O142 C141 1.235 . S
C143 C145 1.400 . S
C143 N146 1.351 . S
C143 C148 1.501 . S
C144 C145 1.387 1_655 S
C144 N147 1.341 . S
C145 C143 1.400 . S
C145 C144 1.387 1_455 S
N146 Co137 2.022 . S
N146 C143 1.351 . S
N146 N147 1.365 1_455 S
N147 C144 1.341 . S
N147 N146 1.365 1_655 S
N147 H167 0.862 . S
C148 C143 1.501 . S
C148 H149 0.961 . S
C148 H150 0.961 . S
C148 H151 0.960 . S
H149 C148 0.961 . S
H150 C148 0.961 . S
H151 C148 0.960 . S
C152 N153 1.342 . S
C152 C156 1.401 . S
C152 C157 1.499 . S
N153 Co136 1.989 . S
N153 C152 1.342 . S
N153 N154 1.388 . S
N154 Co137 1.993 . S
N154 N153 1.388 . S
N154 C155 1.346 . S
C155 N154 1.346 . S
C155 C156 1.396 . S
C155 C165 1.510 1_455 S
C156 C152 1.401 . S
C156 C155 1.396 . S
C157 C152 1.499 . S
C157 H158 0.959 . S
C157 H159 0.960 . S
C157 H160 0.961 . S
H158 C157 0.959 . S
H159 C157 0.960 . S
H160 C157 0.961 . S
O161 Co136 1.967 . S
O161 C169 1.258 . S
O162 Co137 1.941 . S
O162 C169 1.266 . S
H163 C165 0.959 . S
H164 C165 0.961 1_455 S
C165 C155 1.510 1_655 S
C165 H163 0.959 . S
C165 H164 0.961 1_655 S
C165 H166 0.960 1_655 S
H166 C165 0.960 1_455 S
H167 N147 0.862 . S
O168 Co136 1.920 . S
O168 C141 1.289 . S
C169 O161 1.258 . S
C169 O162 1.266 . S
Co170 O173 1.970 . S
Co170 N187 1.989 . S
Co170 O195 1.967 . S
Co170 O202 1.920 . S
Co171 O174 1.966 . S
Co171 N180 2.022 . S
Co171 N188 1.993 . S
Co171 O196 1.941 . S
C172 O173 1.258 . S
C172 O174 1.263 . S
O173 Co170 1.970 . S
O173 C172 1.258 . S
O174 Co171 1.966 . S
O174 C172 1.263 . S
C175 O176 1.235 . S
C175 O202 1.289 . S
O176 C175 1.235 . S
C177 C179 1.400 . S
C177 N180 1.351 . S
C177 C182 1.501 . S
C178 C179 1.387 1_455 S
C178 N181 1.341 . S
C179 C177 1.400 . S
C179 C178 1.387 1_655 S
N180 Co171 2.022 . S
N180 C177 1.351 . S
N180 N181 1.365 1_655 S
N181 C178 1.341 . S
N181 N180 1.365 1_455 S
N181 H201 0.862 . S
C182 C177 1.501 . S
C182 H183 0.961 . S
C182 H184 0.961 . S
C182 H185 0.960 . S
H183 C182 0.961 . S
H184 C182 0.961 . S
H185 C182 0.960 . S
C186 N187 1.342 . S
C186 C190 1.401 . S
C186 C191 1.499 . S
N187 Co170 1.989 . S
N187 C186 1.342 . S
N187 N188 1.388 . S
N188 Co171 1.993 . S
N188 N187 1.388 . S
N188 C189 1.346 . S
C189 N188 1.346 . S
C189 C190 1.396 . S
C189 C199 1.510 1_655 S
C190 C186 1.401 . S
C190 C189 1.396 . S
C191 C186 1.499 . S
C191 H192 0.959 . S
C191 H193 0.960 . S
C191 H194 0.961 . S
H192 C191 0.959 . S
H193 C191 0.960 . S
H194 C191 0.961 . S
O195 Co170 1.967 . S
O195 C203 1.258 . S
O196 Co171 1.941 . S
O196 C203 1.266 . S
H197 C199 0.959 . S
H198 C199 0.961 1_655 S
C199 C189 1.510 1_455 S
C199 H197 0.959 . S
C199 H198 0.961 1_455 S
C199 H200 0.960 1_455 S
H200 C199 0.960 1_655 S
H201 N181 0.862 . S
O202 Co170 1.920 . S
O202 C175 1.289 . S
C203 O195 1.258 . S
C203 O196 1.266 . S
Co204 O207 1.970 . S
Co204 N221 1.989 . S
Co204 O229 1.967 . S
Co204 O236 1.920 . S
Co205 O208 1.966 . S
Co205 N214 2.022 . S
Co205 N222 1.993 . S
Co205 O230 1.941 . S
C206 O207 1.258 . S
C206 O208 1.263 . S
O207 Co204 1.970 . S
O207 C206 1.258 . S
O208 Co205 1.966 . S
O208 C206 1.263 . S
C209 O210 1.235 . S
C209 O236 1.289 . S
O210 C209 1.235 . S
C211 C213 1.414 . S
C211 N214 1.351 . S
C211 C216 1.501 . S
C212 C213 1.402 . S
C212 N215 1.341 . S
C213 C211 1.414 . S
C213 C212 1.402 . S
N214 Co205 2.022 . S
N214 C211 1.351 . S
N214 N215 1.365 . S
N215 C212 1.341 . S
N215 N214 1.365 . S
N215 H235 0.862 . S
C216 C211 1.501 . S
C216 H217 0.961 . S
C216 H218 0.961 . S
C216 H219 0.960 1_545 S
H217 C216 0.961 . S
H218 C216 0.961 . S
H219 C216 0.960 1_565 S
C220 N221 1.342 . S
C220 C224 1.401 . S
C220 C225 1.499 . S
N221 Co204 1.989 . S
N221 C220 1.342 . S
N221 N222 1.388 . S
N222 Co205 1.993 . S
N222 N221 1.388 . S
N222 C223 1.346 . S
C223 N222 1.346 . S
C223 C224 1.396 . S
C223 C233 1.510 . S
C224 C220 1.401 . S
C224 C223 1.396 . S
C225 C220 1.499 . S
C225 H226 0.959 . S
C225 H227 0.960 . S
C225 H228 0.961 . S
H226 C225 0.959 . S
H227 C225 0.960 . S
H228 C225 0.961 . S
O229 Co204 1.967 . S
O229 C237 1.258 . S
O230 Co205 1.941 . S
O230 C237 1.266 . S
H231 C233 0.959 . S
H232 C233 0.961 . S
C233 C223 1.510 . S
C233 H231 0.959 . S
C233 H232 0.961 . S
C233 H234 0.960 . S
H234 C233 0.960 . S
H235 N215 0.862 . S
O236 Co204 1.920 . S
O236 C209 1.289 . S
C237 O229 1.258 . S
C237 O230 1.266 . S
Co238 O241 1.970 . S
Co238 N255 1.989 . S
Co238 O263 1.967 . S
Co238 O270 1.920 . S
Co239 O242 1.966 . S
Co239 N248 2.022 . S
Co239 N256 1.993 . S
Co239 O264 1.941 . S
C240 O241 1.258 . S
C240 O242 1.263 . S
O241 Co238 1.970 . S
O241 C240 1.258 . S
O242 Co239 1.966 . S
O242 C240 1.263 . S
C243 O244 1.235 . S
C243 O270 1.289 . S
O244 C243 1.235 . S
C245 C247 1.414 . S
C245 N248 1.351 . S
C245 C250 1.501 . S
C246 C247 1.402 . S
C246 N249 1.341 . S
C247 C245 1.414 . S
C247 C246 1.402 . S
N248 Co239 2.022 . S
N248 C245 1.351 . S
N248 N249 1.365 . S
N249 C246 1.341 . S
N249 N248 1.365 . S
N249 H269 0.862 . S
C250 C245 1.501 . S
C250 H251 0.961 . S
C250 H252 0.961 . S
C250 H253 0.960 1_565 S
H251 C250 0.961 . S
H252 C250 0.961 . S
H253 C250 0.960 1_545 S
C254 N255 1.342 . S
C254 C258 1.401 . S
C254 C259 1.499 . S
N255 Co238 1.989 . S
N255 C254 1.342 . S
N255 N256 1.388 . S
N256 Co239 1.993 . S
N256 N255 1.388 . S
N256 C257 1.346 . S
C257 N256 1.346 . S
C257 C258 1.396 . S
C257 C267 1.510 . S
C258 C254 1.401 . S
C258 C257 1.396 . S
C259 C254 1.499 . S
C259 H260 0.959 . S
C259 H261 0.960 . S
C259 H262 0.961 . S
H260 C259 0.959 . S
H261 C259 0.960 . S
H262 C259 0.961 . S
O263 Co238 1.967 . S
O263 C271 1.258 . S
O264 Co239 1.941 . S
O264 C271 1.266 . S
H265 C267 0.959 . S
H266 C267 0.961 . S
C267 C257 1.510 . S
C267 H265 0.959 . S
C267 H266 0.961 . S
C267 H268 0.960 . S
H268 C267 0.960 . S
H269 N249 0.862 . S
O270 Co238 1.920 . S
O270 C243 1.289 . S
C271 O263 1.258 . S
C271 O264 1.266 . S
Co272 O275 1.970 . S
Co272 N289 1.989 . S
Co272 O297 1.967 . S
Co272 O304 1.920 . S
Co273 O276 1.966 . S
Co273 N282 2.022 . S
Co273 N290 1.993 . S
Co273 O298 1.941 . S
C274 O275 1.258 . S
C274 O276 1.263 . S
O275 Co272 1.970 . S
O275 C274 1.258 . S
O276 Co273 1.966 . S
O276 C274 1.263 . S
C277 O278 1.235 . S
C277 O304 1.289 . S
O278 C277 1.235 . S
C279 C281 1.400 . S
C279 N282 1.351 . S
C279 C284 1.501 . S
C280 C281 1.387 . S
C280 N283 1.341 . S
C281 C279 1.400 . S
C281 C280 1.387 . S
N282 Co273 2.022 . S
N282 C279 1.351 . S
N282 N283 1.365 . S
N283 C280 1.341 . S
N283 N282 1.365 . S
N283 H303 0.862 . S
C284 C279 1.501 . S
C284 H285 0.961 . S
C284 H286 0.961 . S
C284 H287 0.960 . S
H285 C284 0.961 . S
H286 C284 0.961 . S
H287 C284 0.960 . S
C288 N289 1.342 . S
C288 C292 1.401 . S
C288 C293 1.499 . S
N289 Co272 1.989 . S
N289 C288 1.342 . S
N289 N290 1.388 . S
N290 Co273 1.993 . S
N290 N289 1.388 . S
N290 C291 1.346 . S
C291 N290 1.346 . S
C291 C292 1.396 . S
C291 C301 1.510 . S
C292 C288 1.401 . S
C292 C291 1.396 . S
C293 C288 1.499 . S
C293 H294 0.959 . S
C293 H295 0.960 . S
C293 H296 0.961 . S
H294 C293 0.959 . S
H295 C293 0.960 . S
H296 C293 0.961 . S
O297 Co272 1.967 . S
O297 C305 1.258 . S
O298 Co273 1.941 . S
O298 C305 1.266 . S
H299 C301 0.959 . S
H300 C301 0.961 . S
C301 C291 1.510 . S
C301 H299 0.959 . S
C301 H300 0.961 . S
C301 H302 0.960 . S
H302 C301 0.960 . S
H303 N283 0.862 . S
O304 Co272 1.920 . S
O304 C277 1.289 . S
C305 O297 1.258 . S
C305 O298 1.266 . S
Co306 O309 1.970 . S
Co306 N323 1.989 . S
Co306 O331 1.967 . S
Co306 O338 1.920 . S
Co307 O310 1.966 . S
Co307 N316 2.022 . S
Co307 N324 1.993 . S
Co307 O332 1.941 . S
C308 O309 1.258 . S
C308 O310 1.263 . S
O309 Co306 1.970 . S
O309 C308 1.258 . S
O310 Co307 1.966 . S
O310 C308 1.263 . S
C311 O312 1.235 . S
C311 O338 1.289 . S
O312 C311 1.235 . S
C313 C315 1.400 . S
C313 N316 1.351 . S
C313 C318 1.501 . S
C314 C315 1.387 . S
C314 N317 1.341 . S
C315 C313 1.400 . S
C315 C314 1.387 . S
N316 Co307 2.022 . S
N316 C313 1.351 . S
N316 N317 1.365 . S
N317 C314 1.341 . S
N317 N316 1.365 . S
N317 H337 0.862 . S
C318 C313 1.501 . S
C318 H319 0.961 . S
C318 H320 0.961 . S
C318 H321 0.960 . S
H319 C318 0.961 . S
H320 C318 0.961 . S
H321 C318 0.960 . S
C322 N323 1.342 . S
C322 C326 1.401 . S
C322 C327 1.499 . S
N323 Co306 1.989 . S
N323 C322 1.342 . S
N323 N324 1.388 . S
N324 Co307 1.993 . S
N324 N323 1.388 . S
N324 C325 1.346 . S
C325 N324 1.346 . S
C325 C326 1.396 . S
C325 C335 1.510 . S
C326 C322 1.401 . S
C326 C325 1.396 . S
C327 C322 1.499 . S
C327 H328 0.959 . S
C327 H329 0.960 . S
C327 H330 0.961 . S
H328 C327 0.959 . S
H329 C327 0.960 . S
H330 C327 0.961 . S
O331 Co306 1.967 . S
O331 C339 1.258 . S
O332 Co307 1.941 . S
O332 C339 1.266 . S
H333 C335 0.959 . S
H334 C335 0.961 . S
C335 C325 1.510 . S
C335 H333 0.959 . S
C335 H334 0.961 . S
C335 H336 0.960 . S
H336 C335 0.960 . S
H337 N317 0.862 . S
O338 Co306 1.920 . S
O338 C311 1.289 . S
C339 O331 1.258 . S
C339 O332 1.266 . S
Co340 O343 1.970 . S
Co340 N357 1.989 . S
Co340 O365 1.967 . S
Co340 O372 1.920 . S
Co341 O344 1.966 . S
Co341 N350 2.022 . S
Co341 N358 1.993 . S
Co341 O366 1.941 . S
C342 O343 1.258 . S
C342 O344 1.263 . S
O343 Co340 1.970 . S
O343 C342 1.258 . S
O344 Co341 1.966 . S
O344 C342 1.263 . S
C345 O346 1.235 . S
C345 O372 1.289 . S
O346 C345 1.235 . S
C347 C349 1.400 . S
C347 N350 1.351 . S
C347 C352 1.501 . S
C348 C349 1.387 . S
C348 N351 1.341 . S
C349 C347 1.400 . S
C349 C348 1.387 . S
N350 Co341 2.022 . S
N350 C347 1.351 . S
N350 N351 1.365 . S
N351 C348 1.341 . S
N351 N350 1.365 . S
N351 H371 0.862 . S
C352 C347 1.501 . S
C352 H353 0.961 . S
C352 H354 0.961 . S
C352 H355 0.960 . S
H353 C352 0.961 . S
H354 C352 0.961 . S
H355 C352 0.960 . S
C356 N357 1.342 . S
C356 C360 1.401 . S
C356 C361 1.499 . S
N357 Co340 1.989 . S
N357 C356 1.342 . S
N357 N358 1.388 . S
N358 Co341 1.993 . S
N358 N357 1.388 . S
N358 C359 1.346 . S
C359 N358 1.346 . S
C359 C360 1.396 . S
C359 C369 1.510 . S
C360 C356 1.401 . S
C360 C359 1.396 . S
C361 C356 1.499 . S
C361 H362 0.959 . S
C361 H363 0.960 . S
C361 H364 0.961 . S
H362 C361 0.959 . S
H363 C361 0.960 . S
H364 C361 0.961 . S
O365 Co340 1.967 . S
O365 C373 1.258 . S
O366 Co341 1.941 . S
O366 C373 1.266 . S
H367 C369 0.959 . S
H368 C369 0.961 . S
C369 C359 1.510 . S
C369 H367 0.959 . S
C369 H368 0.961 . S
C369 H370 0.960 . S
H370 C369 0.960 . S
H371 N351 0.862 . S
O372 Co340 1.920 . S
O372 C345 1.289 . S
C373 O365 1.258 . S
C373 O366 1.266 . S
Co374 O377 1.970 . S
Co374 N391 1.989 . S
Co374 O399 1.967 . S
Co374 O406 1.920 . S
Co375 O378 1.966 . S
Co375 N384 2.022 . S
Co375 N392 1.993 . S
Co375 O400 1.941 . S
C376 O377 1.258 . S
C376 O378 1.263 . S
O377 Co374 1.970 . S
O377 C376 1.258 . S
O378 Co375 1.966 . S
O378 C376 1.263 . S
C379 O380 1.235 . S
C379 O406 1.289 . S
O380 C379 1.235 . S
C381 C383 1.400 . S
C381 N384 1.351 . S
C381 C386 1.501 . S
C382 C383 1.387 . S
C382 N385 1.341 . S
C383 C381 1.400 . S
C383 C382 1.387 . S
N384 Co375 2.022 . S
N384 C381 1.351 . S
N384 N385 1.365 . S
N385 C382 1.341 . S
N385 N384 1.365 . S
N385 H405 0.862 . S
C386 C381 1.501 . S
C386 H387 0.961 . S
C386 H388 0.961 . S
C386 H389 0.960 . S
H387 C386 0.961 . S
H388 C386 0.961 . S
H389 C386 0.960 . S
C390 N391 1.342 . S
C390 C394 1.401 . S
C390 C395 1.499 . S
N391 Co374 1.989 . S
N391 C390 1.342 . S
N391 N392 1.388 . S
N392 Co375 1.993 . S
N392 N391 1.388 . S
N392 C393 1.346 . S
C393 N392 1.346 . S
C393 C394 1.396 . S
C393 C403 1.510 . S
C394 C390 1.401 . S
C394 C393 1.396 . S
C395 C390 1.499 . S
C395 H396 0.959 . S
C395 H397 0.960 . S
C395 H398 0.961 . S
H396 C395 0.959 . S
H397 C395 0.960 . S
H398 C395 0.961 . S
O399 Co374 1.967 . S
O399 C407 1.258 . S
O400 Co375 1.941 . S
O400 C407 1.266 . S
H401 C403 0.959 . S
H402 C403 0.961 . S
C403 C393 1.510 . S
C403 H401 0.959 . S
C403 H402 0.961 . S
C403 H404 0.960 . S
H404 C403 0.960 . S
H405 N385 0.862 . S
O406 Co374 1.920 . S
O406 C379 1.289 . S
C407 O399 1.258 . S
C407 O400 1.266 . S
Co408 O411 1.970 . S
Co408 N425 1.989 . S
Co408 O433 1.967 . S
Co408 O440 1.920 . S
Co409 O412 1.966 . S
Co409 N418 2.022 . S
Co409 N426 1.993 . S
Co409 O434 1.941 1_554 S
C410 O411 1.258 . S
C410 O412 1.263 1_556 S
O411 Co408 1.970 . S
O411 C410 1.258 . S
O412 Co409 1.966 . S
O412 C410 1.263 1_554 S
C413 O414 1.235 . S
C413 O440 1.289 . S
O414 C413 1.235 . S
C415 C417 1.400 . S
C415 N418 1.351 . S
C415 C420 1.501 . S
C416 C417 1.387 . S
C416 N419 1.341 . S
C417 C415 1.400 . S
C417 C416 1.387 . S
N418 Co409 2.022 . S
N418 C415 1.351 . S
N418 N419 1.365 . S
N419 C416 1.341 . S
N419 N418 1.365 . S
N419 H439 0.862 . S
C420 C415 1.501 . S
C420 H421 0.961 . S
C420 H422 0.961 . S
C420 H423 0.960 . S
H421 C420 0.961 . S
H422 C420 0.961 . S
H423 C420 0.960 . S
C424 N425 1.342 1_554 S
C424 C428 1.401 . S
C424 C429 1.499 1_554 S
N425 Co408 1.989 . S
N425 C424 1.342 1_556 S
N425 N426 1.388 1_556 S
N426 Co409 1.993 . S
N426 N425 1.388 1_554 S
N426 C427 1.346 . S
C427 N426 1.346 . S
C427 C428 1.396 . S
C427 C437 1.510 . S
C428 C424 1.401 . S
C428 C427 1.396 . S
C429 C424 1.499 1_556 S
C429 H430 0.959 . S
C429 H431 0.965 . S
C429 H432 0.961 . S
H430 C429 0.959 . S
H431 C429 0.965 . S
H432 C429 0.961 . S
O433 Co408 1.967 . S
O433 C441 1.258 . S
O434 Co409 1.941 1_556 S
O434 C441 1.266 . S
H435 C437 0.959 . S
H436 C437 0.961 . S
C437 C427 1.510 . S
C437 H435 0.959 . S
C437 H436 0.961 . S
C437 H438 0.960 . S
H438 C437 0.960 . S
H439 N419 0.862 . S
O440 Co408 1.920 . S
O440 C413 1.289 . S
C441 O433 1.258 . S
C441 O434 1.266 . S
Co442 O445 1.970 . S
Co442 N459 1.989 . S
Co442 O467 1.967 . S
Co442 O474 1.920 . S
Co443 O446 1.966 . S
Co443 N452 2.022 . S
Co443 N460 1.993 . S
Co443 O468 1.941 1_554 S
C444 O445 1.258 . S
C444 O446 1.263 1_556 S
O445 Co442 1.970 . S
O445 C444 1.258 . S
O446 Co443 1.966 . S
O446 C444 1.263 1_554 S
C447 O448 1.235 . S
C447 O474 1.289 . S
O448 C447 1.235 . S
C449 C451 1.400 . S
C449 N452 1.351 . S
C449 C454 1.501 . S
C450 C451 1.387 . S
C450 N453 1.341 . S
C451 C449 1.400 . S
C451 C450 1.387 . S
N452 Co443 2.022 . S
N452 C449 1.351 . S
N452 N453 1.365 . S
N453 C450 1.341 . S
N453 N452 1.365 . S
N453 H473 0.862 . S
C454 C449 1.501 . S
C454 H455 0.961 . S
C454 H456 0.961 . S
C454 H457 0.960 . S
H455 C454 0.961 . S
H456 C454 0.961 . S
H457 C454 0.960 . S
C458 N459 1.342 1_554 S
C458 C462 1.401 . S
C458 C463 1.499 1_554 S
N459 Co442 1.989 . S
N459 C458 1.342 1_556 S
N459 N460 1.388 1_556 S
N460 Co443 1.993 . S
N460 N459 1.388 1_554 S
N460 C461 1.346 . S
C461 N460 1.346 . S
C461 C462 1.396 . S
C461 C471 1.510 . S
C462 C458 1.401 . S
C462 C461 1.396 . S
C463 C458 1.499 1_556 S
C463 H464 0.959 . S
C463 H465 0.965 . S
C463 H466 0.961 . S
H464 C463 0.959 . S
H465 C463 0.965 . S
H466 C463 0.961 . S
O467 Co442 1.967 . S
O467 C475 1.258 . S
O468 Co443 1.941 1_556 S
O468 C475 1.266 . S
H469 C471 0.959 . S
H470 C471 0.961 . S
C471 C461 1.510 . S
C471 H469 0.959 . S
C471 H470 0.961 . S
C471 H472 0.960 . S
H472 C471 0.960 . S
H473 N453 0.862 . S
O474 Co442 1.920 . S
O474 C447 1.289 . S
C475 O467 1.258 . S
C475 O468 1.266 . S
Co476 O479 1.970 . S
Co476 N493 1.989 . S
Co476 O501 1.967 . S
Co476 O508 1.920 . S
Co477 O480 1.966 . S
Co477 N486 2.022 . S
Co477 N494 1.993 . S
Co477 O502 1.941 . S
C478 O479 1.258 . S
C478 O480 1.263 . S
O479 Co476 1.970 . S
O479 C478 1.258 . S
O480 Co477 1.966 . S
O480 C478 1.263 . S
C481 O482 1.235 . S
C481 O508 1.289 . S
O482 C481 1.235 . S
C483 C485 1.414 . S
C483 N486 1.351 . S
C483 C488 1.501 . S
C484 C485 1.402 . S
C484 N487 1.341 . S
C485 C483 1.414 . S
C485 C484 1.402 . S
N486 Co477 2.022 . S
N486 C483 1.351 . S
N486 N487 1.365 . S
N487 C484 1.341 . S
N487 N486 1.365 . S
N487 H507 0.862 . S
C488 C483 1.501 . S
C488 H489 0.961 . S
C488 H490 0.961 . S
C488 H491 0.960 1_545 S
H489 C488 0.961 . S
H490 C488 0.961 . S
H491 C488 0.960 1_565 S
C492 N493 1.342 . S
C492 C496 1.401 . S
C492 C497 1.499 . S
N493 Co476 1.989 . S
N493 C492 1.342 . S
N493 N494 1.388 . S
N494 Co477 1.993 . S
N494 N493 1.388 . S
N494 C495 1.346 . S
C495 N494 1.346 . S
C495 C496 1.396 . S
C495 C505 1.510 . S
C496 C492 1.401 . S
C496 C495 1.396 . S
C497 C492 1.499 . S
C497 H498 0.959 . S
C497 H499 0.960 . S
C497 H500 0.961 . S
H498 C497 0.959 . S
H499 C497 0.960 . S
H500 C497 0.961 . S
O501 Co476 1.967 . S
O501 C509 1.258 . S
O502 Co477 1.941 . S
O502 C509 1.266 . S
H503 C505 0.959 . S
H504 C505 0.961 . S
C505 C495 1.510 . S
C505 H503 0.959 . S
C505 H504 0.961 . S
C505 H506 0.960 . S
H506 C505 0.960 . S
H507 N487 0.862 . S
O508 Co476 1.920 . S
O508 C481 1.289 . S
C509 O501 1.258 . S
C509 O502 1.266 . S
Co510 O513 1.970 . S
Co510 N527 1.989 . S
Co510 O535 1.967 . S
Co510 O542 1.920 . S
Co511 O514 1.966 . S
Co511 N520 2.022 . S
Co511 N528 1.993 . S
Co511 O536 1.941 . S
C512 O513 1.258 . S
C512 O514 1.263 . S
O513 Co510 1.970 . S
O513 C512 1.258 . S
O514 Co511 1.966 . S
O514 C512 1.263 . S
C515 O516 1.235 . S
C515 O542 1.289 . S
O516 C515 1.235 . S
C517 C519 1.414 . S
C517 N520 1.351 . S
C517 C522 1.501 . S
C518 C519 1.402 . S
C518 N521 1.341 . S
C519 C517 1.414 . S
C519 C518 1.402 . S
N520 Co511 2.022 . S
N520 C517 1.351 . S
N520 N521 1.365 . S
N521 C518 1.341 . S
N521 N520 1.365 . S
N521 H541 0.862 . S
C522 C517 1.501 . S
C522 H523 0.961 . S
C522 H524 0.961 . S
C522 H525 0.960 1_565 S
H523 C522 0.961 . S
H524 C522 0.961 . S
H525 C522 0.960 1_545 S
C526 N527 1.342 . S
C526 C530 1.401 . S
C526 C531 1.499 . S
N527 Co510 1.989 . S
N527 C526 1.342 . S
N527 N528 1.388 . S
N528 Co511 1.993 . S
N528 N527 1.388 . S
N528 C529 1.346 . S
C529 N528 1.346 . S
C529 C530 1.396 . S
C529 C539 1.510 . S
C530 C526 1.401 . S
C530 C529 1.396 . S
C531 C526 1.499 . S
C531 H532 0.959 . S
C531 H533 0.960 . S
C531 H534 0.961 . S
H532 C531 0.959 . S
H533 C531 0.960 . S
H534 C531 0.961 . S
O535 Co510 1.967 . S
O535 C543 1.258 . S
O536 Co511 1.941 . S
O536 C543 1.266 . S
H537 C539 0.959 . S
H538 C539 0.961 . S
C539 C529 1.510 . S
C539 H537 0.959 . S
C539 H538 0.961 . S
C539 H540 0.960 . S
H540 C539 0.960 . S
H541 N521 0.862 . S
O542 Co510 1.920 . S
O542 C515 1.289 . S
C543 O535 1.258 . S
C543 O536 1.266 . S
C544 C545 1.387 . S
C544 H548 0.950 . S
C544 C553 1.390 . S
C545 C544 1.387 . S
C545 C547 1.387 . S
H546 C553 0.950 . S
C547 C545 1.387 . S
C547 C549 1.390 . S
C547 H551 0.950 . S
H548 C544 0.950 . S
C549 C547 1.390 . S
C549 C550 1.387 . S
C549 H552 0.950 . S
C550 C549 1.387 . S
C550 C553 1.387 . S
H551 C547 0.950 . S
H552 C549 0.950 . S
C553 C544 1.390 . S
C553 H546 0.950 . S
C553 C550 1.387 . S
C554 C555 1.387 . S
C554 H558 0.950 . S
C554 C563 1.390 . S
C555 C554 1.387 . S
C555 C557 1.387 . S
H556 C563 0.950 . S
C557 C555 1.387 . S
C557 C559 1.390 . S
C557 H561 0.950 . S
H558 C554 0.950 . S
C559 C557 1.390 . S
C559 C560 1.387 . S
C559 H562 0.950 . S
C560 C559 1.387 . S
C560 C563 1.387 . S
H561 C557 0.950 . S
H562 C559 0.950 . S
C563 C554 1.390 . S
C563 H556 0.950 . S
C563 C560 1.387 . S
C564 C565 1.387 . S
C564 H568 0.950 1_455 S
C564 C573 1.390 . S
C565 C564 1.387 . S
C565 C567 1.387 . S
H566 C573 0.950 . S
C567 C565 1.387 . S
C567 C569 1.390 . S
C567 H571 0.950 1_554 S
H568 C564 0.950 1_655 S
C569 C567 1.390 . S
C569 C570 1.387 . S
C569 H572 0.950 . S
C570 C569 1.387 . S
C570 C573 1.387 . S
H571 C567 0.950 1_556 S
H572 C569 0.950 . S
C573 C564 1.390 . S
C573 H566 0.950 . S
C573 C570 1.387 . S
C574 C575 1.387 1_455 S
C574 H578 0.950 . S
C574 C583 1.390 1_455 S
C575 C574 1.387 1_655 S
C575 C577 1.387 . S
H576 C583 0.950 . S
C577 C575 1.387 . S
C577 C579 1.390 . S
C577 H581 0.950 . S
H578 C574 0.950 . S
C579 C577 1.390 . S
C579 C580 1.387 . S
C579 H582 0.950 . S
C580 C579 1.387 . S
C580 C583 1.387 . S
H581 C577 0.950 . S
H582 C579 0.950 . S
C583 C574 1.390 1_655 S
C583 H576 0.950 . S
C583 C580 1.387 . S
C584 C585 1.387 . S
C584 H588 0.950 . S
C584 C593 1.390 . S
C585 C584 1.387 . S
C585 C587 1.387 . S
H586 C593 0.950 . S
C587 C585 1.387 . S
C587 C589 1.390 . S
C587 H591 0.950 . S
H588 C584 0.950 . S
C589 C587 1.390 . S
C589 C590 1.387 . S
C589 H592 0.950 . S
C590 C589 1.387 . S
C590 C593 1.387 . S
H591 C587 0.950 . S
H592 C589 0.950 . S
C593 C584 1.390 . S
C593 H586 0.950 . S
C593 C590 1.387 . S
C594 C595 1.387 . S
C594 H598 0.950 . S
C594 C603 1.390 . S
C595 C594 1.387 . S
C595 C597 1.387 . S
H596 C603 0.950 . S
C597 C595 1.387 . S
C597 C599 1.390 . S
C597 H601 0.950 . S
H598 C594 0.950 . S
C599 C597 1.390 . S
C599 C600 1.387 . S
C599 H602 0.950 . S
C600 C599 1.387 . S
C600 C603 1.387 . S
H601 C597 0.950 . S
H602 C599 0.950 . S
C603 C594 1.390 . S
C603 H596 0.950 . S
C603 C600 1.387 . S
C604 C605 1.387 . S
C604 H608 0.950 . S
C604 C613 1.390 . S
C605 C604 1.387 . S
C605 C607 1.387 1_455 S
H606 C613 0.950 . S
C607 C605 1.387 1_655 S
C607 C609 1.390 1_655 S
C607 H611 0.950 . S
H608 C604 0.950 . S
C609 C607 1.390 1_455 S
C609 C610 1.387 . S
C609 H612 0.950 1_455 S
C610 C609 1.387 . S
C610 C613 1.387 . S
H611 C607 0.950 . S
H612 C609 0.950 1_655 S
C613 C604 1.390 . S
C613 H606 0.950 . S
C613 C610 1.387 . S
C614 C615 1.387 . S
C614 H618 0.950 . S
C614 C623 1.390 . S
C615 C614 1.387 . S
C615 C617 1.387 . S
H616 C623 0.950 1_455 S
C617 C615 1.387 . S
C617 C619 1.390 . S
C617 H621 0.950 . S
H618 C614 0.950 . S
C619 C617 1.390 . S
C619 C620 1.387 . S
C619 H622 0.950 . S
C620 C619 1.387 . S
C620 C623 1.387 . S
H621 C617 0.950 . S
H622 C619 0.950 . S
C623 C614 1.390 . S
C623 H616 0.950 1_655 S
C623 C620 1.387 . S
C624 C625 1.387 . S
C624 H628 0.950 . S
C624 C633 1.390 . S
C625 C624 1.387 . S
C625 C627 1.387 . S
H626 C633 0.950 . S
C627 C625 1.387 . S
C627 C629 1.390 . S
C627 H631 0.950 . S
H628 C624 0.950 . S
C629 C627 1.390 . S
C629 C630 1.387 . S
C629 H632 0.950 . S
C630 C629 1.387 . S
C630 C633 1.387 . S
H631 C627 0.950 . S
H632 C629 0.950 . S
C633 C624 1.390 . S
C633 H626 0.950 . S
C633 C630 1.387 . S
C634 C635 1.387 . S
C634 H638 0.950 . S
C634 C643 1.390 . S
C635 C634 1.387 . S
C635 C637 1.387 . S
H636 C643 0.950 . S
C637 C635 1.387 . S
C637 C639 1.390 . S
C637 H641 0.950 . S
H638 C634 0.950 . S
C639 C637 1.390 . S
C639 C640 1.387 . S
C639 H642 0.950 . S
C640 C639 1.387 . S
C640 C643 1.387 . S
H641 C637 0.950 . S
H642 C639 0.950 . S
C643 C634 1.390 . S
C643 H636 0.950 . S
C643 C640 1.387 . S
C644 C645 1.387 . S
C644 H648 0.950 . S
C644 C653 1.390 . S
C645 C644 1.387 . S
C645 C647 1.387 . S
H646 C653 0.950 . S
C647 C645 1.387 . S
C647 C649 1.390 . S
C647 H651 0.950 . S
H648 C644 0.950 . S
C649 C647 1.390 . S
C649 C650 1.387 . S
C649 H652 0.950 . S
C650 C649 1.387 . S
C650 C653 1.387 . S
H651 C647 0.950 . S
H652 C649 0.950 . S
C653 C644 1.390 . S
C653 H646 0.950 . S
C653 C650 1.387 . S
C654 C655 1.387 . S
C654 H658 0.950 . S
C654 C663 1.390 . S
C655 C654 1.387 . S
C655 C657 1.387 . S
H656 C663 0.950 . S
C657 C655 1.387 . S
C657 C659 1.390 . S
C657 H661 0.950 . S
H658 C654 0.950 . S
C659 C657 1.390 . S
C659 C660 1.387 . S
C659 H662 0.950 . S
C660 C659 1.387 . S
C660 C663 1.387 . S
H661 C657 0.950 . S
H662 C659 0.950 . S
C663 C654 1.390 . S
C663 H656 0.950 . S
C663 C660 1.387 . S
C664 C665 1.387 . S
C664 H668 0.950 . S
C664 C673 1.390 . S
C665 C664 1.387 . S
C665 C667 1.387 . S
H666 C673 0.950 . S
C667 C665 1.387 . S
C667 C669 1.390 . S
C667 H671 0.950 . S
H668 C664 0.950 . S
C669 C667 1.390 . S
C669 C670 1.387 . S
C669 H672 0.950 . S
C670 C669 1.387 . S
C670 C673 1.387 . S
H671 C667 0.950 . S
H672 C669 0.950 . S
C673 C664 1.390 . S
C673 H666 0.950 . S
C673 C670 1.387 . S
C674 C675 1.387 . S
C674 H678 0.950 . S
C674 C683 1.390 . S
C675 C674 1.387 . S
C675 C677 1.387 . S
H676 C683 0.950 . S
C677 C675 1.387 . S
C677 C679 1.390 . S
C677 H681 0.950 . S
H678 C674 0.950 . S
C679 C677 1.390 . S
C679 C680 1.387 . S
C679 H682 0.950 . S
C680 C679 1.387 . S
C680 C683 1.387 . S
H681 C677 0.950 . S
H682 C679 0.950 . S
C683 C674 1.390 . S
C683 H676 0.950 . S
C683 C680 1.387 . S
C684 C685 1.387 . S
C684 H688 0.950 . S
C684 C693 1.390 . S
C685 C684 1.387 . S
C685 C687 1.387 . S
H686 C693 0.950 1_556 S
C687 C685 1.387 . S
C687 C689 1.390 . S
C687 H691 0.950 . S
H688 C684 0.950 . S
C689 C687 1.390 . S
C689 C690 1.387 . S
C689 H692 0.950 . S
C690 C689 1.387 . S
C690 C693 1.387 . S
H691 C687 0.950 . S
H692 C689 0.950 . S
C693 C684 1.390 . S
C693 H686 0.950 1_554 S
C693 C690 1.387 . S
C694 C695 1.387 . S
C694 H698 0.950 . S
C694 C703 1.390 . S
C695 C694 1.387 . S
C695 C697 1.387 . S
H696 C703 0.950 . S
C697 C695 1.387 . S
C697 C699 1.390 . S
C697 H701 0.950 . S
H698 C694 0.950 . S
C699 C697 1.390 . S
C699 C700 1.387 . S
C699 H702 0.950 . S
C700 C699 1.387 . S
C700 C703 1.387 . S
H701 C697 0.950 . S
H702 C699 0.950 . S
C703 C694 1.390 . S
C703 H696 0.950 . S
C703 C700 1.387 . S
C704 C705 1.387 . S
C704 H708 0.950 . S
C704 C713 1.390 . S
C705 C704 1.387 . S
C705 C707 1.387 1_655 S
H706 C713 0.950 . S
C707 C705 1.387 1_455 S
C707 C709 1.390 . S
C707 H711 0.950 . S
H708 C704 0.950 . S
C709 C707 1.390 . S
C709 C710 1.387 1_455 S
C709 H712 0.950 . S
C710 C709 1.387 1_655 S
C710 C713 1.387 . S
H711 C707 0.950 . S
H712 C709 0.950 . S
C713 C704 1.390 . S
C713 H706 0.950 . S
C713 C710 1.387 . S
C714 C715 1.387 1_655 S
C714 H718 0.950 . S
C714 C723 1.390 . S
C715 C714 1.387 1_455 S
C715 C717 1.387 . S
H716 C723 0.950 . S
C717 C715 1.387 . S
C717 C719 1.390 . S
C717 H721 0.950 . S
H718 C714 0.950 . S
C719 C717 1.390 . S
C719 C720 1.387 . S
C719 H722 0.950 . S
C720 C719 1.387 . S
C720 C723 1.387 1_455 S
H721 C717 0.950 . S
H722 C719 0.950 . S
C723 C714 1.390 . S
C723 H716 0.950 . S
C723 C720 1.387 1_655 S
C724 C725 1.387 . S
C724 H728 0.950 . S
C724 C733 1.390 . S
C725 C724 1.387 . S
C725 C727 1.387 . S
H726 C733 0.950 . S
C727 C725 1.387 . S
C727 C729 1.390 . S
C727 H731 0.950 . S
H728 C724 0.950 . S
C729 C727 1.390 . S
C729 C730 1.387 . S
C729 H732 0.950 . S
C730 C729 1.387 . S
C730 C733 1.387 . S
H731 C727 0.950 . S
H732 C729 0.950 . S
C733 C724 1.390 . S
C733 H726 0.950 . S
C733 C730 1.387 . S
C734 C735 1.387 . S
C734 H738 0.950 . S
C734 C743 1.390 . S
C735 C734 1.387 . S
C735 C737 1.387 . S
H736 C743 0.950 . S
C737 C735 1.387 . S
C737 C739 1.390 . S
C737 H741 0.950 . S
H738 C734 0.950 . S
C739 C737 1.390 . S
C739 C740 1.387 . S
C739 H742 0.950 . S
C740 C739 1.387 . S
C740 C743 1.387 . S
H741 C737 0.950 . S
H742 C739 0.950 . S
C743 C734 1.390 . S
C743 H736 0.950 . S
C743 C740 1.387 . S
C744 C745 1.387 . S
C744 H748 0.950 . S
C744 C753 1.390 . S
C745 C744 1.387 . S
C745 C747 1.387 . S
H746 C753 0.950 . S
C747 C745 1.387 . S
C747 C749 1.389 1_655 S
C747 H751 0.950 . S
H748 C744 0.950 . S
C749 C747 1.389 1_455 S
C749 C750 1.387 1_455 S
C749 H752 0.951 . S
C750 C749 1.387 1_655 S
C750 C753 1.387 . S
H751 C747 0.950 . S
H752 C749 0.951 . S
C753 C744 1.390 . S
C753 H746 0.950 . S
C753 C750 1.387 . S
C754 C755 1.387 . S
C754 H758 0.950 . S
C754 C763 1.390 . S
C755 C754 1.387 . S
C755 C757 1.387 . S
H756 C763 0.950 . S
C757 C755 1.387 . S
C757 C759 1.390 . S
C757 H761 0.950 . S
H758 C754 0.950 . S
C759 C757 1.390 . S
C759 C760 1.387 . S
C759 H762 0.950 1_455 S
C760 C759 1.387 . S
C760 C763 1.387 . S
H761 C757 0.950 . S
H762 C759 0.950 1_655 S
C763 C754 1.390 . S
C763 H756 0.950 . S
C763 C760 1.387 . S
C764 C765 1.387 1_544 S
C764 H768 0.950 . S
C764 C773 1.374 1_545 S
C765 C764 1.387 1_566 S
C765 C767 1.387 . S
H766 C773 0.918 1_545 S
C767 C765 1.387 . S
C767 C769 1.390 1_556 S
C767 H771 0.950 . S
H768 C764 0.950 . S
C769 C767 1.390 1_554 S
C769 C770 1.387 . S
C769 H772 0.950 . S
C770 C769 1.387 . S
C770 C773 1.437 . S
H771 C767 0.950 . S
H772 C769 0.950 . S
C773 C764 1.374 1_565 S
C773 H766 0.918 1_565 S
C773 C770 1.437 . S
C774 C775 1.387 . S
C774 H778 0.950 . S
C774 C783 1.390 1_556 S
C775 C774 1.387 . S
C775 C777 1.387 1_546 S
H776 C783 0.950 . S
C777 C775 1.387 1_564 S
C777 C779 1.384 1_565 S
C777 H781 0.950 . S
H778 C774 0.950 . S
C779 C777 1.384 1_545 S
C779 C780 1.405 . S
C779 H782 0.938 1_545 S
C780 C779 1.405 . S
C780 C783 1.387 . S
H781 C777 0.950 . S
H782 C779 0.938 1_565 S
C783 C774 1.390 1_554 S
C783 H776 0.950 . S
C783 C780 1.387 . S
C784 C785 1.387 . S
C784 H788 0.950 . S
C784 C793 1.390 . S
C785 C784 1.387 . S
C785 C787 1.387 . S
H786 C793 0.950 . S
C787 C785 1.387 . S
C787 C789 1.390 . S
C787 H791 0.950 . S
H788 C784 0.950 . S
C789 C787 1.390 . S
C789 C790 1.387 . S
C789 H792 0.950 . S
C790 C789 1.387 . S
C790 C793 1.387 . S
H791 C787 0.950 . S
H792 C789 0.950 . S
C793 C784 1.390 . S
C793 H786 0.950 . S
C793 C790 1.387 . S
C794 C795 1.387 . S
C794 H798 0.950 . S
C794 C803 1.390 . S
C795 C794 1.387 . S
C795 C797 1.387 . S
H796 C803 0.950 . S
C797 C795 1.387 . S
C797 C799 1.390 . S
C797 H801 0.950 . S
H798 C794 0.950 . S
C799 C797 1.390 . S
C799 C800 1.387 . S
C799 H802 0.950 . S
C800 C799 1.387 . S
C800 C803 1.387 . S
H801 C797 0.950 . S
H802 C799 0.950 . S
C803 C794 1.390 . S
C803 H796 0.950 . S
C803 C800 1.387 . S
C804 C805 1.387 . S
C804 H808 0.950 . S
C804 C813 1.390 1_554 S
C805 C804 1.387 . S
C805 C807 1.387 . S
H806 C813 0.950 . S
C807 C805 1.387 . S
C807 C809 1.390 . S
C807 H811 0.950 . S
H808 C804 0.950 . S
C809 C807 1.390 . S
C809 C810 1.387 1_554 S
C809 H812 0.950 . S
C810 C809 1.387 1_556 S
C810 C813 1.387 . S
H811 C807 0.950 . S
H812 C809 0.950 . S
C813 C804 1.390 1_556 S
C813 H806 0.950 . S
C813 C810 1.387 . S
C814 C815 1.387 . S
C814 H818 0.950 . S
C814 C823 1.402 . S
C815 C814 1.387 . S
C815 C817 1.387 . S
H816 C823 0.944 1_556 S
C817 C815 1.387 . S
C817 C819 1.390 . S
C817 H821 0.950 . S
H818 C814 0.950 . S
C819 C817 1.390 . S
C819 C820 1.387 1_554 S
C819 H822 0.950 1_554 S
C820 C819 1.387 1_556 S
C820 C823 1.382 1_556 S
H821 C817 0.950 . S
H822 C819 0.950 1_556 S
C823 C814 1.402 . S
C823 H816 0.944 1_554 S
C823 C820 1.382 1_554 S
C824 C825 1.387 . S
C824 H828 0.950 . S
C824 C833 1.390 . S
C825 C824 1.387 . S
C825 C827 1.387 . S
H826 C833 0.950 . S
C827 C825 1.387 . S
C827 C829 1.390 . S
C827 H831 0.950 . S
H828 C824 0.950 . S
C829 C827 1.390 . S
C829 C830 1.387 . S
C829 H832 0.950 . S
C830 C829 1.387 . S
C830 C833 1.387 . S
H831 C827 0.950 . S
H832 C829 0.950 . S
C833 C824 1.390 . S
C833 H826 0.950 . S
C833 C830 1.387 . S
C834 C835 1.387 . S
C834 H838 0.950 . S
C834 C843 1.390 . S
C835 C834 1.387 . S
C835 C837 1.387 . S
H836 C843 0.950 . S
C837 C835 1.387 . S
C837 C839 1.390 . S
C837 H841 0.950 . S
H838 C834 0.950 . S
C839 C837 1.390 . S
C839 C840 1.387 . S
C839 H842 0.950 . S
C840 C839 1.387 . S
C840 C843 1.387 . S
H841 C837 0.950 . S
H842 C839 0.950 . S
C843 C834 1.390 . S
C843 H836 0.950 . S
C843 C840 1.387 . S
C844 C845 1.387 . S
C844 H848 0.950 . S
C844 C853 1.390 . S
C845 C844 1.387 . S
C845 C847 1.387 . S
H846 C853 0.950 . S
C847 C845 1.387 . S
C847 C849 1.390 1_565 S
C847 H851 0.950 1_565 S
H848 C844 0.950 . S
C849 C847 1.390 1_545 S
C849 C850 1.387 1_545 S
C849 H852 0.950 . S
C850 C849 1.387 1_565 S
C850 C853 1.387 . S
H851 C847 0.950 1_545 S
H852 C849 0.950 . S
C853 C844 1.390 . S
C853 H846 0.950 . S
C853 C850 1.387 . S
C854 C855 1.387 . S
C854 H858 0.950 . S
C854 C863 1.390 . S
C855 C854 1.387 . S
C855 C857 1.387 . S
H856 C863 0.950 . S
C857 C855 1.387 . S
C857 C859 1.390 . S
C857 H861 0.950 . S
H858 C854 0.950 . S
C859 C857 1.390 . S
C859 C860 1.387 . S
C859 H862 0.950 1_545 S
C860 C859 1.387 . S
C860 C863 1.387 . S
H861 C857 0.950 . S
H862 C859 0.950 1_565 S
C863 C854 1.390 . S
C863 H856 0.950 . S
C863 C860 1.387 . S
C864 C865 1.387 1_554 S
C864 H868 0.950 . S
C864 C873 1.390 . S
C865 C864 1.387 1_556 S
C865 C867 1.387 . S
H866 C873 0.950 . S
C867 C865 1.387 . S
C867 C869 1.390 . S
C867 H871 0.950 . S
H868 C864 0.950 . S
C869 C867 1.390 . S
C869 C870 1.387 . S
C869 H872 0.950 . S
C870 C869 1.387 . S
C870 C873 1.387 1_556 S
H871 C867 0.950 . S
H872 C869 0.950 . S
C873 C864 1.390 . S
C873 H866 0.950 . S
C873 C870 1.387 1_554 S
C874 C875 1.387 . S
C874 H878 0.950 . S
C874 C883 1.390 . S
C875 C874 1.387 . S
C875 C877 1.387 1_556 S
H876 C883 0.950 . S
C877 C875 1.387 1_554 S
C877 C879 1.390 . S
C877 H881 0.950 . S
H878 C874 0.950 . S
C879 C877 1.390 . S
C879 C880 1.387 1_554 S
C879 H882 0.950 . S
C880 C879 1.387 1_556 S
C880 C883 1.387 . S
H881 C877 0.950 . S
H882 C879 0.950 . S
C883 C874 1.390 . S
C883 H876 0.950 . S
C883 C880 1.387 . S
C884 C885 1.387 . S
C884 H888 0.950 . S
C884 C893 1.390 1_455 S
C885 C884 1.387 . S
C885 C887 1.387 . S
H886 C893 0.950 . S
C887 C885 1.387 . S
C887 C889 1.390 1_455 S
C887 H891 0.950 . S
H888 C884 0.950 . S
C889 C887 1.390 1_655 S
C889 C890 1.387 . S
C889 H892 0.950 . S
C890 C889 1.387 . S
C890 C893 1.387 . S
H891 C887 0.950 . S
H892 C889 0.950 . S
C893 C884 1.390 1_655 S
C893 H886 0.950 . S
C893 C890 1.387 . S
C894 C895 1.387 . S
C894 H898 0.950 . S
C894 C903 1.390 . S
C895 C894 1.387 . S
C895 C897 1.387 . S
H896 C903 0.950 . S
C897 C895 1.387 . S
C897 C899 1.390 . S
C897 H901 0.950 . S
H898 C894 0.950 . S
C899 C897 1.390 . S
C899 C900 1.387 . S
C899 H902 0.950 . S
C900 C899 1.387 . S
C900 C903 1.387 . S
H901 C897 0.950 . S
H902 C899 0.950 . S
C903 C894 1.390 . S
C903 H896 0.950 . S
C903 C900 1.387 . S
C904 C905 1.387 . S
C904 H908 0.950 . S
C904 C913 1.390 . S
C905 C904 1.387 . S
C905 C907 1.387 . S
H906 C913 0.950 . S
C907 C905 1.387 . S
C907 C909 1.390 . S
C907 H911 0.950 . S
H908 C904 0.950 . S
C909 C907 1.390 . S
C909 C910 1.387 . S
C909 H912 0.950 . S
C910 C909 1.387 . S
C910 C913 1.387 . S
H911 C907 0.950 . S
H912 C909 0.950 . S
C913 C904 1.390 . S
C913 H906 0.950 . S
C913 C910 1.387 . S
C914 C915 1.387 . S
C914 H918 0.950 . S
C914 C923 1.390 1_445 S
C915 C914 1.387 . S
C915 C917 1.387 . S
H916 C923 0.950 . S
C917 C915 1.387 . S
C917 C919 1.390 1_445 S
C917 H921 0.950 . S
H918 C914 0.950 . S
C919 C917 1.390 1_665 S
C919 C920 1.387 . S
C919 H922 0.950 . S
C920 C919 1.387 . S
C920 C923 1.387 . S
H921 C917 0.950 . S
H922 C919 0.950 . S
C923 C914 1.390 1_665 S
C923 H916 0.950 . S
C923 C920 1.387 . S
C924 C925 1.387 . S
C924 H928 0.950 . S
C924 C933 1.390 . S
C925 C924 1.387 . S
C925 C927 1.387 . S
H926 C933 0.950 . S
C927 C925 1.387 . S
C927 C929 1.390 . S
C927 H931 0.950 . S
H928 C924 0.950 . S
C929 C927 1.390 . S
C929 C930 1.387 . S
C929 H932 0.950 . S
C930 C929 1.387 . S
C930 C933 1.387 . S
H931 C927 0.950 . S
H932 C929 0.950 . S
C933 C924 1.390 . S
C933 H926 0.950 . S
C933 C930 1.387 . S
C934 C935 1.387 . S
C934 H938 0.950 . S
C934 C943 1.390 1_565 S
C935 C934 1.387 . S
C935 C937 1.387 . S
H936 C943 0.950 . S
C937 C935 1.387 . S
C937 C939 1.390 1_565 S
C937 H941 0.950 . S
H938 C934 0.950 . S
C939 C937 1.390 1_545 S
C939 C940 1.387 . S
C939 H942 0.950 . S
C940 C939 1.387 . S
C940 C943 1.387 . S
H941 C937 0.950 . S
H942 C939 0.950 . S
C943 C934 1.390 1_545 S
C943 H936 0.950 . S
C943 C940 1.387 . S
C545 C5 1.400 . S
C550 C394 1.447 . S
C555 C39 1.400 . S
C560 C360 1.447 . S
C565 C54 1.447 1_455 S
C570 C73 1.398 . S
C575 C20 1.447 1_655 S
C580 C107 1.400 . S
C585 C141 1.400 . S
C590 C530 1.446 . S
C595 C175 1.399 . S
C600 C496 1.447 . S
C605 C190 1.446 1_455 S
C610 C209 1.398 . S
C615 C243 1.401 . S
C620 C156 1.446 1_655 S
C625 C122 1.447 . S
C630 C277 1.399 . S
C635 C88 1.446 . S
C640 C311 1.400 . S
C645 C326 1.446 . S
C650 C345 1.401 . S
C655 C292 1.447 . S
C660 C379 1.399 . S
C665 C413 1.400 . S
C670 C258 1.447 . S
C675 C447 1.400 . S
C680 C224 1.447 . S
C685 C481 1.400 . S
C690 C462 1.445 . S
C695 C428 1.447 . S
C700 C515 1.399 . S
C705 C203 1.559 . S
C710 C9 1.524 1_655 S
C715 C169 1.559 . S
C720 C43 1.525 1_455 S
C725 C77 1.528 . S
C730 C407 1.559 . S
C735 C373 1.559 . S
C740 C111 1.528 . S
C745 C67 1.559 . S
C750 C145 1.530 1_655 S
C755 C33 1.559 . S
C760 C179 1.530 1_455 S
C765 C213 1.506 1_565 S
C770 C543 1.559 . S
C775 C247 1.508 1_545 S
C780 C509 1.559 . S
C785 C281 1.526 . S
C790 C475 1.562 . S
C795 C441 1.559 . S
C800 C315 1.530 . S
C805 C135 1.559 . S
C810 C349 1.528 . S
C815 C101 1.559 . S
C820 C383 1.528 . S
C825 C339 1.560 . S
C830 C417 1.524 . S
C835 C305 1.559 . S
C840 C451 1.525 . S
C845 C271 1.559 . S
C850 C485 1.508 1_565 S
C855 C237 1.559 . S
C860 C519 1.508 1_545 S
C865 C444 1.722 . S
C870 C2 1.722 . S
C875 C36 1.721 . S
C880 C410 1.721 . S
C885 C70 1.721 . S
C890 C104 1.721 . S
C895 C308 1.721 . S
C900 C138 1.721 . S
C905 C172 1.722 . S
C910 C274 1.722 . S
C915 C206 1.722 . S
C920 C240 1.722 . S
C925 C376 1.722 . S
C930 C342 1.722 . S
C935 C512 1.722 . S
C940 C478 1.722 . S
