# Generated by pormake.
# Topology und, (4)-cn, num edge types: 1
# Building blocks:
#     Node 0, Type 0, BuildingBlock: GALJAG_clean_sbu_0, # of connection points: 4
#     Node 1, Type 0, BuildingBlock: GALJAG_clean_sbu_0, # of connection points: 4
#     Node 2, Type 0, BuildingBlock: GALJAG_clean_sbu_0, # of connection points: 4
#     Node 3, Type 0, BuildingBlock: GALJAG_clean_sbu_0, # of connection points: 4
#     Node 4, Type 0, BuildingBlock: GALJAG_clean_sbu_0, # of connection points: 4
#     Node 5, Type 0, BuildingBlock: GALJAG_clean_sbu_0, # of connection points: 4
#     Node 6, Type 0, BuildingBlock: GALJAG_clean_sbu_0, # of connection points: 4
#     Node 7, Type 0, BuildingBlock: GALJAG_clean_sbu_0, # of connection points: 4
#     Node 8, Type 0, BuildingBlock: GALJAG_clean_sbu_0, # of connection points: 4
#     Node 9, Type 0, BuildingBlock: GALJAG_clean_sbu_0, # of connection points: 4
#     Node 10, Type 0, BuildingBlock: GALJAG_clean_sbu_0, # of connection points: 4
#     Node 11, Type 0, BuildingBlock: GALJAG_clean_sbu_0, # of connection points: 4
#     Node 12, Type 0, BuildingBlock: GALJAG_clean_sbu_0, # of connection points: 4
#     Node 13, Type 0, BuildingBlock: GALJAG_clean_sbu_0, # of connection points: 4
#     Node 14, Type 0, BuildingBlock: GALJAG_clean_sbu_0, # of connection points: 4
#     Node 15, Type 0, BuildingBlock: GALJAG_clean_sbu_0, # of connection points: 4
#     Edge 16, Type (0, 0), BuildingBlock: TEMPAE_clean_linker_10, # of connection points: 2
#     Edge 17, Type (0, 0), BuildingBlock: TEMPAE_clean_linker_10, # of connection points: 2
#     Edge 18, Type (0, 0), BuildingBlock: TEMPAE_clean_linker_10, # of connection points: 2
#     Edge 19, Type (0, 0), BuildingBlock: TEMPAE_clean_linker_10, # of connection points: 2
#     Edge 20, Type (0, 0), BuildingBlock: TEMPAE_clean_linker_10, # of connection points: 2
#     Edge 21, Type (0, 0), BuildingBlock: TEMPAE_clean_linker_10, # of connection points: 2
#     Edge 22, Type (0, 0), BuildingBlock: TEMPAE_clean_linker_10, # of connection points: 2
#     Edge 23, Type (0, 0), BuildingBlock: TEMPAE_clean_linker_10, # of connection points: 2
#     Edge 24, Type (0, 0), BuildingBlock: TEMPAE_clean_linker_10, # of connection points: 2
#     Edge 25, Type (0, 0), BuildingBlock: TEMPAE_clean_linker_10, # of connection points: 2
#     Edge 26, Type (0, 0), BuildingBlock: TEMPAE_clean_linker_10, # of connection points: 2
#     Edge 27, Type (0, 0), BuildingBlock: TEMPAE_clean_linker_10, # of connection points: 2
#     Edge 28, Type (0, 0), BuildingBlock: TEMPAE_clean_linker_10, # of connection points: 2
#     Edge 29, Type (0, 0), BuildingBlock: TEMPAE_clean_linker_10, # of connection points: 2
#     Edge 30, Type (0, 0), BuildingBlock: TEMPAE_clean_linker_10, # of connection points: 2
#     Edge 31, Type (0, 0), BuildingBlock: TEMPAE_clean_linker_10, # of connection points: 2
#     Edge 32, Type (0, 0), BuildingBlock: TEMPAE_clean_linker_10, # of connection points: 2
#     Edge 33, Type (0, 0), BuildingBlock: TEMPAE_clean_linker_10, # of connection points: 2
#     Edge 34, Type (0, 0), BuildingBlock: TEMPAE_clean_linker_10, # of connection points: 2
#     Edge 35, Type (0, 0), BuildingBlock: TEMPAE_clean_linker_10, # of connection points: 2
#     Edge 36, Type (0, 0), BuildingBlock: TEMPAE_clean_linker_10, # of connection points: 2
#     Edge 37, Type (0, 0), BuildingBlock: TEMPAE_clean_linker_10, # of connection points: 2
#     Edge 38, Type (0, 0), BuildingBlock: TEMPAE_clean_linker_10, # of connection points: 2
#     Edge 39, Type (0, 0), BuildingBlock: TEMPAE_clean_linker_10, # of connection points: 2
#     Edge 40, Type (0, 0), BuildingBlock: TEMPAE_clean_linker_10, # of connection points: 2
#     Edge 41, Type (0, 0), BuildingBlock: TEMPAE_clean_linker_10, # of connection points: 2
#     Edge 42, Type (0, 0), BuildingBlock: TEMPAE_clean_linker_10, # of connection points: 2
#     Edge 43, Type (0, 0), BuildingBlock: TEMPAE_clean_linker_10, # of connection points: 2
#     Edge 44, Type (0, 0), BuildingBlock: TEMPAE_clean_linker_10, # of connection points: 2
#     Edge 45, Type (0, 0), BuildingBlock: TEMPAE_clean_linker_10, # of connection points: 2
#     Edge 46, Type (0, 0), BuildingBlock: TEMPAE_clean_linker_10, # of connection points: 2
#     Edge 47, Type (0, 0), BuildingBlock: TEMPAE_clean_linker_10, # of connection points: 2
# Relax obj value: 0.013
# Max RMSD: 0.034
# Mean RMSD: 0.034
data_MOF--net-und--node1-GALJAG_clean_sbu_0--edge1-TEMPAE_clean_linker_10
_symmetry_space_group_name_H-M    P1
_symmetry_Int_Tables_number       1
_symmetry_cell_setting            triclinic
loop_
_symmetry_equiv_pos_as_xyz
'x, y, z'
_cell_length_a     63.938137
_cell_length_b     63.929119
_cell_length_c     20.45943
_cell_angle_alpha  90.043317
_cell_angle_beta   90.023643
_cell_angle_gamma 89.994446
loop_
_atom_site_label
_atom_site_type_symbol
_atom_site_fract_x
_atom_site_fract_y
_atom_site_fract_z
_atom_type_partial_charge
In0 In 0.24729 0.33987 -0.00101 0.0
O1 O 0.21522 0.3554 0.98741 0.0
O2 O 0.2343 0.36389 0.06878 0.0
C3 C 0.25255 0.31208 0.90222 0.0
C4 C 0.2769 0.36721 0.962 0.0
C5 C 0.24268 0.31104 0.09298 0.0
O6 O 0.23672 0.32402 0.90425 0.0
O7 O 0.26556 0.31461 0.94796 0.0
O8 O 0.25817 0.32341 0.09225 0.0
O9 O 0.22964 0.31364 0.04737 0.0
C10 C 0.21722 0.36632 0.03876 0.0
O11 O 0.27901 0.35589 0.01239 0.0
O12 O 0.25991 0.36474 0.93148 0.0
In13 In 0.91124 0.99836 0.23399 0.0
O14 O 0.89763 0.03139 0.23897 0.0
O15 O 0.88333 0.00929 0.17504 0.0
C16 C 0.94351 0.00102 0.31795 0.0
C17 C 0.88642 0.96866 0.28644 0.0
C18 C 0.93506 0.99661 0.12627 0.0
O19 O 0.92791 0.01312 0.32239 0.0
O20 O 0.94242 0.98767 0.27288 0.0
O21 O 0.928 0.98031 0.1535 0.0
O22 O 0.92937 0.01365 0.15187 0.0
C23 C 0.88349 0.02772 0.19718 0.0
O24 O 0.8939 0.96709 0.22951 0.0
O25 O 0.89159 0.98506 0.31664 0.0
In26 In 0.25149 0.65974 0.49681 0.0
O27 O 0.28359 0.64452 0.48285 0.0
O28 O 0.26443 0.63439 0.56208 0.0
C29 C 0.24588 0.68759 0.40035 0.0
C30 C 0.22126 0.63289 0.46107 0.0
C31 C 0.2568 0.68797 0.59264 0.0
O32 O 0.26181 0.67579 0.40221 0.0
O33 O 0.23299 0.68497 0.44628 0.0
O34 O 0.24095 0.67608 0.59083 0.0
O35 O 0.26983 0.68518 0.54717 0.0
C36 C 0.28155 0.6326 0.53186 0.0
O37 O 0.21968 0.64411 0.5119 0.0
O38 O 0.23807 0.63518 0.42948 0.0
In39 In 0.58716 0.99759 0.75683 0.0
O40 O 0.60274 0.02962 0.74668 0.0
O41 O 0.61074 0.01046 0.82834 0.0
C42 C 0.55993 0.99253 0.65826 0.0
C43 C 0.61484 0.96807 0.72156 0.0
C44 C 0.55811 0.00245 0.85003 0.0
O45 O 0.5717 0.00845 0.66171 0.0
O46 O 0.5624 0.97932 0.70338 0.0
O47 O 0.57041 0.98689 0.84979 0.0
O48 O 0.56085 0.01536 0.80421 0.0
C49 C 0.61332 0.02758 0.79868 0.0
O50 O 0.60226 0.96535 0.76863 0.0
O51 O 0.61343 0.98559 0.69344 0.0
In52 In 0.74702 0.66205 0.98859 0.0
O53 O 0.71494 0.64628 0.98426 0.0
O54 O 0.73397 0.64093 0.06787 0.0
C55 C 0.74707 0.68569 0.88051 0.0
C56 C 0.77612 0.634 0.95206 0.0
C57 C 0.74874 0.69434 0.07294 0.0
O58 O 0.73038 0.67815 0.90399 0.0
O59 O 0.76361 0.68063 0.91022 0.0
O60 O 0.76117 0.67901 0.0775 0.0
O61 O 0.7355 0.69294 0.02766 0.0
C62 C 0.71694 0.63729 0.0389 0.0
O63 O 0.77969 0.6477 0.99534 0.0
O64 O 0.75787 0.63439 0.9284 0.0
In65 In 0.08953 0.99676 0.73417 0.0
O66 O 0.10367 0.02943 0.74402 0.0
O67 O 0.11729 0.00827 0.67566 0.0
C68 C 0.05748 0.99779 0.8191 0.0
C69 C 0.11426 0.96636 0.78289 0.0
C70 C 0.0654 0.99737 0.62691 0.0
O71 O 0.07259 0.01049 0.82346 0.0
O72 O 0.05896 0.98463 0.77355 0.0
O73 O 0.07295 0.98056 0.64946 0.0
O74 O 0.07074 0.01377 0.65696 0.0
C75 C 0.1175 0.0263 0.70086 0.0
O76 O 0.10629 0.96523 0.72645 0.0
O77 O 0.10969 0.98272 0.81425 0.0
In78 In 0.74971 0.33719 0.50443 0.0
O79 O 0.7172 0.35218 0.50823 0.0
O80 O 0.73873 0.36287 0.43635 0.0
C81 C 0.73876 0.30997 0.59923 0.0
C82 C 0.77957 0.36333 0.54897 0.0
C83 C 0.75954 0.30979 0.40876 0.0
O84 O 0.72885 0.31129 0.54608 0.0
O85 O 0.75336 0.32303 0.60556 0.0
O86 O 0.76963 0.31071 0.46168 0.0
O87 O 0.74537 0.32335 0.40306 0.0
C88 C 0.7207 0.3644 0.4609 0.0
O89 O 0.78293 0.35067 0.5026 0.0
O90 O 0.76127 0.36279 0.57184 0.0
In91 In 0.40958 0.99843 0.25651 0.0
O92 O 0.3952 0.96565 0.26318 0.0
O93 O 0.38378 0.98649 0.19045 0.0
C94 C 0.43756 0.98873 0.35065 0.0
C95 C 0.38329 0.02857 0.29831 0.0
C96 C 0.43637 0.00803 0.1592 0.0
O97 O 0.43624 0.97855 0.298 0.0
O98 O 0.42409 0.00295 0.35706 0.0
O99 O 0.43535 0.01861 0.21115 0.0
O100 O 0.42322 0.99342 0.15525 0.0
C101 C 0.38274 0.96858 0.21606 0.0
O102 O 0.39561 0.03136 0.25079 0.0
O103 O 0.38424 0.01065 0.32395 0.0
In104 In 0.74861 0.84005 0.48933 0.0
O105 O 0.71709 0.85699 0.48521 0.0
O106 O 0.73494 0.85915 0.57264 0.0
C107 C 0.74744 0.81706 0.37948 0.0
C108 C 0.77848 0.86788 0.45746 0.0
C109 C 0.75074 0.80736 0.5717 0.0
O110 O 0.73103 0.82414 0.406 0.0
O111 O 0.76432 0.82241 0.40673 0.0
O112 O 0.76261 0.82305 0.57812 0.0
O113 O 0.73789 0.80851 0.52527 0.0
C114 C 0.71846 0.86416 0.54263 0.0
O115 O 0.78187 0.85288 0.49632 0.0
O116 O 0.76003 0.86889 0.43566 0.0
In117 In 0.41136 0.49995 0.75971 0.0
O118 O 0.39545 0.53202 0.76178 0.0
O119 O 0.39119 0.5129 0.67777 0.0
C120 C 0.43562 0.50117 0.86659 0.0
C121 C 0.38316 0.47138 0.79901 0.0
C122 C 0.44337 0.49663 0.67516 0.0
O123 O 0.42825 0.5176 0.84089 0.0
O124 O 0.43 0.48427 0.83993 0.0
O125 O 0.42762 0.48471 0.67136 0.0
O126 O 0.44255 0.51013 0.71983 0.0
C127 C 0.3872 0.52998 0.70601 0.0
O128 O 0.39684 0.46733 0.75613 0.0
O129 O 0.38364 0.48984 0.82097 0.0
In130 In 0.74757 0.15999 0.00301 0.0
O131 O 0.77926 0.14404 0.98922 0.0
O132 O 0.76066 0.13574 0.07182 0.0
C133 C 0.74234 0.18804 0.90702 0.0
C134 C 0.71784 0.13285 0.96544 0.0
C135 C 0.75296 0.18823 0.09853 0.0
O136 O 0.75829 0.17628 0.90934 0.0
O137 O 0.72921 0.18525 0.95221 0.0
O138 O 0.73714 0.17628 0.0972 0.0
O139 O 0.76585 0.18555 0.05258 0.0
C140 C 0.77749 0.13311 0.04056 0.0
O141 O 0.71553 0.14447 0.01512 0.0
O142 O 0.73508 0.13491 0.93605 0.0
In143 In 0.08671 0.50066 0.25547 0.0
O144 O 0.1001 0.4674 0.2568 0.0
O145 O 0.1123 0.48912 0.18795 0.0
C146 C 0.05965 0.49017 0.35122 0.0
C147 C 0.11359 0.53 0.29923 0.0
C148 C 0.05934 0.51146 0.16079 0.0
O149 O 0.06042 0.48044 0.29761 0.0
O150 O 0.07321 0.50432 0.35754 0.0
O151 O 0.06003 0.52078 0.2151 0.0
O152 O 0.07313 0.49761 0.15326 0.0
C153 C 0.11276 0.47077 0.21052 0.0
O154 O 0.10083 0.5336 0.25334 0.0
O155 O 0.11278 0.51171 0.32215 0.0
In156 In 0.24905 0.16189 0.49844 0.0
O157 O 0.28161 0.14719 0.50675 0.0
O158 O 0.26115 0.13628 0.43202 0.0
C159 C 0.25732 0.19001 0.59349 0.0
C160 C 0.22006 0.13452 0.5408 0.0
C161 C 0.23989 0.18883 0.40094 0.0
O162 O 0.26922 0.18757 0.54489 0.0
O163 O 0.242 0.17767 0.59536 0.0
O164 O 0.22806 0.18644 0.4497 0.0
O165 O 0.25561 0.17697 0.40014 0.0
C166 C 0.27884 0.13491 0.45901 0.0
O167 O 0.21709 0.14589 0.49107 0.0
O168 O 0.23755 0.13698 0.56833 0.0
In169 In 0.58981 0.50084 0.26047 0.0
O170 O 0.60451 0.46841 0.25112 0.0
O171 O 0.61696 0.48947 0.32197 0.0
C172 C 0.5582 0.49983 0.17373 0.0
C173 C 0.61465 0.5315 0.21412 0.0
C174 C 0.5652 0.49969 0.36642 0.0
O175 O 0.57343 0.48726 0.16971 0.0
O176 O 0.55938 0.51286 0.21967 0.0
O177 O 0.57309 0.51657 0.34561 0.0
O178 O 0.57041 0.48346 0.33528 0.0
C179 C 0.61775 0.47155 0.29608 0.0
O180 O 0.60528 0.53302 0.26828 0.0
O181 O 0.61143 0.51462 0.18379 0.0
In182 In 0.2499 0.8368 0.99705 0.0
O183 O 0.21635 0.84943 -0.00106 0.0
O184 O 0.23812 0.86345 0.93383 0.0
C185 C 0.23952 0.80909 0.09104 0.0
C186 C 0.27942 0.86318 0.04255 0.0
C187 C 0.26115 0.81006 0.90105 0.0
O188 O 0.23035 0.80961 0.03647 0.0
O189 O 0.25303 0.82319 0.09916 0.0
O190 O 0.27028 0.81053 0.95567 0.0
O191 O 0.24723 0.82382 0.89377 0.0
C192 C 0.21967 0.86309 0.95556 0.0
O193 O 0.28275 0.85111 0.99468 0.0
O194 O 0.2613 0.86194 0.06657 0.0
In195 In 0.90961 0.49934 0.75625 0.0
O196 O 0.8932 0.53083 0.74243 0.0
O197 O 0.88471 0.51184 0.82393 0.0
C198 C 0.93811 0.49454 0.66132 0.0
C199 C 0.88323 0.46906 0.71779 0.0
C200 C 0.9375 0.5051 0.85249 0.0
O201 O 0.92603 0.51027 0.66298 0.0
O202 O 0.93543 0.48144 0.70664 0.0
O203 O 0.92601 0.48895 0.85017 0.0
O204 O 0.93451 0.51815 0.80718 0.0
C205 C 0.88199 0.52873 0.79309 0.0
O206 O 0.89421 0.46728 0.76906 0.0
O207 O 0.88552 0.48606 0.68725 0.0
C208 C 0.22516 0.27841 0.13052 0.0
C209 C 0.24033 0.29392 0.14086 0.0
C210 C 0.22343 0.26123 0.17266 0.0
C211 C 0.23704 0.25967 0.22692 0.0
C212 C 0.25197 0.27561 0.23881 0.0
C213 C 0.25354 0.29251 0.19527 0.0
C214 C 0.2075 0.24443 0.15791 0.0
C215 C 0.26658 0.27457 0.29671 0.0
C216 C 0.22369 0.22256 0.36577 0.0
C217 C 0.2372 0.20579 0.35281 0.0
C218 C 0.22324 0.24015 0.32471 0.0
C219 C 0.23644 0.2408 0.2692 0.0
C220 C 0.24947 0.22352 0.25453 0.0
C221 C 0.24977 0.20627 0.29674 0.0
C222 C 0.20921 0.25832 0.34198 0.0
C223 C 0.26352 0.22349 0.19519 0.0
H224 H 0.21493 0.27939 0.08837 0.0
H225 H 0.26522 0.30452 0.20352 0.0
H226 H 0.21562 0.22948 0.14722 0.0
H227 H 0.19735 0.24174 0.20105 0.0
H228 H 0.19744 0.24849 0.11547 0.0
H229 H 0.27635 0.28887 0.30142 0.0
H230 H 0.25751 0.27247 0.34247 0.0
H231 H 0.27708 0.26085 0.29174 0.0
H232 H 0.21406 0.22229 0.40936 0.0
H233 H 0.26022 0.19331 0.28653 0.0
H234 H 0.19895 0.26228 0.30003 0.0
H235 H 0.21887 0.27233 0.3526 0.0
H236 H 0.19924 0.25499 0.38519 0.0
H237 H 0.25422 0.22659 0.15043 0.0
H238 H 0.2719 0.20839 0.18896 0.0
H239 H 0.27527 0.23618 0.19953 0.0
C240 C 0.98133 0.99523 0.33742 0.0
C241 C 0.96195 0.00223 0.36082 0.0
C242 C 0.99904 0.99519 0.37763 0.0
C243 C 0.99717 0.00176 0.44338 0.0
C244 C 0.97766 0.00906 0.46715 0.0
C245 C 0.96028 0.00949 0.42512 0.0
C246 C 0.01969 0.98787 0.34998 0.0
C247 C 0.97501 0.0158 0.5374 0.0
C248 C 0.03671 0.98032 0.5643 0.0
C249 C 0.04945 0.99781 0.57503 0.0
C250 C 0.01958 0.98142 0.52161 0.0
C251 C 0.01548 0.0003 0.48776 0.0
C252 C 0.02883 0.01774 0.49649 0.0
C253 C 0.04552 0.01637 0.54079 0.0
C254 C 0.00549 0.96261 0.51433 0.0
C255 C 0.0253 0.03793 0.45981 0.0
H256 H 0.98264 0.98981 0.28734 0.0
H257 H 0.94524 0.01481 0.44315 0.0
H258 H 0.03195 -0.00016 0.35869 0.0
H259 H 0.02474 0.97336 0.37512 0.0
H260 H 0.01879 0.98468 0.29666 0.0
H261 H 0.95887 0.02126 0.54798 0.0
H262 H 0.97871 0.00253 0.57037 0.0
H263 H 0.9861 0.0286 0.54915 0.0
H264 H 0.03959 0.96605 0.59144 0.0
H265 H 0.05539 0.0299 0.54913 0.0
H266 H 0.00487 0.95762 0.46244 0.0
H267 H 0.98932 0.96678 0.52911 0.0
H268 H 0.0108 0.94915 0.54441 0.0
H269 H 0.02459 0.03484 0.40647 0.0
H270 H 0.03782 0.04959 0.46933 0.0
H271 H 0.01008 0.04485 0.47424 0.0
C272 C 0.27652 0.71862 0.63596 0.0
C273 C 0.25953 0.70482 0.64138 0.0
C274 C 0.27866 0.73571 0.67839 0.0
C275 C 0.26352 0.73901 0.72766 0.0
C276 C 0.24668 0.72478 0.73471 0.0
C277 C 0.24484 0.70786 0.69126 0.0
C278 C 0.29677 0.75058 0.66916 0.0
C279 C 0.23032 0.72773 0.78711 0.0
C280 C 0.27536 0.77498 0.87082 0.0
C281 C 0.26421 0.79301 0.85329 0.0
C282 C 0.27565 0.75737 0.82979 0.0
C283 C 0.26467 0.75794 0.76972 0.0
C284 C 0.25419 0.77645 0.75052 0.0
C285 C 0.25402 0.79374 0.79268 0.0
C286 C 0.287 0.7379 0.85188 0.0
C287 C 0.24255 0.77775 0.68639 0.0
H288 H 0.28794 0.71636 0.59747 0.0
H289 H 0.23173 0.69721 0.6957 0.0
H290 H 0.29079 0.76625 0.65521 0.0
H291 H 0.3055 0.75247 0.71565 0.0
H292 H 0.30781 0.74517 0.63078 0.0
H293 H 0.21891 0.71463 0.78847 0.0
H294 H 0.23788 0.72905 0.83575 0.0
H295 H 0.22166 0.7425 0.77835 0.0
H296 H 0.28316 0.77431 0.91783 0.0
H297 H 0.24539 0.80766 0.77892 0.0
H298 H 0.29807 0.73259 0.81358 0.0
H299 H 0.27556 0.72509 0.85965 0.0
H300 H 0.29581 0.74042 0.89803 0.0
H301 H 0.25304 0.77342 0.64537 0.0
H302 H 0.23619 0.79365 0.6771 0.0
H303 H 0.22937 0.76646 0.68642 0.0
C304 C 0.47079 0.02292 0.12516 0.0
C305 C 0.45329 0.01054 0.11081 0.0
C306 C 0.4883 0.02297 0.08375 0.0
C307 C 0.48813 0.01048 0.02658 0.0
C308 C 0.47014 0.99866 0.01053 0.0
C309 C 0.45295 0.99877 0.05299 0.0
C310 C 0.50723 0.03578 0.10237 0.0
C311 C 0.46927 0.98537 0.9495 0.0
C312 C 0.52633 0.02117 0.8891 0.0
C313 C 0.54104 0.00513 0.89791 0.0
C314 C 0.50925 0.02337 0.93141 0.0
C315 C 0.50693 0.00928 0.98415 0.0
C316 C 0.52204 0.9934 0.99443 0.0
C317 C 0.53891 0.99144 0.9509 0.0
C318 C 0.49338 0.04038 0.91855 0.0
C319 C 0.52015 0.97822 0.05061 0.0
H320 H 0.47115 0.03194 0.17003 0.0
H321 H 0.43942 0.9892 0.04168 0.0
H322 H 0.52066 0.02523 0.11198 0.0
H323 H 0.51177 0.04621 0.06148 0.0
H324 H 0.50444 0.04548 0.14659 0.0
H325 H 0.45372 0.97795 0.94243 0.0
H326 H 0.47289 0.99501 0.90588 0.0
H327 H 0.48127 0.97286 0.95227 0.0
H328 H 0.52789 0.0318 0.84812 0.0
H329 H 0.55029 0.97908 0.95797 0.0
H330 H 0.49125 0.05017 0.96283 0.0
H331 H 0.47799 0.03324 0.90703 0.0
H332 H 0.498 0.05066 0.87725 0.0
H333 H 0.51863 0.98686 0.09741 0.0
H334 H 0.53382 0.96755 0.05399 0.0
H335 H 0.5058 0.96864 0.0446 0.0
C336 C 0.22617 0.77357 0.11991 0.0
C337 C 0.23685 0.79182 0.1381 0.0
C338 C 0.22616 0.75591 0.16065 0.0
C339 C 0.23696 0.75666 0.22103 0.0
C340 C 0.24701 0.77535 0.24076 0.0
C341 C 0.24689 0.79269 0.19892 0.0
C342 C 0.21527 0.73623 0.13806 0.0
C343 C 0.25846 0.77683 0.3052 0.0
C344 C 0.22555 0.71752 0.35531 0.0
C345 C 0.24287 0.70411 0.35081 0.0
C346 C 0.2231 0.73435 0.31216 0.0
C347 C 0.23829 0.73779 0.26313 0.0
C348 C 0.25544 0.72388 0.25687 0.0
C349 C 0.25756 0.7072 0.30099 0.0
C350 C 0.20465 0.74887 0.32049 0.0
C351 C 0.27186 0.72699 0.20477 0.0
H352 H 0.21848 0.7728 0.07272 0.0
H353 H 0.25515 0.80679 0.21317 0.0
H354 H 0.22697 0.72363 0.13069 0.0
H355 H 0.20415 0.73073 0.17592 0.0
H356 H 0.2066 0.73858 0.09158 0.0
H357 H 0.26461 0.79281 0.31462 0.0
H358 H 0.2479 0.77242 0.34593 0.0
H359 H 0.27176 0.76569 0.30559 0.0
H360 H 0.2141 0.71519 0.39368 0.0
H361 H 0.27091 0.69683 0.29723 0.0
H362 H 0.19611 0.75057 0.27359 0.0
H363 H 0.21025 0.76465 0.33475 0.0
H364 H 0.19354 0.74325 0.35834 0.0
H365 H 0.26439 0.72818 0.15597 0.0
H366 H 0.28344 0.71404 0.20371 0.0
H367 H 0.28031 0.74188 0.21367 0.0
C368 C 0.47275 0.97454 0.37977 0.0
C369 C 0.45503 0.9862 0.39717 0.0
C370 C 0.49058 0.97434 0.41988 0.0
C371 C 0.49053 0.9859 0.47892 0.0
C372 C 0.47238 0.99707 0.49777 0.0
C373 C 0.45488 0.99716 0.4565 0.0
C374 C 0.50967 0.9623 0.39814 0.0
C375 C 0.47162 0.00935 0.56085 0.0
C376 C 0.52906 0.97344 0.61409 0.0
C377 C 0.54337 0.98999 0.60851 0.0
C378 C 0.51209 0.97161 0.57115 0.0
C379 C 0.50946 0.98658 0.52099 0.0
C380 C 0.52428 0.00289 0.51353 0.0
C381 C 0.54103 0.00447 0.55769 0.0
C382 C 0.49655 0.9541 0.58102 0.0
C383 C 0.52209 0.019 0.46005 0.0
H384 H 0.47298 0.96617 0.33367 0.0
H385 H 0.44121 0.00619 0.4701 0.0
H386 H 0.5229 0.97326 0.39042 0.0
H387 H 0.51452 0.95111 0.43667 0.0
H388 H 0.50691 0.9535 0.35209 0.0
H389 H 0.45604 0.01652 0.56956 0.0
H390 H 0.47545 0.99902 0.60274 0.0
H391 H 0.48352 0.02197 0.55979 0.0
H392 H 0.53077 0.96218 0.65332 0.0
H393 H 0.55209 0.01724 0.55309 0.0
H394 H 0.49439 0.94521 0.53493 0.0
H395 H 0.4811 0.96073 0.59451 0.0
H396 H 0.5015 0.94306 0.61998 0.0
H397 H 0.52038 0.01118 0.41191 0.0
H398 H 0.53571 0.02976 0.45793 0.0
H399 H 0.50775 0.02841 0.46828 0.0
C400 C 0.27246 0.22449 0.62628 0.0
C401 C 0.25956 0.20737 0.64053 0.0
C402 C 0.27259 0.24225 0.66673 0.0
C403 C 0.2597 0.2427 0.72297 0.0
C404 C 0.24722 0.22513 0.73873 0.0
C405 C 0.24721 0.20772 0.69709 0.0
C406 C 0.28601 0.26075 0.64827 0.0
C407 C 0.23351 0.22488 0.79886 0.0
C408 C 0.27095 0.28031 0.86173 0.0
C409 C 0.25524 0.29538 0.85303 0.0
C410 C 0.27292 0.26335 0.81878 0.0
C411 C 0.259 0.26156 0.76535 0.0
C412 C 0.24359 0.27714 0.75488 0.0
C413 C 0.24179 0.29383 0.79922 0.0
C414 C 0.28938 0.24694 0.83202 0.0
C415 C 0.22865 0.27587 0.69785 0.0
H416 H 0.2819 0.22432 0.58226 0.0
H417 H 0.23723 0.19449 0.70827 0.0
H418 H 0.27592 0.27453 0.63861 0.0
H419 H 0.29655 0.26496 0.6893 0.0
H420 H 0.29565 0.25765 0.60416 0.0
H421 H 0.22541 0.20966 0.80552 0.0
H422 H 0.24303 0.22813 0.84307 0.0
H423 H 0.22154 0.23739 0.79529 0.0
H424 H 0.28139 0.28141 0.90336 0.0
H425 H 0.2297 0.30551 0.7922 0.0
H426 H 0.2992 0.24447 0.788 0.0
H427 H 0.28172 0.2318 0.8434 0.0
H428 H 0.29972 0.25125 0.87358 0.0
H429 H 0.23745 0.27387 0.65154 0.0
H430 H 0.21865 0.29002 0.69377 0.0
H431 H 0.21838 0.262 0.70347 0.0
C432 C 0.02016 0.98961 0.84026 0.0
C433 C 0.03904 0.99831 0.86215 0.0
C434 C 0.00238 0.98949 0.88015 0.0
C435 C 0.00368 0.9978 0.94408 0.0
C436 C 0.02272 0.00663 0.96651 0.0
C437 C 0.04016 0.00703 0.9248 0.0
C438 C 0.98222 0.98044 0.85392 0.0
C439 C 0.02475 0.01527 0.03491 0.0
C440 C 0.95444 0.01351 0.03501 0.0
C441 C 0.95103 0.99595 0.07453 0.0
C442 C 0.97121 0.01411 0.99093 0.0
C443 C 0.98518 0.99695 0.98779 0.0
C444 C 0.98158 0.97904 0.02687 0.0
C445 C 0.96436 0.97865 0.06925 0.0
C446 C 0.97421 0.03322 0.94864 0.0
C447 C 0.99634 0.9606 0.02561 0.0
H448 H 0.01923 0.98304 0.79145 0.0
H449 H 0.05479 0.01367 0.94172 0.0
H450 H 0.97753 0.96669 0.88348 0.0
H451 H 0.96947 0.99215 0.85788 0.0
H452 H 0.9836 0.9755 0.80203 0.0
H453 H 0.04069 0.0214 0.04499 0.0
H454 H 0.0133 0.02808 0.0425 0.0
H455 H 0.02113 0.00286 0.07108 0.0
H456 H 0.9441 0.02689 0.03915 0.0
H457 H 0.96188 0.96518 0.10047 0.0
H458 H 0.97536 0.02858 0.89649 0.0
H459 H 0.98907 0.04112 0.96177 0.0
H460 H 0.96121 0.04462 0.95405 0.0
H461 H 0.99756 0.95425 0.9753 0.0
H462 H 0.99124 0.94782 0.05877 0.0
H463 H 0.01224 0.96572 0.04042 0.0
C464 C 0.72967 0.71401 0.81742 0.0
C465 C 0.74722 0.70136 0.82789 0.0
C466 C 0.73059 0.73102 0.77429 0.0
C467 C 0.74936 0.73506 0.73979 0.0
C468 C 0.76682 0.72171 0.74802 0.0
C469 C 0.76563 0.70516 0.79273 0.0
C470 C 0.71176 0.74511 0.7675 0.0
C471 C 0.78688 0.72519 0.71063 0.0
C472 C 0.7444 0.76957 0.59033 0.0
C473 C 0.75161 0.78882 0.61417 0.0
C474 C 0.74416 0.75178 0.63017 0.0
C475 C 0.75078 0.75346 0.69591 0.0
C476 C 0.75825 0.77286 0.72014 0.0
C477 C 0.75884 0.79031 0.67854 0.0
C478 C 0.73664 0.73125 0.6021 0.0
C479 C 0.76507 0.77529 0.7904 0.0
H480 H 0.71551 0.71121 0.84523 0.0
H481 H 0.7792 0.69532 0.80084 0.0
H482 H 0.71591 0.76123 0.78293 0.0
H483 H 0.70678 0.74592 0.71564 0.0
H484 H 0.69831 0.73969 0.79737 0.0
H485 H 0.79847 0.71254 0.71929 0.0
H486 H 0.7836 0.72609 0.65744 0.0
H487 H 0.79398 0.7403 0.72534 0.0
H488 H 0.73899 0.7684 0.54022 0.0
H489 H 0.76432 0.80525 0.69692 0.0
H490 H 0.7222 0.72619 0.62759 0.0
H491 H 0.74858 0.71891 0.61 0.0
H492 H 0.73328 0.73232 0.54893 0.0
H493 H 0.75186 0.77145 0.82345 0.0
H494 H 0.77052 0.79141 0.80149 0.0
H495 H 0.77791 0.76419 0.80154 0.0
C496 C 0.77355 0.27471 0.37729 0.0
C497 C 0.76201 0.29263 0.3611 0.0
C498 C 0.77347 0.25709 0.33626 0.0
C499 C 0.76172 0.25754 0.2776 0.0
C500 C 0.75076 0.27591 0.25983 0.0
C501 C 0.75098 0.29321 0.30194 0.0
C502 C 0.78534 0.23776 0.35676 0.0
C503 C 0.73828 0.2771 0.19723 0.0
C504 C 0.77264 0.219 0.14103 0.0
C505 C 0.75591 0.20494 0.1476 0.0
C506 C 0.77503 0.23589 0.18405 0.0
C507 C 0.76044 0.23871 0.23518 0.0
C508 C 0.7439 0.22419 0.24341 0.0
C509 C 0.74177 0.20749 0.19926 0.0
C510 C 0.79279 0.2511 0.17344 0.0
C511 C 0.72813 0.22663 0.29781 0.0
H512 H 0.78199 0.27416 0.42322 0.0
H513 H 0.74206 0.30704 0.28922 0.0
H514 H 0.77421 0.22473 0.36525 0.0
H515 H 0.79612 0.23274 0.31728 0.0
H516 H 0.79456 0.24031 0.40211 0.0
H517 H 0.73143 0.29286 0.18914 0.0
H518 H 0.74834 0.27312 0.15485 0.0
H519 H 0.72538 0.26549 0.19855 0.0
H520 H 0.78364 0.2171 0.10117 0.0
H521 H 0.72888 0.19662 0.20464 0.0
H522 H 0.80199 0.25298 0.21904 0.0
H523 H 0.7864 0.26671 0.16067 0.0
H524 H 0.80349 0.24601 0.13372 0.0
H525 H 0.73625 0.22798 0.34556 0.0
H526 H 0.71703 0.21328 0.3001 0.0
H527 H 0.71906 0.24124 0.29055 0.0
C528 C 0.75401 0.20733 0.8071 0.0
C529 C 0.73959 0.20474 0.85794 0.0
C530 C 0.75218 0.22412 0.76324 0.0
C531 C 0.73565 0.23868 0.77097 0.0
C532 C 0.72073 0.23579 0.82115 0.0
C533 C 0.72284 0.2188 0.86388 0.0
C534 C 0.76827 0.22661 0.70981 0.0
C535 C 0.70298 0.25105 0.83119 0.0
C536 C 0.74617 0.29319 0.70646 0.0
C537 C 0.7356 0.29284 0.64647 0.0
C538 C 0.74581 0.27584 0.74823 0.0
C539 C 0.73476 0.25765 0.72921 0.0
C540 C 0.72343 0.25745 0.66974 0.0
C541 C 0.7239 0.27514 0.62911 0.0
C542 C 0.75784 0.27675 0.81175 0.0
C543 C 0.71149 0.23831 0.64789 0.0
H544 H 0.76692 0.19645 0.80222 0.0
H545 H 0.71162 0.21687 0.90312 0.0
H546 H 0.76043 0.22821 0.66167 0.0
H547 H 0.77742 0.24111 0.71818 0.0
H548 H 0.77927 0.21318 0.70759 0.0
H549 H 0.69197 0.24584 0.86988 0.0
H550 H 0.70937 0.26656 0.8452 0.0
H551 H 0.69413 0.25319 0.78504 0.0
H552 H 0.7552 0.30687 0.72007 0.0
H553 H 0.71582 0.27477 0.58253 0.0
H554 H 0.77069 0.26509 0.81087 0.0
H555 H 0.74745 0.27267 0.85325 0.0
H556 H 0.76468 0.29245 0.82092 0.0
H557 H 0.72257 0.22523 0.6393 0.0
H558 H 0.70251 0.24111 0.60225 0.0
H559 H 0.7005 0.23321 0.68666 0.0
C560 C 0.7418 0.73202 0.09223 0.0
C561 C 0.74963 0.71293 0.11542 0.0
C562 C 0.74184 0.74992 0.1317 0.0
C563 C 0.74936 0.74854 0.19655 0.0
C564 C 0.75738 0.72929 0.22021 0.0
C565 C 0.75769 0.71173 0.17889 0.0
C566 C 0.7337 0.77027 0.10413 0.0
C567 C 0.76516 0.72716 0.28956 0.0
C568 C 0.76498 0.79747 0.28962 0.0
C569 C 0.74702 0.80126 0.32705 0.0
C570 C 0.76576 0.78069 0.24547 0.0
C571 C 0.74835 0.76712 0.24008 0.0
C572 C 0.73003 0.77114 0.27687 0.0
C573 C 0.7295 0.78835 0.31939 0.0
C574 C 0.78533 0.77725 0.20563 0.0
C575 C 0.71128 0.75682 0.27315 0.0
H576 H 0.73576 0.733 0.04278 0.0
H577 H 0.76366 0.69693 0.1968 0.0
H578 H 0.71962 0.77531 0.13158 0.0
H579 H 0.74563 0.78275 0.10985 0.0
H580 H 0.72954 0.76897 0.05155 0.0
H581 H 0.77086 0.71111 0.3004 0.0
H582 H 0.77807 0.73838 0.29864 0.0
H583 H 0.75239 0.73104 0.32422 0.0
H584 H 0.77854 0.80747 0.29558 0.0
H585 H 0.7157 0.79111 0.34895 0.0
H586 H 0.78136 0.77608 0.15295 0.0
H587 H 0.79278 0.76227 0.21994 0.0
H588 H 0.7969 0.79004 0.2123 0.0
H589 H 0.7056 0.75573 0.22205 0.0
H590 H 0.69819 0.76224 0.30461 0.0
H591 H 0.71582 0.74081 0.2886 0.0
C592 C 0.54132 0.49113 0.0668 0.0
C593 C 0.53987 0.4992 0.13023 0.0
C594 C 0.52393 0.4915 0.0248 0.0
C595 C 0.50462 0.49957 0.04773 0.0
C596 C 0.503 0.50718 0.11244 0.0
C597 C 0.52073 0.50715 0.1526 0.0
C598 C 0.5263 0.48364 0.95559 0.0
C599 C 0.48257 0.51538 0.13922 0.0
C600 C 0.46473 0.51911 0.92474 0.0
C601 C 0.45178 0.50158 0.91785 0.0
C602 C 0.48206 0.51864 0.96678 0.0
C603 C 0.48615 0.50039 0.00383 0.0
C604 C 0.4726 0.48295 -0.00108 0.0
C605 C 0.45571 0.48366 0.95527 0.0
C606 C 0.49636 0.53742 0.96998 0.0
C607 C 0.47613 0.46344 0.03903 0.0
H608 H 0.55615 0.48507 0.04954 0.0
H609 H 0.51955 0.51319 0.20201 0.0
H610 H 0.51519 0.47064 0.94643 0.0
H611 H 0.52242 0.49633 0.92066 0.0
H612 H 0.54241 0.47803 0.94523 0.0
H613 H 0.48373 0.51979 0.19164 0.0
H614 H 0.47754 0.52932 0.11105 0.0
H615 H 0.47015 0.50338 0.13376 0.0
H616 H 0.46186 0.53287 0.89514 0.0
H617 H 0.44567 0.4701 0.94987 0.0
H618 H 0.5124 0.53282 0.95506 0.0
H619 H 0.49733 0.54332 0.02087 0.0
H620 H 0.491 0.55036 0.93789 0.0
H621 H 0.49125 0.45616 0.02532 0.0
H622 H 0.4635 0.45172 0.03207 0.0
H623 H 0.47707 0.4675 0.0917 0.0
C624 C 0.02478 0.47573 0.38258 0.0
C625 C 0.04261 0.48735 0.39904 0.0
C626 C 0.00722 0.47548 0.42378 0.0
C627 C 0.00766 0.48701 0.48288 0.0
C628 C 0.02596 0.49805 0.50094 0.0
C629 C 0.0432 0.49814 0.45866 0.0
C630 C 0.98796 0.46354 0.40297 0.0
C631 C 0.02712 0.5103 0.56401 0.0
C632 C 0.95743 0.50631 0.56149 0.0
C633 C 0.95494 0.49195 0.61253 0.0
C634 C 0.9742 0.5045 0.51753 0.0
C635 C 0.98884 0.48804 0.52534 0.0
C636 C 0.9861 0.47324 0.5759 0.0
C637 C 0.96914 0.47533 0.61874 0.0
C638 C 0.97655 0.52049 0.46375 0.0
C639 C 0.00144 0.45556 0.58602 0.0
H640 H 0.02422 0.46747 0.33631 0.0
H641 H 0.05697 0.50712 0.47159 0.0
H642 H 0.98305 0.45261 0.44213 0.0
H643 H 0.97485 0.47462 0.39486 0.0
H644 H 0.99054 0.45448 0.35733 0.0
H645 H 0.04285 0.51718 0.57233 0.0
H646 H 0.01546 0.52315 0.56317 0.0
H647 H 0.02321 0.50006 0.60601 0.0
H648 H 0.94645 0.51913 0.55641 0.0
H649 H 0.96729 0.46415 0.65815 0.0
H650 H 0.97791 0.51255 0.41569 0.0
H651 H 0.99113 0.52959 0.47135 0.0
H652 H 0.96316 0.53154 0.46188 0.0
H653 H 0.00336 0.44649 0.54017 0.0
H654 H 0.99645 0.44472 0.62545 0.0
H655 H 0.01701 0.46203 0.59894 0.0
C656 C 0.04285 0.50402 0.05303 0.0
C657 C 0.04213 0.51428 0.11353 0.0
C658 C 0.02549 0.50393 0.01123 0.0
C659 C 0.00691 0.51424 0.03069 0.0
C660 C 0.00632 0.52528 0.09066 0.0
C661 C 0.02401 0.52524 0.13136 0.0
C662 C 0.02681 0.49221 0.94721 0.0
C663 C 0.98678 0.53645 0.11295 0.0
C664 C 0.96764 0.5254 0.89644 0.0
C665 C 0.95413 0.50819 0.9017 0.0
C666 C 0.98457 0.52789 0.93926 0.0
C667 C 0.98798 0.51287 0.98881 0.0
C668 C 0.97397 0.49584 0.99584 0.0
C669 C 0.95722 0.49365 0.95195 0.0
C670 C 0.99921 0.54619 0.93001 0.0
C671 C 0.97704 0.47961 0.04855 0.0
H672 H 0.05685 0.49554 0.03905 0.0
H673 H 0.02335 0.53309 0.17831 0.0
H674 H 0.0156 0.47896 0.94749 0.0
H675 H 0.02237 0.50263 0.90613 0.0
H676 H 0.04274 0.48595 0.93783 0.0
H677 H 0.98927 0.54533 0.15899 0.0
H678 H 0.9813 0.54743 0.07464 0.0
H679 H 0.97409 0.52489 0.12101 0.0
H680 H 0.96532 0.53672 0.85768 0.0
H681 H 0.94677 0.48037 0.95631 0.0
H682 H 0.01493 0.5404 0.91581 0.0
H683 H 0.00105 0.55492 0.97653 0.0
H684 H 0.99362 0.55718 0.89176 0.0
H685 H 0.99185 0.47101 0.03985 0.0
H686 H 0.96401 0.46812 0.0502 0.0
H687 H 0.97835 0.48728 0.09704 0.0
C688 C 0.48127 0.50155 0.65555 0.0
C689 C 0.46173 0.49504 0.63214 0.0
C690 C 0.49893 0.50136 0.61514 0.0
C691 C 0.49681 0.49508 0.54919 0.0
C692 C 0.47713 0.48822 0.52545 0.0
C693 C 0.45981 0.48799 0.56768 0.0
C694 C 0.51975 0.5082 0.64276 0.0
C695 C 0.47424 0.48181 0.45499 0.0
C696 C 0.53655 0.51665 0.42931 0.0
C697 C 0.54909 0.49908 0.41775 0.0
C698 C 0.51937 0.5155 0.47174 0.0
C699 C 0.51505 0.49649 0.50456 0.0
C700 C 0.52817 0.47893 0.49487 0.0
C701 C 0.5449 0.48036 0.45079 0.0
C702 C 0.50552 0.53446 0.48003 0.0
C703 C 0.5244 0.4586 0.53049 0.0
H704 H 0.48277 0.5068 0.70577 0.0
H705 H 0.44464 0.48306 0.54967 0.0
H706 H 0.53181 0.49611 0.6331 0.0
H707 H 0.52494 0.52279 0.61836 0.0
H708 H 0.51902 0.51109 0.69627 0.0
H709 H 0.45802 0.47656 0.44455 0.0
H710 H 0.47799 0.49519 0.42251 0.0
H711 H 0.48518 0.46896 0.44243 0.0
H712 H 0.53963 0.53105 0.40307 0.0
H713 H 0.55463 0.46677 0.44179 0.0
H714 H 0.50512 0.53927 0.5321 0.0
H715 H 0.48925 0.53053 0.46557 0.0
H716 H 0.51089 0.54796 0.45028 0.0
H717 H 0.5239 0.4614 0.58401 0.0
H718 H 0.53669 0.44678 0.51999 0.0
H719 H 0.50902 0.45202 0.51612 0.0
C720 C 0.12643 0.43406 0.20755 0.0
C721 C 0.12699 0.45464 0.18405 0.0
C722 C 0.1401 0.41878 0.18278 0.0
C723 C 0.15471 0.4243 0.13368 0.0
C724 C 0.15515 0.445 0.10929 0.0
C725 C 0.14126 0.4599 0.13468 0.0
C726 C 0.13916 0.39683 0.20981 0.0
C727 C 0.17057 0.45153 0.05726 0.0
C728 C 0.2049 0.39314 0.11826 0.0
C729 C 0.20094 0.38082 0.06287 0.0
C730 C 0.18988 0.40713 0.1422 0.0
C731 C 0.17033 0.4088 0.11017 0.0
C732 C 0.16611 0.39624 0.05462 0.0
C733 C 0.18152 0.38241 0.03147 0.0
C734 C 0.19504 0.42034 0.20133 0.0
C735 C 0.14541 0.39757 0.01939 0.0
H736 H 0.11536 0.4299 0.24549 0.0
H737 H 0.14174 0.47578 0.1162 0.0
H738 H 0.13706 0.38541 0.16947 0.0
H739 H 0.15413 0.39299 0.23447 0.0
H740 H 0.12621 0.39481 0.24543 0.0
H741 H 0.16837 0.46805 0.04186 0.0
H742 H 0.18677 0.44967 0.07586 0.0
H743 H 0.169 0.44132 0.01368 0.0
H744 H 0.21989 0.39198 0.14282 0.0
H745 H 0.17836 0.37285 0.9888 0.0
H746 H 0.18326 0.41774 0.24029 0.0
H747 H 0.19444 0.43716 0.18815 0.0
H748 H 0.21079 0.41681 0.22144 0.0
H749 H 0.1324 0.39457 0.05403 0.0
H750 H 0.14429 0.38621 0.97841 0.0
H751 H 0.14317 0.41357 -0.00036 0.0
C752 C 0.78982 0.89974 0.39683 0.0
C753 C 0.79496 0.88267 0.43666 0.0
C754 C 0.80529 0.9135 0.3743 0.0
C755 C 0.82643 0.91002 0.3917 0.0
C756 C 0.83171 0.89291 0.43241 0.0
C757 C 0.81587 0.87945 0.45462 0.0
C758 C 0.79901 0.93168 0.33142 0.0
C759 C 0.8541 0.88869 0.4518 0.0
C760 C 0.86692 0.93479 0.28019 0.0
C761 C 0.87207 0.95299 0.31489 0.0
C762 C 0.8525 0.92035 0.30549 0.0
C763 C 0.84296 0.9243 0.36673 0.0
C764 C 0.84845 0.94242 0.40259 0.0
C765 C 0.86298 0.95653 0.37628 0.0
C766 C 0.84713 0.90112 0.26603 0.0
C767 C 0.83855 0.9472 0.46793 0.0
H768 H 0.77366 0.90233 0.38292 0.0
H769 H 0.81992 0.86623 0.48527 0.0
H770 H 0.80418 0.94661 0.35391 0.0
H771 H 0.80684 0.93039 0.28321 0.0
H772 H 0.78184 0.93242 0.32342 0.0
H773 H 0.85557 0.87489 0.48442 0.0
H774 H 0.86372 0.88596 0.40748 0.0
H775 H 0.86073 0.90253 0.47719 0.0
H776 H 0.87397 0.93195 0.23283 0.0
H777 H 0.86692 0.97056 0.40338 0.0
H778 H 0.8304 0.90163 0.25162 0.0
H779 H 0.8494 0.88685 0.29601 0.0
H780 H 0.85678 0.89976 0.22109 0.0
H781 H 0.82147 0.94955 0.46163 0.0
H782 H 0.84526 0.96143 0.49103 0.0
H783 H 0.84067 0.93381 0.50175 0.0
C784 C 0.31825 0.61885 0.52812 0.0
C785 C 0.29792 0.61784 0.55358 0.0
C786 C 0.33396 0.60524 0.55062 0.0
C787 C 0.32908 0.59017 0.59901 0.0
C788 C 0.30851 0.58896 0.62419 0.0
C789 C 0.29323 0.60288 0.60146 0.0
C790 C 0.35578 0.6071 0.5231 0.0
C791 C 0.30261 0.57294 0.67521 0.0
C792 C 0.36225 0.54139 0.61927 0.0
C793 C 0.37338 0.54595 0.6766 0.0
C794 C 0.34818 0.55587 0.59245 0.0
C795 C 0.34535 0.57548 0.62337 0.0
C796 C 0.35706 0.58045 0.68009 0.0
C797 C 0.37086 0.56555 0.70629 0.0
C798 C 0.33584 0.54991 0.5323 0.0
C799 C 0.35461 0.60128 0.71402 0.0
H800 H 0.32195 0.63046 0.49131 0.0
H801 H 0.27752 0.60199 0.62115 0.0
H802 H 0.36704 0.61034 0.56311 0.0
H803 H 0.36051 0.5921 0.50018 0.0
H804 H 0.35704 0.61973 0.48605 0.0
H805 H 0.28584 0.57387 0.68903 0.0
H806 H 0.30589 0.55696 0.65667 0.0
H807 H 0.31222 0.57523 0.71981 0.0
H808 H 0.36415 0.52626 0.59608 0.0
H809 H 0.37954 0.5692 0.75038 0.0
H810 H 0.33777 0.56195 0.49375 0.0
H811 H 0.31894 0.5492 0.54447 0.0
H812 H 0.34068 0.53451 0.51216 0.0
H813 H 0.35673 0.61423 0.67855 0.0
H814 H 0.36599 0.60333 0.75458 0.0
H815 H 0.33857 0.60266 0.73421 0.0
C816 C 0.70649 0.10399 0.89173 0.0
C817 C 0.7017 0.11806 0.94216 0.0
C818 C 0.69153 0.08986 0.8682 0.0
C819 C 0.67118 0.08991 0.89536 0.0
C820 C 0.66615 0.10421 0.94591 0.0
C821 C 0.68154 0.11808 0.969 0.0
C822 C 0.69758 0.0747 0.81477 0.0
C823 C 0.64456 0.10478 0.97569 0.0
C824 C 0.62881 0.06356 0.79406 0.0
C825 C 0.62767 0.04385 0.82376 0.0
C826 C 0.64254 0.07896 0.81789 0.0
C827 C 0.6555 0.0744 0.87224 0.0
C828 C 0.65424 0.05458 0.90268 0.0
C829 C 0.64029 0.03958 0.87822 0.0
C830 C 0.64337 0.09998 0.78446 0.0
C831 C 0.66793 0.04905 0.96033 0.0
H832 H 0.72207 0.10389 0.87081 0.0
H833 H 0.67775 0.12901 0.00775 0.0
H834 H 0.69574 0.0584 0.83242 0.0
H835 H 0.68707 0.07663 0.77206 0.0
H836 H 0.71399 0.07689 0.79829 0.0
H837 H 0.64296 0.11732 0.01298 0.0
H838 H 0.63267 0.10731 0.93698 0.0
H839 H 0.64103 0.08953 -0.00096 0.0
H840 H 0.619 0.06696 0.75218 0.0
H841 H 0.63947 0.02437 0.90145 0.0
H842 H 0.6591 0.10244 0.76296 0.0
H843 H 0.64078 0.11267 0.82061 0.0
H844 H 0.63151 0.10142 0.74501 0.0
H845 H 0.68463 0.04974 0.94574 0.0
H846 H 0.66458 0.03317 0.97966 0.0
H847 H 0.66568 0.06057 0.00028 0.0
C848 C 0.12849 0.56624 0.29981 0.0
C849 C 0.12838 0.54581 0.32465 0.0
C850 C 0.14276 0.58118 0.3233 0.0
C851 C 0.15726 0.57548 0.37253 0.0
C852 C 0.15701 0.55495 0.39832 0.0
C853 C 0.14256 0.54038 0.37413 0.0
C854 C 0.14253 0.60295 0.29478 0.0
C855 C 0.17229 0.54824 0.4506 0.0
C856 C 0.20832 0.60538 0.38481 0.0
C857 C 0.20474 0.61832 0.43903 0.0
C858 C 0.19293 0.5915 0.36246 0.0
C859 C 0.17341 0.59062 0.39489 0.0
C860 C 0.16962 0.60374 0.44945 0.0
C861 C 0.18539 0.61742 0.47105 0.0
C862 C 0.19764 0.57766 0.30441 0.0
C863 C 0.14896 0.60325 0.48507 0.0
H864 H 0.11751 0.57052 0.26174 0.0
H865 H 0.14252 0.52462 0.39365 0.0
H866 H 0.14086 0.61471 0.33434 0.0
H867 H 0.1576 0.6061 0.2698 0.0
H868 H 0.12963 0.60517 0.25908 0.0
H869 H 0.16955 0.53192 0.46712 0.0
H870 H 0.18851 0.54942 0.43171 0.0
H871 H 0.17113 0.55879 0.49351 0.0
H872 H 0.22326 0.606 0.35984 0.0
H873 H 0.18253 0.62746 0.51282 0.0
H874 H 0.18597 0.58039 0.26518 0.0
H875 H 0.19643 0.56098 0.31883 0.0
H876 H 0.21351 0.58047 0.28416 0.0
H877 H 0.136 0.60655 0.45049 0.0
H878 H 0.1483 0.61481 0.52558 0.0
H879 H 0.14621 0.58742 0.50551 0.0
C880 C 0.64576 0.95746 0.65549 0.0
C881 C 0.62986 0.95199 0.69944 0.0
C882 C 0.65986 0.94246 0.63198 0.0
C883 C 0.65786 0.9214 0.65223 0.0
C884 C 0.64186 0.91575 0.69676 0.0
C885 C 0.62811 0.93118 0.72025 0.0
C886 C 0.67689 0.94918 0.58531 0.0
C887 C 0.63914 0.8934 0.7189 0.0
C888 C 0.68339 0.88154 0.53993 0.0
C889 C 0.70237 0.87782 0.57219 0.0
C890 C 0.6684 0.89514 0.56663 0.0
C891 C 0.67263 0.9054 0.62659 0.0
C892 C 0.69159 0.90137 0.65995 0.0
C893 C 0.70619 0.88755 0.63249 0.0
C894 C 0.64825 0.89889 0.52996 0.0
C895 C 0.69677 0.91216 0.72363 0.0
H896 H 0.64723 0.97355 0.63947 0.0
H897 H 0.61576 0.92689 0.75397 0.0
H898 H 0.69244 0.94506 0.60564 0.0
H899 H 0.67519 0.94074 0.53821 0.0
H900 H 0.67656 0.96626 0.57546 0.0
H901 H 0.62593 0.89158 0.75367 0.0
H902 H 0.63629 0.88317 0.67597 0.0
H903 H 0.65366 0.88779 0.74282 0.0
H904 H 0.68032 0.87396 0.4935 0.0
H905 H 0.72084 0.88471 0.65768 0.0
H906 H 0.64755 0.91541 0.5135 0.0
H907 H 0.63466 0.89624 0.56261 0.0
H908 H 0.6467 0.88858 0.4865 0.0
H909 H 0.69799 0.92928 0.71552 0.0
H910 H 0.71171 0.90652 0.74503 0.0
H911 H 0.68407 0.90961 0.75967 0.0
C912 C 0.35324 0.46131 0.8706 0.0
C913 C 0.36806 0.45569 0.82323 0.0
C914 C 0.33886 0.44667 0.89473 0.0
C915 C 0.33933 0.42588 0.87096 0.0
C916 C 0.35435 0.42005 0.82344 0.0
C917 C 0.36854 0.43505 0.80005 0.0
C918 C 0.32303 0.45351 0.94519 0.0
C919 C 0.3553 0.39802 0.79695 0.0
C920 C 0.31221 0.38397 0.972 0.0
C921 C 0.29303 0.38209 0.93929 0.0
C922 C 0.32756 0.39802 0.94997 0.0
C923 C 0.32356 0.41049 0.89411 0.0
C924 C 0.30424 0.4086 0.8609 0.0
C925 C 0.28923 0.39442 0.88386 0.0
C926 C 0.34801 0.39962 0.98654 0.0
C927 C 0.29935 0.42166 0.80131 0.0
H928 H 0.35282 0.47723 0.88882 0.0
H929 H 0.38001 0.43061 0.7636 0.0
H930 H 0.30698 0.45148 0.92556 0.0
H931 H 0.32431 0.44357 0.98944 0.0
H932 H 0.32509 0.47012 0.95979 0.0
H933 H 0.36831 0.39585 0.76162 0.0
H934 H 0.35731 0.38673 0.83763 0.0
H935 H 0.34037 0.39412 0.77214 0.0
H936 H 0.31523 0.37443 0.01476 0.0
H937 H 0.27444 0.39304 0.8583 0.0
H938 H 0.35012 0.41576 0.00534 0.0
H939 H 0.36124 0.39635 0.95299 0.0
H940 H 0.34884 0.38856 0.02833 0.0
H941 H 0.29992 0.43852 0.81412 0.0
H942 H 0.28368 0.4181 0.78061 0.0
H943 H 0.31129 0.41893 0.76293 0.0
C944 C 0.79041 0.10653 0.11992 0.0
C945 C 0.79376 0.11837 0.06321 0.0
C946 C 0.80547 0.09231 0.14235 0.0
C947 C 0.82438 0.08989 0.10728 0.0
C948 C 0.82798 0.10195 0.05033 0.0
C949 C 0.81259 0.11606 0.02887 0.0
C950 C 0.80101 0.07969 0.20317 0.0
C951 C 0.84799 0.09979 0.01177 0.0
C952 C 0.86983 0.06443 0.19691 0.0
C953 C 0.86854 0.04376 0.17435 0.0
C954 C 0.85575 0.07974 0.17474 0.0
C955 C 0.84002 0.07417 0.12917 0.0
C956 C 0.83873 0.05334 0.10607 0.0
C957 C 0.85301 0.0384 0.12889 0.0
C958 C 0.85759 0.10181 0.2004 0.0
C959 C 0.82211 0.04678 0.05772 0.0
H960 H 0.7759 0.10826 0.14677 0.0
H961 H 0.81527 0.12523 0.98512 0.0
H962 H 0.80091 0.06276 0.19109 0.0
H963 H 0.81354 0.08222 0.23986 0.0
H964 H 0.78575 0.08381 0.22567 0.0
H965 H 0.84866 0.11078 0.96979 0.0
H966 H 0.86166 0.10272 0.04391 0.0
H967 H 0.84947 0.08358 0.99293 0.0
H968 H 0.88185 0.06866 0.23187 0.0
H969 H 0.85196 0.02245 0.11119 0.0
H970 H 0.84307 0.10619 0.22675 0.0
H971 H 0.85941 0.11292 0.15916 0.0
H972 H 0.87107 0.10374 0.23416 0.0
H973 H 0.80637 0.04931 0.0791 0.0
H974 H 0.82354 0.03006 0.04349 0.0
H975 H 0.82313 0.05652 0.01299 0.0
C976 C 0.78686 0.60398 0.88177 0.0
C977 C 0.7921 0.619 0.92903 0.0
C978 C 0.80179 0.58975 0.85849 0.0
C979 C 0.82247 0.59057 0.88296 0.0
C980 C 0.82791 0.60577 0.93043 0.0
C981 C 0.81262 0.6198 0.95302 0.0
C982 C 0.79536 0.5737 0.80812 0.0
C983 C 0.84982 0.60711 0.95759 0.0
C984 C 0.85463 0.54087 0.87107 0.0
C985 C 0.86695 0.54474 0.81568 0.0
C986 C 0.84026 0.55575 0.89379 0.0
C987 C 0.83818 0.57501 0.86041 0.0
C988 C 0.85068 0.57909 0.80468 0.0
C989 C 0.86491 0.56387 0.78286 0.0
C990 C 0.82716 0.55076 0.95321 0.0
C991 C 0.8489 0.59949 0.76795 0.0
H992 H 0.77102 0.60331 0.86295 0.0
H993 H 0.81676 0.63144 0.98937 0.0
H994 H 0.80536 0.57509 0.76405 0.0
H995 H 0.79764 0.55772 0.828 0.0
H996 H 0.77875 0.57543 0.79313 0.0
H997 H 0.85166 0.62019 0.99291 0.0
H998 H 0.8539 0.59226 0.98259 0.0
H999 H 0.86121 0.60927 0.91724 0.0
H1000 H 0.85614 0.52612 0.89672 0.0
H1001 H 0.87445 0.56695 0.74015 0.0
H1002 H 0.81033 0.55102 0.94005 0.0
H1003 H 0.8296 0.56283 0.99145 0.0
H1004 H 0.83094 0.5352 0.97425 0.0
H1005 H 0.83279 0.60132 0.74855 0.0
H1006 H 0.86009 0.60045 0.72655 0.0
H1007 H 0.85182 0.61281 0.80153 0.0
C1008 C 0.20888 0.10737 0.62096 0.0
C1009 C 0.20442 0.11942 0.56542 0.0
C1010 C 0.19448 0.0927 0.64475 0.0
C1011 C 0.17514 0.09002 0.61221 0.0
C1012 C 0.17042 0.10232 0.55656 0.0
C1013 C 0.18515 0.11689 0.53376 0.0
C1014 C 0.2001 0.07986 0.70417 0.0
C1015 C 0.14993 0.09988 0.52064 0.0
C1016 C 0.14763 0.03785 0.63249 0.0
C1017 C 0.13238 0.04261 0.67942 0.0
C1018 C 0.16158 0.05317 0.61009 0.0
C1019 C 0.16021 0.07377 0.63509 0.0
C1020 C 0.14486 0.07868 0.68257 0.0
C1021 C 0.13112 0.06301 0.70429 0.0
C1022 C 0.17781 0.04728 0.55968 0.0
C1023 C 0.14294 0.10049 0.71031 0.0
H1024 H 0.22375 0.10929 0.64576 0.0
H1025 H 0.18161 0.12621 0.49091 0.0
H1026 H 0.188 0.0818 0.74254 0.0
H1027 H 0.20054 0.06303 0.69104 0.0
H1028 H 0.21553 0.08431 0.725 0.0
H1029 H 0.14836 0.11113 0.47957 0.0
H1030 H 0.14861 0.08377 0.50089 0.0
H1031 H 0.13666 0.10222 0.55481 0.0
H1032 H 0.14868 0.02211 0.61307 0.0
H1033 H 0.11931 0.06678 0.74042 0.0
H1034 H 0.19372 0.05023 0.57933 0.0
H1035 H 0.17595 0.05715 0.51548 0.0
H1036 H 0.17673 0.03059 0.54496 0.0
H1037 H 0.1578 0.10506 0.73445 0.0
H1038 H 0.13004 0.1018 0.74645 0.0
H1039 H 0.1401 0.11185 0.67031 0.0
C1040 C 0.71004 0.39226 0.38245 0.0
C1041 C 0.70505 0.37936 0.43562 0.0
C1042 C 0.69558 0.40679 0.35807 0.0
C1043 C 0.67565 0.40846 0.38759 0.0
C1044 C 0.67041 0.39532 0.44084 0.0
C1045 C 0.6852 0.3809 0.46427 0.0
C1046 C 0.70176 0.42054 0.30124 0.0
C1047 C 0.64929 0.39668 0.47355 0.0
C1048 C 0.64692 0.46001 0.36851 0.0
C1049 C 0.63264 0.45538 0.31853 0.0
C1050 C 0.66091 0.44484 0.39164 0.0
C1051 C 0.66059 0.42452 0.36416 0.0
C1052 C 0.64621 0.41973 0.31365 0.0
C1053 C 0.63239 0.43525 0.29135 0.0
C1054 C 0.67606 0.45057 0.44541 0.0
C1055 C 0.64546 0.39823 0.28316 0.0
H1056 H 0.72535 0.39111 0.35998 0.0
H1057 H 0.68126 0.37093 0.50528 0.0
H1058 H 0.69038 0.41871 0.26068 0.0
H1059 H 0.70142 0.4372 0.3164 0.0
H1060 H 0.71764 0.41684 0.28255 0.0
H1061 H 0.64742 0.3849 0.513 0.0
H1062 H 0.64712 0.41249 0.49487 0.0
H1063 H 0.63669 0.39434 0.43697 0.0
H1064 H 0.64717 0.47555 0.38977 0.0
H1065 H 0.62134 0.43159 0.25282 0.0
H1066 H 0.69237 0.4484 0.42814 0.0
H1067 H 0.67381 0.44007 0.48798 0.0
H1068 H 0.67415 0.46701 0.46197 0.0
H1069 H 0.66082 0.39443 0.26091 0.0
H1070 H 0.63319 0.39696 0.24489 0.0
H1071 H 0.64237 0.3863 0.32132 0.0
C1072 C 0.36791 0.93231 0.21915 0.0
C1073 C 0.36822 0.95237 0.19155 0.0
C1074 C 0.35417 0.91689 0.19555 0.0
C1075 C 0.34046 0.92172 0.1433 0.0
C1076 C 0.34081 0.94192 0.11512 0.0
C1077 C 0.3547 0.95698 0.13955 0.0
C1078 C 0.35422 0.8955 0.22675 0.0
C1079 C 0.32638 0.9477 0.05951 0.0
C1080 C 0.31548 0.87849 0.04214 0.0
C1081 C 0.29534 0.87767 0.069 0.0
C1082 C 0.33052 0.89247 0.06671 0.0
C1083 C 0.32521 0.90592 0.11919 0.0
C1084 C 0.30497 0.90495 0.14697 0.0
C1085 C 0.2903 0.89083 0.12157 0.0
C1086 C 0.35197 0.89306 0.03594 0.0
C1087 C 0.29869 0.91908 0.20282 0.0
H1088 H 0.37838 0.92866 0.25923 0.0
H1089 H 0.35489 0.97245 0.11792 0.0
H1090 H 0.33865 0.89219 0.24827 0.0
H1091 H 0.35721 0.88334 0.1892 0.0
H1092 H 0.36623 0.89408 0.26577 0.0
H1093 H 0.32891 0.96397 0.04219 0.0
H1094 H 0.32875 0.93686 0.01779 0.0
H1095 H 0.30986 0.9461 0.07529 0.0
H1096 H 0.31947 0.8683 0.00165 0.0
H1097 H 0.27476 0.89023 0.14266 0.0
H1098 H 0.36416 0.89065 0.07379 0.0
H1099 H 0.35475 0.90867 0.01391 0.0
H1100 H 0.35389 0.88098 0.99737 0.0
H1101 H 0.30969 0.91715 0.24434 0.0
H1102 H 0.28257 0.91586 0.22037 0.0
H1103 H 0.29957 0.93566 0.18711 0.0
C1104 C 0.81622 0.37719 0.55161 0.0
C1105 C 0.79564 0.3777 0.57512 0.0
C1106 C 0.83141 0.39104 0.57602 0.0
C1107 C 0.82579 0.40576 0.62471 0.0
C1108 C 0.80509 0.40614 0.64913 0.0
C1109 C 0.79029 0.39208 0.62414 0.0
C1110 C 0.85336 0.39014 0.54902 0.0
C1111 C 0.79845 0.4217 0.70072 0.0
C1112 C 0.86742 0.43327 0.72617 0.0
C1113 C 0.86884 0.4526 0.69421 0.0
C1114 C 0.85373 0.41766 0.70344 0.0
C1115 C 0.84116 0.42159 0.64774 0.0
C1116 C 0.84267 0.44104 0.61514 0.0
C1117 C 0.85651 0.45627 0.63869 0.0
C1118 C 0.85257 0.39706 0.73928 0.0
C1119 C 0.82944 0.44588 0.55583 0.0
H1120 H 0.82044 0.36603 0.51394 0.0
H1121 H 0.77441 0.39253 0.64261 0.0
H1122 H 0.85709 0.40504 0.52383 0.0
H1123 H 0.86479 0.38829 0.58941 0.0
H1124 H 0.85548 0.37707 0.51384 0.0
H1125 H 0.78196 0.41942 0.71624 0.0
H1126 H 0.80868 0.42035 0.74431 0.0
H1127 H 0.80018 0.43785 0.68161 0.0
H1128 H 0.87698 0.43033 0.76895 0.0
H1129 H 0.85755 0.47118 0.61368 0.0
H1130 H 0.85568 0.38396 0.70502 0.0
H1131 H 0.83659 0.39477 0.75911 0.0
H1132 H 0.86394 0.39618 0.78028 0.0
H1133 H 0.83215 0.43399 0.51724 0.0
H1134 H 0.83284 0.46159 0.53525 0.0
H1135 H 0.81262 0.4452 0.569 0.0
C1136 C 0.31476 0.11935 0.46496 0.0
C1137 C 0.29493 0.12005 0.4358 0.0
C1138 C 0.33001 0.10515 0.44303 0.0
C1139 C 0.32523 0.09134 0.39095 0.0
C1140 C 0.30527 0.0921 0.36113 0.0
C1141 C 0.29039 0.10646 0.38386 0.0
C1142 C 0.35115 0.10479 0.47589 0.0
C1143 C 0.29954 0.07757 0.30567 0.0
C1144 C 0.36865 0.06488 0.2946 0.0
C1145 C 0.36885 0.04488 0.32258 0.0
C1146 C 0.3548 0.08034 0.31718 0.0
C1147 C 0.3408 0.07559 0.36874 0.0
C1148 C 0.3411 0.05548 0.39753 0.0
C1149 C 0.35514 0.04038 0.37416 0.0
C1150 C 0.35494 0.10164 0.28539 0.0
C1151 C 0.32636 0.04979 0.45239 0.0
H1152 H 0.31836 0.12986 0.505 0.0
H1153 H 0.27509 0.10694 0.36107 0.0
H1154 H 0.35387 0.08925 0.49844 0.0
H1155 H 0.36367 0.10725 0.43916 0.0
H1156 H 0.3526 0.11696 0.51441 0.0
H1157 H 0.28349 0.08046 0.28693 0.0
H1158 H 0.31076 0.07946 0.26476 0.0
H1159 H 0.30057 0.06109 0.32228 0.0
H1160 H 0.37927 0.06845 0.25485 0.0
H1161 H 0.35524 0.02494 0.39606 0.0
H1162 H 0.3574 0.11395 0.32285 0.0
H1163 H 0.33956 0.1047 0.26215 0.0
H1164 H 0.36732 0.10308 0.24759 0.0
H1165 H 0.32826 0.06088 0.49369 0.0
H1166 H 0.329 0.03365 0.47074 0.0
H1167 H 0.30994 0.05106 0.4353 0.0
C1168 C 0.62893 0.56794 0.21648 0.0
C1169 C 0.62863 0.54794 0.18838 0.0
C1170 C 0.64237 0.58353 0.19249 0.0
C1171 C 0.65601 0.57885 0.13997 0.0
C1172 C 0.6557 0.55868 0.11136 0.0
C1173 C 0.64189 0.54353 0.13559 0.0
C1174 C 0.64206 0.60496 0.22356 0.0
C1175 C 0.67022 0.55299 0.05592 0.0
C1176 C 0.68097 0.62187 0.03832 0.0
C1177 C 0.70096 0.62309 0.06623 0.0
C1178 C 0.66593 0.60795 0.06303 0.0
C1179 C 0.67117 0.59475 0.11614 0.0
C1180 C 0.69127 0.59609 0.14486 0.0
C1181 C 0.70587 0.61036 0.11985 0.0
C1182 C 0.64455 0.60715 0.03178 0.0
C1183 C 0.69755 0.58209 0.20097 0.0
H1184 H 0.61861 0.57143 0.25706 0.0
H1185 H 0.64175 0.52806 0.11384 0.0
H1186 H 0.65749 0.60835 0.24598 0.0
H1187 H 0.63924 0.61707 0.18577 0.0
H1188 H 0.62983 0.60636 0.26187 0.0
H1189 H 0.66787 0.53667 0.03871 0.0
H1190 H 0.66778 0.56374 0.0141 0.0
H1191 H 0.68672 0.55478 0.07189 0.0
H1192 H 0.67709 0.63177 0.99708 0.0
H1193 H 0.72132 0.61122 0.1415 0.0
H1194 H 0.63226 0.60931 0.06944 0.0
H1195 H 0.64202 0.59158 0.00919 0.0
H1196 H 0.64255 0.61932 0.99353 0.0
H1197 H 0.6865 0.58402 0.2423 0.0
H1198 H 0.71363 0.58542 0.21874 0.0
H1199 H 0.69678 0.56547 0.18539 0.0
C1200 C 0.20875 0.89361 0.88797 0.0
C1201 C 0.20336 0.87752 0.93131 0.0
C1202 C 0.19361 0.90752 0.86417 0.0
C1203 C 0.17251 0.90517 0.88378 0.0
C1204 C 0.16692 0.88885 0.92717 0.0
C1205 C 0.18246 0.87524 0.95069 0.0
C1206 C 0.20023 0.92483 0.81843 0.0
C1207 C 0.14456 0.88581 0.9488 0.0
C1208 C 0.13837 0.9535 0.86992 0.0
C1209 C 0.1283 0.95015 0.8099 0.0
C1210 C 0.15246 0.93877 0.89518 0.0
C1211 C 0.15647 0.92017 0.85979 0.0
C1212 C 0.14596 0.91645 0.79994 0.0
C1213 C 0.13205 0.93155 0.77553 0.0
C1214 C 0.16347 0.94337 0.95893 0.0
C1215 C 0.14973 0.89672 0.7611 0.0
H1216 H 0.22489 0.89546 0.87287 0.0
H1217 H 0.17822 0.86277 0.984 0.0
H1218 H 0.19152 0.92361 0.77168 0.0
H1219 H 0.19637 0.94025 0.84023 0.0
H1220 H 0.21725 0.92442 0.80765 0.0
H1221 H 0.14271 0.87205 0.98144 0.0
H1222 H 0.13901 0.89994 0.97506 0.0
H1223 H 0.1343 0.88369 0.90553 0.0
H1224 H 0.13552 0.96785 0.89674 0.0
H1225 H 0.12423 0.92886 0.72926 0.0
H1226 H 0.18057 0.94457 0.95045 0.0
H1227 H 0.16094 0.93039 0.99399 0.0
H1228 H 0.15798 0.95816 0.98171 0.0
H1229 H 0.16624 0.8962 0.74452 0.0
H1230 H 0.13941 0.89563 0.71756 0.0
H1231 H 0.1471 0.88278 0.7923 0.0
loop_
_geom_bond_atom_site_label_1
_geom_bond_atom_site_label_2
_geom_bond_distance
_geom_bond_site_symmetry_2
_ccdc_geom_bond_type
In0 O1 2.294 1_554 S
In0 O2 2.326 . S
In0 O6 2.266 1_554 S
In0 O7 2.326 1_554 S
In0 O8 2.266 . S
In0 O9 2.326 . S
In0 O11 2.294 . S
In0 O12 2.326 1_554 S
O1 In0 2.294 1_556 S
O1 C10 1.240 1_556 S
O2 In0 2.326 . S
O2 C10 1.252 . S
C3 O6 1.252 . S
C3 O7 1.260 . S
C4 O11 1.240 1_556 S
C4 O12 1.252 . S
C5 O8 1.252 . S
C5 O9 1.260 . S
O6 In0 2.266 1_556 S
O6 C3 1.252 . S
O7 In0 2.326 1_556 S
O7 C3 1.260 . S
O8 In0 2.266 . S
O8 C5 1.252 . S
O9 In0 2.326 . S
O9 C5 1.260 . S
C10 O1 1.240 1_554 S
C10 O2 1.252 . S
O11 In0 2.294 . S
O11 C4 1.240 1_554 S
O12 In0 2.326 1_556 S
O12 C4 1.252 . S
In13 O14 2.294 . S
In13 O15 2.326 . S
In13 O19 2.266 . S
In13 O20 2.326 1_545 S
In13 O21 2.266 1_545 S
In13 O22 2.326 . S
In13 O24 2.294 1_545 S
In13 O25 2.326 1_545 S
O14 In13 2.294 . S
O14 C23 1.240 . S
O15 In13 2.326 . S
O15 C23 1.252 . S
C16 O19 1.253 . S
C16 O20 1.259 1_545 S
C17 O24 1.240 . S
C17 O25 1.252 . S
C18 O21 1.253 1_545 S
C18 O22 1.259 . S
O19 In13 2.266 . S
O19 C16 1.253 . S
O20 In13 2.326 1_565 S
O20 C16 1.259 1_565 S
O21 In13 2.266 1_565 S
O21 C18 1.253 1_565 S
O22 In13 2.326 . S
O22 C18 1.259 . S
C23 O14 1.240 . S
C23 O15 1.252 . S
O24 In13 2.294 1_565 S
O24 C17 1.240 . S
O25 In13 2.326 1_565 S
O25 C17 1.252 . S
In26 O27 2.294 . S
In26 O28 2.326 . S
In26 O32 2.266 . S
In26 O33 2.326 . S
In26 O34 2.266 . S
In26 O35 2.326 . S
In26 O37 2.294 . S
In26 O38 2.326 . S
O27 In26 2.294 . S
O27 C36 1.240 . S
O28 In26 2.326 . S
O28 C36 1.252 . S
C29 O32 1.252 . S
C29 O33 1.260 . S
C30 O37 1.240 . S
C30 O38 1.252 . S
C31 O34 1.252 . S
C31 O35 1.260 . S
O32 In26 2.266 . S
O32 C29 1.252 . S
O33 In26 2.326 . S
O33 C29 1.260 . S
O34 In26 2.266 . S
O34 C31 1.252 . S
O35 In26 2.326 . S
O35 C31 1.260 . S
C36 O27 1.240 . S
C36 O28 1.252 . S
O37 In26 2.294 . S
O37 C30 1.240 . S
O38 In26 2.326 . S
O38 C30 1.252 . S
In39 O40 2.294 . S
In39 O41 2.326 . S
In39 O45 2.266 . S
In39 O46 2.326 1_545 S
In39 O47 2.266 1_545 S
In39 O48 2.326 . S
In39 O50 2.294 1_545 S
In39 O51 2.326 1_545 S
O40 In39 2.294 . S
O40 C49 1.240 . S
O41 In39 2.326 . S
O41 C49 1.252 . S
C42 O45 1.253 . S
C42 O46 1.259 1_545 S
C43 O50 1.240 . S
C43 O51 1.252 . S
C44 O47 1.253 1_545 S
C44 O48 1.259 . S
O45 In39 2.266 . S
O45 C42 1.253 . S
O46 In39 2.326 1_565 S
O46 C42 1.259 1_565 S
O47 In39 2.266 1_565 S
O47 C44 1.253 1_565 S
O48 In39 2.326 . S
O48 C44 1.259 . S
C49 O40 1.240 . S
C49 O41 1.252 . S
O50 In39 2.294 1_565 S
O50 C43 1.240 . S
O51 In39 2.326 1_565 S
O51 C43 1.252 . S
In52 O53 2.294 1_554 S
In52 O54 2.326 . S
In52 O58 2.266 1_554 S
In52 O59 2.326 1_554 S
In52 O60 2.266 . S
In52 O61 2.326 . S
In52 O63 2.294 . S
In52 O64 2.326 1_554 S
O53 In52 2.294 1_556 S
O53 C62 1.240 1_556 S
O54 In52 2.326 . S
O54 C62 1.252 . S
C55 O58 1.252 . S
C55 O59 1.260 . S
C56 O63 1.240 1_556 S
C56 O64 1.252 . S
C57 O60 1.252 . S
C57 O61 1.260 . S
O58 In52 2.266 1_556 S
O58 C55 1.252 . S
O59 In52 2.326 1_556 S
O59 C55 1.260 . S
O60 In52 2.266 . S
O60 C57 1.252 . S
O61 In52 2.326 . S
O61 C57 1.260 . S
C62 O53 1.240 1_554 S
C62 O54 1.252 . S
O63 In52 2.294 . S
O63 C56 1.240 1_554 S
O64 In52 2.326 1_556 S
O64 C56 1.252 . S
In65 O66 2.294 . S
In65 O67 2.326 . S
In65 O71 2.266 . S
In65 O72 2.326 1_545 S
In65 O73 2.266 1_545 S
In65 O74 2.326 . S
In65 O76 2.294 1_545 S
In65 O77 2.326 1_545 S
O66 In65 2.294 . S
O66 C75 1.240 . S
O67 In65 2.326 . S
O67 C75 1.252 . S
C68 O71 1.253 . S
C68 O72 1.259 1_545 S
C69 O76 1.240 . S
C69 O77 1.252 . S
C70 O73 1.253 1_545 S
C70 O74 1.259 . S
O71 In65 2.266 . S
O71 C68 1.253 . S
O72 In65 2.326 1_565 S
O72 C68 1.259 1_565 S
O73 In65 2.266 1_565 S
O73 C70 1.253 1_565 S
O74 In65 2.326 . S
O74 C70 1.259 . S
C75 O66 1.240 . S
C75 O67 1.252 . S
O76 In65 2.294 1_565 S
O76 C69 1.240 . S
O77 In65 2.326 1_565 S
O77 C69 1.252 . S
In78 O79 2.294 . S
In78 O80 2.326 . S
In78 O84 2.266 . S
In78 O85 2.326 . S
In78 O86 2.266 . S
In78 O87 2.326 . S
In78 O89 2.294 . S
In78 O90 2.326 . S
O79 In78 2.294 . S
O79 C88 1.240 . S
O80 In78 2.326 . S
O80 C88 1.252 . S
C81 O84 1.252 . S
C81 O85 1.260 . S
C82 O89 1.240 . S
C82 O90 1.252 . S
C83 O86 1.252 . S
C83 O87 1.260 . S
O84 In78 2.266 . S
O84 C81 1.252 . S
O85 In78 2.326 . S
O85 C81 1.260 . S
O86 In78 2.266 . S
O86 C83 1.252 . S
O87 In78 2.326 . S
O87 C83 1.260 . S
C88 O79 1.240 . S
C88 O80 1.252 . S
O89 In78 2.294 . S
O89 C82 1.240 . S
O90 In78 2.326 . S
O90 C82 1.252 . S
In91 O92 2.294 1_545 S
In91 O93 2.326 1_545 S
In91 O97 2.266 1_545 S
In91 O98 2.326 . S
In91 O99 2.266 . S
In91 O100 2.326 1_545 S
In91 O102 2.294 . S
In91 O103 2.326 . S
O92 In91 2.294 1_565 S
O92 C101 1.240 . S
O93 In91 2.326 1_565 S
O93 C101 1.252 . S
C94 O97 1.253 1_545 S
C94 O98 1.259 . S
C95 O102 1.240 . S
C95 O103 1.252 . S
C96 O99 1.253 . S
C96 O100 1.259 1_545 S
O97 In91 2.266 1_565 S
O97 C94 1.253 1_565 S
O98 In91 2.326 . S
O98 C94 1.259 . S
O99 In91 2.266 . S
O99 C96 1.253 . S
O100 In91 2.326 1_565 S
O100 C96 1.259 1_565 S
C101 O92 1.240 . S
C101 O93 1.252 . S
O102 In91 2.294 . S
O102 C95 1.240 . S
O103 In91 2.326 . S
O103 C95 1.252 . S
In104 O105 2.294 . S
In104 O106 2.326 . S
In104 O110 2.266 . S
In104 O111 2.326 . S
In104 O112 2.266 . S
In104 O113 2.326 . S
In104 O115 2.294 . S
In104 O116 2.326 . S
O105 In104 2.294 . S
O105 C114 1.240 . S
O106 In104 2.326 . S
O106 C114 1.252 . S
C107 O110 1.252 . S
C107 O111 1.260 . S
C108 O115 1.240 . S
C108 O116 1.252 . S
C109 O112 1.252 . S
C109 O113 1.260 . S
O110 In104 2.266 . S
O110 C107 1.252 . S
O111 In104 2.326 . S
O111 C107 1.260 . S
O112 In104 2.266 . S
O112 C109 1.252 . S
O113 In104 2.326 . S
O113 C109 1.260 . S
C114 O105 1.240 . S
C114 O106 1.252 . S
O115 In104 2.294 . S
O115 C108 1.240 . S
O116 In104 2.326 . S
O116 C108 1.252 . S
In117 O118 2.294 . S
In117 O119 2.326 . S
In117 O123 2.266 . S
In117 O124 2.326 . S
In117 O125 2.266 . S
In117 O126 2.326 . S
In117 O128 2.294 . S
In117 O129 2.326 . S
O118 In117 2.294 . S
O118 C127 1.240 . S
O119 In117 2.326 . S
O119 C127 1.252 . S
C120 O123 1.252 . S
C120 O124 1.260 . S
C121 O128 1.240 . S
C121 O129 1.252 . S
C122 O125 1.252 . S
C122 O126 1.260 . S
O123 In117 2.266 . S
O123 C120 1.252 . S
O124 In117 2.326 . S
O124 C120 1.260 . S
O125 In117 2.266 . S
O125 C122 1.252 . S
O126 In117 2.326 . S
O126 C122 1.260 . S
C127 O118 1.240 . S
C127 O119 1.252 . S
O128 In117 2.294 . S
O128 C121 1.240 . S
O129 In117 2.326 . S
O129 C121 1.252 . S
In130 O131 2.294 1_554 S
In130 O132 2.326 . S
In130 O136 2.266 1_554 S
In130 O137 2.326 1_554 S
In130 O138 2.266 . S
In130 O139 2.326 . S
In130 O141 2.294 . S
In130 O142 2.326 1_554 S
O131 In130 2.294 1_556 S
O131 C140 1.240 1_556 S
O132 In130 2.326 . S
O132 C140 1.252 . S
C133 O136 1.252 . S
C133 O137 1.260 . S
C134 O141 1.240 1_556 S
C134 O142 1.252 . S
C135 O138 1.252 . S
C135 O139 1.260 . S
O136 In130 2.266 1_556 S
O136 C133 1.252 . S
O137 In130 2.326 1_556 S
O137 C133 1.260 . S
O138 In130 2.266 . S
O138 C135 1.252 . S
O139 In130 2.326 . S
O139 C135 1.260 . S
C140 O131 1.240 1_554 S
C140 O132 1.252 . S
O141 In130 2.294 . S
O141 C134 1.240 1_554 S
O142 In130 2.326 1_556 S
O142 C134 1.252 . S
In143 O144 2.294 . S
In143 O145 2.326 . S
In143 O149 2.266 . S
In143 O150 2.326 . S
In143 O151 2.266 . S
In143 O152 2.326 . S
In143 O154 2.294 . S
In143 O155 2.326 . S
O144 In143 2.294 . S
O144 C153 1.240 . S
O145 In143 2.326 . S
O145 C153 1.252 . S
C146 O149 1.252 . S
C146 O150 1.260 . S
C147 O154 1.240 . S
C147 O155 1.252 . S
C148 O151 1.252 . S
C148 O152 1.260 . S
O149 In143 2.266 . S
O149 C146 1.252 . S
O150 In143 2.326 . S
O150 C146 1.260 . S
O151 In143 2.266 . S
O151 C148 1.252 . S
O152 In143 2.326 . S
O152 C148 1.260 . S
C153 O144 1.240 . S
C153 O145 1.252 . S
O154 In143 2.294 . S
O154 C147 1.240 . S
O155 In143 2.326 . S
O155 C147 1.252 . S
In156 O157 2.294 . S
In156 O158 2.326 . S
In156 O162 2.266 . S
In156 O163 2.326 . S
In156 O164 2.266 . S
In156 O165 2.326 . S
In156 O167 2.294 . S
In156 O168 2.326 . S
O157 In156 2.294 . S
O157 C166 1.240 . S
O158 In156 2.326 . S
O158 C166 1.252 . S
C159 O162 1.252 . S
C159 O163 1.260 . S
C160 O167 1.240 . S
C160 O168 1.252 . S
C161 O164 1.252 . S
C161 O165 1.260 . S
O162 In156 2.266 . S
O162 C159 1.252 . S
O163 In156 2.326 . S
O163 C159 1.260 . S
O164 In156 2.266 . S
O164 C161 1.252 . S
O165 In156 2.326 . S
O165 C161 1.260 . S
C166 O157 1.240 . S
C166 O158 1.252 . S
O167 In156 2.294 . S
O167 C160 1.240 . S
O168 In156 2.326 . S
O168 C160 1.252 . S
In169 O170 2.294 . S
In169 O171 2.326 . S
In169 O175 2.266 . S
In169 O176 2.326 . S
In169 O177 2.266 . S
In169 O178 2.326 . S
In169 O180 2.294 . S
In169 O181 2.326 . S
O170 In169 2.294 . S
O170 C179 1.240 . S
O171 In169 2.326 . S
O171 C179 1.252 . S
C172 O175 1.252 . S
C172 O176 1.260 . S
C173 O180 1.240 . S
C173 O181 1.252 . S
C174 O177 1.252 . S
C174 O178 1.260 . S
O175 In169 2.266 . S
O175 C172 1.252 . S
O176 In169 2.326 . S
O176 C172 1.260 . S
O177 In169 2.266 . S
O177 C174 1.252 . S
O178 In169 2.326 . S
O178 C174 1.260 . S
C179 O170 1.240 . S
C179 O171 1.252 . S
O180 In169 2.294 . S
O180 C173 1.240 . S
O181 In169 2.326 . S
O181 C173 1.252 . S
In182 O183 2.294 . S
In182 O184 2.326 1_554 S
In182 O188 2.266 . S
In182 O189 2.326 . S
In182 O190 2.266 1_554 S
In182 O191 2.326 1_554 S
In182 O193 2.294 1_554 S
In182 O194 2.326 . S
O183 In182 2.294 . S
O183 C192 1.240 1_554 S
O184 In182 2.326 1_556 S
O184 C192 1.252 . S
C185 O188 1.252 . S
C185 O189 1.260 . S
C186 O193 1.240 1_554 S
C186 O194 1.252 . S
C187 O190 1.252 . S
C187 O191 1.260 . S
O188 In182 2.266 . S
O188 C185 1.252 . S
O189 In182 2.326 . S
O189 C185 1.260 . S
O190 In182 2.266 1_556 S
O190 C187 1.252 . S
O191 In182 2.326 1_556 S
O191 C187 1.260 . S
C192 O183 1.240 1_556 S
C192 O184 1.252 . S
O193 In182 2.294 1_556 S
O193 C186 1.240 1_556 S
O194 In182 2.326 . S
O194 C186 1.252 . S
In195 O196 2.294 . S
In195 O197 2.326 . S
In195 O201 2.266 . S
In195 O202 2.326 . S
In195 O203 2.266 . S
In195 O204 2.326 . S
In195 O206 2.294 . S
In195 O207 2.326 . S
O196 In195 2.294 . S
O196 C205 1.240 . S
O197 In195 2.326 . S
O197 C205 1.252 . S
C198 O201 1.252 . S
C198 O202 1.260 . S
C199 O206 1.240 . S
C199 O207 1.252 . S
C200 O203 1.252 . S
C200 O204 1.260 . S
O201 In195 2.266 . S
O201 C198 1.252 . S
O202 In195 2.326 . S
O202 C198 1.260 . S
O203 In195 2.266 . S
O203 C200 1.252 . S
O204 In195 2.326 . S
O204 C200 1.260 . S
C205 O196 1.240 . S
C205 O197 1.252 . S
O206 In195 2.294 . S
O206 C199 1.240 . S
O207 In195 2.326 . S
O207 C199 1.252 . S
C208 C209 1.391 . S
C208 C210 1.394 . S
C208 H224 0.931 . S
C209 C208 1.391 . S
C209 C213 1.376 . S
C210 C208 1.394 . S
C210 C211 1.369 . S
C210 C214 1.531 . S
C211 C210 1.369 . S
C211 C212 1.410 . S
C211 C219 1.503 . S
C212 C211 1.410 . S
C212 C213 1.392 . S
C212 C215 1.511 . S
C213 C209 1.376 . S
C213 C212 1.392 . S
C213 H225 0.929 . S
C214 C210 1.531 . S
C214 H226 0.960 . S
C214 H227 0.962 . S
C214 H228 0.960 . S
C215 C212 1.511 . S
C215 H229 0.961 . S
C215 H230 0.961 . S
C215 H231 0.961 . S
C216 C217 1.370 . S
C216 C218 1.363 . S
C216 H232 0.931 . S
C217 C216 1.370 . S
C217 C221 1.408 . S
C218 C216 1.363 . S
C218 C219 1.370 . S
C218 C222 1.524 . S
C219 C211 1.503 . S
C219 C218 1.370 . S
C219 C220 1.403 . S
C220 C219 1.403 . S
C220 C221 1.404 . S
C220 C223 1.539 . S
C221 C217 1.408 . S
C221 C220 1.404 . S
C221 H233 0.930 . S
C222 C218 1.524 . S
C222 H234 0.956 . S
C222 H235 0.961 . S
C222 H236 0.961 . S
C223 C220 1.539 . S
C223 H237 0.958 . S
C223 H238 0.961 . S
C223 H239 0.960 . S
H224 C208 0.931 . S
H225 C213 0.929 . S
H226 C214 0.960 . S
H227 C214 0.962 . S
H228 C214 0.960 . S
H229 C215 0.961 . S
H230 C215 0.961 . S
H231 C215 0.961 . S
H232 C216 0.931 . S
H233 C221 0.930 . S
H234 C222 0.956 . S
H235 C222 0.961 . S
H236 C222 0.961 . S
H237 C223 0.958 . S
H238 C223 0.961 . S
H239 C223 0.960 . S
C240 C241 1.391 1_565 S
C240 C242 1.394 . S
C240 H256 0.931 . S
C241 C240 1.391 1_545 S
C241 C245 1.376 . S
C242 C240 1.394 . S
C242 C243 1.369 1_565 S
C242 C246 1.531 1_655 S
C243 C242 1.369 1_545 S
C243 C244 1.410 . S
C243 C251 1.503 1_655 S
C244 C243 1.410 . S
C244 C245 1.392 . S
C244 C247 1.511 . S
C245 C241 1.376 . S
C245 C244 1.392 . S
C245 H257 0.929 . S
C246 C242 1.531 1_455 S
C246 H258 0.960 . S
C246 H259 0.962 . S
C246 H260 0.960 . S
C247 C244 1.511 . S
C247 H261 0.961 . S
C247 H262 0.961 . S
C247 H263 0.961 . S
C248 C249 1.358 1_565 S
C248 C250 1.363 . S
C248 H264 0.931 . S
C249 C248 1.358 1_545 S
C249 C253 1.422 . S
C250 C248 1.363 . S
C250 C251 1.370 1_565 S
C250 C254 1.524 1_455 S
C251 C243 1.503 1_455 S
C251 C250 1.370 1_545 S
C251 C252 1.403 . S
C252 C251 1.403 . S
C252 C253 1.404 . S
C252 C255 1.539 . S
C253 C249 1.422 . S
C253 C252 1.404 . S
C253 H265 0.930 . S
C254 C250 1.524 1_655 S
C254 H266 0.956 . S
C254 H267 0.961 . S
C254 H268 0.961 . S
C255 C252 1.539 . S
C255 H269 0.958 . S
C255 H270 0.961 . S
C255 H271 0.960 . S
H256 C240 0.931 . S
H257 C245 0.929 . S
H258 C246 0.960 . S
H259 C246 0.962 . S
H260 C246 0.960 . S
H261 C247 0.961 . S
H262 C247 0.961 . S
H263 C247 0.961 . S
H264 C248 0.931 . S
H265 C253 0.930 . S
H266 C254 0.956 . S
H267 C254 0.961 . S
H268 C254 0.961 . S
H269 C255 0.958 . S
H270 C255 0.961 . S
H271 C255 0.960 . S
C272 C273 1.391 . S
C272 C274 1.394 . S
C272 H288 0.931 . S
C273 C272 1.391 . S
C273 C277 1.376 . S
C274 C272 1.394 . S
C274 C275 1.369 . S
C274 C278 1.531 . S
C275 C274 1.369 . S
C275 C276 1.410 . S
C275 C283 1.503 . S
C276 C275 1.410 . S
C276 C277 1.392 . S
C276 C279 1.511 . S
C277 C273 1.376 . S
C277 C276 1.392 . S
C277 H289 0.929 . S
C278 C274 1.531 . S
C278 H290 0.960 . S
C278 H291 0.962 . S
C278 H292 0.960 . S
C279 C276 1.511 . S
C279 H293 0.961 . S
C279 H294 0.961 . S
C279 H295 0.961 . S
C280 C281 1.370 . S
C280 C282 1.363 . S
C280 H296 0.931 . S
C281 C280 1.370 . S
C281 C285 1.408 . S
C282 C280 1.363 . S
C282 C283 1.370 . S
C282 C286 1.524 . S
C283 C275 1.503 . S
C283 C282 1.370 . S
C283 C284 1.403 . S
C284 C283 1.403 . S
C284 C285 1.404 . S
C284 C287 1.539 . S
C285 C281 1.408 . S
C285 C284 1.404 . S
C285 H297 0.930 . S
C286 C282 1.524 . S
C286 H298 0.956 . S
C286 H299 0.961 . S
C286 H300 0.961 . S
C287 C284 1.539 . S
C287 H301 0.958 . S
C287 H302 0.961 . S
C287 H303 0.960 . S
H288 C272 0.931 . S
H289 C277 0.929 . S
H290 C278 0.960 . S
H291 C278 0.962 . S
H292 C278 0.960 . S
H293 C279 0.961 . S
H294 C279 0.961 . S
H295 C279 0.961 . S
H296 C280 0.931 . S
H297 C285 0.930 . S
H298 C286 0.956 . S
H299 C286 0.961 . S
H300 C286 0.961 . S
H301 C287 0.958 . S
H302 C287 0.961 . S
H303 C287 0.960 . S
C304 C305 1.424 . S
C304 C306 1.394 . S
C304 H320 0.931 . S
C305 C304 1.424 . S
C305 C309 1.344 1_545 S
C306 C304 1.394 . S
C306 C307 1.369 . S
C306 C310 1.531 . S
C307 C306 1.369 . S
C307 C308 1.410 1_545 S
C307 C315 1.504 1_554 S
C308 C307 1.410 1_565 S
C308 C309 1.392 . S
C308 C311 1.511 . S
C309 C305 1.344 1_565 S
C309 C308 1.392 . S
C309 H321 0.929 . S
C310 C306 1.531 . S
C310 H322 0.960 . S
C310 H323 0.962 1_554 S
C310 H324 0.960 . S
C311 C308 1.511 . S
C311 H325 0.961 . S
C311 H326 0.961 . S
C311 H327 0.961 . S
C312 C313 1.371 . S
C312 C314 1.363 . S
C312 H328 0.931 . S
C313 C312 1.371 . S
C313 C317 1.407 1_565 S
C314 C312 1.363 . S
C314 C315 1.368 1_565 S
C314 C318 1.524 . S
C315 C307 1.504 1_556 S
C315 C314 1.368 1_545 S
C315 C316 1.405 1_556 S
C316 C315 1.405 1_554 S
C316 C317 1.404 1_554 S
C316 C319 1.539 . S
C317 C313 1.407 1_545 S
C317 C316 1.404 1_556 S
C317 H329 0.930 . S
C318 C314 1.524 . S
C318 H330 0.956 1_565 S
C318 H331 0.961 . S
C318 H332 0.961 . S
C319 C316 1.539 . S
C319 H333 0.958 . S
C319 H334 0.961 1_545 S
C319 H335 0.960 1_545 S
H320 C304 0.931 . S
H321 C309 0.929 . S
H322 C310 0.960 . S
H323 C310 0.962 1_556 S
H324 C310 0.960 . S
H325 C311 0.961 . S
H326 C311 0.961 . S
H327 C311 0.961 . S
H328 C312 0.931 . S
H329 C317 0.930 . S
H330 C318 0.956 1_545 S
H331 C318 0.961 . S
H332 C318 0.961 . S
H333 C319 0.958 . S
H334 C319 0.961 1_565 S
H335 C319 0.960 1_565 S
C336 C337 1.391 . S
C336 C338 1.394 . S
C336 H352 0.931 . S
C337 C336 1.391 . S
C337 C341 1.376 . S
C338 C336 1.394 . S
C338 C339 1.369 . S
C338 C342 1.531 . S
C339 C338 1.369 . S
C339 C340 1.410 . S
C339 C347 1.503 . S
C340 C339 1.410 . S
C340 C341 1.392 . S
C340 C343 1.511 . S
C341 C337 1.376 . S
C341 C340 1.392 . S
C341 H353 0.929 . S
C342 C338 1.531 . S
C342 H354 0.960 . S
C342 H355 0.962 . S
C342 H356 0.960 . S
C343 C340 1.511 . S
C343 H357 0.961 . S
C343 H358 0.961 . S
C343 H359 0.961 . S
C344 C345 1.370 . S
C344 C346 1.363 . S
C344 H360 0.931 . S
C345 C344 1.370 . S
C345 C349 1.408 . S
C346 C344 1.363 . S
C346 C347 1.370 . S
C346 C350 1.524 . S
C347 C339 1.503 . S
C347 C346 1.370 . S
C347 C348 1.403 . S
C348 C347 1.403 . S
C348 C349 1.404 . S
C348 C351 1.539 . S
C349 C345 1.408 . S
C349 C348 1.404 . S
C349 H361 0.930 . S
C350 C346 1.524 . S
C350 H362 0.956 . S
C350 H363 0.961 . S
C350 H364 0.961 . S
C351 C348 1.539 . S
C351 H365 0.958 . S
C351 H366 0.961 . S
C351 H367 0.960 . S
H352 C336 0.931 . S
H353 C341 0.929 . S
H354 C342 0.960 . S
H355 C342 0.962 . S
H356 C342 0.960 . S
H357 C343 0.961 . S
H358 C343 0.961 . S
H359 C343 0.961 . S
H360 C344 0.931 . S
H361 C349 0.930 . S
H362 C350 0.956 . S
H363 C350 0.961 . S
H364 C350 0.961 . S
H365 C351 0.958 . S
H366 C351 0.961 . S
H367 C351 0.960 . S
C368 C369 1.361 1_565 S
C368 C370 1.394 . S
C368 H384 0.931 . S
C369 C368 1.361 1_545 S
C369 C373 1.409 . S
C370 C368 1.394 . S
C370 C371 1.369 1_565 S
C370 C374 1.531 . S
C371 C370 1.369 1_545 S
C371 C372 1.410 . S
C371 C379 1.503 . S
C372 C371 1.410 . S
C372 C373 1.392 . S
C372 C375 1.511 . S
C373 C369 1.409 . S
C373 C372 1.392 . S
C373 H385 0.929 . S
C374 C370 1.531 . S
C374 H386 0.960 . S
C374 H387 0.962 . S
C374 H388 0.960 . S
C375 C372 1.511 . S
C375 H389 0.961 . S
C375 H390 0.961 . S
C375 H391 0.961 . S
C376 C377 1.370 1_565 S
C376 C378 1.363 . S
C376 H392 0.931 . S
C377 C376 1.370 1_545 S
C377 C381 1.408 . S
C378 C376 1.363 . S
C378 C379 1.370 1_565 S
C378 C382 1.524 . S
C379 C371 1.503 . S
C379 C378 1.370 1_545 S
C379 C380 1.403 . S
C380 C379 1.403 . S
C380 C381 1.404 . S
C380 C383 1.539 . S
C381 C377 1.408 . S
C381 C380 1.404 . S
C381 H393 0.930 . S
C382 C378 1.524 . S
C382 H394 0.956 . S
C382 H395 0.961 . S
C382 H396 0.961 . S
C383 C380 1.539 . S
C383 H397 0.958 . S
C383 H398 0.961 . S
C383 H399 0.960 . S
H384 C368 0.931 . S
H385 C373 0.929 . S
H386 C374 0.960 . S
H387 C374 0.962 . S
H388 C374 0.960 . S
H389 C375 0.961 . S
H390 C375 0.961 . S
H391 C375 0.961 . S
H392 C376 0.931 . S
H393 C381 0.930 . S
H394 C382 0.956 . S
H395 C382 0.961 . S
H396 C382 0.961 . S
H397 C383 0.958 . S
H398 C383 0.961 . S
H399 C383 0.960 . S
C400 C401 1.391 . S
C400 C402 1.394 . S
C400 H416 0.931 . S
C401 C400 1.391 . S
C401 C405 1.376 . S
C402 C400 1.394 . S
C402 C403 1.369 . S
C402 C406 1.531 . S
C403 C402 1.369 . S
C403 C404 1.410 . S
C403 C411 1.503 . S
C404 C403 1.410 . S
C404 C405 1.392 . S
C404 C407 1.511 . S
C405 C401 1.376 . S
C405 C404 1.392 . S
C405 H417 0.929 . S
C406 C402 1.531 . S
C406 H418 0.960 . S
C406 H419 0.962 . S
C406 H420 0.960 . S
C407 C404 1.511 . S
C407 H421 0.961 . S
C407 H422 0.961 . S
C407 H423 0.961 . S
C408 C409 1.370 . S
C408 C410 1.363 . S
C408 H424 0.931 . S
C409 C408 1.370 . S
C409 C413 1.408 . S
C410 C408 1.363 . S
C410 C411 1.370 . S
C410 C414 1.524 . S
C411 C403 1.503 . S
C411 C410 1.370 . S
C411 C412 1.403 . S
C412 C411 1.403 . S
C412 C413 1.404 . S
C412 C415 1.539 . S
C413 C409 1.408 . S
C413 C412 1.404 . S
C413 H425 0.930 . S
C414 C410 1.524 . S
C414 H426 0.956 . S
C414 H427 0.961 . S
C414 H428 0.961 . S
C415 C412 1.539 . S
C415 H429 0.958 . S
C415 H430 0.961 . S
C415 H431 0.960 . S
H416 C400 0.931 . S
H417 C405 0.929 . S
H418 C406 0.960 . S
H419 C406 0.962 . S
H420 C406 0.960 . S
H421 C407 0.961 . S
H422 C407 0.961 . S
H423 C407 0.961 . S
H424 C408 0.931 . S
H425 C413 0.930 . S
H426 C414 0.956 . S
H427 C414 0.961 . S
H428 C414 0.961 . S
H429 C415 0.958 . S
H430 C415 0.961 . S
H431 C415 0.960 . S
C432 C433 1.391 . S
C432 C434 1.394 . S
C432 H448 0.931 . S
C433 C432 1.391 . S
C433 C437 1.376 1_565 S
C434 C432 1.394 . S
C434 C435 1.369 . S
C434 C438 1.531 . S
C435 C434 1.369 . S
C435 C436 1.410 1_565 S
C435 C443 1.503 1_456 S
C436 C435 1.410 1_545 S
C436 C437 1.392 . S
C436 C439 1.511 1_556 S
C437 C433 1.376 1_545 S
C437 C436 1.392 . S
C437 H449 0.929 . S
C438 C434 1.531 . S
C438 H450 0.960 1_456 S
C438 H451 0.962 1_455 S
C438 H452 0.960 . S
C439 C436 1.511 1_554 S
C439 H453 0.953 1_554 S
C439 H454 0.961 . S
C439 H455 0.961 . S
C440 C441 1.365 1_545 S
C440 C442 1.363 . S
C440 H456 0.931 . S
C441 C440 1.365 1_565 S
C441 C445 1.415 . S
C442 C440 1.363 . S
C442 C443 1.370 1_545 S
C442 C446 1.524 1_554 S
C443 C435 1.503 1_654 S
C443 C442 1.370 1_565 S
C443 C444 1.403 . S
C444 C443 1.403 . S
C444 C445 1.404 . S
C444 C447 1.539 1_655 S
C445 C441 1.415 . S
C445 C444 1.404 . S
C445 H457 0.930 . S
C446 C442 1.524 1_556 S
C446 H458 0.978 . S
C446 H459 0.961 . S
C446 H460 0.961 . S
C447 C444 1.539 1_455 S
C447 H461 0.958 . S
C447 H462 0.961 . S
C447 H463 0.960 . S
H448 C432 0.931 . S
H449 C437 0.929 . S
H450 C438 0.960 1_654 S
H451 C438 0.962 1_655 S
H452 C438 0.960 . S
H453 C439 0.953 1_556 S
H454 C439 0.961 . S
H455 C439 0.961 . S
H456 C440 0.931 . S
H457 C445 0.930 . S
H458 C446 0.978 . S
H459 C446 0.961 . S
H460 C446 0.961 . S
H461 C447 0.958 . S
H462 C447 0.961 . S
H463 C447 0.960 . S
C464 C465 1.391 . S
C464 C466 1.394 . S
C464 H480 0.931 . S
C465 C464 1.391 . S
C465 C469 1.376 . S
C466 C464 1.394 . S
C466 C467 1.369 . S
C466 C470 1.531 . S
C467 C466 1.369 . S
C467 C468 1.410 . S
C467 C475 1.503 . S
C468 C467 1.410 . S
C468 C469 1.392 . S
C468 C471 1.511 . S
C469 C465 1.376 . S
C469 C468 1.392 . S
C469 H481 0.929 . S
C470 C466 1.531 . S
C470 H482 0.960 . S
C470 H483 0.962 . S
C470 H484 0.960 . S
C471 C468 1.511 . S
C471 H485 0.961 . S
C471 H486 0.961 . S
C471 H487 0.961 . S
C472 C473 1.370 . S
C472 C474 1.363 . S
C472 H488 0.931 . S
C473 C472 1.370 . S
C473 C477 1.408 . S
C474 C472 1.363 . S
C474 C475 1.370 . S
C474 C478 1.524 . S
C475 C467 1.503 . S
C475 C474 1.370 . S
C475 C476 1.403 . S
C476 C475 1.403 . S
C476 C477 1.404 . S
C476 C479 1.539 . S
C477 C473 1.408 . S
C477 C476 1.404 . S
C477 H489 0.930 . S
C478 C474 1.524 . S
C478 H490 0.956 . S
C478 H491 0.961 . S
C478 H492 0.961 . S
C479 C476 1.539 . S
C479 H493 0.958 . S
C479 H494 0.961 . S
C479 H495 0.960 . S
H480 C464 0.931 . S
H481 C469 0.929 . S
H482 C470 0.960 . S
H483 C470 0.962 . S
H484 C470 0.960 . S
H485 C471 0.961 . S
H486 C471 0.961 . S
H487 C471 0.961 . S
H488 C472 0.931 . S
H489 C477 0.930 . S
H490 C478 0.956 . S
H491 C478 0.961 . S
H492 C478 0.961 . S
H493 C479 0.958 . S
H494 C479 0.961 . S
H495 C479 0.960 . S
C496 C497 1.391 . S
C496 C498 1.394 . S
C496 H512 0.931 . S
C497 C496 1.391 . S
C497 C501 1.376 . S
C498 C496 1.394 . S
C498 C499 1.369 . S
C498 C502 1.531 . S
C499 C498 1.369 . S
C499 C500 1.410 . S
C499 C507 1.503 . S
C500 C499 1.410 . S
C500 C501 1.392 . S
C500 C503 1.511 . S
C501 C497 1.376 . S
C501 C500 1.392 . S
C501 H513 0.929 . S
C502 C498 1.531 . S
C502 H514 0.960 . S
C502 H515 0.962 . S
C502 H516 0.960 . S
C503 C500 1.511 . S
C503 H517 0.961 . S
C503 H518 0.961 . S
C503 H519 0.961 . S
C504 C505 1.370 . S
C504 C506 1.363 . S
C504 H520 0.931 . S
C505 C504 1.370 . S
C505 C509 1.408 . S
C506 C504 1.363 . S
C506 C507 1.370 . S
C506 C510 1.524 . S
C507 C499 1.503 . S
C507 C506 1.370 . S
C507 C508 1.403 . S
C508 C507 1.403 . S
C508 C509 1.404 . S
C508 C511 1.539 . S
C509 C505 1.408 . S
C509 C508 1.404 . S
C509 H521 0.930 . S
C510 C506 1.524 . S
C510 H522 0.956 . S
C510 H523 0.961 . S
C510 H524 0.961 . S
C511 C508 1.539 . S
C511 H525 0.958 . S
C511 H526 0.961 . S
C511 H527 0.960 . S
H512 C496 0.931 . S
H513 C501 0.929 . S
H514 C502 0.960 . S
H515 C502 0.962 . S
H516 C502 0.960 . S
H517 C503 0.961 . S
H518 C503 0.961 . S
H519 C503 0.961 . S
H520 C504 0.931 . S
H521 C509 0.930 . S
H522 C510 0.956 . S
H523 C510 0.961 . S
H524 C510 0.961 . S
H525 C511 0.958 . S
H526 C511 0.961 . S
H527 C511 0.960 . S
C528 C529 1.391 . S
C528 C530 1.394 . S
C528 H544 0.931 . S
C529 C528 1.391 . S
C529 C533 1.376 . S
C530 C528 1.394 . S
C530 C531 1.369 . S
C530 C534 1.531 . S
C531 C530 1.369 . S
C531 C532 1.410 . S
C531 C539 1.503 . S
C532 C531 1.410 . S
C532 C533 1.392 . S
C532 C535 1.511 . S
C533 C529 1.376 . S
C533 C532 1.392 . S
C533 H545 0.929 . S
C534 C530 1.531 . S
C534 H546 0.960 . S
C534 H547 0.962 . S
C534 H548 0.960 . S
C535 C532 1.511 . S
C535 H549 0.961 . S
C535 H550 0.961 . S
C535 H551 0.961 . S
C536 C537 1.370 . S
C536 C538 1.363 . S
C536 H552 0.931 . S
C537 C536 1.370 . S
C537 C541 1.408 . S
C538 C536 1.363 . S
C538 C539 1.370 . S
C538 C542 1.524 . S
C539 C531 1.503 . S
C539 C538 1.370 . S
C539 C540 1.403 . S
C540 C539 1.403 . S
C540 C541 1.404 . S
C540 C543 1.539 . S
C541 C537 1.408 . S
C541 C540 1.404 . S
C541 H553 0.930 . S
C542 C538 1.524 . S
C542 H554 0.956 . S
C542 H555 0.961 . S
C542 H556 0.961 . S
C543 C540 1.539 . S
C543 H557 0.958 . S
C543 H558 0.961 . S
C543 H559 0.960 . S
H544 C528 0.931 . S
H545 C533 0.929 . S
H546 C534 0.960 . S
H547 C534 0.962 . S
H548 C534 0.960 . S
H549 C535 0.961 . S
H550 C535 0.961 . S
H551 C535 0.961 . S
H552 C536 0.931 . S
H553 C541 0.930 . S
H554 C542 0.956 . S
H555 C542 0.961 . S
H556 C542 0.961 . S
H557 C543 0.958 . S
H558 C543 0.961 . S
H559 C543 0.960 . S
C560 C561 1.391 . S
C560 C562 1.394 . S
C560 H576 0.931 . S
C561 C560 1.391 . S
C561 C565 1.376 . S
C562 C560 1.394 . S
C562 C563 1.369 . S
C562 C566 1.531 . S
C563 C562 1.369 . S
C563 C564 1.410 . S
C563 C571 1.503 . S
C564 C563 1.410 . S
C564 C565 1.392 . S
C564 C567 1.511 . S
C565 C561 1.376 . S
C565 C564 1.392 . S
C565 H577 0.929 . S
C566 C562 1.531 . S
C566 H578 0.960 . S
C566 H579 0.962 . S
C566 H580 0.960 . S
C567 C564 1.511 . S
C567 H581 0.961 . S
C567 H582 0.961 . S
C567 H583 0.961 . S
C568 C569 1.370 . S
C568 C570 1.363 . S
C568 H584 0.931 . S
C569 C568 1.370 . S
C569 C573 1.408 . S
C570 C568 1.363 . S
C570 C571 1.370 . S
C570 C574 1.524 . S
C571 C563 1.503 . S
C571 C570 1.370 . S
C571 C572 1.403 . S
C572 C571 1.403 . S
C572 C573 1.404 . S
C572 C575 1.539 . S
C573 C569 1.408 . S
C573 C572 1.404 . S
C573 H585 0.930 . S
C574 C570 1.524 . S
C574 H586 0.956 . S
C574 H587 0.961 . S
C574 H588 0.961 . S
C575 C572 1.539 . S
C575 H589 0.958 . S
C575 H590 0.961 . S
C575 H591 0.960 . S
H576 C560 0.931 . S
H577 C565 0.929 . S
H578 C566 0.960 . S
H579 C566 0.962 . S
H580 C566 0.960 . S
H581 C567 0.961 . S
H582 C567 0.961 . S
H583 C567 0.961 . S
H584 C568 0.931 . S
H585 C573 0.930 . S
H586 C574 0.956 . S
H587 C574 0.961 . S
H588 C574 0.961 . S
H589 C575 0.958 . S
H590 C575 0.961 . S
H591 C575 0.960 . S
C592 C593 1.391 . S
C592 C594 1.394 . S
C592 H608 0.931 . S
C593 C592 1.391 . S
C593 C597 1.376 . S
C594 C592 1.394 . S
C594 C595 1.369 . S
C594 C598 1.531 1_554 S
C595 C594 1.369 . S
C595 C596 1.410 . S
C595 C603 1.503 1_554 S
C596 C595 1.410 . S
C596 C597 1.392 . S
C596 C599 1.511 . S
C597 C593 1.376 . S
C597 C596 1.392 . S
C597 H609 0.929 . S
C598 C594 1.531 1_556 S
C598 H610 0.960 . S
C598 H611 0.962 . S
C598 H612 0.960 . S
C599 C596 1.511 . S
C599 H613 0.961 . S
C599 H614 0.961 . S
C599 H615 0.961 . S
C600 C601 1.370 . S
C600 C602 1.363 . S
C600 H616 0.931 . S
C601 C600 1.370 . S
C601 C605 1.408 . S
C602 C600 1.363 . S
C602 C603 1.370 . S
C602 C606 1.524 . S
C603 C595 1.503 1_556 S
C603 C602 1.370 . S
C603 C604 1.403 . S
C604 C603 1.403 . S
C604 C605 1.404 . S
C604 C607 1.539 . S
C605 C601 1.408 . S
C605 C604 1.404 . S
C605 H617 0.930 . S
C606 C602 1.524 . S
C606 H618 0.956 . S
C606 H619 0.961 1_556 S
C606 H620 0.961 . S
C607 C604 1.539 . S
C607 H621 0.958 . S
C607 H622 0.961 . S
C607 H623 0.960 1_556 S
H608 C592 0.931 . S
H609 C597 0.929 . S
H610 C598 0.960 . S
H611 C598 0.962 . S
H612 C598 0.960 . S
H613 C599 0.961 . S
H614 C599 0.961 . S
H615 C599 0.961 . S
H616 C600 0.931 . S
H617 C605 0.930 . S
H618 C606 0.956 . S
H619 C606 0.961 1_554 S
H620 C606 0.961 . S
H621 C607 0.958 . S
H622 C607 0.961 . S
H623 C607 0.960 1_554 S
C624 C625 1.391 . S
C624 C626 1.394 . S
C624 H640 0.931 . S
C625 C624 1.391 . S
C625 C629 1.376 . S
C626 C624 1.394 . S
C626 C627 1.369 . S
C626 C630 1.531 1_455 S
C627 C626 1.369 . S
C627 C628 1.410 . S
C627 C635 1.503 1_455 S
C628 C627 1.410 . S
C628 C629 1.392 . S
C628 C631 1.511 . S
C629 C625 1.376 . S
C629 C628 1.392 . S
C629 H641 0.929 . S
C630 C626 1.531 1_655 S
C630 H642 0.960 . S
C630 H643 0.962 . S
C630 H644 0.960 1_655 S
C631 C628 1.511 . S
C631 H645 0.961 . S
C631 H646 0.961 . S
C631 H647 0.961 . S
C632 C633 1.370 . S
C632 C634 1.363 . S
C632 H648 0.931 . S
C633 C632 1.370 . S
C633 C637 1.408 . S
C634 C632 1.363 . S
C634 C635 1.370 . S
C634 C638 1.524 . S
C635 C627 1.503 1_655 S
C635 C634 1.370 . S
C635 C636 1.403 . S
C636 C635 1.403 . S
C636 C637 1.404 . S
C636 C639 1.539 1_655 S
C637 C633 1.408 . S
C637 C636 1.404 . S
C637 H649 0.930 . S
C638 C634 1.524 . S
C638 H650 0.956 . S
C638 H651 0.961 . S
C638 H652 0.961 . S
C639 C636 1.539 1_455 S
C639 H653 0.958 . S
C639 H654 0.961 . S
C639 H655 0.960 . S
H640 C624 0.931 . S
H641 C629 0.929 . S
H642 C630 0.960 . S
H643 C630 0.962 . S
H644 C630 0.960 1_455 S
H645 C631 0.961 . S
H646 C631 0.961 . S
H647 C631 0.961 . S
H648 C632 0.931 . S
H649 C637 0.930 . S
H650 C638 0.956 . S
H651 C638 0.961 . S
H652 C638 0.961 . S
H653 C639 0.958 . S
H654 C639 0.961 . S
H655 C639 0.960 . S
C656 C657 1.391 . S
C656 C658 1.394 . S
C656 H672 0.931 . S
C657 C656 1.391 . S
C657 C661 1.376 . S
C658 C656 1.394 . S
C658 C659 1.369 . S
C658 C662 1.531 . S
C659 C658 1.369 . S
C659 C660 1.410 . S
C659 C667 1.503 1_454 S
C660 C659 1.410 . S
C660 C661 1.392 . S
C660 C663 1.511 1_455 S
C661 C657 1.376 . S
C661 C660 1.392 . S
C661 H673 0.929 . S
C662 C658 1.531 . S
C662 H674 0.958 1_454 S
C662 H675 0.962 1_554 S
C662 H676 0.960 . S
C663 C660 1.511 1_655 S
C663 H677 0.961 1_655 S
C663 H678 0.961 . S
C663 H679 0.961 . S
C664 C665 1.370 . S
C664 C666 1.363 . S
C664 H680 0.931 . S
C665 C664 1.370 . S
C665 C669 1.408 . S
C666 C664 1.363 . S
C666 C667 1.370 . S
C666 C670 1.524 1_655 S
C667 C659 1.503 1_656 S
C667 C666 1.370 . S
C667 C668 1.403 1_556 S
C668 C667 1.403 1_554 S
C668 C669 1.404 1_554 S
C668 C671 1.539 . S
C669 C665 1.408 . S
C669 C668 1.404 1_556 S
C669 H681 0.930 . S
C670 C666 1.524 1_455 S
C670 H682 0.956 . S
C670 H683 0.961 . S
C670 H684 0.961 . S
C671 C668 1.539 . S
C671 H685 0.958 . S
C671 H686 0.961 . S
C671 H687 0.960 . S
H672 C656 0.931 . S
H673 C661 0.929 . S
H674 C662 0.958 1_656 S
H675 C662 0.962 1_556 S
H676 C662 0.960 . S
H677 C663 0.961 1_455 S
H678 C663 0.961 . S
H679 C663 0.961 . S
H680 C664 0.931 . S
H681 C669 0.930 . S
H682 C670 0.956 . S
H683 C670 0.961 . S
H684 C670 0.961 . S
H685 C671 0.958 . S
H686 C671 0.961 . S
H687 C671 0.960 . S
C688 C689 1.391 . S
C688 C690 1.394 . S
C688 H704 0.931 . S
C689 C688 1.391 . S
C689 C693 1.376 . S
C690 C688 1.394 . S
C690 C691 1.369 . S
C690 C694 1.531 . S
C691 C690 1.369 . S
C691 C692 1.410 . S
C691 C699 1.503 . S
C692 C691 1.410 . S
C692 C693 1.392 . S
C692 C695 1.511 . S
C693 C689 1.376 . S
C693 C692 1.392 . S
C693 H705 0.929 . S
C694 C690 1.531 . S
C694 H706 0.960 . S
C694 H707 0.962 . S
C694 H708 0.960 . S
C695 C692 1.511 . S
C695 H709 0.961 . S
C695 H710 0.961 . S
C695 H711 0.961 . S
C696 C697 1.370 . S
C696 C698 1.363 . S
C696 H712 0.931 . S
C697 C696 1.370 . S
C697 C701 1.408 . S
C698 C696 1.363 . S
C698 C699 1.370 . S
C698 C702 1.524 . S
C699 C691 1.503 . S
C699 C698 1.370 . S
C699 C700 1.403 . S
C700 C699 1.403 . S
C700 C701 1.404 . S
C700 C703 1.539 . S
C701 C697 1.408 . S
C701 C700 1.404 . S
C701 H713 0.930 . S
C702 C698 1.524 . S
C702 H714 0.956 . S
C702 H715 0.961 . S
C702 H716 0.961 . S
C703 C700 1.539 . S
C703 H717 0.958 . S
C703 H718 0.961 . S
C703 H719 0.960 . S
H704 C688 0.931 . S
H705 C693 0.929 . S
H706 C694 0.960 . S
H707 C694 0.962 . S
H708 C694 0.960 . S
H709 C695 0.961 . S
H710 C695 0.961 . S
H711 C695 0.961 . S
H712 C696 0.931 . S
H713 C701 0.930 . S
H714 C702 0.956 . S
H715 C702 0.961 . S
H716 C702 0.961 . S
H717 C703 0.958 . S
H718 C703 0.961 . S
H719 C703 0.960 . S
C720 C721 1.391 . S
C720 C722 1.394 . S
C720 H736 0.931 . S
C721 C720 1.391 . S
C721 C725 1.376 . S
C722 C720 1.394 . S
C722 C723 1.369 . S
C722 C726 1.531 . S
C723 C722 1.369 . S
C723 C724 1.410 . S
C723 C731 1.503 . S
C724 C723 1.410 . S
C724 C725 1.392 . S
C724 C727 1.511 . S
C725 C721 1.376 . S
C725 C724 1.392 . S
C725 H737 0.929 . S
C726 C722 1.531 . S
C726 H738 0.960 . S
C726 H739 0.962 . S
C726 H740 0.960 . S
C727 C724 1.511 . S
C727 H741 0.961 . S
C727 H742 0.961 . S
C727 H743 0.961 . S
C728 C729 1.370 . S
C728 C730 1.363 . S
C728 H744 0.931 . S
C729 C728 1.370 . S
C729 C733 1.408 . S
C730 C728 1.363 . S
C730 C731 1.370 . S
C730 C734 1.524 . S
C731 C723 1.503 . S
C731 C730 1.370 . S
C731 C732 1.403 . S
C732 C731 1.403 . S
C732 C733 1.404 . S
C732 C735 1.539 1_554 S
C733 C729 1.408 . S
C733 C732 1.404 . S
C733 H745 0.930 1_554 S
C734 C730 1.524 . S
C734 H746 0.956 . S
C734 H747 0.961 . S
C734 H748 0.961 . S
C735 C732 1.539 1_556 S
C735 H749 0.958 . S
C735 H750 0.961 . S
C735 H751 0.963 . S
H736 C720 0.931 . S
H737 C725 0.929 . S
H738 C726 0.960 . S
H739 C726 0.962 . S
H740 C726 0.960 . S
H741 C727 0.961 . S
H742 C727 0.961 . S
H743 C727 0.961 . S
H744 C728 0.931 . S
H745 C733 0.930 1_556 S
H746 C734 0.956 . S
H747 C734 0.961 . S
H748 C734 0.961 . S
H749 C735 0.958 . S
H750 C735 0.961 . S
H751 C735 0.963 . S
C752 C753 1.391 . S
C752 C754 1.394 . S
C752 H768 0.931 . S
C753 C752 1.391 . S
C753 C757 1.376 . S
C754 C752 1.394 . S
C754 C755 1.369 . S
C754 C758 1.531 . S
C755 C754 1.369 . S
C755 C756 1.410 . S
C755 C763 1.503 . S
C756 C755 1.410 . S
C756 C757 1.392 . S
C756 C759 1.511 . S
C757 C753 1.376 . S
C757 C756 1.392 . S
C757 H769 0.929 . S
C758 C754 1.531 . S
C758 H770 0.960 . S
C758 H771 0.962 . S
C758 H772 0.960 . S
C759 C756 1.511 . S
C759 H773 0.961 . S
C759 H774 0.961 . S
C759 H775 0.961 . S
C760 C761 1.370 . S
C760 C762 1.363 . S
C760 H776 0.931 . S
C761 C760 1.370 . S
C761 C765 1.408 . S
C762 C760 1.363 . S
C762 C763 1.370 . S
C762 C766 1.524 . S
C763 C755 1.503 . S
C763 C762 1.370 . S
C763 C764 1.403 . S
C764 C763 1.403 . S
C764 C765 1.404 . S
C764 C767 1.539 . S
C765 C761 1.408 . S
C765 C764 1.404 . S
C765 H777 0.930 . S
C766 C762 1.524 . S
C766 H778 0.956 . S
C766 H779 0.961 . S
C766 H780 0.961 . S
C767 C764 1.539 . S
C767 H781 0.958 . S
C767 H782 0.961 . S
C767 H783 0.960 . S
H768 C752 0.931 . S
H769 C757 0.929 . S
H770 C758 0.960 . S
H771 C758 0.962 . S
H772 C758 0.960 . S
H773 C759 0.961 . S
H774 C759 0.961 . S
H775 C759 0.961 . S
H776 C760 0.931 . S
H777 C765 0.930 . S
H778 C766 0.956 . S
H779 C766 0.961 . S
H780 C766 0.961 . S
H781 C767 0.958 . S
H782 C767 0.961 . S
H783 C767 0.960 . S
C784 C785 1.391 . S
C784 C786 1.394 . S
C784 H800 0.931 . S
C785 C784 1.391 . S
C785 C789 1.376 . S
C786 C784 1.394 . S
C786 C787 1.369 . S
C786 C790 1.531 . S
C787 C786 1.369 . S
C787 C788 1.410 . S
C787 C795 1.503 . S
C788 C787 1.410 . S
C788 C789 1.392 . S
C788 C791 1.511 . S
C789 C785 1.376 . S
C789 C788 1.392 . S
C789 H801 0.929 . S
C790 C786 1.531 . S
C790 H802 0.960 . S
C790 H803 0.962 . S
C790 H804 0.960 . S
C791 C788 1.511 . S
C791 H805 0.961 . S
C791 H806 0.961 . S
C791 H807 0.961 . S
C792 C793 1.370 . S
C792 C794 1.363 . S
C792 H808 0.931 . S
C793 C792 1.370 . S
C793 C797 1.408 . S
C794 C792 1.363 . S
C794 C795 1.370 . S
C794 C798 1.524 . S
C795 C787 1.503 . S
C795 C794 1.370 . S
C795 C796 1.403 . S
C796 C795 1.403 . S
C796 C797 1.404 . S
C796 C799 1.539 . S
C797 C793 1.408 . S
C797 C796 1.404 . S
C797 H809 0.930 . S
C798 C794 1.524 . S
C798 H810 0.956 . S
C798 H811 0.961 . S
C798 H812 0.961 . S
C799 C796 1.539 . S
C799 H813 0.958 . S
C799 H814 0.961 . S
C799 H815 0.960 . S
H800 C784 0.931 . S
H801 C789 0.929 . S
H802 C790 0.960 . S
H803 C790 0.962 . S
H804 C790 0.960 . S
H805 C791 0.961 . S
H806 C791 0.961 . S
H807 C791 0.961 . S
H808 C792 0.931 . S
H809 C797 0.930 . S
H810 C798 0.956 . S
H811 C798 0.961 . S
H812 C798 0.961 . S
H813 C799 0.958 . S
H814 C799 0.961 . S
H815 C799 0.960 . S
C816 C817 1.391 . S
C816 C818 1.394 . S
C816 H832 0.931 . S
C817 C816 1.391 . S
C817 C821 1.376 . S
C818 C816 1.394 . S
C818 C819 1.369 . S
C818 C822 1.531 . S
C819 C818 1.369 . S
C819 C820 1.410 . S
C819 C827 1.503 . S
C820 C819 1.410 . S
C820 C821 1.392 . S
C820 C823 1.511 . S
C821 C817 1.376 . S
C821 C820 1.392 . S
C821 H833 0.929 . S
C822 C818 1.531 . S
C822 H834 0.960 . S
C822 H835 0.962 . S
C822 H836 0.960 . S
C823 C820 1.511 . S
C823 H837 0.961 . S
C823 H838 0.961 . S
C823 H839 0.961 . S
C824 C825 1.370 . S
C824 C826 1.363 . S
C824 H840 0.931 . S
C825 C824 1.370 . S
C825 C829 1.408 . S
C826 C824 1.363 . S
C826 C827 1.370 . S
C826 C830 1.524 . S
C827 C819 1.503 . S
C827 C826 1.370 . S
C827 C828 1.403 . S
C828 C827 1.403 . S
C828 C829 1.404 . S
C828 C831 1.539 . S
C829 C825 1.408 . S
C829 C828 1.404 . S
C829 H841 0.930 . S
C830 C826 1.524 . S
C830 H842 0.956 . S
C830 H843 0.961 . S
C830 H844 0.961 . S
C831 C828 1.539 . S
C831 H845 0.958 . S
C831 H846 0.961 1_556 S
C831 H847 0.960 1_556 S
H832 C816 0.931 . S
H833 C821 0.929 . S
H834 C822 0.960 . S
H835 C822 0.962 . S
H836 C822 0.960 . S
H837 C823 0.961 . S
H838 C823 0.961 . S
H839 C823 0.961 . S
H840 C824 0.931 . S
H841 C829 0.930 . S
H842 C830 0.956 . S
H843 C830 0.961 . S
H844 C830 0.961 . S
H845 C831 0.958 . S
H846 C831 0.961 1_554 S
H847 C831 0.960 1_554 S
C848 C849 1.391 . S
C848 C850 1.394 . S
C848 H864 0.931 . S
C849 C848 1.391 . S
C849 C853 1.376 . S
C850 C848 1.394 . S
C850 C851 1.369 . S
C850 C854 1.531 . S
C851 C850 1.369 . S
C851 C852 1.410 . S
C851 C859 1.503 . S
C852 C851 1.410 . S
C852 C853 1.392 . S
C852 C855 1.511 . S
C853 C849 1.376 . S
C853 C852 1.392 . S
C853 H865 0.929 . S
C854 C850 1.531 . S
C854 H866 0.960 . S
C854 H867 0.962 . S
C854 H868 0.960 . S
C855 C852 1.511 . S
C855 H869 0.961 . S
C855 H870 0.961 . S
C855 H871 0.961 . S
C856 C857 1.370 . S
C856 C858 1.363 . S
C856 H872 0.931 . S
C857 C856 1.370 . S
C857 C861 1.408 . S
C858 C856 1.363 . S
C858 C859 1.370 . S
C858 C862 1.524 . S
C859 C851 1.503 . S
C859 C858 1.370 . S
C859 C860 1.403 . S
C860 C859 1.403 . S
C860 C861 1.404 . S
C860 C863 1.539 . S
C861 C857 1.408 . S
C861 C860 1.404 . S
C861 H873 0.930 . S
C862 C858 1.524 . S
C862 H874 0.956 . S
C862 H875 0.961 . S
C862 H876 0.961 . S
C863 C860 1.539 . S
C863 H877 0.958 . S
C863 H878 0.961 . S
C863 H879 0.960 . S
H864 C848 0.931 . S
H865 C853 0.929 . S
H866 C854 0.960 . S
H867 C854 0.962 . S
H868 C854 0.960 . S
H869 C855 0.961 . S
H870 C855 0.961 . S
H871 C855 0.961 . S
H872 C856 0.931 . S
H873 C861 0.930 . S
H874 C862 0.956 . S
H875 C862 0.961 . S
H876 C862 0.961 . S
H877 C863 0.958 . S
H878 C863 0.961 . S
H879 C863 0.960 . S
C880 C881 1.391 . S
C880 C882 1.394 . S
C880 H896 0.931 . S
C881 C880 1.391 . S
C881 C885 1.376 . S
C882 C880 1.394 . S
C882 C883 1.369 . S
C882 C886 1.531 . S
C883 C882 1.369 . S
C883 C884 1.410 . S
C883 C891 1.503 . S
C884 C883 1.410 . S
C884 C885 1.392 . S
C884 C887 1.511 . S
C885 C881 1.376 . S
C885 C884 1.392 . S
C885 H897 0.929 . S
C886 C882 1.531 . S
C886 H898 0.960 . S
C886 H899 0.962 . S
C886 H900 0.960 . S
C887 C884 1.511 . S
C887 H901 0.961 . S
C887 H902 0.961 . S
C887 H903 0.961 . S
C888 C889 1.370 . S
C888 C890 1.363 . S
C888 H904 0.931 . S
C889 C888 1.370 . S
C889 C893 1.408 . S
C890 C888 1.363 . S
C890 C891 1.370 . S
C890 C894 1.524 . S
C891 C883 1.503 . S
C891 C890 1.370 . S
C891 C892 1.403 . S
C892 C891 1.403 . S
C892 C893 1.404 . S
C892 C895 1.539 . S
C893 C889 1.408 . S
C893 C892 1.404 . S
C893 H905 0.930 . S
C894 C890 1.524 . S
C894 H906 0.956 . S
C894 H907 0.961 . S
C894 H908 0.961 . S
C895 C892 1.539 . S
C895 H909 0.958 . S
C895 H910 0.961 . S
C895 H911 0.960 . S
H896 C880 0.931 . S
H897 C885 0.929 . S
H898 C886 0.960 . S
H899 C886 0.962 . S
H900 C886 0.960 . S
H901 C887 0.961 . S
H902 C887 0.961 . S
H903 C887 0.961 . S
H904 C888 0.931 . S
H905 C893 0.930 . S
H906 C894 0.956 . S
H907 C894 0.961 . S
H908 C894 0.961 . S
H909 C895 0.958 . S
H910 C895 0.961 . S
H911 C895 0.960 . S
C912 C913 1.391 . S
C912 C914 1.394 . S
C912 H928 0.931 . S
C913 C912 1.391 . S
C913 C917 1.376 . S
C914 C912 1.394 . S
C914 C915 1.369 . S
C914 C918 1.531 . S
C915 C914 1.369 . S
C915 C916 1.410 . S
C915 C923 1.503 . S
C916 C915 1.410 . S
C916 C917 1.392 . S
C916 C919 1.511 . S
C917 C913 1.376 . S
C917 C916 1.392 . S
C917 H929 0.929 . S
C918 C914 1.531 . S
C918 H930 0.960 . S
C918 H931 0.962 . S
C918 H932 0.960 . S
C919 C916 1.511 . S
C919 H933 0.961 . S
C919 H934 0.961 . S
C919 H935 0.961 . S
C920 C921 1.370 . S
C920 C922 1.363 . S
C920 H936 0.931 . S
C921 C920 1.370 . S
C921 C925 1.408 . S
C922 C920 1.363 . S
C922 C923 1.370 . S
C922 C926 1.524 . S
C923 C915 1.503 . S
C923 C922 1.370 . S
C923 C924 1.403 . S
C924 C923 1.403 . S
C924 C925 1.404 . S
C924 C927 1.539 . S
C925 C921 1.408 . S
C925 C924 1.404 . S
C925 H937 0.930 . S
C926 C922 1.524 . S
C926 H938 0.956 . S
C926 H939 0.961 . S
C926 H940 0.961 . S
C927 C924 1.539 . S
C927 H941 0.958 . S
C927 H942 0.961 . S
C927 H943 0.960 . S
H928 C912 0.931 . S
H929 C917 0.929 . S
H930 C918 0.960 . S
H931 C918 0.962 . S
H932 C918 0.960 . S
H933 C919 0.961 . S
H934 C919 0.961 . S
H935 C919 0.961 . S
H936 C920 0.931 . S
H937 C925 0.930 . S
H938 C926 0.956 . S
H939 C926 0.961 . S
H940 C926 0.961 . S
H941 C927 0.958 . S
H942 C927 0.961 . S
H943 C927 0.960 . S
C944 C945 1.391 . S
C944 C946 1.394 . S
C944 H960 0.931 . S
C945 C944 1.391 . S
C945 C949 1.376 . S
C946 C944 1.394 . S
C946 C947 1.369 . S
C946 C950 1.531 . S
C947 C946 1.369 . S
C947 C948 1.410 . S
C947 C955 1.503 . S
C948 C947 1.410 . S
C948 C949 1.392 . S
C948 C951 1.511 . S
C949 C945 1.376 . S
C949 C948 1.392 . S
C949 H961 0.929 1_554 S
C950 C946 1.531 . S
C950 H962 0.960 . S
C950 H963 0.962 . S
C950 H964 0.960 . S
C951 C948 1.511 . S
C951 H965 0.961 . S
C951 H966 0.961 . S
C951 H967 0.961 1_554 S
C952 C953 1.370 . S
C952 C954 1.363 . S
C952 H968 0.931 . S
C953 C952 1.370 . S
C953 C957 1.408 . S
C954 C952 1.363 . S
C954 C955 1.370 . S
C954 C958 1.524 . S
C955 C947 1.503 . S
C955 C954 1.370 . S
C955 C956 1.403 . S
C956 C955 1.403 . S
C956 C957 1.404 . S
C956 C959 1.539 . S
C957 C953 1.408 . S
C957 C956 1.404 . S
C957 H969 0.930 . S
C958 C954 1.524 . S
C958 H970 0.956 . S
C958 H971 0.961 . S
C958 H972 0.961 . S
C959 C956 1.539 . S
C959 H973 0.958 . S
C959 H974 0.961 . S
C959 H975 0.960 . S
H960 C944 0.931 . S
H961 C949 0.929 1_556 S
H962 C950 0.960 . S
H963 C950 0.962 . S
H964 C950 0.960 . S
H965 C951 0.961 . S
H966 C951 0.961 . S
H967 C951 0.961 1_556 S
H968 C952 0.931 . S
H969 C957 0.930 . S
H970 C958 0.956 . S
H971 C958 0.961 . S
H972 C958 0.961 . S
H973 C959 0.958 . S
H974 C959 0.961 . S
H975 C959 0.960 . S
C976 C977 1.391 . S
C976 C978 1.394 . S
C976 H992 0.931 . S
C977 C976 1.391 . S
C977 C981 1.376 . S
C978 C976 1.394 . S
C978 C979 1.369 . S
C978 C982 1.531 . S
C979 C978 1.369 . S
C979 C980 1.410 . S
C979 C987 1.503 . S
C980 C979 1.410 . S
C980 C981 1.392 . S
C980 C983 1.511 . S
C981 C977 1.376 . S
C981 C980 1.392 . S
C981 H993 0.929 1_556 S
C982 C978 1.531 . S
C982 H994 0.960 . S
C982 H995 0.962 . S
C982 H996 0.960 . S
C983 C980 1.511 . S
C983 H997 0.961 1_556 S
C983 H998 0.961 . S
C983 H999 0.961 . S
C984 C985 1.370 . S
C984 C986 1.363 . S
C984 H1000 0.931 . S
C985 C984 1.370 . S
C985 C989 1.408 . S
C986 C984 1.363 . S
C986 C987 1.370 . S
C986 C990 1.524 . S
C987 C979 1.503 . S
C987 C986 1.370 . S
C987 C988 1.403 . S
C988 C987 1.403 . S
C988 C989 1.404 . S
C988 C991 1.539 . S
C989 C985 1.408 . S
C989 C988 1.404 . S
C989 H1001 0.930 . S
C990 C986 1.524 . S
C990 H1002 0.956 . S
C990 H1003 0.961 . S
C990 H1004 0.961 . S
C991 C988 1.539 . S
C991 H1005 0.958 . S
C991 H1006 0.961 . S
C991 H1007 0.960 . S
H992 C976 0.931 . S
H993 C981 0.929 1_554 S
H994 C982 0.960 . S
H995 C982 0.962 . S
H996 C982 0.960 . S
H997 C983 0.961 1_554 S
H998 C983 0.961 . S
H999 C983 0.961 . S
H1000 C984 0.931 . S
H1001 C989 0.930 . S
H1002 C990 0.956 . S
H1003 C990 0.961 . S
H1004 C990 0.961 . S
H1005 C991 0.958 . S
H1006 C991 0.961 . S
H1007 C991 0.960 . S
C1008 C1009 1.391 . S
C1008 C1010 1.394 . S
C1008 H1024 0.931 . S
C1009 C1008 1.391 . S
C1009 C1013 1.376 . S
C1010 C1008 1.394 . S
C1010 C1011 1.369 . S
C1010 C1014 1.531 . S
C1011 C1010 1.369 . S
C1011 C1012 1.410 . S
C1011 C1019 1.503 . S
C1012 C1011 1.410 . S
C1012 C1013 1.392 . S
C1012 C1015 1.511 . S
C1013 C1009 1.376 . S
C1013 C1012 1.392 . S
C1013 H1025 0.929 . S
C1014 C1010 1.531 . S
C1014 H1026 0.960 . S
C1014 H1027 0.962 . S
C1014 H1028 0.960 . S
C1015 C1012 1.511 . S
C1015 H1029 0.961 . S
C1015 H1030 0.961 . S
C1015 H1031 0.961 . S
C1016 C1017 1.370 . S
C1016 C1018 1.363 . S
C1016 H1032 0.931 . S
C1017 C1016 1.370 . S
C1017 C1021 1.408 . S
C1018 C1016 1.363 . S
C1018 C1019 1.370 . S
C1018 C1022 1.524 . S
C1019 C1011 1.503 . S
C1019 C1018 1.370 . S
C1019 C1020 1.403 . S
C1020 C1019 1.403 . S
C1020 C1021 1.404 . S
C1020 C1023 1.539 . S
C1021 C1017 1.408 . S
C1021 C1020 1.404 . S
C1021 H1033 0.930 . S
C1022 C1018 1.524 . S
C1022 H1034 0.956 . S
C1022 H1035 0.961 . S
C1022 H1036 0.961 . S
C1023 C1020 1.539 . S
C1023 H1037 0.958 . S
C1023 H1038 0.961 . S
C1023 H1039 0.960 . S
H1024 C1008 0.931 . S
H1025 C1013 0.929 . S
H1026 C1014 0.960 . S
H1027 C1014 0.962 . S
H1028 C1014 0.960 . S
H1029 C1015 0.961 . S
H1030 C1015 0.961 . S
H1031 C1015 0.961 . S
H1032 C1016 0.931 . S
H1033 C1021 0.930 . S
H1034 C1022 0.956 . S
H1035 C1022 0.961 . S
H1036 C1022 0.961 . S
H1037 C1023 0.958 . S
H1038 C1023 0.961 . S
H1039 C1023 0.960 . S
C1040 C1041 1.391 . S
C1040 C1042 1.394 . S
C1040 H1056 0.931 . S
C1041 C1040 1.391 . S
C1041 C1045 1.376 . S
C1042 C1040 1.394 . S
C1042 C1043 1.369 . S
C1042 C1046 1.531 . S
C1043 C1042 1.369 . S
C1043 C1044 1.410 . S
C1043 C1051 1.503 . S
C1044 C1043 1.410 . S
C1044 C1045 1.392 . S
C1044 C1047 1.511 . S
C1045 C1041 1.376 . S
C1045 C1044 1.392 . S
C1045 H1057 0.929 . S
C1046 C1042 1.531 . S
C1046 H1058 0.960 . S
C1046 H1059 0.962 . S
C1046 H1060 0.960 . S
C1047 C1044 1.511 . S
C1047 H1061 0.961 . S
C1047 H1062 0.961 . S
C1047 H1063 0.961 . S
C1048 C1049 1.370 . S
C1048 C1050 1.363 . S
C1048 H1064 0.931 . S
C1049 C1048 1.370 . S
C1049 C1053 1.408 . S
C1050 C1048 1.363 . S
C1050 C1051 1.370 . S
C1050 C1054 1.524 . S
C1051 C1043 1.503 . S
C1051 C1050 1.370 . S
C1051 C1052 1.403 . S
C1052 C1051 1.403 . S
C1052 C1053 1.404 . S
C1052 C1055 1.539 . S
C1053 C1049 1.408 . S
C1053 C1052 1.404 . S
C1053 H1065 0.930 . S
C1054 C1050 1.524 . S
C1054 H1066 0.956 . S
C1054 H1067 0.961 . S
C1054 H1068 0.961 . S
C1055 C1052 1.539 . S
C1055 H1069 0.958 . S
C1055 H1070 0.961 . S
C1055 H1071 0.960 . S
H1056 C1040 0.931 . S
H1057 C1045 0.929 . S
H1058 C1046 0.960 . S
H1059 C1046 0.962 . S
H1060 C1046 0.960 . S
H1061 C1047 0.961 . S
H1062 C1047 0.961 . S
H1063 C1047 0.961 . S
H1064 C1048 0.931 . S
H1065 C1053 0.930 . S
H1066 C1054 0.956 . S
H1067 C1054 0.961 . S
H1068 C1054 0.961 . S
H1069 C1055 0.958 . S
H1070 C1055 0.961 . S
H1071 C1055 0.960 . S
C1072 C1073 1.391 . S
C1072 C1074 1.394 . S
C1072 H1088 0.931 . S
C1073 C1072 1.391 . S
C1073 C1077 1.376 . S
C1074 C1072 1.394 . S
C1074 C1075 1.369 . S
C1074 C1078 1.531 . S
C1075 C1074 1.369 . S
C1075 C1076 1.410 . S
C1075 C1083 1.503 . S
C1076 C1075 1.410 . S
C1076 C1077 1.392 . S
C1076 C1079 1.511 . S
C1077 C1073 1.376 . S
C1077 C1076 1.392 . S
C1077 H1089 0.929 . S
C1078 C1074 1.531 . S
C1078 H1090 0.960 . S
C1078 H1091 0.962 . S
C1078 H1092 0.960 . S
C1079 C1076 1.511 . S
C1079 H1093 0.961 . S
C1079 H1094 0.961 . S
C1079 H1095 0.961 . S
C1080 C1081 1.370 . S
C1080 C1082 1.363 . S
C1080 H1096 0.931 1_554 S
C1081 C1080 1.370 . S
C1081 C1085 1.408 . S
C1082 C1080 1.363 . S
C1082 C1083 1.370 . S
C1082 C1086 1.524 . S
C1083 C1075 1.503 . S
C1083 C1082 1.370 . S
C1083 C1084 1.403 . S
C1084 C1083 1.403 . S
C1084 C1085 1.404 . S
C1084 C1087 1.539 . S
C1085 C1081 1.408 . S
C1085 C1084 1.404 . S
C1085 H1097 0.930 . S
C1086 C1082 1.524 . S
C1086 H1098 0.956 . S
C1086 H1099 0.961 . S
C1086 H1100 0.961 1_554 S
C1087 C1084 1.539 . S
C1087 H1101 0.958 . S
C1087 H1102 0.961 . S
C1087 H1103 0.960 . S
H1088 C1072 0.931 . S
H1089 C1077 0.929 . S
H1090 C1078 0.960 . S
H1091 C1078 0.962 . S
H1092 C1078 0.960 . S
H1093 C1079 0.961 . S
H1094 C1079 0.961 . S
H1095 C1079 0.961 . S
H1096 C1080 0.931 1_556 S
H1097 C1085 0.930 . S
H1098 C1086 0.956 . S
H1099 C1086 0.961 . S
H1100 C1086 0.961 1_556 S
H1101 C1087 0.958 . S
H1102 C1087 0.961 . S
H1103 C1087 0.960 . S
C1104 C1105 1.391 . S
C1104 C1106 1.394 . S
C1104 H1120 0.931 . S
C1105 C1104 1.391 . S
C1105 C1109 1.376 . S
C1106 C1104 1.394 . S
C1106 C1107 1.369 . S
C1106 C1110 1.531 . S
C1107 C1106 1.369 . S
C1107 C1108 1.410 . S
C1107 C1115 1.503 . S
C1108 C1107 1.410 . S
C1108 C1109 1.392 . S
C1108 C1111 1.511 . S
C1109 C1105 1.376 . S
C1109 C1108 1.392 . S
C1109 H1121 0.929 . S
C1110 C1106 1.531 . S
C1110 H1122 0.960 . S
C1110 H1123 0.962 . S
C1110 H1124 0.960 . S
C1111 C1108 1.511 . S
C1111 H1125 0.961 . S
C1111 H1126 0.961 . S
C1111 H1127 0.961 . S
C1112 C1113 1.370 . S
C1112 C1114 1.363 . S
C1112 H1128 0.931 . S
C1113 C1112 1.370 . S
C1113 C1117 1.408 . S
C1114 C1112 1.363 . S
C1114 C1115 1.370 . S
C1114 C1118 1.524 . S
C1115 C1107 1.503 . S
C1115 C1114 1.370 . S
C1115 C1116 1.403 . S
C1116 C1115 1.403 . S
C1116 C1117 1.404 . S
C1116 C1119 1.539 . S
C1117 C1113 1.408 . S
C1117 C1116 1.404 . S
C1117 H1129 0.930 . S
C1118 C1114 1.524 . S
C1118 H1130 0.956 . S
C1118 H1131 0.961 . S
C1118 H1132 0.961 . S
C1119 C1116 1.539 . S
C1119 H1133 0.958 . S
C1119 H1134 0.961 . S
C1119 H1135 0.960 . S
H1120 C1104 0.931 . S
H1121 C1109 0.929 . S
H1122 C1110 0.960 . S
H1123 C1110 0.962 . S
H1124 C1110 0.960 . S
H1125 C1111 0.961 . S
H1126 C1111 0.961 . S
H1127 C1111 0.961 . S
H1128 C1112 0.931 . S
H1129 C1117 0.930 . S
H1130 C1118 0.956 . S
H1131 C1118 0.961 . S
H1132 C1118 0.961 . S
H1133 C1119 0.958 . S
H1134 C1119 0.961 . S
H1135 C1119 0.960 . S
C1136 C1137 1.391 . S
C1136 C1138 1.394 . S
C1136 H1152 0.931 . S
C1137 C1136 1.391 . S
C1137 C1141 1.376 . S
C1138 C1136 1.394 . S
C1138 C1139 1.369 . S
C1138 C1142 1.531 . S
C1139 C1138 1.369 . S
C1139 C1140 1.410 . S
C1139 C1147 1.503 . S
C1140 C1139 1.410 . S
C1140 C1141 1.392 . S
C1140 C1143 1.511 . S
C1141 C1137 1.376 . S
C1141 C1140 1.392 . S
C1141 H1153 0.929 . S
C1142 C1138 1.531 . S
C1142 H1154 0.960 . S
C1142 H1155 0.962 . S
C1142 H1156 0.960 . S
C1143 C1140 1.511 . S
C1143 H1157 0.961 . S
C1143 H1158 0.961 . S
C1143 H1159 0.961 . S
C1144 C1145 1.370 . S
C1144 C1146 1.363 . S
C1144 H1160 0.931 . S
C1145 C1144 1.370 . S
C1145 C1149 1.408 . S
C1146 C1144 1.363 . S
C1146 C1147 1.370 . S
C1146 C1150 1.524 . S
C1147 C1139 1.503 . S
C1147 C1146 1.370 . S
C1147 C1148 1.403 . S
C1148 C1147 1.403 . S
C1148 C1149 1.404 . S
C1148 C1151 1.539 . S
C1149 C1145 1.408 . S
C1149 C1148 1.404 . S
C1149 H1161 0.930 . S
C1150 C1146 1.524 . S
C1150 H1162 0.956 . S
C1150 H1163 0.961 . S
C1150 H1164 0.961 . S
C1151 C1148 1.539 . S
C1151 H1165 0.958 . S
C1151 H1166 0.961 . S
C1151 H1167 0.960 . S
H1152 C1136 0.931 . S
H1153 C1141 0.929 . S
H1154 C1142 0.960 . S
H1155 C1142 0.962 . S
H1156 C1142 0.960 . S
H1157 C1143 0.961 . S
H1158 C1143 0.961 . S
H1159 C1143 0.961 . S
H1160 C1144 0.931 . S
H1161 C1149 0.930 . S
H1162 C1150 0.956 . S
H1163 C1150 0.961 . S
H1164 C1150 0.961 . S
H1165 C1151 0.958 . S
H1166 C1151 0.961 . S
H1167 C1151 0.960 . S
C1168 C1169 1.391 . S
C1168 C1170 1.394 . S
C1168 H1184 0.931 . S
C1169 C1168 1.391 . S
C1169 C1173 1.376 . S
C1170 C1168 1.394 . S
C1170 C1171 1.369 . S
C1170 C1174 1.531 . S
C1171 C1170 1.369 . S
C1171 C1172 1.410 . S
C1171 C1179 1.503 . S
C1172 C1171 1.410 . S
C1172 C1173 1.392 . S
C1172 C1175 1.511 . S
C1173 C1169 1.376 . S
C1173 C1172 1.392 . S
C1173 H1185 0.929 . S
C1174 C1170 1.531 . S
C1174 H1186 0.960 . S
C1174 H1187 0.962 . S
C1174 H1188 0.960 . S
C1175 C1172 1.511 . S
C1175 H1189 0.961 . S
C1175 H1190 0.961 . S
C1175 H1191 0.961 . S
C1176 C1177 1.370 . S
C1176 C1178 1.363 . S
C1176 H1192 0.931 1_554 S
C1177 C1176 1.370 . S
C1177 C1181 1.408 . S
C1178 C1176 1.363 . S
C1178 C1179 1.370 . S
C1178 C1182 1.524 . S
C1179 C1171 1.503 . S
C1179 C1178 1.370 . S
C1179 C1180 1.403 . S
C1180 C1179 1.403 . S
C1180 C1181 1.404 . S
C1180 C1183 1.539 . S
C1181 C1177 1.408 . S
C1181 C1180 1.404 . S
C1181 H1193 0.930 . S
C1182 C1178 1.524 . S
C1182 H1194 0.956 . S
C1182 H1195 0.961 . S
C1182 H1196 0.961 1_554 S
C1183 C1180 1.539 . S
C1183 H1197 0.958 . S
C1183 H1198 0.961 . S
C1183 H1199 0.960 . S
H1184 C1168 0.931 . S
H1185 C1173 0.929 . S
H1186 C1174 0.960 . S
H1187 C1174 0.962 . S
H1188 C1174 0.960 . S
H1189 C1175 0.961 . S
H1190 C1175 0.961 . S
H1191 C1175 0.961 . S
H1192 C1176 0.931 1_556 S
H1193 C1181 0.930 . S
H1194 C1182 0.956 . S
H1195 C1182 0.961 . S
H1196 C1182 0.961 1_556 S
H1197 C1183 0.958 . S
H1198 C1183 0.961 . S
H1199 C1183 0.960 . S
C1200 C1201 1.391 . S
C1200 C1202 1.394 . S
C1200 H1216 0.931 . S
C1201 C1200 1.391 . S
C1201 C1205 1.376 . S
C1202 C1200 1.394 . S
C1202 C1203 1.369 . S
C1202 C1206 1.531 . S
C1203 C1202 1.369 . S
C1203 C1204 1.410 . S
C1203 C1211 1.503 . S
C1204 C1203 1.410 . S
C1204 C1205 1.392 . S
C1204 C1207 1.511 . S
C1205 C1201 1.376 . S
C1205 C1204 1.392 . S
C1205 H1217 0.929 . S
C1206 C1202 1.531 . S
C1206 H1218 0.960 . S
C1206 H1219 0.962 . S
C1206 H1220 0.960 . S
C1207 C1204 1.511 . S
C1207 H1221 0.961 . S
C1207 H1222 0.961 . S
C1207 H1223 0.961 . S
C1208 C1209 1.370 . S
C1208 C1210 1.363 . S
C1208 H1224 0.931 . S
C1209 C1208 1.370 . S
C1209 C1213 1.408 . S
C1210 C1208 1.363 . S
C1210 C1211 1.370 . S
C1210 C1214 1.524 . S
C1211 C1203 1.503 . S
C1211 C1210 1.370 . S
C1211 C1212 1.403 . S
C1212 C1211 1.403 . S
C1212 C1213 1.404 . S
C1212 C1215 1.539 . S
C1213 C1209 1.408 . S
C1213 C1212 1.404 . S
C1213 H1225 0.930 . S
C1214 C1210 1.524 . S
C1214 H1226 0.956 . S
C1214 H1227 0.961 . S
C1214 H1228 0.961 . S
C1215 C1212 1.539 . S
C1215 H1229 0.958 . S
C1215 H1230 0.961 . S
C1215 H1231 0.960 . S
H1216 C1200 0.931 . S
H1217 C1205 0.929 . S
H1218 C1206 0.960 . S
H1219 C1206 0.962 . S
H1220 C1206 0.960 . S
H1221 C1207 0.961 . S
H1222 C1207 0.961 . S
H1223 C1207 0.961 . S
H1224 C1208 0.931 . S
H1225 C1213 0.930 . S
H1226 C1214 0.956 . S
H1227 C1214 0.961 . S
H1228 C1214 0.961 . S
H1229 C1215 0.958 . S
H1230 C1215 0.961 . S
H1231 C1215 0.960 . S
C209 C5 1.460 . S
C217 C161 1.460 . S
C241 C16 1.458 . S
C249 C70 1.463 . S
C273 C31 1.455 . S
C281 C187 1.465 . S
C305 C96 1.453 . S
C313 C44 1.465 1_565 S
C337 C185 1.453 . S
C345 C29 1.464 . S
C369 C94 1.452 . S
C377 C42 1.465 . S
C401 C159 1.453 . S
C409 C3 1.467 . S
C433 C68 1.463 1_565 S
C441 C18 1.461 1_565 S
C465 C55 1.453 . S
C473 C109 1.466 . S
C497 C83 1.453 . S
C505 C135 1.464 . S
C529 C133 1.458 . S
C537 C81 1.465 . S
C561 C57 1.456 . S
C569 C107 1.462 . S
C593 C172 1.462 . S
C601 C120 1.462 . S
C625 C146 1.465 . S
C633 C198 1.460 . S
C657 C148 1.453 . S
C665 C200 1.465 . S
C689 C122 1.461 . S
C697 C174 1.461 . S
C721 C153 1.548 . S
C729 C10 1.554 . S
C753 C108 1.552 . S
C761 C17 1.558 . S
C785 C36 1.548 . S
C793 C127 1.555 . S
C817 C134 1.552 . S
C825 C49 1.550 . S
C849 C147 1.550 . S
C857 C30 1.554 . S
C881 C43 1.551 . S
C889 C114 1.558 . S
C913 C121 1.552 . S
C921 C4 1.555 . S
C945 C140 1.552 . S
C953 C23 1.549 . S
C977 C56 1.549 . S
C985 C205 1.555 . S
C1009 C160 1.550 . S
C1017 C75 1.550 . S
C1041 C88 1.549 . S
C1049 C179 1.555 . S
C1073 C101 1.552 . S
C1081 C186 1.557 . S
C1105 C82 1.552 . S
C1113 C199 1.554 . S
C1137 C166 1.551 . S
C1145 C95 1.551 . S
C1169 C173 1.552 . S
C1177 C62 1.553 . S
C1201 C192 1.548 . S
C1209 C69 1.560 . S
