# Generated by pormake.
# Topology uou, (4)-cn, num edge types: 1
# Building blocks:
#     Node 0, Type 0, BuildingBlock: UXUYUI_clean_sbu_0, # of connection points: 4
#     Node 1, Type 0, BuildingBlock: UXUYUI_clean_sbu_0, # of connection points: 4
#     Node 2, Type 0, BuildingBlock: UXUYUI_clean_sbu_0, # of connection points: 4
#     Node 3, Type 0, BuildingBlock: UXUYUI_clean_sbu_0, # of connection points: 4
#     Node 4, Type 0, BuildingBlock: UXUYUI_clean_sbu_0, # of connection points: 4
#     Node 5, Type 0, BuildingBlock: UXUYUI_clean_sbu_0, # of connection points: 4
#     Node 6, Type 0, BuildingBlock: UXUYUI_clean_sbu_0, # of connection points: 4
#     Node 7, Type 0, BuildingBlock: UXUYUI_clean_sbu_0, # of connection points: 4
#     Node 8, Type 0, BuildingBlock: UXUYUI_clean_sbu_0, # of connection points: 4
#     Node 9, Type 0, BuildingBlock: UXUYUI_clean_sbu_0, # of connection points: 4
#     Node 10, Type 0, BuildingBlock: UXUYUI_clean_sbu_0, # of connection points: 4
#     Node 11, Type 0, BuildingBlock: UXUYUI_clean_sbu_0, # of connection points: 4
#     Node 12, Type 0, BuildingBlock: UXUYUI_clean_sbu_0, # of connection points: 4
#     Node 13, Type 0, BuildingBlock: UXUYUI_clean_sbu_0, # of connection points: 4
#     Node 14, Type 0, BuildingBlock: UXUYUI_clean_sbu_0, # of connection points: 4
#     Node 15, Type 0, BuildingBlock: UXUYUI_clean_sbu_0, # of connection points: 4
#     Edge 16, Type (0, 0), BuildingBlock: UVAHIK_clean_linker_0, # of connection points: 2
#     Edge 17, Type (0, 0), BuildingBlock: UVAHIK_clean_linker_0, # of connection points: 2
#     Edge 18, Type (0, 0), BuildingBlock: UVAHIK_clean_linker_0, # of connection points: 2
#     Edge 19, Type (0, 0), BuildingBlock: UVAHIK_clean_linker_0, # of connection points: 2
#     Edge 20, Type (0, 0), BuildingBlock: UVAHIK_clean_linker_0, # of connection points: 2
#     Edge 21, Type (0, 0), BuildingBlock: UVAHIK_clean_linker_0, # of connection points: 2
#     Edge 22, Type (0, 0), BuildingBlock: UVAHIK_clean_linker_0, # of connection points: 2
#     Edge 23, Type (0, 0), BuildingBlock: UVAHIK_clean_linker_0, # of connection points: 2
#     Edge 24, Type (0, 0), BuildingBlock: UVAHIK_clean_linker_0, # of connection points: 2
#     Edge 25, Type (0, 0), BuildingBlock: UVAHIK_clean_linker_0, # of connection points: 2
#     Edge 26, Type (0, 0), BuildingBlock: UVAHIK_clean_linker_0, # of connection points: 2
#     Edge 27, Type (0, 0), BuildingBlock: UVAHIK_clean_linker_0, # of connection points: 2
#     Edge 28, Type (0, 0), BuildingBlock: UVAHIK_clean_linker_0, # of connection points: 2
#     Edge 29, Type (0, 0), BuildingBlock: UVAHIK_clean_linker_0, # of connection points: 2
#     Edge 30, Type (0, 0), BuildingBlock: UVAHIK_clean_linker_0, # of connection points: 2
#     Edge 31, Type (0, 0), BuildingBlock: UVAHIK_clean_linker_0, # of connection points: 2
#     Edge 32, Type (0, 0), BuildingBlock: UVAHIK_clean_linker_0, # of connection points: 2
#     Edge 33, Type (0, 0), BuildingBlock: UVAHIK_clean_linker_0, # of connection points: 2
#     Edge 34, Type (0, 0), BuildingBlock: UVAHIK_clean_linker_0, # of connection points: 2
#     Edge 35, Type (0, 0), BuildingBlock: UVAHIK_clean_linker_0, # of connection points: 2
#     Edge 36, Type (0, 0), BuildingBlock: UVAHIK_clean_linker_0, # of connection points: 2
#     Edge 37, Type (0, 0), BuildingBlock: UVAHIK_clean_linker_0, # of connection points: 2
#     Edge 38, Type (0, 0), BuildingBlock: UVAHIK_clean_linker_0, # of connection points: 2
#     Edge 39, Type (0, 0), BuildingBlock: UVAHIK_clean_linker_0, # of connection points: 2
#     Edge 40, Type (0, 0), BuildingBlock: UVAHIK_clean_linker_0, # of connection points: 2
#     Edge 41, Type (0, 0), BuildingBlock: UVAHIK_clean_linker_0, # of connection points: 2
#     Edge 42, Type (0, 0), BuildingBlock: UVAHIK_clean_linker_0, # of connection points: 2
#     Edge 43, Type (0, 0), BuildingBlock: UVAHIK_clean_linker_0, # of connection points: 2
#     Edge 44, Type (0, 0), BuildingBlock: UVAHIK_clean_linker_0, # of connection points: 2
#     Edge 45, Type (0, 0), BuildingBlock: UVAHIK_clean_linker_0, # of connection points: 2
#     Edge 46, Type (0, 0), BuildingBlock: UVAHIK_clean_linker_0, # of connection points: 2
#     Edge 47, Type (0, 0), BuildingBlock: UVAHIK_clean_linker_0, # of connection points: 2
# Relax obj value: 0.194
# Max RMSD: 0.198
# Mean RMSD: 0.197
data_MOF--net-uou--node1-UXUYUI_clean_sbu_0--edge1-UVAHIK_clean_linker_0
_symmetry_space_group_name_H-M    P1
_symmetry_Int_Tables_number       1
_symmetry_cell_setting            triclinic
loop_
_symmetry_equiv_pos_as_xyz
'x, y, z'
_cell_length_a     68.283923
_cell_length_b     66.096641
_cell_length_c     93.382599
_cell_angle_alpha  90.015057
_cell_angle_beta   89.988918
_cell_angle_gamma 90.003655
loop_
_atom_site_label
_atom_site_type_symbol
_atom_site_fract_x
_atom_site_fract_y
_atom_site_fract_z
_atom_type_partial_charge
Li0 Li 0.05393 0.05298 0.11081 0.0
Li1 Li 0.08245 0.05889 0.12444 0.0
Li2 Li 0.0525 0.04769 0.13613 0.0
Li3 Li 0.05512 0.08195 0.12589 0.0
C4 C 0.07952 0.02012 0.11379 0.0
N5 N 0.10237 0.99481 0.09718 0.0
C6 C 0.08744 0.02707 0.10089 0.0
C7 C 0.08325 0.00031 0.11825 0.0
C8 C 0.09894 0.01404 0.09264 0.0
C9 C 0.09482 0.98775 0.1097 0.0
C10 C 0.08378 0.09262 0.10685 0.0
C11 C 0.10542 0.1184 0.11602 0.0
N12 N 0.10798 0.12556 0.10249 0.0
C13 C 0.0866 0.10025 0.09306 0.0
C14 C 0.09325 0.10176 0.11845 0.0
C15 C 0.0989 0.11691 0.09107 0.0
C16 C 0.0395 0.05835 0.08312 0.0
N17 N 0.04386 0.04397 0.093 0.0
C18 C 0.03217 0.01787 0.07755 0.0
C19 C 0.04042 0.02403 0.09049 0.0
C20 C 0.02742 0.03239 0.06713 0.0
C21 C 0.03122 0.05288 0.07003 0.0
H22 H 0.0423 0.07411 0.0855 0.0
H23 H 0.04374 0.01294 0.09865 0.0
C24 C 0.11731 0.04591 0.13689 0.0
N25 N 0.10998 0.05505 0.12502 0.0
C26 C 0.1369 0.03988 0.13731 0.0
C27 C 0.14113 0.05334 0.11344 0.0
C28 C 0.12144 0.05901 0.11345 0.0
C29 C 0.14902 0.04327 0.12538 0.0
H30 H 0.10771 0.0426 0.1458 0.0
H31 H 0.11517 0.06586 0.104 0.0
C32 C 0.01691 0.05421 0.11816 0.0
N33 N 0.98457 0.03733 0.10496 0.0
C34 C 0.0034 0.06654 0.11108 0.0
C35 C 0.01389 0.03329 0.1186 0.0
C36 C 0.98717 0.05771 0.10445 0.0
C37 C -0.00253 0.02505 0.11186 0.0
C38 C 0.06484 0.07726 0.15514 0.0
C39 C 0.04506 0.08109 0.15791 0.0
C40 C 0.07873 0.08054 0.16588 0.0
C41 C 0.03952 0.08823 0.1714 0.0
C42 C 0.0726 0.0877 0.17922 0.0
N43 N 0.05329 0.09136 0.18168 0.0
C44 C 0.05557 0.02258 0.16018 0.0
C45 C 0.0232 0.03319 0.15492 0.0
C46 C 0.04919 0.01295 0.17264 0.0
N47 N 0.0426 0.03259 0.15173 0.0
C48 C 0.01613 0.02351 0.16712 0.0
C49 C 0.02923 0.01356 0.17637 0.0
H50 H 0.07097 0.02269 0.15746 0.0
H51 H 0.01326 0.04166 0.14821 0.0
C52 C 0.03488 0.11576 0.11667 0.0
N53 N 0.04706 0.10947 0.12727 0.0
C54 C 0.02716 0.13528 0.11686 0.0
C55 C 0.04551 0.14195 0.13848 0.0
C56 C 0.05286 0.12223 0.13788 0.0
C57 C 0.03221 0.14857 0.12799 0.0
H58 H 0.03119 0.10553 0.10805 0.0
H59 H 0.06307 0.11714 0.14594 0.0
O60 O 0.06845 0.03262 0.12221 0.0
O61 O 0.07165 0.07638 0.10886 0.0
O62 O 0.0332 0.06246 0.12442 0.0
O63 O 0.07068 0.06989 0.14213 0.0
H64 H 0.0848 0.04236 0.09727 0.0
H65 H 0.07729 0.99475 0.12825 0.0
H66 H 0.10517 0.01923 0.08265 0.0
H67 H 0.09783 0.97238 0.11302 0.0
H68 H 0.11285 0.12561 0.12489 0.0
H69 H 0.07934 0.09335 0.08398 0.0
H70 H 0.09132 0.09613 0.12921 0.0
H71 H 0.10122 0.12296 0.08044 0.0
H72 H 0.02921 0.00195 0.07584 0.0
H73 H 0.02796 0.06453 0.06224 0.0
H74 H 0.14223 0.03189 0.14665 0.0
H75 H 0.14996 0.05647 0.10407 0.0
H76 H 0.00536 0.08275 0.1107 0.0
H77 H 0.02433 0.02348 0.12388 0.0
H78 H 0.97663 0.06708 0.09889 0.0
H79 H 0.99504 0.00888 0.11203 0.0
H80 H 0.03408 0.07864 0.14976 0.0
H81 H 0.09408 0.07753 0.16391 0.0
H82 H 0.02427 0.09127 0.17368 0.0
H83 H 0.0832 0.09032 0.18763 0.0
H84 H 0.0599 0.00583 0.17954 0.0
H85 H 0.0006 0.02417 0.1694 0.0
H86 H 0.01739 0.13993 0.10834 0.0
H87 H 0.04985 0.15174 0.14722 0.0
Li88 Li 0.43755 0.92241 0.12714 0.0
Li89 Li 0.44102 0.95632 0.13743 0.0
Li90 Li 0.41141 0.9467 0.12453 0.0
Li91 Li 0.44238 0.95216 0.11208 0.0
C92 C 0.41927 0.92006 0.15218 0.0
N93 N 0.41562 0.88862 0.17149 0.0
C94 C 0.42983 0.92035 0.165 0.0
C95 C 0.40678 0.90384 0.14922 0.0
C96 C 0.42779 0.9043 0.17462 0.0
C97 C 0.40517 0.88807 0.1591 0.0
C98 C 0.47769 0.94058 0.11918 0.0
C99 C 0.50472 0.95838 0.10831 0.0
N100 N 0.5115 0.9406 0.1029 0.0
C101 C 0.48497 0.92248 0.11356 0.0
C102 C 0.4877 0.95868 0.1166 0.0
C103 C 0.50207 0.92281 0.10535 0.0
C104 C 0.44111 0.88232 0.11754 0.0
N105 N 0.44449 0.89467 0.12892 0.0
C106 C 0.46106 0.86813 0.14137 0.0
C107 C 0.45437 0.88806 0.14067 0.0
C108 C 0.45811 0.85522 0.12965 0.0
C109 C 0.44796 0.86243 0.11764 0.0
H110 H 0.43367 0.88812 0.10819 0.0
H111 H 0.45757 0.89842 0.14931 0.0
C112 C 0.43714 0.97577 0.1639 0.0
N113 N 0.45025 0.9711 0.15347 0.0
C114 C 0.44326 0.98583 0.17623 0.0
C115 C 0.47613 0.98669 0.16662 0.0
C116 C 0.4694 0.97645 0.15452 0.0
C117 C 0.46306 0.99121 0.17782 0.0
H118 H 0.42201 0.97122 0.16276 0.0
H119 H 0.4795 0.97251 0.14608 0.0
C120 C 0.4083 0.92589 0.1006 0.0
N121 N 0.37631 0.91928 0.08311 0.0
C122 C 0.40558 0.93767 0.08834 0.0
C123 C 0.39486 0.91064 0.10391 0.0
C124 C 0.38929 0.93411 0.07964 0.0
C125 C 0.37875 0.90758 0.09495 0.0
C126 C 0.42561 0.99035 0.12933 0.0
C127 C 0.40857 0.99584 0.13667 0.0
C128 C 0.44181 0.0033 0.12949 0.0
C129 C 0.40804 0.01419 0.14408 0.0
C130 C 0.4407 0.0215 0.13705 0.0
N131 N 0.42398 0.02653 0.14413 0.0
C132 C 0.37198 0.94382 0.13392 0.0
C133 C 0.37706 0.96299 0.11279 0.0
C134 C 0.3521 0.94881 0.13392 0.0
N135 N 0.38397 0.95103 0.12349 0.0
C136 C 0.35728 0.96822 0.11231 0.0
C137 C 0.34458 0.96134 0.12309 0.0
H138 H 0.37793 0.93471 0.14247 0.0
H139 H 0.38706 0.96899 0.10488 0.0
C140 C 0.4601 0.946 0.08553 0.0
N141 N 0.45394 0.96065 0.09469 0.0
C142 C 0.46932 0.9512 0.07274 0.0
C143 C 0.46536 0.9865 0.07895 0.0
C144 C 0.45621 0.9806 0.09163 0.0
C145 C 0.47211 0.9717 0.06933 0.0
H146 H 0.4579 0.93025 0.08824 0.0
H147 H 0.45101 0.9919 0.09907 0.0
O148 O 0.42116 0.93556 0.14258 0.0
O149 O 0.46072 0.94064 0.12698 0.0
O150 O 0.42396 0.92934 0.10938 0.0
O151 O 0.4266 0.97222 0.12229 0.0
H152 H 0.43967 0.9327 0.16744 0.0
H153 H 0.39853 0.90336 0.13933 0.0
H154 H 0.43593 0.90428 0.18456 0.0
H155 H 0.39563 0.87537 0.15691 0.0
H156 H 0.51249 0.9723 0.10611 0.0
H157 H 0.47745 0.90833 0.11541 0.0
H158 H 0.48214 0.97288 0.12068 0.0
H159 H 0.50782 0.90892 0.10088 0.0
H160 H 0.46912 0.86308 0.1507 0.0
H161 H 0.44557 0.85284 0.1084 0.0
H162 H 0.4327 0.98864 0.18466 0.0
H163 H 0.49147 0.99075 0.16729 0.0
H164 H 0.41579 0.94959 0.08565 0.0
H165 H 0.39681 0.90135 0.11333 0.0
H166 H 0.38693 0.94319 0.07016 0.0
H167 H 0.36818 0.8959 0.09742 0.0
H168 H 0.39596 0.98595 0.13679 0.0
H169 H 0.45522 -0.00083 0.12407 0.0
H170 H 0.39497 0.01859 0.14985 0.0
H171 H 0.45317 0.03158 0.13736 0.0
H172 H 0.34278 0.94314 0.1424 0.0
H173 H 0.35215 0.97821 0.10391 0.0
H174 H 0.47399 0.93931 0.06553 0.0
H175 H 0.46733 0.00247 0.07677 0.0
Li176 Li 0.58454 0.93777 0.36493 0.0
Li177 Li 0.55836 0.94206 0.38163 0.0
Li178 Li 0.55811 0.91387 0.36526 0.0
Li179 Li 0.55242 0.94739 0.35654 0.0
C180 C 0.58985 0.90334 0.38179 0.0
N181 N 0.61523 0.8709 0.38376 0.0
C182 C 0.59352 0.89433 0.39505 0.0
C183 C 0.59909 0.89585 0.36952 0.0
C184 C 0.6064 0.87795 0.39583 0.0
C185 C 0.61187 0.87944 0.37074 0.0
C186 C 0.58185 0.9761 0.37645 0.0
C187 C 0.59632 0.00913 0.37933 0.0
N188 N 0.60618 0.00238 0.39105 0.0
C189 C 0.59214 0.96948 0.38851 0.0
C190 C 0.58396 0.99607 0.3718 0.0
C191 C 0.60436 0.98299 0.39575 0.0
C192 C 0.6172 0.95182 0.34976 0.0
N193 N 0.61164 0.94275 0.36216 0.0
C194 C 0.6441 0.94522 0.37148 0.0
C195 C 0.62462 0.93924 0.37291 0.0
C196 C 0.65021 0.95508 0.35893 0.0
C197 C 0.63654 0.95816 0.34789 0.0
H198 H 0.60644 0.95466 0.34149 0.0
H199 H 0.61973 0.93248 0.38282 0.0
C200 C 0.55017 0.93503 0.4104 0.0
N201 N 0.55155 0.94996 0.40046 0.0
C202 C 0.54525 0.93967 0.42452 0.0
C203 C 0.54318 0.97497 0.41785 0.0
C204 C 0.54811 0.96963 0.40386 0.0
C205 C 0.54173 0.95988 0.42839 0.0
H206 H 0.55293 0.91951 0.40732 0.0
H207 H 0.54916 0.9812 0.39571 0.0
C208 C 0.56217 0.9193 0.33589 0.0
N209 N 0.5458 0.90467 0.3109 0.0
C210 C 0.54235 0.914 0.33548 0.0
C211 C 0.57365 0.91716 0.3236 0.0
C212 C 0.53435 0.90664 0.32274 0.0
C213 C 0.5651 0.90972 0.31107 0.0
C214 C 0.51947 0.94244 0.37402 0.0
C215 C 0.50218 0.93212 0.37728 0.0
C216 C 0.51988 0.96357 0.37472 0.0
C217 C 0.48555 0.94312 0.38121 0.0
C218 C 0.50295 0.97402 0.3787 0.0
N219 N 0.48628 0.96366 0.38183 0.0
C220 C 0.53627 0.87986 0.37239 0.0
C221 C 0.55964 0.87353 0.35415 0.0
C222 C 0.52988 0.85984 0.37186 0.0
N223 N 0.55083 0.88627 0.36359 0.0
C224 C 0.55376 0.85332 0.35329 0.0
C225 C 0.53867 0.84624 0.36223 0.0
H226 H 0.5296 0.89036 0.37981 0.0
H227 H 0.57126 0.87902 0.34731 0.0
C228 C 0.55071 0.97516 0.33412 0.0
N229 N 0.53942 0.96267 0.3422 0.0
C230 C 0.54269 0.98516 0.32233 0.0
C231 C 0.5114 0.9699 0.32782 0.0
C232 C 0.5201 0.95993 0.33932 0.0
C233 C 0.52282 0.98235 0.3189 0.0
H234 H 0.56613 0.97673 0.33654 0.0
H235 H 0.51151 0.94954 0.34566 0.0
O236 O 0.57715 0.91931 0.38093 0.0
O237 O 0.56998 0.96314 0.36903 0.0
O238 O 0.5704 0.92674 0.34818 0.0
O239 O 0.53588 0.93177 0.37027 0.0
H240 H 0.58649 0.89995 0.40465 0.0
H241 H 0.5965 0.90262 0.35916 0.0
H242 H 0.60938 0.87083 0.40603 0.0
H243 H 0.61911 0.87349 0.36134 0.0
H244 H 0.59809 0.02464 0.37586 0.0
H245 H 0.59076 0.95406 0.39225 0.0
H246 H 0.57613 0.0014 0.36245 0.0
H247 H 0.61241 0.97806 0.40509 0.0
H248 H 0.65406 0.94289 0.38035 0.0
H249 H 0.6407 0.96561 0.33802 0.0
H250 H 0.54446 0.92761 0.43234 0.0
H251 H 0.54029 0.99069 0.42034 0.0
H252 H 0.5332 0.91554 0.34486 0.0
H253 H 0.58901 0.92123 0.32376 0.0
H254 H 0.51904 0.9025 0.32226 0.0
H255 H 0.57382 0.90799 0.30147 0.0
H256 H 0.50161 0.91577 0.37678 0.0
H257 H 0.53306 0.97186 0.37217 0.0
H258 H 0.47207 0.93532 0.38376 0.0
H259 H 0.50306 0.99036 0.37928 0.0
H260 H 0.51802 0.85514 0.3788 0.0
H261 H 0.56112 0.84332 0.34585 0.0
H262 H 0.5522 0.99426 0.31566 0.0
H263 H 0.49598 0.96747 0.32576 0.0
Li264 Li 0.94028 0.0528 0.37925 0.0
Li265 Li 0.91095 0.05593 0.36457 0.0
Li266 Li 0.94218 0.04521 0.35432 0.0
Li267 Li 0.9371 0.08029 0.36196 0.0
C268 C 0.92628 0.01209 0.36376 0.0
N269 N 0.92705 0.97389 0.35174 0.0
C270 C 0.91035 0.00514 0.35575 0.0
C271 C 0.94259 -0.00041 0.36568 0.0
C272 C 0.91101 0.98578 0.34977 0.0
C273 C 0.9427 0.98034 0.3595 0.0
C274 C 0.90482 0.08012 0.38663 0.0
C275 C 0.87499 0.09929 0.38925 0.0
N276 N 0.87094 0.08901 0.40151 0.0
C277 C 0.90043 0.06983 0.3993 0.0
C278 C 0.89208 0.09505 0.38159 0.0
C279 C 0.8832 0.07452 0.40666 0.0
C280 C 0.95429 0.06223 0.40662 0.0
N281 N 0.94901 0.04665 0.39795 0.0
C282 C 0.95451 0.0228 0.41668 0.0
C283 C 0.94897 0.02721 0.40265 0.0
C284 C 0.96001 0.03858 0.42593 0.0
C285 C 0.95999 0.05851 0.42072 0.0
H286 H 0.95381 0.07757 0.40262 0.0
H287 H 0.9444 0.01518 0.39558 0.0
C288 C 0.87218 0.05651 0.35321 0.0
N289 N 0.88365 0.05092 0.36443 0.0
C290 C 0.85258 0.05048 0.35268 0.0
C291 C 0.85698 0.03344 0.37536 0.0
C292 C 0.87645 0.03972 0.37542 0.0
C293 C 0.84485 0.03848 0.36375 0.0
H294 H 0.87841 0.06499 0.34444 0.0
H295 H 0.88606 0.03512 0.38404 0.0
C296 C 0.97621 0.06378 0.37384 0.0
N297 N 0.00777 0.06608 0.39228 0.0
C298 C 0.98275 0.08258 0.37874 0.0
C299 C 0.98581 0.04615 0.37822 0.0
C300 C -0.00127 0.08342 0.38807 0.0
C301 C 0.0017 0.04763 0.38759 0.0
C302 C 0.92111 0.07867 0.3358 0.0
C303 C 0.93255 0.07685 0.32345 0.0
C304 C 0.90799 0.09479 0.3371 0.0
C305 C 0.93075 0.09131 0.31262 0.0
C306 C 0.90664 0.10895 0.32604 0.0
N307 N 0.91795 0.10693 0.31413 0.0
C308 C 0.94148 0.02218 0.32927 0.0
C309 C 0.97287 0.02428 0.34 0.0
C310 C 0.94908 0.01118 0.31781 0.0
N311 N 0.95344 0.02869 0.33993 0.0
C312 C 0.98111 0.01323 0.32877 0.0
C313 C 0.96923 0.00687 0.31733 0.0
H314 H 0.9261 0.0261 0.32947 0.0
H315 H 0.98205 0.02972 0.3486 0.0
C316 C 0.93981 0.1215 0.369 0.0
N317 N 0.94393 0.10775 0.35862 0.0
C318 C 0.94637 0.14142 0.36773 0.0
C319 C 0.96071 0.13281 0.34487 0.0
C320 C 0.9543 0.11295 0.34676 0.0
C321 C 0.9571 0.14737 0.35556 0.0
H322 H 0.93203 0.11681 0.37852 0.0
H323 H 0.95797 0.10157 0.3389 0.0
O324 O 0.92611 0.03118 0.36943 0.0
O325 O 0.92144 0.07553 0.37914 0.0
O326 O 0.96035 0.06261 0.36492 0.0
O327 O 0.92274 0.06474 0.34656 0.0
H328 H 0.89769 0.01465 0.35402 0.0
H329 H 0.95514 0.00481 0.3717 0.0
H330 H 0.89882 0.98023 0.3435 0.0
H331 H 0.95527 0.97056 0.36083 0.0
H332 H 0.86495 0.11074 0.38544 0.0
H333 H 0.91009 0.05817 0.40333 0.0
H334 H 0.89533 0.10324 0.37185 0.0
H335 H 0.87955 0.06659 0.41644 0.0
H336 H 0.95448 0.00721 0.42025 0.0
H337 H 0.96385 0.07113 0.42755 0.0
H338 H 0.84384 0.05445 0.34343 0.0
H339 H 0.85159 0.02442 0.38421 0.0
H340 H 0.97552 0.09637 0.37547 0.0
H341 H 0.98083 0.03147 0.37464 0.0
H342 H 0.0039 0.09786 0.392 0.0
H343 H 0.00915 0.03411 0.39117 0.0
H344 H 0.94287 0.06454 0.3223 0.0
H345 H 0.89905 0.09643 0.34658 0.0
H346 H 0.93957 0.09014 0.30303 0.0
H347 H 0.89661 0.12156 0.32693 0.0
H348 H 0.93941 0.00695 0.30913 0.0
H349 H 0.99667 0.01009 0.32889 0.0
H350 H 0.94359 0.15179 0.37647 0.0
H351 H 0.96862 0.13657 0.33519 0.0
Li352 Li 0.9337 0.91501 0.87121 0.0
Li353 Li 0.93702 0.94664 0.88444 0.0
Li354 Li 0.90955 0.94113 0.86823 0.0
Li355 Li 0.94268 0.94656 0.85919 0.0
C356 C 0.91199 0.90988 0.8941 0.0
N357 N 0.9055 0.87548 0.91021 0.0
C358 C 0.9223 0.90683 0.90685 0.0
C359 C 0.89828 0.89554 0.8896 0.0
C360 C 0.91882 0.88932 0.91483 0.0
C361 C 0.89524 0.87821 0.89787 0.0
C362 C 0.97601 0.93173 0.86884 0.0
C363 C 0.00582 0.94947 0.86293 0.0
N364 N 0.01309 0.93226 0.85697 0.0
C365 C 0.9838 0.9142 0.86269 0.0
C366 C 0.98713 0.94949 0.86902 0.0
C367 C 0.00257 0.91478 0.85674 0.0
C368 C 0.93304 0.87438 0.86125 0.0
N369 N 0.93899 0.88688 0.87195 0.0
C370 C 0.95646 0.85999 0.88324 0.0
C371 C 0.95036 0.8801 0.88288 0.0
C372 C 0.95102 0.84678 0.87213 0.0
C373 C 0.93887 0.85412 0.86115 0.0
H374 H 0.92433 0.88029 0.85255 0.0
H375 H 0.95517 0.89051 0.89109 0.0
C376 C 0.93029 0.96357 0.91169 0.0
N377 N 0.94442 0.95758 0.90235 0.0
C378 C 0.9354 0.97069 0.92525 0.0
C379 C 0.96948 0.96526 0.91929 0.0
C380 C 0.96371 0.9583 0.90585 0.0
C381 C 0.95523 0.9714 0.92923 0.0
H382 H 0.91504 0.96245 0.90867 0.0
H383 H 0.9746 0.95314 0.89831 0.0
C384 C 0.91003 0.92368 0.84248 0.0
N385 N 0.88188 0.92043 0.82137 0.0
C386 C 0.9115 0.93528 0.83002 0.0
C387 C 0.89435 0.9103 0.84416 0.0
C388 C 0.89709 0.93344 0.81947 0.0
C389 C 0.88023 0.90892 0.83338 0.0
C390 C 0.92523 0.98293 0.87771 0.0
C391 C 0.90742 0.98906 0.88368 0.0
C392 C 0.94214 0.99429 0.88026 0.0
C393 C 0.90686 0.00641 0.89222 0.0
C394 C 0.94098 0.01152 0.88889 0.0
N395 N 0.92352 0.01717 0.89464 0.0
C396 C 0.86971 0.94259 0.87573 0.0
C397 C 0.87746 0.95834 0.85361 0.0
C398 C 0.85031 0.94904 0.87467 0.0
N399 N 0.8828 0.94742 0.86532 0.0
C400 C 0.85811 0.96468 0.85195 0.0
C401 C 0.84443 0.96029 0.86269 0.0
H402 H 0.87449 0.93432 0.88509 0.0
H403 H 0.88834 0.96263 0.84578 0.0
C404 C 0.96644 0.94384 0.83512 0.0
N405 N 0.95751 0.95736 0.84391 0.0
C406 C 0.9778 0.95057 0.82371 0.0
C407 C 0.96987 0.98506 0.8302 0.0
C408 C 0.9589 0.97764 0.84169 0.0
C409 C 0.97958 0.97141 0.82114 0.0
H410 H 0.96465 0.9278 0.83698 0.0
H411 H 0.95138 0.988 0.84876 0.0
O412 O 0.91543 0.92674 0.88601 0.0
O413 O 0.95753 0.93156 0.87453 0.0
O414 O 0.92391 0.92536 0.85297 0.0
O415 O 0.92617 0.96576 0.86957 0.0
H416 H 0.93302 0.91774 0.91047 0.0
H417 H 0.89016 0.89772 0.87977 0.0
H418 H 0.92676 0.8867 0.92468 0.0
H419 H 0.88475 0.86693 0.89448 0.0
H420 H 0.01451 0.96315 0.86291 0.0
H421 H 0.9754 0.90035 0.86234 0.0
H422 H 0.98128 0.96324 0.87361 0.0
H423 H 0.00875 0.90136 0.85189 0.0
H424 H 0.96562 0.85493 0.892 0.0
H425 H 0.93456 0.84456 0.85228 0.0
H426 H 0.92396 0.97502 0.93267 0.0
H427 H 0.98493 0.96574 0.92189 0.0
H428 H 0.92352 0.94573 0.82854 0.0
H429 H 0.89301 0.90121 0.85374 0.0
H430 H 0.89799 0.94239 0.8098 0.0
H431 H 0.86794 0.89872 0.83458 0.0
H432 H 0.89419 0.98044 0.88184 0.0
H433 H 0.95605 0.98971 0.87577 0.0
H434 H 0.8932 0.01129 0.89696 0.0
H435 H 0.95398 0.02038 0.89103 0.0
H436 H 0.84007 0.94555 0.88319 0.0
H437 H 0.85406 0.97363 0.8427 0.0
H438 H 0.98474 0.93959 0.81675 0.0
H439 H 0.97084 0.00123 0.82844 0.0
Li440 Li 0.55708 0.07927 0.87052 0.0
Li441 Li 0.55635 0.04714 0.88354 0.0
Li442 Li 0.58266 0.05444 0.8666 0.0
Li443 Li 0.54921 0.04723 0.85856 0.0
C444 C 0.58146 0.08484 0.89267 0.0
N445 N 0.59079 0.11834 0.90899 0.0
C446 C 0.57356 0.0871 0.90639 0.0
C447 C 0.59425 0.0995 0.88731 0.0
C448 C 0.57843 0.10418 0.91446 0.0
C449 C 0.59873 0.11637 0.8957 0.0
C450 C 0.5157 0.06036 0.86936 0.0
C451 C 0.48653 0.04131 0.86379 0.0
N452 N 0.47799 0.05845 0.8587 0.0
C453 C 0.50658 0.0778 0.86414 0.0
C454 C 0.50556 0.04198 0.86927 0.0
C455 C 0.48752 0.07652 0.85879 0.0
C456 C 0.55145 0.11836 0.85919 0.0
N457 N 0.55044 0.10708 0.87132 0.0
C458 C 0.53613 0.13462 0.88414 0.0
C459 C 0.54292 0.11474 0.88365 0.0
C460 C 0.53652 0.14659 0.87169 0.0
C461 C 0.5445 0.13823 0.85912 0.0
H462 H 0.55697 0.11169 0.84942 0.0
H463 H 0.54168 0.10522 0.89301 0.0
C464 C 0.56536 0.03132 0.91082 0.0
N465 N 0.55054 0.0358 0.90163 0.0
C466 C 0.56119 0.02471 0.92469 0.0
C467 C 0.52665 0.02719 0.91923 0.0
C468 C 0.53148 0.03372 0.90549 0.0
C469 C 0.5416 0.02293 0.9291 0.0
H470 H 0.58039 0.03346 0.90749 0.0
H471 H 0.52002 0.03764 0.89804 0.0
C472 C 0.57903 0.07303 0.84091 0.0
N473 N 0.60437 0.08019 0.81841 0.0
C474 C 0.57778 0.06142 0.82842 0.0
C475 C 0.59301 0.0884 0.8419 0.0
C476 C 0.59076 0.06526 0.81718 0.0
C477 C 0.60574 0.09174 0.83043 0.0
C478 C 0.56953 0.01175 0.87632 0.0
C479 C 0.58779 0.00674 0.88207 0.0
C480 C 0.55335 -0.00059 0.87909 0.0
C481 C 0.58952 0.98949 0.89062 0.0
C482 C 0.55568 0.98231 0.88772 0.0
N483 N 0.57356 0.97775 0.89326 0.0
C484 C 0.62254 0.0546 0.87354 0.0
C485 C 0.61553 0.04124 0.85056 0.0
C486 C 0.64231 0.0498 0.87198 0.0
N487 N 0.60963 0.05018 0.86293 0.0
C488 C 0.63524 0.03657 0.84841 0.0
C489 C 0.64894 0.04051 0.85932 0.0
H490 H 0.61736 0.06116 0.88344 0.0
H491 H 0.60487 0.03725 0.8425 0.0
C492 C 0.52417 0.04962 0.83531 0.0
N493 N 0.53418 0.03617 0.8435 0.0
C494 C 0.51283 0.04289 0.82389 0.0
C495 C 0.5229 0.00859 0.82917 0.0
C496 C 0.53382 0.01598 0.8407 0.0
C497 C 0.51218 0.02216 0.82068 0.0
H498 H 0.52516 0.06562 0.83761 0.0
H499 H 0.54219 0.0057 0.8473 0.0
O500 O 0.57677 0.06832 0.88456 0.0
O501 O 0.53447 0.06124 0.87445 0.0
O502 O 0.56649 0.06947 0.85204 0.0
O503 O 0.56743 0.02881 0.86819 0.0
H504 H 0.56361 0.07591 0.9107 0.0
H505 H 0.6006 0.09788 0.87676 0.0
H506 H 0.57234 0.10619 0.92506 0.0
H507 H 0.60854 0.12788 0.89166 0.0
H508 H 0.47859 0.02716 0.86354 0.0
H509 H 0.51417 0.09216 0.86412 0.0
H510 H 0.51242 0.0283 0.87317 0.0
H511 H 0.48033 0.08988 0.85466 0.0
H512 H 0.53038 0.14041 0.89414 0.0
H513 H 0.54474 0.14662 0.84917 0.0
H514 H 0.57314 0.02179 0.93202 0.0
H515 H 0.51136 0.02578 0.92215 0.0
H516 H 0.56704 0.04947 0.82747 0.0
H517 H 0.59403 0.09762 0.85144 0.0
H518 H 0.59005 0.05634 0.80748 0.0
H519 H 0.61669 0.10353 0.83108 0.0
H520 H 0.60045 0.01614 0.88005 0.0
H521 H 0.5391 0.00311 0.87475 0.0
H522 H 0.60354 0.98547 0.89519 0.0
H523 H 0.54326 0.97269 0.89003 0.0
H524 H 0.65209 0.05267 0.88087 0.0
H525 H 0.63958 0.02966 0.8384 0.0
H526 H 0.5051 0.05385 0.81738 0.0
H527 H 0.52282 0.99252 0.8269 0.0
Li528 Li 0.41088 0.05718 0.61494 0.0
Li529 Li 0.4386 0.05175 0.6314 0.0
Li530 Li 0.4379 0.08262 0.61751 0.0
Li531 Li 0.44308 0.0493 0.60681 0.0
C532 C 0.40545 0.08866 0.6347 0.0
N533 N 0.37859 0.11902 0.63998 0.0
C534 C 0.40019 0.09346 0.64876 0.0
C535 C 0.39705 0.09931 0.62332 0.0
C536 C 0.38658 0.10885 0.65121 0.0
C537 C 0.3835 0.11461 0.62621 0.0
C538 C 0.42617 0.01359 0.61227 0.0
C539 C 0.4432 0.98271 0.60631 0.0
N540 N 0.42724 0.97625 0.5989 0.0
C541 C 0.40985 0.0065 0.60475 0.0
C542 C 0.44289 0.00146 0.61321 0.0
C543 C 0.4107 0.98764 0.59801 0.0
C544 C 0.37508 0.04983 0.60013 0.0
N545 N 0.38354 0.05313 0.61309 0.0
C546 C 0.35351 0.04591 0.62511 0.0
C547 C 0.37317 0.05152 0.62544 0.0
C548 C 0.34454 0.04142 0.61194 0.0
C549 C 0.35549 0.04386 0.5993 0.0
H550 H 0.3838 0.0507 0.59052 0.0
H551 H 0.38036 0.05393 0.63561 0.0
C552 C 0.44415 0.05605 0.66063 0.0
N553 N 0.44452 0.04212 0.64996 0.0
C554 C 0.44695 0.0501 0.67479 0.0
C555 C 0.4511 0.0156 0.66665 0.0
C556 C 0.44797 0.02221 0.65263 0.0
C557 C 0.45028 0.02962 0.67793 0.0
H558 H 0.44146 0.07178 0.65813 0.0
H559 H 0.44802 0.01145 0.64393 0.0
C560 C 0.43258 0.0745 0.5862 0.0
N561 N 0.44781 0.07872 0.55892 0.0
C562 C 0.45205 0.0805 0.58427 0.0
C563 C 0.42082 0.07083 0.57422 0.0
C564 C 0.45949 0.08249 0.57041 0.0
C565 C 0.4288 0.07301 0.56053 0.0
C566 C 0.47527 0.06022 0.62966 0.0
C567 C 0.48148 0.07528 0.63913 0.0
C568 C 0.48405 0.04113 0.63018 0.0
C569 C 0.49605 0.07087 0.64916 0.0
C570 C 0.49856 0.03729 0.64036 0.0
N571 N 0.50419 0.0521 0.64958 0.0
C572 C 0.44747 0.11894 0.63125 0.0
C573 C 0.4436 0.12247 0.60616 0.0
C574 C 0.45311 0.13916 0.63248 0.0
N575 N 0.44349 0.11086 0.61818 0.0
C576 C 0.44904 0.1428 0.6069 0.0
C577 C 0.4543 0.15126 0.62016 0.0
H578 H 0.4465 0.10957 0.64071 0.0
H579 H 0.43967 0.11596 0.59596 0.0
C580 C 0.44516 0.02676 0.58124 0.0
N581 N 0.45621 0.0356 0.5916 0.0
C582 C 0.45405 0.01819 0.56926 0.0
C583 C 0.48557 0.02794 0.57882 0.0
C584 C 0.47606 0.0363 0.59065 0.0
C585 C 0.47451 0.01891 0.56787 0.0
H586 H 0.42937 0.02698 0.58205 0.0
H587 H 0.48446 0.04391 0.59884 0.0
O588 O 0.41886 0.07367 0.63219 0.0
O589 O 0.4256 0.03211 0.61887 0.0
O590 O 0.42526 0.07185 0.59973 0.0
O591 O 0.4606 0.06407 0.62002 0.0
H592 H 0.40653 0.08534 0.65769 0.0
H593 H 0.40091 0.09586 0.61236 0.0
H594 H 0.38237 0.11272 0.66204 0.0
H595 H 0.37689 0.12297 0.61751 0.0
H596 H 0.45613 0.97328 0.60686 0.0
H597 H 0.39666 0.01542 0.60408 0.0
H598 H 0.45558 0.00649 0.61908 0.0
H599 H 0.39821 0.98206 0.59209 0.0
H600 H 0.34559 0.04463 0.63511 0.0
H601 H 0.34932 0.04028 0.58892 0.0
H602 H 0.44651 0.06138 0.68319 0.0
H603 H 0.45358 -0.00032 0.6687 0.0
H604 H 0.46141 0.0833 0.59341 0.0
H605 H 0.40573 0.06628 0.57545 0.0
H606 H 0.47457 0.08695 0.56879 0.0
H607 H 0.41988 0.07014 0.55118 0.0
H608 H 0.47515 0.09021 0.63879 0.0
H609 H 0.47969 0.02937 0.62283 0.0
H610 H 0.50087 0.08237 0.65661 0.0
H611 H 0.50535 0.02252 0.64092 0.0
H612 H 0.45658 0.14523 0.64295 0.0
H613 H 0.4497 0.15163 0.59715 0.0
H614 H 0.44493 0.01178 0.56093 0.0
H615 H 0.50139 0.02878 0.57816 0.0
Li616 Li 0.0555 0.95079 0.63194 0.0
Li617 Li 0.08358 0.94438 0.6165 0.0
Li618 Li 0.05176 0.95382 0.60674 0.0
Li619 Li 0.05682 0.92025 0.61719 0.0
C620 C 0.06901 0.98813 0.61253 0.0
N621 N 0.06819 0.02412 0.5975 0.0
C622 C 0.08493 0.99375 0.604 0.0
C623 C 0.05273 0.00088 0.61348 0.0
C624 C 0.08423 0.012 0.59648 0.0
C625 C 0.05257 0.01898 0.60577 0.0
C626 C 0.09095 0.92227 0.63972 0.0
C627 C 0.11946 0.90088 0.64138 0.0
N628 N 0.12555 0.91152 0.65302 0.0
C629 C 0.09742 0.93293 0.65176 0.0
C630 C 0.10198 0.90605 0.63453 0.0
C631 C 0.11498 0.92728 0.65831 0.0
C632 C 0.04749 0.94571 0.66072 0.0
N633 N 0.04873 0.96014 0.65041 0.0
C634 C 0.04331 0.9863 0.66761 0.0
C635 C 0.04658 0.98012 0.6535 0.0
C636 C 0.04265 0.97172 0.67853 0.0
C637 C 0.0445 0.9512 0.67493 0.0
H638 H 0.04933 0.92995 0.6579 0.0
H639 H 0.04786 0.99126 0.64508 0.0
C640 C 0.12115 0.94194 0.60328 0.0
N641 N 0.11089 0.94833 0.61491 0.0
C642 C 0.14105 0.94655 0.60201 0.0
C643 C 0.13936 0.96387 0.62481 0.0
C644 C 0.1195 0.95924 0.62551 0.0
C645 C 0.15032 0.95764 0.61289 0.0
H646 H 0.11379 0.93372 0.59485 0.0
H647 H 0.11079 0.96474 0.63436 0.0
C648 C 0.01943 0.93987 0.62949 0.0
N649 N 0.99052 0.94211 0.65013 0.0
C650 C 0.01421 0.92265 0.63729 0.0
C651 C 0.00988 0.9582 0.63213 0.0
C652 C -0.00043 0.9241 0.64769 0.0
C653 C 0.99533 0.95903 0.64263 0.0
C654 C 0.07048 0.91741 0.59011 0.0
C655 C 0.05727 0.91758 0.57867 0.0
C656 C 0.08402 0.90165 0.59132 0.0
C657 C 0.05772 0.90181 0.5687 0.0
C658 C 0.08398 0.88616 0.58115 0.0
N659 N 0.07093 0.88655 0.57014 0.0
C660 C 0.05143 0.97302 0.58021 0.0
C661 C 0.02017 0.97117 0.5912 0.0
C662 C 0.04341 0.9822 0.56814 0.0
N663 N 0.03977 0.96765 0.59136 0.0
C664 C 0.01149 0.98031 0.57932 0.0
C665 C 0.02314 0.98575 0.56752 0.0
H666 H 0.06693 0.9697 0.58058 0.0
H667 H 0.01124 0.96654 0.60018 0.0
C668 C 0.05437 0.88038 0.62768 0.0
N669 N 0.04946 0.89255 0.6165 0.0
C670 C 0.04794 0.86034 0.62807 0.0
C671 C 0.03181 0.86563 0.60532 0.0
C672 C 0.03817 0.88569 0.60554 0.0
C673 C 0.03656 0.85281 0.61676 0.0
H674 H 0.06287 0.88638 0.63647 0.0
H675 H 0.03373 0.89589 0.59712 0.0
O676 O 0.06925 0.97014 0.61976 0.0
O677 O 0.07392 0.92773 0.63303 0.0
O678 O 0.0341 0.9389 0.61954 0.0
O679 O 0.07021 0.93264 0.60002 0.0
H680 H 0.09762 0.98405 0.60307 0.0
H681 H 0.0402 0.99668 0.61992 0.0
H682 H 0.09641 0.0165 0.58979 0.0
H683 H 0.04 0.02891 0.60632 0.0
H684 H 0.12818 0.8884 0.63744 0.0
H685 H 0.08914 0.94561 0.65587 0.0
H686 H 0.0971 0.89755 0.6253 0.0
H687 H 0.12023 0.93548 0.66757 0.0
H688 H 0.04197 0.00226 0.67004 0.0
H689 H 0.04382 0.93953 0.68306 0.0
H690 H 0.14907 0.94161 0.59263 0.0
H691 H 0.14593 0.97282 0.63326 0.0
H692 H 0.02149 0.90836 0.63543 0.0
H693 H 0.01386 0.97172 0.62628 0.0
H694 H 0.99543 0.91091 0.65385 0.0
H695 H 0.98791 0.97315 0.64486 0.0
H696 H 0.04663 0.92959 0.57758 0.0
H697 H 0.09441 0.90137 0.60005 0.0
H698 H 0.04752 0.90168 0.55984 0.0
H699 H 0.09432 0.87382 0.582 0.0
H700 H 0.05288 0.98579 0.55919 0.0
H701 H 0.99583 0.9829 0.5793 0.0
H702 H 0.05174 0.85084 0.6371 0.0
H703 H 0.02275 0.86036 0.59656 0.0
Li704 Li 0.55177 0.58301 0.1269 0.0
Li705 Li 0.54709 0.55041 0.13831 0.0
Li706 Li 0.57784 0.5579 0.12546 0.0
Li707 Li 0.54739 0.55259 0.11224 0.0
C708 C 0.56298 0.58156 0.15535 0.0
N709 N 0.554 0.60218 0.18024 0.0
C710 C 0.54346 0.58444 0.15934 0.0
C711 C 0.57795 0.58923 0.16399 0.0
C712 C 0.53921 0.59487 0.17197 0.0
C713 C 0.57311 0.59959 0.17655 0.0
C714 C 0.50913 0.56108 0.12727 0.0
C715 C 0.48109 0.53955 0.12332 0.0
N716 N 0.46966 0.55296 0.13055 0.0
C717 C 0.49705 0.5747 0.13458 0.0
C718 C 0.50106 0.5434 0.12153 0.0
C719 C 0.47716 0.57029 0.13616 0.0
C720 C 0.5281 0.61628 0.12157 0.0
N721 N 0.54539 0.61092 0.12764 0.0
C722 C 0.55198 0.64531 0.13392 0.0
C723 C 0.55733 0.62489 0.1338 0.0
C724 C 0.53402 0.65134 0.12784 0.0
C725 C 0.52199 0.63639 0.1217 0.0
H726 H 0.51898 0.60485 0.11666 0.0
H727 H 0.57104 0.62023 0.13854 0.0
C728 C 0.55207 0.5305 0.16414 0.0
N729 N 0.53784 0.53632 0.15484 0.0
C730 C 0.5472 0.52064 0.17686 0.0
C731 C 0.51312 0.52244 0.17004 0.0
C732 C 0.51864 0.53239 0.15752 0.0
C733 C 0.52745 0.51663 0.18001 0.0
H734 H 0.56723 0.53385 0.16174 0.0
H735 H 0.50751 0.53696 0.15006 0.0
C736 C 0.57962 0.58963 0.10578 0.0
N737 N 0.605 0.62028 0.09799 0.0
C738 C 0.57979 0.59683 0.09171 0.0
C739 C 0.59237 0.598 0.11589 0.0
C740 C 0.59273 0.61234 0.08798 0.0
C741 C 0.60508 0.61349 0.11174 0.0
C742 C 0.55846 0.51338 0.12169 0.0
C743 C 0.57309 0.50193 0.11505 0.0
C744 C 0.54076 0.5042 0.12543 0.0
C745 C 0.56958 0.48157 0.11198 0.0
C746 C 0.53781 0.48379 0.1222 0.0
N747 N 0.55215 0.47299 0.11558 0.0
C748 C 0.61625 0.55451 0.1366 0.0
C749 C 0.61215 0.54451 0.11239 0.0
C750 C 0.63586 0.5485 0.13632 0.0
N751 N 0.60489 0.55224 0.12477 0.0
C752 C 0.63158 0.53807 0.11167 0.0
C753 C 0.64361 0.53982 0.1238 0.0
H754 H 0.60996 0.56052 0.14634 0.0
H755 H 0.60266 0.54286 0.10318 0.0
C756 C 0.52045 0.55157 0.0896 0.0
N757 N 0.53725 0.54315 0.09463 0.0
C758 C 0.51272 0.54539 0.0765 0.0
C759 C 0.54031 0.52279 0.07364 0.0
C760 C 0.54737 0.52923 0.08689 0.0
C761 C 0.52271 0.53084 0.06836 0.0
H762 H 0.51314 0.56323 0.09571 0.0
H763 H 0.56109 0.52339 0.09089 0.0
O764 O 0.56752 0.57158 0.14294 0.0
O765 O 0.52863 0.5653 0.12553 0.0
O766 O 0.567 0.57447 0.10954 0.0
O767 O 0.56173 0.53333 0.12481 0.0
H768 H 0.53172 0.57866 0.15278 0.0
H769 H 0.59314 0.58726 0.161 0.0
H770 H 0.52415 0.59718 0.17518 0.0
H771 H 0.58454 0.60561 0.18334 0.0
H772 H 0.47469 0.52591 0.11896 0.0
H773 H 0.50296 0.58854 0.13902 0.0
H774 H 0.51006 0.53273 0.11575 0.0
H775 H 0.46767 0.58067 0.14183 0.0
H776 H 0.56193 0.65622 0.13858 0.0
H777 H 0.50786 0.64006 0.11715 0.0
H778 H 0.55874 0.51673 0.18431 0.0
H779 H 0.49774 0.5194 0.17191 0.0
H780 H 0.57001 0.59049 0.08377 0.0
H781 H 0.59243 0.59268 0.12683 0.0
H782 H 0.59302 0.61806 0.07713 0.0
H783 H 0.61499 0.62012 0.11946 0.0
H784 H 0.58696 0.50873 0.11221 0.0
H785 H 0.52946 0.51266 0.13086 0.0
H786 H 0.58072 0.47257 0.10675 0.0
H787 H 0.52415 0.47651 0.125 0.0
H788 H 0.64464 0.54992 0.14592 0.0
H789 H 0.63709 0.53163 0.1018 0.0
H790 H 0.49933 0.55226 0.07261 0.0
H791 H 0.54847 0.51162 0.06759 0.0
Li792 Li 0.93194 0.4178 0.12691 0.0
Li793 Li 0.93687 0.45086 0.13802 0.0
Li794 Li 0.90636 0.44276 0.12595 0.0
Li795 Li 0.93654 0.44806 0.11255 0.0
C796 C 0.90157 0.42748 0.15165 0.0
N797 N 0.86807 0.42445 0.16812 0.0
C798 C 0.89874 0.44045 0.16329 0.0
C799 C 0.8874 0.41291 0.14843 0.0
C800 C 0.8817 0.43868 0.17149 0.0
C801 C 0.87055 0.41164 0.15686 0.0
C802 C 0.97182 0.43719 0.13382 0.0
C803 C -0.0009 0.45681 0.14257 0.0
N804 N 0.0041 0.44132 0.15143 0.0
C805 C 0.97723 0.42146 0.14301 0.0
C806 C 0.98284 0.45501 0.13358 0.0
C807 C 0.99361 0.42384 0.15182 0.0
C808 C 0.95381 0.38412 0.11914 0.0
N809 N 0.93871 0.38993 0.12768 0.0
C810 C 0.93545 0.35635 0.13683 0.0
C811 C 0.92952 0.37659 0.13648 0.0
C812 C 0.951 0.34989 0.12807 0.0
C813 C 0.96019 0.3641 0.11914 0.0
H814 H 0.96104 0.39517 0.11243 0.0
H815 H 0.91772 0.38166 0.14329 0.0
C816 C 0.95061 0.48448 0.1543 0.0
N817 N 0.94747 0.46417 0.15422 0.0
C818 C 0.95752 0.494 0.16666 0.0
C819 C 0.95773 0.46147 0.17854 0.0
C820 C 0.95105 0.45259 0.16594 0.0
C821 C 0.96084 0.48245 0.17903 0.0
H822 H 0.94744 0.49333 0.14486 0.0
H823 H 0.94833 0.43647 0.16554 0.0
C824 C 0.91578 0.40917 0.1023 0.0
N825 N 0.9155 0.37283 0.08769 0.0
C826 C 0.92965 0.40542 0.09162 0.0
C827 C 0.90169 0.39451 0.10549 0.0
C828 C 0.92928 0.38694 0.08436 0.0
C829 C 0.90182 0.37621 0.098 0.0
C830 C 0.92184 0.48403 0.11563 0.0
C831 C 0.90492 0.48849 0.10782 0.0
C832 C 0.93867 0.49576 0.11368 0.0
C833 C 0.90514 0.5046 0.09814 0.0
C834 C 0.93831 0.51171 0.10387 0.0
N835 N 0.9217 0.51576 0.09637 0.0
C836 C 0.87317 0.4625 0.13592 0.0
C837 C 0.86659 0.4403 0.11657 0.0
C838 C 0.85372 0.46879 0.13622 0.0
N839 N 0.87917 0.44848 0.12623 0.0
C840 C 0.84698 0.44638 0.11635 0.0
C841 C 0.84035 0.46099 0.12619 0.0
H842 H 0.88364 0.46908 0.14325 0.0
H843 H 0.87189 0.42952 0.10877 0.0
C844 C 0.96612 0.46076 0.09319 0.0
N845 N 0.94661 0.45762 0.09495 0.0
C846 C 0.97338 0.46725 0.08 0.0
C847 C 0.94031 0.46694 0.0707 0.0
C848 C 0.9337 0.46054 0.08407 0.0
C849 C 0.9604 0.47028 0.06853 0.0
H850 H 0.97606 0.45798 0.10196 0.0
H851 H 0.91827 0.45773 0.0858 0.0
O852 O 0.91802 0.42916 0.14337 0.0
O853 O 0.95554 0.43536 0.12538 0.0
O854 O 0.91621 0.42695 0.10979 0.0
O855 O 0.92206 0.46804 0.12494 0.0
H856 H 0.90943 0.45195 0.16588 0.0
H857 H 0.88926 0.40288 0.13939 0.0
H858 H 0.87928 0.44868 0.18049 0.0
H859 H 0.85941 0.40052 0.15443 0.0
H860 H 0.00768 0.47057 0.14256 0.0
H861 H 0.96875 0.40766 0.14349 0.0
H862 H 0.97869 0.46747 0.12672 0.0
H863 H -0.00208 0.41182 0.15902 0.0
H864 H 0.92788 0.34587 0.14382 0.0
H865 H 0.97246 0.3599 0.11242 0.0
H866 H 0.95966 0.51023 0.1667 0.0
H867 H 0.96036 0.45205 0.18783 0.0
H868 H 0.94077 0.41651 0.08909 0.0
H869 H 0.89087 0.39716 0.11374 0.0
H870 H 0.94 0.38377 0.07613 0.0
H871 H 0.89108 0.36468 0.10041 0.0
H872 H 0.8918 0.47951 0.1091 0.0
H873 H 0.95199 0.49234 0.11946 0.0
H874 H 0.89217 0.50817 0.09199 0.0
H875 H 0.95128 0.5208 0.10217 0.0
H876 H 0.84928 0.47981 0.14416 0.0
H877 H 0.83731 0.44018 0.10827 0.0
H878 H 0.989 0.46938 0.0787 0.0
H879 H 0.92982 0.46928 0.06216 0.0
Li880 Li 0.05648 0.44416 0.37919 0.0
Li881 Li 0.08702 0.43974 0.36606 0.0
Li882 Li 0.05699 0.4502 0.35399 0.0
Li883 Li 0.06086 0.41562 0.3629 0.0
C884 C 0.07259 0.48353 0.36293 0.0
N885 N 0.07369 0.52055 0.34919 0.0
C886 C 0.08915 0.48923 0.35511 0.0
C887 C 0.05658 0.49668 0.36376 0.0
C888 C 0.08943 0.50802 0.34825 0.0
C889 C 0.05742 0.51531 0.35674 0.0
C890 C 0.09075 0.41729 0.38928 0.0
C891 C 0.12019 0.39848 0.39437 0.0
N892 N 0.12295 0.40978 0.40638 0.0
C893 C 0.0938 0.42864 0.40172 0.0
C894 C 0.10397 0.40201 0.38561 0.0
C895 C 0.11019 0.42463 0.41021 0.0
C896 C 0.03902 0.43705 0.40595 0.0
N897 N 0.04579 0.45178 0.39709 0.0
C898 C 0.03716 0.47738 0.41395 0.0
C899 C 0.04517 0.47161 0.40083 0.0
C900 C 0.02989 0.46253 0.42332 0.0
C901 C 0.03088 0.44212 0.41917 0.0
H902 H 0.03997 0.42137 0.40272 0.0
H903 H 0.05091 0.48296 0.39366 0.0
C904 C 0.12651 0.43812 0.35638 0.0
N905 N 0.11436 0.44445 0.36699 0.0
C906 C 0.14614 0.44406 0.35633 0.0
C907 C 0.14038 0.46253 0.37828 0.0
C908 C 0.12089 0.45631 0.37787 0.0
C909 C 0.15321 0.45674 0.36726 0.0
H910 H 0.12082 0.42918 0.34764 0.0
H911 H 0.11075 0.46152 0.38597 0.0
C912 C 0.02097 0.4328 0.37235 0.0
N913 N 0.98768 0.43097 0.38914 0.0
C914 C 0.01378 0.41411 0.37698 0.0
C915 C 0.01114 0.45055 0.37619 0.0
C916 C 0.99694 0.4135 0.38547 0.0
C917 C 0.99438 0.44931 0.38472 0.0
C918 C 0.07941 0.41512 0.33777 0.0
C919 C 0.06936 0.4159 0.32474 0.0
C920 C 0.09211 0.39902 0.34055 0.0
C921 C 0.07212 0.40045 0.31472 0.0
C922 C 0.09444 0.38384 0.33027 0.0
N923 N 0.08448 0.38487 0.31768 0.0
C924 C 0.05922 0.47085 0.32775 0.0
C925 C 0.02811 0.47232 0.33895 0.0
C926 C 0.05221 0.4817 0.31601 0.0
N927 N 0.04706 0.46613 0.33877 0.0
C928 C 0.02053 0.48342 0.32753 0.0
C929 C 0.03251 0.48788 0.31569 0.0
H930 H 0.07427 0.46572 0.32795 0.0
H931 H 0.01879 0.46841 0.34786 0.0
C932 C 0.05744 0.37452 0.37047 0.0
N933 N 0.05398 0.38811 0.35986 0.0
C934 C 0.05081 0.35462 0.36917 0.0
C935 C 0.03778 0.36293 0.34585 0.0
C936 C 0.04421 0.38278 0.34777 0.0
C937 C 0.04072 0.34854 0.35674 0.0
H938 H 0.06477 0.37932 0.38015 0.0
H939 H 0.04108 0.39404 0.33971 0.0
O940 O 0.07182 0.46498 0.3694 0.0
O941 O 0.07496 0.42117 0.38071 0.0
O942 O 0.03764 0.43373 0.36423 0.0
O943 O 0.07679 0.43002 0.34775 0.0
H944 H 0.10158 0.47919 0.35417 0.0
H945 H 0.04349 0.49238 0.36954 0.0
H946 H 0.10213 0.51259 0.34213 0.0
H947 H 0.04509 0.52556 0.35721 0.0
H948 H 0.13059 0.38676 0.39163 0.0
H949 H 0.08375 0.44057 0.4047 0.0
H950 H 0.10175 0.393 0.37608 0.0
H951 H 0.1128 0.43337 0.41981 0.0
H952 H 0.03654 0.49329 0.41667 0.0
H953 H 0.02572 0.43018 0.42616 0.0
H954 H 0.15543 0.43951 0.3475 0.0
H955 H 0.14524 0.47213 0.38698 0.0
H956 H 0.02115 0.40021 0.37413 0.0
H957 H 0.01666 0.46518 0.37292 0.0
H958 H 0.99125 0.39915 0.38916 0.0
H959 H 0.98675 0.46294 0.38789 0.0
H960 H 0.05937 0.42817 0.32244 0.0
H961 H 0.09996 0.39817 0.35058 0.0
H962 H 0.06437 0.40081 0.30462 0.0
H963 H 0.10415 0.37124 0.33232 0.0
H964 H 0.06193 0.48448 0.30707 0.0
H965 H 0.00536 0.48815 0.32788 0.0
H966 H 0.05306 0.34436 0.37805 0.0
H967 H 0.0304 0.35906 0.33597 0.0
Li968 Li 0.43988 0.54895 0.38424 0.0
Li969 Li 0.41439 0.55346 0.36751 0.0
Li970 Li 0.44589 0.54012 0.35979 0.0
Li971 Li 0.44249 0.5756 0.36729 0.0
C972 C 0.41402 0.51622 0.38078 0.0
N973 N 0.38733 0.49371 0.39629 0.0
C974 C 0.4041 0.52492 0.39234 0.0
C975 C 0.41035 0.49609 0.3771 0.0
C976 C 0.39067 0.51329 0.40005 0.0
C977 C 0.39681 0.48495 0.38508 0.0
C978 C 0.41093 0.58957 0.38241 0.0
C979 C 0.39155 0.61405 0.36953 0.0
N980 N 0.3874 0.62358 0.38208 0.0
C981 C 0.40647 0.5996 0.39517 0.0
C982 C 0.40342 0.59684 0.36947 0.0
C983 C 0.39454 0.61677 0.39478 0.0
C984 C 0.44896 0.55834 0.41253 0.0
N985 N 0.44601 0.54252 0.4035 0.0
C986 C 0.45294 0.51888 0.42213 0.0
C987 C 0.44789 0.52305 0.40797 0.0
C988 C 0.45615 0.53492 0.43172 0.0
C989 C 0.45409 0.55487 0.42677 0.0
H990 H 0.44746 0.57365 0.4086 0.0
H991 H 0.44576 0.51076 0.40048 0.0
C992 C 0.38155 0.54019 0.35242 0.0
N993 N 0.38714 0.55022 0.36444 0.0
C994 C 0.36203 0.5345 0.35056 0.0
C995 C 0.35434 0.55015 0.37328 0.0
C996 C 0.374 0.55548 0.37472 0.0
C997 C 0.34821 0.53916 0.36121 0.0
H998 H 0.39243 0.53596 0.34454 0.0
H999 H 0.3789 0.56298 0.38436 0.0
C1000 C 0.47779 0.54758 0.3806 0.0
N1001 N 0.50621 0.53044 0.39784 0.0
C1002 C 0.4907 0.55989 0.38828 0.0
C1003 C 0.4794 0.52654 0.38165 0.0
C1004 C 0.50494 0.55093 0.39695 0.0
C1005 C 0.49386 0.51817 0.39041 0.0
C1006 C 0.43802 0.567 0.33781 0.0
C1007 C 0.45816 0.57063 0.33684 0.0
C1008 C 0.42641 0.56823 0.32553 0.0
C1009 C 0.46632 0.57549 0.32356 0.0
C1010 C 0.43513 0.57316 0.31245 0.0
N1011 N 0.45474 0.57664 0.31174 0.0
C1012 C 0.44603 0.51351 0.33666 0.0
C1013 C 0.47774 0.52274 0.34467 0.0
C1014 C 0.45395 0.50361 0.3248 0.0
N1015 N 0.45795 0.52312 0.34611 0.0
C1016 C 0.4863 0.51275 0.33311 0.0
C1017 C 0.47435 0.50357 0.32271 0.0
H1018 H 0.43031 0.51449 0.33796 0.0
H1019 H 0.48686 0.53098 0.35211 0.0
C1020 C 0.46304 0.61011 0.37509 0.0
N1021 N 0.45131 0.60263 0.36461 0.0
C1022 C 0.47065 0.62962 0.37402 0.0
C1023 C 0.4532 0.63379 0.35169 0.0
C1024 C 0.44602 0.61411 0.35315 0.0
C1025 C 0.46588 0.64167 0.36215 0.0
H1026 H 0.46633 0.60092 0.38433 0.0
H1027 H 0.43622 0.60804 0.34515 0.0
O1028 O 0.42701 0.52734 0.37287 0.0
O1029 O 0.42274 0.57284 0.38273 0.0
O1030 O 0.46337 0.55599 0.37233 0.0
O1031 O 0.42969 0.56172 0.35059 0.0
H1032 H 0.40665 0.54051 0.39532 0.0
H1033 H 0.41785 0.48917 0.36813 0.0
H1034 H 0.38287 0.51984 0.40901 0.0
H1035 H 0.39381 0.46935 0.38234 0.0
H1036 H 0.38565 0.61984 0.35959 0.0
H1037 H 0.4122 0.59418 0.40528 0.0
H1038 H 0.40663 0.58933 0.35947 0.0
H1039 H 0.39098 0.62468 0.40459 0.0
H1040 H 0.45469 0.50329 0.42546 0.0
H1041 H 0.45629 0.56765 0.43385 0.0
H1042 H 0.35788 0.52617 0.34104 0.0
H1043 H 0.34425 0.55375 0.38187 0.0
H1044 H 0.4898 0.57617 0.38758 0.0
H1045 H 0.46937 0.51677 0.37593 0.0
H1046 H 0.51499 0.56028 0.40298 0.0
H1047 H 0.49517 0.50192 0.39138 0.0
H1048 H 0.46741 0.56967 0.3462 0.0
H1049 H 0.41082 0.56534 0.3261 0.0
H1050 H 0.48188 0.57831 0.32265 0.0
H1051 H 0.42631 0.57416 0.30285 0.0
H1052 H 0.4441 0.49711 0.31697 0.0
H1053 H 0.50209 0.51292 0.33205 0.0
H1054 H 0.47997 0.63531 0.3825 0.0
H1055 H 0.44912 0.64264 0.3424 0.0
Li1056 Li 0.43628 0.44458 0.88468 0.0
Li1057 Li 0.43339 0.41362 0.87052 0.0
Li1058 Li 0.44336 0.44565 0.85954 0.0
Li1059 Li 0.40985 0.44008 0.86749 0.0
C1060 C 0.476 0.42984 0.8701 0.0
N1061 N 0.51402 0.43027 0.85995 0.0
C1062 C 0.48407 0.41245 0.86395 0.0
C1063 C 0.48733 0.4474 0.8712 0.0
C1064 C 0.50331 0.41298 0.85886 0.0
C1065 C 0.50649 0.44733 0.86596 0.0
C1066 C 0.41056 0.40784 0.89302 0.0
C1067 C 0.39521 0.37516 0.89551 0.0
N1068 N 0.40304 0.37338 0.90884 0.0
C1069 C 0.41839 0.40574 0.90677 0.0
C1070 C 0.39878 0.39249 0.88736 0.0
C1071 C 0.41443 0.38819 0.91459 0.0
C1072 C 0.42931 0.46322 0.91145 0.0
N1073 N 0.44321 0.45491 0.90286 0.0
C1074 C 0.46788 0.46062 0.92047 0.0
C1075 C 0.46215 0.45333 0.90712 0.0
C1076 C 0.45396 0.46968 0.92953 0.0
C1077 C 0.43442 0.47091 0.92486 0.0
H1078 H 0.41427 0.46385 0.90789 0.0
H1079 H 0.47279 0.44619 0.90022 0.0
C1080 C 0.43572 0.37449 0.85839 0.0
N1081 N 0.4386 0.38546 0.87052 0.0
C1082 C 0.44145 0.35422 0.85785 0.0
C1083 C 0.45243 0.35687 0.8824 0.0
C1084 C 0.44686 0.37715 0.88238 0.0
C1085 C 0.44999 0.34526 0.86996 0.0
H1086 H 0.42952 0.38163 0.84902 0.0
H1087 H 0.44959 0.38644 0.89169 0.0
C1088 C 0.42559 0.48173 0.87791 0.0
N1089 N 0.42382 0.5164 0.89439 0.0
C1090 C 0.40762 0.48851 0.88324 0.0
C1091 C 0.44264 0.49266 0.88088 0.0
C1092 C 0.40703 0.50607 0.89155 0.0
C1093 C 0.44144 0.51012 0.88927 0.0
C1094 C 0.41089 0.42505 0.8417 0.0
C1095 C 0.41166 0.43946 0.83076 0.0
C1096 C 0.3957 0.41089 0.84194 0.0
C1097 C 0.39707 0.43955 0.82028 0.0
C1098 C 0.38137 0.41151 0.83128 0.0
N1099 N 0.38234 0.42571 0.82076 0.0
C1100 C 0.46892 0.44388 0.83644 0.0
C1101 C 0.46017 0.47737 0.84298 0.0
C1102 C 0.48085 0.45107 0.82549 0.0
N1103 N 0.45913 0.45702 0.84502 0.0
C1104 C 0.47166 0.48525 0.83193 0.0
C1105 C 0.48226 0.47198 0.82312 0.0
H1106 H 0.46734 0.42777 0.83808 0.0
H1107 H 0.45189 0.48743 0.84981 0.0
C1108 C 0.36886 0.43718 0.87095 0.0
N1109 N 0.38342 0.44675 0.86372 0.0
C1110 C 0.34947 0.44333 0.86923 0.0
C1111 C 0.36043 0.46883 0.85247 0.0
C1112 C 0.37961 0.46219 0.85453 0.0
C1113 C 0.34508 0.45956 0.86005 0.0
H1114 H 0.37237 0.4252 0.87837 0.0
H1115 H 0.39156 0.46968 0.84908 0.0
O1116 O 0.45709 0.42973 0.87495 0.0
O1117 O 0.41441 0.42481 0.88514 0.0
O1118 O 0.42652 0.46443 0.8699 0.0
O1119 O 0.42479 0.42497 0.85222 0.0
H1120 H 0.47554 0.39874 0.86298 0.0
H1121 H 0.48132 0.46099 0.87591 0.0
H1122 H 0.5097 0.39967 0.85401 0.0
H1123 H 0.51537 0.46085 0.86664 0.0
H1124 H 0.38624 0.36311 0.89122 0.0
H1125 H 0.42754 0.41745 0.91132 0.0
H1126 H 0.39268 0.39385 0.87671 0.0
H1127 H 0.42046 0.38631 0.92522 0.0
H1128 H 0.48299 0.45886 0.92375 0.0
H1129 H 0.42322 0.47786 0.93143 0.0
H1130 H 0.43941 0.34569 0.84805 0.0
H1131 H 0.4593 0.35054 0.89185 0.0
H1132 H 0.39429 0.48019 0.88112 0.0
H1133 H 0.45667 0.4876 0.87687 0.0
H1134 H 0.39324 0.51144 0.89581 0.0
H1135 H 0.45454 0.51865 0.89173 0.0
H1136 H 0.42329 0.45057 0.83045 0.0
H1137 H 0.39489 0.39966 0.85035 0.0
H1138 H 0.39741 0.45068 0.81178 0.0
H1139 H 0.36945 0.40072 0.83137 0.0
H1140 H 0.48848 0.44038 0.81869 0.0
H1141 H 0.4723 0.50145 0.83028 0.0
H1142 H 0.33814 0.43598 0.87546 0.0
H1143 H 0.35768 0.48127 0.8452 0.0
Li1144 Li 0.05281 0.5503 0.88458 0.0
Li1145 Li 0.05625 0.57969 0.86962 0.0
Li1146 Li 0.0522 0.54681 0.85944 0.0
Li1147 Li 0.08265 0.55416 0.87069 0.0
C1148 C 0.0189 0.57186 0.87869 0.0
N1149 N 0.99026 0.59253 0.89364 0.0
C1150 C 0.02367 0.5824 0.8912 0.0
C1151 C -0.00044 0.57184 0.8738 0.0
C1152 C 0.00898 0.59276 0.8986 0.0
C1153 C 0.98529 0.58238 0.8815 0.0
C1154 C 0.08691 0.58578 0.88969 0.0
C1155 C 0.11029 0.61108 0.88232 0.0
N1156 N 0.11546 0.61393 0.89624 0.0
C1157 C 0.09247 0.58894 0.90392 0.0
C1158 C 0.0959 0.59692 0.87879 0.0
C1159 C 0.10692 0.60325 0.90701 0.0
C1160 C 0.05654 0.53971 0.91326 0.0
N1161 N 0.04342 0.54064 0.90236 0.0
C1162 C 0.01782 0.52871 0.91758 0.0
C1163 C 0.0244 0.53512 0.90419 0.0
C1164 C 0.03097 0.52789 0.92914 0.0
C1165 C 0.05061 0.53334 0.92682 0.0
H1166 H 0.07161 0.544 0.9114 0.0
H1167 H 0.01429 0.5359 0.8953 0.0
C1168 C 0.03817 0.61303 0.85655 0.0
N1169 N 0.04897 0.60751 0.86813 0.0
C1170 C 0.03068 0.63264 0.85546 0.0
C1171 C 0.04541 0.64047 0.87833 0.0
C1172 C 0.05252 0.62072 0.87899 0.0
C1173 C 0.03423 0.64662 0.86649 0.0
H1174 H 0.03484 0.602 0.84837 0.0
H1175 H 0.06024 0.61581 0.88845 0.0
C1176 C 0.05755 0.51129 0.87505 0.0
N1177 N 0.03936 0.4744 0.8792 0.0
C1178 C 0.06865 0.49412 0.87823 0.0
C1179 C 0.03718 0.50969 0.87395 0.0
C1180 C 0.05919 0.4756 0.88029 0.0
C1181 C 0.02827 0.49091 0.87609 0.0
C1182 C 0.07464 0.56323 0.83962 0.0
C1183 C 0.0872 0.54739 0.83584 0.0
C1184 C 0.06462 0.57377 0.82891 0.0
C1185 C 0.08942 0.54228 0.82141 0.0
C1186 C 0.06719 0.56816 0.8146 0.0
N1187 N 0.07942 0.55266 0.81118 0.0
C1188 C 0.02606 0.5409 0.8365 0.0
C1189 C 0.05104 0.51611 0.83856 0.0
C1190 C 0.02008 0.53276 0.82342 0.0
N1191 N 0.04157 0.53277 0.84355 0.0
C1192 C 0.04566 0.50759 0.82548 0.0
C1193 C 0.03032 0.51625 0.8176 0.0
H1194 H 0.01902 0.55432 0.84068 0.0
H1195 H 0.06347 0.51013 0.84433 0.0
C1196 C 0.11602 0.53366 0.87924 0.0
N1197 N 0.10982 0.54897 0.87069 0.0
C1198 C 0.13548 0.52735 0.87878 0.0
C1199 C 0.14196 0.55324 0.8611 0.0
C1200 C 0.12233 0.55905 0.8619 0.0
C1201 C 0.14864 0.53692 0.86941 0.0
H1202 H 0.10569 0.52604 0.88618 0.0
H1203 H 0.11691 0.57111 0.85515 0.0
O1204 O 0.03298 0.56174 0.8711 0.0
O1205 O 0.0729 0.57166 0.88655 0.0
O1206 O 0.0667 0.5295 0.87307 0.0
O1207 O 0.07184 0.56806 0.85373 0.0
H1208 H 0.03851 0.58262 0.89519 0.0
H1209 H 0.99565 0.56378 0.86412 0.0
H1210 H 0.01248 0.60098 0.90829 0.0
H1211 H 0.97027 0.58249 0.87783 0.0
H1212 H 0.11734 0.61982 0.87399 0.0
H1213 H 0.08567 0.58044 0.91248 0.0
H1214 H 0.09176 0.59478 0.86772 0.0
H1215 H 0.11136 0.60587 0.91798 0.0
H1216 H 0.00252 0.52484 0.91892 0.0
H1217 H 0.06131 0.5326 0.93536 0.0
H1218 H 0.02208 0.63674 0.84617 0.0
H1219 H 0.04804 0.65059 0.88725 0.0
H1220 H 0.08443 0.49508 0.87909 0.0
H1221 H 0.02831 0.52276 0.87145 0.0
H1222 H 0.06761 0.46219 0.88277 0.0
H1223 H 0.01253 0.48947 0.87529 0.0
H1224 H 0.09477 0.53877 0.84396 0.0
H1225 H 0.05485 0.58605 0.8316 0.0
H1226 H 0.09894 0.52994 0.81836 0.0
H1227 H 0.05943 0.57611 0.80622 0.0
H1228 H 0.00834 0.54001 0.81755 0.0
H1229 H 0.05384 0.49483 0.82134 0.0
H1230 H 0.14011 0.51493 0.88555 0.0
H1231 H 0.1516 0.56092 0.85366 0.0
Li1232 Li 0.91513 0.55729 0.62189 0.0
Li1233 Li 0.94738 0.54985 0.63204 0.0
Li1234 Li 0.94113 0.58172 0.61937 0.0
Li1235 Li 0.94309 0.54947 0.6066 0.0
C1236 C 0.91531 0.575 0.6475 0.0
N1237 N 0.8863 0.58013 0.66779 0.0
C1238 C 0.91472 0.56253 0.65958 0.0
C1239 C 0.90129 0.5902 0.64581 0.0
C1240 C 0.8999 0.56534 0.66971 0.0
C1241 C 0.88669 0.59251 0.65616 0.0
C1242 C 0.9289 0.51423 0.61351 0.0
C1243 C 0.94363 0.48395 0.60394 0.0
N1244 N 0.92652 0.47948 0.59717 0.0
C1245 C 0.91145 0.5093 0.60652 0.0
C1246 C 0.94511 0.50143 0.61228 0.0
C1247 C 0.91054 0.49166 0.5983 0.0
C1248 C 0.87554 0.55867 0.61347 0.0
N1249 N 0.88796 0.55256 0.62397 0.0
C1250 C 0.86222 0.53467 0.63576 0.0
C1251 C 0.88172 0.54085 0.63502 0.0
C1252 C 0.84913 0.54013 0.62479 0.0
C1253 C 0.85597 0.5526 0.61366 0.0
H1254 H 0.88104 0.56744 0.60457 0.0
H1255 H 0.89206 0.53567 0.64297 0.0
C1256 C 0.97126 0.5501 0.65651 0.0
N1257 N 0.96007 0.53808 0.648 0.0
C1258 C 0.98006 0.54218 0.66874 0.0
C1259 C 0.96496 0.50988 0.66358 0.0
C1260 C 0.9568 0.51832 0.65124 0.0
C1261 C 0.97675 0.52191 0.67245 0.0
H1262 H 0.97305 0.56593 0.65393 0.0
H1263 H 0.94747 0.50926 0.64443 0.0
C1264 C 0.9195 0.58728 0.59578 0.0
N1265 N 0.91268 0.62081 0.57885 0.0
C1266 C 0.9285 0.58897 0.58239 0.0
C1267 C 0.9069 0.60255 0.60051 0.0
C1268 C 0.92488 0.60606 0.574 0.0
C1269 C 0.90369 0.61941 0.59182 0.0
C1270 C 0.98226 0.56252 0.62295 0.0
C1271 C 0.99116 0.58007 0.62819 0.0
C1272 C 0.99212 0.54403 0.62385 0.0
C1273 C 0.00975 0.57878 0.63438 0.0
C1274 C 0.01067 0.54337 0.63014 0.0
N1275 N 0.01903 0.56062 0.63523 0.0
C1276 C 0.94521 0.6213 0.63039 0.0
C1277 C 0.95655 0.61687 0.60662 0.0
C1278 C 0.95143 0.64143 0.63036 0.0
N1279 N 0.94789 0.60952 0.61863 0.0
C1280 C 0.96258 0.637 0.60599 0.0
C1281 C 0.96033 0.64958 0.61804 0.0
H1282 H 0.9387 0.6149 0.63992 0.0
H1283 H 0.95905 0.60699 0.59758 0.0
C1284 C 0.93652 0.53308 0.57927 0.0
N1285 N 0.95057 0.53735 0.58911 0.0
C1286 C 0.94169 0.52526 0.56592 0.0
C1287 C 0.97567 0.52616 0.57322 0.0
C1288 C 0.96983 0.53396 0.58641 0.0
C1289 C 0.96153 0.52196 0.5627 0.0
H1290 H 0.92132 0.53621 0.58169 0.0
H1291 H 0.98069 0.53766 0.59439 0.0
O1292 O 0.9296 0.57239 0.63741 0.0
O1293 O 0.93023 0.53165 0.62134 0.0
O1294 O 0.92298 0.57075 0.60421 0.0
O1295 O 0.96401 0.56345 0.61695 0.0
H1296 H 0.92547 0.5507 0.66107 0.0
H1297 H 0.90165 0.60007 0.63658 0.0
H1298 H 0.8992 0.55573 0.67907 0.0
H1299 H 0.87568 0.60415 0.65496 0.0
H1300 H 0.95608 0.47397 0.60281 0.0
H1301 H 0.89879 0.51907 0.60732 0.0
H1302 H 0.95873 0.50506 0.61761 0.0
H1303 H 0.89716 0.4877 0.59277 0.0
H1304 H 0.85761 0.52529 0.64464 0.0
H1305 H 0.84659 0.55687 0.60482 0.0
H1306 H 0.98876 0.55198 0.67553 0.0
H1307 H 0.96199 0.49422 0.66624 0.0
H1308 H 0.93834 0.57732 0.57858 0.0
H1309 H 0.89976 0.60141 0.61082 0.0
H1310 H 0.93183 0.60763 0.56365 0.0
H1311 H 0.89405 0.63139 0.59538 0.0
H1312 H 0.98377 0.59451 0.62758 0.0
H1313 H 0.98541 0.53029 0.61993 0.0
H1314 H 0.01678 0.59223 0.63853 0.0
H1315 H 0.01841 0.52914 0.631 0.0
H1316 H 0.94974 0.65027 0.64003 0.0
H1317 H 0.96904 0.64253 0.59616 0.0
H1318 H 0.93036 0.52248 0.55805 0.0
H1319 H 0.9911 0.52362 0.57123 0.0
Li1320 Li 0.56111 0.4487 0.63569 0.0
Li1321 Li 0.58903 0.44235 0.6198 0.0
Li1322 Li 0.55662 0.45236 0.61093 0.0
Li1323 Li 0.56079 0.4184 0.62146 0.0
C1324 C 0.57423 0.48664 0.61683 0.0
N1325 N 0.57259 0.52364 0.60308 0.0
C1326 C 0.59051 0.49389 0.60935 0.0
C1327 C 0.5572 0.49836 0.61747 0.0
C1328 C 0.58938 0.5126 0.60244 0.0
C1329 C 0.55663 0.51697 0.6104 0.0
C1330 C 0.59317 0.41041 0.63883 0.0
C1331 C 0.61334 0.38324 0.62988 0.0
N1332 N 0.61986 0.37966 0.64341 0.0
C1333 C 0.60007 0.40646 0.65264 0.0
C1334 C 0.59986 0.39872 0.62735 0.0
C1335 C 0.61356 0.39085 0.65473 0.0
C1336 C 0.55633 0.44458 0.66499 0.0
N1337 N 0.5553 0.4584 0.65426 0.0
C1338 C 0.54826 0.48484 0.67093 0.0
C1339 C 0.55132 0.47821 0.6569 0.0
C1340 C 0.54969 0.47095 0.68224 0.0
C1341 C 0.5536 0.45056 0.67914 0.0
H1342 H 0.55945 0.42893 0.66253 0.0
H1343 H 0.55076 0.48888 0.64816 0.0
C1344 C 0.62419 0.44933 0.60446 0.0
N1345 N 0.61636 0.44539 0.61755 0.0
C1346 C 0.64402 0.45423 0.6032 0.0
C1347 C 0.6474 0.45001 0.62881 0.0
C1348 C 0.6275 0.44552 0.6296 0.0
C1349 C 0.65578 0.45484 0.61552 0.0
H1350 H 0.61485 0.44954 0.5951 0.0
H1351 H 0.62077 0.44286 0.63991 0.0
C1352 C 0.52475 0.43971 0.63432 0.0
N1353 N 0.49715 0.44403 0.65576 0.0
C1354 C 0.52046 0.4235 0.6434 0.0
C1355 C 0.5149 0.45809 0.63609 0.0
C1356 C 0.50648 0.42599 0.65418 0.0
C1357 C 0.50103 0.45998 0.64701 0.0
C1358 C 0.57407 0.42122 0.5911 0.0
C1359 C 0.55718 0.42124 0.58264 0.0
C1360 C 0.59122 0.41235 0.58585 0.0
C1361 C 0.5577 0.41228 0.5691 0.0
C1362 C 0.59114 0.40353 0.57226 0.0
N1363 N 0.57453 0.40368 0.56423 0.0
C1364 C 0.55588 0.47291 0.58467 0.0
C1365 C 0.52463 0.46795 0.5952 0.0
C1366 C 0.54736 0.48157 0.57257 0.0
N1367 N 0.54444 0.46622 0.59559 0.0
C1368 C 0.51549 0.47651 0.5833 0.0
C1369 C 0.52688 0.48318 0.5717 0.0
H1370 H 0.57159 0.47093 0.58519 0.0
H1371 H 0.51591 0.46216 0.60394 0.0
C1372 C 0.55433 0.37909 0.63276 0.0
N1373 N 0.55261 0.39073 0.62082 0.0
C1374 C 0.547 0.35937 0.63292 0.0
C1375 C 0.53632 0.36389 0.60848 0.0
C1376 C 0.54375 0.38354 0.60883 0.0
C1377 C 0.5377 0.35156 0.62069 0.0
H1378 H 0.56081 0.38532 0.64235 0.0
H1379 H 0.54195 0.39319 0.59964 0.0
O1380 O 0.57497 0.46821 0.6235 0.0
O1381 O 0.58005 0.42576 0.63665 0.0
O1382 O 0.53881 0.43773 0.62397 0.0
O1383 O 0.57405 0.43031 0.60428 0.0
H1384 H 0.60388 0.4852 0.60887 0.0
H1385 H 0.54443 0.49299 0.62314 0.0
H1386 H 0.60185 0.51833 0.59656 0.0
H1387 H 0.54348 0.52608 0.61069 0.0
H1388 H 0.6186 0.37406 0.6211 0.0
H1389 H 0.5951 0.41542 0.66164 0.0
H1390 H 0.59463 0.40147 0.61662 0.0
H1391 H 0.61904 0.38765 0.66536 0.0
H1392 H 0.54531 0.50069 0.67295 0.0
H1393 H 0.55449 0.43936 0.68758 0.0
H1394 H 0.65 0.45791 0.59277 0.0
H1395 H 0.65593 0.45067 0.63858 0.0
H1396 H 0.52797 0.40921 0.64223 0.0
H1397 H 0.51807 0.47083 0.62923 0.0
H1398 H 0.5031 0.41359 0.66133 0.0
H1399 H 0.49339 0.47415 0.64855 0.0
H1400 H 0.54371 0.42783 0.58655 0.0
H1401 H 0.60446 0.41226 0.59221 0.0
H1402 H 0.54471 0.41212 0.56247 0.0
H1403 H 0.6043 0.39659 0.56808 0.0
H1404 H 0.55667 0.48619 0.56377 0.0
H1405 H 0.49967 0.4776 0.58309 0.0
H1406 H 0.54805 0.3506 0.64269 0.0
H1407 H 0.52941 0.3585 0.59876 0.0
C1408 C 0.31272 0.96892 0.11083 0.0
C1409 C 0.3239 0.96818 0.12344 0.0
C1410 C 0.2936 0.97645 0.11106 0.0
C1411 C 0.25246 0.98875 0.13557 0.0
H1412 H 0.23583 0.02316 0.10421 0.0
C1413 C 0.18117 0.03581 0.13744 0.0
C1414 C 0.16941 0.03538 0.12509 0.0
C1415 C 0.20003 0.02759 0.13726 0.0
C1416 C 0.24021 0.01344 0.11298 0.0
H1417 H 0.32384 0.97478 0.14618 0.0
H1418 H 0.29059 0.98811 0.14658 0.0
H1419 H 0.2685 0.00833 0.10386 0.0
H1420 H 0.16827 0.02572 0.10288 0.0
H1421 H 0.20124 0.01172 0.10252 0.0
H1422 H 0.22419 0.99413 0.14475 0.0
C1423 C 0.29641 0.9825 0.13655 0.0
C1424 C 0.25891 0.00488 0.11277 0.0
C1425 C 0.31548 0.97487 0.13633 0.0
C1426 C 0.17704 0.02671 0.11251 0.0
C1427 C 0.19593 0.01861 0.11231 0.0
C1428 C 0.2338 0.99742 0.13582 0.0
C1429 C 0.28528 0.98354 0.1239 0.0
C1430 C 0.26526 0.9924 0.12405 0.0
C1431 C 0.20758 0.01886 0.1247 0.0
C1432 C 0.22747 0.00984 0.12452 0.0
H1433 H 0.31876 0.96364 0.10077 0.0
H1434 H 0.28533 0.97667 0.10117 0.0
H1435 H 0.25676 0.97898 0.14433 0.0
H1436 H 0.17585 0.04261 0.14726 0.0
H1437 H 0.20879 0.02824 0.14692 0.0
C1438 C 0.67383 0.98266 0.35246 0.0
C1439 C 0.67044 0.96307 0.35778 0.0
C1440 C 0.69271 0.99082 0.35244 0.0
C1441 C 0.74031 0.98532 0.3706 0.0
H1442 H 0.75972 0.01824 0.33929 0.0
C1443 C 0.82078 0.01026 0.36701 0.0
C1444 C 0.82463 0.03032 0.36287 0.0
C1445 C 0.80189 0.00236 0.36612 0.0
C1446 C 0.75441 0.00926 0.34818 0.0
H1447 H 0.68429 0.93637 0.36667 0.0
H1448 H 0.71727 0.95053 0.36652 0.0
H1449 H 0.72702 0.00341 0.3378 0.0
H1450 H 0.81157 0.05782 0.35455 0.0
H1451 H 0.77845 0.04394 0.35295 0.0
H1452 H 0.76767 0.9911 0.38096 0.0
C1453 C 0.70528 0.95975 0.36264 0.0
C1454 C 0.7357 0.00075 0.34732 0.0
C1455 C 0.68641 0.95162 0.3627 0.0
C1456 C 0.80912 0.04226 0.3577 0.0
C1457 C 0.79017 0.03431 0.35678 0.0
C1458 C 0.759 0.99378 0.37143 0.0
C1459 C 0.7086 0.97955 0.35771 0.0
C1460 C 0.72848 0.98861 0.3585 0.0
C1461 C 0.78636 0.01429 0.36103 0.0
C1462 C 0.76629 0.00577 0.36021 0.0
H1463 H 0.66178 0.99197 0.34878 0.0
H1464 H 0.69473 0.0062 0.34872 0.0
H1465 H 0.73504 0.9764 0.37953 0.0
H1466 H 0.83246 0.00049 0.37072 0.0
H1467 H 0.79949 0.98676 0.36922 0.0
C1468 C 0.81231 0.96406 0.85018 0.0
C1469 C 0.82443 0.96858 0.86185 0.0
C1470 C 0.79346 0.97222 0.84937 0.0
C1471 C 0.75572 0.99818 0.87181 0.0
H1472 H 0.73286 0.01076 0.83485 0.0
C1473 C 0.6849 0.04489 0.86455 0.0
C1474 C 0.66973 0.03392 0.8579 0.0
C1475 C 0.70412 0.03768 0.86432 0.0
C1476 C 0.73915 0.0073 0.84521 0.0
H1477 H 0.82691 0.98546 0.88161 0.0
H1478 H 0.79448 0.00057 0.87995 0.0
H1479 H 0.76593 0.99679 0.83602 0.0
H1480 H 0.66327 0.00689 0.84546 0.0
H1481 H 0.69702 0.995 0.84452 0.0
H1482 H 0.72906 0.00947 0.88092 0.0
C1483 C 0.79898 0.99009 0.87167 0.0
C1484 C 0.758 -0.00087 0.84593 0.0
C1485 C 0.81762 0.98156 0.87261 0.0
C1486 C 0.6745 0.01601 0.85049 0.0
C1487 C 0.6938 0.00906 0.85001 0.0
C1488 C 0.73708 0.00676 0.87109 0.0
C1489 C 0.78655 0.98545 0.86009 0.0
C1490 C 0.76652 0.99434 0.85925 0.0
C1491 C 0.70865 0.01964 0.85716 0.0
C1492 C 0.72864 0.01128 0.8578 0.0
H1493 H 0.81734 0.95401 0.84178 0.0
H1494 H 0.78426 0.96795 0.84043 0.0
H1495 H 0.76149 0.99428 0.88225 0.0
H1496 H 0.68195 0.05897 0.87006 0.0
H1497 H 0.71546 0.04614 0.86981 0.0
C1498 C 0.18383 0.96129 0.62328 0.0
C1499 C 0.17108 0.96372 0.61163 0.0
C1500 C 0.20289 0.96883 0.62266 0.0
C1501 C 0.24073 0.98902 0.59782 0.0
H1502 H 0.26035 0.01398 0.63257 0.0
C1503 C 0.31137 0.03788 0.60035 0.0
C1504 C 0.32436 0.03298 0.61152 0.0
C1505 C 0.29262 0.02937 0.59988 0.0
C1506 C 0.25509 0.00696 0.62282 0.0
H1507 H 0.16825 0.97551 0.59009 0.0
H1508 H 0.20144 0.98915 0.58908 0.0
H1509 H 0.22796 0.99864 0.6325 0.0
H1510 H 0.32787 0.0148 0.63075 0.0
H1511 H 0.29508 0.00055 0.63011 0.0
H1512 H 0.2679 0.99785 0.58812 0.0
C1513 C 0.19691 0.98106 0.5986 0.0
C1514 C 0.23659 0.99805 0.62278 0.0
C1515 C 0.17789 0.97329 0.59917 0.0
C1516 C 0.31813 0.01939 0.62219 0.0
C1517 C 0.29938 0.01109 0.6218 0.0
C1518 C 0.25921 0.99815 0.59783 0.0
C1519 C 0.20953 0.97923 0.61044 0.0
C1520 C 0.22923 0.98879 0.61032 0.0
C1521 C 0.28646 0.01597 0.61065 0.0
C1522 C 0.2666 0.00704 0.61037 0.0
H1523 H 0.17896 0.95375 0.63294 0.0
H1524 H 0.21235 0.96668 0.63183 0.0
H1525 H 0.23562 0.98185 0.58808 0.0
H1526 H 0.31559 0.04844 0.59204 0.0
H1527 H 0.28284 0.03349 0.59123 0.0
C1528 C 0.81591 0.4892 0.12854 0.0
C1529 C 0.81987 0.46867 0.12573 0.0
C1530 C 0.79675 0.4965 0.1283 0.0
C1531 C 0.74832 0.48722 0.1133 0.0
H1532 H 0.73002 0.52039 0.14484 0.0
C1533 C 0.66768 0.51248 0.11805 0.0
C1534 C 0.66387 0.53184 0.12359 0.0
C1535 C 0.68665 0.50459 0.11824 0.0
C1536 C 0.73496 0.51142 0.13583 0.0
H1537 H 0.80659 0.4398 0.12039 0.0
H1538 H 0.7731 0.45278 0.11961 0.0
H1539 H 0.76323 0.50689 0.14524 0.0
H1540 H 0.67689 0.5583 0.13341 0.0
H1541 H 0.71015 0.54481 0.1334 0.0
H1542 H 0.72031 0.49211 0.10368 0.0
C1543 C 0.78496 0.46312 0.12204 0.0
C1544 C 0.75395 0.50361 0.13611 0.0
C1545 C 0.80414 0.45572 0.12244 0.0
C1546 C 0.67941 0.54325 0.1292 0.0
C1547 C 0.69844 0.53545 0.12924 0.0
C1548 C 0.72939 0.49523 0.11293 0.0
C1549 C 0.7811 0.48355 0.12506 0.0
C1550 C 0.76081 0.49145 0.12485 0.0
C1551 C 0.70228 0.51596 0.12385 0.0
C1552 C 0.72246 0.50745 0.12419 0.0
H1553 H 0.82765 0.49976 0.13075 0.0
H1554 H 0.7942 0.51239 0.13045 0.0
H1555 H 0.75335 0.47807 0.1044 0.0
H1556 H 0.6559 0.50324 0.11386 0.0
H1557 H 0.68895 0.48939 0.11424 0.0
C1558 C 0.31198 0.54353 0.36454 0.0
C1559 C 0.32786 0.53142 0.36029 0.0
C1560 C 0.293 0.53566 0.36471 0.0
C1561 C 0.26243 0.49365 0.35096 0.0
H1562 H 0.22992 0.5063 0.38382 0.0
C1563 C 0.18921 0.45269 0.36231 0.0
C1564 C 0.17346 0.4649 0.36671 0.0
C1565 C 0.20812 0.4607 0.3614 0.0
C1566 C 0.23874 0.50278 0.3745 0.0
H1567 H 0.33625 0.50158 0.3528 0.0
H1568 H 0.30316 0.48785 0.3531 0.0
H1569 H 0.26258 0.52091 0.38198 0.0
H1570 H 0.1652 0.4952 0.37333 0.0
H1571 H 0.19813 0.50906 0.37185 0.0
H1572 H 0.23857 0.47542 0.34353 0.0
C1573 C 0.30532 0.50353 0.3561 0.0
C1574 C 0.25744 0.51119 0.37343 0.0
C1575 C 0.32429 0.51141 0.35591 0.0
C1576 C 0.17705 0.48525 0.37021 0.0
C1577 C 0.19593 0.49323 0.36932 0.0
C1578 C 0.24372 0.48521 0.35204 0.0
C1579 C 0.28948 0.51549 0.36067 0.0
C1580 C 0.26949 0.50675 0.36164 0.0
C1581 C 0.21167 0.48106 0.36488 0.0
C1582 C 0.23167 0.48972 0.36382 0.0
H1583 H 0.31425 0.55908 0.3678 0.0
H1584 H 0.28106 0.54537 0.36804 0.0
H1585 H 0.27126 0.49012 0.34165 0.0
H1586 H 0.18695 0.4369 0.35968 0.0
H1587 H 0.22001 0.45088 0.35812 0.0
C1588 C 0.18485 0.54263 0.86676 0.0
C1589 C 0.16893 0.52924 0.86786 0.0
C1590 C 0.2039 0.5352 0.86523 0.0
C1591 C 0.23353 0.48928 0.87128 0.0
H1592 H 0.27008 0.51488 0.84517 0.0
C1593 C 0.30872 0.45422 0.85889 0.0
C1594 C 0.3248 0.46749 0.85908 0.0
C1595 C 0.28962 0.46175 0.85906 0.0
C1596 C 0.26007 0.50767 0.85258 0.0
H1597 H 0.16045 0.49761 0.86779 0.0
H1598 H 0.1936 0.48469 0.86509 0.0
H1599 H 0.2369 0.52827 0.84748 0.0
H1600 H 0.3334 0.49909 0.85945 0.0
H1601 H 0.30007 0.51221 0.85968 0.0
H1602 H 0.25666 0.46872 0.87641 0.0
C1603 C 0.19145 0.5009 0.86572 0.0
C1604 C 0.24109 0.51536 0.85393 0.0
C1605 C 0.17244 0.50831 0.86727 0.0
C1606 C 0.32134 0.48846 0.85908 0.0
C1607 C 0.30224 0.49599 0.85923 0.0
C1608 C 0.25246 0.48158 0.86991 0.0
C1609 C 0.20741 0.51425 0.86473 0.0
C1610 C 0.22761 0.50623 0.8633 0.0
C1611 C 0.28618 0.48271 0.85942 0.0
C1612 C 0.26594 0.49068 0.86055 0.0
H1613 H 0.1826 0.55883 0.8673 0.0
H1614 H 0.21592 0.54587 0.86467 0.0
H1615 H 0.22361 0.48212 0.87878 0.0
H1616 H 0.31091 0.43799 0.85867 0.0
H1617 H 0.27752 0.45115 0.85896 0.0
C1618 C 0.68079 0.48011 0.60768 0.0
C1619 C 0.67627 0.46202 0.61483 0.0
C1620 C 0.69967 0.48816 0.60833 0.0
C1621 C 0.74461 0.48589 0.63051 0.0
H1622 H 0.76746 0.51526 0.59868 0.0
C1623 C 0.82535 0.51172 0.62886 0.0
C1624 C 0.82893 0.53173 0.62441 0.0
C1625 C 0.80663 0.50338 0.62784 0.0
C1626 C 0.76115 0.50724 0.60768 0.0
H1627 H 0.68805 0.43766 0.62771 0.0
H1628 H 0.72124 0.4513 0.62848 0.0
H1629 H 0.73543 0.49937 0.59588 0.0
H1630 H 0.81535 0.55877 0.61571 0.0
H1631 H 0.78272 0.54394 0.61361 0.0
H1632 H 0.77061 0.49345 0.64217 0.0
C1633 C 0.71009 0.45965 0.62273 0.0
C1634 C 0.74281 0.49815 0.6061 0.0
C1635 C 0.69114 0.45174 0.62221 0.0
C1636 C 0.81323 0.54322 0.61903 0.0
C1637 C 0.79453 0.53478 0.61785 0.0
C1638 C 0.76304 0.49477 0.63202 0.0
C1639 C 0.71451 0.47817 0.61603 0.0
C1640 C 0.73428 0.4874 0.61752 0.0
C1641 C 0.7911 0.51475 0.62219 0.0
C1642 C 0.77145 0.50557 0.62064 0.0
H1643 H 0.6695 0.48849 0.60208 0.0
H1644 H 0.70243 0.50258 0.60322 0.0
H1645 H 0.73835 0.47813 0.63964 0.0
H1646 H 0.83711 0.50222 0.63276 0.0
H1647 H 0.80441 0.48782 0.63111 0.0
C1648 C 0.96779 0.9827 0.29654 0.0
C1649 C 0.97793 0.99766 0.30428 0.0
C1650 C 0.97434 0.97666 0.28302 0.0
C1651 C 0.01563 0.98088 0.25713 0.0
H1652 H 0.97416 0.98744 0.22914 0.0
C1653 C 0.00769 0.01539 0.19807 0.0
C1654 C 0.02231 0.00521 0.19027 0.0
C1655 C 0.00184 0.00841 0.21147 0.0
C1656 C 0.98586 0.98531 0.23683 0.0
H1657 H 0.00359 0.01705 0.30422 0.0
H1658 H 0.01501 0.00646 0.28079 0.0
H1659 H 0.96596 0.98512 0.25446 0.0
H1660 H 0.04185 0.97928 0.19043 0.0
H1661 H 0.03196 0.96748 0.2142 0.0
H1662 H 0.03559 0.98234 0.23945 0.0
C1663 C 0.0021 -0.00076 0.28519 0.0
C1664 C 0.98117 0.98378 0.25132 0.0
C1665 C 0.99552 0.00534 0.29866 0.0
C1666 C 0.03074 0.98767 0.19621 0.0
C1667 C 0.02503 0.98082 0.20976 0.0
C1668 C 0.02032 0.9823 0.24259 0.0
C1669 C 0.99122 0.98537 0.27701 0.0
C1670 C 0.99605 0.98236 0.26167 0.0
C1671 C 0.01059 0.99122 0.21754 0.0
C1672 C 0.00551 0.98536 0.23238 0.0
H1673 H 0.9544 0.97619 0.30071 0.0
H1674 H 0.96581 0.96574 0.27703 0.0
H1675 H 0.02738 0.97958 0.26486 0.0
H1676 H 0.00119 0.02921 0.19407 0.0
H1677 H 0.99098 0.017 0.21736 0.0
C1678 C 0.48813 0.99329 0.19736 0.0
C1679 C 0.47023 -0.00014 0.19154 0.0
C1680 C 0.49372 -0.00086 0.21111 0.0
C1681 C 0.47105 0.01095 0.24503 0.0
H1682 H 0.52489 0.01796 0.25732 0.0
C1683 C 0.52072 0.00981 0.30018 0.0
C1684 C 0.51446 0.99095 0.3055 0.0
C1685 C 0.51407 0.01684 0.2869 0.0
C1686 C 0.50973 0.01643 0.25408 0.0
H1687 H 0.44491 0.01901 0.19525 0.0
H1688 H 0.45454 0.02885 0.21947 0.0
H1689 H 0.51668 0.02084 0.23192 0.0
H1690 H 0.49606 0.96489 0.30097 0.0
H1691 H 0.48417 0.97739 0.2782 0.0
H1692 H 0.46426 0.00554 0.26708 0.0
C1693 C 0.46413 0.01906 0.21335 0.0
C1694 C 0.50506 0.01792 0.23955 0.0
C1695 C 0.45859 0.01333 0.19952 0.0
C1696 C 0.50088 0.97968 0.29746 0.0
C1697 C 0.49407 0.98682 0.28434 0.0
C1698 C 0.47573 0.00932 0.25953 0.0
C1699 C 0.48151 0.01159 0.21941 0.0
C1700 C 0.4858 0.01445 0.23484 0.0
C1701 C 0.50082 0.00529 0.27882 0.0
C1702 C 0.49523 0.0113 0.26411 0.0
H1703 H 0.49735 0.98269 0.19164 0.0
H1704 H 0.50705 0.99286 0.21556 0.0
H1705 H 0.4561 0.00807 0.24174 0.0
H1706 H 0.53093 0.01905 0.30617 0.0
H1707 H 0.51944 0.03118 0.28288 0.0
C1708 C 0.05326 0.96948 0.70398 0.0
C1709 C 0.04055 0.97765 0.69369 0.0
C1710 C 0.05023 0.97323 0.71849 0.0
C1711 C 0.02223 0.00412 0.7447 0.0
H1712 H 0.0252 0.95496 0.76724 0.0
C1713 C 0.98205 0.9915 0.79854 0.0
C1714 C 0.99075 0.97849 0.80857 0.0
C1715 C 0.99125 0.99525 0.78542 0.0
C1716 C 0.02469 0.96897 0.76123 0.0
H1717 H 0.01535 0.99696 0.69034 0.0
H1718 H 0.00966 0.00314 0.71585 0.0
H1719 H 0.0355 0.95445 0.74246 0.0
H1720 H 0.01654 0.96073 0.81347 0.0
H1721 H 0.03283 0.96762 0.79074 0.0
H1722 H 0.01074 0.0184 0.76356 0.0
C1723 C 0.02216 0.9941 0.71269 0.0
C1724 C 0.03059 0.96867 0.74698 0.0
C1725 C 0.02533 0.9905 0.69811 0.0
C1726 C 0.00942 0.97055 0.80578 0.0
C1727 C 0.01869 0.97445 0.79276 0.0
C1728 C 0.01628 0.00443 0.75905 0.0
C1729 C 0.03427 0.98502 0.72305 0.0
C1730 C 0.02929 0.98616 0.73849 0.0
C1731 C 0.00934 0.98615 0.78221 0.0
C1732 C 0.01729 0.98677 0.76743 0.0
H1733 H 0.06534 0.95985 0.7008 0.0
H1734 H 0.0601 0.96641 0.72619 0.0
H1735 H 0.0212 0.01789 0.73846 0.0
H1736 H 0.96761 0.99772 0.80045 0.0
H1737 H 0.98361 0.00422 0.77749 0.0
C1738 C 0.43948 0.02999 0.70344 0.0
C1739 C 0.45261 0.02308 0.69296 0.0
C1740 C 0.4425 0.02538 0.71783 0.0
C1741 C 0.47136 0.99354 0.74298 0.0
H1742 H 0.4658 0.04037 0.76766 0.0
C1743 C 0.51059 0.00357 0.7974 0.0
C1744 C 0.50125 0.01525 0.80794 0.0
C1745 C 0.50158 0.0004 0.78415 0.0
C1746 C 0.46703 0.02697 0.76104 0.0
H1747 H 0.47871 0.00524 0.68916 0.0
H1748 H 0.48434 0.99755 0.71444 0.0
H1749 H 0.45582 0.04262 0.74285 0.0
H1750 H 0.47458 0.03111 0.81354 0.0
H1751 H 0.45863 0.0252 0.79054 0.0
H1752 H 0.48327 0.97818 0.76125 0.0
C1753 C 0.47151 0.00624 0.71151 0.0
C1754 C 0.46132 0.02827 0.74676 0.0
C1755 C 0.46836 0.01071 0.69706 0.0
C1756 C 0.48217 0.02231 0.80547 0.0
C1757 C 0.4731 0.01899 0.79231 0.0
C1758 C 0.47713 0.99224 0.75734 0.0
C1759 C 0.45886 0.01395 0.72209 0.0
C1760 C 0.46359 0.01168 0.73751 0.0
C1761 C 0.48304 0.00875 0.78129 0.0
C1762 C 0.4752 0.00904 0.76647 0.0
H1763 H 0.427 0.03921 0.70051 0.0
H1764 H 0.43224 0.03116 0.72568 0.0
H1765 H 0.47311 0.98043 0.73614 0.0
H1766 H 0.52536 0.99806 0.79905 0.0
H1767 H 0.50967 0.99255 0.77586 0.0
C1768 C 0.53324 0.49218 0.20025 0.0
C1769 C 0.52176 0.50742 0.19391 0.0
C1770 C 0.52857 0.48471 0.21384 0.0
C1771 C 0.48914 0.48325 0.24116 0.0
H1772 H 0.53182 0.48531 0.26851 0.0
C1773 C 0.49822 0.50686 0.30248 0.0
C1774 C 0.48286 0.49612 0.30902 0.0
C1775 C 0.50462 0.50173 0.28878 0.0
C1776 C 0.51979 0.48442 0.26097 0.0
H1777 H 0.4962 0.5265 0.19685 0.0
H1778 H 0.48802 0.51341 0.22037 0.0
H1779 H 0.53879 0.48843 0.24298 0.0
H1780 H 0.46303 0.47068 0.30656 0.0
H1781 H 0.47398 0.46203 0.28239 0.0
H1782 H 0.47003 0.48054 0.2592 0.0
C1783 C 0.50045 0.50699 0.21477 0.0
C1784 C 0.52379 0.48604 0.24635 0.0
C1785 C 0.50517 0.51452 0.20126 0.0
C1786 C 0.47467 0.47949 0.30175 0.0
C1787 C 0.48098 0.47446 0.28794 0.0
C1788 C 0.48516 0.48156 0.25577 0.0
C1789 C 0.51226 0.49224 0.2213 0.0
C1790 C 0.50842 0.4863 0.23635 0.0
C1791 C 0.49573 0.48583 0.28122 0.0
C1792 C 0.50037 0.48295 0.26585 0.0
H1793 H 0.54594 0.48615 0.19477 0.0
H1794 H 0.53785 0.47324 0.21859 0.0
H1795 H 0.47704 0.48312 0.23366 0.0
H1796 H 0.50463 0.52001 0.30756 0.0
H1797 H 0.51576 0.51103 0.2838 0.0
C1798 C 0.03525 0.51053 0.29406 0.0
C1799 C 0.02411 0.49728 0.3026 0.0
C1800 C 0.02809 0.51724 0.28086 0.0
C1801 C 0.98322 0.51958 0.25838 0.0
H1802 H 0.01848 0.50694 0.22707 0.0
C1803 C 0.95733 0.48716 0.20537 0.0
C1804 C 0.96696 0.49214 0.19258 0.0
C1805 C 0.96381 0.49498 0.21838 0.0
C1806 C 0.00856 0.51108 0.23564 0.0
H1807 H 0.99639 0.48129 0.30408 0.0
H1808 H 0.98391 0.49316 0.28133 0.0
H1809 H 0.03104 0.50829 0.25146 0.0
H1810 H 0.99043 0.50977 0.18321 0.0
H1811 H 0.00203 0.52338 0.20615 0.0
H1812 H 0.96052 0.5212 0.24262 0.0
C1813 C -0.00193 0.49859 0.28487 0.0
C1814 C 0.01577 0.51186 0.24963 0.0
C1815 C 0.00527 0.49176 0.29797 0.0
C1816 C 0.98278 0.50572 0.19295 0.0
C1817 C 0.98942 0.51343 0.20604 0.0
C1818 C 0.97603 0.5188 0.24441 0.0
C1819 C 0.00957 0.51099 0.27602 0.0
C1820 C 0.00299 0.51519 0.26119 0.0
C1821 C 0.98015 0.50789 0.2189 0.0
C1822 C 0.98846 0.51361 0.23299 0.0
H1823 H 0.04969 0.51536 0.29743 0.0
H1824 H 0.0372 0.52691 0.27428 0.0
H1825 H 0.97312 0.52256 0.26707 0.0
H1826 H 0.94495 0.4769 0.20534 0.0
H1827 H 0.95653 0.49018 0.22811 0.0
C1828 C 0.56049 0.47085 0.70776 0.0
C1829 C 0.54723 0.47747 0.69728 0.0
C1830 C 0.55718 0.47509 0.72217 0.0
C1831 C 0.52701 0.50512 0.74757 0.0
H1832 H 0.53222 0.4571 0.7711 0.0
C1833 C 0.48523 0.49193 0.80052 0.0
C1834 C 0.4939 0.47951 0.81092 0.0
C1835 C 0.49499 0.4959 0.78767 0.0
C1836 C 0.53109 0.47084 0.76483 0.0
H1837 H 0.52068 0.49458 0.6935 0.0
H1838 H 0.51461 0.50169 0.71881 0.0
H1839 H 0.54337 0.45636 0.74652 0.0
H1840 H 0.52012 0.46307 0.81679 0.0
H1841 H 0.53746 0.47047 0.79455 0.0
H1842 H 0.51409 0.51933 0.76593 0.0
C1843 C 0.52772 0.49347 0.71587 0.0
C1844 C 0.53747 0.4704 0.75069 0.0
C1845 C 0.53113 0.48934 0.70139 0.0
C1846 C 0.51305 0.47245 0.8088 0.0
C1847 C 0.52291 0.47662 0.79606 0.0
C1848 C 0.52062 0.50558 0.76181 0.0
C1849 C 0.54044 0.4859 0.72643 0.0
C1850 C 0.53528 0.48741 0.74182 0.0
C1851 C 0.51366 0.48765 0.7851 0.0
C1852 C 0.52235 0.48833 0.77053 0.0
H1853 H 0.57324 0.46201 0.70482 0.0
H1854 H 0.56747 0.46942 0.73004 0.0
H1855 H 0.52529 0.51852 0.74102 0.0
H1856 H 0.47041 0.49745 0.80192 0.0
H1857 H 0.48739 0.50433 0.77943 0.0
C1858 C 0.00709 0.50701 0.79785 0.0
C1859 C 0.02637 0.50958 0.80275 0.0
C1860 C 0.00345 0.50303 0.7834 0.0
C1861 C 0.02399 0.51482 0.74883 0.0
H1862 H 0.98621 0.47646 0.73388 0.0
C1863 C 0.00446 0.51591 0.68933 0.0
C1864 C 0.98451 0.51397 0.68607 0.0
C1865 C 0.01137 0.51081 0.70292 0.0
C1866 C 0.99671 0.48735 0.73788 0.0
H1867 H 0.05697 0.50953 0.79652 0.0
H1868 H 0.05057 0.50273 0.77126 0.0
H1869 H 0.99458 0.4759 0.75934 0.0
H1870 H 0.95619 0.50464 0.6941 0.0
H1871 H 0.96798 0.49653 0.71804 0.0
H1872 H 0.02541 0.52719 0.7278 0.0
C1873 C 0.03832 0.50365 0.77861 0.0
C1874 C 0.00154 0.48694 0.75244 0.0
C1875 C 0.04197 0.5074 0.79306 0.0
C1876 C 0.97169 0.50609 0.69638 0.0
C1877 C 0.97851 0.50136 0.71008 0.0
C1878 C 0.01897 0.51545 0.73438 0.0
C1879 C 0.01902 0.50185 0.7736 0.0
C1880 C 0.01507 0.50082 0.75805 0.0
C1881 C -0.00164 0.50413 0.71364 0.0
C1882 C 0.00507 0.50191 0.72872 0.0
H1883 H 0.99483 0.50855 0.80514 0.0
H1884 H 0.98842 0.50186 0.77977 0.0
H1885 H 0.03424 0.52591 0.75293 0.0
H1886 H 0.01462 0.52179 0.68145 0.0
H1887 H 0.02683 0.51263 0.70514 0.0
C1888 C 0.00344 0.17188 0.12567 0.0
C1889 C 0.02343 0.1691 0.12868 0.0
C1890 C 0.99512 0.19116 0.12608 0.0
C1891 C 0.00278 0.24287 0.14016 0.0
H1892 H 0.96568 0.25753 0.11049 0.0
C1893 C 0.9597 0.31814 0.14145 0.0
C1894 C 0.95794 0.32859 0.1284 0.0
C1895 C 0.96709 0.29841 0.14177 0.0
C1896 C 0.9761 0.25372 0.1188 0.0
H1897 H 0.05035 0.18441 0.1345 0.0
H1898 H 0.03584 0.21816 0.13513 0.0
H1899 H 0.98027 0.22392 0.11044 0.0
H1900 H 0.96208 0.3263 0.10543 0.0
H1901 H 0.9753 0.29211 0.10601 0.0
H1902 H -0.00102 0.27289 0.14829 0.0
C1903 C 0.02654 0.20536 0.13265 0.0
C1904 C 0.9843 0.23437 0.11887 0.0
C1905 C 0.03487 0.18603 0.13227 0.0
C1906 C 0.96345 0.31876 0.11567 0.0
C1907 C 0.97083 0.29906 0.11599 0.0
C1908 C 0.99458 0.26225 0.14008 0.0
C1909 C 0.00658 0.20815 0.12949 0.0
C1910 C -0.00223 0.22872 0.12953 0.0
C1911 C 0.97285 0.28869 0.12905 0.0
C1912 C 0.98119 0.26792 0.12937 0.0
H1913 H 0.99415 0.15909 0.12313 0.0
H1914 H 0.97963 0.19271 0.12385 0.0
H1915 H 0.01296 0.23893 0.14861 0.0
H1916 H 0.95575 0.32534 0.15146 0.0
H1917 H 0.96824 0.29076 0.15199 0.0
C1918 C 0.46115 0.82057 0.1401 0.0
C1919 C 0.46654 0.83468 0.12963 0.0
C1920 C 0.46913 0.80109 0.13996 0.0
C1921 C 0.49654 0.76537 0.11624 0.0
H1922 H 0.50363 0.73618 0.15183 0.0
C1923 C 0.51647 0.6808 0.11658 0.0
C1924 C 0.52776 0.67296 0.1279 0.0
C1925 C 0.50978 0.70075 0.11688 0.0
C1926 C 0.50208 0.74417 0.14178 0.0
H1927 H 0.4848 0.84003 0.11109 0.0
H1928 H 0.49957 0.80649 0.11119 0.0
H1929 H 0.49131 0.77056 0.15236 0.0
H1930 H 0.5411 0.68041 0.14834 0.0
H1931 H 0.53057 0.71548 0.1484 0.0
H1932 H 0.50837 0.73947 0.1057 0.0
C1933 C 0.4886 0.80993 0.11919 0.0
C1934 C 0.49461 0.76386 0.14207 0.0
C1935 C 0.48027 0.82922 0.11916 0.0
C1936 C 0.53263 0.68587 0.13934 0.0
C1937 C 0.52626 0.70598 0.1395 0.0
C1938 C 0.50439 0.74587 0.11597 0.0
C1939 C 0.48303 0.79549 0.12952 0.0
C1940 C 0.49154 0.77468 0.12929 0.0
C1941 C 0.51455 0.71366 0.12835 0.0
C1942 C 0.50706 0.73487 0.12872 0.0
H1943 H 0.4505 0.82451 0.14824 0.0
H1944 H 0.46413 0.79037 0.14792 0.0
H1945 H 0.49416 0.77297 0.10612 0.0
H1946 H 0.51272 0.67156 0.10741 0.0
H1947 H 0.50057 0.70587 0.10818 0.0
C1948 C 0.46208 0.67866 0.35676 0.0
C1949 C 0.47406 0.66236 0.3608 0.0
C1950 C 0.46969 0.69828 0.35611 0.0
C1951 C 0.51054 0.72921 0.37009 0.0
H1952 H 0.49384 0.76723 0.34094 0.0
C1953 C 0.52724 0.81435 0.37419 0.0
C1954 C 0.53212 0.82481 0.36158 0.0
C1955 C 0.5207 0.79436 0.37361 0.0
C1956 C 0.49882 0.75674 0.34907 0.0
H1957 H 0.50355 0.65366 0.36679 0.0
H1958 H 0.51691 0.68779 0.36548 0.0
H1959 H 0.48177 0.73252 0.34034 0.0
H1960 H 0.53392 0.82239 0.33844 0.0
H1961 H 0.52302 0.78729 0.33747 0.0
H1962 H 0.5279 0.75324 0.37866 0.0
C1963 C 0.50152 0.68556 0.36315 0.0
C1964 C 0.4917 0.73691 0.34883 0.0
C1965 C 0.49389 0.66599 0.36388 0.0
C1966 C 0.53047 0.81472 0.34837 0.0
C1967 C 0.52398 0.79467 0.3478 0.0
C1968 C 0.5177 0.74898 0.3703 0.0
C1969 C 0.48947 0.70198 0.35942 0.0
C1970 C 0.4974 0.72293 0.35939 0.0
C1971 C 0.51897 0.78427 0.36041 0.0
C1972 C 0.51183 0.76304 0.35986 0.0
H1973 H 0.4467 0.67634 0.35447 0.0
H1974 H 0.45993 0.7106 0.35339 0.0
H1975 H 0.51507 0.71893 0.37849 0.0
H1976 H 0.52857 0.82156 0.38455 0.0
H1977 H 0.51674 0.7869 0.38352 0.0
C1978 C 0.01507 0.32409 0.34792 0.0
C1979 C 0.03262 0.32763 0.35542 0.0
C1980 C 0.00719 0.30464 0.34697 0.0
C1981 C 0.01927 0.25014 0.35336 0.0
H1982 H 0.96281 0.24463 0.3521 0.0
C1983 C 0.98315 0.17182 0.34739 0.0
C1984 C 0.96518 0.16829 0.35435 0.0
C1985 C 0.99106 0.19128 0.34667 0.0
C1986 C 0.9786 0.24579 0.35265 0.0
H1987 H 0.05573 0.31302 0.3676 0.0
H1988 H 0.04131 0.27958 0.36687 0.0
H1989 H 0.97725 0.27802 0.35318 0.0
H1990 H 0.94131 0.18293 0.36572 0.0
H1991 H 0.95572 0.21638 0.36539 0.0
H1992 H 0.02058 0.21791 0.35388 0.0
C1993 C 0.0339 0.29171 0.36128 0.0
C1994 C 0.98695 0.26508 0.35298 0.0
C1995 C 0.04204 0.31109 0.36194 0.0
C1996 C 0.95533 0.18486 0.36049 0.0
C1997 C 0.96348 0.20424 0.36006 0.0
C1998 C 0.0109 0.23085 0.35336 0.0
C1999 C 0.01633 0.28818 0.3538 0.0
C2000 C 0.00743 0.26756 0.35331 0.0
C2001 C 0.9815 0.20775 0.35316 0.0
C2002 C 0.99043 0.22837 0.35299 0.0
H2003 H 0.0071 0.33637 0.34295 0.0
H2004 H 0.99387 0.30259 0.34086 0.0
H2005 H 0.03508 0.2513 0.35335 0.0
H2006 H 0.99143 0.15953 0.34271 0.0
H2007 H 0.00474 0.19332 0.34099 0.0
C2008 C 0.03663 0.68405 0.87052 0.0
C2009 C 0.02564 0.66724 0.86602 0.0
C2010 C 0.02823 0.7033 0.87085 0.0
C2011 C 0.98692 0.73357 0.85683 0.0
H2012 H -0.00186 0.76761 0.88965 0.0
C2013 C 0.94706 0.80957 0.86717 0.0
C2014 C 0.95886 0.82582 0.87164 0.0
C2015 C 0.95472 0.78997 0.86645 0.0
C2016 C 0.995 0.75836 0.88035 0.0
H2017 H 0.99723 0.65747 0.85828 0.0
H2018 H 0.98254 0.6911 0.85886 0.0
H2019 H 0.01264 0.73402 0.88814 0.0
H2020 H 0.98809 0.83426 0.87854 0.0
H2021 H 0.00134 0.80015 0.8774 0.0
H2022 H 0.96924 0.75799 0.84907 0.0
C2023 C -0.00226 0.68943 0.86195 0.0
C2024 C 0.00333 0.73912 0.87948 0.0
C2025 C 0.00616 0.67016 0.86161 0.0
C2026 C 0.97847 0.82203 0.87536 0.0
C2027 C 0.98609 0.80247 0.87468 0.0
C2028 C 0.97855 0.75283 0.85772 0.0
C2029 C 0.00863 0.70619 0.86672 0.0
C2030 C -0.0005 0.72655 0.86766 0.0
C2031 C 0.97432 0.78622 0.87022 0.0
C2032 C 0.98261 0.76549 0.86945 0.0
H2033 H 0.05176 0.68233 0.87378 0.0
H2034 H 0.03713 0.71596 0.8743 0.0
H2035 H 0.98384 0.72433 0.84752 0.0
H2036 H 0.93185 0.81196 0.86436 0.0
H2037 H 0.94523 0.77771 0.86313 0.0
C2038 C 0.45264 0.31048 0.88031 0.0
C2039 C 0.45739 0.32426 0.86943 0.0
C2040 C 0.46059 0.291 0.88025 0.0
C2041 C 0.48722 0.25414 0.85704 0.0
H2042 H 0.50082 0.23005 0.89358 0.0
C2043 C 0.5358 0.18273 0.86307 0.0
C2044 C 0.52782 0.16726 0.87164 0.0
C2045 C 0.52712 0.20188 0.86266 0.0
C2046 C 0.49701 0.23659 0.88331 0.0
H2047 H 0.47414 0.32868 0.85 0.0
H2048 H 0.4886 0.29498 0.8501 0.0
H2049 H 0.48566 0.26341 0.89298 0.0
H2050 H 0.5042 0.15998 0.88638 0.0
H2051 H 0.48967 0.1936 0.88607 0.0
H2052 H 0.49927 0.22741 0.84744 0.0
C2053 C 0.47828 0.29885 0.85846 0.0
C2054 C 0.48819 0.25564 0.88294 0.0
C2055 C 0.47007 0.3182 0.85841 0.0
C2056 C 0.51108 0.17156 0.87992 0.0
C2057 C 0.50263 0.19079 0.87968 0.0
C2058 C 0.49635 0.23522 0.85741 0.0
C2059 C 0.47376 0.28502 0.86944 0.0
C2060 C 0.48308 0.26465 0.8698 0.0
C2061 C 0.51049 0.20606 0.87099 0.0
C2062 C 0.50123 0.22626 0.87056 0.0
H2063 H 0.44276 0.31478 0.88886 0.0
H2064 H 0.45638 0.28067 0.8887 0.0
H2065 H 0.48322 0.26037 0.84673 0.0
H2066 H 0.54884 0.18014 0.85674 0.0
H2067 H 0.53355 0.21351 0.85598 0.0
C2068 C 0.47831 0.1768 0.62933 0.0
C2069 C 0.4617 0.17232 0.62104 0.0
C2070 C 0.48595 0.19639 0.62965 0.0
C2071 C 0.48623 0.24414 0.60902 0.0
H2072 H 0.50797 0.26637 0.64402 0.0
C2073 C 0.51083 0.32739 0.61398 0.0
C2074 C 0.52886 0.331 0.62082 0.0
C2075 C 0.5024 0.30814 0.61416 0.0
C2076 C 0.5021 0.26028 0.63414 0.0
H2077 H 0.43971 0.18498 0.60691 0.0
H2078 H 0.45284 0.21931 0.60762 0.0
H2079 H 0.49313 0.2328 0.64429 0.0
H2080 H 0.55219 0.31706 0.63312 0.0
H2081 H 0.5373 0.28349 0.63358 0.0
H2082 H 0.49509 0.27173 0.59891 0.0
C2083 C 0.46024 0.20758 0.61364 0.0
C2084 C 0.49361 0.24104 0.63428 0.0
C2085 C 0.45268 0.18793 0.61325 0.0
C2086 C 0.53818 0.31489 0.62791 0.0
C2087 C 0.52967 0.29565 0.62817 0.0
C2088 C 0.49461 0.26342 0.6089 0.0
C2089 C 0.47708 0.21201 0.62174 0.0
C2090 C 0.48564 0.2327 0.62171 0.0
C2091 C 0.51171 0.29208 0.62127 0.0
C2092 C 0.5027 0.27166 0.62144 0.0
H2093 H 0.48576 0.16501 0.63527 0.0
H2094 H 0.49911 0.19917 0.63581 0.0
H2095 H 0.48056 0.23806 0.59908 0.0
H2096 H 0.50303 0.33951 0.60867 0.0
H2097 H 0.48841 0.30591 0.60893 0.0
C2098 C 0.03268 0.81864 0.60571 0.0
C2099 C 0.02903 0.83189 0.61712 0.0
C2100 C 0.02527 0.79894 0.60595 0.0
C2101 C 0.00294 0.76069 0.63055 0.0
H2102 H 0.98809 0.7352 0.59474 0.0
C2103 C 0.9582 0.68612 0.62575 0.0
C2104 C 0.96772 0.67082 0.61788 0.0
C2105 C 0.96546 0.7059 0.62581 0.0
C2106 C 0.99222 0.74219 0.6048 0.0
H2107 H 0.01462 0.83531 0.63761 0.0
H2108 H 0.00083 0.80129 0.63782 0.0
H2109 H 0.00085 0.76964 0.59457 0.0
H2110 H 0.99266 0.6646 0.60405 0.0
H2111 H 0.00457 0.69931 0.60362 0.0
H2112 H 0.99347 0.73328 0.64072 0.0
C2113 C 0.01 0.80567 0.62888 0.0
C2114 C -0.0003 0.76186 0.60473 0.0
C2115 C 0.01778 0.82522 0.62876 0.0
C2116 C 0.98458 0.67595 0.60996 0.0
C2117 C 0.99155 0.6958 0.60978 0.0
C2118 C 0.99506 0.74119 0.63062 0.0
C2119 C 0.01366 0.79222 0.61749 0.0
C2120 C 0.00534 0.77135 0.6176 0.0
C2121 C 0.98212 0.71088 0.61776 0.0
C2122 C 0.9898 0.73175 0.61774 0.0
H2123 H 0.04146 0.82348 0.59666 0.0
H2124 H 0.02882 0.78897 0.59713 0.0
H2125 H 0.00744 0.76724 0.64065 0.0
H2126 H 0.94501 0.68294 0.63176 0.0
H2127 H 0.9579 0.71739 0.63196 0.0
C2128 C 0.95218 0.99459 0.95042 0.0
C2129 C 0.96105 0.97781 0.94383 0.0
C2130 C 0.95785 0.00059 0.96416 0.0
C2131 C 0.98242 0.98184 -0.00323 0.0
H2132 H 0.99197 0.03866 0.00442 0.0
C2133 C 0.02533 0.0089 0.04613 0.0
C2134 C 0.01853 0.02619 0.05333 0.0
C2135 C 0.01703 0.00306 0.03312 0.0
C2136 C 0.98911 0.02277 0.00251 0.0
H2137 H 0.98248 0.9539 0.94658 0.0
H2138 H 0.9926 0.96457 0.9704 0.0
H2139 H 0.97954 0.02832 0.98104 0.0
H2140 H -0.00256 0.05072 0.05266 0.0
H2141 H 0.98297 0.04052 0.02987 0.0
H2142 H 0.99218 0.97625 0.01817 0.0
C2143 C 0.98118 0.97301 0.96502 0.0
C2144 C 0.98198 0.01685 0.98913 0.0
C2145 C 0.97555 0.96706 0.9513 0.0
C2146 C 0.0032 0.03749 0.04725 0.0
C2147 C 0.9949 0.03165 0.03422 0.0
C2148 C 0.98953 0.98775 0.01013 0.0
C2149 C 0.97242 0.98985 0.97159 0.0
C2150 C 0.9788 0.9963 0.98606 0.0
C2151 C 0.00173 0.01437 0.02702 0.0
C2152 C 0.99318 0.00825 0.01309 0.0
H2153 H 0.94103 0.00323 0.94488 0.0
H2154 H 0.95075 0.01355 0.969 0.0
H2155 H 0.97976 0.96592 0.99481 0.0
H2156 H 0.03732 6e-05 0.05043 0.0
H2157 H 0.02284 0.98986 0.02771 0.0
C2158 C 0.52181 0.0283 0.95129 0.0
C2159 C 0.53669 0.01769 0.94411 0.0
C2160 C 0.51705 0.02356 0.96541 0.0
C2161 C 0.51957 0.98259 0.99179 0.0
H2162 H 0.50705 0.02556 0.01857 0.0
C2163 C 0.49803 0.96679 0.05059 0.0
C2164 C 0.48171 0.97756 0.0557 0.0
C2165 C 0.50668 0.97195 0.03754 0.0
C2166 C 0.5104 0.0134 0.01119 0.0
H2167 H 0.55832 0.99385 0.94609 0.0
H2168 H 0.55008 0.98564 0.97093 0.0
H2169 H 0.51888 0.03403 0.99468 0.0
H2170 H 0.46163 0.00214 0.0511 0.0
H2171 H 0.47674 0.01118 0.02837 0.0
H2172 H 0.51079 0.96196 0.00824 0.0
C2173 C 0.54202 0.99754 0.96555 0.0
C2174 C 0.51717 0.01824 -0.00248 0.0
C2175 C 0.54684 0.00233 0.95139 0.0
C2176 C 0.47438 0.99375 0.04757 0.0
C2177 C 0.48304 -0.00107 0.03455 0.0
C2178 C 0.5128 0.97773 0.00548 0.0
C2179 C 0.52707 0.00812 0.9727 0.0
C2180 C 0.52151 0.0029 0.98759 0.0
C2181 C 0.49922 0.98802 0.02935 0.0
C2182 C 0.50784 0.9931 0.01524 0.0
H2183 H 0.51392 0.04042 0.94604 0.0
H2184 H 0.50529 0.03182 0.97056 0.0
H2185 H 0.5226 0.97044 0.98432 0.0
H2186 H 0.50421 0.95443 0.05672 0.0
H2187 H 0.51928 0.96343 0.03389 0.0
C2188 C 0.49886 0.0227 0.548 0.0
C2189 C 0.48404 0.01134 0.55466 0.0
C2190 C 0.50679 0.01643 0.53496 0.0
C2191 C 0.51155 0.97246 0.51074 0.0
H2192 H 0.51737 0.01358 0.48142 0.0
C2193 C 0.52321 0.95321 0.45109 0.0
C2194 C 0.53647 0.9652 0.44332 0.0
C2195 C 0.51802 0.95841 0.46507 0.0
C2196 C 0.51609 0.00196 0.48954 0.0
H2197 H 0.46641 0.98414 0.55315 0.0
H2198 H 0.48004 0.97334 0.53024 0.0
H2199 H 0.50652 0.02324 0.5053 0.0
H2200 H 0.55508 0.99176 0.44425 0.0
H2201 H 0.54602 0.00086 0.46868 0.0
H2202 H 0.52093 0.95115 0.4949 0.0
C2203 C 0.48563 0.98702 0.53515 0.0
C2204 C 0.50989 0.00749 0.50323 0.0
C2205 C 0.47769 0.9933 0.5482 0.0
C2206 C 0.54458 0.98241 0.44988 0.0
C2207 C 0.5394 0.9876 0.46387 0.0
C2208 C 0.51776 0.96692 0.49704 0.0
C2209 C 0.50007 0.99867 0.5283 0.0
C2210 C 0.50746 0.9928 0.51396 0.0
C2211 C 0.52599 0.97572 0.47159 0.0
C2212 C 0.52 0.9816 0.48627 0.0
H2213 H 0.50393 0.03678 0.55264 0.0
H2214 H 0.51806 0.0256 0.53001 0.0
H2215 H 0.51003 0.96084 0.51884 0.0
H2216 H 0.51651 0.94002 0.44625 0.0
H2217 H 0.50742 0.94912 0.47066 0.0
C2218 C 0.99687 0.98539 0.54881 0.0
C2219 C 0.01419 0.9939 0.55426 0.0
C2220 C 0.98946 0.99162 0.5356 0.0
C2221 C 0.99241 0.0319 0.50818 0.0
H2222 H 0.97666 0.98886 0.48239 0.0
C2223 C 0.98121 0.04421 0.4475 0.0
C2224 C 0.9653 0.03431 0.44102 0.0
C2225 C 0.98619 0.04011 0.46171 0.0
C2226 C 0.98075 0.00109 0.48952 0.0
H2227 H 0.0368 0.01631 0.55046 0.0
H2228 H 0.02404 0.02695 0.52726 0.0
H2229 H 0.98658 0.98067 0.50673 0.0
H2230 H 0.9418 0.01278 0.44447 0.0
H2231 H 0.95048 0.00561 0.46926 0.0
H2232 H 0.98677 0.05228 0.49085 0.0
C2233 C 0.01612 0.01554 0.53324 0.0
C2234 C 0.9864 0.9964 0.50348 0.0
C2235 C 0.02354 0.00931 0.54646 0.0
C2236 C 0.95437 0.02037 0.44908 0.0
C2237 C 0.95932 0.01628 0.46329 0.0
C2238 C 0.98674 0.0366 0.4942 0.0
C2239 C -0.00079 0.00649 0.52755 0.0
C2240 C 0.99238 0.01173 0.51295 0.0
C2241 C 0.97533 0.02604 0.46974 0.0
C2242 C 0.98093 0.02122 0.4847 0.0
H2243 H 0.9894 0.97337 0.5545 0.0
H2244 H 0.97624 0.98455 0.53159 0.0
H2245 H 0.99674 0.04406 0.51528 0.0
H2246 H 0.99004 0.05487 0.4415 0.0
H2247 H -0.00122 0.04765 0.46632 0.0
C2248 C 0.52745 0.52408 0.04226 0.0
C2249 C 0.51505 0.52456 0.05425 0.0
C2250 C 0.52008 0.51877 0.02883 0.0
C2251 C 0.48102 0.49061 0.01127 0.0
H2252 H 0.49291 0.52446 0.97848 0.0
C2253 C 0.44747 0.475 0.95574 0.0
C2254 C 0.45982 0.47743 0.94382 0.0
C2255 C 0.45335 0.48164 0.96927 0.0
C2256 C 0.48964 0.5147 0.98749 0.0
H2257 H 0.48541 0.51957 0.06175 0.0
H2258 H 0.47254 0.51002 0.03823 0.0
H2259 H 0.50526 0.5338 0.00208 0.0
H2260 H 0.48782 0.48931 0.93673 0.0
H2261 H 0.49841 0.50008 0.96035 0.0
H2262 H 0.4659 0.47116 -0.00328 0.0
C2263 C 0.48791 0.51384 0.03924 0.0
C2264 C 0.49667 0.52011 0.00099 0.0
C2265 C 0.49522 0.51941 0.05263 0.0
C2266 C 0.47807 0.4869 0.94571 0.0
C2267 C 0.48402 0.49337 0.95924 0.0
C2268 C 0.47417 0.48507 -0.00225 0.0
C2269 C 0.50025 0.51362 0.02721 0.0
C2270 C 0.49248 0.50807 0.01298 0.0
C2271 C 0.47179 0.49073 0.97121 0.0
C2272 C 0.47847 0.497 0.98568 0.0
H2273 H 0.54276 0.52814 0.04322 0.0
H2274 H 0.52992 0.51855 0.01973 0.0
H2275 H 0.47775 0.48099 0.02036 0.0
H2276 H 0.4334 0.46759 0.95471 0.0
H2277 H 0.44344 0.47963 0.97821 0.0
C2278 C 0.98222 0.49148 0.053 0.0
C2279 C 0.96782 0.4764 0.05427 0.0
C2280 C 0.9893 0.49708 0.03954 0.0
C2281 C 0.9943 0.47853 0.0026 0.0
H2282 H 0.0007 0.53529 0.99319 0.0
C2283 C 0.01076 0.50573 0.9452 0.0
C2284 C 0.0242 0.52167 0.94358 0.0
C2285 C 0.00417 0.50012 0.95878 0.0
C2286 C -0.00076 0.51937 -0.00428 0.0
H2287 H 0.94972 0.45519 0.04249 0.0
H2288 H 0.96194 0.46511 0.01897 0.0
H2289 H 0.98873 0.52571 0.01684 0.0
H2290 H 0.04115 0.5443 0.95496 0.0
H2291 H 0.03004 0.53417 0.97868 0.0
H2292 H 0.00488 0.47215 0.98152 0.0
C2293 C 0.96781 0.47253 0.02838 0.0
C2294 C 0.99236 0.5139 0.00925 0.0
C2295 C 0.96067 0.46701 0.04183 0.0
C2296 C 0.03097 0.5318 0.95585 0.0
C2297 C 0.02441 0.52617 0.96943 0.0
C2298 C 0.00124 0.484 0.98909 0.0
C2299 C 0.9822 0.48761 0.0271 0.0
C2300 C 0.98976 0.49343 0.01281 0.0
C2301 C 0.01089 0.5103 0.97105 0.0
C2302 C 0.00373 0.50448 0.98547 0.0
H2303 H 0.98789 0.49907 0.06241 0.0
H2304 H 0.0005 0.50864 0.03888 0.0
H2305 H 0.99272 0.46262 0.00513 0.0
H2306 H 0.00541 0.49748 0.93597 0.0
H2307 H 0.99359 0.48796 0.95965 0.0
C2308 C 0.98379 0.52404 0.54148 0.0
C2309 C 0.96756 0.51513 0.54824 0.0
C2310 C 0.9893 0.51809 0.52774 0.0
C2311 C 0.98502 0.47654 0.50176 0.0
H2312 H 0.00138 0.51777 0.47474 0.0
C2313 C 0.00472 0.45879 0.44275 0.0
C2314 C 0.02162 0.46833 0.43741 0.0
C2315 C 0.99698 0.46435 0.45603 0.0
C2316 C 0.99699 0.50607 0.4822 0.0
H2317 H 0.94448 0.49282 0.54593 0.0
H2318 H 0.95398 0.48257 0.52175 0.0
H2319 H 0.98984 0.52769 0.4984 0.0
H2320 H 0.04389 0.49083 0.44198 0.0
H2321 H 0.03038 0.50055 0.46509 0.0
H2322 H 0.99233 0.45491 0.48554 0.0
C2323 C 0.96251 0.49407 0.52718 0.0
C2324 C 0.99039 0.51175 0.49575 0.0
C2325 C 0.95697 0.50006 0.54095 0.0
C2326 C 0.03065 0.48346 0.44566 0.0
C2327 C 0.02291 0.48903 0.45891 0.0
C2328 C 0.99161 0.47085 0.48818 0.0
C2329 C 0.97868 0.50312 0.5204 0.0
C2330 C 0.98458 0.49704 0.50575 0.0
C2331 C 0.00598 0.47957 0.46422 0.0
C2332 C -0.00209 0.48556 0.47833 0.0
H2333 H 0.9921 0.53587 0.54673 0.0
H2334 H 0.00198 0.52516 0.52288 0.0
H2335 H 0.9808 0.46485 0.50929 0.0
H2336 H 0.99729 0.44725 0.43656 0.0
H2337 H 0.9838 0.45694 0.4598 0.0
C2338 C 0.52537 0.507 0.55079 0.0
C2339 C 0.51747 0.49055 0.55838 0.0
C2340 C 0.51732 0.51289 0.53769 0.0
C2341 C 0.48889 0.49229 0.50772 0.0
H2342 H 0.48292 0.54855 0.49678 0.0
C2343 C 0.45271 0.51533 0.45454 0.0
C2344 C 0.46187 0.53084 0.44674 0.0
C2345 C 0.45842 0.51116 0.46858 0.0
C2346 C 0.48466 0.53278 0.49965 0.0
H2347 H 0.49476 0.46758 0.55828 0.0
H2348 H 0.48051 0.47812 0.53557 0.0
H2349 H 0.49468 0.54013 0.52075 0.0
H2350 H 0.48422 0.55413 0.44751 0.0
H2351 H 0.49428 0.54677 0.47202 0.0
H2352 H 0.47914 0.48489 0.48661 0.0
C2353 C 0.49305 0.48632 0.53968 0.0
C2354 C 0.49137 0.52797 0.51337 0.0
C2355 C 0.50106 0.48045 0.55277 0.0
C2356 C 0.47671 0.54225 0.45333 0.0
C2357 C 0.48246 0.53806 0.46736 0.0
C2358 C 0.48221 0.49709 0.49402 0.0
C2359 C 0.50126 0.50242 0.5319 0.0
C2360 C 0.4936 0.50767 0.51752 0.0
C2361 C 0.47345 0.52238 0.47511 0.0
C2362 C 0.48008 0.51738 0.48981 0.0
H2363 H 0.5379 0.51518 0.55491 0.0
H2364 H 0.52405 0.52527 0.5319 0.0
H2365 H 0.49079 0.47651 0.51051 0.0
H2366 H 0.44101 0.5065 0.44981 0.0
H2367 H 0.45098 0.4992 0.47435 0.0
loop_
_geom_bond_atom_site_label_1
_geom_bond_atom_site_label_2
_geom_bond_distance
_geom_bond_site_symmetry_2
_ccdc_geom_bond_type
Li0 N17 1.990 . S
Li0 O60 1.956 . S
Li0 O61 1.970 . S
Li0 O62 1.961 . S
Li1 N25 1.990 . S
Li1 O60 1.970 . S
Li1 O61 1.956 . S
Li1 O63 1.961 . S
Li2 N47 1.990 . S
Li2 O60 1.961 . S
Li2 O62 1.956 . S
Li2 O63 1.970 . S
Li3 N53 1.990 . S
Li3 O61 1.961 . S
Li3 O62 1.970 . S
Li3 O63 1.956 . S
C4 C6 1.348 1_545 S
C4 C7 1.356 1_545 S
C4 O60 1.325 . S
N5 C8 1.314 . S
N5 C9 1.279 . S
C6 C4 1.348 1_565 S
C6 C8 1.353 . S
C6 H64 0.929 1_565 S
C7 C4 1.356 1_565 S
C7 C9 1.358 . S
C7 H65 0.922 1_565 S
C8 N5 1.314 . S
C8 C6 1.353 . S
C8 H66 0.930 . S
C9 N5 1.279 . S
C9 C7 1.358 . S
C9 H67 0.930 . S
C10 C13 1.348 . S
C10 C14 1.356 . S
C10 O61 1.325 . S
C11 N12 1.279 . S
C11 C14 1.358 . S
C11 H68 0.930 . S
N12 C11 1.279 . S
N12 C15 1.314 . S
C13 C10 1.348 . S
C13 C15 1.353 . S
C13 H69 0.929 . S
C14 C10 1.356 . S
C14 C11 1.358 . S
C14 H70 0.930 . S
C15 N12 1.314 . S
C15 C13 1.353 . S
C15 H71 0.930 . S
C16 N17 1.314 . S
C16 C21 1.353 . S
C16 H22 0.930 . S
N17 Li0 1.990 . S
N17 C16 1.314 . S
N17 C19 1.279 . S
C18 C19 1.358 1_565 S
C18 C20 1.356 1_565 S
C18 H72 0.930 . S
C19 N17 1.279 . S
C19 C18 1.358 1_545 S
C19 H23 0.947 . S
C20 C18 1.356 1_545 S
C20 C21 1.348 . S
C21 C16 1.353 . S
C21 C20 1.348 . S
C21 H73 0.929 . S
H22 C16 0.930 . S
H23 C19 0.947 . S
C24 N25 1.314 . S
C24 C26 1.353 . S
C24 H30 0.930 . S
N25 Li1 1.990 . S
N25 C24 1.314 . S
N25 C28 1.279 . S
C26 C24 1.353 . S
C26 C29 1.348 . S
C26 H74 0.929 . S
C27 C28 1.358 . S
C27 C29 1.356 . S
C27 H75 0.930 . S
C28 N25 1.279 . S
C28 C27 1.358 . S
C28 H31 0.930 . S
C29 C26 1.348 . S
C29 C27 1.356 . S
H30 C24 0.930 . S
H31 C28 0.930 . S
C32 C34 1.348 . S
C32 C35 1.344 1_455 S
C32 O62 1.325 . S
N33 C36 1.314 . S
N33 C37 1.279 . S
C34 C32 1.348 . S
C34 C36 1.353 1_455 S
C34 H76 0.929 . S
C35 C32 1.344 1_655 S
C35 C37 1.376 . S
C35 H77 0.925 1_655 S
C36 N33 1.314 . S
C36 C34 1.353 1_655 S
C36 H78 0.930 . S
C37 N33 1.279 . S
C37 C35 1.376 . S
C37 H79 0.930 . S
C38 C39 1.348 . S
C38 C40 1.356 . S
C38 O63 1.325 . S
C39 C38 1.348 . S
C39 C41 1.353 . S
C39 H80 0.929 . S
C40 C38 1.356 . S
C40 C42 1.358 . S
C40 H81 0.930 . S
C41 C39 1.353 . S
C41 N43 1.314 . S
C41 H82 0.930 . S
C42 C40 1.358 . S
C42 N43 1.279 . S
C42 H83 0.930 . S
N43 C41 1.314 . S
N43 C42 1.279 . S
C44 C46 1.353 . S
C44 N47 1.314 . S
C44 H50 0.930 . S
C45 N47 1.279 . S
C45 C48 1.358 . S
C45 H51 0.930 . S
C46 C44 1.353 . S
C46 C49 1.348 . S
C46 H84 0.929 . S
N47 Li2 1.990 . S
N47 C44 1.314 . S
N47 C45 1.279 . S
C48 C45 1.358 . S
C48 C49 1.356 . S
C48 H85 0.930 1_455 S
C49 C46 1.348 . S
C49 C48 1.356 . S
H50 C44 0.930 . S
H51 C45 0.930 . S
C52 N53 1.314 . S
C52 C54 1.353 . S
C52 H58 0.930 . S
N53 Li3 1.990 . S
N53 C52 1.314 . S
N53 C56 1.279 . S
C54 C52 1.353 . S
C54 C57 1.348 . S
C54 H86 0.929 . S
C55 C56 1.358 . S
C55 C57 1.356 . S
C55 H87 0.930 . S
C56 N53 1.279 . S
C56 C55 1.358 . S
C56 H59 0.930 . S
C57 C54 1.348 . S
C57 C55 1.356 . S
H58 C52 0.930 . S
H59 C56 0.930 . S
O60 Li0 1.956 . S
O60 Li1 1.970 . S
O60 Li2 1.961 . S
O60 C4 1.325 . S
O61 Li0 1.970 . S
O61 Li1 1.956 . S
O61 Li3 1.961 . S
O61 C10 1.325 . S
O62 Li0 1.961 . S
O62 Li2 1.956 . S
O62 Li3 1.970 . S
O62 C32 1.325 . S
O63 Li1 1.961 . S
O63 Li2 1.970 . S
O63 Li3 1.956 . S
O63 C38 1.325 . S
H64 C6 0.929 1_545 S
H65 C7 0.922 1_545 S
H66 C8 0.930 . S
H67 C9 0.930 . S
H68 C11 0.930 . S
H69 C13 0.929 . S
H70 C14 0.930 . S
H71 C15 0.930 . S
H72 C18 0.930 . S
H73 C21 0.929 . S
H74 C26 0.929 . S
H75 C27 0.930 . S
H76 C34 0.929 . S
H77 C35 0.925 1_455 S
H78 C36 0.930 . S
H79 C37 0.930 . S
H80 C39 0.929 . S
H81 C40 0.930 . S
H82 C41 0.930 . S
H83 C42 0.930 . S
H84 C46 0.929 . S
H85 C48 0.930 1_655 S
H86 C54 0.929 . S
H87 C55 0.930 . S
Li88 N105 1.990 . S
Li88 O148 1.956 . S
Li88 O149 1.970 . S
Li88 O150 1.961 . S
Li89 N113 1.990 . S
Li89 O148 1.970 . S
Li89 O149 1.956 . S
Li89 O151 1.961 . S
Li90 N135 1.990 . S
Li90 O148 1.961 . S
Li90 O150 1.956 . S
Li90 O151 1.970 . S
Li91 N141 1.990 . S
Li91 O149 1.961 . S
Li91 O150 1.970 . S
Li91 O151 1.956 . S
C92 C94 1.348 . S
C92 C95 1.356 . S
C92 O148 1.325 . S
N93 C96 1.314 . S
N93 C97 1.279 . S
C94 C92 1.348 . S
C94 C96 1.353 . S
C94 H152 0.929 . S
C95 C92 1.356 . S
C95 C97 1.358 . S
C95 H153 0.930 . S
C96 N93 1.314 . S
C96 C94 1.353 . S
C96 H154 0.930 . S
C97 N93 1.279 . S
C97 C95 1.358 . S
C97 H155 0.930 . S
C98 C101 1.348 . S
C98 C102 1.356 . S
C98 O149 1.325 . S
C99 N100 1.279 . S
C99 C102 1.358 . S
C99 H156 0.930 . S
N100 C99 1.279 . S
N100 C103 1.314 . S
C101 C98 1.348 . S
C101 C103 1.353 . S
C101 H157 0.929 . S
C102 C98 1.356 . S
C102 C99 1.358 . S
C102 H158 0.930 . S
C103 N100 1.314 . S
C103 C101 1.353 . S
C103 H159 0.930 . S
C104 N105 1.314 . S
C104 C109 1.353 . S
C104 H110 0.930 . S
N105 Li88 1.990 . S
N105 C104 1.314 . S
N105 C107 1.279 . S
C106 C107 1.358 . S
C106 C108 1.356 . S
C106 H160 0.930 . S
C107 N105 1.279 . S
C107 C106 1.358 . S
C107 H111 0.930 . S
C108 C106 1.356 . S
C108 C109 1.348 . S
C109 C104 1.353 . S
C109 C108 1.348 . S
C109 H161 0.929 . S
H110 C104 0.930 . S
H111 C107 0.930 . S
C112 N113 1.314 . S
C112 C114 1.353 . S
C112 H118 0.930 . S
N113 Li89 1.990 . S
N113 C112 1.314 . S
N113 C116 1.279 . S
C114 C112 1.353 . S
C114 C117 1.348 . S
C114 H162 0.929 . S
C115 C116 1.358 . S
C115 C117 1.356 . S
C115 H163 0.930 . S
C116 N113 1.279 . S
C116 C115 1.358 . S
C116 H119 0.930 . S
C117 C114 1.348 . S
C117 C115 1.356 . S
H118 C112 0.930 . S
H119 C116 0.930 . S
C120 C122 1.348 . S
C120 C123 1.356 . S
C120 O150 1.325 . S
N121 C124 1.314 . S
N121 C125 1.279 . S
C122 C120 1.348 . S
C122 C124 1.353 . S
C122 H164 0.929 . S
C123 C120 1.356 . S
C123 C125 1.358 . S
C123 H165 0.930 . S
C124 N121 1.314 . S
C124 C122 1.353 . S
C124 H166 0.930 . S
C125 N121 1.279 . S
C125 C123 1.358 . S
C125 H167 0.930 . S
C126 C127 1.348 1_565 S
C126 C128 1.356 1_565 S
C126 O151 1.325 . S
C127 C126 1.348 1_545 S
C127 C129 1.353 . S
C127 H168 0.929 1_545 S
C128 C126 1.356 1_545 S
C128 C130 1.358 . S
C128 H169 0.922 1_545 S
C129 C127 1.353 . S
C129 N131 1.314 . S
C129 H170 0.930 . S
C130 C128 1.358 . S
C130 N131 1.279 . S
C130 H171 0.930 . S
N131 C129 1.314 . S
N131 C130 1.279 . S
C132 C134 1.353 . S
C132 N135 1.314 . S
C132 H138 0.930 . S
C133 N135 1.279 . S
C133 C136 1.358 . S
C133 H139 0.930 . S
C134 C132 1.353 . S
C134 C137 1.348 . S
C134 H172 0.929 . S
N135 Li90 1.990 . S
N135 C132 1.314 . S
N135 C133 1.279 . S
C136 C133 1.358 . S
C136 C137 1.356 . S
C136 H173 0.930 . S
C137 C134 1.348 . S
C137 C136 1.356 . S
H138 C132 0.930 . S
H139 C133 0.930 . S
C140 N141 1.314 . S
C140 C142 1.353 . S
C140 H146 0.930 . S
N141 Li91 1.990 . S
N141 C140 1.314 . S
N141 C144 1.279 . S
C142 C140 1.353 . S
C142 C145 1.348 . S
C142 H174 0.929 . S
C143 C144 1.358 1_545 S
C143 C145 1.356 1_545 S
C143 H175 0.930 . S
C144 N141 1.279 . S
C144 C143 1.358 1_565 S
C144 H147 0.947 . S
C145 C142 1.348 . S
C145 C143 1.356 1_565 S
H146 C140 0.930 . S
H147 C144 0.947 . S
O148 Li88 1.956 . S
O148 Li89 1.970 . S
O148 Li90 1.961 . S
O148 C92 1.325 . S
O149 Li88 1.970 . S
O149 Li89 1.956 . S
O149 Li91 1.961 . S
O149 C98 1.325 . S
O150 Li88 1.961 . S
O150 Li90 1.956 . S
O150 Li91 1.970 . S
O150 C120 1.325 . S
O151 Li89 1.961 . S
O151 Li90 1.970 . S
O151 Li91 1.956 . S
O151 C126 1.325 . S
H152 C94 0.929 . S
H153 C95 0.930 . S
H154 C96 0.930 . S
H155 C97 0.930 . S
H156 C99 0.930 . S
H157 C101 0.929 . S
H158 C102 0.930 . S
H159 C103 0.930 . S
H160 C106 0.930 . S
H161 C109 0.929 . S
H162 C114 0.929 . S
H163 C115 0.930 . S
H164 C122 0.929 . S
H165 C123 0.930 . S
H166 C124 0.930 . S
H167 C125 0.930 . S
H168 C127 0.929 1_565 S
H169 C128 0.922 1_565 S
H170 C129 0.930 . S
H171 C130 0.930 . S
H172 C134 0.929 . S
H173 C136 0.930 . S
H174 C142 0.929 . S
H175 C143 0.930 . S
Li176 N193 1.990 . S
Li176 O236 1.956 . S
Li176 O237 1.970 . S
Li176 O238 1.961 . S
Li177 N201 1.990 . S
Li177 O236 1.970 . S
Li177 O237 1.956 . S
Li177 O239 1.961 . S
Li178 N223 1.990 . S
Li178 O236 1.961 . S
Li178 O238 1.956 . S
Li178 O239 1.970 . S
Li179 N229 1.990 . S
Li179 O237 1.961 . S
Li179 O238 1.970 . S
Li179 O239 1.956 . S
C180 C182 1.348 . S
C180 C183 1.356 . S
C180 O236 1.325 . S
N181 C184 1.314 . S
N181 C185 1.279 . S
C182 C180 1.348 . S
C182 C184 1.353 . S
C182 H240 0.929 . S
C183 C180 1.356 . S
C183 C185 1.358 . S
C183 H241 0.930 . S
C184 N181 1.314 . S
C184 C182 1.353 . S
C184 H242 0.930 . S
C185 N181 1.279 . S
C185 C183 1.358 . S
C185 H243 0.930 . S
C186 C189 1.348 1_565 S
C186 C190 1.356 1_565 S
C186 O237 1.325 . S
C187 N188 1.279 . S
C187 C190 1.358 . S
C187 H244 0.930 . S
N188 C187 1.279 . S
N188 C191 1.314 . S
C189 C186 1.348 1_545 S
C189 C191 1.353 . S
C189 H245 0.929 1_545 S
C190 C186 1.356 1_545 S
C190 C187 1.358 . S
C190 H246 0.922 1_545 S
C191 N188 1.314 . S
C191 C189 1.353 . S
C191 H247 0.930 . S
C192 N193 1.314 . S
C192 C197 1.353 . S
C192 H198 0.930 . S
N193 Li176 1.990 . S
N193 C192 1.314 . S
N193 C195 1.279 . S
C194 C195 1.358 . S
C194 C196 1.356 . S
C194 H248 0.930 . S
C195 N193 1.279 . S
C195 C194 1.358 . S
C195 H199 0.930 . S
C196 C194 1.356 . S
C196 C197 1.348 . S
C197 C192 1.353 . S
C197 C196 1.348 . S
C197 H249 0.929 . S
H198 C192 0.930 . S
H199 C195 0.930 . S
C200 N201 1.314 . S
C200 C202 1.353 . S
C200 H206 0.930 . S
N201 Li177 1.990 . S
N201 C200 1.314 . S
N201 C204 1.279 . S
C202 C200 1.353 . S
C202 C205 1.348 . S
C202 H250 0.929 . S
C203 C204 1.358 1_545 S
C203 C205 1.356 1_545 S
C203 H251 0.930 . S
C204 N201 1.279 . S
C204 C203 1.358 1_565 S
C204 H207 0.947 . S
C205 C202 1.348 . S
C205 C203 1.356 1_565 S
H206 C200 0.930 . S
H207 C204 0.947 . S
C208 C210 1.348 . S
C208 C211 1.356 . S
C208 O238 1.325 . S
N209 C212 1.314 . S
N209 C213 1.279 . S
C210 C208 1.348 . S
C210 C212 1.353 . S
C210 H252 0.929 . S
C211 C208 1.356 . S
C211 C213 1.358 . S
C211 H253 0.930 . S
C212 N209 1.314 . S
C212 C210 1.353 . S
C212 H254 0.930 . S
C213 N209 1.279 . S
C213 C211 1.358 . S
C213 H255 0.930 . S
C214 C215 1.348 . S
C214 C216 1.356 . S
C214 O239 1.325 . S
C215 C214 1.348 . S
C215 C217 1.353 . S
C215 H256 0.929 . S
C216 C214 1.356 . S
C216 C218 1.358 . S
C216 H257 0.930 . S
C217 C215 1.353 . S
C217 N219 1.314 . S
C217 H258 0.930 . S
C218 C216 1.358 . S
C218 N219 1.279 . S
C218 H259 0.930 . S
N219 C217 1.314 . S
N219 C218 1.279 . S
C220 C222 1.353 . S
C220 N223 1.314 . S
C220 H226 0.930 . S
C221 N223 1.279 . S
C221 C224 1.358 . S
C221 H227 0.930 . S
C222 C220 1.353 . S
C222 C225 1.348 . S
C222 H260 0.929 . S
N223 Li178 1.990 . S
N223 C220 1.314 . S
N223 C221 1.279 . S
C224 C221 1.358 . S
C224 C225 1.356 . S
C224 H261 0.930 . S
C225 C222 1.348 . S
C225 C224 1.356 . S
H226 C220 0.930 . S
H227 C221 0.930 . S
C228 N229 1.314 . S
C228 C230 1.353 . S
C228 H234 0.930 . S
N229 Li179 1.990 . S
N229 C228 1.314 . S
N229 C232 1.279 . S
C230 C228 1.353 . S
C230 C233 1.348 . S
C230 H262 0.929 . S
C231 C232 1.358 . S
C231 C233 1.356 . S
C231 H263 0.930 . S
C232 N229 1.279 . S
C232 C231 1.358 . S
C232 H235 0.930 . S
C233 C230 1.348 . S
C233 C231 1.356 . S
H234 C228 0.930 . S
H235 C232 0.930 . S
O236 Li176 1.956 . S
O236 Li177 1.970 . S
O236 Li178 1.961 . S
O236 C180 1.325 . S
O237 Li176 1.970 . S
O237 Li177 1.956 . S
O237 Li179 1.961 . S
O237 C186 1.325 . S
O238 Li176 1.961 . S
O238 Li178 1.956 . S
O238 Li179 1.970 . S
O238 C208 1.325 . S
O239 Li177 1.961 . S
O239 Li178 1.970 . S
O239 Li179 1.956 . S
O239 C214 1.325 . S
H240 C182 0.929 . S
H241 C183 0.930 . S
H242 C184 0.930 . S
H243 C185 0.930 . S
H244 C187 0.930 . S
H245 C189 0.929 1_565 S
H246 C190 0.922 1_565 S
H247 C191 0.930 . S
H248 C194 0.930 . S
H249 C197 0.929 . S
H250 C202 0.929 . S
H251 C203 0.930 . S
H252 C210 0.929 . S
H253 C211 0.930 . S
H254 C212 0.930 . S
H255 C213 0.930 . S
H256 C215 0.929 . S
H257 C216 0.930 . S
H258 C217 0.930 . S
H259 C218 0.930 . S
H260 C222 0.929 . S
H261 C224 0.930 . S
H262 C230 0.929 . S
H263 C231 0.930 . S
Li264 N281 1.990 . S
Li264 O324 1.956 . S
Li264 O325 1.970 . S
Li264 O326 1.961 . S
Li265 N289 1.990 . S
Li265 O324 1.970 . S
Li265 O325 1.956 . S
Li265 O327 1.961 . S
Li266 N311 1.990 . S
Li266 O324 1.961 . S
Li266 O326 1.956 . S
Li266 O327 1.970 . S
Li267 N317 1.990 . S
Li267 O325 1.961 . S
Li267 O326 1.970 . S
Li267 O327 1.956 . S
C268 C270 1.348 1_545 S
C268 C271 1.356 1_545 S
C268 O324 1.325 . S
N269 C272 1.314 . S
N269 C273 1.279 . S
C270 C268 1.348 1_565 S
C270 C272 1.353 . S
C270 H328 0.929 1_565 S
C271 C268 1.356 1_565 S
C271 C273 1.358 . S
C271 H329 0.922 1_565 S
C272 N269 1.314 . S
C272 C270 1.353 . S
C272 H330 0.930 . S
C273 N269 1.279 . S
C273 C271 1.358 . S
C273 H331 0.930 . S
C274 C277 1.348 . S
C274 C278 1.356 . S
C274 O325 1.325 . S
C275 N276 1.279 . S
C275 C278 1.358 . S
C275 H332 0.930 . S
N276 C275 1.279 . S
N276 C279 1.314 . S
C277 C274 1.348 . S
C277 C279 1.353 . S
C277 H333 0.929 . S
C278 C274 1.356 . S
C278 C275 1.358 . S
C278 H334 0.930 . S
C279 N276 1.314 . S
C279 C277 1.353 . S
C279 H335 0.930 . S
C280 N281 1.314 . S
C280 C285 1.353 . S
C280 H286 0.930 . S
N281 Li264 1.990 . S
N281 C280 1.314 . S
N281 C283 1.279 . S
C282 C283 1.358 1_565 S
C282 C284 1.356 1_565 S
C282 H336 0.930 . S
C283 N281 1.279 . S
C283 C282 1.358 1_545 S
C283 H287 0.947 . S
C284 C282 1.356 1_545 S
C284 C285 1.348 . S
C285 C280 1.353 . S
C285 C284 1.348 . S
C285 H337 0.929 . S
H286 C280 0.930 . S
H287 C283 0.947 . S
C288 N289 1.314 . S
C288 C290 1.353 . S
C288 H294 0.930 . S
N289 Li265 1.990 . S
N289 C288 1.314 . S
N289 C292 1.279 . S
C290 C288 1.353 . S
C290 C293 1.348 . S
C290 H338 0.929 . S
C291 C292 1.358 . S
C291 C293 1.356 . S
C291 H339 0.930 . S
C292 N289 1.279 . S
C292 C291 1.358 . S
C292 H295 0.930 . S
C293 C290 1.348 . S
C293 C291 1.356 . S
H294 C288 0.930 . S
H295 C292 0.930 . S
C296 C298 1.348 . S
C296 C299 1.344 1_655 S
C296 O326 1.325 . S
N297 C300 1.314 . S
N297 C301 1.279 . S
C298 C296 1.348 . S
C298 C300 1.353 1_655 S
C298 H340 0.929 . S
C299 C296 1.344 1_455 S
C299 C301 1.376 . S
C299 H341 0.925 1_455 S
C300 N297 1.314 . S
C300 C298 1.353 1_455 S
C300 H342 0.930 . S
C301 N297 1.279 . S
C301 C299 1.376 . S
C301 H343 0.930 . S
C302 C303 1.348 . S
C302 C304 1.356 . S
C302 O327 1.325 . S
C303 C302 1.348 . S
C303 C305 1.353 . S
C303 H344 0.929 . S
C304 C302 1.356 . S
C304 C306 1.358 . S
C304 H345 0.930 . S
C305 C303 1.353 . S
C305 N307 1.314 . S
C305 H346 0.930 . S
C306 C304 1.358 . S
C306 N307 1.279 . S
C306 H347 0.930 . S
N307 C305 1.314 . S
N307 C306 1.279 . S
C308 C310 1.353 . S
C308 N311 1.314 . S
C308 H314 0.930 . S
C309 N311 1.279 . S
C309 C312 1.358 . S
C309 H315 0.930 . S
C310 C308 1.353 . S
C310 C313 1.348 . S
C310 H348 0.929 . S
N311 Li266 1.990 . S
N311 C308 1.314 . S
N311 C309 1.279 . S
C312 C309 1.358 . S
C312 C313 1.356 . S
C312 H349 0.930 1_655 S
C313 C310 1.348 . S
C313 C312 1.356 . S
H314 C308 0.930 . S
H315 C309 0.930 . S
C316 N317 1.314 . S
C316 C318 1.353 . S
C316 H322 0.930 . S
N317 Li267 1.990 . S
N317 C316 1.314 . S
N317 C320 1.279 . S
C318 C316 1.353 . S
C318 C321 1.348 . S
C318 H350 0.929 . S
C319 C320 1.358 . S
C319 C321 1.356 . S
C319 H351 0.930 . S
C320 N317 1.279 . S
C320 C319 1.358 . S
C320 H323 0.930 . S
C321 C318 1.348 . S
C321 C319 1.356 . S
H322 C316 0.930 . S
H323 C320 0.930 . S
O324 Li264 1.956 . S
O324 Li265 1.970 . S
O324 Li266 1.961 . S
O324 C268 1.325 . S
O325 Li264 1.970 . S
O325 Li265 1.956 . S
O325 Li267 1.961 . S
O325 C274 1.325 . S
O326 Li264 1.961 . S
O326 Li266 1.956 . S
O326 Li267 1.970 . S
O326 C296 1.325 . S
O327 Li265 1.961 . S
O327 Li266 1.970 . S
O327 Li267 1.956 . S
O327 C302 1.325 . S
H328 C270 0.929 1_545 S
H329 C271 0.922 1_545 S
H330 C272 0.930 . S
H331 C273 0.930 . S
H332 C275 0.930 . S
H333 C277 0.929 . S
H334 C278 0.930 . S
H335 C279 0.930 . S
H336 C282 0.930 . S
H337 C285 0.929 . S
H338 C290 0.929 . S
H339 C291 0.930 . S
H340 C298 0.929 . S
H341 C299 0.925 1_655 S
H342 C300 0.930 . S
H343 C301 0.930 . S
H344 C303 0.929 . S
H345 C304 0.930 . S
H346 C305 0.930 . S
H347 C306 0.930 . S
H348 C310 0.929 . S
H349 C312 0.930 1_455 S
H350 C318 0.929 . S
H351 C319 0.930 . S
Li352 N369 1.990 . S
Li352 O412 1.956 . S
Li352 O413 1.970 . S
Li352 O414 1.961 . S
Li353 N377 1.990 . S
Li353 O412 1.970 . S
Li353 O413 1.956 . S
Li353 O415 1.961 . S
Li354 N399 1.990 . S
Li354 O412 1.961 . S
Li354 O414 1.956 . S
Li354 O415 1.970 . S
Li355 N405 1.990 . S
Li355 O413 1.961 . S
Li355 O414 1.970 . S
Li355 O415 1.956 . S
C356 C358 1.348 . S
C356 C359 1.356 . S
C356 O412 1.325 . S
N357 C360 1.314 . S
N357 C361 1.279 . S
C358 C356 1.348 . S
C358 C360 1.353 . S
C358 H416 0.929 . S
C359 C356 1.356 . S
C359 C361 1.358 . S
C359 H417 0.930 . S
C360 N357 1.314 . S
C360 C358 1.353 . S
C360 H418 0.930 . S
C361 N357 1.279 . S
C361 C359 1.358 . S
C361 H419 0.930 . S
C362 C365 1.348 . S
C362 C366 1.358 1_655 S
C362 O413 1.325 . S
C363 N364 1.279 . S
C363 C366 1.356 . S
C363 H420 0.930 . S
N364 C363 1.279 . S
N364 C367 1.314 . S
C365 C362 1.348 . S
C365 C367 1.353 1_655 S
C365 H421 0.929 . S
C366 C362 1.358 1_455 S
C366 C363 1.356 . S
C366 H422 0.930 1_455 S
C367 N364 1.314 . S
C367 C365 1.353 1_455 S
C367 H423 0.930 . S
C368 N369 1.314 . S
C368 C373 1.353 . S
C368 H374 0.930 . S
N369 Li352 1.990 . S
N369 C368 1.314 . S
N369 C371 1.279 . S
C370 C371 1.358 . S
C370 C372 1.356 . S
C370 H424 0.930 . S
C371 N369 1.279 . S
C371 C370 1.358 . S
C371 H375 0.930 . S
C372 C370 1.356 . S
C372 C373 1.348 . S
C373 C368 1.353 . S
C373 C372 1.348 . S
C373 H425 0.929 . S
H374 C368 0.930 . S
H375 C371 0.930 . S
C376 N377 1.314 . S
C376 C378 1.353 . S
C376 H382 0.930 . S
N377 Li353 1.990 . S
N377 C376 1.314 . S
N377 C380 1.279 . S
C378 C376 1.353 . S
C378 C381 1.348 . S
C378 H426 0.929 1_565 S
C379 C380 1.358 . S
C379 C381 1.356 . S
C379 H427 0.930 1_655 S
C380 N377 1.279 . S
C380 C379 1.358 . S
C380 H383 0.930 . S
C381 C378 1.348 . S
C381 C379 1.356 . S
H382 C376 0.930 . S
H383 C380 0.930 . S
C384 C386 1.348 . S
C384 C387 1.356 . S
C384 O414 1.325 . S
N385 C388 1.314 . S
N385 C389 1.279 . S
C386 C384 1.348 . S
C386 C388 1.353 . S
C386 H428 0.929 . S
C387 C384 1.356 . S
C387 C389 1.358 . S
C387 H429 0.930 . S
C388 N385 1.314 . S
C388 C386 1.353 . S
C388 H430 0.930 . S
C389 N385 1.279 . S
C389 C387 1.358 . S
C389 H431 0.930 . S
C390 C391 1.329 1_565 S
C390 C392 1.356 1_565 S
C390 O415 1.325 . S
C391 C390 1.329 1_545 S
C391 C393 1.398 . S
C391 H432 0.904 1_545 S
C392 C390 1.356 1_545 S
C392 C394 1.358 . S
C392 H433 0.946 . S
C393 C391 1.398 . S
C393 N395 1.314 . S
C393 H434 0.930 . S
C394 C392 1.358 . S
C394 N395 1.279 . S
C394 H435 0.930 . S
N395 C393 1.314 . S
N395 C394 1.279 . S
C396 C398 1.353 . S
C396 N399 1.314 . S
C396 H402 0.930 . S
C397 N399 1.279 . S
C397 C400 1.358 . S
C397 H403 0.930 . S
C398 C396 1.353 . S
C398 C401 1.348 . S
C398 H436 0.929 . S
N399 Li354 1.990 . S
N399 C396 1.314 . S
N399 C397 1.279 . S
C400 C397 1.358 . S
C400 C401 1.356 . S
C400 H437 0.930 . S
C401 C398 1.348 . S
C401 C400 1.356 . S
H402 C396 0.930 . S
H403 C397 0.930 . S
C404 N405 1.314 . S
C404 C406 1.353 . S
C404 H410 0.930 . S
N405 Li355 1.990 . S
N405 C404 1.314 . S
N405 C408 1.279 . S
C406 C404 1.353 . S
C406 C409 1.348 . S
C406 H438 0.929 . S
C407 C408 1.358 . S
C407 C409 1.356 . S
C407 H439 0.930 1_565 S
C408 N405 1.279 . S
C408 C407 1.358 . S
C408 H411 0.930 . S
C409 C406 1.348 . S
C409 C407 1.356 . S
H410 C404 0.930 . S
H411 C408 0.930 . S
O412 Li352 1.956 . S
O412 Li353 1.970 . S
O412 Li354 1.961 . S
O412 C356 1.325 . S
O413 Li352 1.970 . S
O413 Li353 1.956 . S
O413 Li355 1.961 . S
O413 C362 1.325 . S
O414 Li352 1.961 . S
O414 Li354 1.956 . S
O414 Li355 1.970 . S
O414 C384 1.325 . S
O415 Li353 1.961 . S
O415 Li354 1.970 . S
O415 Li355 1.956 . S
O415 C390 1.325 . S
H416 C358 0.929 . S
H417 C359 0.930 . S
H418 C360 0.930 . S
H419 C361 0.930 . S
H420 C363 0.930 . S
H421 C365 0.929 . S
H422 C366 0.930 1_655 S
H423 C367 0.930 . S
H424 C370 0.930 . S
H425 C373 0.929 . S
H426 C378 0.929 1_545 S
H427 C379 0.930 1_455 S
H428 C386 0.929 . S
H429 C387 0.930 . S
H430 C388 0.930 . S
H431 C389 0.930 . S
H432 C391 0.904 1_565 S
H433 C392 0.946 . S
H434 C393 0.930 . S
H435 C394 0.930 . S
H436 C398 0.929 . S
H437 C400 0.930 . S
H438 C406 0.929 . S
H439 C407 0.930 1_545 S
Li440 N457 1.990 . S
Li440 O500 1.956 . S
Li440 O501 1.970 . S
Li440 O502 1.961 . S
Li441 N465 1.990 . S
Li441 O500 1.970 . S
Li441 O501 1.956 . S
Li441 O503 1.961 . S
Li442 N487 1.990 . S
Li442 O500 1.961 . S
Li442 O502 1.956 . S
Li442 O503 1.970 . S
Li443 N493 1.990 . S
Li443 O501 1.961 . S
Li443 O502 1.970 . S
Li443 O503 1.956 . S
C444 C446 1.348 . S
C444 C447 1.356 . S
C444 O500 1.325 . S
N445 C448 1.314 . S
N445 C449 1.279 . S
C446 C444 1.348 . S
C446 C448 1.353 . S
C446 H504 0.929 . S
C447 C444 1.356 . S
C447 C449 1.358 . S
C447 H505 0.930 . S
C448 N445 1.314 . S
C448 C446 1.353 . S
C448 H506 0.930 . S
C449 N445 1.279 . S
C449 C447 1.358 . S
C449 H507 0.930 . S
C450 C453 1.348 . S
C450 C454 1.356 . S
C450 O501 1.325 . S
C451 N452 1.279 . S
C451 C454 1.358 . S
C451 H508 0.930 . S
N452 C451 1.279 . S
N452 C455 1.314 . S
C453 C450 1.348 . S
C453 C455 1.353 . S
C453 H509 0.929 . S
C454 C450 1.356 . S
C454 C451 1.358 . S
C454 H510 0.930 . S
C455 N452 1.314 . S
C455 C453 1.353 . S
C455 H511 0.930 . S
C456 N457 1.314 . S
C456 C461 1.353 . S
C456 H462 0.930 . S
N457 Li440 1.990 . S
N457 C456 1.314 . S
N457 C459 1.279 . S
C458 C459 1.358 . S
C458 C460 1.356 . S
C458 H512 0.930 . S
C459 N457 1.279 . S
C459 C458 1.358 . S
C459 H463 0.930 . S
C460 C458 1.356 . S
C460 C461 1.348 . S
C461 C456 1.353 . S
C461 C460 1.348 . S
C461 H513 0.929 . S
H462 C456 0.930 . S
H463 C459 0.930 . S
C464 N465 1.314 . S
C464 C466 1.353 . S
C464 H470 0.930 . S
N465 Li441 1.990 . S
N465 C464 1.314 . S
N465 C468 1.279 . S
C466 C464 1.353 . S
C466 C469 1.348 . S
C466 H514 0.929 1_545 S
C467 C468 1.358 . S
C467 C469 1.356 . S
C467 H515 0.930 . S
C468 N465 1.279 . S
C468 C467 1.358 . S
C468 H471 0.930 . S
C469 C466 1.348 . S
C469 C467 1.356 . S
H470 C464 0.930 . S
H471 C468 0.930 . S
C472 C474 1.348 . S
C472 C475 1.356 . S
C472 O502 1.325 . S
N473 C476 1.314 . S
N473 C477 1.279 . S
C474 C472 1.348 . S
C474 C476 1.353 . S
C474 H516 0.929 . S
C475 C472 1.356 . S
C475 C477 1.358 . S
C475 H517 0.930 . S
C476 N473 1.314 . S
C476 C474 1.353 . S
C476 H518 0.930 . S
C477 N473 1.279 . S
C477 C475 1.358 . S
C477 H519 0.930 . S
C478 C479 1.329 1_545 S
C478 C480 1.356 1_545 S
C478 O503 1.325 . S
C479 C478 1.329 1_565 S
C479 C481 1.398 . S
C479 H520 0.904 1_565 S
C480 C478 1.356 1_565 S
C480 C482 1.358 . S
C480 H521 0.946 . S
C481 C479 1.398 . S
C481 N483 1.314 . S
C481 H522 0.930 . S
C482 C480 1.358 . S
C482 N483 1.279 . S
C482 H523 0.930 . S
N483 C481 1.314 . S
N483 C482 1.279 . S
C484 C486 1.353 . S
C484 N487 1.314 . S
C484 H490 0.930 . S
C485 N487 1.279 . S
C485 C488 1.358 . S
C485 H491 0.930 . S
C486 C484 1.353 . S
C486 C489 1.348 . S
C486 H524 0.929 . S
N487 Li442 1.990 . S
N487 C484 1.314 . S
N487 C485 1.279 . S
C488 C485 1.358 . S
C488 C489 1.356 . S
C488 H525 0.930 . S
C489 C486 1.348 . S
C489 C488 1.356 . S
H490 C484 0.930 . S
H491 C485 0.930 . S
C492 N493 1.314 . S
C492 C494 1.353 . S
C492 H498 0.930 . S
N493 Li443 1.990 . S
N493 C492 1.314 . S
N493 C496 1.279 . S
C494 C492 1.353 . S
C494 C497 1.348 . S
C494 H526 0.929 . S
C495 C496 1.358 . S
C495 C497 1.356 . S
C495 H527 0.930 1_545 S
C496 N493 1.279 . S
C496 C495 1.358 . S
C496 H499 0.930 . S
C497 C494 1.348 . S
C497 C495 1.356 . S
H498 C492 0.930 . S
H499 C496 0.930 . S
O500 Li440 1.956 . S
O500 Li441 1.970 . S
O500 Li442 1.961 . S
O500 C444 1.325 . S
O501 Li440 1.970 . S
O501 Li441 1.956 . S
O501 Li443 1.961 . S
O501 C450 1.325 . S
O502 Li440 1.961 . S
O502 Li442 1.956 . S
O502 Li443 1.970 . S
O502 C472 1.325 . S
O503 Li441 1.961 . S
O503 Li442 1.970 . S
O503 Li443 1.956 . S
O503 C478 1.325 . S
H504 C446 0.929 . S
H505 C447 0.930 . S
H506 C448 0.930 . S
H507 C449 0.930 . S
H508 C451 0.930 . S
H509 C453 0.929 . S
H510 C454 0.930 . S
H511 C455 0.930 . S
H512 C458 0.930 . S
H513 C461 0.929 . S
H514 C466 0.929 1_565 S
H515 C467 0.930 . S
H516 C474 0.929 . S
H517 C475 0.930 . S
H518 C476 0.930 . S
H519 C477 0.930 . S
H520 C479 0.904 1_545 S
H521 C480 0.946 . S
H522 C481 0.930 . S
H523 C482 0.930 . S
H524 C486 0.929 . S
H525 C488 0.930 . S
H526 C494 0.929 . S
H527 C495 0.930 1_565 S
Li528 N545 1.990 . S
Li528 O588 1.956 . S
Li528 O589 1.970 . S
Li528 O590 1.961 . S
Li529 N553 1.990 . S
Li529 O588 1.970 . S
Li529 O589 1.956 . S
Li529 O591 1.961 . S
Li530 N575 1.990 . S
Li530 O588 1.961 . S
Li530 O590 1.956 . S
Li530 O591 1.970 . S
Li531 N581 1.990 . S
Li531 O589 1.961 . S
Li531 O590 1.970 . S
Li531 O591 1.956 . S
C532 C534 1.348 . S
C532 C535 1.356 . S
C532 O588 1.325 . S
N533 C536 1.314 . S
N533 C537 1.279 . S
C534 C532 1.348 . S
C534 C536 1.353 . S
C534 H592 0.929 . S
C535 C532 1.356 . S
C535 C537 1.358 . S
C535 H593 0.930 . S
C536 N533 1.314 . S
C536 C534 1.353 . S
C536 H594 0.930 . S
C537 N533 1.279 . S
C537 C535 1.358 . S
C537 H595 0.930 . S
C538 C541 1.329 1_545 S
C538 C542 1.356 1_545 S
C538 O589 1.325 . S
C539 N540 1.279 . S
C539 C542 1.358 . S
C539 H596 0.930 . S
N540 C539 1.279 . S
N540 C543 1.314 . S
C541 C538 1.329 1_565 S
C541 C543 1.398 . S
C541 H597 0.904 1_565 S
C542 C538 1.356 1_565 S
C542 C539 1.358 . S
C542 H598 0.946 . S
C543 N540 1.314 . S
C543 C541 1.398 . S
C543 H599 0.930 . S
C544 N545 1.314 . S
C544 C549 1.353 . S
C544 H550 0.930 . S
N545 Li528 1.990 . S
N545 C544 1.314 . S
N545 C547 1.279 . S
C546 C547 1.358 . S
C546 C548 1.356 . S
C546 H600 0.930 . S
C547 N545 1.279 . S
C547 C546 1.358 . S
C547 H551 0.930 . S
C548 C546 1.356 . S
C548 C549 1.348 . S
C549 C544 1.353 . S
C549 C548 1.348 . S
C549 H601 0.929 . S
H550 C544 0.930 . S
H551 C547 0.930 . S
C552 N553 1.314 . S
C552 C554 1.353 . S
C552 H558 0.930 . S
N553 Li529 1.990 . S
N553 C552 1.314 . S
N553 C556 1.279 . S
C554 C552 1.353 . S
C554 C557 1.348 . S
C554 H602 0.929 . S
C555 C556 1.358 . S
C555 C557 1.356 . S
C555 H603 0.930 1_545 S
C556 N553 1.279 . S
C556 C555 1.358 . S
C556 H559 0.930 . S
C557 C554 1.348 . S
C557 C555 1.356 . S
H558 C552 0.930 . S
H559 C556 0.930 . S
C560 C562 1.348 . S
C560 C563 1.356 . S
C560 O590 1.325 . S
N561 C564 1.314 . S
N561 C565 1.279 . S
C562 C560 1.348 . S
C562 C564 1.353 . S
C562 H604 0.929 . S
C563 C560 1.356 . S
C563 C565 1.358 . S
C563 H605 0.930 . S
C564 N561 1.314 . S
C564 C562 1.353 . S
C564 H606 0.930 . S
C565 N561 1.279 . S
C565 C563 1.358 . S
C565 H607 0.930 . S
C566 C567 1.348 . S
C566 C568 1.356 . S
C566 O591 1.325 . S
C567 C566 1.348 . S
C567 C569 1.353 . S
C567 H608 0.929 . S
C568 C566 1.356 . S
C568 C570 1.358 . S
C568 H609 0.930 . S
C569 C567 1.353 . S
C569 N571 1.314 . S
C569 H610 0.930 . S
C570 C568 1.358 . S
C570 N571 1.279 . S
C570 H611 0.930 . S
N571 C569 1.314 . S
N571 C570 1.279 . S
C572 C574 1.353 . S
C572 N575 1.314 . S
C572 H578 0.930 . S
C573 N575 1.279 . S
C573 C576 1.358 . S
C573 H579 0.930 . S
C574 C572 1.353 . S
C574 C577 1.348 . S
C574 H612 0.929 . S
N575 Li530 1.990 . S
N575 C572 1.314 . S
N575 C573 1.279 . S
C576 C573 1.358 . S
C576 C577 1.356 . S
C576 H613 0.930 . S
C577 C574 1.348 . S
C577 C576 1.356 . S
H578 C572 0.930 . S
H579 C573 0.930 . S
C580 N581 1.314 . S
C580 C582 1.353 . S
C580 H586 0.930 . S
N581 Li531 1.990 . S
N581 C580 1.314 . S
N581 C584 1.279 . S
C582 C580 1.353 . S
C582 C585 1.348 . S
C582 H614 0.929 1_545 S
C583 C584 1.358 . S
C583 C585 1.356 . S
C583 H615 0.930 . S
C584 N581 1.279 . S
C584 C583 1.358 . S
C584 H587 0.930 . S
C585 C582 1.348 . S
C585 C583 1.356 . S
H586 C580 0.930 . S
H587 C584 0.930 . S
O588 Li528 1.956 . S
O588 Li529 1.970 . S
O588 Li530 1.961 . S
O588 C532 1.325 . S
O589 Li528 1.970 . S
O589 Li529 1.956 . S
O589 Li531 1.961 . S
O589 C538 1.325 . S
O590 Li528 1.961 . S
O590 Li530 1.956 . S
O590 Li531 1.970 . S
O590 C560 1.325 . S
O591 Li529 1.961 . S
O591 Li530 1.970 . S
O591 Li531 1.956 . S
O591 C566 1.325 . S
H592 C534 0.929 . S
H593 C535 0.930 . S
H594 C536 0.930 . S
H595 C537 0.930 . S
H596 C539 0.930 . S
H597 C541 0.904 1_545 S
H598 C542 0.946 . S
H599 C543 0.930 . S
H600 C546 0.930 . S
H601 C549 0.929 . S
H602 C554 0.929 . S
H603 C555 0.930 1_565 S
H604 C562 0.929 . S
H605 C563 0.930 . S
H606 C564 0.930 . S
H607 C565 0.930 . S
H608 C567 0.929 . S
H609 C568 0.930 . S
H610 C569 0.930 . S
H611 C570 0.930 . S
H612 C574 0.929 . S
H613 C576 0.930 . S
H614 C582 0.929 1_565 S
H615 C583 0.930 . S
Li616 N633 1.990 . S
Li616 O676 1.956 . S
Li616 O677 1.970 . S
Li616 O678 1.961 . S
Li617 N641 1.990 . S
Li617 O676 1.970 . S
Li617 O677 1.956 . S
Li617 O679 1.961 . S
Li618 N663 1.990 . S
Li618 O676 1.961 . S
Li618 O678 1.956 . S
Li618 O679 1.970 . S
Li619 N669 1.990 . S
Li619 O677 1.961 . S
Li619 O678 1.970 . S
Li619 O679 1.956 . S
C620 C622 1.329 1_565 S
C620 C623 1.356 1_565 S
C620 O676 1.325 . S
N621 C624 1.314 . S
N621 C625 1.279 . S
C622 C620 1.329 1_545 S
C622 C624 1.398 . S
C622 H680 0.904 1_545 S
C623 C620 1.356 1_545 S
C623 C625 1.358 . S
C623 H681 0.946 . S
C624 N621 1.314 . S
C624 C622 1.398 . S
C624 H682 0.930 . S
C625 N621 1.279 . S
C625 C623 1.358 . S
C625 H683 0.930 . S
C626 C629 1.348 . S
C626 C630 1.356 . S
C626 O677 1.325 . S
C627 N628 1.279 . S
C627 C630 1.358 . S
C627 H684 0.930 . S
N628 C627 1.279 . S
N628 C631 1.314 . S
C629 C626 1.348 . S
C629 C631 1.353 . S
C629 H685 0.929 . S
C630 C626 1.356 . S
C630 C627 1.358 . S
C630 H686 0.930 . S
C631 N628 1.314 . S
C631 C629 1.353 . S
C631 H687 0.930 . S
C632 N633 1.314 . S
C632 C637 1.353 . S
C632 H638 0.930 . S
N633 Li616 1.990 . S
N633 C632 1.314 . S
N633 C635 1.279 . S
C634 C635 1.358 . S
C634 C636 1.356 . S
C634 H688 0.930 1_565 S
C635 N633 1.279 . S
C635 C634 1.358 . S
C635 H639 0.930 . S
C636 C634 1.356 . S
C636 C637 1.348 . S
C637 C632 1.353 . S
C637 C636 1.348 . S
C637 H689 0.929 . S
H638 C632 0.930 . S
H639 C635 0.930 . S
C640 N641 1.314 . S
C640 C642 1.353 . S
C640 H646 0.930 . S
N641 Li617 1.990 . S
N641 C640 1.314 . S
N641 C644 1.279 . S
C642 C640 1.353 . S
C642 C645 1.348 . S
C642 H690 0.929 . S
C643 C644 1.358 . S
C643 C645 1.356 . S
C643 H691 0.930 . S
C644 N641 1.279 . S
C644 C643 1.358 . S
C644 H647 0.930 . S
C645 C642 1.348 . S
C645 C643 1.356 . S
H646 C640 0.930 . S
H647 C644 0.930 . S
C648 C650 1.348 . S
C648 C651 1.358 1_455 S
C648 O678 1.325 . S
N649 C652 1.314 . S
N649 C653 1.279 . S
C650 C648 1.348 . S
C650 C652 1.353 1_455 S
C650 H692 0.929 . S
C651 C648 1.358 1_655 S
C651 C653 1.356 . S
C651 H693 0.930 1_655 S
C652 N649 1.314 . S
C652 C650 1.353 1_655 S
C652 H694 0.930 . S
C653 N649 1.279 . S
C653 C651 1.356 . S
C653 H695 0.930 . S
C654 C655 1.348 . S
C654 C656 1.356 . S
C654 O679 1.325 . S
C655 C654 1.348 . S
C655 C657 1.353 . S
C655 H696 0.929 . S
C656 C654 1.356 . S
C656 C658 1.358 . S
C656 H697 0.930 . S
C657 C655 1.353 . S
C657 N659 1.314 . S
C657 H698 0.930 . S
C658 C656 1.358 . S
C658 N659 1.279 . S
C658 H699 0.930 . S
N659 C657 1.314 . S
N659 C658 1.279 . S
C660 C662 1.353 . S
C660 N663 1.314 . S
C660 H666 0.930 . S
C661 N663 1.279 . S
C661 C664 1.358 . S
C661 H667 0.930 . S
C662 C660 1.353 . S
C662 C665 1.348 . S
C662 H700 0.929 1_565 S
N663 Li618 1.990 . S
N663 C660 1.314 . S
N663 C661 1.279 . S
C664 C661 1.358 . S
C664 C665 1.356 . S
C664 H701 0.930 1_455 S
C665 C662 1.348 . S
C665 C664 1.356 . S
H666 C660 0.930 . S
H667 C661 0.930 . S
C668 N669 1.314 . S
C668 C670 1.353 . S
C668 H674 0.930 . S
N669 Li619 1.990 . S
N669 C668 1.314 . S
N669 C672 1.279 . S
C670 C668 1.353 . S
C670 C673 1.348 . S
C670 H702 0.929 . S
C671 C672 1.358 . S
C671 C673 1.356 . S
C671 H703 0.930 . S
C672 N669 1.279 . S
C672 C671 1.358 . S
C672 H675 0.930 . S
C673 C670 1.348 . S
C673 C671 1.356 . S
H674 C668 0.930 . S
H675 C672 0.930 . S
O676 Li616 1.956 . S
O676 Li617 1.970 . S
O676 Li618 1.961 . S
O676 C620 1.325 . S
O677 Li616 1.970 . S
O677 Li617 1.956 . S
O677 Li619 1.961 . S
O677 C626 1.325 . S
O678 Li616 1.961 . S
O678 Li618 1.956 . S
O678 Li619 1.970 . S
O678 C648 1.325 . S
O679 Li617 1.961 . S
O679 Li618 1.970 . S
O679 Li619 1.956 . S
O679 C654 1.325 . S
H680 C622 0.904 1_565 S
H681 C623 0.946 . S
H682 C624 0.930 . S
H683 C625 0.930 . S
H684 C627 0.930 . S
H685 C629 0.929 . S
H686 C630 0.930 . S
H687 C631 0.930 . S
H688 C634 0.930 1_545 S
H689 C637 0.929 . S
H690 C642 0.929 . S
H691 C643 0.930 . S
H692 C650 0.929 . S
H693 C651 0.930 1_455 S
H694 C652 0.930 . S
H695 C653 0.930 . S
H696 C655 0.929 . S
H697 C656 0.930 . S
H698 C657 0.930 . S
H699 C658 0.930 . S
H700 C662 0.929 1_545 S
H701 C664 0.930 1_655 S
H702 C670 0.929 . S
H703 C671 0.930 . S
Li704 N721 1.990 . S
Li704 O764 1.956 . S
Li704 O765 1.970 . S
Li704 O766 1.961 . S
Li705 N729 1.990 . S
Li705 O764 1.970 . S
Li705 O765 1.956 . S
Li705 O767 1.961 . S
Li706 N751 1.990 . S
Li706 O764 1.961 . S
Li706 O766 1.956 . S
Li706 O767 1.970 . S
Li707 N757 1.990 . S
Li707 O765 1.961 . S
Li707 O766 1.970 . S
Li707 O767 1.956 . S
C708 C710 1.348 . S
C708 C711 1.356 . S
C708 O764 1.325 . S
N709 C712 1.314 . S
N709 C713 1.279 . S
C710 C708 1.348 . S
C710 C712 1.353 . S
C710 H768 0.929 . S
C711 C708 1.356 . S
C711 C713 1.358 . S
C711 H769 0.930 . S
C712 N709 1.314 . S
C712 C710 1.353 . S
C712 H770 0.930 . S
C713 N709 1.279 . S
C713 C711 1.358 . S
C713 H771 0.930 . S
C714 C717 1.348 . S
C714 C718 1.356 . S
C714 O765 1.325 . S
C715 N716 1.279 . S
C715 C718 1.358 . S
C715 H772 0.930 . S
N716 C715 1.279 . S
N716 C719 1.314 . S
C717 C714 1.348 . S
C717 C719 1.353 . S
C717 H773 0.929 . S
C718 C714 1.356 . S
C718 C715 1.358 . S
C718 H774 0.930 . S
C719 N716 1.314 . S
C719 C717 1.353 . S
C719 H775 0.930 . S
C720 N721 1.314 . S
C720 C725 1.353 . S
C720 H726 0.930 . S
N721 Li704 1.990 . S
N721 C720 1.314 . S
N721 C723 1.279 . S
C722 C723 1.358 . S
C722 C724 1.356 . S
C722 H776 0.930 . S
C723 N721 1.279 . S
C723 C722 1.358 . S
C723 H727 0.930 . S
C724 C722 1.356 . S
C724 C725 1.348 . S
C725 C720 1.353 . S
C725 C724 1.348 . S
C725 H777 0.929 . S
H726 C720 0.930 . S
H727 C723 0.930 . S
C728 N729 1.314 . S
C728 C730 1.353 . S
C728 H734 0.930 . S
N729 Li705 1.990 . S
N729 C728 1.314 . S
N729 C732 1.279 . S
C730 C728 1.353 . S
C730 C733 1.348 . S
C730 H778 0.929 . S
C731 C732 1.358 . S
C731 C733 1.356 . S
C731 H779 0.930 . S
C732 N729 1.279 . S
C732 C731 1.358 . S
C732 H735 0.930 . S
C733 C730 1.348 . S
C733 C731 1.356 . S
H734 C728 0.930 . S
H735 C732 0.930 . S
C736 C738 1.348 . S
C736 C739 1.356 . S
C736 O766 1.325 . S
N737 C740 1.314 . S
N737 C741 1.279 . S
C738 C736 1.348 . S
C738 C740 1.353 . S
C738 H780 0.929 . S
C739 C736 1.356 . S
C739 C741 1.358 . S
C739 H781 0.930 . S
C740 N737 1.314 . S
C740 C738 1.353 . S
C740 H782 0.930 . S
C741 N737 1.279 . S
C741 C739 1.358 . S
C741 H783 0.930 . S
C742 C743 1.348 . S
C742 C744 1.356 . S
C742 O767 1.325 . S
C743 C742 1.348 . S
C743 C745 1.353 . S
C743 H784 0.929 . S
C744 C742 1.356 . S
C744 C746 1.358 . S
C744 H785 0.930 . S
C745 C743 1.353 . S
C745 N747 1.314 . S
C745 H786 0.930 . S
C746 C744 1.358 . S
C746 N747 1.279 . S
C746 H787 0.930 . S
N747 C745 1.314 . S
N747 C746 1.279 . S
C748 C750 1.353 . S
C748 N751 1.314 . S
C748 H754 0.930 . S
C749 N751 1.279 . S
C749 C752 1.358 . S
C749 H755 0.930 . S
C750 C748 1.353 . S
C750 C753 1.348 . S
C750 H788 0.929 . S
N751 Li706 1.990 . S
N751 C748 1.314 . S
N751 C749 1.279 . S
C752 C749 1.358 . S
C752 C753 1.356 . S
C752 H789 0.930 . S
C753 C750 1.348 . S
C753 C752 1.356 . S
H754 C748 0.930 . S
H755 C749 0.930 . S
C756 N757 1.314 . S
C756 C758 1.353 . S
C756 H762 0.930 . S
N757 Li707 1.990 . S
N757 C756 1.314 . S
N757 C760 1.279 . S
C758 C756 1.353 . S
C758 C761 1.348 . S
C758 H790 0.929 . S
C759 C760 1.358 . S
C759 C761 1.356 . S
C759 H791 0.930 . S
C760 N757 1.279 . S
C760 C759 1.358 . S
C760 H763 0.930 . S
C761 C758 1.348 . S
C761 C759 1.356 . S
H762 C756 0.930 . S
H763 C760 0.930 . S
O764 Li704 1.956 . S
O764 Li705 1.970 . S
O764 Li706 1.961 . S
O764 C708 1.325 . S
O765 Li704 1.970 . S
O765 Li705 1.956 . S
O765 Li707 1.961 . S
O765 C714 1.325 . S
O766 Li704 1.961 . S
O766 Li706 1.956 . S
O766 Li707 1.970 . S
O766 C736 1.325 . S
O767 Li705 1.961 . S
O767 Li706 1.970 . S
O767 Li707 1.956 . S
O767 C742 1.325 . S
H768 C710 0.929 . S
H769 C711 0.930 . S
H770 C712 0.930 . S
H771 C713 0.930 . S
H772 C715 0.930 . S
H773 C717 0.929 . S
H774 C718 0.930 . S
H775 C719 0.930 . S
H776 C722 0.930 . S
H777 C725 0.929 . S
H778 C730 0.929 . S
H779 C731 0.930 . S
H780 C738 0.929 . S
H781 C739 0.930 . S
H782 C740 0.930 . S
H783 C741 0.930 . S
H784 C743 0.929 . S
H785 C744 0.930 . S
H786 C745 0.930 . S
H787 C746 0.930 . S
H788 C750 0.929 . S
H789 C752 0.930 . S
H790 C758 0.929 . S
H791 C759 0.930 . S
Li792 N809 1.990 . S
Li792 O852 1.956 . S
Li792 O853 1.970 . S
Li792 O854 1.961 . S
Li793 N817 1.990 . S
Li793 O852 1.970 . S
Li793 O853 1.956 . S
Li793 O855 1.961 . S
Li794 N839 1.990 . S
Li794 O852 1.961 . S
Li794 O854 1.956 . S
Li794 O855 1.970 . S
Li795 N845 1.990 . S
Li795 O853 1.961 . S
Li795 O854 1.970 . S
Li795 O855 1.956 . S
C796 C798 1.348 . S
C796 C799 1.356 . S
C796 O852 1.325 . S
N797 C800 1.314 . S
N797 C801 1.279 . S
C798 C796 1.348 . S
C798 C800 1.353 . S
C798 H856 0.929 . S
C799 C796 1.356 . S
C799 C801 1.358 . S
C799 H857 0.930 . S
C800 N797 1.314 . S
C800 C798 1.353 . S
C800 H858 0.930 . S
C801 N797 1.279 . S
C801 C799 1.358 . S
C801 H859 0.930 . S
C802 C805 1.348 . S
C802 C806 1.344 1_655 S
C802 O853 1.325 . S
C803 N804 1.279 . S
C803 C806 1.376 . S
C803 H860 0.930 . S
N804 C803 1.279 . S
N804 C807 1.314 . S
C805 C802 1.348 . S
C805 C807 1.353 1_655 S
C805 H861 0.929 . S
C806 C802 1.344 1_455 S
C806 C803 1.376 . S
C806 H862 0.925 1_455 S
C807 N804 1.314 . S
C807 C805 1.353 1_455 S
C807 H863 0.930 . S
C808 N809 1.314 . S
C808 C813 1.353 . S
C808 H814 0.930 . S
N809 Li792 1.990 . S
N809 C808 1.314 . S
N809 C811 1.279 . S
C810 C811 1.358 . S
C810 C812 1.356 . S
C810 H864 0.930 . S
C811 N809 1.279 . S
C811 C810 1.358 . S
C811 H815 0.930 . S
C812 C810 1.356 . S
C812 C813 1.348 . S
C813 C808 1.353 . S
C813 C812 1.348 . S
C813 H865 0.929 . S
H814 C808 0.930 . S
H815 C811 0.930 . S
C816 N817 1.314 . S
C816 C818 1.353 . S
C816 H822 0.930 . S
N817 Li793 1.990 . S
N817 C816 1.314 . S
N817 C820 1.279 . S
C818 C816 1.353 . S
C818 C821 1.348 . S
C818 H866 0.929 . S
C819 C820 1.358 . S
C819 C821 1.356 . S
C819 H867 0.930 1_655 S
C820 N817 1.279 . S
C820 C819 1.358 . S
C820 H823 0.930 . S
C821 C818 1.348 . S
C821 C819 1.356 . S
H822 C816 0.930 . S
H823 C820 0.930 . S
C824 C826 1.348 . S
C824 C827 1.356 . S
C824 O854 1.325 . S
N825 C828 1.314 . S
N825 C829 1.279 . S
C826 C824 1.348 . S
C826 C828 1.353 . S
C826 H868 0.929 . S
C827 C824 1.356 . S
C827 C829 1.358 . S
C827 H869 0.930 . S
C828 N825 1.314 . S
C828 C826 1.353 . S
C828 H870 0.930 . S
C829 N825 1.279 . S
C829 C827 1.358 . S
C829 H871 0.930 . S
C830 C831 1.348 . S
C830 C832 1.356 . S
C830 O855 1.325 . S
C831 C830 1.348 . S
C831 C833 1.353 . S
C831 H872 0.929 . S
C832 C830 1.356 . S
C832 C834 1.358 . S
C832 H873 0.930 . S
C833 C831 1.353 . S
C833 N835 1.314 . S
C833 H874 0.930 . S
C834 C832 1.358 . S
C834 N835 1.279 . S
C834 H875 0.930 . S
N835 C833 1.314 . S
N835 C834 1.279 . S
C836 C838 1.353 . S
C836 N839 1.314 . S
C836 H842 0.930 . S
C837 N839 1.279 . S
C837 C840 1.358 . S
C837 H843 0.930 . S
C838 C836 1.353 . S
C838 C841 1.348 . S
C838 H876 0.929 . S
N839 Li794 1.990 . S
N839 C836 1.314 . S
N839 C837 1.279 . S
C840 C837 1.358 . S
C840 C841 1.356 . S
C840 H877 0.930 . S
C841 C838 1.348 . S
C841 C840 1.356 . S
H842 C836 0.930 . S
H843 C837 0.930 . S
C844 N845 1.314 . S
C844 C846 1.353 . S
C844 H850 0.930 . S
N845 Li795 1.990 . S
N845 C844 1.314 . S
N845 C848 1.279 . S
C846 C844 1.353 . S
C846 C849 1.348 . S
C846 H878 0.929 . S
C847 C848 1.358 . S
C847 C849 1.356 . S
C847 H879 0.930 . S
C848 N845 1.279 . S
C848 C847 1.358 . S
C848 H851 0.930 . S
C849 C846 1.348 . S
C849 C847 1.356 . S
H850 C844 0.930 . S
H851 C848 0.930 . S
O852 Li792 1.956 . S
O852 Li793 1.970 . S
O852 Li794 1.961 . S
O852 C796 1.325 . S
O853 Li792 1.970 . S
O853 Li793 1.956 . S
O853 Li795 1.961 . S
O853 C802 1.325 . S
O854 Li792 1.961 . S
O854 Li794 1.956 . S
O854 Li795 1.970 . S
O854 C824 1.325 . S
O855 Li793 1.961 . S
O855 Li794 1.970 . S
O855 Li795 1.956 . S
O855 C830 1.325 . S
H856 C798 0.929 . S
H857 C799 0.930 . S
H858 C800 0.930 . S
H859 C801 0.930 . S
H860 C803 0.930 . S
H861 C805 0.929 . S
H862 C806 0.925 1_655 S
H863 C807 0.930 . S
H864 C810 0.930 . S
H865 C813 0.929 . S
H866 C818 0.929 . S
H867 C819 0.930 1_455 S
H868 C826 0.929 . S
H869 C827 0.930 . S
H870 C828 0.930 . S
H871 C829 0.930 . S
H872 C831 0.929 . S
H873 C832 0.930 . S
H874 C833 0.930 . S
H875 C834 0.930 . S
H876 C838 0.929 . S
H877 C840 0.930 . S
H878 C846 0.929 . S
H879 C847 0.930 . S
Li880 N897 1.990 . S
Li880 O940 1.956 . S
Li880 O941 1.970 . S
Li880 O942 1.961 . S
Li881 N905 1.990 . S
Li881 O940 1.970 . S
Li881 O941 1.956 . S
Li881 O943 1.961 . S
Li882 N927 1.990 . S
Li882 O940 1.961 . S
Li882 O942 1.956 . S
Li882 O943 1.970 . S
Li883 N933 1.990 . S
Li883 O941 1.961 . S
Li883 O942 1.970 . S
Li883 O943 1.956 . S
C884 C886 1.348 . S
C884 C887 1.356 . S
C884 O940 1.325 . S
N885 C888 1.314 . S
N885 C889 1.279 . S
C886 C884 1.348 . S
C886 C888 1.353 . S
C886 H944 0.929 . S
C887 C884 1.356 . S
C887 C889 1.358 . S
C887 H945 0.930 . S
C888 N885 1.314 . S
C888 C886 1.353 . S
C888 H946 0.930 . S
C889 N885 1.279 . S
C889 C887 1.358 . S
C889 H947 0.930 . S
C890 C893 1.348 . S
C890 C894 1.356 . S
C890 O941 1.325 . S
C891 N892 1.279 . S
C891 C894 1.358 . S
C891 H948 0.930 . S
N892 C891 1.279 . S
N892 C895 1.314 . S
C893 C890 1.348 . S
C893 C895 1.353 . S
C893 H949 0.929 . S
C894 C890 1.356 . S
C894 C891 1.358 . S
C894 H950 0.930 . S
C895 N892 1.314 . S
C895 C893 1.353 . S
C895 H951 0.930 . S
C896 N897 1.314 . S
C896 C901 1.353 . S
C896 H902 0.930 . S
N897 Li880 1.990 . S
N897 C896 1.314 . S
N897 C899 1.279 . S
C898 C899 1.358 . S
C898 C900 1.356 . S
C898 H952 0.930 . S
C899 N897 1.279 . S
C899 C898 1.358 . S
C899 H903 0.930 . S
C900 C898 1.356 . S
C900 C901 1.348 . S
C901 C896 1.353 . S
C901 C900 1.348 . S
C901 H953 0.929 . S
H902 C896 0.930 . S
H903 C899 0.930 . S
C904 N905 1.314 . S
C904 C906 1.353 . S
C904 H910 0.930 . S
N905 Li881 1.990 . S
N905 C904 1.314 . S
N905 C908 1.279 . S
C906 C904 1.353 . S
C906 C909 1.348 . S
C906 H954 0.929 . S
C907 C908 1.358 . S
C907 C909 1.356 . S
C907 H955 0.930 . S
C908 N905 1.279 . S
C908 C907 1.358 . S
C908 H911 0.930 . S
C909 C906 1.348 . S
C909 C907 1.356 . S
H910 C904 0.930 . S
H911 C908 0.930 . S
C912 C914 1.348 . S
C912 C915 1.344 1_455 S
C912 O942 1.325 . S
N913 C916 1.314 . S
N913 C917 1.279 . S
C914 C912 1.348 . S
C914 C916 1.353 1_455 S
C914 H956 0.929 . S
C915 C912 1.344 1_655 S
C915 C917 1.376 . S
C915 H957 0.925 1_655 S
C916 N913 1.314 . S
C916 C914 1.353 1_655 S
C916 H958 0.930 . S
C917 N913 1.279 . S
C917 C915 1.376 . S
C917 H959 0.930 . S
C918 C919 1.348 . S
C918 C920 1.356 . S
C918 O943 1.325 . S
C919 C918 1.348 . S
C919 C921 1.353 . S
C919 H960 0.929 . S
C920 C918 1.356 . S
C920 C922 1.358 . S
C920 H961 0.930 . S
C921 C919 1.353 . S
C921 N923 1.314 . S
C921 H962 0.930 . S
C922 C920 1.358 . S
C922 N923 1.279 . S
C922 H963 0.930 . S
N923 C921 1.314 . S
N923 C922 1.279 . S
C924 C926 1.353 . S
C924 N927 1.314 . S
C924 H930 0.930 . S
C925 N927 1.279 . S
C925 C928 1.358 . S
C925 H931 0.930 . S
C926 C924 1.353 . S
C926 C929 1.348 . S
C926 H964 0.929 . S
N927 Li882 1.990 . S
N927 C924 1.314 . S
N927 C925 1.279 . S
C928 C925 1.358 . S
C928 C929 1.356 . S
C928 H965 0.930 1_455 S
C929 C926 1.348 . S
C929 C928 1.356 . S
H930 C924 0.930 . S
H931 C925 0.930 . S
C932 N933 1.314 . S
C932 C934 1.353 . S
C932 H938 0.930 . S
N933 Li883 1.990 . S
N933 C932 1.314 . S
N933 C936 1.279 . S
C934 C932 1.353 . S
C934 C937 1.348 . S
C934 H966 0.929 . S
C935 C936 1.358 . S
C935 C937 1.356 . S
C935 H967 0.930 . S
C936 N933 1.279 . S
C936 C935 1.358 . S
C936 H939 0.930 . S
C937 C934 1.348 . S
C937 C935 1.356 . S
H938 C932 0.930 . S
H939 C936 0.930 . S
O940 Li880 1.956 . S
O940 Li881 1.970 . S
O940 Li882 1.961 . S
O940 C884 1.325 . S
O941 Li880 1.970 . S
O941 Li881 1.956 . S
O941 Li883 1.961 . S
O941 C890 1.325 . S
O942 Li880 1.961 . S
O942 Li882 1.956 . S
O942 Li883 1.970 . S
O942 C912 1.325 . S
O943 Li881 1.961 . S
O943 Li882 1.970 . S
O943 Li883 1.956 . S
O943 C918 1.325 . S
H944 C886 0.929 . S
H945 C887 0.930 . S
H946 C888 0.930 . S
H947 C889 0.930 . S
H948 C891 0.930 . S
H949 C893 0.929 . S
H950 C894 0.930 . S
H951 C895 0.930 . S
H952 C898 0.930 . S
H953 C901 0.929 . S
H954 C906 0.929 . S
H955 C907 0.930 . S
H956 C914 0.929 . S
H957 C915 0.925 1_455 S
H958 C916 0.930 . S
H959 C917 0.930 . S
H960 C919 0.929 . S
H961 C920 0.930 . S
H962 C921 0.930 . S
H963 C922 0.930 . S
H964 C926 0.929 . S
H965 C928 0.930 1_655 S
H966 C934 0.929 . S
H967 C935 0.930 . S
Li968 N985 1.990 . S
Li968 O1028 1.956 . S
Li968 O1029 1.970 . S
Li968 O1030 1.961 . S
Li969 N993 1.990 . S
Li969 O1028 1.970 . S
Li969 O1029 1.956 . S
Li969 O1031 1.961 . S
Li970 N1015 1.990 . S
Li970 O1028 1.961 . S
Li970 O1030 1.956 . S
Li970 O1031 1.970 . S
Li971 N1021 1.990 . S
Li971 O1029 1.961 . S
Li971 O1030 1.970 . S
Li971 O1031 1.956 . S
C972 C974 1.348 . S
C972 C975 1.356 . S
C972 O1028 1.325 . S
N973 C976 1.314 . S
N973 C977 1.279 . S
C974 C972 1.348 . S
C974 C976 1.353 . S
C974 H1032 0.929 . S
C975 C972 1.356 . S
C975 C977 1.358 . S
C975 H1033 0.930 . S
C976 N973 1.314 . S
C976 C974 1.353 . S
C976 H1034 0.930 . S
C977 N973 1.279 . S
C977 C975 1.358 . S
C977 H1035 0.930 . S
C978 C981 1.348 . S
C978 C982 1.356 . S
C978 O1029 1.325 . S
C979 N980 1.279 . S
C979 C982 1.358 . S
C979 H1036 0.930 . S
N980 C979 1.279 . S
N980 C983 1.314 . S
C981 C978 1.348 . S
C981 C983 1.353 . S
C981 H1037 0.929 . S
C982 C978 1.356 . S
C982 C979 1.358 . S
C982 H1038 0.930 . S
C983 N980 1.314 . S
C983 C981 1.353 . S
C983 H1039 0.930 . S
C984 N985 1.314 . S
C984 C989 1.353 . S
C984 H990 0.930 . S
N985 Li968 1.990 . S
N985 C984 1.314 . S
N985 C987 1.279 . S
C986 C987 1.358 . S
C986 C988 1.356 . S
C986 H1040 0.930 . S
C987 N985 1.279 . S
C987 C986 1.358 . S
C987 H991 0.930 . S
C988 C986 1.356 . S
C988 C989 1.348 . S
C989 C984 1.353 . S
C989 C988 1.348 . S
C989 H1041 0.929 . S
H990 C984 0.930 . S
H991 C987 0.930 . S
C992 N993 1.314 . S
C992 C994 1.353 . S
C992 H998 0.930 . S
N993 Li969 1.990 . S
N993 C992 1.314 . S
N993 C996 1.279 . S
C994 C992 1.353 . S
C994 C997 1.348 . S
C994 H1042 0.929 . S
C995 C996 1.358 . S
C995 C997 1.356 . S
C995 H1043 0.930 . S
C996 N993 1.279 . S
C996 C995 1.358 . S
C996 H999 0.930 . S
C997 C994 1.348 . S
C997 C995 1.356 . S
H998 C992 0.930 . S
H999 C996 0.930 . S
C1000 C1002 1.348 . S
C1000 C1003 1.356 . S
C1000 O1030 1.325 . S
N1001 C1004 1.314 . S
N1001 C1005 1.279 . S
C1002 C1000 1.348 . S
C1002 C1004 1.353 . S
C1002 H1044 0.929 . S
C1003 C1000 1.356 . S
C1003 C1005 1.358 . S
C1003 H1045 0.930 . S
C1004 N1001 1.314 . S
C1004 C1002 1.353 . S
C1004 H1046 0.930 . S
C1005 N1001 1.279 . S
C1005 C1003 1.358 . S
C1005 H1047 0.930 . S
C1006 C1007 1.348 . S
C1006 C1008 1.356 . S
C1006 O1031 1.325 . S
C1007 C1006 1.348 . S
C1007 C1009 1.353 . S
C1007 H1048 0.929 . S
C1008 C1006 1.356 . S
C1008 C1010 1.358 . S
C1008 H1049 0.930 . S
C1009 C1007 1.353 . S
C1009 N1011 1.314 . S
C1009 H1050 0.930 . S
C1010 C1008 1.358 . S
C1010 N1011 1.279 . S
C1010 H1051 0.930 . S
N1011 C1009 1.314 . S
N1011 C1010 1.279 . S
C1012 C1014 1.353 . S
C1012 N1015 1.314 . S
C1012 H1018 0.930 . S
C1013 N1015 1.279 . S
C1013 C1016 1.358 . S
C1013 H1019 0.930 . S
C1014 C1012 1.353 . S
C1014 C1017 1.348 . S
C1014 H1052 0.929 . S
N1015 Li970 1.990 . S
N1015 C1012 1.314 . S
N1015 C1013 1.279 . S
C1016 C1013 1.358 . S
C1016 C1017 1.356 . S
C1016 H1053 0.930 . S
C1017 C1014 1.348 . S
C1017 C1016 1.356 . S
H1018 C1012 0.930 . S
H1019 C1013 0.930 . S
C1020 N1021 1.314 . S
C1020 C1022 1.353 . S
C1020 H1026 0.930 . S
N1021 Li971 1.990 . S
N1021 C1020 1.314 . S
N1021 C1024 1.279 . S
C1022 C1020 1.353 . S
C1022 C1025 1.348 . S
C1022 H1054 0.929 . S
C1023 C1024 1.358 . S
C1023 C1025 1.356 . S
C1023 H1055 0.930 . S
C1024 N1021 1.279 . S
C1024 C1023 1.358 . S
C1024 H1027 0.930 . S
C1025 C1022 1.348 . S
C1025 C1023 1.356 . S
H1026 C1020 0.930 . S
H1027 C1024 0.930 . S
O1028 Li968 1.956 . S
O1028 Li969 1.970 . S
O1028 Li970 1.961 . S
O1028 C972 1.325 . S
O1029 Li968 1.970 . S
O1029 Li969 1.956 . S
O1029 Li971 1.961 . S
O1029 C978 1.325 . S
O1030 Li968 1.961 . S
O1030 Li970 1.956 . S
O1030 Li971 1.970 . S
O1030 C1000 1.325 . S
O1031 Li969 1.961 . S
O1031 Li970 1.970 . S
O1031 Li971 1.956 . S
O1031 C1006 1.325 . S
H1032 C974 0.929 . S
H1033 C975 0.930 . S
H1034 C976 0.930 . S
H1035 C977 0.930 . S
H1036 C979 0.930 . S
H1037 C981 0.929 . S
H1038 C982 0.930 . S
H1039 C983 0.930 . S
H1040 C986 0.930 . S
H1041 C989 0.929 . S
H1042 C994 0.929 . S
H1043 C995 0.930 . S
H1044 C1002 0.929 . S
H1045 C1003 0.930 . S
H1046 C1004 0.930 . S
H1047 C1005 0.930 . S
H1048 C1007 0.929 . S
H1049 C1008 0.930 . S
H1050 C1009 0.930 . S
H1051 C1010 0.930 . S
H1052 C1014 0.929 . S
H1053 C1016 0.930 . S
H1054 C1022 0.929 . S
H1055 C1023 0.930 . S
Li1056 N1073 1.990 . S
Li1056 O1116 1.956 . S
Li1056 O1117 1.970 . S
Li1056 O1118 1.961 . S
Li1057 N1081 1.990 . S
Li1057 O1116 1.970 . S
Li1057 O1117 1.956 . S
Li1057 O1119 1.961 . S
Li1058 N1103 1.990 . S
Li1058 O1116 1.961 . S
Li1058 O1118 1.956 . S
Li1058 O1119 1.970 . S
Li1059 N1109 1.990 . S
Li1059 O1117 1.961 . S
Li1059 O1118 1.970 . S
Li1059 O1119 1.956 . S
C1060 C1062 1.348 . S
C1060 C1063 1.356 . S
C1060 O1116 1.325 . S
N1061 C1064 1.314 . S
N1061 C1065 1.279 . S
C1062 C1060 1.348 . S
C1062 C1064 1.353 . S
C1062 H1120 0.929 . S
C1063 C1060 1.356 . S
C1063 C1065 1.358 . S
C1063 H1121 0.930 . S
C1064 N1061 1.314 . S
C1064 C1062 1.353 . S
C1064 H1122 0.930 . S
C1065 N1061 1.279 . S
C1065 C1063 1.358 . S
C1065 H1123 0.930 . S
C1066 C1069 1.348 . S
C1066 C1070 1.356 . S
C1066 O1117 1.325 . S
C1067 N1068 1.279 . S
C1067 C1070 1.358 . S
C1067 H1124 0.930 . S
N1068 C1067 1.279 . S
N1068 C1071 1.314 . S
C1069 C1066 1.348 . S
C1069 C1071 1.353 . S
C1069 H1125 0.929 . S
C1070 C1066 1.356 . S
C1070 C1067 1.358 . S
C1070 H1126 0.930 . S
C1071 N1068 1.314 . S
C1071 C1069 1.353 . S
C1071 H1127 0.930 . S
C1072 N1073 1.314 . S
C1072 C1077 1.353 . S
C1072 H1078 0.930 . S
N1073 Li1056 1.990 . S
N1073 C1072 1.314 . S
N1073 C1075 1.279 . S
C1074 C1075 1.358 . S
C1074 C1076 1.356 . S
C1074 H1128 0.930 . S
C1075 N1073 1.279 . S
C1075 C1074 1.358 . S
C1075 H1079 0.930 . S
C1076 C1074 1.356 . S
C1076 C1077 1.348 . S
C1077 C1072 1.353 . S
C1077 C1076 1.348 . S
C1077 H1129 0.929 . S
H1078 C1072 0.930 . S
H1079 C1075 0.930 . S
C1080 N1081 1.314 . S
C1080 C1082 1.353 . S
C1080 H1086 0.930 . S
N1081 Li1057 1.990 . S
N1081 C1080 1.314 . S
N1081 C1084 1.279 . S
C1082 C1080 1.353 . S
C1082 C1085 1.348 . S
C1082 H1130 0.929 . S
C1083 C1084 1.358 . S
C1083 C1085 1.356 . S
C1083 H1131 0.930 . S
C1084 N1081 1.279 . S
C1084 C1083 1.358 . S
C1084 H1087 0.930 . S
C1085 C1082 1.348 . S
C1085 C1083 1.356 . S
H1086 C1080 0.930 . S
H1087 C1084 0.930 . S
C1088 C1090 1.348 . S
C1088 C1091 1.356 . S
C1088 O1118 1.325 . S
N1089 C1092 1.314 . S
N1089 C1093 1.279 . S
C1090 C1088 1.348 . S
C1090 C1092 1.353 . S
C1090 H1132 0.929 . S
C1091 C1088 1.356 . S
C1091 C1093 1.358 . S
C1091 H1133 0.930 . S
C1092 N1089 1.314 . S
C1092 C1090 1.353 . S
C1092 H1134 0.930 . S
C1093 N1089 1.279 . S
C1093 C1091 1.358 . S
C1093 H1135 0.930 . S
C1094 C1095 1.348 . S
C1094 C1096 1.356 . S
C1094 O1119 1.325 . S
C1095 C1094 1.348 . S
C1095 C1097 1.353 . S
C1095 H1136 0.929 . S
C1096 C1094 1.356 . S
C1096 C1098 1.358 . S
C1096 H1137 0.930 . S
C1097 C1095 1.353 . S
C1097 N1099 1.314 . S
C1097 H1138 0.930 . S
C1098 C1096 1.358 . S
C1098 N1099 1.279 . S
C1098 H1139 0.930 . S
N1099 C1097 1.314 . S
N1099 C1098 1.279 . S
C1100 C1102 1.353 . S
C1100 N1103 1.314 . S
C1100 H1106 0.930 . S
C1101 N1103 1.279 . S
C1101 C1104 1.358 . S
C1101 H1107 0.930 . S
C1102 C1100 1.353 . S
C1102 C1105 1.348 . S
C1102 H1140 0.929 . S
N1103 Li1058 1.990 . S
N1103 C1100 1.314 . S
N1103 C1101 1.279 . S
C1104 C1101 1.358 . S
C1104 C1105 1.356 . S
C1104 H1141 0.930 . S
C1105 C1102 1.348 . S
C1105 C1104 1.356 . S
H1106 C1100 0.930 . S
H1107 C1101 0.930 . S
C1108 N1109 1.314 . S
C1108 C1110 1.353 . S
C1108 H1114 0.930 . S
N1109 Li1059 1.990 . S
N1109 C1108 1.314 . S
N1109 C1112 1.279 . S
C1110 C1108 1.353 . S
C1110 C1113 1.348 . S
C1110 H1142 0.929 . S
C1111 C1112 1.358 . S
C1111 C1113 1.356 . S
C1111 H1143 0.930 . S
C1112 N1109 1.279 . S
C1112 C1111 1.358 . S
C1112 H1115 0.930 . S
C1113 C1110 1.348 . S
C1113 C1111 1.356 . S
H1114 C1108 0.930 . S
H1115 C1112 0.930 . S
O1116 Li1056 1.956 . S
O1116 Li1057 1.970 . S
O1116 Li1058 1.961 . S
O1116 C1060 1.325 . S
O1117 Li1056 1.970 . S
O1117 Li1057 1.956 . S
O1117 Li1059 1.961 . S
O1117 C1066 1.325 . S
O1118 Li1056 1.961 . S
O1118 Li1058 1.956 . S
O1118 Li1059 1.970 . S
O1118 C1088 1.325 . S
O1119 Li1057 1.961 . S
O1119 Li1058 1.970 . S
O1119 Li1059 1.956 . S
O1119 C1094 1.325 . S
H1120 C1062 0.929 . S
H1121 C1063 0.930 . S
H1122 C1064 0.930 . S
H1123 C1065 0.930 . S
H1124 C1067 0.930 . S
H1125 C1069 0.929 . S
H1126 C1070 0.930 . S
H1127 C1071 0.930 . S
H1128 C1074 0.930 . S
H1129 C1077 0.929 . S
H1130 C1082 0.929 . S
H1131 C1083 0.930 . S
H1132 C1090 0.929 . S
H1133 C1091 0.930 . S
H1134 C1092 0.930 . S
H1135 C1093 0.930 . S
H1136 C1095 0.929 . S
H1137 C1096 0.930 . S
H1138 C1097 0.930 . S
H1139 C1098 0.930 . S
H1140 C1102 0.929 . S
H1141 C1104 0.930 . S
H1142 C1110 0.929 . S
H1143 C1111 0.930 . S
Li1144 N1161 1.990 . S
Li1144 O1204 1.956 . S
Li1144 O1205 1.970 . S
Li1144 O1206 1.961 . S
Li1145 N1169 1.990 . S
Li1145 O1204 1.970 . S
Li1145 O1205 1.956 . S
Li1145 O1207 1.961 . S
Li1146 N1191 1.990 . S
Li1146 O1204 1.961 . S
Li1146 O1206 1.956 . S
Li1146 O1207 1.970 . S
Li1147 N1197 1.990 . S
Li1147 O1205 1.961 . S
Li1147 O1206 1.970 . S
Li1147 O1207 1.956 . S
C1148 C1150 1.348 . S
C1148 C1151 1.358 1_455 S
C1148 O1204 1.325 . S
N1149 C1152 1.314 . S
N1149 C1153 1.279 . S
C1150 C1148 1.348 . S
C1150 C1152 1.353 1_455 S
C1150 H1208 0.929 . S
C1151 C1148 1.358 1_655 S
C1151 C1153 1.356 . S
C1151 H1209 0.930 1_655 S
C1152 N1149 1.314 . S
C1152 C1150 1.353 1_655 S
C1152 H1210 0.930 . S
C1153 N1149 1.279 . S
C1153 C1151 1.356 . S
C1153 H1211 0.930 . S
C1154 C1157 1.348 . S
C1154 C1158 1.356 . S
C1154 O1205 1.325 . S
C1155 N1156 1.279 . S
C1155 C1158 1.358 . S
C1155 H1212 0.930 . S
N1156 C1155 1.279 . S
N1156 C1159 1.314 . S
C1157 C1154 1.348 . S
C1157 C1159 1.353 . S
C1157 H1213 0.929 . S
C1158 C1154 1.356 . S
C1158 C1155 1.358 . S
C1158 H1214 0.930 . S
C1159 N1156 1.314 . S
C1159 C1157 1.353 . S
C1159 H1215 0.930 . S
C1160 N1161 1.314 . S
C1160 C1165 1.353 . S
C1160 H1166 0.930 . S
N1161 Li1144 1.990 . S
N1161 C1160 1.314 . S
N1161 C1163 1.279 . S
C1162 C1163 1.358 . S
C1162 C1164 1.356 . S
C1162 H1216 0.930 1_455 S
C1163 N1161 1.279 . S
C1163 C1162 1.358 . S
C1163 H1167 0.930 . S
C1164 C1162 1.356 . S
C1164 C1165 1.348 . S
C1165 C1160 1.353 . S
C1165 C1164 1.348 . S
C1165 H1217 0.929 . S
H1166 C1160 0.930 . S
H1167 C1163 0.930 . S
C1168 N1169 1.314 . S
C1168 C1170 1.353 . S
C1168 H1174 0.930 . S
N1169 Li1145 1.990 . S
N1169 C1168 1.314 . S
N1169 C1172 1.279 . S
C1170 C1168 1.353 . S
C1170 C1173 1.348 . S
C1170 H1218 0.929 . S
C1171 C1172 1.358 . S
C1171 C1173 1.356 . S
C1171 H1219 0.930 . S
C1172 N1169 1.279 . S
C1172 C1171 1.358 . S
C1172 H1175 0.930 . S
C1173 C1170 1.348 . S
C1173 C1171 1.356 . S
H1174 C1168 0.930 . S
H1175 C1172 0.930 . S
C1176 C1178 1.348 . S
C1176 C1179 1.356 . S
C1176 O1206 1.325 . S
N1177 C1180 1.314 . S
N1177 C1181 1.279 . S
C1178 C1176 1.348 . S
C1178 C1180 1.353 . S
C1178 H1220 0.929 . S
C1179 C1176 1.356 . S
C1179 C1181 1.358 . S
C1179 H1221 0.930 . S
C1180 N1177 1.314 . S
C1180 C1178 1.353 . S
C1180 H1222 0.930 . S
C1181 N1177 1.279 . S
C1181 C1179 1.358 . S
C1181 H1223 0.930 . S
C1182 C1183 1.348 . S
C1182 C1184 1.356 . S
C1182 O1207 1.325 . S
C1183 C1182 1.348 . S
C1183 C1185 1.353 . S
C1183 H1224 0.929 . S
C1184 C1182 1.356 . S
C1184 C1186 1.358 . S
C1184 H1225 0.930 . S
C1185 C1183 1.353 . S
C1185 N1187 1.314 . S
C1185 H1226 0.930 . S
C1186 C1184 1.358 . S
C1186 N1187 1.279 . S
C1186 H1227 0.930 . S
N1187 C1185 1.314 . S
N1187 C1186 1.279 . S
C1188 C1190 1.353 . S
C1188 N1191 1.314 . S
C1188 H1194 0.930 . S
C1189 N1191 1.279 . S
C1189 C1192 1.358 . S
C1189 H1195 0.930 . S
C1190 C1188 1.353 . S
C1190 C1193 1.348 . S
C1190 H1228 0.929 . S
N1191 Li1146 1.990 . S
N1191 C1188 1.314 . S
N1191 C1189 1.279 . S
C1192 C1189 1.358 . S
C1192 C1193 1.356 . S
C1192 H1229 0.930 . S
C1193 C1190 1.348 . S
C1193 C1192 1.356 . S
H1194 C1188 0.930 . S
H1195 C1189 0.930 . S
C1196 N1197 1.314 . S
C1196 C1198 1.353 . S
C1196 H1202 0.930 . S
N1197 Li1147 1.990 . S
N1197 C1196 1.314 . S
N1197 C1200 1.279 . S
C1198 C1196 1.353 . S
C1198 C1201 1.348 . S
C1198 H1230 0.929 . S
C1199 C1200 1.358 . S
C1199 C1201 1.356 . S
C1199 H1231 0.930 . S
C1200 N1197 1.279 . S
C1200 C1199 1.358 . S
C1200 H1203 0.930 . S
C1201 C1198 1.348 . S
C1201 C1199 1.356 . S
H1202 C1196 0.930 . S
H1203 C1200 0.930 . S
O1204 Li1144 1.956 . S
O1204 Li1145 1.970 . S
O1204 Li1146 1.961 . S
O1204 C1148 1.325 . S
O1205 Li1144 1.970 . S
O1205 Li1145 1.956 . S
O1205 Li1147 1.961 . S
O1205 C1154 1.325 . S
O1206 Li1144 1.961 . S
O1206 Li1146 1.956 . S
O1206 Li1147 1.970 . S
O1206 C1176 1.325 . S
O1207 Li1145 1.961 . S
O1207 Li1146 1.970 . S
O1207 Li1147 1.956 . S
O1207 C1182 1.325 . S
H1208 C1150 0.929 . S
H1209 C1151 0.930 1_455 S
H1210 C1152 0.930 . S
H1211 C1153 0.930 . S
H1212 C1155 0.930 . S
H1213 C1157 0.929 . S
H1214 C1158 0.930 . S
H1215 C1159 0.930 . S
H1216 C1162 0.930 1_655 S
H1217 C1165 0.929 . S
H1218 C1170 0.929 . S
H1219 C1171 0.930 . S
H1220 C1178 0.929 . S
H1221 C1179 0.930 . S
H1222 C1180 0.930 . S
H1223 C1181 0.930 . S
H1224 C1183 0.929 . S
H1225 C1184 0.930 . S
H1226 C1185 0.930 . S
H1227 C1186 0.930 . S
H1228 C1190 0.929 . S
H1229 C1192 0.930 . S
H1230 C1198 0.929 . S
H1231 C1199 0.930 . S
Li1232 N1249 1.990 . S
Li1232 O1292 1.956 . S
Li1232 O1293 1.970 . S
Li1232 O1294 1.961 . S
Li1233 N1257 1.990 . S
Li1233 O1292 1.970 . S
Li1233 O1293 1.956 . S
Li1233 O1295 1.961 . S
Li1234 N1279 1.990 . S
Li1234 O1292 1.961 . S
Li1234 O1294 1.956 . S
Li1234 O1295 1.970 . S
Li1235 N1285 1.990 . S
Li1235 O1293 1.961 . S
Li1235 O1294 1.970 . S
Li1235 O1295 1.956 . S
C1236 C1238 1.348 . S
C1236 C1239 1.356 . S
C1236 O1292 1.325 . S
N1237 C1240 1.314 . S
N1237 C1241 1.279 . S
C1238 C1236 1.348 . S
C1238 C1240 1.353 . S
C1238 H1296 0.929 . S
C1239 C1236 1.356 . S
C1239 C1241 1.358 . S
C1239 H1297 0.930 . S
C1240 N1237 1.314 . S
C1240 C1238 1.353 . S
C1240 H1298 0.930 . S
C1241 N1237 1.279 . S
C1241 C1239 1.358 . S
C1241 H1299 0.930 . S
C1242 C1245 1.348 . S
C1242 C1246 1.356 . S
C1242 O1293 1.325 . S
C1243 N1244 1.279 . S
C1243 C1246 1.358 . S
C1243 H1300 0.930 . S
N1244 C1243 1.279 . S
N1244 C1247 1.314 . S
C1245 C1242 1.348 . S
C1245 C1247 1.353 . S
C1245 H1301 0.929 . S
C1246 C1242 1.356 . S
C1246 C1243 1.358 . S
C1246 H1302 0.930 . S
C1247 N1244 1.314 . S
C1247 C1245 1.353 . S
C1247 H1303 0.930 . S
C1248 N1249 1.314 . S
C1248 C1253 1.353 . S
C1248 H1254 0.930 . S
N1249 Li1232 1.990 . S
N1249 C1248 1.314 . S
N1249 C1251 1.279 . S
C1250 C1251 1.358 . S
C1250 C1252 1.356 . S
C1250 H1304 0.930 . S
C1251 N1249 1.279 . S
C1251 C1250 1.358 . S
C1251 H1255 0.930 . S
C1252 C1250 1.356 . S
C1252 C1253 1.348 . S
C1253 C1248 1.353 . S
C1253 C1252 1.348 . S
C1253 H1305 0.929 . S
H1254 C1248 0.930 . S
H1255 C1251 0.930 . S
C1256 N1257 1.314 . S
C1256 C1258 1.353 . S
C1256 H1262 0.930 . S
N1257 Li1233 1.990 . S
N1257 C1256 1.314 . S
N1257 C1260 1.279 . S
C1258 C1256 1.353 . S
C1258 C1261 1.348 . S
C1258 H1306 0.929 . S
C1259 C1260 1.358 . S
C1259 C1261 1.356 . S
C1259 H1307 0.930 . S
C1260 N1257 1.279 . S
C1260 C1259 1.358 . S
C1260 H1263 0.930 . S
C1261 C1258 1.348 . S
C1261 C1259 1.356 . S
H1262 C1256 0.930 . S
H1263 C1260 0.930 . S
C1264 C1266 1.348 . S
C1264 C1267 1.356 . S
C1264 O1294 1.325 . S
N1265 C1268 1.314 . S
N1265 C1269 1.279 . S
C1266 C1264 1.348 . S
C1266 C1268 1.353 . S
C1266 H1308 0.929 . S
C1267 C1264 1.356 . S
C1267 C1269 1.358 . S
C1267 H1309 0.930 . S
C1268 N1265 1.314 . S
C1268 C1266 1.353 . S
C1268 H1310 0.930 . S
C1269 N1265 1.279 . S
C1269 C1267 1.358 . S
C1269 H1311 0.930 . S
C1270 C1271 1.348 . S
C1270 C1272 1.358 1_655 S
C1270 O1295 1.325 . S
C1271 C1270 1.348 . S
C1271 C1273 1.353 1_655 S
C1271 H1312 0.929 . S
C1272 C1270 1.358 1_455 S
C1272 C1274 1.356 . S
C1272 H1313 0.930 1_455 S
C1273 C1271 1.353 1_455 S
C1273 N1275 1.314 . S
C1273 H1314 0.930 . S
C1274 C1272 1.356 . S
C1274 N1275 1.279 . S
C1274 H1315 0.930 . S
N1275 C1273 1.314 . S
N1275 C1274 1.279 . S
C1276 C1278 1.353 . S
C1276 N1279 1.314 . S
C1276 H1282 0.930 . S
C1277 N1279 1.279 . S
C1277 C1280 1.358 . S
C1277 H1283 0.930 . S
C1278 C1276 1.353 . S
C1278 C1281 1.348 . S
C1278 H1316 0.929 . S
N1279 Li1234 1.990 . S
N1279 C1276 1.314 . S
N1279 C1277 1.279 . S
C1280 C1277 1.358 . S
C1280 C1281 1.356 . S
C1280 H1317 0.930 . S
C1281 C1278 1.348 . S
C1281 C1280 1.356 . S
H1282 C1276 0.930 . S
H1283 C1277 0.930 . S
C1284 N1285 1.314 . S
C1284 C1286 1.353 . S
C1284 H1290 0.930 . S
N1285 Li1235 1.990 . S
N1285 C1284 1.314 . S
N1285 C1288 1.279 . S
C1286 C1284 1.353 . S
C1286 C1289 1.348 . S
C1286 H1318 0.929 . S
C1287 C1288 1.358 . S
C1287 C1289 1.356 . S
C1287 H1319 0.930 1_655 S
C1288 N1285 1.279 . S
C1288 C1287 1.358 . S
C1288 H1291 0.930 . S
C1289 C1286 1.348 . S
C1289 C1287 1.356 . S
H1290 C1284 0.930 . S
H1291 C1288 0.930 . S
O1292 Li1232 1.956 . S
O1292 Li1233 1.970 . S
O1292 Li1234 1.961 . S
O1292 C1236 1.325 . S
O1293 Li1232 1.970 . S
O1293 Li1233 1.956 . S
O1293 Li1235 1.961 . S
O1293 C1242 1.325 . S
O1294 Li1232 1.961 . S
O1294 Li1234 1.956 . S
O1294 Li1235 1.970 . S
O1294 C1264 1.325 . S
O1295 Li1233 1.961 . S
O1295 Li1234 1.970 . S
O1295 Li1235 1.956 . S
O1295 C1270 1.325 . S
H1296 C1238 0.929 . S
H1297 C1239 0.930 . S
H1298 C1240 0.930 . S
H1299 C1241 0.930 . S
H1300 C1243 0.930 . S
H1301 C1245 0.929 . S
H1302 C1246 0.930 . S
H1303 C1247 0.930 . S
H1304 C1250 0.930 . S
H1305 C1253 0.929 . S
H1306 C1258 0.929 . S
H1307 C1259 0.930 . S
H1308 C1266 0.929 . S
H1309 C1267 0.930 . S
H1310 C1268 0.930 . S
H1311 C1269 0.930 . S
H1312 C1271 0.929 . S
H1313 C1272 0.930 1_655 S
H1314 C1273 0.930 . S
H1315 C1274 0.930 . S
H1316 C1278 0.929 . S
H1317 C1280 0.930 . S
H1318 C1286 0.929 . S
H1319 C1287 0.930 1_455 S
Li1320 N1337 1.990 . S
Li1320 O1380 1.956 . S
Li1320 O1381 1.970 . S
Li1320 O1382 1.961 . S
Li1321 N1345 1.990 . S
Li1321 O1380 1.970 . S
Li1321 O1381 1.956 . S
Li1321 O1383 1.961 . S
Li1322 N1367 1.990 . S
Li1322 O1380 1.961 . S
Li1322 O1382 1.956 . S
Li1322 O1383 1.970 . S
Li1323 N1373 1.990 . S
Li1323 O1381 1.961 . S
Li1323 O1382 1.970 . S
Li1323 O1383 1.956 . S
C1324 C1326 1.348 . S
C1324 C1327 1.356 . S
C1324 O1380 1.325 . S
N1325 C1328 1.314 . S
N1325 C1329 1.279 . S
C1326 C1324 1.348 . S
C1326 C1328 1.353 . S
C1326 H1384 0.929 . S
C1327 C1324 1.356 . S
C1327 C1329 1.358 . S
C1327 H1385 0.930 . S
C1328 N1325 1.314 . S
C1328 C1326 1.353 . S
C1328 H1386 0.930 . S
C1329 N1325 1.279 . S
C1329 C1327 1.358 . S
C1329 H1387 0.930 . S
C1330 C1333 1.348 . S
C1330 C1334 1.356 . S
C1330 O1381 1.325 . S
C1331 N1332 1.279 . S
C1331 C1334 1.358 . S
C1331 H1388 0.930 . S
N1332 C1331 1.279 . S
N1332 C1335 1.314 . S
C1333 C1330 1.348 . S
C1333 C1335 1.353 . S
C1333 H1389 0.929 . S
C1334 C1330 1.356 . S
C1334 C1331 1.358 . S
C1334 H1390 0.930 . S
C1335 N1332 1.314 . S
C1335 C1333 1.353 . S
C1335 H1391 0.930 . S
C1336 N1337 1.314 . S
C1336 C1341 1.353 . S
C1336 H1342 0.930 . S
N1337 Li1320 1.990 . S
N1337 C1336 1.314 . S
N1337 C1339 1.279 . S
C1338 C1339 1.358 . S
C1338 C1340 1.356 . S
C1338 H1392 0.930 . S
C1339 N1337 1.279 . S
C1339 C1338 1.358 . S
C1339 H1343 0.930 . S
C1340 C1338 1.356 . S
C1340 C1341 1.348 . S
C1341 C1336 1.353 . S
C1341 C1340 1.348 . S
C1341 H1393 0.929 . S
H1342 C1336 0.930 . S
H1343 C1339 0.930 . S
C1344 N1345 1.314 . S
C1344 C1346 1.353 . S
C1344 H1350 0.930 . S
N1345 Li1321 1.990 . S
N1345 C1344 1.314 . S
N1345 C1348 1.279 . S
C1346 C1344 1.353 . S
C1346 C1349 1.348 . S
C1346 H1394 0.929 . S
C1347 C1348 1.358 . S
C1347 C1349 1.356 . S
C1347 H1395 0.930 . S
C1348 N1345 1.279 . S
C1348 C1347 1.358 . S
C1348 H1351 0.930 . S
C1349 C1346 1.348 . S
C1349 C1347 1.356 . S
H1350 C1344 0.930 . S
H1351 C1348 0.930 . S
C1352 C1354 1.348 . S
C1352 C1355 1.356 . S
C1352 O1382 1.325 . S
N1353 C1356 1.314 . S
N1353 C1357 1.279 . S
C1354 C1352 1.348 . S
C1354 C1356 1.353 . S
C1354 H1396 0.929 . S
C1355 C1352 1.356 . S
C1355 C1357 1.358 . S
C1355 H1397 0.930 . S
C1356 N1353 1.314 . S
C1356 C1354 1.353 . S
C1356 H1398 0.930 . S
C1357 N1353 1.279 . S
C1357 C1355 1.358 . S
C1357 H1399 0.930 . S
C1358 C1359 1.348 . S
C1358 C1360 1.356 . S
C1358 O1383 1.325 . S
C1359 C1358 1.348 . S
C1359 C1361 1.353 . S
C1359 H1400 0.929 . S
C1360 C1358 1.356 . S
C1360 C1362 1.358 . S
C1360 H1401 0.930 . S
C1361 C1359 1.353 . S
C1361 N1363 1.314 . S
C1361 H1402 0.930 . S
C1362 C1360 1.358 . S
C1362 N1363 1.279 . S
C1362 H1403 0.930 . S
N1363 C1361 1.314 . S
N1363 C1362 1.279 . S
C1364 C1366 1.353 . S
C1364 N1367 1.314 . S
C1364 H1370 0.930 . S
C1365 N1367 1.279 . S
C1365 C1368 1.358 . S
C1365 H1371 0.930 . S
C1366 C1364 1.353 . S
C1366 C1369 1.348 . S
C1366 H1404 0.929 . S
N1367 Li1322 1.990 . S
N1367 C1364 1.314 . S
N1367 C1365 1.279 . S
C1368 C1365 1.358 . S
C1368 C1369 1.356 . S
C1368 H1405 0.930 . S
C1369 C1366 1.348 . S
C1369 C1368 1.356 . S
H1370 C1364 0.930 . S
H1371 C1365 0.930 . S
C1372 N1373 1.314 . S
C1372 C1374 1.353 . S
C1372 H1378 0.930 . S
N1373 Li1323 1.990 . S
N1373 C1372 1.314 . S
N1373 C1376 1.279 . S
C1374 C1372 1.353 . S
C1374 C1377 1.348 . S
C1374 H1406 0.929 . S
C1375 C1376 1.358 . S
C1375 C1377 1.356 . S
C1375 H1407 0.930 . S
C1376 N1373 1.279 . S
C1376 C1375 1.358 . S
C1376 H1379 0.930 . S
C1377 C1374 1.348 . S
C1377 C1375 1.356 . S
H1378 C1372 0.930 . S
H1379 C1376 0.930 . S
O1380 Li1320 1.956 . S
O1380 Li1321 1.970 . S
O1380 Li1322 1.961 . S
O1380 C1324 1.325 . S
O1381 Li1320 1.970 . S
O1381 Li1321 1.956 . S
O1381 Li1323 1.961 . S
O1381 C1330 1.325 . S
O1382 Li1320 1.961 . S
O1382 Li1322 1.956 . S
O1382 Li1323 1.970 . S
O1382 C1352 1.325 . S
O1383 Li1321 1.961 . S
O1383 Li1322 1.970 . S
O1383 Li1323 1.956 . S
O1383 C1358 1.325 . S
H1384 C1326 0.929 . S
H1385 C1327 0.930 . S
H1386 C1328 0.930 . S
H1387 C1329 0.930 . S
H1388 C1331 0.930 . S
H1389 C1333 0.929 . S
H1390 C1334 0.930 . S
H1391 C1335 0.930 . S
H1392 C1338 0.930 . S
H1393 C1341 0.929 . S
H1394 C1346 0.929 . S
H1395 C1347 0.930 . S
H1396 C1354 0.929 . S
H1397 C1355 0.930 . S
H1398 C1356 0.930 . S
H1399 C1357 0.930 . S
H1400 C1359 0.929 . S
H1401 C1360 0.930 . S
H1402 C1361 0.930 . S
H1403 C1362 0.930 . S
H1404 C1366 0.929 . S
H1405 C1368 0.930 . S
H1406 C1374 0.929 . S
H1407 C1375 0.930 . S
C1408 C1409 1.349 . S
C1408 C1410 1.327 . S
C1408 H1433 0.950 . S
C1409 C1408 1.349 . S
C1409 C1425 1.349 . S
C1410 C1408 1.327 . S
C1410 C1429 1.429 . S
C1410 H1434 0.950 . S
C1411 C1428 1.574 . S
C1411 C1430 1.368 1_545 S
C1411 H1435 0.949 . S
H1412 C1416 0.949 . S
C1413 C1414 1.349 . S
C1413 C1415 1.327 . S
C1413 H1436 0.950 . S
C1414 C1413 1.349 . S
C1414 C1426 1.349 . S
C1415 C1413 1.327 . S
C1415 C1431 1.429 . S
C1415 H1437 0.950 . S
C1416 H1412 0.949 . S
C1416 C1424 1.574 . S
C1416 C1432 1.368 1_565 S
H1417 C1425 0.950 . S
H1418 C1423 0.950 1_545 S
H1419 C1424 0.949 . S
H1420 C1426 0.950 . S
H1421 C1427 0.950 1_565 S
H1422 C1428 0.949 . S
C1423 H1418 0.950 1_565 S
C1423 C1425 1.327 . S
C1423 C1429 1.429 . S
C1424 C1416 1.574 . S
C1424 H1419 0.949 . S
C1424 C1430 1.368 . S
C1425 C1409 1.349 . S
C1425 H1417 0.950 . S
C1425 C1423 1.327 . S
C1426 C1414 1.349 . S
C1426 H1420 0.950 . S
C1426 C1427 1.327 . S
C1427 H1421 0.950 1_545 S
C1427 C1426 1.327 . S
C1427 C1431 1.429 . S
C1428 C1411 1.574 . S
C1428 H1422 0.949 . S
C1428 C1432 1.368 . S
C1429 C1410 1.429 . S
C1429 C1423 1.429 . S
C1429 C1430 1.523 . S
C1430 C1411 1.368 1_565 S
C1430 C1424 1.368 . S
C1430 C1429 1.523 . S
C1431 C1415 1.429 . S
C1431 C1427 1.429 . S
C1431 C1432 1.523 . S
C1432 C1416 1.368 1_545 S
C1432 C1428 1.368 . S
C1432 C1431 1.523 . S
H1433 C1408 0.950 . S
H1434 C1410 0.950 . S
H1435 C1411 0.949 . S
H1436 C1413 0.950 . S
H1437 C1415 0.950 . S
C1438 C1439 1.349 . S
C1438 C1440 1.327 . S
C1438 H1463 0.950 . S
C1439 C1438 1.349 . S
C1439 C1455 1.349 . S
C1440 C1438 1.327 . S
C1440 C1459 1.429 . S
C1440 H1464 0.950 1_565 S
C1441 C1458 1.574 . S
C1441 C1460 1.368 . S
C1441 H1465 0.949 . S
H1442 C1446 0.949 . S
C1443 C1444 1.349 . S
C1443 C1445 1.327 . S
C1443 H1466 0.950 . S
C1444 C1443 1.349 . S
C1444 C1456 1.349 . S
C1445 C1443 1.327 . S
C1445 C1461 1.429 . S
C1445 H1467 0.950 1_545 S
C1446 H1442 0.949 . S
C1446 C1454 1.574 . S
C1446 C1462 1.368 . S
H1447 C1455 0.950 . S
H1448 C1453 0.950 . S
H1449 C1454 0.949 . S
H1450 C1456 0.950 . S
H1451 C1457 0.950 . S
H1452 C1458 0.949 . S
C1453 H1448 0.950 . S
C1453 C1455 1.327 . S
C1453 C1459 1.429 . S
C1454 C1446 1.574 . S
C1454 H1449 0.949 . S
C1454 C1460 1.368 1_545 S
C1455 C1439 1.349 . S
C1455 H1447 0.950 . S
C1455 C1453 1.327 . S
C1456 C1444 1.349 . S
C1456 H1450 0.950 . S
C1456 C1457 1.327 . S
C1457 H1451 0.950 . S
C1457 C1456 1.327 . S
C1457 C1461 1.429 . S
C1458 C1441 1.574 . S
C1458 H1452 0.949 . S
C1458 C1462 1.368 1_565 S
C1459 C1440 1.429 . S
C1459 C1453 1.429 . S
C1459 C1460 1.523 . S
C1460 C1441 1.368 . S
C1460 C1454 1.368 1_565 S
C1460 C1459 1.523 . S
C1461 C1445 1.429 . S
C1461 C1457 1.429 . S
C1461 C1462 1.523 . S
C1462 C1446 1.368 . S
C1462 C1458 1.368 1_545 S
C1462 C1461 1.523 . S
H1463 C1438 0.950 . S
H1464 C1440 0.950 1_545 S
H1465 C1441 0.949 . S
H1466 C1443 0.950 . S
H1467 C1445 0.950 1_565 S
C1468 C1469 1.349 . S
C1468 C1470 1.327 . S
C1468 H1493 0.950 . S
C1469 C1468 1.349 . S
C1469 C1485 1.349 . S
C1470 C1468 1.327 . S
C1470 C1489 1.429 . S
C1470 H1494 0.950 . S
C1471 C1488 1.574 . S
C1471 C1490 1.368 1_545 S
C1471 H1495 0.949 . S
H1472 C1476 0.949 . S
C1473 C1474 1.349 . S
C1473 C1475 1.327 . S
C1473 H1496 0.950 . S
C1474 C1473 1.349 . S
C1474 C1486 1.349 . S
C1475 C1473 1.327 . S
C1475 C1491 1.429 . S
C1475 H1497 0.950 . S
C1476 H1472 0.949 . S
C1476 C1484 1.574 . S
C1476 C1492 1.368 1_565 S
H1477 C1485 0.950 . S
H1478 C1483 0.950 1_545 S
H1479 C1484 0.949 . S
H1480 C1486 0.950 . S
H1481 C1487 0.950 1_565 S
H1482 C1488 0.949 . S
C1483 H1478 0.950 1_565 S
C1483 C1485 1.327 . S
C1483 C1489 1.429 . S
C1484 C1476 1.574 . S
C1484 H1479 0.949 . S
C1484 C1490 1.368 . S
C1485 C1469 1.349 . S
C1485 H1477 0.950 . S
C1485 C1483 1.327 . S
C1486 C1474 1.349 . S
C1486 H1480 0.950 . S
C1486 C1487 1.327 . S
C1487 H1481 0.950 1_545 S
C1487 C1486 1.327 . S
C1487 C1491 1.429 . S
C1488 C1471 1.574 . S
C1488 H1482 0.949 . S
C1488 C1492 1.368 . S
C1489 C1470 1.429 . S
C1489 C1483 1.429 . S
C1489 C1490 1.523 . S
C1490 C1471 1.368 1_565 S
C1490 C1484 1.368 . S
C1490 C1489 1.523 . S
C1491 C1475 1.429 . S
C1491 C1487 1.429 . S
C1491 C1492 1.523 . S
C1492 C1476 1.368 1_545 S
C1492 C1488 1.368 . S
C1492 C1491 1.523 . S
H1493 C1468 0.950 . S
H1494 C1470 0.950 . S
H1495 C1471 0.949 . S
H1496 C1473 0.950 . S
H1497 C1475 0.950 . S
C1498 C1499 1.349 . S
C1498 C1500 1.327 . S
C1498 H1523 0.950 . S
C1499 C1498 1.349 . S
C1499 C1515 1.349 . S
C1500 C1498 1.327 . S
C1500 C1519 1.429 . S
C1500 H1524 0.950 . S
C1501 C1518 1.574 . S
C1501 C1520 1.368 1_545 S
C1501 H1525 0.949 . S
H1502 C1506 0.949 . S
C1503 C1504 1.349 . S
C1503 C1505 1.327 . S
C1503 H1526 0.950 . S
C1504 C1503 1.349 . S
C1504 C1516 1.349 . S
C1505 C1503 1.327 . S
C1505 C1521 1.429 . S
C1505 H1527 0.950 . S
C1506 H1502 0.949 . S
C1506 C1514 1.574 . S
C1506 C1522 1.368 1_565 S
H1507 C1515 0.950 . S
H1508 C1513 0.950 1_545 S
H1509 C1514 0.949 . S
H1510 C1516 0.950 . S
H1511 C1517 0.950 1_565 S
H1512 C1518 0.949 . S
C1513 H1508 0.950 1_565 S
C1513 C1515 1.327 . S
C1513 C1519 1.429 . S
C1514 C1506 1.574 . S
C1514 H1509 0.949 . S
C1514 C1520 1.368 . S
C1515 C1499 1.349 . S
C1515 H1507 0.950 . S
C1515 C1513 1.327 . S
C1516 C1504 1.349 . S
C1516 H1510 0.950 . S
C1516 C1517 1.327 . S
C1517 H1511 0.950 1_545 S
C1517 C1516 1.327 . S
C1517 C1521 1.429 . S
C1518 C1501 1.574 . S
C1518 H1512 0.949 . S
C1518 C1522 1.368 . S
C1519 C1500 1.429 . S
C1519 C1513 1.429 . S
C1519 C1520 1.523 . S
C1520 C1501 1.368 1_565 S
C1520 C1514 1.368 . S
C1520 C1519 1.523 . S
C1521 C1505 1.429 . S
C1521 C1517 1.429 . S
C1521 C1522 1.523 . S
C1522 C1506 1.368 1_545 S
C1522 C1518 1.368 . S
C1522 C1521 1.523 . S
H1523 C1498 0.950 . S
H1524 C1500 0.950 . S
H1525 C1501 0.949 . S
H1526 C1503 0.950 . S
H1527 C1505 0.950 . S
C1528 C1529 1.349 . S
C1528 C1530 1.327 . S
C1528 H1553 0.950 . S
C1529 C1528 1.349 . S
C1529 C1545 1.349 . S
C1530 C1528 1.327 . S
C1530 C1549 1.429 . S
C1530 H1554 0.950 . S
C1531 C1548 1.574 . S
C1531 C1550 1.368 . S
C1531 H1555 0.949 . S
H1532 C1536 0.949 . S
C1533 C1534 1.349 . S
C1533 C1535 1.327 . S
C1533 H1556 0.950 . S
C1534 C1533 1.349 . S
C1534 C1546 1.349 . S
C1535 C1533 1.327 . S
C1535 C1551 1.429 . S
C1535 H1557 0.950 . S
C1536 H1532 0.949 . S
C1536 C1544 1.574 . S
C1536 C1552 1.368 . S
H1537 C1545 0.950 . S
H1538 C1543 0.950 . S
H1539 C1544 0.949 . S
H1540 C1546 0.950 . S
H1541 C1547 0.950 . S
H1542 C1548 0.949 . S
C1543 H1538 0.950 . S
C1543 C1545 1.327 . S
C1543 C1549 1.429 . S
C1544 C1536 1.574 . S
C1544 H1539 0.949 . S
C1544 C1550 1.368 . S
C1545 C1529 1.349 . S
C1545 H1537 0.950 . S
C1545 C1543 1.327 . S
C1546 C1534 1.349 . S
C1546 H1540 0.950 . S
C1546 C1547 1.327 . S
C1547 H1541 0.950 . S
C1547 C1546 1.327 . S
C1547 C1551 1.429 . S
C1548 C1531 1.574 . S
C1548 H1542 0.949 . S
C1548 C1552 1.368 . S
C1549 C1530 1.429 . S
C1549 C1543 1.429 . S
C1549 C1550 1.523 . S
C1550 C1531 1.368 . S
C1550 C1544 1.368 . S
C1550 C1549 1.523 . S
C1551 C1535 1.429 . S
C1551 C1547 1.429 . S
C1551 C1552 1.523 . S
C1552 C1536 1.368 . S
C1552 C1548 1.368 . S
C1552 C1551 1.523 . S
H1553 C1528 0.950 . S
H1554 C1530 0.950 . S
H1555 C1531 0.949 . S
H1556 C1533 0.950 . S
H1557 C1535 0.950 . S
C1558 C1559 1.349 . S
C1558 C1560 1.327 . S
C1558 H1583 0.950 . S
C1559 C1558 1.349 . S
C1559 C1575 1.349 . S
C1560 C1558 1.327 . S
C1560 C1579 1.429 . S
C1560 H1584 0.950 . S
C1561 C1578 1.574 . S
C1561 C1580 1.368 . S
C1561 H1585 0.949 . S
H1562 C1566 0.949 . S
C1563 C1564 1.349 . S
C1563 C1565 1.327 . S
C1563 H1586 0.950 . S
C1564 C1563 1.349 . S
C1564 C1576 1.349 . S
C1565 C1563 1.327 . S
C1565 C1581 1.429 . S
C1565 H1587 0.950 . S
C1566 H1562 0.949 . S
C1566 C1574 1.574 . S
C1566 C1582 1.368 . S
H1567 C1575 0.950 . S
H1568 C1573 0.950 . S
H1569 C1574 0.949 . S
H1570 C1576 0.950 . S
H1571 C1577 0.950 . S
H1572 C1578 0.949 . S
C1573 H1568 0.950 . S
C1573 C1575 1.327 . S
C1573 C1579 1.429 . S
C1574 C1566 1.574 . S
C1574 H1569 0.949 . S
C1574 C1580 1.368 . S
C1575 C1559 1.349 . S
C1575 H1567 0.950 . S
C1575 C1573 1.327 . S
C1576 C1564 1.349 . S
C1576 H1570 0.950 . S
C1576 C1577 1.327 . S
C1577 H1571 0.950 . S
C1577 C1576 1.327 . S
C1577 C1581 1.429 . S
C1578 C1561 1.574 . S
C1578 H1572 0.949 . S
C1578 C1582 1.368 . S
C1579 C1560 1.429 . S
C1579 C1573 1.429 . S
C1579 C1580 1.523 . S
C1580 C1561 1.368 . S
C1580 C1574 1.368 . S
C1580 C1579 1.523 . S
C1581 C1565 1.429 . S
C1581 C1577 1.429 . S
C1581 C1582 1.523 . S
C1582 C1566 1.368 . S
C1582 C1578 1.368 . S
C1582 C1581 1.523 . S
H1583 C1558 0.950 . S
H1584 C1560 0.950 . S
H1585 C1561 0.949 . S
H1586 C1563 0.950 . S
H1587 C1565 0.950 . S
C1588 C1589 1.349 . S
C1588 C1590 1.327 . S
C1588 H1613 0.950 . S
C1589 C1588 1.349 . S
C1589 C1605 1.349 . S
C1590 C1588 1.327 . S
C1590 C1609 1.429 . S
C1590 H1614 0.950 . S
C1591 C1608 1.574 . S
C1591 C1610 1.368 . S
C1591 H1615 0.949 . S
H1592 C1596 0.949 . S
C1593 C1594 1.349 . S
C1593 C1595 1.327 . S
C1593 H1616 0.950 . S
C1594 C1593 1.349 . S
C1594 C1606 1.349 . S
C1595 C1593 1.327 . S
C1595 C1611 1.429 . S
C1595 H1617 0.950 . S
C1596 H1592 0.949 . S
C1596 C1604 1.574 . S
C1596 C1612 1.368 . S
H1597 C1605 0.950 . S
H1598 C1603 0.950 . S
H1599 C1604 0.949 . S
H1600 C1606 0.950 . S
H1601 C1607 0.950 . S
H1602 C1608 0.949 . S
C1603 H1598 0.950 . S
C1603 C1605 1.327 . S
C1603 C1609 1.429 . S
C1604 C1596 1.574 . S
C1604 H1599 0.949 . S
C1604 C1610 1.368 . S
C1605 C1589 1.349 . S
C1605 H1597 0.950 . S
C1605 C1603 1.327 . S
C1606 C1594 1.349 . S
C1606 H1600 0.950 . S
C1606 C1607 1.327 . S
C1607 H1601 0.950 . S
C1607 C1606 1.327 . S
C1607 C1611 1.429 . S
C1608 C1591 1.574 . S
C1608 H1602 0.949 . S
C1608 C1612 1.368 . S
C1609 C1590 1.429 . S
C1609 C1603 1.429 . S
C1609 C1610 1.523 . S
C1610 C1591 1.368 . S
C1610 C1604 1.368 . S
C1610 C1609 1.523 . S
C1611 C1595 1.429 . S
C1611 C1607 1.429 . S
C1611 C1612 1.523 . S
C1612 C1596 1.368 . S
C1612 C1608 1.368 . S
C1612 C1611 1.523 . S
H1613 C1588 0.950 . S
H1614 C1590 0.950 . S
H1615 C1591 0.949 . S
H1616 C1593 0.950 . S
H1617 C1595 0.950 . S
C1618 C1619 1.349 . S
C1618 C1620 1.327 . S
C1618 H1643 0.950 . S
C1619 C1618 1.349 . S
C1619 C1635 1.349 . S
C1620 C1618 1.327 . S
C1620 C1639 1.429 . S
C1620 H1644 0.950 . S
C1621 C1638 1.574 . S
C1621 C1640 1.368 . S
C1621 H1645 0.949 . S
H1622 C1626 0.949 . S
C1623 C1624 1.349 . S
C1623 C1625 1.327 . S
C1623 H1646 0.950 . S
C1624 C1623 1.349 . S
C1624 C1636 1.349 . S
C1625 C1623 1.327 . S
C1625 C1641 1.429 . S
C1625 H1647 0.950 . S
C1626 H1622 0.949 . S
C1626 C1634 1.574 . S
C1626 C1642 1.368 . S
H1627 C1635 0.950 . S
H1628 C1633 0.950 . S
H1629 C1634 0.949 . S
H1630 C1636 0.950 . S
H1631 C1637 0.950 . S
H1632 C1638 0.949 . S
C1633 H1628 0.950 . S
C1633 C1635 1.327 . S
C1633 C1639 1.429 . S
C1634 C1626 1.574 . S
C1634 H1629 0.949 . S
C1634 C1640 1.368 . S
C1635 C1619 1.349 . S
C1635 H1627 0.950 . S
C1635 C1633 1.327 . S
C1636 C1624 1.349 . S
C1636 H1630 0.950 . S
C1636 C1637 1.327 . S
C1637 H1631 0.950 . S
C1637 C1636 1.327 . S
C1637 C1641 1.429 . S
C1638 C1621 1.574 . S
C1638 H1632 0.949 . S
C1638 C1642 1.368 . S
C1639 C1620 1.429 . S
C1639 C1633 1.429 . S
C1639 C1640 1.523 . S
C1640 C1621 1.368 . S
C1640 C1634 1.368 . S
C1640 C1639 1.523 . S
C1641 C1625 1.429 . S
C1641 C1637 1.429 . S
C1641 C1642 1.523 . S
C1642 C1626 1.368 . S
C1642 C1638 1.368 . S
C1642 C1641 1.523 . S
H1643 C1618 0.950 . S
H1644 C1620 0.950 . S
H1645 C1621 0.949 . S
H1646 C1623 0.950 . S
H1647 C1625 0.950 . S
C1648 C1649 1.349 . S
C1648 C1650 1.327 . S
C1648 H1673 0.950 1_545 S
C1649 C1648 1.349 . S
C1649 C1665 1.349 . S
C1650 C1648 1.327 . S
C1650 C1669 1.429 . S
C1650 H1674 0.950 1_545 S
C1651 C1668 1.574 . S
C1651 C1670 1.368 1_455 S
C1651 H1675 0.949 . S
H1652 C1656 0.949 1_565 S
C1653 C1654 1.349 . S
C1653 C1655 1.327 . S
C1653 H1676 0.950 . S
C1654 C1653 1.349 . S
C1654 C1666 1.349 . S
C1655 C1653 1.327 . S
C1655 C1671 1.429 . S
C1655 H1677 0.950 . S
C1656 H1652 0.949 1_545 S
C1656 C1664 1.574 . S
C1656 C1672 1.368 1_655 S
H1657 C1665 0.950 1_455 S
H1658 C1663 0.968 . S
H1659 C1664 0.949 1_565 S
H1660 C1666 0.950 1_665 S
H1661 C1667 0.968 1_565 S
H1662 C1668 0.949 . S
C1663 H1658 0.968 . S
C1663 C1665 1.322 1_455 S
C1663 C1669 1.417 1_455 S
C1664 C1656 1.574 . S
C1664 H1659 0.949 1_545 S
C1664 C1670 1.368 . S
C1665 C1649 1.349 . S
C1665 H1657 0.950 1_655 S
C1665 C1663 1.322 1_655 S
C1666 C1654 1.349 . S
C1666 H1660 0.950 1_445 S
C1666 C1667 1.322 1_455 S
C1667 H1661 0.968 1_545 S
C1667 C1666 1.322 1_655 S
C1667 C1671 1.417 1_655 S
C1668 C1651 1.574 . S
C1668 H1662 0.949 . S
C1668 C1672 1.368 . S
C1669 C1650 1.429 . S
C1669 C1663 1.417 1_655 S
C1669 C1670 1.523 . S
C1670 C1651 1.368 1_655 S
C1670 C1664 1.368 . S
C1670 C1669 1.523 . S
C1671 C1655 1.429 . S
C1671 C1667 1.417 1_455 S
C1671 C1672 1.523 . S
C1672 C1656 1.368 1_455 S
C1672 C1668 1.368 . S
C1672 C1671 1.523 . S
H1673 C1648 0.950 1_565 S
H1674 C1650 0.950 1_565 S
H1675 C1651 0.949 . S
H1676 C1653 0.950 . S
H1677 C1655 0.950 . S
C1678 C1679 1.349 . S
C1678 C1680 1.327 . S
C1678 H1703 0.950 . S
C1679 C1678 1.349 . S
C1679 C1695 1.349 . S
C1680 C1678 1.327 . S
C1680 C1699 1.429 . S
C1680 H1704 0.950 . S
C1681 C1698 1.574 . S
C1681 C1700 1.368 . S
C1681 H1705 0.949 1_565 S
H1682 C1686 0.949 . S
C1683 C1684 1.349 . S
C1683 C1685 1.327 . S
C1683 H1706 0.950 1_565 S
C1684 C1683 1.349 . S
C1684 C1696 1.349 . S
C1685 C1683 1.327 . S
C1685 C1701 1.429 . S
C1685 H1707 0.950 1_565 S
C1686 H1682 0.949 . S
C1686 C1694 1.574 . S
C1686 C1702 1.368 . S
H1687 C1695 0.950 1_545 S
H1688 C1693 0.950 1_545 S
H1689 C1694 0.949 . S
H1690 C1696 0.950 . S
H1691 C1697 0.950 . S
H1692 C1698 0.949 1_545 S
C1693 H1688 0.950 1_565 S
C1693 C1695 1.327 . S
C1693 C1699 1.429 . S
C1694 C1686 1.574 . S
C1694 H1689 0.949 . S
C1694 C1700 1.368 . S
C1695 C1679 1.349 . S
C1695 H1687 0.950 1_565 S
C1695 C1693 1.327 . S
C1696 C1684 1.349 . S
C1696 H1690 0.950 . S
C1696 C1697 1.327 . S
C1697 H1691 0.950 . S
C1697 C1696 1.327 . S
C1697 C1701 1.429 . S
C1698 C1681 1.574 . S
C1698 H1692 0.949 1_565 S
C1698 C1702 1.368 . S
C1699 C1680 1.429 . S
C1699 C1693 1.429 . S
C1699 C1700 1.523 . S
C1700 C1681 1.368 . S
C1700 C1694 1.368 . S
C1700 C1699 1.523 . S
C1701 C1685 1.429 . S
C1701 C1697 1.429 . S
C1701 C1702 1.523 . S
C1702 C1686 1.368 . S
C1702 C1698 1.368 . S
C1702 C1701 1.523 . S
H1703 C1678 0.950 . S
H1704 C1680 0.950 . S
H1705 C1681 0.949 1_545 S
H1706 C1683 0.950 1_545 S
H1707 C1685 0.950 1_545 S
C1708 C1709 1.349 . S
C1708 C1710 1.327 . S
C1708 H1733 0.950 . S
C1709 C1708 1.349 . S
C1709 C1725 1.349 . S
C1710 C1708 1.327 . S
C1710 C1729 1.429 . S
C1710 H1734 0.950 . S
C1711 C1728 1.574 . S
C1711 C1730 1.368 1_655 S
C1711 H1735 0.949 1_565 S
H1712 C1716 0.949 . S
C1713 C1714 1.349 . S
C1713 C1715 1.327 . S
C1713 H1736 0.950 1_565 S
C1714 C1713 1.349 . S
C1714 C1726 1.349 . S
C1715 C1713 1.327 . S
C1715 C1731 1.429 . S
C1715 H1737 0.950 1_565 S
C1716 H1712 0.949 . S
C1716 C1724 1.574 . S
C1716 C1732 1.368 1_455 S
H1717 C1725 0.950 1_645 S
H1718 C1723 0.969 1_545 S
H1719 C1724 0.949 . S
H1720 C1726 0.950 1_455 S
H1721 C1727 0.969 . S
H1722 C1728 0.949 1_545 S
C1723 H1718 0.969 1_565 S
C1723 C1725 1.321 1_655 S
C1723 C1729 1.417 1_655 S
C1724 C1716 1.574 . S
C1724 H1719 0.949 . S
C1724 C1730 1.368 . S
C1725 C1709 1.349 . S
C1725 H1717 0.950 1_465 S
C1725 C1723 1.321 1_455 S
C1726 C1714 1.349 . S
C1726 H1720 0.950 1_655 S
C1726 C1727 1.321 1_655 S
C1727 H1721 0.969 . S
C1727 C1726 1.321 1_455 S
C1727 C1731 1.417 1_455 S
C1728 C1711 1.574 . S
C1728 H1722 0.949 1_565 S
C1728 C1732 1.368 . S
C1729 C1710 1.429 . S
C1729 C1723 1.417 1_455 S
C1729 C1730 1.523 . S
C1730 C1711 1.368 1_455 S
C1730 C1724 1.368 . S
C1730 C1729 1.523 . S
C1731 C1715 1.429 . S
C1731 C1727 1.417 1_655 S
C1731 C1732 1.523 . S
C1732 C1716 1.368 1_655 S
C1732 C1728 1.368 . S
C1732 C1731 1.523 . S
H1733 C1708 0.950 . S
H1734 C1710 0.950 . S
H1735 C1711 0.949 1_545 S
H1736 C1713 0.950 1_545 S
H1737 C1715 0.950 1_545 S
C1738 C1739 1.349 . S
C1738 C1740 1.327 . S
C1738 H1763 0.950 . S
C1739 C1738 1.349 . S
C1739 C1755 1.349 . S
C1740 C1738 1.327 . S
C1740 C1759 1.429 . S
C1740 H1764 0.950 . S
C1741 C1758 1.574 . S
C1741 C1760 1.368 . S
C1741 H1765 0.949 1_545 S
H1742 C1746 0.949 . S
C1743 C1744 1.349 . S
C1743 C1745 1.327 . S
C1743 H1766 0.950 1_545 S
C1744 C1743 1.349 . S
C1744 C1756 1.349 . S
C1745 C1743 1.327 . S
C1745 C1761 1.429 . S
C1745 H1767 0.950 1_545 S
C1746 H1742 0.949 . S
C1746 C1754 1.574 . S
C1746 C1762 1.368 . S
H1747 C1755 0.950 1_565 S
H1748 C1753 0.950 1_565 S
H1749 C1754 0.949 . S
H1750 C1756 0.950 . S
H1751 C1757 0.950 . S
H1752 C1758 0.949 1_565 S
C1753 H1748 0.950 1_545 S
C1753 C1755 1.327 . S
C1753 C1759 1.429 . S
C1754 C1746 1.574 . S
C1754 H1749 0.949 . S
C1754 C1760 1.368 . S
C1755 C1739 1.349 . S
C1755 H1747 0.950 1_545 S
C1755 C1753 1.327 . S
C1756 C1744 1.349 . S
C1756 H1750 0.950 . S
C1756 C1757 1.327 . S
C1757 H1751 0.950 . S
C1757 C1756 1.327 . S
C1757 C1761 1.429 . S
C1758 C1741 1.574 . S
C1758 H1752 0.949 1_545 S
C1758 C1762 1.368 . S
C1759 C1740 1.429 . S
C1759 C1753 1.429 . S
C1759 C1760 1.523 . S
C1760 C1741 1.368 . S
C1760 C1754 1.368 . S
C1760 C1759 1.523 . S
C1761 C1745 1.429 . S
C1761 C1757 1.429 . S
C1761 C1762 1.523 . S
C1762 C1746 1.368 . S
C1762 C1758 1.368 . S
C1762 C1761 1.523 . S
H1763 C1738 0.950 . S
H1764 C1740 0.950 . S
H1765 C1741 0.949 1_565 S
H1766 C1743 0.950 1_565 S
H1767 C1745 0.950 1_565 S
C1768 C1769 1.349 . S
C1768 C1770 1.327 . S
C1768 H1793 0.950 . S
C1769 C1768 1.349 . S
C1769 C1785 1.349 . S
C1770 C1768 1.327 . S
C1770 C1789 1.429 . S
C1770 H1794 0.950 . S
C1771 C1788 1.574 . S
C1771 C1790 1.368 . S
C1771 H1795 0.949 . S
H1772 C1776 0.949 . S
C1773 C1774 1.349 . S
C1773 C1775 1.327 . S
C1773 H1796 0.950 . S
C1774 C1773 1.349 . S
C1774 C1786 1.349 . S
C1775 C1773 1.327 . S
C1775 C1791 1.429 . S
C1775 H1797 0.950 . S
C1776 H1772 0.949 . S
C1776 C1784 1.574 . S
C1776 C1792 1.368 . S
H1777 C1785 0.950 . S
H1778 C1783 0.950 . S
H1779 C1784 0.949 . S
H1780 C1786 0.950 . S
H1781 C1787 0.950 . S
H1782 C1788 0.949 . S
C1783 H1778 0.950 . S
C1783 C1785 1.327 . S
C1783 C1789 1.429 . S
C1784 C1776 1.574 . S
C1784 H1779 0.949 . S
C1784 C1790 1.368 . S
C1785 C1769 1.349 . S
C1785 H1777 0.950 . S
C1785 C1783 1.327 . S
C1786 C1774 1.349 . S
C1786 H1780 0.950 . S
C1786 C1787 1.327 . S
C1787 H1781 0.950 . S
C1787 C1786 1.327 . S
C1787 C1791 1.429 . S
C1788 C1771 1.574 . S
C1788 H1782 0.949 . S
C1788 C1792 1.368 . S
C1789 C1770 1.429 . S
C1789 C1783 1.429 . S
C1789 C1790 1.523 . S
C1790 C1771 1.368 . S
C1790 C1784 1.368 . S
C1790 C1789 1.523 . S
C1791 C1775 1.429 . S
C1791 C1787 1.429 . S
C1791 C1792 1.523 . S
C1792 C1776 1.368 . S
C1792 C1788 1.368 . S
C1792 C1791 1.523 . S
H1793 C1768 0.950 . S
H1794 C1770 0.950 . S
H1795 C1771 0.949 . S
H1796 C1773 0.950 . S
H1797 C1775 0.950 . S
C1798 C1799 1.349 . S
C1798 C1800 1.327 . S
C1798 H1823 0.950 . S
C1799 C1798 1.349 . S
C1799 C1815 1.349 . S
C1800 C1798 1.327 . S
C1800 C1819 1.429 . S
C1800 H1824 0.950 . S
C1801 C1818 1.574 . S
C1801 C1820 1.368 1_655 S
C1801 H1825 0.949 . S
H1802 C1806 0.949 . S
C1803 C1804 1.349 . S
C1803 C1805 1.327 . S
C1803 H1826 0.950 . S
C1804 C1803 1.349 . S
C1804 C1816 1.349 . S
C1805 C1803 1.327 . S
C1805 C1821 1.429 . S
C1805 H1827 0.950 . S
C1806 H1802 0.949 . S
C1806 C1814 1.574 . S
C1806 C1822 1.368 1_455 S
H1807 C1815 0.950 1_655 S
H1808 C1813 0.968 . S
H1809 C1814 0.949 . S
H1810 C1816 0.950 1_455 S
H1811 C1817 0.968 . S
H1812 C1818 0.949 . S
C1813 H1808 0.968 . S
C1813 C1815 1.322 1_655 S
C1813 C1819 1.417 1_655 S
C1814 C1806 1.574 . S
C1814 H1809 0.949 . S
C1814 C1820 1.368 . S
C1815 C1799 1.349 . S
C1815 H1807 0.950 1_455 S
C1815 C1813 1.322 1_455 S
C1816 C1804 1.349 . S
C1816 H1810 0.950 1_655 S
C1816 C1817 1.322 1_655 S
C1817 H1811 0.968 . S
C1817 C1816 1.322 1_455 S
C1817 C1821 1.417 1_455 S
C1818 C1801 1.574 . S
C1818 H1812 0.949 . S
C1818 C1822 1.368 . S
C1819 C1800 1.429 . S
C1819 C1813 1.417 1_455 S
C1819 C1820 1.523 . S
C1820 C1801 1.368 1_455 S
C1820 C1814 1.368 . S
C1820 C1819 1.523 . S
C1821 C1805 1.429 . S
C1821 C1817 1.417 1_655 S
C1821 C1822 1.523 . S
C1822 C1806 1.368 1_655 S
C1822 C1818 1.368 . S
C1822 C1821 1.523 . S
H1823 C1798 0.950 . S
H1824 C1800 0.950 . S
H1825 C1801 0.949 . S
H1826 C1803 0.950 . S
H1827 C1805 0.950 . S
C1828 C1829 1.349 . S
C1828 C1830 1.327 . S
C1828 H1853 0.950 . S
C1829 C1828 1.349 . S
C1829 C1845 1.349 . S
C1830 C1828 1.327 . S
C1830 C1849 1.429 . S
C1830 H1854 0.950 . S
C1831 C1848 1.574 . S
C1831 C1850 1.368 . S
C1831 H1855 0.949 . S
H1832 C1836 0.949 . S
C1833 C1834 1.349 . S
C1833 C1835 1.327 . S
C1833 H1856 0.950 . S
C1834 C1833 1.349 . S
C1834 C1846 1.349 . S
C1835 C1833 1.327 . S
C1835 C1851 1.429 . S
C1835 H1857 0.950 . S
C1836 H1832 0.949 . S
C1836 C1844 1.574 . S
C1836 C1852 1.368 . S
H1837 C1845 0.950 . S
H1838 C1843 0.950 . S
H1839 C1844 0.949 . S
H1840 C1846 0.950 . S
H1841 C1847 0.950 . S
H1842 C1848 0.949 . S
C1843 H1838 0.950 . S
C1843 C1845 1.327 . S
C1843 C1849 1.429 . S
C1844 C1836 1.574 . S
C1844 H1839 0.949 . S
C1844 C1850 1.368 . S
C1845 C1829 1.349 . S
C1845 H1837 0.950 . S
C1845 C1843 1.327 . S
C1846 C1834 1.349 . S
C1846 H1840 0.950 . S
C1846 C1847 1.327 . S
C1847 H1841 0.950 . S
C1847 C1846 1.327 . S
C1847 C1851 1.429 . S
C1848 C1831 1.574 . S
C1848 H1842 0.949 . S
C1848 C1852 1.368 . S
C1849 C1830 1.429 . S
C1849 C1843 1.429 . S
C1849 C1850 1.523 . S
C1850 C1831 1.368 . S
C1850 C1844 1.368 . S
C1850 C1849 1.523 . S
C1851 C1835 1.429 . S
C1851 C1847 1.429 . S
C1851 C1852 1.523 . S
C1852 C1836 1.368 . S
C1852 C1848 1.368 . S
C1852 C1851 1.523 . S
H1853 C1828 0.950 . S
H1854 C1830 0.950 . S
H1855 C1831 0.949 . S
H1856 C1833 0.950 . S
H1857 C1835 0.950 . S
C1858 C1859 1.349 . S
C1858 C1860 1.321 1_455 S
C1858 H1883 0.950 1_455 S
C1859 C1858 1.349 . S
C1859 C1875 1.349 . S
C1860 C1858 1.321 1_655 S
C1860 C1879 1.417 1_655 S
C1860 H1884 0.969 . S
C1861 C1878 1.574 . S
C1861 C1880 1.368 . S
C1861 H1885 0.949 . S
H1862 C1866 0.949 . S
C1863 C1864 1.349 . S
C1863 C1865 1.321 1_655 S
C1863 H1886 0.950 1_655 S
C1864 C1863 1.349 . S
C1864 C1876 1.349 . S
C1865 C1863 1.321 1_455 S
C1865 C1881 1.417 1_455 S
C1865 H1887 0.969 . S
C1866 H1862 0.949 . S
C1866 C1874 1.574 . S
C1866 C1882 1.368 . S
H1867 C1875 0.950 . S
H1868 C1873 0.950 . S
H1869 C1874 0.949 . S
H1870 C1876 0.950 . S
H1871 C1877 0.950 . S
H1872 C1878 0.949 . S
C1873 H1868 0.950 . S
C1873 C1875 1.327 . S
C1873 C1879 1.429 . S
C1874 C1866 1.574 . S
C1874 H1869 0.949 . S
C1874 C1880 1.368 1_655 S
C1875 C1859 1.349 . S
C1875 H1867 0.950 . S
C1875 C1873 1.327 . S
C1876 C1864 1.349 . S
C1876 H1870 0.950 . S
C1876 C1877 1.327 . S
C1877 H1871 0.950 . S
C1877 C1876 1.327 . S
C1877 C1881 1.429 . S
C1878 C1861 1.574 . S
C1878 H1872 0.949 . S
C1878 C1882 1.368 1_455 S
C1879 C1860 1.417 1_455 S
C1879 C1873 1.429 . S
C1879 C1880 1.523 . S
C1880 C1861 1.368 . S
C1880 C1874 1.368 1_455 S
C1880 C1879 1.523 . S
C1881 C1865 1.417 1_655 S
C1881 C1877 1.429 . S
C1881 C1882 1.523 . S
C1882 C1866 1.368 . S
C1882 C1878 1.368 1_655 S
C1882 C1881 1.523 . S
H1883 C1858 0.950 1_655 S
H1884 C1860 0.969 . S
H1885 C1861 0.949 . S
H1886 C1863 0.950 1_455 S
H1887 C1865 0.969 . S
C1888 C1889 1.349 . S
C1888 C1890 1.327 . S
C1888 H1913 0.950 . S
C1889 C1888 1.349 . S
C1889 C1905 1.349 . S
C1890 C1888 1.327 . S
C1890 C1909 1.429 . S
C1890 H1914 0.950 . S
C1891 C1908 1.574 . S
C1891 C1910 1.368 . S
C1891 H1915 0.949 . S
H1892 C1896 0.949 . S
C1893 C1894 1.349 . S
C1893 C1895 1.327 . S
C1893 H1916 0.950 . S
C1894 C1893 1.349 . S
C1894 C1906 1.349 . S
C1895 C1893 1.327 . S
C1895 C1911 1.429 . S
C1895 H1917 0.950 . S
C1896 H1892 0.949 . S
C1896 C1904 1.574 . S
C1896 C1912 1.368 . S
H1897 C1905 0.950 . S
H1898 C1903 0.950 . S
H1899 C1904 0.949 . S
H1900 C1906 0.950 . S
H1901 C1907 0.950 . S
H1902 C1908 0.949 . S
C1903 H1898 0.950 . S
C1903 C1905 1.327 . S
C1903 C1909 1.429 . S
C1904 C1896 1.574 . S
C1904 H1899 0.949 . S
C1904 C1910 1.368 1_655 S
C1905 C1889 1.349 . S
C1905 H1897 0.950 . S
C1905 C1903 1.327 . S
C1906 C1894 1.349 . S
C1906 H1900 0.950 . S
C1906 C1907 1.327 . S
C1907 H1901 0.950 . S
C1907 C1906 1.327 . S
C1907 C1911 1.429 . S
C1908 C1891 1.574 . S
C1908 H1902 0.949 . S
C1908 C1912 1.368 1_455 S
C1909 C1890 1.429 . S
C1909 C1903 1.429 . S
C1909 C1910 1.523 . S
C1910 C1891 1.368 . S
C1910 C1904 1.368 1_455 S
C1910 C1909 1.523 . S
C1911 C1895 1.429 . S
C1911 C1907 1.429 . S
C1911 C1912 1.523 . S
C1912 C1896 1.368 . S
C1912 C1908 1.368 1_655 S
C1912 C1911 1.523 . S
H1913 C1888 0.950 . S
H1914 C1890 0.950 . S
H1915 C1891 0.949 . S
H1916 C1893 0.950 . S
H1917 C1895 0.950 . S
C1918 C1919 1.349 . S
C1918 C1920 1.327 . S
C1918 H1943 0.950 . S
C1919 C1918 1.349 . S
C1919 C1935 1.349 . S
C1920 C1918 1.327 . S
C1920 C1939 1.429 . S
C1920 H1944 0.950 . S
C1921 C1938 1.574 . S
C1921 C1940 1.368 . S
C1921 H1945 0.949 . S
H1922 C1926 0.949 . S
C1923 C1924 1.349 . S
C1923 C1925 1.327 . S
C1923 H1946 0.950 . S
C1924 C1923 1.349 . S
C1924 C1936 1.349 . S
C1925 C1923 1.327 . S
C1925 C1941 1.429 . S
C1925 H1947 0.950 . S
C1926 H1922 0.949 . S
C1926 C1934 1.574 . S
C1926 C1942 1.368 . S
H1927 C1935 0.950 . S
H1928 C1933 0.950 . S
H1929 C1934 0.949 . S
H1930 C1936 0.950 . S
H1931 C1937 0.950 . S
H1932 C1938 0.949 . S
C1933 H1928 0.950 . S
C1933 C1935 1.327 . S
C1933 C1939 1.429 . S
C1934 C1926 1.574 . S
C1934 H1929 0.949 . S
C1934 C1940 1.368 . S
C1935 C1919 1.349 . S
C1935 H1927 0.950 . S
C1935 C1933 1.327 . S
C1936 C1924 1.349 . S
C1936 H1930 0.950 . S
C1936 C1937 1.327 . S
C1937 H1931 0.950 . S
C1937 C1936 1.327 . S
C1937 C1941 1.429 . S
C1938 C1921 1.574 . S
C1938 H1932 0.949 . S
C1938 C1942 1.368 . S
C1939 C1920 1.429 . S
C1939 C1933 1.429 . S
C1939 C1940 1.523 . S
C1940 C1921 1.368 . S
C1940 C1934 1.368 . S
C1940 C1939 1.523 . S
C1941 C1925 1.429 . S
C1941 C1937 1.429 . S
C1941 C1942 1.523 . S
C1942 C1926 1.368 . S
C1942 C1938 1.368 . S
C1942 C1941 1.523 . S
H1943 C1918 0.950 . S
H1944 C1920 0.950 . S
H1945 C1921 0.949 . S
H1946 C1923 0.950 . S
H1947 C1925 0.950 . S
C1948 C1949 1.349 . S
C1948 C1950 1.327 . S
C1948 H1973 0.950 . S
C1949 C1948 1.349 . S
C1949 C1965 1.349 . S
C1950 C1948 1.327 . S
C1950 C1969 1.429 . S
C1950 H1974 0.950 . S
C1951 C1968 1.574 . S
C1951 C1970 1.368 . S
C1951 H1975 0.949 . S
H1952 C1956 0.949 . S
C1953 C1954 1.349 . S
C1953 C1955 1.327 . S
C1953 H1976 0.950 . S
C1954 C1953 1.349 . S
C1954 C1966 1.349 . S
C1955 C1953 1.327 . S
C1955 C1971 1.429 . S
C1955 H1977 0.950 . S
C1956 H1952 0.949 . S
C1956 C1964 1.574 . S
C1956 C1972 1.368 . S
H1957 C1965 0.950 . S
H1958 C1963 0.950 . S
H1959 C1964 0.949 . S
H1960 C1966 0.950 . S
H1961 C1967 0.950 . S
H1962 C1968 0.949 . S
C1963 H1958 0.950 . S
C1963 C1965 1.327 . S
C1963 C1969 1.429 . S
C1964 C1956 1.574 . S
C1964 H1959 0.949 . S
C1964 C1970 1.368 . S
C1965 C1949 1.349 . S
C1965 H1957 0.950 . S
C1965 C1963 1.327 . S
C1966 C1954 1.349 . S
C1966 H1960 0.950 . S
C1966 C1967 1.327 . S
C1967 H1961 0.950 . S
C1967 C1966 1.327 . S
C1967 C1971 1.429 . S
C1968 C1951 1.574 . S
C1968 H1962 0.949 . S
C1968 C1972 1.368 . S
C1969 C1950 1.429 . S
C1969 C1963 1.429 . S
C1969 C1970 1.523 . S
C1970 C1951 1.368 . S
C1970 C1964 1.368 . S
C1970 C1969 1.523 . S
C1971 C1955 1.429 . S
C1971 C1967 1.429 . S
C1971 C1972 1.523 . S
C1972 C1956 1.368 . S
C1972 C1968 1.368 . S
C1972 C1971 1.523 . S
H1973 C1948 0.950 . S
H1974 C1950 0.950 . S
H1975 C1951 0.949 . S
H1976 C1953 0.950 . S
H1977 C1955 0.950 . S
C1978 C1979 1.349 . S
C1978 C1980 1.327 . S
C1978 H2003 0.950 . S
C1979 C1978 1.349 . S
C1979 C1995 1.349 . S
C1980 C1978 1.327 . S
C1980 C1999 1.429 . S
C1980 H2004 0.950 . S
C1981 C1998 1.574 . S
C1981 C2000 1.368 . S
C1981 H2005 0.949 . S
H1982 C1986 0.949 . S
C1983 C1984 1.349 . S
C1983 C1985 1.327 . S
C1983 H2006 0.950 . S
C1984 C1983 1.349 . S
C1984 C1996 1.349 . S
C1985 C1983 1.327 . S
C1985 C2001 1.429 . S
C1985 H2007 0.950 . S
C1986 H1982 0.949 . S
C1986 C1994 1.574 . S
C1986 C2002 1.368 . S
H1987 C1995 0.950 . S
H1988 C1993 0.950 . S
H1989 C1994 0.949 . S
H1990 C1996 0.950 . S
H1991 C1997 0.950 . S
H1992 C1998 0.949 . S
C1993 H1988 0.950 . S
C1993 C1995 1.327 . S
C1993 C1999 1.429 . S
C1994 C1986 1.574 . S
C1994 H1989 0.949 . S
C1994 C2000 1.368 1_655 S
C1995 C1979 1.349 . S
C1995 H1987 0.950 . S
C1995 C1993 1.327 . S
C1996 C1984 1.349 . S
C1996 H1990 0.950 . S
C1996 C1997 1.327 . S
C1997 H1991 0.950 . S
C1997 C1996 1.327 . S
C1997 C2001 1.429 . S
C1998 C1981 1.574 . S
C1998 H1992 0.949 . S
C1998 C2002 1.368 1_455 S
C1999 C1980 1.429 . S
C1999 C1993 1.429 . S
C1999 C2000 1.523 . S
C2000 C1981 1.368 . S
C2000 C1994 1.368 1_455 S
C2000 C1999 1.523 . S
C2001 C1985 1.429 . S
C2001 C1997 1.429 . S
C2001 C2002 1.523 . S
C2002 C1986 1.368 . S
C2002 C1998 1.368 1_655 S
C2002 C2001 1.523 . S
H2003 C1978 0.950 . S
H2004 C1980 0.950 . S
H2005 C1981 0.949 . S
H2006 C1983 0.950 . S
H2007 C1985 0.950 . S
C2008 C2009 1.349 . S
C2008 C2010 1.327 . S
C2008 H2033 0.950 . S
C2009 C2008 1.349 . S
C2009 C2025 1.349 . S
C2010 C2008 1.327 . S
C2010 C2029 1.429 . S
C2010 H2034 0.950 . S
C2011 C2028 1.574 . S
C2011 C2030 1.368 1_655 S
C2011 H2035 0.949 . S
H2012 C2016 0.949 . S
C2013 C2014 1.349 . S
C2013 C2015 1.327 . S
C2013 H2036 0.950 . S
C2014 C2013 1.349 . S
C2014 C2026 1.349 . S
C2015 C2013 1.327 . S
C2015 C2031 1.429 . S
C2015 H2037 0.950 . S
C2016 H2012 0.949 . S
C2016 C2024 1.574 . S
C2016 C2032 1.368 1_455 S
H2017 C2025 0.950 . S
H2018 C2023 0.950 . S
H2019 C2024 0.949 . S
H2020 C2026 0.950 . S
H2021 C2027 0.950 . S
H2022 C2028 0.949 . S
C2023 H2018 0.950 . S
C2023 C2025 1.327 . S
C2023 C2029 1.429 . S
C2024 C2016 1.574 . S
C2024 H2019 0.949 . S
C2024 C2030 1.368 . S
C2025 C2009 1.349 . S
C2025 H2017 0.950 . S
C2025 C2023 1.327 . S
C2026 C2014 1.349 . S
C2026 H2020 0.950 . S
C2026 C2027 1.327 . S
C2027 H2021 0.950 . S
C2027 C2026 1.327 . S
C2027 C2031 1.429 . S
C2028 C2011 1.574 . S
C2028 H2022 0.949 . S
C2028 C2032 1.368 . S
C2029 C2010 1.429 . S
C2029 C2023 1.429 . S
C2029 C2030 1.523 . S
C2030 C2011 1.368 1_455 S
C2030 C2024 1.368 . S
C2030 C2029 1.523 . S
C2031 C2015 1.429 . S
C2031 C2027 1.429 . S
C2031 C2032 1.523 . S
C2032 C2016 1.368 1_655 S
C2032 C2028 1.368 . S
C2032 C2031 1.523 . S
H2033 C2008 0.950 . S
H2034 C2010 0.950 . S
H2035 C2011 0.949 . S
H2036 C2013 0.950 . S
H2037 C2015 0.950 . S
C2038 C2039 1.349 . S
C2038 C2040 1.327 . S
C2038 H2063 0.950 . S
C2039 C2038 1.349 . S
C2039 C2055 1.349 . S
C2040 C2038 1.327 . S
C2040 C2059 1.429 . S
C2040 H2064 0.950 . S
C2041 C2058 1.574 . S
C2041 C2060 1.368 . S
C2041 H2065 0.949 . S
H2042 C2046 0.949 . S
C2043 C2044 1.349 . S
C2043 C2045 1.327 . S
C2043 H2066 0.950 . S
C2044 C2043 1.349 . S
C2044 C2056 1.349 . S
C2045 C2043 1.327 . S
C2045 C2061 1.429 . S
C2045 H2067 0.950 . S
C2046 H2042 0.949 . S
C2046 C2054 1.574 . S
C2046 C2062 1.368 . S
H2047 C2055 0.950 . S
H2048 C2053 0.950 . S
H2049 C2054 0.949 . S
H2050 C2056 0.950 . S
H2051 C2057 0.950 . S
H2052 C2058 0.949 . S
C2053 H2048 0.950 . S
C2053 C2055 1.327 . S
C2053 C2059 1.429 . S
C2054 C2046 1.574 . S
C2054 H2049 0.949 . S
C2054 C2060 1.368 . S
C2055 C2039 1.349 . S
C2055 H2047 0.950 . S
C2055 C2053 1.327 . S
C2056 C2044 1.349 . S
C2056 H2050 0.950 . S
C2056 C2057 1.327 . S
C2057 H2051 0.950 . S
C2057 C2056 1.327 . S
C2057 C2061 1.429 . S
C2058 C2041 1.574 . S
C2058 H2052 0.949 . S
C2058 C2062 1.368 . S
C2059 C2040 1.429 . S
C2059 C2053 1.429 . S
C2059 C2060 1.523 . S
C2060 C2041 1.368 . S
C2060 C2054 1.368 . S
C2060 C2059 1.523 . S
C2061 C2045 1.429 . S
C2061 C2057 1.429 . S
C2061 C2062 1.523 . S
C2062 C2046 1.368 . S
C2062 C2058 1.368 . S
C2062 C2061 1.523 . S
H2063 C2038 0.950 . S
H2064 C2040 0.950 . S
H2065 C2041 0.949 . S
H2066 C2043 0.950 . S
H2067 C2045 0.950 . S
C2068 C2069 1.349 . S
C2068 C2070 1.327 . S
C2068 H2093 0.950 . S
C2069 C2068 1.349 . S
C2069 C2085 1.349 . S
C2070 C2068 1.327 . S
C2070 C2089 1.429 . S
C2070 H2094 0.950 . S
C2071 C2088 1.574 . S
C2071 C2090 1.368 . S
C2071 H2095 0.949 . S
H2072 C2076 0.949 . S
C2073 C2074 1.349 . S
C2073 C2075 1.327 . S
C2073 H2096 0.950 . S
C2074 C2073 1.349 . S
C2074 C2086 1.349 . S
C2075 C2073 1.327 . S
C2075 C2091 1.429 . S
C2075 H2097 0.950 . S
C2076 H2072 0.949 . S
C2076 C2084 1.574 . S
C2076 C2092 1.368 . S
H2077 C2085 0.950 . S
H2078 C2083 0.950 . S
H2079 C2084 0.949 . S
H2080 C2086 0.950 . S
H2081 C2087 0.950 . S
H2082 C2088 0.949 . S
C2083 H2078 0.950 . S
C2083 C2085 1.327 . S
C2083 C2089 1.429 . S
C2084 C2076 1.574 . S
C2084 H2079 0.949 . S
C2084 C2090 1.368 . S
C2085 C2069 1.349 . S
C2085 H2077 0.950 . S
C2085 C2083 1.327 . S
C2086 C2074 1.349 . S
C2086 H2080 0.950 . S
C2086 C2087 1.327 . S
C2087 H2081 0.950 . S
C2087 C2086 1.327 . S
C2087 C2091 1.429 . S
C2088 C2071 1.574 . S
C2088 H2082 0.949 . S
C2088 C2092 1.368 . S
C2089 C2070 1.429 . S
C2089 C2083 1.429 . S
C2089 C2090 1.523 . S
C2090 C2071 1.368 . S
C2090 C2084 1.368 . S
C2090 C2089 1.523 . S
C2091 C2075 1.429 . S
C2091 C2087 1.429 . S
C2091 C2092 1.523 . S
C2092 C2076 1.368 . S
C2092 C2088 1.368 . S
C2092 C2091 1.523 . S
H2093 C2068 0.950 . S
H2094 C2070 0.950 . S
H2095 C2071 0.949 . S
H2096 C2073 0.950 . S
H2097 C2075 0.950 . S
C2098 C2099 1.349 . S
C2098 C2100 1.327 . S
C2098 H2123 0.950 . S
C2099 C2098 1.349 . S
C2099 C2115 1.349 . S
C2100 C2098 1.327 . S
C2100 C2119 1.429 . S
C2100 H2124 0.950 . S
C2101 C2118 1.574 . S
C2101 C2120 1.368 1_655 S
C2101 H2125 0.949 . S
H2102 C2106 0.949 . S
C2103 C2104 1.349 . S
C2103 C2105 1.327 . S
C2103 H2126 0.950 . S
C2104 C2103 1.349 . S
C2104 C2116 1.349 . S
C2105 C2103 1.327 . S
C2105 C2121 1.429 . S
C2105 H2127 0.950 . S
C2106 H2102 0.949 . S
C2106 C2114 1.574 . S
C2106 C2122 1.368 1_455 S
H2107 C2115 0.950 . S
H2108 C2113 0.950 . S
H2109 C2114 0.949 . S
H2110 C2116 0.950 . S
H2111 C2117 0.950 . S
H2112 C2118 0.949 . S
C2113 H2108 0.950 . S
C2113 C2115 1.327 . S
C2113 C2119 1.429 . S
C2114 C2106 1.574 . S
C2114 H2109 0.949 . S
C2114 C2120 1.368 . S
C2115 C2099 1.349 . S
C2115 H2107 0.950 . S
C2115 C2113 1.327 . S
C2116 C2104 1.349 . S
C2116 H2110 0.950 . S
C2116 C2117 1.327 . S
C2117 H2111 0.950 . S
C2117 C2116 1.327 . S
C2117 C2121 1.429 . S
C2118 C2101 1.574 . S
C2118 H2112 0.949 . S
C2118 C2122 1.368 . S
C2119 C2100 1.429 . S
C2119 C2113 1.429 . S
C2119 C2120 1.523 . S
C2120 C2101 1.368 1_455 S
C2120 C2114 1.368 . S
C2120 C2119 1.523 . S
C2121 C2105 1.429 . S
C2121 C2117 1.429 . S
C2121 C2122 1.523 . S
C2122 C2106 1.368 1_655 S
C2122 C2118 1.368 . S
C2122 C2121 1.523 . S
H2123 C2098 0.950 . S
H2124 C2100 0.950 . S
H2125 C2101 0.949 . S
H2126 C2103 0.950 . S
H2127 C2105 0.950 . S
C2128 C2129 1.349 1_545 S
C2128 C2130 1.327 . S
C2128 H2153 0.950 . S
C2129 C2128 1.349 1_565 S
C2129 C2145 1.365 . S
C2130 C2128 1.327 . S
C2130 C2149 1.429 1_545 S
C2130 H2154 0.950 . S
C2131 C2148 1.574 1_556 S
C2131 C2150 1.391 1_455 S
C2131 H2155 0.949 . S
H2132 C2136 0.949 . S
C2133 C2134 1.349 1_565 S
C2133 C2135 1.327 . S
C2133 H2156 0.950 . S
C2134 C2133 1.349 1_545 S
C2134 C2146 1.352 . S
C2135 C2133 1.327 . S
C2135 C2151 1.429 1_565 S
C2135 H2157 0.950 . S
C2136 H2132 0.949 . S
C2136 C2144 1.574 1_554 S
C2136 C2152 1.397 1_655 S
H2137 C2145 0.938 1_455 S
H2138 C2143 0.950 . S
H2139 C2144 0.949 . S
H2140 C2146 0.948 1_655 S
H2141 C2147 0.950 . S
H2142 C2148 0.949 . S
C2143 H2138 0.950 . S
C2143 C2145 1.323 1_455 S
C2143 C2149 1.429 1_455 S
C2144 C2136 1.574 1_556 S
C2144 H2139 0.949 . S
C2144 C2150 1.345 1_545 S
C2145 C2129 1.365 . S
C2145 H2137 0.938 1_655 S
C2145 C2143 1.323 1_655 S
C2146 C2134 1.352 . S
C2146 H2140 0.948 1_455 S
C2146 C2147 1.326 1_455 S
C2147 H2141 0.950 . S
C2147 C2146 1.326 1_655 S
C2147 C2151 1.429 1_655 S
C2148 C2131 1.574 1_554 S
C2148 H2142 0.949 . S
C2148 C2152 1.340 1_565 S
C2149 C2130 1.429 1_565 S
C2149 C2143 1.429 1_655 S
C2149 C2150 1.524 . S
C2150 C2131 1.391 1_655 S
C2150 C2144 1.345 1_565 S
C2150 C2149 1.524 . S
C2151 C2135 1.429 1_545 S
C2151 C2147 1.429 1_455 S
C2151 C2152 1.525 . S
C2152 C2136 1.397 1_455 S
C2152 C2148 1.340 1_545 S
C2152 C2151 1.525 . S
H2153 C2128 0.950 . S
H2154 C2130 0.950 . S
H2155 C2131 0.949 . S
H2156 C2133 0.950 . S
H2157 C2135 0.950 . S
C2158 C2159 1.349 . S
C2158 C2160 1.327 . S
C2158 H2183 0.950 . S
C2159 C2158 1.349 . S
C2159 C2175 1.349 1_545 S
C2160 C2158 1.327 . S
C2160 C2179 1.429 . S
C2160 H2184 0.950 . S
C2161 C2178 1.574 1_556 S
C2161 C2180 1.345 1_565 S
C2161 H2185 0.949 . S
H2162 C2166 0.949 . S
C2163 C2164 1.349 . S
C2163 C2165 1.327 . S
C2163 H2186 0.950 . S
C2164 C2163 1.349 . S
C2164 C2176 1.349 1_565 S
C2165 C2163 1.327 . S
C2165 C2181 1.429 . S
C2165 H2187 0.950 . S
C2166 H2162 0.949 . S
C2166 C2174 1.574 1_554 S
C2166 C2182 1.340 1_545 S
H2167 C2175 0.950 . S
H2168 C2173 0.950 . S
H2169 C2174 0.949 . S
H2170 C2176 0.950 . S
H2171 C2177 0.950 . S
H2172 C2178 0.949 . S
C2173 H2168 0.950 . S
C2173 C2175 1.327 . S
C2173 C2179 1.429 1_565 S
C2174 C2166 1.574 1_556 S
C2174 H2169 0.949 . S
C2174 C2180 1.391 . S
C2175 C2159 1.349 1_565 S
C2175 H2167 0.950 . S
C2175 C2173 1.327 . S
C2176 C2164 1.349 1_545 S
C2176 H2170 0.950 . S
C2176 C2177 1.327 . S
C2177 H2171 0.950 . S
C2177 C2176 1.327 . S
C2177 C2181 1.429 1_545 S
C2178 C2161 1.574 1_554 S
C2178 H2172 0.949 . S
C2178 C2182 1.396 . S
C2179 C2160 1.429 . S
C2179 C2173 1.429 1_545 S
C2179 C2180 1.524 . S
C2180 C2161 1.345 1_545 S
C2180 C2174 1.391 . S
C2180 C2179 1.524 . S
C2181 C2165 1.429 . S
C2181 C2177 1.429 1_565 S
C2181 C2182 1.525 . S
C2182 C2166 1.340 1_565 S
C2182 C2178 1.396 . S
C2182 C2181 1.525 . S
H2183 C2158 0.950 . S
H2184 C2160 0.950 . S
H2185 C2161 0.949 . S
H2186 C2163 0.950 . S
H2187 C2165 0.950 . S
C2188 C2189 1.349 . S
C2188 C2190 1.327 . S
C2188 H2213 0.950 . S
C2189 C2188 1.349 . S
C2189 C2205 1.349 1_545 S
C2190 C2188 1.327 . S
C2190 C2209 1.429 . S
C2190 H2214 0.950 . S
C2191 C2208 1.574 . S
C2191 C2210 1.345 1_565 S
C2191 H2215 0.949 . S
H2192 C2196 0.949 . S
C2193 C2194 1.349 . S
C2193 C2195 1.327 . S
C2193 H2216 0.950 . S
C2194 C2193 1.349 . S
C2194 C2206 1.349 1_565 S
C2195 C2193 1.327 . S
C2195 C2211 1.429 . S
C2195 H2217 0.950 . S
C2196 H2192 0.949 . S
C2196 C2204 1.574 . S
C2196 C2212 1.340 1_545 S
H2197 C2205 0.950 . S
H2198 C2203 0.950 . S
H2199 C2204 0.949 . S
H2200 C2206 0.950 . S
H2201 C2207 0.950 . S
H2202 C2208 0.949 . S
C2203 H2198 0.950 . S
C2203 C2205 1.327 . S
C2203 C2209 1.429 1_565 S
C2204 C2196 1.574 . S
C2204 H2199 0.949 . S
C2204 C2210 1.391 . S
C2205 C2189 1.349 1_565 S
C2205 H2197 0.950 . S
C2205 C2203 1.327 . S
C2206 C2194 1.349 1_545 S
C2206 H2200 0.950 . S
C2206 C2207 1.327 . S
C2207 H2201 0.950 . S
C2207 C2206 1.327 . S
C2207 C2211 1.429 1_545 S
C2208 C2191 1.574 . S
C2208 H2202 0.949 . S
C2208 C2212 1.397 . S
C2209 C2190 1.429 . S
C2209 C2203 1.429 1_545 S
C2209 C2210 1.524 . S
C2210 C2191 1.345 1_545 S
C2210 C2204 1.391 . S
C2210 C2209 1.524 . S
C2211 C2195 1.429 . S
C2211 C2207 1.429 1_565 S
C2211 C2212 1.525 . S
C2212 C2196 1.340 1_565 S
C2212 C2208 1.397 . S
C2212 C2211 1.525 . S
H2213 C2188 0.950 . S
H2214 C2190 0.950 . S
H2215 C2191 0.949 . S
H2216 C2193 0.950 . S
H2217 C2195 0.950 . S
C2218 C2219 1.372 . S
C2218 C2220 1.322 1_455 S
C2218 H2243 0.934 1_455 S
C2219 C2218 1.372 . S
C2219 C2235 1.349 1_565 S
C2220 C2218 1.322 1_655 S
C2220 C2239 1.429 1_655 S
C2220 H2244 0.950 . S
C2221 C2238 1.574 . S
C2221 C2240 1.345 1_545 S
C2221 H2245 0.949 . S
H2222 C2226 0.949 . S
C2223 C2224 1.359 . S
C2223 C2225 1.324 1_655 S
C2223 H2246 0.942 1_655 S
C2224 C2223 1.359 . S
C2224 C2236 1.349 1_545 S
C2225 C2223 1.324 1_455 S
C2225 C2241 1.429 1_455 S
C2225 H2247 0.950 . S
C2226 H2222 0.949 . S
C2226 C2234 1.574 . S
C2226 C2242 1.339 1_565 S
H2227 C2235 0.950 . S
H2228 C2233 0.950 . S
H2229 C2234 0.949 . S
H2230 C2236 0.950 . S
H2231 C2237 0.950 . S
H2232 C2238 0.949 . S
C2233 H2228 0.950 . S
C2233 C2235 1.327 . S
C2233 C2239 1.429 1_545 S
C2234 C2226 1.574 . S
C2234 H2229 0.949 . S
C2234 C2240 1.392 1_655 S
C2235 C2219 1.349 1_545 S
C2235 H2227 0.950 . S
C2235 C2233 1.327 . S
C2236 C2224 1.349 1_565 S
C2236 H2230 0.950 . S
C2236 C2237 1.327 . S
C2237 H2231 0.950 . S
C2237 C2236 1.327 . S
C2237 C2241 1.429 1_565 S
C2238 C2221 1.574 . S
C2238 H2232 0.949 . S
C2238 C2242 1.397 1_455 S
C2239 C2220 1.429 1_455 S
C2239 C2233 1.429 1_565 S
C2239 C2240 1.524 . S
C2240 C2221 1.345 1_565 S
C2240 C2234 1.392 1_455 S
C2240 C2239 1.524 . S
C2241 C2225 1.429 1_655 S
C2241 C2237 1.429 1_545 S
C2241 C2242 1.525 . S
C2242 C2226 1.339 1_545 S
C2242 C2238 1.397 1_655 S
C2242 C2241 1.525 . S
H2243 C2218 0.934 1_655 S
H2244 C2220 0.950 . S
H2245 C2221 0.949 . S
H2246 C2223 0.942 1_455 S
H2247 C2225 0.950 . S
C2248 C2249 1.349 . S
C2248 C2250 1.327 . S
C2248 H2273 0.950 . S
C2249 C2248 1.349 . S
C2249 C2265 1.349 . S
C2250 C2248 1.327 . S
C2250 C2269 1.429 . S
C2250 H2274 0.950 . S
C2251 C2268 1.574 1_554 S
C2251 C2270 1.368 . S
C2251 H2275 0.949 . S
H2252 C2256 0.949 . S
C2253 C2254 1.349 . S
C2253 C2255 1.327 . S
C2253 H2276 0.950 . S
C2254 C2253 1.349 . S
C2254 C2266 1.349 . S
C2255 C2253 1.327 . S
C2255 C2271 1.429 . S
C2255 H2277 0.950 . S
C2256 H2252 0.949 . S
C2256 C2264 1.574 1_556 S
C2256 C2272 1.368 . S
H2257 C2265 0.950 . S
H2258 C2263 0.950 . S
H2259 C2264 0.949 . S
H2260 C2266 0.950 . S
H2261 C2267 0.950 . S
H2262 C2268 0.949 . S
C2263 H2258 0.950 . S
C2263 C2265 1.327 . S
C2263 C2269 1.429 . S
C2264 C2256 1.574 1_554 S
C2264 H2259 0.949 . S
C2264 C2270 1.368 . S
C2265 C2249 1.349 . S
C2265 H2257 0.950 . S
C2265 C2263 1.327 . S
C2266 C2254 1.349 . S
C2266 H2260 0.950 . S
C2266 C2267 1.327 . S
C2267 H2261 0.950 . S
C2267 C2266 1.327 . S
C2267 C2271 1.429 . S
C2268 C2251 1.574 1_556 S
C2268 H2262 0.949 . S
C2268 C2272 1.368 . S
C2269 C2250 1.429 . S
C2269 C2263 1.429 . S
C2269 C2270 1.523 . S
C2270 C2251 1.368 . S
C2270 C2264 1.368 . S
C2270 C2269 1.523 . S
C2271 C2255 1.429 . S
C2271 C2267 1.429 . S
C2271 C2272 1.523 . S
C2272 C2256 1.368 . S
C2272 C2268 1.368 . S
C2272 C2271 1.523 . S
H2273 C2248 0.950 . S
H2274 C2250 0.950 . S
H2275 C2251 0.949 . S
H2276 C2253 0.950 . S
H2277 C2255 0.950 . S
C2278 C2279 1.350 1_455 S
C2278 C2280 1.327 . S
C2278 H2303 0.949 . S
C2279 C2278 1.350 1_655 S
C2279 C2295 1.349 . S
C2280 C2278 1.327 . S
C2280 C2299 1.429 1_455 S
C2280 H2304 0.950 . S
C2281 C2298 1.574 1_554 S
C2281 C2300 1.368 . S
C2281 H2305 0.949 . S
H2282 C2286 0.949 . S
C2283 C2284 1.355 . S
C2283 C2285 1.325 1_455 S
C2283 H2306 0.945 1_455 S
C2284 C2283 1.355 . S
C2284 C2296 1.349 . S
C2285 C2283 1.325 1_655 S
C2285 C2301 1.429 1_655 S
C2285 H2307 0.950 . S
C2286 H2282 0.949 . S
C2286 C2294 1.574 1_556 S
C2286 C2302 1.368 . S
H2287 C2295 0.950 . S
H2288 C2293 0.950 . S
H2289 C2294 0.949 . S
H2290 C2296 0.950 . S
H2291 C2297 0.950 . S
H2292 C2298 0.949 . S
C2293 H2288 0.950 . S
C2293 C2295 1.327 . S
C2293 C2299 1.429 . S
C2294 C2286 1.574 1_554 S
C2294 H2289 0.949 . S
C2294 C2300 1.368 1_455 S
C2295 C2279 1.349 . S
C2295 H2287 0.950 . S
C2295 C2293 1.327 . S
C2296 C2284 1.349 . S
C2296 H2290 0.950 . S
C2296 C2297 1.327 . S
C2297 H2291 0.950 . S
C2297 C2296 1.327 . S
C2297 C2301 1.429 . S
C2298 C2281 1.574 1_556 S
C2298 H2292 0.949 . S
C2298 C2302 1.368 1_655 S
C2299 C2280 1.429 1_655 S
C2299 C2293 1.429 . S
C2299 C2300 1.523 . S
C2300 C2281 1.368 . S
C2300 C2294 1.368 1_655 S
C2300 C2299 1.523 . S
C2301 C2285 1.429 1_455 S
C2301 C2297 1.429 . S
C2301 C2302 1.523 . S
C2302 C2286 1.368 . S
C2302 C2298 1.368 1_455 S
C2302 C2301 1.523 . S
H2303 C2278 0.949 . S
H2304 C2280 0.950 . S
H2305 C2281 0.949 . S
H2306 C2283 0.945 1_655 S
H2307 C2285 0.950 . S
C2308 C2309 1.351 . S
C2308 C2310 1.327 1_655 S
C2308 H2333 0.948 1_655 S
C2309 C2308 1.351 . S
C2309 C2325 1.349 . S
C2310 C2308 1.327 1_455 S
C2310 C2329 1.429 1_455 S
C2310 H2334 0.950 . S
C2311 C2328 1.574 . S
C2311 C2330 1.368 . S
C2311 H2335 0.949 . S
H2312 C2316 0.949 . S
C2313 C2314 1.346 1_655 S
C2313 C2315 1.328 . S
C2313 H2336 0.952 . S
C2314 C2313 1.346 1_455 S
C2314 C2326 1.349 . S
C2315 C2313 1.328 . S
C2315 C2331 1.429 1_655 S
C2315 H2337 0.950 . S
C2316 H2312 0.949 . S
C2316 C2324 1.574 . S
C2316 C2332 1.368 . S
H2317 C2325 0.950 . S
H2318 C2323 0.950 . S
H2319 C2324 0.949 . S
H2320 C2326 0.950 . S
H2321 C2327 0.950 . S
H2322 C2328 0.949 . S
C2323 H2318 0.950 . S
C2323 C2325 1.327 . S
C2323 C2329 1.429 . S
C2324 C2316 1.574 . S
C2324 H2319 0.949 . S
C2324 C2330 1.368 1_455 S
C2325 C2309 1.349 . S
C2325 H2317 0.950 . S
C2325 C2323 1.327 . S
C2326 C2314 1.349 . S
C2326 H2320 0.950 . S
C2326 C2327 1.327 . S
C2327 H2321 0.950 . S
C2327 C2326 1.327 . S
C2327 C2331 1.429 . S
C2328 C2311 1.574 . S
C2328 H2322 0.949 . S
C2328 C2332 1.368 1_655 S
C2329 C2310 1.429 1_655 S
C2329 C2323 1.429 . S
C2329 C2330 1.523 . S
C2330 C2311 1.368 . S
C2330 C2324 1.368 1_655 S
C2330 C2329 1.523 . S
C2331 C2315 1.429 1_455 S
C2331 C2327 1.429 . S
C2331 C2332 1.523 . S
C2332 C2316 1.368 . S
C2332 C2328 1.368 1_455 S
C2332 C2331 1.523 . S
H2333 C2308 0.948 1_455 S
H2334 C2310 0.950 . S
H2335 C2311 0.949 . S
H2336 C2313 0.952 . S
H2337 C2315 0.950 . S
C2338 C2339 1.349 . S
C2338 C2340 1.327 . S
C2338 H2363 0.950 . S
C2339 C2338 1.349 . S
C2339 C2355 1.349 . S
C2340 C2338 1.327 . S
C2340 C2359 1.429 . S
C2340 H2364 0.950 . S
C2341 C2358 1.574 . S
C2341 C2360 1.368 . S
C2341 H2365 0.949 . S
H2342 C2346 0.949 . S
C2343 C2344 1.349 . S
C2343 C2345 1.327 . S
C2343 H2366 0.950 . S
C2344 C2343 1.349 . S
C2344 C2356 1.349 . S
C2345 C2343 1.327 . S
C2345 C2361 1.429 . S
C2345 H2367 0.950 . S
C2346 H2342 0.949 . S
C2346 C2354 1.574 . S
C2346 C2362 1.368 . S
H2347 C2355 0.950 . S
H2348 C2353 0.950 . S
H2349 C2354 0.949 . S
H2350 C2356 0.950 . S
H2351 C2357 0.950 . S
H2352 C2358 0.949 . S
C2353 H2348 0.950 . S
C2353 C2355 1.327 . S
C2353 C2359 1.429 . S
C2354 C2346 1.574 . S
C2354 H2349 0.949 . S
C2354 C2360 1.368 . S
C2355 C2339 1.349 . S
C2355 H2347 0.950 . S
C2355 C2353 1.327 . S
C2356 C2344 1.349 . S
C2356 H2350 0.950 . S
C2356 C2357 1.327 . S
C2357 H2351 0.950 . S
C2357 C2356 1.327 . S
C2357 C2361 1.429 . S
C2358 C2341 1.574 . S
C2358 H2352 0.949 . S
C2358 C2362 1.368 . S
C2359 C2340 1.429 . S
C2359 C2353 1.429 . S
C2359 C2360 1.523 . S
C2360 C2341 1.368 . S
C2360 C2354 1.368 . S
C2360 C2359 1.523 . S
C2361 C2345 1.429 . S
C2361 C2357 1.429 . S
C2361 C2362 1.523 . S
C2362 C2346 1.368 . S
C2362 C2358 1.368 . S
C2362 C2361 1.523 . S
H2363 C2338 0.950 . S
H2364 C2340 0.950 . S
H2365 C2341 0.949 . S
H2366 C2343 0.950 . S
H2367 C2345 0.950 . S
C1409 C137 1.508 . S
C1414 C29 1.508 . S
C1439 C196 1.508 . S
C1444 C293 1.508 . S
C1469 C401 1.499 . S
C1474 C489 1.499 . S
C1499 C645 1.499 . S
C1504 C548 1.499 . S
C1529 C841 1.508 . S
C1534 C753 1.508 . S
C1559 C997 1.508 . S
C1564 C909 1.508 . S
C1589 C1201 1.499 . S
C1594 C1113 1.499 . S
C1619 C1349 1.499 . S
C1624 C1252 1.499 . S
C1649 C313 0.945 . S
C1654 C49 0.945 . S
C1679 C117 0.945 . S
C1684 C233 0.945 . S
C1709 C636 0.944 . S
C1714 C409 0.944 . S
C1739 C557 0.944 . S
C1744 C497 0.944 . S
C1769 C733 0.945 . S
C1774 C1017 0.945 . S
C1799 C929 0.945 . S
C1804 C821 0.945 . S
C1829 C1340 0.944 . S
C1834 C1105 0.944 . S
C1859 C1193 0.944 . S
C1864 C1261 0.944 . S
C1889 C57 1.663 . S
C1894 C812 1.663 . S
C1919 C108 1.663 . S
C1924 C724 1.663 . S
C1949 C1025 1.663 . S
C1954 C225 1.663 . S
C1979 C937 1.663 . S
C1984 C321 1.663 . S
C2009 C1173 1.664 . S
C2014 C372 1.664 . S
C2039 C1085 1.664 . S
C2044 C460 1.664 . S
C2069 C577 1.664 . S
C2074 C1377 1.664 . S
C2099 C673 1.664 . S
C2104 C1281 1.664 . S
C2129 C381 0.880 . S
C2134 C20 0.880 . S
C2159 C469 0.880 . S
C2164 C145 0.880 . S
C2189 C585 0.880 . S
C2194 C205 0.880 . S
C2219 C665 0.880 . S
C2224 C284 0.880 . S
C2249 C761 0.880 . S
C2254 C1076 0.880 . S
C2279 C849 0.880 . S
C2284 C1164 0.880 . S
C2309 C1289 0.880 . S
C2314 C900 0.880 . S
C2339 C1369 0.880 . S
C2344 C988 0.880 . S
