# Generated by pormake.
# Topology xfh, (7)-cn, num edge types: 1
# Building blocks:
#     Node 0, Type 0, BuildingBlock: HICVOG_clean_sbu_0, # of connection points: 7
#     Node 1, Type 0, BuildingBlock: HICVOG_clean_sbu_0, # of connection points: 7
#     Node 2, Type 0, BuildingBlock: HICVOG_clean_sbu_0, # of connection points: 7
#     Node 3, Type 0, BuildingBlock: HICVOG_clean_sbu_0, # of connection points: 7
#     Node 4, Type 0, BuildingBlock: HICVOG_clean_sbu_0, # of connection points: 7
#     Node 5, Type 0, BuildingBlock: HICVOG_clean_sbu_0, # of connection points: 7
#     Node 6, Type 0, BuildingBlock: HICVOG_clean_sbu_0, # of connection points: 7
#     Node 7, Type 0, BuildingBlock: HICVOG_clean_sbu_0, # of connection points: 7
#     Node 8, Type 0, BuildingBlock: HICVOG_clean_sbu_0, # of connection points: 7
#     Node 9, Type 0, BuildingBlock: HICVOG_clean_sbu_0, # of connection points: 7
#     Node 10, Type 0, BuildingBlock: HICVOG_clean_sbu_0, # of connection points: 7
#     Node 11, Type 0, BuildingBlock: HICVOG_clean_sbu_0, # of connection points: 7
#     Node 12, Type 0, BuildingBlock: HICVOG_clean_sbu_0, # of connection points: 7
#     Node 13, Type 0, BuildingBlock: HICVOG_clean_sbu_0, # of connection points: 7
#     Node 14, Type 0, BuildingBlock: HICVOG_clean_sbu_0, # of connection points: 7
#     Node 15, Type 0, BuildingBlock: HICVOG_clean_sbu_0, # of connection points: 7
#     Edge 16, Type (0, 0), BuildingBlock: ZUJKAS_clean_linker_0, # of connection points: 2
#     Edge 17, Type (0, 0), BuildingBlock: ZUJKAS_clean_linker_0, # of connection points: 2
#     Edge 18, Type (0, 0), BuildingBlock: ZUJKAS_clean_linker_0, # of connection points: 2
#     Edge 19, Type (0, 0), BuildingBlock: ZUJKAS_clean_linker_0, # of connection points: 2
#     Edge 20, Type (0, 0), BuildingBlock: ZUJKAS_clean_linker_0, # of connection points: 2
#     Edge 21, Type (0, 0), BuildingBlock: ZUJKAS_clean_linker_0, # of connection points: 2
#     Edge 22, Type (0, 0), BuildingBlock: ZUJKAS_clean_linker_0, # of connection points: 2
#     Edge 23, Type (0, 0), BuildingBlock: ZUJKAS_clean_linker_0, # of connection points: 2
#     Edge 24, Type (0, 0), BuildingBlock: ZUJKAS_clean_linker_0, # of connection points: 2
#     Edge 25, Type (0, 0), BuildingBlock: ZUJKAS_clean_linker_0, # of connection points: 2
#     Edge 26, Type (0, 0), BuildingBlock: ZUJKAS_clean_linker_0, # of connection points: 2
#     Edge 27, Type (0, 0), BuildingBlock: ZUJKAS_clean_linker_0, # of connection points: 2
#     Edge 28, Type (0, 0), BuildingBlock: ZUJKAS_clean_linker_0, # of connection points: 2
#     Edge 29, Type (0, 0), BuildingBlock: ZUJKAS_clean_linker_0, # of connection points: 2
#     Edge 30, Type (0, 0), BuildingBlock: ZUJKAS_clean_linker_0, # of connection points: 2
#     Edge 31, Type (0, 0), BuildingBlock: ZUJKAS_clean_linker_0, # of connection points: 2
#     Edge 32, Type (0, 0), BuildingBlock: ZUJKAS_clean_linker_0, # of connection points: 2
#     Edge 33, Type (0, 0), BuildingBlock: ZUJKAS_clean_linker_0, # of connection points: 2
#     Edge 34, Type (0, 0), BuildingBlock: ZUJKAS_clean_linker_0, # of connection points: 2
#     Edge 35, Type (0, 0), BuildingBlock: ZUJKAS_clean_linker_0, # of connection points: 2
#     Edge 36, Type (0, 0), BuildingBlock: ZUJKAS_clean_linker_0, # of connection points: 2
#     Edge 37, Type (0, 0), BuildingBlock: ZUJKAS_clean_linker_0, # of connection points: 2
#     Edge 38, Type (0, 0), BuildingBlock: ZUJKAS_clean_linker_0, # of connection points: 2
#     Edge 39, Type (0, 0), BuildingBlock: ZUJKAS_clean_linker_0, # of connection points: 2
#     Edge 40, Type (0, 0), BuildingBlock: ZUJKAS_clean_linker_0, # of connection points: 2
#     Edge 41, Type (0, 0), BuildingBlock: ZUJKAS_clean_linker_0, # of connection points: 2
#     Edge 42, Type (0, 0), BuildingBlock: ZUJKAS_clean_linker_0, # of connection points: 2
#     Edge 43, Type (0, 0), BuildingBlock: ZUJKAS_clean_linker_0, # of connection points: 2
#     Edge 44, Type (0, 0), BuildingBlock: ZUJKAS_clean_linker_0, # of connection points: 2
#     Edge 45, Type (0, 0), BuildingBlock: ZUJKAS_clean_linker_0, # of connection points: 2
#     Edge 46, Type (0, 0), BuildingBlock: ZUJKAS_clean_linker_0, # of connection points: 2
#     Edge 47, Type (0, 0), BuildingBlock: ZUJKAS_clean_linker_0, # of connection points: 2
#     Edge 48, Type (0, 0), BuildingBlock: ZUJKAS_clean_linker_0, # of connection points: 2
#     Edge 49, Type (0, 0), BuildingBlock: ZUJKAS_clean_linker_0, # of connection points: 2
#     Edge 50, Type (0, 0), BuildingBlock: ZUJKAS_clean_linker_0, # of connection points: 2
#     Edge 51, Type (0, 0), BuildingBlock: ZUJKAS_clean_linker_0, # of connection points: 2
#     Edge 52, Type (0, 0), BuildingBlock: ZUJKAS_clean_linker_0, # of connection points: 2
#     Edge 53, Type (0, 0), BuildingBlock: ZUJKAS_clean_linker_0, # of connection points: 2
#     Edge 54, Type (0, 0), BuildingBlock: ZUJKAS_clean_linker_0, # of connection points: 2
#     Edge 55, Type (0, 0), BuildingBlock: ZUJKAS_clean_linker_0, # of connection points: 2
#     Edge 56, Type (0, 0), BuildingBlock: ZUJKAS_clean_linker_0, # of connection points: 2
#     Edge 57, Type (0, 0), BuildingBlock: ZUJKAS_clean_linker_0, # of connection points: 2
#     Edge 58, Type (0, 0), BuildingBlock: ZUJKAS_clean_linker_0, # of connection points: 2
#     Edge 59, Type (0, 0), BuildingBlock: ZUJKAS_clean_linker_0, # of connection points: 2
#     Edge 60, Type (0, 0), BuildingBlock: ZUJKAS_clean_linker_0, # of connection points: 2
#     Edge 61, Type (0, 0), BuildingBlock: ZUJKAS_clean_linker_0, # of connection points: 2
#     Edge 62, Type (0, 0), BuildingBlock: ZUJKAS_clean_linker_0, # of connection points: 2
#     Edge 63, Type (0, 0), BuildingBlock: ZUJKAS_clean_linker_0, # of connection points: 2
#     Edge 64, Type (0, 0), BuildingBlock: ZUJKAS_clean_linker_0, # of connection points: 2
#     Edge 65, Type (0, 0), BuildingBlock: ZUJKAS_clean_linker_0, # of connection points: 2
#     Edge 66, Type (0, 0), BuildingBlock: ZUJKAS_clean_linker_0, # of connection points: 2
#     Edge 67, Type (0, 0), BuildingBlock: ZUJKAS_clean_linker_0, # of connection points: 2
#     Edge 68, Type (0, 0), BuildingBlock: ZUJKAS_clean_linker_0, # of connection points: 2
#     Edge 69, Type (0, 0), BuildingBlock: ZUJKAS_clean_linker_0, # of connection points: 2
#     Edge 70, Type (0, 0), BuildingBlock: ZUJKAS_clean_linker_0, # of connection points: 2
#     Edge 71, Type (0, 0), BuildingBlock: ZUJKAS_clean_linker_0, # of connection points: 2
# Relax obj value: 0.232
# Max RMSD: 0.228
# Mean RMSD: 0.228
data_MOF--net-xfh--node1-HICVOG_clean_sbu_0--edge1-ZUJKAS_clean_linker_0
_symmetry_space_group_name_H-M    P1
_symmetry_Int_Tables_number       1
_symmetry_cell_setting            triclinic
loop_
_symmetry_equiv_pos_as_xyz
'x, y, z'
_cell_length_a     39.372691
_cell_length_b     39.415203
_cell_length_c     81.787692
_cell_angle_alpha  90.031772
_cell_angle_beta   89.89371
_cell_angle_gamma 90.130244
loop_
_atom_site_label
_atom_site_type_symbol
_atom_site_fract_x
_atom_site_fract_y
_atom_site_fract_z
_atom_type_partial_charge
Zn0 Zn 0.3648 0.04979 0.08667 0.0
C1 C 0.42043 0.10741 0.05642 0.0
N2 N 0.445 0.10051 0.06738 0.0
C3 C 0.42873 0.0837 0.07921 0.0
N4 N 0.39537 0.08124 0.07619 0.0
N5 N 0.38906 0.09878 0.06277 0.0
C6 C 0.32885 0.12668 0.03471 0.0
O7 O 0.33081 0.09469 0.03911 0.0
O8 O 0.3814 0.04067 0.10921 0.0
Zn9 Zn 0.34948 0.13194 0.06686 0.0
N10 N 0.36423 1.00858 0.07403 0.0
C11 C 0.3582 0.98197 0.04811 0.0
C12 C 0.36006 1.01124 0.05762 0.0
C13 C 0.36595 0.97782 0.08146 0.0
N14 N 0.35953 0.95118 0.0555 0.0
C15 C 0.36335 0.94813 0.07199 0.0
O16 O 0.30382 0.11238 0.07701 0.0
C17 C 0.29488 0.08634 0.08536 0.0
O18 O 0.31649 0.06382 0.08905 0.0
H19 H 0.35758 0.03593 0.05205 0.0
H20 H 0.36786 0.97674 0.09464 0.0
C21 C 0.34197 0.19875 0.08456 0.0
C22 C 0.35458 0.22607 0.09425 0.0
C23 C 0.4076 0.19742 0.09605 0.0
C24 C 0.39522 0.17101 0.0865 0.0
N25 N 0.36289 0.17185 0.08075 0.0
N26 N 0.38725 0.22408 0.09959 0.0
H27 H 0.31628 0.19919 0.0799 0.0
C28 C 0.38897 0.06587 0.11818 0.0
O29 O 0.38462 0.09676 0.11253 0.0
O30 O 0.33623 0.14952 0.04504 0.0
H31 H 0.41152 0.14999 0.08369 0.0
H32 H 0.35495 0.98367 0.03501 0.0
H33 H 0.43338 0.19683 0.1006 0.0
Zn34 Zn 0.68622 0.6025 0.31551 0.0
C35 C 0.73386 0.68141 0.32802 0.0
N36 N 0.71691 0.69781 0.31633 0.0
C37 C 0.71026 0.67354 0.30515 0.0
N38 N 0.71935 0.64217 0.31122 0.0
N39 N 0.73697 0.64832 0.32464 0.0
C40 C 0.75635 0.63899 0.36717 0.0
O41 O 0.72518 0.63053 0.36309 0.0
O42 O 0.66825 0.5891 0.29376 0.0
Zn43 Zn 0.76935 0.61829 0.33459 0.0
N44 N 0.64657 0.61542 0.32976 0.0
C45 C 0.62068 0.65994 0.34504 0.0
C46 C 0.64622 0.6483 0.33474 0.0
C47 C 0.62134 0.59343 0.33482 0.0
N48 N 0.59609 0.6383 0.35012 0.0
C49 C 0.59511 0.60514 0.34546 0.0
O50 O 0.75529 0.57014 0.33724 0.0
C51 C 0.73262 0.54846 0.33373 0.0
O52 O 0.70633 0.55716 0.32553 0.0
H53 H 0.66575 0.66554 0.33085 0.0
H54 H 0.62209 0.56722 0.33091 0.0
C55 C 0.841 0.61798 0.32929 0.0
C56 C 0.87088 0.61473 0.31996 0.0
C57 C 0.83741 0.61192 0.29586 0.0
C58 C 0.80792 0.61431 0.30524 0.0
N59 N 0.81034 0.6177 0.3217 0.0
N60 N 0.86809 0.61181 0.30342 0.0
H61 H 0.84179 0.61907 0.3425 0.0
C62 C 0.69109 0.58139 0.28347 0.0
O63 O 0.72311 0.58298 0.28793 0.0
O64 O 0.78012 0.63533 0.35684 0.0
H65 H 0.78327 0.61263 0.29954 0.0
H66 H 0.62045 0.6861 0.34906 0.0
H67 H 0.83592 0.60927 0.28271 0.0
Zn68 Zn 0.20109 1.01417 0.58345 0.0
C69 C 0.14859 0.95999 0.55224 0.0
N70 N 0.12485 0.95881 0.56419 0.0
C71 C 0.14058 0.97228 0.57718 0.0
N72 N 0.173 0.97986 0.57375 0.0
N73 N 0.17964 0.96782 0.55906 0.0
C74 C 0.25991 0.90659 0.53614 0.0
O75 O 0.2849 0.90776 0.54674 0.0
O76 O 0.18606 1.02396 0.60608 0.0
Zn77 Zn 0.21933 0.93442 0.56245 0.0
N78 N 0.1978 0.05537 0.57077 0.0
C79 C 0.1924 0.08427 0.54539 0.0
C80 C 0.19383 0.05415 0.55428 0.0
C81 C 0.20111 0.08547 0.57871 0.0
N82 N 0.19592 0.11437 0.5533 0.0
C83 C 0.20027 0.11597 0.5698 0.0
O84 O 0.26466 0.95494 0.57263 0.0
C85 C 0.27267 0.98107 0.58117 0.0
O86 O 0.25023 1.0026 0.5852 0.0
H87 H 0.19221 1.03006 0.54806 0.0
H88 H 0.20567 0.08528 0.59174 0.0
C89 C 0.22969 0.86863 0.58101 0.0
C90 C 0.21753 0.83897 0.58915 0.0
C91 C 0.16131 0.8603 0.58681 0.0
C92 C 0.17322 0.88861 0.57847 0.0
N93 N 0.20699 0.89292 0.57573 0.0
N94 N 0.1835 0.8363 0.59178 0.0
H95 H 0.25647 0.87169 0.57841 0.0
C96 C 0.1843 1.00045 0.61662 0.0
O97 O 0.19181 0.96922 0.61232 0.0
O98 O 0.2306 0.9169 0.54026 0.0
H99 H 0.15531 0.90655 0.57387 0.0
H100 H 0.18911 0.08373 0.53226 0.0
H101 H 0.1344 0.85701 0.58901 0.0
Zn102 Zn 0.8057 0.45023 0.83907 0.0
C103 C 0.85612 0.39948 0.80499 0.0
N104 N 0.85621 0.37435 0.81621 0.0
C105 C 0.84307 0.38877 0.82963 0.0
N106 N 0.83719 0.42191 0.82727 0.0
N107 N 0.84904 0.42986 0.81266 0.0
C108 C 0.87732 0.50307 0.78598 0.0
O109 O 0.84925 0.51339 0.79311 0.0
O110 O 0.80188 0.4341 0.8622 0.0
Zn111 Zn 0.88255 0.46943 0.81595 0.0
N112 N 0.76256 0.44875 0.82783 0.0
C113 C 0.73196 0.44608 0.80282 0.0
C114 C 0.76264 0.44711 0.81123 0.0
C115 C 0.733 0.45055 0.83637 0.0
N116 N 0.7024 0.44806 0.81131 0.0
C117 C 0.7019 0.45071 0.82791 0.0
O118 O 0.86385 0.5142 0.82715 0.0
C119 C 0.8388 0.52185 0.83645 0.0
O120 O 0.81778 0.49922 0.84088 0.0
H121 H 0.78632 0.44666 0.80457 0.0
H122 H 0.73399 0.45186 0.84957 0.0
C123 C 0.94916 0.4785 0.83377 0.0
C124 C 0.97884 0.4659 0.84166 0.0
C125 C 0.95742 0.40981 0.83821 0.0
C126 C 0.92895 0.42224 0.83025 0.0
N127 N 0.9248 0.45615 0.82816 0.0
N128 N 0.98144 0.4317 0.8436 0.0
H129 H 0.94589 0.50541 0.83175 0.0
C130 C 0.82915 0.43268 0.87044 0.0
O131 O 0.85788 0.44185 0.86352 0.0
O132 O 0.89696 0.48319 0.79362 0.0
H133 H 0.91056 0.4047 0.82558 0.0
H134 H 0.73161 0.44428 0.78962 0.0
H135 H 0.96068 0.3828 0.83993 0.0
Zn136 Zn 0.70242 1.00987 0.90715 0.0
C137 C 0.64756 0.95785 0.9396 0.0
N138 N 0.62273 0.96342 0.92858 0.0
C139 C 0.63885 0.97783 0.916 0.0
N140 N 0.67226 0.98041 0.91874 0.0
N141 N 0.67883 0.96562 0.93287 0.0
C142 C 0.75646 0.90378 0.95737 0.0
O143 O 0.78257 0.90349 0.94734 0.0
O144 O 0.68402 1.01877 0.88492 0.0
Zn145 Zn 0.71922 0.93319 0.93014 0.0
N146 N 0.70531 0.0517 0.91903 0.0
C147 C 0.71239 0.08138 0.94408 0.0
C148 C 0.70878 0.05101 0.93553 0.0
C149 C 0.70625 0.08131 0.91061 0.0
N150 N 0.71402 0.11102 0.93566 0.0
C151 C 0.71157 0.11193 0.91905 0.0
O152 O 0.76566 0.95291 0.92049 0.0
C153 C 0.77303 0.97527 0.90964 0.0
O154 O 0.75024 0.99482 0.90412 0.0
H155 H 0.70932 1.02704 0.94192 0.0
H156 H 0.70345 0.08059 0.89747 0.0
C157 C 0.7293 0.86717 0.91213 0.0
C158 C 0.71753 0.83903 0.90276 0.0
C159 C 0.66299 0.86472 0.90162 0.0
C160 C 0.67449 0.89185 0.91096 0.0
N161 N 0.70722 0.89295 0.91618 0.0
N162 N 0.68451 0.83912 0.89788 0.0
H163 H 0.75523 0.86807 0.91647 0.0
C164 C 0.68008 0.99444 0.87494 0.0
O165 O 0.68862 0.96358 0.87937 0.0
O166 O 0.72813 0.91521 0.95249 0.0
H167 H 0.65709 0.9117 0.91413 0.0
H168 H 0.71484 0.08136 0.95725 0.0
H169 H 0.63691 0.8638 0.89749 0.0
Zn170 Zn 0.37745 0.46778 0.67654 0.0
C171 C 0.33077 0.38797 0.66339 0.0
N172 N 0.34616 0.3719 0.67566 0.0
C173 C 0.35245 0.39668 0.68662 0.0
N174 N 0.34424 0.4279 0.68006 0.0
N175 N 0.32815 0.42133 0.66623 0.0
C176 C 0.31784 0.42849 0.62353 0.0
O177 O 0.34811 0.43309 0.62991 0.0
O178 O 0.39481 0.4804 0.69853 0.0
Zn179 Zn 0.29782 0.45134 0.65487 0.0
N180 N 0.41768 0.45486 0.66271 0.0
C181 C 0.44468 0.40995 0.64816 0.0
C182 C 0.41802 0.42204 0.65764 0.0
C183 C 0.44377 0.47649 0.65836 0.0
N184 N 0.4705 0.43104 0.64408 0.0
C185 C 0.47143 0.46417 0.64879 0.0
O186 O 0.31164 0.49982 0.65294 0.0
C187 C 0.3332 0.52192 0.65736 0.0
O188 O 0.35825 0.51352 0.66647 0.0
H189 H 0.39779 0.40509 0.66096 0.0
H190 H 0.44334 0.50253 0.66254 0.0
C191 C 0.22528 0.4511 0.65789 0.0
C192 C 0.19438 0.4531 0.66651 0.0
C193 C 0.22509 0.45364 0.69149 0.0
C194 C 0.25557 0.45303 0.68283 0.0
N195 N 0.25503 0.45122 0.66626 0.0
N196 N 0.19531 0.45388 0.68316 0.0
H197 H 0.22597 0.44979 0.64468 0.0
C198 C 0.37245 0.48527 0.70946 0.0
O199 O 0.34025 0.48144 0.70567 0.0
O200 O 0.29164 0.43476 0.63207 0.0
H201 H 0.27953 0.4545 0.68917 0.0
H202 H 0.44498 0.3838 0.64413 0.0
H203 H 0.22509 0.45471 0.7047 0.0
Zn204 Zn 0.849 0.13498 0.42535 0.0
C205 C 0.92637 0.08453 0.4112 0.0
N206 N 0.94436 0.10188 0.42216 0.0
C207 C 0.92122 0.11088 0.43354 0.0
N208 N 0.88898 0.10206 0.42844 0.0
N209 N 0.89339 0.08336 0.41516 0.0
C210 C 0.88082 0.0646 0.37304 0.0
O211 O 0.87364 0.0957 0.37767 0.0
O212 O 0.83753 0.15277 0.44744 0.0
Zn213 Zn 0.86185 0.05175 0.40581 0.0
N214 N 0.86158 0.17451 0.41111 0.0
C215 C 0.90477 0.19897 0.39436 0.0
C216 C 0.89311 0.17295 0.40437 0.0
C217 C 0.84068 0.20165 0.40778 0.0
N218 N 0.88445 0.22588 0.3913 0.0
C219 C 0.85252 0.22849 0.39758 0.0
O220 O 0.81435 0.06718 0.40348 0.0
C221 C 0.79322 0.09007 0.40725 0.0
O222 O 0.80252 0.11575 0.41578 0.0
H223 H 0.9093 0.15161 0.40668 0.0
H224 H 0.81558 0.20258 0.41317 0.0
C225 C 0.86059 0.98064 0.41195 0.0
C226 C 0.86002 0.95128 0.42169 0.0
C227 C 0.8616 0.9858 0.44546 0.0
C228 C 0.86207 1.01481 0.43572 0.0
N229 N 0.86159 1.0116 0.41919 0.0
N230 N 0.86034 0.95477 0.43825 0.0
H231 H 0.85938 0.97916 0.39876 0.0
C232 C 0.82948 0.13036 0.45788 0.0
O233 O 0.82972 0.09829 0.45349 0.0
O234 O 0.8769 0.04043 0.38312 0.0
H235 H 0.86249 0.0397 0.44123 0.0
H236 H 0.92992 0.19783 0.38905 0.0
H237 H 0.86188 0.98791 0.45865 0.0
Zn238 Zn 0.27317 0.61592 0.15921 0.0
C239 C 0.21316 0.67174 0.18808 0.0
N240 N 0.2206 0.69585 0.17693 0.0
C241 C 0.2383 0.67925 0.16554 0.0
N242 N 0.24087 0.64617 0.16901 0.0
N243 N 0.22238 0.64022 0.1822 0.0
C244 C 0.19107 0.57039 0.20802 0.0
O245 O 0.22153 0.56342 0.20236 0.0
O246 O 0.28365 0.63281 0.13689 0.0
Zn247 Zn 0.18932 0.60077 0.17755 0.0
N248 N 0.31376 0.6156 0.17221 0.0
C249 C 0.34044 0.60988 0.1981 0.0
C250 C 0.31108 0.61189 0.18865 0.0
C251 C 0.34453 0.61667 0.16471 0.0
N252 N 0.37126 0.61048 0.19061 0.0
C253 C 0.37424 0.61381 0.17409 0.0
O254 O 0.20915 0.55538 0.16726 0.0
C255 C 0.23596 0.54631 0.15951 0.0
O256 O 0.25922 0.56768 0.15645 0.0
H257 H 0.28633 0.60968 0.19428 0.0
H258 H 0.34554 0.61806 0.15151 0.0
C259 C 0.12298 0.59331 0.15969 0.0
C260 C 0.09592 0.60562 0.14982 0.0
C261 C 0.12499 0.65841 0.14761 0.0
C262 C 0.15121 0.6463 0.15734 0.0
N263 N 0.14998 0.61425 0.16341 0.0
N264 N 0.09817 0.63804 0.14419 0.0
H265 H 0.12223 0.56782 0.16459 0.0
C266 C 0.25902 0.63569 0.12702 0.0
O267 O 0.22839 0.6267 0.13178 0.0
O268 O 0.17079 0.58722 0.19917 0.0
H269 H 0.17237 0.66258 0.16003 0.0
H270 H 0.33876 0.60696 0.21123 0.0
H271 H 0.12586 0.68398 0.14282 0.0
Zn272 Zn 0.8578 0.5488 0.58331 0.0
C273 C 0.91653 0.60843 0.55542 0.0
N274 N 0.94013 0.6003 0.56668 0.0
C275 C 0.92285 0.58228 0.57775 0.0
N276 N 0.88976 0.58034 0.57402 0.0
N277 N 0.88462 0.59947 0.56099 0.0
C278 C 0.82237 0.6332 0.53378 0.0
O279 O 0.81661 0.60178 0.53841 0.0
O280 O 0.87176 0.53837 0.60607 0.0
Zn281 Zn 0.84546 0.63299 0.56543 0.0
N282 N 0.85734 0.50819 0.57029 0.0
C283 C 0.8549 0.48123 0.54431 0.0
C284 C 0.85587 0.51068 0.55376 0.0
C285 C 0.85654 0.47758 0.57785 0.0
N286 N 0.85384 0.45054 0.55184 0.0
C287 C 0.85409 0.44783 0.56844 0.0
O288 O 0.79841 0.61347 0.57414 0.0
C289 C 0.78867 0.58662 0.58164 0.0
O290 O 0.80979 0.5635 0.58504 0.0
H291 H 0.85493 0.53535 0.54804 0.0
H292 H 0.85744 0.47668 0.59105 0.0
C293 C 0.83659 0.69635 0.58542 0.0
C294 C 0.84687 0.72013 0.59757 0.0
C295 C 0.89945 0.69087 0.59981 0.0
C296 C 0.88917 0.66761 0.58801 0.0
N297 N 0.85801 0.67025 0.58103 0.0
N298 N 0.87819 0.71619 0.60431 0.0
H299 H 0.81168 0.69801 0.57992 0.0
C300 C 0.87662 0.56325 0.61564 0.0
O301 O 0.87178 0.59425 0.61023 0.0
O302 O 0.83529 0.65381 0.54393 0.0
H303 H 0.90593 0.64731 0.58464 0.0
H304 H 0.85417 0.48276 0.53111 0.0
H305 H 0.92415 0.68865 0.60547 0.0
Zn306 Zn 0.18574 0.0996 0.81676 0.0
C307 C 0.23619 0.17805 0.82924 0.0
N308 N 0.21896 0.19488 0.81779 0.0
C309 C 0.21076 0.17074 0.80678 0.0
N310 N 0.21926 0.13911 0.81276 0.0
N311 N 0.2378 0.14478 0.82594 0.0
C312 C 0.25194 0.135 0.86786 0.0
O313 O 0.22122 0.13243 0.86173 0.0
O314 O 0.16789 0.08781 0.7948 0.0
Zn315 Zn 0.26891 0.11352 0.83601 0.0
N316 N 0.14666 0.11225 0.8314 0.0
C317 C 0.12314 0.15552 0.84831 0.0
C318 C 0.14765 0.14446 0.83729 0.0
C319 C 0.12108 0.09041 0.83619 0.0
N320 N 0.09829 0.13395 0.8532 0.0
C321 C 0.096 0.10149 0.84759 0.0
O322 O 0.25438 0.06551 0.83764 0.0
C323 C 0.23155 0.04409 0.83409 0.0
O324 O 0.20498 0.05332 0.82628 0.0
H325 H 0.16762 0.16151 0.83364 0.0
H326 H 0.12079 0.06467 0.8316 0.0
C327 C 0.34103 0.1122 0.83121 0.0
C328 C 0.37094 0.10952 0.82186 0.0
C329 C 0.33767 0.10924 0.79766 0.0
C330 C 0.30815 0.11116 0.80703 0.0
N331 N 0.31046 0.11303 0.82356 0.0
N332 N 0.36826 0.10814 0.80527 0.0
H333 H 0.34169 0.11217 0.84443 0.0
C334 C 0.18939 0.07216 0.78605 0.0
O335 O 0.21941 0.06534 0.79222 0.0
O336 O 0.27742 0.12801 0.85895 0.0
H337 H 0.28352 0.11034 0.80127 0.0
H338 H 0.124 0.1811 0.85309 0.0
H339 H 0.33626 0.1078 0.78447 0.0
Zn340 Zn 0.7062 0.52576 0.08435 0.0
C341 C 0.65122 0.46726 0.05427 0.0
N342 N 0.62665 0.47357 0.06535 0.0
C343 C 0.64268 0.49058 0.07716 0.0
N344 N 0.67596 0.49379 0.074 0.0
N345 N 0.68249 0.47642 0.06051 0.0
C346 C 0.76544 0.41489 0.03983 0.0
O347 O 0.7872 0.41313 0.05195 0.0
O348 O 0.69055 0.53469 0.1071 0.0
Zn349 Zn 0.72226 0.44336 0.06451 0.0
N350 N 0.70676 0.56686 0.07162 0.0
C351 C 0.71337 0.5928 0.04557 0.0
C352 C 0.71081 0.56378 0.0552 0.0
C353 C 0.70581 0.59783 0.07892 0.0
N354 N 0.71292 0.62376 0.05283 0.0
C355 C 0.70924 0.62724 0.06931 0.0
O356 O 0.76748 0.46323 0.07495 0.0
C357 C 0.77617 0.48941 0.08324 0.0
O358 O 0.75443 0.51194 0.08676 0.0
H359 H 0.71282 0.53891 0.04973 0.0
H360 H 0.70401 0.59929 0.09211 0.0
C361 C 0.73009 0.3766 0.08254 0.0
C362 C 0.71734 0.34924 0.0922 0.0
C363 C 0.66379 0.37709 0.09325 0.0
C364 C 0.67631 0.4035 0.08374 0.0
N365 N 0.70897 0.40312 0.07836 0.0
N366 N 0.68435 0.35084 0.09714 0.0
H367 H 0.75606 0.37648 0.07822 0.0
C368 C 0.68417 0.50922 0.11609 0.0
O369 O 0.68777 0.47849 0.1101 0.0
O370 O 0.73572 0.4261 0.0425 0.0
H371 H 0.65983 0.42415 0.08067 0.0
H372 H 0.71656 0.59075 0.03246 0.0
H373 H 0.63775 0.37736 0.09749 0.0
Zn374 Zn 0.29797 0.95873 0.33569 0.0
C375 C 0.35525 0.90188 0.30586 0.0
N376 N 0.34737 0.87769 0.31691 0.0
C377 C 0.33042 0.89446 0.3285 0.0
N378 N 0.32872 0.92772 0.32527 0.0
N379 N 0.34665 0.93349 0.31187 0.0
C380 C 0.37952 0.98639 0.28216 0.0
O381 O 0.34699 0.9815 0.28491 0.0
O382 O 0.28823 0.94193 0.35819 0.0
Zn383 Zn 0.37953 0.97348 0.31562 0.0
N384 N 0.25708 0.96024 0.32288 0.0
C385 C 0.2306 0.96224 0.29679 0.0
C386 C 0.25986 0.96168 0.30635 0.0
C387 C 0.22627 0.96067 0.33033 0.0
N388 N 0.19972 0.96277 0.3042 0.0
C389 C 0.19667 0.96249 0.32078 0.0
O390 O 0.35971 1.02002 0.32472 0.0
C391 C 0.33495 1.02835 0.33408 0.0
O392 O 0.31322 1.00638 0.33845 0.0
H393 H 0.28465 0.96268 0.30071 0.0
H394 H 0.22503 0.95971 0.34354 0.0
C395 C 0.44301 0.98325 0.33541 0.0
C396 C 0.46721 0.97308 0.34734 0.0
C397 C 0.4392 0.9197 0.3492 0.0
C398 C 0.41554 0.92984 0.3376 0.0
N399 N 0.41731 0.96136 0.33094 0.0
N400 N 0.46411 0.94142 0.35381 0.0
H401 H 0.44405 1.00841 0.33014 0.0
C402 C 0.31337 0.93731 0.36761 0.0
O403 O 0.34405 0.945 0.36242 0.0
O404 O 0.40016 0.98428 0.294 0.0
H405 H 0.39567 0.91261 0.33412 0.0
H406 H 0.23241 0.96291 0.28359 0.0
H407 H 0.43765 0.89471 0.35462 0.0
Zn408 Zn 0.21826 0.44092 0.42758 0.0
C409 C 0.13879 0.48821 0.41557 0.0
N410 N 0.12262 0.47087 0.42725 0.0
C411 C 0.14709 0.46424 0.43831 0.0
N412 N 0.17842 0.4736 0.43214 0.0
N413 N 0.17201 0.4913 0.41877 0.0
C414 C 0.1816 0.50556 0.37633 0.0
O415 O 0.19044 0.47537 0.38162 0.0
O416 O 0.23174 0.42119 0.44896 0.0
Zn417 Zn 0.20208 0.52286 0.40817 0.0
N418 N 0.20565 0.40251 0.41259 0.0
C419 C 0.16292 0.37946 0.39517 0.0
C420 C 0.17361 0.40355 0.40647 0.0
C421 C 0.22757 0.3771 0.40782 0.0
N422 N 0.18463 0.35485 0.39028 0.0
C423 C 0.21684 0.35244 0.39618 0.0
O424 O 0.25059 0.5096 0.40559 0.0
C425 C 0.27252 0.48746 0.40937 0.0
O426 O 0.2639 0.46145 0.41783 0.0
H427 H 0.15638 0.42317 0.41018 0.0
H428 H 0.25314 0.37662 0.41264 0.0
C429 C 0.2024 0.59456 0.41221 0.0
C430 C 0.20438 0.62506 0.42107 0.0
C431 C 0.20421 0.59361 0.4458 0.0
C432 C 0.20377 0.56343 0.4369 0.0
N433 N 0.20214 0.56457 0.42034 0.0
N434 N 0.20472 0.62369 0.4377 0.0
H435 H 0.20155 0.59444 0.39899 0.0
C436 C 0.24071 0.44269 0.45966 0.0
O437 O 0.23939 0.47516 0.45607 0.0
O438 O 0.18487 0.531 0.38571 0.0
H439 H 0.20528 0.53927 0.44305 0.0
H440 H 0.13749 0.38044 0.3902 0.0
H441 H 0.20504 0.59315 0.45902 0.0
Zn442 Zn 0.87853 0.97501 0.17789 0.0
C443 C 0.82956 0.89681 0.16454 0.0
N444 N 0.84629 0.8799 0.17614 0.0
C445 C 0.85352 0.90387 0.18739 0.0
N446 N 0.84494 0.93551 0.18148 0.0
N447 N 0.82733 0.92996 0.168 0.0
C448 C 0.80776 0.93978 0.12594 0.0
O449 O 0.83913 0.94631 0.13045 0.0
O450 O 0.89873 0.98393 0.19984 0.0
Zn451 Zn 0.7955 0.9609 0.15841 0.0
N452 N 0.91728 0.96236 0.16303 0.0
C453 C 0.94067 0.91912 0.14604 0.0
C454 C 0.9151 0.93095 0.15627 0.0
C455 C 0.9448 0.9829 0.1596 0.0
N456 N 0.96793 0.93907 0.14287 0.0
C457 C 0.9713 0.97081 0.14924 0.0
O458 O 0.81067 1.0089 0.15615 0.0
C459 C 0.8331 1.03053 0.16012 0.0
O460 O 0.85889 1.02161 0.16866 0.0
H461 H 0.89373 0.91489 0.15882 0.0
H462 H 0.9464 1.00784 0.16508 0.0
C463 C 0.72413 0.95967 0.16512 0.0
C464 C 0.69516 0.96285 0.17508 0.0
C465 C 0.73081 0.96898 0.19828 0.0
C466 C 0.75941 0.96654 0.18828 0.0
N467 N 0.75548 0.96171 0.17195 0.0
N468 N 0.69943 0.96748 0.19145 0.0
H469 H 0.72199 0.95715 0.15199 0.0
C470 C 0.91111 1.01214 0.20441 0.0
O471 O 0.91109 0.03802 0.19429 0.0
O472 O 0.78373 0.94482 0.13601 0.0
H473 H 0.78457 0.96911 0.1934 0.0
H474 H 0.93898 0.89406 0.14069 0.0
H475 H 0.73352 0.97281 0.21131 0.0
Zn476 Zn 0.36359 0.55174 0.90739 0.0
C477 C 0.42067 0.60897 0.93721 0.0
N478 N 0.44494 0.60096 0.92622 0.0
C479 C 0.42818 0.58391 0.91466 0.0
N480 N 0.39484 0.58224 0.91789 0.0
N481 N 0.38904 0.60041 0.93119 0.0
C482 C 0.32298 0.63122 0.95849 0.0
O483 O 0.3162 0.60064 0.95294 0.0
O484 O 0.37895 0.54334 0.88453 0.0
Zn485 Zn 0.34966 0.63372 0.92734 0.0
N486 N 0.3627 0.50986 0.91941 0.0
C487 C 0.36031 0.48058 0.94477 0.0
C488 C 0.36123 0.51085 0.93598 0.0
C489 C 0.36228 0.47996 0.91118 0.0
N490 N 0.35967 0.45061 0.93657 0.0
C491 C 0.3602 0.44934 0.91993 0.0
O492 O 0.30316 0.61473 0.91782 0.0
C493 C 0.29403 0.58874 0.9095 0.0
O494 O 0.31558 0.56631 0.90561 0.0
H495 H 0.36044 0.53497 0.94224 0.0
H496 H 0.36353 0.48032 0.89797 0.0
C497 C 0.34183 0.6994 0.90909 0.0
C498 C 0.35397 0.72614 0.89892 0.0
C499 C 0.40702 0.69753 0.89693 0.0
C500 C 0.39506 0.67165 0.90695 0.0
N501 N 0.36294 0.67277 0.913 0.0
N502 N 0.38644 0.72391 0.89326 0.0
H503 H 0.31633 0.7 0.91403 0.0
C504 C 0.3872 0.5682 0.87549 0.0
O505 O 0.38538 0.5992 0.88134 0.0
O506 O 0.33817 0.65211 0.94922 0.0
H507 H 0.4115 0.6508 0.90985 0.0
H508 H 0.3595 0.48088 0.95799 0.0
H509 H 0.43262 0.69673 0.89212 0.0
Zn510 Zn 0.76576 0.11512 0.65587 0.0
C511 C 0.70737 0.17367 0.68456 0.0
N512 N 0.71591 0.19707 0.67325 0.0
C513 C 0.73327 0.17958 0.66212 0.0
N514 N 0.73476 0.14654 0.66588 0.0
N515 N 0.71632 0.14161 0.67924 0.0
C516 C 0.68897 0.07757 0.70765 0.0
O517 O 0.71998 0.07359 0.70198 0.0
O518 O 0.7751 0.1293 0.63286 0.0
Zn519 Zn 0.6835 0.10127 0.67608 0.0
N520 N 0.8074 0.11537 0.66818 0.0
C521 C 0.83771 0.12499 0.69288 0.0
C522 C 0.80749 0.12567 0.68403 0.0
C523 C 0.83625 0.10456 0.66075 0.0
N524 N 0.86658 0.11397 0.68551 0.0
C525 C 0.86682 0.10386 0.66958 0.0
O526 O 0.70271 0.05473 0.6665 0.0
C527 C 0.72842 0.0458 0.65789 0.0
O528 O 0.75086 0.06738 0.65398 0.0
H529 H 0.78429 0.13412 0.68975 0.0
H530 H 0.83498 0.09588 0.64822 0.0
C531 C 0.61693 0.09194 0.65835 0.0
C532 C 0.58969 0.10362 0.64839 0.0
C533 C 0.61786 0.15686 0.64599 0.0
C534 C 0.64424 0.14538 0.65578 0.0
N535 N 0.64354 0.11343 0.66201 0.0
N536 N 0.59142 0.13597 0.64263 0.0
H537 H 0.61662 0.06652 0.66332 0.0
C538 C 0.75049 0.13681 0.62354 0.0
O539 O 0.71924 0.13439 0.6291 0.0
O540 O 0.66649 0.08992 0.69831 0.0
H541 H 0.66517 0.16205 0.65836 0.0
H542 H 0.83819 0.13298 0.70554 0.0
H543 H 0.61832 0.18234 0.64108 0.0
H544 H 0.2949 0.51875 0.14808 0.0
H545 H 0.30564 0.46214 0.13759 0.0
H546 H 0.20151 0.43431 0.14686 0.0
H547 H 0.19027 0.49188 0.1575 0.0
H548 H 0.29939 0.39969 0.15357 0.0
H549 H 0.21608 0.40368 0.09874 0.0
H550 H 0.22847 0.44165 0.1096 0.0
H551 H 0.197 0.41385 0.11815 0.0
C552 C 0.27399 0.50086 0.14793 0.0
C553 C 0.24153 0.5104 0.15368 0.0
C554 C 0.28031 0.4682 0.14188 0.0
C555 C 0.25446 0.44368 0.14116 0.0
C556 C 0.22192 0.45276 0.14699 0.0
H557 H 0.28503 0.234 0.10087 0.0
H558 H 0.2569 0.28462 0.11241 0.0
C559 C 0.21555 0.4857 0.15322 0.0
C560 C 0.26264 0.40878 0.13465 0.0
H561 H 0.24966 0.35482 0.10223 0.0
C562 C 0.28816 0.38983 0.14243 0.0
C563 C 0.24807 0.3954 0.12014 0.0
C564 C 0.22101 0.41463 0.11103 0.0
C565 C 0.29998 0.35876 0.13601 0.0
C566 C 0.28668 0.34615 0.12107 0.0
C567 C 0.26011 0.36429 0.11361 0.0
C568 C 0.30218 0.31587 0.11257 0.0
C569 C 0.32699 0.33979 0.14532 0.0
C570 C 0.33664 0.31663 0.10814 0.0
C571 C 0.35263 0.28796 0.10156 0.0
C572 C 0.33478 0.25734 0.09896 0.0
C573 C 0.2997 0.257 0.10255 0.0
C574 C 0.28359 0.28598 0.10926 0.0
H575 H 0.32664 0.34646 0.15852 0.0
H576 H 0.32367 0.31191 0.14409 0.0
H577 H 0.35234 0.34674 0.14039 0.0
H578 H 0.35155 0.3394 0.11009 0.0
H579 H 0.3795 0.28966 0.09879 0.0
H580 H 0.29785 0.5436 0.39398 0.0
H581 H 0.35425 0.55383 0.38302 0.0
H582 H 0.38636 0.45523 0.3995 0.0
H583 H 0.32917 0.44473 0.41089 0.0
H584 H 0.43546 0.5035 0.40536 0.0
H585 H 0.39408 0.51704 0.34131 0.0
H586 H 0.37111 0.54524 0.35448 0.0
H587 H 0.36658 0.50004 0.35699 0.0
C588 C 0.31664 0.52377 0.39532 0.0
C589 C 0.30836 0.49306 0.40331 0.0
C590 C 0.34913 0.52969 0.38885 0.0
C591 C 0.37477 0.50509 0.38993 0.0
C592 C 0.3671 0.47463 0.39827 0.0
H593 H 0.56335 0.54729 0.33233 0.0
H594 H 0.51263 0.51784 0.34294 0.0
C595 C 0.33429 0.46862 0.40482 0.0
C596 C 0.40942 0.51208 0.38264 0.0
H597 H 0.44877 0.54098 0.34781 0.0
C598 C 0.43833 0.51124 0.39271 0.0
C599 C 0.41388 0.5216 0.36601 0.0
C600 C 0.38481 0.52069 0.35403 0.0
C601 C 0.47074 0.52134 0.38694 0.0
C602 C 0.47467 0.53336 0.37065 0.0
C603 C 0.44613 0.53235 0.36033 0.0
C604 C 0.50727 0.54931 0.36451 0.0
C605 C 0.50051 0.51902 0.39846 0.0
C606 C 0.52159 0.57693 0.3729 0.0
C607 C 0.55055 0.59362 0.36692 0.0
C608 C 0.56643 0.58365 0.35218 0.0
C609 C 0.55247 0.55559 0.34381 0.0
C610 C 0.52314 0.53882 0.34984 0.0
H611 H 0.49652 0.49872 0.4077 0.0
H612 H 0.52454 0.51386 0.39179 0.0
H613 H 0.50322 0.54339 0.40514 0.0
H614 H 0.50976 0.5864 0.38395 0.0
H615 H 0.56018 0.61501 0.37383 0.0
H616 H 0.20005 0.77247 0.58848 0.0
H617 H 0.22932 0.72386 0.60003 0.0
H618 H 0.31303 0.78818 0.61399 0.0
H619 H 0.28324 0.83777 0.60242 0.0
H620 H 0.29098 0.69432 0.59295 0.0
H621 H 0.28998 0.74002 0.65731 0.0
H622 H 0.2644 0.75951 0.64162 0.0
H623 H 0.30928 0.76741 0.64235 0.0
C624 C 0.22481 0.77653 0.5939 0.0
C625 C 0.23906 0.80939 0.59448 0.0
C626 C 0.24162 0.74845 0.60054 0.0
C627 C 0.27329 0.752 0.60822 0.0
C628 C 0.28834 0.78459 0.60844 0.0
H629 H 0.37468 0.57944 0.6607 0.0
H630 H 0.36514 0.63648 0.64905 0.0
C631 C 0.27148 0.81297 0.6016 0.0
C632 C 0.28961 0.72118 0.61585 0.0
H633 H 0.31026 0.68474 0.65267 0.0
C634 C 0.29556 0.69252 0.606 0.0
C635 C 0.29588 0.71838 0.63289 0.0
C636 C 0.28942 0.74779 0.64426 0.0
C637 C 0.3065 0.66133 0.61263 0.0
C638 C 0.31111 0.65796 0.62976 0.0
C639 C 0.30672 0.687 0.63958 0.0
C640 C 0.3172 0.62386 0.63762 0.0
C641 C 0.31263 0.632 0.60115 0.0
C642 C 0.29328 0.59776 0.63554 0.0
C643 C 0.29861 0.56542 0.64215 0.0
C644 C 0.32807 0.55771 0.65124 0.0
C645 C 0.35177 0.58412 0.65377 0.0
C646 C 0.3463 0.61684 0.64709 0.0
H647 H 0.31883 0.64098 0.58862 0.0
H648 H 0.33366 0.61565 0.60554 0.0
H649 H 0.28923 0.61634 0.60037 0.0
H650 H 0.27023 0.60237 0.62868 0.0
H651 H 0.27937 0.54626 0.63997 0.0
H652 H 0.23789 0.63238 0.91045 0.0
H653 H 0.1798 0.62069 0.9004 0.0
H654 H 0.21086 0.5205 0.88569 0.0
H655 H 0.26782 0.53157 0.89557 0.0
H656 H 0.15605 0.59928 0.86764 0.0
H657 H 0.12691 0.50229 0.91445 0.0
H658 H 0.16116 0.53247 0.91676 0.0
H659 H 0.16685 0.49504 0.90445 0.0
C660 C 0.23225 0.60782 0.90517 0.0
C661 C 0.25791 0.58299 0.90398 0.0
C662 C 0.199 0.60118 0.89934 0.0
C663 C 0.19057 0.56945 0.89241 0.0
C664 C 0.21624 0.54496 0.89117 0.0
H665 H 0.04442 0.446 0.84541 0.0
H666 H 0.09166 0.47576 0.85792 0.0
C667 C 0.24914 0.55153 0.89684 0.0
C668 C 0.15538 0.56102 0.88639 0.0
H669 H 0.09308 0.50064 0.89012 0.0
C670 C 0.1419 0.57818 0.87277 0.0
C671 C 0.1366 0.53348 0.89299 0.0
C672 C 0.14842 0.51494 0.90807 0.0
C673 C 0.1115 0.56724 0.86507 0.0
C674 C 0.09379 0.53853 0.87119 0.0
C675 C 0.10649 0.52251 0.88527 0.0
C676 C 0.06429 0.52229 0.86239 0.0
C677 C 0.09951 0.5853 0.84992 0.0
C678 C 1.0326 0.53844 0.86035 0.0
C679 C 1.00484 0.52116 0.85308 0.0
C680 C 1.00815 0.48724 0.84775 0.0
C681 C 0.04031 0.47184 0.84945 0.0
C682 C 0.06768 0.48893 0.85664 0.0
H683 H 0.11843 0.60405 0.84539 0.0
H684 H 0.09414 0.56673 0.84003 0.0
H685 H 0.07554 0.59892 0.85267 0.0
H686 H 1.02896 0.56403 0.86483 0.0
H687 H 0.98061 0.53394 0.85224 0.0
H688 H 0.78402 0.54513 0.85357 0.0
H689 H 0.7734 0.60115 0.86472 0.0
H690 H 0.86897 0.63647 0.84533 0.0
H691 H 0.87977 0.57972 0.83373 0.0
H692 H 0.80773 0.63603 0.8876 0.0
H693 H 0.80609 0.7118 0.83032 0.0
H694 H 0.80461 0.66603 0.83021 0.0
H695 H 0.84403 0.68771 0.83392 0.0
C696 C 0.80296 0.56464 0.85151 0.0
C697 C 0.83291 0.55743 0.84264 0.0
C698 C 0.79675 0.59695 0.85799 0.0
C699 C 0.82009 0.62358 0.85588 0.0
C700 C 0.85008 0.61677 0.84696 0.0
H701 H 0.78577 0.83492 0.89333 0.0
H702 H 0.81573 0.78445 0.88269 0.0
C703 C 0.85637 0.58413 0.84037 0.0
C704 C 0.8127 0.65767 0.86355 0.0
H705 H 0.79556 0.74117 0.85491 0.0
C706 C 0.80543 0.65901 0.8804 0.0
C707 C 0.80976 0.68808 0.85435 0.0
C708 C 0.81625 0.68853 0.83618 0.0
C709 C 0.79451 0.68913 0.88812 0.0
C710 C 0.79016 0.71914 0.87882 0.0
C711 C 0.79885 0.71834 0.86212 0.0
C712 C 0.77323 0.75013 0.88589 0.0
C713 C 0.78719 0.6884 0.90623 0.0
C714 C 0.73946 0.74797 0.89133 0.0
C715 C 0.72244 0.77658 0.89734 0.0
C716 C 0.73851 0.80854 0.89823 0.0
C717 C 0.77267 0.81075 0.89311 0.0
C718 C 0.78973 0.7819 0.88686 0.0
H719 H 0.80117 0.66758 0.9124 0.0
H720 H 0.79414 0.71285 0.9121 0.0
H721 H 0.75962 0.68402 0.90816 0.0
H722 H 0.72583 0.72412 0.89057 0.0
H723 H 0.69618 0.77369 0.90108 0.0
H724 H 0.47757 0.53385 0.64197 0.0
H725 H 0.52715 0.56318 0.62992 0.0
H726 H 0.58391 0.46998 0.63142 0.0
H727 H 0.53534 0.44089 0.64332 0.0
H728 H 0.59911 0.57056 0.6399 0.0
H729 H 0.58693 0.4967 0.58268 0.0
H730 H 0.55304 0.49946 0.59752 0.0
H731 H 0.58767 0.47046 0.6006 0.0
C732 C 0.50078 0.51974 0.64 0.0
C733 C 0.502 0.48472 0.64357 0.0
C734 C 0.52916 0.53655 0.63301 0.0
C735 C 0.55931 0.51872 0.62936 0.0
C736 C 0.56093 0.48431 0.63369 0.0
H737 H 0.75964 0.52687 0.59094 0.0
H738 H 0.70306 0.51597 0.60156 0.0
C739 C 0.53289 0.46766 0.64058 0.0
C740 C 0.58896 0.53489 0.6206 0.0
H741 H 0.64036 0.52412 0.58712 0.0
C742 C 0.60779 0.56088 0.62821 0.0
C743 C 0.60053 0.52251 0.60529 0.0
C744 C 0.58083 0.49598 0.59594 0.0
C745 C 0.63863 0.5732 0.62142 0.0
C746 C 0.65099 0.55956 0.60648 0.0
C747 C 0.63128 0.53467 0.59857 0.0
C748 C 0.68572 0.56779 0.59966 0.0
C749 C 0.65872 0.59943 0.63073 0.0
C750 C 0.69539 0.60073 0.59465 0.0
C751 C 0.72833 0.60722 0.58835 0.0
C752 C 0.75243 0.58092 0.58701 0.0
C753 C 0.74221 0.54802 0.5918 0.0
C754 C 0.70956 0.54161 0.59792 0.0
H755 H 0.64874 0.60328 0.6433 0.0
H756 H 0.68584 0.59192 0.63151 0.0
H757 H 0.65747 0.62402 0.62415 0.0
H758 H 0.67746 0.62143 0.59553 0.0
H759 H 0.7351 0.63284 0.58484 0.0
H760 H 0.87762 0.29153 0.39175 0.0
H761 H 0.84891 0.3412 0.38095 0.0
H762 H 0.75361 0.28725 0.38176 0.0
H763 H 0.78252 0.23684 0.39281 0.0
H764 H 0.81688 0.34583 0.35175 0.0
H765 H 0.72573 0.37854 0.40125 0.0
H766 H 0.76078 0.34983 0.40445 0.0
H767 H 0.72364 0.33576 0.39367 0.0
C768 C 0.85042 0.2901 0.38987 0.0
C769 C 0.83258 0.25982 0.39324 0.0
C770 C 0.83396 0.31876 0.38362 0.0
C771 C 0.79891 0.31846 0.38047 0.0
C772 C 0.78055 0.28864 0.38427 0.0
H773 H 0.68797 0.49305 0.33448 0.0
H774 H 0.69966 0.43531 0.34484 0.0
C775 C 0.79716 0.25969 0.39065 0.0
C776 C 0.78292 0.34887 0.37235 0.0
H777 H 0.72584 0.41368 0.37789 0.0
C778 C 0.79675 0.36038 0.35746 0.0
C779 C 0.75638 0.36809 0.37958 0.0
C780 C 0.74081 0.35772 0.39568 0.0
C781 C 0.78572 0.39062 0.34995 0.0
C782 C 0.76027 0.41063 0.35751 0.0
C783 C 0.74529 0.3985 0.37203 0.0
C784 C 0.75192 0.44565 0.35137 0.0
C785 C 0.80193 0.40126 0.33403 0.0
C786 C 0.77706 0.47091 0.35165 0.0
C787 C 0.77048 0.50364 0.34583 0.0
C788 C 0.73841 0.51257 0.33944 0.0
C789 C 0.713 0.48727 0.33917 0.0
C790 C 0.71963 0.45424 0.34518 0.0
H791 H 0.81337 0.37932 0.32752 0.0
H792 H 0.78311 0.41352 0.32585 0.0
H793 H 0.82246 0.41985 0.33657 0.0
H794 H 0.80203 0.46532 0.35649 0.0
H795 H 0.79091 0.52206 0.34635 0.0
H796 H 0.80166 0.54594 0.09814 0.0
H797 H 0.85758 0.5558 0.10957 0.0
H798 H 0.88878 0.45573 0.09467 0.0
H799 H 0.83208 0.44559 0.0828 0.0
H800 H 0.889 0.52364 0.13436 0.0
H801 H 0.96855 0.5124 0.07842 0.0
H802 H 0.92291 0.51619 0.07752 0.0
H803 H 0.94202 0.47649 0.08305 0.0
C804 C 0.82024 0.52582 0.09711 0.0
C805 C 0.81186 0.49481 0.08943 0.0
C806 C 0.85251 0.53162 0.10376 0.0
C807 C 0.87795 0.50677 0.10301 0.0
C808 C 0.87003 0.47572 0.09523 0.0
H809 H 0.08848 0.53661 0.14249 0.0
H810 H 0.0371 0.50783 0.13204 0.0
C811 C 0.83742 0.46984 0.08848 0.0
C812 C 0.91192 0.51381 0.11091 0.0
H813 H 0.99684 0.52566 0.10298 0.0
C814 C 0.91255 0.52371 0.12746 0.0
C815 C 0.94306 0.51387 0.10212 0.0
C816 C 0.94432 0.50444 0.08426 0.0
C817 C 0.94273 0.53444 0.13522 0.0
C818 C 0.97356 0.5359 0.12627 0.0
C819 C 0.97338 0.52461 0.10993 0.0
C820 C 1.00504 0.5523 0.13321 0.0
C821 C 0.94121 0.54461 0.15299 0.0
C822 C 1.00446 0.58682 0.13744 0.0
C823 C 1.03361 0.6032 0.14335 0.0
C824 C 0.06455 0.58571 0.14535 0.0
C825 C 0.06512 0.55086 0.14141 0.0
C826 C 0.03577 0.53444 0.13527 0.0
H827 H 0.91923 0.53269 0.15932 0.0
H828 H 0.96487 0.53744 0.15949 0.0
H829 H 0.93823 0.57255 0.15384 0.0
H830 H 0.98147 0.60148 0.13583 0.0
H831 H 1.03196 0.63 0.14617 0.0
H832 H 0.77134 1.02553 0.63369 0.0
H833 H 0.78371 0.96896 0.62381 0.0
H834 H 0.71085 0.92705 0.65765 0.0
H835 H 0.69756 0.98472 0.66756 0.0
H836 H 0.81149 0.91826 0.6393 0.0
H837 H 0.686 0.87487 0.61671 0.0
H838 H 0.69445 0.91858 0.62196 0.0
H839 H 0.68625 0.88795 0.63776 0.0
C840 C 0.75755 1.00451 0.63909 0.0
C841 C 0.73342 1.01015 0.6516 0.0
C842 C 0.76478 0.97185 0.63334 0.0
C843 C 0.74829 0.94321 0.63979 0.0
C844 C 0.72366 0.94852 0.65214 0.0
H845 H 0.84343 0.744 0.62868 0.0
H846 H 0.81696 0.79574 0.63882 0.0
C847 C 0.71615 0.98161 0.6579 0.0
C848 C 0.75887 0.90831 0.63402 0.0
H849 H 0.73066 0.83441 0.61624 0.0
C850 C 0.79364 0.90003 0.6343 0.0
C851 C 0.736 0.88427 0.62719 0.0
C852 C 0.69862 0.89184 0.6257 0.0
C853 C 0.80605 0.86903 0.62808 0.0
C854 C 0.78316 0.84457 0.62165 0.0
C855 C 0.74836 0.85278 0.62123 0.0
C856 C 0.79529 0.81043 0.61562 0.0
C857 C 0.84395 0.86326 0.62809 0.0
C858 C 0.7905 0.79978 0.5993 0.0
C859 C 0.8054 0.76946 0.59342 0.0
C860 C 0.82551 0.74911 0.60375 0.0
C861 C 0.82856 0.75905 0.62026 0.0
C862 C 0.81351 0.78893 0.6261 0.0
H863 H 0.85825 0.88756 0.62875 0.0
H864 H 0.85091 0.84795 0.63895 0.0
H865 H 0.8522 0.84936 0.61696 0.0
H866 H 0.77642 0.81563 0.5909 0.0
H867 H 0.80262 0.76292 0.58064 0.0
H868 H 0.05782 0.05034 0.83234 0.0
H869 H 1.00568 1.02303 0.84284 0.0
H870 H 1.01685 0.07698 0.88832 0.0
H871 H 0.06807 0.10432 0.87799 0.0
H872 H 0.98747 0.98273 0.87091 0.0
H873 H 0.92328 0.10747 0.87329 0.0
H874 H 0.96305 0.1013 0.86274 0.0
H875 H 0.96228 0.1066 0.88459 0.0
C876 C 0.04953 0.05592 0.84468 0.0
C877 C 0.06731 0.07995 0.8542 0.0
C878 C 1.01951 0.04035 0.85068 0.0
C879 C 1.00654 0.04839 0.86632 0.0
C880 C 1.02547 0.0708 0.87609 0.0
H881 H 0.83566 0.95324 0.922 0.0
H882 H 0.89283 0.96811 0.91179 0.0
C883 C 0.05506 0.08641 0.87013 0.0
C884 C 0.97264 0.03515 0.8723 0.0
H885 H 0.89493 0.06174 0.88626 0.0
C886 C 0.9672 1.00002 0.8742 0.0
C887 C 0.94572 0.05742 0.87654 0.0
C888 C 0.94864 0.09526 0.87405 0.0
C889 C 0.93613 0.98682 0.88038 0.0
C890 C 0.90959 1.00923 0.88504 0.0
C891 C 0.91505 0.04428 0.88294 0.0
C892 C 0.87514 0.99738 0.89107 0.0
C893 C 0.93172 0.9489 0.8815 0.0
C894 C 0.84573 1.00867 0.88306 0.0
C895 C 0.81326 1.00047 0.88894 0.0
C896 C 0.8086 0.98059 0.90314 0.0
C897 C 0.83799 0.96838 0.91101 0.0
C898 C 0.87084 0.97682 0.9051 0.0
H899 H 0.95056 0.93524 0.87381 0.0
H900 H 0.93538 0.94081 0.89437 0.0
H901 H 0.90579 0.9412 0.87766 0.0
H902 H 0.84784 1.02436 0.87223 0.0
H903 H 0.7916 1.01029 0.88233 0.0
H904 H 0.87769 0.08619 0.15998 0.0
H905 H 0.8666 0.14381 0.14927 0.0
H906 H 0.76505 0.1135 0.13623 0.0
H907 H 0.77555 0.05698 0.14675 0.0
H908 H 0.8439 0.16578 0.11629 0.0
H909 H 0.74999 0.19956 0.16392 0.0
H910 H 0.77964 0.16505 0.16638 0.0
H911 H 0.74155 0.15921 0.15458 0.0
C912 C 0.85295 0.0919 0.15493 0.0
C913 C 0.8276 0.06654 0.15439 0.0
C914 C 0.84665 0.12488 0.14871 0.0
C915 C 0.81474 0.13342 0.14202 0.0
C916 C 0.78969 0.10807 0.14148 0.0
H917 H 0.69273 0.28569 0.09733 0.0
H918 H 0.72063 0.2366 0.10914 0.0
C919 C 0.79592 0.07542 0.14752 0.0
C920 C 0.80674 0.16837 0.13555 0.0
H921 H 0.74863 0.23252 0.13941 0.0
C922 C 0.8235 0.18071 0.12152 0.0
C923 C 0.78008 0.18815 0.14226 0.0
C924 C 0.76196 0.17754 0.15771 0.0
C925 C 0.81307 0.21099 0.11359 0.0
C926 C 0.78535 0.22992 0.11992 0.0
C927 C 0.76969 0.21822 0.13436 0.0
C928 C 0.77006 0.26014 0.11126 0.0
C929 C 0.8307 0.22155 0.09803 0.0
C930 C 0.78839 0.29029 0.10802 0.0
C931 C 0.77223 0.31897 0.10107 0.0
C932 C 0.73727 0.31828 0.09729 0.0
C933 C 0.71955 0.28765 0.10012 0.0
C934 C 0.73556 0.25929 0.10695 0.0
H935 H 0.84694 0.201 0.093 0.0
H936 H 0.81188 0.229 0.0886 0.0
H937 H 0.84711 0.24386 0.10054 0.0
H938 H 0.81489 0.29213 0.1114 0.0
H939 H 0.78677 0.34205 0.09935 0.0
H940 H 0.77262 0.04857 0.38261 0.0
H941 H 0.7158 0.03677 0.37277 0.0
H942 H 0.67462 0.10822 0.40739 0.0
H943 H 0.73251 0.1209 0.41726 0.0
H944 H 0.66514 1.00847 0.38855 0.0
H945 H 0.62214 0.1344 0.36669 0.0
H946 H 0.66594 0.12573 0.37164 0.0
H947 H 0.63566 0.1336 0.38766 0.0
C948 C 0.7517 0.06216 0.38818 0.0
C949 C 0.75756 0.08567 0.4009 0.0
C950 C 0.71892 0.05529 0.38245 0.0
C951 C 0.69043 0.07153 0.38917 0.0
C952 C 0.69598 0.09562 0.4017 0.0
H953 H 0.49055 0.97697 0.37848 0.0
H954 H 0.54233 1.00367 0.38859 0.0
C955 C 0.72919 0.10278 0.40743 0.0
C956 C 0.65541 0.06114 0.38349 0.0
H957 H 0.58142 0.08979 0.36613 0.0
C958 C 0.64694 1.02642 0.38368 0.0
C959 C 0.63142 0.08418 0.37686 0.0
C960 C 0.63922 0.12153 0.37552 0.0
C961 C 0.61577 1.0142 0.37755 0.0
C962 C 0.59137 0.03724 0.3713 0.0
C963 C 0.59977 0.072 0.37098 0.0
C964 C 0.55713 1.02528 0.36535 0.0
C965 C 0.60971 0.97636 0.37745 0.0
C966 C 0.54656 1.03001 0.34902 0.0
C967 C 0.51624 1.01499 0.34317 0.0
C968 C 0.49585 0.99486 0.35354 0.0
C969 C 0.50565 0.99193 0.37005 0.0
C970 C 0.53552 1.0071 0.37587 0.0
H971 H 0.63393 0.96199 0.37805 0.0
H972 H 0.5943 0.96929 0.38831 0.0
H973 H 0.59575 0.96834 0.36631 0.0
H974 H 0.56252 0.04405 0.3406 0.0
H975 H 0.50977 1.01764 0.33038 0.0
H976 H 0.36365 0.08987 0.32366 0.0
H977 H 0.35051 0.14732 0.33387 0.0
H978 H 0.28233 0.10433 0.3696 0.0
H979 H 0.29457 0.0479 0.35942 0.0
H980 H 0.25193 0.15443 0.35477 0.0
H981 H 0.37894 0.2003 0.374 0.0
H982 H 0.37667 0.18703 0.35301 0.0
H983 H 0.37073 0.1564 0.36905 0.0
C984 C 0.34614 0.09269 0.33379 0.0
C985 C 0.33011 0.06388 0.34055 0.0
C986 C 0.33873 0.12567 0.33972 0.0
C987 C 0.31544 0.13061 0.35269 0.0
C988 C 0.30022 0.10171 0.3596 0.0
H989 H 0.2636 0.31112 0.41235 0.0
H990 H 0.28992 0.25869 0.40177 0.0
C991 C 0.30735 0.06914 0.35367 0.0
C992 C 0.30488 0.16537 0.35867 0.0
H993 H 0.33373 0.24012 0.37536 0.0
C994 C 0.26999 0.17306 0.35924 0.0
C995 C 0.32806 0.18993 0.3648 0.0
C996 C 0.36567 0.18303 0.36536 0.0
C997 C 0.25774 0.20399 0.36561 0.0
C998 C 0.28088 0.22897 0.37133 0.0
C999 C 0.31582 0.22134 0.37092 0.0
C1000 C 0.26883 0.26307 0.37744 0.0
C1001 C 0.21981 0.20918 0.36651 0.0
C1002 C 0.24934 0.28405 0.36724 0.0
C1003 C 0.23426 0.31375 0.37326 0.0
C1004 C 0.23852 0.32404 0.38965 0.0
C1005 C 0.25989 0.3043 0.39965 0.0
C1006 C 0.27485 0.27414 0.3936 0.0
H1007 H 0.20584 0.18466 0.36629 0.0
H1008 H 0.21253 0.22315 0.37778 0.0
H1009 H 0.21147 0.2242 0.35578 0.0
H1010 H 0.24488 0.27689 0.35464 0.0
H1011 H 0.21833 0.32834 0.36509 0.0
H1012 H 1.03388 0.94456 0.14353 0.0
H1013 H 0.08441 0.9722 0.13276 0.0
H1014 H 1.03265 0.06841 0.13327 0.0
H1015 H 0.9814 0.04057 0.14435 0.0
H1016 H 0.09089 1.00332 0.10371 0.0
H1017 H 0.12394 0.09545 0.15263 0.0
H1018 H 0.09413 0.06122 0.15588 0.0
H1019 H 0.08146 0.09835 0.14476 0.0
C1020 C 1.03311 0.97174 0.14159 0.0
C1021 C 1.00319 0.99015 0.1449 0.0
C1022 C 0.06228 0.98759 0.13536 0.0
C1023 C 0.06288 1.02258 0.13213 0.0
C1024 C 1.0334 0.0415 0.13585 0.0
H1025 H 0.23964 0.13101 0.08578 0.0
H1026 H 0.18168 0.11972 0.09617 0.0
C1027 C 1.00395 1.02551 0.14224 0.0
C1028 C 0.09386 0.03794 0.12403 0.0
H1029 H 0.15936 0.09467 0.1293 0.0
C1030 C 0.10559 1.0235 0.10931 0.0
C1031 C 0.11333 0.06452 0.1311 0.0
C1032 C 0.10287 0.08072 0.14702 0.0
C1033 C 0.13618 0.034 0.10182 0.0
C1034 C 0.15636 0.05957 0.10921 0.0
C1035 C 0.14407 0.07511 0.12355 0.0
C1036 C 0.19158 0.06766 0.10304 0.0
C1037 C 0.14695 1.01718 0.08608 0.0
C1038 C 0.21672 0.04251 0.10351 0.0
C1039 C 0.24961 0.04887 0.09767 0.0
C1040 C 0.25883 0.08073 0.09108 0.0
C1041 C 0.23365 0.10614 0.09063 0.0
C1042 C 0.20048 0.09974 0.09666 0.0
H1043 H 0.125 1.00559 0.07962 0.0
H1044 H 0.15953 0.03561 0.07776 0.0
H1045 H 0.16534 0.99669 0.08887 0.0
H1046 H 0.21093 1.0177 0.10849 0.0
H1047 H 0.26792 1.02846 0.09834 0.0
H1048 H 0.37866 0.78876 0.89157 0.0
H1049 H 0.34933 0.83766 0.8804 0.0
H1050 H 0.25419 0.78371 0.88308 0.0
H1051 H 0.28371 0.734 0.89446 0.0
H1052 H 0.31507 0.84054 0.85146 0.0
H1053 H 0.22802 0.87622 0.9022 0.0
H1054 H 0.26345 0.84787 0.90515 0.0
H1055 H 0.22561 0.83301 0.89523 0.0
C1056 C 0.3514 0.7871 0.88999 0.0
C1057 C 0.33379 0.757 0.89401 0.0
C1058 C 0.33458 0.81534 0.88353 0.0
C1059 C 0.29938 0.81485 0.88084 0.0
C1060 C 0.28127 0.78523 0.88523 0.0
H1061 H 0.18605 0.98948 0.83619 0.0
H1062 H 0.19794 0.93171 0.84648 0.0
C1063 C 0.29824 0.75668 0.89179 0.0
C1064 C 0.28287 0.84488 0.87265 0.0
H1065 H 0.22689 0.91049 0.87858 0.0
C1066 C 0.29554 0.85554 0.85738 0.0
C1067 C 0.2571 0.86467 0.88016 0.0
C1068 C 0.24278 0.85517 0.89664 0.0
C1069 C 0.28414 0.88551 0.84975 0.0
C1070 C 0.25957 0.90616 0.85758 0.0
C1071 C 0.24568 0.89483 0.8725 0.0
C1072 C 0.25119 0.94107 0.8513 0.0
C1073 C 0.29905 0.89515 0.83339 0.0
C1074 C 0.27684 0.96578 0.85062 0.0
C1075 C 0.27016 0.9985 0.84482 0.0
C1076 C 0.23745 1.00799 0.83945 0.0
C1077 C 0.21156 0.98322 0.84007 0.0
C1078 C 0.21831 0.95019 0.84605 0.0
H1079 H 0.3092 0.87265 0.82683 0.0
H1080 H 0.27983 0.90769 0.82553 0.0
H1081 H 0.32037 0.91318 0.83531 0.0
H1082 H 0.30227 0.95982 0.85473 0.0
H1083 H 0.29097 1.01652 0.84462 0.0
H1084 H 0.29717 0.03863 0.59552 0.0
H1085 H 0.35282 0.0498 0.60702 0.0
H1086 H 0.38594 0.94993 0.59278 0.0
H1087 H 0.32952 0.93847 0.58086 0.0
H1088 H 0.38416 1.01868 0.63212 0.0
H1089 H 0.46527 1.00742 0.57671 0.0
H1090 H 0.41959 1.01048 0.57554 0.0
H1091 H 0.43917 0.9712 0.58136 0.0
C1092 C 0.31613 1.01885 0.59464 0.0
C1093 C 0.30836 0.98747 0.58716 0.0
C1094 C 0.34824 1.02539 0.60132 0.0
C1095 C 0.37412 1.00097 0.6008 0.0
C1096 C 0.36684 0.96961 0.59317 0.0
H1097 H 0.58348 0.03443 0.64112 0.0
H1098 H 0.53272 1.00481 0.6305 0.0
C1099 C 0.3344 0.96298 0.58638 0.0
C1100 C 0.4078 1.00871 0.60886 0.0
H1101 H 0.49278 1.02145 0.60139 0.0
C1102 C 0.40788 1.01894 0.62536 0.0
C1103 C 0.43917 1.00899 0.60026 0.0
C1104 C 0.44102 0.9992 0.58246 0.0
C1105 C 0.43773 1.03017 0.63326 0.0
C1106 C 0.46879 1.03184 0.62449 0.0
C1107 C 0.46915 1.02025 0.6082 0.0
C1108 C 0.4999 0.04875 0.63156 0.0
C1109 C 0.43561 0.04059 0.65098 0.0
C1110 C 0.49871 0.08325 0.63579 0.0
C1111 C 0.52749 0.10009 0.64181 0.0
C1112 C 0.5587 0.08313 0.64391 0.0
C1113 C 0.5599 0.04829 0.63997 0.0
C1114 C 0.53089 1.03139 0.63373 0.0
H1115 H 0.41372 1.02833 0.65724 0.0
H1116 H 0.45925 0.03399 0.65764 0.0
H1117 H 0.43204 0.06847 0.65172 0.0
H1118 H 0.47552 0.09754 0.63409 0.0
H1119 H 0.52537 0.12687 0.64461 0.0
H1120 H 0.30916 0.12832 0.88607 0.0
H1121 H 0.31584 0.14038 0.91512 0.0
H1122 H 0.2134 0.17892 0.91714 0.0
H1123 H 0.20609 0.16573 0.88807 0.0
H1124 H 0.31102 0.19704 0.93406 0.0
H1125 H 0.21058 0.1031 0.95043 0.0
H1126 H 0.22714 0.10679 0.92995 0.0
H1127 H 0.19752 0.13762 0.9376 0.0
C1128 C 0.28809 0.13951 0.89267 0.0
C1129 C 0.25686 0.14541 0.88495 0.0
C1130 C 0.29199 0.14653 0.90924 0.0
C1131 C 0.26488 0.15991 0.91832 0.0
C1132 C 0.2343 0.16778 0.91042 0.0
H1133 H 0.31131 0.18939 0.02314 0.0
H1134 H 0.29192 0.20349 0.99551 0.0
C1135 C 0.2302 0.16029 0.89385 0.0
C1136 C 0.26838 0.16303 0.93621 0.0
H1137 H 0.24184 0.12673 0.97184 0.0
C1138 C 0.29557 0.18218 0.94241 0.0
C1139 C 0.24819 0.1434 0.94698 0.0
C1140 C 0.21937 0.12134 0.94096 0.0
C1141 C 0.30446 0.18059 0.95897 0.0
C1142 C 0.28507 0.15988 0.96958 0.0
C1143 C 0.25657 0.14253 0.96359 0.0
C1144 C 0.29633 0.15216 0.98636 0.0
C1145 C 0.33575 0.19922 0.96475 0.0
C1146 C 0.30459 0.11859 0.99036 0.0
C1147 C 0.31521 0.1104 0.00609 0.0
C1148 C 0.31791 0.13571 0.01809 0.0
C1149 C 0.30968 0.16941 0.01408 0.0
C1150 C 0.29873 0.17754 -0.00168 0.0
H1151 H 0.35102 0.20939 0.95441 0.0
H1152 H 0.32803 0.22084 0.9726 0.0
H1153 H 0.35209 0.18222 0.97215 0.0
H1154 H 0.30295 0.09867 0.98125 0.0
H1155 H 0.32147 0.08426 0.00879 0.0
H1156 H 0.73388 0.573 0.25772 0.0
H1157 H 0.71945 0.55552 0.23001 0.0
H1158 H 0.61388 0.54731 0.24374 0.0
H1159 H 0.62804 0.56564 0.27156 0.0
H1160 H 0.68929 0.49561 0.21996 0.0
H1161 H 0.61114 0.60795 0.20312 0.0
H1162 H 0.638 0.60757 0.22098 0.0
H1163 H 0.59848 0.58477 0.22107 0.0
C1164 C 0.70757 0.56755 0.25487 0.0
C1165 C 0.68207 0.57077 0.26677 0.0
C1166 C 0.69938 0.55752 0.23905 0.0
C1167 C 0.66559 0.55039 0.23484 0.0
C1168 C 0.64002 0.55324 0.24671 0.0
H1169 H 0.6505 0.46431 0.13566 0.0
H1170 H 0.63689 0.47122 0.16474 0.0
C1171 C 0.64817 0.56358 0.26257 0.0
C1172 C 0.65785 0.53997 0.21793 0.0
H1173 H 0.62267 0.56838 0.18244 0.0
C1174 C 0.67428 0.51114 0.21176 0.0
C1175 C 0.63818 0.56041 0.20739 0.0
C1176 C 0.62055 0.59205 0.21337 0.0
C1177 C 0.67356 0.50341 0.19506 0.0
C1178 C 0.65504 0.52464 0.18438 0.0
C1179 C 0.63674 0.5522 0.19073 0.0
C1180 C 0.65852 0.52163 0.16648 0.0
C1181 C 0.6946 0.47405 0.18889 0.0
C1182 C 0.67362 0.54833 0.15775 0.0
C1183 C 0.68083 0.5447 0.14117 0.0
C1184 C 0.67347 0.51411 0.13314 0.0
C1185 C 0.657 0.48791 0.1417 0.0
C1186 C 0.64926 0.49179 0.15826 0.0
H1187 H 0.71213 0.46417 0.19839 0.0
H1188 H 0.67751 0.45303 0.18515 0.0
H1189 H 0.70987 0.48172 0.17808 0.0
H1190 H 0.68086 0.57161 0.16389 0.0
H1191 H 0.69332 0.56538 0.13482 0.0
H1192 H 0.32039 0.90539 0.5197 0.0
H1193 H 0.32844 0.89749 0.49023 0.0
H1194 H 0.22163 0.87574 0.48481 0.0
H1195 H 0.21318 0.88468 0.5141 0.0
H1196 H 0.31451 0.84671 0.46668 0.0
H1197 H 0.2353 0.96194 0.45799 0.0
H1198 H 0.25073 0.94907 0.47776 0.0
H1199 H 0.21451 0.92824 0.46887 0.0
C1200 C 0.29876 0.89838 0.51225 0.0
C1201 C 0.26605 0.89636 0.51907 0.0
C1202 C 0.30341 0.89378 0.49546 0.0
C1203 C 0.27548 0.88677 0.48536 0.0
C1204 C 0.24334 0.88188 0.49239 0.0
H1205 H 0.2545 0.91236 0.38055 0.0
H1206 H 0.24502 0.89236 0.40844 0.0
C1207 C 0.23857 0.887 0.50909 0.0
C1208 C 0.27923 0.88838 0.46742 0.0
H1209 H 0.25505 0.93479 0.4343 0.0
C1210 C 0.30137 0.86577 0.45954 0.0
C1211 C 0.26222 0.91352 0.45822 0.0
C1212 C 0.2396 0.93979 0.46612 0.0
C1213 C 0.30697 0.86769 0.44261 0.0
C1214 C 0.29015 0.89303 0.43348 0.0
C1215 C 0.26757 0.91514 0.44134 0.0
C1216 C 0.29723 0.89921 0.41601 0.0
C1217 C 0.33103 0.84285 0.43471 0.0
C1218 C 0.32985 0.90915 0.411 0.0
C1219 C 0.33536 0.92063 0.39507 0.0
C1220 C 0.3082 0.92272 0.38401 0.0
C1221 C 0.27584 0.91146 0.38887 0.0
C1222 C 0.27041 0.89984 0.40476 0.0
H1223 H 0.33162 0.8185 0.44155 0.0
H1224 H 0.32403 0.83759 0.42181 0.0
H1225 H 0.35706 0.8537 0.43487 0.0
H1226 H 0.35073 0.90951 0.4196 0.0
H1227 H 0.36061 0.92896 0.39164 0.0
H1228 H 0.92837 0.47953 0.76635 0.0
H1229 H 0.93702 0.49175 0.73732 0.0
H1230 H 0.8521 0.56069 0.73823 0.0
H1231 H 0.84291 0.5483 0.76714 0.0
H1232 H 0.84777 0.51015 0.71458 0.0
H1233 H 0.97299 0.57557 0.71243 0.0
H1234 H 0.97203 0.53626 0.72357 0.0
H1235 H 0.94825 0.57194 0.73098 0.0
C1236 C 0.91186 0.49768 0.76042 0.0
C1237 C 0.88478 0.51278 0.76896 0.0
C1238 C 0.91701 0.5048 0.74388 0.0
C1239 C 0.89539 0.52733 0.73574 0.0
C1240 C 0.86911 0.54331 0.74438 0.0
H1241 H 0.88826 0.61058 0.63934 0.0
H1242 H 0.89803 0.60011 0.66842 0.0
C1243 C 0.86385 0.53613 0.76086 0.0
C1244 C 0.89764 0.53158 0.71788 0.0
H1245 H 0.94809 0.56081 0.68695 0.0
C1246 C 0.86969 0.52122 0.70853 0.0
C1247 C 0.92633 0.54603 0.71013 0.0
C1248 C 0.95656 0.55838 0.71976 0.0
C1249 C 0.86942 0.52524 0.69156 0.0
C1250 C 0.89819 0.53938 0.68376 0.0
C1251 C 0.9263 0.54964 0.69306 0.0
C1252 C 0.89826 0.54546 0.66602 0.0
C1253 C 0.83798 0.51513 0.68217 0.0
C1254 C 0.89638 0.51812 0.65511 0.0
C1255 C 0.89058 0.52396 0.63854 0.0
C1256 C 0.88661 0.55726 0.63271 0.0
C1257 C 0.89074 0.58465 0.64353 0.0
C1258 C 0.89654 0.57875 0.6601 0.0
H1259 H 0.81578 0.51107 0.69035 0.0
H1260 H 0.83131 0.53483 0.67303 0.0
H1261 H 0.8429 0.49109 0.67552 0.0
H1262 H 0.89814 0.49226 0.65951 0.0
H1263 H 0.88814 0.50236 0.63043 0.0
H1264 H 0.74581 0.92486 0.11283 0.0
H1265 H 0.73384 0.90514 0.08509 0.0
H1266 H 0.84121 0.90224 0.07465 0.0
H1267 H 0.85348 0.92189 0.10236 0.0
H1268 H 0.75389 0.94342 0.05817 0.0
H1269 H 0.8056 0.81301 0.05456 0.0
H1270 H 0.79655 0.83389 0.07375 0.0
H1271 H 0.83507 0.84335 0.06282 0.0
C1272 C 0.7669 0.9197 0.10469 0.0
C1273 C 0.80058 0.92548 0.10966 0.0
C1274 C 0.76001 0.90826 0.0889 0.0
C1275 C 0.78665 0.90192 0.07793 0.0
C1276 C 0.82033 0.90634 0.08306 0.0
H1277 H 0.81544 0.89591 0.97462 0.0
H1278 H 0.82084 0.88944 0.0043 0.0
C1279 C 0.82727 0.91797 0.09883 0.0
C1280 C 0.77924 0.89536 0.06055 0.0
H1281 H 0.79507 0.84108 0.02891 0.0
C1282 C 0.76237 0.9208 0.05181 0.0
C1283 C 0.79061 0.86591 0.05235 0.0
C1284 C 0.80769 0.83731 0.06137 0.0
C1285 C 0.75771 0.91829 0.03491 0.0
C1286 C 0.7697 0.88919 0.0266 0.0
C1287 C 0.78593 0.8633 0.03537 0.0
C1288 C 0.76671 0.88642 0.00868 0.0
C1289 C 0.7412 0.94747 0.02599 0.0
C1290 C 0.73457 0.88549 0.00137 0.0
C1291 C 0.73138 0.8896 0.98453 0.0
C1292 C 0.76036 0.89428 0.9747 0.0
C1293 C 0.79268 0.89253 0.9819 0.0
C1294 C 0.79582 0.88872 -0.00118 0.0
H1295 H 0.73999 0.97075 0.03363 0.0
H1296 H 0.75522 0.95349 0.01456 0.0
H1297 H 0.71484 0.9403 0.02264 0.0
H1298 H 0.71187 0.88326 0.00881 0.0
H1299 H 0.70615 0.89032 0.97928 0.0
H1300 H 0.4354 0.50476 0.72013 0.0
H1301 H 0.4508 0.52421 0.7476 0.0
H1302 H 0.34745 0.50872 0.7636 0.0
H1303 H 0.33171 0.48995 0.73623 0.0
H1304 H 0.37445 0.57176 0.77214 0.0
H1305 H 0.46115 0.4659 0.78897 0.0
H1306 H 0.47037 0.48832 0.77033 0.0
H1307 H 0.43244 0.46317 0.77184 0.0
C1308 C 0.41602 0.50535 0.72954 0.0
C1309 C 0.38233 0.49587 0.72605 0.0
C1310 C 0.42491 0.51634 0.74521 0.0
C1311 C 0.4003 0.51761 0.7576 0.0
C1312 C 0.36677 0.50794 0.75415 0.0
H1313 H 0.38097 0.50977 0.85809 0.0
H1314 H 0.39274 0.50142 0.82912 0.0
C1315 C 0.35783 0.49719 0.73852 0.0
C1316 C 0.40875 0.52958 0.77419 0.0
H1317 H 0.44918 0.50632 0.80926 0.0
C1318 C 0.3912 0.55785 0.78023 0.0
C1319 C 0.43071 0.51128 0.78458 0.0
C1320 C 0.44966 0.48033 0.77872 0.0
C1321 C 0.39323 0.56708 0.79672 0.0
C1322 C 0.41414 0.54796 0.80731 0.0
C1323 C 0.43336 0.52096 0.80104 0.0
C1324 C 0.41213 0.55223 0.82521 0.0
C1325 C 0.37109 0.59566 0.80286 0.0
C1326 C 0.42018 0.58325 0.83269 0.0
C1327 C 0.41287 0.58831 0.84923 0.0
C1328 C 0.39794 0.5622 0.8585 0.0
C1329 C 0.39212 0.53047 0.85121 0.0
C1330 C 0.39902 0.5256 0.83468 0.0
H1331 H 0.35218 0.60382 0.79361 0.0
H1332 H 0.35727 0.58794 0.81411 0.0
H1333 H 0.38726 0.61786 0.8059 0.0
H1334 H 0.43104 0.60383 0.82563 0.0
H1335 H 0.41827 0.6128 0.85466 0.0
H1336 H 0.80938 0.132 0.60631 0.0
H1337 H 0.81895 0.14775 0.5779 0.0
H1338 H 0.71703 0.18743 0.575 0.0
H1339 H 0.70684 0.1704 0.60337 0.0
H1340 H 0.72729 0.14532 0.55145 0.0
H1341 H 0.83697 0.23159 0.55255 0.0
H1342 H 0.84853 0.19351 0.56305 0.0
H1343 H 0.81489 0.21972 0.57104 0.0
C1344 C 0.78914 0.14449 0.59969 0.0
C1345 C 0.75717 0.14942 0.60691 0.0
C1346 C 0.79481 0.15395 0.5835 0.0
C1347 C 0.76889 0.16927 0.57436 0.0
C1348 C 0.73743 0.17575 0.58184 0.0
H1349 H 0.82047 0.19441 0.47012 0.0
H1350 H 0.80171 0.20992 0.49772 0.0
C1351 C 0.73157 0.1658 0.59799 0.0
C1352 C 0.77315 0.17352 0.5565 0.0
H1353 H 0.83152 0.19621 0.52762 0.0
C1354 C 0.74965 0.15728 0.54623 0.0
C1355 C 0.80196 0.18958 0.54957 0.0
C1356 C 0.82673 0.20987 0.55969 0.0
C1357 C 0.75565 0.15419 0.52943 0.0
C1358 C 0.7863 0.16695 0.52284 0.0
C1359 C 0.80836 0.18578 0.5328 0.0
C1360 C 0.79735 0.15807 0.50614 0.0
C1361 C 0.72963 0.1362 0.51901 0.0
C1362 C 0.80176 0.12386 0.50193 0.0
C1363 C 0.81235 0.11493 0.48625 0.0
C1364 C 0.81908 0.1401 0.47455 0.0
C1365 C 0.81536 0.17445 0.47888 0.0
C1366 C 0.80463 0.18337 0.4946 0.0
H1367 H 0.70376 0.13856 0.52433 0.0
H1368 H 0.72932 0.14642 0.50636 0.0
H1369 H 0.7359 0.10879 0.51843 0.0
H1370 H 0.79716 0.10401 0.51082 0.0
H1371 H 0.81531 0.08828 0.48335 0.0
H1372 H 0.2287 0.53419 0.22971 0.0
H1373 H 0.21489 0.52169 0.25817 0.0
H1374 H 0.11827 0.57175 0.2528 0.0
H1375 H 0.13173 0.58428 0.22416 0.0
H1376 H 0.19977 0.57681 0.28073 0.0
H1377 H 0.09748 0.47914 0.27703 0.0
H1378 H 0.12728 0.48622 0.26054 0.0
H1379 H 0.09402 0.51623 0.26427 0.0
C1380 C 0.20432 0.54219 0.23449 0.0
C1381 C 0.1814 0.56043 0.22475 0.0
C1382 C 0.19646 0.53495 0.25072 0.0
C1383 C 0.16553 0.54565 0.25745 0.0
C1384 C 0.14207 0.56293 0.24768 0.0
H1385 H 0.15128 0.56163 0.36348 0.0
H1386 H 0.13878 0.5723 0.33466 0.0
C1387 C 0.14991 0.57021 0.23139 0.0
C1388 C 0.15969 0.54154 0.2751 0.0
H1389 H 0.11499 0.49613 0.3034 0.0
C1390 C 0.18102 0.55946 0.28574 0.0
C1391 C 0.13519 0.51884 0.28142 0.0
C1392 C 0.11218 0.49877 0.27029 0.0
C1393 C 0.17933 0.55448 0.30263 0.0
C1394 C 0.15516 0.53139 0.30901 0.0
C1395 C 0.13318 0.51404 0.2984 0.0
C1396 C 0.15509 0.52272 0.32651 0.0
C1397 C 0.2045 0.57278 0.31344 0.0
C1398 C 0.16656 0.49068 0.33143 0.0
C1399 C 0.17359 0.48443 0.34786 0.0
C1400 C 0.16942 0.51028 0.3595 0.0
C1401 C 0.15543 0.54149 0.35469 0.0
C1402 C 0.14813 0.54759 0.33828 0.0
H1403 H 0.22532 0.58476 0.30627 0.0
H1404 H 0.19121 0.59307 0.32033 0.0
H1405 H 0.2159 0.55506 0.32242 0.0
H1406 H 0.172 0.47119 0.32245 0.0
H1407 H 0.18397 0.46002 0.35127 0.0
H1408 H 0.71399 0.64192 0.39355 0.0
H1409 H 0.729 0.65775 0.42146 0.0
H1410 H 0.83055 0.68301 0.4056 0.0
H1411 H 0.81596 0.66652 0.37772 0.0
H1412 H 0.83176 0.639 0.42944 0.0
H1413 H 0.74548 0.74249 0.44756 0.0
H1414 H 0.72185 0.70807 0.43882 0.0
H1415 H 0.75221 0.7308 0.42643 0.0
C1416 C 0.73932 0.65146 0.39595 0.0
C1417 C 0.76395 0.65246 0.38354 0.0
C1418 C 0.74775 0.66093 0.41187 0.0
C1419 C 0.78076 0.67206 0.41555 0.0
C1420 C 0.80488 0.6747 0.40298 0.0
H1421 H 0.83442 0.69518 0.51973 0.0
H1422 H 0.82708 0.71049 0.49088 0.0
C1423 C 0.79654 0.66505 0.3871 0.0
C1424 C 0.79143 0.67536 0.43278 0.0
H1425 H 0.76592 0.70625 0.46977 0.0
C1426 C 0.81791 0.65442 0.43818 0.0
C1427 C 0.77373 0.6958 0.44416 0.0
C1428 C 0.747 0.72083 0.43889 0.0
C1429 C 0.82535 0.65134 0.4548 0.0
C1430 C 0.80535 0.66913 0.46628 0.0
C1431 C 0.78071 0.69216 0.46088 0.0
C1432 C 0.8076 0.66131 0.48382 0.0
C1433 C 0.85365 0.62797 0.46002 0.0
C1434 C 0.79821 0.62893 0.48929 0.0
C1435 C 0.80235 0.6201 0.50563 0.0
C1436 C 0.81584 0.6436 0.51679 0.0
C1437 C 0.82411 0.6765 0.51138 0.0
C1438 C 0.81991 0.68533 0.49496 0.0
H1439 H 0.87239 0.6241 0.45002 0.0
H1440 H 0.8671 0.63813 0.4709 0.0
H1441 H 0.84278 0.60285 0.46326 0.0
H1442 H 0.7882 0.61028 0.48083 0.0
H1443 H 0.79551 0.59467 0.50944 0.0
H1444 H 0.17461 0.95656 0.64205 0.0
H1445 H 0.16554 0.97121 0.67077 0.0
H1446 H 0.16488 0.07755 0.65826 0.0
H1447 H 0.17443 0.06324 0.62963 0.0
H1448 H 0.20889 0.06403 0.68201 0.0
H1449 H 0.08502 1.00498 0.69697 0.0
H1450 H 0.1139 0.97539 0.68778 0.0
H1451 H 0.09928 1.01128 0.67619 0.0
C1452 C 0.17208 0.98303 0.6454 0.0
C1453 C 0.1755 1.00874 0.63364 0.0
C1454 C 0.16653 0.99134 0.66178 0.0
C1455 C 0.16407 1.02543 0.66657 0.0
C1456 C 0.16657 0.05108 0.65477 0.0
H1457 H 0.13429 0.09127 0.76791 0.0
H1458 H 0.125 0.08084 0.7387 0.0
C1459 C 0.17206 0.04283 0.63843 0.0
C1460 C 0.16293 0.03449 0.68406 0.0
H1461 H 0.12106 1.01904 0.71986 0.0
C1462 C 0.1894 0.05459 0.69024 0.0
C1463 C 0.13724 1.02249 0.69471 0.0
C1464 C 0.10707 1.00264 0.68854 0.0
C1465 C 0.1917 0.06186 0.70692 0.0
C1466 C 0.16735 0.04794 0.71771 0.0
C1467 C 0.13996 1.02915 0.71151 0.0
C1468 C 0.171 0.05166 0.73552 0.0
C1469 C 0.22042 0.0841 0.71286 0.0
C1470 C 0.19939 0.0378 0.74335 0.0
C1471 C 0.20489 0.04384 0.7599 0.0
C1472 C 0.18185 0.06357 0.76892 0.0
C1473 C 0.15254 0.07609 0.76123 0.0
C1474 C 0.14715 0.07014 0.74459 0.0
H1475 H 0.23083 0.10018 0.70288 0.0
H1476 H 0.21197 0.10082 0.72301 0.0
H1477 H 0.2413 0.06783 0.71745 0.0
H1478 H 0.21772 1.02294 0.73654 0.0
H1479 H 0.22749 1.03352 0.76554 0.0
H1480 H 0.88078 0.43604 0.89263 0.0
H1481 H 0.87772 0.42384 0.92193 0.0
H1482 H 0.77275 0.3943 0.91671 0.0
H1483 H 0.77562 0.40607 0.88742 0.0
H1484 H 0.83281 0.45771 0.94302 0.0
H1485 H 0.81167 0.31847 0.94551 0.0
H1486 H 0.83282 0.33953 0.92871 0.0
H1487 H 0.78722 0.34038 0.93028 0.0
C1488 C 0.85719 0.42643 0.89767 0.0
C1489 C 0.82832 0.42233 0.88777 0.0
C1490 C 0.85553 0.41945 0.91439 0.0
C1491 C 0.82514 0.40786 0.92142 0.0
C1492 C 0.79663 0.40263 0.91146 0.0
H1493 H 0.72562 0.41057 0.01268 0.0
H1494 H 0.74441 0.40555 0.98428 0.0
C1495 C 0.79821 0.4097 0.89476 0.0
C1496 C 0.82201 0.40465 0.93935 0.0
H1497 H 0.79818 0.3498 0.96957 0.0
C1498 C 0.82585 0.43401 0.94888 0.0
C1499 C 0.81308 0.37367 0.94693 0.0
C1500 C 0.81118 0.34106 0.9374 0.0
C1501 C 0.81929 0.43349 0.96572 0.0
C1502 C 0.8087 0.40287 0.9731 0.0
C1503 C 0.80611 0.37323 0.96374 0.0
C1504 C 0.79773 0.40206 0.99028 0.0
C1505 C 0.8223 0.46586 0.97547 0.0
C1506 C 0.82163 0.40093 0.00292 0.0
C1507 C 0.81102 0.40364 0.01918 0.0
C1508 C 0.77639 0.40779 0.02292 0.0
C1509 C 0.75248 0.40758 0.01018 0.0
C1510 C 0.7631 0.40465 0.99397 0.0
H1511 H 0.83002 0.48779 0.96777 0.0
H1512 H 0.79761 0.47173 0.9814 0.0
H1513 H 0.84137 0.46251 0.98531 0.0
H1514 H 0.84848 0.39892 0.00018 0.0
H1515 H 0.83003 0.40372 0.02873 0.0
H1516 H 0.3903 1.00687 0.13538 0.0
H1517 H 0.40705 0.99939 0.16382 0.0
H1518 H 0.4388 0.10414 0.16611 0.0
H1519 H 0.42084 0.11219 0.13772 0.0
H1520 H 0.46355 1.00819 0.18308 0.0
H1521 H 0.36189 0.10092 0.19898 0.0
H1522 H 0.36712 0.08478 0.17853 0.0
H1523 H 0.39585 0.11637 0.18632 0.0
C1524 C 0.40109 1.02827 0.14189 0.0
C1525 C 0.40319 0.06041 0.13457 0.0
C1526 C 0.41095 1.02388 0.15809 0.0
C1527 C 0.42339 0.05145 0.16715 0.0
C1528 C 0.42842 0.08281 0.15942 0.0
H1529 H 0.44278 1.00875 0.27311 0.0
H1530 H 0.46081 1.02734 0.2458 0.0
C1531 C 0.41805 0.08738 0.14326 0.0
C1532 C 0.42641 0.04796 0.18505 0.0
H1533 H 0.38541 0.06977 0.22025 0.0
C1534 C 0.44708 1.02209 0.19132 0.0
C1535 C 0.40464 0.06616 0.19568 0.0
C1536 C 0.38092 0.09346 0.1896 0.0
C1537 C 0.44483 1.01234 0.20779 0.0
C1538 C 0.42169 1.02933 0.21813 0.0
C1539 C 0.40301 0.05684 0.21215 0.0
C1540 C 0.41253 1.01618 0.23441 0.0
C1541 C 0.4653 0.98251 0.21373 0.0
C1542 C 0.3795 1.00385 0.23692 0.0
C1543 C 0.36906 0.99359 0.25241 0.0
C1544 C 0.39152 0.99545 0.26567 0.0
C1545 C 0.42495 1.00701 0.26307 0.0
C1546 C 0.43535 1.01749 0.24752 0.0
H1547 H 0.47972 0.9701 0.20369 0.0
H1548 H 0.48363 0.9912 0.22314 0.0
H1549 H 0.44834 0.96341 0.21951 0.0
H1550 H 0.36159 1.00263 0.22689 0.0
H1551 H 0.34325 0.98457 0.25399 0.0
H1552 H 0.25549 0.48225 0.48595 0.0
H1553 H 0.27735 0.46423 0.51238 0.0
H1554 H 0.27754 0.36008 0.49611 0.0
H1555 H 0.25485 0.37789 0.46958 0.0
H1556 H 0.25043 0.36637 0.52628 0.0
H1557 H 0.37232 0.43509 0.52429 0.0
H1558 H 0.33825 0.46364 0.51979 0.0
H1559 H 0.3467 0.42849 0.50626 0.0
C1560 C 0.26033 0.45552 0.48793 0.0
C1561 C 0.25362 0.43151 0.47567 0.0
C1562 C 0.27312 0.44529 0.50299 0.0
C1563 C 0.27993 0.41093 0.50602 0.0
C1564 C 0.27286 0.38676 0.49391 0.0
H1565 H 0.3663 0.39908 0.60426 0.0
H1566 H 0.3608 0.38266 0.57547 0.0
C1567 C 0.25983 0.39698 0.47881 0.0
C1568 C 0.29243 0.40061 0.52228 0.0
H1569 H 0.34863 0.42534 0.55155 0.0
C1570 C 0.27241 0.37854 0.53172 0.0
C1571 C 0.32177 0.41548 0.52921 0.0
C1572 C 0.34617 0.43666 0.51926 0.0
C1573 C 0.279 0.37387 0.5484 0.0
C1574 C 0.30561 0.39249 0.55579 0.0
C1575 C 0.32774 0.41161 0.54597 0.0
C1576 C 0.30784 0.39683 0.5737 0.0
C1577 C 0.25661 0.35009 0.55806 0.0
C1578 C 0.27989 0.41006 0.58223 0.0
C1579 C 0.28292 0.41933 0.59859 0.0
C1580 C 0.31418 0.41613 0.60665 0.0
C1581 C 0.34198 0.40209 0.59826 0.0
C1582 C 0.33883 0.39251 0.58189 0.0
H1583 H 0.24775 0.32867 0.55032 0.0
H1584 H 0.27008 0.33966 0.56886 0.0
H1585 H 0.23378 0.364 0.56233 0.0
H1586 H 0.25602 0.41463 0.57606 0.0
H1587 H 0.26107 0.43012 0.60474 0.0
H1588 H 0.8891 0.1098 0.34807 0.0
H1589 H 0.90763 0.09765 0.32013 0.0
H1590 H 0.92307 0.99271 0.33293 0.0
H1591 H 0.90406 1.00441 0.36085 0.0
H1592 H 0.96846 0.0658 0.30616 0.0
H1593 H 0.84893 0.99247 0.29675 0.0
H1594 H 0.85483 1.02057 0.31394 0.0
H1595 H 0.87488 0.97969 0.31371 0.0
C1596 C 0.89664 0.08417 0.34498 0.0
C1597 C 0.89442 0.0579 0.35654 0.0
C1598 C 0.90746 0.07736 0.32906 0.0
C1599 C 0.91627 0.04425 0.3245 0.0
C1600 C 0.91589 1.01833 0.33623 0.0
H1601 H 0.92443 0.96216 0.2264 0.0
H1602 H 0.93401 0.96851 0.25571 0.0
C1603 C 0.90492 1.02507 0.35213 0.0
C1604 C 0.92237 0.03633 0.30712 0.0
H1605 H 0.88574 0.9974 0.27439 0.0
C1606 C 0.95062 0.05061 0.29919 0.0
C1607 C 0.89893 1.01657 0.29814 0.0
C1608 C 0.86752 1.00159 0.30598 0.0
C1609 C 0.95587 0.04581 0.28235 0.0
C1610 C 0.9319 1.02675 0.27331 0.0
C1611 C 0.90417 1.01185 0.28138 0.0
C1612 C 0.93341 1.02339 0.25532 0.0
C1613 C 0.98689 0.06114 0.27441 0.0
C1614 C 0.93081 0.05221 0.24531 0.0
C1615 C 0.92546 0.04867 0.2285 0.0
C1616 C 0.92211 1.01625 0.22153 0.0
C1617 C 0.92655 0.9875 0.23145 0.0
C1618 C 0.93218 0.99105 0.24818 0.0
H1619 H 1.0075 0.06537 0.28346 0.0
H1620 H 0.99665 0.04469 0.26444 0.0
H1621 H 0.9801 0.08611 0.26909 0.0
H1622 H 0.93093 0.07739 0.25061 0.0
H1623 H 0.92208 0.07128 0.22117 0.0
H1624 H 0.2151 0.63394 0.10133 0.0
H1625 H 0.22798 0.64691 0.07278 0.0
H1626 H 0.32876 0.67922 0.08643 0.0
H1627 H 0.31637 0.66569 0.11501 0.0
H1628 H 0.25282 0.7041 0.05482 0.0
H1629 H 0.34377 0.59602 0.05684 0.0
H1630 H 0.31367 0.60398 0.07302 0.0
H1631 H 0.35122 0.6297 0.07122 0.0
C1632 C 0.23984 0.64425 0.0983 0.0
C1633 C 0.26504 0.64796 0.11029 0.0
C1634 C 0.24707 0.65185 0.08202 0.0
C1635 C 0.27947 0.66343 0.07756 0.0
C1636 C 0.3038 0.66974 0.08967 0.0
H1637 H 0.33757 0.69051 0.97448 0.0
H1638 H 0.32727 0.7034 0.00339 0.0
C1639 C 0.2967 0.66188 0.10594 0.0
C1640 C 0.28883 0.6646 0.06013 0.0
H1641 H 0.3352 0.62209 0.0315 0.0
C1642 C 0.27116 0.68657 0.04968 0.0
C1643 C 0.31253 0.64133 0.05357 0.0
C1644 C 0.33127 0.6162 0.06417 0.0
C1645 C 0.27594 0.68517 0.03269 0.0
C1646 C 0.29904 0.66136 0.02618 0.0
C1647 C 0.31755 0.6403 0.03666 0.0
C1648 C 0.30247 0.65554 0.00849 0.0
C1649 C 0.25525 0.7079 0.02175 0.0
C1650 C 0.29183 0.62444 0.00194 0.0
C1651 C 0.29779 0.61691 0.98556 0.0
C1652 C 0.31464 0.64037 0.97548 0.0
C1653 C 0.32451 0.67195 0.98198 0.0
C1654 C 0.31853 0.67945 -0.00158 0.0
H1655 H 0.23556 0.72214 0.02864 0.0
H1656 H 0.2723 0.72643 0.01564 0.0
H1657 H 0.24265 0.69268 0.01205 0.0
H1658 H 0.27947 0.6057 0.00962 0.0
H1659 H 0.28978 0.59244 0.98091 0.0
H1660 H 0.73098 0.04855 0.72996 0.0
H1661 H 0.71829 0.0347 0.75838 0.0
H1662 H 0.61622 0.07217 0.75244 0.0
H1663 H 0.62853 0.08581 0.7238 0.0
H1664 H 0.69744 0.08251 0.782 0.0
H1665 H 0.60367 0.97775 0.77429 0.0
H1666 H 0.63173 0.99112 0.75801 0.0
H1667 H 0.59558 1.01648 0.76334 0.0
C1668 C 0.70574 0.05365 0.73463 0.0
C1669 C 0.68076 0.0683 0.72466 0.0
C1670 C 0.69854 0.04569 0.75086 0.0
C1671 C 0.66627 0.05217 0.7574 0.0
C1672 C 0.6411 0.06651 0.74749 0.0
H1673 H 0.64921 0.05178 0.86384 0.0
H1674 H 0.63756 0.06673 0.8354 0.0
C1675 C 0.64826 0.07444 0.73119 0.0
C1676 C 0.66003 0.04552 0.77488 0.0
H1677 H 0.61777 0.99333 0.8013 0.0
C1678 C 0.67978 0.06327 0.78628 0.0
C1679 C 0.63703 1.02031 0.78028 0.0
C1680 C 0.61587 1.00006 0.76839 0.0
C1681 C 0.67808 0.05573 0.80296 0.0
C1682 C 0.65537 1.03022 0.80839 0.0
C1683 C 0.63486 1.01307 0.79705 0.0
C1684 C 0.65532 1.01896 0.82558 0.0
C1685 C 0.70185 0.07396 0.8145 0.0
C1686 C 0.66716 0.98641 0.82946 0.0
C1687 C 0.6735 0.97764 0.84569 0.0
C1688 C 0.66832 1.00147 0.85821 0.0
C1689 C 0.65406 1.03315 0.85439 0.0
C1690 C 0.64736 0.04173 0.83818 0.0
H1691 H 0.72231 0.08775 0.80788 0.0
H1692 H 0.68727 0.09276 0.82176 0.0
H1693 H 0.71379 0.05583 0.82314 0.0
H1694 H 0.67331 0.96847 0.81986 0.0
H1695 H 0.68418 0.95294 0.84831 0.0
H1696 H 0.65936 1.01733 0.95636 0.0
H1697 H 0.6206 0.04312 0.97616 0.0
H1698 H 0.56447 0.94941 0.97892 0.0
H1699 H 0.60371 0.92357 0.95939 0.0
H1700 H 0.55517 0.05602 0.97152 0.0
H1701 H 0.56121 0.97384 0.02608 0.0
H1702 H 0.59256 0.97169 0.01001 0.0
H1703 H 0.55247 0.95001 0.0079 0.0
C1704 C 0.64028 1.00142 0.96196 0.0
C1705 C 0.636 0.96764 0.95656 0.0
C1706 C 0.61726 1.01659 0.97308 0.0
C1707 C 0.58908 0.99856 0.97935 0.0
C1708 C 0.58606 0.96415 0.97479 0.0
H1709 H 0.40802 0.04941 0.03861 0.0
H1710 H 0.44718 1.02407 0.01884 0.0
C1711 C 0.60905 0.94904 0.96367 0.0
C1712 C 0.56152 1.01633 0.98932 0.0
H1713 H 0.51351 1.01091 0.02443 0.0
C1714 C 0.54639 0.04615 0.98316 0.0
C1715 C 0.54924 1.00388 0.00456 0.0
C1716 C 0.56492 0.97331 0.01262 0.0
C1717 C 0.51955 0.0631 0.99143 0.0
C1718 C 0.5072 0.05056 0.00663 0.0
C1719 C 0.52232 1.02077 0.0128 0.0
C1720 C 0.47955 0.06824 0.01656 0.0
C1721 C 0.50401 0.09387 0.98349 0.0
C1722 C 0.48298 0.10232 0.02159 0.0
C1723 C 0.45989 0.11714 0.03276 0.0
C1724 C 0.43239 0.09857 0.03939 0.0
C1725 C 0.42765 0.06527 0.03343 0.0
C1726 C 0.45084 0.05034 0.02232 0.0
H1727 H 0.50824 0.09389 0.97005 0.0
H1728 H 0.47628 0.09522 0.98588 0.0
H1729 H 0.5161 0.11706 0.98855 0.0
H1730 H 0.50493 0.11693 0.01781 0.0
H1731 H 0.46551 0.14223 0.03745 0.0
H1732 H 0.67526 0.71989 0.2872 0.0
H1733 H 0.69983 0.75931 0.26725 0.0
H1734 H 0.79196 0.70067 0.26666 0.0
H1735 H 0.76712 0.66119 0.28633 0.0
H1736 H 0.75211 0.80055 0.2723 0.0
H1737 H 0.78683 0.72152 0.21905 0.0
H1738 H 0.75877 0.70635 0.23491 0.0
H1739 H 0.80411 0.70546 0.23777 0.0
C1740 C 0.7 0.71415 0.28209 0.0
C1741 C 0.71848 0.68618 0.28816 0.0
C1742 C 0.71448 0.73736 0.27087 0.0
C1743 C 0.74809 0.73356 0.26517 0.0
C1744 C 0.76582 0.70438 0.27036 0.0
H1745 H 0.88849 0.85745 0.20535 0.0
H1746 H 0.86384 0.81798 0.22526 0.0
C1747 C 0.75126 0.68114 0.28157 0.0
C1748 C 0.76524 0.76137 0.25508 0.0
H1749 H 0.81151 0.77669 0.22012 0.0
C1750 C 0.76484 0.79517 0.26083 0.0
C1751 C 0.78238 0.7551 0.24007 0.0
C1752 C 0.78282 0.72023 0.23248 0.0
C1753 C 0.78122 0.82213 0.25236 0.0
C1754 C 0.79836 0.81587 0.23734 0.0
C1755 C 0.79877 0.78207 0.2316 0.0
C1756 C 0.81553 0.84368 0.22727 0.0
C1757 C 0.78077 0.85702 0.25994 0.0
C1758 C 0.79777 0.87282 0.22204 0.0
C1759 C 0.81239 0.8961 0.21085 0.0
C1760 C 0.84526 0.89113 0.20435 0.0
C1761 C 0.86372 0.86316 0.21043 0.0
C1762 C 0.84918 0.83992 0.22161 0.0
H1763 H 0.7767 0.85574 0.27337 0.0
H1764 H 0.80486 0.87086 0.25753 0.0
H1765 H 0.75954 0.8718 0.25462 0.0
H1766 H 0.77161 0.87648 0.22569 0.0
H1767 H 0.79651 0.91602 0.20604 0.0
H1768 H 0.901 0.0683 0.45921 0.0
H1769 H 0.93898 0.04652 0.48055 0.0
H1770 H 1.01603 0.11751 0.46502 0.0
H1771 H 0.97712 0.14138 0.4454 0.0
H1772 H 0.98966 1.01246 0.48065 0.0
H1773 H 0.04066 0.12705 0.50936 0.0
H1774 H 1.00492 0.12933 0.49579 0.0
H1775 H 0.04794 0.13126 0.48791 0.0
C1776 C 0.92515 0.08079 0.46112 0.0
C1777 C 0.93529 0.1074 0.45064 0.0
C1778 C 0.94757 0.06762 0.47315 0.0
C1779 C 0.9812 0.08011 0.47494 0.0
C1780 C 0.99037 0.10775 0.4649 0.0
H1781 H 0.13508 0.93893 0.52012 0.0
H1782 H 0.09782 0.96747 0.50034 0.0
C1783 C 0.96767 0.12169 0.45347 0.0
C1784 C 1.0074 0.06295 0.48609 0.0
H1785 H 0.07783 0.07863 0.50964 0.0
C1786 C 1.00843 1.0272 0.48726 0.0
C1787 C 1.03227 0.08121 0.49521 0.0
C1788 C 1.03107 0.11928 0.49714 0.0
C1789 C 1.03291 1.00971 0.49687 0.0
C1790 C 0.05955 1.02793 0.50485 0.0
C1791 C 0.05839 0.0637 0.50362 0.0
C1792 C 0.08704 1.01141 0.51557 0.0
C1793 C 1.02854 0.9719 0.49882 0.0
C1794 C 0.0974 1.02732 0.5302 0.0
C1795 C 0.12092 1.01217 0.54084 0.0
C1796 C 0.13468 0.97968 0.5378 0.0
C1797 C 0.12573 0.9641 0.5229 0.0
C1798 C 0.10318 0.98016 0.51175 0.0
H1799 H 1.00175 0.96405 0.4968 0.0
H1800 H 0.04427 0.95865 0.48955 0.0
H1801 H 0.03612 0.96335 0.51121 0.0
H1802 H 0.08611 0.05107 0.53399 0.0
H1803 H 0.12608 1.02484 0.55233 0.0
H1804 H 0.67786 0.23014 0.69634 0.0
H1805 H 0.70233 0.2688 0.71592 0.0
H1806 H 0.76939 0.18962 0.73263 0.0
H1807 H 0.74742 0.15198 0.71115 0.0
H1808 H 0.70996 0.28583 0.74223 0.0
H1809 H 0.84303 0.25135 0.72913 0.0
H1810 H 0.80846 0.23276 0.71795 0.0
H1811 H 0.82062 0.21605 0.73769 0.0
C1812 C 0.6973 0.22043 0.70444 0.0
C1813 C 0.71073 0.1877 0.70173 0.0
C1814 C 0.71182 0.24306 0.71577 0.0
C1815 C 0.73957 0.2337 0.72569 0.0
C1816 C 0.74987 0.19922 0.72462 0.0
H1817 H 0.78984 0.38178 0.80374 0.0
H1818 H 0.76307 0.34252 0.7852 0.0
C1819 C 0.73628 0.17686 0.7126 0.0
C1820 C 0.75706 0.26043 0.7366 0.0
H1821 H 0.83406 0.28886 0.75128 0.0
C1822 C 0.73727 0.28638 0.7438 0.0
C1823 C 0.79295 0.26288 0.73896 0.0
C1824 C 0.8175 0.23953 0.73037 0.0
C1825 C 0.75157 0.31398 0.75259 0.0
C1826 C 0.78704 0.31486 0.75612 0.0
C1827 C 0.80695 0.28885 0.74906 0.0
C1828 C 0.80364 0.34166 0.76725 0.0
C1829 C 0.72809 0.34279 0.75705 0.0
C1830 C 0.83682 0.35459 0.76437 0.0
C1831 C 0.85323 0.37654 0.77572 0.0
C1832 C 0.83664 0.38756 0.79006 0.0
C1833 C 0.80301 0.37591 0.79245 0.0
C1834 C 0.78739 0.35291 0.78164 0.0
H1835 H 0.70762 0.34558 0.74781 0.0
H1836 H 0.71552 0.33716 0.7689 0.0
H1837 H 0.74175 0.36738 0.75789 0.0
H1838 H 0.85074 0.3468 0.75359 0.0
H1839 H 0.87952 0.38348 0.77366 0.0
H1840 H 0.17539 0.21764 0.78931 0.0
H1841 H 0.19934 0.25654 0.76896 0.0
H1842 H 0.29028 0.19619 0.76702 0.0
H1843 H 0.26598 0.15715 0.78704 0.0
H1844 H 0.25198 0.29707 0.77293 0.0
H1845 H 0.28322 0.21686 0.71962 0.0
H1846 H 0.25601 0.20211 0.7359 0.0
H1847 H 0.3015 0.20084 0.73811 0.0
C1848 C 0.19965 0.2114 0.78382 0.0
C1849 C 0.21797 0.18307 0.78962 0.0
C1850 C 0.21383 0.23433 0.77237 0.0
C1851 C 0.24697 0.22992 0.76615 0.0
C1852 C 0.26447 0.2004 0.7711 0.0
H1853 H 0.38714 0.3509 0.70497 0.0
H1854 H 0.36232 0.31235 0.72521 0.0
C1855 C 0.2502 0.17741 0.78253 0.0
C1856 C 0.26397 0.2574 0.75576 0.0
H1857 H 0.30903 0.27161 0.72032 0.0
C1858 C 0.26418 0.29133 0.76136 0.0
C1859 C 0.28039 0.25071 0.7406 0.0
C1860 C 0.28003 0.21574 0.73311 0.0
C1861 C 0.2805 0.31797 0.75261 0.0
C1862 C 0.29703 0.31124 0.73749 0.0
C1863 C 0.29678 0.27733 0.73188 0.0
C1864 C 0.31433 0.33863 0.72718 0.0
C1865 C 0.28068 0.35302 0.76001 0.0
C1866 C 0.29688 0.36787 0.72183 0.0
C1867 C 0.31159 0.39063 0.7104 0.0
C1868 C 0.34425 0.385 0.70378 0.0
C1869 C 0.3625 0.35707 0.71007 0.0
C1870 C 0.34786 0.33435 0.72146 0.0
H1871 H 0.2768 0.35213 0.77346 0.0
H1872 H 0.30493 0.36644 0.75744 0.0
H1873 H 0.25961 0.36801 0.75467 0.0
H1874 H 0.27085 0.372 0.72558 0.0
H1875 H 0.29594 0.41067 0.70557 0.0
H1876 H 0.17864 0.71949 0.20554 0.0
H1877 H 0.20385 0.75922 0.22513 0.0
H1878 H 0.29355 0.69718 0.22747 0.0
H1879 H 0.26849 0.65783 0.20771 0.0
H1880 H 0.22998 0.76172 0.25574 0.0
H1881 H 0.3354 0.78491 0.21225 0.0
H1882 H 0.29859 0.76003 0.20686 0.0
H1883 H 0.33225 0.74153 0.21872 0.0
C1884 C 0.20305 0.71327 0.21084 0.0
C1885 C 0.22097 0.6846 0.20508 0.0
C1886 C 0.21787 0.73658 0.22189 0.0
C1887 C 0.25139 0.73235 0.22754 0.0
C1888 C 0.26814 0.70209 0.22305 0.0
H1889 H 0.39018 0.85439 0.28845 0.0
H1890 H 0.36521 0.8148 0.26872 0.0
C1891 C 0.25325 0.67874 0.212 0.0
C1892 C 0.26905 0.7602 0.23736 0.0
H1893 H 0.33925 0.81252 0.23791 0.0
C1894 C 0.25381 0.7728 0.25174 0.0
C1895 C 0.30026 0.77535 0.23236 0.0
C1896 C 0.31748 0.76507 0.21663 0.0
C1897 C 0.26896 0.79891 0.26128 0.0
C1898 C 0.30018 0.81404 0.25629 0.0
C1899 C 0.31541 0.80144 0.24191 0.0
C1900 C 0.31782 0.84186 0.26612 0.0
C1901 C 0.25171 0.80924 0.277 0.0
C1902 C 0.30113 0.87221 0.27053 0.0
C1903 C 0.3159 0.89548 0.28165 0.0
C1904 C 0.34799 0.88944 0.28874 0.0
C1905 C 0.36592 0.86074 0.28303 0.0
C1906 C 0.35123 0.83751 0.27191 0.0
H1907 H 0.23368 0.78948 0.28136 0.0
H1908 H 0.27059 0.81417 0.28679 0.0
H1909 H 0.23708 0.83286 0.27491 0.0
H1910 H 0.27582 0.87721 0.266 0.0
H1911 H 0.30065 0.91645 0.28585 0.0
H1912 H 0.96462 0.64346 0.53832 0.0
H1913 H 1.00466 0.61903 0.51871 0.0
H1914 H 0.9435 0.52852 0.51607 0.0
H1915 H 0.90377 0.55294 0.53581 0.0
H1916 H 1.00857 0.51193 0.52229 0.0
H1917 H 1.01108 0.60191 0.47051 0.0
H1918 H 1.01842 0.62236 0.48978 0.0
H1919 H 0.97799 0.60262 0.4858 0.0
C1920 C 0.95848 0.61919 0.53284 0.0
C1921 C 0.9298 0.60094 0.53845 0.0
C1922 C 0.9819 0.60485 0.52168 0.0
C1923 C 0.97764 0.57159 0.51562 0.0
C1924 C 0.94786 0.55416 0.52036 0.0
H1925 H 0.10005 0.42955 0.45615 0.0
H1926 H 0.06039 0.45446 0.47575 0.0
C1927 C 0.92437 0.5686 0.53147 0.0
C1928 C 1.00536 0.55408 0.50566 0.0
H1929 H 0.05636 0.56202 0.47166 0.0
C1930 C 1.01873 0.52291 0.51115 0.0
C1931 C 1.01944 0.56802 0.49111 0.0
C1932 C 1.00581 0.60039 0.48384 0.0
C1933 C 0.04556 0.50596 0.50287 0.0
C1934 C 0.05959 0.51984 0.48829 0.0
C1935 C 0.04624 0.55104 0.48281 0.0
C1936 C 0.08716 0.5022 0.47827 0.0
C1937 C 0.05926 0.47369 0.51021 0.0
C1938 C 0.11669 0.51964 0.47317 0.0
C1939 C 0.13995 0.50494 0.46202 0.0
C1940 C 0.13451 0.47233 0.45535 0.0
C1941 C 0.10618 0.45408 0.46136 0.0
C1942 C 0.08297 0.46869 0.47253 0.0
H1943 H 0.05442 0.47255 0.52359 0.0
H1944 H 0.04629 0.45165 0.50452 0.0
H1945 H 0.087 0.47123 0.50807 0.0
H1946 H 0.12104 0.54544 0.47724 0.0
H1947 H 0.16037 0.52054 0.45745 0.0
H1948 H 0.66235 0.52537 0.03624 0.0
H1949 H 0.62213 0.54982 0.01677 0.0
H1950 H 0.56679 0.45553 0.01581 0.0
H1951 H 0.60688 0.43125 0.03544 0.0
H1952 H 0.59552 0.53815 0.98604 0.0
H1953 H 0.49322 0.51897 0.03165 0.0
H1954 H 0.53742 0.51258 0.03649 0.0
H1955 H 0.51396 0.48039 0.02569 0.0
C1956 C 0.64288 0.5091 0.03124 0.0
C1957 C 0.63887 0.47577 0.0373 0.0
C1958 C 0.61914 0.52349 0.02027 0.0
C1959 C 0.59028 0.50519 0.01505 0.0
C1960 C 0.58798 0.47091 0.01987 0.0
H1961 H 0.4086 0.5524 0.95615 0.0
H1962 H 0.44895 0.52839 0.97568 0.0
C1963 C 0.61169 0.45657 0.03082 0.0
C1964 C 0.56202 0.52228 0.00536 0.0
H1965 H 0.47631 0.5397 0.00573 0.0
C1966 C 0.56953 0.53854 0.99044 0.0
C1967 C 0.5277 0.52321 0.01087 0.0
C1968 C 0.51752 0.50817 0.02711 0.0
C1969 C 0.54413 0.55459 0.98087 0.0
C1970 C 0.50979 0.55559 0.98639 0.0
C1971 C 0.50229 0.53933 0.00131 0.0
C1972 C 0.4815 0.57263 0.97669 0.0
C1973 C 0.55432 0.56938 0.96457 0.0
C1974 C 0.4841 0.60664 0.97146 0.0
C1975 C 0.4604 0.6207 0.96043 0.0
C1976 C 0.43286 0.60153 0.95431 0.0
C1977 C 0.42844 0.56864 0.96084 0.0
C1978 C 0.45224 0.55449 0.97185 0.0
H1979 H 0.57843 0.55821 0.96 0.0
H1980 H 0.53429 0.56515 0.95524 0.0
H1981 H 0.55831 0.59711 0.96593 0.0
H1982 H 0.50553 0.62197 0.97526 0.0
H1983 H 0.46547 0.64569 0.95546 0.0
H1984 H 0.30691 0.68396 0.16315 0.0
H1985 H 0.33914 0.72202 0.145 0.0
H1986 H 0.2456 0.7549 0.12277 0.0
H1987 H 0.21343 0.71684 0.14086 0.0
H1988 H 0.32659 0.73633 0.10367 0.0
H1989 H 0.30455 0.83537 0.15119 0.0
H1990 H 0.30889 0.79105 0.15637 0.0
H1991 H 0.27086 0.80574 0.14671 0.0
C1992 C 0.29351 0.69851 0.15399 0.0
C1993 C 0.25794 0.69729 0.15307 0.0
C1994 C 0.31183 0.72018 0.1437 0.0
C1995 C 0.29462 0.74094 0.13256 0.0
C1996 C 0.25919 0.73872 0.13122 0.0
H1997 H 0.32621 0.89416 0.06167 0.0
H1998 H 0.31659 0.84065 0.07587 0.0
C1999 C 0.24092 0.71718 0.14153 0.0
C2000 C 0.31274 0.76829 0.12391 0.0
H2001 H 0.32725 0.85336 0.12606 0.0
C2002 C 0.32721 0.76188 0.10857 0.0
C2003 C 0.31375 0.80134 0.13053 0.0
C2004 C 0.29885 0.80906 0.14714 0.0
C2005 C 0.34174 0.78824 0.09933 0.0
C2006 C 0.34109 0.82177 0.10558 0.0
C2007 C 0.32782 0.8277 0.12127 0.0
C2008 C 0.35123 0.85167 0.09572 0.0
C2009 C 0.35739 0.77991 0.08298 0.0
C2010 C 0.37386 0.87581 0.10214 0.0
C2011 C 0.37898 0.90676 0.09417 0.0
C2012 C 0.36145 0.91412 0.07964 0.0
C2013 C 0.34018 0.8892 0.07281 0.0
C2014 C 0.33485 0.85842 0.08085 0.0
H2015 H 0.36673 0.75334 0.08266 0.0
H2016 H 0.3378 0.78249 0.07332 0.0
H2017 H 0.37881 0.79725 0.08005 0.0
H2018 H 0.38673 0.87114 0.11362 0.0
H2019 H 0.39616 0.92509 0.09956 0.0
H2020 H 0.13449 0.5564 0.41103 0.0
H2021 H 0.09583 0.58612 0.39231 0.0
H2022 H 0.06097 0.48989 0.37358 0.0
H2023 H 0.09969 0.46023 0.39219 0.0
H2024 H 0.08145 0.57374 0.35321 0.0
H2025 H 0.97982 0.54656 0.39885 0.0
H2026 H 1.02416 0.54895 0.40439 0.0
H2027 H 1.00831 0.51249 0.3937 0.0
C2028 C 0.11936 0.5418 0.40251 0.0
C2029 C 0.12027 0.50621 0.40273 0.0
C2030 C 0.09731 0.5587 0.39189 0.0
C2031 C 0.07577 0.54008 0.38159 0.0
C2032 C 0.07765 0.50457 0.38139 0.0
H2033 H 0.92422 0.57708 0.3092 0.0
H2034 H 0.97699 0.5647 0.32359 0.0
C2035 C 0.0996 0.48772 0.392 0.0
C2036 C 0.04832 0.5572 0.37258 0.0
H2037 H 0.96273 0.56949 0.3736 0.0
C2038 C 0.0555 0.57315 0.35765 0.0
C2039 C 1.01471 0.55667 0.37861 0.0
C2040 C 1.00606 0.54046 0.39481 0.0
C2041 C 1.02945 0.58778 0.34829 0.0
C2042 C 0.99551 0.58596 0.354 0.0
C2043 C 0.98871 0.57093 0.36922 0.0
C2044 C 0.96615 0.59755 0.34416 0.0
C2045 C 0.03852 0.60498 0.3324 0.0
C2046 C 0.94246 0.62018 0.35091 0.0
C2047 C 0.91202 0.627 0.3428 0.0
C2048 C 0.90462 0.61112 0.32781 0.0
C2049 C 0.92917 0.5898 0.3207 0.0
C2050 C 0.9595 0.58285 0.32887 0.0
H2051 H 0.06535 0.61382 0.33239 0.0
H2052 H 0.03554 0.58659 0.32223 0.0
H2053 H 1.0217 0.627 0.33001 0.0
H2054 H 0.94709 0.6318 0.36271 0.0
H2055 H 0.8941 0.64422 0.34844 0.0
H2056 H 0.22993 0.17181 0.55625 0.0
H2057 H 0.24683 0.22431 0.57001 0.0
H2058 H 0.20179 0.18835 0.61486 0.0
H2059 H 0.18437 0.136 0.60124 0.0
H2060 H 0.20972 0.27536 0.58951 0.0
H2061 H 0.30539 0.20152 0.62447 0.0
H2062 H 0.28467 0.18494 0.60649 0.0
H2063 H 0.26254 0.18589 0.62571 0.0
C2064 C 0.22312 0.17525 0.56898 0.0
C2065 C 0.20667 0.14923 0.57775 0.0
C2066 C 0.23278 0.20528 0.5768 0.0
C2067 C 0.22603 0.20984 0.59348 0.0
C2068 C 0.20771 0.18495 0.60202 0.0
H2069 H 0.2631 0.38099 0.65785 0.0
H2070 H 0.23619 0.34108 0.63878 0.0
C2071 C 0.19807 0.15491 0.59424 0.0
C2072 C 0.2407 0.23913 0.60229 0.0
H2073 H 0.29931 0.25923 0.63135 0.0
C2074 C 0.22933 0.272 0.59866 0.0
C2075 C 0.26662 0.23452 0.614 0.0
C2076 C 0.28082 0.19988 0.61786 0.0
C2077 C 0.2429 0.30048 0.60672 0.0
C2078 C 0.26834 0.29574 0.61869 0.0
C2079 C 0.27985 0.26284 0.62214 0.0
C2080 C 0.28357 0.32416 0.62803 0.0
C2081 C 0.23032 0.33531 0.60221 0.0
C2082 C 0.31904 0.32803 0.62829 0.0
C2083 C 0.3343 0.35023 0.63935 0.0
C2084 C 0.3143 0.36944 0.65006 0.0
C2085 C 0.27881 0.36692 0.64936 0.0
C2086 C 0.2635 0.34428 0.63843 0.0
H2087 H 0.21726 0.33533 0.59019 0.0
H2088 H 0.21189 0.34407 0.61157 0.0
H2089 H 0.25166 0.3537 0.60183 0.0
H2090 H 0.335 0.31267 0.62043 0.0
H2091 H 0.36177 0.35169 0.63988 0.0
H2092 H 0.6889 0.4857 0.85636 0.0
H2093 H 0.63397 0.49661 0.86884 0.0
H2094 H 0.58452 0.43902 0.83085 0.0
H2095 H 0.63977 0.42768 0.81818 0.0
H2096 H 0.55503 0.50105 0.8358 0.0
H2097 H 0.57099 0.43537 0.89491 0.0
H2098 H 0.606 0.46329 0.89085 0.0
H2099 H 0.59845 0.42751 0.87762 0.0
C2100 C 0.66662 0.47438 0.85087 0.0
C2101 C 0.66891 0.4552 0.8364 0.0
C2102 C 0.63511 0.48077 0.85802 0.0
C2103 C 0.60525 0.46804 0.85095 0.0
C2104 C 0.60733 0.44878 0.83657 0.0
H2105 H 0.42732 0.51557 0.91065 0.0
H2106 H 0.46292 0.48211 0.89209 0.0
C2107 C 0.6389 0.44238 0.82936 0.0
C2108 C 0.57193 0.47717 0.85806 0.0
H2109 H 0.53002 0.48106 0.89447 0.0
C2110 C 0.54916 0.4961 0.84854 0.0
C2111 C 0.56388 0.47 0.87454 0.0
C2112 C 0.58598 0.44759 0.88501 0.0
C2113 C 0.51982 0.5103 0.85548 0.0
C2114 C 0.51363 0.50594 0.87238 0.0
C2115 C 0.53501 0.4848 0.88155 0.0
C2116 C 0.48761 0.52582 0.88125 0.0
C2117 C 0.49617 0.5304 0.84473 0.0
C2118 C 0.48937 0.56142 0.88117 0.0
C2119 C 0.46878 0.5804 0.89161 0.0
C2120 C 0.44602 0.56408 0.90219 0.0
C2121 C 0.44373 0.52859 0.9021 0.0
C2122 C 0.46425 0.50955 0.89162 0.0
H2123 H 0.49706 0.52124 0.83189 0.0
H2124 H 0.4696 0.52881 0.84921 0.0
H2125 H 0.5041 0.55743 0.84475 0.0
H2126 H 0.50793 0.5745 0.87367 0.0
H2127 H 0.47132 0.60778 0.89178 0.0
H2128 H 0.70051 0.17586 0.93069 0.0
H2129 H 0.71519 0.22975 0.91752 0.0
H2130 H 0.75067 0.17564 0.875 0.0
H2131 H 0.73696 0.12207 0.88796 0.0
H2132 H 0.78128 0.24684 0.90742 0.0
H2133 H 0.69145 0.25116 0.85546 0.0
H2134 H 0.68482 0.22427 0.87307 0.0
H2135 H 0.71338 0.21141 0.85704 0.0
C2136 C 0.71097 0.17545 0.91843 0.0
C2137 C 0.71694 0.1445 0.91034 0.0
C2138 C 0.71924 0.20624 0.91094 0.0
C2139 C 0.73339 0.20659 0.8952 0.0
C2140 C 0.73884 0.1759 0.88698 0.0
H2141 H 0.87271 0.33813 0.84656 0.0
H2142 H 0.84448 0.29675 0.86428 0.0
C2143 C 0.73076 0.14517 0.89444 0.0
C2144 C 0.74568 0.23854 0.88788 0.0
H2145 H 0.74126 0.28606 0.85319 0.0
C2146 C 0.7722 0.25588 0.89569 0.0
C2147 C 0.73353 0.25028 0.87267 0.0
C2148 C 0.70399 0.2335 0.86413 0.0
C2149 C 0.7881 0.28382 0.88831 0.0
C2150 C 0.77733 0.29435 0.87263 0.0
C2151 C 0.74968 0.27791 0.86518 0.0
C2152 C 0.79524 0.32118 0.86331 0.0
C2153 C 0.81637 0.30155 0.89733 0.0
C2154 C 0.77679 0.34796 0.85639 0.0
C2155 C 0.7927 0.37075 0.84582 0.0
C2156 C 0.8275 0.36797 0.84248 0.0
C2157 C 0.84608 0.34147 0.8495 0.0
C2158 C 0.83003 0.31809 0.85976 0.0
H2159 H 0.81553 0.29561 0.91058 0.0
H2160 H 0.84122 0.29258 0.89266 0.0
H2161 H 0.815 0.32946 0.89561 0.0
H2162 H 0.7498 0.35046 0.85866 0.0
H2163 H 0.77749 0.38973 0.8398 0.0
H2164 H 0.13206 0.43318 0.67764 0.0
H2165 H 0.07668 0.44337 0.66496 0.0
H2166 H 0.12622 0.49236 0.62423 0.0
H2167 H 0.18123 0.48252 0.63668 0.0
H2168 H 0.04856 0.50456 0.65788 0.0
H2169 H 0.06045 0.42958 0.60116 0.0
H2170 H 0.08856 0.42379 0.61836 0.0
H2171 H 0.09638 0.45708 0.60372 0.0
C2172 C 0.13116 0.44566 0.66585 0.0
C2173 C 0.16123 0.45641 0.65806 0.0
C2174 C 0.09952 0.45142 0.65864 0.0
C2175 C 0.09739 0.46796 0.6435 0.0
C2176 C 0.12732 0.47853 0.63566 0.0
H2177 H 0.96559 0.60679 0.60051 0.0
H2178 H 1.00157 0.57423 0.61907 0.0
C2179 C 0.1589 0.47276 0.64282 0.0
C2180 C 0.06405 0.47691 0.63637 0.0
H2181 H 1.02138 0.477 0.60019 0.0
C2182 C 0.04217 0.49794 0.64538 0.0
C2183 C 0.05527 0.46764 0.62023 0.0
C2184 C 0.07626 0.44296 0.61039 0.0
C2185 C 1.01316 0.51214 0.63819 0.0
C2186 C 1.00635 0.50565 0.62149 0.0
C2187 C 1.02675 0.48243 0.61293 0.0
C2188 C 0.98091 0.52528 0.6121 0.0
C2189 C 0.99074 0.53465 0.6485 0.0
C2190 C 0.95764 0.50869 0.60181 0.0
C2191 C 0.93763 0.52733 0.59097 0.0
C2192 C 0.94014 0.5628 0.5905 0.0
C2193 C 0.9628 0.57944 0.60098 0.0
C2194 C 0.98305 0.56086 0.61169 0.0
H2195 H 0.98958 0.52532 0.66131 0.0
H2196 H 1.00168 0.56062 0.6488 0.0
H2197 H 0.96455 0.5361 0.64361 0.0
H2198 H 0.95593 0.48125 0.60172 0.0
H2199 H 0.92119 0.514 0.58255 0.0
H2200 H 0.82483 0.8973 0.43369 0.0
H2201 H 0.8127 0.84366 0.41985 0.0
H2202 H 0.87603 0.87428 0.37934 0.0
H2203 H 0.88811 0.92803 0.39304 0.0
H2204 H 0.81218 0.85792 0.37007 0.0
H2205 H 0.8632 0.75626 0.40981 0.0
H2206 H 0.83655 0.78565 0.42058 0.0
H2207 H 0.87597 0.80014 0.41184 0.0
C2208 C 0.83677 0.89228 0.42199 0.0
C2209 C 0.85678 0.91716 0.41429 0.0
C2210 C 0.83 0.86151 0.41415 0.0
C2211 C 0.84364 0.8549 0.39861 0.0
C2212 C 0.86524 0.87892 0.39133 0.0
H2213 H 0.80215 0.68721 0.33171 0.0
H2214 H 0.83199 0.72605 0.3504 0.0
C2215 C 0.87184 0.90975 0.3991 0.0
C2216 C 0.83166 0.82539 0.38903 0.0
H2217 H 0.8225 0.73923 0.38953 0.0
C2218 C 0.81486 0.83194 0.37425 0.0
C2219 C 0.8351 0.79153 0.39452 0.0
C2220 C 0.85398 0.78289 0.40998 0.0
C2221 C 0.80054 0.80566 0.36504 0.0
C2222 C 0.80288 0.77203 0.37083 0.0
C2223 C 0.82051 0.76517 0.38531 0.0
C2224 C 0.78603 0.74416 0.36198 0.0
C2225 C 0.78246 0.81402 0.34929 0.0
C2226 C 0.75058 0.74112 0.36271 0.0
C2227 C 0.73367 0.71918 0.3521 0.0
C2228 C 0.75209 0.69967 0.34086 0.0
C2229 C 0.78767 0.70158 0.34059 0.0
C2230 C 0.80463 0.72365 0.3512 0.0
H2231 H 0.78745 0.84048 0.34525 0.0
H2232 H 0.79045 0.79638 0.33942 0.0
H2233 H 0.75468 0.81089 0.35107 0.0
H2234 H 0.73594 0.75701 0.37091 0.0
H2235 H 0.70616 0.71826 0.35227 0.0
H2236 H 0.63953 0.55845 0.08327 0.0
H2237 H 0.60075 0.58701 0.10246 0.0
H2238 H 0.56318 0.48966 0.11849 0.0
H2239 H 0.60196 0.46122 0.09944 0.0
H2240 H 0.51447 0.54033 0.10396 0.0
H2241 H 0.59363 0.58988 0.15517 0.0
H2242 H 0.6101 0.59051 0.13454 0.0
H2243 H 0.6038 0.55079 0.14473 0.0
C2244 C 0.62375 0.54332 0.09131 0.0
C2245 C 0.62395 0.50779 0.09022 0.0
C2246 C 0.60167 0.55955 0.1022 0.0
C2247 C 0.57945 0.54033 0.11195 0.0
C2248 C 0.58043 0.50481 0.11116 0.0
H2249 H 0.42737 0.57546 0.18434 0.0
H2250 H 0.47965 0.56283 0.16939 0.0
C2251 C 0.60243 0.48866 0.10031 0.0
C2252 C 0.55203 0.55692 0.12129 0.0
H2253 H 0.53466 0.60027 0.15643 0.0
C2254 C 0.51882 0.55375 0.11536 0.0
C2255 C 0.55802 0.57404 0.13616 0.0
C2256 C 0.59327 0.57666 0.14317 0.0
C2257 C 0.49114 0.56676 0.12409 0.0
C2258 C 0.49701 0.58405 0.139 0.0
C2259 C 0.53035 0.5875 0.14487 0.0
C2260 C 0.4684 0.59623 0.14915 0.0
C2261 C 0.45576 0.56063 0.1176 0.0
C2262 C 0.44551 0.6203 0.14303 0.0
C2263 C 0.41548 0.62738 0.15147 0.0
C2264 C 0.40801 0.61064 0.16624 0.0
C2265 C 0.4323 0.5886 0.17295 0.0
C2266 C 0.4622 0.58136 0.16444 0.0
H2267 H 0.45534 0.54064 0.10801 0.0
H2268 H 0.43822 0.55298 0.12759 0.0
H2269 H 0.44598 0.5844 0.1121 0.0
H2270 H 0.45029 0.63264 0.13141 0.0
H2271 H 0.39779 0.64531 0.14622 0.0
H2272 H 0.87706 0.38647 0.55744 0.0
H2273 H 0.86786 0.33054 0.56998 0.0
H2274 H 0.81078 0.37756 0.60891 0.0
H2275 H 0.81982 0.43292 0.59665 0.0
H2276 H 0.85842 0.33123 0.61986 0.0
H2277 H 0.77801 0.27723 0.57018 0.0
H2278 H 0.81939 0.29305 0.5647 0.0
H2279 H 0.78725 0.32202 0.5715 0.0
C2280 C 0.86267 0.38477 0.56871 0.0
C2281 C 0.84973 0.41419 0.5762 0.0
C2282 C 0.85734 0.35285 0.5758 0.0
C2283 C 0.83853 0.34997 0.59032 0.0
C2284 C 0.82563 0.37929 0.59776 0.0
H2285 H 0.70787 0.22186 0.63953 0.0
H2286 H 0.73961 0.25669 0.62001 0.0
C2287 C 0.83109 0.41102 0.59079 0.0
C2288 C 0.83163 0.31676 0.59805 0.0
H2289 H 0.78173 0.24625 0.59455 0.0
C2290 C 0.84221 0.31221 0.61426 0.0
C2291 C 0.81048 0.29218 0.59062 0.0
C2292 C 0.79785 0.29622 0.57333 0.0
C2293 C 0.83007 0.28518 0.62373 0.0
C2294 C 0.80764 0.26133 0.61654 0.0
C2295 C 0.79905 0.26451 0.59995 0.0
C2296 C 0.78881 0.2364 0.62662 0.0
C2297 C 0.83922 0.28414 0.64165 0.0
C2298 C 0.80583 0.2129 0.63655 0.0
C2299 C 0.78774 0.19369 0.64799 0.0
C2300 C 0.75231 0.19663 0.64909 0.0
C2301 C 0.73519 0.21899 0.63869 0.0
C2302 C 0.75327 0.23863 0.62749 0.0
H2303 H 0.85118 0.30817 0.64585 0.0
H2304 H 0.81636 0.27934 0.64929 0.0
H2305 H 0.85758 0.26332 0.6438 0.0
H2306 H 0.83317 0.21039 0.6359 0.0
H2307 H 0.80147 0.17726 0.65621 0.0
H2308 H 0.63579 0.04569 0.91075 0.0
H2309 H 0.5968 0.07536 0.8922 0.0
H2310 H 0.55941 0.97904 0.87472 0.0
H2311 H 0.59842 0.94942 0.89322 0.0
H2312 H 0.58124 0.06546 0.85452 0.0
H2313 H 0.47927 0.03414 0.89929 0.0
H2314 H 0.52371 0.03459 0.90473 0.0
H2315 H 0.50659 0.99982 0.89319 0.0
C2316 C 0.61998 1.03103 0.90254 0.0
C2317 C 0.62027 0.99545 0.90308 0.0
C2318 C 0.59776 0.0479 0.89202 0.0
C2319 C 0.57539 1.02928 0.88215 0.0
C2320 C 0.57668 0.99372 0.88223 0.0
H2321 H 0.42414 0.07272 0.81031 0.0
H2322 H 0.47685 0.05887 0.82441 0.0
C2323 C 0.59882 0.97689 0.89275 0.0
C2324 C 0.54786 0.04663 0.8733 0.0
H2325 H 0.4622 0.05846 0.87429 0.0
C2326 C 0.55521 0.06419 0.85882 0.0
C2327 C 0.51415 0.04533 0.87919 0.0
C2328 C 0.50527 1.02769 0.89502 0.0
C2329 C 0.52925 0.07964 0.84971 0.0
C2330 C 0.49525 0.07709 0.85526 0.0
C2331 C 0.48825 0.06041 0.87005 0.0
C2332 C 0.46604 0.08976 0.84567 0.0
C2333 C 0.53847 0.09853 0.8343 0.0
C2334 C 0.44243 0.11182 0.8529 0.0
C2335 C 0.41204 0.11949 0.84495 0.0
C2336 C 0.40461 0.10503 0.82964 0.0
C2337 C 0.4291 0.08433 0.82207 0.0
C2338 C 0.4594 0.07655 0.83007 0.0
H2339 H 0.56534 0.10721 0.83451 0.0
H2340 H 0.53538 0.08131 0.82366 0.0
H2341 H 0.52176 0.12087 0.83248 0.0
H2342 H 0.44709 0.12229 0.86495 0.0
H2343 H 0.39416 0.13624 0.85095 0.0
H2344 H 0.76123 0.89163 0.16067 0.0
H2345 H 0.73123 0.85376 0.14157 0.0
H2346 H 0.82717 0.82293 0.12091 0.0
H2347 H 0.85711 0.86063 0.13999 0.0
H2348 H 0.75087 0.83924 0.09965 0.0
H2349 H 0.76394 0.74212 0.14881 0.0
H2350 H 0.75713 0.7863 0.15361 0.0
H2351 H 0.79732 0.77287 0.14565 0.0
C2352 C 0.77566 0.87751 0.15168 0.0
C2353 C 0.81126 0.87913 0.15151 0.0
C2354 C 0.75861 0.85602 0.14083 0.0
C2355 C 0.77711 0.83586 0.12984 0.0
C2356 C 0.81258 0.83863 0.12922 0.0
H2357 H 0.74959 0.67911 0.05928 0.0
H2358 H 0.76024 0.73281 0.07318 0.0
C2359 C 0.82959 0.85994 0.1401 0.0
C2360 C 0.76024 0.80829 0.12079 0.0
H2361 H 0.74329 0.72373 0.12346 0.0
C2362 C 0.74872 0.81404 0.10484 0.0
C2363 C 0.75743 0.77565 0.12773 0.0
C2364 C 0.76948 0.76856 0.14491 0.0
C2365 C 0.73499 0.78749 0.09544 0.0
C2366 C 0.73355 0.75435 0.10215 0.0
C2367 C 0.74421 0.74908 0.11832 0.0
C2368 C 0.72346 0.72413 0.09246 0.0
C2369 C 0.72218 0.79529 0.07849 0.0
C2370 C 0.69947 0.70106 0.09872 0.0
C2371 C 0.69391 0.66992 0.09099 0.0
C2372 C 0.71218 0.66133 0.0768 0.0
C2373 C 0.73498 0.6851 0.07014 0.0
C2374 C 0.74087 0.71601 0.078 0.0
H2375 H 0.71423 0.82224 0.07743 0.0
H2376 H 0.74292 0.79105 0.06952 0.0
H2377 H 0.7004 0.77875 0.07517 0.0
H2378 H 0.68579 0.70674 0.10989 0.0
H2379 H 0.6757 0.65241 0.09625 0.0
H2380 H 0.1364 0.93621 0.31006 0.0
H2381 H 0.07988 0.94412 0.32225 0.0
H2382 H 0.12417 1.00626 0.36012 0.0
H2383 H 0.18019 0.99806 0.34829 0.0
H2384 H 0.07994 0.9596 0.37219 0.0
H2385 H 1.02204 1.02938 0.31998 0.0
H2386 H 0.03849 0.98772 0.3159 0.0
H2387 H 0.06711 1.02153 0.32113 0.0
C2388 C 0.13394 0.95141 0.32103 0.0
C2389 C 0.16276 0.96605 0.32837 0.0
C2390 C 0.10169 0.95606 0.32791 0.0
C2391 C 0.09783 0.97598 0.34201 0.0
C2392 C 0.12662 0.99056 0.34929 0.0
H2393 H 0.96613 0.10791 0.38693 0.0
H2394 H 1.00086 0.07436 0.36809 0.0
C2395 C 0.15871 0.98565 0.34257 0.0
C2396 C 0.0642 0.9822 0.34952 0.0
H2397 H 0.99124 1.02753 0.34447 0.0
C2398 C 0.06018 0.97393 0.36609 0.0
C2399 C 0.03849 1.0007 0.34142 0.0
C2400 C 0.04161 1.01061 0.32366 0.0
C2401 C 1.03272 0.98623 0.37521 0.0
C2402 C 1.00783 1.00626 0.36733 0.0
C2403 C 1.01037 1.01214 0.35043 0.0
C2404 C 0.9825 1.02575 0.37684 0.0
C2405 C 1.03234 0.97999 0.39344 0.0
C2406 C 0.96002 1.0096 0.38769 0.0
C2407 C 0.9409 1.0288 0.39871 0.0
C2408 C 0.94286 0.06432 0.39846 0.0
C2409 C 0.96401 0.08049 0.3871 0.0
C2410 C 0.98359 0.06136 0.37631 0.0
H2411 H 0.05689 0.96973 0.39792 0.0
H2412 H 1.02689 1.00379 0.40021 0.0
H2413 H 1.01222 0.96124 0.39643 0.0
H2414 H 0.95835 0.9822 0.38812 0.0
H2415 H 0.92543 1.01592 0.40771 0.0
H2416 H 0.35517 0.85251 0.35153 0.0
H2417 H 0.32256 0.81647 0.37027 0.0
H2418 H 0.22934 0.86024 0.35238 0.0
H2419 H 0.26205 0.89494 0.33304 0.0
H2420 H 0.27636 0.82616 0.39489 0.0
H2421 H 0.21679 0.76128 0.34161 0.0
H2422 H 0.25119 0.79109 0.33927 0.0
H2423 H 0.20882 0.80597 0.34319 0.0
C2424 C 0.32774 0.85462 0.3518 0.0
C2425 C 0.31096 0.87669 0.34114 0.0
C2426 C 0.30916 0.83427 0.36253 0.0
C2427 C 0.27351 0.83543 0.36258 0.0
C2428 C 0.25679 0.8586 0.35237 0.0
H2429 H 0.1796 0.68674 0.43055 0.0
H2430 H 0.1894 0.7419 0.41738 0.0
C2431 C 0.27541 0.87868 0.34149 0.0
C2432 C 0.25434 0.80987 0.37212 0.0
H2433 H 0.20586 0.7387 0.36745 0.0
C2434 C 0.26043 0.80732 0.38899 0.0
C2435 C 0.23376 0.78525 0.3643 0.0
C2436 C 0.22737 0.78573 0.34609 0.0
C2437 C 0.24808 0.77971 0.39809 0.0
C2438 C 0.22866 0.75443 0.3901 0.0
C2439 C 0.22076 0.75819 0.37349 0.0
C2440 C 0.22068 0.72151 0.39794 0.0
C2441 C 0.25779 0.7767 0.41587 0.0
C2442 C 0.23415 0.69178 0.39111 0.0
C2443 C 0.22818 0.66043 0.3984 0.0
C2444 C 0.20856 0.65809 0.41272 0.0
C2445 C 0.1948 0.68784 0.41951 0.0
C2446 C 0.20053 0.71933 0.41207 0.0
H2447 H 0.27739 0.79557 0.41944 0.0
H2448 H 0.23503 0.78101 0.4236 0.0
H2449 H 0.26758 0.7509 0.41855 0.0
H2450 H 0.24998 0.69292 0.38026 0.0
H2451 H 0.23996 0.63822 0.39307 0.0
H2452 H 0.46872 0.11086 0.10246 0.0
H2453 H 0.50558 0.08034 0.12163 0.0
H2454 H 0.46841 0.98489 0.103 0.0
H2455 H 0.43163 1.01547 0.08373 0.0
H2456 H 0.48368 1.00453 0.14401 0.0
H2457 H 0.58278 1.01283 0.09533 0.0
H2458 H 0.55458 0.04826 0.0984 0.0
H2459 H 0.53821 1.00914 0.09047 0.0
C2460 C 0.46799 0.08338 0.10276 0.0
C2461 C 0.44712 0.06532 0.09195 0.0
C2462 C 0.48877 0.06606 0.11372 0.0
C2463 C 0.4893 1.0305 0.11377 0.0
C2464 C 0.46779 1.01236 0.10327 0.0
H2465 H 0.66948 0.92703 0.14901 0.0
H2466 H 0.61513 0.93624 0.13532 0.0
C2467 C 0.4469 1.02974 0.09231 0.0
C2468 C 0.51586 1.01281 0.12308 0.0
H2469 H 0.59997 0.9935 0.12112 0.0
C2470 C 0.50905 1.0016 0.13902 0.0
C2471 C 0.54864 1.00886 0.11638 0.0
C2472 C 0.55676 1.02023 0.09918 0.0
C2473 C 0.53483 0.98727 0.14866 0.0
C2474 C 0.56821 0.98497 0.14224 0.0
C2475 C 0.57443 0.99513 0.12605 0.0
C2476 C 0.59785 0.9748 0.15225 0.0
C2477 C 0.526 0.97486 0.16558 0.0
C2478 C 0.60591 0.99281 0.16654 0.0
C2479 C 0.63687 0.98748 0.17442 0.0
C2480 C 0.66069 0.96458 0.16795 0.0
C2481 C 0.65195 0.94538 0.15409 0.0
C2482 C 0.62079 0.95043 0.14633 0.0
H2483 H 0.49913 0.96625 0.16621 0.0
H2484 H 0.54265 0.95363 0.16942 0.0
H2485 H 0.52904 0.99605 0.17441 0.0
H2486 H 0.58911 1.01236 0.17113 0.0
H2487 H 0.64296 1.00272 0.18505 0.0
H2488 H 0.38148 0.38744 0.9308 0.0
H2489 H 0.37292 0.33206 0.91772 0.0
H2490 H 0.32164 0.38082 0.87758 0.0
H2491 H 0.32983 0.43572 0.89042 0.0
H2492 H 0.31291 0.30153 0.91043 0.0
H2493 H 0.3868 0.31892 0.85368 0.0
H2494 H 0.39176 0.34647 0.87117 0.0
H2495 H 0.35814 0.35365 0.85666 0.0
C2496 C 0.36878 0.38635 0.91907 0.0
C2497 C 0.35703 0.41615 0.91152 0.0
C2498 C 0.36399 0.35474 0.91162 0.0
C2499 C 0.34741 0.35245 0.89649 0.0
C2500 C 0.33558 0.38211 0.88897 0.0
H2501 H 0.21134 0.22092 0.85188 0.0
H2502 H 0.24369 0.25671 0.87071 0.0
C2503 C 0.34038 0.41361 0.89636 0.0
C2504 C 0.3397 0.31911 0.88903 0.0
H2505 H 0.3401 0.27855 0.85223 0.0
C2506 C 0.31949 0.29608 0.89782 0.0
C2507 C 0.34899 0.31154 0.87272 0.0
C2508 C 0.37295 0.33382 0.86309 0.0
C2509 C 0.30593 0.26711 0.89026 0.0
C2510 C 0.3122 0.26157 0.87344 0.0
C2511 C 0.33479 0.28305 0.86507 0.0
C2512 C 0.29275 0.23635 0.8638 0.0
C2513 C 0.2844 0.24318 0.90026 0.0
C2514 C 0.30955 0.21335 0.85346 0.0
C2515 C 0.29103 0.19333 0.84252 0.0
C2516 C 0.25554 0.19575 0.84194 0.0
C2517 C 0.23871 0.21827 0.85242 0.0
C2518 C 0.25715 0.23838 0.86328 0.0
H2519 H 0.29224 0.24337 0.9133 0.0
H2520 H 0.25748 0.25136 0.89973 0.0
H2521 H 0.28616 0.21689 0.89552 0.0
H2522 H 0.33702 0.2118 0.85345 0.0
H2523 H 0.30449 0.177 0.83411 0.0
H2524 H 0.12967 0.03796 0.58545 0.0
H2525 H 0.08846 0.05896 0.60557 0.0
H2526 H 0.0647 0.95594 0.61936 0.0
H2527 H 0.10596 0.93501 0.59922 0.0
H2528 H 1.00911 0.99419 0.60874 0.0
H2529 H 0.08224 0.06396 0.65612 0.0
H2530 H 0.0957 0.0709 0.63534 0.0
H2531 H 0.09963 1.02943 0.64424 0.0
C2532 C 0.11649 1.01999 0.59324 0.0
C2533 C 0.12129 0.98502 0.59119 0.0
C2534 C 0.09305 1.03193 0.60471 0.0
C2535 C 0.07392 1.00898 0.61411 0.0
C2536 C 0.07954 0.97402 0.61237 0.0
H2537 H 0.9176 0.06881 0.6845 0.0
H2538 H 0.96867 0.04483 0.67185 0.0
C2539 C 0.10301 0.96211 0.60092 0.0
C2540 C 0.04478 1.0212 0.62388 0.0
H2541 H 1.02276 0.07409 0.65518 0.0
C2542 C 1.01208 1.0114 0.619 0.0
C2543 C 0.0488 0.04325 0.63735 0.0
C2544 C 0.08346 0.05243 0.64373 0.0
C2545 C 0.98316 1.02399 0.6269 0.0
C2546 C 0.9871 0.04764 0.63978 0.0
C2547 C 1.01984 0.05644 0.64509 0.0
C2548 C 0.9574 0.06378 0.64765 0.0
C2549 C 0.94865 1.01175 0.6214 0.0
C2550 C 0.93479 0.08317 0.6383 0.0
C2551 C 0.9056 0.0967 0.64544 0.0
C2552 C 0.89864 0.09127 0.6621 0.0
C2553 C 0.92219 0.0732 0.67161 0.0
C2554 C 0.95132 0.05948 0.66442 0.0
H2555 H 0.95031 0.98697 0.61497 0.0
H2556 H 0.93099 1.00905 0.63193 0.0
H2557 H 0.93773 1.03045 0.61276 0.0
H2558 H 0.93959 0.08762 0.62544 0.0
H2559 H 0.88858 0.11146 0.63789 0.0
loop_
_geom_bond_atom_site_label_1
_geom_bond_atom_site_label_2
_geom_bond_distance
_geom_bond_site_symmetry_2
_ccdc_geom_bond_type
Zn0 N4 2.020 . S
Zn0 O8 2.019 1_545 S
Zn0 N10 2.119 1_545 S
Zn0 O18 1.975 . S
C1 N2 1.334 . S
C1 N5 1.336 . S
N2 C1 1.334 . S
N2 C3 1.334 . S
C3 N2 1.334 . S
C3 N4 1.336 . S
N4 Zn0 2.020 . S
N4 C3 1.336 . S
N4 N5 1.354 . S
N5 C1 1.336 . S
N5 N4 1.354 . S
N5 Zn9 2.020 . S
C6 O7 1.244 . S
C6 O30 1.257 . S
O7 C6 1.244 . S
O8 Zn0 2.019 1_565 S
O8 C28 1.257 1_565 S
Zn9 N5 2.020 . S
Zn9 O16 1.975 . S
Zn9 N25 2.119 . S
Zn9 O30 2.019 . S
N10 Zn0 2.119 1_565 S
N10 C12 1.334 . S
N10 C13 1.328 . S
C11 C12 1.391 . S
C11 N14 1.329 . S
C11 H32 0.930 . S
C12 N10 1.334 . S
C12 C11 1.391 . S
C12 H19 0.930 . S
C13 N10 1.328 . S
C13 C15 1.392 . S
C13 H20 0.930 . S
N14 C11 1.329 . S
N14 C15 1.331 . S
C15 C13 1.392 . S
C15 N14 1.331 . S
O16 Zn9 1.975 . S
O16 C17 1.252 . S
C17 O16 1.252 . S
C17 O18 1.252 . S
O18 Zn0 1.975 . S
O18 C17 1.252 . S
H19 C12 0.930 . S
H20 C13 0.930 . S
C21 C22 1.392 . S
C21 N25 1.328 . S
C21 H27 0.930 . S
C22 C21 1.392 . S
C22 N26 1.331 . S
C23 C24 1.391 . S
C23 N26 1.329 . S
C23 H33 0.930 . S
C24 C23 1.391 . S
C24 N25 1.334 . S
C24 H31 0.930 . S
N25 Zn9 2.119 . S
N25 C21 1.328 . S
N25 C24 1.334 . S
N26 C22 1.331 . S
N26 C23 1.329 . S
H27 C21 0.930 . S
C28 O8 1.257 1_545 S
C28 O29 1.244 . S
O29 C28 1.244 . S
O30 C6 1.257 . S
O30 Zn9 2.019 . S
H31 C24 0.930 . S
H32 C11 0.930 . S
H33 C23 0.930 . S
Zn34 N38 2.020 . S
Zn34 O42 2.019 . S
Zn34 N44 2.119 . S
Zn34 O52 1.975 . S
C35 N36 1.334 . S
C35 N39 1.336 . S
N36 C35 1.334 . S
N36 C37 1.334 . S
C37 N36 1.334 . S
C37 N38 1.336 . S
N38 Zn34 2.020 . S
N38 C37 1.336 . S
N38 N39 1.354 . S
N39 C35 1.336 . S
N39 N38 1.354 . S
N39 Zn43 2.020 . S
C40 O41 1.244 . S
C40 O64 1.257 . S
O41 C40 1.244 . S
O42 Zn34 2.019 . S
O42 C62 1.257 . S
Zn43 N39 2.020 . S
Zn43 O50 1.975 . S
Zn43 N59 2.119 . S
Zn43 O64 2.019 . S
N44 Zn34 2.119 . S
N44 C46 1.334 . S
N44 C47 1.328 . S
C45 C46 1.391 . S
C45 N48 1.329 . S
C45 H66 0.930 . S
C46 N44 1.334 . S
C46 C45 1.391 . S
C46 H53 0.930 . S
C47 N44 1.328 . S
C47 C49 1.392 . S
C47 H54 0.930 . S
N48 C45 1.329 . S
N48 C49 1.331 . S
C49 C47 1.392 . S
C49 N48 1.331 . S
O50 Zn43 1.975 . S
O50 C51 1.252 . S
C51 O50 1.252 . S
C51 O52 1.252 . S
O52 Zn34 1.975 . S
O52 C51 1.252 . S
H53 C46 0.930 . S
H54 C47 0.930 . S
C55 C56 1.392 . S
C55 N59 1.328 . S
C55 H61 0.930 . S
C56 C55 1.392 . S
C56 N60 1.331 . S
C57 C58 1.391 . S
C57 N60 1.329 . S
C57 H67 0.930 . S
C58 C57 1.391 . S
C58 N59 1.334 . S
C58 H65 0.930 . S
N59 Zn43 2.119 . S
N59 C55 1.328 . S
N59 C58 1.334 . S
N60 C56 1.331 . S
N60 C57 1.329 . S
H61 C55 0.930 . S
C62 O42 1.257 . S
C62 O63 1.244 . S
O63 C62 1.244 . S
O64 C40 1.257 . S
O64 Zn43 2.019 . S
H65 C58 0.930 . S
H66 C45 0.930 . S
H67 C57 0.930 . S
Zn68 N72 2.020 . S
Zn68 O76 2.019 1_565 S
Zn68 N78 2.119 1_565 S
Zn68 O86 1.975 . S
C69 N70 1.334 . S
C69 N73 1.336 . S
N70 C69 1.334 . S
N70 C71 1.334 . S
C71 N70 1.334 . S
C71 N72 1.336 . S
N72 Zn68 2.020 . S
N72 C71 1.336 . S
N72 N73 1.354 . S
N73 C69 1.336 . S
N73 N72 1.354 . S
N73 Zn77 2.020 . S
C74 O75 1.244 . S
C74 O98 1.257 . S
O75 C74 1.244 . S
O76 Zn68 2.019 1_545 S
O76 C96 1.257 1_545 S
Zn77 N73 2.020 . S
Zn77 O84 1.975 . S
Zn77 N93 2.119 . S
Zn77 O98 2.019 . S
N78 Zn68 2.119 1_545 S
N78 C80 1.334 . S
N78 C81 1.328 . S
C79 C80 1.391 . S
C79 N82 1.329 . S
C79 H100 0.930 . S
C80 N78 1.334 . S
C80 C79 1.391 . S
C80 H87 0.930 . S
C81 N78 1.328 . S
C81 C83 1.392 . S
C81 H88 0.930 . S
N82 C79 1.329 . S
N82 C83 1.331 . S
C83 C81 1.392 . S
C83 N82 1.331 . S
O84 Zn77 1.975 . S
O84 C85 1.252 . S
C85 O84 1.252 . S
C85 O86 1.252 . S
O86 Zn68 1.975 . S
O86 C85 1.252 . S
H87 C80 0.930 . S
H88 C81 0.930 . S
C89 C90 1.392 . S
C89 N93 1.328 . S
C89 H95 0.930 . S
C90 C89 1.392 . S
C90 N94 1.331 . S
C91 C92 1.391 . S
C91 N94 1.329 . S
C91 H101 0.930 . S
C92 C91 1.391 . S
C92 N93 1.334 . S
C92 H99 0.930 . S
N93 Zn77 2.119 . S
N93 C89 1.328 . S
N93 C92 1.334 . S
N94 C90 1.331 . S
N94 C91 1.329 . S
H95 C89 0.930 . S
C96 O76 1.257 1_565 S
C96 O97 1.244 . S
O97 C96 1.244 . S
O98 C74 1.257 . S
O98 Zn77 2.019 . S
H99 C92 0.930 . S
H100 C79 0.930 . S
H101 C91 0.930 . S
Zn102 N106 2.020 . S
Zn102 O110 2.019 . S
Zn102 N112 2.119 . S
Zn102 O120 1.975 . S
C103 N104 1.334 . S
C103 N107 1.336 . S
N104 C103 1.334 . S
N104 C105 1.334 . S
C105 N104 1.334 . S
C105 N106 1.336 . S
N106 Zn102 2.020 . S
N106 C105 1.336 . S
N106 N107 1.354 . S
N107 C103 1.336 . S
N107 N106 1.354 . S
N107 Zn111 2.020 . S
C108 O109 1.244 . S
C108 O132 1.257 . S
O109 C108 1.244 . S
O110 Zn102 2.019 . S
O110 C130 1.257 . S
Zn111 N107 2.020 . S
Zn111 O118 1.975 . S
Zn111 N127 2.119 . S
Zn111 O132 2.019 . S
N112 Zn102 2.119 . S
N112 C114 1.334 . S
N112 C115 1.328 . S
C113 C114 1.391 . S
C113 N116 1.329 . S
C113 H134 0.930 . S
C114 N112 1.334 . S
C114 C113 1.391 . S
C114 H121 0.930 . S
C115 N112 1.328 . S
C115 C117 1.392 . S
C115 H122 0.930 . S
N116 C113 1.329 . S
N116 C117 1.331 . S
C117 C115 1.392 . S
C117 N116 1.331 . S
O118 Zn111 1.975 . S
O118 C119 1.252 . S
C119 O118 1.252 . S
C119 O120 1.252 . S
O120 Zn102 1.975 . S
O120 C119 1.252 . S
H121 C114 0.930 . S
H122 C115 0.930 . S
C123 C124 1.392 . S
C123 N127 1.328 . S
C123 H129 0.930 . S
C124 C123 1.392 . S
C124 N128 1.331 . S
C125 C126 1.391 . S
C125 N128 1.329 . S
C125 H135 0.930 . S
C126 C125 1.391 . S
C126 N127 1.334 . S
C126 H133 0.930 . S
N127 Zn111 2.119 . S
N127 C123 1.328 . S
N127 C126 1.334 . S
N128 C124 1.331 . S
N128 C125 1.329 . S
H129 C123 0.930 . S
C130 O110 1.257 . S
C130 O131 1.244 . S
O131 C130 1.244 . S
O132 C108 1.257 . S
O132 Zn111 2.019 . S
H133 C126 0.930 . S
H134 C113 0.930 . S
H135 C125 0.930 . S
Zn136 N140 2.020 . S
Zn136 O144 2.019 1_565 S
Zn136 N146 2.119 1_565 S
Zn136 O154 1.975 . S
C137 N138 1.334 . S
C137 N141 1.336 . S
N138 C137 1.334 . S
N138 C139 1.334 . S
C139 N138 1.334 . S
C139 N140 1.336 . S
N140 Zn136 2.020 . S
N140 C139 1.336 . S
N140 N141 1.354 . S
N141 C137 1.336 . S
N141 N140 1.354 . S
N141 Zn145 2.020 . S
C142 O143 1.244 . S
C142 O166 1.257 . S
O143 C142 1.244 . S
O144 Zn136 2.019 1_545 S
O144 C164 1.257 1_545 S
Zn145 N141 2.020 . S
Zn145 O152 1.975 . S
Zn145 N161 2.119 . S
Zn145 O166 2.019 . S
N146 Zn136 2.119 1_545 S
N146 C148 1.334 . S
N146 C149 1.328 . S
C147 C148 1.391 . S
C147 N150 1.329 . S
C147 H168 0.930 . S
C148 N146 1.334 . S
C148 C147 1.391 . S
C148 H155 0.930 . S
C149 N146 1.328 . S
C149 C151 1.392 . S
C149 H156 0.930 . S
N150 C147 1.329 . S
N150 C151 1.331 . S
C151 C149 1.392 . S
C151 N150 1.331 . S
O152 Zn145 1.975 . S
O152 C153 1.252 . S
C153 O152 1.252 . S
C153 O154 1.252 . S
O154 Zn136 1.975 . S
O154 C153 1.252 . S
H155 C148 0.930 . S
H156 C149 0.930 . S
C157 C158 1.392 . S
C157 N161 1.328 . S
C157 H163 0.930 . S
C158 C157 1.392 . S
C158 N162 1.331 . S
C159 C160 1.391 . S
C159 N162 1.329 . S
C159 H169 0.930 . S
C160 C159 1.391 . S
C160 N161 1.334 . S
C160 H167 0.930 . S
N161 Zn145 2.119 . S
N161 C157 1.328 . S
N161 C160 1.334 . S
N162 C158 1.331 . S
N162 C159 1.329 . S
H163 C157 0.930 . S
C164 O144 1.257 1_565 S
C164 O165 1.244 . S
O165 C164 1.244 . S
O166 C142 1.257 . S
O166 Zn145 2.019 . S
H167 C160 0.930 . S
H168 C147 0.930 . S
H169 C159 0.930 . S
Zn170 N174 2.020 . S
Zn170 O178 2.019 . S
Zn170 N180 2.119 . S
Zn170 O188 1.975 . S
C171 N172 1.334 . S
C171 N175 1.336 . S
N172 C171 1.334 . S
N172 C173 1.334 . S
C173 N172 1.334 . S
C173 N174 1.336 . S
N174 Zn170 2.020 . S
N174 C173 1.336 . S
N174 N175 1.354 . S
N175 C171 1.336 . S
N175 N174 1.354 . S
N175 Zn179 2.020 . S
C176 O177 1.244 . S
C176 O200 1.257 . S
O177 C176 1.244 . S
O178 Zn170 2.019 . S
O178 C198 1.257 . S
Zn179 N175 2.020 . S
Zn179 O186 1.975 . S
Zn179 N195 2.119 . S
Zn179 O200 2.019 . S
N180 Zn170 2.119 . S
N180 C182 1.334 . S
N180 C183 1.328 . S
C181 C182 1.391 . S
C181 N184 1.329 . S
C181 H202 0.930 . S
C182 N180 1.334 . S
C182 C181 1.391 . S
C182 H189 0.930 . S
C183 N180 1.328 . S
C183 C185 1.392 . S
C183 H190 0.930 . S
N184 C181 1.329 . S
N184 C185 1.331 . S
C185 C183 1.392 . S
C185 N184 1.331 . S
O186 Zn179 1.975 . S
O186 C187 1.252 . S
C187 O186 1.252 . S
C187 O188 1.252 . S
O188 Zn170 1.975 . S
O188 C187 1.252 . S
H189 C182 0.930 . S
H190 C183 0.930 . S
C191 C192 1.392 . S
C191 N195 1.328 . S
C191 H197 0.930 . S
C192 C191 1.392 . S
C192 N196 1.331 . S
C193 C194 1.391 . S
C193 N196 1.329 . S
C193 H203 0.930 . S
C194 C193 1.391 . S
C194 N195 1.334 . S
C194 H201 0.930 . S
N195 Zn179 2.119 . S
N195 C191 1.328 . S
N195 C194 1.334 . S
N196 C192 1.331 . S
N196 C193 1.329 . S
H197 C191 0.930 . S
C198 O178 1.257 . S
C198 O199 1.244 . S
O199 C198 1.244 . S
O200 C176 1.257 . S
O200 Zn179 2.019 . S
H201 C194 0.930 . S
H202 C181 0.930 . S
H203 C193 0.930 . S
Zn204 N208 2.020 . S
Zn204 O212 2.019 . S
Zn204 N214 2.119 . S
Zn204 O222 1.975 . S
C205 N206 1.334 . S
C205 N209 1.336 . S
N206 C205 1.334 . S
N206 C207 1.334 . S
C207 N206 1.334 . S
C207 N208 1.336 . S
N208 Zn204 2.020 . S
N208 C207 1.336 . S
N208 N209 1.354 . S
N209 C205 1.336 . S
N209 N208 1.354 . S
N209 Zn213 2.020 . S
C210 O211 1.244 . S
C210 O234 1.257 1_545 S
O211 C210 1.244 . S
O212 Zn204 2.019 . S
O212 C232 1.257 . S
Zn213 N209 2.020 . S
Zn213 O220 1.975 . S
Zn213 N229 2.119 1_545 S
Zn213 O234 2.019 1_545 S
N214 Zn204 2.119 . S
N214 C216 1.334 . S
N214 C217 1.328 . S
C215 C216 1.391 . S
C215 N218 1.329 . S
C215 H236 0.930 . S
C216 N214 1.334 . S
C216 C215 1.391 . S
C216 H223 0.930 . S
C217 N214 1.328 . S
C217 C219 1.392 . S
C217 H224 0.930 . S
N218 C215 1.329 . S
N218 C219 1.331 . S
C219 C217 1.392 . S
C219 N218 1.331 . S
O220 Zn213 1.975 . S
O220 C221 1.252 . S
C221 O220 1.252 . S
C221 O222 1.252 . S
O222 Zn204 1.975 . S
O222 C221 1.252 . S
H223 C216 0.930 . S
H224 C217 0.930 . S
C225 C226 1.392 . S
C225 N229 1.328 . S
C225 H231 0.930 . S
C226 C225 1.392 . S
C226 N230 1.331 . S
C227 C228 1.391 . S
C227 N230 1.329 . S
C227 H237 0.930 . S
C228 C227 1.391 . S
C228 N229 1.334 . S
C228 H235 0.930 . S
N229 Zn213 2.119 1_565 S
N229 C225 1.328 . S
N229 C228 1.334 . S
N230 C226 1.331 . S
N230 C227 1.329 . S
H231 C225 0.930 . S
C232 O212 1.257 . S
C232 O233 1.244 . S
O233 C232 1.244 . S
O234 C210 1.257 1_565 S
O234 Zn213 2.019 1_565 S
H235 C228 0.930 . S
H236 C215 0.930 . S
H237 C227 0.930 . S
Zn238 N242 2.020 . S
Zn238 O246 2.019 . S
Zn238 N248 2.119 . S
Zn238 O256 1.975 . S
C239 N240 1.334 . S
C239 N243 1.336 . S
N240 C239 1.334 . S
N240 C241 1.334 . S
C241 N240 1.334 . S
C241 N242 1.336 . S
N242 Zn238 2.020 . S
N242 C241 1.336 . S
N242 N243 1.354 . S
N243 C239 1.336 . S
N243 N242 1.354 . S
N243 Zn247 2.020 . S
C244 O245 1.244 . S
C244 O268 1.257 . S
O245 C244 1.244 . S
O246 Zn238 2.019 . S
O246 C266 1.257 . S
Zn247 N243 2.020 . S
Zn247 O254 1.975 . S
Zn247 N263 2.119 . S
Zn247 O268 2.019 . S
N248 Zn238 2.119 . S
N248 C250 1.334 . S
N248 C251 1.328 . S
C249 C250 1.391 . S
C249 N252 1.329 . S
C249 H270 0.930 . S
C250 N248 1.334 . S
C250 C249 1.391 . S
C250 H257 0.930 . S
C251 N248 1.328 . S
C251 C253 1.392 . S
C251 H258 0.930 . S
N252 C249 1.329 . S
N252 C253 1.331 . S
C253 C251 1.392 . S
C253 N252 1.331 . S
O254 Zn247 1.975 . S
O254 C255 1.252 . S
C255 O254 1.252 . S
C255 O256 1.252 . S
O256 Zn238 1.975 . S
O256 C255 1.252 . S
H257 C250 0.930 . S
H258 C251 0.930 . S
C259 C260 1.392 . S
C259 N263 1.328 . S
C259 H265 0.930 . S
C260 C259 1.392 . S
C260 N264 1.331 . S
C261 C262 1.391 . S
C261 N264 1.329 . S
C261 H271 0.930 . S
C262 C261 1.391 . S
C262 N263 1.334 . S
C262 H269 0.930 . S
N263 Zn247 2.119 . S
N263 C259 1.328 . S
N263 C262 1.334 . S
N264 C260 1.331 . S
N264 C261 1.329 . S
H265 C259 0.930 . S
C266 O246 1.257 . S
C266 O267 1.244 . S
O267 C266 1.244 . S
O268 C244 1.257 . S
O268 Zn247 2.019 . S
H269 C262 0.930 . S
H270 C249 0.930 . S
H271 C261 0.930 . S
Zn272 N276 2.020 . S
Zn272 O280 2.019 . S
Zn272 N282 2.119 . S
Zn272 O290 1.975 . S
C273 N274 1.334 . S
C273 N277 1.336 . S
N274 C273 1.334 . S
N274 C275 1.334 . S
C275 N274 1.334 . S
C275 N276 1.336 . S
N276 Zn272 2.020 . S
N276 C275 1.336 . S
N276 N277 1.354 . S
N277 C273 1.336 . S
N277 N276 1.354 . S
N277 Zn281 2.020 . S
C278 O279 1.244 . S
C278 O302 1.257 . S
O279 C278 1.244 . S
O280 Zn272 2.019 . S
O280 C300 1.257 . S
Zn281 N277 2.020 . S
Zn281 O288 1.975 . S
Zn281 N297 2.119 . S
Zn281 O302 2.019 . S
N282 Zn272 2.119 . S
N282 C284 1.334 . S
N282 C285 1.328 . S
C283 C284 1.391 . S
C283 N286 1.329 . S
C283 H304 0.930 . S
C284 N282 1.334 . S
C284 C283 1.391 . S
C284 H291 0.930 . S
C285 N282 1.328 . S
C285 C287 1.392 . S
C285 H292 0.930 . S
N286 C283 1.329 . S
N286 C287 1.331 . S
C287 C285 1.392 . S
C287 N286 1.331 . S
O288 Zn281 1.975 . S
O288 C289 1.252 . S
C289 O288 1.252 . S
C289 O290 1.252 . S
O290 Zn272 1.975 . S
O290 C289 1.252 . S
H291 C284 0.930 . S
H292 C285 0.930 . S
C293 C294 1.392 . S
C293 N297 1.328 . S
C293 H299 0.930 . S
C294 C293 1.392 . S
C294 N298 1.331 . S
C295 C296 1.391 . S
C295 N298 1.329 . S
C295 H305 0.930 . S
C296 C295 1.391 . S
C296 N297 1.334 . S
C296 H303 0.930 . S
N297 Zn281 2.119 . S
N297 C293 1.328 . S
N297 C296 1.334 . S
N298 C294 1.331 . S
N298 C295 1.329 . S
H299 C293 0.930 . S
C300 O280 1.257 . S
C300 O301 1.244 . S
O301 C300 1.244 . S
O302 C278 1.257 . S
O302 Zn281 2.019 . S
H303 C296 0.930 . S
H304 C283 0.930 . S
H305 C295 0.930 . S
Zn306 N310 2.020 . S
Zn306 O314 2.019 . S
Zn306 N316 2.119 . S
Zn306 O324 1.975 . S
C307 N308 1.334 . S
C307 N311 1.336 . S
N308 C307 1.334 . S
N308 C309 1.334 . S
C309 N308 1.334 . S
C309 N310 1.336 . S
N310 Zn306 2.020 . S
N310 C309 1.336 . S
N310 N311 1.354 . S
N311 C307 1.336 . S
N311 N310 1.354 . S
N311 Zn315 2.020 . S
C312 O313 1.244 . S
C312 O336 1.257 . S
O313 C312 1.244 . S
O314 Zn306 2.019 . S
O314 C334 1.257 . S
Zn315 N311 2.020 . S
Zn315 O322 1.975 . S
Zn315 N331 2.119 . S
Zn315 O336 2.019 . S
N316 Zn306 2.119 . S
N316 C318 1.334 . S
N316 C319 1.328 . S
C317 C318 1.391 . S
C317 N320 1.329 . S
C317 H338 0.930 . S
C318 N316 1.334 . S
C318 C317 1.391 . S
C318 H325 0.930 . S
C319 N316 1.328 . S
C319 C321 1.392 . S
C319 H326 0.930 . S
N320 C317 1.329 . S
N320 C321 1.331 . S
C321 C319 1.392 . S
C321 N320 1.331 . S
O322 Zn315 1.975 . S
O322 C323 1.252 . S
C323 O322 1.252 . S
C323 O324 1.252 . S
O324 Zn306 1.975 . S
O324 C323 1.252 . S
H325 C318 0.930 . S
H326 C319 0.930 . S
C327 C328 1.392 . S
C327 N331 1.328 . S
C327 H333 0.930 . S
C328 C327 1.392 . S
C328 N332 1.331 . S
C329 C330 1.391 . S
C329 N332 1.329 . S
C329 H339 0.930 . S
C330 C329 1.391 . S
C330 N331 1.334 . S
C330 H337 0.930 . S
N331 Zn315 2.119 . S
N331 C327 1.328 . S
N331 C330 1.334 . S
N332 C328 1.331 . S
N332 C329 1.329 . S
H333 C327 0.930 . S
C334 O314 1.257 . S
C334 O335 1.244 . S
O335 C334 1.244 . S
O336 C312 1.257 . S
O336 Zn315 2.019 . S
H337 C330 0.930 . S
H338 C317 0.930 . S
H339 C329 0.930 . S
Zn340 N344 2.020 . S
Zn340 O348 2.019 . S
Zn340 N350 2.119 . S
Zn340 O358 1.975 . S
C341 N342 1.334 . S
C341 N345 1.336 . S
N342 C341 1.334 . S
N342 C343 1.334 . S
C343 N342 1.334 . S
C343 N344 1.336 . S
N344 Zn340 2.020 . S
N344 C343 1.336 . S
N344 N345 1.354 . S
N345 C341 1.336 . S
N345 N344 1.354 . S
N345 Zn349 2.020 . S
C346 O347 1.244 . S
C346 O370 1.257 . S
O347 C346 1.244 . S
O348 Zn340 2.019 . S
O348 C368 1.257 . S
Zn349 N345 2.020 . S
Zn349 O356 1.975 . S
Zn349 N365 2.119 . S
Zn349 O370 2.019 . S
N350 Zn340 2.119 . S
N350 C352 1.334 . S
N350 C353 1.328 . S
C351 C352 1.391 . S
C351 N354 1.329 . S
C351 H372 0.930 . S
C352 N350 1.334 . S
C352 C351 1.391 . S
C352 H359 0.930 . S
C353 N350 1.328 . S
C353 C355 1.392 . S
C353 H360 0.930 . S
N354 C351 1.329 . S
N354 C355 1.331 . S
C355 C353 1.392 . S
C355 N354 1.331 . S
O356 Zn349 1.975 . S
O356 C357 1.252 . S
C357 O356 1.252 . S
C357 O358 1.252 . S
O358 Zn340 1.975 . S
O358 C357 1.252 . S
H359 C352 0.930 . S
H360 C353 0.930 . S
C361 C362 1.392 . S
C361 N365 1.328 . S
C361 H367 0.930 . S
C362 C361 1.392 . S
C362 N366 1.331 . S
C363 C364 1.391 . S
C363 N366 1.329 . S
C363 H373 0.930 . S
C364 C363 1.391 . S
C364 N365 1.334 . S
C364 H371 0.930 . S
N365 Zn349 2.119 . S
N365 C361 1.328 . S
N365 C364 1.334 . S
N366 C362 1.331 . S
N366 C363 1.329 . S
H367 C361 0.930 . S
C368 O348 1.257 . S
C368 O369 1.244 . S
O369 C368 1.244 . S
O370 C346 1.257 . S
O370 Zn349 2.019 . S
H371 C364 0.930 . S
H372 C351 0.930 . S
H373 C363 0.930 . S
Zn374 N378 2.020 . S
Zn374 O382 2.019 . S
Zn374 N384 2.119 . S
Zn374 O392 1.975 . S
C375 N376 1.334 . S
C375 N379 1.336 . S
N376 C375 1.334 . S
N376 C377 1.334 . S
C377 N376 1.334 . S
C377 N378 1.336 . S
N378 Zn374 2.020 . S
N378 C377 1.336 . S
N378 N379 1.354 . S
N379 C375 1.336 . S
N379 N378 1.354 . S
N379 Zn383 2.020 . S
C380 O381 1.244 . S
C380 O404 1.257 . S
O381 C380 1.244 . S
O382 Zn374 2.019 . S
O382 C402 1.257 . S
Zn383 N379 2.020 . S
Zn383 O390 1.975 . S
Zn383 N399 2.119 . S
Zn383 O404 2.019 . S
N384 Zn374 2.119 . S
N384 C386 1.334 . S
N384 C387 1.328 . S
C385 C386 1.391 . S
C385 N388 1.329 . S
C385 H406 0.930 . S
C386 N384 1.334 . S
C386 C385 1.391 . S
C386 H393 0.930 . S
C387 N384 1.328 . S
C387 C389 1.392 . S
C387 H394 0.930 . S
N388 C385 1.329 . S
N388 C389 1.331 . S
C389 C387 1.392 . S
C389 N388 1.331 . S
O390 Zn383 1.975 . S
O390 C391 1.252 . S
C391 O390 1.252 . S
C391 O392 1.252 . S
O392 Zn374 1.975 . S
O392 C391 1.252 . S
H393 C386 0.930 . S
H394 C387 0.930 . S
C395 C396 1.392 . S
C395 N399 1.328 . S
C395 H401 0.930 . S
C396 C395 1.392 . S
C396 N400 1.331 . S
C397 C398 1.391 . S
C397 N400 1.329 . S
C397 H407 0.930 . S
C398 C397 1.391 . S
C398 N399 1.334 . S
C398 H405 0.930 . S
N399 Zn383 2.119 . S
N399 C395 1.328 . S
N399 C398 1.334 . S
N400 C396 1.331 . S
N400 C397 1.329 . S
H401 C395 0.930 . S
C402 O382 1.257 . S
C402 O403 1.244 . S
O403 C402 1.244 . S
O404 C380 1.257 . S
O404 Zn383 2.019 . S
H405 C398 0.930 . S
H406 C385 0.930 . S
H407 C397 0.930 . S
Zn408 N412 2.020 . S
Zn408 O416 2.019 . S
Zn408 N418 2.119 . S
Zn408 O426 1.975 . S
C409 N410 1.334 . S
C409 N413 1.336 . S
N410 C409 1.334 . S
N410 C411 1.334 . S
C411 N410 1.334 . S
C411 N412 1.336 . S
N412 Zn408 2.020 . S
N412 C411 1.336 . S
N412 N413 1.354 . S
N413 C409 1.336 . S
N413 N412 1.354 . S
N413 Zn417 2.020 . S
C414 O415 1.244 . S
C414 O438 1.257 . S
O415 C414 1.244 . S
O416 Zn408 2.019 . S
O416 C436 1.257 . S
Zn417 N413 2.020 . S
Zn417 O424 1.975 . S
Zn417 N433 2.119 . S
Zn417 O438 2.019 . S
N418 Zn408 2.119 . S
N418 C420 1.334 . S
N418 C421 1.328 . S
C419 C420 1.391 . S
C419 N422 1.329 . S
C419 H440 0.930 . S
C420 N418 1.334 . S
C420 C419 1.391 . S
C420 H427 0.930 . S
C421 N418 1.328 . S
C421 C423 1.392 . S
C421 H428 0.930 . S
N422 C419 1.329 . S
N422 C423 1.331 . S
C423 C421 1.392 . S
C423 N422 1.331 . S
O424 Zn417 1.975 . S
O424 C425 1.252 . S
C425 O424 1.252 . S
C425 O426 1.252 . S
O426 Zn408 1.975 . S
O426 C425 1.252 . S
H427 C420 0.930 . S
H428 C421 0.930 . S
C429 C430 1.392 . S
C429 N433 1.328 . S
C429 H435 0.930 . S
C430 C429 1.392 . S
C430 N434 1.331 . S
C431 C432 1.391 . S
C431 N434 1.329 . S
C431 H441 0.930 . S
C432 C431 1.391 . S
C432 N433 1.334 . S
C432 H439 0.930 . S
N433 Zn417 2.119 . S
N433 C429 1.328 . S
N433 C432 1.334 . S
N434 C430 1.331 . S
N434 C431 1.329 . S
H435 C429 0.930 . S
C436 O416 1.257 . S
C436 O437 1.244 . S
O437 C436 1.244 . S
O438 C414 1.257 . S
O438 Zn417 2.019 . S
H439 C432 0.930 . S
H440 C419 0.930 . S
H441 C431 0.930 . S
Zn442 N446 2.020 . S
Zn442 O450 2.019 . S
Zn442 N452 2.119 . S
Zn442 O460 1.975 . S
C443 N444 1.334 . S
C443 N447 1.336 . S
N444 C443 1.334 . S
N444 C445 1.334 . S
C445 N444 1.334 . S
C445 N446 1.336 . S
N446 Zn442 2.020 . S
N446 C445 1.336 . S
N446 N447 1.354 . S
N447 C443 1.336 . S
N447 N446 1.354 . S
N447 Zn451 2.020 . S
C448 O449 1.244 . S
C448 O472 1.257 . S
O449 C448 1.244 . S
O450 Zn442 2.019 . S
O450 C470 1.257 . S
Zn451 N447 2.020 . S
Zn451 O458 1.975 . S
Zn451 N467 2.119 . S
Zn451 O472 2.019 . S
N452 Zn442 2.119 . S
N452 C454 1.334 . S
N452 C455 1.328 . S
C453 C454 1.391 . S
C453 N456 1.329 . S
C453 H474 0.930 . S
C454 N452 1.334 . S
C454 C453 1.391 . S
C454 H461 0.930 . S
C455 N452 1.328 . S
C455 C457 1.392 . S
C455 H462 0.930 . S
N456 C453 1.329 . S
N456 C457 1.331 . S
C457 C455 1.392 . S
C457 N456 1.331 . S
O458 Zn451 1.975 . S
O458 C459 1.252 . S
C459 O458 1.252 . S
C459 O460 1.252 . S
O460 Zn442 1.975 . S
O460 C459 1.252 . S
H461 C454 0.930 . S
H462 C455 0.930 . S
C463 C464 1.392 . S
C463 N467 1.328 . S
C463 H469 0.930 . S
C464 C463 1.392 . S
C464 N468 1.331 . S
C465 C466 1.391 . S
C465 N468 1.329 . S
C465 H475 0.930 . S
C466 C465 1.391 . S
C466 N467 1.334 . S
C466 H473 0.930 . S
N467 Zn451 2.119 . S
N467 C463 1.328 . S
N467 C466 1.334 . S
N468 C464 1.331 . S
N468 C465 1.329 . S
H469 C463 0.930 . S
C470 O450 1.257 . S
C470 O471 1.244 . S
O471 C470 1.244 . S
O472 C448 1.257 . S
O472 Zn451 2.019 . S
H473 C466 0.930 . S
H474 C453 0.930 . S
H475 C465 0.930 . S
Zn476 N480 2.020 . S
Zn476 O484 2.019 . S
Zn476 N486 2.119 . S
Zn476 O494 1.975 . S
C477 N478 1.334 . S
C477 N481 1.336 . S
N478 C477 1.334 . S
N478 C479 1.334 . S
C479 N478 1.334 . S
C479 N480 1.336 . S
N480 Zn476 2.020 . S
N480 C479 1.336 . S
N480 N481 1.354 . S
N481 C477 1.336 . S
N481 N480 1.354 . S
N481 Zn485 2.020 . S
C482 O483 1.244 . S
C482 O506 1.257 . S
O483 C482 1.244 . S
O484 Zn476 2.019 . S
O484 C504 1.257 . S
Zn485 N481 2.020 . S
Zn485 O492 1.975 . S
Zn485 N501 2.119 . S
Zn485 O506 2.019 . S
N486 Zn476 2.119 . S
N486 C488 1.334 . S
N486 C489 1.328 . S
C487 C488 1.391 . S
C487 N490 1.329 . S
C487 H508 0.930 . S
C488 N486 1.334 . S
C488 C487 1.391 . S
C488 H495 0.930 . S
C489 N486 1.328 . S
C489 C491 1.392 . S
C489 H496 0.930 . S
N490 C487 1.329 . S
N490 C491 1.331 . S
C491 C489 1.392 . S
C491 N490 1.331 . S
O492 Zn485 1.975 . S
O492 C493 1.252 . S
C493 O492 1.252 . S
C493 O494 1.252 . S
O494 Zn476 1.975 . S
O494 C493 1.252 . S
H495 C488 0.930 . S
H496 C489 0.930 . S
C497 C498 1.392 . S
C497 N501 1.328 . S
C497 H503 0.930 . S
C498 C497 1.392 . S
C498 N502 1.331 . S
C499 C500 1.391 . S
C499 N502 1.329 . S
C499 H509 0.930 . S
C500 C499 1.391 . S
C500 N501 1.334 . S
C500 H507 0.930 . S
N501 Zn485 2.119 . S
N501 C497 1.328 . S
N501 C500 1.334 . S
N502 C498 1.331 . S
N502 C499 1.329 . S
H503 C497 0.930 . S
C504 O484 1.257 . S
C504 O505 1.244 . S
O505 C504 1.244 . S
O506 C482 1.257 . S
O506 Zn485 2.019 . S
H507 C500 0.930 . S
H508 C487 0.930 . S
H509 C499 0.930 . S
Zn510 N514 2.020 . S
Zn510 O518 2.019 . S
Zn510 N520 2.119 . S
Zn510 O528 1.975 . S
C511 N512 1.334 . S
C511 N515 1.336 . S
N512 C511 1.334 . S
N512 C513 1.334 . S
C513 N512 1.334 . S
C513 N514 1.336 . S
N514 Zn510 2.020 . S
N514 C513 1.336 . S
N514 N515 1.354 . S
N515 C511 1.336 . S
N515 N514 1.354 . S
N515 Zn519 2.020 . S
C516 O517 1.244 . S
C516 O540 1.257 . S
O517 C516 1.244 . S
O518 Zn510 2.019 . S
O518 C538 1.257 . S
Zn519 N515 2.020 . S
Zn519 O526 1.975 . S
Zn519 N535 2.119 . S
Zn519 O540 2.019 . S
N520 Zn510 2.119 . S
N520 C522 1.334 . S
N520 C523 1.328 . S
C521 C522 1.391 . S
C521 N524 1.329 . S
C521 H542 0.930 . S
C522 N520 1.334 . S
C522 C521 1.391 . S
C522 H529 0.930 . S
C523 N520 1.328 . S
C523 C525 1.392 . S
C523 H530 0.930 . S
N524 C521 1.329 . S
N524 C525 1.331 . S
C525 C523 1.392 . S
C525 N524 1.331 . S
O526 Zn519 1.975 . S
O526 C527 1.252 . S
C527 O526 1.252 . S
C527 O528 1.252 . S
O528 Zn510 1.975 . S
O528 C527 1.252 . S
H529 C522 0.930 . S
H530 C523 0.930 . S
C531 C532 1.392 . S
C531 N535 1.328 . S
C531 H537 0.930 . S
C532 C531 1.392 . S
C532 N536 1.331 . S
C533 C534 1.391 . S
C533 N536 1.329 . S
C533 H543 0.930 . S
C534 C533 1.391 . S
C534 N535 1.334 . S
C534 H541 0.930 . S
N535 Zn519 2.119 . S
N535 C531 1.328 . S
N535 C534 1.334 . S
N536 C532 1.331 . S
N536 C533 1.329 . S
H537 C531 0.930 . S
C538 O518 1.257 . S
C538 O539 1.244 . S
O539 C538 1.244 . S
O540 C516 1.257 . S
O540 Zn519 2.019 . S
H541 C534 0.930 . S
H542 C521 0.930 . S
H543 C533 0.930 . S
H544 C552 0.929 . S
H545 C554 0.930 . S
H546 C556 0.930 . S
H547 C559 0.929 . S
H548 C562 0.930 . S
H549 C564 0.960 . S
H550 C564 0.960 . S
H551 C564 0.960 . S
C552 H544 0.929 . S
C552 C553 1.377 . S
C552 C554 1.384 . S
C553 C552 1.377 . S
C553 C559 1.390 . S
C554 H545 0.930 . S
C554 C552 1.384 . S
C554 C555 1.372 . S
C555 C554 1.372 . S
C555 C556 1.400 . S
C555 C560 1.490 . S
C556 H546 0.930 . S
C556 C555 1.400 . S
C556 C559 1.386 . S
H557 C573 0.930 . S
H558 C574 0.931 . S
C559 H547 0.929 . S
C559 C553 1.390 . S
C559 C556 1.386 . S
C560 C555 1.490 . S
C560 C562 1.395 . S
C560 C563 1.403 . S
H561 C567 0.930 . S
C562 H548 0.930 . S
C562 C560 1.395 . S
C562 C565 1.403 . S
C563 C560 1.403 . S
C563 C564 1.524 . S
C563 C567 1.400 . S
C564 H549 0.960 . S
C564 H550 0.960 . S
C564 H551 0.960 . S
C564 C563 1.524 . S
C565 C562 1.403 . S
C565 C566 1.392 . S
C565 C569 1.495 . S
C566 C565 1.392 . S
C566 C567 1.385 . S
C566 C568 1.478 . S
C567 H561 0.930 . S
C567 C563 1.400 . S
C567 C566 1.385 . S
C568 C566 1.478 . S
C568 C570 1.381 . S
C568 C574 1.383 . S
C569 C565 1.495 . S
C569 H575 0.959 . S
C569 H576 0.961 . S
C569 H577 0.960 . S
C570 C568 1.381 . S
C570 C571 1.394 . S
C570 H578 0.930 . S
C571 C570 1.394 . S
C571 C572 1.383 . S
C571 H579 0.929 . S
C572 C571 1.383 . S
C572 C573 1.377 . S
C573 H557 0.930 . S
C573 C572 1.377 . S
C573 C574 1.379 . S
C574 H558 0.931 . S
C574 C568 1.383 . S
C574 C573 1.379 . S
H575 C569 0.959 . S
H576 C569 0.961 . S
H577 C569 0.960 . S
H578 C570 0.930 . S
H579 C571 0.929 . S
H580 C588 0.929 . S
H581 C590 0.930 . S
H582 C592 0.930 . S
H583 C595 0.929 . S
H584 C598 0.930 . S
H585 C600 0.960 . S
H586 C600 0.960 . S
H587 C600 0.960 . S
C588 H580 0.929 . S
C588 C589 1.377 . S
C588 C590 1.384 . S
C589 C588 1.377 . S
C589 C595 1.390 . S
C590 H581 0.930 . S
C590 C588 1.384 . S
C590 C591 1.372 . S
C591 C590 1.372 . S
C591 C592 1.400 . S
C591 C596 1.490 . S
C592 H582 0.930 . S
C592 C591 1.400 . S
C592 C595 1.386 . S
H593 C609 0.930 . S
H594 C610 0.931 . S
C595 H583 0.929 . S
C595 C589 1.390 . S
C595 C592 1.386 . S
C596 C591 1.490 . S
C596 C598 1.395 . S
C596 C599 1.403 . S
H597 C603 0.930 . S
C598 H584 0.930 . S
C598 C596 1.395 . S
C598 C601 1.403 . S
C599 C596 1.403 . S
C599 C600 1.524 . S
C599 C603 1.400 . S
C600 H585 0.960 . S
C600 H586 0.960 . S
C600 H587 0.960 . S
C600 C599 1.524 . S
C601 C598 1.403 . S
C601 C602 1.392 . S
C601 C605 1.495 . S
C602 C601 1.392 . S
C602 C603 1.385 . S
C602 C604 1.478 . S
C603 H597 0.930 . S
C603 C599 1.400 . S
C603 C602 1.385 . S
C604 C602 1.478 . S
C604 C606 1.381 . S
C604 C610 1.383 . S
C605 C601 1.495 . S
C605 H611 0.959 . S
C605 H612 0.961 . S
C605 H613 0.960 . S
C606 C604 1.381 . S
C606 C607 1.394 . S
C606 H614 0.930 . S
C607 C606 1.394 . S
C607 C608 1.383 . S
C607 H615 0.929 . S
C608 C607 1.383 . S
C608 C609 1.377 . S
C609 H593 0.930 . S
C609 C608 1.377 . S
C609 C610 1.379 . S
C610 H594 0.931 . S
C610 C604 1.383 . S
C610 C609 1.379 . S
H611 C605 0.959 . S
H612 C605 0.961 . S
H613 C605 0.960 . S
H614 C606 0.930 . S
H615 C607 0.929 . S
H616 C624 0.929 . S
H617 C626 0.930 . S
H618 C628 0.930 . S
H619 C631 0.929 . S
H620 C634 0.930 . S
H621 C636 0.960 . S
H622 C636 0.960 . S
H623 C636 0.960 . S
C624 H616 0.929 . S
C624 C625 1.377 . S
C624 C626 1.384 . S
C625 C624 1.377 . S
C625 C631 1.390 . S
C626 H617 0.930 . S
C626 C624 1.384 . S
C626 C627 1.372 . S
C627 C626 1.372 . S
C627 C628 1.400 . S
C627 C632 1.490 . S
C628 H618 0.930 . S
C628 C627 1.400 . S
C628 C631 1.386 . S
H629 C645 0.930 . S
H630 C646 0.931 . S
C631 H619 0.929 . S
C631 C625 1.390 . S
C631 C628 1.386 . S
C632 C627 1.490 . S
C632 C634 1.395 . S
C632 C635 1.403 . S
H633 C639 0.930 . S
C634 H620 0.930 . S
C634 C632 1.395 . S
C634 C637 1.403 . S
C635 C632 1.403 . S
C635 C636 1.524 . S
C635 C639 1.400 . S
C636 H621 0.960 . S
C636 H622 0.960 . S
C636 H623 0.960 . S
C636 C635 1.524 . S
C637 C634 1.403 . S
C637 C638 1.392 . S
C637 C641 1.495 . S
C638 C637 1.392 . S
C638 C639 1.385 . S
C638 C640 1.478 . S
C639 H633 0.930 . S
C639 C635 1.400 . S
C639 C638 1.385 . S
C640 C638 1.478 . S
C640 C642 1.381 . S
C640 C646 1.383 . S
C641 C637 1.495 . S
C641 H647 0.959 . S
C641 H648 0.961 . S
C641 H649 0.960 . S
C642 C640 1.381 . S
C642 C643 1.394 . S
C642 H650 0.930 . S
C643 C642 1.394 . S
C643 C644 1.383 . S
C643 H651 0.929 . S
C644 C643 1.383 . S
C644 C645 1.377 . S
C645 H629 0.930 . S
C645 C644 1.377 . S
C645 C646 1.379 . S
C646 H630 0.931 . S
C646 C640 1.383 . S
C646 C645 1.379 . S
H647 C641 0.959 . S
H648 C641 0.961 . S
H649 C641 0.960 . S
H650 C642 0.930 . S
H651 C643 0.929 . S
H652 C660 0.929 . S
H653 C662 0.930 . S
H654 C664 0.930 . S
H655 C667 0.929 . S
H656 C670 0.930 . S
H657 C672 0.960 . S
H658 C672 0.960 . S
H659 C672 0.960 . S
C660 H652 0.929 . S
C660 C661 1.377 . S
C660 C662 1.384 . S
C661 C660 1.377 . S
C661 C667 1.390 . S
C662 H653 0.930 . S
C662 C660 1.384 . S
C662 C663 1.372 . S
C663 C662 1.372 . S
C663 C664 1.400 . S
C663 C668 1.490 . S
C664 H654 0.930 . S
C664 C663 1.400 . S
C664 C667 1.386 . S
H665 C681 0.930 . S
H666 C682 0.931 . S
C667 H655 0.929 . S
C667 C661 1.390 . S
C667 C664 1.386 . S
C668 C663 1.490 . S
C668 C670 1.395 . S
C668 C671 1.403 . S
H669 C675 0.930 . S
C670 H656 0.930 . S
C670 C668 1.395 . S
C670 C673 1.403 . S
C671 C668 1.403 . S
C671 C672 1.524 . S
C671 C675 1.400 . S
C672 H657 0.960 . S
C672 H658 0.960 . S
C672 H659 0.960 . S
C672 C671 1.524 . S
C673 C670 1.403 . S
C673 C674 1.392 . S
C673 C677 1.495 . S
C674 C673 1.392 . S
C674 C675 1.385 . S
C674 C676 1.478 . S
C675 H669 0.930 . S
C675 C671 1.400 . S
C675 C674 1.385 . S
C676 C674 1.478 . S
C676 C678 1.381 1_455 S
C676 C682 1.383 . S
C677 C673 1.495 . S
C677 H683 0.959 . S
C677 H684 0.961 . S
C677 H685 0.960 . S
C678 C676 1.381 1_655 S
C678 C679 1.394 . S
C678 H686 0.930 1_655 S
C679 C678 1.394 . S
C679 C680 1.383 . S
C679 H687 0.929 . S
C680 C679 1.383 . S
C680 C681 1.377 . S
C681 H665 0.930 . S
C681 C680 1.377 . S
C681 C682 1.379 1_655 S
C682 H666 0.931 . S
C682 C676 1.383 . S
C682 C681 1.379 1_455 S
H683 C677 0.959 . S
H684 C677 0.961 . S
H685 C677 0.960 . S
H686 C678 0.930 1_455 S
H687 C679 0.929 . S
H688 C696 0.929 . S
H689 C698 0.930 . S
H690 C700 0.930 . S
H691 C703 0.929 . S
H692 C706 0.930 . S
H693 C708 0.960 . S
H694 C708 0.960 . S
H695 C708 0.960 . S
C696 H688 0.929 . S
C696 C697 1.377 . S
C696 C698 1.384 . S
C697 C696 1.377 . S
C697 C703 1.390 . S
C698 H689 0.930 . S
C698 C696 1.384 . S
C698 C699 1.372 . S
C699 C698 1.372 . S
C699 C700 1.400 . S
C699 C704 1.490 . S
C700 H690 0.930 . S
C700 C699 1.400 . S
C700 C703 1.386 . S
H701 C717 0.930 . S
H702 C718 0.931 . S
C703 H691 0.929 . S
C703 C697 1.390 . S
C703 C700 1.386 . S
C704 C699 1.490 . S
C704 C706 1.395 . S
C704 C707 1.403 . S
H705 C711 0.930 . S
C706 H692 0.930 . S
C706 C704 1.395 . S
C706 C709 1.403 . S
C707 C704 1.403 . S
C707 C708 1.524 . S
C707 C711 1.400 . S
C708 H693 0.960 . S
C708 H694 0.960 . S
C708 H695 0.960 . S
C708 C707 1.524 . S
C709 C706 1.403 . S
C709 C710 1.392 . S
C709 C713 1.495 . S
C710 C709 1.392 . S
C710 C711 1.385 . S
C710 C712 1.478 . S
C711 H705 0.930 . S
C711 C707 1.400 . S
C711 C710 1.385 . S
C712 C710 1.478 . S
C712 C714 1.381 . S
C712 C718 1.383 . S
C713 C709 1.495 . S
C713 H719 0.959 . S
C713 H720 0.961 . S
C713 H721 0.960 . S
C714 C712 1.381 . S
C714 C715 1.394 . S
C714 H722 0.930 . S
C715 C714 1.394 . S
C715 C716 1.383 . S
C715 H723 0.929 . S
C716 C715 1.383 . S
C716 C717 1.377 . S
C717 H701 0.930 . S
C717 C716 1.377 . S
C717 C718 1.379 . S
C718 H702 0.931 . S
C718 C712 1.383 . S
C718 C717 1.379 . S
H719 C713 0.959 . S
H720 C713 0.961 . S
H721 C713 0.960 . S
H722 C714 0.930 . S
H723 C715 0.929 . S
H724 C732 0.929 . S
H725 C734 0.930 . S
H726 C736 0.930 . S
H727 C739 0.929 . S
H728 C742 0.930 . S
H729 C744 0.960 . S
H730 C744 0.960 . S
H731 C744 0.960 . S
C732 H724 0.929 . S
C732 C733 1.377 . S
C732 C734 1.384 . S
C733 C732 1.377 . S
C733 C739 1.390 . S
C734 H725 0.930 . S
C734 C732 1.384 . S
C734 C735 1.372 . S
C735 C734 1.372 . S
C735 C736 1.400 . S
C735 C740 1.490 . S
C736 H726 0.930 . S
C736 C735 1.400 . S
C736 C739 1.386 . S
H737 C753 0.930 . S
H738 C754 0.931 . S
C739 H727 0.929 . S
C739 C733 1.390 . S
C739 C736 1.386 . S
C740 C735 1.490 . S
C740 C742 1.395 . S
C740 C743 1.403 . S
H741 C747 0.930 . S
C742 H728 0.930 . S
C742 C740 1.395 . S
C742 C745 1.403 . S
C743 C740 1.403 . S
C743 C744 1.524 . S
C743 C747 1.400 . S
C744 H729 0.960 . S
C744 H730 0.960 . S
C744 H731 0.960 . S
C744 C743 1.524 . S
C745 C742 1.403 . S
C745 C746 1.392 . S
C745 C749 1.495 . S
C746 C745 1.392 . S
C746 C747 1.385 . S
C746 C748 1.478 . S
C747 H741 0.930 . S
C747 C743 1.400 . S
C747 C746 1.385 . S
C748 C746 1.478 . S
C748 C750 1.381 . S
C748 C754 1.383 . S
C749 C745 1.495 . S
C749 H755 0.959 . S
C749 H756 0.961 . S
C749 H757 0.960 . S
C750 C748 1.381 . S
C750 C751 1.394 . S
C750 H758 0.930 . S
C751 C750 1.394 . S
C751 C752 1.383 . S
C751 H759 0.929 . S
C752 C751 1.383 . S
C752 C753 1.377 . S
C753 H737 0.930 . S
C753 C752 1.377 . S
C753 C754 1.379 . S
C754 H738 0.931 . S
C754 C748 1.383 . S
C754 C753 1.379 . S
H755 C749 0.959 . S
H756 C749 0.961 . S
H757 C749 0.960 . S
H758 C750 0.930 . S
H759 C751 0.929 . S
H760 C768 0.929 . S
H761 C770 0.930 . S
H762 C772 0.930 . S
H763 C775 0.929 . S
H764 C778 0.930 . S
H765 C780 0.960 . S
H766 C780 0.960 . S
H767 C780 0.960 . S
C768 H760 0.929 . S
C768 C769 1.377 . S
C768 C770 1.384 . S
C769 C768 1.377 . S
C769 C775 1.390 . S
C770 H761 0.930 . S
C770 C768 1.384 . S
C770 C771 1.372 . S
C771 C770 1.372 . S
C771 C772 1.400 . S
C771 C776 1.490 . S
C772 H762 0.930 . S
C772 C771 1.400 . S
C772 C775 1.386 . S
H773 C789 0.930 . S
H774 C790 0.931 . S
C775 H763 0.929 . S
C775 C769 1.390 . S
C775 C772 1.386 . S
C776 C771 1.490 . S
C776 C778 1.395 . S
C776 C779 1.403 . S
H777 C783 0.930 . S
C778 H764 0.930 . S
C778 C776 1.395 . S
C778 C781 1.403 . S
C779 C776 1.403 . S
C779 C780 1.524 . S
C779 C783 1.400 . S
C780 H765 0.960 . S
C780 H766 0.960 . S
C780 H767 0.960 . S
C780 C779 1.524 . S
C781 C778 1.403 . S
C781 C782 1.392 . S
C781 C785 1.495 . S
C782 C781 1.392 . S
C782 C783 1.385 . S
C782 C784 1.478 . S
C783 H777 0.930 . S
C783 C779 1.400 . S
C783 C782 1.385 . S
C784 C782 1.478 . S
C784 C786 1.381 . S
C784 C790 1.383 . S
C785 C781 1.495 . S
C785 H791 0.959 . S
C785 H792 0.961 . S
C785 H793 0.960 . S
C786 C784 1.381 . S
C786 C787 1.394 . S
C786 H794 0.930 . S
C787 C786 1.394 . S
C787 C788 1.383 . S
C787 H795 0.929 . S
C788 C787 1.383 . S
C788 C789 1.377 . S
C789 H773 0.930 . S
C789 C788 1.377 . S
C789 C790 1.379 . S
C790 H774 0.931 . S
C790 C784 1.383 . S
C790 C789 1.379 . S
H791 C785 0.959 . S
H792 C785 0.961 . S
H793 C785 0.960 . S
H794 C786 0.930 . S
H795 C787 0.929 . S
H796 C804 0.929 . S
H797 C806 0.930 . S
H798 C808 0.930 . S
H799 C811 0.929 . S
H800 C814 0.930 . S
H801 C816 0.960 . S
H802 C816 0.960 . S
H803 C816 0.960 . S
C804 H796 0.929 . S
C804 C805 1.377 . S
C804 C806 1.384 . S
C805 C804 1.377 . S
C805 C811 1.390 . S
C806 H797 0.930 . S
C806 C804 1.384 . S
C806 C807 1.372 . S
C807 C806 1.372 . S
C807 C808 1.400 . S
C807 C812 1.490 . S
C808 H798 0.930 . S
C808 C807 1.400 . S
C808 C811 1.386 . S
H809 C825 0.930 . S
H810 C826 0.931 . S
C811 H799 0.929 . S
C811 C805 1.390 . S
C811 C808 1.386 . S
C812 C807 1.490 . S
C812 C814 1.395 . S
C812 C815 1.403 . S
H813 C819 0.930 . S
C814 H800 0.930 . S
C814 C812 1.395 . S
C814 C817 1.403 . S
C815 C812 1.403 . S
C815 C816 1.524 . S
C815 C819 1.400 . S
C816 H801 0.960 . S
C816 H802 0.960 . S
C816 H803 0.960 . S
C816 C815 1.524 . S
C817 C814 1.403 . S
C817 C818 1.392 . S
C817 C821 1.495 . S
C818 C817 1.392 . S
C818 C819 1.385 . S
C818 C820 1.478 . S
C819 H813 0.930 . S
C819 C815 1.400 . S
C819 C818 1.385 . S
C820 C818 1.478 . S
C820 C822 1.381 . S
C820 C826 1.383 . S
C821 C817 1.495 . S
C821 H827 0.959 . S
C821 H828 0.961 . S
C821 H829 0.960 . S
C822 C820 1.381 . S
C822 C823 1.394 1_655 S
C822 H830 0.930 . S
C823 C822 1.394 1_455 S
C823 C824 1.383 . S
C823 H831 0.929 . S
C824 C823 1.383 . S
C824 C825 1.377 . S
C825 H809 0.930 . S
C825 C824 1.377 . S
C825 C826 1.379 1_455 S
C826 H810 0.931 . S
C826 C820 1.383 . S
C826 C825 1.379 1_655 S
H827 C821 0.959 . S
H828 C821 0.961 . S
H829 C821 0.960 . S
H830 C822 0.930 . S
H831 C823 0.929 . S
H832 C840 0.929 . S
H833 C842 0.930 . S
H834 C844 0.930 . S
H835 C847 0.929 . S
H836 C850 0.930 . S
H837 C852 0.960 . S
H838 C852 0.960 . S
H839 C852 0.960 . S
C840 H832 0.929 . S
C840 C841 1.377 . S
C840 C842 1.384 . S
C841 C840 1.377 . S
C841 C847 1.390 . S
C842 H833 0.930 . S
C842 C840 1.384 . S
C842 C843 1.372 . S
C843 C842 1.372 . S
C843 C844 1.400 . S
C843 C848 1.490 . S
C844 H834 0.930 . S
C844 C843 1.400 . S
C844 C847 1.386 . S
H845 C861 0.930 . S
H846 C862 0.931 . S
C847 H835 0.929 . S
C847 C841 1.390 . S
C847 C844 1.386 . S
C848 C843 1.490 . S
C848 C850 1.395 . S
C848 C851 1.403 . S
H849 C855 0.930 . S
C850 H836 0.930 . S
C850 C848 1.395 . S
C850 C853 1.403 . S
C851 C848 1.403 . S
C851 C852 1.524 . S
C851 C855 1.400 . S
C852 H837 0.960 . S
C852 H838 0.960 . S
C852 H839 0.960 . S
C852 C851 1.524 . S
C853 C850 1.403 . S
C853 C854 1.392 . S
C853 C857 1.495 . S
C854 C853 1.392 . S
C854 C855 1.385 . S
C854 C856 1.478 . S
C855 H849 0.930 . S
C855 C851 1.400 . S
C855 C854 1.385 . S
C856 C854 1.478 . S
C856 C858 1.381 . S
C856 C862 1.383 . S
C857 C853 1.495 . S
C857 H863 0.959 . S
C857 H864 0.961 . S
C857 H865 0.960 . S
C858 C856 1.381 . S
C858 C859 1.394 . S
C858 H866 0.930 . S
C859 C858 1.394 . S
C859 C860 1.383 . S
C859 H867 0.929 . S
C860 C859 1.383 . S
C860 C861 1.377 . S
C861 H845 0.930 . S
C861 C860 1.377 . S
C861 C862 1.379 . S
C862 H846 0.931 . S
C862 C856 1.383 . S
C862 C861 1.379 . S
H863 C857 0.959 . S
H864 C857 0.961 . S
H865 C857 0.960 . S
H866 C858 0.930 . S
H867 C859 0.929 . S
H868 C876 0.929 . S
H869 C878 0.930 . S
H870 C880 0.930 . S
H871 C883 0.929 . S
H872 C886 0.930 . S
H873 C888 0.960 . S
H874 C888 0.960 . S
H875 C888 0.960 . S
C876 H868 0.929 . S
C876 C877 1.377 . S
C876 C878 1.384 1_455 S
C877 C876 1.377 . S
C877 C883 1.390 . S
C878 H869 0.930 . S
C878 C876 1.384 1_655 S
C878 C879 1.372 . S
C879 C878 1.372 . S
C879 C880 1.400 . S
C879 C884 1.490 . S
C880 H870 0.930 . S
C880 C879 1.400 . S
C880 C883 1.386 1_655 S
H881 C897 0.930 . S
H882 C898 0.931 . S
C883 H871 0.929 . S
C883 C877 1.390 . S
C883 C880 1.386 1_455 S
C884 C879 1.490 . S
C884 C886 1.395 1_545 S
C884 C887 1.403 . S
H885 C891 0.930 . S
C886 H872 0.930 . S
C886 C884 1.395 1_565 S
C886 C889 1.403 . S
C887 C884 1.403 . S
C887 C888 1.524 . S
C887 C891 1.400 . S
C888 H873 0.960 . S
C888 H874 0.960 . S
C888 H875 0.960 . S
C888 C887 1.524 . S
C889 C886 1.403 . S
C889 C890 1.381 1_565 S
C889 C893 1.495 . S
C890 C889 1.381 1_545 S
C890 C891 1.403 . S
C890 C892 1.472 1_545 S
C891 H885 0.930 . S
C891 C887 1.400 . S
C891 C890 1.403 . S
C892 C890 1.472 1_565 S
C892 C894 1.381 . S
C892 C898 1.383 . S
C893 C889 1.495 . S
C893 H899 0.959 . S
C893 H900 0.961 . S
C893 H901 0.960 . S
C894 C892 1.381 . S
C894 C895 1.394 . S
C894 H902 0.930 . S
C895 C894 1.394 . S
C895 C896 1.383 . S
C895 H903 0.929 . S
C896 C895 1.383 . S
C896 C897 1.377 . S
C897 H881 0.930 . S
C897 C896 1.377 . S
C897 C898 1.379 . S
C898 H882 0.931 . S
C898 C892 1.383 . S
C898 C897 1.379 . S
H899 C893 0.959 . S
H900 C893 0.961 . S
H901 C893 0.960 . S
H902 C894 0.930 . S
H903 C895 0.929 . S
H904 C912 0.929 . S
H905 C914 0.930 . S
H906 C916 0.930 . S
H907 C919 0.929 . S
H908 C922 0.930 . S
H909 C924 0.960 . S
H910 C924 0.960 . S
H911 C924 0.960 . S
C912 H904 0.929 . S
C912 C913 1.377 . S
C912 C914 1.384 . S
C913 C912 1.377 . S
C913 C919 1.390 . S
C914 H905 0.930 . S
C914 C912 1.384 . S
C914 C915 1.372 . S
C915 C914 1.372 . S
C915 C916 1.400 . S
C915 C920 1.490 . S
C916 H906 0.930 . S
C916 C915 1.400 . S
C916 C919 1.386 . S
H917 C933 0.930 . S
H918 C934 0.931 . S
C919 H907 0.929 . S
C919 C913 1.390 . S
C919 C916 1.386 . S
C920 C915 1.490 . S
C920 C922 1.395 . S
C920 C923 1.403 . S
H921 C927 0.930 . S
C922 H908 0.930 . S
C922 C920 1.395 . S
C922 C925 1.403 . S
C923 C920 1.403 . S
C923 C924 1.524 . S
C923 C927 1.400 . S
C924 H909 0.960 . S
C924 H910 0.960 . S
C924 H911 0.960 . S
C924 C923 1.524 . S
C925 C922 1.403 . S
C925 C926 1.392 . S
C925 C929 1.495 . S
C926 C925 1.392 . S
C926 C927 1.385 . S
C926 C928 1.478 . S
C927 H921 0.930 . S
C927 C923 1.400 . S
C927 C926 1.385 . S
C928 C926 1.478 . S
C928 C930 1.381 . S
C928 C934 1.383 . S
C929 C925 1.495 . S
C929 H935 0.959 . S
C929 H936 0.961 . S
C929 H937 0.960 . S
C930 C928 1.381 . S
C930 C931 1.394 . S
C930 H938 0.930 . S
C931 C930 1.394 . S
C931 C932 1.383 . S
C931 H939 0.929 . S
C932 C931 1.383 . S
C932 C933 1.377 . S
C933 H917 0.930 . S
C933 C932 1.377 . S
C933 C934 1.379 . S
C934 H918 0.931 . S
C934 C928 1.383 . S
C934 C933 1.379 . S
H935 C929 0.959 . S
H936 C929 0.961 . S
H937 C929 0.960 . S
H938 C930 0.930 . S
H939 C931 0.929 . S
H940 C948 0.929 . S
H941 C950 0.930 . S
H942 C952 0.930 . S
H943 C955 0.919 1_565 S
H944 C958 0.930 . S
H945 C960 0.960 . S
H946 C960 0.960 . S
H947 C960 0.960 . S
C948 H940 0.929 . S
C948 C949 1.377 . S
C948 C950 1.384 . S
C949 C948 1.377 . S
C949 C955 1.408 . S
C950 H941 0.930 . S
C950 C948 1.384 . S
C950 C951 1.372 . S
C951 C950 1.372 . S
C951 C952 1.400 1_545 S
C951 C956 1.490 1_545 S
C952 H942 0.930 . S
C952 C951 1.400 1_565 S
C952 C955 1.379 1_565 S
H953 C969 0.930 . S
H954 C970 0.931 . S
C955 H943 0.919 1_545 S
C955 C949 1.408 . S
C955 C952 1.379 1_545 S
C956 C951 1.490 1_565 S
C956 C958 1.395 . S
C956 C959 1.403 1_565 S
H957 C963 0.930 . S
C958 H944 0.930 . S
C958 C956 1.395 . S
C958 C961 1.403 . S
C959 C956 1.403 1_545 S
C959 C960 1.524 . S
C959 C963 1.400 1_545 S
C960 H945 0.960 . S
C960 H946 0.960 . S
C960 H947 0.960 . S
C960 C959 1.524 . S
C961 C958 1.403 . S
C961 C962 1.392 . S
C961 C965 1.495 . S
C962 C961 1.392 . S
C962 C963 1.385 . S
C962 C964 1.478 . S
C963 H957 0.930 . S
C963 C959 1.400 1_565 S
C963 C962 1.385 . S
C964 C962 1.478 . S
C964 C966 1.381 . S
C964 C970 1.383 . S
C965 C961 1.495 . S
C965 H971 0.959 . S
C965 H972 0.961 . S
C965 H973 0.960 . S
C966 C964 1.381 . S
C966 C967 1.394 . S
C966 H974 0.930 . S
C967 C966 1.394 . S
C967 C968 1.383 . S
C967 H975 0.929 . S
C968 C967 1.383 . S
C968 C969 1.377 . S
C969 H953 0.930 . S
C969 C968 1.377 . S
C969 C970 1.379 . S
C970 H954 0.931 . S
C970 C964 1.383 . S
C970 C969 1.379 . S
H971 C965 0.959 . S
H972 C965 0.961 . S
H973 C965 0.960 . S
H974 C966 0.930 . S
H975 C967 0.929 . S
H976 C984 0.929 . S
H977 C986 0.930 . S
H978 C988 0.930 . S
H979 C991 0.929 . S
H980 C994 0.930 . S
H981 C996 0.960 . S
H982 C996 0.960 . S
H983 C996 0.960 . S
C984 H976 0.929 . S
C984 C985 1.377 . S
C984 C986 1.384 . S
C985 C984 1.377 . S
C985 C991 1.390 . S
C986 H977 0.930 . S
C986 C984 1.384 . S
C986 C987 1.372 . S
C987 C986 1.372 . S
C987 C988 1.400 . S
C987 C992 1.490 . S
C988 H978 0.930 . S
C988 C987 1.400 . S
C988 C991 1.386 . S
H989 C1005 0.930 . S
H990 C1006 0.931 . S
C991 H979 0.929 . S
C991 C985 1.390 . S
C991 C988 1.386 . S
C992 C987 1.490 . S
C992 C994 1.395 . S
C992 C995 1.403 . S
H993 C999 0.930 . S
C994 H980 0.930 . S
C994 C992 1.395 . S
C994 C997 1.403 . S
C995 C992 1.403 . S
C995 C996 1.524 . S
C995 C999 1.400 . S
C996 H981 0.960 . S
C996 H982 0.960 . S
C996 H983 0.960 . S
C996 C995 1.524 . S
C997 C994 1.403 . S
C997 C998 1.392 . S
C997 C1001 1.495 . S
C998 C997 1.392 . S
C998 C999 1.385 . S
C998 C1000 1.478 . S
C999 H993 0.930 . S
C999 C995 1.400 . S
C999 C998 1.385 . S
C1000 C998 1.478 . S
C1000 C1002 1.381 . S
C1000 C1006 1.383 . S
C1001 C997 1.495 . S
C1001 H1007 0.959 . S
C1001 H1008 0.961 . S
C1001 H1009 0.960 . S
C1002 C1000 1.381 . S
C1002 C1003 1.394 . S
C1002 H1010 0.930 . S
C1003 C1002 1.394 . S
C1003 C1004 1.383 . S
C1003 H1011 0.929 . S
C1004 C1003 1.383 . S
C1004 C1005 1.377 . S
C1005 H989 0.930 . S
C1005 C1004 1.377 . S
C1005 C1006 1.379 . S
C1006 H990 0.931 . S
C1006 C1000 1.383 . S
C1006 C1005 1.379 . S
H1007 C1001 0.959 . S
H1008 C1001 0.961 . S
H1009 C1001 0.960 . S
H1010 C1002 0.930 . S
H1011 C1003 0.929 . S
H1012 C1020 0.929 . S
H1013 C1022 0.930 . S
H1014 C1024 0.930 . S
H1015 C1027 0.929 . S
H1016 C1030 0.930 . S
H1017 C1032 0.960 . S
H1018 C1032 0.960 . S
H1019 C1032 0.960 . S
C1020 H1012 0.929 . S
C1020 C1021 1.377 . S
C1020 C1022 1.384 1_655 S
C1021 C1020 1.377 . S
C1021 C1027 1.390 . S
C1022 H1013 0.930 . S
C1022 C1020 1.384 1_455 S
C1022 C1023 1.372 . S
C1023 C1022 1.372 . S
C1023 C1024 1.400 . S
C1023 C1028 1.490 . S
C1024 H1014 0.930 . S
C1024 C1023 1.400 . S
C1024 C1027 1.386 1_455 S
H1025 C1041 0.930 1_565 S
H1026 C1042 0.931 . S
C1027 H1015 0.929 . S
C1027 C1021 1.390 . S
C1027 C1024 1.386 1_655 S
C1028 C1023 1.490 . S
C1028 C1030 1.395 . S
C1028 C1031 1.403 1_565 S
H1029 C1035 0.930 . S
C1030 H1016 0.930 . S
C1030 C1028 1.395 . S
C1030 C1033 1.403 . S
C1031 C1028 1.403 1_545 S
C1031 C1032 1.524 . S
C1031 C1035 1.400 . S
C1032 H1017 0.960 . S
C1032 H1018 0.960 . S
C1032 H1019 0.960 . S
C1032 C1031 1.524 . S
C1033 C1030 1.403 . S
C1033 C1034 1.392 . S
C1033 C1037 1.495 . S
C1034 C1033 1.392 . S
C1034 C1035 1.385 1_565 S
C1034 C1036 1.483 . S
C1035 H1029 0.930 . S
C1035 C1031 1.400 . S
C1035 C1034 1.385 1_545 S
C1036 C1034 1.483 . S
C1036 C1038 1.370 1_565 S
C1036 C1042 1.387 . S
C1037 C1033 1.495 . S
C1037 H1043 0.959 . S
C1037 H1044 0.961 . S
C1037 H1045 0.960 . S
C1038 C1036 1.370 1_545 S
C1038 C1039 1.394 . S
C1038 H1046 0.930 . S
C1039 C1038 1.394 . S
C1039 C1040 1.383 . S
C1039 H1047 0.929 . S
C1040 C1039 1.383 . S
C1040 C1041 1.377 . S
C1041 H1025 0.930 1_545 S
C1041 C1040 1.377 . S
C1041 C1042 1.379 1_545 S
C1042 H1026 0.931 . S
C1042 C1036 1.387 . S
C1042 C1041 1.379 1_565 S
H1043 C1037 0.959 . S
H1044 C1037 0.961 . S
H1045 C1037 0.960 . S
H1046 C1038 0.930 . S
H1047 C1039 0.929 . S
H1048 C1056 0.929 . S
H1049 C1058 0.930 . S
H1050 C1060 0.930 . S
H1051 C1063 0.929 . S
H1052 C1066 0.930 . S
H1053 C1068 0.960 . S
H1054 C1068 0.960 . S
H1055 C1068 0.960 . S
C1056 H1048 0.929 . S
C1056 C1057 1.377 . S
C1056 C1058 1.384 . S
C1057 C1056 1.377 . S
C1057 C1063 1.390 . S
C1058 H1049 0.930 . S
C1058 C1056 1.384 . S
C1058 C1059 1.372 . S
C1059 C1058 1.372 . S
C1059 C1060 1.400 . S
C1059 C1064 1.490 . S
C1060 H1050 0.930 . S
C1060 C1059 1.400 . S
C1060 C1063 1.386 . S
H1061 C1077 0.930 . S
H1062 C1078 0.931 . S
C1063 H1051 0.929 . S
C1063 C1057 1.390 . S
C1063 C1060 1.386 . S
C1064 C1059 1.490 . S
C1064 C1066 1.395 . S
C1064 C1067 1.403 . S
H1065 C1071 0.930 . S
C1066 H1052 0.930 . S
C1066 C1064 1.395 . S
C1066 C1069 1.403 . S
C1067 C1064 1.403 . S
C1067 C1068 1.524 . S
C1067 C1071 1.400 . S
C1068 H1053 0.960 . S
C1068 H1054 0.960 . S
C1068 H1055 0.960 . S
C1068 C1067 1.524 . S
C1069 C1066 1.403 . S
C1069 C1070 1.392 . S
C1069 C1073 1.495 . S
C1070 C1069 1.392 . S
C1070 C1071 1.385 . S
C1070 C1072 1.478 . S
C1071 H1065 0.930 . S
C1071 C1067 1.400 . S
C1071 C1070 1.385 . S
C1072 C1070 1.478 . S
C1072 C1074 1.381 . S
C1072 C1078 1.383 . S
C1073 C1069 1.495 . S
C1073 H1079 0.959 . S
C1073 H1080 0.961 . S
C1073 H1081 0.960 . S
C1074 C1072 1.381 . S
C1074 C1075 1.394 . S
C1074 H1082 0.930 . S
C1075 C1074 1.394 . S
C1075 C1076 1.383 . S
C1075 H1083 0.929 . S
C1076 C1075 1.383 . S
C1076 C1077 1.377 . S
C1077 H1061 0.930 . S
C1077 C1076 1.377 . S
C1077 C1078 1.379 . S
C1078 H1062 0.931 . S
C1078 C1072 1.383 . S
C1078 C1077 1.379 . S
H1079 C1073 0.959 . S
H1080 C1073 0.961 . S
H1081 C1073 0.960 . S
H1082 C1074 0.930 . S
H1083 C1075 0.929 . S
H1084 C1092 0.929 . S
H1085 C1094 0.930 . S
H1086 C1096 0.930 . S
H1087 C1099 0.929 . S
H1088 C1102 0.930 . S
H1089 C1104 0.960 . S
H1090 C1104 0.960 . S
H1091 C1104 0.960 . S
C1092 H1084 0.929 . S
C1092 C1093 1.377 1_545 S
C1092 C1094 1.384 . S
C1093 C1092 1.377 1_565 S
C1093 C1099 1.390 . S
C1094 H1085 0.930 . S
C1094 C1092 1.384 . S
C1094 C1095 1.372 1_545 S
C1095 C1094 1.372 1_565 S
C1095 C1096 1.400 . S
C1095 C1100 1.490 1_565 S
C1096 H1086 0.930 . S
C1096 C1095 1.400 . S
C1096 C1099 1.386 . S
H1097 C1113 0.930 . S
H1098 C1114 0.931 1_565 S
C1099 H1087 0.929 . S
C1099 C1093 1.390 . S
C1099 C1096 1.386 . S
C1100 C1095 1.490 1_545 S
C1100 C1102 1.395 . S
C1100 C1103 1.403 1_545 S
H1101 C1107 0.930 1_565 S
C1102 H1088 0.930 . S
C1102 C1100 1.395 . S
C1102 C1105 1.403 . S
C1103 C1100 1.403 1_565 S
C1103 C1104 1.524 . S
C1103 C1107 1.400 1_565 S
C1104 H1089 0.960 . S
C1104 H1090 0.960 . S
C1104 H1091 0.960 . S
C1104 C1103 1.524 . S
C1105 C1102 1.403 . S
C1105 C1106 1.392 . S
C1105 C1109 1.495 . S
C1106 C1105 1.392 . S
C1106 C1107 1.385 . S
C1106 C1108 1.478 . S
C1107 H1101 0.930 1_545 S
C1107 C1103 1.400 1_545 S
C1107 C1106 1.385 . S
C1108 C1106 1.478 . S
C1108 C1110 1.381 . S
C1108 C1114 1.383 . S
C1109 C1105 1.495 . S
C1109 H1115 0.959 . S
C1109 H1116 0.961 . S
C1109 H1117 0.960 . S
C1110 C1108 1.381 . S
C1110 C1111 1.394 . S
C1110 H1118 0.930 . S
C1111 C1110 1.394 . S
C1111 C1112 1.383 . S
C1111 H1119 0.929 . S
C1112 C1111 1.383 . S
C1112 C1113 1.377 . S
C1113 H1097 0.930 . S
C1113 C1112 1.377 . S
C1113 C1114 1.379 . S
C1114 H1098 0.931 1_545 S
C1114 C1108 1.383 . S
C1114 C1113 1.379 . S
H1115 C1109 0.959 . S
H1116 C1109 0.961 . S
H1117 C1109 0.960 . S
H1118 C1110 0.930 . S
H1119 C1111 0.929 . S
H1120 C1128 0.929 . S
H1121 C1130 0.930 . S
H1122 C1132 0.930 . S
H1123 C1135 0.929 . S
H1124 C1138 0.930 . S
H1125 C1140 0.960 . S
H1126 C1140 0.960 . S
H1127 C1140 0.960 . S
C1128 H1120 0.929 . S
C1128 C1129 1.377 . S
C1128 C1130 1.384 . S
C1129 C1128 1.377 . S
C1129 C1135 1.390 . S
C1130 H1121 0.930 . S
C1130 C1128 1.384 . S
C1130 C1131 1.372 . S
C1131 C1130 1.372 . S
C1131 C1132 1.400 . S
C1131 C1136 1.490 . S
C1132 H1122 0.930 . S
C1132 C1131 1.400 . S
C1132 C1135 1.386 . S
H1133 C1149 0.930 . S
H1134 C1150 0.931 . S
C1135 H1123 0.929 . S
C1135 C1129 1.390 . S
C1135 C1132 1.386 . S
C1136 C1131 1.490 . S
C1136 C1138 1.395 . S
C1136 C1139 1.403 . S
H1137 C1143 0.930 . S
C1138 H1124 0.930 . S
C1138 C1136 1.395 . S
C1138 C1141 1.403 . S
C1139 C1136 1.403 . S
C1139 C1140 1.524 . S
C1139 C1143 1.400 . S
C1140 H1125 0.960 . S
C1140 H1126 0.960 . S
C1140 H1127 0.960 . S
C1140 C1139 1.524 . S
C1141 C1138 1.403 . S
C1141 C1142 1.392 . S
C1141 C1145 1.495 . S
C1142 C1141 1.392 . S
C1142 C1143 1.385 . S
C1142 C1144 1.478 1_556 S
C1143 H1137 0.930 . S
C1143 C1139 1.400 . S
C1143 C1142 1.385 . S
C1144 C1142 1.478 1_554 S
C1144 C1146 1.381 . S
C1144 C1150 1.383 . S
C1145 C1141 1.495 . S
C1145 H1151 0.959 . S
C1145 H1152 0.961 . S
C1145 H1153 0.960 . S
C1146 C1144 1.381 . S
C1146 C1147 1.394 . S
C1146 H1154 0.930 . S
C1147 C1146 1.394 . S
C1147 C1148 1.383 . S
C1147 H1155 0.929 . S
C1148 C1147 1.383 . S
C1148 C1149 1.377 . S
C1149 H1133 0.930 . S
C1149 C1148 1.377 . S
C1149 C1150 1.379 . S
C1150 H1134 0.931 . S
C1150 C1144 1.383 . S
C1150 C1149 1.379 . S
H1151 C1145 0.959 . S
H1152 C1145 0.961 . S
H1153 C1145 0.960 . S
H1154 C1146 0.930 . S
H1155 C1147 0.929 . S
H1156 C1164 0.929 . S
H1157 C1166 0.930 . S
H1158 C1168 0.930 . S
H1159 C1171 0.929 . S
H1160 C1174 0.930 . S
H1161 C1176 0.960 . S
H1162 C1176 0.960 . S
H1163 C1176 0.960 . S
C1164 H1156 0.929 . S
C1164 C1165 1.377 . S
C1164 C1166 1.384 . S
C1165 C1164 1.377 . S
C1165 C1171 1.390 . S
C1166 H1157 0.930 . S
C1166 C1164 1.384 . S
C1166 C1167 1.372 . S
C1167 C1166 1.372 . S
C1167 C1168 1.400 . S
C1167 C1172 1.490 . S
C1168 H1158 0.930 . S
C1168 C1167 1.400 . S
C1168 C1171 1.386 . S
H1169 C1185 0.930 . S
H1170 C1186 0.931 . S
C1171 H1159 0.929 . S
C1171 C1165 1.390 . S
C1171 C1168 1.386 . S
C1172 C1167 1.490 . S
C1172 C1174 1.395 . S
C1172 C1175 1.403 . S
H1173 C1179 0.930 . S
C1174 H1160 0.930 . S
C1174 C1172 1.395 . S
C1174 C1177 1.403 . S
C1175 C1172 1.403 . S
C1175 C1176 1.524 . S
C1175 C1179 1.400 . S
C1176 H1161 0.960 . S
C1176 H1162 0.960 . S
C1176 H1163 0.960 . S
C1176 C1175 1.524 . S
C1177 C1174 1.403 . S
C1177 C1178 1.392 . S
C1177 C1181 1.495 . S
C1178 C1177 1.392 . S
C1178 C1179 1.385 . S
C1178 C1180 1.478 . S
C1179 H1173 0.930 . S
C1179 C1175 1.400 . S
C1179 C1178 1.385 . S
C1180 C1178 1.478 . S
C1180 C1182 1.381 . S
C1180 C1186 1.383 . S
C1181 C1177 1.495 . S
C1181 H1187 0.959 . S
C1181 H1188 0.961 . S
C1181 H1189 0.960 . S
C1182 C1180 1.381 . S
C1182 C1183 1.394 . S
C1182 H1190 0.930 . S
C1183 C1182 1.394 . S
C1183 C1184 1.383 . S
C1183 H1191 0.929 . S
C1184 C1183 1.383 . S
C1184 C1185 1.377 . S
C1185 H1169 0.930 . S
C1185 C1184 1.377 . S
C1185 C1186 1.379 . S
C1186 H1170 0.931 . S
C1186 C1180 1.383 . S
C1186 C1185 1.379 . S
H1187 C1181 0.959 . S
H1188 C1181 0.961 . S
H1189 C1181 0.960 . S
H1190 C1182 0.930 . S
H1191 C1183 0.929 . S
H1192 C1200 0.929 . S
H1193 C1202 0.930 . S
H1194 C1204 0.930 . S
H1195 C1207 0.929 . S
H1196 C1210 0.930 . S
H1197 C1212 0.960 . S
H1198 C1212 0.960 . S
H1199 C1212 0.960 . S
C1200 H1192 0.929 . S
C1200 C1201 1.377 . S
C1200 C1202 1.384 . S
C1201 C1200 1.377 . S
C1201 C1207 1.390 . S
C1202 H1193 0.930 . S
C1202 C1200 1.384 . S
C1202 C1203 1.372 . S
C1203 C1202 1.372 . S
C1203 C1204 1.400 . S
C1203 C1208 1.490 . S
C1204 H1194 0.930 . S
C1204 C1203 1.400 . S
C1204 C1207 1.386 . S
H1205 C1221 0.930 . S
H1206 C1222 0.931 . S
C1207 H1195 0.929 . S
C1207 C1201 1.390 . S
C1207 C1204 1.386 . S
C1208 C1203 1.490 . S
C1208 C1210 1.395 . S
C1208 C1211 1.403 . S
H1209 C1215 0.930 . S
C1210 H1196 0.930 . S
C1210 C1208 1.395 . S
C1210 C1213 1.403 . S
C1211 C1208 1.403 . S
C1211 C1212 1.524 . S
C1211 C1215 1.400 . S
C1212 H1197 0.960 . S
C1212 H1198 0.960 . S
C1212 H1199 0.960 . S
C1212 C1211 1.524 . S
C1213 C1210 1.403 . S
C1213 C1214 1.392 . S
C1213 C1217 1.495 . S
C1214 C1213 1.392 . S
C1214 C1215 1.385 . S
C1214 C1216 1.478 . S
C1215 H1209 0.930 . S
C1215 C1211 1.400 . S
C1215 C1214 1.385 . S
C1216 C1214 1.478 . S
C1216 C1218 1.381 . S
C1216 C1222 1.383 . S
C1217 C1213 1.495 . S
C1217 H1223 0.959 . S
C1217 H1224 0.961 . S
C1217 H1225 0.960 . S
C1218 C1216 1.381 . S
C1218 C1219 1.394 . S
C1218 H1226 0.930 . S
C1219 C1218 1.394 . S
C1219 C1220 1.383 . S
C1219 H1227 0.929 . S
C1220 C1219 1.383 . S
C1220 C1221 1.377 . S
C1221 H1205 0.930 . S
C1221 C1220 1.377 . S
C1221 C1222 1.379 . S
C1222 H1206 0.931 . S
C1222 C1216 1.383 . S
C1222 C1221 1.379 . S
H1223 C1217 0.959 . S
H1224 C1217 0.961 . S
H1225 C1217 0.960 . S
H1226 C1218 0.930 . S
H1227 C1219 0.929 . S
H1228 C1236 0.929 . S
H1229 C1238 0.930 . S
H1230 C1240 0.930 . S
H1231 C1243 0.929 . S
H1232 C1246 0.930 . S
H1233 C1248 0.960 . S
H1234 C1248 0.960 . S
H1235 C1248 0.960 . S
C1236 H1228 0.929 . S
C1236 C1237 1.377 . S
C1236 C1238 1.384 . S
C1237 C1236 1.377 . S
C1237 C1243 1.390 . S
C1238 H1229 0.930 . S
C1238 C1236 1.384 . S
C1238 C1239 1.372 . S
C1239 C1238 1.372 . S
C1239 C1240 1.400 . S
C1239 C1244 1.490 . S
C1240 H1230 0.930 . S
C1240 C1239 1.400 . S
C1240 C1243 1.386 . S
H1241 C1257 0.930 . S
H1242 C1258 0.931 . S
C1243 H1231 0.929 . S
C1243 C1237 1.390 . S
C1243 C1240 1.386 . S
C1244 C1239 1.490 . S
C1244 C1246 1.395 . S
C1244 C1247 1.403 . S
H1245 C1251 0.930 . S
C1246 H1232 0.930 . S
C1246 C1244 1.395 . S
C1246 C1249 1.403 . S
C1247 C1244 1.403 . S
C1247 C1248 1.524 . S
C1247 C1251 1.400 . S
C1248 H1233 0.960 . S
C1248 H1234 0.960 . S
C1248 H1235 0.960 . S
C1248 C1247 1.524 . S
C1249 C1246 1.403 . S
C1249 C1250 1.392 . S
C1249 C1253 1.495 . S
C1250 C1249 1.392 . S
C1250 C1251 1.385 . S
C1250 C1252 1.478 . S
C1251 H1245 0.930 . S
C1251 C1247 1.400 . S
C1251 C1250 1.385 . S
C1252 C1250 1.478 . S
C1252 C1254 1.381 . S
C1252 C1258 1.383 . S
C1253 C1249 1.495 . S
C1253 H1259 0.959 . S
C1253 H1260 0.961 . S
C1253 H1261 0.960 . S
C1254 C1252 1.381 . S
C1254 C1255 1.394 . S
C1254 H1262 0.930 . S
C1255 C1254 1.394 . S
C1255 C1256 1.383 . S
C1255 H1263 0.929 . S
C1256 C1255 1.383 . S
C1256 C1257 1.377 . S
C1257 H1241 0.930 . S
C1257 C1256 1.377 . S
C1257 C1258 1.379 . S
C1258 H1242 0.931 . S
C1258 C1252 1.383 . S
C1258 C1257 1.379 . S
H1259 C1253 0.959 . S
H1260 C1253 0.961 . S
H1261 C1253 0.960 . S
H1262 C1254 0.930 . S
H1263 C1255 0.929 . S
H1264 C1272 0.929 . S
H1265 C1274 0.930 . S
H1266 C1276 0.930 . S
H1267 C1279 0.929 . S
H1268 C1282 0.930 . S
H1269 C1284 0.960 . S
H1270 C1284 0.960 . S
H1271 C1284 0.960 . S
C1272 H1264 0.929 . S
C1272 C1273 1.377 . S
C1272 C1274 1.384 . S
C1273 C1272 1.377 . S
C1273 C1279 1.390 . S
C1274 H1265 0.930 . S
C1274 C1272 1.384 . S
C1274 C1275 1.372 . S
C1275 C1274 1.372 . S
C1275 C1276 1.400 . S
C1275 C1280 1.490 . S
C1276 H1266 0.930 . S
C1276 C1275 1.400 . S
C1276 C1279 1.386 . S
H1277 C1293 0.930 . S
H1278 C1294 0.931 . S
C1279 H1267 0.929 . S
C1279 C1273 1.390 . S
C1279 C1276 1.386 . S
C1280 C1275 1.490 . S
C1280 C1282 1.395 . S
C1280 C1283 1.403 . S
H1281 C1287 0.930 . S
C1282 H1268 0.930 . S
C1282 C1280 1.395 . S
C1282 C1285 1.403 . S
C1283 C1280 1.403 . S
C1283 C1284 1.524 . S
C1283 C1287 1.400 . S
C1284 H1269 0.960 . S
C1284 H1270 0.960 . S
C1284 H1271 0.960 . S
C1284 C1283 1.524 . S
C1285 C1282 1.403 . S
C1285 C1286 1.392 . S
C1285 C1289 1.495 . S
C1286 C1285 1.392 . S
C1286 C1287 1.385 . S
C1286 C1288 1.478 1_554 S
C1287 H1281 0.930 . S
C1287 C1283 1.400 . S
C1287 C1286 1.385 . S
C1288 C1286 1.478 1_556 S
C1288 C1290 1.381 . S
C1288 C1294 1.383 . S
C1289 C1285 1.495 . S
C1289 H1295 0.959 1_565 S
C1289 H1296 0.961 1_565 S
C1289 H1297 0.960 . S
C1290 C1288 1.381 . S
C1290 C1291 1.394 . S
C1290 H1298 0.930 . S
C1291 C1290 1.394 . S
C1291 C1292 1.383 . S
C1291 H1299 0.929 . S
C1292 C1291 1.383 . S
C1292 C1293 1.377 . S
C1293 H1277 0.930 . S
C1293 C1292 1.377 . S
C1293 C1294 1.379 . S
C1294 H1278 0.931 . S
C1294 C1288 1.383 . S
C1294 C1293 1.379 . S
H1295 C1289 0.959 1_545 S
H1296 C1289 0.961 1_545 S
H1297 C1289 0.960 . S
H1298 C1290 0.930 . S
H1299 C1291 0.929 . S
H1300 C1308 0.929 . S
H1301 C1310 0.930 . S
H1302 C1312 0.930 . S
H1303 C1315 0.929 . S
H1304 C1318 0.930 . S
H1305 C1320 0.960 . S
H1306 C1320 0.960 . S
H1307 C1320 0.960 . S
C1308 H1300 0.929 . S
C1308 C1309 1.377 . S
C1308 C1310 1.384 . S
C1309 C1308 1.377 . S
C1309 C1315 1.390 . S
C1310 H1301 0.930 . S
C1310 C1308 1.384 . S
C1310 C1311 1.372 . S
C1311 C1310 1.372 . S
C1311 C1312 1.400 . S
C1311 C1316 1.490 . S
C1312 H1302 0.930 . S
C1312 C1311 1.400 . S
C1312 C1315 1.386 . S
H1313 C1329 0.930 . S
H1314 C1330 0.931 . S
C1315 H1303 0.929 . S
C1315 C1309 1.390 . S
C1315 C1312 1.386 . S
C1316 C1311 1.490 . S
C1316 C1318 1.395 . S
C1316 C1319 1.403 . S
H1317 C1323 0.930 . S
C1318 H1304 0.930 . S
C1318 C1316 1.395 . S
C1318 C1321 1.403 . S
C1319 C1316 1.403 . S
C1319 C1320 1.524 . S
C1319 C1323 1.400 . S
C1320 H1305 0.960 . S
C1320 H1306 0.960 . S
C1320 H1307 0.960 . S
C1320 C1319 1.524 . S
C1321 C1318 1.403 . S
C1321 C1322 1.392 . S
C1321 C1325 1.495 . S
C1322 C1321 1.392 . S
C1322 C1323 1.385 . S
C1322 C1324 1.478 . S
C1323 H1317 0.930 . S
C1323 C1319 1.400 . S
C1323 C1322 1.385 . S
C1324 C1322 1.478 . S
C1324 C1326 1.381 . S
C1324 C1330 1.383 . S
C1325 C1321 1.495 . S
C1325 H1331 0.959 . S
C1325 H1332 0.961 . S
C1325 H1333 0.960 . S
C1326 C1324 1.381 . S
C1326 C1327 1.394 . S
C1326 H1334 0.930 . S
C1327 C1326 1.394 . S
C1327 C1328 1.383 . S
C1327 H1335 0.929 . S
C1328 C1327 1.383 . S
C1328 C1329 1.377 . S
C1329 H1313 0.930 . S
C1329 C1328 1.377 . S
C1329 C1330 1.379 . S
C1330 H1314 0.931 . S
C1330 C1324 1.383 . S
C1330 C1329 1.379 . S
H1331 C1325 0.959 . S
H1332 C1325 0.961 . S
H1333 C1325 0.960 . S
H1334 C1326 0.930 . S
H1335 C1327 0.929 . S
H1336 C1344 0.929 . S
H1337 C1346 0.930 . S
H1338 C1348 0.930 . S
H1339 C1351 0.929 . S
H1340 C1354 0.930 . S
H1341 C1356 0.960 . S
H1342 C1356 0.960 . S
H1343 C1356 0.960 . S
C1344 H1336 0.929 . S
C1344 C1345 1.377 . S
C1344 C1346 1.384 . S
C1345 C1344 1.377 . S
C1345 C1351 1.390 . S
C1346 H1337 0.930 . S
C1346 C1344 1.384 . S
C1346 C1347 1.372 . S
C1347 C1346 1.372 . S
C1347 C1348 1.400 . S
C1347 C1352 1.490 . S
C1348 H1338 0.930 . S
C1348 C1347 1.400 . S
C1348 C1351 1.386 . S
H1349 C1365 0.930 . S
H1350 C1366 0.931 . S
C1351 H1339 0.929 . S
C1351 C1345 1.390 . S
C1351 C1348 1.386 . S
C1352 C1347 1.490 . S
C1352 C1354 1.395 . S
C1352 C1355 1.403 . S
H1353 C1359 0.930 . S
C1354 H1340 0.930 . S
C1354 C1352 1.395 . S
C1354 C1357 1.403 . S
C1355 C1352 1.403 . S
C1355 C1356 1.524 . S
C1355 C1359 1.400 . S
C1356 H1341 0.960 . S
C1356 H1342 0.960 . S
C1356 H1343 0.960 . S
C1356 C1355 1.524 . S
C1357 C1354 1.403 . S
C1357 C1358 1.392 . S
C1357 C1361 1.495 . S
C1358 C1357 1.392 . S
C1358 C1359 1.385 . S
C1358 C1360 1.478 . S
C1359 H1353 0.930 . S
C1359 C1355 1.400 . S
C1359 C1358 1.385 . S
C1360 C1358 1.478 . S
C1360 C1362 1.381 . S
C1360 C1366 1.383 . S
C1361 C1357 1.495 . S
C1361 H1367 0.959 1_545 S
C1361 H1368 0.961 1_545 S
C1361 H1369 0.960 . S
C1362 C1360 1.381 . S
C1362 C1363 1.394 . S
C1362 H1370 0.930 . S
C1363 C1362 1.394 . S
C1363 C1364 1.383 . S
C1363 H1371 0.929 . S
C1364 C1363 1.383 . S
C1364 C1365 1.377 . S
C1365 H1349 0.930 . S
C1365 C1364 1.377 . S
C1365 C1366 1.379 . S
C1366 H1350 0.931 . S
C1366 C1360 1.383 . S
C1366 C1365 1.379 . S
H1367 C1361 0.959 1_565 S
H1368 C1361 0.961 1_565 S
H1369 C1361 0.960 . S
H1370 C1362 0.930 . S
H1371 C1363 0.929 . S
H1372 C1380 0.929 . S
H1373 C1382 0.930 . S
H1374 C1384 0.930 . S
H1375 C1387 0.929 . S
H1376 C1390 0.930 . S
H1377 C1392 0.960 . S
H1378 C1392 0.960 . S
H1379 C1392 0.960 . S
C1380 H1372 0.929 . S
C1380 C1381 1.377 . S
C1380 C1382 1.384 . S
C1381 C1380 1.377 . S
C1381 C1387 1.390 . S
C1382 H1373 0.930 . S
C1382 C1380 1.384 . S
C1382 C1383 1.372 . S
C1383 C1382 1.372 . S
C1383 C1384 1.400 . S
C1383 C1388 1.490 . S
C1384 H1374 0.930 . S
C1384 C1383 1.400 . S
C1384 C1387 1.386 . S
H1385 C1401 0.930 . S
H1386 C1402 0.931 . S
C1387 H1375 0.929 . S
C1387 C1381 1.390 . S
C1387 C1384 1.386 . S
C1388 C1383 1.490 . S
C1388 C1390 1.395 . S
C1388 C1391 1.403 . S
H1389 C1395 0.930 . S
C1390 H1376 0.930 . S
C1390 C1388 1.395 . S
C1390 C1393 1.403 . S
C1391 C1388 1.403 . S
C1391 C1392 1.524 . S
C1391 C1395 1.400 . S
C1392 H1377 0.960 . S
C1392 H1378 0.960 . S
C1392 H1379 0.960 . S
C1392 C1391 1.524 . S
C1393 C1390 1.403 . S
C1393 C1394 1.392 . S
C1393 C1397 1.495 . S
C1394 C1393 1.392 . S
C1394 C1395 1.385 . S
C1394 C1396 1.478 . S
C1395 H1389 0.930 . S
C1395 C1391 1.400 . S
C1395 C1394 1.385 . S
C1396 C1394 1.478 . S
C1396 C1398 1.381 . S
C1396 C1402 1.383 . S
C1397 C1393 1.495 . S
C1397 H1403 0.959 . S
C1397 H1404 0.961 . S
C1397 H1405 0.960 . S
C1398 C1396 1.381 . S
C1398 C1399 1.394 . S
C1398 H1406 0.930 . S
C1399 C1398 1.394 . S
C1399 C1400 1.383 . S
C1399 H1407 0.929 . S
C1400 C1399 1.383 . S
C1400 C1401 1.377 . S
C1401 H1385 0.930 . S
C1401 C1400 1.377 . S
C1401 C1402 1.379 . S
C1402 H1386 0.931 . S
C1402 C1396 1.383 . S
C1402 C1401 1.379 . S
H1403 C1397 0.959 . S
H1404 C1397 0.961 . S
H1405 C1397 0.960 . S
H1406 C1398 0.930 . S
H1407 C1399 0.929 . S
H1408 C1416 0.929 . S
H1409 C1418 0.930 . S
H1410 C1420 0.930 . S
H1411 C1423 0.929 . S
H1412 C1426 0.930 . S
H1413 C1428 0.960 . S
H1414 C1428 0.960 . S
H1415 C1428 0.960 . S
C1416 H1408 0.929 . S
C1416 C1417 1.377 . S
C1416 C1418 1.384 . S
C1417 C1416 1.377 . S
C1417 C1423 1.390 . S
C1418 H1409 0.930 . S
C1418 C1416 1.384 . S
C1418 C1419 1.372 . S
C1419 C1418 1.372 . S
C1419 C1420 1.400 . S
C1419 C1424 1.490 . S
C1420 H1410 0.930 . S
C1420 C1419 1.400 . S
C1420 C1423 1.386 . S
H1421 C1437 0.930 . S
H1422 C1438 0.931 . S
C1423 H1411 0.929 . S
C1423 C1417 1.390 . S
C1423 C1420 1.386 . S
C1424 C1419 1.490 . S
C1424 C1426 1.395 . S
C1424 C1427 1.403 . S
H1425 C1431 0.930 . S
C1426 H1412 0.930 . S
C1426 C1424 1.395 . S
C1426 C1429 1.403 . S
C1427 C1424 1.403 . S
C1427 C1428 1.524 . S
C1427 C1431 1.400 . S
C1428 H1413 0.960 . S
C1428 H1414 0.960 . S
C1428 H1415 0.960 . S
C1428 C1427 1.524 . S
C1429 C1426 1.403 . S
C1429 C1430 1.392 . S
C1429 C1433 1.495 . S
C1430 C1429 1.392 . S
C1430 C1431 1.385 . S
C1430 C1432 1.478 . S
C1431 H1425 0.930 . S
C1431 C1427 1.400 . S
C1431 C1430 1.385 . S
C1432 C1430 1.478 . S
C1432 C1434 1.381 . S
C1432 C1438 1.383 . S
C1433 C1429 1.495 . S
C1433 H1439 0.959 . S
C1433 H1440 0.961 . S
C1433 H1441 0.960 . S
C1434 C1432 1.381 . S
C1434 C1435 1.394 . S
C1434 H1442 0.930 . S
C1435 C1434 1.394 . S
C1435 C1436 1.383 . S
C1435 H1443 0.929 . S
C1436 C1435 1.383 . S
C1436 C1437 1.377 . S
C1437 H1421 0.930 . S
C1437 C1436 1.377 . S
C1437 C1438 1.379 . S
C1438 H1422 0.931 . S
C1438 C1432 1.383 . S
C1438 C1437 1.379 . S
H1439 C1433 0.959 . S
H1440 C1433 0.961 . S
H1441 C1433 0.960 . S
H1442 C1434 0.930 . S
H1443 C1435 0.929 . S
H1444 C1452 0.929 . S
H1445 C1454 0.930 . S
H1446 C1456 0.930 . S
H1447 C1459 0.929 . S
H1448 C1462 0.930 . S
H1449 C1464 0.960 . S
H1450 C1464 0.960 . S
H1451 C1464 0.960 . S
C1452 H1444 0.929 . S
C1452 C1453 1.377 1_545 S
C1452 C1454 1.384 . S
C1453 C1452 1.377 1_565 S
C1453 C1459 1.390 . S
C1454 H1445 0.930 . S
C1454 C1452 1.384 . S
C1454 C1455 1.372 . S
C1455 C1454 1.372 . S
C1455 C1456 1.400 1_545 S
C1455 C1460 1.490 . S
C1456 H1446 0.930 . S
C1456 C1455 1.400 1_565 S
C1456 C1459 1.386 . S
H1457 C1473 0.930 . S
H1458 C1474 0.931 . S
C1459 H1447 0.929 . S
C1459 C1453 1.390 . S
C1459 C1456 1.386 . S
C1460 C1455 1.490 . S
C1460 C1462 1.395 . S
C1460 C1463 1.403 1_545 S
H1461 C1467 0.930 1_565 S
C1462 H1448 0.930 . S
C1462 C1460 1.395 . S
C1462 C1465 1.403 . S
C1463 C1460 1.403 1_565 S
C1463 C1464 1.524 . S
C1463 C1467 1.400 1_565 S
C1464 H1449 0.960 . S
C1464 H1450 0.960 . S
C1464 H1451 0.960 . S
C1464 C1463 1.524 . S
C1465 C1462 1.403 . S
C1465 C1466 1.392 . S
C1465 C1469 1.495 . S
C1466 C1465 1.392 . S
C1466 C1467 1.385 . S
C1466 C1468 1.478 . S
C1467 H1461 0.930 1_545 S
C1467 C1463 1.400 1_545 S
C1467 C1466 1.385 . S
C1468 C1466 1.478 . S
C1468 C1470 1.381 . S
C1468 C1474 1.383 . S
C1469 C1465 1.495 . S
C1469 H1475 0.959 . S
C1469 H1476 0.961 . S
C1469 H1477 0.960 . S
C1470 C1468 1.381 . S
C1470 C1471 1.394 . S
C1470 H1478 0.930 . S
C1471 C1470 1.394 . S
C1471 C1472 1.383 . S
C1471 H1479 0.929 . S
C1472 C1471 1.383 . S
C1472 C1473 1.377 . S
C1473 H1457 0.930 . S
C1473 C1472 1.377 . S
C1473 C1474 1.379 . S
C1474 H1458 0.931 . S
C1474 C1468 1.383 . S
C1474 C1473 1.379 . S
H1475 C1469 0.959 . S
H1476 C1469 0.961 . S
H1477 C1469 0.960 . S
H1478 C1470 0.930 . S
H1479 C1471 0.929 . S
H1480 C1488 0.929 . S
H1481 C1490 0.930 . S
H1482 C1492 0.930 . S
H1483 C1495 0.929 . S
H1484 C1498 0.930 . S
H1485 C1500 0.960 . S
H1486 C1500 0.960 . S
H1487 C1500 0.960 . S
C1488 H1480 0.929 . S
C1488 C1489 1.377 . S
C1488 C1490 1.384 . S
C1489 C1488 1.377 . S
C1489 C1495 1.390 . S
C1490 H1481 0.930 . S
C1490 C1488 1.384 . S
C1490 C1491 1.372 . S
C1491 C1490 1.372 . S
C1491 C1492 1.400 . S
C1491 C1496 1.490 . S
C1492 H1482 0.930 . S
C1492 C1491 1.400 . S
C1492 C1495 1.386 . S
H1493 C1509 0.930 . S
H1494 C1510 0.931 . S
C1495 H1483 0.929 . S
C1495 C1489 1.390 . S
C1495 C1492 1.386 . S
C1496 C1491 1.490 . S
C1496 C1498 1.395 . S
C1496 C1499 1.403 . S
H1497 C1503 0.930 . S
C1498 H1484 0.930 . S
C1498 C1496 1.395 . S
C1498 C1501 1.403 . S
C1499 C1496 1.403 . S
C1499 C1500 1.524 . S
C1499 C1503 1.400 . S
C1500 H1485 0.960 . S
C1500 H1486 0.960 . S
C1500 H1487 0.960 . S
C1500 C1499 1.524 . S
C1501 C1498 1.403 . S
C1501 C1502 1.392 . S
C1501 C1505 1.495 . S
C1502 C1501 1.392 . S
C1502 C1503 1.385 . S
C1502 C1504 1.478 1_556 S
C1503 H1497 0.930 . S
C1503 C1499 1.400 . S
C1503 C1502 1.385 . S
C1504 C1502 1.478 1_554 S
C1504 C1506 1.381 . S
C1504 C1510 1.383 . S
C1505 C1501 1.495 . S
C1505 H1511 0.959 . S
C1505 H1512 0.961 . S
C1505 H1513 0.960 . S
C1506 C1504 1.381 . S
C1506 C1507 1.394 . S
C1506 H1514 0.930 . S
C1507 C1506 1.394 . S
C1507 C1508 1.383 . S
C1507 H1515 0.929 . S
C1508 C1507 1.383 . S
C1508 C1509 1.377 . S
C1509 H1493 0.930 . S
C1509 C1508 1.377 . S
C1509 C1510 1.379 . S
C1510 H1494 0.931 . S
C1510 C1504 1.383 . S
C1510 C1509 1.379 . S
H1511 C1505 0.959 . S
H1512 C1505 0.961 . S
H1513 C1505 0.960 . S
H1514 C1506 0.930 . S
H1515 C1507 0.929 . S
H1516 C1524 0.929 . S
H1517 C1526 0.930 . S
H1518 C1528 0.930 . S
H1519 C1531 0.929 . S
H1520 C1534 0.930 . S
H1521 C1536 0.960 . S
H1522 C1536 0.960 . S
H1523 C1536 0.960 . S
C1524 H1516 0.929 . S
C1524 C1525 1.377 1_565 S
C1524 C1526 1.384 . S
C1525 C1524 1.377 1_545 S
C1525 C1531 1.390 . S
C1526 H1517 0.930 . S
C1526 C1524 1.384 . S
C1526 C1527 1.372 . S
C1527 C1526 1.372 . S
C1527 C1528 1.400 1_565 S
C1527 C1532 1.490 . S
C1528 H1518 0.930 . S
C1528 C1527 1.400 1_545 S
C1528 C1531 1.386 . S
H1529 C1545 0.930 . S
H1530 C1546 0.931 1_545 S
C1531 H1519 0.929 . S
C1531 C1525 1.390 . S
C1531 C1528 1.386 . S
C1532 C1527 1.490 . S
C1532 C1534 1.395 . S
C1532 C1535 1.403 1_565 S
H1533 C1539 0.930 1_545 S
C1534 H1520 0.930 . S
C1534 C1532 1.395 . S
C1534 C1537 1.403 . S
C1535 C1532 1.403 1_545 S
C1535 C1536 1.524 . S
C1535 C1539 1.400 1_545 S
C1536 H1521 0.960 . S
C1536 H1522 0.960 . S
C1536 H1523 0.960 . S
C1536 C1535 1.524 . S
C1537 C1534 1.403 . S
C1537 C1538 1.392 . S
C1537 C1541 1.495 . S
C1538 C1537 1.392 . S
C1538 C1539 1.385 . S
C1538 C1540 1.478 . S
C1539 H1533 0.930 1_565 S
C1539 C1535 1.400 1_565 S
C1539 C1538 1.385 . S
C1540 C1538 1.478 . S
C1540 C1542 1.381 . S
C1540 C1546 1.383 . S
C1541 C1537 1.495 . S
C1541 H1547 0.959 . S
C1541 H1548 0.961 . S
C1541 H1549 0.960 . S
C1542 C1540 1.381 . S
C1542 C1543 1.394 . S
C1542 H1550 0.930 . S
C1543 C1542 1.394 . S
C1543 C1544 1.383 . S
C1543 H1551 0.929 . S
C1544 C1543 1.383 . S
C1544 C1545 1.377 . S
C1545 H1529 0.930 . S
C1545 C1544 1.377 . S
C1545 C1546 1.379 . S
C1546 H1530 0.931 1_565 S
C1546 C1540 1.383 . S
C1546 C1545 1.379 . S
H1547 C1541 0.959 . S
H1548 C1541 0.961 . S
H1549 C1541 0.960 . S
H1550 C1542 0.930 . S
H1551 C1543 0.929 . S
H1552 C1560 0.929 . S
H1553 C1562 0.930 . S
H1554 C1564 0.930 . S
H1555 C1567 0.929 . S
H1556 C1570 0.930 . S
H1557 C1572 0.960 . S
H1558 C1572 0.960 . S
H1559 C1572 0.960 . S
C1560 H1552 0.929 . S
C1560 C1561 1.377 . S
C1560 C1562 1.384 . S
C1561 C1560 1.377 . S
C1561 C1567 1.390 . S
C1562 H1553 0.930 . S
C1562 C1560 1.384 . S
C1562 C1563 1.372 . S
C1563 C1562 1.372 . S
C1563 C1564 1.400 . S
C1563 C1568 1.490 . S
C1564 H1554 0.930 . S
C1564 C1563 1.400 . S
C1564 C1567 1.386 . S
H1565 C1581 0.930 . S
H1566 C1582 0.931 . S
C1567 H1555 0.929 . S
C1567 C1561 1.390 . S
C1567 C1564 1.386 . S
C1568 C1563 1.490 . S
C1568 C1570 1.395 . S
C1568 C1571 1.403 . S
H1569 C1575 0.930 . S
C1570 H1556 0.930 . S
C1570 C1568 1.395 . S
C1570 C1573 1.403 . S
C1571 C1568 1.403 . S
C1571 C1572 1.524 . S
C1571 C1575 1.400 . S
C1572 H1557 0.960 . S
C1572 H1558 0.960 . S
C1572 H1559 0.960 . S
C1572 C1571 1.524 . S
C1573 C1570 1.403 . S
C1573 C1574 1.392 . S
C1573 C1577 1.495 . S
C1574 C1573 1.392 . S
C1574 C1575 1.385 . S
C1574 C1576 1.478 . S
C1575 H1569 0.930 . S
C1575 C1571 1.400 . S
C1575 C1574 1.385 . S
C1576 C1574 1.478 . S
C1576 C1578 1.381 . S
C1576 C1582 1.383 . S
C1577 C1573 1.495 . S
C1577 H1583 0.959 . S
C1577 H1584 0.961 . S
C1577 H1585 0.960 . S
C1578 C1576 1.381 . S
C1578 C1579 1.394 . S
C1578 H1586 0.930 . S
C1579 C1578 1.394 . S
C1579 C1580 1.383 . S
C1579 H1587 0.929 . S
C1580 C1579 1.383 . S
C1580 C1581 1.377 . S
C1581 H1565 0.930 . S
C1581 C1580 1.377 . S
C1581 C1582 1.379 . S
C1582 H1566 0.931 . S
C1582 C1576 1.383 . S
C1582 C1581 1.379 . S
H1583 C1577 0.959 . S
H1584 C1577 0.961 . S
H1585 C1577 0.960 . S
H1586 C1578 0.930 . S
H1587 C1579 0.929 . S
H1588 C1596 0.929 . S
H1589 C1598 0.929 . S
H1590 C1600 0.930 . S
H1591 C1603 0.929 . S
H1592 C1606 0.930 . S
H1593 C1608 0.960 . S
H1594 C1608 0.960 . S
H1595 C1608 0.960 . S
C1596 H1588 0.929 . S
C1596 C1597 1.377 . S
C1596 C1598 1.384 . S
C1597 C1596 1.377 . S
C1597 C1603 1.390 1_545 S
C1598 H1589 0.929 . S
C1598 C1596 1.384 . S
C1598 C1599 1.372 1_545 S
C1599 C1598 1.372 1_565 S
C1599 C1600 1.400 . S
C1599 C1604 1.490 . S
C1600 H1590 0.930 . S
C1600 C1599 1.400 . S
C1600 C1603 1.386 . S
H1601 C1617 0.930 . S
H1602 C1618 0.931 . S
C1603 H1591 0.929 . S
C1603 C1597 1.390 1_565 S
C1603 C1600 1.386 . S
C1604 C1599 1.490 . S
C1604 C1606 1.395 1_565 S
C1604 C1607 1.403 . S
H1605 C1611 0.930 . S
C1606 H1592 0.930 . S
C1606 C1604 1.395 1_545 S
C1606 C1609 1.403 . S
C1607 C1604 1.403 . S
C1607 C1608 1.524 . S
C1607 C1611 1.400 . S
C1608 H1593 0.960 . S
C1608 H1594 0.960 . S
C1608 H1595 0.960 . S
C1608 C1607 1.524 . S
C1609 C1606 1.403 . S
C1609 C1610 1.392 1_545 S
C1609 C1613 1.495 . S
C1610 C1609 1.392 1_565 S
C1610 C1611 1.385 . S
C1610 C1612 1.478 . S
C1611 H1605 0.930 . S
C1611 C1607 1.400 . S
C1611 C1610 1.385 . S
C1612 C1610 1.478 . S
C1612 C1614 1.381 . S
C1612 C1618 1.383 . S
C1613 C1609 1.495 . S
C1613 H1619 0.959 . S
C1613 H1620 0.961 . S
C1613 H1621 0.960 . S
C1614 C1612 1.381 . S
C1614 C1615 1.394 . S
C1614 H1622 0.930 . S
C1615 C1614 1.394 . S
C1615 C1616 1.383 . S
C1615 H1623 0.929 . S
C1616 C1615 1.383 . S
C1616 C1617 1.377 . S
C1617 H1601 0.930 . S
C1617 C1616 1.377 . S
C1617 C1618 1.379 . S
C1618 H1602 0.931 . S
C1618 C1612 1.383 . S
C1618 C1617 1.379 . S
H1619 C1613 0.959 . S
H1620 C1613 0.961 . S
H1621 C1613 0.960 . S
H1622 C1614 0.930 . S
H1623 C1615 0.929 . S
H1624 C1632 0.929 . S
H1625 C1634 0.930 . S
H1626 C1636 0.930 . S
H1627 C1639 0.929 . S
H1628 C1642 0.930 . S
H1629 C1644 0.960 . S
H1630 C1644 0.960 . S
H1631 C1644 0.960 . S
C1632 H1624 0.929 . S
C1632 C1633 1.377 . S
C1632 C1634 1.384 . S
C1633 C1632 1.377 . S
C1633 C1639 1.390 . S
C1634 H1625 0.930 . S
C1634 C1632 1.384 . S
C1634 C1635 1.372 . S
C1635 C1634 1.372 . S
C1635 C1636 1.400 . S
C1635 C1640 1.490 . S
C1636 H1626 0.930 . S
C1636 C1635 1.400 . S
C1636 C1639 1.386 . S
H1637 C1653 0.930 . S
H1638 C1654 0.931 . S
C1639 H1627 0.929 . S
C1639 C1633 1.390 . S
C1639 C1636 1.386 . S
C1640 C1635 1.490 . S
C1640 C1642 1.395 . S
C1640 C1643 1.403 . S
H1641 C1647 0.930 . S
C1642 H1628 0.930 . S
C1642 C1640 1.395 . S
C1642 C1645 1.403 . S
C1643 C1640 1.403 . S
C1643 C1644 1.524 . S
C1643 C1647 1.400 . S
C1644 H1629 0.960 . S
C1644 H1630 0.960 . S
C1644 H1631 0.960 . S
C1644 C1643 1.524 . S
C1645 C1642 1.403 . S
C1645 C1646 1.392 . S
C1645 C1649 1.495 . S
C1646 C1645 1.392 . S
C1646 C1647 1.385 . S
C1646 C1648 1.478 1_554 S
C1647 H1641 0.930 . S
C1647 C1643 1.400 . S
C1647 C1646 1.385 . S
C1648 C1646 1.478 1_556 S
C1648 C1650 1.381 . S
C1648 C1654 1.383 . S
C1649 C1645 1.495 . S
C1649 H1655 0.959 . S
C1649 H1656 0.961 1_554 S
C1649 H1657 0.960 1_554 S
C1650 C1648 1.381 . S
C1650 C1651 1.394 . S
C1650 H1658 0.930 . S
C1651 C1650 1.394 . S
C1651 C1652 1.383 . S
C1651 H1659 0.929 . S
C1652 C1651 1.383 . S
C1652 C1653 1.377 . S
C1653 H1637 0.930 . S
C1653 C1652 1.377 . S
C1653 C1654 1.379 . S
C1654 H1638 0.931 . S
C1654 C1648 1.383 . S
C1654 C1653 1.379 . S
H1655 C1649 0.959 . S
H1656 C1649 0.961 1_556 S
H1657 C1649 0.960 1_556 S
H1658 C1650 0.930 . S
H1659 C1651 0.929 . S
H1660 C1668 0.929 . S
H1661 C1670 0.930 . S
H1662 C1672 0.930 . S
H1663 C1675 0.929 . S
H1664 C1678 0.930 . S
H1665 C1680 0.960 . S
H1666 C1680 0.960 . S
H1667 C1680 0.960 1_545 S
C1668 H1660 0.929 . S
C1668 C1669 1.377 . S
C1668 C1670 1.384 . S
C1669 C1668 1.377 . S
C1669 C1675 1.390 . S
C1670 H1661 0.930 . S
C1670 C1668 1.384 . S
C1670 C1671 1.372 . S
C1671 C1670 1.372 . S
C1671 C1672 1.400 . S
C1671 C1676 1.490 . S
C1672 H1662 0.930 . S
C1672 C1671 1.400 . S
C1672 C1675 1.386 . S
H1673 C1689 0.930 . S
H1674 C1690 0.931 . S
C1675 H1663 0.929 . S
C1675 C1669 1.390 . S
C1675 C1672 1.386 . S
C1676 C1671 1.490 . S
C1676 C1678 1.395 . S
C1676 C1679 1.403 . S
H1677 C1683 0.930 1_565 S
C1678 H1664 0.930 . S
C1678 C1676 1.395 . S
C1678 C1681 1.403 . S
C1679 C1676 1.403 . S
C1679 C1680 1.524 1_545 S
C1679 C1683 1.400 . S
C1680 H1665 0.960 . S
C1680 H1666 0.960 . S
C1680 H1667 0.960 1_565 S
C1680 C1679 1.524 1_565 S
C1681 C1678 1.403 . S
C1681 C1682 1.392 . S
C1681 C1685 1.495 . S
C1682 C1681 1.392 . S
C1682 C1683 1.385 . S
C1682 C1684 1.478 . S
C1683 H1677 0.930 1_545 S
C1683 C1679 1.400 . S
C1683 C1682 1.385 . S
C1684 C1682 1.478 . S
C1684 C1686 1.381 1_545 S
C1684 C1690 1.383 . S
C1685 C1681 1.495 . S
C1685 H1691 0.959 . S
C1685 H1692 0.961 . S
C1685 H1693 0.960 . S
C1686 C1684 1.381 1_565 S
C1686 C1687 1.394 . S
C1686 H1694 0.930 . S
C1687 C1686 1.394 . S
C1687 C1688 1.383 . S
C1687 H1695 0.929 . S
C1688 C1687 1.383 . S
C1688 C1689 1.377 1_565 S
C1689 H1673 0.930 . S
C1689 C1688 1.377 1_545 S
C1689 C1690 1.379 . S
C1690 H1674 0.931 . S
C1690 C1684 1.383 . S
C1690 C1689 1.379 . S
H1691 C1685 0.959 . S
H1692 C1685 0.961 . S
H1693 C1685 0.960 . S
H1694 C1686 0.930 . S
H1695 C1687 0.929 . S
H1696 C1704 0.929 1_545 S
H1697 C1706 0.930 . S
H1698 C1708 0.930 . S
H1699 C1711 0.929 . S
H1700 C1714 0.930 . S
H1701 C1716 0.960 . S
H1702 C1716 0.960 . S
H1703 C1716 0.960 . S
C1704 H1696 0.929 1_565 S
C1704 C1705 1.377 . S
C1704 C1706 1.384 1_565 S
C1705 C1704 1.377 . S
C1705 C1711 1.390 . S
C1706 H1697 0.930 . S
C1706 C1704 1.384 1_545 S
C1706 C1707 1.372 1_545 S
C1707 C1706 1.372 1_565 S
C1707 C1708 1.400 . S
C1707 C1712 1.490 . S
C1708 H1698 0.930 . S
C1708 C1707 1.400 . S
C1708 C1711 1.386 . S
H1709 C1725 0.930 1_565 S
H1710 C1726 0.952 . S
C1711 H1699 0.929 . S
C1711 C1705 1.390 . S
C1711 C1708 1.386 . S
C1712 C1707 1.490 . S
C1712 C1714 1.395 1_565 S
C1712 C1715 1.403 1_556 S
H1713 C1719 0.930 . S
C1714 H1700 0.930 . S
C1714 C1712 1.395 1_545 S
C1714 C1717 1.403 . S
C1715 C1712 1.403 1_554 S
C1715 C1716 1.524 . S
C1715 C1719 1.400 . S
C1716 H1701 0.960 . S
C1716 H1702 0.960 . S
C1716 H1703 0.960 . S
C1716 C1715 1.524 . S
C1717 C1714 1.403 . S
C1717 C1718 1.392 1_556 S
C1717 C1721 1.495 . S
C1718 C1717 1.392 1_554 S
C1718 C1719 1.385 1_545 S
C1718 C1720 1.478 . S
C1719 H1713 0.930 . S
C1719 C1715 1.400 . S
C1719 C1718 1.385 1_565 S
C1720 C1718 1.478 . S
C1720 C1722 1.381 . S
C1720 C1726 1.368 1_545 S
C1721 C1717 1.495 . S
C1721 H1727 0.959 . S
C1721 H1728 0.961 . S
C1721 H1729 0.960 . S
C1722 C1720 1.381 . S
C1722 C1723 1.394 . S
C1722 H1730 0.930 . S
C1723 C1722 1.394 . S
C1723 C1724 1.383 . S
C1723 H1731 0.929 . S
C1724 C1723 1.383 . S
C1724 C1725 1.377 . S
C1725 H1709 0.930 1_545 S
C1725 C1724 1.377 . S
C1725 C1726 1.374 1_545 S
C1726 H1710 0.952 . S
C1726 C1720 1.368 1_565 S
C1726 C1725 1.374 1_565 S
H1727 C1721 0.959 . S
H1728 C1721 0.961 . S
H1729 C1721 0.960 . S
H1730 C1722 0.930 . S
H1731 C1723 0.929 . S
H1732 C1740 0.929 . S
H1733 C1742 0.930 . S
H1734 C1744 0.930 . S
H1735 C1747 0.929 . S
H1736 C1750 0.930 . S
H1737 C1752 0.960 . S
H1738 C1752 0.960 . S
H1739 C1752 0.960 . S
C1740 H1732 0.929 . S
C1740 C1741 1.377 . S
C1740 C1742 1.384 . S
C1741 C1740 1.377 . S
C1741 C1747 1.390 . S
C1742 H1733 0.930 . S
C1742 C1740 1.384 . S
C1742 C1743 1.372 . S
C1743 C1742 1.372 . S
C1743 C1744 1.400 . S
C1743 C1748 1.490 . S
C1744 H1734 0.930 . S
C1744 C1743 1.400 . S
C1744 C1747 1.386 . S
H1745 C1761 0.930 . S
H1746 C1762 0.931 . S
C1747 H1735 0.929 . S
C1747 C1741 1.390 . S
C1747 C1744 1.386 . S
C1748 C1743 1.490 . S
C1748 C1750 1.395 . S
C1748 C1751 1.403 . S
H1749 C1755 0.930 . S
C1750 H1736 0.930 . S
C1750 C1748 1.395 . S
C1750 C1753 1.403 . S
C1751 C1748 1.403 . S
C1751 C1752 1.524 . S
C1751 C1755 1.400 . S
C1752 H1737 0.960 . S
C1752 H1738 0.960 . S
C1752 H1739 0.960 . S
C1752 C1751 1.524 . S
C1753 C1750 1.403 . S
C1753 C1754 1.392 . S
C1753 C1757 1.495 . S
C1754 C1753 1.392 . S
C1754 C1755 1.385 . S
C1754 C1756 1.478 . S
C1755 H1749 0.930 . S
C1755 C1751 1.400 . S
C1755 C1754 1.385 . S
C1756 C1754 1.478 . S
C1756 C1758 1.381 . S
C1756 C1762 1.383 . S
C1757 C1753 1.495 . S
C1757 H1763 0.959 . S
C1757 H1764 0.961 . S
C1757 H1765 0.960 . S
C1758 C1756 1.381 . S
C1758 C1759 1.394 . S
C1758 H1766 0.930 . S
C1759 C1758 1.394 . S
C1759 C1760 1.383 . S
C1759 H1767 0.929 . S
C1760 C1759 1.383 . S
C1760 C1761 1.377 . S
C1761 H1745 0.930 . S
C1761 C1760 1.377 . S
C1761 C1762 1.379 . S
C1762 H1746 0.931 . S
C1762 C1756 1.383 . S
C1762 C1761 1.379 . S
H1763 C1757 0.959 . S
H1764 C1757 0.961 . S
H1765 C1757 0.960 . S
H1766 C1758 0.930 . S
H1767 C1759 0.929 . S
H1768 C1776 0.929 . S
H1769 C1778 0.930 . S
H1770 C1780 0.930 1_565 S
H1771 C1783 0.929 . S
H1772 C1786 0.930 . S
H1773 C1788 0.960 . S
H1774 C1788 0.960 . S
H1775 C1788 0.960 . S
C1776 H1768 0.929 . S
C1776 C1777 1.377 . S
C1776 C1778 1.384 . S
C1777 C1776 1.377 . S
C1777 C1783 1.390 . S
C1778 H1769 0.930 . S
C1778 C1776 1.384 . S
C1778 C1779 1.372 . S
C1779 C1778 1.372 . S
C1779 C1780 1.400 . S
C1779 C1784 1.490 . S
C1780 H1770 0.930 1_545 S
C1780 C1779 1.400 . S
C1780 C1783 1.386 . S
H1781 C1797 0.930 . S
H1782 C1798 0.931 . S
C1783 H1771 0.929 . S
C1783 C1777 1.390 . S
C1783 C1780 1.386 . S
C1784 C1779 1.490 . S
C1784 C1786 1.395 1_545 S
C1784 C1787 1.403 1_655 S
H1785 C1791 0.930 . S
C1786 H1772 0.930 . S
C1786 C1784 1.395 1_565 S
C1786 C1789 1.403 . S
C1787 C1784 1.403 1_455 S
C1787 C1788 1.524 . S
C1787 C1791 1.400 . S
C1788 H1773 0.960 . S
C1788 H1774 0.960 . S
C1788 H1775 0.960 . S
C1788 C1787 1.524 . S
C1789 C1786 1.403 . S
C1789 C1790 1.392 1_655 S
C1789 C1793 1.495 . S
C1790 C1789 1.392 1_455 S
C1790 C1791 1.385 1_565 S
C1790 C1792 1.478 . S
C1791 H1785 0.930 . S
C1791 C1787 1.400 . S
C1791 C1790 1.385 1_545 S
C1792 C1790 1.478 . S
C1792 C1794 1.381 . S
C1792 C1798 1.383 . S
C1793 C1789 1.495 . S
C1793 H1799 0.959 . S
C1793 H1800 0.961 . S
C1793 H1801 0.960 . S
C1794 C1792 1.381 . S
C1794 C1795 1.394 . S
C1794 H1802 0.930 1_565 S
C1795 C1794 1.394 . S
C1795 C1796 1.383 . S
C1795 H1803 0.929 . S
C1796 C1795 1.383 . S
C1796 C1797 1.377 . S
C1797 H1781 0.930 . S
C1797 C1796 1.377 . S
C1797 C1798 1.379 . S
C1798 H1782 0.931 . S
C1798 C1792 1.383 . S
C1798 C1797 1.379 . S
H1799 C1793 0.959 . S
H1800 C1793 0.961 . S
H1801 C1793 0.960 . S
H1802 C1794 0.930 1_545 S
H1803 C1795 0.929 . S
H1804 C1812 0.929 . S
H1805 C1814 0.930 . S
H1806 C1816 0.930 . S
H1807 C1819 0.929 . S
H1808 C1822 0.930 . S
H1809 C1824 0.960 . S
H1810 C1824 0.960 . S
H1811 C1824 0.960 . S
C1812 H1804 0.929 . S
C1812 C1813 1.377 . S
C1812 C1814 1.384 . S
C1813 C1812 1.377 . S
C1813 C1819 1.390 . S
C1814 H1805 0.930 . S
C1814 C1812 1.384 . S
C1814 C1815 1.372 . S
C1815 C1814 1.372 . S
C1815 C1816 1.400 . S
C1815 C1820 1.490 . S
C1816 H1806 0.930 . S
C1816 C1815 1.400 . S
C1816 C1819 1.386 . S
H1817 C1833 0.930 . S
H1818 C1834 0.931 . S
C1819 H1807 0.929 . S
C1819 C1813 1.390 . S
C1819 C1816 1.386 . S
C1820 C1815 1.490 . S
C1820 C1822 1.395 . S
C1820 C1823 1.403 . S
H1821 C1827 0.930 . S
C1822 H1808 0.930 . S
C1822 C1820 1.395 . S
C1822 C1825 1.403 . S
C1823 C1820 1.403 . S
C1823 C1824 1.524 . S
C1823 C1827 1.400 . S
C1824 H1809 0.960 . S
C1824 H1810 0.960 . S
C1824 H1811 0.960 . S
C1824 C1823 1.524 . S
C1825 C1822 1.403 . S
C1825 C1826 1.392 . S
C1825 C1829 1.495 . S
C1826 C1825 1.392 . S
C1826 C1827 1.385 . S
C1826 C1828 1.478 . S
C1827 H1821 0.930 . S
C1827 C1823 1.400 . S
C1827 C1826 1.385 . S
C1828 C1826 1.478 . S
C1828 C1830 1.381 . S
C1828 C1834 1.383 . S
C1829 C1825 1.495 . S
C1829 H1835 0.959 . S
C1829 H1836 0.961 . S
C1829 H1837 0.960 . S
C1830 C1828 1.381 . S
C1830 C1831 1.394 . S
C1830 H1838 0.930 . S
C1831 C1830 1.394 . S
C1831 C1832 1.383 . S
C1831 H1839 0.929 . S
C1832 C1831 1.383 . S
C1832 C1833 1.377 . S
C1833 H1817 0.930 . S
C1833 C1832 1.377 . S
C1833 C1834 1.379 . S
C1834 H1818 0.931 . S
C1834 C1828 1.383 . S
C1834 C1833 1.379 . S
H1835 C1829 0.959 . S
H1836 C1829 0.961 . S
H1837 C1829 0.960 . S
H1838 C1830 0.930 . S
H1839 C1831 0.929 . S
H1840 C1848 0.929 . S
H1841 C1850 0.930 . S
H1842 C1852 0.930 . S
H1843 C1855 0.929 . S
H1844 C1858 0.930 . S
H1845 C1860 0.960 . S
H1846 C1860 0.960 . S
H1847 C1860 0.960 . S
C1848 H1840 0.929 . S
C1848 C1849 1.377 . S
C1848 C1850 1.384 . S
C1849 C1848 1.377 . S
C1849 C1855 1.390 . S
C1850 H1841 0.930 . S
C1850 C1848 1.384 . S
C1850 C1851 1.372 . S
C1851 C1850 1.372 . S
C1851 C1852 1.400 . S
C1851 C1856 1.490 . S
C1852 H1842 0.930 . S
C1852 C1851 1.400 . S
C1852 C1855 1.386 . S
H1853 C1869 0.930 . S
H1854 C1870 0.931 . S
C1855 H1843 0.929 . S
C1855 C1849 1.390 . S
C1855 C1852 1.386 . S
C1856 C1851 1.490 . S
C1856 C1858 1.395 . S
C1856 C1859 1.403 . S
H1857 C1863 0.930 . S
C1858 H1844 0.930 . S
C1858 C1856 1.395 . S
C1858 C1861 1.403 . S
C1859 C1856 1.403 . S
C1859 C1860 1.524 . S
C1859 C1863 1.400 . S
C1860 H1845 0.960 . S
C1860 H1846 0.960 . S
C1860 H1847 0.960 . S
C1860 C1859 1.524 . S
C1861 C1858 1.403 . S
C1861 C1862 1.392 . S
C1861 C1865 1.495 . S
C1862 C1861 1.392 . S
C1862 C1863 1.385 . S
C1862 C1864 1.478 . S
C1863 H1857 0.930 . S
C1863 C1859 1.400 . S
C1863 C1862 1.385 . S
C1864 C1862 1.478 . S
C1864 C1866 1.381 . S
C1864 C1870 1.383 . S
C1865 C1861 1.495 . S
C1865 H1871 0.959 . S
C1865 H1872 0.961 . S
C1865 H1873 0.960 . S
C1866 C1864 1.381 . S
C1866 C1867 1.394 . S
C1866 H1874 0.930 . S
C1867 C1866 1.394 . S
C1867 C1868 1.383 . S
C1867 H1875 0.929 . S
C1868 C1867 1.383 . S
C1868 C1869 1.377 . S
C1869 H1853 0.930 . S
C1869 C1868 1.377 . S
C1869 C1870 1.379 . S
C1870 H1854 0.931 . S
C1870 C1864 1.383 . S
C1870 C1869 1.379 . S
H1871 C1865 0.959 . S
H1872 C1865 0.961 . S
H1873 C1865 0.960 . S
H1874 C1866 0.930 . S
H1875 C1867 0.929 . S
H1876 C1884 0.929 . S
H1877 C1886 0.930 . S
H1878 C1888 0.930 . S
H1879 C1891 0.929 . S
H1880 C1894 0.930 . S
H1881 C1896 0.960 . S
H1882 C1896 0.960 . S
H1883 C1896 0.960 . S
C1884 H1876 0.929 . S
C1884 C1885 1.377 . S
C1884 C1886 1.384 . S
C1885 C1884 1.377 . S
C1885 C1891 1.390 . S
C1886 H1877 0.930 . S
C1886 C1884 1.384 . S
C1886 C1887 1.372 . S
C1887 C1886 1.372 . S
C1887 C1888 1.400 . S
C1887 C1892 1.490 . S
C1888 H1878 0.930 . S
C1888 C1887 1.400 . S
C1888 C1891 1.386 . S
H1889 C1905 0.930 . S
H1890 C1906 0.931 . S
C1891 H1879 0.929 . S
C1891 C1885 1.390 . S
C1891 C1888 1.386 . S
C1892 C1887 1.490 . S
C1892 C1894 1.395 . S
C1892 C1895 1.403 . S
H1893 C1899 0.930 . S
C1894 H1880 0.930 . S
C1894 C1892 1.395 . S
C1894 C1897 1.403 . S
C1895 C1892 1.403 . S
C1895 C1896 1.524 . S
C1895 C1899 1.400 . S
C1896 H1881 0.960 . S
C1896 H1882 0.960 . S
C1896 H1883 0.960 . S
C1896 C1895 1.524 . S
C1897 C1894 1.403 . S
C1897 C1898 1.392 . S
C1897 C1901 1.495 . S
C1898 C1897 1.392 . S
C1898 C1899 1.385 . S
C1898 C1900 1.478 . S
C1899 H1893 0.930 . S
C1899 C1895 1.400 . S
C1899 C1898 1.385 . S
C1900 C1898 1.478 . S
C1900 C1902 1.381 . S
C1900 C1906 1.383 . S
C1901 C1897 1.495 . S
C1901 H1907 0.959 . S
C1901 H1908 0.961 . S
C1901 H1909 0.960 . S
C1902 C1900 1.381 . S
C1902 C1903 1.394 . S
C1902 H1910 0.930 . S
C1903 C1902 1.394 . S
C1903 C1904 1.383 . S
C1903 H1911 0.929 . S
C1904 C1903 1.383 . S
C1904 C1905 1.377 . S
C1905 H1889 0.930 . S
C1905 C1904 1.377 . S
C1905 C1906 1.379 . S
C1906 H1890 0.931 . S
C1906 C1900 1.383 . S
C1906 C1905 1.379 . S
H1907 C1901 0.959 . S
H1908 C1901 0.961 . S
H1909 C1901 0.960 . S
H1910 C1902 0.930 . S
H1911 C1903 0.929 . S
H1912 C1920 0.929 . S
H1913 C1922 0.930 . S
H1914 C1924 0.930 . S
H1915 C1927 0.929 . S
H1916 C1930 0.930 . S
H1917 C1932 0.960 . S
H1918 C1932 0.960 . S
H1919 C1932 0.960 . S
C1920 H1912 0.929 . S
C1920 C1921 1.377 . S
C1920 C1922 1.384 . S
C1921 C1920 1.377 . S
C1921 C1927 1.390 . S
C1922 H1913 0.930 . S
C1922 C1920 1.384 . S
C1922 C1923 1.372 . S
C1923 C1922 1.372 . S
C1923 C1924 1.400 . S
C1923 C1928 1.490 . S
C1924 H1914 0.930 . S
C1924 C1923 1.400 . S
C1924 C1927 1.386 . S
H1925 C1941 0.930 . S
H1926 C1942 0.931 . S
C1927 H1915 0.929 . S
C1927 C1921 1.390 . S
C1927 C1924 1.386 . S
C1928 C1923 1.490 . S
C1928 C1930 1.395 . S
C1928 C1931 1.403 . S
H1929 C1935 0.930 . S
C1930 H1916 0.930 . S
C1930 C1928 1.395 . S
C1930 C1933 1.403 1_655 S
C1931 C1928 1.403 . S
C1931 C1932 1.524 . S
C1931 C1935 1.400 1_655 S
C1932 H1917 0.960 . S
C1932 H1918 0.960 . S
C1932 H1919 0.960 . S
C1932 C1931 1.524 . S
C1933 C1930 1.403 1_455 S
C1933 C1934 1.392 . S
C1933 C1937 1.495 . S
C1934 C1933 1.392 . S
C1934 C1935 1.385 . S
C1934 C1936 1.478 . S
C1935 H1929 0.930 . S
C1935 C1931 1.400 1_455 S
C1935 C1934 1.385 . S
C1936 C1934 1.478 . S
C1936 C1938 1.381 . S
C1936 C1942 1.383 . S
C1937 C1933 1.495 . S
C1937 H1943 0.959 . S
C1937 H1944 0.961 . S
C1937 H1945 0.960 . S
C1938 C1936 1.381 . S
C1938 C1939 1.394 . S
C1938 H1946 0.930 . S
C1939 C1938 1.394 . S
C1939 C1940 1.383 . S
C1939 H1947 0.929 . S
C1940 C1939 1.383 . S
C1940 C1941 1.377 . S
C1941 H1925 0.930 . S
C1941 C1940 1.377 . S
C1941 C1942 1.379 . S
C1942 H1926 0.931 . S
C1942 C1936 1.383 . S
C1942 C1941 1.379 . S
H1943 C1937 0.959 . S
H1944 C1937 0.961 . S
H1945 C1937 0.960 . S
H1946 C1938 0.930 . S
H1947 C1939 0.929 . S
H1948 C1956 0.929 . S
H1949 C1958 0.930 . S
H1950 C1960 0.930 . S
H1951 C1963 0.929 . S
H1952 C1966 0.930 . S
H1953 C1968 0.960 . S
H1954 C1968 0.960 . S
H1955 C1968 0.960 . S
C1956 H1948 0.929 . S
C1956 C1957 1.377 . S
C1956 C1958 1.384 . S
C1957 C1956 1.377 . S
C1957 C1963 1.390 . S
C1958 H1949 0.930 . S
C1958 C1956 1.384 . S
C1958 C1959 1.372 . S
C1959 C1958 1.372 . S
C1959 C1960 1.400 . S
C1959 C1964 1.490 . S
C1960 H1950 0.930 . S
C1960 C1959 1.400 . S
C1960 C1963 1.386 . S
H1961 C1977 0.930 . S
H1962 C1978 0.931 . S
C1963 H1951 0.929 . S
C1963 C1957 1.390 . S
C1963 C1960 1.386 . S
C1964 C1959 1.490 . S
C1964 C1966 1.395 . S
C1964 C1967 1.403 . S
H1965 C1971 0.930 . S
C1966 H1952 0.930 . S
C1966 C1964 1.395 . S
C1966 C1969 1.403 1_554 S
C1967 C1964 1.403 . S
C1967 C1968 1.524 . S
C1967 C1971 1.400 1_554 S
C1968 H1953 0.960 . S
C1968 H1954 0.960 . S
C1968 H1955 0.960 . S
C1968 C1967 1.524 . S
C1969 C1966 1.403 1_556 S
C1969 C1970 1.392 . S
C1969 C1973 1.495 . S
C1970 C1969 1.392 . S
C1970 C1971 1.385 . S
C1970 C1972 1.478 . S
C1971 H1965 0.930 . S
C1971 C1967 1.400 1_556 S
C1971 C1970 1.385 . S
C1972 C1970 1.478 . S
C1972 C1974 1.381 . S
C1972 C1978 1.383 . S
C1973 C1969 1.495 . S
C1973 H1979 0.959 . S
C1973 H1980 0.961 . S
C1973 H1981 0.960 . S
C1974 C1972 1.381 . S
C1974 C1975 1.394 . S
C1974 H1982 0.930 . S
C1975 C1974 1.394 . S
C1975 C1976 1.383 . S
C1975 H1983 0.929 . S
C1976 C1975 1.383 . S
C1976 C1977 1.377 . S
C1977 H1961 0.930 . S
C1977 C1976 1.377 . S
C1977 C1978 1.379 . S
C1978 H1962 0.931 . S
C1978 C1972 1.383 . S
C1978 C1977 1.379 . S
H1979 C1973 0.959 . S
H1980 C1973 0.961 . S
H1981 C1973 0.960 . S
H1982 C1974 0.930 . S
H1983 C1975 0.929 . S
H1984 C1992 0.929 . S
H1985 C1994 0.930 . S
H1986 C1996 0.930 . S
H1987 C1999 0.929 . S
H1988 C2002 0.930 . S
H1989 C2004 0.960 . S
H1990 C2004 0.960 . S
H1991 C2004 0.960 . S
C1992 H1984 0.929 . S
C1992 C1993 1.377 . S
C1992 C1994 1.384 . S
C1993 C1992 1.377 . S
C1993 C1999 1.390 . S
C1994 H1985 0.930 . S
C1994 C1992 1.384 . S
C1994 C1995 1.372 . S
C1995 C1994 1.372 . S
C1995 C1996 1.400 . S
C1995 C2000 1.490 . S
C1996 H1986 0.930 . S
C1996 C1995 1.400 . S
C1996 C1999 1.386 . S
H1997 C2013 0.930 . S
H1998 C2014 0.931 . S
C1999 H1987 0.929 . S
C1999 C1993 1.390 . S
C1999 C1996 1.386 . S
C2000 C1995 1.490 . S
C2000 C2002 1.395 . S
C2000 C2003 1.403 . S
H2001 C2007 0.930 . S
C2002 H1988 0.930 . S
C2002 C2000 1.395 . S
C2002 C2005 1.403 . S
C2003 C2000 1.403 . S
C2003 C2004 1.524 . S
C2003 C2007 1.400 . S
C2004 H1989 0.960 . S
C2004 H1990 0.960 . S
C2004 H1991 0.960 . S
C2004 C2003 1.524 . S
C2005 C2002 1.403 . S
C2005 C2006 1.392 . S
C2005 C2009 1.495 . S
C2006 C2005 1.392 . S
C2006 C2007 1.385 . S
C2006 C2008 1.478 . S
C2007 H2001 0.930 . S
C2007 C2003 1.400 . S
C2007 C2006 1.385 . S
C2008 C2006 1.478 . S
C2008 C2010 1.381 . S
C2008 C2014 1.383 . S
C2009 C2005 1.495 . S
C2009 H2015 0.959 . S
C2009 H2016 0.961 . S
C2009 H2017 0.960 . S
C2010 C2008 1.381 . S
C2010 C2011 1.394 . S
C2010 H2018 0.930 . S
C2011 C2010 1.394 . S
C2011 C2012 1.383 . S
C2011 H2019 0.929 . S
C2012 C2011 1.383 . S
C2012 C2013 1.377 . S
C2013 H1997 0.930 . S
C2013 C2012 1.377 . S
C2013 C2014 1.379 . S
C2014 H1998 0.931 . S
C2014 C2008 1.383 . S
C2014 C2013 1.379 . S
H2015 C2009 0.959 . S
H2016 C2009 0.961 . S
H2017 C2009 0.960 . S
H2018 C2010 0.930 . S
H2019 C2011 0.929 . S
H2020 C2028 0.929 . S
H2021 C2030 0.930 . S
H2022 C2032 0.930 . S
H2023 C2035 0.929 . S
H2024 C2038 0.930 . S
H2025 C2040 0.960 . S
H2026 C2040 0.960 1_455 S
H2027 C2040 0.960 1_455 S
C2028 H2020 0.929 . S
C2028 C2029 1.377 . S
C2028 C2030 1.384 . S
C2029 C2028 1.377 . S
C2029 C2035 1.390 . S
C2030 H2021 0.930 . S
C2030 C2028 1.384 . S
C2030 C2031 1.372 . S
C2031 C2030 1.372 . S
C2031 C2032 1.400 . S
C2031 C2036 1.490 . S
C2032 H2022 0.930 . S
C2032 C2031 1.400 . S
C2032 C2035 1.386 . S
H2033 C2049 0.930 . S
H2034 C2050 0.931 . S
C2035 H2023 0.929 . S
C2035 C2029 1.390 . S
C2035 C2032 1.386 . S
C2036 C2031 1.490 . S
C2036 C2038 1.395 . S
C2036 C2039 1.403 1_455 S
H2037 C2043 0.930 . S
C2038 H2024 0.930 . S
C2038 C2036 1.395 . S
C2038 C2041 1.403 1_455 S
C2039 C2036 1.403 1_655 S
C2039 C2040 1.524 . S
C2039 C2043 1.400 . S
C2040 H2025 0.960 . S
C2040 H2026 0.960 1_655 S
C2040 H2027 0.960 1_655 S
C2040 C2039 1.524 . S
C2041 C2038 1.403 1_655 S
C2041 C2042 1.392 . S
C2041 C2045 1.495 . S
C2042 C2041 1.392 . S
C2042 C2043 1.385 . S
C2042 C2044 1.478 . S
C2043 H2037 0.930 . S
C2043 C2039 1.400 . S
C2043 C2042 1.385 . S
C2044 C2042 1.478 . S
C2044 C2046 1.381 . S
C2044 C2050 1.383 . S
C2045 C2041 1.495 . S
C2045 H2051 0.959 . S
C2045 H2052 0.961 . S
C2045 H2053 0.960 . S
C2046 C2044 1.381 . S
C2046 C2047 1.394 . S
C2046 H2054 0.930 . S
C2047 C2046 1.394 . S
C2047 C2048 1.383 . S
C2047 H2055 0.929 . S
C2048 C2047 1.383 . S
C2048 C2049 1.377 . S
C2049 H2033 0.930 . S
C2049 C2048 1.377 . S
C2049 C2050 1.379 . S
C2050 H2034 0.931 . S
C2050 C2044 1.383 . S
C2050 C2049 1.379 . S
H2051 C2045 0.959 . S
H2052 C2045 0.961 . S
H2053 C2045 0.960 . S
H2054 C2046 0.930 . S
H2055 C2047 0.929 . S
H2056 C2064 0.929 . S
H2057 C2066 0.930 . S
H2058 C2068 0.930 . S
H2059 C2071 0.929 . S
H2060 C2074 0.930 . S
H2061 C2076 0.960 . S
H2062 C2076 0.960 . S
H2063 C2076 0.960 . S
C2064 H2056 0.929 . S
C2064 C2065 1.377 . S
C2064 C2066 1.384 . S
C2065 C2064 1.377 . S
C2065 C2071 1.390 . S
C2066 H2057 0.930 . S
C2066 C2064 1.384 . S
C2066 C2067 1.372 . S
C2067 C2066 1.372 . S
C2067 C2068 1.400 . S
C2067 C2072 1.490 . S
C2068 H2058 0.930 . S
C2068 C2067 1.400 . S
C2068 C2071 1.386 . S
H2069 C2085 0.930 . S
H2070 C2086 0.931 . S
C2071 H2059 0.929 . S
C2071 C2065 1.390 . S
C2071 C2068 1.386 . S
C2072 C2067 1.490 . S
C2072 C2074 1.395 . S
C2072 C2075 1.403 . S
H2073 C2079 0.930 . S
C2074 H2060 0.930 . S
C2074 C2072 1.395 . S
C2074 C2077 1.403 . S
C2075 C2072 1.403 . S
C2075 C2076 1.524 . S
C2075 C2079 1.400 . S
C2076 H2061 0.960 . S
C2076 H2062 0.960 . S
C2076 H2063 0.960 . S
C2076 C2075 1.524 . S
C2077 C2074 1.403 . S
C2077 C2078 1.392 . S
C2077 C2081 1.495 . S
C2078 C2077 1.392 . S
C2078 C2079 1.385 . S
C2078 C2080 1.478 . S
C2079 H2073 0.930 . S
C2079 C2075 1.400 . S
C2079 C2078 1.385 . S
C2080 C2078 1.478 . S
C2080 C2082 1.381 . S
C2080 C2086 1.383 . S
C2081 C2077 1.495 . S
C2081 H2087 0.959 . S
C2081 H2088 0.961 . S
C2081 H2089 0.960 . S
C2082 C2080 1.381 . S
C2082 C2083 1.394 . S
C2082 H2090 0.930 . S
C2083 C2082 1.394 . S
C2083 C2084 1.383 . S
C2083 H2091 0.929 . S
C2084 C2083 1.383 . S
C2084 C2085 1.377 . S
C2085 H2069 0.930 . S
C2085 C2084 1.377 . S
C2085 C2086 1.379 . S
C2086 H2070 0.931 . S
C2086 C2080 1.383 . S
C2086 C2085 1.379 . S
H2087 C2081 0.959 . S
H2088 C2081 0.961 . S
H2089 C2081 0.960 . S
H2090 C2082 0.930 . S
H2091 C2083 0.929 . S
H2092 C2100 0.929 . S
H2093 C2102 0.930 . S
H2094 C2104 0.930 . S
H2095 C2107 0.929 . S
H2096 C2110 0.930 . S
H2097 C2112 0.960 . S
H2098 C2112 0.960 . S
H2099 C2112 0.960 . S
C2100 H2092 0.929 . S
C2100 C2101 1.377 . S
C2100 C2102 1.384 . S
C2101 C2100 1.377 . S
C2101 C2107 1.390 . S
C2102 H2093 0.930 . S
C2102 C2100 1.384 . S
C2102 C2103 1.372 . S
C2103 C2102 1.372 . S
C2103 C2104 1.400 . S
C2103 C2108 1.490 . S
C2104 H2094 0.930 . S
C2104 C2103 1.400 . S
C2104 C2107 1.386 . S
H2105 C2121 0.930 . S
H2106 C2122 0.931 . S
C2107 H2095 0.929 . S
C2107 C2101 1.390 . S
C2107 C2104 1.386 . S
C2108 C2103 1.490 . S
C2108 C2110 1.395 . S
C2108 C2111 1.403 . S
H2109 C2115 0.930 . S
C2110 H2096 0.930 . S
C2110 C2108 1.395 . S
C2110 C2113 1.403 . S
C2111 C2108 1.403 . S
C2111 C2112 1.524 . S
C2111 C2115 1.400 . S
C2112 H2097 0.960 . S
C2112 H2098 0.960 . S
C2112 H2099 0.960 . S
C2112 C2111 1.524 . S
C2113 C2110 1.403 . S
C2113 C2114 1.392 . S
C2113 C2117 1.495 . S
C2114 C2113 1.392 . S
C2114 C2115 1.385 . S
C2114 C2116 1.478 . S
C2115 H2109 0.930 . S
C2115 C2111 1.400 . S
C2115 C2114 1.385 . S
C2116 C2114 1.478 . S
C2116 C2118 1.381 . S
C2116 C2122 1.383 . S
C2117 C2113 1.495 . S
C2117 H2123 0.959 . S
C2117 H2124 0.961 . S
C2117 H2125 0.960 . S
C2118 C2116 1.381 . S
C2118 C2119 1.394 . S
C2118 H2126 0.930 . S
C2119 C2118 1.394 . S
C2119 C2120 1.383 . S
C2119 H2127 0.929 . S
C2120 C2119 1.383 . S
C2120 C2121 1.377 . S
C2121 H2105 0.930 . S
C2121 C2120 1.377 . S
C2121 C2122 1.379 . S
C2122 H2106 0.931 . S
C2122 C2116 1.383 . S
C2122 C2121 1.379 . S
H2123 C2117 0.959 . S
H2124 C2117 0.961 . S
H2125 C2117 0.960 . S
H2126 C2118 0.930 . S
H2127 C2119 0.929 . S
H2128 C2136 0.929 . S
H2129 C2138 0.930 . S
H2130 C2140 0.930 . S
H2131 C2143 0.929 . S
H2132 C2146 0.930 . S
H2133 C2148 0.960 . S
H2134 C2148 0.960 . S
H2135 C2148 0.960 . S
C2136 H2128 0.929 . S
C2136 C2137 1.377 . S
C2136 C2138 1.384 . S
C2137 C2136 1.377 . S
C2137 C2143 1.390 . S
C2138 H2129 0.930 . S
C2138 C2136 1.384 . S
C2138 C2139 1.372 . S
C2139 C2138 1.372 . S
C2139 C2140 1.400 . S
C2139 C2144 1.490 . S
C2140 H2130 0.930 . S
C2140 C2139 1.400 . S
C2140 C2143 1.386 . S
H2141 C2157 0.930 . S
H2142 C2158 0.931 . S
C2143 H2131 0.929 . S
C2143 C2137 1.390 . S
C2143 C2140 1.386 . S
C2144 C2139 1.490 . S
C2144 C2146 1.395 . S
C2144 C2147 1.403 . S
H2145 C2151 0.930 . S
C2146 H2132 0.930 . S
C2146 C2144 1.395 . S
C2146 C2149 1.403 . S
C2147 C2144 1.403 . S
C2147 C2148 1.524 . S
C2147 C2151 1.400 . S
C2148 H2133 0.960 . S
C2148 H2134 0.960 . S
C2148 H2135 0.960 . S
C2148 C2147 1.524 . S
C2149 C2146 1.403 . S
C2149 C2150 1.392 . S
C2149 C2153 1.495 . S
C2150 C2149 1.392 . S
C2150 C2151 1.385 . S
C2150 C2152 1.478 . S
C2151 H2145 0.930 . S
C2151 C2147 1.400 . S
C2151 C2150 1.385 . S
C2152 C2150 1.478 . S
C2152 C2154 1.381 . S
C2152 C2158 1.383 . S
C2153 C2149 1.495 . S
C2153 H2159 0.959 . S
C2153 H2160 0.961 . S
C2153 H2161 0.960 . S
C2154 C2152 1.381 . S
C2154 C2155 1.394 . S
C2154 H2162 0.930 . S
C2155 C2154 1.394 . S
C2155 C2156 1.383 . S
C2155 H2163 0.929 . S
C2156 C2155 1.383 . S
C2156 C2157 1.377 . S
C2157 H2141 0.930 . S
C2157 C2156 1.377 . S
C2157 C2158 1.379 . S
C2158 H2142 0.931 . S
C2158 C2152 1.383 . S
C2158 C2157 1.379 . S
H2159 C2153 0.959 . S
H2160 C2153 0.961 . S
H2161 C2153 0.960 . S
H2162 C2154 0.930 . S
H2163 C2155 0.929 . S
H2164 C2172 0.929 . S
H2165 C2174 0.930 . S
H2166 C2176 0.930 . S
H2167 C2179 0.929 . S
H2168 C2182 0.930 . S
H2169 C2184 0.960 . S
H2170 C2184 0.960 . S
H2171 C2184 0.960 . S
C2172 H2164 0.929 . S
C2172 C2173 1.377 . S
C2172 C2174 1.384 . S
C2173 C2172 1.377 . S
C2173 C2179 1.390 . S
C2174 H2165 0.930 . S
C2174 C2172 1.384 . S
C2174 C2175 1.372 . S
C2175 C2174 1.372 . S
C2175 C2176 1.400 . S
C2175 C2180 1.490 . S
C2176 H2166 0.930 . S
C2176 C2175 1.400 . S
C2176 C2179 1.386 . S
H2177 C2193 0.930 . S
H2178 C2194 0.931 . S
C2179 H2167 0.929 . S
C2179 C2173 1.390 . S
C2179 C2176 1.386 . S
C2180 C2175 1.490 . S
C2180 C2182 1.395 . S
C2180 C2183 1.403 . S
H2181 C2187 0.936 . S
C2182 H2168 0.930 . S
C2182 C2180 1.395 . S
C2182 C2185 1.403 1_455 S
C2183 C2180 1.403 . S
C2183 C2184 1.524 . S
C2183 C2187 1.400 . S
C2184 H2169 0.960 . S
C2184 H2170 0.960 . S
C2184 H2171 0.960 . S
C2184 C2183 1.524 . S
C2185 C2182 1.403 1_655 S
C2185 C2186 1.392 . S
C2185 C2189 1.495 . S
C2186 C2185 1.392 . S
C2186 C2187 1.385 1_655 S
C2186 C2188 1.478 . S
C2187 H2181 0.936 . S
C2187 C2183 1.400 . S
C2187 C2186 1.385 1_455 S
C2188 C2186 1.478 . S
C2188 C2190 1.381 . S
C2188 C2194 1.383 . S
C2189 C2185 1.495 . S
C2189 H2195 0.959 . S
C2189 H2196 0.961 . S
C2189 H2197 0.960 . S
C2190 C2188 1.381 . S
C2190 C2191 1.394 . S
C2190 H2198 0.930 . S
C2191 C2190 1.394 . S
C2191 C2192 1.383 . S
C2191 H2199 0.929 . S
C2192 C2191 1.383 . S
C2192 C2193 1.377 . S
C2193 H2177 0.930 . S
C2193 C2192 1.377 . S
C2193 C2194 1.379 . S
C2194 H2178 0.931 . S
C2194 C2188 1.383 . S
C2194 C2193 1.379 . S
H2195 C2189 0.959 . S
H2196 C2189 0.961 . S
H2197 C2189 0.960 . S
H2198 C2190 0.930 . S
H2199 C2191 0.929 . S
H2200 C2208 0.929 . S
H2201 C2210 0.930 . S
H2202 C2212 0.930 . S
H2203 C2215 0.929 . S
H2204 C2218 0.930 . S
H2205 C2220 0.960 . S
H2206 C2220 0.960 . S
H2207 C2220 0.960 . S
C2208 H2200 0.929 . S
C2208 C2209 1.377 . S
C2208 C2210 1.384 . S
C2209 C2208 1.377 . S
C2209 C2215 1.390 . S
C2210 H2201 0.930 . S
C2210 C2208 1.384 . S
C2210 C2211 1.372 . S
C2211 C2210 1.372 . S
C2211 C2212 1.400 . S
C2211 C2216 1.490 . S
C2212 H2202 0.930 . S
C2212 C2211 1.400 . S
C2212 C2215 1.386 . S
H2213 C2229 0.930 . S
H2214 C2230 0.931 . S
C2215 H2203 0.929 . S
C2215 C2209 1.390 . S
C2215 C2212 1.386 . S
C2216 C2211 1.490 . S
C2216 C2218 1.395 . S
C2216 C2219 1.403 . S
H2217 C2223 0.930 . S
C2218 H2204 0.930 . S
C2218 C2216 1.395 . S
C2218 C2221 1.403 . S
C2219 C2216 1.403 . S
C2219 C2220 1.524 . S
C2219 C2223 1.400 . S
C2220 H2205 0.960 . S
C2220 H2206 0.960 . S
C2220 H2207 0.960 . S
C2220 C2219 1.524 . S
C2221 C2218 1.403 . S
C2221 C2222 1.392 . S
C2221 C2225 1.495 . S
C2222 C2221 1.392 . S
C2222 C2223 1.385 . S
C2222 C2224 1.478 . S
C2223 H2217 0.930 . S
C2223 C2219 1.400 . S
C2223 C2222 1.385 . S
C2224 C2222 1.478 . S
C2224 C2226 1.381 . S
C2224 C2230 1.383 . S
C2225 C2221 1.495 . S
C2225 H2231 0.959 . S
C2225 H2232 0.961 . S
C2225 H2233 0.960 . S
C2226 C2224 1.381 . S
C2226 C2227 1.394 . S
C2226 H2234 0.930 . S
C2227 C2226 1.394 . S
C2227 C2228 1.383 . S
C2227 H2235 0.929 . S
C2228 C2227 1.383 . S
C2228 C2229 1.377 . S
C2229 H2213 0.930 . S
C2229 C2228 1.377 . S
C2229 C2230 1.379 . S
C2230 H2214 0.931 . S
C2230 C2224 1.383 . S
C2230 C2229 1.379 . S
H2231 C2225 0.959 . S
H2232 C2225 0.961 . S
H2233 C2225 0.960 . S
H2234 C2226 0.930 . S
H2235 C2227 0.929 . S
H2236 C2244 0.929 . S
H2237 C2246 0.930 . S
H2238 C2248 0.930 . S
H2239 C2251 0.929 . S
H2240 C2254 0.930 . S
H2241 C2256 0.960 . S
H2242 C2256 0.960 . S
H2243 C2256 0.960 . S
C2244 H2236 0.929 . S
C2244 C2245 1.377 . S
C2244 C2246 1.384 . S
C2245 C2244 1.377 . S
C2245 C2251 1.390 . S
C2246 H2237 0.930 . S
C2246 C2244 1.384 . S
C2246 C2247 1.372 . S
C2247 C2246 1.372 . S
C2247 C2248 1.400 . S
C2247 C2252 1.490 . S
C2248 H2238 0.930 . S
C2248 C2247 1.400 . S
C2248 C2251 1.386 . S
H2249 C2265 0.930 . S
H2250 C2266 0.931 . S
C2251 H2239 0.929 . S
C2251 C2245 1.390 . S
C2251 C2248 1.386 . S
C2252 C2247 1.490 . S
C2252 C2254 1.395 . S
C2252 C2255 1.403 . S
H2253 C2259 0.930 . S
C2254 H2240 0.930 . S
C2254 C2252 1.395 . S
C2254 C2257 1.403 . S
C2255 C2252 1.403 . S
C2255 C2256 1.524 . S
C2255 C2259 1.400 . S
C2256 H2241 0.960 . S
C2256 H2242 0.960 . S
C2256 H2243 0.960 . S
C2256 C2255 1.524 . S
C2257 C2254 1.403 . S
C2257 C2258 1.392 . S
C2257 C2261 1.495 . S
C2258 C2257 1.392 . S
C2258 C2259 1.385 . S
C2258 C2260 1.478 . S
C2259 H2253 0.930 . S
C2259 C2255 1.400 . S
C2259 C2258 1.385 . S
C2260 C2258 1.478 . S
C2260 C2262 1.381 . S
C2260 C2266 1.383 . S
C2261 C2257 1.495 . S
C2261 H2267 0.959 . S
C2261 H2268 0.961 . S
C2261 H2269 0.960 . S
C2262 C2260 1.381 . S
C2262 C2263 1.394 . S
C2262 H2270 0.930 . S
C2263 C2262 1.394 . S
C2263 C2264 1.383 . S
C2263 H2271 0.929 . S
C2264 C2263 1.383 . S
C2264 C2265 1.377 . S
C2265 H2249 0.930 . S
C2265 C2264 1.377 . S
C2265 C2266 1.379 . S
C2266 H2250 0.931 . S
C2266 C2260 1.383 . S
C2266 C2265 1.379 . S
H2267 C2261 0.959 . S
H2268 C2261 0.961 . S
H2269 C2261 0.960 . S
H2270 C2262 0.930 . S
H2271 C2263 0.929 . S
H2272 C2280 0.929 . S
H2273 C2282 0.930 . S
H2274 C2284 0.930 . S
H2275 C2287 0.929 . S
H2276 C2290 0.930 . S
H2277 C2292 0.960 . S
H2278 C2292 0.960 . S
H2279 C2292 0.960 . S
C2280 H2272 0.929 . S
C2280 C2281 1.377 . S
C2280 C2282 1.384 . S
C2281 C2280 1.377 . S
C2281 C2287 1.390 . S
C2282 H2273 0.930 . S
C2282 C2280 1.384 . S
C2282 C2283 1.372 . S
C2283 C2282 1.372 . S
C2283 C2284 1.400 . S
C2283 C2288 1.490 . S
C2284 H2274 0.930 . S
C2284 C2283 1.400 . S
C2284 C2287 1.386 . S
H2285 C2301 0.930 . S
H2286 C2302 0.931 . S
C2287 H2275 0.929 . S
C2287 C2281 1.390 . S
C2287 C2284 1.386 . S
C2288 C2283 1.490 . S
C2288 C2290 1.395 . S
C2288 C2291 1.403 . S
H2289 C2295 0.930 . S
C2290 H2276 0.930 . S
C2290 C2288 1.395 . S
C2290 C2293 1.403 . S
C2291 C2288 1.403 . S
C2291 C2292 1.524 . S
C2291 C2295 1.400 . S
C2292 H2277 0.960 . S
C2292 H2278 0.960 . S
C2292 H2279 0.960 . S
C2292 C2291 1.524 . S
C2293 C2290 1.403 . S
C2293 C2294 1.392 . S
C2293 C2297 1.495 . S
C2294 C2293 1.392 . S
C2294 C2295 1.385 . S
C2294 C2296 1.478 . S
C2295 H2289 0.930 . S
C2295 C2291 1.400 . S
C2295 C2294 1.385 . S
C2296 C2294 1.478 . S
C2296 C2298 1.381 . S
C2296 C2302 1.383 . S
C2297 C2293 1.495 . S
C2297 H2303 0.959 . S
C2297 H2304 0.961 . S
C2297 H2305 0.960 . S
C2298 C2296 1.381 . S
C2298 C2299 1.394 . S
C2298 H2306 0.930 . S
C2299 C2298 1.394 . S
C2299 C2300 1.383 . S
C2299 H2307 0.929 . S
C2300 C2299 1.383 . S
C2300 C2301 1.377 . S
C2301 H2285 0.930 . S
C2301 C2300 1.377 . S
C2301 C2302 1.379 . S
C2302 H2286 0.931 . S
C2302 C2296 1.383 . S
C2302 C2301 1.379 . S
H2303 C2297 0.959 . S
H2304 C2297 0.961 . S
H2305 C2297 0.960 . S
H2306 C2298 0.930 . S
H2307 C2299 0.929 . S
H2308 C2316 0.929 . S
H2309 C2318 0.930 . S
H2310 C2320 0.930 . S
H2311 C2323 0.929 . S
H2312 C2326 0.930 . S
H2313 C2328 0.960 . S
H2314 C2328 0.960 . S
H2315 C2328 0.960 . S
C2316 H2308 0.929 . S
C2316 C2317 1.377 1_545 S
C2316 C2318 1.384 . S
C2317 C2316 1.377 1_565 S
C2317 C2323 1.390 . S
C2318 H2309 0.930 . S
C2318 C2316 1.384 . S
C2318 C2319 1.372 . S
C2319 C2318 1.372 . S
C2319 C2320 1.400 1_545 S
C2319 C2324 1.490 . S
C2320 H2310 0.930 . S
C2320 C2319 1.400 1_565 S
C2320 C2323 1.386 . S
H2321 C2337 0.930 . S
H2322 C2338 0.931 . S
C2323 H2311 0.929 . S
C2323 C2317 1.390 . S
C2323 C2320 1.386 . S
C2324 C2319 1.490 . S
C2324 C2326 1.395 . S
C2324 C2327 1.415 . S
H2325 C2331 0.930 1_565 S
C2326 H2312 0.930 . S
C2326 C2324 1.395 . S
C2326 C2329 1.403 . S
C2327 C2324 1.415 . S
C2327 C2328 1.506 1_545 S
C2327 C2331 1.407 . S
C2328 H2313 0.960 . S
C2328 H2314 0.960 . S
C2328 H2315 0.960 . S
C2328 C2327 1.506 1_565 S
C2329 C2326 1.403 . S
C2329 C2330 1.392 . S
C2329 C2333 1.495 . S
C2330 C2329 1.392 . S
C2330 C2331 1.385 . S
C2330 C2332 1.478 . S
C2331 H2325 0.930 1_545 S
C2331 C2327 1.407 . S
C2331 C2330 1.385 . S
C2332 C2330 1.478 . S
C2332 C2334 1.381 . S
C2332 C2338 1.383 . S
C2333 C2329 1.495 . S
C2333 H2339 0.959 . S
C2333 H2340 0.961 . S
C2333 H2341 0.960 . S
C2334 C2332 1.381 . S
C2334 C2335 1.394 . S
C2334 H2342 0.930 . S
C2335 C2334 1.394 . S
C2335 C2336 1.383 . S
C2335 H2343 0.929 . S
C2336 C2335 1.383 . S
C2336 C2337 1.377 . S
C2337 H2321 0.930 . S
C2337 C2336 1.377 . S
C2337 C2338 1.379 . S
C2338 H2322 0.931 . S
C2338 C2332 1.383 . S
C2338 C2337 1.379 . S
H2339 C2333 0.959 . S
H2340 C2333 0.961 . S
H2341 C2333 0.960 . S
H2342 C2334 0.930 . S
H2343 C2335 0.929 . S
H2344 C2352 0.929 . S
H2345 C2354 0.930 . S
H2346 C2356 0.930 . S
H2347 C2359 0.929 . S
H2348 C2362 0.930 . S
H2349 C2364 0.960 . S
H2350 C2364 0.960 . S
H2351 C2364 0.960 . S
C2352 H2344 0.929 . S
C2352 C2353 1.377 . S
C2352 C2354 1.384 . S
C2353 C2352 1.377 . S
C2353 C2359 1.390 . S
C2354 H2345 0.930 . S
C2354 C2352 1.384 . S
C2354 C2355 1.372 . S
C2355 C2354 1.372 . S
C2355 C2356 1.400 . S
C2355 C2360 1.490 . S
C2356 H2346 0.930 . S
C2356 C2355 1.400 . S
C2356 C2359 1.386 . S
H2357 C2373 0.930 . S
H2358 C2374 0.931 . S
C2359 H2347 0.929 . S
C2359 C2353 1.390 . S
C2359 C2356 1.386 . S
C2360 C2355 1.490 . S
C2360 C2362 1.395 . S
C2360 C2363 1.403 . S
H2361 C2367 0.930 . S
C2362 H2348 0.930 . S
C2362 C2360 1.395 . S
C2362 C2365 1.403 . S
C2363 C2360 1.403 . S
C2363 C2364 1.524 . S
C2363 C2367 1.400 . S
C2364 H2349 0.960 . S
C2364 H2350 0.960 . S
C2364 H2351 0.960 . S
C2364 C2363 1.524 . S
C2365 C2362 1.403 . S
C2365 C2366 1.392 . S
C2365 C2369 1.495 . S
C2366 C2365 1.392 . S
C2366 C2367 1.385 . S
C2366 C2368 1.478 . S
C2367 H2361 0.930 . S
C2367 C2363 1.400 . S
C2367 C2366 1.385 . S
C2368 C2366 1.478 . S
C2368 C2370 1.381 . S
C2368 C2374 1.383 . S
C2369 C2365 1.495 . S
C2369 H2375 0.959 . S
C2369 H2376 0.961 . S
C2369 H2377 0.960 . S
C2370 C2368 1.381 . S
C2370 C2371 1.394 . S
C2370 H2378 0.930 . S
C2371 C2370 1.394 . S
C2371 C2372 1.383 . S
C2371 H2379 0.929 . S
C2372 C2371 1.383 . S
C2372 C2373 1.377 . S
C2373 H2357 0.930 . S
C2373 C2372 1.377 . S
C2373 C2374 1.379 . S
C2374 H2358 0.931 . S
C2374 C2368 1.383 . S
C2374 C2373 1.379 . S
H2375 C2369 0.959 . S
H2376 C2369 0.961 . S
H2377 C2369 0.960 . S
H2378 C2370 0.930 . S
H2379 C2371 0.929 . S
H2380 C2388 0.929 . S
H2381 C2390 0.930 . S
H2382 C2392 0.930 . S
H2383 C2395 0.929 . S
H2384 C2398 0.930 . S
H2385 C2400 0.960 . S
H2386 C2400 0.960 . S
H2387 C2400 0.960 . S
C2388 H2380 0.929 . S
C2388 C2389 1.377 . S
C2388 C2390 1.384 . S
C2389 C2388 1.377 . S
C2389 C2395 1.390 . S
C2390 H2381 0.930 . S
C2390 C2388 1.384 . S
C2390 C2391 1.372 . S
C2391 C2390 1.372 . S
C2391 C2392 1.400 . S
C2391 C2396 1.490 . S
C2392 H2382 0.930 . S
C2392 C2391 1.400 . S
C2392 C2395 1.386 . S
H2393 C2409 0.930 . S
H2394 C2410 0.931 . S
C2395 H2383 0.929 . S
C2395 C2389 1.390 . S
C2395 C2392 1.386 . S
C2396 C2391 1.490 . S
C2396 C2398 1.395 . S
C2396 C2399 1.403 . S
H2397 C2403 0.930 1_645 S
C2398 H2384 0.930 . S
C2398 C2396 1.395 . S
C2398 C2401 1.370 1_455 S
C2399 C2396 1.403 . S
C2399 C2400 1.524 1_565 S
C2399 C2403 1.400 . S
C2400 H2385 0.960 . S
C2400 H2386 0.960 . S
C2400 H2387 0.960 . S
C2400 C2399 1.524 1_545 S
C2401 C2398 1.370 1_655 S
C2401 C2402 1.406 . S
C2401 C2405 1.515 . S
C2402 C2401 1.406 . S
C2402 C2403 1.385 1_655 S
C2402 C2404 1.478 . S
C2403 H2397 0.930 1_465 S
C2403 C2399 1.400 . S
C2403 C2402 1.385 1_455 S
C2404 C2402 1.478 . S
C2404 C2406 1.381 . S
C2404 C2410 1.383 1_565 S
C2405 C2401 1.515 . S
C2405 H2411 0.959 . S
C2405 H2412 0.961 . S
C2405 H2413 0.960 . S
C2406 C2404 1.381 . S
C2406 C2407 1.394 . S
C2406 H2414 0.930 . S
C2407 C2406 1.394 . S
C2407 C2408 1.383 1_565 S
C2407 H2415 0.929 . S
C2408 C2407 1.383 1_545 S
C2408 C2409 1.377 . S
C2409 H2393 0.930 . S
C2409 C2408 1.377 . S
C2409 C2410 1.379 . S
C2410 H2394 0.931 . S
C2410 C2404 1.383 1_545 S
C2410 C2409 1.379 . S
H2411 C2405 0.959 . S
H2412 C2405 0.961 . S
H2413 C2405 0.960 . S
H2414 C2406 0.930 . S
H2415 C2407 0.929 . S
H2416 C2424 0.929 . S
H2417 C2426 0.930 . S
H2418 C2428 0.930 . S
H2419 C2431 0.929 . S
H2420 C2434 0.930 . S
H2421 C2436 0.960 . S
H2422 C2436 0.960 . S
H2423 C2436 0.960 . S
C2424 H2416 0.929 . S
C2424 C2425 1.377 . S
C2424 C2426 1.384 . S
C2425 C2424 1.377 . S
C2425 C2431 1.390 . S
C2426 H2417 0.930 . S
C2426 C2424 1.384 . S
C2426 C2427 1.372 . S
C2427 C2426 1.372 . S
C2427 C2428 1.400 . S
C2427 C2432 1.490 . S
C2428 H2418 0.930 . S
C2428 C2427 1.400 . S
C2428 C2431 1.386 . S
H2429 C2445 0.930 . S
H2430 C2446 0.931 . S
C2431 H2419 0.929 . S
C2431 C2425 1.390 . S
C2431 C2428 1.386 . S
C2432 C2427 1.490 . S
C2432 C2434 1.395 . S
C2432 C2435 1.403 . S
H2433 C2439 0.930 . S
C2434 H2420 0.930 . S
C2434 C2432 1.395 . S
C2434 C2437 1.403 . S
C2435 C2432 1.403 . S
C2435 C2436 1.524 . S
C2435 C2439 1.400 . S
C2436 H2421 0.960 . S
C2436 H2422 0.960 . S
C2436 H2423 0.960 . S
C2436 C2435 1.524 . S
C2437 C2434 1.403 . S
C2437 C2438 1.392 . S
C2437 C2441 1.495 . S
C2438 C2437 1.392 . S
C2438 C2439 1.385 . S
C2438 C2440 1.478 . S
C2439 H2433 0.930 . S
C2439 C2435 1.400 . S
C2439 C2438 1.385 . S
C2440 C2438 1.478 . S
C2440 C2442 1.381 . S
C2440 C2446 1.383 . S
C2441 C2437 1.495 . S
C2441 H2447 0.959 . S
C2441 H2448 0.961 . S
C2441 H2449 0.960 . S
C2442 C2440 1.381 . S
C2442 C2443 1.394 . S
C2442 H2450 0.930 . S
C2443 C2442 1.394 . S
C2443 C2444 1.383 . S
C2443 H2451 0.929 . S
C2444 C2443 1.383 . S
C2444 C2445 1.377 . S
C2445 H2429 0.930 . S
C2445 C2444 1.377 . S
C2445 C2446 1.379 . S
C2446 H2430 0.931 . S
C2446 C2440 1.383 . S
C2446 C2445 1.379 . S
H2447 C2441 0.959 . S
H2448 C2441 0.961 . S
H2449 C2441 0.960 . S
H2450 C2442 0.930 . S
H2451 C2443 0.929 . S
H2452 C2460 0.929 . S
H2453 C2462 0.930 . S
H2454 C2464 0.930 . S
H2455 C2467 0.929 . S
H2456 C2470 0.930 . S
H2457 C2472 0.960 . S
H2458 C2472 0.940 1_545 S
H2459 C2472 0.971 . S
C2460 H2452 0.929 . S
C2460 C2461 1.377 . S
C2460 C2462 1.384 . S
C2461 C2460 1.377 . S
C2461 C2467 1.390 1_545 S
C2462 H2453 0.930 . S
C2462 C2460 1.384 . S
C2462 C2463 1.372 1_545 S
C2463 C2462 1.372 1_565 S
C2463 C2464 1.400 . S
C2463 C2468 1.490 . S
C2464 H2454 0.930 . S
C2464 C2463 1.400 . S
C2464 C2467 1.386 . S
H2465 C2481 0.930 . S
H2466 C2482 0.931 . S
C2467 H2455 0.929 . S
C2467 C2461 1.390 1_565 S
C2467 C2464 1.386 . S
C2468 C2463 1.490 . S
C2468 C2470 1.395 . S
C2468 C2471 1.403 . S
H2469 C2475 0.930 . S
C2470 H2456 0.930 . S
C2470 C2468 1.395 . S
C2470 C2473 1.403 . S
C2471 C2468 1.403 . S
C2471 C2472 1.533 . S
C2471 C2475 1.400 . S
C2472 H2457 0.960 . S
C2472 H2458 0.940 1_565 S
C2472 H2459 0.971 . S
C2472 C2471 1.533 . S
C2473 C2470 1.403 . S
C2473 C2474 1.392 . S
C2473 C2477 1.495 . S
C2474 C2473 1.392 . S
C2474 C2475 1.385 . S
C2474 C2476 1.478 . S
C2475 H2469 0.930 . S
C2475 C2471 1.400 . S
C2475 C2474 1.385 . S
C2476 C2474 1.478 . S
C2476 C2478 1.381 . S
C2476 C2482 1.383 . S
C2477 C2473 1.495 . S
C2477 H2483 0.959 . S
C2477 H2484 0.961 . S
C2477 H2485 0.960 . S
C2478 C2476 1.381 . S
C2478 C2479 1.394 . S
C2478 H2486 0.930 . S
C2479 C2478 1.394 . S
C2479 C2480 1.383 . S
C2479 H2487 0.929 . S
C2480 C2479 1.383 . S
C2480 C2481 1.377 . S
C2481 H2465 0.930 . S
C2481 C2480 1.377 . S
C2481 C2482 1.379 . S
C2482 H2466 0.931 . S
C2482 C2476 1.383 . S
C2482 C2481 1.379 . S
H2483 C2477 0.959 . S
H2484 C2477 0.961 . S
H2485 C2477 0.960 . S
H2486 C2478 0.930 . S
H2487 C2479 0.929 . S
H2488 C2496 0.929 . S
H2489 C2498 0.930 . S
H2490 C2500 0.930 . S
H2491 C2503 0.929 . S
H2492 C2506 0.930 . S
H2493 C2508 0.960 . S
H2494 C2508 0.960 . S
H2495 C2508 0.960 . S
C2496 H2488 0.929 . S
C2496 C2497 1.377 . S
C2496 C2498 1.384 . S
C2497 C2496 1.377 . S
C2497 C2503 1.390 . S
C2498 H2489 0.930 . S
C2498 C2496 1.384 . S
C2498 C2499 1.372 . S
C2499 C2498 1.372 . S
C2499 C2500 1.400 . S
C2499 C2504 1.490 . S
C2500 H2490 0.930 . S
C2500 C2499 1.400 . S
C2500 C2503 1.386 . S
H2501 C2517 0.930 . S
H2502 C2518 0.931 . S
C2503 H2491 0.929 . S
C2503 C2497 1.390 . S
C2503 C2500 1.386 . S
C2504 C2499 1.490 . S
C2504 C2506 1.395 . S
C2504 C2507 1.403 . S
H2505 C2511 0.930 . S
C2506 H2492 0.930 . S
C2506 C2504 1.395 . S
C2506 C2509 1.403 . S
C2507 C2504 1.403 . S
C2507 C2508 1.524 . S
C2507 C2511 1.400 . S
C2508 H2493 0.960 . S
C2508 H2494 0.960 . S
C2508 H2495 0.960 . S
C2508 C2507 1.524 . S
C2509 C2506 1.403 . S
C2509 C2510 1.392 . S
C2509 C2513 1.495 . S
C2510 C2509 1.392 . S
C2510 C2511 1.385 . S
C2510 C2512 1.478 . S
C2511 H2505 0.930 . S
C2511 C2507 1.400 . S
C2511 C2510 1.385 . S
C2512 C2510 1.478 . S
C2512 C2514 1.381 . S
C2512 C2518 1.383 . S
C2513 C2509 1.495 . S
C2513 H2519 0.959 . S
C2513 H2520 0.961 . S
C2513 H2521 0.960 . S
C2514 C2512 1.381 . S
C2514 C2515 1.394 . S
C2514 H2522 0.930 . S
C2515 C2514 1.394 . S
C2515 C2516 1.383 . S
C2515 H2523 0.929 . S
C2516 C2515 1.383 . S
C2516 C2517 1.377 . S
C2517 H2501 0.930 . S
C2517 C2516 1.377 . S
C2517 C2518 1.379 . S
C2518 H2502 0.931 . S
C2518 C2512 1.383 . S
C2518 C2517 1.379 . S
H2519 C2513 0.959 . S
H2520 C2513 0.961 . S
H2521 C2513 0.960 . S
H2522 C2514 0.930 . S
H2523 C2515 0.929 . S
H2524 C2532 0.932 . S
H2525 C2534 0.930 . S
H2526 C2536 0.930 . S
H2527 C2539 0.929 . S
H2528 C2542 0.923 1_565 S
H2529 C2544 0.960 . S
H2530 C2544 0.960 . S
H2531 C2544 0.960 . S
C2532 H2524 0.932 . S
C2532 C2533 1.382 . S
C2532 C2534 1.378 1_565 S
C2533 C2532 1.382 . S
C2533 C2539 1.390 . S
C2534 H2525 0.930 . S
C2534 C2532 1.378 1_545 S
C2534 C2535 1.372 . S
C2535 C2534 1.372 . S
C2535 C2536 1.400 . S
C2535 C2540 1.490 . S
C2536 H2526 0.930 . S
C2536 C2535 1.400 . S
C2536 C2539 1.386 1_545 S
H2537 C2553 0.930 . S
H2538 C2554 0.931 . S
C2539 H2527 0.929 . S
C2539 C2533 1.390 . S
C2539 C2536 1.386 1_565 S
C2540 C2535 1.490 . S
C2540 C2542 1.400 1_455 S
C2540 C2543 1.403 . S
H2541 C2547 0.930 . S
C2542 H2528 0.923 1_545 S
C2542 C2540 1.400 1_655 S
C2542 C2545 1.405 . S
C2543 C2540 1.403 . S
C2543 C2544 1.524 . S
C2543 C2547 1.400 1_455 S
C2544 H2529 0.960 . S
C2544 H2530 0.960 . S
C2544 H2531 0.960 . S
C2544 C2543 1.524 . S
C2545 C2542 1.405 . S
C2545 C2546 1.392 . S
C2545 C2549 1.495 1_545 S
C2546 C2545 1.392 . S
C2546 C2547 1.385 . S
C2546 C2548 1.478 . S
C2547 H2541 0.930 . S
C2547 C2543 1.400 1_655 S
C2547 C2546 1.385 . S
C2548 C2546 1.478 . S
C2548 C2550 1.381 . S
C2548 C2554 1.383 . S
C2549 C2545 1.495 1_565 S
C2549 H2555 0.959 . S
C2549 H2556 0.961 . S
C2549 H2557 0.960 . S
C2550 C2548 1.381 . S
C2550 C2551 1.394 . S
C2550 H2558 0.930 . S
C2551 C2550 1.394 . S
C2551 C2552 1.383 . S
C2551 H2559 0.929 . S
C2552 C2551 1.383 . S
C2552 C2553 1.377 . S
C2553 H2537 0.930 . S
C2553 C2552 1.377 . S
C2553 C2554 1.379 . S
C2554 H2538 0.931 . S
C2554 C2548 1.383 . S
C2554 C2553 1.379 . S
H2555 C2549 0.959 . S
H2556 C2549 0.961 . S
H2557 C2549 0.960 . S
H2558 C2550 0.930 . S
H2559 C2551 0.929 . S
C553 C255 2.676 . S
C572 C22 2.474 . S
C589 C425 2.674 . S
C608 C49 2.452 . S
C625 C90 2.472 . S
C644 C187 2.663 . S
C661 C493 2.676 . S
C680 C124 2.476 . S
C697 C119 2.676 . S
C716 C158 2.488 . S
C733 C185 2.474 . S
C752 C289 2.680 . S
C769 C219 2.481 . S
C788 C51 2.671 . S
C805 C357 2.675 . S
C824 C260 2.497 . S
C841 C527 2.677 1_565 S
C860 C294 2.492 . S
C877 C321 2.480 . S
C896 C153 2.677 . S
C913 C459 2.676 1_545 S
C932 C362 2.477 . S
C949 C221 2.678 . S
C968 C396 2.494 . S
C985 C391 2.678 1_545 S
C1004 C423 2.469 . S
C1021 C457 2.478 . S
C1040 C17 2.663 . S
C1057 C498 2.480 . S
C1076 C323 2.674 1_565 S
C1093 C85 2.676 . S
C1112 C532 2.492 . S
C1129 C312 0.588 . S
C1148 C6 0.586 . S
C1165 C62 0.587 . S
C1184 C368 0.581 . S
C1201 C74 0.588 . S
C1220 C402 0.599 . S
C1237 C108 0.589 . S
C1256 C300 0.569 . S
C1273 C448 0.596 . S
C1292 C142 0.588 . S
C1309 C198 0.592 . S
C1328 C504 0.576 . S
C1345 C538 0.595 . S
C1364 C232 0.591 . S
C1381 C244 0.592 . S
C1400 C414 0.576 . S
C1417 C40 0.592 . S
C1436 C278 0.579 . S
C1453 C96 0.590 . S
C1472 C334 0.579 . S
C1489 C130 0.597 . S
C1508 C346 0.590 . S
C1525 C28 0.588 . S
C1544 C380 0.583 . S
C1561 C436 0.590 . S
C1580 C176 0.596 . S
C1597 C210 0.588 . S
C1616 C470 0.604 . S
C1633 C266 0.588 . S
C1652 C482 0.604 . S
C1669 C516 0.593 . S
C1688 C164 0.569 . S
C1705 C137 2.823 . S
C1724 C1 2.837 . S
C1741 C37 2.828 . S
C1760 C445 2.835 . S
C1777 C207 2.828 . S
C1796 C69 2.822 . S
C1813 C511 2.820 . S
C1832 C103 2.821 . S
C1849 C309 2.828 . S
C1868 C173 2.838 . S
C1885 C239 2.824 . S
C1904 C375 2.801 . S
C1921 C273 2.825 . S
C1940 C411 2.841 . S
C1957 C341 2.821 . S
C1976 C477 2.831 . S
C1993 C241 0.543 . S
C2012 C15 0.517 . S
C2029 C409 0.544 . S
C2048 C56 0.528 . S
C2065 C83 0.438 . S
C2084 C171 0.606 . S
C2101 C117 0.463 . S
C2120 C479 0.618 . S
C2137 C151 0.463 . S
C2156 C105 0.599 . S
C2173 C192 0.473 . S
C2192 C275 0.656 . S
C2209 C226 0.457 . S
C2228 C35 0.568 . S
C2245 C343 0.558 . S
C2264 C253 0.428 . S
C2281 C287 0.441 . S
C2300 C513 0.572 . S
C2317 C139 0.544 . S
C2336 C328 0.503 . S
C2353 C443 0.546 . S
C2372 C355 0.479 . S
C2389 C389 0.441 . S
C2408 C205 0.578 . S
C2425 C377 0.544 . S
C2444 C430 0.368 . S
C2461 C3 0.552 . S
C2480 C464 0.416 . S
C2497 C491 0.467 . S
C2516 C307 0.624 . S
C2533 C71 0.564 . S
C2552 C525 0.451 . S
