# Generated by pormake.
# Topology dia, (4)-cn, num edge types: 1
# Building blocks:
#     Node 0, Type 0, BuildingBlock: ICAMEG_clean_sbu_1, # of connection points: 4
#     Node 1, Type 0, BuildingBlock: ICAMEG_clean_sbu_1, # of connection points: 4
#     Node 2, Type 0, BuildingBlock: ICAMEG_clean_sbu_1, # of connection points: 4
#     Node 3, Type 0, BuildingBlock: ICAMEG_clean_sbu_1, # of connection points: 4
#     Node 4, Type 0, BuildingBlock: ICAMEG_clean_sbu_1, # of connection points: 4
#     Node 5, Type 0, BuildingBlock: ICAMEG_clean_sbu_1, # of connection points: 4
#     Node 6, Type 0, BuildingBlock: ICAMEG_clean_sbu_1, # of connection points: 4
#     Node 7, Type 0, BuildingBlock: ICAMEG_clean_sbu_1, # of connection points: 4
#     Edge 8, Type (0, 0), None
#     Edge 9, Type (0, 0), None
#     Edge 10, Type (0, 0), None
#     Edge 11, Type (0, 0), None
#     Edge 12, Type (0, 0), None
#     Edge 13, Type (0, 0), None
#     Edge 14, Type (0, 0), None
#     Edge 15, Type (0, 0), None
#     Edge 16, Type (0, 0), None
#     Edge 17, Type (0, 0), None
#     Edge 18, Type (0, 0), None
#     Edge 19, Type (0, 0), None
#     Edge 20, Type (0, 0), None
#     Edge 21, Type (0, 0), None
#     Edge 22, Type (0, 0), None
#     Edge 23, Type (0, 0), None
# Relax obj value: 0.177
# Max RMSD: 0.227
# Mean RMSD: 0.227
data_MOF--net-dia--node1-ICAMEG_clean_sbu_1--edge1-none
_symmetry_space_group_name_H-M    P1
_symmetry_Int_Tables_number       1
_symmetry_cell_setting            triclinic
loop_
_symmetry_equiv_pos_as_xyz
'x, y, z'
_cell_length_a     16.785733
_cell_length_b     16.785703
_cell_length_c     20.406306
_cell_angle_alpha  90.011821
_cell_angle_beta   90.011874
_cell_angle_gamma 109.82069
loop_
_atom_site_label
_atom_site_type_symbol
_atom_site_fract_x
_atom_site_fract_y
_atom_site_fract_z
_atom_type_partial_charge
Co0 Co 0.18343 0.05382 0.61446 0.0
Co1 Co 0.037 0.15458 0.61449 0.0
O2 O 0.11023 0.10421 0.66124 0.0
C3 C 0.1443 0.93493 0.73784 0.0
O4 O 0.09673 0.97066 0.76889 0.0
C5 C 0.0761 0.27339 0.73795 0.0
O6 O 0.12359 0.23757 0.76901 0.0
O7 O 0.1364 0.23272 0.56215 0.0
O8 O 0.20667 0.1431 0.54328 0.0
H9 H 0.93091 0.26939 0.4195 0.0
H10 H 0.20803 0.10744 0.75521 0.0
O11 O 0.1719 0.95975 0.68059 0.0
H12 H 0.46543 0.28632 0.64349 0.0
H13 H 0.42647 0.9459 0.59799 0.0
H14 H 0.19037 -0.00779 0.4801 0.0
H15 H 0.35322 0.17337 0.58281 0.0
H16 H 0.32827 0.00282 0.65505 0.0
O17 O 0.04861 0.24869 0.68064 0.0
H18 H 0.02989 0.21606 0.48012 0.0
H19 H 0.89222 0.20564 0.65512 0.0
H20 H 0.28928 0.93885 0.41944 0.0
H21 H 0.31602 0.21746 0.81719 0.0
H22 H 0.41284 0.92448 0.47741 0.0
H23 H 0.44574 0.3081 0.76104 0.0
O24 O 0.08398 0.97566 0.56214 0.0
H25 H 0.90451 -0.0092 0.81712 0.0
H26 H 0.86711 0.03521 0.58282 0.0
H27 H 0.75486 0.92233 0.64344 0.0
H28 H 0.77465 0.90038 0.76094 0.0
H29 H 0.01252 0.10079 0.75522 0.0
H30 H 0.79392 0.26246 0.59809 0.0
H31 H 0.80741 0.2838 0.47751 0.0
O32 O 0.01369 0.06527 0.5433 0.0
C33 C 0.19362 0.21258 0.53158 0.0
C34 C 0.92207 0.2553 0.47128 0.0
C35 C 0.84494 0.25126 0.57154 0.0
N36 N 0.96304 0.20248 0.56971 0.0
C37 C 0.97748 0.22504 0.50561 0.0
C38 C 0.90019 0.21879 0.60348 0.0
C39 C 0.85374 0.26511 0.50427 0.0
C40 C 0.26549 0.14348 0.73065 0.0
N41 N 0.2764 0.13101 0.66549 0.0
C42 C 0.32602 0.20699 0.766 0.0
C43 C 0.39852 0.25835 0.73441 0.0
C44 C 0.40949 0.2457 0.66819 0.0
C45 C 0.3471 0.1817 0.63436 0.0
C46 C 0.37543 0.95711 0.57145 0.0
C47 C 0.24282 0.98327 0.50557 0.0
C48 C 0.32024 -0.01037 0.60341 0.0
N49 N 0.25735 0.00591 0.56966 0.0
C50 C 0.29819 0.95299 0.47121 0.0
C51 C 0.36656 0.94321 0.50418 0.0
C52 C 0.02674 -0.00422 0.53158 0.0
C53 C 0.89446 0.00135 0.76595 0.0
C54 C 0.87328 0.02681 0.63435 0.0
C55 C 0.81086 0.96284 0.66814 0.0
C56 C 0.82189 0.95011 0.73434 0.0
N57 N 0.94405 0.0774 0.6655 0.0
C58 C 0.95502 0.06485 0.73065 0.0
Co59 Co 0.91053 0.28093 0.89885 0.0
Co60 Co 0.80977 0.42735 0.89883 0.0
O61 O 0.86014 0.35412 0.85207 0.0
C62 C 0.02944 0.32008 0.77548 0.0
O63 O -0.0063 0.36763 0.7444 0.0
C64 C 0.69095 0.38825 0.77537 0.0
O65 O 0.72678 0.34076 0.74431 0.0
O66 O 0.73163 0.32795 0.95117 0.0
O67 O 0.82125 0.25768 0.97003 0.0
H68 H 0.69496 0.53344 0.09382 0.0
H69 H 0.85691 0.25633 0.7581 0.0
O70 O 0.0046 0.29247 0.83272 0.0
H71 H 0.67802 -0.00107 0.86981 0.0
H72 H 0.01844 0.03788 0.9153 0.0
H73 H 0.97214 0.27397 0.03321 0.0
H74 H 0.79098 0.11113 0.9305 0.0
H75 H 0.96153 0.13608 0.85825 0.0
O76 O 0.71566 0.41575 0.83268 0.0
H77 H 0.74829 0.43446 0.03319 0.0
H78 H 0.75871 0.57213 0.85819 0.0
H79 H 0.0255 0.17505 0.09386 0.0
H80 H 0.7469 0.14835 0.69611 0.0
H81 H 0.03987 0.05149 0.03588 0.0
H82 H 0.65625 0.01863 0.75226 0.0
O83 O -0.01132 0.38036 0.95118 0.0
H84 H 0.97354 0.55984 0.6962 0.0
H85 H 0.92914 0.59724 0.9305 0.0
H86 H 0.04202 0.70949 0.86988 0.0
H87 H 0.06397 0.6897 0.75238 0.0
H88 H 0.86356 0.45184 0.7581 0.0
H89 H 0.70189 0.67043 0.91522 0.0
H90 H 0.68055 0.65694 0.03581 0.0
O91 O 0.89908 0.45066 0.97002 0.0
C92 C 0.75177 0.27073 0.98174 0.0
C93 C 0.70905 0.54229 0.04204 0.0
C94 C 0.71309 0.61941 0.94178 0.0
N95 N 0.76187 0.50131 0.94361 0.0
C96 C 0.7393 0.48687 0.00771 0.0
C97 C 0.74556 0.56416 0.90983 0.0
C98 C 0.69924 0.61061 0.00905 0.0
C99 C 0.82087 0.19887 0.78265 0.0
N100 N 0.83334 0.18795 0.84782 0.0
C101 C 0.75736 0.13834 0.7473 0.0
C102 C 0.706 0.06585 0.7789 0.0
C103 C 0.71864 0.05487 0.84512 0.0
C104 C 0.78264 0.11725 0.87895 0.0
C105 C 0.00724 0.08891 0.94185 0.0
C106 C -0.01892 0.22152 0.00774 0.0
C107 C 0.97472 0.14411 0.90989 0.0
N108 N 0.95844 0.207 0.94365 0.0
C109 C 0.01136 0.16614 0.04209 0.0
C110 C 0.02114 0.09778 0.00911 0.0
C111 C 0.96856 0.43761 0.98174 0.0
C112 C 0.963 0.56989 0.74737 0.0
C113 C 0.93754 0.59107 0.87896 0.0
C114 C 0.00151 0.65349 0.84518 0.0
C115 C 0.01424 0.64246 0.77898 0.0
N116 N 0.88695 0.5203 0.84782 0.0
C117 C 0.8995 0.50934 0.78267 0.0
Co118 Co 0.68344 0.05381 0.11444 0.0
Co119 Co 0.53702 0.15457 0.1145 0.0
O120 O 0.61026 0.10419 0.16124 0.0
C121 C 0.64433 0.9349 0.23781 0.0
O122 O 0.59675 0.97063 0.26886 0.0
C123 C 0.57613 0.27337 0.23797 0.0
O124 O 0.62361 0.23754 0.26904 0.0
O125 O 0.63641 0.23271 0.06216 0.0
O126 O 0.70667 0.14309 0.04327 0.0
H127 H 0.43087 0.2694 0.91956 0.0
H128 H 0.70807 0.10743 0.25519 0.0
O129 O 0.67193 0.95973 0.18057 0.0
H130 H 0.96546 0.28629 0.14346 0.0
H131 H 0.92648 0.94589 0.09791 0.0
H132 H 0.69036 -0.00777 0.98007 0.0
H133 H 0.85324 0.17335 0.08278 0.0
H134 H 0.8283 0.00279 0.155 0.0
O135 O 0.54864 0.24867 0.18066 0.0
H136 H 0.52987 0.21607 0.98015 0.0
H137 H 0.39225 0.20562 0.15518 0.0
H138 H 0.78924 0.93886 0.91938 0.0
H139 H 0.81606 0.21744 0.31717 0.0
H140 H 0.91281 0.92447 0.97732 0.0
H141 H 0.94577 0.30808 0.26101 0.0
O142 O 0.58399 0.97565 0.06212 0.0
H143 H 0.40455 -0.00921 0.31715 0.0
H144 H 0.36713 0.03519 0.08285 0.0
H145 H 0.25489 0.9223 0.14347 0.0
H146 H 0.27469 0.90036 0.26097 0.0
H147 H 0.51255 0.10077 0.25524 0.0
H148 H 0.29393 0.26244 0.09818 0.0
H149 H 0.30738 0.28378 0.9776 0.0
O150 O 0.51369 0.06526 0.04331 0.0
C151 C 0.69362 0.21257 0.03157 0.0
C152 C 0.42204 0.2553 0.97134 0.0
C153 C 0.34495 0.25125 0.07161 0.0
N154 N 0.46305 0.20247 0.06975 0.0
C155 C 0.47747 0.22505 1.00565 0.0
C156 C 0.40021 0.21878 0.10354 0.0
C157 C 0.35373 0.26511 1.00434 0.0
C158 C 0.76552 0.14346 0.23063 0.0
N159 N 0.77643 0.13099 0.16546 0.0
C160 C 0.82606 0.20697 0.26598 0.0
C161 C 0.89855 0.25833 0.23438 0.0
C162 C 0.90952 0.24568 0.16815 0.0
C163 C 0.84712 0.18168 0.13433 0.0
C164 C 0.87544 0.9571 0.07137 0.0
C165 C 0.74281 0.98327 1.00553 0.0
C166 C 0.82026 -0.01039 0.10336 0.0
N167 N 0.75735 0.0059 0.06962 0.0
C168 C 0.79817 0.953 0.97116 0.0
C169 C 0.86655 0.94321 1.0041 0.0
C170 C 0.52674 -0.00422 0.03158 0.0
C171 C 0.3945 0.00133 0.26598 0.0
C172 C 0.37331 0.02679 0.13438 0.0
C173 C 0.31089 0.96282 0.16817 0.0
C174 C 0.32193 0.95008 0.23437 0.0
N175 N 0.44408 0.07738 0.16553 0.0
C176 C 0.45505 0.06483 0.23067 0.0
Co177 Co 0.91054 0.7809 0.39887 0.0
Co178 Co 0.80978 0.92733 0.39881 0.0
O179 O 0.86016 0.85408 0.35207 0.0
C180 C 0.02945 0.82001 0.27551 0.0
O181 O -0.00629 0.86759 0.24446 0.0
C182 C 0.69096 0.88818 0.27535 0.0
O183 O 0.72679 0.84073 0.24424 0.0
O184 O 0.73164 0.82794 0.45116 0.0
O185 O 0.82125 0.75768 0.47004 0.0
H186 H 0.69494 0.0335 0.59374 0.0
H187 H 0.85692 0.75628 0.25813 0.0
O188 O 0.00462 0.79242 0.33275 0.0
H189 H 0.67805 0.49889 0.36986 0.0
H190 H 0.01846 0.53786 0.41541 0.0
H191 H 0.97212 0.77399 0.53325 0.0
H192 H 0.791 0.6111 0.43054 0.0
H193 H 0.96156 0.63604 0.35832 0.0
O194 O 0.71568 0.9157 0.33265 0.0
H195 H 0.74827 0.93448 0.53315 0.0
H196 H 0.75873 0.07209 0.35812 0.0
H197 H 0.02549 0.6751 0.59394 0.0
H198 H 0.74691 0.64828 0.19615 0.0
H199 H 0.03988 0.55153 0.536 0.0
H200 H 0.65627 0.51857 0.25231 0.0
O201 O -0.01131 0.88035 0.45119 0.0
H202 H 0.97355 0.05978 0.19616 0.0
H203 H 0.92916 0.09722 0.43046 0.0
H204 H 0.04205 0.20945 0.36983 0.0
H205 H 0.06399 0.18964 0.25233 0.0
H206 H 0.86357 0.95178 0.25807 0.0
H207 H 0.70191 0.17041 0.41511 0.0
H208 H 0.68056 0.15698 0.53569 0.0
O209 O 0.89909 0.95066 0.47 0.0
C210 C 0.75177 0.77073 0.48174 0.0
C211 C 0.70904 0.04232 0.54196 0.0
C212 C 0.7131 0.1194 0.44168 0.0
N213 N 0.76188 0.0013 0.44356 0.0
C214 C 0.7393 -0.01312 0.50765 0.0
C215 C 0.74557 0.06414 0.40976 0.0
C216 C 0.69924 0.11063 0.50895 0.0
C217 C 0.82089 0.69882 0.28269 0.0
N218 N 0.83335 0.68791 0.34785 0.0
C219 C 0.75737 0.63828 0.24734 0.0
C220 C 0.70602 0.56579 0.27894 0.0
C221 C 0.71867 0.55482 0.34516 0.0
C222 C 0.78266 0.61722 0.37899 0.0
C223 C 0.00725 0.5889 0.44194 0.0
C224 C -0.01893 0.72154 0.50779 0.0
C225 C 0.97473 0.64409 0.40996 0.0
N226 N 0.95845 0.70699 0.4437 0.0
C227 C 0.01135 0.66617 0.54216 0.0
C228 C 0.02114 0.5978 0.50921 0.0
C229 C 0.96857 0.93761 0.48174 0.0
C230 C 0.96301 0.06983 0.24733 0.0
C231 C 0.93756 0.09103 0.37892 0.0
C232 C 0.00153 0.15345 0.34513 0.0
C233 C 0.01426 0.1424 0.27893 0.0
N234 N 0.88696 0.02026 0.34778 0.0
C235 C 0.89951 0.00929 0.28264 0.0
Co236 Co 0.18345 0.55381 0.11445 0.0
Co237 Co 0.03702 0.65457 0.11451 0.0
O238 O 0.11026 0.60419 0.16125 0.0
C239 C 0.14433 0.4349 0.23782 0.0
O240 O 0.09675 0.47064 0.26886 0.0
C241 C 0.07616 0.77338 0.23797 0.0
O242 O 0.12362 0.73755 0.26907 0.0
O243 O 0.1364 0.73271 0.06216 0.0
O244 O 0.20667 0.64309 0.04328 0.0
H245 H 0.93085 0.76941 0.91958 0.0
H246 H 0.20807 0.60743 0.25519 0.0
O247 O 0.17193 0.45973 0.18057 0.0
H248 H 0.46545 0.7863 0.14347 0.0
H249 H 0.42648 0.44589 0.09792 0.0
H250 H 0.19036 0.49222 0.98008 0.0
H251 H 0.35324 0.67335 0.08279 0.0
H252 H 0.3283 0.5028 0.15501 0.0
O253 O 0.04865 0.74867 0.18067 0.0
H254 H 0.02986 0.71608 0.98016 0.0
H255 H 0.89226 0.70561 0.1552 0.0
H256 H 0.28925 0.43885 0.91939 0.0
H257 H 0.31606 0.71744 0.31717 0.0
H258 H 0.41282 0.42447 0.97734 0.0
H259 H 0.44577 0.80809 0.26102 0.0
O260 O 0.08399 0.47566 0.06213 0.0
H261 H 0.90457 0.49079 0.31716 0.0
H262 H 0.86713 0.53519 0.08286 0.0
H263 H 0.7549 0.42229 0.14349 0.0
H264 H 0.77471 0.40035 0.26099 0.0
H265 H 0.01256 0.60078 0.25525 0.0
H266 H 0.79393 0.76244 0.09821 0.0
H267 H 0.80737 0.78378 0.97763 0.0
O268 O 0.01369 0.56526 0.04332 0.0
C269 C 0.19362 0.71258 0.03158 0.0
C270 C 0.92203 0.75531 0.97136 0.0
C271 C 0.84494 0.75125 0.07164 0.0
N272 N 0.96304 0.70247 0.06976 0.0
C273 C 0.97746 0.72505 1.00567 0.0
C274 C 0.90021 0.71878 0.10356 0.0
C275 C 0.85372 0.76511 1.00437 0.0
C276 C 0.26552 0.64346 0.23064 0.0
N277 N 0.27643 0.631 0.16547 0.0
C278 C 0.32606 0.70698 0.26598 0.0
C279 C 0.39855 0.75834 0.23438 0.0
C280 C 0.40952 0.74569 0.16816 0.0
C281 C 0.34712 0.68169 0.13434 0.0
C282 C 0.37544 0.4571 0.07139 0.0
C283 C 0.24281 0.48327 1.00553 0.0
C284 C 0.32026 0.48961 0.10337 0.0
N285 N 0.25736 0.5059 0.06962 0.0
C286 C 0.29818 0.45299 0.97117 0.0
C287 C 0.36655 0.44321 1.00412 0.0
C288 C 0.02674 0.49578 0.03158 0.0
C289 C 0.89451 0.50133 0.26599 0.0
C290 C 0.87331 0.52679 0.13439 0.0
C291 C 0.8109 0.46282 0.16819 0.0
C292 C 0.82194 0.45008 0.23438 0.0
N293 N 0.94408 0.57739 0.16554 0.0
C294 C 0.95506 0.56483 0.23068 0.0
Co295 Co 0.41054 0.28091 0.39887 0.0
Co296 Co 0.30978 0.42733 0.39881 0.0
O297 O 0.36016 0.35409 0.35207 0.0
C298 C 0.52946 0.32005 0.27551 0.0
O299 O 0.49372 0.3676 0.24442 0.0
C300 C 0.19096 0.38819 0.27535 0.0
O301 O 0.22679 0.34073 0.24425 0.0
O302 O 0.23164 0.32795 0.45116 0.0
O303 O 0.32125 0.25768 0.47004 0.0
H304 H 0.19494 0.53349 0.59375 0.0
H305 H 0.35693 0.25629 0.25812 0.0
O306 O 0.50462 0.29243 0.33274 0.0
H307 H 0.17805 -0.0011 0.36984 0.0
H308 H 0.51846 0.03786 0.41538 0.0
H309 H 0.47213 0.27398 0.53324 0.0
H310 H 0.291 0.11111 0.43052 0.0
H311 H 0.46155 0.13605 0.3583 0.0
O312 O 0.21568 0.4157 0.33265 0.0
H313 H 0.24828 0.43448 0.53316 0.0
H314 H 0.25873 0.57209 0.35813 0.0
H315 H 0.52549 0.17509 0.59392 0.0
H316 H 0.24691 0.1483 0.19614 0.0
H317 H 0.53988 0.05152 0.53597 0.0
H318 H 0.15627 0.01859 0.25229 0.0
O319 O 0.48869 0.38036 0.45119 0.0
H320 H 0.47356 0.55979 0.19616 0.0
H321 H 0.42916 0.59722 0.43046 0.0
H322 H 0.54205 0.70946 0.36984 0.0
H323 H 0.56399 0.68965 0.25233 0.0
H324 H 0.36357 0.45179 0.25807 0.0
H325 H 0.2019 0.67042 0.41512 0.0
H326 H 0.18056 0.65698 0.5357 0.0
O327 O 0.39909 0.45066 0.47 0.0
C328 C 0.25177 0.27073 0.48174 0.0
C329 C 0.20904 0.54231 0.54197 0.0
C330 C 0.2131 0.6194 0.44169 0.0
N331 N 0.26188 0.5013 0.44356 0.0
C332 C 0.2393 0.48688 0.50766 0.0
C333 C 0.24557 0.56414 0.40977 0.0
C334 C 0.19924 0.61063 0.50896 0.0
C335 C 0.32089 0.19884 0.28268 0.0
N336 N 0.33336 0.18792 0.34784 0.0
C337 C 0.25738 0.1383 0.24733 0.0
C338 C 0.20602 0.06581 0.27893 0.0
C339 C 0.21866 0.05483 0.34515 0.0
C340 C 0.28266 0.11723 0.37897 0.0
C341 C 0.50725 0.0889 0.44192 0.0
C342 C 0.48108 0.22153 0.50778 0.0
C343 C 0.47473 0.14409 0.40994 0.0
N344 N 0.45845 0.20699 0.44369 0.0
C345 C 0.51135 0.16616 0.54214 0.0
C346 C 0.52114 0.09779 0.50919 0.0
C347 C 0.46857 0.43761 0.48174 0.0
C348 C 0.46301 0.56984 0.24733 0.0
C349 C 0.43756 0.59104 0.37893 0.0
C350 C 0.50153 0.65346 0.34514 0.0
C351 C 0.51426 0.64242 0.27894 0.0
N352 N 0.38696 0.52027 0.34779 0.0
C353 C 0.39951 0.50929 0.28264 0.0
Co354 Co 0.41052 0.78092 0.89885 0.0
Co355 Co 0.30977 0.92734 0.89882 0.0
O356 O 0.36013 0.85411 0.85207 0.0
C357 C 0.52942 0.82004 0.77548 0.0
O358 O 0.49369 0.86762 0.74443 0.0
C359 C 0.19094 0.88821 0.77537 0.0
O360 O 0.22677 0.84075 0.74427 0.0
O361 O 0.23163 0.82795 0.95117 0.0
O362 O 0.32125 0.75768 0.97003 0.0
H363 H 0.19495 0.03346 0.0938 0.0
H364 H 0.3569 0.75631 0.7581 0.0
O365 O 0.50459 0.79245 0.83272 0.0
H366 H 0.17802 0.49892 0.86982 0.0
H367 H 0.51844 0.53787 0.91531 0.0
H368 H 0.47214 0.77397 0.03321 0.0
H369 H 0.29098 0.61112 0.9305 0.0
H370 H 0.46152 0.63607 0.85826 0.0
O371 O 0.21566 0.91573 0.83267 0.0
H372 H 0.24828 0.93447 0.03318 0.0
H373 H 0.25871 0.07212 0.85818 0.0
H374 H 0.52551 0.67506 0.09387 0.0
H375 H 0.24689 0.64833 0.69612 0.0
H376 H 0.53987 0.55149 0.0359 0.0
H377 H 0.15624 0.51861 0.75227 0.0
O378 O 0.48868 0.88036 0.95118 0.0
H379 H 0.47354 0.05982 0.69618 0.0
H380 H 0.42914 0.09723 0.93049 0.0
H381 H 0.54203 0.20948 0.86986 0.0
H382 H 0.56397 0.18968 0.75236 0.0
H383 H 0.36355 0.95182 0.75809 0.0
H384 H 0.20189 0.17043 0.91519 0.0
H385 H 0.18055 0.15695 0.03578 0.0
O386 O 0.39908 0.95066 0.97001 0.0
C387 C 0.25177 0.77073 0.98174 0.0
C388 C 0.20905 0.0423 0.04202 0.0
C389 C 0.21309 0.11941 0.94175 0.0
N390 N 0.26187 0.00131 0.9436 0.0
C391 C 0.2393 -0.01313 0.00769 0.0
C392 C 0.24556 0.06416 0.90981 0.0
C393 C 0.19924 0.11062 0.00902 0.0
C394 C 0.32087 0.69886 0.78266 0.0
N395 N 0.33333 0.68794 0.84782 0.0
C396 C 0.25735 0.63832 0.74731 0.0
C397 C 0.20599 0.56583 0.7789 0.0
C398 C 0.21864 0.55485 0.84513 0.0
C399 C 0.28264 0.61725 0.87895 0.0
C400 C 0.50724 0.58891 0.94186 0.0
C401 C 0.48108 0.72153 0.00774 0.0
C402 C 0.47472 0.6441 0.9099 0.0
N403 N 0.45844 0.70699 0.94365 0.0
C404 C 0.51136 0.66615 0.04209 0.0
C405 C 0.52114 0.59778 0.00913 0.0
C406 C 0.46856 0.93761 0.98174 0.0
C407 C 0.46299 0.06987 0.74735 0.0
C408 C 0.43754 0.09106 0.87895 0.0
C409 C 0.50151 0.15348 0.84516 0.0
C410 C 0.51424 0.14244 0.77896 0.0
N411 N 0.38694 0.02029 0.8478 0.0
C412 C 0.3995 0.00932 0.78266 0.0
Co413 Co 0.68342 0.55382 0.61447 0.0
Co414 Co 0.537 0.65458 0.61449 0.0
O415 O 0.61023 0.60421 0.66125 0.0
C416 C 0.64427 0.43491 0.73784 0.0
O417 O 0.59672 0.47065 0.76892 0.0
C418 C 0.57613 0.77341 0.73794 0.0
O419 O 0.62359 0.73758 0.76904 0.0
O420 O 0.6364 0.73272 0.56215 0.0
O421 O 0.70667 0.6431 0.54329 0.0
H422 H 0.43089 0.76939 0.41951 0.0
H423 H 0.70802 0.60744 0.75522 0.0
O424 O 0.67188 0.45975 0.6806 0.0
H425 H 0.96542 0.78632 0.64351 0.0
H426 H 0.92647 0.44591 0.59803 0.0
H427 H 0.69038 0.49221 0.48011 0.0
H428 H 0.85322 0.67337 0.58282 0.0
H429 H 0.82826 0.50282 0.65507 0.0
O430 O 0.54861 0.74869 0.68064 0.0
H431 H 0.52988 0.71606 0.48013 0.0
H432 H 0.39223 0.70564 0.65513 0.0
H433 H 0.7893 0.43884 0.41946 0.0
H434 H 0.816 0.71745 0.81721 0.0
H435 H 0.91286 0.42448 0.47744 0.0
H436 H 0.94572 0.8081 0.76106 0.0
O437 O 0.58398 0.47567 0.56214 0.0
H438 H 0.40452 0.49081 0.81713 0.0
H439 H 0.36711 0.53521 0.58283 0.0
H440 H 0.25486 0.42232 0.64345 0.0
H441 H 0.27466 0.40038 0.76095 0.0
H442 H 0.51252 0.6008 0.75522 0.0
H443 H 0.29392 0.76246 0.59811 0.0
H444 H 0.3074 0.78379 0.47753 0.0
O445 O 0.51368 0.56527 0.5433 0.0
C446 C 0.69361 0.71258 0.53158 0.0
C447 C 0.42205 0.7553 0.47129 0.0
C448 C 0.34494 0.75126 0.57155 0.0
N449 N 0.46304 0.70248 0.56972 0.0
C450 C 0.47747 0.72505 0.50562 0.0
C451 C 0.40019 0.71879 0.6035 0.0
C452 C 0.35373 0.76511 0.50428 0.0
C453 C 0.76548 0.64347 0.73067 0.0
N454 N 0.7764 0.63101 0.6655 0.0
C455 C 0.82601 0.70699 0.76601 0.0
C456 C 0.8985 0.75835 0.73442 0.0
C457 C 0.90948 0.74571 0.6682 0.0
C458 C 0.84709 0.68171 0.63437 0.0
C459 C 0.87544 0.45711 0.57148 0.0
C460 C 0.74282 0.48326 0.50558 0.0
C461 C 0.82024 0.48963 0.60343 0.0
N462 N 0.75735 0.50591 0.56967 0.0
C463 C 0.79821 0.45299 0.47124 0.0
C464 C 0.86657 0.44321 0.50421 0.0
C465 C 0.52674 0.49579 0.53158 0.0
C466 C 0.39447 0.50135 0.76596 0.0
C467 C 0.37328 0.52681 0.63436 0.0
C468 C 0.31086 0.46284 0.66815 0.0
C469 C 0.3219 0.45011 0.73435 0.0
N470 N 0.44405 0.57741 0.66551 0.0
C471 C 0.45502 0.56485 0.73065 0.0
loop_
_geom_bond_atom_site_label_1
_geom_bond_atom_site_label_2
_geom_bond_distance
_geom_bond_site_symmetry_2
_ccdc_geom_bond_type
Co0 O2 2.143 . S
Co0 O8 2.074 . S
Co0 O11 2.093 1_545 S
Co0 O24 2.097 1_545 S
Co0 N41 2.151 . S
Co0 N49 2.214 . S
Co1 O2 2.160 . S
Co1 O7 2.058 . S
Co1 O17 2.057 . S
Co1 O32 2.037 . S
Co1 N36 2.145 1_455 S
Co1 N57 2.257 1_455 S
O2 Co0 2.143 . S
O2 Co1 2.160 . S
C3 O4 1.278 . S
C3 O11 1.224 . S
O4 C3 1.278 . S
C5 O6 1.245 . S
C5 O17 1.232 . S
O6 C5 1.245 . S
O7 Co1 2.058 . S
O7 C33 1.269 . S
O8 Co0 2.074 . S
O8 C33 1.257 . S
H9 C34 0.930 . S
H10 C40 0.930 . S
O11 Co0 2.093 1_565 S
O11 C3 1.224 . S
H12 C44 0.929 . S
H13 C46 0.930 1_565 S
H14 C47 0.930 . S
H15 C45 0.929 . S
H16 C48 0.928 . S
O17 Co1 2.057 . S
O17 C5 1.232 . S
H18 C37 0.929 . S
H19 C38 0.929 . S
H20 C50 0.931 . S
H21 C42 0.929 . S
H22 C51 0.930 1_565 S
H23 C43 0.931 . S
O24 Co0 2.097 1_565 S
O24 C52 1.214 1_565 S
H25 C53 0.929 . S
H26 C54 0.929 . S
H27 C55 0.930 . S
H28 C56 0.929 . S
H29 C58 0.930 . S
H30 C35 0.930 . S
H31 C39 0.930 . S
O32 Co1 2.037 . S
O32 C52 1.234 . S
C33 O7 1.269 . S
C33 O8 1.257 . S
C34 H9 0.930 . S
C34 C37 1.388 . S
C34 C39 1.418 . S
C35 H30 0.930 . S
C35 C38 1.404 . S
C35 C39 1.353 . S
N36 Co1 2.145 1_655 S
N36 C37 1.397 . S
N36 C38 1.334 . S
C37 H18 0.929 . S
C37 C34 1.388 . S
C37 N36 1.397 . S
C38 H19 0.929 . S
C38 C35 1.404 . S
C38 N36 1.334 . S
C39 H31 0.930 . S
C39 C34 1.418 . S
C39 C35 1.353 . S
C40 H10 0.930 . S
C40 N41 1.330 . S
C40 C42 1.446 . S
N41 Co0 2.151 . S
N41 C40 1.330 . S
N41 C45 1.418 . S
C42 H21 0.929 . S
C42 C40 1.446 . S
C42 C43 1.332 . S
C43 H23 0.931 . S
C43 C42 1.332 . S
C43 C44 1.267 . S
C44 H12 0.929 . S
C44 C43 1.267 . S
C44 C45 1.251 . S
C45 H15 0.929 . S
C45 N41 1.418 . S
C45 C44 1.251 . S
C46 H13 0.930 1_545 S
C46 C48 1.406 . S
C46 C51 1.261 . S
C47 H14 0.930 . S
C47 N49 1.325 . S
C47 C50 1.357 . S
C48 H16 0.928 . S
C48 C46 1.406 . S
C48 N49 1.261 . S
N49 Co0 2.214 . S
N49 C47 1.325 . S
N49 C48 1.261 . S
C50 H20 0.931 . S
C50 C47 1.357 . S
C50 C51 1.312 . S
C51 H22 0.930 1_545 S
C51 C46 1.261 . S
C51 C50 1.312 . S
C52 O24 1.214 1_545 S
C52 O32 1.234 . S
C53 H25 0.929 . S
C53 C56 1.391 . S
C53 C58 1.391 1_565 S
C54 H26 0.929 . S
C54 C55 1.390 . S
C54 N57 1.391 1_565 S
C55 H27 0.930 . S
C55 C54 1.390 . S
C55 C56 1.392 . S
C56 H28 0.929 . S
C56 C53 1.391 . S
C56 C55 1.392 . S
N57 Co1 2.257 1_655 S
N57 C54 1.391 1_545 S
N57 C58 1.388 . S
C58 H29 0.930 . S
C58 C53 1.391 1_545 S
C58 N57 1.388 . S
Co59 O61 2.143 . S
Co59 O67 2.074 . S
Co59 O70 2.093 1_655 S
Co59 O83 2.097 1_655 S
Co59 N100 2.151 . S
Co59 N108 2.214 . S
Co60 O61 2.160 . S
Co60 O66 2.058 . S
Co60 O76 2.057 . S
Co60 O91 2.037 . S
Co60 N95 2.145 . S
Co60 N116 2.257 . S
O61 Co59 2.143 . S
O61 Co60 2.160 . S
C62 O63 1.278 . S
C62 O70 1.224 . S
O63 C62 1.278 . S
C64 O65 1.245 . S
C64 O76 1.232 . S
O65 C64 1.245 . S
O66 Co60 2.058 . S
O66 C92 1.269 . S
O67 Co59 2.074 . S
O67 C92 1.257 . S
H68 C93 0.930 . S
H69 C99 0.930 . S
O70 Co59 2.093 1_455 S
O70 C62 1.224 . S
H71 C103 0.929 1_565 S
H72 C105 0.930 1_455 S
H73 C106 0.930 . S
H74 C104 0.929 . S
H75 C107 0.928 . S
O76 Co60 2.057 . S
O76 C64 1.232 . S
H77 C96 0.929 . S
H78 C97 0.929 . S
H79 C109 0.931 . S
H80 C101 0.929 . S
H81 C110 0.930 1_455 S
H82 C102 0.931 1_565 S
O83 Co59 2.097 1_455 S
O83 C111 1.214 1_455 S
H84 C112 0.929 . S
H85 C113 0.929 . S
H86 C114 0.930 . S
H87 C115 0.929 . S
H88 C117 0.930 . S
H89 C94 0.930 . S
H90 C98 0.930 . S
O91 Co60 2.037 . S
O91 C111 1.234 . S
C92 O66 1.269 . S
C92 O67 1.257 . S
C93 H68 0.930 . S
C93 C96 1.388 . S
C93 C98 1.418 . S
C94 H89 0.930 . S
C94 C97 1.404 . S
C94 C98 1.353 1_556 S
N95 Co60 2.145 . S
N95 C96 1.397 1_556 S
N95 C97 1.334 . S
C96 H77 0.929 . S
C96 C93 1.388 . S
C96 N95 1.397 1_554 S
C97 H78 0.929 . S
C97 C94 1.404 . S
C97 N95 1.334 . S
C98 H90 0.930 . S
C98 C93 1.418 . S
C98 C94 1.353 1_554 S
C99 H69 0.930 . S
C99 N100 1.330 . S
C99 C101 1.446 . S
N100 Co59 2.151 . S
N100 C99 1.330 . S
N100 C104 1.418 . S
C101 H80 0.929 . S
C101 C99 1.446 . S
C101 C102 1.332 . S
C102 H82 0.931 1_545 S
C102 C101 1.332 . S
C102 C103 1.267 . S
C103 H71 0.929 1_545 S
C103 C102 1.267 . S
C103 C104 1.251 . S
C104 H74 0.929 . S
C104 N100 1.418 . S
C104 C103 1.251 . S
C105 H72 0.930 1_655 S
C105 C107 1.406 . S
C105 C110 1.261 1_556 S
C106 H73 0.930 . S
C106 N108 1.325 1_554 S
C106 C109 1.357 . S
C107 H75 0.928 . S
C107 C105 1.406 . S
C107 N108 1.261 . S
N108 Co59 2.214 . S
N108 C106 1.325 1_556 S
N108 C107 1.261 . S
C109 H79 0.931 . S
C109 C106 1.357 . S
C109 C110 1.312 . S
C110 H81 0.930 1_655 S
C110 C105 1.261 1_554 S
C110 C109 1.312 . S
C111 O83 1.214 1_655 S
C111 O91 1.234 . S
C112 H84 0.929 . S
C112 C115 1.391 . S
C112 C117 1.391 1_455 S
C113 H85 0.929 . S
C113 C114 1.390 . S
C113 N116 1.391 1_455 S
C114 H86 0.930 . S
C114 C113 1.390 . S
C114 C115 1.392 . S
C115 H87 0.929 . S
C115 C112 1.391 . S
C115 C114 1.392 . S
N116 Co60 2.257 . S
N116 C113 1.391 1_655 S
N116 C117 1.388 . S
C117 H88 0.930 . S
C117 C112 1.391 1_655 S
C117 N116 1.388 . S
Co118 O120 2.143 . S
Co118 O126 2.074 . S
Co118 O129 2.093 1_545 S
Co118 O142 2.097 1_545 S
Co118 N159 2.151 . S
Co118 N167 2.214 . S
Co119 O120 2.160 . S
Co119 O125 2.058 . S
Co119 O135 2.057 . S
Co119 O150 2.037 . S
Co119 N154 2.145 . S
Co119 N175 2.257 . S
O120 Co118 2.143 . S
O120 Co119 2.160 . S
C121 O122 1.278 . S
C121 O129 1.224 . S
O122 C121 1.278 . S
C123 O124 1.245 . S
C123 O135 1.232 . S
O124 C123 1.245 . S
O125 Co119 2.058 . S
O125 C151 1.269 . S
O126 Co118 2.074 . S
O126 C151 1.257 . S
H127 C152 0.930 . S
H128 C158 0.930 . S
O129 Co118 2.093 1_565 S
O129 C121 1.224 . S
H130 C162 0.929 1_455 S
H131 C164 0.930 1_565 S
H132 C165 0.930 . S
H133 C163 0.929 . S
H134 C166 0.928 . S
O135 Co119 2.057 . S
O135 C123 1.232 . S
H136 C155 0.929 . S
H137 C156 0.929 . S
H138 C168 0.931 . S
H139 C160 0.929 . S
H140 C169 0.930 1_565 S
H141 C161 0.931 1_455 S
O142 Co118 2.097 1_565 S
O142 C170 1.214 1_565 S
H143 C171 0.929 . S
H144 C172 0.929 . S
H145 C173 0.930 . S
H146 C174 0.929 . S
H147 C176 0.930 . S
H148 C153 0.930 . S
H149 C157 0.930 . S
O150 Co119 2.037 . S
O150 C170 1.234 . S
C151 O125 1.269 . S
C151 O126 1.257 . S
C152 H127 0.930 . S
C152 C155 1.388 . S
C152 C157 1.418 . S
C153 H148 0.930 . S
C153 C156 1.404 . S
C153 C157 1.353 1_554 S
N154 Co119 2.145 . S
N154 C155 1.397 1_554 S
N154 C156 1.334 . S
C155 H136 0.929 . S
C155 C152 1.388 . S
C155 N154 1.397 1_556 S
C156 H137 0.929 . S
C156 C153 1.404 . S
C156 N154 1.334 . S
C157 H149 0.930 . S
C157 C152 1.418 . S
C157 C153 1.353 1_556 S
C158 H128 0.930 . S
C158 N159 1.330 . S
C158 C160 1.446 . S
N159 Co118 2.151 . S
N159 C158 1.330 . S
N159 C163 1.418 . S
C160 H139 0.929 . S
C160 C158 1.446 . S
C160 C161 1.332 . S
C161 H141 0.931 1_655 S
C161 C160 1.332 . S
C161 C162 1.267 . S
C162 H130 0.929 1_655 S
C162 C161 1.267 . S
C162 C163 1.251 . S
C163 H133 0.929 . S
C163 N159 1.418 . S
C163 C162 1.251 . S
C164 H131 0.930 1_545 S
C164 C166 1.406 . S
C164 C169 1.261 1_554 S
C165 H132 0.930 . S
C165 N167 1.325 1_556 S
C165 C168 1.357 . S
C166 H134 0.928 . S
C166 C164 1.406 . S
C166 N167 1.261 . S
N167 Co118 2.214 . S
N167 C165 1.325 1_554 S
N167 C166 1.261 . S
C168 H138 0.931 . S
C168 C165 1.357 . S
C168 C169 1.312 . S
C169 H140 0.930 1_545 S
C169 C164 1.261 1_556 S
C169 C168 1.312 . S
C170 O142 1.214 1_545 S
C170 O150 1.234 . S
C171 H143 0.929 . S
C171 C174 1.391 . S
C171 C176 1.391 1_565 S
C172 H144 0.929 . S
C172 C173 1.390 . S
C172 N175 1.391 1_565 S
C173 H145 0.930 . S
C173 C172 1.390 . S
C173 C174 1.392 . S
C174 H146 0.929 . S
C174 C171 1.391 . S
C174 C173 1.392 . S
N175 Co119 2.257 . S
N175 C172 1.391 1_545 S
N175 C176 1.388 . S
C176 H147 0.930 . S
C176 C171 1.391 1_545 S
C176 N175 1.388 . S
Co177 O179 2.143 . S
Co177 O185 2.074 . S
Co177 O188 2.093 1_655 S
Co177 O201 2.097 1_655 S
Co177 N218 2.151 . S
Co177 N226 2.214 . S
Co178 O179 2.160 . S
Co178 O184 2.058 . S
Co178 O194 2.057 . S
Co178 O209 2.037 . S
Co178 N213 2.145 1_565 S
Co178 N234 2.257 1_565 S
O179 Co177 2.143 . S
O179 Co178 2.160 . S
C180 O181 1.278 . S
C180 O188 1.224 . S
O181 C180 1.278 . S
C182 O183 1.245 . S
C182 O194 1.232 . S
O183 C182 1.245 . S
O184 Co178 2.058 . S
O184 C210 1.269 . S
O185 Co177 2.074 . S
O185 C210 1.257 . S
H186 C211 0.930 . S
H187 C217 0.930 . S
O188 Co177 2.093 1_455 S
O188 C180 1.224 . S
H189 C221 0.929 . S
H190 C223 0.930 1_455 S
H191 C224 0.930 . S
H192 C222 0.929 . S
H193 C225 0.928 . S
O194 Co178 2.057 . S
O194 C182 1.232 . S
H195 C214 0.929 . S
H196 C215 0.929 . S
H197 C227 0.931 . S
H198 C219 0.929 . S
H199 C228 0.930 1_455 S
H200 C220 0.931 . S
O201 Co177 2.097 1_455 S
O201 C229 1.214 1_455 S
H202 C230 0.929 . S
H203 C231 0.929 . S
H204 C232 0.930 . S
H205 C233 0.929 . S
H206 C235 0.930 . S
H207 C212 0.930 . S
H208 C216 0.930 . S
O209 Co178 2.037 . S
O209 C229 1.234 . S
C210 O184 1.269 . S
C210 O185 1.257 . S
C211 H186 0.930 . S
C211 C214 1.388 . S
C211 C216 1.418 . S
C212 H207 0.930 . S
C212 C215 1.404 . S
C212 C216 1.353 . S
N213 Co178 2.145 1_545 S
N213 C214 1.397 . S
N213 C215 1.334 . S
C214 H195 0.929 . S
C214 C211 1.388 . S
C214 N213 1.397 . S
C215 H196 0.929 . S
C215 C212 1.404 . S
C215 N213 1.334 . S
C216 H208 0.930 . S
C216 C211 1.418 . S
C216 C212 1.353 . S
C217 H187 0.930 . S
C217 N218 1.330 . S
C217 C219 1.446 . S
N218 Co177 2.151 . S
N218 C217 1.330 . S
N218 C222 1.418 . S
C219 H198 0.929 . S
C219 C217 1.446 . S
C219 C220 1.332 . S
C220 H200 0.931 . S
C220 C219 1.332 . S
C220 C221 1.267 . S
C221 H189 0.929 . S
C221 C220 1.267 . S
C221 C222 1.251 . S
C222 H192 0.929 . S
C222 N218 1.418 . S
C222 C221 1.251 . S
C223 H190 0.930 1_655 S
C223 C225 1.406 . S
C223 C228 1.261 . S
C224 H191 0.930 . S
C224 N226 1.325 . S
C224 C227 1.357 . S
C225 H193 0.928 . S
C225 C223 1.406 . S
C225 N226 1.261 . S
N226 Co177 2.214 . S
N226 C224 1.325 . S
N226 C225 1.261 . S
C227 H197 0.931 . S
C227 C224 1.357 . S
C227 C228 1.312 . S
C228 H199 0.930 1_655 S
C228 C223 1.261 . S
C228 C227 1.312 . S
C229 O201 1.214 1_655 S
C229 O209 1.234 . S
C230 H202 0.929 . S
C230 C233 1.391 . S
C230 C235 1.391 1_455 S
C231 H203 0.929 . S
C231 C232 1.390 . S
C231 N234 1.391 1_455 S
C232 H204 0.930 . S
C232 C231 1.390 . S
C232 C233 1.392 . S
C233 H205 0.929 . S
C233 C230 1.391 . S
C233 C232 1.392 . S
N234 Co178 2.257 1_545 S
N234 C231 1.391 1_655 S
N234 C235 1.388 . S
C235 H206 0.930 . S
C235 C230 1.391 1_655 S
C235 N234 1.388 . S
Co236 O238 2.143 . S
Co236 O244 2.074 . S
Co236 O247 2.093 . S
Co236 O260 2.097 . S
Co236 N277 2.151 . S
Co236 N285 2.214 . S
Co237 O238 2.160 . S
Co237 O243 2.058 . S
Co237 O253 2.057 . S
Co237 O268 2.037 . S
Co237 N272 2.145 1_455 S
Co237 N293 2.257 1_455 S
O238 Co236 2.143 . S
O238 Co237 2.160 . S
C239 O240 1.278 . S
C239 O247 1.224 . S
O240 C239 1.278 . S
C241 O242 1.245 . S
C241 O253 1.232 . S
O242 C241 1.245 . S
O243 Co237 2.058 . S
O243 C269 1.269 . S
O244 Co236 2.074 . S
O244 C269 1.257 . S
H245 C270 0.930 . S
H246 C276 0.930 . S
O247 Co236 2.093 . S
O247 C239 1.224 . S
H248 C280 0.929 . S
H249 C282 0.930 . S
H250 C283 0.930 . S
H251 C281 0.929 . S
H252 C284 0.928 . S
O253 Co237 2.057 . S
O253 C241 1.232 . S
H254 C273 0.929 . S
H255 C274 0.929 . S
H256 C286 0.931 . S
H257 C278 0.929 . S
H258 C287 0.930 . S
H259 C279 0.931 . S
O260 Co236 2.097 . S
O260 C288 1.214 . S
H261 C289 0.929 . S
H262 C290 0.929 . S
H263 C291 0.930 . S
H264 C292 0.929 . S
H265 C294 0.930 . S
H266 C271 0.930 . S
H267 C275 0.930 . S
O268 Co237 2.037 . S
O268 C288 1.234 . S
C269 O243 1.269 . S
C269 O244 1.257 . S
C270 H245 0.930 . S
C270 C273 1.388 . S
C270 C275 1.418 . S
C271 H266 0.930 . S
C271 C274 1.404 . S
C271 C275 1.353 1_554 S
N272 Co237 2.145 1_655 S
N272 C273 1.397 1_554 S
N272 C274 1.334 . S
C273 H254 0.929 . S
C273 C270 1.388 . S
C273 N272 1.397 1_556 S
C274 H255 0.929 . S
C274 C271 1.404 . S
C274 N272 1.334 . S
C275 H267 0.930 . S
C275 C270 1.418 . S
C275 C271 1.353 1_556 S
C276 H246 0.930 . S
C276 N277 1.330 . S
C276 C278 1.446 . S
N277 Co236 2.151 . S
N277 C276 1.330 . S
N277 C281 1.418 . S
C278 H257 0.929 . S
C278 C276 1.446 . S
C278 C279 1.332 . S
C279 H259 0.931 . S
C279 C278 1.332 . S
C279 C280 1.267 . S
C280 H248 0.929 . S
C280 C279 1.267 . S
C280 C281 1.251 . S
C281 H251 0.929 . S
C281 N277 1.418 . S
C281 C280 1.251 . S
C282 H249 0.930 . S
C282 C284 1.406 . S
C282 C287 1.261 1_554 S
C283 H250 0.930 . S
C283 N285 1.325 1_556 S
C283 C286 1.357 . S
C284 H252 0.928 . S
C284 C282 1.406 . S
C284 N285 1.261 . S
N285 Co236 2.214 . S
N285 C283 1.325 1_554 S
N285 C284 1.261 . S
C286 H256 0.931 . S
C286 C283 1.357 . S
C286 C287 1.312 . S
C287 H258 0.930 . S
C287 C282 1.261 1_556 S
C287 C286 1.312 . S
C288 O260 1.214 . S
C288 O268 1.234 . S
C289 H261 0.929 . S
C289 C292 1.391 . S
C289 C294 1.391 . S
C290 H262 0.929 . S
C290 C291 1.390 . S
C290 N293 1.391 . S
C291 H263 0.930 . S
C291 C290 1.390 . S
C291 C292 1.392 . S
C292 H264 0.929 . S
C292 C289 1.391 . S
C292 C291 1.392 . S
N293 Co237 2.257 1_655 S
N293 C290 1.391 . S
N293 C294 1.388 . S
C294 H265 0.930 . S
C294 C289 1.391 . S
C294 N293 1.388 . S
Co295 O297 2.143 . S
Co295 O303 2.074 . S
Co295 O306 2.093 . S
Co295 O319 2.097 . S
Co295 N336 2.151 . S
Co295 N344 2.214 . S
Co296 O297 2.160 . S
Co296 O302 2.058 . S
Co296 O312 2.057 . S
Co296 O327 2.037 . S
Co296 N331 2.145 . S
Co296 N352 2.257 . S
O297 Co295 2.143 . S
O297 Co296 2.160 . S
C298 O299 1.278 . S
C298 O306 1.224 . S
O299 C298 1.278 . S
C300 O301 1.245 . S
C300 O312 1.232 . S
O301 C300 1.245 . S
O302 Co296 2.058 . S
O302 C328 1.269 . S
O303 Co295 2.074 . S
O303 C328 1.257 . S
H304 C329 0.930 . S
H305 C335 0.930 . S
O306 Co295 2.093 . S
O306 C298 1.224 . S
H307 C339 0.929 1_565 S
H308 C341 0.930 . S
H309 C342 0.930 . S
H310 C340 0.929 . S
H311 C343 0.928 . S
O312 Co296 2.057 . S
O312 C300 1.232 . S
H313 C332 0.929 . S
H314 C333 0.929 . S
H315 C345 0.931 . S
H316 C337 0.929 . S
H317 C346 0.930 . S
H318 C338 0.931 1_565 S
O319 Co295 2.097 . S
O319 C347 1.214 . S
H320 C348 0.929 . S
H321 C349 0.929 . S
H322 C350 0.930 . S
H323 C351 0.929 . S
H324 C353 0.930 . S
H325 C330 0.930 . S
H326 C334 0.930 . S
O327 Co296 2.037 . S
O327 C347 1.234 . S
C328 O302 1.269 . S
C328 O303 1.257 . S
C329 H304 0.930 . S
C329 C332 1.388 . S
C329 C334 1.418 . S
C330 H325 0.930 . S
C330 C333 1.404 . S
C330 C334 1.353 . S
N331 Co296 2.145 . S
N331 C332 1.397 . S
N331 C333 1.334 . S
C332 H313 0.929 . S
C332 C329 1.388 . S
C332 N331 1.397 . S
C333 H314 0.929 . S
C333 C330 1.404 . S
C333 N331 1.334 . S
C334 H326 0.930 . S
C334 C329 1.418 . S
C334 C330 1.353 . S
C335 H305 0.930 . S
C335 N336 1.330 . S
C335 C337 1.446 . S
N336 Co295 2.151 . S
N336 C335 1.330 . S
N336 C340 1.418 . S
C337 H316 0.929 . S
C337 C335 1.446 . S
C337 C338 1.332 . S
C338 H318 0.931 1_545 S
C338 C337 1.332 . S
C338 C339 1.267 . S
C339 H307 0.929 1_545 S
C339 C338 1.267 . S
C339 C340 1.251 . S
C340 H310 0.929 . S
C340 N336 1.418 . S
C340 C339 1.251 . S
C341 H308 0.930 . S
C341 C343 1.406 . S
C341 C346 1.261 . S
C342 H309 0.930 . S
C342 N344 1.325 . S
C342 C345 1.357 . S
C343 H311 0.928 . S
C343 C341 1.406 . S
C343 N344 1.261 . S
N344 Co295 2.214 . S
N344 C342 1.325 . S
N344 C343 1.261 . S
C345 H315 0.931 . S
C345 C342 1.357 . S
C345 C346 1.312 . S
C346 H317 0.930 . S
C346 C341 1.261 . S
C346 C345 1.312 . S
C347 O319 1.214 . S
C347 O327 1.234 . S
C348 H320 0.929 . S
C348 C351 1.391 . S
C348 C353 1.391 . S
C349 H321 0.929 . S
C349 C350 1.390 . S
C349 N352 1.391 . S
C350 H322 0.930 . S
C350 C349 1.390 . S
C350 C351 1.392 . S
C351 H323 0.929 . S
C351 C348 1.391 . S
C351 C350 1.392 . S
N352 Co296 2.257 . S
N352 C349 1.391 . S
N352 C353 1.388 . S
C353 H324 0.930 . S
C353 C348 1.391 . S
C353 N352 1.388 . S
Co354 O356 2.143 . S
Co354 O362 2.074 . S
Co354 O365 2.093 . S
Co354 O378 2.097 . S
Co354 N395 2.151 . S
Co354 N403 2.214 . S
Co355 O356 2.160 . S
Co355 O361 2.058 . S
Co355 O371 2.057 . S
Co355 O386 2.037 . S
Co355 N390 2.145 1_565 S
Co355 N411 2.257 1_565 S
O356 Co354 2.143 . S
O356 Co355 2.160 . S
C357 O358 1.278 . S
C357 O365 1.224 . S
O358 C357 1.278 . S
C359 O360 1.245 . S
C359 O371 1.232 . S
O360 C359 1.245 . S
O361 Co355 2.058 . S
O361 C387 1.269 . S
O362 Co354 2.074 . S
O362 C387 1.257 . S
H363 C388 0.930 . S
H364 C394 0.930 . S
O365 Co354 2.093 . S
O365 C357 1.224 . S
H366 C398 0.929 . S
H367 C400 0.930 . S
H368 C401 0.930 . S
H369 C399 0.929 . S
H370 C402 0.928 . S
O371 Co355 2.057 . S
O371 C359 1.232 . S
H372 C391 0.929 . S
H373 C392 0.929 . S
H374 C404 0.931 . S
H375 C396 0.929 . S
H376 C405 0.930 . S
H377 C397 0.931 . S
O378 Co354 2.097 . S
O378 C406 1.214 . S
H379 C407 0.929 . S
H380 C408 0.929 . S
H381 C409 0.930 . S
H382 C410 0.929 . S
H383 C412 0.930 . S
H384 C389 0.930 . S
H385 C393 0.930 . S
O386 Co355 2.037 . S
O386 C406 1.234 . S
C387 O361 1.269 . S
C387 O362 1.257 . S
C388 H363 0.930 . S
C388 C391 1.388 . S
C388 C393 1.418 . S
C389 H384 0.930 . S
C389 C392 1.404 . S
C389 C393 1.353 1_556 S
N390 Co355 2.145 1_545 S
N390 C391 1.397 1_556 S
N390 C392 1.334 . S
C391 H372 0.929 . S
C391 C388 1.388 . S
C391 N390 1.397 1_554 S
C392 H373 0.929 . S
C392 C389 1.404 . S
C392 N390 1.334 . S
C393 H385 0.930 . S
C393 C388 1.418 . S
C393 C389 1.353 1_554 S
C394 H364 0.930 . S
C394 N395 1.330 . S
C394 C396 1.446 . S
N395 Co354 2.151 . S
N395 C394 1.330 . S
N395 C399 1.418 . S
C396 H375 0.929 . S
C396 C394 1.446 . S
C396 C397 1.332 . S
C397 H377 0.931 . S
C397 C396 1.332 . S
C397 C398 1.267 . S
C398 H366 0.929 . S
C398 C397 1.267 . S
C398 C399 1.251 . S
C399 H369 0.929 . S
C399 N395 1.418 . S
C399 C398 1.251 . S
C400 H367 0.930 . S
C400 C402 1.406 . S
C400 C405 1.261 1_556 S
C401 H368 0.930 . S
C401 N403 1.325 1_554 S
C401 C404 1.357 . S
C402 H370 0.928 . S
C402 C400 1.406 . S
C402 N403 1.261 . S
N403 Co354 2.214 . S
N403 C401 1.325 1_556 S
N403 C402 1.261 . S
C404 H374 0.931 . S
C404 C401 1.357 . S
C404 C405 1.312 . S
C405 H376 0.930 . S
C405 C400 1.261 1_554 S
C405 C404 1.312 . S
C406 O378 1.214 . S
C406 O386 1.234 . S
C407 H379 0.929 . S
C407 C410 1.391 . S
C407 C412 1.391 . S
C408 H380 0.929 . S
C408 C409 1.390 . S
C408 N411 1.391 . S
C409 H381 0.930 . S
C409 C408 1.390 . S
C409 C410 1.392 . S
C410 H382 0.929 . S
C410 C407 1.391 . S
C410 C409 1.392 . S
N411 Co355 2.257 1_545 S
N411 C408 1.391 . S
N411 C412 1.388 . S
C412 H383 0.930 . S
C412 C407 1.391 . S
C412 N411 1.388 . S
Co413 O415 2.143 . S
Co413 O421 2.074 . S
Co413 O424 2.093 . S
Co413 O437 2.097 . S
Co413 N454 2.151 . S
Co413 N462 2.214 . S
Co414 O415 2.160 . S
Co414 O420 2.058 . S
Co414 O430 2.057 . S
Co414 O445 2.037 . S
Co414 N449 2.145 . S
Co414 N470 2.257 . S
O415 Co413 2.143 . S
O415 Co414 2.160 . S
C416 O417 1.278 . S
C416 O424 1.224 . S
O417 C416 1.278 . S
C418 O419 1.245 . S
C418 O430 1.232 . S
O419 C418 1.245 . S
O420 Co414 2.058 . S
O420 C446 1.269 . S
O421 Co413 2.074 . S
O421 C446 1.257 . S
H422 C447 0.930 . S
H423 C453 0.930 . S
O424 Co413 2.093 . S
O424 C416 1.224 . S
H425 C457 0.929 1_455 S
H426 C459 0.930 . S
H427 C460 0.930 . S
H428 C458 0.929 . S
H429 C461 0.928 . S
O430 Co414 2.057 . S
O430 C418 1.232 . S
H431 C450 0.929 . S
H432 C451 0.929 . S
H433 C463 0.931 . S
H434 C455 0.929 . S
H435 C464 0.930 . S
H436 C456 0.931 1_455 S
O437 Co413 2.097 . S
O437 C465 1.214 . S
H438 C466 0.929 . S
H439 C467 0.929 . S
H440 C468 0.930 . S
H441 C469 0.929 . S
H442 C471 0.930 . S
H443 C448 0.930 . S
H444 C452 0.930 . S
O445 Co414 2.037 . S
O445 C465 1.234 . S
C446 O420 1.269 . S
C446 O421 1.257 . S
C447 H422 0.930 . S
C447 C450 1.388 . S
C447 C452 1.418 . S
C448 H443 0.930 . S
C448 C451 1.404 . S
C448 C452 1.353 . S
N449 Co414 2.145 . S
N449 C450 1.397 . S
N449 C451 1.334 . S
C450 H431 0.929 . S
C450 C447 1.388 . S
C450 N449 1.397 . S
C451 H432 0.929 . S
C451 C448 1.404 . S
C451 N449 1.334 . S
C452 H444 0.930 . S
C452 C447 1.418 . S
C452 C448 1.353 . S
C453 H423 0.930 . S
C453 N454 1.330 . S
C453 C455 1.446 . S
N454 Co413 2.151 . S
N454 C453 1.330 . S
N454 C458 1.418 . S
C455 H434 0.929 . S
C455 C453 1.446 . S
C455 C456 1.332 . S
C456 H436 0.931 1_655 S
C456 C455 1.332 . S
C456 C457 1.267 . S
C457 H425 0.929 1_655 S
C457 C456 1.267 . S
C457 C458 1.251 . S
C458 H428 0.929 . S
C458 N454 1.418 . S
C458 C457 1.251 . S
C459 H426 0.930 . S
C459 C461 1.406 . S
C459 C464 1.261 . S
C460 H427 0.930 . S
C460 N462 1.325 . S
C460 C463 1.357 . S
C461 H429 0.928 . S
C461 C459 1.406 . S
C461 N462 1.261 . S
N462 Co413 2.214 . S
N462 C460 1.325 . S
N462 C461 1.261 . S
C463 H433 0.931 . S
C463 C460 1.357 . S
C463 C464 1.312 . S
C464 H435 0.930 . S
C464 C459 1.261 . S
C464 C463 1.312 . S
C465 O437 1.214 . S
C465 O445 1.234 . S
C466 H438 0.929 . S
C466 C469 1.391 . S
C466 C471 1.391 . S
C467 H439 0.929 . S
C467 C468 1.390 . S
C467 N470 1.391 . S
C468 H440 0.930 . S
C468 C467 1.390 . S
C468 C469 1.392 . S
C469 H441 0.929 . S
C469 C466 1.391 . S
C469 C468 1.392 . S
N470 Co414 2.257 . S
N470 C467 1.391 . S
N470 C471 1.388 . S
C471 H442 0.930 . S
C471 C466 1.391 . S
C471 N470 1.388 . S
C328 C33 1.696 . S
C416 C64 1.656 . S
C170 C406 1.680 1_544 S
C180 C241 1.656 . S
C359 C3 1.656 . S
C111 C288 1.680 1_656 S
C298 C123 1.656 . S
C210 C446 1.696 . S
C239 C300 1.656 . S
C92 C151 1.696 1_556 S
C182 C121 1.656 . S
C229 C52 1.680 1_665 S
C62 C5 1.656 . S
C418 C357 1.656 . S
C269 C387 1.696 1_554 S
C347 C465 1.680 . S
