# Generated by pormake.
# Topology ukj, (4)-cn, num edge types: 1
# Building blocks:
#     Node 0, Type 0, BuildingBlock: NAWXER_clean_sbu_0, # of connection points: 4
#     Node 1, Type 0, BuildingBlock: NAWXER_clean_sbu_0, # of connection points: 4
#     Node 2, Type 0, BuildingBlock: NAWXER_clean_sbu_0, # of connection points: 4
#     Node 3, Type 0, BuildingBlock: NAWXER_clean_sbu_0, # of connection points: 4
#     Node 4, Type 0, BuildingBlock: NAWXER_clean_sbu_0, # of connection points: 4
#     Node 5, Type 0, BuildingBlock: NAWXER_clean_sbu_0, # of connection points: 4
#     Node 6, Type 0, BuildingBlock: NAWXER_clean_sbu_0, # of connection points: 4
#     Node 7, Type 0, BuildingBlock: NAWXER_clean_sbu_0, # of connection points: 4
#     Node 8, Type 0, BuildingBlock: NAWXER_clean_sbu_0, # of connection points: 4
#     Node 9, Type 0, BuildingBlock: NAWXER_clean_sbu_0, # of connection points: 4
#     Node 10, Type 0, BuildingBlock: NAWXER_clean_sbu_0, # of connection points: 4
#     Node 11, Type 0, BuildingBlock: NAWXER_clean_sbu_0, # of connection points: 4
#     Node 12, Type 0, BuildingBlock: NAWXER_clean_sbu_0, # of connection points: 4
#     Node 13, Type 0, BuildingBlock: NAWXER_clean_sbu_0, # of connection points: 4
#     Node 14, Type 0, BuildingBlock: NAWXER_clean_sbu_0, # of connection points: 4
#     Node 15, Type 0, BuildingBlock: NAWXER_clean_sbu_0, # of connection points: 4
#     Node 16, Type 0, BuildingBlock: NAWXER_clean_sbu_0, # of connection points: 4
#     Node 17, Type 0, BuildingBlock: NAWXER_clean_sbu_0, # of connection points: 4
#     Node 18, Type 0, BuildingBlock: NAWXER_clean_sbu_0, # of connection points: 4
#     Node 19, Type 0, BuildingBlock: NAWXER_clean_sbu_0, # of connection points: 4
#     Node 20, Type 0, BuildingBlock: NAWXER_clean_sbu_0, # of connection points: 4
#     Node 21, Type 0, BuildingBlock: NAWXER_clean_sbu_0, # of connection points: 4
#     Node 22, Type 0, BuildingBlock: NAWXER_clean_sbu_0, # of connection points: 4
#     Node 23, Type 0, BuildingBlock: NAWXER_clean_sbu_0, # of connection points: 4
#     Node 24, Type 0, BuildingBlock: NAWXER_clean_sbu_0, # of connection points: 4
#     Node 25, Type 0, BuildingBlock: NAWXER_clean_sbu_0, # of connection points: 4
#     Node 26, Type 0, BuildingBlock: NAWXER_clean_sbu_0, # of connection points: 4
#     Node 27, Type 0, BuildingBlock: NAWXER_clean_sbu_0, # of connection points: 4
#     Node 28, Type 0, BuildingBlock: NAWXER_clean_sbu_0, # of connection points: 4
#     Node 29, Type 0, BuildingBlock: NAWXER_clean_sbu_0, # of connection points: 4
#     Node 30, Type 0, BuildingBlock: NAWXER_clean_sbu_0, # of connection points: 4
#     Node 31, Type 0, BuildingBlock: NAWXER_clean_sbu_0, # of connection points: 4
#     Edge 32, Type (0, 0), BuildingBlock: ZUJKAS_clean_linker_0, # of connection points: 2
#     Edge 33, Type (0, 0), BuildingBlock: ZUJKAS_clean_linker_0, # of connection points: 2
#     Edge 34, Type (0, 0), BuildingBlock: ZUJKAS_clean_linker_0, # of connection points: 2
#     Edge 35, Type (0, 0), BuildingBlock: ZUJKAS_clean_linker_0, # of connection points: 2
#     Edge 36, Type (0, 0), BuildingBlock: ZUJKAS_clean_linker_0, # of connection points: 2
#     Edge 37, Type (0, 0), BuildingBlock: ZUJKAS_clean_linker_0, # of connection points: 2
#     Edge 38, Type (0, 0), BuildingBlock: ZUJKAS_clean_linker_0, # of connection points: 2
#     Edge 39, Type (0, 0), BuildingBlock: ZUJKAS_clean_linker_0, # of connection points: 2
#     Edge 40, Type (0, 0), BuildingBlock: ZUJKAS_clean_linker_0, # of connection points: 2
#     Edge 41, Type (0, 0), BuildingBlock: ZUJKAS_clean_linker_0, # of connection points: 2
#     Edge 42, Type (0, 0), BuildingBlock: ZUJKAS_clean_linker_0, # of connection points: 2
#     Edge 43, Type (0, 0), BuildingBlock: ZUJKAS_clean_linker_0, # of connection points: 2
#     Edge 44, Type (0, 0), BuildingBlock: ZUJKAS_clean_linker_0, # of connection points: 2
#     Edge 45, Type (0, 0), BuildingBlock: ZUJKAS_clean_linker_0, # of connection points: 2
#     Edge 46, Type (0, 0), BuildingBlock: ZUJKAS_clean_linker_0, # of connection points: 2
#     Edge 47, Type (0, 0), BuildingBlock: ZUJKAS_clean_linker_0, # of connection points: 2
#     Edge 48, Type (0, 0), BuildingBlock: ZUJKAS_clean_linker_0, # of connection points: 2
#     Edge 49, Type (0, 0), BuildingBlock: ZUJKAS_clean_linker_0, # of connection points: 2
#     Edge 50, Type (0, 0), BuildingBlock: ZUJKAS_clean_linker_0, # of connection points: 2
#     Edge 51, Type (0, 0), BuildingBlock: ZUJKAS_clean_linker_0, # of connection points: 2
#     Edge 52, Type (0, 0), BuildingBlock: ZUJKAS_clean_linker_0, # of connection points: 2
#     Edge 53, Type (0, 0), BuildingBlock: ZUJKAS_clean_linker_0, # of connection points: 2
#     Edge 54, Type (0, 0), BuildingBlock: ZUJKAS_clean_linker_0, # of connection points: 2
#     Edge 55, Type (0, 0), BuildingBlock: ZUJKAS_clean_linker_0, # of connection points: 2
#     Edge 56, Type (0, 0), BuildingBlock: ZUJKAS_clean_linker_0, # of connection points: 2
#     Edge 57, Type (0, 0), BuildingBlock: ZUJKAS_clean_linker_0, # of connection points: 2
#     Edge 58, Type (0, 0), BuildingBlock: ZUJKAS_clean_linker_0, # of connection points: 2
#     Edge 59, Type (0, 0), BuildingBlock: ZUJKAS_clean_linker_0, # of connection points: 2
#     Edge 60, Type (0, 0), BuildingBlock: ZUJKAS_clean_linker_0, # of connection points: 2
#     Edge 61, Type (0, 0), BuildingBlock: ZUJKAS_clean_linker_0, # of connection points: 2
#     Edge 62, Type (0, 0), BuildingBlock: ZUJKAS_clean_linker_0, # of connection points: 2
#     Edge 63, Type (0, 0), BuildingBlock: ZUJKAS_clean_linker_0, # of connection points: 2
#     Edge 64, Type (0, 0), BuildingBlock: ZUJKAS_clean_linker_0, # of connection points: 2
#     Edge 65, Type (0, 0), BuildingBlock: ZUJKAS_clean_linker_0, # of connection points: 2
#     Edge 66, Type (0, 0), BuildingBlock: ZUJKAS_clean_linker_0, # of connection points: 2
#     Edge 67, Type (0, 0), BuildingBlock: ZUJKAS_clean_linker_0, # of connection points: 2
#     Edge 68, Type (0, 0), BuildingBlock: ZUJKAS_clean_linker_0, # of connection points: 2
#     Edge 69, Type (0, 0), BuildingBlock: ZUJKAS_clean_linker_0, # of connection points: 2
#     Edge 70, Type (0, 0), BuildingBlock: ZUJKAS_clean_linker_0, # of connection points: 2
#     Edge 71, Type (0, 0), BuildingBlock: ZUJKAS_clean_linker_0, # of connection points: 2
#     Edge 72, Type (0, 0), BuildingBlock: ZUJKAS_clean_linker_0, # of connection points: 2
#     Edge 73, Type (0, 0), BuildingBlock: ZUJKAS_clean_linker_0, # of connection points: 2
#     Edge 74, Type (0, 0), BuildingBlock: ZUJKAS_clean_linker_0, # of connection points: 2
#     Edge 75, Type (0, 0), BuildingBlock: ZUJKAS_clean_linker_0, # of connection points: 2
#     Edge 76, Type (0, 0), BuildingBlock: ZUJKAS_clean_linker_0, # of connection points: 2
#     Edge 77, Type (0, 0), BuildingBlock: ZUJKAS_clean_linker_0, # of connection points: 2
#     Edge 78, Type (0, 0), BuildingBlock: ZUJKAS_clean_linker_0, # of connection points: 2
#     Edge 79, Type (0, 0), BuildingBlock: ZUJKAS_clean_linker_0, # of connection points: 2
#     Edge 80, Type (0, 0), BuildingBlock: ZUJKAS_clean_linker_0, # of connection points: 2
#     Edge 81, Type (0, 0), BuildingBlock: ZUJKAS_clean_linker_0, # of connection points: 2
#     Edge 82, Type (0, 0), BuildingBlock: ZUJKAS_clean_linker_0, # of connection points: 2
#     Edge 83, Type (0, 0), BuildingBlock: ZUJKAS_clean_linker_0, # of connection points: 2
#     Edge 84, Type (0, 0), BuildingBlock: ZUJKAS_clean_linker_0, # of connection points: 2
#     Edge 85, Type (0, 0), BuildingBlock: ZUJKAS_clean_linker_0, # of connection points: 2
#     Edge 86, Type (0, 0), BuildingBlock: ZUJKAS_clean_linker_0, # of connection points: 2
#     Edge 87, Type (0, 0), BuildingBlock: ZUJKAS_clean_linker_0, # of connection points: 2
#     Edge 88, Type (0, 0), BuildingBlock: ZUJKAS_clean_linker_0, # of connection points: 2
#     Edge 89, Type (0, 0), BuildingBlock: ZUJKAS_clean_linker_0, # of connection points: 2
#     Edge 90, Type (0, 0), BuildingBlock: ZUJKAS_clean_linker_0, # of connection points: 2
#     Edge 91, Type (0, 0), BuildingBlock: ZUJKAS_clean_linker_0, # of connection points: 2
#     Edge 92, Type (0, 0), BuildingBlock: ZUJKAS_clean_linker_0, # of connection points: 2
#     Edge 93, Type (0, 0), BuildingBlock: ZUJKAS_clean_linker_0, # of connection points: 2
#     Edge 94, Type (0, 0), BuildingBlock: ZUJKAS_clean_linker_0, # of connection points: 2
#     Edge 95, Type (0, 0), BuildingBlock: ZUJKAS_clean_linker_0, # of connection points: 2
# Relax obj value: 0.006
# Max RMSD: 0.183
# Mean RMSD: 0.183
data_MOF--net-ukj--node1-NAWXER_clean_sbu_0--edge1-ZUJKAS_clean_linker_0
_symmetry_space_group_name_H-M    P1
_symmetry_Int_Tables_number       1
_symmetry_cell_setting            triclinic
loop_
_symmetry_equiv_pos_as_xyz
'x, y, z'
_cell_length_a     45.164988
_cell_length_b     70.754685
_cell_length_c     75.884428
_cell_angle_alpha  89.988271
_cell_angle_beta   90.030985
_cell_angle_gamma 89.991918
loop_
_atom_site_label
_atom_site_type_symbol
_atom_site_fract_x
_atom_site_fract_y
_atom_site_fract_z
_atom_type_partial_charge
C0 C 0.16173 0.35403 0.28494 0.0
C1 C 0.15837 0.35076 0.22098 0.0
O2 O 0.17375 0.33877 0.2792 0.0
Zn3 Zn 0.1819 0.32593 0.25376 0.0
O4 O 0.15097 0.36577 0.27403 0.0
Zn5 Zn 0.16049 0.35218 0.25294 0.0
O6 O 0.13141 0.32788 0.25411 0.0
O7 O 0.16004 0.30267 0.25509 0.0
O8 O 0.14921 0.36377 0.23112 0.0
O9 O 0.17089 0.33611 0.22763 0.0
O10 O 0.22433 0.32403 0.25306 0.0
O11 O 0.20836 0.35345 0.2522 0.0
C12 C 0.13428 0.30984 0.25484 0.0
C13 C 0.22989 0.3416 0.25234 0.0
C14 C 0.09785 0.89616 0.28506 0.0
C15 C 0.1029 0.89971 0.22119 0.0
O16 O 0.08529 0.91119 0.27923 0.0
Zn17 Zn 0.07818 0.92426 0.2538 0.0
O18 O 0.10986 0.88476 0.27432 0.0
Zn19 Zn 0.10022 0.89818 0.25312 0.0
O20 O 0.12876 0.92263 0.25455 0.0
O21 O 0.09976 0.94765 0.25549 0.0
O22 O 0.11213 0.88673 0.23135 0.0
O23 O 0.08997 0.91424 0.22779 0.0
O24 O 0.03584 0.9259 0.25257 0.0
O25 O 0.05229 0.89656 0.25201 0.0
C26 C 0.12563 0.94064 0.25536 0.0
C27 C 0.03057 0.90829 0.25188 0.0
C28 C 0.16157 0.89564 0.97078 0.0
C29 C 0.15799 0.89931 0.03469 0.0
O30 O 0.17361 0.91091 0.97646 0.0
Zn31 Zn 0.18164 0.92391 1.00182 0.0
O32 O 0.15071 0.88399 0.98171 0.0
Zn33 Zn 0.16018 0.89766 1.00277 0.0
O34 O 0.13115 0.92197 1.00148 0.0
O35 O 0.15979 0.94717 1.00034 0.0
O36 O 0.14887 0.8862 0.02464 0.0
O37 O 0.17051 0.91392 0.02796 0.0
O38 O 0.22405 0.92578 1.00262 0.0
O39 O 0.20804 0.89637 0.00361 0.0
C40 C 0.13402 0.94 1.00066 0.0
C41 C 0.22958 0.90821 0.00346 0.0
C42 C 0.12674 0.31042 1.00072 0.0
C43 C 0.03132 0.34242 0.00314 0.0
O44 O 0.1297 0.32845 1.00145 0.0
Zn45 Zn 0.10077 0.35283 1.00259 0.0
O46 O 0.10094 0.3033 1.00042 0.0
Zn47 Zn 0.0792 0.32661 1.00175 0.0
O48 O 0.0875 0.33943 0.97633 0.0
O49 O 0.11038 0.36639 0.98147 0.0
O50 O 0.03677 0.32484 1.00242 0.0
O51 O 0.05292 0.35422 0.0033 0.0
O52 O 0.11205 0.36436 0.02446 0.0
O53 O 0.09025 0.33671 0.02787 0.0
C54 C 0.09959 0.35465 0.97058 0.0
C55 C 0.10283 0.35133 0.03456 0.0
C56 C 0.85161 0.65118 0.78445 0.0
C57 C 0.84847 0.64798 0.72055 0.0
O58 O 0.86191 0.63854 0.7743 0.0
Zn59 Zn 0.84993 0.64993 0.75252 0.0
O60 O 0.83825 0.66557 0.77786 0.0
Zn61 Zn 0.82755 0.67584 0.75171 0.0
O62 O 0.78527 0.6774 0.7524 0.0
O63 O 0.80186 0.64809 0.75324 0.0
O64 O 0.83555 0.66294 0.72627 0.0
O65 O 0.86027 0.63662 0.73142 0.0
O66 O 0.87817 0.67448 0.75143 0.0
O67 O 0.84894 0.69937 0.75044 0.0
C68 C 0.78008 0.65978 0.75311 0.0
C69 C 0.87487 0.69247 0.75073 0.0
C70 C 0.88382 0.06039 0.75049 0.0
C71 C 0.97878 0.09287 0.75396 0.0
O72 O 0.90969 0.05338 0.75047 0.0
Zn73 Zn 0.93117 0.07682 0.75201 0.0
O74 O 0.88067 0.07841 0.7512 0.0
Zn75 Zn 0.90914 0.10289 0.75278 0.0
O76 O 0.89987 0.11652 0.73167 0.0
O77 O 0.92329 0.08973 0.72657 0.0
O78 O 0.95702 0.10457 0.75403 0.0
O79 O 0.97355 0.07527 0.75302 0.0
O80 O 0.91958 0.0868 0.77809 0.0
O81 O 0.89658 0.11407 0.77453 0.0
C82 C 0.91108 0.10492 0.72081 0.0
C83 C 0.90619 0.10117 0.78466 0.0
C84 C 0.84971 0.10497 0.03525 0.0
C85 C 0.852 0.10004 0.97142 0.0
O86 O 0.86021 0.11643 0.02402 0.0
Zn87 Zn 0.85068 0.10219 0.00322 0.0
O88 O 0.83773 0.08955 0.02993 0.0
Zn89 Zn 0.82896 0.0761 0.00498 0.0
O90 O 0.85077 0.0528 0.00655 0.0
O91 O 0.87953 0.07788 0.00481 0.0
O92 O 0.83885 0.08577 0.97839 0.0
O93 O 0.8624 0.11297 0.98124 0.0
O94 O 0.80272 0.10355 1.00198 0.0
O95 O 0.7866 0.07427 0.00526 0.0
C96 C 0.87657 0.05988 0.00593 0.0
C97 C 0.78124 0.09173 0.00315 0.0
C98 C 0.9077 0.65048 0.9711 0.0
C99 C 0.91203 0.64718 0.03501 0.0
O100 O 0.89793 0.6377 0.98129 0.0
Zn101 Zn 0.91032 0.64904 0.00301 0.0
O102 O 0.92108 0.66488 0.97762 0.0
Zn103 Zn 0.93245 0.67504 0.0037 0.0
O104 O 0.97483 0.67655 0.00284 0.0
O105 O 0.95822 0.64727 1.00194 0.0
O106 O 0.92436 0.66231 0.0292 0.0
O107 O 0.90082 0.63556 0.02416 0.0
O108 O 0.88194 0.67359 0.00433 0.0
O109 O 0.91111 0.69854 0.00503 0.0
C110 C 0.98001 0.65894 1.00202 0.0
C111 C 0.8852 0.6916 0.00495 0.0
C112 C 0.13358 0.81123 0.75512 0.0
C113 C 0.23011 0.84181 0.75248 0.0
O114 O 0.13126 0.8293 0.75434 0.0
Zn115 Zn 0.16107 0.85324 0.75306 0.0
O116 O 0.15912 0.80373 0.75538 0.0
Zn117 Zn 0.18167 0.8267 0.75399 0.0
O118 O 0.17376 0.8397 0.77935 0.0
O119 O 0.15198 0.86702 0.77412 0.0
O120 O 0.22403 0.82432 0.75329 0.0
O121 O 0.20894 0.85392 0.75231 0.0
O122 O 0.1501 0.86484 0.73116 0.0
O123 O 0.17085 0.83685 0.72786 0.0
C124 C 0.16224 0.85512 0.78505 0.0
C125 C 0.15878 0.85161 0.72112 0.0
C126 C 0.10248 0.39895 0.72084 0.0
C127 C 0.09905 0.39526 0.78479 0.0
O128 O 0.09018 0.41363 0.72758 0.0
Zn129 Zn 0.07933 0.42368 0.75375 0.0
O130 O 0.11143 0.3858 0.7309 0.0
Zn131 Zn 0.10034 0.39729 0.7528 0.0
O132 O 0.05245 0.39633 0.75206 0.0
O133 O 0.03694 0.42584 0.75303 0.0
O134 O 0.10964 0.38352 0.77384 0.0
O135 O 0.08727 0.41063 0.77912 0.0
O136 O 0.10156 0.44679 0.75521 0.0
O137 O 0.12979 0.42139 0.75414 0.0
C138 C 0.03111 0.40831 0.75224 0.0
C139 C 0.12721 0.43945 0.75495 0.0
C140 C 0.15757 0.39956 0.5344 0.0
C141 C 0.16095 0.39588 0.47048 0.0
O142 O 0.16992 0.41424 0.52769 0.0
Zn143 Zn 0.18076 0.4243 0.50149 0.0
O144 O 0.14852 0.38646 0.52432 0.0
Zn145 Zn 0.15961 0.398 0.50246 0.0
O146 O 0.20752 0.39692 0.50321 0.0
O147 O 0.22315 0.42641 0.50219 0.0
O148 O 0.15024 0.38422 0.48146 0.0
O149 O 0.17282 0.41123 0.47611 0.0
O150 O 0.1587 0.44746 0.50003 0.0
O151 O 0.13027 0.42217 0.5012 0.0
C152 C 0.22891 0.40887 0.50301 0.0
C153 C 0.13299 0.44022 0.50037 0.0
C154 C 0.09725 0.85497 0.47089 0.0
C155 C 0.10206 0.85137 0.53476 0.0
O156 O 0.08479 0.83989 0.47667 0.0
Zn157 Zn 0.07766 0.82677 0.50207 0.0
O158 O 0.1091 0.86639 0.48168 0.0
Zn159 Zn 0.09945 0.85292 0.50283 0.0
O160 O 0.12822 0.82857 0.50151 0.0
O161 O 0.09944 0.80346 0.5004 0.0
O162 O 0.11115 0.86441 0.52463 0.0
O163 O 0.0893 0.83679 0.52812 0.0
O164 O 0.03533 0.82496 0.50321 0.0
O165 O 0.0515 0.85436 0.50385 0.0
C166 C 0.12525 0.81055 0.50067 0.0
C167 C 0.02989 0.84255 0.50391 0.0
C168 C 0.84782 0.1474 0.2206 0.0
C169 C 0.85076 0.15061 0.28456 0.0
O170 O 0.85841 0.1356 0.23151 0.0
Zn171 Zn 0.84873 0.14914 0.25261 0.0
O172 O 0.83577 0.16264 0.22633 0.0
Zn173 Zn 0.82736 0.17543 0.25174 0.0
O174 O 0.84925 0.19868 0.25048 0.0
O175 O 0.87783 0.17344 0.25151 0.0
O176 O 0.8383 0.16527 0.27787 0.0
O177 O 0.85988 0.13755 0.27446 0.0
O178 O 0.80087 0.14788 0.25326 0.0
O179 O 0.78492 0.17731 0.25235 0.0
C180 C 0.875 0.19149 0.25078 0.0
C181 C 0.77934 0.15974 0.25308 0.0
C182 C 0.91061 0.60617 0.22074 0.0
C183 C 0.90662 0.60188 0.28467 0.0
O184 O 0.89986 0.61782 0.23173 0.0
Zn185 Zn 0.90908 0.60391 0.25273 0.0
O186 O 0.92245 0.59081 0.22637 0.0
Zn187 Zn 0.93035 0.57759 0.25164 0.0
O188 O 0.90837 0.55441 0.24992 0.0
O189 O 0.87988 0.57968 0.25113 0.0
O190 O 0.91909 0.58733 0.27782 0.0
O191 O 0.89768 0.61514 0.27473 0.0
O192 O 0.95694 0.60505 0.25367 0.0
O193 O 0.97276 0.57561 0.25248 0.0
C194 C 0.88264 0.56164 0.25019 0.0
C195 C 0.97841 0.59316 0.25346 0.0
C196 C 0.87499 0.55966 0.5054 0.0
C197 C 0.78005 0.59216 0.50261 0.0
O198 O 0.84907 0.55273 0.50582 0.0
Zn199 Zn 0.82767 0.57618 0.50422 0.0
O200 O 0.87824 0.57765 0.50449 0.0
Zn201 Zn 0.84974 0.60218 0.50324 0.0
O202 O 0.85999 0.61569 0.52426 0.0
O203 O 0.83554 0.58931 0.52957 0.0
O204 O 0.80177 0.60388 0.50251 0.0
O205 O 0.78534 0.57455 0.50335 0.0
O206 O 0.83896 0.58605 0.47803 0.0
O207 O 0.86121 0.61356 0.48136 0.0
C208 C 0.84831 0.60436 0.5352 0.0
C209 C 0.85179 0.60055 0.4713 0.0
C210 C 0.97796 0.1582 0.50223 0.0
C211 C 0.88247 0.19003 0.50545 0.0
O212 O 0.97243 0.17577 0.50313 0.0
Zn213 Zn 0.93003 0.17393 0.50401 0.0
O214 O 0.95641 0.14637 0.5021 0.0
Zn215 Zn 0.90857 0.14767 0.50306 0.0
O216 O 0.89698 0.13635 0.48114 0.0
O217 O 0.9186 0.16407 0.47788 0.0
O218 O 0.87956 0.172 0.5046 0.0
O219 O 0.90825 0.19718 0.50563 0.0
O220 O 0.92211 0.16087 0.52935 0.0
O221 O 0.89933 0.1339 0.52412 0.0
C222 C 0.90598 0.14952 0.47112 0.0
C223 C 0.91017 0.14558 0.53505 0.0
C224 C 0.66163 0.35475 0.78483 0.0
C225 C 0.65782 0.35153 0.72086 0.0
O226 O 0.67355 0.33949 0.77903 0.0
Zn227 Zn 0.68148 0.32667 0.75357 0.0
O228 O 0.65086 0.36654 0.77397 0.0
Zn229 Zn 0.66016 0.35297 0.75282 0.0
O230 O 0.63101 0.32872 0.75408 0.0
O231 O 0.65952 0.30345 0.75495 0.0
O232 O 0.64876 0.36457 0.73101 0.0
O233 O 0.67032 0.33686 0.7275 0.0
O234 O 0.72389 0.32472 0.75276 0.0
O235 O 0.70802 0.35417 0.75194 0.0
C236 C 0.63379 0.31068 0.75479 0.0
C237 C 0.72951 0.34228 0.75201 0.0
C238 C 0.60383 0.89914 0.72092 0.0
C239 C 0.59952 0.89608 0.78484 0.0
O240 O 0.59052 0.91358 0.72743 0.0
Zn241 Zn 0.57926 0.92386 0.75344 0.0
O242 O 0.61362 0.88637 0.73113 0.0
Zn243 Zn 0.60128 0.89777 0.75284 0.0
O244 O 0.55338 0.89612 0.75171 0.0
O245 O 0.53688 0.92544 0.75254 0.0
O246 O 0.61068 0.88436 0.77407 0.0
O247 O 0.58728 0.91119 0.77895 0.0
O248 O 0.60079 0.9473 0.75471 0.0
O249 O 0.62978 0.92225 0.75414 0.0
C250 C 0.53164 0.90783 0.75174 0.0
C251 C 0.62666 0.94027 0.7547 0.0
C252 C 0.65757 0.90061 0.53415 0.0
C253 C 0.66072 0.89711 0.47027 0.0
O254 O 0.67063 0.91507 0.52751 0.0
Zn255 Zn 0.68105 0.92532 0.50132 0.0
O256 O 0.64746 0.88787 0.52404 0.0
Zn257 Zn 0.65926 0.89922 0.50223 0.0
O258 O 0.70726 0.89776 0.50307 0.0
O259 O 0.72339 0.92715 0.50192 0.0
O260 O 0.64973 0.88553 0.48122 0.0
O261 O 0.67289 0.91235 0.47592 0.0
O262 O 0.65931 0.94866 0.50001 0.0
O263 O 0.63047 0.92357 0.50088 0.0
C264 C 0.72886 0.90957 0.50282 0.0
C265 C 0.63349 0.94159 0.50017 0.0
C266 C 0.60234 0.35133 0.53447 0.0
C267 C 0.59873 0.35459 0.47056 0.0
O268 O 0.58939 0.33681 0.52786 0.0
Zn269 Zn 0.57802 0.32673 0.50176 0.0
O270 O 0.61188 0.3642 0.52429 0.0
Zn271 Zn 0.60023 0.35269 0.50252 0.0
O272 O 0.55228 0.3545 0.50329 0.0
O273 O 0.53568 0.32521 0.50264 0.0
O274 O 0.61045 0.36601 0.48139 0.0
O275 O 0.58591 0.33961 0.4763 0.0
O276 O 0.59931 0.30322 0.50033 0.0
O277 O 0.62859 0.3281 0.50137 0.0
C278 C 0.53049 0.34283 0.50329 0.0
C279 C 0.62526 0.31011 0.5006 0.0
C280 C 0.35184 0.65043 0.28428 0.0
C281 C 0.34814 0.64572 0.22039 0.0
O282 O 0.36085 0.63714 0.27441 0.0
Zn283 Zn 0.34954 0.64825 0.25236 0.0
O284 O 0.33935 0.66494 0.27735 0.0
Zn285 Zn 0.32815 0.67451 0.25106 0.0
O286 O 0.28572 0.67642 0.25181 0.0
O287 O 0.30168 0.64702 0.25316 0.0
O288 O 0.33615 0.6611 0.22587 0.0
O289 O 0.35897 0.63422 0.2315 0.0
O290 O 0.37864 0.67252 0.25071 0.0
O291 O 0.35003 0.69772 0.24925 0.0
C292 C 0.28016 0.65887 0.25284 0.0
C293 C 0.37579 0.69054 0.24964 0.0
C294 C 0.38329 0.06028 0.25049 0.0
C295 C 0.47819 0.09285 0.25369 0.0
O296 O 0.4092 0.05331 0.25039 0.0
Zn297 Zn 0.43065 0.07677 0.25193 0.0
O298 O 0.38007 0.07828 0.2512 0.0
Zn299 Zn 0.40846 0.1028 0.25248 0.0
O300 O 0.39867 0.11606 0.23121 0.0
O301 O 0.42335 0.08965 0.22642 0.0
O302 O 0.45641 0.10453 0.25354 0.0
O303 O 0.47301 0.07522 0.25308 0.0
O304 O 0.41896 0.08693 0.27792 0.0
O305 O 0.39651 0.11433 0.27423 0.0
C306 C 0.41068 0.10461 0.22051 0.0
C307 C 0.40592 0.10146 0.28445 0.0
C308 C 0.34768 0.10545 0.53488 0.0
C309 C 0.35103 0.10162 0.47093 0.0
O310 O 0.35838 0.11711 0.52389 0.0
Zn311 Zn 0.34901 0.1033 0.50289 0.0
O312 O 0.33582 0.0901 0.52925 0.0
Zn313 Zn 0.32782 0.07698 0.50391 0.0
O314 O 0.34989 0.05382 0.50543 0.0
O315 O 0.37831 0.07911 0.50428 0.0
O316 O 0.33868 0.08697 0.4777 0.0
O317 O 0.3601 0.11475 0.48097 0.0
O318 O 0.30114 0.10439 0.50216 0.0
O319 O 0.28541 0.07493 0.50321 0.0
C320 C 0.37559 0.06107 0.50514 0.0
C321 C 0.27971 0.09247 0.50238 0.0
C322 C 0.41201 0.64711 0.53479 0.0
C323 C 0.40722 0.65129 0.47091 0.0
O324 O 0.4001 0.63581 0.52391 0.0
Zn325 Zn 0.40976 0.64946 0.50285 0.0
O326 O 0.42449 0.66224 0.52912 0.0
Zn327 Zn 0.43161 0.67558 0.50382 0.0
O328 O 0.40989 0.6989 0.50565 0.0
O329 O 0.38105 0.67383 0.50434 0.0
O330 O 0.42003 0.66579 0.47766 0.0
O331 O 0.39803 0.63819 0.48095 0.0
O332 O 0.45772 0.648 0.50182 0.0
O333 O 0.47394 0.67738 0.50271 0.0
C334 C 0.38406 0.69183 0.50531 0.0
C335 C 0.47935 0.65979 0.50186 0.0
C336 C 0.66124 0.85444 0.28492 0.0
C337 C 0.65775 0.85044 0.22102 0.0
O338 O 0.67323 0.83911 0.27933 0.0
Zn339 Zn 0.68135 0.82598 0.25402 0.0
O340 O 0.6505 0.86607 0.27391 0.0
Zn341 Zn 0.65998 0.85225 0.25295 0.0
O342 O 0.63086 0.82797 0.25436 0.0
O343 O 0.65946 0.80275 0.25559 0.0
O344 O 0.64869 0.8636 0.23102 0.0
O345 O 0.67025 0.83585 0.22782 0.0
O346 O 0.72377 0.82407 0.25331 0.0
O347 O 0.70783 0.85348 0.25218 0.0
C348 C 0.6337 0.80994 0.25526 0.0
C349 C 0.72935 0.84162 0.25242 0.0
C350 C 0.59903 0.3967 0.28491 0.0
C351 C 0.60296 0.40047 0.22102 0.0
O352 O 0.58623 0.41172 0.27922 0.0
Zn353 Zn 0.57843 0.42479 0.25384 0.0
O354 O 0.61081 0.38535 0.27403 0.0
Zn355 Zn 0.60067 0.39881 0.25296 0.0
O356 O 0.629 0.42339 0.25431 0.0
O357 O 0.59974 0.44829 0.25548 0.0
O358 O 0.6124 0.38748 0.23111 0.0
O359 O 0.58999 0.41493 0.22772 0.0
O360 O 0.53606 0.42628 0.25287 0.0
O361 O 0.55274 0.397 0.25208 0.0
C362 C 0.62569 0.44139 0.25519 0.0
C363 C 0.53093 0.40865 0.25212 0.0
C364 C 0.65818 0.39968 0.03446 0.0
C365 C 0.66194 0.39557 0.97054 0.0
O366 O 0.67059 0.41428 0.02763 0.0
Zn367 Zn 0.68172 0.42411 1.00144 0.0
O368 O 0.64923 0.38645 0.02449 0.0
Zn369 Zn 0.66052 0.39778 1.00253 0.0
O370 O 0.70836 0.39667 0.00342 0.0
O371 O 0.72413 0.42612 1.00225 0.0
O372 O 0.65126 0.38391 0.98154 0.0
O373 O 0.67377 0.41094 0.97615 0.0
O374 O 0.65968 0.44728 0.99983 0.0
O375 O 0.63126 0.42198 1.00106 0.0
C376 C 0.72981 0.40858 0.0032 0.0
C377 C 0.63397 0.44002 1.00015 0.0
C378 C 0.60248 0.85111 0.03446 0.0
C379 C 0.59882 0.85536 0.97056 0.0
O380 O 0.59023 0.83648 0.0276 0.0
Zn381 Zn 0.57927 0.82666 1.00138 0.0
O382 O 0.61129 0.8644 0.02453 0.0
Zn383 Zn 0.60018 0.85308 1.00254 0.0
O384 O 0.55232 0.85397 0.00331 0.0
O385 O 0.53689 0.82445 1.00211 0.0
O386 O 0.60935 0.86705 0.9816 0.0
O387 O 0.58714 0.83993 0.97612 0.0
O388 O 0.60156 0.8036 0.99976 0.0
O389 O 0.62971 0.82902 1.00104 0.0
C390 C 0.53101 0.84197 0.00304 0.0
C391 C 0.62719 0.81097 1.00011 0.0
C392 C 0.27986 0.15986 0.75325 0.0
C393 C 0.37539 0.19167 0.75009 0.0
O394 O 0.28537 0.17743 0.75238 0.0
Zn395 Zn 0.3278 0.17558 0.75152 0.0
O396 O 0.30142 0.14803 0.75339 0.0
Zn397 Zn 0.34926 0.14933 0.75245 0.0
O398 O 0.36086 0.13798 0.77434 0.0
O399 O 0.33922 0.16569 0.77766 0.0
O400 O 0.37827 0.17364 0.75093 0.0
O401 O 0.34962 0.19884 0.74992 0.0
O402 O 0.33573 0.16255 0.72615 0.0
O403 O 0.35855 0.13558 0.73139 0.0
C404 C 0.35186 0.15111 0.78439 0.0
C405 C 0.3477 0.14726 0.72045 0.0
C406 C 0.40763 0.60009 0.78413 0.0
C407 C 0.41206 0.60369 0.72026 0.0
O408 O 0.39733 0.61274 0.77397 0.0
Zn409 Zn 0.40972 0.6015 0.7522 0.0
O410 O 0.42115 0.58577 0.77756 0.0
Zn411 Zn 0.43225 0.57562 0.75145 0.0
O412 O 0.47453 0.5741 0.75245 0.0
O413 O 0.45779 0.60338 0.75331 0.0
O414 O 0.42489 0.58872 0.72603 0.0
O415 O 0.39985 0.61494 0.73106 0.0
O416 O 0.3816 0.57694 0.75075 0.0
O417 O 0.41092 0.55209 0.74989 0.0
C418 C 0.47963 0.59172 0.75329 0.0
C419 C 0.38496 0.55896 0.74999 0.0
C420 C 0.3489 0.60386 0.03485 0.0
C421 C 0.35311 0.60065 0.97092 0.0
O422 O 0.35993 0.61557 0.02402 0.0
Zn423 Zn 0.35059 0.60207 0.00284 0.0
O424 O 0.33676 0.58869 0.02902 0.0
Zn425 Zn 0.32872 0.57596 0.00353 0.0
O426 O 0.35029 0.55256 0.00484 0.0
O427 O 0.37923 0.57762 0.00417 0.0
O428 O 0.33989 0.5862 0.97746 0.0
O429 O 0.36284 0.61346 0.9811 0.0
O430 O 0.30266 0.60362 1.00171 0.0
O431 O 0.28637 0.57427 1.00267 0.0
C432 C 0.37615 0.5596 0.00478 0.0
C433 C 0.281 0.59185 1.00179 0.0
C434 C 0.41229 0.14606 0.03464 0.0
C435 C 0.40875 0.15086 0.97077 0.0
O436 O 0.4008 0.13479 0.02358 0.0
Zn437 Zn 0.41063 0.14876 1.00264 0.0
O438 O 0.42468 0.16128 0.02918 0.0
Zn439 Zn 0.43245 0.17484 0.00415 0.0
O440 O 0.41072 0.19814 0.00601 0.0
O441 O 0.38186 0.17311 0.00415 0.0
O442 O 0.42161 0.16527 0.97769 0.0
O443 O 0.39914 0.13776 0.98067 0.0
O444 O 0.4586 0.14733 1.00144 0.0
O445 O 0.47479 0.17667 0.00395 0.0
C446 C 0.38489 0.1911 0.00536 0.0
C447 C 0.48013 0.15916 1.00225 0.0
H448 H 0.17551 0.32558 0.19561 0.0
H449 H 0.16638 0.32741 0.1639 0.0
H450 H 0.12195 0.38082 0.17091 0.0
H451 H 0.13072 0.37907 0.20268 0.0
H452 H 0.09042 0.35493 0.15008 0.0
H453 H 0.20682 0.362 0.12761 0.0
H454 H 0.2004 0.34228 0.14202 0.0
H455 H 0.1958 0.36594 0.15019 0.0
C456 C 0.16398 0.3378 0.19041 0.0
C457 C 0.15391 0.35221 0.20169 0.0
C458 C 0.15891 0.33886 0.17227 0.0
C459 C 0.14383 0.35437 0.16505 0.0
C460 C 0.13377 0.36878 0.17623 0.0
H461 H 0.12974 0.37978 0.05305 0.0
H462 H 0.13848 0.38135 0.08484 0.0
C463 C 0.13885 0.36776 0.19438 0.0
C464 C 0.13757 0.3552 0.14591 0.0
H465 H 0.17071 0.35583 0.10549 0.0
C466 C 0.10794 0.35524 0.14032 0.0
C467 C 0.1605 0.35581 0.13324 0.0
C468 C 0.19268 0.35669 0.13852 0.0
C469 C 0.10062 0.35543 0.12234 0.0
C470 C 0.12356 0.35533 0.10966 0.0
C471 C 0.15318 0.35575 0.11526 0.0
C472 C 0.11732 0.35461 0.09051 0.0
C473 C 0.0684 0.35588 0.11708 0.0
C474 C 0.10267 0.339 0.08317 0.0
C475 C 0.0976 0.33805 0.06503 0.0
C476 C 0.10727 0.35267 0.05386 0.0
C477 C 0.12192 0.36831 0.06127 0.0
C478 C 0.12699 0.36923 0.07943 0.0
H479 H 0.05411 0.36094 0.12802 0.0
H480 H 0.06493 0.36515 0.10545 0.0
H481 H 0.06117 0.34139 0.11353 0.0
H482 H 0.09554 0.32739 0.09146 0.0
H483 H 0.0864 0.32575 0.05975 0.0
H484 H 0.13138 0.87083 0.05331 0.0
H485 H 0.12217 0.86959 0.08506 0.0
H486 H 0.16455 0.92376 0.09141 0.0
H487 H 0.17417 0.92508 0.05974 0.0
H488 H 0.18211 0.89663 0.11645 0.0
H489 H 0.05965 0.90157 0.11098 0.0
H490 H 0.07625 0.88285 0.09839 0.0
H491 H 0.08409 0.90703 0.09286 0.0
C492 C 0.13881 0.88247 0.06146 0.0
C493 C 0.15338 0.89811 0.05397 0.0
C494 C 0.13338 0.88177 0.07958 0.0
C495 C 0.14228 0.89671 0.09051 0.0
C496 C 0.15739 0.91213 0.08316 0.0
H497 H 0.08646 0.92521 0.19595 0.0
H498 H 0.0963 0.92376 0.16432 0.0
C499 C 0.16283 0.91285 0.06506 0.0
C500 C 0.13585 0.89635 0.10964 0.0
H501 H 0.07931 0.89635 0.13949 0.0
C502 C 0.15966 0.89653 0.12152 0.0
C503 C 0.10651 0.89647 0.11615 0.0
C504 C 0.0801 0.89714 0.10397 0.0
C505 C 0.15492 0.89672 0.13979 0.0
C506 C 0.12558 0.89645 0.14631 0.0
C507 C 0.10177 0.89638 0.13443 0.0
C508 C 0.11912 0.89691 0.16543 0.0
C509 C 0.18131 0.89766 0.15197 0.0
C510 C 0.12828 0.88212 0.17647 0.0
C511 C 0.12272 0.88289 0.19458 0.0
C512 C 0.10777 0.89845 0.20194 0.0
C513 C 0.09809 0.91305 0.19074 0.0
C514 C 0.10367 0.91225 0.17265 0.0
H515 H 0.20168 0.90219 0.14493 0.0
H516 H 0.17714 0.9076 0.16302 0.0
H517 H 0.18542 0.88344 0.15764 0.0
H518 H 0.13976 0.86998 0.17109 0.0
H519 H 0.13033 0.87136 0.20281 0.0
H520 H 0.89381 0.63107 0.80206 0.0
H521 H 0.90248 0.63007 0.83382 0.0
H522 H 0.82706 0.66646 0.84214 0.0
H523 H 0.81925 0.66827 0.81029 0.0
H524 H 0.87049 0.67804 0.86129 0.0
H525 H 0.86173 0.60084 0.87114 0.0
H526 H 0.88986 0.60649 0.85536 0.0
H527 H 0.85171 0.61203 0.85064 0.0
C528 C 0.87892 0.63871 0.81068 0.0
C529 C 0.85578 0.64969 0.80371 0.0
C530 C 0.88376 0.63802 0.82887 0.0
C531 C 0.86504 0.64784 0.84047 0.0
C532 C 0.84174 0.65869 0.83349 0.0
H533 H 0.86527 0.63006 0.95399 0.0
H534 H 0.85454 0.62978 0.92242 0.0
C535 C 0.83727 0.6597 0.81529 0.0
C536 C 0.87061 0.64762 0.85978 0.0
H537 H 0.88332 0.61844 0.89482 0.0
C538 C 0.87302 0.66498 0.86864 0.0
C539 C 0.87348 0.63062 0.86948 0.0
C540 C 0.86873 0.61147 0.86119 0.0
C541 C 0.8786 0.66584 0.88681 0.0
C542 C 0.88317 0.64885 0.89631 0.0
C543 C 0.8803 0.63148 0.88752 0.0
C544 C 0.89029 0.64876 0.91544 0.0
C545 C 0.87875 0.68496 0.89564 0.0
C546 C 0.91434 0.65919 0.92203 0.0
C547 C 0.92013 0.65966 0.94012 0.0
C548 C 0.90253 0.64926 0.95191 0.0
C549 C 0.87925 0.6382 0.94523 0.0
C550 C 0.87309 0.63804 0.92718 0.0
H551 H 0.86564 0.69545 0.88803 0.0
H552 H 0.8696 0.68418 0.9092 0.0
H553 H 0.90184 0.69025 0.8964 0.0
H554 H 0.92858 0.66704 0.91321 0.0
H555 H 0.93846 0.66812 0.94488 0.0
H556 H 0.89363 0.11997 0.95328 0.0
H557 H 0.90136 0.12078 0.92146 0.0
H558 H 0.82613 0.084 0.91407 0.0
H559 H 0.81926 0.08237 0.94603 0.0
H560 H 0.86906 0.0727 0.89432 0.0
H561 H 0.85878 0.14982 0.88473 0.0
H562 H 0.88747 0.14443 0.90024 0.0
H563 H 0.84959 0.13854 0.90531 0.0
C564 C 0.87859 0.11218 0.94486 0.0
C565 C 0.85575 0.10118 0.95212 0.0
C566 C 0.88289 0.11277 0.92664 0.0
C567 C 0.8639 0.10283 0.91528 0.0
C568 C 0.84099 0.09188 0.92254 0.0
H569 H 0.86336 0.12127 0.80172 0.0
H570 H 0.85228 0.1212 0.83325 0.0
C571 C 0.83705 0.09097 0.94079 0.0
C572 C 0.86882 0.10311 0.89592 0.0
H573 H 0.88064 0.13249 0.86092 0.0
C574 C 0.87129 0.08579 0.887 0.0
C575 C 0.87125 0.12016 0.88625 0.0
C576 C 0.8663 0.13926 0.89461 0.0
C577 C 0.87666 0.08503 0.8688 0.0
C578 C 0.88094 0.10208 0.85935 0.0
C579 C 0.87787 0.1194 0.86819 0.0
C580 C 0.88814 0.1023 0.84024 0.0
C581 C 0.87697 0.06595 0.8599 0.0
C582 C 0.91235 0.09201 0.83367 0.0
C583 C 0.91835 0.09173 0.8156 0.0
C584 C 0.90079 0.10219 0.80383 0.0
C585 C 0.87732 0.1131 0.81049 0.0
C586 C 0.87095 0.11306 0.82851 0.0
H587 H 0.86392 0.0554 0.86746 0.0
H588 H 0.86786 0.06675 0.84633 0.0
H589 H 0.9001 0.06072 0.85917 0.0
H590 H 0.92659 0.08414 0.84249 0.0
H591 H 0.93681 0.08339 0.81086 0.0
H592 H 0.13212 0.88013 0.70254 0.0
H593 H 0.1226 0.88135 0.67081 0.0
H594 H 0.16492 0.82716 0.66438 0.0
H595 H 0.17481 0.82585 0.69603 0.0
H596 H 0.18221 0.8545 0.63926 0.0
H597 H 0.05985 0.84907 0.64516 0.0
H598 H 0.0765 0.86776 0.65777 0.0
H599 H 0.08457 0.84357 0.66315 0.0
C600 C 0.13949 0.86848 0.69438 0.0
C601 C 0.15409 0.85284 0.70184 0.0
C602 C 0.13388 0.86917 0.67628 0.0
C603 C 0.14267 0.85422 0.66533 0.0
C604 C 0.15784 0.8388 0.67264 0.0
H605 H 0.08611 0.8257 0.55996 0.0
H606 H 0.09621 0.82708 0.59158 0.0
C607 C 0.16344 0.83808 0.69074 0.0
C608 C 0.13602 0.85456 0.64623 0.0
H609 H 0.07914 0.85434 0.61658 0.0
C610 C 0.15969 0.8545 0.63427 0.0
C611 C 0.10661 0.85432 0.63982 0.0
C612 C 0.08036 0.85352 0.6521 0.0
C613 C 0.15474 0.85433 0.61601 0.0
C614 C 0.12532 0.85448 0.6096 0.0
C615 C 0.10165 0.85441 0.62156 0.0
C616 C 0.11866 0.85406 0.5905 0.0
C617 C 0.181 0.85355 0.60374 0.0
C618 C 0.12749 0.86895 0.57948 0.0
C619 C 0.12178 0.86822 0.56139 0.0
C620 C 0.10699 0.8526 0.55401 0.0
C621 C 0.09761 0.83791 0.56518 0.0
C622 C 0.10334 0.83867 0.58326 0.0
H623 H 0.2015 0.84909 0.61069 0.0
H624 H 0.17682 0.84362 0.59268 0.0
H625 H 0.18487 0.8678 0.59809 0.0
H626 H 0.13887 0.88112 0.58488 0.0
H627 H 0.12917 0.87981 0.55318 0.0
H628 H 0.1742 0.42502 0.55966 0.0
H629 H 0.16519 0.42326 0.59138 0.0
H630 H 0.12196 0.36942 0.58461 0.0
H631 H 0.1306 0.3711 0.55283 0.0
H632 H 0.0899 0.39509 0.60534 0.0
H633 H 0.20652 0.38924 0.62779 0.0
H634 H 0.19958 0.40884 0.61333 0.0
H635 H 0.19555 0.38511 0.60523 0.0
C636 C 0.16296 0.41273 0.56491 0.0
C637 C 0.15319 0.39818 0.5537 0.0
C638 C 0.15796 0.41171 0.58306 0.0
C639 C 0.14325 0.3961 0.59035 0.0
C640 C 0.13349 0.38155 0.57923 0.0
H641 H 0.12968 0.37064 0.70233 0.0
H642 H 0.13841 0.36915 0.67054 0.0
C643 C 0.1385 0.38253 0.56108 0.0
C644 C 0.13707 0.39529 0.6095 0.0
H645 H 0.17032 0.39509 0.64991 0.0
C646 C 0.10746 0.39498 0.6151 0.0
C647 C 0.16004 0.39494 0.62217 0.0
C648 C 0.19222 0.39437 0.61688 0.0
C649 C 0.10019 0.39478 0.63308 0.0
C650 C 0.12315 0.39512 0.64575 0.0
C651 C 0.15276 0.39498 0.64015 0.0
C652 C 0.11694 0.3958 0.6649 0.0
C653 C 0.068 0.39403 0.63836 0.0
C654 C 0.10211 0.41134 0.67224 0.0
C655 C 0.09706 0.41224 0.69039 0.0
C656 C 0.10691 0.39765 0.70154 0.0
C657 C 0.12172 0.38208 0.69412 0.0
C658 C 0.12679 0.38121 0.67596 0.0
H659 H 0.05376 0.38891 0.62741 0.0
H660 H 0.06478 0.38467 0.64995 0.0
H661 H 0.06049 0.40845 0.64199 0.0
H662 H 0.09482 0.42291 0.66396 0.0
H663 H 0.08572 0.42448 0.69567 0.0
H664 H 0.83439 0.17619 0.30974 0.0
H665 H 0.84402 0.1747 0.34142 0.0
H666 H 0.8867 0.12065 0.33481 0.0
H667 H 0.87747 0.12207 0.30306 0.0
H668 H 0.82666 0.14732 0.36634 0.0
H669 H 0.94906 0.15268 0.36089 0.0
H670 H 0.92454 0.15822 0.34282 0.0
H671 H 0.93259 0.13402 0.34817 0.0
C672 C 0.84579 0.16395 0.315 0.0
C673 C 0.85533 0.1493 0.30385 0.0
C674 C 0.85124 0.16313 0.33311 0.0
C675 C 0.86644 0.1477 0.34039 0.0
C676 C 0.87541 0.13284 0.32938 0.0
H677 H 0.87886 0.12126 0.45244 0.0
H678 H 0.86939 0.12021 0.42071 0.0
C679 C 0.86996 0.13364 0.31126 0.0
C680 C 0.87291 0.14724 0.35952 0.0
H681 H 0.92951 0.14713 0.38937 0.0
C682 C 0.84912 0.14725 0.3714 0.0
C683 C 0.90226 0.14739 0.36603 0.0
C684 C 0.92863 0.14824 0.35385 0.0
C685 C 0.8539 0.14727 0.38968 0.0
C686 C 0.88325 0.14702 0.39619 0.0
C687 C 0.90704 0.14714 0.38431 0.0
C688 C 0.88975 0.14728 0.41532 0.0
C689 C 0.82753 0.14801 0.40187 0.0
C690 C 0.90507 0.16259 0.4227 0.0
C691 C 0.91066 0.1632 0.4408 0.0
C692 C 0.90115 0.14844 0.45185 0.0
C693 C 0.88635 0.13291 0.44433 0.0
C694 C 0.88077 0.13232 0.42621 0.0
H695 H 0.80711 0.15254 0.39487 0.0
H696 H 0.82356 0.13372 0.40742 0.0
H697 H 0.83164 0.15785 0.413 0.0
H698 H 0.9123 0.17423 0.41448 0.0
H699 H 0.92218 0.17535 0.44613 0.0
H700 H 0.92268 0.57583 0.3095 0.0
H701 H 0.9129 0.57675 0.34116 0.0
H702 H 0.87039 0.63096 0.33528 0.0
H703 H 0.87977 0.6301 0.30353 0.0
H704 H 0.9304 0.60356 0.36644 0.0
H705 H 0.80794 0.59875 0.36099 0.0
H706 H 0.83235 0.59348 0.3428 0.0
H707 H 0.8245 0.61759 0.34855 0.0
C708 C 0.91127 0.58797 0.31492 0.0
C709 C 0.90185 0.60285 0.30396 0.0
C710 C 0.90573 0.58847 0.33302 0.0
C711 C 0.89055 0.60379 0.3405 0.0
C712 C 0.88166 0.61885 0.3297 0.0
H713 H 0.87903 0.62882 0.45275 0.0
H714 H 0.88824 0.63011 0.42101 0.0
C715 C 0.88719 0.61837 0.31158 0.0
C716 C 0.88413 0.60394 0.35964 0.0
H717 H 0.82764 0.6038 0.38953 0.0
C718 C 0.90795 0.60364 0.37151 0.0
C719 C 0.8548 0.6038 0.36617 0.0
C720 C 0.82837 0.60325 0.354 0.0
C721 C 0.90324 0.60334 0.38979 0.0
C722 C 0.87391 0.60362 0.39633 0.0
C723 C 0.85009 0.60377 0.38445 0.0
C724 C 0.86751 0.6032 0.41546 0.0
C725 C 0.92965 0.6023 0.40194 0.0
C726 C 0.85206 0.58789 0.42276 0.0
C727 C 0.84662 0.58714 0.44088 0.0
C728 C 0.85642 0.60176 0.45201 0.0
C729 C 0.87133 0.61728 0.44457 0.0
C730 C 0.87676 0.61801 0.42645 0.0
H731 H 0.94997 0.59771 0.39488 0.0
H732 H 0.93388 0.6165 0.40761 0.0
H733 H 0.92544 0.59236 0.41299 0.0
H734 H 0.84462 0.57637 0.41447 0.0
H735 H 0.83501 0.57501 0.44616 0.0
H736 H 0.58504 0.32623 0.55987 0.0
H737 H 0.59413 0.32809 0.59158 0.0
H738 H 0.63884 0.38139 0.5845 0.0
H739 H 0.63014 0.3796 0.55272 0.0
H740 H 0.6702 0.35568 0.60539 0.0
H741 H 0.55378 0.36261 0.62781 0.0
H742 H 0.56019 0.34282 0.61349 0.0
H743 H 0.56477 0.36645 0.60522 0.0
C744 C 0.59663 0.33843 0.56505 0.0
C745 C 0.6068 0.3528 0.55376 0.0
C746 C 0.60166 0.33951 0.58319 0.0
C747 C 0.61681 0.355 0.5904 0.0
C748 C 0.62698 0.36937 0.57919 0.0
H749 H 0.63077 0.38005 0.70251 0.0
H750 H 0.62201 0.38178 0.67072 0.0
C751 C 0.62194 0.36832 0.56104 0.0
C752 C 0.62304 0.35585 0.60954 0.0
H753 H 0.58986 0.35631 0.64995 0.0
C754 C 0.65266 0.35593 0.61514 0.0
C755 C 0.6001 0.3564 0.62221 0.0
C756 C 0.56791 0.35725 0.61693 0.0
C757 C 0.65997 0.35609 0.63312 0.0
C758 C 0.63702 0.3559 0.64579 0.0
C759 C 0.6074 0.35629 0.64019 0.0
C760 C 0.64324 0.35508 0.66494 0.0
C761 C 0.69217 0.35659 0.6384 0.0
C762 C 0.65794 0.33945 0.67221 0.0
C763 C 0.66301 0.33841 0.69035 0.0
C764 C 0.65331 0.35296 0.70158 0.0
C765 C 0.63861 0.36863 0.69423 0.0
C766 C 0.63353 0.36963 0.67608 0.0
H767 H 0.70645 0.36173 0.62748 0.0
H768 H 0.69559 0.36582 0.65006 0.0
H769 H 0.69949 0.3421 0.6419 0.0
H770 H 0.6651 0.32789 0.66387 0.0
H771 H 0.67425 0.3261 0.69557 0.0
H772 H 0.64635 0.87888 0.70375 0.0
H773 H 0.65687 0.87869 0.67214 0.0
H774 H 0.58225 0.91556 0.6631 0.0
H775 H 0.5726 0.91656 0.69479 0.0
H776 H 0.62807 0.86729 0.64452 0.0
H777 H 0.64472 0.94441 0.63798 0.0
H778 H 0.64105 0.93303 0.65912 0.0
H779 H 0.60865 0.93903 0.64641 0.0
C780 C 0.6322 0.88694 0.695 0.0
C781 C 0.60884 0.89789 0.70173 0.0
C782 C 0.63824 0.88684 0.67694 0.0
C783 C 0.62082 0.89749 0.66525 0.0
C784 C 0.59667 0.90777 0.6719 0.0
H785 H 0.61589 0.88026 0.5519 0.0
H786 H 0.60778 0.87909 0.58371 0.0
C787 C 0.591 0.9082 0.68999 0.0
C788 C 0.62781 0.89769 0.64612 0.0
H789 H 0.63963 0.92711 0.61117 0.0
C790 C 0.63082 0.88038 0.63725 0.0
C791 C 0.63205 0.91475 0.63667 0.0
C792 C 0.63178 0.93383 0.64558 0.0
C793 C 0.6374 0.87963 0.61919 0.0
C794 C 0.63988 0.8967 0.60954 0.0
C795 C 0.63738 0.91401 0.61848 0.0
C796 C 0.64509 0.89704 0.5902 0.0
C797 C 0.64229 0.86055 0.61079 0.0
C798 C 0.6681 0.90805 0.58314 0.0
C799 C 0.67224 0.90917 0.56492 0.0
C800 C 0.65367 0.89909 0.55342 0.0
C801 C 0.63081 0.88796 0.56047 0.0
C802 C 0.6263 0.88716 0.57867 0.0
H803 H 0.64962 0.84993 0.62067 0.0
H804 H 0.62113 0.85547 0.60506 0.0
H805 H 0.65912 0.86126 0.60016 0.0
H806 H 0.68284 0.91586 0.59174 0.0
H807 H 0.69006 0.91785 0.55985 0.0
H808 H 0.33638 0.67678 0.30898 0.0
H809 H 0.34613 0.67591 0.34066 0.0
H810 H 0.38731 0.62126 0.33505 0.0
H811 H 0.37798 0.62206 0.3033 0.0
H812 H 0.32804 0.6495 0.36608 0.0
H813 H 0.45059 0.65282 0.36062 0.0
H814 H 0.42632 0.65823 0.3424 0.0
H815 H 0.43356 0.63407 0.34829 0.0
C816 C 0.34748 0.66455 0.31446 0.0
C817 C 0.35656 0.64953 0.30358 0.0
C818 C 0.35301 0.66408 0.33258 0.0
C819 C 0.36783 0.64865 0.34014 0.0
C820 C 0.37635 0.63346 0.32941 0.0
H821 H 0.3791 0.62337 0.45234 0.0
H822 H 0.36964 0.62229 0.42061 0.0
C823 C 0.37084 0.6339 0.31128 0.0
C824 C 0.37428 0.64851 0.35928 0.0
H825 H 0.43081 0.64792 0.38918 0.0
C826 C 0.35049 0.64914 0.37115 0.0
C827 C 0.40362 0.64828 0.36582 0.0
C828 C 0.43004 0.64848 0.35365 0.0
C829 C 0.35524 0.64937 0.38943 0.0
C830 C 0.38456 0.6487 0.39597 0.0
C831 C 0.40836 0.64825 0.3841 0.0
C832 C 0.39101 0.64901 0.4151 0.0
C833 C 0.3289 0.65075 0.40159 0.0
C834 C 0.40687 0.66413 0.42242 0.0
C835 C 0.41244 0.66477 0.44052 0.0
C836 C 0.40238 0.6502 0.45164 0.0
C837 C 0.38703 0.63486 0.44418 0.0
C838 C 0.38146 0.63426 0.42606 0.0
H839 H 0.3087 0.65555 0.39453 0.0
H840 H 0.32429 0.63661 0.4073 0.0
H841 H 0.33343 0.66066 0.41261 0.0
H842 H 0.41456 0.67561 0.41415 0.0
H843 H 0.42439 0.67676 0.44581 0.0
H844 H 0.37676 0.1304 0.45231 0.0
H845 H 0.38513 0.13205 0.4205 0.0
H846 H 0.3442 0.07742 0.4141 0.0
H847 H 0.33541 0.07572 0.44584 0.0
H848 H 0.41814 0.10722 0.39985 0.0
H849 H 0.30123 0.11003 0.37751 0.0
H850 H 0.31196 0.11441 0.40006 0.0
H851 H 0.30927 0.0906 0.39196 0.0
C852 C 0.36931 0.11879 0.44414 0.0
C853 C 0.35531 0.10295 0.45162 0.0
C854 C 0.37416 0.11976 0.42597 0.0
C855 C 0.36495 0.10498 0.41493 0.0
C856 C 0.35096 0.08915 0.42234 0.0
H857 H 0.42403 0.0767 0.30996 0.0
H858 H 0.41477 0.07851 0.34164 0.0
C859 C 0.34609 0.08817 0.44051 0.0
C860 C 0.37101 0.10577 0.39576 0.0
H861 H 0.33766 0.10464 0.35539 0.0
C862 C 0.40056 0.10677 0.39012 0.0
C863 C 0.348 0.10539 0.38312 0.0
C864 C 0.31581 0.10523 0.38842 0.0
C865 C 0.40776 0.10695 0.37213 0.0
C866 C 0.3848 0.10585 0.35949 0.0
C867 C 0.35522 0.10532 0.36513 0.0
C868 C 0.39101 0.10503 0.34034 0.0
C869 C 0.43985 0.10846 0.3668 0.0
C870 C 0.38031 0.1192 0.32908 0.0
C871 C 0.38547 0.11819 0.31094 0.0
C872 C 0.40126 0.1029 0.30372 0.0
C873 C 0.41193 0.08872 0.31507 0.0
C874 C 0.40679 0.08977 0.3332 0.0
H875 H 0.45378 0.11411 0.37766 0.0
H876 H 0.44828 0.09421 0.36334 0.0
H877 H 0.44245 0.11773 0.35509 0.0
H878 H 0.36795 0.13105 0.33435 0.0
H879 H 0.37686 0.12931 0.30258 0.0
H880 H 0.63086 0.87878 0.20235 0.0
H881 H 0.62153 0.87993 0.17061 0.0
H882 H 0.66435 0.82588 0.16433 0.0
H883 H 0.67407 0.82465 0.19601 0.0
H884 H 0.68162 0.85318 0.13924 0.0
H885 H 0.55925 0.8476 0.14474 0.0
H886 H 0.57562 0.86635 0.15739 0.0
H887 H 0.58381 0.84219 0.16283 0.0
C888 C 0.63837 0.86715 0.19423 0.0
C889 C 0.65308 0.85157 0.20174 0.0
C890 C 0.63287 0.86779 0.17611 0.0
C891 C 0.64185 0.85285 0.1652 0.0
C892 C 0.65711 0.8375 0.17257 0.0
H893 H 0.58643 0.8251 0.05933 0.0
H894 H 0.59623 0.82611 0.091 0.0
C895 C 0.66262 0.83683 0.19067 0.0
C896 C 0.63537 0.85319 0.14607 0.0
H897 H 0.57875 0.85316 0.11624 0.0
C898 C 0.65915 0.85319 0.13419 0.0
C899 C 0.60601 0.85298 0.13957 0.0
C900 C 0.57965 0.85211 0.15175 0.0
C901 C 0.65436 0.85315 0.11591 0.0
C902 C 0.625 0.85335 0.10941 0.0
C903 C 0.60122 0.85319 0.1213 0.0
C904 C 0.61851 0.85315 0.09028 0.0
C905 C 0.68072 0.85246 0.10372 0.0
C906 C 0.62735 0.8682 0.07946 0.0
C907 C 0.6218 0.86769 0.06134 0.0
C908 C 0.60718 0.85213 0.05375 0.0
C909 C 0.5978 0.83727 0.06473 0.0
C910 C 0.60335 0.83781 0.08283 0.0
H911 H 0.70117 0.84796 0.1107 0.0
H912 H 0.67664 0.84261 0.09258 0.0
H913 H 0.68462 0.86675 0.09816 0.0
H914 H 0.63861 0.88033 0.08503 0.0
H915 H 0.62919 0.87941 0.05328 0.0
H916 H 0.63156 0.37133 0.05325 0.0
H917 H 0.6222 0.37034 0.085 0.0
H918 H 0.66437 0.42463 0.09102 0.0
H919 H 0.67413 0.42569 0.05936 0.0
H920 H 0.68198 0.39775 0.11625 0.0
H921 H 0.55951 0.40237 0.11071 0.0
H922 H 0.57619 0.3836 0.09823 0.0
H923 H 0.58394 0.40775 0.09256 0.0
C924 C 0.63891 0.38305 0.06132 0.0
C925 C 0.65346 0.39864 0.05375 0.0
C926 C 0.63339 0.3825 0.07944 0.0
C927 C 0.64219 0.39754 0.09028 0.0
C928 C 0.65728 0.41292 0.08284 0.0
H929 H 0.58617 0.42599 0.19586 0.0
H930 H 0.59592 0.42467 0.1642 0.0
C931 C 0.66281 0.41349 0.06474 0.0
C932 C 0.63573 0.39731 0.10941 0.0
H933 H 0.57916 0.39726 0.13925 0.0
C934 C 0.65952 0.39761 0.1213 0.0
C935 C 0.60638 0.39738 0.11592 0.0
C936 C 0.57998 0.39793 0.10373 0.0
C937 C 0.65476 0.39785 0.13958 0.0
C938 C 0.62542 0.3975 0.14609 0.0
C939 C 0.60162 0.39734 0.1342 0.0
C940 C 0.61896 0.39789 0.16521 0.0
C941 C 0.68114 0.39889 0.15176 0.0
C942 C 0.62825 0.38309 0.17621 0.0
C943 C 0.62274 0.38379 0.19432 0.0
C944 C 0.6077 0.39928 0.20174 0.0
C945 C 0.59787 0.41388 0.1906 0.0
C946 C 0.6034 0.41316 0.1725 0.0
H947 H 0.70146 0.40352 0.14472 0.0
H948 H 0.67687 0.4088 0.16281 0.0
H949 H 0.68541 0.38469 0.15741 0.0
H950 H 0.63982 0.37101 0.17078 0.0
H951 H 0.63047 0.37226 0.20251 0.0
H952 H 0.3796 0.12298 0.80289 0.0
H953 H 0.38886 0.12166 0.83464 0.0
H954 H 0.34504 0.17535 0.8412 0.0
H955 H 0.33541 0.17674 0.80954 0.0
H956 H 0.42086 0.1477 0.85513 0.0
H957 H 0.30453 0.14139 0.87794 0.0
H958 H 0.31534 0.13715 0.85538 0.0
H959 H 0.31108 0.16092 0.86333 0.0
C960 C 0.37171 0.13445 0.81109 0.0
C961 C 0.35666 0.14993 0.80367 0.0
C962 C 0.37708 0.13368 0.82922 0.0
C963 C 0.36733 0.14829 0.84028 0.0
C964 C 0.35228 0.16376 0.83294 0.0
H965 H 0.42569 0.17661 0.9458 0.0
H966 H 0.41655 0.17533 0.91405 0.0
C967 C 0.34692 0.16456 0.81482 0.0
C968 C 0.37373 0.14767 0.85941 0.0
H969 H 0.34087 0.14747 0.89991 0.0
C970 C 0.4034 0.14755 0.86494 0.0
C971 C 0.35089 0.14728 0.87215 0.0
C972 C 0.31866 0.14651 0.86695 0.0
C973 C 0.41085 0.14745 0.8829 0.0
C974 C 0.388 0.14771 0.89563 0.0
C975 C 0.35834 0.14743 0.8901 0.0
C976 C 0.39434 0.14824 0.91478 0.0
C977 C 0.44308 0.14685 0.8881 0.0
C978 C 0.38448 0.13358 0.92574 0.0
C979 C 0.38954 0.13429 0.94389 0.0
C980 C 0.40441 0.14977 0.95145 0.0
C981 C 0.41432 0.16443 0.94041 0.0
C982 C 0.40925 0.16369 0.92224 0.0
H983 H 0.45729 0.14183 0.8771 0.0
H984 H 0.45045 0.16129 0.89175 0.0
H985 H 0.44653 0.13747 0.89966 0.0
H986 H 0.37281 0.12157 0.92023 0.0
H987 H 0.38154 0.12278 0.95201 0.0
H988 H 0.36527 0.62006 0.80175 0.0
H989 H 0.35673 0.62105 0.83352 0.0
H990 H 0.43247 0.58491 0.84181 0.0
H991 H 0.44015 0.58309 0.80996 0.0
H992 H 0.38924 0.57322 0.86102 0.0
H993 H 0.3975 0.65046 0.87074 0.0
H994 H 0.36931 0.64469 0.85503 0.0
H995 H 0.40747 0.63927 0.85025 0.0
C996 C 0.38025 0.61246 0.81037 0.0
C997 C 0.40344 0.60155 0.80339 0.0
C998 C 0.37548 0.61316 0.82856 0.0
C999 C 0.39433 0.60341 0.84015 0.0
C1000 C 0.41767 0.59262 0.83317 0.0
H1001 H 0.39522 0.62121 0.95368 0.0
H1002 H 0.40558 0.62154 0.92206 0.0
C1003 C 0.42207 0.5916 0.81496 0.0
C1004 C 0.38889 0.60363 0.85947 0.0
H1005 H 0.37639 0.63281 0.89453 0.0
C1006 C 0.38669 0.58628 0.86836 0.0
C1007 C 0.38601 0.62064 0.86916 0.0
C1008 C 0.39052 0.6398 0.86083 0.0
C1009 C 0.38133 0.58542 0.88655 0.0
C1010 C 0.37676 0.60241 0.89605 0.0
C1011 C 0.37941 0.61978 0.88723 0.0
C1012 C 0.36985 0.60249 0.9152 0.0
C1013 C 0.38141 0.56631 0.89541 0.0
C1014 C 0.34595 0.592 0.92188 0.0
C1015 C 0.34037 0.59149 0.93999 0.0
C1016 C 0.35806 0.60192 0.95171 0.0
C1017 C 0.38119 0.61305 0.94496 0.0
C1018 C 0.38713 0.61324 0.92689 0.0
H1019 H 0.3945 0.55584 0.88776 0.0
H1020 H 0.39072 0.56713 0.90893 0.0
H1021 H 0.35837 0.56095 0.89626 0.0
H1022 H 0.33164 0.58412 0.9131 0.0
H1023 H 0.32214 0.58299 0.9448 0.0
H1024 H 0.9331 0.1806 0.25187 0.0
H1025 H 0.97691 0.20087 0.25282 0.0
H1026 H 0.92122 0.2503 0.25038 0.0
H1027 H 0.87721 0.23017 0.24964 0.0
H1028 H 0.99612 0.22801 0.22842 0.0
H1029 H 0.9733 0.26037 0.29368 0.0
H1030 H 0.95442 0.23944 0.28601 0.0
H1031 H 0.9435 0.26235 0.27811 0.0
C1032 C 0.93011 0.19578 0.25155 0.0
C1033 C 0.9016 0.20376 0.25078 0.0
C1034 C 0.9552 0.20734 0.25208 0.0
C1035 C 0.95229 0.22708 0.25195 0.0
C1036 C 0.92393 0.2351 0.25086 0.0
H1037 H 0.07615 0.32067 0.25382 0.0
H1038 H 0.03238 0.30036 0.25294 0.0
C1039 C 0.8988 0.22356 0.25033 0.0
C1040 C 0.979 0.23924 0.25272 0.0
H1041 H 0.01328 0.27321 0.27735 0.0
C1042 C 0.99996 0.23784 0.23914 0.0
C1043 C 0.98391 0.25205 0.26674 0.0
C1044 C 0.96276 0.25358 0.28206 0.0
C1045 C 0.02549 0.24917 0.23903 0.0
C1046 C 0.0304 0.26198 0.25304 0.0
C1047 C 0.00944 0.26337 0.26663 0.0
C1048 C 0.05707 0.27417 0.25379 0.0
C1049 C 0.04665 0.24763 0.22371 0.0
C1050 C 0.08546 0.26618 0.25487 0.0
C1051 C 0.11056 0.27775 0.25536 0.0
C1052 C 0.10771 0.29755 0.2549 0.0
C1053 C 0.07917 0.30549 0.25416 0.0
C1054 C 0.05411 0.29391 0.25366 0.0
H1055 H 0.03611 0.24083 0.21209 0.0
H1056 H 0.05497 0.26177 0.21975 0.0
H1057 H 0.06592 0.23887 0.22767 0.0
H1058 H 0.08821 0.25098 0.25536 0.0
H1059 H 0.13217 0.27116 0.25603 0.0
H1060 H 0.18385 0.93004 0.25506 0.0
H1061 H 0.22745 0.95049 0.25461 0.0
H1062 H 0.17112 0.99969 0.25531 0.0
H1063 H 0.12732 0.97936 0.25598 0.0
H1064 H 0.24246 0.97749 0.22928 0.0
H1065 H 0.2297 0.01031 0.2953 0.0
H1066 H 0.20977 0.9893 0.28883 0.0
H1067 H 0.19757 0.01216 0.28145 0.0
C1068 C 0.18068 0.94521 0.25525 0.0
C1069 C 0.15205 0.95306 0.25563 0.0
C1070 C 0.20565 0.95687 0.25497 0.0
C1071 C 0.20253 0.97659 0.25515 0.0
C1072 C 0.17403 0.9845 0.25551 0.0
H1073 H 0.32504 0.07077 0.25077 0.0
H1074 H 0.28152 0.05024 0.25126 0.0
C1075 C 0.14902 0.97285 0.25581 0.0
C1076 C 0.22912 0.98886 0.25437 0.0
H1077 H 0.26667 0.02325 0.27667 0.0
C1078 C 0.24786 0.98744 0.23967 0.0
C1079 C 0.23605 0.00184 0.26794 0.0
C1080 C 0.21739 0.00343 0.28436 0.0
C1081 C 0.27309 0.99889 0.23802 0.0
C1082 C 0.28001 0.01188 0.25158 0.0
C1083 C 0.26128 0.01329 0.26628 0.0
C1084 C 0.30655 0.02418 0.25078 0.0
C1085 C 0.29175 0.9973 0.2216 0.0
C1086 C 0.33508 0.01633 0.25045 0.0
C1087 C 0.36005 0.02802 0.25013 0.0
C1088 C 0.35693 0.0478 0.25026 0.0
C1089 C 0.32827 0.0556 0.25061 0.0
C1090 C 0.30335 0.0439 0.25092 0.0
H1091 H 0.27949 0.99037 0.21067 0.0
H1092 H 0.2993 0.01143 0.2171 0.0
H1093 H 0.31163 0.98862 0.22452 0.0
H1094 H 0.33806 0.00114 0.25068 0.0
H1095 H 0.38178 0.02155 0.24997 0.0
H1096 H 0.13192 0.9787 0.99962 0.0
H1097 H 0.08796 0.99888 1.00076 0.0
H1098 H 0.03216 0.94949 1.0026 0.0
H1099 H 0.07591 0.92918 1.00167 0.0
H1100 H 0.0392 1.00034 0.97763 0.0
H1101 H 1.00461 0.98039 0.04534 0.0
H1102 H 0.04101 0.97521 0.03678 0.0
H1103 H 0.00992 0.96077 0.03066 0.0
C1104 C 0.11031 0.97211 1.00027 0.0
C1105 C 0.10746 0.95231 1.00065 0.0
C1106 C 0.08522 0.98367 1.00092 0.0
C1107 C 0.05685 0.97568 1.00206 0.0
C1108 C 0.05388 0.95594 1.00209 0.0
H1109 H 0.87849 0.02119 0.00719 0.0
H1110 H 0.92236 0.00091 0.00603 0.0
C1111 C 0.07893 0.94436 1.00145 0.0
C1112 C 0.03035 0.98799 0.00301 0.0
H1113 H 0.97117 0.99934 0.02894 0.0
C1114 C 0.02438 1.0002 0.98887 0.0
C1115 C 0.01105 0.98773 0.01769 0.0
C1116 C 0.01702 0.97546 0.03356 0.0
C1117 C 0.9993 0.01194 0.98887 0.0
C1118 C 0.98002 0.01169 0.00356 0.0
C1119 C 0.98598 0.99948 0.0177 0.0
C1120 C 0.95356 0.02405 0.00453 0.0
C1121 C 0.99333 0.02419 0.97298 0.0
C1122 C 0.95662 0.04378 0.0044 0.0
C1123 C 0.93162 0.05541 0.00505 0.0
C1124 C 0.90307 0.04752 0.00595 0.0
C1125 C 0.90013 0.02773 0.00645 0.0
C1126 C 0.92517 0.01611 0.00579 0.0
H1127 H 0.00562 0.01918 0.96119 0.0
H1128 H 0.96933 0.02452 0.96982 0.0
H1129 H 1.0006 0.03886 0.97584 0.0
H1130 H 0.97836 0.0502 0.00382 0.0
H1131 H 0.93472 0.07059 0.00475 0.0
H1132 H 0.32671 0.18054 0.00373 0.0
H1133 H 0.28316 0.20105 0.00279 0.0
H1134 H 0.33938 0.25014 0.00644 0.0
H1135 H 0.38314 0.22977 0.0072 0.0
H1136 H 0.26379 0.22796 0.02748 0.0
H1137 H 0.28844 0.26109 0.96276 0.0
H1138 H 0.30683 0.23992 0.97031 0.0
H1139 H 0.3179 0.26263 0.97861 0.0
C1140 C 0.32986 0.1957 0.00434 0.0
C1141 C 0.35845 0.20351 0.00545 0.0
C1142 C 0.30493 0.20739 0.0038 0.0
C1143 C 0.30808 0.22711 0.00426 0.0
C1144 C 0.33651 0.23496 0.00571 0.0
H1145 H 0.18489 0.32111 1.00215 0.0
H1146 H 0.22853 0.3007 0.00321 0.0
C1147 C 0.36148 0.22329 0.00625 0.0
C1148 C 0.28155 0.23941 0.00342 0.0
H1149 H 0.24809 0.27377 0.97884 0.0
C1150 C 0.26027 0.23793 0.01682 0.0
C1151 C 0.27707 0.2524 0.9895 0.0
C1152 C 0.2986 0.25405 0.97438 0.0
C1153 C 0.23482 0.24934 0.01684 0.0
C1154 C 0.23032 0.26232 0.0029 0.0
C1155 C 0.25162 0.26381 0.98951 0.0
C1156 C 0.20373 0.27458 1.00203 0.0
C1157 C 0.21332 0.2477 0.03198 0.0
C1158 C 0.17533 0.26665 1.00071 0.0
C1159 C 0.1503 0.27828 1.00012 0.0
C1160 C 0.15324 0.29806 1.00072 0.0
C1161 C 0.1818 0.30594 1.0017 0.0
C1162 C 0.20679 0.2943 1.0023 0.0
H1163 H 0.22359 0.2408 0.04363 0.0
H1164 H 0.20494 0.26182 0.03597 0.0
H1165 H 0.19413 0.23899 0.02781 0.0
H1166 H 0.17251 0.25147 1.0001 0.0
H1167 H 0.12866 0.27174 0.99926 0.0
H1168 H 0.93314 0.68207 0.75153 0.0
H1169 H 0.97654 0.70264 0.75247 0.0
H1170 H 0.91994 0.7517 0.75113 0.0
H1171 H 0.87627 0.73122 0.74999 0.0
H1172 H 0.96854 0.7536 0.72785 0.0
H1173 H 1.00406 0.73338 0.79531 0.0
H1174 H 0.99879 0.71376 0.78063 0.0
H1175 H 0.96763 0.7281 0.78683 0.0
C1176 C 0.92985 0.69723 0.75143 0.0
C1177 C 0.90118 0.70499 0.75077 0.0
C1178 C 0.95471 0.70896 0.75208 0.0
C1179 C 0.95142 0.72868 0.75219 0.0
C1180 C 0.92292 0.7365 0.75118 0.0
H1181 H 0.07578 0.82279 0.7544 0.0
H1182 H 0.0314 0.80303 0.75375 0.0
C1183 C 0.898 0.72477 0.75053 0.0
C1184 C 0.9778 0.74111 0.75312 0.0
H1185 H 0.03764 0.75205 0.77869 0.0
C1186 C 0.98357 0.75337 0.739 0.0
C1187 C 0.99736 0.74073 0.76769 0.0
C1188 C 0.99159 0.72842 0.78356 0.0
C1189 C 0.00879 0.76498 0.73887 0.0
C1190 C 0.02844 0.76453 0.7534 0.0
C1191 C 0.02257 0.75233 0.76756 0.0
C1192 C 0.05531 0.77653 0.75412 0.0
C1193 C 0.0146 0.77726 0.72298 0.0
C1194 C 0.08345 0.76819 0.75507 0.0
C1195 C 0.10889 0.77944 0.75556 0.0
C1196 C 0.10664 0.79927 0.75521 0.0
C1197 C 0.07834 0.80757 0.75459 0.0
C1198 C 0.05293 0.7963 0.7541 0.0
H1199 H 1.00175 0.77251 0.71131 0.0
H1200 H 0.00792 0.792 0.72601 0.0
H1201 H 0.03849 0.7773 0.71955 0.0
H1202 H 0.08574 0.75295 0.75521 0.0
H1203 H 0.13032 0.77258 0.75607 0.0
H1204 H 0.62842 0.979 0.7551 0.0
H1205 H 0.6723 0.9993 0.7541 0.0
H1206 H 0.72846 0.95002 0.75373 0.0
H1207 H 0.68485 0.92962 0.75453 0.0
H1208 H 0.72036 0.00132 0.77773 0.0
H1209 H 0.75716 0.98012 0.71078 0.0
H1210 H 0.72053 0.97503 0.71903 0.0
H1211 H 0.7515 0.96076 0.72571 0.0
C1212 C 0.6501 0.97247 0.75481 0.0
C1213 C 0.6531 0.95268 0.75479 0.0
C1214 C 0.67514 0.98409 0.75424 0.0
C1215 C 0.70359 0.97615 0.75354 0.0
C1216 C 0.70668 0.95643 0.75388 0.0
H1217 H 0.88208 0.02166 0.74994 0.0
H1218 H 0.83821 0.00135 0.75087 0.0
C1219 C 0.6817 0.9448 0.75445 0.0
C1220 C 0.73006 0.9885 0.75267 0.0
H1221 H 0.79014 0.99932 0.72728 0.0
C1222 C 0.73556 0.00096 0.76667 0.0
C1223 C 0.74986 0.98795 0.73823 0.0
C1224 C 0.74442 0.97538 0.7225 0.0
C1225 C 0.76065 0.01268 0.76678 0.0
C1226 C 0.78044 0.01214 0.75234 0.0
C1227 C 0.77494 0.99967 0.73833 0.0
C1228 C 0.80691 0.02449 0.75147 0.0
C1229 C 0.76609 0.02524 0.78252 0.0
C1230 C 0.8038 0.04421 0.75115 0.0
C1231 C 0.82878 0.05585 0.75063 0.0
C1232 C 0.85739 0.04798 0.7503 0.0
C1233 C 0.8604 0.02819 0.75023 0.0
C1234 C 0.83537 0.01656 0.75076 0.0
H1235 H 0.75336 0.02049 0.79424 0.0
H1236 H 0.78998 0.0256 0.78598 0.0
H1237 H 0.75899 0.03986 0.77932 0.0
H1238 H 0.78202 0.05062 0.75131 0.0
H1239 H 0.82562 0.07103 0.75059 0.0
H1240 H 0.63001 0.77231 0.99917 0.0
H1241 H 0.67435 0.75246 1.00016 0.0
H1242 H 0.72926 0.80228 1.00153 0.0
H1243 H 0.68511 0.82226 1.00077 0.0
H1244 H 0.72254 0.75114 0.97686 0.0
H1245 H 0.75831 0.7719 0.04416 0.0
H1246 H 0.72169 0.77686 0.0358 0.0
H1247 H 0.75252 0.79135 0.02934 0.0
C1248 C 0.6515 0.77906 0.99969 0.0
C1249 C 0.65399 0.79888 1.0 0.0
C1250 C 0.67681 0.76769 1.00025 0.0
C1251 C 0.70505 0.7759 1.00122 0.0
C1252 C 0.70765 0.79566 1.00117 0.0
H1253 H 0.88376 0.73033 0.00556 0.0
H1254 H 0.84006 0.75079 0.0044 0.0
C1255 C 0.68237 0.80705 1.00062 0.0
C1256 C 0.73178 0.76377 1.00207 0.0
H1257 H 0.79151 0.75284 0.02775 0.0
C1258 C 0.73758 0.75145 0.98801 0.0
C1259 C 0.75137 0.76425 0.01663 0.0
C1260 C 0.74562 0.77666 0.03243 0.0
C1261 C 0.7627 0.73976 0.98798 0.0
C1262 C 0.78223 0.74019 1.00256 0.0
C1263 C 0.7765 0.75256 0.01659 0.0
C1264 C 0.8086 0.72776 0.00355 0.0
C1265 C 0.76842 0.72731 0.9722 0.0
C1266 C 0.80533 0.70805 0.0038 0.0
C1267 C 0.8302 0.69632 0.00446 0.0
C1268 C 0.85886 0.7041 0.00499 0.0
C1269 C 0.86202 0.72388 0.00511 0.0
C1270 C 0.8371 0.7356 0.00446 0.0
H1271 H 0.75592 0.73217 0.96042 0.0
H1272 H 0.79237 0.72696 0.96891 0.0
H1273 H 0.76123 0.71268 0.97525 0.0
H1274 H 0.7835 0.70172 0.00349 0.0
H1275 H 0.82693 0.68116 0.00445 0.0
H1276 H 0.38371 0.52022 0.74898 0.0
H1277 H 0.34007 0.49968 0.74929 0.0
H1278 H 0.28332 0.54865 0.75112 0.0
H1279 H 0.32665 0.56928 0.7506 0.0
H1280 H 0.29589 0.4976 0.77516 0.0
H1281 H 0.24845 0.51795 0.71041 0.0
H1282 H 0.28608 0.52343 0.71661 0.0
H1283 H 0.25596 0.53758 0.72472 0.0
C1284 C 0.36194 0.52663 0.74931 0.0
C1285 C 0.35869 0.54641 0.74968 0.0
C1286 C 0.33704 0.51487 0.74951 0.0
C1287 C 0.30846 0.52265 0.74998 0.0
C1288 C 0.30514 0.54236 0.75039 0.0
H1289 H 0.12992 0.47811 0.75597 0.0
H1290 H 0.17423 0.498 0.75537 0.0
C1291 C 0.32998 0.55412 0.75018 0.0
C1292 C 0.28211 0.51017 0.75066 0.0
H1293 H 0.21797 0.49929 0.72908 0.0
C1294 C 0.27893 0.49786 0.76504 0.0
C1295 C 0.26 0.5106 0.73745 0.0
C1296 C 0.26283 0.52297 0.72133 0.0
C1297 C 0.25389 0.48625 0.76677 0.0
C1298 C 0.23172 0.48675 0.7536 0.0
C1299 C 0.23496 0.499 0.73918 0.0
C1300 C 0.20501 0.4746 0.75447 0.0
C1301 C 0.25104 0.47388 0.78288 0.0
C1302 C 0.20764 0.45484 0.75406 0.0
C1303 C 0.18239 0.44343 0.75443 0.0
C1304 C 0.15398 0.45156 0.75511 0.0
C1305 C 0.15144 0.47138 0.75551 0.0
C1306 C 0.17673 0.48278 0.75513 0.0
H1307 H 0.26581 0.47866 0.79371 0.0
H1308 H 0.22788 0.47371 0.78778 0.0
H1309 H 0.25732 0.45918 0.7794 0.0
H1310 H 0.22923 0.44825 0.7532 0.0
H1311 H 0.18516 0.42823 0.75401 0.0
H1312 H 0.9333 0.56998 0.50412 0.0
H1313 H 0.97663 0.54929 0.50312 0.0
H1314 H 0.91985 0.5004 0.50596 0.0
H1315 H 0.8763 0.52095 0.50677 0.0
H1316 H 0.99549 0.52206 0.52756 0.0
H1317 H 0.97114 0.4897 0.46246 0.0
H1318 H 0.95283 0.51083 0.47014 0.0
H1319 H 0.94156 0.48806 0.4782 0.0
C1320 C 0.92997 0.55482 0.50453 0.0
C1321 C 0.90129 0.54712 0.50543 0.0
C1322 C 0.95478 0.54303 0.50396 0.0
C1323 C 0.95142 0.52332 0.50418 0.0
C1324 C 0.9229 0.51557 0.50541 0.0
H1325 H 0.07491 0.42929 0.50165 0.0
H1326 H 0.03108 0.44956 0.50279 0.0
C1327 C 0.89804 0.52735 0.50598 0.0
C1328 C 0.97785 0.51092 0.50334 0.0
H1329 H 0.01135 0.47679 0.47853 0.0
C1330 C 0.99904 0.5122 0.51682 0.0
C1331 C 0.98237 0.49807 0.48931 0.0
C1332 C 0.96094 0.49663 0.47411 0.0
C1333 C 0.02444 0.50076 0.5168 0.0
C1334 C 0.02901 0.48795 0.50274 0.0
C1335 C 0.00778 0.48663 0.48929 0.0
C1336 C 0.05567 0.47577 0.50178 0.0
C1337 C 0.04587 0.50221 0.532 0.0
C1338 C 0.08401 0.48379 0.50051 0.0
C1339 C 0.10913 0.47226 0.49987 0.0
C1340 C 0.10636 0.45246 0.50037 0.0
C1341 C 0.07787 0.44448 0.50128 0.0
C1342 C 0.05277 0.45603 0.50193 0.0
H1343 H 0.03556 0.50897 0.5437 0.0
H1344 H 0.05424 0.48804 0.53587 0.0
H1345 H 0.06509 0.51097 0.52797 0.0
H1346 H 0.08669 0.499 0.50001 0.0
H1347 H 0.1307 0.47888 0.49907 0.0
H1348 H 0.32591 0.68114 0.50421 0.0
H1349 H 0.28226 0.70154 0.50324 0.0
H1350 H 0.33827 0.7508 0.50595 0.0
H1351 H 0.38216 0.73053 0.50672 0.0
H1352 H 0.26299 0.72871 0.52761 0.0
H1353 H 0.28672 0.76101 0.46241 0.0
H1354 H 0.30538 0.74002 0.47015 0.0
H1355 H 0.31632 0.7629 0.47813 0.0
C1356 C 0.32901 0.69631 0.50461 0.0
C1357 C 0.35757 0.7042 0.50545 0.0
C1358 C 0.30401 0.70794 0.50406 0.0
C1359 C 0.30706 0.72767 0.50424 0.0
C1360 C 0.33546 0.73561 0.50543 0.0
H1361 H 0.18337 0.82131 0.50175 0.0
H1362 H 0.22708 0.80097 0.50276 0.0
C1363 C 0.36051 0.72399 0.50598 0.0
C1364 C 0.28043 0.73989 0.50336 0.0
H1365 H 0.24645 0.77379 0.47849 0.0
C1366 C 0.25929 0.73852 0.51685 0.0
C1367 C 0.2757 0.75267 0.48929 0.0
C1368 C 0.29707 0.75418 0.47408 0.0
C1369 C 0.23374 0.74984 0.51681 0.0
C1370 C 0.229 0.76261 0.50274 0.0
C1371 C 0.25016 0.76398 0.48926 0.0
C1372 C 0.20235 0.77481 0.50184 0.0
C1373 C 0.21239 0.74833 0.53203 0.0
C1374 C 0.17396 0.76683 0.50068 0.0
C1375 C 0.14888 0.77842 0.5001 0.0
C1376 C 0.15177 0.79821 0.50058 0.0
C1377 C 0.18031 0.80613 0.5014 0.0
C1378 C 0.20534 0.79453 0.50197 0.0
H1379 H 0.22277 0.74154 0.54371 0.0
H1380 H 0.20402 0.76248 0.53593 0.0
H1381 H 0.19316 0.73957 0.528 0.0
H1382 H 0.1712 0.75164 0.50019 0.0
H1383 H 0.12725 0.77186 0.49938 0.0
H1384 H 0.88035 0.52298 0.24882 0.0
H1385 H 0.83627 0.50288 0.24932 0.0
H1386 H 0.78072 0.55236 0.25195 0.0
H1387 H 0.82457 0.57259 0.25124 0.0
H1388 H 0.79278 0.50111 0.27565 0.0
H1389 H 0.74413 0.52215 0.21136 0.0
H1390 H 0.78204 0.52726 0.21723 0.0
H1391 H 0.75245 0.54155 0.2258 0.0
C1392 C 0.85876 0.52961 0.24936 0.0
C1393 C 0.85601 0.54941 0.24992 0.0
C1394 C 0.8336 0.51809 0.24968 0.0
C1395 C 0.80523 0.52614 0.25044 0.0
C1396 C 0.80238 0.54587 0.251 0.0
H1397 H 0.62696 0.4801 0.25643 0.0
H1398 H 0.67056 0.50066 0.25599 0.0
C1399 C 0.82751 0.55741 0.25069 0.0
C1400 C 0.77866 0.51385 0.25129 0.0
H1401 H 0.71434 0.50298 0.22988 0.0
C1402 C 0.77568 0.50144 0.26561 0.0
C1403 C 0.75635 0.51439 0.2382 0.0
C1404 C 0.75891 0.52692 0.22218 0.0
C1405 C 0.75076 0.48973 0.26734 0.0
C1406 C 0.72849 0.49022 0.25423 0.0
C1407 C 0.73142 0.50267 0.23993 0.0
C1408 C 0.70217 0.47771 0.25495 0.0
C1409 C 0.74821 0.47721 0.28337 0.0
C1410 C 0.7055 0.45801 0.25439 0.0
C1411 C 0.68067 0.44623 0.25467 0.0
C1412 C 0.65198 0.45393 0.2554 0.0
C1413 C 0.64872 0.4737 0.25592 0.0
C1414 C 0.6736 0.48547 0.25564 0.0
H1415 H 0.76274 0.48213 0.29426 0.0
H1416 H 0.72503 0.47668 0.28822 0.0
H1417 H 0.75504 0.46264 0.27982 0.0
H1418 H 0.72732 0.45173 0.2535 0.0
H1419 H 0.68401 0.43108 0.25414 0.0
H1420 H 0.68362 0.32036 0.5014 0.0
H1421 H 0.72692 0.29964 0.50198 0.0
H1422 H 0.66991 0.25079 0.50057 0.0
H1423 H 0.62642 0.27139 0.49978 0.0
H1424 H 0.74108 0.27221 0.52722 0.0
H1425 H 0.72895 0.2403 0.46075 0.0
H1426 H 0.7093 0.26138 0.4673 0.0
H1427 H 0.69659 0.23855 0.47439 0.0
C1428 C 0.68024 0.30521 0.50109 0.0
C1429 C 0.65152 0.29754 0.50048 0.0
C1430 C 0.70504 0.2934 0.50145 0.0
C1431 C 0.70164 0.2737 0.50109 0.0
C1432 C 0.67304 0.26597 0.50051 0.0
H1433 H 0.8243 0.17927 0.50478 0.0
H1434 H 0.78056 0.19965 0.50444 0.0
C1435 C 0.6482 0.27777 0.50015 0.0
C1436 C 0.72804 0.26127 0.50191 0.0
H1437 H 0.76566 0.22708 0.47939 0.0
C1438 C 0.74655 0.26239 0.51674 0.0
C1439 C 0.73504 0.24844 0.48823 0.0
C1440 C 0.71661 0.24715 0.47168 0.0
C1441 C 0.77167 0.25083 0.51839 0.0
C1442 C 0.77871 0.23804 0.5047 0.0
C1443 C 0.76017 0.23688 0.48988 0.0
C1444 C 0.80533 0.22579 0.50541 0.0
C1445 C 0.7901 0.25213 0.53494 0.0
C1446 C 0.83378 0.23375 0.50597 0.0
C1447 C 0.85885 0.22215 0.5062 0.0
C1448 C 0.85593 0.20236 0.50576 0.0
C1449 C 0.82737 0.19445 0.50518 0.0
C1450 C 0.80232 0.20606 0.50496 0.0
H1451 H 0.77764 0.25881 0.54592 0.0
H1452 H 0.79767 0.23792 0.53924 0.0
H1453 H 0.80996 0.2609 0.53228 0.0
H1454 H 0.83661 0.24895 0.50598 0.0
H1455 H 0.8805 0.22871 0.50654 0.0
H1456 H 0.37752 0.23036 0.74897 0.0
H1457 H 0.42156 0.25051 0.74934 0.0
H1458 H 0.47729 0.20108 0.75141 0.0
H1459 H 0.4335 0.18081 0.75084 0.0
H1460 H 0.46561 0.25221 0.77538 0.0
H1461 H 0.51296 0.23151 0.71071 0.0
H1462 H 0.47518 0.22636 0.71681 0.0
H1463 H 0.50496 0.212 0.72507 0.0
C1464 C 0.39915 0.22375 0.74936 0.0
C1465 C 0.40197 0.20396 0.7498 0.0
C1466 C 0.42428 0.2353 0.74961 0.0
C1467 C 0.45268 0.22729 0.75017 0.0
C1468 C 0.45559 0.20755 0.75062 0.0
H1469 H 0.63147 0.27199 0.75577 0.0
H1470 H 0.58735 0.25192 0.7553 0.0
C1471 C 0.4305 0.19599 0.75038 0.0
C1472 C 0.47925 0.23957 0.75089 0.0
H1473 H 0.54335 0.25033 0.72925 0.0
C1474 C 0.48255 0.25189 0.76526 0.0
C1475 C 0.50134 0.23906 0.73769 0.0
C1476 C 0.49841 0.22666 0.72161 0.0
C1477 C 0.50762 0.26348 0.76694 0.0
C1478 C 0.52972 0.26296 0.75375 0.0
C1479 C 0.52641 0.25065 0.73937 0.0
C1480 C 0.55633 0.2752 0.7545 0.0
C1481 C 0.51055 0.27588 0.78303 0.0
C1482 C 0.55351 0.29495 0.75408 0.0
C1483 C 0.57865 0.30646 0.75438 0.0
C1484 C 0.60715 0.29844 0.75498 0.0
C1485 C 0.60988 0.27864 0.75536 0.0
C1486 C 0.5847 0.26714 0.75506 0.0
H1487 H 0.49598 0.27103 0.79392 0.0
H1488 H 0.53378 0.27615 0.78784 0.0
H1489 H 0.50406 0.29054 0.77957 0.0
H1490 H 0.53185 0.30146 0.75329 0.0
H1491 H 0.57573 0.32165 0.75397 0.0
H1492 H 0.37796 0.0224 0.50637 0.0
H1493 H 0.42209 0.00234 0.50587 0.0
H1494 H 0.47754 0.05187 0.5034 0.0
H1495 H 0.43364 0.07206 0.5041 0.0
H1496 H 0.46577 1.00064 0.47963 0.0
H1497 H 0.51391 0.02162 0.54406 0.0
H1498 H 0.47602 0.02669 0.5381 0.0
H1499 H 0.50561 0.04104 0.52964 0.0
C1500 C 0.39954 0.02905 0.50586 0.0
C1501 C 0.40226 0.04885 0.50535 0.0
C1502 C 0.42473 0.01755 0.50554 0.0
C1503 C 0.45308 0.02562 0.50483 0.0
C1504 C 0.45589 0.04536 0.5043 0.0
H1505 H 0.63167 0.9803 0.49907 0.0
H1506 H 0.58779 1.0006 0.49951 0.0
C1507 C 0.43074 0.05687 0.50461 0.0
C1508 C 0.47968 0.01336 0.50403 0.0
H1509 H 0.54394 0.00258 0.52555 0.0
C1510 C 0.48281 0.00099 0.4897 0.0
C1511 C 0.50191 0.01391 0.51717 0.0
C1512 C 0.49918 0.0264 0.5332 0.0
C1513 C 0.50782 0.98934 0.48799 0.0
C1514 C 0.53002 0.98986 0.50114 0.0
C1515 C 0.52692 0.00225 0.51546 0.0
C1516 C 0.55649 0.97748 0.50041 0.0
C1517 C 0.51054 0.97686 0.47195 0.0
C1518 C 0.55343 0.95776 0.5009 0.0
C1519 C 0.57842 0.94611 0.50062 0.0
C1520 C 0.60701 0.95398 0.49996 0.0
C1521 C 0.61 0.97377 0.49952 0.0
C1522 C 0.58496 0.9854 0.4998 0.0
H1523 H 0.49598 0.98175 0.46105 0.0
H1524 H 0.53374 0.97645 0.46712 0.0
H1525 H 0.50385 0.96225 0.47547 0.0
H1526 H 0.53169 0.95136 0.50174 0.0
H1527 H 0.57531 0.93094 0.50109 0.0
H1528 H 0.57561 0.82079 0.25394 0.0
H1529 H 0.53184 0.80051 0.25312 0.0
H1530 H 0.58753 0.7511 0.25604 0.0
H1531 H 0.63155 0.77127 0.25666 0.0
H1532 H 0.54421 0.74911 0.22967 0.0
H1533 H 0.4951 0.77046 0.2937 0.0
H1534 H 0.5034 0.78982 0.27922 0.0
H1535 H 0.53301 0.77561 0.28789 0.0
C1536 C 0.5786 0.80561 0.25453 0.0
C1537 C 0.60711 0.79766 0.25543 0.0
C1538 C 0.55352 0.79404 0.25415 0.0
C1539 C 0.55642 0.77431 0.25478 0.0
C1540 C 0.58481 0.76631 0.25564 0.0
H1541 H 0.4339 0.67971 0.25094 0.0
H1542 H 0.47765 0.7 0.25168 0.0
C1543 C 0.60993 0.77786 0.25602 0.0
C1544 C 0.52989 0.762 0.25391 0.0
H1545 H 0.46526 0.75139 0.27506 0.0
C1546 C 0.527 0.74952 0.23963 0.0
C1547 C 0.50745 0.76264 0.2669 0.0
C1548 C 0.50991 0.77522 0.28289 0.0
C1549 C 0.50202 0.73786 0.23783 0.0
C1550 C 0.47959 0.7385 0.25082 0.0
C1551 C 0.48247 0.75098 0.26509 0.0
C1552 C 0.45306 0.72618 0.24996 0.0
C1553 C 0.49957 0.72527 0.22185 0.0
C1554 C 0.42466 0.73418 0.24907 0.0
C1555 C 0.39955 0.72262 0.24872 0.0
C1556 C 0.40238 0.70283 0.24939 0.0
C1557 C 0.4309 0.69488 0.25029 0.0
C1558 C 0.45598 0.70645 0.25063 0.0
H1559 H 0.5144 0.73001 0.21105 0.0
H1560 H 0.50604 0.71067 0.22553 0.0
H1561 H 0.47647 0.72489 0.21684 0.0
H1562 H 0.42194 0.74938 0.24863 0.0
H1563 H 0.37793 0.72921 0.24808 0.0
H1564 H 0.63156 0.4787 0.99914 0.0
H1565 H 0.58742 0.49874 1.00015 0.0
H1566 H 0.53201 0.44915 1.00171 0.0
H1567 H 0.57594 0.42899 1.00093 0.0
H1568 H 0.53905 0.50019 0.97691 0.0
H1569 H 0.50357 0.47977 0.04434 0.0
H1570 H 0.54009 0.47467 0.03592 0.0
H1571 H 0.50911 0.46024 0.02959 0.0
C1572 C 0.60999 0.47204 0.9997 0.0
C1573 C 0.60731 0.45223 1.00006 0.0
C1574 C 0.5848 0.48352 1.00028 0.0
C1575 C 0.55649 0.47543 1.00131 0.0
C1576 C 0.55368 0.45568 1.0013 0.0
H1577 H 0.37789 0.52088 0.00553 0.0
H1578 H 0.42173 0.50055 0.00447 0.0
C1579 C 0.57884 0.44419 1.00074 0.0
C1580 C 0.52988 0.48766 1.00218 0.0
H1581 H 0.47027 0.49876 0.02787 0.0
C1582 C 0.52406 0.49995 0.98808 0.0
C1583 C 0.51036 0.48727 0.01675 0.0
C1584 C 0.51615 0.47492 0.0326 0.0
C1585 C 0.49897 0.51167 0.98802 0.0
C1586 C 0.47947 0.51129 1.00261 0.0
C1587 C 0.48525 0.49898 0.0167 0.0
C1588 C 0.45303 0.52367 0.00353 0.0
C1589 C 0.49321 0.52405 0.9722 0.0
C1590 C 0.45615 0.54339 0.00369 0.0
C1591 C 0.43119 0.55505 0.0043 0.0
C1592 C 0.40259 0.54719 0.00485 0.0
C1593 C 0.39957 0.5274 0.00506 0.0
C1594 C 0.42459 0.51575 0.00446 0.0
H1595 H 0.50574 0.51919 0.96045 0.0
H1596 H 0.46925 0.52435 0.96889 0.0
H1597 H 0.50031 0.53871 0.97522 0.0
H1598 H 0.47794 0.54978 0.00336 0.0
H1599 H 0.43435 0.57022 0.00422 0.0
H1600 H 0.13801 0.36463 0.45421 0.0
H1601 H 0.1381 0.35731 0.42272 0.0
H1602 H 0.18191 0.41021 0.41195 0.0
H1603 H 0.18226 0.41758 0.44343 0.0
H1604 H 0.11302 0.37748 0.3947 0.0
H1605 H 0.23494 0.37107 0.38741 0.0
H1606 H 0.21684 0.37113 0.40862 0.0
H1607 H 0.2228 0.39295 0.39701 0.0
C1608 C 0.14771 0.37472 0.44517 0.0
C1609 C 0.16028 0.39165 0.45136 0.0
C1610 C 0.1477 0.37051 0.42717 0.0
C1611 C 0.16039 0.38309 0.41505 0.0
C1612 C 0.17252 0.40014 0.42113 0.0
H1613 H 0.13743 0.38469 0.3015 0.0
H1614 H 0.13656 0.3914 0.3331 0.0
C1615 C 0.17255 0.40437 0.43913 0.0
C1616 C 0.16062 0.37842 0.39602 0.0
H1617 H 0.20657 0.37054 0.36107 0.0
C1618 C 0.13345 0.37592 0.38733 0.0
C1619 C 0.18733 0.37616 0.38652 0.0
C1620 C 0.21716 0.37778 0.39536 0.0
C1621 C 0.13228 0.37152 0.36931 0.0
C1622 C 0.15897 0.36982 0.3597 0.0
C1623 C 0.18614 0.37201 0.36845 0.0
C1624 C 0.15922 0.36567 0.34057 0.0
C1625 C 0.1025 0.36843 0.36076 0.0
C1626 C 0.17277 0.34915 0.33428 0.0
C1627 C 0.17342 0.3453 0.31621 0.0
C1628 C 0.1607 0.35798 0.3041 0.0
C1629 C 0.1473 0.37458 0.31047 0.0
C1630 C 0.14664 0.3784 0.32853 0.0
H1631 H 0.08497 0.36554 0.37066 0.0
H1632 H 0.09613 0.38135 0.35337 0.0
H1633 H 0.10334 0.35647 0.3513 0.0
H1634 H 0.18274 0.3392 0.34337 0.0
H1635 H 0.184 0.33242 0.31176 0.0
H1636 H 0.13584 0.8733 0.3032 0.0
H1637 H 0.13577 0.8665 0.33479 0.0
H1638 H 0.05914 0.90224 0.34144 0.0
H1639 H 0.06005 0.90982 0.31 0.0
H1640 H 0.09622 0.90852 0.36678 0.0
H1641 H 0.0834 0.83106 0.36069 0.0
H1642 H 0.11597 0.83925 0.3496 0.0
H1643 H 0.07997 0.84668 0.34204 0.0
C1644 C 0.11895 0.87967 0.31141 0.0
C1645 C 0.09786 0.89202 0.30414 0.0
C1646 C 0.11878 0.87565 0.32945 0.0
C1647 C 0.09699 0.88347 0.34046 0.0
C1648 C 0.07608 0.89595 0.33321 0.0
H1649 H 0.05978 0.8412 0.4458 0.0
H1650 H 0.05904 0.8488 0.41437 0.0
C1651 C 0.07661 0.90027 0.31525 0.0
C1652 C 0.09638 0.87905 0.35961 0.0
H1653 H 0.09643 0.84268 0.38917 0.0
C1654 C 0.09605 0.89411 0.37167 0.0
C1655 C 0.09562 0.86026 0.36603 0.0
C1656 C 0.09343 0.84341 0.3539 0.0
C1657 C 0.09535 0.89093 0.38992 0.0
C1658 C 0.09623 0.87214 0.39635 0.0
C1659 C 0.09617 0.85708 0.38429 0.0
C1660 C 0.0967 0.86772 0.4155 0.0
C1661 C 0.09287 0.90777 0.40204 0.0
C1662 C 0.11831 0.87562 0.4266 0.0
C1663 C 0.11838 0.87159 0.44463 0.0
C1664 C 0.09736 0.85914 0.45182 0.0
C1665 C 0.07628 0.85082 0.44063 0.0
C1666 C 0.07585 0.85515 0.42266 0.0
H1667 H 0.08278 0.92009 0.39522 0.0
H1668 H 0.07934 0.90444 0.41385 0.0
H1669 H 0.11534 0.91202 0.40644 0.0
H1670 H 0.13526 0.88484 0.42132 0.0
H1671 H 0.13514 0.87801 0.4529 0.0
H1672 H 0.18225 0.83272 0.81192 0.0
H1673 H 0.18081 0.83935 0.84353 0.0
H1674 H 0.13903 0.89302 0.8332 0.0
H1675 H 0.14004 0.88646 0.80157 0.0
H1676 H 0.20673 0.86955 0.86156 0.0
H1677 H 0.08468 0.8689 0.87026 0.0
H1678 H 0.10259 0.85941 0.85092 0.0
H1679 H 0.09757 0.88449 0.85322 0.0
C1680 C 0.1726 0.8459 0.81635 0.0
C1681 C 0.16114 0.85903 0.80421 0.0
C1682 C 0.17184 0.84966 0.83442 0.0
C1683 C 0.15946 0.86655 0.8407 0.0
C1684 C 0.14816 0.87974 0.82864 0.0
H1685 H 0.18449 0.91694 0.94395 0.0
H1686 H 0.18398 0.9098 0.91242 0.0
C1687 C 0.1489 0.876 0.81056 0.0
C1688 C 0.15917 0.87058 0.85986 0.0
H1689 H 0.11327 0.87957 0.8946 0.0
C1690 C 0.18631 0.8717 0.86881 0.0
C1691 C 0.13247 0.87317 0.86929 0.0
C1692 C 0.10264 0.87127 0.8605 0.0
C1693 C 0.1875 0.87562 0.88692 0.0
C1694 C 0.16084 0.87875 0.89624 0.0
C1695 C 0.13367 0.87734 0.88736 0.0
C1696 C 0.16069 0.88326 0.91529 0.0
C1697 C 0.21724 0.87609 0.89599 0.0
C1698 C 0.14711 0.87092 0.92728 0.0
C1699 C 0.14725 0.87498 0.94531 0.0
C1700 C 0.16082 0.89154 0.95165 0.0
C1701 C 0.17397 0.90403 0.93953 0.0
C1702 C 0.17385 0.89993 0.92151 0.0
H1703 H 0.23462 0.86895 0.88805 0.0
H1704 H 0.22405 0.89101 0.89794 0.0
H1705 H 0.21607 0.86921 0.90912 0.0
H1706 H 0.13671 0.85803 0.92271 0.0
H1707 H 0.13685 0.86509 0.95426 0.0
H1708 H 0.12246 0.36423 0.80122 0.0
H1709 H 0.12274 0.3572 0.83278 0.0
H1710 H 0.07833 0.40995 0.84326 0.0
H1711 H 0.07763 0.41705 0.81172 0.0
H1712 H 0.14777 0.37797 0.86064 0.0
H1713 H 0.02602 0.37056 0.86815 0.0
H1714 H 0.04406 0.37048 0.84693 0.0
H1715 H 0.0377 0.39239 0.85828 0.0
C1716 C 0.1127 0.37434 0.81022 0.0
C1717 C 0.09987 0.39116 0.80393 0.0
C1718 C 0.11293 0.3703 0.82825 0.0
C1719 C 0.10019 0.38293 0.84031 0.0
C1720 C 0.08778 0.39986 0.83413 0.0
H1721 H 0.12345 0.38541 0.95392 0.0
H1722 H 0.12421 0.39201 0.92229 0.0
C1723 C 0.08755 0.40393 0.8161 0.0
C1724 C 0.10016 0.37844 0.85938 0.0
H1725 H 0.0545 0.37045 0.89444 0.0
C1726 C 0.1274 0.37629 0.86805 0.0
C1727 C 0.07353 0.37602 0.86892 0.0
C1728 C 0.04364 0.3773 0.8601 0.0
C1729 C 0.12874 0.37206 0.88611 0.0
C1730 C 0.10212 0.37018 0.89575 0.0
C1731 C 0.07487 0.37205 0.88702 0.0
C1732 C 0.102 0.3661 0.9149 0.0
C1733 C 0.15862 0.36934 0.89465 0.0
C1734 C 0.08875 0.34952 0.92126 0.0
C1735 C 0.08814 0.34573 0.93933 0.0
C1736 C 0.10063 0.35854 0.95141 0.0
C1737 C 0.11377 0.3752 0.94498 0.0
C1738 C 0.11437 0.37896 0.9269 0.0
H1739 H 0.17619 0.36655 0.88474 0.0
H1740 H 0.16468 0.38237 0.90194 0.0
H1741 H 0.15811 0.35743 0.90418 0.0
H1742 H 0.07895 0.33946 0.9122 0.0
H1743 H 0.07777 0.3328 0.94382 0.0
H1744 H 0.88725 0.62514 0.70306 0.0
H1745 H 0.88882 0.61845 0.67146 0.0
H1746 H 0.81225 0.65396 0.66354 0.0
H1747 H 0.81152 0.66143 0.69499 0.0
H1748 H 0.85185 0.60142 0.65086 0.0
H1749 H 0.86453 0.67452 0.62618 0.0
H1750 H 0.86788 0.66871 0.64922 0.0
H1751 H 0.83191 0.67205 0.6394 0.0
C1752 C 0.8709 0.63164 0.69454 0.0
C1753 C 0.84941 0.64393 0.70145 0.0
C1754 C 0.8718 0.6278 0.67648 0.0
C1755 C 0.85101 0.63598 0.66501 0.0
C1756 C 0.82914 0.64796 0.67198 0.0
H1757 H 0.8116 0.59086 0.56083 0.0
H1758 H 0.81237 0.59844 0.59225 0.0
C1759 C 0.8286 0.65211 0.68999 0.0
C1760 C 0.85166 0.63141 0.64589 0.0
H1761 H 0.85135 0.65118 0.60484 0.0
C1762 C 0.85198 0.61232 0.6408 0.0
C1763 C 0.85233 0.64559 0.63272 0.0
C1764 C 0.85448 0.66634 0.63716 0.0
C1765 C 0.85257 0.60702 0.62298 0.0
C1766 C 0.85161 0.62119 0.60981 0.0
C1767 C 0.8517 0.64028 0.6149 0.0
C1768 C 0.85089 0.61661 0.59069 0.0
C1769 C 0.85499 0.58628 0.61854 0.0
C1770 C 0.87151 0.62487 0.57917 0.0
C1771 C 0.87059 0.62096 0.56113 0.0
C1772 C 0.84924 0.60853 0.55427 0.0
C1773 C 0.82858 0.60028 0.56578 0.0
C1774 C 0.82914 0.6045 0.58378 0.0
H1775 H 0.86524 0.57816 0.6295 0.0
H1776 H 0.83249 0.58044 0.61633 0.0
H1777 H 0.86835 0.58398 0.60645 0.0
H1778 H 0.88843 0.63432 0.58416 0.0
H1779 H 0.88681 0.62751 0.55258 0.0
H1780 H 0.93328 0.08327 0.694 0.0
H1781 H 0.93263 0.09025 0.66244 0.0
H1782 H 0.88699 0.14264 0.67266 0.0
H1783 H 0.88721 0.13572 0.70424 0.0
H1784 H 0.86253 0.12164 0.64489 0.0
H1785 H 0.98416 0.1299 0.63743 0.0
H1786 H 0.97286 0.10799 0.64732 0.0
H1787 H 0.9661 0.12987 0.65865 0.0
C1788 C 0.92311 0.09629 0.68956 0.0
C1789 C 0.91041 0.10898 0.70166 0.0
C1790 C 0.92291 0.1003 0.67152 0.0
C1791 C 0.91016 0.11709 0.66526 0.0
C1792 C 0.89707 0.12964 0.67725 0.0
H1793 H 0.93182 0.16741 0.56186 0.0
H1794 H 0.93082 0.16061 0.59344 0.0
C1795 C 0.89726 0.12566 0.69529 0.0
C1796 C 0.91015 0.1215 0.64618 0.0
H1797 H 0.95571 0.12977 0.61113 0.0
C1798 C 0.88288 0.12346 0.6375 0.0
C1799 C 0.93675 0.12408 0.63665 0.0
C1800 C 0.96665 0.12303 0.64548 0.0
C1801 C 0.88149 0.12766 0.61944 0.0
C1802 C 0.9081 0.12971 0.6098 0.0
C1803 C 0.93536 0.12802 0.61854 0.0
C1804 C 0.90816 0.13384 0.59066 0.0
C1805 C 0.85158 0.13019 0.61089 0.0
C1806 C 0.89596 0.12095 0.57863 0.0
C1807 C 0.89646 0.12479 0.56056 0.0
C1808 C 0.90932 0.14156 0.55419 0.0
C1809 C 0.92167 0.15439 0.5663 0.0
C1810 C 0.92116 0.15052 0.58436 0.0
H1811 H 0.83395 0.13286 0.62079 0.0
H1812 H 0.8519 0.14211 0.60136 0.0
H1813 H 0.84574 0.11713 0.60358 0.0
H1814 H 0.88632 0.10782 0.58321 0.0
H1815 H 0.8869 0.11457 0.5516 0.0
H1816 H 0.8728 0.11699 0.20398 0.0
H1817 H 0.87419 0.11051 0.17234 0.0
H1818 H 0.82736 0.1625 0.16217 0.0
H1819 H 0.8256 0.16905 0.1938 0.0
H1820 H 0.80408 0.13105 0.14435 0.0
H1821 H 0.92563 0.13691 0.13494 0.0
H1822 H 0.91466 0.121 0.15219 0.0
H1823 H 0.90702 0.14582 0.15428 0.0
C1824 C 0.8629 0.1271 0.19502 0.0
C1825 C 0.84915 0.14357 0.20143 0.0
C1826 C 0.86387 0.12342 0.17694 0.0
C1827 C 0.85124 0.13616 0.16492 0.0
C1828 C 0.83738 0.15254 0.17125 0.0
H1829 H 0.8724 0.13663 0.05104 0.0
H1830 H 0.87244 0.14437 0.08247 0.0
C1831 C 0.83643 0.15627 0.18932 0.0
C1832 C 0.85166 0.13209 0.14578 0.0
H1833 H 0.89789 0.12474 0.11085 0.0
C1834 C 0.82457 0.12973 0.13699 0.0
C1835 C 0.87843 0.1306 0.13621 0.0
C1836 C 0.90811 0.13388 0.14482 0.0
C1837 C 0.82352 0.12557 0.11892 0.0
C1838 C 0.85031 0.12346 0.10948 0.0
C1839 C 0.8774 0.12618 0.11818 0.0
C1840 C 0.85066 0.11855 0.0905 0.0
C1841 C 0.79375 0.1237 0.11006 0.0
C1842 C 0.83883 0.10132 0.08466 0.0
C1843 C 0.83874 0.09685 0.06673 0.0
C1844 C 0.85064 0.10949 0.0543 0.0
C1845 C 0.86299 0.12659 0.06025 0.0
C1846 C 0.86305 0.13105 0.0782 0.0
H1847 H 0.77587 0.13042 0.11792 0.0
H1848 H 0.79404 0.13021 0.09674 0.0
H1849 H 0.78829 0.1085 0.10855 0.0
H1850 H 0.82969 0.09131 0.09399 0.0
H1851 H 0.82922 0.08351 0.06262 0.0
H1852 H 0.93436 0.66883 0.06179 0.0
H1853 H 0.9336 0.66193 0.09338 0.0
H1854 H 0.88745 0.60971 0.08321 0.0
H1855 H 0.88778 0.61656 0.05163 0.0
H1856 H 0.8632 0.63085 0.11095 0.0
H1857 H 0.98475 0.6221 0.11848 0.0
H1858 H 0.97363 0.64404 0.10857 0.0
H1859 H 0.96668 0.62217 0.09725 0.0
C1860 C 0.92406 0.65587 0.06626 0.0
C1861 C 0.91125 0.6432 0.05417 0.0
C1862 C 0.92379 0.65191 0.08431 0.0
C1863 C 0.91086 0.63518 0.09059 0.0
C1864 C 0.89766 0.62266 0.07861 0.0
H1865 H 0.93205 0.58442 0.19382 0.0
H1866 H 0.93113 0.59142 0.16227 0.0
C1867 C 0.89791 0.62659 0.06056 0.0
C1868 C 0.91082 0.63079 0.10968 0.0
H1869 H 0.9563 0.62224 0.14474 0.0
C1870 C 0.88353 0.62894 0.11835 0.0
C1871 C 0.93739 0.62808 0.11923 0.0
C1872 C 0.9673 0.62902 0.11042 0.0
C1873 C 0.8821 0.62469 0.1364 0.0
C1874 C 0.90869 0.6225 0.14605 0.0
C1875 C 0.93596 0.6241 0.13733 0.0
C1876 C 0.90871 0.61826 0.16517 0.0
C1877 C 0.85216 0.62227 0.14493 0.0
C1878 C 0.89662 0.63112 0.17727 0.0
C1879 C 0.89707 0.62716 0.19532 0.0
C1880 C 0.90978 0.6103 0.20161 0.0
C1881 C 0.92202 0.59751 0.18944 0.0
C1882 C 0.92156 0.60149 0.1714 0.0
H1883 H 0.8345 0.61973 0.13501 0.0
H1884 H 0.85236 0.6103 0.15441 0.0
H1885 H 0.84647 0.63532 0.15228 0.0
H1886 H 0.8871 0.64431 0.17275 0.0
H1887 H 0.8876 0.63737 0.20433 0.0
H1888 H 0.6395 0.36416 0.95427 0.0
H1889 H 0.63936 0.35698 0.92274 0.0
H1890 H 0.68195 0.41029 0.912 0.0
H1891 H 0.68254 0.41752 0.9435 0.0
H1892 H 0.61355 0.37707 0.89489 0.0
H1893 H 0.7355 0.37179 0.88708 0.0
H1894 H 0.71766 0.3716 0.90836 0.0
H1895 H 0.72304 0.39351 0.89681 0.0
C1896 C 0.64889 0.37436 0.94522 0.0
C1897 C 0.66119 0.39137 0.95143 0.0
C1898 C 0.64876 0.37024 0.92721 0.0
C1899 C 0.66104 0.38298 0.91508 0.0
C1900 C 0.67289 0.4001 0.92118 0.0
H1901 H 0.63704 0.3852 0.8016 0.0
H1902 H 0.6363 0.39171 0.83324 0.0
C1903 C 0.67305 0.40424 0.93919 0.0
C1904 C 0.66114 0.37842 0.89603 0.0
H1905 H 0.70686 0.37124 0.86084 0.0
C1906 C 0.63393 0.37575 0.88744 0.0
C1907 C 0.68779 0.37648 0.88641 0.0
C1908 C 0.71769 0.37831 0.89513 0.0
C1909 C 0.63264 0.37148 0.86938 0.0
C1910 C 0.65926 0.3701 0.85966 0.0
C1911 C 0.68648 0.37247 0.86831 0.0
C1912 C 0.65939 0.36607 0.84051 0.0
C1913 C 0.60284 0.36821 0.86092 0.0
C1914 C 0.67312 0.34967 0.8341 0.0
C1915 C 0.67369 0.34593 0.81602 0.0
C1916 C 0.66071 0.35861 0.804 0.0
C1917 C 0.64712 0.37509 0.81049 0.0
C1918 C 0.64653 0.3788 0.82858 0.0
H1919 H 0.58545 0.36516 0.87087 0.0
H1920 H 0.59619 0.3811 0.85358 0.0
H1921 H 0.60382 0.35628 0.85143 0.0
H1922 H 0.6833 0.33972 0.84311 0.0
H1923 H 0.68441 0.33313 0.81148 0.0
H1924 H 0.62089 0.88694 0.95438 0.0
H1925 H 0.62103 0.89418 0.92287 0.0
H1926 H 0.57916 0.84068 0.91197 0.0
H1927 H 0.57856 0.83338 0.94346 0.0
H1928 H 0.64722 0.8743 0.89508 0.0
H1929 H 0.52526 0.87892 0.88694 0.0
H1930 H 0.54298 0.87917 0.90827 0.0
H1931 H 0.53793 0.85724 0.89669 0.0
C1932 C 0.61166 0.87671 0.9453 0.0
C1933 C 0.59956 0.85962 0.95146 0.0
C1934 C 0.61179 0.88087 0.9273 0.0
C1935 C 0.59971 0.86809 0.91513 0.0
C1936 C 0.58805 0.8509 0.92118 0.0
H1937 H 0.62451 0.86586 0.80178 0.0
H1938 H 0.62513 0.85945 0.83344 0.0
C1939 C 0.58789 0.84671 0.93918 0.0
C1940 C 0.59965 0.87267 0.89608 0.0
H1941 H 0.55403 0.87956 0.86077 0.0
C1942 C 0.62687 0.8755 0.88757 0.0
C1943 C 0.57303 0.87446 0.8864 0.0
C1944 C 0.5431 0.87247 0.89504 0.0
C1945 C 0.6282 0.87976 0.86952 0.0
C1946 C 0.60162 0.88097 0.85972 0.0
C1947 C 0.57438 0.87846 0.8683 0.0
C1948 C 0.60155 0.88494 0.84056 0.0
C1949 C 0.658 0.88321 0.86113 0.0
C1950 C 0.58758 0.90122 0.83406 0.0
C1951 C 0.58707 0.90491 0.81596 0.0
C1952 C 0.60036 0.89228 0.80403 0.0
C1953 C 0.61419 0.87592 0.81061 0.0
C1954 C 0.61471 0.87227 0.82871 0.0
H1955 H 0.67527 0.88641 0.87113 0.0
H1956 H 0.66493 0.87033 0.85387 0.0
H1957 H 0.6569 0.89509 0.8516 0.0
H1958 H 0.57716 0.91113 0.84301 0.0
H1959 H 0.57616 0.91761 0.81135 0.0
H1960 H 0.63768 0.86589 0.454 0.0
H1961 H 0.63772 0.8586 0.42251 0.0
H1962 H 0.68161 0.91147 0.41174 0.0
H1963 H 0.68204 0.91882 0.44323 0.0
H1964 H 0.61267 0.8787 0.39452 0.0
H1965 H 0.7346 0.8724 0.38718 0.0
H1966 H 0.71654 0.87251 0.4084 0.0
H1967 H 0.72242 0.89429 0.39672 0.0
C1968 C 0.64739 0.87598 0.44495 0.0
C1969 C 0.66001 0.8929 0.45115 0.0
C1970 C 0.64736 0.87179 0.42696 0.0
C1971 C 0.66006 0.88436 0.41484 0.0
C1972 C 0.67222 0.9014 0.42092 0.0
H1973 H 0.63697 0.88526 0.30123 0.0
H1974 H 0.63615 0.89227 0.33278 0.0
C1975 C 0.67229 0.90562 0.43892 0.0
C1976 C 0.66026 0.87969 0.39581 0.0
H1977 H 0.70619 0.87172 0.36087 0.0
C1978 C 0.63309 0.87714 0.38715 0.0
C1979 C 0.68697 0.87743 0.38631 0.0
C1980 C 0.71682 0.87912 0.39512 0.0
C1981 C 0.6319 0.87265 0.36915 0.0
C1982 C 0.65859 0.87093 0.35954 0.0
C1983 C 0.68576 0.87321 0.36825 0.0
C1984 C 0.65882 0.86661 0.34044 0.0
C1985 C 0.60212 0.86948 0.36062 0.0
C1986 C 0.67235 0.85004 0.33428 0.0
C1987 C 0.67298 0.84601 0.31626 0.0
C1988 C 0.66025 0.85858 0.30404 0.0
C1989 C 0.64685 0.87524 0.31028 0.0
C1990 C 0.64622 0.87923 0.32831 0.0
H1991 H 0.58459 0.86667 0.37055 0.0
H1992 H 0.59574 0.88233 0.35314 0.0
H1993 H 0.60296 0.85743 0.35126 0.0
H1994 H 0.68233 0.84017 0.34345 0.0
H1995 H 0.68355 0.83309 0.31191 0.0
H1996 H 0.56201 0.3409 0.445 0.0
H1997 H 0.56292 0.34812 0.4135 0.0
H1998 H 0.63916 0.38392 0.42138 0.0
H1999 H 0.63739 0.37747 0.45301 0.0
H2000 H 0.60225 0.40064 0.4005 0.0
H2001 H 0.61574 0.32735 0.37651 0.0
H2002 H 0.58298 0.32982 0.38962 0.0
H2003 H 0.61884 0.33339 0.39951 0.0
C2004 C 0.57905 0.35023 0.43998 0.0
C2005 C 0.59971 0.35856 0.45144 0.0
C2006 C 0.5797 0.35423 0.42195 0.0
C2007 C 0.60154 0.36622 0.41495 0.0
C2008 C 0.62217 0.37456 0.42642 0.0
H2009 H 0.63765 0.37375 0.30246 0.0
H2010 H 0.6393 0.36721 0.33409 0.0
C2011 C 0.62116 0.37086 0.4445 0.0
C2012 C 0.60232 0.3706 0.39579 0.0
H2013 H 0.6024 0.35043 0.35493 0.0
C2014 C 0.60253 0.38964 0.39054 0.0
C2015 C 0.60321 0.35629 0.38276 0.0
C2016 C 0.60551 0.33559 0.38738 0.0
C2017 C 0.60317 0.39477 0.37267 0.0
C2018 C 0.60236 0.38046 0.35964 0.0
C2019 C 0.60261 0.36142 0.36489 0.0
C2020 C 0.60161 0.38485 0.34048 0.0
C2021 C 0.60544 0.41547 0.36805 0.0
C2022 C 0.57975 0.39682 0.33347 0.0
C2023 C 0.57917 0.40089 0.31544 0.0
C2024 C 0.59991 0.39263 0.304 0.0
C2025 C 0.62136 0.38031 0.31095 0.0
C2026 C 0.6223 0.37656 0.32903 0.0
H2027 H 0.61562 0.42372 0.37894 0.0
H2028 H 0.6188 0.41768 0.35595 0.0
H2029 H 0.58291 0.42123 0.36579 0.0
H2030 H 0.56292 0.4029 0.34189 0.0
H2031 H 0.56212 0.41022 0.31042 0.0
H2032 H 0.32592 0.66685 0.19322 0.0
H2033 H 0.32655 0.65928 0.16178 0.0
H2034 H 0.3724 0.60716 0.17287 0.0
H2035 H 0.37218 0.61467 0.20434 0.0
H2036 H 0.39674 0.62778 0.14473 0.0
H2037 H 0.27519 0.61899 0.13741 0.0
H2038 H 0.28627 0.64108 0.14703 0.0
H2039 H 0.29331 0.61938 0.15862 0.0
C2040 C 0.33614 0.65376 0.189 0.0
C2041 C 0.34889 0.64132 0.20131 0.0
C2042 C 0.33632 0.64942 0.17103 0.0
C2043 C 0.34912 0.63253 0.16505 0.0
C2044 C 0.36227 0.62022 0.17725 0.0
H2045 H 0.32724 0.58187 0.06156 0.0
H2046 H 0.32833 0.58848 0.0932 0.0
C2047 C 0.36209 0.62454 0.19522 0.0
C2048 C 0.34912 0.62778 0.14603 0.0
H2049 H 0.30352 0.61909 0.11106 0.0
C2050 C 0.37638 0.62582 0.13736 0.0
C2051 C 0.32252 0.62501 0.13653 0.0
C2052 C 0.29264 0.62604 0.14537 0.0
C2053 C 0.37776 0.62148 0.11932 0.0
C2054 C 0.35114 0.61931 0.1097 0.0
C2055 C 0.32389 0.62093 0.11845 0.0
C2056 C 0.35105 0.61524 0.09054 0.0
C2057 C 0.40767 0.619 0.11079 0.0
C2058 C 0.36324 0.62819 0.07857 0.0
C2059 C 0.36271 0.62445 0.06048 0.0
C2060 C 0.34979 0.60774 0.05403 0.0
C2061 C 0.33743 0.59485 0.06608 0.0
C2062 C 0.33799 0.59861 0.08416 0.0
H2063 H 0.42528 0.61628 0.1207 0.0
H2064 H 0.40737 0.60714 0.10121 0.0
H2065 H 0.41353 0.63211 0.10356 0.0
H2066 H 0.3729 0.64129 0.0832 0.0
H2067 H 0.37226 0.63473 0.05157 0.0
H2068 H 0.44837 0.09087 0.19553 0.0
H2069 H 0.44905 0.09828 0.16406 0.0
H2070 H 0.37223 0.13385 0.1707 0.0
H2071 H 0.37239 0.12724 0.20232 0.0
H2072 H 0.41199 0.0919 0.13868 0.0
H2073 H 0.42433 0.1694 0.14477 0.0
H2074 H 0.42785 0.15379 0.16342 0.0
H2075 H 0.3918 0.16112 0.15585 0.0
C2076 C 0.43171 0.10034 0.19028 0.0
C2077 C 0.41049 0.10862 0.2014 0.0
C2078 C 0.4321 0.10457 0.17229 0.0
C2079 C 0.41108 0.11696 0.16502 0.0
C2080 C 0.3893 0.12477 0.17605 0.0
H2081 H 0.37435 0.12258 0.05218 0.0
H2082 H 0.37368 0.1155 0.08373 0.0
C2083 C 0.38927 0.12086 0.1941 0.0
C2084 C 0.41165 0.12136 0.14586 0.0
H2085 H 0.4116 0.15773 0.11628 0.0
C2086 C 0.41211 0.10631 0.13379 0.0
C2087 C 0.41233 0.14015 0.13943 0.0
C2088 C 0.41438 0.15702 0.15155 0.0
C2089 C 0.41292 0.10949 0.11554 0.0
C2090 C 0.41203 0.12827 0.1091 0.0
C2091 C 0.41188 0.14333 0.12117 0.0
C2092 C 0.41195 0.13272 0.08994 0.0
C2093 C 0.41557 0.09265 0.10342 0.0
C2094 C 0.43285 0.14539 0.08299 0.0
C2095 C 0.43272 0.14987 0.06506 0.0
C2096 C 0.41191 0.14158 0.05366 0.0
C2097 C 0.3909 0.12898 0.06061 0.0
C2098 C 0.39065 0.12481 0.07863 0.0
H2099 H 0.42555 0.08033 0.1103 0.0
H2100 H 0.39318 0.08841 0.0989 0.0
H2101 H 0.42929 0.09598 0.09169 0.0
H2102 H 0.44944 0.15174 0.09143 0.0
H2103 H 0.44924 0.1596 0.06007 0.0
H2104 H 0.37189 0.11653 0.70392 0.0
H2105 H 0.37263 0.10975 0.67233 0.0
H2106 H 0.32638 0.16191 0.66203 0.0
H2107 H 0.32525 0.16876 0.69362 0.0
H2108 H 0.3025 0.13055 0.64441 0.0
H2109 H 0.42408 0.13557 0.63465 0.0
H2110 H 0.41295 0.11978 0.65196 0.0
H2111 H 0.40577 0.14466 0.65403 0.0
C2112 C 0.36197 0.12661 0.69495 0.0
C2113 C 0.34859 0.14323 0.7013 0.0
C2114 C 0.36256 0.12275 0.67688 0.0
C2115 C 0.34992 0.13545 0.66484 0.0
C2116 C 0.33639 0.15198 0.67112 0.0
H2117 H 0.37063 0.13671 0.55116 0.0
H2118 H 0.37069 0.14395 0.58267 0.0
C2119 C 0.33581 0.15587 0.68918 0.0
C2120 C 0.3501 0.13128 0.64571 0.0
H2121 H 0.39593 0.12371 0.61063 0.0
C2122 C 0.3229 0.12909 0.63699 0.0
C2123 C 0.37677 0.12961 0.63606 0.0
C2124 C 0.40657 0.13269 0.64458 0.0
C2125 C 0.32165 0.12499 0.61891 0.0
C2126 C 0.34833 0.12276 0.60938 0.0
C2127 C 0.37552 0.12525 0.61803 0.0
C2128 C 0.34847 0.11815 0.59033 0.0
C2129 C 0.29178 0.12337 0.61011 0.0
C2130 C 0.33634 0.1011 0.58424 0.0
C2131 C 0.33623 0.09691 0.56623 0.0
C2132 C 0.34841 0.10966 0.554 0.0
C2133 C 0.36099 0.12659 0.5602 0.0
C2134 C 0.36108 0.13076 0.57821 0.0
H2135 H 0.27403 0.13005 0.61811 0.0
H2136 H 0.29205 0.13006 0.59688 0.0
H2137 H 0.28615 0.10821 0.60844 0.0
H2138 H 0.32701 0.09101 0.59342 0.0
H2139 H 0.32651 0.0837 0.56192 0.0
H2140 H 0.44988 0.59031 0.69516 0.0
H2141 H 0.45077 0.59823 0.6638 0.0
H2142 H 0.37395 0.63373 0.67077 0.0
H2143 H 0.37389 0.62659 0.70229 0.0
H2144 H 0.41377 0.59223 0.63832 0.0
H2145 H 0.42619 0.66962 0.64532 0.0
H2146 H 0.42968 0.65375 0.66378 0.0
H2147 H 0.39365 0.66123 0.65631 0.0
C2148 C 0.43327 0.59987 0.69001 0.0
C2149 C 0.41198 0.60797 0.70119 0.0
C2150 C 0.43378 0.60439 0.67208 0.0
C2151 C 0.41282 0.61692 0.66494 0.0
C2152 C 0.39098 0.62456 0.67603 0.0
H2153 H 0.37432 0.62376 0.55261 0.0
H2154 H 0.3744 0.61653 0.58411 0.0
C2155 C 0.39081 0.62034 0.69403 0.0
C2156 C 0.41344 0.62159 0.64584 0.0
H2157 H 0.41312 0.65837 0.6167 0.0
C2158 C 0.41384 0.60671 0.6336 0.0
C2159 C 0.41409 0.64047 0.63963 0.0
C2160 C 0.41621 0.65716 0.65196 0.0
C2161 C 0.41447 0.61014 0.61538 0.0
C2162 C 0.41345 0.62901 0.60917 0.0
C2163 C 0.41348 0.6439 0.62142 0.0
C2164 C 0.41286 0.63368 0.59007 0.0
C2165 C 0.41702 0.59347 0.60306 0.0
C2166 C 0.43357 0.64641 0.58301 0.0
C2167 C 0.43303 0.65098 0.56509 0.0
C2168 C 0.41197 0.64273 0.55384 0.0
C2169 C 0.39107 0.63014 0.56092 0.0
C2170 C 0.39125 0.62587 0.57891 0.0
H2171 H 0.42722 0.58109 0.60973 0.0
H2172 H 0.39456 0.58921 0.59865 0.0
H2173 H 0.43047 0.59699 0.59127 0.0
H2174 H 0.45037 0.65271 0.59134 0.0
H2175 H 0.44945 0.66071 0.56 0.0
H2176 H 0.28072 0.32045 0.25227 0.0
H2177 H 0.33188 0.33186 0.25207 0.0
H2178 H 0.30057 0.38941 0.25089 0.0
H2179 H 0.24939 0.37819 0.25126 0.0
H2180 H 0.36061 0.35494 0.22693 0.0
H2181 H 0.35805 0.38887 0.29289 0.0
H2182 H 0.33023 0.37223 0.28575 0.0
H2183 H 0.32905 0.39631 0.27825 0.0
C2184 C 0.28469 0.33554 0.252 0.0
C2185 C 0.26093 0.34841 0.25188 0.0
C2186 C 0.31394 0.34202 0.25187 0.0
C2187 C 0.32 0.36147 0.25174 0.0
C2188 C 0.29638 0.37435 0.25135 0.0
H2189 H 0.47977 0.42941 0.25167 0.0
H2190 H 0.42885 0.41767 0.25095 0.0
C2191 C 0.26712 0.36789 0.25146 0.0
C2192 C 0.35104 0.36829 0.25177 0.0
H2193 H 0.40064 0.39446 0.2754 0.0
C2194 C 0.36944 0.36351 0.23755 0.0
C2195 C 0.36244 0.37948 0.26564 0.0
C2196 C 0.34405 0.38442 0.28159 0.0
C2197 C 0.39883 0.36993 0.23667 0.0
C2198 C 0.41022 0.38115 0.25054 0.0
C2199 C 0.39182 0.3859 0.26477 0.0
C2200 C 0.44119 0.38813 0.25058 0.0
C2201 C 0.4172 0.36503 0.22071 0.0
C2202 C 0.46503 0.3754 0.25076 0.0
C2203 C 0.49418 0.38206 0.25114 0.0
C2204 C 0.50005 0.40159 0.25147 0.0
C2205 C 0.47607 0.41429 0.25138 0.0
C2206 C 0.44694 0.40761 0.25099 0.0
H2207 H 0.40316 0.36069 0.20938 0.0
H2208 H 0.43113 0.37719 0.21661 0.0
H2209 H 0.43207 0.35305 0.22399 0.0
H2210 H 0.46109 0.36031 0.25082 0.0
H2211 H 0.51209 0.37188 0.25131 0.0
H2212 H 0.78018 0.82047 0.25262 0.0
H2213 H 0.83133 0.83187 0.25231 0.0
H2214 H 0.80004 0.8894 0.2504 0.0
H2215 H 0.74885 0.8782 0.25089 0.0
H2216 H 0.86011 0.85458 0.22691 0.0
H2217 H 0.85743 0.88947 0.29244 0.0
H2218 H 0.82961 0.87274 0.28548 0.0
H2219 H 0.82848 0.89671 0.27767 0.0
C2220 C 0.78414 0.83555 0.25217 0.0
C2221 C 0.76039 0.84842 0.25188 0.0
C2222 C 0.8134 0.84203 0.25197 0.0
C2223 C 0.81946 0.86148 0.2516 0.0
C2224 C 0.79584 0.87435 0.25104 0.0
H2225 H 0.97955 0.92919 0.25103 0.0
H2226 H 0.92856 0.91757 0.25029 0.0
C2227 C 0.76659 0.8679 0.25123 0.0
C2228 C 0.8505 0.86829 0.25157 0.0
H2229 H 0.90008 0.89476 0.27492 0.0
C2230 C 0.86893 0.8633 0.23743 0.0
C2231 C 0.86188 0.87968 0.26531 0.0
C2232 C 0.84345 0.88486 0.28118 0.0
C2233 C 0.89833 0.86969 0.2365 0.0
C2234 C 0.90971 0.88109 0.25024 0.0
C2235 C 0.89128 0.88606 0.26439 0.0
C2236 C 0.94072 0.888 0.25025 0.0
C2237 C 0.91674 0.86454 0.22062 0.0
C2238 C 0.96447 0.87521 0.25062 0.0
C2239 C 0.99366 0.8818 0.25101 0.0
C2240 C 0.99965 0.90131 0.25117 0.0
C2241 C 0.97576 0.91407 0.25088 0.0
C2242 C 0.94659 0.90747 0.25048 0.0
H2243 H 0.90271 0.8601 0.20932 0.0
H2244 H 0.93077 0.8766 0.21641 0.0
H2245 H 0.93151 0.85256 0.22405 0.0
H2246 H 0.96044 0.86013 0.25083 0.0
H2247 H 0.0115 0.87157 0.25133 0.0
H2248 H 0.24901 0.87159 0.00436 0.0
H2249 H 0.3002 0.86033 0.00509 0.0
H2250 H 0.33152 0.91789 0.0044 0.0
H2251 H 0.28042 0.92932 0.00383 0.0
H2252 H 0.3452 0.86727 0.98018 0.0
H2253 H 0.37592 0.89443 0.04637 0.0
H2254 H 0.33795 0.89244 0.03915 0.0
H2255 H 0.36047 0.91183 0.03178 0.0
C2256 C 0.26676 0.88188 0.00447 0.0
C2257 C 0.26059 0.90137 0.00411 0.0
C2258 C 0.296 0.87541 0.00486 0.0
C2259 C 0.31962 0.88828 0.00504 0.0
C2260 C 0.31359 0.90773 0.00461 0.0
H2261 H 0.51087 0.87842 0.00409 0.0
H2262 H 0.45947 0.88927 0.00437 0.0
C2263 C 0.28436 0.91423 0.00419 0.0
C2264 C 0.35058 0.88132 0.00514 0.0
H2265 H 0.41483 0.88198 0.02888 0.0
C2266 C 0.36041 0.87039 0.99086 0.0
C2267 C 0.37035 0.88547 0.01907 0.0
C2268 C 0.36066 0.89654 0.03505 0.0
C2269 C 0.38969 0.86378 0.98997 0.0
C2270 C 0.40947 0.86793 0.00391 0.0
C2271 C 0.39962 0.87883 0.01821 0.0
C2272 C 0.44056 0.86119 0.00386 0.0
C2273 C 0.39937 0.85283 0.97392 0.0
C2274 C 0.44699 0.84178 0.00373 0.0
C2275 C 0.47635 0.83551 0.00353 0.0
C2276 C 0.49987 0.84855 0.00358 0.0
C2277 C 0.49332 0.86799 0.004 0.0
C2278 C 0.46395 0.87423 0.00418 0.0
H2279 H 0.38414 0.85507 0.9626 0.0
H2280 H 0.4221 0.85692 0.96985 0.0
H2281 H 0.39946 0.83751 0.97707 0.0
H2282 H 0.42927 0.83147 0.00385 0.0
H2283 H 0.48059 0.82045 0.00332 0.0
H2284 H 0.98035 0.32142 0.0032 0.0
H2285 H 0.92928 0.33298 0.00343 0.0
H2286 H 0.96097 0.39044 0.00463 0.0
H2287 H 0.01208 0.37907 0.00422 0.0
H2288 H 0.90091 0.35615 0.02869 0.0
H2289 H 0.90326 0.39011 0.9627 0.0
H2290 H 0.931 0.37336 0.96978 0.0
H2291 H 0.93237 0.39742 0.97733 0.0
C2292 C 0.97649 0.33653 0.00347 0.0
C2293 C 1.00034 0.34932 0.00359 0.0
C2294 C 0.94729 0.3431 0.00363 0.0
C2295 C 0.94136 0.36256 0.00379 0.0
C2296 C 0.96507 0.37537 0.00416 0.0
H2297 H 0.78047 0.42987 0.00351 0.0
H2298 H 0.83169 0.41861 0.00435 0.0
C2299 C 0.99427 0.36883 0.00402 0.0
C2300 C 0.91037 0.36946 0.00381 0.0
H2301 H 0.86062 0.39552 0.98016 0.0
C2302 C 0.89202 0.3647 0.01806 0.0
C2303 C 0.89891 0.38064 0.98994 0.0
C2304 C 0.91727 0.38558 0.97398 0.0
C2305 C 0.86262 0.37109 0.01895 0.0
C2306 C 0.85113 0.38223 0.00505 0.0
C2307 C 0.8695 0.38701 0.99082 0.0
C2308 C 0.82003 0.38896 0.00492 0.0
C2309 C 0.84431 0.36618 0.03494 0.0
C2310 C 0.7965 0.37601 0.0048 0.0
C2311 C 0.7672 0.38239 0.00436 0.0
C2312 C 0.76088 0.40185 0.0039 0.0
C2313 C 0.78454 0.41479 0.0039 0.0
C2314 C 0.81383 0.40839 0.00437 0.0
H2315 H 0.85843 0.36207 0.04631 0.0
H2316 H 0.8301 0.37825 0.03893 0.0
H2317 H 0.82972 0.35403 0.03175 0.0
H2318 H 0.80078 0.36095 0.00483 0.0
H2319 H 0.74954 0.37204 0.00425 0.0
H2320 H 0.76089 0.62306 0.75372 0.0
H2321 H 0.70971 0.61169 0.75394 0.0
H2322 H 0.67815 0.66921 0.75416 0.0
H2323 H 0.72914 0.68072 0.7537 0.0
H2324 H 0.66483 0.61837 0.77864 0.0
H2325 H 0.63348 0.64576 0.71266 0.0
H2326 H 0.67149 0.64407 0.71985 0.0
H2327 H 0.64859 0.6633 0.72721 0.0
C2328 C 0.74308 0.6333 0.75377 0.0
C2329 C 0.74914 0.65281 0.75358 0.0
C2330 C 0.71384 0.62677 0.75392 0.0
C2331 C 0.69014 0.6396 0.75378 0.0
C2332 C 0.6961 0.65906 0.75388 0.0
H2333 H 0.49857 0.62848 0.75438 0.0
H2334 H 0.54966 0.63997 0.75519 0.0
C2335 C 0.7253 0.66561 0.75372 0.0
C2336 C 0.65917 0.63263 0.7538 0.0
H2337 H 0.59467 0.63342 0.7303 0.0
C2338 C 0.6495 0.62158 0.76804 0.0
C2339 C 0.63923 0.63688 0.73996 0.0
C2340 C 0.64872 0.64801 0.72397 0.0
C2341 C 0.62025 0.61491 0.76897 0.0
C2342 C 0.60032 0.61917 0.75514 0.0
C2343 C 0.60998 0.63023 0.7409 0.0
C2344 C 0.56941 0.61212 0.75506 0.0
C2345 C 0.61077 0.60369 0.7849 0.0
C2346 C 0.5636 0.59265 0.75455 0.0
C2347 C 0.53445 0.58602 0.7541 0.0
C2348 C 0.51052 0.59876 0.75404 0.0
C2349 C 0.51645 0.61828 0.75447 0.0
C2350 C 0.54563 0.62488 0.75491 0.0
H2351 H 0.62605 0.60582 0.79621 0.0
H2352 H 0.58802 0.60763 0.78905 0.0
H2353 H 0.6108 0.58842 0.78156 0.0
H2354 H 0.58163 0.58256 0.7543 0.0
H2355 H 0.53071 0.57091 0.75368 0.0
H2356 H 0.02984 0.07201 0.75457 0.0
H2357 H 0.08081 0.08366 0.75534 0.0
H2358 H 0.04883 0.14108 0.75541 0.0
H2359 H 0.99778 0.1296 0.75488 0.0
H2360 H 0.10914 0.10666 0.7309 0.0
H2361 H 0.10682 0.14083 0.79673 0.0
H2362 H 0.07871 0.12439 0.78958 0.0
H2363 H 0.07795 0.1485 0.78211 0.0
C2364 C 0.03361 0.08713 0.75486 0.0
C2365 C 0.00969 0.09987 0.75474 0.0
C2366 C 0.06276 0.09375 0.75529 0.0
C2367 C 0.06861 0.11322 0.75569 0.0
C2368 C 0.04482 0.12599 0.75549 0.0
H2369 H 0.22896 0.18095 0.7533 0.0
H2370 H 0.17784 0.16947 0.75371 0.0
C2371 C 0.01564 0.11939 0.75508 0.0
C2372 C 0.09961 0.12015 0.75569 0.0
H2373 H 0.14929 0.14655 0.77908 0.0
C2374 C 0.11798 0.1153 0.74148 0.0
C2375 C 0.11105 0.13147 0.76948 0.0
C2376 C 0.09273 0.13649 0.78543 0.0
C2377 C 0.14736 0.12171 0.74053 0.0
C2378 C 0.15879 0.13302 0.75432 0.0
C2379 C 0.14043 0.1379 0.76852 0.0
C2380 C 0.18981 0.13988 0.75425 0.0
C2381 C 0.16571 0.11666 0.7246 0.0
C2382 C 0.21348 0.12704 0.75469 0.0
C2383 C 0.24271 0.13353 0.75445 0.0
C2384 C 0.24885 0.15302 0.75386 0.0
C2385 C 0.22504 0.16585 0.7537 0.0
C2386 C 0.19581 0.15933 0.75395 0.0
H2387 H 0.15168 0.11209 0.71335 0.0
H2388 H 0.17948 0.12882 0.72033 0.0
H2389 H 0.18076 0.10481 0.72801 0.0
H2390 H 0.20934 0.11197 0.75527 0.0
H2391 H 0.26048 0.12325 0.75469 0.0
H2392 H 0.50272 0.13068 0.98222 0.0
H2393 H 0.55401 0.11952 0.98137 0.0
H2394 H 0.57757 0.16031 0.02132 0.0
H2395 H 0.52688 0.17245 0.02105 0.0
H2396 H 0.61891 0.15955 0.99962 0.0
H2397 H 0.59345 0.08473 0.01373 0.0
H2398 H 0.57574 0.0921 0.99377 0.0
H2399 H 0.56545 0.10281 0.01447 0.0
C2400 C 0.51896 0.13723 0.99077 0.0
C2401 C 0.51096 0.15235 1.00174 0.0
C2402 C 0.54821 0.13072 0.99044 0.0
C2403 C 0.56968 0.13864 1.00166 0.0
C2404 C 0.56155 0.15386 0.01256 0.0
H2405 H 0.73581 0.08125 0.02438 0.0
H2406 H 0.68512 0.09346 0.02429 0.0
C2407 C 0.53257 0.16079 0.01244 0.0
C2408 C 0.60074 0.13148 1.00182 0.0
H2409 H 0.64247 0.09129 0.00376 0.0
C2410 C 0.62401 0.14461 1.00072 0.0
C2411 C 0.60766 0.11202 0.00356 0.0
C2412 C 0.58423 0.09716 0.00665 0.0
C2413 C 0.65379 0.13892 1.00131 0.0
C2414 C 0.66068 0.11938 1.00194 0.0
C2415 C 0.6374 0.10625 0.00305 0.0
C2416 C 0.69174 0.1122 1.00201 0.0
C2417 C 0.67731 0.15407 1.00195 0.0
C2418 C 0.7125 0.11845 0.98947 0.0
C2419 C 0.74176 0.112 0.98999 0.0
C2420 C 0.75044 0.0985 1.00251 0.0
C2421 C 0.72954 0.09164 0.01458 0.0
C2422 C 0.70058 0.09861 0.01448 0.0
H2423 H 0.6685 0.16743 0.00759 0.0
H2424 H 0.69665 0.1496 0.00996 0.0
H2425 H 0.68489 0.15722 0.98835 0.0
H2426 H 0.70612 0.12828 0.97923 0.0
H2427 H 0.75748 0.11727 0.98039 0.0
H2428 H 0.23013 0.57082 1.00142 0.0
H2429 H 0.17906 0.58227 1.00054 0.0
H2430 H 0.21052 0.63981 1.00001 0.0
H2431 H 0.26168 0.62851 1.00065 0.0
H2432 H 0.15043 0.60551 0.02477 0.0
H2433 H 0.15273 0.63878 0.95853 0.0
H2434 H 0.1809 0.6225 0.96591 0.0
H2435 H 0.18153 0.64671 0.97308 0.0
C2436 C 0.22623 0.58592 1.00101 0.0
C2437 C 0.25003 0.59875 1.00103 0.0
C2438 C 0.19702 0.59243 1.00052 0.0
C2439 C 0.191 0.61187 0.99995 0.0
C2440 C 0.21467 0.62473 1.00007 0.0
H2441 H 0.03114 0.67973 1.00168 0.0
H2442 H 0.08209 0.66801 1.00131 0.0
C2443 C 0.2439 0.61824 1.00054 0.0
C2444 C 0.15995 0.61869 0.99983 0.0
H2445 H 0.11022 0.64471 0.9761 0.0
C2446 C 0.14157 0.61399 0.01408 0.0
C2447 C 0.14848 0.62979 0.98589 0.0
C2448 C 0.16681 0.63463 0.9699 0.0
C2449 C 0.11217 0.62037 0.01494 0.0
C2450 C 0.10073 0.63149 1.00102 0.0
C2451 C 0.11908 0.63619 0.98676 0.0
C2452 C 0.06977 0.63847 1.00106 0.0
C2453 C 0.0938 0.61552 0.03092 0.0
C2454 C 0.04596 0.62574 1.00078 0.0
C2455 C 0.0168 0.63238 1.00099 0.0
C2456 C 0.0109 0.6519 1.00141 0.0
C2457 C 0.03486 0.66461 1.00142 0.0
C2458 C 0.064 0.65795 1.00118 0.0
H2459 H 0.10781 0.61099 0.0422 0.0
H2460 H 0.08015 0.62778 0.0351 0.0
H2461 H 0.07864 0.6037 0.02761 0.0
H2462 H 0.04993 0.61065 1.00034 0.0
H2463 H 0.9989 0.62219 1.00088 0.0
H2464 H 0.51262 0.87111 0.75079 0.0
H2465 H 0.46152 0.85964 0.75002 0.0
H2466 H 0.42963 0.91708 0.75068 0.0
H2467 H 0.48059 0.9287 0.75127 0.0
H2468 H 0.41644 0.86633 0.77487 0.0
H2469 H 0.38537 0.89358 0.70878 0.0
H2470 H 0.42337 0.89176 0.71599 0.0
H2471 H 0.40063 0.91106 0.72335 0.0
C2472 C 0.49476 0.88132 0.75067 0.0
C2473 C 0.50072 0.90084 0.75102 0.0
C2474 C 0.46557 0.87473 0.75025 0.0
C2475 C 0.44182 0.88751 0.75004 0.0
C2476 C 0.44766 0.90698 0.75047 0.0
H2477 H 0.25068 0.87817 0.75157 0.0
H2478 H 0.3022 0.88877 0.75116 0.0
C2479 C 0.47682 0.91359 0.75091 0.0
C2480 C 0.4109 0.88047 0.74996 0.0
H2481 H 0.34645 0.88131 0.72642 0.0
C2482 C 0.40116 0.86949 0.76423 0.0
C2483 C 0.39104 0.88467 0.73608 0.0
C2484 C 0.40062 0.89577 0.72009 0.0
C2485 C 0.37186 0.86294 0.7652 0.0
C2486 C 0.35196 0.86719 0.75134 0.0
C2487 C 0.36174 0.87809 0.73703 0.0
C2488 C 0.32078 0.86059 0.75152 0.0
C2489 C 0.36226 0.85195 0.78126 0.0
C2490 C 0.31414 0.84122 0.75161 0.0
C2491 C 0.2847 0.83509 0.75189 0.0
C2492 C 0.26133 0.84825 0.75194 0.0
C2493 C 0.26811 0.86765 0.75158 0.0
C2494 C 0.29754 0.87375 0.75133 0.0
H2495 H 0.37766 0.85407 0.79251 0.0
H2496 H 0.33963 0.85614 0.78544 0.0
H2497 H 0.36195 0.83665 0.77805 0.0
H2498 H 0.33173 0.83082 0.75139 0.0
H2499 H 0.28029 0.82005 0.75205 0.0
H2500 H 0.74913 0.37885 0.75097 0.0
H2501 H 0.80037 0.39 0.75025 0.0
H2502 H 0.83141 0.33238 0.75124 0.0
H2503 H 0.78026 0.32106 0.75179 0.0
H2504 H 0.84526 0.38323 0.77517 0.0
H2505 H 0.87609 0.35538 0.70927 0.0
H2506 H 0.8381 0.35742 0.71643 0.0
H2507 H 0.86064 0.33811 0.72399 0.0
C2508 C 0.76682 0.36852 0.75094 0.0
C2509 C 0.76056 0.34905 0.75137 0.0
C2510 C 0.7961 0.37493 0.75054 0.0
C2511 C 0.81967 0.36202 0.75044 0.0
C2512 C 0.81354 0.34258 0.75096 0.0
H2513 H 0.01103 0.37183 0.75152 0.0
H2514 H 0.95965 0.36094 0.75131 0.0
C2515 C 0.78427 0.33614 0.75137 0.0
C2516 C 0.85067 0.36891 0.75035 0.0
H2517 H 0.91499 0.36794 0.72673 0.0
C2518 C 0.86049 0.37998 0.76454 0.0
C2519 C 0.87047 0.36459 0.73649 0.0
C2520 C 0.86081 0.35337 0.72059 0.0
C2521 C 0.88978 0.38657 0.76542 0.0
C2522 C 0.90959 0.38226 0.75155 0.0
C2523 C 0.89976 0.37121 0.73734 0.0
C2524 C 0.94069 0.38901 0.75157 0.0
C2525 C 0.89944 0.39769 0.78138 0.0
C2526 C 0.94707 0.40843 0.75153 0.0
C2527 C 0.97642 0.41472 0.75169 0.0
C2528 C 0.99997 0.4017 0.75176 0.0
C2529 C 0.99346 0.38225 0.75152 0.0
C2530 C 0.9641 0.37599 0.75138 0.0
H2531 H 0.8842 0.39556 0.7927 0.0
H2532 H 0.92217 0.39365 0.7855 0.0
H2533 H 0.8995 0.41297 0.7781 0.0
H2534 H 0.92934 0.41873 0.7513 0.0
H2535 H 0.98063 0.42979 0.75176 0.0
H2536 H 0.27948 0.43026 0.50291 0.0
H2537 H 0.33077 0.41909 0.50308 0.0
H2538 H 0.30015 0.3614 0.50461 0.0
H2539 H 0.24883 0.37238 0.50426 0.0
H2540 H 0.35995 0.39629 0.52828 0.0
H2541 H 0.35731 0.36198 0.46249 0.0
H2542 H 0.32934 0.37853 0.46961 0.0
H2543 H 0.3285 0.35448 0.47722 0.0
C2544 C 0.28363 0.41519 0.50325 0.0
C2545 C 0.26002 0.40221 0.50347 0.0
C2546 C 0.31296 0.40884 0.50337 0.0
C2547 C 0.31924 0.38942 0.50359 0.0
C2548 C 0.29578 0.37644 0.50408 0.0
H2549 H 0.47944 0.322 0.50385 0.0
H2550 H 0.42848 0.33365 0.50452 0.0
C2551 C 0.26645 0.38276 0.50398 0.0
C2552 C 0.35036 0.38275 0.50353 0.0
H2553 H 0.40006 0.35663 0.47995 0.0
C2554 C 0.3688 0.38769 0.51768 0.0
C2555 C 0.36179 0.37152 0.48969 0.0
C2556 C 0.34334 0.36642 0.4738 0.0
C2557 C 0.39826 0.38139 0.51855 0.0
C2558 C 0.40967 0.37013 0.50472 0.0
C2559 C 0.39123 0.36523 0.49055 0.0
C2560 C 0.44068 0.36322 0.5047 0.0
C2561 C 0.41669 0.38646 0.53446 0.0
C2562 C 0.46445 0.37598 0.50442 0.0
C2563 C 0.49364 0.36938 0.50407 0.0
C2564 C 0.49959 0.34986 0.50387 0.0
C2565 C 0.47568 0.33712 0.50404 0.0
C2566 C 0.44652 0.34374 0.5044 0.0
H2567 H 0.40268 0.39085 0.54577 0.0
H2568 H 0.43072 0.37436 0.53862 0.0
H2569 H 0.43147 0.39844 0.53107 0.0
H2570 H 0.46044 0.39107 0.50427 0.0
H2571 H 0.5115 0.37958 0.50384 0.0
H2572 H 0.01049 0.8792 0.50468 0.0
H2573 H 0.95928 0.89046 0.50531 0.0
H2574 H 0.92797 0.83289 0.50489 0.0
H2575 H 0.97906 0.82147 0.50444 0.0
H2576 H 0.91446 0.88343 0.48038 0.0
H2577 H 0.8832 0.85647 0.54653 0.0
H2578 H 0.92123 0.85838 0.53942 0.0
H2579 H 0.89868 0.839 0.53205 0.0
C2580 C 0.99273 0.86891 0.50483 0.0
C2581 C 0.9989 0.84942 0.50458 0.0
C2582 C 0.96349 0.87538 0.50517 0.0
C2583 C 0.93986 0.86251 0.50539 0.0
C2584 C 0.94589 0.84306 0.50508 0.0
H2585 H 0.74839 0.87295 0.50387 0.0
H2586 H 0.79966 0.86177 0.50424 0.0
C2587 C 0.97513 0.83657 0.50472 0.0
C2588 C 0.90888 0.86946 0.50536 0.0
H2589 H 0.84442 0.86886 0.52886 0.0
C2590 C 0.89917 0.88034 0.49101 0.0
C2591 C 0.88899 0.86533 0.51922 0.0
C2592 C 0.89853 0.8543 0.53527 0.0
C2593 C 0.8699 0.88695 0.49 0.0
C2594 C 0.85 0.88285 0.50389 0.0
C2595 C 0.85972 0.87196 0.51823 0.0
C2596 C 0.81898 0.88974 0.50377 0.0
C2597 C 0.86036 0.89788 0.47389 0.0
C2598 C 0.81286 0.90918 0.50363 0.0
C2599 C 0.7836 0.91563 0.50338 0.0
C2600 C 0.75987 0.90274 0.50339 0.0
C2601 C 0.76611 0.88327 0.50381 0.0
C2602 C 0.7954 0.87684 0.50404 0.0
H2603 H 0.87561 0.89554 0.46262 0.0
H2604 H 0.8376 0.89386 0.4698 0.0
H2605 H 0.86041 0.91321 0.47699 0.0
H2606 H 0.83072 0.91939 0.5038 0.0
H2607 H 0.77961 0.93072 0.50318 0.0
H2608 H 0.52929 0.07204 0.25452 0.0
H2609 H 0.58024 0.08373 0.25519 0.0
H2610 H 0.54816 0.14113 0.25455 0.0
H2611 H 0.49713 0.12961 0.25412 0.0
H2612 H 0.6086 0.10654 0.23048 0.0
H2613 H 0.60598 0.14132 0.29604 0.0
H2614 H 0.57797 0.12475 0.289 0.0
H2615 H 0.57713 0.14877 0.2813 0.0
C2616 C 0.53303 0.08716 0.25463 0.0
C2617 C 0.50909 0.09989 0.25434 0.0
C2618 C 0.56218 0.09381 0.255 0.0
C2619 C 0.56798 0.11329 0.25517 0.0
C2620 C 0.54418 0.12604 0.25479 0.0
H2621 H 0.72851 0.18089 0.25287 0.0
H2622 H 0.67735 0.16948 0.25313 0.0
C2623 C 0.51501 0.11941 0.25445 0.0
C2624 C 0.59897 0.12023 0.25515 0.0
H2625 H 0.64857 0.14679 0.27844 0.0
C2626 C 0.6174 0.11526 0.241 0.0
C2627 C 0.61035 0.13166 0.26888 0.0
C2628 C 0.59195 0.13683 0.28475 0.0
C2629 C 0.64679 0.12165 0.24006 0.0
C2630 C 0.65818 0.13305 0.25379 0.0
C2631 C 0.63975 0.13806 0.26793 0.0
C2632 C 0.68923 0.13987 0.25375 0.0
C2633 C 0.66521 0.11646 0.22419 0.0
C2634 C 0.71285 0.127 0.25427 0.0
C2635 C 0.74211 0.13345 0.25411 0.0
C2636 C 0.74831 0.15293 0.25353 0.0
C2637 C 0.72455 0.1658 0.25327 0.0
C2638 C 0.69529 0.15932 0.25344 0.0
H2639 H 0.65121 0.11188 0.21293 0.0
H2640 H 0.67909 0.12857 0.2199 0.0
H2641 H 0.68014 0.10458 0.22769 0.0
H2642 H 0.70866 0.11194 0.25488 0.0
H2643 H 0.75984 0.12316 0.25443 0.0
H2644 H 0.02909 0.57188 0.25374 0.0
H2645 H 0.08029 0.58314 0.25452 0.0
H2646 H 0.04936 0.64079 0.25506 0.0
H2647 H 0.99812 0.62971 0.25453 0.0
H2648 H 0.1091 0.60618 0.2303 0.0
H2649 H 0.10727 0.63972 0.2964 0.0
H2650 H 0.07888 0.62356 0.28909 0.0
H2651 H 0.07851 0.64777 0.28187 0.0
C2652 C 0.03315 0.58696 0.25414 0.0
C2653 C 0.00947 0.59989 0.25416 0.0
C2654 C 0.06243 0.59336 0.25457 0.0
C2655 C 0.06863 0.61279 0.25512 0.0
C2656 C 0.04509 0.62573 0.25503 0.0
H2657 H 0.22933 0.68002 0.25288 0.0
H2658 H 0.17817 0.66861 0.25326 0.0
C2659 C 0.01579 0.61936 0.25462 0.0
C2660 C 0.09974 0.61951 0.25518 0.0
H2661 H 0.1497 0.64555 0.27871 0.0
C2662 C 0.11804 0.61469 0.24093 0.0
C2663 C 0.11132 0.63066 0.26905 0.0
C2664 C 0.09309 0.63561 0.28506 0.0
C2665 C 0.14747 0.62101 0.24 0.0
C2666 C 0.15902 0.63219 0.25384 0.0
C2667 C 0.14075 0.637 0.26811 0.0
C2668 C 0.19006 0.639 0.25377 0.0
C2669 C 0.16576 0.61602 0.22403 0.0
C2670 C 0.21368 0.62613 0.2542 0.0
C2671 C 0.24293 0.63258 0.25398 0.0
C2672 C 0.24913 0.65206 0.25342 0.0
C2673 C 0.22537 0.66493 0.25326 0.0
C2674 C 0.19611 0.65845 0.25349 0.0
H2675 H 0.1517 0.61148 0.21278 0.0
H2676 H 0.1795 0.62821 0.21978 0.0
H2677 H 0.18085 0.60417 0.22739 0.0
H2678 H 0.20948 0.61107 0.25475 0.0
H2679 H 0.26067 0.62228 0.25421 0.0
H2680 H 0.76083 0.62887 0.50205 0.0
H2681 H 0.70966 0.64023 0.50175 0.0
H2682 H 0.67811 0.58272 0.50132 0.0
H2683 H 0.72913 0.5712 0.50187 0.0
H2684 H 0.66495 0.63371 0.47697 0.0
H2685 H 0.63323 0.60602 0.54276 0.0
H2686 H 0.67128 0.60769 0.53566 0.0
H2687 H 0.64835 0.58853 0.52817 0.0
C2688 C 0.74303 0.61862 0.50194 0.0
C2689 C 0.7491 0.59911 0.50209 0.0
C2690 C 0.7138 0.62515 0.50175 0.0
C2691 C 0.6901 0.61232 0.5018 0.0
C2692 C 0.69607 0.59286 0.50166 0.0
H2693 H 0.4987 0.62315 0.50065 0.0
H2694 H 0.54989 0.61187 0.49998 0.0
C2695 C 0.72527 0.58631 0.50188 0.0
C2696 C 0.65914 0.61931 0.50173 0.0
H2697 H 0.59452 0.61845 0.52507 0.0
C2698 C 0.64957 0.63046 0.48752 0.0
C2699 C 0.63913 0.61502 0.5155 0.0
C2700 C 0.64851 0.60381 0.53148 0.0
C2701 C 0.62033 0.63716 0.48655 0.0
C2702 C 0.60032 0.63283 0.50031 0.0
C2703 C 0.6099 0.62169 0.51452 0.0
C2704 C 0.56936 0.6398 0.50029 0.0
C2705 C 0.61094 0.64847 0.47065 0.0
C2706 C 0.56335 0.65924 0.50084 0.0
C2707 C 0.53413 0.66576 0.50122 0.0
C2708 C 0.51033 0.65292 0.50115 0.0
C2709 C 0.51647 0.63343 0.50066 0.0
C2710 C 0.54571 0.62694 0.5003 0.0
H2711 H 0.62634 0.64645 0.45939 0.0
H2712 H 0.58826 0.6445 0.46638 0.0
H2713 H 0.61084 0.66371 0.47408 0.0
H2714 H 0.58129 0.6694 0.50119 0.0
H2715 H 0.53022 0.68085 0.50169 0.0
H2716 H 0.02876 0.17934 0.50184 0.0
H2717 H 0.07989 0.16795 0.50105 0.0
H2718 H 0.04862 0.11037 0.50073 0.0
H2719 H 0.99745 0.12159 0.50127 0.0
H2720 H 0.10861 0.14487 0.52537 0.0
H2721 H 0.10635 0.11122 0.4593 0.0
H2722 H 0.07811 0.12749 0.46659 0.0
H2723 H 0.07762 0.10331 0.47389 0.0
C2724 C 0.03272 0.16425 0.50149 0.0
C2725 C 0.00897 0.15138 0.50154 0.0
C2726 C 0.06197 0.15777 0.50106 0.0
C2727 C 0.06805 0.13833 0.50057 0.0
C2728 C 0.04443 0.12544 0.50072 0.0
H2729 H 0.22902 0.07119 0.50238 0.0
H2730 H 0.17779 0.08247 0.50215 0.0
C2731 C 0.01518 0.1319 0.50113 0.0
C2732 C 0.09912 0.13154 0.50049 0.0
H2733 H 0.14893 0.10549 0.47689 0.0
C2734 C 0.1175 0.13634 0.51473 0.0
C2735 C 0.1106 0.12037 0.48662 0.0
C2736 C 0.09227 0.11541 0.47065 0.0
C2737 C 0.14693 0.13003 0.51561 0.0
C2738 C 0.1584 0.11886 0.50174 0.0
C2739 C 0.14004 0.11403 0.48751 0.0
C2740 C 0.18948 0.11212 0.50173 0.0
C2741 C 0.16531 0.13501 0.53156 0.0
C2742 C 0.21301 0.12505 0.5013 0.0
C2743 C 0.2423 0.11867 0.50143 0.0
C2744 C 0.24863 0.0992 0.5019 0.0
C2745 C 0.22496 0.08627 0.50207 0.0
C2746 C 0.19566 0.09268 0.50192 0.0
H2747 H 0.15129 0.13947 0.54285 0.0
H2748 H 0.17917 0.12285 0.53574 0.0
H2749 H 0.18027 0.14692 0.52821 0.0
H2750 H 0.20872 0.1401 0.50081 0.0
H2751 H 0.25997 0.12901 0.5012 0.0
loop_
_geom_bond_atom_site_label_1
_geom_bond_atom_site_label_2
_geom_bond_distance
_geom_bond_site_symmetry_2
_ccdc_geom_bond_type
C0 O2 1.247 . S
C0 O4 1.258 . S
C1 O8 1.247 . S
C1 O9 1.258 . S
O2 C0 1.247 . S
O2 Zn3 2.028 . S
Zn3 O2 2.028 . S
Zn3 O7 2.035 . S
Zn3 O9 2.035 . S
Zn3 O10 2.028 . S
O4 C0 1.258 . S
O4 Zn5 2.035 . S
Zn5 O4 2.035 . S
Zn5 O6 2.028 . S
Zn5 O8 2.028 . S
Zn5 O11 2.035 . S
O6 Zn5 2.028 . S
O6 C12 1.247 . S
O7 Zn3 2.035 . S
O7 C12 1.258 . S
O8 C1 1.247 . S
O8 Zn5 2.028 . S
O9 C1 1.258 . S
O9 Zn3 2.035 . S
O10 Zn3 2.028 . S
O10 C13 1.247 . S
O11 Zn5 2.035 . S
O11 C13 1.258 . S
C12 O6 1.247 . S
C12 O7 1.258 . S
C13 O10 1.247 . S
C13 O11 1.258 . S
C14 O16 1.247 . S
C14 O18 1.258 . S
C15 O22 1.247 . S
C15 O23 1.258 . S
O16 C14 1.247 . S
O16 Zn17 2.028 . S
Zn17 O16 2.028 . S
Zn17 O21 2.035 . S
Zn17 O23 2.035 . S
Zn17 O24 2.028 . S
O18 C14 1.258 . S
O18 Zn19 2.035 . S
Zn19 O18 2.035 . S
Zn19 O20 2.028 . S
Zn19 O22 2.028 . S
Zn19 O25 2.035 . S
O20 Zn19 2.028 . S
O20 C26 1.247 . S
O21 Zn17 2.035 . S
O21 C26 1.258 . S
O22 C15 1.247 . S
O22 Zn19 2.028 . S
O23 C15 1.258 . S
O23 Zn17 2.035 . S
O24 Zn17 2.028 . S
O24 C27 1.247 . S
O25 Zn19 2.035 . S
O25 C27 1.258 . S
C26 O20 1.247 . S
C26 O21 1.258 . S
C27 O24 1.247 . S
C27 O25 1.258 . S
C28 O30 1.247 . S
C28 O32 1.258 . S
C29 O36 1.247 . S
C29 O37 1.258 . S
O30 C28 1.247 . S
O30 Zn31 2.028 . S
Zn31 O30 2.028 . S
Zn31 O35 2.035 . S
Zn31 O37 2.035 1_556 S
Zn31 O38 2.026 1_556 S
O32 C28 1.258 . S
O32 Zn33 2.035 1_556 S
Zn33 O32 2.035 1_554 S
Zn33 O34 2.024 1_554 S
Zn33 O36 2.028 . S
Zn33 O39 2.035 . S
O34 Zn33 2.024 1_556 S
O34 C40 1.250 . S
O35 Zn31 2.035 . S
O35 C40 1.258 . S
O36 C29 1.247 . S
O36 Zn33 2.028 . S
O37 C29 1.258 . S
O37 Zn31 2.035 1_554 S
O38 Zn31 2.026 1_554 S
O38 C41 1.246 . S
O39 Zn33 2.035 . S
O39 C41 1.266 . S
C40 O34 1.250 . S
C40 O35 1.258 . S
C41 O38 1.246 . S
C41 O39 1.266 . S
C42 O44 1.250 . S
C42 O46 1.258 . S
C43 O50 1.246 . S
C43 O51 1.266 . S
O44 C42 1.250 . S
O44 Zn45 2.024 1_556 S
Zn45 O44 2.024 1_554 S
Zn45 O49 2.035 1_554 S
Zn45 O51 2.035 . S
Zn45 O52 2.028 . S
O46 C42 1.258 . S
O46 Zn47 2.035 . S
Zn47 O46 2.035 . S
Zn47 O48 2.028 . S
Zn47 O50 2.026 1_556 S
Zn47 O53 2.035 1_556 S
O48 Zn47 2.028 . S
O48 C54 1.247 . S
O49 Zn45 2.035 1_556 S
O49 C54 1.258 . S
O50 C43 1.246 . S
O50 Zn47 2.026 1_554 S
O51 C43 1.266 . S
O51 Zn45 2.035 . S
O52 Zn45 2.028 . S
O52 C55 1.247 . S
O53 Zn47 2.035 1_554 S
O53 C55 1.258 . S
C54 O48 1.247 . S
C54 O49 1.258 . S
C55 O52 1.247 . S
C55 O53 1.258 . S
C56 O58 1.247 . S
C56 O60 1.258 . S
C57 O64 1.247 . S
C57 O65 1.258 . S
O58 C56 1.247 . S
O58 Zn59 2.028 . S
Zn59 O58 2.028 . S
Zn59 O63 2.035 . S
Zn59 O65 2.035 . S
Zn59 O66 2.028 . S
O60 C56 1.258 . S
O60 Zn61 2.035 . S
Zn61 O60 2.035 . S
Zn61 O62 2.028 . S
Zn61 O64 2.028 . S
Zn61 O67 2.035 . S
O62 Zn61 2.028 . S
O62 C68 1.247 . S
O63 Zn59 2.035 . S
O63 C68 1.258 . S
O64 C57 1.247 . S
O64 Zn61 2.028 . S
O65 C57 1.258 . S
O65 Zn59 2.035 . S
O66 Zn59 2.028 . S
O66 C69 1.247 . S
O67 Zn61 2.035 . S
O67 C69 1.258 . S
C68 O62 1.247 . S
C68 O63 1.258 . S
C69 O66 1.247 . S
C69 O67 1.258 . S
C70 O72 1.247 . S
C70 O74 1.258 . S
C71 O78 1.247 . S
C71 O79 1.258 . S
O72 C70 1.247 . S
O72 Zn73 2.028 . S
Zn73 O72 2.028 . S
Zn73 O77 2.035 . S
Zn73 O79 2.035 . S
Zn73 O80 2.028 . S
O74 C70 1.258 . S
O74 Zn75 2.035 . S
Zn75 O74 2.035 . S
Zn75 O76 2.028 . S
Zn75 O78 2.028 . S
Zn75 O81 2.035 . S
O76 Zn75 2.028 . S
O76 C82 1.247 . S
O77 Zn73 2.035 . S
O77 C82 1.258 . S
O78 C71 1.247 . S
O78 Zn75 2.028 . S
O79 C71 1.258 . S
O79 Zn73 2.035 . S
O80 Zn73 2.028 . S
O80 C83 1.247 . S
O81 Zn75 2.035 . S
O81 C83 1.258 . S
C82 O76 1.247 . S
C82 O77 1.258 . S
C83 O80 1.247 . S
C83 O81 1.258 . S
C84 O86 1.247 . S
C84 O88 1.258 . S
C85 O92 1.247 . S
C85 O93 1.258 . S
O86 C84 1.247 . S
O86 Zn87 2.028 1_554 S
Zn87 O86 2.028 1_556 S
Zn87 O91 2.032 1_556 S
Zn87 O93 2.035 . S
Zn87 O94 2.028 . S
O88 C84 1.258 . S
O88 Zn89 2.035 . S
Zn89 O88 2.035 . S
Zn89 O90 2.028 . S
Zn89 O92 2.028 1_554 S
Zn89 O95 2.035 1_554 S
O90 Zn89 2.028 . S
O90 C96 1.247 . S
O91 Zn87 2.032 1_554 S
O91 C96 1.261 . S
O92 C85 1.247 . S
O92 Zn89 2.028 1_556 S
O93 C85 1.258 . S
O93 Zn87 2.035 . S
O94 Zn87 2.028 . S
O94 C97 1.255 . S
O95 Zn89 2.035 1_556 S
O95 C97 1.257 . S
C96 O90 1.247 . S
C96 O91 1.261 . S
C97 O94 1.255 . S
C97 O95 1.257 . S
C98 O100 1.247 . S
C98 O102 1.258 . S
C99 O106 1.247 . S
C99 O107 1.258 . S
O100 C98 1.247 . S
O100 Zn101 2.028 . S
Zn101 O100 2.028 . S
Zn101 O105 2.035 . S
Zn101 O107 2.035 1_556 S
Zn101 O108 2.024 1_556 S
O102 C98 1.258 . S
O102 Zn103 2.035 1_556 S
Zn103 O102 2.035 1_554 S
Zn103 O104 2.026 1_554 S
Zn103 O106 2.028 . S
Zn103 O109 2.035 . S
O104 Zn103 2.026 1_556 S
O104 C110 1.246 . S
O105 Zn101 2.035 . S
O105 C110 1.266 . S
O106 C99 1.247 . S
O106 Zn103 2.028 . S
O107 C99 1.258 . S
O107 Zn101 2.035 1_554 S
O108 Zn101 2.024 1_554 S
O108 C111 1.250 . S
O109 Zn103 2.035 . S
O109 C111 1.258 . S
C110 O104 1.246 . S
C110 O105 1.266 . S
C111 O108 1.250 . S
C111 O109 1.258 . S
C112 O114 1.247 . S
C112 O116 1.258 . S
C113 O120 1.247 . S
C113 O121 1.258 . S
O114 C112 1.247 . S
O114 Zn115 2.028 . S
Zn115 O114 2.028 . S
Zn115 O119 2.035 . S
Zn115 O121 2.035 . S
Zn115 O122 2.028 . S
O116 C112 1.258 . S
O116 Zn117 2.035 . S
Zn117 O116 2.035 . S
Zn117 O118 2.028 . S
Zn117 O120 2.028 . S
Zn117 O123 2.035 . S
O118 Zn117 2.028 . S
O118 C124 1.247 . S
O119 Zn115 2.035 . S
O119 C124 1.258 . S
O120 C113 1.247 . S
O120 Zn117 2.028 . S
O121 C113 1.258 . S
O121 Zn115 2.035 . S
O122 Zn115 2.028 . S
O122 C125 1.247 . S
O123 Zn117 2.035 . S
O123 C125 1.258 . S
C124 O118 1.247 . S
C124 O119 1.258 . S
C125 O122 1.247 . S
C125 O123 1.258 . S
C126 O128 1.247 . S
C126 O130 1.258 . S
C127 O134 1.247 . S
C127 O135 1.258 . S
O128 C126 1.247 . S
O128 Zn129 2.028 . S
Zn129 O128 2.028 . S
Zn129 O133 2.035 . S
Zn129 O135 2.035 . S
Zn129 O136 2.028 . S
O130 C126 1.258 . S
O130 Zn131 2.035 . S
Zn131 O130 2.035 . S
Zn131 O132 2.028 . S
Zn131 O134 2.028 . S
Zn131 O137 2.035 . S
O132 Zn131 2.028 . S
O132 C138 1.247 . S
O133 Zn129 2.035 . S
O133 C138 1.258 . S
O134 C127 1.247 . S
O134 Zn131 2.028 . S
O135 C127 1.258 . S
O135 Zn129 2.035 . S
O136 Zn129 2.028 . S
O136 C139 1.247 . S
O137 Zn131 2.035 . S
O137 C139 1.258 . S
C138 O132 1.247 . S
C138 O133 1.258 . S
C139 O136 1.247 . S
C139 O137 1.258 . S
C140 O142 1.247 . S
C140 O144 1.258 . S
C141 O148 1.247 . S
C141 O149 1.258 . S
O142 C140 1.247 . S
O142 Zn143 2.028 . S
Zn143 O142 2.028 . S
Zn143 O147 2.035 . S
Zn143 O149 2.035 . S
Zn143 O150 2.028 . S
O144 C140 1.258 . S
O144 Zn145 2.035 . S
Zn145 O144 2.035 . S
Zn145 O146 2.028 . S
Zn145 O148 2.028 . S
Zn145 O151 2.035 . S
O146 Zn145 2.028 . S
O146 C152 1.247 . S
O147 Zn143 2.035 . S
O147 C152 1.258 . S
O148 C141 1.247 . S
O148 Zn145 2.028 . S
O149 C141 1.258 . S
O149 Zn143 2.035 . S
O150 Zn143 2.028 . S
O150 C153 1.247 . S
O151 Zn145 2.035 . S
O151 C153 1.258 . S
C152 O146 1.247 . S
C152 O147 1.258 . S
C153 O150 1.247 . S
C153 O151 1.258 . S
C154 O156 1.247 . S
C154 O158 1.258 . S
C155 O162 1.247 . S
C155 O163 1.258 . S
O156 C154 1.247 . S
O156 Zn157 2.028 . S
Zn157 O156 2.028 . S
Zn157 O161 2.035 . S
Zn157 O163 2.035 . S
Zn157 O164 2.028 . S
O158 C154 1.258 . S
O158 Zn159 2.035 . S
Zn159 O158 2.035 . S
Zn159 O160 2.028 . S
Zn159 O162 2.028 . S
Zn159 O165 2.035 . S
O160 Zn159 2.028 . S
O160 C166 1.247 . S
O161 Zn157 2.035 . S
O161 C166 1.258 . S
O162 C155 1.247 . S
O162 Zn159 2.028 . S
O163 C155 1.258 . S
O163 Zn157 2.035 . S
O164 Zn157 2.028 . S
O164 C167 1.247 . S
O165 Zn159 2.035 . S
O165 C167 1.258 . S
C166 O160 1.247 . S
C166 O161 1.258 . S
C167 O164 1.247 . S
C167 O165 1.258 . S
C168 O170 1.247 . S
C168 O172 1.258 . S
C169 O176 1.247 . S
C169 O177 1.258 . S
O170 C168 1.247 . S
O170 Zn171 2.028 . S
Zn171 O170 2.028 . S
Zn171 O175 2.035 . S
Zn171 O177 2.035 . S
Zn171 O178 2.028 . S
O172 C168 1.258 . S
O172 Zn173 2.035 . S
Zn173 O172 2.035 . S
Zn173 O174 2.028 . S
Zn173 O176 2.028 . S
Zn173 O179 2.035 . S
O174 Zn173 2.028 . S
O174 C180 1.247 . S
O175 Zn171 2.035 . S
O175 C180 1.258 . S
O176 C169 1.247 . S
O176 Zn173 2.028 . S
O177 C169 1.258 . S
O177 Zn171 2.035 . S
O178 Zn171 2.028 . S
O178 C181 1.247 . S
O179 Zn173 2.035 . S
O179 C181 1.258 . S
C180 O174 1.247 . S
C180 O175 1.258 . S
C181 O178 1.247 . S
C181 O179 1.258 . S
C182 O184 1.247 . S
C182 O186 1.258 . S
C183 O190 1.247 . S
C183 O191 1.258 . S
O184 C182 1.247 . S
O184 Zn185 2.028 . S
Zn185 O184 2.028 . S
Zn185 O189 2.035 . S
Zn185 O191 2.035 . S
Zn185 O192 2.028 . S
O186 C182 1.258 . S
O186 Zn187 2.035 . S
Zn187 O186 2.035 . S
Zn187 O188 2.028 . S
Zn187 O190 2.028 . S
Zn187 O193 2.035 . S
O188 Zn187 2.028 . S
O188 C194 1.247 . S
O189 Zn185 2.035 . S
O189 C194 1.258 . S
O190 C183 1.247 . S
O190 Zn187 2.028 . S
O191 C183 1.258 . S
O191 Zn185 2.035 . S
O192 Zn185 2.028 . S
O192 C195 1.247 . S
O193 Zn187 2.035 . S
O193 C195 1.258 . S
C194 O188 1.247 . S
C194 O189 1.258 . S
C195 O192 1.247 . S
C195 O193 1.258 . S
C196 O198 1.247 . S
C196 O200 1.258 . S
C197 O204 1.247 . S
C197 O205 1.258 . S
O198 C196 1.247 . S
O198 Zn199 2.028 . S
Zn199 O198 2.028 . S
Zn199 O203 2.035 . S
Zn199 O205 2.035 . S
Zn199 O206 2.028 . S
O200 C196 1.258 . S
O200 Zn201 2.035 . S
Zn201 O200 2.035 . S
Zn201 O202 2.028 . S
Zn201 O204 2.028 . S
Zn201 O207 2.035 . S
O202 Zn201 2.028 . S
O202 C208 1.247 . S
O203 Zn199 2.035 . S
O203 C208 1.258 . S
O204 C197 1.247 . S
O204 Zn201 2.028 . S
O205 C197 1.258 . S
O205 Zn199 2.035 . S
O206 Zn199 2.028 . S
O206 C209 1.247 . S
O207 Zn201 2.035 . S
O207 C209 1.258 . S
C208 O202 1.247 . S
C208 O203 1.258 . S
C209 O206 1.247 . S
C209 O207 1.258 . S
C210 O212 1.247 . S
C210 O214 1.258 . S
C211 O218 1.247 . S
C211 O219 1.258 . S
O212 C210 1.247 . S
O212 Zn213 2.028 . S
Zn213 O212 2.028 . S
Zn213 O217 2.035 . S
Zn213 O219 2.035 . S
Zn213 O220 2.028 . S
O214 C210 1.258 . S
O214 Zn215 2.035 . S
Zn215 O214 2.035 . S
Zn215 O216 2.028 . S
Zn215 O218 2.028 . S
Zn215 O221 2.035 . S
O216 Zn215 2.028 . S
O216 C222 1.247 . S
O217 Zn213 2.035 . S
O217 C222 1.258 . S
O218 C211 1.247 . S
O218 Zn215 2.028 . S
O219 C211 1.258 . S
O219 Zn213 2.035 . S
O220 Zn213 2.028 . S
O220 C223 1.247 . S
O221 Zn215 2.035 . S
O221 C223 1.258 . S
C222 O216 1.247 . S
C222 O217 1.258 . S
C223 O220 1.247 . S
C223 O221 1.258 . S
C224 O226 1.247 . S
C224 O228 1.258 . S
C225 O232 1.247 . S
C225 O233 1.258 . S
O226 C224 1.247 . S
O226 Zn227 2.028 . S
Zn227 O226 2.028 . S
Zn227 O231 2.035 . S
Zn227 O233 2.035 . S
Zn227 O234 2.028 . S
O228 C224 1.258 . S
O228 Zn229 2.035 . S
Zn229 O228 2.035 . S
Zn229 O230 2.028 . S
Zn229 O232 2.028 . S
Zn229 O235 2.035 . S
O230 Zn229 2.028 . S
O230 C236 1.247 . S
O231 Zn227 2.035 . S
O231 C236 1.258 . S
O232 C225 1.247 . S
O232 Zn229 2.028 . S
O233 C225 1.258 . S
O233 Zn227 2.035 . S
O234 Zn227 2.028 . S
O234 C237 1.247 . S
O235 Zn229 2.035 . S
O235 C237 1.258 . S
C236 O230 1.247 . S
C236 O231 1.258 . S
C237 O234 1.247 . S
C237 O235 1.258 . S
C238 O240 1.247 . S
C238 O242 1.258 . S
C239 O246 1.247 . S
C239 O247 1.258 . S
O240 C238 1.247 . S
O240 Zn241 2.028 . S
Zn241 O240 2.028 . S
Zn241 O245 2.035 . S
Zn241 O247 2.035 . S
Zn241 O248 2.028 . S
O242 C238 1.258 . S
O242 Zn243 2.035 . S
Zn243 O242 2.035 . S
Zn243 O244 2.028 . S
Zn243 O246 2.028 . S
Zn243 O249 2.035 . S
O244 Zn243 2.028 . S
O244 C250 1.247 . S
O245 Zn241 2.035 . S
O245 C250 1.258 . S
O246 C239 1.247 . S
O246 Zn243 2.028 . S
O247 C239 1.258 . S
O247 Zn241 2.035 . S
O248 Zn241 2.028 . S
O248 C251 1.247 . S
O249 Zn243 2.035 . S
O249 C251 1.258 . S
C250 O244 1.247 . S
C250 O245 1.258 . S
C251 O248 1.247 . S
C251 O249 1.258 . S
C252 O254 1.247 . S
C252 O256 1.258 . S
C253 O260 1.247 . S
C253 O261 1.258 . S
O254 C252 1.247 . S
O254 Zn255 2.028 . S
Zn255 O254 2.028 . S
Zn255 O259 2.035 . S
Zn255 O261 2.035 . S
Zn255 O262 2.028 . S
O256 C252 1.258 . S
O256 Zn257 2.035 . S
Zn257 O256 2.035 . S
Zn257 O258 2.028 . S
Zn257 O260 2.028 . S
Zn257 O263 2.035 . S
O258 Zn257 2.028 . S
O258 C264 1.247 . S
O259 Zn255 2.035 . S
O259 C264 1.258 . S
O260 C253 1.247 . S
O260 Zn257 2.028 . S
O261 C253 1.258 . S
O261 Zn255 2.035 . S
O262 Zn255 2.028 . S
O262 C265 1.247 . S
O263 Zn257 2.035 . S
O263 C265 1.258 . S
C264 O258 1.247 . S
C264 O259 1.258 . S
C265 O262 1.247 . S
C265 O263 1.258 . S
C266 O268 1.247 . S
C266 O270 1.258 . S
C267 O274 1.247 . S
C267 O275 1.258 . S
O268 C266 1.247 . S
O268 Zn269 2.028 . S
Zn269 O268 2.028 . S
Zn269 O273 2.035 . S
Zn269 O275 2.035 . S
Zn269 O276 2.028 . S
O270 C266 1.258 . S
O270 Zn271 2.035 . S
Zn271 O270 2.035 . S
Zn271 O272 2.028 . S
Zn271 O274 2.028 . S
Zn271 O277 2.035 . S
O272 Zn271 2.028 . S
O272 C278 1.247 . S
O273 Zn269 2.035 . S
O273 C278 1.258 . S
O274 C267 1.247 . S
O274 Zn271 2.028 . S
O275 C267 1.258 . S
O275 Zn269 2.035 . S
O276 Zn269 2.028 . S
O276 C279 1.247 . S
O277 Zn271 2.035 . S
O277 C279 1.258 . S
C278 O272 1.247 . S
C278 O273 1.258 . S
C279 O276 1.247 . S
C279 O277 1.258 . S
C280 O282 1.247 . S
C280 O284 1.258 . S
C281 O288 1.247 . S
C281 O289 1.258 . S
O282 C280 1.247 . S
O282 Zn283 2.028 . S
Zn283 O282 2.028 . S
Zn283 O287 2.035 . S
Zn283 O289 2.035 . S
Zn283 O290 2.028 . S
O284 C280 1.258 . S
O284 Zn285 2.035 . S
Zn285 O284 2.035 . S
Zn285 O286 2.028 . S
Zn285 O288 2.028 . S
Zn285 O291 2.035 . S
O286 Zn285 2.028 . S
O286 C292 1.247 . S
O287 Zn283 2.035 . S
O287 C292 1.258 . S
O288 C281 1.247 . S
O288 Zn285 2.028 . S
O289 C281 1.258 . S
O289 Zn283 2.035 . S
O290 Zn283 2.028 . S
O290 C293 1.247 . S
O291 Zn285 2.035 . S
O291 C293 1.258 . S
C292 O286 1.247 . S
C292 O287 1.258 . S
C293 O290 1.247 . S
C293 O291 1.258 . S
C294 O296 1.247 . S
C294 O298 1.258 . S
C295 O302 1.247 . S
C295 O303 1.258 . S
O296 C294 1.247 . S
O296 Zn297 2.028 . S
Zn297 O296 2.028 . S
Zn297 O301 2.035 . S
Zn297 O303 2.035 . S
Zn297 O304 2.028 . S
O298 C294 1.258 . S
O298 Zn299 2.035 . S
Zn299 O298 2.035 . S
Zn299 O300 2.028 . S
Zn299 O302 2.028 . S
Zn299 O305 2.035 . S
O300 Zn299 2.028 . S
O300 C306 1.247 . S
O301 Zn297 2.035 . S
O301 C306 1.258 . S
O302 C295 1.247 . S
O302 Zn299 2.028 . S
O303 C295 1.258 . S
O303 Zn297 2.035 . S
O304 Zn297 2.028 . S
O304 C307 1.247 . S
O305 Zn299 2.035 . S
O305 C307 1.258 . S
C306 O300 1.247 . S
C306 O301 1.258 . S
C307 O304 1.247 . S
C307 O305 1.258 . S
C308 O310 1.247 . S
C308 O312 1.258 . S
C309 O316 1.247 . S
C309 O317 1.258 . S
O310 C308 1.247 . S
O310 Zn311 2.028 . S
Zn311 O310 2.028 . S
Zn311 O315 2.035 . S
Zn311 O317 2.035 . S
Zn311 O318 2.028 . S
O312 C308 1.258 . S
O312 Zn313 2.035 . S
Zn313 O312 2.035 . S
Zn313 O314 2.028 . S
Zn313 O316 2.028 . S
Zn313 O319 2.035 . S
O314 Zn313 2.028 . S
O314 C320 1.247 . S
O315 Zn311 2.035 . S
O315 C320 1.258 . S
O316 C309 1.247 . S
O316 Zn313 2.028 . S
O317 C309 1.258 . S
O317 Zn311 2.035 . S
O318 Zn311 2.028 . S
O318 C321 1.247 . S
O319 Zn313 2.035 . S
O319 C321 1.258 . S
C320 O314 1.247 . S
C320 O315 1.258 . S
C321 O318 1.247 . S
C321 O319 1.258 . S
C322 O324 1.247 . S
C322 O326 1.258 . S
C323 O330 1.247 . S
C323 O331 1.258 . S
O324 C322 1.247 . S
O324 Zn325 2.028 . S
Zn325 O324 2.028 . S
Zn325 O329 2.035 . S
Zn325 O331 2.035 . S
Zn325 O332 2.028 . S
O326 C322 1.258 . S
O326 Zn327 2.035 . S
Zn327 O326 2.035 . S
Zn327 O328 2.028 . S
Zn327 O330 2.028 . S
Zn327 O333 2.035 . S
O328 Zn327 2.028 . S
O328 C334 1.247 . S
O329 Zn325 2.035 . S
O329 C334 1.258 . S
O330 C323 1.247 . S
O330 Zn327 2.028 . S
O331 C323 1.258 . S
O331 Zn325 2.035 . S
O332 Zn325 2.028 . S
O332 C335 1.247 . S
O333 Zn327 2.035 . S
O333 C335 1.258 . S
C334 O328 1.247 . S
C334 O329 1.258 . S
C335 O332 1.247 . S
C335 O333 1.258 . S
C336 O338 1.247 . S
C336 O340 1.258 . S
C337 O344 1.247 . S
C337 O345 1.258 . S
O338 C336 1.247 . S
O338 Zn339 2.028 . S
Zn339 O338 2.028 . S
Zn339 O343 2.035 . S
Zn339 O345 2.035 . S
Zn339 O346 2.028 . S
O340 C336 1.258 . S
O340 Zn341 2.035 . S
Zn341 O340 2.035 . S
Zn341 O342 2.028 . S
Zn341 O344 2.028 . S
Zn341 O347 2.035 . S
O342 Zn341 2.028 . S
O342 C348 1.247 . S
O343 Zn339 2.035 . S
O343 C348 1.258 . S
O344 C337 1.247 . S
O344 Zn341 2.028 . S
O345 C337 1.258 . S
O345 Zn339 2.035 . S
O346 Zn339 2.028 . S
O346 C349 1.247 . S
O347 Zn341 2.035 . S
O347 C349 1.258 . S
C348 O342 1.247 . S
C348 O343 1.258 . S
C349 O346 1.247 . S
C349 O347 1.258 . S
C350 O352 1.247 . S
C350 O354 1.258 . S
C351 O358 1.247 . S
C351 O359 1.258 . S
O352 C350 1.247 . S
O352 Zn353 2.028 . S
Zn353 O352 2.028 . S
Zn353 O357 2.035 . S
Zn353 O359 2.035 . S
Zn353 O360 2.028 . S
O354 C350 1.258 . S
O354 Zn355 2.035 . S
Zn355 O354 2.035 . S
Zn355 O356 2.028 . S
Zn355 O358 2.028 . S
Zn355 O361 2.035 . S
O356 Zn355 2.028 . S
O356 C362 1.247 . S
O357 Zn353 2.035 . S
O357 C362 1.258 . S
O358 C351 1.247 . S
O358 Zn355 2.028 . S
O359 C351 1.258 . S
O359 Zn353 2.035 . S
O360 Zn353 2.028 . S
O360 C363 1.247 . S
O361 Zn355 2.035 . S
O361 C363 1.258 . S
C362 O356 1.247 . S
C362 O357 1.258 . S
C363 O360 1.247 . S
C363 O361 1.258 . S
C364 O366 1.247 . S
C364 O368 1.258 . S
C365 O372 1.247 . S
C365 O373 1.258 . S
O366 C364 1.247 . S
O366 Zn367 2.028 1_554 S
Zn367 O366 2.028 1_556 S
Zn367 O371 2.034 1_556 S
Zn367 O373 2.035 . S
Zn367 O374 2.028 . S
O368 C364 1.258 . S
O368 Zn369 2.035 . S
Zn369 O368 2.035 . S
Zn369 O370 2.028 . S
Zn369 O372 2.028 1_554 S
Zn369 O375 2.032 1_554 S
O370 Zn369 2.028 . S
O370 C376 1.256 . S
O371 Zn367 2.034 1_554 S
O371 C376 1.257 . S
O372 C365 1.247 . S
O372 Zn369 2.028 1_556 S
O373 C365 1.258 . S
O373 Zn367 2.035 . S
O374 Zn367 2.028 . S
O374 C377 1.247 . S
O375 Zn369 2.032 1_556 S
O375 C377 1.261 . S
C376 O370 1.256 . S
C376 O371 1.257 . S
C377 O374 1.247 . S
C377 O375 1.261 . S
C378 O380 1.247 . S
C378 O382 1.258 . S
C379 O386 1.247 . S
C379 O387 1.258 . S
O380 C378 1.247 . S
O380 Zn381 2.028 1_554 S
Zn381 O380 2.028 1_556 S
Zn381 O385 2.034 1_556 S
Zn381 O387 2.035 . S
Zn381 O388 2.028 . S
O382 C378 1.258 . S
O382 Zn383 2.035 . S
Zn383 O382 2.035 . S
Zn383 O384 2.028 . S
Zn383 O386 2.028 1_554 S
Zn383 O389 2.032 1_554 S
O384 Zn383 2.028 . S
O384 C390 1.256 . S
O385 Zn381 2.034 1_554 S
O385 C390 1.257 . S
O386 C379 1.247 . S
O386 Zn383 2.028 1_556 S
O387 C379 1.258 . S
O387 Zn381 2.035 . S
O388 Zn381 2.028 . S
O388 C391 1.247 . S
O389 Zn383 2.032 1_556 S
O389 C391 1.261 . S
C390 O384 1.256 . S
C390 O385 1.257 . S
C391 O388 1.247 . S
C391 O389 1.261 . S
C392 O394 1.247 . S
C392 O396 1.258 . S
C393 O400 1.247 . S
C393 O401 1.258 . S
O394 C392 1.247 . S
O394 Zn395 2.028 . S
Zn395 O394 2.028 . S
Zn395 O399 2.035 . S
Zn395 O401 2.035 . S
Zn395 O402 2.028 . S
O396 C392 1.258 . S
O396 Zn397 2.035 . S
Zn397 O396 2.035 . S
Zn397 O398 2.028 . S
Zn397 O400 2.028 . S
Zn397 O403 2.035 . S
O398 Zn397 2.028 . S
O398 C404 1.247 . S
O399 Zn395 2.035 . S
O399 C404 1.258 . S
O400 C393 1.247 . S
O400 Zn397 2.028 . S
O401 C393 1.258 . S
O401 Zn395 2.035 . S
O402 Zn395 2.028 . S
O402 C405 1.247 . S
O403 Zn397 2.035 . S
O403 C405 1.258 . S
C404 O398 1.247 . S
C404 O399 1.258 . S
C405 O402 1.247 . S
C405 O403 1.258 . S
C406 O408 1.247 . S
C406 O410 1.258 . S
C407 O414 1.247 . S
C407 O415 1.258 . S
O408 C406 1.247 . S
O408 Zn409 2.028 . S
Zn409 O408 2.028 . S
Zn409 O413 2.035 . S
Zn409 O415 2.035 . S
Zn409 O416 2.028 . S
O410 C406 1.258 . S
O410 Zn411 2.035 . S
Zn411 O410 2.035 . S
Zn411 O412 2.028 . S
Zn411 O414 2.028 . S
Zn411 O417 2.035 . S
O412 Zn411 2.028 . S
O412 C418 1.247 . S
O413 Zn409 2.035 . S
O413 C418 1.258 . S
O414 C407 1.247 . S
O414 Zn411 2.028 . S
O415 C407 1.258 . S
O415 Zn409 2.035 . S
O416 Zn409 2.028 . S
O416 C419 1.247 . S
O417 Zn411 2.035 . S
O417 C419 1.258 . S
C418 O412 1.247 . S
C418 O413 1.258 . S
C419 O416 1.247 . S
C419 O417 1.258 . S
C420 O422 1.247 . S
C420 O424 1.258 . S
C421 O428 1.247 . S
C421 O429 1.258 . S
O422 C420 1.247 . S
O422 Zn423 2.028 1_554 S
Zn423 O422 2.028 1_556 S
Zn423 O427 2.032 1_556 S
Zn423 O429 2.035 . S
Zn423 O430 2.028 . S
O424 C420 1.258 . S
O424 Zn425 2.035 . S
Zn425 O424 2.035 . S
Zn425 O426 2.028 . S
Zn425 O428 2.028 1_554 S
Zn425 O431 2.035 1_554 S
O426 Zn425 2.028 . S
O426 C432 1.247 . S
O427 Zn423 2.032 1_554 S
O427 C432 1.261 . S
O428 C421 1.247 . S
O428 Zn425 2.028 1_556 S
O429 C421 1.258 . S
O429 Zn423 2.035 . S
O430 Zn423 2.028 . S
O430 C433 1.255 . S
O431 Zn425 2.035 1_556 S
O431 C433 1.257 . S
C432 O426 1.247 . S
C432 O427 1.261 . S
C433 O430 1.255 . S
C433 O431 1.257 . S
C434 O436 1.247 . S
C434 O438 1.258 . S
C435 O442 1.247 . S
C435 O443 1.258 . S
O436 C434 1.247 . S
O436 Zn437 2.028 1_554 S
Zn437 O436 2.028 1_556 S
Zn437 O441 2.032 1_556 S
Zn437 O443 2.035 . S
Zn437 O444 2.028 . S
O438 C434 1.258 . S
O438 Zn439 2.035 . S
Zn439 O438 2.035 . S
Zn439 O440 2.028 . S
Zn439 O442 2.028 1_554 S
Zn439 O445 2.035 1_554 S
O440 Zn439 2.028 . S
O440 C446 1.247 . S
O441 Zn437 2.032 1_554 S
O441 C446 1.261 . S
O442 C435 1.247 . S
O442 Zn439 2.028 1_556 S
O443 C435 1.258 . S
O443 Zn437 2.035 . S
O444 Zn437 2.028 . S
O444 C447 1.255 . S
O445 Zn439 2.035 1_556 S
O445 C447 1.257 . S
C446 O440 1.247 . S
C446 O441 1.261 . S
C447 O444 1.255 . S
C447 O445 1.257 . S
H448 C456 0.929 . S
H449 C458 0.930 . S
H450 C460 0.930 . S
H451 C463 0.929 . S
H452 C466 0.930 . S
H453 C468 0.960 . S
H454 C468 0.960 . S
H455 C468 0.960 . S
C456 H448 0.929 . S
C456 C457 1.377 . S
C456 C458 1.384 . S
C457 C456 1.377 . S
C457 C463 1.390 . S
C458 H449 0.930 . S
C458 C456 1.384 . S
C458 C459 1.372 . S
C459 C458 1.372 . S
C459 C460 1.400 . S
C459 C464 1.490 . S
C460 H450 0.930 . S
C460 C459 1.400 . S
C460 C463 1.386 . S
H461 C477 0.930 . S
H462 C478 0.931 . S
C463 H451 0.929 . S
C463 C457 1.390 . S
C463 C460 1.386 . S
C464 C459 1.490 . S
C464 C466 1.395 . S
C464 C467 1.403 . S
H465 C471 0.930 . S
C466 H452 0.930 . S
C466 C464 1.395 . S
C466 C469 1.403 . S
C467 C464 1.403 . S
C467 C468 1.524 . S
C467 C471 1.400 . S
C468 H453 0.960 . S
C468 H454 0.960 . S
C468 H455 0.960 . S
C468 C467 1.524 . S
C469 C466 1.403 . S
C469 C470 1.392 . S
C469 C473 1.495 . S
C470 C469 1.392 . S
C470 C471 1.385 . S
C470 C472 1.478 . S
C471 H465 0.930 . S
C471 C467 1.400 . S
C471 C470 1.385 . S
C472 C470 1.478 . S
C472 C474 1.381 . S
C472 C478 1.383 . S
C473 C469 1.495 . S
C473 H479 0.959 . S
C473 H480 0.961 . S
C473 H481 0.960 . S
C474 C472 1.381 . S
C474 C475 1.394 . S
C474 H482 0.930 . S
C475 C474 1.394 . S
C475 C476 1.383 . S
C475 H483 0.929 . S
C476 C475 1.383 . S
C476 C477 1.377 . S
C477 H461 0.930 . S
C477 C476 1.377 . S
C477 C478 1.379 . S
C478 H462 0.931 . S
C478 C472 1.383 . S
C478 C477 1.379 . S
H479 C473 0.959 . S
H480 C473 0.961 . S
H481 C473 0.960 . S
H482 C474 0.930 . S
H483 C475 0.929 . S
H484 C492 0.929 . S
H485 C494 0.930 . S
H486 C496 0.930 . S
H487 C499 0.929 . S
H488 C502 0.930 . S
H489 C504 0.960 . S
H490 C504 0.960 . S
H491 C504 0.960 . S
C492 H484 0.929 . S
C492 C493 1.377 . S
C492 C494 1.384 . S
C493 C492 1.377 . S
C493 C499 1.390 . S
C494 H485 0.930 . S
C494 C492 1.384 . S
C494 C495 1.372 . S
C495 C494 1.372 . S
C495 C496 1.400 . S
C495 C500 1.490 . S
C496 H486 0.930 . S
C496 C495 1.400 . S
C496 C499 1.386 . S
H497 C513 0.930 . S
H498 C514 0.931 . S
C499 H487 0.929 . S
C499 C493 1.390 . S
C499 C496 1.386 . S
C500 C495 1.490 . S
C500 C502 1.395 . S
C500 C503 1.403 . S
H501 C507 0.930 . S
C502 H488 0.930 . S
C502 C500 1.395 . S
C502 C505 1.403 . S
C503 C500 1.403 . S
C503 C504 1.524 . S
C503 C507 1.400 . S
C504 H489 0.960 . S
C504 H490 0.960 . S
C504 H491 0.960 . S
C504 C503 1.524 . S
C505 C502 1.403 . S
C505 C506 1.392 . S
C505 C509 1.495 . S
C506 C505 1.392 . S
C506 C507 1.385 . S
C506 C508 1.478 . S
C507 H501 0.930 . S
C507 C503 1.400 . S
C507 C506 1.385 . S
C508 C506 1.478 . S
C508 C510 1.381 . S
C508 C514 1.383 . S
C509 C505 1.495 . S
C509 H515 0.959 . S
C509 H516 0.961 . S
C509 H517 0.960 . S
C510 C508 1.381 . S
C510 C511 1.394 . S
C510 H518 0.930 . S
C511 C510 1.394 . S
C511 C512 1.383 . S
C511 H519 0.929 . S
C512 C511 1.383 . S
C512 C513 1.377 . S
C513 H497 0.930 . S
C513 C512 1.377 . S
C513 C514 1.379 . S
C514 H498 0.931 . S
C514 C508 1.383 . S
C514 C513 1.379 . S
H515 C509 0.959 . S
H516 C509 0.961 . S
H517 C509 0.960 . S
H518 C510 0.930 . S
H519 C511 0.929 . S
H520 C528 0.929 . S
H521 C530 0.930 . S
H522 C532 0.930 . S
H523 C535 0.929 . S
H524 C538 0.930 . S
H525 C540 0.960 . S
H526 C540 0.960 . S
H527 C540 0.960 . S
C528 H520 0.929 . S
C528 C529 1.377 . S
C528 C530 1.384 . S
C529 C528 1.377 . S
C529 C535 1.390 . S
C530 H521 0.930 . S
C530 C528 1.384 . S
C530 C531 1.372 . S
C531 C530 1.372 . S
C531 C532 1.400 . S
C531 C536 1.490 . S
C532 H522 0.930 . S
C532 C531 1.400 . S
C532 C535 1.386 . S
H533 C549 0.930 . S
H534 C550 0.931 . S
C535 H523 0.929 . S
C535 C529 1.390 . S
C535 C532 1.386 . S
C536 C531 1.490 . S
C536 C538 1.395 . S
C536 C539 1.403 . S
H537 C543 0.930 . S
C538 H524 0.930 . S
C538 C536 1.395 . S
C538 C541 1.403 . S
C539 C536 1.403 . S
C539 C540 1.524 . S
C539 C543 1.400 . S
C540 H525 0.960 . S
C540 H526 0.960 . S
C540 H527 0.960 . S
C540 C539 1.524 . S
C541 C538 1.403 . S
C541 C542 1.392 . S
C541 C545 1.495 . S
C542 C541 1.392 . S
C542 C543 1.385 . S
C542 C544 1.478 . S
C543 H537 0.930 . S
C543 C539 1.400 . S
C543 C542 1.385 . S
C544 C542 1.478 . S
C544 C546 1.381 . S
C544 C550 1.383 . S
C545 C541 1.495 . S
C545 H551 0.959 . S
C545 H552 0.961 . S
C545 H553 0.960 . S
C546 C544 1.381 . S
C546 C547 1.394 . S
C546 H554 0.930 . S
C547 C546 1.394 . S
C547 C548 1.383 . S
C547 H555 0.929 . S
C548 C547 1.383 . S
C548 C549 1.377 . S
C549 H533 0.930 . S
C549 C548 1.377 . S
C549 C550 1.379 . S
C550 H534 0.931 . S
C550 C544 1.383 . S
C550 C549 1.379 . S
H551 C545 0.959 . S
H552 C545 0.961 . S
H553 C545 0.960 . S
H554 C546 0.930 . S
H555 C547 0.929 . S
H556 C564 0.929 . S
H557 C566 0.930 . S
H558 C568 0.930 . S
H559 C571 0.929 . S
H560 C574 0.930 . S
H561 C576 0.960 . S
H562 C576 0.960 . S
H563 C576 0.960 . S
C564 H556 0.929 . S
C564 C565 1.377 . S
C564 C566 1.384 . S
C565 C564 1.377 . S
C565 C571 1.390 . S
C566 H557 0.930 . S
C566 C564 1.384 . S
C566 C567 1.372 . S
C567 C566 1.372 . S
C567 C568 1.400 . S
C567 C572 1.490 . S
C568 H558 0.930 . S
C568 C567 1.400 . S
C568 C571 1.386 . S
H569 C585 0.930 . S
H570 C586 0.931 . S
C571 H559 0.929 . S
C571 C565 1.390 . S
C571 C568 1.386 . S
C572 C567 1.490 . S
C572 C574 1.395 . S
C572 C575 1.403 . S
H573 C579 0.930 . S
C574 H560 0.930 . S
C574 C572 1.395 . S
C574 C577 1.403 . S
C575 C572 1.403 . S
C575 C576 1.524 . S
C575 C579 1.400 . S
C576 H561 0.960 . S
C576 H562 0.960 . S
C576 H563 0.960 . S
C576 C575 1.524 . S
C577 C574 1.403 . S
C577 C578 1.392 . S
C577 C581 1.495 . S
C578 C577 1.392 . S
C578 C579 1.385 . S
C578 C580 1.478 . S
C579 H573 0.930 . S
C579 C575 1.400 . S
C579 C578 1.385 . S
C580 C578 1.478 . S
C580 C582 1.381 . S
C580 C586 1.383 . S
C581 C577 1.495 . S
C581 H587 0.959 . S
C581 H588 0.961 . S
C581 H589 0.960 . S
C582 C580 1.381 . S
C582 C583 1.394 . S
C582 H590 0.930 . S
C583 C582 1.394 . S
C583 C584 1.383 . S
C583 H591 0.929 . S
C584 C583 1.383 . S
C584 C585 1.377 . S
C585 H569 0.930 . S
C585 C584 1.377 . S
C585 C586 1.379 . S
C586 H570 0.931 . S
C586 C580 1.383 . S
C586 C585 1.379 . S
H587 C581 0.959 . S
H588 C581 0.961 . S
H589 C581 0.960 . S
H590 C582 0.930 . S
H591 C583 0.929 . S
H592 C600 0.929 . S
H593 C602 0.930 . S
H594 C604 0.930 . S
H595 C607 0.929 . S
H596 C610 0.930 . S
H597 C612 0.960 . S
H598 C612 0.960 . S
H599 C612 0.960 . S
C600 H592 0.929 . S
C600 C601 1.377 . S
C600 C602 1.384 . S
C601 C600 1.377 . S
C601 C607 1.390 . S
C602 H593 0.930 . S
C602 C600 1.384 . S
C602 C603 1.372 . S
C603 C602 1.372 . S
C603 C604 1.400 . S
C603 C608 1.490 . S
C604 H594 0.930 . S
C604 C603 1.400 . S
C604 C607 1.386 . S
H605 C621 0.930 . S
H606 C622 0.931 . S
C607 H595 0.929 . S
C607 C601 1.390 . S
C607 C604 1.386 . S
C608 C603 1.490 . S
C608 C610 1.395 . S
C608 C611 1.403 . S
H609 C615 0.930 . S
C610 H596 0.930 . S
C610 C608 1.395 . S
C610 C613 1.403 . S
C611 C608 1.403 . S
C611 C612 1.524 . S
C611 C615 1.400 . S
C612 H597 0.960 . S
C612 H598 0.960 . S
C612 H599 0.960 . S
C612 C611 1.524 . S
C613 C610 1.403 . S
C613 C614 1.392 . S
C613 C617 1.495 . S
C614 C613 1.392 . S
C614 C615 1.385 . S
C614 C616 1.478 . S
C615 H609 0.930 . S
C615 C611 1.400 . S
C615 C614 1.385 . S
C616 C614 1.478 . S
C616 C618 1.381 . S
C616 C622 1.383 . S
C617 C613 1.495 . S
C617 H623 0.959 . S
C617 H624 0.961 . S
C617 H625 0.960 . S
C618 C616 1.381 . S
C618 C619 1.394 . S
C618 H626 0.930 . S
C619 C618 1.394 . S
C619 C620 1.383 . S
C619 H627 0.929 . S
C620 C619 1.383 . S
C620 C621 1.377 . S
C621 H605 0.930 . S
C621 C620 1.377 . S
C621 C622 1.379 . S
C622 H606 0.931 . S
C622 C616 1.383 . S
C622 C621 1.379 . S
H623 C617 0.959 . S
H624 C617 0.961 . S
H625 C617 0.960 . S
H626 C618 0.930 . S
H627 C619 0.929 . S
H628 C636 0.929 . S
H629 C638 0.930 . S
H630 C640 0.930 . S
H631 C643 0.929 . S
H632 C646 0.930 . S
H633 C648 0.960 . S
H634 C648 0.960 . S
H635 C648 0.960 . S
C636 H628 0.929 . S
C636 C637 1.377 . S
C636 C638 1.384 . S
C637 C636 1.377 . S
C637 C643 1.390 . S
C638 H629 0.930 . S
C638 C636 1.384 . S
C638 C639 1.372 . S
C639 C638 1.372 . S
C639 C640 1.400 . S
C639 C644 1.490 . S
C640 H630 0.930 . S
C640 C639 1.400 . S
C640 C643 1.386 . S
H641 C657 0.930 . S
H642 C658 0.931 . S
C643 H631 0.929 . S
C643 C637 1.390 . S
C643 C640 1.386 . S
C644 C639 1.490 . S
C644 C646 1.395 . S
C644 C647 1.403 . S
H645 C651 0.930 . S
C646 H632 0.930 . S
C646 C644 1.395 . S
C646 C649 1.403 . S
C647 C644 1.403 . S
C647 C648 1.524 . S
C647 C651 1.400 . S
C648 H633 0.960 . S
C648 H634 0.960 . S
C648 H635 0.960 . S
C648 C647 1.524 . S
C649 C646 1.403 . S
C649 C650 1.392 . S
C649 C653 1.495 . S
C650 C649 1.392 . S
C650 C651 1.385 . S
C650 C652 1.478 . S
C651 H645 0.930 . S
C651 C647 1.400 . S
C651 C650 1.385 . S
C652 C650 1.478 . S
C652 C654 1.381 . S
C652 C658 1.383 . S
C653 C649 1.495 . S
C653 H659 0.959 . S
C653 H660 0.961 . S
C653 H661 0.960 . S
C654 C652 1.381 . S
C654 C655 1.394 . S
C654 H662 0.930 . S
C655 C654 1.394 . S
C655 C656 1.383 . S
C655 H663 0.929 . S
C656 C655 1.383 . S
C656 C657 1.377 . S
C657 H641 0.930 . S
C657 C656 1.377 . S
C657 C658 1.379 . S
C658 H642 0.931 . S
C658 C652 1.383 . S
C658 C657 1.379 . S
H659 C653 0.959 . S
H660 C653 0.961 . S
H661 C653 0.960 . S
H662 C654 0.930 . S
H663 C655 0.929 . S
H664 C672 0.929 . S
H665 C674 0.930 . S
H666 C676 0.930 . S
H667 C679 0.929 . S
H668 C682 0.930 . S
H669 C684 0.960 . S
H670 C684 0.960 . S
H671 C684 0.960 . S
C672 H664 0.929 . S
C672 C673 1.377 . S
C672 C674 1.384 . S
C673 C672 1.377 . S
C673 C679 1.390 . S
C674 H665 0.930 . S
C674 C672 1.384 . S
C674 C675 1.372 . S
C675 C674 1.372 . S
C675 C676 1.400 . S
C675 C680 1.490 . S
C676 H666 0.930 . S
C676 C675 1.400 . S
C676 C679 1.386 . S
H677 C693 0.930 . S
H678 C694 0.931 . S
C679 H667 0.929 . S
C679 C673 1.390 . S
C679 C676 1.386 . S
C680 C675 1.490 . S
C680 C682 1.395 . S
C680 C683 1.403 . S
H681 C687 0.930 . S
C682 H668 0.930 . S
C682 C680 1.395 . S
C682 C685 1.403 . S
C683 C680 1.403 . S
C683 C684 1.524 . S
C683 C687 1.400 . S
C684 H669 0.960 . S
C684 H670 0.960 . S
C684 H671 0.960 . S
C684 C683 1.524 . S
C685 C682 1.403 . S
C685 C686 1.392 . S
C685 C689 1.495 . S
C686 C685 1.392 . S
C686 C687 1.385 . S
C686 C688 1.478 . S
C687 H681 0.930 . S
C687 C683 1.400 . S
C687 C686 1.385 . S
C688 C686 1.478 . S
C688 C690 1.381 . S
C688 C694 1.383 . S
C689 C685 1.495 . S
C689 H695 0.959 . S
C689 H696 0.961 . S
C689 H697 0.960 . S
C690 C688 1.381 . S
C690 C691 1.394 . S
C690 H698 0.930 . S
C691 C690 1.394 . S
C691 C692 1.383 . S
C691 H699 0.929 . S
C692 C691 1.383 . S
C692 C693 1.377 . S
C693 H677 0.930 . S
C693 C692 1.377 . S
C693 C694 1.379 . S
C694 H678 0.931 . S
C694 C688 1.383 . S
C694 C693 1.379 . S
H695 C689 0.959 . S
H696 C689 0.961 . S
H697 C689 0.960 . S
H698 C690 0.930 . S
H699 C691 0.929 . S
H700 C708 0.929 . S
H701 C710 0.930 . S
H702 C712 0.930 . S
H703 C715 0.929 . S
H704 C718 0.930 . S
H705 C720 0.960 . S
H706 C720 0.960 . S
H707 C720 0.960 . S
C708 H700 0.929 . S
C708 C709 1.377 . S
C708 C710 1.384 . S
C709 C708 1.377 . S
C709 C715 1.390 . S
C710 H701 0.930 . S
C710 C708 1.384 . S
C710 C711 1.372 . S
C711 C710 1.372 . S
C711 C712 1.400 . S
C711 C716 1.490 . S
C712 H702 0.930 . S
C712 C711 1.400 . S
C712 C715 1.386 . S
H713 C729 0.930 . S
H714 C730 0.931 . S
C715 H703 0.929 . S
C715 C709 1.390 . S
C715 C712 1.386 . S
C716 C711 1.490 . S
C716 C718 1.395 . S
C716 C719 1.403 . S
H717 C723 0.930 . S
C718 H704 0.930 . S
C718 C716 1.395 . S
C718 C721 1.403 . S
C719 C716 1.403 . S
C719 C720 1.524 . S
C719 C723 1.400 . S
C720 H705 0.960 . S
C720 H706 0.960 . S
C720 H707 0.960 . S
C720 C719 1.524 . S
C721 C718 1.403 . S
C721 C722 1.392 . S
C721 C725 1.495 . S
C722 C721 1.392 . S
C722 C723 1.385 . S
C722 C724 1.478 . S
C723 H717 0.930 . S
C723 C719 1.400 . S
C723 C722 1.385 . S
C724 C722 1.478 . S
C724 C726 1.381 . S
C724 C730 1.383 . S
C725 C721 1.495 . S
C725 H731 0.959 . S
C725 H732 0.961 . S
C725 H733 0.960 . S
C726 C724 1.381 . S
C726 C727 1.394 . S
C726 H734 0.930 . S
C727 C726 1.394 . S
C727 C728 1.383 . S
C727 H735 0.929 . S
C728 C727 1.383 . S
C728 C729 1.377 . S
C729 H713 0.930 . S
C729 C728 1.377 . S
C729 C730 1.379 . S
C730 H714 0.931 . S
C730 C724 1.383 . S
C730 C729 1.379 . S
H731 C725 0.959 . S
H732 C725 0.961 . S
H733 C725 0.960 . S
H734 C726 0.930 . S
H735 C727 0.929 . S
H736 C744 0.929 . S
H737 C746 0.930 . S
H738 C748 0.930 . S
H739 C751 0.929 . S
H740 C754 0.930 . S
H741 C756 0.960 . S
H742 C756 0.960 . S
H743 C756 0.960 . S
C744 H736 0.929 . S
C744 C745 1.377 . S
C744 C746 1.384 . S
C745 C744 1.377 . S
C745 C751 1.390 . S
C746 H737 0.930 . S
C746 C744 1.384 . S
C746 C747 1.372 . S
C747 C746 1.372 . S
C747 C748 1.400 . S
C747 C752 1.490 . S
C748 H738 0.930 . S
C748 C747 1.400 . S
C748 C751 1.386 . S
H749 C765 0.930 . S
H750 C766 0.931 . S
C751 H739 0.929 . S
C751 C745 1.390 . S
C751 C748 1.386 . S
C752 C747 1.490 . S
C752 C754 1.395 . S
C752 C755 1.403 . S
H753 C759 0.930 . S
C754 H740 0.930 . S
C754 C752 1.395 . S
C754 C757 1.403 . S
C755 C752 1.403 . S
C755 C756 1.524 . S
C755 C759 1.400 . S
C756 H741 0.960 . S
C756 H742 0.960 . S
C756 H743 0.960 . S
C756 C755 1.524 . S
C757 C754 1.403 . S
C757 C758 1.392 . S
C757 C761 1.495 . S
C758 C757 1.392 . S
C758 C759 1.385 . S
C758 C760 1.478 . S
C759 H753 0.930 . S
C759 C755 1.400 . S
C759 C758 1.385 . S
C760 C758 1.478 . S
C760 C762 1.381 . S
C760 C766 1.383 . S
C761 C757 1.495 . S
C761 H767 0.959 . S
C761 H768 0.961 . S
C761 H769 0.960 . S
C762 C760 1.381 . S
C762 C763 1.394 . S
C762 H770 0.930 . S
C763 C762 1.394 . S
C763 C764 1.383 . S
C763 H771 0.929 . S
C764 C763 1.383 . S
C764 C765 1.377 . S
C765 H749 0.930 . S
C765 C764 1.377 . S
C765 C766 1.379 . S
C766 H750 0.931 . S
C766 C760 1.383 . S
C766 C765 1.379 . S
H767 C761 0.959 . S
H768 C761 0.961 . S
H769 C761 0.960 . S
H770 C762 0.930 . S
H771 C763 0.929 . S
H772 C780 0.929 . S
H773 C782 0.930 . S
H774 C784 0.930 . S
H775 C787 0.929 . S
H776 C790 0.930 . S
H777 C792 0.960 . S
H778 C792 0.960 . S
H779 C792 0.960 . S
C780 H772 0.929 . S
C780 C781 1.377 . S
C780 C782 1.384 . S
C781 C780 1.377 . S
C781 C787 1.390 . S
C782 H773 0.930 . S
C782 C780 1.384 . S
C782 C783 1.372 . S
C783 C782 1.372 . S
C783 C784 1.400 . S
C783 C788 1.490 . S
C784 H774 0.930 . S
C784 C783 1.400 . S
C784 C787 1.386 . S
H785 C801 0.930 . S
H786 C802 0.931 . S
C787 H775 0.929 . S
C787 C781 1.390 . S
C787 C784 1.386 . S
C788 C783 1.490 . S
C788 C790 1.395 . S
C788 C791 1.403 . S
H789 C795 0.930 . S
C790 H776 0.930 . S
C790 C788 1.395 . S
C790 C793 1.403 . S
C791 C788 1.403 . S
C791 C792 1.524 . S
C791 C795 1.400 . S
C792 H777 0.960 . S
C792 H778 0.960 . S
C792 H779 0.960 . S
C792 C791 1.524 . S
C793 C790 1.403 . S
C793 C794 1.392 . S
C793 C797 1.495 . S
C794 C793 1.392 . S
C794 C795 1.385 . S
C794 C796 1.478 . S
C795 H789 0.930 . S
C795 C791 1.400 . S
C795 C794 1.385 . S
C796 C794 1.478 . S
C796 C798 1.381 . S
C796 C802 1.383 . S
C797 C793 1.495 . S
C797 H803 0.959 . S
C797 H804 0.961 . S
C797 H805 0.960 . S
C798 C796 1.381 . S
C798 C799 1.394 . S
C798 H806 0.930 . S
C799 C798 1.394 . S
C799 C800 1.383 . S
C799 H807 0.929 . S
C800 C799 1.383 . S
C800 C801 1.377 . S
C801 H785 0.930 . S
C801 C800 1.377 . S
C801 C802 1.379 . S
C802 H786 0.931 . S
C802 C796 1.383 . S
C802 C801 1.379 . S
H803 C797 0.959 . S
H804 C797 0.961 . S
H805 C797 0.960 . S
H806 C798 0.930 . S
H807 C799 0.929 . S
H808 C816 0.929 . S
H809 C818 0.930 . S
H810 C820 0.930 . S
H811 C823 0.929 . S
H812 C826 0.930 . S
H813 C828 0.960 . S
H814 C828 0.960 . S
H815 C828 0.960 . S
C816 H808 0.929 . S
C816 C817 1.377 . S
C816 C818 1.384 . S
C817 C816 1.377 . S
C817 C823 1.390 . S
C818 H809 0.930 . S
C818 C816 1.384 . S
C818 C819 1.372 . S
C819 C818 1.372 . S
C819 C820 1.400 . S
C819 C824 1.490 . S
C820 H810 0.930 . S
C820 C819 1.400 . S
C820 C823 1.386 . S
H821 C837 0.930 . S
H822 C838 0.931 . S
C823 H811 0.929 . S
C823 C817 1.390 . S
C823 C820 1.386 . S
C824 C819 1.490 . S
C824 C826 1.395 . S
C824 C827 1.403 . S
H825 C831 0.930 . S
C826 H812 0.930 . S
C826 C824 1.395 . S
C826 C829 1.403 . S
C827 C824 1.403 . S
C827 C828 1.524 . S
C827 C831 1.400 . S
C828 H813 0.960 . S
C828 H814 0.960 . S
C828 H815 0.960 . S
C828 C827 1.524 . S
C829 C826 1.403 . S
C829 C830 1.392 . S
C829 C833 1.495 . S
C830 C829 1.392 . S
C830 C831 1.385 . S
C830 C832 1.478 . S
C831 H825 0.930 . S
C831 C827 1.400 . S
C831 C830 1.385 . S
C832 C830 1.478 . S
C832 C834 1.381 . S
C832 C838 1.383 . S
C833 C829 1.495 . S
C833 H839 0.959 . S
C833 H840 0.961 . S
C833 H841 0.960 . S
C834 C832 1.381 . S
C834 C835 1.394 . S
C834 H842 0.930 . S
C835 C834 1.394 . S
C835 C836 1.383 . S
C835 H843 0.929 . S
C836 C835 1.383 . S
C836 C837 1.377 . S
C837 H821 0.930 . S
C837 C836 1.377 . S
C837 C838 1.379 . S
C838 H822 0.931 . S
C838 C832 1.383 . S
C838 C837 1.379 . S
H839 C833 0.959 . S
H840 C833 0.961 . S
H841 C833 0.960 . S
H842 C834 0.930 . S
H843 C835 0.929 . S
H844 C852 0.929 . S
H845 C854 0.930 . S
H846 C856 0.930 . S
H847 C859 0.929 . S
H848 C862 0.930 . S
H849 C864 0.960 . S
H850 C864 0.960 . S
H851 C864 0.960 . S
C852 H844 0.929 . S
C852 C853 1.377 . S
C852 C854 1.384 . S
C853 C852 1.377 . S
C853 C859 1.390 . S
C854 H845 0.930 . S
C854 C852 1.384 . S
C854 C855 1.372 . S
C855 C854 1.372 . S
C855 C856 1.400 . S
C855 C860 1.490 . S
C856 H846 0.930 . S
C856 C855 1.400 . S
C856 C859 1.386 . S
H857 C873 0.930 . S
H858 C874 0.931 . S
C859 H847 0.929 . S
C859 C853 1.390 . S
C859 C856 1.386 . S
C860 C855 1.490 . S
C860 C862 1.395 . S
C860 C863 1.403 . S
H861 C867 0.930 . S
C862 H848 0.930 . S
C862 C860 1.395 . S
C862 C865 1.403 . S
C863 C860 1.403 . S
C863 C864 1.524 . S
C863 C867 1.400 . S
C864 H849 0.960 . S
C864 H850 0.960 . S
C864 H851 0.960 . S
C864 C863 1.524 . S
C865 C862 1.403 . S
C865 C866 1.392 . S
C865 C869 1.495 . S
C866 C865 1.392 . S
C866 C867 1.385 . S
C866 C868 1.478 . S
C867 H861 0.930 . S
C867 C863 1.400 . S
C867 C866 1.385 . S
C868 C866 1.478 . S
C868 C870 1.381 . S
C868 C874 1.383 . S
C869 C865 1.495 . S
C869 H875 0.959 . S
C869 H876 0.961 . S
C869 H877 0.960 . S
C870 C868 1.381 . S
C870 C871 1.394 . S
C870 H878 0.930 . S
C871 C870 1.394 . S
C871 C872 1.383 . S
C871 H879 0.929 . S
C872 C871 1.383 . S
C872 C873 1.377 . S
C873 H857 0.930 . S
C873 C872 1.377 . S
C873 C874 1.379 . S
C874 H858 0.931 . S
C874 C868 1.383 . S
C874 C873 1.379 . S
H875 C869 0.959 . S
H876 C869 0.961 . S
H877 C869 0.960 . S
H878 C870 0.930 . S
H879 C871 0.929 . S
H880 C888 0.929 . S
H881 C890 0.930 . S
H882 C892 0.930 . S
H883 C895 0.929 . S
H884 C898 0.930 . S
H885 C900 0.960 . S
H886 C900 0.960 . S
H887 C900 0.960 . S
C888 H880 0.929 . S
C888 C889 1.377 . S
C888 C890 1.384 . S
C889 C888 1.377 . S
C889 C895 1.390 . S
C890 H881 0.930 . S
C890 C888 1.384 . S
C890 C891 1.372 . S
C891 C890 1.372 . S
C891 C892 1.400 . S
C891 C896 1.490 . S
C892 H882 0.930 . S
C892 C891 1.400 . S
C892 C895 1.386 . S
H893 C909 0.930 . S
H894 C910 0.931 . S
C895 H883 0.929 . S
C895 C889 1.390 . S
C895 C892 1.386 . S
C896 C891 1.490 . S
C896 C898 1.395 . S
C896 C899 1.403 . S
H897 C903 0.930 . S
C898 H884 0.930 . S
C898 C896 1.395 . S
C898 C901 1.403 . S
C899 C896 1.403 . S
C899 C900 1.524 . S
C899 C903 1.400 . S
C900 H885 0.960 . S
C900 H886 0.960 . S
C900 H887 0.960 . S
C900 C899 1.524 . S
C901 C898 1.403 . S
C901 C902 1.392 . S
C901 C905 1.495 . S
C902 C901 1.392 . S
C902 C903 1.385 . S
C902 C904 1.478 . S
C903 H897 0.930 . S
C903 C899 1.400 . S
C903 C902 1.385 . S
C904 C902 1.478 . S
C904 C906 1.381 . S
C904 C910 1.383 . S
C905 C901 1.495 . S
C905 H911 0.959 . S
C905 H912 0.961 . S
C905 H913 0.960 . S
C906 C904 1.381 . S
C906 C907 1.394 . S
C906 H914 0.930 . S
C907 C906 1.394 . S
C907 C908 1.383 . S
C907 H915 0.929 . S
C908 C907 1.383 . S
C908 C909 1.377 . S
C909 H893 0.930 . S
C909 C908 1.377 . S
C909 C910 1.379 . S
C910 H894 0.931 . S
C910 C904 1.383 . S
C910 C909 1.379 . S
H911 C905 0.959 . S
H912 C905 0.961 . S
H913 C905 0.960 . S
H914 C906 0.930 . S
H915 C907 0.929 . S
H916 C924 0.929 . S
H917 C926 0.930 . S
H918 C928 0.930 . S
H919 C931 0.929 . S
H920 C934 0.930 . S
H921 C936 0.960 . S
H922 C936 0.960 . S
H923 C936 0.960 . S
C924 H916 0.929 . S
C924 C925 1.377 . S
C924 C926 1.384 . S
C925 C924 1.377 . S
C925 C931 1.390 . S
C926 H917 0.930 . S
C926 C924 1.384 . S
C926 C927 1.372 . S
C927 C926 1.372 . S
C927 C928 1.400 . S
C927 C932 1.490 . S
C928 H918 0.930 . S
C928 C927 1.400 . S
C928 C931 1.386 . S
H929 C945 0.930 . S
H930 C946 0.931 . S
C931 H919 0.929 . S
C931 C925 1.390 . S
C931 C928 1.386 . S
C932 C927 1.490 . S
C932 C934 1.395 . S
C932 C935 1.403 . S
H933 C939 0.930 . S
C934 H920 0.930 . S
C934 C932 1.395 . S
C934 C937 1.403 . S
C935 C932 1.403 . S
C935 C936 1.524 . S
C935 C939 1.400 . S
C936 H921 0.960 . S
C936 H922 0.960 . S
C936 H923 0.960 . S
C936 C935 1.524 . S
C937 C934 1.403 . S
C937 C938 1.392 . S
C937 C941 1.495 . S
C938 C937 1.392 . S
C938 C939 1.385 . S
C938 C940 1.478 . S
C939 H933 0.930 . S
C939 C935 1.400 . S
C939 C938 1.385 . S
C940 C938 1.478 . S
C940 C942 1.381 . S
C940 C946 1.383 . S
C941 C937 1.495 . S
C941 H947 0.959 . S
C941 H948 0.961 . S
C941 H949 0.960 . S
C942 C940 1.381 . S
C942 C943 1.394 . S
C942 H950 0.930 . S
C943 C942 1.394 . S
C943 C944 1.383 . S
C943 H951 0.929 . S
C944 C943 1.383 . S
C944 C945 1.377 . S
C945 H929 0.930 . S
C945 C944 1.377 . S
C945 C946 1.379 . S
C946 H930 0.931 . S
C946 C940 1.383 . S
C946 C945 1.379 . S
H947 C941 0.959 . S
H948 C941 0.961 . S
H949 C941 0.960 . S
H950 C942 0.930 . S
H951 C943 0.929 . S
H952 C960 0.929 . S
H953 C962 0.930 . S
H954 C964 0.930 . S
H955 C967 0.929 . S
H956 C970 0.930 . S
H957 C972 0.960 . S
H958 C972 0.960 . S
H959 C972 0.960 . S
C960 H952 0.929 . S
C960 C961 1.377 . S
C960 C962 1.384 . S
C961 C960 1.377 . S
C961 C967 1.390 . S
C962 H953 0.930 . S
C962 C960 1.384 . S
C962 C963 1.372 . S
C963 C962 1.372 . S
C963 C964 1.400 . S
C963 C968 1.490 . S
C964 H954 0.930 . S
C964 C963 1.400 . S
C964 C967 1.386 . S
H965 C981 0.930 . S
H966 C982 0.931 . S
C967 H955 0.929 . S
C967 C961 1.390 . S
C967 C964 1.386 . S
C968 C963 1.490 . S
C968 C970 1.395 . S
C968 C971 1.403 . S
H969 C975 0.930 . S
C970 H956 0.930 . S
C970 C968 1.395 . S
C970 C973 1.403 . S
C971 C968 1.403 . S
C971 C972 1.524 . S
C971 C975 1.400 . S
C972 H957 0.960 . S
C972 H958 0.960 . S
C972 H959 0.960 . S
C972 C971 1.524 . S
C973 C970 1.403 . S
C973 C974 1.392 . S
C973 C977 1.495 . S
C974 C973 1.392 . S
C974 C975 1.385 . S
C974 C976 1.478 . S
C975 H969 0.930 . S
C975 C971 1.400 . S
C975 C974 1.385 . S
C976 C974 1.478 . S
C976 C978 1.381 . S
C976 C982 1.383 . S
C977 C973 1.495 . S
C977 H983 0.959 . S
C977 H984 0.961 . S
C977 H985 0.960 . S
C978 C976 1.381 . S
C978 C979 1.394 . S
C978 H986 0.930 . S
C979 C978 1.394 . S
C979 C980 1.383 . S
C979 H987 0.929 . S
C980 C979 1.383 . S
C980 C981 1.377 . S
C981 H965 0.930 . S
C981 C980 1.377 . S
C981 C982 1.379 . S
C982 H966 0.931 . S
C982 C976 1.383 . S
C982 C981 1.379 . S
H983 C977 0.959 . S
H984 C977 0.961 . S
H985 C977 0.960 . S
H986 C978 0.930 . S
H987 C979 0.929 . S
H988 C996 0.929 . S
H989 C998 0.930 . S
H990 C1000 0.930 . S
H991 C1003 0.929 . S
H992 C1006 0.930 . S
H993 C1008 0.960 . S
H994 C1008 0.960 . S
H995 C1008 0.960 . S
C996 H988 0.929 . S
C996 C997 1.377 . S
C996 C998 1.384 . S
C997 C996 1.377 . S
C997 C1003 1.390 . S
C998 H989 0.930 . S
C998 C996 1.384 . S
C998 C999 1.372 . S
C999 C998 1.372 . S
C999 C1000 1.400 . S
C999 C1004 1.490 . S
C1000 H990 0.930 . S
C1000 C999 1.400 . S
C1000 C1003 1.386 . S
H1001 C1017 0.930 . S
H1002 C1018 0.931 . S
C1003 H991 0.929 . S
C1003 C997 1.390 . S
C1003 C1000 1.386 . S
C1004 C999 1.490 . S
C1004 C1006 1.395 . S
C1004 C1007 1.403 . S
H1005 C1011 0.930 . S
C1006 H992 0.930 . S
C1006 C1004 1.395 . S
C1006 C1009 1.403 . S
C1007 C1004 1.403 . S
C1007 C1008 1.524 . S
C1007 C1011 1.400 . S
C1008 H993 0.960 . S
C1008 H994 0.960 . S
C1008 H995 0.960 . S
C1008 C1007 1.524 . S
C1009 C1006 1.403 . S
C1009 C1010 1.392 . S
C1009 C1013 1.495 . S
C1010 C1009 1.392 . S
C1010 C1011 1.385 . S
C1010 C1012 1.478 . S
C1011 H1005 0.930 . S
C1011 C1007 1.400 . S
C1011 C1010 1.385 . S
C1012 C1010 1.478 . S
C1012 C1014 1.381 . S
C1012 C1018 1.383 . S
C1013 C1009 1.495 . S
C1013 H1019 0.959 . S
C1013 H1020 0.961 . S
C1013 H1021 0.960 . S
C1014 C1012 1.381 . S
C1014 C1015 1.394 . S
C1014 H1022 0.930 . S
C1015 C1014 1.394 . S
C1015 C1016 1.383 . S
C1015 H1023 0.929 . S
C1016 C1015 1.383 . S
C1016 C1017 1.377 . S
C1017 H1001 0.930 . S
C1017 C1016 1.377 . S
C1017 C1018 1.379 . S
C1018 H1002 0.931 . S
C1018 C1012 1.383 . S
C1018 C1017 1.379 . S
H1019 C1013 0.959 . S
H1020 C1013 0.961 . S
H1021 C1013 0.960 . S
H1022 C1014 0.930 . S
H1023 C1015 0.929 . S
H1024 C1032 0.929 . S
H1025 C1034 0.930 . S
H1026 C1036 0.930 . S
H1027 C1039 0.929 . S
H1028 C1042 0.930 . S
H1029 C1044 0.960 . S
H1030 C1044 0.960 . S
H1031 C1044 0.960 . S
C1032 H1024 0.929 . S
C1032 C1033 1.377 . S
C1032 C1034 1.384 . S
C1033 C1032 1.377 . S
C1033 C1039 1.390 . S
C1034 H1025 0.930 . S
C1034 C1032 1.384 . S
C1034 C1035 1.372 . S
C1035 C1034 1.372 . S
C1035 C1036 1.400 . S
C1035 C1040 1.490 . S
C1036 H1026 0.930 . S
C1036 C1035 1.400 . S
C1036 C1039 1.386 . S
H1037 C1053 0.930 . S
H1038 C1054 0.931 . S
C1039 H1027 0.929 . S
C1039 C1033 1.390 . S
C1039 C1036 1.386 . S
C1040 C1035 1.490 . S
C1040 C1042 1.395 1_655 S
C1040 C1043 1.403 . S
H1041 C1047 0.931 . S
C1042 H1028 0.930 . S
C1042 C1040 1.395 1_455 S
C1042 C1045 1.403 . S
C1043 C1040 1.403 . S
C1043 C1044 1.524 . S
C1043 C1047 1.400 1_655 S
C1044 H1029 0.960 . S
C1044 H1030 0.960 . S
C1044 H1031 0.960 . S
C1044 C1043 1.524 . S
C1045 C1042 1.403 . S
C1045 C1046 1.392 . S
C1045 C1049 1.495 . S
C1046 C1045 1.392 . S
C1046 C1047 1.385 . S
C1046 C1048 1.478 . S
C1047 H1041 0.931 . S
C1047 C1043 1.400 1_455 S
C1047 C1046 1.385 . S
C1048 C1046 1.478 . S
C1048 C1050 1.381 . S
C1048 C1054 1.383 . S
C1049 C1045 1.495 . S
C1049 H1055 0.959 . S
C1049 H1056 0.961 . S
C1049 H1057 0.960 . S
C1050 C1048 1.381 . S
C1050 C1051 1.394 . S
C1050 H1058 0.930 . S
C1051 C1050 1.394 . S
C1051 C1052 1.383 . S
C1051 H1059 0.929 . S
C1052 C1051 1.383 . S
C1052 C1053 1.377 . S
C1053 H1037 0.930 . S
C1053 C1052 1.377 . S
C1053 C1054 1.379 . S
C1054 H1038 0.931 . S
C1054 C1048 1.383 . S
C1054 C1053 1.379 . S
H1055 C1049 0.959 . S
H1056 C1049 0.961 . S
H1057 C1049 0.960 . S
H1058 C1050 0.930 . S
H1059 C1051 0.929 . S
H1060 C1068 0.929 . S
H1061 C1070 0.930 . S
H1062 C1072 0.930 . S
H1063 C1075 0.929 . S
H1064 C1078 0.930 . S
H1065 C1080 0.960 . S
H1066 C1080 0.960 . S
H1067 C1080 0.960 . S
C1068 H1060 0.929 . S
C1068 C1069 1.377 . S
C1068 C1070 1.384 . S
C1069 C1068 1.377 . S
C1069 C1075 1.390 . S
C1070 H1061 0.930 . S
C1070 C1068 1.384 . S
C1070 C1071 1.372 . S
C1071 C1070 1.372 . S
C1071 C1072 1.400 . S
C1071 C1076 1.490 . S
C1072 H1062 0.930 . S
C1072 C1071 1.400 . S
C1072 C1075 1.386 . S
H1073 C1089 0.930 . S
H1074 C1090 0.931 . S
C1075 H1063 0.929 . S
C1075 C1069 1.390 . S
C1075 C1072 1.386 . S
C1076 C1071 1.490 . S
C1076 C1078 1.395 . S
C1076 C1079 1.403 1_565 S
H1077 C1083 0.930 . S
C1078 H1064 0.930 . S
C1078 C1076 1.395 . S
C1078 C1081 1.403 . S
C1079 C1076 1.403 1_545 S
C1079 C1080 1.524 . S
C1079 C1083 1.400 . S
C1080 H1065 0.960 . S
C1080 H1066 0.960 . S
C1080 H1067 0.960 . S
C1080 C1079 1.524 . S
C1081 C1078 1.403 . S
C1081 C1082 1.392 1_565 S
C1081 C1085 1.495 . S
C1082 C1081 1.392 1_545 S
C1082 C1083 1.385 . S
C1082 C1084 1.478 . S
C1083 H1077 0.930 . S
C1083 C1079 1.400 . S
C1083 C1082 1.385 . S
C1084 C1082 1.478 . S
C1084 C1086 1.381 . S
C1084 C1090 1.383 . S
C1085 C1081 1.495 . S
C1085 H1091 0.959 . S
C1085 H1092 0.961 . S
C1085 H1093 0.960 . S
C1086 C1084 1.381 . S
C1086 C1087 1.394 . S
C1086 H1094 0.930 . S
C1087 C1086 1.394 . S
C1087 C1088 1.383 . S
C1087 H1095 0.929 . S
C1088 C1087 1.383 . S
C1088 C1089 1.377 . S
C1089 H1073 0.930 . S
C1089 C1088 1.377 . S
C1089 C1090 1.379 . S
C1090 H1074 0.931 . S
C1090 C1084 1.383 . S
C1090 C1089 1.379 . S
H1091 C1085 0.959 . S
H1092 C1085 0.961 . S
H1093 C1085 0.960 . S
H1094 C1086 0.930 . S
H1095 C1087 0.929 . S
H1096 C1104 0.929 . S
H1097 C1106 0.930 . S
H1098 C1108 0.930 . S
H1099 C1111 0.929 . S
H1100 C1114 0.933 . S
H1101 C1116 0.960 . S
H1102 C1116 0.960 . S
H1103 C1116 0.960 1_556 S
C1104 H1096 0.929 . S
C1104 C1105 1.365 1_554 S
C1104 C1106 1.384 . S
C1105 C1104 1.365 1_556 S
C1105 C1111 1.402 . S
C1106 H1097 0.930 . S
C1106 C1104 1.384 . S
C1106 C1107 1.403 . S
C1107 C1106 1.403 . S
C1107 C1108 1.369 1_554 S
C1107 C1112 1.490 . S
C1108 H1098 0.930 . S
C1108 C1107 1.369 1_556 S
C1108 C1111 1.386 . S
H1109 C1125 0.930 . S
H1110 C1126 0.931 . S
C1111 H1099 0.929 . S
C1111 C1105 1.402 . S
C1111 C1108 1.386 . S
C1112 C1107 1.490 . S
C1112 C1114 1.394 1_565 S
C1112 C1115 1.403 1_455 S
H1113 C1119 0.930 . S
C1114 H1100 0.933 . S
C1114 C1112 1.394 1_545 S
C1114 C1117 1.403 . S
C1115 C1112 1.403 1_655 S
C1115 C1116 1.528 . S
C1115 C1119 1.400 . S
C1116 H1101 0.960 . S
C1116 H1102 0.960 . S
C1116 H1103 0.960 1_554 S
C1116 C1115 1.528 . S
C1117 C1114 1.403 . S
C1117 C1118 1.392 1_455 S
C1117 C1121 1.495 . S
C1118 C1117 1.392 1_655 S
C1118 C1119 1.385 1_545 S
C1118 C1120 1.477 . S
C1119 H1113 0.930 . S
C1119 C1115 1.400 . S
C1119 C1118 1.385 1_565 S
C1120 C1118 1.477 . S
C1120 C1122 1.397 . S
C1120 C1126 1.367 1_554 S
C1121 C1117 1.495 . S
C1121 H1127 0.959 . S
C1121 H1128 0.926 1_554 S
C1121 H1129 0.995 . S
C1122 C1120 1.397 . S
C1122 C1123 1.394 . S
C1122 H1130 0.930 . S
C1123 C1122 1.394 . S
C1123 C1124 1.406 . S
C1123 H1131 0.929 . S
C1124 C1123 1.406 . S
C1124 C1125 1.354 1_554 S
C1125 H1109 0.930 . S
C1125 C1124 1.354 1_556 S
C1125 C1126 1.379 . S
C1126 H1110 0.931 . S
C1126 C1120 1.367 1_556 S
C1126 C1125 1.379 . S
H1127 C1121 0.959 . S
H1128 C1121 0.926 1_556 S
H1129 C1121 0.995 . S
H1130 C1122 0.930 . S
H1131 C1123 0.929 . S
H1132 C1140 0.929 . S
H1133 C1142 0.930 . S
H1134 C1144 0.930 . S
H1135 C1147 0.929 . S
H1136 C1150 0.930 . S
H1137 C1152 0.960 . S
H1138 C1152 0.960 1_556 S
H1139 C1152 0.960 . S
C1140 H1132 0.929 . S
C1140 C1141 1.360 1_556 S
C1140 C1142 1.384 . S
C1141 C1140 1.360 1_554 S
C1141 C1147 1.406 . S
C1142 H1133 0.930 . S
C1142 C1140 1.384 . S
C1142 C1143 1.407 . S
C1143 C1142 1.407 . S
C1143 C1144 1.364 1_556 S
C1143 C1148 1.490 . S
C1144 H1134 0.930 . S
C1144 C1143 1.364 1_554 S
C1144 C1147 1.386 . S
H1145 C1161 0.930 . S
H1146 C1162 0.931 . S
C1147 H1135 0.929 . S
C1147 C1141 1.406 . S
C1147 C1144 1.386 . S
C1148 C1143 1.490 . S
C1148 C1150 1.408 . S
C1148 C1151 1.394 1_556 S
H1149 C1155 0.930 . S
C1150 H1136 0.930 . S
C1150 C1148 1.408 . S
C1150 C1153 1.403 . S
C1151 C1148 1.394 1_554 S
C1151 C1152 1.524 . S
C1151 C1155 1.400 . S
C1152 H1137 0.960 . S
C1152 H1138 0.960 1_554 S
C1152 H1139 0.960 . S
C1152 C1151 1.524 . S
C1153 C1150 1.403 . S
C1153 C1154 1.392 . S
C1153 C1157 1.495 . S
C1154 C1153 1.392 . S
C1154 C1155 1.385 1_556 S
C1154 C1156 1.478 . S
C1155 H1149 0.930 . S
C1155 C1151 1.400 . S
C1155 C1154 1.385 1_554 S
C1156 C1154 1.478 . S
C1156 C1158 1.381 . S
C1156 C1162 1.383 1_556 S
C1157 C1153 1.495 . S
C1157 H1163 0.959 . S
C1157 H1164 0.961 1_556 S
C1157 H1165 0.960 . S
C1158 C1156 1.381 . S
C1158 C1159 1.394 . S
C1158 H1166 0.930 . S
C1159 C1158 1.394 . S
C1159 C1160 1.424 . S
C1159 H1167 0.929 . S
C1160 C1159 1.424 . S
C1160 C1161 1.337 1_556 S
C1161 H1145 0.930 . S
C1161 C1160 1.337 1_554 S
C1161 C1162 1.379 . S
C1162 H1146 0.931 . S
C1162 C1156 1.383 1_554 S
C1162 C1161 1.379 . S
H1163 C1157 0.959 . S
H1164 C1157 0.961 1_554 S
H1165 C1157 0.960 . S
H1166 C1158 0.930 . S
H1167 C1159 0.929 . S
H1168 C1176 0.929 . S
H1169 C1178 0.930 . S
H1170 C1180 0.930 . S
H1171 C1183 0.929 . S
H1172 C1186 0.930 . S
H1173 C1188 0.960 . S
H1174 C1188 0.960 . S
H1175 C1188 0.960 1_655 S
C1176 H1168 0.929 . S
C1176 C1177 1.377 . S
C1176 C1178 1.384 . S
C1177 C1176 1.377 . S
C1177 C1183 1.390 . S
C1178 H1169 0.930 . S
C1178 C1176 1.384 . S
C1178 C1179 1.372 . S
C1179 C1178 1.372 . S
C1179 C1180 1.400 . S
C1179 C1184 1.490 . S
C1180 H1170 0.930 . S
C1180 C1179 1.400 . S
C1180 C1183 1.386 . S
H1181 C1197 0.930 . S
H1182 C1198 0.931 . S
C1183 H1171 0.929 . S
C1183 C1177 1.390 . S
C1183 C1180 1.386 . S
C1184 C1179 1.490 . S
C1184 C1186 1.395 . S
C1184 C1187 1.408 . S
H1185 C1191 0.930 . S
C1186 H1172 0.930 . S
C1186 C1184 1.395 . S
C1186 C1189 1.404 1_655 S
C1187 C1184 1.408 . S
C1187 C1188 1.523 1_655 S
C1187 C1191 1.395 1_655 S
C1188 H1173 0.960 . S
C1188 H1174 0.960 . S
C1188 H1175 0.960 1_455 S
C1188 C1187 1.523 1_455 S
C1189 C1186 1.404 1_455 S
C1189 C1190 1.392 . S
C1189 C1193 1.495 1_455 S
C1190 C1189 1.392 . S
C1190 C1191 1.385 . S
C1190 C1192 1.478 . S
C1191 H1185 0.930 . S
C1191 C1187 1.395 1_455 S
C1191 C1190 1.385 . S
C1192 C1190 1.478 . S
C1192 C1194 1.381 . S
C1192 C1198 1.383 . S
C1193 C1189 1.495 1_655 S
C1193 H1199 0.982 . S
C1193 H1200 0.966 . S
C1193 H1201 0.933 1_655 S
C1194 C1192 1.381 . S
C1194 C1195 1.394 . S
C1194 H1202 0.930 . S
C1195 C1194 1.394 . S
C1195 C1196 1.383 . S
C1195 H1203 0.929 . S
C1196 C1195 1.383 . S
C1196 C1197 1.377 . S
C1197 H1181 0.930 . S
C1197 C1196 1.377 . S
C1197 C1198 1.379 . S
C1198 H1182 0.931 . S
C1198 C1192 1.383 . S
C1198 C1197 1.379 . S
H1199 C1193 0.982 . S
H1200 C1193 0.966 . S
H1201 C1193 0.933 1_455 S
H1202 C1194 0.930 . S
H1203 C1195 0.929 . S
H1204 C1212 0.929 . S
H1205 C1214 0.930 . S
H1206 C1216 0.930 . S
H1207 C1219 0.929 . S
H1208 C1222 0.930 . S
H1209 C1224 0.960 . S
H1210 C1224 0.960 . S
H1211 C1224 0.960 . S
C1212 H1204 0.929 . S
C1212 C1213 1.377 . S
C1212 C1214 1.384 . S
C1213 C1212 1.377 . S
C1213 C1219 1.390 . S
C1214 H1205 0.930 . S
C1214 C1212 1.384 . S
C1214 C1215 1.372 . S
C1215 C1214 1.372 . S
C1215 C1216 1.400 . S
C1215 C1220 1.490 . S
C1216 H1206 0.930 . S
C1216 C1215 1.400 . S
C1216 C1219 1.386 . S
H1217 C1233 0.930 . S
H1218 C1234 0.931 . S
C1219 H1207 0.929 . S
C1219 C1213 1.390 . S
C1219 C1216 1.386 . S
C1220 C1215 1.490 . S
C1220 C1222 1.395 1_565 S
C1220 C1223 1.403 . S
H1221 C1227 0.930 . S
C1222 H1208 0.930 . S
C1222 C1220 1.395 1_545 S
C1222 C1225 1.403 . S
C1223 C1220 1.403 . S
C1223 C1224 1.524 . S
C1223 C1227 1.400 . S
C1224 H1209 0.960 . S
C1224 H1210 0.960 . S
C1224 H1211 0.960 . S
C1224 C1223 1.524 . S
C1225 C1222 1.403 . S
C1225 C1226 1.392 . S
C1225 C1229 1.495 . S
C1226 C1225 1.392 . S
C1226 C1227 1.385 1_545 S
C1226 C1228 1.478 . S
C1227 H1221 0.930 . S
C1227 C1223 1.400 . S
C1227 C1226 1.385 1_565 S
C1228 C1226 1.478 . S
C1228 C1230 1.381 . S
C1228 C1234 1.383 . S
C1229 C1225 1.495 . S
C1229 H1235 0.959 . S
C1229 H1236 0.961 . S
C1229 H1237 0.960 . S
C1230 C1228 1.381 . S
C1230 C1231 1.394 . S
C1230 H1238 0.930 . S
C1231 C1230 1.394 . S
C1231 C1232 1.383 . S
C1231 H1239 0.929 . S
C1232 C1231 1.383 . S
C1232 C1233 1.377 . S
C1233 H1217 0.930 . S
C1233 C1232 1.377 . S
C1233 C1234 1.379 . S
C1234 H1218 0.931 . S
C1234 C1228 1.383 . S
C1234 C1233 1.379 . S
H1235 C1229 0.959 . S
H1236 C1229 0.961 . S
H1237 C1229 0.960 . S
H1238 C1230 0.930 . S
H1239 C1231 0.929 . S
H1240 C1248 0.929 . S
H1241 C1250 0.930 . S
H1242 C1252 0.930 . S
H1243 C1255 0.929 . S
H1244 C1258 0.930 . S
H1245 C1260 0.960 . S
H1246 C1260 0.960 1_554 S
H1247 C1260 0.960 . S
C1248 H1240 0.929 . S
C1248 C1249 1.361 1_554 S
C1248 C1250 1.384 . S
C1249 C1248 1.361 1_556 S
C1249 C1255 1.406 . S
C1250 H1241 0.930 . S
C1250 C1248 1.384 . S
C1250 C1251 1.409 . S
C1251 C1250 1.409 . S
C1251 C1252 1.362 1_554 S
C1251 C1256 1.491 . S
C1252 H1242 0.930 . S
C1252 C1251 1.362 1_556 S
C1252 C1255 1.386 . S
H1253 C1269 0.930 . S
H1254 C1270 0.931 . S
C1255 H1243 0.929 . S
C1255 C1249 1.406 . S
C1255 C1252 1.386 . S
C1256 C1251 1.491 . S
C1256 C1258 1.395 . S
C1256 C1259 1.403 1_554 S
H1257 C1263 0.930 . S
C1258 H1244 0.930 . S
C1258 C1256 1.395 . S
C1258 C1261 1.403 . S
C1259 C1256 1.403 1_556 S
C1259 C1260 1.524 . S
C1259 C1263 1.400 . S
C1260 H1245 0.960 . S
C1260 H1246 0.960 1_556 S
C1260 H1247 0.960 . S
C1260 C1259 1.524 . S
C1261 C1258 1.403 . S
C1261 C1262 1.392 . S
C1261 C1265 1.495 . S
C1262 C1261 1.392 . S
C1262 C1263 1.385 1_554 S
C1262 C1264 1.478 . S
C1263 H1257 0.930 . S
C1263 C1259 1.400 . S
C1263 C1262 1.385 1_556 S
C1264 C1262 1.478 . S
C1264 C1266 1.381 . S
C1264 C1270 1.383 1_554 S
C1265 C1261 1.495 . S
C1265 H1271 0.959 . S
C1265 H1272 0.956 . S
C1265 H1273 0.960 . S
C1266 C1264 1.381 . S
C1266 C1267 1.394 . S
C1266 H1274 0.930 . S
C1267 C1266 1.394 . S
C1267 C1268 1.430 . S
C1267 H1275 0.929 . S
C1268 C1267 1.430 . S
C1268 C1269 1.332 1_554 S
C1269 H1253 0.930 . S
C1269 C1268 1.332 1_556 S
C1269 C1270 1.379 . S
C1270 H1254 0.931 . S
C1270 C1264 1.383 1_556 S
C1270 C1269 1.379 . S
H1271 C1265 0.959 . S
H1272 C1265 0.956 . S
H1273 C1265 0.960 . S
H1274 C1266 0.930 . S
H1275 C1267 0.929 . S
H1276 C1284 0.929 . S
H1277 C1286 0.930 . S
H1278 C1288 0.930 . S
H1279 C1291 0.929 . S
H1280 C1294 0.930 . S
H1281 C1296 0.960 . S
H1282 C1296 0.960 . S
H1283 C1296 0.960 . S
C1284 H1276 0.929 . S
C1284 C1285 1.377 . S
C1284 C1286 1.384 . S
C1285 C1284 1.377 . S
C1285 C1291 1.390 . S
C1286 H1277 0.930 . S
C1286 C1284 1.384 . S
C1286 C1287 1.372 . S
C1287 C1286 1.372 . S
C1287 C1288 1.400 . S
C1287 C1292 1.490 . S
C1288 H1278 0.930 . S
C1288 C1287 1.400 . S
C1288 C1291 1.386 . S
H1289 C1305 0.930 . S
H1290 C1306 0.931 . S
C1291 H1279 0.929 . S
C1291 C1285 1.390 . S
C1291 C1288 1.386 . S
C1292 C1287 1.490 . S
C1292 C1294 1.395 . S
C1292 C1295 1.403 . S
H1293 C1299 0.930 . S
C1294 H1280 0.930 . S
C1294 C1292 1.395 . S
C1294 C1297 1.403 . S
C1295 C1292 1.403 . S
C1295 C1296 1.524 . S
C1295 C1299 1.400 . S
C1296 H1281 0.960 . S
C1296 H1282 0.960 . S
C1296 H1283 0.960 . S
C1296 C1295 1.524 . S
C1297 C1294 1.403 . S
C1297 C1298 1.392 . S
C1297 C1301 1.495 . S
C1298 C1297 1.392 . S
C1298 C1299 1.385 . S
C1298 C1300 1.478 . S
C1299 H1293 0.930 . S
C1299 C1295 1.400 . S
C1299 C1298 1.385 . S
C1300 C1298 1.478 . S
C1300 C1302 1.381 . S
C1300 C1306 1.383 . S
C1301 C1297 1.495 . S
C1301 H1307 0.959 . S
C1301 H1308 0.961 . S
C1301 H1309 0.960 . S
C1302 C1300 1.381 . S
C1302 C1303 1.394 . S
C1302 H1310 0.930 . S
C1303 C1302 1.394 . S
C1303 C1304 1.383 . S
C1303 H1311 0.929 . S
C1304 C1303 1.383 . S
C1304 C1305 1.377 . S
C1305 H1289 0.930 . S
C1305 C1304 1.377 . S
C1305 C1306 1.379 . S
C1306 H1290 0.931 . S
C1306 C1300 1.383 . S
C1306 C1305 1.379 . S
H1307 C1301 0.959 . S
H1308 C1301 0.961 . S
H1309 C1301 0.960 . S
H1310 C1302 0.930 . S
H1311 C1303 0.929 . S
H1312 C1320 0.929 . S
H1313 C1322 0.930 . S
H1314 C1324 0.930 . S
H1315 C1327 0.929 . S
H1316 C1330 0.930 . S
H1317 C1332 0.960 . S
H1318 C1332 0.960 . S
H1319 C1332 0.960 . S
C1320 H1312 0.929 . S
C1320 C1321 1.377 . S
C1320 C1322 1.384 . S
C1321 C1320 1.377 . S
C1321 C1327 1.390 . S
C1322 H1313 0.930 . S
C1322 C1320 1.384 . S
C1322 C1323 1.372 . S
C1323 C1322 1.372 . S
C1323 C1324 1.400 . S
C1323 C1328 1.490 . S
C1324 H1314 0.930 . S
C1324 C1323 1.400 . S
C1324 C1327 1.386 . S
H1325 C1341 0.930 . S
H1326 C1342 0.931 . S
C1327 H1315 0.929 . S
C1327 C1321 1.390 . S
C1327 C1324 1.386 . S
C1328 C1323 1.490 . S
C1328 C1330 1.395 1_655 S
C1328 C1331 1.403 . S
H1329 C1335 0.930 1_655 S
C1330 H1316 0.930 . S
C1330 C1328 1.395 1_455 S
C1330 C1333 1.403 . S
C1331 C1328 1.403 . S
C1331 C1332 1.524 . S
C1331 C1335 1.397 1_655 S
C1332 H1317 0.960 . S
C1332 H1318 0.960 . S
C1332 H1319 0.960 . S
C1332 C1331 1.524 . S
C1333 C1330 1.403 . S
C1333 C1334 1.392 . S
C1333 C1337 1.495 . S
C1334 C1333 1.392 . S
C1334 C1335 1.389 . S
C1334 C1336 1.478 . S
C1335 H1329 0.930 1_455 S
C1335 C1331 1.397 1_455 S
C1335 C1334 1.389 . S
C1336 C1334 1.478 . S
C1336 C1338 1.381 . S
C1336 C1342 1.383 . S
C1337 C1333 1.495 . S
C1337 H1343 0.959 . S
C1337 H1344 0.961 . S
C1337 H1345 0.960 . S
C1338 C1336 1.381 . S
C1338 C1339 1.394 . S
C1338 H1346 0.930 . S
C1339 C1338 1.394 . S
C1339 C1340 1.383 . S
C1339 H1347 0.929 . S
C1340 C1339 1.383 . S
C1340 C1341 1.377 . S
C1341 H1325 0.930 . S
C1341 C1340 1.377 . S
C1341 C1342 1.379 . S
C1342 H1326 0.931 . S
C1342 C1336 1.383 . S
C1342 C1341 1.379 . S
H1343 C1337 0.959 . S
H1344 C1337 0.961 . S
H1345 C1337 0.960 . S
H1346 C1338 0.930 . S
H1347 C1339 0.929 . S
H1348 C1356 0.929 . S
H1349 C1358 0.930 . S
H1350 C1360 0.930 . S
H1351 C1363 0.929 . S
H1352 C1366 0.930 . S
H1353 C1368 0.960 . S
H1354 C1368 0.960 . S
H1355 C1368 0.960 . S
C1356 H1348 0.929 . S
C1356 C1357 1.377 . S
C1356 C1358 1.384 . S
C1357 C1356 1.377 . S
C1357 C1363 1.390 . S
C1358 H1349 0.930 . S
C1358 C1356 1.384 . S
C1358 C1359 1.372 . S
C1359 C1358 1.372 . S
C1359 C1360 1.400 . S
C1359 C1364 1.490 . S
C1360 H1350 0.930 . S
C1360 C1359 1.400 . S
C1360 C1363 1.386 . S
H1361 C1377 0.930 . S
H1362 C1378 0.931 . S
C1363 H1351 0.929 . S
C1363 C1357 1.390 . S
C1363 C1360 1.386 . S
C1364 C1359 1.490 . S
C1364 C1366 1.395 . S
C1364 C1367 1.403 . S
H1365 C1371 0.930 . S
C1366 H1352 0.930 . S
C1366 C1364 1.395 . S
C1366 C1369 1.403 . S
C1367 C1364 1.403 . S
C1367 C1368 1.524 . S
C1367 C1371 1.400 . S
C1368 H1353 0.960 . S
C1368 H1354 0.960 . S
C1368 H1355 0.960 . S
C1368 C1367 1.524 . S
C1369 C1366 1.403 . S
C1369 C1370 1.392 . S
C1369 C1373 1.495 . S
C1370 C1369 1.392 . S
C1370 C1371 1.385 . S
C1370 C1372 1.478 . S
C1371 H1365 0.930 . S
C1371 C1367 1.400 . S
C1371 C1370 1.385 . S
C1372 C1370 1.478 . S
C1372 C1374 1.381 . S
C1372 C1378 1.383 . S
C1373 C1369 1.495 . S
C1373 H1379 0.959 . S
C1373 H1380 0.961 . S
C1373 H1381 0.960 . S
C1374 C1372 1.381 . S
C1374 C1375 1.394 . S
C1374 H1382 0.930 . S
C1375 C1374 1.394 . S
C1375 C1376 1.383 . S
C1375 H1383 0.929 . S
C1376 C1375 1.383 . S
C1376 C1377 1.377 . S
C1377 H1361 0.930 . S
C1377 C1376 1.377 . S
C1377 C1378 1.379 . S
C1378 H1362 0.931 . S
C1378 C1372 1.383 . S
C1378 C1377 1.379 . S
H1379 C1373 0.959 . S
H1380 C1373 0.961 . S
H1381 C1373 0.960 . S
H1382 C1374 0.930 . S
H1383 C1375 0.929 . S
H1384 C1392 0.929 . S
H1385 C1394 0.930 . S
H1386 C1396 0.930 . S
H1387 C1399 0.929 . S
H1388 C1402 0.930 . S
H1389 C1404 0.960 . S
H1390 C1404 0.960 . S
H1391 C1404 0.960 . S
C1392 H1384 0.929 . S
C1392 C1393 1.377 . S
C1392 C1394 1.384 . S
C1393 C1392 1.377 . S
C1393 C1399 1.390 . S
C1394 H1385 0.930 . S
C1394 C1392 1.384 . S
C1394 C1395 1.372 . S
C1395 C1394 1.372 . S
C1395 C1396 1.400 . S
C1395 C1400 1.490 . S
C1396 H1386 0.930 . S
C1396 C1395 1.400 . S
C1396 C1399 1.386 . S
H1397 C1413 0.930 . S
H1398 C1414 0.931 . S
C1399 H1387 0.929 . S
C1399 C1393 1.390 . S
C1399 C1396 1.386 . S
C1400 C1395 1.490 . S
C1400 C1402 1.395 . S
C1400 C1403 1.403 . S
H1401 C1407 0.930 . S
C1402 H1388 0.930 . S
C1402 C1400 1.395 . S
C1402 C1405 1.403 . S
C1403 C1400 1.403 . S
C1403 C1404 1.524 . S
C1403 C1407 1.400 . S
C1404 H1389 0.960 . S
C1404 H1390 0.960 . S
C1404 H1391 0.960 . S
C1404 C1403 1.524 . S
C1405 C1402 1.403 . S
C1405 C1406 1.392 . S
C1405 C1409 1.495 . S
C1406 C1405 1.392 . S
C1406 C1407 1.385 . S
C1406 C1408 1.478 . S
C1407 H1401 0.930 . S
C1407 C1403 1.400 . S
C1407 C1406 1.385 . S
C1408 C1406 1.478 . S
C1408 C1410 1.381 . S
C1408 C1414 1.383 . S
C1409 C1405 1.495 . S
C1409 H1415 0.959 . S
C1409 H1416 0.961 . S
C1409 H1417 0.960 . S
C1410 C1408 1.381 . S
C1410 C1411 1.394 . S
C1410 H1418 0.930 . S
C1411 C1410 1.394 . S
C1411 C1412 1.383 . S
C1411 H1419 0.929 . S
C1412 C1411 1.383 . S
C1412 C1413 1.377 . S
C1413 H1397 0.930 . S
C1413 C1412 1.377 . S
C1413 C1414 1.379 . S
C1414 H1398 0.931 . S
C1414 C1408 1.383 . S
C1414 C1413 1.379 . S
H1415 C1409 0.959 . S
H1416 C1409 0.961 . S
H1417 C1409 0.960 . S
H1418 C1410 0.930 . S
H1419 C1411 0.929 . S
H1420 C1428 0.929 . S
H1421 C1430 0.930 . S
H1422 C1432 0.930 . S
H1423 C1435 0.929 . S
H1424 C1438 0.930 . S
H1425 C1440 0.960 . S
H1426 C1440 0.960 . S
H1427 C1440 0.960 . S
C1428 H1420 0.929 . S
C1428 C1429 1.377 . S
C1428 C1430 1.384 . S
C1429 C1428 1.377 . S
C1429 C1435 1.390 . S
C1430 H1421 0.930 . S
C1430 C1428 1.384 . S
C1430 C1431 1.372 . S
C1431 C1430 1.372 . S
C1431 C1432 1.400 . S
C1431 C1436 1.490 . S
C1432 H1422 0.930 . S
C1432 C1431 1.400 . S
C1432 C1435 1.386 . S
H1433 C1449 0.930 . S
H1434 C1450 0.931 . S
C1435 H1423 0.929 . S
C1435 C1429 1.390 . S
C1435 C1432 1.386 . S
C1436 C1431 1.490 . S
C1436 C1438 1.395 . S
C1436 C1439 1.403 . S
H1437 C1443 0.930 . S
C1438 H1424 0.930 . S
C1438 C1436 1.395 . S
C1438 C1441 1.403 . S
C1439 C1436 1.403 . S
C1439 C1440 1.524 . S
C1439 C1443 1.400 . S
C1440 H1425 0.960 . S
C1440 H1426 0.960 . S
C1440 H1427 0.960 . S
C1440 C1439 1.524 . S
C1441 C1438 1.403 . S
C1441 C1442 1.392 . S
C1441 C1445 1.495 . S
C1442 C1441 1.392 . S
C1442 C1443 1.385 . S
C1442 C1444 1.478 . S
C1443 H1437 0.930 . S
C1443 C1439 1.400 . S
C1443 C1442 1.385 . S
C1444 C1442 1.478 . S
C1444 C1446 1.381 . S
C1444 C1450 1.383 . S
C1445 C1441 1.495 . S
C1445 H1451 0.959 . S
C1445 H1452 0.961 . S
C1445 H1453 0.960 . S
C1446 C1444 1.381 . S
C1446 C1447 1.394 . S
C1446 H1454 0.930 . S
C1447 C1446 1.394 . S
C1447 C1448 1.383 . S
C1447 H1455 0.929 . S
C1448 C1447 1.383 . S
C1448 C1449 1.377 . S
C1449 H1433 0.930 . S
C1449 C1448 1.377 . S
C1449 C1450 1.379 . S
C1450 H1434 0.931 . S
C1450 C1444 1.383 . S
C1450 C1449 1.379 . S
H1451 C1445 0.959 . S
H1452 C1445 0.961 . S
H1453 C1445 0.960 . S
H1454 C1446 0.930 . S
H1455 C1447 0.929 . S
H1456 C1464 0.929 . S
H1457 C1466 0.930 . S
H1458 C1468 0.930 . S
H1459 C1471 0.929 . S
H1460 C1474 0.930 . S
H1461 C1476 0.960 . S
H1462 C1476 0.960 . S
H1463 C1476 0.960 . S
C1464 H1456 0.929 . S
C1464 C1465 1.377 . S
C1464 C1466 1.384 . S
C1465 C1464 1.377 . S
C1465 C1471 1.390 . S
C1466 H1457 0.930 . S
C1466 C1464 1.384 . S
C1466 C1467 1.372 . S
C1467 C1466 1.372 . S
C1467 C1468 1.400 . S
C1467 C1472 1.490 . S
C1468 H1458 0.930 . S
C1468 C1467 1.400 . S
C1468 C1471 1.386 . S
H1469 C1485 0.930 . S
H1470 C1486 0.931 . S
C1471 H1459 0.929 . S
C1471 C1465 1.390 . S
C1471 C1468 1.386 . S
C1472 C1467 1.490 . S
C1472 C1474 1.395 . S
C1472 C1475 1.403 . S
H1473 C1479 0.930 . S
C1474 H1460 0.930 . S
C1474 C1472 1.395 . S
C1474 C1477 1.403 . S
C1475 C1472 1.403 . S
C1475 C1476 1.524 . S
C1475 C1479 1.400 . S
C1476 H1461 0.960 . S
C1476 H1462 0.960 . S
C1476 H1463 0.960 . S
C1476 C1475 1.524 . S
C1477 C1474 1.403 . S
C1477 C1478 1.392 . S
C1477 C1481 1.495 . S
C1478 C1477 1.392 . S
C1478 C1479 1.385 . S
C1478 C1480 1.478 . S
C1479 H1473 0.930 . S
C1479 C1475 1.400 . S
C1479 C1478 1.385 . S
C1480 C1478 1.478 . S
C1480 C1482 1.381 . S
C1480 C1486 1.383 . S
C1481 C1477 1.495 . S
C1481 H1487 0.959 . S
C1481 H1488 0.961 . S
C1481 H1489 0.960 . S
C1482 C1480 1.381 . S
C1482 C1483 1.394 . S
C1482 H1490 0.930 . S
C1483 C1482 1.394 . S
C1483 C1484 1.383 . S
C1483 H1491 0.929 . S
C1484 C1483 1.383 . S
C1484 C1485 1.377 . S
C1485 H1469 0.930 . S
C1485 C1484 1.377 . S
C1485 C1486 1.379 . S
C1486 H1470 0.931 . S
C1486 C1480 1.383 . S
C1486 C1485 1.379 . S
H1487 C1481 0.959 . S
H1488 C1481 0.961 . S
H1489 C1481 0.960 . S
H1490 C1482 0.930 . S
H1491 C1483 0.929 . S
H1492 C1500 0.929 . S
H1493 C1502 0.930 . S
H1494 C1504 0.930 . S
H1495 C1507 0.929 . S
H1496 C1510 0.930 . S
H1497 C1512 0.960 . S
H1498 C1512 0.960 . S
H1499 C1512 0.960 . S
C1500 H1492 0.929 . S
C1500 C1501 1.377 . S
C1500 C1502 1.384 . S
C1501 C1500 1.377 . S
C1501 C1507 1.390 . S
C1502 H1493 0.930 . S
C1502 C1500 1.384 . S
C1502 C1503 1.372 . S
C1503 C1502 1.372 . S
C1503 C1504 1.400 . S
C1503 C1508 1.490 . S
C1504 H1494 0.930 . S
C1504 C1503 1.400 . S
C1504 C1507 1.386 . S
H1505 C1521 0.930 . S
H1506 C1522 0.931 . S
C1507 H1495 0.929 . S
C1507 C1501 1.390 . S
C1507 C1504 1.386 . S
C1508 C1503 1.490 . S
C1508 C1510 1.395 1_545 S
C1508 C1511 1.403 . S
H1509 C1515 0.930 . S
C1510 H1496 0.930 . S
C1510 C1508 1.395 1_565 S
C1510 C1513 1.403 . S
C1511 C1508 1.403 . S
C1511 C1512 1.524 . S
C1511 C1515 1.400 . S
C1512 H1497 0.960 . S
C1512 H1498 0.960 . S
C1512 H1499 0.960 . S
C1512 C1511 1.524 . S
C1513 C1510 1.403 . S
C1513 C1514 1.392 . S
C1513 C1517 1.495 . S
C1514 C1513 1.392 . S
C1514 C1515 1.385 1_565 S
C1514 C1516 1.478 . S
C1515 H1509 0.930 . S
C1515 C1511 1.400 . S
C1515 C1514 1.385 1_545 S
C1516 C1514 1.478 . S
C1516 C1518 1.381 . S
C1516 C1522 1.383 . S
C1517 C1513 1.495 . S
C1517 H1523 0.959 . S
C1517 H1524 0.961 . S
C1517 H1525 0.960 . S
C1518 C1516 1.381 . S
C1518 C1519 1.394 . S
C1518 H1526 0.930 . S
C1519 C1518 1.394 . S
C1519 C1520 1.383 . S
C1519 H1527 0.929 . S
C1520 C1519 1.383 . S
C1520 C1521 1.377 . S
C1521 H1505 0.930 . S
C1521 C1520 1.377 . S
C1521 C1522 1.379 . S
C1522 H1506 0.931 . S
C1522 C1516 1.383 . S
C1522 C1521 1.379 . S
H1523 C1517 0.959 . S
H1524 C1517 0.961 . S
H1525 C1517 0.960 . S
H1526 C1518 0.930 . S
H1527 C1519 0.929 . S
H1528 C1536 0.929 . S
H1529 C1538 0.930 . S
H1530 C1540 0.930 . S
H1531 C1543 0.929 . S
H1532 C1546 0.930 . S
H1533 C1548 0.960 . S
H1534 C1548 0.960 . S
H1535 C1548 0.960 . S
C1536 H1528 0.929 . S
C1536 C1537 1.377 . S
C1536 C1538 1.384 . S
C1537 C1536 1.377 . S
C1537 C1543 1.390 . S
C1538 H1529 0.930 . S
C1538 C1536 1.384 . S
C1538 C1539 1.372 . S
C1539 C1538 1.372 . S
C1539 C1540 1.400 . S
C1539 C1544 1.490 . S
C1540 H1530 0.930 . S
C1540 C1539 1.400 . S
C1540 C1543 1.386 . S
H1541 C1557 0.930 . S
H1542 C1558 0.931 . S
C1543 H1531 0.929 . S
C1543 C1537 1.390 . S
C1543 C1540 1.386 . S
C1544 C1539 1.490 . S
C1544 C1546 1.395 . S
C1544 C1547 1.403 . S
H1545 C1551 0.930 . S
C1546 H1532 0.930 . S
C1546 C1544 1.395 . S
C1546 C1549 1.403 . S
C1547 C1544 1.403 . S
C1547 C1548 1.524 . S
C1547 C1551 1.400 . S
C1548 H1533 0.960 . S
C1548 H1534 0.960 . S
C1548 H1535 0.960 . S
C1548 C1547 1.524 . S
C1549 C1546 1.403 . S
C1549 C1550 1.392 . S
C1549 C1553 1.495 . S
C1550 C1549 1.392 . S
C1550 C1551 1.385 . S
C1550 C1552 1.478 . S
C1551 H1545 0.930 . S
C1551 C1547 1.400 . S
C1551 C1550 1.385 . S
C1552 C1550 1.478 . S
C1552 C1554 1.381 . S
C1552 C1558 1.383 . S
C1553 C1549 1.495 . S
C1553 H1559 0.959 . S
C1553 H1560 0.961 . S
C1553 H1561 0.960 . S
C1554 C1552 1.381 . S
C1554 C1555 1.394 . S
C1554 H1562 0.930 . S
C1555 C1554 1.394 . S
C1555 C1556 1.383 . S
C1555 H1563 0.929 . S
C1556 C1555 1.383 . S
C1556 C1557 1.377 . S
C1557 H1541 0.930 . S
C1557 C1556 1.377 . S
C1557 C1558 1.379 . S
C1558 H1542 0.931 . S
C1558 C1552 1.383 . S
C1558 C1557 1.379 . S
H1559 C1553 0.959 . S
H1560 C1553 0.961 . S
H1561 C1553 0.960 . S
H1562 C1554 0.930 . S
H1563 C1555 0.929 . S
H1564 C1572 0.929 . S
H1565 C1574 0.930 . S
H1566 C1576 0.930 . S
H1567 C1579 0.929 . S
H1568 C1582 0.930 . S
H1569 C1584 0.960 . S
H1570 C1584 0.960 . S
H1571 C1584 0.960 . S
C1572 H1564 0.929 . S
C1572 C1573 1.384 . S
C1572 C1574 1.384 . S
C1573 C1572 1.384 . S
C1573 C1579 1.383 1_556 S
C1574 H1565 0.930 . S
C1574 C1572 1.384 . S
C1574 C1575 1.379 . S
C1575 C1574 1.379 . S
C1575 C1576 1.392 1_556 S
C1575 C1580 1.489 . S
C1576 H1566 0.930 . S
C1576 C1575 1.392 1_554 S
C1576 C1579 1.386 . S
H1577 C1593 0.930 . S
H1578 C1594 0.940 . S
C1579 H1567 0.929 . S
C1579 C1573 1.383 1_554 S
C1579 C1576 1.386 . S
C1580 C1575 1.489 . S
C1580 C1582 1.449 . S
C1580 C1583 1.352 1_556 S
H1581 C1587 0.930 . S
C1582 H1568 0.930 . S
C1582 C1580 1.449 . S
C1582 C1585 1.403 . S
C1583 C1580 1.352 1_554 S
C1583 C1584 1.524 . S
C1583 C1587 1.400 . S
C1584 H1569 0.960 . S
C1584 H1570 0.960 . S
C1584 H1571 0.960 . S
C1584 C1583 1.524 . S
C1585 C1582 1.403 . S
C1585 C1586 1.392 . S
C1585 C1589 1.495 . S
C1586 C1585 1.392 . S
C1586 C1587 1.385 1_556 S
C1586 C1588 1.478 . S
C1587 H1581 0.930 . S
C1587 C1583 1.400 . S
C1587 C1586 1.385 1_554 S
C1588 C1586 1.478 . S
C1588 C1590 1.381 . S
C1588 C1594 1.372 1_556 S
C1589 C1585 1.495 . S
C1589 H1595 0.959 . S
C1589 H1596 0.961 . S
C1589 H1597 0.960 . S
C1590 C1588 1.381 . S
C1590 C1591 1.394 . S
C1590 H1598 0.930 . S
C1591 C1590 1.394 . S
C1591 C1592 1.395 . S
C1591 H1599 0.929 . S
C1592 C1591 1.395 . S
C1592 C1593 1.370 1_556 S
C1593 H1577 0.930 . S
C1593 C1592 1.370 1_554 S
C1593 C1594 1.384 . S
C1594 H1578 0.940 . S
C1594 C1588 1.372 1_554 S
C1594 C1593 1.384 . S
H1595 C1589 0.959 . S
H1596 C1589 0.961 . S
H1597 C1589 0.960 . S
H1598 C1590 0.930 . S
H1599 C1591 0.929 . S
H1600 C1608 0.929 . S
H1601 C1610 0.930 . S
H1602 C1612 0.930 . S
H1603 C1615 0.929 . S
H1604 C1618 0.930 . S
H1605 C1620 0.960 . S
H1606 C1620 0.960 . S
H1607 C1620 0.960 . S
C1608 H1600 0.929 . S
C1608 C1609 1.377 . S
C1608 C1610 1.384 . S
C1609 C1608 1.377 . S
C1609 C1615 1.390 . S
C1610 H1601 0.930 . S
C1610 C1608 1.384 . S
C1610 C1611 1.372 . S
C1611 C1610 1.372 . S
C1611 C1612 1.400 . S
C1611 C1616 1.490 . S
C1612 H1602 0.930 . S
C1612 C1611 1.400 . S
C1612 C1615 1.386 . S
H1613 C1629 0.930 . S
H1614 C1630 0.931 . S
C1615 H1603 0.929 . S
C1615 C1609 1.390 . S
C1615 C1612 1.386 . S
C1616 C1611 1.490 . S
C1616 C1618 1.395 . S
C1616 C1619 1.403 . S
H1617 C1623 0.930 . S
C1618 H1604 0.930 . S
C1618 C1616 1.395 . S
C1618 C1621 1.403 . S
C1619 C1616 1.403 . S
C1619 C1620 1.524 . S
C1619 C1623 1.400 . S
C1620 H1605 0.960 . S
C1620 H1606 0.960 . S
C1620 H1607 0.960 . S
C1620 C1619 1.524 . S
C1621 C1618 1.403 . S
C1621 C1622 1.392 . S
C1621 C1625 1.495 . S
C1622 C1621 1.392 . S
C1622 C1623 1.385 . S
C1622 C1624 1.478 . S
C1623 H1617 0.930 . S
C1623 C1619 1.400 . S
C1623 C1622 1.385 . S
C1624 C1622 1.478 . S
C1624 C1626 1.381 . S
C1624 C1630 1.383 . S
C1625 C1621 1.495 . S
C1625 H1631 0.959 . S
C1625 H1632 0.961 . S
C1625 H1633 0.960 . S
C1626 C1624 1.381 . S
C1626 C1627 1.394 . S
C1626 H1634 0.930 . S
C1627 C1626 1.394 . S
C1627 C1628 1.383 . S
C1627 H1635 0.929 . S
C1628 C1627 1.383 . S
C1628 C1629 1.377 . S
C1629 H1613 0.930 . S
C1629 C1628 1.377 . S
C1629 C1630 1.379 . S
C1630 H1614 0.931 . S
C1630 C1624 1.383 . S
C1630 C1629 1.379 . S
H1631 C1625 0.959 . S
H1632 C1625 0.961 . S
H1633 C1625 0.960 . S
H1634 C1626 0.930 . S
H1635 C1627 0.929 . S
H1636 C1644 0.929 . S
H1637 C1646 0.930 . S
H1638 C1648 0.930 . S
H1639 C1651 0.929 . S
H1640 C1654 0.930 . S
H1641 C1656 0.960 . S
H1642 C1656 0.960 . S
H1643 C1656 0.960 . S
C1644 H1636 0.929 . S
C1644 C1645 1.377 . S
C1644 C1646 1.384 . S
C1645 C1644 1.377 . S
C1645 C1651 1.390 . S
C1646 H1637 0.930 . S
C1646 C1644 1.384 . S
C1646 C1647 1.372 . S
C1647 C1646 1.372 . S
C1647 C1648 1.400 . S
C1647 C1652 1.490 . S
C1648 H1638 0.930 . S
C1648 C1647 1.400 . S
C1648 C1651 1.386 . S
H1649 C1665 0.930 . S
H1650 C1666 0.931 . S
C1651 H1639 0.929 . S
C1651 C1645 1.390 . S
C1651 C1648 1.386 . S
C1652 C1647 1.490 . S
C1652 C1654 1.395 . S
C1652 C1655 1.403 . S
H1653 C1659 0.930 . S
C1654 H1640 0.930 . S
C1654 C1652 1.395 . S
C1654 C1657 1.403 . S
C1655 C1652 1.403 . S
C1655 C1656 1.524 . S
C1655 C1659 1.400 . S
C1656 H1641 0.960 . S
C1656 H1642 0.960 . S
C1656 H1643 0.960 . S
C1656 C1655 1.524 . S
C1657 C1654 1.403 . S
C1657 C1658 1.392 . S
C1657 C1661 1.495 . S
C1658 C1657 1.392 . S
C1658 C1659 1.385 . S
C1658 C1660 1.478 . S
C1659 H1653 0.930 . S
C1659 C1655 1.400 . S
C1659 C1658 1.385 . S
C1660 C1658 1.478 . S
C1660 C1662 1.381 . S
C1660 C1666 1.383 . S
C1661 C1657 1.495 . S
C1661 H1667 0.959 . S
C1661 H1668 0.961 . S
C1661 H1669 0.960 . S
C1662 C1660 1.381 . S
C1662 C1663 1.394 . S
C1662 H1670 0.930 . S
C1663 C1662 1.394 . S
C1663 C1664 1.383 . S
C1663 H1671 0.929 . S
C1664 C1663 1.383 . S
C1664 C1665 1.377 . S
C1665 H1649 0.930 . S
C1665 C1664 1.377 . S
C1665 C1666 1.379 . S
C1666 H1650 0.931 . S
C1666 C1660 1.383 . S
C1666 C1665 1.379 . S
H1667 C1661 0.959 . S
H1668 C1661 0.961 . S
H1669 C1661 0.960 . S
H1670 C1662 0.930 . S
H1671 C1663 0.929 . S
H1672 C1680 0.929 . S
H1673 C1682 0.930 . S
H1674 C1684 0.930 . S
H1675 C1687 0.929 . S
H1676 C1690 0.930 . S
H1677 C1692 0.960 . S
H1678 C1692 0.960 . S
H1679 C1692 0.960 . S
C1680 H1672 0.929 . S
C1680 C1681 1.377 . S
C1680 C1682 1.384 . S
C1681 C1680 1.377 . S
C1681 C1687 1.390 . S
C1682 H1673 0.930 . S
C1682 C1680 1.384 . S
C1682 C1683 1.372 . S
C1683 C1682 1.372 . S
C1683 C1684 1.400 . S
C1683 C1688 1.490 . S
C1684 H1674 0.930 . S
C1684 C1683 1.400 . S
C1684 C1687 1.386 . S
H1685 C1701 0.930 . S
H1686 C1702 0.931 . S
C1687 H1675 0.929 . S
C1687 C1681 1.390 . S
C1687 C1684 1.386 . S
C1688 C1683 1.490 . S
C1688 C1690 1.395 . S
C1688 C1691 1.403 . S
H1689 C1695 0.930 . S
C1690 H1676 0.930 . S
C1690 C1688 1.395 . S
C1690 C1693 1.403 . S
C1691 C1688 1.403 . S
C1691 C1692 1.524 . S
C1691 C1695 1.400 . S
C1692 H1677 0.960 . S
C1692 H1678 0.960 . S
C1692 H1679 0.960 . S
C1692 C1691 1.524 . S
C1693 C1690 1.403 . S
C1693 C1694 1.392 . S
C1693 C1697 1.495 . S
C1694 C1693 1.392 . S
C1694 C1695 1.385 . S
C1694 C1696 1.478 . S
C1695 H1689 0.930 . S
C1695 C1691 1.400 . S
C1695 C1694 1.385 . S
C1696 C1694 1.478 . S
C1696 C1698 1.381 . S
C1696 C1702 1.383 . S
C1697 C1693 1.495 . S
C1697 H1703 0.959 . S
C1697 H1704 0.961 . S
C1697 H1705 0.960 . S
C1698 C1696 1.381 . S
C1698 C1699 1.394 . S
C1698 H1706 0.930 . S
C1699 C1698 1.394 . S
C1699 C1700 1.383 . S
C1699 H1707 0.929 . S
C1700 C1699 1.383 . S
C1700 C1701 1.377 . S
C1701 H1685 0.930 . S
C1701 C1700 1.377 . S
C1701 C1702 1.379 . S
C1702 H1686 0.931 . S
C1702 C1696 1.383 . S
C1702 C1701 1.379 . S
H1703 C1697 0.959 . S
H1704 C1697 0.961 . S
H1705 C1697 0.960 . S
H1706 C1698 0.930 . S
H1707 C1699 0.929 . S
H1708 C1716 0.929 . S
H1709 C1718 0.930 . S
H1710 C1720 0.930 . S
H1711 C1723 0.929 . S
H1712 C1726 0.930 . S
H1713 C1728 0.960 . S
H1714 C1728 0.960 . S
H1715 C1728 0.960 . S
C1716 H1708 0.929 . S
C1716 C1717 1.377 . S
C1716 C1718 1.384 . S
C1717 C1716 1.377 . S
C1717 C1723 1.390 . S
C1718 H1709 0.930 . S
C1718 C1716 1.384 . S
C1718 C1719 1.372 . S
C1719 C1718 1.372 . S
C1719 C1720 1.400 . S
C1719 C1724 1.490 . S
C1720 H1710 0.930 . S
C1720 C1719 1.400 . S
C1720 C1723 1.386 . S
H1721 C1737 0.930 . S
H1722 C1738 0.931 . S
C1723 H1711 0.929 . S
C1723 C1717 1.390 . S
C1723 C1720 1.386 . S
C1724 C1719 1.490 . S
C1724 C1726 1.395 . S
C1724 C1727 1.403 . S
H1725 C1731 0.930 . S
C1726 H1712 0.930 . S
C1726 C1724 1.395 . S
C1726 C1729 1.403 . S
C1727 C1724 1.403 . S
C1727 C1728 1.524 . S
C1727 C1731 1.400 . S
C1728 H1713 0.960 . S
C1728 H1714 0.960 . S
C1728 H1715 0.960 . S
C1728 C1727 1.524 . S
C1729 C1726 1.403 . S
C1729 C1730 1.392 . S
C1729 C1733 1.495 . S
C1730 C1729 1.392 . S
C1730 C1731 1.385 . S
C1730 C1732 1.478 . S
C1731 H1725 0.930 . S
C1731 C1727 1.400 . S
C1731 C1730 1.385 . S
C1732 C1730 1.478 . S
C1732 C1734 1.381 . S
C1732 C1738 1.383 . S
C1733 C1729 1.495 . S
C1733 H1739 0.959 . S
C1733 H1740 0.961 . S
C1733 H1741 0.960 . S
C1734 C1732 1.381 . S
C1734 C1735 1.394 . S
C1734 H1742 0.930 . S
C1735 C1734 1.394 . S
C1735 C1736 1.383 . S
C1735 H1743 0.929 . S
C1736 C1735 1.383 . S
C1736 C1737 1.377 . S
C1737 H1721 0.930 . S
C1737 C1736 1.377 . S
C1737 C1738 1.379 . S
C1738 H1722 0.931 . S
C1738 C1732 1.383 . S
C1738 C1737 1.379 . S
H1739 C1733 0.959 . S
H1740 C1733 0.961 . S
H1741 C1733 0.960 . S
H1742 C1734 0.930 . S
H1743 C1735 0.929 . S
H1744 C1752 0.929 . S
H1745 C1754 0.930 . S
H1746 C1756 0.930 . S
H1747 C1759 0.929 . S
H1748 C1762 0.930 . S
H1749 C1764 0.960 . S
H1750 C1764 0.960 . S
H1751 C1764 0.960 . S
C1752 H1744 0.929 . S
C1752 C1753 1.377 . S
C1752 C1754 1.384 . S
C1753 C1752 1.377 . S
C1753 C1759 1.390 . S
C1754 H1745 0.930 . S
C1754 C1752 1.384 . S
C1754 C1755 1.372 . S
C1755 C1754 1.372 . S
C1755 C1756 1.400 . S
C1755 C1760 1.490 . S
C1756 H1746 0.930 . S
C1756 C1755 1.400 . S
C1756 C1759 1.386 . S
H1757 C1773 0.930 . S
H1758 C1774 0.931 . S
C1759 H1747 0.929 . S
C1759 C1753 1.390 . S
C1759 C1756 1.386 . S
C1760 C1755 1.490 . S
C1760 C1762 1.395 . S
C1760 C1763 1.403 . S
H1761 C1767 0.930 . S
C1762 H1748 0.930 . S
C1762 C1760 1.395 . S
C1762 C1765 1.403 . S
C1763 C1760 1.403 . S
C1763 C1764 1.524 . S
C1763 C1767 1.400 . S
C1764 H1749 0.960 . S
C1764 H1750 0.960 . S
C1764 H1751 0.960 . S
C1764 C1763 1.524 . S
C1765 C1762 1.403 . S
C1765 C1766 1.392 . S
C1765 C1769 1.495 . S
C1766 C1765 1.392 . S
C1766 C1767 1.385 . S
C1766 C1768 1.478 . S
C1767 H1761 0.930 . S
C1767 C1763 1.400 . S
C1767 C1766 1.385 . S
C1768 C1766 1.478 . S
C1768 C1770 1.381 . S
C1768 C1774 1.383 . S
C1769 C1765 1.495 . S
C1769 H1775 0.959 . S
C1769 H1776 0.961 . S
C1769 H1777 0.960 . S
C1770 C1768 1.381 . S
C1770 C1771 1.394 . S
C1770 H1778 0.930 . S
C1771 C1770 1.394 . S
C1771 C1772 1.383 . S
C1771 H1779 0.929 . S
C1772 C1771 1.383 . S
C1772 C1773 1.377 . S
C1773 H1757 0.930 . S
C1773 C1772 1.377 . S
C1773 C1774 1.379 . S
C1774 H1758 0.931 . S
C1774 C1768 1.383 . S
C1774 C1773 1.379 . S
H1775 C1769 0.959 . S
H1776 C1769 0.961 . S
H1777 C1769 0.960 . S
H1778 C1770 0.930 . S
H1779 C1771 0.929 . S
H1780 C1788 0.929 . S
H1781 C1790 0.930 . S
H1782 C1792 0.930 . S
H1783 C1795 0.929 . S
H1784 C1798 0.930 . S
H1785 C1800 0.960 . S
H1786 C1800 0.960 . S
H1787 C1800 0.960 . S
C1788 H1780 0.929 . S
C1788 C1789 1.377 . S
C1788 C1790 1.384 . S
C1789 C1788 1.377 . S
C1789 C1795 1.390 . S
C1790 H1781 0.930 . S
C1790 C1788 1.384 . S
C1790 C1791 1.372 . S
C1791 C1790 1.372 . S
C1791 C1792 1.400 . S
C1791 C1796 1.490 . S
C1792 H1782 0.930 . S
C1792 C1791 1.400 . S
C1792 C1795 1.386 . S
H1793 C1809 0.930 . S
H1794 C1810 0.931 . S
C1795 H1783 0.929 . S
C1795 C1789 1.390 . S
C1795 C1792 1.386 . S
C1796 C1791 1.490 . S
C1796 C1798 1.395 . S
C1796 C1799 1.403 . S
H1797 C1803 0.930 . S
C1798 H1784 0.930 . S
C1798 C1796 1.395 . S
C1798 C1801 1.403 . S
C1799 C1796 1.403 . S
C1799 C1800 1.524 . S
C1799 C1803 1.400 . S
C1800 H1785 0.960 . S
C1800 H1786 0.960 . S
C1800 H1787 0.960 . S
C1800 C1799 1.524 . S
C1801 C1798 1.403 . S
C1801 C1802 1.392 . S
C1801 C1805 1.495 . S
C1802 C1801 1.392 . S
C1802 C1803 1.385 . S
C1802 C1804 1.478 . S
C1803 H1797 0.930 . S
C1803 C1799 1.400 . S
C1803 C1802 1.385 . S
C1804 C1802 1.478 . S
C1804 C1806 1.381 . S
C1804 C1810 1.383 . S
C1805 C1801 1.495 . S
C1805 H1811 0.959 . S
C1805 H1812 0.961 . S
C1805 H1813 0.960 . S
C1806 C1804 1.381 . S
C1806 C1807 1.394 . S
C1806 H1814 0.930 . S
C1807 C1806 1.394 . S
C1807 C1808 1.383 . S
C1807 H1815 0.929 . S
C1808 C1807 1.383 . S
C1808 C1809 1.377 . S
C1809 H1793 0.930 . S
C1809 C1808 1.377 . S
C1809 C1810 1.379 . S
C1810 H1794 0.931 . S
C1810 C1804 1.383 . S
C1810 C1809 1.379 . S
H1811 C1805 0.959 . S
H1812 C1805 0.961 . S
H1813 C1805 0.960 . S
H1814 C1806 0.930 . S
H1815 C1807 0.929 . S
H1816 C1824 0.929 . S
H1817 C1826 0.930 . S
H1818 C1828 0.930 . S
H1819 C1831 0.929 . S
H1820 C1834 0.930 . S
H1821 C1836 0.960 . S
H1822 C1836 0.960 . S
H1823 C1836 0.960 . S
C1824 H1816 0.929 . S
C1824 C1825 1.377 . S
C1824 C1826 1.384 . S
C1825 C1824 1.377 . S
C1825 C1831 1.390 . S
C1826 H1817 0.930 . S
C1826 C1824 1.384 . S
C1826 C1827 1.372 . S
C1827 C1826 1.372 . S
C1827 C1828 1.400 . S
C1827 C1832 1.490 . S
C1828 H1818 0.930 . S
C1828 C1827 1.400 . S
C1828 C1831 1.386 . S
H1829 C1845 0.930 . S
H1830 C1846 0.931 . S
C1831 H1819 0.929 . S
C1831 C1825 1.390 . S
C1831 C1828 1.386 . S
C1832 C1827 1.490 . S
C1832 C1834 1.395 . S
C1832 C1835 1.403 . S
H1833 C1839 0.930 . S
C1834 H1820 0.930 . S
C1834 C1832 1.395 . S
C1834 C1837 1.403 . S
C1835 C1832 1.403 . S
C1835 C1836 1.524 . S
C1835 C1839 1.400 . S
C1836 H1821 0.960 . S
C1836 H1822 0.960 . S
C1836 H1823 0.960 . S
C1836 C1835 1.524 . S
C1837 C1834 1.403 . S
C1837 C1838 1.392 . S
C1837 C1841 1.495 . S
C1838 C1837 1.392 . S
C1838 C1839 1.385 . S
C1838 C1840 1.478 . S
C1839 H1833 0.930 . S
C1839 C1835 1.400 . S
C1839 C1838 1.385 . S
C1840 C1838 1.478 . S
C1840 C1842 1.381 . S
C1840 C1846 1.383 . S
C1841 C1837 1.495 . S
C1841 H1847 0.959 . S
C1841 H1848 0.961 . S
C1841 H1849 0.960 . S
C1842 C1840 1.381 . S
C1842 C1843 1.394 . S
C1842 H1850 0.930 . S
C1843 C1842 1.394 . S
C1843 C1844 1.383 . S
C1843 H1851 0.929 . S
C1844 C1843 1.383 . S
C1844 C1845 1.377 . S
C1845 H1829 0.930 . S
C1845 C1844 1.377 . S
C1845 C1846 1.379 . S
C1846 H1830 0.931 . S
C1846 C1840 1.383 . S
C1846 C1845 1.379 . S
H1847 C1841 0.959 . S
H1848 C1841 0.961 . S
H1849 C1841 0.960 . S
H1850 C1842 0.930 . S
H1851 C1843 0.929 . S
H1852 C1860 0.929 . S
H1853 C1862 0.930 . S
H1854 C1864 0.930 . S
H1855 C1867 0.929 . S
H1856 C1870 0.930 . S
H1857 C1872 0.960 . S
H1858 C1872 0.960 . S
H1859 C1872 0.960 . S
C1860 H1852 0.929 . S
C1860 C1861 1.377 . S
C1860 C1862 1.384 . S
C1861 C1860 1.377 . S
C1861 C1867 1.390 . S
C1862 H1853 0.930 . S
C1862 C1860 1.384 . S
C1862 C1863 1.372 . S
C1863 C1862 1.372 . S
C1863 C1864 1.400 . S
C1863 C1868 1.490 . S
C1864 H1854 0.930 . S
C1864 C1863 1.400 . S
C1864 C1867 1.386 . S
H1865 C1881 0.930 . S
H1866 C1882 0.931 . S
C1867 H1855 0.929 . S
C1867 C1861 1.390 . S
C1867 C1864 1.386 . S
C1868 C1863 1.490 . S
C1868 C1870 1.395 . S
C1868 C1871 1.403 . S
H1869 C1875 0.930 . S
C1870 H1856 0.930 . S
C1870 C1868 1.395 . S
C1870 C1873 1.403 . S
C1871 C1868 1.403 . S
C1871 C1872 1.524 . S
C1871 C1875 1.400 . S
C1872 H1857 0.960 . S
C1872 H1858 0.960 . S
C1872 H1859 0.960 . S
C1872 C1871 1.524 . S
C1873 C1870 1.403 . S
C1873 C1874 1.392 . S
C1873 C1877 1.495 . S
C1874 C1873 1.392 . S
C1874 C1875 1.385 . S
C1874 C1876 1.478 . S
C1875 H1869 0.930 . S
C1875 C1871 1.400 . S
C1875 C1874 1.385 . S
C1876 C1874 1.478 . S
C1876 C1878 1.381 . S
C1876 C1882 1.383 . S
C1877 C1873 1.495 . S
C1877 H1883 0.959 . S
C1877 H1884 0.961 . S
C1877 H1885 0.960 . S
C1878 C1876 1.381 . S
C1878 C1879 1.394 . S
C1878 H1886 0.930 . S
C1879 C1878 1.394 . S
C1879 C1880 1.383 . S
C1879 H1887 0.929 . S
C1880 C1879 1.383 . S
C1880 C1881 1.377 . S
C1881 H1865 0.930 . S
C1881 C1880 1.377 . S
C1881 C1882 1.379 . S
C1882 H1866 0.931 . S
C1882 C1876 1.383 . S
C1882 C1881 1.379 . S
H1883 C1877 0.959 . S
H1884 C1877 0.961 . S
H1885 C1877 0.960 . S
H1886 C1878 0.930 . S
H1887 C1879 0.929 . S
H1888 C1896 0.929 . S
H1889 C1898 0.930 . S
H1890 C1900 0.930 . S
H1891 C1903 0.929 . S
H1892 C1906 0.930 . S
H1893 C1908 0.960 . S
H1894 C1908 0.960 . S
H1895 C1908 0.960 . S
C1896 H1888 0.929 . S
C1896 C1897 1.377 . S
C1896 C1898 1.384 . S
C1897 C1896 1.377 . S
C1897 C1903 1.390 . S
C1898 H1889 0.930 . S
C1898 C1896 1.384 . S
C1898 C1899 1.372 . S
C1899 C1898 1.372 . S
C1899 C1900 1.400 . S
C1899 C1904 1.490 . S
C1900 H1890 0.930 . S
C1900 C1899 1.400 . S
C1900 C1903 1.386 . S
H1901 C1917 0.930 . S
H1902 C1918 0.931 . S
C1903 H1891 0.929 . S
C1903 C1897 1.390 . S
C1903 C1900 1.386 . S
C1904 C1899 1.490 . S
C1904 C1906 1.395 . S
C1904 C1907 1.403 . S
H1905 C1911 0.930 . S
C1906 H1892 0.930 . S
C1906 C1904 1.395 . S
C1906 C1909 1.403 . S
C1907 C1904 1.403 . S
C1907 C1908 1.524 . S
C1907 C1911 1.400 . S
C1908 H1893 0.960 . S
C1908 H1894 0.960 . S
C1908 H1895 0.960 . S
C1908 C1907 1.524 . S
C1909 C1906 1.403 . S
C1909 C1910 1.392 . S
C1909 C1913 1.495 . S
C1910 C1909 1.392 . S
C1910 C1911 1.385 . S
C1910 C1912 1.478 . S
C1911 H1905 0.930 . S
C1911 C1907 1.400 . S
C1911 C1910 1.385 . S
C1912 C1910 1.478 . S
C1912 C1914 1.381 . S
C1912 C1918 1.383 . S
C1913 C1909 1.495 . S
C1913 H1919 0.959 . S
C1913 H1920 0.961 . S
C1913 H1921 0.960 . S
C1914 C1912 1.381 . S
C1914 C1915 1.394 . S
C1914 H1922 0.930 . S
C1915 C1914 1.394 . S
C1915 C1916 1.383 . S
C1915 H1923 0.929 . S
C1916 C1915 1.383 . S
C1916 C1917 1.377 . S
C1917 H1901 0.930 . S
C1917 C1916 1.377 . S
C1917 C1918 1.379 . S
C1918 H1902 0.931 . S
C1918 C1912 1.383 . S
C1918 C1917 1.379 . S
H1919 C1913 0.959 . S
H1920 C1913 0.961 . S
H1921 C1913 0.960 . S
H1922 C1914 0.930 . S
H1923 C1915 0.929 . S
H1924 C1932 0.929 . S
H1925 C1934 0.930 . S
H1926 C1936 0.930 . S
H1927 C1939 0.929 . S
H1928 C1942 0.930 . S
H1929 C1944 0.960 . S
H1930 C1944 0.960 . S
H1931 C1944 0.960 . S
C1932 H1924 0.929 . S
C1932 C1933 1.377 . S
C1932 C1934 1.384 . S
C1933 C1932 1.377 . S
C1933 C1939 1.390 . S
C1934 H1925 0.930 . S
C1934 C1932 1.384 . S
C1934 C1935 1.372 . S
C1935 C1934 1.372 . S
C1935 C1936 1.400 . S
C1935 C1940 1.490 . S
C1936 H1926 0.930 . S
C1936 C1935 1.400 . S
C1936 C1939 1.386 . S
H1937 C1953 0.930 . S
H1938 C1954 0.931 . S
C1939 H1927 0.929 . S
C1939 C1933 1.390 . S
C1939 C1936 1.386 . S
C1940 C1935 1.490 . S
C1940 C1942 1.395 . S
C1940 C1943 1.403 . S
H1941 C1947 0.930 . S
C1942 H1928 0.930 . S
C1942 C1940 1.395 . S
C1942 C1945 1.403 . S
C1943 C1940 1.403 . S
C1943 C1944 1.524 . S
C1943 C1947 1.400 . S
C1944 H1929 0.960 . S
C1944 H1930 0.960 . S
C1944 H1931 0.960 . S
C1944 C1943 1.524 . S
C1945 C1942 1.403 . S
C1945 C1946 1.392 . S
C1945 C1949 1.495 . S
C1946 C1945 1.392 . S
C1946 C1947 1.385 . S
C1946 C1948 1.478 . S
C1947 H1941 0.930 . S
C1947 C1943 1.400 . S
C1947 C1946 1.385 . S
C1948 C1946 1.478 . S
C1948 C1950 1.381 . S
C1948 C1954 1.383 . S
C1949 C1945 1.495 . S
C1949 H1955 0.959 . S
C1949 H1956 0.961 . S
C1949 H1957 0.960 . S
C1950 C1948 1.381 . S
C1950 C1951 1.394 . S
C1950 H1958 0.930 . S
C1951 C1950 1.394 . S
C1951 C1952 1.383 . S
C1951 H1959 0.929 . S
C1952 C1951 1.383 . S
C1952 C1953 1.377 . S
C1953 H1937 0.930 . S
C1953 C1952 1.377 . S
C1953 C1954 1.379 . S
C1954 H1938 0.931 . S
C1954 C1948 1.383 . S
C1954 C1953 1.379 . S
H1955 C1949 0.959 . S
H1956 C1949 0.961 . S
H1957 C1949 0.960 . S
H1958 C1950 0.930 . S
H1959 C1951 0.929 . S
H1960 C1968 0.929 . S
H1961 C1970 0.930 . S
H1962 C1972 0.930 . S
H1963 C1975 0.929 . S
H1964 C1978 0.930 . S
H1965 C1980 0.960 . S
H1966 C1980 0.960 . S
H1967 C1980 0.960 . S
C1968 H1960 0.929 . S
C1968 C1969 1.377 . S
C1968 C1970 1.384 . S
C1969 C1968 1.377 . S
C1969 C1975 1.390 . S
C1970 H1961 0.930 . S
C1970 C1968 1.384 . S
C1970 C1971 1.372 . S
C1971 C1970 1.372 . S
C1971 C1972 1.400 . S
C1971 C1976 1.490 . S
C1972 H1962 0.930 . S
C1972 C1971 1.400 . S
C1972 C1975 1.386 . S
H1973 C1989 0.930 . S
H1974 C1990 0.931 . S
C1975 H1963 0.929 . S
C1975 C1969 1.390 . S
C1975 C1972 1.386 . S
C1976 C1971 1.490 . S
C1976 C1978 1.395 . S
C1976 C1979 1.403 . S
H1977 C1983 0.930 . S
C1978 H1964 0.930 . S
C1978 C1976 1.395 . S
C1978 C1981 1.403 . S
C1979 C1976 1.403 . S
C1979 C1980 1.524 . S
C1979 C1983 1.400 . S
C1980 H1965 0.960 . S
C1980 H1966 0.960 . S
C1980 H1967 0.960 . S
C1980 C1979 1.524 . S
C1981 C1978 1.403 . S
C1981 C1982 1.392 . S
C1981 C1985 1.495 . S
C1982 C1981 1.392 . S
C1982 C1983 1.385 . S
C1982 C1984 1.478 . S
C1983 H1977 0.930 . S
C1983 C1979 1.400 . S
C1983 C1982 1.385 . S
C1984 C1982 1.478 . S
C1984 C1986 1.381 . S
C1984 C1990 1.383 . S
C1985 C1981 1.495 . S
C1985 H1991 0.959 . S
C1985 H1992 0.961 . S
C1985 H1993 0.960 . S
C1986 C1984 1.381 . S
C1986 C1987 1.394 . S
C1986 H1994 0.930 . S
C1987 C1986 1.394 . S
C1987 C1988 1.383 . S
C1987 H1995 0.929 . S
C1988 C1987 1.383 . S
C1988 C1989 1.377 . S
C1989 H1973 0.930 . S
C1989 C1988 1.377 . S
C1989 C1990 1.379 . S
C1990 H1974 0.931 . S
C1990 C1984 1.383 . S
C1990 C1989 1.379 . S
H1991 C1985 0.959 . S
H1992 C1985 0.961 . S
H1993 C1985 0.960 . S
H1994 C1986 0.930 . S
H1995 C1987 0.929 . S
H1996 C2004 0.929 . S
H1997 C2006 0.930 . S
H1998 C2008 0.930 . S
H1999 C2011 0.929 . S
H2000 C2014 0.930 . S
H2001 C2016 0.960 . S
H2002 C2016 0.960 . S
H2003 C2016 0.960 . S
C2004 H1996 0.929 . S
C2004 C2005 1.377 . S
C2004 C2006 1.384 . S
C2005 C2004 1.377 . S
C2005 C2011 1.390 . S
C2006 H1997 0.930 . S
C2006 C2004 1.384 . S
C2006 C2007 1.372 . S
C2007 C2006 1.372 . S
C2007 C2008 1.400 . S
C2007 C2012 1.490 . S
C2008 H1998 0.930 . S
C2008 C2007 1.400 . S
C2008 C2011 1.386 . S
H2009 C2025 0.930 . S
H2010 C2026 0.931 . S
C2011 H1999 0.929 . S
C2011 C2005 1.390 . S
C2011 C2008 1.386 . S
C2012 C2007 1.490 . S
C2012 C2014 1.395 . S
C2012 C2015 1.403 . S
H2013 C2019 0.930 . S
C2014 H2000 0.930 . S
C2014 C2012 1.395 . S
C2014 C2017 1.403 . S
C2015 C2012 1.403 . S
C2015 C2016 1.524 . S
C2015 C2019 1.400 . S
C2016 H2001 0.960 . S
C2016 H2002 0.960 . S
C2016 H2003 0.960 . S
C2016 C2015 1.524 . S
C2017 C2014 1.403 . S
C2017 C2018 1.392 . S
C2017 C2021 1.495 . S
C2018 C2017 1.392 . S
C2018 C2019 1.385 . S
C2018 C2020 1.478 . S
C2019 H2013 0.930 . S
C2019 C2015 1.400 . S
C2019 C2018 1.385 . S
C2020 C2018 1.478 . S
C2020 C2022 1.381 . S
C2020 C2026 1.383 . S
C2021 C2017 1.495 . S
C2021 H2027 0.959 . S
C2021 H2028 0.961 . S
C2021 H2029 0.960 . S
C2022 C2020 1.381 . S
C2022 C2023 1.394 . S
C2022 H2030 0.930 . S
C2023 C2022 1.394 . S
C2023 C2024 1.383 . S
C2023 H2031 0.929 . S
C2024 C2023 1.383 . S
C2024 C2025 1.377 . S
C2025 H2009 0.930 . S
C2025 C2024 1.377 . S
C2025 C2026 1.379 . S
C2026 H2010 0.931 . S
C2026 C2020 1.383 . S
C2026 C2025 1.379 . S
H2027 C2021 0.959 . S
H2028 C2021 0.961 . S
H2029 C2021 0.960 . S
H2030 C2022 0.930 . S
H2031 C2023 0.929 . S
H2032 C2040 0.929 . S
H2033 C2042 0.930 . S
H2034 C2044 0.930 . S
H2035 C2047 0.929 . S
H2036 C2050 0.930 . S
H2037 C2052 0.960 . S
H2038 C2052 0.960 . S
H2039 C2052 0.960 . S
C2040 H2032 0.929 . S
C2040 C2041 1.377 . S
C2040 C2042 1.384 . S
C2041 C2040 1.377 . S
C2041 C2047 1.390 . S
C2042 H2033 0.930 . S
C2042 C2040 1.384 . S
C2042 C2043 1.372 . S
C2043 C2042 1.372 . S
C2043 C2044 1.400 . S
C2043 C2048 1.490 . S
C2044 H2034 0.930 . S
C2044 C2043 1.400 . S
C2044 C2047 1.386 . S
H2045 C2061 0.930 . S
H2046 C2062 0.931 . S
C2047 H2035 0.929 . S
C2047 C2041 1.390 . S
C2047 C2044 1.386 . S
C2048 C2043 1.490 . S
C2048 C2050 1.395 . S
C2048 C2051 1.403 . S
H2049 C2055 0.930 . S
C2050 H2036 0.930 . S
C2050 C2048 1.395 . S
C2050 C2053 1.403 . S
C2051 C2048 1.403 . S
C2051 C2052 1.524 . S
C2051 C2055 1.400 . S
C2052 H2037 0.960 . S
C2052 H2038 0.960 . S
C2052 H2039 0.960 . S
C2052 C2051 1.524 . S
C2053 C2050 1.403 . S
C2053 C2054 1.392 . S
C2053 C2057 1.495 . S
C2054 C2053 1.392 . S
C2054 C2055 1.385 . S
C2054 C2056 1.478 . S
C2055 H2049 0.930 . S
C2055 C2051 1.400 . S
C2055 C2054 1.385 . S
C2056 C2054 1.478 . S
C2056 C2058 1.381 . S
C2056 C2062 1.383 . S
C2057 C2053 1.495 . S
C2057 H2063 0.959 . S
C2057 H2064 0.961 . S
C2057 H2065 0.960 . S
C2058 C2056 1.381 . S
C2058 C2059 1.394 . S
C2058 H2066 0.930 . S
C2059 C2058 1.394 . S
C2059 C2060 1.383 . S
C2059 H2067 0.929 . S
C2060 C2059 1.383 . S
C2060 C2061 1.377 . S
C2061 H2045 0.930 . S
C2061 C2060 1.377 . S
C2061 C2062 1.379 . S
C2062 H2046 0.931 . S
C2062 C2056 1.383 . S
C2062 C2061 1.379 . S
H2063 C2057 0.959 . S
H2064 C2057 0.961 . S
H2065 C2057 0.960 . S
H2066 C2058 0.930 . S
H2067 C2059 0.929 . S
H2068 C2076 0.929 . S
H2069 C2078 0.930 . S
H2070 C2080 0.930 . S
H2071 C2083 0.929 . S
H2072 C2086 0.930 . S
H2073 C2088 0.960 . S
H2074 C2088 0.960 . S
H2075 C2088 0.960 . S
C2076 H2068 0.929 . S
C2076 C2077 1.377 . S
C2076 C2078 1.384 . S
C2077 C2076 1.377 . S
C2077 C2083 1.390 . S
C2078 H2069 0.930 . S
C2078 C2076 1.384 . S
C2078 C2079 1.372 . S
C2079 C2078 1.372 . S
C2079 C2080 1.400 . S
C2079 C2084 1.490 . S
C2080 H2070 0.930 . S
C2080 C2079 1.400 . S
C2080 C2083 1.386 . S
H2081 C2097 0.930 . S
H2082 C2098 0.931 . S
C2083 H2071 0.929 . S
C2083 C2077 1.390 . S
C2083 C2080 1.386 . S
C2084 C2079 1.490 . S
C2084 C2086 1.395 . S
C2084 C2087 1.403 . S
H2085 C2091 0.930 . S
C2086 H2072 0.930 . S
C2086 C2084 1.395 . S
C2086 C2089 1.403 . S
C2087 C2084 1.403 . S
C2087 C2088 1.524 . S
C2087 C2091 1.400 . S
C2088 H2073 0.960 . S
C2088 H2074 0.960 . S
C2088 H2075 0.960 . S
C2088 C2087 1.524 . S
C2089 C2086 1.403 . S
C2089 C2090 1.392 . S
C2089 C2093 1.495 . S
C2090 C2089 1.392 . S
C2090 C2091 1.385 . S
C2090 C2092 1.478 . S
C2091 H2085 0.930 . S
C2091 C2087 1.400 . S
C2091 C2090 1.385 . S
C2092 C2090 1.478 . S
C2092 C2094 1.381 . S
C2092 C2098 1.383 . S
C2093 C2089 1.495 . S
C2093 H2099 0.959 . S
C2093 H2100 0.961 . S
C2093 H2101 0.960 . S
C2094 C2092 1.381 . S
C2094 C2095 1.394 . S
C2094 H2102 0.930 . S
C2095 C2094 1.394 . S
C2095 C2096 1.383 . S
C2095 H2103 0.929 . S
C2096 C2095 1.383 . S
C2096 C2097 1.377 . S
C2097 H2081 0.930 . S
C2097 C2096 1.377 . S
C2097 C2098 1.379 . S
C2098 H2082 0.931 . S
C2098 C2092 1.383 . S
C2098 C2097 1.379 . S
H2099 C2093 0.959 . S
H2100 C2093 0.961 . S
H2101 C2093 0.960 . S
H2102 C2094 0.930 . S
H2103 C2095 0.929 . S
H2104 C2112 0.929 . S
H2105 C2114 0.930 . S
H2106 C2116 0.930 . S
H2107 C2119 0.929 . S
H2108 C2122 0.930 . S
H2109 C2124 0.960 . S
H2110 C2124 0.960 . S
H2111 C2124 0.960 . S
C2112 H2104 0.929 . S
C2112 C2113 1.377 . S
C2112 C2114 1.384 . S
C2113 C2112 1.377 . S
C2113 C2119 1.390 . S
C2114 H2105 0.930 . S
C2114 C2112 1.384 . S
C2114 C2115 1.372 . S
C2115 C2114 1.372 . S
C2115 C2116 1.400 . S
C2115 C2120 1.490 . S
C2116 H2106 0.930 . S
C2116 C2115 1.400 . S
C2116 C2119 1.386 . S
H2117 C2133 0.930 . S
H2118 C2134 0.931 . S
C2119 H2107 0.929 . S
C2119 C2113 1.390 . S
C2119 C2116 1.386 . S
C2120 C2115 1.490 . S
C2120 C2122 1.395 . S
C2120 C2123 1.403 . S
H2121 C2127 0.930 . S
C2122 H2108 0.930 . S
C2122 C2120 1.395 . S
C2122 C2125 1.403 . S
C2123 C2120 1.403 . S
C2123 C2124 1.524 . S
C2123 C2127 1.400 . S
C2124 H2109 0.960 . S
C2124 H2110 0.960 . S
C2124 H2111 0.960 . S
C2124 C2123 1.524 . S
C2125 C2122 1.403 . S
C2125 C2126 1.392 . S
C2125 C2129 1.495 . S
C2126 C2125 1.392 . S
C2126 C2127 1.385 . S
C2126 C2128 1.478 . S
C2127 H2121 0.930 . S
C2127 C2123 1.400 . S
C2127 C2126 1.385 . S
C2128 C2126 1.478 . S
C2128 C2130 1.381 . S
C2128 C2134 1.383 . S
C2129 C2125 1.495 . S
C2129 H2135 0.959 . S
C2129 H2136 0.961 . S
C2129 H2137 0.960 . S
C2130 C2128 1.381 . S
C2130 C2131 1.394 . S
C2130 H2138 0.930 . S
C2131 C2130 1.394 . S
C2131 C2132 1.383 . S
C2131 H2139 0.929 . S
C2132 C2131 1.383 . S
C2132 C2133 1.377 . S
C2133 H2117 0.930 . S
C2133 C2132 1.377 . S
C2133 C2134 1.379 . S
C2134 H2118 0.931 . S
C2134 C2128 1.383 . S
C2134 C2133 1.379 . S
H2135 C2129 0.959 . S
H2136 C2129 0.961 . S
H2137 C2129 0.960 . S
H2138 C2130 0.930 . S
H2139 C2131 0.929 . S
H2140 C2148 0.929 . S
H2141 C2150 0.930 . S
H2142 C2152 0.930 . S
H2143 C2155 0.929 . S
H2144 C2158 0.930 . S
H2145 C2160 0.960 . S
H2146 C2160 0.960 . S
H2147 C2160 0.960 . S
C2148 H2140 0.929 . S
C2148 C2149 1.377 . S
C2148 C2150 1.384 . S
C2149 C2148 1.377 . S
C2149 C2155 1.390 . S
C2150 H2141 0.930 . S
C2150 C2148 1.384 . S
C2150 C2151 1.372 . S
C2151 C2150 1.372 . S
C2151 C2152 1.400 . S
C2151 C2156 1.490 . S
C2152 H2142 0.930 . S
C2152 C2151 1.400 . S
C2152 C2155 1.386 . S
H2153 C2169 0.930 . S
H2154 C2170 0.931 . S
C2155 H2143 0.929 . S
C2155 C2149 1.390 . S
C2155 C2152 1.386 . S
C2156 C2151 1.490 . S
C2156 C2158 1.395 . S
C2156 C2159 1.403 . S
H2157 C2163 0.930 . S
C2158 H2144 0.930 . S
C2158 C2156 1.395 . S
C2158 C2161 1.403 . S
C2159 C2156 1.403 . S
C2159 C2160 1.524 . S
C2159 C2163 1.400 . S
C2160 H2145 0.960 . S
C2160 H2146 0.960 . S
C2160 H2147 0.960 . S
C2160 C2159 1.524 . S
C2161 C2158 1.403 . S
C2161 C2162 1.392 . S
C2161 C2165 1.495 . S
C2162 C2161 1.392 . S
C2162 C2163 1.385 . S
C2162 C2164 1.478 . S
C2163 H2157 0.930 . S
C2163 C2159 1.400 . S
C2163 C2162 1.385 . S
C2164 C2162 1.478 . S
C2164 C2166 1.381 . S
C2164 C2170 1.383 . S
C2165 C2161 1.495 . S
C2165 H2171 0.959 . S
C2165 H2172 0.961 . S
C2165 H2173 0.960 . S
C2166 C2164 1.381 . S
C2166 C2167 1.394 . S
C2166 H2174 0.930 . S
C2167 C2166 1.394 . S
C2167 C2168 1.383 . S
C2167 H2175 0.929 . S
C2168 C2167 1.383 . S
C2168 C2169 1.377 . S
C2169 H2153 0.930 . S
C2169 C2168 1.377 . S
C2169 C2170 1.379 . S
C2170 H2154 0.931 . S
C2170 C2164 1.383 . S
C2170 C2169 1.379 . S
H2171 C2165 0.959 . S
H2172 C2165 0.961 . S
H2173 C2165 0.960 . S
H2174 C2166 0.930 . S
H2175 C2167 0.929 . S
H2176 C2184 0.929 . S
H2177 C2186 0.930 . S
H2178 C2188 0.930 . S
H2179 C2191 0.929 . S
H2180 C2194 0.930 . S
H2181 C2196 0.960 . S
H2182 C2196 0.960 . S
H2183 C2196 0.960 . S
C2184 H2176 0.929 . S
C2184 C2185 1.377 . S
C2184 C2186 1.384 . S
C2185 C2184 1.377 . S
C2185 C2191 1.390 . S
C2186 H2177 0.930 . S
C2186 C2184 1.384 . S
C2186 C2187 1.372 . S
C2187 C2186 1.372 . S
C2187 C2188 1.400 . S
C2187 C2192 1.490 . S
C2188 H2178 0.930 . S
C2188 C2187 1.400 . S
C2188 C2191 1.386 . S
H2189 C2205 0.930 . S
H2190 C2206 0.931 . S
C2191 H2179 0.929 . S
C2191 C2185 1.390 . S
C2191 C2188 1.386 . S
C2192 C2187 1.490 . S
C2192 C2194 1.395 . S
C2192 C2195 1.403 . S
H2193 C2199 0.930 . S
C2194 H2180 0.930 . S
C2194 C2192 1.395 . S
C2194 C2197 1.403 . S
C2195 C2192 1.403 . S
C2195 C2196 1.524 . S
C2195 C2199 1.400 . S
C2196 H2181 0.960 . S
C2196 H2182 0.960 . S
C2196 H2183 0.960 . S
C2196 C2195 1.524 . S
C2197 C2194 1.403 . S
C2197 C2198 1.392 . S
C2197 C2201 1.495 . S
C2198 C2197 1.392 . S
C2198 C2199 1.385 . S
C2198 C2200 1.478 . S
C2199 H2193 0.930 . S
C2199 C2195 1.400 . S
C2199 C2198 1.385 . S
C2200 C2198 1.478 . S
C2200 C2202 1.381 . S
C2200 C2206 1.383 . S
C2201 C2197 1.495 . S
C2201 H2207 0.959 . S
C2201 H2208 0.961 . S
C2201 H2209 0.960 . S
C2202 C2200 1.381 . S
C2202 C2203 1.394 . S
C2202 H2210 0.930 . S
C2203 C2202 1.394 . S
C2203 C2204 1.383 . S
C2203 H2211 0.929 . S
C2204 C2203 1.383 . S
C2204 C2205 1.377 . S
C2205 H2189 0.930 . S
C2205 C2204 1.377 . S
C2205 C2206 1.379 . S
C2206 H2190 0.931 . S
C2206 C2200 1.383 . S
C2206 C2205 1.379 . S
H2207 C2201 0.959 . S
H2208 C2201 0.961 . S
H2209 C2201 0.960 . S
H2210 C2202 0.930 . S
H2211 C2203 0.929 . S
H2212 C2220 0.929 . S
H2213 C2222 0.930 . S
H2214 C2224 0.930 . S
H2215 C2227 0.929 . S
H2216 C2230 0.930 . S
H2217 C2232 0.960 . S
H2218 C2232 0.960 . S
H2219 C2232 0.960 . S
C2220 H2212 0.929 . S
C2220 C2221 1.377 . S
C2220 C2222 1.384 . S
C2221 C2220 1.377 . S
C2221 C2227 1.390 . S
C2222 H2213 0.930 . S
C2222 C2220 1.384 . S
C2222 C2223 1.372 . S
C2223 C2222 1.372 . S
C2223 C2224 1.400 . S
C2223 C2228 1.490 . S
C2224 H2214 0.930 . S
C2224 C2223 1.400 . S
C2224 C2227 1.386 . S
H2225 C2241 0.930 . S
H2226 C2242 0.931 . S
C2227 H2215 0.929 . S
C2227 C2221 1.390 . S
C2227 C2224 1.386 . S
C2228 C2223 1.490 . S
C2228 C2230 1.395 . S
C2228 C2231 1.403 . S
H2229 C2235 0.930 . S
C2230 H2216 0.930 . S
C2230 C2228 1.395 . S
C2230 C2233 1.403 . S
C2231 C2228 1.403 . S
C2231 C2232 1.524 . S
C2231 C2235 1.400 . S
C2232 H2217 0.960 . S
C2232 H2218 0.960 . S
C2232 H2219 0.960 . S
C2232 C2231 1.524 . S
C2233 C2230 1.403 . S
C2233 C2234 1.392 . S
C2233 C2237 1.495 . S
C2234 C2233 1.392 . S
C2234 C2235 1.385 . S
C2234 C2236 1.478 . S
C2235 H2229 0.930 . S
C2235 C2231 1.400 . S
C2235 C2234 1.385 . S
C2236 C2234 1.478 . S
C2236 C2238 1.381 . S
C2236 C2242 1.383 . S
C2237 C2233 1.495 . S
C2237 H2243 0.959 . S
C2237 H2244 0.961 . S
C2237 H2245 0.960 . S
C2238 C2236 1.381 . S
C2238 C2239 1.394 . S
C2238 H2246 0.930 . S
C2239 C2238 1.394 . S
C2239 C2240 1.383 . S
C2239 H2247 0.929 . S
C2240 C2239 1.383 . S
C2240 C2241 1.377 . S
C2241 H2225 0.930 . S
C2241 C2240 1.377 . S
C2241 C2242 1.379 . S
C2242 H2226 0.931 . S
C2242 C2236 1.383 . S
C2242 C2241 1.379 . S
H2243 C2237 0.959 . S
H2244 C2237 0.961 . S
H2245 C2237 0.960 . S
H2246 C2238 0.930 . S
H2247 C2239 0.929 . S
H2248 C2256 0.929 . S
H2249 C2258 0.930 . S
H2250 C2260 0.930 . S
H2251 C2263 0.929 . S
H2252 C2266 0.930 . S
H2253 C2268 0.960 . S
H2254 C2268 0.960 . S
H2255 C2268 0.960 . S
C2256 H2248 0.929 . S
C2256 C2257 1.372 1_556 S
C2256 C2258 1.384 . S
C2257 C2256 1.372 1_554 S
C2257 C2263 1.396 . S
C2258 H2249 0.930 . S
C2258 C2256 1.384 . S
C2258 C2259 1.378 . S
C2259 C2258 1.378 . S
C2259 C2260 1.393 1_556 S
C2259 C2264 1.489 . S
C2260 H2250 0.930 . S
C2260 C2259 1.393 1_554 S
C2260 C2263 1.386 . S
H2261 C2277 0.930 . S
H2262 C2278 0.931 . S
C2263 H2251 0.929 . S
C2263 C2257 1.396 . S
C2263 C2260 1.386 . S
C2264 C2259 1.489 . S
C2264 C2266 1.449 . S
C2264 C2267 1.352 1_556 S
H2265 C2271 0.930 . S
C2266 H2252 0.930 . S
C2266 C2264 1.449 . S
C2266 C2269 1.403 . S
C2267 C2264 1.352 1_554 S
C2267 C2268 1.524 . S
C2267 C2271 1.400 . S
C2268 H2253 0.960 . S
C2268 H2254 0.960 . S
C2268 H2255 0.960 . S
C2268 C2267 1.524 . S
C2269 C2266 1.403 . S
C2269 C2270 1.392 . S
C2269 C2273 1.495 . S
C2270 C2269 1.392 . S
C2270 C2271 1.385 1_556 S
C2270 C2272 1.478 . S
C2271 H2265 0.930 . S
C2271 C2267 1.400 . S
C2271 C2270 1.385 1_554 S
C2272 C2270 1.478 . S
C2272 C2274 1.381 . S
C2272 C2278 1.383 1_556 S
C2273 C2269 1.495 . S
C2273 H2279 0.959 . S
C2273 H2280 0.961 . S
C2273 H2281 0.960 . S
C2274 C2272 1.381 . S
C2274 C2275 1.394 . S
C2274 H2282 0.930 . S
C2275 C2274 1.394 . S
C2275 C2276 1.383 . S
C2275 H2283 0.929 . S
C2276 C2275 1.383 . S
C2276 C2277 1.377 1_556 S
C2277 H2261 0.930 . S
C2277 C2276 1.377 1_554 S
C2277 C2278 1.379 . S
C2278 H2262 0.931 . S
C2278 C2272 1.383 1_554 S
C2278 C2277 1.379 . S
H2279 C2273 0.959 . S
H2280 C2273 0.961 . S
H2281 C2273 0.960 . S
H2282 C2274 0.930 . S
H2283 C2275 0.929 . S
H2284 C2292 0.929 . S
H2285 C2294 0.930 . S
H2286 C2296 0.930 . S
H2287 C2299 0.929 . S
H2288 C2302 0.930 . S
H2289 C2304 0.960 . S
H2290 C2304 0.960 1_556 S
H2291 C2304 0.960 . S
C2292 H2284 0.929 . S
C2292 C2293 1.374 . S
C2292 C2294 1.384 . S
C2293 C2292 1.374 . S
C2293 C2299 1.393 1_556 S
C2294 H2285 0.930 . S
C2294 C2292 1.384 . S
C2294 C2295 1.416 . S
C2295 C2294 1.416 . S
C2295 C2296 1.355 1_556 S
C2295 C2300 1.490 . S
C2296 H2286 0.930 . S
C2296 C2295 1.355 1_554 S
C2296 C2299 1.386 . S
H2297 C2313 0.930 . S
H2298 C2314 0.931 . S
C2299 H2287 0.929 . S
C2299 C2293 1.393 1_554 S
C2299 C2296 1.386 . S
C2300 C2295 1.490 . S
C2300 C2302 1.409 . S
C2300 C2303 1.392 1_556 S
H2301 C2307 0.930 . S
C2302 H2288 0.930 . S
C2302 C2300 1.409 . S
C2302 C2305 1.403 . S
C2303 C2300 1.392 1_554 S
C2303 C2304 1.524 . S
C2303 C2307 1.400 . S
C2304 H2289 0.960 . S
C2304 H2290 0.960 1_554 S
C2304 H2291 0.960 . S
C2304 C2303 1.524 . S
C2305 C2302 1.403 . S
C2305 C2306 1.392 . S
C2305 C2309 1.495 . S
C2306 C2305 1.392 . S
C2306 C2307 1.385 1_556 S
C2306 C2308 1.479 . S
C2307 H2301 0.930 . S
C2307 C2303 1.400 . S
C2307 C2306 1.385 1_554 S
C2308 C2306 1.479 . S
C2308 C2310 1.420 . S
C2308 C2314 1.343 1_556 S
C2309 C2305 1.495 . S
C2309 H2315 0.959 . S
C2309 H2316 0.961 1_556 S
C2309 H2317 0.960 . S
C2310 C2308 1.420 . S
C2310 C2311 1.394 . S
C2310 H2318 0.930 . S
C2311 C2310 1.394 . S
C2311 C2312 1.377 . S
C2311 H2319 0.929 . S
C2312 C2311 1.377 . S
C2312 C2313 1.382 1_556 S
C2313 H2297 0.930 . S
C2313 C2312 1.382 1_554 S
C2313 C2314 1.379 . S
C2314 H2298 0.931 . S
C2314 C2308 1.343 1_554 S
C2314 C2313 1.379 . S
H2315 C2309 0.959 . S
H2316 C2309 0.961 1_554 S
H2317 C2309 0.960 . S
H2318 C2310 0.930 . S
H2319 C2311 0.929 . S
H2320 C2328 0.929 . S
H2321 C2330 0.930 . S
H2322 C2332 0.930 . S
H2323 C2335 0.929 . S
H2324 C2338 0.930 . S
H2325 C2340 0.960 . S
H2326 C2340 0.960 . S
H2327 C2340 0.960 . S
C2328 H2320 0.929 . S
C2328 C2329 1.377 . S
C2328 C2330 1.384 . S
C2329 C2328 1.377 . S
C2329 C2335 1.390 . S
C2330 H2321 0.930 . S
C2330 C2328 1.384 . S
C2330 C2331 1.372 . S
C2331 C2330 1.372 . S
C2331 C2332 1.400 . S
C2331 C2336 1.490 . S
C2332 H2322 0.930 . S
C2332 C2331 1.400 . S
C2332 C2335 1.386 . S
H2333 C2349 0.930 . S
H2334 C2350 0.931 . S
C2335 H2323 0.929 . S
C2335 C2329 1.390 . S
C2335 C2332 1.386 . S
C2336 C2331 1.490 . S
C2336 C2338 1.395 . S
C2336 C2339 1.403 . S
H2337 C2343 0.930 . S
C2338 H2324 0.930 . S
C2338 C2336 1.395 . S
C2338 C2341 1.403 . S
C2339 C2336 1.403 . S
C2339 C2340 1.524 . S
C2339 C2343 1.400 . S
C2340 H2325 0.960 . S
C2340 H2326 0.960 . S
C2340 H2327 0.960 . S
C2340 C2339 1.524 . S
C2341 C2338 1.403 . S
C2341 C2342 1.392 . S
C2341 C2345 1.495 . S
C2342 C2341 1.392 . S
C2342 C2343 1.385 . S
C2342 C2344 1.478 . S
C2343 H2337 0.930 . S
C2343 C2339 1.400 . S
C2343 C2342 1.385 . S
C2344 C2342 1.478 . S
C2344 C2346 1.381 . S
C2344 C2350 1.383 . S
C2345 C2341 1.495 . S
C2345 H2351 0.959 . S
C2345 H2352 0.961 . S
C2345 H2353 0.960 . S
C2346 C2344 1.381 . S
C2346 C2347 1.394 . S
C2346 H2354 0.930 . S
C2347 C2346 1.394 . S
C2347 C2348 1.383 . S
C2347 H2355 0.929 . S
C2348 C2347 1.383 . S
C2348 C2349 1.377 . S
C2349 H2333 0.930 . S
C2349 C2348 1.377 . S
C2349 C2350 1.379 . S
C2350 H2334 0.931 . S
C2350 C2344 1.383 . S
C2350 C2349 1.379 . S
H2351 C2345 0.959 . S
H2352 C2345 0.961 . S
H2353 C2345 0.960 . S
H2354 C2346 0.930 . S
H2355 C2347 0.929 . S
H2356 C2364 0.929 . S
H2357 C2366 0.930 . S
H2358 C2368 0.930 . S
H2359 C2371 0.929 . S
H2360 C2374 0.930 . S
H2361 C2376 0.960 . S
H2362 C2376 0.960 . S
H2363 C2376 0.960 . S
C2364 H2356 0.929 . S
C2364 C2365 1.377 . S
C2364 C2366 1.384 . S
C2365 C2364 1.377 . S
C2365 C2371 1.390 . S
C2366 H2357 0.930 . S
C2366 C2364 1.384 . S
C2366 C2367 1.372 . S
C2367 C2366 1.372 . S
C2367 C2368 1.400 . S
C2367 C2372 1.490 . S
C2368 H2358 0.930 . S
C2368 C2367 1.400 . S
C2368 C2371 1.386 . S
H2369 C2385 0.930 . S
H2370 C2386 0.931 . S
C2371 H2359 0.929 . S
C2371 C2365 1.390 . S
C2371 C2368 1.386 . S
C2372 C2367 1.490 . S
C2372 C2374 1.395 . S
C2372 C2375 1.403 . S
H2373 C2379 0.930 . S
C2374 H2360 0.930 . S
C2374 C2372 1.395 . S
C2374 C2377 1.403 . S
C2375 C2372 1.403 . S
C2375 C2376 1.524 . S
C2375 C2379 1.400 . S
C2376 H2361 0.960 . S
C2376 H2362 0.960 . S
C2376 H2363 0.960 . S
C2376 C2375 1.524 . S
C2377 C2374 1.403 . S
C2377 C2378 1.392 . S
C2377 C2381 1.495 . S
C2378 C2377 1.392 . S
C2378 C2379 1.385 . S
C2378 C2380 1.478 . S
C2379 H2373 0.930 . S
C2379 C2375 1.400 . S
C2379 C2378 1.385 . S
C2380 C2378 1.478 . S
C2380 C2382 1.381 . S
C2380 C2386 1.383 . S
C2381 C2377 1.495 . S
C2381 H2387 0.959 . S
C2381 H2388 0.961 . S
C2381 H2389 0.960 . S
C2382 C2380 1.381 . S
C2382 C2383 1.394 . S
C2382 H2390 0.930 . S
C2383 C2382 1.394 . S
C2383 C2384 1.383 . S
C2383 H2391 0.929 . S
C2384 C2383 1.383 . S
C2384 C2385 1.377 . S
C2385 H2369 0.930 . S
C2385 C2384 1.377 . S
C2385 C2386 1.379 . S
C2386 H2370 0.931 . S
C2386 C2380 1.383 . S
C2386 C2385 1.379 . S
H2387 C2381 0.959 . S
H2388 C2381 0.961 . S
H2389 C2381 0.960 . S
H2390 C2382 0.930 . S
H2391 C2383 0.929 . S
H2392 C2400 0.929 . S
H2393 C2402 0.930 . S
H2394 C2404 0.930 . S
H2395 C2407 0.929 . S
H2396 C2410 0.930 . S
H2397 C2412 0.960 . S
H2398 C2412 0.960 . S
H2399 C2412 0.960 . S
C2400 H2392 0.929 . S
C2400 C2401 1.392 . S
C2400 C2402 1.384 . S
C2401 C2400 1.392 . S
C2401 C2407 1.375 1_556 S
C2402 H2393 0.930 . S
C2402 C2400 1.384 . S
C2402 C2403 1.372 . S
C2403 C2402 1.372 . S
C2403 C2404 1.400 1_556 S
C2403 C2408 1.490 . S
C2404 H2394 0.930 . S
C2404 C2403 1.400 1_554 S
C2404 C2407 1.386 . S
H2405 C2421 0.930 . S
H2406 C2422 0.931 . S
C2407 H2395 0.929 . S
C2407 C2401 1.375 1_554 S
C2407 C2404 1.386 . S
C2408 C2403 1.490 . S
C2408 C2410 1.395 . S
C2408 C2411 1.403 1_556 S
H2409 C2415 0.930 . S
C2410 H2396 0.930 . S
C2410 C2408 1.395 . S
C2410 C2413 1.403 . S
C2411 C2408 1.403 1_554 S
C2411 C2412 1.524 . S
C2411 C2415 1.400 . S
C2412 H2397 0.960 . S
C2412 H2398 0.960 . S
C2412 H2399 0.960 . S
C2412 C2411 1.524 . S
C2413 C2410 1.403 . S
C2413 C2414 1.392 . S
C2413 C2417 1.495 . S
C2414 C2413 1.392 . S
C2414 C2415 1.385 1_556 S
C2414 C2416 1.478 . S
C2415 H2409 0.930 . S
C2415 C2411 1.400 . S
C2415 C2414 1.385 1_554 S
C2416 C2414 1.478 . S
C2416 C2418 1.381 . S
C2416 C2422 1.383 1_556 S
C2417 C2413 1.495 . S
C2417 H2423 0.959 . S
C2417 H2424 0.961 . S
C2417 H2425 0.960 . S
C2418 C2416 1.381 . S
C2418 C2419 1.394 . S
C2418 H2426 0.930 . S
C2419 C2418 1.394 . S
C2419 C2420 1.423 . S
C2419 H2427 0.929 . S
C2420 C2419 1.423 . S
C2420 C2421 1.339 1_556 S
C2421 H2405 0.930 . S
C2421 C2420 1.339 1_554 S
C2421 C2422 1.379 . S
C2422 H2406 0.931 . S
C2422 C2416 1.383 1_554 S
C2422 C2421 1.379 . S
H2423 C2417 0.959 . S
H2424 C2417 0.961 . S
H2425 C2417 0.960 . S
H2426 C2418 0.930 . S
H2427 C2419 0.929 . S
H2428 C2436 0.929 . S
H2429 C2438 0.930 . S
H2430 C2440 0.930 . S
H2431 C2443 0.929 . S
H2432 C2446 0.930 . S
H2433 C2448 0.960 . S
H2434 C2448 0.960 . S
H2435 C2448 0.960 . S
C2436 H2428 0.929 . S
C2436 C2437 1.372 1_554 S
C2436 C2438 1.384 . S
C2437 C2436 1.372 1_556 S
C2437 C2443 1.395 . S
C2438 H2429 0.930 . S
C2438 C2436 1.384 . S
C2438 C2439 1.378 . S
C2439 C2438 1.378 . S
C2439 C2440 1.393 1_554 S
C2439 C2444 1.489 . S
C2440 H2430 0.930 . S
C2440 C2439 1.393 1_556 S
C2440 C2443 1.386 . S
H2441 C2457 0.930 . S
H2442 C2458 0.931 . S
C2443 H2431 0.929 . S
C2443 C2437 1.395 . S
C2443 C2440 1.386 . S
C2444 C2439 1.489 . S
C2444 C2446 1.449 . S
C2444 C2447 1.352 1_554 S
H2445 C2451 0.930 . S
C2446 H2432 0.930 . S
C2446 C2444 1.449 . S
C2446 C2449 1.403 . S
C2447 C2444 1.352 1_556 S
C2447 C2448 1.524 . S
C2447 C2451 1.400 . S
C2448 H2433 0.960 . S
C2448 H2434 0.960 . S
C2448 H2435 0.960 . S
C2448 C2447 1.524 . S
C2449 C2446 1.403 . S
C2449 C2450 1.392 . S
C2449 C2453 1.495 . S
C2450 C2449 1.392 . S
C2450 C2451 1.385 1_554 S
C2450 C2452 1.478 . S
C2451 H2445 0.930 . S
C2451 C2447 1.400 . S
C2451 C2450 1.385 1_556 S
C2452 C2450 1.478 . S
C2452 C2454 1.381 . S
C2452 C2458 1.383 1_554 S
C2453 C2449 1.495 . S
C2453 H2459 0.959 . S
C2453 H2460 0.961 . S
C2453 H2461 0.960 . S
C2454 C2452 1.381 . S
C2454 C2455 1.394 . S
C2454 H2462 0.930 . S
C2455 C2454 1.394 . S
C2455 C2456 1.383 . S
C2455 H2463 0.914 1_455 S
C2456 C2455 1.383 . S
C2456 C2457 1.377 1_554 S
C2457 H2441 0.930 . S
C2457 C2456 1.377 1_556 S
C2457 C2458 1.379 . S
C2458 H2442 0.931 . S
C2458 C2452 1.383 1_556 S
C2458 C2457 1.379 . S
H2459 C2453 0.959 . S
H2460 C2453 0.961 . S
H2461 C2453 0.960 . S
H2462 C2454 0.930 . S
H2463 C2455 0.914 1_655 S
H2464 C2472 0.929 . S
H2465 C2474 0.930 . S
H2466 C2476 0.930 . S
H2467 C2479 0.929 . S
H2468 C2482 0.930 . S
H2469 C2484 0.960 . S
H2470 C2484 0.960 . S
H2471 C2484 0.960 . S
C2472 H2464 0.929 . S
C2472 C2473 1.377 . S
C2472 C2474 1.384 . S
C2473 C2472 1.377 . S
C2473 C2479 1.390 . S
C2474 H2465 0.930 . S
C2474 C2472 1.384 . S
C2474 C2475 1.372 . S
C2475 C2474 1.372 . S
C2475 C2476 1.400 . S
C2475 C2480 1.490 . S
C2476 H2466 0.930 . S
C2476 C2475 1.400 . S
C2476 C2479 1.386 . S
H2477 C2493 0.930 . S
H2478 C2494 0.931 . S
C2479 H2467 0.929 . S
C2479 C2473 1.390 . S
C2479 C2476 1.386 . S
C2480 C2475 1.490 . S
C2480 C2482 1.395 . S
C2480 C2483 1.403 . S
H2481 C2487 0.930 . S
C2482 H2468 0.930 . S
C2482 C2480 1.395 . S
C2482 C2485 1.403 . S
C2483 C2480 1.403 . S
C2483 C2484 1.524 . S
C2483 C2487 1.400 . S
C2484 H2469 0.960 . S
C2484 H2470 0.960 . S
C2484 H2471 0.960 . S
C2484 C2483 1.524 . S
C2485 C2482 1.403 . S
C2485 C2486 1.392 . S
C2485 C2489 1.495 . S
C2486 C2485 1.392 . S
C2486 C2487 1.385 . S
C2486 C2488 1.478 . S
C2487 H2481 0.930 . S
C2487 C2483 1.400 . S
C2487 C2486 1.385 . S
C2488 C2486 1.478 . S
C2488 C2490 1.381 . S
C2488 C2494 1.383 . S
C2489 C2485 1.495 . S
C2489 H2495 0.959 . S
C2489 H2496 0.961 . S
C2489 H2497 0.960 . S
C2490 C2488 1.381 . S
C2490 C2491 1.394 . S
C2490 H2498 0.930 . S
C2491 C2490 1.394 . S
C2491 C2492 1.383 . S
C2491 H2499 0.929 . S
C2492 C2491 1.383 . S
C2492 C2493 1.377 . S
C2493 H2477 0.930 . S
C2493 C2492 1.377 . S
C2493 C2494 1.379 . S
C2494 H2478 0.931 . S
C2494 C2488 1.383 . S
C2494 C2493 1.379 . S
H2495 C2489 0.959 . S
H2496 C2489 0.961 . S
H2497 C2489 0.960 . S
H2498 C2490 0.930 . S
H2499 C2491 0.929 . S
H2500 C2508 0.929 . S
H2501 C2510 0.930 . S
H2502 C2512 0.930 . S
H2503 C2515 0.929 . S
H2504 C2518 0.930 . S
H2505 C2520 0.960 . S
H2506 C2520 0.960 . S
H2507 C2520 0.960 . S
C2508 H2500 0.929 . S
C2508 C2509 1.377 . S
C2508 C2510 1.384 . S
C2509 C2508 1.377 . S
C2509 C2515 1.390 . S
C2510 H2501 0.930 . S
C2510 C2508 1.384 . S
C2510 C2511 1.372 . S
C2511 C2510 1.372 . S
C2511 C2512 1.400 . S
C2511 C2516 1.490 . S
C2512 H2502 0.930 . S
C2512 C2511 1.400 . S
C2512 C2515 1.386 . S
H2513 C2529 0.930 . S
H2514 C2530 0.931 . S
C2515 H2503 0.929 . S
C2515 C2509 1.390 . S
C2515 C2512 1.386 . S
C2516 C2511 1.490 . S
C2516 C2518 1.395 . S
C2516 C2519 1.403 . S
H2517 C2523 0.930 . S
C2518 H2504 0.930 . S
C2518 C2516 1.395 . S
C2518 C2521 1.403 . S
C2519 C2516 1.403 . S
C2519 C2520 1.524 . S
C2519 C2523 1.400 . S
C2520 H2505 0.960 . S
C2520 H2506 0.960 . S
C2520 H2507 0.960 . S
C2520 C2519 1.524 . S
C2521 C2518 1.403 . S
C2521 C2522 1.392 . S
C2521 C2525 1.495 . S
C2522 C2521 1.392 . S
C2522 C2523 1.385 . S
C2522 C2524 1.478 . S
C2523 H2517 0.930 . S
C2523 C2519 1.400 . S
C2523 C2522 1.385 . S
C2524 C2522 1.478 . S
C2524 C2526 1.381 . S
C2524 C2530 1.383 . S
C2525 C2521 1.495 . S
C2525 H2531 0.959 . S
C2525 H2532 0.961 . S
C2525 H2533 0.960 . S
C2526 C2524 1.381 . S
C2526 C2527 1.394 . S
C2526 H2534 0.930 . S
C2527 C2526 1.394 . S
C2527 C2528 1.383 . S
C2527 H2535 0.929 . S
C2528 C2527 1.383 . S
C2528 C2529 1.377 . S
C2529 H2513 0.930 . S
C2529 C2528 1.377 . S
C2529 C2530 1.379 . S
C2530 H2514 0.931 . S
C2530 C2524 1.383 . S
C2530 C2529 1.379 . S
H2531 C2525 0.959 . S
H2532 C2525 0.961 . S
H2533 C2525 0.960 . S
H2534 C2526 0.930 . S
H2535 C2527 0.929 . S
H2536 C2544 0.929 . S
H2537 C2546 0.930 . S
H2538 C2548 0.930 . S
H2539 C2551 0.929 . S
H2540 C2554 0.930 . S
H2541 C2556 0.960 . S
H2542 C2556 0.960 . S
H2543 C2556 0.960 . S
C2544 H2536 0.929 . S
C2544 C2545 1.377 . S
C2544 C2546 1.384 . S
C2545 C2544 1.377 . S
C2545 C2551 1.390 . S
C2546 H2537 0.930 . S
C2546 C2544 1.384 . S
C2546 C2547 1.372 . S
C2547 C2546 1.372 . S
C2547 C2548 1.400 . S
C2547 C2552 1.490 . S
C2548 H2538 0.930 . S
C2548 C2547 1.400 . S
C2548 C2551 1.386 . S
H2549 C2565 0.930 . S
H2550 C2566 0.931 . S
C2551 H2539 0.929 . S
C2551 C2545 1.390 . S
C2551 C2548 1.386 . S
C2552 C2547 1.490 . S
C2552 C2554 1.395 . S
C2552 C2555 1.403 . S
H2553 C2559 0.930 . S
C2554 H2540 0.930 . S
C2554 C2552 1.395 . S
C2554 C2557 1.403 . S
C2555 C2552 1.403 . S
C2555 C2556 1.524 . S
C2555 C2559 1.400 . S
C2556 H2541 0.960 . S
C2556 H2542 0.960 . S
C2556 H2543 0.960 . S
C2556 C2555 1.524 . S
C2557 C2554 1.403 . S
C2557 C2558 1.392 . S
C2557 C2561 1.495 . S
C2558 C2557 1.392 . S
C2558 C2559 1.385 . S
C2558 C2560 1.478 . S
C2559 H2553 0.930 . S
C2559 C2555 1.400 . S
C2559 C2558 1.385 . S
C2560 C2558 1.478 . S
C2560 C2562 1.381 . S
C2560 C2566 1.383 . S
C2561 C2557 1.495 . S
C2561 H2567 0.959 . S
C2561 H2568 0.961 . S
C2561 H2569 0.960 . S
C2562 C2560 1.381 . S
C2562 C2563 1.394 . S
C2562 H2570 0.930 . S
C2563 C2562 1.394 . S
C2563 C2564 1.383 . S
C2563 H2571 0.929 . S
C2564 C2563 1.383 . S
C2564 C2565 1.377 . S
C2565 H2549 0.930 . S
C2565 C2564 1.377 . S
C2565 C2566 1.379 . S
C2566 H2550 0.931 . S
C2566 C2560 1.383 . S
C2566 C2565 1.379 . S
H2567 C2561 0.959 . S
H2568 C2561 0.961 . S
H2569 C2561 0.960 . S
H2570 C2562 0.930 . S
H2571 C2563 0.929 . S
H2572 C2580 0.940 . S
H2573 C2582 0.930 . S
H2574 C2584 0.930 . S
H2575 C2587 0.929 . S
H2576 C2590 0.930 . S
H2577 C2592 0.960 . S
H2578 C2592 0.960 . S
H2579 C2592 0.960 . S
C2580 H2572 0.940 . S
C2580 C2581 1.377 . S
C2580 C2582 1.384 . S
C2581 C2580 1.377 . S
C2581 C2587 1.390 . S
C2582 H2573 0.930 . S
C2582 C2580 1.384 . S
C2582 C2583 1.372 . S
C2583 C2582 1.372 . S
C2583 C2584 1.400 . S
C2583 C2588 1.490 . S
C2584 H2574 0.930 . S
C2584 C2583 1.400 . S
C2584 C2587 1.386 . S
H2585 C2601 0.930 . S
H2586 C2602 0.931 . S
C2587 H2575 0.929 . S
C2587 C2581 1.390 . S
C2587 C2584 1.386 . S
C2588 C2583 1.490 . S
C2588 C2590 1.395 . S
C2588 C2591 1.403 . S
H2589 C2595 0.930 . S
C2590 H2576 0.930 . S
C2590 C2588 1.395 . S
C2590 C2593 1.403 . S
C2591 C2588 1.403 . S
C2591 C2592 1.524 . S
C2591 C2595 1.400 . S
C2592 H2577 0.960 . S
C2592 H2578 0.960 . S
C2592 H2579 0.960 . S
C2592 C2591 1.524 . S
C2593 C2590 1.403 . S
C2593 C2594 1.392 . S
C2593 C2597 1.495 . S
C2594 C2593 1.392 . S
C2594 C2595 1.385 . S
C2594 C2596 1.478 . S
C2595 H2589 0.930 . S
C2595 C2591 1.400 . S
C2595 C2594 1.385 . S
C2596 C2594 1.478 . S
C2596 C2598 1.381 . S
C2596 C2602 1.383 . S
C2597 C2593 1.495 . S
C2597 H2603 0.959 . S
C2597 H2604 0.961 . S
C2597 H2605 0.960 . S
C2598 C2596 1.381 . S
C2598 C2599 1.394 . S
C2598 H2606 0.930 . S
C2599 C2598 1.394 . S
C2599 C2600 1.383 . S
C2599 H2607 0.929 . S
C2600 C2599 1.383 . S
C2600 C2601 1.377 . S
C2601 H2585 0.930 . S
C2601 C2600 1.377 . S
C2601 C2602 1.379 . S
C2602 H2586 0.931 . S
C2602 C2596 1.383 . S
C2602 C2601 1.379 . S
H2603 C2597 0.959 . S
H2604 C2597 0.961 . S
H2605 C2597 0.960 . S
H2606 C2598 0.930 . S
H2607 C2599 0.929 . S
H2608 C2616 0.929 . S
H2609 C2618 0.930 . S
H2610 C2620 0.930 . S
H2611 C2623 0.929 . S
H2612 C2626 0.930 . S
H2613 C2628 0.960 . S
H2614 C2628 0.960 . S
H2615 C2628 0.960 . S
C2616 H2608 0.929 . S
C2616 C2617 1.377 . S
C2616 C2618 1.384 . S
C2617 C2616 1.377 . S
C2617 C2623 1.390 . S
C2618 H2609 0.930 . S
C2618 C2616 1.384 . S
C2618 C2619 1.372 . S
C2619 C2618 1.372 . S
C2619 C2620 1.400 . S
C2619 C2624 1.490 . S
C2620 H2610 0.930 . S
C2620 C2619 1.400 . S
C2620 C2623 1.386 . S
H2621 C2637 0.930 . S
H2622 C2638 0.931 . S
C2623 H2611 0.929 . S
C2623 C2617 1.390 . S
C2623 C2620 1.386 . S
C2624 C2619 1.490 . S
C2624 C2626 1.395 . S
C2624 C2627 1.403 . S
H2625 C2631 0.930 . S
C2626 H2612 0.930 . S
C2626 C2624 1.395 . S
C2626 C2629 1.403 . S
C2627 C2624 1.403 . S
C2627 C2628 1.524 . S
C2627 C2631 1.400 . S
C2628 H2613 0.960 . S
C2628 H2614 0.960 . S
C2628 H2615 0.960 . S
C2628 C2627 1.524 . S
C2629 C2626 1.403 . S
C2629 C2630 1.392 . S
C2629 C2633 1.495 . S
C2630 C2629 1.392 . S
C2630 C2631 1.385 . S
C2630 C2632 1.478 . S
C2631 H2625 0.930 . S
C2631 C2627 1.400 . S
C2631 C2630 1.385 . S
C2632 C2630 1.478 . S
C2632 C2634 1.381 . S
C2632 C2638 1.383 . S
C2633 C2629 1.495 . S
C2633 H2639 0.959 . S
C2633 H2640 0.961 . S
C2633 H2641 0.960 . S
C2634 C2632 1.381 . S
C2634 C2635 1.394 . S
C2634 H2642 0.930 . S
C2635 C2634 1.394 . S
C2635 C2636 1.383 . S
C2635 H2643 0.929 . S
C2636 C2635 1.383 . S
C2636 C2637 1.377 . S
C2637 H2621 0.930 . S
C2637 C2636 1.377 . S
C2637 C2638 1.379 . S
C2638 H2622 0.931 . S
C2638 C2632 1.383 . S
C2638 C2637 1.379 . S
H2639 C2633 0.959 . S
H2640 C2633 0.961 . S
H2641 C2633 0.960 . S
H2642 C2634 0.930 . S
H2643 C2635 0.929 . S
H2644 C2652 0.929 . S
H2645 C2654 0.930 . S
H2646 C2656 0.930 . S
H2647 C2659 0.929 . S
H2648 C2662 0.930 . S
H2649 C2664 0.960 . S
H2650 C2664 0.960 . S
H2651 C2664 0.960 . S
C2652 H2644 0.929 . S
C2652 C2653 1.377 . S
C2652 C2654 1.384 . S
C2653 C2652 1.377 . S
C2653 C2659 1.390 . S
C2654 H2645 0.930 . S
C2654 C2652 1.384 . S
C2654 C2655 1.372 . S
C2655 C2654 1.372 . S
C2655 C2656 1.400 . S
C2655 C2660 1.490 . S
C2656 H2646 0.930 . S
C2656 C2655 1.400 . S
C2656 C2659 1.386 . S
H2657 C2673 0.930 . S
H2658 C2674 0.931 . S
C2659 H2647 0.929 . S
C2659 C2653 1.390 . S
C2659 C2656 1.386 . S
C2660 C2655 1.490 . S
C2660 C2662 1.395 . S
C2660 C2663 1.403 . S
H2661 C2667 0.930 . S
C2662 H2648 0.930 . S
C2662 C2660 1.395 . S
C2662 C2665 1.403 . S
C2663 C2660 1.403 . S
C2663 C2664 1.524 . S
C2663 C2667 1.400 . S
C2664 H2649 0.960 . S
C2664 H2650 0.960 . S
C2664 H2651 0.960 . S
C2664 C2663 1.524 . S
C2665 C2662 1.403 . S
C2665 C2666 1.392 . S
C2665 C2669 1.495 . S
C2666 C2665 1.392 . S
C2666 C2667 1.385 . S
C2666 C2668 1.478 . S
C2667 H2661 0.930 . S
C2667 C2663 1.400 . S
C2667 C2666 1.385 . S
C2668 C2666 1.478 . S
C2668 C2670 1.381 . S
C2668 C2674 1.383 . S
C2669 C2665 1.495 . S
C2669 H2675 0.959 . S
C2669 H2676 0.961 . S
C2669 H2677 0.960 . S
C2670 C2668 1.381 . S
C2670 C2671 1.394 . S
C2670 H2678 0.930 . S
C2671 C2670 1.394 . S
C2671 C2672 1.383 . S
C2671 H2679 0.929 . S
C2672 C2671 1.383 . S
C2672 C2673 1.377 . S
C2673 H2657 0.930 . S
C2673 C2672 1.377 . S
C2673 C2674 1.379 . S
C2674 H2658 0.931 . S
C2674 C2668 1.383 . S
C2674 C2673 1.379 . S
H2675 C2669 0.959 . S
H2676 C2669 0.961 . S
H2677 C2669 0.960 . S
H2678 C2670 0.930 . S
H2679 C2671 0.929 . S
H2680 C2688 0.929 . S
H2681 C2690 0.930 . S
H2682 C2692 0.930 . S
H2683 C2695 0.929 . S
H2684 C2698 0.930 . S
H2685 C2700 0.960 . S
H2686 C2700 0.960 . S
H2687 C2700 0.960 . S
C2688 H2680 0.929 . S
C2688 C2689 1.377 . S
C2688 C2690 1.384 . S
C2689 C2688 1.377 . S
C2689 C2695 1.390 . S
C2690 H2681 0.930 . S
C2690 C2688 1.384 . S
C2690 C2691 1.372 . S
C2691 C2690 1.372 . S
C2691 C2692 1.400 . S
C2691 C2696 1.490 . S
C2692 H2682 0.930 . S
C2692 C2691 1.400 . S
C2692 C2695 1.386 . S
H2693 C2709 0.930 . S
H2694 C2710 0.931 . S
C2695 H2683 0.929 . S
C2695 C2689 1.390 . S
C2695 C2692 1.386 . S
C2696 C2691 1.490 . S
C2696 C2698 1.395 . S
C2696 C2699 1.403 . S
H2697 C2703 0.930 . S
C2698 H2684 0.930 . S
C2698 C2696 1.395 . S
C2698 C2701 1.403 . S
C2699 C2696 1.403 . S
C2699 C2700 1.524 . S
C2699 C2703 1.400 . S
C2700 H2685 0.960 . S
C2700 H2686 0.960 . S
C2700 H2687 0.960 . S
C2700 C2699 1.524 . S
C2701 C2698 1.403 . S
C2701 C2702 1.392 . S
C2701 C2705 1.495 . S
C2702 C2701 1.392 . S
C2702 C2703 1.385 . S
C2702 C2704 1.478 . S
C2703 H2697 0.930 . S
C2703 C2699 1.400 . S
C2703 C2702 1.385 . S
C2704 C2702 1.478 . S
C2704 C2706 1.381 . S
C2704 C2710 1.383 . S
C2705 C2701 1.495 . S
C2705 H2711 0.959 . S
C2705 H2712 0.961 . S
C2705 H2713 0.960 . S
C2706 C2704 1.381 . S
C2706 C2707 1.394 . S
C2706 H2714 0.930 . S
C2707 C2706 1.394 . S
C2707 C2708 1.383 . S
C2707 H2715 0.929 . S
C2708 C2707 1.383 . S
C2708 C2709 1.377 . S
C2709 H2693 0.930 . S
C2709 C2708 1.377 . S
C2709 C2710 1.379 . S
C2710 H2694 0.931 . S
C2710 C2704 1.383 . S
C2710 C2709 1.379 . S
H2711 C2705 0.959 . S
H2712 C2705 0.961 . S
H2713 C2705 0.960 . S
H2714 C2706 0.930 . S
H2715 C2707 0.929 . S
H2716 C2724 0.929 . S
H2717 C2726 0.930 . S
H2718 C2728 0.930 . S
H2719 C2731 0.929 . S
H2720 C2734 0.930 . S
H2721 C2736 0.960 . S
H2722 C2736 0.960 . S
H2723 C2736 0.960 . S
C2724 H2716 0.929 . S
C2724 C2725 1.377 . S
C2724 C2726 1.384 . S
C2725 C2724 1.377 . S
C2725 C2731 1.390 . S
C2726 H2717 0.930 . S
C2726 C2724 1.384 . S
C2726 C2727 1.372 . S
C2727 C2726 1.372 . S
C2727 C2728 1.400 . S
C2727 C2732 1.490 . S
C2728 H2718 0.930 . S
C2728 C2727 1.400 . S
C2728 C2731 1.386 . S
H2729 C2745 0.930 . S
H2730 C2746 0.931 . S
C2731 H2719 0.929 . S
C2731 C2725 1.390 . S
C2731 C2728 1.386 . S
C2732 C2727 1.490 . S
C2732 C2734 1.395 . S
C2732 C2735 1.403 . S
H2733 C2739 0.930 . S
C2734 H2720 0.930 . S
C2734 C2732 1.395 . S
C2734 C2737 1.403 . S
C2735 C2732 1.403 . S
C2735 C2736 1.524 . S
C2735 C2739 1.400 . S
C2736 H2721 0.960 . S
C2736 H2722 0.960 . S
C2736 H2723 0.960 . S
C2736 C2735 1.524 . S
C2737 C2734 1.403 . S
C2737 C2738 1.392 . S
C2737 C2741 1.495 . S
C2738 C2737 1.392 . S
C2738 C2739 1.385 . S
C2738 C2740 1.478 . S
C2739 H2733 0.930 . S
C2739 C2735 1.400 . S
C2739 C2738 1.385 . S
C2740 C2738 1.478 . S
C2740 C2742 1.381 . S
C2740 C2746 1.383 . S
C2741 C2737 1.495 . S
C2741 H2747 0.959 . S
C2741 H2748 0.961 . S
C2741 H2749 0.960 . S
C2742 C2740 1.381 . S
C2742 C2743 1.394 . S
C2742 H2750 0.930 . S
C2743 C2742 1.394 . S
C2743 C2744 1.383 . S
C2743 H2751 0.929 . S
C2744 C2743 1.383 . S
C2744 C2745 1.377 . S
C2745 H2729 0.930 . S
C2745 C2744 1.377 . S
C2745 C2746 1.379 . S
C2746 H2730 0.931 . S
C2746 C2740 1.383 . S
C2746 C2745 1.379 . S
H2747 C2741 0.959 . S
H2748 C2741 0.961 . S
H2749 C2741 0.960 . S
H2750 C2742 0.930 . S
H2751 C2743 0.929 . S
C457 C1 1.565 . S
C476 C55 1.568 . S
C493 C29 1.561 . S
C512 C15 1.556 . S
C529 C56 1.562 . S
C548 C98 1.569 . S
C565 C85 1.563 . S
C584 C83 1.569 . S
C601 C125 1.562 . S
C620 C155 1.552 . S
C637 C140 1.566 . S
C656 C126 1.562 . S
C673 C169 1.566 . S
C692 C222 1.551 . S
C709 C183 1.565 . S
C728 C209 1.558 . S
C745 C266 1.566 . S
C764 C225 1.564 . S
C781 C238 1.565 . S
C800 C252 1.553 . S
C817 C280 1.563 . S
C836 C323 1.565 . S
C853 C309 1.565 . S
C872 C307 1.555 . S
C889 C337 1.561 . S
C908 C378 1.561 . S
C925 C364 1.563 . S
C944 C351 1.558 . S
C961 C404 1.561 . S
C980 C435 1.569 . S
C997 C406 1.562 . S
C1016 C421 1.570 . S
C1033 C180 1.594 . S
C1052 C12 1.584 . S
C1069 C26 1.592 . S
C1088 C294 1.576 . S
C1105 C40 1.597 . S
C1124 C96 1.605 . S
C1141 C446 1.593 . S
C1160 C42 1.579 . S
C1177 C69 1.597 . S
C1196 C112 1.601 . S
C1213 C251 1.594 . S
C1232 C70 1.603 . S
C1249 C391 1.596 . S
C1268 C111 1.605 . S
C1285 C419 1.595 . S
C1304 C139 1.603 . S
C1321 C196 1.594 . S
C1340 C153 1.580 . S
C1357 C334 1.593 . S
C1376 C166 1.581 . S
C1393 C194 1.592 . S
C1412 C362 1.602 . S
C1429 C279 1.593 . S
C1448 C211 1.581 . S
C1465 C393 1.592 . S
C1484 C236 1.594 . S
C1501 C320 1.593 . S
C1520 C265 1.602 . S
C1537 C348 1.597 . S
C1556 C293 1.601 . S
C1573 C377 1.592 . S
C1592 C432 1.589 1_556 S
C1609 C141 1.731 . S
C1628 C0 1.728 . S
C1645 C14 1.729 . S
C1664 C154 1.721 . S
C1681 C124 1.730 . S
C1700 C28 1.724 . S
C1717 C127 1.730 . S
C1736 C54 1.721 . S
C1753 C57 1.731 . S
C1772 C208 1.732 . S
C1789 C82 1.732 . S
C1808 C223 1.723 . S
C1825 C168 1.729 . S
C1844 C84 1.736 . S
C1861 C99 1.734 . S
C1880 C182 1.719 . S
C1897 C365 1.732 . S
C1916 C224 1.733 . S
C1933 C379 1.732 . S
C1952 C239 1.732 . S
C1969 C253 1.732 . S
C1988 C336 1.732 . S
C2005 C267 1.732 . S
C2024 C350 1.738 . S
C2041 C281 1.733 . S
C2060 C420 1.716 . S
C2077 C306 1.729 . S
C2096 C434 1.726 . S
C2113 C405 1.730 . S
C2132 C308 1.737 . S
C2149 C407 1.732 . S
C2168 C322 1.721 . S
C2185 C13 1.722 . S
C2204 C363 1.713 . S
C2221 C349 1.725 . S
C2240 C27 1.732 1_655 S
C2257 C41 1.726 . S
C2276 C390 1.724 1_556 S
C2293 C43 1.724 1_656 S
C2312 C376 1.733 1_556 S
C2329 C68 1.724 . S
C2348 C418 1.707 . S
C2365 C71 1.727 1_455 S
C2384 C392 1.733 . S
C2401 C447 1.727 . S
C2420 C97 1.732 . S
C2437 C433 1.722 . S
C2456 C110 1.716 1_454 S
C2473 C250 1.725 . S
C2492 C113 1.711 . S
C2509 C237 1.722 . S
C2528 C138 1.710 1_655 S
C2545 C152 1.725 . S
C2564 C278 1.728 . S
C2581 C167 1.724 1_655 S
C2600 C264 1.714 . S
C2617 C295 1.727 . S
C2636 C181 1.734 . S
C2653 C195 1.723 1_455 S
C2672 C292 1.723 . S
C2689 C197 1.724 . S
C2708 C335 1.711 . S
C2725 C210 1.723 1_455 S
C2744 C321 1.734 . S
