# Generated by pormake.
# Topology wje, (4)-cn, num edge types: 1
# Building blocks:
#     Node 0, Type 0, BuildingBlock: QUQFOY_clean_sbu_1, # of connection points: 4
#     Node 1, Type 0, BuildingBlock: QUQFOY_clean_sbu_1, # of connection points: 4
#     Node 2, Type 0, BuildingBlock: QUQFOY_clean_sbu_1, # of connection points: 4
#     Node 3, Type 0, BuildingBlock: QUQFOY_clean_sbu_1, # of connection points: 4
#     Node 4, Type 0, BuildingBlock: QUQFOY_clean_sbu_1, # of connection points: 4
#     Node 5, Type 0, BuildingBlock: QUQFOY_clean_sbu_1, # of connection points: 4
#     Node 6, Type 0, BuildingBlock: QUQFOY_clean_sbu_1, # of connection points: 4
#     Node 7, Type 0, BuildingBlock: QUQFOY_clean_sbu_1, # of connection points: 4
#     Node 8, Type 0, BuildingBlock: QUQFOY_clean_sbu_1, # of connection points: 4
#     Node 9, Type 0, BuildingBlock: QUQFOY_clean_sbu_1, # of connection points: 4
#     Node 10, Type 0, BuildingBlock: QUQFOY_clean_sbu_1, # of connection points: 4
#     Node 11, Type 0, BuildingBlock: QUQFOY_clean_sbu_1, # of connection points: 4
#     Edge 12, Type (0, 0), BuildingBlock: CIFDUS_clean_linker_0, # of connection points: 2
#     Edge 13, Type (0, 0), BuildingBlock: CIFDUS_clean_linker_0, # of connection points: 2
#     Edge 14, Type (0, 0), BuildingBlock: CIFDUS_clean_linker_0, # of connection points: 2
#     Edge 15, Type (0, 0), BuildingBlock: CIFDUS_clean_linker_0, # of connection points: 2
#     Edge 16, Type (0, 0), BuildingBlock: CIFDUS_clean_linker_0, # of connection points: 2
#     Edge 17, Type (0, 0), BuildingBlock: CIFDUS_clean_linker_0, # of connection points: 2
#     Edge 18, Type (0, 0), BuildingBlock: CIFDUS_clean_linker_0, # of connection points: 2
#     Edge 19, Type (0, 0), BuildingBlock: CIFDUS_clean_linker_0, # of connection points: 2
#     Edge 20, Type (0, 0), BuildingBlock: CIFDUS_clean_linker_0, # of connection points: 2
#     Edge 21, Type (0, 0), BuildingBlock: CIFDUS_clean_linker_0, # of connection points: 2
#     Edge 22, Type (0, 0), BuildingBlock: CIFDUS_clean_linker_0, # of connection points: 2
#     Edge 23, Type (0, 0), BuildingBlock: CIFDUS_clean_linker_0, # of connection points: 2
#     Edge 24, Type (0, 0), BuildingBlock: CIFDUS_clean_linker_0, # of connection points: 2
#     Edge 25, Type (0, 0), BuildingBlock: CIFDUS_clean_linker_0, # of connection points: 2
#     Edge 26, Type (0, 0), BuildingBlock: CIFDUS_clean_linker_0, # of connection points: 2
#     Edge 27, Type (0, 0), BuildingBlock: CIFDUS_clean_linker_0, # of connection points: 2
#     Edge 28, Type (0, 0), BuildingBlock: CIFDUS_clean_linker_0, # of connection points: 2
#     Edge 29, Type (0, 0), BuildingBlock: CIFDUS_clean_linker_0, # of connection points: 2
#     Edge 30, Type (0, 0), BuildingBlock: CIFDUS_clean_linker_0, # of connection points: 2
#     Edge 31, Type (0, 0), BuildingBlock: CIFDUS_clean_linker_0, # of connection points: 2
#     Edge 32, Type (0, 0), BuildingBlock: CIFDUS_clean_linker_0, # of connection points: 2
#     Edge 33, Type (0, 0), BuildingBlock: CIFDUS_clean_linker_0, # of connection points: 2
#     Edge 34, Type (0, 0), BuildingBlock: CIFDUS_clean_linker_0, # of connection points: 2
#     Edge 35, Type (0, 0), BuildingBlock: CIFDUS_clean_linker_0, # of connection points: 2
# Relax obj value: 0.095
# Max RMSD: 0.083
# Mean RMSD: 0.083
data_MOF--net-wje--node1-QUQFOY_clean_sbu_1--edge1-CIFDUS_clean_linker_0
_symmetry_space_group_name_H-M    P1
_symmetry_Int_Tables_number       1
_symmetry_cell_setting            triclinic
loop_
_symmetry_equiv_pos_as_xyz
'x, y, z'
_cell_length_a     37.24252
_cell_length_b     37.110538
_cell_length_c     33.555849
_cell_angle_alpha  90.075442
_cell_angle_beta   89.867228
_cell_angle_gamma 119.98603
loop_
_atom_site_label
_atom_site_type_symbol
_atom_site_fract_x
_atom_site_fract_y
_atom_site_fract_z
_atom_type_partial_charge
O0 O 0.25673 0.98811 0.32239 0.0
Cd1 Cd 0.30962 0.0459 0.3277 0.0
Cd2 Cd 0.34398 0.99883 0.32442 0.0
O3 O 0.28788 0.95409 0.30267 0.0
O4 O 0.29616 0.08758 0.3046 0.0
O5 O 0.34566 0.07706 0.28059 0.0
C6 C 0.32461 0.09607 0.27823 0.0
C7 C 0.40582 0.00588 0.29903 0.0
C8 C 0.25479 0.95456 0.31077 0.0
C9 C 0.3386 0.03326 0.4045 0.0
O10 O 0.34304 0.00629 0.38515 0.0
O11 O 0.33045 0.05844 0.38626 0.0
O12 O 0.37952 0.97304 0.31799 0.0
O13 O 0.39649 0.03461 0.29316 0.0
O14 O 0.25904 0.25893 0.66672 0.0
Cd15 Cd 0.26221 0.31611 0.67074 0.0
Cd16 Cd 0.33998 0.34158 0.65938 0.0
O17 O 0.31883 0.2835 0.63564 0.0
O18 O 0.2077 0.31056 0.65506 0.0
O19 O 0.26499 0.34542 0.61925 0.0
C20 C 0.22569 0.33161 0.6233 0.0
C21 C 0.39266 0.40264 0.63072 0.0
C22 C 0.28573 0.25274 0.64906 0.0
C23 C 0.31326 0.34491 0.7425 0.0
O24 O 0.33929 0.34154 0.72065 0.0
O25 O 0.28116 0.34301 0.72695 0.0
O26 O 0.39997 0.37478 0.64512 0.0
O27 O 0.35474 0.39484 0.63062 0.0
O28 O 0.0163 0.26665 0.99401 0.0
Cd29 Cd 0.95964 0.26396 0.99857 0.0
Cd30 Cd 0.00992 0.34624 0.99423 0.0
O31 O 0.05483 0.33281 0.9778 0.0
O32 O 0.91944 0.20545 0.98221 0.0
O33 O 0.92634 0.26007 0.94921 0.0
C34 C 0.90967 0.22014 0.95192 0.0
C35 C 1.00462 0.40066 0.96507 0.0
C36 C 0.05127 0.29755 0.98481 0.0
C37 C 0.97294 0.30936 0.07435 0.0
O38 O 1.00008 0.34009 0.05453 0.0
O39 O 0.94794 0.27542 0.0568 0.0
O40 O 0.03656 0.40744 0.98559 0.0
O41 O 0.97601 0.36248 0.95953 0.0
O42 O 0.75792 0.00964 0.3328 0.0
Cd43 Cd 0.70125 0.95509 0.33604 0.0
Cd44 Cd 0.67524 0.00742 0.32612 0.0
O45 O 0.73299 0.04498 0.30256 0.0
O46 O 0.70761 0.9066 0.31953 0.0
O47 O 0.67226 0.92884 0.28437 0.0
C48 C 0.68644 0.90352 0.28797 0.0
C49 C 0.61458 1.00021 0.29826 0.0
C50 C 0.76379 0.04277 0.31577 0.0
C51 C 0.6717 0.97562 0.4085 0.0
O52 O 0.67502 0.00545 0.38734 0.0
O53 O 0.67402 0.9458 0.39222 0.0
O54 O 0.64234 0.03494 0.31349 0.0
O55 O 0.62229 0.96993 0.29684 0.0
O56 O 0.74682 0.75281 0.66193 0.0
Cd57 Cd 0.74302 0.69521 0.66308 0.0
Cd58 Cd 0.66315 0.66906 0.65853 0.0
O59 O 0.6821 0.72928 0.64289 0.0
O60 O 0.79438 0.69843 0.63956 0.0
O61 O 0.73267 0.66492 0.61088 0.0
C62 C 0.77189 0.67742 0.60956 0.0
C63 C 0.60772 0.61071 0.62876 0.0
C64 C 0.71761 0.75941 0.65216 0.0
C65 C 0.69632 0.66344 0.73815 0.0
O66 O 0.6674 0.66397 0.71876 0.0
O67 O 0.72893 0.66902 0.72014 0.0
O68 O 0.60211 0.63732 0.64844 0.0
O69 O 0.64532 0.61845 0.62394 0.0
O70 O 1.00396 0.75073 0.99921 0.0
Cd71 Cd 0.05689 0.74602 1.00282 0.0
Cd72 Cd 1.00299 0.66854 0.99097 0.0
O73 O 0.96781 0.6915 0.96721 0.0
O74 O 0.10645 0.80059 0.98771 0.0
O75 O 0.08304 0.74368 0.95091 0.0
C76 C 0.10897 0.78295 0.95542 0.0
C77 C 0.01067 0.61554 0.96206 0.0
C78 C 0.97111 0.72495 0.98101 0.0
C79 C 0.03324 0.69371 0.07407 0.0
O80 O 1.00336 0.66853 0.05225 0.0
O81 O 0.06399 0.72557 0.05855 0.0
O82 O 0.97553 0.60847 0.97622 0.0
O83 O 0.04107 0.65346 0.96217 0.0
O84 O 0.01358 0.7488 0.38007 0.0
Cd85 Cd 0.96157 0.69017 0.38007 0.0
Cd86 Cd 0.01801 0.66696 0.38544 0.0
O87 O 0.0571 0.72823 0.39957 0.0
O88 O 0.91296 0.69264 0.40316 0.0
O89 O 0.94291 0.66132 0.43309 0.0
C90 C 0.91558 0.67314 0.43392 0.0
C91 C 0.02281 0.61214 0.41489 0.0
C92 C 0.04992 0.75715 0.3898 0.0
C93 C 0.97754 0.65828 0.30576 0.0
O94 O 0.00753 0.6602 0.32537 0.0
O95 O 0.94983 0.66303 0.32345 0.0
O96 O 0.05269 0.64044 0.39415 0.0
O97 O 0.99064 0.61599 0.42087 0.0
O98 O 0.25117 0.01058 0.71275 0.0
Cd99 Cd 0.26076 0.96023 0.71083 0.0
Cd100 Cd 0.3384 0.01985 0.71792 0.0
O101 O 0.31332 0.05531 0.73572 0.0
O102 O 0.20846 0.90891 0.72741 0.0
O103 O 0.2661 0.93623 0.76304 0.0
C104 C 0.22746 0.9082 0.75929 0.0
C105 C 0.39714 0.02343 0.74702 0.0
C106 C 0.27715 0.04679 0.72516 0.0
C107 C 0.31033 0.98201 0.63716 0.0
O108 O 0.33621 0.01313 0.6573 0.0
O109 O 0.2792 0.95192 0.6543 0.0
O110 O 0.39897 0.05485 0.72886 0.0
O111 O 0.36123 0.99039 0.75081 0.0
O112 O 0.2629 0.28273 0.05036 0.0
Cd113 Cd 0.31514 0.27678 0.04833 0.0
Cd114 Cd 0.34949 0.3603 0.05401 0.0
O115 O 0.29194 0.34655 0.07375 0.0
O116 O 0.29398 0.21768 0.06481 0.0
O117 O 0.34225 0.27111 0.09858 0.0
C118 C 0.31784 0.23138 0.09556 0.0
C119 C 0.40757 0.4204 0.07894 0.0
C120 C 0.25977 0.31335 0.06289 0.0
C121 C 0.34777 0.32134 0.97354 0.0
O122 O 0.3507 0.35187 0.99341 0.0
O123 O 0.33987 0.28771 0.9911 0.0
O124 O 0.37955 0.42222 0.05822 0.0
O125 O 0.40245 0.38405 0.08657 0.0
O126 O 1.0019 0.25196 0.3817 0.0
Cd127 Cd 0.05155 0.31203 0.37936 0.0
Cd128 Cd 0.99185 0.3296 0.38765 0.0
O129 O 0.95716 0.26896 0.40577 0.0
O130 O 0.10303 0.31124 0.39523 0.0
O131 O 0.0756 0.34124 0.4316 0.0
C132 C 0.10361 0.33062 0.42744 0.0
C133 C 0.98921 0.38537 0.4174 0.0
C134 C 0.96593 0.24145 0.39479 0.0
C135 C 0.02798 0.33868 0.30615 0.0
O136 O 0.99722 0.33344 0.32689 0.0
O137 O 0.05856 0.33829 0.32276 0.0
O138 O 0.95742 0.35568 0.39989 0.0
O139 O 0.02217 0.38228 0.42015 0.0
O140 O 0.72982 0.98536 0.72083 0.0
Cd141 Cd 0.73212 0.04212 0.71707 0.0
Cd142 Cd 0.65017 0.99172 0.72031 0.0
O143 O 0.66508 0.9489 0.741 0.0
O144 O 0.78705 0.08424 0.73981 0.0
O145 O 0.72701 0.0719 0.76536 0.0
C146 C 0.76705 0.09153 0.76714 0.0
C147 C 0.58989 0.98973 0.74446 0.0
C148 C 0.69931 0.95104 0.7323 0.0
C149 C 0.69024 0.0292 0.64059 0.0
O150 O 0.65944 1.00126 0.65978 0.0
O151 O 0.72309 0.05508 0.65893 0.0
O152 O 0.58843 0.95958 0.72425 0.0
O153 O 0.62596 0.02117 0.7521 0.0
O154 O 0.76414 0.75926 0.0434 0.0
Cd155 Cd 0.70387 0.74798 0.04254 0.0
Cd156 Cd 0.68829 0.67146 0.05211 0.0
O157 O 0.74883 0.69887 0.06992 0.0
O158 O 0.70379 0.80006 0.05843 0.0
O159 O 0.67606 0.74315 0.09557 0.0
C160 C 0.68568 0.78157 0.09117 0.0
C161 C 0.63365 0.61324 0.08267 0.0
C162 C 0.77555 0.73484 0.05757 0.0
C163 C 0.67611 0.69572 0.9706 0.0
O164 O 0.68325 0.67148 0.99139 0.0
O165 O 0.67586 0.72665 0.98696 0.0
O166 O 0.66344 0.61121 0.06523 0.0
O167 O 0.63619 0.64919 0.08507 0.0
H168 H 0.26599 0.09717 0.23212 0.0
H169 H 0.39807 0.15929 0.2497 0.0
H170 H 0.40827 0.20804 0.1955 0.0
H171 H 0.37888 0.23321 0.14295 0.0
H172 H 0.24721 0.16466 0.12116 0.0
H173 H 0.23748 0.11824 0.17672 0.0
C174 C 0.29698 0.12148 0.22406 0.0
C175 C 0.33121 0.12514 0.24512 0.0
C176 C 0.3026 0.14816 0.19194 0.0
C177 C 0.37128 0.1561 0.23394 0.0
C178 C 0.37706 0.18393 0.203 0.0
C179 C 0.34817 0.20799 0.15039 0.0
C180 C 0.31377 0.2025 0.12808 0.0
C181 C 0.3429 0.18033 0.18174 0.0
C182 C 0.27419 0.16941 0.13772 0.0
C183 C 0.26855 0.14293 0.16962 0.0
H184 H 0.24264 0.34266 0.54378 0.0
H185 H 0.15301 0.33201 0.63143 0.0
H186 H 0.10929 0.33515 0.57882 0.0
H187 H 0.09406 0.33595 0.50738 0.0
H188 H 0.18056 0.33971 0.41958 0.0
H189 H 0.22792 0.34455 0.47242 0.0
C190 C 0.21382 0.34164 0.55137 0.0
C191 C 0.20123 0.33732 0.59153 0.0
C192 C 0.18809 0.34199 0.52078 0.0
C193 C 0.16343 0.33532 0.60079 0.0
C194 C 0.13838 0.33707 0.57068 0.0
C195 C 0.12357 0.33848 0.49985 0.0
C196 C 0.13387 0.33774 0.45956 0.0
C197 C 0.15003 0.33972 0.5305 0.0
C198 C 0.1719 0.34026 0.45032 0.0
C199 C 0.19898 0.34295 0.48055 0.0
H200 H 0.82355 0.08808 0.81433 0.0
H201 H 0.7601 0.15688 0.79585 0.0
H202 H 0.79929 0.20404 0.85085 0.0
H203 H 0.85283 0.22605 0.90413 0.0
H204 H 0.90928 0.151 0.92647 0.0
H205 H 0.87169 0.10594 0.8705 0.0
C206 C 0.8184 0.11346 0.82241 0.0
C207 C 0.78954 0.1195 0.80087 0.0
C208 C 0.83977 0.13924 0.85493 0.0
C209 C 0.78238 0.15186 0.812 0.0
C210 C 0.8048 0.17878 0.8434 0.0
C211 C 0.85663 0.19968 0.89676 0.0
C212 C 0.88396 0.19199 0.91935 0.0
C213 C 0.83373 0.17287 0.86509 0.0
C214 C 0.88828 0.15747 0.90974 0.0
C215 C 0.86694 0.13176 0.87759 0.0
H216 H 0.68202 0.76733 0.17111 0.0
H217 H 0.67564 0.84919 0.08396 0.0
H218 H 0.67128 0.89196 0.13718 0.0
H219 H 0.67418 0.909 0.20864 0.0
H220 H 0.68723 0.83078 0.29548 0.0
H221 H 0.68386 0.78377 0.2426 0.0
C222 C 0.67904 0.79417 0.16381 0.0
C223 C 0.67891 0.80489 0.12358 0.0
C224 C 0.67804 0.81953 0.19465 0.0
C225 C 0.67579 0.84023 0.11464 0.0
C226 C 0.67336 0.86476 0.1451 0.0
C227 C 0.67571 0.88135 0.216 0.0
C228 C 0.68076 0.87333 0.25601 0.0
C229 C 0.67516 0.85514 0.18523 0.0
C230 C 0.68337 0.83771 0.26496 0.0
C231 C 0.68148 0.81081 0.2347 0.0
H232 H 0.84 0.66815 0.43918 0.0
H233 H 0.93549 0.66707 0.51071 0.0
H234 H 0.8993 0.66732 0.57152 0.0
H235 H 0.84256 0.67243 0.60457 0.0
H236 H 0.74438 0.66804 0.53311 0.0
H237 H 0.77921 0.66505 0.47239 0.0
C238 C 0.85262 0.66749 0.4681 0.0
C239 C 0.89059 0.66791 0.47034 0.0
C240 C 0.8312 0.66687 0.50306 0.0
C241 C 0.90629 0.66663 0.50806 0.0
C242 C 0.8857 0.66701 0.54291 0.0
C243 C 0.82863 0.6704 0.5757 0.0
C244 C 0.79107 0.67083 0.57341 0.0
C245 C 0.84846 0.66783 0.54081 0.0
C246 C 0.77318 0.66769 0.53578 0.0
C247 C 0.79321 0.66617 0.50098 0.0
H248 H 0.24343 0.91669 0.83907 0.0
H249 H 0.15931 0.83127 0.75151 0.0
H250 H 0.11754 0.78299 0.80432 0.0
H251 H 0.10201 0.76713 0.87571 0.0
H252 H 0.18237 0.85557 0.96341 0.0
H253 H 0.22848 0.90025 0.91059 0.0
C254 C 0.21629 0.88722 0.83158 0.0
C255 C 0.20464 0.87751 0.79136 0.0
C256 C 0.19153 0.8602 0.86226 0.0
C257 C 0.16897 0.83952 0.78219 0.0
C258 C 0.14502 0.81189 0.81241 0.0
C259 C 0.12995 0.79589 0.88325 0.0
C260 C 0.13884 0.80786 0.92349 0.0
C261 C 0.15558 0.82218 0.8526 0.0
C262 C 0.1748 0.8456 0.93271 0.0
C263 C 0.20117 0.87122 0.90248 0.0
H264 H 0.42619 0.94583 0.28895 0.0
H265 H 0.47754 0.07885 0.2852 0.0
H266 H 0.54745 0.08884 0.27983 0.0
H267 H 0.59407 0.05992 0.28506 0.0
H268 H 0.54247 0.92679 0.28812 0.0
H269 H 0.47253 0.91666 0.28422 0.0
C270 C 0.45265 0.97698 0.28627 0.0
C271 C 0.44681 0.01159 0.28807 0.0
C272 C 0.4927 0.98245 0.28334 0.0
C273 C 0.48125 0.05172 0.28399 0.0
C274 C 0.52125 0.05745 0.28116 0.0
C275 C 0.56754 0.02867 0.28412 0.0
C276 C 0.57342 0.99416 0.28748 0.0
C277 C 0.52739 0.02309 0.28213 0.0
C278 C 0.53881 0.95388 0.2857 0.0
C279 C 0.49877 0.94806 0.28373 0.0
H280 H 0.5274 0.59153 0.62167 0.0
H281 H 0.60735 0.53899 0.61 0.0
H282 H 0.54689 0.46933 0.60469 0.0
H283 H 0.47175 0.4229 0.61289 0.0
H284 H 0.39175 0.47543 0.62396 0.0
H285 H 0.45172 0.54552 0.61935 0.0
C286 C 0.53158 0.56491 0.61717 0.0
C287 C 0.5718 0.57036 0.61685 0.0
C288 C 0.49666 0.5249 0.6144 0.0
C289 C 0.57675 0.53566 0.61047 0.0
C290 C 0.54217 0.49575 0.6077 0.0
C291 C 0.46738 0.44968 0.61351 0.0
C292 C 0.42744 0.444 0.61937 0.0
C293 C 0.50203 0.4899 0.61108 0.0
C294 C 0.42217 0.47894 0.61959 0.0
C295 C 0.45649 0.51907 0.61721 0.0
H296 H 0.95152 0.5355 0.94685 0.0
H297 H 0.08405 0.61664 0.95351 0.0
H298 H 0.09419 0.5566 0.95006 0.0
H299 H 0.06491 0.48093 0.95488 0.0
H300 H 0.93251 0.39961 0.94782 0.0
H301 H 0.92283 0.45983 0.94108 0.0
C302 C 0.98266 0.54009 0.94674 0.0
C303 C 0.01695 0.58043 0.95107 0.0
C304 C 0.98826 0.50537 0.94506 0.0
C305 C 0.05712 0.58593 0.95035 0.0
C306 C 0.06294 0.55157 0.94864 0.0
C307 C 0.03399 0.47638 0.9511 0.0
C308 C 0.99942 0.43595 0.95246 0.0
C309 C 0.02867 0.51112 0.9475 0.0
C310 C 0.9596 0.43043 0.94696 0.0
C311 C 0.95404 0.46488 0.94338 0.0
H312 H 0.95744 0.53569 0.43189 0.0
H313 H 0.09087 0.60365 0.42357 0.0
H314 H 0.09257 0.53901 0.43019 0.0
H315 H 0.0557 0.46258 0.42856 0.0
H316 H 0.92202 0.3944 0.43123 0.0
H317 H 0.92084 0.45939 0.43721 0.0
C318 C 0.98691 0.53642 0.43254 0.0
C319 C 0.02394 0.57437 0.42702 0.0
C320 C 0.98758 0.4989 0.43489 0.0
C321 C 0.0619 0.57479 0.42753 0.0
C322 C 0.0629 0.5378 0.43119 0.0
C323 C 0.02636 0.46191 0.43146 0.0
C324 C 0.98902 0.42374 0.42921 0.0
C325 C 0.02586 0.49954 0.43342 0.0
C326 C 0.95122 0.42341 0.43265 0.0
C327 C 0.9505 0.4606 0.43593 0.0
H328 H 0.57908 0.05581 0.75955 0.0
H329 H 0.51329 0.92182 0.75268 0.0
H330 H 0.44724 0.92019 0.75943 0.0
H331 H 0.40794 0.95706 0.75828 0.0
H332 H 0.47342 0.09121 0.7594 0.0
H333 H 0.53953 0.0926 0.76459 0.0
C334 C 0.55031 0.02627 0.76042 0.0
C335 C 0.55104 0.98903 0.75537 0.0
C336 C 0.51226 0.02561 0.76295 0.0
C337 C 0.51352 0.95096 0.75621 0.0
C338 C 0.4757 0.94998 0.76001 0.0
C339 C 0.4366 0.98656 0.76066 0.0
C340 C 0.43579 0.02395 0.7583 0.0
C341 C 0.47462 0.98715 0.76209 0.0
C342 C 0.47324 0.06197 0.76098 0.0
C343 C 0.5111 0.0628 0.76378 0.0
H344 H 0.48385 0.43089 0.09516 0.0
H345 H 0.41646 0.4972 0.08734 0.0
H346 H 0.48081 0.56336 0.09464 0.0
H347 H 0.55678 0.60262 0.09384 0.0
H348 H 0.62481 0.53672 0.096 0.0
H349 H 0.55999 0.47044 0.10105 0.0
C350 C 0.48323 0.45979 0.09597 0.0
C351 C 0.44554 0.45919 0.09042 0.0
C352 C 0.52062 0.49792 0.09883 0.0
C353 C 0.44518 0.49688 0.09121 0.0
C354 C 0.48198 0.53476 0.09533 0.0
C355 C 0.55747 0.57384 0.09645 0.0
C356 C 0.59552 0.57458 0.09433 0.0
C357 C 0.52001 0.53574 0.09778 0.0
C358 C 0.59587 0.53697 0.09736 0.0
C359 C 0.55879 0.49901 0.10007 0.0
H360 H 0.11901 0.77157 0.35188 0.0
H361 H 0.05787 0.83399 0.40149 0.0
H362 H 0.11441 0.9011 0.37742 0.0
H363 H 0.18207 0.94157 0.34363 0.0
H364 H 0.24016 0.87708 0.29098 0.0
H365 H 0.18295 0.81081 0.31367 0.0
C366 C 0.11844 0.8 0.35802 0.0
C367 C 0.08521 0.79827 0.37955 0.0
C368 C 0.14988 0.83779 0.34267 0.0
C369 C 0.08378 0.83492 0.3858 0.0
C370 C 0.11582 0.87308 0.3717 0.0
C371 C 0.18185 0.91298 0.33637 0.0
C372 C 0.21568 0.91448 0.31584 0.0
C373 C 0.14903 0.87484 0.35002 0.0
C374 C 0.21471 0.877 0.30675 0.0
C375 C 0.18219 0.83906 0.32008 0.0
H376 H 0.22912 0.18439 0.6907 0.0
H377 H 0.33796 0.22948 0.61608 0.0
H378 H 0.34497 0.16995 0.63466 0.0
H379 H 0.32418 0.10874 0.67628 0.0
H380 H 0.21391 0.06025 0.7484 0.0
H381 H 0.20373 0.11806 0.72721 0.0
C382 C 0.25384 0.18075 0.67779 0.0
C383 C 0.28329 0.21176 0.65236 0.0
C384 C 0.25809 0.14658 0.68905 0.0
C385 C 0.315 0.20634 0.63586 0.0
C386 C 0.3193 0.17248 0.64675 0.0
C387 C 0.29814 0.11116 0.68763 0.0
C388 C 0.27059 0.0815 0.71485 0.0
C389 C 0.29188 0.14328 0.67426 0.0
C390 C 0.23598 0.08358 0.72818 0.0
C391 C 0.23008 0.11634 0.71581 0.0
H392 H 0.1892 0.25342 0.02754 0.0
H393 H 0.24315 0.37522 0.08159 0.0
H394 H 0.1851 0.38237 0.05827 0.0
H395 H 0.12053 0.35538 1.02068 0.0
H396 H 0.06404 0.23241 0.96968 0.0
H397 H 0.12247 0.22486 0.9926 0.0
C398 C 0.18799 0.28127 0.03484 0.0
C399 C 0.22069 0.31379 0.05624 0.0
C400 C 0.15477 0.28548 1.02085 0.0
C401 C 0.21848 0.34965 0.06529 0.0
C402 C 0.1855 0.35398 0.05159 0.0
C403 C 0.12149 0.32728 1.01383 0.0
C404 C 0.08878 0.29493 0.99255 0.0
C405 C 0.15401 0.32251 0.02865 0.0
C406 C 0.08944 0.25802 0.98526 0.0
C407 C 0.12253 0.25356 0.99876 0.0
H408 H 0.90483 0.22605 0.34501 0.0
H409 H 0.95272 0.16493 0.41881 0.0
H410 H 0.89615 0.0966 0.3969 0.0
H411 H 0.83116 0.05515 0.35902 0.0
H412 H 0.78673 0.11824 0.28274 0.0
H413 H 0.84496 0.18517 0.30229 0.0
C414 C 0.90251 0.19765 0.3566 0.0
C415 C 0.93163 0.20003 0.38447 0.0
C416 C 0.87116 0.15909 0.34279 0.0
C417 C 0.92974 0.16344 0.39811 0.0
C418 C 0.89772 0.1246 0.38532 0.0
C419 C 0.83469 0.08346 0.34597 0.0
C420 C 0.80424 0.08158 0.31975 0.0
C421 C 0.86807 0.12209 0.35781 0.0
C422 C 0.80947 0.11866 0.3031 0.0
C423 C 0.84257 0.15703 0.31454 0.0
H424 H 0.66078 0.77065 0.68994 0.0
H425 H 0.78392 0.83782 0.64032 0.0
H426 H 0.79101 0.90364 0.66452 0.0
H427 H 0.761 0.94155 0.69869 0.0
H428 H 0.63904 0.87228 0.75147 0.0
H429 H 0.63332 0.80744 0.7283 0.0
C430 C 0.68892 0.79982 0.6838 0.0
C431 C 0.72129 0.79977 0.66226 0.0
C432 C 0.69333 0.83688 0.69925 0.0
C433 C 0.75827 0.83742 0.65602 0.0
C434 C 0.76242 0.87485 0.67019 0.0
C435 C 0.7335 0.91225 0.70585 0.0
C436 C 0.70036 0.91196 0.7266 0.0
C437 C 0.73012 0.8749 0.69196 0.0
C438 C 0.665 0.87358 0.73554 0.0
C439 C 0.66148 0.83644 0.72194 0.0
H440 H 0.79036 0.69122 1.00445 0.0
H441 H 0.85193 0.7954 0.08435 0.0
H442 H 0.91974 0.80525 0.06342 0.0
H443 H 0.96022 0.78046 1.02546 0.0
H444 H 0.89691 0.677 0.94425 0.0
H445 H 0.83083 0.67148 0.96163 0.0
C446 C 0.81876 0.71594 1.01737 0.0
C447 C 0.81665 0.7418 0.04666 0.0
C448 C 0.85705 0.72185 1.00448 0.0
C449 C 0.85322 0.77467 0.06237 0.0
C450 C 0.89176 0.78036 0.05021 0.0
C451 C 0.93212 0.75732 1.01086 0.0
C452 C 0.93353 0.72884 0.9839 0.0
C453 C 0.89397 0.75376 1.02158 0.0
C454 C 0.89676 0.69914 0.96524 0.0
C455 C 0.85888 0.69569 0.97541 0.0
H456 H 0.3128 0.96474 0.45 0.0
H457 H 0.36213 0.09731 0.45763 0.0
H458 H 0.35963 0.09287 0.53062 0.0
H459 H 0.34207 0.05106 0.59177 0.0
H460 H 0.28644 0.91768 0.58409 0.0
H461 H 0.2927 0.92254 0.51119 0.0
C462 C 0.32338 0.99275 0.46767 0.0
C463 C 0.33824 0.03147 0.44855 0.0
C464 C 0.32056 0.98968 0.50939 0.0
C465 C 0.35083 0.06729 0.47171 0.0
C466 C 0.34938 0.0647 0.51336 0.0
C467 C 0.33166 0.02304 0.57415 0.0
C468 C 0.31437 0.98404 0.59324 0.0
C469 C 0.33418 0.02605 0.53244 0.0
C470 C 0.30004 0.94798 0.57005 0.0
C471 C 0.30364 0.95081 0.52846 0.0
H472 H 0.31953 0.36274 0.92981 0.0
H473 H 0.37324 0.2837 0.91865 0.0
H474 H 0.36938 0.28634 0.84574 0.0
H475 H 0.34892 0.30973 0.7856 0.0
H476 H 0.28875 0.38281 0.79754 0.0
H477 H 0.29693 0.38399 0.87009 0.0
C478 C 0.33086 0.34645 0.91141 0.0
C479 C 0.34732 0.32357 0.92951 0.0
C480 C 0.32716 0.34696 0.86983 0.0
C481 C 0.36077 0.30171 0.90537 0.0
C482 C 0.3585 0.30322 0.86377 0.0
C483 C 0.33794 0.32624 0.80409 0.0
C484 C 0.31872 0.34667 0.78627 0.0
C485 C 0.34156 0.32559 0.84573 0.0
C486 C 0.30376 0.36707 0.81058 0.0
C487 C 0.30847 0.36773 0.85199 0.0
H488 H 0.9582 0.30019 0.26213 0.0
H489 H 0.09087 0.37816 0.25171 0.0
H490 H 0.08461 0.37766 0.17891 0.0
H491 H 0.04158 0.35366 0.11866 0.0
H492 H 0.90975 0.27015 0.12875 0.0
H493 H 0.9154 0.27419 0.2017 0.0
C494 C 0.98574 0.31746 0.24393 0.0
C495 C 0.02497 0.33977 0.26224 0.0
C496 C 0.98195 0.31587 0.20225 0.0
C497 C 0.06042 0.36103 0.2383 0.0
C498 C 0.05679 0.36071 0.19676 0.0
C499 C 0.01396 0.33667 0.13682 0.0
C500 C 0.97511 0.31212 0.11839 0.0
C501 C 0.01774 0.33811 0.17847 0.0
C502 C 0.93985 0.28942 0.14226 0.0
C503 C 0.94314 0.29175 0.18388 0.0
H504 H 0.70557 0.04561 0.45307 0.0
H505 H 0.63374 0.91189 0.46218 0.0
H506 H 0.63124 0.91738 0.53486 0.0
H507 H 0.65077 0.96014 0.59549 0.0
H508 H 0.72842 0.09338 0.58705 0.0
H509 H 0.72738 0.0883 0.51405 0.0
C510 C 0.68906 0.01767 0.47097 0.0
C511 C 0.66936 0.97835 0.45233 0.0
C512 C 0.68893 0.02109 0.51267 0.0
C513 C 0.64895 0.94241 0.47588 0.0
C514 C 0.64752 0.9456 0.51735 0.0
C515 C 0.66713 0.98815 0.57765 0.0
C516 C 0.68914 0.02722 0.59653 0.0
C517 C 0.6675 0.98476 0.53601 0.0
C518 C 0.71109 0.06308 0.57314 0.0
C519 C 0.71048 0.06012 0.5315 0.0
H520 H 0.71 0.65991 0.92555 0.0
H521 H 0.63633 0.71972 0.91727 0.0
H522 H 0.63383 0.71186 0.84459 0.0
H523 H 0.65466 0.6903 0.78376 0.0
H524 H 0.73378 0.63651 0.79148 0.0
H525 H 0.73197 0.63951 0.86449 0.0
C526 C 0.69297 0.67084 0.90789 0.0
C527 C 0.67289 0.68996 0.9268 0.0
C528 C 0.69279 0.66733 0.8662 0.0
C529 C 0.65183 0.70479 0.90344 0.0
C530 C 0.65043 0.70028 0.86195 0.0
C531 C 0.6711 0.67868 0.80139 0.0
C532 C 0.69389 0.66259 0.78225 0.0
C533 C 0.67102 0.68185 0.84307 0.0
C534 C 0.71586 0.64873 0.8055 0.0
C535 C 0.71484 0.65053 0.84717 0.0
H536 H 0.04659 0.68725 0.26095 0.0
H537 H 0.91361 0.6295 0.2516 0.0
H538 H 0.91939 0.63311 0.1786 0.0
H539 H 0.96271 0.65531 0.11791 0.0
H540 H 0.09597 0.71915 0.12839 0.0
H541 H 0.08967 0.71051 0.20089 0.0
C542 C 0.01872 0.67487 0.243 0.0
C543 C 0.97958 0.65749 0.26166 0.0
C544 C 0.02248 0.67844 0.20139 0.0
C545 C 0.94398 0.64269 0.23794 0.0
C546 C 0.94735 0.64486 0.19628 0.0
C547 C 0.99038 0.66697 0.13606 0.0
C548 C 0.02983 0.6875 0.1178 0.0
C549 C 0.98648 0.66301 0.17773 0.0
C550 C 0.06536 0.7032 0.14172 0.0
C551 C 0.06172 0.69823 0.18311 0.0
loop_
_geom_bond_atom_site_label_1
_geom_bond_atom_site_label_2
_geom_bond_distance
_geom_bond_site_symmetry_2
_ccdc_geom_bond_type
O0 Cd1 2.236 . S
O0 C8 1.291 1_545 S
Cd1 O0 2.236 . S
Cd1 O4 2.297 . S
Cd1 O5 2.439 . S
Cd1 O11 2.240 . S
Cd2 O3 2.240 . S
Cd2 O10 2.223 . S
Cd2 O12 2.297 . S
Cd2 O13 2.439 1_565 S
O3 Cd2 2.240 . S
O3 C8 1.279 . S
O4 Cd1 2.297 . S
O4 C6 1.247 . S
O5 Cd1 2.439 . S
O5 C6 1.208 . S
C6 O4 1.247 . S
C6 O5 1.208 . S
C7 O12 1.247 1_545 S
C7 O13 1.208 . S
C8 O0 1.291 1_565 S
C8 O3 1.279 . S
C9 O10 1.315 1_545 S
C9 O11 1.279 . S
O10 Cd2 2.223 . S
O10 C9 1.315 1_565 S
O11 Cd1 2.240 . S
O11 C9 1.279 . S
O12 Cd2 2.297 . S
O12 C7 1.247 1_565 S
O13 Cd2 2.439 1_545 S
O13 C7 1.208 . S
O14 Cd15 2.223 . S
O14 C22 1.315 . S
Cd15 O14 2.223 . S
Cd15 O18 2.297 . S
Cd15 O19 2.439 . S
Cd15 O25 2.240 . S
Cd16 O17 2.240 . S
Cd16 O24 2.223 . S
Cd16 O26 2.297 . S
Cd16 O27 2.439 . S
O17 Cd16 2.240 . S
O17 C22 1.279 . S
O18 Cd15 2.297 . S
O18 C20 1.247 . S
O19 Cd15 2.439 . S
O19 C20 1.208 . S
C20 O18 1.247 . S
C20 O19 1.208 . S
C21 O26 1.247 . S
C21 O27 1.208 . S
C22 O14 1.315 . S
C22 O17 1.279 . S
C23 O24 1.315 . S
C23 O25 1.279 . S
O24 Cd16 2.223 . S
O24 C23 1.315 . S
O25 Cd15 2.240 . S
O25 C23 1.279 . S
O26 Cd16 2.297 . S
O26 C21 1.247 . S
O27 Cd16 2.439 . S
O27 C21 1.208 . S
O28 Cd29 2.249 1_554 S
O28 C36 1.306 1_654 S
Cd29 O28 2.249 1_556 S
Cd29 O32 2.297 . S
Cd29 O33 2.439 . S
Cd29 O39 2.240 1_556 S
Cd30 O31 2.240 . S
Cd30 O38 2.223 1_556 S
Cd30 O40 2.297 1_556 S
Cd30 O41 2.439 1_455 S
O31 Cd30 2.240 . S
O31 C36 1.279 . S
O32 Cd29 2.297 . S
O32 C34 1.247 . S
O33 Cd29 2.439 . S
O33 C34 1.208 . S
C34 O32 1.247 . S
C34 O33 1.208 . S
C35 O40 1.247 1_656 S
C35 O41 1.208 . S
C36 O28 1.306 1_456 S
C36 O31 1.279 . S
C37 O38 1.315 1_655 S
C37 O39 1.279 . S
O38 Cd30 2.223 1_554 S
O38 C37 1.315 1_455 S
O39 Cd29 2.240 1_554 S
O39 C37 1.279 . S
O40 Cd30 2.297 1_554 S
O40 C35 1.247 1_454 S
O41 Cd30 2.439 1_655 S
O41 C35 1.208 . S
O42 Cd43 2.236 . S
O42 C50 1.291 1_565 S
Cd43 O42 2.236 . S
Cd43 O46 2.297 . S
Cd43 O47 2.439 . S
Cd43 O53 2.240 . S
Cd44 O45 2.240 . S
Cd44 O52 2.223 . S
Cd44 O54 2.297 . S
Cd44 O55 2.439 1_545 S
O45 Cd44 2.240 . S
O45 C50 1.279 . S
O46 Cd43 2.297 . S
O46 C48 1.247 . S
O47 Cd43 2.439 . S
O47 C48 1.208 . S
C48 O46 1.247 . S
C48 O47 1.208 . S
C49 O54 1.247 1_565 S
C49 O55 1.208 . S
C50 O42 1.291 1_545 S
C50 O45 1.279 . S
C51 O52 1.315 1_565 S
C51 O53 1.279 . S
O52 Cd44 2.223 . S
O52 C51 1.315 1_545 S
O53 Cd43 2.240 . S
O53 C51 1.279 . S
O54 Cd44 2.297 . S
O54 C49 1.247 1_545 S
O55 Cd44 2.439 1_565 S
O55 C49 1.208 . S
O56 Cd57 2.223 . S
O56 C64 1.315 . S
Cd57 O56 2.223 . S
Cd57 O60 2.297 . S
Cd57 O61 2.439 . S
Cd57 O67 2.240 . S
Cd58 O59 2.240 . S
Cd58 O66 2.223 . S
Cd58 O68 2.297 . S
Cd58 O69 2.439 . S
O59 Cd58 2.240 . S
O59 C64 1.279 . S
O60 Cd57 2.297 . S
O60 C62 1.247 . S
O61 Cd57 2.439 . S
O61 C62 1.208 . S
C62 O60 1.247 . S
C62 O61 1.208 . S
C63 O68 1.247 . S
C63 O69 1.208 . S
C64 O56 1.315 . S
C64 O59 1.279 . S
C65 O66 1.315 . S
C65 O67 1.279 . S
O66 Cd58 2.223 . S
O66 C65 1.315 . S
O67 Cd57 2.240 . S
O67 C65 1.279 . S
O68 Cd58 2.297 . S
O68 C63 1.247 . S
O69 Cd58 2.439 . S
O69 C63 1.208 . S
O70 Cd71 2.249 1_554 S
O70 C78 1.306 1_454 S
Cd71 O70 2.249 1_556 S
Cd71 O74 2.297 . S
Cd71 O75 2.439 . S
Cd71 O81 2.240 1_556 S
Cd72 O73 2.240 . S
Cd72 O80 2.223 1_556 S
Cd72 O82 2.297 1_556 S
Cd72 O83 2.439 1_655 S
O73 Cd72 2.240 . S
O73 C78 1.279 . S
O74 Cd71 2.297 . S
O74 C76 1.247 . S
O75 Cd71 2.439 . S
O75 C76 1.208 . S
C76 O74 1.247 . S
C76 O75 1.208 . S
C77 O82 1.247 1_456 S
C77 O83 1.208 . S
C78 O70 1.306 1_656 S
C78 O73 1.279 . S
C79 O80 1.315 1_455 S
C79 O81 1.279 . S
O80 Cd72 2.223 1_554 S
O80 C79 1.315 1_655 S
O81 Cd71 2.240 1_554 S
O81 C79 1.279 . S
O82 Cd72 2.297 1_554 S
O82 C77 1.247 1_654 S
O83 Cd72 2.439 1_455 S
O83 C77 1.208 . S
O84 Cd85 2.236 . S
O84 C92 1.292 1_655 S
Cd85 O84 2.236 . S
Cd85 O88 2.297 . S
Cd85 O89 2.439 . S
Cd85 O95 2.240 . S
Cd86 O87 2.240 . S
Cd86 O94 2.223 . S
Cd86 O96 2.297 . S
Cd86 O97 2.439 1_455 S
O87 Cd86 2.240 . S
O87 C92 1.279 . S
O88 Cd85 2.297 . S
O88 C90 1.247 . S
O89 Cd85 2.439 . S
O89 C90 1.208 . S
C90 O88 1.247 . S
C90 O89 1.208 . S
C91 O96 1.247 1_655 S
C91 O97 1.208 . S
C92 O84 1.292 1_455 S
C92 O87 1.279 . S
C93 O94 1.315 1_655 S
C93 O95 1.279 . S
O94 Cd86 2.223 . S
O94 C93 1.315 1_455 S
O95 Cd85 2.240 . S
O95 C93 1.279 . S
O96 Cd86 2.297 . S
O96 C91 1.247 1_455 S
O97 Cd86 2.439 1_655 S
O97 C91 1.208 . S
O98 Cd99 2.249 . S
O98 C106 1.306 1_565 S
Cd99 O98 2.249 . S
Cd99 O102 2.297 . S
Cd99 O103 2.439 . S
Cd99 O109 2.240 . S
Cd100 O101 2.240 . S
Cd100 O108 2.223 . S
Cd100 O110 2.297 . S
Cd100 O111 2.439 1_545 S
O101 Cd100 2.240 . S
O101 C106 1.279 . S
O102 Cd99 2.297 . S
O102 C104 1.247 . S
O103 Cd99 2.439 . S
O103 C104 1.208 . S
C104 O102 1.247 . S
C104 O103 1.208 . S
C105 O110 1.247 1_565 S
C105 O111 1.208 . S
C106 O98 1.306 1_545 S
C106 O101 1.279 . S
C107 O108 1.315 1_565 S
C107 O109 1.279 . S
O108 Cd100 2.223 . S
O108 C107 1.315 1_545 S
O109 Cd99 2.240 . S
O109 C107 1.279 . S
O110 Cd100 2.297 . S
O110 C105 1.247 1_545 S
O111 Cd100 2.439 1_565 S
O111 C105 1.208 . S
O112 Cd113 2.223 . S
O112 C120 1.315 1_556 S
Cd113 O112 2.223 . S
Cd113 O116 2.297 1_556 S
Cd113 O117 2.439 1_556 S
Cd113 O123 2.240 . S
Cd114 O115 2.240 1_556 S
Cd114 O122 2.223 . S
Cd114 O124 2.297 . S
Cd114 O125 2.439 1_556 S
O115 Cd114 2.240 1_554 S
O115 C120 1.279 . S
O116 Cd113 2.297 1_554 S
O116 C118 1.247 . S
O117 Cd113 2.439 1_554 S
O117 C118 1.208 . S
C118 O116 1.247 . S
C118 O117 1.208 . S
C119 O124 1.247 . S
C119 O125 1.208 1_556 S
C120 O112 1.315 1_554 S
C120 O115 1.279 . S
C121 O122 1.315 . S
C121 O123 1.279 . S
O122 Cd114 2.223 . S
O122 C121 1.315 . S
O123 Cd113 2.240 . S
O123 C121 1.279 . S
O124 Cd114 2.297 . S
O124 C119 1.247 . S
O125 Cd114 2.439 1_554 S
O125 C119 1.208 1_554 S
O126 Cd127 2.236 . S
O126 C134 1.292 1_455 S
Cd127 O126 2.236 . S
Cd127 O130 2.297 . S
Cd127 O131 2.439 . S
Cd127 O137 2.240 . S
Cd128 O129 2.240 . S
Cd128 O136 2.223 . S
Cd128 O138 2.297 . S
Cd128 O139 2.439 1_655 S
O129 Cd128 2.240 . S
O129 C134 1.279 . S
O130 Cd127 2.297 . S
O130 C132 1.247 . S
O131 Cd127 2.439 . S
O131 C132 1.208 . S
C132 O130 1.247 . S
C132 O131 1.208 . S
C133 O138 1.247 1_455 S
C133 O139 1.208 . S
C134 O126 1.292 1_655 S
C134 O129 1.279 . S
C135 O136 1.315 1_455 S
C135 O137 1.279 . S
O136 Cd128 2.223 . S
O136 C135 1.315 1_655 S
O137 Cd127 2.240 . S
O137 C135 1.279 . S
O138 Cd128 2.297 . S
O138 C133 1.247 1_655 S
O139 Cd128 2.439 1_455 S
O139 C133 1.208 . S
O140 Cd141 2.249 . S
O140 C148 1.306 1_545 S
Cd141 O140 2.249 . S
Cd141 O144 2.297 . S
Cd141 O145 2.439 . S
Cd141 O151 2.240 . S
Cd142 O143 2.240 . S
Cd142 O150 2.223 . S
Cd142 O152 2.297 . S
Cd142 O153 2.439 1_565 S
O143 Cd142 2.240 . S
O143 C148 1.279 . S
O144 Cd141 2.297 . S
O144 C146 1.247 . S
O145 Cd141 2.439 . S
O145 C146 1.208 . S
C146 O144 1.247 . S
C146 O145 1.208 . S
C147 O152 1.247 1_545 S
C147 O153 1.208 . S
C148 O140 1.306 1_565 S
C148 O143 1.279 . S
C149 O150 1.315 1_545 S
C149 O151 1.279 . S
O150 Cd142 2.223 . S
O150 C149 1.315 1_565 S
O151 Cd141 2.240 . S
O151 C149 1.279 . S
O152 Cd142 2.297 . S
O152 C147 1.247 1_565 S
O153 Cd142 2.439 1_545 S
O153 C147 1.208 . S
O154 Cd155 2.223 . S
O154 C162 1.315 1_556 S
Cd155 O154 2.223 . S
Cd155 O158 2.297 1_556 S
Cd155 O159 2.439 1_556 S
Cd155 O165 2.240 . S
Cd156 O157 2.240 1_556 S
Cd156 O164 2.223 . S
Cd156 O166 2.297 . S
Cd156 O167 2.439 1_556 S
O157 Cd156 2.240 1_554 S
O157 C162 1.279 . S
O158 Cd155 2.297 1_554 S
O158 C160 1.247 . S
O159 Cd155 2.439 1_554 S
O159 C160 1.208 . S
C160 O158 1.247 . S
C160 O159 1.208 . S
C161 O166 1.247 . S
C161 O167 1.208 1_556 S
C162 O154 1.315 1_554 S
C162 O157 1.279 . S
C163 O164 1.315 . S
C163 O165 1.279 . S
O164 Cd156 2.223 . S
O164 C163 1.315 . S
O165 Cd155 2.240 . S
O165 C163 1.279 . S
O166 Cd156 2.297 . S
O166 C161 1.247 . S
O167 Cd156 2.439 1_554 S
O167 C161 1.208 1_554 S
H168 C174 0.930 . S
H169 C177 0.930 . S
H170 C178 0.930 . S
H171 C179 0.930 . S
H172 C182 0.930 . S
H173 C183 0.930 . S
C174 H168 0.930 . S
C174 C175 1.355 . S
C174 C176 1.415 . S
C175 C174 1.355 . S
C175 C177 1.419 . S
C176 C174 1.415 . S
C176 C181 1.425 . S
C176 C183 1.409 . S
C177 H169 0.930 . S
C177 C175 1.419 . S
C177 C178 1.362 . S
C178 H170 0.930 . S
C178 C177 1.362 . S
C178 C181 1.409 . S
C179 H171 0.930 . S
C179 C180 1.355 . S
C179 C181 1.415 . S
C180 C179 1.355 . S
C180 C182 1.419 . S
C181 C176 1.425 . S
C181 C178 1.409 . S
C181 C179 1.415 . S
C182 H172 0.930 . S
C182 C180 1.419 . S
C182 C183 1.362 . S
C183 H173 0.930 . S
C183 C176 1.409 . S
C183 C182 1.362 . S
H184 C190 0.930 . S
H185 C193 0.930 . S
H186 C194 0.930 . S
H187 C195 0.930 . S
H188 C198 0.930 . S
H189 C199 0.930 . S
C190 H184 0.930 . S
C190 C191 1.355 . S
C190 C192 1.415 . S
C191 C190 1.355 . S
C191 C193 1.419 . S
C192 C190 1.415 . S
C192 C197 1.425 . S
C192 C199 1.409 . S
C193 H185 0.930 . S
C193 C191 1.419 . S
C193 C194 1.362 . S
C194 H186 0.930 . S
C194 C193 1.362 . S
C194 C197 1.409 . S
C195 H187 0.930 . S
C195 C196 1.355 . S
C195 C197 1.415 . S
C196 C195 1.355 . S
C196 C198 1.419 . S
C197 C192 1.425 . S
C197 C194 1.409 . S
C197 C195 1.415 . S
C198 H188 0.930 . S
C198 C196 1.419 . S
C198 C199 1.362 . S
C199 H189 0.930 . S
C199 C192 1.409 . S
C199 C198 1.362 . S
H200 C206 0.930 . S
H201 C209 0.930 . S
H202 C210 0.930 . S
H203 C211 0.930 . S
H204 C214 0.930 . S
H205 C215 0.930 . S
C206 H200 0.930 . S
C206 C207 1.355 . S
C206 C208 1.415 . S
C207 C206 1.355 . S
C207 C209 1.419 . S
C208 C206 1.415 . S
C208 C213 1.425 . S
C208 C215 1.409 . S
C209 H201 0.930 . S
C209 C207 1.419 . S
C209 C210 1.362 . S
C210 H202 0.930 . S
C210 C209 1.362 . S
C210 C213 1.409 . S
C211 H203 0.930 . S
C211 C212 1.355 . S
C211 C213 1.415 . S
C212 C211 1.355 . S
C212 C214 1.419 . S
C213 C208 1.425 . S
C213 C210 1.409 . S
C213 C211 1.415 . S
C214 H204 0.930 . S
C214 C212 1.419 . S
C214 C215 1.362 . S
C215 H205 0.930 . S
C215 C208 1.409 . S
C215 C214 1.362 . S
H216 C222 0.930 . S
H217 C225 0.930 . S
H218 C226 0.930 . S
H219 C227 0.930 . S
H220 C230 0.930 . S
H221 C231 0.930 . S
C222 H216 0.930 . S
C222 C223 1.355 . S
C222 C224 1.415 . S
C223 C222 1.355 . S
C223 C225 1.419 . S
C224 C222 1.415 . S
C224 C229 1.425 . S
C224 C231 1.409 . S
C225 H217 0.930 . S
C225 C223 1.419 . S
C225 C226 1.362 . S
C226 H218 0.930 . S
C226 C225 1.362 . S
C226 C229 1.409 . S
C227 H219 0.930 . S
C227 C228 1.355 . S
C227 C229 1.415 . S
C228 C227 1.355 . S
C228 C230 1.419 . S
C229 C224 1.425 . S
C229 C226 1.409 . S
C229 C227 1.415 . S
C230 H220 0.930 . S
C230 C228 1.419 . S
C230 C231 1.362 . S
C231 H221 0.930 . S
C231 C224 1.409 . S
C231 C230 1.362 . S
H232 C238 0.930 . S
H233 C241 0.930 . S
H234 C242 0.930 . S
H235 C243 0.930 . S
H236 C246 0.930 . S
H237 C247 0.930 . S
C238 H232 0.930 . S
C238 C239 1.355 . S
C238 C240 1.415 . S
C239 C238 1.355 . S
C239 C241 1.419 . S
C240 C238 1.415 . S
C240 C245 1.425 . S
C240 C247 1.409 . S
C241 H233 0.930 . S
C241 C239 1.419 . S
C241 C242 1.362 . S
C242 H234 0.930 . S
C242 C241 1.362 . S
C242 C245 1.409 . S
C243 H235 0.930 . S
C243 C244 1.355 . S
C243 C245 1.415 . S
C244 C243 1.355 . S
C244 C246 1.419 . S
C245 C240 1.425 . S
C245 C242 1.409 . S
C245 C243 1.415 . S
C246 H236 0.930 . S
C246 C244 1.419 . S
C246 C247 1.362 . S
C247 H237 0.930 . S
C247 C240 1.409 . S
C247 C246 1.362 . S
H248 C254 0.930 . S
H249 C257 0.930 . S
H250 C258 0.930 . S
H251 C259 0.930 . S
H252 C262 0.930 . S
H253 C263 0.930 . S
C254 H248 0.930 . S
C254 C255 1.355 . S
C254 C256 1.415 . S
C255 C254 1.355 . S
C255 C257 1.419 . S
C256 C254 1.415 . S
C256 C261 1.425 . S
C256 C263 1.409 . S
C257 H249 0.930 . S
C257 C255 1.419 . S
C257 C258 1.362 . S
C258 H250 0.930 . S
C258 C257 1.362 . S
C258 C261 1.409 . S
C259 H251 0.930 . S
C259 C260 1.355 . S
C259 C261 1.415 . S
C260 C259 1.355 . S
C260 C262 1.419 . S
C261 C256 1.425 . S
C261 C258 1.409 . S
C261 C259 1.415 . S
C262 H252 0.930 . S
C262 C260 1.419 . S
C262 C263 1.362 . S
C263 H253 0.930 . S
C263 C256 1.409 . S
C263 C262 1.362 . S
H264 C270 0.930 . S
H265 C273 0.930 . S
H266 C274 0.930 . S
H267 C275 0.930 . S
H268 C278 0.930 . S
H269 C279 0.930 . S
C270 H264 0.930 . S
C270 C271 1.355 1_565 S
C270 C272 1.415 . S
C271 C270 1.355 1_545 S
C271 C273 1.419 . S
C272 C270 1.415 . S
C272 C277 1.425 1_565 S
C272 C279 1.409 . S
C273 H265 0.930 . S
C273 C271 1.419 . S
C273 C274 1.362 . S
C274 H266 0.930 . S
C274 C273 1.362 . S
C274 C277 1.409 . S
C275 H267 0.930 . S
C275 C276 1.355 1_545 S
C275 C277 1.415 . S
C276 C275 1.355 1_565 S
C276 C278 1.419 . S
C277 C272 1.425 1_545 S
C277 C274 1.409 . S
C277 C275 1.415 . S
C278 H268 0.930 . S
C278 C276 1.419 . S
C278 C279 1.362 . S
C279 H269 0.930 . S
C279 C272 1.409 . S
C279 C278 1.362 . S
H280 C286 0.930 . S
H281 C289 0.930 . S
H282 C290 0.930 . S
H283 C291 0.930 . S
H284 C294 0.930 . S
H285 C295 0.930 . S
C286 H280 0.930 . S
C286 C287 1.355 . S
C286 C288 1.415 . S
C287 C286 1.355 . S
C287 C289 1.419 . S
C288 C286 1.415 . S
C288 C293 1.425 . S
C288 C295 1.409 . S
C289 H281 0.930 . S
C289 C287 1.419 . S
C289 C290 1.362 . S
C290 H282 0.930 . S
C290 C289 1.362 . S
C290 C293 1.409 . S
C291 H283 0.930 . S
C291 C292 1.355 . S
C291 C293 1.415 . S
C292 C291 1.355 . S
C292 C294 1.419 . S
C293 C288 1.425 . S
C293 C290 1.409 . S
C293 C291 1.415 . S
C294 H284 0.930 . S
C294 C292 1.419 . S
C294 C295 1.362 . S
C295 H285 0.930 . S
C295 C288 1.409 . S
C295 C294 1.362 . S
H296 C302 0.930 1_655 S
H297 C305 0.930 . S
H298 C306 0.930 . S
H299 C307 0.930 1_455 S
H300 C310 0.930 . S
H301 C311 0.930 . S
C302 H296 0.930 1_455 S
C302 C303 1.355 . S
C302 C304 1.415 1_455 S
C303 C302 1.355 . S
C303 C305 1.419 1_556 S
C304 C302 1.415 1_655 S
C304 C309 1.425 1_656 S
C304 C311 1.409 . S
C305 H297 0.930 . S
C305 C303 1.419 1_554 S
C305 C306 1.362 . S
C306 H298 0.930 . S
C306 C305 1.362 . S
C306 C309 1.409 . S
C307 H299 0.930 1_655 S
C307 C308 1.355 1_554 S
C307 C309 1.415 1_655 S
C308 C307 1.355 1_556 S
C308 C310 1.419 . S
C309 C304 1.425 1_454 S
C309 C306 1.409 . S
C309 C307 1.415 1_455 S
C310 H300 0.930 . S
C310 C308 1.419 . S
C310 C311 1.362 . S
C311 H301 0.930 . S
C311 C304 1.409 . S
C311 C310 1.362 . S
H312 C318 0.930 . S
H313 C321 0.930 . S
H314 C322 0.930 . S
H315 C323 0.930 . S
H316 C326 0.930 . S
H317 C327 0.930 . S
C318 H312 0.930 . S
C318 C319 1.355 . S
C318 C320 1.415 . S
C319 C318 1.355 . S
C319 C321 1.419 1_655 S
C320 C318 1.415 . S
C320 C325 1.425 1_655 S
C320 C327 1.409 . S
C321 H313 0.930 . S
C321 C319 1.419 1_455 S
C321 C322 1.362 . S
C322 H314 0.930 . S
C322 C321 1.362 . S
C322 C325 1.409 . S
C323 H315 0.930 . S
C323 C324 1.355 . S
C323 C325 1.415 . S
C324 C323 1.355 . S
C324 C326 1.419 1_455 S
C325 C320 1.425 1_455 S
C325 C322 1.409 . S
C325 C323 1.415 . S
C326 H316 0.930 . S
C326 C324 1.419 1_655 S
C326 C327 1.362 . S
C327 H317 0.930 . S
C327 C320 1.409 . S
C327 C326 1.362 . S
H328 C334 0.930 . S
H329 C337 0.930 . S
H330 C338 0.930 . S
H331 C339 0.930 . S
H332 C342 0.930 . S
H333 C343 0.930 . S
C334 H328 0.930 . S
C334 C335 1.355 . S
C334 C336 1.415 . S
C335 C334 1.355 . S
C335 C337 1.419 1_545 S
C336 C334 1.415 . S
C336 C341 1.425 1_545 S
C336 C343 1.409 . S
C337 H329 0.930 . S
C337 C335 1.419 1_565 S
C337 C338 1.362 . S
C338 H330 0.930 . S
C338 C337 1.362 . S
C338 C341 1.409 . S
C339 H331 0.930 . S
C339 C340 1.355 . S
C339 C341 1.415 . S
C340 C339 1.355 . S
C340 C342 1.419 1_565 S
C341 C336 1.425 1_565 S
C341 C338 1.409 . S
C341 C339 1.415 . S
C342 H332 0.930 . S
C342 C340 1.419 1_545 S
C342 C343 1.362 . S
C343 H333 0.930 . S
C343 C336 1.409 . S
C343 C342 1.362 . S
H344 C350 0.930 . S
H345 C353 0.930 . S
H346 C354 0.930 . S
H347 C355 0.930 . S
H348 C358 0.930 . S
H349 C359 0.930 . S
C350 H344 0.930 . S
C350 C351 1.354 1_554 S
C350 C352 1.415 . S
C351 C350 1.354 1_556 S
C351 C353 1.420 . S
C352 C350 1.415 . S
C352 C357 1.425 1_554 S
C352 C359 1.409 . S
C353 H345 0.930 . S
C353 C351 1.420 . S
C353 C354 1.362 . S
C354 H346 0.930 . S
C354 C353 1.362 . S
C354 C357 1.409 . S
C355 H347 0.930 . S
C355 C356 1.355 1_556 S
C355 C357 1.415 . S
C356 C355 1.355 1_554 S
C356 C358 1.419 . S
C357 C352 1.425 1_556 S
C357 C354 1.409 . S
C357 C355 1.415 . S
C358 H348 0.930 . S
C358 C356 1.419 . S
C358 C359 1.362 . S
C359 H349 0.930 . S
C359 C352 1.409 . S
C359 C358 1.362 . S
H360 C366 0.930 . S
H361 C369 0.930 . S
H362 C370 0.930 . S
H363 C371 0.930 . S
H364 C374 0.930 . S
H365 C375 0.930 . S
C366 H360 0.930 . S
C366 C367 1.355 . S
C366 C368 1.415 . S
C367 C366 1.355 . S
C367 C369 1.419 . S
C368 C366 1.415 . S
C368 C373 1.425 . S
C368 C375 1.409 . S
C369 H361 0.930 . S
C369 C367 1.419 . S
C369 C370 1.362 . S
C370 H362 0.930 . S
C370 C369 1.362 . S
C370 C373 1.409 . S
C371 H363 0.930 . S
C371 C372 1.355 . S
C371 C373 1.415 . S
C372 C371 1.355 . S
C372 C374 1.419 . S
C373 C368 1.425 . S
C373 C370 1.409 . S
C373 C371 1.415 . S
C374 H364 0.930 . S
C374 C372 1.419 . S
C374 C375 1.362 . S
C375 H365 0.930 . S
C375 C368 1.409 . S
C375 C374 1.362 . S
H376 C382 0.930 . S
H377 C385 0.930 . S
H378 C386 0.930 . S
H379 C387 0.930 . S
H380 C390 0.930 . S
H381 C391 0.930 . S
C382 H376 0.930 . S
C382 C383 1.355 . S
C382 C384 1.415 . S
C383 C382 1.355 . S
C383 C385 1.419 . S
C384 C382 1.415 . S
C384 C389 1.425 . S
C384 C391 1.409 . S
C385 H377 0.930 . S
C385 C383 1.419 . S
C385 C386 1.362 . S
C386 H378 0.930 . S
C386 C385 1.362 . S
C386 C389 1.409 . S
C387 H379 0.930 . S
C387 C388 1.355 . S
C387 C389 1.415 . S
C388 C387 1.355 . S
C388 C390 1.419 . S
C389 C384 1.425 . S
C389 C386 1.409 . S
C389 C387 1.415 . S
C390 H380 0.930 . S
C390 C388 1.419 . S
C390 C391 1.362 . S
C391 H381 0.930 . S
C391 C384 1.409 . S
C391 C390 1.362 . S
H392 C398 0.930 . S
H393 C401 0.930 . S
H394 C402 0.930 . S
H395 C403 0.930 . S
H396 C406 0.930 . S
H397 C407 0.930 . S
C398 H392 0.930 . S
C398 C399 1.355 1_556 S
C398 C400 1.415 . S
C399 C398 1.355 1_554 S
C399 C401 1.419 . S
C400 C398 1.415 . S
C400 C405 1.425 1_556 S
C400 C407 1.409 . S
C401 H393 0.930 . S
C401 C399 1.419 . S
C401 C402 1.362 . S
C402 H394 0.930 . S
C402 C401 1.362 . S
C402 C405 1.409 . S
C403 H395 0.930 . S
C403 C404 1.355 1_554 S
C403 C405 1.415 . S
C404 C403 1.355 1_556 S
C404 C406 1.419 . S
C405 C400 1.425 1_554 S
C405 C402 1.409 . S
C405 C403 1.415 . S
C406 H396 0.930 . S
C406 C404 1.419 . S
C406 C407 1.362 . S
C407 H397 0.930 . S
C407 C400 1.409 . S
C407 C406 1.362 . S
H408 C414 0.930 . S
H409 C417 0.930 . S
H410 C418 0.930 . S
H411 C419 0.930 . S
H412 C422 0.930 . S
H413 C423 0.930 . S
C414 H408 0.930 . S
C414 C415 1.355 . S
C414 C416 1.415 . S
C415 C414 1.355 . S
C415 C417 1.419 . S
C416 C414 1.415 . S
C416 C421 1.425 . S
C416 C423 1.409 . S
C417 H409 0.930 . S
C417 C415 1.419 . S
C417 C418 1.362 . S
C418 H410 0.930 . S
C418 C417 1.362 . S
C418 C421 1.409 . S
C419 H411 0.930 . S
C419 C420 1.355 . S
C419 C421 1.415 . S
C420 C419 1.355 . S
C420 C422 1.419 . S
C421 C416 1.425 . S
C421 C418 1.409 . S
C421 C419 1.415 . S
C422 H412 0.930 . S
C422 C420 1.419 . S
C422 C423 1.362 . S
C423 H413 0.930 . S
C423 C416 1.409 . S
C423 C422 1.362 . S
H424 C430 0.930 . S
H425 C433 0.930 . S
H426 C434 0.930 . S
H427 C435 0.930 . S
H428 C438 0.930 . S
H429 C439 0.930 . S
C430 H424 0.930 . S
C430 C431 1.355 . S
C430 C432 1.415 . S
C431 C430 1.355 . S
C431 C433 1.419 . S
C432 C430 1.415 . S
C432 C437 1.425 . S
C432 C439 1.409 . S
C433 H425 0.930 . S
C433 C431 1.419 . S
C433 C434 1.362 . S
C434 H426 0.930 . S
C434 C433 1.362 . S
C434 C437 1.409 . S
C435 H427 0.930 . S
C435 C436 1.355 . S
C435 C437 1.415 . S
C436 C435 1.355 . S
C436 C438 1.419 . S
C437 C432 1.425 . S
C437 C434 1.409 . S
C437 C435 1.415 . S
C438 H428 0.930 . S
C438 C436 1.419 . S
C438 C439 1.362 . S
C439 H429 0.930 . S
C439 C432 1.409 . S
C439 C438 1.362 . S
H440 C446 0.930 . S
H441 C449 0.930 . S
H442 C450 0.930 . S
H443 C451 0.930 . S
H444 C454 0.930 . S
H445 C455 0.930 . S
C446 H440 0.930 . S
C446 C447 1.355 1_556 S
C446 C448 1.415 . S
C447 C446 1.355 1_554 S
C447 C449 1.419 . S
C448 C446 1.415 . S
C448 C453 1.425 1_556 S
C448 C455 1.409 . S
C449 H441 0.930 . S
C449 C447 1.419 . S
C449 C450 1.362 . S
C450 H442 0.930 . S
C450 C449 1.362 . S
C450 C453 1.409 . S
C451 H443 0.930 . S
C451 C452 1.355 1_554 S
C451 C453 1.415 . S
C452 C451 1.355 1_556 S
C452 C454 1.419 . S
C453 C448 1.425 1_554 S
C453 C450 1.409 . S
C453 C451 1.415 . S
C454 H444 0.930 . S
C454 C452 1.419 . S
C454 C455 1.362 . S
C455 H445 0.930 . S
C455 C448 1.409 . S
C455 C454 1.362 . S
H456 C462 0.930 . S
H457 C465 0.930 . S
H458 C466 0.930 . S
H459 C467 0.930 . S
H460 C470 0.930 . S
H461 C471 0.930 . S
C462 H456 0.930 . S
C462 C463 1.355 1_565 S
C462 C464 1.415 . S
C463 C462 1.355 1_545 S
C463 C465 1.419 . S
C464 C462 1.415 . S
C464 C469 1.425 1_565 S
C464 C471 1.409 . S
C465 H457 0.930 . S
C465 C463 1.419 . S
C465 C466 1.362 . S
C466 H458 0.930 . S
C466 C465 1.362 . S
C466 C469 1.409 . S
C467 H459 0.930 . S
C467 C468 1.355 1_545 S
C467 C469 1.415 . S
C468 C467 1.355 1_565 S
C468 C470 1.419 . S
C469 C464 1.425 1_545 S
C469 C466 1.409 . S
C469 C467 1.415 . S
C470 H460 0.930 . S
C470 C468 1.419 . S
C470 C471 1.362 . S
C471 H461 0.930 . S
C471 C464 1.409 . S
C471 C470 1.362 . S
H472 C478 0.930 . S
H473 C481 0.930 . S
H474 C482 0.930 . S
H475 C483 0.930 . S
H476 C486 0.930 . S
H477 C487 0.930 . S
C478 H472 0.930 . S
C478 C479 1.355 . S
C478 C480 1.415 . S
C479 C478 1.355 . S
C479 C481 1.419 . S
C480 C478 1.415 . S
C480 C485 1.425 . S
C480 C487 1.409 . S
C481 H473 0.930 . S
C481 C479 1.419 . S
C481 C482 1.362 . S
C482 H474 0.930 . S
C482 C481 1.362 . S
C482 C485 1.409 . S
C483 H475 0.930 . S
C483 C484 1.355 . S
C483 C485 1.415 . S
C484 C483 1.355 . S
C484 C486 1.419 . S
C485 C480 1.425 . S
C485 C482 1.409 . S
C485 C483 1.415 . S
C486 H476 0.930 . S
C486 C484 1.419 . S
C486 C487 1.362 . S
C487 H477 0.930 . S
C487 C480 1.409 . S
C487 C486 1.362 . S
H488 C494 0.930 . S
H489 C497 0.930 . S
H490 C498 0.930 . S
H491 C499 0.930 . S
H492 C502 0.930 . S
H493 C503 0.930 . S
C494 H488 0.930 . S
C494 C495 1.355 1_655 S
C494 C496 1.415 . S
C495 C494 1.355 1_455 S
C495 C497 1.419 . S
C496 C494 1.415 . S
C496 C501 1.425 1_655 S
C496 C503 1.409 . S
C497 H489 0.930 . S
C497 C495 1.419 . S
C497 C498 1.362 . S
C498 H490 0.930 . S
C498 C497 1.362 . S
C498 C501 1.409 . S
C499 H491 0.930 . S
C499 C500 1.355 1_455 S
C499 C501 1.415 . S
C500 C499 1.355 1_655 S
C500 C502 1.419 . S
C501 C496 1.425 1_455 S
C501 C498 1.409 . S
C501 C499 1.415 . S
C502 H492 0.930 . S
C502 C500 1.419 . S
C502 C503 1.362 . S
C503 H493 0.930 . S
C503 C496 1.409 . S
C503 C502 1.362 . S
H504 C510 0.930 . S
H505 C513 0.930 . S
H506 C514 0.930 . S
H507 C515 0.930 . S
H508 C518 0.930 . S
H509 C519 0.930 . S
C510 H504 0.930 . S
C510 C511 1.355 1_545 S
C510 C512 1.415 . S
C511 C510 1.355 1_565 S
C511 C513 1.419 . S
C512 C510 1.415 . S
C512 C517 1.425 1_545 S
C512 C519 1.409 . S
C513 H505 0.930 . S
C513 C511 1.419 . S
C513 C514 1.362 . S
C514 H506 0.930 . S
C514 C513 1.362 . S
C514 C517 1.409 . S
C515 H507 0.930 . S
C515 C516 1.355 1_565 S
C515 C517 1.415 . S
C516 C515 1.355 1_545 S
C516 C518 1.419 . S
C517 C512 1.425 1_565 S
C517 C514 1.409 . S
C517 C515 1.415 . S
C518 H508 0.930 . S
C518 C516 1.419 . S
C518 C519 1.362 . S
C519 H509 0.930 . S
C519 C512 1.409 . S
C519 C518 1.362 . S
H520 C526 0.930 . S
H521 C529 0.930 . S
H522 C530 0.930 . S
H523 C531 0.930 . S
H524 C534 0.930 . S
H525 C535 0.930 . S
C526 H520 0.930 . S
C526 C527 1.355 . S
C526 C528 1.415 . S
C527 C526 1.355 . S
C527 C529 1.419 . S
C528 C526 1.415 . S
C528 C533 1.425 . S
C528 C535 1.409 . S
C529 H521 0.930 . S
C529 C527 1.419 . S
C529 C530 1.362 . S
C530 H522 0.930 . S
C530 C529 1.362 . S
C530 C533 1.409 . S
C531 H523 0.930 . S
C531 C532 1.355 . S
C531 C533 1.415 . S
C532 C531 1.355 . S
C532 C534 1.419 . S
C533 C528 1.425 . S
C533 C530 1.409 . S
C533 C531 1.415 . S
C534 H524 0.930 . S
C534 C532 1.419 . S
C534 C535 1.362 . S
C535 H525 0.930 . S
C535 C528 1.409 . S
C535 C534 1.362 . S
H536 C542 0.930 . S
H537 C545 0.930 . S
H538 C546 0.930 . S
H539 C547 0.930 . S
H540 C550 0.930 . S
H541 C551 0.930 . S
C542 H536 0.930 . S
C542 C543 1.355 . S
C542 C544 1.415 . S
C543 C542 1.355 . S
C543 C545 1.419 1_655 S
C544 C542 1.415 . S
C544 C549 1.425 1_655 S
C544 C551 1.409 . S
C545 H537 0.930 . S
C545 C543 1.419 1_455 S
C545 C546 1.362 . S
C546 H538 0.930 . S
C546 C545 1.362 . S
C546 C549 1.409 . S
C547 H539 0.930 . S
C547 C548 1.355 . S
C547 C549 1.415 . S
C548 C547 1.355 . S
C548 C550 1.419 1_455 S
C549 C544 1.425 1_455 S
C549 C546 1.409 . S
C549 C547 1.415 . S
C550 H540 0.930 . S
C550 C548 1.419 1_655 S
C550 C551 1.362 . S
C551 H541 0.930 . S
C551 C544 1.409 . S
C551 C550 1.362 . S
C175 C6 1.646 . S
C180 C118 1.633 . S
C191 C20 1.619 . S
C196 C132 1.616 . S
C207 C146 1.650 . S
C212 C34 1.640 . S
C223 C160 1.619 . S
C228 C48 1.615 . S
C239 C90 1.647 . S
C244 C62 1.652 . S
C255 C104 1.615 . S
C260 C76 1.620 . S
C271 C7 1.706 . S
C276 C49 1.714 . S
C287 C63 1.720 . S
C292 C21 1.719 . S
C303 C77 1.676 . S
C308 C35 1.688 . S
C319 C91 1.647 . S
C324 C133 1.644 . S
C335 C147 1.645 . S
C340 C105 1.644 . S
C351 C119 1.643 . S
C356 C161 1.645 1_554 S
C367 C92 1.297 . S
C372 C8 1.307 . S
C383 C22 1.296 . S
C388 C106 1.286 . S
C399 C120 1.308 . S
C404 C36 1.294 . S
C415 C134 1.287 . S
C420 C50 1.306 . S
C431 C64 1.297 . S
C436 C148 1.307 . S
C447 C162 1.304 . S
C452 C78 1.302 . S
C463 C9 1.158 . S
C468 C107 1.102 . S
C479 C121 1.112 . S
C484 C23 1.160 . S
C495 C135 1.161 . S
C500 C37 1.119 . S
C511 C51 1.158 . S
C516 C149 1.103 . S
C527 C163 1.132 . S
C532 C65 1.159 . S
C543 C93 1.082 . S
C548 C79 1.086 . S
