# Generated by pormake.
# Topology uob, (4)-cn, num edge types: 1
# Building blocks:
#     Node 0, Type 0, BuildingBlock: NAWXER_clean_sbu_0, # of connection points: 4
#     Node 1, Type 0, BuildingBlock: NAWXER_clean_sbu_0, # of connection points: 4
#     Node 2, Type 0, BuildingBlock: NAWXER_clean_sbu_0, # of connection points: 4
#     Node 3, Type 0, BuildingBlock: NAWXER_clean_sbu_0, # of connection points: 4
#     Node 4, Type 0, BuildingBlock: NAWXER_clean_sbu_0, # of connection points: 4
#     Node 5, Type 0, BuildingBlock: NAWXER_clean_sbu_0, # of connection points: 4
#     Node 6, Type 0, BuildingBlock: NAWXER_clean_sbu_0, # of connection points: 4
#     Node 7, Type 0, BuildingBlock: NAWXER_clean_sbu_0, # of connection points: 4
#     Node 8, Type 0, BuildingBlock: NAWXER_clean_sbu_0, # of connection points: 4
#     Node 9, Type 0, BuildingBlock: NAWXER_clean_sbu_0, # of connection points: 4
#     Node 10, Type 0, BuildingBlock: NAWXER_clean_sbu_0, # of connection points: 4
#     Node 11, Type 0, BuildingBlock: NAWXER_clean_sbu_0, # of connection points: 4
#     Node 12, Type 0, BuildingBlock: NAWXER_clean_sbu_0, # of connection points: 4
#     Node 13, Type 0, BuildingBlock: NAWXER_clean_sbu_0, # of connection points: 4
#     Node 14, Type 0, BuildingBlock: NAWXER_clean_sbu_0, # of connection points: 4
#     Node 15, Type 0, BuildingBlock: NAWXER_clean_sbu_0, # of connection points: 4
#     Edge 16, Type (0, 0), BuildingBlock: CIFDUS_clean_linker_0, # of connection points: 2
#     Edge 17, Type (0, 0), BuildingBlock: CIFDUS_clean_linker_0, # of connection points: 2
#     Edge 18, Type (0, 0), BuildingBlock: CIFDUS_clean_linker_0, # of connection points: 2
#     Edge 19, Type (0, 0), BuildingBlock: CIFDUS_clean_linker_0, # of connection points: 2
#     Edge 20, Type (0, 0), BuildingBlock: CIFDUS_clean_linker_0, # of connection points: 2
#     Edge 21, Type (0, 0), BuildingBlock: CIFDUS_clean_linker_0, # of connection points: 2
#     Edge 22, Type (0, 0), BuildingBlock: CIFDUS_clean_linker_0, # of connection points: 2
#     Edge 23, Type (0, 0), BuildingBlock: CIFDUS_clean_linker_0, # of connection points: 2
#     Edge 24, Type (0, 0), BuildingBlock: CIFDUS_clean_linker_0, # of connection points: 2
#     Edge 25, Type (0, 0), BuildingBlock: CIFDUS_clean_linker_0, # of connection points: 2
#     Edge 26, Type (0, 0), BuildingBlock: CIFDUS_clean_linker_0, # of connection points: 2
#     Edge 27, Type (0, 0), BuildingBlock: CIFDUS_clean_linker_0, # of connection points: 2
#     Edge 28, Type (0, 0), BuildingBlock: CIFDUS_clean_linker_0, # of connection points: 2
#     Edge 29, Type (0, 0), BuildingBlock: CIFDUS_clean_linker_0, # of connection points: 2
#     Edge 30, Type (0, 0), BuildingBlock: CIFDUS_clean_linker_0, # of connection points: 2
#     Edge 31, Type (0, 0), BuildingBlock: CIFDUS_clean_linker_0, # of connection points: 2
#     Edge 32, Type (0, 0), BuildingBlock: CIFDUS_clean_linker_0, # of connection points: 2
#     Edge 33, Type (0, 0), BuildingBlock: CIFDUS_clean_linker_0, # of connection points: 2
#     Edge 34, Type (0, 0), BuildingBlock: CIFDUS_clean_linker_0, # of connection points: 2
#     Edge 35, Type (0, 0), BuildingBlock: CIFDUS_clean_linker_0, # of connection points: 2
#     Edge 36, Type (0, 0), BuildingBlock: CIFDUS_clean_linker_0, # of connection points: 2
#     Edge 37, Type (0, 0), BuildingBlock: CIFDUS_clean_linker_0, # of connection points: 2
#     Edge 38, Type (0, 0), BuildingBlock: CIFDUS_clean_linker_0, # of connection points: 2
#     Edge 39, Type (0, 0), BuildingBlock: CIFDUS_clean_linker_0, # of connection points: 2
#     Edge 40, Type (0, 0), BuildingBlock: CIFDUS_clean_linker_0, # of connection points: 2
#     Edge 41, Type (0, 0), BuildingBlock: CIFDUS_clean_linker_0, # of connection points: 2
#     Edge 42, Type (0, 0), BuildingBlock: CIFDUS_clean_linker_0, # of connection points: 2
#     Edge 43, Type (0, 0), BuildingBlock: CIFDUS_clean_linker_0, # of connection points: 2
#     Edge 44, Type (0, 0), BuildingBlock: CIFDUS_clean_linker_0, # of connection points: 2
#     Edge 45, Type (0, 0), BuildingBlock: CIFDUS_clean_linker_0, # of connection points: 2
#     Edge 46, Type (0, 0), BuildingBlock: CIFDUS_clean_linker_0, # of connection points: 2
#     Edge 47, Type (0, 0), BuildingBlock: CIFDUS_clean_linker_0, # of connection points: 2
# Relax obj value: 0.120
# Max RMSD: 0.245
# Mean RMSD: 0.245
data_MOF--net-uob--node1-NAWXER_clean_sbu_0--edge1-CIFDUS_clean_linker_0
_symmetry_space_group_name_H-M    P1
_symmetry_Int_Tables_number       1
_symmetry_cell_setting            triclinic
loop_
_symmetry_equiv_pos_as_xyz
'x, y, z'
_cell_length_a     45.719499
_cell_length_b     45.591335
_cell_length_c     24.892568
_cell_angle_alpha  89.997614
_cell_angle_beta   89.873887
_cell_angle_gamma 89.787463
loop_
_atom_site_label
_atom_site_type_symbol
_atom_site_fract_x
_atom_site_fract_y
_atom_site_fract_z
_atom_type_partial_charge
C0 C 0.1214 0.08603 0.37683 0.0
C1 C 0.13902 0.09827 0.1845 0.0
O2 O 0.1326 0.06299 0.35533 0.0
Zn3 Zn 0.14675 0.04907 0.27587 0.0
O4 O 0.11541 0.10816 0.34766 0.0
Zn5 Zn 0.13052 0.09185 0.28175 0.0
O6 O 0.09779 0.05867 0.26604 0.0
O7 O 0.12122 0.01643 0.26216 0.0
O8 O 0.12923 0.11651 0.21859 0.0
O9 O 0.14681 0.07263 0.20045 0.0
O10 O 0.18691 0.03992 0.29114 0.0
O11 O 0.17647 0.08664 0.30419 0.0
C12 C 0.09737 0.03072 0.25983 0.0
C13 C 0.19465 0.06513 0.30735 0.0
C14 C 0.9021 0.61915 0.6329 0.0
C15 C 0.89898 0.64444 0.44458 0.0
O16 O 0.92691 0.62815 0.61545 0.0
Zn17 Zn 0.94535 0.64359 0.54105 0.0
O18 O 0.88022 0.61804 0.60156 0.0
Zn19 Zn 0.90042 0.63319 0.54013 0.0
O20 O 0.9296 0.59702 0.52402 0.0
O21 O 0.97478 0.61355 0.52778 0.0
O22 O 0.87836 0.63657 0.47541 0.0
O23 O 0.92471 0.64834 0.46382 0.0
O24 O 0.95783 0.68241 0.56232 0.0
O25 O 0.90994 0.67736 0.56638 0.0
C26 C 0.95722 0.5923 0.52101 0.0
C27 C 0.93287 0.69296 0.57413 0.0
C28 C 0.39571 0.43149 0.88276 0.0
C29 C 0.37898 0.42134 0.68933 0.0
O30 O 0.3859 0.45536 0.8618 0.0
Zn31 Zn 0.37282 0.47023 0.78133 0.0
O32 O 0.39999 0.40915 0.85314 0.0
Zn33 Zn 0.38569 0.4268 0.78802 0.0
O34 O 0.42082 0.45815 0.77345 0.0
O35 O 0.39966 0.50159 0.76897 0.0
O36 O 0.38595 0.40222 0.724 0.0
O37 O 0.37303 0.44748 0.70518 0.0
O38 O 0.33343 0.48225 0.79335 0.0
O39 O 0.3401 0.43559 0.81245 0.0
C40 C 0.42273 0.48609 0.76741 0.0
C41 C 0.32363 0.45854 0.81283 0.0
C42 C 0.61164 0.90573 0.12767 0.0
C43 C 0.61587 0.88095 0.93966 0.0
O44 O 0.5869 0.89616 0.11097 0.0
Zn45 Zn 0.5689 0.88084 0.03542 0.0
O46 O 0.63318 0.90769 0.09561 0.0
Zn47 Zn 0.61309 0.89222 0.03513 0.0
O48 O 0.58304 0.92813 0.01984 0.0
O49 O 0.5386 0.90973 0.02232 0.0
O50 O 0.63582 0.8894 0.97119 0.0
O51 O 0.59001 0.87642 0.95804 0.0
O52 O 0.55667 0.84205 0.05568 0.0
O53 O 0.6044 0.84756 0.06207 0.0
C54 C 0.55524 0.93176 0.01663 0.0
C55 C 0.58148 0.83176 0.06891 0.0
C56 C 0.18831 0.45113 0.01664 0.0
C57 C 0.09034 0.48554 0.06337 0.0
O58 O 0.17038 0.4296 0.02052 0.0
Zn59 Zn 0.12451 0.4245 0.04303 0.0
O60 O 0.18033 0.47648 0.03215 0.0
Zn61 Zn 0.14022 0.4675 0.04834 0.0
O62 O 0.14046 0.4443 0.12392 0.0
O63 O 0.12327 0.40028 0.10654 0.0
O64 O 0.11397 0.50006 0.06135 0.0
O65 O 0.09133 0.45758 0.05766 0.0
O66 O 0.10978 0.40789 0.97733 0.0
O67 O 0.12644 0.45316 0.96944 0.0
C68 C 0.13288 0.41871 0.14025 0.0
C69 C 0.1156 0.43003 0.94813 0.0
C70 C 0.59519 0.61237 0.19106 0.0
C71 C 0.59932 0.63594 0.38012 0.0
O72 O 0.57044 0.62265 0.20721 0.0
Zn73 Zn 0.55282 0.63865 0.28422 0.0
O74 O 0.61647 0.61046 0.22356 0.0
Zn75 Zn 0.59626 0.62665 0.28325 0.0
O76 O 0.56516 0.59105 0.29829 0.0
O77 O 0.52156 0.61178 0.29652 0.0
O78 O 0.61927 0.6286 0.34746 0.0
O79 O 0.57344 0.64088 0.36234 0.0
O80 O 0.54054 0.67752 0.2676 0.0
O81 O 0.58779 0.67165 0.25474 0.0
C82 C 0.53717 0.5889 0.30169 0.0
C83 C 0.56467 0.68771 0.25106 0.0
C84 C 0.4033 0.09475 0.44619 0.0
C85 C 0.37703 0.09792 0.63383 0.0
O86 O 0.39632 0.06917 0.46354 0.0
Zn87 Zn 0.38254 0.05033 0.53995 0.0
O88 O 0.40287 0.1167 0.4776 0.0
Zn89 Zn 0.389 0.09551 0.53817 0.0
O90 O 0.4278 0.06957 0.55498 0.0
O91 O 0.41415 0.0233 0.55435 0.0
O92 O 0.38303 0.11849 0.60155 0.0
O93 O 0.37567 0.07149 0.61638 0.0
O94 O 0.34557 0.03364 0.52048 0.0
O95 O 0.34629 0.08148 0.50854 0.0
C96 C 0.43425 0.04225 0.55938 0.0
C97 C 0.33315 0.05676 0.50337 0.0
C98 C 0.91028 0.91012 0.69583 0.0
C99 C 0.89544 0.88464 0.88102 0.0
O100 O 0.93431 0.90148 0.71742 0.0
Zn101 Zn 0.94798 0.88597 0.79618 0.0
O102 O 0.88665 0.91004 0.72274 0.0
Zn103 Zn 0.90364 0.8949 0.78628 0.0
O104 O 0.93061 0.93239 0.80751 0.0
O105 O 0.97577 0.91579 0.81493 0.0
O106 O 0.877 0.89074 0.84486 0.0
O107 O 0.92255 0.8818 0.86855 0.0
O108 O 0.96351 0.84772 0.78024 0.0
O109 O 0.91686 0.85124 0.75959 0.0
C110 C 0.95785 0.93715 0.81635 0.0
C111 C 0.94088 0.83649 0.75935 0.0
C112 C 0.68769 0.56514 0.81504 0.0
C113 C 0.58917 0.53849 0.76489 0.0
O114 O 0.67193 0.58852 0.81173 0.0
Zn115 Zn 0.62723 0.5975 0.78292 0.0
O116 O 0.67734 0.54118 0.79794 0.0
Zn117 Zn 0.63876 0.55385 0.78176 0.0
O118 O 0.64094 0.57447 0.70364 0.0
O119 O 0.62932 0.62058 0.71849 0.0
O120 O 0.61189 0.52268 0.76975 0.0
O121 O 0.59147 0.56654 0.76825 0.0
O122 O 0.61117 0.61783 0.84261 0.0
O123 O 0.62285 0.57152 0.85887 0.0
C124 C 0.63627 0.60047 0.68582 0.0
C125 C 0.6128 0.59641 0.87506 0.0
C126 C 0.40898 0.10764 0.12929 0.0
C127 C 0.40465 0.13309 0.94131 0.0
O128 O 0.4336 0.11737 0.11217 0.0
Zn129 Zn 0.45142 0.13338 0.03701 0.0
O130 O 0.38727 0.10585 0.0977 0.0
Zn131 Zn 0.40719 0.12182 0.037 0.0
O132 O 0.43747 0.08614 0.02096 0.0
O133 O 0.48187 0.10467 0.0234 0.0
O134 O 0.38459 0.12473 0.97287 0.0
O135 O 0.43043 0.13771 0.95974 0.0
O136 O 0.46336 0.17212 0.05844 0.0
O137 O 0.41566 0.16627 0.0651 0.0
C138 C 0.46528 0.0826 0.01752 0.0
C139 C 0.4385 0.1821 0.07236 0.0
C140 C 0.93349 0.97081 0.25801 0.0
C141 C 0.83774 0.93773 0.31908 0.0
O142 O 0.93328 0.94311 0.26728 0.0
Zn143 Zn 0.90112 0.91052 0.29025 0.0
O144 O 0.90962 0.9851 0.26027 0.0
Zn145 Zn 0.88479 0.95281 0.28061 0.0
O146 O 0.90236 0.94178 0.35932 0.0
O147 O 0.91913 0.89625 0.35334 0.0
O148 O 0.84498 0.96227 0.2991 0.0
O149 O 0.85602 0.91626 0.3173 0.0
O150 O 0.90081 0.8831 0.23315 0.0
O151 O 0.88324 0.92612 0.20866 0.0
C152 C 0.91495 0.9194 0.38061 0.0
C153 C 0.89059 0.89965 0.19695 0.0
C154 C 0.03588 0.43541 0.52237 0.0
C155 C 0.05252 0.33238 0.56676 0.0
O156 O 0.0631 0.42951 0.52892 0.0
Zn157 Zn 0.08977 0.39115 0.54314 0.0
O158 O 0.01744 0.41462 0.52308 0.0
Zn159 Zn 0.04478 0.38294 0.53624 0.0
O160 O 0.06052 0.39377 0.61601 0.0
O161 O 0.10795 0.40268 0.6094 0.0
O162 O 0.0292 0.34439 0.54967 0.0
O163 O 0.07659 0.34682 0.56488 0.0
O164 O 0.11425 0.38871 0.4797 0.0
O165 O 0.0681 0.3796 0.46136 0.0
C166 C 0.08494 0.40059 0.63797 0.0
C167 C 0.09461 0.38281 0.44551 0.0
C168 C 0.69414 0.95154 0.50292 0.0
C169 C 0.59269 0.96768 0.5574 0.0
O170 O 0.68056 0.92707 0.50823 0.0
Zn171 Zn 0.63737 0.91379 0.53653 0.0
O172 O 0.68173 0.97501 0.51857 0.0
Zn173 Zn 0.64433 0.95901 0.5377 0.0
O174 O 0.65037 0.93798 0.61435 0.0
O175 O 0.64252 0.89096 0.60021 0.0
O176 O 0.61292 0.98647 0.55184 0.0
O177 O 0.59893 0.94029 0.55328 0.0
O178 O 0.62348 0.89274 0.47582 0.0
O179 O 0.63047 0.94019 0.46172 0.0
C180 C 0.64853 0.91165 0.6322 0.0
C181 C 0.62318 0.9147 0.44443 0.0
C182 C 0.06586 0.19119 0.75667 0.0
C183 C 0.0412 0.09048 0.80557 0.0
O184 O 0.08874 0.17488 0.76033 0.0
Zn185 Zn 0.09827 0.12973 0.78209 0.0
O186 O 0.04128 0.18119 0.77181 0.0
Zn187 Zn 0.05379 0.14165 0.78785 0.0
O188 O 0.07714 0.14361 0.8632 0.0
O189 O 0.1226 0.13061 0.84553 0.0
O190 O 0.02407 0.11242 0.80224 0.0
O191 O 0.06876 0.09425 0.79909 0.0
O192 O 0.11545 0.11585 0.71572 0.0
O193 O 0.0689 0.12853 0.70902 0.0
C194 C 0.10326 0.13823 0.87946 0.0
C195 C 0.09268 0.11942 0.68714 0.0
C196 C 0.9248 0.54295 0.06141 0.0
C197 C 0.82768 0.57569 0.00668 0.0
O198 O 0.92343 0.57101 0.05781 0.0
Zn199 Zn 0.88973 0.60347 0.0418 0.0
O200 O 0.90157 0.5281 0.05576 0.0
Zn201 Zn 0.87519 0.56026 0.04168 0.0
O202 O 0.89167 0.57717 0.96593 0.0
O203 O 0.90661 0.62254 0.98137 0.0
O204 O 0.83619 0.55027 0.02068 0.0
O205 O 0.84476 0.59769 0.01371 0.0
O206 O 0.88766 0.62666 0.10529 0.0
O207 O 0.87085 0.58201 0.11832 0.0
C208 C 0.90286 0.60129 0.94917 0.0
C209 C 0.87692 0.60761 0.13655 0.0
C210 C 0.42869 0.3953 0.19094 0.0
C211 C 0.41855 0.37995 0.3849 0.0
O212 O 0.45228 0.38509 0.21201 0.0
Zn213 Zn 0.46701 0.37223 0.29246 0.0
O214 O 0.40647 0.40012 0.22053 0.0
Zn215 Zn 0.42383 0.38592 0.28604 0.0
O216 O 0.4557 0.42064 0.29923 0.0
O217 O 0.49875 0.3989 0.30378 0.0
O218 O 0.39953 0.38724 0.35037 0.0
O219 O 0.44442 0.3733 0.36883 0.0
O220 O 0.47809 0.33229 0.28122 0.0
O221 O 0.43152 0.3398 0.26359 0.0
C222 C 0.48359 0.42227 0.30485 0.0
C223 C 0.45401 0.32273 0.26323 0.0
H224 H 0.30453 0.10017 0.4478 0.0
H225 H 0.30052 1.00779 0.48551 0.0
H226 H 0.25912 1.00205 0.42511 0.0
H227 H 0.22422 0.02279 0.36099 0.0
H228 H 0.22595 0.11535 0.32568 0.0
H229 H 0.2683 0.12135 0.38489 0.0
C230 C 0.29439 0.07884 0.44332 0.0
C231 C 0.30574 0.05448 0.47149 0.0
C232 C 0.27046 0.07559 0.40815 0.0
C233 C 0.29233 0.02699 0.46469 0.0
C234 C 0.2687 0.02361 0.42981 0.0
C235 C 0.23412 0.04423 0.36552 0.0
C236 C 0.22222 0.0685 0.33815 0.0
C237 C 0.25778 0.04765 0.40093 0.0
C238 C 0.23488 0.09625 0.34575 0.0
C239 C 0.25898 0.09971 0.37991 0.0
H240 H 0.89911 0.80941 0.69848 0.0
H241 H 0.98839 0.80021 0.75226 0.0
H242 H 0.99434 0.75642 0.69708 0.0
H243 H 0.97449 0.72068 0.63305 0.0
H244 H 0.88483 0.72858 0.58134 0.0
H245 H 0.87894 0.77303 0.63541 0.0
C246 C 0.91978 0.79769 0.69858 0.0
C247 C 0.94321 0.80819 0.72979 0.0
C248 C 0.92317 0.77244 0.66642 0.0
C249 C 0.9699 0.7927 0.72894 0.0
C250 C 0.97341 0.76767 0.6971 0.0
C251 C 0.95377 0.73234 0.63302 0.0
C252 C 0.93024 0.72147 0.60264 0.0
C253 C 0.9503 0.75747 0.66533 0.0
C254 C 0.90336 0.73656 0.60404 0.0
C255 C 0.89993 0.76191 0.63519 0.0
H256 H 0.30063 0.41656 0.8802 0.0
H257 H 0.28372 0.50284 0.8153 0.0
H258 H 0.24215 0.50871 0.87538 0.0
H259 H 0.21132 0.49049 0.94821 0.0
H260 H 0.22486 0.40328 0.01017 0.0
H261 H 0.26718 0.39681 0.95022 0.0
C262 C 0.28755 0.43643 0.87855 0.0
C263 C 0.29552 0.45924 0.84313 0.0
C264 C 0.26341 0.43979 0.91359 0.0
C265 C 0.27829 0.48489 0.84198 0.0
C266 C 0.25454 0.48841 0.87667 0.0
C267 C 0.22381 0.47021 0.94921 0.0
C268 C 0.21548 0.44768 0.98458 0.0
C269 C 0.24722 0.46627 0.91325 0.0
C270 C 0.2312 0.42113 0.98397 0.0
C271 C 0.25524 0.41738 0.9494 0.0
H272 H 0.53869 0.80543 0.12629 0.0
H273 H 0.62903 0.79523 0.07978 0.0
H274 H 0.63255 0.7503 0.13369 0.0
H275 H 0.60952 0.71363 0.19426 0.0
H276 H 0.51962 0.72647 0.24294 0.0
H277 H 0.51663 0.77068 0.1888 0.0
C278 C 0.5591 0.79323 0.12739 0.0
C279 C 0.58342 0.80344 0.0983 0.0
C280 C 0.56117 0.76799 0.15958 0.0
C281 C 0.60988 0.7877 0.10137 0.0
C282 C 0.61193 0.76207 0.13241 0.0
C283 C 0.58941 0.7263 0.19352 0.0
C284 C 0.56483 0.71651 0.22277 0.0
C285 C 0.58772 0.75203 0.16197 0.0
C286 C 0.53892 0.73327 0.22098 0.0
C287 C 0.53708 0.75859 0.18974 0.0
H288 H 0.71306 0.60873 0.87592 0.0
H289 H 0.72621 0.51984 0.82045 0.0
H290 H 0.76921 0.51507 0.87678 0.0
H291 H 0.80242 0.535 0.94372 0.0
H292 H 0.79245 0.62444 0.99691 0.0
H293 H 0.74886 0.63 0.94021 0.0
C294 C 0.72559 0.58849 0.8756 0.0
C295 C 0.71615 0.56466 0.84396 0.0
C296 C 0.75064 0.58576 0.90845 0.0
C297 C 0.73271 0.53856 0.84435 0.0
C298 C 0.75733 0.53569 0.87683 0.0
C299 C 0.79054 0.55565 0.94345 0.0
C300 C 0.8003 0.57907 0.97535 0.0
C301 C 0.76622 0.55892 0.90964 0.0
C302 C 0.78515 0.60594 0.97322 0.0
C303 C 0.76032 0.60915 0.9406 0.0
H304 H 0.41019 0.29896 0.20144 0.0
H305 H 0.49738 0.28174 0.26035 0.0
H306 H 0.50066 0.2381 0.20449 0.0
H307 H 0.47985 0.20548 0.13674 0.0
H308 H 0.39195 0.22009 0.0803 0.0
H309 H 0.38803 0.26412 0.13664 0.0
C310 C 0.42972 0.28541 0.2027 0.0
C311 C 0.45351 0.29385 0.23521 0.0
C312 C 0.43159 0.2601 0.17008 0.0
C313 C 0.47869 0.27598 0.23589 0.0
C314 C 0.48071 0.25101 0.20363 0.0
C315 C 0.45993 0.21847 0.13626 0.0
C316 C 0.43644 0.20984 0.10351 0.0
C317 C 0.45753 0.24313 0.16994 0.0
C318 C 0.41049 0.22647 0.10463 0.0
C319 C 0.4082 0.25156 0.13707 0.0
H320 H 0.80657 0.98156 0.36574 0.0
H321 H 0.80752 0.88771 0.3443 0.0
H322 H 0.7638 0.88337 0.4009 0.0
H323 H 0.7252 0.90648 0.45667 0.0
H324 H 0.72633 1.0003 0.48053 0.0
H325 H 0.7695 1.00426 0.4236 0.0
C326 C 0.79704 0.96016 0.3729 0.0
C327 C 0.81007 0.93504 0.35008 0.0
C328 C 0.77245 0.95777 0.40662 0.0
C329 C 0.79779 0.90743 0.36094 0.0
C330 C 0.77286 0.90493 0.39352 0.0
C331 C 0.73505 0.92776 0.4499 0.0
C332 C 0.72237 0.95304 0.47308 0.0
C333 C 0.76006 0.92996 0.41683 0.0
C334 C 0.73551 0.98042 0.46353 0.0
C335 C 0.76018 0.98277 0.43063 0.0
H336 H 0.09596 0.30546 0.62387 0.0
H337 H 1.00547 0.29596 0.57797 0.0
H338 H 1.0011 0.25294 0.63575 0.0
H339 H 0.02265 0.21827 0.70037 0.0
H340 H 0.11346 0.22662 0.74413 0.0
H341 H 0.11783 0.27009 0.68702 0.0
C342 C 0.07536 0.29379 0.62588 0.0
C343 C 0.05112 0.304 0.59622 0.0
C344 C 0.07288 0.26913 0.6597 0.0
C345 C 0.02456 0.28862 0.59996 0.0
C346 C 0.02196 0.26409 0.63337 0.0
C347 C 0.04328 0.22988 0.69809 0.0
C348 C 0.06758 0.21946 0.7272 0.0
C349 C 0.04586 0.25434 0.6639 0.0
C350 C 0.09435 0.23434 0.72262 0.0
C351 C 0.09691 0.25909 0.68966 0.0
H352 H 0.04295 0.05473 0.24898 0.0
H353 H 0.08825 0.97154 0.25537 0.0
H354 H 0.04166 0.94572 0.25143 0.0
H355 H 0.988 0.9467 0.2521 0.0
H356 H 0.94255 0.02981 0.24637 0.0
H357 H 0.98924 0.0556 0.24354 0.0
C358 C 0.04268 0.03095 0.24912 0.0
C359 C 0.06914 0.01516 0.25293 0.0
C360 C 0.01575 0.01617 0.24706 0.0
C361 C 0.06829 0.98432 0.25267 0.0
C362 C 0.04162 0.96949 0.2505 0.0
C363 C 0.98824 0.97044 0.24966 0.0
C364 C 0.96171 0.98624 0.24983 0.0
C365 C 0.01519 0.98519 0.24855 0.0
C366 C 0.96256 0.01703 0.24642 0.0
C367 C 0.9893 0.03184 0.24499 0.0
H368 H 0.01381 0.57243 0.52299 0.0
H369 H 0.92475 0.54335 0.50244 0.0
H370 H 0.94125 0.49257 0.49843 0.0
H371 H 0.98049 0.45597 0.50604 0.0
H372 H 0.06958 0.48472 0.52707 0.0
H373 H 0.05353 0.53579 0.52527 0.0
C374 C 0.99804 0.55502 0.51708 0.0
C375 C 0.96806 0.56182 0.5134 0.0
C376 C 0.00764 0.52565 0.51519 0.0
C377 C 0.94797 0.53888 0.50569 0.0
C378 C 0.95736 0.50973 0.50346 0.0
C379 C 0.99644 0.47338 0.50985 0.0
C380 C 0.02617 0.46639 0.51704 0.0
C381 C 0.98707 0.5028 0.50904 0.0
C382 C 0.04652 0.48935 0.52164 0.0
C383 C 0.03737 0.51864 0.5207 0.0
H384 H 0.4761 0.45962 0.76001 0.0
H385 H 0.43441 0.54474 0.76126 0.0
H386 H 0.4821 0.56848 0.75756 0.0
H387 H 0.53576 0.56519 0.75888 0.0
H388 H 0.57732 0.47998 0.75809 0.0
H389 H 0.52963 0.45632 0.75632 0.0
C390 C 0.47741 0.48336 0.75913 0.0
C391 C 0.45166 0.50031 0.76129 0.0
C392 C 0.50493 0.49693 0.75721 0.0
C393 C 0.45383 0.53108 0.75982 0.0
C394 C 0.48113 0.54473 0.75777 0.0
C395 C 0.53441 0.54145 0.75783 0.0
C396 C 0.56015 0.52445 0.75896 0.0
C397 C 0.50684 0.52789 0.75718 0.0
C398 C 0.55792 0.49368 0.75746 0.0
C399 C 0.53062 0.48007 0.75654 0.0
H400 H 0.49772 0.94778 0.00916 0.0
H401 H 0.58505 0.98346 0.00996 0.0
H402 H 0.5651 0.03311 0.00732 0.0
H403 H 0.52286 0.06665 0.0102 0.0
H404 H 0.43553 0.03094 0.00973 0.0
H405 H 0.4555 0.98132 0.00647 0.0
C406 C 0.51241 0.96638 0.00829 0.0
C407 C 0.54287 0.96176 0.0101 0.0
C408 C 0.5008 0.99502 0.00706 0.0
C409 C 0.56152 0.98624 0.00874 0.0
C410 C 0.55013 0.01473 0.00735 0.0
C411 C 0.50817 0.04804 0.0089 0.0
C412 C 0.47771 0.05266 0.01056 0.0
C413 C 0.5198 0.01942 0.00732 0.0
C414 C 0.45907 0.02818 0.00866 0.0
C415 C 0.47047 0.9997 0.00691 0.0
H416 H 0.03628 0.46078 0.06969 0.0
H417 H 0.07984 0.54463 0.06962 0.0
H418 H 0.03256 0.56973 0.0721 0.0
H419 H 0.9788 0.56796 0.06924 0.0
H420 H 0.93541 0.48401 0.06835 0.0
H421 H 0.98264 0.459 0.07165 0.0
C422 C 0.0355 0.48455 0.0706 0.0
C423 C 0.06168 0.50074 0.06915 0.0
C424 C 0.00821 0.49889 0.07169 0.0
C425 C 0.06012 0.53155 0.07058 0.0
C426 C 0.03305 0.54596 0.0719 0.0
C427 C 0.97962 0.54419 0.07026 0.0
C428 C 0.95348 0.52795 0.06827 0.0
C429 C 1.00694 0.52987 0.07172 0.0
C430 C 0.95509 0.49714 0.06969 0.0
C431 C 0.98214 0.48277 0.07147 0.0
H432 H 0.45771 0.47608 0.31077 0.0
H433 H 0.54224 0.43357 0.30983 0.0
H434 H 0.56631 0.48125 0.31159 0.0
H435 H 0.56343 0.53513 0.30866 0.0
H436 H 0.47876 0.57741 0.30913 0.0
H437 H 0.45484 0.52978 0.31261 0.0
C438 C 0.4814 0.47719 0.31129 0.0
C439 C 0.49808 0.45121 0.30982 0.0
C440 C 0.49515 0.50471 0.31207 0.0
C441 C 0.52879 0.45316 0.31079 0.0
C442 C 0.54262 0.48046 0.31172 0.0
C443 C 0.53976 0.53395 0.30998 0.0
C444 C 0.52299 0.5599 0.30831 0.0
C445 C 0.52603 0.5064 0.31165 0.0
C446 C 0.49229 0.55787 0.31016 0.0
C447 C 0.47853 0.5306 0.31207 0.0
H448 H 0.45587 0.98655 0.56774 0.0
H449 H 0.48248 0.0773 0.56575 0.0
H450 H 0.53374 0.06236 0.56816 0.0
H451 H 0.5712 0.02354 0.56498 0.0
H452 H 0.54449 0.9328 0.56622 0.0
H453 H 0.4933 0.94779 0.57029 0.0
C454 C 0.47285 1.00309 0.56834 0.0
C455 C 0.46521 0.03301 0.5662 0.0
C456 C 0.50239 0.99437 0.56932 0.0
C457 C 0.48761 0.0541 0.5672 0.0
C458 C 0.51701 0.04559 0.56846 0.0
C459 C 0.55421 1.00702 0.56663 0.0
C460 C 0.5618 0.97708 0.56491 0.0
C461 C 0.52468 0.01578 0.56862 0.0
C462 C 0.5394 0.95602 0.56728 0.0
C463 C 0.51004 0.96456 0.56952 0.0
H464 H 0.98413 0.07302 0.81352 0.0
H465 H 0.07281 0.04017 0.81797 0.0
H466 H 0.05485 0.99018 0.82616 0.0
H467 H 0.01423 0.95537 0.82603 0.0
H468 H 0.92543 0.98768 0.81984 0.0
H469 H 0.9432 0.03811 0.81906 0.0
C470 C 0.99952 0.05496 0.81673 0.0
C471 C 0.02979 0.06045 0.81464 0.0
C472 C 0.98905 0.02605 0.82105 0.0
C473 C 0.0494 0.0367 0.81906 0.0
C474 C 0.03916 1.00801 0.82378 0.0
C475 C 0.99871 0.97341 0.82518 0.0
C476 C 0.96854 0.96764 0.82268 0.0
C477 C 0.00906 1.00238 0.82394 0.0
C478 C 0.94879 0.99139 0.82163 0.0
C479 C 0.95894 0.0203 0.82099 0.0
H480 H 0.12813 0.08271 0.63002 0.0
H481 H 0.05926 0.14691 0.61257 0.0
H482 H 0.06168 0.1422 0.51501 0.0
H483 H 0.08431 0.12082 0.43424 0.0
H484 H 0.15114 0.05446 0.45163 0.0
H485 H 0.14845 0.05886 0.54924 0.0
C486 C 0.11365 0.09557 0.60475 0.0
C487 C 0.09367 0.1152 0.62836 0.0
C488 C 0.11475 0.09235 0.54861 0.0
C489 C 0.07476 0.13153 0.5953 0.0
C490 C 0.07618 0.12894 0.53949 0.0
C491 C 0.09815 0.10725 0.45948 0.0
C492 C 0.11793 0.08746 0.43579 0.0
C493 C 0.0962 0.10955 0.51566 0.0
C494 C 0.13558 0.06978 0.46892 0.0
C495 C 0.13418 0.07236 0.52477 0.0
H496 H 0.93601 0.63774 0.71406 0.0
H497 H 0.8615 0.58319 0.67898 0.0
H498 H 0.85684 0.57085 0.77435 0.0
H499 H 0.87297 0.57717 0.86759 0.0
H500 H 0.94489 0.635 0.9029 0.0
H501 H 0.95188 0.64432 0.80689 0.0
C502 C 0.91889 0.62296 0.72725 0.0
C503 C 0.89918 0.61124 0.68982 0.0
C504 C 0.91599 0.61657 0.78188 0.0
C505 C 0.87683 0.5925 0.70732 0.0
C506 C 0.87423 0.5854 0.76167 0.0
C507 C 0.89042 0.59148 0.85406 0.0
C508 C 0.90861 0.60522 0.89173 0.0
C509 C 0.89359 0.59747 0.79925 0.0
C510 C 0.93073 0.6242 0.87425 0.0
C511 C 0.93467 0.62954 0.81957 0.0
H512 H 0.39391 0.4337 0.13655 0.0
H513 H 0.45996 0.36706 0.1135 0.0
H514 H 0.45585 0.37236 0.01611 0.0
H515 H 0.4324 0.39495 0.93719 0.0
H516 H 0.36856 0.46373 0.96027 0.0
H517 H 0.37298 0.45872 0.05765 0.0
C518 C 0.40744 0.42042 0.11014 0.0
C519 C 0.42708 0.39991 0.13216 0.0
C520 C 0.40536 0.42397 0.05413 0.0
C521 C 0.44474 0.38309 0.09752 0.0
C522 C 0.44234 0.38603 0.04181 0.0
C523 C 0.41957 0.40891 0.96361 0.0
C524 C 0.4001 0.42957 0.94157 0.0
C525 C 0.42257 0.40625 0.01963 0.0
C526 C 0.38383 0.44774 0.97624 0.0
C527 C 0.38623 0.4448 0.03195 0.0
H528 H 0.64518 0.94513 0.36124 0.0
H529 H 0.58571 0.87512 0.40085 0.0
H530 H 0.57524 0.86766 0.30542 0.0
H531 H 0.5846 0.87988 0.21104 0.0
H532 H 0.64758 0.94671 0.17128 0.0
H533 H 0.65513 0.95681 0.26685 0.0
C534 C 0.62971 0.92846 0.34885 0.0
C535 C 0.61602 0.9108 0.38754 0.0
C536 C 0.62458 0.92374 0.29418 0.0
C537 C 0.59646 0.88889 0.3714 0.0
C538 C 0.59048 0.88467 0.31704 0.0
C539 C 0.59973 0.89686 0.22344 0.0
C540 C 0.61538 0.91273 0.18468 0.0
C541 C 0.60461 0.9018 0.27813 0.0
C542 C 0.63536 0.93427 0.2008 0.0
C543 C 0.63964 0.94003 0.25523 0.0
H544 H 0.12227 0.43449 0.69535 0.0
H545 H 0.05051 0.37399 0.71206 0.0
H546 H 0.05355 0.37748 0.80979 0.0
H547 H 0.07732 0.39704 0.89078 0.0
H548 H 0.14698 0.45996 0.87382 0.0
H549 H 0.144 0.45634 0.77619 0.0
C550 C 0.10731 0.42216 0.72051 0.0
C551 C 0.08631 0.40397 0.69676 0.0
C552 C 0.10878 0.42471 0.77663 0.0
C553 C 0.06679 0.3883 0.72959 0.0
C554 C 0.06856 0.39018 0.78543 0.0
C555 C 0.09173 0.40999 0.86559 0.0
C556 C 0.11234 0.42865 0.88931 0.0
C557 C 0.08956 0.40822 0.80943 0.0
C558 C 0.13076 0.44556 0.85638 0.0
C559 C 0.12919 0.44342 0.80057 0.0
H560 H 0.5678 0.6347 0.10387 0.0
H561 H 0.63255 0.57099 0.15219 0.0
H562 H 0.64204 0.5586 0.0582 0.0
H563 H 0.63388 0.5679 0.96219 0.0
H564 H 0.57224 0.63467 0.91393 0.0
H565 H 0.55944 0.64381 0.00785 0.0
C566 C 0.58372 0.61787 0.0937 0.0
C567 C 0.5994 0.6037 0.13462 0.0
C568 C 0.58971 0.61155 0.03963 0.0
C569 C 0.6203 0.58225 0.12115 0.0
C570 C 0.62572 0.57515 0.06751 0.0
C571 C 0.61742 0.5842 0.97234 0.0
C572 C 0.60395 0.60054 0.93145 0.0
C573 C 0.61084 0.58995 0.0264 0.0
C574 C 0.58296 0.62191 0.94493 0.0
C575 C 0.57562 0.62712 0.99853 0.0
H576 H 0.37863 0.06614 0.36363 0.0
H577 H 0.44149 0.13329 0.40156 0.0
H578 H 0.45014 0.14182 0.30573 0.0
H579 H 0.43826 0.13146 0.21183 0.0
H580 H 0.37202 0.06763 0.17387 0.0
H581 H 0.36608 0.05639 0.26949 0.0
C582 C 0.39446 0.08238 0.35073 0.0
C583 C 0.40967 0.09891 0.38904 0.0
C584 C 0.3985 0.0878 0.2959 0.0
C585 C 0.42965 0.12035 0.37236 0.0
C586 C 0.43455 0.1252 0.31779 0.0
C587 C 0.42273 0.11489 0.22456 0.0
C588 C 0.40573 0.10018 0.18628 0.0
C589 C 0.41889 0.10924 0.27931 0.0
C590 C 0.38528 0.07918 0.20297 0.0
C591 C 0.38194 0.07275 0.25744 0.0
H592 H 0.94819 0.89292 0.61915 0.0
H593 H 0.87132 0.94621 0.646 0.0
H594 H 0.86856 0.95714 0.54998 0.0
H595 H 0.88535 0.94771 0.45817 0.0
H596 H 0.95905 0.89026 0.43074 0.0
H597 H 0.96611 0.88504 0.52768 0.0
C598 C 0.9311 0.90726 0.604 0.0
C599 C 0.90993 0.9187 0.63914 0.0
C600 C 0.92911 0.9126 0.54887 0.0
C601 C 0.88769 0.937 0.61929 0.0
C602 C 0.88615 0.94328 0.56458 0.0
C603 C 0.90329 0.93454 0.47358 0.0
C604 C 0.92173 0.91942 0.43796 0.0
C605 C 0.90637 0.93067 0.52896 0.0
C606 C 0.94461 0.902 0.45789 0.0
C607 C 0.94858 0.89898 0.51309 0.0
H608 H 0.14468 0.10587 0.93104 0.0
H609 H 0.07565 0.16876 0.95926 0.0
H610 H 0.08263 0.164 0.0563 0.0
H611 H 0.10579 0.13921 0.1332 0.0
H612 H 0.17173 0.07307 0.10481 0.0
H613 H 0.16867 0.08192 0.00804 0.0
C614 C 0.1315 0.11891 0.95842 0.0
C615 C 0.10978 0.1378 0.93788 0.0
C616 C 0.13494 0.11526 0.01426 0.0
C617 C 0.09253 0.15411 0.97398 0.0
C618 C 0.09648 0.15134 0.0295 0.0
C619 C 0.1198 0.12703 0.10589 0.0
C620 C 0.13906 0.10557 0.12631 0.0
C621 C 0.11724 0.13158 0.05013 0.0
C622 C 0.15672 0.08968 0.09023 0.0
C623 C 0.15495 0.09472 0.03485 0.0
H624 H 0.86033 0.61252 0.38747 0.0
H625 H 0.92828 0.67728 0.37062 0.0
H626 H 0.92501 0.67369 0.27272 0.0
H627 H 0.90599 0.64896 0.19277 0.0
H628 H 0.8417 0.58053 0.21003 0.0
H629 H 0.84023 0.58878 0.30716 0.0
C630 C 0.87401 0.62626 0.3623 0.0
C631 C 0.89439 0.64528 0.38602 0.0
C632 C 0.87285 0.62316 0.30629 0.0
C633 C 0.91241 0.66253 0.35311 0.0
C634 C 0.91059 0.66041 0.29724 0.0
C635 C 0.89133 0.63614 0.21769 0.0
C636 C 0.87393 0.61419 0.19436 0.0
C637 C 0.89137 0.64032 0.27349 0.0
C638 C 0.85535 0.59748 0.22717 0.0
C639 C 0.85452 0.60219 0.28263 0.0
H640 H 0.41227 0.37977 0.63924 0.0
H641 H 0.34902 0.448 0.60786 0.0
H642 H 0.35374 0.43939 0.51117 0.0
H643 H 0.37802 0.41448 0.43507 0.0
H644 H 0.4446 0.3495 0.46643 0.0
H645 H 0.43635 0.35466 0.56316 0.0
C646 C 0.39922 0.39247 0.61126 0.0
C647 C 0.38013 0.41437 0.63091 0.0
C648 C 0.4028 0.38807 0.55552 0.0
C649 C 0.36382 0.431 0.59394 0.0
C650 C 0.36655 0.4261 0.53858 0.0
C651 C 0.39044 0.40115 0.46306 0.0
C652 C 0.41177 0.38144 0.4434 0.0
C653 C 0.38626 0.40497 0.51882 0.0
C654 C 0.42804 0.36478 0.48037 0.0
C655 C 0.42335 0.36775 0.53575 0.0
H656 H 0.61787 0.87113 0.68742 0.0
H657 H 0.68087 0.94043 0.70725 0.0
H658 H 0.67859 0.93448 0.80496 0.0
H659 H 0.65567 0.9124 0.88429 0.0
H660 H 0.58846 0.84715 0.86458 0.0
H661 H 0.59542 0.84849 0.76699 0.0
C662 C 0.63148 0.88454 0.71319 0.0
C663 C 0.64972 0.90601 0.69043 0.0
C664 C 0.62906 0.88185 0.76916 0.0
C665 C 0.66676 0.92373 0.72407 0.0
C666 C 0.66539 0.92037 0.7798 0.0
C667 C 0.64287 0.89813 0.85866 0.0
C668 C 0.62171 0.87955 0.88143 0.0
C669 C 0.64619 0.8999 0.80275 0.0
C670 C 0.60488 0.8616 0.84782 0.0
C671 C 0.60884 0.8624 0.79213 0.0
H672 H 0.13737 0.41301 0.39372 0.0
H673 H 0.06652 0.35266 0.36654 0.0
H674 H 0.07426 0.35614 0.26947 0.0
H675 H 0.09855 0.37931 0.19222 0.0
H676 H 0.16616 0.44332 0.21922 0.0
H677 H 0.16249 0.43536 0.31624 0.0
C678 C 0.12397 0.40025 0.36653 0.0
C679 C 0.1015 0.38246 0.38729 0.0
C680 C 0.12784 0.40322 0.31067 0.0
C681 C 0.08395 0.36648 0.35155 0.0
C682 C 0.08834 0.36851 0.29605 0.0
C683 C 0.11281 0.39118 0.2193 0.0
C684 C 0.13271 0.41179 0.19849 0.0
C685 C 0.10984 0.38724 0.27511 0.0
C686 C 0.15066 0.42735 0.23419 0.0
C687 C 0.14854 0.42283 0.28968 0.0
H688 H 0.60309 0.64054 0.63344 0.0
H689 H 0.66757 0.57274 0.60711 0.0
H690 H 0.6637 0.5799 0.50985 0.0
H691 H 0.63974 0.60327 0.4325 0.0
H692 H 0.57153 0.66732 0.4588 0.0
H693 H 0.57913 0.66395 0.55601 0.0
C694 C 0.6166 0.62763 0.60639 0.0
C695 C 0.63581 0.60631 0.62736 0.0
C696 C 0.61342 0.63111 0.55061 0.0
C697 C 0.65271 0.58931 0.59188 0.0
C698 C 0.65046 0.59339 0.53634 0.0
C699 C 0.62682 0.6168 0.4595 0.0
C700 C 0.60526 0.63572 0.43855 0.0
C701 C 0.63058 0.61392 0.51526 0.0
C702 C 0.58828 0.65266 0.47401 0.0
C703 C 0.59261 0.6507 0.52953 0.0
H704 H 0.4054 0.14017 0.68877 0.0
H705 H 0.34507 0.0685 0.70903 0.0
H706 H 0.34576 0.07567 0.80654 0.0
H707 H 0.36663 0.09964 0.8859 0.0
H708 H 0.43137 0.16736 0.86595 0.0
H709 H 0.42575 0.16465 0.76821 0.0
C710 C 0.39203 0.12645 0.71454 0.0
C711 C 0.37502 0.10398 0.69194 0.0
C712 C 0.39352 0.12992 0.77049 0.0
C713 C 0.35827 0.08595 0.72568 0.0
C714 C 0.35871 0.09003 0.78132 0.0
C715 C 0.37913 0.11416 0.86014 0.0
C716 C 0.39922 0.13386 0.88292 0.0
C717 C 0.37668 0.11157 0.80417 0.0
C718 C 0.41575 0.1521 0.84918 0.0
C719 C 0.41257 0.1505 0.79341 0.0
H720 H 0.8563 0.91851 0.11454 0.0
H721 H 0.92593 0.85807 0.15358 0.0
H722 H 0.93209 0.84595 0.05891 0.0
H723 H 0.9212 0.85644 0.96432 0.0
H724 H 0.84993 0.91477 0.92496 0.0
H725 H 0.84057 0.92341 0.02027 0.0
C726 C 0.8725 0.90241 0.10224 0.0
C727 C 0.89086 0.88952 0.14075 0.0
C728 C 0.87572 0.89522 0.04769 0.0
C729 C 0.91153 0.86834 0.12458 0.0
C730 C 0.91518 0.86147 0.07043 0.0
C731 C 0.90332 0.87062 0.97675 0.0
C732 C 0.88653 0.8852 0.9379 0.0
C733 C 0.89792 0.87534 0.03154 0.0
C734 C 0.86316 0.90326 0.95428 0.0
C735 C 0.85792 0.9084 0.00874 0.0
loop_
_geom_bond_atom_site_label_1
_geom_bond_atom_site_label_2
_geom_bond_distance
_geom_bond_site_symmetry_2
_ccdc_geom_bond_type
C0 O2 1.247 . S
C0 O4 1.258 . S
C1 O8 1.247 . S
C1 O9 1.258 . S
O2 C0 1.247 . S
O2 Zn3 2.028 . S
Zn3 O2 2.028 . S
Zn3 O7 2.035 . S
Zn3 O9 2.035 . S
Zn3 O10 2.028 . S
O4 C0 1.258 . S
O4 Zn5 2.035 . S
Zn5 O4 2.035 . S
Zn5 O6 2.028 . S
Zn5 O8 2.028 . S
Zn5 O11 2.035 . S
O6 Zn5 2.028 . S
O6 C12 1.247 . S
O7 Zn3 2.035 . S
O7 C12 1.258 . S
O8 C1 1.247 . S
O8 Zn5 2.028 . S
O9 C1 1.258 . S
O9 Zn3 2.035 . S
O10 Zn3 2.028 . S
O10 C13 1.247 . S
O11 Zn5 2.035 . S
O11 C13 1.258 . S
C12 O6 1.247 . S
C12 O7 1.258 . S
C13 O10 1.247 . S
C13 O11 1.258 . S
C14 O16 1.247 . S
C14 O18 1.258 . S
C15 O22 1.247 . S
C15 O23 1.258 . S
O16 C14 1.247 . S
O16 Zn17 2.028 . S
Zn17 O16 2.028 . S
Zn17 O21 2.035 . S
Zn17 O23 2.035 . S
Zn17 O24 2.028 . S
O18 C14 1.258 . S
O18 Zn19 2.035 . S
Zn19 O18 2.035 . S
Zn19 O20 2.028 . S
Zn19 O22 2.028 . S
Zn19 O25 2.035 . S
O20 Zn19 2.028 . S
O20 C26 1.247 . S
O21 Zn17 2.035 . S
O21 C26 1.258 . S
O22 C15 1.247 . S
O22 Zn19 2.028 . S
O23 C15 1.258 . S
O23 Zn17 2.035 . S
O24 Zn17 2.028 . S
O24 C27 1.247 . S
O25 Zn19 2.035 . S
O25 C27 1.258 . S
C26 O20 1.247 . S
C26 O21 1.258 . S
C27 O24 1.247 . S
C27 O25 1.258 . S
C28 O30 1.247 . S
C28 O32 1.258 . S
C29 O36 1.247 . S
C29 O37 1.258 . S
O30 C28 1.247 . S
O30 Zn31 2.028 . S
Zn31 O30 2.028 . S
Zn31 O35 2.035 . S
Zn31 O37 2.035 . S
Zn31 O38 2.028 . S
O32 C28 1.258 . S
O32 Zn33 2.035 . S
Zn33 O32 2.035 . S
Zn33 O34 2.028 . S
Zn33 O36 2.028 . S
Zn33 O39 2.035 . S
O34 Zn33 2.028 . S
O34 C40 1.247 . S
O35 Zn31 2.035 . S
O35 C40 1.258 . S
O36 C29 1.247 . S
O36 Zn33 2.028 . S
O37 C29 1.258 . S
O37 Zn31 2.035 . S
O38 Zn31 2.028 . S
O38 C41 1.247 . S
O39 Zn33 2.035 . S
O39 C41 1.258 . S
C40 O34 1.247 . S
C40 O35 1.258 . S
C41 O38 1.247 . S
C41 O39 1.258 . S
C42 O44 1.247 . S
C42 O46 1.258 . S
C43 O50 1.247 . S
C43 O51 1.258 . S
O44 C42 1.247 . S
O44 Zn45 2.028 . S
Zn45 O44 2.028 . S
Zn45 O49 2.035 . S
Zn45 O51 2.035 1_554 S
Zn45 O52 2.028 . S
O46 C42 1.258 . S
O46 Zn47 2.035 . S
Zn47 O46 2.035 . S
Zn47 O48 2.028 . S
Zn47 O50 2.028 1_554 S
Zn47 O53 2.035 . S
O48 Zn47 2.028 . S
O48 C54 1.247 . S
O49 Zn45 2.035 . S
O49 C54 1.258 . S
O50 C43 1.247 . S
O50 Zn47 2.028 1_556 S
O51 C43 1.258 . S
O51 Zn45 2.035 1_556 S
O52 Zn45 2.028 . S
O52 C55 1.247 . S
O53 Zn47 2.035 . S
O53 C55 1.258 . S
C54 O48 1.247 . S
C54 O49 1.258 . S
C55 O52 1.247 . S
C55 O53 1.258 . S
C56 O58 1.247 . S
C56 O60 1.258 . S
C57 O64 1.247 . S
C57 O65 1.258 . S
O58 C56 1.247 . S
O58 Zn59 2.028 . S
Zn59 O58 2.028 . S
Zn59 O63 2.035 . S
Zn59 O65 2.035 . S
Zn59 O66 2.028 1_554 S
O60 C56 1.258 . S
O60 Zn61 2.035 . S
Zn61 O60 2.035 . S
Zn61 O62 2.028 . S
Zn61 O64 2.028 . S
Zn61 O67 2.035 1_554 S
O62 Zn61 2.028 . S
O62 C68 1.247 . S
O63 Zn59 2.035 . S
O63 C68 1.258 . S
O64 C57 1.247 . S
O64 Zn61 2.028 . S
O65 C57 1.258 . S
O65 Zn59 2.035 . S
O66 Zn59 2.028 1_556 S
O66 C69 1.247 . S
O67 Zn61 2.035 1_556 S
O67 C69 1.258 . S
C68 O62 1.247 . S
C68 O63 1.258 . S
C69 O66 1.247 . S
C69 O67 1.258 . S
C70 O72 1.247 . S
C70 O74 1.258 . S
C71 O78 1.247 . S
C71 O79 1.258 . S
O72 C70 1.247 . S
O72 Zn73 2.028 . S
Zn73 O72 2.028 . S
Zn73 O77 2.035 . S
Zn73 O79 2.035 . S
Zn73 O80 2.028 . S
O74 C70 1.258 . S
O74 Zn75 2.035 . S
Zn75 O74 2.035 . S
Zn75 O76 2.028 . S
Zn75 O78 2.028 . S
Zn75 O81 2.035 . S
O76 Zn75 2.028 . S
O76 C82 1.247 . S
O77 Zn73 2.035 . S
O77 C82 1.258 . S
O78 C71 1.247 . S
O78 Zn75 2.028 . S
O79 C71 1.258 . S
O79 Zn73 2.035 . S
O80 Zn73 2.028 . S
O80 C83 1.247 . S
O81 Zn75 2.035 . S
O81 C83 1.258 . S
C82 O76 1.247 . S
C82 O77 1.258 . S
C83 O80 1.247 . S
C83 O81 1.258 . S
C84 O86 1.247 . S
C84 O88 1.258 . S
C85 O92 1.247 . S
C85 O93 1.258 . S
O86 C84 1.247 . S
O86 Zn87 2.028 . S
Zn87 O86 2.028 . S
Zn87 O91 2.035 . S
Zn87 O93 2.035 . S
Zn87 O94 2.028 . S
O88 C84 1.258 . S
O88 Zn89 2.035 . S
Zn89 O88 2.035 . S
Zn89 O90 2.028 . S
Zn89 O92 2.028 . S
Zn89 O95 2.035 . S
O90 Zn89 2.028 . S
O90 C96 1.247 . S
O91 Zn87 2.035 . S
O91 C96 1.258 . S
O92 C85 1.247 . S
O92 Zn89 2.028 . S
O93 C85 1.258 . S
O93 Zn87 2.035 . S
O94 Zn87 2.028 . S
O94 C97 1.247 . S
O95 Zn89 2.035 . S
O95 C97 1.258 . S
C96 O90 1.247 . S
C96 O91 1.258 . S
C97 O94 1.247 . S
C97 O95 1.258 . S
C98 O100 1.247 . S
C98 O102 1.258 . S
C99 O106 1.247 . S
C99 O107 1.258 . S
O100 C98 1.247 . S
O100 Zn101 2.028 . S
Zn101 O100 2.028 . S
Zn101 O105 2.035 . S
Zn101 O107 2.035 . S
Zn101 O108 2.028 . S
O102 C98 1.258 . S
O102 Zn103 2.035 . S
Zn103 O102 2.035 . S
Zn103 O104 2.028 . S
Zn103 O106 2.028 . S
Zn103 O109 2.035 . S
O104 Zn103 2.028 . S
O104 C110 1.247 . S
O105 Zn101 2.035 . S
O105 C110 1.258 . S
O106 C99 1.247 . S
O106 Zn103 2.028 . S
O107 C99 1.258 . S
O107 Zn101 2.035 . S
O108 Zn101 2.028 . S
O108 C111 1.247 . S
O109 Zn103 2.035 . S
O109 C111 1.258 . S
C110 O104 1.247 . S
C110 O105 1.258 . S
C111 O108 1.247 . S
C111 O109 1.258 . S
C112 O114 1.247 . S
C112 O116 1.258 . S
C113 O120 1.247 . S
C113 O121 1.258 . S
O114 C112 1.247 . S
O114 Zn115 2.028 . S
Zn115 O114 2.028 . S
Zn115 O119 2.035 . S
Zn115 O121 2.035 . S
Zn115 O122 2.028 . S
O116 C112 1.258 . S
O116 Zn117 2.035 . S
Zn117 O116 2.035 . S
Zn117 O118 2.028 . S
Zn117 O120 2.028 . S
Zn117 O123 2.035 . S
O118 Zn117 2.028 . S
O118 C124 1.247 . S
O119 Zn115 2.035 . S
O119 C124 1.258 . S
O120 C113 1.247 . S
O120 Zn117 2.028 . S
O121 C113 1.258 . S
O121 Zn115 2.035 . S
O122 Zn115 2.028 . S
O122 C125 1.247 . S
O123 Zn117 2.035 . S
O123 C125 1.258 . S
C124 O118 1.247 . S
C124 O119 1.258 . S
C125 O122 1.247 . S
C125 O123 1.258 . S
C126 O128 1.247 . S
C126 O130 1.258 . S
C127 O134 1.247 . S
C127 O135 1.258 . S
O128 C126 1.247 . S
O128 Zn129 2.028 . S
Zn129 O128 2.028 . S
Zn129 O133 2.035 . S
Zn129 O135 2.035 1_554 S
Zn129 O136 2.028 . S
O130 C126 1.258 . S
O130 Zn131 2.035 . S
Zn131 O130 2.035 . S
Zn131 O132 2.028 . S
Zn131 O134 2.028 1_554 S
Zn131 O137 2.035 . S
O132 Zn131 2.028 . S
O132 C138 1.247 . S
O133 Zn129 2.035 . S
O133 C138 1.258 . S
O134 C127 1.247 . S
O134 Zn131 2.028 1_556 S
O135 C127 1.258 . S
O135 Zn129 2.035 1_556 S
O136 Zn129 2.028 . S
O136 C139 1.247 . S
O137 Zn131 2.035 . S
O137 C139 1.258 . S
C138 O132 1.247 . S
C138 O133 1.258 . S
C139 O136 1.247 . S
C139 O137 1.258 . S
C140 O142 1.247 . S
C140 O144 1.258 . S
C141 O148 1.247 . S
C141 O149 1.258 . S
O142 C140 1.247 . S
O142 Zn143 2.028 . S
Zn143 O142 2.028 . S
Zn143 O147 2.035 . S
Zn143 O149 2.035 . S
Zn143 O150 2.028 . S
O144 C140 1.258 . S
O144 Zn145 2.035 . S
Zn145 O144 2.035 . S
Zn145 O146 2.028 . S
Zn145 O148 2.028 . S
Zn145 O151 2.035 . S
O146 Zn145 2.028 . S
O146 C152 1.247 . S
O147 Zn143 2.035 . S
O147 C152 1.258 . S
O148 C141 1.247 . S
O148 Zn145 2.028 . S
O149 C141 1.258 . S
O149 Zn143 2.035 . S
O150 Zn143 2.028 . S
O150 C153 1.247 . S
O151 Zn145 2.035 . S
O151 C153 1.258 . S
C152 O146 1.247 . S
C152 O147 1.258 . S
C153 O150 1.247 . S
C153 O151 1.258 . S
C154 O156 1.247 . S
C154 O158 1.258 . S
C155 O162 1.247 . S
C155 O163 1.258 . S
O156 C154 1.247 . S
O156 Zn157 2.028 . S
Zn157 O156 2.028 . S
Zn157 O161 2.035 . S
Zn157 O163 2.035 . S
Zn157 O164 2.028 . S
O158 C154 1.258 . S
O158 Zn159 2.035 . S
Zn159 O158 2.035 . S
Zn159 O160 2.028 . S
Zn159 O162 2.028 . S
Zn159 O165 2.035 . S
O160 Zn159 2.028 . S
O160 C166 1.247 . S
O161 Zn157 2.035 . S
O161 C166 1.258 . S
O162 C155 1.247 . S
O162 Zn159 2.028 . S
O163 C155 1.258 . S
O163 Zn157 2.035 . S
O164 Zn157 2.028 . S
O164 C167 1.247 . S
O165 Zn159 2.035 . S
O165 C167 1.258 . S
C166 O160 1.247 . S
C166 O161 1.258 . S
C167 O164 1.247 . S
C167 O165 1.258 . S
C168 O170 1.247 . S
C168 O172 1.258 . S
C169 O176 1.247 . S
C169 O177 1.258 . S
O170 C168 1.247 . S
O170 Zn171 2.028 . S
Zn171 O170 2.028 . S
Zn171 O175 2.035 . S
Zn171 O177 2.035 . S
Zn171 O178 2.028 . S
O172 C168 1.258 . S
O172 Zn173 2.035 . S
Zn173 O172 2.035 . S
Zn173 O174 2.028 . S
Zn173 O176 2.028 . S
Zn173 O179 2.035 . S
O174 Zn173 2.028 . S
O174 C180 1.247 . S
O175 Zn171 2.035 . S
O175 C180 1.258 . S
O176 C169 1.247 . S
O176 Zn173 2.028 . S
O177 C169 1.258 . S
O177 Zn171 2.035 . S
O178 Zn171 2.028 . S
O178 C181 1.247 . S
O179 Zn173 2.035 . S
O179 C181 1.258 . S
C180 O174 1.247 . S
C180 O175 1.258 . S
C181 O178 1.247 . S
C181 O179 1.258 . S
C182 O184 1.247 . S
C182 O186 1.258 . S
C183 O190 1.247 . S
C183 O191 1.258 . S
O184 C182 1.247 . S
O184 Zn185 2.028 . S
Zn185 O184 2.028 . S
Zn185 O189 2.035 . S
Zn185 O191 2.035 . S
Zn185 O192 2.028 . S
O186 C182 1.258 . S
O186 Zn187 2.035 . S
Zn187 O186 2.035 . S
Zn187 O188 2.028 . S
Zn187 O190 2.028 . S
Zn187 O193 2.035 . S
O188 Zn187 2.028 . S
O188 C194 1.247 . S
O189 Zn185 2.035 . S
O189 C194 1.258 . S
O190 C183 1.247 . S
O190 Zn187 2.028 . S
O191 C183 1.258 . S
O191 Zn185 2.035 . S
O192 Zn185 2.028 . S
O192 C195 1.247 . S
O193 Zn187 2.035 . S
O193 C195 1.258 . S
C194 O188 1.247 . S
C194 O189 1.258 . S
C195 O192 1.247 . S
C195 O193 1.258 . S
C196 O198 1.247 . S
C196 O200 1.258 . S
C197 O204 1.247 . S
C197 O205 1.258 . S
O198 C196 1.247 . S
O198 Zn199 2.028 . S
Zn199 O198 2.028 . S
Zn199 O203 2.035 1_554 S
Zn199 O205 2.035 . S
Zn199 O206 2.028 . S
O200 C196 1.258 . S
O200 Zn201 2.035 . S
Zn201 O200 2.035 . S
Zn201 O202 2.028 1_554 S
Zn201 O204 2.028 . S
Zn201 O207 2.035 . S
O202 Zn201 2.028 1_556 S
O202 C208 1.247 . S
O203 Zn199 2.035 1_556 S
O203 C208 1.258 . S
O204 C197 1.247 . S
O204 Zn201 2.028 . S
O205 C197 1.258 . S
O205 Zn199 2.035 . S
O206 Zn199 2.028 . S
O206 C209 1.247 . S
O207 Zn201 2.035 . S
O207 C209 1.258 . S
C208 O202 1.247 . S
C208 O203 1.258 . S
C209 O206 1.247 . S
C209 O207 1.258 . S
C210 O212 1.247 . S
C210 O214 1.258 . S
C211 O218 1.247 . S
C211 O219 1.258 . S
O212 C210 1.247 . S
O212 Zn213 2.028 . S
Zn213 O212 2.028 . S
Zn213 O217 2.035 . S
Zn213 O219 2.035 . S
Zn213 O220 2.028 . S
O214 C210 1.258 . S
O214 Zn215 2.035 . S
Zn215 O214 2.035 . S
Zn215 O216 2.028 . S
Zn215 O218 2.028 . S
Zn215 O221 2.035 . S
O216 Zn215 2.028 . S
O216 C222 1.247 . S
O217 Zn213 2.035 . S
O217 C222 1.258 . S
O218 C211 1.247 . S
O218 Zn215 2.028 . S
O219 C211 1.258 . S
O219 Zn213 2.035 . S
O220 Zn213 2.028 . S
O220 C223 1.247 . S
O221 Zn215 2.035 . S
O221 C223 1.258 . S
C222 O216 1.247 . S
C222 O217 1.258 . S
C223 O220 1.247 . S
C223 O221 1.258 . S
H224 C230 0.930 . S
H225 C233 0.930 . S
H226 C234 0.930 . S
H227 C235 0.930 . S
H228 C238 0.930 . S
H229 C239 0.930 . S
C230 H224 0.930 . S
C230 C231 1.355 . S
C230 C232 1.415 . S
C231 C230 1.355 . S
C231 C233 1.419 . S
C232 C230 1.415 . S
C232 C237 1.425 . S
C232 C239 1.409 . S
C233 H225 0.930 . S
C233 C231 1.419 . S
C233 C234 1.362 . S
C234 H226 0.930 . S
C234 C233 1.362 . S
C234 C237 1.409 . S
C235 H227 0.930 . S
C235 C236 1.355 . S
C235 C237 1.415 . S
C236 C235 1.355 . S
C236 C238 1.419 . S
C237 C232 1.425 . S
C237 C234 1.409 . S
C237 C235 1.415 . S
C238 H228 0.930 . S
C238 C236 1.419 . S
C238 C239 1.362 . S
C239 H229 0.930 . S
C239 C232 1.409 . S
C239 C238 1.362 . S
H240 C246 0.930 . S
H241 C249 0.930 . S
H242 C250 0.930 . S
H243 C251 0.930 . S
H244 C254 0.930 . S
H245 C255 0.930 . S
C246 H240 0.930 . S
C246 C247 1.355 . S
C246 C248 1.415 . S
C247 C246 1.355 . S
C247 C249 1.419 . S
C248 C246 1.415 . S
C248 C253 1.425 . S
C248 C255 1.409 . S
C249 H241 0.930 . S
C249 C247 1.419 . S
C249 C250 1.362 . S
C250 H242 0.930 . S
C250 C249 1.362 . S
C250 C253 1.409 . S
C251 H243 0.930 . S
C251 C252 1.355 . S
C251 C253 1.415 . S
C252 C251 1.355 . S
C252 C254 1.419 . S
C253 C248 1.425 . S
C253 C250 1.409 . S
C253 C251 1.415 . S
C254 H244 0.930 . S
C254 C252 1.419 . S
C254 C255 1.362 . S
C255 H245 0.930 . S
C255 C248 1.409 . S
C255 C254 1.362 . S
H256 C262 0.930 . S
H257 C265 0.930 . S
H258 C266 0.930 . S
H259 C267 0.930 1_554 S
H260 C270 0.930 . S
H261 C271 0.930 . S
C262 H256 0.930 . S
C262 C263 1.355 . S
C262 C264 1.415 . S
C263 C262 1.355 . S
C263 C265 1.419 . S
C264 C262 1.415 . S
C264 C269 1.425 . S
C264 C271 1.409 . S
C265 H257 0.930 . S
C265 C263 1.419 . S
C265 C266 1.362 . S
C266 H258 0.930 . S
C266 C265 1.362 . S
C266 C269 1.409 . S
C267 H259 0.930 1_556 S
C267 C268 1.355 . S
C267 C269 1.415 . S
C268 C267 1.355 . S
C268 C270 1.419 . S
C269 C264 1.425 . S
C269 C266 1.409 . S
C269 C267 1.415 . S
C270 H260 0.930 . S
C270 C268 1.419 . S
C270 C271 1.362 . S
C271 H261 0.930 . S
C271 C264 1.409 . S
C271 C270 1.362 . S
H272 C278 0.930 . S
H273 C281 0.930 . S
H274 C282 0.930 . S
H275 C283 0.930 . S
H276 C286 0.930 . S
H277 C287 0.930 . S
C278 H272 0.930 . S
C278 C279 1.355 . S
C278 C280 1.415 . S
C279 C278 1.355 . S
C279 C281 1.419 . S
C280 C278 1.415 . S
C280 C285 1.425 . S
C280 C287 1.409 . S
C281 H273 0.930 . S
C281 C279 1.419 . S
C281 C282 1.362 . S
C282 H274 0.930 . S
C282 C281 1.362 . S
C282 C285 1.409 . S
C283 H275 0.930 . S
C283 C284 1.355 . S
C283 C285 1.415 . S
C284 C283 1.355 . S
C284 C286 1.419 . S
C285 C280 1.425 . S
C285 C282 1.409 . S
C285 C283 1.415 . S
C286 H276 0.930 . S
C286 C284 1.419 . S
C286 C287 1.362 . S
C287 H277 0.930 . S
C287 C280 1.409 . S
C287 C286 1.362 . S
H288 C294 0.930 . S
H289 C297 0.930 . S
H290 C298 0.930 . S
H291 C299 0.930 1_554 S
H292 C302 0.930 . S
H293 C303 0.930 . S
C294 H288 0.930 . S
C294 C295 1.355 . S
C294 C296 1.415 . S
C295 C294 1.355 . S
C295 C297 1.419 . S
C296 C294 1.415 . S
C296 C301 1.425 . S
C296 C303 1.409 . S
C297 H289 0.930 . S
C297 C295 1.419 . S
C297 C298 1.362 . S
C298 H290 0.930 . S
C298 C297 1.362 . S
C298 C301 1.409 . S
C299 H291 0.930 1_556 S
C299 C300 1.355 . S
C299 C301 1.415 . S
C300 C299 1.355 . S
C300 C302 1.419 . S
C301 C296 1.425 . S
C301 C298 1.409 . S
C301 C299 1.415 . S
C302 H292 0.930 . S
C302 C300 1.419 . S
C302 C303 1.362 . S
C303 H293 0.930 . S
C303 C296 1.409 . S
C303 C302 1.362 . S
H304 C310 0.930 . S
H305 C313 0.930 . S
H306 C314 0.930 . S
H307 C315 0.930 . S
H308 C318 0.930 . S
H309 C319 0.930 . S
C310 H304 0.930 . S
C310 C311 1.355 . S
C310 C312 1.415 . S
C311 C310 1.355 . S
C311 C313 1.419 . S
C312 C310 1.415 . S
C312 C317 1.425 . S
C312 C319 1.409 . S
C313 H305 0.930 . S
C313 C311 1.419 . S
C313 C314 1.362 . S
C314 H306 0.930 . S
C314 C313 1.362 . S
C314 C317 1.409 . S
C315 H307 0.930 . S
C315 C316 1.355 . S
C315 C317 1.415 . S
C316 C315 1.355 . S
C316 C318 1.419 . S
C317 C312 1.425 . S
C317 C314 1.409 . S
C317 C315 1.415 . S
C318 H308 0.930 . S
C318 C316 1.419 . S
C318 C319 1.362 . S
C319 H309 0.930 . S
C319 C312 1.409 . S
C319 C318 1.362 . S
H320 C326 0.930 . S
H321 C329 0.930 . S
H322 C330 0.930 . S
H323 C331 0.930 . S
H324 C334 0.930 . S
H325 C335 0.930 . S
C326 H320 0.930 . S
C326 C327 1.355 . S
C326 C328 1.415 . S
C327 C326 1.355 . S
C327 C329 1.419 . S
C328 C326 1.415 . S
C328 C333 1.425 . S
C328 C335 1.409 . S
C329 H321 0.930 . S
C329 C327 1.419 . S
C329 C330 1.362 . S
C330 H322 0.930 . S
C330 C329 1.362 . S
C330 C333 1.409 . S
C331 H323 0.930 . S
C331 C332 1.355 . S
C331 C333 1.415 . S
C332 C331 1.355 . S
C332 C334 1.419 . S
C333 C328 1.425 . S
C333 C330 1.409 . S
C333 C331 1.415 . S
C334 H324 0.930 . S
C334 C332 1.419 . S
C334 C335 1.362 . S
C335 H325 0.930 . S
C335 C328 1.409 . S
C335 C334 1.362 . S
H336 C342 0.930 . S
H337 C345 0.930 . S
H338 C346 0.930 . S
H339 C347 0.930 . S
H340 C350 0.930 . S
H341 C351 0.930 . S
C342 H336 0.930 . S
C342 C343 1.355 . S
C342 C344 1.415 . S
C343 C342 1.355 . S
C343 C345 1.419 . S
C344 C342 1.415 . S
C344 C349 1.425 . S
C344 C351 1.409 . S
C345 H337 0.930 . S
C345 C343 1.419 . S
C345 C346 1.362 . S
C346 H338 0.930 . S
C346 C345 1.362 . S
C346 C349 1.409 . S
C347 H339 0.930 . S
C347 C348 1.355 . S
C347 C349 1.415 . S
C348 C347 1.355 . S
C348 C350 1.419 . S
C349 C344 1.425 . S
C349 C346 1.409 . S
C349 C347 1.415 . S
C350 H340 0.930 . S
C350 C348 1.419 . S
C350 C351 1.362 . S
C351 H341 0.930 . S
C351 C344 1.409 . S
C351 C350 1.362 . S
H352 C358 0.930 1_655 S
H353 C361 0.930 . S
H354 C362 0.930 . S
H355 C363 0.930 1_455 S
H356 C366 0.930 . S
H357 C367 0.930 . S
C358 H352 0.930 1_455 S
C358 C359 1.355 . S
C358 C360 1.415 1_455 S
C359 C358 1.355 . S
C359 C361 1.419 . S
C360 C358 1.415 1_655 S
C360 C365 1.425 1_645 S
C360 C367 1.409 . S
C361 H353 0.930 . S
C361 C359 1.419 . S
C361 C362 1.362 1_545 S
C362 H354 0.930 . S
C362 C361 1.362 1_565 S
C362 C365 1.409 . S
C363 H355 0.930 1_655 S
C363 C364 1.355 . S
C363 C365 1.415 1_655 S
C364 C363 1.355 . S
C364 C366 1.419 . S
C365 C360 1.425 1_465 S
C365 C362 1.409 . S
C365 C363 1.415 1_455 S
C366 H356 0.930 . S
C366 C364 1.419 . S
C366 C367 1.362 1_565 S
C367 H357 0.930 . S
C367 C360 1.409 . S
C367 C366 1.362 1_545 S
H368 C374 0.930 . S
H369 C377 0.930 . S
H370 C378 0.930 . S
H371 C379 0.930 . S
H372 C382 0.930 . S
H373 C383 0.930 . S
C374 H368 0.930 . S
C374 C375 1.355 . S
C374 C376 1.415 1_655 S
C375 C374 1.355 . S
C375 C377 1.419 . S
C376 C374 1.415 1_455 S
C376 C381 1.425 1_455 S
C376 C383 1.409 . S
C377 H369 0.930 . S
C377 C375 1.419 . S
C377 C378 1.362 . S
C378 H370 0.930 . S
C378 C377 1.362 . S
C378 C381 1.409 . S
C379 H371 0.930 . S
C379 C380 1.355 . S
C379 C381 1.415 1_455 S
C380 C379 1.355 . S
C380 C382 1.419 . S
C381 C376 1.425 1_655 S
C381 C378 1.409 . S
C381 C379 1.415 1_655 S
C382 H372 0.930 . S
C382 C380 1.419 . S
C382 C383 1.362 . S
C383 H373 0.930 . S
C383 C376 1.409 . S
C383 C382 1.362 . S
H384 C390 0.930 . S
H385 C393 0.930 . S
H386 C394 0.930 . S
H387 C395 0.930 . S
H388 C398 0.930 . S
H389 C399 0.930 . S
C390 H384 0.930 . S
C390 C391 1.355 . S
C390 C392 1.415 . S
C391 C390 1.355 . S
C391 C393 1.419 . S
C392 C390 1.415 . S
C392 C397 1.425 . S
C392 C399 1.409 . S
C393 H385 0.930 . S
C393 C391 1.419 . S
C393 C394 1.362 . S
C394 H386 0.930 . S
C394 C393 1.362 . S
C394 C397 1.409 . S
C395 H387 0.930 . S
C395 C396 1.355 . S
C395 C397 1.415 . S
C396 C395 1.355 . S
C396 C398 1.419 . S
C397 C392 1.425 . S
C397 C394 1.409 . S
C397 C395 1.415 . S
C398 H388 0.930 . S
C398 C396 1.419 . S
C398 C399 1.362 . S
C399 H389 0.930 . S
C399 C392 1.409 . S
C399 C398 1.362 . S
H400 C406 0.930 . S
H401 C409 0.930 1_545 S
H402 C410 0.930 . S
H403 C411 0.930 . S
H404 C414 0.930 1_565 S
H405 C415 0.930 . S
C406 H400 0.930 . S
C406 C407 1.355 . S
C406 C408 1.415 . S
C407 C406 1.355 . S
C407 C409 1.420 . S
C408 C406 1.415 . S
C408 C413 1.425 1_565 S
C408 C415 1.409 . S
C409 H401 0.930 1_565 S
C409 C407 1.420 . S
C409 C410 1.361 1_565 S
C410 H402 0.930 . S
C410 C409 1.361 1_545 S
C410 C413 1.409 . S
C411 H403 0.930 . S
C411 C412 1.355 . S
C411 C413 1.415 . S
C412 C411 1.355 . S
C412 C414 1.420 . S
C413 C408 1.425 1_545 S
C413 C410 1.409 . S
C413 C411 1.415 . S
C414 H404 0.930 1_545 S
C414 C412 1.420 . S
C414 C415 1.361 1_545 S
C415 H405 0.930 . S
C415 C408 1.409 . S
C415 C414 1.361 1_565 S
H416 C422 0.930 1_655 S
H417 C425 0.930 . S
H418 C426 0.930 . S
H419 C427 0.930 1_455 S
H420 C430 0.930 . S
H421 C431 0.930 . S
C422 H416 0.930 1_455 S
C422 C423 1.355 . S
C422 C424 1.415 1_455 S
C423 C422 1.355 . S
C423 C425 1.419 . S
C424 C422 1.415 1_655 S
C424 C429 1.425 1_655 S
C424 C431 1.409 . S
C425 H417 0.930 . S
C425 C423 1.419 . S
C425 C426 1.362 . S
C426 H418 0.930 . S
C426 C425 1.362 . S
C426 C429 1.409 . S
C427 H419 0.930 1_655 S
C427 C428 1.355 . S
C427 C429 1.415 1_655 S
C428 C427 1.355 . S
C428 C430 1.419 . S
C429 C424 1.425 1_455 S
C429 C426 1.409 . S
C429 C427 1.415 1_455 S
C430 H420 0.930 . S
C430 C428 1.419 . S
C430 C431 1.362 . S
C431 H421 0.930 . S
C431 C424 1.409 . S
C431 C430 1.362 . S
H432 C438 0.930 . S
H433 C441 0.930 . S
H434 C442 0.930 . S
H435 C443 0.930 . S
H436 C446 0.930 . S
H437 C447 0.930 . S
C438 H432 0.930 . S
C438 C439 1.355 . S
C438 C440 1.415 . S
C439 C438 1.355 . S
C439 C441 1.419 . S
C440 C438 1.415 . S
C440 C445 1.425 . S
C440 C447 1.409 . S
C441 H433 0.930 . S
C441 C439 1.419 . S
C441 C442 1.362 . S
C442 H434 0.930 . S
C442 C441 1.362 . S
C442 C445 1.409 . S
C443 H435 0.930 . S
C443 C444 1.355 . S
C443 C445 1.415 . S
C444 C443 1.355 . S
C444 C446 1.419 . S
C445 C440 1.425 . S
C445 C442 1.409 . S
C445 C443 1.415 . S
C446 H436 0.930 . S
C446 C444 1.419 . S
C446 C447 1.362 . S
C447 H437 0.930 . S
C447 C440 1.409 . S
C447 C446 1.362 . S
H448 C454 0.930 . S
H449 C457 0.930 . S
H450 C458 0.930 . S
H451 C459 0.930 . S
H452 C462 0.930 . S
H453 C463 0.930 . S
C454 H448 0.930 . S
C454 C455 1.355 . S
C454 C456 1.415 1_545 S
C455 C454 1.355 . S
C455 C457 1.419 . S
C456 C454 1.415 1_565 S
C456 C461 1.425 1_565 S
C456 C463 1.409 . S
C457 H449 0.930 . S
C457 C455 1.419 . S
C457 C458 1.362 . S
C458 H450 0.930 . S
C458 C457 1.362 . S
C458 C461 1.409 . S
C459 H451 0.930 . S
C459 C460 1.355 . S
C459 C461 1.415 1_565 S
C460 C459 1.355 . S
C460 C462 1.419 . S
C461 C456 1.425 1_545 S
C461 C458 1.409 . S
C461 C459 1.415 1_545 S
C462 H452 0.930 . S
C462 C460 1.419 . S
C462 C463 1.362 . S
C463 H453 0.930 . S
C463 C456 1.409 . S
C463 C462 1.362 . S
H464 C470 0.930 . S
H465 C473 0.930 . S
H466 C474 0.930 . S
H467 C475 0.930 . S
H468 C478 0.930 . S
H469 C479 0.930 . S
C470 H464 0.930 . S
C470 C471 1.355 . S
C470 C472 1.415 1_455 S
C471 C470 1.355 . S
C471 C473 1.419 . S
C472 C470 1.415 1_655 S
C472 C477 1.425 1_645 S
C472 C479 1.409 . S
C473 H465 0.930 . S
C473 C471 1.419 . S
C473 C474 1.362 1_545 S
C474 H466 0.930 . S
C474 C473 1.362 1_565 S
C474 C477 1.409 . S
C475 H467 0.930 . S
C475 C476 1.355 . S
C475 C477 1.415 1_655 S
C476 C475 1.355 . S
C476 C478 1.419 . S
C477 C472 1.425 1_465 S
C477 C474 1.409 . S
C477 C475 1.415 1_455 S
C478 H468 0.930 . S
C478 C476 1.419 . S
C478 C479 1.362 1_565 S
C479 H469 0.930 . S
C479 C472 1.409 . S
C479 C478 1.362 1_545 S
H480 C486 0.930 . S
H481 C489 0.930 . S
H482 C490 0.930 . S
H483 C491 0.930 . S
H484 C494 0.930 . S
H485 C495 0.930 . S
C486 H480 0.930 . S
C486 C487 1.355 . S
C486 C488 1.415 . S
C487 C486 1.355 . S
C487 C489 1.419 . S
C488 C486 1.415 . S
C488 C493 1.425 . S
C488 C495 1.409 . S
C489 H481 0.930 . S
C489 C487 1.419 . S
C489 C490 1.362 . S
C490 H482 0.930 . S
C490 C489 1.362 . S
C490 C493 1.409 . S
C491 H483 0.930 . S
C491 C492 1.355 . S
C491 C493 1.415 . S
C492 C491 1.355 . S
C492 C494 1.419 . S
C493 C488 1.425 . S
C493 C490 1.409 . S
C493 C491 1.415 . S
C494 H484 0.930 . S
C494 C492 1.419 . S
C494 C495 1.362 . S
C495 H485 0.930 . S
C495 C488 1.409 . S
C495 C494 1.362 . S
H496 C502 0.930 . S
H497 C505 0.930 . S
H498 C506 0.930 . S
H499 C507 0.930 . S
H500 C510 0.930 . S
H501 C511 0.930 . S
C502 H496 0.930 . S
C502 C503 1.355 . S
C502 C504 1.415 . S
C503 C502 1.355 . S
C503 C505 1.419 . S
C504 C502 1.415 . S
C504 C509 1.425 . S
C504 C511 1.409 . S
C505 H497 0.930 . S
C505 C503 1.419 . S
C505 C506 1.362 . S
C506 H498 0.930 . S
C506 C505 1.362 . S
C506 C509 1.409 . S
C507 H499 0.930 . S
C507 C508 1.355 . S
C507 C509 1.415 . S
C508 C507 1.355 . S
C508 C510 1.419 . S
C509 C504 1.425 . S
C509 C506 1.409 . S
C509 C507 1.415 . S
C510 H500 0.930 . S
C510 C508 1.419 . S
C510 C511 1.362 . S
C511 H501 0.930 . S
C511 C504 1.409 . S
C511 C510 1.362 . S
H512 C518 0.930 . S
H513 C521 0.930 . S
H514 C522 0.930 . S
H515 C523 0.930 . S
H516 C526 0.930 . S
H517 C527 0.930 . S
C518 H512 0.930 . S
C518 C519 1.355 . S
C518 C520 1.415 . S
C519 C518 1.355 . S
C519 C521 1.419 . S
C520 C518 1.415 . S
C520 C525 1.425 . S
C520 C527 1.409 . S
C521 H513 0.930 . S
C521 C519 1.419 . S
C521 C522 1.362 . S
C522 H514 0.930 . S
C522 C521 1.362 . S
C522 C525 1.409 . S
C523 H515 0.930 . S
C523 C524 1.355 . S
C523 C525 1.415 1_556 S
C524 C523 1.355 . S
C524 C526 1.419 . S
C525 C520 1.425 . S
C525 C522 1.409 . S
C525 C523 1.415 1_554 S
C526 H516 0.930 . S
C526 C524 1.419 . S
C526 C527 1.362 1_556 S
C527 H517 0.930 . S
C527 C520 1.409 . S
C527 C526 1.362 1_554 S
H528 C534 0.930 . S
H529 C537 0.930 . S
H530 C538 0.930 . S
H531 C539 0.930 . S
H532 C542 0.930 . S
H533 C543 0.930 . S
C534 H528 0.930 . S
C534 C535 1.355 . S
C534 C536 1.415 . S
C535 C534 1.355 . S
C535 C537 1.419 . S
C536 C534 1.415 . S
C536 C541 1.425 . S
C536 C543 1.409 . S
C537 H529 0.930 . S
C537 C535 1.419 . S
C537 C538 1.362 . S
C538 H530 0.930 . S
C538 C537 1.362 . S
C538 C541 1.409 . S
C539 H531 0.930 . S
C539 C540 1.355 . S
C539 C541 1.415 . S
C540 C539 1.355 . S
C540 C542 1.419 . S
C541 C536 1.425 . S
C541 C538 1.409 . S
C541 C539 1.415 . S
C542 H532 0.930 . S
C542 C540 1.419 . S
C542 C543 1.362 . S
C543 H533 0.930 . S
C543 C536 1.409 . S
C543 C542 1.362 . S
H544 C550 0.930 . S
H545 C553 0.930 . S
H546 C554 0.930 . S
H547 C555 0.930 . S
H548 C558 0.930 . S
H549 C559 0.930 . S
C550 H544 0.930 . S
C550 C551 1.355 . S
C550 C552 1.415 . S
C551 C550 1.355 . S
C551 C553 1.419 . S
C552 C550 1.415 . S
C552 C557 1.425 . S
C552 C559 1.409 . S
C553 H545 0.930 . S
C553 C551 1.419 . S
C553 C554 1.362 . S
C554 H546 0.930 . S
C554 C553 1.362 . S
C554 C557 1.409 . S
C555 H547 0.930 . S
C555 C556 1.355 . S
C555 C557 1.415 . S
C556 C555 1.355 . S
C556 C558 1.419 . S
C557 C552 1.425 . S
C557 C554 1.409 . S
C557 C555 1.415 . S
C558 H548 0.930 . S
C558 C556 1.419 . S
C558 C559 1.362 . S
C559 H549 0.930 . S
C559 C552 1.409 . S
C559 C558 1.362 . S
H560 C566 0.930 . S
H561 C569 0.930 . S
H562 C570 0.930 . S
H563 C571 0.930 . S
H564 C574 0.930 . S
H565 C575 0.930 . S
C566 H560 0.930 . S
C566 C567 1.355 . S
C566 C568 1.415 . S
C567 C566 1.355 . S
C567 C569 1.419 . S
C568 C566 1.415 . S
C568 C573 1.425 . S
C568 C575 1.409 . S
C569 H561 0.930 . S
C569 C567 1.419 . S
C569 C570 1.362 . S
C570 H562 0.930 . S
C570 C569 1.362 . S
C570 C573 1.409 . S
C571 H563 0.930 . S
C571 C572 1.355 . S
C571 C573 1.415 1_556 S
C572 C571 1.355 . S
C572 C574 1.419 . S
C573 C568 1.425 . S
C573 C570 1.409 . S
C573 C571 1.415 1_554 S
C574 H564 0.930 . S
C574 C572 1.419 . S
C574 C575 1.362 1_556 S
C575 H565 0.930 . S
C575 C568 1.409 . S
C575 C574 1.362 1_554 S
H576 C582 0.930 . S
H577 C585 0.930 . S
H578 C586 0.930 . S
H579 C587 0.930 . S
H580 C590 0.930 . S
H581 C591 0.930 . S
C582 H576 0.930 . S
C582 C583 1.355 . S
C582 C584 1.415 . S
C583 C582 1.355 . S
C583 C585 1.419 . S
C584 C582 1.415 . S
C584 C589 1.425 . S
C584 C591 1.409 . S
C585 H577 0.930 . S
C585 C583 1.419 . S
C585 C586 1.362 . S
C586 H578 0.930 . S
C586 C585 1.362 . S
C586 C589 1.409 . S
C587 H579 0.930 . S
C587 C588 1.355 . S
C587 C589 1.415 . S
C588 C587 1.355 . S
C588 C590 1.419 . S
C589 C584 1.425 . S
C589 C586 1.409 . S
C589 C587 1.415 . S
C590 H580 0.930 . S
C590 C588 1.419 . S
C590 C591 1.362 . S
C591 H581 0.930 . S
C591 C584 1.409 . S
C591 C590 1.362 . S
H592 C598 0.930 . S
H593 C601 0.930 . S
H594 C602 0.930 . S
H595 C603 0.930 . S
H596 C606 0.930 . S
H597 C607 0.930 . S
C598 H592 0.930 . S
C598 C599 1.355 . S
C598 C600 1.415 . S
C599 C598 1.355 . S
C599 C601 1.419 . S
C600 C598 1.415 . S
C600 C605 1.425 . S
C600 C607 1.409 . S
C601 H593 0.930 . S
C601 C599 1.419 . S
C601 C602 1.362 . S
C602 H594 0.930 . S
C602 C601 1.362 . S
C602 C605 1.409 . S
C603 H595 0.930 . S
C603 C604 1.355 . S
C603 C605 1.415 . S
C604 C603 1.355 . S
C604 C606 1.419 . S
C605 C600 1.425 . S
C605 C602 1.409 . S
C605 C603 1.415 . S
C606 H596 0.930 . S
C606 C604 1.419 . S
C606 C607 1.362 . S
C607 H597 0.930 . S
C607 C600 1.409 . S
C607 C606 1.362 . S
H608 C614 0.930 . S
H609 C617 0.930 . S
H610 C618 0.930 . S
H611 C619 0.930 . S
H612 C622 0.930 . S
H613 C623 0.930 . S
C614 H608 0.930 . S
C614 C615 1.355 . S
C614 C616 1.415 1_556 S
C615 C614 1.355 . S
C615 C617 1.419 . S
C616 C614 1.415 1_554 S
C616 C621 1.425 . S
C616 C623 1.409 . S
C617 H609 0.930 . S
C617 C615 1.419 . S
C617 C618 1.362 1_556 S
C618 H610 0.930 . S
C618 C617 1.362 1_554 S
C618 C621 1.409 . S
C619 H611 0.930 . S
C619 C620 1.355 . S
C619 C621 1.415 . S
C620 C619 1.355 . S
C620 C622 1.419 . S
C621 C616 1.425 . S
C621 C618 1.409 . S
C621 C619 1.415 . S
C622 H612 0.930 . S
C622 C620 1.419 . S
C622 C623 1.362 . S
C623 H613 0.930 . S
C623 C616 1.409 . S
C623 C622 1.362 . S
H624 C630 0.930 . S
H625 C633 0.930 . S
H626 C634 0.930 . S
H627 C635 0.930 . S
H628 C638 0.930 . S
H629 C639 0.930 . S
C630 H624 0.930 . S
C630 C631 1.355 . S
C630 C632 1.415 . S
C631 C630 1.355 . S
C631 C633 1.419 . S
C632 C630 1.415 . S
C632 C637 1.425 . S
C632 C639 1.409 . S
C633 H625 0.930 . S
C633 C631 1.419 . S
C633 C634 1.362 . S
C634 H626 0.930 . S
C634 C633 1.362 . S
C634 C637 1.409 . S
C635 H627 0.930 . S
C635 C636 1.355 . S
C635 C637 1.415 . S
C636 C635 1.355 . S
C636 C638 1.419 . S
C637 C632 1.425 . S
C637 C634 1.409 . S
C637 C635 1.415 . S
C638 H628 0.930 . S
C638 C636 1.419 . S
C638 C639 1.362 . S
C639 H629 0.930 . S
C639 C632 1.409 . S
C639 C638 1.362 . S
H640 C646 0.930 . S
H641 C649 0.930 . S
H642 C650 0.930 . S
H643 C651 0.930 . S
H644 C654 0.930 . S
H645 C655 0.930 . S
C646 H640 0.930 . S
C646 C647 1.355 . S
C646 C648 1.415 . S
C647 C646 1.355 . S
C647 C649 1.419 . S
C648 C646 1.415 . S
C648 C653 1.425 . S
C648 C655 1.409 . S
C649 H641 0.930 . S
C649 C647 1.419 . S
C649 C650 1.362 . S
C650 H642 0.930 . S
C650 C649 1.362 . S
C650 C653 1.409 . S
C651 H643 0.930 . S
C651 C652 1.355 . S
C651 C653 1.415 . S
C652 C651 1.355 . S
C652 C654 1.419 . S
C653 C648 1.425 . S
C653 C650 1.409 . S
C653 C651 1.415 . S
C654 H644 0.930 . S
C654 C652 1.419 . S
C654 C655 1.362 . S
C655 H645 0.930 . S
C655 C648 1.409 . S
C655 C654 1.362 . S
H656 C662 0.930 . S
H657 C665 0.930 . S
H658 C666 0.930 . S
H659 C667 0.930 . S
H660 C670 0.930 . S
H661 C671 0.930 . S
C662 H656 0.930 . S
C662 C663 1.355 . S
C662 C664 1.415 . S
C663 C662 1.355 . S
C663 C665 1.419 . S
C664 C662 1.415 . S
C664 C669 1.425 . S
C664 C671 1.409 . S
C665 H657 0.930 . S
C665 C663 1.419 . S
C665 C666 1.362 . S
C666 H658 0.930 . S
C666 C665 1.362 . S
C666 C669 1.409 . S
C667 H659 0.930 . S
C667 C668 1.355 . S
C667 C669 1.415 . S
C668 C667 1.355 . S
C668 C670 1.419 . S
C669 C664 1.425 . S
C669 C666 1.409 . S
C669 C667 1.415 . S
C670 H660 0.930 . S
C670 C668 1.419 . S
C670 C671 1.362 . S
C671 H661 0.930 . S
C671 C664 1.409 . S
C671 C670 1.362 . S
H672 C678 0.930 . S
H673 C681 0.930 . S
H674 C682 0.930 . S
H675 C683 0.930 . S
H676 C686 0.930 . S
H677 C687 0.930 . S
C678 H672 0.930 . S
C678 C679 1.355 . S
C678 C680 1.415 . S
C679 C678 1.355 . S
C679 C681 1.419 . S
C680 C678 1.415 . S
C680 C685 1.425 . S
C680 C687 1.409 . S
C681 H673 0.930 . S
C681 C679 1.419 . S
C681 C682 1.362 . S
C682 H674 0.930 . S
C682 C681 1.362 . S
C682 C685 1.409 . S
C683 H675 0.930 . S
C683 C684 1.355 . S
C683 C685 1.415 . S
C684 C683 1.355 . S
C684 C686 1.419 . S
C685 C680 1.425 . S
C685 C682 1.409 . S
C685 C683 1.415 . S
C686 H676 0.930 . S
C686 C684 1.419 . S
C686 C687 1.362 . S
C687 H677 0.930 . S
C687 C680 1.409 . S
C687 C686 1.362 . S
H688 C694 0.930 . S
H689 C697 0.930 . S
H690 C698 0.930 . S
H691 C699 0.930 . S
H692 C702 0.930 . S
H693 C703 0.930 . S
C694 H688 0.930 . S
C694 C695 1.355 . S
C694 C696 1.415 . S
C695 C694 1.355 . S
C695 C697 1.419 . S
C696 C694 1.415 . S
C696 C701 1.425 . S
C696 C703 1.409 . S
C697 H689 0.930 . S
C697 C695 1.419 . S
C697 C698 1.362 . S
C698 H690 0.930 . S
C698 C697 1.362 . S
C698 C701 1.409 . S
C699 H691 0.930 . S
C699 C700 1.355 . S
C699 C701 1.415 . S
C700 C699 1.355 . S
C700 C702 1.419 . S
C701 C696 1.425 . S
C701 C698 1.409 . S
C701 C699 1.415 . S
C702 H692 0.930 . S
C702 C700 1.419 . S
C702 C703 1.362 . S
C703 H693 0.930 . S
C703 C696 1.409 . S
C703 C702 1.362 . S
H704 C710 0.930 . S
H705 C713 0.930 . S
H706 C714 0.930 . S
H707 C715 0.930 . S
H708 C718 0.930 . S
H709 C719 0.930 . S
C710 H704 0.930 . S
C710 C711 1.355 . S
C710 C712 1.415 . S
C711 C710 1.355 . S
C711 C713 1.419 . S
C712 C710 1.415 . S
C712 C717 1.425 . S
C712 C719 1.409 . S
C713 H705 0.930 . S
C713 C711 1.419 . S
C713 C714 1.362 . S
C714 H706 0.930 . S
C714 C713 1.362 . S
C714 C717 1.409 . S
C715 H707 0.930 . S
C715 C716 1.355 . S
C715 C717 1.415 . S
C716 C715 1.355 . S
C716 C718 1.419 . S
C717 C712 1.425 . S
C717 C714 1.409 . S
C717 C715 1.415 . S
C718 H708 0.930 . S
C718 C716 1.419 . S
C718 C719 1.362 . S
C719 H709 0.930 . S
C719 C712 1.409 . S
C719 C718 1.362 . S
H720 C726 0.930 . S
H721 C729 0.930 . S
H722 C730 0.930 . S
H723 C731 0.930 . S
H724 C734 0.930 . S
H725 C735 0.933 . S
C726 H720 0.930 . S
C726 C727 1.355 . S
C726 C728 1.415 . S
C727 C726 1.355 . S
C727 C729 1.419 . S
C728 C726 1.415 . S
C728 C733 1.425 . S
C728 C735 1.409 1_554 S
C729 H721 0.930 . S
C729 C727 1.419 . S
C729 C730 1.362 . S
C730 H722 0.930 . S
C730 C729 1.362 . S
C730 C733 1.409 . S
C731 H723 0.930 . S
C731 C732 1.355 . S
C731 C733 1.415 1_556 S
C732 C731 1.355 . S
C732 C734 1.419 . S
C733 C728 1.425 . S
C733 C730 1.409 . S
C733 C731 1.415 1_554 S
C734 H724 0.930 . S
C734 C732 1.419 . S
C734 C735 1.362 . S
C735 H725 0.933 . S
C735 C728 1.409 1_556 S
C735 C734 1.362 . S
C231 C97 2.061 . S
C236 C13 2.075 . S
C247 C111 2.074 . S
C252 C27 2.062 . S
C263 C41 2.034 . S
C268 C56 2.064 1_556 S
C279 C55 2.077 . S
C284 C83 2.046 . S
C295 C112 2.037 . S
C300 C197 2.055 1_556 S
C311 C223 2.062 . S
C316 C139 2.074 . S
C327 C141 2.066 . S
C332 C168 2.037 . S
C343 C155 2.048 . S
C348 C182 2.078 . S
C359 C12 1.959 . S
C364 C140 1.974 . S
C375 C26 2.016 . S
C380 C154 2.016 . S
C391 C40 1.959 . S
C396 C113 1.967 . S
C407 C54 2.018 . S
C412 C138 2.012 . S
C423 C57 1.955 . S
C428 C196 1.966 . S
C439 C222 1.968 . S
C444 C82 1.959 . S
C455 C96 2.013 . S
C460 C169 1.987 . S
C471 C183 2.011 . S
C476 C110 1.991 . S
C487 C195 0.820 . S
C492 C0 0.807 . S
C503 C14 0.770 . S
C508 C208 0.780 . S
C519 C210 0.824 . S
C524 C28 0.827 . S
C535 C181 0.768 . S
C540 C42 0.777 . S
C551 C166 0.825 . S
C556 C69 0.828 . S
C567 C70 0.810 . S
C572 C125 0.822 . S
C583 C84 0.810 . S
C588 C126 0.822 . S
C599 C98 0.771 . S
C604 C152 0.782 . S
C615 C194 1.715 . S
C620 C1 1.721 . S
C631 C15 1.723 . S
C636 C209 1.718 . S
C647 C29 1.705 . S
C652 C211 1.698 . S
C663 C180 1.709 . S
C668 C43 1.700 . S
C679 C167 1.718 . S
C684 C68 1.713 . S
C695 C124 1.726 . S
C700 C71 1.725 . S
C711 C85 1.711 . S
C716 C127 1.718 . S
C727 C153 1.695 . S
C732 C99 1.693 . S
