# Generated by pormake.
# Topology smm, (6)-cn, num edge types: 1
# Building blocks:
#     Node 0, Type 0, BuildingBlock: INOVEN_clean_sbu_0, # of connection points: 6
#     Node 1, Type 0, BuildingBlock: INOVEN_clean_sbu_0, # of connection points: 6
#     Node 2, Type 0, BuildingBlock: INOVEN_clean_sbu_0, # of connection points: 6
#     Node 3, Type 0, BuildingBlock: INOVEN_clean_sbu_0, # of connection points: 6
#     Node 4, Type 0, BuildingBlock: INOVEN_clean_sbu_0, # of connection points: 6
#     Node 5, Type 0, BuildingBlock: INOVEN_clean_sbu_0, # of connection points: 6
#     Node 6, Type 0, BuildingBlock: INOVEN_clean_sbu_0, # of connection points: 6
#     Node 7, Type 0, BuildingBlock: INOVEN_clean_sbu_0, # of connection points: 6
#     Node 8, Type 0, BuildingBlock: INOVEN_clean_sbu_0, # of connection points: 6
#     Edge 9, Type (0, 0), BuildingBlock: OJICUG_clean_linker_0, # of connection points: 2
#     Edge 10, Type (0, 0), BuildingBlock: OJICUG_clean_linker_0, # of connection points: 2
#     Edge 11, Type (0, 0), BuildingBlock: OJICUG_clean_linker_0, # of connection points: 2
#     Edge 12, Type (0, 0), BuildingBlock: OJICUG_clean_linker_0, # of connection points: 2
#     Edge 13, Type (0, 0), BuildingBlock: OJICUG_clean_linker_0, # of connection points: 2
#     Edge 14, Type (0, 0), BuildingBlock: OJICUG_clean_linker_0, # of connection points: 2
#     Edge 15, Type (0, 0), BuildingBlock: OJICUG_clean_linker_0, # of connection points: 2
#     Edge 16, Type (0, 0), BuildingBlock: OJICUG_clean_linker_0, # of connection points: 2
#     Edge 17, Type (0, 0), BuildingBlock: OJICUG_clean_linker_0, # of connection points: 2
#     Edge 18, Type (0, 0), BuildingBlock: OJICUG_clean_linker_0, # of connection points: 2
#     Edge 19, Type (0, 0), BuildingBlock: OJICUG_clean_linker_0, # of connection points: 2
#     Edge 20, Type (0, 0), BuildingBlock: OJICUG_clean_linker_0, # of connection points: 2
#     Edge 21, Type (0, 0), BuildingBlock: OJICUG_clean_linker_0, # of connection points: 2
#     Edge 22, Type (0, 0), BuildingBlock: OJICUG_clean_linker_0, # of connection points: 2
#     Edge 23, Type (0, 0), BuildingBlock: OJICUG_clean_linker_0, # of connection points: 2
#     Edge 24, Type (0, 0), BuildingBlock: OJICUG_clean_linker_0, # of connection points: 2
#     Edge 25, Type (0, 0), BuildingBlock: OJICUG_clean_linker_0, # of connection points: 2
#     Edge 26, Type (0, 0), BuildingBlock: OJICUG_clean_linker_0, # of connection points: 2
#     Edge 27, Type (0, 0), BuildingBlock: OJICUG_clean_linker_0, # of connection points: 2
#     Edge 28, Type (0, 0), BuildingBlock: OJICUG_clean_linker_0, # of connection points: 2
#     Edge 29, Type (0, 0), BuildingBlock: OJICUG_clean_linker_0, # of connection points: 2
#     Edge 30, Type (0, 0), BuildingBlock: OJICUG_clean_linker_0, # of connection points: 2
#     Edge 31, Type (0, 0), BuildingBlock: OJICUG_clean_linker_0, # of connection points: 2
#     Edge 32, Type (0, 0), BuildingBlock: OJICUG_clean_linker_0, # of connection points: 2
#     Edge 33, Type (0, 0), BuildingBlock: OJICUG_clean_linker_0, # of connection points: 2
#     Edge 34, Type (0, 0), BuildingBlock: OJICUG_clean_linker_0, # of connection points: 2
#     Edge 35, Type (0, 0), BuildingBlock: OJICUG_clean_linker_0, # of connection points: 2
# Relax obj value: 0.039
# Max RMSD: 0.117
# Mean RMSD: 0.117
data_MOF--net-smm--node1-INOVEN_clean_sbu_0--edge1-OJICUG_clean_linker_0
_symmetry_space_group_name_H-M    P1
_symmetry_Int_Tables_number       1
_symmetry_cell_setting            triclinic
loop_
_symmetry_equiv_pos_as_xyz
'x, y, z'
_cell_length_a     56.804614
_cell_length_b     56.88012
_cell_length_c     10.281141
_cell_angle_alpha  90.053168
_cell_angle_beta   89.953947
_cell_angle_gamma 119.94095
loop_
_atom_site_label
_atom_site_type_symbol
_atom_site_fract_x
_atom_site_fract_y
_atom_site_fract_z
_atom_type_partial_charge
Gd0 Gd 0.06907 0.22888 -0.00775 0.0
Gd1 Gd 1.01838 0.17351 0.03818 0.0
C2 C 1.01041 0.22534 0.03985 0.0
C3 C 0.10478 0.27481 0.89157 0.0
C4 C 0.11271 0.30375 0.87385 0.0
C5 C 0.12855 0.32329 0.96769 0.0
C6 C 0.10731 0.31256 0.75553 0.0
C7 C 0.13471 0.35983 0.82228 0.0
C8 C 0.11806 0.34025 0.73029 0.0
C9 C 0.13934 0.35096 0.94235 0.0
C10 C 0.05825 0.21398 0.2443 0.0
C11 C 0.07797 0.17799 0.01821 0.0
C12 C 0.98197 0.1258 0.11791 0.0
C13 C 0.97305 0.09678 0.09434 0.0
C14 C 0.95981 0.08373 0.97838 0.0
C15 C 0.97624 0.0814 0.19234 0.0
C16 C 0.95248 0.04037 0.06075 0.0
C17 C 0.96618 0.05356 0.17562 0.0
C18 C 0.94965 0.05587 0.96188 0.0
C19 C 1.03042 0.18817 0.78583 0.0
O20 O 1.03501 0.23912 -0.0124 0.0
O21 O 1.00107 0.20045 0.08504 0.0
O22 O 0.10719 0.26673 0.00763 0.0
O23 O 0.0834 0.25652 0.8284 0.0
O24 O 0.08271 0.22882 0.19909 0.0
O25 O 0.04107 0.20996 0.1575 0.0
O26 O 0.05257 0.16409 0.06046 0.0
O27 O 0.088 0.20265 0.969 0.0
O28 O 0.97776 0.139 0.02503 0.0
O29 O 1.00531 0.14048 0.17684 0.0
O30 O 1.00585 0.174 0.82958 0.0
O31 O 0.04704 0.19197 0.87489 0.0
H32 H 0.13335 0.31731 0.05942 0.0
H33 H 0.09555 0.29808 0.68026 0.0
H34 H 0.11429 0.34635 0.63641 0.0
H35 H 0.15173 0.36547 0.01623 0.0
H36 H 0.95691 0.0949 0.90078 0.0
H37 H 0.98608 0.09082 0.28324 0.0
H38 H 0.96844 0.04221 0.2544 0.0
H39 H 0.93952 0.04645 0.87155 0.0
Gd40 Gd 0.85259 0.86383 -0.0109 0.0
Gd41 Gd 0.90784 0.86803 0.03542 0.0
C42 C 0.85564 0.80852 0.03523 0.0
C43 C 0.80676 0.85396 0.88781 0.0
C44 C 0.77782 0.83293 0.86922 0.0
C45 C 0.75815 0.82904 0.96293 0.0
C46 C 0.76913 0.81884 0.75047 0.0
C47 C 0.72173 0.79871 0.81663 0.0
C48 C 0.74143 0.80182 0.72473 0.0
C49 C 0.73048 0.81209 0.93708 0.0
C50 C 0.86733 0.86761 0.24133 0.0
C51 C 0.90385 0.92333 0.01733 0.0
C52 C 0.95502 0.8779 0.11786 0.0
C53 C 0.98416 0.89722 0.0984 0.0
C54 C 1.00286 0.88846 0.12141 0.0
C55 C 0.99364 0.92398 0.05679 0.0
C56 C 0.04041 0.93294 0.06171 0.0
C57 C 1.02155 0.94173 0.03901 0.0
C58 C 1.03066 0.90608 0.10335 0.0
C59 C 0.89331 0.86566 0.78288 0.0
O60 O 0.84198 0.81949 0.98329 0.0
O61 O 0.88054 0.82388 0.08084 0.0
O62 O 0.81473 0.86419 0.00442 0.0
O63 O 0.82515 0.85103 0.82438 0.0
O64 O 0.85264 0.87743 0.19625 0.0
O65 O 0.87128 0.85443 0.15422 0.0
O66 O 0.91765 0.91166 0.05873 0.0
O67 O 0.87915 0.90895 0.96791 0.0
O68 O 0.94229 0.86163 0.02065 0.0
O69 O 0.94057 0.88699 0.17565 0.0
O70 O 0.90732 0.85508 0.82656 0.0
O71 O 0.8896 0.87853 0.87217 0.0
H72 H 0.76404 0.83971 0.05499 0.0
H73 H 0.7837 0.8217 0.67531 0.0
H74 H 0.73542 0.79204 0.63058 0.0
H75 H 0.71588 0.80983 0.01088 0.0
H76 H 0.99595 0.8679 0.15376 0.0
H77 H 0.97949 0.9311 0.03772 0.0
H78 H 1.02833 0.96219 0.00579 0.0
H79 H 0.04456 0.89873 0.12378 0.0
Gd80 Gd 0.21697 1.01183 -0.01368 0.0
Gd81 Gd 0.21234 0.06262 0.03308 0.0
C82 C 0.2721 0.0702 0.03318 0.0
C83 C 0.22702 0.97598 0.88515 0.0
C84 C 0.24803 0.96797 0.86712 0.0
C85 C 0.2517 0.95207 0.96069 0.0
C86 C 0.26231 0.97341 0.74887 0.0
C87 C 0.28223 0.94597 0.81526 0.0
C88 C 0.27931 0.96266 0.72349 0.0
C89 C 0.26864 0.94128 0.93521 0.0
C90 C 0.213 1.0227 0.23862 0.0
C91 C 0.1572 1.00331 0.01316 0.0
C92 C 0.20246 0.09985 0.11647 0.0
C93 C 0.18334 0.10996 0.09753 0.0
C94 C 0.19239 0.13743 0.12122 0.0
C95 C 0.15649 0.09294 0.05602 0.0
C96 C 0.14799 0.13102 0.06269 0.0
C97 C 0.13893 0.10338 0.03914 0.0
C98 C 0.17495 0.14786 0.10407 0.0
C99 C 0.21492 0.05057 0.78043 0.0
O100 O 0.26128 0.04564 0.98083 0.0
O101 O 0.25657 0.07956 0.07889 0.0
O102 O 0.21657 0.97363 0.00136 0.0
O103 O 0.23012 0.99735 0.82206 0.0
O104 O 0.20335 0.99826 0.19339 0.0
O105 O 0.22612 0.03982 0.15162 0.0
O106 O 0.16866 0.02869 0.05531 0.0
O107 O 0.17181 0.99321 0.96383 0.0
O108 O 0.21886 0.10347 0.0196 0.0
O109 O 0.19314 0.07622 0.17309 0.0
O110 O 0.22527 0.07511 0.82425 0.0
O111 O 0.20212 0.03399 0.86958 0.0
H112 H 0.24087 0.94723 0.05235 0.0
H113 H 0.25962 0.98521 0.67379 0.0
H114 H 0.28925 0.96649 0.62969 0.0
H115 H 0.27074 0.92887 0.00894 0.0
H116 H 0.21303 0.15086 0.15352 0.0
H117 H 0.14914 0.07168 0.03646 0.0
H118 H 0.11838 0.0899 0.00605 0.0
H119 H 0.18252 0.16911 0.12513 0.0
Gd120 Gd 0.73601 0.56231 0.32249 0.0
Gd121 Gd 0.68529 0.507 0.36878 0.0
C122 C 0.67741 0.55889 0.36966 0.0
C123 C 0.77175 0.60818 0.22133 0.0
C124 C 0.7796 0.63708 0.2028 0.0
C125 C 0.79563 0.65676 0.29574 0.0
C126 C 0.77395 0.64572 0.08459 0.0
C127 C 0.8015 0.69309 0.1496 0.0
C128 C 0.78465 0.67339 0.05856 0.0
C129 C 0.80636 0.68439 0.2696 0.0
C130 C 0.72518 0.54751 0.57469 0.0
C131 C 0.74486 0.5114 0.34981 0.0
C132 C 0.6487 0.45942 0.44912 0.0
C133 C 0.6395 0.43033 0.42654 0.0
C134 C 0.6264 0.41724 0.31039 0.0
C135 C 0.64225 0.41491 0.5258 0.0
C136 C 0.61836 0.37379 0.39497 0.0
C137 C 0.63191 0.387 0.51008 0.0
C138 C 0.61596 0.38931 0.29489 0.0
C139 C 0.69736 0.52155 0.11626 0.0
O140 O 0.702 0.57262 0.31731 0.0
O141 O 0.66807 0.53403 0.41524 0.0
O142 O 0.77408 0.60022 0.3378 0.0
O143 O 0.75044 0.5898 0.15807 0.0
O144 O 0.74965 0.5623 0.52942 0.0
O145 O 0.70801 0.5435 0.48783 0.0
O146 O 0.71944 0.49753 0.39178 0.0
O147 O 0.75493 0.53604 0.30026 0.0
O148 O 0.64461 0.47261 0.3558 0.0
O149 O 0.67208 0.47402 0.50779 0.0
O150 O 0.67279 0.50743 0.16005 0.0
O151 O 0.71397 0.52536 0.20541 0.0
H152 H 0.80062 0.65091 0.38733 0.0
H153 H 0.76204 0.63114 0.00999 0.0
H154 H 0.78069 0.67935 0.96476 0.0
H155 H 0.81891 0.699 0.34278 0.0
H156 H 0.62384 0.42844 0.23186 0.0
H157 H 0.65196 0.42436 0.61686 0.0
H158 H 0.63384 0.37564 0.58976 0.0
H159 H 0.60595 0.37986 0.20438 0.0
Gd160 Gd 0.51834 0.1971 0.32535 0.0
Gd161 Gd 0.57368 0.20156 0.37143 0.0
C162 C 0.52177 0.14196 0.37179 0.0
C163 C 0.47244 0.18702 0.2241 0.0
C164 C 0.44355 0.16595 0.20462 0.0
C165 C 0.42373 0.16208 0.29734 0.0
C166 C 0.43507 0.15184 0.08583 0.0
C167 C 0.38755 0.13176 0.14994 0.0
C168 C 0.40741 0.13484 0.05906 0.0
C169 C 0.3961 0.14515 0.27047 0.0
C170 C 0.53315 0.20103 0.5775 0.0
C171 C 0.56933 0.25668 0.3536 0.0
C172 C 0.62139 0.2127 0.45152 0.0
C173 C 0.65045 0.23281 0.42894 0.0
C174 C 0.66358 0.23304 0.31242 0.0
C175 C 0.66579 0.25099 0.52835 0.0
C176 C 0.70694 0.26869 0.39698 0.0
C177 C 0.69368 0.2688 0.51244 0.0
C178 C 0.69148 0.25076 0.29673 0.0
C179 C 0.55913 0.19914 0.11898 0.0
O180 O 0.50802 0.15283 0.31975 0.0
O181 O 0.54666 0.15741 0.41741 0.0
O182 O 0.48028 0.19707 0.34111 0.0
O183 O 0.49096 0.18433 0.16046 0.0
O184 O 0.5184 0.21076 0.53236 0.0
O185 O 0.53714 0.18786 0.49051 0.0
O186 O 0.58316 0.24507 0.39509 0.0
O187 O 0.54465 0.24225 0.30406 0.0
O188 O 0.60826 0.1955 0.35778 0.0
O189 O 0.60662 0.22123 0.51095 0.0
O190 O 0.57321 0.18862 0.16261 0.0
O191 O 0.55535 0.21195 0.20827 0.0
H192 H 0.42945 0.17278 0.38937 0.0
H193 H 0.44977 0.15468 0.01139 0.0
H194 H 0.40157 0.12505 0.96488 0.0
H195 H 0.38137 0.14291 0.34352 0.0
H196 H 0.65243 0.21929 0.23372 0.0
H197 H 0.65631 0.25109 0.61967 0.0
H198 H 0.705 0.2821 0.59224 0.0
H199 H 0.70097 0.25037 0.20595 0.0
Gd200 Gd 0.88375 0.34536 0.32824 0.0
Gd201 Gd 0.87943 0.39633 0.37482 0.0
C202 C 0.93905 0.40364 0.37504 0.0
C203 C 0.8936 0.30936 0.22714 0.0
C204 C 0.91454 0.30128 0.20833 0.0
C205 C 0.91807 0.28514 0.30102 0.0
C206 C 0.92887 0.30688 0.09013 0.0
C207 C 0.94857 0.27916 0.15488 0.0
C208 C 0.94578 0.29607 0.06398 0.0
C209 C 0.93493 0.2743 0.27477 0.0
C210 C 0.87984 0.3563 0.58047 0.0
C211 C 0.82414 0.33712 0.35608 0.0
C212 C 0.86956 0.43365 0.45703 0.0
C213 C 0.85042 0.44371 0.43674 0.0
C214 C 0.85949 0.47125 0.45807 0.0
C215 C 0.82352 0.42655 0.39621 0.0
C216 C 0.81501 0.46464 0.39922 0.0
C217 C 0.80594 0.43692 0.378 0.0
C218 C 0.84202 0.48163 0.43959 0.0
C219 C 0.88189 0.38418 0.12225 0.0
O220 O 0.92812 0.37908 0.32262 0.0
O221 O 0.9236 0.4131 0.42091 0.0
O222 O 0.88339 0.30719 0.34379 0.0
O223 O 0.89659 0.33065 0.16369 0.0
O224 O 0.87008 0.33184 0.53523 0.0
O225 O 0.89304 0.3734 0.49351 0.0
O226 O 0.83577 0.36252 0.39797 0.0
O227 O 0.83859 0.32686 0.30644 0.0
O228 O 0.88608 0.43723 0.36077 0.0
O229 O 0.8602 0.41006 0.51407 0.0
O230 O 0.8924 0.40873 0.16602 0.0
O231 O 0.86903 0.36763 0.21143 0.0
H232 H 0.90719 0.28018 0.39257 0.0
H233 H 0.92628 0.31887 0.01567 0.0
H234 H 0.95576 0.30003 0.97023 0.0
H235 H 0.93693 0.26171 0.34786 0.0
H236 H 0.88016 0.48481 0.48956 0.0
H237 H 0.81615 0.40522 0.37842 0.0
H238 H 0.78536 0.42331 0.34572 0.0
H239 H 0.84961 0.50294 0.45886 0.0
Gd240 Gd 0.40287 0.8957 0.65637 0.0
Gd241 Gd 0.35218 0.84038 0.7027 0.0
C242 C 0.34424 0.89223 0.7032 0.0
C243 C 0.43858 0.9416 0.55543 0.0
C244 C 0.44637 0.97049 0.53727 0.0
C245 C 0.46233 0.99014 0.63046 0.0
C246 C 0.4407 0.97916 0.41921 0.0
C247 C 0.46808 0.02651 0.4849 0.0
C248 C 0.45131 1.00683 0.39358 0.0
C249 C 0.47298 1.01777 0.60473 0.0
C250 C 0.39204 0.88091 0.90858 0.0
C251 C 0.41176 0.84481 0.68327 0.0
C252 C 0.31564 0.79281 0.78341 0.0
C253 C 0.3065 0.76372 0.76132 0.0
C254 C 0.29348 0.75056 0.64517 0.0
C255 C 0.30923 0.74838 0.86105 0.0
C256 C 0.28545 0.70718 0.7307 0.0
C257 C 0.29893 0.72047 0.8458 0.0
C258 C 0.28308 0.72263 0.63014 0.0
C259 C 0.36422 0.85492 0.45016 0.0
O260 O 0.36884 0.90596 0.65091 0.0
O261 O 0.33491 0.86738 0.74889 0.0
O262 O 0.44094 0.93361 0.67178 0.0
O263 O 0.41729 0.92322 0.4921 0.0
O264 O 0.41651 0.89569 0.8633 0.0
O265 O 0.37487 0.87688 0.82171 0.0
O266 O 0.38635 0.83092 0.72539 0.0
O267 O 0.4218 0.86945 0.63379 0.0
O268 O 0.31154 0.80593 0.68972 0.0
O269 O 0.339 0.80748 0.84216 0.0
O270 O 0.33966 0.84078 0.49398 0.0
O271 O 0.38084 0.85874 0.53928 0.0
H272 H 0.46734 0.98427 0.72195 0.0
H273 H 0.42883 0.9646 0.34443 0.0
H274 H 0.44732 1.01282 0.2999 0.0
H275 H 0.48547 0.03236 0.67811 0.0
H276 H 0.29095 0.7617 0.56628 0.0
H277 H 0.31888 0.75789 0.95212 0.0
H278 H 0.30083 0.70916 0.92582 0.0
H279 H 0.27313 0.71312 0.53963 0.0
Gd280 Gd 0.18546 0.5305 0.66321 0.0
Gd281 Gd 0.24077 0.53492 0.70915 0.0
C282 C 0.18882 0.47534 0.7099 0.0
C283 C 0.13952 0.52039 0.56224 0.0
C284 C 0.11062 0.4993 0.54345 0.0
C285 C 0.09088 0.49548 0.63662 0.0
C286 C 0.10202 0.48513 0.42489 0.0
C287 C 0.05458 0.46507 0.49005 0.0
C288 C 0.07434 0.4681 0.39875 0.0
C289 C 0.06324 0.47852 0.61038 0.0
C290 C 0.2003 0.53446 0.91532 0.0
C291 C 0.23645 0.59006 0.69099 0.0
C292 C 0.28854 0.54612 0.78865 0.0
C293 C 0.31757 0.5662 0.76507 0.0
C294 C 0.33053 0.56632 0.64814 0.0
C295 C 0.33306 0.5845 0.86384 0.0
C296 C 0.37401 0.6021 0.73102 0.0
C297 C 0.36092 0.60231 0.8469 0.0
C298 C 0.35841 0.58405 0.63143 0.0
C299 C 0.22619 0.53247 0.45676 0.0
O300 O 0.17511 0.48624 0.65765 0.0
O301 O 0.21371 0.49078 0.75555 0.0
O302 O 0.14745 0.53058 0.67896 0.0
O303 O 0.15798 0.5176 0.49863 0.0
O304 O 0.18555 0.5442 0.87018 0.0
O305 O 0.20427 0.52127 0.82837 0.0
O306 O 0.25026 0.57844 0.73276 0.0
O307 O 0.21178 0.57562 0.64134 0.0
O308 O 0.2753 0.52877 0.69557 0.0
O309 O 0.27384 0.55474 0.84798 0.0
O310 O 0.24025 0.52194 0.50038 0.0
O311 O 0.22244 0.54531 0.54601 0.0
H312 H 0.0967 0.50623 0.7285 0.0
H313 H 0.11665 0.48793 0.35013 0.0
H314 H 0.06841 0.45826 0.30471 0.0
H315 H 0.04857 0.47632 0.68373 0.0
H316 H 0.31927 0.55248 0.56991 0.0
H317 H 0.32371 0.58468 0.95544 0.0
H318 H 0.37235 0.6157 0.92622 0.0
H319 H 0.36776 0.58358 0.54035 0.0
Gd320 Gd 0.55075 0.67889 0.65761 0.0
Gd321 Gd 0.54646 0.72985 0.7044 0.0
C322 C 0.60608 0.73718 0.70395 0.0
C323 C 0.56057 0.64289 0.55628 0.0
C324 C 0.58153 0.63484 0.53737 0.0
C325 C 0.58519 0.61883 0.63035 0.0
C326 C 0.59575 0.64033 0.41889 0.0
C327 C 0.61559 0.61275 0.48395 0.0
C328 C 0.61268 0.62953 0.39274 0.0
C329 C 0.60206 0.608 0.6041 0.0
C330 C 0.54694 0.68983 0.90994 0.0
C331 C 0.49115 0.67063 0.68626 0.0
C332 C 0.53663 0.76717 0.7869 0.0
C333 C 0.51746 0.77721 0.76713 0.0
C334 C 0.52652 0.80476 0.78846 0.0
C335 C 0.49052 0.76003 0.72714 0.0
C336 C 0.48199 0.79809 0.7307 0.0
C337 C 0.4729 0.77037 0.70947 0.0
C338 C 0.50903 0.8151 0.77052 0.0
C339 C 0.54883 0.71769 0.45173 0.0
O340 O 0.59513 0.71261 0.65161 0.0
O341 O 0.59066 0.74664 0.75004 0.0
O342 O 0.55038 0.64071 0.67298 0.0
O343 O 0.56354 0.66418 0.49289 0.0
O344 O 0.53714 0.66537 0.86468 0.0
O345 O 0.56012 0.70694 0.82294 0.0
O346 O 0.50281 0.69604 0.72802 0.0
O347 O 0.50557 0.66037 0.63637 0.0
O348 O 0.55306 0.77072 0.69026 0.0
O349 O 0.52734 0.74361 0.84409 0.0
O350 O 0.55938 0.74224 0.49556 0.0
O351 O 0.53599 0.70115 0.54096 0.0
H352 H 0.57441 0.61395 0.72214 0.0
H353 H 0.59306 0.65221 0.34423 0.0
H354 H 0.62257 0.63341 0.2988 0.0
H355 H 0.60417 0.59551 0.67742 0.0
H356 H 0.54722 0.81832 0.81955 0.0
H357 H 0.48315 0.73869 0.70936 0.0
H358 H 0.4523 0.75675 0.6776 0.0
H359 H 0.51662 0.83642 0.78979 0.0
C360 C 0.17571 0.40654 0.82606 0.0
C361 C 0.14842 0.38936 0.79088 0.0
H362 H 0.2098 0.44676 0.82699 0.0
C363 C 0.1347 0.40057 0.72425 0.0
H364 H 0.18709 0.39855 0.87503 0.0
C365 C 0.14784 0.42839 0.69571 0.0
C366 C 0.17505 0.44558 0.73263 0.0
H367 H 0.11364 0.38793 0.69619 0.0
H368 H 0.13656 0.43643 0.64616 0.0
C369 C 0.18883 0.43423 0.79729 0.0
C370 C 0.67492 0.79289 0.82003 0.0
C371 C 0.69219 0.78286 0.78479 0.0
H372 H 0.63463 0.78669 0.82105 0.0
C373 C 0.68103 0.75797 0.71789 0.0
H374 H 0.68287 0.81223 0.86916 0.0
C375 C 0.65317 0.74325 0.68935 0.0
C376 C 0.63589 0.75318 0.72649 0.0
H377 H 0.69374 0.74962 0.68969 0.0
H378 H 0.64515 0.72396 0.63966 0.0
C379 C 0.64721 0.77829 0.79123 0.0
C380 C 0.28822 0.9051 0.81895 0.0
C381 C 0.29819 0.93234 0.78384 0.0
H382 H 0.29458 0.87113 0.81997 0.0
C383 C 0.32315 0.94611 0.71738 0.0
H384 H 0.26882 0.89368 0.86779 0.0
C385 C 0.33797 0.93306 0.68896 0.0
C386 C 0.3281 0.9059 0.72585 0.0
H387 H 0.33149 0.96714 0.68937 0.0
H388 H 0.35731 0.94437 0.63954 0.0
C389 C 0.30293 0.89207 0.79031 0.0
C390 C 0.34075 0.12596 0.15096 0.0
C391 C 0.35808 0.11593 0.11691 0.0
H392 H 0.30045 0.11975 0.15011 0.0
C393 C 0.34703 0.09104 0.05006 0.0
H394 H 0.34862 0.14531 0.2 0.0
C395 C 0.31922 0.07632 0.02047 0.0
C396 C 0.30188 0.08625 0.0565 0.0
H397 H 0.35979 0.08269 0.02277 0.0
H398 H 0.31129 0.05702 0.97092 0.0
C399 C 0.31309 0.11136 0.12113 0.0
C400 C 0.95443 0.23819 0.15675 0.0
C401 C 0.96447 0.2655 0.12261 0.0
H402 H 0.9607 0.20416 0.15634 0.0
C403 C 0.98945 0.27931 0.05635 0.0
H404 H 0.93502 0.22674 0.2054 0.0
C405 C 1.00423 0.26624 0.0272 0.0
C406 C 0.99429 0.23902 0.06314 0.0
H407 H 0.99785 0.30039 0.0291 0.0
H408 H 1.02359 0.2776 0.97798 0.0
C409 C 0.9691 0.22514 0.12739 0.0
C410 C 0.8557 0.76739 0.12179 0.0
C411 C 0.84184 0.77876 0.05801 0.0
H412 H 0.85402 0.73173 0.19939 0.0
C413 C 0.81455 0.76159 0.02225 0.0
H414 H 0.87674 0.77988 0.15052 0.0
C415 C 0.8014 0.73378 0.05127 0.0
C416 C 0.81521 0.72257 0.11725 0.0
H417 H 0.80322 0.76964 0.97335 0.0
H418 H 0.78028 0.72116 0.0242 0.0
C419 C 0.84258 0.73973 0.15104 0.0
C420 C 1.00781 0.45934 0.49189 0.0
C421 C 1.02507 0.44925 0.45761 0.0
H422 H 0.96755 0.45322 0.49158 0.0
C423 C 1.01394 0.42432 0.39104 0.0
H424 H 1.01575 0.47871 0.54072 0.0
C425 C 0.98611 0.40963 0.36188 0.0
C426 C 0.96883 0.41962 0.39808 0.0
H427 H 1.02665 0.41592 0.36359 0.0
H428 H 0.97811 0.39031 0.31249 0.0
C429 C 0.98012 0.44477 0.46248 0.0
C430 C 0.65643 0.61285 0.38513 0.0
C431 C 0.63148 0.59908 0.45175 0.0
H432 H 0.69054 0.61109 0.30671 0.0
C433 C 0.62147 0.57181 0.48638 0.0
H434 H 0.66479 0.6339 0.35747 0.0
C435 C 0.63614 0.55875 0.45721 0.0
C436 C 0.66129 0.57258 0.39267 0.0
H437 H 0.60209 0.56039 0.53531 0.0
H438 H 0.62776 0.53779 0.48656 0.0
C439 C 0.6712 0.59977 0.35619 0.0
C440 C 0.48082 0.09495 0.35851 0.0
C441 C 0.50808 0.1122 0.39442 0.0
H442 H 0.44668 0.05445 0.36001 0.0
C443 C 0.52203 0.10091 0.45808 0.0
H444 H 0.46942 0.10295 0.3097 0.0
C445 C 0.50901 0.07324 0.48701 0.0
C446 C 0.48167 0.056 0.453 0.0
H447 H 0.54305 0.11347 0.48693 0.0
H448 H 0.52053 0.0653 0.53525 0.0
C449 C 0.46778 0.06714 0.38721 0.0
C450 C 0.10238 0.12797 0.0878 0.0
C451 C 0.12954 0.1424 0.04562 0.0
H452 H 0.06486 0.1278 0.11291 0.0
C453 C 0.13926 0.16826 -0.00954 0.0
H454 H 0.09429 0.10813 0.13187 0.0
C455 C 0.12245 0.17962 0.98009 0.0
C456 C 0.09545 0.16543 0.02459 0.0
H457 H 0.15993 0.17978 0.95501 0.0
H458 H 0.13076 0.19966 0.93803 0.0
C459 C 0.08555 0.13935 0.07758 0.0
C460 C 0.94275 0.96919 0.07836 0.0
C461 C 0.91665 0.95334 0.02481 0.0
H462 H 0.97463 1.00897 0.13029 0.0
C463 C 0.90272 0.96644 0.9807 0.0
H464 H 0.95415 0.95984 0.11303 0.0
C465 C 0.91446 0.99463 -0.009 0.0
C466 C 0.94043 1.01046 0.0459 0.0
H467 H 0.88256 0.95493 0.93922 0.0
H468 H 0.90291 1.00396 0.95842 0.0
C469 C 0.95447 0.99738 0.08894 0.0
C470 C 0.08637 0.94196 -0.01302 0.0
C471 C 0.07015 0.95154 0.04317 0.0
H472 H 0.12627 0.95062 0.9329 0.0
C473 C 0.08273 0.9787 0.08499 0.0
H474 H 0.07732 0.92131 0.95166 0.0
C475 C 0.11091 0.99564 0.07371 0.0
C476 C 0.12717 0.98583 0.02 0.0
H477 H 0.07091 0.9867 0.12969 0.0
H478 H 0.11996 1.0163 0.10892 0.0
C479 C 0.11448 0.95886 0.97558 0.0
C480 C 0.78932 0.51294 0.31225 0.0
C481 C 0.76236 0.49886 0.35725 0.0
H482 H 0.82681 0.51307 0.28794 0.0
C483 C 0.75252 0.47294 0.41199 0.0
H484 H 0.79759 0.53286 0.26884 0.0
C485 C 0.76938 0.46161 0.42348 0.0
C486 C 0.79652 0.47594 0.38081 0.0
H487 H 0.73186 0.46148 0.44779 0.0
H488 H 0.76134 0.4419 0.46893 0.0
C489 C 0.80617 0.50163 0.32384 0.0
C490 C 0.61997 0.33068 0.42559 0.0
C491 C 0.60614 0.34384 0.38092 0.0
H492 H 0.61941 0.29307 0.45141 0.0
C493 C 0.58026 0.32809 0.32506 0.0
H494 H 0.64006 0.3422 0.46771 0.0
C495 C 0.56839 0.29987 0.31534 0.0
C496 C 0.58214 0.28669 0.36095 0.0
H497 H 0.56887 0.3375 0.29117 0.0
H498 H 0.54832 0.2884 0.27298 0.0
C499 C 0.60815 0.30248 0.41557 0.0
C500 C 0.74995 0.31351 0.42798 0.0
C501 C 0.7369 0.28657 0.38288 0.0
H502 H 0.78752 0.3506 0.45423 0.0
C503 C 0.75278 0.2766 0.32661 0.0
H504 H 0.73831 0.32194 0.47047 0.0
C505 C 0.78101 0.29304 0.31696 0.0
C506 C 0.79409 0.31991 0.36306 0.0
H507 H 0.74346 0.25585 0.29241 0.0
H508 H 0.79257 0.28454 0.27434 0.0
C509 C 0.77818 0.32999 0.418 0.0
C510 C 0.47305 0.83506 0.65581 0.0
C511 C 0.46347 0.80938 0.71283 0.0
H512 H 0.46441 0.86626 0.60123 0.0
C513 C 0.43637 0.79505 0.75606 0.0
H514 H 0.49366 0.84649 0.61947 0.0
C515 C 0.41948 0.80637 0.74507 0.0
C516 C 0.42927 0.83228 0.69028 0.0
H517 H 0.42838 0.77535 0.80156 0.0
H518 H 0.39886 0.79491 0.78128 0.0
C519 C 0.45619 0.84635 0.64472 0.0
C520 C 0.23552 0.63322 0.65185 0.0
C521 C 0.24926 0.62007 0.69802 0.0
H522 H 0.236 0.67083 0.62682 0.0
C523 C 0.27524 0.63588 0.75283 0.0
H524 H 0.21547 0.62173 0.60934 0.0
C525 C 0.28706 0.66409 0.76245 0.0
C526 C 0.27324 0.67722 0.71717 0.0
H527 H 0.28649 0.6265 0.78912 0.0
H528 H 0.30713 0.67564 0.80473 0.0
C529 C 0.24738 0.66144 0.66116 0.0
C530 C 0.44799 0.6265 0.64837 0.0
C531 C 0.46111 0.65341 0.694 0.0
H532 H 0.41044 0.58926 0.62516 0.0
C533 C 0.44525 0.6635 0.74939 0.0
H534 H 0.45951 0.61799 0.60543 0.0
C535 C 0.41703 0.64699 0.76034 0.0
C536 C 0.40395 0.62001 0.71578 0.0
H537 H 0.4546 0.68414 0.78528 0.0
H538 H 0.40543 0.65543 0.8032 0.0
C539 C 0.41978 0.61004 0.65898 0.0
C540 C 1.01727 0.18778 0.55389 0.0
C541 C 1.03769 0.1948 0.64752 0.0
H542 H 1.00782 0.18819 0.35266 0.0
C543 C 0.06499 0.20788 0.60754 0.0
H544 H 0.99606 0.17762 0.58198 0.0
C545 C 0.07175 0.21402 0.47617 0.0
C546 C 0.05131 0.20708 0.38268 0.0
H547 H 0.08113 0.21336 0.6777 0.0
H548 H 0.09294 0.22422 0.44787 0.0
C549 C 1.02401 0.19381 0.42268 0.0
C550 C 0.87379 0.88072 0.60456 0.0
C551 C 0.88665 0.86629 0.64455 0.0
H552 H 0.85757 0.89246 0.44497 0.0
C553 C 0.89338 0.85265 0.5509 0.0
H554 H 0.86853 0.89157 0.67469 0.0
C555 C 0.8873 0.85331 0.41972 0.0
C556 C 0.87425 0.86755 0.37972 0.0
H557 H 0.90337 0.84143 0.57896 0.0
H558 H 0.8927 0.84255 0.34972 0.0
C559 C 0.86759 0.8813 0.47323 0.0
C560 C 0.22778 0.06367 0.5484 0.0
C561 C 0.21432 0.0433 0.64204 0.0
H562 H 0.23773 0.07308 0.34715 0.0
C563 C 0.20007 1.01604 0.60198 0.0
H564 H 0.23885 0.08485 0.57651 0.0
C565 C 0.19948 1.00928 0.47058 0.0
C566 C 0.21304 0.02967 0.37708 0.0
H567 H 0.18936 0.99994 0.67211 0.0
H568 H 0.18846 0.98811 0.44227 0.0
C569 C 0.2271 0.05693 0.41715 0.0
C570 C 0.73868 0.54742 0.80649 0.0
C571 C 0.71824 0.54059 0.71308 0.0
H572 H 0.74806 0.54663 0.00793 0.0
C573 C 0.69095 0.52736 0.75317 0.0
H574 H 0.75987 0.55758 0.77814 0.0
C575 C 0.68421 0.52128 0.88437 0.0
C576 C 0.70463 0.5282 0.97793 0.0
H577 H 0.67476 0.52182 0.68323 0.0
H578 H 0.66301 0.51116 0.91251 0.0
C579 C 0.73192 0.54123 0.93785 0.0
C580 C 0.53334 0.21468 0.80936 0.0
C581 C 0.54009 0.20101 0.71586 0.0
H582 H 0.5342 0.22491 0.01084 0.0
C583 C 0.55324 0.18686 0.75584 0.0
H584 H 0.52325 0.22578 0.78109 0.0
C585 C 0.55932 0.1862 0.88702 0.0
C586 C 0.55248 0.19977 0.98067 0.0
H587 H 0.55872 0.17616 0.68583 0.0
H588 H 0.56937 0.17506 0.91507 0.0
C589 C 0.53954 0.21411 0.94069 0.0
C590 C 0.86624 0.34288 0.81233 0.0
C591 C 0.87991 0.36326 0.71891 0.0
H592 H 0.85605 0.33355 0.01382 0.0
C593 C 0.89411 0.39051 0.75905 0.0
H594 H 0.8551 0.32172 0.78394 0.0
C595 C 0.89482 0.39725 0.89031 0.0
C596 C 0.88124 0.3769 0.98387 0.0
H597 H 0.90482 0.40666 0.68912 0.0
H598 H 0.906 0.41842 0.91849 0.0
C599 C 0.86685 0.34965 0.94374 0.0
C600 C 0.35107 0.85465 0.21826 0.0
C601 C 0.37148 0.86158 0.31182 0.0
H602 H 0.34161 0.85519 0.01712 0.0
C603 C 0.39878 0.87463 0.27174 0.0
H604 H 0.32987 0.84452 0.2464 0.0
C605 C 0.40553 0.88082 0.14039 0.0
C606 C 0.3851 0.87398 0.04697 0.0
H607 H 0.41492 0.88004 0.34183 0.0
H608 H 0.42673 0.89099 0.11205 0.0
C609 C 0.3578 0.86074 0.08706 0.0
C610 C 0.20043 0.54806 0.14721 0.0
C611 C 0.20721 0.53442 0.05368 0.0
H612 H 0.20125 0.55824 0.34873 0.0
C613 C 0.22036 0.52027 0.09361 0.0
H614 H 0.19034 0.55916 0.11897 0.0
C615 C 0.22641 0.51958 0.22479 0.0
C616 C 0.21955 0.53312 0.31847 0.0
H617 H 0.22585 0.50959 0.02357 0.0
H618 H 0.23647 0.50843 0.25281 0.0
C619 C 0.2066 0.54746 0.27854 0.0
C620 C 0.53382 0.68317 0.27315 0.0
C621 C 0.54821 0.71042 0.31335 0.0
H622 H 0.52211 0.65526 0.11332 0.0
C623 C 0.56184 0.73077 0.21984 0.0
H624 H 0.52298 0.66707 0.34317 0.0
C625 C 0.56118 0.72404 0.08859 0.0
C626 C 0.54698 0.6968 0.04839 0.0
H627 H 0.57303 0.75194 0.24806 0.0
H628 H 0.57193 0.74019 0.01871 0.0
C629 C 0.53325 0.67641 0.14175 0.0
loop_
_geom_bond_atom_site_label_1
_geom_bond_atom_site_label_2
_geom_bond_distance
_geom_bond_site_symmetry_2
_ccdc_geom_bond_type
Gd0 C3 2.818 1_554 S
Gd0 O20 2.377 . S
Gd0 O22 2.448 . S
Gd0 O23 2.506 1_554 S
Gd0 O24 2.435 . S
Gd0 O25 2.717 . S
Gd0 O27 2.395 . S
Gd0 O31 2.327 1_554 S
Gd1 C12 2.818 1_556 S
Gd1 O21 2.395 . S
Gd1 O25 2.327 1_656 S
Gd1 O26 2.377 1_655 S
Gd1 O28 2.448 . S
Gd1 O29 2.506 1_556 S
Gd1 O30 2.435 . S
Gd1 O31 2.717 1_655 S
C2 O20 1.240 1_655 S
C2 O21 1.240 1_554 S
C3 Gd0 2.818 1_556 S
C3 C4 1.510 . S
C3 O22 1.249 1_556 S
C3 O23 1.252 . S
C4 C3 1.510 . S
C4 C5 1.404 1_556 S
C4 C6 1.352 . S
C5 C4 1.404 1_554 S
C5 C9 1.389 . S
C5 H32 0.930 . S
C6 C4 1.352 . S
C6 C8 1.374 . S
C6 H33 0.931 . S
C7 C8 1.359 . S
C7 C9 1.364 1_556 S
C8 C6 1.374 . S
C8 C7 1.359 . S
C8 H34 0.931 . S
C9 C5 1.389 . S
C9 C7 1.364 1_554 S
C9 H35 0.931 . S
C10 O24 1.256 . S
C10 O25 1.257 . S
C11 O26 1.240 . S
C11 O27 1.240 1_556 S
C12 Gd1 2.818 1_554 S
C12 C13 1.510 . S
C12 O28 1.249 1_554 S
C12 O29 1.252 . S
C13 C12 1.510 . S
C13 C14 1.404 1_554 S
C13 C15 1.352 . S
C14 C13 1.404 1_556 S
C14 C18 1.389 . S
C14 H36 0.930 . S
C15 C13 1.352 . S
C15 C17 1.374 . S
C15 H37 0.931 . S
C16 C17 1.359 . S
C16 C18 1.364 1_554 S
C17 C15 1.374 . S
C17 C16 1.359 . S
C17 H38 0.931 . S
C18 C14 1.389 . S
C18 C16 1.364 1_556 S
C18 H39 0.931 . S
C19 O30 1.256 . S
C19 O31 1.257 1_655 S
O20 Gd0 2.377 . S
O20 C2 1.240 1_455 S
O21 Gd1 2.395 . S
O21 C2 1.240 1_556 S
O22 Gd0 2.448 . S
O22 C3 1.249 1_554 S
O23 Gd0 2.506 1_556 S
O23 C3 1.252 . S
O24 Gd0 2.435 . S
O24 C10 1.256 . S
O25 Gd0 2.717 . S
O25 Gd1 2.327 1_454 S
O25 C10 1.257 . S
O26 Gd1 2.377 1_455 S
O26 C11 1.240 . S
O27 Gd0 2.395 . S
O27 C11 1.240 1_554 S
O28 Gd1 2.448 . S
O28 C12 1.249 1_556 S
O29 Gd1 2.506 1_554 S
O29 C12 1.252 . S
O30 Gd1 2.435 . S
O30 C19 1.256 . S
O31 Gd0 2.327 1_556 S
O31 Gd1 2.717 1_455 S
O31 C19 1.257 1_455 S
H32 C5 0.930 . S
H33 C6 0.931 . S
H34 C8 0.931 . S
H35 C9 0.931 . S
H36 C14 0.930 . S
H37 C15 0.931 . S
H38 C17 0.931 . S
H39 C18 0.931 . S
Gd40 C43 2.818 1_554 S
Gd40 O60 2.377 . S
Gd40 O62 2.448 . S
Gd40 O63 2.506 1_554 S
Gd40 O64 2.435 . S
Gd40 O65 2.717 . S
Gd40 O67 2.395 . S
Gd40 O71 2.327 1_554 S
Gd41 C52 2.818 1_556 S
Gd41 O61 2.395 . S
Gd41 O65 2.327 1_556 S
Gd41 O66 2.377 . S
Gd41 O68 2.448 . S
Gd41 O69 2.506 1_556 S
Gd41 O70 2.435 . S
Gd41 O71 2.717 . S
C42 O60 1.240 . S
C42 O61 1.240 1_554 S
C43 Gd40 2.818 1_556 S
C43 C44 1.510 . S
C43 O62 1.249 1_556 S
C43 O63 1.252 . S
C44 C43 1.510 . S
C44 C45 1.404 1_556 S
C44 C46 1.352 . S
C45 C44 1.404 1_554 S
C45 C49 1.389 . S
C45 H72 0.930 . S
C46 C44 1.352 . S
C46 C48 1.374 . S
C46 H73 0.931 . S
C47 C48 1.359 . S
C47 C49 1.364 1_556 S
C48 C46 1.374 . S
C48 C47 1.359 . S
C48 H74 0.931 . S
C49 C45 1.389 . S
C49 C47 1.364 1_554 S
C49 H75 0.931 . S
C50 O64 1.256 . S
C50 O65 1.257 . S
C51 O66 1.240 . S
C51 O67 1.240 1_556 S
C52 Gd41 2.818 1_554 S
C52 C53 1.510 . S
C52 O68 1.249 1_554 S
C52 O69 1.252 . S
C53 C52 1.510 . S
C53 C54 1.404 1_554 S
C53 C55 1.352 . S
C54 C53 1.404 1_556 S
C54 C58 1.389 . S
C54 H76 0.930 . S
C55 C53 1.352 . S
C55 C57 1.374 . S
C55 H77 0.931 . S
C56 C57 1.359 1_455 S
C56 C58 1.364 1_454 S
C57 C55 1.374 . S
C57 C56 1.359 1_655 S
C57 H78 0.931 . S
C58 C54 1.389 . S
C58 C56 1.364 1_656 S
C58 H79 0.931 1_655 S
C59 O70 1.256 . S
C59 O71 1.257 . S
O60 Gd40 2.377 . S
O60 C42 1.240 . S
O61 Gd41 2.395 . S
O61 C42 1.240 1_556 S
O62 Gd40 2.448 . S
O62 C43 1.249 1_554 S
O63 Gd40 2.506 1_556 S
O63 C43 1.252 . S
O64 Gd40 2.435 . S
O64 C50 1.256 . S
O65 Gd40 2.717 . S
O65 Gd41 2.327 1_554 S
O65 C50 1.257 . S
O66 Gd41 2.377 . S
O66 C51 1.240 . S
O67 Gd40 2.395 . S
O67 C51 1.240 1_554 S
O68 Gd41 2.448 . S
O68 C52 1.249 1_556 S
O69 Gd41 2.506 1_554 S
O69 C52 1.252 . S
O70 Gd41 2.435 . S
O70 C59 1.256 . S
O71 Gd40 2.327 1_556 S
O71 Gd41 2.717 . S
O71 C59 1.257 . S
H72 C45 0.930 . S
H73 C46 0.931 . S
H74 C48 0.931 . S
H75 C49 0.931 . S
H76 C54 0.930 . S
H77 C55 0.931 . S
H78 C57 0.931 . S
H79 C58 0.931 1_455 S
Gd80 C83 2.818 1_554 S
Gd80 O100 2.377 1_565 S
Gd80 O102 2.448 . S
Gd80 O103 2.506 1_554 S
Gd80 O104 2.435 . S
Gd80 O105 2.717 1_565 S
Gd80 O107 2.395 . S
Gd80 O111 2.327 1_564 S
Gd81 C92 2.818 1_556 S
Gd81 O101 2.395 . S
Gd81 O105 2.327 1_556 S
Gd81 O106 2.377 . S
Gd81 O108 2.448 . S
Gd81 O109 2.506 1_556 S
Gd81 O110 2.435 . S
Gd81 O111 2.717 . S
C82 O100 1.240 . S
C82 O101 1.240 1_554 S
C83 Gd80 2.818 1_556 S
C83 C84 1.510 . S
C83 O102 1.249 1_556 S
C83 O103 1.252 . S
C84 C83 1.510 . S
C84 C85 1.404 1_556 S
C84 C86 1.352 . S
C85 C84 1.404 1_554 S
C85 C89 1.389 . S
C85 H112 0.930 . S
C86 C84 1.352 . S
C86 C88 1.374 . S
C86 H113 0.931 . S
C87 C88 1.359 . S
C87 C89 1.364 1_556 S
C88 C86 1.374 . S
C88 C87 1.359 . S
C88 H114 0.931 . S
C89 C85 1.389 . S
C89 C87 1.364 1_554 S
C89 H115 0.931 . S
C90 O104 1.256 1_545 S
C90 O105 1.257 . S
C91 O106 1.240 1_565 S
C91 O107 1.240 1_556 S
C92 Gd81 2.818 1_554 S
C92 C93 1.510 . S
C92 O108 1.249 1_554 S
C92 O109 1.252 . S
C93 C92 1.510 . S
C93 C94 1.404 1_554 S
C93 C95 1.352 . S
C94 C93 1.404 1_556 S
C94 C98 1.389 . S
C94 H116 0.930 . S
C95 C93 1.352 . S
C95 C97 1.374 . S
C95 H117 0.931 . S
C96 C97 1.359 . S
C96 C98 1.364 1_554 S
C97 C95 1.374 . S
C97 C96 1.359 . S
C97 H118 0.931 . S
C98 C94 1.389 . S
C98 C96 1.364 1_556 S
C98 H119 0.931 . S
C99 O110 1.256 . S
C99 O111 1.257 . S
O100 Gd80 2.377 1_545 S
O100 C82 1.240 . S
O101 Gd81 2.395 . S
O101 C82 1.240 1_556 S
O102 Gd80 2.448 . S
O102 C83 1.249 1_554 S
O103 Gd80 2.506 1_556 S
O103 C83 1.252 . S
O104 Gd80 2.435 . S
O104 C90 1.256 1_565 S
O105 Gd80 2.717 1_545 S
O105 Gd81 2.327 1_554 S
O105 C90 1.257 . S
O106 Gd81 2.377 . S
O106 C91 1.240 1_545 S
O107 Gd80 2.395 . S
O107 C91 1.240 1_554 S
O108 Gd81 2.448 . S
O108 C92 1.249 1_556 S
O109 Gd81 2.506 1_554 S
O109 C92 1.252 . S
O110 Gd81 2.435 . S
O110 C99 1.256 . S
O111 Gd80 2.327 1_546 S
O111 Gd81 2.717 . S
O111 C99 1.257 . S
H112 C85 0.930 . S
H113 C86 0.931 . S
H114 C88 0.931 . S
H115 C89 0.931 . S
H116 C94 0.930 . S
H117 C95 0.931 . S
H118 C97 0.931 . S
H119 C98 0.931 . S
Gd120 C123 2.818 . S
Gd120 O140 2.377 . S
Gd120 O142 2.448 . S
Gd120 O143 2.506 . S
Gd120 O144 2.435 . S
Gd120 O145 2.717 . S
Gd120 O147 2.395 . S
Gd120 O151 2.327 . S
Gd121 C132 2.818 . S
Gd121 O141 2.395 . S
Gd121 O145 2.327 . S
Gd121 O146 2.377 . S
Gd121 O148 2.448 . S
Gd121 O149 2.506 . S
Gd121 O150 2.435 . S
Gd121 O151 2.717 . S
C122 O140 1.240 . S
C122 O141 1.240 . S
C123 Gd120 2.818 . S
C123 C124 1.510 . S
C123 O142 1.249 . S
C123 O143 1.252 . S
C124 C123 1.510 . S
C124 C125 1.404 . S
C124 C126 1.352 . S
C125 C124 1.404 . S
C125 C129 1.389 . S
C125 H152 0.930 . S
C126 C124 1.352 . S
C126 C128 1.374 . S
C126 H153 0.931 . S
C127 C128 1.359 . S
C127 C129 1.364 . S
C128 C126 1.374 . S
C128 C127 1.359 . S
C128 H154 0.931 . S
C129 C125 1.389 . S
C129 C127 1.364 . S
C129 H155 0.931 . S
C130 O144 1.256 . S
C130 O145 1.257 . S
C131 O146 1.240 . S
C131 O147 1.240 . S
C132 Gd121 2.818 . S
C132 C133 1.510 . S
C132 O148 1.249 . S
C132 O149 1.252 . S
C133 C132 1.510 . S
C133 C134 1.404 . S
C133 C135 1.352 . S
C134 C133 1.404 . S
C134 C138 1.389 . S
C134 H156 0.930 . S
C135 C133 1.352 . S
C135 C137 1.374 . S
C135 H157 0.931 . S
C136 C137 1.359 . S
C136 C138 1.364 . S
C137 C135 1.374 . S
C137 C136 1.359 . S
C137 H158 0.931 . S
C138 C134 1.389 . S
C138 C136 1.364 . S
C138 H159 0.931 . S
C139 O150 1.256 . S
C139 O151 1.257 . S
O140 Gd120 2.377 . S
O140 C122 1.240 . S
O141 Gd121 2.395 . S
O141 C122 1.240 . S
O142 Gd120 2.448 . S
O142 C123 1.249 . S
O143 Gd120 2.506 . S
O143 C123 1.252 . S
O144 Gd120 2.435 . S
O144 C130 1.256 . S
O145 Gd120 2.717 . S
O145 Gd121 2.327 . S
O145 C130 1.257 . S
O146 Gd121 2.377 . S
O146 C131 1.240 . S
O147 Gd120 2.395 . S
O147 C131 1.240 . S
O148 Gd121 2.448 . S
O148 C132 1.249 . S
O149 Gd121 2.506 . S
O149 C132 1.252 . S
O150 Gd121 2.435 . S
O150 C139 1.256 . S
O151 Gd120 2.327 . S
O151 Gd121 2.717 . S
O151 C139 1.257 . S
H152 C125 0.930 . S
H153 C126 0.931 . S
H154 C128 0.931 . S
H155 C129 0.931 . S
H156 C134 0.930 . S
H157 C135 0.931 . S
H158 C137 0.931 . S
H159 C138 0.931 . S
Gd160 C163 2.818 . S
Gd160 O180 2.377 . S
Gd160 O182 2.448 . S
Gd160 O183 2.506 . S
Gd160 O184 2.435 . S
Gd160 O185 2.717 . S
Gd160 O187 2.395 . S
Gd160 O191 2.327 . S
Gd161 C172 2.818 . S
Gd161 O181 2.395 . S
Gd161 O185 2.327 . S
Gd161 O186 2.377 . S
Gd161 O188 2.448 . S
Gd161 O189 2.506 . S
Gd161 O190 2.435 . S
Gd161 O191 2.717 . S
C162 O180 1.240 . S
C162 O181 1.240 . S
C163 Gd160 2.818 . S
C163 C164 1.510 . S
C163 O182 1.249 . S
C163 O183 1.252 . S
C164 C163 1.510 . S
C164 C165 1.404 . S
C164 C166 1.352 . S
C165 C164 1.404 . S
C165 C169 1.389 . S
C165 H192 0.930 . S
C166 C164 1.352 . S
C166 C168 1.374 . S
C166 H193 0.931 . S
C167 C168 1.359 . S
C167 C169 1.364 . S
C168 C166 1.374 . S
C168 C167 1.359 . S
C168 H194 0.931 . S
C169 C165 1.389 . S
C169 C167 1.364 . S
C169 H195 0.931 . S
C170 O184 1.256 . S
C170 O185 1.257 . S
C171 O186 1.240 . S
C171 O187 1.240 . S
C172 Gd161 2.818 . S
C172 C173 1.510 . S
C172 O188 1.249 . S
C172 O189 1.252 . S
C173 C172 1.510 . S
C173 C174 1.404 . S
C173 C175 1.352 . S
C174 C173 1.404 . S
C174 C178 1.389 . S
C174 H196 0.930 . S
C175 C173 1.352 . S
C175 C177 1.374 . S
C175 H197 0.931 . S
C176 C177 1.359 . S
C176 C178 1.364 . S
C177 C175 1.374 . S
C177 C176 1.359 . S
C177 H198 0.931 . S
C178 C174 1.389 . S
C178 C176 1.364 . S
C178 H199 0.931 . S
C179 O190 1.256 . S
C179 O191 1.257 . S
O180 Gd160 2.377 . S
O180 C162 1.240 . S
O181 Gd161 2.395 . S
O181 C162 1.240 . S
O182 Gd160 2.448 . S
O182 C163 1.249 . S
O183 Gd160 2.506 . S
O183 C163 1.252 . S
O184 Gd160 2.435 . S
O184 C170 1.256 . S
O185 Gd160 2.717 . S
O185 Gd161 2.327 . S
O185 C170 1.257 . S
O186 Gd161 2.377 . S
O186 C171 1.240 . S
O187 Gd160 2.395 . S
O187 C171 1.240 . S
O188 Gd161 2.448 . S
O188 C172 1.249 . S
O189 Gd161 2.506 . S
O189 C172 1.252 . S
O190 Gd161 2.435 . S
O190 C179 1.256 . S
O191 Gd160 2.327 . S
O191 Gd161 2.717 . S
O191 C179 1.257 . S
H192 C165 0.930 . S
H193 C166 0.931 . S
H194 C168 0.931 . S
H195 C169 0.931 . S
H196 C174 0.930 . S
H197 C175 0.931 . S
H198 C177 0.931 . S
H199 C178 0.931 . S
Gd200 C203 2.818 . S
Gd200 O220 2.377 . S
Gd200 O222 2.448 . S
Gd200 O223 2.506 . S
Gd200 O224 2.435 . S
Gd200 O225 2.717 . S
Gd200 O227 2.395 . S
Gd200 O231 2.327 . S
Gd201 C212 2.818 . S
Gd201 O221 2.395 . S
Gd201 O225 2.327 . S
Gd201 O226 2.377 . S
Gd201 O228 2.448 . S
Gd201 O229 2.506 . S
Gd201 O230 2.435 . S
Gd201 O231 2.717 . S
C202 O220 1.240 . S
C202 O221 1.240 . S
C203 Gd200 2.818 . S
C203 C204 1.510 . S
C203 O222 1.249 . S
C203 O223 1.252 . S
C204 C203 1.510 . S
C204 C205 1.404 . S
C204 C206 1.352 . S
C205 C204 1.404 . S
C205 C209 1.389 . S
C205 H232 0.930 . S
C206 C204 1.352 . S
C206 C208 1.374 . S
C206 H233 0.931 . S
C207 C208 1.359 . S
C207 C209 1.364 . S
C208 C206 1.374 . S
C208 C207 1.359 . S
C208 H234 0.931 . S
C209 C205 1.389 . S
C209 C207 1.364 . S
C209 H235 0.931 . S
C210 O224 1.256 . S
C210 O225 1.257 . S
C211 O226 1.240 . S
C211 O227 1.240 . S
C212 Gd201 2.818 . S
C212 C213 1.510 . S
C212 O228 1.249 . S
C212 O229 1.252 . S
C213 C212 1.510 . S
C213 C214 1.404 . S
C213 C215 1.352 . S
C214 C213 1.404 . S
C214 C218 1.389 . S
C214 H236 0.930 . S
C215 C213 1.352 . S
C215 C217 1.374 . S
C215 H237 0.931 . S
C216 C217 1.359 . S
C216 C218 1.364 . S
C217 C215 1.374 . S
C217 C216 1.359 . S
C217 H238 0.931 . S
C218 C214 1.389 . S
C218 C216 1.364 . S
C218 H239 0.931 . S
C219 O230 1.256 . S
C219 O231 1.257 . S
O220 Gd200 2.377 . S
O220 C202 1.240 . S
O221 Gd201 2.395 . S
O221 C202 1.240 . S
O222 Gd200 2.448 . S
O222 C203 1.249 . S
O223 Gd200 2.506 . S
O223 C203 1.252 . S
O224 Gd200 2.435 . S
O224 C210 1.256 . S
O225 Gd200 2.717 . S
O225 Gd201 2.327 . S
O225 C210 1.257 . S
O226 Gd201 2.377 . S
O226 C211 1.240 . S
O227 Gd200 2.395 . S
O227 C211 1.240 . S
O228 Gd201 2.448 . S
O228 C212 1.249 . S
O229 Gd201 2.506 . S
O229 C212 1.252 . S
O230 Gd201 2.435 . S
O230 C219 1.256 . S
O231 Gd200 2.327 . S
O231 Gd201 2.717 . S
O231 C219 1.257 . S
H232 C205 0.930 . S
H233 C206 0.931 . S
H234 C208 0.931 . S
H235 C209 0.931 . S
H236 C214 0.930 . S
H237 C215 0.931 . S
H238 C217 0.931 . S
H239 C218 0.931 . S
Gd240 C243 2.818 . S
Gd240 O260 2.377 . S
Gd240 O262 2.448 . S
Gd240 O263 2.506 . S
Gd240 O264 2.435 . S
Gd240 O265 2.717 . S
Gd240 O267 2.395 . S
Gd240 O271 2.327 . S
Gd241 C252 2.818 . S
Gd241 O261 2.395 . S
Gd241 O265 2.327 . S
Gd241 O266 2.377 . S
Gd241 O268 2.448 . S
Gd241 O269 2.506 . S
Gd241 O270 2.435 . S
Gd241 O271 2.717 . S
C242 O260 1.240 . S
C242 O261 1.240 . S
C243 Gd240 2.818 . S
C243 C244 1.510 . S
C243 O262 1.249 . S
C243 O263 1.252 . S
C244 C243 1.510 . S
C244 C245 1.404 . S
C244 C246 1.352 . S
C245 C244 1.404 . S
C245 C249 1.389 1_565 S
C245 H272 0.930 . S
C246 C244 1.352 . S
C246 C248 1.374 . S
C246 H273 0.931 . S
C247 C248 1.359 1_545 S
C247 C249 1.364 . S
C248 C246 1.374 . S
C248 C247 1.359 1_565 S
C248 H274 0.931 . S
C249 C245 1.389 1_545 S
C249 C247 1.364 . S
C249 H275 0.931 . S
C250 O264 1.256 . S
C250 O265 1.257 . S
C251 O266 1.240 . S
C251 O267 1.240 . S
C252 Gd241 2.818 . S
C252 C253 1.510 . S
C252 O268 1.249 . S
C252 O269 1.252 . S
C253 C252 1.510 . S
C253 C254 1.404 . S
C253 C255 1.352 . S
C254 C253 1.404 . S
C254 C258 1.389 . S
C254 H276 0.930 . S
C255 C253 1.352 . S
C255 C257 1.374 . S
C255 H277 0.931 . S
C256 C257 1.359 . S
C256 C258 1.364 . S
C257 C255 1.374 . S
C257 C256 1.359 . S
C257 H278 0.931 . S
C258 C254 1.389 . S
C258 C256 1.364 . S
C258 H279 0.931 . S
C259 O270 1.256 . S
C259 O271 1.257 . S
O260 Gd240 2.377 . S
O260 C242 1.240 . S
O261 Gd241 2.395 . S
O261 C242 1.240 . S
O262 Gd240 2.448 . S
O262 C243 1.249 . S
O263 Gd240 2.506 . S
O263 C243 1.252 . S
O264 Gd240 2.435 . S
O264 C250 1.256 . S
O265 Gd240 2.717 . S
O265 Gd241 2.327 . S
O265 C250 1.257 . S
O266 Gd241 2.377 . S
O266 C251 1.240 . S
O267 Gd240 2.395 . S
O267 C251 1.240 . S
O268 Gd241 2.448 . S
O268 C252 1.249 . S
O269 Gd241 2.506 . S
O269 C252 1.252 . S
O270 Gd241 2.435 . S
O270 C259 1.256 . S
O271 Gd240 2.327 . S
O271 Gd241 2.717 . S
O271 C259 1.257 . S
H272 C245 0.930 . S
H273 C246 0.931 . S
H274 C248 0.931 . S
H275 C249 0.931 . S
H276 C254 0.930 . S
H277 C255 0.931 . S
H278 C257 0.931 . S
H279 C258 0.931 . S
Gd280 C283 2.818 . S
Gd280 O300 2.377 . S
Gd280 O302 2.448 . S
Gd280 O303 2.506 . S
Gd280 O304 2.435 . S
Gd280 O305 2.717 . S
Gd280 O307 2.395 . S
Gd280 O311 2.327 . S
Gd281 C292 2.818 . S
Gd281 O301 2.395 . S
Gd281 O305 2.327 . S
Gd281 O306 2.377 . S
Gd281 O308 2.448 . S
Gd281 O309 2.506 . S
Gd281 O310 2.435 . S
Gd281 O311 2.717 . S
C282 O300 1.240 . S
C282 O301 1.240 . S
C283 Gd280 2.818 . S
C283 C284 1.510 . S
C283 O302 1.249 . S
C283 O303 1.252 . S
C284 C283 1.510 . S
C284 C285 1.404 . S
C284 C286 1.352 . S
C285 C284 1.404 . S
C285 C289 1.389 . S
C285 H312 0.930 . S
C286 C284 1.352 . S
C286 C288 1.374 . S
C286 H313 0.931 . S
C287 C288 1.359 . S
C287 C289 1.364 . S
C288 C286 1.374 . S
C288 C287 1.359 . S
C288 H314 0.931 . S
C289 C285 1.389 . S
C289 C287 1.364 . S
C289 H315 0.931 . S
C290 O304 1.256 . S
C290 O305 1.257 . S
C291 O306 1.240 . S
C291 O307 1.240 . S
C292 Gd281 2.818 . S
C292 C293 1.510 . S
C292 O308 1.249 . S
C292 O309 1.252 . S
C293 C292 1.510 . S
C293 C294 1.404 . S
C293 C295 1.352 . S
C294 C293 1.404 . S
C294 C298 1.389 . S
C294 H316 0.930 . S
C295 C293 1.352 . S
C295 C297 1.374 . S
C295 H317 0.931 . S
C296 C297 1.359 . S
C296 C298 1.364 . S
C297 C295 1.374 . S
C297 C296 1.359 . S
C297 H318 0.931 . S
C298 C294 1.389 . S
C298 C296 1.364 . S
C298 H319 0.931 . S
C299 O310 1.256 . S
C299 O311 1.257 . S
O300 Gd280 2.377 . S
O300 C282 1.240 . S
O301 Gd281 2.395 . S
O301 C282 1.240 . S
O302 Gd280 2.448 . S
O302 C283 1.249 . S
O303 Gd280 2.506 . S
O303 C283 1.252 . S
O304 Gd280 2.435 . S
O304 C290 1.256 . S
O305 Gd280 2.717 . S
O305 Gd281 2.327 . S
O305 C290 1.257 . S
O306 Gd281 2.377 . S
O306 C291 1.240 . S
O307 Gd280 2.395 . S
O307 C291 1.240 . S
O308 Gd281 2.448 . S
O308 C292 1.249 . S
O309 Gd281 2.506 . S
O309 C292 1.252 . S
O310 Gd281 2.435 . S
O310 C299 1.256 . S
O311 Gd280 2.327 . S
O311 Gd281 2.717 . S
O311 C299 1.257 . S
H312 C285 0.930 . S
H313 C286 0.931 . S
H314 C288 0.931 . S
H315 C289 0.931 . S
H316 C294 0.930 . S
H317 C295 0.931 . S
H318 C297 0.931 . S
H319 C298 0.931 . S
Gd320 C323 2.818 . S
Gd320 O340 2.377 . S
Gd320 O342 2.448 . S
Gd320 O343 2.506 . S
Gd320 O344 2.435 . S
Gd320 O345 2.717 . S
Gd320 O347 2.395 . S
Gd320 O351 2.327 . S
Gd321 C332 2.818 . S
Gd321 O341 2.395 . S
Gd321 O345 2.327 . S
Gd321 O346 2.377 . S
Gd321 O348 2.448 . S
Gd321 O349 2.506 . S
Gd321 O350 2.435 . S
Gd321 O351 2.717 . S
C322 O340 1.240 . S
C322 O341 1.240 . S
C323 Gd320 2.818 . S
C323 C324 1.510 . S
C323 O342 1.249 . S
C323 O343 1.252 . S
C324 C323 1.510 . S
C324 C325 1.404 . S
C324 C326 1.352 . S
C325 C324 1.404 . S
C325 C329 1.389 . S
C325 H352 0.930 . S
C326 C324 1.352 . S
C326 C328 1.374 . S
C326 H353 0.931 . S
C327 C328 1.359 . S
C327 C329 1.364 . S
C328 C326 1.374 . S
C328 C327 1.359 . S
C328 H354 0.931 . S
C329 C325 1.389 . S
C329 C327 1.364 . S
C329 H355 0.931 . S
C330 O344 1.256 . S
C330 O345 1.257 . S
C331 O346 1.240 . S
C331 O347 1.240 . S
C332 Gd321 2.818 . S
C332 C333 1.510 . S
C332 O348 1.249 . S
C332 O349 1.252 . S
C333 C332 1.510 . S
C333 C334 1.404 . S
C333 C335 1.352 . S
C334 C333 1.404 . S
C334 C338 1.389 . S
C334 H356 0.930 . S
C335 C333 1.352 . S
C335 C337 1.374 . S
C335 H357 0.931 . S
C336 C337 1.359 . S
C336 C338 1.364 . S
C337 C335 1.374 . S
C337 C336 1.359 . S
C337 H358 0.931 . S
C338 C334 1.389 . S
C338 C336 1.364 . S
C338 H359 0.931 . S
C339 O350 1.256 . S
C339 O351 1.257 . S
O340 Gd320 2.377 . S
O340 C322 1.240 . S
O341 Gd321 2.395 . S
O341 C322 1.240 . S
O342 Gd320 2.448 . S
O342 C323 1.249 . S
O343 Gd320 2.506 . S
O343 C323 1.252 . S
O344 Gd320 2.435 . S
O344 C330 1.256 . S
O345 Gd320 2.717 . S
O345 Gd321 2.327 . S
O345 C330 1.257 . S
O346 Gd321 2.377 . S
O346 C331 1.240 . S
O347 Gd320 2.395 . S
O347 C331 1.240 . S
O348 Gd321 2.448 . S
O348 C332 1.249 . S
O349 Gd321 2.506 . S
O349 C332 1.252 . S
O350 Gd321 2.435 . S
O350 C339 1.256 . S
O351 Gd320 2.327 . S
O351 Gd321 2.717 . S
O351 C339 1.257 . S
H352 C325 0.930 . S
H353 C326 0.931 . S
H354 C328 0.931 . S
H355 C329 0.931 . S
H356 C334 0.930 . S
H357 C335 0.931 . S
H358 C337 0.931 . S
H359 C338 0.931 . S
C360 C361 1.387 . S
C360 H364 0.950 . S
C360 C369 1.390 . S
C361 C360 1.387 . S
C361 C363 1.387 . S
H362 C369 0.950 . S
C363 C361 1.387 . S
C363 C365 1.390 . S
C363 H367 0.950 . S
H364 C360 0.950 . S
C365 C363 1.390 . S
C365 C366 1.387 . S
C365 H368 0.950 . S
C366 C365 1.387 . S
C366 C369 1.387 . S
H367 C363 0.950 . S
H368 C365 0.950 . S
C369 C360 1.390 . S
C369 H362 0.950 . S
C369 C366 1.387 . S
C370 C371 1.387 . S
C370 H374 0.950 1_556 S
C370 C379 1.390 . S
C371 C370 1.387 . S
C371 C373 1.387 . S
H372 C379 0.950 . S
C373 C371 1.387 . S
C373 C375 1.390 . S
C373 H377 0.950 . S
H374 C370 0.950 1_554 S
C375 C373 1.390 . S
C375 C376 1.387 . S
C375 H378 0.950 . S
C376 C375 1.387 . S
C376 C379 1.387 . S
H377 C373 0.950 . S
H378 C375 0.950 . S
C379 C370 1.390 . S
C379 H372 0.950 . S
C379 C376 1.387 . S
C380 C381 1.387 . S
C380 H384 0.950 1_556 S
C380 C389 1.390 . S
C381 C380 1.387 . S
C381 C383 1.387 . S
H382 C389 0.950 . S
C383 C381 1.387 . S
C383 C385 1.390 . S
C383 H387 0.950 . S
H384 C380 0.950 1_554 S
C385 C383 1.390 . S
C385 C386 1.387 . S
C385 H388 0.950 . S
C386 C385 1.387 . S
C386 C389 1.387 . S
H387 C383 0.950 . S
H388 C385 0.950 . S
C389 C380 1.390 . S
C389 H382 0.950 . S
C389 C386 1.387 . S
C390 C391 1.387 . S
C390 H394 0.950 . S
C390 C399 1.390 . S
C391 C390 1.387 . S
C391 C393 1.387 . S
H392 C399 0.950 . S
C393 C391 1.387 . S
C393 C395 1.390 1_554 S
C393 H397 0.950 . S
H394 C390 0.950 . S
C395 C393 1.390 1_556 S
C395 C396 1.387 1_556 S
C395 H398 0.950 . S
C396 C395 1.387 1_554 S
C396 C399 1.387 . S
H397 C393 0.950 . S
H398 C395 0.950 . S
C399 C390 1.390 . S
C399 H392 0.950 . S
C399 C396 1.387 . S
C400 C401 1.387 . S
C400 H404 0.950 . S
C400 C409 1.390 . S
C401 C400 1.387 . S
C401 C403 1.387 . S
H402 C409 0.950 . S
C403 C401 1.387 . S
C403 C405 1.390 1_554 S
C403 H407 0.950 . S
H404 C400 0.950 . S
C405 C403 1.390 1_556 S
C405 C406 1.387 1_556 S
C405 H408 0.950 . S
C406 C405 1.387 1_554 S
C406 C409 1.387 . S
H407 C403 0.950 . S
H408 C405 0.950 . S
C409 C400 1.390 . S
C409 H402 0.950 . S
C409 C406 1.387 . S
C410 C411 1.387 . S
C410 H414 0.950 . S
C410 C419 1.390 . S
C411 C410 1.387 . S
C411 C413 1.387 . S
H412 C419 0.950 . S
C413 C411 1.387 . S
C413 C415 1.390 . S
C413 H417 0.950 . S
H414 C410 0.950 . S
C415 C413 1.390 . S
C415 C416 1.387 . S
C415 H418 0.950 . S
C416 C415 1.387 . S
C416 C419 1.387 . S
H417 C413 0.950 . S
H418 C415 0.950 . S
C419 C410 1.390 . S
C419 H412 0.950 . S
C419 C416 1.387 . S
C420 C421 1.387 . S
C420 H424 0.950 . S
C420 C429 1.390 . S
C421 C420 1.387 . S
C421 C423 1.387 . S
H422 C429 0.950 . S
C423 C421 1.387 . S
C423 C425 1.390 . S
C423 H427 0.950 . S
H424 C420 0.950 . S
C425 C423 1.390 . S
C425 C426 1.387 . S
C425 H428 0.950 . S
C426 C425 1.387 . S
C426 C429 1.387 . S
H427 C423 0.950 . S
H428 C425 0.950 . S
C429 C420 1.390 . S
C429 H422 0.950 . S
C429 C426 1.387 . S
C430 C431 1.387 . S
C430 H434 0.950 . S
C430 C439 1.390 . S
C431 C430 1.387 . S
C431 C433 1.387 . S
H432 C439 0.950 . S
C433 C431 1.387 . S
C433 C435 1.390 . S
C433 H437 0.950 . S
H434 C430 0.950 . S
C435 C433 1.390 . S
C435 C436 1.387 . S
C435 H438 0.950 . S
C436 C435 1.387 . S
C436 C439 1.387 . S
H437 C433 0.950 . S
H438 C435 0.950 . S
C439 C430 1.390 . S
C439 H432 0.950 . S
C439 C436 1.387 . S
C440 C441 1.387 . S
C440 H444 0.950 . S
C440 C449 1.390 . S
C441 C440 1.387 . S
C441 C443 1.387 . S
H442 C449 0.950 . S
C443 C441 1.387 . S
C443 C445 1.390 . S
C443 H447 0.950 . S
H444 C440 0.950 . S
C445 C443 1.390 . S
C445 C446 1.387 . S
C445 H448 0.950 . S
C446 C445 1.387 . S
C446 C449 1.387 . S
H447 C443 0.950 . S
H448 C445 0.950 . S
C449 C440 1.390 . S
C449 H442 0.950 . S
C449 C446 1.387 . S
C450 C451 1.387 . S
C450 H454 0.950 . S
C450 C459 1.390 . S
C451 C450 1.387 . S
C451 C453 1.387 1_554 S
H452 C459 0.950 . S
C453 C451 1.387 1_556 S
C453 C455 1.390 . S
C453 H457 0.950 . S
H454 C450 0.950 . S
C455 C453 1.390 . S
C455 C456 1.387 1_556 S
C455 H458 0.950 . S
C456 C455 1.387 1_554 S
C456 C459 1.387 . S
H457 C453 0.950 . S
H458 C455 0.950 . S
C459 C450 1.390 . S
C459 H452 0.950 . S
C459 C456 1.387 . S
C460 C461 1.387 . S
C460 H464 0.950 . S
C460 C469 1.390 . S
C461 C460 1.387 . S
C461 C463 1.387 1_554 S
H462 C469 0.950 . S
C463 C461 1.387 1_556 S
C463 C465 1.390 1_556 S
C463 H467 0.950 . S
H464 C460 0.950 . S
C465 C463 1.390 1_554 S
C465 C466 1.387 . S
C465 H468 0.950 1_554 S
C466 C465 1.387 . S
C466 C469 1.387 . S
H467 C463 0.950 . S
H468 C465 0.950 1_556 S
C469 C460 1.390 . S
C469 H462 0.950 . S
C469 C466 1.387 . S
C470 C471 1.387 1_556 S
C470 H474 0.950 . S
C470 C479 1.390 . S
C471 C470 1.387 1_554 S
C471 C473 1.387 . S
H472 C479 0.950 . S
C473 C471 1.387 . S
C473 C475 1.390 . S
C473 H477 0.950 . S
H474 C470 0.950 . S
C475 C473 1.390 . S
C475 C476 1.387 . S
C475 H478 0.950 . S
C476 C475 1.387 . S
C476 C479 1.387 1_554 S
H477 C473 0.950 . S
H478 C475 0.950 . S
C479 C470 1.390 . S
C479 H472 0.950 . S
C479 C476 1.387 1_556 S
C480 C481 1.387 . S
C480 H484 0.950 . S
C480 C489 1.390 . S
C481 C480 1.387 . S
C481 C483 1.387 . S
H482 C489 0.950 . S
C483 C481 1.387 . S
C483 C485 1.390 . S
C483 H487 0.950 . S
H484 C480 0.950 . S
C485 C483 1.390 . S
C485 C486 1.387 . S
C485 H488 0.950 . S
C486 C485 1.387 . S
C486 C489 1.387 . S
H487 C483 0.950 . S
H488 C485 0.950 . S
C489 C480 1.390 . S
C489 H482 0.950 . S
C489 C486 1.387 . S
C490 C491 1.387 . S
C490 H494 0.950 . S
C490 C499 1.390 . S
C491 C490 1.387 . S
C491 C493 1.387 . S
H492 C499 0.950 . S
C493 C491 1.387 . S
C493 C495 1.390 . S
C493 H497 0.950 . S
H494 C490 0.950 . S
C495 C493 1.390 . S
C495 C496 1.387 . S
C495 H498 0.950 . S
C496 C495 1.387 . S
C496 C499 1.387 . S
H497 C493 0.950 . S
H498 C495 0.950 . S
C499 C490 1.390 . S
C499 H492 0.950 . S
C499 C496 1.387 . S
C500 C501 1.387 . S
C500 H504 0.950 . S
C500 C509 1.390 . S
C501 C500 1.387 . S
C501 C503 1.387 . S
H502 C509 0.950 . S
C503 C501 1.387 . S
C503 C505 1.390 . S
C503 H507 0.950 . S
H504 C500 0.950 . S
C505 C503 1.390 . S
C505 C506 1.387 . S
C505 H508 0.950 . S
C506 C505 1.387 . S
C506 C509 1.387 . S
H507 C503 0.950 . S
H508 C505 0.950 . S
C509 C500 1.390 . S
C509 H502 0.950 . S
C509 C506 1.387 . S
C510 C511 1.387 . S
C510 H514 0.950 . S
C510 C519 1.390 . S
C511 C510 1.387 . S
C511 C513 1.387 . S
H512 C519 0.950 . S
C513 C511 1.387 . S
C513 C515 1.390 . S
C513 H517 0.950 . S
H514 C510 0.950 . S
C515 C513 1.390 . S
C515 C516 1.387 . S
C515 H518 0.950 . S
C516 C515 1.387 . S
C516 C519 1.387 . S
H517 C513 0.950 . S
H518 C515 0.950 . S
C519 C510 1.390 . S
C519 H512 0.950 . S
C519 C516 1.387 . S
C520 C521 1.387 . S
C520 H524 0.950 . S
C520 C529 1.390 . S
C521 C520 1.387 . S
C521 C523 1.387 . S
H522 C529 0.950 . S
C523 C521 1.387 . S
C523 C525 1.390 . S
C523 H527 0.950 . S
H524 C520 0.950 . S
C525 C523 1.390 . S
C525 C526 1.387 . S
C525 H528 0.950 . S
C526 C525 1.387 . S
C526 C529 1.387 . S
H527 C523 0.950 . S
H528 C525 0.950 . S
C529 C520 1.390 . S
C529 H522 0.950 . S
C529 C526 1.387 . S
C530 C531 1.387 . S
C530 H534 0.950 . S
C530 C539 1.390 . S
C531 C530 1.387 . S
C531 C533 1.387 . S
H532 C539 0.950 . S
C533 C531 1.387 . S
C533 C535 1.390 . S
C533 H537 0.950 . S
H534 C530 0.950 . S
C535 C533 1.390 . S
C535 C536 1.387 . S
C535 H538 0.950 . S
C536 C535 1.387 . S
C536 C539 1.387 . S
H537 C533 0.950 . S
H538 C535 0.950 . S
C539 C530 1.390 . S
C539 H532 0.950 . S
C539 C536 1.387 . S
C540 C541 1.387 1_655 S
C540 H544 0.950 . S
C540 C549 1.390 . S
C541 C540 1.387 1_455 S
C541 C543 1.387 . S
H542 C549 0.950 . S
C543 C541 1.387 . S
C543 C545 1.390 . S
C543 H547 0.950 . S
H544 C540 0.950 . S
C545 C543 1.390 . S
C545 C546 1.387 . S
C545 H548 0.950 . S
C546 C545 1.387 . S
C546 C549 1.387 1_455 S
H547 C543 0.950 . S
H548 C545 0.950 . S
C549 C540 1.390 . S
C549 H542 0.950 . S
C549 C546 1.387 1_655 S
C550 C551 1.387 . S
C550 H554 0.950 . S
C550 C559 1.390 . S
C551 C550 1.387 . S
C551 C553 1.387 . S
H552 C559 0.950 . S
C553 C551 1.387 . S
C553 C555 1.390 . S
C553 H557 0.950 . S
H554 C550 0.950 . S
C555 C553 1.390 . S
C555 C556 1.387 . S
C555 H558 0.950 . S
C556 C555 1.387 . S
C556 C559 1.387 . S
H557 C553 0.950 . S
H558 C555 0.950 . S
C559 C550 1.390 . S
C559 H552 0.950 . S
C559 C556 1.387 . S
C560 C561 1.387 . S
C560 H564 0.950 . S
C560 C569 1.390 . S
C561 C560 1.387 . S
C561 C563 1.387 1_545 S
H562 C569 0.950 . S
C563 C561 1.387 1_565 S
C563 C565 1.390 . S
C563 H567 0.950 . S
H564 C560 0.950 . S
C565 C563 1.390 . S
C565 C566 1.387 1_565 S
C565 H568 0.950 . S
C566 C565 1.387 1_545 S
C566 C569 1.387 . S
H567 C563 0.950 . S
H568 C565 0.950 . S
C569 C560 1.390 . S
C569 H562 0.950 . S
C569 C566 1.387 . S
C570 C571 1.387 . S
C570 H574 0.950 . S
C570 C579 1.390 . S
C571 C570 1.387 . S
C571 C573 1.387 . S
H572 C579 0.950 . S
C573 C571 1.387 . S
C573 C575 1.390 . S
C573 H577 0.950 . S
H574 C570 0.950 . S
C575 C573 1.390 . S
C575 C576 1.387 . S
C575 H578 0.950 . S
C576 C575 1.387 . S
C576 C579 1.387 . S
H577 C573 0.950 . S
H578 C575 0.950 . S
C579 C570 1.390 . S
C579 H572 0.950 . S
C579 C576 1.387 . S
C580 C581 1.387 . S
C580 H584 0.950 . S
C580 C589 1.390 . S
C581 C580 1.387 . S
C581 C583 1.387 . S
H582 C589 0.950 . S
C583 C581 1.387 . S
C583 C585 1.390 . S
C583 H587 0.950 . S
H584 C580 0.950 . S
C585 C583 1.390 . S
C585 C586 1.387 . S
C585 H588 0.950 . S
C586 C585 1.387 . S
C586 C589 1.387 . S
H587 C583 0.950 . S
H588 C585 0.950 . S
C589 C580 1.390 . S
C589 H582 0.950 . S
C589 C586 1.387 . S
C590 C591 1.387 . S
C590 H594 0.950 . S
C590 C599 1.390 . S
C591 C590 1.387 . S
C591 C593 1.387 . S
H592 C599 0.950 . S
C593 C591 1.387 . S
C593 C595 1.390 . S
C593 H597 0.950 . S
H594 C590 0.950 . S
C595 C593 1.390 . S
C595 C596 1.387 . S
C595 H598 0.950 . S
C596 C595 1.387 . S
C596 C599 1.387 . S
H597 C593 0.950 . S
H598 C595 0.950 . S
C599 C590 1.390 . S
C599 H592 0.950 . S
C599 C596 1.387 . S
C600 C601 1.387 . S
C600 H604 0.950 . S
C600 C609 1.390 . S
C601 C600 1.387 . S
C601 C603 1.387 . S
H602 C609 0.950 . S
C603 C601 1.387 . S
C603 C605 1.390 . S
C603 H607 0.950 . S
H604 C600 0.950 . S
C605 C603 1.390 . S
C605 C606 1.387 . S
C605 H608 0.950 . S
C606 C605 1.387 . S
C606 C609 1.387 . S
H607 C603 0.950 . S
H608 C605 0.950 . S
C609 C600 1.390 . S
C609 H602 0.950 . S
C609 C606 1.387 . S
C610 C611 1.387 . S
C610 H614 0.950 . S
C610 C619 1.390 . S
C611 C610 1.387 . S
C611 C613 1.387 . S
H612 C619 0.950 . S
C613 C611 1.387 . S
C613 C615 1.390 . S
C613 H617 0.950 . S
H614 C610 0.950 . S
C615 C613 1.390 . S
C615 C616 1.387 . S
C615 H618 0.950 . S
C616 C615 1.387 . S
C616 C619 1.387 . S
H617 C613 0.950 . S
H618 C615 0.950 . S
C619 C610 1.390 . S
C619 H612 0.950 . S
C619 C616 1.387 . S
C620 C621 1.387 . S
C620 H624 0.950 . S
C620 C629 1.390 . S
C621 C620 1.387 . S
C621 C623 1.387 . S
H622 C629 0.950 . S
C623 C621 1.387 . S
C623 C625 1.390 . S
C623 H627 0.950 . S
H624 C620 0.950 . S
C625 C623 1.390 . S
C625 C626 1.387 . S
C625 H628 0.950 . S
C626 C625 1.387 . S
C626 C629 1.387 . S
H627 C623 0.950 . S
H628 C625 0.950 . S
C629 C620 1.390 . S
C629 H622 0.950 . S
C629 C626 1.387 . S
C361 C7 1.840 . S
C366 C282 1.800 . S
C371 C47 1.838 . S
C376 C322 1.797 . S
C381 C87 1.840 . S
C386 C242 1.799 . S
C391 C167 1.839 . S
C396 C82 1.798 . S
C401 C207 1.840 . S
C406 C2 1.799 . S
C411 C42 1.800 . S
C416 C127 1.840 . S
C421 C287 1.840 1_655 S
C426 C202 1.800 . S
C431 C327 1.838 . S
C436 C122 1.797 . S
C441 C162 1.797 . S
C446 C247 1.838 . S
C451 C96 1.679 . S
C456 C11 1.694 1_554 S
C461 C51 1.694 1_554 S
C466 C16 1.678 1_565 S
C471 C56 1.678 . S
C476 C91 1.694 1_554 S
C481 C131 1.695 . S
C486 C216 1.678 . S
C491 C136 1.678 . S
C496 C171 1.694 . S
C501 C176 1.678 . S
C506 C211 1.694 . S
C511 C336 1.678 . S
C516 C251 1.695 . S
C521 C291 1.694 . S
C526 C256 1.678 . S
C531 C331 1.694 . S
C536 C296 1.678 . S
C541 C19 1.125 1_455 S
C546 C10 1.125 . S
C551 C59 1.126 . S
C556 C50 1.126 . S
C561 C99 1.123 . S
C566 C90 1.123 . S
C571 C130 1.127 . S
C576 C139 1.127 1_556 S
C581 C170 1.126 . S
C586 C179 1.126 1_556 S
C591 C210 1.126 . S
C596 C219 1.126 1_556 S
C601 C259 1.124 . S
C606 C250 1.124 1_554 S
C611 C290 1.126 1_554 S
C616 C299 1.126 . S
C621 C339 1.127 . S
C626 C330 1.127 1_554 S
