# Generated by pormake.
# Topology vcq, (7)-cn, num edge types: 1
# Building blocks:
#     Node 0, Type 0, BuildingBlock: HICVOG_clean_sbu_0, # of connection points: 7
#     Node 1, Type 0, BuildingBlock: HICVOG_clean_sbu_0, # of connection points: 7
#     Node 2, Type 0, BuildingBlock: HICVOG_clean_sbu_0, # of connection points: 7
#     Node 3, Type 0, BuildingBlock: HICVOG_clean_sbu_0, # of connection points: 7
#     Node 4, Type 0, BuildingBlock: HICVOG_clean_sbu_0, # of connection points: 7
#     Node 5, Type 0, BuildingBlock: HICVOG_clean_sbu_0, # of connection points: 7
#     Node 6, Type 0, BuildingBlock: HICVOG_clean_sbu_0, # of connection points: 7
#     Node 7, Type 0, BuildingBlock: HICVOG_clean_sbu_0, # of connection points: 7
#     Node 8, Type 0, BuildingBlock: HICVOG_clean_sbu_0, # of connection points: 7
#     Node 9, Type 0, BuildingBlock: HICVOG_clean_sbu_0, # of connection points: 7
#     Node 10, Type 0, BuildingBlock: HICVOG_clean_sbu_0, # of connection points: 7
#     Node 11, Type 0, BuildingBlock: HICVOG_clean_sbu_0, # of connection points: 7
#     Node 12, Type 0, BuildingBlock: HICVOG_clean_sbu_0, # of connection points: 7
#     Node 13, Type 0, BuildingBlock: HICVOG_clean_sbu_0, # of connection points: 7
#     Node 14, Type 0, BuildingBlock: HICVOG_clean_sbu_0, # of connection points: 7
#     Node 15, Type 0, BuildingBlock: HICVOG_clean_sbu_0, # of connection points: 7
#     Edge 16, Type (0, 0), BuildingBlock: KIFKEQ_clean_linker_1, # of connection points: 2
#     Edge 17, Type (0, 0), BuildingBlock: KIFKEQ_clean_linker_1, # of connection points: 2
#     Edge 18, Type (0, 0), BuildingBlock: KIFKEQ_clean_linker_1, # of connection points: 2
#     Edge 19, Type (0, 0), BuildingBlock: KIFKEQ_clean_linker_1, # of connection points: 2
#     Edge 20, Type (0, 0), BuildingBlock: KIFKEQ_clean_linker_1, # of connection points: 2
#     Edge 21, Type (0, 0), BuildingBlock: KIFKEQ_clean_linker_1, # of connection points: 2
#     Edge 22, Type (0, 0), BuildingBlock: KIFKEQ_clean_linker_1, # of connection points: 2
#     Edge 23, Type (0, 0), BuildingBlock: KIFKEQ_clean_linker_1, # of connection points: 2
#     Edge 24, Type (0, 0), BuildingBlock: KIFKEQ_clean_linker_1, # of connection points: 2
#     Edge 25, Type (0, 0), BuildingBlock: KIFKEQ_clean_linker_1, # of connection points: 2
#     Edge 26, Type (0, 0), BuildingBlock: KIFKEQ_clean_linker_1, # of connection points: 2
#     Edge 27, Type (0, 0), BuildingBlock: KIFKEQ_clean_linker_1, # of connection points: 2
#     Edge 28, Type (0, 0), BuildingBlock: KIFKEQ_clean_linker_1, # of connection points: 2
#     Edge 29, Type (0, 0), BuildingBlock: KIFKEQ_clean_linker_1, # of connection points: 2
#     Edge 30, Type (0, 0), BuildingBlock: KIFKEQ_clean_linker_1, # of connection points: 2
#     Edge 31, Type (0, 0), BuildingBlock: KIFKEQ_clean_linker_1, # of connection points: 2
#     Edge 32, Type (0, 0), BuildingBlock: KIFKEQ_clean_linker_1, # of connection points: 2
#     Edge 33, Type (0, 0), BuildingBlock: KIFKEQ_clean_linker_1, # of connection points: 2
#     Edge 34, Type (0, 0), BuildingBlock: KIFKEQ_clean_linker_1, # of connection points: 2
#     Edge 35, Type (0, 0), BuildingBlock: KIFKEQ_clean_linker_1, # of connection points: 2
#     Edge 36, Type (0, 0), BuildingBlock: KIFKEQ_clean_linker_1, # of connection points: 2
#     Edge 37, Type (0, 0), BuildingBlock: KIFKEQ_clean_linker_1, # of connection points: 2
#     Edge 38, Type (0, 0), BuildingBlock: KIFKEQ_clean_linker_1, # of connection points: 2
#     Edge 39, Type (0, 0), BuildingBlock: KIFKEQ_clean_linker_1, # of connection points: 2
#     Edge 40, Type (0, 0), BuildingBlock: KIFKEQ_clean_linker_1, # of connection points: 2
#     Edge 41, Type (0, 0), BuildingBlock: KIFKEQ_clean_linker_1, # of connection points: 2
#     Edge 42, Type (0, 0), BuildingBlock: KIFKEQ_clean_linker_1, # of connection points: 2
#     Edge 43, Type (0, 0), BuildingBlock: KIFKEQ_clean_linker_1, # of connection points: 2
#     Edge 44, Type (0, 0), BuildingBlock: KIFKEQ_clean_linker_1, # of connection points: 2
#     Edge 45, Type (0, 0), BuildingBlock: KIFKEQ_clean_linker_1, # of connection points: 2
#     Edge 46, Type (0, 0), BuildingBlock: KIFKEQ_clean_linker_1, # of connection points: 2
#     Edge 47, Type (0, 0), BuildingBlock: KIFKEQ_clean_linker_1, # of connection points: 2
#     Edge 48, Type (0, 0), BuildingBlock: KIFKEQ_clean_linker_1, # of connection points: 2
#     Edge 49, Type (0, 0), BuildingBlock: KIFKEQ_clean_linker_1, # of connection points: 2
#     Edge 50, Type (0, 0), BuildingBlock: KIFKEQ_clean_linker_1, # of connection points: 2
#     Edge 51, Type (0, 0), BuildingBlock: KIFKEQ_clean_linker_1, # of connection points: 2
#     Edge 52, Type (0, 0), BuildingBlock: KIFKEQ_clean_linker_1, # of connection points: 2
#     Edge 53, Type (0, 0), BuildingBlock: KIFKEQ_clean_linker_1, # of connection points: 2
#     Edge 54, Type (0, 0), BuildingBlock: KIFKEQ_clean_linker_1, # of connection points: 2
#     Edge 55, Type (0, 0), BuildingBlock: KIFKEQ_clean_linker_1, # of connection points: 2
#     Edge 56, Type (0, 0), BuildingBlock: KIFKEQ_clean_linker_1, # of connection points: 2
#     Edge 57, Type (0, 0), BuildingBlock: KIFKEQ_clean_linker_1, # of connection points: 2
#     Edge 58, Type (0, 0), BuildingBlock: KIFKEQ_clean_linker_1, # of connection points: 2
#     Edge 59, Type (0, 0), BuildingBlock: KIFKEQ_clean_linker_1, # of connection points: 2
#     Edge 60, Type (0, 0), BuildingBlock: KIFKEQ_clean_linker_1, # of connection points: 2
#     Edge 61, Type (0, 0), BuildingBlock: KIFKEQ_clean_linker_1, # of connection points: 2
#     Edge 62, Type (0, 0), BuildingBlock: KIFKEQ_clean_linker_1, # of connection points: 2
#     Edge 63, Type (0, 0), BuildingBlock: KIFKEQ_clean_linker_1, # of connection points: 2
#     Edge 64, Type (0, 0), BuildingBlock: KIFKEQ_clean_linker_1, # of connection points: 2
#     Edge 65, Type (0, 0), BuildingBlock: KIFKEQ_clean_linker_1, # of connection points: 2
#     Edge 66, Type (0, 0), BuildingBlock: KIFKEQ_clean_linker_1, # of connection points: 2
#     Edge 67, Type (0, 0), BuildingBlock: KIFKEQ_clean_linker_1, # of connection points: 2
#     Edge 68, Type (0, 0), BuildingBlock: KIFKEQ_clean_linker_1, # of connection points: 2
#     Edge 69, Type (0, 0), BuildingBlock: KIFKEQ_clean_linker_1, # of connection points: 2
#     Edge 70, Type (0, 0), BuildingBlock: KIFKEQ_clean_linker_1, # of connection points: 2
#     Edge 71, Type (0, 0), BuildingBlock: KIFKEQ_clean_linker_1, # of connection points: 2
# Relax obj value: 0.277
# Max RMSD: 0.263
# Mean RMSD: 0.263
data_MOF--net-vcq--node1-HICVOG_clean_sbu_0--edge1-KIFKEQ_clean_linker_1
_symmetry_space_group_name_H-M    P1
_symmetry_Int_Tables_number       1
_symmetry_cell_setting            triclinic
loop_
_symmetry_equiv_pos_as_xyz
'x, y, z'
_cell_length_a     81.402701
_cell_length_b     33.989643
_cell_length_c     27.265947
_cell_angle_alpha  90.012263
_cell_angle_beta   89.913256
_cell_angle_gamma 90.018535
loop_
_atom_site_label
_atom_site_type_symbol
_atom_site_fract_x
_atom_site_fract_y
_atom_site_fract_z
_atom_type_partial_charge
Zn0 Zn 0.15355 0.37257 0.34374 0.0
C1 C 0.1361 0.32046 0.46423 0.0
N2 N 0.14453 0.34896 0.48702 0.0
C3 C 0.14879 0.37287 0.44997 0.0
N4 N 0.14315 0.35972 0.40625 0.0
N5 N 0.13495 0.32678 0.41547 0.0
C6 C 0.13392 0.22885 0.35746 0.0
O7 O 0.14588 0.25288 0.34511 0.0
O8 O 0.15367 0.43107 0.32846 0.0
Zn9 Zn 0.11854 0.30238 0.37382 0.0
N10 N 0.17601 0.35374 0.34994 0.0
C11 C 0.19353 0.30751 0.38945 0.0
C12 C 0.17787 0.32131 0.37862 0.0
C13 C 0.18931 0.37238 0.33022 0.0
N14 N 0.20679 0.32638 0.37066 0.0
C15 C 0.20517 0.35835 0.34108 0.0
O16 O 0.12024 0.31469 0.30144 0.0
C17 C 0.13034 0.32892 0.27047 0.0
O18 O 0.14318 0.34749 0.28379 0.0
H19 H 0.16726 0.30656 0.39374 0.0
H20 H 0.1876 0.39811 0.3074 0.0
C21 C 0.08274 0.29957 0.38679 0.0
C22 C 0.06795 0.31163 0.40921 0.0
C23 C 0.08253 0.36078 0.45304 0.0
C24 C 0.09705 0.34916 0.43048 0.0
N25 N 0.09704 0.31829 0.39868 0.0
N26 N 0.06839 0.34178 0.44203 0.0
H27 H 0.08293 0.27537 0.36099 0.0
C28 C 0.14073 0.4463 0.31035 0.0
O29 O 0.12754 0.42434 0.30578 0.0
O30 O 0.12072 0.24323 0.37498 0.0
H31 H 0.10829 0.3646 0.43878 0.0
H32 H 0.19517 0.28205 0.41273 0.0
H33 H 0.08246 0.38488 0.47896 0.0
Zn34 Zn 0.36743 0.63363 0.82862 0.0
C35 C 0.3851 0.68691 0.94878 0.0
N36 N 0.37733 0.6574 0.97176 0.0
C37 C 0.37293 0.63389 0.9345 0.0
N38 N 0.37789 0.64816 0.89058 0.0
N39 N 0.38568 0.68166 0.89983 0.0
C40 C 0.38742 0.78355 0.84682 0.0
O41 O 0.3752 0.7606 0.83375 0.0
O42 O 0.36749 0.57481 0.81738 0.0
Zn43 Zn 0.40106 0.70829 0.85698 0.0
N44 N 0.34512 0.6536 0.83443 0.0
C45 C 0.32897 0.70595 0.86656 0.0
C46 C 0.34418 0.68895 0.8576 0.0
C47 C 0.33129 0.63466 0.81885 0.0
N48 N 0.31521 0.68719 0.85138 0.0
C49 C 0.31578 0.65201 0.8275 0.0
O50 O 0.39686 0.69946 0.78593 0.0
C51 C 0.38848 0.68128 0.75396 0.0
O52 O 0.37735 0.65684 0.76617 0.0
H53 H 0.35521 0.70373 0.86952 0.0
H54 H 0.33239 0.60644 0.80079 0.0
C55 C 0.43706 0.70592 0.86468 0.0
C56 C 0.45194 0.68498 0.86817 0.0
C57 C 0.43702 0.62603 0.88214 0.0
C58 C 0.42235 0.64661 0.87801 0.0
N59 N 0.42258 0.68598 0.86916 0.0
N60 N 0.45142 0.64556 0.87674 0.0
H61 H 0.43697 0.73711 0.85669 0.0
C62 C 0.38118 0.55868 0.80712 0.0
O63 O 0.39462 0.58007 0.80882 0.0
O64 O 0.40049 0.76773 0.86324 0.0
H65 H 0.4108 0.63107 0.8806 0.0
H66 H 0.32807 0.73391 0.88532 0.0
H67 H 0.43699 0.59466 0.88879 0.0
Zn68 Zn 0.15429 0.63329 0.68995 0.0
C69 C 0.13056 0.68517 0.57644 0.0
N70 N 0.13754 0.65565 0.55135 0.0
C71 C 0.14399 0.6333 0.58693 0.0
N72 N 0.1412 0.64836 0.63213 0.0
N73 N 0.13263 0.68124 0.62539 0.0
C74 C 0.1332 0.78462 0.67927 0.0
O75 O 0.14618 0.76231 0.68604 0.0
O76 O 0.15302 0.57449 0.70517 0.0
Zn77 Zn 0.11978 0.70867 0.67473 0.0
N78 N 0.17677 0.64819 0.67398 0.0
C79 C 0.19372 0.69017 0.62575 0.0
C80 C 0.17825 0.67794 0.64092 0.0
C81 C 0.19034 0.63074 0.69372 0.0
N82 N 0.2072 0.67286 0.64515 0.0
C83 C 0.20612 0.64357 0.6791 0.0
O84 O 0.12773 0.70089 0.74313 0.0
C85 C 0.13788 0.68384 0.77123 0.0
O86 O 0.1484 0.65958 0.75465 0.0
H87 H 0.16747 0.6922 0.62627 0.0
H88 H 0.18879 0.60722 0.72003 0.0
C89 C 0.08345 0.70448 0.67368 0.0
C90 C 0.0688 0.6827 0.67922 0.0
C91 C 0.08445 0.6239 0.68514 0.0
C92 C 0.09885 0.64544 0.68011 0.0
N93 N 0.09814 0.68514 0.67476 0.0
N94 N 0.06984 0.64296 0.68485 0.0
H95 H 0.08322 0.73619 0.67017 0.0
C96 C 0.14179 0.56285 0.73441 0.0
O97 O 0.13112 0.58862 0.751 0.0
O98 O 0.11963 0.76816 0.66825 0.0
H99 H 0.11062 0.63075 0.68144 0.0
H100 H 0.19503 0.71355 0.59911 0.0
H101 H 0.08485 0.5923 0.68976 0.0
Zn102 Zn 0.36812 0.37551 0.19767 0.0
C103 C 0.37908 0.32175 0.07318 0.0
N104 N 0.37059 0.35162 0.05349 0.0
C105 C 0.36883 0.3764 0.09147 0.0
N106 N 0.37615 0.36255 0.13251 0.0
N107 N 0.38281 0.32827 0.12065 0.0
C108 C 0.38468 0.23004 0.18185 0.0
O109 O 0.37571 0.25626 0.20505 0.0
O110 O 0.36803 0.43401 0.21017 0.0
Zn111 Zn 0.39991 0.30078 0.1563 0.0
N112 N 0.3458 0.35505 0.19896 0.0
C113 C 0.3283 0.30363 0.17079 0.0
C114 C 0.34389 0.31985 0.17592 0.0
C115 C 0.33261 0.37452 0.21815 0.0
N116 N 0.31516 0.32309 0.18929 0.0
C117 C 0.31684 0.35805 0.21298 0.0
O118 O 0.40068 0.3117 0.22909 0.0
C119 C 0.39299 0.32914 0.26347 0.0
O120 O 0.38078 0.3515 0.25476 0.0
H121 H 0.35439 0.30468 0.16087 0.0
H122 H 0.33434 0.40252 0.23634 0.0
C123 C 0.43543 0.29676 0.13913 0.0
C124 C 0.45009 0.30804 0.11519 0.0
C125 C 0.43502 0.3544 0.06817 0.0
C126 C 0.42069 0.34383 0.09258 0.0
N127 N 0.42101 0.31467 0.12673 0.0
N128 N 0.4493 0.3364 0.08001 0.0
H129 H 0.43543 0.27407 0.16695 0.0
C130 C 0.38171 0.45079 0.21859 0.0
O131 O 0.3953 0.4302 0.21461 0.0
O132 O 0.39609 0.24203 0.15361 0.0
H133 H 0.4094 0.3589 0.08407 0.0
H134 H 0.32664 0.27582 0.15214 0.0
H135 H 0.43485 0.37713 0.0404 0.0
Zn136 Zn 0.86734 0.63594 0.69426 0.0
C137 C 0.88144 0.68974 0.57242 0.0
N138 N 0.87299 0.6606 0.55086 0.0
C139 C 0.87008 0.63585 0.58821 0.0
N140 N 0.87664 0.64905 0.63072 0.0
N141 N 0.88398 0.68289 0.62054 0.0
C142 C 0.88602 0.7815 0.67694 0.0
O143 O 0.87447 0.75743 0.69227 0.0
O144 O 0.86758 0.57739 0.70713 0.0
Zn145 Zn 0.90106 0.70785 0.65915 0.0
N146 N 0.84482 0.65501 0.69154 0.0
C147 C 0.82687 0.70241 0.65599 0.0
C148 C 0.84263 0.68808 0.66421 0.0
C149 C 0.83175 0.63622 0.71245 0.0
N150 N 0.81385 0.68345 0.67603 0.0
C151 C 0.81581 0.65083 0.70429 0.0
O152 O 0.90052 0.69617 0.7319 0.0
C153 C 0.89138 0.6806 0.76449 0.0
O154 O 0.8787 0.66056 0.75323 0.0
H155 H 0.85304 0.703 0.6482 0.0
H156 H 0.83371 0.61005 0.73427 0.0
C157 C 0.93664 0.70952 0.64288 0.0
C158 C 0.95122 0.6969 0.61961 0.0
C159 C 0.93591 0.64904 0.57566 0.0
C160 C 0.92164 0.6611 0.59925 0.0
N161 N 0.92213 0.69156 0.63161 0.0
N162 N 0.95029 0.66713 0.58633 0.0
H163 H 0.93678 0.73343 0.6691 0.0
C164 C 0.88127 0.56092 0.71626 0.0
O165 O 0.89482 0.58177 0.71273 0.0
O166 O 0.89884 0.76707 0.65711 0.0
H167 H 0.91022 0.64628 0.59136 0.0
H168 H 0.82498 0.72841 0.63382 0.0
H169 H 0.93561 0.62524 0.54933 0.0
Zn170 Zn 0.61845 0.30113 0.17761 0.0
C171 C 0.64142 0.37608 0.08678 0.0
N172 N 0.63529 0.35211 0.05219 0.0
C173 C 0.62868 0.32291 0.07873 0.0
N174 N 0.63075 0.32848 0.12736 0.0
N175 N 0.63896 0.362 0.13264 0.0
C176 C 0.64038 0.4469 0.23494 0.0
O177 O 0.62992 0.42078 0.25185 0.0
O178 O 0.61889 0.24181 0.17039 0.0
Zn179 Zn 0.65281 0.37726 0.18875 0.0
N180 N 0.59664 0.32371 0.17859 0.0
C181 C 0.58268 0.38439 0.19068 0.0
C182 C 0.59718 0.36331 0.18522 0.0
C183 C 0.58203 0.30405 0.1766 0.0
N184 N 0.56816 0.36499 0.18944 0.0
C185 C 0.56728 0.32536 0.18251 0.0
O186 O 0.64784 0.35055 0.25373 0.0
C187 C 0.63752 0.32662 0.27209 0.0
O188 O 0.6269 0.30939 0.2457 0.0
H189 H 0.60889 0.37825 0.18711 0.0
H190 H 0.58194 0.27243 0.17196 0.0
C191 C 0.68884 0.38011 0.19077 0.0
C192 C 0.7046 0.36818 0.17479 0.0
C193 C 0.69209 0.3238 0.11876 0.0
C194 C 0.67665 0.33506 0.13529 0.0
N195 N 0.67523 0.36335 0.17035 0.0
N196 N 0.70561 0.34045 0.13884 0.0
H197 H 0.68735 0.4024 0.21874 0.0
C198 C 0.63275 0.22734 0.18236 0.0
O199 O 0.64512 0.25154 0.18946 0.0
O200 O 0.65143 0.43576 0.20482 0.0
H201 H 0.66586 0.32117 0.12017 0.0
H202 H 0.58295 0.41589 0.1963 0.0
H203 H 0.69335 0.30161 0.09055 0.0
Zn204 Zn 0.86637 0.37719 0.32505 0.0
C205 C 0.88158 0.32385 0.44733 0.0
N206 N 0.87366 0.35368 0.46918 0.0
C207 C 0.87023 0.37762 0.43144 0.0
N208 N 0.87593 0.36327 0.38835 0.0
N209 N 0.88324 0.32937 0.39866 0.0
C210 C 0.88531 0.22936 0.33872 0.0
O211 O 0.87507 0.25452 0.31876 0.0
O212 O 0.86613 0.43597 0.31388 0.0
Zn213 Zn 0.89938 0.30233 0.35867 0.0
N214 N 0.84418 0.35594 0.32772 0.0
C215 C 0.82841 0.30135 0.35546 0.0
C216 C 0.84348 0.31957 0.34833 0.0
C217 C 0.83023 0.37486 0.31311 0.0
N218 N 0.81453 0.32007 0.3413 0.0
C219 C 0.81485 0.35634 0.3201 0.0
O220 O 0.89719 0.31263 0.28671 0.0
C221 C 0.88926 0.33079 0.25365 0.0
O222 O 0.87763 0.35435 0.26436 0.0
H223 H 0.85459 0.30497 0.3598 0.0
H224 H 0.8311 0.40396 0.29728 0.0
C225 C 0.93536 0.3028 0.36874 0.0
C226 C 0.95032 0.32235 0.37789 0.0
C227 C 0.93559 0.37841 0.4053 0.0
C228 C 0.92084 0.35937 0.39554 0.0
N229 N 0.92093 0.32209 0.37735 0.0
N230 N 0.94993 0.35967 0.39588 0.0
H231 H 0.93521 0.27347 0.35327 0.0
C232 C 0.87985 0.45235 0.30469 0.0
O233 O 0.89332 0.43117 0.30735 0.0
O234 O 0.89734 0.24279 0.36348 0.0
H235 H 0.9094 0.37476 0.40126 0.0
H236 H 0.82771 0.27253 0.37217 0.0
H237 H 0.93567 0.40815 0.41943 0.0
Zn238 Zn 0.61972 0.71087 0.87504 0.0
C239 C 0.64943 0.63959 0.95144 0.0
N240 N 0.64711 0.6664 0.98699 0.0
C241 C 0.63879 0.69485 0.9637 0.0
N242 N 0.63599 0.68588 0.91627 0.0
N243 N 0.64304 0.65135 0.90808 0.0
C244 C 0.64089 0.56455 0.81228 0.0
O245 O 0.62783 0.58683 0.80679 0.0
O246 O 0.62213 0.76986 0.87808 0.0
Zn247 Zn 0.65361 0.63773 0.84614 0.0
N248 N 0.59824 0.6938 0.8984 0.0
C249 C 0.58372 0.64809 0.9485 0.0
C250 C 0.59827 0.66114 0.92727 0.0
C251 C 0.58394 0.71303 0.88802 0.0
N252 N 0.56957 0.66754 0.939 0.0
C253 C 0.56914 0.69953 0.90901 0.0
O254 O 0.64336 0.66202 0.78592 0.0
C255 C 0.63126 0.68284 0.77196 0.0
O256 O 0.62169 0.69956 0.80248 0.0
H257 H 0.60955 0.64558 0.93459 0.0
H258 H 0.58414 0.73862 0.8644 0.0
C259 C 0.68932 0.63787 0.83213 0.0
C260 C 0.70522 0.65197 0.8423 0.0
C261 C 0.69378 0.70322 0.89039 0.0
C262 C 0.67808 0.68943 0.8801 0.0
N263 N 0.67609 0.65668 0.85202 0.0
N264 N 0.70696 0.68416 0.87146 0.0
H265 H 0.68751 0.61201 0.8096 0.0
C266 C 0.63501 0.78253 0.85674 0.0
O267 O 0.64585 0.75685 0.84091 0.0
O268 O 0.65372 0.57937 0.8315 0.0
H269 H 0.66754 0.70453 0.89506 0.0
H270 H 0.58365 0.62258 0.9722 0.0
H271 H 0.69551 0.72891 0.91324 0.0
Zn272 Zn 0.6541 0.87719 0.34459 0.0
C273 C 0.64187 0.81755 0.46261 0.0
N274 N 0.65036 0.84631 0.48489 0.0
C275 C 0.6517 0.8736 0.44952 0.0
N276 N 0.64451 0.86196 0.4073 0.0
N277 N 0.63799 0.82687 0.41594 0.0
C278 C 0.63617 0.72758 0.35948 0.0
O279 O 0.6479 0.75157 0.34523 0.0
O280 O 0.65363 0.93602 0.33302 0.0
Zn281 Zn 0.62134 0.80151 0.37611 0.0
N282 N 0.67677 0.85841 0.34703 0.0
C283 C 0.69479 0.81072 0.38175 0.0
C284 C 0.67902 0.82504 0.37378 0.0
C285 C 0.68981 0.87726 0.32599 0.0
N286 N 0.70777 0.82979 0.36172 0.0
C287 C 0.70579 0.86253 0.33371 0.0
O288 O 0.62294 0.81281 0.30378 0.0
C289 C 0.63146 0.83121 0.27207 0.0
O290 O 0.64321 0.85382 0.28452 0.0
H291 H 0.66866 0.80975 0.3894 0.0
H292 H 0.68782 0.90352 0.30436 0.0
C293 C 0.58563 0.80045 0.3898 0.0
C294 C 0.57092 0.81426 0.41101 0.0
C295 C 0.58581 0.86512 0.45073 0.0
C296 C 0.60027 0.85176 0.4293 0.0
N297 N 0.60003 0.81925 0.40014 0.0
N298 N 0.57155 0.84611 0.44121 0.0
H299 H 0.58569 0.77494 0.36604 0.0
C300 C 0.63994 0.95212 0.32281 0.0
O301 O 0.62647 0.93089 0.32528 0.0
O302 O 0.62327 0.74213 0.3787 0.0
H303 H 0.61165 0.86692 0.43671 0.0
H304 H 0.6967 0.78455 0.40357 0.0
H305 H 0.58589 0.89052 0.47464 0.0
Zn306 Zn 0.86768 0.13433 0.83579 0.0
C307 C 0.88938 0.18977 0.94851 0.0
N308 N 0.88225 0.1611 0.97471 0.0
C309 C 0.87709 0.13609 0.93982 0.0
N310 N 0.88054 0.14924 0.89406 0.0
N311 N 0.88856 0.1829 0.89993 0.0
C312 C 0.88811 0.28231 0.84517 0.0
O313 O 0.8759 0.25808 0.83604 0.0
O314 O 0.86945 0.0759 0.82079 0.0
Zn315 Zn 0.90232 0.20859 0.85236 0.0
N316 N 0.84492 0.14702 0.85179 0.0
C317 C 0.82684 0.18121 0.90579 0.0
C318 C 0.84262 0.17318 0.889 0.0
C319 C 0.83183 0.12994 0.82895 0.0
N320 N 0.81384 0.16369 0.88381 0.0
C321 C 0.81583 0.1385 0.8455 0.0
O322 O 0.89553 0.199 0.78338 0.0
C323 C 0.88519 0.18307 0.75486 0.0
O324 O 0.8737 0.16109 0.7709 0.0
H325 H 0.85296 0.18761 0.90598 0.0
H326 H 0.83386 0.10968 0.79891 0.0
C327 C 0.93855 0.20571 0.8566 0.0
C328 C 0.95336 0.18429 0.85435 0.0
C329 C 0.9382 0.12459 0.8551 0.0
C330 C 0.92361 0.14575 0.85671 0.0
N331 N 0.92401 0.18572 0.85722 0.0
N332 N 0.95266 0.14427 0.85363 0.0
H333 H 0.93854 0.23755 0.85608 0.0
C334 C 0.88093 0.06429 0.79252 0.0
O335 O 0.89167 0.09008 0.77635 0.0
O336 O 0.90181 0.26786 0.85858 0.0
H337 H 0.91197 0.13044 0.85637 0.0
H338 H 0.8249 0.20145 0.93588 0.0
H339 H 0.93805 0.09277 0.85433 0.0
Zn340 Zn 0.65286 0.13675 0.70671 0.0
C341 C 0.64722 0.19447 0.58669 0.0
N342 N 0.65596 0.16413 0.56889 0.0
C343 C 0.6542 0.13659 0.60371 0.0
N344 N 0.64497 0.14954 0.64159 0.0
N345 N 0.6401 0.18561 0.6302 0.0
C346 C 0.63689 0.28367 0.69163 0.0
O347 O 0.64544 0.25727 0.71576 0.0
O348 O 0.65313 0.07826 0.71878 0.0
Zn349 Zn 0.62228 0.21286 0.66372 0.0
N350 N 0.67523 0.15712 0.70826 0.0
C351 C 0.69269 0.20953 0.68273 0.0
C352 C 0.67708 0.19363 0.68861 0.0
C353 C 0.68853 0.13606 0.72361 0.0
N354 N 0.70594 0.18846 0.69722 0.0
C355 C 0.70435 0.15219 0.71773 0.0
O356 O 0.62074 0.20182 0.73675 0.0
C357 C 0.62796 0.18371 0.77147 0.0
O358 O 0.64001 0.16069 0.76331 0.0
H359 H 0.66651 0.21 0.67652 0.0
H360 H 0.68687 0.10699 0.73903 0.0
C361 C 0.58672 0.21339 0.64523 0.0
C362 C 0.57249 0.20189 0.61935 0.0
C363 C 0.5888 0.15968 0.56981 0.0
C364 C 0.60274 0.1707 0.59573 0.0
N365 N 0.60158 0.19784 0.63231 0.0
N366 N 0.57409 0.17547 0.58211 0.0
H367 H 0.58605 0.23465 0.67471 0.0
C368 C 0.63961 0.06115 0.72835 0.0
O369 O 0.62592 0.08151 0.72606 0.0
O370 O 0.62589 0.27187 0.66189 0.0
H371 H 0.61446 0.15808 0.58601 0.0
H372 H 0.69429 0.23834 0.66655 0.0
H373 H 0.58963 0.13858 0.54019 0.0
Zn374 Zn 0.86688 0.87493 0.18425 0.0
C375 C 0.89 0.82607 0.06773 0.0
N376 N 0.88257 0.85541 0.04359 0.0
C377 C 0.87625 0.87721 0.08 0.0
N378 N 0.87954 0.86194 0.12478 0.0
N379 N 0.88838 0.8297 0.11686 0.0
C380 C 0.88799 0.7308 0.17554 0.0
O381 O 0.87614 0.75569 0.186 0.0
O382 O 0.86782 0.93306 0.20083 0.0
Zn383 Zn 0.90249 0.80385 0.16394 0.0
N384 N 0.84416 0.8606 0.17004 0.0
C385 C 0.82604 0.82628 0.11644 0.0
C386 C 0.84187 0.83521 0.13205 0.0
C387 C 0.83106 0.87622 0.19454 0.0
N388 N 0.81303 0.84237 0.14009 0.0
C389 C 0.81501 0.8669 0.17905 0.0
O390 O 0.89654 0.8138 0.23402 0.0
C391 C 0.8861 0.82859 0.26329 0.0
O392 O 0.874 0.84883 0.24798 0.0
H393 H 0.85225 0.82223 0.11346 0.0
H394 H 0.83311 0.89613 0.22492 0.0
C395 C 0.93877 0.80598 0.16152 0.0
C396 C 0.95364 0.82728 0.16148 0.0
C397 C 0.93874 0.88654 0.14956 0.0
C398 C 0.92409 0.86559 0.15028 0.0
N399 N 0.92431 0.8259 0.15639 0.0
N400 N 0.9531 0.86702 0.15552 0.0
H401 H 0.93865 0.77449 0.16738 0.0
C402 C 0.88063 0.9469 0.2213 0.0
O403 O 0.89338 0.92376 0.22765 0.0
O404 O 0.90153 0.74442 0.1593 0.0
H405 H 0.91253 0.88102 0.14725 0.0
H406 H 0.82409 0.80661 0.0858 0.0
H407 H 0.93872 0.91816 0.14509 0.0
Zn408 Zn 0.36772 0.13362 0.6813 0.0
C409 C 0.39134 0.18748 0.56918 0.0
N410 N 0.38449 0.15848 0.5429 0.0
C411 C 0.37841 0.13463 0.57774 0.0
N412 N 0.38102 0.14876 0.62352 0.0
N413 N 0.38945 0.1819 0.61783 0.0
C414 C 0.38881 0.28106 0.67439 0.0
O415 O 0.37652 0.25678 0.68232 0.0
O416 O 0.37007 0.07544 0.69759 0.0
Zn417 Zn 0.40291 0.20728 0.66656 0.0
N418 N 0.34477 0.14468 0.66457 0.0
C419 C 0.32631 0.1741 0.60756 0.0
C420 C 0.34221 0.16734 0.62413 0.0
C421 C 0.3318 0.13007 0.69069 0.0
N422 N 0.31345 0.159 0.63289 0.0
C423 C 0.31564 0.13744 0.67439 0.0
O424 O 0.39537 0.19762 0.73497 0.0
C425 C 0.38465 0.18231 0.76286 0.0
O426 O 0.37311 0.16087 0.74615 0.0
H427 H 0.35241 0.18009 0.6045 0.0
H428 H 0.33403 0.11262 0.72321 0.0
C429 C 0.43932 0.20313 0.66522 0.0
C430 C 0.45395 0.18094 0.66815 0.0
C431 C 0.43827 0.12203 0.66538 0.0
C432 C 0.42389 0.14392 0.66305 0.0
N433 N 0.42461 0.18386 0.66321 0.0
N434 N 0.45288 0.14096 0.66817 0.0
H435 H 0.43958 0.23495 0.66624 0.0
C436 C 0.38181 0.06461 0.72537 0.0
O437 O 0.39249 0.091 0.7402 0.0
O438 O 0.40257 0.26672 0.66116 0.0
H439 H 0.41213 0.12917 0.66225 0.0
H440 H 0.32419 0.19154 0.575 0.0
H441 H 0.43784 0.09022 0.66563 0.0
Zn442 Zn 0.15347 0.87552 0.20214 0.0
C443 C 0.14419 0.81508 0.08449 0.0
N444 N 0.1529 0.84392 0.06318 0.0
C445 C 0.15283 0.8723 0.09739 0.0
N446 N 0.14467 0.8611 0.13837 0.0
N447 N 0.13879 0.8254 0.12954 0.0
C448 C 0.13651 0.72832 0.19168 0.0
O449 O 0.1463 0.75436 0.21203 0.0
O450 O 0.15246 0.93444 0.21476 0.0
Zn451 Zn 0.12149 0.7998 0.16693 0.0
N452 N 0.17616 0.85767 0.20033 0.0
C453 C 0.19432 0.80839 0.16995 0.0
C454 C 0.1785 0.82262 0.17724 0.0
C455 C 0.18915 0.87855 0.21825 0.0
N456 N 0.20726 0.82932 0.18708 0.0
C457 C 0.20515 0.86391 0.21132 0.0
O458 O 0.12118 0.81208 0.23969 0.0
C459 C 0.13005 0.82851 0.27223 0.0
O460 O 0.14245 0.84954 0.26093 0.0
H461 H 0.16814 0.80593 0.16402 0.0
H462 H 0.18707 0.90615 0.23705 0.0
C463 C 0.08594 0.79743 0.14933 0.0
C464 C 0.07152 0.80936 0.12485 0.0
C465 C 0.08702 0.85646 0.08018 0.0
C466 C 0.10116 0.845 0.10478 0.0
N467 N 0.10051 0.8152 0.13807 0.0
N468 N 0.0726 0.83843 0.09068 0.0
H469 H 0.08564 0.77414 0.17637 0.0
C470 C 0.13992 0.94741 0.23759 0.0
O471 O 0.12799 0.9229 0.24849 0.0
O472 O 0.1246 0.74059 0.16559 0.0
H473 H 0.11265 0.85943 0.09655 0.0
H474 H 0.19632 0.78082 0.15103 0.0
H475 H 0.08745 0.87966 0.05305 0.0
Zn476 Zn 0.36784 0.87505 0.33254 0.0
C477 C 0.387 0.82007 0.44753 0.0
N478 N 0.37914 0.8483 0.4726 0.0
C479 C 0.37513 0.87407 0.43726 0.0
N480 N 0.38001 0.8618 0.39229 0.0
N481 N 0.38781 0.82803 0.39923 0.0
C482 C 0.38848 0.72977 0.34554 0.0
O483 O 0.3765 0.75425 0.33496 0.0
O484 O 0.36807 0.93326 0.3178 0.0
Zn485 Zn 0.40275 0.80309 0.35418 0.0
N486 N 0.34538 0.85847 0.34525 0.0
C487 C 0.32786 0.8172 0.39274 0.0
C488 C 0.34352 0.8283 0.37758 0.0
C489 C 0.33206 0.87705 0.32579 0.0
N490 N 0.31461 0.83613 0.37418 0.0
C491 C 0.31622 0.86561 0.34078 0.0
O492 O 0.39757 0.81266 0.28372 0.0
C493 C 0.3876 0.82862 0.25405 0.0
O494 O 0.37572 0.8499 0.26885 0.0
H495 H 0.35412 0.81326 0.39216 0.0
H496 H 0.33379 0.90081 0.29985 0.0
C497 C 0.43881 0.80619 0.36198 0.0
C498 C 0.45361 0.8277 0.36329 0.0
C499 C 0.43841 0.88702 0.37053 0.0
C500 C 0.42383 0.86583 0.36854 0.0
N501 N 0.42425 0.826 0.36411 0.0
N502 N 0.4529 0.86757 0.36747 0.0
H503 H 0.43886 0.77456 0.35743 0.0
C504 C 0.38074 0.9477 0.2972 0.0
O505 O 0.39355 0.92495 0.28971 0.0
O506 O 0.40209 0.74392 0.36024 0.0
H507 H 0.4122 0.88113 0.36921 0.0
H508 H 0.32624 0.79367 0.41901 0.0
H509 H 0.43824 0.91874 0.37367 0.0
Zn510 Zn 0.12095 0.20729 0.87416 0.0
C511 C 0.15017 0.13503 0.95105 0.0
N512 N 0.14578 0.15889 0.98802 0.0
C513 C 0.13778 0.18793 0.96494 0.0
N514 N 0.13702 0.182 0.91605 0.0
N515 N 0.14498 0.14868 0.90703 0.0
C516 C 0.1408 0.06361 0.80843 0.0
O517 O 0.12886 0.08871 0.80008 0.0
O518 O 0.12344 0.26673 0.87457 0.0
Zn519 Zn 0.15525 0.13461 0.84458 0.0
N520 N 0.09933 0.19188 0.89869 0.0
C521 C 0.08457 0.14858 0.95142 0.0
C522 C 0.09915 0.16021 0.92922 0.0
C523 C 0.08516 0.21141 0.88762 0.0
N524 N 0.07055 0.16826 0.94109 0.0
C525 C 0.07028 0.19921 0.90944 0.0
O526 O 0.14547 0.16103 0.78407 0.0
C527 C 0.13268 0.17996 0.77103 0.0
O528 O 0.12268 0.19433 0.80217 0.0
H529 H 0.11027 0.14407 0.93676 0.0
H530 H 0.08552 0.2362 0.86272 0.0
C531 C 0.19116 0.13316 0.82803 0.0
C532 C 0.20728 0.14574 0.83886 0.0
C533 C 0.19654 0.19341 0.89371 0.0
C534 C 0.18067 0.18124 0.88269 0.0
N535 N 0.1782 0.15088 0.85099 0.0
N536 N 0.20943 0.17536 0.87178 0.0
H537 H 0.189 0.10931 0.80254 0.0
C538 C 0.13639 0.28087 0.85508 0.0
O539 O 0.14809 0.25658 0.84145 0.0
O540 O 0.1537 0.07576 0.83012 0.0
H541 H 0.17037 0.19577 0.89988 0.0
H542 H 0.08435 0.12385 0.97638 0.0
H543 H 0.19862 0.21712 0.91944 0.0
H544 H 0.11439 0.17872 0.03332 0.0
H545 H 0.14448 0.26649 0.96313 0.0
H546 H 0.10929 0.22293 0.10137 0.0
H547 H 0.13904 0.31203 0.03095 0.0
H548 H 0.15253 0.33618 0.1954 0.0
H549 H 0.14984 0.31189 0.112 0.0
H550 H 0.09943 0.2794 0.1413 0.0
H551 H 0.10237 0.30228 0.22552 0.0
C552 C 0.11918 0.20844 0.03135 0.0
C553 C 0.12968 0.21941 0.99293 0.0
C554 C 0.1163 0.23394 0.07052 0.0
C555 C 0.12398 0.27102 0.07236 0.0
C556 C 0.13317 0.28344 0.03126 0.0
C557 C 0.13604 0.25773 0.99188 0.0
C558 C 0.14077 0.32449 0.18387 0.0
C559 C 0.12778 0.32048 0.21754 0.0
C560 C 0.13916 0.31082 0.13568 0.0
C561 C 0.12445 0.29314 0.11975 0.0
C562 C 0.11106 0.292 0.15245 0.0
C563 C 0.11273 0.30522 0.20081 0.0
H564 H 0.41672 0.79911 0.48492 0.0
H565 H 0.36671 0.76034 0.4677 0.0
H566 H 0.42031 0.75302 0.55299 0.0
H567 H 0.36975 0.71601 0.53683 0.0
H568 H 0.37586 0.64482 0.67179 0.0
H569 H 0.37935 0.66481 0.58626 0.0
H570 H 0.41076 0.76034 0.63295 0.0
H571 H 0.40787 0.73952 0.71704 0.0
C572 C 0.40676 0.77936 0.49437 0.0
C573 C 0.39149 0.7829 0.47122 0.0
C574 C 0.40864 0.75349 0.53398 0.0
C575 C 0.39514 0.73161 0.55177 0.0
C576 C 0.38046 0.73211 0.52457 0.0
C577 C 0.37869 0.75749 0.48465 0.0
C578 C 0.3837 0.66972 0.66354 0.0
C579 C 0.39142 0.69077 0.70145 0.0
C580 C 0.38569 0.68126 0.61446 0.0
C581 C 0.39532 0.71436 0.60224 0.0
C582 C 0.40354 0.73425 0.64025 0.0
C583 C 0.40169 0.72252 0.68896 0.0
H584 H 0.1673 0.76687 0.04937 0.0
H585 H 0.11482 0.78177 0.05727 0.0
H586 H 0.16418 0.7239 0.97893 0.0
H587 H 0.11147 0.7378 0.98717 0.0
H588 H 0.15588 0.65068 0.84601 0.0
H589 H 0.15516 0.66793 0.93307 0.0
H590 H 0.11751 0.7543 0.90348 0.0
H591 H 0.11794 0.7366 0.81754 0.0
C592 C 0.155 0.75922 0.03749 0.0
C593 C 0.1413 0.77778 0.05854 0.0
C594 C 0.15319 0.73457 0.99694 0.0
C595 C 0.13759 0.72814 0.97643 0.0
C596 C 0.1237 0.74292 1.00136 0.0
C597 C 0.12556 0.76767 0.0421 0.0
C598 C 0.14736 0.67309 0.85826 0.0
C599 C 0.13714 0.69259 0.82456 0.0
C600 C 0.14691 0.68291 0.90819 0.0
C601 C 0.13625 0.71247 0.92551 0.0
C602 C 0.12564 0.73085 0.89193 0.0
C603 C 0.12606 0.72102 0.84226 0.0
H604 H 0.42081 0.20019 0.52514 0.0
H605 H 0.37378 0.2532 0.55404 0.0
H606 H 0.42516 0.2455 0.45687 0.0
H607 H 0.37732 0.2966 0.48412 0.0
H608 H 0.38347 0.36678 0.34839 0.0
H609 H 0.38751 0.3445 0.43263 0.0
H610 H 0.41494 0.2444 0.3787 0.0
H611 H 0.41168 0.2678 0.29573 0.0
C612 C 0.41172 0.22277 0.51805 0.0
C613 C 0.39707 0.22362 0.54502 0.0
C614 C 0.41398 0.2482 0.47815 0.0
C615 C 0.40134 0.27401 0.46334 0.0
C616 C 0.38742 0.27747 0.49387 0.0
C617 C 0.38537 0.25266 0.53441 0.0
C618 C 0.39065 0.34046 0.35478 0.0
C619 C 0.39714 0.31899 0.31512 0.0
C620 C 0.3929 0.32746 0.40319 0.0
C621 C 0.40145 0.29226 0.41316 0.0
C622 C 0.40856 0.27197 0.37335 0.0
C623 C 0.40655 0.28529 0.32524 0.0
H624 H 0.87027 0.67542 0.84256 0.0
H625 H 0.92017 0.70646 0.80522 0.0
H626 H 0.87436 0.70078 0.92498 0.0
H627 H 0.9246 0.73013 0.88849 0.0
H628 H 0.91332 0.83162 0.99839 0.0
H629 H 0.91667 0.78662 0.93024 0.0
H630 H 0.88577 0.70171 1.00424 0.0
H631 H 0.88192 0.74829 0.07169 0.0
C632 C 0.88228 0.68665 0.85235 0.0
C633 C 0.89479 0.68952 0.81693 0.0
C634 C 0.8847 0.701 0.89998 0.0
C635 C 0.89979 0.71812 0.91371 0.0
C636 C 0.91268 0.71813 0.87918 0.0
C637 C 0.91017 0.70436 0.83135 0.0
C638 C 0.90792 0.80255 1.00112 0.0
C639 C 0.89755 0.79325 0.04056 0.0
C640 C 0.90977 0.77658 0.9618 0.0
C641 C 0.90123 0.74054 0.96088 0.0
C642 C 0.89226 0.72951 1.00303 0.0
C643 C 0.89037 0.75575 0.04243 0.0
H644 H 0.67115 0.23241 0.53872 0.0
H645 H 0.61908 0.23717 0.5668 0.0
H646 H 0.6678 0.27562 0.46868 0.0
H647 H 0.61556 0.28076 0.49629 0.0
H648 H 0.61636 0.27998 0.3238 0.0
H649 H 0.61771 0.26179 0.4097 0.0
H650 H 0.66015 0.33659 0.42855 0.0
H651 H 0.65897 0.35451 0.3418 0.0
C652 C 0.65902 0.24398 0.53094 0.0
C653 C 0.64532 0.2308 0.55764 0.0
C654 C 0.65709 0.26889 0.49076 0.0
C655 C 0.64136 0.28098 0.47612 0.0
C656 C 0.62782 0.27125 0.50609 0.0
C657 C 0.62982 0.24648 0.54679 0.0
C658 C 0.62591 0.29295 0.34621 0.0
C659 C 0.63774 0.31823 0.32554 0.0
C660 C 0.62654 0.28289 0.39581 0.0
C661 C 0.63902 0.29775 0.42616 0.0
C662 C 0.65044 0.32441 0.40608 0.0
C663 C 0.64978 0.3346 0.35633 0.0
H664 H 0.87788 0.36728 0.16991 0.0
H665 H 0.90883 0.27196 0.21913 0.0
H666 H 0.88196 0.34629 0.08501 0.0
H667 H 0.91223 0.25 0.1357 0.0
H668 H 0.91885 0.20842 0.98916 0.0
H669 H 0.92231 0.25478 0.05688 0.0
H670 H 0.87262 0.29616 0.03436 0.0
H671 H 0.86984 0.25175 0.96514 0.0
C672 C 0.88563 0.34205 0.16265 0.0
C673 C 0.89288 0.32116 0.20151 0.0
C674 C 0.88794 0.32987 0.11392 0.0
C675 C 0.89739 0.2962 0.10292 0.0
C676 C 0.90517 0.2765 0.14192 0.0
C677 C 0.90304 0.28892 0.1903 0.0
C678 C 0.9091 0.22917 0.99712 0.0
C679 C 0.89415 0.22691 0.97194 0.0
C680 C 0.91088 0.25518 0.03662 0.0
C681 C 0.89753 0.27839 0.05263 0.0
C682 C 0.88323 0.27903 0.02358 0.0
C683 C 0.88162 0.25362 0.98353 0.0
H684 H 0.6628 0.76485 0.49963 0.0
H685 H 0.61123 0.79176 0.48941 0.0
H686 H 0.65743 0.72128 0.56829 0.0
H687 H 0.60556 0.7472 0.55768 0.0
H688 H 0.64647 0.64621 0.69465 0.0
H689 H 0.64595 0.66563 0.60859 0.0
H690 H 0.6111 0.75747 0.64317 0.0
H691 H 0.61124 0.73734 0.7286 0.0
C692 C 0.65017 0.75979 0.51061 0.0
C693 C 0.63742 0.78141 0.48909 0.0
C694 C 0.64704 0.73479 0.55011 0.0
C695 C 0.63106 0.73113 0.56926 0.0
C696 C 0.61805 0.74985 0.54441 0.0
C697 C 0.62123 0.77491 0.50467 0.0
C698 C 0.63846 0.67008 0.68371 0.0
C699 C 0.62911 0.69063 0.71876 0.0
C700 C 0.63818 0.68126 0.63432 0.0
C701 C 0.62864 0.71345 0.61883 0.0
C702 C 0.61846 0.73226 0.65341 0.0
C703 C 0.61865 0.72091 0.7027 0.0
H704 H 0.64488 0.86868 0.19218 0.0
H705 H 0.61165 0.77478 0.23205 0.0
H706 H 0.64309 0.84878 0.10637 0.0
H707 H 0.61035 0.75407 0.14716 0.0
H708 H 0.6083 0.71673 0.99584 0.0
H709 H 0.60312 0.76185 0.06383 0.0
H710 H 0.65436 0.7955 0.0625 0.0
H711 H 0.65914 0.75171 0.99363 0.0
C712 C 0.63705 0.84408 0.18263 0.0
C713 C 0.62861 0.82299 0.21922 0.0
C714 C 0.63605 0.83258 0.13338 0.0
C715 C 0.62672 0.79948 0.11958 0.0
C716 C 0.6175 0.78 0.15591 0.0
C717 C 0.61837 0.79169 0.20498 0.0
C718 C 0.61817 0.73547 1.00833 0.0
C719 C 0.63406 0.73118 0.98926 0.0
C720 C 0.61532 0.76083 0.04799 0.0
C721 C 0.62839 0.78176 0.06965 0.0
C722 C 0.64392 0.78024 0.04694 0.0
C723 C 0.6467 0.75514 1.00726 0.0
H724 H 0.86107 0.1837 0.68438 0.0
H725 H 0.91316 0.20058 0.70531 0.0
H726 H 0.86367 0.20732 0.59998 0.0
H727 H 0.91591 0.22255 0.62085 0.0
H728 H 0.90532 0.32748 0.51518 0.0
H729 H 0.90822 0.28293 0.58415 0.0
H730 H 0.87391 0.20244 0.51644 0.0
H731 H 0.87091 0.24812 0.44734 0.0
C732 C 0.87312 0.19152 0.67055 0.0
C733 C 0.88683 0.19119 0.70173 0.0
C734 C 0.87467 0.20477 0.62204 0.0
C735 C 0.89 0.21741 0.6037 0.0
C736 C 0.90387 0.21397 0.63399 0.0
C737 C 0.90228 0.20136 0.68245 0.0
C738 C 0.89904 0.29935 0.51401 0.0
C739 C 0.88808 0.29087 0.47597 0.0
C740 C 0.90062 0.27375 0.55367 0.0
C741 C 0.89111 0.2392 0.55633 0.0
C742 C 0.88123 0.22905 0.51589 0.0
C743 C 0.87973 0.25477 0.47592 0.0
H744 H 0.60951 0.24561 0.8038 0.0
H745 H 0.63666 0.14496 0.8562 0.0
H746 H 0.60596 0.26841 0.88709 0.0
H747 H 0.63238 0.16673 0.94057 0.0
H748 H 0.6461 0.25686 0.06363 0.0
H749 H 0.64274 0.21421 0.99287 0.0
H750 H 0.59517 0.26634 0.96505 0.0
H751 H 0.59931 0.31075 0.03431 0.0
C752 C 0.61434 0.22766 0.83327 0.0
C753 C 0.62354 0.19363 0.82305 0.0
C754 C 0.61217 0.24062 0.88153 0.0
C755 C 0.61892 0.21968 0.92132 0.0
C756 C 0.62726 0.18423 0.91117 0.0
C757 C 0.62965 0.17154 0.86267 0.0
C758 C 0.63458 0.25772 0.04376 0.0
C759 C 0.62291 0.28681 0.05455 0.0
C760 C 0.63265 0.23338 1.0027 0.0
C761 C 0.61887 0.23741 0.9718 0.0
C762 C 0.60623 0.26321 0.98669 0.0
C763 C 0.60837 0.2881 0.02716 0.0
H764 H 0.91408 0.8082 0.31148 0.0
H765 H 0.86243 0.83014 0.33515 0.0
H766 H 0.91687 0.78637 0.39601 0.0
H767 H 0.86504 0.80678 0.41944 0.0
H768 H 0.87192 0.76635 0.57171 0.0
H769 H 0.87555 0.81129 0.50213 0.0
H770 H 0.90844 0.72735 0.43446 0.0
H771 H 0.90492 0.68357 0.50383 0.0
C772 C 0.90332 0.80858 0.33489 0.0
C773 C 0.88796 0.8202 0.31635 0.0
C774 C 0.90492 0.79604 0.38341 0.0
C775 C 0.89115 0.79419 0.41452 0.0
C776 C 0.87597 0.80814 0.39682 0.0
C777 C 0.87441 0.82123 0.3483 0.0
C778 C 0.88059 0.75875 0.54306 0.0
C779 C 0.88839 0.72197 0.54327 0.0
C780 C 0.88245 0.78406 0.50279 0.0
C781 C 0.89209 0.77277 0.4622 0.0
C782 C 0.90106 0.73744 0.46504 0.0
C783 C 0.89914 0.71227 0.50501 0.0
H784 H 0.40161 0.32828 1.00198 0.0
H785 H 0.369 0.24541 0.07154 0.0
H786 H 0.40499 0.28422 0.93289 0.0
H787 H 0.37227 0.20044 1.00157 0.0
H788 H 0.36003 0.18198 0.8321 0.0
H789 H 0.36191 0.20558 0.91676 0.0
H790 H 0.41413 0.22318 0.89843 0.0
H791 H 0.41214 0.20103 0.81389 0.0
C792 C 0.39585 0.29956 1.00351 0.0
C793 C 0.38536 0.28974 0.04238 0.0
C794 C 0.39768 0.27427 0.96369 0.0
C795 C 0.38881 0.23879 0.96141 0.0
C796 C 0.37917 0.22769 1.00207 0.0
C797 C 0.37749 0.25304 0.04239 0.0
C798 C 0.37193 0.1903 0.84654 0.0
C799 C 0.38585 0.19059 0.81604 0.0
C800 C 0.37305 0.20352 0.89516 0.0
C801 C 0.38816 0.2168 0.9142 0.0
C802 C 0.40226 0.21399 0.88466 0.0
C803 C 0.4011 0.20134 0.83614 0.0
H804 H 0.1064 0.68159 0.50977 0.0
H805 H 0.13994 0.7621 0.5791 0.0
H806 H 0.10341 0.72609 0.44113 0.0
H807 H 0.13633 0.80849 0.51152 0.0
H808 H 0.1513 0.83303 0.34963 0.0
H809 H 0.14713 0.80862 0.4324 0.0
H810 H 0.09655 0.78163 0.39743 0.0
H811 H 0.10112 0.80405 0.31365 0.0
C812 C 0.11234 0.7101 0.51165 0.0
C813 C 0.1232 0.71862 0.55008 0.0
C814 C 0.1107 0.7358 0.47199 0.0
C815 C 0.11991 0.77086 0.46977 0.0
C816 C 0.12934 0.78139 0.51116 0.0
C817 C 0.13108 0.75533 0.55077 0.0
C818 C 0.13921 0.82245 0.35983 0.0
C819 C 0.12663 0.81988 0.32472 0.0
C820 C 0.13673 0.80868 0.40769 0.0
C821 C 0.12151 0.79252 0.42204 0.0
C822 C 0.10858 0.7928 0.38772 0.0
C823 C 0.11116 0.80586 0.33959 0.0
H824 H 0.37483 0.76286 0.94723 0.0
H825 H 0.40899 0.68366 0.01625 0.0
H826 H 0.37809 0.80932 1.01523 0.0
H827 H 0.41201 0.7288 0.08452 0.0
H828 H 0.41603 0.81021 0.20696 0.0
H829 H 0.41946 0.78835 0.12259 0.0
H830 H 0.36753 0.80558 0.09742 0.0
H831 H 0.36431 0.82915 0.18145 0.0
C832 C 0.3837 0.75643 0.97571 0.0
C833 C 0.39189 0.72014 0.97639 0.0
C834 C 0.38532 0.78258 1.01518 0.0
C835 C 0.39509 0.77261 0.05595 0.0
C836 C 0.4045 0.73789 0.05382 0.0
C837 C 0.40285 0.71192 1.01455 0.0
C838 C 0.40539 0.80994 0.18312 0.0
C839 C 0.38983 0.82068 0.20106 0.0
C840 C 0.40736 0.79737 0.13472 0.0
C841 C 0.39375 0.7945 0.10323 0.0
C842 C 0.37835 0.80771 0.12032 0.0
C843 C 0.37644 0.82094 0.16868 0.0
H844 H 0.1441 0.24278 0.46253 0.0
H845 H 0.11275 0.32769 0.53316 0.0
H846 H 0.14003 0.19739 0.53126 0.0
H847 H 0.10898 0.28362 0.60215 0.0
H848 H 0.10418 0.20386 0.72711 0.0
H849 H 0.10046 0.22637 0.64309 0.0
H850 H 0.15129 0.1993 0.61185 0.0
H851 H 0.15478 0.17531 0.69526 0.0
C852 C 0.13564 0.25082 0.49157 0.0
C853 C 0.12852 0.28836 0.49238 0.0
C854 C 0.13358 0.22524 0.5315 0.0
C855 C 0.12444 0.23701 0.57298 0.0
C856 C 0.11599 0.27312 0.57103 0.0
C857 C 0.11807 0.2985 0.53127 0.0
C858 C 0.11449 0.20206 0.70205 0.0
C859 C 0.12986 0.18835 0.71821 0.0
C860 C 0.11237 0.21508 0.65379 0.0
C861 C 0.12562 0.2153 0.62056 0.0
C862 C 0.14072 0.19927 0.63597 0.0
C863 C 0.14278 0.18576 0.6841 0.0
H864 H 0.04436 0.2898 0.47353 0.0
H865 H 0.05472 0.29672 0.31858 0.0
H866 H 0.01544 0.27823 0.45601 0.0
H867 H 0.02557 0.28534 0.30076 0.0
H868 H 0.97381 0.35128 0.3183 0.0
H869 H 1.00284 0.33374 0.31769 0.0
H870 H 0.99289 0.23801 0.41757 0.0
H871 H 0.9636 0.25561 0.41752 0.0
C872 C 0.0405 0.2875 0.43562 0.0
C873 C 0.05175 0.29425 0.39744 0.0
C874 C 0.02393 0.28065 0.42553 0.0
C875 C 0.01817 0.28111 0.37698 0.0
C876 C 0.02964 0.28497 0.33855 0.0
C877 C 0.04634 0.2912 0.3487 0.0
C878 C 0.97776 0.32557 0.33861 0.0
C879 C 0.96654 0.30471 0.36782 0.0
C880 C 0.99438 0.31538 0.33815 0.0
C881 C 1.0002 0.28458 0.36777 0.0
C882 C 0.98876 0.26195 0.39445 0.0
C883 C 0.97201 0.27179 0.39421 0.0
H884 H 0.54507 0.71639 0.97408 0.0
H885 H 0.55641 0.72007 0.81955 0.0
H886 H 0.51617 0.72779 0.95609 0.0
H887 H 0.52731 0.73133 0.80125 0.0
H888 H 0.47644 0.66088 0.80875 0.0
H889 H 0.50521 0.68023 0.81219 0.0
H890 H 0.49334 0.76887 0.92008 0.0
H891 H 0.46428 0.74949 0.91604 0.0
C892 C 0.54142 0.72102 0.93631 0.0
C893 C 0.55294 0.71719 0.89822 0.0
C894 C 0.52487 0.72778 0.92598 0.0
C895 C 0.51942 0.73016 0.87721 0.0
C896 C 0.53115 0.72945 0.8392 0.0
C897 C 0.54782 0.72327 0.84964 0.0
C898 C 0.47991 0.68539 0.83197 0.0
C899 C 0.46821 0.70365 0.8622 0.0
C900 C 0.49638 0.69667 0.83374 0.0
C901 C 0.50158 0.726 0.86656 0.0
C902 C 0.48968 0.74613 0.8945 0.0
C903 C 0.47307 0.73523 0.89204 0.0
H904 H 0.97641 0.709 0.55637 0.0
H905 H 0.96349 0.71939 0.70946 0.0
H906 H 1.00516 0.71939 0.57645 0.0
H907 H 0.99241 0.73043 0.72966 0.0
H908 H 0.04328 0.66369 0.738 0.0
H909 H 0.0146 0.68157 0.72781 0.0
H910 H 0.02785 0.7596 0.6091 0.0
H911 H 0.05679 0.74121 0.61925 0.0
C912 C 0.97967 0.7147 0.59422 0.0
C913 C 0.96769 0.71302 0.63134 0.0
C914 C 0.99618 0.721 0.60572 0.0
C915 C 1.00114 0.72538 0.65474 0.0
C916 C 0.98899 0.72678 0.69156 0.0
C917 C 0.9724 0.72079 0.67996 0.0
C918 C 0.04013 0.68543 0.71051 0.0
C919 C 0.05225 0.70081 0.67919 0.0
C920 C 0.02367 0.69598 0.70493 0.0
C921 C 0.01888 0.72187 0.66744 0.0
C922 C 0.03115 0.73935 0.63813 0.0
C923 C 0.04772 0.72907 0.64414 0.0
H924 H 0.47572 0.2949 0.0538 0.0
H925 H 0.46188 0.28753 0.20647 0.0
H926 H 0.50436 0.28555 0.07581 0.0
H927 H 0.49066 0.27726 0.22857 0.0
H928 H 0.54125 0.34394 0.23956 0.0
H929 H 0.51273 0.32554 0.22762 0.0
H930 H 0.52705 0.24738 0.11011 0.0
H931 H 0.55583 0.26649 0.12183 0.0
C932 C 0.47876 0.29007 0.09201 0.0
C933 C 0.46653 0.29236 0.12838 0.0
C934 C 0.4952 0.28436 0.10463 0.0
C935 C 0.49988 0.28108 0.15404 0.0
C936 C 0.48748 0.28016 0.19018 0.0
C937 C 0.47096 0.28566 0.17748 0.0
C938 C 0.53837 0.32211 0.2119 0.0
C939 C 0.55077 0.30694 0.18138 0.0
C940 C 0.522 0.31124 0.20533 0.0
C941 C 0.51753 0.28513 0.16768 0.0
C942 C 0.53007 0.26783 0.1392 0.0
C943 C 0.54657 0.27851 0.14613 0.0
H944 H 0.47845 0.84964 0.30377 0.0
H945 H 0.46583 0.76555 0.41613 0.0
H946 H 0.50721 0.83086 0.3099 0.0
H947 H 0.49488 0.74668 0.42276 0.0
H948 H 0.54639 0.8002 0.47572 0.0
H949 H 0.51755 0.78865 0.45711 0.0
H950 H 0.52938 0.77999 0.30304 0.0
H951 H 0.55841 0.79157 0.32191 0.0
C952 C 0.48182 0.82623 0.32878 0.0
C953 C 0.46998 0.80914 0.35959 0.0
C954 C 0.49829 0.81525 0.33208 0.0
C955 C 0.50336 0.78738 0.36697 0.0
C956 C 0.49133 0.76832 0.39562 0.0
C957 C 0.47472 0.77892 0.39168 0.0
C958 C 0.54291 0.79453 0.43804 0.0
C959 C 0.55461 0.79701 0.40026 0.0
C960 C 0.52638 0.78765 0.42737 0.0
C961 C 0.52115 0.78371 0.37855 0.0
C962 C 0.53305 0.78313 0.34101 0.0
C963 C 0.54968 0.78948 0.35181 0.0
H964 H 0.96514 0.24583 0.90968 0.0
H965 H 0.97873 0.16381 0.79586 0.0
H966 H 0.99403 0.26547 0.91795 0.0
H967 H 1.00734 0.1831 0.80396 0.0
H968 H 0.05831 0.22136 0.81938 0.0
H969 H 0.02941 0.23285 0.79901 0.0
H970 H 0.01679 0.22587 0.95268 0.0
H971 H 0.04551 0.21476 0.9728 0.0
C972 C 0.97421 0.233 0.88536 0.0
C973 C 0.96975 0.20312 0.85236 0.0
C974 C 0.99075 0.24403 0.89026 0.0
C975 C 1.00302 0.2257 0.86179 0.0
C976 C 0.99825 0.19818 0.82609 0.0
C977 C 0.98185 0.18685 0.82171 0.0
C978 C 0.04944 0.22387 0.84886 0.0
C979 C 0.05412 0.21687 0.89766 0.0
C980 C 0.03287 0.23012 0.8372 0.0
C981 C 0.02075 0.22982 0.87417 0.0
C982 C 0.02575 0.22658 0.9233 0.0
C983 C 0.04222 0.21994 0.93484 0.0
H984 H 0.47896 0.15711 0.72595 0.0
H985 H 0.46657 0.24382 0.61653 0.0
H986 H 0.50774 0.17545 0.72004 0.0
H987 H 0.49561 0.26263 0.61068 0.0
H988 H 0.54774 0.2178 0.5561 0.0
H989 H 0.51872 0.22544 0.57502 0.0
H990 H 0.52988 0.22389 0.72981 0.0
H991 H 0.55908 0.21566 0.71069 0.0
C992 C 0.48237 0.18089 0.70151 0.0
C993 C 0.47053 0.19883 0.67148 0.0
C994 C 0.49888 0.19167 0.6984 0.0
C995 C 0.50405 0.22038 0.66467 0.0
C996 C 0.49204 0.24019 0.6368 0.0
C997 C 0.4754 0.22967 0.64038 0.0
C998 C 0.54406 0.22009 0.59421 0.0
C999 C 0.55571 0.21581 0.63186 0.0
C1000 C 0.5274 0.22481 0.60508 0.0
C1001 C 0.52192 0.22495 0.65396 0.0
C1002 C 0.5337 0.22353 0.69175 0.0
C1003 C 0.55045 0.21916 0.68082 0.0
H1004 H 0.96633 0.76238 0.11473 0.0
H1005 H 0.97787 0.85178 0.22157 0.0
H1006 H 0.99537 0.74288 0.11239 0.0
H1007 H 1.00663 0.83252 0.21952 0.0
H1008 H 0.05793 0.79303 0.21496 0.0
H1009 H 0.02868 0.78303 0.23234 0.0
H1010 H 0.01857 0.78146 0.07691 0.0
H1011 H 0.04762 0.79126 0.05978 0.0
C1012 C 0.97496 0.77687 0.13893 0.0
C1013 C 0.96992 0.8087 0.16814 0.0
C1014 C 0.99158 0.76592 0.1374 0.0
C1015 C 1.00334 0.78629 0.16558 0.0
C1016 C 0.99794 0.81589 0.19775 0.0
C1017 C 0.98146 0.82715 0.1987 0.0
C1018 C 0.04953 0.78904 0.1846 0.0
C1019 C 0.05502 0.79318 0.136 0.0
C1020 C 0.03276 0.78361 0.19452 0.0
C1021 C 0.02126 0.78181 0.15601 0.0
C1022 C 0.02705 0.78238 0.10745 0.0
C1023 C 0.04371 0.78827 0.0976 0.0
H1024 H 0.29248 0.39495 0.16343 0.0
H1025 H 0.30738 0.35883 0.30801 0.0
H1026 H 0.26494 0.4097 0.19407 0.0
H1027 H 0.27976 0.37089 0.33861 0.0
H1028 H 0.2299 0.39315 0.39115 0.0
H1029 H 0.25738 0.40817 0.36055 0.0
H1030 H 0.24222 0.37278 0.21496 0.0
H1031 H 0.21456 0.36063 0.24558 0.0
C1032 C 0.28989 0.39121 0.20214 0.0
C1033 C 0.30198 0.37632 0.23364 0.0
C1034 C 0.27406 0.39902 0.21967 0.0
C1035 C 0.26986 0.39093 0.26881 0.0
C1036 C 0.2824 0.37819 0.30079 0.0
C1037 C 0.2983 0.37115 0.28338 0.0
C1038 C 0.2324 0.39006 0.35229 0.0
C1039 C 0.2202 0.37605 0.32055 0.0
C1040 C 0.24821 0.3981 0.33476 0.0
C1041 C 0.2523 0.39097 0.28532 0.0
C1042 C 0.23966 0.37921 0.25308 0.0
C1043 C 0.22374 0.37211 0.27051 0.0
H1044 H 0.236 0.6403 0.63513 0.0
H1045 H 0.21167 0.61337 0.77205 0.0
H1046 H 0.26246 0.6296 0.67335 0.0
H1047 H 0.23828 0.60085 0.80993 0.0
H1048 H 0.28591 0.65969 0.87044 0.0
H1049 H 0.25929 0.64478 0.83567 0.0
H1050 H 0.28288 0.58976 0.71122 0.0
H1051 H 0.30973 0.60629 0.74536 0.0
C1052 C 0.23626 0.63105 0.67314 0.0
C1053 C 0.22165 0.62823 0.70053 0.0
C1054 C 0.25151 0.62444 0.69501 0.0
C1055 C 0.2526 0.61474 0.745 0.0
C1056 C 0.23792 0.60891 0.77153 0.0
C1057 C 0.22261 0.61565 0.74959 0.0
C1058 C 0.28547 0.64381 0.83602 0.0
C1059 C 0.30001 0.63468 0.81049 0.0
C1060 C 0.27013 0.63481 0.81625 0.0
C1061 C 0.26884 0.61637 0.77028 0.0
C1062 C 0.2834 0.60455 0.74637 0.0
C1063 C 0.29883 0.61363 0.76623 0.0
H1064 H 0.71371 0.64816 0.74618 0.0
H1065 H 0.73061 0.61882 0.89123 0.0
H1066 H 0.74107 0.63611 0.71351 0.0
H1067 H 0.75781 0.6037 0.85865 0.0
H1068 H 0.80735 0.65112 0.80034 0.0
H1069 H 0.78005 0.63974 0.83377 0.0
H1070 H 0.76357 0.59977 0.69127 0.0
H1071 H 0.79074 0.61416 0.65772 0.0
C1072 C 0.72318 0.63739 0.77063 0.0
C1073 C 0.72014 0.63433 0.82105 0.0
C1074 C 0.73894 0.63032 0.75201 0.0
C1075 C 0.75194 0.6194 0.78341 0.0
C1076 C 0.74836 0.61316 0.83339 0.0
C1077 C 0.73272 0.62123 0.8521 0.0
C1078 C 0.79797 0.63879 0.77674 0.0
C1079 C 0.80107 0.6333 0.72669 0.0
C1080 C 0.78224 0.63211 0.79579 0.0
C1081 C 0.76932 0.61924 0.76522 0.0
C1082 C 0.77296 0.6107 0.71581 0.0
C1083 C 0.78859 0.61831 0.69661 0.0
H1084 H 0.73437 0.37356 0.13034 0.0
H1085 H 0.71041 0.39453 0.26945 0.0
H1086 H 0.76092 0.38312 0.16849 0.0
H1087 H 0.7371 0.40589 0.30735 0.0
H1088 H 0.78512 0.34591 0.36294 0.0
H1089 H 0.75834 0.36135 0.32966 0.0
H1090 H 0.78135 0.42195 0.20833 0.0
H1091 H 0.80838 0.405 0.24097 0.0
C1092 C 0.73472 0.38125 0.16889 0.0
C1093 C 0.72018 0.38276 0.1968 0.0
C1094 C 0.75002 0.3872 0.19074 0.0
C1095 C 0.75125 0.3949 0.24123 0.0
C1096 C 0.73664 0.39939 0.2685 0.0
C1097 C 0.72127 0.39332 0.24657 0.0
C1098 C 0.78452 0.36313 0.32955 0.0
C1099 C 0.79895 0.37376 0.30439 0.0
C1100 C 0.76908 0.37241 0.31067 0.0
C1101 C 0.76759 0.39263 0.26595 0.0
C1102 C 0.78203 0.40582 0.2425 0.0
C1103 C 0.79756 0.39648 0.26151 0.0
H1104 H 0.80766 0.86153 0.27637 0.0
H1105 H 0.78863 0.90275 0.13826 0.0
H1106 H 0.78085 0.87098 0.31407 0.0
H1107 H 0.76201 0.91517 0.17626 0.0
H1108 H 0.71273 0.86844 0.23658 0.0
H1109 H 0.73967 0.87935 0.20037 0.0
H1110 H 0.75922 0.90654 0.34405 0.0
H1111 H 0.73239 0.89259 0.38001 0.0
C1112 C 0.79785 0.87414 0.25464 0.0
C1113 C 0.80015 0.88136 0.2045 0.0
C1114 C 0.7824 0.87974 0.2762 0.0
C1115 C 0.76897 0.89345 0.24826 0.0
C1116 C 0.77178 0.90348 0.19882 0.0
C1117 C 0.78711 0.89688 0.17706 0.0
C1118 C 0.72272 0.87788 0.26001 0.0
C1119 C 0.72054 0.87988 0.3109 0.0
C1120 C 0.73826 0.88422 0.23936 0.0
C1121 C 0.75192 0.89337 0.26918 0.0
C1122 C 0.74925 0.89845 0.31986 0.0
C1123 C 0.73381 0.8911 0.34053 0.0
H1124 H 0.71358 0.13773 0.81136 0.0
H1125 H 0.72921 0.12461 0.6613 0.0
H1126 H 0.74121 0.12267 0.83933 0.0
H1127 H 0.75673 0.10657 0.68867 0.0
H1128 H 0.80664 0.14857 0.75064 0.0
H1129 H 0.77916 0.1399 0.71756 0.0
H1130 H 0.76391 0.08476 0.85336 0.0
H1131 H 0.79121 0.09645 0.88713 0.0
C1132 C 0.72283 0.12977 0.78452 0.0
C1133 C 0.71935 0.1321 0.73435 0.0
C1134 C 0.73875 0.12101 0.80041 0.0
C1135 C 0.75149 0.11382 0.76635 0.0
C1136 C 0.74748 0.11297 0.71609 0.0
C1137 C 0.73165 0.12269 0.70029 0.0
C1138 C 0.7975 0.13358 0.7727 0.0
C1139 C 0.80096 0.12317 0.8213 0.0
C1140 C 0.78166 0.12845 0.75381 0.0
C1141 C 0.76902 0.11213 0.78292 0.0
C1142 C 0.77306 0.09854 0.8302 0.0
C1143 C 0.78877 0.10465 0.84943 0.0
H1144 H 0.28857 0.10186 0.6372 0.0
H1145 H 0.30908 0.14592 0.77211 0.0
H1146 H 0.26218 0.09182 0.67758 0.0
H1147 H 0.28252 0.13857 0.81211 0.0
H1148 H 0.2346 0.11732 0.88291 0.0
H1149 H 0.26111 0.10354 0.84495 0.0
H1150 H 0.24018 0.12891 0.70256 0.0
H1151 H 0.21352 0.13988 0.74083 0.0
C1152 C 0.28743 0.10888 0.67583 0.0
C1153 C 0.30086 0.12447 0.70162 0.0
C1154 C 0.27223 0.10363 0.69893 0.0
C1155 C 0.26992 0.11497 0.74814 0.0
C1156 C 0.28369 0.12883 0.77449 0.0
C1157 C 0.29901 0.13318 0.75159 0.0
C1158 C 0.23564 0.11866 0.84332 0.0
C1159 C 0.22204 0.12938 0.81471 0.0
C1160 C 0.2509 0.11135 0.82149 0.0
C1161 C 0.25308 0.11579 0.77053 0.0
C1162 C 0.23913 0.12456 0.74175 0.0
C1163 C 0.22376 0.13094 0.7636 0.0
H1164 H 0.307 0.86764 0.24513 0.0
H1165 H 0.29131 0.90042 0.39046 0.0
H1166 H 0.2795 0.88005 0.21409 0.0
H1167 H 0.26401 0.91596 0.35935 0.0
H1168 H 0.21408 0.86711 0.30655 0.0
H1169 H 0.24154 0.87975 0.33752 0.0
H1170 H 0.25692 0.91624 0.19236 0.0
H1171 H 0.22956 0.90057 0.16136 0.0
C1172 C 0.29778 0.87919 0.26995 0.0
C1173 C 0.30117 0.883 0.32007 0.0
C1174 C 0.28195 0.8865 0.25224 0.0
C1175 C 0.26924 0.8985 0.28423 0.0
C1176 C 0.27321 0.90562 0.33373 0.0
C1177 C 0.28892 0.89725 0.35158 0.0
C1178 C 0.22324 0.87908 0.28182 0.0
C1179 C 0.21979 0.88315 0.23182 0.0
C1180 C 0.23906 0.88645 0.29945 0.0
C1181 C 0.25174 0.89858 0.26743 0.0
C1182 C 0.24772 0.90592 0.21801 0.0
C1183 C 0.23198 0.89761 0.20025 0.0
H1184 H 0.17196 0.39082 0.5173 0.0
H1185 H 0.13926 0.44277 0.41146 0.0
H1186 H 0.17618 0.45555 0.55487 0.0
H1187 H 0.14455 0.50776 0.44625 0.0
H1188 H 0.13807 0.56127 0.62626 0.0
H1189 H 0.14582 0.4979 0.59049 0.0
H1190 H 0.17314 0.55798 0.4775 0.0
H1191 H 0.16645 0.62128 0.51567 0.0
C1192 C 0.16647 0.41641 0.50024 0.0
C1193 C 0.15576 0.41203 0.46012 0.0
C1194 C 0.16883 0.45327 0.52189 0.0
C1195 C 0.1608 0.48641 0.50306 0.0
C1196 C 0.15116 0.48263 0.46064 0.0
C1197 C 0.14844 0.44558 0.43984 0.0
C1198 C 0.14683 0.56079 0.59639 0.0
C1199 C 0.15227 0.596 0.57512 0.0
C1200 C 0.15097 0.52463 0.57518 0.0
C1201 C 0.16013 0.52333 0.53148 0.0
C1202 C 0.16622 0.55837 0.51149 0.0
C1203 C 0.16244 0.59441 0.53342 0.0
H1204 H 0.38817 0.56543 0.91373 0.0
H1205 H 0.34527 0.61403 0.98393 0.0
H1206 H 0.38415 0.50371 0.95855 0.0
H1207 H 0.34103 0.55187 0.02819 0.0
H1208 H 0.34149 0.40271 0.0454 0.0
H1209 H 0.33917 0.46573 1.0019 0.0
H1210 H 0.38476 0.50385 0.06674 0.0
H1211 H 0.3869 0.44131 0.11083 0.0
C1212 C 0.37734 0.56207 0.9365 0.0
C1213 C 0.36677 0.59401 0.94443 0.0
C1214 C 0.37524 0.52713 0.96292 0.0
C1215 C 0.36242 0.52348 0.9972 0.0
C1216 C 0.351 0.55412 1.00199 0.0
C1217 C 0.3533 0.58936 0.97622 0.0
C1218 C 0.35054 0.42543 0.05227 0.0
C1219 C 0.36418 0.41759 0.08234 0.0
C1220 C 0.34932 0.46116 0.02693 0.0
C1221 C 0.36193 0.48911 0.03049 0.0
C1222 C 0.37494 0.4825 0.0633 0.0
C1223 C 0.37599 0.44711 0.08932 0.0
H1224 H 0.8865 0.56878 0.60891 0.0
H1225 H 0.84285 0.61305 0.5387 0.0
H1226 H 0.88347 0.50651 0.56459 0.0
H1227 H 0.83963 0.55033 0.49494 0.0
H1228 H 0.84271 0.40079 0.47939 0.0
H1229 H 0.83941 0.46358 0.52298 0.0
H1230 H 0.88381 0.50667 0.45539 0.0
H1231 H 0.88692 0.44434 0.41122 0.0
C1232 C 0.87574 0.56435 0.58624 0.0
C1233 C 0.86469 0.59531 0.5781 0.0
C1234 C 0.8742 0.52909 0.5601 0.0
C1235 C 0.86144 0.52407 0.52598 0.0
C1236 C 0.84956 0.55364 0.52102 0.0
C1237 C 0.85129 0.58921 0.54648 0.0
C1238 C 0.85125 0.42452 0.47194 0.0
C1239 C 0.86481 0.41823 0.4409 0.0
C1240 C 0.84948 0.46011 0.49734 0.0
C1241 C 0.86149 0.48949 0.49294 0.0
C1242 C 0.87444 0.48426 0.45942 0.0
C1243 C 0.87603 0.44898 0.43335 0.0
H1244 H 0.67135 0.6184 0.02146 0.0
H1245 H 0.63832 0.57087 0.91318 0.0
H1246 H 0.67428 0.55283 0.05786 0.0
H1247 H 0.64236 0.50502 0.9468 0.0
H1248 H 0.66265 0.38855 1.0121 0.0
H1249 H 0.66961 0.4522 0.97526 0.0
H1250 H 0.6442 0.51161 0.09269 0.0
H1251 H 0.63612 0.448 0.12714 0.0
C1252 C 0.66542 0.59362 1.00384 0.0
C1253 C 0.65507 0.59947 0.96321 0.0
C1254 C 0.66708 0.55627 0.02476 0.0
C1255 C 0.65868 0.5241 1.0047 0.0
C1256 C 0.64925 0.52937 0.96213 0.0
C1257 C 0.64723 0.56689 0.94209 0.0
C1258 C 0.65905 0.41529 0.03089 0.0
C1259 C 0.64939 0.4135 0.07365 0.0
C1260 C 0.66302 0.45153 1.00979 0.0
C1261 C 0.65761 0.48654 0.03161 0.0
C1262 C 0.64884 0.4849 0.07599 0.0
C1263 C 0.64452 0.44858 0.09639 0.0
H1264 H 0.67827 0.89765 0.50152 0.0
H1265 H 0.63449 0.9399 0.43002 0.0
H1266 H 0.68121 0.96106 0.54385 0.0
H1267 H 0.63721 1.00285 0.47302 0.0
H1268 H 0.63403 0.0741 0.61849 0.0
H1269 H 0.63574 0.01062 0.57624 0.0
H1270 H 0.68316 0.04253 0.51779 0.0
H1271 H 0.68128 0.10654 0.55919 0.0
C1272 C 0.66966 0.92106 0.49349 0.0
C1273 C 0.65636 0.91431 0.46173 0.0
C1274 C 0.67124 0.95706 0.51804 0.0
C1275 C 0.65928 0.98638 0.5122 0.0
C1276 C 0.6465 0.98045 0.47836 0.0
C1277 C 0.64513 0.9448 0.45302 0.0
C1278 C 0.6451 0.06692 0.59832 0.0
C1279 C 0.65763 0.09493 0.59261 0.0
C1280 C 0.64595 0.03096 0.57345 0.0
C1281 C 0.65946 0.02216 0.54322 0.0
C1282 C 0.6726 0.04879 0.54073 0.0
C1283 C 0.67159 0.08513 0.56475 0.0
H1284 H 0.85363 0.8915 1.01001 0.0
H1285 H 0.88316 0.94816 0.12031 0.0
H1286 H 0.84822 0.95551 0.97198 0.0
H1287 H 0.87668 0.0123 0.08491 0.0
H1288 H 0.88338 0.06397 0.90107 0.0
H1289 H 0.87629 1.00049 0.93749 0.0
H1290 H 0.84927 0.05987 0.05173 0.0
H1291 H 0.85526 0.12326 1.01288 0.0
C1292 C 0.85812 0.91788 0.02786 0.0
C1293 C 0.86828 0.9151 0.06938 0.0
C1294 C 0.85509 0.95434 1.00596 0.0
C1295 C 0.86193 0.98863 0.02585 0.0
C1296 C 0.87096 0.98625 0.06963 0.0
C1297 C 0.87436 0.94965 0.09074 0.0
C1298 C 0.87483 0.06329 0.93143 0.0
C1299 C 0.86932 0.09836 0.95288 0.0
C1300 C 0.87106 0.02704 0.95301 0.0
C1301 C 0.86219 0.02552 0.99725 0.0
C1302 C 0.85599 0.0604 0.01741 0.0
C1303 C 0.8594 0.09651 0.99511 0.0
H1304 H 0.35704 0.12198 0.50372 0.0
H1305 H 0.38404 0.06269 0.61764 0.0
H1306 H 0.35085 0.05845 0.4655 0.0
H1307 H 0.37674 0.99912 0.58183 0.0
H1308 H 0.35317 0.89052 0.50901 0.0
H1309 H 0.34863 0.95493 0.54704 0.0
H1310 H 0.37786 0.00945 0.4339 0.0
H1311 H 0.38351 0.94484 0.39848 0.0
C1312 C 0.36088 0.09523 0.52205 0.0
C1313 C 0.3705 0.09709 0.56477 0.0
C1314 C 0.35736 0.05905 0.50011 0.0
C1315 C 0.36318 0.02411 0.52107 0.0
C1316 C 0.37179 0.02572 0.56569 0.0
C1317 C 0.37566 0.06202 0.58692 0.0
C1318 C 0.35812 0.91648 0.49127 0.0
C1319 C 0.36822 0.9129 0.4496 0.0
C1320 C 0.35555 0.95318 0.51313 0.0
C1321 C 0.36277 0.98695 0.49304 0.0
C1322 C 0.37186 0.98383 0.44934 0.0
C1323 C 0.37479 0.94697 0.42828 0.0
H1324 H 0.17731 0.89361 0.03546 0.0
H1325 H 0.13884 0.94155 0.12667 0.0
H1326 H 0.18043 0.95747 0.99479 0.0
H1327 H 0.14243 0.00576 0.08703 0.0
H1328 H 0.13945 0.06453 0.91624 0.0
H1329 H 0.14407 1.00047 0.9552 0.0
H1330 H 0.17848 0.05369 0.05518 0.0
H1331 H 0.17433 0.11749 1.01511 0.0
C1332 C 0.17 0.91821 0.04822 0.0
C1333 C 0.15802 0.91278 0.08493 0.0
C1334 C 0.17174 0.95455 0.0247 0.0
C1335 C 0.16161 0.98613 0.03777 0.0
C1336 C 0.15041 0.98165 0.07665 0.0
C1337 C 0.14857 0.94516 0.09996 0.0
C1338 C 0.1488 0.06205 0.94423 0.0
C1339 C 0.15692 0.09569 0.96158 0.0
C1340 C 0.15117 0.02564 0.96727 0.0
C1341 C 0.16154 0.02254 1.00822 0.0
C1342 C 0.17047 0.05551 0.02357 0.0
C1343 C 0.1682 0.09179 1.00034 0.0
H1344 H 0.10895 0.17524 0.35144 0.0
H1345 H 0.16143 0.1871 0.33343 0.0
H1346 H 0.11043 0.10793 0.32147 0.0
H1347 H 0.16309 0.11911 0.3055 0.0
H1348 H 0.15845 0.01059 0.20771 0.0
H1349 H 0.15703 0.07814 0.23812 0.0
H1350 H 0.11869 0.0439 0.33946 0.0
H1351 H 0.11963 0.97731 0.30755 0.0
C1352 C 0.12086 0.16319 0.342 0.0
C1353 C 0.13507 0.18654 0.3448 0.0
C1354 C 0.12174 0.12445 0.32486 0.0
C1355 C 0.13689 0.10785 0.31072 0.0
C1356 C 0.15116 0.131 0.31496 0.0
C1357 C 0.15024 0.16991 0.33151 0.0
C1358 C 0.14969 0.01767 0.23634 0.0
C1359 C 0.13912 0.98865 0.25504 0.0
C1360 C 0.14894 0.05633 0.25412 0.0
C1361 C 0.13774 0.06673 0.29145 0.0
C1362 C 0.12725 0.03744 0.31012 0.0
C1363 C 0.12785 0.99905 0.29192 0.0
H1364 H 0.36443 1.0 0.69451 0.0
H1365 H 0.40186 0.03617 0.7972 0.0
H1366 H 0.36601 0.93297 0.72621 0.0
H1367 H 0.40307 0.9697 0.82998 0.0
H1368 H 0.41277 0.83675 0.84274 0.0
H1369 H 0.41167 0.90444 0.81305 0.0
H1370 H 0.35905 0.89445 0.79585 0.0
H1371 H 0.36028 0.82659 0.82393 0.0
C1372 C 0.37294 0.99369 0.72398 0.0
C1373 C 0.383 0.02348 0.74331 0.0
C1374 C 0.37378 0.95528 0.74248 0.0
C1375 C 0.38461 0.94577 0.78102 0.0
C1376 C 0.39474 0.97563 0.79995 0.0
C1377 C 0.39399 0.0139 0.78123 0.0
C1378 C 0.40095 0.84921 0.8332 0.0
C1379 C 0.38663 0.8262 0.83552 0.0
C1380 C 0.4003 0.88809 0.81615 0.0
C1381 C 0.38528 0.90497 0.80139 0.0
C1382 C 0.37089 0.88228 0.80564 0.0
C1383 C 0.37157 0.84341 0.82228 0.0
H1384 H 0.16085 1.00044 0.82787 0.0
H1385 H 0.11776 0.03423 0.74589 0.0
H1386 H 0.15876 0.93388 0.79462 0.0
H1387 H 0.116 0.96851 0.71135 0.0
H1388 H 0.10772 0.83558 0.69686 0.0
H1389 H 0.10943 0.90249 0.72877 0.0
H1390 H 0.16243 0.89668 0.72199 0.0
H1391 H 0.16067 0.82942 0.69182 0.0
C1392 C 0.15098 0.99372 0.80262 0.0
C1393 C 0.13948 0.02269 0.78965 0.0
C1394 C 0.14983 0.9556 0.78318 0.0
C1395 C 0.13723 0.94561 0.74995 0.0
C1396 C 0.12571 0.9747 0.7373 0.0
C1397 C 0.12678 0.0126 0.75703 0.0
C1398 C 0.11972 0.8488 0.70159 0.0
C1399 C 0.13404 0.82708 0.69188 0.0
C1400 C 0.12073 0.88727 0.71992 0.0
C1401 C 0.1361 0.90512 0.72857 0.0
C1402 C 0.15039 0.88375 0.71703 0.0
C1403 C 0.14937 0.84524 0.69915 0.0
H1404 H 0.40035 0.16664 0.14029 0.0
H1405 H 0.36502 0.19796 0.25208 0.0
H1406 H 0.39876 0.09792 0.16616 0.0
H1407 H 0.3639 0.13006 0.27904 0.0
H1408 H 0.35492 0.99904 0.29219 0.0
H1409 H 0.355 0.06589 0.26001 0.0
H1410 H 0.40717 0.057 0.2323 0.0
H1411 H 0.40692 0.98968 0.26272 0.0
C1412 C 0.39221 0.15885 0.17021 0.0
C1413 C 0.38284 0.1878 0.1941 0.0
C1414 C 0.39139 0.11952 0.18538 0.0
C1415 C 0.38128 0.10833 0.225 0.0
C1416 C 0.37165 0.13729 0.24801 0.0
C1417 C 0.37236 0.17642 0.23262 0.0
C1418 C 0.3664 0.0114 0.27929 0.0
C1419 C 0.38091 0.98903 0.28001 0.0
C1420 C 0.36647 0.04983 0.26094 0.0
C1421 C 0.38109 0.06698 0.24333 0.0
C1422 C 0.39562 0.0446 0.24456 0.0
C1423 C 0.39551 0.00607 0.26248 0.0
H1424 H 0.85908 0.82255 0.7075 0.0
H1425 H 0.91065 0.83636 0.67446 0.0
H1426 H 0.85776 0.89081 0.73435 0.0
H1427 H 0.90955 0.90418 0.70311 0.0
H1428 H 0.89917 0.03495 0.71707 0.0
H1429 H 0.89995 0.9679 0.6863 0.0
H1430 H 0.86584 0.93231 0.79963 0.0
H1431 H 0.86458 1.00006 0.82919 0.0
C1432 C 0.87014 0.84022 0.70586 0.0
C1433 C 0.88497 0.824 0.68878 0.0
C1434 C 0.86943 0.87932 0.72177 0.0
C1435 C 0.88357 0.90315 0.72148 0.0
C1436 C 0.89833 0.88704 0.70338 0.0
C1437 C 0.899 0.84804 0.68698 0.0
C1438 C 0.89185 0.01281 0.73555 0.0
C1439 C 0.88179 0.02289 0.77556 0.0
C1440 C 0.89236 0.9742 0.71799 0.0
C1441 C 0.88296 0.94443 0.74031 0.0
C1442 C 0.87302 0.95449 0.78082 0.0
C1443 C 0.87238 0.9933 0.79807 0.0
H1444 H 0.65868 0.19301 0.22844 0.0
H1445 H 0.61042 0.16714 0.17121 0.0
H1446 H 0.66041 0.12741 0.26253 0.0
H1447 H 0.61246 0.10024 0.20342 0.0
H1448 H 0.61303 0.99956 0.31393 0.0
H1449 H 0.61155 0.06485 0.27741 0.0
H1450 H 0.66372 0.06069 0.24763 0.0
H1451 H 0.66525 0.9963 0.28633 0.0
C1452 C 0.64854 0.173 0.22219 0.0
C1453 C 0.63438 0.18547 0.19712 0.0
C1454 C 0.64957 0.13509 0.24168 0.0
C1455 C 0.63656 0.10821 0.23611 0.0
C1456 C 0.6226 0.12026 0.20945 0.0
C1457 C 0.62149 0.15852 0.19044 0.0
C1458 C 0.6242 0.0128 0.29994 0.0
C1459 C 0.63927 0.99282 0.3033 0.0
C1460 C 0.62333 0.05013 0.27842 0.0
C1461 C 0.63748 0.06827 0.25906 0.0
C1462 C 0.65257 0.04817 0.26271 0.0
C1463 C 0.65347 0.0111 0.28488 0.0
H1464 H 0.85483 0.99755 0.23329 0.0
H1465 H 0.90741 0.98912 0.25106 0.0
H1466 H 0.8554 0.064 0.26655 0.0
H1467 H 0.90815 0.05625 0.28225 0.0
H1468 H 0.90331 0.16699 0.37456 0.0
H1469 H 0.90174 0.09813 0.34881 0.0
H1470 H 0.86305 0.12809 0.24695 0.0
H1471 H 0.86414 0.19578 0.2741 0.0
C1472 C 0.86655 0.01008 0.24377 0.0
C1473 C 0.88107 0.98805 0.2394 0.0
C1474 C 0.86691 0.04833 0.26275 0.0
C1475 C 0.88184 0.06582 0.27718 0.0
C1476 C 0.89638 0.0437 0.27249 0.0
C1477 C 0.89598 0.00526 0.2541 0.0
C1478 C 0.89435 0.15864 0.34713 0.0
C1479 C 0.88385 0.18694 0.32651 0.0
C1480 C 0.89353 0.11921 0.33197 0.0
C1481 C 0.88229 0.10729 0.29553 0.0
C1482 C 0.87166 0.1357 0.27565 0.0
C1483 C 0.87236 0.17481 0.29112 0.0
H1484 H 0.6588 0.81568 0.79982 0.0
H1485 H 0.61487 0.84424 0.88149 0.0
H1486 H 0.66005 0.88253 0.7688 0.0
H1487 H 0.61644 0.91189 0.85171 0.0
H1488 H 0.61285 0.01432 0.74404 0.0
H1489 H 0.61227 0.94793 0.77754 0.0
H1490 H 0.66522 0.94918 0.78886 0.0
H1491 H 0.66581 0.01507 0.75377 0.0
C1492 C 0.64954 0.83643 0.81189 0.0
C1493 C 0.63668 0.82452 0.84302 0.0
C1494 C 0.6503 0.87494 0.79418 0.0
C1495 C 0.63829 0.9027 0.80742 0.0
C1496 C 0.62572 0.89112 0.83993 0.0
C1497 C 0.6249 0.85243 0.85742 0.0
C1498 C 0.62438 1.00033 0.75341 0.0
C1499 C 0.63937 0.01998 0.74616 0.0
C1500 C 0.62404 0.96236 0.77312 0.0
C1501 C 0.63868 0.94318 0.78638 0.0
C1502 C 0.6537 0.96278 0.77862 0.0
C1503 C 0.65405 1.00065 0.75856 0.0
H1504 H 0.66299 0.68662 0.32763 0.0
H1505 H 0.61138 0.67297 0.36039 0.0
H1506 H 0.6641 0.61897 0.29841 0.0
H1507 H 0.6123 0.60572 0.32953 0.0
H1508 H 0.62246 0.47507 0.31173 0.0
H1509 H 0.62187 0.54149 0.34449 0.0
H1510 H 0.65578 0.57893 0.23159 0.0
H1511 H 0.65681 0.51175 0.19984 0.0
C1512 C 0.65187 0.66911 0.32876 0.0
C1513 C 0.6371 0.68523 0.34644 0.0
C1514 C 0.65247 0.63037 0.31147 0.0
C1515 C 0.63826 0.60675 0.31101 0.0
C1516 C 0.62356 0.6227 0.32976 0.0
C1517 C 0.623 0.66137 0.34746 0.0
C1518 C 0.62977 0.49746 0.29374 0.0
C1519 C 0.63971 0.48803 0.25316 0.0
C1520 C 0.62937 0.53573 0.31246 0.0
C1521 C 0.63876 0.56584 0.29085 0.0
C1522 C 0.64859 0.55646 0.24984 0.0
C1523 C 0.64911 0.51798 0.23134 0.0
H1524 H 0.85589 0.51607 0.75099 0.0
H1525 H 0.90818 0.51339 0.72429 0.0
H1526 H 0.85732 0.45062 0.78693 0.0
H1527 H 0.90955 0.44719 0.7582 0.0
H1528 H 0.9102 0.3423 0.86051 0.0
H1529 H 0.90824 0.41011 0.83135 0.0
H1530 H 0.86081 0.38424 0.76781 0.0
H1531 H 0.86247 0.31757 0.79871 0.0
C1532 C 0.86767 0.50125 0.75214 0.0
C1533 C 0.88192 0.51994 0.73472 0.0
C1534 C 0.8685 0.46358 0.77269 0.0
C1535 C 0.88357 0.44338 0.77574 0.0
C1536 C 0.89778 0.462 0.75755 0.0
C1537 C 0.89697 0.49986 0.73757 0.0
C1538 C 0.89927 0.35136 0.84091 0.0
C1539 C 0.88651 0.32448 0.832 0.0
C1540 C 0.8982 0.39014 0.8237 0.0
C1541 C 0.88441 0.40282 0.79675 0.0
C1542 C 0.87152 0.37599 0.78895 0.0
C1543 C 0.87251 0.3375 0.80658 0.0
H1544 H 0.65692 0.31529 0.76102 0.0
H1545 H 0.62093 0.3474 0.6518 0.0
H1546 H 0.65812 0.38291 0.78892 0.0
H1547 H 0.62258 0.4159 0.67872 0.0
H1548 H 0.61464 0.52242 0.77891 0.0
H1549 H 0.61442 0.45565 0.74674 0.0
H1550 H 0.66682 0.44753 0.77014 0.0
H1551 H 0.6669 0.51391 0.80398 0.0
C1552 C 0.64943 0.33694 0.74234 0.0
C1553 C 0.63875 0.32584 0.70428 0.0
C1554 C 0.6502 0.37592 0.75825 0.0
C1555 C 0.64041 0.40502 0.7363 0.0
C1556 C 0.63009 0.39416 0.6971 0.0
C1557 C 0.62924 0.35496 0.68134 0.0
C1558 C 0.62611 0.50633 0.77737 0.0
C1559 C 0.64078 0.52346 0.79419 0.0
C1560 C 0.62601 0.46812 0.75842 0.0
C1561 C 0.64061 0.44612 0.75548 0.0
C1562 C 0.6553 0.46333 0.77237 0.0
C1563 C 0.65536 0.50147 0.7917 0.0
H1564 H 0.90703 0.49885 0.29544 0.0
H1565 H 0.85454 0.49869 0.27276 0.0
H1566 H 0.9087 0.56511 0.26189 0.0
H1567 H 0.85624 0.56433 0.23731 0.0
H1568 H 0.86261 0.69716 0.22526 0.0
H1569 H 0.86062 0.63064 0.25662 0.0
H1570 H 0.90707 0.602 0.18834 0.0
H1571 H 0.90938 0.66959 0.15854 0.0
C1572 C 0.89584 0.51296 0.28317 0.0
C1573 C 0.88064 0.49352 0.28692 0.0
C1574 C 0.89682 0.55087 0.2634 0.0
C1575 C 0.88264 0.5702 0.24639 0.0
C1576 C 0.86741 0.55074 0.25055 0.0
C1577 C 0.86642 0.51298 0.27083 0.0
C1578 C 0.87237 0.67666 0.21647 0.0
C1579 C 0.88619 0.68881 0.18943 0.0
C1580 C 0.87117 0.63827 0.23436 0.0
C1581 C 0.88369 0.61071 0.22531 0.0
C1582 C 0.89732 0.62255 0.19692 0.0
C1583 C 0.89859 0.66121 0.17937 0.0
H1584 H 0.40823 0.51172 0.79862 0.0
H1585 H 0.35589 0.51311 0.77347 0.0
H1586 H 0.40984 0.44566 0.76437 0.0
H1587 H 0.35753 0.44782 0.73708 0.0
H1588 H 0.36314 0.31529 0.72208 0.0
H1589 H 0.36131 0.38146 0.75451 0.0
H1590 H 0.40868 0.40892 0.69122 0.0
H1591 H 0.41083 0.34154 0.66058 0.0
C1592 C 0.39706 0.49791 0.78564 0.0
C1593 C 0.38192 0.51761 0.78896 0.0
C1594 C 0.398 0.46012 0.76544 0.0
C1595 C 0.38385 0.44121 0.74745 0.0
C1596 C 0.36868 0.46099 0.75113 0.0
C1597 C 0.36772 0.49857 0.77195 0.0
C1598 C 0.37314 0.33547 0.7146 0.0
C1599 C 0.38716 0.323 0.68874 0.0
C1600 C 0.37204 0.37369 0.73312 0.0
C1601 C 0.38485 0.40084 0.7258 0.0
C1602 C 0.39869 0.38871 0.69853 0.0
C1603 C 0.39988 0.35017 0.68046 0.0
H1604 H 0.11922 0.66519 0.15549 0.0
H1605 H 0.15757 0.69593 0.25791 0.0
H1606 H 0.12087 0.59671 0.1822 0.0
H1607 H 0.15879 0.62825 0.28585 0.0
H1608 H 0.16685 0.49654 0.29954 0.0
H1609 H 0.16658 0.56329 0.26679 0.0
H1610 H 0.11385 0.55662 0.25021 0.0
H1611 H 0.11424 0.48952 0.28115 0.0
C1612 C 0.12803 0.65733 0.18356 0.0
C1613 C 0.13823 0.68609 0.20454 0.0
C1614 C 0.12889 0.61811 0.19925 0.0
C1615 C 0.13989 0.60678 0.23656 0.0
C1616 C 0.15033 0.63554 0.25664 0.0
C1617 C 0.14956 0.67456 0.2407 0.0
C1618 C 0.1552 0.50939 0.28898 0.0
C1619 C 0.14057 0.48765 0.29294 0.0
C1620 C 0.15502 0.54778 0.2703 0.0
C1621 C 0.14019 0.56553 0.25555 0.0
C1622 C 0.12555 0.5438 0.26013 0.0
C1623 C 0.12576 0.50535 0.27838 0.0
H1624 H 0.41032 0.66962 0.36244 0.0
H1625 H 0.36293 0.69457 0.29851 0.0
H1626 H 0.40833 0.60169 0.33374 0.0
H1627 H 0.36124 0.62769 0.26818 0.0
H1628 H 0.35626 0.49562 0.2528 0.0
H1629 H 0.35761 0.56126 0.28833 0.0
H1630 H 0.40988 0.56478 0.26012 0.0
H1631 H 0.40858 0.49847 0.2265 0.0
C1632 C 0.39946 0.66058 0.34249 0.0
C1633 C 0.3868 0.68756 0.33277 0.0
C1634 C 0.39837 0.62173 0.32556 0.0
C1635 C 0.38468 0.60909 0.29817 0.0
C1636 C 0.37187 0.63598 0.28965 0.0
C1637 C 0.37288 0.67457 0.30694 0.0
C1638 C 0.36802 0.5105 0.25398 0.0
C1639 C 0.38231 0.49183 0.23679 0.0
C1640 C 0.36881 0.54825 0.2743 0.0
C1641 C 0.38388 0.56849 0.27737 0.0
C1642 C 0.39811 0.54991 0.25941 0.0
C1643 C 0.39735 0.51199 0.23961 0.0
H1644 H 0.11187 0.33613 0.85607 0.0
H1645 H 0.16337 0.32121 0.82288 0.0
H1646 H 0.11312 0.40351 0.82592 0.0
H1647 H 0.16483 0.38904 0.79444 0.0
H1648 H 0.15824 0.49822 0.69857 0.0
H1649 H 0.15694 0.43062 0.72892 0.0
H1650 H 0.12286 0.46718 0.84182 0.0
H1651 H 0.1237 0.53394 0.81038 0.0
C1652 C 0.12353 0.34745 0.84315 0.0
C1653 C 0.13751 0.3232 0.8419 0.0
C1654 C 0.12428 0.38623 0.82588 0.0
C1655 C 0.13907 0.40196 0.80735 0.0
C1656 C 0.15314 0.37789 0.80737 0.0
C1657 C 0.15234 0.33902 0.82422 0.0
C1658 C 0.15045 0.4917 0.72978 0.0
C1659 C 0.14106 0.5215 0.75193 0.0
C1660 C 0.14977 0.45296 0.74747 0.0
C1661 C 0.13979 0.44317 0.78804 0.0
C1662 C 0.13045 0.47319 0.81006 0.0
C1663 C 0.13101 0.51169 0.79211 0.0
loop_
_geom_bond_atom_site_label_1
_geom_bond_atom_site_label_2
_geom_bond_distance
_geom_bond_site_symmetry_2
_ccdc_geom_bond_type
Zn0 N4 2.020 . S
Zn0 O8 2.019 . S
Zn0 N10 2.119 . S
Zn0 O18 1.975 . S
C1 N2 1.334 . S
C1 N5 1.336 . S
N2 C1 1.334 . S
N2 C3 1.334 . S
C3 N2 1.334 . S
C3 N4 1.336 . S
N4 Zn0 2.020 . S
N4 C3 1.336 . S
N4 N5 1.354 . S
N5 C1 1.336 . S
N5 N4 1.354 . S
N5 Zn9 2.020 . S
C6 O7 1.244 . S
C6 O30 1.257 . S
O7 C6 1.244 . S
O8 Zn0 2.019 . S
O8 C28 1.257 . S
Zn9 N5 2.020 . S
Zn9 O16 1.975 . S
Zn9 N25 2.119 . S
Zn9 O30 2.019 . S
N10 Zn0 2.119 . S
N10 C12 1.334 . S
N10 C13 1.328 . S
C11 C12 1.391 . S
C11 N14 1.329 . S
C11 H32 0.930 . S
C12 N10 1.334 . S
C12 C11 1.391 . S
C12 H19 0.930 . S
C13 N10 1.328 . S
C13 C15 1.392 . S
C13 H20 0.930 . S
N14 C11 1.329 . S
N14 C15 1.331 . S
C15 C13 1.392 . S
C15 N14 1.331 . S
O16 Zn9 1.975 . S
O16 C17 1.252 . S
C17 O16 1.252 . S
C17 O18 1.252 . S
O18 Zn0 1.975 . S
O18 C17 1.252 . S
H19 C12 0.930 . S
H20 C13 0.930 . S
C21 C22 1.392 . S
C21 N25 1.328 . S
C21 H27 0.930 . S
C22 C21 1.392 . S
C22 N26 1.331 . S
C23 C24 1.391 . S
C23 N26 1.329 . S
C23 H33 0.930 . S
C24 C23 1.391 . S
C24 N25 1.334 . S
C24 H31 0.930 . S
N25 Zn9 2.119 . S
N25 C21 1.328 . S
N25 C24 1.334 . S
N26 C22 1.331 . S
N26 C23 1.329 . S
H27 C21 0.930 . S
C28 O8 1.257 . S
C28 O29 1.244 . S
O29 C28 1.244 . S
O30 C6 1.257 . S
O30 Zn9 2.019 . S
H31 C24 0.930 . S
H32 C11 0.930 . S
H33 C23 0.930 . S
Zn34 N38 2.020 . S
Zn34 O42 2.019 . S
Zn34 N44 2.119 . S
Zn34 O52 1.975 . S
C35 N36 1.334 . S
C35 N39 1.336 . S
N36 C35 1.334 . S
N36 C37 1.334 . S
C37 N36 1.334 . S
C37 N38 1.336 . S
N38 Zn34 2.020 . S
N38 C37 1.336 . S
N38 N39 1.354 . S
N39 C35 1.336 . S
N39 N38 1.354 . S
N39 Zn43 2.020 . S
C40 O41 1.244 . S
C40 O64 1.257 . S
O41 C40 1.244 . S
O42 Zn34 2.019 . S
O42 C62 1.257 . S
Zn43 N39 2.020 . S
Zn43 O50 1.975 . S
Zn43 N59 2.119 . S
Zn43 O64 2.019 . S
N44 Zn34 2.119 . S
N44 C46 1.334 . S
N44 C47 1.328 . S
C45 C46 1.391 . S
C45 N48 1.329 . S
C45 H66 0.930 . S
C46 N44 1.334 . S
C46 C45 1.391 . S
C46 H53 0.930 . S
C47 N44 1.328 . S
C47 C49 1.392 . S
C47 H54 0.930 . S
N48 C45 1.329 . S
N48 C49 1.331 . S
C49 C47 1.392 . S
C49 N48 1.331 . S
O50 Zn43 1.975 . S
O50 C51 1.252 . S
C51 O50 1.252 . S
C51 O52 1.252 . S
O52 Zn34 1.975 . S
O52 C51 1.252 . S
H53 C46 0.930 . S
H54 C47 0.930 . S
C55 C56 1.392 . S
C55 N59 1.328 . S
C55 H61 0.930 . S
C56 C55 1.392 . S
C56 N60 1.331 . S
C57 C58 1.391 . S
C57 N60 1.329 . S
C57 H67 0.930 . S
C58 C57 1.391 . S
C58 N59 1.334 . S
C58 H65 0.930 . S
N59 Zn43 2.119 . S
N59 C55 1.328 . S
N59 C58 1.334 . S
N60 C56 1.331 . S
N60 C57 1.329 . S
H61 C55 0.930 . S
C62 O42 1.257 . S
C62 O63 1.244 . S
O63 C62 1.244 . S
O64 C40 1.257 . S
O64 Zn43 2.019 . S
H65 C58 0.930 . S
H66 C45 0.930 . S
H67 C57 0.930 . S
Zn68 N72 2.020 . S
Zn68 O76 2.019 . S
Zn68 N78 2.119 . S
Zn68 O86 1.975 . S
C69 N70 1.334 . S
C69 N73 1.336 . S
N70 C69 1.334 . S
N70 C71 1.334 . S
C71 N70 1.334 . S
C71 N72 1.336 . S
N72 Zn68 2.020 . S
N72 C71 1.336 . S
N72 N73 1.354 . S
N73 C69 1.336 . S
N73 N72 1.354 . S
N73 Zn77 2.020 . S
C74 O75 1.244 . S
C74 O98 1.257 . S
O75 C74 1.244 . S
O76 Zn68 2.019 . S
O76 C96 1.257 . S
Zn77 N73 2.020 . S
Zn77 O84 1.975 . S
Zn77 N93 2.119 . S
Zn77 O98 2.019 . S
N78 Zn68 2.119 . S
N78 C80 1.334 . S
N78 C81 1.328 . S
C79 C80 1.391 . S
C79 N82 1.329 . S
C79 H100 0.930 . S
C80 N78 1.334 . S
C80 C79 1.391 . S
C80 H87 0.930 . S
C81 N78 1.328 . S
C81 C83 1.392 . S
C81 H88 0.930 . S
N82 C79 1.329 . S
N82 C83 1.331 . S
C83 C81 1.392 . S
C83 N82 1.331 . S
O84 Zn77 1.975 . S
O84 C85 1.252 . S
C85 O84 1.252 . S
C85 O86 1.252 . S
O86 Zn68 1.975 . S
O86 C85 1.252 . S
H87 C80 0.930 . S
H88 C81 0.930 . S
C89 C90 1.392 . S
C89 N93 1.328 . S
C89 H95 0.930 . S
C90 C89 1.392 . S
C90 N94 1.331 . S
C91 C92 1.391 . S
C91 N94 1.329 . S
C91 H101 0.930 . S
C92 C91 1.391 . S
C92 N93 1.334 . S
C92 H99 0.930 . S
N93 Zn77 2.119 . S
N93 C89 1.328 . S
N93 C92 1.334 . S
N94 C90 1.331 . S
N94 C91 1.329 . S
H95 C89 0.930 . S
C96 O76 1.257 . S
C96 O97 1.244 . S
O97 C96 1.244 . S
O98 C74 1.257 . S
O98 Zn77 2.019 . S
H99 C92 0.930 . S
H100 C79 0.930 . S
H101 C91 0.930 . S
Zn102 N106 2.020 . S
Zn102 O110 2.019 . S
Zn102 N112 2.119 . S
Zn102 O120 1.975 . S
C103 N104 1.334 . S
C103 N107 1.336 . S
N104 C103 1.334 . S
N104 C105 1.334 . S
C105 N104 1.334 . S
C105 N106 1.336 . S
N106 Zn102 2.020 . S
N106 C105 1.336 . S
N106 N107 1.354 . S
N107 C103 1.336 . S
N107 N106 1.354 . S
N107 Zn111 2.020 . S
C108 O109 1.244 . S
C108 O132 1.257 . S
O109 C108 1.244 . S
O110 Zn102 2.019 . S
O110 C130 1.257 . S
Zn111 N107 2.020 . S
Zn111 O118 1.975 . S
Zn111 N127 2.119 . S
Zn111 O132 2.019 . S
N112 Zn102 2.119 . S
N112 C114 1.334 . S
N112 C115 1.328 . S
C113 C114 1.391 . S
C113 N116 1.329 . S
C113 H134 0.930 . S
C114 N112 1.334 . S
C114 C113 1.391 . S
C114 H121 0.930 . S
C115 N112 1.328 . S
C115 C117 1.392 . S
C115 H122 0.930 . S
N116 C113 1.329 . S
N116 C117 1.331 . S
C117 C115 1.392 . S
C117 N116 1.331 . S
O118 Zn111 1.975 . S
O118 C119 1.252 . S
C119 O118 1.252 . S
C119 O120 1.252 . S
O120 Zn102 1.975 . S
O120 C119 1.252 . S
H121 C114 0.930 . S
H122 C115 0.930 . S
C123 C124 1.392 . S
C123 N127 1.328 . S
C123 H129 0.930 . S
C124 C123 1.392 . S
C124 N128 1.331 . S
C125 C126 1.391 . S
C125 N128 1.329 . S
C125 H135 0.930 . S
C126 C125 1.391 . S
C126 N127 1.334 . S
C126 H133 0.930 . S
N127 Zn111 2.119 . S
N127 C123 1.328 . S
N127 C126 1.334 . S
N128 C124 1.331 . S
N128 C125 1.329 . S
H129 C123 0.930 . S
C130 O110 1.257 . S
C130 O131 1.244 . S
O131 C130 1.244 . S
O132 C108 1.257 . S
O132 Zn111 2.019 . S
H133 C126 0.930 . S
H134 C113 0.930 . S
H135 C125 0.930 . S
Zn136 N140 2.020 . S
Zn136 O144 2.019 . S
Zn136 N146 2.119 . S
Zn136 O154 1.975 . S
C137 N138 1.334 . S
C137 N141 1.336 . S
N138 C137 1.334 . S
N138 C139 1.334 . S
C139 N138 1.334 . S
C139 N140 1.336 . S
N140 Zn136 2.020 . S
N140 C139 1.336 . S
N140 N141 1.354 . S
N141 C137 1.336 . S
N141 N140 1.354 . S
N141 Zn145 2.020 . S
C142 O143 1.244 . S
C142 O166 1.257 . S
O143 C142 1.244 . S
O144 Zn136 2.019 . S
O144 C164 1.257 . S
Zn145 N141 2.020 . S
Zn145 O152 1.975 . S
Zn145 N161 2.119 . S
Zn145 O166 2.019 . S
N146 Zn136 2.119 . S
N146 C148 1.334 . S
N146 C149 1.328 . S
C147 C148 1.391 . S
C147 N150 1.329 . S
C147 H168 0.930 . S
C148 N146 1.334 . S
C148 C147 1.391 . S
C148 H155 0.930 . S
C149 N146 1.328 . S
C149 C151 1.392 . S
C149 H156 0.930 . S
N150 C147 1.329 . S
N150 C151 1.331 . S
C151 C149 1.392 . S
C151 N150 1.331 . S
O152 Zn145 1.975 . S
O152 C153 1.252 . S
C153 O152 1.252 . S
C153 O154 1.252 . S
O154 Zn136 1.975 . S
O154 C153 1.252 . S
H155 C148 0.930 . S
H156 C149 0.930 . S
C157 C158 1.392 . S
C157 N161 1.328 . S
C157 H163 0.930 . S
C158 C157 1.392 . S
C158 N162 1.331 . S
C159 C160 1.391 . S
C159 N162 1.329 . S
C159 H169 0.930 . S
C160 C159 1.391 . S
C160 N161 1.334 . S
C160 H167 0.930 . S
N161 Zn145 2.119 . S
N161 C157 1.328 . S
N161 C160 1.334 . S
N162 C158 1.331 . S
N162 C159 1.329 . S
H163 C157 0.930 . S
C164 O144 1.257 . S
C164 O165 1.244 . S
O165 C164 1.244 . S
O166 C142 1.257 . S
O166 Zn145 2.019 . S
H167 C160 0.930 . S
H168 C147 0.930 . S
H169 C159 0.930 . S
Zn170 N174 2.020 . S
Zn170 O178 2.019 . S
Zn170 N180 2.119 . S
Zn170 O188 1.975 . S
C171 N172 1.334 . S
C171 N175 1.336 . S
N172 C171 1.334 . S
N172 C173 1.334 . S
C173 N172 1.334 . S
C173 N174 1.336 . S
N174 Zn170 2.020 . S
N174 C173 1.336 . S
N174 N175 1.354 . S
N175 C171 1.336 . S
N175 N174 1.354 . S
N175 Zn179 2.020 . S
C176 O177 1.244 . S
C176 O200 1.257 . S
O177 C176 1.244 . S
O178 Zn170 2.019 . S
O178 C198 1.257 . S
Zn179 N175 2.020 . S
Zn179 O186 1.975 . S
Zn179 N195 2.119 . S
Zn179 O200 2.019 . S
N180 Zn170 2.119 . S
N180 C182 1.334 . S
N180 C183 1.328 . S
C181 C182 1.391 . S
C181 N184 1.329 . S
C181 H202 0.930 . S
C182 N180 1.334 . S
C182 C181 1.391 . S
C182 H189 0.930 . S
C183 N180 1.328 . S
C183 C185 1.392 . S
C183 H190 0.930 . S
N184 C181 1.329 . S
N184 C185 1.331 . S
C185 C183 1.392 . S
C185 N184 1.331 . S
O186 Zn179 1.975 . S
O186 C187 1.252 . S
C187 O186 1.252 . S
C187 O188 1.252 . S
O188 Zn170 1.975 . S
O188 C187 1.252 . S
H189 C182 0.930 . S
H190 C183 0.930 . S
C191 C192 1.392 . S
C191 N195 1.328 . S
C191 H197 0.930 . S
C192 C191 1.392 . S
C192 N196 1.331 . S
C193 C194 1.391 . S
C193 N196 1.329 . S
C193 H203 0.930 . S
C194 C193 1.391 . S
C194 N195 1.334 . S
C194 H201 0.930 . S
N195 Zn179 2.119 . S
N195 C191 1.328 . S
N195 C194 1.334 . S
N196 C192 1.331 . S
N196 C193 1.329 . S
H197 C191 0.930 . S
C198 O178 1.257 . S
C198 O199 1.244 . S
O199 C198 1.244 . S
O200 C176 1.257 . S
O200 Zn179 2.019 . S
H201 C194 0.930 . S
H202 C181 0.930 . S
H203 C193 0.930 . S
Zn204 N208 2.020 . S
Zn204 O212 2.019 . S
Zn204 N214 2.119 . S
Zn204 O222 1.975 . S
C205 N206 1.334 . S
C205 N209 1.336 . S
N206 C205 1.334 . S
N206 C207 1.334 . S
C207 N206 1.334 . S
C207 N208 1.336 . S
N208 Zn204 2.020 . S
N208 C207 1.336 . S
N208 N209 1.354 . S
N209 C205 1.336 . S
N209 N208 1.354 . S
N209 Zn213 2.020 . S
C210 O211 1.244 . S
C210 O234 1.257 . S
O211 C210 1.244 . S
O212 Zn204 2.019 . S
O212 C232 1.257 . S
Zn213 N209 2.020 . S
Zn213 O220 1.975 . S
Zn213 N229 2.119 . S
Zn213 O234 2.019 . S
N214 Zn204 2.119 . S
N214 C216 1.334 . S
N214 C217 1.328 . S
C215 C216 1.391 . S
C215 N218 1.329 . S
C215 H236 0.930 . S
C216 N214 1.334 . S
C216 C215 1.391 . S
C216 H223 0.930 . S
C217 N214 1.328 . S
C217 C219 1.392 . S
C217 H224 0.930 . S
N218 C215 1.329 . S
N218 C219 1.331 . S
C219 C217 1.392 . S
C219 N218 1.331 . S
O220 Zn213 1.975 . S
O220 C221 1.252 . S
C221 O220 1.252 . S
C221 O222 1.252 . S
O222 Zn204 1.975 . S
O222 C221 1.252 . S
H223 C216 0.930 . S
H224 C217 0.930 . S
C225 C226 1.392 . S
C225 N229 1.328 . S
C225 H231 0.930 . S
C226 C225 1.392 . S
C226 N230 1.331 . S
C227 C228 1.391 . S
C227 N230 1.329 . S
C227 H237 0.930 . S
C228 C227 1.391 . S
C228 N229 1.334 . S
C228 H235 0.930 . S
N229 Zn213 2.119 . S
N229 C225 1.328 . S
N229 C228 1.334 . S
N230 C226 1.331 . S
N230 C227 1.329 . S
H231 C225 0.930 . S
C232 O212 1.257 . S
C232 O233 1.244 . S
O233 C232 1.244 . S
O234 C210 1.257 . S
O234 Zn213 2.019 . S
H235 C228 0.930 . S
H236 C215 0.930 . S
H237 C227 0.930 . S
Zn238 N242 2.020 . S
Zn238 O246 2.019 . S
Zn238 N248 2.119 . S
Zn238 O256 1.975 . S
C239 N240 1.334 . S
C239 N243 1.336 . S
N240 C239 1.334 . S
N240 C241 1.334 . S
C241 N240 1.334 . S
C241 N242 1.336 . S
N242 Zn238 2.020 . S
N242 C241 1.336 . S
N242 N243 1.354 . S
N243 C239 1.336 . S
N243 N242 1.354 . S
N243 Zn247 2.020 . S
C244 O245 1.244 . S
C244 O268 1.257 . S
O245 C244 1.244 . S
O246 Zn238 2.019 . S
O246 C266 1.257 . S
Zn247 N243 2.020 . S
Zn247 O254 1.975 . S
Zn247 N263 2.119 . S
Zn247 O268 2.019 . S
N248 Zn238 2.119 . S
N248 C250 1.334 . S
N248 C251 1.328 . S
C249 C250 1.391 . S
C249 N252 1.329 . S
C249 H270 0.930 . S
C250 N248 1.334 . S
C250 C249 1.391 . S
C250 H257 0.930 . S
C251 N248 1.328 . S
C251 C253 1.392 . S
C251 H258 0.930 . S
N252 C249 1.329 . S
N252 C253 1.331 . S
C253 C251 1.392 . S
C253 N252 1.331 . S
O254 Zn247 1.975 . S
O254 C255 1.252 . S
C255 O254 1.252 . S
C255 O256 1.252 . S
O256 Zn238 1.975 . S
O256 C255 1.252 . S
H257 C250 0.930 . S
H258 C251 0.930 . S
C259 C260 1.392 . S
C259 N263 1.328 . S
C259 H265 0.930 . S
C260 C259 1.392 . S
C260 N264 1.331 . S
C261 C262 1.391 . S
C261 N264 1.329 . S
C261 H271 0.930 . S
C262 C261 1.391 . S
C262 N263 1.334 . S
C262 H269 0.930 . S
N263 Zn247 2.119 . S
N263 C259 1.328 . S
N263 C262 1.334 . S
N264 C260 1.331 . S
N264 C261 1.329 . S
H265 C259 0.930 . S
C266 O246 1.257 . S
C266 O267 1.244 . S
O267 C266 1.244 . S
O268 C244 1.257 . S
O268 Zn247 2.019 . S
H269 C262 0.930 . S
H270 C249 0.930 . S
H271 C261 0.930 . S
Zn272 N276 2.020 . S
Zn272 O280 2.019 . S
Zn272 N282 2.119 . S
Zn272 O290 1.975 . S
C273 N274 1.334 . S
C273 N277 1.336 . S
N274 C273 1.334 . S
N274 C275 1.334 . S
C275 N274 1.334 . S
C275 N276 1.336 . S
N276 Zn272 2.020 . S
N276 C275 1.336 . S
N276 N277 1.354 . S
N277 C273 1.336 . S
N277 N276 1.354 . S
N277 Zn281 2.020 . S
C278 O279 1.244 . S
C278 O302 1.257 . S
O279 C278 1.244 . S
O280 Zn272 2.019 . S
O280 C300 1.257 . S
Zn281 N277 2.020 . S
Zn281 O288 1.975 . S
Zn281 N297 2.119 . S
Zn281 O302 2.019 . S
N282 Zn272 2.119 . S
N282 C284 1.334 . S
N282 C285 1.328 . S
C283 C284 1.391 . S
C283 N286 1.329 . S
C283 H304 0.930 . S
C284 N282 1.334 . S
C284 C283 1.391 . S
C284 H291 0.930 . S
C285 N282 1.328 . S
C285 C287 1.392 . S
C285 H292 0.930 . S
N286 C283 1.329 . S
N286 C287 1.331 . S
C287 C285 1.392 . S
C287 N286 1.331 . S
O288 Zn281 1.975 . S
O288 C289 1.252 . S
C289 O288 1.252 . S
C289 O290 1.252 . S
O290 Zn272 1.975 . S
O290 C289 1.252 . S
H291 C284 0.930 . S
H292 C285 0.930 . S
C293 C294 1.392 . S
C293 N297 1.328 . S
C293 H299 0.930 . S
C294 C293 1.392 . S
C294 N298 1.331 . S
C295 C296 1.391 . S
C295 N298 1.329 . S
C295 H305 0.930 . S
C296 C295 1.391 . S
C296 N297 1.334 . S
C296 H303 0.930 . S
N297 Zn281 2.119 . S
N297 C293 1.328 . S
N297 C296 1.334 . S
N298 C294 1.331 . S
N298 C295 1.329 . S
H299 C293 0.930 . S
C300 O280 1.257 . S
C300 O301 1.244 . S
O301 C300 1.244 . S
O302 C278 1.257 . S
O302 Zn281 2.019 . S
H303 C296 0.930 . S
H304 C283 0.930 . S
H305 C295 0.930 . S
Zn306 N310 2.020 . S
Zn306 O314 2.019 . S
Zn306 N316 2.119 . S
Zn306 O324 1.975 . S
C307 N308 1.334 . S
C307 N311 1.336 . S
N308 C307 1.334 . S
N308 C309 1.334 . S
C309 N308 1.334 . S
C309 N310 1.336 . S
N310 Zn306 2.020 . S
N310 C309 1.336 . S
N310 N311 1.354 . S
N311 C307 1.336 . S
N311 N310 1.354 . S
N311 Zn315 2.020 . S
C312 O313 1.244 . S
C312 O336 1.257 . S
O313 C312 1.244 . S
O314 Zn306 2.019 . S
O314 C334 1.257 . S
Zn315 N311 2.020 . S
Zn315 O322 1.975 . S
Zn315 N331 2.119 . S
Zn315 O336 2.019 . S
N316 Zn306 2.119 . S
N316 C318 1.334 . S
N316 C319 1.328 . S
C317 C318 1.391 . S
C317 N320 1.329 . S
C317 H338 0.930 . S
C318 N316 1.334 . S
C318 C317 1.391 . S
C318 H325 0.930 . S
C319 N316 1.328 . S
C319 C321 1.392 . S
C319 H326 0.930 . S
N320 C317 1.329 . S
N320 C321 1.331 . S
C321 C319 1.392 . S
C321 N320 1.331 . S
O322 Zn315 1.975 . S
O322 C323 1.252 . S
C323 O322 1.252 . S
C323 O324 1.252 . S
O324 Zn306 1.975 . S
O324 C323 1.252 . S
H325 C318 0.930 . S
H326 C319 0.930 . S
C327 C328 1.392 . S
C327 N331 1.328 . S
C327 H333 0.930 . S
C328 C327 1.392 . S
C328 N332 1.331 . S
C329 C330 1.391 . S
C329 N332 1.329 . S
C329 H339 0.930 . S
C330 C329 1.391 . S
C330 N331 1.334 . S
C330 H337 0.930 . S
N331 Zn315 2.119 . S
N331 C327 1.328 . S
N331 C330 1.334 . S
N332 C328 1.331 . S
N332 C329 1.329 . S
H333 C327 0.930 . S
C334 O314 1.257 . S
C334 O335 1.244 . S
O335 C334 1.244 . S
O336 C312 1.257 . S
O336 Zn315 2.019 . S
H337 C330 0.930 . S
H338 C317 0.930 . S
H339 C329 0.930 . S
Zn340 N344 2.020 . S
Zn340 O348 2.019 . S
Zn340 N350 2.119 . S
Zn340 O358 1.975 . S
C341 N342 1.334 . S
C341 N345 1.336 . S
N342 C341 1.334 . S
N342 C343 1.334 . S
C343 N342 1.334 . S
C343 N344 1.336 . S
N344 Zn340 2.020 . S
N344 C343 1.336 . S
N344 N345 1.354 . S
N345 C341 1.336 . S
N345 N344 1.354 . S
N345 Zn349 2.020 . S
C346 O347 1.244 . S
C346 O370 1.257 . S
O347 C346 1.244 . S
O348 Zn340 2.019 . S
O348 C368 1.257 . S
Zn349 N345 2.020 . S
Zn349 O356 1.975 . S
Zn349 N365 2.119 . S
Zn349 O370 2.019 . S
N350 Zn340 2.119 . S
N350 C352 1.334 . S
N350 C353 1.328 . S
C351 C352 1.391 . S
C351 N354 1.329 . S
C351 H372 0.930 . S
C352 N350 1.334 . S
C352 C351 1.391 . S
C352 H359 0.930 . S
C353 N350 1.328 . S
C353 C355 1.392 . S
C353 H360 0.930 . S
N354 C351 1.329 . S
N354 C355 1.331 . S
C355 C353 1.392 . S
C355 N354 1.331 . S
O356 Zn349 1.975 . S
O356 C357 1.252 . S
C357 O356 1.252 . S
C357 O358 1.252 . S
O358 Zn340 1.975 . S
O358 C357 1.252 . S
H359 C352 0.930 . S
H360 C353 0.930 . S
C361 C362 1.392 . S
C361 N365 1.328 . S
C361 H367 0.930 . S
C362 C361 1.392 . S
C362 N366 1.331 . S
C363 C364 1.391 . S
C363 N366 1.329 . S
C363 H373 0.930 . S
C364 C363 1.391 . S
C364 N365 1.334 . S
C364 H371 0.930 . S
N365 Zn349 2.119 . S
N365 C361 1.328 . S
N365 C364 1.334 . S
N366 C362 1.331 . S
N366 C363 1.329 . S
H367 C361 0.930 . S
C368 O348 1.257 . S
C368 O369 1.244 . S
O369 C368 1.244 . S
O370 C346 1.257 . S
O370 Zn349 2.019 . S
H371 C364 0.930 . S
H372 C351 0.930 . S
H373 C363 0.930 . S
Zn374 N378 2.020 . S
Zn374 O382 2.019 . S
Zn374 N384 2.119 . S
Zn374 O392 1.975 . S
C375 N376 1.334 . S
C375 N379 1.336 . S
N376 C375 1.334 . S
N376 C377 1.334 . S
C377 N376 1.334 . S
C377 N378 1.336 . S
N378 Zn374 2.020 . S
N378 C377 1.336 . S
N378 N379 1.354 . S
N379 C375 1.336 . S
N379 N378 1.354 . S
N379 Zn383 2.020 . S
C380 O381 1.244 . S
C380 O404 1.257 . S
O381 C380 1.244 . S
O382 Zn374 2.019 . S
O382 C402 1.257 . S
Zn383 N379 2.020 . S
Zn383 O390 1.975 . S
Zn383 N399 2.119 . S
Zn383 O404 2.019 . S
N384 Zn374 2.119 . S
N384 C386 1.334 . S
N384 C387 1.328 . S
C385 C386 1.391 . S
C385 N388 1.329 . S
C385 H406 0.930 . S
C386 N384 1.334 . S
C386 C385 1.391 . S
C386 H393 0.930 . S
C387 N384 1.328 . S
C387 C389 1.392 . S
C387 H394 0.930 . S
N388 C385 1.329 . S
N388 C389 1.331 . S
C389 C387 1.392 . S
C389 N388 1.331 . S
O390 Zn383 1.975 . S
O390 C391 1.252 . S
C391 O390 1.252 . S
C391 O392 1.252 . S
O392 Zn374 1.975 . S
O392 C391 1.252 . S
H393 C386 0.930 . S
H394 C387 0.930 . S
C395 C396 1.392 . S
C395 N399 1.328 . S
C395 H401 0.930 . S
C396 C395 1.392 . S
C396 N400 1.331 . S
C397 C398 1.391 . S
C397 N400 1.329 . S
C397 H407 0.930 . S
C398 C397 1.391 . S
C398 N399 1.334 . S
C398 H405 0.930 . S
N399 Zn383 2.119 . S
N399 C395 1.328 . S
N399 C398 1.334 . S
N400 C396 1.331 . S
N400 C397 1.329 . S
H401 C395 0.930 . S
C402 O382 1.257 . S
C402 O403 1.244 . S
O403 C402 1.244 . S
O404 C380 1.257 . S
O404 Zn383 2.019 . S
H405 C398 0.930 . S
H406 C385 0.930 . S
H407 C397 0.930 . S
Zn408 N412 2.020 . S
Zn408 O416 2.019 . S
Zn408 N418 2.119 . S
Zn408 O426 1.975 . S
C409 N410 1.334 . S
C409 N413 1.336 . S
N410 C409 1.334 . S
N410 C411 1.334 . S
C411 N410 1.334 . S
C411 N412 1.336 . S
N412 Zn408 2.020 . S
N412 C411 1.336 . S
N412 N413 1.354 . S
N413 C409 1.336 . S
N413 N412 1.354 . S
N413 Zn417 2.020 . S
C414 O415 1.244 . S
C414 O438 1.257 . S
O415 C414 1.244 . S
O416 Zn408 2.019 . S
O416 C436 1.257 . S
Zn417 N413 2.020 . S
Zn417 O424 1.975 . S
Zn417 N433 2.119 . S
Zn417 O438 2.019 . S
N418 Zn408 2.119 . S
N418 C420 1.334 . S
N418 C421 1.328 . S
C419 C420 1.391 . S
C419 N422 1.329 . S
C419 H440 0.930 . S
C420 N418 1.334 . S
C420 C419 1.391 . S
C420 H427 0.930 . S
C421 N418 1.328 . S
C421 C423 1.392 . S
C421 H428 0.930 . S
N422 C419 1.329 . S
N422 C423 1.331 . S
C423 C421 1.392 . S
C423 N422 1.331 . S
O424 Zn417 1.975 . S
O424 C425 1.252 . S
C425 O424 1.252 . S
C425 O426 1.252 . S
O426 Zn408 1.975 . S
O426 C425 1.252 . S
H427 C420 0.930 . S
H428 C421 0.930 . S
C429 C430 1.392 . S
C429 N433 1.328 . S
C429 H435 0.930 . S
C430 C429 1.392 . S
C430 N434 1.331 . S
C431 C432 1.391 . S
C431 N434 1.329 . S
C431 H441 0.930 . S
C432 C431 1.391 . S
C432 N433 1.334 . S
C432 H439 0.930 . S
N433 Zn417 2.119 . S
N433 C429 1.328 . S
N433 C432 1.334 . S
N434 C430 1.331 . S
N434 C431 1.329 . S
H435 C429 0.930 . S
C436 O416 1.257 . S
C436 O437 1.244 . S
O437 C436 1.244 . S
O438 C414 1.257 . S
O438 Zn417 2.019 . S
H439 C432 0.930 . S
H440 C419 0.930 . S
H441 C431 0.930 . S
Zn442 N446 2.020 . S
Zn442 O450 2.019 . S
Zn442 N452 2.119 . S
Zn442 O460 1.975 . S
C443 N444 1.334 . S
C443 N447 1.336 . S
N444 C443 1.334 . S
N444 C445 1.334 . S
C445 N444 1.334 . S
C445 N446 1.336 . S
N446 Zn442 2.020 . S
N446 C445 1.336 . S
N446 N447 1.354 . S
N447 C443 1.336 . S
N447 N446 1.354 . S
N447 Zn451 2.020 . S
C448 O449 1.244 . S
C448 O472 1.257 . S
O449 C448 1.244 . S
O450 Zn442 2.019 . S
O450 C470 1.257 . S
Zn451 N447 2.020 . S
Zn451 O458 1.975 . S
Zn451 N467 2.119 . S
Zn451 O472 2.019 . S
N452 Zn442 2.119 . S
N452 C454 1.334 . S
N452 C455 1.328 . S
C453 C454 1.391 . S
C453 N456 1.329 . S
C453 H474 0.930 . S
C454 N452 1.334 . S
C454 C453 1.391 . S
C454 H461 0.930 . S
C455 N452 1.328 . S
C455 C457 1.392 . S
C455 H462 0.930 . S
N456 C453 1.329 . S
N456 C457 1.331 . S
C457 C455 1.392 . S
C457 N456 1.331 . S
O458 Zn451 1.975 . S
O458 C459 1.252 . S
C459 O458 1.252 . S
C459 O460 1.252 . S
O460 Zn442 1.975 . S
O460 C459 1.252 . S
H461 C454 0.930 . S
H462 C455 0.930 . S
C463 C464 1.392 . S
C463 N467 1.328 . S
C463 H469 0.930 . S
C464 C463 1.392 . S
C464 N468 1.331 . S
C465 C466 1.391 . S
C465 N468 1.329 . S
C465 H475 0.930 . S
C466 C465 1.391 . S
C466 N467 1.334 . S
C466 H473 0.930 . S
N467 Zn451 2.119 . S
N467 C463 1.328 . S
N467 C466 1.334 . S
N468 C464 1.331 . S
N468 C465 1.329 . S
H469 C463 0.930 . S
C470 O450 1.257 . S
C470 O471 1.244 . S
O471 C470 1.244 . S
O472 C448 1.257 . S
O472 Zn451 2.019 . S
H473 C466 0.930 . S
H474 C453 0.930 . S
H475 C465 0.930 . S
Zn476 N480 2.020 . S
Zn476 O484 2.019 . S
Zn476 N486 2.119 . S
Zn476 O494 1.975 . S
C477 N478 1.334 . S
C477 N481 1.336 . S
N478 C477 1.334 . S
N478 C479 1.334 . S
C479 N478 1.334 . S
C479 N480 1.336 . S
N480 Zn476 2.020 . S
N480 C479 1.336 . S
N480 N481 1.354 . S
N481 C477 1.336 . S
N481 N480 1.354 . S
N481 Zn485 2.020 . S
C482 O483 1.244 . S
C482 O506 1.257 . S
O483 C482 1.244 . S
O484 Zn476 2.019 . S
O484 C504 1.257 . S
Zn485 N481 2.020 . S
Zn485 O492 1.975 . S
Zn485 N501 2.119 . S
Zn485 O506 2.019 . S
N486 Zn476 2.119 . S
N486 C488 1.334 . S
N486 C489 1.328 . S
C487 C488 1.391 . S
C487 N490 1.329 . S
C487 H508 0.930 . S
C488 N486 1.334 . S
C488 C487 1.391 . S
C488 H495 0.930 . S
C489 N486 1.328 . S
C489 C491 1.392 . S
C489 H496 0.930 . S
N490 C487 1.329 . S
N490 C491 1.331 . S
C491 C489 1.392 . S
C491 N490 1.331 . S
O492 Zn485 1.975 . S
O492 C493 1.252 . S
C493 O492 1.252 . S
C493 O494 1.252 . S
O494 Zn476 1.975 . S
O494 C493 1.252 . S
H495 C488 0.930 . S
H496 C489 0.930 . S
C497 C498 1.392 . S
C497 N501 1.328 . S
C497 H503 0.930 . S
C498 C497 1.392 . S
C498 N502 1.331 . S
C499 C500 1.391 . S
C499 N502 1.329 . S
C499 H509 0.930 . S
C500 C499 1.391 . S
C500 N501 1.334 . S
C500 H507 0.930 . S
N501 Zn485 2.119 . S
N501 C497 1.328 . S
N501 C500 1.334 . S
N502 C498 1.331 . S
N502 C499 1.329 . S
H503 C497 0.930 . S
C504 O484 1.257 . S
C504 O505 1.244 . S
O505 C504 1.244 . S
O506 C482 1.257 . S
O506 Zn485 2.019 . S
H507 C500 0.930 . S
H508 C487 0.930 . S
H509 C499 0.930 . S
Zn510 N514 2.020 . S
Zn510 O518 2.019 . S
Zn510 N520 2.119 . S
Zn510 O528 1.975 . S
C511 N512 1.334 . S
C511 N515 1.336 . S
N512 C511 1.334 . S
N512 C513 1.334 . S
C513 N512 1.334 . S
C513 N514 1.336 . S
N514 Zn510 2.020 . S
N514 C513 1.336 . S
N514 N515 1.354 . S
N515 C511 1.336 . S
N515 N514 1.354 . S
N515 Zn519 2.020 . S
C516 O517 1.244 . S
C516 O540 1.257 . S
O517 C516 1.244 . S
O518 Zn510 2.019 . S
O518 C538 1.257 . S
Zn519 N515 2.020 . S
Zn519 O526 1.975 . S
Zn519 N535 2.119 . S
Zn519 O540 2.019 . S
N520 Zn510 2.119 . S
N520 C522 1.334 . S
N520 C523 1.328 . S
C521 C522 1.391 . S
C521 N524 1.329 . S
C521 H542 0.930 . S
C522 N520 1.334 . S
C522 C521 1.391 . S
C522 H529 0.930 . S
C523 N520 1.328 . S
C523 C525 1.392 . S
C523 H530 0.930 . S
N524 C521 1.329 . S
N524 C525 1.331 . S
C525 C523 1.392 . S
C525 N524 1.331 . S
O526 Zn519 1.975 . S
O526 C527 1.252 . S
C527 O526 1.252 . S
C527 O528 1.252 . S
O528 Zn510 1.975 . S
O528 C527 1.252 . S
H529 C522 0.930 . S
H530 C523 0.930 . S
C531 C532 1.392 . S
C531 N535 1.328 . S
C531 H537 0.930 . S
C532 C531 1.392 . S
C532 N536 1.331 . S
C533 C534 1.391 . S
C533 N536 1.329 . S
C533 H543 0.930 . S
C534 C533 1.391 . S
C534 N535 1.334 . S
C534 H541 0.930 . S
N535 Zn519 2.119 . S
N535 C531 1.328 . S
N535 C534 1.334 . S
N536 C532 1.331 . S
N536 C533 1.329 . S
H537 C531 0.930 . S
C538 O518 1.257 . S
C538 O539 1.244 . S
O539 C538 1.244 . S
O540 C516 1.257 . S
O540 Zn519 2.019 . S
H541 C534 0.930 . S
H542 C521 0.930 . S
H543 C533 0.930 . S
H544 C552 0.950 . S
H545 C557 0.950 . S
H546 C554 0.950 . S
H547 C556 0.950 . S
H548 C558 0.950 . S
H549 C560 0.950 . S
H550 C562 0.950 . S
H551 C563 0.950 . S
C552 H544 0.950 . S
C552 C553 1.386 . S
C552 C554 1.391 1_556 S
C553 C552 1.386 . S
C553 C557 1.393 . S
C554 H546 0.950 . S
C554 C552 1.391 1_554 S
C554 C555 1.400 . S
C555 C554 1.400 . S
C555 C556 1.398 . S
C555 C561 1.491 . S
C556 H547 0.950 . S
C556 C555 1.398 . S
C556 C557 1.391 1_554 S
C557 H545 0.950 . S
C557 C553 1.393 . S
C557 C556 1.391 1_556 S
C558 H548 0.950 . S
C558 C559 1.386 . S
C558 C560 1.391 . S
C559 C558 1.386 . S
C559 C563 1.393 . S
C560 H549 0.950 . S
C560 C558 1.391 . S
C560 C561 1.400 . S
C561 C555 1.491 . S
C561 C560 1.400 . S
C561 C562 1.398 . S
C562 H550 0.950 . S
C562 C561 1.398 . S
C562 C563 1.391 . S
C563 H551 0.950 . S
C563 C559 1.393 . S
C563 C562 1.391 . S
H564 C572 0.950 . S
H565 C577 0.950 . S
H566 C574 0.950 . S
H567 C576 0.950 . S
H568 C578 0.950 . S
H569 C580 0.950 . S
H570 C582 0.950 . S
H571 C583 0.950 . S
C572 H564 0.950 . S
C572 C573 1.386 . S
C572 C574 1.391 . S
C573 C572 1.386 . S
C573 C577 1.393 . S
C574 H566 0.950 . S
C574 C572 1.391 . S
C574 C575 1.400 . S
C575 C574 1.400 . S
C575 C576 1.398 . S
C575 C581 1.491 . S
C576 H567 0.950 . S
C576 C575 1.398 . S
C576 C577 1.391 . S
C577 H565 0.950 . S
C577 C573 1.393 . S
C577 C576 1.391 . S
C578 H568 0.950 . S
C578 C579 1.386 . S
C578 C580 1.391 . S
C579 C578 1.386 . S
C579 C583 1.393 . S
C580 H569 0.950 . S
C580 C578 1.391 . S
C580 C581 1.400 . S
C581 C575 1.491 . S
C581 C580 1.400 . S
C581 C582 1.398 . S
C582 H570 0.950 . S
C582 C581 1.398 . S
C582 C583 1.391 . S
C583 H571 0.950 . S
C583 C579 1.393 . S
C583 C582 1.391 . S
H584 C592 0.950 . S
H585 C597 0.950 . S
H586 C594 0.950 . S
H587 C596 0.950 . S
H588 C598 0.950 . S
H589 C600 0.950 . S
H590 C602 0.950 . S
H591 C603 0.950 . S
C592 H584 0.950 . S
C592 C593 1.386 . S
C592 C594 1.391 1_554 S
C593 C592 1.386 . S
C593 C597 1.393 . S
C594 H586 0.950 . S
C594 C592 1.391 1_556 S
C594 C595 1.400 . S
C595 C594 1.400 . S
C595 C596 1.398 1_556 S
C595 C601 1.491 . S
C596 H587 0.950 . S
C596 C595 1.398 1_554 S
C596 C597 1.391 . S
C597 H585 0.950 . S
C597 C593 1.393 . S
C597 C596 1.391 . S
C598 H588 0.950 . S
C598 C599 1.386 . S
C598 C600 1.391 . S
C599 C598 1.386 . S
C599 C603 1.393 . S
C600 H589 0.950 . S
C600 C598 1.391 . S
C600 C601 1.400 . S
C601 C595 1.491 . S
C601 C600 1.400 . S
C601 C602 1.398 . S
C602 H590 0.950 . S
C602 C601 1.398 . S
C602 C603 1.391 . S
C603 H591 0.950 . S
C603 C599 1.393 . S
C603 C602 1.391 . S
H604 C612 0.950 . S
H605 C617 0.950 . S
H606 C614 0.950 . S
H607 C616 0.950 . S
H608 C618 0.950 . S
H609 C620 0.950 . S
H610 C622 0.950 . S
H611 C623 0.950 . S
C612 H604 0.950 . S
C612 C613 1.386 . S
C612 C614 1.391 . S
C613 C612 1.386 . S
C613 C617 1.393 . S
C614 H606 0.950 . S
C614 C612 1.391 . S
C614 C615 1.400 . S
C615 C614 1.400 . S
C615 C616 1.398 . S
C615 C621 1.491 . S
C616 H607 0.950 . S
C616 C615 1.398 . S
C616 C617 1.391 . S
C617 H605 0.950 . S
C617 C613 1.393 . S
C617 C616 1.391 . S
C618 H608 0.950 . S
C618 C619 1.386 . S
C618 C620 1.391 . S
C619 C618 1.386 . S
C619 C623 1.393 . S
C620 H609 0.950 . S
C620 C618 1.391 . S
C620 C621 1.400 . S
C621 C615 1.491 . S
C621 C620 1.400 . S
C621 C622 1.398 . S
C622 H610 0.950 . S
C622 C621 1.398 . S
C622 C623 1.391 . S
C623 H611 0.950 . S
C623 C619 1.393 . S
C623 C622 1.391 . S
H624 C632 0.950 . S
H625 C637 0.950 . S
H626 C634 0.950 . S
H627 C636 0.950 . S
H628 C638 0.950 . S
H629 C640 0.950 . S
H630 C642 0.950 . S
H631 C643 0.950 . S
C632 H624 0.950 . S
C632 C633 1.386 . S
C632 C634 1.391 . S
C633 C632 1.386 . S
C633 C637 1.393 . S
C634 H626 0.950 . S
C634 C632 1.391 . S
C634 C635 1.400 . S
C635 C634 1.400 . S
C635 C636 1.398 . S
C635 C641 1.491 . S
C636 H627 0.950 . S
C636 C635 1.398 . S
C636 C637 1.391 . S
C637 H625 0.950 . S
C637 C633 1.393 . S
C637 C636 1.391 . S
C638 H628 0.950 . S
C638 C639 1.386 . S
C638 C640 1.391 1_554 S
C639 C638 1.386 . S
C639 C643 1.393 . S
C640 H629 0.950 . S
C640 C638 1.391 1_556 S
C640 C641 1.400 . S
C641 C635 1.491 . S
C641 C640 1.400 . S
C641 C642 1.398 . S
C642 H630 0.950 . S
C642 C641 1.398 . S
C642 C643 1.391 1_556 S
C643 H631 0.950 . S
C643 C639 1.393 . S
C643 C642 1.391 1_554 S
H644 C652 0.950 . S
H645 C657 0.950 . S
H646 C654 0.950 . S
H647 C656 0.950 . S
H648 C658 0.950 . S
H649 C660 0.950 . S
H650 C662 0.950 . S
H651 C663 0.950 . S
C652 H644 0.950 . S
C652 C653 1.386 . S
C652 C654 1.391 . S
C653 C652 1.386 . S
C653 C657 1.393 . S
C654 H646 0.950 . S
C654 C652 1.391 . S
C654 C655 1.400 . S
C655 C654 1.400 . S
C655 C656 1.398 . S
C655 C661 1.491 . S
C656 H647 0.950 . S
C656 C655 1.398 . S
C656 C657 1.391 . S
C657 H645 0.950 . S
C657 C653 1.393 . S
C657 C656 1.391 . S
C658 H648 0.950 . S
C658 C659 1.386 . S
C658 C660 1.391 . S
C659 C658 1.386 . S
C659 C663 1.393 . S
C660 H649 0.950 . S
C660 C658 1.391 . S
C660 C661 1.400 . S
C661 C655 1.491 . S
C661 C660 1.400 . S
C661 C662 1.398 . S
C662 H650 0.950 . S
C662 C661 1.398 . S
C662 C663 1.391 . S
C663 H651 0.950 . S
C663 C659 1.393 . S
C663 C662 1.391 . S
H664 C672 0.950 . S
H665 C677 0.950 . S
H666 C674 0.950 . S
H667 C676 0.950 . S
H668 C678 0.950 . S
H669 C680 0.950 . S
H670 C682 0.950 . S
H671 C683 0.950 . S
C672 H664 0.950 . S
C672 C673 1.386 . S
C672 C674 1.391 . S
C673 C672 1.386 . S
C673 C677 1.393 . S
C674 H666 0.950 . S
C674 C672 1.391 . S
C674 C675 1.400 . S
C675 C674 1.400 . S
C675 C676 1.398 . S
C675 C681 1.491 . S
C676 H667 0.950 . S
C676 C675 1.398 . S
C676 C677 1.391 . S
C677 H665 0.950 . S
C677 C673 1.393 . S
C677 C676 1.391 . S
C678 H668 0.950 . S
C678 C679 1.386 . S
C678 C680 1.391 1_556 S
C679 C678 1.386 . S
C679 C683 1.393 . S
C680 H669 0.950 . S
C680 C678 1.391 1_554 S
C680 C681 1.400 . S
C681 C675 1.491 . S
C681 C680 1.400 . S
C681 C682 1.398 1_554 S
C682 H670 0.950 . S
C682 C681 1.398 1_556 S
C682 C683 1.391 . S
C683 H671 0.950 . S
C683 C679 1.393 . S
C683 C682 1.391 . S
H684 C692 0.950 . S
H685 C697 0.950 . S
H686 C694 0.950 . S
H687 C696 0.950 . S
H688 C698 0.950 . S
H689 C700 0.950 . S
H690 C702 0.950 . S
H691 C703 0.950 . S
C692 H684 0.950 . S
C692 C693 1.386 . S
C692 C694 1.391 . S
C693 C692 1.386 . S
C693 C697 1.393 . S
C694 H686 0.950 . S
C694 C692 1.391 . S
C694 C695 1.400 . S
C695 C694 1.400 . S
C695 C696 1.398 . S
C695 C701 1.491 . S
C696 H687 0.950 . S
C696 C695 1.398 . S
C696 C697 1.391 . S
C697 H685 0.950 . S
C697 C693 1.393 . S
C697 C696 1.391 . S
C698 H688 0.950 . S
C698 C699 1.386 . S
C698 C700 1.391 . S
C699 C698 1.386 . S
C699 C703 1.393 . S
C700 H689 0.950 . S
C700 C698 1.391 . S
C700 C701 1.400 . S
C701 C695 1.491 . S
C701 C700 1.400 . S
C701 C702 1.398 . S
C702 H690 0.950 . S
C702 C701 1.398 . S
C702 C703 1.391 . S
C703 H691 0.950 . S
C703 C699 1.393 . S
C703 C702 1.391 . S
H704 C712 0.950 . S
H705 C717 0.950 . S
H706 C714 0.950 . S
H707 C716 0.950 . S
H708 C718 0.950 . S
H709 C720 0.950 . S
H710 C722 0.950 . S
H711 C723 0.950 . S
C712 H704 0.950 . S
C712 C713 1.386 . S
C712 C714 1.391 . S
C713 C712 1.386 . S
C713 C717 1.393 . S
C714 H706 0.950 . S
C714 C712 1.391 . S
C714 C715 1.400 . S
C715 C714 1.400 . S
C715 C716 1.398 . S
C715 C721 1.491 . S
C716 H707 0.950 . S
C716 C715 1.398 . S
C716 C717 1.391 . S
C717 H705 0.950 . S
C717 C713 1.393 . S
C717 C716 1.391 . S
C718 H708 0.950 . S
C718 C719 1.386 . S
C718 C720 1.391 1_556 S
C719 C718 1.386 . S
C719 C723 1.393 . S
C720 H709 0.950 . S
C720 C718 1.391 1_554 S
C720 C721 1.400 . S
C721 C715 1.491 . S
C721 C720 1.400 . S
C721 C722 1.398 1_554 S
C722 H710 0.950 . S
C722 C721 1.398 1_556 S
C722 C723 1.391 . S
C723 H711 0.950 . S
C723 C719 1.393 . S
C723 C722 1.391 . S
H724 C732 0.950 . S
H725 C737 0.950 . S
H726 C734 0.950 . S
H727 C736 0.950 . S
H728 C738 0.950 . S
H729 C740 0.950 . S
H730 C742 0.950 . S
H731 C743 0.950 . S
C732 H724 0.950 . S
C732 C733 1.386 . S
C732 C734 1.391 . S
C733 C732 1.386 . S
C733 C737 1.393 . S
C734 H726 0.950 . S
C734 C732 1.391 . S
C734 C735 1.400 . S
C735 C734 1.400 . S
C735 C736 1.398 . S
C735 C741 1.491 . S
C736 H727 0.950 . S
C736 C735 1.398 . S
C736 C737 1.391 . S
C737 H725 0.950 . S
C737 C733 1.393 . S
C737 C736 1.391 . S
C738 H728 0.950 . S
C738 C739 1.386 . S
C738 C740 1.391 . S
C739 C738 1.386 . S
C739 C743 1.393 . S
C740 H729 0.950 . S
C740 C738 1.391 . S
C740 C741 1.400 . S
C741 C735 1.491 . S
C741 C740 1.400 . S
C741 C742 1.398 . S
C742 H730 0.950 . S
C742 C741 1.398 . S
C742 C743 1.391 . S
C743 H731 0.950 . S
C743 C739 1.393 . S
C743 C742 1.391 . S
H744 C752 0.950 . S
H745 C757 0.950 . S
H746 C754 0.950 . S
H747 C756 0.950 . S
H748 C758 0.950 . S
H749 C760 0.950 . S
H750 C762 0.950 . S
H751 C763 0.950 . S
C752 H744 0.950 . S
C752 C753 1.386 . S
C752 C754 1.391 . S
C753 C752 1.386 . S
C753 C757 1.393 . S
C754 H746 0.950 . S
C754 C752 1.391 . S
C754 C755 1.400 . S
C755 C754 1.400 . S
C755 C756 1.398 . S
C755 C761 1.491 . S
C756 H747 0.950 . S
C756 C755 1.398 . S
C756 C757 1.391 . S
C757 H745 0.950 . S
C757 C753 1.393 . S
C757 C756 1.391 . S
C758 H748 0.950 . S
C758 C759 1.386 . S
C758 C760 1.391 . S
C759 C758 1.386 . S
C759 C763 1.393 . S
C760 H749 0.950 . S
C760 C758 1.391 . S
C760 C761 1.400 1_554 S
C761 C755 1.491 . S
C761 C760 1.400 1_556 S
C761 C762 1.398 . S
C762 H750 0.950 . S
C762 C761 1.398 . S
C762 C763 1.391 1_556 S
C763 H751 0.950 . S
C763 C759 1.393 . S
C763 C762 1.391 1_554 S
H764 C772 0.950 . S
H765 C777 0.950 . S
H766 C774 0.950 . S
H767 C776 0.950 . S
H768 C778 0.950 . S
H769 C780 0.950 . S
H770 C782 0.950 . S
H771 C783 0.950 . S
C772 H764 0.950 . S
C772 C773 1.386 . S
C772 C774 1.391 . S
C773 C772 1.386 . S
C773 C777 1.393 . S
C774 H766 0.950 . S
C774 C772 1.391 . S
C774 C775 1.400 . S
C775 C774 1.400 . S
C775 C776 1.398 . S
C775 C781 1.491 . S
C776 H767 0.950 . S
C776 C775 1.398 . S
C776 C777 1.391 . S
C777 H765 0.950 . S
C777 C773 1.393 . S
C777 C776 1.391 . S
C778 H768 0.950 . S
C778 C779 1.386 . S
C778 C780 1.391 . S
C779 C778 1.386 . S
C779 C783 1.393 . S
C780 H769 0.950 . S
C780 C778 1.391 . S
C780 C781 1.400 . S
C781 C775 1.491 . S
C781 C780 1.400 . S
C781 C782 1.398 . S
C782 H770 0.950 . S
C782 C781 1.398 . S
C782 C783 1.391 . S
C783 H771 0.950 . S
C783 C779 1.393 . S
C783 C782 1.391 . S
H784 C792 0.950 . S
H785 C797 0.950 . S
H786 C794 0.950 . S
H787 C796 0.950 . S
H788 C798 0.950 . S
H789 C800 0.950 . S
H790 C802 0.950 . S
H791 C803 0.950 . S
C792 H784 0.950 . S
C792 C793 1.386 . S
C792 C794 1.391 1_554 S
C793 C792 1.386 . S
C793 C797 1.393 . S
C794 H786 0.950 . S
C794 C792 1.391 1_556 S
C794 C795 1.400 . S
C795 C794 1.400 . S
C795 C796 1.398 . S
C795 C801 1.491 . S
C796 H787 0.950 . S
C796 C795 1.398 . S
C796 C797 1.391 1_556 S
C797 H785 0.950 . S
C797 C793 1.393 . S
C797 C796 1.391 1_554 S
C798 H788 0.950 . S
C798 C799 1.386 . S
C798 C800 1.391 . S
C799 C798 1.386 . S
C799 C803 1.393 . S
C800 H789 0.950 . S
C800 C798 1.391 . S
C800 C801 1.400 . S
C801 C795 1.491 . S
C801 C800 1.400 . S
C801 C802 1.398 . S
C802 H790 0.950 . S
C802 C801 1.398 . S
C802 C803 1.391 . S
C803 H791 0.950 . S
C803 C799 1.393 . S
C803 C802 1.391 . S
H804 C812 0.950 . S
H805 C817 0.950 . S
H806 C814 0.950 . S
H807 C816 0.950 . S
H808 C818 0.950 . S
H809 C820 0.950 . S
H810 C822 0.950 . S
H811 C823 0.950 . S
C812 H804 0.950 . S
C812 C813 1.386 . S
C812 C814 1.391 . S
C813 C812 1.386 . S
C813 C817 1.393 . S
C814 H806 0.950 . S
C814 C812 1.391 . S
C814 C815 1.400 . S
C815 C814 1.400 . S
C815 C816 1.398 . S
C815 C821 1.491 . S
C816 H807 0.950 . S
C816 C815 1.398 . S
C816 C817 1.391 . S
C817 H805 0.950 . S
C817 C813 1.393 . S
C817 C816 1.391 . S
C818 H808 0.950 . S
C818 C819 1.386 . S
C818 C820 1.391 . S
C819 C818 1.386 . S
C819 C823 1.393 . S
C820 H809 0.950 . S
C820 C818 1.391 . S
C820 C821 1.400 . S
C821 C815 1.491 . S
C821 C820 1.400 . S
C821 C822 1.398 . S
C822 H810 0.950 . S
C822 C821 1.398 . S
C822 C823 1.391 . S
C823 H811 0.950 . S
C823 C819 1.393 . S
C823 C822 1.391 . S
H824 C832 0.950 . S
H825 C837 0.950 . S
H826 C834 0.950 . S
H827 C836 0.950 . S
H828 C838 0.950 . S
H829 C840 0.950 . S
H830 C842 0.950 . S
H831 C843 0.950 . S
C832 H824 0.950 . S
C832 C833 1.386 . S
C832 C834 1.391 1_556 S
C833 C832 1.386 . S
C833 C837 1.393 . S
C834 H826 0.950 . S
C834 C832 1.391 1_554 S
C834 C835 1.400 . S
C835 C834 1.400 . S
C835 C836 1.398 . S
C835 C841 1.491 . S
C836 H827 0.950 . S
C836 C835 1.398 . S
C836 C837 1.391 1_554 S
C837 H825 0.950 . S
C837 C833 1.393 . S
C837 C836 1.391 1_556 S
C838 H828 0.950 . S
C838 C839 1.386 . S
C838 C840 1.391 . S
C839 C838 1.386 . S
C839 C843 1.393 . S
C840 H829 0.950 . S
C840 C838 1.391 . S
C840 C841 1.400 . S
C841 C835 1.491 . S
C841 C840 1.400 . S
C841 C842 1.398 . S
C842 H830 0.950 . S
C842 C841 1.398 . S
C842 C843 1.391 . S
C843 H831 0.950 . S
C843 C839 1.393 . S
C843 C842 1.391 . S
H844 C852 0.950 . S
H845 C857 0.950 . S
H846 C854 0.950 . S
H847 C856 0.950 . S
H848 C858 0.950 . S
H849 C860 0.950 . S
H850 C862 0.950 . S
H851 C863 0.950 . S
C852 H844 0.950 . S
C852 C853 1.386 . S
C852 C854 1.391 . S
C853 C852 1.386 . S
C853 C857 1.393 . S
C854 H846 0.950 . S
C854 C852 1.391 . S
C854 C855 1.400 . S
C855 C854 1.400 . S
C855 C856 1.398 . S
C855 C861 1.491 . S
C856 H847 0.950 . S
C856 C855 1.398 . S
C856 C857 1.391 . S
C857 H845 0.950 . S
C857 C853 1.393 . S
C857 C856 1.391 . S
C858 H848 0.950 . S
C858 C859 1.386 . S
C858 C860 1.391 . S
C859 C858 1.386 . S
C859 C863 1.393 . S
C860 H849 0.950 . S
C860 C858 1.391 . S
C860 C861 1.400 . S
C861 C855 1.491 . S
C861 C860 1.400 . S
C861 C862 1.398 . S
C862 H850 0.950 . S
C862 C861 1.398 . S
C862 C863 1.391 . S
C863 H851 0.950 . S
C863 C859 1.393 . S
C863 C862 1.391 . S
H864 C872 0.950 . S
H865 C877 0.950 . S
H866 C874 0.950 . S
H867 C876 0.950 . S
H868 C878 0.950 . S
H869 C880 0.950 . S
H870 C882 0.950 . S
H871 C883 0.950 . S
C872 H864 0.950 . S
C872 C873 1.386 . S
C872 C874 1.391 . S
C873 C872 1.386 . S
C873 C877 1.393 . S
C874 H866 0.950 . S
C874 C872 1.391 . S
C874 C875 1.400 . S
C875 C874 1.400 . S
C875 C876 1.398 . S
C875 C881 1.491 1_455 S
C876 H867 0.950 . S
C876 C875 1.398 . S
C876 C877 1.391 . S
C877 H865 0.950 . S
C877 C873 1.393 . S
C877 C876 1.391 . S
C878 H868 0.950 . S
C878 C879 1.386 . S
C878 C880 1.391 . S
C879 C878 1.386 . S
C879 C883 1.393 . S
C880 H869 0.950 . S
C880 C878 1.391 . S
C880 C881 1.400 . S
C881 C875 1.491 1_655 S
C881 C880 1.400 . S
C881 C882 1.398 . S
C882 H870 0.950 . S
C882 C881 1.398 . S
C882 C883 1.391 . S
C883 H871 0.950 . S
C883 C879 1.393 . S
C883 C882 1.391 . S
H884 C892 0.950 . S
H885 C897 0.950 . S
H886 C894 0.950 . S
H887 C896 0.950 . S
H888 C898 0.950 . S
H889 C900 0.950 . S
H890 C902 0.950 . S
H891 C903 0.950 . S
C892 H884 0.950 . S
C892 C893 1.386 . S
C892 C894 1.391 . S
C893 C892 1.386 . S
C893 C897 1.393 . S
C894 H886 0.950 . S
C894 C892 1.391 . S
C894 C895 1.400 . S
C895 C894 1.400 . S
C895 C896 1.398 . S
C895 C901 1.491 . S
C896 H887 0.950 . S
C896 C895 1.398 . S
C896 C897 1.391 . S
C897 H885 0.950 . S
C897 C893 1.393 . S
C897 C896 1.391 . S
C898 H888 0.950 . S
C898 C899 1.386 . S
C898 C900 1.391 . S
C899 C898 1.386 . S
C899 C903 1.393 . S
C900 H889 0.950 . S
C900 C898 1.391 . S
C900 C901 1.400 . S
C901 C895 1.491 . S
C901 C900 1.400 . S
C901 C902 1.398 . S
C902 H890 0.950 . S
C902 C901 1.398 . S
C902 C903 1.391 . S
C903 H891 0.950 . S
C903 C899 1.393 . S
C903 C902 1.391 . S
H904 C912 0.950 . S
H905 C917 0.950 . S
H906 C914 0.950 . S
H907 C916 0.950 . S
H908 C918 0.950 . S
H909 C920 0.950 . S
H910 C922 0.950 . S
H911 C923 0.950 . S
C912 H904 0.950 . S
C912 C913 1.386 . S
C912 C914 1.391 . S
C913 C912 1.386 . S
C913 C917 1.393 . S
C914 H906 0.950 . S
C914 C912 1.391 . S
C914 C915 1.400 . S
C915 C914 1.400 . S
C915 C916 1.398 . S
C915 C921 1.491 1_655 S
C916 H907 0.950 . S
C916 C915 1.398 . S
C916 C917 1.391 . S
C917 H905 0.950 . S
C917 C913 1.393 . S
C917 C916 1.391 . S
C918 H908 0.950 . S
C918 C919 1.386 . S
C918 C920 1.391 . S
C919 C918 1.386 . S
C919 C923 1.393 . S
C920 H909 0.950 . S
C920 C918 1.391 . S
C920 C921 1.400 . S
C921 C915 1.491 1_455 S
C921 C920 1.400 . S
C921 C922 1.398 . S
C922 H910 0.950 . S
C922 C921 1.398 . S
C922 C923 1.391 . S
C923 H911 0.950 . S
C923 C919 1.393 . S
C923 C922 1.391 . S
H924 C932 0.950 . S
H925 C937 0.950 . S
H926 C934 0.950 . S
H927 C936 0.950 . S
H928 C938 0.950 . S
H929 C940 0.950 . S
H930 C942 0.950 . S
H931 C943 0.950 . S
C932 H924 0.950 . S
C932 C933 1.386 . S
C932 C934 1.391 . S
C933 C932 1.386 . S
C933 C937 1.393 . S
C934 H926 0.950 . S
C934 C932 1.391 . S
C934 C935 1.400 . S
C935 C934 1.400 . S
C935 C936 1.398 . S
C935 C941 1.491 . S
C936 H927 0.950 . S
C936 C935 1.398 . S
C936 C937 1.391 . S
C937 H925 0.950 . S
C937 C933 1.393 . S
C937 C936 1.391 . S
C938 H928 0.950 . S
C938 C939 1.386 . S
C938 C940 1.391 . S
C939 C938 1.386 . S
C939 C943 1.393 . S
C940 H929 0.950 . S
C940 C938 1.391 . S
C940 C941 1.400 . S
C941 C935 1.491 . S
C941 C940 1.400 . S
C941 C942 1.398 . S
C942 H930 0.950 . S
C942 C941 1.398 . S
C942 C943 1.391 . S
C943 H931 0.950 . S
C943 C939 1.393 . S
C943 C942 1.391 . S
H944 C952 0.950 . S
H945 C957 0.950 . S
H946 C954 0.950 . S
H947 C956 0.950 . S
H948 C958 0.950 . S
H949 C960 0.950 . S
H950 C962 0.950 . S
H951 C963 0.950 . S
C952 H944 0.950 . S
C952 C953 1.386 . S
C952 C954 1.391 . S
C953 C952 1.386 . S
C953 C957 1.393 . S
C954 H946 0.950 . S
C954 C952 1.391 . S
C954 C955 1.400 . S
C955 C954 1.400 . S
C955 C956 1.398 . S
C955 C961 1.491 . S
C956 H947 0.950 . S
C956 C955 1.398 . S
C956 C957 1.391 . S
C957 H945 0.950 . S
C957 C953 1.393 . S
C957 C956 1.391 . S
C958 H948 0.950 . S
C958 C959 1.386 . S
C958 C960 1.391 . S
C959 C958 1.386 . S
C959 C963 1.393 . S
C960 H949 0.950 . S
C960 C958 1.391 . S
C960 C961 1.400 . S
C961 C955 1.491 . S
C961 C960 1.400 . S
C961 C962 1.398 . S
C962 H950 0.950 . S
C962 C961 1.398 . S
C962 C963 1.391 . S
C963 H951 0.950 . S
C963 C959 1.393 . S
C963 C962 1.391 . S
H964 C972 0.950 . S
H965 C977 0.950 . S
H966 C974 0.950 . S
H967 C976 0.950 . S
H968 C978 0.950 . S
H969 C980 0.950 . S
H970 C982 0.950 . S
H971 C983 0.950 . S
C972 H964 0.950 . S
C972 C973 1.386 . S
C972 C974 1.391 . S
C973 C972 1.386 . S
C973 C977 1.393 . S
C974 H966 0.950 . S
C974 C972 1.391 . S
C974 C975 1.400 . S
C975 C974 1.400 . S
C975 C976 1.398 . S
C975 C981 1.491 1_655 S
C976 H967 0.950 . S
C976 C975 1.398 . S
C976 C977 1.391 . S
C977 H965 0.950 . S
C977 C973 1.393 . S
C977 C976 1.391 . S
C978 H968 0.950 . S
C978 C979 1.386 . S
C978 C980 1.391 . S
C979 C978 1.386 . S
C979 C983 1.393 . S
C980 H969 0.950 . S
C980 C978 1.391 . S
C980 C981 1.400 . S
C981 C975 1.491 1_455 S
C981 C980 1.400 . S
C981 C982 1.398 . S
C982 H970 0.950 . S
C982 C981 1.398 . S
C982 C983 1.391 . S
C983 H971 0.950 . S
C983 C979 1.393 . S
C983 C982 1.391 . S
H984 C992 0.950 . S
H985 C997 0.950 . S
H986 C994 0.950 . S
H987 C996 0.950 . S
H988 C998 0.950 . S
H989 C1000 0.950 . S
H990 C1002 0.950 . S
H991 C1003 0.950 . S
C992 H984 0.950 . S
C992 C993 1.386 . S
C992 C994 1.391 . S
C993 C992 1.386 . S
C993 C997 1.393 . S
C994 H986 0.950 . S
C994 C992 1.391 . S
C994 C995 1.400 . S
C995 C994 1.400 . S
C995 C996 1.398 . S
C995 C1001 1.491 . S
C996 H987 0.950 . S
C996 C995 1.398 . S
C996 C997 1.391 . S
C997 H985 0.950 . S
C997 C993 1.393 . S
C997 C996 1.391 . S
C998 H988 0.950 . S
C998 C999 1.386 . S
C998 C1000 1.391 . S
C999 C998 1.386 . S
C999 C1003 1.393 . S
C1000 H989 0.950 . S
C1000 C998 1.391 . S
C1000 C1001 1.400 . S
C1001 C995 1.491 . S
C1001 C1000 1.400 . S
C1001 C1002 1.398 . S
C1002 H990 0.950 . S
C1002 C1001 1.398 . S
C1002 C1003 1.391 . S
C1003 H991 0.950 . S
C1003 C999 1.393 . S
C1003 C1002 1.391 . S
H1004 C1012 0.950 . S
H1005 C1017 0.950 . S
H1006 C1014 0.950 . S
H1007 C1016 0.950 . S
H1008 C1018 0.950 . S
H1009 C1020 0.950 . S
H1010 C1022 0.950 . S
H1011 C1023 0.950 . S
C1012 H1004 0.950 . S
C1012 C1013 1.386 . S
C1012 C1014 1.391 . S
C1013 C1012 1.386 . S
C1013 C1017 1.393 . S
C1014 H1006 0.950 . S
C1014 C1012 1.391 . S
C1014 C1015 1.400 . S
C1015 C1014 1.400 . S
C1015 C1016 1.398 . S
C1015 C1021 1.491 1_655 S
C1016 H1007 0.950 . S
C1016 C1015 1.398 . S
C1016 C1017 1.391 . S
C1017 H1005 0.950 . S
C1017 C1013 1.393 . S
C1017 C1016 1.391 . S
C1018 H1008 0.950 . S
C1018 C1019 1.386 . S
C1018 C1020 1.391 . S
C1019 C1018 1.386 . S
C1019 C1023 1.393 . S
C1020 H1009 0.950 . S
C1020 C1018 1.391 . S
C1020 C1021 1.400 . S
C1021 C1015 1.491 1_455 S
C1021 C1020 1.400 . S
C1021 C1022 1.398 . S
C1022 H1010 0.950 . S
C1022 C1021 1.398 . S
C1022 C1023 1.391 . S
C1023 H1011 0.950 . S
C1023 C1019 1.393 . S
C1023 C1022 1.391 . S
H1024 C1032 0.950 . S
H1025 C1037 0.950 . S
H1026 C1034 0.950 . S
H1027 C1036 0.950 . S
H1028 C1038 0.950 . S
H1029 C1040 0.950 . S
H1030 C1042 0.950 . S
H1031 C1043 0.950 . S
C1032 H1024 0.950 . S
C1032 C1033 1.386 . S
C1032 C1034 1.391 . S
C1033 C1032 1.386 . S
C1033 C1037 1.393 . S
C1034 H1026 0.950 . S
C1034 C1032 1.391 . S
C1034 C1035 1.400 . S
C1035 C1034 1.400 . S
C1035 C1036 1.398 . S
C1035 C1041 1.491 . S
C1036 H1027 0.950 . S
C1036 C1035 1.398 . S
C1036 C1037 1.391 . S
C1037 H1025 0.950 . S
C1037 C1033 1.393 . S
C1037 C1036 1.391 . S
C1038 H1028 0.950 . S
C1038 C1039 1.386 . S
C1038 C1040 1.391 . S
C1039 C1038 1.386 . S
C1039 C1043 1.393 . S
C1040 H1029 0.950 . S
C1040 C1038 1.391 . S
C1040 C1041 1.400 . S
C1041 C1035 1.491 . S
C1041 C1040 1.400 . S
C1041 C1042 1.398 . S
C1042 H1030 0.950 . S
C1042 C1041 1.398 . S
C1042 C1043 1.391 . S
C1043 H1031 0.950 . S
C1043 C1039 1.393 . S
C1043 C1042 1.391 . S
H1044 C1052 0.950 . S
H1045 C1057 0.950 . S
H1046 C1054 0.950 . S
H1047 C1056 0.950 . S
H1048 C1058 0.950 . S
H1049 C1060 0.950 . S
H1050 C1062 0.950 . S
H1051 C1063 0.950 . S
C1052 H1044 0.950 . S
C1052 C1053 1.386 . S
C1052 C1054 1.391 . S
C1053 C1052 1.386 . S
C1053 C1057 1.393 . S
C1054 H1046 0.950 . S
C1054 C1052 1.391 . S
C1054 C1055 1.400 . S
C1055 C1054 1.400 . S
C1055 C1056 1.398 . S
C1055 C1061 1.491 . S
C1056 H1047 0.950 . S
C1056 C1055 1.398 . S
C1056 C1057 1.391 . S
C1057 H1045 0.950 . S
C1057 C1053 1.393 . S
C1057 C1056 1.391 . S
C1058 H1048 0.950 . S
C1058 C1059 1.386 . S
C1058 C1060 1.391 . S
C1059 C1058 1.386 . S
C1059 C1063 1.393 . S
C1060 H1049 0.950 . S
C1060 C1058 1.391 . S
C1060 C1061 1.400 . S
C1061 C1055 1.491 . S
C1061 C1060 1.400 . S
C1061 C1062 1.398 . S
C1062 H1050 0.950 . S
C1062 C1061 1.398 . S
C1062 C1063 1.391 . S
C1063 H1051 0.950 . S
C1063 C1059 1.393 . S
C1063 C1062 1.391 . S
H1064 C1072 0.950 . S
H1065 C1077 0.950 . S
H1066 C1074 0.950 . S
H1067 C1076 0.950 . S
H1068 C1078 0.950 . S
H1069 C1080 0.950 . S
H1070 C1082 0.950 . S
H1071 C1083 0.950 . S
C1072 H1064 0.950 . S
C1072 C1073 1.386 . S
C1072 C1074 1.391 . S
C1073 C1072 1.386 . S
C1073 C1077 1.393 . S
C1074 H1066 0.950 . S
C1074 C1072 1.391 . S
C1074 C1075 1.400 . S
C1075 C1074 1.400 . S
C1075 C1076 1.398 . S
C1075 C1081 1.491 . S
C1076 H1067 0.950 . S
C1076 C1075 1.398 . S
C1076 C1077 1.391 . S
C1077 H1065 0.950 . S
C1077 C1073 1.393 . S
C1077 C1076 1.391 . S
C1078 H1068 0.950 . S
C1078 C1079 1.386 . S
C1078 C1080 1.391 . S
C1079 C1078 1.386 . S
C1079 C1083 1.393 . S
C1080 H1069 0.950 . S
C1080 C1078 1.391 . S
C1080 C1081 1.400 . S
C1081 C1075 1.491 . S
C1081 C1080 1.400 . S
C1081 C1082 1.398 . S
C1082 H1070 0.950 . S
C1082 C1081 1.398 . S
C1082 C1083 1.391 . S
C1083 H1071 0.950 . S
C1083 C1079 1.393 . S
C1083 C1082 1.391 . S
H1084 C1092 0.950 . S
H1085 C1097 0.950 . S
H1086 C1094 0.950 . S
H1087 C1096 0.950 . S
H1088 C1098 0.950 . S
H1089 C1100 0.950 . S
H1090 C1102 0.950 . S
H1091 C1103 0.950 . S
C1092 H1084 0.950 . S
C1092 C1093 1.386 . S
C1092 C1094 1.391 . S
C1093 C1092 1.386 . S
C1093 C1097 1.393 . S
C1094 H1086 0.950 . S
C1094 C1092 1.391 . S
C1094 C1095 1.400 . S
C1095 C1094 1.400 . S
C1095 C1096 1.398 . S
C1095 C1101 1.491 . S
C1096 H1087 0.950 . S
C1096 C1095 1.398 . S
C1096 C1097 1.391 . S
C1097 H1085 0.950 . S
C1097 C1093 1.393 . S
C1097 C1096 1.391 . S
C1098 H1088 0.950 . S
C1098 C1099 1.386 . S
C1098 C1100 1.391 . S
C1099 C1098 1.386 . S
C1099 C1103 1.393 . S
C1100 H1089 0.950 . S
C1100 C1098 1.391 . S
C1100 C1101 1.400 . S
C1101 C1095 1.491 . S
C1101 C1100 1.400 . S
C1101 C1102 1.398 . S
C1102 H1090 0.950 . S
C1102 C1101 1.398 . S
C1102 C1103 1.391 . S
C1103 H1091 0.950 . S
C1103 C1099 1.393 . S
C1103 C1102 1.391 . S
H1104 C1112 0.950 . S
H1105 C1117 0.950 . S
H1106 C1114 0.950 . S
H1107 C1116 0.950 . S
H1108 C1118 0.950 . S
H1109 C1120 0.950 . S
H1110 C1122 0.950 . S
H1111 C1123 0.950 . S
C1112 H1104 0.950 . S
C1112 C1113 1.386 . S
C1112 C1114 1.391 . S
C1113 C1112 1.386 . S
C1113 C1117 1.393 . S
C1114 H1106 0.950 . S
C1114 C1112 1.391 . S
C1114 C1115 1.400 . S
C1115 C1114 1.400 . S
C1115 C1116 1.398 . S
C1115 C1121 1.491 . S
C1116 H1107 0.950 . S
C1116 C1115 1.398 . S
C1116 C1117 1.391 . S
C1117 H1105 0.950 . S
C1117 C1113 1.393 . S
C1117 C1116 1.391 . S
C1118 H1108 0.950 . S
C1118 C1119 1.386 . S
C1118 C1120 1.391 . S
C1119 C1118 1.386 . S
C1119 C1123 1.393 . S
C1120 H1109 0.950 . S
C1120 C1118 1.391 . S
C1120 C1121 1.400 . S
C1121 C1115 1.491 . S
C1121 C1120 1.400 . S
C1121 C1122 1.398 . S
C1122 H1110 0.950 . S
C1122 C1121 1.398 . S
C1122 C1123 1.391 . S
C1123 H1111 0.950 . S
C1123 C1119 1.393 . S
C1123 C1122 1.391 . S
H1124 C1132 0.950 . S
H1125 C1137 0.950 . S
H1126 C1134 0.950 . S
H1127 C1136 0.950 . S
H1128 C1138 0.950 . S
H1129 C1140 0.950 . S
H1130 C1142 0.950 . S
H1131 C1143 0.950 . S
C1132 H1124 0.950 . S
C1132 C1133 1.386 . S
C1132 C1134 1.391 . S
C1133 C1132 1.386 . S
C1133 C1137 1.393 . S
C1134 H1126 0.950 . S
C1134 C1132 1.391 . S
C1134 C1135 1.400 . S
C1135 C1134 1.400 . S
C1135 C1136 1.398 . S
C1135 C1141 1.491 . S
C1136 H1127 0.950 . S
C1136 C1135 1.398 . S
C1136 C1137 1.391 . S
C1137 H1125 0.950 . S
C1137 C1133 1.393 . S
C1137 C1136 1.391 . S
C1138 H1128 0.950 . S
C1138 C1139 1.386 . S
C1138 C1140 1.391 . S
C1139 C1138 1.386 . S
C1139 C1143 1.393 . S
C1140 H1129 0.950 . S
C1140 C1138 1.391 . S
C1140 C1141 1.400 . S
C1141 C1135 1.491 . S
C1141 C1140 1.400 . S
C1141 C1142 1.398 . S
C1142 H1130 0.950 . S
C1142 C1141 1.398 . S
C1142 C1143 1.391 . S
C1143 H1131 0.950 . S
C1143 C1139 1.393 . S
C1143 C1142 1.391 . S
H1144 C1152 0.950 . S
H1145 C1157 0.950 . S
H1146 C1154 0.950 . S
H1147 C1156 0.950 . S
H1148 C1158 0.950 . S
H1149 C1160 0.950 . S
H1150 C1162 0.950 . S
H1151 C1163 0.950 . S
C1152 H1144 0.950 . S
C1152 C1153 1.386 . S
C1152 C1154 1.391 . S
C1153 C1152 1.386 . S
C1153 C1157 1.393 . S
C1154 H1146 0.950 . S
C1154 C1152 1.391 . S
C1154 C1155 1.400 . S
C1155 C1154 1.400 . S
C1155 C1156 1.398 . S
C1155 C1161 1.491 . S
C1156 H1147 0.950 . S
C1156 C1155 1.398 . S
C1156 C1157 1.391 . S
C1157 H1145 0.950 . S
C1157 C1153 1.393 . S
C1157 C1156 1.391 . S
C1158 H1148 0.950 . S
C1158 C1159 1.386 . S
C1158 C1160 1.391 . S
C1159 C1158 1.386 . S
C1159 C1163 1.393 . S
C1160 H1149 0.950 . S
C1160 C1158 1.391 . S
C1160 C1161 1.400 . S
C1161 C1155 1.491 . S
C1161 C1160 1.400 . S
C1161 C1162 1.398 . S
C1162 H1150 0.950 . S
C1162 C1161 1.398 . S
C1162 C1163 1.391 . S
C1163 H1151 0.950 . S
C1163 C1159 1.393 . S
C1163 C1162 1.391 . S
H1164 C1172 0.950 . S
H1165 C1177 0.950 . S
H1166 C1174 0.950 . S
H1167 C1176 0.950 . S
H1168 C1178 0.950 . S
H1169 C1180 0.950 . S
H1170 C1182 0.950 . S
H1171 C1183 0.950 . S
C1172 H1164 0.950 . S
C1172 C1173 1.386 . S
C1172 C1174 1.391 . S
C1173 C1172 1.386 . S
C1173 C1177 1.393 . S
C1174 H1166 0.950 . S
C1174 C1172 1.391 . S
C1174 C1175 1.400 . S
C1175 C1174 1.400 . S
C1175 C1176 1.398 . S
C1175 C1181 1.491 . S
C1176 H1167 0.950 . S
C1176 C1175 1.398 . S
C1176 C1177 1.391 . S
C1177 H1165 0.950 . S
C1177 C1173 1.393 . S
C1177 C1176 1.391 . S
C1178 H1168 0.950 . S
C1178 C1179 1.386 . S
C1178 C1180 1.391 . S
C1179 C1178 1.386 . S
C1179 C1183 1.393 . S
C1180 H1169 0.950 . S
C1180 C1178 1.391 . S
C1180 C1181 1.400 . S
C1181 C1175 1.491 . S
C1181 C1180 1.400 . S
C1181 C1182 1.398 . S
C1182 H1170 0.950 . S
C1182 C1181 1.398 . S
C1182 C1183 1.391 . S
C1183 H1171 0.950 . S
C1183 C1179 1.393 . S
C1183 C1182 1.391 . S
H1184 C1192 0.950 . S
H1185 C1197 0.950 . S
H1186 C1194 0.950 . S
H1187 C1196 0.950 . S
H1188 C1198 0.950 . S
H1189 C1200 0.950 . S
H1190 C1202 0.950 . S
H1191 C1203 0.950 . S
C1192 H1184 0.950 . S
C1192 C1193 1.386 . S
C1192 C1194 1.391 . S
C1193 C1192 1.386 . S
C1193 C1197 1.393 . S
C1194 H1186 0.950 . S
C1194 C1192 1.391 . S
C1194 C1195 1.400 . S
C1195 C1194 1.400 . S
C1195 C1196 1.398 . S
C1195 C1201 1.491 . S
C1196 H1187 0.950 . S
C1196 C1195 1.398 . S
C1196 C1197 1.391 . S
C1197 H1185 0.950 . S
C1197 C1193 1.393 . S
C1197 C1196 1.391 . S
C1198 H1188 0.950 . S
C1198 C1199 1.386 . S
C1198 C1200 1.391 . S
C1199 C1198 1.386 . S
C1199 C1203 1.393 . S
C1200 H1189 0.950 . S
C1200 C1198 1.391 . S
C1200 C1201 1.400 . S
C1201 C1195 1.491 . S
C1201 C1200 1.400 . S
C1201 C1202 1.398 . S
C1202 H1190 0.950 . S
C1202 C1201 1.398 . S
C1202 C1203 1.391 . S
C1203 H1191 0.950 . S
C1203 C1199 1.393 . S
C1203 C1202 1.391 . S
H1204 C1212 0.950 . S
H1205 C1217 0.950 . S
H1206 C1214 0.950 . S
H1207 C1216 0.950 1_554 S
H1208 C1218 0.950 . S
H1209 C1220 0.950 . S
H1210 C1222 0.950 1_556 S
H1211 C1223 0.950 . S
C1212 H1204 0.950 . S
C1212 C1213 1.386 . S
C1212 C1214 1.391 . S
C1213 C1212 1.386 . S
C1213 C1217 1.393 . S
C1214 H1206 0.950 . S
C1214 C1212 1.391 . S
C1214 C1215 1.400 . S
C1215 C1214 1.400 . S
C1215 C1216 1.398 . S
C1215 C1221 1.491 1_556 S
C1216 H1207 0.950 1_556 S
C1216 C1215 1.398 . S
C1216 C1217 1.391 . S
C1217 H1205 0.950 . S
C1217 C1213 1.393 . S
C1217 C1216 1.391 . S
C1218 H1208 0.950 . S
C1218 C1219 1.386 . S
C1218 C1220 1.391 . S
C1219 C1218 1.386 . S
C1219 C1223 1.393 . S
C1220 H1209 0.950 . S
C1220 C1218 1.391 . S
C1220 C1221 1.400 . S
C1221 C1215 1.491 1_554 S
C1221 C1220 1.400 . S
C1221 C1222 1.398 . S
C1222 H1210 0.950 1_554 S
C1222 C1221 1.398 . S
C1222 C1223 1.391 . S
C1223 H1211 0.950 . S
C1223 C1219 1.393 . S
C1223 C1222 1.391 . S
H1224 C1232 0.950 . S
H1225 C1237 0.950 . S
H1226 C1234 0.950 . S
H1227 C1236 0.950 . S
H1228 C1238 0.950 . S
H1229 C1240 0.950 . S
H1230 C1242 0.950 . S
H1231 C1243 0.950 . S
C1232 H1224 0.950 . S
C1232 C1233 1.386 . S
C1232 C1234 1.391 . S
C1233 C1232 1.386 . S
C1233 C1237 1.393 . S
C1234 H1226 0.950 . S
C1234 C1232 1.391 . S
C1234 C1235 1.400 . S
C1235 C1234 1.400 . S
C1235 C1236 1.398 . S
C1235 C1241 1.491 . S
C1236 H1227 0.950 . S
C1236 C1235 1.398 . S
C1236 C1237 1.391 . S
C1237 H1225 0.950 . S
C1237 C1233 1.393 . S
C1237 C1236 1.391 . S
C1238 H1228 0.950 . S
C1238 C1239 1.386 . S
C1238 C1240 1.391 . S
C1239 C1238 1.386 . S
C1239 C1243 1.393 . S
C1240 H1229 0.950 . S
C1240 C1238 1.391 . S
C1240 C1241 1.400 . S
C1241 C1235 1.491 . S
C1241 C1240 1.400 . S
C1241 C1242 1.398 . S
C1242 H1230 0.950 . S
C1242 C1241 1.398 . S
C1242 C1243 1.391 . S
C1243 H1231 0.950 . S
C1243 C1239 1.393 . S
C1243 C1242 1.391 . S
H1244 C1252 0.950 . S
H1245 C1257 0.950 . S
H1246 C1254 0.950 . S
H1247 C1256 0.950 . S
H1248 C1258 0.950 . S
H1249 C1260 0.950 . S
H1250 C1262 0.950 . S
H1251 C1263 0.950 . S
C1252 H1244 0.950 . S
C1252 C1253 1.386 . S
C1252 C1254 1.391 1_556 S
C1253 C1252 1.386 . S
C1253 C1257 1.393 . S
C1254 H1246 0.950 . S
C1254 C1252 1.391 1_554 S
C1254 C1255 1.400 1_554 S
C1255 C1254 1.400 1_556 S
C1255 C1256 1.398 . S
C1255 C1261 1.491 1_556 S
C1256 H1247 0.950 . S
C1256 C1255 1.398 . S
C1256 C1257 1.391 . S
C1257 H1245 0.950 . S
C1257 C1253 1.393 . S
C1257 C1256 1.391 . S
C1258 H1248 0.950 . S
C1258 C1259 1.386 . S
C1258 C1260 1.391 1_554 S
C1259 C1258 1.386 . S
C1259 C1263 1.393 . S
C1260 H1249 0.950 . S
C1260 C1258 1.391 1_556 S
C1260 C1261 1.400 1_556 S
C1261 C1255 1.491 1_554 S
C1261 C1260 1.400 1_554 S
C1261 C1262 1.398 . S
C1262 H1250 0.950 . S
C1262 C1261 1.398 . S
C1262 C1263 1.391 . S
C1263 H1251 0.950 . S
C1263 C1259 1.393 . S
C1263 C1262 1.391 . S
H1264 C1272 0.950 . S
H1265 C1277 0.950 . S
H1266 C1274 0.950 . S
H1267 C1276 0.971 . S
H1268 C1278 0.950 . S
H1269 C1280 0.950 . S
H1270 C1282 0.971 . S
H1271 C1283 0.950 . S
C1272 H1264 0.950 . S
C1272 C1273 1.386 . S
C1272 C1274 1.391 . S
C1273 C1272 1.386 . S
C1273 C1277 1.393 . S
C1274 H1266 0.950 . S
C1274 C1272 1.391 . S
C1274 C1275 1.400 . S
C1275 C1274 1.400 . S
C1275 C1276 1.398 . S
C1275 C1281 1.491 1_565 S
C1276 H1267 0.971 . S
C1276 C1275 1.398 . S
C1276 C1277 1.391 . S
C1277 H1265 0.950 . S
C1277 C1273 1.393 . S
C1277 C1276 1.391 . S
C1278 H1268 0.950 . S
C1278 C1279 1.386 . S
C1278 C1280 1.391 . S
C1279 C1278 1.386 . S
C1279 C1283 1.393 . S
C1280 H1269 0.950 . S
C1280 C1278 1.391 . S
C1280 C1281 1.400 . S
C1281 C1275 1.491 1_545 S
C1281 C1280 1.400 . S
C1281 C1282 1.398 . S
C1282 H1270 0.971 . S
C1282 C1281 1.398 . S
C1282 C1283 1.391 . S
C1283 H1271 0.950 . S
C1283 C1279 1.393 . S
C1283 C1282 1.391 . S
H1284 C1292 0.950 . S
H1285 C1297 0.950 . S
H1286 C1294 0.950 1_545 S
H1287 C1296 0.950 1_556 S
H1288 C1298 0.950 . S
H1289 C1300 0.950 1_565 S
H1290 C1302 0.950 1_554 S
H1291 C1303 0.950 . S
C1292 H1284 0.950 . S
C1292 C1293 1.386 . S
C1292 C1294 1.391 . S
C1293 C1292 1.386 . S
C1293 C1297 1.393 . S
C1294 H1286 0.950 1_565 S
C1294 C1292 1.391 . S
C1294 C1295 1.400 . S
C1295 C1294 1.400 . S
C1295 C1296 1.398 . S
C1295 C1301 1.491 1_564 S
C1296 H1287 0.950 1_554 S
C1296 C1295 1.398 . S
C1296 C1297 1.391 . S
C1297 H1285 0.950 . S
C1297 C1293 1.393 . S
C1297 C1296 1.391 . S
C1298 H1288 0.950 . S
C1298 C1299 1.386 . S
C1298 C1300 1.391 . S
C1299 C1298 1.386 . S
C1299 C1303 1.393 . S
C1300 H1289 0.950 1_545 S
C1300 C1298 1.391 . S
C1300 C1301 1.400 . S
C1301 C1295 1.491 1_546 S
C1301 C1300 1.400 . S
C1301 C1302 1.398 . S
C1302 H1290 0.950 1_556 S
C1302 C1301 1.398 . S
C1302 C1303 1.391 . S
C1303 H1291 0.950 . S
C1303 C1299 1.393 . S
C1303 C1302 1.391 . S
H1304 C1312 0.950 . S
H1305 C1317 0.950 . S
H1306 C1314 0.950 . S
H1307 C1316 0.950 1_565 S
H1308 C1318 0.950 . S
H1309 C1320 0.950 . S
H1310 C1322 0.950 1_545 S
H1311 C1323 0.950 . S
C1312 H1304 0.950 . S
C1312 C1313 1.386 . S
C1312 C1314 1.391 . S
C1313 C1312 1.386 . S
C1313 C1317 1.393 . S
C1314 H1306 0.950 . S
C1314 C1312 1.391 . S
C1314 C1315 1.400 . S
C1315 C1314 1.400 . S
C1315 C1316 1.398 . S
C1315 C1321 1.491 1_545 S
C1316 H1307 0.950 1_545 S
C1316 C1315 1.398 . S
C1316 C1317 1.391 . S
C1317 H1305 0.950 . S
C1317 C1313 1.393 . S
C1317 C1316 1.391 . S
C1318 H1308 0.950 . S
C1318 C1319 1.386 . S
C1318 C1320 1.391 . S
C1319 C1318 1.386 . S
C1319 C1323 1.393 . S
C1320 H1309 0.950 . S
C1320 C1318 1.391 . S
C1320 C1321 1.400 . S
C1321 C1315 1.491 1_565 S
C1321 C1320 1.400 . S
C1321 C1322 1.398 . S
C1322 H1310 0.950 1_565 S
C1322 C1321 1.398 . S
C1322 C1323 1.391 . S
C1323 H1311 0.950 . S
C1323 C1319 1.393 . S
C1323 C1322 1.391 . S
H1324 C1332 0.950 . S
H1325 C1337 0.950 . S
H1326 C1334 0.950 . S
H1327 C1336 0.950 1_556 S
H1328 C1338 0.950 . S
H1329 C1340 0.950 . S
H1330 C1342 0.950 1_554 S
H1331 C1343 0.950 . S
C1332 H1324 0.950 . S
C1332 C1333 1.386 . S
C1332 C1334 1.391 . S
C1333 C1332 1.386 . S
C1333 C1337 1.393 . S
C1334 H1326 0.950 . S
C1334 C1332 1.391 . S
C1334 C1335 1.400 . S
C1335 C1334 1.400 . S
C1335 C1336 1.398 . S
C1335 C1341 1.491 1_564 S
C1336 H1327 0.950 1_554 S
C1336 C1335 1.398 . S
C1336 C1337 1.391 . S
C1337 H1325 0.950 . S
C1337 C1333 1.393 . S
C1337 C1336 1.391 . S
C1338 H1328 0.950 . S
C1338 C1339 1.386 . S
C1338 C1340 1.391 . S
C1339 C1338 1.386 . S
C1339 C1343 1.393 . S
C1340 H1329 0.950 . S
C1340 C1338 1.391 . S
C1340 C1341 1.400 . S
C1341 C1335 1.491 1_546 S
C1341 C1340 1.400 . S
C1341 C1342 1.398 . S
C1342 H1330 0.950 1_556 S
C1342 C1341 1.398 . S
C1342 C1343 1.391 . S
C1343 H1331 0.950 . S
C1343 C1339 1.393 . S
C1343 C1342 1.391 . S
H1344 C1352 0.950 . S
H1345 C1357 0.950 . S
H1346 C1354 0.950 . S
H1347 C1356 0.950 . S
H1348 C1358 0.950 1_565 S
H1349 C1360 0.950 . S
H1350 C1362 0.950 . S
H1351 C1363 0.950 . S
C1352 H1344 0.950 . S
C1352 C1353 1.386 . S
C1352 C1354 1.391 . S
C1353 C1352 1.386 . S
C1353 C1357 1.393 . S
C1354 H1346 0.950 . S
C1354 C1352 1.391 . S
C1354 C1355 1.400 . S
C1355 C1354 1.400 . S
C1355 C1356 1.398 . S
C1355 C1361 1.491 . S
C1356 H1347 0.950 . S
C1356 C1355 1.398 . S
C1356 C1357 1.391 . S
C1357 H1345 0.950 . S
C1357 C1353 1.393 . S
C1357 C1356 1.391 . S
C1358 H1348 0.950 1_545 S
C1358 C1359 1.386 1_545 S
C1358 C1360 1.391 . S
C1359 C1358 1.386 1_565 S
C1359 C1363 1.393 . S
C1360 H1349 0.950 . S
C1360 C1358 1.391 . S
C1360 C1361 1.400 . S
C1361 C1355 1.491 . S
C1361 C1360 1.400 . S
C1361 C1362 1.398 . S
C1362 H1350 0.950 . S
C1362 C1361 1.398 . S
C1362 C1363 1.391 1_545 S
C1363 H1351 0.950 . S
C1363 C1359 1.393 . S
C1363 C1362 1.391 1_565 S
H1364 C1372 0.949 . S
H1365 C1377 0.950 . S
H1366 C1374 0.950 . S
H1367 C1376 0.950 . S
H1368 C1378 0.950 . S
H1369 C1380 0.950 . S
H1370 C1382 0.950 . S
H1371 C1383 0.950 . S
C1372 H1364 0.949 . S
C1372 C1373 1.386 1_565 S
C1372 C1374 1.391 . S
C1373 C1372 1.386 1_545 S
C1373 C1377 1.393 . S
C1374 H1366 0.950 . S
C1374 C1372 1.391 . S
C1374 C1375 1.400 . S
C1375 C1374 1.400 . S
C1375 C1376 1.398 . S
C1375 C1381 1.491 . S
C1376 H1367 0.950 . S
C1376 C1375 1.398 . S
C1376 C1377 1.391 1_565 S
C1377 H1365 0.950 . S
C1377 C1373 1.393 . S
C1377 C1376 1.391 1_545 S
C1378 H1368 0.950 . S
C1378 C1379 1.386 . S
C1378 C1380 1.391 . S
C1379 C1378 1.386 . S
C1379 C1383 1.393 . S
C1380 H1369 0.950 . S
C1380 C1378 1.391 . S
C1380 C1381 1.400 . S
C1381 C1375 1.491 . S
C1381 C1380 1.400 . S
C1381 C1382 1.398 . S
C1382 H1370 0.950 . S
C1382 C1381 1.398 . S
C1382 C1383 1.391 . S
C1383 H1371 0.950 . S
C1383 C1379 1.393 . S
C1383 C1382 1.391 . S
H1384 C1392 0.950 1_545 S
H1385 C1397 0.950 . S
H1386 C1394 0.950 . S
H1387 C1396 0.950 . S
H1388 C1398 0.950 . S
H1389 C1400 0.950 . S
H1390 C1402 0.950 . S
H1391 C1403 0.950 . S
C1392 H1384 0.950 1_565 S
C1392 C1393 1.386 1_565 S
C1392 C1394 1.391 . S
C1393 C1392 1.386 1_545 S
C1393 C1397 1.393 . S
C1394 H1386 0.950 . S
C1394 C1392 1.391 . S
C1394 C1395 1.400 . S
C1395 C1394 1.400 . S
C1395 C1396 1.398 . S
C1395 C1401 1.491 . S
C1396 H1387 0.950 . S
C1396 C1395 1.398 . S
C1396 C1397 1.391 1_565 S
C1397 H1385 0.950 . S
C1397 C1393 1.393 . S
C1397 C1396 1.391 1_545 S
C1398 H1388 0.950 . S
C1398 C1399 1.386 . S
C1398 C1400 1.391 . S
C1399 C1398 1.386 . S
C1399 C1403 1.393 . S
C1400 H1389 0.950 . S
C1400 C1398 1.391 . S
C1400 C1401 1.400 . S
C1401 C1395 1.491 . S
C1401 C1400 1.400 . S
C1401 C1402 1.398 . S
C1402 H1390 0.950 . S
C1402 C1401 1.398 . S
C1402 C1403 1.391 . S
C1403 H1391 0.950 . S
C1403 C1399 1.393 . S
C1403 C1402 1.391 . S
H1404 C1412 0.950 . S
H1405 C1417 0.950 . S
H1406 C1414 0.950 . S
H1407 C1416 0.950 . S
H1408 C1418 0.950 . S
H1409 C1420 0.950 . S
H1410 C1422 0.950 . S
H1411 C1423 0.950 . S
C1412 H1404 0.950 . S
C1412 C1413 1.386 . S
C1412 C1414 1.391 . S
C1413 C1412 1.386 . S
C1413 C1417 1.393 . S
C1414 H1406 0.950 . S
C1414 C1412 1.391 . S
C1414 C1415 1.400 . S
C1415 C1414 1.400 . S
C1415 C1416 1.398 . S
C1415 C1421 1.491 . S
C1416 H1407 0.950 . S
C1416 C1415 1.398 . S
C1416 C1417 1.391 . S
C1417 H1405 0.950 . S
C1417 C1413 1.393 . S
C1417 C1416 1.391 . S
C1418 H1408 0.950 . S
C1418 C1419 1.386 1_545 S
C1418 C1420 1.391 . S
C1419 C1418 1.386 1_565 S
C1419 C1423 1.393 . S
C1420 H1409 0.950 . S
C1420 C1418 1.391 . S
C1420 C1421 1.400 . S
C1421 C1415 1.491 . S
C1421 C1420 1.400 . S
C1421 C1422 1.398 . S
C1422 H1410 0.950 . S
C1422 C1421 1.398 . S
C1422 C1423 1.391 1_545 S
C1423 H1411 0.950 . S
C1423 C1419 1.393 . S
C1423 C1422 1.391 1_565 S
H1424 C1432 0.950 . S
H1425 C1437 0.950 . S
H1426 C1434 0.950 . S
H1427 C1436 0.950 . S
H1428 C1438 0.950 . S
H1429 C1440 0.950 . S
H1430 C1442 0.950 . S
H1431 C1443 0.950 1_545 S
C1432 H1424 0.950 . S
C1432 C1433 1.386 . S
C1432 C1434 1.391 . S
C1433 C1432 1.386 . S
C1433 C1437 1.393 . S
C1434 H1426 0.950 . S
C1434 C1432 1.391 . S
C1434 C1435 1.400 . S
C1435 C1434 1.400 . S
C1435 C1436 1.398 . S
C1435 C1441 1.491 . S
C1436 H1427 0.950 . S
C1436 C1435 1.398 . S
C1436 C1437 1.391 . S
C1437 H1425 0.950 . S
C1437 C1433 1.393 . S
C1437 C1436 1.391 . S
C1438 H1428 0.950 . S
C1438 C1439 1.386 . S
C1438 C1440 1.391 1_545 S
C1439 C1438 1.386 . S
C1439 C1443 1.393 1_545 S
C1440 H1429 0.950 . S
C1440 C1438 1.391 1_565 S
C1440 C1441 1.400 . S
C1441 C1435 1.491 . S
C1441 C1440 1.400 . S
C1441 C1442 1.398 . S
C1442 H1430 0.950 . S
C1442 C1441 1.398 . S
C1442 C1443 1.391 . S
C1443 H1431 0.950 1_565 S
C1443 C1439 1.393 1_565 S
C1443 C1442 1.391 . S
H1444 C1452 0.950 . S
H1445 C1457 0.950 . S
H1446 C1454 0.950 . S
H1447 C1456 0.950 . S
H1448 C1458 0.950 . S
H1449 C1460 0.950 . S
H1450 C1462 0.950 . S
H1451 C1463 0.950 . S
C1452 H1444 0.950 . S
C1452 C1453 1.386 . S
C1452 C1454 1.391 . S
C1453 C1452 1.386 . S
C1453 C1457 1.393 . S
C1454 H1446 0.950 . S
C1454 C1452 1.391 . S
C1454 C1455 1.400 . S
C1455 C1454 1.400 . S
C1455 C1456 1.398 . S
C1455 C1461 1.491 . S
C1456 H1447 0.950 . S
C1456 C1455 1.398 . S
C1456 C1457 1.391 . S
C1457 H1445 0.950 . S
C1457 C1453 1.393 . S
C1457 C1456 1.391 . S
C1458 H1448 0.950 . S
C1458 C1459 1.386 . S
C1458 C1460 1.391 1_565 S
C1459 C1458 1.386 . S
C1459 C1463 1.393 1_565 S
C1460 H1449 0.950 . S
C1460 C1458 1.391 1_545 S
C1460 C1461 1.400 . S
C1461 C1455 1.491 . S
C1461 C1460 1.400 . S
C1461 C1462 1.398 . S
C1462 H1450 0.950 . S
C1462 C1461 1.398 . S
C1462 C1463 1.391 . S
C1463 H1451 0.950 . S
C1463 C1459 1.393 1_545 S
C1463 C1462 1.391 . S
H1464 C1472 0.950 . S
H1465 C1477 0.950 . S
H1466 C1474 0.950 . S
H1467 C1476 0.950 . S
H1468 C1478 0.950 . S
H1469 C1480 0.950 . S
H1470 C1482 0.950 . S
H1471 C1483 0.950 . S
C1472 H1464 0.950 . S
C1472 C1473 1.386 1_545 S
C1472 C1474 1.391 . S
C1473 C1472 1.386 1_565 S
C1473 C1477 1.393 . S
C1474 H1466 0.950 . S
C1474 C1472 1.391 . S
C1474 C1475 1.400 . S
C1475 C1474 1.400 . S
C1475 C1476 1.398 . S
C1475 C1481 1.491 . S
C1476 H1467 0.950 . S
C1476 C1475 1.398 . S
C1476 C1477 1.391 1_545 S
C1477 H1465 0.950 . S
C1477 C1473 1.393 . S
C1477 C1476 1.391 1_565 S
C1478 H1468 0.950 . S
C1478 C1479 1.386 . S
C1478 C1480 1.391 . S
C1479 C1478 1.386 . S
C1479 C1483 1.393 . S
C1480 H1469 0.950 . S
C1480 C1478 1.391 . S
C1480 C1481 1.400 . S
C1481 C1475 1.491 . S
C1481 C1480 1.400 . S
C1481 C1482 1.398 . S
C1482 H1470 0.950 . S
C1482 C1481 1.398 . S
C1482 C1483 1.391 . S
C1483 H1471 0.950 . S
C1483 C1479 1.393 . S
C1483 C1482 1.391 . S
H1484 C1492 0.950 . S
H1485 C1497 0.950 . S
H1486 C1494 0.950 . S
H1487 C1496 0.950 . S
H1488 C1498 0.943 1_545 S
H1489 C1500 0.950 . S
H1490 C1502 0.950 . S
H1491 C1503 0.950 . S
C1492 H1484 0.950 . S
C1492 C1493 1.386 . S
C1492 C1494 1.391 . S
C1493 C1492 1.386 . S
C1493 C1497 1.393 . S
C1494 H1486 0.950 . S
C1494 C1492 1.391 . S
C1494 C1495 1.400 . S
C1495 C1494 1.400 . S
C1495 C1496 1.398 . S
C1495 C1501 1.491 . S
C1496 H1487 0.950 . S
C1496 C1495 1.398 . S
C1496 C1497 1.391 . S
C1497 H1485 0.950 . S
C1497 C1493 1.393 . S
C1497 C1496 1.391 . S
C1498 H1488 0.943 1_565 S
C1498 C1499 1.378 1_565 S
C1498 C1500 1.405 . S
C1499 C1498 1.378 1_545 S
C1499 C1503 1.393 . S
C1500 H1489 0.950 . S
C1500 C1498 1.405 . S
C1500 C1501 1.400 . S
C1501 C1495 1.491 . S
C1501 C1500 1.400 . S
C1501 C1502 1.398 . S
C1502 H1490 0.950 . S
C1502 C1501 1.398 . S
C1502 C1503 1.391 1_565 S
C1503 H1491 0.950 . S
C1503 C1499 1.393 . S
C1503 C1502 1.391 1_545 S
H1504 C1512 0.950 . S
H1505 C1517 0.950 . S
H1506 C1514 0.950 . S
H1507 C1516 0.950 . S
H1508 C1518 0.950 . S
H1509 C1520 0.950 . S
H1510 C1522 0.950 . S
H1511 C1523 0.950 . S
C1512 H1504 0.950 . S
C1512 C1513 1.386 . S
C1512 C1514 1.391 . S
C1513 C1512 1.386 . S
C1513 C1517 1.393 . S
C1514 H1506 0.950 . S
C1514 C1512 1.391 . S
C1514 C1515 1.400 . S
C1515 C1514 1.400 . S
C1515 C1516 1.398 . S
C1515 C1521 1.491 . S
C1516 H1507 0.950 . S
C1516 C1515 1.398 . S
C1516 C1517 1.391 . S
C1517 H1505 0.950 . S
C1517 C1513 1.393 . S
C1517 C1516 1.391 . S
C1518 H1508 0.950 . S
C1518 C1519 1.386 . S
C1518 C1520 1.391 . S
C1519 C1518 1.386 . S
C1519 C1523 1.393 . S
C1520 H1509 0.950 . S
C1520 C1518 1.391 . S
C1520 C1521 1.400 . S
C1521 C1515 1.491 . S
C1521 C1520 1.400 . S
C1521 C1522 1.398 . S
C1522 H1510 0.950 . S
C1522 C1521 1.398 . S
C1522 C1523 1.391 . S
C1523 H1511 0.950 . S
C1523 C1519 1.393 . S
C1523 C1522 1.391 . S
H1524 C1532 0.950 . S
H1525 C1537 0.950 . S
H1526 C1534 0.950 . S
H1527 C1536 0.950 . S
H1528 C1538 0.950 . S
H1529 C1540 0.950 . S
H1530 C1542 0.950 . S
H1531 C1543 0.950 . S
C1532 H1524 0.950 . S
C1532 C1533 1.386 . S
C1532 C1534 1.391 . S
C1533 C1532 1.386 . S
C1533 C1537 1.393 . S
C1534 H1526 0.950 . S
C1534 C1532 1.391 . S
C1534 C1535 1.400 . S
C1535 C1534 1.400 . S
C1535 C1536 1.398 . S
C1535 C1541 1.491 . S
C1536 H1527 0.950 . S
C1536 C1535 1.398 . S
C1536 C1537 1.391 . S
C1537 H1525 0.950 . S
C1537 C1533 1.393 . S
C1537 C1536 1.391 . S
C1538 H1528 0.950 . S
C1538 C1539 1.386 . S
C1538 C1540 1.391 . S
C1539 C1538 1.386 . S
C1539 C1543 1.393 . S
C1540 H1529 0.950 . S
C1540 C1538 1.391 . S
C1540 C1541 1.400 . S
C1541 C1535 1.491 . S
C1541 C1540 1.400 . S
C1541 C1542 1.398 . S
C1542 H1530 0.950 . S
C1542 C1541 1.398 . S
C1542 C1543 1.391 . S
C1543 H1531 0.950 . S
C1543 C1539 1.393 . S
C1543 C1542 1.391 . S
H1544 C1552 0.950 . S
H1545 C1557 0.950 . S
H1546 C1554 0.950 . S
H1547 C1556 0.950 . S
H1548 C1558 0.950 . S
H1549 C1560 0.950 . S
H1550 C1562 0.950 . S
H1551 C1563 0.950 . S
C1552 H1544 0.950 . S
C1552 C1553 1.386 . S
C1552 C1554 1.391 . S
C1553 C1552 1.386 . S
C1553 C1557 1.393 . S
C1554 H1546 0.950 . S
C1554 C1552 1.391 . S
C1554 C1555 1.400 . S
C1555 C1554 1.400 . S
C1555 C1556 1.398 . S
C1555 C1561 1.491 . S
C1556 H1547 0.950 . S
C1556 C1555 1.398 . S
C1556 C1557 1.391 . S
C1557 H1545 0.950 . S
C1557 C1553 1.393 . S
C1557 C1556 1.391 . S
C1558 H1548 0.950 . S
C1558 C1559 1.386 . S
C1558 C1560 1.391 . S
C1559 C1558 1.386 . S
C1559 C1563 1.393 . S
C1560 H1549 0.950 . S
C1560 C1558 1.391 . S
C1560 C1561 1.400 . S
C1561 C1555 1.491 . S
C1561 C1560 1.400 . S
C1561 C1562 1.398 . S
C1562 H1550 0.950 . S
C1562 C1561 1.398 . S
C1562 C1563 1.391 . S
C1563 H1551 0.950 . S
C1563 C1559 1.393 . S
C1563 C1562 1.391 . S
H1564 C1572 0.950 . S
H1565 C1577 0.950 . S
H1566 C1574 0.950 . S
H1567 C1576 0.950 . S
H1568 C1578 0.950 . S
H1569 C1580 0.950 . S
H1570 C1582 0.950 . S
H1571 C1583 0.950 . S
C1572 H1564 0.950 . S
C1572 C1573 1.386 . S
C1572 C1574 1.391 . S
C1573 C1572 1.386 . S
C1573 C1577 1.393 . S
C1574 H1566 0.950 . S
C1574 C1572 1.391 . S
C1574 C1575 1.400 . S
C1575 C1574 1.400 . S
C1575 C1576 1.398 . S
C1575 C1581 1.491 . S
C1576 H1567 0.950 . S
C1576 C1575 1.398 . S
C1576 C1577 1.391 . S
C1577 H1565 0.950 . S
C1577 C1573 1.393 . S
C1577 C1576 1.391 . S
C1578 H1568 0.950 . S
C1578 C1579 1.386 . S
C1578 C1580 1.391 . S
C1579 C1578 1.386 . S
C1579 C1583 1.393 . S
C1580 H1569 0.950 . S
C1580 C1578 1.391 . S
C1580 C1581 1.400 . S
C1581 C1575 1.491 . S
C1581 C1580 1.400 . S
C1581 C1582 1.398 . S
C1582 H1570 0.950 . S
C1582 C1581 1.398 . S
C1582 C1583 1.391 . S
C1583 H1571 0.950 . S
C1583 C1579 1.393 . S
C1583 C1582 1.391 . S
H1584 C1592 0.950 . S
H1585 C1597 0.950 . S
H1586 C1594 0.950 . S
H1587 C1596 0.950 . S
H1588 C1598 0.950 . S
H1589 C1600 0.950 . S
H1590 C1602 0.950 . S
H1591 C1603 0.950 . S
C1592 H1584 0.950 . S
C1592 C1593 1.386 . S
C1592 C1594 1.391 . S
C1593 C1592 1.386 . S
C1593 C1597 1.393 . S
C1594 H1586 0.950 . S
C1594 C1592 1.391 . S
C1594 C1595 1.400 . S
C1595 C1594 1.400 . S
C1595 C1596 1.398 . S
C1595 C1601 1.491 . S
C1596 H1587 0.950 . S
C1596 C1595 1.398 . S
C1596 C1597 1.391 . S
C1597 H1585 0.950 . S
C1597 C1593 1.393 . S
C1597 C1596 1.391 . S
C1598 H1588 0.950 . S
C1598 C1599 1.386 . S
C1598 C1600 1.391 . S
C1599 C1598 1.386 . S
C1599 C1603 1.393 . S
C1600 H1589 0.950 . S
C1600 C1598 1.391 . S
C1600 C1601 1.400 . S
C1601 C1595 1.491 . S
C1601 C1600 1.400 . S
C1601 C1602 1.398 . S
C1602 H1590 0.950 . S
C1602 C1601 1.398 . S
C1602 C1603 1.391 . S
C1603 H1591 0.950 . S
C1603 C1599 1.393 . S
C1603 C1602 1.391 . S
H1604 C1612 0.950 . S
H1605 C1617 0.950 . S
H1606 C1614 0.950 . S
H1607 C1616 0.950 . S
H1608 C1618 0.950 . S
H1609 C1620 0.950 . S
H1610 C1622 0.950 . S
H1611 C1623 0.950 . S
C1612 H1604 0.950 . S
C1612 C1613 1.386 . S
C1612 C1614 1.391 . S
C1613 C1612 1.386 . S
C1613 C1617 1.393 . S
C1614 H1606 0.950 . S
C1614 C1612 1.391 . S
C1614 C1615 1.400 . S
C1615 C1614 1.400 . S
C1615 C1616 1.398 . S
C1615 C1621 1.491 . S
C1616 H1607 0.950 . S
C1616 C1615 1.398 . S
C1616 C1617 1.391 . S
C1617 H1605 0.950 . S
C1617 C1613 1.393 . S
C1617 C1616 1.391 . S
C1618 H1608 0.950 . S
C1618 C1619 1.386 . S
C1618 C1620 1.391 . S
C1619 C1618 1.386 . S
C1619 C1623 1.393 . S
C1620 H1609 0.950 . S
C1620 C1618 1.391 . S
C1620 C1621 1.400 . S
C1621 C1615 1.491 . S
C1621 C1620 1.400 . S
C1621 C1622 1.398 . S
C1622 H1610 0.950 . S
C1622 C1621 1.398 . S
C1622 C1623 1.391 . S
C1623 H1611 0.950 . S
C1623 C1619 1.393 . S
C1623 C1622 1.391 . S
H1624 C1632 0.950 . S
H1625 C1637 0.950 . S
H1626 C1634 0.950 . S
H1627 C1636 0.950 . S
H1628 C1638 0.950 . S
H1629 C1640 0.950 . S
H1630 C1642 0.950 . S
H1631 C1643 0.950 . S
C1632 H1624 0.950 . S
C1632 C1633 1.386 . S
C1632 C1634 1.391 . S
C1633 C1632 1.386 . S
C1633 C1637 1.393 . S
C1634 H1626 0.950 . S
C1634 C1632 1.391 . S
C1634 C1635 1.400 . S
C1635 C1634 1.400 . S
C1635 C1636 1.398 . S
C1635 C1641 1.491 . S
C1636 H1627 0.950 . S
C1636 C1635 1.398 . S
C1636 C1637 1.391 . S
C1637 H1625 0.950 . S
C1637 C1633 1.393 . S
C1637 C1636 1.391 . S
C1638 H1628 0.950 . S
C1638 C1639 1.386 . S
C1638 C1640 1.391 . S
C1639 C1638 1.386 . S
C1639 C1643 1.393 . S
C1640 H1629 0.950 . S
C1640 C1638 1.391 . S
C1640 C1641 1.400 . S
C1641 C1635 1.491 . S
C1641 C1640 1.400 . S
C1641 C1642 1.398 . S
C1642 H1630 0.950 . S
C1642 C1641 1.398 . S
C1642 C1643 1.391 . S
C1643 H1631 0.950 . S
C1643 C1639 1.393 . S
C1643 C1642 1.391 . S
H1644 C1652 0.950 . S
H1645 C1657 0.950 . S
H1646 C1654 0.950 . S
H1647 C1656 0.950 . S
H1648 C1658 0.950 . S
H1649 C1660 0.950 . S
H1650 C1662 0.950 . S
H1651 C1663 0.950 . S
C1652 H1644 0.950 . S
C1652 C1653 1.386 . S
C1652 C1654 1.391 . S
C1653 C1652 1.386 . S
C1653 C1657 1.393 . S
C1654 H1646 0.950 . S
C1654 C1652 1.391 . S
C1654 C1655 1.400 . S
C1655 C1654 1.400 . S
C1655 C1656 1.398 . S
C1655 C1661 1.491 . S
C1656 H1647 0.950 . S
C1656 C1655 1.398 . S
C1656 C1657 1.391 . S
C1657 H1645 0.950 . S
C1657 C1653 1.393 . S
C1657 C1656 1.391 . S
C1658 H1648 0.950 . S
C1658 C1659 1.386 . S
C1658 C1660 1.391 . S
C1659 C1658 1.386 . S
C1659 C1663 1.393 . S
C1660 H1649 0.950 . S
C1660 C1658 1.391 . S
C1660 C1661 1.400 . S
C1661 C1655 1.491 . S
C1661 C1660 1.400 . S
C1661 C1662 1.398 . S
C1662 H1650 0.950 . S
C1662 C1661 1.398 . S
C1662 C1663 1.391 . S
C1663 H1651 0.950 . S
C1663 C1659 1.393 . S
C1663 C1662 1.391 . S
C553 C513 1.492 . S
C559 C17 1.619 . S
C573 C477 1.492 . S
C579 C51 1.610 . S
C593 C443 1.499 . S
C599 C85 1.607 . S
C613 C409 1.486 . S
C619 C119 1.614 . S
C633 C153 1.618 . S
C639 C375 1.486 . S
C653 C341 1.486 . S
C659 C187 1.615 . S
C673 C221 1.615 . S
C679 C307 1.486 . S
C693 C273 1.509 . S
C699 C255 1.617 . S
C713 C289 1.615 . S
C719 C241 1.514 . S
C733 C323 1.606 . S
C739 C205 1.504 . S
C753 C357 1.611 . S
C759 C173 1.489 . S
C773 C391 1.619 . S
C779 C137 1.488 . S
C793 C103 1.503 . S
C799 C425 1.606 . S
C813 C69 1.503 . S
C819 C459 1.606 . S
C833 C35 1.495 . S
C839 C493 1.619 . S
C853 C1 1.489 . S
C859 C527 1.619 . S
C873 C22 1.642 . S
C879 C226 1.665 . S
C893 C253 1.665 . S
C899 C56 1.642 . S
C913 C158 1.661 . S
C919 C90 1.646 . S
C933 C124 1.640 . S
C939 C185 1.667 . S
C953 C498 1.640 . S
C959 C294 1.666 . S
C973 C328 1.639 . S
C979 C525 1.668 . S
C993 C430 1.641 . S
C999 C362 1.666 . S
C1013 C396 1.639 . S
C1019 C464 1.668 . S
C1033 C117 1.587 . S
C1039 C15 1.610 . S
C1053 C83 1.592 . S
C1059 C49 1.606 . S
C1073 C260 1.582 . S
C1079 C151 1.612 . S
C1093 C192 1.598 . S
C1099 C219 1.601 . S
C1113 C389 1.606 . S
C1119 C287 1.585 . S
C1133 C355 1.596 . S
C1139 C321 1.594 . S
C1153 C423 1.607 . S
C1159 C532 1.585 . S
C1173 C491 1.583 . S
C1179 C457 1.610 . S
C1193 C3 1.870 . S
C1199 C71 1.873 . S
C1213 C37 1.853 . S
C1219 C105 1.858 . S
C1233 C139 1.876 . S
C1239 C207 1.862 . S
C1253 C239 1.856 . S
C1259 C171 1.875 . S
C1273 C275 1.875 . S
C1279 C343 1.866 . S
C1293 C377 1.858 . S
C1299 C309 1.875 . S
C1313 C411 1.854 . S
C1319 C479 1.873 . S
C1333 C445 1.859 . S
C1339 C511 1.852 . S
C1353 C6 1.072 . S
C1359 C470 1.097 . S
C1373 C436 1.096 . S
C1379 C40 1.092 . S
C1393 C516 1.096 . S
C1399 C74 1.094 . S
C1413 C108 1.084 . S
C1419 C504 1.104 . S
C1433 C142 1.075 . S
C1439 C334 1.100 . S
C1453 C198 1.083 . S
C1459 C300 1.103 . S
C1473 C402 1.103 . S
C1479 C210 1.083 . S
C1493 C266 1.071 . S
C1499 C368 1.095 . S
C1513 C278 1.095 . S
C1519 C176 1.098 . S
C1533 C164 1.092 . S
C1539 C312 1.080 . S
C1553 C346 1.094 . S
C1559 C244 1.104 . S
C1573 C232 1.093 . S
C1579 C380 1.073 . S
C1593 C62 1.093 . S
C1599 C414 1.084 . S
C1613 C448 1.097 . S
C1619 C28 1.100 . S
C1633 C482 1.083 . S
C1639 C130 1.092 . S
C1653 C538 1.090 . S
C1659 C96 1.094 . S
