# Generated by pormake.
# Topology snl, (6)-cn, num edge types: 1
# Building blocks:
#     Node 0, Type 0, BuildingBlock: UKALOJ_clean_sbu_0, # of connection points: 6
#     Node 1, Type 0, BuildingBlock: UKALOJ_clean_sbu_0, # of connection points: 6
#     Node 2, Type 0, BuildingBlock: UKALOJ_clean_sbu_0, # of connection points: 6
#     Node 3, Type 0, BuildingBlock: UKALOJ_clean_sbu_0, # of connection points: 6
#     Node 4, Type 0, BuildingBlock: UKALOJ_clean_sbu_0, # of connection points: 6
#     Node 5, Type 0, BuildingBlock: UKALOJ_clean_sbu_0, # of connection points: 6
#     Node 6, Type 0, BuildingBlock: UKALOJ_clean_sbu_0, # of connection points: 6
#     Node 7, Type 0, BuildingBlock: UKALOJ_clean_sbu_0, # of connection points: 6
#     Node 8, Type 0, BuildingBlock: UKALOJ_clean_sbu_0, # of connection points: 6
#     Node 9, Type 0, BuildingBlock: UKALOJ_clean_sbu_0, # of connection points: 6
#     Node 10, Type 0, BuildingBlock: UKALOJ_clean_sbu_0, # of connection points: 6
#     Node 11, Type 0, BuildingBlock: UKALOJ_clean_sbu_0, # of connection points: 6
#     Node 12, Type 0, BuildingBlock: UKALOJ_clean_sbu_0, # of connection points: 6
#     Node 13, Type 0, BuildingBlock: UKALOJ_clean_sbu_0, # of connection points: 6
#     Node 14, Type 0, BuildingBlock: UKALOJ_clean_sbu_0, # of connection points: 6
#     Node 15, Type 0, BuildingBlock: UKALOJ_clean_sbu_0, # of connection points: 6
#     Edge 16, Type (0, 0), BuildingBlock: UVAHIK_clean_linker_0, # of connection points: 2
#     Edge 17, Type (0, 0), BuildingBlock: UVAHIK_clean_linker_0, # of connection points: 2
#     Edge 18, Type (0, 0), BuildingBlock: UVAHIK_clean_linker_0, # of connection points: 2
#     Edge 19, Type (0, 0), BuildingBlock: UVAHIK_clean_linker_0, # of connection points: 2
#     Edge 20, Type (0, 0), BuildingBlock: UVAHIK_clean_linker_0, # of connection points: 2
#     Edge 21, Type (0, 0), BuildingBlock: UVAHIK_clean_linker_0, # of connection points: 2
#     Edge 22, Type (0, 0), BuildingBlock: UVAHIK_clean_linker_0, # of connection points: 2
#     Edge 23, Type (0, 0), BuildingBlock: UVAHIK_clean_linker_0, # of connection points: 2
#     Edge 24, Type (0, 0), BuildingBlock: UVAHIK_clean_linker_0, # of connection points: 2
#     Edge 25, Type (0, 0), BuildingBlock: UVAHIK_clean_linker_0, # of connection points: 2
#     Edge 26, Type (0, 0), BuildingBlock: UVAHIK_clean_linker_0, # of connection points: 2
#     Edge 27, Type (0, 0), BuildingBlock: UVAHIK_clean_linker_0, # of connection points: 2
#     Edge 28, Type (0, 0), BuildingBlock: UVAHIK_clean_linker_0, # of connection points: 2
#     Edge 29, Type (0, 0), BuildingBlock: UVAHIK_clean_linker_0, # of connection points: 2
#     Edge 30, Type (0, 0), BuildingBlock: UVAHIK_clean_linker_0, # of connection points: 2
#     Edge 31, Type (0, 0), BuildingBlock: UVAHIK_clean_linker_0, # of connection points: 2
#     Edge 32, Type (0, 0), BuildingBlock: UVAHIK_clean_linker_0, # of connection points: 2
#     Edge 33, Type (0, 0), BuildingBlock: UVAHIK_clean_linker_0, # of connection points: 2
#     Edge 34, Type (0, 0), BuildingBlock: UVAHIK_clean_linker_0, # of connection points: 2
#     Edge 35, Type (0, 0), BuildingBlock: UVAHIK_clean_linker_0, # of connection points: 2
#     Edge 36, Type (0, 0), BuildingBlock: UVAHIK_clean_linker_0, # of connection points: 2
#     Edge 37, Type (0, 0), BuildingBlock: UVAHIK_clean_linker_0, # of connection points: 2
#     Edge 38, Type (0, 0), BuildingBlock: UVAHIK_clean_linker_0, # of connection points: 2
#     Edge 39, Type (0, 0), BuildingBlock: UVAHIK_clean_linker_0, # of connection points: 2
#     Edge 40, Type (0, 0), BuildingBlock: UVAHIK_clean_linker_0, # of connection points: 2
#     Edge 41, Type (0, 0), BuildingBlock: UVAHIK_clean_linker_0, # of connection points: 2
#     Edge 42, Type (0, 0), BuildingBlock: UVAHIK_clean_linker_0, # of connection points: 2
#     Edge 43, Type (0, 0), BuildingBlock: UVAHIK_clean_linker_0, # of connection points: 2
#     Edge 44, Type (0, 0), BuildingBlock: UVAHIK_clean_linker_0, # of connection points: 2
#     Edge 45, Type (0, 0), BuildingBlock: UVAHIK_clean_linker_0, # of connection points: 2
#     Edge 46, Type (0, 0), BuildingBlock: UVAHIK_clean_linker_0, # of connection points: 2
#     Edge 47, Type (0, 0), BuildingBlock: UVAHIK_clean_linker_0, # of connection points: 2
#     Edge 48, Type (0, 0), BuildingBlock: UVAHIK_clean_linker_0, # of connection points: 2
#     Edge 49, Type (0, 0), BuildingBlock: UVAHIK_clean_linker_0, # of connection points: 2
#     Edge 50, Type (0, 0), BuildingBlock: UVAHIK_clean_linker_0, # of connection points: 2
#     Edge 51, Type (0, 0), BuildingBlock: UVAHIK_clean_linker_0, # of connection points: 2
#     Edge 52, Type (0, 0), BuildingBlock: UVAHIK_clean_linker_0, # of connection points: 2
#     Edge 53, Type (0, 0), BuildingBlock: UVAHIK_clean_linker_0, # of connection points: 2
#     Edge 54, Type (0, 0), BuildingBlock: UVAHIK_clean_linker_0, # of connection points: 2
#     Edge 55, Type (0, 0), BuildingBlock: UVAHIK_clean_linker_0, # of connection points: 2
#     Edge 56, Type (0, 0), BuildingBlock: UVAHIK_clean_linker_0, # of connection points: 2
#     Edge 57, Type (0, 0), BuildingBlock: UVAHIK_clean_linker_0, # of connection points: 2
#     Edge 58, Type (0, 0), BuildingBlock: UVAHIK_clean_linker_0, # of connection points: 2
#     Edge 59, Type (0, 0), BuildingBlock: UVAHIK_clean_linker_0, # of connection points: 2
#     Edge 60, Type (0, 0), BuildingBlock: UVAHIK_clean_linker_0, # of connection points: 2
#     Edge 61, Type (0, 0), BuildingBlock: UVAHIK_clean_linker_0, # of connection points: 2
#     Edge 62, Type (0, 0), BuildingBlock: UVAHIK_clean_linker_0, # of connection points: 2
#     Edge 63, Type (0, 0), BuildingBlock: UVAHIK_clean_linker_0, # of connection points: 2
# Relax obj value: 0.060
# Max RMSD: 0.101
# Mean RMSD: 0.092
data_MOF--net-snl--node1-UKALOJ_clean_sbu_0--edge1-UVAHIK_clean_linker_0
_symmetry_space_group_name_H-M    P1
_symmetry_Int_Tables_number       1
_symmetry_cell_setting            triclinic
loop_
_symmetry_equiv_pos_as_xyz
'x, y, z'
_cell_length_a     89.969083
_cell_length_b     84.320983
_cell_length_c     19.812508
_cell_angle_alpha  89.183878
_cell_angle_beta   89.633414
_cell_angle_gamma 90.024319
loop_
_atom_site_label
_atom_site_type_symbol
_atom_site_fract_x
_atom_site_fract_y
_atom_site_fract_z
_atom_type_partial_charge
Zn0 Zn 0.11753 0.65436 -0.00322 0.0
O1 O 0.11741 0.65536 0.89065 0.0
C2 C 0.12677 0.62043 -0.00681 0.0
Zn3 Zn 0.14204 0.65204 -0.00492 0.0
C4 C 0.12953 0.65439 0.85772 0.0
O5 O 0.14171 0.65296 0.8893 0.0
C6 C 0.12984 0.65188 0.13428 0.0
O7 O 0.14465 0.67692 -0.00325 0.0
O8 O 0.12045 0.67966 -0.00044 0.0
N9 N 0.16439 0.64889 -0.00736 0.0
C10 C 0.17508 0.65348 0.03543 0.0
C11 C 0.18528 0.6386 0.96239 0.0
N12 N 0.17076 0.63974 0.947 0.0
N13 N 0.18825 0.64702 0.01796 0.0
C14 C 0.08363 0.64926 0.97659 0.0
C15 C 0.07476 0.66882 0.03069 0.0
N16 N 0.0952 0.65757 0.00063 0.0
N17 N 0.08966 0.66972 0.03406 0.0
N18 N 0.07068 0.65606 -0.00487 0.0
H19 H 0.09543 0.63577 0.90175 0.0
H20 H 0.07541 0.63423 0.8979 0.0
H21 H 0.08548 0.62422 0.96417 0.0
C22 C 0.08507 0.63511 0.93216 0.0
C23 C 0.17277 0.66476 0.09249 0.0
H24 H 0.16355 0.67305 0.08214 0.0
H25 H 0.18304 0.67167 0.10169 0.0
H26 H 0.16997 0.65796 0.13906 0.0
O27 O 0.14198 0.65093 0.10163 0.0
O28 O 0.11774 0.65343 0.10235 0.0
C29 C 0.13334 0.68589 -0.00051 0.0
O30 O 0.11511 0.62895 -0.00477 0.0
O31 O 0.13939 0.62718 -0.00738 0.0
Zn32 Zn 0.62131 0.89665 0.20837 0.0
O33 O 0.5974 0.89733 0.20884 0.0
C34 C 0.62197 0.88247 0.34661 0.0
Zn35 Zn 0.62085 0.87025 0.20835 0.0
C36 C 0.58998 0.88448 0.21129 0.0
O37 O 0.59699 0.87139 0.21244 0.0
C38 C 0.65213 0.88251 0.20337 0.0
O39 O 0.62006 0.87107 0.10286 0.0
O40 O 0.62112 0.89717 0.10196 0.0
N41 N 0.61936 0.8461 0.21003 0.0
C42 C 0.62842 0.83423 0.19066 0.0
C43 C 0.60969 0.82368 0.23998 0.0
N44 N 0.60771 0.83947 0.24032 0.0
N45 N 0.62263 0.82003 0.20938 0.0
C46 C 0.61734 0.93083 0.26024 0.0
C47 C 0.63257 0.94404 0.19889 0.0
N48 N 0.62262 0.92092 0.21288 0.0
N49 N 0.63198 0.9292 0.17443 0.0
N50 N 0.62358 0.94532 0.2532 0.0
H51 H 0.59808 0.91736 0.29367 0.0
H52 H 0.5991 0.93721 0.32559 0.0
H53 H 0.61105 0.92199 0.35849 0.0
C54 C 0.60569 0.92658 0.31209 0.0
C55 C 0.64239 0.83659 0.15033 0.0
H56 H 0.64133 0.84711 0.1164 0.0
H57 H 0.64488 0.82598 0.11979 0.0
H58 H 0.65177 0.8386 0.18525 0.0
O59 O 0.64472 0.86964 0.20345 0.0
O60 O 0.64518 0.89562 0.20657 0.0
C61 C 0.62046 0.88416 0.07021 0.0
O62 O 0.62177 0.89555 0.31424 0.0
O63 O 0.62166 0.86959 0.31445 0.0
Zn64 Zn 0.35494 0.38949 0.61146 0.0
O65 O 0.35487 0.36435 0.62832 0.0
C66 C 0.36705 0.39364 0.74883 0.0
Zn67 Zn 0.3796 0.38942 0.61082 0.0
C68 C 0.36725 0.35712 0.63267 0.0
O69 O 0.37925 0.36492 0.62589 0.0
C70 C 0.3678 0.4218 0.59022 0.0
O71 O 0.3798 0.38625 0.50527 0.0
O72 O 0.35544 0.38608 0.50604 0.0
N73 N 0.40217 0.38909 0.61372 0.0
C74 C 0.41272 0.39501 0.5718 0.0
C75 C 0.42374 0.38496 0.65723 0.0
N76 N 0.40905 0.38281 0.66659 0.0
N77 N 0.42632 0.3925 0.59797 0.0
C78 C 0.32182 0.38558 0.65373 0.0
C79 C 0.31055 0.39469 0.56713 0.0
N80 N 0.3323 0.38989 0.6082 0.0
N81 N 0.32527 0.39549 0.55431 0.0
N82 N 0.30816 0.38854 0.62926 0.0
H83 H 0.33542 0.37122 0.72003 0.0
H84 H 0.31563 0.36967 0.73515 0.0
H85 H 0.32542 0.38717 0.75963 0.0
C86 C 0.32482 0.37787 0.72083 0.0
C87 C 0.40975 0.40397 0.50738 0.0
H88 H 0.41074 0.39572 0.46451 0.0
H89 H 0.41805 0.41358 0.49974 0.0
H90 H 0.39847 0.40915 0.50692 0.0
O91 O 0.37977 0.414 0.59676 0.0
O92 O 0.35541 0.41455 0.59422 0.0
C93 C 0.36762 0.38535 0.47351 0.0
O94 O 0.35484 0.39316 0.7171 0.0
O95 O 0.37918 0.39242 0.71626 0.0
Zn96 Zn 0.85728 0.12654 0.90671 0.0
O97 O 0.85615 0.15195 0.90163 0.0
C98 C 0.86906 0.12501 0.76829 0.0
Zn99 Zn 0.88239 0.12626 0.90586 0.0
C100 C 0.86856 0.15925 0.90006 0.0
O101 O 0.88055 0.15127 0.90071 0.0
C102 C 0.87155 0.09358 0.9154 0.0
O103 O 0.88287 0.12734 0.01161 0.0
O104 O 0.8584 0.1276 0.01253 0.0
N105 N 0.90528 0.12881 0.89831 0.0
C106 C 0.91739 0.12174 0.92557 0.0
C107 C 0.92513 0.14079 0.8629 0.0
N108 N 0.91022 0.14057 0.85925 0.0
N109 N 0.93002 0.12909 0.90408 0.0
C110 C 0.8226 0.13155 0.88118 0.0
C111 C 0.81369 0.11319 0.94421 0.0
N112 N 0.83422 0.12437 0.91229 0.0
N113 N 0.82855 0.11303 0.95153 0.0
N114 N 0.80954 0.12471 0.90039 0.0
H115 H 0.83551 0.14495 0.80788 0.0
H116 H 0.82206 0.15615 0.85453 0.0
H117 H 0.81588 0.14321 0.78897 0.0
C118 C 0.82416 0.14464 0.82975 0.0
C119 C 0.91675 0.10823 0.97531 0.0
H120 H 0.90583 0.10787 0.00155 0.0
H121 H 0.92581 0.10924 0.01273 0.0
H122 H 0.91824 0.09695 0.94795 0.0
O123 O 0.88371 0.10129 0.91194 0.0
O124 O 0.85926 0.10111 0.9133 0.0
C125 C 0.87065 0.12774 0.04422 0.0
O126 O 0.85686 0.12538 0.80091 0.0
O127 O 0.88129 0.12521 0.80004 0.0
Zn128 Zn 0.132 0.37431 0.93813 0.0
O129 O 0.12914 0.3731 0.8328 0.0
C130 C 0.16268 0.38527 0.91967 0.0
Zn131 Zn 0.13283 0.40088 0.93593 0.0
C132 C 0.12916 0.38607 0.79935 0.0
O133 O 0.13044 0.3991 0.83027 0.0
C134 C 0.13563 0.38912 0.07463 0.0
O135 O 0.10938 0.40245 0.94684 0.0
O136 O 0.10892 0.37643 0.95145 0.0
N137 N 0.13472 0.4251 0.9237 0.0
C138 C 0.12927 0.4379 0.95595 0.0
C139 C 0.14125 0.44641 0.86969 0.0
N140 N 0.14221 0.43049 0.87042 0.0
N141 N 0.1332 0.45145 0.92277 0.0
C142 C 0.13678 0.33753 0.92025 0.0
C143 C 0.1203 0.32838 -0.01203 0.0
N144 N 0.12994 0.35007 0.94866 0.0
N145 N 0.11975 0.3443 -0.00924 0.0
N146 N 0.13093 0.32376 0.9443 0.0
H147 H 0.14778 0.35024 0.83881 0.0
H148 H 0.14767 0.32888 0.83085 0.0
H149 H 0.15963 0.33817 0.89104 0.0
C150 C 0.14857 0.33881 0.86675 0.0
C151 C 0.11958 0.43701 0.01766 0.0
H152 H 0.11449 0.42513 0.0239 0.0
H153 H 0.11076 0.44618 0.01507 0.0
H154 H 0.12648 0.43926 0.06275 0.0
O155 O 0.13519 0.40213 0.04138 0.0
O156 O 0.13481 0.37605 0.04358 0.0
C157 C 0.10208 0.3896 0.95346 0.0
O158 O 0.15502 0.37264 0.92446 0.0
O159 O 0.1563 0.39868 0.92444 0.0
Zn160 Zn 0.85753 0.89195 0.06972 0.0
O161 O 0.857 0.86674 0.07985 0.0
C162 C 0.86836 0.89451 0.2076 0.0
Zn163 Zn 0.88267 0.89187 0.06975 0.0
C164 C 0.86922 0.85912 0.08223 0.0
O165 O 0.88143 0.86674 0.07919 0.0
C166 C 0.87106 0.92468 0.05527 0.0
O167 O 0.88416 0.88992 0.96424 0.0
O168 O 0.8597 0.88982 0.96401 0.0
N169 N 0.9056 0.89056 0.08132 0.0
C170 C 0.9177 0.89597 0.0471 0.0
C171 C 0.9255 0.88403 0.13546 0.0
N172 N 0.91057 0.88311 0.13592 0.0
N173 N 0.93037 0.89201 0.08022 0.0
C174 C 0.82283 0.8886 0.09968 0.0
C175 C 0.81385 0.89639 0.0057 0.0
N176 N 0.83447 0.89269 0.05933 0.0
N177 N 0.82876 0.89753 0.00108 0.0
N178 N 0.80979 0.89087 0.06719 0.0
H179 H 0.83435 0.87399 0.17216 0.0
H180 H 0.81433 0.8744 0.1828 0.0
H181 H 0.82535 0.89129 0.20573 0.0
C182 C 0.82428 0.88155 0.16904 0.0
C183 C 0.917 0.90573 0.98354 0.0
H184 H 0.9183 0.89781 0.93966 0.0
H185 H 0.92613 0.91458 0.98191 0.0
H186 H 0.90613 0.91184 0.97934 0.0
O187 O 0.88321 0.91697 0.05979 0.0
O188 O 0.85875 0.9172 0.05857 0.0
C189 C 0.87199 0.88935 0.93199 0.0
O190 O 0.85618 0.89414 0.17546 0.0
O191 O 0.8806 0.89383 0.17537 0.0
Zn192 Zn 0.37113 0.62006 0.38393 0.0
O193 O 0.37302 0.64479 0.36984 0.0
C194 C 0.38253 0.61483 0.24544 0.0
Zn195 Zn 0.39564 0.61781 0.38209 0.0
C196 C 0.38567 0.65119 0.36088 0.0
O197 O 0.39727 0.6426 0.3635 0.0
C198 C 0.38106 0.58669 0.40453 0.0
O199 O 0.39615 0.62161 0.48781 0.0
O200 O 0.37179 0.62291 0.4891 0.0
N201 N 0.41813 0.61597 0.37623 0.0
C202 C 0.42849 0.6105 0.41946 0.0
C203 C 0.43974 0.6177 0.32904 0.0
N204 N 0.42514 0.62038 0.32005 0.0
N205 N 0.4421 0.61149 0.39098 0.0
C206 C 0.33892 0.62958 0.3487 0.0
C207 C 0.32629 0.61426 0.41378 0.0
N208 N 0.34861 0.6213 0.38681 0.0
N209 N 0.34077 0.61185 0.42742 0.0
N210 N 0.32486 0.62529 0.36445 0.0
H211 H 0.34768 0.6528 0.33095 0.0
H212 H 0.33369 0.64765 0.27236 0.0
H213 H 0.35201 0.63901 0.26574 0.0
C214 C 0.34322 0.64288 0.30118 0.0
C215 C 0.42528 0.60349 0.48787 0.0
H216 H 0.42567 0.61305 0.52561 0.0
H217 H 0.43379 0.5945 0.50159 0.0
H218 H 0.41413 0.59793 0.48959 0.0
O219 O 0.39383 0.59306 0.39974 0.0
O220 O 0.36957 0.5953 0.39854 0.0
C221 C 0.38404 0.6231 0.5206 0.0
O222 O 0.37057 0.61705 0.27825 0.0
O223 O 0.39475 0.61423 0.27697 0.0
Zn224 Zn 0.62059 0.14865 0.76253 0.0
O225 O 0.61963 0.14763 0.86826 0.0
C226 C 0.65206 0.13775 0.76859 0.0
Zn227 Zn 0.62154 0.12226 0.76308 0.0
C228 C 0.62001 0.13455 0.90099 0.0
O229 O 0.62083 0.12155 0.86932 0.0
C230 C 0.62239 0.13668 0.62447 0.0
O231 O 0.59782 0.12022 0.76147 0.0
O232 O 0.59675 0.14611 0.75885 0.0
N233 N 0.62389 0.09808 0.75793 0.0
C234 C 0.61914 0.08801 0.71034 0.0
C235 C 0.63403 0.07513 0.77376 0.0
N236 N 0.63307 0.09001 0.79761 0.0
N237 N 0.62549 0.07363 0.71861 0.0
C238 C 0.62529 0.18545 0.78066 0.0
C239 C 0.60481 0.19379 0.73988 0.0
N240 N 0.61742 0.17263 0.76202 0.0
N241 N 0.60472 0.1779 0.73684 0.0
N242 N 0.61758 0.19888 0.76717 0.0
H243 H 0.64047 0.17413 0.84923 0.0
H244 H 0.64204 0.19554 0.84472 0.0
H245 H 0.64892 0.18357 0.77654 0.0
C246 C 0.64002 0.18468 0.81518 0.0
C247 C 0.60791 0.09197 0.65689 0.0
H248 H 0.60034 0.10152 0.67269 0.0
H249 H 0.60124 0.08132 0.6447 0.0
H250 H 0.61369 0.09597 0.61023 0.0
O251 O 0.62253 0.1236 0.65687 0.0
O252 O 0.62154 0.14954 0.65662 0.0
C253 C 0.59008 0.13281 0.7593 0.0
O254 O 0.64455 0.15058 0.7667 0.0
O255 O 0.64518 0.12457 0.76669 0.0
Zn256 Zn 0.90073 0.36082 0.95865 0.0
O257 O 0.90142 0.35973 0.06472 0.0
C258 C 0.89068 0.3947 0.96408 0.0
Zn259 Zn 0.87619 0.36295 0.96058 0.0
C260 C 0.88929 0.3602 0.09778 0.0
O261 O 0.87708 0.3613 0.06632 0.0
C262 C 0.8879 0.36372 0.82126 0.0
O263 O 0.87422 0.33807 0.9555 0.0
O264 O 0.89846 0.33542 0.95576 0.0
N265 N 0.85374 0.36509 0.96706 0.0
C266 C 0.8429 0.36094 0.92437 0.0
C267 C 0.83261 0.37309 0.00583 0.0
N268 N 0.84732 0.37252 0.01804 0.0
N269 N 0.8296 0.36585 0.94743 0.0
C270 C 0.93456 0.36593 0.98331 0.0
C271 C 0.94389 0.35184 0.90523 0.0
N272 N 0.92321 0.3587 0.95187 0.0
N273 N 0.92906 0.34986 0.90381 0.0
N274 N 0.94765 0.36184 0.95472 0.0
H275 H 0.92115 0.38148 0.04538 0.0
H276 H 0.93625 0.37191 0.08741 0.0
H277 H 0.94003 0.38807 0.0298 0.0
C278 C 0.93279 0.3776 0.03923 0.0
C279 C 0.84515 0.35188 0.86061 0.0
H280 H 0.85503 0.34409 0.86404 0.0
H281 H 0.8352 0.34458 0.84981 0.0
H282 H 0.84671 0.36039 0.81806 0.0
O283 O 0.87577 0.36484 0.85396 0.0
O284 O 0.89995 0.36183 0.85318 0.0
C285 C 0.88559 0.32915 0.95399 0.0
O286 O 0.90239 0.38631 0.95992 0.0
O287 O 0.87812 0.38783 0.966 0.0
Zn288 Zn 0.39763 0.14395 0.757 0.0
O289 O 0.39812 0.14311 0.86275 0.0
C290 C 0.36646 0.1317 0.76192 0.0
Zn291 Zn 0.3974 0.11756 0.75795 0.0
C292 C 0.39804 0.13005 0.89563 0.0
O293 O 0.39775 0.117 0.86411 0.0
C294 C 0.39672 0.13174 0.6192 0.0
O295 O 0.42124 0.11681 0.75667 0.0
O296 O 0.42149 0.14276 0.75437 0.0
N297 N 0.39601 0.09331 0.75346 0.0
C298 C 0.40123 0.08336 0.70612 0.0
C299 C 0.38606 0.0702 0.76803 0.0
N300 N 0.38668 0.08506 0.79225 0.0
N301 N 0.39498 0.06888 0.71353 0.0
C302 C 0.39054 0.17996 0.77721 0.0
C303 C 0.40929 0.19041 0.72757 0.0
N304 N 0.39928 0.16804 0.75577 0.0
N305 N 0.41093 0.17459 0.72522 0.0
N306 N 0.39656 0.19413 0.75976 0.0
H307 H 0.37743 0.16676 0.84979 0.0
H308 H 0.37464 0.18803 0.85097 0.0
H309 H 0.36709 0.17647 0.78359 0.0
C310 C 0.37665 0.17768 0.81817 0.0
C311 C 0.41282 0.08756 0.65395 0.0
H312 H 0.42044 0.09679 0.67202 0.0
H313 H 0.4194 0.07692 0.64049 0.0
H314 H 0.40741 0.0921 0.60761 0.0
O315 O 0.39677 0.11869 0.65183 0.0
O316 O 0.39715 0.14465 0.65112 0.0
C317 C 0.42858 0.12971 0.75493 0.0
O318 O 0.37371 0.14468 0.75981 0.0
O319 O 0.37362 0.11869 0.76104 0.0
Zn320 Zn 0.66363 0.62567 0.37343 0.0
O321 O 0.66524 0.65084 0.35876 0.0
C322 C 0.65045 0.62273 0.23609 0.0
Zn323 Zn 0.63901 0.62646 0.37413 0.0
C324 C 0.65308 0.6585 0.35592 0.0
O325 O 0.6409 0.65105 0.3624 0.0
C326 C 0.64913 0.59364 0.39106 0.0
O327 O 0.63989 0.62876 0.47977 0.0
O328 O 0.66427 0.62856 0.47886 0.0
N329 N 0.61656 0.62903 0.37756 0.0
C330 C 0.60588 0.62125 0.4127 0.0
C331 C 0.59537 0.64018 0.35867 0.0
N332 N 0.61001 0.64079 0.34408 0.0
N333 N 0.59258 0.62804 0.4016 0.0
C334 C 0.69677 0.62961 0.33093 0.0
C335 C 0.70722 0.61254 0.3953 0.0
N336 N 0.68614 0.62329 0.3713 0.0
N337 N 0.69267 0.61277 0.41151 0.0
N338 N 0.7101 0.62305 0.34512 0.0
H339 H 0.69771 0.65334 0.2918 0.0
H340 H 0.70052 0.63834 0.22953 0.0
H341 H 0.68214 0.64233 0.26216 0.0
C342 C 0.69402 0.64147 0.27521 0.0
C343 C 0.60842 0.60742 0.45951 0.0
H344 H 0.5999 0.60711 0.50027 0.0
H345 H 0.60742 0.59632 0.43052 0.0
H346 H 0.6196 0.60787 0.48225 0.0
O347 O 0.63734 0.60177 0.38485 0.0
O348 O 0.66166 0.60062 0.38853 0.0
C349 C 0.65209 0.6293 0.5115 0.0
O350 O 0.66263 0.62252 0.2681 0.0
O351 O 0.63831 0.62429 0.26843 0.0
Zn352 Zn 0.16098 0.88826 0.06236 0.0
O353 O 0.16149 0.86283 0.06715 0.0
C354 C 0.14963 0.88975 0.20091 0.0
Zn355 Zn 0.13581 0.88854 0.06347 0.0
C356 C 0.14907 0.85553 0.06863 0.0
O357 O 0.13706 0.8635 0.06837 0.0
C358 C 0.14727 0.92126 0.05403 0.0
O359 O 0.13494 0.88753 0.95775 0.0
O360 O 0.15944 0.88725 0.95659 0.0
N361 N 0.11284 0.88706 0.07391 0.0
C362 C 0.10088 0.89306 0.04113 0.0
C363 C 0.09272 0.88009 0.12667 0.0
N364 N 0.10764 0.87896 0.12673 0.0
N365 N 0.0881 0.88885 0.07345 0.0
C366 C 0.19565 0.8825 0.08679 0.0
C367 C 0.20485 0.90055 0.02294 0.0
N368 N 0.18413 0.88983 0.05544 0.0
N369 N 0.18998 0.90096 0.01566 0.0
N370 N 0.20882 0.88906 0.06724 0.0
H371 H 0.19618 0.858 0.11501 0.0
H372 H 0.20199 0.8712 0.18027 0.0
H373 H 0.18247 0.86926 0.15968 0.0
C374 C 0.19391 0.86958 0.13885 0.0
C375 C 0.10182 0.90362 0.97991 0.0
H376 H 0.10006 0.89638 0.93433 0.0
H377 H 0.09304 0.91284 0.98156 0.0
H378 H 0.11291 0.90929 0.97576 0.0
O379 O 0.13512 0.91356 0.05771 0.0
O380 O 0.15955 0.91372 0.0559 0.0
C381 C 0.14715 0.88713 0.92503 0.0
O382 O 0.1618 0.88939 0.16816 0.0
O383 O 0.13739 0.88955 0.16927 0.0
Zn384 Zn 0.88469 0.61398 0.03186 0.0
O385 O 0.90822 0.61303 0.0225 0.0
C386 C 0.88189 0.6257 0.89278 0.0
Zn387 Zn 0.8844 0.64055 0.02909 0.0
C388 C 0.91495 0.62625 0.01695 0.0
O389 O 0.90752 0.63904 0.01851 0.0
C390 C 0.85416 0.62869 0.04483 0.0
O391 O 0.88669 0.64176 0.13483 0.0
O392 O 0.88675 0.61574 0.13729 0.0
N393 N 0.88605 0.66481 0.01913 0.0
C394 C 0.87917 0.67719 0.04863 0.0
C395 C 0.89567 0.68672 0.98187 0.0
N396 N 0.89624 0.67082 0.97757 0.0
N397 N 0.88502 0.69108 0.02596 0.0
C398 C 0.88879 0.57707 0.01103 0.0
C399 C 0.87692 0.56827 0.09713 0.0
N400 N 0.88324 0.58974 0.04382 0.0
N401 N 0.87584 0.58417 0.09702 0.0
N402 N 0.88499 0.56342 0.04374 0.0
H403 H 0.90368 0.59004 0.94447 0.0
H404 H 0.90716 0.5689 0.95067 0.0
H405 H 0.89148 0.57635 0.90405 0.0
C406 C 0.89844 0.5782 0.94929 0.0
C407 C 0.86734 0.6756 0.10187 0.0
H408 H 0.86783 0.66387 0.12749 0.0
H409 H 0.86847 0.6851 0.13971 0.0
H410 H 0.8563 0.67681 0.07778 0.0
O411 O 0.86132 0.64164 0.03952 0.0
O412 O 0.86114 0.61557 0.04226 0.0
C413 C 0.88728 0.6288 0.16825 0.0
O414 O 0.88263 0.61272 0.92616 0.0
O415 O 0.88222 0.63881 0.92372 0.0
Zn416 Zn 0.16118 0.12262 0.89854 0.0
O417 O 0.16292 0.14789 0.89092 0.0
C418 C 0.14942 0.12063 0.76077 0.0
Zn419 Zn 0.13609 0.1228 0.8989 0.0
C420 C 0.1507 0.15549 0.88891 0.0
O421 O 0.13852 0.14781 0.89107 0.0
C422 C 0.14635 0.08998 0.91095 0.0
O423 O 0.13559 0.12444 0.00462 0.0
O424 O 0.16006 0.12423 0.00437 0.0
N425 N 0.11328 0.12587 0.89227 0.0
C426 C 0.101 0.11922 0.92069 0.0
C427 C 0.09371 0.1382 0.85705 0.0
N428 N 0.10861 0.13759 0.85262 0.0
N429 N 0.08855 0.1268 0.89934 0.0
C430 C 0.19584 0.12681 0.87111 0.0
C431 C 0.20446 0.10856 0.93507 0.0
N432 N 0.18412 0.11993 0.9033 0.0
N433 N 0.18959 0.10866 0.94311 0.0
N434 N 0.20878 0.11985 0.89024 0.0
H435 H 0.19658 0.1513 0.84265 0.0
H436 H 0.20283 0.13806 0.77795 0.0
H437 H 0.18319 0.14 0.79694 0.0
C438 C 0.19448 0.1397 0.81874 0.0
C439 C 0.10132 0.10591 0.97141 0.0
H440 H 0.11221 0.1054 -0.00279 0.0
H441 H 0.09225 0.10728 0.00909 0.0
H442 H 0.09962 0.09455 0.94496 0.0
O443 O 0.13427 0.09781 0.90751 0.0
O444 O 0.15871 0.09735 0.90748 0.0
C445 C 0.1478 0.12475 0.03663 0.0
O446 O 0.16161 0.12091 0.79278 0.0
O447 O 0.13719 0.12118 0.7931 0.0
Zn448 Zn 0.62302 0.39625 0.5855 0.0
O449 O 0.6222 0.39256 0.48013 0.0
C450 C 0.63717 0.42766 0.56224 0.0
Zn451 Zn 0.64758 0.39455 0.58426 0.0
C452 C 0.6343 0.39104 0.44743 0.0
O453 O 0.64654 0.39124 0.47901 0.0
C454 C 0.63618 0.3999 0.72246 0.0
O455 O 0.64617 0.3698 0.60067 0.0
O456 O 0.62186 0.37146 0.60396 0.0
N457 N 0.67009 0.39314 0.5784 0.0
C458 C 0.68018 0.38759 0.62261 0.0
C459 C 0.6921 0.39611 0.53604 0.0
N460 N 0.6775 0.39836 0.52446 0.0
N461 N 0.69399 0.38938 0.59732 0.0
C462 C 0.58992 0.40342 0.5513 0.0
C463 C 0.57915 0.39478 0.64071 0.0
N464 N 0.60053 0.3975 0.59227 0.0
N465 N 0.5938 0.39213 0.64767 0.0
N466 N 0.57643 0.40181 0.58064 0.0
H467 H 0.59189 0.40258 0.44407 0.0
H468 H 0.5845 0.42091 0.47501 0.0
H469 H 0.60413 0.41663 0.48245 0.0
C470 C 0.59283 0.41146 0.48459 0.0
C471 C 0.67664 0.37993 0.68956 0.0
H472 H 0.66552 0.37433 0.68961 0.0
H473 H 0.6851 0.37083 0.70249 0.0
H474 H 0.67691 0.3891 0.72903 0.0
O475 O 0.64828 0.39815 0.69008 0.0
O476 O 0.624 0.39982 0.69052 0.0
C477 C 0.63361 0.36315 0.6086 0.0
O478 O 0.62451 0.42105 0.56812 0.0
O479 O 0.64884 0.41927 0.56757 0.0
Zn480 Zn 0.39786 0.86582 0.20261 0.0
O481 O 0.39871 0.8669 0.09683 0.0
C482 C 0.36627 0.87655 0.19704 0.0
Zn483 Zn 0.39676 0.89222 0.20192 0.0
C484 C 0.39826 0.87997 0.06409 0.0
O485 O 0.39741 0.89298 0.09574 0.0
C486 C 0.39609 0.87776 0.34057 0.0
O487 O 0.42053 0.89439 0.20327 0.0
O488 O 0.4217 0.86852 0.20593 0.0
N489 N 0.39429 0.91638 0.20735 0.0
C490 C 0.399 0.92644 0.25508 0.0
C491 C 0.38396 0.93926 0.19217 0.0
N492 N 0.38503 0.92442 0.16797 0.0
N493 N 0.39253 0.94077 0.24723 0.0
C494 C 0.39318 0.82889 0.1867 0.0
C495 C 0.41422 0.82081 0.2222 0.0
N496 N 0.40119 0.84183 0.20268 0.0
N497 N 0.41423 0.83671 0.22456 0.0
N498 N 0.40115 0.81555 0.19864 0.0
H499 H 0.37557 0.81834 0.12886 0.0
H500 H 0.36964 0.83096 0.19674 0.0
H501 H 0.3772 0.83968 0.1205 0.0
C502 C 0.37803 0.82944 0.15607 0.0
C503 C 0.41028 0.92252 0.30835 0.0
H504 H 0.41793 0.91307 0.29221 0.0
H505 H 0.41686 0.93322 0.32073 0.0
H506 H 0.40457 0.91841 0.35497 0.0
O507 O 0.39584 0.89082 0.30806 0.0
O508 O 0.397 0.86488 0.30855 0.0
C509 C 0.42833 0.88183 0.2054 0.0
O510 O 0.37388 0.86379 0.19891 0.0
O511 O 0.37308 0.88979 0.19863 0.0
C512 C 0.11612 0.65652 0.74793 0.0
C513 C 0.12948 0.65459 0.7834 0.0
C514 C 0.11609 0.65632 0.67755 0.0
C515 C 0.1406 0.6613 0.52914 0.0
H516 H 0.1096 0.63811 0.43772 0.0
C517 C 0.14287 0.64868 0.24468 0.0
C518 C 0.12973 0.65151 0.20864 0.0
C519 C 0.1428 0.64887 0.31504 0.0
C520 C 0.11825 0.64473 0.46263 0.0
H521 H 0.15328 0.65097 0.77313 0.0
H522 H 0.15316 0.65041 0.65043 0.0
H523 H 0.10951 0.63913 0.56071 0.0
H524 H 0.10612 0.65647 0.21801 0.0
H525 H 0.10602 0.65678 0.34089 0.0
H526 H 0.14939 0.6668 0.43099 0.0
C527 C 0.14276 0.65231 0.67691 0.0
C528 C 0.11818 0.64536 0.53291 0.0
C529 C 0.14281 0.65255 0.74721 0.0
C530 C 0.11644 0.65424 0.24433 0.0
C531 C 0.11636 0.65436 0.31467 0.0
C532 C 0.1407 0.66063 0.45889 0.0
C533 C 0.1294 0.65415 0.64139 0.0
C534 C 0.12936 0.65365 0.56684 0.0
C535 C 0.12955 0.65179 0.35061 0.0
C536 C 0.12952 0.65234 0.42504 0.0
H537 H 0.10568 0.65815 0.77445 0.0
H538 H 0.10565 0.65797 0.65144 0.0
H539 H 0.14924 0.66798 0.55389 0.0
H540 H 0.15323 0.64629 0.21869 0.0
H541 H 0.15308 0.64661 0.34167 0.0
C542 C 0.61872 0.86979 0.96142 0.0
C543 C 0.62038 0.88413 -0.00413 0.0
C544 C 0.61891 0.86962 0.89113 0.0
C545 C 0.63219 0.89202 0.74352 0.0
H546 H 0.60295 0.86733 0.64746 0.0
C547 C 0.62526 0.89643 0.45564 0.0
C548 C 0.62246 0.88235 0.4209 0.0
C549 C 0.62527 0.89649 0.52594 0.0
C550 C 0.61131 0.87411 0.67361 0.0
H551 H 0.62349 0.90954 0.98379 0.0
H552 H 0.6238 0.90921 0.86059 0.0
H553 H 0.60217 0.86795 0.77044 0.0
H554 H 0.61789 0.85718 0.43236 0.0
H555 H 0.61817 0.85724 0.55546 0.0
H556 H 0.6414 0.8981 0.64685 0.0
C557 C 0.62245 0.89812 0.88822 0.0
C558 C 0.61083 0.8745 0.74391 0.0
C559 C 0.62219 0.89831 0.95864 0.0
C560 C 0.62 0.86824 0.4578 0.0
C561 C 0.62005 0.86829 0.52822 0.0
C562 C 0.63271 0.89158 0.67323 0.0
C563 C 0.62082 0.88376 0.85392 0.0
C564 C 0.62125 0.88348 0.77945 0.0
C565 C 0.62259 0.88245 0.56295 0.0
C566 C 0.62225 0.88265 0.63757 0.0
H567 H 0.61734 0.85865 -0.01132 0.0
H568 H 0.61779 0.85837 0.86588 0.0
H569 H 0.64049 0.89885 0.76983 0.0
H570 H 0.62746 0.90744 0.42866 0.0
H571 H 0.62714 0.90761 0.55126 0.0
C572 C 0.38101 0.38385 0.3626 0.0
C573 C 0.36758 0.38462 0.39905 0.0
C574 C 0.381 0.38456 0.29213 0.0
C575 C 0.35681 0.38006 0.14331 0.0
H576 H 0.38641 0.40675 0.05487 0.0
C577 C 0.35388 0.39593 0.86008 0.0
C578 C 0.3672 0.39448 0.82329 0.0
C579 C 0.35394 0.39523 0.93054 0.0
C580 C 0.37815 0.39916 0.07883 0.0
H581 H 0.3436 0.38634 0.3901 0.0
H582 H 0.34363 0.38772 0.26735 0.0
H583 H 0.38658 0.40364 0.17743 0.0
H584 H 0.39112 0.39175 0.83174 0.0
H585 H 0.3912 0.39055 0.9546 0.0
H586 H 0.34835 0.37565 0.04466 0.0
C587 C 0.35414 0.3864 0.29312 0.0
C588 C 0.37828 0.39733 0.14897 0.0
C589 C 0.35414 0.38567 0.36353 0.0
C590 C 0.38065 0.3929 0.85853 0.0
C591 C 0.38071 0.39226 0.92896 0.0
C592 C 0.35667 0.38192 0.07319 0.0
C593 C 0.36759 0.38607 0.25665 0.0
C594 C 0.36761 0.38775 0.182 0.0
C595 C 0.36734 0.39317 0.96567 0.0
C596 C 0.36734 0.39149 0.04023 0.0
H597 H 0.39154 0.38294 0.38844 0.0
H598 H 0.39153 0.384 0.26543 0.0
H599 H 0.34857 0.37243 0.16715 0.0
H600 H 0.34337 0.39738 0.83456 0.0
H601 H 0.34349 0.39625 0.95756 0.0
C602 C 0.88264 0.12415 0.65823 0.0
C603 C 0.86912 0.12472 0.69395 0.0
C604 C 0.88279 0.12437 0.5879 0.0
C605 C 0.85952 0.1167 0.44034 0.0
H606 H 0.88819 0.1436 0.3467 0.0
C607 C 0.85708 0.12855 0.15432 0.0
C608 C 0.8706 0.12799 0.11857 0.0
C609 C 0.85694 0.12829 0.22465 0.0
C610 C 0.88023 0.13592 0.37218 0.0
H611 H 0.84512 0.12586 0.68409 0.0
H612 H 0.84541 0.12636 0.56097 0.0
H613 H 0.88778 0.14266 0.46978 0.0
H614 H 0.8946 0.12683 0.12838 0.0
H615 H 0.89432 0.12627 0.25149 0.0
H616 H 0.85196 0.10997 0.34273 0.0
C617 C 0.85588 0.12558 0.58752 0.0
C618 C 0.87999 0.13537 0.44254 0.0
C619 C 0.85572 0.12536 0.65795 0.0
C620 C 0.884 0.12732 0.15454 0.0
C621 C 0.88385 0.12707 0.22497 0.0
C622 C 0.85975 0.11725 0.36997 0.0
C623 C 0.86942 0.12518 0.55187 0.0
C624 C 0.86964 0.12575 0.47727 0.0
C625 C 0.87031 0.12746 0.26065 0.0
C626 C 0.8701 0.12687 0.33524 0.0
H627 H 0.89315 0.12359 0.68452 0.0
H628 H 0.89338 0.12382 0.5617 0.0
H629 H 0.85155 0.10902 0.46581 0.0
H630 H 0.84657 0.12913 0.12806 0.0
H631 H 0.84636 0.12884 0.25088 0.0
C632 C 0.1367 0.3746 0.18524 0.0
C633 C 0.13624 0.38906 0.14911 0.0
C634 C 0.13617 0.37436 0.2556 0.0
C635 C 0.12372 0.39817 0.39905 0.0
H636 H 0.14795 0.3689 0.50352 0.0
C637 C 0.12818 0.4006 0.68874 0.0
C638 C 0.12853 0.38614 0.72488 0.0
C639 C 0.12867 0.40083 0.61837 0.0
C640 C 0.14098 0.37699 0.47497 0.0
H641 H 0.13522 0.41464 0.15856 0.0
H642 H 0.13447 0.41421 0.28177 0.0
H643 H 0.15052 0.36991 0.38093 0.0
H644 H 0.12933 0.36055 0.71547 0.0
H645 H 0.13005 0.36096 0.59221 0.0
H646 H 0.11418 0.40526 0.49311 0.0
C647 C 0.13504 0.40306 0.25544 0.0
C648 C 0.14248 0.37761 0.40481 0.0
C649 C 0.13558 0.4033 0.18493 0.0
C650 C 0.12905 0.37188 0.68907 0.0
C651 C 0.12957 0.37212 0.61855 0.0
C652 C 0.12222 0.39756 0.46921 0.0
C653 C 0.13517 0.38857 0.29146 0.0
C654 C 0.13386 0.3882 0.3661 0.0
C655 C 0.12954 0.38661 0.58253 0.0
C656 C 0.13084 0.38697 0.50791 0.0
H657 H 0.13718 0.3634 0.15919 0.0
H658 H 0.13613 0.363 0.28184 0.0
H659 H 0.11674 0.40625 0.37051 0.0
H660 H 0.1278 0.4118 0.71479 0.0
H661 H 0.12878 0.41218 0.5921 0.0
C662 C 0.85841 0.88793 0.82287 0.0
C663 C 0.87195 0.88879 0.85758 0.0
C664 C 0.85816 0.88829 0.75255 0.0
C665 C 0.88009 0.90151 0.60555 0.0
H666 H 0.85322 0.87442 0.50711 0.0
C667 C 0.8821 0.8958 0.31639 0.0
C668 C 0.8685 0.89507 0.28203 0.0
C669 C 0.88244 0.89541 0.3867 0.0
C670 C 0.86064 0.88219 0.53398 0.0
H671 H 0.8959 0.8904 0.84575 0.0
H672 H 0.89547 0.89087 0.72248 0.0
H673 H 0.85437 0.8722 0.62982 0.0
H674 H 0.84456 0.89369 0.2946 0.0
H675 H 0.84516 0.89313 0.41777 0.0
H676 H 0.88637 0.91149 0.50967 0.0
C677 C 0.88503 0.89012 0.74993 0.0
C678 C 0.86133 0.8809 0.60417 0.0
C679 C 0.88529 0.88974 0.82044 0.0
C680 C 0.85521 0.89424 0.31955 0.0
C681 C 0.85556 0.89381 0.39004 0.0
C682 C 0.87941 0.9028 0.53535 0.0
C683 C 0.87145 0.88952 0.71533 0.0
C684 C 0.87105 0.89056 0.64069 0.0
C685 C 0.86919 0.89426 0.42426 0.0
C686 C 0.86967 0.89316 0.49886 0.0
H687 H 0.84793 0.88722 0.84997 0.0
H688 H 0.84752 0.888 0.72737 0.0
H689 H 0.8875 0.9093 0.63242 0.0
H690 H 0.89255 0.89643 0.28902 0.0
H691 H 0.89312 0.8956 0.41163 0.0
C692 C 0.37054 0.62449 0.63107 0.0
C693 C 0.38405 0.62393 0.59509 0.0
C694 C 0.3704 0.62385 0.7015 0.0
C695 C 0.39269 0.60973 0.84448 0.0
H696 H 0.36626 0.63602 0.95023 0.0
C697 C 0.39581 0.61294 0.13462 0.0
C698 C 0.3824 0.61412 0.17097 0.0
C699 C 0.39587 0.61367 0.0642 0.0
C700 C 0.37355 0.62844 0.92137 0.0
H701 H 0.40802 0.62291 0.60507 0.0
H702 H 0.40777 0.62181 0.72811 0.0
H703 H 0.36687 0.6391 0.82767 0.0
H704 H 0.35848 0.6165 0.16188 0.0
H705 H 0.35857 0.61751 0.0388 0.0
H706 H 0.39932 0.59899 0.93801 0.0
C707 C 0.39729 0.6225 0.70164 0.0
C708 C 0.37394 0.63025 0.85121 0.0
C709 C 0.39743 0.62321 0.63116 0.0
C710 C 0.36901 0.6156 0.13535 0.0
C711 C 0.36907 0.61631 0.06486 0.0
C712 C 0.39228 0.60788 0.91461 0.0
C713 C 0.38376 0.6226 0.73749 0.0
C714 C 0.38353 0.62093 0.81206 0.0
C715 C 0.38252 0.61557 0.02854 0.0
C716 C 0.38271 0.61723 0.95386 0.0
H717 H 0.36002 0.62504 0.60488 0.0
H718 H 0.3598 0.62383 0.7277 0.0
H719 H 0.40001 0.60218 0.81553 0.0
H720 H 0.40634 0.61184 0.16053 0.0
H721 H 0.40644 0.61324 0.03781 0.0
C722 C 0.62207 0.12052 0.01259 0.0
C723 C 0.61982 0.1346 0.97535 0.0
C724 C 0.6224 0.12077 0.08298 0.0
C725 C 0.61037 0.144 0.22836 0.0
H726 H 0.64207 0.12184 0.32199 0.0
C727 C 0.61984 0.1508 0.51341 0.0
C728 C 0.62296 0.13684 0.55015 0.0
C729 C 0.61982 0.15073 0.44298 0.0
C730 C 0.63306 0.12795 0.29661 0.0
H731 H 0.61595 0.15995 0.98252 0.0
H732 H 0.6165 0.16033 0.10532 0.0
H733 H 0.64082 0.12093 0.19917 0.0
H734 H 0.62913 0.11207 0.54204 0.0
H735 H 0.62864 0.11183 0.41946 0.0
H736 H 0.6025 0.15089 0.32564 0.0
C737 C 0.61794 0.14911 0.08009 0.0
C738 C 0.63235 0.12742 0.2264 0.0
C739 C 0.6177 0.14889 0.0098 0.0
C740 C 0.62639 0.12293 0.5152 0.0
C741 C 0.62631 0.12284 0.44489 0.0
C742 C 0.61103 0.14447 0.29859 0.0
C743 C 0.62038 0.13508 0.11728 0.0
C744 C 0.621 0.13545 0.19168 0.0
C745 C 0.62292 0.13671 0.40804 0.0
C746 C 0.62239 0.13645 0.33344 0.0
H747 H 0.62373 0.10933 -0.01256 0.0
H748 H 0.62415 0.10976 0.11061 0.0
H749 H 0.6014 0.15014 0.20278 0.0
H750 H 0.61724 0.16173 0.53899 0.0
H751 H 0.6174 0.16167 0.4159 0.0
C752 C 0.87589 0.36135 0.20816 0.0
C753 C 0.88933 0.35999 0.17213 0.0
C754 C 0.87589 0.36182 0.2784 0.0
C755 C 0.89788 0.35116 0.42695 0.0
H756 H 0.87362 0.38281 0.51554 0.0
C757 C 0.90158 0.36213 0.71172 0.0
C758 C 0.88811 0.36419 0.74686 0.0
C759 C 0.90184 0.36197 0.64143 0.0
C760 C 0.88031 0.3738 0.49155 0.0
H761 H 0.91327 0.35787 0.18136 0.0
H762 H 0.91323 0.35868 0.30449 0.0
H763 H 0.87388 0.3815 0.39265 0.0
H764 H 0.86443 0.36811 0.73575 0.0
H765 H 0.86483 0.3675 0.6129 0.0
H766 H 0.90422 0.34335 0.52573 0.0
C767 C 0.90272 0.35929 0.27817 0.0
C768 C 0.88048 0.37306 0.4213 0.0
C769 C 0.90274 0.35888 0.20778 0.0
C770 C 0.87495 0.36637 0.71022 0.0
C771 C 0.8752 0.36615 0.63981 0.0
C772 C 0.89768 0.35185 0.49722 0.0
C773 C 0.8893 0.36089 0.31402 0.0
C774 C 0.88925 0.36173 0.3884 0.0
C775 C 0.88864 0.36384 0.60476 0.0
C776 C 0.88889 0.36318 0.53021 0.0
H777 H 0.86536 0.36219 0.18215 0.0
H778 H 0.86537 0.36284 0.30491 0.0
H779 H 0.90459 0.34218 0.40281 0.0
H780 H 0.91195 0.36052 0.73844 0.0
H781 H 0.9124 0.36044 0.61578 0.0
C782 C 0.39347 0.11775 0.51017 0.0
C783 C 0.39626 0.13183 0.54491 0.0
C784 C 0.39344 0.11769 0.43987 0.0
C785 C 0.40724 0.14021 0.29204 0.0
H786 H 0.37813 0.11531 0.19613 0.0
C787 C 0.39954 0.14451 0.00429 0.0
C788 C 0.39808 0.13013 0.96995 0.0
C789 C 0.39936 0.14471 0.07459 0.0
C790 C 0.3864 0.12219 0.22236 0.0
H791 H 0.40082 0.157 0.53342 0.0
H792 H 0.40049 0.15696 0.41038 0.0
H793 H 0.37731 0.116 0.31913 0.0
H794 H 0.39533 0.10468 0.98222 0.0
H795 H 0.39502 0.10506 0.10539 0.0
H796 H 0.41624 0.1465 0.19508 0.0
C797 C 0.39864 0.14589 0.43759 0.0
C798 C 0.38595 0.12259 0.29267 0.0
C799 C 0.39872 0.14594 0.508 0.0
C800 C 0.39648 0.11594 0.00729 0.0
C801 C 0.39621 0.11616 0.07768 0.0
C802 C 0.40765 0.13987 0.22173 0.0
C803 C 0.3961 0.13174 0.40285 0.0
C804 C 0.39638 0.13157 0.32822 0.0
C805 C 0.39765 0.13055 0.11188 0.0
C806 C 0.39725 0.13084 0.18632 0.0
H807 H 0.39126 0.10674 0.53716 0.0
H808 H 0.39157 0.10657 0.41454 0.0
H809 H 0.41558 0.14703 0.31809 0.0
H810 H 0.40077 0.15566 0.97693 0.0
H811 H 0.40034 0.15598 0.09978 0.0
C812 C 0.66408 0.62152 0.12601 0.0
C813 C 0.65054 0.62209 0.16168 0.0
C814 C 0.66426 0.62206 0.05562 0.0
C815 C 0.64098 0.61596 0.90606 0.0
H816 H 0.66969 0.64376 0.81766 0.0
C817 C 0.6385 0.63018 0.62171 0.0
C818 C 0.65203 0.62988 0.58592 0.0
C819 C 0.63835 0.6296 0.6921 0.0
C820 C 0.66171 0.63583 0.84159 0.0
H821 H 0.62656 0.62332 0.1515 0.0
H822 H 0.62691 0.62433 0.02845 0.0
H823 H 0.66939 0.64134 0.94047 0.0
H824 H 0.67603 0.62903 0.59585 0.0
H825 H 0.67574 0.62789 0.71887 0.0
H826 H 0.6333 0.61043 0.80721 0.0
C827 C 0.63737 0.62335 0.055 0.0
C828 C 0.66155 0.63443 0.91185 0.0
C829 C 0.63717 0.62283 0.12547 0.0
C830 C 0.66542 0.62933 0.62199 0.0
C831 C 0.66526 0.62873 0.69246 0.0
C832 C 0.64115 0.61735 0.83579 0.0
C833 C 0.65093 0.62316 0.01941 0.0
C834 C 0.65118 0.62448 0.9448 0.0
C835 C 0.65172 0.62868 0.7282 0.0
C836 C 0.6515 0.62731 0.80283 0.0
H837 H 0.67457 0.62091 0.15241 0.0
H838 H 0.67487 0.62166 0.0295 0.0
H839 H 0.63299 0.60805 0.93002 0.0
H840 H 0.62799 0.63065 0.59541 0.0
H841 H 0.62775 0.62983 0.71828 0.0
C842 C 0.13601 0.89075 0.31079 0.0
C843 C 0.14956 0.89007 0.27526 0.0
C844 C 0.13581 0.8906 0.38111 0.0
C845 C 0.15799 0.87855 0.52754 0.0
H846 H 0.13138 0.90642 0.62496 0.0
C847 C 0.16075 0.88619 0.81508 0.0
C848 C 0.14721 0.88686 0.85067 0.0
C849 C 0.16093 0.88637 0.74477 0.0
C850 C 0.13874 0.89844 0.59838 0.0
H851 H 0.17353 0.88885 0.28545 0.0
H852 H 0.17317 0.88871 0.40866 0.0
H853 H 0.13217 0.90762 0.50191 0.0
H854 H 0.12323 0.88811 0.84056 0.0
H855 H 0.12357 0.8883 0.71736 0.0
H856 H 0.16455 0.86937 0.624 0.0
C857 C 0.16271 0.88919 0.38191 0.0
C858 C 0.13921 0.89915 0.52804 0.0
C859 C 0.16292 0.88937 0.31145 0.0
C860 C 0.13384 0.88759 0.81452 0.0
C861 C 0.13403 0.8878 0.74406 0.0
C862 C 0.15752 0.87785 0.59788 0.0
C863 C 0.14914 0.88975 0.41736 0.0
C864 C 0.14884 0.8892 0.49197 0.0
C865 C 0.14759 0.88724 0.70857 0.0
C866 C 0.14789 0.88779 0.63396 0.0
H867 H 0.12551 0.89126 0.28437 0.0
H868 H 0.12518 0.89084 0.4071 0.0
H869 H 0.16534 0.87057 0.50098 0.0
H870 H 0.17125 0.88566 0.84145 0.0
H871 H 0.17156 0.88613 0.71874 0.0
C872 C 0.88032 0.64016 0.78232 0.0
C873 C 0.88138 0.62573 0.81835 0.0
C874 C 0.88083 0.64044 0.712 0.0
C875 C 0.87597 0.61558 0.56269 0.0
H876 H 0.90038 0.64777 0.47449 0.0
C877 C 0.88889 0.6143 0.2786 0.0
C878 C 0.88784 0.62875 0.24267 0.0
C879 C 0.88844 0.61401 0.34892 0.0
C880 C 0.89341 0.63882 0.49837 0.0
H881 H 0.88352 0.60023 0.80886 0.0
H882 H 0.88448 0.60073 0.68567 0.0
H883 H 0.8985 0.64695 0.59733 0.0
H884 H 0.88578 0.65425 0.25233 0.0
H885 H 0.88491 0.65371 0.37554 0.0
H886 H 0.87087 0.60746 0.46374 0.0
C887 C 0.88314 0.61181 0.71201 0.0
C888 C 0.89232 0.63835 0.56866 0.0
C889 C 0.88263 0.61153 0.78251 0.0
C890 C 0.88666 0.64294 0.27861 0.0
C891 C 0.88621 0.64263 0.34913 0.0
C892 C 0.87706 0.61606 0.49241 0.0
C893 C 0.88242 0.6263 0.67611 0.0
C894 C 0.88357 0.62673 0.60152 0.0
C895 C 0.88692 0.62814 0.38492 0.0
C896 C 0.8858 0.62768 0.45953 0.0
H897 H 0.87928 0.65132 0.80839 0.0
H898 H 0.87998 0.65175 0.68569 0.0
H899 H 0.86899 0.60663 0.58658 0.0
H900 H 0.88989 0.60316 0.25243 0.0
H901 H 0.88928 0.60268 0.37515 0.0
C902 C 0.1628 0.12068 0.64972 0.0
C903 C 0.14939 0.12021 0.68641 0.0
C904 C 0.16267 0.12101 0.57928 0.0
C905 C 0.13915 0.11216 0.43312 0.0
H906 H 0.16529 0.14169 0.33858 0.0
C907 C 0.13441 0.12472 0.14765 0.0
C908 C 0.14782 0.12518 0.11099 0.0
C909 C 0.13453 0.12441 0.2181 0.0
C910 C 0.15803 0.13329 0.36429 0.0
H911 H 0.12534 0.11951 0.67815 0.0
H912 H 0.12515 0.1202 0.55536 0.0
H913 H 0.16586 0.13999 0.46152 0.0
H914 H 0.17187 0.12589 0.11933 0.0
H915 H 0.17204 0.12524 0.24211 0.0
H916 H 0.13132 0.10546 0.33589 0.0
C917 C 0.13575 0.12015 0.58099 0.0
C918 C 0.15838 0.13229 0.43458 0.0
C919 C 0.13587 0.11984 0.65133 0.0
C920 C 0.16134 0.12557 0.14611 0.0
C921 C 0.16145 0.12528 0.21645 0.0
C922 C 0.13881 0.11316 0.36283 0.0
C923 C 0.14914 0.12086 0.54427 0.0
C924 C 0.14894 0.12172 0.46967 0.0
C925 C 0.14805 0.12458 0.25314 0.0
C926 C 0.14824 0.12373 0.32774 0.0
H927 H 0.1734 0.12095 0.67533 0.0
H928 H 0.17317 0.12135 0.55219 0.0
H929 H 0.13189 0.10376 0.45883 0.0
H930 H 0.12381 0.12444 0.12202 0.0
H931 H 0.12403 0.12408 0.24515 0.0
C932 C 0.62092 0.391 0.33684 0.0
C933 C 0.6343 0.39031 0.37292 0.0
C934 C 0.62107 0.39185 0.26635 0.0
C935 C 0.64519 0.40407 0.12421 0.0
H936 H 0.61706 0.38072 0.01647 0.0
C937 C 0.64938 0.40049 0.83352 0.0
C938 C 0.63605 0.4008 0.79697 0.0
C939 C 0.64913 0.39978 0.90403 0.0
C940 C 0.62486 0.38748 0.0459 0.0
H941 H 0.65834 0.38938 0.36316 0.0
H942 H 0.65856 0.39067 0.24033 0.0
H943 H 0.61668 0.37755 0.13899 0.0
H944 H 0.61199 0.40129 0.80597 0.0
H945 H 0.61159 0.40031 0.92878 0.0
H946 H 0.65337 0.41402 0.03118 0.0
C947 C 0.64797 0.39084 0.26657 0.0
C948 C 0.62466 0.38564 0.11606 0.0
C949 C 0.64782 0.38997 0.33696 0.0
C950 C 0.62248 0.40097 0.83251 0.0
C951 C 0.62223 0.40028 0.90293 0.0
C952 C 0.64539 0.40593 0.05406 0.0
C953 C 0.63461 0.39203 0.23053 0.0
C954 C 0.63484 0.39389 0.15596 0.0
C955 C 0.63554 0.3994 0.93946 0.0
C956 C 0.63523 0.39765 0.01411 0.0
H957 H 0.61032 0.39127 0.36301 0.0
H958 H 0.61059 0.39286 0.24001 0.0
H959 H 0.65302 0.4108 0.15368 0.0
H960 H 0.66002 0.40046 0.80776 0.0
H961 H 0.65959 0.39904 0.93067 0.0
C962 C 0.40068 0.86566 0.95529 0.0
C963 C 0.39842 0.87991 -0.01026 0.0
C964 C 0.40042 0.86543 0.88501 0.0
C965 C 0.40382 0.89124 0.73412 0.0
H966 H 0.3839 0.8564 0.64615 0.0
C967 C 0.39193 0.89156 0.44959 0.0
C968 C 0.39554 0.87765 0.41489 0.0
C969 C 0.39205 0.89173 0.51988 0.0
C970 C 0.3896 0.86612 0.67011 0.0
H971 H 0.39415 0.90512 0.97767 0.0
H972 H 0.39346 0.90466 0.85474 0.0
H973 H 0.38469 0.8571 0.76911 0.0
H974 H 0.40165 0.85288 0.42648 0.0
H975 H 0.40177 0.85317 0.54971 0.0
H976 H 0.40859 0.90031 0.63497 0.0
C977 C 0.39566 0.89371 0.88212 0.0
C978 C 0.39009 0.86651 0.7404 0.0
C979 C 0.396 0.89396 0.9525 0.0
C980 C 0.39885 0.86378 0.45187 0.0
C981 C 0.39888 0.86393 0.52231 0.0
C982 C 0.40326 0.89088 0.66386 0.0
C983 C 0.39781 0.87942 0.8477 0.0
C984 C 0.39723 0.87906 0.77312 0.0
C985 C 0.39564 0.87795 0.55684 0.0
C986 C 0.39617 0.87831 0.63126 0.0
H987 H 0.40266 0.85464 0.98256 0.0
H988 H 0.40236 0.85428 0.85989 0.0
H989 H 0.4096 0.90093 0.75786 0.0
H990 H 0.38895 0.90232 0.42257 0.0
H991 H 0.38922 0.90261 0.54536 0.0
C992 C 0.14958 0.71006 0.00544 0.0
C993 C 0.13526 0.70334 0.00475 0.0
C994 C 0.15149 0.72643 0.01252 0.0
C995 C 0.13155 0.76476 -0.00504 0.0
H996 H 0.16316 0.78058 0.10795 0.0
C997 C 0.13437 0.83032 0.06927 0.0
C998 C 0.14829 0.83793 0.06708 0.0
C999 C 0.13327 0.8139 0.0629 0.0
C1000 C 0.15439 0.77637 0.07563 0.0
H1001 H 0.11172 0.70863 0.01105 0.0
H1002 H 0.11503 0.73713 0.02401 0.0
H1003 H 0.16017 0.75204 0.09372 0.0
H1004 H 0.17205 0.83407 0.05828 0.0
H1005 H 0.17011 0.80524 0.04694 0.0
H1006 H 0.12571 0.78904 0.97709 0.0
C1007 C 0.12481 0.72978 0.01812 0.0
C1008 C 0.15266 0.75999 0.0674 0.0
C1009 C 0.1229 0.7134 0.01099 0.0
C1010 C 0.16115 0.8286 0.0602 0.0
C1011 C 0.16004 0.81207 0.05388 0.0
C1012 C 0.13325 0.7811 0.00327 0.0
C1013 C 0.13913 0.73651 0.01915 0.0
C1014 C 0.14116 0.75396 0.02721 0.0
C1015 C 0.14605 0.80456 0.05414 0.0
C1016 C 0.14462 0.78713 0.04407 0.0
H1017 H 0.15937 0.70268 0.00073 0.0
H1018 H 0.16267 0.73119 0.01214 0.0
H1019 H 0.12276 0.7606 0.96256 0.0
H1020 H 0.12422 0.83708 0.07502 0.0
H1021 H 0.12235 0.8085 0.06478 0.0
C1022 C 0.56543 0.89906 0.21162 0.0
C1023 C 0.57337 0.88468 0.21233 0.0
C1024 C 0.54981 0.89915 0.2121 0.0
C1025 C 0.51693 0.87354 0.25212 0.0
H1026 H 0.49552 0.9044 0.14334 0.0
C1027 C 0.45342 0.86859 0.20889 0.0
C1028 C 0.44491 0.88259 0.20722 0.0
C1029 C 0.469 0.86918 0.21059 0.0
C1030 C 0.50129 0.8958 0.17472 0.0
H1031 H 0.57094 0.85908 0.21404 0.0
H1032 H 0.54387 0.85923 0.21422 0.0
H1033 H 0.52264 0.90483 0.14447 0.0
H1034 H 0.44629 0.90826 0.20625 0.0
H1035 H 0.47342 0.90931 0.2097 0.0
H1036 H 0.49561 0.86447 0.28225 0.0
C1037 C 0.54966 0.87049 0.21423 0.0
C1038 C 0.5169 0.89605 0.17538 0.0
C1039 C 0.56525 0.8704 0.2137 0.0
C1040 C 0.45245 0.89723 0.20727 0.0
C1041 C 0.46805 0.89783 0.20888 0.0
C1042 C 0.50134 0.87328 0.25144 0.0
C1043 C 0.54167 0.88486 0.21344 0.0
C1044 C 0.52497 0.88487 0.21382 0.0
C1045 C 0.47658 0.88381 0.21066 0.0
C1046 C 0.49326 0.88436 0.21246 0.0
H1047 H 0.57127 0.9103 0.21079 0.0
H1048 H 0.54411 0.91046 0.21232 0.0
H1049 H 0.52267 0.86491 0.28342 0.0
H1050 H 0.44806 0.85709 0.20869 0.0
H1051 H 0.4751 0.85812 0.21086 0.0
C1052 C 0.38192 0.33284 0.65901 0.0
C1053 C 0.36801 0.3399 0.64749 0.0
C1054 C 0.38302 0.31671 0.67354 0.0
C1055 C 0.36231 0.28166 0.73487 0.0
H1056 H 0.39608 0.25991 0.6562 0.0
C1057 C 0.37588 0.21332 0.7483 0.0
C1058 C 0.39074 0.20994 0.76481 0.0
C1059 C 0.37118 0.22905 0.7398 0.0
C1060 C 0.38663 0.26585 0.67872 0.0
H1061 H 0.34427 0.33555 0.64319 0.0
H1062 H 0.34627 0.307 0.66758 0.0
H1063 H 0.3912 0.28735 0.62461 0.0
H1064 H 0.41206 0.2202 0.78876 0.0
H1065 H 0.40392 0.24764 0.77352 0.0
H1066 H 0.35777 0.25978 0.78837 0.0
C1067 C 0.35629 0.31412 0.66584 0.0
C1068 C 0.38384 0.28157 0.66078 0.0
C1069 C 0.35516 0.33042 0.6515 0.0
C1070 C 0.40056 0.22253 0.77611 0.0
C1071 C 0.39592 0.23817 0.76721 0.0
C1072 C 0.36503 0.26575 0.75234 0.0
C1073 C 0.37028 0.30709 0.67639 0.0
C1074 C 0.37192 0.28982 0.69003 0.0
C1075 C 0.38134 0.24155 0.74678 0.0
C1076 C 0.37746 0.2579 0.72566 0.0
H1077 H 0.39204 0.33979 0.65725 0.0
H1078 H 0.39394 0.31179 0.68311 0.0
H1079 H 0.35305 0.28771 0.75832 0.0
H1080 H 0.36818 0.20385 0.73744 0.0
H1081 H 0.35991 0.2314 0.72352 0.0
C1082 C 0.95207 0.1115 0.91793 0.0
C1083 C 0.94545 0.12658 0.92099 0.0
C1084 C 0.96761 0.10983 0.92335 0.0
C1085 C 1.0016 0.13379 0.89381 0.0
H1086 H 0.0226 0.10031 -0.01049 0.0
C1087 C 0.06432 0.13823 0.92912 0.0
C1088 C 0.07307 0.12476 0.91733 0.0
C1089 C 0.0489 0.13704 0.93576 0.0
C1090 C 0.01688 0.10966 0.96205 0.0
H1091 H 0.94973 0.15152 0.93558 0.0
H1092 H 0.97653 0.14867 0.94648 0.0
H1093 H 0.99527 0.10069 -0.00977 0.0
H1094 H 0.0725 0.09933 0.90493 0.0
H1095 H 0.04531 0.09713 0.91647 0.0
H1096 H 0.02294 0.14278 0.86513 0.0
C1097 C 0.96993 0.13813 0.93837 0.0
C1098 C 1.00122 0.10987 0.96246 0.0
C1099 C 0.95455 0.13978 0.93268 0.0
C1100 C 0.06606 0.10987 0.91512 0.0
C1101 C 0.05049 0.10865 0.92145 0.0
C1102 C 0.01712 0.13357 0.89337 0.0
C1103 C 0.97677 0.12323 0.93169 0.0
C1104 C 0.99339 0.12214 0.9293 0.0
C1105 C 0.04167 0.12232 0.92988 0.0
C1106 C 0.02503 0.1217 0.92844 0.0
H1107 H 0.94536 0.10116 0.90777 0.0
H1108 H 0.97248 0.09818 0.91777 0.0
H1109 H 0.99601 0.14316 0.86591 0.0
H1110 H 0.06944 0.14984 0.93137 0.0
H1111 H 0.04258 0.14777 0.94395 0.0
C1112 C 0.14903 0.30202 0.92508 0.0
C1113 C 0.1343 0.30752 0.92829 0.0
C1114 C 0.15201 0.28581 0.91682 0.0
C1115 C 0.13407 0.2468 0.94591 0.0
H1116 H 0.16545 0.23025 0.83179 0.0
C1117 C 0.13649 0.18093 0.88327 0.0
C1118 C 0.15028 0.17311 0.8868 0.0
C1119 C 0.13566 0.19742 0.88592 0.0
C1120 C 0.15675 0.23471 0.86442 0.0
H1121 H 0.11121 0.30054 0.92366 0.0
H1122 H 0.11629 0.27244 0.90816 0.0
H1123 H 0.16189 0.25901 0.83976 0.0
H1124 H 0.17409 0.17666 0.89352 0.0
H1125 H 0.17261 0.2057 0.89835 0.0
H1126 H 0.12883 0.22268 0.97048 0.0
C1127 C 0.12559 0.28049 0.91311 0.0
C1128 C 0.1547 0.25118 0.86898 0.0
C1129 C 0.12266 0.29659 0.92154 0.0
C1130 C 0.16329 0.1823 0.89088 0.0
C1131 C 0.16245 0.19893 0.89341 0.0
C1132 C 0.13609 0.23044 0.94129 0.0
C1133 C 0.14029 0.27481 0.91206 0.0
C1134 C 0.14316 0.2574 0.90898 0.0
C1135 C 0.14857 0.20664 0.89223 0.0
C1136 C 0.14728 0.22416 0.89968 0.0
H1137 H 0.15822 0.31011 0.93183 0.0
H1138 H 0.16345 0.28183 0.91684 0.0
H1139 H 0.12535 0.25114 0.97873 0.0
H1140 H 0.12622 0.17429 0.87941 0.0
H1141 H 0.12482 0.20297 0.88337 0.0
C1142 C 0.06637 0.89144 -0.00324 0.0
C1143 C 0.07278 0.89307 0.06084 0.0
C1144 C 0.05098 0.89367 -0.01215 0.0
C1145 C 0.0174 0.91108 0.07033 0.0
H1146 H 0.9954 0.87928 0.97295 0.0
C1147 C 0.95519 0.89987 0.1192 0.0
C1148 C 0.94581 0.89561 0.06604 0.0
C1149 C 0.9705 0.90162 0.10903 0.0
C1150 C 1.00135 0.88844 -0.00066 0.0
H1151 H 0.06819 0.89854 0.16518 0.0
H1152 H 0.04162 0.90258 0.14998 0.0
H1153 H 0.02258 0.87876 0.97177 0.0
H1154 H 0.94524 0.8897 0.96018 0.0
H1155 H 0.97213 0.89291 0.94176 0.0
H1156 H 0.99627 0.92058 0.09917 0.0
C1157 C 0.04833 0.89972 0.10626 0.0
C1158 C 0.01698 0.88814 -0.00133 0.0
C1159 C 0.06357 0.89734 0.11517 0.0
C1160 C 0.95212 0.89334 0.00177 0.0
C1161 C 0.96756 0.89497 -0.00844 0.0
C1162 C 1.00184 0.9114 0.07092 0.0
C1163 C 0.04174 0.89773 0.04273 0.0
C1164 C 0.02522 0.89922 0.03565 0.0
C1165 C 0.97698 0.89902 0.04532 0.0
C1166 C 0.99355 0.89984 0.03694 0.0
H1167 H 0.07312 0.88784 0.95428 0.0
H1168 H 0.04631 0.89207 0.93819 0.0
H1169 H 0.02334 0.92002 0.09821 0.0
H1170 H 0.95067 0.90156 0.16936 0.0
H1171 H 0.97733 0.90447 0.152 0.0
C1172 C 0.39995 0.67451 0.31565 0.0
C1173 C 0.38678 0.66826 0.34357 0.0
C1174 C 0.40072 0.6904 0.29516 0.0
C1175 C 0.37705 0.72499 0.24989 0.0
H1176 H 0.41357 0.74831 0.27808 0.0
C1177 C 0.3837 0.79362 0.22433 0.0
C1178 C 0.3971 0.7991 0.19568 0.0
C1179 C 0.38135 0.77734 0.23469 0.0
C1180 C 0.40335 0.7419 0.26907 0.0
H1181 H 0.36419 0.67389 0.37362 0.0
H1182 H 0.36563 0.70173 0.3394 0.0
H1183 H 0.41185 0.72078 0.31526 0.0
H1184 H 0.41812 0.79204 0.15205 0.0
H1185 H 0.41402 0.76364 0.16942 0.0
H1186 H 0.3685 0.74643 0.20508 0.0
C1187 C 0.37526 0.69426 0.33166 0.0
C1188 C 0.40236 0.7261 0.29035 0.0
C1189 C 0.37446 0.67832 0.35168 0.0
C1190 C 0.40771 0.78805 0.17416 0.0
C1191 C 0.40539 0.77185 0.18454 0.0
C1192 C 0.378 0.74089 0.22905 0.0
C1193 C 0.38837 0.70048 0.30273 0.0
C1194 C 0.38924 0.7174 0.28075 0.0
C1195 C 0.39243 0.76636 0.21707 0.0
C1196 C 0.39121 0.74946 0.23804 0.0
H1197 H 0.40959 0.66703 0.30813 0.0
H1198 H 0.41092 0.6947 0.27215 0.0
H1199 H 0.36683 0.71859 0.24092 0.0
H1200 H 0.37552 0.80192 0.24285 0.0
H1201 H 0.37129 0.77343 0.26028 0.0
C1202 C 0.56598 0.11746 0.75719 0.0
C1203 C 0.57351 0.13209 0.75749 0.0
C1204 C 0.55039 0.11686 0.75574 0.0
C1205 C 0.51708 0.1414 0.7142 0.0
H1206 H 0.49594 0.10972 0.82117 0.0
C1207 C 0.4532 0.14395 0.75299 0.0
C1208 C 0.44517 0.12962 0.75386 0.0
C1209 C 0.46879 0.14395 0.75233 0.0
C1210 C 0.50164 0.11853 0.79028 0.0
H1211 H 0.57039 0.1576 0.75658 0.0
H1212 H 0.54333 0.15657 0.75471 0.0
H1213 H 0.52305 0.11025 0.82198 0.0
H1214 H 0.44739 0.10401 0.75438 0.0
H1215 H 0.47454 0.10401 0.75266 0.0
H1216 H 0.4957 0.14971 0.6826 0.0
C1217 C 0.54944 0.14551 0.75467 0.0
C1218 C 0.51724 0.11884 0.79074 0.0
C1219 C 0.56501 0.1461 0.75618 0.0
C1220 C 0.45318 0.11528 0.75396 0.0
C1221 C 0.46879 0.11529 0.75336 0.0
C1222 C 0.50149 0.14109 0.71373 0.0
C1223 C 0.54187 0.13089 0.75442 0.0
C1224 C 0.52521 0.13032 0.75295 0.0
C1225 C 0.47684 0.12963 0.7525 0.0
C1226 C 0.49352 0.12971 0.752 0.0
H1227 H 0.57213 0.10642 0.75791 0.0
H1228 H 0.54501 0.10538 0.75473 0.0
H1229 H 0.52276 0.15024 0.68341 0.0
H1230 H 0.44745 0.15523 0.75312 0.0
H1231 H 0.47453 0.15524 0.7527 0.0
C1232 C 0.88343 0.18432 0.89774 0.0
C1233 C 0.86944 0.17685 0.90049 0.0
C1234 C 0.88468 0.20076 0.90249 0.0
C1235 C 0.86402 0.23843 0.88491 0.0
H1236 H 0.89573 0.25456 -0.00343 0.0
C1237 C 0.86931 0.30505 0.94793 0.0
C1238 C 0.88366 0.3117 0.94899 0.0
C1239 C 0.86733 0.28867 0.94205 0.0
C1240 C 0.88693 0.2503 0.9645 0.0
H1241 H 0.84572 0.18099 0.9087 0.0
H1242 H 0.84791 0.20989 0.91718 0.0
H1243 H 0.89243 0.22606 -0.01432 0.0
H1244 H 0.90719 0.30625 0.94441 0.0
H1245 H 0.90374 0.27768 0.93342 0.0
H1246 H 0.85857 0.2627 0.86347 0.0
C1247 C 0.85792 0.20291 0.91108 0.0
C1248 C 0.88502 0.23392 0.95832 0.0
C1249 C 0.85666 0.18635 0.90641 0.0
C1250 C 0.89599 0.30154 0.94411 0.0
C1251 C 0.894 0.28513 0.93813 0.0
C1252 C 0.86595 0.25484 0.89098 0.0
C1253 C 0.87198 0.21028 0.91015 0.0
C1254 C 0.8736 0.22776 0.91813 0.0
C1255 C 0.87964 0.27848 0.93694 0.0
C1256 C 0.87748 0.261 0.93065 0.0
H1257 H 0.89353 0.17744 0.89267 0.0
H1258 H 0.89565 0.20603 0.90013 0.0
H1259 H 0.85522 0.2341 0.85297 0.0
H1260 H 0.85954 0.31249 0.95168 0.0
H1261 H 0.85612 0.28399 0.94235 0.0
C1262 C 0.61944 0.79128 0.20009 0.0
C1263 C 0.62891 0.80435 0.20786 0.0
C1264 C 0.62457 0.77592 0.21238 0.0
C1265 C 0.6553 0.74892 0.22636 0.0
H1266 H 0.6321 0.72974 0.37171 0.0
C1267 C 0.66574 0.68475 0.33194 0.0
C1268 C 0.6527 0.67582 0.34272 0.0
C1269 C 0.66487 0.70106 0.31731 0.0
C1270 C 0.63865 0.73486 0.33081 0.0
H1271 H 0.65135 0.81149 0.23295 0.0
H1272 H 0.66047 0.78443 0.25212 0.0
H1273 H 0.62685 0.75682 0.33528 0.0
H1274 H 0.62858 0.67701 0.3459 0.0
H1275 H 0.62712 0.70497 0.31964 0.0
H1276 H 0.66667 0.7266 0.21992 0.0
C1277 C 0.6491 0.78621 0.23604 0.0
C1278 C 0.63566 0.75037 0.3102 0.0
C1279 C 0.6439 0.80166 0.22444 0.0
C1280 C 0.63888 0.68349 0.33856 0.0
C1281 C 0.63803 0.69963 0.32388 0.0
C1282 C 0.65819 0.7332 0.24647 0.0
C1283 C 0.6393 0.77331 0.23234 0.0
C1284 C 0.6437 0.75739 0.25686 0.0
C1285 C 0.65097 0.70867 0.31345 0.0
C1286 C 0.64959 0.72589 0.29776 0.0
H1287 H 0.60785 0.79304 0.18761 0.0
H1288 H 0.61684 0.7661 0.20902 0.0
H1289 H 0.66168 0.7542 0.18527 0.0
H1290 H 0.67655 0.67914 0.33446 0.0
H1291 H 0.67505 0.70773 0.30961 0.0
C1292 C 0.89365 0.71784 0.05404 0.0
C1293 C 0.88187 0.70718 0.04489 0.0
C1294 C 0.89089 0.7338 0.06724 0.0
C1295 C 0.86284 0.76502 0.04246 0.0
H1296 H 0.88787 0.78818 0.16559 0.0
C1297 C 0.85607 0.83272 0.08548 0.0
C1298 C 0.86936 0.84152 0.08681 0.0
C1299 C 0.8564 0.81609 0.08726 0.0
C1300 C 0.88083 0.78192 0.13069 0.0
H1301 H 0.85793 0.70494 0.041 0.0
H1302 H 0.85301 0.73292 0.06505 0.0
H1303 H 0.89046 0.75951 0.15742 0.0
H1304 H 0.89338 0.83967 0.09189 0.0
H1305 H 0.89394 0.81086 0.09449 0.0
H1306 H 0.85343 0.78751 0.01474 0.0
C1307 C 0.86442 0.72887 0.06235 0.0
C1308 C 0.88231 0.76546 0.12607 0.0
C1309 C 0.86721 0.71281 0.04951 0.0
C1310 C 0.88293 0.83331 0.09091 0.0
C1311 C 0.88325 0.81674 0.09287 0.0
C1312 C 0.86137 0.78151 0.04706 0.0
C1313 C 0.87625 0.73957 0.071 0.0
C1314 C 0.87354 0.75683 0.08094 0.0
C1315 C 0.87 0.80789 0.09075 0.0
C1316 C 0.87056 0.79021 0.09028 0.0
H1317 H 0.90504 0.71381 0.05022 0.0
H1318 H 0.90028 0.74172 0.07246 0.0
H1319 H 0.85601 0.75877 0.00669 0.0
H1320 H 0.84542 0.83866 0.08245 0.0
H1321 H 0.84599 0.80965 0.08617 0.0
C1322 C 0.61078 0.22634 0.791 0.0
C1323 C 0.62164 0.21529 0.77221 0.0
C1324 C 0.61324 0.24254 0.78164 0.0
C1325 C 0.64087 0.2737 0.74609 0.0
H1326 H 0.60856 0.29307 0.6458 0.0
C1327 C 0.64546 0.33649 0.62514 0.0
C1328 C 0.63271 0.34612 0.62685 0.0
C1329 C 0.64471 0.32055 0.6453 0.0
C1330 C 0.6176 0.28798 0.67469 0.0
H1331 H 0.64385 0.21249 0.73144 0.0
H1332 H 0.64833 0.241 0.71599 0.0
H1333 H 0.60659 0.26557 0.68287 0.0
H1334 H 0.60922 0.34661 0.65189 0.0
H1335 H 0.60795 0.31902 0.68844 0.0
H1336 H 0.65182 0.29622 0.73861 0.0
C1337 C 0.63794 0.23707 0.73854 0.0
C1338 C 0.61647 0.27219 0.69583 0.0
C1339 C 0.63544 0.22078 0.74779 0.0
C1340 C 0.61921 0.33948 0.64917 0.0
C1341 C 0.61848 0.32361 0.66994 0.0
C1342 C 0.64195 0.28962 0.72551 0.0
C1343 C 0.62663 0.24803 0.75299 0.0
C1344 C 0.62805 0.2649 0.73196 0.0
C1345 C 0.63121 0.31392 0.66817 0.0
C1346 C 0.63029 0.29696 0.68967 0.0
H1347 H 0.60007 0.22235 0.80987 0.0
H1348 H 0.60442 0.25075 0.79418 0.0
H1349 H 0.64995 0.26835 0.77395 0.0
H1350 H 0.65605 0.34127 0.60821 0.0
H1351 H 0.65468 0.3134 0.64232 0.0
C1352 C 0.96809 0.36955 0.03049 0.0
C1353 C 0.96225 0.36819 0.96532 0.0
C1354 C 0.98258 0.37513 0.03952 0.0
C1355 C 0.01635 0.37522 0.03703 0.0
H1356 H 0.03407 0.40641 0.91516 0.0
C1357 C 0.07822 0.37526 0.97366 0.0
C1358 C 0.08582 0.38969 0.96445 0.0
C1359 C 0.0629 0.37504 0.98395 0.0
C1360 C 0.02926 0.39789 0.95042 0.0
H1361 H 0.96679 0.37157 0.85876 0.0
H1362 H 0.99214 0.38094 0.87401 0.0
H1363 H 1.00721 0.40245 0.91528 0.0
H1364 H 0.08332 0.41527 0.95965 0.0
H1365 H 0.05635 0.41486 0.97758 0.0
H1366 H 0.0384 0.37053 0.0716 0.0
C1367 C 0.98551 0.37812 0.91838 0.0
C1368 C 0.0139 0.39549 0.94997 0.0
C1369 C 0.97107 0.37257 0.90949 0.0
C1370 C 0.07775 0.40395 0.9663 0.0
C1371 C 0.06233 0.40372 0.97648 0.0
C1372 C 0.03169 0.37766 0.0376 0.0
C1373 C 0.99149 0.37934 0.98345 0.0
C1374 C 1.00734 0.38376 -0.00829 0.0
C1375 C 0.05477 0.38924 -0.0146 0.0
C1376 C 0.03836 0.38863 -0.0073 0.0
H1377 H 0.96165 0.36586 0.07423 0.0
H1378 H 0.98687 0.37593 0.09031 0.0
H1379 H 0.01169 0.36606 0.06963 0.0
H1380 H 0.08407 0.36404 0.97249 0.0
H1381 H 0.05738 0.36366 -0.01078 0.0
C1382 C 0.46691 0.59966 0.38387 0.0
C1383 C 0.45636 0.6084 0.41994 0.0
C1384 C 0.48155 0.59872 0.40629 0.0
C1385 C 0.50784 0.62405 0.48256 0.0
H1386 H 0.53397 0.58752 0.47954 0.0
C1387 C 0.57072 0.63316 0.4721 0.0
C1388 C 0.57834 0.6234 0.42715 0.0
C1389 C 0.55628 0.62933 0.49263 0.0
C1390 C 0.52685 0.59786 0.48027 0.0
H1391 H 0.4525 0.62271 0.50808 0.0
H1392 H 0.47831 0.62138 0.54692 0.0
H1393 H 0.50705 0.58369 0.47678 0.0
H1394 H 0.57749 0.60195 0.36935 0.0
H1395 H 0.55191 0.59556 0.4015 0.0
H1396 H 0.52731 0.63837 0.48 0.0
C1397 C 0.47517 0.61498 0.5022 0.0
C1398 C 0.51146 0.59563 0.47935 0.0
C1399 C 0.46045 0.61567 0.4803 0.0
C1400 C 0.57165 0.60952 0.40435 0.0
C1401 C 0.55708 0.60585 0.42349 0.0
C1402 C 0.52318 0.62631 0.48214 0.0
C1403 C 0.4859 0.60682 0.46439 0.0
C1404 C 0.50186 0.60874 0.47873 0.0
C1405 C 0.54907 0.61589 0.46683 0.0
C1406 C 0.53291 0.61327 0.47894 0.0
H1407 H 0.4639 0.59408 0.33699 0.0
H1408 H 0.48967 0.59255 0.37576 0.0
H1409 H 0.50066 0.63437 0.48113 0.0
H1410 H 0.57592 0.64385 0.49043 0.0
H1411 H 0.55064 0.63715 0.52731 0.0
C1412 C 0.4502 0.40561 0.61627 0.0
C1413 C 0.44054 0.39766 0.57316 0.0
C1414 C 0.46439 0.4099 0.5943 0.0
C1415 C 0.49361 0.39649 0.48405 0.0
H1416 H 0.51259 0.43536 0.54075 0.0
C1417 C 0.55722 0.4018 0.49234 0.0
C1418 C 0.56204 0.40633 0.55648 0.0
C1419 C 0.54244 0.40424 0.47332 0.0
C1420 C 0.50743 0.42451 0.52395 0.0
H1421 H 0.43793 0.38782 0.47369 0.0
H1422 H 0.46305 0.39515 0.43494 0.0
H1423 H 0.48556 0.43304 0.54606 0.0
H1424 H 0.55566 0.41745 0.64981 0.0
H1425 H 0.5299 0.42174 0.61723 0.0
H1426 H 0.5155 0.38755 0.46624 0.0
C1427 C 0.45951 0.3983 0.48538 0.0
C1428 C 0.49199 0.4232 0.52696 0.0
C1429 C 0.44519 0.39418 0.50726 0.0
C1430 C 0.55212 0.41395 0.60003 0.0
C1431 C 0.53744 0.41651 0.58099 0.0
C1432 C 0.50908 0.39779 0.48125 0.0
C1433 C 0.46928 0.4061 0.52897 0.0
C1434 C 0.485 0.40891 0.51003 0.0
C1435 C 0.53233 0.41133 0.51814 0.0
C1436 C 0.51616 0.41154 0.50425 0.0
H1437 H 0.44677 0.40833 0.66731 0.0
H1438 H 0.47177 0.41562 0.62948 0.0
H1439 H 0.48852 0.38532 0.47097 0.0
H1440 H 0.56465 0.39564 0.45851 0.0
H1441 H 0.53879 0.40011 0.42463 0.0
C1442 C 0.04464 0.66235 0.97151 0.0
C1443 C 0.05564 0.651 -0.01496 0.0
C1444 C 0.02971 0.65801 0.97062 0.0
C1445 C 1.00343 0.62482 0.95987 0.0
H1446 H 0.97815 0.65292 0.06299 0.0
C1447 C 0.94032 0.61365 0.01613 0.0
C1448 C 0.93126 0.62714 0.00912 0.0
C1449 C 0.95583 0.61506 0.01183 0.0
C1450 C 0.98503 0.64502 0.03359 0.0
H1451 H 0.05972 0.6262 0.00818 0.0
H1452 H 0.03348 0.6185 0.00567 0.0
H1453 H 1.00464 0.65823 0.05492 0.0
H1454 H 0.9313 0.65255 -0.01101 0.0
H1455 H 0.95805 0.65492 0.98087 0.0
H1456 H 0.9836 0.61173 0.93804 0.0
C1457 C 0.03648 0.63071 -0.00532 0.0
C1458 C 1.0002 0.64807 0.02891 0.0
C1459 C 0.05148 0.63509 -0.00432 0.0
C1460 C 0.93793 0.64193 -0.00434 0.0
C1461 C 0.9533 0.64332 -0.00874 0.0
C1462 C 0.98815 0.62178 0.96436 0.0
C1463 C 0.02545 0.64223 0.98384 0.0
C1464 C 0.00951 0.63821 -0.00905 0.0
C1465 C 0.96244 0.62999 0.00055 0.0
C1466 C 0.97878 0.63207 0.00016 0.0
H1467 H 0.04762 0.67467 0.96323 0.0
H1468 H 0.02144 0.6671 0.96112 0.0
H1469 H 0.01041 0.61702 0.93046 0.0
H1470 H 0.93547 0.60209 0.02623 0.0
H1471 H 0.96264 0.6046 0.01917 0.0
C1472 C 0.13895 0.594 0.97913 0.0
C1473 C 0.12593 0.60284 -0.00969 0.0
C1474 C 0.13842 0.5775 0.97467 0.0
C1475 C 0.11653 0.54199 0.01969 0.0
H1476 H 0.13906 0.52317 0.8738 0.0
C1477 C 0.13 0.47429 -0.00033 0.0
C1478 C 0.12938 0.46779 0.93477 0.0
C1479 C 0.12794 0.49064 0.00871 0.0
C1480 C 0.13261 0.52821 0.91457 0.0
H1481 H 0.10214 0.60113 0.00703 0.0
H1482 H 0.10123 0.57212 -0.00053 0.0
H1483 H 0.13857 0.55186 0.88489 0.0
H1484 H 0.1257 0.4732 0.82912 0.0
H1485 H 0.12209 0.50157 0.84465 0.0
H1486 H 0.11066 0.51816 0.04932 0.0
C1487 C 0.11185 0.57808 -0.00582 0.0
C1488 C 0.13245 0.54467 0.92129 0.0
C1489 C 0.11236 0.59469 -0.00191 0.0
C1490 C 0.12629 0.47789 0.87963 0.0
C1491 C 0.12428 0.49414 0.88854 0.0
C1492 C 0.11681 0.52543 0.01331 0.0
C1493 C 0.12487 0.56933 0.98165 0.0
C1494 C 0.12447 0.55178 0.97402 0.0
C1495 C 0.12539 0.5008 0.95294 0.0
C1496 C 0.12485 0.51835 0.96053 0.0
H1497 H 0.14962 0.59983 0.97311 0.0
H1498 H 0.14868 0.57111 0.96593 0.0
H1499 H 0.11035 0.54712 0.06108 0.0
H1500 H 0.13275 0.46692 0.04289 0.0
H1501 H 0.12902 0.49543 0.05889 0.0
C1502 C 0.67591 0.86969 0.16462 0.0
C1503 C 0.66863 0.88232 0.19665 0.0
C1504 C 0.69135 0.86998 0.15437 0.0
C1505 C 0.72643 0.88607 0.21631 0.0
H1506 H 0.74089 0.8808 0.03345 0.0
C1507 C 0.78879 0.896 0.14528 0.0
C1508 C 0.7947 0.88808 0.08943 0.0
C1509 C 0.7736 0.89475 0.1615 0.0
C1510 C 0.73721 0.88195 0.08525 0.0
H1511 H 0.672 0.90499 0.24449 0.0
H1512 H 0.69907 0.90521 0.22858 0.0
H1513 H 0.71438 0.87922 0.05691 0.0
H1514 H 0.78963 0.87223 0.00822 0.0
H1515 H 0.76348 0.86907 0.03838 0.0
H1516 H 0.74918 0.88823 0.2456 0.0
C1517 C 0.69275 0.89518 0.21078 0.0
C1518 C 0.72191 0.88116 0.09846 0.0
C1519 C 0.67725 0.89507 0.21965 0.0
C1520 C 0.78528 0.87846 0.05147 0.0
C1521 C 0.77021 0.87688 0.06847 0.0
C1522 C 0.7418 0.88651 0.20344 0.0
C1523 C 0.69996 0.88274 0.17722 0.0
C1524 C 0.71631 0.88329 0.16402 0.0
C1525 C 0.76396 0.88529 0.12285 0.0
C1526 C 0.7475 0.88451 0.13753 0.0
H1527 H 0.66962 0.85978 0.14569 0.0
H1528 H 0.69659 0.86021 0.12851 0.0
H1529 H 0.72244 0.88765 0.26749 0.0
H1530 H 0.79582 0.90369 0.17461 0.0
H1531 H 0.76938 0.90165 0.20304 0.0
C1532 C 0.35552 0.44788 0.56379 0.0
C1533 C 0.3685 0.43901 0.57541 0.0
C1534 C 0.35644 0.464 0.54659 0.0
C1535 C 0.38178 0.49849 0.55224 0.0
H1536 H 0.35745 0.51496 0.40641 0.0
C1537 C 0.3921 0.56014 0.43229 0.0
C1538 C 0.37951 0.56956 0.41988 0.0
C1539 C 0.39053 0.54416 0.45058 0.0
C1540 C 0.36421 0.51057 0.44766 0.0
H1541 H 0.39261 0.44014 0.57865 0.0
H1542 H 0.39417 0.46809 0.54836 0.0
H1543 H 0.35479 0.48731 0.44253 0.0
H1544 H 0.3554 0.56954 0.41574 0.0
H1545 H 0.35269 0.54171 0.44798 0.0
H1546 H 0.39126 0.52171 0.55722 0.0
C1547 C 0.38328 0.46269 0.5533 0.0
C1548 C 0.36266 0.49475 0.46845 0.0
C1549 C 0.38237 0.44663 0.57035 0.0
C1550 C 0.36534 0.5626 0.42487 0.0
C1551 C 0.36377 0.54663 0.44304 0.0
C1552 C 0.38334 0.51429 0.53144 0.0
C1553 C 0.37035 0.47155 0.54087 0.0
C1554 C 0.37149 0.48852 0.52072 0.0
C1555 C 0.37634 0.53728 0.45673 0.0
C1556 C 0.37463 0.52048 0.47871 0.0
H1557 H 0.34467 0.44235 0.5673 0.0
H1558 H 0.34627 0.47057 0.53797 0.0
H1559 H 0.38858 0.4941 0.59337 0.0
H1560 H 0.40318 0.56514 0.42877 0.0
H1561 H 0.40043 0.53719 0.45989 0.0
C1562 C 0.78847 0.14281 0.87164 0.0
C1563 C 0.79442 0.12744 0.87831 0.0
C1564 C 0.7733 0.14504 0.85684 0.0
C1565 C 0.73714 0.12344 0.8683 0.0
H1566 H 0.72242 0.15672 0.74949 0.0
C1567 C 0.67645 0.12342 0.77822 0.0
C1568 C 0.66859 0.13785 0.7759 0.0
C1569 C 0.69181 0.12312 0.789 0.0
C1570 C 0.72633 0.14746 0.78338 0.0
H1571 H 0.7892 0.10245 0.87303 0.0
H1572 H 0.76307 0.10623 0.84623 0.0
H1573 H 0.74916 0.15449 0.7706 0.0
H1574 H 0.67101 0.16337 0.78177 0.0
H1575 H 0.69792 0.16284 0.80073 0.0
H1576 H 0.71446 0.11634 0.88114 0.0
C1577 C 0.7699 0.11663 0.8536 0.0
C1578 C 0.74169 0.14617 0.79552 0.0
C1579 C 0.78495 0.11443 0.86851 0.0
C1580 C 0.67666 0.15204 0.78318 0.0
C1581 C 0.69212 0.15173 0.79384 0.0
C1582 C 0.72187 0.1247 0.85611 0.0
C1583 C 0.76374 0.13194 0.84875 0.0
C1584 C 0.74734 0.13399 0.83748 0.0
C1585 C 0.69988 0.13723 0.79788 0.0
C1586 C 0.71622 0.13658 0.81279 0.0
H1587 H 0.79535 0.15308 0.8805 0.0
H1588 H 0.76898 0.15701 0.85415 0.0
H1589 H 0.74093 0.11417 0.90242 0.0
H1590 H 0.67071 0.11223 0.77245 0.0
H1591 H 0.69738 0.11174 0.79034 0.0
C1592 C 0.89181 0.5368 0.08506 0.0
C1593 C 0.88875 0.54711 0.0306 0.0
C1594 C 0.89367 0.52057 0.07509 0.0
C1595 C 0.90082 0.48967 0.94844 0.0
H1596 H 0.87879 0.46302 0.07513 0.0
C1597 C 0.90503 0.42044 0.96043 0.0
C1598 C 0.89146 0.41227 0.96769 0.0
C1599 C 0.90554 0.43703 0.96505 0.0
C1600 C 0.88498 0.47028 0.03919 0.0
H1601 H 0.88531 0.54841 0.92259 0.0
H1602 H 0.8888 0.51993 0.90472 0.0
H1603 H 0.87852 0.49168 0.08789 0.0
H1604 H 0.86776 0.41523 -0.01523 0.0
H1605 H 0.86871 0.44395 -0.00677 0.0
H1606 H 0.90715 0.46809 0.89952 0.0
C1607 C 0.88995 0.52453 0.95518 0.0
C1608 C 0.88494 0.48671 0.04687 0.0
C1609 C 0.88804 0.54086 0.96529 0.0
C1610 C 0.87843 0.42108 0.97914 0.0
C1611 C 0.87897 0.43757 0.9843 0.0
C1612 C 0.90098 0.47313 0.94112 0.0
C1613 C 0.89246 0.51416 0.01029 0.0
C1614 C 0.89282 0.49664 0.00158 0.0
C1615 C 0.89252 0.44575 0.97778 0.0
C1616 C 0.89295 0.46327 -0.01382 0.0
H1617 H 0.89246 0.5413 0.13587 0.0
H1618 H 0.89582 0.51296 0.11847 0.0
H1619 H 0.90705 0.49699 0.91293 0.0
H1620 H 0.91527 0.41402 0.95151 0.0
H1621 H 0.91617 0.44299 0.96019 0.0
C1622 C 0.22993 0.13763 0.85859 0.0
C1623 C 0.22391 0.12233 0.86721 0.0
C1624 C 0.245 0.1397 0.84125 0.0
C1625 C 0.27782 0.11812 0.77123 0.0
H1626 H 0.30087 0.15013 0.86229 0.0
C1627 C 0.34209 0.11713 0.77117 0.0
C1628 C 0.3499 0.13159 0.7675 0.0
C1629 C 0.3266 0.11686 0.7787 0.0
C1630 C 0.29459 0.14127 0.8356 0.0
H1631 H 0.22902 0.09728 0.86461 0.0
H1632 H 0.25514 0.1008 0.83483 0.0
H1633 H 0.27411 0.1483 0.88255 0.0
H1634 H 0.34731 0.15714 0.76817 0.0
H1635 H 0.32028 0.15668 0.78089 0.0
H1636 H 0.29825 0.11096 0.72482 0.0
C1637 C 0.24827 0.11125 0.84023 0.0
C1638 C 0.2792 0.14023 0.84723 0.0
C1639 C 0.23329 0.10921 0.85779 0.0
C1640 C 0.34172 0.14579 0.77102 0.0
C1641 C 0.32619 0.14552 0.77871 0.0
C1642 C 0.29317 0.11916 0.75962 0.0
C1643 C 0.2544 0.12652 0.83203 0.0
C1644 C 0.27061 0.12849 0.81593 0.0
C1645 C 0.31839 0.13104 0.78282 0.0
C1646 C 0.30184 0.1306 0.79232 0.0
H1647 H 0.22313 0.14799 0.86723 0.0
H1648 H 0.24929 0.15164 0.83521 0.0
H1649 H 0.27158 0.10913 0.74508 0.0
H1650 H 0.34797 0.10594 0.76895 0.0
H1651 H 0.32108 0.10547 0.78268 0.0
C1652 C 0.66102 0.56743 0.41804 0.0
C1653 C 0.64818 0.57635 0.404 0.0
C1654 C 0.65994 0.55127 0.43407 0.0
C1655 C 0.63341 0.52158 0.50045 0.0
H1656 H 0.66134 0.49115 0.42787 0.0
C1657 C 0.6256 0.45396 0.53441 0.0
C1658 C 0.63837 0.44483 0.54715 0.0
C1659 C 0.62683 0.47005 0.51745 0.0
C1660 C 0.65356 0.49953 0.44922 0.0
H1661 H 0.62421 0.57517 0.39361 0.0
H1662 H 0.62236 0.54703 0.42135 0.0
H1663 H 0.66355 0.5191 0.39584 0.0
H1664 H 0.66244 0.44551 0.55322 0.0
H1665 H 0.66456 0.4736 0.52466 0.0
H1666 H 0.62346 0.50206 0.55408 0.0
C1667 C 0.63322 0.55258 0.42107 0.0
C1668 C 0.65482 0.51553 0.43078 0.0
C1669 C 0.6343 0.5687 0.4049 0.0
C1670 C 0.65238 0.45219 0.54343 0.0
C1671 C 0.65361 0.46827 0.52661 0.0
C1672 C 0.63217 0.5056 0.51901 0.0
C1673 C 0.64601 0.54372 0.43649 0.0
C1674 C 0.64474 0.52672 0.45609 0.0
C1675 C 0.64086 0.47737 0.51298 0.0
C1676 C 0.64222 0.49438 0.49355 0.0
H1677 H 0.67188 0.57298 0.41785 0.0
H1678 H 0.66998 0.54478 0.4462 0.0
H1679 H 0.62562 0.52997 0.52166 0.0
H1680 H 0.61464 0.44863 0.53654 0.0
H1681 H 0.61681 0.47668 0.50649 0.0
C1682 C 0.34165 0.89061 0.18989 0.0
C1683 C 0.3497 0.87629 0.191 0.0
C1684 C 0.32619 0.89069 0.1821 0.0
C1685 C 0.29444 0.86644 0.12128 0.0
H1686 H 0.27116 0.89802 0.21501 0.0
C1687 C 0.22965 0.87079 0.09774 0.0
C1688 C 0.22386 0.88621 0.09021 0.0
C1689 C 0.24467 0.86842 0.1149 0.0
C1690 C 0.27747 0.88918 0.18797 0.0
H1691 H 0.34753 0.85075 0.18486 0.0
H1692 H 0.32047 0.85087 0.1719 0.0
H1693 H 0.29772 0.89596 0.23582 0.0
H1694 H 0.22935 0.91115 0.09477 0.0
H1695 H 0.25531 0.90711 0.12463 0.0
H1696 H 0.27409 0.85976 0.07315 0.0
C1697 C 0.3262 0.8621 0.17645 0.0
C1698 C 0.29278 0.88801 0.19986 0.0
C1699 C 0.34175 0.86201 0.18437 0.0
C1700 C 0.23342 0.89913 0.10069 0.0
C1701 C 0.24832 0.89679 0.11826 0.0
C1702 C 0.27907 0.86759 0.10948 0.0
C1703 C 0.31817 0.87646 0.17519 0.0
C1704 C 0.30159 0.87681 0.16588 0.0
C1705 C 0.25424 0.88141 0.12532 0.0
C1706 C 0.27039 0.87917 0.1418 0.0
H1707 H 0.34732 0.90187 0.19444 0.0
H1708 H 0.32054 0.90203 0.18018 0.0
H1709 H 0.3008 0.85775 0.09363 0.0
H1710 H 0.22272 0.86058 0.08838 0.0
H1711 H 0.24879 0.8564 0.11998 0.0
C1712 C 0.62281 0.97398 0.27647 0.0
C1713 C 0.62342 0.95822 0.29991 0.0
C1714 C 0.62307 0.98651 0.3221 0.0
C1715 C 0.63315 0.99571 0.49939 0.0
H1716 H 0.60886 0.033 0.46765 0.0
C1717 C 0.62398 0.04488 0.69789 0.0
C1718 C 0.62543 0.06048 0.67319 0.0
C1719 C 0.62378 0.03216 0.65319 0.0
C1720 C 0.61575 0.02267 0.47695 0.0
H1721 H 0.62591 0.94325 0.38891 0.0
H1722 H 0.62544 0.96483 0.46847 0.0
H1723 H 0.60838 0.01141 0.3871 0.0
H1724 H 0.62917 0.07493 0.58336 0.0
H1725 H 0.62826 0.0529 0.50533 0.0
H1726 H 0.64027 1.00696 0.58998 0.0
C1727 C 0.6248 0.96767 0.4151 0.0
C1728 C 0.61555 0.01033 0.43064 0.0
C1729 C 0.62469 0.95523 0.36954 0.0
C1730 C 0.62723 0.06311 0.60345 0.0
C1731 C 0.62687 0.05049 0.55886 0.0
C1732 C 0.63321 0.00798 0.54605 0.0
C1733 C 0.62401 0.98349 0.3921 0.0
C1734 C 0.62428 0.9967 0.44113 0.0
C1735 C 0.62503 0.0349 0.58315 0.0
C1736 C 0.62457 0.02161 0.53511 0.0
H1737 H 0.62212 0.97655 0.22288 0.0
H1738 H 0.62275 0.99855 0.30242 0.0
H1739 H 0.64024 0.98555 0.50859 0.0
H1740 H 0.6228 0.0426 0.75157 0.0
H1741 H 0.6224 0.02023 0.67322 0.0
C1742 C 0.18412 0.37093 0.86896 0.0
C1743 C 0.17859 0.38436 0.90195 0.0
C1744 C 0.19868 0.37071 0.84446 0.0
C1745 C 0.2357 0.38543 0.8619 0.0
H1746 H 0.23891 0.38316 0.66696 0.0
C1747 C 0.29154 0.39533 0.72306 0.0
C1748 C 0.29412 0.38716 0.66308 0.0
C1749 C 0.27766 0.39452 0.75482 0.0
C1750 C 0.23831 0.38347 0.7215 0.0
H1751 H 0.18412 0.40779 0.93802 0.0
H1752 H 0.2099 0.40713 0.8968 0.0
H1753 H 0.21453 0.38206 0.72082 0.0
H1754 H 0.28468 0.37161 0.58921 0.0
H1755 H 0.26056 0.36938 0.64612 0.0
H1756 H 0.25942 0.38623 0.86348 0.0
C1757 C 0.20281 0.39692 0.88942 0.0
C1758 C 0.22431 0.38298 0.75215 0.0
C1759 C 0.18811 0.39729 0.91273 0.0
C1760 C 0.28277 0.37801 0.63547 0.0
C1761 C 0.26897 0.37689 0.6679 0.0
C1762 C 0.24975 0.38558 0.83141 0.0
C1763 C 0.20805 0.38376 0.85383 0.0
C1764 C 0.22292 0.38403 0.82241 0.0
C1765 C 0.26616 0.38528 0.72769 0.0
C1766 C 0.25125 0.38469 0.76068 0.0
H1767 H 0.17702 0.36085 0.8594 0.0
H1768 H 0.20257 0.36046 0.81712 0.0
H1769 H 0.2348 0.38617 0.91632 0.0
H1770 H 0.30017 0.40264 0.74429 0.0
H1771 H 0.27589 0.40144 0.79975 0.0
C1772 C 0.85789 0.95065 0.0369 0.0
C1773 C 0.87125 0.94213 0.04351 0.0
C1774 C 0.85804 0.96696 0.02277 0.0
C1775 C 0.88207 1.00272 0.02825 0.0
H1776 H 0.85366 0.01984 0.90022 0.0
C1777 C 0.88516 0.06775 0.93114 0.0
C1778 C 0.87167 0.07606 0.92512 0.0
C1779 C 0.88524 0.05137 0.94398 0.0
C1780 C 0.86157 0.0153 0.93662 0.0
H1781 H 0.89528 0.9442 0.04092 0.0
H1782 H 0.89555 0.97261 0.01596 0.0
H1783 H 0.85351 0.99155 0.92719 0.0
H1784 H 0.84767 0.07356 0.92722 0.0
H1785 H 0.84782 0.04508 0.95001 0.0
H1786 H 0.89012 0.02648 0.03779 0.0
C1787 C 0.88493 0.96671 0.0224 0.0
C1788 C 0.86148 0.99905 0.95216 0.0
C1789 C 0.88477 0.95038 0.03647 0.0
C1790 C 0.85827 0.06755 0.93127 0.0
C1791 C 0.85835 0.05117 0.94406 0.0
C1792 C 0.88216 0.01897 0.01272 0.0
C1793 C 0.87156 0.97521 0.01491 0.0
C1794 C 0.87171 0.99254 -0.00171 0.0
C1795 C 0.87184 0.04287 0.95109 0.0
C1796 C 0.8719 0.0255 0.96678 0.0
H1797 H 0.84726 0.9447 0.04213 0.0
H1798 H 0.84754 0.97314 0.01839 0.0
H1799 H 0.88997 0.99817 0.06471 0.0
H1800 H 0.89569 0.07391 0.92664 0.0
H1801 H 0.89583 0.04535 0.94809 0.0
C1802 C 0.20205 0.64495 0.12463 0.0
C1803 C 0.202 0.64688 0.05418 0.0
C1804 C 0.21539 0.64411 0.15962 0.0
C1805 C 0.25587 0.65151 0.14249 0.0
H1806 H 0.25785 0.62175 0.29337 0.0
C1807 C 0.3104 0.62892 0.26057 0.0
C1808 C 0.31129 0.6294 0.3312 0.0
C1809 C 0.29707 0.63237 0.22818 0.0
C1810 C 0.25738 0.63023 0.25184 0.0
H1811 H 0.21577 0.64879 0.9646 0.0
H1812 H 0.23928 0.64668 0.02542 0.0
H1813 H 0.23462 0.62504 0.23258 0.0
H1814 H 0.29899 0.633 0.42377 0.0
H1815 H 0.27536 0.63876 0.367 0.0
H1816 H 0.27891 0.65614 0.16066 0.0
C1817 C 0.22898 0.64649 0.05401 0.0
C1818 C 0.24408 0.63217 0.21708 0.0
C1819 C 0.21558 0.64756 0.01908 0.0
C1820 C 0.29853 0.63285 0.36918 0.0
C1821 C 0.28511 0.6361 0.33684 0.0
C1822 C 0.26924 0.64939 0.17677 0.0
C1823 C 0.22902 0.64469 0.12474 0.0
C1824 C 0.24316 0.64284 0.16199 0.0
C1825 C 0.28431 0.63593 0.26607 0.0
C1826 C 0.27008 0.63873 0.23163 0.0
H1827 H 0.19178 0.64362 0.15276 0.0
H1828 H 0.21498 0.64285 0.21407 0.0
H1829 H 0.25548 0.65999 0.10099 0.0
H1830 H 0.31997 0.62558 0.23058 0.0
H1831 H 0.29662 0.63181 0.17363 0.0
C1832 C 0.39388 0.96947 0.26918 0.0
C1833 C 0.39245 0.95381 0.29316 0.0
C1834 C 0.39395 0.98209 0.31439 0.0
C1835 C 0.38386 0.99219 0.49146 0.0
H1836 H 0.41077 0.02749 0.46008 0.0
C1837 C 0.39566 0.04016 0.69123 0.0
C1838 C 0.39514 0.05588 0.66723 0.0
C1839 C 0.39539 0.02755 0.64601 0.0
C1840 C 0.40316 0.01773 0.46928 0.0
H1841 H 0.38874 0.93914 0.38227 0.0
H1842 H 0.38969 0.96085 0.46124 0.0
H1843 H 0.4099 1.00598 0.37917 0.0
H1844 H 0.39267 0.0707 0.57768 0.0
H1845 H 0.39281 0.04884 0.49885 0.0
H1846 H 0.37737 1.00389 0.58234 0.0
C1847 C 0.39074 0.96355 0.40783 0.0
C1848 C 0.40258 1.00545 0.42274 0.0
C1849 C 0.39054 0.95103 0.36269 0.0
C1850 C 0.39393 0.05876 0.59744 0.0
C1851 C 0.39384 0.04623 0.55232 0.0
C1852 C 0.38458 1.00439 0.53834 0.0
C1853 C 0.3925 0.97925 0.38442 0.0
C1854 C 0.39291 0.99252 0.43318 0.0
C1855 C 0.39458 0.0305 0.57605 0.0
C1856 C 0.3942 0.01729 0.52761 0.0
H1857 H 0.3951 0.97187 0.2156 0.0
H1858 H 0.39502 0.99405 0.2944 0.0
H1859 H 0.37607 0.9826 0.50062 0.0
H1860 H 0.39636 0.03768 0.74489 0.0
H1861 H 0.39595 0.01551 0.66561 0.0
C1862 C 0.83053 0.64341 0.06674 0.0
C1863 C 0.83805 0.62892 0.05959 0.0
C1864 C 0.81575 0.64369 0.08852 0.0
C1865 C 0.78222 0.61879 0.11384 0.0
H1866 H 0.77368 0.64802 0.25849 0.0
C1867 C 0.7319 0.61106 0.29112 0.0
C1868 C 0.72394 0.62466 0.30921 0.0
C1869 C 0.7452 0.61238 0.25495 0.0
C1870 C 0.7758 0.63996 0.21744 0.0
H1871 H 0.83575 0.60333 0.06675 0.0
H1872 H 0.81 0.60383 0.1052 0.0
H1873 H 0.79781 0.64893 0.20214 0.0
H1874 H 0.7239 0.65032 0.3068 0.0
H1875 H 0.74708 0.65274 0.24223 0.0
H1876 H 0.76029 0.60963 0.1301 0.0
C1877 C 0.81549 0.61498 0.09349 0.0
C1878 C 0.78962 0.64049 0.18508 0.0
C1879 C 0.83028 0.61469 0.07176 0.0
C1880 C 0.72965 0.63966 0.29182 0.0
C1881 C 0.74299 0.64102 0.25566 0.0
C1882 C 0.7684 0.61827 0.1462 0.0
C1883 C 0.80817 0.62949 0.10349 0.0
C1884 C 0.79305 0.62977 0.13356 0.0
C1885 C 0.75086 0.62738 0.23654 0.0
C1886 C 0.76512 0.62869 0.19901 0.0
H1887 H 0.83617 0.65459 0.05736 0.0
H1888 H 0.81032 0.65505 0.09477 0.0
H1889 H 0.78447 0.61054 0.07366 0.0
H1890 H 0.72771 0.59937 0.30436 0.0
H1891 H 0.75114 0.60166 0.24214 0.0
C1892 C 0.13265 0.06424 0.93028 0.0
C1893 C 0.14614 0.0725 0.922 0.0
C1894 C 0.13258 0.04789 0.94407 0.0
C1895 C 0.15624 0.01183 0.93515 0.0
H1896 H 0.12837 0.99486 0.06762 0.0
C1897 C 0.16043 0.94732 0.03625 0.0
C1898 C 0.14709 0.93876 0.04394 0.0
C1899 C 0.16022 0.96366 0.02254 0.0
C1900 C 0.13613 0.99937 0.02999 0.0
H1901 H 0.17014 0.06994 0.92124 0.0
H1902 H 0.17 0.04158 0.94568 0.0
H1903 H 0.12801 0.02312 0.03945 0.0
H1904 H 0.12305 0.9408 0.04409 0.0
H1905 H 0.1227 0.96922 0.01995 0.0
H1906 H 0.16438 0.9881 0.92576 0.0
C1907 C 0.15945 0.04766 0.94073 0.0
C1908 C 0.13591 0.01559 0.01373 0.0
C1909 C 0.15953 0.06398 0.92701 0.0
C1910 C 0.13355 0.94701 0.03877 0.0
C1911 C 0.13334 0.96334 0.02515 0.0
C1912 C 0.15647 0.99563 0.95145 0.0
C1913 C 0.14599 0.03939 0.94984 0.0
C1914 C 0.14599 0.02205 0.96618 0.0
C1915 C 0.14667 0.97187 0.01622 0.0
C1916 C 0.14644 0.98917 -0.00081 0.0
H1917 H 0.12212 0.07042 0.92677 0.0
H1918 H 0.12199 0.0419 0.94989 0.0
H1919 H 0.16401 0.01632 0.8975 0.0
H1920 H 0.17107 0.94138 0.04 0.0
H1921 H 0.17071 0.96987 0.017 0.0
C1922 C 0.71075 0.39431 0.69149 0.0
C1923 C 0.70779 0.38665 0.63077 0.0
C1924 C 0.72407 0.39155 0.72506 0.0
C1925 C 0.75294 0.36261 0.75237 0.0
H1926 H 0.77757 0.39853 0.79967 0.0
C1927 C 0.80285 0.36053 0.93808 0.0
C1928 C 0.81599 0.36696 0.91101 0.0
C1929 C 0.78951 0.3621 0.90276 0.0
C1930 C 0.77077 0.38842 0.78672 0.0
H1931 H 0.71605 0.37023 0.55676 0.0
H1932 H 0.73951 0.36502 0.61663 0.0
H1933 H 0.75434 0.40298 0.73872 0.0
H1934 H 0.82574 0.38034 0.82799 0.0
H1935 H 0.80237 0.38336 0.7665 0.0
H1936 H 0.76931 0.34808 0.80158 0.0
C1937 C 0.73152 0.37319 0.63792 0.0
C1938 C 0.75753 0.39096 0.7522 0.0
C1939 C 0.71827 0.3762 0.60367 0.0
C1940 C 0.81569 0.37509 0.84884 0.0
C1941 C 0.80238 0.3769 0.81416 0.0
C1942 C 0.76608 0.36008 0.78808 0.0
C1943 C 0.73451 0.3809 0.69873 0.0
C1944 C 0.74856 0.37808 0.73455 0.0
C1945 C 0.7892 0.37045 0.84092 0.0
C1946 C 0.77511 0.37298 0.80507 0.0
H1947 H 0.70276 0.40251 0.71251 0.0
H1948 H 0.72616 0.39759 0.77198 0.0
H1949 H 0.74609 0.35254 0.7395 0.0
H1950 H 0.80297 0.35432 -0.01371 0.0
H1951 H 0.77941 0.35715 0.92438 0.0
loop_
_geom_bond_atom_site_label_1
_geom_bond_atom_site_label_2
_geom_bond_distance
_geom_bond_site_symmetry_2
_ccdc_geom_bond_type
Zn0 O1 2.055 1_554 S
Zn0 O8 2.046 . S
Zn0 N16 2.036 . S
Zn0 O28 2.053 . S
Zn0 O30 2.066 . S
O1 Zn0 2.055 1_556 S
O1 C4 1.259 . S
C2 O30 1.256 . S
C2 O31 1.244 . S
Zn3 O5 2.046 1_554 S
Zn3 O7 2.055 . S
Zn3 N9 2.036 . S
Zn3 O27 2.066 . S
Zn3 O31 2.053 . S
C4 O1 1.259 . S
C4 O5 1.254 . S
O5 Zn3 2.046 1_556 S
O5 C4 1.254 . S
C6 O27 1.256 . S
C6 O28 1.244 . S
O7 Zn3 2.055 . S
O7 C29 1.259 . S
O8 Zn0 2.046 . S
O8 C29 1.254 . S
N9 Zn3 2.036 . S
N9 C10 1.298 . S
N9 N12 1.398 . S
C10 N9 1.298 . S
C10 N13 1.367 . S
C10 C23 1.481 . S
C11 N12 1.299 . S
C11 N13 1.379 . S
N12 N9 1.398 . S
N12 C11 1.299 . S
N13 C10 1.367 . S
N13 C11 1.379 . S
C14 N16 1.298 . S
C14 N18 1.367 . S
C14 C22 1.481 1_554 S
C15 N17 1.299 . S
C15 N18 1.379 . S
N16 Zn0 2.036 . S
N16 C14 1.298 . S
N16 N17 1.398 . S
N17 C15 1.299 . S
N17 N16 1.398 . S
N18 C14 1.367 . S
N18 C15 1.379 . S
H19 C22 0.980 . S
H20 C22 0.981 . S
H21 C22 0.981 . S
C22 C14 1.481 1_556 S
C22 H19 0.980 . S
C22 H20 0.981 . S
C22 H21 0.981 . S
C23 C10 1.481 . S
C23 H24 0.980 . S
C23 H25 0.981 . S
C23 H26 0.981 . S
H24 C23 0.980 . S
H25 C23 0.981 . S
H26 C23 0.981 . S
O27 Zn3 2.066 . S
O27 C6 1.256 . S
O28 Zn0 2.053 . S
O28 C6 1.244 . S
C29 O7 1.259 . S
C29 O8 1.254 . S
O30 Zn0 2.066 . S
O30 C2 1.256 . S
O31 C2 1.244 . S
O31 Zn3 2.053 . S
Zn32 O33 2.055 . S
Zn32 O40 2.046 . S
Zn32 N48 2.036 . S
Zn32 O60 2.053 . S
Zn32 O62 2.066 . S
O33 Zn32 2.055 . S
O33 C36 1.259 . S
C34 O62 1.256 . S
C34 O63 1.244 . S
Zn35 O37 2.046 . S
Zn35 O39 2.055 . S
Zn35 N41 2.036 . S
Zn35 O59 2.066 . S
Zn35 O63 2.053 . S
C36 O33 1.259 . S
C36 O37 1.254 . S
O37 Zn35 2.046 . S
O37 C36 1.254 . S
C38 O59 1.256 . S
C38 O60 1.244 . S
O39 Zn35 2.055 . S
O39 C61 1.259 . S
O40 Zn32 2.046 . S
O40 C61 1.254 . S
N41 Zn35 2.036 . S
N41 C42 1.298 . S
N41 N44 1.398 . S
C42 N41 1.298 . S
C42 N45 1.367 . S
C42 C55 1.481 . S
C43 N44 1.299 . S
C43 N45 1.379 . S
N44 N41 1.398 . S
N44 C43 1.299 . S
N45 C42 1.367 . S
N45 C43 1.379 . S
C46 N48 1.298 . S
C46 N50 1.367 . S
C46 C54 1.481 . S
C47 N49 1.299 . S
C47 N50 1.379 . S
N48 Zn32 2.036 . S
N48 C46 1.298 . S
N48 N49 1.398 . S
N49 C47 1.299 . S
N49 N48 1.398 . S
N50 C46 1.367 . S
N50 C47 1.379 . S
H51 C54 0.980 . S
H52 C54 0.981 . S
H53 C54 0.981 . S
C54 C46 1.481 . S
C54 H51 0.980 . S
C54 H52 0.981 . S
C54 H53 0.981 . S
C55 C42 1.481 . S
C55 H56 0.980 . S
C55 H57 0.981 . S
C55 H58 0.981 . S
H56 C55 0.980 . S
H57 C55 0.981 . S
H58 C55 0.981 . S
O59 Zn35 2.066 . S
O59 C38 1.256 . S
O60 Zn32 2.053 . S
O60 C38 1.244 . S
C61 O39 1.259 . S
C61 O40 1.254 . S
O62 Zn32 2.066 . S
O62 C34 1.256 . S
O63 C34 1.244 . S
O63 Zn35 2.053 . S
Zn64 O65 2.055 . S
Zn64 O72 2.046 . S
Zn64 N80 2.036 . S
Zn64 O92 2.053 . S
Zn64 O94 2.066 . S
O65 Zn64 2.055 . S
O65 C68 1.259 . S
C66 O94 1.256 . S
C66 O95 1.244 . S
Zn67 O69 2.046 . S
Zn67 O71 2.055 . S
Zn67 N73 2.036 . S
Zn67 O91 2.066 . S
Zn67 O95 2.053 . S
C68 O65 1.259 . S
C68 O69 1.254 . S
O69 Zn67 2.046 . S
O69 C68 1.254 . S
C70 O91 1.256 . S
C70 O92 1.244 . S
O71 Zn67 2.055 . S
O71 C93 1.259 . S
O72 Zn64 2.046 . S
O72 C93 1.254 . S
N73 Zn67 2.036 . S
N73 C74 1.298 . S
N73 N76 1.398 . S
C74 N73 1.298 . S
C74 N77 1.367 . S
C74 C87 1.481 . S
C75 N76 1.299 . S
C75 N77 1.379 . S
N76 N73 1.398 . S
N76 C75 1.299 . S
N77 C74 1.367 . S
N77 C75 1.379 . S
C78 N80 1.298 . S
C78 N82 1.367 . S
C78 C86 1.481 . S
C79 N81 1.299 . S
C79 N82 1.379 . S
N80 Zn64 2.036 . S
N80 C78 1.298 . S
N80 N81 1.398 . S
N81 C79 1.299 . S
N81 N80 1.398 . S
N82 C78 1.367 . S
N82 C79 1.379 . S
H83 C86 0.980 . S
H84 C86 0.981 . S
H85 C86 0.981 . S
C86 C78 1.481 . S
C86 H83 0.980 . S
C86 H84 0.981 . S
C86 H85 0.981 . S
C87 C74 1.481 . S
C87 H88 0.980 . S
C87 H89 0.981 . S
C87 H90 0.981 . S
H88 C87 0.980 . S
H89 C87 0.981 . S
H90 C87 0.981 . S
O91 Zn67 2.066 . S
O91 C70 1.256 . S
O92 Zn64 2.053 . S
O92 C70 1.244 . S
C93 O71 1.259 . S
C93 O72 1.254 . S
O94 Zn64 2.066 . S
O94 C66 1.256 . S
O95 C66 1.244 . S
O95 Zn67 2.053 . S
Zn96 O97 2.055 . S
Zn96 O104 2.046 1_556 S
Zn96 N112 2.036 . S
Zn96 O124 2.053 . S
Zn96 O126 2.066 . S
O97 Zn96 2.055 . S
O97 C100 1.259 . S
C98 O126 1.256 . S
C98 O127 1.244 . S
Zn99 O101 2.046 . S
Zn99 O103 2.055 1_556 S
Zn99 N105 2.036 . S
Zn99 O123 2.066 . S
Zn99 O127 2.053 . S
C100 O97 1.259 . S
C100 O101 1.254 . S
O101 Zn99 2.046 . S
O101 C100 1.254 . S
C102 O123 1.256 . S
C102 O124 1.244 . S
O103 Zn99 2.055 1_554 S
O103 C125 1.259 . S
O104 Zn96 2.046 1_554 S
O104 C125 1.254 . S
N105 Zn99 2.036 . S
N105 C106 1.298 . S
N105 N108 1.398 . S
C106 N105 1.298 . S
C106 N109 1.367 . S
C106 C119 1.481 1_556 S
C107 N108 1.299 . S
C107 N109 1.379 . S
N108 N105 1.398 . S
N108 C107 1.299 . S
N109 C106 1.367 . S
N109 C107 1.379 . S
C110 N112 1.298 . S
C110 N114 1.367 . S
C110 C118 1.481 . S
C111 N113 1.299 . S
C111 N114 1.379 . S
N112 Zn96 2.036 . S
N112 C110 1.298 . S
N112 N113 1.398 . S
N113 C111 1.299 . S
N113 N112 1.398 . S
N114 C110 1.367 . S
N114 C111 1.379 . S
H115 C118 0.980 . S
H116 C118 0.981 . S
H117 C118 0.981 . S
C118 C110 1.481 . S
C118 H115 0.980 . S
C118 H116 0.981 . S
C118 H117 0.981 . S
C119 C106 1.481 1_554 S
C119 H120 0.980 . S
C119 H121 0.981 . S
C119 H122 0.981 . S
H120 C119 0.980 . S
H121 C119 0.981 . S
H122 C119 0.981 . S
O123 Zn99 2.066 . S
O123 C102 1.256 . S
O124 Zn96 2.053 . S
O124 C102 1.244 . S
C125 O103 1.259 . S
C125 O104 1.254 . S
O126 Zn96 2.066 . S
O126 C98 1.256 . S
O127 C98 1.244 . S
O127 Zn99 2.053 . S
Zn128 O129 2.055 . S
Zn128 O136 2.046 . S
Zn128 N144 2.036 . S
Zn128 O156 2.053 . S
Zn128 O158 2.066 . S
O129 Zn128 2.055 . S
O129 C132 1.259 . S
C130 O158 1.256 . S
C130 O159 1.244 . S
Zn131 O133 2.046 . S
Zn131 O135 2.055 . S
Zn131 N137 2.036 . S
Zn131 O155 2.066 . S
Zn131 O159 2.053 . S
C132 O129 1.259 . S
C132 O133 1.254 . S
O133 Zn131 2.046 . S
O133 C132 1.254 . S
C134 O155 1.256 . S
C134 O156 1.244 . S
O135 Zn131 2.055 . S
O135 C157 1.259 . S
O136 Zn128 2.046 . S
O136 C157 1.254 . S
N137 Zn131 2.036 . S
N137 C138 1.298 . S
N137 N140 1.398 . S
C138 N137 1.298 . S
C138 N141 1.367 . S
C138 C151 1.481 . S
C139 N140 1.299 . S
C139 N141 1.379 . S
N140 N137 1.398 . S
N140 C139 1.299 . S
N141 C138 1.367 . S
N141 C139 1.379 . S
C142 N144 1.298 . S
C142 N146 1.367 . S
C142 C150 1.481 . S
C143 N145 1.299 . S
C143 N146 1.379 . S
N144 Zn128 2.036 . S
N144 C142 1.298 . S
N144 N145 1.398 . S
N145 C143 1.299 . S
N145 N144 1.398 . S
N146 C142 1.367 . S
N146 C143 1.379 . S
H147 C150 0.980 . S
H148 C150 0.981 . S
H149 C150 0.981 . S
C150 C142 1.481 . S
C150 H147 0.980 . S
C150 H148 0.981 . S
C150 H149 0.981 . S
C151 C138 1.481 . S
C151 H152 0.980 . S
C151 H153 0.981 . S
C151 H154 0.981 . S
H152 C151 0.980 . S
H153 C151 0.981 . S
H154 C151 0.981 . S
O155 Zn131 2.066 . S
O155 C134 1.256 . S
O156 Zn128 2.053 . S
O156 C134 1.244 . S
C157 O135 1.259 . S
C157 O136 1.254 . S
O158 Zn128 2.066 . S
O158 C130 1.256 . S
O159 C130 1.244 . S
O159 Zn131 2.053 . S
Zn160 O161 2.055 . S
Zn160 O168 2.046 1_554 S
Zn160 N176 2.036 . S
Zn160 O188 2.053 . S
Zn160 O190 2.066 . S
O161 Zn160 2.055 . S
O161 C164 1.259 . S
C162 O190 1.256 . S
C162 O191 1.244 . S
Zn163 O165 2.046 . S
Zn163 O167 2.055 1_554 S
Zn163 N169 2.036 . S
Zn163 O187 2.066 . S
Zn163 O191 2.053 . S
C164 O161 1.259 . S
C164 O165 1.254 . S
O165 Zn163 2.046 . S
O165 C164 1.254 . S
C166 O187 1.256 . S
C166 O188 1.244 . S
O167 Zn163 2.055 1_556 S
O167 C189 1.259 . S
O168 Zn160 2.046 1_556 S
O168 C189 1.254 . S
N169 Zn163 2.036 . S
N169 C170 1.298 . S
N169 N172 1.398 . S
C170 N169 1.298 . S
C170 N173 1.367 . S
C170 C183 1.481 1_554 S
C171 N172 1.299 . S
C171 N173 1.379 . S
N172 N169 1.398 . S
N172 C171 1.299 . S
N173 C170 1.367 . S
N173 C171 1.379 . S
C174 N176 1.298 . S
C174 N178 1.367 . S
C174 C182 1.481 . S
C175 N177 1.299 . S
C175 N178 1.379 . S
N176 Zn160 2.036 . S
N176 C174 1.298 . S
N176 N177 1.398 . S
N177 C175 1.299 . S
N177 N176 1.398 . S
N178 C174 1.367 . S
N178 C175 1.379 . S
H179 C182 0.980 . S
H180 C182 0.981 . S
H181 C182 0.981 . S
C182 C174 1.481 . S
C182 H179 0.980 . S
C182 H180 0.981 . S
C182 H181 0.981 . S
C183 C170 1.481 1_556 S
C183 H184 0.980 . S
C183 H185 0.981 . S
C183 H186 0.981 . S
H184 C183 0.980 . S
H185 C183 0.981 . S
H186 C183 0.981 . S
O187 Zn163 2.066 . S
O187 C166 1.256 . S
O188 Zn160 2.053 . S
O188 C166 1.244 . S
C189 O167 1.259 . S
C189 O168 1.254 . S
O190 Zn160 2.066 . S
O190 C162 1.256 . S
O191 C162 1.244 . S
O191 Zn163 2.053 . S
Zn192 O193 2.055 . S
Zn192 O200 2.046 . S
Zn192 N208 2.036 . S
Zn192 O220 2.053 . S
Zn192 O222 2.066 . S
O193 Zn192 2.055 . S
O193 C196 1.259 . S
C194 O222 1.256 . S
C194 O223 1.244 . S
Zn195 O197 2.046 . S
Zn195 O199 2.055 . S
Zn195 N201 2.036 . S
Zn195 O219 2.066 . S
Zn195 O223 2.053 . S
C196 O193 1.259 . S
C196 O197 1.254 . S
O197 Zn195 2.046 . S
O197 C196 1.254 . S
C198 O219 1.256 . S
C198 O220 1.244 . S
O199 Zn195 2.055 . S
O199 C221 1.259 . S
O200 Zn192 2.046 . S
O200 C221 1.254 . S
N201 Zn195 2.036 . S
N201 C202 1.298 . S
N201 N204 1.398 . S
C202 N201 1.298 . S
C202 N205 1.367 . S
C202 C215 1.481 . S
C203 N204 1.299 . S
C203 N205 1.379 . S
N204 N201 1.398 . S
N204 C203 1.299 . S
N205 C202 1.367 . S
N205 C203 1.379 . S
C206 N208 1.298 . S
C206 N210 1.367 . S
C206 C214 1.481 . S
C207 N209 1.299 . S
C207 N210 1.379 . S
N208 Zn192 2.036 . S
N208 C206 1.298 . S
N208 N209 1.398 . S
N209 C207 1.299 . S
N209 N208 1.398 . S
N210 C206 1.367 . S
N210 C207 1.379 . S
H211 C214 0.980 . S
H212 C214 0.981 . S
H213 C214 0.981 . S
C214 C206 1.481 . S
C214 H211 0.980 . S
C214 H212 0.981 . S
C214 H213 0.981 . S
C215 C202 1.481 . S
C215 H216 0.980 . S
C215 H217 0.981 . S
C215 H218 0.981 . S
H216 C215 0.980 . S
H217 C215 0.981 . S
H218 C215 0.981 . S
O219 Zn195 2.066 . S
O219 C198 1.256 . S
O220 Zn192 2.053 . S
O220 C198 1.244 . S
C221 O199 1.259 . S
C221 O200 1.254 . S
O222 Zn192 2.066 . S
O222 C194 1.256 . S
O223 C194 1.244 . S
O223 Zn195 2.053 . S
Zn224 O225 2.055 . S
Zn224 O232 2.046 . S
Zn224 N240 2.036 . S
Zn224 O252 2.053 . S
Zn224 O254 2.066 . S
O225 Zn224 2.055 . S
O225 C228 1.259 . S
C226 O254 1.256 . S
C226 O255 1.244 . S
Zn227 O229 2.046 . S
Zn227 O231 2.055 . S
Zn227 N233 2.036 . S
Zn227 O251 2.066 . S
Zn227 O255 2.053 . S
C228 O225 1.259 . S
C228 O229 1.254 . S
O229 Zn227 2.046 . S
O229 C228 1.254 . S
C230 O251 1.256 . S
C230 O252 1.244 . S
O231 Zn227 2.055 . S
O231 C253 1.259 . S
O232 Zn224 2.046 . S
O232 C253 1.254 . S
N233 Zn227 2.036 . S
N233 C234 1.298 . S
N233 N236 1.398 . S
C234 N233 1.298 . S
C234 N237 1.367 . S
C234 C247 1.481 . S
C235 N236 1.299 . S
C235 N237 1.379 . S
N236 N233 1.398 . S
N236 C235 1.299 . S
N237 C234 1.367 . S
N237 C235 1.379 . S
C238 N240 1.298 . S
C238 N242 1.367 . S
C238 C246 1.481 . S
C239 N241 1.299 . S
C239 N242 1.379 . S
N240 Zn224 2.036 . S
N240 C238 1.298 . S
N240 N241 1.398 . S
N241 C239 1.299 . S
N241 N240 1.398 . S
N242 C238 1.367 . S
N242 C239 1.379 . S
H243 C246 0.980 . S
H244 C246 0.981 . S
H245 C246 0.981 . S
C246 C238 1.481 . S
C246 H243 0.980 . S
C246 H244 0.981 . S
C246 H245 0.981 . S
C247 C234 1.481 . S
C247 H248 0.980 . S
C247 H249 0.981 . S
C247 H250 0.981 . S
H248 C247 0.980 . S
H249 C247 0.981 . S
H250 C247 0.981 . S
O251 Zn227 2.066 . S
O251 C230 1.256 . S
O252 Zn224 2.053 . S
O252 C230 1.244 . S
C253 O231 1.259 . S
C253 O232 1.254 . S
O254 Zn224 2.066 . S
O254 C226 1.256 . S
O255 C226 1.244 . S
O255 Zn227 2.053 . S
Zn256 O257 2.055 1_556 S
Zn256 O264 2.046 . S
Zn256 N272 2.036 . S
Zn256 O284 2.053 . S
Zn256 O286 2.066 . S
O257 Zn256 2.055 1_554 S
O257 C260 1.259 . S
C258 O286 1.256 . S
C258 O287 1.244 . S
Zn259 O261 2.046 1_556 S
Zn259 O263 2.055 . S
Zn259 N265 2.036 . S
Zn259 O283 2.066 . S
Zn259 O287 2.053 . S
C260 O257 1.259 . S
C260 O261 1.254 . S
O261 Zn259 2.046 1_554 S
O261 C260 1.254 . S
C262 O283 1.256 . S
C262 O284 1.244 . S
O263 Zn259 2.055 . S
O263 C285 1.259 . S
O264 Zn256 2.046 . S
O264 C285 1.254 . S
N265 Zn259 2.036 . S
N265 C266 1.298 . S
N265 N268 1.398 . S
C266 N265 1.298 . S
C266 N269 1.367 . S
C266 C279 1.481 . S
C267 N268 1.299 . S
C267 N269 1.379 . S
N268 N265 1.398 . S
N268 C267 1.299 . S
N269 C266 1.367 . S
N269 C267 1.379 . S
C270 N272 1.298 . S
C270 N274 1.367 . S
C270 C278 1.481 1_556 S
C271 N273 1.299 . S
C271 N274 1.379 . S
N272 Zn256 2.036 . S
N272 C270 1.298 . S
N272 N273 1.398 . S
N273 C271 1.299 . S
N273 N272 1.398 . S
N274 C270 1.367 . S
N274 C271 1.379 . S
H275 C278 0.980 . S
H276 C278 0.981 . S
H277 C278 0.981 . S
C278 C270 1.481 1_554 S
C278 H275 0.980 . S
C278 H276 0.981 . S
C278 H277 0.981 . S
C279 C266 1.481 . S
C279 H280 0.980 . S
C279 H281 0.981 . S
C279 H282 0.981 . S
H280 C279 0.980 . S
H281 C279 0.981 . S
H282 C279 0.981 . S
O283 Zn259 2.066 . S
O283 C262 1.256 . S
O284 Zn256 2.053 . S
O284 C262 1.244 . S
C285 O263 1.259 . S
C285 O264 1.254 . S
O286 Zn256 2.066 . S
O286 C258 1.256 . S
O287 C258 1.244 . S
O287 Zn259 2.053 . S
Zn288 O289 2.055 . S
Zn288 O296 2.046 . S
Zn288 N304 2.036 . S
Zn288 O316 2.053 . S
Zn288 O318 2.066 . S
O289 Zn288 2.055 . S
O289 C292 1.259 . S
C290 O318 1.256 . S
C290 O319 1.244 . S
Zn291 O293 2.046 . S
Zn291 O295 2.055 . S
Zn291 N297 2.036 . S
Zn291 O315 2.066 . S
Zn291 O319 2.053 . S
C292 O289 1.259 . S
C292 O293 1.254 . S
O293 Zn291 2.046 . S
O293 C292 1.254 . S
C294 O315 1.256 . S
C294 O316 1.244 . S
O295 Zn291 2.055 . S
O295 C317 1.259 . S
O296 Zn288 2.046 . S
O296 C317 1.254 . S
N297 Zn291 2.036 . S
N297 C298 1.298 . S
N297 N300 1.398 . S
C298 N297 1.298 . S
C298 N301 1.367 . S
C298 C311 1.481 . S
C299 N300 1.299 . S
C299 N301 1.379 . S
N300 N297 1.398 . S
N300 C299 1.299 . S
N301 C298 1.367 . S
N301 C299 1.379 . S
C302 N304 1.298 . S
C302 N306 1.367 . S
C302 C310 1.481 . S
C303 N305 1.299 . S
C303 N306 1.379 . S
N304 Zn288 2.036 . S
N304 C302 1.298 . S
N304 N305 1.398 . S
N305 C303 1.299 . S
N305 N304 1.398 . S
N306 C302 1.367 . S
N306 C303 1.379 . S
H307 C310 0.980 . S
H308 C310 0.981 . S
H309 C310 0.981 . S
C310 C302 1.481 . S
C310 H307 0.980 . S
C310 H308 0.981 . S
C310 H309 0.981 . S
C311 C298 1.481 . S
C311 H312 0.980 . S
C311 H313 0.981 . S
C311 H314 0.981 . S
H312 C311 0.980 . S
H313 C311 0.981 . S
H314 C311 0.981 . S
O315 Zn291 2.066 . S
O315 C294 1.256 . S
O316 Zn288 2.053 . S
O316 C294 1.244 . S
C317 O295 1.259 . S
C317 O296 1.254 . S
O318 Zn288 2.066 . S
O318 C290 1.256 . S
O319 C290 1.244 . S
O319 Zn291 2.053 . S
Zn320 O321 2.055 . S
Zn320 O328 2.046 . S
Zn320 N336 2.036 . S
Zn320 O348 2.053 . S
Zn320 O350 2.066 . S
O321 Zn320 2.055 . S
O321 C324 1.259 . S
C322 O350 1.256 . S
C322 O351 1.244 . S
Zn323 O325 2.046 . S
Zn323 O327 2.055 . S
Zn323 N329 2.036 . S
Zn323 O347 2.066 . S
Zn323 O351 2.053 . S
C324 O321 1.259 . S
C324 O325 1.254 . S
O325 Zn323 2.046 . S
O325 C324 1.254 . S
C326 O347 1.256 . S
C326 O348 1.244 . S
O327 Zn323 2.055 . S
O327 C349 1.259 . S
O328 Zn320 2.046 . S
O328 C349 1.254 . S
N329 Zn323 2.036 . S
N329 C330 1.298 . S
N329 N332 1.398 . S
C330 N329 1.298 . S
C330 N333 1.367 . S
C330 C343 1.481 . S
C331 N332 1.299 . S
C331 N333 1.379 . S
N332 N329 1.398 . S
N332 C331 1.299 . S
N333 C330 1.367 . S
N333 C331 1.379 . S
C334 N336 1.298 . S
C334 N338 1.367 . S
C334 C342 1.481 . S
C335 N337 1.299 . S
C335 N338 1.379 . S
N336 Zn320 2.036 . S
N336 C334 1.298 . S
N336 N337 1.398 . S
N337 C335 1.299 . S
N337 N336 1.398 . S
N338 C334 1.367 . S
N338 C335 1.379 . S
H339 C342 0.980 . S
H340 C342 0.981 . S
H341 C342 0.981 . S
C342 C334 1.481 . S
C342 H339 0.980 . S
C342 H340 0.981 . S
C342 H341 0.981 . S
C343 C330 1.481 . S
C343 H344 0.980 . S
C343 H345 0.981 . S
C343 H346 0.981 . S
H344 C343 0.980 . S
H345 C343 0.981 . S
H346 C343 0.981 . S
O347 Zn323 2.066 . S
O347 C326 1.256 . S
O348 Zn320 2.053 . S
O348 C326 1.244 . S
C349 O327 1.259 . S
C349 O328 1.254 . S
O350 Zn320 2.066 . S
O350 C322 1.256 . S
O351 C322 1.244 . S
O351 Zn323 2.053 . S
Zn352 O353 2.055 . S
Zn352 O360 2.046 1_554 S
Zn352 N368 2.036 . S
Zn352 O380 2.053 . S
Zn352 O382 2.066 . S
O353 Zn352 2.055 . S
O353 C356 1.259 . S
C354 O382 1.256 . S
C354 O383 1.244 . S
Zn355 O357 2.046 . S
Zn355 O359 2.055 1_554 S
Zn355 N361 2.036 . S
Zn355 O379 2.066 . S
Zn355 O383 2.053 . S
C356 O353 1.259 . S
C356 O357 1.254 . S
O357 Zn355 2.046 . S
O357 C356 1.254 . S
C358 O379 1.256 . S
C358 O380 1.244 . S
O359 Zn355 2.055 1_556 S
O359 C381 1.259 . S
O360 Zn352 2.046 1_556 S
O360 C381 1.254 . S
N361 Zn355 2.036 . S
N361 C362 1.298 . S
N361 N364 1.398 . S
C362 N361 1.298 . S
C362 N365 1.367 . S
C362 C375 1.481 1_554 S
C363 N364 1.299 . S
C363 N365 1.379 . S
N364 N361 1.398 . S
N364 C363 1.299 . S
N365 C362 1.367 . S
N365 C363 1.379 . S
C366 N368 1.298 . S
C366 N370 1.367 . S
C366 C374 1.481 . S
C367 N369 1.299 . S
C367 N370 1.379 . S
N368 Zn352 2.036 . S
N368 C366 1.298 . S
N368 N369 1.398 . S
N369 C367 1.299 . S
N369 N368 1.398 . S
N370 C366 1.367 . S
N370 C367 1.379 . S
H371 C374 0.980 . S
H372 C374 0.981 . S
H373 C374 0.981 . S
C374 C366 1.481 . S
C374 H371 0.980 . S
C374 H372 0.981 . S
C374 H373 0.981 . S
C375 C362 1.481 1_556 S
C375 H376 0.980 . S
C375 H377 0.981 . S
C375 H378 0.981 . S
H376 C375 0.980 . S
H377 C375 0.981 . S
H378 C375 0.981 . S
O379 Zn355 2.066 . S
O379 C358 1.256 . S
O380 Zn352 2.053 . S
O380 C358 1.244 . S
C381 O359 1.259 . S
C381 O360 1.254 . S
O382 Zn352 2.066 . S
O382 C354 1.256 . S
O383 C354 1.244 . S
O383 Zn355 2.053 . S
Zn384 O385 2.055 . S
Zn384 O392 2.046 . S
Zn384 N400 2.036 . S
Zn384 O412 2.053 . S
Zn384 O414 2.066 . S
O385 Zn384 2.055 . S
O385 C388 1.259 . S
C386 O414 1.256 . S
C386 O415 1.244 . S
Zn387 O389 2.046 . S
Zn387 O391 2.055 . S
Zn387 N393 2.036 . S
Zn387 O411 2.066 . S
Zn387 O415 2.053 . S
C388 O385 1.259 . S
C388 O389 1.254 . S
O389 Zn387 2.046 . S
O389 C388 1.254 . S
C390 O411 1.256 . S
C390 O412 1.244 . S
O391 Zn387 2.055 . S
O391 C413 1.259 . S
O392 Zn384 2.046 . S
O392 C413 1.254 . S
N393 Zn387 2.036 . S
N393 C394 1.298 . S
N393 N396 1.398 . S
C394 N393 1.298 . S
C394 N397 1.367 . S
C394 C407 1.481 . S
C395 N396 1.299 . S
C395 N397 1.379 . S
N396 N393 1.398 . S
N396 C395 1.299 . S
N397 C394 1.367 . S
N397 C395 1.379 . S
C398 N400 1.298 . S
C398 N402 1.367 . S
C398 C406 1.481 . S
C399 N401 1.299 . S
C399 N402 1.379 . S
N400 Zn384 2.036 . S
N400 C398 1.298 . S
N400 N401 1.398 . S
N401 C399 1.299 . S
N401 N400 1.398 . S
N402 C398 1.367 . S
N402 C399 1.379 . S
H403 C406 0.980 . S
H404 C406 0.981 . S
H405 C406 0.981 . S
C406 C398 1.481 . S
C406 H403 0.980 . S
C406 H404 0.981 . S
C406 H405 0.981 . S
C407 C394 1.481 . S
C407 H408 0.980 . S
C407 H409 0.981 . S
C407 H410 0.981 . S
H408 C407 0.980 . S
H409 C407 0.981 . S
H410 C407 0.981 . S
O411 Zn387 2.066 . S
O411 C390 1.256 . S
O412 Zn384 2.053 . S
O412 C390 1.244 . S
C413 O391 1.259 . S
C413 O392 1.254 . S
O414 Zn384 2.066 . S
O414 C386 1.256 . S
O415 C386 1.244 . S
O415 Zn387 2.053 . S
Zn416 O417 2.055 . S
Zn416 O424 2.046 1_556 S
Zn416 N432 2.036 . S
Zn416 O444 2.053 . S
Zn416 O446 2.066 . S
O417 Zn416 2.055 . S
O417 C420 1.259 . S
C418 O446 1.256 . S
C418 O447 1.244 . S
Zn419 O421 2.046 . S
Zn419 O423 2.055 1_556 S
Zn419 N425 2.036 . S
Zn419 O443 2.066 . S
Zn419 O447 2.053 . S
C420 O417 1.259 . S
C420 O421 1.254 . S
O421 Zn419 2.046 . S
O421 C420 1.254 . S
C422 O443 1.256 . S
C422 O444 1.244 . S
O423 Zn419 2.055 1_554 S
O423 C445 1.259 . S
O424 Zn416 2.046 1_554 S
O424 C445 1.254 . S
N425 Zn419 2.036 . S
N425 C426 1.298 . S
N425 N428 1.398 . S
C426 N425 1.298 . S
C426 N429 1.367 . S
C426 C439 1.481 1_556 S
C427 N428 1.299 . S
C427 N429 1.379 . S
N428 N425 1.398 . S
N428 C427 1.299 . S
N429 C426 1.367 . S
N429 C427 1.379 . S
C430 N432 1.298 . S
C430 N434 1.367 . S
C430 C438 1.481 . S
C431 N433 1.299 . S
C431 N434 1.379 . S
N432 Zn416 2.036 . S
N432 C430 1.298 . S
N432 N433 1.398 . S
N433 C431 1.299 . S
N433 N432 1.398 . S
N434 C430 1.367 . S
N434 C431 1.379 . S
H435 C438 0.980 . S
H436 C438 0.981 . S
H437 C438 0.981 . S
C438 C430 1.481 . S
C438 H435 0.980 . S
C438 H436 0.981 . S
C438 H437 0.981 . S
C439 C426 1.481 1_554 S
C439 H440 0.980 . S
C439 H441 0.981 . S
C439 H442 0.981 . S
H440 C439 0.980 . S
H441 C439 0.981 . S
H442 C439 0.981 . S
O443 Zn419 2.066 . S
O443 C422 1.256 . S
O444 Zn416 2.053 . S
O444 C422 1.244 . S
C445 O423 1.259 . S
C445 O424 1.254 . S
O446 Zn416 2.066 . S
O446 C418 1.256 . S
O447 C418 1.244 . S
O447 Zn419 2.053 . S
Zn448 O449 2.055 . S
Zn448 O456 2.046 . S
Zn448 N464 2.036 . S
Zn448 O476 2.053 . S
Zn448 O478 2.066 . S
O449 Zn448 2.055 . S
O449 C452 1.259 . S
C450 O478 1.256 . S
C450 O479 1.244 . S
Zn451 O453 2.046 . S
Zn451 O455 2.055 . S
Zn451 N457 2.036 . S
Zn451 O475 2.066 . S
Zn451 O479 2.053 . S
C452 O449 1.259 . S
C452 O453 1.254 . S
O453 Zn451 2.046 . S
O453 C452 1.254 . S
C454 O475 1.256 . S
C454 O476 1.244 . S
O455 Zn451 2.055 . S
O455 C477 1.259 . S
O456 Zn448 2.046 . S
O456 C477 1.254 . S
N457 Zn451 2.036 . S
N457 C458 1.298 . S
N457 N460 1.398 . S
C458 N457 1.298 . S
C458 N461 1.367 . S
C458 C471 1.481 . S
C459 N460 1.299 . S
C459 N461 1.379 . S
N460 N457 1.398 . S
N460 C459 1.299 . S
N461 C458 1.367 . S
N461 C459 1.379 . S
C462 N464 1.298 . S
C462 N466 1.367 . S
C462 C470 1.481 . S
C463 N465 1.299 . S
C463 N466 1.379 . S
N464 Zn448 2.036 . S
N464 C462 1.298 . S
N464 N465 1.398 . S
N465 C463 1.299 . S
N465 N464 1.398 . S
N466 C462 1.367 . S
N466 C463 1.379 . S
H467 C470 0.980 . S
H468 C470 0.981 . S
H469 C470 0.981 . S
C470 C462 1.481 . S
C470 H467 0.980 . S
C470 H468 0.981 . S
C470 H469 0.981 . S
C471 C458 1.481 . S
C471 H472 0.980 . S
C471 H473 0.981 . S
C471 H474 0.981 . S
H472 C471 0.980 . S
H473 C471 0.981 . S
H474 C471 0.981 . S
O475 Zn451 2.066 . S
O475 C454 1.256 . S
O476 Zn448 2.053 . S
O476 C454 1.244 . S
C477 O455 1.259 . S
C477 O456 1.254 . S
O478 Zn448 2.066 . S
O478 C450 1.256 . S
O479 C450 1.244 . S
O479 Zn451 2.053 . S
Zn480 O481 2.055 . S
Zn480 O488 2.046 . S
Zn480 N496 2.036 . S
Zn480 O508 2.053 . S
Zn480 O510 2.066 . S
O481 Zn480 2.055 . S
O481 C484 1.259 . S
C482 O510 1.256 . S
C482 O511 1.244 . S
Zn483 O485 2.046 . S
Zn483 O487 2.055 . S
Zn483 N489 2.036 . S
Zn483 O507 2.066 . S
Zn483 O511 2.053 . S
C484 O481 1.259 . S
C484 O485 1.254 . S
O485 Zn483 2.046 . S
O485 C484 1.254 . S
C486 O507 1.256 . S
C486 O508 1.244 . S
O487 Zn483 2.055 . S
O487 C509 1.259 . S
O488 Zn480 2.046 . S
O488 C509 1.254 . S
N489 Zn483 2.036 . S
N489 C490 1.298 . S
N489 N492 1.398 . S
C490 N489 1.298 . S
C490 N493 1.367 . S
C490 C503 1.481 . S
C491 N492 1.299 . S
C491 N493 1.379 . S
N492 N489 1.398 . S
N492 C491 1.299 . S
N493 C490 1.367 . S
N493 C491 1.379 . S
C494 N496 1.298 . S
C494 N498 1.367 . S
C494 C502 1.481 . S
C495 N497 1.299 . S
C495 N498 1.379 . S
N496 Zn480 2.036 . S
N496 C494 1.298 . S
N496 N497 1.398 . S
N497 C495 1.299 . S
N497 N496 1.398 . S
N498 C494 1.367 . S
N498 C495 1.379 . S
H499 C502 0.980 . S
H500 C502 0.981 . S
H501 C502 0.981 . S
C502 C494 1.481 . S
C502 H499 0.980 . S
C502 H500 0.981 . S
C502 H501 0.981 . S
C503 C490 1.481 . S
C503 H504 0.980 . S
C503 H505 0.981 . S
C503 H506 0.981 . S
H504 C503 0.980 . S
H505 C503 0.981 . S
H506 C503 0.981 . S
O507 Zn483 2.066 . S
O507 C486 1.256 . S
O508 Zn480 2.053 . S
O508 C486 1.244 . S
C509 O487 1.259 . S
C509 O488 1.254 . S
O510 Zn480 2.066 . S
O510 C482 1.256 . S
O511 C482 1.244 . S
O511 Zn483 2.053 . S
C512 C513 1.349 . S
C512 C514 1.327 . S
C512 H537 0.950 . S
C513 C512 1.349 . S
C513 C529 1.349 . S
C514 C512 1.327 . S
C514 C533 1.429 . S
C514 H538 0.950 . S
C515 C532 1.574 . S
C515 C534 1.368 . S
C515 H539 0.949 . S
H516 C520 0.949 . S
C517 C518 1.349 . S
C517 C519 1.327 . S
C517 H540 0.950 . S
C518 C517 1.349 . S
C518 C530 1.349 . S
C519 C517 1.327 . S
C519 C535 1.429 . S
C519 H541 0.950 . S
C520 H516 0.949 . S
C520 C528 1.574 . S
C520 C536 1.368 . S
H521 C529 0.950 . S
H522 C527 0.950 . S
H523 C528 0.949 . S
H524 C530 0.950 . S
H525 C531 0.950 . S
H526 C532 0.949 . S
C527 H522 0.950 . S
C527 C529 1.327 . S
C527 C533 1.429 . S
C528 C520 1.574 . S
C528 H523 0.949 . S
C528 C534 1.368 . S
C529 C513 1.349 . S
C529 H521 0.950 . S
C529 C527 1.327 . S
C530 C518 1.349 . S
C530 H524 0.950 . S
C530 C531 1.327 . S
C531 H525 0.950 . S
C531 C530 1.327 . S
C531 C535 1.429 . S
C532 C515 1.574 . S
C532 H526 0.949 . S
C532 C536 1.368 . S
C533 C514 1.429 . S
C533 C527 1.429 . S
C533 C534 1.523 . S
C534 C515 1.368 . S
C534 C528 1.368 . S
C534 C533 1.523 . S
C535 C519 1.429 . S
C535 C531 1.429 . S
C535 C536 1.523 . S
C536 C520 1.368 . S
C536 C532 1.368 . S
C536 C535 1.523 . S
H537 C512 0.950 . S
H538 C514 0.950 . S
H539 C515 0.949 . S
H540 C517 0.950 . S
H541 C519 0.950 . S
C542 C543 1.349 . S
C542 C544 1.327 . S
C542 H567 0.950 . S
C543 C542 1.349 . S
C543 C559 1.349 . S
C544 C542 1.327 . S
C544 C563 1.429 1_554 S
C544 H568 0.950 . S
C545 C562 1.574 . S
C545 C564 1.368 . S
C545 H569 0.949 . S
H546 C550 0.949 . S
C547 C548 1.349 . S
C547 C549 1.327 . S
C547 H570 0.950 . S
C548 C547 1.349 . S
C548 C560 1.349 . S
C549 C547 1.327 . S
C549 C565 1.429 . S
C549 H571 0.950 . S
C550 H546 0.949 . S
C550 C558 1.574 . S
C550 C566 1.368 . S
H551 C559 0.950 . S
H552 C557 0.950 . S
H553 C558 0.949 . S
H554 C560 0.950 . S
H555 C561 0.950 . S
H556 C562 0.949 . S
C557 H552 0.950 . S
C557 C559 1.327 . S
C557 C563 1.429 1_554 S
C558 C550 1.574 . S
C558 H553 0.949 . S
C558 C564 1.368 . S
C559 C543 1.349 . S
C559 H551 0.950 . S
C559 C557 1.327 . S
C560 C548 1.349 . S
C560 H554 0.950 . S
C560 C561 1.327 . S
C561 H555 0.950 . S
C561 C560 1.327 . S
C561 C565 1.429 . S
C562 C545 1.574 . S
C562 H556 0.949 . S
C562 C566 1.368 . S
C563 C544 1.429 1_556 S
C563 C557 1.429 1_556 S
C563 C564 1.523 . S
C564 C545 1.368 . S
C564 C558 1.368 . S
C564 C563 1.523 . S
C565 C549 1.429 . S
C565 C561 1.429 . S
C565 C566 1.523 . S
C566 C550 1.368 . S
C566 C562 1.368 . S
C566 C565 1.523 . S
H567 C542 0.950 . S
H568 C544 0.950 . S
H569 C545 0.949 . S
H570 C547 0.950 . S
H571 C549 0.950 . S
C572 C573 1.349 . S
C572 C574 1.327 . S
C572 H597 0.950 . S
C573 C572 1.349 . S
C573 C589 1.349 . S
C574 C572 1.327 . S
C574 C593 1.429 . S
C574 H598 0.950 . S
C575 C592 1.574 . S
C575 C594 1.368 . S
C575 H599 0.949 . S
H576 C580 0.949 . S
C577 C578 1.349 . S
C577 C579 1.327 . S
C577 H600 0.950 . S
C578 C577 1.349 . S
C578 C590 1.349 . S
C579 C577 1.327 . S
C579 C595 1.429 . S
C579 H601 0.950 . S
C580 H576 0.949 . S
C580 C588 1.574 . S
C580 C596 1.368 . S
H581 C589 0.950 . S
H582 C587 0.950 . S
H583 C588 0.949 . S
H584 C590 0.950 . S
H585 C591 0.950 . S
H586 C592 0.949 . S
C587 H582 0.950 . S
C587 C589 1.327 . S
C587 C593 1.429 . S
C588 C580 1.574 . S
C588 H583 0.949 . S
C588 C594 1.368 . S
C589 C573 1.349 . S
C589 H581 0.950 . S
C589 C587 1.327 . S
C590 C578 1.349 . S
C590 H584 0.950 . S
C590 C591 1.327 . S
C591 H585 0.950 . S
C591 C590 1.327 . S
C591 C595 1.429 . S
C592 C575 1.574 . S
C592 H586 0.949 . S
C592 C596 1.368 . S
C593 C574 1.429 . S
C593 C587 1.429 . S
C593 C594 1.523 . S
C594 C575 1.368 . S
C594 C588 1.368 . S
C594 C593 1.523 . S
C595 C579 1.429 . S
C595 C591 1.429 . S
C595 C596 1.523 1_556 S
C596 C580 1.368 . S
C596 C592 1.368 . S
C596 C595 1.523 1_554 S
H597 C572 0.950 . S
H598 C574 0.950 . S
H599 C575 0.949 . S
H600 C577 0.950 . S
H601 C579 0.950 . S
C602 C603 1.349 . S
C602 C604 1.327 . S
C602 H627 0.950 . S
C603 C602 1.349 . S
C603 C619 1.349 . S
C604 C602 1.327 . S
C604 C623 1.429 . S
C604 H628 0.950 . S
C605 C622 1.574 . S
C605 C624 1.368 . S
C605 H629 0.949 . S
H606 C610 0.949 . S
C607 C608 1.349 . S
C607 C609 1.327 . S
C607 H630 0.950 . S
C608 C607 1.349 . S
C608 C620 1.349 . S
C609 C607 1.327 . S
C609 C625 1.429 . S
C609 H631 0.950 . S
C610 H606 0.949 . S
C610 C618 1.574 . S
C610 C626 1.368 . S
H611 C619 0.950 . S
H612 C617 0.950 . S
H613 C618 0.949 . S
H614 C620 0.950 . S
H615 C621 0.950 . S
H616 C622 0.949 . S
C617 H612 0.950 . S
C617 C619 1.327 . S
C617 C623 1.429 . S
C618 C610 1.574 . S
C618 H613 0.949 . S
C618 C624 1.368 . S
C619 C603 1.349 . S
C619 H611 0.950 . S
C619 C617 1.327 . S
C620 C608 1.349 . S
C620 H614 0.950 . S
C620 C621 1.327 . S
C621 H615 0.950 . S
C621 C620 1.327 . S
C621 C625 1.429 . S
C622 C605 1.574 . S
C622 H616 0.949 . S
C622 C626 1.368 . S
C623 C604 1.429 . S
C623 C617 1.429 . S
C623 C624 1.523 . S
C624 C605 1.368 . S
C624 C618 1.368 . S
C624 C623 1.523 . S
C625 C609 1.429 . S
C625 C621 1.429 . S
C625 C626 1.523 . S
C626 C610 1.368 . S
C626 C622 1.368 . S
C626 C625 1.523 . S
H627 C602 0.950 . S
H628 C604 0.950 . S
H629 C605 0.949 . S
H630 C607 0.950 . S
H631 C609 0.950 . S
C632 C633 1.349 . S
C632 C634 1.327 . S
C632 H657 0.950 . S
C633 C632 1.349 . S
C633 C649 1.349 . S
C634 C632 1.327 . S
C634 C653 1.429 . S
C634 H658 0.950 . S
C635 C652 1.574 . S
C635 C654 1.368 . S
C635 H659 0.949 . S
H636 C640 0.949 . S
C637 C638 1.349 . S
C637 C639 1.327 . S
C637 H660 0.950 . S
C638 C637 1.349 . S
C638 C650 1.349 . S
C639 C637 1.327 . S
C639 C655 1.429 . S
C639 H661 0.950 . S
C640 H636 0.949 . S
C640 C648 1.574 . S
C640 C656 1.368 . S
H641 C649 0.950 . S
H642 C647 0.950 . S
H643 C648 0.949 . S
H644 C650 0.950 . S
H645 C651 0.950 . S
H646 C652 0.949 . S
C647 H642 0.950 . S
C647 C649 1.327 . S
C647 C653 1.429 . S
C648 C640 1.574 . S
C648 H643 0.949 . S
C648 C654 1.368 . S
C649 C633 1.349 . S
C649 H641 0.950 . S
C649 C647 1.327 . S
C650 C638 1.349 . S
C650 H644 0.950 . S
C650 C651 1.327 . S
C651 H645 0.950 . S
C651 C650 1.327 . S
C651 C655 1.429 . S
C652 C635 1.574 . S
C652 H646 0.949 . S
C652 C656 1.368 . S
C653 C634 1.429 . S
C653 C647 1.429 . S
C653 C654 1.523 . S
C654 C635 1.368 . S
C654 C648 1.368 . S
C654 C653 1.523 . S
C655 C639 1.429 . S
C655 C651 1.429 . S
C655 C656 1.523 . S
C656 C640 1.368 . S
C656 C652 1.368 . S
C656 C655 1.523 . S
H657 C632 0.950 . S
H658 C634 0.950 . S
H659 C635 0.949 . S
H660 C637 0.950 . S
H661 C639 0.950 . S
C662 C663 1.349 . S
C662 C664 1.327 . S
C662 H687 0.950 . S
C663 C662 1.349 . S
C663 C679 1.349 . S
C664 C662 1.327 . S
C664 C683 1.429 . S
C664 H688 0.950 . S
C665 C682 1.574 . S
C665 C684 1.368 . S
C665 H689 0.949 . S
H666 C670 0.949 . S
C667 C668 1.349 . S
C667 C669 1.327 . S
C667 H690 0.950 . S
C668 C667 1.349 . S
C668 C680 1.349 . S
C669 C667 1.327 . S
C669 C685 1.429 . S
C669 H691 0.950 . S
C670 H666 0.949 . S
C670 C678 1.574 . S
C670 C686 1.368 . S
H671 C679 0.950 . S
H672 C677 0.950 . S
H673 C678 0.949 . S
H674 C680 0.950 . S
H675 C681 0.950 . S
H676 C682 0.949 . S
C677 H672 0.950 . S
C677 C679 1.327 . S
C677 C683 1.429 . S
C678 C670 1.574 . S
C678 H673 0.949 . S
C678 C684 1.368 . S
C679 C663 1.349 . S
C679 H671 0.950 . S
C679 C677 1.327 . S
C680 C668 1.349 . S
C680 H674 0.950 . S
C680 C681 1.327 . S
C681 H675 0.950 . S
C681 C680 1.327 . S
C681 C685 1.429 . S
C682 C665 1.574 . S
C682 H676 0.949 . S
C682 C686 1.368 . S
C683 C664 1.429 . S
C683 C677 1.429 . S
C683 C684 1.523 . S
C684 C665 1.368 . S
C684 C678 1.368 . S
C684 C683 1.523 . S
C685 C669 1.429 . S
C685 C681 1.429 . S
C685 C686 1.523 . S
C686 C670 1.368 . S
C686 C682 1.368 . S
C686 C685 1.523 . S
H687 C662 0.950 . S
H688 C664 0.950 . S
H689 C665 0.949 . S
H690 C667 0.950 . S
H691 C669 0.950 . S
C692 C693 1.349 . S
C692 C694 1.327 . S
C692 H717 0.950 . S
C693 C692 1.349 . S
C693 C709 1.349 . S
C694 C692 1.327 . S
C694 C713 1.429 . S
C694 H718 0.950 . S
C695 C712 1.574 . S
C695 C714 1.368 . S
C695 H719 0.949 . S
H696 C700 0.949 . S
C697 C698 1.349 . S
C697 C699 1.327 . S
C697 H720 0.950 . S
C698 C697 1.349 . S
C698 C710 1.349 . S
C699 C697 1.327 . S
C699 C715 1.429 . S
C699 H721 0.950 . S
C700 H696 0.949 . S
C700 C708 1.574 . S
C700 C716 1.368 . S
H701 C709 0.950 . S
H702 C707 0.950 . S
H703 C708 0.949 . S
H704 C710 0.950 . S
H705 C711 0.950 . S
H706 C712 0.949 . S
C707 H702 0.950 . S
C707 C709 1.327 . S
C707 C713 1.429 . S
C708 C700 1.574 . S
C708 H703 0.949 . S
C708 C714 1.368 . S
C709 C693 1.349 . S
C709 H701 0.950 . S
C709 C707 1.327 . S
C710 C698 1.349 . S
C710 H704 0.950 . S
C710 C711 1.327 . S
C711 H705 0.950 . S
C711 C710 1.327 . S
C711 C715 1.429 . S
C712 C695 1.574 . S
C712 H706 0.949 . S
C712 C716 1.368 . S
C713 C694 1.429 . S
C713 C707 1.429 . S
C713 C714 1.523 . S
C714 C695 1.368 . S
C714 C708 1.368 . S
C714 C713 1.523 . S
C715 C699 1.429 . S
C715 C711 1.429 . S
C715 C716 1.523 1_554 S
C716 C700 1.368 . S
C716 C712 1.368 . S
C716 C715 1.523 1_556 S
H717 C692 0.950 . S
H718 C694 0.950 . S
H719 C695 0.949 . S
H720 C697 0.950 . S
H721 C699 0.950 . S
C722 C723 1.349 . S
C722 C724 1.327 . S
C722 H747 0.950 . S
C723 C722 1.349 . S
C723 C739 1.349 . S
C724 C722 1.327 . S
C724 C743 1.429 1_556 S
C724 H748 0.950 . S
C725 C742 1.574 . S
C725 C744 1.368 . S
C725 H749 0.949 . S
H726 C730 0.949 . S
C727 C728 1.349 . S
C727 C729 1.327 . S
C727 H750 0.950 . S
C728 C727 1.349 . S
C728 C740 1.349 . S
C729 C727 1.327 . S
C729 C745 1.429 . S
C729 H751 0.950 . S
C730 H726 0.949 . S
C730 C738 1.574 . S
C730 C746 1.368 . S
H731 C739 0.950 . S
H732 C737 0.950 . S
H733 C738 0.949 . S
H734 C740 0.950 . S
H735 C741 0.950 . S
H736 C742 0.949 . S
C737 H732 0.950 . S
C737 C739 1.327 . S
C737 C743 1.429 1_556 S
C738 C730 1.574 . S
C738 H733 0.949 . S
C738 C744 1.368 . S
C739 C723 1.349 . S
C739 H731 0.950 . S
C739 C737 1.327 . S
C740 C728 1.349 . S
C740 H734 0.950 . S
C740 C741 1.327 . S
C741 H735 0.950 . S
C741 C740 1.327 . S
C741 C745 1.429 . S
C742 C725 1.574 . S
C742 H736 0.949 . S
C742 C746 1.368 . S
C743 C724 1.429 1_554 S
C743 C737 1.429 1_554 S
C743 C744 1.523 . S
C744 C725 1.368 . S
C744 C738 1.368 . S
C744 C743 1.523 . S
C745 C729 1.429 . S
C745 C741 1.429 . S
C745 C746 1.523 . S
C746 C730 1.368 . S
C746 C742 1.368 . S
C746 C745 1.523 . S
H747 C722 0.950 . S
H748 C724 0.950 . S
H749 C725 0.949 . S
H750 C727 0.950 . S
H751 C729 0.950 . S
C752 C753 1.349 . S
C752 C754 1.327 . S
C752 H777 0.950 . S
C753 C752 1.349 . S
C753 C769 1.349 . S
C754 C752 1.327 . S
C754 C773 1.429 . S
C754 H778 0.950 . S
C755 C772 1.574 . S
C755 C774 1.368 . S
C755 H779 0.949 . S
H756 C760 0.949 . S
C757 C758 1.349 . S
C757 C759 1.327 . S
C757 H780 0.950 . S
C758 C757 1.349 . S
C758 C770 1.349 . S
C759 C757 1.327 . S
C759 C775 1.429 . S
C759 H781 0.950 . S
C760 H756 0.949 . S
C760 C768 1.574 . S
C760 C776 1.368 . S
H761 C769 0.950 . S
H762 C767 0.950 . S
H763 C768 0.949 . S
H764 C770 0.950 . S
H765 C771 0.950 . S
H766 C772 0.949 . S
C767 H762 0.950 . S
C767 C769 1.327 . S
C767 C773 1.429 . S
C768 C760 1.574 . S
C768 H763 0.949 . S
C768 C774 1.368 . S
C769 C753 1.349 . S
C769 H761 0.950 . S
C769 C767 1.327 . S
C770 C758 1.349 . S
C770 H764 0.950 . S
C770 C771 1.327 . S
C771 H765 0.950 . S
C771 C770 1.327 . S
C771 C775 1.429 . S
C772 C755 1.574 . S
C772 H766 0.949 . S
C772 C776 1.368 . S
C773 C754 1.429 . S
C773 C767 1.429 . S
C773 C774 1.523 . S
C774 C755 1.368 . S
C774 C768 1.368 . S
C774 C773 1.523 . S
C775 C759 1.429 . S
C775 C771 1.429 . S
C775 C776 1.523 . S
C776 C760 1.368 . S
C776 C772 1.368 . S
C776 C775 1.523 . S
H777 C752 0.950 . S
H778 C754 0.950 . S
H779 C755 0.949 . S
H780 C757 0.950 . S
H781 C759 0.950 . S
C782 C783 1.349 . S
C782 C784 1.327 . S
C782 H807 0.950 . S
C783 C782 1.349 . S
C783 C799 1.349 . S
C784 C782 1.327 . S
C784 C803 1.429 . S
C784 H808 0.950 . S
C785 C802 1.574 . S
C785 C804 1.368 . S
C785 H809 0.949 . S
H786 C790 0.949 . S
C787 C788 1.349 . S
C787 C789 1.327 . S
C787 H810 0.950 . S
C788 C787 1.349 . S
C788 C800 1.349 . S
C789 C787 1.327 . S
C789 C805 1.429 1_556 S
C789 H811 0.950 . S
C790 H786 0.949 . S
C790 C798 1.574 . S
C790 C806 1.368 . S
H791 C799 0.950 . S
H792 C797 0.950 . S
H793 C798 0.949 . S
H794 C800 0.950 . S
H795 C801 0.950 . S
H796 C802 0.949 . S
C797 H792 0.950 . S
C797 C799 1.327 . S
C797 C803 1.429 . S
C798 C790 1.574 . S
C798 H793 0.949 . S
C798 C804 1.368 . S
C799 C783 1.349 . S
C799 H791 0.950 . S
C799 C797 1.327 . S
C800 C788 1.349 . S
C800 H794 0.950 . S
C800 C801 1.327 . S
C801 H795 0.950 . S
C801 C800 1.327 . S
C801 C805 1.429 1_556 S
C802 C785 1.574 . S
C802 H796 0.949 . S
C802 C806 1.368 . S
C803 C784 1.429 . S
C803 C797 1.429 . S
C803 C804 1.523 . S
C804 C785 1.368 . S
C804 C798 1.368 . S
C804 C803 1.523 . S
C805 C789 1.429 1_554 S
C805 C801 1.429 1_554 S
C805 C806 1.523 . S
C806 C790 1.368 . S
C806 C802 1.368 . S
C806 C805 1.523 . S
H807 C782 0.950 . S
H808 C784 0.950 . S
H809 C785 0.949 . S
H810 C787 0.950 . S
H811 C789 0.950 . S
C812 C813 1.349 . S
C812 C814 1.327 . S
C812 H837 0.950 . S
C813 C812 1.349 . S
C813 C829 1.349 . S
C814 C812 1.327 . S
C814 C833 1.429 . S
C814 H838 0.950 . S
C815 C832 1.574 . S
C815 C834 1.368 . S
C815 H839 0.949 . S
H816 C820 0.949 . S
C817 C818 1.349 . S
C817 C819 1.327 . S
C817 H840 0.950 . S
C818 C817 1.349 . S
C818 C830 1.349 . S
C819 C817 1.327 . S
C819 C835 1.429 . S
C819 H841 0.950 . S
C820 H816 0.949 . S
C820 C828 1.574 . S
C820 C836 1.368 . S
H821 C829 0.950 . S
H822 C827 0.950 . S
H823 C828 0.949 . S
H824 C830 0.950 . S
H825 C831 0.950 . S
H826 C832 0.949 . S
C827 H822 0.950 . S
C827 C829 1.327 . S
C827 C833 1.429 . S
C828 C820 1.574 . S
C828 H823 0.949 . S
C828 C834 1.368 . S
C829 C813 1.349 . S
C829 H821 0.950 . S
C829 C827 1.327 . S
C830 C818 1.349 . S
C830 H824 0.950 . S
C830 C831 1.327 . S
C831 H825 0.950 . S
C831 C830 1.327 . S
C831 C835 1.429 . S
C832 C815 1.574 . S
C832 H826 0.949 . S
C832 C836 1.368 . S
C833 C814 1.429 . S
C833 C827 1.429 . S
C833 C834 1.523 1_554 S
C834 C815 1.368 . S
C834 C828 1.368 . S
C834 C833 1.523 1_556 S
C835 C819 1.429 . S
C835 C831 1.429 . S
C835 C836 1.523 . S
C836 C820 1.368 . S
C836 C832 1.368 . S
C836 C835 1.523 . S
H837 C812 0.950 . S
H838 C814 0.950 . S
H839 C815 0.949 . S
H840 C817 0.950 . S
H841 C819 0.950 . S
C842 C843 1.349 . S
C842 C844 1.327 . S
C842 H867 0.950 . S
C843 C842 1.349 . S
C843 C859 1.349 . S
C844 C842 1.327 . S
C844 C863 1.429 . S
C844 H868 0.950 . S
C845 C862 1.574 . S
C845 C864 1.368 . S
C845 H869 0.949 . S
H846 C850 0.949 . S
C847 C848 1.349 . S
C847 C849 1.327 . S
C847 H870 0.950 . S
C848 C847 1.349 . S
C848 C860 1.349 . S
C849 C847 1.327 . S
C849 C865 1.429 . S
C849 H871 0.950 . S
C850 H846 0.949 . S
C850 C858 1.574 . S
C850 C866 1.368 . S
H851 C859 0.950 . S
H852 C857 0.950 . S
H853 C858 0.949 . S
H854 C860 0.950 . S
H855 C861 0.950 . S
H856 C862 0.949 . S
C857 H852 0.950 . S
C857 C859 1.327 . S
C857 C863 1.429 . S
C858 C850 1.574 . S
C858 H853 0.949 . S
C858 C864 1.368 . S
C859 C843 1.349 . S
C859 H851 0.950 . S
C859 C857 1.327 . S
C860 C848 1.349 . S
C860 H854 0.950 . S
C860 C861 1.327 . S
C861 H855 0.950 . S
C861 C860 1.327 . S
C861 C865 1.429 . S
C862 C845 1.574 . S
C862 H856 0.949 . S
C862 C866 1.368 . S
C863 C844 1.429 . S
C863 C857 1.429 . S
C863 C864 1.523 . S
C864 C845 1.368 . S
C864 C858 1.368 . S
C864 C863 1.523 . S
C865 C849 1.429 . S
C865 C861 1.429 . S
C865 C866 1.523 . S
C866 C850 1.368 . S
C866 C862 1.368 . S
C866 C865 1.523 . S
H867 C842 0.950 . S
H868 C844 0.950 . S
H869 C845 0.949 . S
H870 C847 0.950 . S
H871 C849 0.950 . S
C872 C873 1.349 . S
C872 C874 1.327 . S
C872 H897 0.950 . S
C873 C872 1.349 . S
C873 C889 1.349 . S
C874 C872 1.327 . S
C874 C893 1.429 . S
C874 H898 0.950 . S
C875 C892 1.574 . S
C875 C894 1.368 . S
C875 H899 0.949 . S
H876 C880 0.949 . S
C877 C878 1.349 . S
C877 C879 1.327 . S
C877 H900 0.950 . S
C878 C877 1.349 . S
C878 C890 1.349 . S
C879 C877 1.327 . S
C879 C895 1.429 . S
C879 H901 0.950 . S
C880 H876 0.949 . S
C880 C888 1.574 . S
C880 C896 1.368 . S
H881 C889 0.950 . S
H882 C887 0.950 . S
H883 C888 0.949 . S
H884 C890 0.950 . S
H885 C891 0.950 . S
H886 C892 0.949 . S
C887 H882 0.950 . S
C887 C889 1.327 . S
C887 C893 1.429 . S
C888 C880 1.574 . S
C888 H883 0.949 . S
C888 C894 1.368 . S
C889 C873 1.349 . S
C889 H881 0.950 . S
C889 C887 1.327 . S
C890 C878 1.349 . S
C890 H884 0.950 . S
C890 C891 1.327 . S
C891 H885 0.950 . S
C891 C890 1.327 . S
C891 C895 1.429 . S
C892 C875 1.574 . S
C892 H886 0.949 . S
C892 C896 1.368 . S
C893 C874 1.429 . S
C893 C887 1.429 . S
C893 C894 1.523 . S
C894 C875 1.368 . S
C894 C888 1.368 . S
C894 C893 1.523 . S
C895 C879 1.429 . S
C895 C891 1.429 . S
C895 C896 1.523 . S
C896 C880 1.368 . S
C896 C892 1.368 . S
C896 C895 1.523 . S
H897 C872 0.950 . S
H898 C874 0.950 . S
H899 C875 0.949 . S
H900 C877 0.950 . S
H901 C879 0.950 . S
C902 C903 1.349 . S
C902 C904 1.327 . S
C902 H927 0.950 . S
C903 C902 1.349 . S
C903 C919 1.349 . S
C904 C902 1.327 . S
C904 C923 1.429 . S
C904 H928 0.950 . S
C905 C922 1.574 . S
C905 C924 1.368 . S
C905 H929 0.949 . S
H906 C910 0.949 . S
C907 C908 1.349 . S
C907 C909 1.327 . S
C907 H930 0.950 . S
C908 C907 1.349 . S
C908 C920 1.349 . S
C909 C907 1.327 . S
C909 C925 1.429 . S
C909 H931 0.950 . S
C910 H906 0.949 . S
C910 C918 1.574 . S
C910 C926 1.368 . S
H911 C919 0.950 . S
H912 C917 0.950 . S
H913 C918 0.949 . S
H914 C920 0.950 . S
H915 C921 0.950 . S
H916 C922 0.949 . S
C917 H912 0.950 . S
C917 C919 1.327 . S
C917 C923 1.429 . S
C918 C910 1.574 . S
C918 H913 0.949 . S
C918 C924 1.368 . S
C919 C903 1.349 . S
C919 H911 0.950 . S
C919 C917 1.327 . S
C920 C908 1.349 . S
C920 H914 0.950 . S
C920 C921 1.327 . S
C921 H915 0.950 . S
C921 C920 1.327 . S
C921 C925 1.429 . S
C922 C905 1.574 . S
C922 H916 0.949 . S
C922 C926 1.368 . S
C923 C904 1.429 . S
C923 C917 1.429 . S
C923 C924 1.523 . S
C924 C905 1.368 . S
C924 C918 1.368 . S
C924 C923 1.523 . S
C925 C909 1.429 . S
C925 C921 1.429 . S
C925 C926 1.523 . S
C926 C910 1.368 . S
C926 C922 1.368 . S
C926 C925 1.523 . S
H927 C902 0.950 . S
H928 C904 0.950 . S
H929 C905 0.949 . S
H930 C907 0.950 . S
H931 C909 0.950 . S
C932 C933 1.349 . S
C932 C934 1.327 . S
C932 H957 0.950 . S
C933 C932 1.349 . S
C933 C949 1.349 . S
C934 C932 1.327 . S
C934 C953 1.429 . S
C934 H958 0.950 . S
C935 C952 1.574 . S
C935 C954 1.368 . S
C935 H959 0.949 . S
H936 C940 0.949 . S
C937 C938 1.349 . S
C937 C939 1.327 . S
C937 H960 0.950 . S
C938 C937 1.349 . S
C938 C950 1.349 . S
C939 C937 1.327 . S
C939 C955 1.429 . S
C939 H961 0.950 . S
C940 H936 0.949 . S
C940 C948 1.574 . S
C940 C956 1.368 . S
H941 C949 0.950 . S
H942 C947 0.950 . S
H943 C948 0.949 . S
H944 C950 0.950 . S
H945 C951 0.950 . S
H946 C952 0.949 . S
C947 H942 0.950 . S
C947 C949 1.327 . S
C947 C953 1.429 . S
C948 C940 1.574 . S
C948 H943 0.949 . S
C948 C954 1.368 . S
C949 C933 1.349 . S
C949 H941 0.950 . S
C949 C947 1.327 . S
C950 C938 1.349 . S
C950 H944 0.950 . S
C950 C951 1.327 . S
C951 H945 0.950 . S
C951 C950 1.327 . S
C951 C955 1.429 . S
C952 C935 1.574 . S
C952 H946 0.949 . S
C952 C956 1.368 . S
C953 C934 1.429 . S
C953 C947 1.429 . S
C953 C954 1.523 . S
C954 C935 1.368 . S
C954 C948 1.368 . S
C954 C953 1.523 . S
C955 C939 1.429 . S
C955 C951 1.429 . S
C955 C956 1.523 1_556 S
C956 C940 1.368 . S
C956 C952 1.368 . S
C956 C955 1.523 1_554 S
H957 C932 0.950 . S
H958 C934 0.950 . S
H959 C935 0.949 . S
H960 C937 0.950 . S
H961 C939 0.950 . S
C962 C963 1.349 . S
C962 C964 1.327 . S
C962 H987 0.950 . S
C963 C962 1.349 . S
C963 C979 1.349 . S
C964 C962 1.327 . S
C964 C983 1.429 1_554 S
C964 H988 0.950 . S
C965 C982 1.574 . S
C965 C984 1.368 . S
C965 H989 0.949 . S
H966 C970 0.949 . S
C967 C968 1.349 . S
C967 C969 1.327 . S
C967 H990 0.950 . S
C968 C967 1.349 . S
C968 C980 1.349 . S
C969 C967 1.327 . S
C969 C985 1.429 . S
C969 H991 0.950 . S
C970 H966 0.949 . S
C970 C978 1.574 . S
C970 C986 1.368 . S
H971 C979 0.950 . S
H972 C977 0.950 . S
H973 C978 0.949 . S
H974 C980 0.950 . S
H975 C981 0.950 . S
H976 C982 0.949 . S
C977 H972 0.950 . S
C977 C979 1.327 . S
C977 C983 1.429 1_554 S
C978 C970 1.574 . S
C978 H973 0.949 . S
C978 C984 1.368 . S
C979 C963 1.349 . S
C979 H971 0.950 . S
C979 C977 1.327 . S
C980 C968 1.349 . S
C980 H974 0.950 . S
C980 C981 1.327 . S
C981 H975 0.950 . S
C981 C980 1.327 . S
C981 C985 1.429 . S
C982 C965 1.574 . S
C982 H976 0.949 . S
C982 C986 1.368 . S
C983 C964 1.429 1_556 S
C983 C977 1.429 1_556 S
C983 C984 1.523 . S
C984 C965 1.368 . S
C984 C978 1.368 . S
C984 C983 1.523 . S
C985 C969 1.429 . S
C985 C981 1.429 . S
C985 C986 1.523 . S
C986 C970 1.368 . S
C986 C982 1.368 . S
C986 C985 1.523 . S
H987 C962 0.950 . S
H988 C964 0.950 . S
H989 C965 0.949 . S
H990 C967 0.950 . S
H991 C969 0.950 . S
C992 C993 1.349 . S
C992 C994 1.327 . S
C992 H1017 0.950 . S
C993 C992 1.349 . S
C993 C1009 1.349 . S
C994 C992 1.327 . S
C994 C1013 1.429 . S
C994 H1018 0.950 . S
C995 C1012 1.574 . S
C995 C1014 1.368 . S
C995 H1019 0.949 . S
H996 C1000 0.949 . S
C997 C998 1.349 . S
C997 C999 1.327 . S
C997 H1020 0.950 . S
C998 C997 1.349 . S
C998 C1010 1.349 . S
C999 C997 1.327 . S
C999 C1015 1.429 . S
C999 H1021 0.950 . S
C1000 H996 0.949 . S
C1000 C1008 1.574 . S
C1000 C1016 1.368 . S
H1001 C1009 0.950 . S
H1002 C1007 0.950 . S
H1003 C1008 0.949 . S
H1004 C1010 0.950 . S
H1005 C1011 0.950 . S
H1006 C1012 0.949 . S
C1007 H1002 0.950 . S
C1007 C1009 1.327 . S
C1007 C1013 1.429 . S
C1008 C1000 1.574 . S
C1008 H1003 0.949 . S
C1008 C1014 1.368 . S
C1009 C993 1.349 . S
C1009 H1001 0.950 . S
C1009 C1007 1.327 . S
C1010 C998 1.349 . S
C1010 H1004 0.950 . S
C1010 C1011 1.327 . S
C1011 H1005 0.950 . S
C1011 C1010 1.327 . S
C1011 C1015 1.429 . S
C1012 C995 1.574 . S
C1012 H1006 0.949 . S
C1012 C1016 1.368 . S
C1013 C994 1.429 . S
C1013 C1007 1.429 . S
C1013 C1014 1.523 . S
C1014 C995 1.368 . S
C1014 C1008 1.368 . S
C1014 C1013 1.523 . S
C1015 C999 1.429 . S
C1015 C1011 1.429 . S
C1015 C1016 1.523 . S
C1016 C1000 1.368 . S
C1016 C1012 1.368 . S
C1016 C1015 1.523 . S
H1017 C992 0.950 . S
H1018 C994 0.950 . S
H1019 C995 0.949 . S
H1020 C997 0.950 . S
H1021 C999 0.950 . S
C1022 C1023 1.349 . S
C1022 C1024 1.327 . S
C1022 H1047 0.950 . S
C1023 C1022 1.349 . S
C1023 C1039 1.349 . S
C1024 C1022 1.327 . S
C1024 C1043 1.429 . S
C1024 H1048 0.950 . S
C1025 C1042 1.574 . S
C1025 C1044 1.368 . S
C1025 H1049 0.949 . S
H1026 C1030 0.949 . S
C1027 C1028 1.349 . S
C1027 C1029 1.327 . S
C1027 H1050 0.950 . S
C1028 C1027 1.349 . S
C1028 C1040 1.349 . S
C1029 C1027 1.327 . S
C1029 C1045 1.429 . S
C1029 H1051 0.950 . S
C1030 H1026 0.949 . S
C1030 C1038 1.574 . S
C1030 C1046 1.368 . S
H1031 C1039 0.950 . S
H1032 C1037 0.950 . S
H1033 C1038 0.949 . S
H1034 C1040 0.950 . S
H1035 C1041 0.950 . S
H1036 C1042 0.949 . S
C1037 H1032 0.950 . S
C1037 C1039 1.327 . S
C1037 C1043 1.429 . S
C1038 C1030 1.574 . S
C1038 H1033 0.949 . S
C1038 C1044 1.368 . S
C1039 C1023 1.349 . S
C1039 H1031 0.950 . S
C1039 C1037 1.327 . S
C1040 C1028 1.349 . S
C1040 H1034 0.950 . S
C1040 C1041 1.327 . S
C1041 H1035 0.950 . S
C1041 C1040 1.327 . S
C1041 C1045 1.429 . S
C1042 C1025 1.574 . S
C1042 H1036 0.949 . S
C1042 C1046 1.368 . S
C1043 C1024 1.429 . S
C1043 C1037 1.429 . S
C1043 C1044 1.523 . S
C1044 C1025 1.368 . S
C1044 C1038 1.368 . S
C1044 C1043 1.523 . S
C1045 C1029 1.429 . S
C1045 C1041 1.429 . S
C1045 C1046 1.523 . S
C1046 C1030 1.368 . S
C1046 C1042 1.368 . S
C1046 C1045 1.523 . S
H1047 C1022 0.950 . S
H1048 C1024 0.950 . S
H1049 C1025 0.949 . S
H1050 C1027 0.950 . S
H1051 C1029 0.950 . S
C1052 C1053 1.349 . S
C1052 C1054 1.327 . S
C1052 H1077 0.950 . S
C1053 C1052 1.349 . S
C1053 C1069 1.349 . S
C1054 C1052 1.327 . S
C1054 C1073 1.429 . S
C1054 H1078 0.950 . S
C1055 C1072 1.574 . S
C1055 C1074 1.368 . S
C1055 H1079 0.949 . S
H1056 C1060 0.949 . S
C1057 C1058 1.349 . S
C1057 C1059 1.327 . S
C1057 H1080 0.950 . S
C1058 C1057 1.349 . S
C1058 C1070 1.349 . S
C1059 C1057 1.327 . S
C1059 C1075 1.429 . S
C1059 H1081 0.950 . S
C1060 H1056 0.949 . S
C1060 C1068 1.574 . S
C1060 C1076 1.368 . S
H1061 C1069 0.950 . S
H1062 C1067 0.950 . S
H1063 C1068 0.949 . S
H1064 C1070 0.950 . S
H1065 C1071 0.950 . S
H1066 C1072 0.949 . S
C1067 H1062 0.950 . S
C1067 C1069 1.327 . S
C1067 C1073 1.429 . S
C1068 C1060 1.574 . S
C1068 H1063 0.949 . S
C1068 C1074 1.368 . S
C1069 C1053 1.349 . S
C1069 H1061 0.950 . S
C1069 C1067 1.327 . S
C1070 C1058 1.349 . S
C1070 H1064 0.950 . S
C1070 C1071 1.327 . S
C1071 H1065 0.950 . S
C1071 C1070 1.327 . S
C1071 C1075 1.429 . S
C1072 C1055 1.574 . S
C1072 H1066 0.949 . S
C1072 C1076 1.368 . S
C1073 C1054 1.429 . S
C1073 C1067 1.429 . S
C1073 C1074 1.523 . S
C1074 C1055 1.368 . S
C1074 C1068 1.368 . S
C1074 C1073 1.523 . S
C1075 C1059 1.429 . S
C1075 C1071 1.429 . S
C1075 C1076 1.523 . S
C1076 C1060 1.368 . S
C1076 C1072 1.368 . S
C1076 C1075 1.523 . S
H1077 C1052 0.950 . S
H1078 C1054 0.950 . S
H1079 C1055 0.949 . S
H1080 C1057 0.950 . S
H1081 C1059 0.950 . S
C1082 C1083 1.349 . S
C1082 C1084 1.327 . S
C1082 H1107 0.950 . S
C1083 C1082 1.349 . S
C1083 C1099 1.349 . S
C1084 C1082 1.327 . S
C1084 C1103 1.429 . S
C1084 H1108 0.950 . S
C1085 C1102 1.574 1_655 S
C1085 C1104 1.368 . S
C1085 H1109 0.949 . S
H1086 C1090 0.949 . S
C1087 C1088 1.349 . S
C1087 C1089 1.327 . S
C1087 H1110 0.950 . S
C1088 C1087 1.349 . S
C1088 C1100 1.349 . S
C1089 C1087 1.327 . S
C1089 C1105 1.429 . S
C1089 H1111 0.950 . S
C1090 H1086 0.949 . S
C1090 C1098 1.574 1_455 S
C1090 C1106 1.368 . S
H1091 C1099 0.950 . S
H1092 C1097 0.950 . S
H1093 C1098 0.949 . S
H1094 C1100 0.950 . S
H1095 C1101 0.950 . S
H1096 C1102 0.949 . S
C1097 H1092 0.950 . S
C1097 C1099 1.327 . S
C1097 C1103 1.429 . S
C1098 C1090 1.574 1_655 S
C1098 H1093 0.949 . S
C1098 C1104 1.368 . S
C1099 C1083 1.349 . S
C1099 H1091 0.950 . S
C1099 C1097 1.327 . S
C1100 C1088 1.349 . S
C1100 H1094 0.950 . S
C1100 C1101 1.327 . S
C1101 H1095 0.950 . S
C1101 C1100 1.327 . S
C1101 C1105 1.429 . S
C1102 C1085 1.574 1_455 S
C1102 H1096 0.949 . S
C1102 C1106 1.368 . S
C1103 C1084 1.429 . S
C1103 C1097 1.429 . S
C1103 C1104 1.523 . S
C1104 C1085 1.368 . S
C1104 C1098 1.368 . S
C1104 C1103 1.523 . S
C1105 C1089 1.429 . S
C1105 C1101 1.429 . S
C1105 C1106 1.523 . S
C1106 C1090 1.368 . S
C1106 C1102 1.368 . S
C1106 C1105 1.523 . S
H1107 C1082 0.950 . S
H1108 C1084 0.950 . S
H1109 C1085 0.949 . S
H1110 C1087 0.950 . S
H1111 C1089 0.950 . S
C1112 C1113 1.349 . S
C1112 C1114 1.327 . S
C1112 H1137 0.950 . S
C1113 C1112 1.349 . S
C1113 C1129 1.349 . S
C1114 C1112 1.327 . S
C1114 C1133 1.429 . S
C1114 H1138 0.950 . S
C1115 C1132 1.574 . S
C1115 C1134 1.368 . S
C1115 H1139 0.949 . S
H1116 C1120 0.949 . S
C1117 C1118 1.349 . S
C1117 C1119 1.327 . S
C1117 H1140 0.950 . S
C1118 C1117 1.349 . S
C1118 C1130 1.349 . S
C1119 C1117 1.327 . S
C1119 C1135 1.429 . S
C1119 H1141 0.950 . S
C1120 H1116 0.949 . S
C1120 C1128 1.574 . S
C1120 C1136 1.368 . S
H1121 C1129 0.950 . S
H1122 C1127 0.950 . S
H1123 C1128 0.949 . S
H1124 C1130 0.950 . S
H1125 C1131 0.950 . S
H1126 C1132 0.949 . S
C1127 H1122 0.950 . S
C1127 C1129 1.327 . S
C1127 C1133 1.429 . S
C1128 C1120 1.574 . S
C1128 H1123 0.949 . S
C1128 C1134 1.368 . S
C1129 C1113 1.349 . S
C1129 H1121 0.950 . S
C1129 C1127 1.327 . S
C1130 C1118 1.349 . S
C1130 H1124 0.950 . S
C1130 C1131 1.327 . S
C1131 H1125 0.950 . S
C1131 C1130 1.327 . S
C1131 C1135 1.429 . S
C1132 C1115 1.574 . S
C1132 H1126 0.949 . S
C1132 C1136 1.368 . S
C1133 C1114 1.429 . S
C1133 C1127 1.429 . S
C1133 C1134 1.523 . S
C1134 C1115 1.368 . S
C1134 C1128 1.368 . S
C1134 C1133 1.523 . S
C1135 C1119 1.429 . S
C1135 C1131 1.429 . S
C1135 C1136 1.523 . S
C1136 C1120 1.368 . S
C1136 C1132 1.368 . S
C1136 C1135 1.523 . S
H1137 C1112 0.950 . S
H1138 C1114 0.950 . S
H1139 C1115 0.949 . S
H1140 C1117 0.950 . S
H1141 C1119 0.950 . S
C1142 C1143 1.349 . S
C1142 C1144 1.327 . S
C1142 H1167 0.950 1_554 S
C1143 C1142 1.349 . S
C1143 C1159 1.349 . S
C1144 C1142 1.327 . S
C1144 C1163 1.429 . S
C1144 H1168 0.950 1_554 S
C1145 C1162 1.574 1_455 S
C1145 C1164 1.368 . S
C1145 H1169 0.949 . S
H1146 C1150 0.949 1_556 S
C1147 C1148 1.349 . S
C1147 C1149 1.327 . S
C1147 H1170 0.950 . S
C1148 C1147 1.349 . S
C1148 C1160 1.349 . S
C1149 C1147 1.327 . S
C1149 C1165 1.429 . S
C1149 H1171 0.950 . S
C1150 H1146 0.949 1_554 S
C1150 C1158 1.574 1_655 S
C1150 C1166 1.368 . S
H1151 C1159 0.950 . S
H1152 C1157 0.950 . S
H1153 C1158 0.949 1_556 S
H1154 C1160 0.951 1_556 S
H1155 C1161 0.950 1_556 S
H1156 C1162 0.949 . S
C1157 H1152 0.950 . S
C1157 C1159 1.327 . S
C1157 C1163 1.429 . S
C1158 C1150 1.574 1_455 S
C1158 H1153 0.949 1_554 S
C1158 C1164 1.368 . S
C1159 C1143 1.349 . S
C1159 H1151 0.950 . S
C1159 C1157 1.327 . S
C1160 C1148 1.349 . S
C1160 H1154 0.951 1_554 S
C1160 C1161 1.327 . S
C1161 H1155 0.950 1_554 S
C1161 C1160 1.327 . S
C1161 C1165 1.429 . S
C1162 C1145 1.574 1_655 S
C1162 H1156 0.949 . S
C1162 C1166 1.368 . S
C1163 C1144 1.429 . S
C1163 C1157 1.429 . S
C1163 C1164 1.523 . S
C1164 C1145 1.368 . S
C1164 C1158 1.368 . S
C1164 C1163 1.523 . S
C1165 C1149 1.429 . S
C1165 C1161 1.429 . S
C1165 C1166 1.523 . S
C1166 C1150 1.368 . S
C1166 C1162 1.368 . S
C1166 C1165 1.523 . S
H1167 C1142 0.950 1_556 S
H1168 C1144 0.950 1_556 S
H1169 C1145 0.949 . S
H1170 C1147 0.950 . S
H1171 C1149 0.950 . S
C1172 C1173 1.349 . S
C1172 C1174 1.327 . S
C1172 H1197 0.950 . S
C1173 C1172 1.349 . S
C1173 C1189 1.349 . S
C1174 C1172 1.327 . S
C1174 C1193 1.429 . S
C1174 H1198 0.950 . S
C1175 C1192 1.574 . S
C1175 C1194 1.368 . S
C1175 H1199 0.949 . S
H1176 C1180 0.949 . S
C1177 C1178 1.349 . S
C1177 C1179 1.327 . S
C1177 H1200 0.950 . S
C1178 C1177 1.349 . S
C1178 C1190 1.349 . S
C1179 C1177 1.327 . S
C1179 C1195 1.429 . S
C1179 H1201 0.950 . S
C1180 H1176 0.949 . S
C1180 C1188 1.574 . S
C1180 C1196 1.368 . S
H1181 C1189 0.950 . S
H1182 C1187 0.950 . S
H1183 C1188 0.949 . S
H1184 C1190 0.950 . S
H1185 C1191 0.950 . S
H1186 C1192 0.949 . S
C1187 H1182 0.950 . S
C1187 C1189 1.327 . S
C1187 C1193 1.429 . S
C1188 C1180 1.574 . S
C1188 H1183 0.949 . S
C1188 C1194 1.368 . S
C1189 C1173 1.349 . S
C1189 H1181 0.950 . S
C1189 C1187 1.327 . S
C1190 C1178 1.349 . S
C1190 H1184 0.950 . S
C1190 C1191 1.327 . S
C1191 H1185 0.950 . S
C1191 C1190 1.327 . S
C1191 C1195 1.429 . S
C1192 C1175 1.574 . S
C1192 H1186 0.949 . S
C1192 C1196 1.368 . S
C1193 C1174 1.429 . S
C1193 C1187 1.429 . S
C1193 C1194 1.523 . S
C1194 C1175 1.368 . S
C1194 C1188 1.368 . S
C1194 C1193 1.523 . S
C1195 C1179 1.429 . S
C1195 C1191 1.429 . S
C1195 C1196 1.523 . S
C1196 C1180 1.368 . S
C1196 C1192 1.368 . S
C1196 C1195 1.523 . S
H1197 C1172 0.950 . S
H1198 C1174 0.950 . S
H1199 C1175 0.949 . S
H1200 C1177 0.950 . S
H1201 C1179 0.950 . S
C1202 C1203 1.349 . S
C1202 C1204 1.327 . S
C1202 H1227 0.950 . S
C1203 C1202 1.349 . S
C1203 C1219 1.349 . S
C1204 C1202 1.327 . S
C1204 C1223 1.429 . S
C1204 H1228 0.950 . S
C1205 C1222 1.574 . S
C1205 C1224 1.368 . S
C1205 H1229 0.949 . S
H1206 C1210 0.949 . S
C1207 C1208 1.349 . S
C1207 C1209 1.327 . S
C1207 H1230 0.950 . S
C1208 C1207 1.349 . S
C1208 C1220 1.349 . S
C1209 C1207 1.327 . S
C1209 C1225 1.429 . S
C1209 H1231 0.950 . S
C1210 H1206 0.949 . S
C1210 C1218 1.574 . S
C1210 C1226 1.368 . S
H1211 C1219 0.950 . S
H1212 C1217 0.950 . S
H1213 C1218 0.949 . S
H1214 C1220 0.950 . S
H1215 C1221 0.950 . S
H1216 C1222 0.949 . S
C1217 H1212 0.950 . S
C1217 C1219 1.327 . S
C1217 C1223 1.429 . S
C1218 C1210 1.574 . S
C1218 H1213 0.949 . S
C1218 C1224 1.368 . S
C1219 C1203 1.349 . S
C1219 H1211 0.950 . S
C1219 C1217 1.327 . S
C1220 C1208 1.349 . S
C1220 H1214 0.950 . S
C1220 C1221 1.327 . S
C1221 H1215 0.950 . S
C1221 C1220 1.327 . S
C1221 C1225 1.429 . S
C1222 C1205 1.574 . S
C1222 H1216 0.949 . S
C1222 C1226 1.368 . S
C1223 C1204 1.429 . S
C1223 C1217 1.429 . S
C1223 C1224 1.523 . S
C1224 C1205 1.368 . S
C1224 C1218 1.368 . S
C1224 C1223 1.523 . S
C1225 C1209 1.429 . S
C1225 C1221 1.429 . S
C1225 C1226 1.523 . S
C1226 C1210 1.368 . S
C1226 C1222 1.368 . S
C1226 C1225 1.523 . S
H1227 C1202 0.950 . S
H1228 C1204 0.950 . S
H1229 C1205 0.949 . S
H1230 C1207 0.950 . S
H1231 C1209 0.950 . S
C1232 C1233 1.349 . S
C1232 C1234 1.327 . S
C1232 H1257 0.950 . S
C1233 C1232 1.349 . S
C1233 C1249 1.349 . S
C1234 C1232 1.327 . S
C1234 C1253 1.429 . S
C1234 H1258 0.950 . S
C1235 C1252 1.574 . S
C1235 C1254 1.368 . S
C1235 H1259 0.949 . S
H1236 C1240 0.949 . S
C1237 C1238 1.349 . S
C1237 C1239 1.327 . S
C1237 H1260 0.950 . S
C1238 C1237 1.349 . S
C1238 C1250 1.349 . S
C1239 C1237 1.327 . S
C1239 C1255 1.429 . S
C1239 H1261 0.950 . S
C1240 H1236 0.949 . S
C1240 C1248 1.574 . S
C1240 C1256 1.368 . S
H1241 C1249 0.950 . S
H1242 C1247 0.950 . S
H1243 C1248 0.949 . S
H1244 C1250 0.950 . S
H1245 C1251 0.950 . S
H1246 C1252 0.949 . S
C1247 H1242 0.950 . S
C1247 C1249 1.327 . S
C1247 C1253 1.429 . S
C1248 C1240 1.574 . S
C1248 H1243 0.949 . S
C1248 C1254 1.368 . S
C1249 C1233 1.349 . S
C1249 H1241 0.950 . S
C1249 C1247 1.327 . S
C1250 C1238 1.349 . S
C1250 H1244 0.950 . S
C1250 C1251 1.327 . S
C1251 H1245 0.950 . S
C1251 C1250 1.327 . S
C1251 C1255 1.429 . S
C1252 C1235 1.574 . S
C1252 H1246 0.949 . S
C1252 C1256 1.368 . S
C1253 C1234 1.429 . S
C1253 C1247 1.429 . S
C1253 C1254 1.523 . S
C1254 C1235 1.368 . S
C1254 C1248 1.368 . S
C1254 C1253 1.523 . S
C1255 C1239 1.429 . S
C1255 C1251 1.429 . S
C1255 C1256 1.523 . S
C1256 C1240 1.368 . S
C1256 C1252 1.368 . S
C1256 C1255 1.523 . S
H1257 C1232 0.950 . S
H1258 C1234 0.950 . S
H1259 C1235 0.949 . S
H1260 C1237 0.950 . S
H1261 C1239 0.950 . S
C1262 C1263 1.349 . S
C1262 C1264 1.327 . S
C1262 H1287 0.950 . S
C1263 C1262 1.349 . S
C1263 C1279 1.349 . S
C1264 C1262 1.327 . S
C1264 C1283 1.429 . S
C1264 H1288 0.950 . S
C1265 C1282 1.574 . S
C1265 C1284 1.368 . S
C1265 H1289 0.949 . S
H1266 C1270 0.949 . S
C1267 C1268 1.349 . S
C1267 C1269 1.327 . S
C1267 H1290 0.950 . S
C1268 C1267 1.349 . S
C1268 C1280 1.349 . S
C1269 C1267 1.327 . S
C1269 C1285 1.429 . S
C1269 H1291 0.950 . S
C1270 H1266 0.949 . S
C1270 C1278 1.574 . S
C1270 C1286 1.368 . S
H1271 C1279 0.950 . S
H1272 C1277 0.950 . S
H1273 C1278 0.949 . S
H1274 C1280 0.950 . S
H1275 C1281 0.950 . S
H1276 C1282 0.949 . S
C1277 H1272 0.950 . S
C1277 C1279 1.327 . S
C1277 C1283 1.429 . S
C1278 C1270 1.574 . S
C1278 H1273 0.949 . S
C1278 C1284 1.368 . S
C1279 C1263 1.349 . S
C1279 H1271 0.950 . S
C1279 C1277 1.327 . S
C1280 C1268 1.349 . S
C1280 H1274 0.950 . S
C1280 C1281 1.327 . S
C1281 H1275 0.950 . S
C1281 C1280 1.327 . S
C1281 C1285 1.429 . S
C1282 C1265 1.574 . S
C1282 H1276 0.949 . S
C1282 C1286 1.368 . S
C1283 C1264 1.429 . S
C1283 C1277 1.429 . S
C1283 C1284 1.523 . S
C1284 C1265 1.368 . S
C1284 C1278 1.368 . S
C1284 C1283 1.523 . S
C1285 C1269 1.429 . S
C1285 C1281 1.429 . S
C1285 C1286 1.523 . S
C1286 C1270 1.368 . S
C1286 C1282 1.368 . S
C1286 C1285 1.523 . S
H1287 C1262 0.950 . S
H1288 C1264 0.950 . S
H1289 C1265 0.949 . S
H1290 C1267 0.950 . S
H1291 C1269 0.950 . S
C1292 C1293 1.349 . S
C1292 C1294 1.327 . S
C1292 H1317 0.950 . S
C1293 C1292 1.349 . S
C1293 C1309 1.349 . S
C1294 C1292 1.327 . S
C1294 C1313 1.429 . S
C1294 H1318 0.950 . S
C1295 C1312 1.574 . S
C1295 C1314 1.368 . S
C1295 H1319 0.949 . S
H1296 C1300 0.949 . S
C1297 C1298 1.349 . S
C1297 C1299 1.327 . S
C1297 H1320 0.950 . S
C1298 C1297 1.349 . S
C1298 C1310 1.349 . S
C1299 C1297 1.327 . S
C1299 C1315 1.429 . S
C1299 H1321 0.950 . S
C1300 H1296 0.949 . S
C1300 C1308 1.574 . S
C1300 C1316 1.368 . S
H1301 C1309 0.950 . S
H1302 C1307 0.950 . S
H1303 C1308 0.949 . S
H1304 C1310 0.950 . S
H1305 C1311 0.950 . S
H1306 C1312 0.949 . S
C1307 H1302 0.950 . S
C1307 C1309 1.327 . S
C1307 C1313 1.429 . S
C1308 C1300 1.574 . S
C1308 H1303 0.949 . S
C1308 C1314 1.368 . S
C1309 C1293 1.349 . S
C1309 H1301 0.950 . S
C1309 C1307 1.327 . S
C1310 C1298 1.349 . S
C1310 H1304 0.950 . S
C1310 C1311 1.327 . S
C1311 H1305 0.950 . S
C1311 C1310 1.327 . S
C1311 C1315 1.429 . S
C1312 C1295 1.574 . S
C1312 H1306 0.949 . S
C1312 C1316 1.368 . S
C1313 C1294 1.429 . S
C1313 C1307 1.429 . S
C1313 C1314 1.523 . S
C1314 C1295 1.368 . S
C1314 C1308 1.368 . S
C1314 C1313 1.523 . S
C1315 C1299 1.429 . S
C1315 C1311 1.429 . S
C1315 C1316 1.523 . S
C1316 C1300 1.368 . S
C1316 C1312 1.368 . S
C1316 C1315 1.523 . S
H1317 C1292 0.950 . S
H1318 C1294 0.950 . S
H1319 C1295 0.949 . S
H1320 C1297 0.950 . S
H1321 C1299 0.950 . S
C1322 C1323 1.349 . S
C1322 C1324 1.327 . S
C1322 H1347 0.950 . S
C1323 C1322 1.349 . S
C1323 C1339 1.349 . S
C1324 C1322 1.327 . S
C1324 C1343 1.429 . S
C1324 H1348 0.950 . S
C1325 C1342 1.574 . S
C1325 C1344 1.368 . S
C1325 H1349 0.949 . S
H1326 C1330 0.949 . S
C1327 C1328 1.349 . S
C1327 C1329 1.327 . S
C1327 H1350 0.950 . S
C1328 C1327 1.349 . S
C1328 C1340 1.349 . S
C1329 C1327 1.327 . S
C1329 C1345 1.429 . S
C1329 H1351 0.950 . S
C1330 H1326 0.949 . S
C1330 C1338 1.574 . S
C1330 C1346 1.368 . S
H1331 C1339 0.950 . S
H1332 C1337 0.950 . S
H1333 C1338 0.949 . S
H1334 C1340 0.950 . S
H1335 C1341 0.950 . S
H1336 C1342 0.949 . S
C1337 H1332 0.950 . S
C1337 C1339 1.327 . S
C1337 C1343 1.429 . S
C1338 C1330 1.574 . S
C1338 H1333 0.949 . S
C1338 C1344 1.368 . S
C1339 C1323 1.349 . S
C1339 H1331 0.950 . S
C1339 C1337 1.327 . S
C1340 C1328 1.349 . S
C1340 H1334 0.950 . S
C1340 C1341 1.327 . S
C1341 H1335 0.950 . S
C1341 C1340 1.327 . S
C1341 C1345 1.429 . S
C1342 C1325 1.574 . S
C1342 H1336 0.949 . S
C1342 C1346 1.368 . S
C1343 C1324 1.429 . S
C1343 C1337 1.429 . S
C1343 C1344 1.523 . S
C1344 C1325 1.368 . S
C1344 C1338 1.368 . S
C1344 C1343 1.523 . S
C1345 C1329 1.429 . S
C1345 C1341 1.429 . S
C1345 C1346 1.523 . S
C1346 C1330 1.368 . S
C1346 C1342 1.368 . S
C1346 C1345 1.523 . S
H1347 C1322 0.950 . S
H1348 C1324 0.950 . S
H1349 C1325 0.949 . S
H1350 C1327 0.950 . S
H1351 C1329 0.950 . S
C1352 C1353 1.349 . S
C1352 C1354 1.327 . S
C1352 H1377 0.950 1_556 S
C1353 C1352 1.349 . S
C1353 C1369 1.349 . S
C1354 C1352 1.327 . S
C1354 C1373 1.429 . S
C1354 H1378 0.950 1_556 S
C1355 C1372 1.574 . S
C1355 C1374 1.368 . S
C1355 H1379 0.949 . S
H1356 C1360 0.945 1_554 S
C1357 C1358 1.349 . S
C1357 C1359 1.327 . S
C1357 H1380 0.950 . S
C1358 C1357 1.349 . S
C1358 C1370 1.349 . S
C1359 C1357 1.327 . S
C1359 C1375 1.429 . S
C1359 H1381 0.950 . S
C1360 H1356 0.945 1_556 S
C1360 C1368 1.574 . S
C1360 C1376 1.368 . S
H1361 C1369 0.950 . S
H1362 C1367 0.950 . S
H1363 C1368 0.949 1_554 S
H1364 C1370 0.950 . S
H1365 C1371 0.950 . S
H1366 C1372 0.949 . S
C1367 H1362 0.950 . S
C1367 C1369 1.327 . S
C1367 C1373 1.429 . S
C1368 C1360 1.574 . S
C1368 H1363 0.949 1_556 S
C1368 C1374 1.368 . S
C1369 C1353 1.349 . S
C1369 H1361 0.950 . S
C1369 C1367 1.327 . S
C1370 C1358 1.349 . S
C1370 H1364 0.950 . S
C1370 C1371 1.327 . S
C1371 H1365 0.950 . S
C1371 C1370 1.327 . S
C1371 C1375 1.429 . S
C1372 C1355 1.574 . S
C1372 H1366 0.949 . S
C1372 C1376 1.368 . S
C1373 C1354 1.429 . S
C1373 C1367 1.429 . S
C1373 C1374 1.523 1_655 S
C1374 C1355 1.368 . S
C1374 C1368 1.368 . S
C1374 C1373 1.523 1_455 S
C1375 C1359 1.429 . S
C1375 C1371 1.429 . S
C1375 C1376 1.523 . S
C1376 C1360 1.368 . S
C1376 C1372 1.368 . S
C1376 C1375 1.523 . S
H1377 C1352 0.950 1_554 S
H1378 C1354 0.950 1_554 S
H1379 C1355 0.949 . S
H1380 C1357 0.950 . S
H1381 C1359 0.950 . S
C1382 C1383 1.349 . S
C1382 C1384 1.327 . S
C1382 H1407 0.950 . S
C1383 C1382 1.349 . S
C1383 C1399 1.349 . S
C1384 C1382 1.327 . S
C1384 C1403 1.429 . S
C1384 H1408 0.950 . S
C1385 C1402 1.574 . S
C1385 C1404 1.368 . S
C1385 H1409 0.949 . S
H1386 C1390 0.949 . S
C1387 C1388 1.349 . S
C1387 C1389 1.327 . S
C1387 H1410 0.950 . S
C1388 C1387 1.349 . S
C1388 C1400 1.349 . S
C1389 C1387 1.327 . S
C1389 C1405 1.429 . S
C1389 H1411 0.950 . S
C1390 H1386 0.949 . S
C1390 C1398 1.574 . S
C1390 C1406 1.368 . S
H1391 C1399 0.950 . S
H1392 C1397 0.950 . S
H1393 C1398 0.949 . S
H1394 C1400 0.950 . S
H1395 C1401 0.950 . S
H1396 C1402 0.949 . S
C1397 H1392 0.950 . S
C1397 C1399 1.327 . S
C1397 C1403 1.429 . S
C1398 C1390 1.574 . S
C1398 H1393 0.949 . S
C1398 C1404 1.368 . S
C1399 C1383 1.349 . S
C1399 H1391 0.950 . S
C1399 C1397 1.327 . S
C1400 C1388 1.349 . S
C1400 H1394 0.950 . S
C1400 C1401 1.327 . S
C1401 H1395 0.950 . S
C1401 C1400 1.327 . S
C1401 C1405 1.429 . S
C1402 C1385 1.574 . S
C1402 H1396 0.949 . S
C1402 C1406 1.368 . S
C1403 C1384 1.429 . S
C1403 C1397 1.429 . S
C1403 C1404 1.523 . S
C1404 C1385 1.368 . S
C1404 C1398 1.368 . S
C1404 C1403 1.523 . S
C1405 C1389 1.429 . S
C1405 C1401 1.429 . S
C1405 C1406 1.523 . S
C1406 C1390 1.368 . S
C1406 C1402 1.368 . S
C1406 C1405 1.523 . S
H1407 C1382 0.950 . S
H1408 C1384 0.950 . S
H1409 C1385 0.949 . S
H1410 C1387 0.950 . S
H1411 C1389 0.950 . S
C1412 C1413 1.349 . S
C1412 C1414 1.327 . S
C1412 H1437 0.950 . S
C1413 C1412 1.349 . S
C1413 C1429 1.349 . S
C1414 C1412 1.327 . S
C1414 C1433 1.429 . S
C1414 H1438 0.950 . S
C1415 C1432 1.574 . S
C1415 C1434 1.368 . S
C1415 H1439 0.949 . S
H1416 C1420 0.949 . S
C1417 C1418 1.349 . S
C1417 C1419 1.327 . S
C1417 H1440 0.950 . S
C1418 C1417 1.349 . S
C1418 C1430 1.349 . S
C1419 C1417 1.327 . S
C1419 C1435 1.429 . S
C1419 H1441 0.950 . S
C1420 H1416 0.949 . S
C1420 C1428 1.574 . S
C1420 C1436 1.368 . S
H1421 C1429 0.950 . S
H1422 C1427 0.950 . S
H1423 C1428 0.949 . S
H1424 C1430 0.950 . S
H1425 C1431 0.950 . S
H1426 C1432 0.949 . S
C1427 H1422 0.950 . S
C1427 C1429 1.327 . S
C1427 C1433 1.429 . S
C1428 C1420 1.574 . S
C1428 H1423 0.949 . S
C1428 C1434 1.368 . S
C1429 C1413 1.349 . S
C1429 H1421 0.950 . S
C1429 C1427 1.327 . S
C1430 C1418 1.349 . S
C1430 H1424 0.950 . S
C1430 C1431 1.327 . S
C1431 H1425 0.950 . S
C1431 C1430 1.327 . S
C1431 C1435 1.429 . S
C1432 C1415 1.574 . S
C1432 H1426 0.949 . S
C1432 C1436 1.368 . S
C1433 C1414 1.429 . S
C1433 C1427 1.429 . S
C1433 C1434 1.523 . S
C1434 C1415 1.368 . S
C1434 C1428 1.368 . S
C1434 C1433 1.523 . S
C1435 C1419 1.429 . S
C1435 C1431 1.429 . S
C1435 C1436 1.523 . S
C1436 C1420 1.368 . S
C1436 C1432 1.368 . S
C1436 C1435 1.523 . S
H1437 C1412 0.950 . S
H1438 C1414 0.950 . S
H1439 C1415 0.949 . S
H1440 C1417 0.950 . S
H1441 C1419 0.950 . S
C1442 C1443 1.349 . S
C1442 C1444 1.327 . S
C1442 H1467 0.950 . S
C1443 C1442 1.349 . S
C1443 C1459 1.349 . S
C1444 C1442 1.327 . S
C1444 C1463 1.429 . S
C1444 H1468 0.950 . S
C1445 C1462 1.574 . S
C1445 C1464 1.368 . S
C1445 H1469 0.949 1_554 S
H1446 C1450 0.949 . S
C1447 C1448 1.349 . S
C1447 C1449 1.327 . S
C1447 H1470 0.950 . S
C1448 C1447 1.349 . S
C1448 C1460 1.349 . S
C1449 C1447 1.327 . S
C1449 C1465 1.429 . S
C1449 H1471 0.950 . S
C1450 H1446 0.949 . S
C1450 C1458 1.574 . S
C1450 C1466 1.368 . S
H1451 C1459 0.950 1_556 S
H1452 C1457 0.950 1_556 S
H1453 C1458 0.949 . S
H1454 C1460 0.950 . S
H1455 C1461 0.950 . S
H1456 C1462 0.949 . S
C1457 H1452 0.950 1_554 S
C1457 C1459 1.327 . S
C1457 C1463 1.429 . S
C1458 C1450 1.574 . S
C1458 H1453 0.949 . S
C1458 C1464 1.368 . S
C1459 C1443 1.349 . S
C1459 H1451 0.950 1_554 S
C1459 C1457 1.327 . S
C1460 C1448 1.349 . S
C1460 H1454 0.950 . S
C1460 C1461 1.327 . S
C1461 H1455 0.950 . S
C1461 C1460 1.327 . S
C1461 C1465 1.429 . S
C1462 C1445 1.574 . S
C1462 H1456 0.949 . S
C1462 C1466 1.368 . S
C1463 C1444 1.429 . S
C1463 C1457 1.429 . S
C1463 C1464 1.523 1_455 S
C1464 C1445 1.368 . S
C1464 C1458 1.368 . S
C1464 C1463 1.523 1_655 S
C1465 C1449 1.429 . S
C1465 C1461 1.429 . S
C1465 C1466 1.523 . S
C1466 C1450 1.368 . S
C1466 C1462 1.368 . S
C1466 C1465 1.523 . S
H1467 C1442 0.950 . S
H1468 C1444 0.950 . S
H1469 C1445 0.949 1_556 S
H1470 C1447 0.950 . S
H1471 C1449 0.950 . S
C1472 C1473 1.349 . S
C1472 C1474 1.327 1_554 S
C1472 H1497 0.950 1_554 S
C1473 C1472 1.349 . S
C1473 C1489 1.349 . S
C1474 C1472 1.327 1_556 S
C1474 C1493 1.429 1_556 S
C1474 H1498 0.950 . S
C1475 C1492 1.574 . S
C1475 C1494 1.368 . S
C1475 H1499 0.949 . S
H1476 C1480 0.949 . S
C1477 C1478 1.349 . S
C1477 C1479 1.327 . S
C1477 H1500 0.950 1_556 S
C1478 C1477 1.349 . S
C1478 C1490 1.349 . S
C1479 C1477 1.327 . S
C1479 C1495 1.429 . S
C1479 H1501 0.950 1_556 S
C1480 H1476 0.949 . S
C1480 C1488 1.574 . S
C1480 C1496 1.368 . S
H1481 C1489 0.950 . S
H1482 C1487 0.950 . S
H1483 C1488 0.949 . S
H1484 C1490 0.950 . S
H1485 C1491 0.950 . S
H1486 C1492 0.949 . S
C1487 H1482 0.950 . S
C1487 C1489 1.327 . S
C1487 C1493 1.429 . S
C1488 C1480 1.574 . S
C1488 H1483 0.949 . S
C1488 C1494 1.368 1_556 S
C1489 C1473 1.349 . S
C1489 H1481 0.950 . S
C1489 C1487 1.327 . S
C1490 C1478 1.349 . S
C1490 H1484 0.950 . S
C1490 C1491 1.327 . S
C1491 H1485 0.950 . S
C1491 C1490 1.327 . S
C1491 C1495 1.429 . S
C1492 C1475 1.574 . S
C1492 H1486 0.949 . S
C1492 C1496 1.368 1_554 S
C1493 C1474 1.429 1_554 S
C1493 C1487 1.429 . S
C1493 C1494 1.523 . S
C1494 C1475 1.368 . S
C1494 C1488 1.368 1_554 S
C1494 C1493 1.523 . S
C1495 C1479 1.429 . S
C1495 C1491 1.429 . S
C1495 C1496 1.523 . S
C1496 C1480 1.368 . S
C1496 C1492 1.368 1_556 S
C1496 C1495 1.523 . S
H1497 C1472 0.950 1_556 S
H1498 C1474 0.950 . S
H1499 C1475 0.949 . S
H1500 C1477 0.950 1_554 S
H1501 C1479 0.950 1_554 S
C1502 C1503 1.349 . S
C1502 C1504 1.327 . S
C1502 H1527 0.950 . S
C1503 C1502 1.349 . S
C1503 C1519 1.349 . S
C1504 C1502 1.327 . S
C1504 C1523 1.429 . S
C1504 H1528 0.950 . S
C1505 C1522 1.574 . S
C1505 C1524 1.368 . S
C1505 H1529 0.949 . S
H1506 C1510 0.949 . S
C1507 C1508 1.349 . S
C1507 C1509 1.327 . S
C1507 H1530 0.950 . S
C1508 C1507 1.349 . S
C1508 C1520 1.349 . S
C1509 C1507 1.327 . S
C1509 C1525 1.429 . S
C1509 H1531 0.950 . S
C1510 H1506 0.949 . S
C1510 C1518 1.574 . S
C1510 C1526 1.368 . S
H1511 C1519 0.950 . S
H1512 C1517 0.950 . S
H1513 C1518 0.949 . S
H1514 C1520 0.950 . S
H1515 C1521 0.950 . S
H1516 C1522 0.949 . S
C1517 H1512 0.950 . S
C1517 C1519 1.327 . S
C1517 C1523 1.429 . S
C1518 C1510 1.574 . S
C1518 H1513 0.949 . S
C1518 C1524 1.368 . S
C1519 C1503 1.349 . S
C1519 H1511 0.950 . S
C1519 C1517 1.327 . S
C1520 C1508 1.349 . S
C1520 H1514 0.950 . S
C1520 C1521 1.327 . S
C1521 H1515 0.950 . S
C1521 C1520 1.327 . S
C1521 C1525 1.429 . S
C1522 C1505 1.574 . S
C1522 H1516 0.949 . S
C1522 C1526 1.368 . S
C1523 C1504 1.429 . S
C1523 C1517 1.429 . S
C1523 C1524 1.523 . S
C1524 C1505 1.368 . S
C1524 C1518 1.368 . S
C1524 C1523 1.523 . S
C1525 C1509 1.429 . S
C1525 C1521 1.429 . S
C1525 C1526 1.523 . S
C1526 C1510 1.368 . S
C1526 C1522 1.368 . S
C1526 C1525 1.523 . S
H1527 C1502 0.950 . S
H1528 C1504 0.950 . S
H1529 C1505 0.949 . S
H1530 C1507 0.950 . S
H1531 C1509 0.950 . S
C1532 C1533 1.349 . S
C1532 C1534 1.327 . S
C1532 H1557 0.950 . S
C1533 C1532 1.349 . S
C1533 C1549 1.349 . S
C1534 C1532 1.327 . S
C1534 C1553 1.429 . S
C1534 H1558 0.950 . S
C1535 C1552 1.574 . S
C1535 C1554 1.368 . S
C1535 H1559 0.949 . S
H1536 C1540 0.949 . S
C1537 C1538 1.349 . S
C1537 C1539 1.327 . S
C1537 H1560 0.950 . S
C1538 C1537 1.349 . S
C1538 C1550 1.349 . S
C1539 C1537 1.327 . S
C1539 C1555 1.429 . S
C1539 H1561 0.950 . S
C1540 H1536 0.949 . S
C1540 C1548 1.574 . S
C1540 C1556 1.368 . S
H1541 C1549 0.950 . S
H1542 C1547 0.950 . S
H1543 C1548 0.949 . S
H1544 C1550 0.950 . S
H1545 C1551 0.950 . S
H1546 C1552 0.949 . S
C1547 H1542 0.950 . S
C1547 C1549 1.327 . S
C1547 C1553 1.429 . S
C1548 C1540 1.574 . S
C1548 H1543 0.949 . S
C1548 C1554 1.368 . S
C1549 C1533 1.349 . S
C1549 H1541 0.950 . S
C1549 C1547 1.327 . S
C1550 C1538 1.349 . S
C1550 H1544 0.950 . S
C1550 C1551 1.327 . S
C1551 H1545 0.950 . S
C1551 C1550 1.327 . S
C1551 C1555 1.429 . S
C1552 C1535 1.574 . S
C1552 H1546 0.949 . S
C1552 C1556 1.368 . S
C1553 C1534 1.429 . S
C1553 C1547 1.429 . S
C1553 C1554 1.523 . S
C1554 C1535 1.368 . S
C1554 C1548 1.368 . S
C1554 C1553 1.523 . S
C1555 C1539 1.429 . S
C1555 C1551 1.429 . S
C1555 C1556 1.523 . S
C1556 C1540 1.368 . S
C1556 C1552 1.368 . S
C1556 C1555 1.523 . S
H1557 C1532 0.950 . S
H1558 C1534 0.950 . S
H1559 C1535 0.949 . S
H1560 C1537 0.950 . S
H1561 C1539 0.950 . S
C1562 C1563 1.349 . S
C1562 C1564 1.327 . S
C1562 H1587 0.950 . S
C1563 C1562 1.349 . S
C1563 C1579 1.349 . S
C1564 C1562 1.327 . S
C1564 C1583 1.429 . S
C1564 H1588 0.950 . S
C1565 C1582 1.574 . S
C1565 C1584 1.368 . S
C1565 H1589 0.949 . S
H1566 C1570 0.949 . S
C1567 C1568 1.349 . S
C1567 C1569 1.327 . S
C1567 H1590 0.950 . S
C1568 C1567 1.349 . S
C1568 C1580 1.349 . S
C1569 C1567 1.327 . S
C1569 C1585 1.429 . S
C1569 H1591 0.950 . S
C1570 H1566 0.949 . S
C1570 C1578 1.574 . S
C1570 C1586 1.368 . S
H1571 C1579 0.950 . S
H1572 C1577 0.950 . S
H1573 C1578 0.949 . S
H1574 C1580 0.950 . S
H1575 C1581 0.950 . S
H1576 C1582 0.949 . S
C1577 H1572 0.950 . S
C1577 C1579 1.327 . S
C1577 C1583 1.429 . S
C1578 C1570 1.574 . S
C1578 H1573 0.949 . S
C1578 C1584 1.368 . S
C1579 C1563 1.349 . S
C1579 H1571 0.950 . S
C1579 C1577 1.327 . S
C1580 C1568 1.349 . S
C1580 H1574 0.950 . S
C1580 C1581 1.327 . S
C1581 H1575 0.950 . S
C1581 C1580 1.327 . S
C1581 C1585 1.429 . S
C1582 C1565 1.574 . S
C1582 H1576 0.949 . S
C1582 C1586 1.368 . S
C1583 C1564 1.429 . S
C1583 C1577 1.429 . S
C1583 C1584 1.523 . S
C1584 C1565 1.368 . S
C1584 C1578 1.368 . S
C1584 C1583 1.523 . S
C1585 C1569 1.429 . S
C1585 C1581 1.429 . S
C1585 C1586 1.523 . S
C1586 C1570 1.368 . S
C1586 C1582 1.368 . S
C1586 C1585 1.523 . S
H1587 C1562 0.950 . S
H1588 C1564 0.950 . S
H1589 C1565 0.949 . S
H1590 C1567 0.950 . S
H1591 C1569 0.950 . S
C1592 C1593 1.349 . S
C1592 C1594 1.327 . S
C1592 H1617 0.950 . S
C1593 C1592 1.349 . S
C1593 C1609 1.349 . S
C1594 C1592 1.327 . S
C1594 C1613 1.429 . S
C1594 H1618 0.950 . S
C1595 C1612 1.574 . S
C1595 C1614 1.368 1_556 S
C1595 H1619 0.949 . S
H1596 C1600 0.949 . S
C1597 C1598 1.349 . S
C1597 C1599 1.327 . S
C1597 H1620 0.950 . S
C1598 C1597 1.349 . S
C1598 C1610 1.349 . S
C1599 C1597 1.327 . S
C1599 C1615 1.429 . S
C1599 H1621 0.950 . S
C1600 H1596 0.949 . S
C1600 C1608 1.574 . S
C1600 C1616 1.368 1_554 S
H1601 C1609 0.950 1_556 S
H1602 C1607 0.950 . S
H1603 C1608 0.949 . S
H1604 C1610 0.950 1_554 S
H1605 C1611 0.950 . S
H1606 C1612 0.949 . S
C1607 H1602 0.950 . S
C1607 C1609 1.327 1_556 S
C1607 C1613 1.429 1_556 S
C1608 C1600 1.574 . S
C1608 H1603 0.949 . S
C1608 C1614 1.368 . S
C1609 C1593 1.349 . S
C1609 H1601 0.950 1_554 S
C1609 C1607 1.327 1_554 S
C1610 C1598 1.349 . S
C1610 H1604 0.950 1_556 S
C1610 C1611 1.327 1_556 S
C1611 H1605 0.950 . S
C1611 C1610 1.327 1_554 S
C1611 C1615 1.429 1_554 S
C1612 C1595 1.574 . S
C1612 H1606 0.949 . S
C1612 C1616 1.368 . S
C1613 C1594 1.429 . S
C1613 C1607 1.429 1_554 S
C1613 C1614 1.523 . S
C1614 C1595 1.368 1_554 S
C1614 C1608 1.368 . S
C1614 C1613 1.523 . S
C1615 C1599 1.429 . S
C1615 C1611 1.429 1_556 S
C1615 C1616 1.523 . S
C1616 C1600 1.368 1_556 S
C1616 C1612 1.368 . S
C1616 C1615 1.523 . S
H1617 C1592 0.950 . S
H1618 C1594 0.950 . S
H1619 C1595 0.949 . S
H1620 C1597 0.950 . S
H1621 C1599 0.950 . S
C1622 C1623 1.349 . S
C1622 C1624 1.327 . S
C1622 H1647 0.950 . S
C1623 C1622 1.349 . S
C1623 C1639 1.349 . S
C1624 C1622 1.327 . S
C1624 C1643 1.429 . S
C1624 H1648 0.950 . S
C1625 C1642 1.574 . S
C1625 C1644 1.368 . S
C1625 H1649 0.949 . S
H1626 C1630 0.949 . S
C1627 C1628 1.349 . S
C1627 C1629 1.327 . S
C1627 H1650 0.950 . S
C1628 C1627 1.349 . S
C1628 C1640 1.349 . S
C1629 C1627 1.327 . S
C1629 C1645 1.429 . S
C1629 H1651 0.950 . S
C1630 H1626 0.949 . S
C1630 C1638 1.574 . S
C1630 C1646 1.368 . S
H1631 C1639 0.950 . S
H1632 C1637 0.950 . S
H1633 C1638 0.949 . S
H1634 C1640 0.950 . S
H1635 C1641 0.950 . S
H1636 C1642 0.949 . S
C1637 H1632 0.950 . S
C1637 C1639 1.327 . S
C1637 C1643 1.429 . S
C1638 C1630 1.574 . S
C1638 H1633 0.949 . S
C1638 C1644 1.368 . S
C1639 C1623 1.349 . S
C1639 H1631 0.950 . S
C1639 C1637 1.327 . S
C1640 C1628 1.349 . S
C1640 H1634 0.950 . S
C1640 C1641 1.327 . S
C1641 H1635 0.950 . S
C1641 C1640 1.327 . S
C1641 C1645 1.429 . S
C1642 C1625 1.574 . S
C1642 H1636 0.949 . S
C1642 C1646 1.368 . S
C1643 C1624 1.429 . S
C1643 C1637 1.429 . S
C1643 C1644 1.523 . S
C1644 C1625 1.368 . S
C1644 C1638 1.368 . S
C1644 C1643 1.523 . S
C1645 C1629 1.429 . S
C1645 C1641 1.429 . S
C1645 C1646 1.523 . S
C1646 C1630 1.368 . S
C1646 C1642 1.368 . S
C1646 C1645 1.523 . S
H1647 C1622 0.950 . S
H1648 C1624 0.950 . S
H1649 C1625 0.949 . S
H1650 C1627 0.950 . S
H1651 C1629 0.950 . S
C1652 C1653 1.349 . S
C1652 C1654 1.327 . S
C1652 H1677 0.950 . S
C1653 C1652 1.349 . S
C1653 C1669 1.349 . S
C1654 C1652 1.327 . S
C1654 C1673 1.429 . S
C1654 H1678 0.950 . S
C1655 C1672 1.574 . S
C1655 C1674 1.368 . S
C1655 H1679 0.949 . S
H1656 C1660 0.949 . S
C1657 C1658 1.349 . S
C1657 C1659 1.327 . S
C1657 H1680 0.950 . S
C1658 C1657 1.349 . S
C1658 C1670 1.349 . S
C1659 C1657 1.327 . S
C1659 C1675 1.429 . S
C1659 H1681 0.950 . S
C1660 H1656 0.949 . S
C1660 C1668 1.574 . S
C1660 C1676 1.368 . S
H1661 C1669 0.950 . S
H1662 C1667 0.950 . S
H1663 C1668 0.949 . S
H1664 C1670 0.950 . S
H1665 C1671 0.950 . S
H1666 C1672 0.949 . S
C1667 H1662 0.950 . S
C1667 C1669 1.327 . S
C1667 C1673 1.429 . S
C1668 C1660 1.574 . S
C1668 H1663 0.949 . S
C1668 C1674 1.368 . S
C1669 C1653 1.349 . S
C1669 H1661 0.950 . S
C1669 C1667 1.327 . S
C1670 C1658 1.349 . S
C1670 H1664 0.950 . S
C1670 C1671 1.327 . S
C1671 H1665 0.950 . S
C1671 C1670 1.327 . S
C1671 C1675 1.429 . S
C1672 C1655 1.574 . S
C1672 H1666 0.949 . S
C1672 C1676 1.368 . S
C1673 C1654 1.429 . S
C1673 C1667 1.429 . S
C1673 C1674 1.523 . S
C1674 C1655 1.368 . S
C1674 C1668 1.368 . S
C1674 C1673 1.523 . S
C1675 C1659 1.429 . S
C1675 C1671 1.429 . S
C1675 C1676 1.523 . S
C1676 C1660 1.368 . S
C1676 C1672 1.368 . S
C1676 C1675 1.523 . S
H1677 C1652 0.950 . S
H1678 C1654 0.950 . S
H1679 C1655 0.949 . S
H1680 C1657 0.950 . S
H1681 C1659 0.950 . S
C1682 C1683 1.349 . S
C1682 C1684 1.327 . S
C1682 H1707 0.950 . S
C1683 C1682 1.349 . S
C1683 C1699 1.349 . S
C1684 C1682 1.327 . S
C1684 C1703 1.429 . S
C1684 H1708 0.950 . S
C1685 C1702 1.574 . S
C1685 C1704 1.368 . S
C1685 H1709 0.949 . S
H1686 C1690 0.949 . S
C1687 C1688 1.349 . S
C1687 C1689 1.327 . S
C1687 H1710 0.950 . S
C1688 C1687 1.349 . S
C1688 C1700 1.349 . S
C1689 C1687 1.327 . S
C1689 C1705 1.429 . S
C1689 H1711 0.950 . S
C1690 H1686 0.949 . S
C1690 C1698 1.574 . S
C1690 C1706 1.368 . S
H1691 C1699 0.950 . S
H1692 C1697 0.950 . S
H1693 C1698 0.949 . S
H1694 C1700 0.950 . S
H1695 C1701 0.950 . S
H1696 C1702 0.949 . S
C1697 H1692 0.950 . S
C1697 C1699 1.327 . S
C1697 C1703 1.429 . S
C1698 C1690 1.574 . S
C1698 H1693 0.949 . S
C1698 C1704 1.368 . S
C1699 C1683 1.349 . S
C1699 H1691 0.950 . S
C1699 C1697 1.327 . S
C1700 C1688 1.349 . S
C1700 H1694 0.950 . S
C1700 C1701 1.327 . S
C1701 H1695 0.950 . S
C1701 C1700 1.327 . S
C1701 C1705 1.429 . S
C1702 C1685 1.574 . S
C1702 H1696 0.949 . S
C1702 C1706 1.368 . S
C1703 C1684 1.429 . S
C1703 C1697 1.429 . S
C1703 C1704 1.523 . S
C1704 C1685 1.368 . S
C1704 C1698 1.368 . S
C1704 C1703 1.523 . S
C1705 C1689 1.429 . S
C1705 C1701 1.429 . S
C1705 C1706 1.523 . S
C1706 C1690 1.368 . S
C1706 C1702 1.368 . S
C1706 C1705 1.523 . S
H1707 C1682 0.950 . S
H1708 C1684 0.950 . S
H1709 C1685 0.949 . S
H1710 C1687 0.950 . S
H1711 C1689 0.950 . S
C1712 C1713 1.349 . S
C1712 C1714 1.327 . S
C1712 H1737 0.950 . S
C1713 C1712 1.349 . S
C1713 C1729 1.349 . S
C1714 C1712 1.327 . S
C1714 C1733 1.429 . S
C1714 H1738 0.950 . S
C1715 C1732 1.574 1_565 S
C1715 C1734 1.368 . S
C1715 H1739 0.949 . S
H1716 C1720 0.949 . S
C1717 C1718 1.349 . S
C1717 C1719 1.327 . S
C1717 H1740 0.950 . S
C1718 C1717 1.349 . S
C1718 C1730 1.349 . S
C1719 C1717 1.327 . S
C1719 C1735 1.429 . S
C1719 H1741 0.950 . S
C1720 H1716 0.949 . S
C1720 C1728 1.574 1_545 S
C1720 C1736 1.368 . S
H1721 C1729 0.950 . S
H1722 C1727 0.950 . S
H1723 C1728 0.949 . S
H1724 C1730 0.950 . S
H1725 C1731 0.950 . S
H1726 C1732 0.949 . S
C1727 H1722 0.950 . S
C1727 C1729 1.327 . S
C1727 C1733 1.429 . S
C1728 C1720 1.574 1_565 S
C1728 H1723 0.949 . S
C1728 C1734 1.368 . S
C1729 C1713 1.349 . S
C1729 H1721 0.950 . S
C1729 C1727 1.327 . S
C1730 C1718 1.349 . S
C1730 H1724 0.950 . S
C1730 C1731 1.327 . S
C1731 H1725 0.950 . S
C1731 C1730 1.327 . S
C1731 C1735 1.429 . S
C1732 C1715 1.574 1_545 S
C1732 H1726 0.949 . S
C1732 C1736 1.368 . S
C1733 C1714 1.429 . S
C1733 C1727 1.429 . S
C1733 C1734 1.523 . S
C1734 C1715 1.368 . S
C1734 C1728 1.368 . S
C1734 C1733 1.523 . S
C1735 C1719 1.429 . S
C1735 C1731 1.429 . S
C1735 C1736 1.523 . S
C1736 C1720 1.368 . S
C1736 C1732 1.368 . S
C1736 C1735 1.523 . S
H1737 C1712 0.950 . S
H1738 C1714 0.950 . S
H1739 C1715 0.949 . S
H1740 C1717 0.950 . S
H1741 C1719 0.950 . S
C1742 C1743 1.349 . S
C1742 C1744 1.327 . S
C1742 H1767 0.950 . S
C1743 C1742 1.349 . S
C1743 C1759 1.349 . S
C1744 C1742 1.327 . S
C1744 C1763 1.429 . S
C1744 H1768 0.950 . S
C1745 C1762 1.574 . S
C1745 C1764 1.368 . S
C1745 H1769 0.949 . S
H1746 C1750 0.949 . S
C1747 C1748 1.349 . S
C1747 C1749 1.327 . S
C1747 H1770 0.950 . S
C1748 C1747 1.349 . S
C1748 C1760 1.349 . S
C1749 C1747 1.327 . S
C1749 C1765 1.429 . S
C1749 H1771 0.950 . S
C1750 H1746 0.949 . S
C1750 C1758 1.574 . S
C1750 C1766 1.368 . S
H1751 C1759 0.950 . S
H1752 C1757 0.950 . S
H1753 C1758 0.949 . S
H1754 C1760 0.950 . S
H1755 C1761 0.950 . S
H1756 C1762 0.949 . S
C1757 H1752 0.950 . S
C1757 C1759 1.327 . S
C1757 C1763 1.429 . S
C1758 C1750 1.574 . S
C1758 H1753 0.949 . S
C1758 C1764 1.368 . S
C1759 C1743 1.349 . S
C1759 H1751 0.950 . S
C1759 C1757 1.327 . S
C1760 C1748 1.349 . S
C1760 H1754 0.950 . S
C1760 C1761 1.327 . S
C1761 H1755 0.950 . S
C1761 C1760 1.327 . S
C1761 C1765 1.429 . S
C1762 C1745 1.574 . S
C1762 H1756 0.949 . S
C1762 C1766 1.368 . S
C1763 C1744 1.429 . S
C1763 C1757 1.429 . S
C1763 C1764 1.523 . S
C1764 C1745 1.368 . S
C1764 C1758 1.368 . S
C1764 C1763 1.523 . S
C1765 C1749 1.429 . S
C1765 C1761 1.429 . S
C1765 C1766 1.523 . S
C1766 C1750 1.368 . S
C1766 C1762 1.368 . S
C1766 C1765 1.523 . S
H1767 C1742 0.950 . S
H1768 C1744 0.950 . S
H1769 C1745 0.949 . S
H1770 C1747 0.950 . S
H1771 C1749 0.950 . S
C1772 C1773 1.349 . S
C1772 C1774 1.327 1_554 S
C1772 H1797 0.950 1_554 S
C1773 C1772 1.349 . S
C1773 C1789 1.349 . S
C1774 C1772 1.327 1_556 S
C1774 C1793 1.429 1_556 S
C1774 H1798 0.950 . S
C1775 C1792 1.574 1_565 S
C1775 C1794 1.368 . S
C1775 H1799 0.949 . S
H1776 C1780 0.949 . S
C1777 C1778 1.349 . S
C1777 C1779 1.327 1_556 S
C1777 H1800 0.950 1_556 S
C1778 C1777 1.349 . S
C1778 C1790 1.349 . S
C1779 C1777 1.327 1_554 S
C1779 C1795 1.429 1_554 S
C1779 H1801 0.950 . S
C1780 H1776 0.949 . S
C1780 C1788 1.574 1_545 S
C1780 C1796 1.368 . S
H1781 C1789 0.950 . S
H1782 C1787 0.950 . S
H1783 C1788 0.949 . S
H1784 C1790 0.950 . S
H1785 C1791 0.950 . S
H1786 C1792 0.949 . S
C1787 H1782 0.950 . S
C1787 C1789 1.327 . S
C1787 C1793 1.429 . S
C1788 C1780 1.574 1_565 S
C1788 H1783 0.949 . S
C1788 C1794 1.368 1_556 S
C1789 C1773 1.349 . S
C1789 H1781 0.950 . S
C1789 C1787 1.327 . S
C1790 C1778 1.349 . S
C1790 H1784 0.950 . S
C1790 C1791 1.327 . S
C1791 H1785 0.950 . S
C1791 C1790 1.327 . S
C1791 C1795 1.429 . S
C1792 C1775 1.574 1_545 S
C1792 H1786 0.949 . S
C1792 C1796 1.368 1_554 S
C1793 C1774 1.429 1_554 S
C1793 C1787 1.429 . S
C1793 C1794 1.523 . S
C1794 C1775 1.368 . S
C1794 C1788 1.368 1_554 S
C1794 C1793 1.523 . S
C1795 C1779 1.429 1_556 S
C1795 C1791 1.429 . S
C1795 C1796 1.523 . S
C1796 C1780 1.368 . S
C1796 C1792 1.368 1_556 S
C1796 C1795 1.523 . S
H1797 C1772 0.950 1_556 S
H1798 C1774 0.950 . S
H1799 C1775 0.949 . S
H1800 C1777 0.950 1_554 S
H1801 C1779 0.950 . S
C1802 C1803 1.349 . S
C1802 C1804 1.327 . S
C1802 H1827 0.950 . S
C1803 C1802 1.349 . S
C1803 C1819 1.349 . S
C1804 C1802 1.327 . S
C1804 C1823 1.429 . S
C1804 H1828 0.950 . S
C1805 C1822 1.574 . S
C1805 C1824 1.368 . S
C1805 H1829 0.949 . S
H1806 C1810 0.949 . S
C1807 C1808 1.349 . S
C1807 C1809 1.327 . S
C1807 H1830 0.950 . S
C1808 C1807 1.349 . S
C1808 C1820 1.349 . S
C1809 C1807 1.327 . S
C1809 C1825 1.429 . S
C1809 H1831 0.950 . S
C1810 H1806 0.949 . S
C1810 C1818 1.574 . S
C1810 C1826 1.368 . S
H1811 C1819 0.950 . S
H1812 C1817 0.950 . S
H1813 C1818 0.949 . S
H1814 C1820 0.950 . S
H1815 C1821 0.950 . S
H1816 C1822 0.949 . S
C1817 H1812 0.950 . S
C1817 C1819 1.327 . S
C1817 C1823 1.429 . S
C1818 C1810 1.574 . S
C1818 H1813 0.949 . S
C1818 C1824 1.368 . S
C1819 C1803 1.349 . S
C1819 H1811 0.950 . S
C1819 C1817 1.327 . S
C1820 C1808 1.349 . S
C1820 H1814 0.950 . S
C1820 C1821 1.327 . S
C1821 H1815 0.950 . S
C1821 C1820 1.327 . S
C1821 C1825 1.429 . S
C1822 C1805 1.574 . S
C1822 H1816 0.949 . S
C1822 C1826 1.368 . S
C1823 C1804 1.429 . S
C1823 C1817 1.429 . S
C1823 C1824 1.523 . S
C1824 C1805 1.368 . S
C1824 C1818 1.368 . S
C1824 C1823 1.523 . S
C1825 C1809 1.429 . S
C1825 C1821 1.429 . S
C1825 C1826 1.523 . S
C1826 C1810 1.368 . S
C1826 C1822 1.368 . S
C1826 C1825 1.523 . S
H1827 C1802 0.950 . S
H1828 C1804 0.950 . S
H1829 C1805 0.949 . S
H1830 C1807 0.950 . S
H1831 C1809 0.950 . S
C1832 C1833 1.349 . S
C1832 C1834 1.327 . S
C1832 H1857 0.950 . S
C1833 C1832 1.349 . S
C1833 C1849 1.349 . S
C1834 C1832 1.327 . S
C1834 C1853 1.429 . S
C1834 H1858 0.950 . S
C1835 C1852 1.574 1_565 S
C1835 C1854 1.368 . S
C1835 H1859 0.949 . S
H1836 C1840 0.949 . S
C1837 C1838 1.349 . S
C1837 C1839 1.327 . S
C1837 H1860 0.950 . S
C1838 C1837 1.349 . S
C1838 C1850 1.349 . S
C1839 C1837 1.327 . S
C1839 C1855 1.429 . S
C1839 H1861 0.950 . S
C1840 H1836 0.949 . S
C1840 C1848 1.574 1_545 S
C1840 C1856 1.368 . S
H1841 C1849 0.950 . S
H1842 C1847 0.950 . S
H1843 C1848 0.949 . S
H1844 C1850 0.950 . S
H1845 C1851 0.950 . S
H1846 C1852 0.949 . S
C1847 H1842 0.950 . S
C1847 C1849 1.327 . S
C1847 C1853 1.429 . S
C1848 C1840 1.574 1_565 S
C1848 H1843 0.949 . S
C1848 C1854 1.368 . S
C1849 C1833 1.349 . S
C1849 H1841 0.950 . S
C1849 C1847 1.327 . S
C1850 C1838 1.349 . S
C1850 H1844 0.950 . S
C1850 C1851 1.327 . S
C1851 H1845 0.950 . S
C1851 C1850 1.327 . S
C1851 C1855 1.429 . S
C1852 C1835 1.574 1_545 S
C1852 H1846 0.949 . S
C1852 C1856 1.368 . S
C1853 C1834 1.429 . S
C1853 C1847 1.429 . S
C1853 C1854 1.523 . S
C1854 C1835 1.368 . S
C1854 C1848 1.368 . S
C1854 C1853 1.523 . S
C1855 C1839 1.429 . S
C1855 C1851 1.429 . S
C1855 C1856 1.523 . S
C1856 C1840 1.368 . S
C1856 C1852 1.368 . S
C1856 C1855 1.523 . S
H1857 C1832 0.950 . S
H1858 C1834 0.950 . S
H1859 C1835 0.949 . S
H1860 C1837 0.950 . S
H1861 C1839 0.950 . S
C1862 C1863 1.349 . S
C1862 C1864 1.327 . S
C1862 H1887 0.950 . S
C1863 C1862 1.349 . S
C1863 C1879 1.349 . S
C1864 C1862 1.327 . S
C1864 C1883 1.429 . S
C1864 H1888 0.950 . S
C1865 C1882 1.574 . S
C1865 C1884 1.368 . S
C1865 H1889 0.949 . S
H1866 C1870 0.949 . S
C1867 C1868 1.349 . S
C1867 C1869 1.327 . S
C1867 H1890 0.950 . S
C1868 C1867 1.349 . S
C1868 C1880 1.349 . S
C1869 C1867 1.327 . S
C1869 C1885 1.429 . S
C1869 H1891 0.950 . S
C1870 H1866 0.949 . S
C1870 C1878 1.574 . S
C1870 C1886 1.368 . S
H1871 C1879 0.950 . S
H1872 C1877 0.950 . S
H1873 C1878 0.949 . S
H1874 C1880 0.950 . S
H1875 C1881 0.950 . S
H1876 C1882 0.949 . S
C1877 H1872 0.950 . S
C1877 C1879 1.327 . S
C1877 C1883 1.429 . S
C1878 C1870 1.574 . S
C1878 H1873 0.949 . S
C1878 C1884 1.368 . S
C1879 C1863 1.349 . S
C1879 H1871 0.950 . S
C1879 C1877 1.327 . S
C1880 C1868 1.349 . S
C1880 H1874 0.950 . S
C1880 C1881 1.327 . S
C1881 H1875 0.950 . S
C1881 C1880 1.327 . S
C1881 C1885 1.429 . S
C1882 C1865 1.574 . S
C1882 H1876 0.949 . S
C1882 C1886 1.368 . S
C1883 C1864 1.429 . S
C1883 C1877 1.429 . S
C1883 C1884 1.523 . S
C1884 C1865 1.368 . S
C1884 C1878 1.368 . S
C1884 C1883 1.523 . S
C1885 C1869 1.429 . S
C1885 C1881 1.429 . S
C1885 C1886 1.523 . S
C1886 C1870 1.368 . S
C1886 C1882 1.368 . S
C1886 C1885 1.523 . S
H1887 C1862 0.950 . S
H1888 C1864 0.950 . S
H1889 C1865 0.949 . S
H1890 C1867 0.950 . S
H1891 C1869 0.950 . S
C1892 C1893 1.349 . S
C1892 C1894 1.327 1_556 S
C1892 H1917 0.950 1_556 S
C1893 C1892 1.349 . S
C1893 C1909 1.349 . S
C1894 C1892 1.327 1_554 S
C1894 C1913 1.429 1_554 S
C1894 H1918 0.950 . S
C1895 C1912 1.574 1_545 S
C1895 C1914 1.368 . S
C1895 H1919 0.949 . S
H1896 C1900 0.949 . S
C1897 C1898 1.349 . S
C1897 C1899 1.327 1_554 S
C1897 H1920 0.950 1_554 S
C1898 C1897 1.349 . S
C1898 C1910 1.349 . S
C1899 C1897 1.327 1_556 S
C1899 C1915 1.429 1_556 S
C1899 H1921 0.950 . S
C1900 H1896 0.949 . S
C1900 C1908 1.574 1_565 S
C1900 C1916 1.368 . S
H1901 C1909 0.950 . S
H1902 C1907 0.950 . S
H1903 C1908 0.949 . S
H1904 C1910 0.950 . S
H1905 C1911 0.950 . S
H1906 C1912 0.949 . S
C1907 H1902 0.950 . S
C1907 C1909 1.327 . S
C1907 C1913 1.429 . S
C1908 C1900 1.574 1_545 S
C1908 H1903 0.949 . S
C1908 C1914 1.368 1_554 S
C1909 C1893 1.349 . S
C1909 H1901 0.950 . S
C1909 C1907 1.327 . S
C1910 C1898 1.349 . S
C1910 H1904 0.950 . S
C1910 C1911 1.327 . S
C1911 H1905 0.950 . S
C1911 C1910 1.327 . S
C1911 C1915 1.429 . S
C1912 C1895 1.574 1_565 S
C1912 H1906 0.949 . S
C1912 C1916 1.368 1_556 S
C1913 C1894 1.429 1_556 S
C1913 C1907 1.429 . S
C1913 C1914 1.523 . S
C1914 C1895 1.368 . S
C1914 C1908 1.368 1_556 S
C1914 C1913 1.523 . S
C1915 C1899 1.429 1_554 S
C1915 C1911 1.429 . S
C1915 C1916 1.523 . S
C1916 C1900 1.368 . S
C1916 C1912 1.368 1_554 S
C1916 C1915 1.523 . S
H1917 C1892 0.950 1_554 S
H1918 C1894 0.950 . S
H1919 C1895 0.949 . S
H1920 C1897 0.950 1_556 S
H1921 C1899 0.950 . S
C1922 C1923 1.349 . S
C1922 C1924 1.327 . S
C1922 H1947 0.950 . S
C1923 C1922 1.349 . S
C1923 C1939 1.349 . S
C1924 C1922 1.327 . S
C1924 C1943 1.429 . S
C1924 H1948 0.950 . S
C1925 C1942 1.574 . S
C1925 C1944 1.368 . S
C1925 H1949 0.949 . S
H1926 C1930 0.949 . S
C1927 C1928 1.349 . S
C1927 C1929 1.327 . S
C1927 H1950 0.950 . S
C1928 C1927 1.349 . S
C1928 C1940 1.349 . S
C1929 C1927 1.327 . S
C1929 C1945 1.429 . S
C1929 H1951 0.950 . S
C1930 H1926 0.949 . S
C1930 C1938 1.574 . S
C1930 C1946 1.368 . S
H1931 C1939 0.950 . S
H1932 C1937 0.950 . S
H1933 C1938 0.949 . S
H1934 C1940 0.950 . S
H1935 C1941 0.950 . S
H1936 C1942 0.949 . S
C1937 H1932 0.950 . S
C1937 C1939 1.327 . S
C1937 C1943 1.429 . S
C1938 C1930 1.574 . S
C1938 H1933 0.949 . S
C1938 C1944 1.368 . S
C1939 C1923 1.349 . S
C1939 H1931 0.950 . S
C1939 C1937 1.327 . S
C1940 C1928 1.349 . S
C1940 H1934 0.950 . S
C1940 C1941 1.327 . S
C1941 H1935 0.950 . S
C1941 C1940 1.327 . S
C1941 C1945 1.429 . S
C1942 C1925 1.574 . S
C1942 H1936 0.949 . S
C1942 C1946 1.368 . S
C1943 C1924 1.429 . S
C1943 C1937 1.429 . S
C1943 C1944 1.523 . S
C1944 C1925 1.368 . S
C1944 C1938 1.368 . S
C1944 C1943 1.523 . S
C1945 C1929 1.429 . S
C1945 C1941 1.429 . S
C1945 C1946 1.523 . S
C1946 C1930 1.368 . S
C1946 C1942 1.368 . S
C1946 C1945 1.523 . S
H1947 C1922 0.950 . S
H1948 C1924 0.950 . S
H1949 C1925 0.949 . S
H1950 C1927 0.950 . S
H1951 C1929 0.950 . S
C513 C4 1.434 . S
C518 C6 1.438 . S
C543 C61 1.434 . S
C548 C34 1.439 . S
C573 C93 1.434 . S
C578 C66 1.439 . S
C603 C98 1.440 . S
C608 C125 1.435 . S
C633 C134 1.438 1_554 S
C638 C132 1.434 . S
C663 C189 1.434 . S
C668 C162 1.440 . S
C693 C221 1.434 . S
C698 C194 1.438 . S
C723 C228 1.434 . S
C728 C230 1.439 . S
C753 C260 1.434 . S
C758 C262 1.438 . S
C783 C294 1.439 . S
C788 C292 1.434 . S
C813 C322 1.439 . S
C818 C349 1.434 . S
C843 C354 1.440 . S
C848 C381 1.435 . S
C873 C386 1.438 1_556 S
C878 C413 1.434 . S
C903 C418 1.440 . S
C908 C445 1.434 . S
C933 C452 1.434 . S
C938 C454 1.438 . S
C963 C484 1.434 . S
C968 C486 1.439 . S
C993 C29 2.036 . S
C998 C356 2.030 . S
C1023 C36 2.095 . S
C1028 C509 2.096 . S
C1053 C68 1.330 . S
C1058 N306 1.291 . S
C1083 N109 1.657 . S
C1088 N429 1.646 . S
C1113 N146 1.626 . S
C1118 C420 1.685 . S
C1143 N365 1.657 . S
C1148 N173 1.647 . S
C1173 C196 1.195 . S
C1178 N498 1.151 . S
C1203 C253 2.096 . S
C1208 C317 2.095 . S
C1233 C100 2.030 . S
C1238 C285 2.036 . S
C1263 N45 1.291 . S
C1268 C324 1.330 . S
C1293 N397 1.626 . S
C1298 C164 1.685 . S
C1323 N242 1.151 . S
C1328 C477 1.195 . S
C1353 N274 1.320 . S
C1358 C157 1.358 . S
C1383 N205 1.116 . S
C1388 N333 1.123 . S
C1413 N77 1.122 . S
C1418 N466 1.115 . S
C1443 N18 1.321 . S
C1448 C388 1.358 . S
C1473 C2 1.628 . S
C1478 N141 1.599 . S
C1503 C38 1.857 . S
C1508 N178 1.833 . S
C1533 C70 1.437 . S
C1538 C198 1.438 . S
C1563 N114 2.056 . S
C1568 C226 2.085 . S
C1593 N402 1.599 . S
C1598 C258 1.628 . S
C1623 N434 1.833 . S
C1628 C290 1.857 . S
C1653 C326 1.437 . S
C1658 C450 1.438 . S
C1683 C482 2.085 . S
C1688 N370 2.055 . S
C1713 N50 1.005 . S
C1718 N237 1.005 . S
C1743 C130 1.489 . S
C1748 N82 1.467 . S
C1773 C166 2.330 . S
C1778 C102 2.330 . S
C1803 N13 0.922 . S
C1808 N210 0.933 . S
C1833 N493 1.005 . S
C1838 N301 1.005 . S
C1863 C390 1.489 . S
C1868 N338 1.467 . S
C1893 C422 2.330 . S
C1898 C358 2.330 . S
C1923 N461 0.934 . S
C1928 N269 0.923 . S
