# Generated by pormake.
# Topology acs-a, (4)-cn, num edge types: 1
# Building blocks:
#     Node 0, Type 0, BuildingBlock: GALJAG_clean_sbu_0, # of connection points: 4
#     Node 1, Type 0, BuildingBlock: GALJAG_clean_sbu_0, # of connection points: 4
#     Node 2, Type 0, BuildingBlock: GALJAG_clean_sbu_0, # of connection points: 4
#     Node 3, Type 0, BuildingBlock: GALJAG_clean_sbu_0, # of connection points: 4
#     Node 4, Type 0, BuildingBlock: GALJAG_clean_sbu_0, # of connection points: 4
#     Node 5, Type 0, BuildingBlock: GALJAG_clean_sbu_0, # of connection points: 4
#     Node 6, Type 0, BuildingBlock: GALJAG_clean_sbu_0, # of connection points: 4
#     Node 7, Type 0, BuildingBlock: GALJAG_clean_sbu_0, # of connection points: 4
#     Node 8, Type 0, BuildingBlock: GALJAG_clean_sbu_0, # of connection points: 4
#     Node 9, Type 0, BuildingBlock: GALJAG_clean_sbu_0, # of connection points: 4
#     Node 10, Type 0, BuildingBlock: GALJAG_clean_sbu_0, # of connection points: 4
#     Node 11, Type 0, BuildingBlock: GALJAG_clean_sbu_0, # of connection points: 4
#     Edge 12, Type (0, 0), BuildingBlock: MIFKUJ_clean_linker_0, # of connection points: 2
#     Edge 13, Type (0, 0), BuildingBlock: MIFKUJ_clean_linker_0, # of connection points: 2
#     Edge 14, Type (0, 0), BuildingBlock: MIFKUJ_clean_linker_0, # of connection points: 2
#     Edge 15, Type (0, 0), BuildingBlock: MIFKUJ_clean_linker_0, # of connection points: 2
#     Edge 16, Type (0, 0), BuildingBlock: MIFKUJ_clean_linker_0, # of connection points: 2
#     Edge 17, Type (0, 0), BuildingBlock: MIFKUJ_clean_linker_0, # of connection points: 2
#     Edge 18, Type (0, 0), BuildingBlock: MIFKUJ_clean_linker_0, # of connection points: 2
#     Edge 19, Type (0, 0), BuildingBlock: MIFKUJ_clean_linker_0, # of connection points: 2
#     Edge 20, Type (0, 0), BuildingBlock: MIFKUJ_clean_linker_0, # of connection points: 2
#     Edge 21, Type (0, 0), BuildingBlock: MIFKUJ_clean_linker_0, # of connection points: 2
#     Edge 22, Type (0, 0), BuildingBlock: MIFKUJ_clean_linker_0, # of connection points: 2
#     Edge 23, Type (0, 0), BuildingBlock: MIFKUJ_clean_linker_0, # of connection points: 2
#     Edge 24, Type (0, 0), BuildingBlock: MIFKUJ_clean_linker_0, # of connection points: 2
#     Edge 25, Type (0, 0), BuildingBlock: MIFKUJ_clean_linker_0, # of connection points: 2
#     Edge 26, Type (0, 0), BuildingBlock: MIFKUJ_clean_linker_0, # of connection points: 2
#     Edge 27, Type (0, 0), BuildingBlock: MIFKUJ_clean_linker_0, # of connection points: 2
#     Edge 28, Type (0, 0), BuildingBlock: MIFKUJ_clean_linker_0, # of connection points: 2
#     Edge 29, Type (0, 0), BuildingBlock: MIFKUJ_clean_linker_0, # of connection points: 2
#     Edge 30, Type (0, 0), BuildingBlock: MIFKUJ_clean_linker_0, # of connection points: 2
#     Edge 31, Type (0, 0), BuildingBlock: MIFKUJ_clean_linker_0, # of connection points: 2
#     Edge 32, Type (0, 0), BuildingBlock: MIFKUJ_clean_linker_0, # of connection points: 2
#     Edge 33, Type (0, 0), BuildingBlock: MIFKUJ_clean_linker_0, # of connection points: 2
#     Edge 34, Type (0, 0), BuildingBlock: MIFKUJ_clean_linker_0, # of connection points: 2
#     Edge 35, Type (0, 0), BuildingBlock: MIFKUJ_clean_linker_0, # of connection points: 2
# Relax obj value: 0.468
# Max RMSD: 0.202
# Mean RMSD: 0.201
data_MOF--net-acs-a--node1-GALJAG_clean_sbu_0--edge1-MIFKUJ_clean_linker_0
_symmetry_space_group_name_H-M    P1
_symmetry_Int_Tables_number       1
_symmetry_cell_setting            triclinic
loop_
_symmetry_equiv_pos_as_xyz
'x, y, z'
_cell_length_a     67.253947
_cell_length_b     67.363889
_cell_length_c     38.282918
_cell_angle_alpha  89.999245
_cell_angle_beta   89.991809
_cell_angle_gamma 119.95649
loop_
_atom_site_label
_atom_site_type_symbol
_atom_site_fract_x
_atom_site_fract_y
_atom_site_fract_z
_atom_type_partial_charge
In0 In 0.56387 0.15059 1.00022 0.0
O1 O 0.57818 0.17259 0.04911 0.0
O2 O 0.54907 0.13928 0.05488 0.0
C3 C 0.60704 0.17372 0.97525 0.0
C4 C 0.54716 0.10554 0.98983 0.0
C5 C 0.54107 0.16946 0.97003 0.0
O6 O 0.60245 0.16663 0.0063 0.0
O7 O 0.58979 0.169 0.95656 0.0
O8 O 0.55104 0.16118 0.95247 0.0
O9 O 0.54227 0.16783 0.00266 0.0
C10 C 0.56373 0.1576 0.06954 0.0
O11 O 0.53486 0.11471 0.98708 0.0
O12 O 0.56786 0.11915 0.99703 0.0
In13 In 0.43932 0.60345 0.45478 0.0
O14 O 0.45756 0.61129 0.50767 0.0
O15 O 0.4214 0.5967 0.50762 0.0
C16 C 0.45981 0.6448 0.42331 0.0
C17 C 0.45662 0.57555 0.44528 0.0
C18 C 0.39603 0.586 0.43218 0.0
O19 O 0.46002 0.64225 0.45587 0.0
O20 O 0.45008 0.62635 0.40618 0.0
O21 O 0.40892 0.57868 0.42122 0.0
O22 O 0.40518 0.60225 0.45389 0.0
C23 C 0.43944 0.60382 0.52543 0.0
O24 O 0.43578 0.56837 0.45193 0.0
O25 O 0.46865 0.59696 0.4412 0.0
In26 In 0.82063 0.41262 0.03355 0.0
O27 O 0.85546 0.4161 0.02343 0.0
O28 O 0.8531 0.44641 0.02296 0.0
C29 C 0.80031 0.3707 0.00398 0.0
C30 C 0.81724 0.40768 0.10353 0.0
C31 C 0.7999 0.43534 0.00939 0.0
O32 O 0.81229 0.38875 0.98672 0.0
O33 O 0.79861 0.3738 0.03606 0.0
O34 O 0.80692 0.43718 0.04039 0.0
O35 O 0.80314 0.42186 0.9906 0.0
C36 C 0.86568 0.43757 0.01996 0.0
O37 O 0.80029 0.40382 0.0846 0.0
O38 O 0.83567 0.41377 0.0871 0.0
In39 In 0.39084 0.83291 0.49244 0.0
O40 O 0.42239 0.86521 0.47348 0.0
O41 O 0.39454 0.86842 0.49289 0.0
C42 C 0.41084 0.81214 0.45896 0.0
C43 C 0.39215 0.82635 0.56181 0.0
C44 C 0.34702 0.81388 0.47039 0.0
O45 O 0.41738 0.82139 0.48852 0.0
O46 O 0.39417 0.81331 0.44628 0.0
O47 O 0.35228 0.8118 0.50123 0.0
O48 O 0.36386 0.8261 0.45087 0.0
C49 C 0.41459 0.8783 0.48052 0.0
O50 O 0.38461 0.81004 0.54016 0.0
O51 O 0.3987 0.84578 0.54849 0.0
In52 In 0.56918 0.41033 0.04285 0.0
O53 O 0.57438 0.39716 0.095 0.0
O54 O 0.56489 0.42292 0.09598 0.0
C55 C 0.55986 0.3714 0.00944 0.0
C56 C 0.53562 0.41842 0.02302 0.0
C57 C 0.61185 0.44149 0.02243 0.0
O58 O 0.55076 0.37146 0.03821 0.0
O59 O 0.57412 0.39095 0.99799 0.0
O60 O 0.60762 0.43197 0.05202 0.0
O61 O 0.59451 0.4355 0.00332 0.0
C62 C 0.56963 0.40986 0.11326 0.0
O63 O 0.55624 0.43411 0.02607 0.0
O64 O 0.53181 0.39865 0.03066 0.0
In65 In 0.15003 0.55684 0.45505 0.0
O66 O 0.1179 0.55753 0.4389 0.0
O67 O 0.11577 0.52514 0.44178 0.0
C68 C 0.17023 0.60147 0.43771 0.0
C69 C 0.15126 0.55633 0.52547 0.0
C70 C 0.17473 0.53848 0.42915 0.0
O71 O 0.1655 0.58604 0.41516 0.0
O72 O 0.16473 0.5943 0.46861 0.0
O73 O 0.16562 0.53359 0.45894 0.0
O74 O 0.17104 0.55228 0.41208 0.0
C75 C 0.10541 0.53613 0.43669 0.0
O76 O 0.13336 0.54361 0.5082 0.0
O77 O 0.16872 0.56906 0.50723 0.0
In78 In 0.83518 0.42312 0.54679 0.0
O79 O 0.86808 0.45772 0.54726 0.0
O80 O 0.86994 0.42887 0.56485 0.0
C81 C 0.81226 0.4436 0.57087 0.0
C82 C 0.82829 0.41665 0.47729 0.0
C83 C 0.81684 0.38041 0.57352 0.0
O84 O 0.82155 0.43582 0.59109 0.0
O85 O 0.81498 0.44144 0.53881 0.0
O86 O 0.82562 0.38566 0.54351 0.0
O87 O 0.81758 0.39681 0.59045 0.0
C88 C 0.88057 0.44999 0.55811 0.0
O89 O 0.84798 0.42613 0.49097 0.0
O90 O 0.81193 0.41033 0.49871 0.0
In91 In 0.43356 0.81896 0.99893 0.0
O92 O 0.43013 0.85057 1.00158 0.0
O93 O 0.46232 0.85389 0.01585 0.0
C94 C 0.39093 0.79464 0.02556 0.0
C95 C 0.4298 0.81552 0.92833 0.0
C96 C 0.46052 0.80473 0.029 0.0
O97 O 0.40355 0.81577 0.03127 0.0
O98 O 0.40005 0.78578 0.00724 0.0
O99 O 0.46073 0.8083 0.99664 0.0
O100 O 0.44686 0.80857 0.04632 0.0
C101 C 0.45049 0.86354 0.01167 0.0
O102 O 0.41895 0.79857 0.94824 0.0
O103 O 0.44298 0.83396 0.94389 0.0
In104 In 0.55802 0.40897 0.55858 0.0
O105 O 0.52869 0.41585 0.57036 0.0
O106 O 0.56278 0.44383 0.57204 0.0
C107 C 0.53414 0.36629 0.58539 0.0
C108 C 0.55814 0.40607 0.48827 0.0
C109 C 0.60212 0.42675 0.57854 0.0
O110 O 0.54778 0.38338 0.60339 0.0
O111 O 0.53166 0.37099 0.55442 0.0
O112 O 0.59619 0.42608 0.54716 0.0
O113 O 0.58579 0.4186 0.60015 0.0
C114 C 0.54168 0.43713 0.57439 0.0
O115 O 0.56441 0.39512 0.50787 0.0
O116 O 0.55168 0.41829 0.50416 0.0
In117 In 0.15264 0.58382 0.96862 0.0
O118 O 0.12019 0.55375 0.9899 0.0
O119 O 0.12026 0.58499 0.98155 0.0
C120 C 0.17698 0.5632 0.98404 0.0
C121 C 0.14949 0.58069 0.89829 0.0
C122 C 0.17598 0.62503 1.00013 0.0
O123 O 0.16196 0.5626 0.00446 0.0
O124 O 0.17963 0.57415 0.95607 0.0
O125 O 0.16523 0.62224 0.97189 0.0
O126 O 0.17476 0.6071 0.01236 0.0
C127 C 0.10921 0.56438 0.9913 0.0
O128 O 0.16515 0.59801 0.91378 0.0
O129 O 0.13536 0.56515 0.91826 0.0
In130 In 0.59338 0.16374 0.51129 0.0
O131 O 0.60755 0.17737 0.45677 0.0
O132 O 0.57148 0.15592 0.46242 0.0
C133 C 0.58135 0.19299 0.53908 0.0
C134 C 0.56879 0.11802 0.51801 0.0
C135 C 0.63366 0.17664 0.54351 0.0
O136 O 0.59498 0.19823 0.51364 0.0
O137 O 0.57369 0.17292 0.55052 0.0
O138 O 0.61526 0.17045 0.55998 0.0
O139 O 0.63161 0.17571 0.51071 0.0
C140 C 0.58813 0.16743 0.44214 0.0
O141 O 0.58878 0.12808 0.5053 0.0
O142 O 0.56157 0.13109 0.52819 0.0
In143 In 0.42059 0.57579 0.96871 0.0
O144 O 0.44279 0.55993 0.97946 0.0
O145 O 0.40758 0.53748 0.96789 0.0
C146 C 0.44795 0.61429 0.00519 0.0
C147 C 0.42564 0.58105 0.89882 0.0
C148 C 0.37879 0.56634 0.99019 0.0
O149 O 0.43707 0.59493 0.01956 0.0
O150 O 0.445 0.61417 0.97269 0.0
O151 O 0.38871 0.57882 0.96405 0.0
O152 O 0.39024 0.55903 0.00626 0.0
C153 C 0.42684 0.53961 0.9749 0.0
O154 O 0.40664 0.57409 0.91398 0.0
O155 O 0.44222 0.58555 0.91895 0.0
H156 H 0.54905 0.14228 0.40448 0.0
H157 H 0.54427 0.14243 0.34117 0.0
H158 H 0.61524 0.19494 0.33055 0.0
H159 H 0.62024 0.19478 0.39402 0.0
H160 H 0.58371 0.20233 0.28964 0.0
H161 H 0.60267 0.14332 0.31306 0.0
H162 H 0.598 0.1087 0.34252 0.0
H163 H 0.52929 0.0698 0.30282 0.0
H164 H 0.53344 0.1043 0.27352 0.0
H165 H 0.59779 0.19188 0.10778 0.0
H166 H 0.6008 0.19519 0.17137 0.0
H167 H 0.53467 0.13389 0.18124 0.0
H168 H 0.53196 0.1301 0.11764 0.0
H169 H 0.56336 0.13138 0.22337 0.0
H170 H 0.54341 0.18879 0.19909 0.0
H171 H 0.54634 0.22299 0.17065 0.0
H172 H 0.61417 0.26436 0.21241 0.0
H173 H 0.61177 0.23032 0.24072 0.0
C174 C 0.56362 0.15396 0.38871 0.0
C175 C 0.58506 0.16845 0.40413 0.0
C176 C 0.56086 0.15399 0.35257 0.0
C177 C 0.57945 0.16859 0.33126 0.0
C178 C 0.60071 0.18357 0.34664 0.0
C179 C 0.60355 0.18339 0.38281 0.0
C180 C 0.57683 0.16757 0.29282 0.0
C181 C 0.57954 0.18695 0.27498 0.0
C182 C 0.57074 0.14726 0.27403 0.0
C183 C 0.56829 0.12645 0.2914 0.0
C184 C 0.5865 0.12743 0.31085 0.0
C185 C 0.58396 0.10782 0.32747 0.0
C186 C 0.56334 0.08707 0.32462 0.0
C187 C 0.54524 0.08589 0.30504 0.0
C188 C 0.54769 0.10546 0.2884 0.0
C189 C 0.5838 0.17925 0.12352 0.0
C190 C 0.56465 0.16072 0.10779 0.0
C191 C 0.58548 0.18122 0.15988 0.0
C192 C 0.56785 0.16492 0.18117 0.0
C193 C 0.5485 0.14666 0.16539 0.0
C194 C 0.54693 0.14455 0.12906 0.0
C195 C 0.57015 0.16617 0.21983 0.0
C196 C 0.56744 0.14681 0.23783 0.0
C197 C 0.57597 0.18644 0.23876 0.0
C198 C 0.57749 0.20695 0.22175 0.0
C199 C 0.55903 0.20514 0.20198 0.0
C200 C 0.56058 0.22451 0.18592 0.0
C201 C 0.58045 0.24582 0.18965 0.0
C202 C 0.5988 0.24783 0.20951 0.0
C203 C 0.59734 0.22851 0.22559 0.0
H204 H 0.58162 0.2608 0.17721 0.0
H205 H 0.56141 0.07191 0.33752 0.0
H206 H 0.4755 0.61431 0.56909 0.0
H207 H 0.47452 0.61076 0.63284 0.0
H208 H 0.40181 0.58658 0.63217 0.0
H209 H 0.40268 0.59021 0.56857 0.0
H210 H 0.42398 0.61879 0.68199 0.0
H211 H 0.4212 0.54968 0.6427 0.0
H212 H 0.4344 0.52668 0.61046 0.0
H213 H 0.49764 0.55866 0.66794 0.0
H214 H 0.48498 0.58214 0.70017 0.0
H215 H 0.39224 0.57229 0.85107 0.0
H216 H 0.3963 0.57681 0.78772 0.0
H217 H 0.46866 0.60025 0.79658 0.0
H218 H 0.46466 0.59549 0.86014 0.0
H219 H 0.4488 0.56979 0.74294 0.0
H220 H 0.45114 0.63833 0.783 0.0
H221 H 0.43761 0.66094 0.81552 0.0
H222 H 0.37496 0.62964 0.75648 0.0
H223 H 0.38798 0.6066 0.72393 0.0
C224 C 0.45934 0.60833 0.58258 0.0
C225 C 0.43916 0.60255 0.56391 0.0
C226 C 0.45878 0.60618 0.61893 0.0
C227 C 0.43805 0.59819 0.63715 0.0
C228 C 0.41797 0.59275 0.61857 0.0
C229 C 0.4185 0.59481 0.58226 0.0
C230 C 0.43723 0.59576 0.67564 0.0
C231 C 0.42917 0.60788 0.6953 0.0
C232 C 0.44458 0.58198 0.69297 0.0
C233 C 0.45225 0.5679 0.67355 0.0
C234 C 0.43802 0.55199 0.64823 0.0
C235 C 0.44539 0.53883 0.63001 0.0
C236 C 0.46688 0.54128 0.63705 0.0
C237 C 0.48102 0.55683 0.66245 0.0
C238 C 0.47376 0.57006 0.68071 0.0
C239 C 0.40902 0.57841 0.83955 0.0
C240 C 0.42817 0.58367 0.86054 0.0
C241 C 0.41133 0.58103 0.80336 0.0
C242 C 0.43284 0.58913 0.78751 0.0
C243 C 0.45192 0.59403 0.80834 0.0
C244 C 0.44962 0.59139 0.8446 0.0
C245 C 0.43533 0.59265 0.7492 0.0
C246 C 0.44373 0.58078 0.72961 0.0
C247 C 0.42829 0.60665 0.73185 0.0
C248 C 0.42046 0.62059 0.75123 0.0
C249 C 0.43441 0.63615 0.77713 0.0
C250 C 0.42684 0.64906 0.79554 0.0
C251 C 0.40542 0.64669 0.78812 0.0
C252 C 0.39154 0.63144 0.76222 0.0
C253 C 0.39902 0.61847 0.74375 0.0
H254 H 0.39959 0.6567 0.80241 0.0
H255 H 0.47257 0.53113 0.62287 0.0
H256 H 0.77978 0.39521 0.1453 0.0
H257 H 0.77835 0.39347 0.20926 0.0
H258 H 0.85038 0.41462 0.21232 0.0
H259 H 0.85184 0.41602 0.1486 0.0
H260 H 0.82688 0.38076 0.25768 0.0
H261 H 0.83157 0.4525 0.22793 0.0
H262 H 0.81933 0.47725 0.1987 0.0
H263 H 0.75427 0.44192 0.25115 0.0
H264 H 0.76603 0.41675 0.28035 0.0
H265 H 0.86066 0.42553 0.42764 0.0
H266 H 0.85519 0.42053 0.3645 0.0
H267 H 0.78277 0.3955 0.37747 0.0
H268 H 0.78813 0.40049 0.44091 0.0
H269 H 0.80223 0.42781 0.32474 0.0
H270 H 0.79977 0.35833 0.35881 0.0
H271 H 0.81323 0.33469 0.38842 0.0
H272 H 0.87534 0.36684 0.32809 0.0
H273 H 0.86241 0.39093 0.29846 0.0
C274 C 0.79527 0.39938 0.15965 0.0
C275 C 0.81594 0.40583 0.142 0.0
C276 C 0.79445 0.39846 0.19616 0.0
C277 C 0.81432 0.40415 0.21556 0.0
C278 C 0.83484 0.41015 0.19789 0.0
C279 C 0.83566 0.41102 0.16147 0.0
C280 C 0.81401 0.40427 0.25431 0.0
C281 C 0.82165 0.39118 0.27234 0.0
C282 C 0.80665 0.41742 0.27344 0.0
C283 C 0.79957 0.43257 0.25599 0.0
C284 C 0.81458 0.44989 0.233 0.0
C285 C 0.80774 0.46402 0.21648 0.0
C286 C 0.786 0.46111 0.22297 0.0
C287 C 0.77108 0.44412 0.24609 0.0
C288 C 0.77783 0.42993 0.26264 0.0
C289 C 0.84355 0.4189 0.41709 0.0
C290 C 0.8248 0.41334 0.43919 0.0
C291 C 0.84044 0.41597 0.38103 0.0
C292 C 0.81853 0.40743 0.36638 0.0
C293 C 0.79979 0.40204 0.38832 0.0
C294 C 0.80287 0.40485 0.4245 0.0
C295 C 0.81545 0.4046 0.32803 0.0
C296 C 0.80719 0.41718 0.31009 0.0
C297 C 0.82238 0.3911 0.30895 0.0
C298 C 0.83019 0.37656 0.32661 0.0
C299 C 0.81638 0.36049 0.35204 0.0
C300 C 0.8239 0.34698 0.3688 0.0
C301 C 0.84515 0.34929 0.36019 0.0
C302 C 0.85889 0.36508 0.33475 0.0
C303 C 0.85146 0.37864 0.31793 0.0
H304 H 0.85094 0.33882 0.37319 0.0
H305 H 0.78074 0.47207 0.21017 0.0
H306 H 0.44662 0.85111 0.88244 0.0
H307 H 0.43799 0.84974 0.82018 0.0
H308 H 0.39599 0.77618 0.82559 0.0
H309 H 0.40441 0.77741 0.88821 0.0
H310 H 0.42571 0.79287 0.76584 0.0
H311 H 0.36919 0.80403 0.82461 0.0
H312 H 0.35552 0.82242 0.86641 0.0
H313 H 0.39392 0.88651 0.81243 0.0
H314 H 0.40812 0.86857 0.7706 0.0
H315 H 0.37704 0.78613 0.59751 0.0
H316 H 0.38116 0.78136 0.66006 0.0
H317 H 0.41588 0.85472 0.67371 0.0
H318 H 0.4113 0.85953 0.61156 0.0
H319 H 0.38645 0.83442 0.72498 0.0
H320 H 0.4452 0.82445 0.66909 0.0
H321 H 0.46013 0.80686 0.62793 0.0
H322 H 0.41866 0.74135 0.67665 0.0
H323 H 0.40325 0.75851 0.71782 0.0
C324 C 0.43571 0.83461 0.87035 0.0
C325 C 0.42612 0.81436 0.89018 0.0
C326 C 0.43074 0.83387 0.83482 0.0
C327 C 0.41618 0.81289 0.81845 0.0
C328 C 0.40723 0.79254 0.83784 0.0
C329 C 0.41202 0.79328 0.87354 0.0
C330 C 0.40988 0.81246 0.7813 0.0
C331 C 0.41678 0.8016 0.75687 0.0
C332 C 0.39856 0.82419 0.76972 0.0
C333 C 0.38987 0.83499 0.79463 0.0
C334 C 0.37487 0.82209 0.8218 0.0
C335 C 0.367 0.83242 0.84548 0.0
C336 C 0.37389 0.85563 0.84211 0.0
C337 C 0.38861 0.86853 0.81501 0.0
C338 C 0.39656 0.85828 0.79129 0.0
C339 C 0.38546 0.80121 0.61392 0.0
C340 C 0.39391 0.8232 0.59966 0.0
C341 C 0.3879 0.79847 0.64961 0.0
C342 C 0.3991 0.8177 0.67153 0.0
C343 C 0.40718 0.83963 0.65734 0.0
C344 C 0.4046 0.84236 0.62179 0.0
C345 C 0.40268 0.81518 0.70919 0.0
C346 C 0.39521 0.82549 0.73383 0.0
C347 C 0.41357 0.80302 0.7209 0.0
C348 C 0.42288 0.79271 0.69627 0.0
C349 C 0.43914 0.80626 0.67085 0.0
C350 C 0.44771 0.79638 0.64755 0.0
C351 C 0.4403 0.77299 0.64961 0.0
C352 C 0.42435 0.75945 0.67504 0.0
C353 C 0.4157 0.76925 0.69838 0.0
H354 H 0.44695 0.76537 0.63155 0.0
H355 H 0.36778 0.86361 0.86047 0.0
H356 H 0.54923 0.43115 0.44161 0.0
H357 H 0.55117 0.43042 0.37797 0.0
H358 H 0.57022 0.37811 0.38415 0.0
H359 H 0.56884 0.37917 0.44805 0.0
H360 H 0.59626 0.40989 0.33774 0.0
H361 H 0.51562 0.36511 0.36007 0.0
H362 H 0.47846 0.35652 0.38549 0.0
H363 H 0.48209 0.41418 0.33171 0.0
H364 H 0.51943 0.42331 0.30633 0.0
H365 H 0.57789 0.38231 0.15606 0.0
H366 H 0.57604 0.38059 0.21993 0.0
H367 H 0.55876 0.43426 0.22129 0.0
H368 H 0.56024 0.43582 0.15748 0.0
H369 H 0.53123 0.39968 0.26381 0.0
H370 H 0.61258 0.44494 0.24294 0.0
H371 H 0.6496 0.45319 0.21741 0.0
H372 H 0.64429 0.3939 0.26822 0.0
H373 H 0.60707 0.38512 0.2937 0.0
C374 C 0.55376 0.41943 0.42942 0.0
C375 C 0.5588 0.40515 0.44977 0.0
C376 C 0.55477 0.41896 0.39303 0.0
C377 C 0.56052 0.40397 0.37624 0.0
C378 C 0.56568 0.38977 0.39654 0.0
C379 C 0.56482 0.39034 0.43301 0.0
C380 C 0.5615 0.40346 0.33754 0.0
C381 C 0.58191 0.40729 0.32156 0.0
C382 C 0.54293 0.4005 0.31642 0.0
C383 C 0.52042 0.395 0.33154 0.0
C384 C 0.50858 0.37606 0.35386 0.0
C385 C 0.48747 0.37107 0.36823 0.0
C386 C 0.47795 0.38482 0.36028 0.0
C387 C 0.48949 0.40356 0.33787 0.0
C388 C 0.51062 0.40863 0.32346 0.0
C389 C 0.57379 0.3938 0.17 0.0
C390 C 0.56924 0.40922 0.15182 0.0
C391 C 0.57281 0.39285 0.20648 0.0
C392 C 0.56745 0.40743 0.22538 0.0
C393 C 0.56292 0.42285 0.20722 0.0
C394 C 0.56385 0.42377 0.17079 0.0
C395 C 0.56606 0.40636 0.26406 0.0
C396 C 0.54554 0.40219 0.28 0.0
C397 C 0.5845 0.40893 0.28511 0.0
C398 C 0.60693 0.41425 0.26993 0.0
C399 C 0.61922 0.43356 0.24845 0.0
C400 C 0.64026 0.43835 0.23403 0.0
C401 C 0.64926 0.42404 0.24111 0.0
C402 C 0.63728 0.40495 0.26271 0.0
C403 C 0.61622 0.40007 0.27717 0.0
H404 H 0.66555 0.42778 0.22992 0.0
H405 H 0.4616 0.38094 0.37143 0.0
H406 H 0.11913 0.52547 0.5702 0.0
H407 H 0.11821 0.52812 0.63383 0.0
H408 H 0.18195 0.59254 0.63098 0.0
H409 H 0.18343 0.58939 0.56752 0.0
H410 H 0.1827 0.56852 0.68317 0.0
H411 H 0.1265 0.58752 0.63969 0.0
H412 H 0.09209 0.58031 0.60647 0.0
H413 H 0.05075 0.52006 0.66776 0.0
H414 H 0.08497 0.52677 0.70108 0.0
H415 H 0.17888 0.61105 0.85007 0.0
H416 H 0.17823 0.60586 0.78674 0.0
H417 H 0.11739 0.53945 0.79656 0.0
H418 H 0.11777 0.54466 0.85985 0.0
H419 H 0.11416 0.56278 0.74162 0.0
H420 H 0.169 0.54356 0.78566 0.0
H421 H 0.20286 0.54957 0.81922 0.0
H422 H 0.24608 0.6088 0.75712 0.0
H423 H 0.21241 0.60334 0.72349 0.0
C424 C 0.13301 0.5401 0.58323 0.0
C425 C 0.15131 0.55726 0.56398 0.0
C426 C 0.13239 0.5417 0.61956 0.0
C427 C 0.14975 0.5608 0.6372 0.0
C428 C 0.16831 0.57768 0.61799 0.0
C429 C 0.16914 0.57588 0.58173 0.0
C430 C 0.14866 0.56333 0.67561 0.0
C431 C 0.16781 0.56758 0.69583 0.0
C432 C 0.12896 0.56138 0.6924 0.0
C433 C 0.10834 0.55754 0.67266 0.0
C434 C 0.11009 0.57267 0.64595 0.0
C435 C 0.09061 0.56868 0.62713 0.0
C436 C 0.06925 0.5497 0.63494 0.0
C437 C 0.06731 0.53473 0.6617 0.0
C438 C 0.08673 0.53864 0.68059 0.0
C439 C 0.16529 0.59541 0.8387 0.0
C440 C 0.14844 0.57821 0.8599 0.0
C441 C 0.16499 0.59242 0.80255 0.0
C442 C 0.14794 0.57212 0.787 0.0
C443 C 0.13073 0.55521 0.80803 0.0
C444 C 0.131 0.55819 0.84418 0.0
C445 C 0.14833 0.56836 0.7489 0.0
C446 C 0.12903 0.56377 0.72884 0.0
C447 C 0.16783 0.5699 0.73224 0.0
C448 C 0.18814 0.57316 0.75228 0.0
C449 C 0.1857 0.55797 0.77933 0.0
C450 C 0.20486 0.56126 0.79834 0.0
C451 C 0.2266 0.57959 0.79036 0.0
C452 C 0.22922 0.59463 0.76329 0.0
C453 C 0.21011 0.59143 0.74423 0.0
H454 H 0.24141 0.58211 0.80511 0.0
H455 H 0.05419 0.5466 0.6203 0.0
H456 H 0.56998 0.0823 1.00065 0.0
H457 H 0.55355 0.04088 0.00464 0.0
H458 H 0.48671 0.03118 0.97942 0.0
H459 H 0.503 0.07274 0.97607 0.0
H460 H 0.48527 0.007 0.03606 0.0
H461 H 0.51655 0.01851 0.92029 0.0
H462 H 0.5466 0.03625 0.8752 0.0
H463 H 0.58749 0.01341 0.92925 0.0
H464 H 0.55781 -0.00421 0.97496 0.0
H465 H 0.42847 0.88768 0.00203 0.0
H466 H 0.44551 0.92924 1.00103 0.0
H467 H 0.51136 0.93709 0.0281 0.0
H468 H 0.49445 0.89539 0.02867 0.0
H469 H 0.51387 0.96232 0.97172 0.0
H470 H 0.48205 0.95 0.08684 0.0
H471 H 0.4519 0.93224 0.13178 0.0
H472 H 0.41187 0.9565 0.07877 0.0
H473 H 0.44164 0.97415 0.03321 0.0
C474 C 0.55185 0.07134 0.99549 0.0
C475 C 0.53772 0.08065 0.98812 0.0
C476 C 0.5425 0.0477 0.99769 0.0
C477 C 0.51896 0.03304 0.99214 0.0
C478 C 0.50492 0.04228 0.98382 0.0
C479 C 0.51425 0.06595 0.98177 0.0
C480 C 0.50881 0.00811 0.99686 0.0
C481 C 0.49126 -0.00287 0.02163 0.0
C482 C 0.51721 -0.00449 0.97877 0.0
C483 C 0.53504 0.00601 0.95122 0.0
C484 C 0.53203 0.01742 0.92271 0.0
C485 C 0.54898 0.02743 0.89701 0.0
C486 C 0.56896 0.02601 0.8994 0.0
C487 C 0.57201 0.01452 0.92746 0.0
C488 C 0.55512 0.0045 0.95325 0.0
C489 C 0.4465 0.89824 0.00827 0.0
C490 C 0.46019 0.88838 0.01528 0.0
C491 C 0.45619 0.92197 0.00782 0.0
C492 C 0.47964 0.93615 0.01465 0.0
C493 C 0.49321 0.92635 0.02276 0.0
C494 C 0.48353 0.90259 0.02318 0.0
C495 C 0.49027 0.96118 0.01082 0.0
C496 C 0.50792 0.9722 0.98621 0.0
C497 C 0.48193 0.9738 0.02903 0.0
C498 C 0.464 0.96323 0.05643 0.0
C499 C 0.46674 0.95139 0.0846 0.0
C500 C 0.44973 0.94137 0.11022 0.0
C501 C 0.42996 0.94319 0.10809 0.0
C502 C 0.42718 0.95509 0.08037 0.0
C503 C 0.44413 0.96512 0.05466 0.0
H504 H 0.41682 0.93543 0.12796 0.0
H505 H 0.58207 0.03377 0.87948 0.0
H506 H 0.50203 0.58838 0.44839 0.0
H507 H 0.51784 0.56536 0.47177 0.0
H508 H 0.4497 0.50652 0.47726 0.0
H509 H 0.43378 0.5294 0.45413 0.0
H510 H 0.47176 0.51696 0.54021 0.0
H511 H 0.48806 0.50699 0.42121 0.0
H512 H 0.50418 0.5196 0.36221 0.0
H513 H 0.57199 0.55759 0.40549 0.0
H514 H 0.55622 0.54546 0.46484 0.0
H515 H 0.49708 0.42731 0.57268 0.0
H516 H 0.48378 0.45379 0.5561 0.0
H517 H 0.55356 0.50993 0.55753 0.0
H518 H 0.56698 0.48366 0.57431 0.0
H519 H 0.53267 0.50335 0.49343 0.0
H520 H 0.51697 0.51173 0.61188 0.0
H521 H 0.50118 0.50044 0.6713 0.0
H522 H 0.43272 0.4663 0.62987 0.0
H523 H 0.44809 0.47709 0.5701 0.0
C524 C 0.49052 0.57035 0.45351 0.0
C525 C 0.46667 0.5607 0.4498 0.0
C526 C 0.49956 0.55725 0.46697 0.0
C527 C 0.48486 0.53435 0.47657 0.0
C528 C 0.46125 0.52424 0.47029 0.0
C529 C 0.45222 0.53729 0.45686 0.0
C530 C 0.49373 0.52157 0.49628 0.0
C531 C 0.48484 0.51364 0.52983 0.0
C532 C 0.51141 0.51817 0.48317 0.0
C533 C 0.52092 0.52552 0.44751 0.0
C534 C 0.50638 0.51821 0.41819 0.0
C535 C 0.51546 0.52523 0.38467 0.0
C536 C 0.53909 0.53944 0.38011 0.0
C537 C 0.55369 0.54661 0.40906 0.0
C538 C 0.54469 0.53965 0.44264 0.0
C539 C 0.50949 0.44541 0.57066 0.0
C540 C 0.53308 0.45339 0.57425 0.0
C541 C 0.50187 0.46052 0.56122 0.0
C542 C 0.51775 0.48373 0.55529 0.0
C543 C 0.54109 0.49204 0.56185 0.0
C544 C 0.5487 0.477 0.57152 0.0
C545 C 0.51044 0.49836 0.53719 0.0
C546 C 0.51965 0.50671 0.50393 0.0
C547 C 0.49305 0.50214 0.55059 0.0
C548 C 0.48372 0.495 0.58642 0.0
C549 C 0.49856 0.50155 0.61536 0.0
C550 C 0.48968 0.49531 0.64914 0.0
C551 C 0.46597 0.4826 0.65435 0.0
C552 C 0.45109 0.4761 0.62579 0.0
C553 C 0.45988 0.48228 0.59195 0.0
H554 H 0.45913 0.47784 0.68053 0.0
H555 H 0.54609 0.54485 0.35414 0.0
H556 H 0.08138 0.58303 0.99302 0.0
H557 H 0.0397 0.56254 1.0009 0.0
H558 H 0.04038 0.49955 0.01781 0.0
H559 H 0.08195 0.51982 0.00979 0.0
H560 H 0.01049 0.49619 0.96642 0.0
H561 H 0.02934 0.52439 0.08431 0.0
H562 H 0.04789 0.55392 0.12987 0.0
H563 H 0.01193 0.58764 0.09347 0.0
H564 H -0.00661 0.55846 0.04735 0.0
H565 H 0.89642 0.42256 0.01935 0.0
H566 H 0.93811 0.44581 0.01511 0.0
H567 H 0.93285 0.50685 0.00502 0.0
H568 H 0.89106 0.48369 0.01001 0.0
H569 H 0.96506 0.51276 0.05159 0.0
H570 H 0.94575 0.48488 0.93462 0.0
H571 H 0.92728 0.45597 0.88819 0.0
H572 H 0.96435 0.42266 0.92125 0.0
H573 H 0.98281 0.45119 0.96821 0.0
C574 C 0.07266 0.56489 0.99899 0.0
C575 C 0.08478 0.55293 1.00054 0.0
C576 C 0.04892 0.55326 0.00357 0.0
C577 C 0.03709 0.52959 0.00987 0.0
C578 C 0.04929 0.51783 0.01285 0.0
C579 C 0.07299 0.52942 0.00834 0.0
C580 C 0.01184 0.5167 0.01053 0.0
C581 C 0.00051 0.49956 0.98534 0.0
C582 C -0.00098 0.52181 0.03442 0.0
C583 C 0.01016 0.53937 0.06214 0.0
C584 C 0.02554 0.53821 0.08581 0.0
C585 C 0.03602 0.55486 0.11178 0.0
C586 C 0.03114 0.57268 0.1145 0.0
C587 C 0.01572 0.57385 0.0913 0.0
C588 C 0.00521 0.55725 0.06526 0.0
C589 C 0.90414 0.44091 0.01593 0.0
C590 C 0.89059 0.45137 0.01495 0.0
C591 C 0.92792 0.45415 0.01342 0.0
C592 C 0.93847 0.47799 0.00943 0.0
C593 C 0.92496 0.48846 0.00808 0.0
C594 C 0.90115 0.47523 0.01079 0.0
C595 C 0.96369 0.492 0.00777 0.0
C596 C 0.97502 0.50941 0.03262 0.0
C597 C 0.97656 0.48726 0.9834 0.0
C598 C 0.96551 0.47007 0.95514 0.0
C599 C 0.94983 0.47128 0.93217 0.0
C600 C 0.93939 0.45498 0.90572 0.0
C601 C 0.9446 0.43746 0.90182 0.0
C602 C 0.96031 0.43623 0.92432 0.0
C603 C 0.97079 0.45248 0.95084 0.0
H604 H 0.9365 0.42486 0.88133 0.0
H605 H 0.03927 0.58555 0.13464 0.0
H606 H 0.52524 0.09303 0.54295 0.0
H607 H 0.49917 0.05194 0.536 0.0
H608 H 0.55278 0.04532 0.48491 0.0
H609 H 0.57894 0.08656 0.49141 0.0
H610 H 0.51315 0.02499 0.44805 0.0
H611 H 0.53609 0.02475 0.56625 0.0
H612 H 0.54314 0.03668 0.628 0.0
H613 H 0.4717 0.01454 0.64186 0.0
H614 H 0.46426 0.00277 0.58003 0.0
H615 H 0.45772 0.90296 0.45378 0.0
H616 H 0.48338 0.94434 0.4578 0.0
H617 H 0.42953 0.95159 0.50668 0.0
H618 H 0.40376 0.91014 0.50291 0.0
H619 H 0.46932 0.97161 0.5443 0.0
H620 H 0.44649 0.97134 0.42571 0.0
H621 H 0.43978 0.95929 0.364 0.0
H622 H 0.51144 0.98212 0.35094 0.0
H623 H 0.51853 0.99401 0.41274 0.0
C624 C 0.53158 0.08277 0.53068 0.0
C625 C 0.55408 0.09294 0.51767 0.0
C626 C 0.51669 0.05931 0.5268 0.0
C627 C 0.52411 0.04564 0.51006 0.0
C628 C 0.54676 0.05565 0.49786 0.0
C629 C 0.56169 0.07914 0.50176 0.0
C630 C 0.50782 0.02112 0.50372 0.0
C631 C 0.5038 0.0132 0.46911 0.0
C632 C 0.49525 0.006 0.53119 0.0
C633 C 0.49967 0.01308 0.5684 0.0
C634 C 0.52192 0.02261 0.58237 0.0
C635 C 0.52598 0.0293 0.61741 0.0
C636 C 0.50789 0.02642 0.63881 0.0
C637 C 0.4857 0.01679 0.62524 0.0
C638 C 0.48154 0.01008 0.5902 0.0
C639 C 0.45122 0.91342 0.46481 0.0
C640 C 0.42882 0.90338 0.47821 0.0
C641 C 0.46587 0.93704 0.46699 0.0
C642 C 0.4583 0.95095 0.48252 0.0
C643 C 0.43565 0.94107 0.49466 0.0
C644 C 0.42095 0.91745 0.49236 0.0
C645 C 0.47459 0.97549 0.48862 0.0
C646 C 0.47864 0.9834 0.52322 0.0
C647 C 0.48723 0.99056 0.46115 0.0
C648 C 0.483 0.98335 0.42398 0.0
C649 C 0.46079 0.97359 0.40978 0.0
C650 C 0.45692 0.96683 0.37476 0.0
C651 C 0.47516 0.96988 0.35359 0.0
C652 C 0.49732 0.97974 0.36738 0.0
C653 C 0.50128 0.98651 0.4024 0.0
H654 H 0.47213 0.96465 0.32647 0.0
H655 H 0.51107 0.03161 0.66594 0.0
H656 H 0.39473 0.494 0.97546 0.0
H657 H 0.40199 0.46165 0.97445 0.0
H658 H 0.4749 0.50916 0.97374 0.0
H659 H 0.46788 0.54131 0.9753 0.0
H660 H 0.45811 0.47248 0.92186 0.0
H661 H 0.45198 0.48715 0.04735 0.0
H662 H 0.43 0.48844 0.09805 0.0
H663 H 0.37869 0.41818 0.08062 0.0
H664 H 0.40029 0.4166 0.02952 0.0
H665 H 0.54116 0.45847 0.99805 0.0
H666 H 0.51142 0.46658 0.97913 0.0
H667 H 0.45944 0.39683 1.00151 0.0
H668 H 0.48939 0.38851 0.0207 0.0
H669 H 0.45012 0.42884 0.0304 0.0
H670 H 0.46617 0.41217 0.91843 0.0
H671 H 0.48953 0.41149 0.86932 0.0
H672 H 0.52197 0.48464 0.85996 0.0
H673 H 0.49911 0.48584 0.90935 0.0
C674 C 0.41228 0.49744 0.97518 0.0
C675 C 0.43079 0.52008 0.97555 0.0
C676 C 0.41635 0.47903 0.97447 0.0
C677 C 0.43893 0.48318 0.97366 0.0
C678 C 0.45735 0.50574 0.97399 0.0
C679 C 0.45332 0.52405 0.97517 0.0
C680 C 0.44405 0.46437 0.97378 0.0
C681 C 0.45615 0.4626 0.94529 0.0
C682 C 0.44045 0.45083 0.00381 0.0
C683 C 0.42753 0.45185 0.0344 0.0
C684 C 0.4359 0.47206 0.05416 0.0
C685 C 0.42355 0.47283 0.08299 0.0
C686 C 0.40291 0.45343 0.09247 0.0
C687 C 0.39464 0.43321 0.07318 0.0
C688 C 0.40692 0.43237 0.04429 0.0
C689 C 0.52344 0.44479 0.99873 0.0
C690 C 0.51753 0.42291 0.01091 0.0
C691 C 0.50648 0.44937 0.98758 0.0
C692 C 0.48331 0.43215 0.98833 0.0
C693 C 0.47728 0.41021 1.00039 0.0
C694 C 0.49434 0.40555 0.01139 0.0
C695 C 0.46573 0.43826 0.97939 0.0
C696 C 0.45117 0.43764 0.00613 0.0
C697 C 0.46704 0.44957 0.94765 0.0
C698 C 0.48083 0.44906 0.91764 0.0
C699 C 0.47835 0.42813 0.90602 0.0
C700 C 0.49151 0.42766 0.87811 0.0
C701 C 0.5072 0.448 0.86151 0.0
C702 C 0.50976 0.46888 0.87278 0.0
C703 C 0.49665 0.46946 0.90069 0.0
H704 H 0.51738 0.4476 0.83992 0.0
H705 H 0.39338 0.45405 0.11482 0.0
H706 H 0.91092 0.43579 0.57434 0.0
H707 H 0.95084 0.45376 0.55542 0.0
H708 H 0.94698 0.51191 0.51672 0.0
H709 H 0.90694 0.49392 0.53535 0.0
H710 H 0.95901 0.49267 0.46637 0.0
H711 H 0.98372 0.51875 0.58165 0.0
H712 H 0.98674 0.51776 0.64571 0.0
H713 H 0.01029 0.46935 0.63654 0.0
H714 H 0.00706 0.46973 0.57242 0.0
H715 H 0.07952 0.55593 0.42307 0.0
H716 H 0.03984 0.54133 0.44172 0.0
H717 H 0.03519 0.47752 0.47227 0.0
H718 H 0.07479 0.49189 0.4534 0.0
H719 H 0.02832 0.50197 0.52688 0.0
H720 H 0.00209 0.47613 0.40976 0.0
H721 H 0.00116 0.48031 0.3459 0.0
H722 H 0.98231 0.53203 0.35968 0.0
H723 H 0.98344 0.5284 0.42368 0.0
C724 C 0.91879 0.45273 0.56284 0.0
C725 C 0.90577 0.46333 0.55584 0.0
C726 C 0.94163 0.46301 0.55209 0.0
C727 C 0.95177 0.48407 0.53441 0.0
C728 C 0.93938 0.49557 0.53014 0.0
C729 C 0.91655 0.48532 0.54093 0.0
C730 C 0.97388 0.49229 0.51615 0.0
C731 C 0.97431 0.49513 0.47973 0.0
C732 C -0.00639 0.49495 0.53349 0.0
C733 C -0.00512 0.49407 0.57216 0.0
C734 C 0.98924 0.50764 0.59328 0.0
C735 C 0.99107 0.50725 0.62962 0.0
C736 C -0.00137 0.49344 0.64519 0.0
C737 C 0.00438 0.48 0.62445 0.0
C738 C 0.00257 0.4803 0.58809 0.0
C739 C 0.06975 0.53848 0.43254 0.0
C740 C 0.08025 0.52512 0.43721 0.0
C741 C 0.04714 0.53019 0.44322 0.0
C742 C 0.03482 0.5085 0.45872 0.0
C743 C 0.04458 0.49437 0.46051 0.0
C744 C 0.06711 0.50254 0.44949 0.0
C745 C 0.0132 0.50192 0.47727 0.0
C746 C 0.01296 0.4995 0.5137 0.0
C747 C -0.00624 0.49994 0.46003 0.0
C748 C 0.99309 0.50216 0.42154 0.0
C749 C -0.00203 0.48856 0.3992 0.0
C750 C -0.00265 0.49079 0.36296 0.0
C751 C 0.99175 0.50647 0.34874 0.0
C752 C 0.98668 0.51991 0.37073 0.0
C753 C 0.98729 0.51776 0.40699 0.0
H754 H 0.99127 0.50817 0.32069 0.0
H755 H 0.0001 0.49322 0.67332 0.0
H756 H 0.54831 0.18685 0.90387 0.0
H757 H 0.5434 0.21882 0.88469 0.0
H758 H 0.50944 0.21569 0.98184 0.0
H759 H 0.51426 0.18389 1.00107 0.0
H760 H 0.49475 0.23262 0.92585 0.0
H761 H 0.56668 0.24354 0.9805 0.0
H762 H 0.60008 0.23764 0.98002 0.0
H763 H 0.61946 0.26903 0.87876 0.0
H764 H 0.58592 0.27475 0.87847 0.0
H765 H 0.52891 0.32784 0.02855 0.0
H766 H 0.5194 0.29257 0.99774 0.0
H767 H 0.56716 0.33162 0.91579 0.0
H768 H 0.57706 0.36716 0.947 0.0
H769 H 0.57394 0.29848 0.93724 0.0
H770 H 0.50925 0.30118 0.89781 0.0
H771 H 0.47584 0.3069 0.90055 0.0
H772 H 0.44238 0.25062 0.97216 0.0
H773 H 0.47571 0.24475 0.97032 0.0
C774 C 0.53897 0.19239 0.92049 0.0
C775 C 0.53215 0.18337 0.9543 0.0
C776 C 0.53614 0.2106 0.90945 0.0
C777 C 0.52645 0.21982 0.93214 0.0
C778 C 0.517 0.20884 0.96398 0.0
C779 C 0.51994 0.19079 0.97509 0.0
C780 C 0.53069 0.24336 0.92731 0.0
C781 C 0.51201 0.24715 0.92779 0.0
C782 C 0.55331 0.26226 0.92874 0.0
C783 C 0.57372 0.25933 0.92928 0.0
C784 C 0.57804 0.24909 0.9581 0.0
C785 C 0.59697 0.24577 0.95796 0.0
C786 C 0.61186 0.2529 0.92933 0.0
C787 C 0.60788 0.26345 0.90086 0.0
C788 C 0.58891 0.26672 0.90082 0.0
C789 C 0.53726 0.32895 0.00384 0.0
C790 C 0.5538 0.35019 0.99024 0.0
C791 C 0.5316 0.30879 0.986 0.0
C792 C 0.5422 0.30948 0.95405 0.0
C793 C 0.55858 0.33073 0.94019 0.0
C794 C 0.56429 0.35097 0.95811 0.0
C795 C 0.53789 0.28777 0.93773 0.0
C796 C 0.55663 0.2843 0.93343 0.0
C797 C 0.51532 0.26924 0.93275 0.0
C798 C 0.49506 0.27253 0.9339 0.0
C799 C 0.49483 0.29008 0.91429 0.0
C800 C 0.47589 0.29335 0.91567 0.0
C801 C 0.457 0.27913 0.93651 0.0
C802 C 0.45701 0.26159 0.95598 0.0
C803 C 0.47591 0.25825 0.9547 0.0
H804 H 0.44236 0.2817 0.93756 0.0
H805 H 0.62649 0.2503 0.92925 0.0
H806 H 0.36716 0.60197 0.44716 0.0
H807 H 0.32583 0.58261 0.43795 0.0
H808 H 0.32799 0.52646 0.38746 0.0
H809 H 0.36976 0.54605 0.39619 0.0
H810 H 0.29745 0.53753 0.3553 0.0
H811 H 0.31091 0.51814 0.46794 0.0
H812 H 0.32922 0.52489 0.52584 0.0
H813 H 0.30211 0.5685 0.55364 0.0
H814 H 0.28395 0.56233 0.49569 0.0
H815 H 0.18058 0.50423 0.45586 0.0
H816 H 0.21315 0.49835 0.44548 0.0
H817 H 0.23931 0.55221 0.36812 0.0
H818 H 0.20632 0.55726 0.37719 0.0
H819 H 0.25264 0.52765 0.4633 0.0
H820 H 0.27873 0.55328 0.31637 0.0
H821 H 0.26 0.54368 0.25866 0.0
H822 H 0.2055 0.48041 0.29941 0.0
H823 H 0.22405 0.48941 0.35725 0.0
C824 C 0.35893 0.58563 0.43373 0.0
C825 C 0.3716 0.57538 0.42272 0.0
C826 C 0.33531 0.57457 0.42856 0.0
C827 C 0.32386 0.55292 0.41267 0.0
C828 C 0.33656 0.54311 0.39996 0.0
C829 C 0.36035 0.55429 0.40499 0.0
C830 C 0.29852 0.54042 0.41131 0.0
C831 C 0.28746 0.53508 0.37879 0.0
C832 C 0.2855 0.53625 0.44219 0.0
C833 C 0.2961 0.5398 0.47738 0.0
C834 C 0.30894 0.52926 0.48633 0.0
C835 C 0.31929 0.53298 0.51917 0.0
C836 C 0.31684 0.54712 0.5434 0.0
C837 C 0.30398 0.55753 0.53485 0.0
C838 C 0.29362 0.5539 0.50203 0.0
C839 C 0.1929 0.51422 0.43578 0.0
C840 C 0.19115 0.53139 0.41763 0.0
C841 C 0.2115 0.51086 0.42986 0.0
C842 C 0.22881 0.52486 0.40609 0.0
C843 C 0.22606 0.54082 0.38608 0.0
C844 C 0.20725 0.54387 0.39152 0.0
C845 C 0.25146 0.52606 0.40696 0.0
C846 C 0.26219 0.52933 0.4396 0.0
C847 C 0.26392 0.5277 0.3762 0.0
C848 C 0.25278 0.52209 0.34128 0.0
C849 C 0.26284 0.53723 0.31301 0.0
C850 C 0.25223 0.53191 0.28026 0.0
C851 C 0.23156 0.51147 0.27538 0.0
C852 C 0.22148 0.49627 0.30324 0.0
C853 C 0.23202 0.50149 0.33604 0.0
H854 H 0.22337 0.50739 0.25001 0.0
H855 H 0.32488 0.55 0.5688 0.0
H856 H 0.793 0.36052 0.93443 0.0
H857 H 0.76706 0.32294 0.90858 0.0
H858 H 0.75364 0.29221 0.01102 0.0
H859 H 0.77932 0.32953 0.03691 0.0
H860 H 0.75498 0.26358 0.95753 0.0
H861 H 0.72114 0.31286 0.9819 0.0
H862 H 0.71919 0.34811 0.97264 0.0
H863 H 0.71054 0.33464 0.86241 0.0
H864 H 0.71274 0.29944 0.87105 0.0
H865 H 0.64618 0.18715 0.01209 0.0
H866 H 0.68492 0.21574 0.99538 0.0
H867 H 0.6606 0.22143 0.89354 0.0
H868 H 0.62138 0.1931 0.91071 0.0
H869 H 0.68306 0.26122 0.921 0.0
H870 H 0.70166 0.20376 0.90277 0.0
H871 H 0.70265 0.16811 0.9127 0.0
H872 H 0.73971 0.19545 0.00834 0.0
H873 H 0.73865 0.23113 0.99936 0.0
C874 C 0.7849 0.34562 0.95127 0.0
C875 C 0.78783 0.3479 0.9877 0.0
C876 C 0.77019 0.32422 0.93647 0.0
C877 C 0.7584 0.3049 0.95796 0.0
C878 C 0.76269 0.30692 0.994 0.0
C879 C 0.77719 0.32827 0.0088 0.0
C880 C 0.73899 0.2834 0.94451 0.0
C881 C 0.73925 0.26289 0.94912 0.0
C882 C 0.71886 0.28272 0.93212 0.0
C883 C 0.71742 0.30376 0.92703 0.0
C884 C 0.71899 0.31753 0.95568 0.0
C885 C 0.71782 0.33747 0.95055 0.0
C886 C 0.71483 0.34366 0.91694 0.0
C887 C 0.71293 0.32987 0.8884 0.0
C888 C 0.71415 0.30994 0.89339 0.0
C889 C 0.64913 0.19409 0.98586 0.0
C890 C 0.63077 0.1881 0.96282 0.0
C891 C 0.67138 0.21028 0.97612 0.0
C892 C 0.6758 0.22057 0.94296 0.0
C893 C 0.65763 0.21362 0.91916 0.0
C894 C 0.63525 0.19748 0.92901 0.0
C895 C 0.69847 0.24104 0.93604 0.0
C896 C 0.6989 0.26154 0.92765 0.0
C897 C 0.71922 0.24159 0.9447 0.0
C898 C 0.72008 0.22019 0.95032 0.0
C899 C 0.70993 0.20215 0.92603 0.0
C900 C 0.71051 0.18193 0.93148 0.0
C901 C 0.72124 0.17952 0.96112 0.0
C902 C 0.73144 0.19736 0.98535 0.0
C903 C 0.73091 0.21762 0.98003 0.0
H904 H 0.72165 0.16385 0.96531 0.0
H905 H 0.71392 0.35909 0.91302 0.0
H906 H 0.39997 0.79146 0.39493 0.0
H907 H 0.41536 0.76896 0.36801 0.0
H908 H 0.46019 0.78294 0.45653 0.0
H909 H 0.44534 0.80585 0.48306 0.0
H910 H 0.4815 0.78284 0.39735 0.0
H911 H 0.40703 0.7344 0.4519 0.0
H912 H 0.36544 0.71882 0.45998 0.0
H913 H 0.35349 0.69723 0.35279 0.0
H914 H 0.39509 0.71297 0.34396 0.0
H915 H 0.48482 0.68662 0.45344 0.0
H916 H 0.48464 0.72135 0.43664 0.0
H917 H 0.44794 0.68838 0.3422 0.0
H918 H 0.44795 0.65334 0.35914 0.0
H919 H 0.42389 0.70058 0.38287 0.0
H920 H 0.499 0.73919 0.33711 0.0
H921 H 0.54042 0.75264 0.33388 0.0
H922 H 0.55168 0.79125 0.42828 0.0
H923 H 0.5103 0.77777 0.43243 0.0
C924 C 0.41336 0.78999 0.40836 0.0
C925 C 0.42131 0.80018 0.44126 0.0
C926 C 0.42213 0.77716 0.39295 0.0
C927 C 0.43875 0.77409 0.41044 0.0
C928 C 0.44744 0.78515 0.44251 0.0
C929 C 0.43881 0.79809 0.45779 0.0
C930 C 0.44553 0.75759 0.39754 0.0
C931 C 0.46897 0.76484 0.39399 0.0
C932 C 0.42909 0.73426 0.39199 0.0
C933 C 0.40416 0.72511 0.39715 0.0
C934 C 0.39555 0.7265 0.42998 0.0
C935 C 0.37198 0.7176 0.43472 0.0
C936 C 0.35684 0.70701 0.40693 0.0
C937 C 0.36525 0.7054 0.3743 0.0
C938 C 0.38881 0.71434 0.36939 0.0
C939 C 0.47751 0.68705 0.42843 0.0
C940 C 0.46607 0.66721 0.40788 0.0
C941 C 0.47755 0.707 0.41868 0.0
C942 C 0.46619 0.70746 0.38818 0.0
C943 C 0.45681 0.68838 0.36581 0.0
C944 C 0.45688 0.6684 0.3755 0.0
C945 C 0.45999 0.72558 0.38422 0.0
C946 C 0.43655 0.71866 0.38472 0.0
C947 C 0.47646 0.7491 0.38746 0.0
C948 C 0.50146 0.75741 0.38508 0.0
C949 C 0.51027 0.75044 0.35731 0.0
C950 C 0.53376 0.75809 0.3553 0.0
C951 C 0.54867 0.77279 0.38086 0.0
C952 C 0.54012 0.77989 0.40846 0.0
C953 C 0.51664 0.77229 0.41061 0.0
H954 H 0.56685 0.77869 0.37926 0.0
H955 H 0.3386 0.70006 0.41068 0.0
H956 H 0.62568 0.45315 0.95488 0.0
H957 H 0.66459 0.46726 0.93257 0.0
H958 H 0.6899 0.47557 0.03817 0.0
H959 H 0.65116 0.46134 0.06058 0.0
H960 H 0.72305 0.50749 0.98843 0.0
H961 H 0.66726 0.42434 0.00469 0.0
H962 H 0.63011 0.38998 0.9911 0.0
H963 H 0.64663 0.39897 0.88177 0.0
H964 H 0.68371 0.43365 0.89477 0.0
H965 H 0.78824 0.46224 0.04688 0.0
H966 H 0.76358 0.47711 0.02854 0.0
H967 H 0.75969 0.45024 0.92479 0.0
H968 H 0.78399 0.43466 0.94348 0.0
H969 H 0.71915 0.43562 0.94812 0.0
H970 H 0.7824 0.50931 0.93842 0.0
H971 H 0.81953 0.54334 0.95269 0.0
H972 H 0.79076 0.55351 0.04649 0.0
H973 H 0.75354 0.51935 0.03315 0.0
C974 C 0.6397 0.4588 0.97331 0.0
C975 C 0.63544 0.45568 0.00942 0.0
C976 C 0.6619 0.46696 0.96051 0.0
C977 C 0.67998 0.47216 0.98375 0.0
C978 C 0.67615 0.47167 0.01984 0.0
C979 C 0.65398 0.46332 0.03262 0.0
C980 C 0.70109 0.47273 0.97171 0.0
C981 C 0.72243 0.49198 0.97913 0.0
C982 C 0.70012 0.4527 0.95833 0.0
C983 C 0.67806 0.43167 0.95063 0.0
C984 C 0.66288 0.41904 0.97776 0.0
C985 C 0.64186 0.39953 0.97017 0.0
C986 C 0.63599 0.39233 0.93558 0.0
C987 C 0.65117 0.4046 0.90853 0.0
C988 C 0.67217 0.42419 0.91598 0.0
C989 C 0.78252 0.45988 0.01996 0.0
C990 C 0.78775 0.44705 0.99673 0.0
C991 C 0.76864 0.46867 0.00933 0.0
C992 C 0.75997 0.46508 0.9751 0.0
C993 C 0.76627 0.45334 0.95126 0.0
C994 C 0.78006 0.44438 0.96199 0.0
C995 C 0.74139 0.47007 0.96669 0.0
C996 C 0.72032 0.4517 0.95558 0.0
C997 C 0.74276 0.49101 0.97639 0.0
C998 C 0.7651 0.51169 0.98472 0.0
C999 C 0.78399 0.51871 0.9622 0.0
C1000 C 0.80507 0.53805 0.97012 0.0
C1001 C 0.8075 0.55058 1.00046 0.0
C1002 C 0.78884 0.54381 0.02295 0.0
C1003 C 0.76772 0.52448 0.01516 0.0
H1004 H 0.82384 0.56554 0.00656 0.0
H1005 H 0.61973 0.3772 0.92975 0.0
H1006 H 0.17999 0.63656 0.48205 0.0
H1007 H 0.20341 0.67737 0.47058 0.0
H1008 H 0.21122 0.66325 0.36304 0.0
H1009 H 0.18789 0.62199 0.37463 0.0
H1010 H 0.25146 0.69087 0.39136 0.0
H1011 H 0.18237 0.69217 0.38293 0.0
H1012 H 0.14312 0.68323 0.39793 0.0
H1013 H 0.16711 0.71807 0.49602 0.0
H1014 H 0.20646 0.72693 0.48192 0.0
H1015 H 0.33295 0.80761 0.40237 0.0
H1016 H 0.29605 0.7773 0.38009 0.0
H1017 H 0.27135 0.75844 0.4857 0.0
H1018 H 0.30805 0.78863 0.50808 0.0
H1019 H 0.2363 0.75095 0.43736 0.0
H1020 H 0.30099 0.73627 0.4508 0.0
H1021 H 0.34064 0.74586 0.43676 0.0
H1022 H 0.32381 0.73604 0.32759 0.0
H1023 H 0.28414 0.72674 0.34101 0.0
C1024 C 0.18636 0.64211 0.4558 0.0
C1025 C 0.18225 0.62611 0.42929 0.0
C1026 C 0.19957 0.6655 0.44915 0.0
C1027 C 0.2088 0.67342 0.41579 0.0
C1028 C 0.20411 0.6575 0.38889 0.0
C1029 C 0.19082 0.63398 0.39555 0.0
C1030 C 0.22561 0.69807 0.41085 0.0
C1031 C 0.2479 0.70408 0.40024 0.0
C1032 C 0.22107 0.71536 0.42262 0.0
C1033 C 0.19742 0.7102 0.43133 0.0
C1034 C 0.17928 0.69783 0.4078 0.0
C1035 C 0.157 0.69278 0.41614 0.0
C1036 C 0.15262 0.70007 0.44791 0.0
C1037 C 0.17053 0.71246 0.4714 0.0
C1038 C 0.19285 0.71754 0.4632 0.0
C1039 C 0.31937 0.79751 0.42078 0.0
C1040 C 0.32345 0.80011 0.45696 0.0
C1041 C 0.29831 0.78024 0.408 0.0
C1042 C 0.28117 0.76546 0.43129 0.0
C1043 C 0.28439 0.76968 0.46731 0.0
C1044 C 0.30542 0.78683 0.48008 0.0
C1045 C 0.262 0.74327 0.41933 0.0
C1046 C 0.23944 0.73778 0.42696 0.0
C1047 C 0.2662 0.72641 0.40473 0.0
C1048 C 0.28974 0.7311 0.39684 0.0
C1049 C 0.30579 0.73624 0.42381 0.0
C1050 C 0.32826 0.74166 0.41596 0.0
C1051 C 0.33477 0.74171 0.38128 0.0
C1052 C 0.31876 0.73611 0.35442 0.0
C1053 C 0.29629 0.73077 0.36212 0.0
H1054 H 0.3522 0.74602 0.37524 0.0
H1055 H 0.13536 0.69614 0.45432 0.0
H1056 H 0.79816 0.4439 0.63786 0.0
H1057 H 0.76708 0.45071 0.65583 0.0
H1058 H 0.76049 0.4681 0.54961 0.0
H1059 H 0.79161 0.46175 0.53171 0.0
H1060 H 0.75156 0.49321 0.59554 0.0
H1061 H 0.73015 0.41276 0.57884 0.0
H1062 H 0.73271 0.37831 0.59261 0.0
H1063 H 0.71447 0.38121 0.69924 0.0
H1064 H 0.71211 0.41588 0.68614 0.0
H1065 H 0.63962 0.44742 0.53668 0.0
H1066 H 0.67915 0.45921 0.55183 0.0
H1067 H 0.65879 0.43775 0.65838 0.0
H1068 H 0.61888 0.4256 0.64317 0.0
H1069 H 0.68352 0.42015 0.63208 0.0
H1070 H 0.69336 0.49463 0.64025 0.0
H1071 H 0.68951 0.52776 0.6227 0.0
H1072 H 0.72839 0.53566 0.52959 0.0
H1073 H 0.73219 0.50237 0.54627 0.0
C1074 C 0.79047 0.44978 0.61859 0.0
C1075 C 0.797 0.45194 0.58329 0.0
C1076 C 0.77273 0.45363 0.62888 0.0
C1077 C 0.76125 0.45953 0.60393 0.0
C1078 C 0.7691 0.46354 0.56929 0.0
C1079 C 0.7868 0.45975 0.55904 0.0
C1080 C 0.73924 0.45846 0.61213 0.0
C1081 C 0.73667 0.47734 0.60381 0.0
C1082 C 0.71998 0.43791 0.62386 0.0
C1083 C 0.72126 0.41704 0.63165 0.0
C1084 C 0.72684 0.40612 0.60527 0.0
C1085 C 0.72824 0.38656 0.61294 0.0
C1086 C 0.72383 0.37763 0.64681 0.0
C1087 C 0.71795 0.38819 0.67305 0.0
C1088 C 0.71658 0.40779 0.66552 0.0
C1089 C 0.64358 0.4455 0.56345 0.0
C1090 C 0.62621 0.43558 0.58874 0.0
C1091 C 0.66623 0.45244 0.57218 0.0
C1092 C 0.67199 0.44973 0.60639 0.0
C1093 C 0.65473 0.44021 0.63193 0.0
C1094 C 0.63199 0.43329 0.62321 0.0
C1095 C 0.69558 0.45461 0.61399 0.0
C1096 C 0.69846 0.43639 0.62521 0.0
C1097 C 0.71504 0.4757 0.6046 0.0
C1098 C 0.71303 0.49593 0.59454 0.0
C1099 C 0.701 0.50335 0.61594 0.0
C1100 C 0.69883 0.52217 0.60615 0.0
C1101 C 0.70869 0.5338 0.57505 0.0
C1102 C 0.72078 0.52665 0.5537 0.0
C1103 C 0.72299 0.50783 0.56336 0.0
H1104 H 0.70698 0.54836 0.56751 0.0
H1105 H 0.72492 0.36248 0.6527 0.0
H1106 H 0.36099 0.74957 0.01448 0.0
H1107 H 0.31951 0.72959 0.02252 0.0
H1108 H 0.32408 0.7904 0.06754 0.0
H1109 H 0.36594 0.81079 0.05936 0.0
H1110 H 0.29018 0.7431 0.10003 0.0
H1111 H 0.30806 0.78713 0.99596 0.0
H1112 H 0.32956 0.80419 0.94159 0.0
H1113 H 0.30547 0.73704 0.89896 0.0
H1114 H 0.28414 0.71957 0.9533 0.0
H1115 H 0.1796 0.66599 0.98192 0.0
H1116 H 0.20946 0.70413 1.0007 0.0
H1117 H 0.23669 0.67305 0.07025 0.0
H1118 H 0.20647 0.6353 0.05293 0.0
H1119 H 0.25057 0.71952 0.9855 0.0
H1120 H 0.27108 0.70578 0.13035 0.0
H1121 H 0.24984 0.68983 0.18517 0.0
H1122 H 0.19494 0.69929 0.14788 0.0
H1123 H 0.21598 0.71566 0.093 0.0
C1124 C 0.35329 0.75862 0.02668 0.0
C1125 C 0.36662 0.78179 0.03593 0.0
C1126 C 0.32962 0.74718 0.03128 0.0
C1127 C 0.31888 0.75868 0.04526 0.0
C1128 C 0.33219 0.78135 0.0567 0.0
C1129 C 0.35601 0.79292 0.05195 0.0
C1130 C 0.29365 0.74718 0.04432 0.0
C1131 C 0.28123 0.73812 0.07522 0.0
C1132 C 0.28212 0.74169 0.0119 0.0
C1133 C 0.29454 0.75205 0.97878 0.0
C1134 C 0.30745 0.776 0.97506 0.0
C1135 C 0.3196 0.78574 0.94424 0.0
C1136 C 0.31889 0.77171 0.91684 0.0
C1137 C 0.30599 0.74789 0.92019 0.0
C1138 C 0.29382 0.73806 0.95098 0.0
C1139 C 0.19156 0.6674 0.00204 0.0
C1140 C 0.19096 0.64775 0.01564 0.0
C1141 C 0.20858 0.68918 0.01281 0.0
C1142 C 0.22537 0.69159 0.03702 0.0
C1143 C 0.22372 0.67184 0.05225 0.0
C1144 C 0.20654 0.65015 0.04195 0.0
C1145 C 0.24691 0.71386 0.04125 0.0
C1146 C 0.25888 0.72501 0.01073 0.0
C1147 C 0.25777 0.72156 0.07416 0.0
C1148 C 0.24516 0.71198 0.10743 0.0
C1149 C 0.25459 0.70469 0.1339 0.0
C1150 C 0.24254 0.6955 0.16499 0.0
C1151 C 0.22106 0.69354 0.17 0.0
C1152 C 0.21157 0.70078 0.14394 0.0
C1153 C 0.22354 0.70999 0.1128 0.0
H1154 H 0.21176 0.6864 0.19408 0.0
H1155 H 0.32833 0.77928 0.89302 0.0
H1156 H 0.55449 0.18674 0.5963 0.0
H1157 H 0.5419 0.21279 0.61853 0.0
H1158 H 0.5797 0.26082 0.53625 0.0
H1159 H 0.59283 0.23527 0.51468 0.0
H1160 H 0.58491 0.28308 0.59401 0.0
H1161 H 0.52077 0.22258 0.5314 0.0
H1162 H 0.49145 0.18249 0.5191 0.0
H1163 H 0.46386 0.17593 0.62236 0.0
H1164 H 0.49323 0.21593 0.63539 0.0
H1165 H 0.50899 0.32711 0.54804 0.0
H1166 H 0.50987 0.29172 0.55644 0.0
H1167 H 0.54346 0.31644 0.65584 0.0
H1168 H 0.54298 0.35214 0.64736 0.0
H1169 H 0.50151 0.25611 0.60074 0.0
H1170 H 0.59303 0.31441 0.6509 0.0
H1171 H 0.62172 0.35566 0.65414 0.0
H1172 H 0.59409 0.36798 0.56085 0.0
H1173 H 0.56564 0.32677 0.55664 0.0
C1174 C 0.56021 0.20294 0.58316 0.0
C1175 C 0.57448 0.20893 0.55361 0.0
C1176 C 0.55296 0.21776 0.59581 0.0
C1177 C 0.55964 0.23863 0.57881 0.0
C1178 C 0.57437 0.24483 0.54985 0.0
C1179 C 0.58177 0.23016 0.53743 0.0
C1180 C 0.55081 0.25386 0.59007 0.0
C1181 C 0.56668 0.27707 0.596 0.0
C1182 C 0.52701 0.24611 0.59234 0.0
C1183 C 0.50935 0.22212 0.58451 0.0
C1184 C 0.50855 0.21252 0.55156 0.0
C1185 C 0.49191 0.18983 0.54444 0.0
C1186 C 0.47585 0.17664 0.56998 0.0
C1187 C 0.47635 0.18615 0.60264 0.0
C1188 C 0.49298 0.20882 0.6099 0.0
C1189 C 0.51568 0.32464 0.57238 0.0
C1190 C 0.52659 0.34263 0.59653 0.0
C1191 C 0.51607 0.30432 0.57723 0.0
C1192 C 0.52734 0.30181 0.60627 0.0
C1193 C 0.53502 0.31827 0.63298 0.0
C1194 C 0.53472 0.33866 0.62808 0.0
C1195 C 0.53561 0.28521 0.6043 0.0
C1196 C 0.51972 0.26186 0.59996 0.0
C1197 C 0.55941 0.29291 0.60225 0.0
C1198 C 0.57703 0.31759 0.60379 0.0
C1199 C 0.59319 0.32593 0.631 0.0
C1200 C 0.60941 0.34929 0.63298 0.0
C1201 C 0.60967 0.36445 0.60779 0.0
C1202 C 0.59385 0.35624 0.58038 0.0
C1203 C 0.5777 0.33289 0.57816 0.0
H1204 H 0.62217 0.38253 0.60946 0.0
H1205 H 0.46298 0.15908 0.56442 0.0
H1206 H 0.20619 0.55834 0.94096 0.0
H1207 H 0.23318 0.54571 0.95625 0.0
H1208 H 0.20755 0.53262 0.06205 0.0
H1209 H 0.18035 0.54555 0.04679 0.0
H1210 H 0.25323 0.55868 0.06083 0.0
H1211 H 0.20111 0.48751 0.01334 0.0
H1212 H 0.17213 0.45948 0.973 0.0
H1213 H 0.22177 0.48348 0.89013 0.0
H1214 H 0.25097 0.5119 0.92974 0.0
H1215 H 0.35544 0.54551 0.05027 0.0
H1216 H 0.31508 0.53315 0.0637 0.0
H1217 H 0.30836 0.55881 0.96378 0.0
H1218 H 0.34839 0.57151 0.95056 0.0
H1219 H 0.27215 0.51178 0.9825 0.0
H1220 H 0.31723 0.59111 0.02946 0.0
H1221 H 0.34566 0.61913 0.07055 0.0
H1222 H 0.30732 0.57668 0.15713 0.0
H1223 H 0.27881 0.54829 0.11643 0.0
C1224 C 0.206 0.55242 0.96735 0.0
C1225 C 0.1913 0.55304 0.99274 0.0
C1226 C 0.22129 0.54497 0.976 0.0
C1227 C 0.22214 0.53788 0.01019 0.0
C1228 C 0.20699 0.53782 0.03546 0.0
C1229 C 0.19152 0.5452 0.02671 0.0
C1230 C 0.2409 0.53344 0.01964 0.0
C1231 C 0.25698 0.54776 0.04459 0.0
C1232 C 0.24572 0.51901 0.9988 0.0
C1233 C 0.22829 0.50186 0.97464 0.0
C1234 C 0.20584 0.4869 0.98647 0.0
C1235 C 0.18936 0.47093 0.96372 0.0
C1236 C 0.19511 0.46969 0.92904 0.0
C1237 C 0.21736 0.48442 0.91704 0.0
C1238 C 0.23391 0.50043 0.93967 0.0
C1239 C 0.34529 0.54854 0.03132 0.0
C1240 C 0.35498 0.55952 0.99944 0.0
C1241 C 0.32232 0.54141 0.03896 0.0
C1242 C 0.30884 0.5449 0.01452 0.0
C1243 C 0.31852 0.55579 0.98276 0.0
C1244 C 0.34142 0.5632 0.97539 0.0
C1245 C 0.28477 0.53819 0.02166 0.0
C1246 C 0.26777 0.52173 0.9999 0.0
C1247 C 0.279 0.5504 0.04568 0.0
C1248 C 0.29612 0.56747 0.06996 0.0
C1249 C 0.315 0.58768 0.05724 0.0
C1250 C 0.33109 0.60364 0.08045 0.0
C1251 C 0.32835 0.59965 0.11643 0.0
C1252 C 0.30946 0.57972 0.12926 0.0
C1253 C 0.29334 0.56369 0.10615 0.0
H1254 H 0.34081 0.61203 0.13436 0.0
H1255 H 0.18232 0.45732 0.91146 0.0
H1256 H 0.64251 0.18588 0.61296 0.0
H1257 H 0.67925 0.21413 0.63831 0.0
H1258 H 0.71228 0.22155 0.53876 0.0
H1259 H 0.6757 0.19327 0.51327 0.0
H1260 H 0.74225 0.2308 0.59729 0.0
H1261 H 0.68662 0.25087 0.55018 0.0
H1262 H 0.64787 0.2463 0.54825 0.0
H1263 H 0.65288 0.26392 0.65696 0.0
H1264 H 0.69152 0.26815 0.65963 0.0
H1265 H 0.81219 0.34273 0.54011 0.0
H1266 H 0.78636 0.30285 0.55541 0.0
H1267 H 0.76782 0.32401 0.65058 0.0
H1268 H 0.79342 0.3642 0.6349 0.0
H1269 H 0.7314 0.29784 0.61407 0.0
H1270 H 0.79391 0.29039 0.65282 0.0
H1271 H 0.8326 0.29489 0.65203 0.0
H1272 H 0.81586 0.25449 0.55851 0.0
H1273 H 0.77719 0.25002 0.55839 0.0
C1274 C 0.65776 0.19287 0.59681 0.0
C1275 C 0.65621 0.18789 0.56092 0.0
C1276 C 0.67874 0.20893 0.6114 0.0
C1277 C 0.6983 0.22019 0.59019 0.0
C1278 C 0.69733 0.21306 0.55551 0.0
C1279 C 0.67637 0.19702 0.5409 0.0
C1280 C 0.71784 0.24247 0.60104 0.0
C1281 C 0.74004 0.24551 0.60131 0.0
C1282 C 0.71472 0.26146 0.60702 0.0
C1283 C 0.69179 0.25954 0.60522 0.0
C1284 C 0.67939 0.25364 0.5737 0.0
C1285 C 0.65745 0.2511 0.57247 0.0
C1286 C 0.64789 0.25475 0.60249 0.0
C1287 C 0.66029 0.26104 0.63376 0.0
C1288 C 0.68219 0.26348 0.63516 0.0
C1289 C 0.80304 0.3389 0.56472 0.0
C1290 C 0.80459 0.35654 0.58612 0.0
C1291 C 0.78843 0.31604 0.57365 0.0
C1292 C 0.77525 0.31038 0.60433 0.0
C1293 C 0.77789 0.32799 0.62686 0.0
C1294 C 0.79249 0.35092 0.61786 0.0
C1295 C 0.75621 0.28657 0.6094 0.0
C1296 C 0.7339 0.28318 0.61171 0.0
C1297 C 0.75936 0.2674 0.60565 0.0
C1298 C 0.78261 0.26991 0.60558 0.0
C1299 C 0.79851 0.28257 0.63196 0.0
C1300 C 0.82044 0.2851 0.63168 0.0
C1301 C 0.82669 0.27499 0.60523 0.0
C1302 C 0.81099 0.26229 0.57902 0.0
C1303 C 0.78903 0.25971 0.57915 0.0
H1304 H 0.84368 0.27698 0.60506 0.0
H1305 H 0.6309 0.25276 0.6015 0.0
H1306 H 0.47755 0.65626 0.97886 0.0
H1307 H 0.49383 0.69278 0.00916 0.0
H1308 H 0.46489 0.65761 0.10633 0.0
H1309 H 0.44837 0.62073 0.0758 0.0
H1310 H 0.4497 0.68575 0.09009 0.0
H1311 H 0.52313 0.69529 0.10207 0.0
H1312 H 0.55796 0.69388 0.0865 0.0
H1313 H 0.57238 0.74243 0.00406 0.0
H1314 H 0.53748 0.7439 0.01869 0.0
H1315 H 0.4616 0.79393 0.09761 0.0
H1316 H 0.47413 0.76789 0.11999 0.0
H1317 H 0.49897 0.76465 0.0174 0.0
H1318 H 0.48716 0.79102 0.99528 0.0
H1319 H 0.52313 0.75728 0.06729 0.0
H1320 H 0.44126 0.72986 0.0396 0.0
H1321 H 0.40501 0.72988 0.04961 0.0
H1322 H 0.40621 0.71353 0.15775 0.0
H1323 H 0.44265 0.7137 0.14836 0.0
C1324 C 0.47518 0.65625 0.00685 0.0
C1325 C 0.46141 0.63573 0.0249 0.0
C1326 C 0.48477 0.67716 0.0243 0.0
C1327 C 0.48075 0.67796 0.06014 0.0
C1328 C 0.46835 0.65736 0.07875 0.0
C1329 C 0.45887 0.63634 0.06127 0.0
C1330 C 0.48521 0.70001 0.07543 0.0
C1331 C 0.46606 0.70136 0.08658 0.0
C1332 C 0.50647 0.7204 0.07066 0.0
C1333 C 0.52763 0.71974 0.06161 0.0
C1334 C 0.53366 0.7056 0.08051 0.0
C1335 C 0.55344 0.7048 0.07184 0.0
C1336 C 0.56739 0.71808 0.04433 0.0
C1337 C 0.56159 0.7322 0.02543 0.0
C1338 C 0.54183 0.73308 0.03398 0.0
C1339 C 0.47045 0.78825 0.08017 0.0
C1340 C 0.47287 0.79395 0.0445 0.0
C1341 C 0.47766 0.77344 0.09302 0.0
C1342 C 0.48698 0.76392 0.07017 0.0
C1343 C 0.49175 0.77171 0.03551 0.0
C1344 C 0.48478 0.78665 0.02278 0.0
C1345 C 0.48727 0.7427 0.07929 0.0
C1346 C 0.50723 0.74159 0.07279 0.0
C1347 C 0.46667 0.72239 0.08784 0.0
C1348 C 0.44473 0.72206 0.09341 0.0
C1349 C 0.4338 0.72636 0.06552 0.0
C1350 C 0.41325 0.72635 0.07107 0.0
C1351 C 0.40335 0.72178 0.10432 0.0
C1352 C 0.41394 0.71714 0.13204 0.0
C1353 C 0.43454 0.7172 0.12664 0.0
H1354 H 0.38744 0.72177 0.10858 0.0
H1355 H 0.58269 0.71742 0.03765 0.0
loop_
_geom_bond_atom_site_label_1
_geom_bond_atom_site_label_2
_geom_bond_distance
_geom_bond_site_symmetry_2
_ccdc_geom_bond_type
In0 O1 2.296 . S
In0 O2 2.328 . S
In0 O6 2.266 1_554 S
In0 O7 2.324 1_554 S
In0 O8 2.265 1_554 S
In0 O9 2.326 . S
In0 O11 2.293 1_554 S
In0 O12 2.326 . S
O1 In0 2.296 . S
O1 C10 1.240 . S
O2 In0 2.328 . S
O2 C10 1.252 . S
C3 O6 1.252 . S
C3 O7 1.260 . S
C4 O11 1.240 . S
C4 O12 1.252 1_556 S
C5 O8 1.252 . S
C5 O9 1.260 1_556 S
O6 In0 2.266 1_556 S
O6 C3 1.252 . S
O7 In0 2.324 1_556 S
O7 C3 1.260 . S
O8 In0 2.265 1_556 S
O8 C5 1.252 . S
O9 In0 2.326 . S
O9 C5 1.260 1_554 S
C10 O1 1.240 . S
C10 O2 1.252 . S
O11 In0 2.293 1_556 S
O11 C4 1.240 . S
O12 In0 2.326 . S
O12 C4 1.252 1_554 S
In13 O14 2.294 . S
In13 O15 2.326 . S
In13 O19 2.266 . S
In13 O20 2.326 . S
In13 O21 2.266 . S
In13 O22 2.326 . S
In13 O24 2.294 . S
In13 O25 2.326 . S
O14 In13 2.294 . S
O14 C23 1.240 . S
O15 In13 2.326 . S
O15 C23 1.252 . S
C16 O19 1.252 . S
C16 O20 1.260 . S
C17 O24 1.240 . S
C17 O25 1.252 . S
C18 O21 1.252 . S
C18 O22 1.260 . S
O19 In13 2.266 . S
O19 C16 1.252 . S
O20 In13 2.326 . S
O20 C16 1.260 . S
O21 In13 2.266 . S
O21 C18 1.252 . S
O22 In13 2.326 . S
O22 C18 1.260 . S
C23 O14 1.240 . S
C23 O15 1.252 . S
O24 In13 2.294 . S
O24 C17 1.240 . S
O25 In13 2.326 . S
O25 C17 1.252 . S
In26 O27 2.293 1_554 S
In26 O28 2.326 . S
In26 O32 2.265 1_554 S
In26 O33 2.326 . S
In26 O34 2.266 1_554 S
In26 O35 2.324 1_554 S
In26 O37 2.296 . S
In26 O38 2.328 . S
O27 In26 2.293 1_556 S
O27 C36 1.240 . S
O28 In26 2.326 . S
O28 C36 1.252 1_554 S
C29 O32 1.252 . S
C29 O33 1.260 1_556 S
C30 O37 1.240 . S
C30 O38 1.252 . S
C31 O34 1.252 . S
C31 O35 1.260 . S
O32 In26 2.265 1_556 S
O32 C29 1.252 . S
O33 In26 2.326 . S
O33 C29 1.260 1_554 S
O34 In26 2.266 1_556 S
O34 C31 1.252 . S
O35 In26 2.324 1_556 S
O35 C31 1.260 . S
C36 O27 1.240 . S
C36 O28 1.252 1_556 S
O37 In26 2.296 . S
O37 C30 1.240 . S
O38 In26 2.328 . S
O38 C30 1.252 . S
In39 O40 2.294 . S
In39 O41 2.326 . S
In39 O45 2.266 . S
In39 O46 2.326 . S
In39 O47 2.266 . S
In39 O48 2.326 . S
In39 O50 2.294 . S
In39 O51 2.326 . S
O40 In39 2.294 . S
O40 C49 1.240 . S
O41 In39 2.326 . S
O41 C49 1.252 . S
C42 O45 1.252 . S
C42 O46 1.260 . S
C43 O50 1.240 . S
C43 O51 1.252 . S
C44 O47 1.252 . S
C44 O48 1.260 . S
O45 In39 2.266 . S
O45 C42 1.252 . S
O46 In39 2.326 . S
O46 C42 1.260 . S
O47 In39 2.266 . S
O47 C44 1.252 . S
O48 In39 2.326 . S
O48 C44 1.260 . S
C49 O40 1.240 . S
C49 O41 1.252 . S
O50 In39 2.294 . S
O50 C43 1.240 . S
O51 In39 2.326 . S
O51 C43 1.252 . S
In52 O53 2.296 . S
In52 O54 2.328 . S
In52 O58 2.266 1_554 S
In52 O59 2.324 1_554 S
In52 O60 2.265 1_554 S
In52 O61 2.326 . S
In52 O63 2.293 1_554 S
In52 O64 2.326 . S
O53 In52 2.296 . S
O53 C62 1.240 . S
O54 In52 2.328 . S
O54 C62 1.252 . S
C55 O58 1.252 . S
C55 O59 1.260 . S
C56 O63 1.240 . S
C56 O64 1.252 1_556 S
C57 O60 1.252 . S
C57 O61 1.260 1_556 S
O58 In52 2.266 1_556 S
O58 C55 1.252 . S
O59 In52 2.324 1_556 S
O59 C55 1.260 . S
O60 In52 2.265 1_556 S
O60 C57 1.252 . S
O61 In52 2.326 . S
O61 C57 1.260 1_554 S
C62 O53 1.240 . S
C62 O54 1.252 . S
O63 In52 2.293 1_556 S
O63 C56 1.240 . S
O64 In52 2.326 . S
O64 C56 1.252 1_554 S
In65 O66 2.294 . S
In65 O67 2.326 . S
In65 O71 2.266 . S
In65 O72 2.326 . S
In65 O73 2.266 . S
In65 O74 2.326 . S
In65 O76 2.294 . S
In65 O77 2.326 . S
O66 In65 2.294 . S
O66 C75 1.240 . S
O67 In65 2.326 . S
O67 C75 1.252 . S
C68 O71 1.252 . S
C68 O72 1.260 . S
C69 O76 1.240 . S
C69 O77 1.252 . S
C70 O73 1.252 . S
C70 O74 1.260 . S
O71 In65 2.266 . S
O71 C68 1.252 . S
O72 In65 2.326 . S
O72 C68 1.260 . S
O73 In65 2.266 . S
O73 C70 1.252 . S
O74 In65 2.326 . S
O74 C70 1.260 . S
C75 O66 1.240 . S
C75 O67 1.252 . S
O76 In65 2.294 . S
O76 C69 1.240 . S
O77 In65 2.326 . S
O77 C69 1.252 . S
In78 O79 2.294 . S
In78 O80 2.326 . S
In78 O84 2.266 . S
In78 O85 2.326 . S
In78 O86 2.266 . S
In78 O87 2.326 . S
In78 O89 2.294 . S
In78 O90 2.326 . S
O79 In78 2.294 . S
O79 C88 1.240 . S
O80 In78 2.326 . S
O80 C88 1.252 . S
C81 O84 1.252 . S
C81 O85 1.260 . S
C82 O89 1.240 . S
C82 O90 1.252 . S
C83 O86 1.252 . S
C83 O87 1.260 . S
O84 In78 2.266 . S
O84 C81 1.252 . S
O85 In78 2.326 . S
O85 C81 1.260 . S
O86 In78 2.266 . S
O86 C83 1.252 . S
O87 In78 2.326 . S
O87 C83 1.260 . S
C88 O79 1.240 . S
C88 O80 1.252 . S
O89 In78 2.294 . S
O89 C82 1.240 . S
O90 In78 2.326 . S
O90 C82 1.252 . S
In91 O92 2.293 1_556 S
In91 O93 2.326 . S
In91 O97 2.265 1_556 S
In91 O98 2.326 . S
In91 O99 2.266 1_556 S
In91 O100 2.324 1_556 S
In91 O102 2.296 . S
In91 O103 2.328 . S
O92 In91 2.293 1_554 S
O92 C101 1.240 . S
O93 In91 2.326 . S
O93 C101 1.252 1_556 S
C94 O97 1.252 . S
C94 O98 1.260 1_554 S
C95 O102 1.240 . S
C95 O103 1.252 . S
C96 O99 1.252 . S
C96 O100 1.260 . S
O97 In91 2.265 1_554 S
O97 C94 1.252 . S
O98 In91 2.326 . S
O98 C94 1.260 1_556 S
O99 In91 2.266 1_554 S
O99 C96 1.252 . S
O100 In91 2.324 1_554 S
O100 C96 1.260 . S
C101 O92 1.240 . S
C101 O93 1.252 1_554 S
O102 In91 2.296 . S
O102 C95 1.240 . S
O103 In91 2.328 . S
O103 C95 1.252 . S
In104 O105 2.294 . S
In104 O106 2.326 . S
In104 O110 2.266 . S
In104 O111 2.326 . S
In104 O112 2.266 . S
In104 O113 2.326 . S
In104 O115 2.294 . S
In104 O116 2.326 . S
O105 In104 2.294 . S
O105 C114 1.240 . S
O106 In104 2.326 . S
O106 C114 1.252 . S
C107 O110 1.252 . S
C107 O111 1.260 . S
C108 O115 1.240 . S
C108 O116 1.252 . S
C109 O112 1.252 . S
C109 O113 1.260 . S
O110 In104 2.266 . S
O110 C107 1.252 . S
O111 In104 2.326 . S
O111 C107 1.260 . S
O112 In104 2.266 . S
O112 C109 1.252 . S
O113 In104 2.326 . S
O113 C109 1.260 . S
C114 O105 1.240 . S
C114 O106 1.252 . S
O115 In104 2.294 . S
O115 C108 1.240 . S
O116 In104 2.326 . S
O116 C108 1.252 . S
In117 O118 2.293 1_556 S
In117 O119 2.326 . S
In117 O123 2.265 1_556 S
In117 O124 2.326 . S
In117 O125 2.266 1_556 S
In117 O126 2.324 1_556 S
In117 O128 2.296 . S
In117 O129 2.328 . S
O118 In117 2.293 1_554 S
O118 C127 1.240 . S
O119 In117 2.326 . S
O119 C127 1.252 1_556 S
C120 O123 1.252 . S
C120 O124 1.260 1_554 S
C121 O128 1.240 . S
C121 O129 1.252 . S
C122 O125 1.252 . S
C122 O126 1.260 . S
O123 In117 2.265 1_554 S
O123 C120 1.252 . S
O124 In117 2.326 . S
O124 C120 1.260 1_556 S
O125 In117 2.266 1_554 S
O125 C122 1.252 . S
O126 In117 2.324 1_554 S
O126 C122 1.260 . S
C127 O118 1.240 . S
C127 O119 1.252 1_554 S
O128 In117 2.296 . S
O128 C121 1.240 . S
O129 In117 2.328 . S
O129 C121 1.252 . S
In130 O131 2.294 . S
In130 O132 2.326 . S
In130 O136 2.266 . S
In130 O137 2.326 . S
In130 O138 2.266 . S
In130 O139 2.326 . S
In130 O141 2.294 . S
In130 O142 2.326 . S
O131 In130 2.294 . S
O131 C140 1.240 . S
O132 In130 2.326 . S
O132 C140 1.252 . S
C133 O136 1.252 . S
C133 O137 1.260 . S
C134 O141 1.240 . S
C134 O142 1.252 . S
C135 O138 1.252 . S
C135 O139 1.260 . S
O136 In130 2.266 . S
O136 C133 1.252 . S
O137 In130 2.326 . S
O137 C133 1.260 . S
O138 In130 2.266 . S
O138 C135 1.252 . S
O139 In130 2.326 . S
O139 C135 1.260 . S
C140 O131 1.240 . S
C140 O132 1.252 . S
O141 In130 2.294 . S
O141 C134 1.240 . S
O142 In130 2.326 . S
O142 C134 1.252 . S
In143 O144 2.293 1_556 S
In143 O145 2.326 . S
In143 O149 2.265 1_556 S
In143 O150 2.326 . S
In143 O151 2.266 1_556 S
In143 O152 2.324 1_556 S
In143 O154 2.296 . S
In143 O155 2.328 . S
O144 In143 2.293 1_554 S
O144 C153 1.240 . S
O145 In143 2.326 . S
O145 C153 1.252 1_556 S
C146 O149 1.252 . S
C146 O150 1.260 1_554 S
C147 O154 1.240 . S
C147 O155 1.252 . S
C148 O151 1.252 . S
C148 O152 1.260 . S
O149 In143 2.265 1_554 S
O149 C146 1.252 . S
O150 In143 2.326 . S
O150 C146 1.260 1_556 S
O151 In143 2.266 1_554 S
O151 C148 1.252 . S
O152 In143 2.324 1_554 S
O152 C148 1.260 . S
C153 O144 1.240 . S
C153 O145 1.252 1_554 S
O154 In143 2.296 . S
O154 C147 1.240 . S
O155 In143 2.328 . S
O155 C147 1.252 . S
H156 C174 0.951 . S
H157 C176 0.951 . S
H158 C178 0.950 . S
H159 C179 0.950 . S
H160 C181 0.950 . S
H161 C184 0.950 . S
H162 C185 0.950 . S
H163 C187 0.950 . S
H164 C188 0.950 . S
H165 C189 0.951 . S
H166 C191 0.951 . S
H167 C193 0.950 . S
H168 C194 0.950 . S
H169 C196 0.950 . S
H170 C199 0.950 . S
H171 C200 0.950 . S
H172 C202 0.950 . S
H173 C203 0.950 . S
C174 H156 0.951 . S
C174 C175 1.366 . S
C174 C176 1.388 . S
C175 C174 1.366 . S
C175 C179 1.385 . S
C176 H157 0.951 . S
C176 C174 1.388 . S
C176 C177 1.366 . S
C177 C176 1.366 . S
C177 C178 1.414 . S
C177 C180 1.499 . S
C178 H158 0.950 . S
C178 C177 1.414 . S
C178 C179 1.374 . S
C179 H159 0.950 . S
C179 C175 1.385 . S
C179 C178 1.374 . S
C180 C177 1.499 . S
C180 C181 1.373 . S
C180 C182 1.389 . S
C181 H160 0.950 . S
C181 C180 1.373 . S
C181 C197 1.377 . S
C182 C180 1.389 . S
C182 C183 1.524 . S
C182 C196 1.377 . S
C183 C182 1.524 . S
C183 C184 1.397 . S
C183 C188 1.363 . S
C184 H161 0.950 . S
C184 C183 1.397 . S
C184 C185 1.334 . S
C185 H162 0.950 . S
C185 C184 1.334 . S
C185 C186 1.287 . S
C186 C185 1.287 . S
C186 C187 1.524 . S
C186 H205 0.913 . S
C187 H163 0.950 . S
C187 C186 1.524 . S
C187 C188 1.415 . S
C188 H164 0.950 . S
C188 C183 1.363 . S
C188 C187 1.415 . S
C189 H165 0.951 . S
C189 C190 1.366 . S
C189 C191 1.388 . S
C190 C189 1.366 . S
C190 C194 1.385 . S
C191 H166 0.951 . S
C191 C189 1.388 . S
C191 C192 1.366 . S
C192 C191 1.366 . S
C192 C193 1.414 . S
C192 C195 1.499 . S
C193 H167 0.950 . S
C193 C192 1.414 . S
C193 C194 1.374 . S
C194 H168 0.950 . S
C194 C190 1.385 . S
C194 C193 1.374 . S
C195 C192 1.499 . S
C195 C196 1.373 . S
C195 C197 1.389 . S
C196 H169 0.950 . S
C196 C182 1.377 . S
C196 C195 1.373 . S
C197 C181 1.377 . S
C197 C195 1.389 . S
C197 C198 1.524 . S
C198 C197 1.524 . S
C198 C199 1.397 . S
C198 C203 1.363 . S
C199 H170 0.950 . S
C199 C198 1.397 . S
C199 C200 1.334 . S
C200 H171 0.950 . S
C200 C199 1.334 . S
C200 C201 1.287 . S
C201 C200 1.287 . S
C201 C202 1.524 . S
C201 H204 0.999 . S
C202 H172 0.950 . S
C202 C201 1.524 . S
C202 C203 1.415 . S
C203 H173 0.950 . S
C203 C198 1.363 . S
C203 C202 1.415 . S
H204 C201 0.999 . S
H205 C186 0.913 . S
H206 C224 0.951 . S
H207 C226 0.951 . S
H208 C228 0.950 . S
H209 C229 0.950 . S
H210 C231 0.950 . S
H211 C234 0.950 . S
H212 C235 0.950 . S
H213 C237 0.950 . S
H214 C238 0.950 . S
H215 C239 0.951 . S
H216 C241 0.951 . S
H217 C243 0.950 . S
H218 C244 0.950 . S
H219 C246 0.950 . S
H220 C249 0.950 . S
H221 C250 0.950 . S
H222 C252 0.950 . S
H223 C253 0.950 . S
C224 H206 0.951 . S
C224 C225 1.366 . S
C224 C226 1.388 . S
C225 C224 1.366 . S
C225 C229 1.385 . S
C226 H207 0.951 . S
C226 C224 1.388 . S
C226 C227 1.366 . S
C227 C226 1.366 . S
C227 C228 1.414 . S
C227 C230 1.499 . S
C228 H208 0.950 . S
C228 C227 1.414 . S
C228 C229 1.374 . S
C229 H209 0.950 . S
C229 C225 1.385 . S
C229 C228 1.374 . S
C230 C227 1.499 . S
C230 C231 1.373 . S
C230 C232 1.389 . S
C231 H210 0.950 . S
C231 C230 1.373 . S
C231 C247 1.377 . S
C232 C230 1.389 . S
C232 C233 1.524 . S
C232 C246 1.377 . S
C233 C232 1.524 . S
C233 C234 1.397 . S
C233 C238 1.363 . S
C234 H211 0.950 . S
C234 C233 1.397 . S
C234 C235 1.334 . S
C235 H212 0.950 . S
C235 C234 1.334 . S
C235 C236 1.287 . S
C236 C235 1.287 . S
C236 C237 1.524 . S
C236 H255 0.913 . S
C237 H213 0.950 . S
C237 C236 1.524 . S
C237 C238 1.415 . S
C238 H214 0.950 . S
C238 C233 1.363 . S
C238 C237 1.415 . S
C239 H215 0.951 . S
C239 C240 1.366 . S
C239 C241 1.388 . S
C240 C239 1.366 . S
C240 C244 1.385 . S
C241 H216 0.951 . S
C241 C239 1.388 . S
C241 C242 1.366 . S
C242 C241 1.366 . S
C242 C243 1.414 . S
C242 C245 1.499 . S
C243 H217 0.950 . S
C243 C242 1.414 . S
C243 C244 1.374 . S
C244 H218 0.950 . S
C244 C240 1.385 . S
C244 C243 1.374 . S
C245 C242 1.499 . S
C245 C246 1.373 . S
C245 C247 1.389 . S
C246 H219 0.950 . S
C246 C232 1.377 . S
C246 C245 1.373 . S
C247 C231 1.377 . S
C247 C245 1.389 . S
C247 C248 1.524 . S
C248 C247 1.524 . S
C248 C249 1.397 . S
C248 C253 1.363 . S
C249 H220 0.950 . S
C249 C248 1.397 . S
C249 C250 1.334 . S
C250 H221 0.950 . S
C250 C249 1.334 . S
C250 C251 1.287 . S
C251 C250 1.287 . S
C251 C252 1.524 . S
C251 H254 0.999 . S
C252 H222 0.950 . S
C252 C251 1.524 . S
C252 C253 1.415 . S
C253 H223 0.950 . S
C253 C248 1.363 . S
C253 C252 1.415 . S
H254 C251 0.999 . S
H255 C236 0.913 . S
H256 C274 0.951 . S
H257 C276 0.951 . S
H258 C278 0.950 . S
H259 C279 0.950 . S
H260 C281 0.950 . S
H261 C284 0.950 . S
H262 C285 0.950 . S
H263 C287 0.950 . S
H264 C288 0.950 . S
H265 C289 0.951 . S
H266 C291 0.951 . S
H267 C293 0.950 . S
H268 C294 0.950 . S
H269 C296 0.950 . S
H270 C299 0.950 . S
H271 C300 0.950 . S
H272 C302 0.950 . S
H273 C303 0.950 . S
C274 H256 0.951 . S
C274 C275 1.366 . S
C274 C276 1.388 . S
C275 C274 1.366 . S
C275 C279 1.385 . S
C276 H257 0.951 . S
C276 C274 1.388 . S
C276 C277 1.366 . S
C277 C276 1.366 . S
C277 C278 1.414 . S
C277 C280 1.499 . S
C278 H258 0.950 . S
C278 C277 1.414 . S
C278 C279 1.374 . S
C279 H259 0.950 . S
C279 C275 1.385 . S
C279 C278 1.374 . S
C280 C277 1.499 . S
C280 C281 1.373 . S
C280 C282 1.389 . S
C281 H260 0.950 . S
C281 C280 1.373 . S
C281 C297 1.377 . S
C282 C280 1.389 . S
C282 C283 1.524 . S
C282 C296 1.377 . S
C283 C282 1.524 . S
C283 C284 1.397 . S
C283 C288 1.363 . S
C284 H261 0.950 . S
C284 C283 1.397 . S
C284 C285 1.334 . S
C285 H262 0.950 . S
C285 C284 1.334 . S
C285 C286 1.287 . S
C286 C285 1.287 . S
C286 C287 1.524 . S
C286 H305 0.913 . S
C287 H263 0.950 . S
C287 C286 1.524 . S
C287 C288 1.415 . S
C288 H264 0.950 . S
C288 C283 1.363 . S
C288 C287 1.415 . S
C289 H265 0.951 . S
C289 C290 1.366 . S
C289 C291 1.388 . S
C290 C289 1.366 . S
C290 C294 1.385 . S
C291 H266 0.951 . S
C291 C289 1.388 . S
C291 C292 1.366 . S
C292 C291 1.366 . S
C292 C293 1.414 . S
C292 C295 1.499 . S
C293 H267 0.950 . S
C293 C292 1.414 . S
C293 C294 1.374 . S
C294 H268 0.950 . S
C294 C290 1.385 . S
C294 C293 1.374 . S
C295 C292 1.499 . S
C295 C296 1.373 . S
C295 C297 1.389 . S
C296 H269 0.950 . S
C296 C282 1.377 . S
C296 C295 1.373 . S
C297 C281 1.377 . S
C297 C295 1.389 . S
C297 C298 1.524 . S
C298 C297 1.524 . S
C298 C299 1.397 . S
C298 C303 1.363 . S
C299 H270 0.950 . S
C299 C298 1.397 . S
C299 C300 1.334 . S
C300 H271 0.950 . S
C300 C299 1.334 . S
C300 C301 1.287 . S
C301 C300 1.287 . S
C301 C302 1.524 . S
C301 H304 0.999 . S
C302 H272 0.950 . S
C302 C301 1.524 . S
C302 C303 1.415 . S
C303 H273 0.950 . S
C303 C298 1.363 . S
C303 C302 1.415 . S
H304 C301 0.999 . S
H305 C286 0.913 . S
H306 C324 0.951 . S
H307 C326 0.951 . S
H308 C328 0.950 . S
H309 C329 0.950 . S
H310 C331 0.950 . S
H311 C334 0.950 . S
H312 C335 0.950 . S
H313 C337 0.950 . S
H314 C338 0.950 . S
H315 C339 0.951 . S
H316 C341 0.951 . S
H317 C343 0.950 . S
H318 C344 0.950 . S
H319 C346 0.950 . S
H320 C349 0.950 . S
H321 C350 0.950 . S
H322 C352 0.950 . S
H323 C353 0.950 . S
C324 H306 0.951 . S
C324 C325 1.366 . S
C324 C326 1.388 . S
C325 C324 1.366 . S
C325 C329 1.385 . S
C326 H307 0.951 . S
C326 C324 1.388 . S
C326 C327 1.366 . S
C327 C326 1.366 . S
C327 C328 1.414 . S
C327 C330 1.499 . S
C328 H308 0.950 . S
C328 C327 1.414 . S
C328 C329 1.374 . S
C329 H309 0.950 . S
C329 C325 1.385 . S
C329 C328 1.374 . S
C330 C327 1.499 . S
C330 C331 1.373 . S
C330 C332 1.389 . S
C331 H310 0.950 . S
C331 C330 1.373 . S
C331 C347 1.377 . S
C332 C330 1.389 . S
C332 C333 1.524 . S
C332 C346 1.377 . S
C333 C332 1.524 . S
C333 C334 1.397 . S
C333 C338 1.363 . S
C334 H311 0.950 . S
C334 C333 1.397 . S
C334 C335 1.334 . S
C335 H312 0.950 . S
C335 C334 1.334 . S
C335 C336 1.287 . S
C336 C335 1.287 . S
C336 C337 1.524 . S
C336 H355 0.913 . S
C337 H313 0.950 . S
C337 C336 1.524 . S
C337 C338 1.415 . S
C338 H314 0.950 . S
C338 C333 1.363 . S
C338 C337 1.415 . S
C339 H315 0.951 . S
C339 C340 1.366 . S
C339 C341 1.388 . S
C340 C339 1.366 . S
C340 C344 1.385 . S
C341 H316 0.951 . S
C341 C339 1.388 . S
C341 C342 1.366 . S
C342 C341 1.366 . S
C342 C343 1.414 . S
C342 C345 1.499 . S
C343 H317 0.950 . S
C343 C342 1.414 . S
C343 C344 1.374 . S
C344 H318 0.950 . S
C344 C340 1.385 . S
C344 C343 1.374 . S
C345 C342 1.499 . S
C345 C346 1.373 . S
C345 C347 1.389 . S
C346 H319 0.950 . S
C346 C332 1.377 . S
C346 C345 1.373 . S
C347 C331 1.377 . S
C347 C345 1.389 . S
C347 C348 1.524 . S
C348 C347 1.524 . S
C348 C349 1.397 . S
C348 C353 1.363 . S
C349 H320 0.950 . S
C349 C348 1.397 . S
C349 C350 1.334 . S
C350 H321 0.950 . S
C350 C349 1.334 . S
C350 C351 1.287 . S
C351 C350 1.287 . S
C351 C352 1.524 . S
C351 H354 0.999 . S
C352 H322 0.950 . S
C352 C351 1.524 . S
C352 C353 1.415 . S
C353 H323 0.950 . S
C353 C348 1.363 . S
C353 C352 1.415 . S
H354 C351 0.999 . S
H355 C336 0.913 . S
H356 C374 0.951 . S
H357 C376 0.951 . S
H358 C378 0.950 . S
H359 C379 0.950 . S
H360 C381 0.950 . S
H361 C384 0.950 . S
H362 C385 0.950 . S
H363 C387 0.950 . S
H364 C388 0.950 . S
H365 C389 0.951 . S
H366 C391 0.951 . S
H367 C393 0.950 . S
H368 C394 0.950 . S
H369 C396 0.950 . S
H370 C399 0.950 . S
H371 C400 0.950 . S
H372 C402 0.950 . S
H373 C403 0.950 . S
C374 H356 0.951 . S
C374 C375 1.366 . S
C374 C376 1.388 . S
C375 C374 1.366 . S
C375 C379 1.385 . S
C376 H357 0.951 . S
C376 C374 1.388 . S
C376 C377 1.366 . S
C377 C376 1.366 . S
C377 C378 1.414 . S
C377 C380 1.499 . S
C378 H358 0.950 . S
C378 C377 1.414 . S
C378 C379 1.374 . S
C379 H359 0.950 . S
C379 C375 1.385 . S
C379 C378 1.374 . S
C380 C377 1.499 . S
C380 C381 1.373 . S
C380 C382 1.389 . S
C381 H360 0.950 . S
C381 C380 1.373 . S
C381 C397 1.377 . S
C382 C380 1.389 . S
C382 C383 1.524 . S
C382 C396 1.377 . S
C383 C382 1.524 . S
C383 C384 1.397 . S
C383 C388 1.363 . S
C384 H361 0.950 . S
C384 C383 1.397 . S
C384 C385 1.334 . S
C385 H362 0.950 . S
C385 C384 1.334 . S
C385 C386 1.287 . S
C386 C385 1.287 . S
C386 C387 1.524 . S
C386 H405 0.913 . S
C387 H363 0.950 . S
C387 C386 1.524 . S
C387 C388 1.415 . S
C388 H364 0.950 . S
C388 C383 1.363 . S
C388 C387 1.415 . S
C389 H365 0.951 . S
C389 C390 1.366 . S
C389 C391 1.388 . S
C390 C389 1.366 . S
C390 C394 1.385 . S
C391 H366 0.951 . S
C391 C389 1.388 . S
C391 C392 1.366 . S
C392 C391 1.366 . S
C392 C393 1.414 . S
C392 C395 1.499 . S
C393 H367 0.950 . S
C393 C392 1.414 . S
C393 C394 1.374 . S
C394 H368 0.950 . S
C394 C390 1.385 . S
C394 C393 1.374 . S
C395 C392 1.499 . S
C395 C396 1.373 . S
C395 C397 1.389 . S
C396 H369 0.950 . S
C396 C382 1.377 . S
C396 C395 1.373 . S
C397 C381 1.377 . S
C397 C395 1.389 . S
C397 C398 1.524 . S
C398 C397 1.524 . S
C398 C399 1.397 . S
C398 C403 1.363 . S
C399 H370 0.950 . S
C399 C398 1.397 . S
C399 C400 1.334 . S
C400 H371 0.950 . S
C400 C399 1.334 . S
C400 C401 1.287 . S
C401 C400 1.287 . S
C401 C402 1.524 . S
C401 H404 0.999 . S
C402 H372 0.950 . S
C402 C401 1.524 . S
C402 C403 1.415 . S
C403 H373 0.950 . S
C403 C398 1.363 . S
C403 C402 1.415 . S
H404 C401 0.999 . S
H405 C386 0.913 . S
H406 C424 0.951 . S
H407 C426 0.951 . S
H408 C428 0.950 . S
H409 C429 0.950 . S
H410 C431 0.950 . S
H411 C434 0.950 . S
H412 C435 0.950 . S
H413 C437 0.950 . S
H414 C438 0.950 . S
H415 C439 0.951 . S
H416 C441 0.951 . S
H417 C443 0.950 . S
H418 C444 0.950 . S
H419 C446 0.950 . S
H420 C449 0.950 . S
H421 C450 0.950 . S
H422 C452 0.950 . S
H423 C453 0.950 . S
C424 H406 0.951 . S
C424 C425 1.366 . S
C424 C426 1.388 . S
C425 C424 1.366 . S
C425 C429 1.385 . S
C426 H407 0.951 . S
C426 C424 1.388 . S
C426 C427 1.366 . S
C427 C426 1.366 . S
C427 C428 1.414 . S
C427 C430 1.499 . S
C428 H408 0.950 . S
C428 C427 1.414 . S
C428 C429 1.374 . S
C429 H409 0.950 . S
C429 C425 1.385 . S
C429 C428 1.374 . S
C430 C427 1.499 . S
C430 C431 1.373 . S
C430 C432 1.389 . S
C431 H410 0.950 . S
C431 C430 1.373 . S
C431 C447 1.377 . S
C432 C430 1.389 . S
C432 C433 1.524 . S
C432 C446 1.377 . S
C433 C432 1.524 . S
C433 C434 1.397 . S
C433 C438 1.363 . S
C434 H411 0.950 . S
C434 C433 1.397 . S
C434 C435 1.334 . S
C435 H412 0.950 . S
C435 C434 1.334 . S
C435 C436 1.287 . S
C436 C435 1.287 . S
C436 C437 1.524 . S
C436 H455 0.913 . S
C437 H413 0.950 . S
C437 C436 1.524 . S
C437 C438 1.415 . S
C438 H414 0.950 . S
C438 C433 1.363 . S
C438 C437 1.415 . S
C439 H415 0.951 . S
C439 C440 1.366 . S
C439 C441 1.388 . S
C440 C439 1.366 . S
C440 C444 1.385 . S
C441 H416 0.951 . S
C441 C439 1.388 . S
C441 C442 1.366 . S
C442 C441 1.366 . S
C442 C443 1.414 . S
C442 C445 1.499 . S
C443 H417 0.950 . S
C443 C442 1.414 . S
C443 C444 1.374 . S
C444 H418 0.950 . S
C444 C440 1.385 . S
C444 C443 1.374 . S
C445 C442 1.499 . S
C445 C446 1.373 . S
C445 C447 1.389 . S
C446 H419 0.950 . S
C446 C432 1.377 . S
C446 C445 1.373 . S
C447 C431 1.377 . S
C447 C445 1.389 . S
C447 C448 1.524 . S
C448 C447 1.524 . S
C448 C449 1.397 . S
C448 C453 1.363 . S
C449 H420 0.950 . S
C449 C448 1.397 . S
C449 C450 1.334 . S
C450 H421 0.950 . S
C450 C449 1.334 . S
C450 C451 1.287 . S
C451 C450 1.287 . S
C451 C452 1.524 . S
C451 H454 0.999 . S
C452 H422 0.950 . S
C452 C451 1.524 . S
C452 C453 1.415 . S
C453 H423 0.950 . S
C453 C448 1.363 . S
C453 C452 1.415 . S
H454 C451 0.999 . S
H455 C436 0.913 . S
H456 C474 0.951 1_554 S
H457 C476 0.951 . S
H458 C478 0.950 . S
H459 C479 0.950 . S
H460 C481 0.950 . S
H461 C484 0.950 . S
H462 C485 0.950 . S
H463 C487 0.950 . S
H464 C488 0.950 1_554 S
H465 C489 0.951 1_556 S
H466 C491 0.951 . S
H467 C493 0.950 . S
H468 C494 0.950 . S
H469 C496 0.950 . S
H470 C499 0.950 . S
H471 C500 0.950 . S
H472 C502 0.950 . S
H473 C503 0.950 1_556 S
C474 H456 0.951 1_556 S
C474 C475 1.366 . S
C474 C476 1.388 1_556 S
C475 C474 1.366 . S
C475 C479 1.385 . S
C476 H457 0.951 . S
C476 C474 1.388 1_554 S
C476 C477 1.366 1_554 S
C477 C476 1.366 1_556 S
C477 C478 1.414 . S
C477 C480 1.499 . S
C478 H458 0.950 . S
C478 C477 1.414 . S
C478 C479 1.374 . S
C479 H459 0.950 . S
C479 C475 1.385 . S
C479 C478 1.374 . S
C480 C477 1.499 . S
C480 C481 1.373 1_556 S
C480 C482 1.389 . S
C481 H460 0.950 . S
C481 C480 1.373 1_554 S
C481 C497 1.377 1_545 S
C482 C480 1.389 . S
C482 C483 1.524 . S
C482 C496 1.377 1_545 S
C483 C482 1.524 . S
C483 C484 1.397 . S
C483 C488 1.363 . S
C484 H461 0.950 . S
C484 C483 1.397 . S
C484 C485 1.334 . S
C485 H462 0.950 . S
C485 C484 1.334 . S
C485 C486 1.287 . S
C486 C485 1.287 . S
C486 C487 1.524 . S
C486 H505 0.913 . S
C487 H463 0.950 . S
C487 C486 1.524 . S
C487 C488 1.415 . S
C488 H464 0.950 1_556 S
C488 C483 1.363 . S
C488 C487 1.415 . S
C489 H465 0.951 1_554 S
C489 C490 1.366 . S
C489 C491 1.388 1_554 S
C490 C489 1.366 . S
C490 C494 1.385 . S
C491 H466 0.951 . S
C491 C489 1.388 1_556 S
C491 C492 1.366 1_556 S
C492 C491 1.366 1_554 S
C492 C493 1.414 . S
C492 C495 1.499 . S
C493 H467 0.950 . S
C493 C492 1.414 . S
C493 C494 1.374 . S
C494 H468 0.950 . S
C494 C490 1.385 . S
C494 C493 1.374 . S
C495 C492 1.499 . S
C495 C496 1.373 1_554 S
C495 C497 1.389 . S
C496 H469 0.950 . S
C496 C482 1.377 1_565 S
C496 C495 1.373 1_556 S
C497 C481 1.377 1_565 S
C497 C495 1.389 . S
C497 C498 1.524 . S
C498 C497 1.524 . S
C498 C499 1.397 . S
C498 C503 1.363 . S
C499 H470 0.950 . S
C499 C498 1.397 . S
C499 C500 1.334 . S
C500 H471 0.950 . S
C500 C499 1.334 . S
C500 C501 1.287 . S
C501 C500 1.287 . S
C501 C502 1.524 . S
C501 H504 0.999 . S
C502 H472 0.950 . S
C502 C501 1.524 . S
C502 C503 1.415 . S
C503 H473 0.950 1_554 S
C503 C498 1.363 . S
C503 C502 1.415 . S
H504 C501 0.999 . S
H505 C486 0.913 . S
H506 C524 0.951 . S
H507 C526 0.951 . S
H508 C528 0.950 . S
H509 C529 0.950 . S
H510 C531 0.950 . S
H511 C534 0.950 . S
H512 C535 0.950 . S
H513 C537 0.950 . S
H514 C538 0.950 . S
H515 C539 0.951 . S
H516 C541 0.951 . S
H517 C543 0.950 . S
H518 C544 0.950 . S
H519 C546 0.950 . S
H520 C549 0.950 . S
H521 C550 0.950 . S
H522 C552 0.950 . S
H523 C553 0.950 . S
C524 H506 0.951 . S
C524 C525 1.366 . S
C524 C526 1.388 . S
C525 C524 1.366 . S
C525 C529 1.385 . S
C526 H507 0.951 . S
C526 C524 1.388 . S
C526 C527 1.366 . S
C527 C526 1.366 . S
C527 C528 1.414 . S
C527 C530 1.499 . S
C528 H508 0.950 . S
C528 C527 1.414 . S
C528 C529 1.374 . S
C529 H509 0.950 . S
C529 C525 1.385 . S
C529 C528 1.374 . S
C530 C527 1.499 . S
C530 C531 1.373 . S
C530 C532 1.389 . S
C531 H510 0.950 . S
C531 C530 1.373 . S
C531 C547 1.377 . S
C532 C530 1.389 . S
C532 C533 1.524 . S
C532 C546 1.377 . S
C533 C532 1.524 . S
C533 C534 1.397 . S
C533 C538 1.363 . S
C534 H511 0.950 . S
C534 C533 1.397 . S
C534 C535 1.334 . S
C535 H512 0.950 . S
C535 C534 1.334 . S
C535 C536 1.287 . S
C536 C535 1.287 . S
C536 C537 1.524 . S
C536 H555 0.913 . S
C537 H513 0.950 . S
C537 C536 1.524 . S
C537 C538 1.415 . S
C538 H514 0.950 . S
C538 C533 1.363 . S
C538 C537 1.415 . S
C539 H515 0.951 . S
C539 C540 1.366 . S
C539 C541 1.388 . S
C540 C539 1.366 . S
C540 C544 1.385 . S
C541 H516 0.951 . S
C541 C539 1.388 . S
C541 C542 1.366 . S
C542 C541 1.366 . S
C542 C543 1.414 . S
C542 C545 1.499 . S
C543 H517 0.950 . S
C543 C542 1.414 . S
C543 C544 1.374 . S
C544 H518 0.950 . S
C544 C540 1.385 . S
C544 C543 1.374 . S
C545 C542 1.499 . S
C545 C546 1.373 . S
C545 C547 1.389 . S
C546 H519 0.950 . S
C546 C532 1.377 . S
C546 C545 1.373 . S
C547 C531 1.377 . S
C547 C545 1.389 . S
C547 C548 1.524 . S
C548 C547 1.524 . S
C548 C549 1.397 . S
C548 C553 1.363 . S
C549 H520 0.950 . S
C549 C548 1.397 . S
C549 C550 1.334 . S
C550 H521 0.950 . S
C550 C549 1.334 . S
C550 C551 1.287 . S
C551 C550 1.287 . S
C551 C552 1.524 . S
C551 H554 0.999 . S
C552 H522 0.950 . S
C552 C551 1.524 . S
C552 C553 1.415 . S
C553 H523 0.950 . S
C553 C548 1.363 . S
C553 C552 1.415 . S
H554 C551 0.999 . S
H555 C536 0.913 . S
H556 C574 0.951 . S
H557 C576 0.951 . S
H558 C578 0.950 . S
H559 C579 0.950 . S
H560 C581 0.950 . S
H561 C584 0.950 . S
H562 C585 0.950 . S
H563 C587 0.938 1_556 S
H564 C588 0.950 . S
H565 C589 0.951 . S
H566 C591 0.951 . S
H567 C593 0.950 . S
H568 C594 0.950 . S
H569 C596 0.950 . S
H570 C599 0.950 . S
H571 C600 0.950 . S
H572 C602 0.933 1_554 S
H573 C603 0.950 . S
C574 H556 0.951 . S
C574 C575 1.366 1_556 S
C574 C576 1.388 . S
C575 C574 1.366 1_554 S
C575 C579 1.385 . S
C576 H557 0.951 . S
C576 C574 1.388 . S
C576 C577 1.366 1_556 S
C577 C576 1.366 1_554 S
C577 C578 1.414 . S
C577 C580 1.499 . S
C578 H558 0.950 . S
C578 C577 1.414 . S
C578 C579 1.374 . S
C579 H559 0.950 . S
C579 C575 1.385 . S
C579 C578 1.374 . S
C580 C577 1.499 . S
C580 C581 1.373 . S
C580 C582 1.389 . S
C581 H560 0.950 . S
C581 C580 1.373 . S
C581 C597 1.377 1_454 S
C582 C580 1.389 . S
C582 C583 1.524 . S
C582 C596 1.377 1_454 S
C583 C582 1.524 . S
C583 C584 1.397 . S
C583 C588 1.363 1_554 S
C584 H561 0.950 . S
C584 C583 1.397 . S
C584 C585 1.334 . S
C585 H562 0.950 . S
C585 C584 1.334 . S
C585 C586 1.287 . S
C586 C585 1.287 . S
C586 C587 1.542 . S
C586 H605 0.913 . S
C587 H563 0.938 1_554 S
C587 C586 1.542 . S
C587 C588 1.410 1_554 S
C588 H564 0.950 . S
C588 C583 1.363 1_556 S
C588 C587 1.410 1_556 S
C589 H565 0.951 . S
C589 C590 1.366 1_554 S
C589 C591 1.388 . S
C590 C589 1.366 1_556 S
C590 C594 1.385 . S
C591 H566 0.951 . S
C591 C589 1.388 . S
C591 C592 1.366 1_554 S
C592 C591 1.366 1_556 S
C592 C593 1.414 . S
C592 C595 1.499 . S
C593 H567 0.950 . S
C593 C592 1.414 . S
C593 C594 1.374 . S
C594 H568 0.950 . S
C594 C590 1.385 . S
C594 C593 1.374 . S
C595 C592 1.499 . S
C595 C596 1.373 . S
C595 C597 1.389 . S
C596 H569 0.950 . S
C596 C582 1.377 1_656 S
C596 C595 1.373 . S
C597 C581 1.377 1_656 S
C597 C595 1.389 . S
C597 C598 1.524 . S
C598 C597 1.524 . S
C598 C599 1.397 . S
C598 C603 1.363 1_556 S
C599 H570 0.950 . S
C599 C598 1.397 . S
C599 C600 1.334 . S
C600 H571 0.950 . S
C600 C599 1.334 . S
C600 C601 1.287 . S
C601 C600 1.287 . S
C601 C602 1.549 . S
C601 H604 0.999 . S
C602 H572 0.933 1_556 S
C602 C601 1.549 . S
C602 C603 1.409 1_556 S
C603 H573 0.950 . S
C603 C598 1.363 1_554 S
C603 C602 1.409 1_554 S
H604 C601 0.999 . S
H605 C586 0.913 . S
H606 C624 0.951 . S
H607 C626 0.951 . S
H608 C628 0.950 . S
H609 C629 0.950 . S
H610 C631 0.950 . S
H611 C634 0.950 . S
H612 C635 0.950 . S
H613 C637 0.955 . S
H614 C638 0.950 1_565 S
H615 C639 0.951 . S
H616 C641 0.951 . S
H617 C643 0.950 . S
H618 C644 0.950 . S
H619 C646 0.950 . S
H620 C649 0.950 . S
H621 C650 0.950 . S
H622 C652 0.956 . S
H623 C653 0.950 1_545 S
C624 H606 0.951 . S
C624 C625 1.366 . S
C624 C626 1.388 . S
C625 C624 1.366 . S
C625 C629 1.385 . S
C626 H607 0.951 . S
C626 C624 1.388 . S
C626 C627 1.366 . S
C627 C626 1.366 . S
C627 C628 1.414 . S
C627 C630 1.499 . S
C628 H608 0.950 . S
C628 C627 1.414 . S
C628 C629 1.374 . S
C629 H609 0.950 . S
C629 C625 1.385 . S
C629 C628 1.374 . S
C630 C627 1.499 . S
C630 C631 1.373 . S
C630 C632 1.389 . S
C631 H610 0.950 . S
C631 C630 1.373 . S
C631 C647 1.377 1_545 S
C632 C630 1.389 . S
C632 C633 1.524 . S
C632 C646 1.377 1_545 S
C633 C632 1.524 . S
C633 C634 1.397 . S
C633 C638 1.363 . S
C634 H611 0.950 . S
C634 C633 1.397 . S
C634 C635 1.334 . S
C635 H612 0.950 . S
C635 C634 1.334 . S
C635 C636 1.287 . S
C636 C635 1.287 . S
C636 C637 1.524 . S
C636 H655 0.913 . S
C637 H613 0.955 . S
C637 C636 1.524 . S
C637 C638 1.415 . S
C638 H614 0.950 1_545 S
C638 C633 1.363 . S
C638 C637 1.415 . S
C639 H615 0.951 . S
C639 C640 1.366 . S
C639 C641 1.388 . S
C640 C639 1.366 . S
C640 C644 1.385 . S
C641 H616 0.951 . S
C641 C639 1.388 . S
C641 C642 1.366 . S
C642 C641 1.366 . S
C642 C643 1.414 . S
C642 C645 1.499 . S
C643 H617 0.950 . S
C643 C642 1.414 . S
C643 C644 1.374 . S
C644 H618 0.950 . S
C644 C640 1.385 . S
C644 C643 1.374 . S
C645 C642 1.499 . S
C645 C646 1.373 . S
C645 C647 1.389 . S
C646 H619 0.950 . S
C646 C632 1.377 1_565 S
C646 C645 1.373 . S
C647 C631 1.377 1_565 S
C647 C645 1.389 . S
C647 C648 1.524 . S
C648 C647 1.524 . S
C648 C649 1.397 . S
C648 C653 1.363 . S
C649 H620 0.950 . S
C649 C648 1.397 . S
C649 C650 1.334 . S
C650 H621 0.950 . S
C650 C649 1.334 . S
C650 C651 1.287 . S
C651 C650 1.287 . S
C651 C652 1.524 . S
C651 H654 0.999 . S
C652 H622 0.956 . S
C652 C651 1.524 . S
C652 C653 1.415 . S
C653 H623 0.950 1_565 S
C653 C648 1.363 . S
C653 C652 1.415 . S
H654 C651 0.999 . S
H655 C636 0.913 . S
H656 C674 0.951 . S
H657 C676 0.951 . S
H658 C678 0.951 . S
H659 C679 0.950 . S
H660 C681 0.950 . S
H661 C684 0.950 . S
H662 C685 0.950 . S
H663 C687 0.950 . S
H664 C688 0.950 . S
H665 C689 0.951 . S
H666 C691 0.951 . S
H667 C693 0.953 . S
H668 C694 0.950 . S
H669 C696 0.950 . S
H670 C699 0.950 . S
H671 C700 0.950 . S
H672 C702 0.950 . S
H673 C703 0.950 . S
C674 H656 0.951 . S
C674 C675 1.366 . S
C674 C676 1.388 . S
C675 C674 1.366 . S
C675 C679 1.385 . S
C676 H657 0.951 . S
C676 C674 1.388 . S
C676 C677 1.366 . S
C677 C676 1.366 . S
C677 C678 1.414 . S
C677 C680 1.499 . S
C678 H658 0.951 . S
C678 C677 1.414 . S
C678 C679 1.374 . S
C679 H659 0.950 . S
C679 C675 1.385 . S
C679 C678 1.374 . S
C680 C677 1.499 . S
C680 C681 1.373 1_554 S
C680 C682 1.389 . S
C681 H660 0.950 . S
C681 C680 1.373 1_556 S
C681 C697 1.377 . S
C682 C680 1.389 . S
C682 C683 1.524 . S
C682 C696 1.377 . S
C683 C682 1.524 . S
C683 C684 1.397 . S
C683 C688 1.363 . S
C684 H661 0.950 . S
C684 C683 1.397 . S
C684 C685 1.334 . S
C685 H662 0.950 . S
C685 C684 1.334 . S
C685 C686 1.287 . S
C686 C685 1.287 . S
C686 C687 1.524 . S
C686 H705 0.913 . S
C687 H663 0.950 . S
C687 C686 1.524 . S
C687 C688 1.415 . S
C688 H664 0.950 . S
C688 C683 1.363 . S
C688 C687 1.415 . S
C689 H665 0.951 . S
C689 C690 1.366 . S
C689 C691 1.388 . S
C690 C689 1.366 . S
C690 C694 1.385 . S
C691 H666 0.951 . S
C691 C689 1.388 . S
C691 C692 1.366 . S
C692 C691 1.366 . S
C692 C693 1.414 . S
C692 C695 1.499 . S
C693 H667 0.953 . S
C693 C692 1.414 . S
C693 C694 1.374 . S
C694 H668 0.950 . S
C694 C690 1.385 . S
C694 C693 1.374 . S
C695 C692 1.499 . S
C695 C696 1.373 1_556 S
C695 C697 1.389 . S
C696 H669 0.950 . S
C696 C682 1.377 . S
C696 C695 1.373 1_554 S
C697 C681 1.377 . S
C697 C695 1.389 . S
C697 C698 1.524 . S
C698 C697 1.524 . S
C698 C699 1.397 . S
C698 C703 1.363 . S
C699 H670 0.950 . S
C699 C698 1.397 . S
C699 C700 1.334 . S
C700 H671 0.950 . S
C700 C699 1.334 . S
C700 C701 1.287 . S
C701 C700 1.287 . S
C701 C702 1.524 . S
C701 H704 0.999 . S
C702 H672 0.950 . S
C702 C701 1.524 . S
C702 C703 1.415 . S
C703 H673 0.950 . S
C703 C698 1.363 . S
C703 C702 1.415 . S
H704 C701 0.999 . S
H705 C686 0.913 . S
H706 C724 0.951 . S
H707 C726 0.951 . S
H708 C728 0.950 . S
H709 C729 0.950 . S
H710 C731 0.950 . S
H711 C734 0.950 . S
H712 C735 0.950 . S
H713 C737 0.950 . S
H714 C738 0.950 1_455 S
H715 C739 0.951 . S
H716 C741 0.951 . S
H717 C743 0.950 . S
H718 C744 0.950 . S
H719 C746 0.950 . S
H720 C749 0.950 . S
H721 C750 0.950 . S
H722 C752 0.950 . S
H723 C753 0.950 1_655 S
C724 H706 0.951 . S
C724 C725 1.366 . S
C724 C726 1.388 . S
C725 C724 1.366 . S
C725 C729 1.385 . S
C726 H707 0.951 . S
C726 C724 1.388 . S
C726 C727 1.366 . S
C727 C726 1.366 . S
C727 C728 1.414 . S
C727 C730 1.499 . S
C728 H708 0.950 . S
C728 C727 1.414 . S
C728 C729 1.374 . S
C729 H709 0.950 . S
C729 C725 1.385 . S
C729 C728 1.374 . S
C730 C727 1.499 . S
C730 C731 1.373 . S
C730 C732 1.389 . S
C731 H710 0.950 . S
C731 C730 1.373 . S
C731 C747 1.377 1_655 S
C732 C730 1.389 . S
C732 C733 1.524 . S
C732 C746 1.377 1_655 S
C733 C732 1.524 . S
C733 C734 1.397 . S
C733 C738 1.363 . S
C734 H711 0.950 . S
C734 C733 1.397 . S
C734 C735 1.334 . S
C735 H712 0.950 . S
C735 C734 1.334 . S
C735 C736 1.287 . S
C736 C735 1.287 . S
C736 C737 1.524 . S
C736 H755 0.913 . S
C737 H713 0.950 . S
C737 C736 1.524 . S
C737 C738 1.415 . S
C738 H714 0.950 1_655 S
C738 C733 1.363 . S
C738 C737 1.415 . S
C739 H715 0.951 . S
C739 C740 1.366 . S
C739 C741 1.388 . S
C740 C739 1.366 . S
C740 C744 1.385 . S
C741 H716 0.951 . S
C741 C739 1.388 . S
C741 C742 1.366 . S
C742 C741 1.366 . S
C742 C743 1.414 . S
C742 C745 1.499 . S
C743 H717 0.950 . S
C743 C742 1.414 . S
C743 C744 1.374 . S
C744 H718 0.950 . S
C744 C740 1.385 . S
C744 C743 1.374 . S
C745 C742 1.499 . S
C745 C746 1.373 . S
C745 C747 1.389 . S
C746 H719 0.950 . S
C746 C732 1.377 1_455 S
C746 C745 1.373 . S
C747 C731 1.377 1_455 S
C747 C745 1.389 . S
C747 C748 1.524 . S
C748 C747 1.524 . S
C748 C749 1.397 . S
C748 C753 1.363 . S
C749 H720 0.950 . S
C749 C748 1.397 . S
C749 C750 1.334 . S
C750 H721 0.950 . S
C750 C749 1.334 . S
C750 C751 1.287 . S
C751 C750 1.287 . S
C751 C752 1.524 . S
C751 H754 0.999 . S
C752 H722 0.950 . S
C752 C751 1.524 . S
C752 C753 1.415 . S
C753 H723 0.950 1_455 S
C753 C748 1.363 . S
C753 C752 1.415 . S
H754 C751 0.999 . S
H755 C736 0.913 . S
H756 C774 0.951 . S
H757 C776 0.951 . S
H758 C778 0.950 1_554 S
H759 C779 0.950 1_554 S
H760 C781 0.950 . S
H761 C784 0.950 . S
H762 C785 0.950 . S
H763 C787 0.950 . S
H764 C788 0.950 . S
H765 C789 0.951 . S
H766 C791 0.951 . S
H767 C793 0.950 . S
H768 C794 0.950 . S
H769 C796 0.950 . S
H770 C799 0.950 . S
H771 C800 0.950 . S
H772 C802 0.950 . S
H773 C803 0.950 . S
C774 H756 0.951 . S
C774 C775 1.366 . S
C774 C776 1.388 . S
C775 C774 1.366 . S
C775 C779 1.385 . S
C776 H757 0.951 . S
C776 C774 1.388 . S
C776 C777 1.366 . S
C777 C776 1.366 . S
C777 C778 1.414 . S
C777 C780 1.499 . S
C778 H758 0.950 1_556 S
C778 C777 1.414 . S
C778 C779 1.374 . S
C779 H759 0.950 1_556 S
C779 C775 1.385 . S
C779 C778 1.374 . S
C780 C777 1.499 . S
C780 C781 1.373 . S
C780 C782 1.389 . S
C781 H760 0.950 . S
C781 C780 1.373 . S
C781 C797 1.377 . S
C782 C780 1.389 . S
C782 C783 1.524 . S
C782 C796 1.377 . S
C783 C782 1.524 . S
C783 C784 1.397 1_556 S
C783 C788 1.363 . S
C784 H761 0.950 . S
C784 C783 1.397 1_554 S
C784 C785 1.334 . S
C785 H762 0.950 . S
C785 C784 1.334 . S
C785 C786 1.287 . S
C786 C785 1.287 . S
C786 C787 1.524 1_554 S
C786 H805 0.913 . S
C787 H763 0.950 . S
C787 C786 1.524 1_556 S
C787 C788 1.415 . S
C788 H764 0.950 . S
C788 C783 1.363 . S
C788 C787 1.415 . S
C789 H765 0.951 . S
C789 C790 1.366 . S
C789 C791 1.388 . S
C790 C789 1.366 . S
C790 C794 1.385 . S
C791 H766 0.951 . S
C791 C789 1.388 . S
C791 C792 1.366 . S
C792 C791 1.366 . S
C792 C793 1.414 . S
C792 C795 1.499 . S
C793 H767 0.950 . S
C793 C792 1.414 . S
C793 C794 1.374 . S
C794 H768 0.950 . S
C794 C790 1.385 . S
C794 C793 1.374 . S
C795 C792 1.499 . S
C795 C796 1.373 . S
C795 C797 1.389 . S
C796 H769 0.950 . S
C796 C782 1.377 . S
C796 C795 1.373 . S
C797 C781 1.377 . S
C797 C795 1.389 . S
C797 C798 1.524 . S
C798 C797 1.524 . S
C798 C799 1.397 . S
C798 C803 1.363 . S
C799 H770 0.950 . S
C799 C798 1.397 . S
C799 C800 1.334 . S
C800 H771 0.950 . S
C800 C799 1.334 . S
C800 C801 1.287 . S
C801 C800 1.287 . S
C801 C802 1.524 . S
C801 H804 0.999 . S
C802 H772 0.950 . S
C802 C801 1.524 . S
C802 C803 1.415 . S
C803 H773 0.950 . S
C803 C798 1.363 . S
C803 C802 1.415 . S
H804 C801 0.999 . S
H805 C786 0.913 . S
H806 C824 0.951 . S
H807 C826 0.951 . S
H808 C828 0.950 . S
H809 C829 0.950 . S
H810 C831 0.950 . S
H811 C834 0.950 . S
H812 C835 0.950 . S
H813 C837 0.950 . S
H814 C838 0.950 . S
H815 C839 0.951 . S
H816 C841 0.951 . S
H817 C843 0.950 . S
H818 C844 0.950 . S
H819 C846 0.950 . S
H820 C849 0.950 . S
H821 C850 0.950 . S
H822 C852 0.950 . S
H823 C853 0.950 . S
C824 H806 0.951 . S
C824 C825 1.366 . S
C824 C826 1.388 . S
C825 C824 1.366 . S
C825 C829 1.385 . S
C826 H807 0.951 . S
C826 C824 1.388 . S
C826 C827 1.366 . S
C827 C826 1.366 . S
C827 C828 1.414 . S
C827 C830 1.499 . S
C828 H808 0.950 . S
C828 C827 1.414 . S
C828 C829 1.374 . S
C829 H809 0.950 . S
C829 C825 1.385 . S
C829 C828 1.374 . S
C830 C827 1.499 . S
C830 C831 1.373 . S
C830 C832 1.389 . S
C831 H810 0.950 . S
C831 C830 1.373 . S
C831 C847 1.377 . S
C832 C830 1.389 . S
C832 C833 1.524 . S
C832 C846 1.377 . S
C833 C832 1.524 . S
C833 C834 1.397 . S
C833 C838 1.363 . S
C834 H811 0.950 . S
C834 C833 1.397 . S
C834 C835 1.334 . S
C835 H812 0.950 . S
C835 C834 1.334 . S
C835 C836 1.287 . S
C836 C835 1.287 . S
C836 C837 1.524 . S
C836 H855 0.913 . S
C837 H813 0.950 . S
C837 C836 1.524 . S
C837 C838 1.415 . S
C838 H814 0.950 . S
C838 C833 1.363 . S
C838 C837 1.415 . S
C839 H815 0.951 . S
C839 C840 1.366 . S
C839 C841 1.388 . S
C840 C839 1.366 . S
C840 C844 1.385 . S
C841 H816 0.951 . S
C841 C839 1.388 . S
C841 C842 1.366 . S
C842 C841 1.366 . S
C842 C843 1.414 . S
C842 C845 1.499 . S
C843 H817 0.950 . S
C843 C842 1.414 . S
C843 C844 1.374 . S
C844 H818 0.950 . S
C844 C840 1.385 . S
C844 C843 1.374 . S
C845 C842 1.499 . S
C845 C846 1.373 . S
C845 C847 1.389 . S
C846 H819 0.950 . S
C846 C832 1.377 . S
C846 C845 1.373 . S
C847 C831 1.377 . S
C847 C845 1.389 . S
C847 C848 1.524 . S
C848 C847 1.524 . S
C848 C849 1.397 . S
C848 C853 1.363 . S
C849 H820 0.950 . S
C849 C848 1.397 . S
C849 C850 1.334 . S
C850 H821 0.950 . S
C850 C849 1.334 . S
C850 C851 1.287 . S
C851 C850 1.287 . S
C851 C852 1.524 . S
C851 H854 0.999 . S
C852 H822 0.950 . S
C852 C851 1.524 . S
C852 C853 1.415 . S
C853 H823 0.950 . S
C853 C848 1.363 . S
C853 C852 1.415 . S
H854 C851 0.999 . S
H855 C836 0.913 . S
H856 C874 0.951 . S
H857 C876 0.951 . S
H858 C878 0.950 . S
H859 C879 0.950 . S
H860 C881 0.950 . S
H861 C884 0.954 . S
H862 C885 0.950 . S
H863 C887 0.950 . S
H864 C888 0.950 . S
H865 C889 0.951 1_554 S
H866 C891 0.951 1_554 S
H867 C893 0.950 . S
H868 C894 0.950 . S
H869 C896 0.950 . S
H870 C899 0.950 . S
H871 C900 0.950 . S
H872 C902 0.950 . S
H873 C903 0.950 . S
C874 H856 0.951 . S
C874 C875 1.366 . S
C874 C876 1.388 . S
C875 C874 1.366 . S
C875 C879 1.385 1_556 S
C876 H857 0.951 . S
C876 C874 1.388 . S
C876 C877 1.366 . S
C877 C876 1.366 . S
C877 C878 1.414 1_556 S
C877 C880 1.499 . S
C878 H858 0.950 . S
C878 C877 1.414 1_554 S
C878 C879 1.374 . S
C879 H859 0.950 . S
C879 C875 1.385 1_554 S
C879 C878 1.374 . S
C880 C877 1.499 . S
C880 C881 1.373 . S
C880 C882 1.389 . S
C881 H860 0.950 . S
C881 C880 1.373 . S
C881 C897 1.377 . S
C882 C880 1.389 . S
C882 C883 1.524 . S
C882 C896 1.377 . S
C883 C882 1.524 . S
C883 C884 1.397 . S
C883 C888 1.363 . S
C884 H861 0.954 . S
C884 C883 1.397 . S
C884 C885 1.334 . S
C885 H862 0.950 . S
C885 C884 1.334 . S
C885 C886 1.287 . S
C886 C885 1.287 . S
C886 C887 1.524 . S
C886 H905 0.913 . S
C887 H863 0.950 . S
C887 C886 1.524 . S
C887 C888 1.415 . S
C888 H864 0.950 . S
C888 C883 1.363 . S
C888 C887 1.415 . S
C889 H865 0.951 1_556 S
C889 C890 1.366 . S
C889 C891 1.388 . S
C890 C889 1.366 . S
C890 C894 1.385 . S
C891 H866 0.951 1_556 S
C891 C889 1.388 . S
C891 C892 1.366 . S
C892 C891 1.366 . S
C892 C893 1.414 . S
C892 C895 1.499 . S
C893 H867 0.950 . S
C893 C892 1.414 . S
C893 C894 1.374 . S
C894 H868 0.950 . S
C894 C890 1.385 . S
C894 C893 1.374 . S
C895 C892 1.499 . S
C895 C896 1.373 . S
C895 C897 1.389 . S
C896 H869 0.950 . S
C896 C882 1.377 . S
C896 C895 1.373 . S
C897 C881 1.377 . S
C897 C895 1.389 . S
C897 C898 1.524 . S
C898 C897 1.524 . S
C898 C899 1.397 . S
C898 C903 1.363 1_556 S
C899 H870 0.950 . S
C899 C898 1.397 . S
C899 C900 1.334 . S
C900 H871 0.950 . S
C900 C899 1.334 . S
C900 C901 1.287 . S
C901 C900 1.287 . S
C901 C902 1.524 1_556 S
C901 H904 0.999 1_556 S
C902 H872 0.950 . S
C902 C901 1.524 1_554 S
C902 C903 1.415 . S
C903 H873 0.950 . S
C903 C898 1.363 1_554 S
C903 C902 1.415 . S
H904 C901 0.999 1_554 S
H905 C886 0.913 . S
H906 C924 0.951 . S
H907 C926 0.951 . S
H908 C928 0.950 . S
H909 C929 0.950 . S
H910 C931 0.950 . S
H911 C934 0.950 . S
H912 C935 0.950 . S
H913 C937 0.950 . S
H914 C938 0.950 . S
H915 C939 0.951 . S
H916 C941 0.951 . S
H917 C943 0.950 . S
H918 C944 0.950 . S
H919 C946 0.950 . S
H920 C949 0.950 . S
H921 C950 0.950 . S
H922 C952 0.950 . S
H923 C953 0.950 . S
C924 H906 0.951 . S
C924 C925 1.366 . S
C924 C926 1.388 . S
C925 C924 1.366 . S
C925 C929 1.385 . S
C926 H907 0.951 . S
C926 C924 1.388 . S
C926 C927 1.366 . S
C927 C926 1.366 . S
C927 C928 1.414 . S
C927 C930 1.499 . S
C928 H908 0.950 . S
C928 C927 1.414 . S
C928 C929 1.374 . S
C929 H909 0.950 . S
C929 C925 1.385 . S
C929 C928 1.374 . S
C930 C927 1.499 . S
C930 C931 1.373 . S
C930 C932 1.389 . S
C931 H910 0.950 . S
C931 C930 1.373 . S
C931 C947 1.377 . S
C932 C930 1.389 . S
C932 C933 1.524 . S
C932 C946 1.377 . S
C933 C932 1.524 . S
C933 C934 1.397 . S
C933 C938 1.363 . S
C934 H911 0.950 . S
C934 C933 1.397 . S
C934 C935 1.334 . S
C935 H912 0.950 . S
C935 C934 1.334 . S
C935 C936 1.287 . S
C936 C935 1.287 . S
C936 C937 1.524 . S
C936 H955 0.913 . S
C937 H913 0.950 . S
C937 C936 1.524 . S
C937 C938 1.415 . S
C938 H914 0.950 . S
C938 C933 1.363 . S
C938 C937 1.415 . S
C939 H915 0.951 . S
C939 C940 1.366 . S
C939 C941 1.388 . S
C940 C939 1.366 . S
C940 C944 1.385 . S
C941 H916 0.951 . S
C941 C939 1.388 . S
C941 C942 1.366 . S
C942 C941 1.366 . S
C942 C943 1.414 . S
C942 C945 1.499 . S
C943 H917 0.950 . S
C943 C942 1.414 . S
C943 C944 1.374 . S
C944 H918 0.950 . S
C944 C940 1.385 . S
C944 C943 1.374 . S
C945 C942 1.499 . S
C945 C946 1.373 . S
C945 C947 1.389 . S
C946 H919 0.950 . S
C946 C932 1.377 . S
C946 C945 1.373 . S
C947 C931 1.377 . S
C947 C945 1.389 . S
C947 C948 1.524 . S
C948 C947 1.524 . S
C948 C949 1.397 . S
C948 C953 1.363 . S
C949 H920 0.950 . S
C949 C948 1.397 . S
C949 C950 1.334 . S
C950 H921 0.950 . S
C950 C949 1.334 . S
C950 C951 1.287 . S
C951 C950 1.287 . S
C951 C952 1.524 . S
C951 H954 0.999 . S
C952 H922 0.950 . S
C952 C951 1.524 . S
C952 C953 1.415 . S
C953 H923 0.950 . S
C953 C948 1.363 . S
C953 C952 1.415 . S
H954 C951 0.999 . S
H955 C936 0.913 . S
H956 C974 0.951 . S
H957 C976 0.951 . S
H958 C978 0.969 . S
H959 C979 0.950 . S
H960 C981 0.950 . S
H961 C984 0.950 . S
H962 C985 0.950 . S
H963 C987 0.950 . S
H964 C988 0.950 . S
H965 C989 0.951 . S
H966 C991 0.956 . S
H967 C993 0.950 . S
H968 C994 0.950 . S
H969 C996 0.950 . S
H970 C999 0.950 . S
H971 C1000 0.950 . S
H972 C1002 0.950 . S
H973 C1003 0.943 1_554 S
C974 H956 0.951 . S
C974 C975 1.366 . S
C974 C976 1.388 . S
C975 C974 1.366 . S
C975 C979 1.385 1_556 S
C976 H957 0.951 . S
C976 C974 1.388 . S
C976 C977 1.366 . S
C977 C976 1.366 . S
C977 C978 1.394 1_556 S
C977 C980 1.499 . S
C978 H958 0.969 . S
C978 C977 1.394 1_554 S
C978 C979 1.376 . S
C979 H959 0.950 . S
C979 C975 1.385 1_554 S
C979 C978 1.376 . S
C980 C977 1.499 . S
C980 C981 1.373 . S
C980 C982 1.389 . S
C981 H960 0.950 . S
C981 C980 1.373 . S
C981 C997 1.377 . S
C982 C980 1.389 . S
C982 C983 1.524 . S
C982 C996 1.377 . S
C983 C982 1.524 . S
C983 C984 1.397 1_556 S
C983 C988 1.363 . S
C984 H961 0.950 . S
C984 C983 1.397 1_554 S
C984 C985 1.334 . S
C985 H962 0.950 . S
C985 C984 1.334 . S
C985 C986 1.287 . S
C986 C985 1.287 . S
C986 C987 1.524 1_554 S
C986 H1005 0.913 . S
C987 H963 0.950 . S
C987 C986 1.524 1_556 S
C987 C988 1.415 . S
C988 H964 0.950 . S
C988 C983 1.363 . S
C988 C987 1.415 . S
C989 H965 0.951 . S
C989 C990 1.366 . S
C989 C991 1.388 . S
C990 C989 1.366 . S
C990 C994 1.385 . S
C991 H966 0.956 . S
C991 C989 1.388 . S
C991 C992 1.366 . S
C992 C991 1.366 . S
C992 C993 1.414 . S
C992 C995 1.499 . S
C993 H967 0.950 . S
C993 C992 1.414 . S
C993 C994 1.374 . S
C994 H968 0.950 . S
C994 C990 1.385 . S
C994 C993 1.374 . S
C995 C992 1.499 . S
C995 C996 1.373 . S
C995 C997 1.389 . S
C996 H969 0.950 . S
C996 C982 1.377 . S
C996 C995 1.373 . S
C997 C981 1.377 . S
C997 C995 1.389 . S
C997 C998 1.524 . S
C998 C997 1.524 . S
C998 C999 1.397 . S
C998 C1003 1.363 . S
C999 H970 0.950 . S
C999 C998 1.397 . S
C999 C1000 1.334 . S
C1000 H971 0.950 . S
C1000 C999 1.334 . S
C1000 C1001 1.287 . S
C1001 C1000 1.287 . S
C1001 C1002 1.524 . S
C1001 H1004 0.999 . S
C1002 H972 0.950 . S
C1002 C1001 1.524 . S
C1002 C1003 1.415 . S
C1003 H973 0.943 1_556 S
C1003 C998 1.363 . S
C1003 C1002 1.415 . S
H1004 C1001 0.999 . S
H1005 C986 0.913 . S
H1006 C1024 0.951 . S
H1007 C1026 0.951 . S
H1008 C1028 0.950 . S
H1009 C1029 0.950 . S
H1010 C1031 0.950 . S
H1011 C1034 0.950 . S
H1012 C1035 0.950 . S
H1013 C1037 0.950 . S
H1014 C1038 0.950 . S
H1015 C1039 0.951 . S
H1016 C1041 0.951 . S
H1017 C1043 0.950 . S
H1018 C1044 0.950 . S
H1019 C1046 0.950 . S
H1020 C1049 0.950 . S
H1021 C1050 0.950 . S
H1022 C1052 0.950 . S
H1023 C1053 0.950 . S
C1024 H1006 0.951 . S
C1024 C1025 1.366 . S
C1024 C1026 1.388 . S
C1025 C1024 1.366 . S
C1025 C1029 1.385 . S
C1026 H1007 0.951 . S
C1026 C1024 1.388 . S
C1026 C1027 1.366 . S
C1027 C1026 1.366 . S
C1027 C1028 1.414 . S
C1027 C1030 1.499 . S
C1028 H1008 0.950 . S
C1028 C1027 1.414 . S
C1028 C1029 1.374 . S
C1029 H1009 0.950 . S
C1029 C1025 1.385 . S
C1029 C1028 1.374 . S
C1030 C1027 1.499 . S
C1030 C1031 1.373 . S
C1030 C1032 1.389 . S
C1031 H1010 0.950 . S
C1031 C1030 1.373 . S
C1031 C1047 1.377 . S
C1032 C1030 1.389 . S
C1032 C1033 1.524 . S
C1032 C1046 1.377 . S
C1033 C1032 1.524 . S
C1033 C1034 1.397 . S
C1033 C1038 1.363 . S
C1034 H1011 0.950 . S
C1034 C1033 1.397 . S
C1034 C1035 1.334 . S
C1035 H1012 0.950 . S
C1035 C1034 1.334 . S
C1035 C1036 1.287 . S
C1036 C1035 1.287 . S
C1036 C1037 1.524 . S
C1036 H1055 0.913 . S
C1037 H1013 0.950 . S
C1037 C1036 1.524 . S
C1037 C1038 1.415 . S
C1038 H1014 0.950 . S
C1038 C1033 1.363 . S
C1038 C1037 1.415 . S
C1039 H1015 0.951 . S
C1039 C1040 1.366 . S
C1039 C1041 1.388 . S
C1040 C1039 1.366 . S
C1040 C1044 1.385 . S
C1041 H1016 0.951 . S
C1041 C1039 1.388 . S
C1041 C1042 1.366 . S
C1042 C1041 1.366 . S
C1042 C1043 1.414 . S
C1042 C1045 1.499 . S
C1043 H1017 0.950 . S
C1043 C1042 1.414 . S
C1043 C1044 1.374 . S
C1044 H1018 0.950 . S
C1044 C1040 1.385 . S
C1044 C1043 1.374 . S
C1045 C1042 1.499 . S
C1045 C1046 1.373 . S
C1045 C1047 1.389 . S
C1046 H1019 0.950 . S
C1046 C1032 1.377 . S
C1046 C1045 1.373 . S
C1047 C1031 1.377 . S
C1047 C1045 1.389 . S
C1047 C1048 1.524 . S
C1048 C1047 1.524 . S
C1048 C1049 1.397 . S
C1048 C1053 1.363 . S
C1049 H1020 0.950 . S
C1049 C1048 1.397 . S
C1049 C1050 1.334 . S
C1050 H1021 0.950 . S
C1050 C1049 1.334 . S
C1050 C1051 1.287 . S
C1051 C1050 1.287 . S
C1051 C1052 1.524 . S
C1051 H1054 0.999 . S
C1052 H1022 0.950 . S
C1052 C1051 1.524 . S
C1052 C1053 1.415 . S
C1053 H1023 0.950 . S
C1053 C1048 1.363 . S
C1053 C1052 1.415 . S
H1054 C1051 0.999 . S
H1055 C1036 0.913 . S
H1056 C1074 0.951 . S
H1057 C1076 0.951 . S
H1058 C1078 0.950 . S
H1059 C1079 0.950 . S
H1060 C1081 0.950 . S
H1061 C1084 0.950 . S
H1062 C1085 0.950 . S
H1063 C1087 0.950 . S
H1064 C1088 0.950 . S
H1065 C1089 0.951 . S
H1066 C1091 0.951 . S
H1067 C1093 0.950 . S
H1068 C1094 0.950 . S
H1069 C1096 0.950 . S
H1070 C1099 0.950 . S
H1071 C1100 0.950 . S
H1072 C1102 0.950 . S
H1073 C1103 0.950 . S
C1074 H1056 0.951 . S
C1074 C1075 1.366 . S
C1074 C1076 1.388 . S
C1075 C1074 1.366 . S
C1075 C1079 1.385 . S
C1076 H1057 0.951 . S
C1076 C1074 1.388 . S
C1076 C1077 1.366 . S
C1077 C1076 1.366 . S
C1077 C1078 1.414 . S
C1077 C1080 1.499 . S
C1078 H1058 0.950 . S
C1078 C1077 1.414 . S
C1078 C1079 1.374 . S
C1079 H1059 0.950 . S
C1079 C1075 1.385 . S
C1079 C1078 1.374 . S
C1080 C1077 1.499 . S
C1080 C1081 1.373 . S
C1080 C1082 1.389 . S
C1081 H1060 0.950 . S
C1081 C1080 1.373 . S
C1081 C1097 1.377 . S
C1082 C1080 1.389 . S
C1082 C1083 1.524 . S
C1082 C1096 1.377 . S
C1083 C1082 1.524 . S
C1083 C1084 1.397 . S
C1083 C1088 1.363 . S
C1084 H1061 0.950 . S
C1084 C1083 1.397 . S
C1084 C1085 1.334 . S
C1085 H1062 0.950 . S
C1085 C1084 1.334 . S
C1085 C1086 1.287 . S
C1086 C1085 1.287 . S
C1086 C1087 1.524 . S
C1086 H1105 0.913 . S
C1087 H1063 0.950 . S
C1087 C1086 1.524 . S
C1087 C1088 1.415 . S
C1088 H1064 0.950 . S
C1088 C1083 1.363 . S
C1088 C1087 1.415 . S
C1089 H1065 0.951 . S
C1089 C1090 1.366 . S
C1089 C1091 1.388 . S
C1090 C1089 1.366 . S
C1090 C1094 1.385 . S
C1091 H1066 0.951 . S
C1091 C1089 1.388 . S
C1091 C1092 1.366 . S
C1092 C1091 1.366 . S
C1092 C1093 1.414 . S
C1092 C1095 1.499 . S
C1093 H1067 0.950 . S
C1093 C1092 1.414 . S
C1093 C1094 1.374 . S
C1094 H1068 0.950 . S
C1094 C1090 1.385 . S
C1094 C1093 1.374 . S
C1095 C1092 1.499 . S
C1095 C1096 1.373 . S
C1095 C1097 1.389 . S
C1096 H1069 0.950 . S
C1096 C1082 1.377 . S
C1096 C1095 1.373 . S
C1097 C1081 1.377 . S
C1097 C1095 1.389 . S
C1097 C1098 1.524 . S
C1098 C1097 1.524 . S
C1098 C1099 1.397 . S
C1098 C1103 1.363 . S
C1099 H1070 0.950 . S
C1099 C1098 1.397 . S
C1099 C1100 1.334 . S
C1100 H1071 0.950 . S
C1100 C1099 1.334 . S
C1100 C1101 1.287 . S
C1101 C1100 1.287 . S
C1101 C1102 1.524 . S
C1101 H1104 0.999 . S
C1102 H1072 0.950 . S
C1102 C1101 1.524 . S
C1102 C1103 1.415 . S
C1103 H1073 0.950 . S
C1103 C1098 1.363 . S
C1103 C1102 1.415 . S
H1104 C1101 0.999 . S
H1105 C1086 0.913 . S
H1106 C1124 0.939 1_556 S
H1107 C1126 0.951 1_556 S
H1108 C1128 0.950 . S
H1109 C1129 0.950 . S
H1110 C1131 0.950 . S
H1111 C1134 0.950 . S
H1112 C1135 0.950 . S
H1113 C1137 0.950 . S
H1114 C1138 0.950 . S
H1115 C1139 0.951 . S
H1116 C1141 0.951 . S
H1117 C1143 0.950 . S
H1118 C1144 0.950 . S
H1119 C1146 0.950 1_556 S
H1120 C1149 0.950 . S
H1121 C1150 0.950 . S
H1122 C1152 0.950 . S
H1123 C1153 0.950 . S
C1124 H1106 0.939 1_554 S
C1124 C1125 1.376 . S
C1124 C1126 1.389 . S
C1125 C1124 1.376 . S
C1125 C1129 1.385 . S
C1126 H1107 0.951 1_554 S
C1126 C1124 1.389 . S
C1126 C1127 1.366 . S
C1127 C1126 1.366 . S
C1127 C1128 1.414 . S
C1127 C1130 1.499 . S
C1128 H1108 0.950 . S
C1128 C1127 1.414 . S
C1128 C1129 1.374 . S
C1129 H1109 0.950 . S
C1129 C1125 1.385 . S
C1129 C1128 1.374 . S
C1130 C1127 1.499 . S
C1130 C1131 1.373 . S
C1130 C1132 1.389 1_554 S
C1131 H1110 0.950 . S
C1131 C1130 1.373 . S
C1131 C1147 1.377 . S
C1132 C1130 1.389 1_556 S
C1132 C1133 1.524 . S
C1132 C1146 1.377 1_556 S
C1133 C1132 1.524 . S
C1133 C1134 1.397 . S
C1133 C1138 1.363 . S
C1134 H1111 0.950 . S
C1134 C1133 1.397 . S
C1134 C1135 1.334 . S
C1135 H1112 0.950 . S
C1135 C1134 1.334 . S
C1135 C1136 1.287 . S
C1136 C1135 1.287 . S
C1136 C1137 1.524 . S
C1136 H1155 0.913 . S
C1137 H1113 0.950 . S
C1137 C1136 1.524 . S
C1137 C1138 1.415 . S
C1138 H1114 0.950 . S
C1138 C1133 1.363 . S
C1138 C1137 1.415 . S
C1139 H1115 0.951 . S
C1139 C1140 1.366 . S
C1139 C1141 1.388 . S
C1140 C1139 1.366 . S
C1140 C1144 1.385 . S
C1141 H1116 0.951 . S
C1141 C1139 1.388 . S
C1141 C1142 1.366 . S
C1142 C1141 1.366 . S
C1142 C1143 1.414 . S
C1142 C1145 1.499 . S
C1143 H1117 0.950 . S
C1143 C1142 1.414 . S
C1143 C1144 1.374 . S
C1144 H1118 0.950 . S
C1144 C1140 1.385 . S
C1144 C1143 1.374 . S
C1145 C1142 1.499 . S
C1145 C1146 1.373 . S
C1145 C1147 1.389 . S
C1146 H1119 0.950 1_554 S
C1146 C1132 1.377 1_554 S
C1146 C1145 1.373 . S
C1147 C1131 1.377 . S
C1147 C1145 1.389 . S
C1147 C1148 1.524 . S
C1148 C1147 1.524 . S
C1148 C1149 1.397 . S
C1148 C1153 1.363 . S
C1149 H1120 0.950 . S
C1149 C1148 1.397 . S
C1149 C1150 1.334 . S
C1150 H1121 0.950 . S
C1150 C1149 1.334 . S
C1150 C1151 1.287 . S
C1151 C1150 1.287 . S
C1151 C1152 1.524 . S
C1151 H1154 0.999 . S
C1152 H1122 0.950 . S
C1152 C1151 1.524 . S
C1152 C1153 1.415 . S
C1153 H1123 0.950 . S
C1153 C1148 1.363 . S
C1153 C1152 1.415 . S
H1154 C1151 0.999 . S
H1155 C1136 0.913 . S
H1156 C1174 0.951 . S
H1157 C1176 0.951 . S
H1158 C1178 0.950 . S
H1159 C1179 0.950 . S
H1160 C1181 0.950 . S
H1161 C1184 0.950 . S
H1162 C1185 0.950 . S
H1163 C1187 0.950 . S
H1164 C1188 0.950 . S
H1165 C1189 0.951 . S
H1166 C1191 0.951 . S
H1167 C1193 0.950 . S
H1168 C1194 0.950 . S
H1169 C1196 0.950 . S
H1170 C1199 0.950 . S
H1171 C1200 0.950 . S
H1172 C1202 0.950 . S
H1173 C1203 0.950 . S
C1174 H1156 0.951 . S
C1174 C1175 1.366 . S
C1174 C1176 1.388 . S
C1175 C1174 1.366 . S
C1175 C1179 1.385 . S
C1176 H1157 0.951 . S
C1176 C1174 1.388 . S
C1176 C1177 1.366 . S
C1177 C1176 1.366 . S
C1177 C1178 1.414 . S
C1177 C1180 1.499 . S
C1178 H1158 0.950 . S
C1178 C1177 1.414 . S
C1178 C1179 1.374 . S
C1179 H1159 0.950 . S
C1179 C1175 1.385 . S
C1179 C1178 1.374 . S
C1180 C1177 1.499 . S
C1180 C1181 1.373 . S
C1180 C1182 1.389 . S
C1181 H1160 0.950 . S
C1181 C1180 1.373 . S
C1181 C1197 1.377 . S
C1182 C1180 1.389 . S
C1182 C1183 1.524 . S
C1182 C1196 1.377 . S
C1183 C1182 1.524 . S
C1183 C1184 1.397 . S
C1183 C1188 1.363 . S
C1184 H1161 0.950 . S
C1184 C1183 1.397 . S
C1184 C1185 1.334 . S
C1185 H1162 0.950 . S
C1185 C1184 1.334 . S
C1185 C1186 1.287 . S
C1186 C1185 1.287 . S
C1186 C1187 1.524 . S
C1186 H1205 0.913 . S
C1187 H1163 0.950 . S
C1187 C1186 1.524 . S
C1187 C1188 1.415 . S
C1188 H1164 0.950 . S
C1188 C1183 1.363 . S
C1188 C1187 1.415 . S
C1189 H1165 0.951 . S
C1189 C1190 1.366 . S
C1189 C1191 1.388 . S
C1190 C1189 1.366 . S
C1190 C1194 1.385 . S
C1191 H1166 0.951 . S
C1191 C1189 1.388 . S
C1191 C1192 1.366 . S
C1192 C1191 1.366 . S
C1192 C1193 1.414 . S
C1192 C1195 1.499 . S
C1193 H1167 0.950 . S
C1193 C1192 1.414 . S
C1193 C1194 1.374 . S
C1194 H1168 0.950 . S
C1194 C1190 1.385 . S
C1194 C1193 1.374 . S
C1195 C1192 1.499 . S
C1195 C1196 1.373 . S
C1195 C1197 1.389 . S
C1196 H1169 0.950 . S
C1196 C1182 1.377 . S
C1196 C1195 1.373 . S
C1197 C1181 1.377 . S
C1197 C1195 1.389 . S
C1197 C1198 1.524 . S
C1198 C1197 1.524 . S
C1198 C1199 1.397 . S
C1198 C1203 1.363 . S
C1199 H1170 0.950 . S
C1199 C1198 1.397 . S
C1199 C1200 1.334 . S
C1200 H1171 0.950 . S
C1200 C1199 1.334 . S
C1200 C1201 1.287 . S
C1201 C1200 1.287 . S
C1201 C1202 1.524 . S
C1201 H1204 0.999 . S
C1202 H1172 0.950 . S
C1202 C1201 1.524 . S
C1202 C1203 1.415 . S
C1203 H1173 0.950 . S
C1203 C1198 1.363 . S
C1203 C1202 1.415 . S
H1204 C1201 0.999 . S
H1205 C1186 0.913 . S
H1206 C1224 0.951 . S
H1207 C1226 0.951 . S
H1208 C1228 0.950 . S
H1209 C1229 0.950 . S
H1210 C1231 0.950 . S
H1211 C1234 0.950 . S
H1212 C1235 0.950 . S
H1213 C1237 0.950 . S
H1214 C1238 0.950 . S
H1215 C1239 0.951 . S
H1216 C1241 0.951 . S
H1217 C1243 0.950 1_556 S
H1218 C1244 0.950 1_556 S
H1219 C1246 0.950 1_556 S
H1220 C1249 0.950 . S
H1221 C1250 0.950 . S
H1222 C1252 0.950 . S
H1223 C1253 0.950 . S
C1224 H1206 0.951 . S
C1224 C1225 1.366 1_556 S
C1224 C1226 1.388 . S
C1225 C1224 1.366 1_554 S
C1225 C1229 1.385 . S
C1226 H1207 0.951 . S
C1226 C1224 1.388 . S
C1226 C1227 1.366 1_556 S
C1227 C1226 1.366 1_554 S
C1227 C1228 1.414 . S
C1227 C1230 1.499 . S
C1228 H1208 0.950 . S
C1228 C1227 1.414 . S
C1228 C1229 1.374 . S
C1229 H1209 0.950 . S
C1229 C1225 1.385 . S
C1229 C1228 1.374 . S
C1230 C1227 1.499 . S
C1230 C1231 1.373 . S
C1230 C1232 1.389 . S
C1231 H1210 0.950 . S
C1231 C1230 1.373 . S
C1231 C1247 1.377 . S
C1232 C1230 1.389 . S
C1232 C1233 1.524 1_554 S
C1232 C1246 1.377 . S
C1233 C1232 1.524 1_556 S
C1233 C1234 1.397 . S
C1233 C1238 1.363 . S
C1234 H1211 0.950 . S
C1234 C1233 1.397 . S
C1234 C1235 1.334 . S
C1235 H1212 0.950 . S
C1235 C1234 1.334 . S
C1235 C1236 1.287 . S
C1236 C1235 1.287 . S
C1236 C1237 1.524 . S
C1236 H1255 0.913 . S
C1237 H1213 0.950 . S
C1237 C1236 1.524 . S
C1237 C1238 1.415 . S
C1238 H1214 0.950 . S
C1238 C1233 1.363 . S
C1238 C1237 1.415 . S
C1239 H1215 0.951 . S
C1239 C1240 1.366 . S
C1239 C1241 1.388 . S
C1240 C1239 1.366 . S
C1240 C1244 1.385 . S
C1241 H1216 0.951 . S
C1241 C1239 1.388 . S
C1241 C1242 1.366 . S
C1242 C1241 1.366 . S
C1242 C1243 1.414 . S
C1242 C1245 1.499 . S
C1243 H1217 0.950 1_554 S
C1243 C1242 1.414 . S
C1243 C1244 1.374 . S
C1244 H1218 0.950 1_554 S
C1244 C1240 1.385 . S
C1244 C1243 1.374 . S
C1245 C1242 1.499 . S
C1245 C1246 1.373 . S
C1245 C1247 1.389 . S
C1246 H1219 0.950 1_554 S
C1246 C1232 1.377 . S
C1246 C1245 1.373 . S
C1247 C1231 1.377 . S
C1247 C1245 1.389 . S
C1247 C1248 1.524 . S
C1248 C1247 1.524 . S
C1248 C1249 1.397 . S
C1248 C1253 1.363 . S
C1249 H1220 0.950 . S
C1249 C1248 1.397 . S
C1249 C1250 1.334 . S
C1250 H1221 0.950 . S
C1250 C1249 1.334 . S
C1250 C1251 1.287 . S
C1251 C1250 1.287 . S
C1251 C1252 1.524 . S
C1251 H1254 0.999 . S
C1252 H1222 0.950 . S
C1252 C1251 1.524 . S
C1252 C1253 1.415 . S
C1253 H1223 0.950 . S
C1253 C1248 1.363 . S
C1253 C1252 1.415 . S
H1254 C1251 0.999 . S
H1255 C1236 0.913 . S
H1256 C1274 0.951 . S
H1257 C1276 0.951 . S
H1258 C1278 0.950 . S
H1259 C1279 0.950 . S
H1260 C1281 0.950 . S
H1261 C1284 0.950 . S
H1262 C1285 0.950 . S
H1263 C1287 0.950 . S
H1264 C1288 0.950 . S
H1265 C1289 0.951 . S
H1266 C1291 0.951 . S
H1267 C1293 0.950 . S
H1268 C1294 0.950 . S
H1269 C1296 0.950 . S
H1270 C1299 0.950 . S
H1271 C1300 0.950 . S
H1272 C1302 0.950 . S
H1273 C1303 0.950 . S
C1274 H1256 0.951 . S
C1274 C1275 1.366 . S
C1274 C1276 1.388 . S
C1275 C1274 1.366 . S
C1275 C1279 1.385 . S
C1276 H1257 0.951 . S
C1276 C1274 1.388 . S
C1276 C1277 1.366 . S
C1277 C1276 1.366 . S
C1277 C1278 1.414 . S
C1277 C1280 1.499 . S
C1278 H1258 0.950 . S
C1278 C1277 1.414 . S
C1278 C1279 1.374 . S
C1279 H1259 0.950 . S
C1279 C1275 1.385 . S
C1279 C1278 1.374 . S
C1280 C1277 1.499 . S
C1280 C1281 1.373 . S
C1280 C1282 1.389 . S
C1281 H1260 0.950 . S
C1281 C1280 1.373 . S
C1281 C1297 1.377 . S
C1282 C1280 1.389 . S
C1282 C1283 1.524 . S
C1282 C1296 1.377 . S
C1283 C1282 1.524 . S
C1283 C1284 1.397 . S
C1283 C1288 1.363 . S
C1284 H1261 0.950 . S
C1284 C1283 1.397 . S
C1284 C1285 1.334 . S
C1285 H1262 0.950 . S
C1285 C1284 1.334 . S
C1285 C1286 1.287 . S
C1286 C1285 1.287 . S
C1286 C1287 1.524 . S
C1286 H1305 0.913 . S
C1287 H1263 0.950 . S
C1287 C1286 1.524 . S
C1287 C1288 1.415 . S
C1288 H1264 0.950 . S
C1288 C1283 1.363 . S
C1288 C1287 1.415 . S
C1289 H1265 0.951 . S
C1289 C1290 1.366 . S
C1289 C1291 1.388 . S
C1290 C1289 1.366 . S
C1290 C1294 1.385 . S
C1291 H1266 0.951 . S
C1291 C1289 1.388 . S
C1291 C1292 1.366 . S
C1292 C1291 1.366 . S
C1292 C1293 1.414 . S
C1292 C1295 1.499 . S
C1293 H1267 0.950 . S
C1293 C1292 1.414 . S
C1293 C1294 1.374 . S
C1294 H1268 0.950 . S
C1294 C1290 1.385 . S
C1294 C1293 1.374 . S
C1295 C1292 1.499 . S
C1295 C1296 1.373 . S
C1295 C1297 1.389 . S
C1296 H1269 0.950 . S
C1296 C1282 1.377 . S
C1296 C1295 1.373 . S
C1297 C1281 1.377 . S
C1297 C1295 1.389 . S
C1297 C1298 1.524 . S
C1298 C1297 1.524 . S
C1298 C1299 1.397 . S
C1298 C1303 1.363 . S
C1299 H1270 0.950 . S
C1299 C1298 1.397 . S
C1299 C1300 1.334 . S
C1300 H1271 0.950 . S
C1300 C1299 1.334 . S
C1300 C1301 1.287 . S
C1301 C1300 1.287 . S
C1301 C1302 1.524 . S
C1301 H1304 0.999 . S
C1302 H1272 0.950 . S
C1302 C1301 1.524 . S
C1302 C1303 1.415 . S
C1303 H1273 0.950 . S
C1303 C1298 1.363 . S
C1303 C1302 1.415 . S
H1304 C1301 0.999 . S
H1305 C1286 0.913 . S
H1306 C1324 0.951 . S
H1307 C1326 0.951 . S
H1308 C1328 0.950 . S
H1309 C1329 0.950 . S
H1310 C1331 0.950 . S
H1311 C1334 0.950 . S
H1312 C1335 0.950 . S
H1313 C1337 0.950 . S
H1314 C1338 0.950 . S
H1315 C1339 0.951 . S
H1316 C1341 0.951 . S
H1317 C1343 0.950 1_556 S
H1318 C1344 0.950 1_556 S
H1319 C1346 0.950 . S
H1320 C1349 0.950 . S
H1321 C1350 0.950 . S
H1322 C1352 0.950 . S
H1323 C1353 0.950 . S
C1324 H1306 0.951 . S
C1324 C1325 1.366 1_556 S
C1324 C1326 1.388 . S
C1325 C1324 1.366 1_554 S
C1325 C1329 1.385 . S
C1326 H1307 0.951 . S
C1326 C1324 1.388 . S
C1326 C1327 1.366 1_556 S
C1327 C1326 1.366 1_554 S
C1327 C1328 1.414 . S
C1327 C1330 1.499 . S
C1328 H1308 0.950 . S
C1328 C1327 1.414 . S
C1328 C1329 1.374 . S
C1329 H1309 0.950 . S
C1329 C1325 1.385 . S
C1329 C1328 1.374 . S
C1330 C1327 1.499 . S
C1330 C1331 1.373 . S
C1330 C1332 1.389 . S
C1331 H1310 0.950 . S
C1331 C1330 1.373 . S
C1331 C1347 1.377 . S
C1332 C1330 1.389 . S
C1332 C1333 1.524 . S
C1332 C1346 1.377 . S
C1333 C1332 1.524 . S
C1333 C1334 1.397 . S
C1333 C1338 1.363 1_554 S
C1334 H1311 0.950 . S
C1334 C1333 1.397 . S
C1334 C1335 1.334 . S
C1335 H1312 0.950 . S
C1335 C1334 1.334 . S
C1335 C1336 1.287 . S
C1336 C1335 1.287 . S
C1336 C1337 1.524 1_554 S
C1336 H1355 0.913 1_554 S
C1337 H1313 0.950 . S
C1337 C1336 1.524 1_556 S
C1337 C1338 1.415 . S
C1338 H1314 0.950 . S
C1338 C1333 1.363 1_556 S
C1338 C1337 1.415 . S
C1339 H1315 0.951 . S
C1339 C1340 1.366 . S
C1339 C1341 1.388 . S
C1340 C1339 1.366 . S
C1340 C1344 1.385 . S
C1341 H1316 0.951 . S
C1341 C1339 1.388 . S
C1341 C1342 1.366 . S
C1342 C1341 1.366 . S
C1342 C1343 1.414 . S
C1342 C1345 1.499 . S
C1343 H1317 0.950 1_554 S
C1343 C1342 1.414 . S
C1343 C1344 1.374 . S
C1344 H1318 0.950 1_554 S
C1344 C1340 1.385 . S
C1344 C1343 1.374 . S
C1345 C1342 1.499 . S
C1345 C1346 1.373 . S
C1345 C1347 1.389 . S
C1346 H1319 0.950 . S
C1346 C1332 1.377 . S
C1346 C1345 1.373 . S
C1347 C1331 1.377 . S
C1347 C1345 1.389 . S
C1347 C1348 1.524 . S
C1348 C1347 1.524 . S
C1348 C1349 1.397 . S
C1348 C1353 1.363 . S
C1349 H1320 0.950 . S
C1349 C1348 1.397 . S
C1349 C1350 1.334 . S
C1350 H1321 0.950 . S
C1350 C1349 1.334 . S
C1350 C1351 1.287 . S
C1351 C1350 1.287 . S
C1351 C1352 1.524 . S
C1351 H1354 0.999 . S
C1352 H1322 0.950 . S
C1352 C1351 1.524 . S
C1352 C1353 1.415 . S
C1353 H1323 0.950 . S
C1353 C1348 1.363 . S
C1353 C1352 1.415 . S
H1354 C1351 0.999 . S
H1355 C1336 0.913 1_556 S
C175 C140 1.678 . S
C190 C10 1.673 . S
C225 C23 1.678 . S
C240 C147 1.673 . S
C275 C30 1.677 . S
C290 C82 1.675 . S
C325 C95 1.677 . S
C340 C43 1.674 . S
C375 C108 1.678 . S
C390 C62 1.673 . S
C425 C69 1.678 . S
C440 C121 1.673 . S
C475 C4 0.844 . S
C490 C101 0.847 . S
C525 C17 0.865 . S
C540 C114 0.866 . S
C575 C127 0.845 . S
C590 C36 0.847 . S
C625 C134 0.864 . S
C640 C49 0.864 . S
C675 C153 0.844 . S
C690 C56 0.846 . S
C725 C88 0.864 . S
C740 C75 0.864 . S
C775 C5 0.970 . S
C790 C55 0.934 . S
C825 C18 1.021 . S
C840 C70 0.979 . S
C875 C29 0.972 . S
C890 C3 0.936 . S
C925 C42 1.020 . S
C940 C16 0.978 . S
C975 C57 0.971 . S
C990 C31 0.935 . S
C1025 C68 1.020 . S
C1040 C44 0.981 . S
C1075 C81 1.020 . S
C1090 C109 0.980 . S
C1125 C94 0.972 . S
C1140 C122 0.937 . S
C1175 C133 0.980 . S
C1190 C107 1.021 . S
C1225 C120 0.970 . S
C1240 C148 0.936 . S
C1275 C135 1.021 . S
C1290 C83 0.980 . S
C1325 C146 0.971 . S
C1340 C96 0.937 . S
