# Generated by pormake.
# Topology neb, (4)-cn, num edge types: 1
# Building blocks:
#     Node 0, Type 0, BuildingBlock: NAHDIM_clean_sbu_0, # of connection points: 4
#     Node 1, Type 0, BuildingBlock: NAHDIM_clean_sbu_0, # of connection points: 4
#     Node 2, Type 0, BuildingBlock: NAHDIM_clean_sbu_0, # of connection points: 4
#     Node 3, Type 0, BuildingBlock: NAHDIM_clean_sbu_0, # of connection points: 4
#     Node 4, Type 0, BuildingBlock: NAHDIM_clean_sbu_0, # of connection points: 4
#     Node 5, Type 0, BuildingBlock: NAHDIM_clean_sbu_0, # of connection points: 4
#     Node 6, Type 0, BuildingBlock: NAHDIM_clean_sbu_0, # of connection points: 4
#     Node 7, Type 0, BuildingBlock: NAHDIM_clean_sbu_0, # of connection points: 4
#     Node 8, Type 0, BuildingBlock: NAHDIM_clean_sbu_0, # of connection points: 4
#     Node 9, Type 0, BuildingBlock: NAHDIM_clean_sbu_0, # of connection points: 4
#     Node 10, Type 0, BuildingBlock: NAHDIM_clean_sbu_0, # of connection points: 4
#     Node 11, Type 0, BuildingBlock: NAHDIM_clean_sbu_0, # of connection points: 4
#     Node 12, Type 0, BuildingBlock: NAHDIM_clean_sbu_0, # of connection points: 4
#     Node 13, Type 0, BuildingBlock: NAHDIM_clean_sbu_0, # of connection points: 4
#     Node 14, Type 0, BuildingBlock: NAHDIM_clean_sbu_0, # of connection points: 4
#     Node 15, Type 0, BuildingBlock: NAHDIM_clean_sbu_0, # of connection points: 4
#     Edge 16, Type (0, 0), BuildingBlock: OJICUG_clean_linker_0, # of connection points: 2
#     Edge 17, Type (0, 0), BuildingBlock: OJICUG_clean_linker_0, # of connection points: 2
#     Edge 18, Type (0, 0), BuildingBlock: OJICUG_clean_linker_0, # of connection points: 2
#     Edge 19, Type (0, 0), BuildingBlock: OJICUG_clean_linker_0, # of connection points: 2
#     Edge 20, Type (0, 0), BuildingBlock: OJICUG_clean_linker_0, # of connection points: 2
#     Edge 21, Type (0, 0), BuildingBlock: OJICUG_clean_linker_0, # of connection points: 2
#     Edge 22, Type (0, 0), BuildingBlock: OJICUG_clean_linker_0, # of connection points: 2
#     Edge 23, Type (0, 0), BuildingBlock: OJICUG_clean_linker_0, # of connection points: 2
#     Edge 24, Type (0, 0), BuildingBlock: OJICUG_clean_linker_0, # of connection points: 2
#     Edge 25, Type (0, 0), BuildingBlock: OJICUG_clean_linker_0, # of connection points: 2
#     Edge 26, Type (0, 0), BuildingBlock: OJICUG_clean_linker_0, # of connection points: 2
#     Edge 27, Type (0, 0), BuildingBlock: OJICUG_clean_linker_0, # of connection points: 2
#     Edge 28, Type (0, 0), BuildingBlock: OJICUG_clean_linker_0, # of connection points: 2
#     Edge 29, Type (0, 0), BuildingBlock: OJICUG_clean_linker_0, # of connection points: 2
#     Edge 30, Type (0, 0), BuildingBlock: OJICUG_clean_linker_0, # of connection points: 2
#     Edge 31, Type (0, 0), BuildingBlock: OJICUG_clean_linker_0, # of connection points: 2
#     Edge 32, Type (0, 0), BuildingBlock: OJICUG_clean_linker_0, # of connection points: 2
#     Edge 33, Type (0, 0), BuildingBlock: OJICUG_clean_linker_0, # of connection points: 2
#     Edge 34, Type (0, 0), BuildingBlock: OJICUG_clean_linker_0, # of connection points: 2
#     Edge 35, Type (0, 0), BuildingBlock: OJICUG_clean_linker_0, # of connection points: 2
#     Edge 36, Type (0, 0), BuildingBlock: OJICUG_clean_linker_0, # of connection points: 2
#     Edge 37, Type (0, 0), BuildingBlock: OJICUG_clean_linker_0, # of connection points: 2
#     Edge 38, Type (0, 0), BuildingBlock: OJICUG_clean_linker_0, # of connection points: 2
#     Edge 39, Type (0, 0), BuildingBlock: OJICUG_clean_linker_0, # of connection points: 2
#     Edge 40, Type (0, 0), BuildingBlock: OJICUG_clean_linker_0, # of connection points: 2
#     Edge 41, Type (0, 0), BuildingBlock: OJICUG_clean_linker_0, # of connection points: 2
#     Edge 42, Type (0, 0), BuildingBlock: OJICUG_clean_linker_0, # of connection points: 2
#     Edge 43, Type (0, 0), BuildingBlock: OJICUG_clean_linker_0, # of connection points: 2
#     Edge 44, Type (0, 0), BuildingBlock: OJICUG_clean_linker_0, # of connection points: 2
#     Edge 45, Type (0, 0), BuildingBlock: OJICUG_clean_linker_0, # of connection points: 2
#     Edge 46, Type (0, 0), BuildingBlock: OJICUG_clean_linker_0, # of connection points: 2
#     Edge 47, Type (0, 0), BuildingBlock: OJICUG_clean_linker_0, # of connection points: 2
# Relax obj value: 0.077
# Max RMSD: 0.132
# Mean RMSD: 0.132
data_MOF--net-neb--node1-NAHDIM_clean_sbu_0--edge1-OJICUG_clean_linker_0
_symmetry_space_group_name_H-M    P1
_symmetry_Int_Tables_number       1
_symmetry_cell_setting            triclinic
loop_
_symmetry_equiv_pos_as_xyz
'x, y, z'
_cell_length_a     33.925971
_cell_length_b     16.151222
_cell_length_c     54.434725
_cell_angle_alpha  90.100451
_cell_angle_beta   94.178908
_cell_angle_gamma 90.08628
loop_
_atom_site_label
_atom_site_type_symbol
_atom_site_fract_x
_atom_site_fract_y
_atom_site_fract_z
_atom_type_partial_charge
C0 C 0.06192 0.06588 0.45791 0.0
O1 O 0.09455 0.02292 0.45656 0.0
O2 O 0.15006 0.21066 0.44957 0.0
Zn3 Zn 0.10425 0.16901 0.42728 0.0
O4 O 0.11812 0.06827 0.40797 0.0
C5 C 0.11785 0.29968 0.39516 0.0
O6 O 0.15366 0.28377 0.40475 0.0
O7 O 0.05886 0.13553 0.44704 0.0
C8 C 0.1453 0.05985 0.39328 0.0
O9 O 0.17001 0.12102 0.39029 0.0
C10 C 0.18001 0.1678 0.4568 0.0
O11 O 0.18113 0.08897 0.4509 0.0
O12 O 0.08899 0.25876 0.4026 0.0
C13 C 0.18075 0.06405 0.75766 0.0
O14 O 0.15105 0.01592 0.76248 0.0
O15 O 0.09096 0.21229 0.76919 0.0
Zn16 Zn 0.13977 0.17065 0.78849 0.0
O17 O 0.12954 0.07209 0.8096 0.0
C18 C 0.13132 0.28065 0.8263 0.0
O19 O 0.09731 0.24146 0.82382 0.0
O20 O 0.18222 0.13729 0.76635 0.0
C21 C 0.098 0.04425 0.81779 0.0
O22 O 0.06407 0.08077 0.81186 0.0
C23 C 0.06573 0.16879 0.75654 0.0
O24 O 0.07094 0.08844 0.75497 0.0
O25 O 0.15783 0.26197 0.81192 0.0
C26 C 0.93176 0.92834 0.50764 0.0
O27 O 0.89906 0.97114 0.50889 0.0
O28 O 0.84366 0.78313 0.51536 0.0
Zn29 Zn 0.88914 0.82465 0.53795 0.0
O30 O 0.87483 0.92511 0.55724 0.0
C31 C 0.87534 0.69261 0.56961 0.0
O32 O 0.83966 0.70765 0.55965 0.0
O33 O 0.93477 0.85859 0.51846 0.0
C34 C 0.84815 0.93222 0.57233 0.0
O35 O 0.82442 0.8697 0.57579 0.0
C36 C 0.81357 0.82576 0.50827 0.0
O37 O 0.81212 0.90426 0.51449 0.0
O38 O 0.90416 0.73466 0.56259 0.0
C39 C 0.81113 0.92859 0.20714 0.0
O40 O 0.84042 0.97714 0.20185 0.0
O41 O 0.90141 0.78067 0.19579 0.0
Zn42 Zn 0.85222 0.82098 0.17664 0.0
O43 O 0.86176 0.91831 0.1549 0.0
C44 C 0.86015 0.7117 0.13867 0.0
O45 O 0.89338 0.75384 0.14024 0.0
O46 O 0.80997 0.85481 0.19886 0.0
C47 C 0.89333 0.94813 0.14727 0.0
O48 O 0.92765 0.91537 0.15447 0.0
C49 C 0.92597 0.82398 0.20901 0.0
O50 O 0.91989 0.90382 0.21132 0.0
O51 O 0.83431 0.7282 0.15372 0.0
C52 C 0.06191 0.56323 0.95713 0.0
O53 O 0.09255 0.51644 0.9534 0.0
O54 O 0.15143 0.71277 0.94728 0.0
Zn55 Zn 0.10394 0.66946 0.92683 0.0
O56 O 0.11608 0.56976 0.90656 0.0
C57 C 0.11527 0.78643 0.89111 0.0
O58 O 0.15078 0.75638 0.89653 0.0
O59 O 0.06021 0.63575 0.94799 0.0
C60 C 0.14729 0.54814 0.89668 0.0
O61 O 0.17942 0.5935 0.89985 0.0
C62 C 0.17844 0.66914 0.95815 0.0
O63 O 0.1757 0.58804 0.95724 0.0
O64 O 0.08676 0.75921 0.9027 0.0
C65 C 0.18028 0.56551 0.25759 0.0
O66 O 0.1516 0.51612 0.26337 0.0
O67 O 0.08946 0.71182 0.26962 0.0
Zn68 Zn 0.13937 0.67311 0.28828 0.0
O69 O 0.13119 0.57667 0.31065 0.0
C70 C 0.13344 0.781 0.32699 0.0
O71 O 0.10156 0.73487 0.32722 0.0
O72 O 0.18107 0.63957 0.26564 0.0
C73 C 0.09988 0.54438 0.31788 0.0
O74 O 0.06517 0.57299 0.30967 0.0
C75 C 0.06527 0.66867 0.25608 0.0
O76 O 0.0721 0.58938 0.25311 0.0
O77 O 0.15742 0.76754 0.31055 0.0
C78 C 0.9326 0.42978 0.00853 0.0
O79 O 0.90143 0.47576 0.01162 0.0
O80 O 0.84306 0.28174 0.01674 0.0
Zn81 Zn 0.88971 0.3237 0.03825 0.0
O82 O 0.87674 0.42344 0.05826 0.0
C83 C 0.87654 0.20006 0.07207 0.0
O84 O 0.84069 0.22409 0.06465 0.0
O85 O 0.93441 0.35759 0.01789 0.0
C86 C 0.84636 0.43997 0.06972 0.0
O87 O 0.81628 0.38854 0.06858 0.0
C88 C 0.81502 0.32594 0.00729 0.0
O89 O 0.81631 0.40661 0.01036 0.0
O90 O 0.90573 0.23344 0.06252 0.0
C91 C 0.81203 0.42947 0.70707 0.0
O92 O 0.84094 0.47818 0.70125 0.0
O93 O 0.90263 0.28193 0.6957 0.0
Zn94 Zn 0.85289 0.32046 0.67681 0.0
O95 O 0.86133 0.41615 0.65421 0.0
C96 C 0.85892 0.21198 0.63828 0.0
O97 O 0.8907 0.25839 0.63797 0.0
O98 O 0.81106 0.35514 0.69922 0.0
C99 C 0.89268 0.44867 0.64713 0.0
O100 O 0.92736 0.42091 0.65569 0.0
C101 C 0.92695 0.32511 0.70914 0.0
O102 O 0.92042 0.40461 0.71188 0.0
O103 O 0.83493 0.22546 0.65473 0.0
C104 C 0.56009 0.06506 0.95505 0.0
O105 O 0.58816 0.01573 0.94837 0.0
O106 O 0.6521 0.21341 0.94593 0.0
Zn107 Zn 0.60252 0.17648 0.92647 0.0
O108 O 0.61082 0.08293 0.90291 0.0
C109 C 0.60971 0.28819 0.88919 0.0
O110 O 0.64128 0.24141 0.88871 0.0
O111 O 0.56028 0.14055 0.9484 0.0
C112 C 0.64218 0.05135 0.89556 0.0
O113 O 0.67687 0.07839 0.90447 0.0
C114 C 0.67738 0.16917 0.95818 0.0
O115 O 0.67209 0.08871 0.95928 0.0
O116 O 0.58529 0.27368 0.90529 0.0
C117 C 0.6827 0.062 0.25921 0.0
O118 O 0.65065 0.01759 0.26132 0.0
O119 O 0.59377 0.20607 0.26379 0.0
Zn120 Zn 0.63864 0.16914 0.28758 0.0
O121 O 0.62424 0.07083 0.30767 0.0
C122 C 0.62439 0.30728 0.31731 0.0
O123 O 0.5889 0.29328 0.30683 0.0
O124 O 0.68485 0.13387 0.26884 0.0
C125 C 0.60135 0.06904 0.32514 0.0
O126 O 0.58235 0.1363 0.33088 0.0
C127 C 0.5601 0.17118 0.26156 0.0
O128 O 0.55404 0.10378 0.27421 0.0
O129 O 0.65294 0.26241 0.31133 0.0
C130 C 0.43342 0.93348 0.00912 0.0
O131 O 0.40546 0.98293 0.01589 0.0
O132 O 0.34144 0.78498 0.01879 0.0
Zn133 Zn 0.39123 0.82239 0.03794 0.0
O134 O 0.38312 0.91622 0.06142 0.0
C135 C 0.38464 0.71192 0.07562 0.0
O136 O 0.35342 0.75956 0.07642 0.0
O137 O 0.43324 0.85801 0.01579 0.0
C138 C 0.35173 0.94882 0.06839 0.0
O139 O 0.31709 0.92294 0.05905 0.0
C140 C 0.31666 0.82824 0.00582 0.0
O141 O 0.32262 0.9082 0.00364 0.0
O142 O 0.40861 0.72545 0.05918 0.0
C143 C 0.3093 0.93071 0.70568 0.0
O144 O 0.34139 0.97506 0.70363 0.0
O145 O 0.39836 0.78754 0.70085 0.0
Zn146 Zn 0.35329 0.82402 0.67716 0.0
O147 O 0.3674 0.92233 0.65699 0.0
C148 C 0.36791 0.68632 0.6474 0.0
O149 O 0.40336 0.70097 0.65785 0.0
O150 O 0.3071 0.85899 0.69595 0.0
C151 C 0.39125 0.92501 0.64005 0.0
O152 O 0.41157 0.85881 0.63498 0.0
C153 C 0.43143 0.8246 0.70371 0.0
O154 O 0.43663 0.89412 0.69188 0.0
O155 O 0.33918 0.73059 0.65343 0.0
C156 C 0.56026 0.5632 0.45565 0.0
O157 O 0.58888 0.51453 0.44941 0.0
O158 O 0.65148 0.71138 0.44643 0.0
Zn159 Zn 0.60217 0.6742 0.42673 0.0
O160 O 0.61061 0.58043 0.40326 0.0
C161 C 0.60931 0.78609 0.38943 0.0
O162 O 0.64096 0.73958 0.38893 0.0
O163 O 0.55986 0.63825 0.44857 0.0
C164 C 0.6419 0.54979 0.3955 0.0
O165 O 0.67663 0.57823 0.40384 0.0
C166 C 0.67766 0.66707 0.45785 0.0
O167 O 0.67366 0.58616 0.45785 0.0
O168 O 0.58492 0.77134 0.40554 0.0
C169 C 0.68391 0.56392 0.75921 0.0
O170 O 0.65194 0.51941 0.7615 0.0
O171 O 0.59483 0.7081 0.76378 0.0
Zn172 Zn 0.63985 0.67137 0.78748 0.0
O173 O 0.62552 0.57316 0.80762 0.0
C174 C 0.62548 0.80944 0.81717 0.0
O175 O 0.59005 0.79532 0.80663 0.0
O176 O 0.68602 0.63604 0.76868 0.0
C177 C 0.60212 0.57099 0.82481 0.0
O178 O 0.58252 0.63782 0.83023 0.0
C179 C 0.56165 0.67139 0.76107 0.0
O180 O 0.55635 0.60222 0.77305 0.0
O181 O 0.6541 0.76469 0.81123 0.0
C182 C 0.4337 0.43016 0.50951 0.0
O183 O 0.40502 0.4788 0.5157 0.0
O184 O 0.34237 0.2819 0.51838 0.0
Zn185 Zn 0.39151 0.31911 0.53824 0.0
O186 O 0.38275 0.41287 0.56166 0.0
C187 C 0.38352 0.20675 0.57523 0.0
O188 O 0.35158 0.25258 0.57522 0.0
O189 O 0.43404 0.35508 0.51656 0.0
C190 C 0.35135 0.44326 0.56933 0.0
O191 O 0.31672 0.41452 0.56091 0.0
C192 C 0.31627 0.32625 0.50689 0.0
O193 O 0.32032 0.40715 0.50688 0.0
O194 O 0.40852 0.22208 0.55955 0.0
C195 C 0.30862 0.43468 0.20493 0.0
O196 O 0.34051 0.4796 0.20281 0.0
O197 O 0.39786 0.2907 0.20074 0.0
Zn198 Zn 0.35325 0.32784 0.17678 0.0
O199 O 0.36804 0.42641 0.15691 0.0
C200 C 0.36784 0.18963 0.14711 0.0
O201 O 0.40314 0.20299 0.15795 0.0
O202 O 0.30677 0.36272 0.19535 0.0
C203 C 0.39098 0.42789 0.13946 0.0
O204 O 0.40956 0.3602 0.13362 0.0
C205 C 0.43147 0.32579 0.20312 0.0
O206 O 0.43755 0.39336 0.19055 0.0
O207 O 0.33927 0.23492 0.15283 0.0
C208 C 0.24925 0.3335 0.4843 0.0
C209 C 0.28124 0.28608 0.49415 0.0
H210 H 0.19202 0.33332 0.465 0.0
C211 C 0.27934 0.19929 0.49201 0.0
H212 H 0.24972 0.4004 0.48573 0.0
C213 C 0.24635 0.16082 0.48008 0.0
C214 C 0.21438 0.20819 0.47019 0.0
H215 H 0.30348 0.16086 0.49942 0.0
H216 H 0.24597 0.09392 0.47858 0.0
C217 C 0.2161 0.29495 0.47252 0.0
C218 C 0.00063 0.91928 0.49393 0.0
C219 C 0.96499 0.96298 0.49474 0.0
H220 H 0.05918 0.91764 0.48181 0.0
C221 C 0.96159 0.04129 0.48351 0.0
H222 H 0.00426 0.85894 0.50245 0.0
C223 C 0.99312 0.07512 0.47172 0.0
C224 C 0.02875 0.03138 0.4709 0.0
H225 H 0.93456 0.07675 0.48384 0.0
H226 H 0.98948 0.13544 0.4632 0.0
C227 C 0.03216 0.95311 0.48215 0.0
C228 C 0.24212 0.91745 0.72171 0.0
C229 C 0.27611 0.96501 0.71866 0.0
H230 H 0.18534 0.91154 0.7363 0.0
C231 C 0.27807 0.04627 0.72802 0.0
H232 H 0.23963 0.85476 0.71467 0.0
C233 C 0.24687 0.07904 0.74033 0.0
C234 C 0.21307 0.03116 0.74362 0.0
H235 H 0.30377 0.08475 0.7259 0.0
H236 H 0.24946 0.14158 0.74748 0.0
C237 C 0.21097 0.95015 0.73409 0.0
C238 C 0.02408 0.29433 0.74698 0.0
C239 C 0.03037 0.20879 0.74425 0.0
H240 H 0.98655 0.39814 0.73812 0.0
C241 C 0.00239 0.16202 0.72989 0.0
H242 H 0.04505 0.33222 0.75796 0.0
C243 C 0.96886 0.1999 0.71851 0.0
C244 C 0.96252 0.28541 0.72128 0.0
H245 H 0.00631 0.09606 0.72741 0.0
H246 H 0.94788 0.16195 0.70756 0.0
C247 C 0.99051 0.3322 0.73563 0.0
C248 C 0.74728 0.83261 0.48492 0.0
C249 C 0.77935 0.78535 0.49472 0.0
H250 H 0.69015 0.83242 0.46559 0.0
C251 C 0.77784 0.69863 0.49219 0.0
H252 H 0.74751 0.89947 0.48657 0.0
C253 C 0.74477 0.66001 0.48034 0.0
C254 C 0.71267 0.70732 0.47059 0.0
H255 H 0.802 0.66034 0.49964 0.0
H256 H 0.74445 0.59314 0.47877 0.0
C257 C 0.71438 0.79407 0.47291 0.0
C258 C 0.74967 0.07556 0.24291 0.0
C259 C 0.71589 0.02767 0.24623 0.0
H260 H 0.80626 0.08172 0.22807 0.0
C261 C 0.71411 0.94608 0.23713 0.0
H262 H 0.75202 0.13851 0.24975 0.0
C263 C 0.74528 0.9133 0.2248 0.0
C264 C 0.77886 0.96151 0.22122 0.0
H265 H 0.68856 0.90734 0.23947 0.0
H266 H 0.74283 0.8505 0.21785 0.0
C267 C 0.78079 0.04287 0.2305 0.0
C268 C 0.98904 0.83092 0.23595 0.0
C269 C 0.96149 0.78429 0.22121 0.0
H270 H 0.04333 0.83109 0.2585 0.0
C271 C 0.96833 0.69914 0.21804 0.0
H272 H 0.98468 0.89657 0.23876 0.0
C273 C 0.002 0.66149 0.22932 0.0
C274 C 0.02957 0.70815 0.24404 0.0
H275 H 0.9477 0.66135 0.20676 0.0
H276 H 0.00638 0.59585 0.22649 0.0
C277 C 0.02269 0.79327 0.24725 0.0
C278 C 0.27635 0.70155 -0.005 0.0
C279 C 0.28115 0.78797 -0.00633 0.0
H280 H 0.24027 0.59631 -0.0151 0.0
C281 C 0.25165 0.835 0.9808 0.0
H282 H 0.2985 0.66338 0.00478 0.0
C283 C 0.21813 0.79645 0.96949 0.0
C284 C 0.21346 0.70997 0.97071 0.0
H285 H 0.25438 0.90166 0.97948 0.0
H286 H 0.19601 0.83451 0.95963 0.0
C287 C 0.24293 0.66299 -0.01639 0.0
C288 C 0.031 0.44883 0.98013 0.0
C289 C 0.02908 0.52982 0.97065 0.0
H290 H 0.00208 0.35351 -0.00059 0.0
C291 C 0.99513 0.57735 0.97366 0.0
H292 H 0.05671 0.41042 0.9781 0.0
C293 C 0.96376 0.54454 -0.01419 0.0
C294 C 0.96564 0.46349 -0.00474 0.0
H295 H 0.99266 0.63984 0.96652 0.0
H296 H 0.93804 0.58292 -0.01218 0.0
C297 C -0.00037 0.41603 -0.00769 0.0
C298 C 0.24195 0.41968 0.22157 0.0
C299 C 0.27536 0.46842 0.21796 0.0
H300 H 0.1857 0.41222 0.23681 0.0
C301 C 0.27674 0.55022 0.22689 0.0
H302 H 0.23991 0.35654 0.21486 0.0
C303 C 0.24559 0.58235 0.23937 0.0
C304 C 0.21242 0.53327 0.24328 0.0
H305 H 0.30198 0.58961 0.22433 0.0
H306 H 0.24776 0.64533 0.24621 0.0
C307 C 0.21085 0.45173 0.23413 0.0
C308 C 0.71658 0.29569 0.97087 0.0
C309 C 0.71278 0.20888 0.97065 0.0
H310 H 0.75174 0.40067 -0.01744 0.0
C311 C 0.74319 0.16094 0.98224 0.0
H312 H 0.69371 0.33454 0.96209 0.0
C313 C 0.77661 0.19897 -0.00615 0.0
C314 C 0.78025 0.28581 -0.00577 0.0
H315 H 0.74124 0.09399 0.98233 0.0
H316 H 0.79943 0.1602 0.00273 0.0
C317 C 0.74988 0.3337 -0.01741 0.0
C318 C 0.75062 0.57748 0.74253 0.0
C319 C 0.71705 0.52937 0.74622 0.0
H320 H 0.80697 0.58356 0.72736 0.0
C321 C 0.71542 0.44733 0.7375 0.0
H322 H 0.75284 0.64079 0.74908 0.0
C323 C 0.74653 0.4143 0.72516 0.0
C324 C 0.77989 0.46272 0.72119 0.0
H325 H 0.69005 0.40841 0.74013 0.0
H326 H 0.74419 0.35114 0.71849 0.0
C327 C 0.78167 0.54454 0.7301 0.0
C328 C 0.49685 0.08303 0.9756 0.0
C329 C 0.52786 0.03179 0.96911 0.0
H330 H 0.44265 0.09212 -0.00684 0.0
C331 C 0.52739 0.94763 0.97569 0.0
H332 H 0.49626 0.14805 0.97075 0.0
C333 C 0.49659 0.91542 -0.01151 0.0
C334 C 0.46558 0.96668 -0.00501 0.0
H335 H 0.55079 0.90635 0.97093 0.0
H336 H 0.49718 0.85041 -0.00665 0.0
C337 C 0.46604 0.05082 -0.01161 0.0
C338 C 0.45833 0.21188 0.23066 0.0
C339 C 0.4642 0.28705 0.21843 0.0
H340 H 0.484 0.11604 0.25369 0.0
C341 C 0.50197 0.32326 0.2203 0.0
H342 H 0.42962 0.18213 0.22952 0.0
C343 C 0.5332 0.28513 0.23407 0.0
C344 C 0.52733 0.20995 0.24629 0.0
H345 H 0.50753 0.38098 0.21104 0.0
H346 H 0.56191 0.31489 0.2352 0.0
C347 C 0.48956 0.17376 0.24444 0.0
C348 C 0.50183 0.82463 0.72114 0.0
C349 C 0.46458 0.78619 0.71874 0.0
H350 H 0.56174 0.81836 0.73622 0.0
C351 C 0.45963 0.70917 0.73014 0.0
H352 H 0.50667 0.88382 0.71253 0.0
C353 C 0.49125 0.67142 0.74365 0.0
C354 C 0.52851 0.70985 0.74605 0.0
H355 H 0.43135 0.67767 0.72856 0.0
H356 H 0.48641 0.61223 0.75226 0.0
C357 C 0.53345 0.78687 0.73465 0.0
C358 C 0.49751 0.4133 0.48953 0.0
C359 C 0.46591 0.46378 0.49551 0.0
H360 H 0.55213 0.40518 0.47239 0.0
C361 C 0.46575 0.54753 0.48846 0.0
H362 H 0.49859 0.34862 0.49474 0.0
C363 C 0.49651 0.58009 0.4757 0.0
C364 C 0.5281 0.52961 0.4697 0.0
H365 H 0.44188 0.58822 0.49283 0.0
H366 H 0.49542 0.64478 0.47049 0.0
C367 C 0.52827 0.44587 0.47677 0.0
C368 C 0.16848 0.9103 0.34248 0.0
C369 C 0.13972 0.84884 0.34508 0.0
H370 H 0.19299 0.0258 0.35582 0.0
C371 C 0.11528 0.85421 0.36475 0.0
H372 H 0.18782 0.90756 0.32753 0.0
C373 C 0.11833 0.92114 0.38092 0.0
C374 C 0.14579 0.98471 0.37776 0.0
H375 H 0.09313 0.80738 0.36746 0.0
H376 H 0.09833 0.92398 0.39553 0.0
C377 C 0.17144 0.97788 0.35869 0.0
C378 C 0.1455 0.39784 0.36575 0.0
C379 C 0.11222 0.3616 0.37527 0.0
H380 H 0.1677 0.48251 0.34018 0.0
C381 C 0.07436 0.38441 0.36535 0.0
H382 H 0.17513 0.38142 0.37282 0.0
C383 C 0.07002 0.44322 0.34644 0.0
C384 C 0.10349 0.47966 0.33709 0.0
H385 H 0.04815 0.35728 0.37228 0.0
H386 H 0.04055 0.46042 0.33928 0.0
C387 C 0.14121 0.45581 0.34689 0.0
C388 C 0.17185 0.39504 0.84707 0.0
C389 C 0.13749 0.34598 0.84522 0.0
H390 H 0.20218 0.49777 0.86501 0.0
C391 C 0.10793 0.36082 0.86144 0.0
H392 H 0.19521 0.38476 0.83488 0.0
C393 C 0.11192 0.4248 0.87859 0.0
C394 C 0.14558 0.47577 0.87999 0.0
H395 H 0.08123 0.32374 0.86071 0.0
H396 H 0.08814 0.4351 0.89048 0.0
C397 C 0.17588 0.45949 0.86435 0.0
C398 C 0.07249 0.88773 0.86622 0.0
C399 C 0.10945 0.85022 0.87177 0.0
H400 H 0.03965 0.97876 0.84458 0.0
C401 C 0.14168 0.87448 0.85867 0.0
H402 H 0.04707 0.87001 0.87595 0.0
C403 C 0.13744 0.93589 0.84081 0.0
C404 C 0.10085 0.97499 0.83555 0.0
H405 H 0.17051 0.84652 0.86231 0.0
H406 H 0.16318 0.95339 0.83133 0.0
C407 C 0.06822 0.94973 0.84822 0.0
C408 C 0.82469 0.08128 0.6232 0.0
C409 C 0.85278 0.14387 0.62028 0.0
H410 H 0.80103 0.96465 0.61021 0.0
C411 C 0.87677 0.13935 0.60037 0.0
H412 H 0.80571 0.08335 0.63835 0.0
C413 C 0.87398 0.07218 0.58428 0.0
C414 C 0.84726 0.00749 0.58777 0.0
H415 H 0.89839 0.18707 0.59741 0.0
H416 H 0.89366 0.07005 0.56949 0.0
C417 C 0.82202 0.01343 0.60709 0.0
C418 C 0.85159 0.53495 0.61735 0.0
C419 C 0.88921 0.51285 0.62775 0.0
H420 H 0.81792 0.60787 0.59091 0.0
C421 C 0.92274 0.55068 0.61891 0.0
H422 H 0.82507 0.50708 0.62364 0.0
C423 C 0.91856 0.60933 0.59994 0.0
C424 C 0.88081 0.63056 0.58947 0.0
H425 H 0.95213 0.53483 0.62654 0.0
H426 H 0.94481 0.63767 0.59343 0.0
C427 C 0.84747 0.59275 0.59844 0.0
C428 C 0.81812 0.52583 0.10279 0.0
C429 C 0.84716 0.51337 0.086 0.0
H430 H 0.79936 0.59867 0.13283 0.0
C431 C 0.87886 0.56935 0.08583 0.0
H432 H 0.79333 0.48371 0.10335 0.0
C433 C 0.88233 0.63442 0.10263 0.0
C434 C 0.85419 0.64542 0.12003 0.0
H435 H 0.90159 0.56208 0.07302 0.0
H436 H 0.90759 0.67538 0.10218 0.0
C437 C 0.82161 0.59144 0.1197 0.0
C438 C 0.92369 0.04556 0.11785 0.0
C439 C 0.89026 0.01522 0.12879 0.0
H440 H 0.94572 0.12816 0.09115 0.0
C441 C 0.85289 0.04731 0.12118 0.0
H442 H 0.95288 0.02197 0.1233 0.0
C443 C 0.84882 0.10714 0.10284 0.0
C444 C 0.882 0.13692 0.09162 0.0
H445 H 0.82647 0.02564 0.12921 0.0
H446 H 0.81944 0.12982 0.09744 0.0
C447 C 0.91959 0.1061 0.09941 0.0
C448 C 0.66828 0.89088 0.8483 0.0
C449 C 0.63077 0.87226 0.8369 0.0
H450 H 0.7015 0.96244 0.87592 0.0
C451 C 0.59748 0.91264 0.84503 0.0
H452 H 0.69448 0.86058 0.84245 0.0
C453 C 0.60142 0.96988 0.86418 0.0
C454 C 0.6388 0.98883 0.87565 0.0
H455 H 0.56811 0.89966 0.83675 0.0
H456 H 0.57497 -0.00041 0.8699 0.0
C457 C 0.67229 0.94898 0.86748 0.0
C458 C 0.57821 0.42291 0.87569 0.0
C459 C 0.60425 0.3575 0.87169 0.0
H460 H 0.55707 0.54258 0.86393 0.0
C461 C 0.62702 0.36026 0.85119 0.0
H462 H 0.56025 0.4222 0.89134 0.0
C463 C 0.62502 0.42826 0.8355 0.0
C464 C 0.60043 0.49563 0.84004 0.0
H465 H 0.64703 0.31035 0.84743 0.0
H466 H 0.64371 0.42884 0.82019 0.0
C467 C 0.57644 0.49173 0.86003 0.0
C468 C 0.59661 0.4098 0.34548 0.0
C469 C 0.62984 0.3701 0.33703 0.0
H470 H 0.57435 0.49638 0.37055 0.0
C471 C 0.66751 0.38948 0.34808 0.0
H472 H 0.56714 0.39617 0.33748 0.0
C473 C 0.67171 0.44776 0.3672 0.0
C474 C 0.63829 0.48697 0.37568 0.0
H475 H 0.69367 0.35971 0.34197 0.0
H476 H 0.70104 0.46186 0.37535 0.0
C477 C 0.60075 0.46718 0.36459 0.0
C478 C 0.57783 0.92097 0.3761 0.0
C479 C 0.6037 0.8554 0.37195 0.0
H480 H 0.55677 0.04083 0.36448 0.0
C481 C 0.6262 0.85803 0.35132 0.0
H482 H 0.56009 0.92036 0.39185 0.0
C483 C 0.6241 0.92606 0.33564 0.0
C484 C 0.59971 0.9936 0.34034 0.0
H485 H 0.64607 0.80798 0.34746 0.0
H486 H 0.64259 0.92655 0.32023 0.0
C487 C 0.57599 0.98984 0.36045 0.0
C488 C 0.39598 0.08589 0.11947 0.0
C489 C 0.36269 0.12711 0.12728 0.0
H490 H 0.41863 -0.00147 0.09478 0.0
C491 C 0.32533 0.10963 0.11548 0.0
H492 H 0.42523 0.09798 0.12807 0.0
C493 C 0.32148 0.05182 0.09621 0.0
C494 C 0.35496 0.01111 0.08837 0.0
H495 H 0.29914 0.14061 0.12107 0.0
H496 H 0.29239 0.03925 0.08746 0.0
C497 C 0.39219 0.02892 0.10024 0.0
C498 C 0.36964 0.57213 0.12942 0.0
C499 C 0.3932 0.50356 0.12442 0.0
H500 H 0.34869 0.69134 0.11795 0.0
C501 C 0.41659 0.50662 0.10413 0.0
H502 H 0.35146 0.57222 0.14498 0.0
C503 C 0.41515 0.57577 0.0886 0.0
C504 C 0.39004 0.64238 0.09305 0.0
H505 H 0.43518 0.45484 0.09987 0.0
H506 H 0.43256 0.57578 0.0727 0.0
C507 C 0.36796 0.64049 0.11387 0.0
C508 C 0.32511 0.60331 0.61667 0.0
C509 C 0.36269 0.62339 0.6277 0.0
H510 H 0.29186 0.53023 0.58944 0.0
C511 C 0.39608 0.58428 0.61926 0.0
H512 H 0.29883 0.63262 0.62277 0.0
C513 C 0.39217 0.52676 0.60018 0.0
C514 C 0.35471 0.50624 0.58911 0.0
H515 H 0.42551 0.59845 0.62725 0.0
H516 H 0.41869 0.49802 0.59423 0.0
C517 C 0.32113 0.54489 0.59758 0.0
C518 C 0.36519 0.13414 0.61292 0.0
C519 C 0.38883 0.13768 0.59283 0.0
H520 H 0.34789 0.06524 0.6437 0.0
C521 C 0.4157 0.07335 0.58935 0.0
H522 H 0.34451 0.18323 0.61627 0.0
C523 C 0.4175 0.0048 0.60512 0.0
C524 C 0.39272 0.00014 0.6247 0.0
H525 H 0.43434 0.07467 0.57403 0.0
H526 H 0.43758 0.95478 0.60163 0.0
C527 C 0.36722 0.06644 0.62872 0.0
loop_
_geom_bond_atom_site_label_1
_geom_bond_atom_site_label_2
_geom_bond_distance
_geom_bond_site_symmetry_2
_ccdc_geom_bond_type
C0 O1 1.160 . S
C0 O7 1.185 . S
O1 C0 1.160 . S
O2 Zn3 1.899 . S
O2 C10 1.284 . S
Zn3 O2 1.899 . S
Zn3 O4 2.032 . S
Zn3 O7 2.086 . S
Zn3 O12 1.977 . S
O4 Zn3 2.032 . S
O4 C8 1.278 . S
C5 O6 1.203 . S
C5 O12 1.267 . S
O6 C5 1.203 . S
O7 C0 1.185 . S
O7 Zn3 2.086 . S
C8 O4 1.278 . S
C8 O9 1.211 . S
O9 C8 1.211 . S
C10 O2 1.284 . S
C10 O11 1.273 . S
O11 C10 1.273 . S
O12 Zn3 1.977 . S
O12 C5 1.267 . S
C13 O14 1.160 . S
C13 O20 1.185 . S
O14 C13 1.160 . S
O15 Zn16 1.899 . S
O15 C23 1.284 . S
Zn16 O15 1.899 . S
Zn16 O17 2.032 . S
Zn16 O20 2.086 . S
Zn16 O25 1.977 . S
O17 Zn16 2.032 . S
O17 C21 1.278 . S
C18 O19 1.203 . S
C18 O25 1.267 . S
O19 C18 1.203 . S
O20 C13 1.185 . S
O20 Zn16 2.086 . S
C21 O17 1.278 . S
C21 O22 1.211 . S
O22 C21 1.211 . S
C23 O15 1.284 . S
C23 O24 1.273 . S
O24 C23 1.273 . S
O25 Zn16 1.977 . S
O25 C18 1.267 . S
C26 O27 1.160 . S
C26 O33 1.185 . S
O27 C26 1.160 . S
O28 Zn29 1.899 . S
O28 C36 1.284 . S
Zn29 O28 1.899 . S
Zn29 O30 2.032 . S
Zn29 O33 2.086 . S
Zn29 O38 1.977 . S
O30 Zn29 2.032 . S
O30 C34 1.278 . S
C31 O32 1.203 . S
C31 O38 1.267 . S
O32 C31 1.203 . S
O33 C26 1.185 . S
O33 Zn29 2.086 . S
C34 O30 1.278 . S
C34 O35 1.211 . S
O35 C34 1.211 . S
C36 O28 1.284 . S
C36 O37 1.273 . S
O37 C36 1.273 . S
O38 Zn29 1.977 . S
O38 C31 1.267 . S
C39 O40 1.160 . S
C39 O46 1.185 . S
O40 C39 1.160 . S
O41 Zn42 1.899 . S
O41 C49 1.284 . S
Zn42 O41 1.899 . S
Zn42 O43 2.032 . S
Zn42 O46 2.086 . S
Zn42 O51 1.977 . S
O43 Zn42 2.032 . S
O43 C47 1.278 . S
C44 O45 1.203 . S
C44 O51 1.267 . S
O45 C44 1.203 . S
O46 C39 1.185 . S
O46 Zn42 2.086 . S
C47 O43 1.278 . S
C47 O48 1.211 . S
O48 C47 1.211 . S
C49 O41 1.284 . S
C49 O50 1.273 . S
O50 C49 1.273 . S
O51 Zn42 1.977 . S
O51 C44 1.267 . S
C52 O53 1.160 . S
C52 O59 1.185 . S
O53 C52 1.160 . S
O54 Zn55 1.899 . S
O54 C62 1.284 . S
Zn55 O54 1.899 . S
Zn55 O56 2.032 . S
Zn55 O59 2.086 . S
Zn55 O64 1.977 . S
O56 Zn55 2.032 . S
O56 C60 1.278 . S
C57 O58 1.203 . S
C57 O64 1.267 . S
O58 C57 1.203 . S
O59 C52 1.185 . S
O59 Zn55 2.086 . S
C60 O56 1.278 . S
C60 O61 1.211 . S
O61 C60 1.211 . S
C62 O54 1.284 . S
C62 O63 1.273 . S
O63 C62 1.273 . S
O64 Zn55 1.977 . S
O64 C57 1.267 . S
C65 O66 1.160 . S
C65 O72 1.185 . S
O66 C65 1.160 . S
O67 Zn68 1.899 . S
O67 C75 1.284 . S
Zn68 O67 1.899 . S
Zn68 O69 2.032 . S
Zn68 O72 2.086 . S
Zn68 O77 1.977 . S
O69 Zn68 2.032 . S
O69 C73 1.278 . S
C70 O71 1.203 . S
C70 O77 1.267 . S
O71 C70 1.203 . S
O72 C65 1.185 . S
O72 Zn68 2.086 . S
C73 O69 1.278 . S
C73 O74 1.211 . S
O74 C73 1.211 . S
C75 O67 1.284 . S
C75 O76 1.273 . S
O76 C75 1.273 . S
O77 Zn68 1.977 . S
O77 C70 1.267 . S
C78 O79 1.160 . S
C78 O85 1.185 . S
O79 C78 1.160 . S
O80 Zn81 1.899 . S
O80 C88 1.284 . S
Zn81 O80 1.899 . S
Zn81 O82 2.032 . S
Zn81 O85 2.086 . S
Zn81 O90 1.977 . S
O82 Zn81 2.032 . S
O82 C86 1.278 . S
C83 O84 1.203 . S
C83 O90 1.267 . S
O84 C83 1.203 . S
O85 C78 1.185 . S
O85 Zn81 2.086 . S
C86 O82 1.278 . S
C86 O87 1.211 . S
O87 C86 1.211 . S
C88 O80 1.284 . S
C88 O89 1.273 . S
O89 C88 1.273 . S
O90 Zn81 1.977 . S
O90 C83 1.267 . S
C91 O92 1.160 . S
C91 O98 1.185 . S
O92 C91 1.160 . S
O93 Zn94 1.899 . S
O93 C101 1.284 . S
Zn94 O93 1.899 . S
Zn94 O95 2.032 . S
Zn94 O98 2.086 . S
Zn94 O103 1.977 . S
O95 Zn94 2.032 . S
O95 C99 1.278 . S
C96 O97 1.203 . S
C96 O103 1.267 . S
O97 C96 1.203 . S
O98 C91 1.185 . S
O98 Zn94 2.086 . S
C99 O95 1.278 . S
C99 O100 1.211 . S
O100 C99 1.211 . S
C101 O93 1.284 . S
C101 O102 1.273 . S
O102 C101 1.273 . S
O103 Zn94 1.977 . S
O103 C96 1.267 . S
C104 O105 1.160 . S
C104 O111 1.185 . S
O105 C104 1.160 . S
O106 Zn107 1.899 . S
O106 C114 1.284 . S
Zn107 O106 1.899 . S
Zn107 O108 2.032 . S
Zn107 O111 2.086 . S
Zn107 O116 1.977 . S
O108 Zn107 2.032 . S
O108 C112 1.278 . S
C109 O110 1.203 . S
C109 O116 1.267 . S
O110 C109 1.203 . S
O111 C104 1.185 . S
O111 Zn107 2.086 . S
C112 O108 1.278 . S
C112 O113 1.211 . S
O113 C112 1.211 . S
C114 O106 1.284 . S
C114 O115 1.273 . S
O115 C114 1.273 . S
O116 Zn107 1.977 . S
O116 C109 1.267 . S
C117 O118 1.160 . S
C117 O124 1.185 . S
O118 C117 1.160 . S
O119 Zn120 1.899 . S
O119 C127 1.284 . S
Zn120 O119 1.899 . S
Zn120 O121 2.032 . S
Zn120 O124 2.086 . S
Zn120 O129 1.977 . S
O121 Zn120 2.032 . S
O121 C125 1.278 . S
C122 O123 1.203 . S
C122 O129 1.267 . S
O123 C122 1.203 . S
O124 C117 1.185 . S
O124 Zn120 2.086 . S
C125 O121 1.278 . S
C125 O126 1.211 . S
O126 C125 1.211 . S
C127 O119 1.284 . S
C127 O128 1.273 . S
O128 C127 1.273 . S
O129 Zn120 1.977 . S
O129 C122 1.267 . S
C130 O131 1.160 . S
C130 O137 1.185 . S
O131 C130 1.160 . S
O132 Zn133 1.899 . S
O132 C140 1.284 . S
Zn133 O132 1.899 . S
Zn133 O134 2.032 . S
Zn133 O137 2.086 . S
Zn133 O142 1.977 . S
O134 Zn133 2.032 . S
O134 C138 1.278 . S
C135 O136 1.203 . S
C135 O142 1.267 . S
O136 C135 1.203 . S
O137 C130 1.185 . S
O137 Zn133 2.086 . S
C138 O134 1.278 . S
C138 O139 1.211 . S
O139 C138 1.211 . S
C140 O132 1.284 . S
C140 O141 1.273 . S
O141 C140 1.273 . S
O142 Zn133 1.977 . S
O142 C135 1.267 . S
C143 O144 1.160 . S
C143 O150 1.185 . S
O144 C143 1.160 . S
O145 Zn146 1.899 . S
O145 C153 1.284 . S
Zn146 O145 1.899 . S
Zn146 O147 2.032 . S
Zn146 O150 2.086 . S
Zn146 O155 1.977 . S
O147 Zn146 2.032 . S
O147 C151 1.278 . S
C148 O149 1.203 . S
C148 O155 1.267 . S
O149 C148 1.203 . S
O150 C143 1.185 . S
O150 Zn146 2.086 . S
C151 O147 1.278 . S
C151 O152 1.211 . S
O152 C151 1.211 . S
C153 O145 1.284 . S
C153 O154 1.273 . S
O154 C153 1.273 . S
O155 Zn146 1.977 . S
O155 C148 1.267 . S
C156 O157 1.160 . S
C156 O163 1.185 . S
O157 C156 1.160 . S
O158 Zn159 1.899 . S
O158 C166 1.284 . S
Zn159 O158 1.899 . S
Zn159 O160 2.032 . S
Zn159 O163 2.086 . S
Zn159 O168 1.977 . S
O160 Zn159 2.032 . S
O160 C164 1.278 . S
C161 O162 1.203 . S
C161 O168 1.267 . S
O162 C161 1.203 . S
O163 C156 1.185 . S
O163 Zn159 2.086 . S
C164 O160 1.278 . S
C164 O165 1.211 . S
O165 C164 1.211 . S
C166 O158 1.284 . S
C166 O167 1.273 . S
O167 C166 1.273 . S
O168 Zn159 1.977 . S
O168 C161 1.267 . S
C169 O170 1.160 . S
C169 O176 1.185 . S
O170 C169 1.160 . S
O171 Zn172 1.899 . S
O171 C179 1.284 . S
Zn172 O171 1.899 . S
Zn172 O173 2.032 . S
Zn172 O176 2.086 . S
Zn172 O181 1.977 . S
O173 Zn172 2.032 . S
O173 C177 1.278 . S
C174 O175 1.203 . S
C174 O181 1.267 . S
O175 C174 1.203 . S
O176 C169 1.185 . S
O176 Zn172 2.086 . S
C177 O173 1.278 . S
C177 O178 1.211 . S
O178 C177 1.211 . S
C179 O171 1.284 . S
C179 O180 1.273 . S
O180 C179 1.273 . S
O181 Zn172 1.977 . S
O181 C174 1.267 . S
C182 O183 1.160 . S
C182 O189 1.185 . S
O183 C182 1.160 . S
O184 Zn185 1.899 . S
O184 C192 1.284 . S
Zn185 O184 1.899 . S
Zn185 O186 2.032 . S
Zn185 O189 2.086 . S
Zn185 O194 1.977 . S
O186 Zn185 2.032 . S
O186 C190 1.278 . S
C187 O188 1.203 . S
C187 O194 1.267 . S
O188 C187 1.203 . S
O189 C182 1.185 . S
O189 Zn185 2.086 . S
C190 O186 1.278 . S
C190 O191 1.211 . S
O191 C190 1.211 . S
C192 O184 1.284 . S
C192 O193 1.273 . S
O193 C192 1.273 . S
O194 Zn185 1.977 . S
O194 C187 1.267 . S
C195 O196 1.160 . S
C195 O202 1.185 . S
O196 C195 1.160 . S
O197 Zn198 1.899 . S
O197 C205 1.284 . S
Zn198 O197 1.899 . S
Zn198 O199 2.032 . S
Zn198 O202 2.086 . S
Zn198 O207 1.977 . S
O199 Zn198 2.032 . S
O199 C203 1.278 . S
C200 O201 1.203 . S
C200 O207 1.267 . S
O201 C200 1.203 . S
O202 C195 1.185 . S
O202 Zn198 2.086 . S
C203 O199 1.278 . S
C203 O204 1.211 . S
O204 C203 1.211 . S
C205 O197 1.284 . S
C205 O206 1.273 . S
O206 C205 1.273 . S
O207 Zn198 1.977 . S
O207 C200 1.267 . S
C208 C209 1.387 . S
C208 H212 0.950 . S
C208 C217 1.390 . S
C209 C208 1.387 . S
C209 C211 1.387 . S
H210 C217 0.950 . S
C211 C209 1.387 . S
C211 C213 1.390 . S
C211 H215 0.950 . S
H212 C208 0.950 . S
C213 C211 1.390 . S
C213 C214 1.387 . S
C213 H216 0.950 . S
C214 C213 1.387 . S
C214 C217 1.387 . S
H215 C211 0.950 . S
H216 C213 0.950 . S
C217 C208 1.390 . S
C217 H210 0.950 . S
C217 C214 1.387 . S
C218 C219 1.383 1_445 S
C218 H222 0.950 . S
C218 C227 1.395 . S
C219 C218 1.383 1_665 S
C219 C221 1.387 . S
H220 C227 0.950 . S
C221 C219 1.387 . S
C221 C223 1.395 . S
C221 H225 0.950 . S
H222 C218 0.950 . S
C223 C221 1.395 . S
C223 C224 1.383 1_665 S
C223 H226 0.950 . S
C224 C223 1.383 1_445 S
C224 C227 1.387 . S
H225 C221 0.950 . S
H226 C223 0.950 . S
C227 C218 1.395 . S
C227 H220 0.950 . S
C227 C224 1.387 . S
C228 C229 1.387 . S
C228 H232 0.950 . S
C228 C237 1.390 . S
C229 C228 1.387 . S
C229 C231 1.387 1_565 S
H230 C237 0.950 . S
C231 C229 1.387 1_545 S
C231 C233 1.390 . S
C231 H235 0.950 . S
H232 C228 0.950 . S
C233 C231 1.390 . S
C233 C234 1.387 . S
C233 H236 0.950 . S
C234 C233 1.387 . S
C234 C237 1.387 1_545 S
H235 C231 0.950 . S
H236 C233 0.950 . S
C237 C228 1.390 . S
C237 H230 0.950 . S
C237 C234 1.387 1_565 S
C238 C239 1.387 . S
C238 H242 0.950 . S
C238 C247 1.390 1_455 S
C239 C238 1.387 . S
C239 C241 1.387 . S
H240 C247 0.950 . S
C241 C239 1.387 . S
C241 C243 1.390 1_455 S
C241 H245 0.950 . S
H242 C238 0.950 . S
C243 C241 1.390 1_655 S
C243 C244 1.387 . S
C243 H246 0.950 . S
C244 C243 1.387 . S
C244 C247 1.387 . S
H245 C241 0.950 . S
H246 C243 0.950 . S
C247 C238 1.390 1_655 S
C247 H240 0.950 . S
C247 C244 1.387 . S
C248 C249 1.387 . S
C248 H252 0.950 . S
C248 C257 1.390 . S
C249 C248 1.387 . S
C249 C251 1.387 . S
H250 C257 0.950 . S
C251 C249 1.387 . S
C251 C253 1.390 . S
C251 H255 0.950 . S
H252 C248 0.950 . S
C253 C251 1.390 . S
C253 C254 1.387 . S
C253 H256 0.950 . S
C254 C253 1.387 . S
C254 C257 1.387 . S
H255 C251 0.950 . S
H256 C253 0.950 . S
C257 C248 1.390 . S
C257 H250 0.950 . S
C257 C254 1.387 . S
C258 C259 1.387 . S
C258 H262 0.950 . S
C258 C267 1.390 . S
C259 C258 1.387 . S
C259 C261 1.387 1_545 S
H260 C267 0.950 . S
C261 C259 1.387 1_565 S
C261 C263 1.390 . S
C261 H265 0.950 . S
H262 C258 0.950 . S
C263 C261 1.390 . S
C263 C264 1.387 . S
C263 H266 0.950 . S
C264 C263 1.387 . S
C264 C267 1.387 1_565 S
H265 C261 0.950 . S
H266 C263 0.950 . S
C267 C258 1.390 . S
C267 H260 0.950 . S
C267 C264 1.387 1_545 S
C268 C269 1.387 . S
C268 H272 0.950 . S
C268 C277 1.390 1_655 S
C269 C268 1.387 . S
C269 C271 1.387 . S
H270 C277 0.950 . S
C271 C269 1.387 . S
C271 C273 1.390 1_655 S
C271 H275 0.950 . S
H272 C268 0.950 . S
C273 C271 1.390 1_455 S
C273 C274 1.387 . S
C273 H276 0.950 . S
C274 C273 1.387 . S
C274 C277 1.387 . S
H275 C271 0.950 . S
H276 C273 0.950 . S
C277 C268 1.390 1_455 S
C277 H270 0.950 . S
C277 C274 1.387 . S
C278 C279 1.387 . S
C278 H282 0.950 . S
C278 C287 1.390 . S
C279 C278 1.387 . S
C279 C281 1.387 1_554 S
H280 C287 0.950 . S
C281 C279 1.387 1_556 S
C281 C283 1.390 . S
C281 H285 0.950 . S
H282 C278 0.950 . S
C283 C281 1.390 . S
C283 C284 1.387 . S
C283 H286 0.950 . S
C284 C283 1.387 . S
C284 C287 1.387 1_556 S
H285 C281 0.950 . S
H286 C283 0.950 . S
C287 C278 1.390 . S
C287 H280 0.950 . S
C287 C284 1.387 1_554 S
C288 C289 1.387 1_554 S
C288 H292 0.950 . S
C288 C297 1.390 . S
C289 C288 1.387 1_556 S
C289 C291 1.387 1_455 S
H290 C297 0.950 . S
C291 C289 1.387 1_655 S
C291 C293 1.390 . S
C291 H295 0.950 . S
H292 C288 0.950 . S
C293 C291 1.390 . S
C293 C294 1.387 1_556 S
C293 H296 0.950 . S
C294 C293 1.387 1_554 S
C294 C297 1.387 1_655 S
H295 C291 0.950 . S
H296 C293 0.950 . S
C297 C288 1.390 . S
C297 H290 0.950 . S
C297 C294 1.387 1_455 S
C298 C299 1.387 . S
C298 H302 0.950 . S
C298 C307 1.390 . S
C299 C298 1.387 . S
C299 C301 1.387 . S
H300 C307 0.950 . S
C301 C299 1.387 . S
C301 C303 1.390 . S
C301 H305 0.950 . S
H302 C298 0.950 . S
C303 C301 1.390 . S
C303 C304 1.387 . S
C303 H306 0.950 . S
C304 C303 1.387 . S
C304 C307 1.387 . S
H305 C301 0.950 . S
H306 C303 0.950 . S
C307 C298 1.390 . S
C307 H300 0.950 . S
C307 C304 1.387 . S
C308 C309 1.387 . S
C308 H312 0.950 . S
C308 C317 1.390 1_556 S
C309 C308 1.387 . S
C309 C311 1.387 . S
H310 C317 0.950 . S
C311 C309 1.387 . S
C311 C313 1.390 1_556 S
C311 H315 0.950 . S
H312 C308 0.950 . S
C313 C311 1.390 1_554 S
C313 C314 1.387 . S
C313 H316 0.950 . S
C314 C313 1.387 . S
C314 C317 1.387 . S
H315 C311 0.950 . S
H316 C313 0.950 . S
C317 C308 1.390 1_554 S
C317 H310 0.950 . S
C317 C314 1.387 . S
C318 C319 1.387 . S
C318 H322 0.950 . S
C318 C327 1.390 . S
C319 C318 1.387 . S
C319 C321 1.387 . S
H320 C327 0.950 . S
C321 C319 1.387 . S
C321 C323 1.390 . S
C321 H325 0.950 . S
H322 C318 0.950 . S
C323 C321 1.390 . S
C323 C324 1.387 . S
C323 H326 0.950 . S
C324 C323 1.387 . S
C324 C327 1.387 . S
H325 C321 0.950 . S
H326 C323 0.950 . S
C327 C318 1.390 . S
C327 H320 0.950 . S
C327 C324 1.387 . S
C328 C329 1.387 . S
C328 H332 0.950 . S
C328 C337 1.390 1_556 S
C329 C328 1.387 . S
C329 C331 1.387 1_545 S
H330 C337 0.950 . S
C331 C329 1.387 1_565 S
C331 C333 1.390 1_556 S
C331 H335 0.950 . S
H332 C328 0.950 . S
C333 C331 1.390 1_554 S
C333 C334 1.387 . S
C333 H336 0.950 . S
C334 C333 1.387 . S
C334 C337 1.387 1_565 S
H335 C331 0.950 . S
H336 C333 0.950 . S
C337 C328 1.390 1_554 S
C337 H330 0.950 . S
C337 C334 1.387 1_545 S
C338 C339 1.387 . S
C338 H342 0.950 . S
C338 C347 1.390 . S
C339 C338 1.387 . S
C339 C341 1.387 . S
H340 C347 0.950 . S
C341 C339 1.387 . S
C341 C343 1.390 . S
C341 H345 0.950 . S
H342 C338 0.950 . S
C343 C341 1.390 . S
C343 C344 1.387 . S
C343 H346 0.950 . S
C344 C343 1.387 . S
C344 C347 1.387 . S
H345 C341 0.950 . S
H346 C343 0.950 . S
C347 C338 1.390 . S
C347 H340 0.950 . S
C347 C344 1.387 . S
C348 C349 1.387 . S
C348 H352 0.950 . S
C348 C357 1.390 . S
C349 C348 1.387 . S
C349 C351 1.387 . S
H350 C357 0.950 . S
C351 C349 1.387 . S
C351 C353 1.390 . S
C351 H355 0.950 . S
H352 C348 0.950 . S
C353 C351 1.390 . S
C353 C354 1.387 . S
C353 H356 0.950 . S
C354 C353 1.387 . S
C354 C357 1.387 . S
H355 C351 0.950 . S
H356 C353 0.950 . S
C357 C348 1.390 . S
C357 H350 0.950 . S
C357 C354 1.387 . S
C358 C359 1.387 . S
C358 H362 0.950 . S
C358 C367 1.390 . S
C359 C358 1.387 . S
C359 C361 1.387 . S
H360 C367 0.950 . S
C361 C359 1.387 . S
C361 C363 1.390 . S
C361 H365 0.950 . S
H362 C358 0.950 . S
C363 C361 1.390 . S
C363 C364 1.387 . S
C363 H366 0.950 . S
C364 C363 1.387 . S
C364 C367 1.387 . S
H365 C361 0.950 . S
H366 C363 0.950 . S
C367 C358 1.390 . S
C367 H360 0.950 . S
C367 C364 1.387 . S
C368 C369 1.387 . S
C368 H372 0.950 . S
C368 C377 1.390 . S
C369 C368 1.387 . S
C369 C371 1.387 . S
H370 C377 0.950 . S
C371 C369 1.387 . S
C371 C373 1.390 . S
C371 H375 0.950 . S
H372 C368 0.950 . S
C373 C371 1.390 . S
C373 C374 1.387 . S
C373 H376 0.950 . S
C374 C373 1.387 . S
C374 C377 1.387 . S
H375 C371 0.950 . S
H376 C373 0.950 . S
C377 C368 1.390 . S
C377 H370 0.950 . S
C377 C374 1.387 . S
C378 C379 1.387 . S
C378 H382 0.950 . S
C378 C387 1.390 . S
C379 C378 1.387 . S
C379 C381 1.387 . S
H380 C387 0.950 . S
C381 C379 1.387 . S
C381 C383 1.390 . S
C381 H385 0.950 . S
H382 C378 0.950 . S
C383 C381 1.390 . S
C383 C384 1.387 . S
C383 H386 0.950 . S
C384 C383 1.387 . S
C384 C387 1.387 . S
H385 C381 0.950 . S
H386 C383 0.950 . S
C387 C378 1.390 . S
C387 H380 0.950 . S
C387 C384 1.387 . S
C388 C389 1.387 . S
C388 H392 0.950 . S
C388 C397 1.390 . S
C389 C388 1.387 . S
C389 C391 1.387 . S
H390 C397 0.950 . S
C391 C389 1.387 . S
C391 C393 1.390 . S
C391 H395 0.950 . S
H392 C388 0.950 . S
C393 C391 1.390 . S
C393 C394 1.387 . S
C393 H396 0.950 . S
C394 C393 1.387 . S
C394 C397 1.387 . S
H395 C391 0.950 . S
H396 C393 0.950 . S
C397 C388 1.390 . S
C397 H390 0.950 . S
C397 C394 1.387 . S
C398 C399 1.387 . S
C398 H402 0.950 . S
C398 C407 1.390 . S
C399 C398 1.387 . S
C399 C401 1.387 . S
H400 C407 0.950 . S
C401 C399 1.387 . S
C401 C403 1.390 . S
C401 H405 0.950 . S
H402 C398 0.950 . S
C403 C401 1.390 . S
C403 C404 1.387 . S
C403 H406 0.950 . S
C404 C403 1.387 . S
C404 C407 1.387 . S
H405 C401 0.950 . S
H406 C403 0.950 . S
C407 C398 1.390 . S
C407 H400 0.950 . S
C407 C404 1.387 . S
C408 C409 1.387 . S
C408 H412 0.950 . S
C408 C417 1.390 . S
C409 C408 1.387 . S
C409 C411 1.387 . S
H410 C417 0.950 . S
C411 C409 1.387 . S
C411 C413 1.390 . S
C411 H415 0.950 . S
H412 C408 0.950 . S
C413 C411 1.390 . S
C413 C414 1.387 . S
C413 H416 0.950 . S
C414 C413 1.387 . S
C414 C417 1.387 . S
H415 C411 0.950 . S
H416 C413 0.950 . S
C417 C408 1.390 . S
C417 H410 0.950 . S
C417 C414 1.387 . S
C418 C419 1.387 . S
C418 H422 0.950 . S
C418 C427 1.390 . S
C419 C418 1.387 . S
C419 C421 1.387 . S
H420 C427 0.950 . S
C421 C419 1.387 . S
C421 C423 1.390 . S
C421 H425 0.950 . S
H422 C418 0.950 . S
C423 C421 1.390 . S
C423 C424 1.387 . S
C423 H426 0.950 . S
C424 C423 1.387 . S
C424 C427 1.387 . S
H425 C421 0.950 . S
H426 C423 0.950 . S
C427 C418 1.390 . S
C427 H420 0.950 . S
C427 C424 1.387 . S
C428 C429 1.387 . S
C428 H432 0.950 . S
C428 C437 1.390 . S
C429 C428 1.387 . S
C429 C431 1.387 . S
H430 C437 0.950 . S
C431 C429 1.387 . S
C431 C433 1.390 . S
C431 H435 0.950 . S
H432 C428 0.950 . S
C433 C431 1.390 . S
C433 C434 1.387 . S
C433 H436 0.950 . S
C434 C433 1.387 . S
C434 C437 1.387 . S
H435 C431 0.950 . S
H436 C433 0.950 . S
C437 C428 1.390 . S
C437 H430 0.950 . S
C437 C434 1.387 . S
C438 C439 1.387 . S
C438 H442 0.950 . S
C438 C447 1.390 . S
C439 C438 1.387 . S
C439 C441 1.387 . S
H440 C447 0.950 . S
C441 C439 1.387 . S
C441 C443 1.390 . S
C441 H445 0.950 . S
H442 C438 0.950 . S
C443 C441 1.390 . S
C443 C444 1.387 . S
C443 H446 0.950 . S
C444 C443 1.387 . S
C444 C447 1.387 . S
H445 C441 0.950 . S
H446 C443 0.950 . S
C447 C438 1.390 . S
C447 H440 0.950 . S
C447 C444 1.387 . S
C448 C449 1.387 . S
C448 H452 0.950 . S
C448 C457 1.390 . S
C449 C448 1.387 . S
C449 C451 1.387 . S
H450 C457 0.950 . S
C451 C449 1.387 . S
C451 C453 1.390 . S
C451 H455 0.950 . S
H452 C448 0.950 . S
C453 C451 1.390 . S
C453 C454 1.387 . S
C453 H456 0.950 . S
C454 C453 1.387 . S
C454 C457 1.387 . S
H455 C451 0.950 . S
H456 C453 0.950 . S
C457 C448 1.390 . S
C457 H450 0.950 . S
C457 C454 1.387 . S
C458 C459 1.387 . S
C458 H462 0.950 . S
C458 C467 1.390 . S
C459 C458 1.387 . S
C459 C461 1.387 . S
H460 C467 0.950 . S
C461 C459 1.387 . S
C461 C463 1.390 . S
C461 H465 0.950 . S
H462 C458 0.950 . S
C463 C461 1.390 . S
C463 C464 1.387 . S
C463 H466 0.950 . S
C464 C463 1.387 . S
C464 C467 1.387 . S
H465 C461 0.950 . S
H466 C463 0.950 . S
C467 C458 1.390 . S
C467 H460 0.950 . S
C467 C464 1.387 . S
C468 C469 1.387 . S
C468 H472 0.950 . S
C468 C477 1.390 . S
C469 C468 1.387 . S
C469 C471 1.387 . S
H470 C477 0.950 . S
C471 C469 1.387 . S
C471 C473 1.390 . S
C471 H475 0.950 . S
H472 C468 0.950 . S
C473 C471 1.390 . S
C473 C474 1.387 . S
C473 H476 0.950 . S
C474 C473 1.387 . S
C474 C477 1.387 . S
H475 C471 0.950 . S
H476 C473 0.950 . S
C477 C468 1.390 . S
C477 H470 0.950 . S
C477 C474 1.387 . S
C478 C479 1.387 . S
C478 H482 0.950 . S
C478 C487 1.390 . S
C479 C478 1.387 . S
C479 C481 1.387 . S
H480 C487 0.950 . S
C481 C479 1.387 . S
C481 C483 1.390 . S
C481 H485 0.950 . S
H482 C478 0.950 . S
C483 C481 1.390 . S
C483 C484 1.387 . S
C483 H486 0.950 . S
C484 C483 1.387 . S
C484 C487 1.387 . S
H485 C481 0.950 . S
H486 C483 0.950 . S
C487 C478 1.390 . S
C487 H480 0.950 . S
C487 C484 1.387 . S
C488 C489 1.387 . S
C488 H492 0.950 . S
C488 C497 1.390 . S
C489 C488 1.387 . S
C489 C491 1.387 . S
H490 C497 0.950 . S
C491 C489 1.387 . S
C491 C493 1.390 . S
C491 H495 0.950 . S
H492 C488 0.950 . S
C493 C491 1.390 . S
C493 C494 1.387 . S
C493 H496 0.950 . S
C494 C493 1.387 . S
C494 C497 1.387 . S
H495 C491 0.950 . S
H496 C493 0.950 . S
C497 C488 1.390 . S
C497 H490 0.950 . S
C497 C494 1.387 . S
C498 C499 1.387 . S
C498 H502 0.950 . S
C498 C507 1.390 . S
C499 C498 1.387 . S
C499 C501 1.387 . S
H500 C507 0.950 . S
C501 C499 1.387 . S
C501 C503 1.390 . S
C501 H505 0.950 . S
H502 C498 0.950 . S
C503 C501 1.390 . S
C503 C504 1.387 . S
C503 H506 0.950 . S
C504 C503 1.387 . S
C504 C507 1.387 . S
H505 C501 0.950 . S
H506 C503 0.950 . S
C507 C498 1.390 . S
C507 H500 0.950 . S
C507 C504 1.387 . S
C508 C509 1.387 . S
C508 H512 0.950 . S
C508 C517 1.390 . S
C509 C508 1.387 . S
C509 C511 1.387 . S
H510 C517 0.950 . S
C511 C509 1.387 . S
C511 C513 1.390 . S
C511 H515 0.950 . S
H512 C508 0.950 . S
C513 C511 1.390 . S
C513 C514 1.387 . S
C513 H516 0.950 . S
C514 C513 1.387 . S
C514 C517 1.387 . S
H515 C511 0.950 . S
H516 C513 0.950 . S
C517 C508 1.390 . S
C517 H510 0.950 . S
C517 C514 1.387 . S
C518 C519 1.387 . S
C518 H522 0.950 . S
C518 C527 1.390 . S
C519 C518 1.387 . S
C519 C521 1.387 . S
H520 C527 0.950 . S
C521 C519 1.387 . S
C521 C523 1.390 . S
C521 H525 0.950 . S
H522 C518 0.950 . S
C523 C521 1.390 . S
C523 C524 1.387 . S
C523 H526 0.950 . S
C524 C523 1.387 . S
C524 C527 1.387 . S
H525 C521 0.950 . S
H526 C523 0.950 . S
C527 C518 1.390 . S
C527 H520 0.950 . S
C527 C524 1.387 . S
C209 C192 1.540 . S
C214 C10 1.540 . S
C219 C26 1.507 . S
C224 C0 1.507 . S
C229 C143 1.510 . S
C234 C13 1.510 . S
C239 C23 1.540 . S
C244 C101 1.540 . S
C249 C36 1.540 . S
C254 C166 1.540 . S
C259 C117 1.507 . S
C264 C39 1.507 . S
C269 C49 1.540 . S
C274 C75 1.540 . S
C279 C140 1.541 . S
C284 C62 1.541 . S
C289 C52 1.508 . S
C294 C78 1.508 . S
C299 C195 1.507 . S
C304 C65 1.507 . S
C309 C114 1.540 . S
C314 C88 1.540 . S
C319 C169 1.507 . S
C324 C91 1.507 . S
C329 C104 1.507 . S
C334 C130 1.507 . S
C339 C205 1.541 . S
C344 C127 1.541 . S
C349 C153 1.540 . S
C354 C179 1.540 . S
C359 C182 1.510 . S
C364 C156 1.510 . S
C369 C70 1.247 . S
C374 C8 1.240 1_565 S
C379 C5 1.248 . S
C384 C73 1.244 . S
C389 C18 1.247 . S
C394 C60 1.240 . S
C399 C57 1.246 . S
C404 C21 1.241 1_565 S
C409 C96 1.247 . S
C414 C34 1.244 1_545 S
C419 C99 1.241 . S
C424 C31 1.245 . S
C429 C86 1.244 . S
C434 C44 1.247 . S
C439 C47 1.244 1_545 S
C444 C83 1.248 . S
C449 C174 1.246 . S
C454 C112 1.240 1_565 S
C459 C109 1.248 . S
C464 C177 1.242 . S
C469 C122 1.247 . S
C474 C164 1.244 . S
C479 C161 1.247 . S
C484 C125 1.240 1_565 S
C489 C200 1.246 . S
C494 C138 1.240 1_545 S
C499 C203 1.241 . S
C504 C135 1.247 . S
C509 C148 1.247 . S
C514 C190 1.244 . S
C519 C187 1.246 . S
C524 C151 1.240 1_545 S
