# Generated by pormake.
# Topology unh, (4)-cn, num edge types: 1
# Building blocks:
#     Node 0, Type 0, BuildingBlock: QUQFOY_clean_sbu_1, # of connection points: 4
#     Node 1, Type 0, BuildingBlock: QUQFOY_clean_sbu_1, # of connection points: 4
#     Node 2, Type 0, BuildingBlock: QUQFOY_clean_sbu_1, # of connection points: 4
#     Node 3, Type 0, BuildingBlock: QUQFOY_clean_sbu_1, # of connection points: 4
#     Node 4, Type 0, BuildingBlock: QUQFOY_clean_sbu_1, # of connection points: 4
#     Node 5, Type 0, BuildingBlock: QUQFOY_clean_sbu_1, # of connection points: 4
#     Edge 6, Type (0, 0), BuildingBlock: FUNLAD_clean_linker_0, # of connection points: 2
#     Edge 7, Type (0, 0), BuildingBlock: FUNLAD_clean_linker_0, # of connection points: 2
#     Edge 8, Type (0, 0), BuildingBlock: FUNLAD_clean_linker_0, # of connection points: 2
#     Edge 9, Type (0, 0), BuildingBlock: FUNLAD_clean_linker_0, # of connection points: 2
#     Edge 10, Type (0, 0), BuildingBlock: FUNLAD_clean_linker_0, # of connection points: 2
#     Edge 11, Type (0, 0), BuildingBlock: FUNLAD_clean_linker_0, # of connection points: 2
#     Edge 12, Type (0, 0), BuildingBlock: FUNLAD_clean_linker_0, # of connection points: 2
#     Edge 13, Type (0, 0), BuildingBlock: FUNLAD_clean_linker_0, # of connection points: 2
#     Edge 14, Type (0, 0), BuildingBlock: FUNLAD_clean_linker_0, # of connection points: 2
#     Edge 15, Type (0, 0), BuildingBlock: FUNLAD_clean_linker_0, # of connection points: 2
#     Edge 16, Type (0, 0), BuildingBlock: FUNLAD_clean_linker_0, # of connection points: 2
#     Edge 17, Type (0, 0), BuildingBlock: FUNLAD_clean_linker_0, # of connection points: 2
# Relax obj value: 0.055
# Max RMSD: 0.146
# Mean RMSD: 0.146
data_MOF--net-unh--node1-QUQFOY_clean_sbu_1--edge1-FUNLAD_clean_linker_0
_symmetry_space_group_name_H-M    P1
_symmetry_Int_Tables_number       1
_symmetry_cell_setting            triclinic
loop_
_symmetry_equiv_pos_as_xyz
'x, y, z'
_cell_length_a     50.816178
_cell_length_b     50.767727
_cell_length_c     26.441011
_cell_angle_alpha  89.978667
_cell_angle_beta   89.941433
_cell_angle_gamma 119.96918
loop_
_atom_site_label
_atom_site_type_symbol
_atom_site_fract_x
_atom_site_fract_y
_atom_site_fract_z
_atom_type_partial_charge
O0 O 0.08396 0.55063 0.01959 0.0
Cd1 Cd 0.11399 0.58235 0.06976 0.0
Cd2 Cd 0.14811 0.5567 0.04461 0.0
O3 O 0.10947 0.52675 0.00482 0.0
O4 O 0.08985 0.59178 0.11888 0.0
O5 O 0.11498 0.56817 0.13969 0.0
C6 C 0.09706 0.57815 0.15276 0.0
C7 C 0.17151 0.53935 0.10095 0.0
C8 C 0.08605 0.52932 0.9982 0.0
C9 C 0.17262 0.62298 0.01775 0.0
O10 O 0.17556 0.59956 0.01468 0.0
O11 O 0.14981 0.62161 0.04019 0.0
O12 O 0.17423 0.53771 0.05269 0.0
O13 O 0.15466 0.54994 0.11708 0.0
O14 O 0.52621 0.08649 0.19435 0.0
Cd15 Cd 0.52385 0.1154 0.24638 0.0
Cd16 Cd 0.58432 0.14815 0.22905 0.0
O17 O 0.57609 0.11063 0.18633 0.0
O18 O 0.48801 0.09019 0.2903 0.0
O19 O 0.53562 0.11238 0.31729 0.0
C20 C 0.507 0.09474 0.32626 0.0
C21 C 0.62561 0.17049 0.2843 0.0
C22 C 0.5501 0.08817 0.17586 0.0
C23 C 0.54594 0.17663 0.20216 0.0
O24 O 0.57165 0.1781 0.20082 0.0
O25 O 0.52297 0.1534 0.22066 0.0
O26 O 0.62925 0.17349 0.23597 0.0
O27 O 0.5984 0.15353 0.30141 0.0
O28 O 0.43783 0.52283 0.36369 0.0
Cd29 Cd 0.40998 0.52693 0.41565 0.0
Cd30 Cd 0.44053 0.58557 0.38558 0.0
O31 O 0.46696 0.57165 0.3467 0.0
O32 O 0.39932 0.49482 0.46799 0.0
O33 O 0.42798 0.54415 0.48304 0.0
C34 C 0.41595 0.51646 0.49902 0.0
C35 C 0.46191 0.6301 0.43367 0.0
C36 C 0.4606 0.54418 0.34111 0.0
C37 C 0.37278 0.5489 0.36452 0.0
O38 O 0.39794 0.57329 0.3578 0.0
O39 O 0.37176 0.52688 0.3891 0.0
O40 O 0.46243 0.63097 0.38491 0.0
O41 O 0.4507 0.60385 0.45523 0.0
O42 O 0.91802 0.45041 0.52524 0.0
Cd43 Cd 0.88592 0.41891 0.57403 0.0
Cd44 Cd 0.85664 0.4491 0.54948 0.0
O45 O 0.89711 0.47906 0.5147 0.0
O46 O 0.90784 0.40561 0.62113 0.0
O47 O 0.88622 0.43211 0.64522 0.0
C48 C 0.90225 0.41967 0.65651 0.0
C49 C 0.83277 0.46528 0.60691 0.0
C50 C 0.91888 0.47398 0.50686 0.0
C51 C 0.82827 0.38355 0.51692 0.0
O52 O 0.82883 0.40878 0.51275 0.0
O53 O 0.84821 0.38167 0.54328 0.0
O54 O 0.83232 0.46986 0.55899 0.0
O55 O 0.84776 0.45245 0.62227 0.0
O56 O 0.47809 0.91789 0.69807 0.0
Cd57 Cd 0.4773 0.88671 0.74901 0.0
Cd58 Cd 0.4189 0.85519 0.71608 0.0
O59 O 0.4289 0.89603 0.68283 0.0
O60 O 0.51059 0.91047 0.79895 0.0
O61 O 0.46166 0.88709 0.818 0.0
C62 C 0.48946 0.9045 0.83173 0.0
C63 C 0.37949 0.82934 0.77396 0.0
C64 C 0.45572 0.91837 0.67745 0.0
C65 C 0.45994 0.82994 0.69144 0.0
O66 O 0.43536 0.82985 0.68179 0.0
O67 O 0.47943 0.84959 0.72145 0.0
O68 O 0.37395 0.82832 0.72611 0.0
O69 O 0.4072 0.84606 0.78869 0.0
O70 O 0.5584 0.47389 0.85855 0.0
Cd71 Cd 0.58864 0.47438 0.91078 0.0
Cd72 Cd 0.55956 0.41399 0.89107 0.0
O73 O 0.53122 0.42412 0.84942 0.0
O74 O 0.60016 0.50987 0.95626 0.0
O75 O 0.57354 0.46189 0.98138 0.0
C76 C 0.58536 0.49047 0.99163 0.0
C77 C 0.5397 0.37313 0.94753 0.0
C78 C 0.53583 0.45061 0.83943 0.0
C79 C 0.62642 0.45117 0.86444 0.0
O80 O 0.60181 0.4258 0.86205 0.0
O81 O 0.62678 0.47411 0.88454 0.0
O82 O 0.53816 0.36884 0.8993 0.0
O83 O 0.55155 0.40072 0.96373 0.0
C84 C 0.03537 0.51075 0.95733 0.0
C85 C 0.06162 0.50842 0.96346 0.0
C86 C 0.01339 0.49298 0.9216 0.0
C87 C 0.01702 0.47224 0.89122 0.0
C88 C 0.04291 0.46942 0.89818 0.0
C89 C 0.0649 0.48718 0.93406 0.0
C90 C 0.99596 0.45549 0.84885 0.0
C91 C 0.96725 0.4503 0.84586 0.0
C92 C 0.94836 0.43876 0.79943 0.0
C93 C 0.95282 0.42119 0.76289 0.0
C94 C 0.93678 0.41377 0.71727 0.0
C95 C 0.91592 0.42365 0.70731 0.0
H96 H 0.92191 0.46012 0.8184 0.0
C97 C 0.91016 0.4396 0.74506 0.0
C98 C 0.9261 0.44691 0.7907 0.0
H99 H 0.89406 0.44734 0.73876 0.0
H100 H 0.03212 0.52693 0.97921 0.0
H101 H 0.99437 0.49668 0.91667 0.0
H102 H 0.04646 0.45384 0.87505 0.0
H103 H 0.08486 0.48483 0.93772 0.0
H104 H 0.0053 0.44868 0.81792 0.0
H105 H 0.95788 0.45699 0.87691 0.0
H106 H 0.96891 0.41345 0.76891 0.0
H107 H 0.94148 0.40113 0.68919 0.0
C108 C 0.526 0.94301 0.89307 0.0
C109 C 0.4965 0.91952 0.88175 0.0
C110 C 0.53159 0.96049 0.93687 0.0
C111 C 0.50772 0.95462 0.9705 0.0
C112 C 0.4786 0.93012 0.96023 0.0
C113 C 0.47303 0.91275 0.91648 0.0
C114 C 0.51123 0.97489 0.01378 0.0
C115 C 0.53809 0.99601 0.03341 0.0
C116 C 0.54095 0.01842 0.07257 0.0
C117 C 0.56896 0.04539 0.07807 0.0
C118 C 0.57219 0.06789 0.11216 0.0
C119 C 0.54739 0.06389 0.14152 0.0
H120 H 0.49487 0.9931 0.10256 0.0
C121 C 0.51966 0.03651 0.13734 0.0
C122 C 0.51651 0.01394 0.10367 0.0
H123 H 0.50026 0.03244 0.16015 0.0
H124 H 0.54455 0.94888 0.86691 0.0
H125 H 0.55429 0.97935 0.94252 0.0
H126 H 0.45976 0.92499 0.98535 0.0
H127 H 0.45003 0.89475 0.90898 0.0
H128 H 0.49036 0.97289 0.02834 0.0
H129 H 0.55904 0.99824 0.01876 0.0
H130 H 0.58829 0.0494 0.05508 0.0
H131 H 0.59394 0.08865 0.11469 0.0
C132 C 0.50274 0.5592 0.27777 0.0
C133 C 0.47895 0.5366 0.30677 0.0
C134 C 0.51852 0.55145 0.24291 0.0
C135 C 0.51091 0.52087 0.23657 0.0
C136 C 0.48758 0.4985 0.26639 0.0
C137 C 0.47187 0.50623 0.30112 0.0
C138 C 0.5248 0.51084 0.19693 0.0
C139 C 0.55134 0.52925 0.17339 0.0
C140 C 0.56263 0.51903 0.12991 0.0
C141 C 0.5813 0.54057 0.09377 0.0
C142 C 0.5898 0.53147 0.04972 0.0
C143 C 0.57995 0.5006 0.04108 0.0
H144 H 0.54112 0.47119 0.15064 0.0
C145 C 0.56284 0.47925 0.07866 0.0
C146 C 0.55438 0.48836 0.12273 0.0
H147 H 0.55527 0.45535 0.0735 0.0
H148 H 0.50869 0.5828 0.28103 0.0
H149 H 0.53581 0.56939 0.21998 0.0
H150 H 0.48111 0.47478 0.26225 0.0
H151 H 0.45374 0.4882 0.32288 0.0
H152 H 0.51175 0.48714 0.18577 0.0
H153 H 0.56441 0.55306 0.18381 0.0
H154 H 0.58836 0.56439 0.09862 0.0
H155 H 0.6032 0.54854 0.02168 0.0
C156 C 0.97004 0.49085 0.46873 0.0
C157 C 0.94459 0.49463 0.47387 0.0
C158 C 0.99314 0.50851 0.43438 0.0
C159 C 0.99113 0.53016 0.40377 0.0
C160 C 0.96641 0.53492 0.41075 0.0
C161 C 0.94338 0.51736 0.44534 0.0
C162 C 0.01354 0.54744 0.36309 0.0
C163 C 0.03152 0.53806 0.34146 0.0
C164 C 0.05074 0.5524 0.29598 0.0
C165 C 0.07361 0.54549 0.28443 0.0
C166 C 0.08971 0.55514 0.23897 0.0
C167 C 0.08317 0.57179 0.20376 0.0
H168 H 0.02722 0.57549 0.26815 0.0
C169 C 0.06118 0.57981 0.21606 0.0
C170 C 0.04505 0.57016 0.26158 0.0
H171 H 0.0555 0.59251 0.18962 0.0
H172 H 0.97197 0.47391 0.49079 0.0
H173 H 0.01233 0.50487 0.43202 0.0
H174 H 0.96437 0.55164 0.38819 0.0
H175 H 0.92419 0.52103 0.44857 0.0
H176 H 0.01372 0.56752 0.34863 0.0
H177 H 0.03141 0.51803 0.35594 0.0
H178 H 0.07845 0.53179 0.31005 0.0
H179 H 0.10653 0.54857 0.2307 0.0
C180 C 0.51743 0.08053 0.41158 0.0
C181 C 0.49643 0.07801 0.37467 0.0
C182 C 0.50786 0.06156 0.45405 0.0
C183 C 0.47694 0.03974 0.46073 0.0
C184 C 0.45588 0.03813 0.42476 0.0
C185 C 0.46546 0.0571 0.38232 0.0
C186 C 0.46618 0.01636 0.50149 0.0
C187 C 0.48201 0.01911 0.54395 0.0
C188 C 0.4737 0.99378 0.58039 0.0
C189 C 0.49679 0.9944 0.61031 0.0
C190 C 0.49079 0.97018 0.64239 0.0
C191 C 0.46139 0.94479 0.64576 0.0
H192 H 0.42527 0.96795 0.5641 0.0
C193 C 0.43792 0.94467 0.61745 0.0
C194 C 0.44397 0.96891 0.58513 0.0
H195 H 0.41495 0.92562 0.61959 0.0
H196 H 0.54148 0.09629 0.40666 0.0
H197 H 0.52508 0.0632 0.4799 0.0
H198 H 0.43197 0.02151 0.42873 0.0
H199 H 0.44866 0.05454 0.3546 0.0
H200 H 0.44496 0.9955 0.49456 0.0
H201 H 0.50314 0.04003 0.55097 0.0
H202 H 0.51983 0.01334 0.60785 0.0
H203 H 0.50938 0.97123 0.66401 0.0
C204 C 0.52019 0.48383 0.79371 0.0
C205 C 0.51544 0.45461 0.80412 0.0
C206 C 0.50219 0.48801 0.75833 0.0
C207 C 0.47881 0.46296 0.73264 0.0
C208 C 0.47383 0.43373 0.74357 0.0
C209 C 0.49181 0.42955 0.77907 0.0
C210 C 0.46096 0.46661 0.69143 0.0
C211 C 0.45772 0.49128 0.68607 0.0
C212 C 0.44378 0.49676 0.64076 0.0
C213 C 0.45298 0.52688 0.62716 0.0
C214 C 0.44294 0.5333 0.58209 0.0
C215 C 0.4232 0.50964 0.54986 0.0
H216 H 0.41396 0.44943 0.62005 0.0
C217 C 0.41248 0.47941 0.56495 0.0
C218 C 0.42259 0.47299 0.60997 0.0
H219 H 0.39696 0.46064 0.54125 0.0
H220 H 0.53827 0.50369 0.81212 0.0
H221 H 0.50756 0.51102 0.75011 0.0
H222 H 0.45619 0.41405 0.72407 0.0
H223 H 0.48755 0.40672 0.78609 0.0
H224 H 0.45117 0.44858 0.66349 0.0
H225 H 0.46746 0.5093 0.71404 0.0
H226 H 0.46898 0.54563 0.65045 0.0
H227 H 0.45147 0.55685 0.57176 0.0
C228 C 0.19112 0.53951 0.18784 0.0
C229 C 0.18883 0.53131 0.13658 0.0
C230 C 0.21026 0.5351 0.22034 0.0
C231 C 0.22739 0.52224 0.20226 0.0
C232 C 0.22374 0.51243 0.15183 0.0
C233 C 0.20487 0.51717 0.11914 0.0
C234 C 0.25009 0.51991 0.2344 0.0
C235 C 0.26698 0.54135 0.26873 0.0
C236 C 0.29311 0.54228 0.29537 0.0
C237 C 0.31822 0.5707 0.30701 0.0
C238 C 0.34392 0.57274 0.32982 0.0
C239 C 0.34482 0.54633 0.34261 0.0
H240 H 0.27435 0.49348 0.30157 0.0
C241 C 0.31924 0.51779 0.33276 0.0
C242 C 0.29365 0.51575 0.30901 0.0
H243 H 0.31925 0.49705 0.34234 0.0
H244 H 0.17887 0.55024 0.20255 0.0
H245 H 0.2119 0.5421 0.25943 0.0
H246 H 0.23645 0.50219 0.13712 0.0
H247 H 0.20339 0.51037 0.07995 0.0
H248 H 0.2554 0.50218 0.22554 0.0
H249 H 0.26373 0.5608 0.27356 0.0
H250 H 0.31827 0.59146 0.29726 0.0
H251 H 0.36315 0.59507 0.33734 0.0
C252 C 0.68023 0.20878 0.29851 0.0
C253 C 0.65156 0.1882 0.31866 0.0
C254 C 0.70377 0.22879 0.33004 0.0
C255 C 0.69917 0.22868 0.38249 0.0
C256 C 0.67124 0.20674 0.40309 0.0
C257 C 0.64752 0.18679 0.37143 0.0
C258 C 0.72267 0.25223 0.41576 0.0
C259 C 0.73952 0.28127 0.40016 0.0
C260 C 0.76148 0.30653 0.43261 0.0
C261 C 0.76702 0.33595 0.42228 0.0
C262 C 0.78822 0.36071 0.45041 0.0
C263 C 0.8049 0.35674 0.48903 0.0
H264 H 0.77454 0.27997 0.47988 0.0
C265 C 0.79949 0.32726 0.49943 0.0
C266 C 0.77784 0.30231 0.47164 0.0
H267 H 0.81206 0.32348 0.52887 0.0
H268 H 0.68425 0.21024 0.2581 0.0
H269 H 0.72539 0.24478 0.31316 0.0
H270 H 0.66729 0.20598 0.44348 0.0
H271 H 0.62576 0.17104 0.38814 0.0
H272 H 0.72403 0.24627 0.45475 0.0
H273 H 0.73552 0.2874 0.3627 0.0
H274 H 0.75485 0.33985 0.39224 0.0
H275 H 0.79191 0.3831 0.44112 0.0
C276 C 0.44822 0.79073 0.62481 0.0
C277 C 0.46579 0.8072 0.66663 0.0
C278 C 0.45346 0.76929 0.60086 0.0
C279 C 0.47632 0.76366 0.61829 0.0
C280 C 0.49355 0.77966 0.66061 0.0
C281 C 0.4886 0.80152 0.68424 0.0
C282 C 0.48134 0.74013 0.59408 0.0
C283 C 0.47779 0.73481 0.54395 0.0
C284 C 0.47857 0.70918 0.51828 0.0
C285 C 0.48314 0.71084 0.46576 0.0
C286 C 0.47953 0.68564 0.43869 0.0
C287 C 0.4709 0.65801 0.4635 0.0
H288 H 0.46723 0.67961 0.58391 0.0
C289 C 0.46774 0.65669 0.51642 0.0
C290 C 0.47151 0.68202 0.54361 0.0
H291 H 0.46099 0.6357 0.53665 0.0
H292 H 0.43039 0.79443 0.61034 0.0
H293 H 0.4391 0.75671 0.5693 0.0
H294 H 0.51104 0.77544 0.67512 0.0
H295 H 0.50237 0.81369 0.7166 0.0
H296 H 0.48837 0.72735 0.61794 0.0
H297 H 0.47368 0.74987 0.52018 0.0
H298 H 0.4885 0.73142 0.44526 0.0
H299 H 0.48217 0.68747 0.39796 0.0
C300 C 0.68007 0.4825 0.83291 0.0
C301 C 0.65455 0.45387 0.84275 0.0
C302 C 0.70597 0.48475 0.81001 0.0
C303 C 0.70689 0.45835 0.79688 0.0
C304 C 0.6818 0.42984 0.80833 0.0
C305 C 0.65583 0.42759 0.83056 0.0
C306 C 0.73339 0.45948 0.77106 0.0
C307 C 0.75143 0.48173 0.73861 0.0
C308 C 0.77483 0.47999 0.70737 0.0
C309 C 0.7806 0.49214 0.65828 0.0
C310 C 0.80022 0.48823 0.62606 0.0
C311 C 0.81485 0.47251 0.64264 0.0
H312 H 0.78742 0.45678 0.76301 0.0
C313 C 0.81046 0.46192 0.69278 0.0
C314 C 0.79061 0.46557 0.72483 0.0
H315 H 0.8216 0.44994 0.70686 0.0
H316 H 0.67985 0.50319 0.84212 0.0
H317 H 0.72522 0.50712 0.80292 0.0
H318 H 0.68201 0.40916 0.799 0.0
H319 H 0.63669 0.40517 0.83805 0.0
H320 H 0.73617 0.4397 0.77505 0.0
H321 H 0.74677 0.49999 0.73051 0.0
H322 H 0.76899 0.50364 0.6441 0.0
H323 H 0.80332 0.49689 0.58776 0.0
C324 C 0.32502 0.79226 0.79488 0.0
C325 C 0.35536 0.81012 0.81053 0.0
C326 C 0.30298 0.77148 0.82818 0.0
C327 C 0.31093 0.76811 0.87779 0.0
C328 C 0.34105 0.78662 0.89374 0.0
C329 C 0.36298 0.80757 0.86068 0.0
C330 C 0.28932 0.74358 0.912 0.0
C331 C 0.25895 0.73116 0.90952 0.0
C332 C 0.23788 0.70437 0.94042 0.0
C333 C 0.20965 0.70063 0.95508 0.0
C334 C 0.18876 0.67467 0.98173 0.0
C335 C 0.19547 0.65159 0.99316 0.0
H336 H 0.26595 0.6832 0.94074 0.0
C337 C 0.22377 0.65541 0.97857 0.0
C338 C 0.24476 0.68151 0.95263 0.0
H339 H 0.22961 0.63803 0.98664 0.0
H340 H 0.31846 0.79361 0.75642 0.0
H341 H 0.28015 0.75714 0.81413 0.0
H342 H 0.34782 0.78438 0.93162 0.0
H343 H 0.38615 0.82094 0.87396 0.0
H344 H 0.29899 0.73549 0.94054 0.0
H345 H 0.24912 0.741 0.88469 0.0
H346 H 0.20369 0.71777 0.94568 0.0
H347 H 0.16706 0.67229 0.9921 0.0
C348 C 0.53858 0.35259 0.03419 0.0
C349 C 0.53038 0.34735 0.98289 0.0
C350 C 0.53339 0.32846 0.06606 0.0
C351 C 0.51978 0.29857 0.04721 0.0
C352 C 0.50984 0.29315 0.99682 0.0
C353 C 0.51531 0.3173 0.96484 0.0
C354 C 0.51697 0.27286 0.07819 0.0
C355 C 0.538 0.27652 0.11275 0.0
C356 C 0.53883 0.25072 0.13765 0.0
C357 C 0.56713 0.25449 0.15153 0.0
C358 C 0.56931 0.23048 0.17273 0.0
C359 C 0.54311 0.20222 0.18148 0.0
H360 H 0.49018 0.21922 0.13827 0.0
C361 C 0.51458 0.19868 0.16928 0.0
C362 C 0.51245 0.22267 0.14734 0.0
H363 H 0.49397 0.17723 0.17584 0.0
H364 H 0.55002 0.37547 0.04936 0.0
H365 H 0.54047 0.33333 0.10516 0.0
H366 H 0.49901 0.27031 0.98151 0.0
H367 H 0.50846 0.31247 0.9256 0.0
H368 H 0.49933 0.25008 0.06793 0.0
H369 H 0.55731 0.29909 0.11906 0.0
H370 H 0.58779 0.27591 0.14484 0.0
H371 H 0.59162 0.23409 0.18214 0.0
loop_
_geom_bond_atom_site_label_1
_geom_bond_atom_site_label_2
_geom_bond_distance
_geom_bond_site_symmetry_2
_ccdc_geom_bond_type
O0 Cd1 2.223 . S
O0 C8 1.315 . S
Cd1 O0 2.223 . S
Cd1 O4 2.297 . S
Cd1 O5 2.439 . S
Cd1 O11 2.240 . S
Cd2 O3 2.240 . S
Cd2 O10 2.222 1_554 S
Cd2 O12 2.297 . S
Cd2 O13 2.439 . S
O3 Cd2 2.240 . S
O3 C8 1.279 . S
O4 Cd1 2.297 . S
O4 C6 1.247 . S
O5 Cd1 2.439 . S
O5 C6 1.208 . S
C6 O4 1.247 . S
C6 O5 1.208 . S
C7 O12 1.247 . S
C7 O13 1.208 . S
C8 O0 1.315 . S
C8 O3 1.279 . S
C9 O10 1.314 1_554 S
C9 O11 1.279 . S
O10 Cd2 2.222 1_556 S
O10 C9 1.314 1_556 S
O11 Cd1 2.240 . S
O11 C9 1.279 . S
O12 Cd2 2.297 . S
O12 C7 1.247 . S
O13 Cd2 2.439 . S
O13 C7 1.208 . S
O14 Cd15 2.223 . S
O14 C22 1.315 . S
Cd15 O14 2.223 . S
Cd15 O18 2.297 . S
Cd15 O19 2.439 . S
Cd15 O25 2.240 . S
Cd16 O17 2.240 . S
Cd16 O24 2.223 . S
Cd16 O26 2.297 . S
Cd16 O27 2.439 . S
O17 Cd16 2.240 . S
O17 C22 1.279 . S
O18 Cd15 2.297 . S
O18 C20 1.247 . S
O19 Cd15 2.439 . S
O19 C20 1.208 . S
C20 O18 1.247 . S
C20 O19 1.208 . S
C21 O26 1.247 . S
C21 O27 1.208 . S
C22 O14 1.315 . S
C22 O17 1.279 . S
C23 O24 1.315 . S
C23 O25 1.279 . S
O24 Cd16 2.223 . S
O24 C23 1.315 . S
O25 Cd15 2.240 . S
O25 C23 1.279 . S
O26 Cd16 2.297 . S
O26 C21 1.247 . S
O27 Cd16 2.439 . S
O27 C21 1.208 . S
O28 Cd29 2.223 . S
O28 C36 1.315 . S
Cd29 O28 2.223 . S
Cd29 O32 2.297 . S
Cd29 O33 2.439 . S
Cd29 O39 2.240 . S
Cd30 O31 2.240 . S
Cd30 O38 2.223 . S
Cd30 O40 2.297 . S
Cd30 O41 2.439 . S
O31 Cd30 2.240 . S
O31 C36 1.279 . S
O32 Cd29 2.297 . S
O32 C34 1.247 . S
O33 Cd29 2.439 . S
O33 C34 1.208 . S
C34 O32 1.247 . S
C34 O33 1.208 . S
C35 O40 1.247 . S
C35 O41 1.208 . S
C36 O28 1.315 . S
C36 O31 1.279 . S
C37 O38 1.315 . S
C37 O39 1.279 . S
O38 Cd30 2.223 . S
O38 C37 1.315 . S
O39 Cd29 2.240 . S
O39 C37 1.279 . S
O40 Cd30 2.297 . S
O40 C35 1.247 . S
O41 Cd30 2.439 . S
O41 C35 1.208 . S
O42 Cd43 2.223 . S
O42 C50 1.315 . S
Cd43 O42 2.223 . S
Cd43 O46 2.297 . S
Cd43 O47 2.439 . S
Cd43 O53 2.240 . S
Cd44 O45 2.240 . S
Cd44 O52 2.223 . S
Cd44 O54 2.297 . S
Cd44 O55 2.439 . S
O45 Cd44 2.240 . S
O45 C50 1.279 . S
O46 Cd43 2.297 . S
O46 C48 1.247 . S
O47 Cd43 2.439 . S
O47 C48 1.208 . S
C48 O46 1.247 . S
C48 O47 1.208 . S
C49 O54 1.247 . S
C49 O55 1.208 . S
C50 O42 1.315 . S
C50 O45 1.279 . S
C51 O52 1.315 . S
C51 O53 1.279 . S
O52 Cd44 2.223 . S
O52 C51 1.315 . S
O53 Cd43 2.240 . S
O53 C51 1.279 . S
O54 Cd44 2.297 . S
O54 C49 1.247 . S
O55 Cd44 2.439 . S
O55 C49 1.208 . S
O56 Cd57 2.223 . S
O56 C64 1.315 . S
Cd57 O56 2.223 . S
Cd57 O60 2.297 . S
Cd57 O61 2.439 . S
Cd57 O67 2.240 . S
Cd58 O59 2.240 . S
Cd58 O66 2.223 . S
Cd58 O68 2.297 . S
Cd58 O69 2.439 . S
O59 Cd58 2.240 . S
O59 C64 1.279 . S
O60 Cd57 2.297 . S
O60 C62 1.247 . S
O61 Cd57 2.439 . S
O61 C62 1.208 . S
C62 O60 1.247 . S
C62 O61 1.208 . S
C63 O68 1.247 . S
C63 O69 1.208 . S
C64 O56 1.315 . S
C64 O59 1.279 . S
C65 O66 1.315 . S
C65 O67 1.279 . S
O66 Cd58 2.223 . S
O66 C65 1.315 . S
O67 Cd57 2.240 . S
O67 C65 1.279 . S
O68 Cd58 2.297 . S
O68 C63 1.247 . S
O69 Cd58 2.439 . S
O69 C63 1.208 . S
O70 Cd71 2.223 . S
O70 C78 1.315 . S
Cd71 O70 2.223 . S
Cd71 O74 2.297 . S
Cd71 O75 2.439 . S
Cd71 O81 2.240 . S
Cd72 O73 2.240 . S
Cd72 O80 2.223 . S
Cd72 O82 2.297 . S
Cd72 O83 2.439 . S
O73 Cd72 2.240 . S
O73 C78 1.279 . S
O74 Cd71 2.297 . S
O74 C76 1.247 1_556 S
O75 Cd71 2.439 . S
O75 C76 1.208 1_556 S
C76 O74 1.247 1_554 S
C76 O75 1.208 1_554 S
C77 O82 1.247 . S
C77 O83 1.208 . S
C78 O70 1.315 . S
C78 O73 1.279 . S
C79 O80 1.315 . S
C79 O81 1.279 . S
O80 Cd72 2.223 . S
O80 C79 1.315 . S
O81 Cd71 2.240 . S
O81 C79 1.279 . S
O82 Cd72 2.297 . S
O82 C77 1.247 . S
O83 Cd72 2.439 . S
O83 C77 1.208 . S
C84 C85 1.386 . S
C84 C86 1.383 . S
C84 H100 0.951 . S
C85 C84 1.386 . S
C85 C89 1.383 . S
C86 C84 1.383 . S
C86 C87 1.402 . S
C86 H101 0.951 . S
C87 C86 1.402 . S
C87 C88 1.375 . S
C87 C90 1.481 . S
C88 C87 1.375 . S
C88 C89 1.367 . S
C88 H102 0.951 . S
C89 C85 1.383 . S
C89 C88 1.367 . S
C89 H103 0.950 . S
C90 C87 1.481 . S
C90 C91 1.297 1_455 S
C90 H104 0.950 . S
C91 C90 1.297 1_655 S
C91 C92 1.479 . S
C91 H105 0.950 . S
C92 C91 1.479 . S
C92 C93 1.375 . S
C92 C98 1.404 . S
C93 C92 1.375 . S
C93 C94 1.369 . S
C93 H106 0.950 . S
C94 C93 1.369 . S
C94 C95 1.392 . S
C94 H107 0.951 . S
C95 C94 1.392 . S
C95 C97 1.384 . S
H96 C98 0.949 1_455 S
C97 C95 1.384 . S
C97 C98 1.385 . S
C97 H99 0.950 . S
C98 C92 1.404 . S
C98 H96 0.949 1_655 S
C98 C97 1.385 . S
H99 C97 0.950 . S
H100 C84 0.951 . S
H101 C86 0.951 . S
H102 C88 0.951 . S
H103 C89 0.950 . S
H104 C90 0.950 . S
H105 C91 0.950 . S
H106 C93 0.950 . S
H107 C94 0.951 . S
C108 C109 1.386 . S
C108 C110 1.383 . S
C108 H124 0.951 . S
C109 C108 1.386 . S
C109 C113 1.383 . S
C110 C108 1.383 . S
C110 C111 1.402 . S
C110 H125 0.951 1_565 S
C111 C110 1.402 . S
C111 C112 1.375 . S
C111 C114 1.479 1_556 S
C112 C111 1.375 . S
C112 C113 1.367 . S
C112 H126 0.937 1_556 S
C113 C109 1.383 . S
C113 C112 1.367 . S
C113 H127 0.950 . S
C114 C111 1.479 1_554 S
C114 C115 1.300 1_565 S
C114 H128 0.949 . S
C115 C114 1.300 1_545 S
C115 C116 1.479 . S
C115 H129 0.950 1_554 S
C116 C115 1.479 . S
C116 C117 1.375 . S
C116 C122 1.404 . S
C117 C116 1.375 . S
C117 C118 1.369 . S
C117 H130 0.950 . S
C118 C117 1.369 . S
C118 C119 1.392 . S
C118 H131 0.951 . S
C119 C118 1.392 . S
C119 C121 1.384 . S
H120 C122 0.949 . S
C121 C119 1.384 . S
C121 C122 1.385 . S
C121 H123 0.950 . S
C122 C116 1.404 . S
C122 H120 0.949 . S
C122 C121 1.385 . S
H123 C121 0.950 . S
H124 C108 0.951 . S
H125 C110 0.951 1_545 S
H126 C112 0.937 1_554 S
H127 C113 0.950 . S
H128 C114 0.949 . S
H129 C115 0.950 1_556 S
H130 C117 0.950 . S
H131 C118 0.951 . S
C132 C133 1.386 . S
C132 C134 1.383 . S
C132 H148 0.951 . S
C133 C132 1.386 . S
C133 C137 1.383 . S
C134 C132 1.383 . S
C134 C135 1.402 . S
C134 H149 0.951 . S
C135 C134 1.402 . S
C135 C136 1.375 . S
C135 C138 1.481 . S
C136 C135 1.375 . S
C136 C137 1.367 . S
C136 H150 0.951 . S
C137 C133 1.383 . S
C137 C136 1.367 . S
C137 H151 0.950 . S
C138 C135 1.481 . S
C138 C139 1.297 . S
C138 H152 0.950 . S
C139 C138 1.297 . S
C139 C140 1.479 . S
C139 H153 0.950 . S
C140 C139 1.479 . S
C140 C141 1.375 . S
C140 C146 1.404 . S
C141 C140 1.375 . S
C141 C142 1.369 . S
C141 H154 0.950 . S
C142 C141 1.369 . S
C142 C143 1.392 . S
C142 H155 0.951 . S
C143 C142 1.392 . S
C143 C145 1.384 . S
H144 C146 0.949 . S
C145 C143 1.384 . S
C145 C146 1.385 . S
C145 H147 0.950 . S
C146 C140 1.404 . S
C146 H144 0.949 . S
C146 C145 1.385 . S
H147 C145 0.950 . S
H148 C132 0.951 . S
H149 C134 0.951 . S
H150 C136 0.951 . S
H151 C137 0.950 . S
H152 C138 0.950 . S
H153 C139 0.950 . S
H154 C141 0.950 . S
H155 C142 0.951 . S
C156 C157 1.386 . S
C156 C158 1.383 . S
C156 H172 0.951 . S
C157 C156 1.386 . S
C157 C161 1.383 . S
C158 C156 1.383 . S
C158 C159 1.402 . S
C158 H173 0.951 . S
C159 C158 1.402 . S
C159 C160 1.375 . S
C159 C162 1.481 . S
C160 C159 1.375 . S
C160 C161 1.367 . S
C160 H174 0.951 . S
C161 C157 1.383 . S
C161 C160 1.367 . S
C161 H175 0.950 . S
C162 C159 1.481 . S
C162 C163 1.297 . S
C162 H176 0.950 . S
C163 C162 1.297 . S
C163 C164 1.479 1_655 S
C163 H177 0.935 1_655 S
C164 C163 1.479 1_455 S
C164 C165 1.375 . S
C164 C170 1.404 . S
C165 C164 1.375 . S
C165 C166 1.369 . S
C165 H178 0.950 . S
C166 C165 1.369 . S
C166 C167 1.392 . S
C166 H179 0.951 . S
C167 C166 1.392 . S
C167 C169 1.384 . S
H168 C170 0.949 1_655 S
C169 C167 1.384 . S
C169 C170 1.385 . S
C169 H171 0.950 . S
C170 C164 1.404 . S
C170 H168 0.949 1_455 S
C170 C169 1.385 . S
H171 C169 0.950 . S
H172 C156 0.951 . S
H173 C158 0.951 . S
H174 C160 0.951 . S
H175 C161 0.950 . S
H176 C162 0.950 . S
H177 C163 0.935 1_455 S
H178 C165 0.950 . S
H179 C166 0.951 . S
C180 C181 1.386 . S
C180 C182 1.383 . S
C180 H196 0.951 . S
C181 C180 1.386 . S
C181 C185 1.383 . S
C182 C180 1.383 . S
C182 C183 1.402 . S
C182 H197 0.951 . S
C183 C182 1.402 . S
C183 C184 1.375 . S
C183 C186 1.481 1_545 S
C184 C183 1.375 . S
C184 C185 1.367 . S
C184 H198 0.951 1_545 S
C185 C181 1.383 . S
C185 C184 1.367 . S
C185 H199 0.950 . S
C186 C183 1.481 1_565 S
C186 C187 1.297 . S
C186 H200 0.950 . S
C187 C186 1.297 . S
C187 C188 1.479 . S
C187 H201 0.950 1_565 S
C188 C187 1.479 . S
C188 C189 1.375 . S
C188 C194 1.404 . S
C189 C188 1.375 . S
C189 C190 1.369 . S
C189 H202 0.950 . S
C190 C189 1.369 . S
C190 C191 1.392 . S
C190 H203 0.951 . S
C191 C190 1.392 . S
C191 C193 1.384 . S
H192 C194 0.949 . S
C193 C191 1.384 . S
C193 C194 1.385 . S
C193 H195 0.950 . S
C194 C188 1.404 . S
C194 H192 0.949 . S
C194 C193 1.385 . S
H195 C193 0.950 . S
H196 C180 0.951 . S
H197 C182 0.951 . S
H198 C184 0.951 1_565 S
H199 C185 0.950 . S
H200 C186 0.950 . S
H201 C187 0.950 1_545 S
H202 C189 0.950 . S
H203 C190 0.951 . S
C204 C205 1.386 . S
C204 C206 1.383 . S
C204 H220 0.951 . S
C205 C204 1.386 . S
C205 C209 1.383 . S
C206 C204 1.383 . S
C206 C207 1.402 . S
C206 H221 0.951 . S
C207 C206 1.402 . S
C207 C208 1.375 . S
C207 C210 1.481 . S
C208 C207 1.375 . S
C208 C209 1.367 . S
C208 H222 0.951 . S
C209 C205 1.383 . S
C209 C208 1.367 . S
C209 H223 0.950 . S
C210 C207 1.481 . S
C210 C211 1.297 . S
C210 H224 0.950 . S
C211 C210 1.297 . S
C211 C212 1.479 . S
C211 H225 0.950 . S
C212 C211 1.479 . S
C212 C213 1.375 . S
C212 C218 1.404 . S
C213 C212 1.375 . S
C213 C214 1.369 . S
C213 H226 0.950 . S
C214 C213 1.369 . S
C214 C215 1.392 . S
C214 H227 0.951 . S
C215 C214 1.392 . S
C215 C217 1.384 . S
H216 C218 0.949 . S
C217 C215 1.384 . S
C217 C218 1.385 . S
C217 H219 0.950 . S
C218 C212 1.404 . S
C218 H216 0.949 . S
C218 C217 1.385 . S
H219 C217 0.950 . S
H220 C204 0.951 . S
H221 C206 0.951 . S
H222 C208 0.951 . S
H223 C209 0.950 . S
H224 C210 0.950 . S
H225 C211 0.950 . S
H226 C213 0.950 . S
H227 C214 0.951 . S
C228 C229 1.386 . S
C228 C230 1.383 . S
C228 H244 0.951 . S
C229 C228 1.386 . S
C229 C233 1.383 . S
C230 C228 1.383 . S
C230 C231 1.402 . S
C230 H245 0.951 . S
C231 C230 1.402 . S
C231 C232 1.375 . S
C231 C234 1.481 . S
C232 C231 1.375 . S
C232 C233 1.367 . S
C232 H246 0.951 . S
C233 C229 1.383 . S
C233 C232 1.367 . S
C233 H247 0.950 . S
C234 C231 1.481 . S
C234 C235 1.297 . S
C234 H248 0.950 . S
C235 C234 1.297 . S
C235 C236 1.479 . S
C235 H249 0.950 . S
C236 C235 1.479 . S
C236 C237 1.375 . S
C236 C242 1.404 . S
C237 C236 1.375 . S
C237 C238 1.369 . S
C237 H250 0.950 . S
C238 C237 1.369 . S
C238 C239 1.392 . S
C238 H251 0.951 . S
C239 C238 1.392 . S
C239 C241 1.384 . S
H240 C242 0.949 . S
C241 C239 1.384 . S
C241 C242 1.385 . S
C241 H243 0.950 . S
C242 C236 1.404 . S
C242 H240 0.949 . S
C242 C241 1.385 . S
H243 C241 0.950 . S
H244 C228 0.951 . S
H245 C230 0.951 . S
H246 C232 0.951 . S
H247 C233 0.950 . S
H248 C234 0.950 . S
H249 C235 0.950 . S
H250 C237 0.950 . S
H251 C238 0.951 . S
C252 C253 1.386 . S
C252 C254 1.383 . S
C252 H268 0.951 . S
C253 C252 1.386 . S
C253 C257 1.383 . S
C254 C252 1.383 . S
C254 C255 1.402 . S
C254 H269 0.951 . S
C255 C254 1.402 . S
C255 C256 1.375 . S
C255 C258 1.481 . S
C256 C255 1.375 . S
C256 C257 1.367 . S
C256 H270 0.951 . S
C257 C253 1.383 . S
C257 C256 1.367 . S
C257 H271 0.950 . S
C258 C255 1.481 . S
C258 C259 1.297 . S
C258 H272 0.950 . S
C259 C258 1.297 . S
C259 C260 1.479 . S
C259 H273 0.950 . S
C260 C259 1.479 . S
C260 C261 1.375 . S
C260 C266 1.404 . S
C261 C260 1.375 . S
C261 C262 1.369 . S
C261 H274 0.950 . S
C262 C261 1.369 . S
C262 C263 1.392 . S
C262 H275 0.951 . S
C263 C262 1.392 . S
C263 C265 1.384 . S
H264 C266 0.949 . S
C265 C263 1.384 . S
C265 C266 1.385 . S
C265 H267 0.950 . S
C266 C260 1.404 . S
C266 H264 0.949 . S
C266 C265 1.385 . S
H267 C265 0.950 . S
H268 C252 0.951 . S
H269 C254 0.951 . S
H270 C256 0.951 . S
H271 C257 0.950 . S
H272 C258 0.950 . S
H273 C259 0.950 . S
H274 C261 0.950 . S
H275 C262 0.951 . S
C276 C277 1.386 . S
C276 C278 1.383 . S
C276 H292 0.951 . S
C277 C276 1.386 . S
C277 C281 1.383 . S
C278 C276 1.383 . S
C278 C279 1.402 . S
C278 H293 0.951 . S
C279 C278 1.402 . S
C279 C280 1.375 . S
C279 C282 1.481 . S
C280 C279 1.375 . S
C280 C281 1.367 . S
C280 H294 0.951 . S
C281 C277 1.383 . S
C281 C280 1.367 . S
C281 H295 0.950 . S
C282 C279 1.481 . S
C282 C283 1.297 . S
C282 H296 0.950 . S
C283 C282 1.297 . S
C283 C284 1.479 . S
C283 H297 0.950 . S
C284 C283 1.479 . S
C284 C285 1.375 . S
C284 C290 1.404 . S
C285 C284 1.375 . S
C285 C286 1.369 . S
C285 H298 0.950 . S
C286 C285 1.369 . S
C286 C287 1.392 . S
C286 H299 0.951 . S
C287 C286 1.392 . S
C287 C289 1.384 . S
H288 C290 0.949 . S
C289 C287 1.384 . S
C289 C290 1.385 . S
C289 H291 0.950 . S
C290 C284 1.404 . S
C290 H288 0.949 . S
C290 C289 1.385 . S
H291 C289 0.950 . S
H292 C276 0.951 . S
H293 C278 0.951 . S
H294 C280 0.951 . S
H295 C281 0.950 . S
H296 C282 0.950 . S
H297 C283 0.950 . S
H298 C285 0.950 . S
H299 C286 0.951 . S
C300 C301 1.386 . S
C300 C302 1.383 . S
C300 H316 0.951 . S
C301 C300 1.386 . S
C301 C305 1.383 . S
C302 C300 1.383 . S
C302 C303 1.402 . S
C302 H317 0.951 . S
C303 C302 1.402 . S
C303 C304 1.375 . S
C303 C306 1.481 . S
C304 C303 1.375 . S
C304 C305 1.367 . S
C304 H318 0.951 . S
C305 C301 1.383 . S
C305 C304 1.367 . S
C305 H319 0.950 . S
C306 C303 1.481 . S
C306 C307 1.297 . S
C306 H320 0.950 . S
C307 C306 1.297 . S
C307 C308 1.479 . S
C307 H321 0.950 . S
C308 C307 1.479 . S
C308 C309 1.375 . S
C308 C314 1.404 . S
C309 C308 1.375 . S
C309 C310 1.369 . S
C309 H322 0.950 . S
C310 C309 1.369 . S
C310 C311 1.392 . S
C310 H323 0.951 . S
C311 C310 1.392 . S
C311 C313 1.384 . S
H312 C314 0.949 . S
C313 C311 1.384 . S
C313 C314 1.385 . S
C313 H315 0.950 . S
C314 C308 1.404 . S
C314 H312 0.949 . S
C314 C313 1.385 . S
H315 C313 0.950 . S
H316 C300 0.951 . S
H317 C302 0.951 . S
H318 C304 0.951 . S
H319 C305 0.950 . S
H320 C306 0.950 . S
H321 C307 0.950 . S
H322 C309 0.950 . S
H323 C310 0.951 . S
C324 C325 1.386 . S
C324 C326 1.383 . S
C324 H340 0.951 . S
C325 C324 1.386 . S
C325 C329 1.383 . S
C326 C324 1.383 . S
C326 C327 1.402 . S
C326 H341 0.951 . S
C327 C326 1.402 . S
C327 C328 1.375 . S
C327 C330 1.481 . S
C328 C327 1.375 . S
C328 C329 1.367 . S
C328 H342 0.951 . S
C329 C325 1.383 . S
C329 C328 1.367 . S
C329 H343 0.950 . S
C330 C327 1.481 . S
C330 C331 1.297 . S
C330 H344 0.950 . S
C331 C330 1.297 . S
C331 C332 1.479 . S
C331 H345 0.950 . S
C332 C331 1.479 . S
C332 C333 1.375 . S
C332 C338 1.404 . S
C333 C332 1.375 . S
C333 C334 1.369 . S
C333 H346 0.950 . S
C334 C333 1.369 . S
C334 C335 1.392 . S
C334 H347 0.951 . S
C335 C334 1.392 . S
C335 C337 1.384 . S
H336 C338 0.949 . S
C337 C335 1.384 . S
C337 C338 1.385 . S
C337 H339 0.950 1_556 S
C338 C332 1.404 . S
C338 H336 0.949 . S
C338 C337 1.385 . S
H339 C337 0.950 1_554 S
H340 C324 0.951 . S
H341 C326 0.951 . S
H342 C328 0.951 . S
H343 C329 0.950 . S
H344 C330 0.950 . S
H345 C331 0.950 . S
H346 C333 0.950 . S
H347 C334 0.951 . S
C348 C349 1.386 1_554 S
C348 C350 1.383 . S
C348 H364 0.951 . S
C349 C348 1.386 1_556 S
C349 C353 1.383 . S
C350 C348 1.383 . S
C350 C351 1.402 . S
C350 H365 0.951 . S
C351 C350 1.402 . S
C351 C352 1.375 . S
C351 C354 1.481 . S
C352 C351 1.375 . S
C352 C353 1.367 1_554 S
C352 H366 0.951 . S
C353 C349 1.383 . S
C353 C352 1.367 1_556 S
C353 H367 0.950 . S
C354 C351 1.481 . S
C354 C355 1.297 . S
C354 H368 0.950 . S
C355 C354 1.297 . S
C355 C356 1.479 . S
C355 H369 0.950 . S
C356 C355 1.479 . S
C356 C357 1.375 . S
C356 C362 1.404 . S
C357 C356 1.375 . S
C357 C358 1.369 . S
C357 H370 0.950 . S
C358 C357 1.369 . S
C358 C359 1.392 . S
C358 H371 0.951 . S
C359 C358 1.392 . S
C359 C361 1.384 . S
H360 C362 0.949 . S
C361 C359 1.384 . S
C361 C362 1.385 . S
C361 H363 0.950 . S
C362 C356 1.404 . S
C362 H360 0.949 . S
C362 C361 1.385 . S
H363 C361 0.950 . S
H364 C348 0.951 . S
H365 C350 0.951 . S
H366 C352 0.951 . S
H367 C353 0.950 . S
H368 C354 0.950 . S
H369 C355 0.950 . S
H370 C357 0.950 . S
H371 C358 0.951 . S
C85 C8 1.395 1_556 S
C95 C48 1.485 . S
C109 C62 1.483 . S
C119 C22 1.377 . S
C133 C36 1.396 . S
C143 C76 1.435 . S
C157 C50 1.426 . S
C167 C6 1.494 . S
C181 C20 1.443 . S
C191 C64 1.461 . S
C205 C78 1.434 . S
C215 C34 1.490 . S
C229 C7 1.358 . S
C239 C37 1.327 . S
C253 C21 1.348 . S
C263 C51 1.298 . S
C277 C65 1.356 . S
C287 C35 1.327 . S
C301 C79 1.324 . S
C311 C49 1.359 . S
C325 C63 1.332 . S
C335 C9 1.309 1_556 S
C349 C77 1.355 . S
C359 C23 1.348 . S
