# Generated by pormake.
# Topology mmt, (4)-cn, num edge types: 1
# Building blocks:
#     Node 0, Type 0, BuildingBlock: QUQFOY_clean_sbu_1, # of connection points: 4
#     Node 1, Type 0, BuildingBlock: QUQFOY_clean_sbu_1, # of connection points: 4
#     Node 2, Type 0, BuildingBlock: QUQFOY_clean_sbu_1, # of connection points: 4
#     Node 3, Type 0, BuildingBlock: QUQFOY_clean_sbu_1, # of connection points: 4
#     Node 4, Type 0, BuildingBlock: QUQFOY_clean_sbu_1, # of connection points: 4
#     Node 5, Type 0, BuildingBlock: QUQFOY_clean_sbu_1, # of connection points: 4
#     Node 6, Type 0, BuildingBlock: QUQFOY_clean_sbu_1, # of connection points: 4
#     Node 7, Type 0, BuildingBlock: QUQFOY_clean_sbu_1, # of connection points: 4
#     Edge 8, Type (0, 0), BuildingBlock: UVAHIK_clean_linker_0, # of connection points: 2
#     Edge 9, Type (0, 0), BuildingBlock: UVAHIK_clean_linker_0, # of connection points: 2
#     Edge 10, Type (0, 0), BuildingBlock: UVAHIK_clean_linker_0, # of connection points: 2
#     Edge 11, Type (0, 0), BuildingBlock: UVAHIK_clean_linker_0, # of connection points: 2
#     Edge 12, Type (0, 0), BuildingBlock: UVAHIK_clean_linker_0, # of connection points: 2
#     Edge 13, Type (0, 0), BuildingBlock: UVAHIK_clean_linker_0, # of connection points: 2
#     Edge 14, Type (0, 0), BuildingBlock: UVAHIK_clean_linker_0, # of connection points: 2
#     Edge 15, Type (0, 0), BuildingBlock: UVAHIK_clean_linker_0, # of connection points: 2
#     Edge 16, Type (0, 0), BuildingBlock: UVAHIK_clean_linker_0, # of connection points: 2
#     Edge 17, Type (0, 0), BuildingBlock: UVAHIK_clean_linker_0, # of connection points: 2
#     Edge 18, Type (0, 0), BuildingBlock: UVAHIK_clean_linker_0, # of connection points: 2
#     Edge 19, Type (0, 0), BuildingBlock: UVAHIK_clean_linker_0, # of connection points: 2
#     Edge 20, Type (0, 0), BuildingBlock: UVAHIK_clean_linker_0, # of connection points: 2
#     Edge 21, Type (0, 0), BuildingBlock: UVAHIK_clean_linker_0, # of connection points: 2
#     Edge 22, Type (0, 0), BuildingBlock: UVAHIK_clean_linker_0, # of connection points: 2
#     Edge 23, Type (0, 0), BuildingBlock: UVAHIK_clean_linker_0, # of connection points: 2
# Relax obj value: 0.021
# Max RMSD: 0.102
# Mean RMSD: 0.102
data_MOF--net-mmt--node1-QUQFOY_clean_sbu_1--edge1-UVAHIK_clean_linker_0
_symmetry_space_group_name_H-M    P1
_symmetry_Int_Tables_number       1
_symmetry_cell_setting            triclinic
loop_
_symmetry_equiv_pos_as_xyz
'x, y, z'
_cell_length_a     28.440662
_cell_length_b     53.891037
_cell_length_c     59.668406
_cell_angle_alpha  90.005282
_cell_angle_beta   89.999255
_cell_angle_gamma 90.022002
loop_
_atom_site_label
_atom_site_type_symbol
_atom_site_fract_x
_atom_site_fract_y
_atom_site_fract_z
_atom_type_partial_charge
O0 O 0.1886 0.57155 0.32855 0.0
Cd1 Cd 0.13018 0.59161 0.33803 0.0
Cd2 Cd 0.11497 0.54792 0.36165 0.0
O3 O 0.18091 0.53857 0.35014 0.0
O4 O 0.14394 0.62489 0.32514 0.0
O5 O 0.13667 0.61862 0.36151 0.0
C6 C 0.14523 0.63368 0.34518 0.0
C7 C 0.09348 0.53885 0.39855 0.0
C8 C 0.20376 0.55075 0.33552 0.0
C9 C 0.04688 0.56123 0.3246 0.0
O10 O 0.06133 0.5453 0.33869 0.0
O11 O 0.06768 0.58199 0.32262 0.0
O12 O 0.09902 0.52164 0.38381 0.0
O13 O 0.1017 0.56147 0.39252 0.0
O14 O 0.29441 0.94223 0.3285 0.0
Cd15 Cd 0.35186 0.92143 0.33795 0.0
Cd16 Cd 0.36815 0.96524 0.36162 0.0
O17 O 0.30244 0.97511 0.35017 0.0
O18 O 0.33564 0.88863 0.32471 0.0
O19 O 0.3435 0.89423 0.36113 0.0
C20 C 0.33326 0.87966 0.34466 0.0
C21 C 0.39021 0.97467 0.39839 0.0
C22 C 0.27952 0.96308 0.33548 0.0
C23 C 0.43594 0.95105 0.32452 0.0
O24 O 0.4217 0.96712 0.33855 0.0
O25 O 0.41481 0.93036 0.3226 0.0
O26 O 0.38516 0.9917 0.38344 0.0
O27 O 0.38121 0.95204 0.39265 0.0
O28 O 0.68751 0.44168 0.18196 0.0
Cd29 Cd 0.62998 0.42097 0.1724 0.0
Cd30 Cd 0.61425 0.4647 0.1486 0.0
O31 O 0.67996 0.47447 0.16015 0.0
O32 O 0.6458 0.38812 0.18562 0.0
O33 O 0.63832 0.3938 0.14919 0.0
C34 C 0.64828 0.37918 0.16566 0.0
C35 C 0.59262 0.47414 0.11179 0.0
C36 C 0.70263 0.46246 0.17494 0.0
C37 C 0.54603 0.45076 0.1856 0.0
O38 O 0.56052 0.46676 0.17157 0.0
O39 O 0.56697 0.43005 0.18761 0.0
O40 O 0.59774 0.49117 0.12673 0.0
O41 O 0.60129 0.45149 0.11757 0.0
O42 O 0.79347 0.07102 0.18126 0.0
Cd43 Cd 0.85187 0.0912 0.17191 0.0
Cd44 Cd 0.86751 0.04738 0.14843 0.0
O45 O 0.80147 0.03797 0.15979 0.0
O46 O 0.83776 0.12439 0.18489 0.0
O47 O 0.84536 0.11829 0.14851 0.0
C48 C 0.83655 0.13327 0.16488 0.0
C49 C 0.88958 0.03826 0.11162 0.0
C50 C 0.77843 0.05018 0.17432 0.0
C51 C 0.93516 0.06097 0.1856 0.0
O52 O 0.92087 0.04495 0.17155 0.0
O53 O 0.9143 0.08172 0.18745 0.0
O54 O 0.88393 0.02107 0.12637 0.0
O55 O 0.8811 0.06087 0.11758 0.0
O56 O 0.79454 0.44255 0.68215 0.0
Cd57 Cd 0.85193 0.42212 0.67195 0.0
Cd58 Cd 0.86751 0.46609 0.64839 0.0
O59 O 0.80281 0.47595 0.66113 0.0
O60 O 0.83798 0.38884 0.68477 0.0
O61 O 0.84393 0.39534 0.64838 0.0
C62 C 0.83583 0.38019 0.6647 0.0
C63 C 0.88665 0.47547 0.61127 0.0
C64 C 0.78002 0.46369 0.67572 0.0
C65 C 0.93765 0.4514 0.68415 0.0
O66 O 0.92325 0.46758 0.67028 0.0
O67 O 0.91556 0.43108 0.68658 0.0
O68 O 0.88283 0.49253 0.62629 0.0
O69 O 0.8779 0.45287 0.61717 0.0
O70 O 0.68144 0.07112 0.68429 0.0
Cd71 Cd 0.62731 0.09281 0.67236 0.0
Cd72 Cd 0.61183 0.04913 0.64858 0.0
O73 O 0.67482 0.03822 0.66254 0.0
O74 O 0.6437 0.12574 0.68525 0.0
O75 O 0.64041 0.11905 0.64881 0.0
C76 C 0.64911 0.13403 0.6652 0.0
C77 C 0.59463 0.03933 0.61131 0.0
C78 C 0.69595 0.04992 0.67805 0.0
C79 C 0.53923 0.06522 0.68291 0.0
O80 O 0.55443 0.0487 0.66955 0.0
O81 O 0.56165 0.08541 0.68555 0.0
O82 O 0.59655 0.02252 0.62662 0.0
O83 O 0.60427 0.0619 0.617 0.0
O84 O 0.29746 0.57145 0.82749 0.0
Cd85 Cd 0.35344 0.59232 0.83871 0.0
Cd86 Cd 0.3675 0.54859 0.86217 0.0
O87 O 0.30289 0.53864 0.84939 0.0
O88 O 0.33811 0.62534 0.82572 0.0
O89 O 0.34279 0.61899 0.86217 0.0
C90 C 0.33397 0.6339 0.84575 0.0
C91 C 0.38681 0.53907 0.89925 0.0
C92 C 0.28182 0.55059 0.83404 0.0
C93 C 0.43845 0.56308 0.82654 0.0
O94 O 0.42285 0.54681 0.84004 0.0
O95 O 0.41775 0.58386 0.82455 0.0
O96 O 0.38279 0.52208 0.8842 0.0
O97 O 0.37823 0.56171 0.89341 0.0
O98 O 0.18264 0.9423 0.826 0.0
Cd99 Cd 0.12739 0.92129 0.83781 0.0
Cd100 Cd 0.11252 0.96503 0.86139 0.0
O101 O 0.1759 0.97542 0.84749 0.0
O102 O 0.14158 0.88793 0.82525 0.0
O103 O 0.13851 0.8951 0.86163 0.0
C104 C 0.14574 0.87971 0.8454 0.0
C105 C 0.09534 0.97483 0.89865 0.0
C106 C 0.19726 0.96352 0.83218 0.0
C107 C 0.04003 0.94954 0.82695 0.0
O108 O 0.05523 0.96598 0.84038 0.0
O109 O 0.06225 0.9293 0.82436 0.0
O110 O 0.09796 0.99168 0.88341 0.0
O111 O 0.10434 0.9522 0.89292 0.0
C112 C 0.2589 0.51502 0.32907 0.0
C113 C 0.24577 0.53973 0.32476 0.0
C114 C 0.29471 0.50375 0.3166 0.0
C115 C 0.39324 0.51767 0.27764 0.0
H116 H 0.3675 0.45204 0.25385 0.0
C117 C 0.4874 0.48139 0.19991 0.0
C118 C 0.50765 0.45763 0.2012 0.0
C119 C 0.45615 0.48951 0.21632 0.0
C120 C 0.37536 0.47024 0.26058 0.0
H121 H 0.26144 0.57227 0.30465 0.0
H122 H 0.32312 0.55267 0.28292 0.0
H123 H 0.31424 0.47022 0.28155 0.0
H124 H 0.50877 0.42327 0.22016 0.0
H125 H 0.45332 0.43752 0.24882 0.0
H126 H 0.45342 0.51804 0.25615 0.0
C127 C 0.30624 0.54198 0.29603 0.0
C128 C 0.34505 0.48063 0.27651 0.0
C129 C 0.27059 0.55321 0.30843 0.0
C130 C 0.49389 0.44169 0.21869 0.0
C131 C 0.46219 0.44982 0.2351 0.0
C132 C 0.42322 0.50739 0.26165 0.0
C133 C 0.31819 0.51699 0.29966 0.0
C134 C 0.35316 0.50469 0.28486 0.0
C135 C 0.44409 0.47406 0.23436 0.0
C136 C 0.41405 0.48381 0.25262 0.0
H137 H 0.24053 0.50411 0.34155 0.0
H138 H 0.30353 0.48457 0.32 0.0
H139 H 0.40109 0.536 0.28408 0.0
H140 H 0.49683 0.49412 0.1866 0.0
H141 H 0.44193 0.50812 0.21509 0.0
C142 C 0.98774 0.07055 0.21841 0.0
C143 C 0.97332 0.05419 0.20135 0.0
C144 C 0.01955 0.06271 0.23487 0.0
C145 C 0.05829 1.00576 0.2626 0.0
H146 H 0.1686 0.04297 0.28073 0.0
C147 C 0.21197 0.96047 0.30886 0.0
C148 C 0.23754 0.97417 0.32477 0.0
C149 C 0.17607 0.97159 0.29655 0.0
C150 C 0.13743 0.03257 0.27619 0.0
H151 H 0.98291 0.01719 0.18763 0.0
H152 H 0.03803 1.0037 0.21623 0.0
H153 H 0.11466 0.06059 0.25304 0.0
H154 H 0.24401 0.01011 0.34088 0.0
H155 H 0.1806 0.02951 0.31947 0.0
H156 H 0.08078 0.97771 0.2855 0.0
C157 C 0.02427 0.02242 0.21706 0.0
C158 C 0.10673 0.04264 0.26027 0.0
C159 C -0.0071 0.03025 0.20058 0.0
C160 C 0.22502 0.99904 0.32873 0.0
C161 C 0.18897 0.01021 0.31635 0.0
C162 C 0.08867 0.99581 0.27857 0.0
C163 C 0.03711 0.03835 0.23464 0.0
C164 C 0.06754 0.02902 0.25293 0.0
C165 C 0.16463 0.9967 0.29985 0.0
C166 C 0.12925 0.00879 0.28515 0.0
H167 H 0.97339 0.08912 0.21947 0.0
H168 H 0.02902 0.07537 0.24823 0.0
H169 H 0.02774 0.99511 0.25759 0.0
H170 H 0.22061 0.94128 0.30535 0.0
H171 H 0.15854 0.9607 0.28378 0.0
C172 C 0.76982 0.45992 0.20178 0.0
C173 C 0.74458 0.47354 0.18571 0.0
C174 C 0.80566 0.47106 0.21412 0.0
C175 C 0.84462 0.53214 0.23416 0.0
H176 H 0.95386 0.49466 0.25325 0.0
C177 C -0.00578 0.57052 0.29176 0.0
C178 C 0.00862 0.55432 0.30894 0.0
C179 C 0.96237 0.56254 0.27537 0.0
C180 C 0.92342 0.50532 0.24811 0.0
H181 H 0.73867 0.50936 0.16933 0.0
H182 H 0.80199 0.52879 0.1908 0.0
H183 H 0.90089 0.47708 0.22539 0.0
H184 H -0.00105 0.51747 0.32296 0.0
H185 H 0.94373 0.50372 0.29448 0.0
H186 H 0.86744 0.56035 0.25712 0.0
C187 C 0.79338 0.50954 0.19403 0.0
C188 C 0.89308 0.49526 0.23216 0.0
C189 C 0.75739 0.49834 0.18161 0.0
C190 C 0.98898 0.5304 0.3099 0.0
C191 C 0.95756 0.52242 0.29349 0.0
C192 C 0.87528 0.5423 0.25006 0.0
C193 C 0.81737 0.49612 0.21069 0.0
C194 C 0.85268 0.50826 0.2254 0.0
C195 C 0.94474 0.53819 0.2758 0.0
C196 C 0.9143 0.52869 0.25757 0.0
H197 H 0.76094 0.44078 0.20539 0.0
H198 H 0.82292 0.46024 0.22701 0.0
H199 H 0.81358 0.54255 0.22947 0.0
H200 H 0.00863 0.58908 0.29056 0.0
H201 H 0.95294 0.57508 0.26191 0.0
C202 C 0.7234 0.01438 0.18083 0.0
C203 C 0.73634 0.03915 0.18502 0.0
C204 C 0.6875 1.00314 0.19327 0.0
C205 C 0.58848 0.01719 0.23192 0.0
H206 H 0.61443 0.95184 0.25624 0.0
C207 C 0.4945 0.98156 0.30994 0.0
C208 C 0.47424 0.95779 0.30884 0.0
C209 C 0.5257 0.98955 0.29345 0.0
C210 C 0.60651 0.96996 0.24936 0.0
H211 H 0.72023 0.07182 0.20488 0.0
H212 H 0.65842 0.05227 0.22655 0.0
H213 H 0.66776 0.96985 0.22848 0.0
H214 H 0.47304 0.92326 0.29011 0.0
H215 H 0.52842 0.93727 0.26131 0.0
H216 H 0.5282 0.01765 0.25333 0.0
C217 C 0.6755 0.04152 0.21356 0.0
C218 C 0.63686 0.98025 0.2334 0.0
C219 C 0.71124 0.05271 0.20118 0.0
C220 C 0.48793 0.9417 0.29144 0.0
C221 C 0.51959 0.94969 0.27495 0.0
C222 C 0.55847 0.00701 0.24795 0.0
C223 C 0.66374 0.01647 0.21006 0.0
C224 C 0.62869 1.00422 0.22486 0.0
C225 C 0.5377 0.97394 0.27552 0.0
C226 C 0.56771 0.98354 0.25718 0.0
H227 H 0.74199 1.00341 0.16847 0.0
H228 H 0.67884 0.98391 0.18996 0.0
H229 H 0.58058 0.03544 0.22533 0.0
H230 H 0.48512 0.99441 0.32317 0.0
H231 H 0.53993 0.00817 0.29453 0.0
C232 C 0.49777 0.53263 0.81258 0.0
C233 C 0.47764 0.55642 0.81134 0.0
C234 C 0.52944 0.52463 0.7963 0.0
C235 C 0.61103 0.54406 0.75238 0.0
H236 H 0.58422 0.47877 0.72811 0.0
C237 C 0.72614 0.49975 0.68308 0.0
C238 C 0.73873 0.47488 0.68696 0.0
C239 C 0.69083 0.51103 0.69585 0.0
C240 C 0.59238 0.49696 0.73478 0.0
H241 H 0.47728 0.59099 0.79267 0.0
H242 H 0.53344 0.57695 0.76425 0.0
H243 H 0.53218 0.49657 0.75624 0.0
H244 H 0.7227 0.44211 0.70671 0.0
H245 H 0.66191 0.46173 0.72897 0.0
H246 H 0.67215 0.54411 0.73141 0.0
C247 C 0.52417 0.56453 0.77783 0.0
C248 C 0.56258 0.50714 0.75089 0.0
C249 C 0.49207 0.57254 0.7941 0.0
C250 C 0.71396 0.46129 0.70323 0.0
C251 C 0.67881 0.47253 0.71595 0.0
C252 C 0.64118 0.53377 0.73634 0.0
C253 C 0.54202 0.54024 0.77845 0.0
C254 C 0.5721 0.53056 0.76018 0.0
C255 C 0.66732 0.49764 0.71269 0.0
C256 C 0.63267 0.50987 0.7277 0.0
H257 H 0.48783 0.51977 0.8257 0.0
H258 H 0.54346 0.50598 0.79744 0.0
H259 H 0.61915 0.56214 0.75931 0.0
H260 H 0.7445 0.51074 0.67065 0.0
H261 H 0.68237 0.53032 0.69274 0.0
C262 C 0.74859 0.01343 0.68594 0.0
C263 C 0.73455 0.03792 0.69069 0.0
C264 C 0.78057 1.00118 0.69994 0.0
C265 C 0.82022 1.00176 0.75823 0.0
H266 H 0.92931 0.96543 0.73728 0.0
C267 C 0.97376 0.97746 0.81609 0.0
C268 C -0.00156 0.95516 0.81291 0.0
C269 C 0.93807 0.98442 0.80138 0.0
C270 C 0.89848 0.97509 0.74339 0.0
H271 H 0.74507 0.0691 0.71323 0.0
H272 H 0.80049 0.04775 0.73746 0.0
H273 H 0.87547 0.98409 0.7101 0.0
H274 H 0.00356 0.92215 0.79222 0.0
H275 H 0.94053 0.93423 0.76659 0.0
H276 H 0.84292 0.99299 0.79143 0.0
C277 C 0.78629 0.03793 0.72313 0.0
C278 C 0.86784 0.98584 0.72782 0.0
C279 C 0.75475 0.0502 0.70912 0.0
C280 C 0.98528 0.93948 0.79513 0.0
C281 C 0.94945 0.94648 0.78035 0.0
C282 C 0.85054 0.9909 0.77374 0.0
C283 C 0.79868 0.01314 0.719 0.0
C284 C 0.82909 0.9998 0.73514 0.0
C285 C 0.92596 0.96923 0.78312 0.0
C286 C 0.89068 0.97796 0.76654 0.0
H287 H 0.73374 1.00345 0.67186 0.0
H288 H 0.78967 0.98207 0.69637 0.0
H289 H 0.78998 0.01196 0.76432 0.0
H290 H 0.98292 0.99001 0.82959 0.0
H291 H 0.9212 1.00223 0.80386 0.0
C292 C 0.22157 0.55176 0.80363 0.0
C293 C 0.24211 0.53911 0.82176 0.0
C294 C 0.18936 0.53984 0.78971 0.0
C295 C 0.10721 0.488 0.78458 0.0
H296 H 0.13258 0.49557 0.72105 0.0
C297 C -0.00899 0.4417 0.71659 0.0
C298 C 0.97829 0.45733 0.69871 0.0
C299 C 0.02626 0.44883 0.73165 0.0
C300 C 0.12481 0.49337 0.73871 0.0
H301 H 0.24267 0.50442 0.84025 0.0
H302 H 0.18559 0.48366 0.81589 0.0
H303 H 0.18539 0.51432 0.74833 0.0
H304 H -0.00619 0.4923 0.68223 0.0
H305 H 0.05447 0.50474 0.70844 0.0
H306 H 0.04575 0.46766 0.7749 0.0
C307 C 0.19494 0.50277 0.81248 0.0
C308 C 0.15506 0.50411 0.75432 0.0
C309 C 0.22757 0.51468 0.8264 0.0
C310 C 0.00266 0.47978 0.69579 0.0
C311 C 0.03775 0.48687 0.71078 0.0
C312 C 0.07662 0.47737 0.7689 0.0
C313 C 0.17666 0.51505 0.79363 0.0
C314 C 0.14606 0.50197 0.77738 0.0
C315 C 0.04957 0.47167 0.72907 0.0
C316 C 0.0846 0.48039 0.74578 0.0
H317 H 0.23159 0.57064 0.79964 0.0
H318 H 0.17503 0.5499 0.77555 0.0
H319 H 0.09952 0.4861 0.80227 0.0
H320 H 0.97295 0.42426 0.71931 0.0
H321 H 0.03496 0.43658 0.74543 0.0
C322 C 0.25047 0.99983 0.82448 0.0
C323 C 0.23607 0.97543 0.81959 0.0
C324 C 0.28235 0.01213 0.81046 0.0
C325 C 0.3206 0.01214 0.752 0.0
H326 H 0.43011 0.04837 0.77267 0.0
C327 C 0.47252 0.03746 0.6935 0.0
C328 C 0.49754 0.05964 0.69689 0.0
C329 C 0.43706 0.03034 0.70828 0.0
C330 C 0.39915 0.03875 0.76665 0.0
H331 H 0.24594 0.94442 0.7968 0.0
H332 H 0.30123 0.96587 0.77253 0.0
H333 H 0.3771 0.02925 0.79997 0.0
H334 H 0.50338 0.0923 0.71799 0.0
H335 H 0.4407 0.07993 0.74372 0.0
H336 H 0.3423 0.02144 0.71877 0.0
C337 C 0.28737 0.97558 0.78699 0.0
C338 C 0.369 0.02772 0.78228 0.0
C339 C 0.25592 0.96325 0.80102 0.0
C340 C 0.48482 0.07508 0.71491 0.0
C341 C 0.44921 0.0679 0.72976 0.0
C342 C 0.35042 0.02329 0.73642 0.0
C343 C 0.30002 1.00032 0.79124 0.0
C344 C 0.3301 0.01381 0.77505 0.0
C345 C 0.4255 0.04523 0.72682 0.0
C346 C 0.3907 0.03621 0.74351 0.0
H347 H 0.23591 0.00973 0.83867 0.0
H348 H 0.29165 0.0312 0.81413 0.0
H349 H 0.29023 1.00199 0.74599 0.0
H350 H 0.48132 0.02511 0.67981 0.0
H351 H 0.42002 0.0126 0.70564 0.0
C352 C 0.06757 0.50778 0.42708 0.0
C353 C 0.07583 0.53267 0.42121 0.0
C354 C 0.04761 0.50174 0.44774 0.0
C355 C 0.97421 0.52809 0.49268 0.0
H356 H 0.01644 0.47054 0.52609 0.0
C357 C 0.91148 0.50667 0.58263 0.0
C358 C 0.90325 0.48177 0.58846 0.0
C359 C 0.93093 0.51277 0.56187 0.0
C360 C 0.00381 0.48647 0.51681 0.0
H361 H 0.0706 0.57073 0.43271 0.0
H362 H 0.03611 0.56015 0.46901 0.0
H363 H 0.05601 0.48187 0.49132 0.0
H364 H 0.90786 0.44375 0.57678 0.0
H365 H 0.94154 0.45443 0.54033 0.0
H366 H 0.92206 0.53271 0.5182 0.0
C367 C 0.04455 0.54533 0.45743 0.0
C368 C 0.02658 0.49301 0.49691 0.0
C369 C 0.06464 0.55138 0.43671 0.0
C370 C 0.91381 0.46311 0.5728 0.0
C371 C 0.93343 0.46922 0.552 0.0
C372 C 0.95145 0.52156 0.51259 0.0
C373 C 0.03538 0.52043 0.46308 0.0
C374 C 0.01204 0.51389 0.48459 0.0
C375 C 0.94273 0.49412 0.54642 0.0
C376 C 0.96598 0.50066 0.52489 0.0
H377 H 0.07567 0.49288 0.41551 0.0
H378 H 0.04055 0.48241 0.45142 0.0
H379 H 0.96158 0.54403 0.4834 0.0
H380 H 0.90382 0.52152 0.59431 0.0
H381 H 0.93806 0.5321 0.55822 0.0
C382 C 0.41849 0.9625 0.43674 0.0
C383 C 0.40807 0.98106 0.42097 0.0
C384 C 0.43864 0.96871 0.45741 0.0
C385 C 0.45791 0.02151 0.49621 0.0
H386 H 0.5605 0.98109 0.51851 0.0
C387 C 0.56975 0.0514 0.57241 0.0
C388 C 0.57896 0.03287 0.58838 0.0
C389 C 0.55066 0.04518 0.55152 0.0
C390 C 0.53166 0.99246 0.5126 0.0
H391 H 0.40975 0.02073 0.41472 0.0
H392 H 0.44498 0.03146 0.45053 0.0
H393 H 0.52125 0.96962 0.48367 0.0
H394 H 0.57669 0.99322 0.59469 0.0
H395 H 0.54341 0.98246 0.55843 0.0
H396 H 0.4683 0.04435 0.52514 0.0
C397 C 0.43725 0.01215 0.44711 0.0
C398 C 0.50905 0.98583 0.49268 0.0
C399 C 0.41723 1.00595 0.4265 0.0
C400 C 0.57005 0.00797 0.58277 0.0
C401 C 0.55115 1.00176 0.56192 0.0
C402 C 0.48053 0.02815 0.51613 0.0
C403 C 0.44865 0.9936 0.46274 0.0
C404 C 0.4719 1.00028 0.48424 0.0
C405 C 0.54059 0.02031 0.54616 0.0
C406 C 0.51765 0.01369 0.52457 0.0
H407 H 0.41183 0.94315 0.433 0.0
H408 H 0.44642 0.95401 0.46921 0.0
H409 H 0.429 0.03286 0.49035 0.0
H410 H 0.57623 0.07075 0.57622 0.0
H411 H 0.5435 0.05987 0.53962 0.0
C412 C 0.56662 0.50547 0.08352 0.0
C413 C 0.57501 0.48053 0.08917 0.0
C414 C 0.54675 0.5117 0.06289 0.0
C415 C 0.4737 0.48573 0.01766 0.0
H416 H 0.51617 0.54356 0.98468 0.0
C417 C 0.41152 0.50773 0.92777 0.0
C418 C 0.40339 0.53267 0.92204 0.0
C419 C 0.43086 0.50152 0.94852 0.0
C420 C 0.50346 0.52755 0.99384 0.0
H421 H 0.57006 0.44259 0.07733 0.0
H422 H 0.53568 0.4535 0.04109 0.0
H423 H 0.55549 0.53197 0.01944 0.0
H424 H 0.40806 0.57063 0.93388 0.0
H425 H 0.44152 0.55974 0.97032 0.0
H426 H 0.4217 0.48129 0.99203 0.0
C427 C 0.54398 0.46821 0.05281 0.0
C428 C 0.5261 0.52086 0.01373 0.0
C429 C 0.564 0.46197 0.07349 0.0
C430 C 0.41394 0.55125 0.93778 0.0
C431 C 0.43344 0.54502 0.95858 0.0
C432 C 0.45106 0.49242 0.99776 0.0
C433 C 0.53472 0.49315 0.04737 0.0
C434 C 0.51149 0.49987 0.02588 0.0
C435 C 0.44262 0.52009 0.96407 0.0
C436 C 0.46569 0.5134 0.98561 0.0
H437 H 0.57459 0.52025 0.09522 0.0
H438 H 0.53962 0.53105 0.05937 0.0
H439 H 0.46102 0.46971 0.02681 0.0
H440 H 0.40387 0.49295 0.91602 0.0
H441 H 0.43792 0.48217 0.95209 0.0
C442 C 0.06939 0.96281 0.93741 0.0
C443 C 0.07951 0.98133 0.92155 0.0
C444 C 0.05006 0.9691 0.95823 0.0
C445 C 0.98208 0.01901 0.98571 0.0
H446 H 0.01916 0.98589 0.04058 0.0
C447 C 0.91881 0.05078 0.07352 0.0
C448 C 0.90767 0.03207 0.08903 0.0
C449 C 0.93929 0.04474 0.05289 0.0
C450 C 0.00804 0.99513 0.02536 0.0
H451 H 0.079 0.02103 0.91544 0.0
H452 H 0.04612 0.03195 0.95175 0.0
H453 H 0.05758 0.97496 0.0054 0.0
H454 H 0.90803 0.99229 0.09479 0.0
H455 H 0.94306 0.98182 0.05883 0.0
H456 H 0.93251 0.03916 0.00567 0.0
C457 C 0.05213 0.01255 0.94799 0.0
C458 C 0.03009 0.98887 0.0052 0.0
C459 C 0.07134 1.00627 0.92722 0.0
C460 C 0.91638 0.00719 0.08327 0.0
C461 C 0.93682 1.00117 0.06271 0.0
C462 C 0.96005 0.02529 0.00587 0.0
C463 C 0.04051 0.99403 0.96361 0.0
C464 C 0.01738 1.00073 0.98513 0.0
C465 C 0.94909 0.01987 0.04738 0.0
C466 C 0.97269 0.01338 0.02593 0.0
H467 H 0.07512 0.94341 0.93352 0.0
H468 H 0.04122 0.95436 0.96983 0.0
H469 H 0.97085 0.02822 0.97049 0.0
H470 H 0.91267 0.07012 0.07748 0.0
H471 H 0.94862 0.0596 0.04151 0.0
C472 C 0.16246 0.67603 0.3305 0.0
C473 C 0.1581 0.65999 0.34894 0.0
C474 C 0.17767 0.70041 0.33338 0.0
C475 C 0.24661 0.74035 0.37083 0.0
H476 H 0.19347 0.79226 0.33363 0.0
C477 C 0.31006 0.84408 0.36984 0.0
C478 C 0.31607 0.85399 0.3482 0.0
C479 C 0.28949 0.82062 0.37276 0.0
C480 C 0.20874 0.77796 0.34411 0.0
H481 H 0.16567 0.65715 0.38501 0.0
H482 H 0.19233 0.7001 0.39008 0.0
H483 H 0.15707 0.75137 0.33412 0.0
H484 H 0.30676 0.8466 0.3127 0.0
H485 H 0.27115 0.80606 0.31783 0.0
H486 H 0.29877 0.76715 0.38052 0.0
C487 C 0.18411 0.6936 0.37336 0.0
C488 C 0.18791 0.75453 0.34439 0.0
C489 C 0.16856 0.66909 0.37047 0.0
C490 C 0.30244 0.83966 0.32962 0.0
C491 C 0.2817 0.81646 0.33254 0.0
C492 C 0.26741 0.76396 0.37063 0.0
C493 C 0.18902 0.70949 0.35478 0.0
C494 C 0.20737 0.73522 0.35721 0.0
C495 C 0.27419 0.80685 0.35412 0.0
C496 C 0.24943 0.78275 0.35673 0.0
H497 H 0.15482 0.66965 0.31367 0.0
H498 H 0.18178 0.71196 0.31865 0.0
H499 H 0.26258 0.72585 0.38081 0.0
H500 H 0.3202 0.85467 0.38449 0.0
H501 H 0.28419 0.81361 0.38959 0.0
C502 C 0.81327 0.16874 0.13966 0.0
C503 C 0.82351 0.15957 0.16118 0.0
C504 C 0.79761 0.19324 0.13684 0.0
C505 C 0.79321 0.25401 0.16605 0.0
H506 H 0.68289 0.26671 0.12959 0.0
C507 C 0.67855 0.33908 0.18069 0.0
C508 C 0.66532 0.35348 0.1621 0.0
C509 C 0.69922 0.31586 0.17778 0.0
C510 C 0.7141 0.2635 0.13957 0.0
H511 H 0.82625 0.16905 0.19651 0.0
H512 H 0.79911 0.21133 0.19163 0.0
H513 H 0.71914 0.22544 0.12926 0.0
H514 H 0.66177 0.35429 0.1258 0.0
H515 H 0.69767 0.31322 0.12071 0.0
H516 H 0.78744 0.29169 0.17693 0.0
C517 C 0.80347 0.19986 0.17686 0.0
C518 C 0.73493 0.23991 0.13936 0.0
C519 C 0.81879 0.17549 0.17968 0.0
C520 C 0.67162 0.34365 0.14046 0.0
C521 C 0.69211 0.32017 0.13754 0.0
C522 C 0.77235 0.27742 0.16635 0.0
C523 C 0.79237 0.20903 0.15546 0.0
C524 C 0.77398 0.23474 0.15309 0.0
C525 C 0.70706 0.30632 0.1562 0.0
C526 C 0.73184 0.28225 0.1536 0.0
H527 H 0.81644 0.15688 0.12509 0.0
H528 H 0.78959 0.19981 0.12012 0.0
H529 H 0.82391 0.25084 0.17641 0.0
H530 H 0.674 0.34596 0.19761 0.0
H531 H 0.70949 0.30541 0.19249 0.0
C532 C 0.68076 0.17392 0.68006 0.0
C533 C 0.66745 0.15945 0.66151 0.0
C534 C 0.70173 0.19705 0.67706 0.0
C535 C 0.716 0.24929 0.63882 0.0
H536 H 0.82546 0.26261 0.67571 0.0
C537 C 0.81274 0.34479 0.63934 0.0
C538 C 0.82286 0.3539 0.6609 0.0
C539 C 0.79761 0.32021 0.6364 0.0
C540 C 0.79486 0.25924 0.66533 0.0
H541 H 0.66436 0.15837 0.62521 0.0
H542 H 0.70074 0.19933 0.61999 0.0
H543 H 0.78996 0.2215 0.67612 0.0
H544 H 0.82581 0.34422 0.69618 0.0
H545 H 0.79954 0.30182 0.6911 0.0
H546 H 0.72007 0.28742 0.62864 0.0
C547 C 0.69502 0.19248 0.63683 0.0
C548 C 0.77457 0.23569 0.66556 0.0
C549 C 0.67428 0.16907 0.63983 0.0
C550 C 0.81844 0.33784 0.67933 0.0
C551 C 0.80364 0.3134 0.67639 0.0
C552 C 0.73624 0.27302 0.63868 0.0
C553 C 0.70976 0.20646 0.65546 0.0
C554 C 0.73419 0.23063 0.6528 0.0
C555 C 0.79279 0.30427 0.65494 0.0
C556 C 0.77512 0.27843 0.65244 0.0
H557 H 0.67588 0.16719 0.697 0.0
H558 H 0.7119 0.2076 0.69175 0.0
H559 H 0.68484 0.24589 0.62884 0.0
H560 H 0.8157 0.35674 0.62482 0.0
H561 H 0.78975 0.31368 0.61965 0.0
C562 C 0.31027 0.66928 0.87105 0.0
C563 C 0.31655 0.6595 0.84939 0.0
C564 C 0.28988 0.69278 0.87402 0.0
C565 C 0.2096 0.73559 0.84553 0.0
H566 H 0.26494 0.78794 0.88147 0.0
C567 C 0.16384 0.83732 0.83106 0.0
C568 C 0.15979 0.8536 0.84935 0.0
C569 C 0.17927 0.81302 0.83413 0.0
C570 C 0.24855 0.77337 0.87171 0.0
H571 H 0.30774 0.66709 0.81389 0.0
H572 H 0.27229 0.70764 0.81911 0.0
H573 H 0.3005 0.74648 0.88143 0.0
H574 H 0.16841 0.85699 0.88532 0.0
H575 H 0.19545 0.81417 0.89072 0.0
H576 H 0.15811 0.76222 0.83552 0.0
C577 C 0.28262 0.69715 0.83379 0.0
C578 C 0.26898 0.74968 0.87165 0.0
C579 C 0.30325 0.67394 0.83083 0.0
C580 C 0.17107 0.84487 0.8709 0.0
C581 C 0.1868 0.82042 0.87398 0.0
C582 C 0.18911 0.75908 0.84568 0.0
C583 C 0.27497 0.70667 0.85539 0.0
C584 C 0.25047 0.7308 0.85801 0.0
C585 C 0.19112 0.80425 0.85557 0.0
C586 C 0.20914 0.77849 0.8582 0.0
H587 H 0.32019 0.65861 0.88569 0.0
H588 H 0.28444 0.69973 0.89085 0.0
H589 H 0.19398 0.72122 0.83523 0.0
H590 H 0.15561 0.84341 0.81421 0.0
H591 H 0.18299 0.80126 0.81951 0.0
loop_
_geom_bond_atom_site_label_1
_geom_bond_atom_site_label_2
_geom_bond_distance
_geom_bond_site_symmetry_2
_ccdc_geom_bond_type
O0 Cd1 2.223 . S
O0 C8 1.315 . S
Cd1 O0 2.223 . S
Cd1 O4 2.297 . S
Cd1 O5 2.439 . S
Cd1 O11 2.240 . S
Cd2 O3 2.240 . S
Cd2 O10 2.223 . S
Cd2 O12 2.297 . S
Cd2 O13 2.439 . S
O3 Cd2 2.240 . S
O3 C8 1.279 . S
O4 Cd1 2.297 . S
O4 C6 1.247 . S
O5 Cd1 2.439 . S
O5 C6 1.208 . S
C6 O4 1.247 . S
C6 O5 1.208 . S
C7 O12 1.247 . S
C7 O13 1.208 . S
C8 O0 1.315 . S
C8 O3 1.279 . S
C9 O10 1.315 . S
C9 O11 1.279 . S
O10 Cd2 2.223 . S
O10 C9 1.315 . S
O11 Cd1 2.240 . S
O11 C9 1.279 . S
O12 Cd2 2.297 . S
O12 C7 1.247 . S
O13 Cd2 2.439 . S
O13 C7 1.208 . S
O14 Cd15 2.223 . S
O14 C22 1.315 . S
Cd15 O14 2.223 . S
Cd15 O18 2.297 . S
Cd15 O19 2.439 . S
Cd15 O25 2.240 . S
Cd16 O17 2.240 . S
Cd16 O24 2.223 . S
Cd16 O26 2.297 . S
Cd16 O27 2.439 . S
O17 Cd16 2.240 . S
O17 C22 1.279 . S
O18 Cd15 2.297 . S
O18 C20 1.247 . S
O19 Cd15 2.439 . S
O19 C20 1.208 . S
C20 O18 1.247 . S
C20 O19 1.208 . S
C21 O26 1.247 . S
C21 O27 1.208 . S
C22 O14 1.315 . S
C22 O17 1.279 . S
C23 O24 1.315 . S
C23 O25 1.279 . S
O24 Cd16 2.223 . S
O24 C23 1.315 . S
O25 Cd15 2.240 . S
O25 C23 1.279 . S
O26 Cd16 2.297 . S
O26 C21 1.247 . S
O27 Cd16 2.439 . S
O27 C21 1.208 . S
O28 Cd29 2.223 . S
O28 C36 1.315 . S
Cd29 O28 2.223 . S
Cd29 O32 2.297 . S
Cd29 O33 2.439 . S
Cd29 O39 2.240 . S
Cd30 O31 2.240 . S
Cd30 O38 2.223 . S
Cd30 O40 2.297 . S
Cd30 O41 2.439 . S
O31 Cd30 2.240 . S
O31 C36 1.279 . S
O32 Cd29 2.297 . S
O32 C34 1.247 . S
O33 Cd29 2.439 . S
O33 C34 1.208 . S
C34 O32 1.247 . S
C34 O33 1.208 . S
C35 O40 1.247 . S
C35 O41 1.208 . S
C36 O28 1.315 . S
C36 O31 1.279 . S
C37 O38 1.315 . S
C37 O39 1.279 . S
O38 Cd30 2.223 . S
O38 C37 1.315 . S
O39 Cd29 2.240 . S
O39 C37 1.279 . S
O40 Cd30 2.297 . S
O40 C35 1.247 . S
O41 Cd30 2.439 . S
O41 C35 1.208 . S
O42 Cd43 2.223 . S
O42 C50 1.315 . S
Cd43 O42 2.223 . S
Cd43 O46 2.297 . S
Cd43 O47 2.439 . S
Cd43 O53 2.240 . S
Cd44 O45 2.240 . S
Cd44 O52 2.223 . S
Cd44 O54 2.297 . S
Cd44 O55 2.439 . S
O45 Cd44 2.240 . S
O45 C50 1.279 . S
O46 Cd43 2.297 . S
O46 C48 1.247 . S
O47 Cd43 2.439 . S
O47 C48 1.208 . S
C48 O46 1.247 . S
C48 O47 1.208 . S
C49 O54 1.247 . S
C49 O55 1.208 . S
C50 O42 1.315 . S
C50 O45 1.279 . S
C51 O52 1.315 . S
C51 O53 1.279 . S
O52 Cd44 2.223 . S
O52 C51 1.315 . S
O53 Cd43 2.240 . S
O53 C51 1.279 . S
O54 Cd44 2.297 . S
O54 C49 1.247 . S
O55 Cd44 2.439 . S
O55 C49 1.208 . S
O56 Cd57 2.223 . S
O56 C64 1.315 . S
Cd57 O56 2.223 . S
Cd57 O60 2.297 . S
Cd57 O61 2.439 . S
Cd57 O67 2.240 . S
Cd58 O59 2.240 . S
Cd58 O66 2.223 . S
Cd58 O68 2.297 . S
Cd58 O69 2.439 . S
O59 Cd58 2.240 . S
O59 C64 1.279 . S
O60 Cd57 2.297 . S
O60 C62 1.247 . S
O61 Cd57 2.439 . S
O61 C62 1.208 . S
C62 O60 1.247 . S
C62 O61 1.208 . S
C63 O68 1.247 . S
C63 O69 1.208 . S
C64 O56 1.315 . S
C64 O59 1.279 . S
C65 O66 1.315 . S
C65 O67 1.279 . S
O66 Cd58 2.223 . S
O66 C65 1.315 . S
O67 Cd57 2.240 . S
O67 C65 1.279 . S
O68 Cd58 2.297 . S
O68 C63 1.247 . S
O69 Cd58 2.439 . S
O69 C63 1.208 . S
O70 Cd71 2.223 . S
O70 C78 1.315 . S
Cd71 O70 2.223 . S
Cd71 O74 2.297 . S
Cd71 O75 2.439 . S
Cd71 O81 2.240 . S
Cd72 O73 2.240 . S
Cd72 O80 2.223 . S
Cd72 O82 2.297 . S
Cd72 O83 2.439 . S
O73 Cd72 2.240 . S
O73 C78 1.279 . S
O74 Cd71 2.297 . S
O74 C76 1.247 . S
O75 Cd71 2.439 . S
O75 C76 1.208 . S
C76 O74 1.247 . S
C76 O75 1.208 . S
C77 O82 1.247 . S
C77 O83 1.208 . S
C78 O70 1.315 . S
C78 O73 1.279 . S
C79 O80 1.315 . S
C79 O81 1.279 . S
O80 Cd72 2.223 . S
O80 C79 1.315 . S
O81 Cd71 2.240 . S
O81 C79 1.279 . S
O82 Cd72 2.297 . S
O82 C77 1.247 . S
O83 Cd72 2.439 . S
O83 C77 1.208 . S
O84 Cd85 2.223 . S
O84 C92 1.315 . S
Cd85 O84 2.223 . S
Cd85 O88 2.297 . S
Cd85 O89 2.439 . S
Cd85 O95 2.240 . S
Cd86 O87 2.240 . S
Cd86 O94 2.223 . S
Cd86 O96 2.297 . S
Cd86 O97 2.439 . S
O87 Cd86 2.240 . S
O87 C92 1.279 . S
O88 Cd85 2.297 . S
O88 C90 1.247 . S
O89 Cd85 2.439 . S
O89 C90 1.208 . S
C90 O88 1.247 . S
C90 O89 1.208 . S
C91 O96 1.247 . S
C91 O97 1.208 . S
C92 O84 1.315 . S
C92 O87 1.279 . S
C93 O94 1.315 . S
C93 O95 1.279 . S
O94 Cd86 2.223 . S
O94 C93 1.315 . S
O95 Cd85 2.240 . S
O95 C93 1.279 . S
O96 Cd86 2.297 . S
O96 C91 1.247 . S
O97 Cd86 2.439 . S
O97 C91 1.208 . S
O98 Cd99 2.223 . S
O98 C106 1.315 . S
Cd99 O98 2.223 . S
Cd99 O102 2.297 . S
Cd99 O103 2.439 . S
Cd99 O109 2.240 . S
Cd100 O101 2.240 . S
Cd100 O108 2.223 . S
Cd100 O110 2.297 . S
Cd100 O111 2.439 . S
O101 Cd100 2.240 . S
O101 C106 1.279 . S
O102 Cd99 2.297 . S
O102 C104 1.247 . S
O103 Cd99 2.439 . S
O103 C104 1.208 . S
C104 O102 1.247 . S
C104 O103 1.208 . S
C105 O110 1.247 . S
C105 O111 1.208 . S
C106 O98 1.315 . S
C106 O101 1.279 . S
C107 O108 1.315 . S
C107 O109 1.279 . S
O108 Cd100 2.223 . S
O108 C107 1.315 . S
O109 Cd99 2.240 . S
O109 C107 1.279 . S
O110 Cd100 2.297 . S
O110 C105 1.247 . S
O111 Cd100 2.439 . S
O111 C105 1.208 . S
C112 C113 1.349 . S
C112 C114 1.327 . S
C112 H137 0.950 . S
C113 C112 1.349 . S
C113 C129 1.349 . S
C114 C112 1.327 . S
C114 C133 1.429 . S
C114 H138 0.950 . S
C115 C132 1.574 . S
C115 C134 1.368 . S
C115 H139 0.949 . S
H116 C120 0.949 . S
C117 C118 1.349 . S
C117 C119 1.327 . S
C117 H140 0.950 . S
C118 C117 1.349 . S
C118 C130 1.349 . S
C119 C117 1.327 . S
C119 C135 1.429 . S
C119 H141 0.950 . S
C120 H116 0.949 . S
C120 C128 1.574 . S
C120 C136 1.368 . S
H121 C129 0.950 . S
H122 C127 0.950 . S
H123 C128 0.949 . S
H124 C130 0.950 . S
H125 C131 0.950 . S
H126 C132 0.949 . S
C127 H122 0.950 . S
C127 C129 1.327 . S
C127 C133 1.429 . S
C128 C120 1.574 . S
C128 H123 0.949 . S
C128 C134 1.368 . S
C129 C113 1.349 . S
C129 H121 0.950 . S
C129 C127 1.327 . S
C130 C118 1.349 . S
C130 H124 0.950 . S
C130 C131 1.327 . S
C131 H125 0.950 . S
C131 C130 1.327 . S
C131 C135 1.429 . S
C132 C115 1.574 . S
C132 H126 0.949 . S
C132 C136 1.368 . S
C133 C114 1.429 . S
C133 C127 1.429 . S
C133 C134 1.523 . S
C134 C115 1.368 . S
C134 C128 1.368 . S
C134 C133 1.523 . S
C135 C119 1.429 . S
C135 C131 1.429 . S
C135 C136 1.523 . S
C136 C120 1.368 . S
C136 C132 1.368 . S
C136 C135 1.523 . S
H137 C112 0.950 . S
H138 C114 0.950 . S
H139 C115 0.949 . S
H140 C117 0.950 . S
H141 C119 0.950 . S
C142 C143 1.349 1_455 S
C142 C144 1.327 . S
C142 H167 0.950 . S
C143 C142 1.349 1_655 S
C143 C159 1.349 . S
C144 C142 1.327 . S
C144 C163 1.429 . S
C144 H168 0.950 . S
C145 C162 1.574 . S
C145 C164 1.368 1_565 S
C145 H169 0.949 . S
H146 C150 0.949 . S
C147 C148 1.349 . S
C147 C149 1.327 . S
C147 H170 0.950 . S
C148 C147 1.349 . S
C148 C160 1.349 . S
C149 C147 1.327 . S
C149 C165 1.429 . S
C149 H171 0.950 . S
C150 H146 0.949 . S
C150 C158 1.574 . S
C150 C166 1.368 1_545 S
H151 C159 0.928 1_565 S
H152 C157 0.945 1_565 S
H153 C158 0.949 . S
H154 C160 0.950 . S
H155 C161 0.950 1_545 S
H156 C162 0.949 . S
C157 H152 0.945 1_545 S
C157 C159 1.329 1_455 S
C157 C163 1.431 . S
C158 C150 1.574 . S
C158 H153 0.949 . S
C158 C164 1.368 . S
C159 C143 1.349 . S
C159 H151 0.928 1_545 S
C159 C157 1.329 1_655 S
C160 C148 1.349 . S
C160 H154 0.950 . S
C160 C161 1.327 . S
C161 H155 0.950 1_565 S
C161 C160 1.327 . S
C161 C165 1.429 . S
C162 C145 1.574 . S
C162 H156 0.949 . S
C162 C166 1.368 . S
C163 C144 1.429 . S
C163 C157 1.431 . S
C163 C164 1.523 . S
C164 C145 1.368 1_545 S
C164 C158 1.368 . S
C164 C163 1.523 . S
C165 C149 1.429 . S
C165 C161 1.429 . S
C165 C166 1.523 . S
C166 C150 1.368 1_565 S
C166 C162 1.368 . S
C166 C165 1.523 . S
H167 C142 0.950 . S
H168 C144 0.950 . S
H169 C145 0.949 . S
H170 C147 0.950 . S
H171 C149 0.950 . S
C172 C173 1.349 . S
C172 C174 1.327 . S
C172 H197 0.950 . S
C173 C172 1.349 . S
C173 C189 1.349 . S
C174 C172 1.327 . S
C174 C193 1.429 . S
C174 H198 0.950 . S
C175 C192 1.574 . S
C175 C194 1.368 . S
C175 H199 0.949 . S
H176 C180 0.949 . S
C177 C178 1.349 1_655 S
C177 C179 1.327 . S
C177 H200 0.950 . S
C178 C177 1.349 1_455 S
C178 C190 1.349 . S
C179 C177 1.327 . S
C179 C195 1.429 . S
C179 H201 0.950 . S
C180 H176 0.949 . S
C180 C188 1.574 . S
C180 C196 1.368 . S
H181 C189 0.950 . S
H182 C187 0.950 . S
H183 C188 0.949 . S
H184 C190 0.950 . S
H185 C191 0.950 . S
H186 C192 0.949 . S
C187 H182 0.950 . S
C187 C189 1.327 . S
C187 C193 1.429 . S
C188 C180 1.574 . S
C188 H183 0.949 . S
C188 C194 1.368 . S
C189 C173 1.349 . S
C189 H181 0.950 . S
C189 C187 1.327 . S
C190 C178 1.349 . S
C190 H184 0.950 . S
C190 C191 1.327 1_455 S
C191 H185 0.950 . S
C191 C190 1.327 1_655 S
C191 C195 1.429 . S
C192 C175 1.574 . S
C192 H186 0.949 . S
C192 C196 1.368 . S
C193 C174 1.429 . S
C193 C187 1.429 . S
C193 C194 1.523 . S
C194 C175 1.368 . S
C194 C188 1.368 . S
C194 C193 1.523 . S
C195 C179 1.429 . S
C195 C191 1.429 . S
C195 C196 1.523 . S
C196 C180 1.368 . S
C196 C192 1.368 . S
C196 C195 1.523 . S
H197 C172 0.950 . S
H198 C174 0.950 . S
H199 C175 0.949 . S
H200 C177 0.950 . S
H201 C179 0.950 . S
C202 C203 1.349 . S
C202 C204 1.327 . S
C202 H227 0.950 . S
C203 C202 1.349 . S
C203 C219 1.349 . S
C204 C202 1.327 . S
C204 C223 1.429 . S
C204 H228 0.950 1_545 S
C205 C222 1.574 . S
C205 C224 1.368 . S
C205 H229 0.949 . S
H206 C210 0.949 . S
C207 C208 1.349 . S
C207 C209 1.327 . S
C207 H230 0.966 . S
C208 C207 1.349 . S
C208 C220 1.349 . S
C209 C207 1.327 . S
C209 C225 1.429 . S
C209 H231 0.950 1_565 S
C210 H206 0.949 . S
C210 C218 1.574 . S
C210 C226 1.368 . S
H211 C219 0.950 . S
H212 C217 0.950 . S
H213 C218 0.949 . S
H214 C220 0.950 . S
H215 C221 0.950 . S
H216 C222 0.949 . S
C217 H212 0.950 . S
C217 C219 1.327 . S
C217 C223 1.429 . S
C218 C210 1.574 . S
C218 H213 0.949 . S
C218 C224 1.368 1_565 S
C219 C203 1.349 . S
C219 H211 0.950 . S
C219 C217 1.327 . S
C220 C208 1.349 . S
C220 H214 0.950 . S
C220 C221 1.327 . S
C221 H215 0.950 . S
C221 C220 1.327 . S
C221 C225 1.429 . S
C222 C205 1.574 . S
C222 H216 0.949 . S
C222 C226 1.368 1_545 S
C223 C204 1.429 . S
C223 C217 1.429 . S
C223 C224 1.523 . S
C224 C205 1.368 . S
C224 C218 1.368 1_545 S
C224 C223 1.523 . S
C225 C209 1.429 . S
C225 C221 1.429 . S
C225 C226 1.523 . S
C226 C210 1.368 . S
C226 C222 1.368 1_565 S
C226 C225 1.523 . S
H227 C202 0.950 . S
H228 C204 0.950 1_565 S
H229 C205 0.949 . S
H230 C207 0.966 . S
H231 C209 0.950 1_545 S
C232 C233 1.349 . S
C232 C234 1.327 . S
C232 H257 0.950 . S
C233 C232 1.349 . S
C233 C249 1.349 . S
C234 C232 1.327 . S
C234 C253 1.429 . S
C234 H258 0.950 . S
C235 C252 1.574 . S
C235 C254 1.368 . S
C235 H259 0.949 . S
H236 C240 0.949 . S
C237 C238 1.349 . S
C237 C239 1.327 . S
C237 H260 0.950 . S
C238 C237 1.349 . S
C238 C250 1.349 . S
C239 C237 1.327 . S
C239 C255 1.429 . S
C239 H261 0.950 . S
C240 H236 0.949 . S
C240 C248 1.574 . S
C240 C256 1.368 . S
H241 C249 0.950 . S
H242 C247 0.950 . S
H243 C248 0.949 . S
H244 C250 0.950 . S
H245 C251 0.950 . S
H246 C252 0.949 . S
C247 H242 0.950 . S
C247 C249 1.327 . S
C247 C253 1.429 . S
C248 C240 1.574 . S
C248 H243 0.949 . S
C248 C254 1.368 . S
C249 C233 1.349 . S
C249 H241 0.950 . S
C249 C247 1.327 . S
C250 C238 1.349 . S
C250 H244 0.950 . S
C250 C251 1.327 . S
C251 H245 0.950 . S
C251 C250 1.327 . S
C251 C255 1.429 . S
C252 C235 1.574 . S
C252 H246 0.949 . S
C252 C256 1.368 . S
C253 C234 1.429 . S
C253 C247 1.429 . S
C253 C254 1.523 . S
C254 C235 1.368 . S
C254 C248 1.368 . S
C254 C253 1.523 . S
C255 C239 1.429 . S
C255 C251 1.429 . S
C255 C256 1.523 . S
C256 C240 1.368 . S
C256 C252 1.368 . S
C256 C255 1.523 . S
H257 C232 0.950 . S
H258 C234 0.950 . S
H259 C235 0.949 . S
H260 C237 0.950 . S
H261 C239 0.950 . S
C262 C263 1.349 . S
C262 C264 1.327 . S
C262 H287 0.950 . S
C263 C262 1.349 . S
C263 C279 1.349 . S
C264 C262 1.327 . S
C264 C283 1.429 . S
C264 H288 0.950 . S
C265 C282 1.574 . S
C265 C284 1.368 . S
C265 H289 0.949 . S
H266 C270 0.949 . S
C267 C268 1.349 1_655 S
C267 C269 1.327 . S
C267 H290 0.950 . S
C268 C267 1.349 1_455 S
C268 C280 1.349 . S
C269 C267 1.327 . S
C269 C285 1.429 . S
C269 H291 0.950 1_565 S
C270 H266 0.949 . S
C270 C278 1.574 . S
C270 C286 1.368 . S
H271 C279 0.950 . S
H272 C277 0.950 . S
H273 C278 0.949 . S
H274 C280 0.950 . S
H275 C281 0.950 . S
H276 C282 0.949 . S
C277 H272 0.950 . S
C277 C279 1.327 . S
C277 C283 1.429 . S
C278 C270 1.574 . S
C278 H273 0.949 . S
C278 C284 1.368 1_565 S
C279 C263 1.349 . S
C279 H271 0.950 . S
C279 C277 1.327 . S
C280 C268 1.349 . S
C280 H274 0.950 . S
C280 C281 1.327 1_455 S
C281 H275 0.950 . S
C281 C280 1.327 1_655 S
C281 C285 1.429 . S
C282 C265 1.574 . S
C282 H276 0.949 . S
C282 C286 1.368 1_545 S
C283 C264 1.429 . S
C283 C277 1.429 . S
C283 C284 1.523 . S
C284 C265 1.368 . S
C284 C278 1.368 1_545 S
C284 C283 1.523 . S
C285 C269 1.429 . S
C285 C281 1.429 . S
C285 C286 1.523 . S
C286 C270 1.368 . S
C286 C282 1.368 1_565 S
C286 C285 1.523 . S
H287 C262 0.950 . S
H288 C264 0.950 . S
H289 C265 0.949 . S
H290 C267 0.950 . S
H291 C269 0.950 1_545 S
C292 C293 1.349 . S
C292 C294 1.327 . S
C292 H317 0.950 . S
C293 C292 1.349 . S
C293 C309 1.349 . S
C294 C292 1.327 . S
C294 C313 1.429 . S
C294 H318 0.950 . S
C295 C312 1.574 . S
C295 C314 1.368 . S
C295 H319 0.949 . S
H296 C300 0.949 . S
C297 C298 1.349 . S
C297 C299 1.327 1_655 S
C297 H320 0.950 . S
C298 C297 1.349 . S
C298 C310 1.349 1_655 S
C299 C297 1.327 1_455 S
C299 C315 1.429 . S
C299 H321 0.950 . S
C300 H296 0.949 . S
C300 C308 1.574 . S
C300 C316 1.368 . S
H301 C309 0.950 . S
H302 C307 0.950 . S
H303 C308 0.949 . S
H304 C310 0.950 . S
H305 C311 0.950 . S
H306 C312 0.949 . S
C307 H302 0.950 . S
C307 C309 1.327 . S
C307 C313 1.429 . S
C308 C300 1.574 . S
C308 H303 0.949 . S
C308 C314 1.368 . S
C309 C293 1.349 . S
C309 H301 0.950 . S
C309 C307 1.327 . S
C310 C298 1.349 1_455 S
C310 H304 0.950 . S
C310 C311 1.327 . S
C311 H305 0.950 . S
C311 C310 1.327 . S
C311 C315 1.429 . S
C312 C295 1.574 . S
C312 H306 0.949 . S
C312 C316 1.368 . S
C313 C294 1.429 . S
C313 C307 1.429 . S
C313 C314 1.523 . S
C314 C295 1.368 . S
C314 C308 1.368 . S
C314 C313 1.523 . S
C315 C299 1.429 . S
C315 C311 1.429 . S
C315 C316 1.523 . S
C316 C300 1.368 . S
C316 C312 1.368 . S
C316 C315 1.523 . S
H317 C292 0.950 . S
H318 C294 0.950 . S
H319 C295 0.949 . S
H320 C297 0.950 . S
H321 C299 0.950 . S
C322 C323 1.349 . S
C322 C324 1.327 . S
C322 H347 0.950 . S
C323 C322 1.349 . S
C323 C339 1.349 . S
C324 C322 1.327 . S
C324 C343 1.429 . S
C324 H348 0.950 . S
C325 C342 1.574 . S
C325 C344 1.368 . S
C325 H349 0.949 . S
H326 C330 0.949 . S
C327 C328 1.349 . S
C327 C329 1.327 . S
C327 H350 0.950 . S
C328 C327 1.349 . S
C328 C340 1.349 . S
C329 C327 1.327 . S
C329 C345 1.429 . S
C329 H351 0.950 . S
C330 H326 0.949 . S
C330 C338 1.585 . S
C330 C346 1.368 . S
H331 C339 0.950 . S
H332 C337 0.950 . S
H333 C338 0.954 . S
H334 C340 0.950 . S
H335 C341 0.950 . S
H336 C342 0.949 . S
C337 H332 0.950 . S
C337 C339 1.327 . S
C337 C343 1.429 . S
C338 C330 1.585 . S
C338 H333 0.954 . S
C338 C344 1.352 1_545 S
C339 C323 1.349 . S
C339 H331 0.950 . S
C339 C337 1.327 . S
C340 C328 1.349 . S
C340 H334 0.950 . S
C340 C341 1.327 . S
C341 H335 0.950 . S
C341 C340 1.327 . S
C341 C345 1.429 . S
C342 C325 1.574 . S
C342 H336 0.949 . S
C342 C346 1.368 1_565 S
C343 C324 1.429 . S
C343 C337 1.429 . S
C343 C344 1.523 . S
C344 C325 1.368 . S
C344 C338 1.352 1_565 S
C344 C343 1.523 . S
C345 C329 1.429 . S
C345 C341 1.429 . S
C345 C346 1.523 . S
C346 C330 1.368 . S
C346 C342 1.368 1_545 S
C346 C345 1.523 . S
H347 C322 0.950 . S
H348 C324 0.950 . S
H349 C325 0.949 . S
H350 C327 0.950 . S
H351 C329 0.950 . S
C352 C353 1.349 . S
C352 C354 1.327 . S
C352 H377 0.950 . S
C353 C352 1.349 . S
C353 C369 1.349 . S
C354 C352 1.327 . S
C354 C373 1.429 . S
C354 H378 0.950 . S
C355 C372 1.574 . S
C355 C374 1.368 1_655 S
C355 H379 0.949 . S
H356 C360 0.949 . S
C357 C358 1.349 . S
C357 C359 1.327 . S
C357 H380 0.950 . S
C358 C357 1.349 . S
C358 C370 1.349 . S
C359 C357 1.327 . S
C359 C375 1.429 . S
C359 H381 0.950 . S
C360 H356 0.949 . S
C360 C368 1.574 . S
C360 C376 1.368 1_455 S
H361 C369 0.950 . S
H362 C367 0.950 1_655 S
H363 C368 0.949 . S
H364 C370 0.950 . S
H365 C371 0.950 1_455 S
H366 C372 0.949 . S
C367 H362 0.950 1_455 S
C367 C369 1.327 . S
C367 C373 1.429 . S
C368 C360 1.574 . S
C368 H363 0.949 . S
C368 C374 1.368 . S
C369 C353 1.349 . S
C369 H361 0.950 . S
C369 C367 1.327 . S
C370 C358 1.349 . S
C370 H364 0.950 . S
C370 C371 1.327 . S
C371 H365 0.950 1_655 S
C371 C370 1.327 . S
C371 C375 1.429 . S
C372 C355 1.574 . S
C372 H366 0.949 . S
C372 C376 1.368 . S
C373 C354 1.429 . S
C373 C367 1.429 . S
C373 C374 1.523 . S
C374 C355 1.368 1_455 S
C374 C368 1.368 . S
C374 C373 1.523 . S
C375 C359 1.429 . S
C375 C371 1.429 . S
C375 C376 1.523 . S
C376 C360 1.368 1_655 S
C376 C372 1.368 . S
C376 C375 1.523 . S
H377 C352 0.950 . S
H378 C354 0.950 . S
H379 C355 0.949 . S
H380 C357 0.950 . S
H381 C359 0.950 . S
C382 C383 1.349 . S
C382 C384 1.327 . S
C382 H407 0.950 . S
C383 C382 1.349 . S
C383 C399 1.349 . S
C384 C382 1.327 . S
C384 C403 1.429 . S
C384 H408 0.950 . S
C385 C402 1.574 . S
C385 C404 1.368 1_545 S
C385 H409 0.949 . S
H386 C390 0.949 . S
C387 C388 1.349 . S
C387 C389 1.327 . S
C387 H410 0.950 . S
C388 C387 1.349 . S
C388 C400 1.349 . S
C389 C387 1.327 . S
C389 C405 1.429 . S
C389 H411 0.950 . S
C390 H386 0.949 . S
C390 C398 1.574 . S
C390 C406 1.368 1_565 S
H391 C399 0.950 . S
H392 C397 0.950 1_545 S
H393 C398 0.949 . S
H394 C400 0.950 . S
H395 C401 0.950 1_565 S
H396 C402 0.949 . S
C397 H392 0.950 1_565 S
C397 C399 1.327 . S
C397 C403 1.429 . S
C398 C390 1.574 . S
C398 H393 0.949 . S
C398 C404 1.368 . S
C399 C383 1.349 . S
C399 H391 0.950 . S
C399 C397 1.327 . S
C400 C388 1.349 . S
C400 H394 0.950 . S
C400 C401 1.327 . S
C401 H395 0.950 1_545 S
C401 C400 1.327 . S
C401 C405 1.429 . S
C402 C385 1.574 . S
C402 H396 0.949 . S
C402 C406 1.368 . S
C403 C384 1.429 . S
C403 C397 1.429 . S
C403 C404 1.523 . S
C404 C385 1.368 1_565 S
C404 C398 1.368 . S
C404 C403 1.523 . S
C405 C389 1.429 . S
C405 C401 1.429 . S
C405 C406 1.523 . S
C406 C390 1.368 1_545 S
C406 C402 1.368 . S
C406 C405 1.523 . S
H407 C382 0.950 . S
H408 C384 0.950 . S
H409 C385 0.949 . S
H410 C387 0.950 . S
H411 C389 0.950 . S
C412 C413 1.349 . S
C412 C414 1.327 . S
C412 H437 0.950 . S
C413 C412 1.349 . S
C413 C429 1.349 . S
C414 C412 1.327 . S
C414 C433 1.429 . S
C414 H438 0.950 . S
C415 C432 1.574 1_554 S
C415 C434 1.368 . S
C415 H439 0.949 . S
H416 C420 0.949 . S
C417 C418 1.349 . S
C417 C419 1.327 . S
C417 H440 0.950 . S
C418 C417 1.349 . S
C418 C430 1.349 . S
C419 C417 1.327 . S
C419 C435 1.429 . S
C419 H441 0.950 . S
C420 H416 0.949 . S
C420 C428 1.574 1_556 S
C420 C436 1.368 . S
H421 C429 0.950 . S
H422 C427 0.950 . S
H423 C428 0.949 . S
H424 C430 0.950 . S
H425 C431 0.950 . S
H426 C432 0.949 . S
C427 H422 0.950 . S
C427 C429 1.327 . S
C427 C433 1.429 . S
C428 C420 1.574 1_554 S
C428 H423 0.949 . S
C428 C434 1.368 . S
C429 C413 1.349 . S
C429 H421 0.950 . S
C429 C427 1.327 . S
C430 C418 1.349 . S
C430 H424 0.950 . S
C430 C431 1.327 . S
C431 H425 0.950 . S
C431 C430 1.327 . S
C431 C435 1.429 . S
C432 C415 1.574 1_556 S
C432 H426 0.949 . S
C432 C436 1.368 . S
C433 C414 1.429 . S
C433 C427 1.429 . S
C433 C434 1.523 . S
C434 C415 1.368 . S
C434 C428 1.368 . S
C434 C433 1.523 . S
C435 C419 1.429 . S
C435 C431 1.429 . S
C435 C436 1.523 . S
C436 C420 1.368 . S
C436 C432 1.368 . S
C436 C435 1.523 . S
H437 C412 0.950 . S
H438 C414 0.950 . S
H439 C415 0.949 . S
H440 C417 0.950 . S
H441 C419 0.950 . S
C442 C443 1.349 . S
C442 C444 1.327 . S
C442 H467 0.950 . S
C443 C442 1.349 . S
C443 C459 1.349 . S
C444 C442 1.327 . S
C444 C463 1.429 . S
C444 H468 0.950 . S
C445 C462 1.574 1_556 S
C445 C464 1.368 1_645 S
C445 H469 0.949 . S
H446 C450 0.949 . S
C447 C448 1.349 . S
C447 C449 1.327 . S
C447 H470 0.950 . S
C448 C447 1.349 . S
C448 C460 1.349 . S
C449 C447 1.327 . S
C449 C465 1.429 . S
C449 H471 0.950 . S
C450 H446 0.949 . S
C450 C458 1.574 1_554 S
C450 C466 1.368 1_465 S
H451 C459 0.950 . S
H452 C457 0.950 1_645 S
H453 C458 0.949 . S
H454 C460 0.950 . S
H455 C461 0.950 1_465 S
H456 C462 0.949 . S
C457 H452 0.950 1_465 S
C457 C459 1.327 . S
C457 C463 1.429 . S
C458 C450 1.574 1_556 S
C458 H453 0.949 . S
C458 C464 1.368 . S
C459 C443 1.349 . S
C459 H451 0.950 . S
C459 C457 1.327 . S
C460 C448 1.349 . S
C460 H454 0.950 . S
C460 C461 1.327 . S
C461 H455 0.950 1_645 S
C461 C460 1.327 . S
C461 C465 1.429 . S
C462 C445 1.574 1_554 S
C462 H456 0.949 . S
C462 C466 1.368 . S
C463 C444 1.429 . S
C463 C457 1.429 . S
C463 C464 1.523 . S
C464 C445 1.368 1_465 S
C464 C458 1.368 . S
C464 C463 1.523 . S
C465 C449 1.429 . S
C465 C461 1.429 . S
C465 C466 1.523 . S
C466 C450 1.368 1_645 S
C466 C462 1.368 . S
C466 C465 1.523 . S
H467 C442 0.950 . S
H468 C444 0.950 . S
H469 C445 0.949 . S
H470 C447 0.950 . S
H471 C449 0.950 . S
C472 C473 1.349 . S
C472 C474 1.327 . S
C472 H497 0.950 . S
C473 C472 1.349 . S
C473 C489 1.349 . S
C474 C472 1.327 . S
C474 C493 1.429 . S
C474 H498 0.950 . S
C475 C492 1.574 . S
C475 C494 1.368 . S
C475 H499 0.949 . S
H476 C480 0.949 . S
C477 C478 1.349 . S
C477 C479 1.327 . S
C477 H500 0.950 . S
C478 C477 1.349 . S
C478 C490 1.349 . S
C479 C477 1.327 . S
C479 C495 1.429 . S
C479 H501 0.950 . S
C480 H476 0.949 . S
C480 C488 1.574 . S
C480 C496 1.368 . S
H481 C489 0.950 . S
H482 C487 0.950 . S
H483 C488 0.949 . S
H484 C490 0.950 . S
H485 C491 0.950 . S
H486 C492 0.949 . S
C487 H482 0.950 . S
C487 C489 1.327 . S
C487 C493 1.429 . S
C488 C480 1.574 . S
C488 H483 0.949 . S
C488 C494 1.368 . S
C489 C473 1.349 . S
C489 H481 0.950 . S
C489 C487 1.327 . S
C490 C478 1.349 . S
C490 H484 0.950 . S
C490 C491 1.327 . S
C491 H485 0.950 . S
C491 C490 1.327 . S
C491 C495 1.429 . S
C492 C475 1.574 . S
C492 H486 0.949 . S
C492 C496 1.368 . S
C493 C474 1.429 . S
C493 C487 1.429 . S
C493 C494 1.523 . S
C494 C475 1.368 . S
C494 C488 1.368 . S
C494 C493 1.523 . S
C495 C479 1.429 . S
C495 C491 1.429 . S
C495 C496 1.523 . S
C496 C480 1.368 . S
C496 C492 1.368 . S
C496 C495 1.523 . S
H497 C472 0.950 . S
H498 C474 0.950 . S
H499 C475 0.949 . S
H500 C477 0.950 . S
H501 C479 0.950 . S
C502 C503 1.349 . S
C502 C504 1.327 . S
C502 H527 0.950 . S
C503 C502 1.349 . S
C503 C519 1.349 . S
C504 C502 1.327 . S
C504 C523 1.429 . S
C504 H528 0.950 . S
C505 C522 1.574 . S
C505 C524 1.368 . S
C505 H529 0.949 . S
H506 C510 0.949 . S
C507 C508 1.349 . S
C507 C509 1.327 . S
C507 H530 0.950 . S
C508 C507 1.349 . S
C508 C520 1.349 . S
C509 C507 1.327 . S
C509 C525 1.429 . S
C509 H531 0.950 . S
C510 H506 0.949 . S
C510 C518 1.574 . S
C510 C526 1.368 . S
H511 C519 0.950 . S
H512 C517 0.950 . S
H513 C518 0.949 . S
H514 C520 0.950 . S
H515 C521 0.950 . S
H516 C522 0.949 . S
C517 H512 0.950 . S
C517 C519 1.327 . S
C517 C523 1.429 . S
C518 C510 1.574 . S
C518 H513 0.949 . S
C518 C524 1.368 . S
C519 C503 1.349 . S
C519 H511 0.950 . S
C519 C517 1.327 . S
C520 C508 1.349 . S
C520 H514 0.950 . S
C520 C521 1.327 . S
C521 H515 0.950 . S
C521 C520 1.327 . S
C521 C525 1.429 . S
C522 C505 1.574 . S
C522 H516 0.949 . S
C522 C526 1.368 . S
C523 C504 1.429 . S
C523 C517 1.429 . S
C523 C524 1.523 . S
C524 C505 1.368 . S
C524 C518 1.368 . S
C524 C523 1.523 . S
C525 C509 1.429 . S
C525 C521 1.429 . S
C525 C526 1.523 . S
C526 C510 1.368 . S
C526 C522 1.368 . S
C526 C525 1.523 . S
H527 C502 0.950 . S
H528 C504 0.950 . S
H529 C505 0.949 . S
H530 C507 0.950 . S
H531 C509 0.950 . S
C532 C533 1.349 . S
C532 C534 1.327 . S
C532 H557 0.950 . S
C533 C532 1.349 . S
C533 C549 1.349 . S
C534 C532 1.327 . S
C534 C553 1.429 . S
C534 H558 0.950 . S
C535 C552 1.574 . S
C535 C554 1.368 . S
C535 H559 0.949 . S
H536 C540 0.949 . S
C537 C538 1.349 . S
C537 C539 1.327 . S
C537 H560 0.950 . S
C538 C537 1.349 . S
C538 C550 1.349 . S
C539 C537 1.327 . S
C539 C555 1.429 . S
C539 H561 0.950 . S
C540 H536 0.949 . S
C540 C548 1.574 . S
C540 C556 1.368 . S
H541 C549 0.950 . S
H542 C547 0.950 . S
H543 C548 0.949 . S
H544 C550 0.950 . S
H545 C551 0.950 . S
H546 C552 0.949 . S
C547 H542 0.950 . S
C547 C549 1.327 . S
C547 C553 1.429 . S
C548 C540 1.574 . S
C548 H543 0.949 . S
C548 C554 1.368 . S
C549 C533 1.349 . S
C549 H541 0.950 . S
C549 C547 1.327 . S
C550 C538 1.349 . S
C550 H544 0.950 . S
C550 C551 1.327 . S
C551 H545 0.950 . S
C551 C550 1.327 . S
C551 C555 1.429 . S
C552 C535 1.574 . S
C552 H546 0.949 . S
C552 C556 1.368 . S
C553 C534 1.429 . S
C553 C547 1.429 . S
C553 C554 1.523 . S
C554 C535 1.368 . S
C554 C548 1.368 . S
C554 C553 1.523 . S
C555 C539 1.429 . S
C555 C551 1.429 . S
C555 C556 1.523 . S
C556 C540 1.368 . S
C556 C552 1.368 . S
C556 C555 1.523 . S
H557 C532 0.950 . S
H558 C534 0.950 . S
H559 C535 0.949 . S
H560 C537 0.950 . S
H561 C539 0.950 . S
C562 C563 1.349 . S
C562 C564 1.327 . S
C562 H587 0.950 . S
C563 C562 1.349 . S
C563 C579 1.349 . S
C564 C562 1.327 . S
C564 C583 1.429 . S
C564 H588 0.950 . S
C565 C582 1.574 . S
C565 C584 1.368 . S
C565 H589 0.949 . S
H566 C570 0.949 . S
C567 C568 1.349 . S
C567 C569 1.327 . S
C567 H590 0.950 . S
C568 C567 1.349 . S
C568 C580 1.349 . S
C569 C567 1.327 . S
C569 C585 1.429 . S
C569 H591 0.950 . S
C570 H566 0.949 . S
C570 C578 1.574 . S
C570 C586 1.368 . S
H571 C579 0.950 . S
H572 C577 0.950 . S
H573 C578 0.949 . S
H574 C580 0.950 . S
H575 C581 0.950 . S
H576 C582 0.949 . S
C577 H572 0.950 . S
C577 C579 1.327 . S
C577 C583 1.429 . S
C578 C570 1.574 . S
C578 H573 0.949 . S
C578 C584 1.368 . S
C579 C563 1.349 . S
C579 H571 0.950 . S
C579 C577 1.327 . S
C580 C568 1.349 . S
C580 H574 0.950 . S
C580 C581 1.327 . S
C581 H575 0.950 . S
C581 C580 1.327 . S
C581 C585 1.429 . S
C582 C565 1.574 . S
C582 H576 0.949 . S
C582 C586 1.368 . S
C583 C564 1.429 . S
C583 C577 1.429 . S
C583 C584 1.523 . S
C584 C565 1.368 . S
C584 C578 1.368 . S
C584 C583 1.523 . S
C585 C569 1.429 . S
C585 C581 1.429 . S
C585 C586 1.523 . S
C586 C570 1.368 . S
C586 C582 1.368 . S
C586 C585 1.523 . S
H587 C562 0.950 . S
H588 C564 0.950 . S
H589 C565 0.949 . S
H590 C567 0.950 . S
H591 C569 0.950 . S
C113 C8 1.709 . S
C118 C37 1.714 . S
C143 C51 1.714 . S
C148 C22 1.709 . S
C173 C36 1.709 . S
C178 C9 1.714 . S
C203 C50 1.709 . S
C208 C23 1.714 . S
C233 C93 1.714 . S
C238 C64 1.709 . S
C263 C78 1.709 . S
C268 C107 1.714 . S
C293 C92 1.709 . S
C298 C65 1.714 . S
C323 C106 1.709 . S
C328 C79 1.714 . S
C353 C7 1.494 . S
C358 C63 1.494 . S
C383 C21 1.494 . S
C388 C77 1.494 . S
C413 C35 1.494 . S
C418 C91 1.494 . S
C443 C105 1.494 . S
C448 C49 1.494 . S
C473 C6 1.495 . S
C478 C20 1.495 . S
C503 C48 1.495 . S
C508 C34 1.495 . S
C533 C76 1.495 . S
C538 C62 1.495 . S
C563 C90 1.495 . S
C568 C104 1.495 . S
