# Generated by pormake.
# Topology yfw, (5)-cn, num edge types: 1
# Building blocks:
#     Node 0, Type 0, BuildingBlock: XOMCOT_clean_sbu_1, # of connection points: 5
#     Node 1, Type 0, BuildingBlock: XOMCOT_clean_sbu_1, # of connection points: 5
#     Node 2, Type 0, BuildingBlock: XOMCOT_clean_sbu_1, # of connection points: 5
#     Node 3, Type 0, BuildingBlock: XOMCOT_clean_sbu_1, # of connection points: 5
#     Node 4, Type 0, BuildingBlock: XOMCOT_clean_sbu_1, # of connection points: 5
#     Node 5, Type 0, BuildingBlock: XOMCOT_clean_sbu_1, # of connection points: 5
#     Node 6, Type 0, BuildingBlock: XOMCOT_clean_sbu_1, # of connection points: 5
#     Node 7, Type 0, BuildingBlock: XOMCOT_clean_sbu_1, # of connection points: 5
#     Node 8, Type 0, BuildingBlock: XOMCOT_clean_sbu_1, # of connection points: 5
#     Node 9, Type 0, BuildingBlock: XOMCOT_clean_sbu_1, # of connection points: 5
#     Node 10, Type 0, BuildingBlock: XOMCOT_clean_sbu_1, # of connection points: 5
#     Node 11, Type 0, BuildingBlock: XOMCOT_clean_sbu_1, # of connection points: 5
#     Node 12, Type 0, BuildingBlock: XOMCOT_clean_sbu_1, # of connection points: 5
#     Node 13, Type 0, BuildingBlock: XOMCOT_clean_sbu_1, # of connection points: 5
#     Node 14, Type 0, BuildingBlock: XOMCOT_clean_sbu_1, # of connection points: 5
#     Node 15, Type 0, BuildingBlock: XOMCOT_clean_sbu_1, # of connection points: 5
#     Edge 16, Type (0, 0), BuildingBlock: CIFDUS_clean_linker_0, # of connection points: 2
#     Edge 17, Type (0, 0), BuildingBlock: CIFDUS_clean_linker_0, # of connection points: 2
#     Edge 18, Type (0, 0), BuildingBlock: CIFDUS_clean_linker_0, # of connection points: 2
#     Edge 19, Type (0, 0), BuildingBlock: CIFDUS_clean_linker_0, # of connection points: 2
#     Edge 20, Type (0, 0), BuildingBlock: CIFDUS_clean_linker_0, # of connection points: 2
#     Edge 21, Type (0, 0), BuildingBlock: CIFDUS_clean_linker_0, # of connection points: 2
#     Edge 22, Type (0, 0), BuildingBlock: CIFDUS_clean_linker_0, # of connection points: 2
#     Edge 23, Type (0, 0), BuildingBlock: CIFDUS_clean_linker_0, # of connection points: 2
#     Edge 24, Type (0, 0), BuildingBlock: CIFDUS_clean_linker_0, # of connection points: 2
#     Edge 25, Type (0, 0), BuildingBlock: CIFDUS_clean_linker_0, # of connection points: 2
#     Edge 26, Type (0, 0), BuildingBlock: CIFDUS_clean_linker_0, # of connection points: 2
#     Edge 27, Type (0, 0), BuildingBlock: CIFDUS_clean_linker_0, # of connection points: 2
#     Edge 28, Type (0, 0), BuildingBlock: CIFDUS_clean_linker_0, # of connection points: 2
#     Edge 29, Type (0, 0), BuildingBlock: CIFDUS_clean_linker_0, # of connection points: 2
#     Edge 30, Type (0, 0), BuildingBlock: CIFDUS_clean_linker_0, # of connection points: 2
#     Edge 31, Type (0, 0), BuildingBlock: CIFDUS_clean_linker_0, # of connection points: 2
#     Edge 32, Type (0, 0), BuildingBlock: CIFDUS_clean_linker_0, # of connection points: 2
#     Edge 33, Type (0, 0), BuildingBlock: CIFDUS_clean_linker_0, # of connection points: 2
#     Edge 34, Type (0, 0), BuildingBlock: CIFDUS_clean_linker_0, # of connection points: 2
#     Edge 35, Type (0, 0), BuildingBlock: CIFDUS_clean_linker_0, # of connection points: 2
#     Edge 36, Type (0, 0), BuildingBlock: CIFDUS_clean_linker_0, # of connection points: 2
#     Edge 37, Type (0, 0), BuildingBlock: CIFDUS_clean_linker_0, # of connection points: 2
#     Edge 38, Type (0, 0), BuildingBlock: CIFDUS_clean_linker_0, # of connection points: 2
#     Edge 39, Type (0, 0), BuildingBlock: CIFDUS_clean_linker_0, # of connection points: 2
#     Edge 40, Type (0, 0), BuildingBlock: CIFDUS_clean_linker_0, # of connection points: 2
#     Edge 41, Type (0, 0), BuildingBlock: CIFDUS_clean_linker_0, # of connection points: 2
#     Edge 42, Type (0, 0), BuildingBlock: CIFDUS_clean_linker_0, # of connection points: 2
#     Edge 43, Type (0, 0), BuildingBlock: CIFDUS_clean_linker_0, # of connection points: 2
#     Edge 44, Type (0, 0), BuildingBlock: CIFDUS_clean_linker_0, # of connection points: 2
#     Edge 45, Type (0, 0), BuildingBlock: CIFDUS_clean_linker_0, # of connection points: 2
#     Edge 46, Type (0, 0), BuildingBlock: CIFDUS_clean_linker_0, # of connection points: 2
#     Edge 47, Type (0, 0), BuildingBlock: CIFDUS_clean_linker_0, # of connection points: 2
#     Edge 48, Type (0, 0), BuildingBlock: CIFDUS_clean_linker_0, # of connection points: 2
#     Edge 49, Type (0, 0), BuildingBlock: CIFDUS_clean_linker_0, # of connection points: 2
#     Edge 50, Type (0, 0), BuildingBlock: CIFDUS_clean_linker_0, # of connection points: 2
#     Edge 51, Type (0, 0), BuildingBlock: CIFDUS_clean_linker_0, # of connection points: 2
#     Edge 52, Type (0, 0), BuildingBlock: CIFDUS_clean_linker_0, # of connection points: 2
#     Edge 53, Type (0, 0), BuildingBlock: CIFDUS_clean_linker_0, # of connection points: 2
#     Edge 54, Type (0, 0), BuildingBlock: CIFDUS_clean_linker_0, # of connection points: 2
#     Edge 55, Type (0, 0), BuildingBlock: CIFDUS_clean_linker_0, # of connection points: 2
# Relax obj value: 0.112
# Max RMSD: 0.157
# Mean RMSD: 0.157
data_MOF--net-yfw--node1-XOMCOT_clean_sbu_1--edge1-CIFDUS_clean_linker_0
_symmetry_space_group_name_H-M    P1
_symmetry_Int_Tables_number       1
_symmetry_cell_setting            triclinic
loop_
_symmetry_equiv_pos_as_xyz
'x, y, z'
_cell_length_a     51.527012
_cell_length_b     51.550585
_cell_length_c     21.990722
_cell_angle_alpha  90.024061
_cell_angle_beta   90.215467
_cell_angle_gamma 89.796245
loop_
_atom_site_label
_atom_site_type_symbol
_atom_site_fract_x
_atom_site_fract_y
_atom_site_fract_z
_atom_type_partial_charge
C0 C 0.07936 0.07529 0.93671 0.0
C1 C 0.05684 0.06129 0.93427 0.0
N2 N 0.06046 0.03902 0.9653 0.0
N3 N 0.09714 0.06205 0.96938 0.0
C4 C 0.08521 0.03987 0.98593 0.0
H5 H 0.08279 0.09381 0.91519 0.0
Co6 Co 0.13061 0.07398 0.98021 0.0
C7 C 0.14322 0.05917 0.10932 0.0
O8 O 0.15056 0.08302 0.11991 0.0
N9 N 0.16522 0.08687 0.98887 0.0
C10 C 0.19914 0.11177 1.01245 0.0
C11 C 0.17359 0.107 0.02343 0.0
C12 C 0.18658 0.08008 0.95647 0.0
N13 N 0.20731 0.09506 0.96979 0.0
O14 O 0.14284 0.04522 0.93229 0.0
H15 H 0.16196 0.11848 0.05409 0.0
H16 H 0.18679 0.06533 0.92156 0.0
O17 O 0.13458 0.05298 0.05639 0.0
C18 C 0.13934 0.04893 0.87537 0.0
O19 O 0.13028 0.07155 0.85749 0.0
N20 N 0.11691 0.10288 0.02095 0.0
C21 C 0.09794 0.1487 0.07112 0.0
C22 C 0.09288 0.12472 0.09886 0.0
C23 C 0.10208 0.10189 0.07219 0.0
C24 C 0.11963 0.12567 0.99018 0.0
C25 C 0.11086 0.14893 0.01517 0.0
H26 H 0.09744 0.0835 0.09292 0.0
H27 H 0.1296 0.12583 0.94697 0.0
H28 H 0.09447 0.0247 1.01227 0.0
H29 H 0.03937 0.06681 0.90998 0.0
H30 H 0.21067 0.12687 0.03339 0.0
H31 H 0.08235 0.1236 0.14129 0.0
H32 H 0.1142 0.1669 0.991 0.0
C33 C 0.9216 0.57838 0.20642 0.0
C34 C 0.93566 0.55582 0.2031 0.0
N35 N 0.95812 0.55912 0.23374 0.0
N36 N 0.93497 0.59589 0.23929 0.0
C37 C 0.95727 0.58374 0.25508 0.0
H38 H 0.90303 0.58209 0.18496 0.0
Co39 Co 0.92372 0.62975 0.24976 0.0
C40 C 0.93658 0.63982 0.38141 0.0
O41 O 0.91245 0.64651 0.39152 0.0
N42 N 0.91174 0.66476 0.25804 0.0
C43 C 0.88777 0.69957 0.28077 0.0
C44 C 0.89219 0.67399 0.29314 0.0
C45 C 0.9186 0.68562 0.22407 0.0
N46 N 0.90418 0.70688 0.23686 0.0
O47 O 0.95371 0.64114 0.20505 0.0
H48 H 0.88041 0.66281 0.32385 0.0
H49 H 0.93282 0.68504 0.18812 0.0
O50 O 0.9435 0.63257 0.32795 0.0
C51 C 0.95071 0.63772 0.14788 0.0
O52 O 0.92795 0.62983 0.12818 0.0
N53 N 0.89366 0.61687 0.2873 0.0
C54 C 0.84686 0.59761 0.33127 0.0
C55 C 0.87046 0.59118 0.35978 0.0
C56 C 0.89374 0.60054 0.33618 0.0
C57 C 0.8712 0.62139 0.25598 0.0
C58 C 0.8475 0.61247 0.27792 0.0
H59 H 0.91183 0.5947 0.35721 0.0
H60 H 0.87168 0.63254 0.21433 0.0
H61 H 0.97264 0.59287 0.28093 0.0
H62 H 0.93009 0.53861 0.17813 0.0
H63 H 0.87289 0.71162 0.30108 0.0
H64 H 0.87095 0.57925 0.40029 0.0
H65 H 0.82988 0.61697 0.25301 0.0
C66 C 0.42082 0.40553 0.46108 0.0
C67 C 0.44584 0.4145 0.45646 0.0
N68 N 0.44664 0.43873 0.47953 0.0
N69 N 0.40604 0.42388 0.48765 0.0
C70 C 0.4222 0.44394 0.49798 0.0
H71 H 0.41367 0.38702 0.44513 0.0
Co72 Co 0.37054 0.42226 0.4994 0.0
C73 C 0.36565 0.44102 0.62762 0.0
O74 O 0.35348 0.41939 0.64086 0.0
N75 N 0.33408 0.42127 0.50777 0.0
C76 C 0.29293 0.4321 0.52618 0.0
C77 C 0.31837 0.43726 0.53989 0.0
C78 C 0.3175 0.40784 0.47182 0.0
N79 N 0.29242 0.41357 0.48328 0.0
O80 O 0.3665 0.4517 0.44635 0.0
H81 H 0.32457 0.45322 0.56801 0.0
H82 H 0.32368 0.39495 0.43585 0.0
O83 O 0.3734 0.44494 0.57282 0.0
C84 C 0.36492 0.4442 0.39107 0.0
O85 O 0.36531 0.41914 0.38002 0.0
N86 N 0.37543 0.39155 0.54655 0.0
C87 C 0.38881 0.34329 0.59735 0.0
C88 C 0.4016 0.36607 0.61539 0.0
C89 C 0.39472 0.38989 0.58938 0.0
C90 C 0.36317 0.36951 0.52789 0.0
C91 C 0.36903 0.34545 0.55363 0.0
H92 H 0.40577 0.40688 0.60179 0.0
H93 H 0.34971 0.36995 0.49061 0.0
H94 H 0.41602 0.46212 0.5179 0.0
H95 H 0.46195 0.40434 0.43569 0.0
H96 H 0.27616 0.44245 0.54337 0.0
H97 H 0.41757 0.36551 0.64749 0.0
H98 H 0.35843 0.32861 0.53803 0.0
C99 C 0.57804 0.91653 0.70007 0.0
C100 C 0.56537 0.93991 0.70296 0.0
N101 N 0.54223 0.93619 0.72988 0.0
N102 N 0.56313 0.89808 0.72539 0.0
C103 C 0.54125 0.91054 0.74273 0.0
H104 H 0.5969 0.91309 0.68019 0.0
Co105 Co 0.57336 0.86361 0.72958 0.0
C106 C 0.55371 0.84443 0.84978 0.0
O107 O 0.576 0.83258 0.85714 0.0
N108 N 0.5846 0.82799 0.7318 0.0
C109 C 0.60668 0.79164 0.75284 0.0
C110 C 0.60541 0.81781 0.76169 0.0
C111 C 0.57403 0.80706 0.70347 0.0
N112 N 0.58702 0.7849 0.71631 0.0
O113 O 0.54622 0.85516 0.67147 0.0
H114 H 0.6185 0.82809 0.79137 0.0
H115 H 0.55703 0.8078 0.67456 0.0
O116 O 0.54965 0.85766 0.801 0.0
C117 C 0.55433 0.86032 0.61785 0.0
O118 O 0.57857 0.86774 0.61184 0.0
N119 N 0.60118 0.87399 0.77934 0.0
C120 C 0.64628 0.88916 0.84013 0.0
C121 C 0.62181 0.8921 0.86747 0.0
C122 C 0.5994 0.88483 0.83581 0.0
C123 C 0.62439 0.87361 0.74977 0.0
C124 C 0.64726 0.88039 0.77977 0.0
H125 H 0.58072 0.88817 0.85653 0.0
H126 H 0.62524 0.86673 0.70333 0.0
H127 H 0.52501 0.90107 0.76437 0.0
H128 H 0.57239 0.95815 0.68519 0.0
H129 H 0.62105 0.77848 0.77157 0.0
H130 H 0.61993 0.90011 0.91277 0.0
H131 H 0.66553 0.87797 0.75626 0.0
C132 C 0.92855 0.09295 0.45651 0.0
C133 C 0.9538 0.08433 0.45231 0.0
N134 N 0.95527 0.0604 0.47694 0.0
N135 N 0.91421 0.07467 0.4842 0.0
C136 C 0.93093 0.05507 0.49589 0.0
H137 H 0.92094 0.1111 0.4392 0.0
Co138 Co 0.87851 0.07538 0.49577 0.0
C139 C 0.87465 0.05794 0.62476 0.0
O140 O 0.86115 0.0788 0.63859 0.0
N141 N 0.84194 0.07527 0.50434 0.0
C142 C 0.80139 0.06351 0.52598 0.0
C143 C 0.82715 0.05899 0.53774 0.0
C144 C 0.82443 0.08808 0.46923 0.0
N145 N 0.79968 0.08189 0.48292 0.0
O146 O 0.87557 0.04449 0.4492 0.0
H147 H 0.83424 0.04336 0.56587 0.0
H148 H 0.82969 0.10092 0.43248 0.0
O149 O 0.8825 0.05455 0.57011 0.0
C150 C 0.87581 0.04739 0.39176 0.0
O151 O 0.87782 0.07094 0.36946 0.0
N152 N 0.88198 0.10701 0.53936 0.0
C153 C 0.88768 0.15476 0.59725 0.0
C154 C 0.90318 0.13366 0.61439 0.0
C155 C 0.90017 0.10993 0.58445 0.0
C156 C 0.8684 0.12812 0.51929 0.0
C157 C 0.87037 0.15197 0.54873 0.0
H158 H 0.91248 0.09385 0.59758 0.0
H159 H 0.85648 0.12696 0.4793 0.0
H160 H 0.92516 0.03704 0.51694 0.0
H161 H 0.96958 0.0945 0.43055 0.0
H162 H 0.78519 0.05298 0.54502 0.0
H163 H 0.9172 0.13543 0.65098 0.0
H164 H 0.85883 0.16826 0.53296 0.0
C165 C 0.91612 0.42257 0.70464 0.0
C166 C 0.92912 0.44568 0.69854 0.0
N167 N 0.95265 0.44322 0.72509 0.0
N168 N 0.93128 0.40571 0.73536 0.0
C169 C 0.95339 0.41877 0.74707 0.0
H170 H 0.89716 0.41803 0.68632 0.0
Co171 Co 0.9244 0.37091 0.74933 0.0
C172 C 0.94131 0.36922 0.88225 0.0
O173 O 0.9181 0.36501 0.90429 0.0
N174 N 0.91771 0.33524 0.76253 0.0
C175 C 0.90203 0.29803 0.79815 0.0
C176 C 0.90453 0.32408 0.80871 0.0
C177 C 0.92296 0.31528 0.72438 0.0
N178 N 0.91357 0.29252 0.74503 0.0
O179 O 0.95539 0.36227 0.70694 0.0
H180 H 0.89533 0.33422 0.84559 0.0
H181 H 0.93225 0.3175 0.68072 0.0
O182 O 0.9446 0.37208 0.82502 0.0
C183 C 0.9528 0.36488 0.64968 0.0
O184 O 0.92983 0.37111 0.62785 0.0
N185 N 0.89293 0.38014 0.78568 0.0
C186 C 0.84366 0.38925 0.83113 0.0
C187 C 0.86491 0.40305 0.8542 0.0
C188 C 0.88958 0.39847 0.8299 0.0
C189 C 0.87195 0.36906 0.75826 0.0
C190 C 0.84718 0.3728 0.78132 0.0
H191 H 0.90607 0.40902 0.84759 0.0
H192 H 0.87464 0.35634 0.71964 0.0
H193 H 0.96991 0.41024 0.77016 0.0
H194 H 0.92214 0.46259 0.67426 0.0
H195 H 0.89169 0.28433 0.82635 0.0
H196 H 0.86262 0.41638 0.8919 0.0
H197 H 0.83098 0.36243 0.7614 0.0
C198 C 0.5722 0.41521 0.93361 0.0
C199 C 0.54914 0.42857 0.92949 0.0
N200 N 0.55267 0.45243 0.95321 0.0
N201 N 0.59007 0.43048 0.96029 0.0
C202 C 0.57772 0.4531 0.97134 0.0
H203 H 0.57586 0.39572 0.91745 0.0
Co204 Co 0.62445 0.4216 0.97256 0.0
C205 C 0.63549 0.44317 0.09698 0.0
O206 O 0.64522 0.42089 0.11457 0.0
N207 N 0.66009 0.4122 0.98373 0.0
C208 C 0.69638 0.39221 0.01401 0.0
C209 C 0.67027 0.39444 0.02266 0.0
C210 C 0.68097 0.42032 0.95153 0.0
N211 N 0.70313 0.40832 0.96894 0.0
O212 O 0.63381 0.44907 0.91781 0.0
H213 H 0.65965 0.38317 0.05551 0.0
H214 H 0.67999 0.43396 0.9143 0.0
O215 O 0.62658 0.44574 0.04276 0.0
C216 C 0.63127 0.44153 0.86279 0.0
O217 O 0.62588 0.41697 0.85294 0.0
N218 N 0.61347 0.39357 0.02008 0.0
C219 C 0.59769 0.34859 0.07912 0.0
C220 C 0.59099 0.37311 0.1022 0.0
C221 C 0.59862 0.39544 0.07119 0.0
C222 C 0.61807 0.36997 0.99418 0.0
C223 C 0.61092 0.34719 0.02366 0.0
H224 H 0.59252 0.41415 0.0881 0.0
H225 H 0.62809 0.36889 0.95109 0.0
H226 H 0.58695 0.46974 0.99207 0.0
H227 H 0.53137 0.42148 0.9092 0.0
H228 H 0.70937 0.37933 0.03846 0.0
H229 H 0.58017 0.37505 0.1441 0.0
H230 H 0.61553 0.32867 1.003 0.0
C231 C 0.59502 0.08355 0.24073 0.0
C232 C 0.58394 0.05926 0.23579 0.0
N233 N 0.5593 0.06077 0.25608 0.0
N234 N 0.57748 0.10006 0.26466 0.0
C235 C 0.55607 0.08566 0.2735 0.0
H236 H 0.61422 0.08903 0.22585 0.0
Co237 Co 0.57896 0.13583 0.27435 0.0
C238 C 0.56014 0.1412 0.40195 0.0
O239 O 0.58106 0.15461 0.41528 0.0
N240 N 0.57917 0.17242 0.28132 0.0
C241 C 0.56466 0.21277 0.29513 0.0
C242 C 0.56188 0.18738 0.31166 0.0
C243 C 0.59133 0.18941 0.24412 0.0
N244 N 0.583 0.21409 0.25202 0.0
O245 O 0.54958 0.13889 0.22102 0.0
H246 H 0.54625 0.18052 0.33969 0.0
H247 H 0.60435 0.18353 0.20815 0.0
O248 O 0.55654 0.13312 0.3473 0.0
C249 C 0.55713 0.14003 0.16586 0.0
O250 O 0.5822 0.14008 0.15512 0.0
N251 N 0.60953 0.13202 0.32211 0.0
C252 C 0.6571 0.12216 0.37982 0.0
C253 C 0.63473 0.10844 0.39615 0.0
C254 C 0.61129 0.11341 0.36632 0.0
C255 C 0.63128 0.14502 0.30463 0.0
C256 C 0.6551 0.14073 0.33348 0.0
H257 H 0.59461 0.10176 0.37783 0.0
H258 H 0.63067 0.15808 0.26655 0.0
H259 H 0.53808 0.09363 0.29063 0.0
H260 H 0.59287 0.04224 0.21591 0.0
H261 H 0.55294 0.22879 0.31131 0.0
H262 H 0.63545 0.09328 0.43019 0.0
H263 H 0.67189 0.15162 0.31882 0.0
C264 C 0.57768 0.58203 0.43781 0.0
C265 C 0.55267 0.57286 0.43497 0.0
N266 N 0.55182 0.54993 0.46434 0.0
N267 N 0.59243 0.56508 0.4694 0.0
C268 C 0.57624 0.54567 0.48464 0.0
H269 H 0.58483 0.59968 0.41734 0.0
Co270 Co 0.62791 0.56735 0.48239 0.0
C271 C 0.63283 0.55496 0.61389 0.0
O272 O 0.64557 0.57682 0.62072 0.0
N273 N 0.66435 0.56866 0.49259 0.0
C274 C 0.7047 0.55535 0.51267 0.0
C275 C 0.67899 0.5519 0.52556 0.0
C276 C 0.68189 0.58104 0.45728 0.0
N277 N 0.70657 0.57359 0.46933 0.0
O278 O 0.6324 0.53571 0.43826 0.0
H279 H 0.67172 0.53641 0.55362 0.0
H280 H 0.67665 0.59346 0.41957 0.0
O281 O 0.6246 0.54836 0.56086 0.0
C282 C 0.63222 0.54003 0.38112 0.0
O283 O 0.62992 0.56414 0.36235 0.0
N284 N 0.62253 0.59997 0.52074 0.0
C285 C 0.60765 0.64993 0.55735 0.0
C286 C 0.59602 0.62792 0.58278 0.0
C287 C 0.60348 0.60321 0.56338 0.0
C288 C 0.63361 0.62121 0.49476 0.0
C289 C 0.62686 0.64626 0.51314 0.0
H290 H 0.59301 0.58668 0.58074 0.0
H291 H 0.64665 0.61909 0.45712 0.0
H292 H 0.58237 0.52863 0.50961 0.0
H293 H 0.53658 0.58197 0.41135 0.0
H294 H 0.72066 0.54435 0.53187 0.0
H295 H 0.58053 0.62973 0.61566 0.0
H296 H 0.63633 0.66261 0.49187 0.0
C297 C 0.42215 0.08714 0.72638 0.0
C298 C 0.43289 0.06274 0.72099 0.0
N299 N 0.45516 0.06216 0.75331 0.0
N300 N 0.43743 0.10171 0.76262 0.0
C301 C 0.45741 0.08604 0.77799 0.0
H302 H 0.40468 0.09407 0.70419 0.0
Co303 Co 0.43383 0.13688 0.78061 0.0
C304 C 0.44395 0.12953 0.91683 0.0
O305 O 0.41933 0.13178 0.93088 0.0
N306 N 0.43091 0.17284 0.79763 0.0
C307 C 0.42439 0.21083 0.84316 0.0
C308 C 0.42672 0.18464 0.85156 0.0
C309 C 0.43101 0.1926 0.75695 0.0
N310 N 0.42706 0.21599 0.78358 0.0
O311 O 0.46669 0.14285 0.74235 0.0
H312 H 0.42432 0.17524 0.89458 0.0
H313 H 0.43339 0.18977 0.70857 0.0
O314 O 0.45128 0.13146 0.86119 0.0
C315 C 0.46321 0.14228 0.68481 0.0
O316 O 0.43935 0.13991 0.66418 0.0
N317 N 0.40001 0.13073 0.81059 0.0
C318 C 0.34821 0.12356 0.84263 0.0
C319 C 0.3671 0.10529 0.85958 0.0
C320 C 0.39285 0.10894 0.84183 0.0
C321 C 0.38135 0.14719 0.78898 0.0
C322 C 0.35549 0.14426 0.80529 0.0
H323 H 0.40724 0.09468 0.85514 0.0
H324 H 0.38633 0.16267 0.75817 0.0
H325 H 0.47364 0.09229 0.80562 0.0
H326 H 0.4255 0.04706 0.6932 0.0
H327 H 0.41982 0.22482 0.87826 0.0
H328 H 0.36222 0.08874 0.88754 0.0
H329 H 0.34129 0.15809 0.78858 0.0
C330 C 0.91646 0.91035 0.95419 0.0
C331 C 0.94068 0.92161 0.95007 0.0
N332 N 0.93925 0.94561 0.97425 0.0
N333 N 0.90011 0.92713 0.98159 0.0
C334 C 0.91455 0.94831 0.99312 0.0
H335 H 0.91091 0.89154 0.93675 0.0
Co336 Co 0.86446 0.92496 0.99368 0.0
C337 C 0.86684 0.94212 0.12606 0.0
O338 O 0.86008 0.91946 0.14816 0.0
N339 N 0.82814 0.92367 1.00385 0.0
C340 C 0.7875 0.92511 0.0376 0.0
C341 C 0.81311 0.92772 0.05324 0.0
C342 C 0.81094 0.91907 0.95845 0.0
N343 N 0.78608 0.91957 0.97797 0.0
O344 O 0.86029 0.9563 0.94825 0.0
H345 H 0.81965 0.93276 0.09803 0.0
H346 H 0.81666 0.91497 0.91213 0.0
O347 O 0.86825 0.94552 0.06851 0.0
C348 C 0.86362 0.95359 0.89124 0.0
O349 O 0.86787 0.93018 0.86964 0.0
N350 N 0.86896 0.89292 0.03432 0.0
C351 C 0.87515 0.84353 0.08426 0.0
C352 C 0.89226 0.86354 0.09985 0.0
C353 C 0.88901 0.88806 0.07376 0.0
C354 C 0.85337 0.87309 0.01569 0.0
C355 C 0.8558 0.84843 0.04088 0.0
H356 H 0.9024 0.90331 0.08605 0.0
H357 H 0.83911 0.87612 0.98035 0.0
H358 H 0.90677 0.9658 0.01339 0.0
H359 H 0.9576 0.91331 0.92836 0.0
H360 H 0.77113 0.92768 0.06774 0.0
H361 H 0.90767 0.86042 0.1327 0.0
H362 H 0.84281 0.8332 0.02594 0.0
C363 C 0.08953 0.4162 0.21869 0.0
C364 C 0.07795 0.44038 0.21493 0.0
N365 N 0.05343 0.43839 0.23563 0.0
N366 N 0.07241 0.3993 0.24241 0.0
C367 C 0.05074 0.41337 0.2521 0.0
H368 H 0.10886 0.41111 0.20373 0.0
Co369 Co 0.07472 0.36356 0.25314 0.0
C370 C 0.05639 0.3598 0.38165 0.0
O371 O 0.07737 0.34697 0.39812 0.0
N372 N 0.07579 0.32716 0.26116 0.0
C373 C 0.06341 0.28646 0.27823 0.0
C374 C 0.06025 0.3118 0.29505 0.0
C375 C 0.08726 0.31046 0.22193 0.0
N376 N 0.08022 0.28558 0.23175 0.0
O377 O 0.04432 0.35978 0.2047 0.0
H378 H 0.0455 0.31824 0.32617 0.0
H379 H 0.09896 0.31667 0.18388 0.0
O380 O 0.05329 0.36663 0.32615 0.0
C381 C 0.04739 0.3615 0.14746 0.0
O382 O 0.07097 0.36455 0.1261 0.0
N383 N 0.1057 0.3679 0.29876 0.0
C384 C 0.15255 0.37642 0.36005 0.0
C385 C 0.13037 0.39098 0.37418 0.0
C386 C 0.10731 0.38667 0.3426 0.0
C387 C 0.12741 0.35435 0.28259 0.0
C388 C 0.15093 0.35803 0.31321 0.0
H389 H 0.09067 0.39864 0.35328 0.0
H390 H 0.12691 0.34102 0.24495 0.0
H391 H 0.033 0.40516 0.26966 0.0
H392 H 0.08651 0.45773 0.19603 0.0
H393 H 0.05303 0.27011 0.29692 0.0
H394 H 0.13092 0.40607 0.40844 0.0
H395 H 0.16768 0.3466 0.30011 0.0
C396 C 0.40751 0.5809 0.95152 0.0
C397 C 0.43128 0.56915 0.94253 0.0
N398 N 0.43124 0.54619 0.97182 0.0
N399 N 0.39286 0.56552 0.98708 0.0
C400 C 0.40781 0.54459 0.99854 0.0
H401 H 0.40094 0.59897 0.93164 0.0
Co402 Co 0.35796 0.56872 1.00685 0.0
C403 C 0.36666 0.55787 0.14227 0.0
O404 O 0.36307 0.5823 0.15686 0.0
N405 N 0.32211 0.57108 0.02545 0.0
C406 C 0.28415 0.57479 0.07258 0.0
C407 C 0.31038 0.57233 0.08021 0.0
C408 C 0.3022 0.5727 0.98507 0.0
N409 N 0.27882 0.57503 0.01268 0.0
O410 O 0.35202 0.53595 0.96631 0.0
H411 H 0.31972 0.57212 0.12376 0.0
H412 H 0.30494 0.57256 0.93634 0.0
O413 O 0.3646 0.55059 0.08647 0.0
C414 C 0.35276 0.5393 0.90868 0.0
O415 O 0.35439 0.56317 0.88811 0.0
N416 N 0.36424 0.60244 0.03908 0.0
C417 C 0.37232 0.65407 0.07377 0.0
C418 C 0.39062 0.63483 0.08831 0.0
C419 C 0.38649 0.60924 0.06939 0.0
C420 C 0.34743 0.62139 0.02051 0.0
C421 C 0.35086 0.64712 0.03804 0.0
H422 H 0.40084 0.59467 0.08092 0.0
H423 H 0.33136 0.61681 0.99084 0.0
H424 H 0.40119 0.52798 0.02418 0.0
H425 H 0.4468 0.57628 0.91409 0.0
H426 H 0.27023 0.57719 0.10886 0.0
H427 H 0.40768 0.63932 0.11516 0.0
H428 H 0.33686 0.66152 0.02314 0.0
C429 C 0.43032 0.92167 0.19211 0.0
C430 C 0.44441 0.94411 0.19409 0.0
N431 N 0.46644 0.93955 0.22566 0.0
N432 N 0.44325 0.9029 0.22225 0.0
C433 C 0.46535 0.91425 0.24198 0.0
H434 H 0.41181 0.91906 0.16963 0.0
Co435 Co 0.43008 0.86962 0.22754 0.0
C436 C 0.44783 0.85017 0.34991 0.0
O437 O 0.42431 0.84147 0.35854 0.0
N438 N 0.41556 0.83523 0.23021 0.0
C439 C 0.38871 0.8022 0.248 0.0
C440 C 0.39476 0.82714 0.26267 0.0
C441 C 0.42145 0.81424 0.19524 0.0
N442 N 0.40522 0.79406 0.20497 0.0
O443 O 0.45646 0.85829 0.17051 0.0
H444 H 0.38422 0.83834 0.29591 0.0
H445 H 0.43662 0.81395 0.16146 0.0
O446 O 0.45317 0.86191 0.29986 0.0
C447 C 0.44874 0.86379 0.11658 0.0
O448 O 0.42502 0.87283 0.10981 0.0
N449 N 0.4032 0.88298 0.27614 0.0
C450 C 0.35962 0.90302 0.33534 0.0
C451 C 0.38445 0.90476 0.36192 0.0
C452 C 0.4061 0.89497 0.3311 0.0
C453 C 0.37983 0.88369 0.24692 0.0
C454 C 0.35769 0.89286 0.27624 0.0
H455 H 0.4251 0.89719 0.35126 0.0
H456 H 0.3782 0.87586 0.20141 0.0
H457 H 0.48021 0.90426 0.26789 0.0
H458 H 0.43904 0.96225 0.17266 0.0
H459 H 0.37311 0.79096 0.26752 0.0
H460 H 0.3872 0.91362 0.40611 0.0
H461 H 0.33917 0.89111 0.25326 0.0
C462 C 0.08569 0.91551 0.43547 0.0
C463 C 0.06097 0.92551 0.43507 0.0
N464 N 0.06149 0.94911 0.46149 0.0
N465 N 0.1018 0.93259 0.46228 0.0
C466 C 0.08658 0.95301 0.4773 0.0
H467 H 0.09166 0.89695 0.41717 0.0
Co468 Co 0.13717 0.92673 0.47191 0.0
C469 C 0.14869 0.95088 0.59342 0.0
O470 O 0.16063 0.92967 0.61093 0.0
N471 N 0.1738 0.9203 0.48006 0.0
C472 C 0.21213 0.90356 0.50744 0.0
C473 C 0.18607 0.90372 0.51851 0.0
C474 C 0.19343 0.92982 0.44559 0.0
N475 N 0.21691 0.91998 0.46146 0.0
O476 O 0.1435 0.95392 0.41411 0.0
H477 H 0.17697 0.89185 0.55268 0.0
H478 H 0.19067 0.94347 0.40888 0.0
O479 O 0.1385 0.95205 0.54013 0.0
C480 C 0.14069 0.94587 0.3595 0.0
O481 O 0.13617 0.92107 0.35075 0.0
N482 N 0.12922 0.89869 0.52279 0.0
C483 C 0.11619 0.85348 0.5853 0.0
C484 C 0.1082 0.87794 0.60672 0.0
C485 C 0.11459 0.9003 0.57427 0.0
C486 C 0.13522 0.87507 0.49864 0.0
C487 C 0.12962 0.85229 0.52994 0.0
H488 H 0.10733 0.91882 0.58987 0.0
H489 H 0.14516 0.87402 0.45544 0.0
H490 H 0.09372 0.97027 0.49973 0.0
H491 H 0.04401 0.91629 0.41567 0.0
H492 H 0.22627 0.89132 0.53004 0.0
H493 H 0.09667 0.8798 0.64756 0.0
H494 H 0.13609 0.83399 0.51108 0.0
C495 C 0.08389 0.58527 0.70588 0.0
C496 C 0.07186 0.56148 0.70072 0.0
N497 N 0.04734 0.56391 0.72125 0.0
N498 N 0.06707 0.60239 0.73038 0.0
C499 C 0.04505 0.58886 0.73892 0.0
H500 H 0.10335 0.58997 0.6914 0.0
Co501 Co 0.07061 0.63794 0.74207 0.0
C502 C 0.0515 0.64087 0.87106 0.0
O503 O 0.07368 0.65095 0.88872 0.0
N504 N 0.07312 0.67435 0.75107 0.0
C505 C 0.06594 0.71588 0.77413 0.0
C506 C 0.06086 0.69069 0.78982 0.0
C507 C 0.08441 0.69042 0.71036 0.0
N508 N 0.08073 0.7157 0.72403 0.0
O509 O 0.04151 0.64315 0.68854 0.0
H510 H 0.04728 0.68534 0.82459 0.0
H511 H 0.09468 0.68366 0.67051 0.0
O512 O 0.0478 0.63564 0.81457 0.0
C513 C 0.04943 0.64198 0.63358 0.0
O514 O 0.07445 0.63901 0.62419 0.0
N515 N 0.10118 0.63202 0.78905 0.0
C516 C 0.14983 0.61794 0.83715 0.0
C517 C 0.1272 0.60461 0.85395 0.0
C518 C 0.10316 0.61192 0.82948 0.0
C519 C 0.12301 0.64501 0.77205 0.0
C520 C 0.14724 0.63879 0.79656 0.0
H521 H 0.08623 0.60065 0.84109 0.0
H522 H 0.1222 0.65953 0.73705 0.0
H523 H 0.02744 0.59739 0.75668 0.0
H524 H 0.08019 0.54408 0.68119 0.0
H525 H 0.05791 0.73303 0.79553 0.0
H526 H 0.12803 0.58794 0.88381 0.0
H527 H 0.16388 0.64999 0.78238 0.0
H528 H 0.99127 0.93897 0.98113 0.0
H529 H 0.93122 0.99725 0.9662 0.0
H530 H 0.96366 0.03129 0.96623 0.0
H531 H 0.00882 0.0447 0.96813 0.0
H532 H 0.06977 0.98739 0.97895 0.0
H533 H 0.03732 0.9528 0.98387 0.0
C534 C 0.98538 0.95911 0.97763 0.0
C535 C 0.95882 0.96549 0.97413 0.0
C536 C 0.00426 0.97877 0.9772 0.0
C537 C 0.95143 0.99173 0.97017 0.0
C538 C 0.97 0.01127 0.96977 0.0
C539 C 0.01506 0.02464 0.97109 0.0
C540 C 0.04166 0.01863 0.97248 0.0
C541 C 0.99641 0.00501 0.97299 0.0
C542 C 0.0494 0.99256 0.9781 0.0
C543 C 0.03085 0.97278 0.98045 0.0
H544 H 0.95332 0.50736 0.23065 0.0
H545 H 0.00969 0.56847 0.24949 0.0
H546 H 0.04471 0.53624 0.25259 0.0
H547 H 0.05927 0.49037 0.24674 0.0
H548 H 0.00195 0.43028 0.22303 0.0
H549 H 0.96745 0.46244 0.22431 0.0
C550 C 0.97325 0.51373 0.23487 0.0
C551 C 0.97882 0.54033 0.23924 0.0
C552 C 0.99319 0.49521 0.23559 0.0
C553 C 0.00479 0.54812 0.24643 0.0
C554 C 0.02485 0.52969 0.24773 0.0
C555 C 0.03924 0.4844 0.24152 0.0
C556 C 0.03329 0.45788 0.23538 0.0
C557 C 0.01929 0.50315 0.24174 0.0
C558 C 0.00717 0.45043 0.22914 0.0
C559 C 0.98736 0.46885 0.22945 0.0
H560 H 0.55277 0.4978 0.47498 0.0
H561 H 0.50111 0.56373 0.46531 0.0
H562 H 0.46366 0.53494 0.47029 0.0
H563 H 0.44564 0.49101 0.47472 0.0
H564 H 0.49732 0.42515 0.486 0.0
H565 H 0.53477 0.454 0.48331 0.0
C566 C 0.53336 0.50593 0.47485 0.0
C567 C 0.5298 0.53292 0.46969 0.0
C568 C 0.51191 0.48927 0.47776 0.0
C569 C 0.50442 0.54303 0.46844 0.0
C570 C 0.48299 0.52659 0.47159 0.0
C571 C 0.46507 0.48296 0.47749 0.0
C572 C 0.46864 0.45592 0.48049 0.0
C573 C 0.48651 0.49967 0.4759 0.0
C574 C 0.49401 0.44585 0.48288 0.0
C575 C 0.51544 0.46234 0.48163 0.0
H576 H 0.55052 0.98651 0.75328 0.0
H577 H 0.48997 0.92992 0.72933 0.0
H578 H 0.45705 0.96418 0.73712 0.0
H579 H 0.44583 0.01075 0.74499 0.0
H580 H 0.50713 0.06689 0.76618 0.0
H581 H 0.53941 0.03232 0.76519 0.0
C582 C 0.53012 0.98167 0.74961 0.0
C583 C 0.52271 0.95577 0.74 0.0
C584 C 0.51145 0.00143 0.75347 0.0
C585 C 0.49617 0.9497 0.73694 0.0
C586 C 0.47737 0.96931 0.74096 0.0
C587 C 0.46625 0.01537 0.74929 0.0
C588 C 0.47399 0.04142 0.75555 0.0
C589 C 0.48483 0.99532 0.74823 0.0
C590 C 0.50054 0.04707 0.76207 0.0
C591 C 0.51907 0.0273 0.76109 0.0
H592 H 0.06233 0.00155 0.4669 0.0
H593 H 0.0112 0.93555 0.47453 0.0
H594 H 0.97371 0.9643 0.48133 0.0
H595 H 0.95524 0.00801 0.48081 0.0
H596 H 0.006 0.07435 0.47545 0.0
H597 H 0.04377 0.04566 0.47203 0.0
C598 C 0.04304 0.99347 0.47086 0.0
C599 C 0.03965 0.96638 0.46958 0.0
C600 C 0.02144 0.01017 0.47476 0.0
C601 C 0.0144 0.95628 0.47419 0.0
C602 C 0.99291 0.97272 0.47842 0.0
C603 C 0.97452 0.01629 0.47989 0.0
C604 C 0.97763 0.0434 0.47818 0.0
C605 C 0.99617 -0.00031 0.47806 0.0
C606 C 0.00291 0.05361 0.4759 0.0
C607 C 0.02458 0.03719 0.47425 0.0
H608 H 0.94723 0.49513 0.71906 0.0
H609 H 0.00454 0.4342 0.73365 0.0
H610 H 0.03916 0.46635 0.73425 0.0
H611 H 0.05324 0.51197 0.72972 0.0
H612 H 0.99563 0.57245 0.71145 0.0
H613 H 0.96118 0.54032 0.71281 0.0
C614 C 0.96728 0.48882 0.72181 0.0
C615 C 0.97315 0.46223 0.72631 0.0
C616 C 0.98712 0.50738 0.7215 0.0
C617 C 0.99932 0.45451 0.73099 0.0
C618 C 0.01919 0.4729 0.73088 0.0
C619 C 0.03317 0.51807 0.72557 0.0
C620 C 0.02711 0.54464 0.72094 0.0
C621 C 0.01333 0.49941 0.72599 0.0
C622 C 0.00092 0.55223 0.71625 0.0
C623 C 0.98115 0.53383 0.7166 0.0
H624 H 0.50117 0.44671 0.96416 0.0
H625 H 0.56139 0.5043 0.95163 0.0
H626 H 0.52885 0.53888 0.95673 0.0
H627 H 0.48298 0.55265 0.96357 0.0
H628 H 0.42319 0.49447 0.97412 0.0
H629 H 0.45581 0.46024 0.97063 0.0
C630 C 0.50717 0.46681 0.96198 0.0
C631 C 0.53364 0.47288 0.95727 0.0
C632 C 0.48841 0.4865 0.96466 0.0
C633 C 0.54115 0.49907 0.95585 0.0
C634 C 0.52255 0.51886 0.95838 0.0
C635 C 0.47717 0.53247 0.96478 0.0
C636 C 0.45073 0.52615 0.96953 0.0
C637 C 0.49609 0.51279 0.96259 0.0
C638 C 0.44343 0.49991 0.97164 0.0
C639 C 0.46206 0.48029 0.96922 0.0
H640 H 0.46054 0.99106 0.23529 0.0
H641 H 0.51793 0.93009 0.24341 0.0
H642 H 0.55228 0.9625 0.25566 0.0
H643 H 0.56597 0.00859 0.25932 0.0
H644 H 0.50756 0.06862 0.24509 0.0
H645 H 0.47376 0.03615 0.23943 0.0
C646 C 0.48056 0.98477 0.23918 0.0
C647 C 0.48664 0.95819 0.23756 0.0
C648 C 0.50009 0.00341 0.245 0.0
C649 C 0.51267 0.95043 0.24468 0.0
C650 C 0.53233 0.96897 0.25123 0.0
C651 C 0.54586 0.01452 0.25476 0.0
C652 C 0.53945 0.04112 0.25319 0.0
C653 C 0.52629 0.99558 0.2506 0.0
C654 C 0.5132 0.04843 0.2478 0.0
C655 C 0.49376 0.02982 0.24405 0.0
H656 H 0.15 0.99806 0.35842 0.0
H657 H 0.13179 0.93364 0.24061 0.0
H658 H 0.13051 0.96251 0.15293 0.0
H659 H 0.13421 0.00648 0.10886 0.0
H660 H 0.15312 0.07047 0.22774 0.0
H661 H 0.15436 0.04154 0.31459 0.0
C662 C 0.14584 0.99032 0.31357 0.0
C663 C 0.14102 0.96371 0.30643 0.0
C664 C 0.14516 0.00705 0.26296 0.0
C665 C 0.13565 0.95406 0.24774 0.0
C666 C 0.13485 0.97058 0.19733 0.0
C667 C 0.13858 0.01406 0.15375 0.0
C668 C 0.14355 0.04068 0.16125 0.0
C669 C 0.13948 0.99718 0.20429 0.0
C670 C 0.14925 0.05009 0.22003 0.0
C671 C 0.14998 0.03354 0.27014 0.0
H672 H 0.99627 0.64367 0.63329 0.0
H673 H 0.06245 0.63989 0.51387 0.0
H674 H 0.03391 0.63794 0.42561 0.0
H675 H 0.98986 0.63734 0.38116 0.0
H676 H 0.92384 0.64194 0.50099 0.0
H677 H 0.9524 0.64338 0.58904 0.0
C678 C 0.00443 0.64255 0.58797 0.0
C679 C 0.03148 0.64197 0.58056 0.0
C680 C 0.98787 0.64145 0.53691 0.0
C681 C 0.04169 0.6404 0.52128 0.0
C682 C 0.02537 0.63923 0.47048 0.0
C683 C 0.98177 0.63854 0.42654 0.0
C684 C 0.95472 0.63958 0.43408 0.0
C685 C 0.99839 0.63967 0.47761 0.0
C686 C 0.94459 0.64126 0.49342 0.0
C687 C 0.96091 0.64208 0.54414 0.0
H688 H 0.35402 0.43712 0.74818 0.0
H689 H 0.37975 0.49187 0.61281 0.0
H690 H 0.37796 0.52672 0.68816 0.0
H691 H 0.36762 0.54191 0.79086 0.0
H692 H 0.34278 0.48743 0.92754 0.0
H693 H 0.34564 0.4521 0.85296 0.0
C694 C 0.35938 0.45665 0.73508 0.0
C695 C 0.36686 0.46183 0.67452 0.0
C696 C 0.35827 0.47663 0.77873 0.0
C697 C 0.37392 0.48725 0.65882 0.0
C698 C 0.3728 0.50722 0.70191 0.0
C699 C 0.36272 0.52233 0.80456 0.0
C700 C 0.35463 0.51741 0.86473 0.0
C701 C 0.36469 0.50219 0.7617 0.0
C702 C 0.34887 0.49181 0.8816 0.0
C703 C 0.35053 0.47163 0.83892 0.0
H704 H 0.49406 0.83611 0.10119 0.0
H705 H 0.44156 0.88823 1.00852 0.0
H706 H 0.46841 0.88675 0.91777 0.0
H707 H 0.50746 0.87115 0.86375 0.0
H708 H 0.55907 0.81781 0.95581 0.0
H709 H 0.53214 0.81924 0.04597 0.0
C710 C 0.48855 0.84714 0.06117 0.0
C711 C 0.4658 0.86224 0.06209 0.0
C712 C 0.50398 0.84598 1.00821 0.0
C713 C 0.45888 0.87628 1.00938 0.0
C714 C 0.47428 0.87551 0.95716 0.0
C715 C 0.5127 0.8597 0.90332 0.0
C716 C 0.53545 0.84453 0.90242 0.0
C717 C 0.49692 0.86044 0.95584 0.0
C718 C 0.54181 0.82984 0.9546 0.0
C719 C 0.52639 0.83061 1.00669 0.0
H720 H 0.85954 0.05852 0.74328 0.0
H721 H 0.89446 0.00929 0.60702 0.0
H722 H 0.89414 0.97288 0.67785 0.0
H723 H 0.88232 0.95455 0.7765 0.0
H724 H 0.84803 0.00354 0.91383 0.0
H725 H 0.84966 0.04058 0.84424 0.0
C726 C 0.86725 0.03988 0.72914 0.0
C727 C 0.87684 0.03663 0.66968 0.0
C728 C 0.86691 0.01895 0.77004 0.0
C729 C 0.88692 0.01237 0.65238 0.0
C730 C 0.88665 0.99148 0.6928 0.0
C731 C 0.87513 0.97331 0.79129 0.0
C732 C 0.86477 0.97623 0.85003 0.0
C733 C 0.87636 0.99447 0.75136 0.0
C734 C 0.85595 0.00077 0.86874 0.0
C735 C 0.8569 0.02193 0.82898 0.0
H736 H 0.94101 0.36217 1.00467 0.0
H737 H 0.99248 0.37647 0.85388 0.0
H738 H 0.02978 0.37498 0.92269 0.0
H739 H 0.04776 0.36917 0.02529 0.0
H740 H 0.99622 0.35509 0.176 0.0
H741 H 0.95891 0.35682 0.10725 0.0
C742 C 0.96036 0.36505 0.98672 0.0
C743 C 0.96389 0.3694 0.92409 0.0
C744 C 0.98171 0.36406 0.02645 0.0
C745 C 0.98915 0.37309 0.90183 0.0
C746 C 0.01051 0.37219 0.94114 0.0
C747 C 0.02838 0.36639 0.04316 0.0
C748 C 0.02481 0.36189 0.10571 0.0
C749 C 0.00702 0.36756 1.00346 0.0
C750 C 0.99954 0.35849 0.12806 0.0
C751 C 0.97819 0.35953 0.08879 0.0
H752 H 0.62328 0.54353 0.25975 0.0
H753 H 0.64414 0.48883 0.40044 0.0
H754 H 0.647 0.45423 0.32446 0.0
H755 H 0.64391 0.43976 0.21856 0.0
H756 H 0.62193 0.49411 0.07797 0.0
H757 H 0.61912 0.52877 0.15391 0.0
C758 C 0.6285 0.52405 0.27393 0.0
C759 C 0.63364 0.5188 0.33577 0.0
C760 C 0.62989 0.50427 0.2301 0.0
C761 C 0.64012 0.4934 0.35325 0.0
C762 C 0.64177 0.47363 0.3098 0.0
C763 C 0.63854 0.45919 0.20426 0.0
C764 C 0.6333 0.46435 0.1424 0.0
C765 C 0.63677 0.47889 0.24814 0.0
C766 C 0.62611 0.4896 0.12511 0.0
C767 C 0.62452 0.50941 0.16854 0.0
H768 H 0.56388 0.15212 0.52284 0.0
H769 H 0.51064 0.12326 0.38677 0.0
H770 H 0.47635 0.12088 0.46292 0.0
H771 H 0.46113 0.12833 0.56661 0.0
H772 H 0.51407 0.15631 0.70406 0.0
H773 H 0.54901 0.15768 0.62857 0.0
C774 C 0.5448 0.14523 0.50979 0.0
C775 C 0.5398 0.13807 0.44891 0.0
C776 C 0.52516 0.14387 0.55391 0.0
C777 C 0.51504 0.12894 0.4331 0.0
C778 C 0.49539 0.12764 0.47663 0.0
C779 C 0.4803 0.13479 0.58026 0.0
C780 C 0.48493 0.14251 0.64082 0.0
C781 C 0.50018 0.13531 0.5369 0.0
C782 C 0.50998 0.15038 0.65776 0.0
C783 C 0.52992 0.15118 0.61458 0.0
H784 H 0.63517 0.49463 0.86443 0.0
H785 H 0.62841 0.42923 0.74277 0.0
H786 H 0.6266 0.45827 0.6557 0.0
H787 H 0.62713 0.50233 0.61297 0.0
H788 H 0.63519 0.5678 0.73363 0.0
H789 H 0.63598 0.53884 0.82145 0.0
C790 C 0.63348 0.48675 0.81886 0.0
C791 C 0.63199 0.45974 0.81046 0.0
C792 C 0.63241 0.50363 0.76845 0.0
C793 C 0.62964 0.44991 0.75091 0.0
C794 C 0.62851 0.46652 0.70083 0.0
C795 C 0.62876 0.51025 0.65853 0.0
C796 C 0.63098 0.53718 0.66666 0.0
C797 C 0.62976 0.49342 0.70895 0.0
C798 C 0.63346 0.54711 0.72603 0.0
C799 C 0.63399 0.53056 0.77638 0.0
H800 H 0.50606 0.12581 0.16507 0.0
H801 H 0.56738 0.15325 0.04886 0.0
H802 H 0.53863 0.15098 0.96075 0.0
H803 H 0.49568 0.14172 0.91615 0.0
H804 H 0.43445 0.11423 0.03263 0.0
H805 H 0.46346 0.11568 0.1202 0.0
C806 C 0.51303 0.13148 0.12055 0.0
C807 C 0.53878 0.13982 0.11377 0.0
C808 C 0.49644 0.12988 0.06965 0.0
C809 C 0.54762 0.14676 0.05551 0.0
C810 C 0.53121 0.14542 1.00491 0.0
C811 C 0.48882 0.13576 0.96055 0.0
C812 C 0.4629 0.12795 0.96766 0.0
C813 C 0.50557 0.13695 1.01129 0.0
C814 C 0.45427 0.12048 0.02575 0.0
C815 C 0.47083 0.12135 0.07608 0.0
H816 H 0.88069 0.04737 0.26894 0.0
H817 H 0.86732 0.99664 0.42173 0.0
H818 H 0.86396 0.95955 0.35294 0.0
H819 H 0.86406 0.94173 0.2495 0.0
H820 H 0.87766 0.99251 0.0968 0.0
H821 H 0.88183 0.02939 0.16575 0.0
C822 C 0.87704 0.02821 0.28729 0.0
C823 C 0.87414 0.02481 0.3504 0.0
C824 C 0.8752 0.00698 0.24754 0.0
C825 C 0.86959 -0.00019 0.37336 0.0
C826 C 0.86766 0.97859 0.33404 0.0
C827 C 0.86799 0.96084 0.23119 0.0
C828 C 0.87041 0.96432 0.16796 0.0
C829 C 0.87032 0.98198 0.27106 0.0
C830 C 0.87564 0.98924 0.1452 0.0
C831 C 0.878 0.01037 0.1846 0.0
H832 H 0.0562 0.34741 0.502 0.0
H833 H 0.00859 0.38075 0.3598 0.0
H834 H 0.97255 0.38506 0.43049 0.0
H835 H 0.95424 0.37859 0.53139 0.0
H836 H 0.00146 0.34592 0.67488 0.0
H837 H 0.03805 0.34204 0.60463 0.0
C838 C 0.03797 0.35569 0.48649 0.0
C839 C 0.03509 0.36362 0.42557 0.0
C840 C 0.01725 0.3581 0.52741 0.0
C841 C 0.01137 0.37445 0.40636 0.0
C842 C 0.9907 0.37687 0.44672 0.0
C843 C 0.9725 0.37052 0.54741 0.0
C844 C 0.97509 0.36235 0.60811 0.0
C845 C 0.99338 0.36857 0.50711 0.0
C846 C 0.99897 0.35226 0.62826 0.0
C847 C 0.01988 0.35006 0.58815 0.0
H848 H 0.35764 0.50538 0.14163 0.0
H849 H 0.38225 0.56823 0.25767 0.0
H850 H 0.38333 0.53925 0.34501 0.0
H851 H 0.3762 0.49613 0.39004 0.0
H852 H 0.35161 0.4332 0.27422 0.0
H853 H 0.35145 0.46195 0.18633 0.0
C854 C 0.36352 0.51263 0.18586 0.0
C855 C 0.36976 0.53899 0.19286 0.0
C856 C 0.36382 0.49585 0.23657 0.0
C857 C 0.37718 0.54806 0.2508 0.0
C858 C 0.37776 0.53151 0.30104 0.0
C859 C 0.37065 0.48878 0.34565 0.0
C860 C 0.36382 0.46256 0.33904 0.0
C861 C 0.3708 0.50542 0.29476 0.0
C862 C 0.35697 0.4533 0.28088 0.0
C863 C 0.3569 0.46973 0.23033 0.0
H864 H 0.49616 0.87276 0.36413 0.0
H865 H 0.44091 0.82354 0.45511 0.0
H866 H 0.46802 0.82253 0.54545 0.0
H867 H 0.5072 0.83626 0.60135 0.0
H868 H 0.56326 0.88427 0.51001 0.0
H869 H 0.53635 0.88505 0.4188 0.0
C870 C 0.49018 0.86164 0.40347 0.0
C871 C 0.46633 0.84842 0.40227 0.0
C872 C 0.50603 0.86099 0.45617 0.0
C873 C 0.45901 0.83413 0.45419 0.0
C874 C 0.47454 0.8335 0.50637 0.0
C875 C 0.51348 0.84689 0.56151 0.0
C876 C 0.53724 0.86019 0.56298 0.0
C877 C 0.498 0.84704 0.50831 0.0
C878 C 0.54512 0.87371 0.51048 0.0
C879 C 0.52971 0.87423 0.45798 0.0
H880 H 0.16349 0.95089 0.71219 0.0
H881 H 0.12661 0.99895 0.57597 0.0
H882 H 0.12116 0.03359 0.65114 0.0
H883 H 0.12639 0.04988 0.75553 0.0
H884 H 0.16222 0.00131 0.89216 0.0
H885 H 0.1686 0.96709 0.81638 0.0
C886 C 0.1543 0.96894 0.69862 0.0
C887 C 0.14552 0.97228 0.63819 0.0
C888 C 0.15105 0.98864 0.74215 0.0
C889 C 0.13357 0.99582 0.62194 0.0
C890 C 0.13045 0.01563 0.66496 0.0
C891 C 0.13572 0.03187 0.76885 0.0
C892 C 0.14391 0.02823 0.82961 0.0
C893 C 0.13907 0.01222 0.72519 0.0
C894 C 0.15576 0.00465 0.84589 0.0
C895 C 0.1594 0.98509 0.80253 0.0
H896 H 0.94987 0.62649 0.0274 0.0
H897 H 0.00035 0.65508 0.16925 0.0
H898 H 0.03597 0.65827 0.0961 0.0
H899 H 0.0527 0.65269 0.99202 0.0
H900 H 0.00199 0.62355 0.85106 0.0
H901 H 0.96652 0.62068 0.92413 0.0
C902 C 0.96861 0.63355 0.04252 0.0
C903 C 0.97235 0.64065 0.1039 0.0
C904 C 0.98899 0.6351 1.0004 0.0
C905 C 0.99687 0.64956 0.1224 0.0
C906 C 0.01726 0.65134 0.08056 0.0
C907 C 0.03391 0.64567 0.97714 0.0
C908 C 0.03008 0.63839 0.91584 0.0
C909 C 0.01354 0.64409 0.01947 0.0
C910 C 0.00556 0.6293 0.89772 0.0
C911 C 0.98523 0.62769 0.93953 0.0
H912 H 0.05038 0.24355 0.21328 0.0
H913 H 0.1247 0.27682 0.16969 0.0
H914 H 0.13648 0.23747 0.11354 0.0
H915 H 0.12628 0.19285 0.08141 0.0
H916 H 0.05204 0.15979 0.12724 0.0
H917 H 0.0398 0.19976 0.17956 0.0
C918 C 0.06928 0.24217 0.19211 0.0
C919 C 0.08679 0.26299 0.19634 0.0
C920 C 0.07596 0.21948 0.16076 0.0
C921 C 0.11087 0.2611 0.16692 0.0
C922 C 0.11764 0.23857 0.13515 0.0
C923 C 0.1073 0.19453 0.10223 0.0
C924 C 0.09011 0.17336 0.10063 0.0
C925 C 0.10041 0.21756 0.13229 0.0
C926 C 0.06574 0.17567 0.12853 0.0
C927 C 0.05868 0.19855 0.15816 0.0
H928 H 0.80194 0.62527 0.34098 0.0
H929 H 0.83538 0.55005 0.37874 0.0
H930 H 0.79459 0.53588 0.42363 0.0
H931 H 0.74978 0.54489 0.45277 0.0
H932 H 0.716 0.61999 0.41629 0.0
H933 H 0.75642 0.63394 0.36833 0.0
C934 C 0.80021 0.60567 0.3584 0.0
C935 C 0.82175 0.58878 0.35675 0.0
C936 C 0.77665 0.59761 0.38402 0.0
C937 C 0.81927 0.56357 0.38028 0.0
C938 C 0.7959 0.5554 0.40562 0.0
C939 C 0.75126 0.56441 0.43491 0.0
C940 C 0.72994 0.58147 0.4387 0.0
C941 C 0.77456 0.57232 0.40811 0.0
C942 C 0.73206 0.60644 0.41368 0.0
C943 C 0.75521 0.61447 0.3866 0.0
H944 H 0.40664 0.33181 0.7116 0.0
H945 H 0.38901 0.29606 0.53864 0.0
H946 H 0.39977 0.25363 0.58032 0.0
H947 H 0.4129 0.22629 0.66701 0.0
H948 H 0.4341 0.26287 0.83664 0.0
H949 H 0.42382 0.30522 0.79441 0.0
C950 C 0.40554 0.3149 0.68243 0.0
C951 C 0.39657 0.31739 0.62217 0.0
C952 C 0.41245 0.29052 0.70609 0.0
C953 C 0.39505 0.29492 0.58575 0.0
C954 C 0.40149 0.27054 0.60934 0.0
C955 C 0.41569 0.2435 0.69449 0.0
C956 C 0.42381 0.24114 0.75546 0.0
C957 C 0.41001 0.26806 0.66965 0.0
C958 C 0.42722 0.26386 0.79018 0.0
C959 C 0.42146 0.28821 0.76597 0.0
H960 H 0.69164 0.91021 0.7981 0.0
H961 H 0.656 0.87947 0.96027 0.0
H962 H 0.69607 0.88635 0.01683 0.0
H963 H 0.74146 0.89981 0.01995 0.0
H964 H 0.77799 0.92926 0.85811 0.0
H965 H 0.73758 0.92311 0.801 0.0
C966 C 0.69264 0.90477 0.84566 0.0
C967 C 0.67063 0.89441 0.87473 0.0
C968 C 0.71601 0.90821 0.8778 0.0
C969 C 0.67234 0.88795 0.93678 0.0
C970 C 0.69537 0.89162 0.96913 0.0
C971 C 0.74055 0.90512 0.97233 0.0
C972 C 0.76267 0.91514 0.94346 0.0
C973 C 0.71732 0.90163 0.94006 0.0
C974 C 0.76131 0.92133 0.8813 0.0
C975 C 0.73816 0.91798 0.84878 0.0
H976 H 0.87446 0.25854 0.74392 0.0
H977 H 0.95158 0.27166 0.67587 0.0
H978 H 0.951 0.22921 0.62519 0.0
H979 H 0.92817 0.18821 0.6007 0.0
H980 H 0.8502 0.1768 0.66527 0.0
H981 H 0.85147 0.21863 0.71791 0.0
C982 C 0.89122 0.25198 0.71845 0.0
C983 C 0.91314 0.26796 0.71406 0.0
C984 C 0.89055 0.22787 0.68917 0.0
C985 C 0.93449 0.2596 0.67964 0.0
C986 C 0.93418 0.23535 0.65099 0.0
C987 C 0.91162 0.19497 0.6267 0.0
C988 C 0.8892 0.17963 0.6299 0.0
C989 C 0.91231 0.21929 0.65557 0.0
C990 C 0.86762 0.18846 0.66268 0.0
C991 C 0.86835 0.21229 0.69258 0.0
H992 H 0.81098 0.43053 0.84624 0.0
H993 H 0.81982 0.3488 0.88286 0.0
H994 H 0.77686 0.34758 0.92904 0.0
H995 H 0.73668 0.36919 0.95618 0.0
H996 H 0.72597 0.45056 0.91882 0.0
H997 H 0.76962 0.45256 0.87438 0.0
C998 C 0.80342 0.41262 0.86491 0.0
C999 C 0.8183 0.38979 0.8616 0.0
C1000 C 0.77843 0.41197 0.89042 0.0
C1001 C 0.80848 0.36653 0.88509 0.0
C1002 C 0.784 0.36582 0.91131 0.0
C1003 C 0.74399 0.38746 0.93905 0.0
C1004 C 0.72834 0.40976 0.94136 0.0
C1005 C 0.76879 0.38835 0.91383 0.0
C1006 C 0.73774 0.43313 0.91729 0.0
C1007 C 0.76268 0.43428 0.89227 0.0
H1008 H 0.55211 0.25516 0.22832 0.0
H1009 H 0.62845 0.22377 0.19486 0.0
H1010 H 0.63968 0.26263 0.13668 0.0
H1011 H 0.62806 0.3061 0.09839 0.0
H1012 H 0.55174 0.33723 0.13413 0.0
H1013 H 0.54044 0.29801 0.1901 0.0
C1014 C 0.57134 0.25686 0.20912 0.0
C1015 C 0.58952 0.23665 0.21658 0.0
C1016 C 0.57768 0.27926 0.17652 0.0
C1017 C 0.61408 0.23897 0.18958 0.0
C1018 C 0.62053 0.26123 0.15662 0.0
C1019 C 0.60888 0.30417 0.118 0.0
C1020 C 0.59078 0.32457 0.11227 0.0
C1021 C 0.60251 0.28155 0.1501 0.0
C1022 C 0.56613 0.32197 0.13859 0.0
C1023 C 0.55961 0.2995 0.17028 0.0
H1024 H 0.70471 0.11904 0.32595 0.0
H1025 H 0.66663 0.11157 0.49964 0.0
H1026 H 0.70762 0.09879 0.54683 0.0
H1027 H 0.754 0.08869 0.53844 0.0
H1028 H 0.79248 0.09691 0.3659 0.0
H1029 H 0.75174 0.11119 0.31883 0.0
C1030 C 0.70542 0.11506 0.37433 0.0
C1031 C 0.6825 0.11612 0.40904 0.0
C1032 C 0.72913 0.1079 0.40137 0.0
C1033 C 0.68382 0.11048 0.47155 0.0
C1034 C 0.70729 0.1033 0.49869 0.0
C1035 C 0.75341 0.09355 0.49049 0.0
C1036 C 0.77613 0.09157 0.45559 0.0
C1037 C 0.72998 0.10166 0.46391 0.0
C1038 C 0.77528 0.09843 0.39379 0.0
C1039 C 0.75196 0.10644 0.36684 0.0
H1040 H 0.58579 0.76939 0.60011 0.0
H1041 H 0.58048 0.74274 0.78488 0.0
H1042 H 0.58433 0.69764 0.75118 0.0
H1043 H 0.59512 0.66667 0.67093 0.0
H1044 H 0.60162 0.69306 0.48537 0.0
H1045 H 0.59188 0.73737 0.51738 0.0
C1046 C 0.58462 0.75354 0.63236 0.0
C1047 C 0.58267 0.75907 0.69463 0.0
C1048 C 0.58785 0.72776 0.61271 0.0
C1049 C 0.58178 0.73863 0.73667 0.0
C1050 C 0.58424 0.71297 0.71747 0.0
C1051 C 0.59389 0.68196 0.63719 0.0
C1052 C 0.59953 0.67651 0.57598 0.0
C1053 C 0.58822 0.70739 0.65584 0.0
C1054 C 0.59807 0.69675 0.5331 0.0
C1055 C 0.59225 0.7221 0.55124 0.0
H1056 H 0.31741 0.08052 0.85234 0.0
H1057 H 0.31866 0.16315 0.8849 0.0
H1058 H 0.27458 0.16158 0.92356 0.0
H1059 H 0.23629 0.13705 0.95021 0.0
H1060 H 0.23418 0.05431 0.9229 0.0
H1061 H 0.27796 0.05558 0.8791 0.0
C1062 C 0.30803 0.09811 0.86821 0.0
C1063 C 0.32126 0.12194 0.86547 0.0
C1064 C 0.2826 0.09706 0.89105 0.0
C1065 C 0.30878 0.14464 0.88556 0.0
C1066 C 0.28362 0.14376 0.90802 0.0
C1067 C 0.24547 0.11921 0.93534 0.0
C1068 C 0.23225 0.09557 0.9407 0.0
C1069 C 0.27047 0.12011 0.91126 0.0
C1070 C 0.24404 0.07275 0.91921 0.0
C1071 C 0.26907 0.07348 0.89457 0.0
H1072 H 0.91839 0.81373 0.10343 0.0
H1073 H 0.83553 0.81573 0.13133 0.0
H1074 H 0.83731 0.77323 0.17963 0.0
H1075 H 0.86209 0.7358 0.21409 0.0
H1076 H 0.94485 0.73263 0.18777 0.0
H1077 H 0.94349 0.77524 0.13776 0.0
C1078 C 0.90081 0.80485 0.12046 0.0
C1079 C 0.87685 0.81779 0.11383 0.0
C1080 C 0.90195 0.78026 0.14806 0.0
C1081 C 0.85414 0.80601 0.13537 0.0
C1082 C 0.85514 0.78178 0.16316 0.0
C1083 C 0.8799 0.74453 0.19804 0.0
C1084 C 0.90359 0.73133 0.20534 0.0
C1085 C 0.8789 0.76879 0.16977 0.0
C1086 C 0.92639 0.7425 0.18255 0.0
C1087 C 0.92561 0.76685 0.15432 0.0
H1088 H 0.24574 0.40613 0.53283 0.0
H1089 H 0.28812 0.39938 0.365 0.0
H1090 H 0.24857 0.3858 0.31206 0.0
H1091 H 0.20136 0.37862 0.31259 0.0
H1092 H 0.15932 0.38501 0.48146 0.0
H1093 H 0.19926 0.39637 0.53477 0.0
C1094 C 0.24625 0.40169 0.48466 0.0
C1095 C 0.26969 0.40392 0.45276 0.0
C1096 C 0.22349 0.39406 0.45468 0.0
C1097 C 0.27032 0.39763 0.3906 0.0
C1098 C 0.24769 0.39004 0.36029 0.0
C1099 C 0.201 0.38207 0.36123 0.0
C1100 C 0.17731 0.38121 0.39284 0.0
C1101 C 0.22409 0.38849 0.39175 0.0
C1102 C 0.17719 0.38602 0.45579 0.0
C1103 C 0.20003 0.3924 0.48641 0.0
H1104 H 0.36229 0.76638 0.18352 0.0
H1105 H 0.44505 0.76629 0.15601 0.0
H1106 H 0.44241 0.72274 0.11091 0.0
H1107 H 0.41631 0.68395 0.08351 0.0
H1108 H 0.33378 0.68478 0.11752 0.0
H1109 H 0.33669 0.72875 0.15656 0.0
C1110 C 0.37986 0.75681 0.1683 0.0
C1111 C 0.4039 0.7694 0.17408 0.0
C1112 C 0.3782 0.73185 0.14372 0.0
C1113 C 0.42631 0.75702 0.15204 0.0
C1114 C 0.4248 0.73207 0.12669 0.0
C1115 C 0.39902 0.69373 0.09979 0.0
C1116 C 0.37482 0.68104 0.09716 0.0
C1117 C 0.40084 0.71914 0.12307 0.0
C1118 C 0.35256 0.69414 0.11787 0.0
C1119 C 0.3542 0.71928 0.14061 0.0
H1120 H 0.26414 0.91302 0.51187 0.0
H1121 H 0.22589 0.93495 0.34464 0.0
H1122 H 0.26761 0.93491 0.29226 0.0
H1123 H 0.31422 0.92434 0.29178 0.0
H1124 H 0.35094 0.89756 0.45744 0.0
H1125 H 0.31065 0.90415 0.51246 0.0
C1126 C 0.26482 0.91771 0.4639 0.0
C1127 C 0.24171 0.92349 0.43217 0.0
C1128 C 0.28869 0.91674 0.43362 0.0
C1129 C 0.24324 0.93043 0.37044 0.0
C1130 C 0.26712 0.93021 0.34027 0.0
C1131 C 0.31347 0.91981 0.33986 0.0
C1132 C 0.33576 0.91018 0.36994 0.0
C1133 C 0.28986 0.92264 0.37104 0.0
C1134 C 0.3344 0.90526 0.43281 0.0
C1135 C 0.31121 0.90876 0.46439 0.0
H1136 H 0.10405 0.80542 0.54058 0.0
H1137 H 0.11558 0.84717 0.70894 0.0
H1138 H 0.10582 0.80806 0.76644 0.0
H1139 H 0.09403 0.76202 0.76922 0.0
H1140 H 0.08452 0.71968 0.60167 0.0
H1141 H 0.09455 0.75883 0.54342 0.0
C1142 C 0.10486 0.80598 0.58982 0.0
C1143 C 0.11043 0.82942 0.62015 0.0
C1144 C 0.09985 0.78323 0.62277 0.0
C1145 C 0.11083 0.82966 0.68414 0.0
C1146 C 0.1055 0.80721 0.71719 0.0
C1147 C 0.09417 0.76143 0.71994 0.0
C1148 C 0.08846 0.7381 0.68972 0.0
C1149 C 0.09991 0.78394 0.68699 0.0
C1150 C 0.08909 0.73738 0.6259 0.0
C1151 C 0.09462 0.75979 0.59266 0.0
H1152 H 0.26765 0.59329 0.89967 0.0
H1153 H 0.23223 0.56541 0.06478 0.0
H1154 H 0.18956 0.5767 0.02575 0.0
H1155 H 0.16229 0.59648 0.94747 0.0
H1156 H 0.19679 0.62034 0.77771 0.0
H1157 H 0.2396 0.60893 0.81639 0.0
C1158 C 0.25063 0.58929 0.92681 0.0
C1159 C 0.25345 0.57901 0.9858 0.0
C1160 C 0.22585 0.59546 0.90367 0.0
C1161 C 0.23095 0.57401 0.02003 0.0
C1162 C 0.20639 0.58033 0.9976 0.0
C1163 C 0.179 0.59881 0.91821 0.0
C1164 C 0.17601 0.60975 0.85995 0.0
C1165 C 0.20362 0.59143 0.93989 0.0
C1166 C 0.19827 0.6128 0.82351 0.0
C1167 C 0.22289 0.60597 0.84531 0.0
loop_
_geom_bond_atom_site_label_1
_geom_bond_atom_site_label_2
_geom_bond_distance
_geom_bond_site_symmetry_2
_ccdc_geom_bond_type
C0 C1 1.351 . S
C0 N3 1.368 . S
C0 H5 0.931 . S
C1 C0 1.351 . S
C1 N2 1.373 1_556 S
C1 H29 0.930 . S
N2 C1 1.373 1_554 S
N2 C4 1.340 . S
N3 C0 1.368 . S
N3 C4 1.321 1_556 S
N3 Co6 2.135 . S
C4 N2 1.340 . S
C4 N3 1.321 1_554 S
C4 H28 0.930 . S
H5 C0 0.931 . S
Co6 N3 2.135 . S
Co6 N9 2.121 . S
Co6 O14 2.055 . S
Co6 O17 2.039 1_556 S
Co6 N20 2.140 1_556 S
C7 O8 1.227 . S
C7 O17 1.265 . S
O8 C7 1.227 . S
N9 Co6 2.121 . S
N9 C11 1.375 1_556 S
N9 C12 1.313 . S
C10 C11 1.338 . S
C10 N13 1.377 1_554 S
C10 H30 0.930 . S
C11 N9 1.375 1_554 S
C11 C10 1.338 . S
C11 H15 0.931 . S
C12 N9 1.313 . S
C12 N13 1.344 . S
C12 H16 0.930 . S
N13 C10 1.377 1_556 S
N13 C12 1.344 . S
O14 Co6 2.055 . S
O14 C18 1.253 . S
H15 C11 0.931 . S
H16 C12 0.930 . S
O17 Co6 2.039 1_554 S
O17 C7 1.265 . S
C18 O14 1.253 . S
C18 O19 1.227 . S
O19 C18 1.227 . S
N20 Co6 2.140 1_554 S
N20 C23 1.346 . S
N20 C24 1.345 1_554 S
C21 C22 1.387 . S
C21 C25 1.391 1_554 S
C22 C21 1.387 . S
C22 C23 1.369 . S
C22 H31 0.929 . S
C23 N20 1.346 . S
C23 C22 1.369 . S
C23 H26 0.928 . S
C24 N20 1.345 1_556 S
C24 C25 1.371 . S
C24 H27 0.931 . S
C25 C21 1.391 1_556 S
C25 C24 1.371 . S
C25 H32 0.930 . S
H26 C23 0.928 . S
H27 C24 0.931 . S
H28 C4 0.930 . S
H29 C1 0.930 . S
H30 C10 0.930 . S
H31 C22 0.929 . S
H32 C25 0.930 . S
C33 C34 1.351 . S
C33 N36 1.368 . S
C33 H38 0.931 . S
C34 C33 1.351 . S
C34 N35 1.373 . S
C34 H62 0.930 . S
N35 C34 1.373 . S
N35 C37 1.340 . S
N36 C33 1.368 . S
N36 C37 1.321 . S
N36 Co39 2.135 . S
C37 N35 1.340 . S
C37 N36 1.321 . S
C37 H61 0.930 . S
H38 C33 0.931 . S
Co39 N36 2.135 . S
Co39 N42 2.121 . S
Co39 O47 2.055 . S
Co39 O50 2.039 . S
Co39 N53 2.140 . S
C40 O41 1.227 . S
C40 O50 1.265 . S
O41 C40 1.227 . S
N42 Co39 2.121 . S
N42 C44 1.375 . S
N42 C45 1.313 . S
C43 C44 1.338 . S
C43 N46 1.377 . S
C43 H63 0.930 . S
C44 N42 1.375 . S
C44 C43 1.338 . S
C44 H48 0.931 . S
C45 N42 1.313 . S
C45 N46 1.344 . S
C45 H49 0.930 . S
N46 C43 1.377 . S
N46 C45 1.344 . S
O47 Co39 2.055 . S
O47 C51 1.253 . S
H48 C44 0.931 . S
H49 C45 0.930 . S
O50 Co39 2.039 . S
O50 C40 1.265 . S
C51 O47 1.253 . S
C51 O52 1.227 . S
O52 C51 1.227 . S
N53 Co39 2.140 . S
N53 C56 1.346 . S
N53 C57 1.345 . S
C54 C55 1.387 . S
C54 C58 1.391 . S
C55 C54 1.387 . S
C55 C56 1.369 . S
C55 H64 0.929 . S
C56 N53 1.346 . S
C56 C55 1.369 . S
C56 H59 0.928 . S
C57 N53 1.345 . S
C57 C58 1.371 . S
C57 H60 0.931 . S
C58 C54 1.391 . S
C58 C57 1.371 . S
C58 H65 0.930 . S
H59 C56 0.928 . S
H60 C57 0.931 . S
H61 C37 0.930 . S
H62 C34 0.930 . S
H63 C43 0.930 . S
H64 C55 0.929 . S
H65 C58 0.930 . S
C66 C67 1.351 . S
C66 N69 1.368 . S
C66 H71 0.931 . S
C67 C66 1.351 . S
C67 N68 1.373 . S
C67 H95 0.930 . S
N68 C67 1.373 . S
N68 C70 1.340 . S
N69 C66 1.368 . S
N69 C70 1.321 . S
N69 Co72 2.135 . S
C70 N68 1.340 . S
C70 N69 1.321 . S
C70 H94 0.930 . S
H71 C66 0.931 . S
Co72 N69 2.135 . S
Co72 N75 2.121 . S
Co72 O80 2.055 . S
Co72 O83 2.039 . S
Co72 N86 2.140 . S
C73 O74 1.227 . S
C73 O83 1.265 . S
O74 C73 1.227 . S
N75 Co72 2.121 . S
N75 C77 1.375 . S
N75 C78 1.313 . S
C76 C77 1.338 . S
C76 N79 1.377 . S
C76 H96 0.930 . S
C77 N75 1.375 . S
C77 C76 1.338 . S
C77 H81 0.931 . S
C78 N75 1.313 . S
C78 N79 1.344 . S
C78 H82 0.930 . S
N79 C76 1.377 . S
N79 C78 1.344 . S
O80 Co72 2.055 . S
O80 C84 1.253 . S
H81 C77 0.931 . S
H82 C78 0.930 . S
O83 Co72 2.039 . S
O83 C73 1.265 . S
C84 O80 1.253 . S
C84 O85 1.227 . S
O85 C84 1.227 . S
N86 Co72 2.140 . S
N86 C89 1.346 . S
N86 C90 1.345 . S
C87 C88 1.387 . S
C87 C91 1.391 . S
C88 C87 1.387 . S
C88 C89 1.369 . S
C88 H97 0.929 . S
C89 N86 1.346 . S
C89 C88 1.369 . S
C89 H92 0.928 . S
C90 N86 1.345 . S
C90 C91 1.371 . S
C90 H93 0.931 . S
C91 C87 1.391 . S
C91 C90 1.371 . S
C91 H98 0.930 . S
H92 C89 0.928 . S
H93 C90 0.931 . S
H94 C70 0.930 . S
H95 C67 0.930 . S
H96 C76 0.930 . S
H97 C88 0.929 . S
H98 C91 0.930 . S
C99 C100 1.351 . S
C99 N102 1.368 . S
C99 H104 0.931 . S
C100 C99 1.351 . S
C100 N101 1.373 . S
C100 H128 0.930 . S
N101 C100 1.373 . S
N101 C103 1.340 . S
N102 C99 1.368 . S
N102 C103 1.321 . S
N102 Co105 2.135 . S
C103 N101 1.340 . S
C103 N102 1.321 . S
C103 H127 0.930 . S
H104 C99 0.931 . S
Co105 N102 2.135 . S
Co105 N108 2.121 . S
Co105 O113 2.055 . S
Co105 O116 2.039 . S
Co105 N119 2.140 . S
C106 O107 1.227 . S
C106 O116 1.265 . S
O107 C106 1.227 . S
N108 Co105 2.121 . S
N108 C110 1.375 . S
N108 C111 1.313 . S
C109 C110 1.338 . S
C109 N112 1.377 . S
C109 H129 0.930 . S
C110 N108 1.375 . S
C110 C109 1.338 . S
C110 H114 0.931 . S
C111 N108 1.313 . S
C111 N112 1.344 . S
C111 H115 0.930 . S
N112 C109 1.377 . S
N112 C111 1.344 . S
O113 Co105 2.055 . S
O113 C117 1.253 . S
H114 C110 0.931 . S
H115 C111 0.930 . S
O116 Co105 2.039 . S
O116 C106 1.265 . S
C117 O113 1.253 . S
C117 O118 1.227 . S
O118 C117 1.227 . S
N119 Co105 2.140 . S
N119 C122 1.346 . S
N119 C123 1.345 . S
C120 C121 1.387 . S
C120 C124 1.391 . S
C121 C120 1.387 . S
C121 C122 1.369 . S
C121 H130 0.929 . S
C122 N119 1.346 . S
C122 C121 1.369 . S
C122 H125 0.928 . S
C123 N119 1.345 . S
C123 C124 1.371 . S
C123 H126 0.931 . S
C124 C120 1.391 . S
C124 C123 1.371 . S
C124 H131 0.930 . S
H125 C122 0.928 . S
H126 C123 0.931 . S
H127 C103 0.930 . S
H128 C100 0.930 . S
H129 C109 0.930 . S
H130 C121 0.929 . S
H131 C124 0.930 . S
C132 C133 1.351 . S
C132 N135 1.368 . S
C132 H137 0.931 . S
C133 C132 1.351 . S
C133 N134 1.373 . S
C133 H161 0.930 . S
N134 C133 1.373 . S
N134 C136 1.340 . S
N135 C132 1.368 . S
N135 C136 1.321 . S
N135 Co138 2.135 . S
C136 N134 1.340 . S
C136 N135 1.321 . S
C136 H160 0.930 . S
H137 C132 0.931 . S
Co138 N135 2.135 . S
Co138 N141 2.121 . S
Co138 O146 2.055 . S
Co138 O149 2.039 . S
Co138 N152 2.140 . S
C139 O140 1.227 . S
C139 O149 1.265 . S
O140 C139 1.227 . S
N141 Co138 2.121 . S
N141 C143 1.375 . S
N141 C144 1.313 . S
C142 C143 1.338 . S
C142 N145 1.377 . S
C142 H162 0.930 . S
C143 N141 1.375 . S
C143 C142 1.338 . S
C143 H147 0.931 . S
C144 N141 1.313 . S
C144 N145 1.344 . S
C144 H148 0.930 . S
N145 C142 1.377 . S
N145 C144 1.344 . S
O146 Co138 2.055 . S
O146 C150 1.253 . S
H147 C143 0.931 . S
H148 C144 0.930 . S
O149 Co138 2.039 . S
O149 C139 1.265 . S
C150 O146 1.253 . S
C150 O151 1.227 . S
O151 C150 1.227 . S
N152 Co138 2.140 . S
N152 C155 1.346 . S
N152 C156 1.345 . S
C153 C154 1.387 . S
C153 C157 1.391 . S
C154 C153 1.387 . S
C154 C155 1.369 . S
C154 H163 0.929 . S
C155 N152 1.346 . S
C155 C154 1.369 . S
C155 H158 0.928 . S
C156 N152 1.345 . S
C156 C157 1.371 . S
C156 H159 0.931 . S
C157 C153 1.391 . S
C157 C156 1.371 . S
C157 H164 0.930 . S
H158 C155 0.928 . S
H159 C156 0.931 . S
H160 C136 0.930 . S
H161 C133 0.930 . S
H162 C142 0.930 . S
H163 C154 0.929 . S
H164 C157 0.930 . S
C165 C166 1.351 . S
C165 N168 1.368 . S
C165 H170 0.931 . S
C166 C165 1.351 . S
C166 N167 1.373 . S
C166 H194 0.930 . S
N167 C166 1.373 . S
N167 C169 1.340 . S
N168 C165 1.368 . S
N168 C169 1.321 . S
N168 Co171 2.135 . S
C169 N167 1.340 . S
C169 N168 1.321 . S
C169 H193 0.930 . S
H170 C165 0.931 . S
Co171 N168 2.135 . S
Co171 N174 2.121 . S
Co171 O179 2.055 . S
Co171 O182 2.039 . S
Co171 N185 2.140 . S
C172 O173 1.227 . S
C172 O182 1.265 . S
O173 C172 1.227 . S
N174 Co171 2.121 . S
N174 C176 1.375 . S
N174 C177 1.313 . S
C175 C176 1.338 . S
C175 N178 1.377 . S
C175 H195 0.930 . S
C176 N174 1.375 . S
C176 C175 1.338 . S
C176 H180 0.931 . S
C177 N174 1.313 . S
C177 N178 1.344 . S
C177 H181 0.930 . S
N178 C175 1.377 . S
N178 C177 1.344 . S
O179 Co171 2.055 . S
O179 C183 1.253 . S
H180 C176 0.931 . S
H181 C177 0.930 . S
O182 Co171 2.039 . S
O182 C172 1.265 . S
C183 O179 1.253 . S
C183 O184 1.227 . S
O184 C183 1.227 . S
N185 Co171 2.140 . S
N185 C188 1.346 . S
N185 C189 1.345 . S
C186 C187 1.387 . S
C186 C190 1.391 . S
C187 C186 1.387 . S
C187 C188 1.369 . S
C187 H196 0.929 . S
C188 N185 1.346 . S
C188 C187 1.369 . S
C188 H191 0.928 . S
C189 N185 1.345 . S
C189 C190 1.371 . S
C189 H192 0.931 . S
C190 C186 1.391 . S
C190 C189 1.371 . S
C190 H197 0.930 . S
H191 C188 0.928 . S
H192 C189 0.931 . S
H193 C169 0.930 . S
H194 C166 0.930 . S
H195 C175 0.930 . S
H196 C187 0.929 . S
H197 C190 0.930 . S
C198 C199 1.351 . S
C198 N201 1.368 . S
C198 H203 0.931 . S
C199 C198 1.351 . S
C199 N200 1.373 1_556 S
C199 H227 0.930 . S
N200 C199 1.373 1_554 S
N200 C202 1.340 . S
N201 C198 1.368 . S
N201 C202 1.321 1_556 S
N201 Co204 2.135 . S
C202 N200 1.340 . S
C202 N201 1.321 1_554 S
C202 H226 0.930 . S
H203 C198 0.931 . S
Co204 N201 2.135 . S
Co204 N207 2.121 . S
Co204 O212 2.055 . S
Co204 O215 2.039 1_556 S
Co204 N218 2.140 1_556 S
C205 O206 1.227 . S
C205 O215 1.265 . S
O206 C205 1.227 . S
N207 Co204 2.121 . S
N207 C209 1.375 1_556 S
N207 C210 1.313 . S
C208 C209 1.338 . S
C208 N211 1.377 1_554 S
C208 H228 0.930 . S
C209 N207 1.375 1_554 S
C209 C208 1.338 . S
C209 H213 0.931 . S
C210 N207 1.313 . S
C210 N211 1.344 . S
C210 H214 0.930 . S
N211 C208 1.377 1_556 S
N211 C210 1.344 . S
O212 Co204 2.055 . S
O212 C216 1.253 . S
H213 C209 0.931 . S
H214 C210 0.930 . S
O215 Co204 2.039 1_554 S
O215 C205 1.265 . S
C216 O212 1.253 . S
C216 O217 1.227 . S
O217 C216 1.227 . S
N218 Co204 2.140 1_554 S
N218 C221 1.346 . S
N218 C222 1.345 1_554 S
C219 C220 1.387 . S
C219 C223 1.391 1_554 S
C220 C219 1.387 . S
C220 C221 1.369 . S
C220 H229 0.929 . S
C221 N218 1.346 . S
C221 C220 1.369 . S
C221 H224 0.928 . S
C222 N218 1.345 1_556 S
C222 C223 1.371 . S
C222 H225 0.931 . S
C223 C219 1.391 1_556 S
C223 C222 1.371 . S
C223 H230 0.930 . S
H224 C221 0.928 . S
H225 C222 0.931 . S
H226 C202 0.930 . S
H227 C199 0.930 . S
H228 C208 0.930 . S
H229 C220 0.929 . S
H230 C223 0.930 . S
C231 C232 1.351 . S
C231 N234 1.368 . S
C231 H236 0.931 . S
C232 C231 1.351 . S
C232 N233 1.373 . S
C232 H260 0.930 . S
N233 C232 1.373 . S
N233 C235 1.340 . S
N234 C231 1.368 . S
N234 C235 1.321 . S
N234 Co237 2.135 . S
C235 N233 1.340 . S
C235 N234 1.321 . S
C235 H259 0.930 . S
H236 C231 0.931 . S
Co237 N234 2.135 . S
Co237 N240 2.121 . S
Co237 O245 2.055 . S
Co237 O248 2.039 . S
Co237 N251 2.140 . S
C238 O239 1.227 . S
C238 O248 1.265 . S
O239 C238 1.227 . S
N240 Co237 2.121 . S
N240 C242 1.375 . S
N240 C243 1.313 . S
C241 C242 1.338 . S
C241 N244 1.377 . S
C241 H261 0.930 . S
C242 N240 1.375 . S
C242 C241 1.338 . S
C242 H246 0.931 . S
C243 N240 1.313 . S
C243 N244 1.344 . S
C243 H247 0.930 . S
N244 C241 1.377 . S
N244 C243 1.344 . S
O245 Co237 2.055 . S
O245 C249 1.253 . S
H246 C242 0.931 . S
H247 C243 0.930 . S
O248 Co237 2.039 . S
O248 C238 1.265 . S
C249 O245 1.253 . S
C249 O250 1.227 . S
O250 C249 1.227 . S
N251 Co237 2.140 . S
N251 C254 1.346 . S
N251 C255 1.345 . S
C252 C253 1.387 . S
C252 C256 1.391 . S
C253 C252 1.387 . S
C253 C254 1.369 . S
C253 H262 0.929 . S
C254 N251 1.346 . S
C254 C253 1.369 . S
C254 H257 0.928 . S
C255 N251 1.345 . S
C255 C256 1.371 . S
C255 H258 0.931 . S
C256 C252 1.391 . S
C256 C255 1.371 . S
C256 H263 0.930 . S
H257 C254 0.928 . S
H258 C255 0.931 . S
H259 C235 0.930 . S
H260 C232 0.930 . S
H261 C241 0.930 . S
H262 C253 0.929 . S
H263 C256 0.930 . S
C264 C265 1.351 . S
C264 N267 1.368 . S
C264 H269 0.931 . S
C265 C264 1.351 . S
C265 N266 1.373 . S
C265 H293 0.930 . S
N266 C265 1.373 . S
N266 C268 1.340 . S
N267 C264 1.368 . S
N267 C268 1.321 . S
N267 Co270 2.135 . S
C268 N266 1.340 . S
C268 N267 1.321 . S
C268 H292 0.930 . S
H269 C264 0.931 . S
Co270 N267 2.135 . S
Co270 N273 2.121 . S
Co270 O278 2.055 . S
Co270 O281 2.039 . S
Co270 N284 2.140 . S
C271 O272 1.227 . S
C271 O281 1.265 . S
O272 C271 1.227 . S
N273 Co270 2.121 . S
N273 C275 1.375 . S
N273 C276 1.313 . S
C274 C275 1.338 . S
C274 N277 1.377 . S
C274 H294 0.930 . S
C275 N273 1.375 . S
C275 C274 1.338 . S
C275 H279 0.931 . S
C276 N273 1.313 . S
C276 N277 1.344 . S
C276 H280 0.930 . S
N277 C274 1.377 . S
N277 C276 1.344 . S
O278 Co270 2.055 . S
O278 C282 1.253 . S
H279 C275 0.931 . S
H280 C276 0.930 . S
O281 Co270 2.039 . S
O281 C271 1.265 . S
C282 O278 1.253 . S
C282 O283 1.227 . S
O283 C282 1.227 . S
N284 Co270 2.140 . S
N284 C287 1.346 . S
N284 C288 1.345 . S
C285 C286 1.387 . S
C285 C289 1.391 . S
C286 C285 1.387 . S
C286 C287 1.369 . S
C286 H295 0.929 . S
C287 N284 1.346 . S
C287 C286 1.369 . S
C287 H290 0.928 . S
C288 N284 1.345 . S
C288 C289 1.371 . S
C288 H291 0.931 . S
C289 C285 1.391 . S
C289 C288 1.371 . S
C289 H296 0.930 . S
H290 C287 0.928 . S
H291 C288 0.931 . S
H292 C268 0.930 . S
H293 C265 0.930 . S
H294 C274 0.930 . S
H295 C286 0.929 . S
H296 C289 0.930 . S
C297 C298 1.351 . S
C297 N300 1.368 . S
C297 H302 0.931 . S
C298 C297 1.351 . S
C298 N299 1.373 . S
C298 H326 0.930 . S
N299 C298 1.373 . S
N299 C301 1.340 . S
N300 C297 1.368 . S
N300 C301 1.321 . S
N300 Co303 2.135 . S
C301 N299 1.340 . S
C301 N300 1.321 . S
C301 H325 0.930 . S
H302 C297 0.931 . S
Co303 N300 2.135 . S
Co303 N306 2.121 . S
Co303 O311 2.055 . S
Co303 O314 2.039 . S
Co303 N317 2.140 . S
C304 O305 1.227 . S
C304 O314 1.265 . S
O305 C304 1.227 . S
N306 Co303 2.121 . S
N306 C308 1.375 . S
N306 C309 1.313 . S
C307 C308 1.338 . S
C307 N310 1.377 . S
C307 H327 0.930 . S
C308 N306 1.375 . S
C308 C307 1.338 . S
C308 H312 0.931 . S
C309 N306 1.313 . S
C309 N310 1.344 . S
C309 H313 0.930 . S
N310 C307 1.377 . S
N310 C309 1.344 . S
O311 Co303 2.055 . S
O311 C315 1.253 . S
H312 C308 0.931 . S
H313 C309 0.930 . S
O314 Co303 2.039 . S
O314 C304 1.265 . S
C315 O311 1.253 . S
C315 O316 1.227 . S
O316 C315 1.227 . S
N317 Co303 2.140 . S
N317 C320 1.346 . S
N317 C321 1.345 . S
C318 C319 1.387 . S
C318 C322 1.391 . S
C319 C318 1.387 . S
C319 C320 1.369 . S
C319 H328 0.929 . S
C320 N317 1.346 . S
C320 C319 1.369 . S
C320 H323 0.928 . S
C321 N317 1.345 . S
C321 C322 1.371 . S
C321 H324 0.931 . S
C322 C318 1.391 . S
C322 C321 1.371 . S
C322 H329 0.930 . S
H323 C320 0.928 . S
H324 C321 0.931 . S
H325 C301 0.930 . S
H326 C298 0.930 . S
H327 C307 0.930 . S
H328 C319 0.929 . S
H329 C322 0.930 . S
C330 C331 1.351 . S
C330 N333 1.368 . S
C330 H335 0.931 . S
C331 C330 1.351 . S
C331 N332 1.373 1_556 S
C331 H359 0.930 . S
N332 C331 1.373 1_554 S
N332 C334 1.340 . S
N333 C330 1.368 . S
N333 C334 1.321 1_556 S
N333 Co336 2.135 . S
C334 N332 1.340 . S
C334 N333 1.321 1_554 S
C334 H358 0.930 . S
H335 C330 0.931 . S
Co336 N333 2.135 . S
Co336 N339 2.121 . S
Co336 O344 2.055 . S
Co336 O347 2.039 1_556 S
Co336 N350 2.140 1_556 S
C337 O338 1.227 . S
C337 O347 1.265 . S
O338 C337 1.227 . S
N339 Co336 2.121 . S
N339 C341 1.375 1_556 S
N339 C342 1.313 . S
C340 C341 1.338 . S
C340 N343 1.377 1_554 S
C340 H360 0.930 . S
C341 N339 1.375 1_554 S
C341 C340 1.338 . S
C341 H345 0.931 . S
C342 N339 1.313 . S
C342 N343 1.344 . S
C342 H346 0.930 . S
N343 C340 1.377 1_556 S
N343 C342 1.344 . S
O344 Co336 2.055 . S
O344 C348 1.253 . S
H345 C341 0.931 . S
H346 C342 0.930 . S
O347 Co336 2.039 1_554 S
O347 C337 1.265 . S
C348 O344 1.253 . S
C348 O349 1.227 . S
O349 C348 1.227 . S
N350 Co336 2.140 1_554 S
N350 C353 1.346 . S
N350 C354 1.345 1_554 S
C351 C352 1.387 . S
C351 C355 1.391 1_554 S
C352 C351 1.387 . S
C352 C353 1.369 . S
C352 H361 0.929 . S
C353 N350 1.346 . S
C353 C352 1.369 . S
C353 H356 0.928 . S
C354 N350 1.345 1_556 S
C354 C355 1.371 . S
C354 H357 0.931 . S
C355 C351 1.391 1_556 S
C355 C354 1.371 . S
C355 H362 0.930 . S
H356 C353 0.928 . S
H357 C354 0.931 . S
H358 C334 0.930 . S
H359 C331 0.930 . S
H360 C340 0.930 . S
H361 C352 0.929 . S
H362 C355 0.930 . S
C363 C364 1.351 . S
C363 N366 1.368 . S
C363 H368 0.931 . S
C364 C363 1.351 . S
C364 N365 1.373 . S
C364 H392 0.930 . S
N365 C364 1.373 . S
N365 C367 1.340 . S
N366 C363 1.368 . S
N366 C367 1.321 . S
N366 Co369 2.135 . S
C367 N365 1.340 . S
C367 N366 1.321 . S
C367 H391 0.930 . S
H368 C363 0.931 . S
Co369 N366 2.135 . S
Co369 N372 2.121 . S
Co369 O377 2.055 . S
Co369 O380 2.039 . S
Co369 N383 2.140 . S
C370 O371 1.227 . S
C370 O380 1.265 . S
O371 C370 1.227 . S
N372 Co369 2.121 . S
N372 C374 1.375 . S
N372 C375 1.313 . S
C373 C374 1.338 . S
C373 N376 1.377 . S
C373 H393 0.930 . S
C374 N372 1.375 . S
C374 C373 1.338 . S
C374 H378 0.931 . S
C375 N372 1.313 . S
C375 N376 1.344 . S
C375 H379 0.930 . S
N376 C373 1.377 . S
N376 C375 1.344 . S
O377 Co369 2.055 . S
O377 C381 1.253 . S
H378 C374 0.931 . S
H379 C375 0.930 . S
O380 Co369 2.039 . S
O380 C370 1.265 . S
C381 O377 1.253 . S
C381 O382 1.227 . S
O382 C381 1.227 . S
N383 Co369 2.140 . S
N383 C386 1.346 . S
N383 C387 1.345 . S
C384 C385 1.387 . S
C384 C388 1.391 . S
C385 C384 1.387 . S
C385 C386 1.369 . S
C385 H394 0.929 . S
C386 N383 1.346 . S
C386 C385 1.369 . S
C386 H389 0.928 . S
C387 N383 1.345 . S
C387 C388 1.371 . S
C387 H390 0.931 . S
C388 C384 1.391 . S
C388 C387 1.371 . S
C388 H395 0.930 . S
H389 C386 0.928 . S
H390 C387 0.931 . S
H391 C367 0.930 . S
H392 C364 0.930 . S
H393 C373 0.930 . S
H394 C385 0.929 . S
H395 C388 0.930 . S
C396 C397 1.351 . S
C396 N399 1.368 . S
C396 H401 0.931 . S
C397 C396 1.351 . S
C397 N398 1.373 1_556 S
C397 H425 0.930 . S
N398 C397 1.373 1_554 S
N398 C400 1.340 . S
N399 C396 1.368 . S
N399 C400 1.321 1_556 S
N399 Co402 2.135 . S
C400 N398 1.340 . S
C400 N399 1.321 1_554 S
C400 H424 0.930 . S
H401 C396 0.931 . S
Co402 N399 2.135 . S
Co402 N405 2.121 . S
Co402 O410 2.055 . S
Co402 O413 2.039 1_556 S
Co402 N416 2.140 1_556 S
C403 O404 1.227 . S
C403 O413 1.265 . S
O404 C403 1.227 . S
N405 Co402 2.121 . S
N405 C407 1.375 1_556 S
N405 C408 1.313 . S
C406 C407 1.338 . S
C406 N409 1.377 1_554 S
C406 H426 0.930 . S
C407 N405 1.375 1_554 S
C407 C406 1.338 . S
C407 H411 0.931 . S
C408 N405 1.313 . S
C408 N409 1.344 . S
C408 H412 0.930 . S
N409 C406 1.377 1_556 S
N409 C408 1.344 . S
O410 Co402 2.055 . S
O410 C414 1.253 . S
H411 C407 0.931 . S
H412 C408 0.930 . S
O413 Co402 2.039 1_554 S
O413 C403 1.265 . S
C414 O410 1.253 . S
C414 O415 1.227 . S
O415 C414 1.227 . S
N416 Co402 2.140 1_554 S
N416 C419 1.346 . S
N416 C420 1.345 1_554 S
C417 C418 1.387 . S
C417 C421 1.391 1_554 S
C418 C417 1.387 . S
C418 C419 1.369 . S
C418 H427 0.929 . S
C419 N416 1.346 . S
C419 C418 1.369 . S
C419 H422 0.928 . S
C420 N416 1.345 1_556 S
C420 C421 1.371 . S
C420 H423 0.931 . S
C421 C417 1.391 1_556 S
C421 C420 1.371 . S
C421 H428 0.930 . S
H422 C419 0.928 . S
H423 C420 0.931 . S
H424 C400 0.930 . S
H425 C397 0.930 . S
H426 C406 0.930 . S
H427 C418 0.929 . S
H428 C421 0.930 . S
C429 C430 1.351 . S
C429 N432 1.368 . S
C429 H434 0.931 . S
C430 C429 1.351 . S
C430 N431 1.373 . S
C430 H458 0.930 . S
N431 C430 1.373 . S
N431 C433 1.340 . S
N432 C429 1.368 . S
N432 C433 1.321 . S
N432 Co435 2.135 . S
C433 N431 1.340 . S
C433 N432 1.321 . S
C433 H457 0.930 . S
H434 C429 0.931 . S
Co435 N432 2.135 . S
Co435 N438 2.121 . S
Co435 O443 2.055 . S
Co435 O446 2.039 . S
Co435 N449 2.140 . S
C436 O437 1.227 . S
C436 O446 1.265 . S
O437 C436 1.227 . S
N438 Co435 2.121 . S
N438 C440 1.375 . S
N438 C441 1.313 . S
C439 C440 1.338 . S
C439 N442 1.377 . S
C439 H459 0.930 . S
C440 N438 1.375 . S
C440 C439 1.338 . S
C440 H444 0.931 . S
C441 N438 1.313 . S
C441 N442 1.344 . S
C441 H445 0.930 . S
N442 C439 1.377 . S
N442 C441 1.344 . S
O443 Co435 2.055 . S
O443 C447 1.253 . S
H444 C440 0.931 . S
H445 C441 0.930 . S
O446 Co435 2.039 . S
O446 C436 1.265 . S
C447 O443 1.253 . S
C447 O448 1.227 . S
O448 C447 1.227 . S
N449 Co435 2.140 . S
N449 C452 1.346 . S
N449 C453 1.345 . S
C450 C451 1.387 . S
C450 C454 1.391 . S
C451 C450 1.387 . S
C451 C452 1.369 . S
C451 H460 0.929 . S
C452 N449 1.346 . S
C452 C451 1.369 . S
C452 H455 0.928 . S
C453 N449 1.345 . S
C453 C454 1.371 . S
C453 H456 0.931 . S
C454 C450 1.391 . S
C454 C453 1.371 . S
C454 H461 0.930 . S
H455 C452 0.928 . S
H456 C453 0.931 . S
H457 C433 0.930 . S
H458 C430 0.930 . S
H459 C439 0.930 . S
H460 C451 0.929 . S
H461 C454 0.930 . S
C462 C463 1.351 . S
C462 N465 1.368 . S
C462 H467 0.931 . S
C463 C462 1.351 . S
C463 N464 1.373 . S
C463 H491 0.930 . S
N464 C463 1.373 . S
N464 C466 1.340 . S
N465 C462 1.368 . S
N465 C466 1.321 . S
N465 Co468 2.135 . S
C466 N464 1.340 . S
C466 N465 1.321 . S
C466 H490 0.930 . S
H467 C462 0.931 . S
Co468 N465 2.135 . S
Co468 N471 2.121 . S
Co468 O476 2.055 . S
Co468 O479 2.039 . S
Co468 N482 2.140 . S
C469 O470 1.227 . S
C469 O479 1.265 . S
O470 C469 1.227 . S
N471 Co468 2.121 . S
N471 C473 1.375 . S
N471 C474 1.313 . S
C472 C473 1.338 . S
C472 N475 1.377 . S
C472 H492 0.930 . S
C473 N471 1.375 . S
C473 C472 1.338 . S
C473 H477 0.931 . S
C474 N471 1.313 . S
C474 N475 1.344 . S
C474 H478 0.930 . S
N475 C472 1.377 . S
N475 C474 1.344 . S
O476 Co468 2.055 . S
O476 C480 1.253 . S
H477 C473 0.931 . S
H478 C474 0.930 . S
O479 Co468 2.039 . S
O479 C469 1.265 . S
C480 O476 1.253 . S
C480 O481 1.227 . S
O481 C480 1.227 . S
N482 Co468 2.140 . S
N482 C485 1.346 . S
N482 C486 1.345 . S
C483 C484 1.387 . S
C483 C487 1.391 . S
C484 C483 1.387 . S
C484 C485 1.369 . S
C484 H493 0.929 . S
C485 N482 1.346 . S
C485 C484 1.369 . S
C485 H488 0.928 . S
C486 N482 1.345 . S
C486 C487 1.371 . S
C486 H489 0.931 . S
C487 C483 1.391 . S
C487 C486 1.371 . S
C487 H494 0.930 . S
H488 C485 0.928 . S
H489 C486 0.931 . S
H490 C466 0.930 . S
H491 C463 0.930 . S
H492 C472 0.930 . S
H493 C484 0.929 . S
H494 C487 0.930 . S
C495 C496 1.351 . S
C495 N498 1.368 . S
C495 H500 0.931 . S
C496 C495 1.351 . S
C496 N497 1.373 . S
C496 H524 0.930 . S
N497 C496 1.373 . S
N497 C499 1.340 . S
N498 C495 1.368 . S
N498 C499 1.321 . S
N498 Co501 2.135 . S
C499 N497 1.340 . S
C499 N498 1.321 . S
C499 H523 0.930 . S
H500 C495 0.931 . S
Co501 N498 2.135 . S
Co501 N504 2.121 . S
Co501 O509 2.055 . S
Co501 O512 2.039 . S
Co501 N515 2.140 . S
C502 O503 1.227 . S
C502 O512 1.265 . S
O503 C502 1.227 . S
N504 Co501 2.121 . S
N504 C506 1.375 . S
N504 C507 1.313 . S
C505 C506 1.338 . S
C505 N508 1.377 . S
C505 H525 0.930 . S
C506 N504 1.375 . S
C506 C505 1.338 . S
C506 H510 0.931 . S
C507 N504 1.313 . S
C507 N508 1.344 . S
C507 H511 0.930 . S
N508 C505 1.377 . S
N508 C507 1.344 . S
O509 Co501 2.055 . S
O509 C513 1.253 . S
H510 C506 0.931 . S
H511 C507 0.930 . S
O512 Co501 2.039 . S
O512 C502 1.265 . S
C513 O509 1.253 . S
C513 O514 1.227 . S
O514 C513 1.227 . S
N515 Co501 2.140 . S
N515 C518 1.346 . S
N515 C519 1.345 . S
C516 C517 1.387 . S
C516 C520 1.391 . S
C517 C516 1.387 . S
C517 C518 1.369 . S
C517 H526 0.929 . S
C518 N515 1.346 . S
C518 C517 1.369 . S
C518 H521 0.928 . S
C519 N515 1.345 . S
C519 C520 1.371 . S
C519 H522 0.931 . S
C520 C516 1.391 . S
C520 C519 1.371 . S
C520 H527 0.930 . S
H521 C518 0.928 . S
H522 C519 0.931 . S
H523 C499 0.930 . S
H524 C496 0.930 . S
H525 C505 0.930 . S
H526 C517 0.929 . S
H527 C520 0.930 . S
H528 C534 0.930 . S
H529 C537 0.930 . S
H530 C538 0.930 . S
H531 C539 0.930 . S
H532 C542 0.930 1_556 S
H533 C543 0.938 . S
C534 H528 0.930 . S
C534 C535 1.355 . S
C534 C536 1.402 1_655 S
C535 C534 1.355 . S
C535 C537 1.419 1_565 S
C536 C534 1.402 1_455 S
C536 C541 1.425 1_465 S
C536 C543 1.416 1_554 S
C537 H529 0.930 . S
C537 C535 1.419 1_545 S
C537 C538 1.362 . S
C538 H530 0.930 . S
C538 C537 1.362 . S
C538 C541 1.422 . S
C539 H531 0.930 . S
C539 C540 1.355 . S
C539 C541 1.402 1_455 S
C540 C539 1.355 . S
C540 C542 1.419 1_545 S
C541 C536 1.425 1_645 S
C541 C538 1.422 . S
C541 C539 1.402 1_655 S
C542 H532 0.930 1_554 S
C542 C540 1.419 1_565 S
C542 C543 1.361 1_554 S
C543 H533 0.938 . S
C543 C536 1.416 1_556 S
C543 C542 1.361 1_556 S
H544 C550 0.930 . S
H545 C553 0.930 . S
H546 C554 0.930 . S
H547 C555 0.930 . S
H548 C558 0.930 . S
H549 C559 0.930 . S
C550 H544 0.930 . S
C550 C551 1.355 . S
C550 C552 1.415 . S
C551 C550 1.355 . S
C551 C553 1.419 1_655 S
C552 C550 1.415 . S
C552 C557 1.425 1_655 S
C552 C559 1.409 . S
C553 H545 0.930 . S
C553 C551 1.419 1_455 S
C553 C554 1.362 . S
C554 H546 0.930 . S
C554 C553 1.362 . S
C554 C557 1.409 . S
C555 H547 0.930 . S
C555 C556 1.355 . S
C555 C557 1.415 . S
C556 C555 1.355 . S
C556 C558 1.419 1_455 S
C557 C552 1.425 1_455 S
C557 C554 1.409 . S
C557 C555 1.415 . S
C558 H548 0.930 . S
C558 C556 1.419 1_655 S
C558 C559 1.362 . S
C559 H549 0.930 . S
C559 C552 1.409 . S
C559 C558 1.362 . S
H560 C566 0.930 . S
H561 C569 0.930 . S
H562 C570 0.930 . S
H563 C571 0.930 . S
H564 C574 0.930 . S
H565 C575 0.930 . S
C566 H560 0.930 . S
C566 C567 1.355 . S
C566 C568 1.415 . S
C567 C566 1.355 . S
C567 C569 1.419 . S
C568 C566 1.415 . S
C568 C573 1.425 . S
C568 C575 1.409 . S
C569 H561 0.930 . S
C569 C567 1.419 . S
C569 C570 1.362 . S
C570 H562 0.930 . S
C570 C569 1.362 . S
C570 C573 1.409 . S
C571 H563 0.930 . S
C571 C572 1.355 . S
C571 C573 1.415 . S
C572 C571 1.355 . S
C572 C574 1.419 . S
C573 C568 1.425 . S
C573 C570 1.409 . S
C573 C571 1.415 . S
C574 H564 0.930 . S
C574 C572 1.419 . S
C574 C575 1.362 . S
C575 H565 0.930 . S
C575 C568 1.409 . S
C575 C574 1.362 . S
H576 C582 0.930 . S
H577 C585 0.930 . S
H578 C586 0.930 . S
H579 C587 0.930 . S
H580 C590 0.930 . S
H581 C591 0.930 . S
C582 H576 0.930 . S
C582 C583 1.355 . S
C582 C584 1.415 . S
C583 C582 1.355 . S
C583 C585 1.419 . S
C584 C582 1.415 . S
C584 C589 1.425 1_565 S
C584 C591 1.409 1_565 S
C585 H577 0.930 . S
C585 C583 1.419 . S
C585 C586 1.362 . S
C586 H578 0.930 . S
C586 C585 1.362 . S
C586 C589 1.409 1_565 S
C587 H579 0.930 . S
C587 C588 1.355 . S
C587 C589 1.415 . S
C588 C587 1.355 . S
C588 C590 1.419 . S
C589 C584 1.425 1_545 S
C589 C586 1.409 1_545 S
C589 C587 1.415 . S
C590 H580 0.930 . S
C590 C588 1.419 . S
C590 C591 1.362 . S
C591 H581 0.930 . S
C591 C584 1.409 1_545 S
C591 C590 1.362 . S
H592 C598 0.930 1_545 S
H593 C601 0.930 . S
H594 C602 0.930 1_655 S
H595 C603 0.930 1_565 S
H596 C606 0.930 . S
H597 C607 0.930 1_455 S
C598 H592 0.930 1_565 S
C598 C599 1.355 . S
C598 C600 1.415 1_565 S
C599 C598 1.355 . S
C599 C601 1.419 . S
C600 C598 1.415 1_545 S
C600 C605 1.425 1_445 S
C600 C607 1.409 1_455 S
C601 H593 0.930 . S
C601 C599 1.419 . S
C601 C602 1.362 . S
C602 H594 0.930 1_455 S
C602 C601 1.362 . S
C602 C605 1.409 1_455 S
C603 H595 0.930 1_545 S
C603 C604 1.355 . S
C603 C605 1.415 1_545 S
C604 C603 1.355 . S
C604 C606 1.419 . S
C605 C600 1.425 1_665 S
C605 C602 1.409 1_655 S
C605 C603 1.415 1_565 S
C606 H596 0.930 . S
C606 C604 1.419 . S
C606 C607 1.362 . S
C607 H597 0.930 1_655 S
C607 C600 1.409 1_655 S
C607 C606 1.362 . S
H608 C614 0.930 . S
H609 C617 0.930 . S
H610 C618 0.930 . S
H611 C619 0.930 . S
H612 C622 0.930 . S
H613 C623 0.930 . S
C614 H608 0.930 . S
C614 C615 1.355 . S
C614 C616 1.415 . S
C615 C614 1.355 . S
C615 C617 1.419 1_655 S
C616 C614 1.415 . S
C616 C621 1.425 1_655 S
C616 C623 1.409 . S
C617 H609 0.930 . S
C617 C615 1.419 1_455 S
C617 C618 1.362 . S
C618 H610 0.930 . S
C618 C617 1.362 . S
C618 C621 1.409 . S
C619 H611 0.930 . S
C619 C620 1.355 . S
C619 C621 1.415 . S
C620 C619 1.355 . S
C620 C622 1.419 1_455 S
C621 C616 1.425 1_455 S
C621 C618 1.409 . S
C621 C619 1.415 . S
C622 H612 0.930 . S
C622 C620 1.419 1_655 S
C622 C623 1.362 . S
C623 H613 0.930 . S
C623 C616 1.409 . S
C623 C622 1.362 . S
H624 C630 0.930 1_556 S
H625 C633 0.930 . S
H626 C634 0.930 . S
H627 C635 0.930 . S
H628 C638 0.930 . S
H629 C639 0.930 . S
C630 H624 0.930 1_554 S
C630 C631 1.355 . S
C630 C632 1.415 . S
C631 C630 1.355 . S
C631 C633 1.419 . S
C632 C630 1.415 . S
C632 C637 1.425 . S
C632 C639 1.409 1_554 S
C633 H625 0.930 . S
C633 C631 1.419 . S
C633 C634 1.362 . S
C634 H626 0.930 . S
C634 C633 1.362 . S
C634 C637 1.409 . S
C635 H627 0.930 . S
C635 C636 1.355 . S
C635 C637 1.415 . S
C636 C635 1.355 . S
C636 C638 1.419 1_554 S
C637 C632 1.425 . S
C637 C634 1.409 . S
C637 C635 1.415 . S
C638 H628 0.930 . S
C638 C636 1.419 1_556 S
C638 C639 1.362 . S
C639 H629 0.930 . S
C639 C632 1.409 1_556 S
C639 C638 1.362 . S
H640 C646 0.930 . S
H641 C649 0.930 . S
H642 C650 0.930 . S
H643 C651 0.930 . S
H644 C654 0.930 . S
H645 C655 0.930 . S
C646 H640 0.930 . S
C646 C647 1.355 . S
C646 C648 1.411 . S
C647 C646 1.355 . S
C647 C649 1.419 . S
C648 C646 1.411 . S
C648 C653 1.425 1_565 S
C648 C655 1.413 1_565 S
C649 H641 0.930 . S
C649 C647 1.419 . S
C649 C650 1.362 . S
C650 H642 0.930 . S
C650 C649 1.362 . S
C650 C653 1.413 1_565 S
C651 H643 0.930 . S
C651 C652 1.355 . S
C651 C653 1.411 . S
C652 C651 1.355 . S
C652 C654 1.419 . S
C653 C648 1.425 1_545 S
C653 C650 1.413 1_545 S
C653 C651 1.411 . S
C654 H644 0.930 . S
C654 C652 1.419 . S
C654 C655 1.362 . S
C655 H645 0.930 . S
C655 C648 1.413 1_545 S
C655 C654 1.362 . S
H656 C662 0.930 . S
H657 C665 0.930 . S
H658 C666 0.930 . S
H659 C667 0.930 . S
H660 C670 0.930 . S
H661 C671 0.930 . S
C662 H656 0.930 . S
C662 C663 1.355 . S
C662 C664 1.415 . S
C663 C662 1.355 . S
C663 C665 1.419 . S
C664 C662 1.415 . S
C664 C669 1.425 . S
C664 C671 1.409 1_565 S
C665 H657 0.930 . S
C665 C663 1.419 . S
C665 C666 1.362 . S
C666 H658 0.930 . S
C666 C665 1.362 . S
C666 C669 1.409 . S
C667 H659 0.930 . S
C667 C668 1.355 . S
C667 C669 1.415 1_545 S
C668 C667 1.355 . S
C668 C670 1.419 . S
C669 C664 1.425 . S
C669 C666 1.409 . S
C669 C667 1.415 1_565 S
C670 H660 0.930 . S
C670 C668 1.419 . S
C670 C671 1.362 . S
C671 H661 0.930 . S
C671 C664 1.409 1_545 S
C671 C670 1.362 . S
H672 C678 0.930 1_655 S
H673 C681 0.930 . S
H674 C682 0.930 . S
H675 C683 0.930 . S
H676 C686 0.930 . S
H677 C687 0.930 . S
C678 H672 0.930 1_455 S
C678 C679 1.355 . S
C678 C680 1.415 1_455 S
C679 C678 1.355 . S
C679 C681 1.419 . S
C680 C678 1.415 1_655 S
C680 C685 1.425 1_655 S
C680 C687 1.409 . S
C681 H673 0.930 . S
C681 C679 1.419 . S
C681 C682 1.362 . S
C682 H674 0.930 . S
C682 C681 1.362 . S
C682 C685 1.409 . S
C683 H675 0.930 . S
C683 C684 1.355 1_455 S
C683 C685 1.415 . S
C684 C683 1.355 1_655 S
C684 C686 1.419 . S
C685 C680 1.425 1_455 S
C685 C682 1.409 . S
C685 C683 1.415 . S
C686 H676 0.930 . S
C686 C684 1.419 . S
C686 C687 1.362 . S
C687 H677 0.930 . S
C687 C680 1.409 . S
C687 C686 1.362 . S
H688 C694 0.930 . S
H689 C697 0.930 . S
H690 C698 0.930 . S
H691 C699 0.930 . S
H692 C702 0.930 . S
H693 C703 0.930 . S
C694 H688 0.930 . S
C694 C695 1.355 . S
C694 C696 1.415 . S
C695 C694 1.355 . S
C695 C697 1.419 . S
C696 C694 1.415 . S
C696 C701 1.425 . S
C696 C703 1.409 . S
C697 H689 0.930 . S
C697 C695 1.419 . S
C697 C698 1.362 . S
C698 H690 0.930 . S
C698 C697 1.362 . S
C698 C701 1.409 . S
C699 H691 0.930 . S
C699 C700 1.355 . S
C699 C701 1.415 . S
C700 C699 1.355 . S
C700 C702 1.419 . S
C701 C696 1.425 . S
C701 C698 1.409 . S
C701 C699 1.415 . S
C702 H692 0.930 . S
C702 C700 1.419 . S
C702 C703 1.362 . S
C703 H693 0.930 . S
C703 C696 1.409 . S
C703 C702 1.362 . S
H704 C710 0.930 . S
H705 C713 0.930 . S
H706 C714 0.930 1_556 S
H707 C715 0.930 . S
H708 C718 0.930 . S
H709 C719 0.930 . S
C710 H704 0.930 . S
C710 C711 1.355 . S
C710 C712 1.415 . S
C711 C710 1.355 . S
C711 C713 1.419 . S
C712 C710 1.415 . S
C712 C717 1.425 1_554 S
C712 C719 1.409 1_554 S
C713 H705 0.930 . S
C713 C711 1.419 . S
C713 C714 1.362 . S
C714 H706 0.930 1_554 S
C714 C713 1.362 . S
C714 C717 1.409 1_554 S
C715 H707 0.930 . S
C715 C716 1.355 . S
C715 C717 1.415 . S
C716 C715 1.355 . S
C716 C718 1.419 . S
C717 C712 1.425 1_556 S
C717 C714 1.409 1_556 S
C717 C715 1.415 . S
C718 H708 0.930 . S
C718 C716 1.419 . S
C718 C719 1.362 . S
C719 H709 0.930 . S
C719 C712 1.409 1_556 S
C719 C718 1.362 . S
H720 C726 0.930 . S
H721 C729 0.930 . S
H722 C730 0.930 . S
H723 C731 0.930 . S
H724 C734 0.930 . S
H725 C735 0.930 . S
C726 H720 0.930 . S
C726 C727 1.355 . S
C726 C728 1.415 . S
C727 C726 1.355 . S
C727 C729 1.419 1_545 S
C728 C726 1.415 . S
C728 C733 1.425 1_545 S
C728 C735 1.409 . S
C729 H721 0.930 . S
C729 C727 1.419 1_565 S
C729 C730 1.362 . S
C730 H722 0.930 . S
C730 C729 1.362 . S
C730 C733 1.409 . S
C731 H723 0.930 . S
C731 C732 1.355 . S
C731 C733 1.415 . S
C732 C731 1.355 . S
C732 C734 1.419 . S
C733 C728 1.425 1_565 S
C733 C730 1.409 . S
C733 C731 1.415 . S
C734 H724 0.930 . S
C734 C732 1.419 . S
C734 C735 1.362 1_565 S
C735 H725 0.930 . S
C735 C728 1.409 . S
C735 C734 1.362 1_545 S
H736 C742 0.930 . S
H737 C745 0.930 . S
H738 C746 0.930 . S
H739 C747 0.930 . S
H740 C750 0.930 . S
H741 C751 0.930 . S
C742 H736 0.930 . S
C742 C743 1.355 . S
C742 C744 1.415 . S
C743 C742 1.355 . S
C743 C745 1.419 1_655 S
C744 C742 1.415 . S
C744 C749 1.425 1_655 S
C744 C751 1.409 1_556 S
C745 H737 0.930 . S
C745 C743 1.419 1_455 S
C745 C746 1.362 . S
C746 H738 0.930 . S
C746 C745 1.362 . S
C746 C749 1.409 . S
C747 H739 0.930 . S
C747 C748 1.355 . S
C747 C749 1.415 1_554 S
C748 C747 1.355 . S
C748 C750 1.419 . S
C749 C744 1.425 1_455 S
C749 C746 1.409 . S
C749 C747 1.415 1_556 S
C750 H740 0.930 . S
C750 C748 1.419 . S
C750 C751 1.362 1_455 S
C751 H741 0.930 . S
C751 C744 1.409 1_554 S
C751 C750 1.362 1_655 S
H752 C758 0.930 . S
H753 C761 0.930 . S
H754 C762 0.930 . S
H755 C763 0.930 . S
H756 C766 0.930 . S
H757 C767 0.930 . S
C758 H752 0.930 . S
C758 C759 1.355 . S
C758 C760 1.415 . S
C759 C758 1.355 . S
C759 C761 1.419 . S
C760 C758 1.415 . S
C760 C765 1.425 . S
C760 C767 1.409 . S
C761 H753 0.930 . S
C761 C759 1.419 . S
C761 C762 1.362 . S
C762 H754 0.930 . S
C762 C761 1.362 . S
C762 C765 1.409 . S
C763 H755 0.930 . S
C763 C764 1.355 . S
C763 C765 1.415 . S
C764 C763 1.355 . S
C764 C766 1.419 . S
C765 C760 1.425 . S
C765 C762 1.409 . S
C765 C763 1.415 . S
C766 H756 0.930 . S
C766 C764 1.419 . S
C766 C767 1.362 . S
C767 H757 0.930 . S
C767 C760 1.409 . S
C767 C766 1.362 . S
H768 C774 0.930 . S
H769 C777 0.930 . S
H770 C778 0.930 . S
H771 C779 0.930 . S
H772 C782 0.930 . S
H773 C783 0.930 . S
C774 H768 0.930 . S
C774 C775 1.355 . S
C774 C776 1.415 . S
C775 C774 1.355 . S
C775 C777 1.419 . S
C776 C774 1.415 . S
C776 C781 1.425 . S
C776 C783 1.409 . S
C777 H769 0.930 . S
C777 C775 1.419 . S
C777 C778 1.362 . S
C778 H770 0.930 . S
C778 C777 1.362 . S
C778 C781 1.409 . S
C779 H771 0.930 . S
C779 C780 1.355 . S
C779 C781 1.415 . S
C780 C779 1.355 . S
C780 C782 1.419 . S
C781 C776 1.425 . S
C781 C778 1.409 . S
C781 C779 1.415 . S
C782 H772 0.930 . S
C782 C780 1.419 . S
C782 C783 1.362 . S
C783 H773 0.930 . S
C783 C776 1.409 . S
C783 C782 1.362 . S
H784 C790 0.930 . S
H785 C793 0.930 . S
H786 C794 0.930 . S
H787 C795 0.930 . S
H788 C798 0.930 . S
H789 C799 0.930 . S
C790 H784 0.930 . S
C790 C791 1.355 . S
C790 C792 1.415 . S
C791 C790 1.355 . S
C791 C793 1.419 . S
C792 C790 1.415 . S
C792 C797 1.425 . S
C792 C799 1.409 . S
C793 H785 0.930 . S
C793 C791 1.419 . S
C793 C794 1.362 . S
C794 H786 0.930 . S
C794 C793 1.362 . S
C794 C797 1.409 . S
C795 H787 0.930 . S
C795 C796 1.355 . S
C795 C797 1.415 . S
C796 C795 1.355 . S
C796 C798 1.419 . S
C797 C792 1.425 . S
C797 C794 1.409 . S
C797 C795 1.415 . S
C798 H788 0.930 . S
C798 C796 1.419 . S
C798 C799 1.362 . S
C799 H789 0.930 . S
C799 C792 1.409 . S
C799 C798 1.362 . S
H800 C806 0.930 . S
H801 C809 0.930 . S
H802 C810 0.930 . S
H803 C811 0.930 . S
H804 C814 0.930 . S
H805 C815 0.930 . S
C806 H800 0.930 . S
C806 C807 1.355 . S
C806 C808 1.415 . S
C807 C806 1.355 . S
C807 C809 1.419 . S
C808 C806 1.415 . S
C808 C813 1.425 1_554 S
C808 C815 1.409 . S
C809 H801 0.930 . S
C809 C807 1.419 . S
C809 C810 1.362 1_554 S
C810 H802 0.930 . S
C810 C809 1.362 1_556 S
C810 C813 1.409 . S
C811 H803 0.930 . S
C811 C812 1.355 . S
C811 C813 1.415 . S
C812 C811 1.355 . S
C812 C814 1.419 . S
C813 C808 1.425 1_556 S
C813 C810 1.409 . S
C813 C811 1.415 . S
C814 H804 0.930 . S
C814 C812 1.419 . S
C814 C815 1.362 1_556 S
C815 H805 0.930 . S
C815 C808 1.409 . S
C815 C814 1.362 1_554 S
H816 C822 0.930 . S
H817 C825 0.930 . S
H818 C826 0.930 . S
H819 C827 0.930 . S
H820 C830 0.930 . S
H821 C831 0.930 . S
C822 H816 0.930 . S
C822 C823 1.355 . S
C822 C824 1.415 . S
C823 C822 1.355 . S
C823 C825 1.419 . S
C824 C822 1.415 . S
C824 C829 1.425 . S
C824 C831 1.409 1_545 S
C825 H817 0.930 . S
C825 C823 1.419 . S
C825 C826 1.362 . S
C826 H818 0.930 . S
C826 C825 1.362 . S
C826 C829 1.409 . S
C827 H819 0.930 . S
C827 C828 1.355 . S
C827 C829 1.415 1_565 S
C828 C827 1.355 . S
C828 C830 1.419 . S
C829 C824 1.425 . S
C829 C826 1.409 . S
C829 C827 1.415 1_545 S
C830 H820 0.930 . S
C830 C828 1.419 . S
C830 C831 1.362 . S
C831 H821 0.930 . S
C831 C824 1.409 1_565 S
C831 C830 1.362 . S
H832 C838 0.930 . S
H833 C841 0.930 . S
H834 C842 0.930 . S
H835 C843 0.930 . S
H836 C846 0.930 1_455 S
H837 C847 0.930 . S
C838 H832 0.930 . S
C838 C839 1.355 . S
C838 C840 1.415 . S
C839 C838 1.355 . S
C839 C841 1.419 1_455 S
C840 C838 1.415 . S
C840 C845 1.425 1_455 S
C840 C847 1.409 . S
C841 H833 0.930 . S
C841 C839 1.419 1_655 S
C841 C842 1.362 . S
C842 H834 0.930 . S
C842 C841 1.362 . S
C842 C845 1.409 . S
C843 H835 0.930 . S
C843 C844 1.355 . S
C843 C845 1.415 . S
C844 C843 1.355 . S
C844 C846 1.419 . S
C845 C840 1.425 1_655 S
C845 C842 1.409 . S
C845 C843 1.415 . S
C846 H836 0.930 1_655 S
C846 C844 1.419 . S
C846 C847 1.362 1_655 S
C847 H837 0.930 . S
C847 C840 1.409 . S
C847 C846 1.362 1_455 S
H848 C854 0.930 . S
H849 C857 0.930 . S
H850 C858 0.930 . S
H851 C859 0.930 . S
H852 C862 0.930 . S
H853 C863 0.930 . S
C854 H848 0.930 . S
C854 C855 1.355 . S
C854 C856 1.415 . S
C855 C854 1.355 . S
C855 C857 1.419 . S
C856 C854 1.415 . S
C856 C861 1.425 . S
C856 C863 1.409 . S
C857 H849 0.930 . S
C857 C855 1.419 . S
C857 C858 1.362 . S
C858 H850 0.930 . S
C858 C857 1.362 . S
C858 C861 1.409 . S
C859 H851 0.930 . S
C859 C860 1.355 . S
C859 C861 1.415 . S
C860 C859 1.355 . S
C860 C862 1.419 . S
C861 C856 1.425 . S
C861 C858 1.409 . S
C861 C859 1.415 . S
C862 H852 0.930 . S
C862 C860 1.419 . S
C862 C863 1.362 . S
C863 H853 0.930 . S
C863 C856 1.409 . S
C863 C862 1.362 . S
H864 C870 0.930 . S
H865 C873 0.930 . S
H866 C874 0.930 . S
H867 C875 0.930 . S
H868 C878 0.930 . S
H869 C879 0.930 . S
C870 H864 0.930 . S
C870 C871 1.355 . S
C870 C872 1.415 . S
C871 C870 1.355 . S
C871 C873 1.419 . S
C872 C870 1.415 . S
C872 C877 1.425 . S
C872 C879 1.409 . S
C873 H865 0.930 . S
C873 C871 1.419 . S
C873 C874 1.362 . S
C874 H866 0.930 . S
C874 C873 1.362 . S
C874 C877 1.409 . S
C875 H867 0.930 . S
C875 C876 1.355 . S
C875 C877 1.415 . S
C876 C875 1.355 . S
C876 C878 1.419 . S
C877 C872 1.425 . S
C877 C874 1.409 . S
C877 C875 1.415 . S
C878 H868 0.930 . S
C878 C876 1.419 . S
C878 C879 1.362 . S
C879 H869 0.930 . S
C879 C872 1.409 . S
C879 C878 1.362 . S
H880 C886 0.930 . S
H881 C889 0.930 . S
H882 C890 0.930 . S
H883 C891 0.930 . S
H884 C894 0.930 . S
H885 C895 0.930 1_565 S
C886 H880 0.930 . S
C886 C887 1.355 . S
C886 C888 1.403 1_565 S
C887 C886 1.355 . S
C887 C889 1.419 . S
C888 C886 1.403 1_545 S
C888 C893 1.435 . S
C888 C895 1.412 . S
C889 H881 0.930 . S
C889 C887 1.419 . S
C889 C890 1.362 1_565 S
C890 H882 0.930 . S
C890 C889 1.362 1_545 S
C890 C893 1.409 . S
C891 H883 0.930 . S
C891 C892 1.355 . S
C891 C893 1.415 . S
C892 C891 1.355 . S
C892 C894 1.419 . S
C893 C888 1.435 . S
C893 C890 1.409 . S
C893 C891 1.415 . S
C894 H884 0.930 . S
C894 C892 1.419 . S
C894 C895 1.362 . S
C895 H885 0.930 1_545 S
C895 C888 1.412 . S
C895 C894 1.362 . S
H896 C902 0.930 . S
H897 C905 0.930 . S
H898 C906 0.930 1_455 S
H899 C907 0.930 . S
H900 C910 0.930 . S
H901 C911 0.930 . S
C902 H896 0.930 . S
C902 C903 1.355 . S
C902 C904 1.415 1_554 S
C903 C902 1.355 . S
C903 C905 1.419 . S
C904 C902 1.415 1_556 S
C904 C909 1.417 1_655 S
C904 C911 1.409 . S
C905 H897 0.930 . S
C905 C903 1.419 . S
C905 C906 1.362 . S
C906 H898 0.930 1_655 S
C906 C905 1.362 . S
C906 C909 1.407 1_654 S
C907 H899 0.930 . S
C907 C908 1.355 . S
C907 C909 1.425 . S
C908 C907 1.355 . S
C908 C910 1.419 . S
C909 C904 1.417 1_455 S
C909 C906 1.407 1_456 S
C909 C907 1.425 . S
C910 H900 0.930 . S
C910 C908 1.419 . S
C910 C911 1.362 1_455 S
C911 H901 0.930 . S
C911 C904 1.409 . S
C911 C910 1.362 1_655 S
H912 C918 0.930 . S
H913 C921 0.930 . S
H914 C922 0.930 . S
H915 C923 0.930 . S
H916 C926 0.930 . S
H917 C927 0.930 . S
C918 H912 0.930 . S
C918 C919 1.355 . S
C918 C920 1.415 . S
C919 C918 1.355 . S
C919 C921 1.419 . S
C920 C918 1.415 . S
C920 C925 1.425 . S
C920 C927 1.409 . S
C921 H913 0.930 . S
C921 C919 1.419 . S
C921 C922 1.362 . S
C922 H914 0.930 . S
C922 C921 1.362 . S
C922 C925 1.409 . S
C923 H915 0.930 . S
C923 C924 1.355 . S
C923 C925 1.415 . S
C924 C923 1.355 . S
C924 C926 1.419 . S
C925 C920 1.425 . S
C925 C922 1.409 . S
C925 C923 1.415 . S
C926 H916 0.930 . S
C926 C924 1.419 . S
C926 C927 1.362 . S
C927 H917 0.930 . S
C927 C920 1.409 . S
C927 C926 1.362 . S
H928 C934 0.930 . S
H929 C937 0.930 . S
H930 C938 0.930 . S
H931 C939 0.930 . S
H932 C942 0.930 . S
H933 C943 0.930 . S
C934 H928 0.930 . S
C934 C935 1.355 . S
C934 C936 1.415 . S
C935 C934 1.355 . S
C935 C937 1.419 . S
C936 C934 1.415 . S
C936 C941 1.425 . S
C936 C943 1.409 . S
C937 H929 0.930 . S
C937 C935 1.419 . S
C937 C938 1.362 . S
C938 H930 0.930 . S
C938 C937 1.362 . S
C938 C941 1.409 . S
C939 H931 0.930 . S
C939 C940 1.355 . S
C939 C941 1.415 . S
C940 C939 1.355 . S
C940 C942 1.419 . S
C941 C936 1.425 . S
C941 C938 1.409 . S
C941 C939 1.415 . S
C942 H932 0.930 . S
C942 C940 1.419 . S
C942 C943 1.362 . S
C943 H933 0.930 . S
C943 C936 1.409 . S
C943 C942 1.362 . S
H944 C950 0.930 . S
H945 C953 0.930 . S
H946 C954 0.930 . S
H947 C955 0.930 . S
H948 C958 0.930 . S
H949 C959 0.930 . S
C950 H944 0.930 . S
C950 C951 1.355 . S
C950 C952 1.415 . S
C951 C950 1.355 . S
C951 C953 1.419 . S
C952 C950 1.415 . S
C952 C957 1.425 . S
C952 C959 1.409 . S
C953 H945 0.930 . S
C953 C951 1.419 . S
C953 C954 1.362 . S
C954 H946 0.930 . S
C954 C953 1.362 . S
C954 C957 1.409 . S
C955 H947 0.930 . S
C955 C956 1.355 . S
C955 C957 1.415 . S
C956 C955 1.355 . S
C956 C958 1.419 . S
C957 C952 1.425 . S
C957 C954 1.409 . S
C957 C955 1.415 . S
C958 H948 0.930 . S
C958 C956 1.419 . S
C958 C959 1.362 . S
C959 H949 0.930 . S
C959 C952 1.409 . S
C959 C958 1.362 . S
H960 C966 0.930 . S
H961 C969 0.930 . S
H962 C970 0.930 . S
H963 C971 0.930 . S
H964 C974 0.930 . S
H965 C975 0.930 . S
C966 H960 0.930 . S
C966 C967 1.355 . S
C966 C968 1.415 . S
C967 C966 1.355 . S
C967 C969 1.419 . S
C968 C966 1.415 . S
C968 C973 1.425 . S
C968 C975 1.409 . S
C969 H961 0.930 . S
C969 C967 1.419 . S
C969 C970 1.362 . S
C970 H962 0.930 . S
C970 C969 1.362 . S
C970 C973 1.409 . S
C971 H963 0.930 . S
C971 C972 1.355 . S
C971 C973 1.415 . S
C972 C971 1.355 . S
C972 C974 1.419 . S
C973 C968 1.425 . S
C973 C970 1.409 . S
C973 C971 1.415 . S
C974 H964 0.930 . S
C974 C972 1.419 . S
C974 C975 1.362 . S
C975 H965 0.930 . S
C975 C968 1.409 . S
C975 C974 1.362 . S
H976 C982 0.930 . S
H977 C985 0.930 . S
H978 C986 0.930 . S
H979 C987 0.930 . S
H980 C990 0.930 . S
H981 C991 0.930 . S
C982 H976 0.930 . S
C982 C983 1.355 . S
C982 C984 1.415 . S
C983 C982 1.355 . S
C983 C985 1.419 . S
C984 C982 1.415 . S
C984 C989 1.425 . S
C984 C991 1.409 . S
C985 H977 0.930 . S
C985 C983 1.419 . S
C985 C986 1.362 . S
C986 H978 0.930 . S
C986 C985 1.362 . S
C986 C989 1.409 . S
C987 H979 0.930 . S
C987 C988 1.355 . S
C987 C989 1.415 . S
C988 C987 1.355 . S
C988 C990 1.419 . S
C989 C984 1.425 . S
C989 C986 1.409 . S
C989 C987 1.415 . S
C990 H980 0.930 . S
C990 C988 1.419 . S
C990 C991 1.362 . S
C991 H981 0.930 . S
C991 C984 1.409 . S
C991 C990 1.362 . S
H992 C998 0.930 . S
H993 C1001 0.930 . S
H994 C1002 0.930 . S
H995 C1003 0.930 . S
H996 C1006 0.930 . S
H997 C1007 0.930 . S
C998 H992 0.930 . S
C998 C999 1.355 . S
C998 C1000 1.415 . S
C999 C998 1.355 . S
C999 C1001 1.419 . S
C1000 C998 1.415 . S
C1000 C1005 1.425 . S
C1000 C1007 1.409 . S
C1001 H993 0.930 . S
C1001 C999 1.419 . S
C1001 C1002 1.362 . S
C1002 H994 0.930 . S
C1002 C1001 1.362 . S
C1002 C1005 1.409 . S
C1003 H995 0.930 . S
C1003 C1004 1.355 . S
C1003 C1005 1.415 . S
C1004 C1003 1.355 . S
C1004 C1006 1.419 . S
C1005 C1000 1.425 . S
C1005 C1002 1.409 . S
C1005 C1003 1.415 . S
C1006 H996 0.930 . S
C1006 C1004 1.419 . S
C1006 C1007 1.362 . S
C1007 H997 0.930 . S
C1007 C1000 1.409 . S
C1007 C1006 1.362 . S
H1008 C1014 0.930 . S
H1009 C1017 0.930 . S
H1010 C1018 0.930 . S
H1011 C1019 0.930 . S
H1012 C1022 0.930 . S
H1013 C1023 0.930 . S
C1014 H1008 0.930 . S
C1014 C1015 1.355 . S
C1014 C1016 1.415 . S
C1015 C1014 1.355 . S
C1015 C1017 1.419 . S
C1016 C1014 1.415 . S
C1016 C1021 1.425 . S
C1016 C1023 1.409 . S
C1017 H1009 0.930 . S
C1017 C1015 1.419 . S
C1017 C1018 1.362 . S
C1018 H1010 0.930 . S
C1018 C1017 1.362 . S
C1018 C1021 1.409 . S
C1019 H1011 0.930 . S
C1019 C1020 1.355 . S
C1019 C1021 1.415 . S
C1020 C1019 1.355 . S
C1020 C1022 1.419 . S
C1021 C1016 1.425 . S
C1021 C1018 1.409 . S
C1021 C1019 1.415 . S
C1022 H1012 0.930 . S
C1022 C1020 1.419 . S
C1022 C1023 1.362 . S
C1023 H1013 0.930 . S
C1023 C1016 1.409 . S
C1023 C1022 1.362 . S
H1024 C1030 0.930 . S
H1025 C1033 0.930 . S
H1026 C1034 0.930 . S
H1027 C1035 0.930 . S
H1028 C1038 0.930 . S
H1029 C1039 0.930 . S
C1030 H1024 0.930 . S
C1030 C1031 1.355 . S
C1030 C1032 1.415 . S
C1031 C1030 1.355 . S
C1031 C1033 1.419 . S
C1032 C1030 1.415 . S
C1032 C1037 1.425 . S
C1032 C1039 1.409 . S
C1033 H1025 0.930 . S
C1033 C1031 1.419 . S
C1033 C1034 1.362 . S
C1034 H1026 0.930 . S
C1034 C1033 1.362 . S
C1034 C1037 1.409 . S
C1035 H1027 0.930 . S
C1035 C1036 1.355 . S
C1035 C1037 1.415 . S
C1036 C1035 1.355 . S
C1036 C1038 1.419 . S
C1037 C1032 1.425 . S
C1037 C1034 1.409 . S
C1037 C1035 1.415 . S
C1038 H1028 0.930 . S
C1038 C1036 1.419 . S
C1038 C1039 1.362 . S
C1039 H1029 0.930 . S
C1039 C1032 1.409 . S
C1039 C1038 1.362 . S
H1040 C1046 0.930 . S
H1041 C1049 0.930 . S
H1042 C1050 0.930 . S
H1043 C1051 0.930 . S
H1044 C1054 0.930 . S
H1045 C1055 0.930 . S
C1046 H1040 0.930 . S
C1046 C1047 1.355 . S
C1046 C1048 1.415 . S
C1047 C1046 1.355 . S
C1047 C1049 1.419 . S
C1048 C1046 1.415 . S
C1048 C1053 1.425 . S
C1048 C1055 1.409 . S
C1049 H1041 0.930 . S
C1049 C1047 1.419 . S
C1049 C1050 1.362 . S
C1050 H1042 0.930 . S
C1050 C1049 1.362 . S
C1050 C1053 1.409 . S
C1051 H1043 0.930 . S
C1051 C1052 1.355 . S
C1051 C1053 1.415 . S
C1052 C1051 1.355 . S
C1052 C1054 1.419 . S
C1053 C1048 1.425 . S
C1053 C1050 1.409 . S
C1053 C1051 1.415 . S
C1054 H1044 0.930 . S
C1054 C1052 1.419 . S
C1054 C1055 1.362 . S
C1055 H1045 0.930 . S
C1055 C1048 1.409 . S
C1055 C1054 1.362 . S
H1056 C1062 0.930 . S
H1057 C1065 0.930 . S
H1058 C1066 0.930 . S
H1059 C1067 0.930 . S
H1060 C1070 0.930 . S
H1061 C1071 0.930 . S
C1062 H1056 0.930 . S
C1062 C1063 1.355 . S
C1062 C1064 1.415 . S
C1063 C1062 1.355 . S
C1063 C1065 1.419 . S
C1064 C1062 1.415 . S
C1064 C1069 1.425 . S
C1064 C1071 1.409 . S
C1065 H1057 0.930 . S
C1065 C1063 1.419 . S
C1065 C1066 1.362 . S
C1066 H1058 0.930 . S
C1066 C1065 1.362 . S
C1066 C1069 1.409 . S
C1067 H1059 0.930 . S
C1067 C1068 1.355 . S
C1067 C1069 1.415 . S
C1068 C1067 1.355 . S
C1068 C1070 1.419 . S
C1069 C1064 1.425 . S
C1069 C1066 1.409 . S
C1069 C1067 1.415 . S
C1070 H1060 0.930 . S
C1070 C1068 1.419 . S
C1070 C1071 1.362 . S
C1071 H1061 0.930 . S
C1071 C1064 1.409 . S
C1071 C1070 1.362 . S
H1072 C1078 0.930 . S
H1073 C1081 0.930 . S
H1074 C1082 0.930 . S
H1075 C1083 0.930 . S
H1076 C1086 0.930 . S
H1077 C1087 0.930 . S
C1078 H1072 0.930 . S
C1078 C1079 1.355 . S
C1078 C1080 1.415 . S
C1079 C1078 1.355 . S
C1079 C1081 1.419 . S
C1080 C1078 1.415 . S
C1080 C1085 1.425 . S
C1080 C1087 1.409 . S
C1081 H1073 0.930 . S
C1081 C1079 1.419 . S
C1081 C1082 1.362 . S
C1082 H1074 0.930 . S
C1082 C1081 1.362 . S
C1082 C1085 1.409 . S
C1083 H1075 0.930 . S
C1083 C1084 1.355 . S
C1083 C1085 1.415 . S
C1084 C1083 1.355 . S
C1084 C1086 1.419 . S
C1085 C1080 1.425 . S
C1085 C1082 1.409 . S
C1085 C1083 1.415 . S
C1086 H1076 0.930 . S
C1086 C1084 1.419 . S
C1086 C1087 1.362 . S
C1087 H1077 0.930 . S
C1087 C1080 1.409 . S
C1087 C1086 1.362 . S
H1088 C1094 0.930 . S
H1089 C1097 0.930 . S
H1090 C1098 0.930 . S
H1091 C1099 0.930 . S
H1092 C1102 0.930 . S
H1093 C1103 0.930 . S
C1094 H1088 0.930 . S
C1094 C1095 1.355 . S
C1094 C1096 1.415 . S
C1095 C1094 1.355 . S
C1095 C1097 1.419 . S
C1096 C1094 1.415 . S
C1096 C1101 1.425 . S
C1096 C1103 1.409 . S
C1097 H1089 0.930 . S
C1097 C1095 1.419 . S
C1097 C1098 1.362 . S
C1098 H1090 0.930 . S
C1098 C1097 1.362 . S
C1098 C1101 1.409 . S
C1099 H1091 0.930 . S
C1099 C1100 1.355 . S
C1099 C1101 1.415 . S
C1100 C1099 1.355 . S
C1100 C1102 1.419 . S
C1101 C1096 1.425 . S
C1101 C1098 1.409 . S
C1101 C1099 1.415 . S
C1102 H1092 0.930 . S
C1102 C1100 1.419 . S
C1102 C1103 1.362 . S
C1103 H1093 0.930 . S
C1103 C1096 1.409 . S
C1103 C1102 1.362 . S
H1104 C1110 0.930 . S
H1105 C1113 0.930 . S
H1106 C1114 0.930 . S
H1107 C1115 0.930 . S
H1108 C1118 0.930 . S
H1109 C1119 0.930 . S
C1110 H1104 0.930 . S
C1110 C1111 1.355 . S
C1110 C1112 1.415 . S
C1111 C1110 1.355 . S
C1111 C1113 1.419 . S
C1112 C1110 1.415 . S
C1112 C1117 1.425 . S
C1112 C1119 1.409 . S
C1113 H1105 0.930 . S
C1113 C1111 1.419 . S
C1113 C1114 1.362 . S
C1114 H1106 0.930 . S
C1114 C1113 1.362 . S
C1114 C1117 1.409 . S
C1115 H1107 0.930 . S
C1115 C1116 1.355 . S
C1115 C1117 1.415 . S
C1116 C1115 1.355 . S
C1116 C1118 1.419 . S
C1117 C1112 1.425 . S
C1117 C1114 1.409 . S
C1117 C1115 1.415 . S
C1118 H1108 0.930 . S
C1118 C1116 1.419 . S
C1118 C1119 1.362 . S
C1119 H1109 0.930 . S
C1119 C1112 1.409 . S
C1119 C1118 1.362 . S
H1120 C1126 0.930 . S
H1121 C1129 0.930 . S
H1122 C1130 0.930 . S
H1123 C1131 0.930 . S
H1124 C1134 0.930 . S
H1125 C1135 0.930 . S
C1126 H1120 0.930 . S
C1126 C1127 1.355 . S
C1126 C1128 1.415 . S
C1127 C1126 1.355 . S
C1127 C1129 1.419 . S
C1128 C1126 1.415 . S
C1128 C1133 1.425 . S
C1128 C1135 1.409 . S
C1129 H1121 0.930 . S
C1129 C1127 1.419 . S
C1129 C1130 1.362 . S
C1130 H1122 0.930 . S
C1130 C1129 1.362 . S
C1130 C1133 1.409 . S
C1131 H1123 0.930 . S
C1131 C1132 1.355 . S
C1131 C1133 1.415 . S
C1132 C1131 1.355 . S
C1132 C1134 1.419 . S
C1133 C1128 1.425 . S
C1133 C1130 1.409 . S
C1133 C1131 1.415 . S
C1134 H1124 0.930 . S
C1134 C1132 1.419 . S
C1134 C1135 1.362 . S
C1135 H1125 0.930 . S
C1135 C1128 1.409 . S
C1135 C1134 1.362 . S
H1136 C1142 0.930 . S
H1137 C1145 0.930 . S
H1138 C1146 0.930 . S
H1139 C1147 0.930 . S
H1140 C1150 0.930 . S
H1141 C1151 0.930 . S
C1142 H1136 0.930 . S
C1142 C1143 1.355 . S
C1142 C1144 1.415 . S
C1143 C1142 1.355 . S
C1143 C1145 1.419 . S
C1144 C1142 1.415 . S
C1144 C1149 1.425 . S
C1144 C1151 1.409 . S
C1145 H1137 0.930 . S
C1145 C1143 1.419 . S
C1145 C1146 1.362 . S
C1146 H1138 0.930 . S
C1146 C1145 1.362 . S
C1146 C1149 1.409 . S
C1147 H1139 0.930 . S
C1147 C1148 1.355 . S
C1147 C1149 1.415 . S
C1148 C1147 1.355 . S
C1148 C1150 1.419 . S
C1149 C1144 1.425 . S
C1149 C1146 1.409 . S
C1149 C1147 1.415 . S
C1150 H1140 0.930 . S
C1150 C1148 1.419 . S
C1150 C1151 1.362 . S
C1151 H1141 0.930 . S
C1151 C1144 1.409 . S
C1151 C1150 1.362 . S
H1152 C1158 0.930 . S
H1153 C1161 0.930 . S
H1154 C1162 0.930 . S
H1155 C1163 0.930 . S
H1156 C1166 0.930 . S
H1157 C1167 0.930 . S
C1158 H1152 0.930 . S
C1158 C1159 1.355 . S
C1158 C1160 1.415 . S
C1159 C1158 1.355 . S
C1159 C1161 1.419 . S
C1160 C1158 1.415 . S
C1160 C1165 1.425 . S
C1160 C1167 1.409 . S
C1161 H1153 0.930 . S
C1161 C1159 1.419 . S
C1161 C1162 1.362 . S
C1162 H1154 0.930 . S
C1162 C1161 1.362 . S
C1162 C1165 1.409 . S
C1163 H1155 0.930 . S
C1163 C1164 1.355 . S
C1163 C1165 1.415 . S
C1164 C1163 1.355 . S
C1164 C1166 1.419 . S
C1165 C1160 1.425 . S
C1165 C1162 1.409 . S
C1165 C1163 1.415 . S
C1166 H1156 0.930 . S
C1166 C1164 1.419 . S
C1166 C1167 1.362 . S
C1167 H1157 0.930 . S
C1167 C1160 1.409 . S
C1167 C1166 1.362 . S
C535 N332 1.431 . S
C540 N2 1.374 . S
C551 N35 1.427 . S
C556 N365 1.377 . S
C567 N266 1.443 . S
C572 N68 1.384 . S
C583 N101 1.370 . S
C588 N299 1.436 . S
C599 N464 1.396 . S
C604 N134 1.434 . S
C615 N167 1.416 . S
C620 N497 1.386 . S
C631 N200 1.419 . S
C636 N398 1.383 . S
C647 N431 1.370 . S
C652 N233 1.436 . S
C663 C480 1.038 . S
C668 C7 1.063 . S
C679 C513 1.055 . S
C684 C40 1.037 . S
C695 C73 0.999 . S
C700 C414 1.039 . S
C711 C447 1.036 . S
C716 C106 1.065 . S
C727 C139 1.046 . S
C732 C348 1.025 . S
C743 C172 1.044 . S
C748 C381 1.023 . S
C759 C282 1.026 . S
C764 C205 1.058 . S
C775 C238 1.064 . S
C780 C315 1.030 . S
C791 C216 1.058 . S
C796 C271 1.021 . S
C807 C249 1.053 . S
C812 C304 1.043 . S
C823 C150 1.054 . S
C828 C337 0.994 . S
C839 C370 1.051 . S
C844 C183 1.023 . S
C855 C403 1.011 . S
C860 C84 1.056 . S
C871 C436 1.065 . S
C876 C117 1.035 . S
C887 C469 0.994 . S
C892 C18 1.045 . S
C903 C51 1.036 . S
C908 C502 1.065 . S
C919 N376 1.737 . S
C924 C21 1.696 . S
C935 C54 1.686 . S
C940 N277 1.740 . S
C951 C87 1.732 . S
C956 N310 1.742 . S
C967 C120 1.687 . S
C972 N343 1.746 . S
C983 N178 1.746 . S
C988 C153 1.722 . S
C999 C186 1.707 . S
C1004 N211 1.749 . S
C1015 N244 1.737 . S
C1020 C219 1.694 . S
C1031 C252 1.685 . S
C1036 N145 1.740 . S
C1047 N112 1.746 . S
C1052 C285 1.724 . S
C1063 C318 1.706 . S
C1068 N13 1.749 . S
C1079 C351 1.708 . S
C1084 N46 1.746 . S
C1095 N79 1.739 . S
C1100 C384 1.688 . S
C1111 N442 1.746 . S
C1116 C417 1.723 . S
C1127 N475 1.741 . S
C1132 C450 1.685 . S
C1143 C483 1.713 . S
C1148 N508 1.747 . S
C1159 N409 1.742 . S
C1164 C516 1.732 . S
