# Generated by pormake.
# Topology qtz-x, (6)-cn, num edge types: 1
# Building blocks:
#     Node 0, Type 0, BuildingBlock: BETFAJ_clean_sbu_0, # of connection points: 6
#     Node 1, Type 0, BuildingBlock: BETFAJ_clean_sbu_0, # of connection points: 6
#     Node 2, Type 0, BuildingBlock: BETFAJ_clean_sbu_0, # of connection points: 6
#     Edge 3, Type (0, 0), BuildingBlock: XIVTED_clean_linker_0, # of connection points: 2
#     Edge 4, Type (0, 0), BuildingBlock: XIVTED_clean_linker_0, # of connection points: 2
#     Edge 5, Type (0, 0), BuildingBlock: XIVTED_clean_linker_0, # of connection points: 2
#     Edge 6, Type (0, 0), BuildingBlock: XIVTED_clean_linker_0, # of connection points: 2
#     Edge 7, Type (0, 0), BuildingBlock: XIVTED_clean_linker_0, # of connection points: 2
#     Edge 8, Type (0, 0), BuildingBlock: XIVTED_clean_linker_0, # of connection points: 2
#     Edge 9, Type (0, 0), BuildingBlock: XIVTED_clean_linker_0, # of connection points: 2
#     Edge 10, Type (0, 0), BuildingBlock: XIVTED_clean_linker_0, # of connection points: 2
#     Edge 11, Type (0, 0), BuildingBlock: XIVTED_clean_linker_0, # of connection points: 2
# Relax obj value: 0.232
# Max RMSD: 0.263
# Mean RMSD: 0.239
data_MOF--net-qtz-x--node1-BETFAJ_clean_sbu_0--edge1-XIVTED_clean_linker_0
_symmetry_space_group_name_H-M    P1
_symmetry_Int_Tables_number       1
_symmetry_cell_setting            triclinic
loop_
_symmetry_equiv_pos_as_xyz
'x, y, z'
_cell_length_a     14.87465
_cell_length_b     14.923639
_cell_length_c     53.97836
_cell_angle_alpha  68.46351
_cell_angle_beta   114.35381
_cell_angle_gamma 121.65004
loop_
_atom_site_label
_atom_site_type_symbol
_atom_site_fract_x
_atom_site_fract_y
_atom_site_fract_z
_atom_type_partial_charge
Sm0 Sm 1.01928 0.63136 0.19054 0.0
Sm1 Sm 0.23951 0.77389 0.18168 0.0
C2 C 0.85589 0.47953 0.21233 0.0
C3 C 0.83684 0.44467 0.24011 0.0
C4 C 0.87206 0.37011 0.26086 0.0
C5 C 0.85633 0.33881 0.28715 0.0
C6 C 0.80452 0.38076 0.29346 0.0
C7 C 0.76853 0.45476 0.27266 0.0
C8 C 0.78407 0.48596 0.24629 0.0
C9 C 0.07251 0.84611 0.18047 0.0
C10 C 0.23854 0.7081 0.24418 0.0
C11 C 0.40505 0.92285 0.16072 0.0
C12 C 0.42572 0.94162 0.13429 0.0
C13 C 0.3432 0.94025 0.10906 0.0
C14 C 0.35701 0.94196 0.08478 0.0
C15 C 0.45394 0.94571 0.08512 0.0
C16 C 0.53869 0.95261 0.11014 0.0
C17 C 0.5245 0.95024 0.13448 0.0
C18 C 0.18537 0.55854 0.19168 0.0
C19 C 1.02531 0.69903 0.12748 0.0
O20 O 0.93067 0.46263 0.21053 0.0
O21 O 0.85828 0.57237 0.19775 0.0
O22 O 0.13659 0.80376 0.19598 0.0
O23 O 0.97636 0.77445 0.16987 0.0
O24 O 0.14001 0.63179 0.23512 0.0
O25 O 0.29154 0.78692 0.22661 0.0
O26 O 0.32383 0.93853 0.15905 0.0
O27 O 0.40765 0.83595 0.17845 0.0
O28 O 0.12198 0.60151 0.17614 0.0
O29 O 0.28157 0.63002 0.20225 0.0
O30 O 0.12422 0.77242 0.13725 0.0
O31 O 0.96572 0.6233 0.1443 0.0
H32 H 0.91263 0.33618 0.25689 0.0
H33 H 0.88638 0.2827 0.3027 0.0
H34 H 0.72699 0.48762 0.27663 0.0
H35 H 0.75488 0.54271 0.23076 0.0
H36 H 0.26596 0.93368 0.10816 0.0
H37 H 0.28953 0.93552 0.06605 0.0
H38 H 0.6154 0.95786 0.11107 0.0
H39 H 0.58942 0.95173 0.15365 0.0
Sm40 Sm 0.8356 0.1947 0.5511 0.0
Sm41 Sm 0.73647 0.968 0.5466 0.0
C42 C 0.89698 0.37455 0.56556 0.0
C43 C 0.93415 0.40709 0.5921 0.0
C44 C 0.892 0.3342 0.61441 0.0
C45 C 0.93185 0.36452 0.63991 0.0
C46 C 1.015 0.46825 0.64367 0.0
C47 C 0.05684 0.54097 0.6212 0.0
C48 C 1.01673 0.51056 0.59568 0.0
C49 C 0.98095 0.14088 0.54799 0.0
C50 C 0.82145 0.00393 0.6082 0.0
C51 C 0.66797 0.79072 0.52984 0.0
C52 C 0.61682 0.7676 0.50164 0.0
C53 C 0.62096 0.68696 0.49529 0.0
C54 C 0.57863 0.67137 0.46789 0.0
C55 C 0.53328 0.73747 0.44649 0.0
C56 C 0.5274 0.8165 0.45313 0.0
C57 C 0.56816 0.83098 0.48042 0.0
C58 C 0.59144 0.02287 0.54942 0.0
C59 C 0.75673 0.15994 0.48962 0.0
O60 O 0.79416 0.30518 0.55792 0.0
O61 O 0.96417 0.35423 0.56127 0.0
O62 O 0.91381 0.08251 0.5626 0.0
O63 O 0.97422 0.23054 0.53519 0.0
O64 O 0.83005 0.10159 0.59595 0.0
O65 O 0.79856 0.9357 0.59396 0.0
O66 O 0.7706 0.86271 0.53483 0.0
O67 O 0.60911 0.80471 0.53925 0.0
O68 O 0.6586 0.08048 0.53482 0.0
O69 O 0.5978 0.93322 0.56229 0.0
O70 O 0.74801 0.06253 0.50221 0.0
O71 O 0.77694 0.22758 0.50363 0.0
H72 H 0.82848 0.25364 0.61221 0.0
H73 H 0.89649 0.30692 0.65658 0.0
H74 H 0.12186 0.62095 0.62343 0.0
H75 H 0.05112 0.56756 0.5788 0.0
H76 H 0.65841 0.63741 0.51139 0.0
H77 H 0.58432 0.61 0.46329 0.0
H78 H 0.49165 0.86764 0.43714 0.0
H79 H 0.5633 0.89321 0.48485 0.0
Sm80 Sm 0.77837 0.83304 0.85739 0.0
Sm81 Sm 0.95809 0.76337 0.87549 0.0
C82 C 0.60433 0.85242 0.85243 0.0
C83 C 0.55955 0.85001 0.87268 0.0
C84 C 0.53553 0.76224 0.89473 0.0
C85 C 0.50774 0.76695 0.91582 0.0
C86 C 0.50414 0.85972 0.91548 0.0
C87 C 0.52262 0.94529 0.89267 0.0
C88 C 0.54987 0.9403 0.87145 0.0
C89 C 0.98642 -0.00162 0.86053 0.0
C90 C 0.89539 0.77056 0.92436 0.0
C91 C 0.13052 0.74018 0.88097 0.0
C92 C 0.1568 0.70507 0.86357 0.0
C93 C 0.24228 0.77847 0.8511 0.0
C94 C 0.25691 0.75196 0.83117 0.0
C95 C 0.18642 0.65129 0.8234 0.0
C96 C 0.10564 0.57547 0.83725 0.0
C97 C 0.09079 0.60208 0.85707 0.0
C98 C 0.74919 0.5977 0.87135 0.0
C99 C 0.84585 0.83213 0.80826 0.0
O100 O 0.59971 0.7622 0.85256 0.0
O101 O 0.69811 0.93478 0.8499 0.0
O102 O 0.96153 0.91168 0.87803 0.0
O103 O 0.89978 0.00237 0.84104 0.0
O104 O 0.8045 0.77117 0.90513 0.0
O105 O 0.97839 0.78538 0.91748 0.0
O106 O 0.12503 0.83196 0.87071 0.0
O107 O 0.05224 0.66743 0.8927 0.0
O108 O 0.77544 0.68549 0.85437 0.0
O109 O 0.83539 0.59209 0.8906 0.0
O110 O 0.93212 0.82285 0.82797 0.0
O111 O 0.76378 0.82399 0.8142 0.0
H112 H 0.54189 0.69119 0.89629 0.0
H113 H 0.49189 0.69879 0.93281 0.0
H114 H 0.52097 0.01809 0.8918 0.0
H115 H 0.56768 0.00884 0.85461 0.0
H116 H 0.2945 0.85816 0.85583 0.0
H117 H 0.32089 0.81157 0.82113 0.0
H118 H 0.04932 0.49761 0.83159 0.0
H119 H 1.02415 0.54342 0.86628 0.0
H120 H 0.25849 -0.00295 0.20832 0.0
H121 H 0.99941 0.40816 0.16359 0.0
H122 H 0.93162 0.9393 0.1546 0.0
H123 H 0.32566 0.46482 0.21759 0.0
H124 H 0.97231 0.23575 0.16025 0.0
H125 H 0.28537 0.16939 0.21159 0.0
C126 C 0.19259 0.02095 0.19709 0.0
C127 C 0.09259 0.95363 0.1812 0.0
C128 C 0.04978 0.2857 0.17289 0.0
C129 C 0.1224 0.15069 0.18498 0.0
C130 C 0.06512 0.38402 0.17486 0.0
C131 C 0.16502 0.45103 0.19085 0.0
C132 C 0.13498 0.25398 0.187 0.0
C133 C 0.24737 0.41573 0.205 0.0
C134 C 0.20781 0.11924 0.19903 0.0
C135 C 1.01 -0.01136 0.16711 0.0
N136 N 0.23065 0.31993 0.20269 0.0
N137 N 1.02661 0.08447 0.16938 0.0
H138 H 0.54597 0.1965 0.52018 0.0
H139 H 1.02643 0.96733 0.57701 0.0
H140 H 0.43733 0.89742 0.57783 0.0
H141 H 0.13534 0.26714 0.51961 0.0
H142 H 0.17595 0.93951 0.57743 0.0
H143 H 0.39649 0.22462 0.5197 0.0
C144 C 0.49081 0.13693 0.53273 0.0
C145 C 0.50393 0.04438 0.54897 0.0
C146 C 0.16713 0.01143 0.56474 0.0
C147 C 0.3326 0.07558 0.54856 0.0
C148 C 0.08168 0.02715 0.5645 0.0
C149 C 0.06861 0.11979 0.54834 0.0
C150 C 0.24004 0.08892 0.54869 0.0
C151 C 0.14251 0.19464 0.53246 0.0
C152 C 0.4054 0.15281 0.53246 0.0
C153 C 0.43015 0.96983 0.56491 0.0
N154 N 0.22484 0.1777 0.53306 0.0
N155 N 0.34787 -0.01308 0.56427 0.0
H156 H 0.17724 0.00213 0.89959 0.0
H157 H 0.55953 0.59278 0.83121 0.0
H158 H 0.05206 0.19295 0.82558 0.0
H159 H 0.68204 0.40431 0.9064 0.0
H160 H 0.37306 0.44718 0.82847 0.0
H161 H 0.36315 0.14783 0.9021 0.0
C162 C 0.18895 0.07485 0.88389 0.0
C163 C 0.0992 0.0857 0.86238 0.0
C164 C 0.44071 0.43757 0.84556 0.0
C165 C 0.31165 0.25297 0.86509 0.0
C166 C 0.54709 0.52072 0.84714 0.0
C167 C 0.63618 0.51051 0.86909 0.0
C168 C 0.42347 0.34334 0.86604 0.0
C169 C 0.61561 0.41538 0.88911 0.0
C170 C 0.29509 0.15806 0.88532 0.0
C171 C 0.11903 0.18142 0.84254 0.0
N172 N 0.51154 0.33553 0.8871 0.0
N173 N 0.22305 0.26137 0.84438 0.0
H174 H 0.38495 0.95047 0.91641 0.0
H175 H 0.54866 0.83536 0.08231 0.0
H176 H 0.59381 0.795 0.97028 0.0
H177 H 0.37911 0.03119 1.03031 0.0
H178 H 0.55839 0.81406 0.04104 0.0
H179 H 0.37261 0.97375 0.95739 0.0
C180 C 0.42811 0.9212 0.93681 0.0
C181 C 0.49015 0.87025 0.93986 0.0
C182 C 0.5193 0.86202 0.0386 0.0
C183 C 0.47604 0.89624 0.98679 0.0
C184 C 0.51457 0.87509 0.06225 0.0
C185 C 0.46366 0.93589 0.05993 0.0
C186 C 0.4723 0.90949 1.01226 0.0
C187 C 0.4183 -0.01722 1.03318 0.0
C188 C 0.42084 0.9343 0.96018 0.0
C189 C 0.54335 0.83292 0.96684 0.0
N190 N 0.4236 0.96853 1.0104 0.0
N191 N 0.53512 0.84677 0.98916 0.0
H192 H 0.78697 0.35862 0.4555 0.0
H193 H 0.74377 0.17934 0.32615 0.0
H194 H 0.7176 0.03938 0.45531 0.0
H195 H 0.82732 0.50454 0.32507 0.0
H196 H 0.72407 0.12607 0.37276 0.0
H197 H 0.7914 0.41294 0.40701 0.0
C198 C 0.77153 0.29965 0.44526 0.0
C199 C 0.75157 0.19404 0.45963 0.0
C200 C 0.74656 0.20916 0.36237 0.0
C201 C 0.75712 0.25584 0.40419 0.0
C202 C 0.75846 0.23983 0.33573 0.0
C203 C 0.78815 0.34692 0.3216 0.0
C204 C 0.76464 0.28594 0.37527 0.0
C205 C 0.80362 0.42097 0.33501 0.0
C206 C 0.77439 0.33081 0.41759 0.0
C207 C 0.73272 0.12142 0.44523 0.0
N208 N 0.79225 0.38926 0.3611 0.0
N209 N 0.73627 0.15368 0.41848 0.0
H210 H 1.02053 0.9463 0.78661 0.0
H211 H 0.70526 0.80723 0.63671 0.0
H212 H 0.66735 0.76766 0.76336 0.0
H213 H 0.9571 0.1263 0.64787 0.0
H214 H 0.70966 0.76137 0.68586 0.0
H215 H 1.01775 -0.01596 0.73811 0.0
C216 C 0.94244 0.9145 0.77132 0.0
C217 C 0.84387 0.8542 0.77897 0.0
C218 C 0.76441 0.84097 0.67748 0.0
C219 C 0.84079 0.89488 0.72372 0.0
C220 C 0.76279 0.86683 0.64961 0.0
C221 C 0.83137 0.9705 0.6383 0.0
C222 C 0.83736 0.91838 0.69423 0.0
C223 C 0.90308 0.0454 0.65581 0.0
C224 C 0.94105 0.93633 0.74371 0.0
C225 C 0.74501 0.81522 0.75827 0.0
N226 N 0.90497 0.01764 0.68295 0.0
N227 N 0.74597 0.83532 0.73158 0.0
H228 H 0.74321 0.73466 0.94812 0.0
H229 H 0.15802 0.72678 0.10087 0.0
H230 H 0.07089 0.76758 0.96882 0.0
H231 H 0.82417 0.66181 0.08697 0.0
H232 H 0.12175 0.73966 0.05193 0.0
H233 H 0.7655 0.70733 0.99775 0.0
C234 C 0.81966 0.73603 0.96301 0.0
C235 C 0.90542 0.75367 0.95415 0.0
C236 C 0.05563 0.72222 0.05932 0.0
C237 C 0.93103 0.72214 1.0109 0.0
C238 C 0.07657 0.71529 0.08737 0.0
C239 C 0.99448 0.69474 0.09795 0.0
C240 C 0.95135 0.70906 0.04124 0.0
C241 C 0.88971 0.6779 0.07959 0.0
C242 C 0.83208 0.72014 0.99134 0.0
C243 C 1.00239 0.75448 0.97445 0.0
N244 N 0.87122 0.68647 0.05196 0.0
N245 N 1.01234 0.73921 1.00167 0.0
H246 H 0.42274 0.86723 0.26938 0.0
H247 H 0.39766 0.5547 0.42448 0.0
H248 H 0.16598 0.5503 0.28761 0.0
H249 H 0.58146 0.89725 0.40179 0.0
H250 H 0.32876 0.54296 0.37526 0.0
H251 H 0.49885 0.87061 0.31879 0.0
C252 C 0.3826 0.79796 0.28377 0.0
C253 C 0.28754 0.70842 0.27427 0.0
C254 C 0.38435 0.62053 0.38112 0.0
C255 C 0.37479 0.71188 0.33104 0.0
C256 C 0.42409 0.62715 0.40915 0.0
C257 C 0.49473 0.72713 0.41713 0.0
C258 C 0.41698 0.71439 0.36107 0.0
C259 C 0.52606 0.81873 0.39648 0.0
C260 C 0.42601 0.80017 0.312 0.0
C261 C 0.23919 0.62117 0.29398 0.0
N262 N 0.48717 0.81011 0.36945 0.0
N263 N 0.28342 0.62502 0.32146 0.0
H264 H 0.16517 0.46578 0.81695 0.0
H265 H 0.0718 0.66253 0.6531 0.0
H266 H 0.20633 0.78626 0.77348 0.0
H267 H 0.05329 0.34825 0.69619 0.0
H268 H 0.13387 0.71242 0.69759 0.0
H269 H 0.13769 0.42435 0.77374 0.0
C270 C 0.16963 0.52775 0.79839 0.0
C271 C 0.1874 0.62946 0.79881 0.0
C272 C 0.11692 0.6327 0.69736 0.0
C273 C 0.15521 0.58247 0.74926 0.0
C274 C 0.08188 0.60425 0.6719 0.0
C275 C 0.05669 0.50076 0.67078 0.0
C276 C 0.12649 0.55713 0.72202 0.0
C277 C 0.06977 0.4283 0.69596 0.0
C278 C 0.15402 0.50412 0.77373 0.0
C279 C 0.19376 0.7071 0.77423 0.0
N280 N 0.10317 0.45765 0.72051 0.0
N281 N 0.17649 0.68162 0.75044 0.0
loop_
_geom_bond_atom_site_label_1
_geom_bond_atom_site_label_2
_geom_bond_distance
_geom_bond_site_symmetry_2
_ccdc_geom_bond_type
Sm0 C2 2.846 . S
Sm0 O20 2.543 . S
Sm0 O21 2.450 . S
Sm0 O22 2.681 1_655 S
Sm0 O23 2.464 . S
Sm0 O24 2.396 1_655 S
Sm0 O28 2.386 . S
Sm0 O31 2.408 . S
Sm1 C11 2.846 . S
Sm1 O22 2.386 . S
Sm1 O25 2.408 . S
Sm1 O26 2.543 . S
Sm1 O27 2.450 . S
Sm1 O28 2.681 1_455 S
Sm1 O29 2.464 . S
Sm1 O30 2.396 1_455 S
C2 Sm0 2.846 . S
C2 C3 1.506 . S
C2 O20 1.261 . S
C2 O21 1.242 . S
C3 C2 1.506 . S
C3 C4 1.358 . S
C3 C8 1.382 . S
C4 C3 1.358 . S
C4 C5 1.385 . S
C4 H32 0.930 . S
C5 C4 1.385 . S
C5 C6 1.395 . S
C5 H33 0.929 . S
C6 C5 1.395 . S
C6 C7 1.335 . S
C7 C6 1.335 . S
C7 C8 1.398 . S
C7 H34 0.930 . S
C8 C3 1.382 . S
C8 C7 1.398 . S
C8 H35 0.929 . S
C9 O22 1.271 1_655 S
C9 O23 1.251 . S
C10 O24 1.252 . S
C10 O25 1.272 . S
C11 Sm1 2.846 . S
C11 C12 1.506 . S
C11 O26 1.261 . S
C11 O27 1.242 . S
C12 C11 1.506 . S
C12 C13 1.358 . S
C12 C17 1.382 . S
C13 C12 1.358 . S
C13 C14 1.385 1_565 S
C13 H36 0.930 1_565 S
C14 C13 1.385 1_545 S
C14 C15 1.395 1_545 S
C14 H37 0.929 . S
C15 C14 1.395 1_565 S
C15 C16 1.335 . S
C16 C15 1.335 . S
C16 C17 1.398 . S
C16 H38 0.930 . S
C17 C12 1.382 . S
C17 C16 1.398 . S
C17 H39 0.929 . S
C18 O28 1.271 1_455 S
C18 O29 1.251 . S
C19 O30 1.252 . S
C19 O31 1.272 . S
O20 Sm0 2.543 . S
O20 C2 1.261 . S
O21 Sm0 2.450 . S
O21 C2 1.242 . S
O22 Sm0 2.681 1_455 S
O22 Sm1 2.386 . S
O22 C9 1.271 1_455 S
O23 Sm0 2.464 . S
O23 C9 1.251 . S
O24 Sm0 2.396 1_455 S
O24 C10 1.252 . S
O25 Sm1 2.408 . S
O25 C10 1.272 . S
O26 Sm1 2.543 . S
O26 C11 1.261 . S
O27 Sm1 2.450 . S
O27 C11 1.242 . S
O28 Sm0 2.386 . S
O28 Sm1 2.681 1_655 S
O28 C18 1.271 1_655 S
O29 Sm1 2.464 . S
O29 C18 1.251 . S
O30 Sm1 2.396 1_655 S
O30 C19 1.252 . S
O31 Sm0 2.408 . S
O31 C19 1.272 . S
H32 C4 0.930 . S
H33 C5 0.929 . S
H34 C7 0.930 . S
H35 C8 0.929 . S
H36 C13 0.930 1_545 S
H37 C14 0.929 . S
H38 C16 0.930 . S
H39 C17 0.929 . S
Sm40 C42 2.846 . S
Sm40 O60 2.543 . S
Sm40 O61 2.450 . S
Sm40 O62 2.681 1_545 S
Sm40 O63 2.464 . S
Sm40 O64 2.396 . S
Sm40 O68 2.386 . S
Sm40 O71 2.408 . S
Sm41 C51 2.846 . S
Sm41 O62 2.386 . S
Sm41 O65 2.408 . S
Sm41 O66 2.543 . S
Sm41 O67 2.450 . S
Sm41 O68 2.681 1_565 S
Sm41 O69 2.464 . S
Sm41 O70 2.396 1_565 S
C42 Sm40 2.846 . S
C42 C43 1.506 . S
C42 O60 1.261 . S
C42 O61 1.242 . S
C43 C42 1.506 . S
C43 C44 1.358 . S
C43 C48 1.382 1_655 S
C44 C43 1.358 . S
C44 C45 1.385 . S
C44 H72 0.930 . S
C45 C44 1.385 . S
C45 C46 1.395 . S
C45 H73 0.929 . S
C46 C45 1.395 . S
C46 C47 1.335 1_655 S
C47 C46 1.335 1_455 S
C47 C48 1.398 . S
C47 H74 0.930 . S
C48 C43 1.382 1_455 S
C48 C47 1.398 . S
C48 H75 0.929 . S
C49 O62 1.271 1_545 S
C49 O63 1.251 . S
C50 O64 1.252 1_565 S
C50 O65 1.272 . S
C51 Sm41 2.846 . S
C51 C52 1.506 . S
C51 O66 1.261 . S
C51 O67 1.242 . S
C52 C51 1.506 . S
C52 C53 1.358 . S
C52 C57 1.382 . S
C53 C52 1.358 . S
C53 C54 1.385 . S
C53 H76 0.930 . S
C54 C53 1.385 . S
C54 C55 1.395 . S
C54 H77 0.929 . S
C55 C54 1.395 . S
C55 C56 1.335 . S
C56 C55 1.335 . S
C56 C57 1.398 . S
C56 H78 0.930 . S
C57 C52 1.382 . S
C57 C56 1.398 . S
C57 H79 0.929 . S
C58 O68 1.271 1_565 S
C58 O69 1.251 . S
C59 O70 1.252 . S
C59 O71 1.272 . S
O60 Sm40 2.543 . S
O60 C42 1.261 . S
O61 Sm40 2.450 . S
O61 C42 1.242 . S
O62 Sm40 2.681 1_565 S
O62 Sm41 2.386 . S
O62 C49 1.271 1_565 S
O63 Sm40 2.464 . S
O63 C49 1.251 . S
O64 Sm40 2.396 . S
O64 C50 1.252 1_545 S
O65 Sm41 2.408 . S
O65 C50 1.272 . S
O66 Sm41 2.543 . S
O66 C51 1.261 . S
O67 Sm41 2.450 . S
O67 C51 1.242 . S
O68 Sm40 2.386 . S
O68 Sm41 2.681 1_545 S
O68 C58 1.271 1_545 S
O69 Sm41 2.464 . S
O69 C58 1.251 . S
O70 Sm41 2.396 1_545 S
O70 C59 1.252 . S
O71 Sm40 2.408 . S
O71 C59 1.272 . S
H72 C44 0.930 . S
H73 C45 0.929 . S
H74 C47 0.930 . S
H75 C48 0.929 . S
H76 C53 0.930 . S
H77 C54 0.929 . S
H78 C56 0.930 . S
H79 C57 0.929 . S
Sm80 C82 2.846 . S
Sm80 O100 2.543 1_545 S
Sm80 O101 2.450 . S
Sm80 O102 2.681 1_655 S
Sm80 O103 2.464 1_655 S
Sm80 O104 2.396 1_545 S
Sm80 O108 2.386 1_545 S
Sm80 O111 2.408 . S
Sm81 C91 2.846 1_655 S
Sm81 O102 2.386 1_665 S
Sm81 O105 2.408 . S
Sm81 O106 2.543 1_655 S
Sm81 O107 2.450 . S
Sm81 O108 2.681 . S
Sm81 O109 2.464 . S
Sm81 O110 2.396 . S
C82 Sm80 2.846 . S
C82 C83 1.506 . S
C82 O100 1.261 1_545 S
C82 O101 1.242 . S
C83 C82 1.506 . S
C83 C84 1.358 1_545 S
C83 C88 1.382 . S
C84 C83 1.358 1_565 S
C84 C85 1.385 . S
C84 H112 0.930 . S
C85 C84 1.385 . S
C85 C86 1.395 1_565 S
C85 H113 0.929 . S
C86 C85 1.395 1_545 S
C86 C87 1.335 . S
C87 C86 1.335 . S
C87 C88 1.398 . S
C87 H114 0.930 . S
C88 C83 1.382 . S
C88 C87 1.398 . S
C88 H115 0.929 . S
C89 O102 1.271 . S
C89 O103 1.251 . S
C90 O104 1.252 . S
C90 O105 1.272 . S
C91 Sm81 2.846 1_455 S
C91 C92 1.506 . S
C91 O106 1.261 . S
C91 O107 1.242 1_455 S
C92 C91 1.506 . S
C92 C93 1.358 . S
C92 C97 1.382 . S
C93 C92 1.358 . S
C93 C94 1.385 . S
C93 H116 0.930 . S
C94 C93 1.385 . S
C94 C95 1.395 . S
C94 H117 0.929 . S
C95 C94 1.395 . S
C95 C96 1.335 . S
C96 C95 1.335 . S
C96 C97 1.398 . S
C96 H118 0.930 . S
C97 C92 1.382 . S
C97 C96 1.398 . S
C97 H119 0.929 1_455 S
C98 O108 1.271 . S
C98 O109 1.251 . S
C99 O110 1.252 . S
C99 O111 1.272 1_565 S
O100 Sm80 2.543 1_565 S
O100 C82 1.261 1_565 S
O101 Sm80 2.450 . S
O101 C82 1.242 . S
O102 Sm80 2.681 1_455 S
O102 Sm81 2.386 1_445 S
O102 C89 1.271 . S
O103 Sm80 2.464 1_455 S
O103 C89 1.251 . S
O104 Sm80 2.396 1_565 S
O104 C90 1.252 . S
O105 Sm81 2.408 . S
O105 C90 1.272 . S
O106 Sm81 2.543 1_455 S
O106 C91 1.261 . S
O107 Sm81 2.450 . S
O107 C91 1.242 1_655 S
O108 Sm80 2.386 1_565 S
O108 Sm81 2.681 . S
O108 C98 1.271 . S
O109 Sm81 2.464 . S
O109 C98 1.251 . S
O110 Sm81 2.396 . S
O110 C99 1.252 . S
O111 Sm80 2.408 . S
O111 C99 1.272 1_545 S
H112 C84 0.930 . S
H113 C85 0.929 . S
H114 C87 0.930 . S
H115 C88 0.929 . S
H116 C93 0.930 . S
H117 C94 0.929 . S
H118 C96 0.930 . S
H119 C97 0.929 1_655 S
H120 C126 0.930 . S
H121 C130 0.930 . S
H122 C135 0.929 . S
H123 C133 0.929 . S
H124 C128 0.929 . S
H125 C134 0.929 . S
C126 H120 0.930 . S
C126 C127 1.367 1_545 S
C126 C134 1.378 . S
C127 C126 1.367 1_565 S
C127 C135 1.433 1_455 S
C128 H124 0.929 . S
C128 C130 1.378 . S
C128 C132 1.350 . S
C129 C132 1.463 1_455 S
C129 C134 1.350 . S
C129 N137 1.427 1_455 S
C130 H121 0.930 . S
C130 C128 1.378 . S
C130 C131 1.367 . S
C131 C130 1.367 . S
C131 C133 1.433 1_655 S
C132 C128 1.350 . S
C132 C129 1.463 1_655 S
C132 N136 1.427 1_655 S
C133 H123 0.929 . S
C133 C131 1.433 1_455 S
C133 N136 1.384 . S
C134 H125 0.929 . S
C134 C126 1.378 . S
C134 C129 1.350 . S
C135 H122 0.929 . S
C135 C127 1.433 1_655 S
C135 N137 1.384 1_565 S
N136 C132 1.427 1_455 S
N136 C133 1.384 . S
N137 C129 1.427 1_655 S
N137 C135 1.384 1_545 S
H138 C144 0.930 . S
H139 C148 0.930 . S
H140 C153 0.929 . S
H141 C151 0.929 . S
H142 C146 0.929 . S
H143 C152 0.929 . S
C144 H138 0.930 . S
C144 C145 1.367 . S
C144 C152 1.378 . S
C145 C144 1.367 . S
C145 C153 1.433 1_545 S
C146 H142 0.929 . S
C146 C148 1.378 . S
C146 C150 1.350 1_565 S
C147 C150 1.463 . S
C147 C152 1.350 . S
C147 N155 1.427 1_545 S
C148 H139 0.930 . S
C148 C146 1.378 . S
C148 C149 1.367 1_565 S
C149 C148 1.367 1_545 S
C149 C151 1.433 . S
C150 C146 1.350 1_545 S
C150 C147 1.463 . S
C150 N154 1.427 . S
C151 H141 0.929 . S
C151 C149 1.433 . S
C151 N154 1.384 . S
C152 H143 0.929 . S
C152 C144 1.378 . S
C152 C147 1.350 . S
C153 H140 0.929 . S
C153 C145 1.433 1_565 S
C153 N155 1.384 . S
N154 C150 1.427 . S
N154 C151 1.384 . S
N155 C147 1.427 1_565 S
N155 C153 1.384 . S
H156 C162 0.930 . S
H157 C166 0.930 . S
H158 C171 0.929 . S
H159 C169 0.929 . S
H160 C164 0.929 . S
H161 C170 0.929 . S
C162 H156 0.930 . S
C162 C163 1.367 . S
C162 C170 1.378 . S
C163 C162 1.367 . S
C163 C171 1.433 . S
C164 H160 0.929 . S
C164 C166 1.378 . S
C164 C168 1.350 . S
C165 C168 1.463 . S
C165 C170 1.350 . S
C165 N173 1.427 . S
C166 H157 0.930 . S
C166 C164 1.378 . S
C166 C167 1.367 . S
C167 C166 1.367 . S
C167 C169 1.433 . S
C168 C164 1.350 . S
C168 C165 1.463 . S
C168 N172 1.427 . S
C169 H159 0.929 . S
C169 C167 1.433 . S
C169 N172 1.384 . S
C170 H161 0.929 . S
C170 C162 1.378 . S
C170 C165 1.350 . S
C171 H158 0.929 . S
C171 C163 1.433 . S
C171 N173 1.384 . S
N172 C168 1.427 . S
N172 C169 1.384 . S
N173 C165 1.427 . S
N173 C171 1.384 . S
H174 C180 0.930 . S
H175 C184 0.930 . S
H176 C189 0.929 1_565 S
H177 C187 0.929 . S
H178 C182 0.931 1_554 S
H179 C188 0.929 . S
C180 H174 0.930 . S
C180 C181 1.367 . S
C180 C188 1.378 . S
C181 C180 1.367 . S
C181 C189 1.433 . S
C182 H178 0.931 1_556 S
C182 C184 1.369 1_556 S
C182 C186 1.355 1_565 S
C183 C186 1.463 . S
C183 C188 1.350 . S
C183 N191 1.427 1_545 S
C184 H175 0.930 . S
C184 C182 1.369 1_554 S
C184 C185 1.367 1_565 S
C185 C184 1.367 1_545 S
C185 C187 1.433 1_554 S
C186 C182 1.355 1_545 S
C186 C183 1.463 . S
C186 N190 1.427 . S
C187 H177 0.929 . S
C187 C185 1.433 1_556 S
C187 N190 1.384 . S
C188 H179 0.929 . S
C188 C180 1.378 . S
C188 C183 1.350 . S
C189 H176 0.929 1_545 S
C189 C181 1.433 . S
C189 N191 1.384 1_545 S
N190 C186 1.427 . S
N190 C187 1.384 . S
N191 C183 1.427 1_565 S
N191 C189 1.384 1_565 S
H192 C198 0.930 . S
H193 C202 0.930 . S
H194 C207 0.929 . S
H195 C205 0.929 . S
H196 C200 0.929 . S
H197 C206 0.929 . S
C198 H192 0.930 . S
C198 C199 1.367 . S
C198 C206 1.378 . S
C199 C198 1.367 . S
C199 C207 1.433 . S
C200 H196 0.929 . S
C200 C202 1.378 . S
C200 C204 1.350 . S
C201 C204 1.463 . S
C201 C206 1.350 . S
C201 N209 1.427 . S
C202 H193 0.930 . S
C202 C200 1.378 . S
C202 C203 1.367 . S
C203 C202 1.367 . S
C203 C205 1.433 . S
C204 C200 1.350 . S
C204 C201 1.463 . S
C204 N208 1.427 . S
C205 H195 0.929 . S
C205 C203 1.433 . S
C205 N208 1.384 . S
C206 H197 0.929 . S
C206 C198 1.378 . S
C206 C201 1.350 . S
C207 H194 0.929 . S
C207 C199 1.433 . S
C207 N209 1.384 . S
N208 C204 1.427 . S
N208 C205 1.384 . S
N209 C201 1.427 . S
N209 C207 1.384 . S
H210 C216 0.930 . S
H211 C220 0.930 . S
H212 C225 0.929 . S
H213 C223 0.929 1_545 S
H214 C218 0.929 . S
H215 C224 0.929 . S
C216 H210 0.930 . S
C216 C217 1.367 1_545 S
C216 C224 1.378 . S
C217 C216 1.367 1_565 S
C217 C225 1.433 . S
C218 H214 0.929 . S
C218 C220 1.378 . S
C218 C222 1.350 . S
C219 C222 1.463 . S
C219 C224 1.350 1_565 S
C219 N227 1.427 . S
C220 H211 0.930 . S
C220 C218 1.378 . S
C220 C221 1.367 . S
C221 C220 1.367 . S
C221 C223 1.433 . S
C222 C218 1.350 . S
C222 C219 1.463 . S
C222 N226 1.427 . S
C223 H213 0.929 1_565 S
C223 C221 1.433 . S
C223 N226 1.384 . S
C224 H215 0.929 . S
C224 C216 1.378 . S
C224 C219 1.350 1_545 S
C225 H212 0.929 . S
C225 C217 1.433 . S
C225 N227 1.384 . S
N226 C222 1.427 . S
N226 C223 1.384 . S
N227 C219 1.427 . S
N227 C225 1.384 . S
H228 C234 0.930 . S
H229 C238 0.930 . S
H230 C243 0.929 . S
H231 C241 0.929 . S
H232 C236 0.929 . S
H233 C242 0.929 . S
C234 H228 0.930 . S
C234 C235 1.367 . S
C234 C242 1.378 . S
C235 C234 1.367 . S
C235 C243 1.433 . S
C236 H232 0.929 . S
C236 C238 1.378 . S
C236 C240 1.350 . S
C237 C240 1.463 1_556 S
C237 C242 1.350 . S
C237 N245 1.427 . S
C238 H229 0.930 . S
C238 C236 1.378 . S
C238 C239 1.367 . S
C239 C238 1.367 . S
C239 C241 1.433 . S
C240 C236 1.350 . S
C240 C237 1.463 1_554 S
C240 N244 1.427 . S
C241 H231 0.929 . S
C241 C239 1.433 . S
C241 N244 1.384 . S
C242 H233 0.929 . S
C242 C234 1.378 . S
C242 C237 1.350 . S
C243 H230 0.929 . S
C243 C235 1.433 . S
C243 N245 1.384 . S
N244 C240 1.427 . S
N244 C241 1.384 . S
N245 C237 1.427 . S
N245 C243 1.384 . S
H246 C252 0.930 . S
H247 C256 0.930 . S
H248 C261 0.929 . S
H249 C259 0.929 . S
H250 C254 0.929 . S
H251 C260 0.929 . S
C252 H246 0.930 . S
C252 C253 1.367 . S
C252 C260 1.378 . S
C253 C252 1.367 . S
C253 C261 1.433 . S
C254 H250 0.929 . S
C254 C256 1.378 . S
C254 C258 1.350 . S
C255 C258 1.463 . S
C255 C260 1.350 . S
C255 N263 1.427 . S
C256 H247 0.930 . S
C256 C254 1.378 . S
C256 C257 1.367 . S
C257 C256 1.367 . S
C257 C259 1.433 . S
C258 C254 1.350 . S
C258 C255 1.463 . S
C258 N262 1.427 . S
C259 H249 0.929 . S
C259 C257 1.433 . S
C259 N262 1.384 . S
C260 H251 0.929 . S
C260 C252 1.378 . S
C260 C255 1.350 . S
C261 H248 0.929 . S
C261 C253 1.433 . S
C261 N263 1.384 . S
N262 C258 1.427 . S
N262 C259 1.384 . S
N263 C255 1.427 . S
N263 C261 1.384 . S
H264 C270 0.930 . S
H265 C274 0.930 . S
H266 C279 0.929 . S
H267 C277 0.929 . S
H268 C272 0.929 . S
H269 C278 0.929 . S
C270 H264 0.930 . S
C270 C271 1.367 . S
C270 C278 1.378 . S
C271 C270 1.367 . S
C271 C279 1.433 . S
C272 H268 0.929 . S
C272 C274 1.378 . S
C272 C276 1.350 . S
C273 C276 1.463 . S
C273 C278 1.350 . S
C273 N281 1.427 . S
C274 H265 0.930 . S
C274 C272 1.378 . S
C274 C275 1.367 . S
C275 C274 1.367 . S
C275 C277 1.433 . S
C276 C272 1.350 . S
C276 C273 1.463 . S
C276 N280 1.427 . S
C277 H267 0.929 . S
C277 C275 1.433 . S
C277 N280 1.384 . S
C278 H269 0.929 . S
C278 C270 1.378 . S
C278 C273 1.350 . S
C279 H266 0.929 . S
C279 C271 1.433 . S
C279 N281 1.384 . S
N280 C276 1.427 . S
N280 C277 1.384 . S
N281 C273 1.427 . S
N281 C279 1.384 . S
C127 C9 1.565 1_455 S
C131 C18 1.565 1_655 S
C145 C58 1.645 1_545 S
C149 C49 1.645 1_455 S
C163 C89 1.343 . S
C167 C98 1.343 . S
C181 C86 0.988 . S
C185 C15 0.976 1_545 S
C199 C59 1.945 . S
C203 C6 1.891 . S
C217 C99 2.442 . S
C221 C50 2.445 . S
C235 C90 2.374 . S
C239 C19 2.314 . S
C253 C10 1.761 . S
C257 C55 1.664 . S
C271 C95 0.962 . S
C275 C46 0.978 1_455 S
