# Generated by pormake.
# Topology msp, (4)-cn, num edge types: 1
# Building blocks:
#     Node 0, Type 0, BuildingBlock: MUDLON_clean_sbu_0, # of connection points: 4
#     Node 1, Type 0, BuildingBlock: MUDLON_clean_sbu_0, # of connection points: 4
#     Node 2, Type 0, BuildingBlock: MUDLON_clean_sbu_0, # of connection points: 4
#     Node 3, Type 0, BuildingBlock: MUDLON_clean_sbu_0, # of connection points: 4
#     Node 4, Type 0, BuildingBlock: MUDLON_clean_sbu_0, # of connection points: 4
#     Node 5, Type 0, BuildingBlock: MUDLON_clean_sbu_0, # of connection points: 4
#     Node 6, Type 0, BuildingBlock: MUDLON_clean_sbu_0, # of connection points: 4
#     Node 7, Type 0, BuildingBlock: MUDLON_clean_sbu_0, # of connection points: 4
#     Edge 8, Type (0, 0), BuildingBlock: UVAHIK_clean_linker_0, # of connection points: 2
#     Edge 9, Type (0, 0), BuildingBlock: UVAHIK_clean_linker_0, # of connection points: 2
#     Edge 10, Type (0, 0), BuildingBlock: UVAHIK_clean_linker_0, # of connection points: 2
#     Edge 11, Type (0, 0), BuildingBlock: UVAHIK_clean_linker_0, # of connection points: 2
#     Edge 12, Type (0, 0), BuildingBlock: UVAHIK_clean_linker_0, # of connection points: 2
#     Edge 13, Type (0, 0), BuildingBlock: UVAHIK_clean_linker_0, # of connection points: 2
#     Edge 14, Type (0, 0), BuildingBlock: UVAHIK_clean_linker_0, # of connection points: 2
#     Edge 15, Type (0, 0), BuildingBlock: UVAHIK_clean_linker_0, # of connection points: 2
#     Edge 16, Type (0, 0), BuildingBlock: UVAHIK_clean_linker_0, # of connection points: 2
#     Edge 17, Type (0, 0), BuildingBlock: UVAHIK_clean_linker_0, # of connection points: 2
#     Edge 18, Type (0, 0), BuildingBlock: UVAHIK_clean_linker_0, # of connection points: 2
#     Edge 19, Type (0, 0), BuildingBlock: UVAHIK_clean_linker_0, # of connection points: 2
#     Edge 20, Type (0, 0), BuildingBlock: UVAHIK_clean_linker_0, # of connection points: 2
#     Edge 21, Type (0, 0), BuildingBlock: UVAHIK_clean_linker_0, # of connection points: 2
#     Edge 22, Type (0, 0), BuildingBlock: UVAHIK_clean_linker_0, # of connection points: 2
#     Edge 23, Type (0, 0), BuildingBlock: UVAHIK_clean_linker_0, # of connection points: 2
# Relax obj value: 0.166
# Max RMSD: 0.252
# Mean RMSD: 0.252
data_MOF--net-msp--node1-MUDLON_clean_sbu_0--edge1-UVAHIK_clean_linker_0
_symmetry_space_group_name_H-M    P1
_symmetry_Int_Tables_number       1
_symmetry_cell_setting            triclinic
loop_
_symmetry_equiv_pos_as_xyz
'x, y, z'
_cell_length_a     31.729531
_cell_length_b     31.140524
_cell_length_c     53.975523
_cell_angle_alpha  89.920863
_cell_angle_beta   101.27721
_cell_angle_gamma 89.973354
loop_
_atom_site_label
_atom_site_type_symbol
_atom_site_fract_x
_atom_site_fract_y
_atom_site_fract_z
_atom_type_partial_charge
Mg0 Mg 0.07054 0.30306 0.37551 0.0
C1 C 0.11683 0.28117 0.33529 0.0
O2 O 0.08971 0.24927 0.33524 0.0
C3 C 0.032 0.35851 0.41014 0.0
O4 O 1.00226 0.32906 0.40366 0.0
C5 C 0.98957 0.25335 0.35039 0.0
O6 O 1.00927 0.2205 0.36292 0.0
O7 O 1.00762 0.28993 0.35257 0.0
O8 O 0.11563 0.31232 0.35038 0.0
O9 O 0.09924 0.25023 0.39921 0.0
C10 C 0.09104 0.24133 0.42076 0.0
O11 O 0.05946 0.26142 0.42835 0.0
O12 O 0.06537 0.35722 0.40034 0.0
Mg13 Mg 0.473 0.30643 0.64971 0.0
C14 C 0.4356 0.289 0.69513 0.0
O15 O 0.47141 0.26665 0.69973 0.0
C16 C 0.51302 0.36929 0.61961 0.0
O17 O 0.54538 0.34364 0.62843 0.0
C18 C 0.55552 0.25797 0.67395 0.0
O19 O 0.53675 0.22527 0.66089 0.0
O20 O 0.53644 0.29403 0.67237 0.0
O21 O 0.42775 0.31215 0.67529 0.0
O22 O 0.44863 0.25575 0.62295 0.0
C23 C 0.41817 0.23165 0.62679 0.0
O24 O 0.40571 0.23396 0.64855 0.0
O25 O 0.47721 0.36289 0.62629 0.0
Mg26 Mg 0.98374 0.71851 0.64695 0.0
C27 C 0.90079 0.70191 0.66536 0.0
O28 O 0.88586 0.69981 0.6409 0.0
C29 C 0.96848 0.66368 0.60013 0.0
O30 O 0.94234 0.69588 0.59259 0.0
C31 C 0.06783 0.70229 0.6807 0.0
O32 O 0.05006 0.66401 0.67855 0.0
O33 O 0.04716 0.73353 0.66885 0.0
O34 O 0.94095 0.70696 0.67325 0.0
O35 O 0.95488 0.76986 0.62177 0.0
C36 C 0.92593 0.79411 0.62743 0.0
O37 O 0.91883 0.79338 0.6506 0.0
O38 O 0.98928 0.66324 0.62284 0.0
Mg39 Mg 0.5558 0.72024 0.37789 0.0
C40 C 0.64153 0.71963 0.36233 0.0
O41 O 0.65261 0.73113 0.38612 0.0
C42 C 0.57837 0.65148 0.41839 0.0
O43 O 0.6167 0.66848 0.41999 0.0
C44 C 0.47331 0.70407 0.34255 0.0
O45 O 0.4905 0.66557 0.34583 0.0
O46 O 0.49378 0.73554 0.35419 0.0
O47 O 0.60242 0.71015 0.35359 0.0
O48 O 0.58347 0.77125 0.40338 0.0
C49 C 0.57857 0.77288 0.42617 0.0
O50 O 0.55045 0.74726 0.43349 0.0
O51 O 0.54751 0.66535 0.40161 0.0
Mg52 Mg 0.56108 0.8016 0.8733 0.0
C53 C 0.61106 0.76862 0.83744 0.0
O54 O 0.59115 0.73498 0.84435 0.0
C55 C 0.52338 0.86961 0.9018 0.0
O56 O 0.4886 0.84912 0.89073 0.0
C57 C 0.4797 0.75236 0.84789 0.0
O58 O 0.50086 0.71855 0.85832 0.0
O59 O 0.49695 0.78923 0.85151 0.0
O60 O 0.6046 0.80503 0.84673 0.0
O61 O 0.58759 0.7506 0.89913 0.0
C62 C 0.58036 0.74873 0.92144 0.0
O63 O 0.55167 0.77474 0.92782 0.0
O64 O 0.55946 0.85826 0.89696 0.0
Mg65 Mg 0.97889 0.80394 0.15243 0.0
C66 C 0.94243 0.78027 0.19635 0.0
O67 O 0.96559 0.74694 0.19234 0.0
C68 C 0.98491 0.84685 0.10462 0.0
O69 O 0.98918 0.80583 0.09999 0.0
C70 C 0.06156 0.75298 0.17478 0.0
O71 O 0.03865 0.71905 0.1663 0.0
O72 O 0.0449 0.79011 0.17083 0.0
O73 O 0.9425 0.81331 0.18243 0.0
O74 O 0.94494 0.75299 0.12882 0.0
C75 C 0.90437 0.75347 0.12719 0.0
O76 O 0.8878 0.78148 0.14075 0.0
O77 O 0.97981 0.8579 0.12657 0.0
Mg78 Mg 0.49404 0.20793 0.15096 0.0
C79 C 0.45715 0.22439 0.1963 0.0
O80 O 0.48519 0.25561 0.19691 0.0
C81 C 0.46954 0.14294 0.10897 0.0
O82 O 0.43274 0.16331 0.1069 0.0
C83 C 0.57793 0.19519 0.18467 0.0
O84 O 0.55916 0.15759 0.18473 0.0
O85 O 0.55791 0.22514 0.17121 0.0
O86 O 0.45474 0.19599 0.17914 0.0
O87 O 0.46136 0.25769 0.12572 0.0
C88 C 0.42167 0.26366 0.12576 0.0
O89 O 0.40411 0.24261 0.14223 0.0
O90 O 0.50042 0.15321 0.12677 0.0
Mg91 Mg 0.05073 0.20842 0.87301 0.0
C92 C 0.11918 0.1778 0.84269 0.0
O93 O 0.12755 0.14704 0.85962 0.0
C94 C 1.01253 0.14629 0.90444 0.0
O95 O 0.98239 0.17575 0.89949 0.0
C96 C 0.96756 0.19938 0.83903 0.0
O97 O 0.98751 0.16291 0.83708 0.0
O98 O 0.98666 0.22781 0.85405 0.0
O99 O 0.08892 0.20412 0.84367 0.0
O100 O 0.08635 0.25282 0.90049 0.0
C101 C 0.1218 0.23544 0.91072 0.0
O102 O 0.12952 0.19617 0.90397 0.0
O103 O 0.04567 0.1499 0.89457 0.0
C104 C 0.05691 0.42464 0.43565 0.0
C105 C 0.02764 0.39054 0.4298 0.0
C106 C 0.05288 0.45398 0.45473 0.0
C107 C 1.00644 0.4657 0.51195 0.0
H108 H 1.01363 0.58798 0.49987 0.0
C109 C 1.0025 0.59485 0.5893 0.0
C110 C 0.97588 0.63053 0.58172 0.0
C111 C 1.01072 0.56492 0.57146 0.0
C112 C 1.0115 0.55391 0.50351 0.0
H113 H 0.97124 0.36055 0.43948 0.0
H114 H 0.96444 0.41145 0.47265 0.0
H115 H 0.02475 0.53713 0.4673 0.0
H116 H 0.93672 0.6624 0.54943 0.0
H117 H 0.95114 0.61044 0.5185 0.0
H118 H 0.99264 0.48252 0.54804 0.0
C119 C 0.9906 0.41543 0.46262 0.0
C120 C 0.01826 0.52481 0.48496 0.0
C121 C 0.99434 0.38645 0.44344 0.0
C122 C 0.95741 0.63535 0.55597 0.0
C123 C 0.96592 0.60574 0.53817 0.0
C124 C 1.0001 0.4948 0.53062 0.0
C125 C 0.01983 0.44949 0.46853 0.0
C126 C 1.01525 0.48038 0.48883 0.0
C127 C 0.99285 0.57032 0.54565 0.0
C128 C 1.002 0.53925 0.52647 0.0
H129 H 0.08295 0.42866 0.42553 0.0
H130 H 0.07602 0.4798 0.45894 0.0
H131 H 1.00434 0.43162 0.51559 0.0
H132 H 1.01727 0.59021 0.60898 0.0
H133 H 0.03174 0.53801 0.57778 0.0
C134 C 0.6047 0.60335 0.45547 0.0
C135 C 0.5703 0.62026 0.43773 0.0
C136 C 0.5971 0.5767 0.47501 0.0
C137 C 0.51334 0.50969 0.49596 0.0
H138 H 0.58691 0.52384 0.56181 0.0
C139 C 0.4817 0.42242 0.58576 0.0
C140 C 0.51778 0.40241 0.60057 0.0
C141 C 0.48655 0.45079 0.56632 0.0
C142 C 0.56622 0.51935 0.54351 0.0
H143 H 0.50085 0.6217 0.42638 0.0
H144 H 0.48756 0.57587 0.46068 0.0
H145 H 0.59844 0.56836 0.52661 0.0
H146 H 0.58729 0.39753 0.60704 0.0
H147 H 0.59568 0.44707 0.57344 0.0
H148 H 0.48098 0.46077 0.5131 0.0
C149 C 0.5205 0.58263 0.45931 0.0
C150 C 0.57294 0.54473 0.52326 0.0
C151 C 0.52812 0.60907 0.43965 0.0
C152 C 0.5588 0.41235 0.596 0.0
C153 C 0.56366 0.44093 0.57679 0.0
C154 C 0.50644 0.48447 0.5163 0.0
C155 C 0.55489 0.56652 0.47745 0.0
C156 C 0.5469 0.53996 0.49912 0.0
C157 C 0.5276 0.46011 0.56151 0.0
C158 C 0.53309 0.48871 0.54025 0.0
H159 H 0.6376 0.61108 0.45446 0.0
H160 H 0.62444 0.56416 0.48825 0.0
H161 H 0.49293 0.50473 0.47762 0.0
H162 H 0.44965 0.41537 0.58875 0.0
H163 H 0.45818 0.46538 0.55501 0.0
C164 C 0.51752 0.0966 0.08818 0.0
C165 C 0.47622 0.11207 0.08915 0.0
C166 C 0.52423 0.07078 0.06807 0.0
C167 C 0.47405 0.04365 1.00188 0.0
H168 H 0.55509 0.94902 1.01145 0.0
C169 C 0.4802 0.9168 0.92489 0.0
C170 C 0.52057 0.90191 0.92161 0.0
C171 C 0.4767 0.94428 0.94484 0.0
C172 C 0.53276 0.97571 1.00842 0.0
H173 H 0.40932 0.11104 0.0702 0.0
H174 H 0.42079 0.06535 0.03558 0.0
H175 H 0.54465 0.99139 0.04781 0.0
H176 H 0.58912 0.90494 0.93653 0.0
H177 H 0.58297 0.95311 0.97146 0.0
H178 H 0.46171 0.02757 0.96257 0.0
C179 C 0.44827 0.07402 0.04997 0.0
C180 C 0.52672 0.0 0.02928 0.0
C181 C 0.44161 0.09996 0.06998 0.0
C182 C 0.55754 0.91592 0.93847 0.0
C183 C 0.554 0.94322 0.95861 0.0
C184 C 0.47994 0.01927 0.98109 0.0
C185 C 0.48977 0.05967 0.04849 0.0
C186 C 0.49701 0.0341 0.02631 0.0
C187 C 0.51347 0.95741 0.96214 0.0
C188 C 0.50911 0.9848 0.98411 0.0
H189 H 0.54495 0.10542 0.10258 0.0
H190 H 0.55668 0.06064 0.0675 0.0
H191 H 0.45165 0.07026 0.99873 0.0
H192 H 0.45105 0.90664 0.91229 0.0
H193 H 0.44497 0.95423 0.94713 0.0
C194 C 0.98249 0.86468 0.05926 0.0
C195 C 0.98621 0.87873 0.08435 0.0
C196 C 0.98461 0.8938 0.03987 0.0
C197 C 0.02686 -0.0011 0.02678 0.0
H198 H 0.94417 0.99062 0.96369 0.0
C199 C 0.04609 0.09012 0.9357 0.0
C200 C 1.00938 0.11231 0.92325 0.0
C201 C 0.04335 0.0612 0.95524 0.0
C202 C 0.96745 0.99338 0.9812 0.0
H203 H 0.99516 0.93458 0.10872 0.0
H204 H 0.99943 0.98575 0.07465 0.0
H205 H 0.93821 0.94264 0.99868 0.0
H206 H 0.94086 0.12054 0.92102 0.0
H207 H 0.93602 0.0696 0.95469 0.0
H208 H 0.0562 0.04959 1.00917 0.0
C209 C 0.99478 0.95199 0.07013 0.0
C210 C 0.96417 0.96579 1.00119 0.0
C211 C 0.99208 0.92278 0.08959 0.0
C212 C 0.96974 0.10398 0.93023 0.0
C213 C 0.96692 0.0747 0.94948 0.0
C214 C 0.03047 0.02619 1.00665 0.0
C215 C 0.99098 0.93774 0.04505 0.0
C216 C 0.99382 0.96821 0.0242 0.0
C217 C 1.00376 0.05342 0.96245 0.0
C218 C 1.00074 0.02376 0.98365 0.0
H219 H 0.97788 0.831 0.05451 0.0
H220 H 0.982 0.88177 0.0208 0.0
H221 H 0.05038 0.00127 0.04422 0.0
H222 H 0.07713 0.09601 0.93085 0.0
H223 H 0.07221 0.04494 0.96475 0.0
C224 C 0.64061 0.24292 0.20229 0.0
C225 C 0.62106 0.20225 0.20055 0.0
C226 C 0.68093 0.24925 0.21787 0.0
C227 C 0.77772 0.19044 0.25029 0.0
H228 H 0.79744 0.29173 0.29264 0.0
C229 C 0.92706 0.20755 0.33029 0.0
C230 C 0.9472 0.2479 0.33335 0.0
C231 C 0.88744 0.20248 0.31382 0.0
C232 C 0.79265 0.2635 0.28073 0.0
H233 H 0.62872 0.13629 0.21374 0.0
H234 H 0.69855 0.14739 0.24089 0.0
H235 H 0.72855 0.28245 0.26383 0.0
H236 H 0.94132 0.31465 0.32151 0.0
H237 H 0.8726 0.3057 0.2927 0.0
H238 H 0.84173 0.17142 0.26719 0.0
C239 C 0.68307 0.17433 0.23004 0.0
C240 C 0.75316 0.25822 0.26419 0.0
C241 C 0.64284 0.16805 0.21456 0.0
C242 C 0.92669 0.2831 0.31968 0.0
C243 C 0.88712 0.27804 0.30324 0.0
C244 C 0.81719 0.19574 0.2668 0.0
C245 C 0.7026 0.215 0.23196 0.0
C246 C 0.74514 0.2215 0.24887 0.0
C247 C 0.86704 0.23765 0.30004 0.0
C248 C 0.8251 0.23223 0.28232 0.0
H249 H 0.6247 0.26994 0.19173 0.0
H250 H 0.69528 0.28089 0.21874 0.0
H251 H 0.77286 0.16211 0.23846 0.0
H252 H 0.94189 0.17979 0.34057 0.0
H253 H 0.87259 0.17104 0.31208 0.0
C254 C 0.61945 0.2132 0.6932 0.0
C255 C 0.59783 0.25282 0.6911 0.0
C256 C 0.65893 0.20831 0.70983 0.0
C257 C 0.75076 0.27018 0.74558 0.0
H258 H 0.77355 0.165 0.78441 0.0
C259 C 0.90325 0.24656 0.82361 0.0
C260 C 0.92412 0.20673 0.82359 0.0
C261 C 0.86267 0.25316 0.80833 0.0
C262 C 0.76782 0.19445 0.77357 0.0
H263 H 0.60091 0.31847 0.70482 0.0
H264 H 0.66938 0.30978 0.73394 0.0
H265 H 0.70472 0.17443 0.75566 0.0
H266 H 0.9185 0.14253 0.80765 0.0
H267 H 0.84827 0.15411 0.7811 0.0
H268 H 0.814 0.29009 0.76351 0.0
C269 C 0.65615 0.28261 0.72251 0.0
C270 C 0.72839 0.19981 0.75703 0.0
C271 C 0.61673 0.2875 0.70589 0.0
C272 C 0.90338 0.17362 0.80819 0.0
C273 C 0.86291 0.18014 0.79305 0.0
C274 C 0.79021 0.26484 0.76217 0.0
C275 C 0.6777 0.24293 0.72476 0.0
C276 C 0.71946 0.2376 0.74268 0.0
C277 C 0.84207 0.21998 0.79286 0.0
C278 C 0.79934 0.22675 0.7762 0.0
H279 H 0.60588 0.18587 0.68204 0.0
H280 H 0.67496 0.17747 0.71081 0.0
H281 H 0.74517 0.29949 0.7346 0.0
H282 H 0.91835 0.27271 0.83527 0.0
H283 H 0.84727 0.28412 0.80876 0.0
C284 C 0.12928 0.74956 0.70099 0.0
C285 C 0.11067 0.70854 0.69713 0.0
C286 C 0.16936 0.75505 0.71699 0.0
C287 C 0.26746 0.69538 0.74662 0.0
H288 H 0.28506 0.79081 0.79355 0.0
C289 C 0.41771 0.70708 0.82644 0.0
C290 C 0.43682 0.74771 0.83125 0.0
C291 C 0.37784 0.70274 0.81012 0.0
C292 C 0.28086 0.76425 0.78037 0.0
H293 H 0.11978 0.64112 0.707 0.0
H294 H 0.18921 0.65074 0.73488 0.0
H295 H 0.21625 0.78297 0.76446 0.0
H296 H 0.4287 0.81572 0.82277 0.0
H297 H 0.35957 0.80807 0.79419 0.0
H298 H 0.33201 0.67663 0.76247 0.0
C299 C 0.17316 0.67864 0.72537 0.0
C300 C 0.2414 0.75979 0.76367 0.0
C301 C 0.13316 0.67318 0.70947 0.0
C302 C 0.41491 0.78392 0.81955 0.0
C303 C 0.37509 0.77958 0.80324 0.0
C304 C 0.3069 0.69986 0.76328 0.0
C305 C 0.19176 0.71962 0.72939 0.0
C306 C 0.23415 0.72519 0.74666 0.0
C307 C 0.35612 0.73892 0.79821 0.0
C308 C 0.31408 0.73426 0.78044 0.0
H309 H 0.11284 0.77747 0.69175 0.0
H310 H 0.18299 0.787 0.71947 0.0
H311 H 0.26322 0.66874 0.73349 0.0
H312 H 0.43361 0.67853 0.83518 0.0
H313 H 0.36389 0.67101 0.80697 0.0
C314 C 0.41307 0.75127 0.32034 0.0
C315 C 0.43113 0.71017 0.32534 0.0
C316 C 0.37345 0.75648 0.30379 0.0
C317 C 0.27513 0.69684 0.27496 0.0
H318 H 0.25901 0.78951 0.22598 0.0
C319 C 0.1238 0.70739 0.19582 0.0
C320 C 0.10535 0.74821 0.19039 0.0
C321 C 0.16412 0.70298 0.21169 0.0
C322 C 0.26279 0.76371 0.23971 0.0
H323 H 0.4216 0.64235 0.31682 0.0
H324 H 0.35298 0.65149 0.28803 0.0
H325 H 0.32761 0.78206 0.25535 0.0
H326 H 0.11527 0.8165 0.19717 0.0
H327 H 0.18512 0.80875 0.22498 0.0
H328 H 0.21035 0.67857 0.25948 0.0
C329 C 0.36909 0.67968 0.29706 0.0
C330 C 0.30214 0.75948 0.25657 0.0
C331 C 0.40864 0.67448 0.31349 0.0
C332 C 0.12852 0.78454 0.20087 0.0
C333 C 0.16876 0.78012 0.21675 0.0
C334 C 0.23579 0.70112 0.25815 0.0
C335 C 0.35096 0.72071 0.29198 0.0
C336 C 0.30883 0.72591 0.27436 0.0
C337 C 0.18695 0.73927 0.22255 0.0
C338 C 0.22911 0.73455 0.24026 0.0
H339 H 0.42953 0.77943 0.32916 0.0
H340 H 0.36019 0.7885 0.30048 0.0
H341 H 0.27894 0.67102 0.28868 0.0
H342 H 0.10694 0.67874 0.18801 0.0
H343 H 0.17744 0.67106 0.21542 0.0
C344 C 0.39035 0.19748 0.20975 0.0
C345 C 0.42503 0.22633 0.21287 0.0
C346 C 0.35766 0.20261 0.22357 0.0
C347 C 0.33073 0.25749 0.27965 0.0
H348 H 0.21336 0.24328 0.24351 0.0
C349 C 0.18463 0.30766 0.32273 0.0
C350 C 0.15039 0.27827 0.31973 0.0
C351 C 0.21798 0.30226 0.3094 0.0
C352 C 0.24595 0.24705 0.25395 0.0
H353 H 0.45325 0.28231 0.23363 0.0
H354 H 0.39632 0.29138 0.25746 0.0
H355 H 0.27264 0.22962 0.2219 0.0
H356 H 0.12383 0.22085 0.29985 0.0
H357 H 0.18175 0.21151 0.27679 0.0
H358 H 0.30392 0.27509 0.31168 0.0
C359 C 0.39442 0.26457 0.24453 0.0
C360 C 0.27998 0.23904 0.24158 0.0
C361 C 0.42703 0.25946 0.23074 0.0
C362 C 0.14968 0.24412 0.30263 0.0
C363 C 0.18283 0.23885 0.28928 0.0
C364 C 0.29667 0.26557 0.29201 0.0
C365 C 0.35895 0.23665 0.24084 0.0
C366 C 0.32281 0.2441 0.25428 0.0
C367 C 0.21765 0.26753 0.29269 0.0
C368 C 0.25387 0.26037 0.27932 0.0
H369 H 0.38784 0.17158 0.19617 0.0
H370 H 0.33116 0.18008 0.22057 0.0
H371 H 0.36331 0.26121 0.29011 0.0
H372 H 0.18614 0.3343 0.33575 0.0
H373 H 0.24409 0.32524 0.31222 0.0
C374 C 0.36184 0.30115 0.70461 0.0
C375 C 0.40263 0.28183 0.71076 0.0
C376 C 0.32969 0.29058 0.71806 0.0
C377 C 0.29763 0.2032 0.75659 0.0
H378 H 0.22495 0.28896 0.77904 0.0
C379 C 0.18756 0.16401 0.82718 0.0
C380 C 0.14804 0.1856 0.8246 0.0
C381 C 0.2168 0.17487 0.81186 0.0
C382 C 0.24447 0.26447 0.77256 0.0
H383 H 0.44198 0.23738 0.73647 0.0
H384 H 0.38618 0.21921 0.75979 0.0
H385 H 0.27952 0.31114 0.75547 0.0
H386 H 0.10748 0.23426 0.8031 0.0
H387 H 0.15793 0.2524 0.77602 0.0
H388 H 0.26263 0.15646 0.77347 0.0
C389 C 0.3788 0.24204 0.74438 0.0
C390 C 0.27585 0.27727 0.75911 0.0
C391 C 0.4109 0.25275 0.73109 0.0
C392 C 0.13778 0.21717 0.80572 0.0
C393 C 0.16688 0.22785 0.79031 0.0
C394 C 0.26612 0.19036 0.76987 0.0
C395 C 0.33763 0.26027 0.73779 0.0
C396 C 0.30309 0.24682 0.75122 0.0
C397 C 0.20711 0.20739 0.79347 0.0
C398 C 0.23937 0.22085 0.77826 0.0
H399 H 0.35439 0.3236 0.68902 0.0
H400 H 0.29822 0.3051 0.7125 0.0
H401 H 0.31762 0.17886 0.75036 0.0
H402 H 0.1966 0.1397 0.84161 0.0
H403 H 0.24762 0.15872 0.81505 0.0
C404 C 0.64767 0.72195 0.8105 0.0
C405 C 0.64061 0.76317 0.81949 0.0
C406 C 0.67543 0.71587 0.7937 0.0
C407 C 0.76579 0.76561 0.77022 0.0
H408 H 0.7348 0.68257 0.71624 0.0
C409 C 0.88645 0.70977 0.70927 0.0
C410 C 0.87078 0.70502 0.68319 0.0
C411 C 0.85818 0.7166 0.7258 0.0
C412 C 0.74386 0.70611 0.73107 0.0
H413 H 0.65737 0.83044 0.81782 0.0
H414 H 0.70574 0.81988 0.78811 0.0
H415 H 0.68532 0.69715 0.74442 0.0
H416 H 0.81296 0.70305 0.65412 0.0
H417 H 0.76381 0.71521 0.68285 0.0
H418 H 0.82403 0.77514 0.7565 0.0
C419 C 0.69001 0.79217 0.79436 0.0
C420 C 0.71565 0.71415 0.74743 0.0
C421 C 0.66213 0.79828 0.81127 0.0
C422 C 0.82615 0.70631 0.67411 0.0
C423 C 0.7979 0.7132 0.69062 0.0
C424 C 0.79404 0.75757 0.75382 0.0
C425 C 0.69688 0.75085 0.78532 0.0
C426 C 0.72634 0.74379 0.76732 0.0
C427 C 0.81357 0.71888 0.71665 0.0
C428 C 0.78351 0.72757 0.73409 0.0
H429 H 0.63188 0.69408 0.81652 0.0
H430 H 0.68052 0.68352 0.78755 0.0
H431 H 0.77523 0.78836 0.78545 0.0
H432 H 0.92064 0.70888 0.71693 0.0
H433 H 0.87133 0.72008 0.74577 0.0
C434 C 0.88383 0.8092 0.21724 0.0
C435 C 0.91381 0.77691 0.21496 0.0
C436 C 0.85496 0.80382 0.23364 0.0
C437 C 0.83725 0.7394 0.28874 0.0
H438 H 0.71821 0.77322 0.26661 0.0
C439 C 0.71574 0.73533 0.35547 0.0
C440 C 0.67333 0.72249 0.34556 0.0
C441 C 0.74515 0.74158 0.33963 0.0
C442 C 0.75126 0.76323 0.27299 0.0
H443 H 0.93734 0.71396 0.22847 0.0
H444 H 0.88715 0.70454 0.25664 0.0
H445 H 0.76965 0.78623 0.2392 0.0
H446 H 0.62887 0.70524 0.31117 0.0
H447 H 0.68053 0.71549 0.2835 0.0
H448 H 0.81881 0.71542 0.3222 0.0
C449 C 0.88608 0.73425 0.24608 0.0
C450 C 0.78089 0.77127 0.25742 0.0
C451 C 0.9148 0.7396 0.22976 0.0
C452 C 0.66128 0.71515 0.31943 0.0
C453 C 0.69079 0.72141 0.30354 0.0
C454 C 0.80767 0.73133 0.30427 0.0
C455 C 0.85558 0.76611 0.24814 0.0
C456 C 0.82425 0.7593 0.26507 0.0
C457 C 0.73302 0.73508 0.31343 0.0
C458 C 0.76427 0.74309 0.2966 0.0
H459 H 0.88218 0.8383 0.20607 0.0
H460 H 0.8322 0.82923 0.23498 0.0
H461 H 0.87044 0.73014 0.29539 0.0
H462 H 0.72615 0.74145 0.37548 0.0
H463 H 0.77717 0.75261 0.3479 0.0
C464 C 0.34919 0.1962 0.60705 0.0
C465 C 0.39098 0.20905 0.60534 0.0
C466 C 0.32002 0.18323 0.58553 0.0
C467 C 0.30117 0.20124 0.51669 0.0
H468 H 0.19921 0.13337 0.51814 0.0
C469 C 0.1612 0.20234 0.43235 0.0
C470 C 0.12267 0.21621 0.43898 0.0
C471 C 0.19508 0.18717 0.4508 0.0
C472 C 0.22769 0.15214 0.51742 0.0
H473 H 0.43633 0.2141 0.58022 0.0
H474 H 0.38604 0.18965 0.54282 0.0
H475 H 0.25948 0.13106 0.55409 0.0
H476 H 0.0881 0.22103 0.46979 0.0
H477 H 0.14727 0.19434 0.50198 0.0
H478 H 0.26915 0.22279 0.48026 0.0
C479 C 0.37514 0.19131 0.56059 0.0
C480 C 0.26217 0.15105 0.53805 0.0
C481 C 0.40415 0.20499 0.58208 0.0
C482 C 0.11743 0.21091 0.46407 0.0
C483 C 0.15128 0.19541 0.48251 0.0
C484 C 0.26706 0.2018 0.496 0.0
C485 C 0.3321 0.18213 0.5618 0.0
C486 C 0.29882 0.17673 0.53831 0.0
C487 C 0.19103 0.18513 0.47622 0.0
C488 C 0.22946 0.17829 0.49644 0.0
H489 H 0.33797 0.19884 0.62469 0.0
H490 H 0.28724 0.17686 0.58736 0.0
H491 H 0.32825 0.22213 0.51621 0.0
H492 H 0.16622 0.20555 0.41315 0.0
H493 H 0.2252 0.17892 0.44539 0.0
C494 C 0.85178 0.82133 0.6105 0.0
C495 C 0.89376 0.8135 0.60687 0.0
C496 C 0.8188 0.83065 0.58995 0.0
C497 C 0.79303 0.8126 0.52083 0.0
H498 H 0.68749 0.87144 0.52628 0.0
C499 C 0.64828 0.81236 0.43857 0.0
C500 C 0.6108 0.79568 0.44523 0.0
C501 C 0.68262 0.82603 0.45721 0.0
C502 C 0.71688 0.8551 0.52448 0.0
H503 H 0.93492 0.81315 0.57924 0.0
H504 H 0.87796 0.83158 0.54355 0.0
H505 H 0.74992 0.87642 0.56079 0.0
H506 H 0.57874 0.78359 0.47654 0.0
H507 H 0.63859 0.80803 0.50905 0.0
H508 H 0.75989 0.79117 0.48462 0.0
C509 C 0.86994 0.82873 0.56208 0.0
C510 C 0.75264 0.85771 0.54429 0.0
C511 C 0.90278 0.81861 0.58258 0.0
C512 C 0.6072 0.7961 0.47078 0.0
C513 C 0.64142 0.81025 0.48941 0.0
C514 C 0.75759 0.81058 0.50095 0.0
C515 C 0.82713 0.83308 0.5653 0.0
C516 C 0.79093 0.83561 0.543 0.0
C517 C 0.68003 0.82387 0.48286 0.0
C518 C 0.71886 0.831 0.50276 0.0
H519 H 0.84366 0.81738 0.62895 0.0
H520 H 0.78637 0.8333 0.59331 0.0
H521 H 0.82137 0.79431 0.51919 0.0
H522 H 0.65215 0.81267 0.41907 0.0
H523 H 0.71185 0.83683 0.45162 0.0
C524 C 0.83132 0.72609 0.10877 0.0
C525 C 0.87518 0.72835 0.1078 0.0
C526 C 0.80165 0.70997 0.08841 0.0
C527 C 0.78826 0.70291 0.01979 0.0
H528 H 0.67818 0.65431 0.02584 0.0
C529 C 0.64709 0.70485 0.93547 0.0
C530 C 0.61029 0.7247 0.94118 0.0
C531 C 0.67976 0.68991 0.9548 0.0
C532 C 0.70885 0.66764 0.02381 0.0
H533 H 0.92285 0.71237 0.0855 0.0
H534 H 0.87085 0.68363 0.04982 0.0
H535 H 0.73742 0.65416 0.06235 0.0
H536 H 0.57737 0.74097 0.97153 0.0
H537 H 0.63427 0.71497 1.00518 0.0
H538 H 0.75932 0.71787 0.98159 0.0
C539 C 0.85938 0.69502 0.06626 0.0
C540 C 0.74279 0.66762 0.04472 0.0
C541 C 0.88921 0.71116 0.08676 0.0
C542 C 0.60537 0.72609 0.96648 0.0
C543 C 0.63795 0.71093 0.98579 0.0
C544 C 0.75444 0.70267 0.99887 0.0
C545 C 0.81506 0.69562 0.06651 0.0
C546 C 0.78239 0.68682 0.04323 0.0
C547 C 0.67621 0.69418 0.98023 0.0
C548 C 0.7139 0.68648 1.0009 0.0
H549 H 0.81949 0.73878 0.1248 0.0
H550 H 0.76787 0.71143 0.08928 0.0
H551 H 0.81802 0.71844 0.01795 0.0
H552 H 0.6518 0.70294 0.91616 0.0
H553 H 0.7086 0.67659 0.94991 0.0
C554 C 0.41038 0.30656 0.08543 0.0
C555 C 0.39363 0.28705 0.1049 0.0
C556 C 0.38277 0.32159 0.06365 0.0
C557 C 0.26516 0.33398 0.03398 0.0
H558 H 0.30464 0.29506 0.97432 0.0
C559 C 0.19412 0.23749 0.93845 0.0
C560 C 0.15431 0.25759 0.92985 0.0
C561 C 0.22485 0.25611 0.95725 0.0
C562 C 0.29306 0.30625 0.99077 0.0
H563 H 0.33474 0.27133 0.11769 0.0
H564 H 0.28722 0.29537 0.07979 0.0
H565 H 0.35564 0.30221 1.01372 0.0
H566 H 0.11598 0.31388 0.93382 0.0
H567 H 0.1703 0.34687 0.96704 0.0
H568 H 0.20174 0.33372 1.01132 0.0
C569 C 0.32137 0.30021 0.08117 0.0
C570 C 0.32256 0.31105 1.01343 0.0
C571 C 0.34884 0.28584 0.10298 0.0
C572 C 0.14635 0.29757 0.94012 0.0
C573 C 0.17738 0.31637 0.95915 0.0
C574 C 0.23548 0.32839 1.01136 0.0
C575 C 0.33787 0.31683 0.06076 0.0
C576 C 0.30871 0.32286 0.03569 0.0
C577 C 0.21693 0.2956 0.96804 0.0
C578 C 0.24884 0.31226 0.98985 0.0
H579 H 0.44477 0.30852 0.0865 0.0
H580 H 0.39674 0.33523 0.04866 0.0
H581 H 0.25344 0.34458 0.0505 0.0
H582 H 0.20151 0.20673 0.93097 0.0
H583 H 0.25435 0.23853 0.96395 0.0
loop_
_geom_bond_atom_site_label_1
_geom_bond_atom_site_label_2
_geom_bond_distance
_geom_bond_site_symmetry_2
_ccdc_geom_bond_type
Mg0 O7 2.141 1_455 S
Mg0 O8 2.048 . S
Mg0 O9 2.048 . S
Mg0 O12 2.141 . S
C1 O2 1.313 . S
C1 O8 1.195 . S
O2 C1 1.313 . S
C3 O4 1.245 . S
C3 O12 1.289 . S
O4 C3 1.245 . S
C5 O6 1.245 . S
C5 O7 1.289 . S
O6 C5 1.245 . S
O7 Mg0 2.141 1_655 S
O7 C5 1.289 . S
O8 Mg0 2.048 . S
O8 C1 1.195 . S
O9 Mg0 2.048 . S
O9 C10 1.195 . S
C10 O9 1.195 . S
C10 O11 1.313 . S
O11 C10 1.313 . S
O12 Mg0 2.141 . S
O12 C3 1.289 . S
Mg13 O20 2.141 . S
Mg13 O21 2.048 . S
Mg13 O22 2.048 . S
Mg13 O25 2.141 . S
C14 O15 1.313 . S
C14 O21 1.195 . S
O15 C14 1.313 . S
C16 O17 1.245 . S
C16 O25 1.289 . S
O17 C16 1.245 . S
C18 O19 1.245 . S
C18 O20 1.289 . S
O19 C18 1.245 . S
O20 Mg13 2.141 . S
O20 C18 1.289 . S
O21 Mg13 2.048 . S
O21 C14 1.195 . S
O22 Mg13 2.048 . S
O22 C23 1.195 . S
C23 O22 1.195 . S
C23 O24 1.313 . S
O24 C23 1.313 . S
O25 Mg13 2.141 . S
O25 C16 1.289 . S
Mg26 O33 2.141 1_655 S
Mg26 O34 2.048 . S
Mg26 O35 2.048 . S
Mg26 O38 2.141 . S
C27 O28 1.313 . S
C27 O34 1.195 . S
O28 C27 1.313 . S
C29 O30 1.245 . S
C29 O38 1.289 . S
O30 C29 1.245 . S
C31 O32 1.245 . S
C31 O33 1.289 . S
O32 C31 1.245 . S
O33 Mg26 2.141 1_455 S
O33 C31 1.289 . S
O34 Mg26 2.048 . S
O34 C27 1.195 . S
O35 Mg26 2.048 . S
O35 C36 1.195 . S
C36 O35 1.195 . S
C36 O37 1.313 . S
O37 C36 1.313 . S
O38 Mg26 2.141 . S
O38 C29 1.289 . S
Mg39 O46 2.141 . S
Mg39 O47 2.048 . S
Mg39 O48 2.048 . S
Mg39 O51 2.141 . S
C40 O41 1.313 . S
C40 O47 1.195 . S
O41 C40 1.313 . S
C42 O43 1.245 . S
C42 O51 1.289 . S
O43 C42 1.245 . S
C44 O45 1.245 . S
C44 O46 1.289 . S
O45 C44 1.245 . S
O46 Mg39 2.141 . S
O46 C44 1.289 . S
O47 Mg39 2.048 . S
O47 C40 1.195 . S
O48 Mg39 2.048 . S
O48 C49 1.195 . S
C49 O48 1.195 . S
C49 O50 1.313 . S
O50 C49 1.313 . S
O51 Mg39 2.141 . S
O51 C42 1.289 . S
Mg52 O59 2.141 . S
Mg52 O60 2.048 . S
Mg52 O61 2.048 . S
Mg52 O64 2.141 . S
C53 O54 1.313 . S
C53 O60 1.195 . S
O54 C53 1.313 . S
C55 O56 1.245 . S
C55 O64 1.289 . S
O56 C55 1.245 . S
C57 O58 1.245 . S
C57 O59 1.289 . S
O58 C57 1.245 . S
O59 Mg52 2.141 . S
O59 C57 1.289 . S
O60 Mg52 2.048 . S
O60 C53 1.195 . S
O61 Mg52 2.048 . S
O61 C62 1.195 . S
C62 O61 1.195 . S
C62 O63 1.313 . S
O63 C62 1.313 . S
O64 Mg52 2.141 . S
O64 C55 1.289 . S
Mg65 O72 2.141 1_655 S
Mg65 O73 2.048 . S
Mg65 O74 2.048 . S
Mg65 O77 2.141 . S
C66 O67 1.313 . S
C66 O73 1.195 . S
O67 C66 1.313 . S
C68 O69 1.245 . S
C68 O77 1.289 . S
O69 C68 1.245 . S
C70 O71 1.245 . S
C70 O72 1.289 . S
O71 C70 1.245 . S
O72 Mg65 2.141 1_455 S
O72 C70 1.289 . S
O73 Mg65 2.048 . S
O73 C66 1.195 . S
O74 Mg65 2.048 . S
O74 C75 1.195 . S
C75 O74 1.195 . S
C75 O76 1.313 . S
O76 C75 1.313 . S
O77 Mg65 2.141 . S
O77 C68 1.289 . S
Mg78 O85 2.141 . S
Mg78 O86 2.048 . S
Mg78 O87 2.048 . S
Mg78 O90 2.141 . S
C79 O80 1.313 . S
C79 O86 1.195 . S
O80 C79 1.313 . S
C81 O82 1.245 . S
C81 O90 1.289 . S
O82 C81 1.245 . S
C83 O84 1.245 . S
C83 O85 1.289 . S
O84 C83 1.245 . S
O85 Mg78 2.141 . S
O85 C83 1.289 . S
O86 Mg78 2.048 . S
O86 C79 1.195 . S
O87 Mg78 2.048 . S
O87 C88 1.195 . S
C88 O87 1.195 . S
C88 O89 1.313 . S
O89 C88 1.313 . S
O90 Mg78 2.141 . S
O90 C81 1.289 . S
Mg91 O98 2.141 1_455 S
Mg91 O99 2.048 . S
Mg91 O100 2.048 . S
Mg91 O103 2.141 . S
C92 O93 1.313 . S
C92 O99 1.195 . S
O93 C92 1.313 . S
C94 O95 1.245 . S
C94 O103 1.289 . S
O95 C94 1.245 . S
C96 O97 1.245 . S
C96 O98 1.289 . S
O97 C96 1.245 . S
O98 Mg91 2.141 1_655 S
O98 C96 1.289 . S
O99 Mg91 2.048 . S
O99 C92 1.195 . S
O100 Mg91 2.048 . S
O100 C101 1.195 . S
C101 O100 1.195 . S
C101 O102 1.313 . S
O102 C101 1.313 . S
O103 Mg91 2.141 . S
O103 C94 1.289 . S
C104 C105 1.349 . S
C104 C106 1.327 . S
C104 H129 0.950 . S
C105 C104 1.349 . S
C105 C121 1.349 1_655 S
C106 C104 1.327 . S
C106 C125 1.429 . S
C106 H130 0.950 . S
C107 C124 1.574 . S
C107 C126 1.364 1_455 S
C107 H131 0.949 . S
H108 C112 0.949 . S
C109 C110 1.349 . S
C109 C111 1.327 . S
C109 H132 0.950 . S
C110 C109 1.349 . S
C110 C122 1.349 1_455 S
C111 C109 1.327 . S
C111 C127 1.429 . S
C111 H133 0.950 . S
C112 H108 0.949 . S
C112 C120 1.574 . S
C112 C128 1.364 1_655 S
H113 C121 0.950 . S
H114 C119 0.950 . S
H115 C120 0.949 . S
H116 C122 0.950 . S
H117 C123 0.950 . S
H118 C124 0.949 . S
C119 H114 0.950 . S
C119 C121 1.327 . S
C119 C125 1.429 1_455 S
C120 C112 1.574 . S
C120 H115 0.949 . S
C120 C126 1.375 . S
C121 C105 1.349 1_455 S
C121 H113 0.950 . S
C121 C119 1.327 . S
C122 C110 1.349 1_655 S
C122 H116 0.950 . S
C122 C123 1.327 . S
C123 H117 0.950 . S
C123 C122 1.327 . S
C123 C127 1.429 1_655 S
C124 C107 1.574 . S
C124 H118 0.949 . S
C124 C128 1.375 . S
C125 C106 1.429 . S
C125 C119 1.429 1_655 S
C125 C126 1.521 . S
C126 C107 1.364 1_655 S
C126 C120 1.375 . S
C126 C125 1.521 . S
C127 C111 1.429 . S
C127 C123 1.429 1_455 S
C127 C128 1.521 . S
C128 C112 1.364 1_455 S
C128 C124 1.375 . S
C128 C127 1.521 . S
H129 C104 0.950 . S
H130 C106 0.950 . S
H131 C107 0.949 . S
H132 C109 0.950 . S
H133 C111 0.950 . S
C134 C135 1.349 . S
C134 C136 1.327 . S
C134 H159 0.950 . S
C135 C134 1.349 . S
C135 C151 1.349 . S
C136 C134 1.327 . S
C136 C155 1.429 . S
C136 H160 0.950 . S
C137 C154 1.574 . S
C137 C156 1.368 . S
C137 H161 0.949 . S
H138 C142 0.949 . S
C139 C140 1.349 . S
C139 C141 1.327 . S
C139 H162 0.950 . S
C140 C139 1.349 . S
C140 C152 1.349 . S
C141 C139 1.327 . S
C141 C157 1.429 . S
C141 H163 0.950 . S
C142 H138 0.949 . S
C142 C150 1.574 . S
C142 C158 1.368 . S
H143 C151 0.950 . S
H144 C149 0.950 . S
H145 C150 0.949 . S
H146 C152 0.950 . S
H147 C153 0.950 . S
H148 C154 0.949 . S
C149 H144 0.950 . S
C149 C151 1.327 . S
C149 C155 1.429 . S
C150 C142 1.574 . S
C150 H145 0.949 . S
C150 C156 1.368 . S
C151 C135 1.349 . S
C151 H143 0.950 . S
C151 C149 1.327 . S
C152 C140 1.349 . S
C152 H146 0.950 . S
C152 C153 1.327 . S
C153 H147 0.950 . S
C153 C152 1.327 . S
C153 C157 1.429 . S
C154 C137 1.574 . S
C154 H148 0.949 . S
C154 C158 1.368 . S
C155 C136 1.429 . S
C155 C149 1.429 . S
C155 C156 1.523 . S
C156 C137 1.368 . S
C156 C150 1.368 . S
C156 C155 1.523 . S
C157 C141 1.429 . S
C157 C153 1.429 . S
C157 C158 1.523 . S
C158 C142 1.368 . S
C158 C154 1.368 . S
C158 C157 1.523 . S
H159 C134 0.950 . S
H160 C136 0.950 . S
H161 C137 0.949 . S
H162 C139 0.950 . S
H163 C141 0.950 . S
C164 C165 1.349 . S
C164 C166 1.327 . S
C164 H189 0.950 . S
C165 C164 1.349 . S
C165 C181 1.349 . S
C166 C164 1.327 . S
C166 C185 1.429 . S
C166 H190 0.950 . S
C167 C184 1.574 . S
C167 C186 1.368 1_565 S
C167 H191 0.949 . S
H168 C172 0.949 . S
C169 C170 1.349 . S
C169 C171 1.327 . S
C169 H192 0.950 . S
C170 C169 1.349 . S
C170 C182 1.349 . S
C171 C169 1.327 . S
C171 C187 1.429 . S
C171 H193 0.950 . S
C172 H168 0.949 . S
C172 C180 1.574 . S
C172 C188 1.368 1_545 S
H173 C181 0.950 . S
H174 C179 0.950 . S
H175 C180 0.949 . S
H176 C182 0.950 . S
H177 C183 0.950 . S
H178 C184 0.949 . S
C179 H174 0.950 . S
C179 C181 1.327 . S
C179 C185 1.429 . S
C180 C172 1.574 . S
C180 H175 0.949 . S
C180 C186 1.368 1_556 S
C181 C165 1.349 . S
C181 H173 0.950 . S
C181 C179 1.327 . S
C182 C170 1.349 . S
C182 H176 0.950 . S
C182 C183 1.327 . S
C183 H177 0.950 . S
C183 C182 1.327 . S
C183 C187 1.429 . S
C184 C167 1.574 . S
C184 H178 0.949 . S
C184 C188 1.368 1_554 S
C185 C166 1.429 . S
C185 C179 1.429 . S
C185 C186 1.523 . S
C186 C167 1.368 1_545 S
C186 C180 1.368 1_554 S
C186 C185 1.523 . S
C187 C171 1.429 . S
C187 C183 1.429 . S
C187 C188 1.523 . S
C188 C172 1.368 1_565 S
C188 C184 1.368 1_556 S
C188 C187 1.523 . S
H189 C164 0.950 . S
H190 C166 0.950 . S
H191 C167 0.949 . S
H192 C169 0.950 . S
H193 C171 0.950 . S
C194 C195 1.349 1_655 S
C194 C196 1.327 . S
C194 H219 0.950 . S
C195 C194 1.349 1_455 S
C195 C211 1.349 . S
C196 C194 1.327 . S
C196 C215 1.429 1_655 S
C196 H220 0.950 . S
C197 C214 1.574 . S
C197 C216 1.376 1_545 S
C197 H221 0.949 . S
H198 C202 0.949 . S
C199 C200 1.349 1_455 S
C199 C201 1.327 . S
C199 H222 0.950 . S
C200 C199 1.349 1_655 S
C200 C212 1.349 . S
C201 C199 1.327 . S
C201 C217 1.429 1_455 S
C201 H223 0.950 . S
C202 H198 0.949 . S
C202 C210 1.574 . S
C202 C218 1.376 1_565 S
H203 C211 0.950 . S
H204 C209 0.950 . S
H205 C210 0.949 . S
H206 C212 0.950 . S
H207 C213 0.950 . S
H208 C214 0.949 . S
C209 H204 0.950 . S
C209 C211 1.327 . S
C209 C215 1.429 . S
C210 C202 1.574 . S
C210 H205 0.949 . S
C210 C216 1.362 1_656 S
C211 C195 1.349 . S
C211 H203 0.950 . S
C211 C209 1.327 . S
C212 C200 1.349 . S
C212 H206 0.950 . S
C212 C213 1.327 . S
C213 H207 0.950 . S
C213 C212 1.327 . S
C213 C217 1.429 . S
C214 C197 1.574 . S
C214 H208 0.949 . S
C214 C218 1.362 1_454 S
C215 C196 1.429 1_455 S
C215 C209 1.429 . S
C215 C216 1.521 . S
C216 C197 1.376 1_565 S
C216 C210 1.362 1_454 S
C216 C215 1.521 . S
C217 C201 1.429 1_655 S
C217 C213 1.429 . S
C217 C218 1.521 . S
C218 C202 1.376 1_545 S
C218 C214 1.362 1_656 S
C218 C217 1.521 . S
H219 C194 0.950 . S
H220 C196 0.950 . S
H221 C197 0.949 . S
H222 C199 0.950 . S
H223 C201 0.950 . S
C224 C225 1.349 . S
C224 C226 1.327 . S
C224 H249 0.950 . S
C225 C224 1.349 . S
C225 C241 1.349 . S
C226 C224 1.327 . S
C226 C245 1.429 . S
C226 H250 0.950 . S
C227 C244 1.574 . S
C227 C246 1.368 . S
C227 H251 0.949 . S
H228 C232 0.949 . S
C229 C230 1.349 . S
C229 C231 1.327 . S
C229 H252 0.950 . S
C230 C229 1.349 . S
C230 C242 1.349 . S
C231 C229 1.327 . S
C231 C247 1.429 . S
C231 H253 0.950 . S
C232 H228 0.949 . S
C232 C240 1.574 . S
C232 C248 1.368 . S
H233 C241 0.950 . S
H234 C239 0.950 . S
H235 C240 0.949 . S
H236 C242 0.950 . S
H237 C243 0.950 . S
H238 C244 0.949 . S
C239 H234 0.950 . S
C239 C241 1.327 . S
C239 C245 1.429 . S
C240 C232 1.574 . S
C240 H235 0.949 . S
C240 C246 1.368 . S
C241 C225 1.349 . S
C241 H233 0.950 . S
C241 C239 1.327 . S
C242 C230 1.349 . S
C242 H236 0.950 . S
C242 C243 1.327 . S
C243 H237 0.950 . S
C243 C242 1.327 . S
C243 C247 1.429 . S
C244 C227 1.574 . S
C244 H238 0.949 . S
C244 C248 1.368 . S
C245 C226 1.429 . S
C245 C239 1.429 . S
C245 C246 1.523 . S
C246 C227 1.368 . S
C246 C240 1.368 . S
C246 C245 1.523 . S
C247 C231 1.429 . S
C247 C243 1.429 . S
C247 C248 1.523 . S
C248 C232 1.368 . S
C248 C244 1.368 . S
C248 C247 1.523 . S
H249 C224 0.950 . S
H250 C226 0.950 . S
H251 C227 0.949 . S
H252 C229 0.950 . S
H253 C231 0.950 . S
C254 C255 1.349 . S
C254 C256 1.327 . S
C254 H279 0.950 . S
C255 C254 1.349 . S
C255 C271 1.349 . S
C256 C254 1.327 . S
C256 C275 1.429 . S
C256 H280 0.950 . S
C257 C274 1.574 . S
C257 C276 1.368 . S
C257 H281 0.949 . S
H258 C262 0.949 . S
C259 C260 1.349 . S
C259 C261 1.327 . S
C259 H282 0.950 . S
C260 C259 1.349 . S
C260 C272 1.349 . S
C261 C259 1.327 . S
C261 C277 1.429 . S
C261 H283 0.950 . S
C262 H258 0.949 . S
C262 C270 1.574 . S
C262 C278 1.368 . S
H263 C271 0.950 . S
H264 C269 0.950 . S
H265 C270 0.949 . S
H266 C272 0.950 . S
H267 C273 0.950 . S
H268 C274 0.949 . S
C269 H264 0.950 . S
C269 C271 1.327 . S
C269 C275 1.429 . S
C270 C262 1.574 . S
C270 H265 0.949 . S
C270 C276 1.368 . S
C271 C255 1.349 . S
C271 H263 0.950 . S
C271 C269 1.327 . S
C272 C260 1.349 . S
C272 H266 0.950 . S
C272 C273 1.327 . S
C273 H267 0.950 . S
C273 C272 1.327 . S
C273 C277 1.429 . S
C274 C257 1.574 . S
C274 H268 0.949 . S
C274 C278 1.368 . S
C275 C256 1.429 . S
C275 C269 1.429 . S
C275 C276 1.523 . S
C276 C257 1.368 . S
C276 C270 1.368 . S
C276 C275 1.523 . S
C277 C261 1.429 . S
C277 C273 1.429 . S
C277 C278 1.523 . S
C278 C262 1.368 . S
C278 C274 1.368 . S
C278 C277 1.523 . S
H279 C254 0.950 . S
H280 C256 0.950 . S
H281 C257 0.949 . S
H282 C259 0.950 . S
H283 C261 0.950 . S
C284 C285 1.349 . S
C284 C286 1.327 . S
C284 H309 0.950 . S
C285 C284 1.349 . S
C285 C301 1.349 . S
C286 C284 1.327 . S
C286 C305 1.429 . S
C286 H310 0.950 . S
C287 C304 1.574 . S
C287 C306 1.368 . S
C287 H311 0.949 . S
H288 C292 0.949 . S
C289 C290 1.349 . S
C289 C291 1.327 . S
C289 H312 0.950 . S
C290 C289 1.349 . S
C290 C302 1.349 . S
C291 C289 1.327 . S
C291 C307 1.429 . S
C291 H313 0.950 . S
C292 H288 0.949 . S
C292 C300 1.574 . S
C292 C308 1.368 . S
H293 C301 0.950 . S
H294 C299 0.950 . S
H295 C300 0.949 . S
H296 C302 0.950 . S
H297 C303 0.950 . S
H298 C304 0.949 . S
C299 H294 0.950 . S
C299 C301 1.327 . S
C299 C305 1.429 . S
C300 C292 1.574 . S
C300 H295 0.949 . S
C300 C306 1.368 . S
C301 C285 1.349 . S
C301 H293 0.950 . S
C301 C299 1.327 . S
C302 C290 1.349 . S
C302 H296 0.950 . S
C302 C303 1.327 . S
C303 H297 0.950 . S
C303 C302 1.327 . S
C303 C307 1.429 . S
C304 C287 1.574 . S
C304 H298 0.949 . S
C304 C308 1.368 . S
C305 C286 1.429 . S
C305 C299 1.429 . S
C305 C306 1.523 . S
C306 C287 1.368 . S
C306 C300 1.368 . S
C306 C305 1.523 . S
C307 C291 1.429 . S
C307 C303 1.429 . S
C307 C308 1.523 . S
C308 C292 1.368 . S
C308 C304 1.368 . S
C308 C307 1.523 . S
H309 C284 0.950 . S
H310 C286 0.950 . S
H311 C287 0.949 . S
H312 C289 0.950 . S
H313 C291 0.950 . S
C314 C315 1.349 . S
C314 C316 1.327 . S
C314 H339 0.950 . S
C315 C314 1.349 . S
C315 C331 1.349 . S
C316 C314 1.327 . S
C316 C335 1.429 . S
C316 H340 0.950 . S
C317 C334 1.574 . S
C317 C336 1.368 . S
C317 H341 0.949 . S
H318 C322 0.949 . S
C319 C320 1.349 . S
C319 C321 1.327 . S
C319 H342 0.950 . S
C320 C319 1.349 . S
C320 C332 1.349 . S
C321 C319 1.327 . S
C321 C337 1.429 . S
C321 H343 0.950 . S
C322 H318 0.949 . S
C322 C330 1.574 . S
C322 C338 1.368 . S
H323 C331 0.950 . S
H324 C329 0.950 . S
H325 C330 0.949 . S
H326 C332 0.950 . S
H327 C333 0.950 . S
H328 C334 0.949 . S
C329 H324 0.950 . S
C329 C331 1.327 . S
C329 C335 1.429 . S
C330 C322 1.574 . S
C330 H325 0.949 . S
C330 C336 1.368 . S
C331 C315 1.349 . S
C331 H323 0.950 . S
C331 C329 1.327 . S
C332 C320 1.349 . S
C332 H326 0.950 . S
C332 C333 1.327 . S
C333 H327 0.950 . S
C333 C332 1.327 . S
C333 C337 1.429 . S
C334 C317 1.574 . S
C334 H328 0.949 . S
C334 C338 1.368 . S
C335 C316 1.429 . S
C335 C329 1.429 . S
C335 C336 1.523 . S
C336 C317 1.368 . S
C336 C330 1.368 . S
C336 C335 1.523 . S
C337 C321 1.429 . S
C337 C333 1.429 . S
C337 C338 1.523 . S
C338 C322 1.368 . S
C338 C334 1.368 . S
C338 C337 1.523 . S
H339 C314 0.950 . S
H340 C316 0.950 . S
H341 C317 0.949 . S
H342 C319 0.950 . S
H343 C321 0.950 . S
C344 C345 1.349 . S
C344 C346 1.327 . S
C344 H369 0.950 . S
C345 C344 1.349 . S
C345 C361 1.349 . S
C346 C344 1.327 . S
C346 C365 1.429 . S
C346 H370 0.950 . S
C347 C364 1.574 . S
C347 C366 1.368 . S
C347 H371 0.949 . S
H348 C352 0.949 . S
C349 C350 1.349 . S
C349 C351 1.327 . S
C349 H372 0.950 . S
C350 C349 1.349 . S
C350 C362 1.349 . S
C351 C349 1.327 . S
C351 C367 1.429 . S
C351 H373 0.950 . S
C352 H348 0.949 . S
C352 C360 1.574 . S
C352 C368 1.368 . S
H353 C361 0.950 . S
H354 C359 0.950 . S
H355 C360 0.949 . S
H356 C362 0.950 . S
H357 C363 0.950 . S
H358 C364 0.949 . S
C359 H354 0.950 . S
C359 C361 1.327 . S
C359 C365 1.429 . S
C360 C352 1.574 . S
C360 H355 0.949 . S
C360 C366 1.368 . S
C361 C345 1.349 . S
C361 H353 0.950 . S
C361 C359 1.327 . S
C362 C350 1.349 . S
C362 H356 0.950 . S
C362 C363 1.327 . S
C363 H357 0.950 . S
C363 C362 1.327 . S
C363 C367 1.429 . S
C364 C347 1.574 . S
C364 H358 0.949 . S
C364 C368 1.368 . S
C365 C346 1.429 . S
C365 C359 1.429 . S
C365 C366 1.523 . S
C366 C347 1.368 . S
C366 C360 1.368 . S
C366 C365 1.523 . S
C367 C351 1.429 . S
C367 C363 1.429 . S
C367 C368 1.523 . S
C368 C352 1.368 . S
C368 C364 1.368 . S
C368 C367 1.523 . S
H369 C344 0.950 . S
H370 C346 0.950 . S
H371 C347 0.949 . S
H372 C349 0.950 . S
H373 C351 0.950 . S
C374 C375 1.349 . S
C374 C376 1.327 . S
C374 H399 0.950 . S
C375 C374 1.349 . S
C375 C391 1.349 . S
C376 C374 1.327 . S
C376 C395 1.429 . S
C376 H400 0.950 . S
C377 C394 1.574 . S
C377 C396 1.368 . S
C377 H401 0.949 . S
H378 C382 0.949 . S
C379 C380 1.349 . S
C379 C381 1.327 . S
C379 H402 0.950 . S
C380 C379 1.349 . S
C380 C392 1.349 . S
C381 C379 1.327 . S
C381 C397 1.429 . S
C381 H403 0.950 . S
C382 H378 0.949 . S
C382 C390 1.574 . S
C382 C398 1.368 . S
H383 C391 0.950 . S
H384 C389 0.950 . S
H385 C390 0.949 . S
H386 C392 0.950 . S
H387 C393 0.950 . S
H388 C394 0.949 . S
C389 H384 0.950 . S
C389 C391 1.327 . S
C389 C395 1.429 . S
C390 C382 1.574 . S
C390 H385 0.949 . S
C390 C396 1.368 . S
C391 C375 1.349 . S
C391 H383 0.950 . S
C391 C389 1.327 . S
C392 C380 1.349 . S
C392 H386 0.950 . S
C392 C393 1.327 . S
C393 H387 0.950 . S
C393 C392 1.327 . S
C393 C397 1.429 . S
C394 C377 1.574 . S
C394 H388 0.949 . S
C394 C398 1.368 . S
C395 C376 1.429 . S
C395 C389 1.429 . S
C395 C396 1.523 . S
C396 C377 1.368 . S
C396 C390 1.368 . S
C396 C395 1.523 . S
C397 C381 1.429 . S
C397 C393 1.429 . S
C397 C398 1.523 . S
C398 C382 1.368 . S
C398 C394 1.368 . S
C398 C397 1.523 . S
H399 C374 0.950 . S
H400 C376 0.950 . S
H401 C377 0.949 . S
H402 C379 0.950 . S
H403 C381 0.950 . S
C404 C405 1.349 . S
C404 C406 1.327 . S
C404 H429 0.950 . S
C405 C404 1.349 . S
C405 C421 1.349 . S
C406 C404 1.327 . S
C406 C425 1.429 . S
C406 H430 0.950 . S
C407 C424 1.574 . S
C407 C426 1.368 . S
C407 H431 0.949 . S
H408 C412 0.949 . S
C409 C410 1.349 . S
C409 C411 1.327 . S
C409 H432 0.950 . S
C410 C409 1.349 . S
C410 C422 1.349 . S
C411 C409 1.327 . S
C411 C427 1.429 . S
C411 H433 0.950 . S
C412 H408 0.949 . S
C412 C420 1.574 . S
C412 C428 1.368 . S
H413 C421 0.950 . S
H414 C419 0.950 . S
H415 C420 0.949 . S
H416 C422 0.950 . S
H417 C423 0.950 . S
H418 C424 0.949 . S
C419 H414 0.950 . S
C419 C421 1.327 . S
C419 C425 1.429 . S
C420 C412 1.574 . S
C420 H415 0.949 . S
C420 C426 1.368 . S
C421 C405 1.349 . S
C421 H413 0.950 . S
C421 C419 1.327 . S
C422 C410 1.349 . S
C422 H416 0.950 . S
C422 C423 1.327 . S
C423 H417 0.950 . S
C423 C422 1.327 . S
C423 C427 1.429 . S
C424 C407 1.574 . S
C424 H418 0.949 . S
C424 C428 1.368 . S
C425 C406 1.429 . S
C425 C419 1.429 . S
C425 C426 1.523 . S
C426 C407 1.368 . S
C426 C420 1.368 . S
C426 C425 1.523 . S
C427 C411 1.429 . S
C427 C423 1.429 . S
C427 C428 1.523 . S
C428 C412 1.368 . S
C428 C424 1.368 . S
C428 C427 1.523 . S
H429 C404 0.950 . S
H430 C406 0.950 . S
H431 C407 0.949 . S
H432 C409 0.950 . S
H433 C411 0.950 . S
C434 C435 1.349 . S
C434 C436 1.327 . S
C434 H459 0.950 . S
C435 C434 1.349 . S
C435 C451 1.349 . S
C436 C434 1.327 . S
C436 C455 1.429 . S
C436 H460 0.950 . S
C437 C454 1.574 . S
C437 C456 1.368 . S
C437 H461 0.949 . S
H438 C442 0.949 . S
C439 C440 1.349 . S
C439 C441 1.327 . S
C439 H462 0.950 . S
C440 C439 1.349 . S
C440 C452 1.349 . S
C441 C439 1.327 . S
C441 C457 1.429 . S
C441 H463 0.950 . S
C442 H438 0.949 . S
C442 C450 1.574 . S
C442 C458 1.368 . S
H443 C451 0.950 . S
H444 C449 0.950 . S
H445 C450 0.949 . S
H446 C452 0.950 . S
H447 C453 0.950 . S
H448 C454 0.949 . S
C449 H444 0.950 . S
C449 C451 1.327 . S
C449 C455 1.429 . S
C450 C442 1.574 . S
C450 H445 0.949 . S
C450 C456 1.368 . S
C451 C435 1.349 . S
C451 H443 0.950 . S
C451 C449 1.327 . S
C452 C440 1.349 . S
C452 H446 0.950 . S
C452 C453 1.327 . S
C453 H447 0.950 . S
C453 C452 1.327 . S
C453 C457 1.429 . S
C454 C437 1.574 . S
C454 H448 0.949 . S
C454 C458 1.368 . S
C455 C436 1.429 . S
C455 C449 1.429 . S
C455 C456 1.523 . S
C456 C437 1.368 . S
C456 C450 1.368 . S
C456 C455 1.523 . S
C457 C441 1.429 . S
C457 C453 1.429 . S
C457 C458 1.523 . S
C458 C442 1.368 . S
C458 C454 1.368 . S
C458 C457 1.523 . S
H459 C434 0.950 . S
H460 C436 0.950 . S
H461 C437 0.949 . S
H462 C439 0.950 . S
H463 C441 0.950 . S
C464 C465 1.349 . S
C464 C466 1.327 . S
C464 H489 0.950 . S
C465 C464 1.349 . S
C465 C481 1.349 . S
C466 C464 1.327 . S
C466 C485 1.429 . S
C466 H490 0.950 . S
C467 C484 1.574 . S
C467 C486 1.368 . S
C467 H491 0.949 . S
H468 C472 0.949 . S
C469 C470 1.349 . S
C469 C471 1.327 . S
C469 H492 0.950 . S
C470 C469 1.349 . S
C470 C482 1.349 . S
C471 C469 1.327 . S
C471 C487 1.429 . S
C471 H493 0.950 . S
C472 H468 0.949 . S
C472 C480 1.574 . S
C472 C488 1.368 . S
H473 C481 0.950 . S
H474 C479 0.950 . S
H475 C480 0.949 . S
H476 C482 0.950 . S
H477 C483 0.950 . S
H478 C484 0.949 . S
C479 H474 0.950 . S
C479 C481 1.327 . S
C479 C485 1.429 . S
C480 C472 1.574 . S
C480 H475 0.949 . S
C480 C486 1.368 . S
C481 C465 1.349 . S
C481 H473 0.950 . S
C481 C479 1.327 . S
C482 C470 1.349 . S
C482 H476 0.950 . S
C482 C483 1.327 . S
C483 H477 0.950 . S
C483 C482 1.327 . S
C483 C487 1.429 . S
C484 C467 1.574 . S
C484 H478 0.949 . S
C484 C488 1.368 . S
C485 C466 1.429 . S
C485 C479 1.429 . S
C485 C486 1.523 . S
C486 C467 1.368 . S
C486 C480 1.368 . S
C486 C485 1.523 . S
C487 C471 1.429 . S
C487 C483 1.429 . S
C487 C488 1.523 . S
C488 C472 1.368 . S
C488 C484 1.368 . S
C488 C487 1.523 . S
H489 C464 0.950 . S
H490 C466 0.950 . S
H491 C467 0.949 . S
H492 C469 0.950 . S
H493 C471 0.950 . S
C494 C495 1.349 . S
C494 C496 1.327 . S
C494 H519 0.950 . S
C495 C494 1.349 . S
C495 C511 1.349 . S
C496 C494 1.327 . S
C496 C515 1.429 . S
C496 H520 0.950 . S
C497 C514 1.574 . S
C497 C516 1.368 . S
C497 H521 0.949 . S
H498 C502 0.949 . S
C499 C500 1.349 . S
C499 C501 1.327 . S
C499 H522 0.950 . S
C500 C499 1.349 . S
C500 C512 1.349 . S
C501 C499 1.327 . S
C501 C517 1.429 . S
C501 H523 0.950 . S
C502 H498 0.949 . S
C502 C510 1.574 . S
C502 C518 1.368 . S
H503 C511 0.950 . S
H504 C509 0.950 . S
H505 C510 0.949 . S
H506 C512 0.950 . S
H507 C513 0.950 . S
H508 C514 0.949 . S
C509 H504 0.950 . S
C509 C511 1.327 . S
C509 C515 1.429 . S
C510 C502 1.574 . S
C510 H505 0.949 . S
C510 C516 1.368 . S
C511 C495 1.349 . S
C511 H503 0.950 . S
C511 C509 1.327 . S
C512 C500 1.349 . S
C512 H506 0.950 . S
C512 C513 1.327 . S
C513 H507 0.950 . S
C513 C512 1.327 . S
C513 C517 1.429 . S
C514 C497 1.574 . S
C514 H508 0.949 . S
C514 C518 1.368 . S
C515 C496 1.429 . S
C515 C509 1.429 . S
C515 C516 1.523 . S
C516 C497 1.368 . S
C516 C510 1.368 . S
C516 C515 1.523 . S
C517 C501 1.429 . S
C517 C513 1.429 . S
C517 C518 1.523 . S
C518 C502 1.368 . S
C518 C514 1.368 . S
C518 C517 1.523 . S
H519 C494 0.950 . S
H520 C496 0.950 . S
H521 C497 0.949 . S
H522 C499 0.950 . S
H523 C501 0.950 . S
C524 C525 1.349 . S
C524 C526 1.327 . S
C524 H549 0.950 . S
C525 C524 1.349 . S
C525 C541 1.349 . S
C526 C524 1.327 . S
C526 C545 1.429 . S
C526 H550 0.950 . S
C527 C544 1.574 1_554 S
C527 C546 1.368 . S
C527 H551 0.949 . S
H528 C532 0.949 . S
C529 C530 1.349 . S
C529 C531 1.327 . S
C529 H552 0.950 . S
C530 C529 1.349 . S
C530 C542 1.349 . S
C531 C529 1.327 . S
C531 C547 1.429 . S
C531 H553 0.950 . S
C532 H528 0.949 . S
C532 C540 1.574 1_556 S
C532 C548 1.368 . S
H533 C541 0.950 . S
H534 C539 0.950 . S
H535 C540 0.949 . S
H536 C542 0.950 . S
H537 C543 0.950 . S
H538 C544 0.949 . S
C539 H534 0.950 . S
C539 C541 1.327 . S
C539 C545 1.429 . S
C540 C532 1.574 1_554 S
C540 H535 0.949 . S
C540 C546 1.368 . S
C541 C525 1.349 . S
C541 H533 0.950 . S
C541 C539 1.327 . S
C542 C530 1.349 . S
C542 H536 0.950 . S
C542 C543 1.327 . S
C543 H537 0.950 . S
C543 C542 1.327 . S
C543 C547 1.429 . S
C544 C527 1.574 1_556 S
C544 H538 0.949 . S
C544 C548 1.368 . S
C545 C526 1.429 . S
C545 C539 1.429 . S
C545 C546 1.523 . S
C546 C527 1.368 . S
C546 C540 1.368 . S
C546 C545 1.523 . S
C547 C531 1.429 . S
C547 C543 1.429 . S
C547 C548 1.523 . S
C548 C532 1.368 . S
C548 C544 1.368 . S
C548 C547 1.523 . S
H549 C524 0.950 . S
H550 C526 0.950 . S
H551 C527 0.949 . S
H552 C529 0.950 . S
H553 C531 0.950 . S
C554 C555 1.349 . S
C554 C556 1.327 . S
C554 H579 0.950 . S
C555 C554 1.349 . S
C555 C571 1.349 . S
C556 C554 1.327 . S
C556 C575 1.429 . S
C556 H580 0.950 . S
C557 C574 1.574 1_554 S
C557 C576 1.368 . S
C557 H581 0.949 . S
H558 C562 0.949 . S
C559 C560 1.349 . S
C559 C561 1.327 . S
C559 H582 0.950 . S
C560 C559 1.349 . S
C560 C572 1.349 . S
C561 C559 1.327 . S
C561 C577 1.429 . S
C561 H583 0.950 . S
C562 H558 0.949 . S
C562 C570 1.574 1_556 S
C562 C578 1.368 . S
H563 C571 0.950 . S
H564 C569 0.950 . S
H565 C570 0.949 . S
H566 C572 0.950 . S
H567 C573 0.950 . S
H568 C574 0.949 . S
C569 H564 0.950 . S
C569 C571 1.327 . S
C569 C575 1.429 . S
C570 C562 1.574 1_554 S
C570 H565 0.949 . S
C570 C576 1.368 . S
C571 C555 1.349 . S
C571 H563 0.950 . S
C571 C569 1.327 . S
C572 C560 1.349 . S
C572 H566 0.950 . S
C572 C573 1.327 . S
C573 H567 0.950 . S
C573 C572 1.327 . S
C573 C577 1.429 . S
C574 C557 1.574 1_556 S
C574 H568 0.949 . S
C574 C578 1.368 . S
C575 C556 1.429 . S
C575 C569 1.429 . S
C575 C576 1.523 . S
C576 C557 1.368 . S
C576 C570 1.368 . S
C576 C575 1.523 . S
C577 C561 1.429 . S
C577 C573 1.429 . S
C577 C578 1.523 . S
C578 C562 1.368 . S
C578 C574 1.368 . S
C578 C577 1.523 . S
H579 C554 0.950 . S
H580 C556 0.950 . S
H581 C557 0.949 . S
H582 C559 0.950 . S
H583 C561 0.950 . S
C105 C3 1.901 1_655 S
C110 C29 1.795 1_455 S
C135 C42 1.794 . S
C140 C16 1.900 . S
C165 C81 1.795 . S
C170 C55 1.901 . S
C195 C68 1.900 1_455 S
C200 C94 1.794 1_655 S
C225 C83 2.164 . S
C230 C5 2.124 . S
C255 C18 2.124 . S
C260 C96 2.164 . S
C285 C31 2.164 . S
C290 C57 2.124 . S
C315 C44 2.164 . S
C320 C70 2.124 . S
C345 C79 2.265 . S
C350 C1 2.355 . S
C375 C14 2.355 . S
C380 C92 2.265 . S
C405 C53 2.355 . S
C410 C27 2.265 . S
C435 C66 2.355 . S
C440 C40 2.265 . S
C465 C23 0.302 . S
C470 C10 0.302 . S
C495 C36 0.228 . S
C500 C49 0.228 . S
C525 C75 0.302 . S
C530 C62 0.302 . S
C555 C88 0.228 . S
C560 C101 0.228 . S
