# Generated by pormake.
# Topology loh, (5)-cn, num edge types: 1
# Building blocks:
#     Node 0, Type 0, BuildingBlock: BEQFEK_clean_sbu_0, # of connection points: 5
#     Node 1, Type 0, BuildingBlock: BEQFEK_clean_sbu_0, # of connection points: 5
#     Node 2, Type 0, BuildingBlock: BEQFEK_clean_sbu_0, # of connection points: 5
#     Node 3, Type 0, BuildingBlock: BEQFEK_clean_sbu_0, # of connection points: 5
#     Node 4, Type 0, BuildingBlock: BEQFEK_clean_sbu_0, # of connection points: 5
#     Node 5, Type 0, BuildingBlock: BEQFEK_clean_sbu_0, # of connection points: 5
#     Node 6, Type 0, BuildingBlock: BEQFEK_clean_sbu_0, # of connection points: 5
#     Node 7, Type 0, BuildingBlock: BEQFEK_clean_sbu_0, # of connection points: 5
#     Edge 8, Type (0, 0), BuildingBlock: ZUJKAS_clean_linker_0, # of connection points: 2
#     Edge 9, Type (0, 0), BuildingBlock: ZUJKAS_clean_linker_0, # of connection points: 2
#     Edge 10, Type (0, 0), BuildingBlock: ZUJKAS_clean_linker_0, # of connection points: 2
#     Edge 11, Type (0, 0), BuildingBlock: ZUJKAS_clean_linker_0, # of connection points: 2
#     Edge 12, Type (0, 0), BuildingBlock: ZUJKAS_clean_linker_0, # of connection points: 2
#     Edge 13, Type (0, 0), BuildingBlock: ZUJKAS_clean_linker_0, # of connection points: 2
#     Edge 14, Type (0, 0), BuildingBlock: ZUJKAS_clean_linker_0, # of connection points: 2
#     Edge 15, Type (0, 0), BuildingBlock: ZUJKAS_clean_linker_0, # of connection points: 2
#     Edge 16, Type (0, 0), BuildingBlock: ZUJKAS_clean_linker_0, # of connection points: 2
#     Edge 17, Type (0, 0), BuildingBlock: ZUJKAS_clean_linker_0, # of connection points: 2
#     Edge 18, Type (0, 0), BuildingBlock: ZUJKAS_clean_linker_0, # of connection points: 2
#     Edge 19, Type (0, 0), BuildingBlock: ZUJKAS_clean_linker_0, # of connection points: 2
#     Edge 20, Type (0, 0), BuildingBlock: ZUJKAS_clean_linker_0, # of connection points: 2
#     Edge 21, Type (0, 0), BuildingBlock: ZUJKAS_clean_linker_0, # of connection points: 2
#     Edge 22, Type (0, 0), BuildingBlock: ZUJKAS_clean_linker_0, # of connection points: 2
#     Edge 23, Type (0, 0), BuildingBlock: ZUJKAS_clean_linker_0, # of connection points: 2
#     Edge 24, Type (0, 0), BuildingBlock: ZUJKAS_clean_linker_0, # of connection points: 2
#     Edge 25, Type (0, 0), BuildingBlock: ZUJKAS_clean_linker_0, # of connection points: 2
#     Edge 26, Type (0, 0), BuildingBlock: ZUJKAS_clean_linker_0, # of connection points: 2
#     Edge 27, Type (0, 0), BuildingBlock: ZUJKAS_clean_linker_0, # of connection points: 2
# Relax obj value: 0.176
# Max RMSD: 0.140
# Mean RMSD: 0.140
data_MOF--net-loh--node1-BEQFEK_clean_sbu_0--edge1-ZUJKAS_clean_linker_0
_symmetry_space_group_name_H-M    P1
_symmetry_Int_Tables_number       1
_symmetry_cell_setting            triclinic
loop_
_symmetry_equiv_pos_as_xyz
'x, y, z'
_cell_length_a     28.254627
_cell_length_b     35.345792
_cell_length_c     55.47268
_cell_angle_alpha  89.99029
_cell_angle_beta   89.949407
_cell_angle_gamma 89.910658
loop_
_atom_site_label
_atom_site_type_symbol
_atom_site_fract_x
_atom_site_fract_y
_atom_site_fract_z
_atom_type_partial_charge
Co0 Co 0.01935 0.34705 0.12365 0.0
Co1 Co 0.04745 0.26798 0.145 0.0
C2 C 0.96278 0.2765 0.11327 0.0
O3 O 0.9725 0.31138 0.11162 0.0
O4 O 0.98832 0.25438 0.12601 0.0
C5 C 0.94967 0.40198 0.11568 0.0
O6 O 0.92352 0.37631 0.12643 0.0
C7 C 0.0423 0.19751 0.17429 0.0
C8 C 0.11798 0.18332 0.17822 0.0
C9 C 0.07302 0.17085 0.18437 0.0
N10 N 0.06811 0.22401 0.16275 0.0
N11 N 0.1133 0.21521 0.16517 0.0
C12 C 0.98966 0.19955 0.17675 0.0
H13 H 0.97721 0.22906 0.17406 0.0
H14 H 0.97838 0.18924 0.19476 0.0
H15 H 0.97316 0.18148 0.16274 0.0
C16 C 0.02559 0.37026 0.17401 0.0
N17 N 0.02658 0.3432 0.15702 0.0
N18 N 0.03801 0.31049 0.16679 0.0
C19 C 0.04456 0.31609 0.19075 0.0
C20 C 0.03673 0.35421 0.19601 0.0
C21 C 0.01621 0.41121 0.16894 0.0
H22 H 0.03759 0.42047 0.15324 0.0
H23 H 0.9783 0.41486 0.16435 0.0
H24 H 0.02435 0.42943 0.18467 0.0
O25 O 0.07975 0.33769 0.10708 0.0
O26 O 0.09912 0.28063 0.12079 0.0
H27 H 0.09503 0.27431 0.20149 0.0
H28 H 0.06537 0.2977 0.22638 0.0
C29 C 0.06091 0.28621 0.2079 0.0
H30 H 0.03471 0.26289 0.20825 0.0
H31 H 0.14102 0.2311 0.15798 0.0
O32 O 0.99408 0.3967 0.11396 0.0
C33 C 0.10745 0.30924 0.10729 0.0
Co34 Co 0.54628 0.68699 0.62384 0.0
Co35 Co 0.52343 0.76635 0.64619 0.0
C36 C 0.60502 0.75665 0.6129 0.0
O37 O 0.5929 0.72226 0.61108 0.0
O38 O 0.58215 0.77924 0.6266 0.0
C39 C 0.61463 0.63152 0.61494 0.0
O40 O 0.64118 0.65626 0.62629 0.0
C41 C 0.53022 0.83711 0.67536 0.0
C42 C 0.45467 0.84941 0.68184 0.0
C43 C 0.4998 0.86293 0.68654 0.0
N44 N 0.50404 0.81006 0.6646 0.0
N45 N 0.45894 0.81776 0.66854 0.0
C46 C 0.58311 0.8364 0.67611 0.0
H47 H 0.59638 0.80725 0.67291 0.0
H48 H 0.59614 0.84686 0.69375 0.0
H49 H 0.59714 0.85499 0.66166 0.0
C50 C 0.54543 0.66331 0.67421 0.0
N51 N 0.54195 0.6904 0.65733 0.0
N52 N 0.53297 0.72324 0.66756 0.0
C53 C 0.53059 0.71769 0.69173 0.0
C54 C 0.53895 0.67948 0.69667 0.0
C55 C 0.5515 0.6221 0.66872 0.0
H56 H 0.53165 0.61463 0.65217 0.0
H57 H 0.58957 0.61607 0.66566 0.0
H58 H 0.53881 0.60414 0.6838 0.0
O59 O 0.48514 0.69734 0.60861 0.0
O60 O 0.47044 0.75529 0.62231 0.0
H61 H 0.48572 0.7611 0.70578 0.0
H62 H 0.5212 0.73727 0.72839 0.0
C63 C 0.52077 0.74828 0.70965 0.0
H64 H 0.54778 0.77082 0.70777 0.0
H65 H 0.43099 0.80122 0.66225 0.0
O66 O 0.57036 0.63752 0.61324 0.0
C67 C 0.45944 0.72692 0.60912 0.0
Co68 Co 0.02576 0.68594 0.91711 0.0
Co69 Co 0.04815 0.76548 0.89488 0.0
C70 C 0.96688 0.75564 0.92826 0.0
O71 O 0.97937 0.72131 0.93004 0.0
O72 O 0.98937 0.77831 0.91449 0.0
C73 C 0.95687 0.6312 0.92537 0.0
O74 O 0.93121 0.65654 0.91397 0.0
C75 C 0.04085 0.83638 0.86592 0.0
C76 C 0.11626 0.84872 0.85921 0.0
C77 C 0.07101 0.86227 0.8547 0.0
N78 N 0.06727 0.80926 0.87652 0.0
N79 N 0.11229 0.81697 0.87244 0.0
C80 C 0.98795 0.83567 0.86535 0.0
H81 H 0.97486 0.80644 0.8683 0.0
H82 H 0.97462 0.84658 0.84786 0.0
H83 H 0.97404 0.85388 0.88003 0.0
C84 C 0.02646 0.66266 0.86666 0.0
N85 N 0.0298 0.68964 0.88361 0.0
N86 N 0.03866 0.72254 0.87344 0.0
C87 C 0.04119 0.71712 0.84926 0.0
C88 C 0.03298 0.67897 0.84426 0.0
C89 C 0.02042 0.62139 0.87199 0.0
H90 H 0.04031 0.61371 0.8885 0.0
H91 H 0.98236 0.61543 0.87505 0.0
H92 H 0.03303 0.60355 0.85681 0.0
O93 O 0.08704 0.69604 0.93222 0.0
O94 O 0.10135 0.7541 0.9186 0.0
H95 H 0.08634 0.76047 0.83552 0.0
H96 H 0.05156 0.73662 0.81268 0.0
C97 C 0.05144 0.7477 0.83141 0.0
H98 H 0.02432 0.77026 0.83308 0.0
H99 H 0.14038 0.80038 0.87858 0.0
O100 O 1.0012 0.63648 0.92748 0.0
C101 C 0.11262 0.72564 0.9317 0.0
Co102 Co 0.5469 0.3461 0.41576 0.0
Co103 Co 0.52333 0.26589 0.395 0.0
C104 C 0.60677 0.27706 0.42684 0.0
O105 O 0.59455 0.31149 0.42835 0.0
O106 O 0.58331 0.25399 0.41379 0.0
C107 C 0.6149 0.40229 0.42317 0.0
O108 O 0.64158 0.37712 0.41221 0.0
C109 C 0.52954 0.19455 0.36647 0.0
C110 C 0.454 0.17969 0.36312 0.0
C111 C 0.49902 0.16728 0.35693 0.0
N112 N 0.50352 0.22127 0.37773 0.0
N113 N 0.45843 0.21209 0.37564 0.0
C114 C 0.58212 0.19684 0.36384 0.0
H115 H 0.59423 0.22647 0.36628 0.0
H116 H 0.59332 0.18631 0.34587 0.0
H117 H 0.59901 0.17913 0.37794 0.0
C118 C 0.54077 0.36812 0.36521 0.0
N119 N 0.54038 0.34142 0.38243 0.0
N120 N 0.53093 0.3082 0.37286 0.0
C121 C 0.52523 0.31308 0.34878 0.0
C122 C 0.53143 0.35129 0.34326 0.0
C123 C 0.54832 0.40939 0.36998 0.0
H124 H 0.52691 0.4183 0.38576 0.0
H125 H 0.58615 0.41417 0.37427 0.0
H126 H 0.53891 0.42712 0.35419 0.0
O127 O 0.48673 0.33609 0.43216 0.0
O128 O 0.47164 0.27767 0.4195 0.0
H129 H 0.47785 0.26938 0.33771 0.0
H130 H 0.50755 0.29324 0.31304 0.0
C131 C 0.5116 0.28231 0.33169 0.0
H132 H 0.53911 0.2599 0.33195 0.0
H133 H 0.4306 0.22801 0.38274 0.0
O134 O 0.57072 0.39621 0.42515 0.0
C135 C 0.4612 0.30647 0.43246 0.0
Co136 Co 0.52631 0.84725 0.12533 0.0
Co137 Co 0.54787 0.76703 0.14715 0.0
C138 C 0.46755 0.77845 0.11304 0.0
O139 O 0.47963 0.81289 0.11177 0.0
O140 O 0.4901 0.75545 0.12657 0.0
C141 C 0.45874 0.90333 0.1172 0.0
O142 O 0.43223 0.87842 0.12844 0.0
C143 C 0.53939 0.69549 0.17616 0.0
C144 C 0.6148 0.68107 0.18094 0.0
C145 C 0.56957 0.66842 0.18633 0.0
N146 N 0.56585 0.72252 0.16543 0.0
N147 N 0.61086 0.71361 0.16851 0.0
C148 C 0.48645 0.69499 0.17569 0.0
H149 H 0.47257 0.71415 0.16162 0.0
H150 H 0.47274 0.70493 0.19333 0.0
H151 H 0.47335 0.66583 0.1725 0.0
C152 C 0.52626 0.86963 0.1759 0.0
N153 N 0.52963 0.84287 0.15881 0.0
N154 N 0.53804 0.80975 0.16879 0.0
C155 C 0.54013 0.81477 0.19302 0.0
C156 C 0.53214 0.85293 0.19824 0.0
C157 C 0.52131 0.91106 0.17076 0.0
H158 H 0.54148 0.91856 0.1543 0.0
H159 H 0.48342 0.9178 0.16775 0.0
H160 H 0.53438 0.92847 0.186 0.0
O161 O 0.58772 0.83668 0.11042 0.0
O162 O 0.60187 0.77842 0.12381 0.0
H163 H 0.58446 0.77071 0.20664 0.0
H164 H 0.54945 0.79448 0.22951 0.0
C165 C 0.54963 0.78379 0.2107 0.0
H166 H 0.52227 0.76155 0.20872 0.0
H167 H 0.63901 0.72963 0.16189 0.0
O168 O 0.50293 0.89717 0.11519 0.0
C169 C 0.61329 0.80701 0.11087 0.0
Co170 Co 0.0464 0.18608 0.62485 0.0
Co171 Co 0.02337 0.26565 0.64678 0.0
C172 C 0.10578 0.25546 0.61411 0.0
O173 O 0.09337 0.22115 0.61226 0.0
O174 O 0.08282 0.2782 0.62768 0.0
C175 C 0.11484 0.13048 0.61655 0.0
O176 O 0.1412 0.15531 0.62792 0.0
C177 C 0.03009 0.33653 0.67572 0.0
C178 C 0.95455 0.34933 0.68181 0.0
C179 C 0.99972 0.36262 0.68665 0.0
N180 N 1.00386 0.30955 0.66493 0.0
N181 N 0.95876 0.31753 0.66864 0.0
C182 C 0.08296 0.33551 0.67672 0.0
H183 H 0.09598 0.30619 0.67393 0.0
H184 H 0.0958 0.34641 0.69429 0.0
H185 H 0.09743 0.35358 0.66211 0.0
C186 C 0.04437 0.16284 0.67529 0.0
N187 N 0.04135 0.18978 0.65829 0.0
N188 N 0.0321 0.22271 0.66835 0.0
C189 C 0.02897 0.21735 0.69252 0.0
C190 C 0.03718 0.1792 0.69762 0.0
C191 C 0.05095 0.12159 0.67006 0.0
H192 H 0.03121 0.11373 0.65354 0.0
H193 H 0.08909 0.11583 0.66703 0.0
H194 H 0.03853 0.10374 0.68526 0.0
O195 O 0.98566 0.19642 0.60923 0.0
O196 O 0.97099 0.25461 0.62253 0.0
H197 H 0.98359 0.261 0.70582 0.0
H198 H 0.01735 0.2369 0.72899 0.0
C199 C 0.01825 0.24798 0.71028 0.0
H200 H 0.04558 0.27036 0.70887 0.0
H201 H 0.93078 0.3011 0.66229 0.0
O202 O 0.07062 0.13648 0.6146 0.0
C203 C 0.96014 0.22612 0.6094 0.0
Co204 Co 0.52247 0.18803 0.91657 0.0
Co205 Co 0.54688 0.26693 0.89411 0.0
C206 C 0.4648 0.2583 0.92734 0.0
O207 O 0.47624 0.22376 0.92927 0.0
O208 O 0.48823 0.28047 0.91363 0.0
C209 C 0.45365 0.13305 0.92569 0.0
O210 O 0.427 0.15804 0.91457 0.0
C211 C 0.54028 0.33775 0.86509 0.0
C212 C 0.61583 0.35044 0.85912 0.0
C213 C 0.57068 0.36398 0.85433 0.0
N214 N 0.56649 0.31054 0.87573 0.0
N215 N 0.61159 0.31842 0.87205 0.0
C216 C 0.4874 0.33687 0.86419 0.0
H217 H 0.47303 0.35496 0.87882 0.0
H218 H 0.47439 0.30758 0.86701 0.0
H219 H 0.47445 0.34776 0.84662 0.0
C220 C 0.52337 0.1641 0.86628 0.0
N221 N 0.52695 0.19128 0.88307 0.0
N222 N 0.5368 0.22389 0.87278 0.0
C223 C 0.53972 0.21808 0.84864 0.0
C224 C 0.53072 0.17996 0.8438 0.0
C225 C 0.51673 0.12298 0.8719 0.0
H226 H 0.5366 0.11542 0.88844 0.0
H227 H 0.4786 0.11744 0.87506 0.0
H228 H 0.52906 0.10473 0.85687 0.0
O229 O 0.58378 0.1977 0.93174 0.0
O230 O 0.59985 0.25534 0.91797 0.0
H231 H 0.58612 0.26063 0.83495 0.0
H232 H 0.55126 0.23702 0.81203 0.0
C233 C 0.55102 0.24829 0.8307 0.0
H234 H 0.52439 0.27126 0.83213 0.0
H235 H 0.63957 0.30187 0.87839 0.0
O236 O 0.49797 0.13878 0.9272 0.0
C237 C 0.61021 0.2268 0.93118 0.0
Co238 Co 0.04435 0.84874 0.41577 0.0
Co239 Co 0.02314 0.76865 0.3938 0.0
C240 C 0.10347 0.77988 0.42788 0.0
O241 O 0.09103 0.81425 0.42924 0.0
O242 O 0.08116 0.7569 0.41427 0.0
C243 C 0.11201 0.90446 0.42404 0.0
O244 O 0.13837 0.87954 0.41265 0.0
C245 C 0.03175 0.69754 0.36438 0.0
C246 C 0.95641 0.68264 0.36017 0.0
C247 C 1.00165 0.67039 0.35435 0.0
N248 N 1.00524 0.72426 0.37545 0.0
N249 N 0.96027 0.71506 0.37271 0.0
C250 C 0.0847 0.69736 0.36446 0.0
H251 H 0.09871 0.71644 0.37854 0.0
H252 H 0.09779 0.7076 0.34677 0.0
H253 H 0.09827 0.66824 0.3674 0.0
C254 C 0.04465 0.87137 0.36522 0.0
N255 N 0.04118 0.84455 0.38227 0.0
N256 N 0.03278 0.81149 0.37222 0.0
C257 C 0.03067 0.81666 0.348 0.0
C258 C 0.03871 0.85481 0.34287 0.0
C259 C 0.05026 0.91273 0.37036 0.0
H260 H 0.02984 0.92054 0.3867 0.0
H261 H 0.0882 0.9189 0.37362 0.0
H262 H 0.03798 0.93032 0.35501 0.0
O263 O 0.98293 0.83817 0.43063 0.0
O264 O 0.96901 0.77999 0.41712 0.0
H265 H 0.98673 0.77216 0.33476 0.0
H266 H 0.01949 0.79703 0.31153 0.0
C267 C 0.02087 0.78591 0.33023 0.0
H268 H 0.04901 0.76411 0.33153 0.0
H269 H 0.93209 0.7308 0.37963 0.0
O270 O 0.06779 0.89852 0.42603 0.0
C271 C 0.95744 0.80853 0.4301 0.0
H272 H 0.39699 0.21503 0.94815 0.0
H273 H 0.33879 0.23336 0.97822 0.0
H274 H 0.3831 0.34958 0.97239 0.0
H275 H 0.4427 0.33133 0.94191 0.0
H276 H 0.37391 0.2841 0.02458 0.0
H277 H 0.22365 0.33345 0.96758 0.0
H278 H 0.26305 0.2969 0.95675 0.0
H279 H 0.28419 0.34441 0.95971 0.0
C280 C 0.39429 0.24467 0.95292 0.0
C281 C 0.42493 0.27171 0.94267 0.0
C282 C 0.36087 0.25502 0.97019 0.0
C283 C 0.35689 0.29268 0.97762 0.0
C284 C 0.38579 0.32029 0.96683 0.0
H285 H 0.13996 0.36779 0.07962 0.0
H286 H 0.20327 0.36685 0.04971 0.0
C287 C 0.41958 0.30989 0.94936 0.0
C288 C 0.32392 0.30185 0.99761 0.0
H289 H 0.20883 0.32522 1.00906 0.0
C290 C 0.33799 0.29368 0.0213 0.0
C291 C 0.27719 0.31414 0.99321 0.0
C292 C 0.26068 0.32285 0.96798 0.0
C293 C 0.30617 0.29677 0.04072 0.0
C294 C 0.25864 0.30742 0.03622 0.0
C295 C 0.24511 0.31683 1.01255 0.0
C296 C 0.22211 0.30826 0.05563 0.0
C297 C 0.32384 0.28857 0.06584 0.0
C298 C 0.21151 0.27563 0.06911 0.0
C299 C 0.17533 0.27609 0.08645 0.0
C300 C 0.14856 0.3091 0.09045 0.0
C301 C 0.15969 0.34181 0.07708 0.0
C302 C 0.19592 0.34135 0.05988 0.0
H303 H 0.36277 0.29247 0.06716 0.0
H304 H 0.30639 0.30712 0.07934 0.0
H305 H 0.31587 0.25871 0.07046 0.0
H306 H 0.23042 0.24947 0.06582 0.0
H307 H 0.16753 0.25031 0.09623 0.0
H308 H 0.4159 0.66832 0.58592 0.0
H309 H 0.355 0.67179 0.55471 0.0
H310 H 0.34926 0.79297 0.56269 0.0
H311 H 0.41019 0.78986 0.59415 0.0
H312 H 0.25809 0.70871 0.55572 0.0
H313 H 0.38513 0.76899 0.48948 0.0
H314 H 0.40413 0.74375 0.5161 0.0
H315 H 0.38288 0.79146 0.51857 0.0
C316 C 0.40136 0.69575 0.58129 0.0
C317 C 0.41824 0.72889 0.59248 0.0
C318 C 0.36648 0.6976 0.56344 0.0
C319 C 0.34806 0.73262 0.5562 0.0
C320 C 0.36338 0.76566 0.56791 0.0
H321 H 0.16738 0.82539 0.44984 0.0
H322 H 0.22658 0.80876 0.47954 0.0
C323 C 0.39801 0.76382 0.58597 0.0
C324 C 0.31447 0.73471 0.53565 0.0
H325 H 0.30504 0.76552 0.47752 0.0
C326 C 0.26827 0.72088 0.53854 0.0
C327 C 0.32814 0.75023 0.51323 0.0
C328 C 0.37784 0.76425 0.50893 0.0
C329 C 0.23463 0.72383 0.5199 0.0
C330 C 0.24801 0.74017 0.49758 0.0
C331 C 0.29477 0.75284 0.49455 0.0
C332 C 0.21303 0.74859 0.47821 0.0
C333 C 0.18456 0.71105 0.52464 0.0
C334 C 0.18612 0.72015 0.46689 0.0
C335 C 0.15152 0.72965 0.44966 0.0
C336 C 0.14346 0.76774 0.44352 0.0
C337 C 0.17206 0.79574 0.4542 0.0
C338 C 0.20622 0.7863 0.47125 0.0
H339 H 0.17791 0.7061 0.54413 0.0
H340 H 0.15878 0.73236 0.51799 0.0
H341 H 0.17802 0.68414 0.51491 0.0
H342 H 0.19146 0.69072 0.47158 0.0
H343 H 0.13023 0.70744 0.44175 0.0
H344 H 0.40237 0.82346 0.09144 0.0
H345 H 0.34509 0.80662 0.06068 0.0
H346 H 0.38522 0.68934 0.06685 0.0
H347 H 0.44381 0.70608 0.09803 0.0
H348 H 0.37429 0.7665 1.01551 0.0
H349 H 0.23363 0.69432 0.06885 0.0
H350 H 0.27376 0.72777 0.08253 0.0
H351 H 0.29469 0.68181 0.074 0.0
C352 C 0.39893 0.7939 0.08658 0.0
C353 C 0.42812 0.76611 0.09715 0.0
C354 C 0.36605 0.7844 0.0689 0.0
C355 C 0.36104 0.74684 0.06139 0.0
C356 C 0.38848 0.71854 0.07251 0.0
H357 H 0.15561 0.66697 0.95519 0.0
H358 H 0.21915 0.6699 0.98489 0.0
C359 C 0.42179 0.72809 0.09035 0.0
C360 C 0.32875 0.73847 0.04097 0.0
H361 H 0.21903 0.70412 0.02762 0.0
C362 C 0.34052 0.75248 1.01805 0.0
C363 C 0.28487 0.72018 0.04436 0.0
C364 C 0.27052 0.70517 0.06873 0.0
C365 C 0.30927 0.74916 0.99847 0.0
C366 C 0.26439 0.73229 1.00204 0.0
C367 C 0.25326 0.71726 0.02485 0.0
C368 C 0.22804 0.73056 0.98259 0.0
C369 C 0.32491 0.7636 0.97414 0.0
C370 C 0.21191 0.76368 0.97112 0.0
C371 C 0.17577 0.76207 0.95383 0.0
C372 C 0.15441 0.72736 0.94796 0.0
C373 C 0.17112 0.69423 0.95925 0.0
C374 C 0.20745 0.69583 0.97633 0.0
H375 H 0.36412 0.76406 0.97261 0.0
H376 H 0.31047 0.74596 0.95931 0.0
H377 H 0.31201 0.79303 0.97174 0.0
H378 H 0.22632 0.79098 0.97602 0.0
H379 H 0.16346 0.78816 0.94572 0.0
H380 H 0.41916 0.36571 0.45591 0.0
H381 H 0.35897 0.36314 0.48757 0.0
H382 H 0.35188 0.24193 0.48023 0.0
H383 H 0.41206 0.24412 0.44832 0.0
H384 H 0.26152 0.32665 0.48698 0.0
H385 H 0.38879 0.26685 0.55328 0.0
H386 H 0.40769 0.29174 0.52651 0.0
H387 H 0.3864 0.24407 0.52429 0.0
C388 C 0.40451 0.33846 0.4608 0.0
C389 C 0.42074 0.30505 0.44963 0.0
C390 C 0.37003 0.33712 0.47891 0.0
C391 C 0.3514 0.30236 0.48642 0.0
C392 C 0.36618 0.26904 0.4748 0.0
H393 H 0.17128 0.21035 0.59291 0.0
H394 H 0.23096 0.2272 0.5635 0.0
C395 C 0.40039 0.27037 0.45649 0.0
C396 C 0.31797 0.30079 0.50708 0.0
H397 H 0.30871 0.27059 0.56535 0.0
C398 C 0.27176 0.31467 0.5042 0.0
C399 C 0.33172 0.28551 0.52955 0.0
C400 C 0.38143 0.27139 0.53382 0.0
C401 C 0.23814 0.31194 0.52289 0.0
C402 C 0.25156 0.29576 0.54526 0.0
C403 C 0.29839 0.28314 0.5483 0.0
C404 C 0.21654 0.28729 0.56463 0.0
C405 C 0.18802 0.32467 0.51813 0.0
C406 C 0.18902 0.31562 0.57578 0.0
C407 C 0.15411 0.30596 0.59283 0.0
C408 C 0.14638 0.26784 0.59896 0.0
C409 C 0.1757 0.24 0.58854 0.0
C410 C 0.21014 0.24958 0.57166 0.0
H411 H 0.18139 0.32949 0.49863 0.0
H412 H 0.16231 0.3034 0.52484 0.0
H413 H 0.18135 0.35165 0.52778 0.0
H414 H 0.19403 0.34506 0.57105 0.0
H415 H 0.13225 0.32807 0.60054 0.0
H416 H 0.65809 0.86594 0.08864 0.0
H417 H 0.71858 0.86293 0.05716 0.0
H418 H 0.72209 0.74143 0.06328 0.0
H419 H 0.66153 0.74408 0.09501 0.0
H420 H 0.81469 0.82499 0.05693 0.0
H421 H 0.6852 0.76847 0.99071 0.0
H422 H 0.66722 0.79284 1.01785 0.0
H423 H 0.68779 0.74484 1.01942 0.0
C424 C 0.6721 0.83853 0.08356 0.0
C425 C 0.65465 0.80519 0.09429 0.0
C426 C 0.70674 0.83693 0.06555 0.0
C427 C 0.72435 0.80198 0.05769 0.0
C428 C 0.70858 0.7687 0.06898 0.0
H429 H 0.90114 0.71066 0.94921 0.0
H430 H 0.84226 0.72729 0.97912 0.0
C431 C 0.67418 0.77028 0.08721 0.0
C432 C 0.75746 0.80027 0.03689 0.0
H433 H 0.76507 0.77152 0.97826 0.0
C434 C 0.80393 0.81354 0.03965 0.0
C435 C 0.74303 0.78574 1.01434 0.0
C436 C 0.69302 0.77237 1.01017 0.0
C437 C 0.83711 0.81092 0.02075 0.0
C438 C 0.82298 0.79552 0.99829 0.0
C439 C 0.77593 0.78348 0.99539 0.0
C440 C 0.85745 0.78724 0.97861 0.0
C441 C 0.88749 0.82298 0.02535 0.0
C442 C 0.88508 0.8156 0.96762 0.0
C443 C 0.9195 0.80607 0.95026 0.0
C444 C 0.92664 0.76805 0.94368 0.0
C445 C 0.89717 0.74023 0.95394 0.0
C446 C 0.8632 0.74969 0.97111 0.0
H447 H 0.89464 0.82715 0.04487 0.0
H448 H 0.91278 0.80164 1.01824 0.0
H449 H 0.89429 0.85017 1.01598 0.0
H450 H 0.88054 0.84495 0.97271 0.0
H451 H 0.94151 0.82815 0.9427 0.0
H452 H 0.91641 0.16733 0.58653 0.0
H453 H 0.85627 0.1705 0.55492 0.0
H454 H 0.852 0.29191 0.56159 0.0
H455 H 0.91215 0.2891 0.59347 0.0
H456 H 0.75949 0.20924 0.55531 0.0
H457 H 0.88923 0.26461 0.48864 0.0
H458 H 0.90714 0.23966 0.51557 0.0
H459 H 0.88729 0.2878 0.51751 0.0
C460 C 0.90235 0.19475 0.58152 0.0
C461 C 0.91939 0.22802 0.59248 0.0
C462 C 0.86791 0.19644 0.56345 0.0
C463 C 0.85011 0.23142 0.55574 0.0
C464 C 0.86562 0.26462 0.56719 0.0
H465 H 0.67356 0.32221 0.44677 0.0
H466 H 0.73272 0.30596 0.4766 0.0
C467 C 0.8998 0.26296 0.58548 0.0
C468 C 0.81694 0.23324 0.53502 0.0
H469 H 0.80942 0.26143 0.47628 0.0
C470 C 0.77031 0.22041 0.53795 0.0
C471 C 0.83142 0.24748 0.51239 0.0
C472 C 0.88157 0.26048 0.50811 0.0
C473 C 0.73708 0.2231 0.5191 0.0
C474 C 0.75131 0.23808 0.49653 0.0
C475 C 0.79848 0.24977 0.49348 0.0
C476 C 0.71691 0.24611 0.47681 0.0
C477 C 0.68656 0.21154 0.5239 0.0
C478 C 0.6889 0.21765 0.46622 0.0
C479 C 0.65432 0.22696 0.44893 0.0
C480 C 0.64743 0.26485 0.44199 0.0
C481 C 0.67736 0.29274 0.45178 0.0
C482 C 0.71148 0.2835 0.46891 0.0
H483 H 0.67939 0.20798 0.54347 0.0
H484 H 0.66149 0.23284 0.51657 0.0
H485 H 0.67945 0.18413 0.51487 0.0
H486 H 0.69319 0.18841 0.4716 0.0
H487 H 0.63196 0.20483 0.44173 0.0
H488 H 0.94973 0.20579 0.09301 0.0
H489 H 0.89118 0.18922 0.06174 0.0
H490 H 0.82871 0.30005 0.06808 0.0
H491 H 0.88616 0.31667 0.09898 0.0
H492 H 0.77217 0.20873 0.06358 0.0
H493 H 0.88751 0.2751 0.994 0.0
H494 H 0.91158 0.25245 0.02054 0.0
H495 H 0.88277 0.29748 0.02311 0.0
C496 C 0.92269 0.22616 0.08817 0.0
C497 C 0.92279 0.26259 0.09838 0.0
C498 C 0.88953 0.21678 0.07023 0.0
C499 C 0.85607 0.24365 0.06248 0.0
C500 C 0.85442 0.27906 0.0737 0.0
H501 H 0.66051 0.28876 0.94676 0.0
H502 H 0.72197 0.29019 0.97797 0.0
C503 C 0.88734 0.28843 0.09141 0.0
C504 C 0.82441 0.23641 0.04168 0.0
H505 H 0.80992 0.25882 0.9822 0.0
C506 C 0.78057 0.21903 0.04566 0.0
C507 C 0.83527 0.25065 1.01851 0.0
C508 C 0.88188 0.2699 1.01355 0.0
C509 C 0.74668 0.21634 0.02716 0.0
C510 C 0.75739 0.23079 1.00391 0.0
C511 C 0.80169 0.24765 0.99993 0.0
C512 C 0.7226 0.2296 0.98373 0.0
C513 C 0.69894 0.19957 0.03303 0.0
C514 C 0.70369 0.19503 0.97592 0.0
C515 C 0.66842 0.19419 0.95827 0.0
C516 C 0.65169 0.22786 0.94767 0.0
C517 C 0.67253 0.26233 0.95453 0.0
C518 C 0.70759 0.26317 0.97242 0.0
H519 H 0.69198 0.19948 0.05275 0.0
H520 H 0.67006 0.21544 0.02396 0.0
H521 H 0.69789 0.16982 0.02668 0.0
H522 H 0.71567 0.16866 0.98377 0.0
H523 H 0.65366 0.16706 0.95321 0.0
H524 H 0.67275 0.71246 0.59274 0.0
H525 H 0.72972 0.72925 0.56175 0.0
H526 H 0.6851 0.84573 0.56564 0.0
H527 H 0.62676 0.82899 0.59703 0.0
H528 H 0.69725 0.76793 0.51568 0.0
H529 H 0.8382 0.84256 0.56728 0.0
H530 H 0.79993 0.80825 0.58151 0.0
H531 H 0.77688 0.8536 0.57311 0.0
C532 C 0.67522 0.74186 0.58736 0.0
C533 C 0.64478 0.76938 0.59731 0.0
C534 C 0.70791 0.75133 0.56956 0.0
C535 C 0.71145 0.7886 0.56129 0.0
C536 C 0.68292 0.81675 0.57187 0.0
H537 H 0.91385 0.86736 0.45313 0.0
H538 H 0.85083 0.8646 0.48315 0.0
C539 C 0.64981 0.80722 0.58985 0.0
C540 C 0.74317 0.79671 0.54056 0.0
H541 H 0.85238 0.83116 0.52615 0.0
C542 C 0.73098 0.78215 0.51785 0.0
C543 C 0.787 0.81523 0.54348 0.0
C544 C 0.80175 0.83083 0.56762 0.0
C545 C 0.76176 0.78516 0.49802 0.0
C546 C 0.80662 0.80229 0.50113 0.0
C547 C 0.81817 0.81784 0.52373 0.0
C548 C 0.84248 0.80385 0.48139 0.0
C549 C 0.74567 0.77014 0.47393 0.0
C550 C 0.8587 0.77062 0.47006 0.0
C551 C 0.89457 0.77212 0.45258 0.0
C552 C 0.91556 0.80684 0.44636 0.0
C553 C 0.89864 0.84008 0.45746 0.0
C554 C 0.8626 0.83858 0.47473 0.0
H555 H 0.70644 0.7694 0.47269 0.0
H556 H 0.75958 0.78756 0.45886 0.0
H557 H 0.75881 0.74075 0.47168 0.0
H558 H 0.84463 0.74333 0.47525 0.0
H559 H 0.90706 0.74596 0.44463 0.0
H560 H 0.11235 0.39667 0.20868 0.0
H561 H 0.11438 0.44583 0.2399 0.0
H562 H 0.97573 0.41177 0.26406 0.0
H563 H 0.9739 0.36252 0.23281 0.0
H564 H 0.04636 0.50407 0.2397 0.0
H565 H 0.04747 0.42998 0.3279 0.0
H566 H 0.06551 0.40724 0.3002 0.0
H567 H 1.00377 0.41344 0.30689 0.0
C568 C 0.08327 0.39872 0.22136 0.0
C569 C 0.04338 0.37544 0.21875 0.0
C570 C 0.08422 0.427 0.23903 0.0
C571 C 0.04536 0.43241 0.25448 0.0
C572 C 1.00653 0.40772 0.25271 0.0
H573 H 0.94847 0.60633 0.35264 0.0
H574 H 0.96172 0.54914 0.3289 0.0
C575 C 1.00553 0.37948 0.23494 0.0
C576 C 0.04301 0.46656 0.2702 0.0
H577 H 0.03074 0.49598 0.32859 0.0
C578 C 0.04345 0.50233 0.25917 0.0
C579 C 0.03869 0.46428 0.29556 0.0
C580 C 0.0392 0.42671 0.30844 0.0
C581 C 0.03846 0.53579 0.27266 0.0
C582 C 0.0342 0.53362 0.29808 0.0
C583 C 0.0342 0.49778 0.30915 0.0
C584 C 0.02779 0.56807 0.31335 0.0
C585 C 0.03588 0.57302 0.25938 0.0
C586 C 0.06078 0.59781 0.31289 0.0
C587 C 0.05298 0.63093 0.32627 0.0
C588 C 0.01246 0.63479 0.34086 0.0
C589 C 0.98009 0.60453 0.34165 0.0
C590 C 0.98773 0.5716 0.32815 0.0
H591 H 0.02643 0.56903 0.24011 0.0
H592 H 0.00944 0.59224 0.26773 0.0
H593 H 0.071 0.58698 0.26005 0.0
H594 H 0.09239 0.59564 0.30193 0.0
H595 H 0.0781 0.65373 0.32446 0.0
H596 H 0.46843 0.67011 0.73015 0.0
H597 H 0.46741 0.62355 0.76322 0.0
H598 H 0.61169 0.593 0.74663 0.0
H599 H 0.61285 0.63965 0.71419 0.0
H600 H 0.47744 0.54781 0.75741 0.0
H601 H 0.61797 0.59695 0.81883 0.0
H602 H 0.59278 0.62714 0.79591 0.0
H603 H 0.63934 0.59424 0.78845 0.0
C604 C 0.50037 0.65442 0.73428 0.0
C605 C 0.54094 0.65875 0.7199 0.0
C606 C 0.49967 0.62757 0.75298 0.0
C607 C 0.53968 0.60494 0.7577 0.0
C608 C 0.58077 0.61061 0.74389 0.0
H609 H 0.62505 0.39593 0.81944 0.0
H610 H 0.6126 0.45546 0.79803 0.0
C611 C 0.58142 0.63727 0.72529 0.0
C612 C 0.53758 0.57278 0.77513 0.0
H613 H 0.59979 0.53004 0.82048 0.0
C614 C 0.50356 0.54432 0.77156 0.0
C615 C 0.5716 0.56806 0.79364 0.0
C616 C 0.60713 0.59846 0.7996 0.0
C617 C 0.50439 0.51049 0.78499 0.0
C618 C 0.54001 0.50501 0.80255 0.0
C619 C 0.57273 0.5341 0.80685 0.0
C620 C 0.54606 0.46837 0.81545 0.0
C621 C 0.46868 0.48001 0.77951 0.0
C622 C 0.5128 0.45575 0.83248 0.0
C623 C 0.51994 0.42159 0.84494 0.0
C624 C 0.56034 0.39925 0.84045 0.0
C625 C 0.59341 0.41217 0.82333 0.0
C626 C 0.58639 0.44627 0.81104 0.0
H627 H 0.44739 0.48657 0.76321 0.0
H628 H 0.48677 0.45241 0.77683 0.0
H629 H 0.4442 0.47694 0.79504 0.0
H630 H 0.48184 0.4727 0.83652 0.0
H631 H 0.49456 0.41357 0.85858 0.0
H632 H 0.94764 0.3917 0.7234 0.0
H633 H 0.96071 0.44994 0.74603 0.0
H634 H 0.0881 0.47083 0.70536 0.0
H635 H 0.07435 0.4131 0.68198 0.0
H636 H 0.03589 0.47009 0.77497 0.0
H637 H 0.01687 0.57119 0.69874 0.0
H638 H 0.99906 0.52228 0.69651 0.0
H639 H 0.06057 0.53471 0.69476 0.0
C640 C 0.9785 0.40862 0.71921 0.0
C641 C 0.01028 0.39723 0.70105 0.0
C642 C 0.98597 0.44195 0.73223 0.0
C643 C 0.02514 0.46507 0.72731 0.0
C644 C 0.05727 0.45376 0.70932 0.0
H645 H 0.10604 0.66558 0.81293 0.0
H646 H 0.10804 0.61607 0.78161 0.0
C647 C 0.0498 0.42026 0.69623 0.0
C648 C 0.03206 0.50056 0.74142 0.0
H649 H 0.03335 0.59727 0.73706 0.0
C650 C 0.03572 0.49783 0.76661 0.0
C651 C 0.0318 0.53689 0.73056 0.0
C652 C 0.0265 0.5417 0.70368 0.0
C653 C 0.03829 0.53024 0.7812 0.0
C654 C 0.03685 0.56647 0.77042 0.0
C655 C 0.03456 0.56941 0.74523 0.0
C656 C 0.03421 0.60115 0.7855 0.0
C657 C 0.04153 0.52567 0.8082 0.0
C658 C 0.9917 0.6101 0.79727 0.0
C659 C 0.99051 0.63829 0.81493 0.0
C660 C 0.03175 0.65818 0.82108 0.0
C661 C 0.07361 0.65112 0.80814 0.0
C662 C 0.07483 0.62272 0.79041 0.0
H663 H 0.04984 0.49609 0.8135 0.0
H664 H 0.06911 0.5447 0.81567 0.0
H665 H 1.00719 0.53372 0.81649 0.0
H666 H 0.96003 0.59375 0.79379 0.0
H667 H 0.95804 0.64286 0.82493 0.0
H668 H 0.45517 0.39152 0.32853 0.0
H669 H 0.45419 0.44061 0.29725 0.0
H670 H 0.59615 0.4096 0.2765 0.0
H671 H 0.59698 0.36047 0.30784 0.0
H672 H 0.52129 0.50011 0.2995 0.0
H673 H 0.52895 0.42716 0.21095 0.0
H674 H 0.50856 0.40401 0.23809 0.0
H675 H 0.57077 0.41074 0.23303 0.0
C676 C 0.48527 0.39415 0.31654 0.0
C677 C 0.52578 0.37182 0.32018 0.0
C678 C 0.48491 0.42241 0.29885 0.0
C679 C 0.52497 0.42871 0.28439 0.0
C680 C 0.56449 0.40485 0.28709 0.0
H681 H 0.62399 0.60492 0.18849 0.0
H682 H 0.61072 0.54731 0.21178 0.0
C683 C 0.56491 0.37666 0.3049 0.0
C684 C 0.52767 0.46308 0.26889 0.0
H685 H 0.54343 0.49341 0.21092 0.0
C686 C 0.52564 0.49868 0.28008 0.0
C687 C 0.53392 0.46118 0.24362 0.0
C688 C 0.53533 0.42377 0.2306 0.0
C689 C 0.53087 0.53237 0.26686 0.0
C690 C 0.53693 0.5306 0.24152 0.0
C691 C 0.53856 0.49492 0.23029 0.0
C692 C 0.54349 0.56534 0.22654 0.0
C693 C 0.53175 0.56942 0.28039 0.0
C694 C 0.50989 0.59473 0.2267 0.0
C695 C 0.51772 0.62812 0.21361 0.0
C696 C 0.55886 0.63258 0.19957 0.0
C697 C 0.59187 0.60266 0.19906 0.0
C698 C 0.58423 0.56949 0.2123 0.0
H699 H 0.54023 0.56525 0.29977 0.0
H700 H 0.55815 0.58914 0.27255 0.0
H701 H 0.49633 0.5829 0.27931 0.0
H702 H 0.47776 0.59209 0.23721 0.0
H703 H 0.49207 0.65063 0.21523 0.0
H704 H 0.45862 0.89286 0.21615 0.0
H705 H 0.46076 0.93976 0.24851 0.0
H706 H 0.60462 0.90773 0.26478 0.0
H707 H 0.60267 0.86102 0.23182 0.0
H708 H 0.4776 0.93946 0.29722 0.0
H709 H 0.61802 0.01974 0.24897 0.0
H710 H 0.58667 0.981 0.23514 0.0
H711 H 0.63257 0.97179 0.25677 0.0
C712 C 0.49026 0.89516 0.22708 0.0
C713 C 0.53043 0.87334 0.22159 0.0
C714 C 0.49157 0.92209 0.2455 0.0
C715 C 0.53318 0.92798 0.25878 0.0
C716 C 0.57242 0.90431 0.25445 0.0
H717 H 0.5779 0.12004 0.3586 0.0
H718 H 0.59022 0.06089 0.33647 0.0
C719 C 0.5711 0.87723 0.2359 0.0
C720 C 0.53557 0.9605 0.2759 0.0
H721 H 0.58727 0.04708 0.28427 0.0
C722 C 0.50198 0.96276 0.29453 0.0
C723 C 0.56729 0.99109 0.27241 0.0
C724 C 0.60299 0.99115 0.25216 0.0
C725 C 0.49847 0.99497 0.30932 0.0
C726 C 0.52898 0.02604 0.30526 0.0
C727 C 0.56389 0.02324 0.28734 0.0
C728 C 0.52269 0.06263 0.3182 0.0
C729 C 0.46158 0.99574 0.32899 0.0
C730 C 0.48115 0.08377 0.31489 0.0
C731 C 0.47437 0.11792 0.32714 0.0
C732 C 0.50906 0.13205 0.34295 0.0
C733 C 0.55098 0.11097 0.34606 0.0
C734 C 0.55788 0.07676 0.33363 0.0
H735 H 0.45009 0.96675 0.33405 0.0
H736 H 0.47519 1.01028 0.34532 0.0
H737 H 0.43006 1.01148 0.32251 0.0
H738 H 0.45382 0.07379 0.30278 0.0
H739 H 0.44166 0.13327 0.32421 0.0
H740 H 0.12218 0.89102 0.81755 0.0
H741 H 0.10886 0.94937 0.79503 0.0
H742 H 0.98275 0.97104 0.83663 0.0
H743 H 0.99677 0.91318 0.85989 0.0
H744 H 0.03314 0.97028 0.76664 0.0
H745 H 0.05495 0.07079 0.84294 0.0
H746 H 0.0724 0.02174 0.84495 0.0
H747 H 0.01105 0.03465 0.84715 0.0
C748 C 0.09154 0.90813 0.82197 0.0
C749 C 0.06021 0.89692 0.84036 0.0
C750 C 0.08392 0.94152 0.80901 0.0
C751 C 0.04505 0.9649 0.81423 0.0
C752 C 0.01335 0.95376 0.83244 0.0
H753 H 0.96325 0.16494 0.72819 0.0
H754 H 0.96111 0.11536 0.75947 0.0
C755 C 0.02096 0.9202 0.84546 0.0
C756 C 0.03804 1.00052 0.80023 0.0
H757 H 0.03762 0.09721 0.8048 0.0
C758 C 0.03372 0.99797 0.77506 0.0
C759 C 0.03888 0.03679 0.81116 0.0
C760 C 0.04494 0.04141 0.83801 0.0
C761 C 0.03103 0.03049 0.76055 0.0
C762 C 0.03294 0.06664 0.7714 0.0
C763 C 0.03598 0.06942 0.79658 0.0
C764 C 0.03542 0.10139 0.75638 0.0
C765 C 0.02723 0.02615 0.73356 0.0
C766 C 0.07819 0.11085 0.74505 0.0
C767 C 0.07945 0.13908 0.72741 0.0
C768 C 0.03801 0.15849 0.72084 0.0
C769 C 0.99581 0.15088 0.73333 0.0
C770 C 0.99452 0.12244 0.75102 0.0
H771 H 0.01965 0.99651 0.72817 0.0
H772 H 0.99889 0.04481 0.72638 0.0
H773 H 0.06107 0.03492 0.72506 0.0
H774 H 0.11007 0.09486 0.74886 0.0
H775 H 0.11219 0.14402 0.71774 0.0
H776 H 0.57413 0.91382 0.68214 0.0
H777 H 0.58785 0.97105 0.7061 0.0
H778 H 0.46037 0.94918 0.74645 0.0
H779 H 0.44733 0.89154 0.7233 0.0
H780 H 0.53109 0.03548 0.71172 0.0
H781 H 0.55699 0.96482 0.79975 0.0
H782 H 0.559 0.93935 0.77156 0.0
H783 H 0.50303 0.95058 0.78538 0.0
C784 C 0.54973 0.92053 0.69655 0.0
C785 C 0.51027 0.89733 0.70118 0.0
C786 C 0.5573 0.95364 0.71003 0.0
C787 C 0.52567 0.96413 0.72844 0.0
C788 C 0.48595 0.94132 0.73278 0.0
H789 H 0.4567 0.14176 0.82513 0.0
H790 H 0.45954 0.09259 0.79408 0.0
C791 C 0.47838 0.90839 0.71937 0.0
C792 C 0.53307 0.99919 0.74291 0.0
H793 H 0.53885 0.03112 0.80101 0.0
C794 C 0.53358 0.03452 0.73121 0.0
C795 C 0.53666 0.99804 0.76837 0.0
C796 C 0.5394 0.96114 0.78199 0.0
C797 C 0.53515 0.06861 0.74441 0.0
C798 C 0.53626 0.06729 0.76985 0.0
C799 C 0.53759 0.03205 0.78147 0.0
C800 C 0.53303 0.10186 0.78503 0.0
C801 C 0.53373 0.10591 0.73128 0.0
C802 C 0.57305 0.12431 0.78967 0.0
C803 C 0.57138 0.15269 0.80742 0.0
C804 C 0.52971 0.15879 0.82072 0.0
C805 C 0.48904 0.1379 0.8149 0.0
C806 C 0.49071 0.10967 0.79729 0.0
H807 H 0.53167 0.10225 0.71142 0.0
H808 H 0.50268 0.12263 0.73743 0.0
H809 H 0.56595 0.12247 0.73566 0.0
H810 H 0.60618 0.11848 0.78056 0.0
H811 H 0.60342 0.16792 0.81191 0.0
H812 H 0.12859 0.1401 0.21918 0.0
H813 H 0.11614 0.0821 0.24215 0.0
H814 H 0.98294 0.0648 0.20598 0.0
H815 H 0.99602 0.12219 0.18219 0.0
H816 H 0.04497 0.0639 0.27363 0.0
H817 H 0.04745 0.96248 0.19705 0.0
H818 H 0.06686 1.01088 0.194 0.0
H819 H 1.00478 1.00003 0.19469 0.0
C820 C 0.09659 0.12401 0.21603 0.0
C821 C 0.06301 0.13635 0.19902 0.0
C822 C 0.08949 0.09081 0.22925 0.0
C823 C 0.04883 0.06874 0.22568 0.0
C824 C 0.01494 0.081 0.20885 0.0
H825 H 0.96608 0.86913 0.31152 0.0
H826 H 0.96517 0.91887 0.28034 0.0
C827 C 0.02206 0.11435 0.19555 0.0
C828 C 0.04216 0.03344 0.24006 0.0
H829 H 0.03398 0.93693 0.23588 0.0
C830 C 0.04231 0.03621 0.26532 0.0
C831 C 0.0386 0.99718 0.22927 0.0
C832 C 0.03977 0.99221 0.20228 0.0
C833 C 0.03972 1.0039 0.28002 0.0
C834 C 0.03733 0.96768 0.26926 0.0
C835 C 0.03582 0.96476 0.24405 0.0
C836 C 0.03928 0.93283 0.28426 0.0
C837 C 0.04019 1.00863 0.30706 0.0
C838 C 0.08161 0.92313 0.29594 0.0
C839 C 0.08218 0.89476 0.31349 0.0
C840 C 0.04051 0.8754 0.31962 0.0
C841 C 0.99883 0.88315 0.30673 0.0
C842 C 0.99823 0.91171 0.2891 0.0
H843 H 0.03288 0.03831 0.31253 0.0
H844 H 0.01357 0.98984 0.31563 0.0
H845 H 0.07555 1.00054 0.31409 0.0
H846 H 0.11365 0.93902 0.29246 0.0
H847 H 0.11453 0.88969 0.32347 0.0
H848 H 0.99692 0.5673 0.94364 0.0
H849 H 0.96359 0.52623 0.97466 0.0
H850 H 0.83212 0.58824 0.97184 0.0
H851 H 0.8651 0.62936 0.94055 0.0
H852 H 0.8782 0.58721 1.01755 0.0
H853 H 0.86111 0.44294 0.98004 0.0
H854 H 0.91599 0.46495 0.97176 0.0
H855 H 0.86103 0.48489 0.96135 0.0
C856 C 0.96044 0.57145 0.94908 0.0
C857 C 0.93372 0.60162 0.93984 0.0
C858 C 0.94132 0.54783 0.96668 0.0
C859 C 0.89531 0.55412 0.97536 0.0
C860 C 0.86752 0.5828 0.96515 0.0
H861 H 0.85895 0.4041 0.099 0.0
H862 H 0.82811 0.44581 0.06745 0.0
C863 C 0.88643 0.60617 0.94727 0.0
C864 C 0.88016 0.53485 0.99763 0.0
H865 H 0.87801 0.44718 0.02296 0.0
C866 C 0.87654 0.5566 1.01872 0.0
C867 C 0.87743 0.49505 0.99904 0.0
C868 C 0.87861 0.47061 0.97678 0.0
C869 C 0.87537 0.53934 0.04145 0.0
C870 C 0.87799 0.49954 0.04292 0.0
C871 C 0.87642 0.47779 0.02176 0.0
C872 C 0.8912 0.48022 0.0655 0.0
C873 C 0.87437 0.56378 0.06371 0.0
C874 C 0.93636 0.48652 0.07519 0.0
C875 C 0.95429 0.46257 0.09293 0.0
C876 C 0.92719 0.43204 0.10131 0.0
C877 C 0.88054 0.42755 0.09295 0.0
C878 C 0.86285 0.45127 0.07492 0.0
H879 H 0.85697 0.5914 0.06004 0.0
H880 H 0.85554 0.54947 0.07873 0.0
H881 H 0.91122 0.56954 0.06955 0.0
H882 H 0.95909 0.50833 0.06782 0.0
H883 H 0.99028 0.46667 0.09911 0.0
H884 H 0.70713 0.62634 0.60084 0.0
H885 H 0.73858 0.58611 0.56859 0.0
H886 H 0.60316 0.53084 0.56247 0.0
H887 H 0.57149 0.57071 0.59457 0.0
H888 H 0.68846 0.48239 0.5569 0.0
H889 H 0.68491 0.61213 0.49952 0.0
H890 H 0.71716 0.61269 0.52751 0.0
H891 H 0.65378 0.6103 0.52791 0.0
C892 C 0.68448 0.60484 0.59311 0.0
C893 C 0.63662 0.60197 0.59993 0.0
C894 C 0.70249 0.58206 0.57465 0.0
C895 C 0.67292 0.55604 0.56304 0.0
C896 C 0.62643 0.55091 0.57126 0.0
H897 H 0.57125 0.46347 0.44301 0.0
H898 H 0.60291 0.50435 0.47451 0.0
C899 C 0.60834 0.57376 0.58953 0.0
C900 C 0.68729 0.53742 0.54042 0.0
H901 H 0.68683 0.55362 0.47981 0.0
C902 C 0.68985 0.49785 0.54002 0.0
C903 C 0.68883 0.55798 0.51856 0.0
C904 C 0.68594 0.60063 0.51816 0.0
C905 C 0.68984 0.47804 0.51814 0.0
C906 C 0.68738 0.49857 0.49627 0.0
C907 C 0.68893 0.53818 0.49667 0.0
C908 C 0.67307 0.47971 0.47375 0.0
C909 C 0.68798 0.43536 0.51858 0.0
C910 C 0.70287 0.45373 0.46216 0.0
C911 C 0.68485 0.43034 0.44406 0.0
C912 C 0.63678 0.43258 0.43756 0.0
C913 C 0.60827 0.46087 0.44782 0.0
C914 C 0.62635 0.48431 0.46575 0.0
H915 H 0.68727 0.42389 0.53723 0.0
H916 H 0.65606 0.42523 0.50888 0.0
H917 H 0.7195 0.42369 0.50921 0.0
H918 H 0.73914 0.4501 0.46803 0.0
H919 H 0.70771 0.40883 0.4364 0.0
H920 H 0.36151 0.12834 0.94043 0.0
H921 H 0.33071 0.0879 0.97271 0.0
H922 H 0.46583 0.03149 0.97743 0.0
H923 H 0.49684 0.07156 0.94531 0.0
H924 H 0.38042 0.98365 0.98371 0.0
H925 H 0.38706 0.11306 0.04129 0.0
H926 H 0.35372 0.11399 1.01364 0.0
H927 H 0.41705 0.11119 1.01258 0.0
C928 C 0.3842 0.10655 0.94786 0.0
C929 C 0.43183 0.10341 0.94066 0.0
C930 C 0.36656 0.08364 0.96633 0.0
C931 C 0.39628 0.05724 0.97757 0.0
C932 C 0.44245 0.05184 0.96894 0.0
H933 H 0.50217 0.96379 0.09645 0.0
H934 H 0.46961 1.00459 0.06509 0.0
C935 C 0.46017 0.07481 0.95066 0.0
C936 C 0.38257 0.03859 1.00027 0.0
H937 H 0.38564 0.05447 0.0609 0.0
C938 C 0.3798 0.99903 1.00063 0.0
C939 C 0.38205 0.05905 0.02219 0.0
C940 C 0.38522 0.10167 0.02265 0.0
C941 C 0.38061 0.97911 0.02247 0.0
C942 C 0.38412 0.99952 0.04433 0.0
C943 C 0.38275 0.03913 0.04403 0.0
C944 C 0.39931 0.98048 0.06666 0.0
C945 C 0.38218 0.93642 0.02194 0.0
C946 C 0.36979 0.95478 0.07862 0.0
C947 C 0.38832 0.93144 0.09664 0.0
C948 C 0.43663 0.93344 0.10269 0.0
C949 C 0.46497 0.96138 0.092 0.0
C950 C 0.44638 0.98478 0.07415 0.0
H951 H 0.38189 0.92503 1.00327 0.0
H952 H 0.41453 0.92606 0.03121 0.0
H953 H 0.35109 0.92491 0.03171 0.0
H954 H 0.33326 0.95139 0.07314 0.0
H955 H 0.36559 0.9102 0.10463 0.0
H956 H 0.20514 0.91032 0.43678 0.0
H957 H 0.23765 0.95061 0.46863 0.0
H958 H 0.10178 1.00489 0.4768 0.0
H959 H 0.06904 0.96496 0.44509 0.0
H960 H 0.18635 0.05389 0.48161 0.0
H961 H 0.18796 0.92323 0.53816 0.0
H962 H 0.21905 0.92346 0.5098 0.0
H963 H 0.15562 0.92513 0.51015 0.0
C964 C 0.18257 0.93161 0.44487 0.0
C965 C 0.13432 0.93415 0.43876 0.0
C966 C 0.2012 0.95445 0.4631 0.0
C967 C 0.17185 0.98018 0.47519 0.0
C968 C 0.12488 0.98505 0.46764 0.0
H969 H 0.07213 0.06934 0.59635 0.0
H970 H 0.10405 0.02956 0.56428 0.0
C971 C 0.10619 0.96215 0.44959 0.0
C972 C 0.187 0.99859 0.49772 0.0
H973 H 0.1893 0.98142 0.55822 0.0
C974 C 0.18877 0.03818 0.49836 0.0
C975 C 0.18992 0.9777 0.51943 0.0
C976 C 0.18797 0.93502 0.51959 0.0
C977 C 0.18919 0.05763 0.52037 0.0
C978 C 0.18795 0.03672 0.54211 0.0
C979 C 0.19044 0.99716 0.54144 0.0
C980 C 0.17368 0.05499 0.56486 0.0
C981 C 0.1864 0.10029 0.52024 0.0
C982 C 0.20312 0.08107 0.5765 0.0
C983 C 0.18496 0.10381 0.59494 0.0
C984 C 0.13708 0.10083 0.60171 0.0
C985 C 0.10899 0.07248 0.59134 0.0
C986 C 0.12722 0.04967 0.57309 0.0
H987 H 0.18514 0.11208 0.50168 0.0
H988 H 0.1544 0.10986 0.53017 0.0
H989 H 0.21778 0.11216 0.52955 0.0
H990 H 0.23919 0.08527 0.57044 0.0
H991 H 0.20748 0.12542 0.60265 0.0
loop_
_geom_bond_atom_site_label_1
_geom_bond_atom_site_label_2
_geom_bond_distance
_geom_bond_site_symmetry_2
_ccdc_geom_bond_type
Co0 O3 1.970 1_455 S
Co0 N17 1.989 . S
Co0 O25 1.967 . S
Co0 O32 1.920 . S
Co1 O4 1.966 1_455 S
Co1 N10 2.022 . S
Co1 N18 1.993 . S
Co1 O26 1.941 . S
C2 O3 1.258 . S
C2 O4 1.263 . S
O3 Co0 1.970 1_655 S
O3 C2 1.258 . S
O4 Co1 1.966 1_655 S
O4 C2 1.263 . S
C5 O6 1.235 . S
C5 O32 1.289 1_655 S
O6 C5 1.235 . S
C7 C9 1.400 1_655 S
C7 N10 1.351 1_655 S
C7 C12 1.501 . S
C8 C9 1.387 . S
C8 N11 1.341 . S
C9 C7 1.400 1_455 S
C9 C8 1.387 . S
N10 Co1 2.022 . S
N10 C7 1.351 1_455 S
N10 N11 1.365 . S
N11 C8 1.341 . S
N11 N10 1.365 . S
N11 H31 0.862 . S
C12 C7 1.501 . S
C12 H13 0.961 . S
C12 H14 0.961 . S
C12 H15 0.960 . S
H13 C12 0.961 . S
H14 C12 0.961 . S
H15 C12 0.960 . S
C16 N17 1.342 . S
C16 C20 1.401 . S
C16 C21 1.499 . S
N17 Co0 1.989 . S
N17 C16 1.342 . S
N17 N18 1.388 . S
N18 Co1 1.993 . S
N18 N17 1.388 . S
N18 C19 1.346 . S
C19 N18 1.346 . S
C19 C20 1.396 . S
C19 C29 1.510 . S
C20 C16 1.401 . S
C20 C19 1.396 . S
C21 C16 1.499 . S
C21 H22 0.959 . S
C21 H23 0.960 . S
C21 H24 0.961 . S
H22 C21 0.959 . S
H23 C21 0.960 . S
H24 C21 0.961 . S
O25 Co0 1.967 . S
O25 C33 1.258 . S
O26 Co1 1.941 . S
O26 C33 1.266 . S
H27 C29 0.959 . S
H28 C29 0.961 . S
C29 C19 1.510 . S
C29 H27 0.959 . S
C29 H28 0.961 . S
C29 H30 0.960 . S
H30 C29 0.960 . S
H31 N11 0.862 . S
O32 Co0 1.920 . S
O32 C5 1.289 1_455 S
C33 O25 1.258 . S
C33 O26 1.266 . S
Co34 O37 1.970 . S
Co34 N51 1.989 . S
Co34 O59 1.967 . S
Co34 O66 1.920 . S
Co35 O38 1.966 . S
Co35 N44 2.022 . S
Co35 N52 1.993 . S
Co35 O60 1.941 . S
C36 O37 1.258 . S
C36 O38 1.263 . S
O37 Co34 1.970 . S
O37 C36 1.258 . S
O38 Co35 1.966 . S
O38 C36 1.263 . S
C39 O40 1.235 . S
C39 O66 1.289 . S
O40 C39 1.235 . S
C41 C43 1.400 . S
C41 N44 1.351 . S
C41 C46 1.501 . S
C42 C43 1.387 . S
C42 N45 1.341 . S
C43 C41 1.400 . S
C43 C42 1.387 . S
N44 Co35 2.022 . S
N44 C41 1.351 . S
N44 N45 1.365 . S
N45 C42 1.341 . S
N45 N44 1.365 . S
N45 H65 0.862 . S
C46 C41 1.501 . S
C46 H47 0.961 . S
C46 H48 0.961 . S
C46 H49 0.960 . S
H47 C46 0.961 . S
H48 C46 0.961 . S
H49 C46 0.960 . S
C50 N51 1.342 . S
C50 C54 1.401 . S
C50 C55 1.499 . S
N51 Co34 1.989 . S
N51 C50 1.342 . S
N51 N52 1.388 . S
N52 Co35 1.993 . S
N52 N51 1.388 . S
N52 C53 1.346 . S
C53 N52 1.346 . S
C53 C54 1.396 . S
C53 C63 1.510 . S
C54 C50 1.401 . S
C54 C53 1.396 . S
C55 C50 1.499 . S
C55 H56 0.959 . S
C55 H57 0.960 . S
C55 H58 0.961 . S
H56 C55 0.959 . S
H57 C55 0.960 . S
H58 C55 0.961 . S
O59 Co34 1.967 . S
O59 C67 1.258 . S
O60 Co35 1.941 . S
O60 C67 1.266 . S
H61 C63 0.959 . S
H62 C63 0.961 . S
C63 C53 1.510 . S
C63 H61 0.959 . S
C63 H62 0.961 . S
C63 H64 0.960 . S
H64 C63 0.960 . S
H65 N45 0.862 . S
O66 Co34 1.920 . S
O66 C39 1.289 . S
C67 O59 1.258 . S
C67 O60 1.266 . S
Co68 O71 1.970 1_455 S
Co68 N85 1.989 . S
Co68 O93 1.967 . S
Co68 O100 1.920 . S
Co69 O72 1.966 1_455 S
Co69 N78 2.022 . S
Co69 N86 1.993 . S
Co69 O94 1.941 . S
C70 O71 1.258 . S
C70 O72 1.263 . S
O71 Co68 1.970 1_655 S
O71 C70 1.258 . S
O72 Co69 1.966 1_655 S
O72 C70 1.263 . S
C73 O74 1.235 . S
C73 O100 1.289 1_655 S
O74 C73 1.235 . S
C75 C77 1.400 1_655 S
C75 N78 1.351 1_655 S
C75 C80 1.501 . S
C76 C77 1.387 . S
C76 N79 1.341 . S
C77 C75 1.400 1_455 S
C77 C76 1.387 . S
N78 Co69 2.022 . S
N78 C75 1.351 1_455 S
N78 N79 1.365 . S
N79 C76 1.341 . S
N79 N78 1.365 . S
N79 H99 0.862 . S
C80 C75 1.501 . S
C80 H81 0.961 . S
C80 H82 0.961 . S
C80 H83 0.960 . S
H81 C80 0.961 . S
H82 C80 0.961 . S
H83 C80 0.960 . S
C84 N85 1.342 . S
C84 C88 1.401 . S
C84 C89 1.499 . S
N85 Co68 1.989 . S
N85 C84 1.342 . S
N85 N86 1.388 . S
N86 Co69 1.993 . S
N86 N85 1.388 . S
N86 C87 1.346 . S
C87 N86 1.346 . S
C87 C88 1.396 . S
C87 C97 1.510 . S
C88 C84 1.401 . S
C88 C87 1.396 . S
C89 C84 1.499 . S
C89 H90 0.959 . S
C89 H91 0.960 . S
C89 H92 0.961 . S
H90 C89 0.959 . S
H91 C89 0.960 . S
H92 C89 0.961 . S
O93 Co68 1.967 . S
O93 C101 1.258 . S
O94 Co69 1.941 . S
O94 C101 1.266 . S
H95 C97 0.959 . S
H96 C97 0.961 . S
C97 C87 1.510 . S
C97 H95 0.959 . S
C97 H96 0.961 . S
C97 H98 0.960 . S
H98 C97 0.960 . S
H99 N79 0.862 . S
O100 Co68 1.920 . S
O100 C73 1.289 1_455 S
C101 O93 1.258 . S
C101 O94 1.266 . S
Co102 O105 1.970 . S
Co102 N119 1.989 . S
Co102 O127 1.967 . S
Co102 O134 1.920 . S
Co103 O106 1.966 . S
Co103 N112 2.022 . S
Co103 N120 1.993 . S
Co103 O128 1.941 . S
C104 O105 1.258 . S
C104 O106 1.263 . S
O105 Co102 1.970 . S
O105 C104 1.258 . S
O106 Co103 1.966 . S
O106 C104 1.263 . S
C107 O108 1.235 . S
C107 O134 1.289 . S
O108 C107 1.235 . S
C109 C111 1.400 . S
C109 N112 1.351 . S
C109 C114 1.501 . S
C110 C111 1.387 . S
C110 N113 1.341 . S
C111 C109 1.400 . S
C111 C110 1.387 . S
N112 Co103 2.022 . S
N112 C109 1.351 . S
N112 N113 1.365 . S
N113 C110 1.341 . S
N113 N112 1.365 . S
N113 H133 0.862 . S
C114 C109 1.501 . S
C114 H115 0.961 . S
C114 H116 0.961 . S
C114 H117 0.960 . S
H115 C114 0.961 . S
H116 C114 0.961 . S
H117 C114 0.960 . S
C118 N119 1.342 . S
C118 C122 1.401 . S
C118 C123 1.499 . S
N119 Co102 1.989 . S
N119 C118 1.342 . S
N119 N120 1.388 . S
N120 Co103 1.993 . S
N120 N119 1.388 . S
N120 C121 1.346 . S
C121 N120 1.346 . S
C121 C122 1.396 . S
C121 C131 1.510 . S
C122 C118 1.401 . S
C122 C121 1.396 . S
C123 C118 1.499 . S
C123 H124 0.959 . S
C123 H125 0.960 . S
C123 H126 0.961 . S
H124 C123 0.959 . S
H125 C123 0.960 . S
H126 C123 0.961 . S
O127 Co102 1.967 . S
O127 C135 1.258 . S
O128 Co103 1.941 . S
O128 C135 1.266 . S
H129 C131 0.959 . S
H130 C131 0.961 . S
C131 C121 1.510 . S
C131 H129 0.959 . S
C131 H130 0.961 . S
C131 H132 0.960 . S
H132 C131 0.960 . S
H133 N113 0.862 . S
O134 Co102 1.920 . S
O134 C107 1.289 . S
C135 O127 1.258 . S
C135 O128 1.266 . S
Co136 O139 1.970 . S
Co136 N153 1.989 . S
Co136 O161 1.967 . S
Co136 O168 1.920 . S
Co137 O140 1.966 . S
Co137 N146 2.022 . S
Co137 N154 1.993 . S
Co137 O162 1.941 . S
C138 O139 1.258 . S
C138 O140 1.263 . S
O139 Co136 1.970 . S
O139 C138 1.258 . S
O140 Co137 1.966 . S
O140 C138 1.263 . S
C141 O142 1.235 . S
C141 O168 1.289 . S
O142 C141 1.235 . S
C143 C145 1.400 . S
C143 N146 1.351 . S
C143 C148 1.501 . S
C144 C145 1.387 . S
C144 N147 1.341 . S
C145 C143 1.400 . S
C145 C144 1.387 . S
N146 Co137 2.022 . S
N146 C143 1.351 . S
N146 N147 1.365 . S
N147 C144 1.341 . S
N147 N146 1.365 . S
N147 H167 0.862 . S
C148 C143 1.501 . S
C148 H149 0.961 . S
C148 H150 0.961 . S
C148 H151 0.960 . S
H149 C148 0.961 . S
H150 C148 0.961 . S
H151 C148 0.960 . S
C152 N153 1.342 . S
C152 C156 1.401 . S
C152 C157 1.499 . S
N153 Co136 1.989 . S
N153 C152 1.342 . S
N153 N154 1.388 . S
N154 Co137 1.993 . S
N154 N153 1.388 . S
N154 C155 1.346 . S
C155 N154 1.346 . S
C155 C156 1.396 . S
C155 C165 1.510 . S
C156 C152 1.401 . S
C156 C155 1.396 . S
C157 C152 1.499 . S
C157 H158 0.959 . S
C157 H159 0.960 . S
C157 H160 0.961 . S
H158 C157 0.959 . S
H159 C157 0.960 . S
H160 C157 0.961 . S
O161 Co136 1.967 . S
O161 C169 1.258 . S
O162 Co137 1.941 . S
O162 C169 1.266 . S
H163 C165 0.959 . S
H164 C165 0.961 . S
C165 C155 1.510 . S
C165 H163 0.959 . S
C165 H164 0.961 . S
C165 H166 0.960 . S
H166 C165 0.960 . S
H167 N147 0.862 . S
O168 Co136 1.920 . S
O168 C141 1.289 . S
C169 O161 1.258 . S
C169 O162 1.266 . S
Co170 O173 1.970 . S
Co170 N187 1.989 . S
Co170 O195 1.967 1_455 S
Co170 O202 1.920 . S
Co171 O174 1.966 . S
Co171 N180 2.022 . S
Co171 N188 1.993 . S
Co171 O196 1.941 1_455 S
C172 O173 1.258 . S
C172 O174 1.263 . S
O173 Co170 1.970 . S
O173 C172 1.258 . S
O174 Co171 1.966 . S
O174 C172 1.263 . S
C175 O176 1.235 . S
C175 O202 1.289 . S
O176 C175 1.235 . S
C177 C179 1.400 . S
C177 N180 1.351 . S
C177 C182 1.501 . S
C178 C179 1.387 . S
C178 N181 1.341 1_455 S
C179 C177 1.400 . S
C179 C178 1.387 . S
N180 Co171 2.022 . S
N180 C177 1.351 . S
N180 N181 1.365 1_455 S
N181 C178 1.341 1_655 S
N181 N180 1.365 1_655 S
N181 H201 0.862 . S
C182 C177 1.501 . S
C182 H183 0.961 . S
C182 H184 0.961 . S
C182 H185 0.960 . S
H183 C182 0.961 . S
H184 C182 0.961 . S
H185 C182 0.960 . S
C186 N187 1.342 . S
C186 C190 1.401 . S
C186 C191 1.499 . S
N187 Co170 1.989 . S
N187 C186 1.342 . S
N187 N188 1.388 . S
N188 Co171 1.993 . S
N188 N187 1.388 . S
N188 C189 1.346 . S
C189 N188 1.346 . S
C189 C190 1.396 . S
C189 C199 1.510 . S
C190 C186 1.401 . S
C190 C189 1.396 . S
C191 C186 1.499 . S
C191 H192 0.959 . S
C191 H193 0.960 . S
C191 H194 0.961 1_455 S
H192 C191 0.959 . S
H193 C191 0.960 . S
H194 C191 0.961 1_655 S
O195 Co170 1.967 1_655 S
O195 C203 1.258 . S
O196 Co171 1.941 1_655 S
O196 C203 1.266 . S
H197 C199 0.972 . S
H198 C199 0.961 . S
C199 C189 1.510 . S
C199 H197 0.972 . S
C199 H198 0.961 . S
C199 H200 0.960 . S
H200 C199 0.960 . S
H201 N181 0.862 . S
O202 Co170 1.920 . S
O202 C175 1.289 . S
C203 O195 1.258 . S
C203 O196 1.266 . S
Co204 O207 1.970 . S
Co204 N221 1.989 . S
Co204 O229 1.967 . S
Co204 O236 1.920 . S
Co205 O208 1.966 . S
Co205 N214 2.022 . S
Co205 N222 1.993 . S
Co205 O230 1.941 . S
C206 O207 1.258 . S
C206 O208 1.263 . S
O207 Co204 1.970 . S
O207 C206 1.258 . S
O208 Co205 1.966 . S
O208 C206 1.263 . S
C209 O210 1.235 . S
C209 O236 1.289 . S
O210 C209 1.235 . S
C211 C213 1.400 . S
C211 N214 1.351 . S
C211 C216 1.501 . S
C212 C213 1.387 . S
C212 N215 1.341 . S
C213 C211 1.400 . S
C213 C212 1.387 . S
N214 Co205 2.022 . S
N214 C211 1.351 . S
N214 N215 1.365 . S
N215 C212 1.341 . S
N215 N214 1.365 . S
N215 H235 0.862 . S
C216 C211 1.501 . S
C216 H217 0.961 . S
C216 H218 0.961 . S
C216 H219 0.960 . S
H217 C216 0.961 . S
H218 C216 0.961 . S
H219 C216 0.960 . S
C220 N221 1.342 . S
C220 C224 1.401 . S
C220 C225 1.499 . S
N221 Co204 1.989 . S
N221 C220 1.342 . S
N221 N222 1.388 . S
N222 Co205 1.993 . S
N222 N221 1.388 . S
N222 C223 1.346 . S
C223 N222 1.346 . S
C223 C224 1.396 . S
C223 C233 1.510 . S
C224 C220 1.401 . S
C224 C223 1.396 . S
C225 C220 1.499 . S
C225 H226 0.959 . S
C225 H227 0.960 . S
C225 H228 0.961 . S
H226 C225 0.959 . S
H227 C225 0.960 . S
H228 C225 0.961 . S
O229 Co204 1.967 . S
O229 C237 1.258 . S
O230 Co205 1.941 . S
O230 C237 1.266 . S
H231 C233 0.959 . S
H232 C233 0.961 . S
C233 C223 1.510 . S
C233 H231 0.959 . S
C233 H232 0.961 . S
C233 H234 0.960 . S
H234 C233 0.960 . S
H235 N215 0.862 . S
O236 Co204 1.920 . S
O236 C209 1.289 . S
C237 O229 1.258 . S
C237 O230 1.266 . S
Co238 O241 1.970 . S
Co238 N255 1.989 . S
Co238 O263 1.967 1_455 S
Co238 O270 1.920 . S
Co239 O242 1.966 . S
Co239 N248 2.022 . S
Co239 N256 1.993 . S
Co239 O264 1.941 1_455 S
C240 O241 1.258 . S
C240 O242 1.263 . S
O241 Co238 1.970 . S
O241 C240 1.258 . S
O242 Co239 1.966 . S
O242 C240 1.263 . S
C243 O244 1.235 . S
C243 O270 1.289 . S
O244 C243 1.235 . S
C245 C247 1.400 . S
C245 N248 1.351 . S
C245 C250 1.501 . S
C246 C247 1.387 . S
C246 N249 1.341 1_455 S
C247 C245 1.400 . S
C247 C246 1.387 . S
N248 Co239 2.022 . S
N248 C245 1.351 . S
N248 N249 1.365 1_455 S
N249 C246 1.341 1_655 S
N249 N248 1.365 1_655 S
N249 H269 0.862 . S
C250 C245 1.501 . S
C250 H251 0.961 . S
C250 H252 0.961 . S
C250 H253 0.960 . S
H251 C250 0.961 . S
H252 C250 0.961 . S
H253 C250 0.960 . S
C254 N255 1.342 . S
C254 C258 1.401 . S
C254 C259 1.499 . S
N255 Co238 1.989 . S
N255 C254 1.342 . S
N255 N256 1.388 . S
N256 Co239 1.993 . S
N256 N255 1.388 . S
N256 C257 1.346 . S
C257 N256 1.346 . S
C257 C258 1.396 . S
C257 C267 1.510 . S
C258 C254 1.401 . S
C258 C257 1.396 . S
C259 C254 1.499 . S
C259 H260 0.959 . S
C259 H261 0.960 . S
C259 H262 0.961 1_455 S
H260 C259 0.959 . S
H261 C259 0.960 . S
H262 C259 0.961 1_655 S
O263 Co238 1.967 1_655 S
O263 C271 1.258 . S
O264 Co239 1.941 1_655 S
O264 C271 1.266 . S
H265 C267 0.972 . S
H266 C267 0.961 . S
C267 C257 1.510 . S
C267 H265 0.972 . S
C267 H266 0.961 . S
C267 H268 0.960 . S
H268 C267 0.960 . S
H269 N249 0.862 . S
O270 Co238 1.920 . S
O270 C243 1.289 . S
C271 O263 1.258 . S
C271 O264 1.266 . S
H272 C280 0.929 . S
H273 C282 0.930 . S
H274 C284 0.930 . S
H275 C287 0.929 . S
H276 C290 0.930 . S
H277 C292 0.960 . S
H278 C292 0.960 . S
H279 C292 0.960 . S
C280 H272 0.929 . S
C280 C281 1.377 . S
C280 C282 1.384 . S
C281 C280 1.377 . S
C281 C287 1.390 . S
C282 H273 0.930 . S
C282 C280 1.384 . S
C282 C283 1.372 . S
C283 C282 1.372 . S
C283 C284 1.400 . S
C283 C288 1.490 . S
C284 H274 0.930 . S
C284 C283 1.400 . S
C284 C287 1.386 . S
H285 C301 0.930 . S
H286 C302 0.931 . S
C287 H275 0.929 . S
C287 C281 1.390 . S
C287 C284 1.386 . S
C288 C283 1.490 . S
C288 C290 1.395 . S
C288 C291 1.403 . S
H289 C295 0.930 . S
C290 H276 0.930 . S
C290 C288 1.395 . S
C290 C293 1.403 1_556 S
C291 C288 1.403 . S
C291 C292 1.524 . S
C291 C295 1.400 1_556 S
C292 H277 0.960 . S
C292 H278 0.960 . S
C292 H279 0.960 . S
C292 C291 1.524 . S
C293 C290 1.403 1_554 S
C293 C294 1.392 . S
C293 C297 1.495 . S
C294 C293 1.392 . S
C294 C295 1.385 . S
C294 C296 1.478 . S
C295 H289 0.930 . S
C295 C291 1.400 1_554 S
C295 C294 1.385 . S
C296 C294 1.478 . S
C296 C298 1.381 . S
C296 C302 1.383 . S
C297 C293 1.495 . S
C297 H303 0.959 . S
C297 H304 0.961 . S
C297 H305 0.960 . S
C298 C296 1.381 . S
C298 C299 1.394 . S
C298 H306 0.930 . S
C299 C298 1.394 . S
C299 C300 1.383 . S
C299 H307 0.929 . S
C300 C299 1.383 . S
C300 C301 1.377 . S
C301 H285 0.930 . S
C301 C300 1.377 . S
C301 C302 1.379 . S
C302 H286 0.931 . S
C302 C296 1.383 . S
C302 C301 1.379 . S
H303 C297 0.959 . S
H304 C297 0.961 . S
H305 C297 0.960 . S
H306 C298 0.930 . S
H307 C299 0.929 . S
H308 C316 0.929 . S
H309 C318 0.930 . S
H310 C320 0.930 . S
H311 C323 0.929 . S
H312 C326 0.930 . S
H313 C328 0.960 . S
H314 C328 0.960 . S
H315 C328 0.960 . S
C316 H308 0.929 . S
C316 C317 1.377 . S
C316 C318 1.384 . S
C317 C316 1.377 . S
C317 C323 1.390 . S
C318 H309 0.930 . S
C318 C316 1.384 . S
C318 C319 1.372 . S
C319 C318 1.372 . S
C319 C320 1.400 . S
C319 C324 1.490 . S
C320 H310 0.930 . S
C320 C319 1.400 . S
C320 C323 1.386 . S
H321 C337 0.930 . S
H322 C338 0.931 . S
C323 H311 0.929 . S
C323 C317 1.390 . S
C323 C320 1.386 . S
C324 C319 1.490 . S
C324 C326 1.395 . S
C324 C327 1.403 . S
H325 C331 0.930 . S
C326 H312 0.930 . S
C326 C324 1.395 . S
C326 C329 1.403 . S
C327 C324 1.403 . S
C327 C328 1.524 . S
C327 C331 1.400 . S
C328 H313 0.960 . S
C328 H314 0.960 . S
C328 H315 0.960 . S
C328 C327 1.524 . S
C329 C326 1.403 . S
C329 C330 1.392 . S
C329 C333 1.495 . S
C330 C329 1.392 . S
C330 C331 1.385 . S
C330 C332 1.478 . S
C331 H325 0.930 . S
C331 C327 1.400 . S
C331 C330 1.385 . S
C332 C330 1.478 . S
C332 C334 1.381 . S
C332 C338 1.383 . S
C333 C329 1.495 . S
C333 H339 0.959 . S
C333 H340 0.961 . S
C333 H341 0.960 . S
C334 C332 1.381 . S
C334 C335 1.394 . S
C334 H342 0.930 . S
C335 C334 1.394 . S
C335 C336 1.383 . S
C335 H343 0.929 . S
C336 C335 1.383 . S
C336 C337 1.377 . S
C337 H321 0.930 . S
C337 C336 1.377 . S
C337 C338 1.379 . S
C338 H322 0.931 . S
C338 C332 1.383 . S
C338 C337 1.379 . S
H339 C333 0.959 . S
H340 C333 0.961 . S
H341 C333 0.960 . S
H342 C334 0.930 . S
H343 C335 0.929 . S
H344 C352 0.929 . S
H345 C354 0.930 . S
H346 C356 0.930 . S
H347 C359 0.929 . S
H348 C362 0.930 . S
H349 C364 0.960 . S
H350 C364 0.960 . S
H351 C364 0.960 . S
C352 H344 0.929 . S
C352 C353 1.377 . S
C352 C354 1.384 . S
C353 C352 1.377 . S
C353 C359 1.390 . S
C354 H345 0.930 . S
C354 C352 1.384 . S
C354 C355 1.372 . S
C355 C354 1.372 . S
C355 C356 1.400 . S
C355 C360 1.490 . S
C356 H346 0.930 . S
C356 C355 1.400 . S
C356 C359 1.386 . S
H357 C373 0.930 . S
H358 C374 0.931 . S
C359 H347 0.929 . S
C359 C353 1.390 . S
C359 C356 1.386 . S
C360 C355 1.490 . S
C360 C362 1.395 . S
C360 C363 1.403 . S
H361 C367 0.930 . S
C362 H348 0.930 . S
C362 C360 1.395 . S
C362 C365 1.403 1_554 S
C363 C360 1.403 . S
C363 C364 1.524 . S
C363 C367 1.400 1_554 S
C364 H349 0.960 . S
C364 H350 0.960 . S
C364 H351 0.960 . S
C364 C363 1.524 . S
C365 C362 1.403 1_556 S
C365 C366 1.392 . S
C365 C369 1.495 . S
C366 C365 1.392 . S
C366 C367 1.385 . S
C366 C368 1.478 . S
C367 H361 0.930 . S
C367 C363 1.400 1_556 S
C367 C366 1.385 . S
C368 C366 1.478 . S
C368 C370 1.381 . S
C368 C374 1.383 . S
C369 C365 1.495 . S
C369 H375 0.959 . S
C369 H376 0.961 . S
C369 H377 0.960 . S
C370 C368 1.381 . S
C370 C371 1.394 . S
C370 H378 0.930 . S
C371 C370 1.394 . S
C371 C372 1.383 . S
C371 H379 0.929 . S
C372 C371 1.383 . S
C372 C373 1.377 . S
C373 H357 0.930 . S
C373 C372 1.377 . S
C373 C374 1.379 . S
C374 H358 0.931 . S
C374 C368 1.383 . S
C374 C373 1.379 . S
H375 C369 0.959 . S
H376 C369 0.961 . S
H377 C369 0.960 . S
H378 C370 0.930 . S
H379 C371 0.929 . S
H380 C388 0.929 . S
H381 C390 0.930 . S
H382 C392 0.930 . S
H383 C395 0.929 . S
H384 C398 0.930 . S
H385 C400 0.960 . S
H386 C400 0.960 . S
H387 C400 0.960 . S
C388 H380 0.929 . S
C388 C389 1.377 . S
C388 C390 1.384 . S
C389 C388 1.377 . S
C389 C395 1.390 . S
C390 H381 0.930 . S
C390 C388 1.384 . S
C390 C391 1.372 . S
C391 C390 1.372 . S
C391 C392 1.400 . S
C391 C396 1.490 . S
C392 H382 0.930 . S
C392 C391 1.400 . S
C392 C395 1.386 . S
H393 C409 0.930 . S
H394 C410 0.931 . S
C395 H383 0.929 . S
C395 C389 1.390 . S
C395 C392 1.386 . S
C396 C391 1.490 . S
C396 C398 1.395 . S
C396 C399 1.403 . S
H397 C403 0.930 . S
C398 H384 0.930 . S
C398 C396 1.395 . S
C398 C401 1.403 . S
C399 C396 1.403 . S
C399 C400 1.524 . S
C399 C403 1.400 . S
C400 H385 0.960 . S
C400 H386 0.960 . S
C400 H387 0.960 . S
C400 C399 1.524 . S
C401 C398 1.403 . S
C401 C402 1.392 . S
C401 C405 1.495 . S
C402 C401 1.392 . S
C402 C403 1.385 . S
C402 C404 1.478 . S
C403 H397 0.930 . S
C403 C399 1.400 . S
C403 C402 1.385 . S
C404 C402 1.478 . S
C404 C406 1.381 . S
C404 C410 1.383 . S
C405 C401 1.495 . S
C405 H411 0.959 . S
C405 H412 0.961 . S
C405 H413 0.960 . S
C406 C404 1.381 . S
C406 C407 1.394 . S
C406 H414 0.930 . S
C407 C406 1.394 . S
C407 C408 1.383 . S
C407 H415 0.929 . S
C408 C407 1.383 . S
C408 C409 1.377 . S
C409 H393 0.930 . S
C409 C408 1.377 . S
C409 C410 1.379 . S
C410 H394 0.931 . S
C410 C404 1.383 . S
C410 C409 1.379 . S
H411 C405 0.959 . S
H412 C405 0.961 . S
H413 C405 0.960 . S
H414 C406 0.930 . S
H415 C407 0.929 . S
H416 C424 0.929 . S
H417 C426 0.930 . S
H418 C428 0.930 . S
H419 C431 0.929 . S
H420 C434 0.930 . S
H421 C436 0.960 . S
H422 C436 0.960 . S
H423 C436 0.960 . S
C424 H416 0.929 . S
C424 C425 1.377 . S
C424 C426 1.384 . S
C425 C424 1.377 . S
C425 C431 1.390 . S
C426 H417 0.930 . S
C426 C424 1.384 . S
C426 C427 1.372 . S
C427 C426 1.372 . S
C427 C428 1.400 . S
C427 C432 1.490 . S
C428 H418 0.930 . S
C428 C427 1.400 . S
C428 C431 1.386 . S
H429 C445 0.930 . S
H430 C446 0.931 . S
C431 H419 0.929 . S
C431 C425 1.390 . S
C431 C428 1.386 . S
C432 C427 1.490 . S
C432 C434 1.395 . S
C432 C435 1.403 1_554 S
H433 C439 0.930 . S
C434 H420 0.930 . S
C434 C432 1.395 . S
C434 C437 1.403 . S
C435 C432 1.403 1_556 S
C435 C436 1.524 . S
C435 C439 1.400 . S
C436 H421 0.960 . S
C436 H422 0.960 . S
C436 H423 0.960 . S
C436 C435 1.524 . S
C437 C434 1.403 . S
C437 C438 1.392 1_554 S
C437 C441 1.495 . S
C438 C437 1.392 1_556 S
C438 C439 1.385 . S
C438 C440 1.478 . S
C439 H433 0.930 . S
C439 C435 1.400 . S
C439 C438 1.385 . S
C440 C438 1.478 . S
C440 C442 1.381 . S
C440 C446 1.383 . S
C441 C437 1.495 . S
C441 H447 0.959 . S
C441 H448 0.961 . S
C441 H449 0.960 . S
C442 C440 1.381 . S
C442 C443 1.394 . S
C442 H450 0.930 . S
C443 C442 1.394 . S
C443 C444 1.383 . S
C443 H451 0.929 . S
C444 C443 1.383 . S
C444 C445 1.377 . S
C445 H429 0.930 . S
C445 C444 1.377 . S
C445 C446 1.379 . S
C446 H430 0.931 . S
C446 C440 1.383 . S
C446 C445 1.379 . S
H447 C441 0.959 . S
H448 C441 0.961 . S
H449 C441 0.960 . S
H450 C442 0.930 . S
H451 C443 0.929 . S
H452 C460 0.929 . S
H453 C462 0.930 . S
H454 C464 0.930 . S
H455 C467 0.929 . S
H456 C470 0.930 . S
H457 C472 0.960 . S
H458 C472 0.960 . S
H459 C472 0.960 . S
C460 H452 0.929 . S
C460 C461 1.377 . S
C460 C462 1.384 . S
C461 C460 1.377 . S
C461 C467 1.390 . S
C462 H453 0.930 . S
C462 C460 1.384 . S
C462 C463 1.372 . S
C463 C462 1.372 . S
C463 C464 1.400 . S
C463 C468 1.490 . S
C464 H454 0.930 . S
C464 C463 1.400 . S
C464 C467 1.386 . S
H465 C481 0.930 . S
H466 C482 0.931 . S
C467 H455 0.929 . S
C467 C461 1.390 . S
C467 C464 1.386 . S
C468 C463 1.490 . S
C468 C470 1.395 . S
C468 C471 1.403 . S
H469 C475 0.930 . S
C470 H456 0.930 . S
C470 C468 1.395 . S
C470 C473 1.403 . S
C471 C468 1.403 . S
C471 C472 1.524 . S
C471 C475 1.400 . S
C472 H457 0.960 . S
C472 H458 0.960 . S
C472 H459 0.960 . S
C472 C471 1.524 . S
C473 C470 1.403 . S
C473 C474 1.392 . S
C473 C477 1.495 . S
C474 C473 1.392 . S
C474 C475 1.385 . S
C474 C476 1.478 . S
C475 H469 0.930 . S
C475 C471 1.400 . S
C475 C474 1.385 . S
C476 C474 1.478 . S
C476 C478 1.381 . S
C476 C482 1.383 . S
C477 C473 1.495 . S
C477 H483 0.959 . S
C477 H484 0.961 . S
C477 H485 0.960 . S
C478 C476 1.381 . S
C478 C479 1.394 . S
C478 H486 0.930 . S
C479 C478 1.394 . S
C479 C480 1.383 . S
C479 H487 0.929 . S
C480 C479 1.383 . S
C480 C481 1.377 . S
C481 H465 0.930 . S
C481 C480 1.377 . S
C481 C482 1.379 . S
C482 H466 0.931 . S
C482 C476 1.383 . S
C482 C481 1.379 . S
H483 C477 0.959 . S
H484 C477 0.961 . S
H485 C477 0.960 . S
H486 C478 0.930 . S
H487 C479 0.929 . S
H488 C496 0.929 . S
H489 C498 0.930 . S
H490 C500 0.930 . S
H491 C503 0.929 . S
H492 C506 0.930 . S
H493 C508 0.960 . S
H494 C508 0.960 . S
H495 C508 0.960 . S
C496 H488 0.929 . S
C496 C497 1.377 . S
C496 C498 1.384 . S
C497 C496 1.377 . S
C497 C503 1.390 . S
C498 H489 0.930 . S
C498 C496 1.384 . S
C498 C499 1.372 . S
C499 C498 1.372 . S
C499 C500 1.400 . S
C499 C504 1.490 . S
C500 H490 0.930 . S
C500 C499 1.400 . S
C500 C503 1.386 . S
H501 C517 0.930 . S
H502 C518 0.931 . S
C503 H491 0.929 . S
C503 C497 1.390 . S
C503 C500 1.386 . S
C504 C499 1.490 . S
C504 C506 1.395 . S
C504 C507 1.403 1_554 S
H505 C511 0.930 . S
C506 H492 0.930 . S
C506 C504 1.395 . S
C506 C509 1.403 . S
C507 C504 1.403 1_556 S
C507 C508 1.524 . S
C507 C511 1.400 . S
C508 H493 0.960 . S
C508 H494 0.960 . S
C508 H495 0.960 . S
C508 C507 1.524 . S
C509 C506 1.403 . S
C509 C510 1.392 1_554 S
C509 C513 1.495 . S
C510 C509 1.392 1_556 S
C510 C511 1.385 . S
C510 C512 1.478 . S
C511 H505 0.930 . S
C511 C507 1.400 . S
C511 C510 1.385 . S
C512 C510 1.478 . S
C512 C514 1.381 . S
C512 C518 1.383 . S
C513 C509 1.495 . S
C513 H519 0.959 . S
C513 H520 0.961 . S
C513 H521 0.960 . S
C514 C512 1.381 . S
C514 C515 1.394 . S
C514 H522 0.930 . S
C515 C514 1.394 . S
C515 C516 1.383 . S
C515 H523 0.929 . S
C516 C515 1.383 . S
C516 C517 1.377 . S
C517 H501 0.930 . S
C517 C516 1.377 . S
C517 C518 1.379 . S
C518 H502 0.931 . S
C518 C512 1.383 . S
C518 C517 1.379 . S
H519 C513 0.959 . S
H520 C513 0.961 . S
H521 C513 0.960 . S
H522 C514 0.930 . S
H523 C515 0.929 . S
H524 C532 0.929 . S
H525 C534 0.930 . S
H526 C536 0.930 . S
H527 C539 0.929 . S
H528 C542 0.930 . S
H529 C544 0.960 . S
H530 C544 0.960 . S
H531 C544 0.960 . S
C532 H524 0.929 . S
C532 C533 1.377 . S
C532 C534 1.384 . S
C533 C532 1.377 . S
C533 C539 1.390 . S
C534 H525 0.930 . S
C534 C532 1.384 . S
C534 C535 1.372 . S
C535 C534 1.372 . S
C535 C536 1.400 . S
C535 C540 1.490 . S
C536 H526 0.930 . S
C536 C535 1.400 . S
C536 C539 1.386 . S
H537 C553 0.930 . S
H538 C554 0.931 . S
C539 H527 0.929 . S
C539 C533 1.390 . S
C539 C536 1.386 . S
C540 C535 1.490 . S
C540 C542 1.395 . S
C540 C543 1.403 . S
H541 C547 0.930 . S
C542 H528 0.930 . S
C542 C540 1.395 . S
C542 C545 1.403 . S
C543 C540 1.403 . S
C543 C544 1.524 . S
C543 C547 1.400 . S
C544 H529 0.960 . S
C544 H530 0.960 . S
C544 H531 0.960 . S
C544 C543 1.524 . S
C545 C542 1.403 . S
C545 C546 1.392 . S
C545 C549 1.495 . S
C546 C545 1.392 . S
C546 C547 1.385 . S
C546 C548 1.478 . S
C547 H541 0.930 . S
C547 C543 1.400 . S
C547 C546 1.385 . S
C548 C546 1.478 . S
C548 C550 1.381 . S
C548 C554 1.383 . S
C549 C545 1.495 . S
C549 H555 0.959 . S
C549 H556 0.961 . S
C549 H557 0.960 . S
C550 C548 1.381 . S
C550 C551 1.394 . S
C550 H558 0.930 . S
C551 C550 1.394 . S
C551 C552 1.383 . S
C551 H559 0.929 . S
C552 C551 1.383 . S
C552 C553 1.377 . S
C553 H537 0.930 . S
C553 C552 1.377 . S
C553 C554 1.379 . S
C554 H538 0.931 . S
C554 C548 1.383 . S
C554 C553 1.379 . S
H555 C549 0.959 . S
H556 C549 0.961 . S
H557 C549 0.960 . S
H558 C550 0.930 . S
H559 C551 0.929 . S
H560 C568 0.929 . S
H561 C570 0.930 . S
H562 C572 0.930 1_655 S
H563 C575 0.929 1_655 S
H564 C578 0.930 . S
H565 C580 0.960 . S
H566 C580 0.960 . S
H567 C580 0.960 . S
C568 H560 0.929 . S
C568 C569 1.377 . S
C568 C570 1.384 . S
C569 C568 1.377 . S
C569 C575 1.390 . S
C570 H561 0.930 . S
C570 C568 1.384 . S
C570 C571 1.372 . S
C571 C570 1.372 . S
C571 C572 1.400 . S
C571 C576 1.490 . S
C572 H562 0.930 1_455 S
C572 C571 1.400 . S
C572 C575 1.386 . S
H573 C589 0.930 . S
H574 C590 0.931 1_655 S
C575 H563 0.929 1_455 S
C575 C569 1.390 . S
C575 C572 1.386 . S
C576 C571 1.490 . S
C576 C578 1.395 . S
C576 C579 1.403 . S
H577 C583 0.930 . S
C578 H564 0.930 . S
C578 C576 1.395 . S
C578 C581 1.403 . S
C579 C576 1.403 . S
C579 C580 1.524 . S
C579 C583 1.400 . S
C580 H565 0.960 . S
C580 H566 0.960 . S
C580 H567 0.960 . S
C580 C579 1.524 . S
C581 C578 1.403 . S
C581 C582 1.392 . S
C581 C585 1.495 . S
C582 C581 1.392 . S
C582 C583 1.385 . S
C582 C584 1.478 . S
C583 H577 0.930 . S
C583 C579 1.400 . S
C583 C582 1.385 . S
C584 C582 1.478 . S
C584 C586 1.381 . S
C584 C590 1.383 . S
C585 C581 1.495 . S
C585 H591 0.959 . S
C585 H592 0.961 . S
C585 H593 0.960 . S
C586 C584 1.381 . S
C586 C587 1.394 . S
C586 H594 0.930 . S
C587 C586 1.394 . S
C587 C588 1.383 . S
C587 H595 0.929 . S
C588 C587 1.383 . S
C588 C589 1.377 . S
C589 H573 0.930 . S
C589 C588 1.377 . S
C589 C590 1.379 . S
C590 H574 0.931 1_455 S
C590 C584 1.383 . S
C590 C589 1.379 . S
H591 C585 0.959 . S
H592 C585 0.961 . S
H593 C585 0.960 . S
H594 C586 0.930 . S
H595 C587 0.929 . S
H596 C604 0.929 . S
H597 C606 0.930 . S
H598 C608 0.930 . S
H599 C611 0.929 . S
H600 C614 0.930 . S
H601 C616 0.960 . S
H602 C616 0.960 . S
H603 C616 0.960 . S
C604 H596 0.929 . S
C604 C605 1.377 . S
C604 C606 1.384 . S
C605 C604 1.377 . S
C605 C611 1.390 . S
C606 H597 0.930 . S
C606 C604 1.384 . S
C606 C607 1.372 . S
C607 C606 1.372 . S
C607 C608 1.400 . S
C607 C612 1.490 . S
C608 H598 0.930 . S
C608 C607 1.400 . S
C608 C611 1.386 . S
H609 C625 0.930 . S
H610 C626 0.931 . S
C611 H599 0.929 . S
C611 C605 1.390 . S
C611 C608 1.386 . S
C612 C607 1.490 . S
C612 C614 1.395 . S
C612 C615 1.403 . S
H613 C619 0.930 . S
C614 H600 0.930 . S
C614 C612 1.395 . S
C614 C617 1.403 . S
C615 C612 1.403 . S
C615 C616 1.524 . S
C615 C619 1.400 . S
C616 H601 0.960 . S
C616 H602 0.960 . S
C616 H603 0.960 . S
C616 C615 1.524 . S
C617 C614 1.403 . S
C617 C618 1.392 . S
C617 C621 1.495 . S
C618 C617 1.392 . S
C618 C619 1.385 . S
C618 C620 1.478 . S
C619 H613 0.930 . S
C619 C615 1.400 . S
C619 C618 1.385 . S
C620 C618 1.478 . S
C620 C622 1.381 . S
C620 C626 1.383 . S
C621 C617 1.495 . S
C621 H627 0.959 . S
C621 H628 0.961 . S
C621 H629 0.960 . S
C622 C620 1.381 . S
C622 C623 1.394 . S
C622 H630 0.930 . S
C623 C622 1.394 . S
C623 C624 1.383 . S
C623 H631 0.929 . S
C624 C623 1.383 . S
C624 C625 1.377 . S
C625 H609 0.930 . S
C625 C624 1.377 . S
C625 C626 1.379 . S
C626 H610 0.931 . S
C626 C620 1.383 . S
C626 C625 1.379 . S
H627 C621 0.959 . S
H628 C621 0.961 . S
H629 C621 0.960 . S
H630 C622 0.930 . S
H631 C623 0.929 . S
H632 C640 0.929 . S
H633 C642 0.927 1_655 S
H634 C644 0.930 . S
H635 C647 0.929 . S
H636 C650 0.930 . S
H637 C652 0.960 . S
H638 C652 0.960 . S
H639 C652 0.960 . S
C640 H632 0.929 . S
C640 C641 1.377 . S
C640 C642 1.384 . S
C641 C640 1.377 . S
C641 C647 1.390 . S
C642 H633 0.927 1_455 S
C642 C640 1.384 . S
C642 C643 1.372 . S
C643 C642 1.372 . S
C643 C644 1.400 . S
C643 C648 1.490 . S
C644 H634 0.930 . S
C644 C643 1.400 . S
C644 C647 1.386 . S
H645 C661 0.930 . S
H646 C662 0.931 . S
C647 H635 0.929 . S
C647 C641 1.390 . S
C647 C644 1.386 . S
C648 C643 1.490 . S
C648 C650 1.395 . S
C648 C651 1.403 . S
H649 C655 0.930 . S
C650 H636 0.930 . S
C650 C648 1.395 . S
C650 C653 1.403 . S
C651 C648 1.403 . S
C651 C652 1.524 . S
C651 C655 1.400 . S
C652 H637 0.960 . S
C652 H638 0.960 . S
C652 H639 0.960 . S
C652 C651 1.524 . S
C653 C650 1.403 . S
C653 C654 1.392 . S
C653 C657 1.495 . S
C654 C653 1.392 . S
C654 C655 1.385 . S
C654 C656 1.478 . S
C655 H649 0.930 . S
C655 C651 1.400 . S
C655 C654 1.385 . S
C656 C654 1.478 . S
C656 C658 1.381 . S
C656 C662 1.383 . S
C657 C653 1.495 . S
C657 H663 0.959 . S
C657 H664 0.961 . S
C657 H665 0.960 . S
C658 C656 1.381 . S
C658 C659 1.394 . S
C658 H666 0.930 1_455 S
C659 C658 1.394 . S
C659 C660 1.383 . S
C659 H667 0.929 1_455 S
C660 C659 1.383 . S
C660 C661 1.377 . S
C661 H645 0.930 . S
C661 C660 1.377 . S
C661 C662 1.379 . S
C662 H646 0.931 . S
C662 C656 1.383 . S
C662 C661 1.379 . S
H663 C657 0.959 . S
H664 C657 0.961 . S
H665 C657 0.960 . S
H666 C658 0.930 1_655 S
H667 C659 0.929 1_655 S
H668 C676 0.929 . S
H669 C678 0.930 . S
H670 C680 0.930 . S
H671 C683 0.929 . S
H672 C686 0.930 . S
H673 C688 0.960 . S
H674 C688 0.960 . S
H675 C688 0.960 . S
C676 H668 0.929 . S
C676 C677 1.377 . S
C676 C678 1.384 . S
C677 C676 1.377 . S
C677 C683 1.390 . S
C678 H669 0.930 . S
C678 C676 1.384 . S
C678 C679 1.372 . S
C679 C678 1.372 . S
C679 C680 1.400 . S
C679 C684 1.490 . S
C680 H670 0.930 . S
C680 C679 1.400 . S
C680 C683 1.386 . S
H681 C697 0.930 . S
H682 C698 0.931 . S
C683 H671 0.929 . S
C683 C677 1.390 . S
C683 C680 1.386 . S
C684 C679 1.490 . S
C684 C686 1.395 . S
C684 C687 1.403 . S
H685 C691 0.930 . S
C686 H672 0.930 . S
C686 C684 1.395 . S
C686 C689 1.403 . S
C687 C684 1.403 . S
C687 C688 1.524 . S
C687 C691 1.400 . S
C688 H673 0.960 . S
C688 H674 0.960 . S
C688 H675 0.960 . S
C688 C687 1.524 . S
C689 C686 1.403 . S
C689 C690 1.392 . S
C689 C693 1.495 . S
C690 C689 1.392 . S
C690 C691 1.385 . S
C690 C692 1.478 . S
C691 H685 0.930 . S
C691 C687 1.400 . S
C691 C690 1.385 . S
C692 C690 1.478 . S
C692 C694 1.381 . S
C692 C698 1.383 . S
C693 C689 1.495 . S
C693 H699 0.959 . S
C693 H700 0.961 . S
C693 H701 0.960 . S
C694 C692 1.381 . S
C694 C695 1.394 . S
C694 H702 0.930 . S
C695 C694 1.394 . S
C695 C696 1.383 . S
C695 H703 0.929 . S
C696 C695 1.383 . S
C696 C697 1.377 . S
C697 H681 0.930 . S
C697 C696 1.377 . S
C697 C698 1.379 . S
C698 H682 0.931 . S
C698 C692 1.383 . S
C698 C697 1.379 . S
H699 C693 0.959 . S
H700 C693 0.961 . S
H701 C693 0.960 . S
H702 C694 0.930 . S
H703 C695 0.929 . S
H704 C712 0.929 . S
H705 C714 0.930 . S
H706 C716 0.930 . S
H707 C719 0.929 . S
H708 C722 0.930 1_565 S
H709 C724 0.960 . S
H710 C724 0.960 . S
H711 C724 0.960 . S
C712 H704 0.929 . S
C712 C713 1.377 . S
C712 C714 1.384 . S
C713 C712 1.377 . S
C713 C719 1.390 . S
C714 H705 0.930 . S
C714 C712 1.384 . S
C714 C715 1.372 . S
C715 C714 1.372 . S
C715 C716 1.400 . S
C715 C720 1.490 1_565 S
C716 H706 0.930 . S
C716 C715 1.400 . S
C716 C719 1.386 . S
H717 C733 0.930 . S
H718 C734 0.931 . S
C719 H707 0.929 . S
C719 C713 1.390 . S
C719 C716 1.386 . S
C720 C715 1.490 1_545 S
C720 C722 1.395 . S
C720 C723 1.403 . S
H721 C727 0.930 . S
C722 H708 0.930 1_545 S
C722 C720 1.395 . S
C722 C725 1.403 . S
C723 C720 1.403 . S
C723 C724 1.524 . S
C723 C727 1.400 . S
C724 H709 0.960 . S
C724 H710 0.960 . S
C724 H711 0.960 . S
C724 C723 1.524 . S
C725 C722 1.403 . S
C725 C726 1.392 . S
C725 C729 1.495 . S
C726 C725 1.392 . S
C726 C727 1.385 . S
C726 C728 1.478 . S
C727 H721 0.930 . S
C727 C723 1.400 . S
C727 C726 1.385 . S
C728 C726 1.478 . S
C728 C730 1.381 . S
C728 C734 1.383 . S
C729 C725 1.495 . S
C729 H735 0.959 . S
C729 H736 0.961 . S
C729 H737 0.960 . S
C730 C728 1.381 . S
C730 C731 1.394 . S
C730 H738 0.930 . S
C731 C730 1.394 . S
C731 C732 1.383 . S
C731 H739 0.929 . S
C732 C731 1.383 . S
C732 C733 1.377 . S
C733 H717 0.930 . S
C733 C732 1.377 . S
C733 C734 1.379 . S
C734 H718 0.931 . S
C734 C728 1.383 . S
C734 C733 1.379 . S
H735 C729 0.959 . S
H736 C729 0.961 . S
H737 C729 0.960 . S
H738 C730 0.930 . S
H739 C731 0.929 . S
H740 C748 0.929 . S
H741 C750 0.930 . S
H742 C752 0.930 . S
H743 C755 0.929 . S
H744 C758 0.930 . S
H745 C760 0.960 1_545 S
H746 C760 0.960 . S
H747 C760 0.960 . S
C748 H740 0.929 . S
C748 C749 1.377 1_455 S
C748 C750 1.384 . S
C749 C748 1.377 1_655 S
C749 C755 1.390 . S
C750 H741 0.930 . S
C750 C748 1.384 . S
C750 C751 1.359 1_455 S
C751 C750 1.359 1_655 S
C751 C752 1.414 . S
C751 C756 1.489 1_655 S
C752 H742 0.930 . S
C752 C751 1.414 . S
C752 C755 1.386 . S
H753 C769 0.930 . S
H754 C770 0.931 . S
C755 H743 0.929 . S
C755 C749 1.390 . S
C755 C752 1.386 . S
C756 C751 1.489 1_455 S
C756 C758 1.395 1_455 S
C756 C759 1.403 . S
H757 C763 0.914 1_545 S
C758 H744 0.930 . S
C758 C756 1.395 1_655 S
C758 C761 1.403 . S
C759 C756 1.403 . S
C759 C760 1.524 . S
C759 C763 1.413 . S
C760 H745 0.960 1_565 S
C760 H746 0.960 . S
C760 H747 0.960 . S
C760 C759 1.524 . S
C761 C758 1.403 . S
C761 C762 1.392 1_655 S
C761 C765 1.495 . S
C762 C761 1.392 1_455 S
C762 C763 1.388 . S
C762 C764 1.478 1_565 S
C763 H757 0.914 1_565 S
C763 C759 1.413 . S
C763 C762 1.388 . S
C764 C762 1.478 1_545 S
C764 C766 1.381 . S
C764 C770 1.383 1_455 S
C765 C761 1.495 . S
C765 H771 0.959 . S
C765 H772 0.961 . S
C765 H773 0.941 1_655 S
C766 C764 1.381 . S
C766 C767 1.394 . S
C766 H774 0.930 . S
C767 C766 1.394 . S
C767 C768 1.383 . S
C767 H775 0.929 . S
C768 C767 1.383 . S
C768 C769 1.377 1_455 S
C769 H753 0.930 . S
C769 C768 1.377 1_655 S
C769 C770 1.379 . S
C770 H754 0.931 . S
C770 C764 1.383 1_655 S
C770 C769 1.379 . S
H771 C765 0.959 . S
H772 C765 0.961 . S
H773 C765 0.941 1_455 S
H774 C766 0.930 . S
H775 C767 0.929 . S
H776 C784 0.929 . S
H777 C786 0.930 . S
H778 C788 0.930 . S
H779 C791 0.929 . S
H780 C794 0.930 . S
H781 C796 0.960 . S
H782 C796 0.960 . S
H783 C796 0.960 . S
C784 H776 0.929 . S
C784 C785 1.377 . S
C784 C786 1.384 . S
C785 C784 1.377 . S
C785 C791 1.390 . S
C786 H777 0.930 . S
C786 C784 1.384 . S
C786 C787 1.372 . S
C787 C786 1.372 . S
C787 C788 1.400 . S
C787 C792 1.490 . S
C788 H778 0.930 . S
C788 C787 1.400 . S
C788 C791 1.386 . S
H789 C805 0.930 . S
H790 C806 0.931 . S
C791 H779 0.929 . S
C791 C785 1.390 . S
C791 C788 1.386 . S
C792 C787 1.490 . S
C792 C794 1.395 . S
C792 C795 1.403 . S
H793 C799 0.930 . S
C794 H780 0.930 . S
C794 C792 1.395 . S
C794 C797 1.403 1_565 S
C795 C792 1.403 . S
C795 C796 1.524 . S
C795 C799 1.400 . S
C796 H781 0.960 . S
C796 H782 0.960 . S
C796 H783 0.960 . S
C796 C795 1.524 . S
C797 C794 1.403 1_545 S
C797 C798 1.392 . S
C797 C801 1.495 . S
C798 C797 1.392 . S
C798 C799 1.385 1_545 S
C798 C800 1.478 . S
C799 H793 0.930 . S
C799 C795 1.400 . S
C799 C798 1.385 1_565 S
C800 C798 1.478 . S
C800 C802 1.381 . S
C800 C806 1.383 . S
C801 C797 1.495 . S
C801 H807 0.959 . S
C801 H808 0.961 . S
C801 H809 0.960 . S
C802 C800 1.381 . S
C802 C803 1.394 . S
C802 H810 0.930 . S
C803 C802 1.394 . S
C803 C804 1.383 . S
C803 H811 0.929 . S
C804 C803 1.383 . S
C804 C805 1.377 . S
C805 H789 0.930 . S
C805 C804 1.377 . S
C805 C806 1.379 . S
C806 H790 0.931 . S
C806 C800 1.383 . S
C806 C805 1.379 . S
H807 C801 0.959 . S
H808 C801 0.961 . S
H809 C801 0.960 . S
H810 C802 0.930 . S
H811 C803 0.929 . S
H812 C820 0.929 . S
H813 C822 0.930 . S
H814 C824 0.930 . S
H815 C827 0.929 . S
H816 C830 0.930 . S
H817 C832 0.960 1_565 S
H818 C832 0.975 . S
H819 C832 0.960 . S
C820 H812 0.929 . S
C820 C821 1.377 1_455 S
C820 C822 1.384 . S
C821 C820 1.377 1_655 S
C821 C827 1.390 . S
C822 H813 0.930 . S
C822 C820 1.384 . S
C822 C823 1.365 1_455 S
C823 C822 1.365 1_655 S
C823 C824 1.408 . S
C823 C828 1.489 1_655 S
C824 H814 0.930 . S
C824 C823 1.408 . S
C824 C827 1.386 . S
H825 C841 0.930 . S
H826 C842 0.931 . S
C827 H815 0.929 . S
C827 C821 1.390 . S
C827 C824 1.386 . S
C828 C823 1.489 1_455 S
C828 C830 1.395 . S
C828 C831 1.403 1_455 S
H829 C835 0.947 . S
C830 H816 0.930 . S
C830 C828 1.395 . S
C830 C833 1.403 . S
C831 C828 1.403 1_655 S
C831 C832 1.524 . S
C831 C835 1.387 1_545 S
C832 H817 0.960 1_545 S
C832 H818 0.975 . S
C832 H819 0.960 . S
C832 C831 1.524 . S
C833 C830 1.403 . S
C833 C834 1.392 . S
C833 C837 1.495 . S
C834 C833 1.392 . S
C834 C835 1.382 1_445 S
C834 C836 1.478 1_545 S
C835 H829 0.947 . S
C835 C831 1.387 1_565 S
C835 C834 1.382 1_665 S
C836 C834 1.478 1_565 S
C836 C838 1.381 . S
C836 C842 1.383 1_455 S
C837 C833 1.495 . S
C837 H843 0.959 . S
C837 H844 0.961 . S
C837 H845 0.960 . S
C838 C836 1.381 . S
C838 C839 1.394 . S
C838 H846 0.930 . S
C839 C838 1.394 . S
C839 C840 1.383 . S
C839 H847 0.929 . S
C840 C839 1.383 . S
C840 C841 1.377 1_455 S
C841 H825 0.930 . S
C841 C840 1.377 1_655 S
C841 C842 1.379 . S
C842 H826 0.931 . S
C842 C836 1.383 1_655 S
C842 C841 1.379 . S
H843 C837 0.959 . S
H844 C837 0.961 . S
H845 C837 0.960 . S
H846 C838 0.930 . S
H847 C839 0.929 . S
H848 C856 0.929 . S
H849 C858 0.930 . S
H850 C860 0.930 . S
H851 C863 0.929 . S
H852 C866 0.930 . S
H853 C868 0.960 . S
H854 C868 0.960 . S
H855 C868 0.960 1_655 S
C856 H848 0.929 . S
C856 C857 1.377 1_455 S
C856 C858 1.384 . S
C857 C856 1.377 1_655 S
C857 C863 1.390 . S
C858 H849 0.930 . S
C858 C856 1.384 . S
C858 C859 1.372 1_455 S
C859 C858 1.372 1_655 S
C859 C860 1.400 . S
C859 C864 1.490 . S
C860 H850 0.930 . S
C860 C859 1.400 . S
C860 C863 1.386 . S
H861 C877 0.930 . S
H862 C878 0.931 . S
C863 H851 0.929 . S
C863 C857 1.390 . S
C863 C860 1.386 . S
C864 C859 1.490 . S
C864 C866 1.395 1_556 S
C864 C867 1.403 . S
H865 C871 0.935 . S
C866 H852 0.930 . S
C866 C864 1.395 1_554 S
C866 C869 1.403 . S
C867 C864 1.403 . S
C867 C868 1.524 1_655 S
C867 C871 1.429 . S
C868 H853 0.960 . S
C868 H854 0.960 . S
C868 H855 0.960 1_455 S
C868 C867 1.524 1_455 S
C869 C866 1.403 . S
C869 C870 1.392 . S
C869 C873 1.495 . S
C870 C869 1.392 . S
C870 C871 1.352 1_554 S
C870 C872 1.478 . S
C871 H865 0.935 . S
C871 C867 1.429 . S
C871 C870 1.352 1_556 S
C872 C870 1.478 . S
C872 C874 1.381 1_655 S
C872 C878 1.383 . S
C873 C869 1.495 . S
C873 H879 0.959 . S
C873 H880 0.961 . S
C873 H881 0.960 1_655 S
C874 C872 1.381 1_455 S
C874 C875 1.394 . S
C874 H882 0.930 . S
C875 C874 1.394 . S
C875 C876 1.383 1_455 S
C875 H883 0.929 . S
C876 C875 1.383 1_655 S
C876 C877 1.377 . S
C877 H861 0.930 . S
C877 C876 1.377 . S
C877 C878 1.379 . S
C878 H862 0.931 . S
C878 C872 1.383 . S
C878 C877 1.379 . S
H879 C873 0.959 . S
H880 C873 0.961 . S
H881 C873 0.960 1_455 S
H882 C874 0.930 . S
H883 C875 0.929 . S
H884 C892 0.929 . S
H885 C894 0.930 . S
H886 C896 0.930 . S
H887 C899 0.929 . S
H888 C902 0.930 . S
H889 C904 0.960 . S
H890 C904 0.960 . S
H891 C904 0.960 . S
C892 H884 0.929 . S
C892 C893 1.377 . S
C892 C894 1.384 . S
C893 C892 1.377 . S
C893 C899 1.390 . S
C894 H885 0.930 . S
C894 C892 1.384 . S
C894 C895 1.372 . S
C895 C894 1.372 . S
C895 C896 1.400 . S
C895 C900 1.490 . S
C896 H886 0.930 . S
C896 C895 1.400 . S
C896 C899 1.386 . S
H897 C913 0.930 . S
H898 C914 0.931 . S
C899 H887 0.929 . S
C899 C893 1.390 . S
C899 C896 1.386 . S
C900 C895 1.490 . S
C900 C902 1.395 . S
C900 C903 1.403 . S
H901 C907 0.930 . S
C902 H888 0.930 . S
C902 C900 1.395 . S
C902 C905 1.403 . S
C903 C900 1.403 . S
C903 C904 1.524 . S
C903 C907 1.400 . S
C904 H889 0.960 . S
C904 H890 0.960 . S
C904 H891 0.960 . S
C904 C903 1.524 . S
C905 C902 1.403 . S
C905 C906 1.392 . S
C905 C909 1.495 . S
C906 C905 1.392 . S
C906 C907 1.385 . S
C906 C908 1.478 . S
C907 H901 0.930 . S
C907 C903 1.400 . S
C907 C906 1.385 . S
C908 C906 1.478 . S
C908 C910 1.381 . S
C908 C914 1.383 . S
C909 C905 1.495 . S
C909 H915 0.959 . S
C909 H916 0.961 . S
C909 H917 0.960 . S
C910 C908 1.381 . S
C910 C911 1.394 . S
C910 H918 0.930 . S
C911 C910 1.394 . S
C911 C912 1.383 . S
C911 H919 0.929 . S
C912 C911 1.383 . S
C912 C913 1.377 . S
C913 H897 0.930 . S
C913 C912 1.377 . S
C913 C914 1.379 . S
C914 H898 0.931 . S
C914 C908 1.383 . S
C914 C913 1.379 . S
H915 C909 0.959 . S
H916 C909 0.961 . S
H917 C909 0.960 . S
H918 C910 0.930 . S
H919 C911 0.929 . S
H920 C928 0.929 . S
H921 C930 0.930 . S
H922 C932 0.930 . S
H923 C935 0.929 . S
H924 C938 0.930 . S
H925 C940 0.960 . S
H926 C940 0.960 . S
H927 C940 0.960 1_556 S
C928 H920 0.929 . S
C928 C929 1.377 . S
C928 C930 1.384 . S
C929 C928 1.377 . S
C929 C935 1.390 . S
C930 H921 0.930 . S
C930 C928 1.384 . S
C930 C931 1.372 . S
C931 C930 1.372 . S
C931 C932 1.400 . S
C931 C936 1.490 . S
C932 H922 0.930 . S
C932 C931 1.400 . S
C932 C935 1.386 . S
H933 C949 0.930 . S
H934 C950 0.931 . S
C935 H923 0.929 . S
C935 C929 1.390 . S
C935 C932 1.386 . S
C936 C931 1.490 . S
C936 C938 1.395 1_545 S
C936 C939 1.403 1_556 S
H937 C943 0.930 . S
C938 H924 0.930 . S
C938 C936 1.395 1_565 S
C938 C941 1.403 . S
C939 C936 1.403 1_554 S
C939 C940 1.524 . S
C939 C943 1.400 . S
C940 H925 0.960 . S
C940 H926 0.960 . S
C940 H927 0.960 1_554 S
C940 C939 1.524 . S
C941 C938 1.403 . S
C941 C942 1.392 1_556 S
C941 C945 1.495 . S
C942 C941 1.392 1_554 S
C942 C943 1.385 1_565 S
C942 C944 1.478 . S
C943 H937 0.930 . S
C943 C939 1.400 . S
C943 C942 1.385 1_545 S
C944 C942 1.478 . S
C944 C946 1.381 . S
C944 C950 1.383 . S
C945 C941 1.495 . S
C945 H951 0.959 . S
C945 H952 0.961 . S
C945 H953 0.960 1_556 S
C946 C944 1.381 . S
C946 C947 1.394 . S
C946 H954 0.930 . S
C947 C946 1.394 . S
C947 C948 1.383 . S
C947 H955 0.929 . S
C948 C947 1.383 . S
C948 C949 1.377 . S
C949 H933 0.930 . S
C949 C948 1.377 . S
C949 C950 1.379 . S
C950 H934 0.931 . S
C950 C944 1.383 . S
C950 C949 1.379 . S
H951 C945 0.959 . S
H952 C945 0.961 . S
H953 C945 0.960 1_554 S
H954 C946 0.930 . S
H955 C947 0.929 . S
H956 C964 0.929 . S
H957 C966 0.930 . S
H958 C968 0.930 . S
H959 C971 0.929 . S
H960 C974 0.930 . S
H961 C976 0.960 . S
H962 C976 0.960 . S
H963 C976 0.960 . S
C964 H956 0.929 . S
C964 C965 1.377 . S
C964 C966 1.384 . S
C965 C964 1.377 . S
C965 C971 1.390 . S
C966 H957 0.930 . S
C966 C964 1.384 . S
C966 C967 1.372 . S
C967 C966 1.372 . S
C967 C968 1.400 . S
C967 C972 1.490 . S
C968 H958 0.930 . S
C968 C967 1.400 . S
C968 C971 1.386 . S
H969 C985 0.929 1_655 S
H970 C986 0.940 . S
C971 H959 0.929 . S
C971 C965 1.390 . S
C971 C968 1.386 . S
C972 C967 1.490 . S
C972 C974 1.395 1_565 S
C972 C975 1.403 . S
H973 C979 0.930 . S
C974 H960 0.930 . S
C974 C972 1.395 1_545 S
C974 C977 1.403 . S
C975 C972 1.403 . S
C975 C976 1.524 . S
C975 C979 1.400 . S
C976 H961 0.960 . S
C976 H962 0.960 . S
C976 H963 0.960 . S
C976 C975 1.524 . S
C977 C974 1.403 . S
C977 C978 1.392 . S
C977 C981 1.495 . S
C978 C977 1.392 . S
C978 C979 1.385 1_545 S
C978 C980 1.478 . S
C979 H973 0.930 . S
C979 C975 1.400 . S
C979 C978 1.385 1_565 S
C980 C978 1.478 . S
C980 C982 1.381 . S
C980 C986 1.383 . S
C981 C977 1.495 . S
C981 H987 0.959 . S
C981 H988 0.961 . S
C981 H989 0.960 . S
C982 C980 1.381 . S
C982 C983 1.394 . S
C982 H990 0.930 . S
C983 C982 1.394 . S
C983 C984 1.383 . S
C983 H991 0.929 . S
C984 C983 1.383 . S
C984 C985 1.377 . S
C985 H969 0.929 1_455 S
C985 C984 1.377 . S
C985 C986 1.379 . S
C986 H970 0.940 . S
C986 C980 1.383 . S
C986 C985 1.379 . S
H987 C981 0.959 . S
H988 C981 0.961 . S
H989 C981 0.960 . S
H990 C982 0.930 . S
H991 C983 0.929 . S
C281 C206 1.537 . S
C300 C33 1.565 . S
C317 C67 1.569 . S
C336 C240 1.523 . S
C353 C138 1.543 . S
C372 C101 1.576 . S
C389 C135 1.568 . S
C408 C172 1.539 . S
C425 C169 1.568 . S
C444 C70 1.528 . S
C461 C203 1.568 . S
C480 C104 1.532 . S
C497 C2 1.544 . S
C516 C237 1.559 . S
C533 C36 1.537 . S
C552 C271 1.570 . S
C569 C20 2.083 . S
C588 C247 1.975 . S
C605 C54 2.082 . S
C624 C213 1.994 . S
C641 C179 1.973 . S
C660 C88 2.069 . S
C677 C122 2.084 . S
C696 C145 1.979 . S
C713 C156 2.079 . S
C732 C111 1.952 . S
C749 C77 1.973 1_655 S
C768 C190 2.071 . S
C785 C43 1.983 . S
C804 C224 2.084 . S
C821 C9 1.974 1_655 S
C840 C258 2.066 . S
C857 C73 0.446 . S
C876 C5 0.475 . S
C893 C39 0.433 . S
C912 C107 0.430 . S
C929 C209 0.432 . S
C948 C141 0.424 . S
C965 C243 0.433 . S
C984 C175 0.433 . S
