# Generated by pormake.
# Topology crb, (4)-cn, num edge types: 1
# Building blocks:
#     Node 0, Type 0, BuildingBlock: AZAVOO_clean_sbu_0, # of connection points: 4
#     Node 1, Type 0, BuildingBlock: AZAVOO_clean_sbu_0, # of connection points: 4
#     Node 2, Type 0, BuildingBlock: AZAVOO_clean_sbu_0, # of connection points: 4
#     Node 3, Type 0, BuildingBlock: AZAVOO_clean_sbu_0, # of connection points: 4
#     Node 4, Type 0, BuildingBlock: AZAVOO_clean_sbu_0, # of connection points: 4
#     Node 5, Type 0, BuildingBlock: AZAVOO_clean_sbu_0, # of connection points: 4
#     Node 6, Type 0, BuildingBlock: AZAVOO_clean_sbu_0, # of connection points: 4
#     Node 7, Type 0, BuildingBlock: AZAVOO_clean_sbu_0, # of connection points: 4
#     Edge 8, Type (0, 0), BuildingBlock: KIFKEQ_clean_linker_1, # of connection points: 2
#     Edge 9, Type (0, 0), BuildingBlock: KIFKEQ_clean_linker_1, # of connection points: 2
#     Edge 10, Type (0, 0), BuildingBlock: KIFKEQ_clean_linker_1, # of connection points: 2
#     Edge 11, Type (0, 0), BuildingBlock: KIFKEQ_clean_linker_1, # of connection points: 2
#     Edge 12, Type (0, 0), BuildingBlock: KIFKEQ_clean_linker_1, # of connection points: 2
#     Edge 13, Type (0, 0), BuildingBlock: KIFKEQ_clean_linker_1, # of connection points: 2
#     Edge 14, Type (0, 0), BuildingBlock: KIFKEQ_clean_linker_1, # of connection points: 2
#     Edge 15, Type (0, 0), BuildingBlock: KIFKEQ_clean_linker_1, # of connection points: 2
#     Edge 16, Type (0, 0), BuildingBlock: KIFKEQ_clean_linker_1, # of connection points: 2
#     Edge 17, Type (0, 0), BuildingBlock: KIFKEQ_clean_linker_1, # of connection points: 2
#     Edge 18, Type (0, 0), BuildingBlock: KIFKEQ_clean_linker_1, # of connection points: 2
#     Edge 19, Type (0, 0), BuildingBlock: KIFKEQ_clean_linker_1, # of connection points: 2
#     Edge 20, Type (0, 0), BuildingBlock: KIFKEQ_clean_linker_1, # of connection points: 2
#     Edge 21, Type (0, 0), BuildingBlock: KIFKEQ_clean_linker_1, # of connection points: 2
#     Edge 22, Type (0, 0), BuildingBlock: KIFKEQ_clean_linker_1, # of connection points: 2
#     Edge 23, Type (0, 0), BuildingBlock: KIFKEQ_clean_linker_1, # of connection points: 2
# Relax obj value: 0.038
# Max RMSD: 0.066
# Mean RMSD: 0.066
data_MOF--net-crb--node1-AZAVOO_clean_sbu_0--edge1-KIFKEQ_clean_linker_1
_symmetry_space_group_name_H-M    P1
_symmetry_Int_Tables_number       1
_symmetry_cell_setting            triclinic
loop_
_symmetry_equiv_pos_as_xyz
'x, y, z'
_cell_length_a     44.955204
_cell_length_b     37.267087
_cell_length_c     27.23729
_cell_angle_alpha  90.097027
_cell_angle_beta   89.982453
_cell_angle_gamma 90.092356
loop_
_atom_site_label
_atom_site_type_symbol
_atom_site_fract_x
_atom_site_fract_y
_atom_site_fract_z
_atom_type_partial_charge
Mg0 Mg 0.34703 0.31242 0.91478 0.0
O1 O 0.33249 0.37084 0.92776 0.0
O2 O 0.28299 0.37184 0.91952 0.0
Mg3 Mg 0.26654 0.31686 0.89276 0.0
C4 C 0.30762 0.38738 0.92952 0.0
C5 C 0.41217 0.33984 0.92341 0.0
O6 O 0.40457 0.35178 0.87986 0.0
O7 O 0.32617 0.29589 -0.0116 0.0
O8 O 0.27797 0.29283 0.96762 0.0
O9 O 0.3538 0.32157 0.83413 0.0
O10 O 0.31137 0.30433 0.86682 0.0
C11 C 0.29913 0.28776 -0.00189 0.0
C12 C 0.32612 0.3131 0.82825 0.0
O13 O 0.3928 0.32344 0.94911 0.0
Mg14 Mg 0.6927 0.30808 0.03341 0.0
O15 O 0.70495 0.3681 0.03394 0.0
O16 O 0.75372 0.37222 0.04914 0.0
Mg17 Mg 0.77237 0.31616 0.06284 0.0
C18 C 0.72867 0.38664 0.03939 0.0
C19 C 0.62792 0.33599 0.02689 0.0
O20 O 0.63563 0.34561 0.07153 0.0
O21 O 0.71587 0.30115 0.9588 0.0
O22 O 0.76361 0.3035 -0.01774 0.0
O23 O 0.68475 0.30817 0.11491 0.0
O24 O 0.72786 0.29637 0.08009 0.0
C25 C 0.74373 0.29931 0.94925 0.0
C26 C 0.71263 0.3003 0.11953 0.0
O27 O 0.64717 0.32079 -0.00038 0.0
Mg28 Mg 0.68743 0.72678 0.94114 0.0
O29 O 0.70105 0.66856 0.95645 0.0
O30 O 0.75058 0.66602 0.9491 0.0
Mg31 Mg 0.76811 0.72037 0.92201 0.0
C32 C 0.72556 0.65137 0.95893 0.0
C33 C 0.61966 0.72622 0.94557 0.0
O34 O 0.62584 0.73986 0.9023 0.0
O35 O 0.70736 0.74441 0.01495 0.0
O36 O 0.75591 0.74532 -0.00412 0.0
O37 O 0.68228 0.71492 0.86075 0.0
O38 O 0.7238 0.73373 0.89519 0.0
C39 C 0.73447 0.75165 0.0254 0.0
C40 C 0.71006 0.72352 0.85633 0.0
O41 O 0.64108 0.7171 -0.02661 0.0
Mg42 Mg 0.33708 0.72387 0.05956 0.0
O43 O 0.32505 0.66505 0.0436 0.0
O44 O 0.27559 0.6606 0.05005 0.0
Mg45 Mg 0.25672 0.71409 0.07813 0.0
C46 C 0.30098 0.64693 0.04039 0.0
C47 C 0.40496 0.72582 0.05462 0.0
O48 O 0.39872 0.73936 0.09798 0.0
O49 O 0.31679 0.74084 -0.01414 0.0
O50 O 0.26822 0.7404 0.00456 0.0
O51 O 0.34319 0.71267 0.13964 0.0
O52 O 0.30061 0.7289 0.10651 0.0
C53 C 0.28963 0.74744 -0.02476 0.0
C54 C 0.31521 0.71976 0.14507 0.0
O55 O 0.38358 0.71612 0.02696 0.0
Mg56 Mg 0.83982 0.80411 0.44139 0.0
O57 O 0.8304 0.86425 0.4542 0.0
O58 O 0.78178 0.87233 0.44124 0.0
Mg59 Mg 0.7602 0.81922 0.41943 0.0
C60 C 0.80745 0.88444 0.4527 0.0
C61 C 0.9052 0.78828 0.45393 0.0
O62 O 0.89553 0.76546 0.42071 0.0
O63 O 0.81827 0.79041 0.51534 0.0
O64 O 0.77029 0.7974 0.49585 0.0
O65 O 0.84693 0.81269 0.3609 0.0
O66 O 0.80346 0.80006 0.39414 0.0
C67 C 0.79062 0.78865 0.52629 0.0
C68 C 0.81865 0.80745 0.35548 0.0
O69 O 0.88662 0.80967 0.47351 0.0
Mg70 Mg 0.1881 0.81011 0.55964 0.0
O71 O 0.20119 0.86874 0.54349 0.0
O72 O 0.25078 0.87097 0.55018 0.0
Mg73 Mg 0.26855 0.81724 0.57882 0.0
C74 C 0.22585 0.88572 0.54023 0.0
C75 C 0.12495 0.79028 0.5329 0.0
O76 O 0.13633 0.76145 0.55327 0.0
O77 O 0.20828 0.79251 0.48608 0.0
O78 O 0.25676 0.79104 0.50519 0.0
O79 O 0.18168 0.8213 0.63969 0.0
O80 O 0.22423 0.80458 0.60682 0.0
C81 C 0.23527 0.78483 0.47567 0.0
C82 C 0.20958 0.81384 0.64533 0.0
O83 O 0.14162 0.81758 0.52724 0.0
Mg84 Mg 0.1972 0.22312 0.41416 0.0
O85 O 0.20816 0.16364 0.42753 0.0
O86 O 0.25754 0.15863 0.42018 0.0
Mg87 Mg 0.27729 0.21197 0.3934 0.0
C88 C 0.23204 0.14515 0.4298 0.0
C89 C 0.1306 0.2011 0.42255 0.0
O90 O 0.13763 0.18742 0.37963 0.0
O91 O 0.2185 0.23822 0.48797 0.0
O92 O 0.26689 0.23741 0.468 0.0
O93 O 0.19039 0.21425 0.33345 0.0
O94 O 0.23346 0.2282 0.3668 0.0
C95 C 0.24584 0.24427 0.49809 0.0
C96 C 0.21849 0.22062 0.32797 0.0
O97 O 0.1508 0.21636 0.44786 0.0
Mg98 Mg 0.8482 0.22705 0.533 0.0
O99 O 0.83652 0.16692 0.53283 0.0
O100 O 0.7883 0.16164 0.55133 0.0
Mg101 Mg 0.76883 0.21758 0.56304 0.0
C102 C 0.81336 0.14775 0.54023 0.0
C103 C 0.91448 0.236 0.51292 0.0
O104 O 0.90775 0.26328 0.54145 0.0
O105 O 0.82509 0.23359 0.45859 0.0
O106 O 0.77743 0.22971 0.48209 0.0
O107 O 0.85632 0.2266 0.61432 0.0
O108 O 0.81306 0.23836 0.57987 0.0
C109 C 0.79722 0.23446 0.44904 0.0
C110 C 0.8284 0.23432 0.61916 0.0
O111 O 0.89377 0.21475 0.49978 0.0
H112 H 0.35314 0.43638 0.92668 0.0
H113 H 0.26091 0.42455 0.96796 0.0
H114 H 0.35181 0.49916 0.9519 0.0
H115 H 0.25989 0.48645 -0.00431 0.0
H116 H 0.34848 0.60109 0.04449 0.0
H117 H 0.35036 0.53854 0.01842 0.0
H118 H 0.25889 0.54545 0.97008 0.0
H119 H 0.2567 0.60714 -0.00132 0.0
C120 C 0.33264 0.44714 0.94152 0.0
C121 C 0.30708 0.42553 0.945 0.0
C122 C 0.3319 0.48313 0.95638 0.0
C123 C 0.30571 0.49823 -0.0241 0.0
C124 C 0.28029 0.47629 -0.02018 0.0
C125 C 0.2809 0.44058 0.96416 0.0
C126 C 0.32878 0.58913 0.0284 0.0
C127 C 0.30239 0.60901 0.02398 0.0
C128 C 0.32989 0.55327 0.01306 0.0
C129 C 0.30476 0.53658 -0.00791 0.0
C130 C 0.27852 0.55685 -0.01293 0.0
C131 C 0.27727 0.59243 0.00322 0.0
H132 H 0.43596 0.31954 0.01189 0.0
H133 H 0.45952 0.3664 0.87212 0.0
H134 H 0.48824 0.32084 0.03634 0.0
H135 H 0.51161 0.36786 0.89674 0.0
H136 H 0.60399 0.32056 0.93657 0.0
H137 H 0.55173 0.32371 0.91228 0.0
H138 H 0.52876 0.36364 0.05628 0.0
H139 H 0.58082 0.36033 0.0807 0.0
C140 C 0.45221 0.33039 -0.01345 0.0
C141 C 0.44352 0.34277 0.94001 0.0
C142 C 0.48216 0.33126 0.00063 0.0
C143 C 0.5041 0.34431 0.96836 0.0
C144 C 0.49532 0.35721 0.92217 0.0
C145 C 0.46539 0.35658 0.90824 0.0
C146 C 0.58782 0.33025 0.96293 0.0
C147 C 0.59661 0.34009 0.01061 0.0
C148 C 0.55789 0.33218 0.94896 0.0
C149 C 0.53607 0.34377 -0.01754 0.0
C150 C 0.54496 0.35416 0.02984 0.0
C151 C 0.57486 0.35247 0.04369 0.0
H152 H 0.77453 0.43052 0.01393 0.0
H153 H 0.68043 0.4314 0.04571 0.0
H154 H 0.77298 0.49408 -0.00425 0.0
H155 H 0.67904 0.49587 0.03032 0.0
H156 H 0.68029 0.60291 0.94811 0.0
H157 H 0.68056 0.53939 0.96926 0.0
H158 H 0.76954 0.55104 0.02781 0.0
H159 H 0.76974 0.61378 0.00378 0.0
C160 C 0.75356 0.4445 0.01793 0.0
C161 C 0.72761 0.4259 0.03135 0.0
C162 C 0.75267 0.48117 0.00778 0.0
C163 C 0.7259 0.50053 0.01173 0.0
C164 C 0.69998 0.48193 0.02599 0.0
C165 C 0.70078 0.44498 0.03522 0.0
C166 C 0.69986 0.59177 0.96551 0.0
C167 C 0.7251 0.61321 -0.02618 0.0
C168 C 0.69999 0.55536 -0.02197 0.0
C169 C 0.72515 0.53969 0.0001 0.0
C170 C 0.75002 0.56165 0.0097 0.0
C171 C 0.75011 0.59779 -0.0038 0.0
H172 H 0.45465 0.74314 0.10695 0.0
H173 H 0.42649 0.70122 0.9664 0.0
H174 H 0.50627 0.74019 0.08066 0.0
H175 H 0.47843 0.69766 0.94033 0.0
H176 H 0.56992 0.74203 0.89271 0.0
H177 H 0.51831 0.73902 0.91903 0.0
H178 H 0.54624 0.69873 0.06029 0.0
H179 H 0.59819 0.70236 0.03417 0.0
C180 C 0.45947 0.73303 0.07051 0.0
C181 C 0.43638 0.7226 0.03867 0.0
C182 C 0.48915 0.73107 0.05559 0.0
C183 C 0.49654 0.71867 0.00841 0.0
C184 C 0.47348 0.70773 -0.02325 0.0
C185 C 0.44372 0.70963 -0.00827 0.0
C186 C 0.56513 0.73238 0.92936 0.0
C187 C 0.58824 0.72263 0.96144 0.0
C188 C 0.53545 0.7304 0.94431 0.0
C189 C 0.52809 0.71865 -0.00823 0.0
C190 C 0.55117 0.70831 0.02366 0.0
C191 C 0.58093 0.71023 0.00863 0.0
H192 H 0.85643 0.92045 0.48841 0.0
H193 H 0.76452 0.93593 0.44688 0.0
H194 H 0.85949 0.98344 0.51328 0.0
H195 H 0.76782 0.99853 0.47062 0.0
H196 H 0.77121 0.09766 0.5632 0.0
H197 H 0.77156 0.03393 0.54435 0.0
H198 H 0.85902 0.04456 0.48018 0.0
H199 H 0.85901 0.10848 0.50012 0.0
C200 C 0.83696 0.93726 0.48426 0.0
C201 C 0.81018 0.92298 0.46587 0.0
C202 C 0.83876 0.97338 0.49839 0.0
C203 C 0.81381 0.99595 0.49445 0.0
C204 C 0.78728 0.98175 0.47523 0.0
C205 C 0.78546 0.9458 0.46124 0.0
C206 C 0.79066 0.08646 0.54542 0.0
C207 C 0.81497 0.10835 0.53278 0.0
C208 C 0.79077 0.04989 0.53434 0.0
C209 C 0.81512 0.03421 0.51005 0.0
C210 C 0.83996 0.05574 0.49909 0.0
C211 C 0.8399 0.09243 0.51039 0.0
H212 H 0.08632 0.73402 0.53173 0.0
H213 H 0.09105 0.84814 0.50493 0.0
H214 H 0.03337 0.73469 0.51372 0.0
H215 H 0.03769 0.84869 0.48645 0.0
H216 H 0.93502 0.83748 0.51121 0.0
H217 H 0.98842 0.83917 0.52937 0.0
H218 H 1.00115 0.74372 0.4418 0.0
H219 H 0.9482 0.74182 0.42404 0.0
C220 C 0.0761 0.75928 0.52174 0.0
C221 C 0.09297 0.79102 0.51963 0.0
C222 C 0.04571 0.75961 0.51125 0.0
C223 C 0.03133 0.79173 0.49859 0.0
C224 C 0.04812 0.82358 0.49651 0.0
C225 C 0.0787 0.8232 0.50668 0.0
C226 C 0.94925 0.81682 0.49603 0.0
C227 C 0.93731 0.78944 0.46636 0.0
C228 C 0.97983 0.81795 0.5061 0.0
C229 C 0.99898 0.79153 0.48708 0.0
C230 C 0.98696 0.76423 0.45749 0.0
C231 C 0.95657 0.76324 0.44718 0.0
H232 H 0.27641 0.10454 0.46891 0.0
H233 H 0.18392 0.09982 0.42668 0.0
H234 H 0.27404 0.04274 0.49642 0.0
H235 H 0.18182 0.03703 0.45175 0.0
H236 H 0.18019 0.93444 0.54387 0.0
H237 H 0.18114 0.99708 0.51789 0.0
H238 H 0.27216 0.98405 0.46953 0.0
H239 H 0.27156 0.92241 0.49794 0.0
C240 C 0.25563 0.09009 0.46487 0.0
C241 C 0.23039 0.10709 0.44541 0.0
C242 C 0.25428 0.05443 0.4804 0.0
C243 C 0.22779 0.03444 0.47604 0.0
C244 C 0.20251 0.05153 0.45644 0.0
C245 C 0.20374 0.08751 0.4417 0.0
C246 C 0.20038 0.9451 0.52777 0.0
C247 C 0.22587 0.92354 0.5234 0.0
C248 C 0.20091 0.98099 0.51251 0.0
C249 C 0.2268 0.99601 0.49173 0.0
C250 C 0.25203 0.97399 0.48649 0.0
C251 C 0.25166 0.93842 0.50254 0.0
H252 H 0.96216 0.27965 0.52918 0.0
H253 H 0.93798 0.17745 0.46547 0.0
H254 H 1.014 0.26879 0.50891 0.0
H255 H 0.99021 0.16604 0.44631 0.0
H256 H 0.0818 0.17835 0.3714 0.0
H257 H 0.02968 0.18545 0.39337 0.0
H258 H 0.05561 0.2327 0.53193 0.0
H259 H 0.10783 0.22658 0.50924 0.0
C260 C 0.96792 0.25475 0.51098 0.0
C261 C 0.94588 0.22943 0.49892 0.0
C262 C 0.99776 0.24836 0.49973 0.0
C263 C 1.00644 0.21638 0.47635 0.0
C264 C 0.98434 0.19111 0.46394 0.0
C265 C 0.95439 0.1976 0.47502 0.0
C266 C 0.07643 0.19 0.40675 0.0
C267 C 0.09904 0.20214 0.43841 0.0
C268 C 0.04647 0.19392 0.41947 0.0
C269 C 0.03834 0.20993 0.46427 0.0
C270 C 0.06101 0.22092 0.49668 0.0
C271 C 0.09099 0.21716 0.48385 0.0
H272 H 0.19045 0.2225 0.23952 0.0
H273 H 0.27786 0.22345 0.30516 0.0
H274 H 0.21234 0.23467 0.15988 0.0
H275 H 0.30008 0.23369 0.22499 0.0
H276 H 0.32366 0.30163 0.08828 0.0
H277 H 0.3058 0.28015 0.16774 0.0
H278 H 0.24014 0.21444 0.09386 0.0
H279 H 0.25689 0.23762 0.01528 0.0
C280 C 0.21444 0.22434 0.23674 0.0
C281 C 0.23236 0.22214 0.27878 0.0
C282 C 0.2271 0.23118 0.19088 0.0
C283 C 0.2581 0.23539 0.18574 0.0
C284 C 0.27612 0.2314 0.22756 0.0
C285 C 0.26338 0.22512 0.27359 0.0
C286 C 0.30561 0.28234 0.08929 0.0
C287 C 0.29135 0.27168 0.04586 0.0
C288 C 0.29542 0.26982 0.13476 0.0
C289 C 0.27116 0.24583 0.13748 0.0
C290 C 0.25821 0.23367 0.09351 0.0
C291 C 0.26795 0.24676 0.04837 0.0
H292 H 0.68856 0.31237 0.21037 0.0
H293 H 0.76831 0.27511 0.13793 0.0
H294 H 0.71064 0.298 0.28983 0.0
H295 H 0.79002 0.26016 0.21687 0.0
H296 H 0.82887 0.26429 0.37296 0.0
H297 H 0.80939 0.28383 0.29355 0.0
H298 H 0.72251 0.24331 0.33306 0.0
H299 H 0.74163 0.2246 0.41216 0.0
C300 C 0.71085 0.3014 0.21143 0.0
C301 C 0.72667 0.29492 0.16792 0.0
C302 C 0.72344 0.29295 0.25685 0.0
C303 C 0.75201 0.27764 0.25959 0.0
C304 C 0.76814 0.27226 0.21611 0.0
C305 C 0.75562 0.28081 0.17079 0.0
C306 C 0.80569 0.25932 0.36442 0.0
C307 C 0.78678 0.24311 0.39898 0.0
C308 C 0.79452 0.27056 0.31902 0.0
C309 C 0.76428 0.26562 0.30735 0.0
C310 C 0.74569 0.24841 0.3414 0.0
C311 C 0.75677 0.23738 0.38663 0.0
H312 H 0.75912 0.80812 0.33386 0.0
H313 H 0.84602 0.80664 0.26627 0.0
H314 H 0.73596 0.80179 0.25396 0.0
H315 H 0.823 0.79826 0.18642 0.0
H316 H 0.77699 0.80125 0.0433 0.0
H317 H 0.79487 0.82222 0.12254 0.0
H318 H 0.72858 0.75666 0.19493 0.0
H319 H 0.70971 0.73738 0.11503 0.0
C320 C 0.77334 0.80677 0.30197 0.0
C321 C 0.80447 0.8079 0.30655 0.0
C322 C 0.76 0.80273 0.25602 0.0
C323 C 0.7775 0.79913 0.21358 0.0
C324 C 0.80867 0.80151 0.21806 0.0
C325 C 0.82197 0.80613 0.26398 0.0
C326 C 0.76597 0.79183 0.07625 0.0
C327 C 0.74217 0.76748 0.07328 0.0
C328 C 0.77635 0.80361 0.12169 0.0
C329 C 0.76362 0.79066 0.16533 0.0
C330 C 0.73882 0.76753 0.16218 0.0
C331 C 0.72801 0.75631 0.11647 0.0
H332 H 0.27704 0.73428 0.45807 0.0
H333 H 0.21028 0.79839 0.38601 0.0
H334 H 0.29334 0.71093 0.3792 0.0
H335 H 0.22774 0.77693 0.3063 0.0
H336 H 0.25577 0.72234 0.16757 0.0
H337 H 0.23344 0.73142 0.24799 0.0
H338 H 0.3211 0.73103 0.31352 0.0
H339 H 0.34303 0.71993 0.23366 0.0
C340 C 0.26587 0.74337 0.42512 0.0
C341 C 0.24262 0.76837 0.42794 0.0
C342 C 0.27535 0.7302 0.3798 0.0
C343 C 0.26234 0.74247 0.33599 0.0
C344 C 0.23817 0.76649 0.3391 0.0
C345 C 0.22821 0.77901 0.38473 0.0
C346 C 0.27019 0.72345 0.19929 0.0
C347 C 0.30119 0.72044 0.19418 0.0
C348 C 0.25739 0.72905 0.24548 0.0
C349 C 0.27536 0.73237 0.28753 0.0
C350 C 0.30634 0.72804 0.28238 0.0
C351 C 0.31904 0.72183 0.23638 0.0
H352 H 0.26896 0.81227 0.66832 0.0
H353 H 0.18145 0.81206 0.73361 0.0
H354 H 0.29113 0.80265 0.74868 0.0
H355 H 0.20323 0.80045 0.81337 0.0
H356 H 0.24691 0.79683 0.95828 0.0
H357 H 0.23041 0.8204 0.87978 0.0
H358 H 0.29737 0.75674 0.806 0.0
H359 H 0.31502 0.7351 0.88542 0.0
C360 C 0.25445 0.81042 0.69986 0.0
C361 C 0.22343 0.81287 0.69453 0.0
C362 C 0.26715 0.80454 0.74601 0.0
C363 C 0.24908 0.80036 0.7878 0.0
C364 C 0.21806 0.80411 0.78247 0.0
C365 C 0.20545 0.81062 0.73652 0.0
C366 C 0.25831 0.78829 0.92522 0.0
C367 C 0.28202 0.76391 0.92771 0.0
C368 C 0.24873 0.80158 0.88011 0.0
C369 C 0.26209 0.79004 0.83615 0.0
C370 C 0.28666 0.76662 0.83894 0.0
C371 C 0.29673 0.75398 0.88439 0.0
H372 H 0.35479 0.30875 0.74063 0.0
H373 H 0.26688 0.31138 0.80431 0.0
H374 H 0.33335 0.29581 0.66085 0.0
H375 H 0.2451 0.30045 0.72397 0.0
H376 H 0.22045 0.23246 0.58806 0.0
H377 H 0.23848 0.25394 0.66747 0.0
H378 H 0.30683 0.31549 0.59368 0.0
H379 H 0.2899 0.2921 0.51523 0.0
C380 C 0.33079 0.30751 0.73734 0.0
C381 C 0.31257 0.31089 0.7789 0.0
C382 C 0.31838 0.30023 0.6914 0.0
C383 C 0.28735 0.29685 0.68565 0.0
C384 C 0.26908 0.30201 0.72699 0.0
C385 C 0.28157 0.30864 0.77313 0.0
C386 C 0.23916 0.25079 0.5891 0.0
C387 C 0.25407 0.26023 0.54577 0.0
C388 C 0.24945 0.26334 0.63453 0.0
C389 C 0.27446 0.2862 0.63731 0.0
C390 C 0.28815 0.29711 0.59337 0.0
C391 C 0.27833 0.28392 0.54828 0.0
H392 H 0.79926 0.30899 0.91227 0.0
H393 H 0.71197 0.26937 0.87318 0.0
H394 H 0.81834 0.2902 0.83315 0.0
H395 H 0.73143 0.24972 0.79363 0.0
H396 H 0.7726 0.25902 0.63795 0.0
H397 H 0.75079 0.27343 0.71706 0.0
H398 H 0.83028 0.23567 0.78953 0.0
H399 H 0.85248 0.22187 0.70987 0.0
C400 C 0.78409 0.29618 0.88676 0.0
C401 C 0.75408 0.29051 0.89914 0.0
C402 C 0.79516 0.28509 0.8415 0.0
C403 C 0.77657 0.26787 0.80744 0.0
C404 C 0.74632 0.26298 0.81914 0.0
C405 C 0.73514 0.27429 0.86459 0.0
C406 C 0.78531 0.25321 0.67073 0.0
C407 C 0.81433 0.23933 0.66766 0.0
C408 C 0.77271 0.26144 0.71615 0.0
C409 C 0.78884 0.25595 0.75956 0.0
C410 C 0.81748 0.24081 0.75661 0.0
C411 C 0.83014 0.23268 0.71107 0.0
H412 H 0.76556 0.74893 0.83583 0.0
H413 H 0.68857 0.70013 0.76793 0.0
H414 H 0.78716 0.75959 0.75546 0.0
H415 H 0.71063 0.71005 0.68719 0.0
H416 H 0.73432 0.78711 0.56278 0.0
H417 H 0.71753 0.76463 0.64117 0.0
H418 H 0.8078 0.73626 0.67908 0.0
H419 H 0.825 0.75965 0.60001 0.0
C420 C 0.75357 0.73959 0.80379 0.0
C421 C 0.72516 0.72404 0.8082 0.0
C422 C 0.76607 0.74561 0.75764 0.0
C423 C 0.75045 0.73614 0.71491 0.0
C424 C 0.72294 0.71834 0.71948 0.0
C425 C 0.71036 0.71247 0.76568 0.0
C426 C 0.75074 0.77602 0.58756 0.0
C427 C 0.78109 0.77527 0.575 0.0
C428 C 0.74098 0.76272 0.63245 0.0
C429 C 0.76124 0.74817 0.66614 0.0
C430 C 0.79165 0.74739 0.65386 0.0
C431 C 0.8015 0.76081 0.60865 0.0
loop_
_geom_bond_atom_site_label_1
_geom_bond_atom_site_label_2
_geom_bond_distance
_geom_bond_site_symmetry_2
_ccdc_geom_bond_type
Mg0 O1 2.028 . S
Mg0 O7 1.986 . S
Mg0 O9 2.114 1_554 S
Mg0 O10 2.251 1_554 S
Mg0 O13 2.010 . S
O1 Mg0 2.028 . S
O1 C4 1.250 . S
O2 Mg3 2.028 . S
O2 C4 1.248 . S
Mg3 O2 2.028 . S
Mg3 O8 2.032 . S
Mg3 O10 2.079 1_554 S
C4 O1 1.250 . S
C4 O2 1.248 . S
C5 O6 1.264 . S
C5 O13 1.249 . S
O6 C5 1.264 . S
O7 Mg0 1.986 . S
O7 C11 1.246 . S
O8 Mg3 2.032 . S
O8 C11 1.259 . S
O9 Mg0 2.114 1_556 S
O9 C12 1.252 . S
O10 Mg0 2.251 1_556 S
O10 Mg3 2.079 1_556 S
O10 C12 1.273 . S
C11 O7 1.246 . S
C11 O8 1.259 . S
C12 O9 1.252 . S
C12 O10 1.273 . S
O13 Mg0 2.010 . S
O13 C5 1.249 . S
Mg14 O15 2.028 . S
Mg14 O21 1.986 1_554 S
Mg14 O23 2.114 . S
Mg14 O24 2.251 . S
Mg14 O27 2.010 . S
O15 Mg14 2.028 . S
O15 C18 1.250 . S
O16 Mg17 2.028 . S
O16 C18 1.248 . S
Mg17 O16 2.028 . S
Mg17 O22 2.032 1_554 S
Mg17 O24 2.079 . S
C18 O15 1.250 . S
C18 O16 1.248 . S
C19 O20 1.264 . S
C19 O27 1.249 . S
O20 C19 1.264 . S
O21 Mg14 1.986 1_556 S
O21 C25 1.246 . S
O22 Mg17 2.032 1_556 S
O22 C25 1.259 . S
O23 Mg14 2.114 . S
O23 C26 1.252 . S
O24 Mg14 2.251 . S
O24 Mg17 2.079 . S
O24 C26 1.273 . S
C25 O21 1.246 . S
C25 O22 1.259 . S
C26 O23 1.252 . S
C26 O24 1.273 . S
O27 Mg14 2.010 . S
O27 C19 1.249 . S
Mg28 O29 2.028 . S
Mg28 O35 1.986 . S
Mg28 O37 2.114 1_554 S
Mg28 O38 2.251 1_554 S
Mg28 O41 2.010 . S
O29 Mg28 2.028 . S
O29 C32 1.250 . S
O30 Mg31 2.028 . S
O30 C32 1.248 . S
Mg31 O30 2.028 . S
Mg31 O36 2.032 . S
Mg31 O38 2.079 1_554 S
C32 O29 1.250 . S
C32 O30 1.248 . S
C33 O34 1.264 . S
C33 O41 1.249 . S
O34 C33 1.264 . S
O35 Mg28 1.986 . S
O35 C39 1.246 . S
O36 Mg31 2.032 . S
O36 C39 1.259 . S
O37 Mg28 2.114 1_556 S
O37 C40 1.252 . S
O38 Mg28 2.251 1_556 S
O38 Mg31 2.079 1_556 S
O38 C40 1.273 . S
C39 O35 1.246 . S
C39 O36 1.259 . S
C40 O37 1.252 . S
C40 O38 1.273 . S
O41 Mg28 2.010 . S
O41 C33 1.249 . S
Mg42 O43 2.028 . S
Mg42 O49 1.986 1_554 S
Mg42 O51 2.114 . S
Mg42 O52 2.251 . S
Mg42 O55 2.010 . S
O43 Mg42 2.028 . S
O43 C46 1.250 . S
O44 Mg45 2.028 . S
O44 C46 1.248 . S
Mg45 O44 2.028 . S
Mg45 O50 2.032 1_554 S
Mg45 O52 2.079 . S
C46 O43 1.250 . S
C46 O44 1.248 . S
C47 O48 1.264 . S
C47 O55 1.249 . S
O48 C47 1.264 . S
O49 Mg42 1.986 1_556 S
O49 C53 1.246 . S
O50 Mg45 2.032 1_556 S
O50 C53 1.259 . S
O51 Mg42 2.114 . S
O51 C54 1.252 . S
O52 Mg42 2.251 . S
O52 Mg45 2.079 . S
O52 C54 1.273 . S
C53 O49 1.246 . S
C53 O50 1.259 . S
C54 O51 1.252 . S
C54 O52 1.273 . S
O55 Mg42 2.010 . S
O55 C47 1.249 . S
Mg56 O57 2.028 . S
Mg56 O63 1.986 . S
Mg56 O65 2.114 . S
Mg56 O66 2.251 . S
Mg56 O69 2.010 . S
O57 Mg56 2.028 . S
O57 C60 1.250 . S
O58 Mg59 2.028 . S
O58 C60 1.248 . S
Mg59 O58 2.028 . S
Mg59 O64 2.032 . S
Mg59 O66 2.079 . S
C60 O57 1.250 . S
C60 O58 1.248 . S
C61 O62 1.264 . S
C61 O69 1.249 . S
O62 C61 1.264 . S
O63 Mg56 1.986 . S
O63 C67 1.246 . S
O64 Mg59 2.032 . S
O64 C67 1.259 . S
O65 Mg56 2.114 . S
O65 C68 1.252 . S
O66 Mg56 2.251 . S
O66 Mg59 2.079 . S
O66 C68 1.273 . S
C67 O63 1.246 . S
C67 O64 1.259 . S
C68 O65 1.252 . S
C68 O66 1.273 . S
O69 Mg56 2.010 . S
O69 C61 1.249 . S
Mg70 O71 2.028 . S
Mg70 O77 1.986 . S
Mg70 O79 2.114 . S
Mg70 O80 2.251 . S
Mg70 O83 2.010 . S
O71 Mg70 2.028 . S
O71 C74 1.250 . S
O72 Mg73 2.028 . S
O72 C74 1.248 . S
Mg73 O72 2.028 . S
Mg73 O78 2.032 . S
Mg73 O80 2.079 . S
C74 O71 1.250 . S
C74 O72 1.248 . S
C75 O76 1.264 . S
C75 O83 1.249 . S
O76 C75 1.264 . S
O77 Mg70 1.986 . S
O77 C81 1.246 . S
O78 Mg73 2.032 . S
O78 C81 1.259 . S
O79 Mg70 2.114 . S
O79 C82 1.252 . S
O80 Mg70 2.251 . S
O80 Mg73 2.079 . S
O80 C82 1.273 . S
C81 O77 1.246 . S
C81 O78 1.259 . S
C82 O79 1.252 . S
C82 O80 1.273 . S
O83 Mg70 2.010 . S
O83 C75 1.249 . S
Mg84 O85 2.028 . S
Mg84 O91 1.986 . S
Mg84 O93 2.114 . S
Mg84 O94 2.251 . S
Mg84 O97 2.010 . S
O85 Mg84 2.028 . S
O85 C88 1.250 . S
O86 Mg87 2.028 . S
O86 C88 1.248 . S
Mg87 O86 2.028 . S
Mg87 O92 2.032 . S
Mg87 O94 2.079 . S
C88 O85 1.250 . S
C88 O86 1.248 . S
C89 O90 1.264 . S
C89 O97 1.249 . S
O90 C89 1.264 . S
O91 Mg84 1.986 . S
O91 C95 1.246 . S
O92 Mg87 2.032 . S
O92 C95 1.259 . S
O93 Mg84 2.114 . S
O93 C96 1.252 . S
O94 Mg84 2.251 . S
O94 Mg87 2.079 . S
O94 C96 1.273 . S
C95 O91 1.246 . S
C95 O92 1.259 . S
C96 O93 1.252 . S
C96 O94 1.273 . S
O97 Mg84 2.010 . S
O97 C89 1.249 . S
Mg98 O99 2.028 . S
Mg98 O105 1.986 . S
Mg98 O107 2.114 . S
Mg98 O108 2.251 . S
Mg98 O111 2.010 . S
O99 Mg98 2.028 . S
O99 C102 1.250 . S
O100 Mg101 2.028 . S
O100 C102 1.248 . S
Mg101 O100 2.028 . S
Mg101 O106 2.032 . S
Mg101 O108 2.079 . S
C102 O99 1.250 . S
C102 O100 1.248 . S
C103 O104 1.264 . S
C103 O111 1.249 . S
O104 C103 1.264 . S
O105 Mg98 1.986 . S
O105 C109 1.246 . S
O106 Mg101 2.032 . S
O106 C109 1.259 . S
O107 Mg98 2.114 . S
O107 C110 1.252 . S
O108 Mg98 2.251 . S
O108 Mg101 2.079 . S
O108 C110 1.273 . S
C109 O105 1.246 . S
C109 O106 1.259 . S
C110 O107 1.252 . S
C110 O108 1.273 . S
O111 Mg98 2.010 . S
O111 C103 1.249 . S
H112 C120 0.950 . S
H113 C125 0.950 . S
H114 C122 0.950 . S
H115 C124 0.950 . S
H116 C126 0.950 . S
H117 C128 0.950 . S
H118 C130 0.950 . S
H119 C131 0.950 . S
C120 H112 0.950 . S
C120 C121 1.386 1_556 S
C120 C122 1.391 . S
C121 C120 1.386 1_554 S
C121 C125 1.393 . S
C122 H114 0.950 . S
C122 C120 1.391 . S
C122 C123 1.400 1_556 S
C123 C122 1.400 1_554 S
C123 C124 1.398 . S
C123 C129 1.491 . S
C124 H115 0.950 . S
C124 C123 1.398 . S
C124 C125 1.391 . S
C125 H113 0.950 . S
C125 C121 1.393 . S
C125 C124 1.391 . S
C126 H116 0.950 . S
C126 C127 1.386 . S
C126 C128 1.391 . S
C127 C126 1.386 . S
C127 C131 1.393 1_554 S
C128 H117 0.950 . S
C128 C126 1.391 . S
C128 C129 1.400 . S
C129 C123 1.491 . S
C129 C128 1.400 . S
C129 C130 1.398 1_554 S
C130 H118 0.950 . S
C130 C129 1.398 1_556 S
C130 C131 1.391 . S
C131 H119 0.950 . S
C131 C127 1.393 1_556 S
C131 C130 1.391 . S
H132 C140 0.950 . S
H133 C145 0.950 . S
H134 C142 0.950 . S
H135 C144 0.950 . S
H136 C146 0.950 . S
H137 C148 0.950 . S
H138 C150 0.950 . S
H139 C151 0.950 . S
C140 H132 0.950 . S
C140 C141 1.386 . S
C140 C142 1.391 . S
C141 C140 1.386 . S
C141 C145 1.393 1_554 S
C142 H134 0.950 . S
C142 C140 1.391 . S
C142 C143 1.400 . S
C143 C142 1.400 . S
C143 C144 1.398 1_554 S
C143 C149 1.491 . S
C144 H135 0.950 . S
C144 C143 1.398 1_556 S
C144 C145 1.391 . S
C145 H133 0.950 . S
C145 C141 1.393 1_556 S
C145 C144 1.391 . S
C146 H136 0.950 . S
C146 C147 1.386 1_556 S
C146 C148 1.391 . S
C147 C146 1.386 1_554 S
C147 C151 1.393 . S
C148 H137 0.950 . S
C148 C146 1.391 . S
C148 C149 1.400 1_556 S
C149 C143 1.491 . S
C149 C148 1.400 1_554 S
C149 C150 1.398 . S
C150 H138 0.950 . S
C150 C149 1.398 . S
C150 C151 1.391 . S
C151 H139 0.950 . S
C151 C147 1.393 . S
C151 C150 1.391 . S
H152 C160 0.950 . S
H153 C165 0.950 . S
H154 C162 0.950 . S
H155 C164 0.950 . S
H156 C166 0.950 . S
H157 C168 0.950 . S
H158 C170 0.950 . S
H159 C171 0.950 . S
C160 H152 0.950 . S
C160 C161 1.386 . S
C160 C162 1.391 . S
C161 C160 1.386 . S
C161 C165 1.393 1_554 S
C162 H154 0.950 . S
C162 C160 1.391 . S
C162 C163 1.400 . S
C163 C162 1.400 . S
C163 C164 1.398 1_554 S
C163 C169 1.491 . S
C164 H155 0.950 . S
C164 C163 1.398 1_556 S
C164 C165 1.391 . S
C165 H153 0.950 . S
C165 C161 1.393 1_556 S
C165 C164 1.391 . S
C166 H156 0.950 . S
C166 C167 1.386 1_556 S
C166 C168 1.391 . S
C167 C166 1.386 1_554 S
C167 C171 1.393 . S
C168 H157 0.950 . S
C168 C166 1.391 . S
C168 C169 1.400 1_556 S
C169 C163 1.491 . S
C169 C168 1.400 1_554 S
C169 C170 1.398 . S
C170 H158 0.950 . S
C170 C169 1.398 . S
C170 C171 1.391 . S
C171 H159 0.950 . S
C171 C167 1.393 . S
C171 C170 1.391 . S
H172 C180 0.950 . S
H173 C185 0.950 . S
H174 C182 0.950 . S
H175 C184 0.950 . S
H176 C186 0.950 . S
H177 C188 0.950 . S
H178 C190 0.950 . S
H179 C191 0.950 . S
C180 H172 0.950 . S
C180 C181 1.386 . S
C180 C182 1.391 . S
C181 C180 1.386 . S
C181 C185 1.393 1_554 S
C182 H174 0.950 . S
C182 C180 1.391 . S
C182 C183 1.400 . S
C183 C182 1.400 . S
C183 C184 1.398 1_554 S
C183 C189 1.491 . S
C184 H175 0.950 . S
C184 C183 1.398 1_556 S
C184 C185 1.391 . S
C185 H173 0.950 . S
C185 C181 1.393 1_556 S
C185 C184 1.391 . S
C186 H176 0.950 . S
C186 C187 1.386 1_556 S
C186 C188 1.391 . S
C187 C186 1.386 1_554 S
C187 C191 1.393 . S
C188 H177 0.950 . S
C188 C186 1.391 . S
C188 C189 1.400 1_556 S
C189 C183 1.491 . S
C189 C188 1.400 1_554 S
C189 C190 1.398 . S
C190 H178 0.950 . S
C190 C189 1.398 . S
C190 C191 1.391 . S
C191 H179 0.950 . S
C191 C187 1.393 . S
C191 C190 1.391 . S
H192 C200 0.950 . S
H193 C205 0.950 . S
H194 C202 0.950 . S
H195 C204 0.950 . S
H196 C206 0.950 . S
H197 C208 0.950 . S
H198 C210 0.950 . S
H199 C211 0.950 . S
C200 H192 0.950 . S
C200 C201 1.386 . S
C200 C202 1.391 . S
C201 C200 1.386 . S
C201 C205 1.393 . S
C202 H194 0.950 . S
C202 C200 1.391 . S
C202 C203 1.400 . S
C203 C202 1.400 . S
C203 C204 1.398 . S
C203 C209 1.491 1_565 S
C204 H195 0.950 . S
C204 C203 1.398 . S
C204 C205 1.391 . S
C205 H193 0.950 . S
C205 C201 1.393 . S
C205 C204 1.391 . S
C206 H196 0.950 . S
C206 C207 1.386 . S
C206 C208 1.391 . S
C207 C206 1.386 . S
C207 C211 1.393 . S
C208 H197 0.950 . S
C208 C206 1.391 . S
C208 C209 1.400 . S
C209 C203 1.491 1_545 S
C209 C208 1.400 . S
C209 C210 1.398 . S
C210 H198 0.950 . S
C210 C209 1.398 . S
C210 C211 1.391 . S
C211 H199 0.950 . S
C211 C207 1.393 . S
C211 C210 1.391 . S
H212 C220 0.950 . S
H213 C225 0.950 . S
H214 C222 0.950 . S
H215 C224 0.950 . S
H216 C226 0.950 . S
H217 C228 0.950 . S
H218 C230 0.950 . S
H219 C231 0.950 . S
C220 H212 0.950 . S
C220 C221 1.386 . S
C220 C222 1.391 . S
C221 C220 1.386 . S
C221 C225 1.393 . S
C222 H214 0.950 . S
C222 C220 1.391 . S
C222 C223 1.400 . S
C223 C222 1.400 . S
C223 C224 1.398 . S
C223 C229 1.491 1_455 S
C224 H215 0.950 . S
C224 C223 1.398 . S
C224 C225 1.391 . S
C225 H213 0.950 . S
C225 C221 1.393 . S
C225 C224 1.391 . S
C226 H216 0.950 . S
C226 C227 1.386 . S
C226 C228 1.391 . S
C227 C226 1.386 . S
C227 C231 1.393 . S
C228 H217 0.950 . S
C228 C226 1.391 . S
C228 C229 1.400 . S
C229 C223 1.491 1_655 S
C229 C228 1.400 . S
C229 C230 1.398 . S
C230 H218 0.950 . S
C230 C229 1.398 . S
C230 C231 1.391 . S
C231 H219 0.950 . S
C231 C227 1.393 . S
C231 C230 1.391 . S
H232 C240 0.950 . S
H233 C245 0.950 . S
H234 C242 0.950 . S
H235 C244 0.950 . S
H236 C246 0.950 . S
H237 C248 0.950 . S
H238 C250 0.950 . S
H239 C251 0.950 . S
C240 H232 0.950 . S
C240 C241 1.386 . S
C240 C242 1.391 . S
C241 C240 1.386 . S
C241 C245 1.393 . S
C242 H234 0.950 . S
C242 C240 1.391 . S
C242 C243 1.400 . S
C243 C242 1.400 . S
C243 C244 1.398 . S
C243 C249 1.491 1_545 S
C244 H235 0.950 . S
C244 C243 1.398 . S
C244 C245 1.391 . S
C245 H233 0.950 . S
C245 C241 1.393 . S
C245 C244 1.391 . S
C246 H236 0.950 . S
C246 C247 1.386 . S
C246 C248 1.391 . S
C247 C246 1.386 . S
C247 C251 1.393 . S
C248 H237 0.950 . S
C248 C246 1.391 . S
C248 C249 1.400 . S
C249 C243 1.491 1_565 S
C249 C248 1.400 . S
C249 C250 1.398 . S
C250 H238 0.950 . S
C250 C249 1.398 . S
C250 C251 1.391 . S
C251 H239 0.950 . S
C251 C247 1.393 . S
C251 C250 1.391 . S
H252 C260 0.950 . S
H253 C265 0.950 . S
H254 C262 0.950 . S
H255 C264 0.950 . S
H256 C266 0.950 . S
H257 C268 0.950 . S
H258 C270 0.950 . S
H259 C271 0.950 . S
C260 H252 0.950 . S
C260 C261 1.386 . S
C260 C262 1.391 . S
C261 C260 1.386 . S
C261 C265 1.393 . S
C262 H254 0.950 . S
C262 C260 1.391 . S
C262 C263 1.400 . S
C263 C262 1.400 . S
C263 C264 1.398 . S
C263 C269 1.491 1_655 S
C264 H255 0.950 . S
C264 C263 1.398 . S
C264 C265 1.391 . S
C265 H253 0.950 . S
C265 C261 1.393 . S
C265 C264 1.391 . S
C266 H256 0.950 . S
C266 C267 1.386 . S
C266 C268 1.391 . S
C267 C266 1.386 . S
C267 C271 1.393 . S
C268 H257 0.950 . S
C268 C266 1.391 . S
C268 C269 1.400 . S
C269 C263 1.491 1_455 S
C269 C268 1.400 . S
C269 C270 1.398 . S
C270 H258 0.950 . S
C270 C269 1.398 . S
C270 C271 1.391 . S
C271 H259 0.950 . S
C271 C267 1.393 . S
C271 C270 1.391 . S
H272 C280 0.950 . S
H273 C285 0.950 . S
H274 C282 0.950 . S
H275 C284 0.950 . S
H276 C286 0.950 . S
H277 C288 0.950 . S
H278 C290 0.950 . S
H279 C291 0.950 . S
C280 H272 0.950 . S
C280 C281 1.386 . S
C280 C282 1.391 . S
C281 C280 1.386 . S
C281 C285 1.393 . S
C282 H274 0.950 . S
C282 C280 1.391 . S
C282 C283 1.400 . S
C283 C282 1.400 . S
C283 C284 1.398 . S
C283 C289 1.491 . S
C284 H275 0.950 . S
C284 C283 1.398 . S
C284 C285 1.391 . S
C285 H273 0.950 . S
C285 C281 1.393 . S
C285 C284 1.391 . S
C286 H276 0.950 . S
C286 C287 1.386 . S
C286 C288 1.391 . S
C287 C286 1.386 . S
C287 C291 1.393 . S
C288 H277 0.950 . S
C288 C286 1.391 . S
C288 C289 1.400 . S
C289 C283 1.491 . S
C289 C288 1.400 . S
C289 C290 1.398 . S
C290 H278 0.950 . S
C290 C289 1.398 . S
C290 C291 1.391 . S
C291 H279 0.950 . S
C291 C287 1.393 . S
C291 C290 1.391 . S
H292 C300 0.950 . S
H293 C305 0.950 . S
H294 C302 0.950 . S
H295 C304 0.950 . S
H296 C306 0.950 . S
H297 C308 0.950 . S
H298 C310 0.950 . S
H299 C311 0.950 . S
C300 H292 0.950 . S
C300 C301 1.386 . S
C300 C302 1.391 . S
C301 C300 1.386 . S
C301 C305 1.393 . S
C302 H294 0.950 . S
C302 C300 1.391 . S
C302 C303 1.400 . S
C303 C302 1.400 . S
C303 C304 1.398 . S
C303 C309 1.491 . S
C304 H295 0.950 . S
C304 C303 1.398 . S
C304 C305 1.391 . S
C305 H293 0.950 . S
C305 C301 1.393 . S
C305 C304 1.391 . S
C306 H296 0.950 . S
C306 C307 1.386 . S
C306 C308 1.391 . S
C307 C306 1.386 . S
C307 C311 1.393 . S
C308 H297 0.950 . S
C308 C306 1.391 . S
C308 C309 1.400 . S
C309 C303 1.491 . S
C309 C308 1.400 . S
C309 C310 1.398 . S
C310 H298 0.950 . S
C310 C309 1.398 . S
C310 C311 1.391 . S
C311 H299 0.950 . S
C311 C307 1.393 . S
C311 C310 1.391 . S
H312 C320 0.950 . S
H313 C325 0.950 . S
H314 C322 0.950 . S
H315 C324 0.950 . S
H316 C326 0.950 . S
H317 C328 0.950 . S
H318 C330 0.950 . S
H319 C331 0.950 . S
C320 H312 0.950 . S
C320 C321 1.386 . S
C320 C322 1.391 . S
C321 C320 1.386 . S
C321 C325 1.393 . S
C322 H314 0.950 . S
C322 C320 1.391 . S
C322 C323 1.400 . S
C323 C322 1.400 . S
C323 C324 1.398 . S
C323 C329 1.491 . S
C324 H315 0.950 . S
C324 C323 1.398 . S
C324 C325 1.391 . S
C325 H313 0.950 . S
C325 C321 1.393 . S
C325 C324 1.391 . S
C326 H316 0.950 . S
C326 C327 1.386 . S
C326 C328 1.391 . S
C327 C326 1.386 . S
C327 C331 1.393 . S
C328 H317 0.950 . S
C328 C326 1.391 . S
C328 C329 1.400 . S
C329 C323 1.491 . S
C329 C328 1.400 . S
C329 C330 1.398 . S
C330 H318 0.950 . S
C330 C329 1.398 . S
C330 C331 1.391 . S
C331 H319 0.950 . S
C331 C327 1.393 . S
C331 C330 1.391 . S
H332 C340 0.950 . S
H333 C345 0.950 . S
H334 C342 0.950 . S
H335 C344 0.950 . S
H336 C346 0.950 . S
H337 C348 0.950 . S
H338 C350 0.950 . S
H339 C351 0.950 . S
C340 H332 0.950 . S
C340 C341 1.386 . S
C340 C342 1.391 . S
C341 C340 1.386 . S
C341 C345 1.393 . S
C342 H334 0.950 . S
C342 C340 1.391 . S
C342 C343 1.400 . S
C343 C342 1.400 . S
C343 C344 1.398 . S
C343 C349 1.491 . S
C344 H335 0.950 . S
C344 C343 1.398 . S
C344 C345 1.391 . S
C345 H333 0.950 . S
C345 C341 1.393 . S
C345 C344 1.391 . S
C346 H336 0.950 . S
C346 C347 1.386 . S
C346 C348 1.391 . S
C347 C346 1.386 . S
C347 C351 1.393 . S
C348 H337 0.950 . S
C348 C346 1.391 . S
C348 C349 1.400 . S
C349 C343 1.491 . S
C349 C348 1.400 . S
C349 C350 1.398 . S
C350 H338 0.950 . S
C350 C349 1.398 . S
C350 C351 1.391 . S
C351 H339 0.950 . S
C351 C347 1.393 . S
C351 C350 1.391 . S
H352 C360 0.950 . S
H353 C365 0.950 . S
H354 C362 0.950 . S
H355 C364 0.950 . S
H356 C366 0.950 . S
H357 C368 0.950 . S
H358 C370 0.950 . S
H359 C371 0.950 . S
C360 H352 0.950 . S
C360 C361 1.386 . S
C360 C362 1.391 . S
C361 C360 1.386 . S
C361 C365 1.393 . S
C362 H354 0.950 . S
C362 C360 1.391 . S
C362 C363 1.400 . S
C363 C362 1.400 . S
C363 C364 1.398 . S
C363 C369 1.491 . S
C364 H355 0.950 . S
C364 C363 1.398 . S
C364 C365 1.391 . S
C365 H353 0.950 . S
C365 C361 1.393 . S
C365 C364 1.391 . S
C366 H356 0.950 . S
C366 C367 1.386 . S
C366 C368 1.391 . S
C367 C366 1.386 . S
C367 C371 1.393 . S
C368 H357 0.950 . S
C368 C366 1.391 . S
C368 C369 1.400 . S
C369 C363 1.491 . S
C369 C368 1.400 . S
C369 C370 1.398 . S
C370 H358 0.950 . S
C370 C369 1.398 . S
C370 C371 1.391 . S
C371 H359 0.950 . S
C371 C367 1.393 . S
C371 C370 1.391 . S
H372 C380 0.950 . S
H373 C385 0.950 . S
H374 C382 0.950 . S
H375 C384 0.950 . S
H376 C386 0.950 . S
H377 C388 0.950 . S
H378 C390 0.950 . S
H379 C391 0.950 . S
C380 H372 0.950 . S
C380 C381 1.386 . S
C380 C382 1.391 . S
C381 C380 1.386 . S
C381 C385 1.393 . S
C382 H374 0.950 . S
C382 C380 1.391 . S
C382 C383 1.400 . S
C383 C382 1.400 . S
C383 C384 1.398 . S
C383 C389 1.491 . S
C384 H375 0.950 . S
C384 C383 1.398 . S
C384 C385 1.391 . S
C385 H373 0.950 . S
C385 C381 1.393 . S
C385 C384 1.391 . S
C386 H376 0.950 . S
C386 C387 1.386 . S
C386 C388 1.391 . S
C387 C386 1.386 . S
C387 C391 1.393 . S
C388 H377 0.950 . S
C388 C386 1.391 . S
C388 C389 1.400 . S
C389 C383 1.491 . S
C389 C388 1.400 . S
C389 C390 1.398 . S
C390 H378 0.950 . S
C390 C389 1.398 . S
C390 C391 1.391 . S
C391 H379 0.950 . S
C391 C387 1.393 . S
C391 C390 1.391 . S
H392 C400 0.950 . S
H393 C405 0.950 . S
H394 C402 0.950 . S
H395 C404 0.950 . S
H396 C406 0.950 . S
H397 C408 0.950 . S
H398 C410 0.950 . S
H399 C411 0.950 . S
C400 H392 0.950 . S
C400 C401 1.386 . S
C400 C402 1.391 . S
C401 C400 1.386 . S
C401 C405 1.393 . S
C402 H394 0.950 . S
C402 C400 1.391 . S
C402 C403 1.400 . S
C403 C402 1.400 . S
C403 C404 1.398 . S
C403 C409 1.491 . S
C404 H395 0.950 . S
C404 C403 1.398 . S
C404 C405 1.391 . S
C405 H393 0.950 . S
C405 C401 1.393 . S
C405 C404 1.391 . S
C406 H396 0.950 . S
C406 C407 1.386 . S
C406 C408 1.391 . S
C407 C406 1.386 . S
C407 C411 1.393 . S
C408 H397 0.950 . S
C408 C406 1.391 . S
C408 C409 1.400 . S
C409 C403 1.491 . S
C409 C408 1.400 . S
C409 C410 1.398 . S
C410 H398 0.950 . S
C410 C409 1.398 . S
C410 C411 1.391 . S
C411 H399 0.950 . S
C411 C407 1.393 . S
C411 C410 1.391 . S
H412 C420 0.950 . S
H413 C425 0.950 . S
H414 C422 0.950 . S
H415 C424 0.950 . S
H416 C426 0.950 . S
H417 C428 0.950 . S
H418 C430 0.950 . S
H419 C431 0.950 . S
C420 H412 0.950 . S
C420 C421 1.386 . S
C420 C422 1.391 . S
C421 C420 1.386 . S
C421 C425 1.393 . S
C422 H414 0.950 . S
C422 C420 1.391 . S
C422 C423 1.400 . S
C423 C422 1.400 . S
C423 C424 1.398 . S
C423 C429 1.491 . S
C424 H415 0.950 . S
C424 C423 1.398 . S
C424 C425 1.391 . S
C425 H413 0.950 . S
C425 C421 1.393 . S
C425 C424 1.391 . S
C426 H416 0.950 . S
C426 C427 1.386 . S
C426 C428 1.391 . S
C427 C426 1.386 . S
C427 C431 1.393 . S
C428 H417 0.950 . S
C428 C426 1.391 . S
C428 C429 1.400 . S
C429 C423 1.491 . S
C429 C428 1.400 . S
C429 C430 1.398 . S
C430 H418 0.950 . S
C430 C429 1.398 . S
C430 C431 1.391 . S
C431 H419 0.950 . S
C431 C427 1.393 . S
C431 C430 1.391 . S
C121 C4 1.455 . S
C127 C46 1.471 . S
C141 C5 1.277 . S
C147 C19 1.306 . S
C161 C18 1.456 . S
C167 C32 1.470 . S
C181 C47 1.315 . S
C187 C33 1.269 . S
C201 C60 1.467 . S
C207 C102 1.460 . S
C221 C75 1.278 . S
C227 C61 1.305 . S
C241 C88 1.463 . S
C247 C74 1.464 . S
C261 C103 1.316 . S
C267 C89 1.268 . S
C281 C96 1.419 . S
C287 C11 1.404 . S
C301 C26 1.421 . S
C307 C109 1.394 . S
C321 C68 1.420 . S
C327 C39 1.385 . S
C341 C81 1.404 . S
C347 C54 1.420 . S
C361 C82 1.420 . S
C367 C53 1.385 . S
C381 C12 1.421 . S
C387 C95 1.399 . S
C401 C25 1.397 . S
C407 C110 1.421 . S
C421 C40 1.419 . S
C427 C67 1.390 . S
