# Generated by pormake.
# Topology wne, (6)-cn, num edge types: 1
# Building blocks:
#     Node 0, Type 0, BuildingBlock: KUMBOL_clean_sbu_1, # of connection points: 6
#     Node 1, Type 0, BuildingBlock: KUMBOL_clean_sbu_1, # of connection points: 6
#     Node 2, Type 0, BuildingBlock: KUMBOL_clean_sbu_1, # of connection points: 6
#     Node 3, Type 0, BuildingBlock: KUMBOL_clean_sbu_1, # of connection points: 6
#     Node 4, Type 0, BuildingBlock: KUMBOL_clean_sbu_1, # of connection points: 6
#     Node 5, Type 0, BuildingBlock: KUMBOL_clean_sbu_1, # of connection points: 6
#     Node 6, Type 0, BuildingBlock: KUMBOL_clean_sbu_1, # of connection points: 6
#     Node 7, Type 0, BuildingBlock: KUMBOL_clean_sbu_1, # of connection points: 6
#     Node 8, Type 0, BuildingBlock: KUMBOL_clean_sbu_1, # of connection points: 6
#     Node 9, Type 0, BuildingBlock: KUMBOL_clean_sbu_1, # of connection points: 6
#     Node 10, Type 0, BuildingBlock: KUMBOL_clean_sbu_1, # of connection points: 6
#     Node 11, Type 0, BuildingBlock: KUMBOL_clean_sbu_1, # of connection points: 6
#     Node 12, Type 0, BuildingBlock: KUMBOL_clean_sbu_1, # of connection points: 6
#     Node 13, Type 0, BuildingBlock: KUMBOL_clean_sbu_1, # of connection points: 6
#     Node 14, Type 0, BuildingBlock: KUMBOL_clean_sbu_1, # of connection points: 6
#     Node 15, Type 0, BuildingBlock: KUMBOL_clean_sbu_1, # of connection points: 6
#     Node 16, Type 0, BuildingBlock: KUMBOL_clean_sbu_1, # of connection points: 6
#     Node 17, Type 0, BuildingBlock: KUMBOL_clean_sbu_1, # of connection points: 6
#     Node 18, Type 0, BuildingBlock: KUMBOL_clean_sbu_1, # of connection points: 6
#     Node 19, Type 0, BuildingBlock: KUMBOL_clean_sbu_1, # of connection points: 6
#     Node 20, Type 0, BuildingBlock: KUMBOL_clean_sbu_1, # of connection points: 6
#     Node 21, Type 0, BuildingBlock: KUMBOL_clean_sbu_1, # of connection points: 6
#     Node 22, Type 0, BuildingBlock: KUMBOL_clean_sbu_1, # of connection points: 6
#     Node 23, Type 0, BuildingBlock: KUMBOL_clean_sbu_1, # of connection points: 6
#     Node 24, Type 0, BuildingBlock: KUMBOL_clean_sbu_1, # of connection points: 6
#     Node 25, Type 0, BuildingBlock: KUMBOL_clean_sbu_1, # of connection points: 6
#     Node 26, Type 0, BuildingBlock: KUMBOL_clean_sbu_1, # of connection points: 6
#     Node 27, Type 0, BuildingBlock: KUMBOL_clean_sbu_1, # of connection points: 6
#     Node 28, Type 0, BuildingBlock: KUMBOL_clean_sbu_1, # of connection points: 6
#     Node 29, Type 0, BuildingBlock: KUMBOL_clean_sbu_1, # of connection points: 6
#     Node 30, Type 0, BuildingBlock: KUMBOL_clean_sbu_1, # of connection points: 6
#     Node 31, Type 0, BuildingBlock: KUMBOL_clean_sbu_1, # of connection points: 6
#     Node 32, Type 0, BuildingBlock: KUMBOL_clean_sbu_1, # of connection points: 6
#     Node 33, Type 0, BuildingBlock: KUMBOL_clean_sbu_1, # of connection points: 6
#     Node 34, Type 0, BuildingBlock: KUMBOL_clean_sbu_1, # of connection points: 6
#     Node 35, Type 0, BuildingBlock: KUMBOL_clean_sbu_1, # of connection points: 6
#     Edge 36, Type (0, 0), BuildingBlock: ZUJKAS_clean_linker_0, # of connection points: 2
#     Edge 37, Type (0, 0), BuildingBlock: ZUJKAS_clean_linker_0, # of connection points: 2
#     Edge 38, Type (0, 0), BuildingBlock: ZUJKAS_clean_linker_0, # of connection points: 2
#     Edge 39, Type (0, 0), BuildingBlock: ZUJKAS_clean_linker_0, # of connection points: 2
#     Edge 40, Type (0, 0), BuildingBlock: ZUJKAS_clean_linker_0, # of connection points: 2
#     Edge 41, Type (0, 0), BuildingBlock: ZUJKAS_clean_linker_0, # of connection points: 2
#     Edge 42, Type (0, 0), BuildingBlock: ZUJKAS_clean_linker_0, # of connection points: 2
#     Edge 43, Type (0, 0), BuildingBlock: ZUJKAS_clean_linker_0, # of connection points: 2
#     Edge 44, Type (0, 0), BuildingBlock: ZUJKAS_clean_linker_0, # of connection points: 2
#     Edge 45, Type (0, 0), BuildingBlock: ZUJKAS_clean_linker_0, # of connection points: 2
#     Edge 46, Type (0, 0), BuildingBlock: ZUJKAS_clean_linker_0, # of connection points: 2
#     Edge 47, Type (0, 0), BuildingBlock: ZUJKAS_clean_linker_0, # of connection points: 2
#     Edge 48, Type (0, 0), BuildingBlock: ZUJKAS_clean_linker_0, # of connection points: 2
#     Edge 49, Type (0, 0), BuildingBlock: ZUJKAS_clean_linker_0, # of connection points: 2
#     Edge 50, Type (0, 0), BuildingBlock: ZUJKAS_clean_linker_0, # of connection points: 2
#     Edge 51, Type (0, 0), BuildingBlock: ZUJKAS_clean_linker_0, # of connection points: 2
#     Edge 52, Type (0, 0), BuildingBlock: ZUJKAS_clean_linker_0, # of connection points: 2
#     Edge 53, Type (0, 0), BuildingBlock: ZUJKAS_clean_linker_0, # of connection points: 2
#     Edge 54, Type (0, 0), BuildingBlock: ZUJKAS_clean_linker_0, # of connection points: 2
#     Edge 55, Type (0, 0), BuildingBlock: ZUJKAS_clean_linker_0, # of connection points: 2
#     Edge 56, Type (0, 0), BuildingBlock: ZUJKAS_clean_linker_0, # of connection points: 2
#     Edge 57, Type (0, 0), BuildingBlock: ZUJKAS_clean_linker_0, # of connection points: 2
#     Edge 58, Type (0, 0), BuildingBlock: ZUJKAS_clean_linker_0, # of connection points: 2
#     Edge 59, Type (0, 0), BuildingBlock: ZUJKAS_clean_linker_0, # of connection points: 2
#     Edge 60, Type (0, 0), BuildingBlock: ZUJKAS_clean_linker_0, # of connection points: 2
#     Edge 61, Type (0, 0), BuildingBlock: ZUJKAS_clean_linker_0, # of connection points: 2
#     Edge 62, Type (0, 0), BuildingBlock: ZUJKAS_clean_linker_0, # of connection points: 2
#     Edge 63, Type (0, 0), BuildingBlock: ZUJKAS_clean_linker_0, # of connection points: 2
#     Edge 64, Type (0, 0), BuildingBlock: ZUJKAS_clean_linker_0, # of connection points: 2
#     Edge 65, Type (0, 0), BuildingBlock: ZUJKAS_clean_linker_0, # of connection points: 2
#     Edge 66, Type (0, 0), BuildingBlock: ZUJKAS_clean_linker_0, # of connection points: 2
#     Edge 67, Type (0, 0), BuildingBlock: ZUJKAS_clean_linker_0, # of connection points: 2
#     Edge 68, Type (0, 0), BuildingBlock: ZUJKAS_clean_linker_0, # of connection points: 2
#     Edge 69, Type (0, 0), BuildingBlock: ZUJKAS_clean_linker_0, # of connection points: 2
#     Edge 70, Type (0, 0), BuildingBlock: ZUJKAS_clean_linker_0, # of connection points: 2
#     Edge 71, Type (0, 0), BuildingBlock: ZUJKAS_clean_linker_0, # of connection points: 2
#     Edge 72, Type (0, 0), BuildingBlock: ZUJKAS_clean_linker_0, # of connection points: 2
#     Edge 73, Type (0, 0), BuildingBlock: ZUJKAS_clean_linker_0, # of connection points: 2
#     Edge 74, Type (0, 0), BuildingBlock: ZUJKAS_clean_linker_0, # of connection points: 2
#     Edge 75, Type (0, 0), BuildingBlock: ZUJKAS_clean_linker_0, # of connection points: 2
#     Edge 76, Type (0, 0), BuildingBlock: ZUJKAS_clean_linker_0, # of connection points: 2
#     Edge 77, Type (0, 0), BuildingBlock: ZUJKAS_clean_linker_0, # of connection points: 2
#     Edge 78, Type (0, 0), BuildingBlock: ZUJKAS_clean_linker_0, # of connection points: 2
#     Edge 79, Type (0, 0), BuildingBlock: ZUJKAS_clean_linker_0, # of connection points: 2
#     Edge 80, Type (0, 0), BuildingBlock: ZUJKAS_clean_linker_0, # of connection points: 2
#     Edge 81, Type (0, 0), BuildingBlock: ZUJKAS_clean_linker_0, # of connection points: 2
#     Edge 82, Type (0, 0), BuildingBlock: ZUJKAS_clean_linker_0, # of connection points: 2
#     Edge 83, Type (0, 0), BuildingBlock: ZUJKAS_clean_linker_0, # of connection points: 2
#     Edge 84, Type (0, 0), BuildingBlock: ZUJKAS_clean_linker_0, # of connection points: 2
#     Edge 85, Type (0, 0), BuildingBlock: ZUJKAS_clean_linker_0, # of connection points: 2
#     Edge 86, Type (0, 0), BuildingBlock: ZUJKAS_clean_linker_0, # of connection points: 2
#     Edge 87, Type (0, 0), BuildingBlock: ZUJKAS_clean_linker_0, # of connection points: 2
#     Edge 88, Type (0, 0), BuildingBlock: ZUJKAS_clean_linker_0, # of connection points: 2
#     Edge 89, Type (0, 0), BuildingBlock: ZUJKAS_clean_linker_0, # of connection points: 2
#     Edge 90, Type (0, 0), BuildingBlock: ZUJKAS_clean_linker_0, # of connection points: 2
#     Edge 91, Type (0, 0), BuildingBlock: ZUJKAS_clean_linker_0, # of connection points: 2
#     Edge 92, Type (0, 0), BuildingBlock: ZUJKAS_clean_linker_0, # of connection points: 2
#     Edge 93, Type (0, 0), BuildingBlock: ZUJKAS_clean_linker_0, # of connection points: 2
#     Edge 94, Type (0, 0), BuildingBlock: ZUJKAS_clean_linker_0, # of connection points: 2
#     Edge 95, Type (0, 0), BuildingBlock: ZUJKAS_clean_linker_0, # of connection points: 2
#     Edge 96, Type (0, 0), BuildingBlock: ZUJKAS_clean_linker_0, # of connection points: 2
#     Edge 97, Type (0, 0), BuildingBlock: ZUJKAS_clean_linker_0, # of connection points: 2
#     Edge 98, Type (0, 0), BuildingBlock: ZUJKAS_clean_linker_0, # of connection points: 2
#     Edge 99, Type (0, 0), BuildingBlock: ZUJKAS_clean_linker_0, # of connection points: 2
#     Edge 100, Type (0, 0), BuildingBlock: ZUJKAS_clean_linker_0, # of connection points: 2
#     Edge 101, Type (0, 0), BuildingBlock: ZUJKAS_clean_linker_0, # of connection points: 2
#     Edge 102, Type (0, 0), BuildingBlock: ZUJKAS_clean_linker_0, # of connection points: 2
#     Edge 103, Type (0, 0), BuildingBlock: ZUJKAS_clean_linker_0, # of connection points: 2
#     Edge 104, Type (0, 0), BuildingBlock: ZUJKAS_clean_linker_0, # of connection points: 2
#     Edge 105, Type (0, 0), BuildingBlock: ZUJKAS_clean_linker_0, # of connection points: 2
#     Edge 106, Type (0, 0), BuildingBlock: ZUJKAS_clean_linker_0, # of connection points: 2
#     Edge 107, Type (0, 0), BuildingBlock: ZUJKAS_clean_linker_0, # of connection points: 2
#     Edge 108, Type (0, 0), BuildingBlock: ZUJKAS_clean_linker_0, # of connection points: 2
#     Edge 109, Type (0, 0), BuildingBlock: ZUJKAS_clean_linker_0, # of connection points: 2
#     Edge 110, Type (0, 0), BuildingBlock: ZUJKAS_clean_linker_0, # of connection points: 2
#     Edge 111, Type (0, 0), BuildingBlock: ZUJKAS_clean_linker_0, # of connection points: 2
#     Edge 112, Type (0, 0), BuildingBlock: ZUJKAS_clean_linker_0, # of connection points: 2
#     Edge 113, Type (0, 0), BuildingBlock: ZUJKAS_clean_linker_0, # of connection points: 2
#     Edge 114, Type (0, 0), BuildingBlock: ZUJKAS_clean_linker_0, # of connection points: 2
#     Edge 115, Type (0, 0), BuildingBlock: ZUJKAS_clean_linker_0, # of connection points: 2
#     Edge 116, Type (0, 0), BuildingBlock: ZUJKAS_clean_linker_0, # of connection points: 2
#     Edge 117, Type (0, 0), BuildingBlock: ZUJKAS_clean_linker_0, # of connection points: 2
#     Edge 118, Type (0, 0), BuildingBlock: ZUJKAS_clean_linker_0, # of connection points: 2
#     Edge 119, Type (0, 0), BuildingBlock: ZUJKAS_clean_linker_0, # of connection points: 2
#     Edge 120, Type (0, 0), BuildingBlock: ZUJKAS_clean_linker_0, # of connection points: 2
#     Edge 121, Type (0, 0), BuildingBlock: ZUJKAS_clean_linker_0, # of connection points: 2
#     Edge 122, Type (0, 0), BuildingBlock: ZUJKAS_clean_linker_0, # of connection points: 2
#     Edge 123, Type (0, 0), BuildingBlock: ZUJKAS_clean_linker_0, # of connection points: 2
#     Edge 124, Type (0, 0), BuildingBlock: ZUJKAS_clean_linker_0, # of connection points: 2
#     Edge 125, Type (0, 0), BuildingBlock: ZUJKAS_clean_linker_0, # of connection points: 2
#     Edge 126, Type (0, 0), BuildingBlock: ZUJKAS_clean_linker_0, # of connection points: 2
#     Edge 127, Type (0, 0), BuildingBlock: ZUJKAS_clean_linker_0, # of connection points: 2
#     Edge 128, Type (0, 0), BuildingBlock: ZUJKAS_clean_linker_0, # of connection points: 2
#     Edge 129, Type (0, 0), BuildingBlock: ZUJKAS_clean_linker_0, # of connection points: 2
#     Edge 130, Type (0, 0), BuildingBlock: ZUJKAS_clean_linker_0, # of connection points: 2
#     Edge 131, Type (0, 0), BuildingBlock: ZUJKAS_clean_linker_0, # of connection points: 2
#     Edge 132, Type (0, 0), BuildingBlock: ZUJKAS_clean_linker_0, # of connection points: 2
#     Edge 133, Type (0, 0), BuildingBlock: ZUJKAS_clean_linker_0, # of connection points: 2
#     Edge 134, Type (0, 0), BuildingBlock: ZUJKAS_clean_linker_0, # of connection points: 2
#     Edge 135, Type (0, 0), BuildingBlock: ZUJKAS_clean_linker_0, # of connection points: 2
#     Edge 136, Type (0, 0), BuildingBlock: ZUJKAS_clean_linker_0, # of connection points: 2
#     Edge 137, Type (0, 0), BuildingBlock: ZUJKAS_clean_linker_0, # of connection points: 2
#     Edge 138, Type (0, 0), BuildingBlock: ZUJKAS_clean_linker_0, # of connection points: 2
#     Edge 139, Type (0, 0), BuildingBlock: ZUJKAS_clean_linker_0, # of connection points: 2
#     Edge 140, Type (0, 0), BuildingBlock: ZUJKAS_clean_linker_0, # of connection points: 2
#     Edge 141, Type (0, 0), BuildingBlock: ZUJKAS_clean_linker_0, # of connection points: 2
#     Edge 142, Type (0, 0), BuildingBlock: ZUJKAS_clean_linker_0, # of connection points: 2
#     Edge 143, Type (0, 0), BuildingBlock: ZUJKAS_clean_linker_0, # of connection points: 2
# Relax obj value: 0.257
# Max RMSD: 0.227
# Mean RMSD: 0.226
data_MOF--net-wne--node1-KUMBOL_clean_sbu_1--edge1-ZUJKAS_clean_linker_0
_symmetry_space_group_name_H-M    P1
_symmetry_Int_Tables_number       1
_symmetry_cell_setting            triclinic
loop_
_symmetry_equiv_pos_as_xyz
'x, y, z'
_cell_length_a     102.14606
_cell_length_b     102.06877
_cell_length_c     48.417668
_cell_angle_alpha  90.015312
_cell_angle_beta   89.988579
_cell_angle_gamma 119.95474
loop_
_atom_site_label
_atom_site_type_symbol
_atom_site_fract_x
_atom_site_fract_y
_atom_site_fract_z
_atom_type_partial_charge
C0 C 0.23077 0.16916 0.08101 0.0
C1 C 0.22711 0.1665 0.03126 0.0
C2 C 0.23666 0.17061 0.05455 0.0
C3 C 0.21166 0.16136 0.03482 0.0
C4 C 0.21512 0.16344 0.0846 0.0
C5 C 0.20569 0.15986 0.0614 0.0
N6 N 0.24013 0.1725 0.10318 0.0
C7 C 0.23416 0.16888 0.12928 0.0
C8 C 0.20926 0.16096 0.11141 0.0
C9 C 0.21879 0.16344 0.1338 0.0
Gd10 Gd 0.29465 0.22525 0.10039 0.0
Gd11 Gd 0.26583 0.18128 0.09242 0.0
N12 N 0.25176 0.176 0.05155 0.0
C13 C 0.23339 0.16764 1.00504 0.0
C14 C 0.2578 0.17638 0.02618 0.0
C15 C 0.24876 0.17246 1.00252 0.0
H16 H 0.26961 0.17982 0.02421 0.0
H17 H 0.25364 0.17309 0.98238 0.0
H18 H 0.29331 0.22409 0.17085 0.0
H19 H 0.24104 0.16962 0.1468 0.0
H20 H 0.31103 0.23236 0.20947 0.0
H21 H 0.22642 0.16461 0.98666 0.0
H22 H 0.20419 0.15831 1.01715 0.0
H23 H 0.31653 0.23728 0.04343 0.0
H24 H 0.19731 0.15655 0.11498 0.0
H25 H 0.21424 0.16084 0.15454 0.0
H26 H 0.35975 0.25381 0.16694 0.0
H27 H 0.19368 0.15558 0.06383 0.0
H28 H 0.36256 0.25616 0.06837 0.0
H29 H 0.34349 0.24936 0.03156 0.0
N30 N 0.32004 0.23624 0.08658 0.0
C31 C 0.33039 0.24063 0.10725 0.0
C32 C 0.32463 0.23971 0.05974 0.0
C33 C 0.35068 0.25064 0.07373 0.0
C34 C 0.33996 0.24679 0.0529 0.0
C35 C 0.346 0.24782 0.10131 0.0
H36 H 0.36849 0.25778 0.11879 0.0
N37 N 0.31029 0.23137 0.13969 0.0
C38 C 0.32542 0.2384 0.13449 0.0
C39 C 0.33073 0.24113 0.18352 0.0
C40 C 0.33601 0.24332 0.15632 0.0
C41 C 0.30514 0.2293 0.16628 0.0
C42 C 0.31523 0.2341 0.18849 0.0
O43 O 0.26189 0.19759 0.06543 0.0
O44 O 0.26985 0.21748 0.09446 0.0
O45 O 0.29584 0.24502 0.11774 0.0
O46 O 0.30058 0.2448 0.07396 0.0
O47 O 0.2881 0.19143 0.0658 0.0
O48 O 0.29212 0.21521 0.05711 0.0
O49 O 0.30375 0.20957 0.11176 0.0
O50 O 0.28309 0.18737 0.12641 0.0
O51 O 0.26998 0.16305 0.07547 0.0
O52 O 0.25312 0.1583 0.10673 0.0
O53 O 0.27647 0.21796 0.13357 0.0
O54 O 0.26326 0.19167 0.13533 0.0
C55 C 0.26106 0.20933 0.07433 0.0
C56 C 0.29488 0.2042 0.05105 0.0
C57 C 0.31192 0.26821 0.09857 0.0
C58 C 0.31797 0.29218 0.11879 0.0
C59 C 0.33801 0.28829 0.10107 0.0
C60 C 0.32727 0.27358 0.09323 0.0
C61 C 0.33341 0.2976 0.11395 0.0
C62 C 0.30741 0.27752 0.11121 0.0
C63 C 0.30011 0.25262 0.09483 0.0
C64 C 0.35151 0.25013 0.15042 0.0
C65 C 0.35648 0.25234 0.123 0.0
H66 H 0.33849 0.24473 0.20081 0.0
C67 C 0.29777 0.19643 0.12457 0.0
C68 C 0.26655 0.20528 0.14576 0.0
C69 C 0.25432 0.13606 0.09253 0.0
C70 C 0.25031 0.1112 0.07548 0.0
C71 C 0.24025 0.11306 0.11993 0.0
C72 C 0.24621 0.12853 0.11646 0.0
C73 C 0.24226 0.10454 0.09981 0.0
C74 C 0.25637 0.12719 0.07164 0.0
C75 C 0.25912 0.1527 0.09036 0.0
H76 H 0.34987 0.29251 0.09697 0.0
H77 H 0.331 0.26655 0.0834 0.0
H78 H 0.34176 0.30913 0.11915 0.0
H79 H 0.2955 0.2733 0.1153 0.0
H80 H 0.23394 0.1076 0.13845 0.0
H81 H 0.24425 0.1346 0.13279 0.0
H82 H 0.23737 0.09249 0.10327 0.0
H83 H 0.2624 0.13256 0.05284 0.0
C84 C 0.85958 0.06619 0.08467 0.0
C85 C 0.85992 0.06051 0.036 0.0
C86 C 0.85671 0.06797 0.0572 0.0
C87 C 0.86488 0.05033 0.04285 0.0
C88 C 0.86547 0.05669 0.0914 0.0
C89 C 0.86758 0.04838 0.07049 0.0
N90 N 0.85799 0.07481 0.10439 0.0
C91 C 0.86342 0.07555 0.13049 0.0
C92 C 0.86979 0.0564 0.11873 0.0
C93 C 0.86904 0.06609 0.13822 0.0
Gd94 Gd 0.80574 0.0795 0.09994 0.0
Gd95 Gd 0.84772 0.08961 0.08887 0.0
N96 N 0.85182 0.07782 0.05105 0.0
C97 C 0.85861 0.06394 1.00848 0.0
C98 C 0.85152 0.08198 0.02432 0.0
C99 C 0.85465 0.07492 1.00264 0.0
H100 H 0.84867 0.09061 0.01975 0.0
H101 H 0.85406 0.07798 0.98147 0.0
H102 H 0.81278 0.08019 0.17045 0.0
H103 H 0.86325 0.08334 0.14546 0.0
H104 H 0.81234 0.09363 0.21115 0.0
H105 H 0.86106 0.05851 0.99162 0.0
H106 H 0.86714 0.0443 0.02686 0.0
H107 H 0.79656 0.09518 0.04868 0.0
H108 H 0.87434 0.04924 0.12471 0.0
H109 H 0.87292 0.06639 0.15913 0.0
H110 H 0.79882 0.12931 0.17794 0.0
H111 H 0.87191 0.04089 0.07535 0.0
H112 H 0.79091 0.13092 0.08106 0.0
H113 H 0.79139 0.11602 0.04141 0.0
N114 N 0.80036 0.09901 0.09175 0.0
C115 C 0.79947 0.10659 0.11404 0.0
C116 C 0.79706 0.10198 0.06602 0.0
C117 C 0.79345 0.12192 0.08435 0.0
C118 C 0.79378 0.11358 0.06187 0.0
C119 C 0.7962 0.11842 0.11086 0.0
H120 H 0.79346 0.13562 0.13196 0.0
N121 N 0.80577 0.09158 0.14231 0.0
C122 C 0.80228 0.10282 0.14001 0.0
C123 C 0.80567 0.10762 0.18916 0.0
C124 C 0.80217 0.11111 0.16335 0.0
C125 C 0.80945 0.08844 0.16768 0.0
C126 C 0.80938 0.09627 0.19129 0.0
O127 O 0.82967 0.06979 0.06371 0.0
O128 O 0.80927 0.05933 0.09252 0.0
O129 O 0.7827 0.06677 0.11493 0.0
O130 O 0.78728 0.06945 0.07098 0.0
O131 O 0.83832 0.10044 0.05692 0.0
O132 O 0.81314 0.08292 0.05502 0.0
O133 O 0.82537 0.10356 0.1004 0.0
O134 O 0.84299 0.10112 0.12439 0.0
O135 O 0.86304 0.11368 0.0787 0.0
O136 O 0.87227 0.09944 0.08766 0.0
O137 O 0.81098 0.06601 0.13146 0.0
O138 O 0.83707 0.07547 0.13091 0.0
C139 C 0.81773 0.05775 0.07375 0.0
C140 C 0.82487 0.09498 0.04469 0.0
C141 C 0.76857 0.0456 0.08619 0.0
C142 C 0.75157 0.0207 0.105 0.0
C143 C 0.76082 0.02324 0.05791 0.0
C144 C 0.76888 0.03891 0.06092 0.0
C145 C 0.75217 0.01415 0.07977 0.0
C146 C 0.76004 0.0364 0.10814 0.0
C147 C 0.7774 0.06205 0.09014 0.0
C148 C 0.79891 0.12285 0.16023 0.0
C149 C 0.79589 0.12648 0.13406 0.0
H150 H 0.80576 0.11375 0.2075 0.0
C151 C 0.83607 0.10876 0.11909 0.0
C152 C 0.8232 0.06644 0.14206 0.0
C153 C 0.89003 0.12604 0.08834 0.0
C154 C 0.91644 0.14637 0.07848 0.0
C155 C 0.90682 0.14075 0.12571 0.0
C156 C 0.89273 0.12933 0.11653 0.0
C157 C 0.91852 0.14907 0.10702 0.0
C158 C 0.90197 0.13475 0.06914 0.0
C159 C 0.8753 0.11273 0.07932 0.0
H160 H 0.761 0.01816 0.03839 0.0
H161 H 0.77534 0.04573 0.04349 0.0
H162 H 0.74533 1.00208 0.07638 0.0
H163 H 0.75961 0.0415 0.12752 0.0
H164 H 0.90875 0.14307 0.1476 0.0
H165 H 0.88398 0.12286 0.13156 0.0
H166 H 0.92933 0.15774 0.11497 0.0
H167 H 0.90016 0.13222 0.04728 0.0
C168 C 0.96587 0.79984 0.08427 0.0
C169 C 0.97256 0.8059 0.03587 0.0
C170 C 0.96451 0.79526 0.05678 0.0
C171 C 0.98293 0.8209 0.04312 0.0
C172 C 0.97552 0.81514 0.09129 0.0
C173 C 0.98446 0.8255 0.07077 0.0
N174 N 0.95666 0.78971 0.10357 0.0
C175 C 0.95541 0.79446 0.12932 0.0
C176 C 0.97531 0.81977 0.11843 0.0
C177 C 0.96499 0.80945 0.13736 0.0
Gd178 Gd 0.95173 0.73258 0.0997 0.0
Gd179 Gd 0.94186 0.7648 0.08766 0.0
N180 N 0.95441 0.78065 0.05024 0.0
C181 C 0.96947 0.8013 1.00823 0.0
C182 C 0.95055 0.77637 0.02334 0.0
C183 C 0.9582 0.78655 1.00194 0.0
H184 H 0.94174 0.76503 0.01844 0.0
H185 H 0.9554 0.78304 0.98065 0.0
H186 H 0.95402 0.73856 0.17054 0.0
H187 H 0.94718 0.78658 0.14381 0.0
H188 H 0.94021 0.72549 0.21171 0.0
H189 H 0.97536 0.80918 0.99159 0.0
H190 H 0.98943 0.82917 0.02738 0.0
H191 H 0.93503 0.70757 0.04911 0.0
H192 H 0.98256 0.83142 0.12463 0.0
H193 H 0.96431 0.81307 0.15806 0.0
H194 H 0.90091 0.6777 0.17919 0.0
H195 H 0.99209 0.83725 0.07588 0.0
H196 H 0.89803 0.66743 0.08231 0.0
H197 H 0.91337 0.68205 0.04219 0.0
N198 N 0.9313 0.70815 0.09205 0.0
C199 C 0.92363 0.70003 0.11455 0.0
C200 C 0.92805 0.70166 0.06649 0.0
C201 C 0.90741 0.67879 0.08532 0.0
C202 C 0.91596 0.68702 0.06262 0.0
C203 C 0.91127 0.68519 0.11171 0.0
H204 H 0.89359 0.66588 0.13337 0.0
N205 N 0.94004 0.72099 0.14244 0.0
C206 C 0.92801 0.70665 0.14042 0.0
C207 C 0.92419 0.70555 0.18985 0.0
C208 C 0.91978 0.69861 0.16404 0.0
C209 C 0.94447 0.72757 0.16789 0.0
C210 C 0.93662 0.72006 0.19176 0.0
O211 O 0.96161 0.7659 0.06323 0.0
O212 O 0.97217 0.75614 0.09225 0.0
O213 O 0.96407 0.72189 0.11519 0.0
O214 O 0.96097 0.72314 0.07125 0.0
O215 O 0.93143 0.74466 0.05551 0.0
O216 O 0.94876 0.73663 0.05462 0.0
O217 O 0.92786 0.7288 0.09971 0.0
O218 O 0.93015 0.74884 0.12352 0.0
O219 O 0.91741 0.75617 0.08092 0.0
O220 O 0.93274 0.77989 0.08115 0.0
O221 O 0.96528 0.75177 0.13026 0.0
O222 O 0.95558 0.76823 0.13028 0.0
C223 C 0.97371 0.76636 0.07389 0.0
C224 C 0.93691 0.73653 0.04374 0.0
C225 C 0.98392 0.72542 0.08495 0.0
C226 C 1.00939 0.7338 0.10142 0.0
C227 C 1.0041 0.73153 0.05207 0.0
C228 C 0.98896 0.72653 0.05756 0.0
C229 C 1.01427 0.7351 0.07378 0.0
C230 C 0.99422 0.7292 0.10678 0.0
C231 C 0.96786 0.71999 0.0904 0.0
C232 C 0.90735 0.68395 0.16126 0.0
C233 C 0.90315 0.67723 0.13518 0.0
H234 H 0.91813 0.69979 0.20842 0.0
C235 C 0.92272 0.73422 0.11869 0.0
C236 C 0.96468 0.7634 0.14126 0.0
C237 C 0.90686 0.7728 0.08724 0.0
C238 C 0.88608 0.77865 0.07917 0.0
C239 C 0.89692 0.78073 0.12521 0.0
C240 C 0.90675 0.77608 0.11527 0.0
C241 C 0.88685 0.78206 0.10756 0.0
C242 C 0.89649 0.7742 0.06899 0.0
C243 C 0.91884 0.76947 0.07711 0.0
H244 H 1.00789 0.73223 0.03096 0.0
H245 H 0.98119 0.72344 0.04035 0.0
H246 H 0.02576 0.73806 0.06885 0.0
H247 H 0.99037 0.72807 0.12796 0.0
H248 H 0.89721 0.78349 0.14687 0.0
H249 H 0.9146 0.77539 0.12946 0.0
H250 H 0.8797 0.78603 0.11634 0.0
H251 H 0.89653 0.77183 0.0472 0.0
C252 C 0.24647 0.32283 0.45951 0.0
C253 C 0.25638 0.32073 0.50374 0.0
C254 C 0.24892 0.3141 0.47865 0.0
C255 C 0.26185 0.33617 0.50865 0.0
C256 C 0.25175 0.33829 0.46459 0.0
C257 C 0.2596 0.34494 0.48909 0.0
N258 N 0.23814 0.31598 0.43665 0.0
C259 C 0.23552 0.32406 0.41722 0.0
C260 C 0.24867 0.34656 0.44515 0.0
C261 C 0.24057 0.33941 0.42129 0.0
Gd262 Gd 0.18884 0.25975 0.44308 0.0
Gd263 Gd 0.23092 0.29061 0.43002 0.0
N264 N 0.24313 0.29902 0.47361 0.0
C265 C 0.25768 0.31156 0.52366 0.0
C266 C 0.24403 0.29004 0.49363 0.0
C267 C 0.25135 0.29615 0.51867 0.0
H268 H 0.23889 0.27809 0.49126 0.0
H269 H 0.25195 0.28888 0.53429 0.0
H270 H 0.17834 0.27061 0.38476 0.0
H271 H 0.22979 0.31874 0.39829 0.0
H272 H 0.1666 0.25955 0.34018 0.0
H273 H 0.26322 0.3162 0.54323 0.0
H274 H 0.26758 0.34138 0.52781 0.0
H275 H 0.18098 0.23046 0.48487 0.0
H276 H 0.25251 0.35844 0.44835 0.0
H277 H 0.23832 0.34574 0.40593 0.0
H278 H 0.15221 0.20726 0.34863 0.0
H279 H 0.26369 0.35678 0.49339 0.0
H280 H 0.15909 0.18996 0.43644 0.0
H281 H 0.16938 0.20269 0.48117 0.0
N282 N 0.17763 0.23336 0.44248 0.0
C283 C 0.17118 0.22651 0.41816 0.0
C284 C 0.17651 0.22498 0.46524 0.0
C285 C 0.16414 0.20213 0.43794 0.0
C286 C 0.16992 0.20927 0.46324 0.0
C287 C 0.16448 0.2107 0.41511 0.0
H288 H 0.15296 0.19181 0.3869 0.0
N289 N 0.17667 0.25035 0.40042 0.0
C290 C 0.17059 0.2352 0.39659 0.0
C291 C 0.16246 0.2373 0.35071 0.0
C292 C 0.16354 0.22832 0.37142 0.0
C293 C 0.17474 0.25894 0.38096 0.0
C294 C 0.16785 0.25262 0.3557 0.0
O295 O 0.21748 0.29737 0.45815 0.0
O296 O 0.20288 0.27532 0.48055 0.0
O297 O 0.16638 0.25822 0.44313 0.0
O298 O 0.17484 0.25334 0.4799 0.0
O299 O 0.22924 0.26883 0.44811 0.0
O300 O 0.20426 0.25201 0.46168 0.0
O301 O 0.20037 0.25737 0.40103 0.0
O302 O 0.22598 0.26868 0.40908 0.0
O303 O 0.25479 0.30244 0.42212 0.0
O304 O 0.23918 0.29905 0.38878 0.0
O305 O 0.19299 0.28263 0.43088 0.0
O306 O 0.21249 0.28885 0.40163 0.0
C307 C 0.2109 0.29039 0.48105 0.0
C308 C 0.21872 0.25599 0.45983 0.0
C309 C 0.14791 0.24328 0.47885 0.0
C310 C 0.12155 0.23657 0.49088 0.0
C311 C 0.13154 0.22033 0.50471 0.0
C312 C 0.14535 0.22999 0.49223 0.0
C313 C 0.11981 0.22355 0.50403 0.0
C314 C 0.13582 0.24663 0.47839 0.0
C315 C 0.16369 0.2543 0.46898 0.0
C316 C 0.15753 0.2127 0.36792 0.0
C317 C 0.15798 0.20391 0.38971 0.0
H318 H 0.1571 0.23243 0.33112 0.0
C319 C 0.21416 0.25961 0.39392 0.0
C320 C 0.20141 0.29072 0.41039 0.0
C321 C 0.26221 0.3003 0.37689 0.0
C322 C 0.28419 0.29752 0.37048 0.0
C323 C 0.27097 0.29943 0.33059 0.0
C324 C 0.26073 0.3007 0.34807 0.0
C325 C 0.28293 0.29817 0.34177 0.0
C326 C 0.27369 0.29823 0.38775 0.0
C327 C 0.25316 0.30385 0.39573 0.0
H328 H 0.12994 0.21029 0.51527 0.0
H329 H 0.15421 0.22717 0.49381 0.0
H330 H 0.10925 0.2158 0.51411 0.0
H331 H 0.13754 0.25693 0.46871 0.0
H332 H 0.26996 0.29999 0.30843 0.0
H333 H 0.25198 0.30243 0.33914 0.0
H334 H 0.2913 0.29804 0.32822 0.0
H335 H 0.27526 0.29829 0.40994 0.0
C336 C 0.71033 0.93164 0.4629 0.0
C337 C 0.71355 0.94717 0.50304 0.0
C338 C 0.71949 0.9443 0.47893 0.0
C339 C 0.6983 0.93764 0.51001 0.0
C340 C 0.69501 0.9221 0.46978 0.0
C341 C 0.68898 0.92542 0.49297 0.0
N342 N 0.71636 0.92876 0.44031 0.0
C343 C 0.70764 0.91707 0.42301 0.0
C344 C 0.68612 0.90963 0.45283 0.0
C345 C 0.69247 0.90713 0.42928 0.0
Gd346 Gd 0.77248 0.93646 0.4432 0.0
Gd347 Gd 0.74104 0.94685 0.42894 0.0
N348 N 0.734 0.95394 0.47065 0.0
C349 C 0.72294 0.95983 0.51903 0.0
C350 C 0.74276 0.96692 0.48528 0.0
C351 C 0.73756 0.96978 0.50999 0.0
H352 H 0.75362 0.9755 0.47804 0.0
H353 H 0.74472 0.97992 0.52169 0.0
H354 H 0.76151 0.91254 0.38868 0.0
H355 H 0.71231 0.91564 0.40403 0.0
H356 H 0.77202 0.91007 0.34475 0.0
H357 H 0.71885 0.96228 0.53787 0.0
H358 H 0.69352 0.93983 0.52822 0.0
H359 H 0.80156 0.96499 0.47716 0.0
H360 H 0.67431 0.90203 0.4575 0.0
H361 H 0.68561 0.89775 0.41567 0.0
H362 H 0.82315 0.95105 0.34554 0.0
H363 H 0.67712 0.91848 0.49811 0.0
H364 H 0.84033 0.98335 0.42478 0.0
H365 H 0.82824 0.98374 0.46878 0.0
N366 N 0.79793 0.95517 0.43723 0.0
C367 C 0.80455 0.95424 0.41346 0.0
C368 C 0.80637 0.96532 0.45724 0.0
C369 C 0.82844 0.97537 0.42804 0.0
C370 C 0.82165 0.9757 0.45283 0.0
C371 C 0.81997 0.96445 0.40814 0.0
H372 H 0.83834 0.97103 0.37904 0.0
N373 N 0.78116 0.93306 0.40023 0.0
C374 C 0.79602 0.9428 0.39461 0.0
C375 C 0.79378 0.92979 0.3516 0.0
C376 C 0.80265 0.94151 0.36994 0.0
C377 C 0.77276 0.9211 0.38315 0.0
C378 C 0.77883 0.91945 0.35839 0.0
O379 O 0.73467 0.92705 0.45802 0.0
O380 O 0.75654 0.93372 0.48094 0.0
O381 O 0.77148 0.91407 0.44939 0.0
O382 O 0.78765 0.93427 0.47106 0.0
O383 O 0.7635 0.96662 0.44483 0.0
O384 O 0.7747 0.9557 0.47036 0.0
O385 O 0.77447 0.95017 0.40092 0.0
O386 O 0.763 0.96425 0.40913 0.0
O387 O 0.72807 0.95752 0.41959 0.0
O388 O 0.73278 0.94589 0.38704 0.0
O389 O 0.74977 0.91694 0.43148 0.0
O390 O 0.74304 0.92982 0.40186 0.0
C391 C 0.74152 0.92758 0.48118 0.0
C392 C 0.7738 0.96765 0.4628 0.0
C393 C 0.79026 0.9123 0.48122 0.0
C394 C 0.79404 0.8907 0.49381 0.0
C395 C 0.81091 0.91591 0.5116 0.0
C396 C 0.80295 0.92162 0.49763 0.0
C397 C 0.80653 0.9007 0.50973 0.0
C398 C 0.78575 0.89653 0.47929 0.0
C399 C 0.7828 0.92003 0.46658 0.0
C400 C 0.81789 0.95186 0.3644 0.0
C401 C 0.82653 0.96326 0.38346 0.0
H402 H 0.79846 0.92843 0.33244 0.0
C403 C 0.77189 0.96146 0.3935 0.0
C404 C 0.74133 0.91702 0.41123 0.0
C405 C 0.73001 0.96697 0.37466 0.0
C406 C 0.73033 0.99068 0.36818 0.0
C407 C 0.73652 0.97947 0.32996 0.0
C408 C 0.73415 0.96732 0.34686 0.0
C409 C 0.73478 0.99127 0.34065 0.0
C410 C 0.72794 0.97859 0.38486 0.0
C411 C 0.72707 0.95442 0.39331 0.0
H412 H 0.82062 0.92339 0.524 0.0
H413 H 0.80695 0.9336 0.49974 0.0
H414 H 0.81304 0.89667 0.52091 0.0
H415 H 0.77609 0.88901 0.4668 0.0
H416 H 0.73964 0.97968 0.30855 0.0
H417 H 0.73554 0.95829 0.33825 0.0
H418 H 0.73666 1.00063 0.32749 0.0
H419 H 0.72446 0.97836 0.40613 0.0
C420 C 0.09754 0.7847 0.46625 0.0
C421 C 0.07911 0.77027 0.50161 0.0
C422 C 0.08379 0.78041 0.47911 0.0
C423 C 0.08796 0.764 0.50995 0.0
C424 C 0.10646 0.77842 0.47462 0.0
C425 C 0.10138 0.76776 0.49599 0.0
N426 N 0.10188 0.79448 0.44468 0.0
C427 C 0.11457 0.79792 0.42988 0.0
C428 C 0.11997 0.78261 0.46055 0.0
C429 C 0.12402 0.79239 0.43801 0.0
Gd430 Gd 0.09481 0.84294 0.44118 0.0
Gd431 Gd 0.08422 0.80085 0.4289 0.0
N432 N 0.07468 0.78548 0.46878 0.0
C433 C 0.06531 0.76614 0.51432 0.0
C434 C 0.06064 0.78042 0.4799 0.0
C435 C 0.05602 0.7712 0.50334 0.0
H436 H 0.05257 0.78288 0.47058 0.0
H437 H 0.04502 0.76754 0.51233 0.0
H438 H 0.11687 0.85393 0.3843 0.0
H439 H 0.11715 0.80459 0.41139 0.0
H440 H 0.11842 0.86626 0.33994 0.0
H441 H 0.06145 0.75858 0.53194 0.0
H442 H 0.08433 0.75591 0.52674 0.0
H443 H 0.0679 0.84514 0.47784 0.0
H444 H 0.12713 0.77805 0.46647 0.0
H445 H 0.13418 0.79531 0.42641 0.0
H446 H 0.07795 0.87719 0.34359 0.0
H447 H 0.10778 0.76237 0.50194 0.0
H448 H 0.04807 0.86434 0.42586 0.0
H449 H 0.04898 0.85304 0.47048 0.0
N450 N 0.0763 0.85003 0.43681 0.0
C451 C 0.07647 0.85684 0.41249 0.0
C452 C 0.06692 0.84907 0.45774 0.0
C453 C 0.05605 0.86039 0.42868 0.0
C454 C 0.05648 0.85395 0.45386 0.0
C455 C 0.06628 0.86215 0.40779 0.0
H456 H 0.05904 0.87343 0.37879 0.0
N457 N 0.09684 0.85365 0.39733 0.0
C458 C 0.08721 0.85901 0.39249 0.0
C459 C 0.09907 0.86877 0.34822 0.0
C460 C 0.08791 0.86646 0.36752 0.0
C461 C 0.10833 0.85675 0.37933 0.0
C462 C 0.10943 0.86406 0.35432 0.0
O463 O 0.10347 0.81448 0.45914 0.0
O464 O 0.09694 0.8303 0.48051 0.0
O465 O 0.11802 0.86209 0.4473 0.0
O466 O 0.09914 0.86371 0.46196 0.0
O467 O 0.06477 0.80436 0.44374 0.0
O468 O 0.07579 0.82648 0.46935 0.0
O469 O 0.08117 0.8307 0.39924 0.0
O470 O 0.067 0.80505 0.40709 0.0
O471 O 0.07412 0.77732 0.4186 0.0
O472 O 0.08701 0.79415 0.38739 0.0
O473 O 0.11402 0.83924 0.42984 0.0
O474 O 0.10127 0.81928 0.40115 0.0
C475 C 0.10266 0.82102 0.48188 0.0
C476 C 0.06382 0.81357 0.46199 0.0
C477 C 0.12307 0.88122 0.48224 0.0
C478 C 0.14359 0.90608 0.4996 0.0
C479 C 0.12552 0.88712 0.53131 0.0
C480 C 0.11816 0.87713 0.50957 0.0
C481 C 0.13803 0.90137 0.52643 0.0
C482 C 0.13596 0.89588 0.47727 0.0
C483 C 0.11375 0.87078 0.45921 0.0
C484 C 0.07759 0.87149 0.36268 0.0
C485 C 0.06681 0.86932 0.38273 0.0
H486 H 0.09999 0.87448 0.32884 0.0
C487 C 0.06987 0.81687 0.39173 0.0
C488 C 0.11402 0.83059 0.40997 0.0
C489 C 0.06846 0.76956 0.37239 0.0
C490 C 0.04353 0.74746 0.36742 0.0
C491 C 0.06423 0.75102 0.33728 0.0
C492 C 0.07402 0.76432 0.35128 0.0
C493 C 0.04922 0.74231 0.34594 0.0
C494 C 0.05298 0.76208 0.37786 0.0
C495 C 0.07896 0.77983 0.39319 0.0
H496 H 0.1214 0.88383 0.5522 0.0
H497 H 0.10836 0.86625 0.5141 0.0
H498 H 0.1434 0.90885 0.54383 0.0
H499 H 0.13985 0.89938 0.45631 0.0
H500 H 0.06859 0.74679 0.32136 0.0
H501 H 0.08601 0.76998 0.34678 0.0
H502 H 0.0426 0.73121 0.33691 0.0
H503 H 0.04889 0.76693 0.39309 0.0
C504 C 0.70675 0.79426 0.92003 0.0
C505 C 0.70596 0.79604 0.87026 0.0
C506 C 0.71363 0.79604 0.89451 0.0
C507 C 0.69147 0.79438 0.87211 0.0
C508 C 0.69201 0.79212 0.92193 0.0
C509 C 0.68448 0.79233 0.89786 0.0
N510 N 0.71451 0.79474 0.94308 0.0
C511 C 0.70768 0.7916 0.96833 0.0
C512 C 0.68528 0.78982 0.94801 0.0
C513 C 0.69309 0.78935 0.97129 0.0
Gd514 Gd 0.77015 0.84124 0.94868 0.0
Gd515 Gd 0.73902 0.7988 0.93692 0.0
N516 N 0.72774 0.79771 0.89342 0.0
C517 C 0.713 0.79759 0.84478 0.0
C518 C 0.73419 0.79827 0.86836 0.0
C519 C 0.72707 0.7985 0.84383 0.0
H520 H 0.74464 0.79823 0.86668 0.0
H521 H 0.7324 0.79921 0.82413 0.0
H522 H 0.77073 0.84109 1.01796 0.0
H523 H 0.71333 0.7905 0.98618 0.0
H524 H 0.78865 0.84416 0.05521 0.0
H525 H 0.70752 0.79772 0.82571 0.0
H526 H 0.6855 0.79448 0.85369 0.0
H527 H 0.79175 0.85783 0.89248 0.0
H528 H 0.67398 0.7881 0.95033 0.0
H529 H 0.68784 0.78711 0.99147 0.0
H530 H 0.83435 0.85603 1.00718 0.0
H531 H 0.67323 0.79086 0.89893 0.0
H532 H 0.83641 0.86638 0.91041 0.0
H533 H 0.81808 0.86686 0.87765 0.0
N534 N 0.79492 0.85106 0.93232 0.0
C535 C 0.80505 0.85163 0.95127 0.0
C536 C 0.79961 0.85718 0.90665 0.0
C537 C 0.82482 0.86211 0.91684 0.0
C538 C 0.81451 0.86242 0.89829 0.0
C539 C 0.82027 0.85708 0.94393 0.0
H540 H 0.84232 0.86208 0.95873 0.0
N541 N 0.78609 0.84399 0.98569 0.0
C542 C 0.80056 0.84817 0.97876 0.0
C543 C 0.80664 0.84822 0.02704 0.0
C544 C 0.81117 0.85015 0.99931 0.0
C545 C 0.78196 0.84337 1.01275 0.0
C546 C 0.79207 0.84512 0.0338 0.0
O547 O 0.73469 0.81857 0.93582 0.0
O548 O 0.75454 0.8367 0.91234 0.0
O549 O 0.76158 0.85721 0.95457 0.0
O550 O 0.7852 0.86527 0.95661 0.0
O551 O 0.75885 0.80497 0.90737 0.0
O552 O 0.7729 0.83134 0.90501 0.0
O553 O 0.77094 0.82247 0.97324 0.0
O554 O 0.76287 0.80272 0.94359 0.0
O555 O 0.72797 0.7756 0.92264 0.0
O556 O 0.73086 0.78057 0.96644 0.0
O557 O 0.74972 0.83137 0.98026 0.0
O558 O 0.74207 0.80605 0.98199 0.0
C559 C 0.73992 0.82899 0.91656 0.0
C560 C 0.76932 0.81749 0.89508 0.0
C561 C 0.77865 0.88438 0.94936 0.0
C562 C 0.78448 0.911 0.95747 0.0
C563 C 0.78815 0.90274 0.91209 0.0
C564 C 0.78303 0.88811 0.92177 0.0
C565 C 0.78888 0.91397 0.92956 0.0
C566 C 0.77952 0.896 0.96744 0.0
C567 C 0.77482 0.86892 0.9595 0.0
C568 C 0.82609 0.85463 0.99171 0.0
C569 C 0.83062 0.85807 0.96409 0.0
H570 H 0.81449 0.84969 0.04342 0.0
C571 C 0.77263 0.81164 0.9622 0.0
C572 C 0.74169 0.81781 0.99225 0.0
C573 C 0.73358 0.76026 0.95123 0.0
C574 C 0.74128 0.74319 0.9318 0.0
C575 C 0.7437 0.74839 0.98116 0.0
C576 C 0.73763 0.75784 0.97771 0.0
C577 C 0.74549 0.74106 0.95842 0.0
C578 C 0.73552 0.75297 0.92839 0.0
C579 C 0.7273 0.77032 0.94745 0.0
H580 H 0.79172 0.90546 0.8908 0.0
H581 H 0.78282 0.87972 0.90777 0.0
H582 H 0.79312 0.9252 0.9211 0.0
H583 H 0.77636 0.89337 0.98893 0.0
H584 H 0.74669 0.74647 1.00161 0.0
H585 H 0.73609 0.7632 0.99575 0.0
H586 H 0.74946 0.73314 0.96194 0.0
H587 H 0.73218 0.75456 0.90797 0.0
C588 C 0.23614 0.9169 0.91903 0.0
C589 C 0.23873 0.91684 0.86944 0.0
C590 C 0.23693 0.92344 0.89369 0.0
C591 C 0.23869 0.90306 0.87106 0.0
C592 C 0.23718 0.90366 0.92103 0.0
C593 C 0.23793 0.89648 0.89684 0.0
N594 N 0.23551 0.92417 0.94194 0.0
C595 C 0.23815 0.92013 0.96722 0.0
C596 C 0.23822 0.8985 0.94729 0.0
C597 C 0.23913 0.90704 0.97049 0.0
Gd598 Gd 0.1903 0.93509 0.94956 0.0
Gd599 Gd 0.23265 0.94546 0.93549 0.0
N600 N 0.23717 0.93689 0.89303 0.0
C601 C 0.24106 0.92456 0.84446 0.0
C602 C 0.24094 0.94509 0.86919 0.0
C603 C 0.24252 0.93891 0.84445 0.0
H604 H 0.24315 0.95658 0.86925 0.0
H605 H 0.24514 0.94534 0.82548 0.0
H606 H 0.19162 0.93663 0.0187 0.0
H607 H 0.24011 0.92732 0.98464 0.0
H608 H 0.18851 0.95148 0.05593 0.0
H609 H 0.24246 0.91988 0.82534 0.0
H610 H 0.23981 0.8977 0.85259 0.0
H611 H 0.17239 0.93893 0.89417 0.0
H612 H 0.23915 0.88845 0.94975 0.0
H613 H 0.24091 0.90375 0.99078 0.0
H614 H 0.17532 0.98442 1.008 0.0
H615 H 0.23851 0.88618 0.89791 0.0
H616 H 0.16344 0.97487 0.91189 0.0
H617 H 0.16264 0.95572 0.87953 0.0
N618 N 0.17963 0.94936 0.93351 0.0
C619 C 0.17928 0.95912 0.95229 0.0
C620 C 0.17299 0.94747 0.90822 0.0
C621 C 0.16795 0.96772 0.91825 0.0
C622 C 0.16743 0.95689 0.89994 0.0
C623 C 0.1735 0.96864 0.94505 0.0
H624 H 0.16847 0.9857 0.9598 0.0
N625 N 0.18783 0.94849 0.98645 0.0
C626 C 0.18331 0.95854 0.97958 0.0
C627 C 0.18371 0.96492 0.0278 0.0
C628 C 0.18141 0.96725 1.00012 0.0
C629 C 0.18901 0.94536 1.01349 0.0
C630 C 0.18721 0.95371 0.03454 0.0
O631 O 0.21245 0.92174 0.93444 0.0
O632 O 0.19435 0.92414 0.91232 0.0
O633 O 0.17408 0.91042 0.9511 0.0
O634 O 0.16688 0.92589 0.96282 0.0
O635 O 0.2254 0.95639 0.90149 0.0
O636 O 0.19991 0.94923 0.9072 0.0
O637 O 0.20981 0.95463 0.97266 0.0
O638 O 0.22843 0.96526 0.94051 0.0
O639 O 0.25624 0.95781 0.92389 0.0
O640 O 0.24981 0.95662 0.96682 0.0
O641 O 0.2003 0.9246 0.98107 0.0
O642 O 0.22578 0.9416 0.98078 0.0
C643 C 0.20232 0.91736 0.91478 0.0
C644 C 0.21312 0.95663 0.89299 0.0
C645 C 0.147 0.90136 0.95059 0.0
C646 C 0.11998 0.88131 0.95799 0.0
C647 C 0.12833 0.89564 0.91473 0.0
C648 C 0.14318 0.9038 0.92411 0.0
C649 C 0.11695 0.8847 0.93133 0.0
C650 C 0.13527 0.89005 0.96776 0.0
C651 C 0.16286 0.91173 0.96075 0.0
C652 C 0.17661 0.97745 0.99256 0.0
C653 C 0.17271 0.97818 0.96509 0.0
H654 H 0.18228 0.97134 0.04418 0.0
C655 C 0.22053 0.96679 0.96042 0.0
C656 C 0.21403 0.92995 0.99222 0.0
C657 C 0.26914 0.98003 0.9504 0.0
C658 C 0.2866 1.00412 0.92909 0.0
C659 C 0.27649 1.00347 0.97489 0.0
C660 C 0.26841 0.98771 0.97399 0.0
C661 C 0.2856 1.01167 0.95267 0.0
C662 C 0.27802 0.98834 0.92794 0.0
C663 C 0.26046 0.96345 0.94858 0.0
H664 H 0.12555 0.89792 0.89438 0.0
H665 H 0.15168 0.91235 0.91082 0.0
H666 H 0.10556 0.87896 0.92314 0.0
H667 H 0.13802 0.88809 0.98837 0.0
H668 H 0.27599 1.00932 0.99316 0.0
H669 H 0.26163 0.98158 0.99169 0.0
H670 H 0.29246 0.02383 0.95461 0.0
H671 H 0.27869 0.98248 0.90978 0.0
C672 C 0.11307 0.32485 0.9211 0.0
C673 C 0.11758 0.32611 0.87178 0.0
C674 C 0.10921 0.31803 0.89523 0.0
C675 C 0.12961 0.34099 0.87465 0.0
C676 C 0.1249 0.33995 0.92392 0.0
C677 C 0.13318 0.34794 0.90061 0.0
N678 N 0.1053 0.31671 0.94354 0.0
C679 C 0.1077 0.32347 0.96878 0.0
C680 C 0.12797 0.34665 0.95011 0.0
C681 C 0.11915 0.33842 0.97255 0.0
Gd682 Gd 0.09564 0.26078 0.9486 0.0
Gd683 Gd 0.08517 0.29229 0.9353 0.0
N684 N 0.09739 0.30357 0.89302 0.0
C685 C 0.11356 0.31903 0.84601 0.0
C686 C 0.09301 0.29703 0.86759 0.0
C687 C 0.10116 0.30449 0.8439 0.0
H688 H 0.08309 0.28625 0.86497 0.0
H689 H 0.0977 0.29908 0.82391 0.0
H690 H 0.09579 0.26087 1.0175 0.0
H691 H 0.10037 0.31759 0.98581 0.0
H692 H 0.0837 0.24264 0.05568 0.0
H693 H 0.11977 0.32481 0.82756 0.0
H694 H 0.13614 0.3473 0.85684 0.0
H695 H 0.08986 0.23931 0.89163 0.0
H696 H 0.13684 0.35826 0.95309 0.0
H697 H 0.12094 0.34365 0.99262 0.0
H698 H 0.05219 0.19538 1.00999 0.0
H699 H 0.14235 0.3595 0.90244 0.0
H700 H 0.05708 0.19366 0.91201 0.0
H701 H 0.07361 0.21267 0.87766 0.0
N702 N 0.08131 0.23571 0.93275 0.0
C703 C 0.07298 0.22529 0.95236 0.0
C704 C 0.08219 0.23121 0.90653 0.0
C705 C 0.06385 0.20541 0.91809 0.0
C706 C 0.07317 0.21611 0.89863 0.0
C707 C 0.06401 0.20984 0.9455 0.0
H708 H 0.04908 0.18734 0.96142 0.0
N709 N 0.08382 0.24468 0.98607 0.0
C710 C 0.07455 0.22984 0.97984 0.0
C711 C 0.07058 0.22381 0.02854 0.0
C712 C 0.06746 0.21904 1.00098 0.0
C713 C 0.08763 0.24925 1.01285 0.0
C714 C 0.08088 0.23894 0.03447 0.0
O715 O 0.10915 0.29627 0.93567 0.0
O716 O 0.10703 0.27622 0.91238 0.0
O717 O 0.11966 0.26991 0.95951 0.0
O718 O 0.10587 0.24638 0.9507 0.0
O719 O 0.07113 0.27273 0.90537 0.0
O720 O 0.08259 0.25781 0.90554 0.0
O721 O 0.07534 0.25877 0.97257 0.0
O722 O 0.06474 0.269 0.94427 0.0
O723 O 0.07472 0.30418 0.91701 0.0
O724 O 0.07495 0.30178 0.96173 0.0
O725 O 0.10578 0.28117 0.98051 0.0
O726 O 0.08832 0.28905 0.98092 0.0
C727 C 0.11449 0.29077 0.9172 0.0
C728 C 0.07271 0.26161 0.89461 0.0
C729 C 0.13255 0.25583 0.94958 0.0
C730 C 0.15271 0.24924 0.95782 0.0
C731 C 0.14841 0.25622 0.91184 0.0
C732 C 0.13667 0.25822 0.92167 0.0
C733 C 0.15624 0.25172 0.92956 0.0
C734 C 0.14077 0.25145 0.96785 0.0
C735 C 0.11906 0.25684 0.95902 0.0
C736 C 0.0579 0.20379 0.99404 0.0
C737 C 0.05612 0.19922 0.96636 0.0
H738 H 0.06542 0.21583 0.04534 0.0
C739 C 0.06329 0.25875 0.96256 0.0
C740 C 0.10023 0.28933 0.99204 0.0
C741 C 0.05908 0.31032 0.94388 0.0
C742 C 0.03382 0.30478 0.93283 0.0
C743 C 0.04928 0.32532 0.96433 0.0
C744 C 0.06093 0.32214 0.96121 0.0
C745 C 0.03576 0.31667 0.95027 0.0
C746 C 0.04555 0.30162 0.92946 0.0
C747 C 0.07181 0.30787 0.94106 0.0
H748 H 0.15138 0.25802 0.89016 0.0
H749 H 0.13061 0.26143 0.90732 0.0
H750 H 0.16519 0.25017 0.92106 0.0
H751 H 0.13763 0.24937 0.98944 0.0
H752 H 0.05073 0.33447 0.97764 0.0
H753 H 0.07145 0.32896 0.97222 0.0
H754 H 0.02676 0.31925 0.95299 0.0
H755 H 0.04413 0.29252 0.91598 0.0
C756 C 0.86259 0.79877 0.62264 0.0
C757 C 0.87373 0.79749 0.66622 0.0
C758 C 0.86564 0.7905 0.64189 0.0
C759 C 0.87868 0.81282 0.671 0.0
C760 C 0.86784 0.81427 0.62721 0.0
C761 C 0.87577 0.8212 0.65154 0.0
N762 N 0.85499 0.79183 0.5991 0.0
C763 C 0.85311 0.79999 0.57869 0.0
C764 C 0.86525 0.82247 0.60689 0.0
C765 C 0.85798 0.81532 0.58242 0.0
Gd766 Gd 0.80631 0.73475 0.60803 0.0
Gd767 Gd 0.84842 0.76636 0.59428 0.0
N768 N 0.86061 0.7756 0.63686 0.0
C769 C 0.87681 0.7889 0.68488 0.0
C770 C 0.86432 0.76743 0.65427 0.0
C771 C 0.8722 0.77385 0.67874 0.0
H772 H 0.86154 0.75608 0.64925 0.0
H773 H 0.87492 0.76725 0.69264 0.0
H774 H 0.78993 0.74804 0.56118 0.0
H775 H 0.84852 0.79488 0.55898 0.0
H776 H 0.77844 0.74102 0.51551 0.0
H777 H 0.883 0.79386 0.70377 0.0
H778 H 0.88493 0.81837 0.68956 0.0
H779 H 0.80832 0.70523 0.63007 0.0
H780 H 0.86917 0.8344 0.60958 0.0
H781 H 0.85641 0.82168 0.56617 0.0
H782 H 0.77124 0.69156 0.50004 0.0
H783 H 0.87987 0.83308 0.65536 0.0
H784 H 0.78731 0.66969 0.5704 0.0
H785 H 0.8007 0.67923 0.6149 0.0
N786 N 0.80012 0.71046 0.59399 0.0
C787 C 0.79209 0.70525 0.57024 0.0
C788 C 0.80284 0.70122 0.61039 0.0
C789 C 0.79071 0.6811 0.57696 0.0
C790 C 0.79835 0.68647 0.602 0.0
C791 C 0.78742 0.69048 0.56079 0.0
H792 H 0.77624 0.67436 0.52782 0.0
N793 N 0.79291 0.72884 0.56553 0.0
C794 C 0.78887 0.71487 0.55511 0.0
C795 C 0.77808 0.71978 0.51473 0.0
C796 C 0.78132 0.71 0.52951 0.0
C797 C 0.78852 0.73781 0.55212 0.0
C798 C 0.7815 0.73364 0.52627 0.0
O799 O 0.83677 0.76789 0.6369 0.0
O800 O 0.81101 0.75653 0.62984 0.0
O801 O 0.78251 0.72161 0.61651 0.0
O802 O 0.79854 0.72515 0.64906 0.0
O803 O 0.84523 0.74383 0.60733 0.0
O804 O 0.82493 0.7363 0.63578 0.0
O805 O 0.82059 0.72907 0.57946 0.0
O806 O 0.83537 0.75088 0.55623 0.0
O807 O 0.86897 0.76402 0.58647 0.0
O808 O 0.86647 0.78193 0.56799 0.0
O809 O 0.80929 0.75753 0.59365 0.0
O810 O 0.83104 0.76804 0.56726 0.0
C811 C 0.82305 0.76559 0.64465 0.0
C812 C 0.83655 0.7352 0.62729 0.0
C813 C 0.77419 0.72044 0.66203 0.0
C814 C 0.75497 0.72768 0.6676 0.0
C815 C 0.75458 0.70775 0.69619 0.0
C816 C 0.76729 0.70937 0.68243 0.0
C817 C 0.74813 0.71645 0.68825 0.0
C818 C 0.76892 0.73047 0.6568 0.0
C819 C 0.78438 0.71925 0.64228 0.0
C820 C 0.77701 0.69544 0.51967 0.0
C821 C 0.77985 0.68563 0.53546 0.0
H822 H 0.77248 0.71653 0.49486 0.0
C823 C 0.82676 0.73585 0.5561 0.0
C824 C 0.81854 0.76768 0.57549 0.0
C825 C 0.8897 0.78249 0.55443 0.0
C826 C 0.91525 0.78653 0.5423 0.0
C827 C 0.90486 0.80011 0.51792 0.0
C828 C 0.89175 0.79303 0.53367 0.0
C829 C 0.91643 0.79694 0.52217 0.0
C830 C 0.90169 0.77915 0.5587 0.0
C831 C 0.87501 0.77595 0.57065 0.0
H832 H 0.74906 0.69897 0.71157 0.0
H833 H 0.77127 0.70152 0.6867 0.0
H834 H 0.73734 0.7136 0.69724 0.0
H835 H 0.77501 0.73941 0.64196 0.0
H836 H 0.90609 0.80819 0.50222 0.0
H837 H 0.88312 0.79596 0.52941 0.0
H838 H 0.9265 0.80273 0.50951 0.0
H839 H 0.90056 0.77114 0.57448 0.0
C840 C 0.23327 0.07075 0.62513 0.0
C841 C 0.23535 0.08222 0.67018 0.0
C842 C 0.24199 0.08138 0.64516 0.0
C843 C 0.21998 0.07211 0.67507 0.0
C844 C 0.21772 0.06085 0.62981 0.0
C845 C 0.21119 0.06147 0.65496 0.0
N846 N 0.23979 0.07052 0.60068 0.0
C847 C 0.23119 0.06136 0.57964 0.0
C848 C 0.20905 0.05088 0.60876 0.0
C849 C 0.21579 0.05125 0.58348 0.0
Gd850 Gd 0.2968 0.07796 0.6063 0.0
Gd851 Gd 0.26545 0.08881 0.59614 0.0
N852 N 0.25696 0.09095 0.64013 0.0
C853 C 0.2443 0.09336 0.68943 0.0
C854 C 0.26543 0.10247 0.65805 0.0
C855 C 0.25935 0.10363 0.68317 0.0
H856 H 0.27676 0.111 0.65297 0.0
H857 H 0.26621 0.11263 0.69748 0.0
H858 H 0.28334 0.04969 0.55673 0.0
H859 H 0.236 0.06234 0.55945 0.0
H860 H 0.29096 0.04586 0.51113 0.0
H861 H 0.2396 0.09437 0.70885 0.0
H862 H 0.21471 0.07257 0.6942 0.0
H863 H 0.32631 0.10874 0.6307 0.0
H864 H 0.19707 0.04317 0.61153 0.0
H865 H 0.20905 0.044 0.56672 0.0
H866 H 0.34118 0.08729 0.49974 0.0
H867 H 0.19928 0.05393 0.65887 0.0
H868 H 0.36234 0.12417 0.57201 0.0
H869 H 0.35244 0.12724 0.61676 0.0
N870 N 0.32125 0.09617 0.59356 0.0
C871 C 0.32664 0.09377 0.56961 0.0
C872 C 0.3304 0.10769 0.61081 0.0
C873 C 0.35083 0.11617 0.57795 0.0
C874 C 0.34526 0.118 0.60313 0.0
C875 C 0.34154 0.10388 0.56092 0.0
H876 H 0.35805 0.10915 0.52849 0.0
N877 N 0.30295 0.07134 0.56317 0.0
C878 C 0.3171 0.08126 0.55361 0.0
C879 C 0.31255 0.06629 0.51231 0.0
C880 C 0.32227 0.07892 0.52806 0.0
C881 C 0.29389 0.05844 0.5486 0.0
C882 C 0.29836 0.05595 0.52275 0.0
O883 O 0.26459 0.0755 0.63812 0.0
O884 O 0.27514 0.06079 0.62796 0.0
O885 O 0.30978 0.06692 0.61288 0.0
O886 O 0.30601 0.0784 0.64706 0.0
O887 O 0.28823 0.10783 0.60859 0.0
O888 O 0.29632 0.09504 0.63561 0.0
O889 O 0.30223 0.09805 0.57841 0.0
O890 O 0.28012 0.09131 0.55642 0.0
O891 O 0.27006 0.11213 0.58906 0.0
O892 O 0.24886 0.09339 0.57683 0.0
O893 O 0.27392 0.05848 0.59143 0.0
O894 O 0.26227 0.06959 0.56767 0.0
C895 C 0.26668 0.06378 0.64446 0.0
C896 C 0.29715 0.10774 0.62788 0.0
C897 C 0.30803 0.05689 0.65719 0.0
C898 C 0.29952 0.03006 0.66048 0.0
C899 C 0.31403 0.04714 0.69787 0.0
C900 C 0.31509 0.05934 0.68297 0.0
C901 C 0.30658 0.0326 0.68648 0.0
C902 C 0.29944 0.04215 0.64702 0.0
C903 C 0.31129 0.06971 0.63931 0.0
C904 C 0.33703 0.08907 0.51916 0.0
C905 C 0.34667 0.10147 0.53559 0.0
H906 H 0.31604 0.0642 0.49243 0.0
C907 C 0.29517 0.09755 0.55546 0.0
C908 C 0.26334 0.05758 0.5743 0.0
C909 C 0.25561 0.11686 0.55474 0.0
C910 C 0.24991 0.13619 0.53614 0.0
C911 C 0.25217 0.11848 0.50543 0.0
C912 C 0.25524 0.11176 0.52769 0.0
C913 C 0.24944 0.13044 0.50958 0.0
C914 C 0.2531 0.12933 0.55891 0.0
C915 C 0.25687 0.10803 0.57836 0.0
H916 H 0.3197 0.04907 0.71759 0.0
H917 H 0.32178 0.0707 0.6911 0.0
H918 H 0.30711 0.02361 0.69732 0.0
H919 H 0.29369 0.04027 0.62736 0.0
H920 H 0.2517 0.11425 0.48474 0.0
H921 H 0.25696 0.10227 0.52383 0.0
H922 H 0.24695 0.13529 0.49181 0.0
H923 H 0.25315 0.13332 0.57967 0.0
C924 C 0.95952 0.16809 0.62545 0.0
C925 C 0.94662 0.1582 0.66922 0.0
C926 C 0.94821 0.16589 0.64414 0.0
C927 C 0.95646 0.15274 0.67529 0.0
C928 C 0.96923 0.16233 0.63135 0.0
C929 C 0.9677 0.15476 0.6564 0.0
N930 N 0.96081 0.17549 0.6013 0.0
C931 C 0.97084 0.17658 0.58156 0.0
C932 C 0.98002 0.16409 0.61166 0.0
C933 C 0.98072 0.17111 0.58655 0.0
Gd934 Gd 0.95399 0.22539 0.60847 0.0
Gd935 Gd 0.94267 0.18284 0.59426 0.0
N936 N 0.93891 0.17149 0.63795 0.0
C937 C 0.93507 0.1561 0.6874 0.0
C938 C 0.92714 0.16873 0.65495 0.0
C939 C 0.92522 0.16127 0.68011 0.0
H940 H 0.91898 0.17189 0.64904 0.0
H941 H 0.91598 0.15931 0.69367 0.0
H942 H 0.98564 0.24607 0.56889 0.0
H943 H 0.9708 0.18102 0.56144 0.0
H944 H 0.99284 0.26264 0.52838 0.0
H945 H 0.93349 0.15025 0.70686 0.0
H946 H 0.95539 0.1468 0.69445 0.0
H947 H 0.92154 0.22182 0.62979 0.0
H948 H 0.98761 0.15974 0.61537 0.0
H949 H 0.98867 0.17205 0.5708 0.0
H950 H 0.9498 0.26838 0.51064 0.0
H951 H 0.97508 0.1503 0.66125 0.0
H952 H 0.9074 0.24395 0.57191 0.0
H953 H 0.90253 0.22842 0.61403 0.0
N954 N 0.93596 0.23193 0.59543 0.0
C955 C 0.93953 0.24156 0.57374 0.0
C956 C 0.92332 0.22791 0.61074 0.0
C957 C 0.9156 0.24081 0.57852 0.0
C958 C 0.91275 0.23196 0.60219 0.0
C959 C 0.92925 0.24598 0.56428 0.0
H960 H 0.92519 0.25892 0.53348 0.0
N961 N 0.96321 0.2425 0.57094 0.0
C962 C 0.95347 0.24688 0.56099 0.0
C963 C 0.9716 0.26224 0.52614 0.0
C964 C 0.9574 0.2568 0.53827 0.0
C965 C 0.97739 0.24846 0.56002 0.0
C966 C 0.98168 0.25817 0.53723 0.0
O967 O 0.95629 0.19493 0.6364 0.0
O968 O 0.97134 0.22028 0.62723 0.0
O969 O 0.96413 0.24848 0.62174 0.0
O970 O 0.95185 0.23054 0.65154 0.0
O971 O 0.92333 0.18682 0.60275 0.0
O972 O 0.93621 0.20578 0.63315 0.0
O973 O 0.93569 0.21351 0.57554 0.0
O974 O 0.93932 0.19504 0.55595 0.0
O975 O 0.92069 0.16075 0.59061 0.0
O976 O 0.94014 0.16571 0.56546 0.0
O977 O 0.97326 0.22244 0.59098 0.0
O978 O 0.96254 0.19945 0.56764 0.0
C979 C 0.96815 0.20858 0.64317 0.0
C980 C 0.92336 0.19553 0.62249 0.0
C981 C 0.97114 0.25447 0.66816 0.0
C982 C 0.99634 0.27632 0.67169 0.0
C983 C 0.97678 0.27246 0.70505 0.0
C984 C 0.96642 0.25946 0.69094 0.0
C985 C 0.99149 0.2812 0.6949 0.0
C986 C 0.98646 0.2618 0.66119 0.0
C987 C 0.95993 0.24506 0.64738 0.0
C988 C 0.94703 0.26092 0.52828 0.0
C989 C 0.933 0.25552 0.54124 0.0
H990 H 0.97499 0.26978 0.50852 0.0
C991 C 0.93496 0.20536 0.55395 0.0
C992 C 0.97422 0.21287 0.5736 0.0
C993 C 0.91877 0.14042 0.55789 0.0
C994 C 0.89733 0.11489 0.54555 0.0
C995 C 0.92266 0.12323 0.52839 0.0
C996 C 0.92824 0.13696 0.5421 0.0
C997 C 0.90746 0.11237 0.53006 0.0
C998 C 0.90301 0.12913 0.55965 0.0
C999 C 0.9263 0.15583 0.5718 0.0
H1000 H 0.97305 0.27652 0.72229 0.0
H1001 H 0.95459 0.25391 0.69667 0.0
H1002 H 0.99846 0.29215 0.70423 0.0
H1003 H 0.98993 0.25707 0.64468 0.0
H1004 H 0.93024 0.12096 0.51634 0.0
H1005 H 0.94021 0.14494 0.54021 0.0
H1006 H 0.90355 0.1018 0.51906 0.0
H1007 H 0.89539 0.13132 0.57172 0.0
C1008 C 0.89834 0.50605 0.41619 0.0
C1009 C 0.89283 0.50614 0.36734 0.0
C1010 C 0.90321 0.50886 0.38882 0.0
C1011 C 0.87779 0.50171 0.3738 0.0
C1012 C 0.88301 0.50073 0.42252 0.0
C1013 C 0.87291 0.49909 0.40132 0.0
N1014 N 0.90822 0.50719 0.43621 0.0
C1015 C 0.90319 0.50179 0.4622 0.0
C1016 C 0.87811 0.4965 0.44975 0.0
C1017 C 0.88818 0.49677 0.46955 0.0
Gd1018 Gd 0.96414 0.55914 0.43007 0.0
Gd1019 Gd 0.93325 0.51664 0.4213 0.0
N1020 N 0.91791 0.51338 0.38306 0.0
C1021 C 0.89778 0.50749 0.33995 0.0
C1022 C 0.92255 0.5137 0.35645 0.0
C1023 C 0.91263 0.51103 0.3345 0.0
H1024 H 0.93395 0.51622 0.35222 0.0
H1025 H 0.91642 0.51164 0.31342 0.0
H1026 H 0.96141 0.566 0.49878 0.0
H1027 H 0.91077 0.50141 0.47736 0.0
H1028 H 0.97644 0.57102 0.5407 0.0
H1029 H 0.89012 0.50541 0.32288 0.0
H1030 H 0.86972 0.49984 0.35759 0.0
H1031 H 0.98873 0.5671 0.37895 0.0
H1032 H 0.86643 0.49238 0.45542 0.0
H1033 H 0.88434 0.49291 0.49037 0.0
H1034 H 0.02286 0.57504 0.50989 0.0
H1035 H 0.86114 0.4952 0.40587 0.0
H1036 H 0.03008 0.57331 0.41259 0.0
H1037 H 1.01446 0.57134 0.37202 0.0
N1038 N 0.98884 0.5642 0.42226 0.0
C1039 C 0.99761 0.56663 0.44487 0.0
C1040 C 0.99499 0.56676 0.39649 0.0
C1041 C 1.01855 0.57085 0.41557 0.0
C1042 C 1.00976 0.56967 0.39262 0.0
C1043 C 1.01266 0.56977 0.44213 0.0
H1044 H 0.03308 0.57467 0.46413 0.0
N1045 N 0.97747 0.56463 0.47243 0.0
C1046 C 0.99179 0.56691 0.47066 0.0
C1047 C 0.99524 0.57144 0.51985 0.0
C1048 C 1.001 0.57028 0.49435 0.0
C1049 C 0.97215 0.56652 0.49716 0.0
C1050 C 0.98083 0.56971 0.52118 0.0
O1051 O 0.93155 0.535 0.39657 0.0
O1052 O 0.94008 0.55466 0.42652 0.0
O1053 O 0.97629 0.58291 0.43934 0.0
O1054 O 0.96779 0.57535 0.39785 0.0
O1055 O 0.95411 0.52564 0.39086 0.0
O1056 O 0.96075 0.55044 0.38597 0.0
O1057 O 0.96923 0.53999 0.43567 0.0
O1058 O 0.94871 0.52164 0.45797 0.0
O1059 O 0.94155 0.50061 0.41336 0.0
O1060 O 0.91794 0.49234 0.41777 0.0
O1061 O 0.94545 0.553 0.46223 0.0
O1062 O 0.93077 0.52674 0.46493 0.0
C1063 C 0.93037 0.5462 0.4075 0.0
C1064 C 0.96172 0.53876 0.37737 0.0
C1065 C 0.96553 0.59545 0.41668 0.0
C1066 C 0.96258 0.61474 0.44043 0.0
C1067 C 0.94731 0.60225 0.39997 0.0
C1068 C 0.95446 0.59368 0.3974 0.0
C1069 C 0.95139 0.61281 0.42129 0.0
C1070 C 0.96922 0.60572 0.43834 0.0
C1071 C 0.97312 0.58651 0.41543 0.0
C1072 C 1.01573 0.57264 0.49185 0.0
C1073 C 0.02155 0.57238 0.46581 0.0
H1074 H 1.00195 0.57399 0.53849 0.0
C1075 C 0.96344 0.5298 0.45533 0.0
C1076 C 0.93491 0.5407 0.47497 0.0
C1077 C 0.92521 0.47353 0.42157 0.0
C1078 C 0.91986 0.44716 0.41271 0.0
C1079 C 0.91742 0.45535 0.45901 0.0
C1080 C 0.92185 0.46986 0.4495 0.0
C1081 C 0.91641 0.4442 0.441 0.0
C1082 C 0.92409 0.46202 0.40297 0.0
C1083 C 0.9281 0.48874 0.41177 0.0
H1084 H 0.93888 0.60097 0.385 0.0
H1085 H 0.95131 0.58572 0.38049 0.0
H1086 H 0.94637 0.61998 0.42193 0.0
H1087 H 0.97778 0.60714 0.45321 0.0
H1088 H 0.91458 0.45265 0.48058 0.0
H1089 H 0.92227 0.47818 0.46395 0.0
H1090 H 0.91266 0.43304 0.44937 0.0
H1091 H 0.92646 0.46462 0.38123 0.0
C1092 C 0.52627 0.4002 0.41776 0.0
C1093 C 0.52678 0.39469 0.36904 0.0
C1094 C 0.52332 0.40192 0.39032 0.0
C1095 C 0.53215 0.38484 0.37578 0.0
C1096 C 0.53247 0.39095 0.4244 0.0
C1097 C 0.53491 0.38291 0.4034 0.0
N1098 N 0.52443 0.40863 0.43753 0.0
C1099 C 0.52979 0.40934 0.46369 0.0
C1100 C 0.53673 0.39063 0.45176 0.0
C1101 C 0.53562 0.40006 0.47137 0.0
Gd1102 Gd 0.4715 0.41177 0.4321 0.0
Gd1103 Gd 0.51395 0.42326 0.42214 0.0
N1104 N 0.51801 0.41144 0.38429 0.0
C1105 C 0.52523 0.39799 0.34155 0.0
C1106 C 0.51744 0.41548 0.35758 0.0
C1107 C 0.52078 0.40861 0.33582 0.0
H1108 H 0.51425 0.42386 0.35309 0.0
H1109 H 0.51998 0.41157 0.31466 0.0
H1110 H 0.46629 0.4026 0.50119 0.0
H1111 H 0.52956 0.41708 0.47869 0.0
H1112 H 0.46393 0.41364 0.54424 0.0
H1113 H 0.52785 0.39273 0.32464 0.0
H1114 H 0.53465 0.37902 0.35973 0.0
H1115 H 0.464 0.42972 0.38281 0.0
H1116 H 0.5415 0.38365 0.45768 0.0
H1117 H 0.53949 0.40037 0.4923 0.0
H1118 H 0.46162 0.45739 0.51608 0.0
H1119 H 0.53952 0.37565 0.40819 0.0
H1120 H 0.46065 0.46608 0.41913 0.0
H1121 H 0.46093 0.45206 0.37761 0.0
N1122 N 0.4675 0.43228 0.42607 0.0
C1123 C 0.46617 0.439 0.44924 0.0
C1124 C 0.46488 0.43632 0.40074 0.0
C1125 C 0.46248 0.45655 0.42134 0.0
C1126 C 0.4627 0.44873 0.39786 0.0
C1127 C 0.46388 0.45151 0.44749 0.0
H1128 H 0.46093 0.46796 0.47086 0.0
N1129 N 0.468 0.42039 0.47553 0.0
C1130 C 0.4665 0.43294 0.4747 0.0
C1131 C 0.46409 0.43256 0.52439 0.0
C1132 C 0.46462 0.4394 0.4991 0.0
C1133 C 0.46658 0.41323 0.50014 0.0
C1134 C 0.46487 0.41932 0.52485 0.0
O1135 O 0.49596 0.40294 0.39749 0.0
O1136 O 0.47577 0.39206 0.42666 0.0
O1137 O 0.448 0.3998 0.44397 0.0
O1138 O 0.45421 0.40078 0.4009 0.0
O1139 O 0.50431 0.43424 0.39075 0.0
O1140 O 0.47936 0.41618 0.38739 0.0
O1141 O 0.49104 0.43587 0.43515 0.0
O1142 O 0.50878 0.43359 0.4589 0.0
O1143 O 0.52907 0.44745 0.41228 0.0
O1144 O 0.53853 0.43333 0.42023 0.0
O1145 O 0.47763 0.39862 0.46302 0.0
O1146 O 0.50387 0.41032 0.46556 0.0
C1147 C 0.48426 0.39071 0.40775 0.0
C1148 C 0.49099 0.42859 0.37783 0.0
C1149 C 0.43494 0.37749 0.41798 0.0
C1150 C 0.4179 0.35361 0.44042 0.0
C1151 C 0.42765 0.35385 0.3944 0.0
C1152 C 0.43558 0.36961 0.39466 0.0
C1153 C 0.41878 0.34585 0.41702 0.0
C1154 C 0.42633 0.3694 0.44086 0.0
C1155 C 0.44364 0.39408 0.41936 0.0
C1156 C 0.46296 0.45224 0.49752 0.0
C1157 C 0.46258 0.45828 0.47178 0.0
H1158 H 0.46264 0.43716 0.54357 0.0
C1159 C 0.50093 0.44041 0.45524 0.0
C1160 C 0.48997 0.40037 0.47562 0.0
C1161 C 0.5562 0.45997 0.42118 0.0
C1162 C 0.58288 0.48006 0.4117 0.0
C1163 C 0.57276 0.47484 0.45868 0.0
C1164 C 0.55871 0.46346 0.44932 0.0
C1165 C 0.58466 0.48293 0.44025 0.0
C1166 C 0.56838 0.46848 0.40216 0.0
C1167 C 0.54142 0.44664 0.41224 0.0
H1168 H 0.42808 0.34781 0.37635 0.0
H1169 H 0.44222 0.37558 0.37672 0.0
H1170 H 0.41204 0.33366 0.41554 0.0
H1171 H 0.42584 0.37544 0.45889 0.0
H1172 H 0.57452 0.4773 0.48055 0.0
H1173 H 0.54982 0.45716 0.46421 0.0
H1174 H 0.59542 0.49157 0.44843 0.0
H1175 H 0.56674 0.46579 0.38034 0.0
C1176 C 0.63198 0.13291 0.41758 0.0
C1177 C 0.63783 0.13905 0.36898 0.0
C1178 C 0.63037 0.12832 0.39009 0.0
C1179 C 0.64786 0.15418 0.37598 0.0
C1180 C 0.6413 0.14831 0.42442 0.0
C1181 C 0.64964 0.15879 0.40364 0.0
N1182 N 0.62331 0.12264 0.43715 0.0
C1183 C 0.62233 0.12729 0.46318 0.0
C1184 C 0.64137 0.15286 0.45173 0.0
C1185 C 0.63162 0.14236 0.47104 0.0
Gd1186 Gd 0.6197 0.06636 0.43236 0.0
Gd1187 Gd 0.60879 0.09759 0.42148 0.0
N1188 N 0.62068 0.11357 0.38382 0.0
C1189 C 0.63453 0.13435 0.34142 0.0
C1190 C 0.61663 0.10914 0.35704 0.0
C1191 C 0.62368 0.11939 0.33544 0.0
H1192 H 0.60811 0.09764 0.35238 0.0
H1193 H 0.62072 0.11577 0.31423 0.0
H1194 H 0.62088 0.07223 0.50334 0.0
H1195 H 0.61446 0.1193 0.47798 0.0
H1196 H 0.60798 0.05804 0.54423 0.0
H1197 H 0.63996 0.14227 0.32464 0.0
H1198 H 0.6539 0.16252 0.36007 0.0
H1199 H 0.60441 0.04162 0.38095 0.0
H1200 H 0.6484 0.16458 0.45779 0.0
H1201 H 0.63113 0.1459 0.4919 0.0
H1202 H 0.57334 1.0085 0.51106 0.0
H1203 H 0.65701 0.17062 0.40859 0.0
H1204 H 0.57001 0.9996 0.41371 0.0
H1205 H 0.58418 0.01535 0.37365 0.0
N1206 N 0.6006 0.04145 0.42405 0.0
C1207 C 0.59352 0.03284 0.44648 0.0
C1208 C 0.59774 0.03519 0.39831 0.0
C1209 C 0.57863 1.0113 0.41688 0.0
C1210 C 0.58653 0.02016 0.39422 0.0
C1211 C 0.58222 0.01752 0.44343 0.0
H1212 H 0.56634 0.99707 0.46495 0.0
N1213 N 0.60841 0.05422 0.47486 0.0
C1214 C 0.59745 0.03939 0.47254 0.0
C1215 C 0.59375 0.03752 0.52205 0.0
C1216 C 0.58996 0.03067 0.49609 0.0
C1217 C 0.61221 0.06079 0.50044 0.0
C1218 C 0.60489 0.05264 0.52418 0.0
O1219 O 0.62882 0.09961 0.3965 0.0
O1220 O 0.63961 0.09015 0.42556 0.0
O1221 O 0.63176 0.05544 0.44741 0.0
O1222 O 0.63088 0.05907 0.40347 0.0
O1223 O 0.59808 0.0772 0.38982 0.0
O1224 O 0.61594 0.06997 0.38742 0.0
O1225 O 0.59536 0.06126 0.43355 0.0
O1226 O 0.59723 0.0813 0.45692 0.0
O1227 O 0.58482 0.08876 0.41053 0.0
O1228 O 0.59878 0.11218 0.41992 0.0
O1229 O 0.63304 0.08539 0.46343 0.0
O1230 O 0.6224 0.10098 0.46422 0.0
C1231 C 0.64099 0.09998 0.40659 0.0
C1232 C 0.60372 0.0694 0.37736 0.0
C1233 C 0.65381 0.06269 0.42149 0.0
C1234 C 0.67738 0.06821 0.44349 0.0
C1235 C 0.67751 0.07728 0.39697 0.0
C1236 C 0.66181 0.07047 0.39768 0.0
C1237 C 0.68529 0.07613 0.41968 0.0
C1238 C 0.66169 0.0618 0.44434 0.0
C1239 C 0.63731 0.05557 0.42307 0.0
C1240 C 0.57892 0.01538 0.49312 0.0
C1241 C 0.57498 1.00885 0.46688 0.0
H1242 H 0.58816 0.03123 0.54055 0.0
C1243 C 0.58992 0.0667 0.452 0.0
C1244 C 0.63196 0.09666 0.47485 0.0
C1245 C 0.57216 0.10308 0.42015 0.0
C1246 C 0.55199 0.1095 0.41076 0.0
C1247 C 0.55674 0.10387 0.45754 0.0
C1248 C 0.56835 0.10154 0.44819 0.0
C1249 C 0.54875 0.10787 0.4392 0.0
C1250 C 0.56378 0.10693 0.40123 0.0
C1251 C 0.58561 0.1019 0.41119 0.0
H1252 H 0.68363 0.08313 0.37853 0.0
H1253 H 0.656 0.0713 0.37964 0.0
H1254 H 0.69739 0.08076 0.41801 0.0
H1255 H 0.65554 0.05568 0.46262 0.0
H1256 H 0.554 0.10273 0.47932 0.0
H1257 H 0.57455 0.09876 0.46299 0.0
H1258 H 0.5399 0.10967 0.44736 0.0
H1259 H 0.56672 0.10837 0.37952 0.0
C1260 C 0.91162 0.6537 0.80067 0.0
C1261 C 0.92669 0.65226 0.83823 0.0
C1262 C 0.91752 0.64587 0.81471 0.0
C1263 C 0.93001 0.66666 0.84731 0.0
C1264 C 0.91519 0.66829 0.8096 0.0
C1265 C 0.92431 0.67466 0.83299 0.0
N1266 N 0.90293 0.64735 0.77778 0.0
C1267 C 0.89942 0.65593 0.76111 0.0
C1268 C 0.90994 0.67632 0.79417 0.0
C1269 C 0.90229 0.67023 0.76948 0.0
Gd1270 Gd 0.85621 0.59375 0.77646 0.0
Gd1271 Gd 0.89968 0.62357 0.76522 0.0
N1272 N 0.91393 0.63181 0.80583 0.0
C1273 C 0.93211 0.6439 0.85213 0.0
C1274 C 0.91933 0.62366 0.81905 0.0
C1275 C 0.92842 0.62955 0.84251 0.0
H1276 H 0.91665 0.61266 0.81139 0.0
H1277 H 0.93262 0.62305 0.85307 0.0
H1278 H 0.84588 0.60551 0.71939 0.0
H1279 H 0.89536 0.65233 0.74054 0.0
H1280 H 0.83269 0.59457 0.67564 0.0
H1281 H 0.93914 0.64842 0.87033 0.0
H1282 H 0.93702 0.67175 0.86535 0.0
H1283 H 0.8528 0.56459 0.81456 0.0
H1284 H 0.91243 0.68753 0.80037 0.0
H1285 H 0.89912 0.67677 0.75634 0.0
H1286 H 0.81774 0.54206 0.68238 0.0
H1287 H 0.92726 0.6859 0.83987 0.0
H1288 H 0.82971 0.52465 0.76521 0.0
H1289 H 0.84253 0.53717 0.80873 0.0
N1290 N 0.8469 0.56774 0.77398 0.0
C1291 C 0.83926 0.56101 0.75033 0.0
C1292 C 0.84775 0.55936 0.7951 0.0
C1293 C 0.83442 0.53674 0.76747 0.0
C1294 C 0.8417 0.54377 0.79203 0.0
C1295 C 0.83297 0.54531 0.74636 0.0
H1296 H 0.82049 0.52658 0.71826 0.0
N1297 N 0.84385 0.58497 0.73407 0.0
C1298 C 0.83756 0.56978 0.72999 0.0
C1299 C 0.82819 0.57211 0.68548 0.0
C1300 C 0.82975 0.56301 0.70533 0.0
C1301 C 0.84185 0.59377 0.71528 0.0
C1302 C 0.83414 0.58752 0.6906 0.0
O1303 O 0.89015 0.61985 0.80907 0.0
O1304 O 0.86654 0.6159 0.80294 0.0
O1305 O 0.83344 0.59115 0.7771 0.0
O1306 O 0.84169 0.58489 0.81278 0.0
O1307 O 0.89461 0.59961 0.77505 0.0
O1308 O 0.87294 0.58994 0.80195 0.0
O1309 O 0.86747 0.5888 0.73662 0.0
O1310 O 0.89315 0.60602 0.73154 0.0
O1311 O 0.92237 0.62778 0.75912 0.0
O1312 O 0.91427 0.64026 0.73517 0.0
O1313 O 0.86193 0.61716 0.76481 0.0
O1314 O 0.88242 0.62465 0.73692 0.0
C1315 C 0.87937 0.62241 0.81702 0.0
C1316 C 0.88503 0.58958 0.79294 0.0
C1317 C 0.81459 0.57485 0.81065 0.0
C1318 C 0.78828 0.5681 0.82344 0.0
C1319 C 0.79684 0.54978 0.82813 0.0
C1320 C 0.81113 0.56019 0.81812 0.0
C1321 C 0.78558 0.55365 0.83073 0.0
C1322 C 0.80299 0.57882 0.81343 0.0
C1323 C 0.83055 0.58617 0.80239 0.0
C1324 C 0.82373 0.54743 0.70125 0.0
C1325 C 0.82532 0.53861 0.72168 0.0
H1326 H 0.82224 0.56732 0.6663 0.0
C1327 C 0.88076 0.59391 0.72304 0.0
C1328 C 0.87038 0.62526 0.74439 0.0
C1329 C 0.93271 0.63565 0.71495 0.0
C1330 C 0.9544 0.6345 0.69812 0.0
C1331 C 0.93615 0.63401 0.66566 0.0
C1332 C 0.92771 0.63495 0.68766 0.0
C1333 C 0.94963 0.63392 0.67082 0.0
C1334 C 0.94593 0.63533 0.71985 0.0
C1335 C 0.92515 0.63737 0.73918 0.0
H1336 H 0.79446 0.53858 0.83406 0.0
H1337 H 0.8196 0.5568 0.81664 0.0
H1338 H 0.77462 0.54526 0.83861 0.0
H1339 H 0.80542 0.59012 0.80804 0.0
H1340 H 0.93236 0.63355 0.64463 0.0
H1341 H 0.91747 0.63528 0.68334 0.0
H1342 H 0.95628 0.63352 0.65377 0.0
H1343 H 0.94995 0.63617 0.74092 0.0
C1344 C 0.37697 0.26606 0.79728 0.0
C1345 C 0.38035 0.28223 0.83652 0.0
C1346 C 0.38629 0.27884 0.81301 0.0
C1347 C 0.36503 0.27307 0.84325 0.0
C1348 C 0.36164 0.25668 0.80435 0.0
C1349 C 0.35569 0.2604 0.82714 0.0
N1350 N 0.38292 0.26276 0.77505 0.0
C1351 C 0.3741 0.25081 0.75832 0.0
C1352 C 0.35268 0.24395 0.78803 0.0
C1353 C 0.35894 0.24103 0.76484 0.0
Gd1354 Gd 0.43852 0.26988 0.77934 0.0
Gd1355 Gd 0.40755 0.28082 0.76327 0.0
N1356 N 0.40093 0.28811 0.80499 0.0
C1357 C 0.38988 0.29495 0.85224 0.0
C1358 C 0.40992 0.30108 0.81942 0.0
C1359 C 0.4047 0.30442 0.8436 0.0
H1360 H 0.42095 0.30929 0.81228 0.0
H1361 H 0.412 0.31459 0.85513 0.0
H1362 H 0.42893 0.24845 0.72149 0.0
H1363 H 0.37869 0.24906 0.7396 0.0
H1364 H 0.44095 0.24699 0.67867 0.0
H1365 H 0.38578 0.29779 0.87065 0.0
H1366 H 0.36026 0.27572 0.86093 0.0
H1367 H 0.4665 0.29608 0.81885 0.0
H1368 H 0.34087 0.23646 0.7929 0.0
H1369 H 0.35203 0.23145 0.75167 0.0
H1370 H 0.49293 0.28511 0.68934 0.0
H1371 H 0.34387 0.25348 0.83258 0.0
H1372 H 0.50781 0.31351 0.77351 0.0
H1373 H 0.49399 0.31333 0.81557 0.0
N1374 N 0.46457 0.28718 0.77833 0.0
C1375 C 0.47202 0.28678 0.75532 0.0
C1376 C 0.47229 0.29637 0.8 0.0
C1377 C 0.49569 0.30607 0.77462 0.0
C1378 C 0.48792 0.30603 0.79838 0.0
C1379 C 0.48779 0.29631 0.75279 0.0
H1380 H 0.50731 0.30296 0.72652 0.0
N1381 N 0.44876 0.26741 0.73742 0.0
C1382 C 0.46395 0.27654 0.73441 0.0
C1383 C 0.46293 0.26526 0.68993 0.0
C1384 C 0.4714 0.27581 0.7104 0.0
C1385 C 0.44064 0.25654 0.7182 0.0
C1386 C 0.44752 0.25548 0.694 0.0
O1387 O 0.40089 0.2609 0.79268 0.0
O1388 O 0.42247 0.26772 0.81649 0.0
O1389 O 0.43615 0.24719 0.78279 0.0
O1390 O 0.45009 0.26454 0.81148 0.0
O1391 O 0.43053 0.30065 0.77749 0.0
O1392 O 0.4409 0.2896 0.80478 0.0
O1393 O 0.4427 0.28487 0.73766 0.0
O1394 O 0.42824 0.29663 0.73818 0.0
O1395 O 0.39572 0.29287 0.75558 0.0
O1396 O 0.3971 0.27899 0.72316 0.0
O1397 O 0.41589 0.2511 0.7653 0.0
O1398 O 0.40914 0.26386 0.73544 0.0
C1399 C 0.40744 0.26135 0.81627 0.0
C1400 C 0.4409 0.30167 0.79525 0.0
C1401 C 0.45623 0.24488 0.805 0.0
C1402 C 0.4632 0.22536 0.81691 0.0
C1403 C 0.48239 0.25066 0.80263 0.0
C1404 C 0.47153 0.25501 0.79944 0.0
C1405 C 0.4783 0.23607 0.81121 0.0
C1406 C 0.45205 0.22986 0.81389 0.0
C1407 C 0.44518 0.25061 0.80389 0.0
C1408 C 0.48703 0.2855 0.70765 0.0
C1409 C 0.49521 0.29568 0.72882 0.0
H1410 H 0.46824 0.26437 0.67119 0.0
C1411 C 0.43891 0.29477 0.72665 0.0
C1412 C 0.4079 0.25117 0.74426 0.0
C1413 C 0.39574 0.30067 0.7098 0.0
C1414 C 0.39853 0.32535 0.70128 0.0
C1415 C 0.39698 0.30954 0.66274 0.0
C1416 C 0.39554 0.29831 0.68117 0.0
C1417 C 0.39827 0.32301 0.67275 0.0
C1418 C 0.39738 0.31429 0.71952 0.0
C1419 C 0.39291 0.28871 0.72981 0.0
H1420 H 0.49415 0.25874 0.79859 0.0
H1421 H 0.4752 0.2665 0.79312 0.0
H1422 H 0.48707 0.23312 0.81359 0.0
H1423 H 0.44036 0.22188 0.81866 0.0
H1424 H 0.39676 0.30766 0.64071 0.0
H1425 H 0.39409 0.28777 0.67308 0.0
H1426 H 0.39888 0.33144 0.65841 0.0
H1427 H 0.39708 0.31615 0.74153 0.0
C1428 C 0.76572 0.11744 0.79487 0.0
C1429 C 0.74749 0.10168 0.82954 0.0
C1430 C 0.75166 0.11202 0.80741 0.0
C1431 C 0.75763 0.09715 0.83905 0.0
C1432 C 0.7757 0.11253 0.80378 0.0
C1433 C 0.77167 0.10253 0.82618 0.0
N1434 N 0.76951 0.12732 0.77351 0.0
C1435 C 0.78216 0.13133 0.75822 0.0
C1436 C 0.78931 0.11754 0.78944 0.0
C1437 C 0.79242 0.12678 0.76626 0.0
Gd1438 Gd 0.76213 0.17579 0.77709 0.0
Gd1439 Gd 0.75149 0.13381 0.76046 0.0
N1440 N 0.74202 0.11661 0.79774 0.0
C1441 C 0.73325 0.09621 0.84154 0.0
C1442 C 0.72779 0.11059 0.80849 0.0
C1443 C 0.72334 0.10059 0.83085 0.0
H1444 H 0.7196 0.11311 0.7998 0.0
H1445 H 0.71215 0.09609 0.83958 0.0
H1446 H 0.78449 0.18746 0.72066 0.0
H1447 H 0.78414 0.13773 0.7395 0.0
H1448 H 0.78654 0.2007 0.67713 0.0
H1449 H 0.7297 0.08838 0.85875 0.0
H1450 H 0.75464 0.08934 0.85619 0.0
H1451 H 0.73486 0.17713 0.81408 0.0
H1452 H 0.79723 0.11394 0.79556 0.0
H1453 H 0.80259 0.1302 0.75434 0.0
H1454 H 0.74744 0.21355 0.68319 0.0
H1455 H 0.77925 0.09873 0.83346 0.0
H1456 H 0.71731 0.19978 0.76529 0.0
H1457 H 0.71708 0.1866 0.80829 0.0
N1458 N 0.74447 0.18401 0.774 0.0
C1459 C 0.74513 0.19167 0.75053 0.0
C1460 C 0.73476 0.18241 0.79482 0.0
C1461 C 0.725 0.19544 0.76751 0.0
C1462 C 0.7248 0.18796 0.79178 0.0
C1463 C 0.73531 0.19749 0.7466 0.0
H1464 H 0.72868 0.20977 0.71875 0.0
N1465 N 0.76512 0.18814 0.7347 0.0
C1466 C 0.75583 0.19394 0.73047 0.0
C1467 C 0.76782 0.20407 0.68644 0.0
C1468 C 0.75681 0.20189 0.70601 0.0
C1469 C 0.77637 0.19094 0.71636 0.0
C1470 C 0.77773 0.19871 0.69179 0.0
O1471 O 0.77019 0.14623 0.79249 0.0
O1472 O 0.76374 0.16203 0.81432 0.0
O1473 O 0.78462 0.19638 0.78102 0.0
O1474 O 0.76681 0.19269 0.80886 0.0
O1475 O 0.73183 0.13647 0.77757 0.0
O1476 O 0.74248 0.15865 0.80326 0.0
O1477 O 0.74799 0.16446 0.73485 0.0
O1478 O 0.73403 0.13871 0.74181 0.0
O1479 O 0.74367 0.11097 0.74777 0.0
O1480 O 0.75153 0.12843 0.71666 0.0
O1481 O 0.78139 0.17201 0.76606 0.0
O1482 O 0.76902 0.15318 0.73502 0.0
C1483 C 0.76959 0.15295 0.8152 0.0
C1484 C 0.73072 0.14572 0.79555 0.0
C1485 C 0.78663 0.21857 0.8041 0.0
C1486 C 0.80638 0.24484 0.81685 0.0
C1487 C 0.78071 0.23889 0.8058 0.0
C1488 C 0.77634 0.22379 0.8009 0.0
C1489 C 0.79547 0.24926 0.81365 0.0
C1490 C 0.80185 0.22928 0.8122 0.0
C1491 C 0.78083 0.20179 0.80197 0.0
C1492 C 0.74687 0.20745 0.70189 0.0
C1493 C 0.73618 0.20528 0.72213 0.0
H1494 H 0.76892 0.21011 0.66739 0.0
C1495 C 0.73683 0.15062 0.72677 0.0
C1496 C 0.78165 0.16396 0.74534 0.0
C1497 C 0.73129 0.10401 0.7053 0.0
C1498 C 0.70575 0.08261 0.7056 0.0
C1499 C 0.71955 0.09124 0.66243 0.0
C1500 C 0.7321 0.10246 0.67668 0.0
C1501 C 0.70647 0.08112 0.67689 0.0
C1502 C 0.71776 0.09463 0.71915 0.0
C1503 C 0.74479 0.11396 0.72154 0.0
H1504 H 0.7725 0.24259 0.80368 0.0
H1505 H 0.76472 0.21607 0.79518 0.0
H1506 H 0.79842 0.26089 0.81735 0.0
H1507 H 0.80997 0.22552 0.81513 0.0
H1508 H 0.72023 0.08994 0.64038 0.0
H1509 H 0.74248 0.10961 0.66557 0.0
H1510 H 0.69729 0.0718 0.66597 0.0
H1511 H 0.7169 0.09588 0.74123 0.0
C1512 C 0.37256 0.12272 0.25944 0.0
C1513 C 0.36885 0.12006 0.20987 0.0
C1514 C 0.37838 0.12354 0.23316 0.0
C1515 C 0.35377 0.11645 0.21333 0.0
C1516 C 0.35718 0.1183 0.26304 0.0
C1517 C 0.34794 0.11557 0.23984 0.0
N1518 N 0.38169 0.12533 0.28159 0.0
C1519 C 0.37576 0.12191 0.30757 0.0
C1520 C 0.35137 0.1161 0.28987 0.0
C1521 C 0.36062 0.11756 0.3122 0.0
Gd1522 Gd 0.43747 0.17493 0.28086 0.0
Gd1523 Gd 0.40683 0.1323 0.27242 0.0
N1524 N 0.39308 0.12705 0.23044 0.0
C1525 C 0.37467 0.12004 0.18377 0.0
C1526 C 0.39857 0.12654 0.20493 0.0
C1527 C 0.38955 0.12316 0.18135 0.0
H1528 H 0.40976 0.12843 0.20217 0.0
H1529 H 0.39408 0.12292 0.16127 0.0
H1530 H 0.43638 0.17516 0.34984 0.0
H1531 H 0.38263 0.1223 0.32483 0.0
H1532 H 0.45396 0.18086 0.38901 0.0
H1533 H 0.36773 0.11743 0.16543 0.0
H1534 H 0.34639 0.11394 0.19563 0.0
H1535 H 0.45986 0.19002 0.22475 0.0
H1536 H 0.33961 0.11264 0.29348 0.0
H1537 H 0.35607 0.11516 0.33295 0.0
H1538 H 0.50159 0.19539 0.34589 0.0
H1539 H 0.33615 0.11231 0.24221 0.0
H1540 H 0.50486 0.20182 0.24782 0.0
H1541 H 0.48655 0.19969 0.21221 0.0
N1542 N 0.46268 0.18511 0.26636 0.0
C1543 C 0.47272 0.18702 0.28663 0.0
C1544 C 0.46762 0.19025 0.2402 0.0
C1545 C 0.49307 0.19715 0.25328 0.0
C1546 C 0.48278 0.19597 0.23312 0.0
C1547 C 0.4882 0.19308 0.28057 0.0
H1548 H 0.51033 0.20006 0.2977 0.0
N1549 N 0.45288 0.17888 0.31937 0.0
C1550 C 0.46776 0.18418 0.31392 0.0
C1551 C 0.47306 0.1861 0.36291 0.0
C1552 C 0.4782 0.18763 0.33563 0.0
C1553 C 0.44799 0.17834 0.34586 0.0
C1554 C 0.45794 0.18166 0.36803 0.0
O1555 O 0.40093 0.15087 0.26602 0.0
O1556 O 0.42174 0.16961 0.24457 0.0
O1557 O 0.42911 0.19031 0.29308 0.0
O1558 O 0.45196 0.19955 0.27969 0.0
O1559 O 0.42543 0.13843 0.23999 0.0
O1560 O 0.44031 0.16467 0.23768 0.0
O1561 O 0.43972 0.15703 0.30605 0.0
O1562 O 0.43101 0.13718 0.27644 0.0
O1563 O 0.39561 0.1086 0.26248 0.0
O1564 O 0.40363 0.11607 0.30426 0.0
O1565 O 0.41633 0.16599 0.31049 0.0
O1566 O 0.40963 0.14124 0.31644 0.0
C1567 C 0.40701 0.16171 0.24747 0.0
C1568 C 0.43614 0.15074 0.22747 0.0
C1569 C 0.44285 0.21712 0.28176 0.0
C1570 C 0.44888 0.24356 0.29165 0.0
C1571 C 0.44276 0.23319 0.2449 0.0
C1572 C 0.44083 0.21935 0.25391 0.0
C1573 C 0.44681 0.24513 0.26339 0.0
C1574 C 0.44674 0.2293 0.30084 0.0
C1575 C 0.44213 0.20262 0.29026 0.0
C1576 C 0.49346 0.1929 0.32949 0.0
C1577 C 0.49844 0.19555 0.30203 0.0
H1578 H 0.48074 0.18869 0.38013 0.0
C1579 C 0.44062 0.14556 0.29564 0.0
C1580 C 0.40861 0.15301 0.3243 0.0
C1581 C 0.40681 0.09649 0.28562 0.0
C1582 C 0.41156 0.07839 0.26156 0.0
C1583 C 0.42367 0.08879 0.30573 0.0
C1584 C 0.41633 0.0972 0.30724 0.0
C1585 C 0.42122 0.0793 0.28314 0.0
C1586 C 0.40489 0.08744 0.26261 0.0
C1587 C 0.39877 0.10503 0.28646 0.0
H1588 H 0.44127 0.23476 0.22325 0.0
H1589 H 0.438 0.21041 0.23899 0.0
H1590 H 0.44832 0.25574 0.2555 0.0
H1591 H 0.44854 0.22784 0.3224 0.0
H1592 H 0.43088 0.08924 0.32252 0.0
H1593 H 0.41806 0.10417 0.32528 0.0
H1594 H 0.42619 0.07209 0.28337 0.0
H1595 H 0.39753 0.08682 0.24591 0.0
C1596 C 0.90454 0.25266 0.25456 0.0
C1597 C 0.90177 0.24842 0.20519 0.0
C1598 C 0.90186 0.25667 0.22871 0.0
C1599 C 0.90433 0.23619 0.20812 0.0
C1600 C 0.90756 0.24066 0.2575 0.0
C1601 C 0.9073 0.23237 0.23419 0.0
N1602 N 0.90418 0.26048 0.27692 0.0
C1603 C 0.90817 0.25789 0.30231 0.0
C1604 C 0.91088 0.23742 0.28379 0.0
C1605 C 0.91143 0.24626 0.30621 0.0
Gd1606 Gd 0.85651 0.26898 0.2811 0.0
Gd1607 Gd 0.89859 0.27982 0.26932 0.0
N1608 N 0.8993 0.26855 0.22657 0.0
C1609 C 0.89915 0.2527 0.17933 0.0
C1610 C 0.89736 0.27305 0.20103 0.0
C1611 C 0.89708 0.26515 0.17724 0.0
H1612 H 0.89616 0.28277 0.19823 0.0
H1613 H 0.89536 0.26876 0.15721 0.0
H1614 H 0.85682 0.26916 0.3505 0.0
H1615 H 0.90924 0.26503 0.3195 0.0
H1616 H 0.85366 0.28358 0.38844 0.0
H1617 H 0.89894 0.24663 0.16082 0.0
H1618 H 0.90419 0.2297 0.19029 0.0
H1619 H 0.83979 0.27442 0.22557 0.0
H1620 H 0.91336 0.22837 0.28689 0.0
H1621 H 0.91455 0.24427 0.3264 0.0
H1622 H 0.84089 0.3173 0.34234 0.0
H1623 H 0.90944 0.22303 0.23609 0.0
H1624 H 0.83048 0.30985 0.24548 0.0
H1625 H 0.8304 0.29159 0.21179 0.0
N1626 N 0.84628 0.28382 0.26585 0.0
C1627 C 0.84554 0.2931 0.28524 0.0
C1628 C 0.84024 0.28266 0.24018 0.0
C1629 C 0.83488 0.30257 0.25147 0.0
C1630 C 0.83479 0.29225 0.2324 0.0
C1631 C 0.83991 0.3028 0.27847 0.0
H1632 H 0.83465 0.31953 0.29417 0.0
N1633 N 0.85355 0.28169 0.31881 0.0
C1634 C 0.8491 0.29187 0.31252 0.0
C1635 C 0.84918 0.29752 0.36105 0.0
C1636 C 0.84706 0.30026 0.33352 0.0
C1637 C 0.85435 0.27804 0.34571 0.0
C1638 C 0.85254 0.28615 0.36718 0.0
O1639 O 0.87911 0.25565 0.26878 0.0
O1640 O 0.86118 0.2577 0.24518 0.0
O1641 O 0.84142 0.24497 0.29159 0.0
O1642 O 0.83195 0.25911 0.28394 0.0
O1643 O 0.89257 0.29295 0.23845 0.0
O1644 O 0.86638 0.28227 0.23781 0.0
O1645 O 0.87506 0.28861 0.30572 0.0
O1646 O 0.89451 0.29969 0.27537 0.0
O1647 O 0.92164 0.29196 0.25467 0.0
O1648 O 0.91682 0.2913 0.2985 0.0
O1649 O 0.8662 0.25823 0.3128 0.0
O1650 O 0.89147 0.2757 0.31443 0.0
C1651 C 0.86845 0.25038 0.24999 0.0
C1652 C 0.88022 0.29178 0.22697 0.0
C1653 C 0.81454 0.23244 0.28206 0.0
C1654 C 0.78797 0.21192 0.29041 0.0
C1655 C 0.79893 0.2171 0.24404 0.0
C1656 C 0.81265 0.2288 0.25394 0.0
C1657 C 0.78678 0.20885 0.2619 0.0
C1658 C 0.80213 0.22379 0.30049 0.0
C1659 C 0.82908 0.24577 0.29169 0.0
C1660 C 0.84235 0.31062 0.32653 0.0
C1661 C 0.8388 0.31189 0.29907 0.0
H1662 H 0.84768 0.30372 0.37775 0.0
C1663 C 0.88609 0.30091 0.29454 0.0
C1664 C 0.87974 0.26362 0.32479 0.0
C1665 C 0.93551 0.31441 0.28 0.0
C1666 C 0.95385 0.33793 0.25825 0.0
C1667 C 0.94266 0.33836 0.30235 0.0
C1668 C 0.93432 0.3226 0.30233 0.0
C1669 C 0.95247 0.34603 0.28054 0.0
C1670 C 0.945 0.32217 0.25788 0.0
C1671 C 0.92676 0.29785 0.27896 0.0
H1672 H 0.79764 0.21446 0.2222 0.0
H1673 H 0.82178 0.23515 0.23951 0.0
H1674 H 0.77633 0.19991 0.25328 0.0
H1675 H 0.80336 0.22656 0.32228 0.0
H1676 H 0.94184 0.34463 0.31967 0.0
H1677 H 0.92699 0.31689 0.31972 0.0
H1678 H 0.95953 0.3582 0.28187 0.0
H1679 H 0.94597 0.31587 0.24073 0.0
C1680 C 0.77863 0.65887 0.25527 0.0
C1681 C 0.78461 0.66005 0.20653 0.0
C1682 C 0.77581 0.65186 0.22953 0.0
C1683 C 0.79601 0.6752 0.20967 0.0
C1684 C 0.78973 0.67425 0.25823 0.0
C1685 C 0.79848 0.68231 0.23538 0.0
N1686 N 0.7704 0.65073 0.27736 0.0
C1687 C 0.77154 0.65762 0.30212 0.0
C1688 C 0.79153 0.68118 0.28401 0.0
C1689 C 0.7822 0.67288 0.30591 0.0
Gd1690 Gd 0.76234 0.59405 0.28129 0.0
Gd1691 Gd 0.75189 0.6257 0.26879 0.0
N1692 N 0.76464 0.6371 0.22701 0.0
C1693 C 0.78173 0.65279 0.18096 0.0
C1694 C 0.76153 0.6302 0.20176 0.0
C1695 C 0.7701 0.63785 0.17856 0.0
H1696 H 0.7525 0.61887 0.19888 0.0
H1697 H 0.76765 0.63221 0.15874 0.0
H1698 H 0.76297 0.59403 0.35027 0.0
H1699 H 0.76422 0.65139 0.31911 0.0
H1700 H 0.75044 0.57589 0.3884 0.0
H1701 H 0.78831 0.65866 0.16289 0.0
H1702 H 0.80288 0.68159 0.19223 0.0
H1703 H 0.75651 0.57234 0.22468 0.0
H1704 H 0.79984 0.69299 0.28703 0.0
H1705 H 0.78322 0.67821 0.32574 0.0
H1706 H 0.71706 0.52923 0.3426 0.0
H1707 H 0.80713 0.69409 0.23734 0.0
H1708 H 0.72224 0.52719 0.24482 0.0
H1709 H 0.73962 0.54578 0.21073 0.0
N1710 N 0.7475 0.56911 0.26537 0.0
C1711 C 0.73876 0.55887 0.28498 0.0
C1712 C 0.74852 0.56441 0.23943 0.0
C1713 C 0.7293 0.53891 0.25086 0.0
C1714 C 0.73912 0.54936 0.23155 0.0
C1715 C 0.7294 0.54348 0.27816 0.0
H1716 H 0.71376 0.52116 0.29405 0.0
N1717 N 0.75024 0.57817 0.31885 0.0
C1718 C 0.74041 0.56346 0.31252 0.0
C1719 C 0.73647 0.55737 0.36122 0.0
C1720 C 0.73304 0.55271 0.33365 0.0
C1721 C 0.75437 0.58257 0.34561 0.0
C1722 C 0.74737 0.57231 0.3672 0.0
O1723 O 0.77603 0.6301 0.26885 0.0
O1724 O 0.77407 0.61003 0.24556 0.0
O1725 O 0.78695 0.60265 0.28614 0.0
O1726 O 0.77142 0.57907 0.28895 0.0
O1727 O 0.7379 0.6062 0.23881 0.0
O1728 O 0.74891 0.59085 0.23851 0.0
O1729 O 0.74282 0.59323 0.30643 0.0
O1730 O 0.73162 0.60239 0.27758 0.0
O1731 O 0.74195 0.63786 0.25001 0.0
O1732 O 0.73958 0.63339 0.29439 0.0
O1733 O 0.77301 0.61423 0.31314 0.0
O1734 O 0.75691 0.62397 0.31422 0.0
C1735 C 0.7815 0.62461 0.25057 0.0
C1736 C 0.73913 0.5949 0.22795 0.0
C1737 C 0.79688 0.58539 0.28095 0.0
C1738 C 0.81736 0.57908 0.28873 0.0
C1739 C 0.80466 0.57473 0.24396 0.0
C1740 C 0.79567 0.58046 0.25362 0.0
C1741 C 0.81521 0.57395 0.26116 0.0
C1742 C 0.80779 0.58462 0.29871 0.0
C1743 C 0.78545 0.58944 0.29132 0.0
C1744 C 0.723 0.53758 0.32666 0.0
C1745 C 0.72112 0.533 0.29899 0.0
H1746 H 0.73112 0.54943 0.378 0.0
C1747 C 0.73046 0.59249 0.29627 0.0
C1748 C 0.76841 0.62315 0.32472 0.0
C1749 C 0.72466 0.64264 0.27407 0.0
C1750 C 0.69925 0.63579 0.2611 0.0
C1751 C 0.71507 0.65939 0.28536 0.0
C1752 C 0.72669 0.65604 0.28601 0.0
C1753 C 0.7014 0.64934 0.27289 0.0
C1754 C 0.71091 0.63239 0.26166 0.0
C1755 C 0.73752 0.64031 0.2737 0.0
H1756 H 0.80331 0.57065 0.22292 0.0
H1757 H 0.78738 0.58062 0.23986 0.0
H1758 H 0.82161 0.56905 0.2527 0.0
H1759 H 0.80875 0.58825 0.32 0.0
H1760 H 0.71666 0.66978 0.29445 0.0
H1761 H 0.73737 0.66402 0.2955 0.0
H1762 H 0.69241 0.65205 0.27262 0.0
H1763 H 0.70934 0.62201 0.2525 0.0
C1764 C 0.53127 0.13236 0.95017 0.0
C1765 C 0.54155 0.13109 0.99474 0.0
C1766 C 0.53351 0.12401 0.97042 0.0
C1767 C 0.54723 0.14664 0.99852 0.0
C1768 C 0.53724 0.14805 0.95372 0.0
C1769 C 0.54512 0.1551 0.97805 0.0
N1770 N 0.52355 0.12526 0.92682 0.0
C1771 C 0.52206 0.13329 0.90574 0.0
C1772 C 0.5353 0.15625 0.93254 0.0
C1773 C 0.52777 0.14886 0.90839 0.0
Gd1774 Gd 0.47315 0.06849 0.94097 0.0
Gd1775 Gd 0.51504 0.09928 0.92431 0.0
N1776 N 0.52762 0.10889 0.96649 0.0
C1777 C 0.54374 0.12235 1.01448 0.0
C1778 C 0.5305 0.10052 0.98495 0.0
C1779 C 0.53834 0.10704 1.0094 0.0
H1780 H 0.52705 0.08891 0.98082 0.0
H1781 H 0.54036 0.10028 0.02415 0.0
H1782 H 0.45532 0.08096 0.89622 0.0
H1783 H 0.51674 0.12782 0.88657 0.0
H1784 H 0.43979 0.07174 0.85476 0.0
H1785 H 0.54985 0.12737 0.03343 0.0
H1786 H 0.5534 0.15226 1.0171 0.0
H1787 H 0.47614 0.03963 0.96397 0.0
H1788 H 0.53977 0.16832 0.93446 0.0
H1789 H 0.5265 0.15517 0.89167 0.0
H1790 H 0.42965 0.02091 0.84456 0.0
H1791 H 0.54972 0.16713 0.98115 0.0
H1792 H 0.45115 1.00195 0.91012 0.0
H1793 H 0.46744 0.01308 0.95119 0.0
N1794 N 0.46651 0.04388 0.92874 0.0
C1795 C 0.45701 0.03788 0.90684 0.0
C1796 C 0.46982 0.03508 0.94518 0.0
C1797 C 0.45536 0.01373 0.91521 0.0
C1798 C 0.46461 0.01997 0.93832 0.0
C1799 C 0.45125 0.02262 0.89944 0.0
H1800 H 0.43636 1.00476 0.87172 0.0
N1801 N 0.45773 0.06144 0.90109 0.0
C1802 C 0.45277 0.04698 0.8923 0.0
C1803 C 0.43866 0.05014 0.85537 0.0
C1804 C 0.44296 0.04093 0.86944 0.0
C1805 C 0.45272 0.07008 0.88834 0.0
C1806 C 0.44349 0.06472 0.86497 0.0
O1807 O 0.50412 0.10261 0.96667 0.0
O1808 O 0.47821 0.0905 0.9614 0.0
O1809 O 0.44976 0.05502 0.95125 0.0
O1810 O 0.4664 0.06084 0.98351 0.0
O1811 O 0.51104 0.07632 0.9366 0.0
O1812 O 0.49223 0.07042 0.96746 0.0
O1813 O 0.48584 0.06179 0.91036 0.0
O1814 O 0.50075 0.08367 0.88727 0.0
O1815 O 0.53525 0.09674 0.9202 0.0
O1816 O 0.5321 0.11129 0.89262 0.0
O1817 O 0.47617 0.09113 0.92517 0.0
O1818 O 0.49793 0.10195 0.89853 0.0
C1819 C 0.49037 0.09982 0.97561 0.0
C1820 C 0.50301 0.06841 0.95767 0.0
C1821 C 0.44236 0.05756 0.9959 0.0
C1822 C 0.41963 0.05922 1.00093 0.0
C1823 C 0.43298 0.05843 0.04161 0.0
C1824 C 0.4436 0.05739 0.02478 0.0
C1825 C 0.42082 0.05911 0.02972 0.0
C1826 C 0.43057 0.05891 0.98433 0.0
C1827 C 0.45209 0.05464 0.97756 0.0
C1828 C 0.43734 0.02576 0.86184 0.0
C1829 C 0.44125 0.01658 0.87713 0.0
H1830 H 0.43125 0.04594 0.83759 0.0
C1831 C 0.49184 0.06867 0.88702 0.0
C1832 C 0.48538 0.10133 0.90704 0.0
C1833 C 0.55781 0.11705 0.89866 0.0
C1834 C 0.58423 0.1239 0.88632 0.0
C1835 C 0.57826 0.14321 0.90073 0.0
C1836 C 0.56306 0.13239 0.90421 0.0
C1837 C 0.58867 0.13905 0.89187 0.0
C1838 C 0.56859 0.11279 0.8897 0.0
C1839 C 0.54099 0.10612 0.89961 0.0
H1840 H 0.43388 0.05818 0.06385 0.0
H1841 H 0.45256 0.0562 0.03425 0.0
H1842 H 0.41222 0.05911 0.04279 0.0
H1843 H 0.4292 0.05879 0.96208 0.0
H1844 H 0.58199 0.15499 0.90471 0.0
H1845 H 0.55532 0.13613 0.9107 0.0
H1846 H 0.60037 0.14779 0.88924 0.0
H1847 H 0.56482 0.10106 0.88496 0.0
C1848 C 0.89937 0.4046 0.95051 0.0
C1849 C 0.90011 0.41628 0.99468 0.0
C1850 C 0.90739 0.41548 0.9705 0.0
C1851 C 0.88471 0.40591 0.99862 0.0
C1852 C 0.88383 0.39434 0.95423 0.0
C1853 C 0.87659 0.39498 0.97845 0.0
N1854 N 0.90669 0.40416 0.92732 0.0
C1855 C 0.89895 0.3943 0.90647 0.0
C1856 C 0.87597 0.38381 0.93336 0.0
C1857 C 0.88354 0.38388 0.9093 0.0
Gd1858 Gd 0.96424 0.41207 0.94032 0.0
Gd1859 Gd 0.93249 0.42219 0.92481 0.0
N1860 N 0.9224 0.42513 0.96647 0.0
C1861 C 0.90853 0.42752 1.01415 0.0
C1862 C 0.93046 0.43659 0.98474 0.0
C1863 C 0.92372 0.43782 1.00899 0.0
H1864 H 0.94199 0.44498 0.98061 0.0
H1865 H 0.93023 0.44681 0.02356 0.0
H1866 H 0.95153 0.38335 0.89173 0.0
H1867 H 0.90454 0.3946 0.88737 0.0
H1868 H 0.95973 0.37926 0.84687 0.0
H1869 H 0.90334 0.42851 0.03297 0.0
H1870 H 0.87894 0.40632 1.01712 0.0
H1871 H 0.99296 0.44388 0.96396 0.0
H1872 H 0.86402 0.37575 0.93544 0.0
H1873 H 0.87749 0.37598 0.8928 0.0
H1874 H 1.0096 0.42149 0.83548 0.0
H1875 H 0.86467 0.38714 0.9817 0.0
H1876 H 0.02927 0.45955 0.90576 0.0
H1877 H 1.01888 0.46288 0.94972 0.0
N1878 N 0.98853 0.4307 0.92767 0.0
C1879 C 0.99423 0.42814 0.90423 0.0
C1880 C 0.99729 0.44266 0.94441 0.0
C1881 C 1.01787 0.45129 0.91185 0.0
C1882 C 1.01202 0.45327 0.93658 0.0
C1883 C 1.00901 0.43857 0.89542 0.0
H1884 H 0.02572 0.44398 0.86333 0.0
N1885 N 0.97085 0.40522 0.89797 0.0
C1886 C 0.98502 0.41529 0.8886 0.0
C1887 C 0.98108 0.39998 0.84799 0.0
C1888 C 0.99048 0.41288 0.86344 0.0
C1889 C 0.96209 0.39212 0.8837 0.0
C1890 C 0.96689 0.38952 0.85829 0.0
O1891 O 0.9292 0.40781 0.96679 0.0
O1892 O 0.94292 0.39539 0.96322 0.0
O1893 O 0.97744 0.40142 0.94824 0.0
O1894 O 0.97383 0.4136 0.98129 0.0
O1895 O 0.95501 0.44138 0.93868 0.0
O1896 O 0.96187 0.42855 0.9682 0.0
O1897 O 0.96994 0.4319 0.91122 0.0
O1898 O 0.94814 0.42395 0.8877 0.0
O1899 O 0.93387 0.44451 0.92034 0.0
O1900 O 0.92087 0.4266 0.89178 0.0
O1901 O 0.94158 0.39189 0.9261 0.0
O1902 O 0.93079 0.40272 0.89927 0.0
C1903 C 0.93281 0.39753 0.97644 0.0
C1904 C 0.96314 0.44127 0.95947 0.0
C1905 C 0.97694 0.39282 0.99331 0.0
C1906 C 0.97015 0.3664 0.99645 0.0
C1907 C 0.98644 0.38453 0.03121 0.0
C1908 C 0.98583 0.39614 1.01708 0.0
C1909 C 0.97908 0.36983 0.02052 0.0
C1910 C 0.968 0.37779 0.9849 0.0
C1911 C 0.97933 0.405 0.97434 0.0
C1912 C 1.00518 0.42329 0.85455 0.0
C1913 C 1.01442 0.43607 0.8705 0.0
H1914 H 0.98479 0.39783 0.82841 0.0
C1915 C 0.96315 0.43089 0.88768 0.0
C1916 C 0.93113 0.39073 0.90838 0.0
C1917 C 0.91417 0.44608 0.89407 0.0
C1918 C 0.90808 0.46616 0.88164 0.0
C1919 C 0.88846 0.43964 0.88207 0.0
C1920 C 0.89882 0.43531 0.89034 0.0
C1921 C 0.89301 0.45482 0.87775 0.0
C1922 C 0.91881 0.46172 0.88965 0.0
C1923 C 0.92523 0.44053 0.89859 0.0
H1924 H 0.99354 0.38714 0.04932 0.0
H1925 H 0.99279 0.40772 0.02393 0.0
H1926 H 0.98121 0.36153 0.0302 0.0
H1927 H 0.9606 0.37534 0.96728 0.0
H1928 H 0.87677 0.43111 0.87875 0.0
H1929 H 0.89481 0.42337 0.89307 0.0
H1930 H 0.88464 0.45775 0.87125 0.0
H1931 H 0.93059 0.47026 0.89199 0.0
C1932 C 0.6294 0.50355 0.95438 0.0
C1933 C 0.61936 0.49452 1.00041 0.0
C1934 C 0.61932 0.50166 0.97549 0.0
C1935 C 0.62975 0.48947 1.00403 0.0
C1936 C 0.63966 0.4982 0.95788 0.0
C1937 C 0.63986 0.49131 0.98285 0.0
N1938 N 0.62878 0.50997 0.93009 0.0
C1939 C 0.63747 0.51056 0.90815 0.0
C1940 C 0.64916 0.49958 0.93591 0.0
C1941 C 0.64797 0.50567 0.91088 0.0
Gd1942 Gd 0.62129 0.55905 0.93943 0.0
Gd1943 Gd 0.60996 0.51678 0.92761 0.0
N1944 N 0.60947 0.50686 0.97168 0.0
C1945 C 0.6088 0.49245 0.02086 0.0
C1946 C 0.59862 0.50411 0.99099 0.0
C1947 C 0.59832 0.49716 1.01602 0.0
H1948 H 0.59036 0.50749 0.98733 0.0
H1949 H 0.58992 0.49534 0.03149 0.0
H1950 H 0.65306 0.57621 0.89692 0.0
H1951 H 0.6359 0.51419 0.88815 0.0
H1952 H 0.65923 0.58777 0.85115 0.0
H1953 H 0.60849 0.48701 0.04025 0.0
H1954 H 0.62993 0.48396 0.02303 0.0
H1955 H 0.59721 0.56803 0.96552 0.0
H1956 H 0.65716 0.49558 0.9378 0.0
H1957 H 0.6549 0.50627 0.89345 0.0
H1958 H 0.61831 0.59624 0.82954 0.0
H1959 H 0.64766 0.48714 0.98585 0.0
H1960 H 0.58251 0.58683 0.90168 0.0
H1961 H 0.58031 0.57751 0.94968 0.0
N1962 N 0.60698 0.57004 0.92621 0.0
C1963 C 0.60943 0.57638 0.90087 0.0
C1964 C 0.59738 0.57119 0.94421 0.0
C1965 C 0.58951 0.58223 0.90841 0.0
C1966 C 0.58819 0.57693 0.93546 0.0
C1967 C 0.60057 0.58244 0.89099 0.0
H1968 H 0.59688 0.59384 0.85672 0.0
N1969 N 0.63088 0.57346 0.89801 0.0
C1970 C 0.6217 0.578 0.88608 0.0
C1971 C 0.63858 0.58839 0.84714 0.0
C1972 C 0.62526 0.58552 0.86038 0.0
C1973 C 0.64466 0.57776 0.88638 0.0
C1974 C 0.64848 0.58481 0.86051 0.0
O1975 O 0.6226 0.5293 0.97012 0.0
O1976 O 0.63858 0.55391 0.95856 0.0
O1977 O 0.63063 0.58204 0.95247 0.0
O1978 O 0.62205 0.56424 0.98338 0.0
O1979 O 0.59013 0.5193 0.9393 0.0
O1980 O 0.60084 0.54162 0.96378 0.0
O1981 O 0.60117 0.54556 0.91101 0.0
O1982 O 0.60742 0.52967 0.88895 0.0
O1983 O 0.58673 0.49762 0.92217 0.0
O1984 O 0.60537 0.49571 0.90747 0.0
O1985 O 0.64013 0.55482 0.92395 0.0
O1986 O 0.62857 0.53285 0.89827 0.0
C1987 C 0.63505 0.54265 0.97576 0.0
C1988 C 0.58913 0.52848 0.95687 0.0
C1989 C 0.64331 0.58793 0.9951 0.0
C1990 C 0.66794 0.61059 0.99641 0.0
C1991 C 0.65557 0.59816 0.03912 0.0
C1992 C 0.64309 0.58736 0.02407 0.0
C1993 C 0.66787 0.61001 0.02537 0.0
C1994 C 0.65624 0.59891 0.98166 0.0
C1995 C 0.6296 0.57875 0.97871 0.0
C1996 C 0.61583 0.59059 0.84938 0.0
C1997 C 0.60358 0.58917 0.86479 0.0
H1998 H 0.6417 0.59408 0.82733 0.0
C1999 C 0.60156 0.53886 0.88812 0.0
C2000 C 0.64079 0.54554 0.90555 0.0
C2001 C 0.58135 0.47854 0.88715 0.0
C2002 C 0.56183 0.4534 0.86871 0.0
C2003 C 0.57796 0.47406 0.83766 0.0
C2004 C 0.5853 0.48365 0.85991 0.0
C2005 C 0.56649 0.45917 0.84196 0.0
C2006 C 0.56935 0.46327 0.89155 0.0
C2007 C 0.59078 0.48874 0.91038 0.0
H2008 H 0.65534 0.59782 0.06146 0.0
H2009 H 0.63319 0.57892 0.03496 0.0
H2010 H 0.67687 0.61897 0.03723 0.0
H2011 H 0.65672 0.59927 0.95927 0.0
H2012 H 0.58132 0.47818 0.81678 0.0
H2013 H 0.59435 0.49505 0.8558 0.0
H2014 H 0.56116 0.45205 0.82412 0.0
H2015 H 0.56622 0.45902 0.91242 0.0
C2016 C 0.5652 0.83696 0.75223 0.0
C2017 C 0.55924 0.83703 0.70361 0.0
C2018 C 0.56991 0.84035 0.72482 0.0
C2019 C 0.54392 0.83094 0.71035 0.0
C2020 C 0.54973 0.83031 0.75886 0.0
C2021 C 0.53918 0.82763 0.73788 0.0
N2022 N 0.5756 0.83943 0.77214 0.0
C2023 C 0.57114 0.83443 0.79852 0.0
C2024 C 0.54524 0.82614 0.78628 0.0
C2025 C 0.55596 0.82802 0.80611 0.0
Gd2026 Gd 0.63253 0.89287 0.76694 0.0
Gd2027 Gd 0.60071 0.85061 0.75678 0.0
N2028 N 0.58486 0.84648 0.7188 0.0
C2029 C 0.56422 0.83956 0.67616 0.0
C2030 C 0.58961 0.84793 0.69198 0.0
C2031 C 0.57943 0.8448 0.67031 0.0
H2032 H 0.60129 0.85173 0.68728 0.0
H2033 H 0.58329 0.84633 0.64912 0.0
H2034 H 0.62689 0.89356 0.8374 0.0
H2035 H 0.57931 0.83533 0.81373 0.0
H2036 H 0.63881 0.8923 0.87997 0.0
H2037 H 0.55635 0.8371 0.6593 0.0
H2038 H 0.53558 0.82845 0.69434 0.0
H2039 H 0.65801 0.89987 0.71791 0.0
H2040 H 0.53346 0.82103 0.79219 0.0
H2041 H 0.55252 0.82437 0.82717 0.0
H2042 H 0.68538 0.89616 0.85101 0.0
H2043 H 0.52727 0.82264 0.74265 0.0
H2044 H 0.69708 0.90205 0.75451 0.0
H2045 H 0.68338 0.90296 0.71317 0.0
N2046 N 0.6568 0.89617 0.76116 0.0
C2047 C 0.66448 0.89665 0.78435 0.0
C2048 C 0.6636 0.89888 0.73594 0.0
C2049 C 0.68585 0.90052 0.75667 0.0
C2050 C 0.67812 0.90092 0.73325 0.0
C2051 C 0.67911 0.89849 0.78266 0.0
H2052 H 0.69769 0.89946 0.80592 0.0
N2053 N 0.64358 0.89368 0.81069 0.0
C2054 C 0.65759 0.89508 0.80978 0.0
C2055 C 0.65808 0.89354 0.85955 0.0
C2056 C 0.66513 0.89495 0.83415 0.0
C2057 C 0.63718 0.89327 0.83572 0.0
C2058 C 0.64415 0.8929 0.86033 0.0
O2059 O 0.59731 0.8682 0.73349 0.0
O2060 O 0.60931 0.89024 0.7587 0.0
O2061 O 0.64335 0.91614 0.78095 0.0
O2062 O 0.6424 0.91106 0.73738 0.0
O2063 O 0.62088 0.86014 0.72469 0.0
O2064 O 0.62797 0.88517 0.72219 0.0
O2065 O 0.63653 0.87289 0.76793 0.0
O2066 O 0.61673 0.85549 0.79253 0.0
O2067 O 0.60955 0.83552 0.74513 0.0
O2068 O 0.58637 0.82604 0.75679 0.0
O2069 O 0.613 0.88741 0.79679 0.0
O2070 O 0.5979 0.86116 0.79938 0.0
C2071 C 0.59824 0.88086 0.74234 0.0
C2072 C 0.62861 0.87355 0.71212 0.0
C2073 C 0.63868 0.93112 0.74967 0.0
C2074 C 0.62997 0.94803 0.7656 0.0
C2075 C 0.62765 0.94097 0.71711 0.0
C2076 C 0.63443 0.93232 0.72254 0.0
C2077 C 0.62539 0.94878 0.73847 0.0
C2078 C 0.63642 0.93902 0.77105 0.0
C2079 C 0.64506 0.92135 0.75581 0.0
C2080 C 0.67951 0.89634 0.8325 0.0
C2081 C 0.68652 0.89822 0.80684 0.0
H2082 H 0.66346 0.89332 0.87869 0.0
C2083 C 0.63125 0.86252 0.78725 0.0
C2084 C 0.602 0.87517 0.80897 0.0
C2085 C 0.59548 0.80856 0.75558 0.0
C2086 C 0.58978 0.78237 0.74498 0.0
C2087 C 0.59447 0.79187 0.79229 0.0
C2088 C 0.59666 0.80587 0.78358 0.0
C2089 C 0.59109 0.78028 0.77328 0.0
C2090 C 0.59196 0.79667 0.73616 0.0
C2091 C 0.59648 0.82315 0.74706 0.0
H2092 H 0.6244 0.94185 0.69622 0.0
H2093 H 0.63619 0.92646 0.70554 0.0
H2094 H 0.62081 0.95602 0.73343 0.0
H2095 H 0.64 0.93847 0.79189 0.0
H2096 H 0.5953 0.78992 0.81403 0.0
H2097 H 0.59903 0.81456 0.79882 0.0
H2098 H 0.58939 0.76954 0.78078 0.0
H2099 H 0.59077 0.79846 0.71447 0.0
C2100 C 0.19394 0.73422 0.75071 0.0
C2101 C 0.19349 0.72794 0.70214 0.0
C2102 C 0.19052 0.73556 0.72336 0.0
C2103 C 0.19919 0.71835 0.70886 0.0
C2104 C 0.20025 0.72507 0.75732 0.0
C2105 C 0.20252 0.71689 0.73636 0.0
N2106 N 0.19187 0.74246 0.77057 0.0
C2107 C 0.19692 0.74294 0.7969 0.0
C2108 C 0.20448 0.72473 0.78469 0.0
C2109 C 0.203 0.73386 0.80447 0.0
Gd2110 Gd 0.13855 0.74534 0.76432 0.0
Gd2111 Gd 0.18109 0.75682 0.75533 0.0
N2112 N 0.18486 0.7448 0.71736 0.0
C2113 C 0.1911 0.73055 0.67469 0.0
C2114 C 0.18364 0.7483 0.69056 0.0
C2115 C 0.18641 0.74097 0.66887 0.0
H2116 H 0.18024 0.75652 0.68595 0.0
H2117 H 0.18503 0.74344 0.64768 0.0
H2118 H 0.13282 0.73545 0.83315 0.0
H2119 H 0.19633 0.7504 0.81209 0.0
H2120 H 0.1302 0.74616 0.87645 0.0
H2121 H 0.19331 0.72494 0.65782 0.0
H2122 H 0.2014 0.71229 0.69285 0.0
H2123 H 0.13112 0.76349 0.71569 0.0
H2124 H 0.20934 0.71782 0.79057 0.0
H2125 H 0.2067 0.73404 0.82548 0.0
H2126 H 0.12846 0.79037 0.84934 0.0
H2127 H 0.20723 0.70971 0.74111 0.0
H2128 H 0.12814 0.79993 0.75259 0.0
H2129 H 0.12831 0.78603 0.71078 0.0
N2130 N 0.13479 0.76598 0.75877 0.0
C2131 C 0.13336 0.77252 0.7821 0.0
C2132 C 0.13216 0.77014 0.73359 0.0
C2133 C 0.1299 0.79035 0.7546 0.0
C2134 C 0.13008 0.78261 0.73095 0.0
C2135 C 0.13116 0.7851 0.78064 0.0
H2136 H 0.12824 0.80144 0.80438 0.0
N2137 N 0.13489 0.75358 0.80798 0.0
C2138 C 0.13344 0.76617 0.80742 0.0
C2139 C 0.13061 0.76531 0.85705 0.0
C2140 C 0.13138 0.77241 0.83195 0.0
C2141 C 0.1332 0.74615 0.83239 0.0
C2142 C 0.13133 0.75203 0.85721 0.0
O2143 O 0.16336 0.73607 0.73149 0.0
O2144 O 0.14212 0.72519 0.75846 0.0
O2145 O 0.11504 0.73449 0.7756 0.0
O2146 O 0.12129 0.73397 0.73305 0.0
O2147 O 0.17178 0.76804 0.72391 0.0
O2148 O 0.14689 0.74998 0.71996 0.0
O2149 O 0.15815 0.76947 0.768 0.0
O2150 O 0.17585 0.76717 0.79189 0.0
O2151 O 0.1962 0.78075 0.74401 0.0
O2152 O 0.20569 0.76699 0.75508 0.0
O2153 O 0.14448 0.73193 0.79491 0.0
O2154 O 0.17072 0.74402 0.79861 0.0
C2155 C 0.15143 0.72393 0.7413 0.0
C2156 C 0.15854 0.76249 0.71077 0.0
C2157 C 0.10084 0.71176 0.75145 0.0
C2158 C 0.08315 0.68897 0.77609 0.0
C2159 C 0.09126 0.68723 0.72968 0.0
C2160 C 0.09999 0.70297 0.72845 0.0
C2161 C 0.08283 0.68022 0.75334 0.0
C2162 C 0.09252 0.70464 0.77521 0.0
C2163 C 0.11053 0.72829 0.75139 0.0
C2164 C 0.12988 0.78536 0.83067 0.0
C2165 C 0.12978 0.79169 0.80508 0.0
H2166 H 0.12905 0.76976 0.87632 0.0
C2167 C 0.16803 0.774 0.78818 0.0
C2168 C 0.15675 0.7338 0.80792 0.0
C2169 C 0.22308 0.79365 0.75473 0.0
C2170 C 0.24978 0.8137 0.74593 0.0
C2171 C 0.23878 0.80954 0.79216 0.0
C2172 C 0.22498 0.79782 0.78261 0.0
C2173 C 0.251 0.8173 0.7742 0.0
C2174 C 0.23555 0.8018 0.73618 0.0
C2175 C 0.20859 0.78006 0.74567 0.0
H2176 H 0.09067 0.68049 0.71196 0.0
H2177 H 0.10606 0.70823 0.70961 0.0
H2178 H 0.07537 0.66808 0.75315 0.0
H2179 H 0.09278 0.71135 0.79281 0.0
H2180 H 0.24008 0.81257 0.81383 0.0
H2181 H 0.21582 0.7918 0.79714 0.0
H2182 H 0.26152 0.82627 0.78254 0.0
H2183 H 0.23433 0.79858 0.71461 0.0
C2184 C 0.29588 0.46622 0.75048 0.0
C2185 C 0.29993 0.47138 0.7013 0.0
C2186 C 0.29333 0.46109 0.72335 0.0
C2187 C 0.30939 0.48682 0.7069 0.0
C2188 C 0.30504 0.48181 0.75609 0.0
C2189 C 0.31192 0.49202 0.73421 0.0
N2190 N 0.28924 0.45606 0.7713 0.0
C2191 C 0.29042 0.46095 0.79801 0.0
C2192 C 0.30689 0.48673 0.78352 0.0
C2193 C 0.29939 0.47627 0.80453 0.0
Gd2194 Gd 0.28603 0.39923 0.76396 0.0
Gd2195 Gd 0.27438 0.43053 0.75769 0.0
N2196 N 0.28436 0.44603 0.71849 0.0
C2197 C 0.29666 0.46588 0.67422 0.0
C2198 C 0.28044 0.44074 0.69209 0.0
C2199 C 0.28671 0.45052 0.66961 0.0
H2200 H 0.27259 0.42896 0.68825 0.0
H2201 H 0.28382 0.44622 0.64874 0.0
H2202 H 0.28161 0.40404 0.8339 0.0
H2203 H 0.28428 0.45305 0.81442 0.0
H2204 H 0.26806 0.38849 0.87317 0.0
H2205 H 0.3015 0.47343 0.65675 0.0
H2206 H 0.31464 0.49487 0.69023 0.0
H2207 H 0.27306 0.3759 0.7102 0.0
H2208 H 0.31381 0.4986 0.78864 0.0
H2209 H 0.30042 0.48 0.82574 0.0
H2210 H 0.23817 0.33884 0.83594 0.0
H2211 H 0.31908 0.50401 0.73818 0.0
H2212 H 0.23965 0.33216 0.73849 0.0
H2213 H 0.25426 0.34934 0.70024 0.0
N2214 N 0.26833 0.37416 0.75309 0.0
C2215 C 0.26093 0.36482 0.77459 0.0
C2216 C 0.26634 0.36869 0.72682 0.0
C2217 C 0.24776 0.34389 0.74286 0.0
C2218 C 0.2559 0.35356 0.72121 0.0
C2219 C 0.25026 0.34943 0.76994 0.0
H2220 H 0.23403 0.32829 0.7891 0.0
N2221 N 0.27344 0.38587 0.80488 0.0
C2222 C 0.26352 0.3708 0.80117 0.0
C2223 C 0.25704 0.36789 0.84971 0.0
C2224 C 0.25511 0.36147 0.82352 0.0
C2225 C 0.27483 0.39218 0.83044 0.0
C2226 C 0.26683 0.38332 0.8531 0.0
O2227 O 0.2957 0.43568 0.734 0.0
O2228 O 0.30588 0.42309 0.75712 0.0
O2229 O 0.29849 0.38848 0.7779 0.0
O2230 O 0.29785 0.39304 0.73437 0.0
O2231 O 0.26278 0.40995 0.72643 0.0
O2232 O 0.2819 0.40483 0.7206 0.0
O2233 O 0.26126 0.3925 0.7656 0.0
O2234 O 0.26329 0.41226 0.79011 0.0
O2235 O 0.25333 0.42808 0.73806 0.0
O2236 O 0.26195 0.44019 0.77648 0.0
O2237 O 0.29861 0.41671 0.79792 0.0
O2238 O 0.28984 0.43395 0.79755 0.0
C2239 C 0.30737 0.4344 0.74163 0.0
C2240 C 0.26891 0.4031 0.7122 0.0
C2241 C 0.32086 0.39686 0.75227 0.0
C2242 C 0.34464 0.40365 0.77486 0.0
C2243 C 0.34453 0.412 0.72791 0.0
C2244 C 0.32877 0.40429 0.72818 0.0
C2245 C 0.35247 0.41169 0.7511 0.0
C2246 C 0.32889 0.39672 0.77554 0.0
C2247 C 0.3043 0.38931 0.75353 0.0
C2248 C 0.24466 0.34612 0.81898 0.0
C2249 C 0.24227 0.34012 0.79229 0.0
H2250 H 0.25073 0.36112 0.86731 0.0
C2251 C 0.25541 0.398 0.78301 0.0
C2252 C 0.29851 0.42866 0.80857 0.0
C2253 C 0.23923 0.43984 0.7599 0.0
C2254 C 0.2191 0.44472 0.74238 0.0
C2255 C 0.22621 0.44845 0.79089 0.0
C2256 C 0.23689 0.44403 0.78635 0.0
C2257 C 0.21746 0.44881 0.76926 0.0
C2258 C 0.23014 0.44017 0.73756 0.0
C2259 C 0.25188 0.43624 0.75716 0.0
H2260 H 0.35057 0.41781 0.70938 0.0
H2261 H 0.32282 0.40426 0.70964 0.0
H2262 H 0.36464 0.41685 0.74973 0.0
H2263 H 0.32286 0.39053 0.79386 0.0
H2264 H 0.22475 0.45172 0.81143 0.0
H2265 H 0.24347 0.44402 0.80388 0.0
H2266 H 0.2093 0.4524 0.77357 0.0
H2267 H 0.23175 0.43717 0.71689 0.0
C2268 C 0.57759 0.98769 0.1323 0.0
C2269 C 0.58844 0.98388 0.17395 0.0
C2270 C 0.58105 0.97848 0.14834 0.0
C2271 C 0.59229 0.99846 0.183 0.0
C2272 C 0.5817 1.00243 0.14109 0.0
C2273 C 0.58906 1.00774 0.16651 0.0
N2274 N 0.56978 0.98204 0.1084 0.0
C2275 C 0.567 0.99091 0.09112 0.0
C2276 C 0.57819 1.01136 0.12411 0.0
C2277 C 0.57095 1.00562 0.09886 0.0
Gd2278 Gd 0.52171 0.92619 0.10899 0.0
Gd2279 Gd 0.56416 0.95767 0.09607 0.0
N2280 N 0.57714 0.96434 0.13905 0.0
C2281 C 0.59179 0.9745 0.1898 0.0
C2282 C 0.58132 0.95559 0.15385 0.0
C2283 C 0.58835 0.96038 0.17957 0.0
H2284 H 0.57969 0.94504 0.14612 0.0
H2285 H 0.59132 0.95322 0.19133 0.0
H2286 H 0.5118 0.93697 0.04998 0.0
H2287 H 0.56191 0.98668 0.07119 0.0
H2288 H 0.50012 0.9259 1.00544 0.0
H2289 H 0.59731 0.97817 0.20968 0.0
H2290 H 0.59788 1.0027 0.20268 0.0
H2291 H 0.51399 0.89701 0.15028 0.0
H2292 H 0.58118 0.02274 0.13014 0.0
H2293 H 0.56851 1.01256 0.08528 0.0
H2294 H 0.4851 0.87347 1.01454 0.0
H2295 H 0.59223 0.019 0.17367 0.0
H2296 H 0.49267 0.85644 0.10211 0.0
H2297 H 0.50325 0.86934 0.14662 0.0
N2298 N 0.51105 0.89985 0.10783 0.0
C2299 C 0.50448 0.89291 0.08366 0.0
C2300 C 0.51021 0.89155 0.13048 0.0
C2301 C 0.49775 0.86862 0.10348 0.0
C2302 C 0.50378 0.87586 0.1286 0.0
C2303 C 0.49781 0.8771 0.08073 0.0
H2304 H 0.486 0.85811 0.05283 0.0
N2305 N 0.50997 0.9167 0.06592 0.0
C2306 C 0.50379 0.90153 0.06217 0.0
C2307 C 0.49569 0.90359 1.01625 0.0
C2308 C 0.49667 0.89461 0.03707 0.0
C2309 C 0.50817 0.9253 0.0463 0.0
C2310 C 0.50127 0.91895 0.02106 0.0
O2311 O 0.54981 0.96335 0.12411 0.0
O2312 O 0.53579 0.9413 0.14666 0.0
O2313 O 0.50034 0.92686 0.10954 0.0
O2314 O 0.50622 0.91768 0.14389 0.0
O2315 O 0.56161 0.9352 0.11199 0.0
O2316 O 0.53772 0.92057 0.13185 0.0
O2317 O 0.53345 0.92287 0.06809 0.0
O2318 O 0.55954 0.93643 0.0728 0.0
O2319 O 0.58806 0.97059 0.08943 0.0
O2320 O 0.57296 0.9676 0.05566 0.0
O2321 O 0.526 0.94912 0.09594 0.0
O2322 O 0.54585 0.95564 0.06716 0.0
C2323 C 0.54384 0.95632 0.14727 0.0
C2324 C 0.55168 0.92347 0.12701 0.0
C2325 C 0.47977 0.90927 0.13939 0.0
C2326 C 0.45352 0.90257 0.15231 0.0
C2327 C 0.46102 0.88338 0.1514 0.0
C2328 C 0.47557 0.89402 0.14304 0.0
C2329 C 0.45015 0.88757 0.15595 0.0
C2330 C 0.46855 0.91357 0.1442 0.0
C2331 C 0.49616 0.9206 0.13376 0.0
C2332 C 0.49053 0.87897 0.03373 0.0
C2333 C 0.49107 0.87022 0.05552 0.0
H2334 H 0.4903 0.8987 0.99669 0.0
C2335 C 0.54742 0.92642 0.05918 0.0
C2336 C 0.53456 0.95725 0.07553 0.0
C2337 C 0.59677 0.97008 0.0447 0.0
C2338 C 0.61922 0.96792 0.03942 0.0
C2339 C 0.60445 0.96636 0.99918 0.0
C2340 C 0.59456 0.96863 1.01595 0.0
C2341 C 0.61678 0.96595 1.01088 0.0
C2342 C 0.60916 0.96977 0.05605 0.0
C2343 C 0.58691 0.97271 0.06323 0.0
H2344 H 0.45815 0.87174 0.15454 0.0
H2345 H 0.48365 0.89028 0.14005 0.0
H2346 H 0.43895 0.87898 0.16247 0.0
H2347 H 0.4715 0.92528 0.14186 0.0
H2348 H 0.60264 0.96509 0.97709 0.0
H2349 H 0.58519 0.96912 1.00655 0.0
H2350 H 0.62456 0.96451 0.99775 0.0
H2351 H 0.61125 0.97122 0.07812 0.0
C2352 C 0.04325 0.59931 0.1273 0.0
C2353 C 0.04545 0.61643 0.16403 0.0
C2354 C 0.05178 0.61294 0.14124 0.0
C2355 C 0.03078 0.60594 0.17299 0.0
C2356 C 0.02838 0.58895 0.13573 0.0
C2357 C 0.02228 0.59225 0.15889 0.0
N2358 N 0.04952 0.59619 0.10533 0.0
C2359 C 0.04107 0.58394 0.089 0.0
C2360 C 0.02 0.5757 0.12029 0.0
C2361 C 0.0263 0.57331 0.09653 0.0
Gd2362 Gd 0.10537 0.60292 0.1095 0.0
Gd2363 Gd 0.07423 0.61441 0.09396 0.0
N2364 N 0.06604 0.62288 0.13216 0.0
C2365 C 0.05401 0.6304 0.17712 0.0
C2366 C 0.07407 0.63685 0.14405 0.0
C2367 C 0.0683 0.64069 0.16692 0.0
H2368 H 0.0848 0.6453 0.13587 0.0
H2369 H 0.07483 0.65169 0.17648 0.0
H2370 H 0.09281 0.57936 0.05423 0.0
H2371 H 0.04563 0.58255 0.0699 0.0
H2372 H 0.10237 0.5767 1.00938 0.0
H2373 H 0.04958 0.63347 0.19476 0.0
H2374 H 0.02583 0.60839 0.19063 0.0
H2375 H 0.13561 0.62936 0.14397 0.0
H2376 H 1.00853 0.56747 0.12607 0.0
H2377 H 0.01972 0.56342 0.08382 0.0
H2378 H 0.15448 0.61549 1.00973 0.0
H2379 H 1.01092 0.58437 0.16583 0.0
H2380 H 0.17386 0.64662 0.09022 0.0
H2381 H 0.16258 0.64715 0.13512 0.0
N2382 N 0.13126 0.61996 0.10367 0.0
C2383 C 0.13738 0.61896 0.07932 0.0
C2384 C 0.14021 0.62957 0.12387 0.0
C2385 C 0.16191 0.63905 0.09378 0.0
C2386 C 0.15558 0.63943 0.1191 0.0
C2387 C 0.15286 0.62858 0.07366 0.0
H2388 H 0.17076 0.63464 0.04369 0.0
N2389 N 0.11328 0.59892 0.06613 0.0
C2390 C 0.12821 0.60804 0.06016 0.0
C2391 C 0.12477 0.59543 1.01625 0.0
C2392 C 0.13428 0.60666 0.03487 0.0
C2393 C 0.10419 0.58745 0.04863 0.0
C2394 C 0.1097 0.5857 0.0233 0.0
O2395 O 0.06763 0.59568 0.12618 0.0
O2396 O 0.08977 0.60075 0.14705 0.0
O2397 O 0.10582 0.58122 0.11227 0.0
O2398 O 0.11669 0.59859 0.14294 0.0
O2399 O 0.09625 0.63372 0.11219 0.0
O2400 O 0.10964 0.62368 0.13415 0.0
O2401 O 0.10822 0.6175 0.0681 0.0
O2402 O 0.09632 0.63154 0.07387 0.0
O2403 O 0.06079 0.62423 0.08203 0.0
O2404 O 0.06776 0.61381 0.05069 0.0
O2405 O 0.08204 0.5839 0.09981 0.0
O2406 O 0.07608 0.59672 0.06894 0.0
C2407 C 0.07496 0.59568 0.14847 0.0
C2408 C 0.10725 0.63501 0.12871 0.0
C2409 C 0.12367 0.57915 0.14477 0.0
C2410 C 0.1288 0.55837 0.15749 0.0
C2411 C 0.14582 0.58426 0.17212 0.0
C2412 C 0.13706 0.58928 0.15873 0.0
C2413 C 0.14175 0.56907 0.17157 0.0
C2414 C 0.11954 0.56344 0.14418 0.0
C2415 C 0.11337 0.58505 0.13535 0.0
C2416 C 0.14963 0.6164 0.02905 0.0
C2417 C 0.1589 0.62732 0.04838 0.0
H2418 H 0.12902 0.594 0.99664 0.0
C2419 C 0.1056 0.62864 0.05965 0.0
C2420 C 0.07363 0.5839 0.07954 0.0
C2421 C 0.06482 0.63471 0.03763 0.0
C2422 C 0.06797 0.65992 0.03672 0.0
C2423 C 0.05884 0.64383 0.99601 0.0
C2424 C 0.05938 0.63225 1.01047 0.0
C2425 C 0.06261 0.65745 1.00934 0.0
C2426 C 0.0706 0.6491 0.0493 0.0
C2427 C 0.06134 0.62183 0.05577 0.0
H2428 H 0.15584 0.59225 0.1833 0.0
H2429 H 0.14062 0.60118 0.1602 0.0
H2430 H 0.14884 0.56562 0.18234 0.0
H2431 H 0.10922 0.55529 0.13396 0.0
H2432 H 0.05436 0.64182 0.97521 0.0
H2433 H 0.05489 0.62121 1.001 0.0
H2434 H 0.0604 0.66552 0.99886 0.0
H2435 H 0.07535 0.65116 0.06993 0.0
C2436 C 0.43224 0.45339 0.1394 0.0
C2437 C 0.41473 0.44125 0.17712 0.0
C2438 C 0.41843 0.44913 0.15178 0.0
C2439 C 0.42513 0.43796 0.18983 0.0
C2440 C 0.44249 0.44962 0.15154 0.0
C2441 C 0.4389 0.44199 0.17692 0.0
N2442 N 0.43567 0.46123 0.11534 0.0
C2443 C 0.44841 0.46439 0.10103 0.0
C2444 C 0.45602 0.45361 0.13771 0.0
C2445 C 0.45891 0.46087 0.11215 0.0
Gd2446 Gd 0.42762 0.50851 0.10713 0.0
Gd2447 Gd 0.41739 0.46628 0.0972 0.0
N2448 N 0.40846 0.45223 0.13866 0.0
C2449 C 0.40053 0.43658 0.18867 0.0
C2450 C 0.39415 0.44657 0.14886 0.0
C2451 C 0.39013 0.43905 0.17427 0.0
H2452 H 0.38559 0.44749 0.13746 0.0
H2453 H 0.3789 0.43493 0.18252 0.0
H2454 H 0.44797 0.51958 0.0484 0.0
H2455 H 0.45041 0.46961 0.08107 0.0
H2456 H 0.44806 0.5317 1.0045 0.0
H2457 H 0.39731 0.43061 0.2082 0.0
H2458 H 0.4225 0.43201 0.20938 0.0
H2459 H 0.40166 0.51051 0.14757 0.0
H2460 H 0.46418 0.45093 0.14638 0.0
H2461 H 0.46915 0.46368 0.10094 0.0
H2462 H 0.40729 0.54192 1.01367 0.0
H2463 H 0.44665 0.43907 0.18665 0.0
H2464 H 0.3805 0.52986 0.09944 0.0
H2465 H 0.38292 0.51885 0.14329 0.0
N2466 N 0.40889 0.51542 0.10567 0.0
C2467 C 0.40812 0.52194 0.08161 0.0
C2468 C 0.40026 0.51462 0.12788 0.0
C2469 C 0.38849 0.52584 0.10092 0.0
C2470 C 0.3898 0.5196 0.1257 0.0
C2471 C 0.39785 0.52728 0.07863 0.0
H2472 H 0.38965 0.53841 0.05124 0.0
N2473 N 0.42815 0.51898 0.06372 0.0
C2474 C 0.41815 0.52399 0.06027 0.0
C2475 C 0.42871 0.5338 1.01518 0.0
C2476 C 0.41805 0.53135 0.03566 0.0
C2477 C 0.43921 0.52226 0.04459 0.0
C2478 C 0.43945 0.52939 0.01982 0.0
O2479 O 0.43732 0.48191 0.12466 0.0
O2480 O 0.42966 0.49636 0.14701 0.0
O2481 O 0.45113 0.52665 0.11438 0.0
O2482 O 0.43285 0.53018 0.12524 0.0
O2483 O 0.39774 0.46968 0.11132 0.0
O2484 O 0.4091 0.49206 0.1361 0.0
O2485 O 0.41431 0.49588 0.06537 0.0
O2486 O 0.40006 0.47048 0.07537 0.0
O2487 O 0.40738 0.44248 0.08844 0.0
O2488 O 0.42023 0.45883 0.05663 0.0
O2489 O 0.44658 0.50508 0.09256 0.0
O2490 O 0.43351 0.48368 0.0669 0.0
C2491 C 0.43608 0.48775 0.14796 0.0
C2492 C 0.39701 0.47922 0.12904 0.0
C2493 C 0.45634 0.54639 0.14774 0.0
C2494 C 0.47622 0.5712 0.16616 0.0
C2495 C 0.45829 0.55157 0.19704 0.0
C2496 C 0.45128 0.54181 0.17484 0.0
C2497 C 0.47054 0.56607 0.19278 0.0
C2498 C 0.46902 0.56122 0.14343 0.0
C2499 C 0.44745 0.53625 0.12421 0.0
C2500 C 0.40755 0.53629 0.03246 0.0
C2501 C 0.39749 0.53427 0.05386 0.0
H2502 H 0.429 0.53942 0.99602 0.0
C2503 C 0.40287 0.48195 0.05896 0.0
C2504 C 0.44615 0.49596 0.07314 0.0
C2505 C 0.40034 0.43511 0.04243 0.0
C2506 C 0.37384 0.4165 0.03567 0.0
C2507 C 0.39313 0.41735 1.00468 0.0
C2508 C 0.40436 0.4292 0.02004 0.0
C2509 C 0.37801 0.41066 1.01296 0.0
C2510 C 0.38511 0.42982 0.04811 0.0
C2511 C 0.41176 0.44461 0.06273 0.0
H2512 H 0.4541 0.54791 0.21778 0.0
H2513 H 0.44164 0.53072 0.1788 0.0
H2514 H 0.47564 0.57338 0.21048 0.0
H2515 H 0.47301 0.56504 0.12264 0.0
H2516 H 0.39624 0.4126 0.98763 0.0
H2517 H 0.41614 0.4333 1.0152 0.0
H2518 H 0.36995 0.40042 1.00251 0.0
H2519 H 0.38236 0.43526 0.06445 0.0
C2520 C 0.03791 0.45407 0.59595 0.0
C2521 C 0.03302 0.45124 0.54664 0.0
C2522 C 0.04322 0.45536 0.56903 0.0
C2523 C 1.01768 0.44618 0.55162 0.0
C2524 C 0.02243 0.44871 0.60098 0.0
C2525 C 1.01241 0.44497 0.57869 0.0
N2526 N 0.04776 0.45762 0.61727 0.0
C2527 C 0.04266 0.45461 0.64379 0.0
C2528 C 1.01737 0.44686 0.62835 0.0
C2529 C 0.02751 0.44962 0.64986 0.0
Gd2530 Gd 0.10329 0.50848 0.61115 0.0
Gd2531 Gd 0.07274 0.46515 0.60567 0.0
N2532 N 0.05825 0.46052 0.56472 0.0
C2533 C 0.03851 0.45235 0.5198 0.0
C2534 C 0.0636 0.46193 0.53834 0.0
C2535 C 0.05385 0.45776 0.51566 0.0
H2536 H 0.07531 0.46641 0.53403 0.0
H2537 H 0.05825 0.4589 0.49492 0.0
H2538 H 0.10026 0.50746 0.68054 0.0
H2539 H 0.05015 0.45552 0.6602 0.0
H2540 H 0.11686 0.51378 0.72108 0.0
H2541 H 0.03103 0.44927 0.50213 0.0
H2542 H 1.00977 0.44308 0.53465 0.0
H2543 H 0.1267 0.52119 0.55567 0.0
H2544 H 1.00559 0.44278 0.63305 0.0
H2545 H 0.02362 0.44756 0.67106 0.0
H2546 H 0.16651 0.53401 0.68271 0.0
H2547 H 1.00051 0.44087 0.58218 0.0
H2548 H 0.17191 0.5385 0.58449 0.0
H2549 H 0.15387 0.53257 0.54608 0.0
N2550 N 0.12902 0.51947 0.59911 0.0
C2551 C 0.13884 0.52339 0.62062 0.0
C2552 C 0.13434 0.52314 0.57264 0.0
C2553 C 0.15993 0.53327 0.58885 0.0
C2554 C 0.14979 0.52987 0.56711 0.0
C2555 C 0.15456 0.53022 0.616 0.0
H2556 H 0.1765 0.53904 0.63535 0.0
N2557 N 0.11801 0.51381 0.65136 0.0
C2558 C 0.13321 0.52061 0.64745 0.0
C2559 C 0.13712 0.52178 0.69686 0.0
C2560 C 0.14314 0.52452 0.67015 0.0
C2561 C 0.11216 0.51189 0.67741 0.0
C2562 C 0.12158 0.5156 0.70049 0.0
O2563 O 0.06515 0.48254 0.59959 0.0
O2564 O 0.08565 0.50129 0.57763 0.0
O2565 O 0.10101 0.52728 0.63066 0.0
O2566 O 0.11306 0.53052 0.59228 0.0
O2567 O 0.09052 0.47066 0.57202 0.0
O2568 O 0.10671 0.49683 0.57062 0.0
O2569 O 0.1092 0.49249 0.63416 0.0
O2570 O 0.09689 0.46975 0.61092 0.0
O2571 O 0.06142 0.4416 0.59468 0.0
O2572 O 0.06904 0.44832 0.63676 0.0
O2573 O 0.08196 0.49945 0.64056 0.0
O2574 O 0.07779 0.47573 0.64837 0.0
C2575 C 0.07114 0.49423 0.58285 0.0
C2576 C 0.10185 0.4828 0.56024 0.0
C2577 C 0.11344 0.55328 0.6089 0.0
C2578 C 0.11816 0.57837 0.62606 0.0
C2579 C 0.12434 0.57544 0.57878 0.0
C2580 C 0.11921 0.56017 0.58315 0.0
C2581 C 0.12383 0.58439 0.59987 0.0
C2582 C 0.11293 0.56259 0.63075 0.0
C2583 C 0.10933 0.53684 0.61162 0.0
C2584 C 0.15874 0.53104 0.66553 0.0
C2585 C 0.16442 0.53389 0.63856 0.0
H2586 H 0.14438 0.52462 0.7148 0.0
C2587 C 0.10812 0.47957 0.62652 0.0
C2588 C 0.07535 0.48673 0.65547 0.0
C2589 C 0.07103 0.42805 0.61783 0.0
C2590 C 0.07586 0.4103 0.59277 0.0
C2591 C 0.08581 0.41816 0.63911 0.0
C2592 C 0.07869 0.42677 0.64084 0.0
C2593 C 0.0844 0.40991 0.6152 0.0
C2594 C 0.06985 0.41992 0.59379 0.0
C2595 C 0.06386 0.43743 0.61863 0.0
H2596 H 0.12882 0.58041 0.55879 0.0
H2597 H 0.11996 0.55375 0.56601 0.0
H2598 H 0.12797 0.59626 0.59565 0.0
H2599 H 0.1087 0.55773 0.65091 0.0
H2600 H 0.09194 0.41741 0.65672 0.0
H2601 H 0.07945 0.43267 0.65991 0.0
H2602 H 0.08891 0.4023 0.61514 0.0
H2603 H 0.06322 0.4201 0.57644 0.0
C2604 C 0.57957 0.59367 0.5986 0.0
C2605 C 0.58319 0.59116 0.54977 0.0
C2606 C 0.57814 0.59692 0.57129 0.0
C2607 C 0.58935 0.58193 0.55605 0.0
C2608 C 0.58609 0.58466 0.60497 0.0
C2609 C 0.59073 0.57863 0.58357 0.0
N2610 N 0.57525 0.59987 0.61899 0.0
C2611 C 0.57842 0.59861 0.64591 0.0
C2612 C 0.58833 0.58247 0.63271 0.0
C2613 C 0.58479 0.58978 0.65321 0.0
Gd2614 Gd 0.522 0.60121 0.61228 0.0
Gd2615 Gd 0.56558 0.61537 0.60469 0.0
N2616 N 0.57156 0.60542 0.5657 0.0
C2617 C 0.58156 0.59455 0.52245 0.0
C2618 C 0.5698 0.60855 0.53894 0.0
C2619 C 0.5748 0.60323 0.51705 0.0
H2620 H 0.5646 0.61512 0.53392 0.0
H2621 H 0.57337 0.6058 0.49595 0.0
H2622 H 0.52143 0.59678 0.68083 0.0
H2623 H 0.57686 0.6051 0.66172 0.0
H2624 H 0.5135 0.60509 0.72225 0.0
H2625 H 0.58527 0.59034 0.50539 0.0
H2626 H 0.59309 0.57728 0.53976 0.0
H2627 H 0.50903 0.61263 0.55755 0.0
H2628 H 0.59341 0.57574 0.63843 0.0
H2629 H 0.58744 0.58911 0.67457 0.0
H2630 H 0.4943 0.63602 0.68655 0.0
H2631 H 0.59567 0.57162 0.5881 0.0
H2632 H 0.49249 0.64073 0.58862 0.0
H2633 H 0.49837 0.62914 0.54928 0.0
N2634 N 0.51143 0.61654 0.60109 0.0
C2635 C 0.50736 0.62201 0.62313 0.0
C2636 C 0.50761 0.61847 0.57488 0.0
C2637 C 0.49774 0.63394 0.59238 0.0
C2638 C 0.50111 0.62748 0.57011 0.0
C2639 C 0.50047 0.63092 0.61929 0.0
H2640 H 0.49085 0.64307 0.63972 0.0
N2641 N 0.51603 0.60949 0.653 0.0
C2642 C 0.50929 0.61802 0.64969 0.0
C2643 C 0.50618 0.61833 0.69918 0.0
C2644 C 0.5044 0.62285 0.67283 0.0
C2645 C 0.51704 0.60437 0.67853 0.0
C2646 C 0.5124 0.60893 0.702 0.0
O2647 O 0.54919 0.59066 0.59371 0.0
O2648 O 0.52815 0.59073 0.57714 0.0
O2649 O 0.50505 0.57797 0.62745 0.0
O2650 O 0.49853 0.5906 0.60069 0.0
O2651 O 0.55855 0.62586 0.5707 0.0
O2652 O 0.53249 0.61539 0.57038 0.0
O2653 O 0.53776 0.62211 0.63827 0.0
O2654 O 0.55895 0.63329 0.61153 0.0
O2655 O 0.58532 0.63387 0.58701 0.0
O2656 O 0.58569 0.62811 0.63013 0.0
O2657 O 0.53247 0.58963 0.64027 0.0
O2658 O 0.55592 0.60967 0.64827 0.0
C2659 C 0.53646 0.58428 0.57954 0.0
C2660 C 0.54627 0.62463 0.5593 0.0
C2661 C 0.47825 0.56551 0.61069 0.0
C2662 C 0.45287 0.54531 0.62623 0.0
C2663 C 0.45748 0.55293 0.57795 0.0
C2664 C 0.47251 0.56348 0.58368 0.0
C2665 C 0.44781 0.54399 0.59889 0.0
C2666 C 0.46825 0.5563 0.63225 0.0
C2667 C 0.49388 0.57865 0.61587 0.0
C2668 C 0.49797 0.63208 0.66901 0.0
C2669 C 0.49606 0.63614 0.64234 0.0
H2670 H 0.5026 0.62184 0.71743 0.0
C2671 C 0.55023 0.63429 0.63025 0.0
C2672 C 0.54516 0.59604 0.65533 0.0
C2673 C 0.60853 0.6395 0.60419 0.0
C2674 C 0.63275 0.65716 0.5849 0.0
C2675 C 0.62782 0.63244 0.59987 0.0
C2676 C 0.61329 0.6289 0.60813 0.0
C2677 C 0.6376 0.6466 0.58826 0.0
C2678 C 0.61823 0.65346 0.59251 0.0
C2679 C 0.59331 0.63651 0.60929 0.0
H2680 H 0.45325 0.55175 0.55707 0.0
H2681 H 0.4796 0.57038 0.56687 0.0
H2682 H 0.43618 0.53594 0.59367 0.0
H2683 H 0.4723 0.5578 0.65332 0.0
H2684 H 0.63158 0.62433 0.60295 0.0
H2685 H 0.60595 0.61807 0.61745 0.0
H2686 H 0.64908 0.64954 0.58313 0.0
H2687 H 0.61458 0.66174 0.58991 0.0
C2688 C 0.44391 0.99155 0.5919 0.0
C2689 C 0.44936 0.99482 0.5428 0.0
C2690 C 0.44127 0.98551 0.56535 0.0
C2691 C 0.45976 1.01018 0.54719 0.0
C2692 C 0.45453 1.00697 0.59635 0.0
C2693 C 0.46244 0.01621 0.57388 0.0
N2694 N 0.43608 0.9824 0.61336 0.0
C2695 C 0.43741 0.98824 0.63922 0.0
C2696 C 0.45667 0.01274 0.62323 0.0
C2697 C 0.44794 1.00335 0.64472 0.0
Gd2698 Gd 0.42942 0.92676 0.61398 0.0
Gd2699 Gd 0.41794 0.95751 0.60196 0.0
N2700 N 0.43093 0.97058 0.5616 0.0
C2701 C 0.44673 0.98844 0.51642 0.0
C2702 C 0.42816 0.96446 0.53574 0.0
C2703 C 0.43611 0.9732 0.51291 0.0
H2704 H 0.41977 0.95296 0.53227 0.0
H2705 H 0.43388 0.96818 0.49252 0.0
H2706 H 0.43074 0.92742 0.68292 0.0
H2707 H 0.42995 0.98144 0.6555 0.0
H2708 H 0.41849 0.90972 0.72178 0.0
H2709 H 0.45278 0.9952 0.49863 0.0
H2710 H 0.46576 0.01754 0.53 0.0
H2711 H 0.42256 0.90432 0.55776 0.0
H2712 H 0.46472 0.0245 0.62747 0.0
H2713 H 0.44904 1.00781 0.6654 0.0
H2714 H 0.38456 0.86258 0.67786 0.0
H2715 H 0.47055 0.02809 0.57688 0.0
H2716 H 0.38838 0.85953 0.57992 0.0
H2717 H 0.40525 0.87773 0.54484 0.0
N2718 N 0.41431 0.90159 0.59902 0.0
C2719 C 0.40587 0.89155 0.61909 0.0
C2720 C 0.41477 0.89662 0.57299 0.0
C2721 C 0.39564 0.87128 0.58555 0.0
C2722 C 0.40515 0.88152 0.56568 0.0
C2723 C 0.39626 0.87612 0.61282 0.0
H2724 H 0.38061 0.85402 0.62957 0.0
N2725 N 0.41778 0.91119 0.65217 0.0
C2726 C 0.40793 0.8964 0.64646 0.0
C2727 C 0.40433 0.89088 0.69537 0.0
C2728 C 0.40068 0.88591 0.668 0.0
C2729 C 0.42211 0.9159 0.67874 0.0
C2730 C 0.41528 0.90588 0.70073 0.0
O2731 O 0.44242 0.96293 0.60073 0.0
O2732 O 0.44117 0.94286 0.5784 0.0
O2733 O 0.45337 0.9353 0.625 0.0
O2734 O 0.43909 0.91192 0.61556 0.0
O2735 O 0.40508 0.93857 0.57043 0.0
O2736 O 0.41648 0.92365 0.57084 0.0
O2737 O 0.40929 0.92467 0.63868 0.0
O2738 O 0.39814 0.93377 0.60963 0.0
O2739 O 0.40612 0.96739 0.58132 0.0
O2740 O 0.40564 0.96548 0.62681 0.0
O2741 O 0.43985 0.94743 0.645 0.0
O2742 O 0.42164 0.95427 0.64729 0.0
C2743 C 0.44819 0.9575 0.58294 0.0
C2744 C 0.40674 0.92755 0.55967 0.0
C2745 C 0.46556 0.92052 0.61523 0.0
C2746 C 0.48681 0.91585 0.62535 0.0
C2747 C 0.47986 0.91776 0.57787 0.0
C2748 C 0.4683 0.92022 0.58696 0.0
C2749 C 0.48902 0.91567 0.59673 0.0
C2750 C 0.47482 0.91815 0.63457 0.0
C2751 C 0.45233 0.92205 0.62425 0.0
C2752 C 0.39044 0.87074 0.66161 0.0
C2753 C 0.38817 0.86587 0.63408 0.0
H2754 H 0.39907 0.88314 0.71246 0.0
C2755 C 0.39699 0.92393 0.6284 0.0
C2756 C 0.43401 0.95508 0.65739 0.0
C2757 C 0.39316 0.97779 0.6065 0.0
C2758 C 0.37268 0.98058 0.58839 0.0
C2759 C 0.39045 0.99895 0.62113 0.0
C2760 C 0.39809 0.99085 0.62254 0.0
C2761 C 0.37784 0.99391 0.60402 0.0
C2762 C 0.38046 0.97261 0.58963 0.0
C2763 C 0.40213 0.97046 0.60487 0.0
H2764 H 0.48174 0.91742 0.55594 0.0
H2765 H 0.46131 0.92168 0.57184 0.0
H2766 H 0.49786 0.91377 0.58883 0.0
H2767 H 0.47274 0.91817 0.65651 0.0
H2768 H 0.39427 1.00911 0.63331 0.0
H2769 H 0.40806 0.99498 0.63543 0.0
H2770 H 0.37182 1.00014 0.60374 0.0
H2771 H 0.37661 0.96238 0.57754 0.0
C2772 C 0.19592 0.46581 0.29056 0.0
C2773 C 0.20553 0.46407 0.33558 0.0
C2774 C 0.19817 0.45731 0.31056 0.0
C2775 C 0.21035 0.47937 0.34048 0.0
C2776 C 0.20101 0.48126 0.29532 0.0
C2777 C 0.20807 0.48792 0.32045 0.0
N2778 N 0.18925 0.45916 0.26616 0.0
C2779 C 0.18819 0.46753 0.24523 0.0
C2780 C 0.19915 0.48967 0.27442 0.0
C2781 C 0.19285 0.48281 0.24919 0.0
Gd2782 Gd 0.1404 0.40176 0.27324 0.0
Gd2783 Gd 0.18256 0.43368 0.26169 0.0
N2784 N 0.19302 0.44236 0.30564 0.0
C2785 C 0.20793 0.45528 0.35489 0.0
C2786 C 0.19618 0.43402 0.32367 0.0
C2787 C 0.20338 0.44024 0.34876 0.0
H2788 H 0.19345 0.42268 0.31868 0.0
H2789 H 0.20563 0.43349 0.36316 0.0
H2790 H 0.12066 0.41349 0.23274 0.0
H2791 H 0.18433 0.46264 0.22509 0.0
H2792 H 0.1058 0.40538 0.19009 0.0
H2793 H 0.21356 0.46007 0.37432 0.0
H2794 H 0.21597 0.48473 0.35962 0.0
H2795 H 0.14414 0.37268 0.29277 0.0
H2796 H 0.20293 0.50157 0.2773 0.0
H2797 H 0.19186 0.48935 0.23257 0.0
H2798 H 0.10173 0.35764 0.16872 0.0
H2799 H 0.21202 0.49977 0.32444 0.0
H2800 H 0.12407 0.33804 0.2313 0.0
H2801 H 0.13805 0.34749 0.2753 0.0
N2802 N 0.13499 0.37785 0.25794 0.0
C2803 C 0.1263 0.37248 0.23492 0.0
C2804 C 0.1386 0.36885 0.2731 0.0
C2805 C 0.12696 0.34919 0.23871 0.0
C2806 C 0.13492 0.3545 0.26347 0.0
C2807 C 0.12233 0.35809 0.22433 0.0
H2808 H 0.11058 0.34196 0.19157 0.0
N2809 N 0.12494 0.39504 0.2335 0.0
C2810 C 0.12128 0.38137 0.22219 0.0
C2811 C 0.10692 0.38496 0.18632 0.0
C2812 C 0.11218 0.37599 0.19831 0.0
C2813 C 0.11901 0.40334 0.22276 0.0
C2814 C 0.11022 0.3986 0.19876 0.0
O2815 O 0.16996 0.43447 0.30353 0.0
O2816 O 0.14472 0.42367 0.29322 0.0
O2817 O 0.11692 0.38793 0.28327 0.0
O2818 O 0.13366 0.39337 0.31526 0.0
O2819 O 0.17894 0.41076 0.27285 0.0
O2820 O 0.1588 0.4033 0.3013 0.0
O2821 O 0.15461 0.39671 0.2434 0.0
O2822 O 0.17018 0.41915 0.22221 0.0
O2823 O 0.20184 0.42982 0.25641 0.0
O2824 O 0.2033 0.45004 0.24062 0.0
O2825 O 0.1435 0.42436 0.25709 0.0
O2826 O 0.16615 0.43607 0.23298 0.0
C2827 C 0.15607 0.43212 0.30988 0.0
C2828 C 0.17023 0.40204 0.29257 0.0
C2829 C 0.1099 0.3903 0.32851 0.0
C2830 C 0.08752 0.39243 0.33538 0.0
C2831 C 0.10208 0.39255 0.37488 0.0
C2832 C 0.11214 0.39106 0.35724 0.0
C2833 C 0.08961 0.39302 0.36402 0.0
C2834 C 0.0977 0.39127 0.31789 0.0
C2835 C 0.11934 0.38731 0.30951 0.0
C2836 C 0.10856 0.36185 0.18721 0.0
C2837 C 0.11362 0.35292 0.20018 0.0
H2838 H 0.10002 0.38129 0.16784 0.0
C2839 C 0.161 0.40418 0.22069 0.0
C2840 C 0.15295 0.43474 0.23942 0.0
C2841 C 0.22048 0.44304 0.22068 0.0
C2842 C 0.24534 0.44787 0.20236 0.0
C2843 C 0.22468 0.44318 0.17121 0.0
C2844 C 0.21526 0.44149 0.19344 0.0
C2845 C 0.2395 0.44637 0.17558 0.0
C2846 C 0.23568 0.44618 0.22513 0.0
C2847 C 0.21044 0.44258 0.24389 0.0
H2848 H 0.10375 0.393 0.39701 0.0
H2849 H 0.12146 0.39024 0.36601 0.0
H2850 H 0.08158 0.39365 0.37779 0.0
H2851 H 0.09558 0.39043 0.29582 0.0
H2852 H 0.22049 0.44213 0.15032 0.0
H2853 H 0.20389 0.43923 0.1893 0.0
H2854 H 0.24652 0.4477 0.1578 0.0
H2855 H 0.24 0.44755 0.24599 0.0
C2856 C 0.56592 0.74045 0.2892 0.0
C2857 C 0.5689 0.75096 0.3353 0.0
C2858 C 0.57517 0.75013 0.30981 0.0
C2859 C 0.55334 0.74174 0.33997 0.0
C2860 C 0.55017 0.7317 0.29343 0.0
C2861 C 0.54399 0.73217 0.31906 0.0
N2862 N 0.57217 0.7402 0.26455 0.0
C2863 C 0.56317 0.73267 0.24259 0.0
C2864 C 0.54101 0.72309 0.27146 0.0
C2865 C 0.54752 0.72379 0.24578 0.0
Gd2866 Gd 0.63045 0.74492 0.27266 0.0
Gd2867 Gd 0.5985 0.75562 0.26101 0.0
N2868 N 0.59025 0.75893 0.30474 0.0
C2869 C 0.57841 0.76127 0.35517 0.0
C2870 C 0.5993 0.76972 0.3234 0.0
C2871 C 0.59362 0.77084 0.34901 0.0
H2872 H 0.6108 0.77778 0.31865 0.0
H2873 H 0.60096 0.77927 0.36382 0.0
H2874 H 0.61785 0.71853 0.21922 0.0
H2875 H 0.56804 0.73371 0.22235 0.0
H2876 H 0.62666 0.71591 0.17417 0.0
H2877 H 0.57403 0.76225 0.37497 0.0
H2878 H 0.54837 0.74218 0.35947 0.0
H2879 H 0.6591 0.77587 0.29924 0.0
H2880 H 0.52887 0.71628 0.27385 0.0
H2881 H 0.54049 0.71766 0.22835 0.0
H2882 H 0.67652 0.75848 0.16662 0.0
H2883 H 0.53194 0.72543 0.32272 0.0
H2884 H 0.69559 0.79394 0.24123 0.0
H2885 H 0.68493 0.79558 0.28616 0.0
N2886 N 0.6549 0.76394 0.26141 0.0
C2887 C 0.6608 0.76227 0.2374 0.0
C2888 C 0.66352 0.77537 0.27928 0.0
C2889 C 0.68422 0.78535 0.24682 0.0
C2890 C 0.67821 0.78638 0.27211 0.0
C2891 C 0.67556 0.77315 0.22919 0.0
H2892 H 0.69242 0.77991 0.19696 0.0
N2893 N 0.63752 0.7396 0.229 0.0
C2894 C 0.6518 0.74994 0.22053 0.0
C2895 C 0.64819 0.73625 0.17783 0.0
C2896 C 0.65745 0.74851 0.19474 0.0
C2897 C 0.62874 0.72731 0.21276 0.0
C2898 C 0.63383 0.72558 0.18696 0.0
O2899 O 0.5954 0.74054 0.30143 0.0
O2900 O 0.60946 0.72847 0.29666 0.0
O2901 O 0.64303 0.73344 0.2792 0.0
O2902 O 0.64074 0.74627 0.31274 0.0
O2903 O 0.62147 0.77469 0.27276 0.0
O2904 O 0.62826 0.76136 0.30112 0.0
O2905 O 0.63591 0.76491 0.24478 0.0
O2906 O 0.61368 0.75728 0.22291 0.0
O2907 O 0.59702 0.77698 0.25915 0.0
O2908 O 0.58862 0.7604 0.22627 0.0
O2909 O 0.60823 0.72476 0.25649 0.0
O2910 O 0.59195 0.73309 0.24052 0.0
C2911 C 0.59925 0.73033 0.31019 0.0
C2912 C 0.63003 0.77432 0.29248 0.0
C2913 C 0.64394 0.72555 0.32458 0.0
C2914 C 0.6386 0.69964 0.33013 0.0
C2915 C 0.65322 0.71871 0.36488 0.0
C2916 C 0.65216 0.72964 0.34928 0.0
C2917 C 0.64688 0.70389 0.35503 0.0
C2918 C 0.63614 0.71037 0.31651 0.0
C2919 C 0.64573 0.73733 0.30513 0.0
C2920 C 0.67209 0.7594 0.18642 0.0
C2921 C 0.68115 0.77162 0.20366 0.0
H2922 H 0.65206 0.73484 0.15779 0.0
C2923 C 0.6287 0.76404 0.22196 0.0
C2924 C 0.59574 0.72248 0.24351 0.0
C2925 C 0.58363 0.78098 0.21858 0.0
C2926 C 0.57875 0.80193 0.20672 0.0
C2927 C 0.56768 0.77889 0.17932 0.0
C2928 C 0.57438 0.77284 0.19606 0.0
C2929 C 0.56982 0.79319 0.18454 0.0
C2930 C 0.58588 0.79582 0.22389 0.0
C2931 C 0.59012 0.77303 0.2354 0.0
H2932 H 0.6598 0.72194 0.38372 0.0
H2933 H 0.65824 0.74134 0.35588 0.0
H2934 H 0.64925 0.69613 0.36619 0.0
H2935 H 0.62923 0.70726 0.29808 0.0
H2936 H 0.56066 0.77236 0.16215 0.0
H2937 H 0.57217 0.76156 0.19118 0.0
H2938 H 0.56435 0.79748 0.17105 0.0
H2939 H 0.59281 0.80236 0.24115 0.0
C2940 C 0.29547 0.83619 0.29068 0.0
C2941 C 0.28421 0.82607 0.33558 0.0
C2942 C 0.28465 0.83358 0.31083 0.0
C2943 C 0.29491 0.82152 0.34013 0.0
C2944 C 0.30601 0.8313 0.29506 0.0
C2945 C 0.30579 0.82414 0.31998 0.0
N2946 N 0.29524 0.84281 0.26636 0.0
C2947 C 0.30455 0.84394 0.24514 0.0
C2948 C 0.31622 0.83334 0.27395 0.0
C2949 C 0.31538 0.83955 0.24879 0.0
Gd2950 Gd 0.2864 0.89096 0.27358 0.0
Gd2951 Gd 0.27604 0.84899 0.26259 0.0
N2952 N 0.27452 0.83834 0.30618 0.0
C2953 C 0.27283 0.82312 0.35484 0.0
C2954 C 0.26287 0.83465 0.32413 0.0
C2955 C 0.26202 0.82727 0.34893 0.0
H2956 H 0.25405 0.83711 0.31929 0.0
H2957 H 0.25289 0.82458 0.36328 0.0
H2958 H 0.31742 0.90854 0.23045 0.0
H2959 H 0.30328 0.84766 0.225 0.0
H2960 H 0.32336 0.92094 0.1854 0.0
H2961 H 0.27208 0.81732 0.37402 0.0
H2962 H 0.29474 0.81576 0.35904 0.0
H2963 H 0.25435 0.8887 0.29288 0.0
H2964 H 0.32447 0.82972 0.27654 0.0
H2965 H 0.32284 0.84063 0.23198 0.0
H2966 H 0.28113 0.92743 0.16505 0.0
H2967 H 0.31381 0.82032 0.32366 0.0
H2968 H 0.24098 0.90972 0.23117 0.0
H2969 H 0.23616 0.89612 0.27566 0.0
N2970 N 0.26849 0.89698 0.25768 0.0
C2971 C 0.27178 0.90507 0.23393 0.0
C2972 C 0.2562 0.89418 0.27311 0.0
C2973 C 0.24884 0.90631 0.23853 0.0
C2974 C 0.24604 0.89856 0.26357 0.0
C2975 C 0.26192 0.9098 0.22353 0.0
H2976 H 0.25805 0.92177 0.19063 0.0
N2977 N 0.2949 0.90485 0.23181 0.0
C2978 C 0.28512 0.9087 0.22017 0.0
C2979 C 0.30223 0.92066 0.18195 0.0
C2980 C 0.28858 0.91678 0.19505 0.0
C2981 C 0.30881 0.90986 0.22019 0.0
C2982 C 0.31247 0.91737 0.19477 0.0
O2983 O 0.28888 0.86147 0.3049 0.0
O2984 O 0.30382 0.88659 0.29436 0.0
O2985 O 0.29663 0.91471 0.28202 0.0
O2986 O 0.28482 0.89862 0.31477 0.0
O2987 O 0.25676 0.85223 0.27579 0.0
O2988 O 0.26946 0.8732 0.30263 0.0
O2989 O 0.26646 0.87613 0.24572 0.0
O2990 O 0.27368 0.86131 0.22312 0.0
O2991 O 0.25285 0.83029 0.25372 0.0
O2992 O 0.27192 0.82765 0.24501 0.0
O2993 O 0.30582 0.88746 0.25901 0.0
O2994 O 0.29461 0.86538 0.23353 0.0
C2995 C 0.30079 0.87518 0.31096 0.0
C2996 C 0.25682 0.86127 0.295 0.0
C2997 C 0.30577 0.92229 0.32728 0.0
C2998 C 0.33018 0.94474 0.33408 0.0
C2999 C 0.31584 0.93014 0.37363 0.0
C3000 C 0.30432 0.92003 0.35601 0.0
C3001 C 0.32872 0.94265 0.36273 0.0
C3002 C 0.31883 0.93457 0.31663 0.0
C3003 C 0.2934 0.9128 0.30827 0.0
C3004 C 0.27859 0.92117 0.18424 0.0
C3005 C 0.26543 0.91791 0.1987 0.0
H3006 H 0.30523 0.92671 0.16249 0.0
C3007 C 0.26734 0.87003 0.22249 0.0
C3008 C 0.30667 0.87821 0.24079 0.0
C3009 C 0.24907 0.81012 0.22187 0.0
C3010 C 0.22875 0.78523 0.2045 0.0
C3011 C 0.24985 0.80198 0.17495 0.0
C3012 C 0.25609 0.81274 0.19593 0.0
C3013 C 0.23639 0.78844 0.17914 0.0
C3014 C 0.23524 0.79617 0.22615 0.0
C3015 C 0.25728 0.82106 0.24497 0.0
H3016 H 0.31464 0.92845 0.39575 0.0
H3017 H 0.29424 0.91066 0.36481 0.0
H3018 H 0.33738 0.95067 0.37647 0.0
H3019 H 0.32003 0.93672 0.29456 0.0
H3020 H 0.25558 0.80411 0.15526 0.0
H3021 H 0.26668 0.82303 0.19204 0.0
H3022 H 0.23191 0.78032 0.16238 0.0
H3023 H 0.22973 0.79379 0.2461 0.0
H3024 H 0.23533 0.09952 0.02608 0.0
H3025 H 0.23123 0.07619 1.00319 0.0
H3026 H 0.26255 0.0737 0.05943 0.0
H3027 H 0.26663 0.09692 0.08217 0.0
H3028 H 0.26464 0.06504 1.00225 0.0
H3029 H 0.20606 0.0342 0.0433 0.0
H3030 H 0.21164 0.05176 0.02576 0.0
H3031 H 0.22048 0.05186 0.05782 0.0
C3032 C 0.24183 0.09437 0.03283 0.0
C3033 C 0.25166 0.10049 0.05561 0.0
C3034 C 0.23926 0.08079 0.02003 0.0
C3035 C 0.24639 0.07284 0.02967 0.0
C3036 C 0.25687 0.07944 0.05135 0.0
H3037 H 0.2162 0.97576 1.01185 0.0
H3038 H 0.22231 1.00104 0.02741 0.0
C3039 C 0.25937 0.09292 0.06418 0.0
C3040 C 0.24239 0.05736 0.01847 0.0
H3041 H 0.21371 0.02035 1.01545 0.0
C3042 C 0.25346 0.05531 1.00499 0.0
C3043 C 0.22794 0.0444 0.02248 0.0
C3044 C 0.21581 0.0455 0.03829 0.0
C3045 C 0.25048 0.04093 0.99526 0.0
C3046 C 0.23586 0.02799 0.99852 0.0
C3047 C 0.22487 0.03007 1.01239 0.0
C3048 C 0.23185 1.01224 0.98851 0.0
C3049 C 0.26332 0.03976 0.98243 0.0
C3050 C 0.23478 1.00957 0.96118 0.0
C3051 C 0.23128 0.99499 0.95226 0.0
C3052 C 0.2244 0.98241 0.97012 0.0
C3053 C 0.22123 0.985 0.99727 0.0
C3054 C 0.22483 0.9996 1.00627 0.0
H3055 H 0.27447 0.04912 0.98931 0.0
H3056 H 0.26267 0.02886 0.98766 0.0
H3057 H 0.2628 0.04054 0.95964 0.0
H3058 H 0.23967 0.01877 0.94646 0.0
H3059 H 0.23377 0.99352 0.93111 0.0
H3060 H 0.05537 0.23846 1.00581 0.0
H3061 H 0.03044 0.21871 0.02051 0.0
H3062 H 1.01011 0.23471 0.96128 0.0
H3063 H 0.03522 0.25336 0.94449 0.0
H3064 H 1.00865 0.21718 0.04477 0.0
H3065 H 0.98383 0.19251 0.94343 0.0
H3066 H 1.00356 0.20628 0.94716 0.0
H3067 H 0.98963 0.21219 0.94449 0.0
C3068 C 0.04568 0.23742 0.99507 0.0
C3069 C 0.04764 0.24728 0.97306 0.0
C3070 C 0.03119 0.22618 1.00393 0.0
C3071 C 1.0179 0.22453 0.99169 0.0
C3072 C 0.01984 0.23492 0.97053 0.0
H3073 H 0.92119 0.16916 0.04166 0.0
H3074 H 0.94522 0.18766 0.01964 0.0
C3075 C 0.03439 0.2459 0.96114 0.0
C3076 C 1.00228 0.21245 1.00194 0.0
H3077 H 0.96665 0.18504 0.98129 0.0
C3078 C 0.99961 0.21014 0.03064 0.0
C3079 C 0.99007 0.20294 0.98407 0.0
C3080 C 0.99195 0.20348 0.95311 0.0
C3081 C 0.9855 0.19905 0.04168 0.0
C3082 C 0.97329 0.18979 0.02385 0.0
C3083 C 0.97581 0.1921 0.9952 0.0
C3084 C 0.95806 0.17754 0.03476 0.0
C3085 C 0.98369 0.19749 0.07263 0.0
C3086 C 0.95683 0.16519 0.04996 0.0
C3087 C 0.94306 0.15455 0.0624 0.0
C3088 C 0.9299 0.15569 0.05985 0.0
C3089 C 0.93092 0.16764 0.04361 0.0
C3090 C 0.94476 0.17835 0.03116 0.0
H3091 H 0.99281 0.20743 0.08356 0.0
H3092 H 0.97261 0.19603 0.07906 0.0
H3093 H 0.98414 0.18732 0.07929 0.0
H3094 H 0.96668 0.16397 0.05285 0.0
H3095 H 0.94283 0.14566 0.07497 0.0
H3096 H 0.7923 0.80651 0.93163 0.0
H3097 H 0.81195 0.80107 0.94793 0.0
H3098 H 0.80008 0.80393 0.03215 0.0
H3099 H 0.78079 0.80991 1.01586 0.0
H3100 H 0.83811 0.8198 0.99284 0.0
H3101 H 0.79717 0.75983 1.01782 0.0
H3102 H 0.793 0.77041 0.99284 0.0
H3103 H 0.79272 0.77402 0.029 0.0
C3104 C 0.79387 0.80597 0.95364 0.0
C3105 C 0.7848 0.80853 0.97237 0.0
C3106 C 0.8052 0.80292 0.96299 0.0
C3107 C 0.8076 0.80192 0.9914 0.0
C3108 C 0.79858 0.80456 1.01015 0.0
H3109 H 0.85679 0.77024 0.09302 0.0
H3110 H 0.83918 0.77614 0.07041 0.0
C3111 C 0.7875 0.808 1.00079 0.0
C3112 C 0.81921 0.79782 1.00141 0.0
H3113 H 0.82261 0.76875 0.0294 0.0
C3114 C 0.83473 0.80862 1.00077 0.0
C3115 C 0.81499 0.78327 1.01187 0.0
C3116 C 0.79859 0.7711 1.0129 0.0
C3117 C 0.84595 0.80547 1.011 0.0
C3118 C 0.84177 0.79083 0.02152 0.0
C3119 C 0.82617 0.77999 0.02156 0.0
C3120 C 0.85302 0.78675 0.03441 0.0
C3121 C 0.86211 0.81821 1.01148 0.0
C3122 C 0.86693 0.79012 0.02191 0.0
C3123 C 0.87742 0.78694 0.0354 0.0
C3124 C 0.87433 0.78009 0.06176 0.0
C3125 C 0.86001 0.77588 0.0732 0.0
C3126 C 0.8497 0.7792 0.06 0.0
H3127 H 0.86283 0.82943 1.01056 0.0
H3128 H 0.86803 0.8178 0.03039 0.0
H3129 H 0.86812 0.81727 0.99317 0.0
H3130 H 0.86981 0.79534 1.00173 0.0
H3131 H 0.88817 0.79032 0.02556 0.0
H3132 H 0.98147 0.20035 0.52921 0.0
H3133 H 1.00652 0.20583 0.51359 0.0
H3134 H 0.02719 0.24159 0.57375 0.0
H3135 H 1.00226 0.23541 0.59077 0.0
H3136 H 0.02972 0.22831 0.49038 0.0
H3137 H 0.05055 0.22163 0.59167 0.0
H3138 H 0.03111 0.21648 0.5863 0.0
H3139 H 0.04524 0.23589 0.59283 0.0
C3140 C 0.99132 0.20918 0.53959 0.0
C3141 C 0.9896 0.21711 0.5619 0.0
C3142 C 1.00577 0.21244 0.53036 0.0
C3143 C 0.01908 0.22389 0.54286 0.0
C3144 C 1.01735 0.2323 0.56424 0.0
H3145 H 0.11698 0.25711 0.52068 0.0
H3146 H 0.09254 0.25538 0.53106 0.0
C3147 C 1.00292 0.22888 0.57375 0.0
C3148 C 0.03464 0.22719 0.53326 0.0
H3149 H 0.06888 0.23261 0.55608 0.0
C3150 C 0.03821 0.22917 0.50487 0.0
C3151 C 0.046 0.22836 0.55177 0.0
C3152 C 0.04299 0.22532 0.58228 0.0
C3153 C 0.0526 0.23252 0.49471 0.0
C3154 C 0.06399 0.23382 0.51327 0.0
C3155 C 0.06042 0.23187 0.54163 0.0
C3156 C 0.07932 0.23642 0.50388 0.0
C3157 C 0.05548 0.23495 0.46408 0.0
C3158 C 0.08046 0.2267 0.48455 0.0
C3159 C 0.09448 0.22786 0.47834 0.0
C3160 C 0.10796 0.23875 0.4912 0.0
C3161 C 0.10699 0.24889 0.50971 0.0
C3162 C 0.0929 0.24773 0.51596 0.0
H3163 H 0.04806 0.2387 0.45431 0.0
H3164 H 0.06743 0.24347 0.45966 0.0
H3165 H 0.05293 0.2241 0.45428 0.0
H3166 H 0.07036 0.21759 0.47531 0.0
H3167 H 0.09467 0.21956 0.46465 0.0
H3168 H 0.8055 0.87746 0.45962 0.0
H3169 H 0.80772 0.85508 0.46989 0.0
H3170 H 0.77976 0.84633 0.5419 0.0
H3171 H 0.77731 0.86845 0.53119 0.0
H3172 H 0.82121 0.8509 0.51247 0.0
H3173 H 0.76221 0.80393 0.5161 0.0
H3174 H 0.76715 0.82213 0.50176 0.0
H3175 H 0.76513 0.81911 0.53856 0.0
C3176 C 0.79914 0.87028 0.47678 0.0
C3177 C 0.79067 0.87452 0.49385 0.0
C3178 C 0.80066 0.85757 0.48303 0.0
C3179 C 0.79382 0.84863 0.50666 0.0
C3180 C 0.78486 0.85253 0.52311 0.0
H3181 H 0.80014 0.77736 0.59829 0.0
H3182 H 0.79465 0.79672 0.58131 0.0
C3183 C 0.78333 0.86522 0.51681 0.0
C3184 C 0.79713 0.83622 0.51535 0.0
H3185 H 0.78067 0.79924 0.53693 0.0
C3186 C 0.81228 0.83957 0.5175 0.0
C3187 C 0.78566 0.8213 0.52229 0.0
C3188 C 0.76913 0.81635 0.51931 0.0
C3189 C 0.81621 0.82881 0.52688 0.0
C3190 C 0.80472 0.81392 0.53397 0.0
C3191 C 0.78959 0.81054 0.53168 0.0
C3192 C 0.8081 0.80182 0.54414 0.0
C3193 C 0.83273 0.83375 0.53004 0.0
C3194 C 0.81728 0.79769 0.52894 0.0
C3195 C 0.82046 0.78653 0.53872 0.0
C3196 C 0.81457 0.77905 0.56406 0.0
C3197 C 0.80501 0.78285 0.57882 0.0
C3198 C 0.80185 0.79402 0.56906 0.0
H3199 H 0.83979 0.84624 0.5319 0.0
H3200 H 0.83472 0.82851 0.54848 0.0
H3201 H 0.8366 0.83024 0.5115 0.0
H3202 H 0.82193 0.803 0.50925 0.0
H3203 H 0.82757 0.78374 0.52634 0.0
H3204 H 0.17343 0.91488 0.50771 0.0
H3205 H 0.19455 0.94063 0.51593 0.0
H3206 H 0.16554 0.95875 0.49699 0.0
H3207 H 0.1444 0.93297 0.48867 0.0
H3208 H 0.20452 0.9736 0.4762 0.0
H3209 H 0.18624 0.96753 0.58602 0.0
H3210 H 0.18416 0.95147 0.56666 0.0
H3211 H 0.17235 0.95932 0.55882 0.0
C3212 C 0.17169 0.92438 0.50421 0.0
C3213 C 0.15722 0.92174 0.49668 0.0
C3214 C 0.18379 0.93916 0.5092 0.0
C3215 C 0.18181 0.95183 0.50715 0.0
C3216 C 0.16753 0.9493 0.49858 0.0
H3217 H 0.24421 0.05038 0.52887 0.0
H3218 H 0.22484 0.02535 0.51268 0.0
C3219 C 0.15543 0.9345 0.49352 0.0
C3220 C 0.19413 0.96739 0.51626 0.0
H3221 H 0.2073 0.99063 0.57307 0.0
C3222 C 0.20508 0.97732 0.49736 0.0
C3223 C 0.19517 0.97237 0.54394 0.0
C3224 C 0.18392 0.96221 0.56525 0.0
C3225 C 0.21682 0.99193 0.50531 0.0
C3226 C 0.21767 0.99707 0.53295 0.0
C3227 C 0.2068 0.98699 0.55187 0.0
C3228 C 0.22973 1.01268 0.54276 0.0
C3229 C 0.2285 1.00157 0.48411 0.0
C3230 C 0.23897 0.01435 0.56565 0.0
C3231 C 0.24993 0.02878 0.57537 0.0
C3232 C 0.25201 0.04217 0.56276 0.0
C3233 C 0.24288 0.0405 0.53964 0.0
C3234 C 0.23186 0.02605 0.52999 0.0
H3235 H 0.22889 0.99467 0.46671 0.0
H3236 H 0.22561 1.00988 0.47549 0.0
H3237 H 0.23993 1.00791 0.49351 0.0
H3238 H 0.23774 1.00442 0.57611 0.0
H3239 H 0.25665 0.02942 0.59316 0.0
H3240 H 0.79722 0.02977 0.09566 0.0
H3241 H 0.79109 1.0045 0.07965 0.0
H3242 H 0.82213 0.02454 1.01182 0.0
H3243 H 0.82789 0.04967 0.02732 0.0
H3244 H 0.77879 0.98851 0.03283 0.0
H3245 H 0.83643 0.99686 0.04148 0.0
H3246 H 0.83134 1.00994 0.05625 0.0
H3247 H 0.83563 1.01077 0.02003 0.0
C3248 C 0.80281 0.02886 0.07735 0.0
C3249 C 0.8135 0.04206 0.06338 0.0
C3250 C 0.79928 0.01428 0.06816 0.0
C3251 C 0.80639 1.0123 0.04478 0.0
C3252 C 0.81677 0.02547 0.03043 0.0
H3253 H 0.77478 0.93078 0.94334 0.0
H3254 H 0.77974 0.95418 0.96578 0.0
C3255 C 0.82016 0.04001 0.03946 0.0
C3256 C 0.80264 0.99658 0.035 0.0
H3257 H 0.8184 0.97476 1.01726 0.0
C3258 C 0.7875 0.98556 0.0296 0.0
C3259 C 0.8138 0.99229 0.031 0.0
C3260 C 0.83019 1.00301 0.03774 0.0
C3261 C 0.78334 0.97087 0.01973 0.0
C3262 C 0.79456 0.96677 1.01456 0.0
C3263 C 0.80966 0.97764 0.02081 0.0
C3264 C 0.79093 0.95166 1.0016 0.0
C3265 C 0.76678 0.95979 1.0153 0.0
C3266 C 0.79556 0.94198 1.01364 0.0
C3267 C 0.79274 0.92833 1.00051 0.0
C3268 C 0.78537 0.92398 0.97466 0.0
C3269 C 0.78048 0.93355 0.96314 0.0
C3270 C 0.78325 0.94706 0.97618 0.0
H3271 H 0.75959 0.96254 0.02852 0.0
H3272 H 0.76383 0.9604 0.99346 0.0
H3273 H 0.76405 0.94803 0.01978 0.0
H3274 H 0.80155 0.94506 0.03314 0.0
H3275 H 0.7969 0.92152 1.01006 0.0
H3276 H 0.11213 0.87934 1.01433 0.0
H3277 H 0.08882 0.85992 0.03715 0.0
H3278 H 0.07377 0.83579 0.96016 0.0
H3279 H 0.09705 0.85424 0.93817 0.0
H3280 H 0.05983 0.85078 0.03223 0.0
H3281 H 0.06386 0.80048 1.00536 0.0
H3282 H 0.07942 0.81931 0.99973 0.0
H3283 H 0.06443 0.81044 0.97459 0.0
C3284 C 0.10405 0.86969 1.00243 0.0
C3285 C 0.10677 0.86866 0.97408 0.0
C3286 C 0.09051 0.85856 1.0155 0.0
C3287 C 0.07923 0.84593 1.00081 0.0
C3288 C 0.08213 0.84491 0.97268 0.0
H3289 H 0.98208 0.78279 0.02522 0.0
H3290 H 1.00726 0.80243 1.01001 0.0
C3291 C 0.09559 0.85581 0.95983 0.0
C3292 C 0.06429 0.83413 1.01405 0.0
H3293 H 0.03912 0.79579 1.01798 0.0
C3294 C 0.05549 0.83878 0.02923 0.0
C3295 C 0.05822 0.81822 1.0108 0.0
C3296 C 0.06707 0.81183 0.997 0.0
C3297 C 0.04097 0.82828 0.03998 0.0
C3298 C 0.03476 0.81253 0.0356 0.0
C3299 C 0.04363 0.80781 0.02118 0.0
C3300 C 0.0191 0.80083 0.04569 0.0
C3301 C 0.03219 0.83402 0.05594 0.0
C3302 C 1.017 0.79312 0.07091 0.0
C3303 C 1.00243 0.78197 0.07992 0.0
C3304 C 0.9894 0.77809 0.06399 0.0
C3305 C 0.9916 0.7857 0.03858 0.0
C3306 C 1.00613 0.79691 0.02967 0.0
H3307 H 0.03864 0.84649 0.05866 0.0
H3308 H 0.02146 0.83086 0.04501 0.0
H3309 H 0.02919 0.82858 0.07661 0.0
H3310 H 0.02668 0.79574 0.08376 0.0
H3311 H 1.00137 0.77646 0.09957 0.0
H3312 H 0.24241 0.19791 0.02814 0.0
H3313 H 0.22338 0.204 1.01128 0.0
H3314 H 0.23549 0.2369 0.07618 0.0
H3315 H 0.2539 0.23032 0.09388 0.0
H3316 H 0.19743 0.20356 0.04265 0.0
H3317 H 0.23856 0.26054 1.00261 0.0
H3318 H 0.24344 0.24597 1.00788 0.0
H3319 H 0.24191 0.25605 0.0369 0.0
C3320 C 0.24079 0.20614 0.03929 0.0
C3321 C 0.2496 0.21325 0.0629 0.0
C3322 C 0.22997 0.2098 0.02937 0.0
C3323 C 0.22787 0.22103 0.04224 0.0
C3324 C 0.23681 0.2283 0.06556 0.0
H3325 H 0.17232 0.2636 1.00172 0.0
H3326 H 0.18992 0.25676 0.02354 0.0
C3327 C 0.24741 0.22446 0.07574 0.0
C3328 C 0.21636 0.22509 0.03158 0.0
H3329 H 0.2128 0.25368 1.0015 0.0
C3330 C 0.20083 0.21451 0.03356 0.0
C3331 C 0.22058 0.23943 0.01992 0.0
C3332 C 0.23701 0.25118 1.01643 0.0
C3333 C 0.18958 0.21786 0.02464 0.0
C3334 C 0.19376 0.23213 1.01249 0.0
C3335 C 0.20934 0.24276 1.01073 0.0
C3336 C 0.18225 0.23597 1.00057 0.0
C3337 C 0.17323 0.2061 0.02908 0.0
C3338 C 0.17179 0.22672 0.98031 0.0
C3339 C 0.1617 0.23062 0.96792 0.0
C3340 C 0.16153 0.24392 0.97529 0.0
C3341 C 0.17176 0.25309 0.99594 0.0
C3342 C 0.18201 0.24923 1.00823 0.0
H3343 H 0.17193 0.19841 0.04642 0.0
H3344 H 0.16625 0.21141 0.03353 0.0
H3345 H 0.1688 0.19912 1.01015 0.0
H3346 H 0.17177 0.21664 0.97323 0.0
H3347 H 0.15428 0.22341 0.95174 0.0
H3348 H 0.03565 0.7924 0.44252 0.0
H3349 H 1.01066 0.78629 0.45976 0.0
H3350 H 0.03158 0.81906 0.52481 0.0
H3351 H 0.0566 0.82482 0.50833 0.0
H3352 H 0.9963 0.77563 0.51239 0.0
H3353 H 1.00287 0.83172 0.4885 0.0
H3354 H 1.01515 0.82548 0.47412 0.0
H3355 H 1.01781 0.8323 0.50903 0.0
C3356 C 0.03502 0.79829 0.46063 0.0
C3357 C 0.0484 0.80939 0.47356 0.0
C3358 C 0.0206 0.79478 0.47048 0.0
C3359 C 0.01899 0.80236 0.49342 0.0
C3360 C 0.03231 0.81322 0.50674 0.0
H3361 H 0.94144 0.80375 0.57107 0.0
H3362 H 0.96629 0.80657 0.56122 0.0
C3363 C 0.04673 0.81657 0.49714 0.0
C3364 C 1.00347 0.79888 0.50339 0.0
H3365 H 0.981 0.8147 0.51342 0.0
C3366 C 0.99298 0.7842 0.51254 0.0
C3367 C 0.99889 0.80992 0.50376 0.0
C3368 C 1.00918 0.82572 0.49312 0.0
C3369 C 0.9784 0.7804 0.52244 0.0
C3370 C 0.97378 0.79144 0.52276 0.0
C3371 C 0.98431 0.80612 0.51353 0.0
C3372 C 0.95813 0.78808 0.53202 0.0
C3373 C 0.96827 0.76462 0.53321 0.0
C3374 C 0.94481 0.77641 0.51989 0.0
C3375 C 0.93046 0.77463 0.52598 0.0
C3376 C 0.92883 0.78439 0.54453 0.0
C3377 C 0.94206 0.79561 0.55758 0.0
C3378 C 0.9564 0.79741 0.55148 0.0
H3379 H 0.97488 0.75922 0.53983 0.0
H3380 H 0.96139 0.76464 0.55095 0.0
H3381 H 0.9605 0.75757 0.5165 0.0
H3382 H 0.94556 0.76921 0.50431 0.0
H3383 H 0.92073 0.76632 0.51452 0.0
H3384 H 0.22314 0.13541 0.52679 0.0
H3385 H 0.21898 0.15675 0.51865 0.0
H3386 H 0.26528 0.18774 0.54071 0.0
H3387 H 0.26948 0.16628 0.54836 0.0
H3388 H 0.21997 0.17981 0.54534 0.0
H3389 H 0.26499 0.20391 0.46594 0.0
H3390 H 0.25889 0.18573 0.48154 0.0
H3391 H 0.27185 0.20283 0.49947 0.0
C3392 C 0.23235 0.14676 0.53057 0.0
C3393 C 0.24662 0.14903 0.53851 0.0
C3394 C 0.22999 0.15905 0.52569 0.0
C3395 C 0.24188 0.1741 0.52813 0.0
C3396 C 0.25594 0.17638 0.53775 0.0
H3397 H 0.24602 0.26066 0.48226 0.0
H3398 H 0.25173 0.24164 0.50057 0.0
C3399 C 0.25829 0.16404 0.5427 0.0
C3400 C 0.23958 0.18716 0.51954 0.0
H3401 H 0.25294 0.21793 0.47626 0.0
C3402 C 0.22724 0.18812 0.53025 0.0
C3403 C 0.24891 0.19818 0.4997 0.0
C3404 C 0.26181 0.19758 0.48577 0.0
C3405 C 0.22407 0.19957 0.52195 0.0
C3406 C 0.23333 0.21049 0.50196 0.0
C3407 C 0.24581 0.20972 0.49161 0.0
C3408 C 0.22992 0.22234 0.49079 0.0
C3409 C 0.21085 0.19995 0.53501 0.0
C3410 C 0.21595 0.2181 0.4782 0.0
C3411 C 0.21263 0.22901 0.46793 0.0
C3412 C 0.22305 0.24462 0.4699 0.0
C3413 C 0.23738 0.24888 0.48117 0.0
C3414 C 0.24072 0.23792 0.49159 0.0
H3415 H 0.20776 0.19398 0.5552 0.0
H3416 H 0.21336 0.21175 0.53822 0.0
H3417 H 0.20089 0.19418 0.52119 0.0
H3418 H 0.2076 0.20625 0.47587 0.0
H3419 H 0.20199 0.22513 0.45761 0.0
H3420 H 0.8852 0.08887 0.57605 0.0
H3421 H 0.8629 0.06456 0.56436 0.0
H3422 H 0.85127 0.0864 0.50064 0.0
H3423 H 0.87378 0.11067 0.51204 0.0
H3424 H 0.83251 0.05144 0.56115 0.0
H3425 H 0.85423 0.05524 0.45498 0.0
H3426 H 0.8653 0.06854 0.4816 0.0
H3427 H 0.85099 0.07049 0.46342 0.0
C3428 C 0.87755 0.08864 0.56031 0.0
C3429 C 0.8812 0.10197 0.54558 0.0
C3430 C 0.86483 0.07459 0.55329 0.0
C3431 C 0.8554 0.07328 0.53095 0.0
C3432 C 0.85843 0.08679 0.51745 0.0
H3433 H 0.78173 0.99579 0.44196 0.0
H3434 H 0.80065 0.02076 0.45913 0.0
C3435 C 0.87118 0.10084 0.52446 0.0
C3436 C 0.84298 0.05783 0.52114 0.0
H3437 H 0.83005 0.03441 0.46444 0.0
C3438 C 0.83203 0.04777 0.53997 0.0
C3439 C 0.84215 0.05268 0.49352 0.0
C3440 C 0.85386 0.06222 0.47226 0.0
C3441 C 0.8203 0.03319 0.532 0.0
C3442 C 0.81946 0.02806 0.50436 0.0
C3443 C 0.83043 0.03811 0.48557 0.0
C3444 C 0.80738 1.01248 0.49441 0.0
C3445 C 0.80865 0.02361 0.55331 0.0
C3446 C 0.80454 0.9991 0.50812 0.0
C3447 C 0.79344 0.9847 0.49849 0.0
C3448 C 0.78501 0.98306 0.47435 0.0
C3449 C 0.78785 0.99643 0.46065 0.0
C3450 C 0.79884 1.01083 0.47042 0.0
H3451 H 0.80791 0.03065 0.57006 0.0
H3452 H 0.79728 0.01678 0.54391 0.0
H3453 H 0.81194 0.0158 0.5629 0.0
H3454 H 0.81106 0.99971 0.52617 0.0
H3455 H 0.79157 0.9748 0.50995 0.0
H3456 H 0.90677 0.437 0.36038 0.0
H3457 H 0.90143 0.41334 0.33673 0.0
H3458 H 0.92434 0.40392 0.40158 0.0
H3459 H 0.92995 0.42741 0.42475 0.0
H3460 H 0.92531 0.4002 0.32446 0.0
H3461 H 0.87682 0.36681 0.39481 0.0
H3462 H 0.88303 0.38633 0.38654 0.0
H3463 H 0.8941 0.38183 0.40919 0.0
C3464 C 0.91098 0.43009 0.36931 0.0
C3465 C 0.91869 0.43426 0.39487 0.0
C3466 C 0.90782 0.41643 0.35581 0.0
C3467 C 0.91226 0.40654 0.36743 0.0
C3468 C 0.92058 0.4111 0.39212 0.0
H3469 H 0.88675 0.31071 0.34791 0.0
H3470 H 0.89341 0.33608 0.36396 0.0
C3471 C 0.92378 0.42465 0.40545 0.0
C3472 C 0.90774 0.39117 0.355 0.0
H3473 H 0.88336 0.35317 0.36423 0.0
C3474 C 0.91605 0.38992 0.33298 0.0
C3475 C 0.89593 0.37758 0.36636 0.0
C3476 C 0.88684 0.37805 0.39048 0.0
C3477 C 0.91311 0.37566 0.32253 0.0
C3478 C 0.90097 0.36194 0.33344 0.0
C3479 C 0.89262 0.36334 0.35539 0.0
C3480 C 0.89694 0.34613 0.32319 0.0
C3481 C 0.92373 0.37564 0.30086 0.0
C3482 C 0.89632 0.34264 0.29477 0.0
C3483 C 0.89309 0.32817 0.28565 0.0
C3484 C 0.8896 0.31635 0.30447 0.0
C3485 C 0.88945 0.3195 0.33276 0.0
C3486 C 0.89323 0.33414 0.34195 0.0
H3487 H 0.93498 0.38606 0.302 0.0
H3488 H 0.92538 0.36574 0.3031 0.0
H3489 H 0.91904 0.37537 0.28006 0.0
H3490 H 0.8982 0.35106 0.27935 0.0
H3491 H 0.89297 0.32611 0.26367 0.0
H3492 H 0.72267 0.57395 0.34247 0.0
H3493 H 0.69776 0.55404 0.35754 0.0
H3494 H 0.67727 0.56603 0.29181 0.0
H3495 H 0.70232 0.58493 0.27529 0.0
H3496 H 0.6747 0.55266 0.37825 0.0
H3497 H 0.65314 0.52265 0.27929 0.0
H3498 H 0.67256 0.53723 0.28352 0.0
H3499 H 0.65818 0.5421 0.27629 0.0
C3500 C 0.71296 0.57198 0.33052 0.0
C3501 C 0.71487 0.5808 0.30684 0.0
C3502 C 0.69849 0.56065 0.33951 0.0
C3503 C 0.68517 0.55783 0.32555 0.0
C3504 C 0.68705 0.56716 0.30257 0.0
H3505 H 0.58736 0.50045 0.36938 0.0
H3506 H 0.61154 0.51884 0.34756 0.0
C3507 C 0.70156 0.57827 0.29325 0.0
C3508 C 0.66953 0.54569 0.33578 0.0
H3509 H 0.63492 0.51622 0.3152 0.0
C3510 C 0.66615 0.54469 0.36426 0.0
C3511 C 0.65795 0.53498 0.31808 0.0
C3512 C 0.66068 0.53417 0.28767 0.0
C3513 C 0.6519 0.53376 0.37519 0.0
C3514 C 0.64031 0.52324 0.35749 0.0
C3515 C 0.64357 0.52423 0.32902 0.0
C3516 C 0.62504 0.51096 0.36847 0.0
C3517 C 0.64929 0.53374 0.40586 0.0
C3518 C 0.62411 0.49983 0.38687 0.0
C3519 C 0.61027 0.48925 0.39919 0.0
C3520 C 0.59667 0.48919 0.39347 0.0
C3521 C 0.59742 0.49985 0.37401 0.0
C3522 C 0.61136 0.51052 0.36165 0.0
H3523 H 0.65777 0.54448 0.41577 0.0
H3524 H 0.63782 0.53191 0.41015 0.0
H3525 H 0.65018 0.52437 0.41557 0.0
H3526 H 0.63424 0.49952 0.3923 0.0
H3527 H 0.61029 0.48136 0.41411 0.0
H3528 H 0.44851 0.12536 0.27388 0.0
H3529 H 0.46724 0.11894 0.29084 0.0
H3530 H 0.4784 0.15077 0.35753 0.0
H3531 H 0.45877 0.15604 0.34207 0.0
H3532 H 0.49616 0.13243 0.2964 0.0
H3533 H 0.47433 0.11729 0.40265 0.0
H3534 H 0.46411 0.12087 0.37623 0.0
H3535 H 0.47912 0.13633 0.39511 0.0
C3536 C 0.45484 0.13092 0.29236 0.0
C3537 C 0.45217 0.14155 0.30622 0.0
C3538 C 0.46571 0.12727 0.30204 0.0
C3539 C 0.47437 0.1341 0.32597 0.0
C3540 C 0.47181 0.14487 0.33955 0.0
H3541 H 0.54899 0.13456 0.41612 0.0
H3542 H 0.53086 0.14018 0.39368 0.0
C3543 C 0.46073 0.14825 0.3302 0.0
C3544 C 0.48607 0.13012 0.33648 0.0
H3545 H 0.49918 0.12133 0.39506 0.0
C3546 C 0.49665 0.12987 0.31797 0.0
C3547 C 0.48695 0.12656 0.36462 0.0
C3548 C 0.47542 0.12511 0.3857 0.0
C3549 C 0.5081 0.12673 0.32679 0.0
C3550 C 0.50924 0.12371 0.35505 0.0
C3551 C 0.49858 0.12376 0.37345 0.0
C3552 C 0.52153 0.12086 0.36633 0.0
C3553 C 0.51919 0.1271 0.30584 0.0
C3554 C 0.52288 0.10826 0.35831 0.0
C3555 C 0.53346 0.10504 0.37118 0.0
C3556 C 0.54299 0.1143 0.39255 0.0
C3557 C 0.54196 0.12717 0.39973 0.0
C3558 C 0.53146 0.13037 0.38693 0.0
H3559 H 0.51867 0.13236 0.28609 0.0
H3560 H 0.5309 0.13344 0.31405 0.0
H3561 H 0.51657 0.11537 0.30144 0.0
H3562 H 0.51529 0.1005 0.3429 0.0
H3563 H 0.53361 0.09487 0.36541 0.0
H3564 H 0.7825 0.58284 0.86558 0.0
H3565 H 0.75807 0.58091 0.87692 0.0
H3566 H 0.7393 0.55664 0.80108 0.0
H3567 H 0.76355 0.55834 0.79009 0.0
H3568 H 0.73775 0.58862 0.85392 0.0
H3569 H 0.71078 0.52622 0.8563 0.0
H3570 H 0.73098 0.53835 0.85398 0.0
H3571 H 0.71935 0.53431 0.8237 0.0
C3572 C 0.77331 0.57752 0.8509 0.0
C3573 C 0.77519 0.57098 0.82662 0.0
C3574 C 0.7592 0.57627 0.85754 0.0
C3575 C 0.74645 0.56823 0.84034 0.0
C3576 C 0.74865 0.56254 0.81527 0.0
H3577 H 0.64833 0.53583 0.85738 0.0
H3578 H 0.67353 0.54172 0.84133 0.0
C3579 C 0.76268 0.56376 0.80869 0.0
C3580 C 0.73081 0.56509 0.84911 0.0
H3581 H 0.69451 0.53631 0.8612 0.0
C3582 C 0.72835 0.57716 0.85556 0.0
C3583 C 0.71827 0.55017 0.85137 0.0
C3584 C 0.71995 0.5365 0.84624 0.0
C3585 C 0.71391 0.57478 0.8635 0.0
C3586 C 0.70139 0.55983 0.86593 0.0
C3587 C 0.70388 0.54779 0.8594 0.0
C3588 C 0.68578 0.55638 0.87561 0.0
C3589 C 0.71219 0.58844 0.86839 0.0
C3590 C 0.68384 0.56235 0.90053 0.0
C3591 C 0.66938 0.55897 0.90975 0.0
C3592 C 0.65619 0.54928 0.89468 0.0
C3593 C 0.65808 0.54321 0.86981 0.0
C3594 C 0.6726 0.54663 0.86053 0.0
H3595 H 0.72091 0.59848 0.85703 0.0
H3596 H 0.70086 0.58631 0.86193 0.0
H3597 H 0.71365 0.59124 0.89073 0.0
H3598 H 0.69352 0.56948 0.9133 0.0
H3599 H 0.66854 0.5638 0.92913 0.0
H3600 H 0.48664 0.12478 0.93646 0.0
H3601 H 0.48131 0.14458 0.92078 0.0
H3602 H 0.47098 0.12475 0.83949 0.0
H3603 H 0.4766 0.10509 0.85515 0.0
H3604 H 0.49435 0.16648 0.87867 0.0
H3605 H 0.43349 0.12842 0.85698 0.0
H3606 H 0.44453 0.12252 0.87706 0.0
H3607 H 0.44589 0.12322 0.84004 0.0
C3608 C 0.48313 0.12459 0.91528 0.0
C3609 C 0.48188 0.11322 0.89716 0.0
C3610 C 0.48013 0.13599 0.90624 0.0
C3611 C 0.47543 0.13621 0.87894 0.0
C3612 C 0.47428 0.12485 0.86076 0.0
H3613 H 0.4608 0.20207 0.78497 0.0
H3614 H 0.46275 0.18006 0.79993 0.0
C3615 C 0.47757 0.1136 0.86969 0.0
C3616 C 0.47195 0.14836 0.86957 0.0
H3617 H 0.44386 0.1541 0.84339 0.0
C3618 C 0.48327 0.1637 0.8711 0.0
C3619 C 0.45751 0.14499 0.85955 0.0
C3620 C 0.44458 0.12892 0.85848 0.0
C3621 C 0.48066 0.17552 0.86266 0.0
C3622 C 0.46625 0.17217 0.85265 0.0
C3623 C 0.45492 0.15684 0.85103 0.0
C3624 C 0.46298 0.1845 0.84363 0.0
C3625 C 0.49347 0.19164 0.86396 0.0
C3626 C 0.4619 0.19425 0.86299 0.0
C3627 C 0.46048 0.20675 0.8544 0.0
C3628 C 0.46007 0.20989 0.82615 0.0
C3629 C 0.4606 0.19979 0.80686 0.0
C3630 C 0.46188 0.18724 0.81545 0.0
H3631 H 0.50444 0.19235 0.86879 0.0
H3632 H 0.49452 0.19742 0.84397 0.0
H3633 H 0.49106 0.19783 0.88017 0.0
H3634 H 0.46269 0.19251 0.88485 0.0
H3635 H 0.46058 0.21446 0.86988 0.0
H3636 H 0.82813 0.26675 0.78414 0.0
H3637 H 0.85048 0.29041 0.79859 0.0
H3638 H 0.84149 0.27579 0.88338 0.0
H3639 H 0.81929 0.252 0.86874 0.0
H3640 H 0.85154 0.31244 0.82915 0.0
H3641 H 0.88628 0.29304 0.88374 0.0
H3642 H 0.8704 0.28052 0.86245 0.0
H3643 H 0.86747 0.28469 0.89729 0.0
C3644 C 0.83127 0.2683 0.80576 0.0
C3645 C 0.82209 0.2571 0.82507 0.0
C3646 C 0.84401 0.28201 0.81414 0.0
C3647 C 0.84807 0.28515 0.84223 0.0
C3648 C 0.83911 0.27376 0.86153 0.0
H3649 H 0.91543 0.36421 0.93746 0.0
H3650 H 0.8955 0.33945 0.92107 0.0
C3651 C 0.82635 0.26001 0.8531 0.0
C3652 C 0.8608 0.30066 0.85127 0.0
H3653 H 0.89322 0.31879 0.89021 0.0
C3654 C 0.86069 0.31376 0.84239 0.0
C3655 C 0.87289 0.30274 0.86873 0.0
C3656 C 0.87439 0.28952 0.87841 0.0
C3657 C 0.87176 0.32853 0.85093 0.0
C3658 C 0.8839 0.33065 0.86839 0.0
C3659 C 0.88408 0.31752 0.87702 0.0
C3660 C 0.8963 0.34616 0.87835 0.0
C3661 C 0.86979 0.34159 0.84187 0.0
C3662 C 0.90391 0.3586 0.86022 0.0
C3663 C 0.91507 0.37297 0.86988 0.0
C3664 C 0.91954 0.37532 0.8978 0.0
C3665 C 0.91241 0.36285 0.91578 0.0
C3666 C 0.90092 0.34859 0.9063 0.0
H3667 H 0.85779 0.33782 0.83705 0.0
H3668 H 0.87369 0.3505 0.85797 0.0
H3669 H 0.8764 0.34657 0.82272 0.0
H3670 H 0.90134 0.35726 0.8384 0.0
H3671 H 0.92039 0.38224 0.85533 0.0
H3672 H 0.434 0.24745 0.33642 0.0
H3673 H 0.43965 0.27149 0.35875 0.0
H3674 H 0.47999 0.29515 0.30959 0.0
H3675 H 0.47429 0.27136 0.28719 0.0
H3676 H 0.46503 0.29529 0.38889 0.0
H3677 H 0.4572 0.31732 0.28945 0.0
H3678 H 0.45109 0.29758 0.29462 0.0
H3679 H 0.47067 0.31092 0.28811 0.0
C3680 C 0.44427 0.25771 0.33088 0.0
C3681 C 0.4537 0.25731 0.30997 0.0
C3682 C 0.44746 0.27156 0.34355 0.0
C3683 C 0.46013 0.28544 0.3356 0.0
C3684 C 0.46995 0.28485 0.31585 0.0
H3685 H 0.49508 0.38273 0.36208 0.0
H3686 H 0.48967 0.35767 0.34705 0.0
C3687 C 0.46675 0.27111 0.30319 0.0
C3688 C 0.46286 0.30057 0.34677 0.0
H3689 H 0.46704 0.33472 0.3264 0.0
C3690 C 0.46536 0.30386 0.3752 0.0
C3691 C 0.46343 0.31201 0.32923 0.0
C3692 C 0.46033 0.3093 0.29869 0.0
C3693 C 0.46885 0.31818 0.38622 0.0
C3694 C 0.46943 0.32966 0.36862 0.0
C3695 C 0.46672 0.32622 0.34024 0.0
C3696 C 0.47307 0.34531 0.3788 0.0
C3697 C 0.47252 0.32099 0.41658 0.0
C3698 C 0.46558 0.34728 0.4016 0.0
C3699 C 0.46915 0.36185 0.41084 0.0
C3700 C 0.48017 0.37507 0.39737 0.0
C3701 C 0.48713 0.37306 0.37389 0.0
C3702 C 0.48378 0.35853 0.36495 0.0
H3703 H 0.47639 0.31338 0.42501 0.0
H3704 H 0.48144 0.33287 0.42051 0.0
H3705 H 0.46219 0.3187 0.42807 0.0
H3706 H 0.45679 0.33753 0.41225 0.0
H3707 H 0.46321 0.36273 0.42865 0.0
H3708 H 0.66906 0.1076 0.42812 0.0
H3709 H 0.69421 0.12682 0.41178 0.0
H3710 H 0.67372 0.13759 0.34438 0.0
H3711 H 0.64873 0.11801 0.35999 0.0
H3712 H 0.70966 0.13067 0.36134 0.0
H3713 H 0.70097 0.17946 0.37798 0.0
H3714 H 0.68858 0.16105 0.39262 0.0
H3715 H 0.68671 0.16476 0.35698 0.0
C3716 C 0.66985 0.11404 0.4098 0.0
C3717 C 0.65657 0.11144 0.39599 0.0
C3718 C 0.68435 0.12512 0.40043 0.0
C3719 C 0.68612 0.13416 0.37711 0.0
C3720 C 0.67289 0.13127 0.36289 0.0
H3721 H 0.7593 0.20701 0.28242 0.0
H3722 H 0.73575 0.18874 0.30493 0.0
C3723 C 0.65845 0.12006 0.37203 0.0
C3724 C 0.70167 0.14635 0.36738 0.0
H3725 H 0.72301 0.18434 0.35313 0.0
C3726 C 0.71259 0.14243 0.35978 0.0
C3727 C 0.70574 0.1618 0.36509 0.0
C3728 C 0.69497 0.16711 0.37381 0.0
C3729 C 0.72701 0.15322 0.34921 0.0
C3730 C 0.7311 0.16871 0.34677 0.0
C3731 C 0.7202 0.17263 0.35482 0.0
C3732 C 0.74612 0.18081 0.33449 0.0
C3733 C 0.73743 0.14767 0.33958 0.0
C3734 C 0.76031 0.18327 0.34386 0.0
C3735 C 0.77402 0.19396 0.33089 0.0
C3736 C 0.77402 0.2026 0.30813 0.0
C3737 C 0.75989 0.20061 0.29974 0.0
C3738 C 0.74628 0.19004 0.3127 0.0
H3739 H 0.73118 0.13532 0.33534 0.0
H3740 H 0.74358 0.15364 0.32055 0.0
H3741 H 0.74584 0.14979 0.356 0.0
H3742 H 0.76084 0.17679 0.36107 0.0
H3743 H 0.78455 0.195 0.33796 0.0
H3744 H 0.81746 0.57085 0.3443 0.0
H3745 H 0.83647 0.56664 0.36796 0.0
H3746 H 0.86352 0.57982 0.29402 0.0
H3747 H 0.84545 0.58499 0.27138 0.0
H3748 H 0.8465 0.54763 0.36112 0.0
H3749 H 0.8967 0.60361 0.34458 0.0
H3750 H 0.87795 0.60017 0.33726 0.0
H3751 H 0.88812 0.59561 0.31207 0.0
C3752 C 0.82766 0.57326 0.33332 0.0
C3753 C 0.82962 0.57823 0.30558 0.0
C3754 C 0.83855 0.57066 0.34684 0.0
C3755 C 0.85186 0.57306 0.33323 0.0
C3756 C 0.85382 0.57822 0.30575 0.0
H3757 H 0.91431 0.53826 0.35839 0.0
H3758 H 0.89479 0.54394 0.34283 0.0
C3759 C 0.84315 0.58097 0.29249 0.0
C3760 C 0.86339 0.56967 0.34678 0.0
H3761 H 0.90162 0.5834 0.35478 0.0
C3762 C 0.85852 0.55559 0.35984 0.0
C3763 C 0.8793 0.57992 0.34582 0.0
C3764 C 0.8858 0.59571 0.33444 0.0
C3765 C 0.86887 0.55138 0.37062 0.0
C3766 C 0.88466 0.56136 0.36839 0.0
C3767 C 0.88957 0.57557 0.35622 0.0
C3768 C 0.89622 0.55727 0.3786 0.0
C3769 C 0.86291 0.53623 0.38446 0.0
C3770 C 0.90378 0.56282 0.40394 0.0
C3771 C 0.91476 0.55924 0.4132 0.0
C3772 C 0.91865 0.55006 0.39735 0.0
C3773 C 0.91128 0.5448 0.37174 0.0
C3774 C 0.90017 0.54822 0.36263 0.0
H3775 H 0.8504 0.53005 0.38628 0.0
H3776 H 0.86639 0.5292 0.37246 0.0
H3777 H 0.86789 0.53779 0.40543 0.0
H3778 H 0.90115 0.56991 0.4167 0.0
H3779 H 0.92017 0.56364 0.43294 0.0
H3780 H 0.72037 0.14353 0.8491 0.0
H3781 H 0.69503 0.13748 0.8647 0.0
H3782 H 0.68136 0.13559 0.77984 0.0
H3783 H 0.70619 0.14035 0.76451 0.0
H3784 H 0.67872 0.1492 0.86455 0.0
H3785 H 0.64561 0.09843 0.80062 0.0
H3786 H 0.66588 0.10748 0.80275 0.0
H3787 H 0.657 0.1144 0.77915 0.0
C3788 C 0.71183 0.14152 0.83381 0.0
C3789 C 0.71525 0.14202 0.80551 0.0
C3790 C 0.69726 0.13812 0.84273 0.0
C3791 C 0.68567 0.13544 0.82368 0.0
C3792 C 0.68947 0.13669 0.79535 0.0
H3793 H 0.59452 0.12468 0.8335 0.0
H3794 H 0.61856 0.1266 0.81949 0.0
C3795 C 0.70385 0.13959 0.78646 0.0
C3796 C 0.66993 0.13184 0.83337 0.0
H3797 H 0.63181 0.10917 0.82098 0.0
C3798 C 0.66853 0.1403 0.85508 0.0
C3799 C 0.65625 0.12019 0.82153 0.0
C3800 C 0.65625 0.10951 0.79996 0.0
C3801 C 0.65429 0.13785 0.86446 0.0
C3802 C 0.64067 0.1265 0.85208 0.0
C3803 C 0.64204 0.11795 0.83057 0.0
C3804 C 0.62505 0.12364 0.86054 0.0
C3805 C 0.65406 0.14787 0.88716 0.0
C3806 C 0.61995 0.12057 0.88817 0.0
C3807 C 0.60601 0.11929 0.89616 0.0
C3808 C 0.5965 0.12073 0.87677 0.0
C3809 C 0.60125 0.12305 0.84895 0.0
C3810 C 0.61518 0.12434 0.84095 0.0
H3811 H 0.66512 0.15846 0.88916 0.0
H3812 H 0.64517 0.15089 0.88346 0.0
H3813 H 0.65165 0.14175 0.90712 0.0
H3814 H 0.62692 0.11953 0.90386 0.0
H3815 H 0.60301 0.11788 0.91784 0.0
H3816 H 0.8771 0.5745 0.84319 0.0
H3817 H 0.88334 0.5557 0.86075 0.0
H3818 H 0.90625 0.55837 0.78437 0.0
H3819 H 0.90065 0.57759 0.76746 0.0
H3820 H 0.87671 0.52879 0.84833 0.0
H3821 H 0.93836 0.56201 0.83322 0.0
H3822 H 0.92647 0.57024 0.82897 0.0
H3823 H 0.92876 0.55978 0.80115 0.0
C3824 C 0.88356 0.57115 0.8302 0.0
C3825 C 0.88849 0.57779 0.80394 0.0
C3826 C 0.88716 0.56033 0.8403 0.0
C3827 C 0.89575 0.55569 0.82444 0.0
C3828 C 0.90024 0.56203 0.79784 0.0
H3829 H 0.91891 0.48354 0.83454 0.0
H3830 H 0.91688 0.50589 0.82247 0.0
C3831 C 0.89687 0.57301 0.78797 0.0
C3832 C 0.89953 0.54393 0.83518 0.0
H3833 H 0.92808 0.53543 0.84078 0.0
C3834 C 0.88801 0.53041 0.84687 0.0
C3835 C 0.91428 0.54575 0.83372 0.0
C3836 C 0.92769 0.5603 0.82388 0.0
C3837 C 0.89061 0.51869 0.856 0.0
C3838 C 0.90525 0.52033 0.85375 0.0
C3839 C 0.91682 0.53392 0.84243 0.0
C3840 C 0.90858 0.50796 0.86243 0.0
C3841 C 0.87741 0.5044 0.86721 0.0
C3842 C 0.90547 0.50193 0.8894 0.0
C3843 C 0.90681 0.48922 0.89639 0.0
C3844 C 0.91158 0.48222 0.87687 0.0
C3845 C 0.91561 0.48881 0.85039 0.0
C3846 C 0.91426 0.50155 0.84337 0.0
H3847 H 0.86643 0.50321 0.86083 0.0
H3848 H 0.87781 0.49425 0.86019 0.0
H3849 H 0.87785 0.50472 0.89012 0.0
H3850 H 0.90146 0.50672 0.90492 0.0
H3851 H 0.90327 0.4843 0.91675 0.0
H3852 H 0.56324 0.42802 0.85562 0.0
H3853 H 0.54229 0.4023 0.84748 0.0
H3854 H 0.51081 0.4157 0.87643 0.0
H3855 H 0.53186 0.44157 0.88416 0.0
H3856 H 0.52035 0.37917 0.87499 0.0
H3857 H 0.49256 0.39966 0.80247 0.0
H3858 H 0.51108 0.41204 0.81651 0.0
H3859 H 0.49445 0.40702 0.83679 0.0
C3860 C 0.55189 0.42541 0.86096 0.0
C3861 C 0.5494 0.43698 0.87098 0.0
C3862 C 0.5398 0.41062 0.85606 0.0
C3863 C 0.52465 0.40681 0.86047 0.0
C3864 C 0.5222 0.41816 0.87195 0.0
H3865 H 0.44342 0.31479 0.84627 0.0
H3866 H 0.46325 0.3398 0.86272 0.0
C3867 C 0.53435 0.433 0.87696 0.0
C3868 C 0.51168 0.39126 0.85203 0.0
H3869 H 0.47973 0.37339 0.81149 0.0
C3870 C 0.51147 0.37802 0.86122 0.0
C3871 C 0.49995 0.38935 0.83365 0.0
C3872 C 0.49954 0.40275 0.82154 0.0
C3873 C 0.50007 0.36331 0.85295 0.0
C3874 C 0.48838 0.36148 0.83479 0.0
C3875 C 0.48855 0.37463 0.8255 0.0
C3876 C 0.47614 0.34606 0.82477 0.0
C3877 C 0.50074 0.34971 0.86314 0.0
C3878 C 0.47647 0.34102 0.79779 0.0
C3879 C 0.465 0.32675 0.78824 0.0
C3880 C 0.45284 0.31703 0.80539 0.0
C3881 C 0.45256 0.32197 0.83245 0.0
C3882 C 0.46396 0.3363 0.84192 0.0
H3883 H 0.51089 0.3529 0.87606 0.0
H3884 H 0.4905 0.3424 0.87553 0.0
H3885 H 0.50083 0.34291 0.84528 0.0
H3886 H 0.48571 0.34811 0.78407 0.0
H3887 H 0.46576 0.32322 0.76748 0.0
H3888 H 0.60899 0.77379 0.72256 0.0
H3889 H 0.60255 0.74975 0.70002 0.0
H3890 H 0.55527 0.73595 0.70534 0.0
H3891 H 0.56183 0.7602 0.72708 0.0
H3892 H 0.58868 0.72251 0.71848 0.0
H3893 H 0.55461 0.72162 0.62932 0.0
H3894 H 0.56544 0.73841 0.64981 0.0
H3895 H 0.54696 0.72397 0.66101 0.0
C3896 C 0.59725 0.76585 0.71797 0.0
C3897 C 0.58599 0.76923 0.7259 0.0
C3898 C 0.59352 0.75193 0.70533 0.0
C3899 C 0.57835 0.74077 0.70032 0.0
C3900 C 0.56709 0.74428 0.70792 0.0
H3901 H 0.53385 0.64319 0.66372 0.0
H3902 H 0.54051 0.66858 0.67922 0.0
C3903 C 0.57085 0.75826 0.72042 0.0
C3904 C 0.57437 0.72524 0.68912 0.0
H3905 H 0.55261 0.69792 0.64139 0.0
C3906 C 0.58089 0.71729 0.70143 0.0
C3907 C 0.56421 0.71808 0.66672 0.0
C3908 C 0.55754 0.72603 0.65076 0.0
C3909 C 0.57736 0.70263 0.6926 0.0
C3910 C 0.56695 0.6954 0.67078 0.0
C3911 C 0.56048 0.70328 0.65828 0.0
C3912 C 0.56273 0.67971 0.66072 0.0
C3913 C 0.58463 0.69478 0.707 0.0
C3914 C 0.57283 0.67718 0.6449 0.0
C3915 C 0.56878 0.66256 0.63527 0.0
C3916 C 0.55455 0.64986 0.64142 0.0
C3917 C 0.54465 0.65245 0.65783 0.0
C3918 C 0.54855 0.66711 0.66695 0.0
H3919 H 0.59093 0.70095 0.7258 0.0
H3920 H 0.57592 0.68311 0.71289 0.0
H3921 H 0.59263 0.69391 0.69263 0.0
H3922 H 0.58386 0.68657 0.63976 0.0
H3923 H 0.5769 0.66124 0.62297 0.0
H3924 H 0.27815 0.81784 0.75428 0.0
H3925 H 0.3019 0.83559 0.73167 0.0
H3926 H 0.27753 0.84798 0.67466 0.0
H3927 H 0.25363 0.83031 0.69783 0.0
H3928 H 0.3149 0.83974 0.6837 0.0
H3929 H 0.30752 0.88929 0.70049 0.0
H3930 H 0.29487 0.87105 0.7153 0.0
H3931 H 0.29275 0.87495 0.6798 0.0
C3932 C 0.27776 0.82421 0.73671 0.0
C3933 C 0.26379 0.82253 0.72809 0.0
C3934 C 0.29149 0.83448 0.72371 0.0
C3935 C 0.29192 0.8437 0.70168 0.0
C3936 C 0.27786 0.8415 0.69206 0.0
H3937 H 0.3689 0.91509 0.60579 0.0
H3938 H 0.34385 0.89593 0.62259 0.0
C3939 C 0.26404 0.83112 0.70506 0.0
C3940 C 0.30705 0.85561 0.68948 0.0
H3941 H 0.32882 0.89351 0.67417 0.0
C3942 C 0.31785 0.85148 0.68173 0.0
C3943 C 0.31133 0.87114 0.68677 0.0
C3944 C 0.30109 0.87694 0.69628 0.0
C3945 C 0.33235 0.86214 0.67137 0.0
C3946 C 0.33655 0.8776 0.66861 0.0
C3947 C 0.32577 0.88174 0.67603 0.0
C3948 C 0.35207 0.8896 0.65844 0.0
C3949 C 0.34306 0.85668 0.66308 0.0
C3950 C 0.36533 0.89294 0.67303 0.0
C3951 C 0.37972 0.90416 0.66365 0.0
C3952 C 0.38149 0.9123 0.63906 0.0
C3953 C 0.36818 0.9091 0.6247 0.0
C3954 C 0.35374 0.89804 0.63431 0.0
H3955 H 0.33708 0.84424 0.65992 0.0
H3956 H 0.34919 0.86231 0.6438 0.0
H3957 H 0.35157 0.85951 0.67966 0.0
H3958 H 0.36456 0.88702 0.69205 0.0
H3959 H 0.38947 0.90664 0.67602 0.0
H3960 H 0.10423 0.45179 0.64011 0.0
H3961 H 0.12262 0.4451 0.65786 0.0
H3962 H 0.15754 0.4918 0.65076 0.0
H3963 H 0.13892 0.4982 0.63437 0.0
H3964 H 0.14551 0.44467 0.6403 0.0
H3965 H 0.16845 0.48623 0.72503 0.0
H3966 H 0.15205 0.48303 0.70573 0.0
H3967 H 0.17079 0.49566 0.69272 0.0
C3968 C 0.11574 0.4606 0.6428 0.0
C3969 C 0.11976 0.47562 0.63668 0.0
C3970 C 0.12641 0.4568 0.65291 0.0
C3971 C 0.14169 0.46795 0.65684 0.0
C3972 C 0.14585 0.48292 0.64955 0.0
H3973 H 0.22497 0.46868 0.7087 0.0
H3974 H 0.20627 0.47364 0.68631 0.0
C3975 C 0.13507 0.48667 0.64001 0.0
C3976 C 0.15324 0.46383 0.66749 0.0
H3977 H 0.18295 0.47468 0.71255 0.0
C3978 C 0.15358 0.45124 0.65626 0.0
C3979 C 0.16393 0.47214 0.68859 0.0
C3980 C 0.16369 0.48489 0.70391 0.0
C3981 C 0.1643 0.44705 0.66475 0.0
C3982 C 0.17525 0.45564 0.68519 0.0
C3983 C 0.17485 0.46814 0.69658 0.0
C3984 C 0.18696 0.45176 0.69557 0.0
C3985 C 0.16395 0.43357 0.65123 0.0
C3986 C 0.18269 0.43764 0.70782 0.0
C3987 C 0.19348 0.43473 0.72031 0.0
C3988 C 0.20896 0.44577 0.7209 0.0
C3989 C 0.2133 0.45967 0.70775 0.0
C3990 C 0.20251 0.46261 0.69531 0.0
H3991 H 0.158 0.43087 0.63103 0.0
H3992 H 0.17554 0.43552 0.64796 0.0
H3993 H 0.15779 0.42356 0.66483 0.0
H3994 H 0.17086 0.42911 0.70917 0.0
H3995 H 0.18957 0.42416 0.73124 0.0
H3996 H 0.31422 0.86911 0.19206 0.0
H3997 H 0.33945 0.87506 0.1759 0.0
H3998 H 0.35943 0.90262 0.24807 0.0
H3999 H 0.33437 0.89658 0.26439 0.0
H4000 H 0.36595 0.90309 0.16363 0.0
H4001 H 0.37738 0.87464 0.25002 0.0
H4002 H 0.35869 0.87141 0.24257 0.0
H4003 H 0.37204 0.88816 0.26078 0.0
C4004 C 0.32397 0.87637 0.2046 0.0
C4005 C 0.32207 0.88218 0.22978 0.0
C4006 C 0.33847 0.87984 0.19524 0.0
C4007 C 0.35155 0.88914 0.21087 0.0
C4008 C 0.34967 0.89519 0.23572 0.0
H4009 H 0.44831 0.91603 0.19734 0.0
H4010 H 0.42418 0.91425 0.21054 0.0
C4011 C 0.33523 0.8918 0.24497 0.0
C4012 C 0.36711 0.89259 0.20133 0.0
H4013 H 0.3979 0.88954 0.2202 0.0
C4014 C 0.37289 0.90006 0.176 0.0
C4015 C 0.3764 0.88879 0.21729 0.0
C4016 C 0.37081 0.88019 0.24406 0.0
C4017 C 0.38758 0.90403 0.1666 0.0
C4018 C 0.39688 0.90017 0.1825 0.0
C4019 C 0.39105 0.89269 0.20785 0.0
C4020 C 0.41234 0.90316 0.17294 0.0
C4021 C 0.3931 0.91276 0.13996 0.0
C4022 C 0.4142 0.89792 0.1471 0.0
C4023 C 0.4281 0.89916 0.13942 0.0
C4024 C 0.44072 0.90569 0.15719 0.0
C4025 C 0.43907 0.9114 0.18267 0.0
C4026 C 0.42512 0.91016 0.19041 0.0
H4027 H 0.38725 0.91923 0.13548 0.0
H4028 H 0.40546 0.92077 0.14054 0.0
H4029 H 0.39064 0.90472 0.12267 0.0
H4030 H 0.40466 0.89208 0.13332 0.0
H4031 H 0.42873 0.89416 0.12009 0.0
H4032 H 0.14309 0.54664 0.12735 0.0
H4033 H 0.14509 0.52422 0.13801 0.0
H4034 H 0.11204 0.51227 0.20261 0.0
H4035 H 0.10996 0.53468 0.19163 0.0
H4036 H 0.1557 0.51903 0.18413 0.0
H4037 H 0.0977 0.47089 0.17137 0.0
H4038 H 0.10325 0.48953 0.15848 0.0
H4039 H 0.09851 0.48505 0.19437 0.0
C4040 C 0.13571 0.53886 0.14297 0.0
C4041 C 0.12596 0.54233 0.1579 0.0
C4042 C 0.13704 0.52608 0.14943 0.0
C4043 C 0.12869 0.51621 0.17115 0.0
C4044 C 0.11843 0.51929 0.18535 0.0
H4045 H 0.13227 0.44225 0.25945 0.0
H4046 H 0.1266 0.46153 0.24271 0.0
C4047 C 0.11712 0.53214 0.17889 0.0
C4048 C 0.13178 0.5037 0.18029 0.0
H4049 H 0.11508 0.46573 0.19507 0.0
C4050 C 0.14676 0.50737 0.18624 0.0
C4051 C 0.12029 0.48833 0.18344 0.0
C4052 C 0.10406 0.48315 0.17633 0.0
C4053 C 0.15047 0.49644 0.19559 0.0
C4054 C 0.13898 0.48108 0.19872 0.0
C4055 C 0.124 0.47738 0.19279 0.0
C4056 C 0.14225 0.46881 0.20841 0.0
C4057 C 0.1667 0.50163 0.20291 0.0
C4058 C 0.15271 0.4659 0.1946 0.0
C4059 C 0.15592 0.45471 0.20411 0.0
C4060 C 0.14884 0.44602 0.22785 0.0
C4061 C 0.13804 0.44863 0.24115 0.0
C4062 C 0.13479 0.45977 0.23158 0.0
H4063 H 0.17318 0.51398 0.20713 0.0
H4064 H 0.16744 0.49555 0.22132 0.0
H4065 H 0.1722 0.49931 0.18531 0.0
H4066 H 0.15839 0.47225 0.17623 0.0
H4067 H 0.16401 0.45288 0.19277 0.0
H4068 H 0.56771 0.71208 0.21952 0.0
H4069 H 0.54925 0.68704 0.20458 0.0
H4070 H 0.58066 0.67162 0.22266 0.0
H4071 H 0.59854 0.69657 0.24124 0.0
H4072 H 0.54593 0.67013 0.16649 0.0
H4073 H 0.54691 0.63728 0.25655 0.0
H4074 H 0.55686 0.65762 0.2568 0.0
H4075 H 0.56502 0.64749 0.24033 0.0
C4076 C 0.5707 0.70346 0.22123 0.0
C4077 C 0.58478 0.70677 0.23237 0.0
C4078 C 0.56002 0.68888 0.2121 0.0
C4079 C 0.56305 0.67686 0.21277 0.0
C4080 C 0.57742 0.68021 0.22278 0.0
H4081 H 0.50647 0.58035 0.16455 0.0
H4082 H 0.52789 0.60593 0.1727 0.0
C4083 C 0.58792 0.69476 0.233 0.0
C4084 C 0.5512 0.6612 0.2025 0.0
H4085 H 0.53276 0.62322 0.21797 0.0
C4086 C 0.54309 0.65996 0.17804 0.0
C4087 C 0.5472 0.64755 0.21698 0.0
C4088 C 0.55434 0.64753 0.24423 0.0
C4089 C 0.53137 0.6459 0.168 0.0
C4090 C 0.52741 0.63233 0.18252 0.0
C4091 C 0.53569 0.63347 0.20655 0.0
C4092 C 0.51447 0.61694 0.1739 0.0
C4093 C 0.52348 0.64577 0.1416 0.0
C4094 C 0.49958 0.61429 0.17115 0.0
C4095 C 0.48732 0.59961 0.16623 0.0
C4096 C 0.48948 0.58706 0.16366 0.0
C4097 C 0.50439 0.58975 0.16553 0.0
C4098 C 0.51667 0.60443 0.17057 0.0
H4099 H 0.53069 0.65582 0.12861 0.0
H4100 H 0.52024 0.63541 0.12932 0.0
H4101 H 0.51306 0.6461 0.14675 0.0
H4102 H 0.49729 0.62346 0.17421 0.0
H4103 H 0.47598 0.59794 0.16586 0.0
H4104 H 0.12695 0.70393 0.71036 0.0
H4105 H 0.12029 0.67846 0.69425 0.0
H4106 H 0.16082 0.68357 0.73184 0.0
H4107 H 0.16688 0.70854 0.74907 0.0
H4108 H 0.13517 0.66844 0.65932 0.0
H4109 H 0.12964 0.64274 0.76247 0.0
H4110 H 0.13026 0.66059 0.75777 0.0
H4111 H 0.1474 0.6597 0.75694 0.0
C4112 C 0.13433 0.69954 0.71544 0.0
C4113 C 0.14755 0.70847 0.73085 0.0
C4114 C 0.13059 0.68495 0.70601 0.0
C4115 C 0.13989 0.67872 0.71194 0.0
C4116 C 0.15319 0.68775 0.72719 0.0
H4117 H 0.13855 0.59369 0.66791 0.0
H4118 H 0.14337 0.61753 0.68965 0.0
C4119 C 0.15688 0.70229 0.73663 0.0
C4120 C 0.13579 0.66298 0.702 0.0
H4121 H 0.129 0.62805 0.72394 0.0
C4122 C 0.13374 0.65962 0.67356 0.0
C4123 C 0.13395 0.65125 0.72024 0.0
C4124 C 0.13528 0.65364 0.75108 0.0
C4125 C 0.13028 0.64527 0.66299 0.0
C4126 C 0.12832 0.63348 0.68124 0.0
C4127 C 0.13041 0.63685 0.70969 0.0
C4128 C 0.12421 0.61774 0.67108 0.0
C4129 C 0.12926 0.64307 0.63209 0.0
C4130 C 0.11133 0.60916 0.65453 0.0
C4131 C 0.10844 0.59537 0.64248 0.0
C4132 C 0.11815 0.58945 0.64679 0.0
C4133 C 0.13051 0.59754 0.66475 0.0
C4134 C 0.13341 0.61137 0.6769 0.0
H4135 H 0.13538 0.65404 0.62097 0.0
H4136 H 0.13398 0.63585 0.6255 0.0
H4137 H 0.11723 0.63748 0.62572 0.0
H4138 H 0.10374 0.6134 0.65003 0.0
H4139 H 0.09906 0.58978 0.62823 0.0
H4140 H 0.43707 0.55152 0.66553 0.0
H4141 H 0.41348 0.5331 0.6887 0.0
H4142 H 0.41763 0.49662 0.65323 0.0
H4143 H 0.4412 0.51494 0.63082 0.0
H4144 H 0.38734 0.51306 0.66515 0.0
H4145 H 0.40513 0.47972 0.7287 0.0
H4146 H 0.41862 0.49753 0.71333 0.0
H4147 H 0.41032 0.4804 0.69317 0.0
C4148 C 0.43331 0.53958 0.66376 0.0
C4149 C 0.4414 0.53478 0.64695 0.0
C4150 C 0.41963 0.52898 0.67669 0.0
C4151 C 0.41359 0.51324 0.67324 0.0
C4152 C 0.42199 0.50853 0.65717 0.0
H4153 H 0.32832 0.42998 0.71399 0.0
H4154 H 0.35357 0.44892 0.69762 0.0
C4155 C 0.43562 0.51908 0.64434 0.0
C4156 C 0.39807 0.50186 0.68437 0.0
H4157 H 0.37864 0.4688 0.7212 0.0
C4158 C 0.38553 0.50349 0.67767 0.0
C4159 C 0.39536 0.48909 0.70046 0.0
C4160 C 0.40809 0.48663 0.70956 0.0
C4161 C 0.3706 0.49277 0.68586 0.0
C4162 C 0.3679 0.48004 0.7021 0.0
C4163 C 0.38045 0.47843 0.70884 0.0
C4164 C 0.35228 0.46831 0.71224 0.0
C4165 C 0.35782 0.49497 0.67596 0.0
C4166 C 0.3429 0.47251 0.72656 0.0
C4167 C 0.32844 0.46157 0.73596 0.0
C4168 C 0.32286 0.44602 0.73172 0.0
C4169 C 0.33229 0.44177 0.71795 0.0
C4170 C 0.34676 0.4527 0.70839 0.0
H4171 H 0.36094 0.50192 0.65687 0.0
H4172 H 0.34747 0.48399 0.67173 0.0
H4173 H 0.35518 0.50103 0.69208 0.0
H4174 H 0.34684 0.4843 0.73097 0.0
H4175 H 0.32179 0.46529 0.74729 0.0
H4176 H 0.56722 0.86385 0.74329 0.0
H4177 H 0.54853 0.86999 0.72554 0.0
H4178 H 0.58437 0.91444 0.70332 0.0
H4179 H 0.60314 0.90792 0.72029 0.0
H4180 H 0.54196 0.89266 0.74076 0.0
H4181 H 0.56003 0.90024 0.63118 0.0
H4182 H 0.5658 0.89089 0.65594 0.0
H4183 H 0.57487 0.91117 0.65539 0.0
C4184 C 0.5712 0.87472 0.73381 0.0
C4185 C 0.58682 0.88509 0.73232 0.0
C4186 C 0.56041 0.87839 0.72407 0.0
C4187 C 0.56483 0.89264 0.7124 0.0
C4188 C 0.58047 0.90323 0.71154 0.0
H4189 H 0.51752 0.93329 0.62832 0.0
H4190 H 0.5356 0.92787 0.65132 0.0
C4191 C 0.59127 0.89954 0.72148 0.0
C4192 C 0.55311 0.89636 0.70149 0.0
H4193 H 0.54146 0.90657 0.6429 0.0
C4194 C 0.54187 0.89569 0.71933 0.0
C4195 C 0.55274 0.90029 0.67351 0.0
C4196 C 0.56389 0.90058 0.65275 0.0
C4197 C 0.53074 0.89922 0.7103 0.0
C4198 C 0.53036 0.90317 0.68223 0.0
C4199 C 0.54155 0.90368 0.66441 0.0
C4200 C 0.51883 0.90713 0.67076 0.0
C4201 C 0.51982 0.89913 0.73136 0.0
C4202 C 0.50305 0.89761 0.67416 0.0
C4203 C 0.49256 0.90093 0.66125 0.0
C4204 C 0.49749 0.91377 0.64423 0.0
C4205 C 0.51323 0.92341 0.64147 0.0
C4206 C 0.52365 0.9202 0.65452 0.0
H4207 H 0.52444 0.9007 0.75264 0.0
H4208 H 0.51705 0.90816 0.72712 0.0
H4209 H 0.50922 0.88804 0.73067 0.0
H4210 H 0.49874 0.88723 0.68582 0.0
H4211 H 0.48058 0.89301 0.66338 0.0
H4212 H 0.25623 0.42821 0.2087 0.0
H4213 H 0.28219 0.43335 0.20106 0.0
H4214 H 0.29707 0.48061 0.18971 0.0
H4215 H 0.2712 0.47545 0.19774 0.0
H4216 H 0.29902 0.44294 0.1561 0.0
H4217 H 0.33116 0.4852 0.23675 0.0
H4218 H 0.31079 0.4743 0.23697 0.0
H4219 H 0.32047 0.49091 0.21564 0.0
C4220 C 0.26515 0.43979 0.20568 0.0
C4221 C 0.26159 0.45147 0.20484 0.0
C4222 C 0.28006 0.44274 0.20089 0.0
C4223 C 0.29199 0.45748 0.19505 0.0
C4224 C 0.28844 0.46919 0.19486 0.0
H4225 H 0.37559 0.48293 0.102 0.0
H4226 H 0.35064 0.47765 0.11859 0.0
C4227 C 0.27354 0.46624 0.19959 0.0
C4228 C 0.30769 0.46037 0.18714 0.0
H4229 H 0.34575 0.48312 0.20002 0.0
C4230 C 0.30916 0.4517 0.16592 0.0
C4231 C 0.32124 0.47168 0.19983 0.0
C4232 C 0.32086 0.48095 0.22374 0.0
C4233 C 0.32345 0.45426 0.1567 0.0
C4234 C 0.33695 0.46589 0.1687 0.0
C4235 C 0.33554 0.4743 0.19042 0.0
C4236 C 0.35252 0.46946 0.15879 0.0
C4237 C 0.32404 0.44431 0.13428 0.0
C4238 C 0.36231 0.467 0.17578 0.0
C4239 C 0.37672 0.47017 0.16631 0.0
C4240 C 0.38177 0.47588 0.13954 0.0
C4241 C 0.37203 0.47841 0.12261 0.0
C4242 C 0.3577 0.47535 0.13213 0.0
H4243 H 0.31276 0.4343 0.13019 0.0
H4244 H 0.3282 0.45092 0.11488 0.0
H4245 H 0.33203 0.44036 0.14002 0.0
H4246 H 0.35874 0.46244 0.19636 0.0
H4247 H 0.38388 0.46802 0.17985 0.0
H4248 H 0.55618 0.80714 0.22243 0.0
H4249 H 0.55412 0.82951 0.21237 0.0
H4250 H 0.60072 0.85335 0.18657 0.0
H4251 H 0.60257 0.83061 0.1957 0.0
H4252 H 0.56581 0.85786 0.22705 0.0
H4253 H 0.58256 0.8585 0.11795 0.0
H4254 H 0.57946 0.84347 0.14131 0.0
H4255 H 0.5969 0.86126 0.14238 0.0
C4256 C 0.56617 0.81732 0.21552 0.0
C4257 C 0.57962 0.81703 0.21036 0.0
C4258 C 0.56493 0.83014 0.20939 0.0
C4259 C 0.57707 0.8432 0.19768 0.0
C4260 C 0.59092 0.84338 0.19459 0.0
H4261 H 0.57848 0.92294 0.11968 0.0
H4262 H 0.58537 0.90481 0.13816 0.0
C4263 C 0.59214 0.83044 0.20054 0.0
C4264 C 0.57483 0.85613 0.18797 0.0
H4265 H 0.57723 0.87749 0.13126 0.0
C4266 C 0.56837 0.86215 0.20608 0.0
C4267 C 0.57813 0.86199 0.1606 0.0
C4268 C 0.58451 0.8559 0.13933 0.0
C4269 C 0.56529 0.87368 0.19797 0.0
C4270 C 0.56823 0.87929 0.17036 0.0
C4271 C 0.57489 0.87342 0.15237 0.0
C4272 C 0.56421 0.89088 0.15956 0.0
C4273 C 0.55927 0.87992 0.21966 0.0
C4274 C 0.54999 0.88945 0.16488 0.0
C4275 C 0.54634 0.90025 0.15536 0.0
C4276 C 0.55629 0.91253 0.13861 0.0
C4277 C 0.57041 0.91379 0.13256 0.0
C4278 C 0.57433 0.90325 0.14302 0.0
H4279 H 0.56303 0.87887 0.24066 0.0
H4280 H 0.56297 0.89201 0.21595 0.0
H4281 H 0.54673 0.87329 0.21957 0.0
H4282 H 0.54153 0.87988 0.17639 0.0
H4283 H 0.5356 0.89888 0.1614 0.0
H4284 H 0.20153 0.7778 0.18157 0.0
H4285 H 0.17992 0.75248 0.17351 0.0
H4286 H 0.20184 0.73308 0.22062 0.0
H4287 H 0.22341 0.75855 0.22901 0.0
H4288 H 0.18044 0.73052 0.14458 0.0
H4289 H 0.15935 0.70741 0.24886 0.0
H4290 H 0.17238 0.72725 0.24306 0.0
H4291 H 0.1791 0.71398 0.24426 0.0
C4292 C 0.20149 0.76819 0.19118 0.0
C4293 C 0.21411 0.77037 0.20663 0.0
C4294 C 0.18914 0.7536 0.18625 0.0
C4295 C 0.18894 0.74057 0.19648 0.0
C4296 C 0.20132 0.74276 0.21288 0.0
H4297 H 0.12804 0.64247 0.17119 0.0
H4298 H 0.14771 0.66753 0.18615 0.0
C4299 C 0.21371 0.75742 0.21784 0.0
C4300 C 0.17655 0.72492 0.18773 0.0
H4301 H 0.14955 0.69002 0.21156 0.0
C4302 C 0.17365 0.72173 0.15934 0.0
C4303 C 0.16763 0.71315 0.20665 0.0
C4304 C 0.16965 0.71561 0.23741 0.0
C4305 C 0.16255 0.70735 0.14942 0.0
C4306 C 0.15339 0.69561 0.16831 0.0
C4307 C 0.15633 0.69879 0.19676 0.0
C4308 C 0.14099 0.68002 0.15908 0.0
C4309 C 0.16127 0.70485 0.11859 0.0
C4310 C 0.13008 0.67818 0.13917 0.0
C4311 C 0.11908 0.66371 0.12976 0.0
C4312 C 0.11825 0.65045 0.14041 0.0
C4313 C 0.12857 0.65226 0.1615 0.0
C4314 C 0.13979 0.66674 0.17046 0.0
H4315 H 0.17203 0.71269 0.10797 0.0
H4316 H 0.15821 0.69309 0.11322 0.0
H4317 H 0.15245 0.70712 0.1104 0.0
H4318 H 0.13005 0.68796 0.13069 0.0
H4319 H 0.11132 0.66296 0.11377 0.0
H4320 H 0.29835 0.16984 0.1189 0.0
H4321 H 0.31676 0.16352 0.13889 0.0
H4322 H 0.33912 0.20669 0.18012 0.0
H4323 H 0.32079 0.21273 0.16048 0.0
H4324 H 0.35042 0.18135 0.13372 0.0
H4325 H 0.3313 0.1756 0.24257 0.0
H4326 H 0.31958 0.17471 0.21386 0.0
H4327 H 0.33471 0.19264 0.22543 0.0
C4328 C 0.30712 0.1779 0.13244 0.0
C4329 C 0.30819 0.19196 0.13791 0.0
C4330 C 0.3177 0.17432 0.14375 0.0
C4331 C 0.32936 0.18458 0.16126 0.0
C4332 C 0.33024 0.19849 0.16691 0.0
H4333 H 0.40041 0.1837 0.26247 0.0
H4334 H 0.38243 0.18981 0.24034 0.0
C4335 C 0.31984 0.20208 0.15536 0.0
C4336 C 0.34081 0.18106 0.17334 0.0
H4337 H 0.35425 0.17581 0.23467 0.0
C4338 C 0.3512 0.18002 0.15578 0.0
C4339 C 0.34208 0.17961 0.20217 0.0
C4340 C 0.33127 0.18058 0.22218 0.0
C4341 C 0.36297 0.17793 0.16619 0.0
C4342 C 0.3641 0.17614 0.19511 0.0
C4343 C 0.35358 0.17713 0.21259 0.0
C4344 C 0.37589 0.17312 0.2077 0.0
C4345 C 0.37441 0.17838 0.14592 0.0
C4346 C 0.3786 0.16186 0.19695 0.0
C4347 C 0.38938 0.15892 0.20895 0.0
C4348 C 0.39719 0.16645 0.23294 0.0
C4349 C 0.39456 0.17768 0.24394 0.0
C4350 C 0.38414 0.18105 0.23136 0.0
H4351 H 0.37533 0.18525 0.12745 0.0
H4352 H 0.38579 0.18317 0.15537 0.0
H4353 H 0.3707 0.16673 0.13864 0.0
H4354 H 0.37222 0.1551 0.17944 0.0
H4355 H 0.39151 0.15058 0.19961 0.0
H4356 H 0.83048 0.13074 0.10067 0.0
H4357 H 0.83582 0.15424 0.12327 0.0
H4358 H 0.85694 0.1443 0.19085 0.0
H4359 H 0.85152 0.12053 0.16814 0.0
H4360 H 0.82637 0.15929 0.17216 0.0
H4361 H 0.8889 0.18737 0.17305 0.0
H4362 H 0.87732 0.17051 0.15316 0.0
H4363 H 0.87971 0.16923 0.18968 0.0
C4364 C 0.83629 0.1335 0.12035 0.0
C4365 C 0.84052 0.12363 0.13257 0.0
C4366 C 0.83936 0.14704 0.13328 0.0
C4367 C 0.84697 0.1513 0.15873 0.0
C4368 C 0.85134 0.14153 0.17097 0.0
H4369 H 0.87381 0.22829 0.26883 0.0
H4370 H 0.86839 0.20471 0.24638 0.0
C4371 C 0.84822 0.12789 0.15798 0.0
C4372 C 0.84993 0.16579 0.17239 0.0
H4373 H 0.87799 0.19972 0.19732 0.0
C4374 C 0.83768 0.16814 0.17757 0.0
C4375 C 0.86466 0.17746 0.17948 0.0
C4376 C 0.87843 0.17613 0.17335 0.0
C4377 C 0.8397 0.18156 0.18998 0.0
C4378 C 0.85444 0.19322 0.19711 0.0
C4379 C 0.86668 0.19087 0.19192 0.0
C4380 C 0.8574 0.20772 0.21073 0.0
C4381 C 0.82594 0.18293 0.19601 0.0
C4382 C 0.85313 0.21753 0.19834 0.0
C4383 C 0.85631 0.23121 0.21123 0.0
C4384 C 0.86397 0.23546 0.23668 0.0
C4385 C 0.86806 0.22553 0.24909 0.0
C4386 C 0.86493 0.21196 0.23625 0.0
H4387 H 0.81545 0.1717 0.19622 0.0
H4388 H 0.82703 0.18853 0.21621 0.0
H4389 H 0.82473 0.18987 0.17969 0.0
H4390 H 0.84758 0.21477 0.17842 0.0
H4391 H 0.8531 0.23861 0.20095 0.0
H4392 H 0.79303 0.62148 0.20071 0.0
H4393 H 0.81682 0.63999 0.17811 0.0
H4394 H 0.82714 0.67027 0.24707 0.0
H4395 H 0.80363 0.65197 0.26959 0.0
H4396 H 0.82689 0.67184 0.16386 0.0
H4397 H 0.86603 0.66707 0.23727 0.0
H4398 H 0.84641 0.65262 0.23402 0.0
H4399 H 0.85151 0.66967 0.25285 0.0
C4400 C 0.80048 0.63199 0.2112 0.0
C4401 C 0.79638 0.63513 0.2371 0.0
C4402 C 0.81405 0.64263 0.19817 0.0
C4403 C 0.82398 0.65655 0.21094 0.0
C4404 C 0.81991 0.6596 0.23686 0.0
H4405 H 0.91175 0.73671 0.16963 0.0
H4406 H 0.88781 0.71825 0.19187 0.0
C4407 C 0.80636 0.64908 0.24971 0.0
C4408 C 0.83846 0.66803 0.19725 0.0
H4409 H 0.87703 0.68706 0.20476 0.0
C4410 C 0.83784 0.67508 0.17272 0.0
C4411 C 0.85284 0.67246 0.20881 0.0
C4412 C 0.85435 0.66501 0.23457 0.0
C4413 C 0.85108 0.68648 0.1598 0.0
C4414 C 0.86548 0.6909 0.17134 0.0
C4415 C 0.86609 0.68384 0.19588 0.0
C4416 C 0.88 0.70243 0.15775 0.0
C4417 C 0.84951 0.69398 0.13417 0.0
C4418 C 0.88376 0.6998 0.13121 0.0
C4419 C 0.89736 0.71033 0.11853 0.0
C4420 C 0.90776 0.72382 0.132 0.0
C4421 C 0.90398 0.72655 0.15851 0.0
C4422 C 0.89033 0.71593 0.17132 0.0
H4423 H 0.83794 0.69229 0.13209 0.0
H4424 H 0.85775 0.70631 0.13432 0.0
H4425 H 0.85182 0.689 0.11573 0.0
H4426 H 0.87626 0.68944 0.12036 0.0
H4427 H 0.89981 0.70778 0.0981 0.0
H4428 H 0.16296 0.38967 0.34441 0.0
H4429 H 0.16864 0.37101 0.36457 0.0
H4430 H 0.18993 0.36981 0.28838 0.0
H4431 H 0.18483 0.38883 0.26865 0.0
H4432 H 0.15992 0.34266 0.3502 0.0
H4433 H 0.22226 0.37612 0.34184 0.0
H4434 H 0.21043 0.38433 0.33603 0.0
H4435 H 0.21313 0.37372 0.30911 0.0
C4436 C 0.16899 0.38552 0.33212 0.0
C4437 C 0.17366 0.39087 0.30513 0.0
C4438 C 0.17221 0.37484 0.34361 0.0
C4439 C 0.18005 0.36924 0.32825 0.0
C4440 C 0.18436 0.37432 0.30103 0.0
H4441 H 0.20779 0.30227 0.35776 0.0
H4442 H 0.20205 0.32093 0.33758 0.0
C4443 C 0.18138 0.38516 0.28972 0.0
C4444 C 0.18332 0.35777 0.34037 0.0
H4445 H 0.21172 0.35004 0.3528 0.0
C4446 C 0.17126 0.34432 0.35092 0.0
C4447 C 0.19813 0.35989 0.34129 0.0
C4448 C 0.21173 0.37436 0.33171 0.0
C4449 C 0.17354 0.33285 0.36182 0.0
C4450 C 0.18833 0.33494 0.36254 0.0
C4451 C 0.20038 0.34839 0.35205 0.0
C4452 C 0.19162 0.32349 0.37459 0.0
C4453 C 0.15999 0.31847 0.37192 0.0
C4454 C 0.1879 0.31891 0.40216 0.0
C4455 C 0.19103 0.3082 0.41355 0.0
C4456 C 0.19824 0.30206 0.3978 0.0
C4457 C 0.20224 0.30683 0.37035 0.0
C4458 C 0.19896 0.31747 0.35885 0.0
H4459 H 0.14935 0.31676 0.3624 0.0
H4460 H 0.16116 0.30844 0.36738 0.0
H4461 H 0.15896 0.3192 0.39462 0.0
H4462 H 0.18267 0.32371 0.41501 0.0
H4463 H 0.18801 0.30491 0.43491 0.0
H4464 H 0.63795 0.78044 0.34695 0.0
H4465 H 0.65639 0.80485 0.36727 0.0
H4466 H 0.66734 0.8247 0.28587 0.0
H4467 H 0.64825 0.80064 0.26591 0.0
H4468 H 0.68538 0.82174 0.36301 0.0
H4469 H 0.66104 0.85561 0.32217 0.0
H4470 H 0.65131 0.83529 0.3193 0.0
H4471 H 0.66598 0.84692 0.29509 0.0
C4472 C 0.64425 0.79009 0.33353 0.0
C4473 C 0.64155 0.78877 0.30497 0.0
C4474 C 0.65478 0.80403 0.3451 0.0
C4475 C 0.66302 0.81685 0.32826 0.0
C4476 C 0.66073 0.81527 0.29954 0.0
H4477 H 0.73343 0.91039 0.35692 0.0
H4478 H 0.71471 0.88591 0.33726 0.0
C4479 C 0.6499 0.80147 0.28809 0.0
C4480 C 0.67429 0.83169 0.34066 0.0
H4481 H 0.68549 0.86936 0.34225 0.0
C4482 C 0.68532 0.83213 0.3586 0.0
C4483 C 0.67433 0.84534 0.33492 0.0
C4484 C 0.66243 0.84576 0.31704 0.0
C4485 C 0.69651 0.84576 0.37041 0.0
C4486 C 0.69659 0.85942 0.36456 0.0
C4487 C 0.68554 0.85897 0.34669 0.0
C4488 C 0.70802 0.87429 0.37661 0.0
C4489 C 0.70836 0.84534 0.38841 0.0
C4490 C 0.71039 0.87608 0.4053 0.0
C4491 C 0.72138 0.88992 0.41639 0.0
C4492 C 0.72984 0.90243 0.39915 0.0
C4493 C 0.72709 0.90088 0.37061 0.0
C4494 C 0.71638 0.88691 0.35942 0.0
H4495 H 0.70962 0.83537 0.38365 0.0
H4496 H 0.71954 0.85571 0.38589 0.0
H4497 H 0.70488 0.84442 0.41036 0.0
H4498 H 0.70371 0.8668 0.41921 0.0
H4499 H 0.72306 0.89093 0.43856 0.0
H4500 H 0.25209 0.8734 0.34208 0.0
H4501 H 0.22778 0.86837 0.3614 0.0
H4502 H 0.20429 0.83689 0.29546 0.0
H4503 H 0.22842 0.84181 0.27603 0.0
H4504 H 0.19551 0.86054 0.30786 0.0
H4505 H 0.19518 0.82684 0.39856 0.0
H4506 H 0.21241 0.84424 0.39151 0.0
H4507 H 0.20595 0.82879 0.36768 0.0
C4508 C 0.24175 0.86535 0.33179 0.0
C4509 C 0.24221 0.85797 0.30758 0.0
C4510 C 0.22788 0.86248 0.34285 0.0
C4511 C 0.21425 0.8522 0.32991 0.0
C4512 C 0.21468 0.84485 0.30577 0.0
H4513 H 0.11866 0.81983 0.36106 0.0
H4514 H 0.14291 0.82526 0.34089 0.0
C4515 C 0.2285 0.84763 0.2948 0.0
C4516 C 0.19951 0.84915 0.3414 0.0
H4517 H 0.17523 0.83213 0.3953 0.0
C4518 C 0.19104 0.8543 0.32693 0.0
C4519 C 0.19373 0.84099 0.36624 0.0
C4520 C 0.20218 0.83477 0.38195 0.0
C4521 C 0.17701 0.8517 0.33694 0.0
C4522 C 0.17123 0.84355 0.36181 0.0
C4523 C 0.1797 0.83838 0.37624 0.0
C4524 C 0.15652 0.84049 0.37348 0.0
C4525 C 0.16859 0.85797 0.32124 0.0
C4526 C 0.15612 0.84716 0.39856 0.0
C4527 C 0.14233 0.84412 0.41007 0.0
C4528 C 0.1286 0.8342 0.39689 0.0
C4529 C 0.12902 0.82754 0.37169 0.0
C4530 C 0.14286 0.83067 0.36011 0.0
H4531 H 0.17575 0.86621 0.30516 0.0
H4532 H 0.15861 0.84856 0.31097 0.0
H4533 H 0.16446 0.8636 0.33558 0.0
H4534 H 0.16652 0.85474 0.40925 0.0
H4535 H 0.14243 0.84938 0.42957 0.0
H4536 H 0.74245 0.84245 0.8658 0.0
H4537 H 0.72411 0.84812 0.84364 0.0
H4538 H 0.69513 0.83063 0.91488 0.0
H4539 H 0.71342 0.82534 0.93716 0.0
H4540 H 0.69361 0.82855 0.8297 0.0
H4541 H 0.69771 0.87144 0.90472 0.0
H4542 H 0.71151 0.86534 0.90313 0.0
H4543 H 0.69377 0.85392 0.92043 0.0
C4544 C 0.73227 0.84004 0.87687 0.0
C4545 C 0.72946 0.83345 0.9033 0.0
C4546 C 0.72172 0.84318 0.8641 0.0
C4547 C 0.70823 0.84003 0.87765 0.0
C4548 C 0.70551 0.83351 0.90409 0.0
H4549 H 0.62881 0.84887 0.83778 0.0
H4550 H 0.64709 0.84291 0.85928 0.0
C4551 C 0.71598 0.83036 0.91676 0.0
C4552 C 0.69683 0.84319 0.86412 0.0
H4553 H 0.67743 0.86232 0.8726 0.0
C4554 C 0.69017 0.83603 0.83901 0.0
C4555 C 0.69216 0.85286 0.87621 0.0
C4556 C 0.69924 0.86145 0.90247 0.0
C4557 C 0.67888 0.83801 0.82607 0.0
C4558 C 0.67418 0.84766 0.83821 0.0
C4559 C 0.68086 0.85484 0.86328 0.0
C4560 C 0.6627 0.85077 0.82485 0.0
C4561 C 0.67181 0.82944 0.79979 0.0
C4562 C 0.66527 0.8572 0.79836 0.0
C4563 C 0.65482 0.86051 0.78605 0.0
C4564 C 0.64154 0.85769 0.79997 0.0
C4565 C 0.63885 0.8511 0.82639 0.0
C4566 C 0.64936 0.84779 0.83877 0.0
H4567 H 0.67334 0.81945 0.79753 0.0
H4568 H 0.65954 0.82556 0.79909 0.0
H4569 H 0.6773 0.83698 0.78184 0.0
H4570 H 0.67554 0.85996 0.78728 0.0
H4571 H 0.65728 0.8655 0.76563 0.0
H4572 H 0.16354 0.77935 0.8417 0.0
H4573 H 0.1684 0.80337 0.86224 0.0
H4574 H 0.18969 0.82642 0.78644 0.0
H4575 H 0.18332 0.80214 0.7652 0.0
H4576 H 0.19114 0.82808 0.87577 0.0
H4577 H 0.16413 0.8443 0.79411 0.0
H4578 H 0.16263 0.82596 0.79462 0.0
H4579 H 0.17922 0.84212 0.78062 0.0
C4580 C 0.16913 0.78957 0.82942 0.0
C4581 C 0.17281 0.78883 0.80173 0.0
C4582 C 0.17198 0.80337 0.84118 0.0
C4583 C 0.17904 0.81693 0.82582 0.0
C4584 C 0.18356 0.81623 0.79857 0.0
H4585 H 0.20706 0.91202 0.86139 0.0
H4586 H 0.20188 0.88788 0.84085 0.0
C4587 C 0.18016 0.80233 0.7865 0.0
C4588 C 0.18188 0.8317 0.83851 0.0
H4589 H 0.17865 0.86316 0.82721 0.0
C4590 C 0.18829 0.83566 0.86511 0.0
C4591 C 0.17827 0.84185 0.82493 0.0
C4592 C 0.17055 0.83827 0.79714 0.0
C4593 C 0.19146 0.84937 0.87807 0.0
C4594 C 0.1879 0.85954 0.86444 0.0
C4595 C 0.18149 0.85557 0.83786 0.0
C4596 C 0.19082 0.87434 0.87705 0.0
C4597 C 0.19907 0.8529 0.90597 0.0
C4598 C 0.18613 0.87506 0.90415 0.0
C4599 C 0.1896 0.88898 0.91617 0.0
C4600 C 0.19725 0.90251 0.90106 0.0
C4601 C 0.20116 0.90177 0.87352 0.0
C4602 C 0.19816 0.88791 0.86178 0.0
H4603 H 0.20542 0.84681 0.90919 0.0
H4604 H 0.20702 0.8652 0.90853 0.0
H4605 H 0.19033 0.84911 0.92236 0.0
H4606 H 0.17984 0.86486 0.91621 0.0
H4607 H 0.18635 0.88919 0.93739 0.0
H4608 H 0.12698 0.28629 0.86992 0.0
H4609 H 0.15104 0.30425 0.84775 0.0
H4610 H 0.15934 0.33677 0.91201 0.0
H4611 H 0.13622 0.31856 0.93516 0.0
H4612 H 0.16065 0.33088 0.82528 0.0
H4613 H 0.19931 0.34012 0.91238 0.0
H4614 H 0.17978 0.32538 0.91301 0.0
H4615 H 0.18502 0.34456 0.92183 0.0
C4616 C 0.13411 0.29716 0.87957 0.0
C4617 C 0.12951 0.30099 0.90421 0.0
C4618 C 0.14784 0.30751 0.86677 0.0
C4619 C 0.15732 0.32192 0.8783 0.0
C4620 C 0.15266 0.32566 0.90292 0.0
H4621 H 0.24194 0.4029 0.82833 0.0
H4622 H 0.21798 0.38483 0.85061 0.0
C4623 C 0.13919 0.31526 0.91596 0.0
C4624 C 0.17176 0.33323 0.86425 0.0
H4625 H 0.2095 0.35771 0.87519 0.0
C4626 C 0.17134 0.33662 0.83621 0.0
C4627 C 0.18583 0.34094 0.87833 0.0
C4628 C 0.18755 0.33746 0.90796 0.0
C4629 C 0.18436 0.34752 0.82213 0.0
C4630 C 0.19838 0.35525 0.83625 0.0
C4631 C 0.19881 0.35192 0.86429 0.0
C4632 C 0.2128 0.36648 0.82221 0.0
C4633 C 0.18283 0.35088 0.79233 0.0
C4634 C 0.21804 0.3623 0.79887 0.0
C4635 C 0.2316 0.37266 0.78593 0.0
C4636 C 0.24056 0.38744 0.79629 0.0
C4637 C 0.23535 0.39165 0.81971 0.0
C4638 C 0.22167 0.38128 0.83255 0.0
H4639 H 0.17101 0.34775 0.78725 0.0
H4640 H 0.19034 0.36304 0.78748 0.0
H4641 H 0.18601 0.34414 0.7788 0.0
H4642 H 0.21174 0.35092 0.79076 0.0
H4643 H 0.23511 0.36898 0.76783 0.0
H4644 H 0.85553 0.72579 0.60759 0.0
H4645 H 0.86073 0.70682 0.62716 0.0
H4646 H 0.83103 0.70045 0.69547 0.0
H4647 H 0.82559 0.71936 0.67577 0.0
H4648 H 0.87314 0.70599 0.67681 0.0
H4649 H 0.81478 0.65734 0.66843 0.0
H4650 H 0.82065 0.67516 0.65139 0.0
H4651 H 0.81618 0.67305 0.68761 0.0
C4652 C 0.8501 0.7204 0.62683 0.0
C4653 C 0.84005 0.72404 0.64003 0.0
C4654 C 0.85309 0.70952 0.63798 0.0
C4655 C 0.84609 0.70199 0.66255 0.0
C4656 C 0.8363 0.70583 0.67615 0.0
H4657 H 0.85189 0.63523 0.76411 0.0
H4658 H 0.84612 0.65356 0.74342 0.0
C4659 C 0.83328 0.71672 0.66496 0.0
C4660 C 0.84925 0.69029 0.67396 0.0
H4661 H 0.83255 0.65303 0.69241 0.0
C4662 C 0.86427 0.6944 0.68009 0.0
C4663 C 0.83768 0.67514 0.67822 0.0
C4664 C 0.82143 0.66983 0.67085 0.0
C4665 C 0.868 0.68386 0.6908 0.0
C4666 C 0.85643 0.66873 0.6951 0.0
C4667 C 0.84141 0.66462 0.68901 0.0
C4668 C 0.85963 0.65713 0.70682 0.0
C4669 C 0.88424 0.6891 0.69811 0.0
C4670 C 0.86891 0.65276 0.69285 0.0
C4671 C 0.8722 0.64216 0.7046 0.0
C4672 C 0.8663 0.63578 0.73059 0.0
C4673 C 0.85665 0.63989 0.74407 0.0
C4674 C 0.85336 0.65042 0.73231 0.0
H4675 H 0.89112 0.70163 0.69943 0.0
H4676 H 0.88498 0.68422 0.71814 0.0
H4677 H 0.88925 0.68524 0.68196 0.0
H4678 H 0.87365 0.65757 0.67288 0.0
H4679 H 0.87953 0.63912 0.69357 0.0
H4680 H 0.31358 0.11262 0.67567 0.0
H4681 H 0.3324 0.13703 0.69542 0.0
H4682 H 0.32478 0.16028 0.62851 0.0
H4683 H 0.30604 0.1361 0.60881 0.0
H4684 H 0.35913 0.15979 0.67144 0.0
H4685 H 0.32047 0.18158 0.69629 0.0
H4686 H 0.31371 0.16195 0.68825 0.0
H4687 H 0.31937 0.1757 0.66101 0.0
C4688 C 0.31587 0.12294 0.66527 0.0
C4689 C 0.30826 0.12238 0.6407 0.0
C4690 C 0.32663 0.13688 0.67656 0.0
C4691 C 0.32985 0.15051 0.66368 0.0
C4692 C 0.32227 0.14996 0.63917 0.0
H4693 H 0.39263 0.24631 0.69501 0.0
H4694 H 0.37413 0.22193 0.67473 0.0
C4695 C 0.31156 0.13608 0.62789 0.0
C4696 C 0.34146 0.16533 0.6753 0.0
H4697 H 0.3468 0.19918 0.69931 0.0
C4698 C 0.35642 0.16837 0.6777 0.0
C4699 C 0.33794 0.17657 0.68333 0.0
C4700 C 0.32198 0.17378 0.68236 0.0
C4701 C 0.36798 0.18239 0.68747 0.0
C4702 C 0.36446 0.19363 0.69545 0.0
C4703 C 0.34951 0.1906 0.69304 0.0
C4704 C 0.37604 0.20841 0.70719 0.0
C4705 C 0.38393 0.18517 0.68867 0.0
C4706 C 0.38322 0.20893 0.7322 0.0
C4707 C 0.39372 0.2228 0.74384 0.0
C4708 C 0.39723 0.23652 0.73085 0.0
C4709 C 0.39016 0.23598 0.7056 0.0
C4710 C 0.37957 0.22206 0.694 0.0
H4711 H 0.38544 0.17723 0.67515 0.0
H4712 H 0.39219 0.19694 0.68243 0.0
H4713 H 0.38655 0.1835 0.71018 0.0
H4714 H 0.38049 0.19859 0.74301 0.0
H4715 H 0.39886 0.22274 0.76337 0.0
H4716 H 0.91828 0.20018 0.67607 0.0
H4717 H 0.89418 0.19432 0.69733 0.0
H4718 H 0.87175 0.17796 0.61896 0.0
H4719 H 0.89571 0.18326 0.59795 0.0
H4720 H 0.87578 0.20501 0.68743 0.0
H4721 H 0.84427 0.14338 0.66731 0.0
H4722 H 0.86439 0.1547 0.66204 0.0
H4723 H 0.85145 0.15425 0.6363 0.0
C4724 C 0.90816 0.19521 0.66347 0.0
C4725 C 0.90882 0.192 0.63546 0.0
C4726 C 0.8944 0.19188 0.67561 0.0
C4727 C 0.88102 0.18537 0.65995 0.0
C4728 C 0.88176 0.18248 0.63176 0.0
H4729 H 0.78737 0.15952 0.692 0.0
H4730 H 0.81169 0.16526 0.67186 0.0
C4731 C 0.89548 0.18559 0.61972 0.0
C4732 C 0.86645 0.18212 0.67293 0.0
H4733 H 0.82981 0.15434 0.68302 0.0
C4734 C 0.86575 0.1939 0.6866 0.0
C4735 C 0.85333 0.16763 0.67189 0.0
C4736 C 0.85341 0.15424 0.65884 0.0
C4737 C 0.85226 0.19172 0.69862 0.0
C4738 C 0.8391 0.17725 0.69738 0.0
C4739 C 0.83984 0.16545 0.68388 0.0
C4740 C 0.82441 0.1741 0.70971 0.0
C4741 C 0.85223 0.2051 0.71182 0.0
C4742 C 0.82336 0.177 0.73776 0.0
C4743 C 0.80953 0.17401 0.74913 0.0
C4744 C 0.79637 0.16767 0.73288 0.0
C4745 C 0.79734 0.16446 0.70498 0.0
C4746 C 0.81123 0.1677 0.69349 0.0
H4747 H 0.86153 0.21598 0.70376 0.0
H4748 H 0.84134 0.2048 0.70829 0.0
H4749 H 0.85393 0.20488 0.73441 0.0
H4750 H 0.8332 0.18143 0.751 0.0
H4751 H 0.80906 0.17631 0.77085 0.0
H4752 H 0.97768 0.53989 0.50483 0.0
H4753 H 0.9971 0.53552 0.52528 0.0
H4754 H 0.98928 0.50299 0.46121 0.0
H4755 H 0.97127 0.50895 0.43905 0.0
H4756 H 0.99831 0.51451 0.54833 0.0
H4757 H 0.03291 0.52442 0.45467 0.0
H4758 H 1.01749 0.5282 0.45537 0.0
H4759 H 1.01403 0.50927 0.44939 0.0
C4760 C 0.98046 0.53215 0.49477 0.0
C4761 C 0.97337 0.5252 0.46987 0.0
C4762 C 0.99145 0.52945 0.50666 0.0
C4763 C 0.9953 0.51926 0.49447 0.0
C4764 C 0.98731 0.51149 0.47051 0.0
H4765 H 0.05341 0.48257 0.53734 0.0
H4766 H 0.03522 0.48885 0.51781 0.0
C4767 C 0.97674 0.51466 0.45805 0.0
C4768 C 1.00729 0.51659 0.50728 0.0
H4769 H 0.03828 0.51308 0.49269 0.0
C4770 C 1.00711 0.51437 0.53606 0.0
C4771 C 0.01901 0.51642 0.49168 0.0
C4772 C 0.02098 0.51987 0.46115 0.0
C4773 C 1.01781 0.51158 0.54934 0.0
C4774 C 0.02924 0.51101 0.5336 0.0
C4775 C 0.02954 0.51339 0.50492 0.0
C4776 C 0.04053 0.50729 0.54607 0.0
C4777 C 1.01644 0.50883 0.5801 0.0
C4778 C 0.04997 0.51558 0.56836 0.0
C4779 C 0.06011 0.51154 0.58011 0.0
C4780 C 0.06122 0.49929 0.56958 0.0
C4781 C 0.05235 0.49155 0.54662 0.0
C4782 C 0.04208 0.49536 0.53517 0.0
H4783 H 1.00499 0.50568 0.58779 0.0
H4784 H 1.01888 0.49973 0.58578 0.0
H4785 H 0.02469 0.51936 0.59084 0.0
H4786 H 0.04953 0.52519 0.57671 0.0
H4787 H 0.06699 0.51791 0.59755 0.0
H4788 H 0.55328 0.57606 0.5481 0.0
H4789 H 0.54665 0.55163 0.52854 0.0
H4790 H 0.50135 0.53348 0.55986 0.0
H4791 H 0.5083 0.55842 0.57956 0.0
H4792 H 0.53782 0.52502 0.55283 0.0
H4793 H 0.49276 0.5187 0.4809 0.0
H4794 H 0.50532 0.53636 0.4978 0.0
H4795 H 0.48957 0.52163 0.51626 0.0
C4796 C 0.54205 0.56695 0.55117 0.0
C4797 C 0.53157 0.56934 0.56582 0.0
C4798 C 0.53813 0.55286 0.53971 0.0
C4799 C 0.52343 0.5405 0.54244 0.0
C4800 C 0.51272 0.5428 0.55687 0.0
H4801 H 0.49971 0.44587 0.51027 0.0
H4802 H 0.50486 0.46978 0.5321 0.0
C4803 C 0.51671 0.55708 0.56821 0.0
C4804 C 0.51972 0.52536 0.53061 0.0
H4805 H 0.49671 0.49778 0.48472 0.0
C4806 C 0.52876 0.51906 0.53806 0.0
C4807 C 0.50809 0.51756 0.51088 0.0
C4808 C 0.49845 0.52394 0.50073 0.0
C4809 C 0.52643 0.50532 0.52664 0.0
C4810 C 0.51464 0.49742 0.50733 0.0
C4811 C 0.50566 0.50372 0.4997 0.0
C4812 C 0.51172 0.48284 0.49429 0.0
C4813 C 0.53693 0.49956 0.53463 0.0
C4814 C 0.5136 0.48202 0.46568 0.0
C4815 C 0.51043 0.46831 0.45317 0.0
C4816 C 0.50551 0.45512 0.46901 0.0
C4817 C 0.50382 0.45594 0.49767 0.0
C4818 C 0.50674 0.46961 0.51013 0.0
H4819 H 0.54685 0.50807 0.54654 0.0
H4820 H 0.53074 0.48928 0.54756 0.0
H4821 H 0.54101 0.4964 0.5159 0.0
H4822 H 0.51746 0.492 0.45295 0.0
H4823 H 0.51179 0.46799 0.43103 0.0
H4824 H 0.57628 0.07155 0.49746 0.0
H4825 H 0.55232 0.05329 0.51989 0.0
H4826 H 0.54588 0.01973 0.4592 0.0
H4827 H 0.5692 0.03791 0.43622 0.0
H4828 H 0.52134 0.03555 0.49574 0.0
H4829 H 0.543 0.99915 0.53604 0.0
H4830 H 0.55528 0.01838 0.52487 0.0
H4831 H 0.54621 1.00346 0.49982 0.0
C4832 C 0.56971 0.06032 0.48881 0.0
C4833 C 0.57498 0.05618 0.46533 0.0
C4834 C 0.55601 0.04985 0.50171 0.0
C4835 C 0.54735 0.03495 0.49164 0.0
C4836 C 0.55242 0.03098 0.46782 0.0
H4837 H 0.46206 0.95293 0.53748 0.0
H4838 H 0.48586 0.9715 0.51498 0.0
C4839 C 0.56589 0.04145 0.45475 0.0
C4840 C 0.53298 0.0235 0.50562 0.0
H4841 H 0.51653 0.98932 0.53921 0.0
C4842 C 0.52034 0.02551 0.50538 0.0
C4843 C 0.53151 1.01027 0.51817 0.0
C4844 C 0.54474 1.00767 0.52005 0.0
C4845 C 0.50635 0.01461 0.51683 0.0
C4846 C 0.50486 1.00135 0.52929 0.0
C4847 C 0.51751 0.99936 0.52956 0.0
C4848 C 0.49049 0.98979 0.54312 0.0
C4849 C 0.49316 0.0173 0.51522 0.0
C4850 C 0.48528 0.99364 0.56689 0.0
C4851 C 0.47191 0.98299 0.58004 0.0
C4852 C 0.46307 0.9682 0.56957 0.0
C4853 C 0.46845 0.9642 0.54609 0.0
C4854 C 0.48205 0.97486 0.53312 0.0
H4855 H 0.49482 0.02571 0.49903 0.0
H4856 H 0.48252 1.0066 0.51086 0.0
H4857 H 0.49197 0.02175 0.5354 0.0
H4858 H 0.49163 1.00492 0.57547 0.0
H4859 H 0.46847 0.98645 0.59851 0.0
H4860 H 0.53665 0.96516 0.02106 0.0
H4861 H 0.53098 0.98376 1.00051 0.0
H4862 H 0.52094 0.9942 0.08144 0.0
H4863 H 0.52576 0.97505 0.10168 0.0
H4864 H 0.50042 0.99183 0.04597 0.0
H4865 H 0.55663 0.02847 0.99884 0.0
H4866 H 0.54783 1.00934 0.98678 0.0
H4867 H 0.55319 0.01346 0.02255 0.0
C4868 C 0.53328 0.9715 0.03437 0.0
C4869 C 0.53162 0.9687 0.06288 0.0
C4870 C 0.53016 0.98221 0.02268 0.0
C4871 C 0.52583 0.99067 0.03945 0.0
C4872 C 0.52425 0.98787 0.06801 0.0
H4873 H 0.50114 0.06053 1.01207 0.0
H4874 H 0.50669 0.04185 0.03247 0.0
C4875 C 0.527 0.97692 0.07957 0.0
C4876 C 0.52251 1.00214 0.02735 0.0
H4877 H 0.53724 0.03381 0.98697 0.0
C4878 C 0.50851 1.00105 0.03316 0.0
C4879 C 0.53303 0.0142 1.01059 0.0
C4880 C 0.54856 0.01655 1.00453 0.0
C4881 C 0.50462 1.01144 0.02232 0.0
C4882 C 0.51514 0.02349 1.00555 0.0
C4883 C 0.52914 0.02458 0.99976 0.0
C4884 C 0.51188 0.03501 0.99349 0.0
C4885 C 0.48911 1.0091 0.02844 0.0
C4886 C 0.51356 0.03792 0.96496 0.0
C4887 C 0.51089 0.04894 0.95347 0.0
C4888 C 0.50626 0.05712 0.9702 0.0
C4889 C 0.50455 0.05425 0.99871 0.0
C4890 C 0.50758 0.04347 1.01031 0.0
H4891 H 0.48102 0.99717 0.03404 0.0
H4892 H 0.48984 0.01627 0.04628 0.0
H4893 H 0.48449 1.01225 1.01049 0.0
H4894 H 0.51687 0.03159 0.9515 0.0
H4895 H 0.51214 0.05084 0.93137 0.0
H4896 H 0.97774 0.46902 0.93514 0.0
H4897 H 0.99689 0.49297 0.95535 0.0
H4898 H 0.99249 0.47055 0.03318 0.0
H4899 H 0.9738 0.44642 1.01259 0.0
H4900 H 0.99579 0.5095 0.99585 0.0
H4901 H 0.0372 0.49198 0.02509 0.0
H4902 H 0.02107 0.48042 1.00356 0.0
H4903 H 0.01906 0.48028 0.04055 0.0
C4904 C 0.98087 0.46921 0.95657 0.0
C4905 C 0.97431 0.45583 0.97228 0.0
C4906 C 0.99185 0.48291 0.9681 0.0
C4907 C 0.99643 0.4836 0.9957 0.0
C4908 C 0.98957 0.47029 1.01162 0.0
H4909 H 0.05831 0.55631 0.1045 0.0
H4910 H 0.03951 0.53224 0.0839 0.0
C4911 C 0.97877 0.45651 0.99993 0.0
C4912 C 1.00807 0.49833 1.00785 0.0
H4913 H 0.0417 0.51565 0.04266 0.0
C4914 C 1.00586 0.51084 1.00595 0.0
C4915 C 0.02128 0.50018 0.02102 0.0
C4916 C 0.02489 0.48754 0.02245 0.0
C4917 C 1.01625 0.52497 1.01731 0.0
C4918 C 0.02938 0.52677 0.03069 0.0
C4919 C 0.03162 0.51429 0.03254 0.0
C4920 C 0.0409 0.54145 0.04304 0.0
C4921 C 1.01282 0.53772 1.01543 0.0
C4922 C 0.04813 0.55466 0.02692 0.0
C4923 C 0.05873 0.56846 0.03876 0.0
C4924 C 0.06256 0.56928 0.06681 0.0
C4925 C 0.05563 0.55601 0.08278 0.0
C4926 C 0.04487 0.54225 0.07103 0.0
H4927 H 1.00059 0.53344 1.01197 0.0
H4928 H 1.01636 0.54472 0.03448 0.0
H4929 H 0.01907 0.54508 0.99769 0.0
H4930 H 0.04564 0.5543 1.00511 0.0
H4931 H 0.06403 0.57848 0.0259 0.0
H4932 H 0.45063 0.47876 0.03479 0.0
H4933 H 0.47461 0.4832 1.0159 0.0
H4934 H 0.49747 0.52686 0.05572 0.0
H4935 H 0.47377 0.52173 0.07711 0.0
H4936 H 0.49385 0.50081 0.98299 0.0
H4937 H 0.52433 0.51306 0.08258 0.0
H4938 H 0.50441 0.50657 0.08104 0.0
H4939 H 0.51811 0.52632 0.07606 0.0
C4940 C 0.46079 0.48922 0.03988 0.0
C4941 C 0.46033 0.4996 0.05838 0.0
C4942 C 0.47455 0.49181 0.02891 0.0
C4943 C 0.4881 0.50512 0.03523 0.0
C4944 C 0.48741 0.51611 0.0517 0.0
H4945 H 0.57721 0.5465 0.96846 0.0
H4946 H 0.55248 0.53962 0.98654 0.0
C4947 C 0.47376 0.51326 0.06361 0.0
C4948 C 0.50279 0.5075 0.0242 0.0
H4949 H 0.53942 0.51897 0.04178 0.0
C4950 C 0.5037 0.50455 0.99607 0.0
C4951 C 0.51578 0.51233 0.04112 0.0
C4952 C 0.51556 0.51458 0.0719 0.0
C4953 C 0.51718 0.50657 0.98439 0.0
C4954 C 0.53018 0.51196 1.00107 0.0
C4955 C 0.52936 0.51482 0.02912 0.0
C4956 C 0.54504 0.5158 0.98932 0.0
C4957 C 0.51763 0.50327 0.95416 0.0
C4958 C 0.54902 0.50467 0.98447 0.0
C4959 C 0.56331 0.50871 0.97371 0.0
C4960 C 0.57397 0.52399 0.96843 0.0
C4961 C 0.56971 0.5349 0.97316 0.0
C4962 C 0.55543 0.5309 0.98334 0.0
H4963 H 0.5065 0.49904 0.94395 0.0
H4964 H 0.52614 0.5137 0.94344 0.0
H4965 H 0.52118 0.49467 0.95176 0.0
H4966 H 0.54109 0.49292 0.98899 0.0
H4967 H 0.56604 0.49991 0.96981 0.0
H4968 H 0.29117 0.20365 0.99376 0.0
H4969 H 0.30981 0.21048 0.95693 0.0
H4970 H 0.34427 0.22112 0.01846 0.0
H4971 H 0.32504 0.21156 0.0542 0.0
H4972 H 0.32855 0.22894 0.9331 0.0
H4973 H 0.36807 0.21205 0.97518 0.0
H4974 H 0.34989 0.20542 0.99069 0.0
H4975 H 0.36568 0.22395 0.99921 0.0
C4976 C 0.30265 0.20685 0.99937 0.0
C4977 C 0.30622 0.20671 0.02755 0.0
C4978 C 0.31371 0.21119 0.97791 0.0
C4979 C 0.32932 0.21649 0.9832 0.0
C4980 C 0.33274 0.21644 1.01176 0.0
H4981 H 0.41277 0.26769 0.87385 0.0
H4982 H 0.39471 0.25704 0.91274 0.0
C4983 C 0.32149 0.21113 0.03298 0.0
C4984 C 0.34156 0.22261 0.95931 0.0
H4985 H 0.37717 0.22953 0.93856 0.0
C4986 C 0.33889 0.22852 0.93473 0.0
C4987 C 0.35581 0.22284 0.95956 0.0
C4988 C 0.35997 0.21559 0.98242 0.0
C4989 C 0.34924 0.23431 0.91197 0.0
C4990 C 0.36359 0.23505 0.91269 0.0
C4991 C 0.3665 0.22937 0.93719 0.0
C4992 C 0.37535 0.2414 0.88841 0.0
C4993 C 0.34478 0.24021 0.88747 0.0
C4994 C 0.37134 0.23628 0.86082 0.0
C4995 C 0.38178 0.24242 0.83843 0.0
C4996 C 0.39705 0.25401 0.84191 0.0
C4997 C 0.40133 0.25881 0.86961 0.0
C4998 C 0.39079 0.25266 0.89219 0.0
H4999 H 0.33568 0.24278 0.89246 0.0
H5000 H 0.35472 0.25062 0.87994 0.0
H5001 H 0.34058 0.23162 0.87075 0.0
H5002 H 0.35999 0.22733 0.85633 0.0
H5003 H 0.37774 0.23798 0.81794 0.0
H5004 H 0.83913 0.12566 0.02827 0.0
H5005 H 0.83142 0.13726 0.99151 0.0
H5006 H 0.79593 0.09313 0.96724 0.0
H5007 H 0.8035 0.08165 1.00362 0.0
H5008 H 0.82819 0.13515 0.93304 0.0
H5009 H 0.77146 0.11384 0.97755 0.0
H5010 H 0.78597 0.11207 0.99536 0.0
H5011 H 0.77504 0.09884 0.96873 0.0
C5012 C 0.82986 0.11836 1.01482 0.0
C5013 C 0.82207 0.10253 0.01944 0.0
C5014 C 0.8253 0.12507 0.99366 0.0
C5015 C 0.81269 0.11631 0.97625 0.0
C5016 C 0.80539 0.10049 0.98027 0.0
H5017 H 0.75566 0.12954 0.85261 0.0
H5018 H 0.76688 0.12138 0.88829 0.0
C5019 C 0.80991 0.09382 1.00121 0.0
C5020 C 0.80697 0.12339 0.95429 0.0
H5021 H 0.77528 0.12436 0.9328 0.0
C5022 C 0.81659 0.13275 0.93305 0.0
C5023 C 0.7918 0.12051 0.95341 0.0
C5024 C 0.78049 0.11088 0.9751 0.0
C5025 C 0.81148 0.1385 0.91094 0.0
C5026 C 0.79621 0.13566 0.91005 0.0
C5027 C 0.78683 0.12668 0.93204 0.0
C5028 C 0.7894 0.1411 0.88667 0.0
C5029 C 0.82261 0.1469 0.88815 0.0
C5030 C 0.79757 0.15517 0.87251 0.0
C5031 C 0.79119 0.15931 0.85019 0.0
C5032 C 0.776 0.15006 0.84182 0.0
C5033 C 0.7675 0.13673 0.8573 0.0
C5034 C 0.77403 0.13219 0.87854 0.0
H5035 H 0.83166 0.14388 0.88719 0.0
H5036 H 0.81697 0.14442 0.8677 0.0
H5037 H 0.82819 0.15923 0.89226 0.0
H5038 H 0.80901 0.16317 0.87849 0.0
H5039 H 0.79826 0.16978 0.83927 0.0
H5040 H 0.89706 0.62701 0.86324 0.0
H5041 H 0.90467 0.64605 0.89995 0.0
H5042 H 0.87643 0.6618 0.86454 0.0
H5043 H 0.86888 0.64276 0.82733 0.0
H5044 H 0.91521 0.68441 0.88309 0.0
H5045 H 0.87161 0.65135 0.96202 0.0
H5046 H 0.87852 0.64198 0.93958 0.0
H5047 H 0.86707 0.6491 0.92562 0.0
C5048 C 0.89231 0.63441 0.86318 0.0
C5049 C 0.88232 0.63312 0.84168 0.0
C5050 C 0.89671 0.64541 0.8845 0.0
C5051 C 0.89129 0.6557 0.88565 0.0
C5052 C 0.88094 0.6542 0.86466 0.0
H5053 H 0.90673 0.7216 0.02449 0.0
H5054 H 0.89547 0.70292 0.9867 0.0
C5055 C 0.8765 0.64312 0.84325 0.0
C5056 C 0.89693 0.66818 0.90796 0.0
H5057 H 0.89084 0.67573 0.97488 0.0
C5058 C 0.90981 0.68241 0.90308 0.0
C5059 C 0.89001 0.6661 0.93434 0.0
C5060 C 0.87601 0.65136 0.94103 0.0
C5061 C 0.91591 0.69423 0.92323 0.0
C5062 C 0.9094 0.69202 0.95019 0.0
C5063 C 0.89622 0.67783 0.95481 0.0
C5064 C 0.91629 0.70403 0.97359 0.0
C5065 C 0.92916 0.70922 0.91473 0.0
C5066 C 0.93188 0.71132 0.97996 0.0
C5067 C 0.93838 0.72226 1.00131 0.0
C5068 C 0.92969 0.72641 0.01816 0.0
C5069 C 0.91405 0.71917 1.01198 0.0
C5070 C 0.90751 0.70819 0.99032 0.0
H5071 H 0.92918 0.71099 0.89208 0.0
H5072 H 0.92906 0.71881 0.92537 0.0
H5073 H 0.93981 0.70936 0.91989 0.0
H5074 H 0.93916 0.70831 0.96879 0.0
H5075 H 0.95036 0.72716 1.00526 0.0
H5076 H 0.21984 0.32066 0.4837 0.0
H5077 H 0.22835 0.33807 0.52253 0.0
H5078 H 0.21615 0.30077 0.57811 0.0
H5079 H 0.2089 0.2834 0.53843 0.0
H5080 H 0.21962 0.34585 0.56216 0.0
H5081 H 0.25368 0.32528 0.61572 0.0
H5082 H 0.24561 0.31824 0.5822 0.0
H5083 H 0.23424 0.31093 0.61298 0.0
C5084 C 0.21917 0.31603 0.50409 0.0
C5085 C 0.21394 0.30036 0.50708 0.0
C5086 C 0.22398 0.32619 0.52682 0.0
C5087 C 0.22362 0.32138 0.55435 0.0
C5088 C 0.21751 0.30548 0.55763 0.0
H5089 H 0.23797 0.38308 0.70126 0.0
H5090 H 0.22657 0.36362 0.66471 0.0
C5091 C 0.21295 0.29527 0.53461 0.0
C5092 C 0.22937 0.33302 0.5787 0.0
H5093 H 0.25068 0.34399 0.63888 0.0
C5094 C 0.22639 0.34522 0.57877 0.0
C5095 C 0.23848 0.33296 0.60116 0.0
C5096 C 0.24333 0.32126 0.60297 0.0
C5097 C 0.23194 0.35676 0.59959 0.0
C5098 C 0.24078 0.3565 0.62207 0.0
C5099 C 0.24382 0.34441 0.62219 0.0
C5100 C 0.24759 0.36903 0.6445 0.0
C5101 C 0.22878 0.36962 0.59688 0.0
C5102 C 0.26332 0.3791 0.64608 0.0
C5103 C 0.26986 0.39046 0.66683 0.0
C5104 C 0.2611 0.39235 0.68752 0.0
C5105 C 0.24527 0.38245 0.68574 0.0
C5106 C 0.23869 0.37108 0.66472 0.0
H5107 H 0.22298 0.36915 0.57719 0.0
H5108 H 0.22156 0.36927 0.61431 0.0
H5109 H 0.23952 0.38059 0.59799 0.0
H5110 H 0.2707 0.37815 0.63116 0.0
H5111 H 0.28203 0.39761 0.66712 0.0
H5112 H 0.64613 0.86021 0.6978 0.0
H5113 H 0.66531 0.86765 0.66098 0.0
H5114 H 0.655 0.90148 0.633 0.0
H5115 H 0.63608 0.89421 0.66969 0.0
H5116 H 0.65835 0.88634 0.5883 0.0
H5117 H 0.70836 0.90407 0.65551 0.0
H5118 H 0.69213 0.88584 0.6623 0.0
H5119 H 0.69107 0.90266 0.66806 0.0
C5120 C 0.64774 0.86909 0.68361 0.0
C5121 C 0.63912 0.87637 0.6871 0.0
C5122 C 0.65905 0.8736 0.66255 0.0
C5123 C 0.66221 0.88551 0.64374 0.0
C5124 C 0.65323 0.89239 0.6468 0.0
H5125 H 0.74438 0.938 0.53621 0.0
H5126 H 0.72564 0.92761 0.57391 0.0
C5127 C 0.64216 0.88809 0.66799 0.0
C5128 C 0.67435 0.89065 0.62058 0.0
H5129 H 0.7126 0.90595 0.6077 0.0
C5130 C 0.67019 0.89057 0.59277 0.0
C5131 C 0.69008 0.89636 0.62541 0.0
C5132 C 0.69583 0.89737 0.65439 0.0
C5133 C 0.68079 0.89578 0.57043 0.0
C5134 C 0.69664 0.90163 0.57507 0.0
C5135 C 0.70078 0.90171 0.60308 0.0
C5136 C 0.70891 0.90783 0.55172 0.0
C5137 C 0.67453 0.89516 0.54205 0.0
C5138 C 0.70673 0.90041 0.52594 0.0
C5139 C 0.71741 0.90662 0.50401 0.0
C5140 C 0.73137 0.92026 0.50677 0.0
C5141 C 0.73406 0.92737 0.53292 0.0
C5142 C 0.7231 0.92135 0.55474 0.0
H5143 H 0.6644 0.89652 0.54284 0.0
H5144 H 0.68301 0.90404 0.52864 0.0
H5145 H 0.67106 0.88396 0.53268 0.0
H5146 H 0.69656 0.88971 0.52236 0.0
H5147 H 0.71461 0.90066 0.48447 0.0
H5148 H 0.13245 0.82896 0.4923 0.0
H5149 H 0.14326 0.82149 0.53055 0.0
H5150 H 0.09948 0.79749 0.56867 0.0
H5151 H 0.08871 0.8053 0.53063 0.0
H5152 H 0.13495 0.8216 0.60429 0.0
H5153 H 0.12668 0.77119 0.54656 0.0
H5154 H 0.12704 0.7871 0.52942 0.0
H5155 H 0.11087 0.77429 0.54975 0.0
C5156 C 0.12512 0.82248 0.5092 0.0
C5157 C 0.10965 0.8184 0.50829 0.0
C5158 C 0.13138 0.81805 0.53129 0.0
C5159 C 0.12248 0.80893 0.55353 0.0
C5160 C 0.10697 0.80473 0.5526 0.0
H5161 H 0.13607 0.75001 0.67132 0.0
H5162 H 0.12852 0.76199 0.63627 0.0
C5163 C 0.10074 0.80937 0.53066 0.0
C5164 C 0.12913 0.80314 0.57637 0.0
H5165 H 0.13563 0.77381 0.5917 0.0
C5166 C 0.13507 0.81114 0.6014 0.0
C5167 C 0.12967 0.78954 0.5736 0.0
C5168 C 0.12335 0.77999 0.54831 0.0
C5169 C 0.14093 0.80583 0.62311 0.0
C5170 C 0.14135 0.79205 0.62025 0.0
C5171 C 0.13558 0.78429 0.59497 0.0
C5172 C 0.14677 0.78489 0.64299 0.0
C5173 C 0.14613 0.81497 0.64934 0.0
C5174 C 0.15999 0.79316 0.65947 0.0
C5175 C 0.16432 0.78611 0.68044 0.0
C5176 C 0.15582 0.77037 0.6858 0.0
C5177 C 0.14311 0.76209 0.66842 0.0
C5178 C 0.13868 0.7691 0.64795 0.0
H5179 H 0.14109 0.82236 0.65172 0.0
H5180 H 0.14314 0.80755 0.66776 0.0
H5181 H 0.15858 0.8224 0.64865 0.0
H5182 H 0.16714 0.80517 0.6562 0.0
H5183 H 0.17417 0.79312 0.69294 0.0
H5184 H 0.65566 0.79069 0.21694 0.0
H5185 H 0.67344 0.80055 0.17841 0.0
H5186 H 0.64311 0.76196 0.12939 0.0
H5187 H 0.62487 0.7526 0.16771 0.0
H5188 H 0.6907 0.7946 0.15431 0.0
H5189 H 0.65321 0.78936 0.0679 0.0
H5190 H 0.64674 0.78646 0.10316 0.0
H5191 H 0.64711 0.77146 0.08406 0.0
C5192 C 0.65246 0.78447 0.19765 0.0
C5193 C 0.63835 0.77092 0.19578 0.0
C5194 C 0.66289 0.79011 0.17532 0.0
C5195 C 0.66004 0.78245 0.14971 0.0
C5196 C 0.64586 0.76881 0.14782 0.0
H5197 H 0.73499 0.79755 0.03496 0.0
H5198 H 0.71605 0.78988 0.07164 0.0
C5199 C 0.63522 0.76331 0.17011 0.0
C5200 C 0.67215 0.78844 0.12624 0.0
H5201 H 0.67785 0.79429 0.05563 0.0
C5202 C 0.68765 0.79448 0.13285 0.0
C5203 C 0.66894 0.78885 0.09754 0.0
C5204 C 0.65313 0.78384 0.08772 0.0
C5205 C 0.69944 0.80036 0.1126 0.0
C5206 C 0.69614 0.80017 0.08394 0.0
C5207 C 0.68075 0.79446 0.07721 0.0
C5208 C 0.70841 0.80554 0.06107 0.0
C5209 C 0.71555 0.80717 0.12235 0.0
C5210 C 0.71099 0.81708 0.04181 0.0
C5211 C 0.72227 0.82179 0.02068 0.0
C5212 C 0.7313 0.81494 1.01741 0.0
C5213 C 0.72866 0.80342 0.03667 0.0
C5214 C 0.71763 0.79893 0.05794 0.0
H5215 H 0.71671 0.8104 0.14451 0.0
H5216 H 0.71931 0.79875 0.11984 0.0
H5217 H 0.72319 0.81735 0.11004 0.0
H5218 H 0.70422 0.82252 0.04304 0.0
H5219 H 0.72347 0.83039 1.00617 0.0
H5220 H 0.19665 0.90127 0.01826 0.0
H5221 H 0.20407 0.89035 0.05659 0.0
H5222 H 0.24726 0.93127 0.06061 0.0
H5223 H 0.23926 0.94258 0.02553 0.0
H5224 H 0.2208 0.88052 0.0692 0.0
H5225 H 0.24523 0.92976 0.13815 0.0
H5226 H 0.23501 0.92943 0.10774 0.0
H5227 H 0.25497 0.93551 0.10595 0.0
C5228 C 0.20752 0.90817 0.02802 0.0
C5229 C 0.21715 0.92306 0.01823 0.0
C5230 C 0.21196 0.90177 0.05003 0.0
C5231 C 0.22633 0.90985 0.06322 0.0
C5232 C 0.23585 0.92464 0.05298 0.0
H5233 H 0.27675 0.87513 0.16645 0.0
H5234 H 0.26669 0.88359 0.12809 0.0
C5235 C 0.23123 0.93118 0.03203 0.0
C5236 C 0.23162 0.90296 0.08661 0.0
H5237 H 0.25328 0.91182 0.14594 0.0
C5238 C 0.22782 0.88753 0.08597 0.0
C5239 C 0.24064 0.91146 0.10977 0.0
C5240 C 0.24403 0.92738 0.11561 0.0
C5241 C 0.23292 0.88087 0.1064 0.0
C5242 C 0.24263 0.88966 0.12833 0.0
C5243 C 0.24619 0.90489 0.1293 0.0
C5244 C 0.24836 0.88316 0.1513 0.0
C5245 C 0.22763 0.86423 0.10485 0.0
C5246 C 0.24164 0.87971 0.17774 0.0
C5247 C 0.24732 0.87468 0.19967 0.0
C5248 C 0.26015 0.87287 0.19667 0.0
C5249 C 0.26673 0.87596 0.16998 0.0
C5250 C 0.26097 0.88099 0.14785 0.0
H5251 H 0.21975 0.85862 0.08734 0.0
H5252 H 0.23752 0.86256 0.10257 0.0
H5253 H 0.22184 0.85866 0.1244 0.0
H5254 H 0.23203 0.8812 0.18172 0.0
H5255 H 0.2418 0.8726 0.21959 0.0
H5256 H 0.14219 0.40023 0.17593 0.0
H5257 H 0.13314 0.38087 0.13975 0.0
H5258 H 0.16497 0.36757 0.16713 0.0
H5259 H 0.17239 0.38554 0.20534 0.0
H5260 H 0.13727 0.37229 0.09783 0.0
H5261 H 0.13662 0.32657 0.15957 0.0
H5262 H 0.14043 0.34404 0.17539 0.0
H5263 H 0.15529 0.34246 0.15797 0.0
C5264 C 0.14731 0.39319 0.17426 0.0
C5265 C 0.1582 0.3948 0.19407 0.0
C5266 C 0.14206 0.38186 0.15318 0.0
C5267 C 0.1476 0.37161 0.15012 0.0
C5268 C 0.15933 0.37408 0.16893 0.0
H5269 H 0.13046 0.30409 1.01152 0.0
H5270 H 0.14213 0.32337 0.04836 0.0
C5271 C 0.16409 0.38495 0.19073 0.0
C5272 C 0.1413 0.35889 0.12735 0.0
H5273 H 0.13314 0.3223 0.11152 0.0
C5274 C 0.13626 0.36137 0.10155 0.0
C5275 C 0.13972 0.34414 0.13048 0.0
C5276 C 0.14315 0.33908 0.15742 0.0
C5277 C 0.13002 0.35022 0.08005 0.0
C5278 C 0.12884 0.33577 0.08302 0.0
C5279 C 0.13403 0.33324 0.10841 0.0
C5280 C 0.12163 0.32313 0.06068 0.0
C5281 C 0.12511 0.35419 0.05355 0.0
C5282 C 0.10598 0.31574 0.05488 0.0
C5283 C 0.09922 0.30446 0.03399 0.0
C5284 C 0.10767 0.29989 1.01731 0.0
C5285 C 0.1233 0.30693 0.02361 0.0
C5286 C 0.13009 0.3182 0.04482 0.0
H5287 H 0.12697 0.36588 0.05373 0.0
H5288 H 0.13156 0.35311 0.03613 0.0
H5289 H 0.11294 0.34622 0.04983 0.0
H5290 H 0.09885 0.3188 0.0665 0.0
H5291 H 0.08721 0.29956 0.03035 0.0
H5292 H 0.8219 0.70675 0.55389 0.0
H5293 H 0.81354 0.68869 0.51559 0.0
H5294 H 0.81661 0.72309 0.46034 0.0
H5295 H 0.82459 0.74123 0.4992 0.0
H5296 H 0.78678 0.67851 0.48056 0.0
H5297 H 0.83843 0.70391 0.41604 0.0
H5298 H 0.83885 0.70871 0.45209 0.0
H5299 H 0.83146 0.71618 0.42686 0.0
C5300 C 0.82092 0.71066 0.53362 0.0
C5301 C 0.82396 0.72574 0.53038 0.0
C5302 C 0.81607 0.70014 0.51139 0.0
C5303 C 0.81427 0.70411 0.48429 0.0
C5304 C 0.81788 0.71938 0.48059 0.0
H5305 H 0.7929 0.65236 0.32415 0.0
H5306 H 0.80255 0.67116 0.3611 0.0
C5307 C 0.82258 0.72993 0.50308 0.0
C5308 C 0.80813 0.69214 0.46078 0.0
H5309 H 0.81745 0.682 0.39898 0.0
C5310 C 0.79352 0.67937 0.46268 0.0
C5311 C 0.81653 0.69287 0.43678 0.0
C5312 C 0.83224 0.70607 0.43265 0.0
C5313 C 0.78701 0.66795 0.44173 0.0
C5314 C 0.79559 0.66823 0.41795 0.0
C5315 C 0.81038 0.68108 0.41636 0.0
C5316 C 0.7895 0.65594 0.39444 0.0
C5317 C 0.77058 0.6562 0.44526 0.0
C5318 C 0.77898 0.64032 0.39898 0.0
C5319 C 0.7725 0.62964 0.37692 0.0
C5320 C 0.77694 0.63367 0.34916 0.0
C5321 C 0.78859 0.64875 0.34484 0.0
C5322 C 0.79438 0.65964 0.36658 0.0
H5323 H 0.76457 0.66051 0.45823 0.0
H5324 H 0.76465 0.65268 0.42512 0.0
H5325 H 0.76973 0.64622 0.4561 0.0
H5326 H 0.77556 0.6361 0.41968 0.0
H5327 H 0.76387 0.61816 0.38168 0.0
H5328 H 0.32455 0.12115 0.55307 0.0
H5329 H 0.34248 0.13077 0.51462 0.0
H5330 H 0.30742 0.10098 0.45893 0.0
H5331 H 0.28935 0.09079 0.49801 0.0
H5332 H 0.34902 0.11004 0.47325 0.0
H5333 H 0.33121 0.14721 0.42218 0.0
H5334 H 0.32823 0.14318 0.45875 0.0
H5335 H 0.31707 0.12875 0.43419 0.0
C5336 C 0.32044 0.11655 0.53271 0.0
C5337 C 0.30517 0.1049 0.52948 0.0
C5338 C 0.33091 0.1222 0.51036 0.0
C5339 C 0.32674 0.11682 0.48309 0.0
C5340 C 0.31131 0.10559 0.47937 0.0
H5341 H 0.38099 0.1526 0.32534 0.0
H5342 H 0.36182 0.14354 0.36192 0.0
C5343 C 0.30079 0.09975 0.50199 0.0
C5344 C 0.33866 0.12261 0.45939 0.0
H5345 H 0.35215 0.14682 0.4034 0.0
C5346 C 0.34956 0.11799 0.45791 0.0
C5347 C 0.33977 0.133 0.43864 0.0
C5348 C 0.32853 0.13846 0.43825 0.0
C5349 C 0.36089 0.12289 0.43674 0.0
C5350 C 0.36259 0.13395 0.41647 0.0
C5351 C 0.35156 0.13858 0.41816 0.0
C5352 C 0.37519 0.14047 0.39344 0.0
C5353 C 0.37028 0.11527 0.436 0.0
C5354 C 0.39001 0.14276 0.3974 0.0
C5355 C 0.40085 0.14728 0.37561 0.0
C5356 C 0.39807 0.15095 0.34891 0.0
C5357 C 0.38389 0.15008 0.3454 0.0
C5358 C 0.37271 0.14476 0.3668 0.0
H5359 H 0.36414 0.10381 0.4454 0.0
H5360 H 0.37334 0.11401 0.41457 0.0
H5361 H 0.38069 0.12196 0.44839 0.0
H5362 H 0.39343 0.14098 0.41748 0.0
H5363 H 0.41154 0.14784 0.37974 0.0
H5364 H 0.94887 0.22809 0.51529 0.0
H5365 H 0.93772 0.23601 0.47879 0.0
H5366 H 0.89458 0.19615 0.49323 0.0
H5367 H 0.90563 0.1891 0.53167 0.0
H5368 H 0.9269 0.22919 0.43225 0.0
H5369 H 0.87686 0.22178 0.48949 0.0
H5370 H 0.89153 0.21982 0.50625 0.0
H5371 H 0.87714 0.20444 0.48624 0.0
C5372 C 0.93695 0.22106 0.51102 0.0
C5373 C 0.92833 0.20799 0.52723 0.0
C5374 C 0.93045 0.22557 0.48963 0.0
C5375 C 0.91488 0.21717 0.48278 0.0
C5376 C 0.90638 0.20355 0.49805 0.0
H5377 H 0.86437 0.23318 0.34316 0.0
H5378 H 0.87184 0.2214 0.38004 0.0
C5379 C 0.91287 0.19922 0.51997 0.0
C5380 C 0.90806 0.22269 0.45967 0.0
H5381 H 0.87805 0.22798 0.44209 0.0
C5382 C 0.91627 0.22898 0.43495 0.0
C5383 C 0.89395 0.2225 0.4617 0.0
C5384 C 0.88442 0.21691 0.48742 0.0
C5385 C 0.91114 0.23489 0.41333 0.0
C5386 C 0.89717 0.23479 0.41545 0.0
C5387 C 0.88873 0.22822 0.43976 0.0
C5388 C 0.89169 0.242 0.39331 0.0
C5389 C 0.92052 0.24068 0.3875 0.0
C5390 C 0.89976 0.25772 0.38813 0.0
C5391 C 0.89536 0.26452 0.3672 0.0
C5392 C 0.88262 0.25604 0.34997 0.0
C5393 C 0.87415 0.24033 0.35571 0.0
C5394 C 0.87855 0.23349 0.37694 0.0
H5395 H 0.93066 0.23933 0.38803 0.0
H5396 H 0.91349 0.23437 0.3695 0.0
H5397 H 0.92431 0.25283 0.38451 0.0
H5398 H 0.90972 0.26489 0.40027 0.0
H5399 H 0.90232 0.27659 0.36402 0.0
H5400 H 0.06748 0.60987 0.18943 0.0
H5401 H 0.04896 0.59868 0.22723 0.0
H5402 H 0.04191 0.55467 0.20646 0.0
H5403 H 0.0601 0.56584 0.16795 0.0
H5404 H 1.01293 0.56185 0.21489 0.0
H5405 H 0.05174 0.57335 0.30349 0.0
H5406 H 0.05734 0.58701 0.27587 0.0
H5407 H 0.05603 0.56911 0.26955 0.0
C5408 C 0.06214 0.59781 0.19293 0.0
C5409 C 0.06563 0.58897 0.17515 0.0
C5410 C 0.05142 0.59134 0.21487 0.0
C5411 C 0.04366 0.57562 0.22045 0.0
C5412 C 0.04743 0.56677 0.20317 0.0
H5413 H 0.98165 0.52769 0.36624 0.0
H5414 H 1.0009 0.53556 0.32934 0.0
C5415 C 0.05808 0.57326 0.18101 0.0
C5416 C 0.03135 0.56857 0.24326 0.0
H5417 H 0.02585 0.56266 0.3138 0.0
C5418 C 1.01588 0.56207 0.23646 0.0
C5419 C 0.03466 0.56843 0.27184 0.0
C5420 C 0.0508 0.57478 0.28096 0.0
C5421 C 1.00407 0.5559 0.25673 0.0
C5422 C 1.00737 0.5562 0.28551 0.0
C5423 C 0.02286 0.56233 0.29223 0.0
C5424 C 0.99506 0.55072 0.30849 0.0
C5425 C 0.98797 0.54877 0.24677 0.0
C5426 C 0.98488 0.55631 0.31022 0.0
C5427 C 0.97379 0.55174 0.3314 0.0
C5428 C 0.97207 0.54124 0.35223 0.0
C5429 C 0.98208 0.53543 0.3505 0.0
C5430 C 0.99338 0.54016 0.32932 0.0
H5431 H 0.98689 0.54482 0.22506 0.0
H5432 H 0.98025 0.53902 0.25989 0.0
H5433 H 0.98428 0.55731 0.24751 0.0
H5434 H 0.98576 0.56467 0.29548 0.0
H5435 H 0.96672 0.55686 0.33188 0.0
H5436 H 0.47154 0.41519 0.33388 0.0
H5437 H 0.46365 0.42639 0.2974 0.0
H5438 H 0.49459 0.47083 0.32835 0.0
H5439 H 0.5027 0.45953 0.36503 0.0
H5440 H 0.46621 0.46832 0.3146 0.0
H5441 H 0.48413 0.44735 0.22549 0.0
H5442 H 0.47237 0.43268 0.24936 0.0
H5443 H 0.49072 0.44746 0.26013 0.0
C5444 C 0.47703 0.4274 0.33274 0.0
C5445 C 0.48816 0.43626 0.35266 0.0
C5446 C 0.47239 0.43391 0.31155 0.0
C5447 C 0.47843 0.44971 0.30906 0.0
C5448 C 0.48958 0.45866 0.32899 0.0
H5449 H 0.46348 0.48881 0.15385 0.0
H5450 H 0.47348 0.48088 0.19229 0.0
C5451 C 0.49444 0.45212 0.35004 0.0
C5452 C 0.4729 0.45658 0.28618 0.0
H5453 H 0.46809 0.45727 0.21557 0.0
C5454 C 0.46668 0.46586 0.29297 0.0
C5455 C 0.47345 0.45387 0.25739 0.0
C5456 C 0.48065 0.44493 0.24749 0.0
C5457 C 0.46093 0.47198 0.27264 0.0
C5458 C 0.46095 0.46879 0.2438 0.0
C5459 C 0.46754 0.4598 0.23712 0.0
C5460 C 0.4548 0.47486 0.22033 0.0
C5461 C 0.4553 0.48227 0.28262 0.0
C5462 C 0.44075 0.47465 0.22181 0.0
C5463 C 0.4351 0.4797 0.19952 0.0
C5464 C 0.44301 0.48494 0.17423 0.0
C5465 C 0.457 0.48519 0.1728 0.0
C5466 C 0.46273 0.48041 0.19511 0.0
H5467 H 0.46047 0.48756 0.30274 0.0
H5468 H 0.45781 0.4914 0.2675 0.0
H5469 H 0.44289 0.47554 0.28572 0.0
H5470 H 0.43372 0.47003 0.2399 0.0
H5471 H 0.4241 0.47872 0.20164 0.0
H5472 H 0.61723 0.06295 0.33418 0.0
H5473 H 0.60599 0.04394 0.29762 0.0
H5474 H 0.56156 0.03163 0.32698 0.0
H5475 H 0.57291 0.05087 0.36388 0.0
H5476 H 0.56282 1.00554 0.31365 0.0
H5477 H 0.58669 0.04439 0.22508 0.0
H5478 H 0.60092 0.04648 0.24927 0.0
H5479 H 0.58673 0.05104 0.25962 0.0
C5480 C 0.60503 0.05649 0.33268 0.0
C5481 C 0.59617 0.05898 0.35222 0.0
C5482 C 0.59851 0.04543 0.31144 0.0
C5483 C 0.58269 0.03606 0.3085 0.0
C5484 C 0.57374 0.0385 0.32802 0.0
H5485 H 0.54467 0.98357 0.15236 0.0
H5486 H 0.55281 1.00137 0.19094 0.0
C5487 C 0.5803 0.04978 0.34919 0.0
C5488 C 0.57579 0.0238 0.28554 0.0
H5489 H 0.57631 0.0183 0.21523 0.0
C5490 C 0.56578 1.00844 0.29213 0.0
C5491 C 0.57917 0.02706 0.25692 0.0
C5492 C 0.58883 0.04314 0.24715 0.0
C5493 C 0.55953 0.99664 0.27174 0.0
C5494 C 0.5634 0.99982 0.24313 0.0
C5495 C 0.57319 0.01528 0.23663 0.0
C5496 C 0.55722 0.98773 0.2196 0.0
C5497 C 0.5484 0.98088 0.28135 0.0
C5498 C 0.55646 0.97345 0.22146 0.0
C5499 C 0.55127 0.96283 0.1991 0.0
C5500 C 0.54691 0.96609 0.17342 0.0
C5501 C 0.54763 0.98029 0.17162 0.0
C5502 C 0.55253 0.99072 0.19398 0.0
H5503 H 0.5429 0.98106 0.30105 0.0
H5504 H 0.53945 0.97469 0.26571 0.0
H5505 H 0.55447 0.97458 0.28514 0.0
H5506 H 0.56041 0.97057 0.23995 0.0
H5507 H 0.55144 0.95237 0.20149 0.0
H5508 H 0.4208 0.96234 0.70017 0.0
H5509 H 0.43235 0.9816 0.73622 0.0
H5510 H 0.47653 0.99215 0.70806 0.0
H5511 H 0.46486 0.97294 0.67138 0.0
H5512 H 0.4481 0.98655 0.77999 0.0
H5513 H 0.48573 0.0346 0.7129 0.0
H5514 H 0.47177 0.0166 0.69888 0.0
H5515 H 0.48948 0.01921 0.71153 0.0
C5516 C 0.43301 0.96861 0.70162 0.0
C5517 C 0.44169 0.96574 0.68227 0.0
C5518 C 0.43973 0.97987 0.72252 0.0
C5519 C 0.45559 0.98908 0.72537 0.0
C5520 C 0.46434 0.98587 0.70659 0.0
H5521 H 0.49943 0.04656 0.87675 0.0
H5522 H 0.49184 0.02831 0.83844 0.0
C5523 C 0.45757 0.97451 0.6856 0.0
C5524 C 0.46251 1.0015 0.74822 0.0
H5525 H 0.48775 0.03941 0.76112 0.0
C5526 C 0.4569 0.99803 0.77555 0.0
C5527 C 0.47394 0.01688 0.74351 0.0
C5528 C 0.48052 0.02215 0.71511 0.0
C5529 C 0.46218 1.00891 0.79744 0.0
C5530 C 0.47345 0.02428 0.7928 0.0
C5531 C 0.47914 0.02785 0.76548 0.0
C5532 C 0.47916 0.03656 0.81584 0.0
C5533 C 0.45463 1.00393 0.82511 0.0
C5534 C 0.47517 0.04803 0.81665 0.0
C5535 C 0.47987 0.05887 0.83861 0.0
C5536 C 0.4888 0.0588 0.86097 0.0
C5537 C 0.49284 0.04739 0.86001 0.0
C5538 C 0.48835 0.03673 0.83792 0.0
H5539 H 0.44899 0.99147 0.82769 0.0
H5540 H 0.46269 1.00937 0.84237 0.0
H5541 H 0.44587 1.00727 0.82629 0.0
H5542 H 0.46801 0.0484 0.80055 0.0
H5543 H 0.47597 0.06697 0.83862 0.0
H5544 H 0.05399 0.49622 0.66485 0.0
H5545 H 0.03456 0.48795 0.70133 0.0
H5546 H 0.05216 0.4617 0.73877 0.0
H5547 H 0.07143 0.46991 0.70257 0.0
H5548 H 0.02184 0.44471 0.73841 0.0
H5549 H 0.03453 0.50025 0.78032 0.0
H5550 H 0.03073 0.49809 0.7439 0.0
H5551 H 0.04726 0.49826 0.75712 0.0
C5552 C 0.05405 0.48903 0.68123 0.0
C5553 C 0.06473 0.48402 0.68033 0.0
C5554 C 0.04273 0.48415 0.70237 0.0
C5555 C 0.04152 0.47406 0.72381 0.0
C5556 C 0.05241 0.46936 0.72306 0.0
H5557 H 0.99191 0.45568 0.88389 0.0
H5558 H 1.00938 0.46531 0.84477 0.0
C5559 C 0.06369 0.47426 0.70215 0.0
C5560 C 0.02897 0.46804 0.74641 0.0
H5561 H 1.01295 0.47884 0.79824 0.0
C5562 C 0.01998 0.45229 0.75135 0.0
C5563 C 0.02608 0.47751 0.76408 0.0
C5564 C 0.0352 0.49447 0.76138 0.0
C5565 C 1.00864 0.44598 0.77251 0.0
C5566 C 1.00572 0.45545 0.79023 0.0
C5567 C 1.01475 0.47122 0.78529 0.0
C5568 C 0.99408 0.44946 0.81451 0.0
C5569 C 1.00014 0.42903 0.77577 0.0
C5570 C 0.97895 0.43733 0.81184 0.0
C5571 C 0.96872 0.43165 0.83478 0.0
C5572 C 0.97305 0.43783 0.86164 0.0
C5573 C 0.98792 0.45032 0.86397 0.0
C5574 C 0.99809 0.45597 0.84118 0.0
H5575 H 1.00687 0.42394 0.76817 0.0
H5576 H 0.99701 0.42561 0.79755 0.0
H5577 H 0.98962 0.42425 0.76333 0.0
H5578 H 0.97492 0.43209 0.79187 0.0
H5579 H 0.95751 0.42209 0.83156 0.0
H5580 H 0.56021 0.6084 0.70461 0.0
H5581 H 0.56832 0.5974 0.74121 0.0
H5582 H 0.54594 0.55444 0.69961 0.0
H5583 H 0.53784 0.56555 0.66274 0.0
H5584 H 0.55589 0.57645 0.78012 0.0
H5585 H 0.58501 0.55523 0.71282 0.0
H5586 H 0.57859 0.56763 0.70011 0.0
H5587 H 0.56541 0.54788 0.70469 0.0
C5588 C 0.55677 0.59652 0.70321 0.0
C5589 C 0.54813 0.58808 0.68007 0.0
C5590 C 0.56157 0.59014 0.72446 0.0
C5591 C 0.55828 0.5749 0.72391 0.0
C5592 C 0.54926 0.56627 0.70112 0.0
H5593 H 0.57281 0.53462 0.88096 0.0
H5594 H 0.56205 0.54177 0.84266 0.0
C5595 C 0.54428 0.57265 0.6799 0.0
C5596 C 0.56409 0.56836 0.74723 0.0
H5597 H 0.5839 0.54955 0.76019 0.0
C5598 C 0.562 0.57058 0.77543 0.0
C5599 C 0.57227 0.56055 0.74243 0.0
C5600 C 0.57561 0.55774 0.71344 0.0
C5601 C 0.56749 0.56545 0.79794 0.0
C5602 C 0.57563 0.55756 0.79319 0.0
C5603 C 0.57782 0.55544 0.76493 0.0
C5604 C 0.58203 0.5517 0.81674 0.0
C5605 C 0.56464 0.56902 0.82677 0.0
C5606 C 0.59676 0.55345 0.8157 0.0
C5607 C 0.60279 0.54854 0.83761 0.0
C5608 C 0.59448 0.54167 0.862 0.0
C5609 C 0.57973 0.53968 0.86282 0.0
C5610 C 0.57358 0.54418 0.8407 0.0
H5611 H 0.56341 0.57924 0.82709 0.0
H5612 H 0.5539 0.55943 0.83455 0.0
H5613 H 0.57387 0.57091 0.84109 0.0
H5614 H 0.60392 0.55907 0.7981 0.0
H5615 H 0.61431 0.5508 0.83595 0.0
H5616 H 0.23749 0.2534 0.38594 0.0
H5617 H 0.24462 0.24363 0.34595 0.0
H5618 H 0.20646 0.23951 0.30106 0.0
H5619 H 0.199 0.24901 0.34172 0.0
H5620 H 0.23164 0.21661 0.3157 0.0
H5621 H 0.23953 0.26146 0.24244 0.0
H5622 H 0.23787 0.26324 0.27921 0.0
H5623 H 0.2213 0.25183 0.25881 0.0
C5624 C 0.23037 0.25034 0.36779 0.0
C5625 C 0.2174 0.25214 0.36825 0.0
C5626 C 0.2346 0.24465 0.34436 0.0
C5627 C 0.22647 0.24072 0.31911 0.0
C5628 C 0.21342 0.24246 0.3194 0.0
H5629 H 0.24489 0.2143 0.14914 0.0
H5630 H 0.2354 0.22189 0.18916 0.0
C5631 C 0.20895 0.24786 0.34324 0.0
C5632 C 0.23162 0.23477 0.29341 0.0
H5633 H 0.24221 0.2415 0.22427 0.0
C5634 C 0.23391 0.22218 0.29579 0.0
C5635 C 0.2348 0.24153 0.26652 0.0
C5636 C 0.23341 0.25534 0.26141 0.0
C5637 C 0.23858 0.21617 0.27318 0.0
C5638 C 0.24207 0.22308 0.24626 0.0
C5639 C 0.2398 0.23574 0.24399 0.0
C5640 C 0.24775 0.21741 0.22064 0.0
C5641 C 0.23899 0.20184 0.27859 0.0
C5642 C 0.25821 0.21201 0.22278 0.0
C5643 C 0.26338 0.2071 0.19934 0.0
C5644 C 0.25866 0.2074 0.17186 0.0
C5645 C 0.24854 0.21313 0.16953 0.0
C5646 C 0.24318 0.2178 0.19297 0.0
H5647 H 0.23121 0.19519 0.29563 0.0
H5648 H 0.23577 0.19455 0.25996 0.0
H5649 H 0.25057 0.20479 0.28502 0.0
H5650 H 0.26299 0.21202 0.24267 0.0
H5651 H 0.27168 0.20363 0.20276 0.0
H5652 H 0.79865 0.05456 0.17825 0.0
H5653 H 0.79248 0.0385 0.2184 0.0
H5654 H 0.83232 0.03506 0.20482 0.0
H5655 H 0.83945 0.05287 0.1662 0.0
H5656 H 0.78283 0.01446 0.23499 0.0
H5657 H 0.83902 0.03319 0.2802 0.0
H5658 H 0.83657 0.04376 0.25302 0.0
H5659 H 0.83799 0.02716 0.24519 0.0
C5660 C 0.80661 0.05099 0.18405 0.0
C5661 C 0.82011 0.05609 0.16834 0.0
C5662 C 0.80278 0.04122 0.20754 0.0
C5663 C 0.81178 0.03506 0.21695 0.0
C5664 C 0.82509 0.03971 0.20056 0.0
H5665 H 0.79325 0.96371 0.35187 0.0
H5666 H 0.80261 0.9804 0.31082 0.0
C5667 C 0.82925 0.05006 0.17749 0.0
C5668 C 0.80665 0.0237 0.24259 0.0
H5669 H 0.81883 1.0109 0.29848 0.0
C5670 C 0.79102 0.01412 0.24872 0.0
C5671 C 0.81657 0.0222 0.2619 0.0
C5672 C 0.83345 0.0322 0.25999 0.0
C5673 C 0.78534 1.00384 0.27185 0.0
C5674 C 0.79524 1.0023 0.29088 0.0
C5675 C 0.81084 1.01156 0.28467 0.0
C5676 C 0.78964 0.99169 0.31725 0.0
C5677 C 0.76844 0.99442 0.27517 0.0
C5678 C 0.77924 0.99196 0.33635 0.0
C5679 C 0.77393 0.98239 0.36016 0.0
C5680 C 0.77852 0.97169 0.36702 0.0
C5681 C 0.7891 0.97146 0.34818 0.0
C5682 C 0.79458 0.98123 0.32423 0.0
H5683 H 0.76251 0.99282 0.25516 0.0
H5684 H 0.76504 0.98312 0.28397 0.0
H5685 H 0.76458 1.00038 0.28927 0.0
H5686 H 0.77522 0.99984 0.33317 0.0
H5687 H 0.76599 0.98347 0.37342 0.0
H5688 H 0.97381 0.7909 0.17294 0.0
H5689 H 0.99146 0.80113 0.21253 0.0
H5690 H 0.99649 0.76176 0.21114 0.0
H5691 H 0.98053 0.75251 0.17097 0.0
H5692 H 0.99624 0.79854 0.26278 0.0
H5693 H 0.03869 0.78626 0.21999 0.0
H5694 H 0.02293 0.78373 0.19949 0.0
H5695 H 0.02113 0.76896 0.2226 0.0
C5696 C 0.97879 0.78444 0.18068 0.0
C5697 C 0.9752 0.77058 0.1674 0.0
C5698 C 0.9891 0.79038 0.20392 0.0
C5699 C 0.99646 0.78286 0.21562 0.0
C5700 C 0.99227 0.76878 0.2029 0.0
H5701 H 0.05455 0.79022 0.36184 0.0
H5702 H 0.03798 0.78335 0.32159 0.0
C5703 C 0.98247 0.76314 0.1795 0.0
C5704 C 1.00801 0.7892 0.24079 0.0
H5705 H 0.04031 0.79082 0.26839 0.0
C5706 C 1.00591 0.79688 0.26344 0.0
C5707 C 0.02122 0.78763 0.24327 0.0
C5708 C 0.02622 0.78136 0.21992 0.0
C5709 C 1.0157 0.80221 0.28742 0.0
C5710 C 0.02851 0.80011 0.29017 0.0
C5711 C 0.0307 0.79258 0.26752 0.0
C5712 C 0.0394 0.80505 0.31611 0.0
C5713 C 1.01182 0.80971 0.31026 0.0
C5714 C 0.04674 0.81987 0.32791 0.0
C5715 C 0.05674 0.82401 0.35146 0.0
C5716 C 0.05994 0.81355 0.36497 0.0
C5717 C 0.05267 0.79885 0.35294 0.0
C5718 C 0.04297 0.79481 0.32932 0.0
H5719 H 0.99985 0.80698 0.30908 0.0
H5720 H 1.01382 0.80624 0.33084 0.0
H5721 H 0.0191 0.82215 0.30841 0.0
H5722 H 0.04491 0.82848 0.31873 0.0
H5723 H 0.06173 0.83542 0.35936 0.0
H5724 H 0.80894 0.78298 0.64871 0.0
H5725 H 0.80198 0.79266 0.68904 0.0
H5726 H 0.8209 0.77247 0.74201 0.0
H5727 H 0.82914 0.76421 0.70141 0.0
H5728 H 0.78571 0.78766 0.72652 0.0
H5729 H 0.83523 0.80408 0.793 0.0
H5730 H 0.83527 0.79898 0.75752 0.0
H5731 H 0.82672 0.78455 0.78393 0.0
C5732 C 0.81215 0.781 0.66892 0.0
C5733 C 0.82031 0.77311 0.67072 0.0
C5734 C 0.80788 0.78649 0.69269 0.0
C5735 C 0.81098 0.78413 0.72042 0.0
C5736 C 0.81877 0.77574 0.72208 0.0
H5737 H 0.77638 0.79479 0.88723 0.0
H5738 H 0.7862 0.78779 0.84712 0.0
C5739 C 0.82351 0.7707 0.69819 0.0
C5740 C 0.80561 0.78989 0.74651 0.0
H5741 H 0.81376 0.80238 0.81484 0.0
C5742 C 0.79223 0.79104 0.74543 0.0
C5743 C 0.81341 0.79461 0.77261 0.0
C5744 C 0.82852 0.79566 0.77682 0.0
C5745 C 0.78671 0.79619 0.76814 0.0
C5746 C 0.79431 0.80047 0.79421 0.0
C5747 C 0.80754 0.79924 0.79556 0.0
C5748 C 0.78856 0.80568 0.82013 0.0
C5749 C 0.77233 0.79666 0.76412 0.0
C5750 C 0.78653 0.81858 0.82041 0.0
C5751 C 0.78118 0.82302 0.84438 0.0
C5752 C 0.77721 0.81469 0.86953 0.0
C5753 C 0.77929 0.80188 0.86904 0.0
C5754 C 0.78497 0.7977 0.84553 0.0
H5755 H 0.76603 0.79029 0.74547 0.0
H5756 H 0.76486 0.79193 0.78243 0.0
H5757 H 0.77514 0.8086 0.7617 0.0
H5758 H 0.78915 0.82538 0.80192 0.0
H5759 H 0.7797 0.83278 0.84279 0.0
H5760 H 0.20765 0.98121 0.88319 0.0
H5761 H 0.21517 0.99873 0.84338 0.0
H5762 H 0.23362 0.97391 0.80337 0.0
H5763 H 0.22494 0.95597 0.84134 0.0
H5764 H 0.2379 0.01956 0.81774 0.0
H5765 H 0.21662 0.97691 0.73536 0.0
H5766 H 0.21227 0.97153 0.77099 0.0
H5767 H 0.22987 0.97472 0.7561 0.0
C5768 C 0.21286 0.9791 0.86556 0.0
C5769 C 0.21542 0.96661 0.86653 0.0
C5770 C 0.21748 0.98948 0.8424 0.0
C5771 C 0.22497 0.98811 0.8185 0.0
C5772 C 0.22752 0.97563 0.81986 0.0
H5773 H 0.26862 0.03853 0.66034 0.0
H5774 H 0.25901 0.02204 0.70061 0.0
C5775 C 0.22276 0.96526 0.84263 0.0
C5776 C 0.23035 0.99954 0.79301 0.0
H5777 H 0.23427 1.00192 0.72137 0.0
C5778 C 0.23687 0.01545 0.79677 0.0
C5779 C 0.22937 0.9951 0.76452 0.0
C5780 C 0.22152 0.97865 0.75644 0.0
C5781 C 0.24256 0.02639 0.77442 0.0
C5782 C 0.24186 0.02191 0.74606 0.0
C5783 C 0.23524 1.00603 0.74233 0.0
C5784 C 0.24811 0.03309 0.72035 0.0
C5785 C 0.24984 0.04289 0.78188 0.0
C5786 C 0.24559 0.04552 0.71579 0.0
C5787 C 0.25129 0.05534 0.69192 0.0
C5788 C 0.25986 0.05338 0.67078 0.0
C5789 C 0.26222 0.04091 0.67534 0.0
C5790 C 0.25655 0.03117 0.69899 0.0
H5791 H 0.25371 0.04493 0.80371 0.0
H5792 H 0.25967 0.0499 0.76835 0.0
H5793 H 0.24144 0.04667 0.77936 0.0
H5794 H 0.23891 0.04763 0.73054 0.0
H5795 H 0.24895 0.06452 0.69015 0.0
H5796 H 0.997 0.23265 0.65364 0.0
H5797 H 1.0133 0.23932 0.69403 0.0
H5798 H 0.97907 0.19986 0.73611 0.0
H5799 H 0.96318 0.19261 0.69451 0.0
H5800 H 1.01812 0.24923 0.73904 0.0
H5801 H 1.00832 0.19316 0.7705 0.0
H5802 H 1.00128 0.19578 0.73816 0.0
H5803 H 0.99101 0.19356 0.76989 0.0
C5804 C 0.99287 0.22507 0.67119 0.0
C5805 C 0.97842 0.21176 0.66947 0.0
C5806 C 1.00242 0.22908 0.6951 0.0
C5807 C 0.99831 0.22026 0.71969 0.0
C5808 C 0.98363 0.20699 0.71815 0.0
H5809 H 0.04178 0.2403 0.89172 0.0
H5810 H 0.02469 0.23045 0.85155 0.0
C5811 C 0.97415 0.20277 0.69382 0.0
C5812 C 1.00914 0.22539 0.7461 0.0
H5813 H 0.02141 0.21301 0.80247 0.0
C5814 C 1.01874 0.24103 0.75233 0.0
C5815 C 1.01073 0.21541 0.76513 0.0
C5816 C 1.00242 0.19857 0.7605 0.0
C5817 C 0.02908 0.24663 0.77546 0.0
C5818 C 0.03047 0.23667 0.79452 0.0
C5819 C 0.0208 0.22106 0.78871 0.0
C5820 C 0.04165 0.2422 0.82013 0.0
C5821 C 0.03833 0.26349 0.77959 0.0
C5822 C 0.05756 0.25201 0.81762 0.0
C5823 C 0.06762 0.25734 0.84105 0.0
C5824 C 0.0625 0.25344 0.86878 0.0
C5825 C 0.04663 0.24355 0.87126 0.0
C5826 C 0.03662 0.2379 0.8478 0.0
H5827 H 0.03346 0.26956 0.76837 0.0
H5828 H 0.0392 0.26645 0.80185 0.0
H5829 H 0.04992 0.26759 0.77159 0.0
H5830 H 0.06237 0.25568 0.79725 0.0
H5831 H 0.07951 0.265 0.83732 0.0
H5832 H 0.89758 0.60752 0.6761 0.0
H5833 H 0.90468 0.59734 0.63698 0.0
H5834 H 0.87847 0.5526 0.67105 0.0
H5835 H 0.87059 0.56289 0.70946 0.0
H5836 H 0.92017 0.58734 0.62322 0.0
H5837 H 0.86639 0.53557 0.59976 0.0
H5838 H 0.86716 0.5495 0.62353 0.0
H5839 H 0.87228 0.53573 0.63462 0.0
C5840 C 0.89292 0.5954 0.67516 0.0
C5841 C 0.88303 0.58628 0.69661 0.0
C5842 C 0.89722 0.58941 0.65231 0.0
C5843 C 0.89223 0.57375 0.64907 0.0
C5844 C 0.88236 0.56456 0.6708 0.0
H5845 H 0.91683 0.52213 0.52089 0.0
H5846 H 0.90714 0.52949 0.5615 0.0
C5847 C 0.87777 0.57058 0.69354 0.0
C5848 C 0.89792 0.5677 0.62401 0.0
H5849 H 0.88799 0.53825 0.57698 0.0
C5850 C 0.91281 0.57661 0.61329 0.0
C5851 C 0.8891 0.55354 0.60974 0.0
C5852 C 0.87281 0.54308 0.61726 0.0
C5853 C 0.91885 0.57214 0.59047 0.0
C5854 C 0.91001 0.55808 0.57607 0.0
C5855 C 0.89521 0.54901 0.58697 0.0
C5856 C 0.91576 0.55293 0.54991 0.0
C5857 C 0.93514 0.58267 0.58279 0.0
C5858 C 0.92373 0.56295 0.52788 0.0
C5859 C 0.92942 0.55872 0.50456 0.0
C5860 C 0.92744 0.54398 0.50073 0.0
C5861 C 0.91894 0.53361 0.52213 0.0
C5862 C 0.91329 0.53795 0.54588 0.0
H5863 H 0.94174 0.58963 0.60072 0.0
H5864 H 0.94065 0.5764 0.57498 0.0
H5865 H 0.93565 0.59058 0.56653 0.0
H5866 H 0.92554 0.57433 0.52833 0.0
H5867 H 0.93549 0.56732 0.48909 0.0
H5868 H 0.50945 0.39905 0.51818 0.0
H5869 H 0.50262 0.38184 0.55847 0.0
H5870 H 0.45594 0.36025 0.53436 0.0
H5871 H 0.46264 0.37658 0.49435 0.0
H5872 H 0.48771 0.37443 0.60581 0.0
H5873 H 0.45383 0.32198 0.54741 0.0
H5874 H 0.46501 0.33978 0.53009 0.0
H5875 H 0.4463 0.33431 0.54262 0.0
C5876 C 0.49772 0.39054 0.52105 0.0
C5877 C 0.48684 0.38972 0.50162 0.0
C5878 C 0.49367 0.38049 0.54471 0.0
C5879 C 0.47851 0.36881 0.55051 0.0
C5880 C 0.46778 0.36828 0.53124 0.0
H5881 H 0.42461 0.3004 0.68359 0.0
H5882 H 0.43439 0.31736 0.64367 0.0
C5883 C 0.47177 0.37813 0.50781 0.0
C5884 C 0.47374 0.35749 0.57612 0.0
H5885 H 0.45005 0.32003 0.5962 0.0
C5886 C 0.47959 0.36253 0.6032 0.0
C5887 C 0.46306 0.34154 0.57455 0.0
C5888 C 0.45681 0.33404 0.54709 0.0
C5889 C 0.47496 0.35279 0.62735 0.0
C5890 C 0.46405 0.33695 0.62576 0.0
C5891 C 0.4583 0.33191 0.59873 0.0
C5892 C 0.4581 0.32571 0.65141 0.0
C5893 C 0.48152 0.35983 0.65492 0.0
C5894 C 0.4676 0.32359 0.6705 0.0
C5895 C 0.4618 0.31327 0.69374 0.0
C5896 C 0.44608 0.30451 0.69973 0.0
C5897 C 0.43671 0.3066 0.68049 0.0
C5898 C 0.44243 0.31656 0.65711 0.0
H5899 H 0.48658 0.37232 0.65449 0.0
H5900 H 0.47275 0.35514 0.67131 0.0
H5901 H 0.49054 0.35727 0.6605 0.0
H5902 H 0.47971 0.32992 0.66746 0.0
H5903 H 0.46975 0.31254 0.70753 0.0
H5904 H 0.6492 0.08699 0.50377 0.0
H5905 H 0.66553 0.09698 0.54374 0.0
H5906 H 0.6572 0.13433 0.54645 0.0
H5907 H 0.63976 0.12356 0.50716 0.0
H5908 H 0.68934 0.11559 0.56042 0.0
H5909 H 0.65652 0.13342 0.62477 0.0
H5910 H 0.64868 0.1225 0.59384 0.0
H5911 H 0.661 0.14275 0.59196 0.0
C5912 C 0.65044 0.09725 0.51282 0.0
C5913 C 0.64237 0.10399 0.50114 0.0
C5914 C 0.66023 0.10321 0.53632 0.0
C5915 C 0.66309 0.11665 0.55025 0.0
C5916 C 0.6553 0.12369 0.53822 0.0
H5917 H 0.73012 0.16956 0.69168 0.0
H5918 H 0.71328 0.16235 0.65076 0.0
C5919 C 0.64518 0.1175 0.5148 0.0
C5920 C 0.67433 0.12299 0.57604 0.0
H5921 H 0.68137 0.14133 0.63981 0.0
C5922 C 0.68722 0.12106 0.57761 0.0
C5923 C 0.67255 0.13045 0.59982 0.0
C5924 C 0.65888 0.13228 0.60277 0.0
C5925 C 0.69771 0.12607 0.60052 0.0
C5926 C 0.69599 0.13364 0.62399 0.0
C5927 C 0.6833 0.1358 0.62246 0.0
C5928 C 0.70671 0.1386 0.65024 0.0
C5929 C 0.71088 0.12332 0.59898 0.0
C5930 C 0.70915 0.12812 0.66537 0.0
C5931 C 0.71866 0.13225 0.68927 0.0
C5932 C 0.72683 0.14726 0.69994 0.0
C5933 C 0.7245 0.15791 0.68485 0.0
C5934 C 0.7146 0.15366 0.66102 0.0
H5935 H 0.71345 0.12177 0.57733 0.0
H5936 H 0.72118 0.13281 0.60832 0.0
H5937 H 0.70805 0.11284 0.61055 0.0
H5938 H 0.70341 0.11638 0.659 0.0
H5939 H 0.71957 0.12337 0.6996 0.0
H5940 H 0.46 0.17044 0.1895 0.0
H5941 H 0.47038 0.16367 0.14914 0.0
H5942 H 0.43972 0.11658 0.16456 0.0
H5943 H 0.42984 0.12308 0.20467 0.0
H5944 H 0.48508 0.14575 0.13897 0.0
H5945 H 0.4308 0.11727 0.08315 0.0
H5946 H 0.43366 0.1291 0.11283 0.0
H5947 H 0.42975 0.10998 0.11729 0.0
C5948 C 0.45534 0.15861 0.18452 0.0
C5949 C 0.44351 0.14755 0.20132 0.0
C5950 C 0.46141 0.15463 0.16091 0.0
C5951 C 0.4559 0.13937 0.15215 0.0
C5952 C 0.44431 0.12845 0.16923 0.0
H5953 H 0.46452 0.08807 1.00755 0.0
H5954 H 0.45784 0.09741 0.04813 0.0
C5955 C 0.4385 0.13236 0.19284 0.0
C5956 C 0.46192 0.13465 0.12592 0.0
H5957 H 0.45032 0.1139 0.06505 0.0
C5958 C 0.47737 0.13884 0.12282 0.0
C5959 C 0.45238 0.12534 0.104 0.0
C5960 C 0.43575 0.12023 0.10421 0.0
C5961 C 0.48317 0.13387 0.10019 0.0
C5962 C 0.47364 0.12469 0.07789 0.0
C5963 C 0.45819 0.12072 0.08104 0.0
C5964 C 0.47889 0.11865 0.05207 0.0
C5965 C 0.49953 0.13806 0.10161 0.0
C5966 C 0.49332 0.12666 0.03855 0.0
C5967 C 0.4975 0.12077 1.01498 0.0
C5968 C 0.48735 0.10663 1.00257 0.0
C5969 C 0.47299 0.09885 1.01574 0.0
C5970 C 0.46899 0.10447 0.03952 0.0
H5971 H 0.50386 0.14053 0.12313 0.0
H5972 H 0.50122 0.12884 0.09351 0.0
H5973 H 0.50638 0.14845 0.08926 0.0
H5974 H 0.50149 0.13785 0.04556 0.0
H5975 H 0.50858 0.12761 1.00595 0.0
H5976 H 0.86095 0.29844 0.19224 0.0
H5977 H 0.86797 0.31567 0.15192 0.0
H5978 H 0.9143 0.3271 0.16109 0.0
H5979 H 0.9076 0.31051 0.2008 0.0
H5980 H 0.88755 0.34734 0.14044 0.0
H5981 H 0.91059 0.3177 0.08004 0.0
H5982 H 0.8996 0.30958 0.11091 0.0
H5983 H 0.91933 0.3236 0.11328 0.0
C5984 C 0.87265 0.3045 0.18581 0.0
C5985 C 0.88343 0.30233 0.20082 0.0
C5986 C 0.87678 0.3146 0.16227 0.0
C5987 C 0.89188 0.32298 0.1518 0.0
C5988 C 0.90252 0.3209 0.16708 0.0
H5989 H 0.94408 0.38272 1.008 0.0
H5990 H 0.93421 0.36629 0.04803 0.0
C5991 C 0.8985 0.31112 0.19057 0.0
C5992 C 0.89674 0.33378 0.12564 0.0
H5993 H 0.91611 0.34168 0.0633 0.0
C5994 C 0.89369 0.3459 0.12358 0.0
C5995 C 0.90507 0.33271 0.10276 0.0
C5996 C 0.90875 0.32014 0.1016 0.0
C5997 C 0.89889 0.3567 0.10101 0.0
C5998 C 0.90716 0.35557 0.0779 0.0
C5999 C 0.90999 0.34327 0.08 0.0
C6000 C 0.9134 0.36688 0.05223 0.0
C6001 C 0.89597 0.36974 0.10326 0.0
C6002 C 0.90569 0.37372 0.03908 0.0
C6003 C 0.91173 0.38378 1.01555 0.0
C6004 C 0.92576 0.38745 1.00303 0.0
C6005 C 0.93329 0.38053 1.01604 0.0
C6006 C 0.92744 0.37077 0.03958 0.0
H6007 H 0.89421 0.3719 0.12506 0.0
H6008 H 0.9055 0.38027 0.09469 0.0
H6009 H 0.88552 0.36696 0.0917 0.0
H6010 H 0.89465 0.37105 0.04643 0.0
H6011 H 0.90513 0.38837 1.00677 0.0
H6012 H 0.7453 0.58998 0.1723 0.0
H6013 H 0.72824 0.58106 0.13194 0.0
H6014 H 0.69085 0.57207 0.18493 0.0
H6015 H 0.70799 0.58208 0.2242 0.0
H6016 H 0.70776 0.56062 0.10599 0.0
H6017 H 0.67598 0.58907 0.13344 0.0
H6018 H 0.69231 0.59234 0.15289 0.0
H6019 H 0.67391 0.57624 0.16043 0.0
C6020 C 0.73341 0.58602 0.17555 0.0
C6021 C 0.72841 0.58683 0.20261 0.0
C6022 C 0.7234 0.58088 0.1519 0.0
C6023 C 0.70764 0.5761 0.15356 0.0
C6024 C 0.70269 0.57627 0.18102 0.0
H6025 H 0.62929 0.52857 0.02922 0.0
H6026 H 0.64586 0.53606 0.07049 0.0
C6027 C 0.71271 0.58177 0.20434 0.0
C6028 C 0.69663 0.57086 0.1274 0.0
H6029 H 0.66497 0.57029 0.09862 0.0
C6030 C 0.69853 0.56295 0.10486 0.0
C6031 C 0.6842 0.57365 0.12375 0.0
C6032 C 0.68157 0.58343 0.14373 0.0
C6033 C 0.68881 0.5578 0.08077 0.0
C6034 C 0.67613 0.56004 0.0779 0.0
C6035 C 0.67421 0.56798 0.10011 0.0
C6036 C 0.66542 0.55496 0.05173 0.0
C6037 C 0.69219 0.54979 0.05815 0.0
C6038 C 0.67013 0.56272 0.02614 0.0
C6039 C 0.66044 0.55853 1.00239 0.0
C6040 C 0.64538 0.54605 1.00206 0.0
C6041 C 0.64066 0.53809 0.02757 0.0
C6042 C 0.65031 0.54251 0.05167 0.0
H6043 H 0.70109 0.54713 0.0642 0.0
H6044 H 0.68178 0.53914 0.05248 0.0
H6045 H 0.69605 0.55708 0.03949 0.0
H6046 H 0.68143 0.57235 0.02449 0.0
H6047 H 0.66492 0.56528 0.98388 0.0
H6048 H 0.60795 0.90285 0.83113 0.0
H6049 H 0.59796 0.90932 0.87111 0.0
H6050 H 0.56786 0.86205 0.88687 0.0
H6051 H 0.57858 0.85549 0.84722 0.0
H6052 H 0.57655 0.91045 0.88927 0.0
H6053 H 0.57582 0.8696 0.96439 0.0
H6054 H 0.58454 0.87216 0.93101 0.0
H6055 H 0.56436 0.86018 0.93491 0.0
C6056 C 0.59931 0.89359 0.84301 0.0
C6057 C 0.59454 0.87841 0.83485 0.0
C6058 C 0.59336 0.89744 0.86651 0.0
C6059 C 0.58201 0.88649 0.88401 0.0
C6060 C 0.5769 0.87122 0.87555 0.0
H6061 H 0.53037 0.89765 0.03108 0.0
H6062 H 0.53782 0.88787 0.99063 0.0
C6063 C 0.58301 0.86732 0.85199 0.0
C6064 C 0.57568 0.89132 0.90985 0.0
H6065 H 0.56356 0.88301 0.97831 0.0
C6066 C 0.57388 0.90429 0.90857 0.0
C6067 C 0.57187 0.88388 0.9363 0.0
C6068 C 0.57438 0.8708 0.94195 0.0
C6069 C 0.56857 0.9096 0.93129 0.0
C6070 C 0.5646 0.90206 0.95747 0.0
C6071 C 0.56623 0.88904 0.95885 0.0
C6072 C 0.55954 0.90794 0.9834 0.0
C6073 C 0.56705 0.92339 0.92669 0.0
C6074 C 0.56884 0.9226 0.99453 0.0
C6075 C 0.56464 0.9281 0.01821 0.0
C6076 C 0.55067 0.91962 0.03248 0.0
C6077 C 0.54115 0.90495 0.02128 0.0
C6078 C 0.54555 0.89923 0.99776 0.0
H6079 H 0.56622 0.9254 0.90438 0.0
H6080 H 0.55695 0.92229 0.93744 0.0
H6081 H 0.57719 0.93346 0.9351 0.0
H6082 H 0.57974 0.92991 0.98517 0.0
H6083 H 0.5726 0.93929 0.02552 0.0
H6084 H 0.09084 0.63153 1.01362 0.0
H6085 H 0.10041 0.6481 0.97331 0.0
H6086 H 0.14569 0.66669 1.0047 0.0
H6087 H 0.13604 0.64909 0.04383 0.0
H6088 H 0.11029 0.67296 0.95689 0.0
H6089 H 0.16194 0.67078 0.93349 0.0
H6090 H 0.14832 0.658 0.95799 0.0
H6091 H 0.16223 0.67703 0.9681 0.0
C6092 C 0.10294 0.63882 1.01175 0.0
C6093 C 0.11244 0.6382 0.03258 0.0
C6094 C 0.10858 0.64871 0.98822 0.0
C6095 C 0.12423 0.65916 0.98381 0.0
C6096 C 0.13372 0.65871 1.00515 0.0
H6097 H 0.17519 0.73459 0.85425 0.0
H6098 H 0.16786 0.71766 0.89501 0.0
C6099 C 0.12807 0.64847 0.02839 0.0
C6100 C 0.13003 0.67052 0.9581 0.0
H6101 H 0.15933 0.68974 0.91066 0.0
C6102 C 0.12101 0.6763 0.94698 0.0
C6103 C 0.14414 0.67576 0.94366 0.0
C6104 C 0.15466 0.66998 0.95119 0.0
C6105 C 0.12535 0.68657 0.92379 0.0
C6106 C 0.13944 0.69182 0.90947 0.0
C6107 C 0.14858 0.68623 0.92064 0.0
C6108 C 0.14455 0.7026 0.88314 0.0
C6109 C 0.11466 0.69205 0.91559 0.0
C6110 C 0.13459 0.70035 0.86086 0.0
C6111 C 0.13882 0.71019 0.83741 0.0
C6112 C 0.15348 0.72306 0.8337 0.0
C6113 C 0.16378 0.72512 0.85536 0.0
C6114 C 0.15945 0.71521 0.87921 0.0
H6115 H 0.10755 0.69167 0.93329 0.0
H6116 H 0.12081 0.70381 0.90761 0.0
H6117 H 0.10692 0.68452 0.8993 0.0
H6118 H 0.12328 0.6907 0.86124 0.0
H6119 H 0.13027 0.70753 0.82177 0.0
H6120 H 0.404 0.49999 1.01228 0.0
H6121 H 0.38716 0.49269 0.97153 0.0
H6122 H 0.36139 0.44749 1.0035 0.0
H6123 H 0.37757 0.45481 0.04402 0.0
H6124 H 0.37876 0.47471 0.9273 0.0
H6125 H 0.32578 0.45062 0.98635 0.0
H6126 H 0.34388 0.46108 1.00306 0.0
H6127 H 0.33607 0.44126 0.99523 0.0
C6128 C 0.39464 0.48853 1.01102 0.0
C6129 C 0.3925 0.47824 0.03272 0.0
C6130 C 0.38484 0.48421 0.98714 0.0
C6131 C 0.37218 0.46937 0.98348 0.0
C6132 C 0.37034 0.45914 1.00499 0.0
H6133 H 0.30733 0.41473 0.84809 0.0
H6134 H 0.3241 0.42483 0.88804 0.0
C6135 C 0.38 0.46342 0.02865 0.0
C6136 C 0.36113 0.46444 0.95776 0.0
H6137 H 0.32324 0.44395 0.93854 0.0
C6138 C 0.36664 0.46814 0.9302 0.0
C6139 C 0.34494 0.45576 0.95988 0.0
C6140 C 0.3373 0.45208 0.9877 0.0
C6141 C 0.35697 0.46325 0.90609 0.0
C6142 C 0.34089 0.45428 0.90833 0.0
C6143 C 0.33537 0.45069 0.93576 0.0
C6144 C 0.32984 0.44809 0.88282 0.0
C6145 C 0.36412 0.46739 0.8779 0.0
C6146 C 0.32656 0.45732 0.86526 0.0
C6147 C 0.31624 0.45131 0.84219 0.0
C6148 C 0.30877 0.43573 0.83486 0.0
C6149 C 0.31229 0.42668 0.85238 0.0
C6150 C 0.32219 0.43256 0.8757 0.0
H6151 H 0.37664 0.47307 0.87887 0.0
H6152 H 0.35984 0.45708 0.86491 0.0
H6153 H 0.36089 0.47508 0.86761 0.0
H6154 H 0.332 0.46933 0.86939 0.0
H6155 H 0.31448 0.45905 0.82961 0.0
H6156 H 0.09079 0.45624 0.52928 0.0
H6157 H 0.10079 0.44982 0.48911 0.0
H6158 H 0.14046 0.49383 0.49123 0.0
H6159 H 0.12996 0.50081 0.53103 0.0
H6160 H 0.11064 0.46483 0.43279 0.0
H6161 H 0.15747 0.46272 0.48635 0.0
H6162 H 0.14125 0.46087 0.50483 0.0
H6163 H 0.15536 0.47901 0.49227 0.0
C6164 C 0.10152 0.46494 0.52125 0.0
C6165 C 0.10904 0.47945 0.5342 0.0
C6166 C 0.10742 0.46103 0.49781 0.0
C6167 C 0.12164 0.47107 0.486 0.0
C6168 C 0.12948 0.48552 0.4991 0.0
H6169 H 0.17474 0.45439 0.35044 0.0
H6170 H 0.16712 0.46387 0.39081 0.0
C6171 C 0.12332 0.48964 0.52226 0.0
C6172 C 0.12779 0.46632 0.46026 0.0
H6173 H 0.15485 0.45732 0.43875 0.0
C6174 C 0.12035 0.46326 0.43438 0.0
C6175 C 0.14057 0.46413 0.46094 0.0
C6176 C 0.14918 0.46674 0.48751 0.0
C6177 C 0.1252 0.45859 0.41017 0.0
C6178 C 0.13772 0.45586 0.41091 0.0
C6179 C 0.14526 0.45906 0.4369 0.0
C6180 C 0.14289 0.44971 0.38549 0.0
C6181 C 0.11699 0.45733 0.38356 0.0
C6182 C 0.13239 0.43803 0.3679 0.0
C6183 C 0.13682 0.43277 0.34424 0.0
C6184 C 0.15216 0.43835 0.33653 0.0
C6185 C 0.16282 0.44961 0.35465 0.0
C6186 C 0.15834 0.45511 0.37829 0.0
H6187 H 0.11215 0.46495 0.3836 0.0
H6188 H 0.12457 0.46021 0.3654 0.0
H6189 H 0.10744 0.4456 0.38127 0.0
H6190 H 0.12046 0.43265 0.37246 0.0
H6191 H 0.12793 0.42402 0.33188 0.0
H6192 H 0.5717 0.72103 0.34063 0.0
H6193 H 0.56162 0.70392 0.38107 0.0
H6194 H 0.60084 0.69869 0.38073 0.0
H6195 H 0.61074 0.71541 0.34088 0.0
H6196 H 0.55278 0.67334 0.39323 0.0
H6197 H 0.6012 0.70773 0.46141 0.0
H6198 H 0.59864 0.71494 0.42908 0.0
H6199 H 0.60681 0.70287 0.42972 0.0
C6200 C 0.57832 0.71638 0.34914 0.0
C6201 C 0.59233 0.72008 0.33648 0.0
C6202 C 0.57242 0.70634 0.37265 0.0
C6203 C 0.5803 0.69967 0.38543 0.0
C6204 C 0.59426 0.70348 0.3727 0.0
H6205 H 0.57333 0.64217 0.53137 0.0
H6206 H 0.57987 0.65863 0.49162 0.0
C6207 C 0.59999 0.71322 0.34918 0.0
C6208 C 0.57422 0.68884 0.41135 0.0
H6209 H 0.58421 0.68286 0.47672 0.0
C6210 C 0.55973 0.6756 0.41148 0.0
C6211 C 0.58283 0.69107 0.43602 0.0
C6212 C 0.59817 0.70498 0.4393 0.0
C6213 C 0.55411 0.66479 0.43394 0.0
C6214 C 0.56274 0.66701 0.45871 0.0
C6215 C 0.57715 0.68044 0.4586 0.0
C6216 C 0.55767 0.65567 0.48416 0.0
C6217 C 0.53908 0.65063 0.42991 0.0
C6218 C 0.5427 0.64761 0.49538 0.0
C6219 C 0.53866 0.63746 0.51875 0.0
C6220 C 0.54937 0.63488 0.53289 0.0
C6221 C 0.56429 0.64318 0.52185 0.0
C6222 C 0.56824 0.65304 0.49852 0.0
H6223 H 0.53622 0.64822 0.40766 0.0
H6224 H 0.53901 0.64068 0.43929 0.0
H6225 H 0.53012 0.65215 0.43972 0.0
H6226 H 0.53396 0.64932 0.48655 0.0
H6227 H 0.5271 0.63187 0.52593 0.0
H6228 H 0.41244 0.93329 0.50224 0.0
H6229 H 0.39472 0.92424 0.46337 0.0
H6230 H 0.35942 0.89348 0.51788 0.0
H6231 H 0.37684 0.90365 0.55707 0.0
H6232 H 0.37988 0.90453 0.43103 0.0
H6233 H 0.33146 0.90257 0.48457 0.0
H6234 H 0.34964 0.91052 0.5009 0.0
H6235 H 0.33674 0.89031 0.50142 0.0
C6236 C 0.40089 0.92465 0.50632 0.0
C6237 C 0.39654 0.91942 0.53387 0.0
C6238 C 0.39047 0.91928 0.48345 0.0
C6239 C 0.37487 0.9082 0.48627 0.0
C6240 C 0.37078 0.90247 0.51373 0.0
H6241 H 0.29786 0.85824 0.36038 0.0
H6242 H 0.31479 0.86557 0.40108 0.0
C6243 C 0.38111 0.90811 0.53669 0.0
C6244 C 0.3634 0.90269 0.46089 0.0
H6245 H 0.32619 0.89046 0.44095 0.0
C6246 C 0.36821 0.90163 0.43375 0.0
C6247 C 0.34774 0.8987 0.46241 0.0
C6248 C 0.34112 0.90073 0.48879 0.0
C6249 C 0.35846 0.89678 0.4098 0.0
C6250 C 0.3428 0.89243 0.41159 0.0
C6251 C 0.3379 0.8934 0.43855 0.0
C6252 C 0.33179 0.88754 0.3859 0.0
C6253 C 0.36512 0.89612 0.38242 0.0
C6254 C 0.33486 0.89708 0.3626 0.0
C6255 C 0.32499 0.89289 0.33919 0.0
C6256 C 0.3113 0.87876 0.33696 0.0
C6257 C 0.30813 0.86913 0.36025 0.0
C6258 C 0.31798 0.87345 0.38404 0.0
H6259 H 0.37569 0.89567 0.38506 0.0
H6260 H 0.35697 0.88613 0.37024 0.0
H6261 H 0.36789 0.90643 0.37038 0.0
H6262 H 0.34495 0.90811 0.36255 0.0
H6263 H 0.32823 0.90099 0.32252 0.0
H6264 H 0.32553 0.30942 0.16566 0.0
H6265 H 0.32175 0.33107 0.17249 0.0
H6266 H 0.29478 0.31901 0.09821 0.0
H6267 H 0.29771 0.29716 0.09253 0.0
H6268 H 0.33752 0.34635 0.13051 0.0
H6269 H 0.28543 0.34955 0.12616 0.0
H6270 H 0.2855 0.33304 0.13952 0.0
H6271 H 0.28353 0.33507 0.10294 0.0
C6272 C 0.31821 0.3111 0.1517 0.0
C6273 C 0.31248 0.30224 0.12793 0.0
C6274 C 0.31574 0.32322 0.1559 0.0
C6275 C 0.30851 0.32703 0.13525 0.0
C6276 C 0.30049 0.31649 0.11441 0.0
H6277 H 0.34653 0.39342 1.01493 0.0
H6278 H 0.32709 0.37301 0.04256 0.0
C6279 C 0.3025 0.30414 0.11073 0.0
C6280 C 0.31495 0.3431 0.12784 0.0
H6281 H 0.30637 0.36751 0.09512 0.0
C6282 C 0.33067 0.35115 0.12383 0.0
C6283 C 0.30607 0.3492 0.11804 0.0
C6284 C 0.2892 0.34123 0.12215 0.0
C6285 C 0.3376 0.36448 0.10869 0.0
C6286 C 0.32868 0.37037 0.09823 0.0
C6287 C 0.31309 0.36287 0.10325 0.0
C6288 C 0.33585 0.38424 0.08165 0.0
C6289 C 0.35434 0.37168 0.10271 0.0
C6290 C 0.3465 0.39756 0.09449 0.0
C6291 C 0.35816 0.40879 0.07913 0.0
C6292 C 0.35908 0.40719 0.05026 0.0
C6293 C 0.34679 0.39485 0.03709 0.0
C6294 C 0.33538 0.38328 0.05277 0.0
H6295 H 0.35875 0.3639 0.10715 0.0
H6296 H 0.3568 0.37523 0.08077 0.0
H6297 H 0.36064 0.38187 0.11583 0.0
H6298 H 0.34699 0.39839 0.11684 0.0
H6299 H 0.36711 0.41776 0.09091 0.0
H6300 H 0.62625 0.9456 0.0451 0.0
H6301 H 0.64579 0.94625 0.07588 0.0
H6302 H 0.66021 0.99262 0.0967 0.0
H6303 H 0.64096 0.99204 0.06601 0.0
H6304 H 0.67676 0.96779 0.06857 0.0
H6305 H 0.65763 0.97289 0.17292 0.0
H6306 H 0.64491 0.96519 0.14377 0.0
H6307 H 0.65657 0.98532 0.14792 0.0
C6308 C 0.63384 0.95595 0.05592 0.0
C6309 C 0.63245 0.96886 0.053 0.0
C6310 C 0.64466 0.95621 0.07389 0.0
C6311 C 0.65395 0.96929 0.08926 0.0
C6312 C 0.65274 0.98226 0.08579 0.0
H6313 H 0.73284 0.02826 0.13153 0.0
H6314 H 0.70729 1.01008 0.14427 0.0
C6315 C 0.64206 0.98204 0.0678 0.0
C6316 C 0.66666 0.97047 0.10538 0.0
H6317 H 0.68469 0.98336 0.16705 0.0
C6318 C 0.67838 0.9706 0.0904 0.0
C6319 C 0.66862 0.9744 0.13367 0.0
C6320 C 0.65619 0.97433 0.15058 0.0
C6321 C 0.69269 0.9762 0.10199 0.0
C6322 C 0.69499 0.98085 0.1301 0.0
C6323 C 0.6828 0.97942 0.14583 0.0
C6324 C 0.71045 0.99071 0.14042 0.0
C6325 C 0.70552 0.97889 0.08284 0.0
C6326 C 0.72119 0.98601 0.13841 0.0
C6327 C 0.73593 0.99645 0.13043 0.0
C6328 C 0.73986 1.01154 0.12553 0.0
C6329 C 0.73006 0.01663 0.13445 0.0
C6330 C 0.71535 1.00619 0.14199 0.0
H6331 H 0.70184 0.97616 0.06098 0.0
H6332 H 0.71458 0.99093 0.08368 0.0
H6333 H 0.71034 0.97174 0.08917 0.0
H6334 H 0.71763 0.97408 0.13816 0.0
H6335 H 0.74351 0.99238 0.12461 0.0
H6336 H 1.00198 0.71444 0.14518 0.0
H6337 H 0.01903 0.70624 0.1618 0.0
H6338 H 0.05652 0.74514 0.12426 0.0
H6339 H 0.03961 0.75385 0.10856 0.0
H6340 H 0.02526 0.70333 0.10525 0.0
H6341 H 0.0775 0.72583 0.16836 0.0
H6342 H 0.06125 0.72725 0.17891 0.0
H6343 H 0.07399 0.7399 0.15328 0.0
C6344 C 1.01399 0.72193 0.14223 0.0
C6345 C 0.01942 0.73424 0.12388 0.0
C6346 C 0.02381 0.71724 0.15207 0.0
C6347 C 0.03882 0.72459 0.14271 0.0
C6348 C 0.04485 0.73904 0.13102 0.0
H6349 H 0.07491 0.68897 0.02258 0.0
H6350 H 0.07004 0.70618 0.0506 0.0
C6351 C 0.0351 0.7439 0.12157 0.0
C6352 C 0.04472 0.71506 0.13188 0.0
H6353 H 0.07616 0.71154 0.12783 0.0
C6354 C 0.03626 0.70492 0.11069 0.0
C6355 C 0.0592 0.71746 0.1384 0.0
C6356 C 0.06851 0.72812 0.16113 0.0
C6357 C 0.04203 0.69737 0.09543 0.0
C6358 C 0.05668 0.70009 0.10138 0.0
C6359 C 0.06504 0.70983 0.12305 0.0
C6360 C 0.06265 0.69166 0.08655 0.0
C6361 C 0.0325 0.68661 0.07281 0.0
C6362 C 0.06014 0.67803 0.09777 0.0
C6363 C 0.06247 0.66809 0.08179 0.0
C6364 C 0.06768 0.67171 0.0543 0.0
C6365 C 0.0709 0.68582 0.04357 0.0
C6366 C 0.06832 0.69572 0.0596 0.0
H6367 H 0.02097 0.68516 0.07192 0.0
H6368 H 0.03807 0.69095 0.05254 0.0
H6369 H 0.03145 0.67536 0.07604 0.0
H6370 H 0.05539 0.67461 0.11829 0.0
H6371 H 0.05925 0.65716 0.09069 0.0
H6372 H 0.40856 0.32564 0.46355 0.0
H6373 H 0.38232 0.30868 0.47679 0.0
H6374 H 0.37441 0.34635 0.47865 0.0
H6375 H 0.40015 0.36319 0.46528 0.0
H6376 H 0.34974 0.31822 0.50119 0.0
H6377 H 0.37036 0.3147 0.39594 0.0
H6378 H 0.37824 0.30977 0.42447 0.0
H6379 H 0.3822 0.32895 0.42029 0.0
C6380 C 0.40144 0.33042 0.46826 0.0
C6381 C 0.4061 0.34552 0.46157 0.0
C6382 C 0.3865 0.32074 0.47631 0.0
C6383 C 0.37636 0.32623 0.47694 0.0
C6384 C 0.38203 0.34186 0.4774 0.0
H6385 H 0.3114 0.32248 0.3732 0.0
H6386 H 0.33187 0.32691 0.40498 0.0
C6387 C 0.39688 0.35153 0.46943 0.0
C6388 C 0.36124 0.31704 0.46479 0.0
H6389 H 0.34496 0.30561 0.40133 0.0
C6390 C 0.34852 0.31495 0.47962 0.0
C6391 C 0.35992 0.31345 0.4362 0.0
C6392 C 0.37337 0.31689 0.41817 0.0
C6393 C 0.3346 0.30982 0.46624 0.0
C6394 C 0.33356 0.30663 0.43771 0.0
C6395 C 0.34597 0.30792 0.42335 0.0
C6396 C 0.32056 0.30405 0.42098 0.0
C6397 C 0.32141 0.30887 0.48196 0.0
C6398 C 0.3078 0.28963 0.41914 0.0
C6399 C 0.29625 0.28706 0.40074 0.0
C6400 C 0.2976 0.29881 0.38375 0.0
C6401 C 0.31051 0.31315 0.38533 0.0
C6402 C 0.32194 0.31576 0.40389 0.0
H6403 H 0.32387 0.31111 0.50437 0.0
H6404 H 0.31855 0.31724 0.47347 0.0
H6405 H 0.31134 0.29748 0.47929 0.0
H6406 H 0.30679 0.28046 0.43191 0.0
H6407 H 0.28606 0.27609 0.40038 0.0
H6408 H 0.70392 0.9878 0.38495 0.0
H6409 H 0.7007 1.00444 0.41731 0.0
H6410 H 0.74876 0.03553 0.41553 0.0
H6411 H 0.75197 0.01886 0.38291 0.0
H6412 H 0.71558 0.01515 0.47174 0.0
H6413 H 0.72779 0.06025 0.39422 0.0
H6414 H 0.7228 0.04129 0.38436 0.0
H6415 H 0.74137 0.05401 0.39735 0.0
C6416 C 0.71368 0.99845 0.39083 0.0
C6417 C 0.72812 1.00242 0.38096 0.0
C6418 C 0.7119 1.00773 0.40969 0.0
C6419 C 0.72453 0.02106 0.41889 0.0
C6420 C 0.73892 0.02524 0.40854 0.0
H6421 H 0.70504 0.08626 0.46765 0.0
H6422 H 0.72125 0.07662 0.48382 0.0
C6423 C 0.74071 0.01595 0.3896 0.0
C6424 C 0.72235 0.031 0.43797 0.0
H6425 H 0.72008 0.06297 0.43764 0.0
C6426 C 0.71687 0.02582 0.46472 0.0
C6427 C 0.72411 0.04484 0.42861 0.0
C6428 C 0.72924 0.05046 0.39954 0.0
C6429 C 0.71223 0.03384 0.48186 0.0
C6430 C 0.71305 0.04722 0.47178 0.0
C6431 C 0.71971 0.0529 0.44583 0.0
C6432 C 0.70357 0.05316 0.48295 0.0
C6433 C 0.70572 0.02745 0.50987 0.0
C6434 C 0.68788 0.0434 0.48168 0.0
C6435 C 0.67863 0.04886 0.4725 0.0
C6436 C 0.68503 0.06413 0.46484 0.0
C6437 C 0.7 0.07434 0.47243 0.0
C6438 C 0.70921 0.06885 0.48215 0.0
H6439 H 0.71215 0.02257 0.51972 0.0
H6440 H 0.70582 0.03614 0.5238 0.0
H6441 H 0.69389 0.01811 0.50738 0.0
H6442 H 0.68309 0.03125 0.48256 0.0
H6443 H 0.66703 0.04069 0.46743 0.0
H6444 H 0.01891 0.72024 0.3502 0.0
H6445 H 1.00164 0.69996 0.38026 0.0
H6446 H 1.01766 0.73012 0.45018 0.0
H6447 H 0.03625 0.74963 0.42198 0.0
H6448 H 0.02057 0.70746 0.46092 0.0
H6449 H 0.96311 0.68555 0.41943 0.0
H6450 H 0.97536 0.68595 0.39262 0.0
H6451 H 0.97871 0.70342 0.40824 0.0
C6452 C 1.01889 0.7227 0.37191 0.0
C6453 C 0.02963 0.73674 0.38319 0.0
C6454 C 1.00864 0.71109 0.38905 0.0
C6455 C 1.00839 0.71354 0.41755 0.0
C6456 C 1.01774 0.72797 0.42827 0.0
H6457 H 0.94854 0.62606 0.47315 0.0
H6458 H 0.96026 0.65245 0.488 0.0
C6459 C 0.02836 0.73933 0.41154 0.0
C6460 C 1.00039 0.7007 0.43673 0.0
H6461 H 0.96771 0.66745 0.44401 0.0
C6462 C 1.00883 0.69891 0.45785 0.0
C6463 C 0.98506 0.6897 0.43319 0.0
C6464 C 0.97504 0.69137 0.41229 0.0
C6465 C 1.00271 0.68577 0.47388 0.0
C6466 C 0.98792 0.67398 0.46807 0.0
C6467 C 0.97906 0.67643 0.44876 0.0
C6468 C 0.98282 0.65809 0.47537 0.0
C6469 C 1.01252 0.6844 0.49567 0.0
C6470 C 0.99192 0.65215 0.46679 0.0
C6471 C 0.98531 0.63717 0.4587 0.0
C6472 C 0.96951 0.62798 0.45884 0.0
C6473 C 0.96071 0.63313 0.47207 0.0
C6474 C 0.96743 0.64813 0.48084 0.0
H6475 H 1.01885 0.69519 0.50724 0.0
H6476 H 1.00585 0.67513 0.51052 0.0
H6477 H 0.02106 0.68229 0.48555 0.0
H6478 H 1.00377 0.65944 0.46209 0.0
H6479 H 0.99247 0.63352 0.44881 0.0
H6480 H 0.69894 0.62658 0.99957 0.0
H6481 H 0.71607 0.64851 0.97092 0.0
H6482 H 0.67773 0.6464 0.92934 0.0
H6483 H 0.66073 0.62508 0.95806 0.0
H6484 H 0.70534 0.65154 0.89391 0.0
H6485 H 0.71393 0.6894 0.98353 0.0
H6486 H 0.71586 0.67304 0.98971 0.0
H6487 H 0.69776 0.67065 0.98079 0.0
C6488 C 0.69427 0.63088 0.98435 0.0
C6489 C 0.67861 0.62414 0.98081 0.0
C6490 C 0.70398 0.64316 0.96779 0.0
C6491 C 0.69804 0.64868 0.94771 0.0
C6492 C 0.68244 0.64198 0.94426 0.0
H6493 H 0.71823 0.72856 0.89488 0.0
H6494 H 0.71077 0.7036 0.87752 0.0
C6495 C 0.6728 0.62991 0.96083 0.0
C6496 C 0.70782 0.66276 0.93292 0.0
H6497 H 0.72577 0.70077 0.9421 0.0
C6498 C 0.71012 0.66236 0.90436 0.0
C6499 C 0.71341 0.6767 0.94667 0.0
C6500 C 0.71009 0.67762 0.97681 0.0
C6501 C 0.71816 0.67582 0.88918 0.0
C6502 C 0.72398 0.6897 0.90315 0.0
C6503 C 0.7216 0.68998 0.93167 0.0
C6504 C 0.73156 0.70444 0.88925 0.0
C6505 C 0.72015 0.67529 0.85848 0.0
C6506 C 0.7467 0.71404 0.89665 0.0
C6507 C 0.75105 0.72838 0.90702 0.0
C6508 C 0.74032 0.73312 0.90899 0.0
C6509 C 0.72664 0.72507 0.89439 0.0
C6510 C 0.72239 0.71076 0.88397 0.0
H6511 H 0.71576 0.66356 0.85087 0.0
H6512 H 0.7141 0.68031 0.84772 0.0
H6513 H 0.73231 0.68221 0.85307 0.0
H6514 H 0.7541 0.70943 0.90005 0.0
H6515 H 0.76192 0.7347 0.91713 0.0
H6516 H 0.30496 0.99485 0.90627 0.0
H6517 H 0.33077 1.01179 0.89338 0.0
H6518 H 0.32223 0.0491 0.89201 0.0
H6519 H 0.29602 0.03204 0.90568 0.0
H6520 H 0.35428 0.03685 0.86946 0.0
H6521 H 0.33687 0.04935 0.97104 0.0
H6522 H 0.32394 0.03405 0.94947 0.0
H6523 H 0.32913 0.05325 0.94102 0.0
C6524 C 0.30818 1.00646 0.90173 0.0
C6525 C 0.29875 1.01235 0.90864 0.0
C6526 C 0.32306 0.0162 0.89408 0.0
C6527 C 0.32855 0.03181 0.89358 0.0
C6528 C 0.31823 0.03709 0.89347 0.0
H6529 H 0.41367 0.08133 0.98575 0.0
H6530 H 0.39401 0.07848 0.9528 0.0
C6531 C 0.30331 0.02737 0.90156 0.0
C6532 C 0.344 0.04153 0.90411 0.0
H6533 H 0.36192 0.05697 0.96501 0.0
C6534 C 0.35612 0.04175 0.88996 0.0
C6535 C 0.3462 0.04737 0.93144 0.0
C6536 C 0.33338 0.04593 0.94928 0.0
C6537 C 0.37011 0.04686 0.90303 0.0
C6538 C 0.37199 0.05221 0.93046 0.0
C6539 C 0.36035 0.05309 0.94375 0.0
C6540 C 0.38468 0.05437 0.94782 0.0
C6541 C 0.38243 0.04565 0.88817 0.0
C6542 C 0.3853 0.04163 0.95663 0.0
C6543 C 0.396 0.04315 0.97604 0.0
C6544 C 0.40619 0.05743 0.98687 0.0
C6545 C 0.40551 0.07018 0.97829 0.0
C6546 C 0.39463 0.06862 0.95905 0.0
H6547 H 0.38077 0.04503 0.86542 0.0
H6548 H 0.3937 0.05542 0.8932 0.0
H6549 H 0.38229 0.03519 0.89496 0.0
H6550 H 0.3774 0.03049 0.94871 0.0
H6551 H 0.39675 0.03328 0.98184 0.0
H6552 H 0.96755 0.363 0.93991 0.0
H6553 H 0.96684 0.34303 0.91282 0.0
H6554 H 0.96461 0.31859 0.98683 0.0
H6555 H 0.96386 0.33808 1.01488 0.0
H6556 H 0.9922 0.34111 0.92415 0.0
H6557 H 0.94085 0.28446 0.92934 0.0
H6558 H 0.9405 0.3018 0.93519 0.0
H6559 H 0.94709 0.29423 0.96179 0.0
C6560 C 0.96591 0.35308 0.95091 0.0
C6561 C 0.96592 0.35243 0.98007 0.0
C6562 C 0.96559 0.3416 0.93503 0.0
C6563 C 0.96566 0.32936 0.94774 0.0
C6564 C 0.96433 0.32787 0.97658 0.0
H6565 H 1.00746 0.28418 0.95535 0.0
H6566 H 0.98487 0.28519 0.94464 0.0
C6567 C 0.96424 0.33924 0.99264 0.0
C6568 C 0.97116 0.32076 0.93182 0.0
H6569 H 0.96385 0.28527 0.91578 0.0
C6570 C 0.98592 0.32892 0.9216 0.0
C6571 C 0.96286 0.30494 0.92875 0.0
C6572 C 0.94688 0.29581 0.93914 0.0
C6573 C 0.99322 0.32162 0.9106 0.0
C6574 C 0.98519 0.30556 0.90872 0.0
C6575 C 0.96993 0.29752 0.91685 0.0
C6576 C 0.99344 0.29711 0.90586 0.0
C6577 C 1.00986 0.3313 0.90394 0.0
C6578 C 1.00459 0.30102 0.88547 0.0
C6579 C 1.01785 0.30091 0.89216 0.0
C6580 C 0.01935 0.29612 0.91854 0.0
C6581 C 1.00654 0.28824 0.93516 0.0
C6582 C 0.99358 0.28886 0.92897 0.0
H6583 H 1.01449 0.34333 0.90993 0.0
H6584 H 1.01653 0.32707 0.91493 0.0
H6585 H 1.01165 0.33105 0.8814 0.0
H6586 H 1.00425 0.30658 0.86666 0.0
H6587 H 0.0276 0.30677 0.87878 0.0
H6588 H 0.75873 0.73893 0.61412 0.0
H6589 H 0.74069 0.74153 0.58714 0.0
H6590 H 0.71192 0.73152 0.65827 0.0
H6591 H 0.73093 0.7307 0.68714 0.0
H6592 H 0.71648 0.71362 0.58699 0.0
H6593 H 0.69805 0.7551 0.60928 0.0
H6594 H 0.71666 0.75837 0.6182 0.0
H6595 H 0.70067 0.74665 0.63974 0.0
C6596 C 0.74924 0.73826 0.62514 0.0
C6597 C 0.74631 0.73398 0.65325 0.0
C6598 C 0.73878 0.73979 0.6092 0.0
C6599 C 0.7249 0.73653 0.62051 0.0
C6600 C 0.72264 0.73419 0.64907 0.0
H6601 H 0.64155 0.67977 0.62069 0.0
H6602 H 0.66287 0.7051 0.61604 0.0
C6603 C 0.73341 0.73325 0.66545 0.0
C6604 C 0.71172 0.73065 0.60199 0.0
H6605 H 0.67903 0.73093 0.5902 0.0
C6606 C 0.7085 0.7177 0.58678 0.0
C6607 C 0.70137 0.73596 0.60213 0.0
C6608 C 0.70442 0.74988 0.61806 0.0
C6609 C 0.69448 0.70885 0.57432 0.0
C6610 C 0.68358 0.71357 0.57597 0.0
C6611 C 0.68747 0.72748 0.58856 0.0
C6612 C 0.66743 0.70224 0.57334 0.0
C6613 C 0.69095 0.69358 0.56303 0.0
C6614 C 0.6619 0.69277 0.55004 0.0
C6615 C 0.65011 0.6779 0.55319 0.0
C6616 C 0.64339 0.673 0.57914 0.0
C6617 C 0.64708 0.68334 0.60078 0.0
C6618 C 0.65904 0.69793 0.5979 0.0
H6619 H 0.70046 0.69134 0.56572 0.0
H6620 H 0.68096 0.68438 0.5737 0.0
H6621 H 0.6885 0.69297 0.54062 0.0
H6622 H 0.66788 0.69621 0.53055 0.0
H6623 H 0.64684 0.67008 0.53601 0.0
H6624 H 0.3636 0.99419 0.55071 0.0
H6625 H 0.33752 0.98865 0.54761 0.0
H6626 H 0.32271 0.9469 0.59168 0.0
H6627 H 0.34874 0.95234 0.59477 0.0
H6628 H 0.30252 0.9643 0.5492 0.0
H6629 H 0.3352 0.98497 0.64767 0.0
H6630 H 0.34431 0.98591 0.61545 0.0
H6631 H 0.33336 0.96805 0.63259 0.0
C6632 C 0.35465 0.98339 0.55815 0.0
C6633 C 0.35806 0.97404 0.57413 0.0
C6634 C 0.33972 0.98012 0.55609 0.0
C6635 C 0.3284 0.9677 0.57051 0.0
C6636 C 0.3314 0.95663 0.58075 0.0
H6637 H 0.28593 1.00091 0.68034 0.0
H6638 H 0.28519 0.9793 0.65694 0.0
C6639 C 0.34633 0.95984 0.58273 0.0
C6640 C 0.31705 0.97008 0.58471 0.0
H6641 H 0.31382 0.98684 0.64307 0.0
C6642 C 0.30463 0.96879 0.57004 0.0
C6643 C 0.32011 0.97623 0.61176 0.0
C6644 C 0.33397 0.97898 0.62785 0.0
C6645 C 0.29554 0.97416 0.58141 0.0
C6646 C 0.29908 0.98093 0.60786 0.0
C6647 C 0.31089 0.98128 0.62309 0.0
C6648 C 0.29345 0.99084 0.61791 0.0
C6649 C 0.28274 0.97327 0.56453 0.0
C6650 C 0.29772 1.00421 0.60331 0.0
C6651 C 0.2985 0.01662 0.61672 0.0
C6652 C 0.2949 0.01586 0.64501 0.0
C6653 C 0.28902 1.00193 0.65873 0.0
C6654 C 0.28833 0.98949 0.64525 0.0
H6655 H 0.27796 0.96331 0.55054 0.0
H6656 H 0.2736 0.97259 0.57794 0.0
H6657 H 0.28707 0.98356 0.5515 0.0
H6658 H 0.30215 1.00569 0.5825 0.0
H6659 H 0.30336 0.02718 0.60543 0.0
H6660 H 0.04638 0.39237 0.58142 0.0
H6661 H 0.03535 0.36594 0.57183 0.0
H6662 H 0.07893 0.37266 0.54726 0.0
H6663 H 0.09051 0.39942 0.56017 0.0
H6664 H 0.03044 0.3428 0.54791 0.0
H6665 H 0.07786 0.35623 0.62086 0.0
H6666 H 0.07473 0.37071 0.60704 0.0
H6667 H 0.08329 0.36238 0.58603 0.0
C6668 C 0.05362 0.38846 0.57285 0.0
C6669 C 0.06941 0.39767 0.57304 0.0
C6670 C 0.04723 0.37318 0.56718 0.0
C6671 C 0.05657 0.36712 0.56105 0.0
C6672 C 0.07175 0.37702 0.55404 0.0
H6673 H 1.00198 0.27447 0.6158 0.0
H6674 H 0.01934 0.29433 0.58651 0.0
C6675 C 0.07834 0.39231 0.56106 0.0
C6676 C 0.05136 0.35142 0.57022 0.0
H6677 H 0.05779 0.33198 0.62085 0.0
C6678 C 0.03652 0.34033 0.56354 0.0
C6679 C 0.05919 0.34833 0.59123 0.0
C6680 C 0.07458 0.36003 0.60192 0.0
C6681 C 0.02874 0.32709 0.57919 0.0
C6682 C 0.03661 0.32404 0.60001 0.0
C6683 C 0.05187 0.33438 0.60481 0.0
C6684 C 0.02885 0.31101 0.61894 0.0
C6685 C 1.01186 0.31741 0.57502 0.0
C6686 C 0.02978 0.31325 0.64766 0.0
C6687 C 0.02045 0.30144 0.66537 0.0
C6688 C 1.00954 0.28732 0.6546 0.0
C6689 C 1.0099 0.28489 0.62586 0.0
C6690 C 0.01969 0.29649 0.60847 0.0
H6691 H 1.00706 0.32372 0.56439 0.0
H6692 H 1.00944 0.30752 0.56198 0.0
H6693 H 1.00589 0.31327 0.59504 0.0
H6694 H 0.03714 0.32434 0.65636 0.0
H6695 H 0.0213 0.30377 0.68727 0.0
H6696 H 0.98168 0.65961 0.69798 0.0
H6697 H 1.00178 0.6641 0.73081 0.0
H6698 H 0.97831 0.61676 0.75218 0.0
H6699 H 0.95822 0.61226 0.71933 0.0
H6700 H 0.99311 0.65389 0.79304 0.0
H6701 H 0.02473 0.63112 0.73529 0.0
H6702 H 1.01395 0.63814 0.71753 0.0
H6703 H 1.00438 0.62054 0.73578 0.0
C6704 C 0.98131 0.65006 0.70852 0.0
C6705 C 0.96872 0.63555 0.70575 0.0
C6706 C 0.99251 0.65269 0.72776 0.0
C6707 C 0.99123 0.64077 0.74412 0.0
C6708 C 0.97933 0.62605 0.73973 0.0
H6709 H 0.07347 0.66254 0.80525 0.0
H6710 H 0.04757 0.64714 0.82181 0.0
C6711 C 0.96812 0.62343 0.72054 0.0
C6712 C 1.00239 0.64385 0.76587 0.0
H6713 H 0.035 0.64366 0.77633 0.0
C6714 C 1.0022 0.65146 0.78988 0.0
C6715 C 1.01384 0.64023 0.76188 0.0
C6716 C 1.01439 0.63209 0.73625 0.0
C6717 C 1.01399 0.65661 0.80918 0.0
C6718 C 0.02637 0.65439 0.80374 0.0
C6719 C 0.0256 0.64541 0.78098 0.0
C6720 C 0.04165 0.66452 0.81516 0.0
C6721 C 1.01339 0.665 0.83436 0.0
C6722 C 0.04759 0.68011 0.8111 0.0
C6723 C 0.06242 0.68897 0.80232 0.0
C6724 C 0.07135 0.68229 0.79753 0.0
C6725 C 0.06654 0.66775 0.80785 0.0
C6726 C 0.05178 0.65902 0.81765 0.0
H6727 H 1.0019 0.65899 0.84358 0.0
H6728 H 0.02175 0.66622 0.85029 0.0
H6729 H 1.01557 0.67639 0.82817 0.0
H6730 H 0.04029 0.68493 0.80945 0.0
H6731 H 0.06591 0.7003 0.79511 0.0
H6732 H 0.421 0.3484 0.72968 0.0
H6733 H 0.41789 0.36531 0.76186 0.0
H6734 H 0.37165 0.34663 0.73535 0.0
H6735 H 0.37479 0.3299 0.70296 0.0
H6736 H 0.40058 0.38437 0.74026 0.0
H6737 H 0.3784 0.34485 0.82944 0.0
H6738 H 0.39174 0.34468 0.80504 0.0
H6739 H 0.3724 0.33731 0.79517 0.0
C6740 C 0.41039 0.34839 0.73009 0.0
C6741 C 0.39825 0.33832 0.71342 0.0
C6742 C 0.40853 0.35773 0.74879 0.0
C6743 C 0.39447 0.35684 0.75121 0.0
C6744 C 0.38251 0.34722 0.73384 0.0
H6745 H 0.33515 0.37555 0.79457 0.0
H6746 H 0.35208 0.36653 0.80651 0.0
C6747 C 0.3844 0.33799 0.71499 0.0
C6748 C 0.39236 0.36671 0.77042 0.0
H6749 H 0.37449 0.36595 0.83023 0.0
C6750 C 0.39529 0.38069 0.76036 0.0
C6751 C 0.38542 0.36155 0.79637 0.0
C6752 C 0.38182 0.34629 0.80737 0.0
C6753 C 0.38993 0.38909 0.77413 0.0
C6754 C 0.38215 0.38362 0.79967 0.0
C6755 C 0.38069 0.37029 0.81108 0.0
C6756 C 0.37187 0.38886 0.80973 0.0
C6757 C 0.39099 0.40259 0.7591 0.0
C6758 C 0.37682 0.40436 0.8121 0.0
C6759 C 0.36715 0.40967 0.80411 0.0
C6760 C 0.35239 0.39932 0.79549 0.0
C6761 C 0.34659 0.38383 0.80042 0.0
C6762 C 0.35633 0.3786 0.80747 0.0
H6763 H 0.39616 0.40421 0.73829 0.0
H6764 H 0.37956 0.40117 0.75635 0.0
H6765 H 0.39805 0.41305 0.7711 0.0
H6766 H 0.38866 0.41242 0.81547 0.0
H6767 H 0.3717 0.42171 0.80138 0.0
H6768 H 0.67498 0.06887 0.69955 0.0
H6769 H 0.65583 0.04818 0.72795 0.0
H6770 H 0.69115 0.04862 0.77758 0.0
H6771 H 0.71006 0.06917 0.74987 0.0
H6772 H 0.65531 0.022 0.72855 0.0
H6773 H 0.6607 0.0412 0.83679 0.0
H6774 H 0.66851 0.05427 0.80821 0.0
H6775 H 0.6786 0.04555 0.82246 0.0
C6776 C 0.67854 0.06465 0.71683 0.0
C6777 C 0.6939 0.07058 0.72264 0.0
C6778 C 0.66767 0.05305 0.73323 0.0
C6779 C 0.67208 0.04721 0.75541 0.0
C6780 C 0.68744 0.05336 0.76141 0.0
H6781 H 0.65363 0.96564 0.79924 0.0
H6782 H 0.66004 0.99109 0.81183 0.0
C6783 C 0.69824 0.06495 0.74525 0.0
C6784 C 0.66113 0.03277 0.76835 0.0
H6785 H 0.65058 0.01405 0.83003 0.0
C6786 C 0.65379 0.02033 0.75071 0.0
C6787 C 0.65965 0.03064 0.79733 0.0
C6788 C 0.66721 0.04369 0.81724 0.0
C6789 C 0.64574 1.00567 0.76107 0.0
C6790 C 0.64444 1.00343 0.79008 0.0
C6791 C 0.65129 0.01589 0.80789 0.0
C6792 C 0.63813 0.98805 0.80119 0.0
C6793 C 0.63983 0.99268 0.74074 0.0
C6794 C 0.62304 0.97742 0.79522 0.0
C6795 C 0.61934 0.96279 0.78757 0.0
C6796 C 0.63073 0.95891 0.78649 0.0
C6797 C 0.6447 0.96844 0.79922 0.0
C6798 C 0.6484 0.98306 0.80666 0.0
H6799 H 0.64345 0.99654 0.7192 0.0
H6800 H 0.64391 0.98479 0.74631 0.0
H6801 H 0.62731 0.98634 0.74115 0.0
H6802 H 0.61491 0.98109 0.79149 0.0
H6803 H 0.60832 0.95541 0.77867 0.0
H6804 H 0.38244 0.06076 0.24498 0.0
H6805 H 0.37157 0.03481 0.23153 0.0
H6806 H 0.416 0.0409 0.21806 0.0
H6807 H 0.42729 0.06731 0.23281 0.0
H6808 H 0.36909 1.011 0.2055 0.0
H6809 H 0.40775 0.02549 0.29637 0.0
H6810 H 0.40532 0.03958 0.27879 0.0
H6811 H 0.41658 0.03237 0.26351 0.0
C6812 C 0.39005 0.05697 0.23782 0.0
C6813 C 0.40578 0.06581 0.24153 0.0
C6814 C 0.38372 0.04198 0.22983 0.0
C6815 C 0.39305 0.03574 0.2258 0.0
C6816 C 0.40867 0.04545 0.22259 0.0
H6817 H 0.35294 0.94596 0.3038 0.0
H6818 H 0.36892 0.96615 0.27116 0.0
C6819 C 0.41511 0.06049 0.2312 0.0
C6820 C 0.38709 0.02006 0.2355 0.0
H6821 H 0.38756 1.00145 0.29378 0.0
C6822 C 0.3734 1.0087 0.22426 0.0
C6823 C 0.39249 0.01728 0.26067 0.0
C6824 C 0.40626 0.0293 0.27571 0.0
C6825 C 0.36444 0.99516 0.2386 0.0
C6826 C 0.36968 0.99283 0.26402 0.0
C6827 C 0.38385 1.00346 0.27402 0.0
C6828 C 0.35993 0.98056 0.28276 0.0
C6829 C 0.349 0.98395 0.22773 0.0
C6830 C 0.35031 0.98255 0.30077 0.0
C6831 C 0.34164 0.97136 0.31991 0.0
C6832 C 0.34255 0.95812 0.32115 0.0
C6833 C 0.35253 0.95637 0.30366 0.0
C6834 C 0.36131 0.96763 0.28468 0.0
H6835 H 0.34742 0.98638 0.20599 0.0
H6836 H 0.34714 0.97229 0.22907 0.0
H6837 H 0.34027 0.98442 0.24069 0.0
H6838 H 0.3494 0.99267 0.29971 0.0
H6839 H 0.33358 0.97261 0.33258 0.0
H6840 H 0.97232 0.32758 0.24101 0.0
H6841 H 0.99846 0.34363 0.22959 0.0
H6842 H 0.99115 0.38145 0.21905 0.0
H6843 H 0.96457 0.36531 0.2318 0.0
H6844 H 0.02224 0.36597 0.20547 0.0
H6845 H 1.00548 0.38708 0.29795 0.0
H6846 H 0.99197 0.37086 0.2789 0.0
H6847 H 0.9989 0.38963 0.26522 0.0
C6848 C 0.97593 0.33909 0.23488 0.0
C6849 C 0.96665 0.34547 0.23889 0.0
C6850 C 0.99102 0.34832 0.2281 0.0
C6851 C 0.99688 0.36394 0.22546 0.0
C6852 C 0.98687 0.36951 0.22249 0.0
H6853 H 0.08572 0.41419 0.30674 0.0
H6854 H 0.06552 0.41006 0.27417 0.0
C6855 C 0.97173 0.36032 0.22991 0.0
C6856 C 1.01234 0.37375 0.23604 0.0
H6857 H 0.0299 0.3919 0.29568 0.0
C6858 C 0.02411 0.37212 0.22469 0.0
C6859 C 1.01457 0.38133 0.26177 0.0
C6860 C 1.00209 0.38228 0.27684 0.0
C6861 C 0.03757 0.37682 0.23937 0.0
C6862 C 0.03939 0.38381 0.2653 0.0
C6863 C 0.0283 0.38664 0.27553 0.0
C6864 C 0.05163 0.38637 0.28419 0.0
C6865 C 0.04925 0.3733 0.22823 0.0
C6866 C 0.04992 0.37454 0.30128 0.0
C6867 C 0.06111 0.37699 0.3204 0.0
C6868 C 0.07405 0.39129 0.32252 0.0
C6869 C 0.07553 0.40323 0.30595 0.0
C6870 C 0.06426 0.40081 0.28701 0.0
H6871 H 0.04719 0.36979 0.2062 0.0
H6872 H 0.06074 0.38329 0.23036 0.0
H6873 H 0.04895 0.36395 0.24048 0.0
H6874 H 0.04005 0.36338 0.29951 0.0
H6875 H 0.06009 0.36754 0.33234 0.0
H6876 H 0.63243 0.67213 0.35259 0.0
H6877 H 0.63345 0.65169 0.32814 0.0
H6878 H 0.63665 0.67362 0.25042 0.0
H6879 H 0.63725 0.69458 0.27404 0.0
H6880 H 0.61867 0.63125 0.27958 0.0
H6881 H 0.67826 0.67668 0.26351 0.0
H6882 H 0.66582 0.6786 0.28747 0.0
H6883 H 0.66442 0.68118 0.25108 0.0
C6884 C 0.63324 0.67261 0.3303 0.0
C6885 C 0.63505 0.68533 0.31565 0.0
C6886 C 0.63353 0.66075 0.31634 0.0
C6887 C 0.63528 0.66132 0.28757 0.0
C6888 C 0.63533 0.67305 0.27268 0.0
H6889 H 0.68964 0.63557 0.20885 0.0
H6890 H 0.66503 0.63345 0.20244 0.0
C6891 C 0.63551 0.68506 0.2865 0.0
C6892 C 0.64007 0.65159 0.27366 0.0
H6893 H 0.67093 0.65328 0.24373 0.0
C6894 C 0.63002 0.63599 0.27139 0.0
C6895 C 0.65492 0.6579 0.26322 0.0
C6896 C 0.66654 0.67447 0.26661 0.0
C6897 C 0.6346 0.62643 0.25915 0.0
C6898 C 0.64951 0.63271 0.24905 0.0
C6899 C 0.65932 0.64842 0.25064 0.0
C6900 C 0.65661 0.6235 0.2426 0.0
C6901 C 0.62361 0.60969 0.25785 0.0
C6902 C 0.65884 0.61605 0.26493 0.0
C6903 C 0.67281 0.61696 0.26829 0.0
C6904 C 0.68441 0.62538 0.2494 0.0
C6905 C 0.68082 0.62919 0.22381 0.0
C6906 C 0.66669 0.62796 0.22016 0.0
H6907 H 0.61184 0.60744 0.2555 0.0
H6908 H 0.62625 0.60426 0.24053 0.0
H6909 H 0.62419 0.6044 0.27749 0.0
H6910 H 0.65118 0.61229 0.28237 0.0
H6911 H 0.67539 0.61377 0.28803 0.0
loop_
_geom_bond_atom_site_label_1
_geom_bond_atom_site_label_2
_geom_bond_distance
_geom_bond_site_symmetry_2
_ccdc_geom_bond_type
C0 C2 1.422 . S
C0 C4 1.415 . S
C0 N6 1.369 . S
C1 C2 1.421 . S
C1 C3 1.417 . S
C1 C13 1.422 1_554 S
C2 C0 1.422 . S
C2 C1 1.421 . S
C2 N12 1.359 . S
C3 C1 1.417 . S
C3 C5 1.329 . S
C3 H22 0.930 . S
C4 C0 1.415 . S
C4 C5 1.437 . S
C4 C8 1.413 . S
C5 C3 1.329 . S
C5 C4 1.437 . S
C5 H27 0.929 . S
N6 C0 1.369 . S
N6 C7 1.338 . S
N6 Gd11 2.622 . S
C7 N6 1.338 . S
C7 C9 1.378 . S
C7 H19 0.929 . S
C8 C4 1.413 . S
C8 C9 1.348 . S
C8 H24 0.931 . S
C9 C7 1.378 . S
C9 C8 1.348 . S
C9 H25 0.930 . S
Gd10 N30 2.622 . S
Gd10 N37 2.570 . S
Gd10 O44 2.353 . S
Gd10 O45 2.468 . S
Gd10 O46 2.427 . S
Gd10 O48 2.388 . S
Gd10 O49 2.386 . S
Gd10 O53 2.307 . S
Gd10 C63 2.805 . S
Gd11 N6 2.622 . S
Gd11 N12 2.570 . S
Gd11 O43 2.386 . S
Gd11 O47 2.307 . S
Gd11 O50 2.353 . S
Gd11 O51 2.468 . S
Gd11 O52 2.427 . S
Gd11 O54 2.388 . S
Gd11 C75 2.805 . S
N12 C2 1.359 . S
N12 Gd11 2.570 . S
N12 C14 1.343 . S
C13 C1 1.422 1_556 S
C13 C15 1.321 . S
C13 H21 0.931 . S
C14 N12 1.343 . S
C14 C15 1.390 1_554 S
C14 H16 0.931 . S
C15 C13 1.321 . S
C15 C14 1.390 1_556 S
C15 H17 0.930 . S
H16 C14 0.931 . S
H17 C15 0.930 . S
H18 C41 0.931 . S
H19 C7 0.929 . S
H20 C42 0.930 . S
H21 C13 0.931 . S
H22 C3 0.930 . S
H23 C32 0.929 . S
H24 C8 0.931 . S
H25 C9 0.930 . S
H26 C64 0.930 . S
H27 C5 0.929 . S
H28 C33 0.931 . S
H29 C34 0.930 . S
N30 Gd10 2.622 . S
N30 C31 1.369 . S
N30 C32 1.338 . S
C31 N30 1.369 . S
C31 C35 1.415 . S
C31 C38 1.422 . S
C32 H23 0.929 . S
C32 N30 1.338 . S
C32 C34 1.378 . S
C33 H28 0.931 . S
C33 C34 1.348 . S
C33 C35 1.413 . S
C34 H29 0.930 . S
C34 C32 1.378 . S
C34 C33 1.348 . S
C35 C31 1.415 . S
C35 C33 1.413 . S
C35 C65 1.437 . S
H36 C65 0.929 . S
N37 Gd10 2.570 . S
N37 C38 1.359 . S
N37 C41 1.343 . S
C38 C31 1.422 . S
C38 N37 1.359 . S
C38 C40 1.421 . S
C39 C40 1.422 . S
C39 C42 1.321 . S
C39 H66 0.931 . S
C40 C38 1.421 . S
C40 C39 1.422 . S
C40 C64 1.417 . S
C41 H18 0.931 . S
C41 N37 1.343 . S
C41 C42 1.390 . S
C42 H20 0.930 . S
C42 C39 1.321 . S
C42 C41 1.390 . S
O43 Gd11 2.386 . S
O43 C55 1.265 . S
O44 Gd10 2.353 . S
O44 C55 1.242 . S
O45 Gd10 2.468 . S
O45 C63 1.263 . S
O46 Gd10 2.427 . S
O46 C63 1.252 . S
O47 Gd11 2.307 . S
O47 C56 1.261 . S
O48 Gd10 2.388 . S
O48 C56 1.252 . S
O49 Gd10 2.386 . S
O49 C67 1.265 . S
O50 Gd11 2.353 . S
O50 C67 1.242 . S
O51 Gd11 2.468 . S
O51 C75 1.263 . S
O52 Gd11 2.427 . S
O52 C75 1.252 . S
O53 Gd10 2.307 . S
O53 C68 1.261 . S
O54 Gd11 2.388 . S
O54 C68 1.252 . S
C55 O43 1.265 . S
C55 O44 1.242 . S
C56 O47 1.261 . S
C56 O48 1.252 . S
C57 C60 1.394 . S
C57 C62 1.370 . S
C57 C63 1.500 . S
C58 C61 1.383 . S
C58 C62 1.395 . S
C59 C60 1.396 . S
C59 C61 1.365 . S
C59 H76 0.929 . S
C60 C57 1.394 . S
C60 C59 1.396 . S
C60 H77 0.930 . S
C61 C58 1.383 . S
C61 C59 1.365 . S
C61 H78 0.931 . S
C62 C57 1.370 . S
C62 C58 1.395 . S
C62 H79 0.930 . S
C63 Gd10 2.805 . S
C63 O45 1.263 . S
C63 O46 1.252 . S
C63 C57 1.500 . S
C64 H26 0.930 . S
C64 C40 1.417 . S
C64 C65 1.329 . S
C65 C35 1.437 . S
C65 H36 0.929 . S
C65 C64 1.329 . S
H66 C39 0.931 . S
C67 O49 1.265 . S
C67 O50 1.242 . S
C68 O53 1.261 . S
C68 O54 1.252 . S
C69 C72 1.394 . S
C69 C74 1.370 . S
C69 C75 1.500 . S
C70 C73 1.383 . S
C70 C74 1.395 . S
C71 C72 1.396 . S
C71 C73 1.365 . S
C71 H80 0.929 . S
C72 C69 1.394 . S
C72 C71 1.396 . S
C72 H81 0.930 . S
C73 C70 1.383 . S
C73 C71 1.365 . S
C73 H82 0.931 . S
C74 C69 1.370 . S
C74 C70 1.395 . S
C74 H83 0.930 . S
C75 Gd11 2.805 . S
C75 O51 1.263 . S
C75 O52 1.252 . S
C75 C69 1.500 . S
H76 C59 0.929 . S
H77 C60 0.930 . S
H78 C61 0.931 . S
H79 C62 0.930 . S
H80 C71 0.929 . S
H81 C72 0.930 . S
H82 C73 0.931 . S
H83 C74 0.930 . S
C84 C86 1.422 . S
C84 C88 1.415 . S
C84 N90 1.369 . S
C85 C86 1.421 . S
C85 C87 1.417 . S
C85 C97 1.422 1_554 S
C86 C84 1.422 . S
C86 C85 1.421 . S
C86 N96 1.359 . S
C87 C85 1.417 . S
C87 C89 1.329 . S
C87 H106 0.930 . S
C88 C84 1.415 . S
C88 C89 1.437 . S
C88 C92 1.413 . S
C89 C87 1.329 . S
C89 C88 1.437 . S
C89 H111 0.929 . S
N90 C84 1.369 . S
N90 C91 1.338 . S
N90 Gd95 2.622 . S
C91 N90 1.338 . S
C91 C93 1.378 . S
C91 H103 0.929 . S
C92 C88 1.413 . S
C92 C93 1.348 . S
C92 H108 0.931 . S
C93 C91 1.378 . S
C93 C92 1.348 . S
C93 H109 0.930 . S
Gd94 N114 2.622 . S
Gd94 N121 2.570 . S
Gd94 O128 2.353 . S
Gd94 O129 2.468 . S
Gd94 O130 2.427 . S
Gd94 O132 2.388 . S
Gd94 O133 2.386 . S
Gd94 O137 2.307 . S
Gd94 C147 2.805 . S
Gd95 N90 2.622 . S
Gd95 N96 2.570 . S
Gd95 O127 2.386 . S
Gd95 O131 2.307 . S
Gd95 O134 2.353 . S
Gd95 O135 2.468 . S
Gd95 O136 2.427 . S
Gd95 O138 2.388 . S
Gd95 C159 2.805 . S
N96 C86 1.359 . S
N96 Gd95 2.570 . S
N96 C98 1.343 . S
C97 C85 1.422 1_556 S
C97 C99 1.321 . S
C97 H105 0.931 . S
C98 N96 1.343 . S
C98 C99 1.390 1_554 S
C98 H100 0.931 . S
C99 C97 1.321 . S
C99 C98 1.390 1_556 S
C99 H101 0.930 . S
H100 C98 0.931 . S
H101 C99 0.930 . S
H102 C125 0.931 . S
H103 C91 0.929 . S
H104 C126 0.930 . S
H105 C97 0.931 . S
H106 C87 0.930 . S
H107 C116 0.929 . S
H108 C92 0.931 . S
H109 C93 0.930 . S
H110 C148 0.930 . S
H111 C89 0.929 . S
H112 C117 0.931 . S
H113 C118 0.930 . S
N114 Gd94 2.622 . S
N114 C115 1.369 . S
N114 C116 1.338 . S
C115 N114 1.369 . S
C115 C119 1.415 . S
C115 C122 1.422 . S
C116 H107 0.929 . S
C116 N114 1.338 . S
C116 C118 1.378 . S
C117 H112 0.931 . S
C117 C118 1.348 . S
C117 C119 1.413 . S
C118 H113 0.930 . S
C118 C116 1.378 . S
C118 C117 1.348 . S
C119 C115 1.415 . S
C119 C117 1.413 . S
C119 C149 1.437 . S
H120 C149 0.929 . S
N121 Gd94 2.570 . S
N121 C122 1.359 . S
N121 C125 1.343 . S
C122 C115 1.422 . S
C122 N121 1.359 . S
C122 C124 1.421 . S
C123 C124 1.422 . S
C123 C126 1.321 . S
C123 H150 0.931 . S
C124 C122 1.421 . S
C124 C123 1.422 . S
C124 C148 1.417 . S
C125 H102 0.931 . S
C125 N121 1.343 . S
C125 C126 1.390 . S
C126 H104 0.930 . S
C126 C123 1.321 . S
C126 C125 1.390 . S
O127 Gd95 2.386 . S
O127 C139 1.265 . S
O128 Gd94 2.353 . S
O128 C139 1.242 . S
O129 Gd94 2.468 . S
O129 C147 1.263 . S
O130 Gd94 2.427 . S
O130 C147 1.252 . S
O131 Gd95 2.307 . S
O131 C140 1.261 . S
O132 Gd94 2.388 . S
O132 C140 1.252 . S
O133 Gd94 2.386 . S
O133 C151 1.265 . S
O134 Gd95 2.353 . S
O134 C151 1.242 . S
O135 Gd95 2.468 . S
O135 C159 1.263 . S
O136 Gd95 2.427 . S
O136 C159 1.252 . S
O137 Gd94 2.307 . S
O137 C152 1.261 . S
O138 Gd95 2.388 . S
O138 C152 1.252 . S
C139 O127 1.265 . S
C139 O128 1.242 . S
C140 O131 1.261 . S
C140 O132 1.252 . S
C141 C144 1.394 . S
C141 C146 1.370 . S
C141 C147 1.500 . S
C142 C145 1.383 . S
C142 C146 1.395 . S
C143 C144 1.396 . S
C143 C145 1.365 . S
C143 H160 0.929 . S
C144 C141 1.394 . S
C144 C143 1.396 . S
C144 H161 0.930 . S
C145 C142 1.383 . S
C145 C143 1.365 . S
C145 H162 0.931 . S
C146 C141 1.370 . S
C146 C142 1.395 . S
C146 H163 0.930 . S
C147 Gd94 2.805 . S
C147 O129 1.263 . S
C147 O130 1.252 . S
C147 C141 1.500 . S
C148 H110 0.930 . S
C148 C124 1.417 . S
C148 C149 1.329 . S
C149 C119 1.437 . S
C149 H120 0.929 . S
C149 C148 1.329 . S
H150 C123 0.931 . S
C151 O133 1.265 . S
C151 O134 1.242 . S
C152 O137 1.261 . S
C152 O138 1.252 . S
C153 C156 1.394 . S
C153 C158 1.370 . S
C153 C159 1.500 . S
C154 C157 1.383 . S
C154 C158 1.395 . S
C155 C156 1.396 . S
C155 C157 1.365 . S
C155 H164 0.929 . S
C156 C153 1.394 . S
C156 C155 1.396 . S
C156 H165 0.930 . S
C157 C154 1.383 . S
C157 C155 1.365 . S
C157 H166 0.931 . S
C158 C153 1.370 . S
C158 C154 1.395 . S
C158 H167 0.930 . S
C159 Gd95 2.805 . S
C159 O135 1.263 . S
C159 O136 1.252 . S
C159 C153 1.500 . S
H160 C143 0.929 . S
H161 C144 0.930 . S
H162 C145 0.931 . S
H163 C146 0.930 . S
H164 C155 0.929 . S
H165 C156 0.930 . S
H166 C157 0.931 . S
H167 C158 0.930 . S
C168 C170 1.422 . S
C168 C172 1.415 . S
C168 N174 1.369 . S
C169 C170 1.421 . S
C169 C171 1.417 . S
C169 C181 1.422 1_554 S
C170 C168 1.422 . S
C170 C169 1.421 . S
C170 N180 1.359 . S
C171 C169 1.417 . S
C171 C173 1.329 . S
C171 H190 0.930 . S
C172 C168 1.415 . S
C172 C173 1.437 . S
C172 C176 1.413 . S
C173 C171 1.329 . S
C173 C172 1.437 . S
C173 H195 0.929 . S
N174 C168 1.369 . S
N174 C175 1.338 . S
N174 Gd179 2.622 . S
C175 N174 1.338 . S
C175 C177 1.378 . S
C175 H187 0.929 . S
C176 C172 1.413 . S
C176 C177 1.348 . S
C176 H192 0.931 . S
C177 C175 1.378 . S
C177 C176 1.348 . S
C177 H193 0.930 . S
Gd178 N198 2.622 . S
Gd178 N205 2.570 . S
Gd178 O212 2.353 . S
Gd178 O213 2.468 . S
Gd178 O214 2.427 . S
Gd178 O216 2.388 . S
Gd178 O217 2.386 . S
Gd178 O221 2.307 . S
Gd178 C231 2.805 . S
Gd179 N174 2.622 . S
Gd179 N180 2.570 . S
Gd179 O211 2.386 . S
Gd179 O215 2.307 . S
Gd179 O218 2.353 . S
Gd179 O219 2.468 . S
Gd179 O220 2.427 . S
Gd179 O222 2.388 . S
Gd179 C243 2.805 . S
N180 C170 1.359 . S
N180 Gd179 2.570 . S
N180 C182 1.343 . S
C181 C169 1.422 1_556 S
C181 C183 1.321 . S
C181 H189 0.931 . S
C182 N180 1.343 . S
C182 C183 1.390 1_554 S
C182 H184 0.931 . S
C183 C181 1.321 . S
C183 C182 1.390 1_556 S
C183 H185 0.930 . S
H184 C182 0.931 . S
H185 C183 0.930 . S
H186 C209 0.931 . S
H187 C175 0.929 . S
H188 C210 0.930 . S
H189 C181 0.931 . S
H190 C171 0.930 . S
H191 C200 0.929 . S
H192 C176 0.931 . S
H193 C177 0.930 . S
H194 C232 0.930 . S
H195 C173 0.929 . S
H196 C201 0.931 . S
H197 C202 0.930 . S
N198 Gd178 2.622 . S
N198 C199 1.369 . S
N198 C200 1.338 . S
C199 N198 1.369 . S
C199 C203 1.415 . S
C199 C206 1.422 . S
C200 H191 0.929 . S
C200 N198 1.338 . S
C200 C202 1.378 . S
C201 H196 0.931 . S
C201 C202 1.348 . S
C201 C203 1.413 . S
C202 H197 0.930 . S
C202 C200 1.378 . S
C202 C201 1.348 . S
C203 C199 1.415 . S
C203 C201 1.413 . S
C203 C233 1.437 . S
H204 C233 0.929 . S
N205 Gd178 2.570 . S
N205 C206 1.359 . S
N205 C209 1.343 . S
C206 C199 1.422 . S
C206 N205 1.359 . S
C206 C208 1.421 . S
C207 C208 1.422 . S
C207 C210 1.321 . S
C207 H234 0.931 . S
C208 C206 1.421 . S
C208 C207 1.422 . S
C208 C232 1.417 . S
C209 H186 0.931 . S
C209 N205 1.343 . S
C209 C210 1.390 . S
C210 H188 0.930 . S
C210 C207 1.321 . S
C210 C209 1.390 . S
O211 Gd179 2.386 . S
O211 C223 1.265 . S
O212 Gd178 2.353 . S
O212 C223 1.242 . S
O213 Gd178 2.468 . S
O213 C231 1.263 . S
O214 Gd178 2.427 . S
O214 C231 1.252 . S
O215 Gd179 2.307 . S
O215 C224 1.261 . S
O216 Gd178 2.388 . S
O216 C224 1.252 . S
O217 Gd178 2.386 . S
O217 C235 1.265 . S
O218 Gd179 2.353 . S
O218 C235 1.242 . S
O219 Gd179 2.468 . S
O219 C243 1.263 . S
O220 Gd179 2.427 . S
O220 C243 1.252 . S
O221 Gd178 2.307 . S
O221 C236 1.261 . S
O222 Gd179 2.388 . S
O222 C236 1.252 . S
C223 O211 1.265 . S
C223 O212 1.242 . S
C224 O215 1.261 . S
C224 O216 1.252 . S
C225 C228 1.394 . S
C225 C230 1.370 . S
C225 C231 1.500 . S
C226 C229 1.383 . S
C226 C230 1.395 . S
C227 C228 1.396 . S
C227 C229 1.365 . S
C227 H244 0.929 . S
C228 C225 1.394 . S
C228 C227 1.396 . S
C228 H245 0.930 . S
C229 C226 1.383 . S
C229 C227 1.365 . S
C229 H246 0.931 . S
C230 C225 1.370 . S
C230 C226 1.395 . S
C230 H247 0.930 . S
C231 Gd178 2.805 . S
C231 O213 1.263 . S
C231 O214 1.252 . S
C231 C225 1.500 . S
C232 H194 0.930 . S
C232 C208 1.417 . S
C232 C233 1.329 . S
C233 C203 1.437 . S
C233 H204 0.929 . S
C233 C232 1.329 . S
H234 C207 0.931 . S
C235 O217 1.265 . S
C235 O218 1.242 . S
C236 O221 1.261 . S
C236 O222 1.252 . S
C237 C240 1.394 . S
C237 C242 1.370 . S
C237 C243 1.500 . S
C238 C241 1.383 . S
C238 C242 1.395 . S
C239 C240 1.396 . S
C239 C241 1.365 . S
C239 H248 0.929 . S
C240 C237 1.394 . S
C240 C239 1.396 . S
C240 H249 0.930 . S
C241 C238 1.383 . S
C241 C239 1.365 . S
C241 H250 0.931 . S
C242 C237 1.370 . S
C242 C238 1.395 . S
C242 H251 0.930 . S
C243 Gd179 2.805 . S
C243 O219 1.263 . S
C243 O220 1.252 . S
C243 C237 1.500 . S
H244 C227 0.929 . S
H245 C228 0.930 . S
H246 C229 0.931 . S
H247 C230 0.930 . S
H248 C239 0.929 . S
H249 C240 0.930 . S
H250 C241 0.931 . S
H251 C242 0.930 . S
C252 C254 1.422 . S
C252 C256 1.415 . S
C252 N258 1.369 . S
C253 C254 1.421 . S
C253 C255 1.417 . S
C253 C265 1.422 . S
C254 C252 1.422 . S
C254 C253 1.421 . S
C254 N264 1.359 . S
C255 C253 1.417 . S
C255 C257 1.329 . S
C255 H274 0.930 . S
C256 C252 1.415 . S
C256 C257 1.437 . S
C256 C260 1.413 . S
C257 C255 1.329 . S
C257 C256 1.437 . S
C257 H279 0.929 . S
N258 C252 1.369 . S
N258 C259 1.338 . S
N258 Gd263 2.622 . S
C259 N258 1.338 . S
C259 C261 1.378 . S
C259 H271 0.929 . S
C260 C256 1.413 . S
C260 C261 1.348 . S
C260 H276 0.931 . S
C261 C259 1.378 . S
C261 C260 1.348 . S
C261 H277 0.930 . S
Gd262 N282 2.622 . S
Gd262 N289 2.570 . S
Gd262 O296 2.353 . S
Gd262 O297 2.468 . S
Gd262 O298 2.427 . S
Gd262 O300 2.388 . S
Gd262 O301 2.386 . S
Gd262 O305 2.307 . S
Gd262 C315 2.805 . S
Gd263 N258 2.622 . S
Gd263 N264 2.570 . S
Gd263 O295 2.386 . S
Gd263 O299 2.307 . S
Gd263 O302 2.353 . S
Gd263 O303 2.468 . S
Gd263 O304 2.427 . S
Gd263 O306 2.388 . S
Gd263 C327 2.805 . S
N264 C254 1.359 . S
N264 Gd263 2.570 . S
N264 C266 1.343 . S
C265 C253 1.422 . S
C265 C267 1.321 . S
C265 H273 0.931 . S
C266 N264 1.343 . S
C266 C267 1.390 . S
C266 H268 0.931 . S
C267 C265 1.321 . S
C267 C266 1.390 . S
C267 H269 0.930 . S
H268 C266 0.931 . S
H269 C267 0.930 . S
H270 C293 0.931 . S
H271 C259 0.929 . S
H272 C294 0.930 . S
H273 C265 0.931 . S
H274 C255 0.930 . S
H275 C284 0.929 . S
H276 C260 0.931 . S
H277 C261 0.930 . S
H278 C316 0.930 . S
H279 C257 0.929 . S
H280 C285 0.931 . S
H281 C286 0.930 . S
N282 Gd262 2.622 . S
N282 C283 1.369 . S
N282 C284 1.338 . S
C283 N282 1.369 . S
C283 C287 1.415 . S
C283 C290 1.422 . S
C284 H275 0.929 . S
C284 N282 1.338 . S
C284 C286 1.378 . S
C285 H280 0.931 . S
C285 C286 1.348 . S
C285 C287 1.413 . S
C286 H281 0.930 . S
C286 C284 1.378 . S
C286 C285 1.348 . S
C287 C283 1.415 . S
C287 C285 1.413 . S
C287 C317 1.437 . S
H288 C317 0.929 . S
N289 Gd262 2.570 . S
N289 C290 1.359 . S
N289 C293 1.343 . S
C290 C283 1.422 . S
C290 N289 1.359 . S
C290 C292 1.421 . S
C291 C292 1.422 . S
C291 C294 1.321 . S
C291 H318 0.931 . S
C292 C290 1.421 . S
C292 C291 1.422 . S
C292 C316 1.417 . S
C293 H270 0.931 . S
C293 N289 1.343 . S
C293 C294 1.390 . S
C294 H272 0.930 . S
C294 C291 1.321 . S
C294 C293 1.390 . S
O295 Gd263 2.386 . S
O295 C307 1.265 . S
O296 Gd262 2.353 . S
O296 C307 1.242 . S
O297 Gd262 2.468 . S
O297 C315 1.263 . S
O298 Gd262 2.427 . S
O298 C315 1.252 . S
O299 Gd263 2.307 . S
O299 C308 1.261 . S
O300 Gd262 2.388 . S
O300 C308 1.252 . S
O301 Gd262 2.386 . S
O301 C319 1.265 . S
O302 Gd263 2.353 . S
O302 C319 1.242 . S
O303 Gd263 2.468 . S
O303 C327 1.263 . S
O304 Gd263 2.427 . S
O304 C327 1.252 . S
O305 Gd262 2.307 . S
O305 C320 1.261 . S
O306 Gd263 2.388 . S
O306 C320 1.252 . S
C307 O295 1.265 . S
C307 O296 1.242 . S
C308 O299 1.261 . S
C308 O300 1.252 . S
C309 C312 1.394 . S
C309 C314 1.370 . S
C309 C315 1.500 . S
C310 C313 1.383 . S
C310 C314 1.395 . S
C311 C312 1.396 . S
C311 C313 1.365 . S
C311 H328 0.929 . S
C312 C309 1.394 . S
C312 C311 1.396 . S
C312 H329 0.930 . S
C313 C310 1.383 . S
C313 C311 1.365 . S
C313 H330 0.931 . S
C314 C309 1.370 . S
C314 C310 1.395 . S
C314 H331 0.930 . S
C315 Gd262 2.805 . S
C315 O297 1.263 . S
C315 O298 1.252 . S
C315 C309 1.500 . S
C316 H278 0.930 . S
C316 C292 1.417 . S
C316 C317 1.329 . S
C317 C287 1.437 . S
C317 H288 0.929 . S
C317 C316 1.329 . S
H318 C291 0.931 . S
C319 O301 1.265 . S
C319 O302 1.242 . S
C320 O305 1.261 . S
C320 O306 1.252 . S
C321 C324 1.394 . S
C321 C326 1.370 . S
C321 C327 1.500 . S
C322 C325 1.383 . S
C322 C326 1.395 . S
C323 C324 1.396 . S
C323 C325 1.365 . S
C323 H332 0.929 . S
C324 C321 1.394 . S
C324 C323 1.396 . S
C324 H333 0.930 . S
C325 C322 1.383 . S
C325 C323 1.365 . S
C325 H334 0.931 . S
C326 C321 1.370 . S
C326 C322 1.395 . S
C326 H335 0.930 . S
C327 Gd263 2.805 . S
C327 O303 1.263 . S
C327 O304 1.252 . S
C327 C321 1.500 . S
H328 C311 0.929 . S
H329 C312 0.930 . S
H330 C313 0.931 . S
H331 C314 0.930 . S
H332 C323 0.929 . S
H333 C324 0.930 . S
H334 C325 0.931 . S
H335 C326 0.930 . S
C336 C338 1.422 . S
C336 C340 1.415 . S
C336 N342 1.369 . S
C337 C338 1.421 . S
C337 C339 1.417 . S
C337 C349 1.422 . S
C338 C336 1.422 . S
C338 C337 1.421 . S
C338 N348 1.359 . S
C339 C337 1.417 . S
C339 C341 1.329 . S
C339 H358 0.930 . S
C340 C336 1.415 . S
C340 C341 1.437 . S
C340 C344 1.413 . S
C341 C339 1.329 . S
C341 C340 1.437 . S
C341 H363 0.929 . S
N342 C336 1.369 . S
N342 C343 1.338 . S
N342 Gd347 2.622 . S
C343 N342 1.338 . S
C343 C345 1.378 . S
C343 H355 0.929 . S
C344 C340 1.413 . S
C344 C345 1.348 . S
C344 H360 0.931 . S
C345 C343 1.378 . S
C345 C344 1.348 . S
C345 H361 0.930 . S
Gd346 N366 2.622 . S
Gd346 N373 2.570 . S
Gd346 O380 2.353 . S
Gd346 O381 2.468 . S
Gd346 O382 2.427 . S
Gd346 O384 2.388 . S
Gd346 O385 2.386 . S
Gd346 O389 2.307 . S
Gd346 C399 2.805 . S
Gd347 N342 2.622 . S
Gd347 N348 2.570 . S
Gd347 O379 2.386 . S
Gd347 O383 2.307 . S
Gd347 O386 2.353 . S
Gd347 O387 2.468 . S
Gd347 O388 2.427 . S
Gd347 O390 2.388 . S
Gd347 C411 2.805 . S
N348 C338 1.359 . S
N348 Gd347 2.570 . S
N348 C350 1.343 . S
C349 C337 1.422 . S
C349 C351 1.321 . S
C349 H357 0.931 . S
C350 N348 1.343 . S
C350 C351 1.390 . S
C350 H352 0.931 . S
C351 C349 1.321 . S
C351 C350 1.390 . S
C351 H353 0.930 . S
H352 C350 0.931 . S
H353 C351 0.930 . S
H354 C377 0.931 . S
H355 C343 0.929 . S
H356 C378 0.930 . S
H357 C349 0.931 . S
H358 C339 0.930 . S
H359 C368 0.929 . S
H360 C344 0.931 . S
H361 C345 0.930 . S
H362 C400 0.930 . S
H363 C341 0.929 . S
H364 C369 0.931 . S
H365 C370 0.930 . S
N366 Gd346 2.622 . S
N366 C367 1.369 . S
N366 C368 1.338 . S
C367 N366 1.369 . S
C367 C371 1.415 . S
C367 C374 1.422 . S
C368 H359 0.929 . S
C368 N366 1.338 . S
C368 C370 1.378 . S
C369 H364 0.931 . S
C369 C370 1.348 . S
C369 C371 1.413 . S
C370 H365 0.930 . S
C370 C368 1.378 . S
C370 C369 1.348 . S
C371 C367 1.415 . S
C371 C369 1.413 . S
C371 C401 1.437 . S
H372 C401 0.929 . S
N373 Gd346 2.570 . S
N373 C374 1.359 . S
N373 C377 1.343 . S
C374 C367 1.422 . S
C374 N373 1.359 . S
C374 C376 1.421 . S
C375 C376 1.422 . S
C375 C378 1.321 . S
C375 H402 0.931 . S
C376 C374 1.421 . S
C376 C375 1.422 . S
C376 C400 1.417 . S
C377 H354 0.931 . S
C377 N373 1.343 . S
C377 C378 1.390 . S
C378 H356 0.930 . S
C378 C375 1.321 . S
C378 C377 1.390 . S
O379 Gd347 2.386 . S
O379 C391 1.265 . S
O380 Gd346 2.353 . S
O380 C391 1.242 . S
O381 Gd346 2.468 . S
O381 C399 1.263 . S
O382 Gd346 2.427 . S
O382 C399 1.252 . S
O383 Gd347 2.307 . S
O383 C392 1.261 . S
O384 Gd346 2.388 . S
O384 C392 1.252 . S
O385 Gd346 2.386 . S
O385 C403 1.265 . S
O386 Gd347 2.353 . S
O386 C403 1.242 . S
O387 Gd347 2.468 . S
O387 C411 1.263 . S
O388 Gd347 2.427 . S
O388 C411 1.252 . S
O389 Gd346 2.307 . S
O389 C404 1.261 . S
O390 Gd347 2.388 . S
O390 C404 1.252 . S
C391 O379 1.265 . S
C391 O380 1.242 . S
C392 O383 1.261 . S
C392 O384 1.252 . S
C393 C396 1.394 . S
C393 C398 1.370 . S
C393 C399 1.500 . S
C394 C397 1.383 . S
C394 C398 1.395 . S
C395 C396 1.396 . S
C395 C397 1.365 . S
C395 H412 0.929 . S
C396 C393 1.394 . S
C396 C395 1.396 . S
C396 H413 0.930 . S
C397 C394 1.383 . S
C397 C395 1.365 . S
C397 H414 0.931 . S
C398 C393 1.370 . S
C398 C394 1.395 . S
C398 H415 0.930 . S
C399 Gd346 2.805 . S
C399 O381 1.263 . S
C399 O382 1.252 . S
C399 C393 1.500 . S
C400 H362 0.930 . S
C400 C376 1.417 . S
C400 C401 1.329 . S
C401 C371 1.437 . S
C401 H372 0.929 . S
C401 C400 1.329 . S
H402 C375 0.931 . S
C403 O385 1.265 . S
C403 O386 1.242 . S
C404 O389 1.261 . S
C404 O390 1.252 . S
C405 C408 1.394 . S
C405 C410 1.370 . S
C405 C411 1.500 . S
C406 C409 1.383 . S
C406 C410 1.395 . S
C407 C408 1.396 . S
C407 C409 1.365 . S
C407 H416 0.929 . S
C408 C405 1.394 . S
C408 C407 1.396 . S
C408 H417 0.930 . S
C409 C406 1.383 . S
C409 C407 1.365 . S
C409 H418 0.931 . S
C410 C405 1.370 . S
C410 C406 1.395 . S
C410 H419 0.930 . S
C411 Gd347 2.805 . S
C411 O387 1.263 . S
C411 O388 1.252 . S
C411 C405 1.500 . S
H412 C395 0.929 . S
H413 C396 0.930 . S
H414 C397 0.931 . S
H415 C398 0.930 . S
H416 C407 0.929 . S
H417 C408 0.930 . S
H418 C409 0.931 . S
H419 C410 0.930 . S
C420 C422 1.422 . S
C420 C424 1.415 . S
C420 N426 1.369 . S
C421 C422 1.421 . S
C421 C423 1.417 . S
C421 C433 1.422 . S
C422 C420 1.422 . S
C422 C421 1.421 . S
C422 N432 1.359 . S
C423 C421 1.417 . S
C423 C425 1.329 . S
C423 H442 0.930 . S
C424 C420 1.415 . S
C424 C425 1.437 . S
C424 C428 1.413 . S
C425 C423 1.329 . S
C425 C424 1.437 . S
C425 H447 0.929 . S
N426 C420 1.369 . S
N426 C427 1.338 . S
N426 Gd431 2.622 . S
C427 N426 1.338 . S
C427 C429 1.378 . S
C427 H439 0.929 . S
C428 C424 1.413 . S
C428 C429 1.348 . S
C428 H444 0.931 . S
C429 C427 1.378 . S
C429 C428 1.348 . S
C429 H445 0.930 . S
Gd430 N450 2.622 . S
Gd430 N457 2.570 . S
Gd430 O464 2.353 . S
Gd430 O465 2.468 . S
Gd430 O466 2.427 . S
Gd430 O468 2.388 . S
Gd430 O469 2.386 . S
Gd430 O473 2.307 . S
Gd430 C483 2.805 . S
Gd431 N426 2.622 . S
Gd431 N432 2.570 . S
Gd431 O463 2.386 . S
Gd431 O467 2.307 . S
Gd431 O470 2.353 . S
Gd431 O471 2.468 . S
Gd431 O472 2.427 . S
Gd431 O474 2.388 . S
Gd431 C495 2.805 . S
N432 C422 1.359 . S
N432 Gd431 2.570 . S
N432 C434 1.343 . S
C433 C421 1.422 . S
C433 C435 1.321 . S
C433 H441 0.931 . S
C434 N432 1.343 . S
C434 C435 1.390 . S
C434 H436 0.931 . S
C435 C433 1.321 . S
C435 C434 1.390 . S
C435 H437 0.930 . S
H436 C434 0.931 . S
H437 C435 0.930 . S
H438 C461 0.931 . S
H439 C427 0.929 . S
H440 C462 0.930 . S
H441 C433 0.931 . S
H442 C423 0.930 . S
H443 C452 0.929 . S
H444 C428 0.931 . S
H445 C429 0.930 . S
H446 C484 0.930 . S
H447 C425 0.929 . S
H448 C453 0.931 . S
H449 C454 0.930 . S
N450 Gd430 2.622 . S
N450 C451 1.369 . S
N450 C452 1.338 . S
C451 N450 1.369 . S
C451 C455 1.415 . S
C451 C458 1.422 . S
C452 H443 0.929 . S
C452 N450 1.338 . S
C452 C454 1.378 . S
C453 H448 0.931 . S
C453 C454 1.348 . S
C453 C455 1.413 . S
C454 H449 0.930 . S
C454 C452 1.378 . S
C454 C453 1.348 . S
C455 C451 1.415 . S
C455 C453 1.413 . S
C455 C485 1.437 . S
H456 C485 0.929 . S
N457 Gd430 2.570 . S
N457 C458 1.359 . S
N457 C461 1.343 . S
C458 C451 1.422 . S
C458 N457 1.359 . S
C458 C460 1.421 . S
C459 C460 1.422 . S
C459 C462 1.321 . S
C459 H486 0.931 . S
C460 C458 1.421 . S
C460 C459 1.422 . S
C460 C484 1.417 . S
C461 H438 0.931 . S
C461 N457 1.343 . S
C461 C462 1.390 . S
C462 H440 0.930 . S
C462 C459 1.321 . S
C462 C461 1.390 . S
O463 Gd431 2.386 . S
O463 C475 1.265 . S
O464 Gd430 2.353 . S
O464 C475 1.242 . S
O465 Gd430 2.468 . S
O465 C483 1.263 . S
O466 Gd430 2.427 . S
O466 C483 1.252 . S
O467 Gd431 2.307 . S
O467 C476 1.261 . S
O468 Gd430 2.388 . S
O468 C476 1.252 . S
O469 Gd430 2.386 . S
O469 C487 1.265 . S
O470 Gd431 2.353 . S
O470 C487 1.242 . S
O471 Gd431 2.468 . S
O471 C495 1.263 . S
O472 Gd431 2.427 . S
O472 C495 1.252 . S
O473 Gd430 2.307 . S
O473 C488 1.261 . S
O474 Gd431 2.388 . S
O474 C488 1.252 . S
C475 O463 1.265 . S
C475 O464 1.242 . S
C476 O467 1.261 . S
C476 O468 1.252 . S
C477 C480 1.394 . S
C477 C482 1.370 . S
C477 C483 1.500 . S
C478 C481 1.383 . S
C478 C482 1.395 . S
C479 C480 1.396 . S
C479 C481 1.365 . S
C479 H496 0.929 . S
C480 C477 1.394 . S
C480 C479 1.396 . S
C480 H497 0.930 . S
C481 C478 1.383 . S
C481 C479 1.365 . S
C481 H498 0.931 . S
C482 C477 1.370 . S
C482 C478 1.395 . S
C482 H499 0.930 . S
C483 Gd430 2.805 . S
C483 O465 1.263 . S
C483 O466 1.252 . S
C483 C477 1.500 . S
C484 H446 0.930 . S
C484 C460 1.417 . S
C484 C485 1.329 . S
C485 C455 1.437 . S
C485 H456 0.929 . S
C485 C484 1.329 . S
H486 C459 0.931 . S
C487 O469 1.265 . S
C487 O470 1.242 . S
C488 O473 1.261 . S
C488 O474 1.252 . S
C489 C492 1.394 . S
C489 C494 1.370 . S
C489 C495 1.500 . S
C490 C493 1.383 . S
C490 C494 1.395 . S
C491 C492 1.396 . S
C491 C493 1.365 . S
C491 H500 0.929 . S
C492 C489 1.394 . S
C492 C491 1.396 . S
C492 H501 0.930 . S
C493 C490 1.383 . S
C493 C491 1.365 . S
C493 H502 0.931 . S
C494 C489 1.370 . S
C494 C490 1.395 . S
C494 H503 0.930 . S
C495 Gd431 2.805 . S
C495 O471 1.263 . S
C495 O472 1.252 . S
C495 C489 1.500 . S
H496 C479 0.929 . S
H497 C480 0.930 . S
H498 C481 0.931 . S
H499 C482 0.930 . S
H500 C491 0.929 . S
H501 C492 0.930 . S
H502 C493 0.931 . S
H503 C494 0.930 . S
C504 C506 1.422 . S
C504 C508 1.415 . S
C504 N510 1.369 . S
C505 C506 1.421 . S
C505 C507 1.417 . S
C505 C517 1.422 . S
C506 C504 1.422 . S
C506 C505 1.421 . S
C506 N516 1.359 . S
C507 C505 1.417 . S
C507 C509 1.329 . S
C507 H526 0.930 . S
C508 C504 1.415 . S
C508 C509 1.437 . S
C508 C512 1.413 . S
C509 C507 1.329 . S
C509 C508 1.437 . S
C509 H531 0.929 . S
N510 C504 1.369 . S
N510 C511 1.338 . S
N510 Gd515 2.622 . S
C511 N510 1.338 . S
C511 C513 1.378 . S
C511 H523 0.929 . S
C512 C508 1.413 . S
C512 C513 1.348 . S
C512 H528 0.931 . S
C513 C511 1.378 . S
C513 C512 1.348 . S
C513 H529 0.930 . S
Gd514 N534 2.622 . S
Gd514 N541 2.570 . S
Gd514 O548 2.353 . S
Gd514 O549 2.468 . S
Gd514 O550 2.427 . S
Gd514 O552 2.388 . S
Gd514 O553 2.386 . S
Gd514 O557 2.307 . S
Gd514 C567 2.805 . S
Gd515 N510 2.622 . S
Gd515 N516 2.570 . S
Gd515 O547 2.386 . S
Gd515 O551 2.307 . S
Gd515 O554 2.353 . S
Gd515 O555 2.468 . S
Gd515 O556 2.427 . S
Gd515 O558 2.388 . S
Gd515 C579 2.805 . S
N516 C506 1.359 . S
N516 Gd515 2.570 . S
N516 C518 1.343 . S
C517 C505 1.422 . S
C517 C519 1.321 . S
C517 H525 0.931 . S
C518 N516 1.343 . S
C518 C519 1.390 . S
C518 H520 0.931 . S
C519 C517 1.321 . S
C519 C518 1.390 . S
C519 H521 0.930 . S
H520 C518 0.931 . S
H521 C519 0.930 . S
H522 C545 0.931 . S
H523 C511 0.929 . S
H524 C546 0.930 . S
H525 C517 0.931 . S
H526 C507 0.930 . S
H527 C536 0.929 . S
H528 C512 0.931 . S
H529 C513 0.930 . S
H530 C568 0.930 . S
H531 C509 0.929 . S
H532 C537 0.931 . S
H533 C538 0.930 . S
N534 Gd514 2.622 . S
N534 C535 1.369 . S
N534 C536 1.338 . S
C535 N534 1.369 . S
C535 C539 1.415 . S
C535 C542 1.422 . S
C536 H527 0.929 . S
C536 N534 1.338 . S
C536 C538 1.378 . S
C537 H532 0.931 . S
C537 C538 1.348 . S
C537 C539 1.413 . S
C538 H533 0.930 . S
C538 C536 1.378 . S
C538 C537 1.348 . S
C539 C535 1.415 . S
C539 C537 1.413 . S
C539 C569 1.437 . S
H540 C569 0.929 . S
N541 Gd514 2.570 . S
N541 C542 1.359 . S
N541 C545 1.343 . S
C542 C535 1.422 . S
C542 N541 1.359 . S
C542 C544 1.421 . S
C543 C544 1.422 1_554 S
C543 C546 1.321 . S
C543 H570 0.931 . S
C544 C542 1.421 . S
C544 C543 1.422 1_556 S
C544 C568 1.417 . S
C545 H522 0.931 . S
C545 N541 1.343 . S
C545 C546 1.390 1_556 S
C546 H524 0.930 . S
C546 C543 1.321 . S
C546 C545 1.390 1_554 S
O547 Gd515 2.386 . S
O547 C559 1.265 . S
O548 Gd514 2.353 . S
O548 C559 1.242 . S
O549 Gd514 2.468 . S
O549 C567 1.263 . S
O550 Gd514 2.427 . S
O550 C567 1.252 . S
O551 Gd515 2.307 . S
O551 C560 1.261 . S
O552 Gd514 2.388 . S
O552 C560 1.252 . S
O553 Gd514 2.386 . S
O553 C571 1.265 . S
O554 Gd515 2.353 . S
O554 C571 1.242 . S
O555 Gd515 2.468 . S
O555 C579 1.263 . S
O556 Gd515 2.427 . S
O556 C579 1.252 . S
O557 Gd514 2.307 . S
O557 C572 1.261 . S
O558 Gd515 2.388 . S
O558 C572 1.252 . S
C559 O547 1.265 . S
C559 O548 1.242 . S
C560 O551 1.261 . S
C560 O552 1.252 . S
C561 C564 1.394 . S
C561 C566 1.370 . S
C561 C567 1.500 . S
C562 C565 1.383 . S
C562 C566 1.395 . S
C563 C564 1.396 . S
C563 C565 1.365 . S
C563 H580 0.929 . S
C564 C561 1.394 . S
C564 C563 1.396 . S
C564 H581 0.930 . S
C565 C562 1.383 . S
C565 C563 1.365 . S
C565 H582 0.931 . S
C566 C561 1.370 . S
C566 C562 1.395 . S
C566 H583 0.930 . S
C567 Gd514 2.805 . S
C567 O549 1.263 . S
C567 O550 1.252 . S
C567 C561 1.500 . S
C568 H530 0.930 . S
C568 C544 1.417 . S
C568 C569 1.329 . S
C569 C539 1.437 . S
C569 H540 0.929 . S
C569 C568 1.329 . S
H570 C543 0.931 . S
C571 O553 1.265 . S
C571 O554 1.242 . S
C572 O557 1.261 . S
C572 O558 1.252 . S
C573 C576 1.394 . S
C573 C578 1.370 . S
C573 C579 1.500 . S
C574 C577 1.383 . S
C574 C578 1.395 . S
C575 C576 1.396 . S
C575 C577 1.365 . S
C575 H584 0.929 . S
C576 C573 1.394 . S
C576 C575 1.396 . S
C576 H585 0.930 . S
C577 C574 1.383 . S
C577 C575 1.365 . S
C577 H586 0.931 . S
C578 C573 1.370 . S
C578 C574 1.395 . S
C578 H587 0.930 . S
C579 Gd515 2.805 . S
C579 O555 1.263 . S
C579 O556 1.252 . S
C579 C573 1.500 . S
H580 C563 0.929 . S
H581 C564 0.930 . S
H582 C565 0.931 . S
H583 C566 0.930 . S
H584 C575 0.929 . S
H585 C576 0.930 . S
H586 C577 0.931 . S
H587 C578 0.930 . S
C588 C590 1.422 . S
C588 C592 1.415 . S
C588 N594 1.369 . S
C589 C590 1.421 . S
C589 C591 1.417 . S
C589 C601 1.422 . S
C590 C588 1.422 . S
C590 C589 1.421 . S
C590 N600 1.359 . S
C591 C589 1.417 . S
C591 C593 1.329 . S
C591 H610 0.930 . S
C592 C588 1.415 . S
C592 C593 1.437 . S
C592 C596 1.413 . S
C593 C591 1.329 . S
C593 C592 1.437 . S
C593 H615 0.929 . S
N594 C588 1.369 . S
N594 C595 1.338 . S
N594 Gd599 2.622 . S
C595 N594 1.338 . S
C595 C597 1.378 . S
C595 H607 0.929 . S
C596 C592 1.413 . S
C596 C597 1.348 . S
C596 H612 0.931 . S
C597 C595 1.378 . S
C597 C596 1.348 . S
C597 H613 0.930 . S
Gd598 N618 2.622 . S
Gd598 N625 2.570 . S
Gd598 O632 2.353 . S
Gd598 O633 2.468 . S
Gd598 O634 2.427 . S
Gd598 O636 2.388 . S
Gd598 O637 2.386 . S
Gd598 O641 2.307 . S
Gd598 C651 2.805 . S
Gd599 N594 2.622 . S
Gd599 N600 2.570 . S
Gd599 O631 2.386 . S
Gd599 O635 2.307 . S
Gd599 O638 2.353 . S
Gd599 O639 2.468 . S
Gd599 O640 2.427 . S
Gd599 O642 2.388 . S
Gd599 C663 2.805 . S
N600 C590 1.359 . S
N600 Gd599 2.570 . S
N600 C602 1.343 . S
C601 C589 1.422 . S
C601 C603 1.321 . S
C601 H609 0.931 . S
C602 N600 1.343 . S
C602 C603 1.390 . S
C602 H604 0.931 . S
C603 C601 1.321 . S
C603 C602 1.390 . S
C603 H605 0.930 . S
H604 C602 0.931 . S
H605 C603 0.930 . S
H606 C629 0.931 . S
H607 C595 0.929 . S
H608 C630 0.930 . S
H609 C601 0.931 . S
H610 C591 0.930 . S
H611 C620 0.929 . S
H612 C596 0.931 . S
H613 C597 0.930 . S
H614 C652 0.930 . S
H615 C593 0.929 . S
H616 C621 0.931 . S
H617 C622 0.930 . S
N618 Gd598 2.622 . S
N618 C619 1.369 . S
N618 C620 1.338 . S
C619 N618 1.369 . S
C619 C623 1.415 . S
C619 C626 1.422 . S
C620 H611 0.929 . S
C620 N618 1.338 . S
C620 C622 1.378 . S
C621 H616 0.931 . S
C621 C622 1.348 . S
C621 C623 1.413 . S
C622 H617 0.930 . S
C622 C620 1.378 . S
C622 C621 1.348 . S
C623 C619 1.415 . S
C623 C621 1.413 . S
C623 C653 1.437 . S
H624 C653 0.929 . S
N625 Gd598 2.570 . S
N625 C626 1.359 . S
N625 C629 1.343 . S
C626 C619 1.422 . S
C626 N625 1.359 . S
C626 C628 1.421 . S
C627 C628 1.422 1_554 S
C627 C630 1.321 . S
C627 H654 0.931 . S
C628 C626 1.421 . S
C628 C627 1.422 1_556 S
C628 C652 1.417 . S
C629 H606 0.931 . S
C629 N625 1.343 . S
C629 C630 1.390 1_556 S
C630 H608 0.930 . S
C630 C627 1.321 . S
C630 C629 1.390 1_554 S
O631 Gd599 2.386 . S
O631 C643 1.265 . S
O632 Gd598 2.353 . S
O632 C643 1.242 . S
O633 Gd598 2.468 . S
O633 C651 1.263 . S
O634 Gd598 2.427 . S
O634 C651 1.252 . S
O635 Gd599 2.307 . S
O635 C644 1.261 . S
O636 Gd598 2.388 . S
O636 C644 1.252 . S
O637 Gd598 2.386 . S
O637 C655 1.265 . S
O638 Gd599 2.353 . S
O638 C655 1.242 . S
O639 Gd599 2.468 . S
O639 C663 1.263 . S
O640 Gd599 2.427 . S
O640 C663 1.252 . S
O641 Gd598 2.307 . S
O641 C656 1.261 . S
O642 Gd599 2.388 . S
O642 C656 1.252 . S
C643 O631 1.265 . S
C643 O632 1.242 . S
C644 O635 1.261 . S
C644 O636 1.252 . S
C645 C648 1.394 . S
C645 C650 1.370 . S
C645 C651 1.500 . S
C646 C649 1.383 . S
C646 C650 1.395 . S
C647 C648 1.396 . S
C647 C649 1.365 . S
C647 H664 0.929 . S
C648 C645 1.394 . S
C648 C647 1.396 . S
C648 H665 0.930 . S
C649 C646 1.383 . S
C649 C647 1.365 . S
C649 H666 0.931 . S
C650 C645 1.370 . S
C650 C646 1.395 . S
C650 H667 0.930 . S
C651 Gd598 2.805 . S
C651 O633 1.263 . S
C651 O634 1.252 . S
C651 C645 1.500 . S
C652 H614 0.930 . S
C652 C628 1.417 . S
C652 C653 1.329 . S
C653 C623 1.437 . S
C653 H624 0.929 . S
C653 C652 1.329 . S
H654 C627 0.931 . S
C655 O637 1.265 . S
C655 O638 1.242 . S
C656 O641 1.261 . S
C656 O642 1.252 . S
C657 C660 1.394 . S
C657 C662 1.370 . S
C657 C663 1.500 . S
C658 C661 1.383 . S
C658 C662 1.395 . S
C659 C660 1.396 . S
C659 C661 1.365 . S
C659 H668 0.929 . S
C660 C657 1.394 . S
C660 C659 1.396 . S
C660 H669 0.930 . S
C661 C658 1.383 . S
C661 C659 1.365 . S
C661 H670 0.931 . S
C662 C657 1.370 . S
C662 C658 1.395 . S
C662 H671 0.930 . S
C663 Gd599 2.805 . S
C663 O639 1.263 . S
C663 O640 1.252 . S
C663 C657 1.500 . S
H664 C647 0.929 . S
H665 C648 0.930 . S
H666 C649 0.931 . S
H667 C650 0.930 . S
H668 C659 0.929 . S
H669 C660 0.930 . S
H670 C661 0.931 . S
H671 C662 0.930 . S
C672 C674 1.422 . S
C672 C676 1.415 . S
C672 N678 1.369 . S
C673 C674 1.421 . S
C673 C675 1.417 . S
C673 C685 1.422 . S
C674 C672 1.422 . S
C674 C673 1.421 . S
C674 N684 1.359 . S
C675 C673 1.417 . S
C675 C677 1.329 . S
C675 H694 0.930 . S
C676 C672 1.415 . S
C676 C677 1.437 . S
C676 C680 1.413 . S
C677 C675 1.329 . S
C677 C676 1.437 . S
C677 H699 0.929 . S
N678 C672 1.369 . S
N678 C679 1.338 . S
N678 Gd683 2.622 . S
C679 N678 1.338 . S
C679 C681 1.378 . S
C679 H691 0.929 . S
C680 C676 1.413 . S
C680 C681 1.348 . S
C680 H696 0.931 . S
C681 C679 1.378 . S
C681 C680 1.348 . S
C681 H697 0.930 . S
Gd682 N702 2.622 . S
Gd682 N709 2.570 . S
Gd682 O716 2.353 . S
Gd682 O717 2.468 . S
Gd682 O718 2.427 . S
Gd682 O720 2.388 . S
Gd682 O721 2.386 . S
Gd682 O725 2.307 . S
Gd682 C735 2.805 . S
Gd683 N678 2.622 . S
Gd683 N684 2.570 . S
Gd683 O715 2.386 . S
Gd683 O719 2.307 . S
Gd683 O722 2.353 . S
Gd683 O723 2.468 . S
Gd683 O724 2.427 . S
Gd683 O726 2.388 . S
Gd683 C747 2.805 . S
N684 C674 1.359 . S
N684 Gd683 2.570 . S
N684 C686 1.343 . S
C685 C673 1.422 . S
C685 C687 1.321 . S
C685 H693 0.931 . S
C686 N684 1.343 . S
C686 C687 1.390 . S
C686 H688 0.931 . S
C687 C685 1.321 . S
C687 C686 1.390 . S
C687 H689 0.930 . S
H688 C686 0.931 . S
H689 C687 0.930 . S
H690 C713 0.931 . S
H691 C679 0.929 . S
H692 C714 0.930 . S
H693 C685 0.931 . S
H694 C675 0.930 . S
H695 C704 0.929 . S
H696 C680 0.931 . S
H697 C681 0.930 . S
H698 C736 0.930 . S
H699 C677 0.929 . S
H700 C705 0.931 . S
H701 C706 0.930 . S
N702 Gd682 2.622 . S
N702 C703 1.369 . S
N702 C704 1.338 . S
C703 N702 1.369 . S
C703 C707 1.415 . S
C703 C710 1.422 . S
C704 H695 0.929 . S
C704 N702 1.338 . S
C704 C706 1.378 . S
C705 H700 0.931 . S
C705 C706 1.348 . S
C705 C707 1.413 . S
C706 H701 0.930 . S
C706 C704 1.378 . S
C706 C705 1.348 . S
C707 C703 1.415 . S
C707 C705 1.413 . S
C707 C737 1.437 . S
H708 C737 0.929 . S
N709 Gd682 2.570 . S
N709 C710 1.359 . S
N709 C713 1.343 . S
C710 C703 1.422 . S
C710 N709 1.359 . S
C710 C712 1.421 . S
C711 C712 1.422 1_554 S
C711 C714 1.321 . S
C711 H738 0.931 . S
C712 C710 1.421 . S
C712 C711 1.422 1_556 S
C712 C736 1.417 . S
C713 H690 0.931 . S
C713 N709 1.343 . S
C713 C714 1.390 1_556 S
C714 H692 0.930 . S
C714 C711 1.321 . S
C714 C713 1.390 1_554 S
O715 Gd683 2.386 . S
O715 C727 1.265 . S
O716 Gd682 2.353 . S
O716 C727 1.242 . S
O717 Gd682 2.468 . S
O717 C735 1.263 . S
O718 Gd682 2.427 . S
O718 C735 1.252 . S
O719 Gd683 2.307 . S
O719 C728 1.261 . S
O720 Gd682 2.388 . S
O720 C728 1.252 . S
O721 Gd682 2.386 . S
O721 C739 1.265 . S
O722 Gd683 2.353 . S
O722 C739 1.242 . S
O723 Gd683 2.468 . S
O723 C747 1.263 . S
O724 Gd683 2.427 . S
O724 C747 1.252 . S
O725 Gd682 2.307 . S
O725 C740 1.261 . S
O726 Gd683 2.388 . S
O726 C740 1.252 . S
C727 O715 1.265 . S
C727 O716 1.242 . S
C728 O719 1.261 . S
C728 O720 1.252 . S
C729 C732 1.394 . S
C729 C734 1.370 . S
C729 C735 1.500 . S
C730 C733 1.383 . S
C730 C734 1.395 . S
C731 C732 1.396 . S
C731 C733 1.365 . S
C731 H748 0.929 . S
C732 C729 1.394 . S
C732 C731 1.396 . S
C732 H749 0.930 . S
C733 C730 1.383 . S
C733 C731 1.365 . S
C733 H750 0.931 . S
C734 C729 1.370 . S
C734 C730 1.395 . S
C734 H751 0.930 . S
C735 Gd682 2.805 . S
C735 O717 1.263 . S
C735 O718 1.252 . S
C735 C729 1.500 . S
C736 H698 0.930 . S
C736 C712 1.417 . S
C736 C737 1.329 . S
C737 C707 1.437 . S
C737 H708 0.929 . S
C737 C736 1.329 . S
H738 C711 0.931 . S
C739 O721 1.265 . S
C739 O722 1.242 . S
C740 O725 1.261 . S
C740 O726 1.252 . S
C741 C744 1.394 . S
C741 C746 1.370 . S
C741 C747 1.500 . S
C742 C745 1.383 . S
C742 C746 1.395 . S
C743 C744 1.396 . S
C743 C745 1.365 . S
C743 H752 0.929 . S
C744 C741 1.394 . S
C744 C743 1.396 . S
C744 H753 0.930 . S
C745 C742 1.383 . S
C745 C743 1.365 . S
C745 H754 0.931 . S
C746 C741 1.370 . S
C746 C742 1.395 . S
C746 H755 0.930 . S
C747 Gd683 2.805 . S
C747 O723 1.263 . S
C747 O724 1.252 . S
C747 C741 1.500 . S
H748 C731 0.929 . S
H749 C732 0.930 . S
H750 C733 0.931 . S
H751 C734 0.930 . S
H752 C743 0.929 . S
H753 C744 0.930 . S
H754 C745 0.931 . S
H755 C746 0.930 . S
C756 C758 1.422 . S
C756 C760 1.415 . S
C756 N762 1.369 . S
C757 C758 1.421 . S
C757 C759 1.417 . S
C757 C769 1.422 . S
C758 C756 1.422 . S
C758 C757 1.421 . S
C758 N768 1.359 . S
C759 C757 1.417 . S
C759 C761 1.329 . S
C759 H778 0.930 . S
C760 C756 1.415 . S
C760 C761 1.437 . S
C760 C764 1.413 . S
C761 C759 1.329 . S
C761 C760 1.437 . S
C761 H783 0.929 . S
N762 C756 1.369 . S
N762 C763 1.338 . S
N762 Gd767 2.622 . S
C763 N762 1.338 . S
C763 C765 1.378 . S
C763 H775 0.929 . S
C764 C760 1.413 . S
C764 C765 1.348 . S
C764 H780 0.931 . S
C765 C763 1.378 . S
C765 C764 1.348 . S
C765 H781 0.930 . S
Gd766 N786 2.622 . S
Gd766 N793 2.570 . S
Gd766 O800 2.353 . S
Gd766 O801 2.468 . S
Gd766 O802 2.427 . S
Gd766 O804 2.388 . S
Gd766 O805 2.386 . S
Gd766 O809 2.307 . S
Gd766 C819 2.805 . S
Gd767 N762 2.622 . S
Gd767 N768 2.570 . S
Gd767 O799 2.386 . S
Gd767 O803 2.307 . S
Gd767 O806 2.353 . S
Gd767 O807 2.468 . S
Gd767 O808 2.427 . S
Gd767 O810 2.388 . S
Gd767 C831 2.805 . S
N768 C758 1.359 . S
N768 Gd767 2.570 . S
N768 C770 1.343 . S
C769 C757 1.422 . S
C769 C771 1.321 . S
C769 H777 0.931 . S
C770 N768 1.343 . S
C770 C771 1.390 . S
C770 H772 0.931 . S
C771 C769 1.321 . S
C771 C770 1.390 . S
C771 H773 0.930 . S
H772 C770 0.931 . S
H773 C771 0.930 . S
H774 C797 0.931 . S
H775 C763 0.929 . S
H776 C798 0.930 . S
H777 C769 0.931 . S
H778 C759 0.930 . S
H779 C788 0.929 . S
H780 C764 0.931 . S
H781 C765 0.930 . S
H782 C820 0.930 . S
H783 C761 0.929 . S
H784 C789 0.931 . S
H785 C790 0.930 . S
N786 Gd766 2.622 . S
N786 C787 1.369 . S
N786 C788 1.338 . S
C787 N786 1.369 . S
C787 C791 1.415 . S
C787 C794 1.422 . S
C788 H779 0.929 . S
C788 N786 1.338 . S
C788 C790 1.378 . S
C789 H784 0.931 . S
C789 C790 1.348 . S
C789 C791 1.413 . S
C790 H785 0.930 . S
C790 C788 1.378 . S
C790 C789 1.348 . S
C791 C787 1.415 . S
C791 C789 1.413 . S
C791 C821 1.437 . S
H792 C821 0.929 . S
N793 Gd766 2.570 . S
N793 C794 1.359 . S
N793 C797 1.343 . S
C794 C787 1.422 . S
C794 N793 1.359 . S
C794 C796 1.421 . S
C795 C796 1.422 . S
C795 C798 1.321 . S
C795 H822 0.931 . S
C796 C794 1.421 . S
C796 C795 1.422 . S
C796 C820 1.417 . S
C797 H774 0.931 . S
C797 N793 1.343 . S
C797 C798 1.390 . S
C798 H776 0.930 . S
C798 C795 1.321 . S
C798 C797 1.390 . S
O799 Gd767 2.386 . S
O799 C811 1.265 . S
O800 Gd766 2.353 . S
O800 C811 1.242 . S
O801 Gd766 2.468 . S
O801 C819 1.263 . S
O802 Gd766 2.427 . S
O802 C819 1.252 . S
O803 Gd767 2.307 . S
O803 C812 1.261 . S
O804 Gd766 2.388 . S
O804 C812 1.252 . S
O805 Gd766 2.386 . S
O805 C823 1.265 . S
O806 Gd767 2.353 . S
O806 C823 1.242 . S
O807 Gd767 2.468 . S
O807 C831 1.263 . S
O808 Gd767 2.427 . S
O808 C831 1.252 . S
O809 Gd766 2.307 . S
O809 C824 1.261 . S
O810 Gd767 2.388 . S
O810 C824 1.252 . S
C811 O799 1.265 . S
C811 O800 1.242 . S
C812 O803 1.261 . S
C812 O804 1.252 . S
C813 C816 1.394 . S
C813 C818 1.370 . S
C813 C819 1.500 . S
C814 C817 1.383 . S
C814 C818 1.395 . S
C815 C816 1.396 . S
C815 C817 1.365 . S
C815 H832 0.929 . S
C816 C813 1.394 . S
C816 C815 1.396 . S
C816 H833 0.930 . S
C817 C814 1.383 . S
C817 C815 1.365 . S
C817 H834 0.931 . S
C818 C813 1.370 . S
C818 C814 1.395 . S
C818 H835 0.930 . S
C819 Gd766 2.805 . S
C819 O801 1.263 . S
C819 O802 1.252 . S
C819 C813 1.500 . S
C820 H782 0.930 . S
C820 C796 1.417 . S
C820 C821 1.329 . S
C821 C791 1.437 . S
C821 H792 0.929 . S
C821 C820 1.329 . S
H822 C795 0.931 . S
C823 O805 1.265 . S
C823 O806 1.242 . S
C824 O809 1.261 . S
C824 O810 1.252 . S
C825 C828 1.394 . S
C825 C830 1.370 . S
C825 C831 1.500 . S
C826 C829 1.383 . S
C826 C830 1.395 . S
C827 C828 1.396 . S
C827 C829 1.365 . S
C827 H836 0.929 . S
C828 C825 1.394 . S
C828 C827 1.396 . S
C828 H837 0.930 . S
C829 C826 1.383 . S
C829 C827 1.365 . S
C829 H838 0.931 . S
C830 C825 1.370 . S
C830 C826 1.395 . S
C830 H839 0.930 . S
C831 Gd767 2.805 . S
C831 O807 1.263 . S
C831 O808 1.252 . S
C831 C825 1.500 . S
H832 C815 0.929 . S
H833 C816 0.930 . S
H834 C817 0.931 . S
H835 C818 0.930 . S
H836 C827 0.929 . S
H837 C828 0.930 . S
H838 C829 0.931 . S
H839 C830 0.930 . S
C840 C842 1.422 . S
C840 C844 1.415 . S
C840 N846 1.369 . S
C841 C842 1.421 . S
C841 C843 1.417 . S
C841 C853 1.422 . S
C842 C840 1.422 . S
C842 C841 1.421 . S
C842 N852 1.359 . S
C843 C841 1.417 . S
C843 C845 1.329 . S
C843 H862 0.930 . S
C844 C840 1.415 . S
C844 C845 1.437 . S
C844 C848 1.413 . S
C845 C843 1.329 . S
C845 C844 1.437 . S
C845 H867 0.929 . S
N846 C840 1.369 . S
N846 C847 1.338 . S
N846 Gd851 2.622 . S
C847 N846 1.338 . S
C847 C849 1.378 . S
C847 H859 0.929 . S
C848 C844 1.413 . S
C848 C849 1.348 . S
C848 H864 0.931 . S
C849 C847 1.378 . S
C849 C848 1.348 . S
C849 H865 0.930 . S
Gd850 N870 2.622 . S
Gd850 N877 2.570 . S
Gd850 O884 2.353 . S
Gd850 O885 2.468 . S
Gd850 O886 2.427 . S
Gd850 O888 2.388 . S
Gd850 O889 2.386 . S
Gd850 O893 2.307 . S
Gd850 C903 2.805 . S
Gd851 N846 2.622 . S
Gd851 N852 2.570 . S
Gd851 O883 2.386 . S
Gd851 O887 2.307 . S
Gd851 O890 2.353 . S
Gd851 O891 2.468 . S
Gd851 O892 2.427 . S
Gd851 O894 2.388 . S
Gd851 C915 2.805 . S
N852 C842 1.359 . S
N852 Gd851 2.570 . S
N852 C854 1.343 . S
C853 C841 1.422 . S
C853 C855 1.321 . S
C853 H861 0.931 . S
C854 N852 1.343 . S
C854 C855 1.390 . S
C854 H856 0.931 . S
C855 C853 1.321 . S
C855 C854 1.390 . S
C855 H857 0.930 . S
H856 C854 0.931 . S
H857 C855 0.930 . S
H858 C881 0.931 . S
H859 C847 0.929 . S
H860 C882 0.930 . S
H861 C853 0.931 . S
H862 C843 0.930 . S
H863 C872 0.929 . S
H864 C848 0.931 . S
H865 C849 0.930 . S
H866 C904 0.930 . S
H867 C845 0.929 . S
H868 C873 0.931 . S
H869 C874 0.930 . S
N870 Gd850 2.622 . S
N870 C871 1.369 . S
N870 C872 1.338 . S
C871 N870 1.369 . S
C871 C875 1.415 . S
C871 C878 1.422 . S
C872 H863 0.929 . S
C872 N870 1.338 . S
C872 C874 1.378 . S
C873 H868 0.931 . S
C873 C874 1.348 . S
C873 C875 1.413 . S
C874 H869 0.930 . S
C874 C872 1.378 . S
C874 C873 1.348 . S
C875 C871 1.415 . S
C875 C873 1.413 . S
C875 C905 1.437 . S
H876 C905 0.929 . S
N877 Gd850 2.570 . S
N877 C878 1.359 . S
N877 C881 1.343 . S
C878 C871 1.422 . S
C878 N877 1.359 . S
C878 C880 1.421 . S
C879 C880 1.422 . S
C879 C882 1.321 . S
C879 H906 0.931 . S
C880 C878 1.421 . S
C880 C879 1.422 . S
C880 C904 1.417 . S
C881 H858 0.931 . S
C881 N877 1.343 . S
C881 C882 1.390 . S
C882 H860 0.930 . S
C882 C879 1.321 . S
C882 C881 1.390 . S
O883 Gd851 2.386 . S
O883 C895 1.265 . S
O884 Gd850 2.353 . S
O884 C895 1.242 . S
O885 Gd850 2.468 . S
O885 C903 1.263 . S
O886 Gd850 2.427 . S
O886 C903 1.252 . S
O887 Gd851 2.307 . S
O887 C896 1.261 . S
O888 Gd850 2.388 . S
O888 C896 1.252 . S
O889 Gd850 2.386 . S
O889 C907 1.265 . S
O890 Gd851 2.353 . S
O890 C907 1.242 . S
O891 Gd851 2.468 . S
O891 C915 1.263 . S
O892 Gd851 2.427 . S
O892 C915 1.252 . S
O893 Gd850 2.307 . S
O893 C908 1.261 . S
O894 Gd851 2.388 . S
O894 C908 1.252 . S
C895 O883 1.265 . S
C895 O884 1.242 . S
C896 O887 1.261 . S
C896 O888 1.252 . S
C897 C900 1.394 . S
C897 C902 1.370 . S
C897 C903 1.500 . S
C898 C901 1.383 . S
C898 C902 1.395 . S
C899 C900 1.396 . S
C899 C901 1.365 . S
C899 H916 0.929 . S
C900 C897 1.394 . S
C900 C899 1.396 . S
C900 H917 0.930 . S
C901 C898 1.383 . S
C901 C899 1.365 . S
C901 H918 0.931 . S
C902 C897 1.370 . S
C902 C898 1.395 . S
C902 H919 0.930 . S
C903 Gd850 2.805 . S
C903 O885 1.263 . S
C903 O886 1.252 . S
C903 C897 1.500 . S
C904 H866 0.930 . S
C904 C880 1.417 . S
C904 C905 1.329 . S
C905 C875 1.437 . S
C905 H876 0.929 . S
C905 C904 1.329 . S
H906 C879 0.931 . S
C907 O889 1.265 . S
C907 O890 1.242 . S
C908 O893 1.261 . S
C908 O894 1.252 . S
C909 C912 1.394 . S
C909 C914 1.370 . S
C909 C915 1.500 . S
C910 C913 1.383 . S
C910 C914 1.395 . S
C911 C912 1.396 . S
C911 C913 1.365 . S
C911 H920 0.929 . S
C912 C909 1.394 . S
C912 C911 1.396 . S
C912 H921 0.930 . S
C913 C910 1.383 . S
C913 C911 1.365 . S
C913 H922 0.931 . S
C914 C909 1.370 . S
C914 C910 1.395 . S
C914 H923 0.930 . S
C915 Gd851 2.805 . S
C915 O891 1.263 . S
C915 O892 1.252 . S
C915 C909 1.500 . S
H916 C899 0.929 . S
H917 C900 0.930 . S
H918 C901 0.931 . S
H919 C902 0.930 . S
H920 C911 0.929 . S
H921 C912 0.930 . S
H922 C913 0.931 . S
H923 C914 0.930 . S
C924 C926 1.422 . S
C924 C928 1.415 . S
C924 N930 1.369 . S
C925 C926 1.421 . S
C925 C927 1.417 . S
C925 C937 1.422 . S
C926 C924 1.422 . S
C926 C925 1.421 . S
C926 N936 1.359 . S
C927 C925 1.417 . S
C927 C929 1.329 . S
C927 H946 0.930 . S
C928 C924 1.415 . S
C928 C929 1.437 . S
C928 C932 1.413 . S
C929 C927 1.329 . S
C929 C928 1.437 . S
C929 H951 0.929 . S
N930 C924 1.369 . S
N930 C931 1.338 . S
N930 Gd935 2.622 . S
C931 N930 1.338 . S
C931 C933 1.378 . S
C931 H943 0.929 . S
C932 C928 1.413 . S
C932 C933 1.348 . S
C932 H948 0.931 . S
C933 C931 1.378 . S
C933 C932 1.348 . S
C933 H949 0.930 . S
Gd934 N954 2.622 . S
Gd934 N961 2.570 . S
Gd934 O968 2.353 . S
Gd934 O969 2.468 . S
Gd934 O970 2.427 . S
Gd934 O972 2.388 . S
Gd934 O973 2.386 . S
Gd934 O977 2.307 . S
Gd934 C987 2.805 . S
Gd935 N930 2.622 . S
Gd935 N936 2.570 . S
Gd935 O967 2.386 . S
Gd935 O971 2.307 . S
Gd935 O974 2.353 . S
Gd935 O975 2.468 . S
Gd935 O976 2.427 . S
Gd935 O978 2.388 . S
Gd935 C999 2.805 . S
N936 C926 1.359 . S
N936 Gd935 2.570 . S
N936 C938 1.343 . S
C937 C925 1.422 . S
C937 C939 1.321 . S
C937 H945 0.931 . S
C938 N936 1.343 . S
C938 C939 1.390 . S
C938 H940 0.931 . S
C939 C937 1.321 . S
C939 C938 1.390 . S
C939 H941 0.930 . S
H940 C938 0.931 . S
H941 C939 0.930 . S
H942 C965 0.931 . S
H943 C931 0.929 . S
H944 C966 0.930 . S
H945 C937 0.931 . S
H946 C927 0.930 . S
H947 C956 0.929 . S
H948 C932 0.931 . S
H949 C933 0.930 . S
H950 C988 0.930 . S
H951 C929 0.929 . S
H952 C957 0.931 . S
H953 C958 0.930 . S
N954 Gd934 2.622 . S
N954 C955 1.369 . S
N954 C956 1.338 . S
C955 N954 1.369 . S
C955 C959 1.415 . S
C955 C962 1.422 . S
C956 H947 0.929 . S
C956 N954 1.338 . S
C956 C958 1.378 . S
C957 H952 0.931 . S
C957 C958 1.348 . S
C957 C959 1.413 . S
C958 H953 0.930 . S
C958 C956 1.378 . S
C958 C957 1.348 . S
C959 C955 1.415 . S
C959 C957 1.413 . S
C959 C989 1.437 . S
H960 C989 0.929 . S
N961 Gd934 2.570 . S
N961 C962 1.359 . S
N961 C965 1.343 . S
C962 C955 1.422 . S
C962 N961 1.359 . S
C962 C964 1.421 . S
C963 C964 1.422 . S
C963 C966 1.321 . S
C963 H990 0.931 . S
C964 C962 1.421 . S
C964 C963 1.422 . S
C964 C988 1.417 . S
C965 H942 0.931 . S
C965 N961 1.343 . S
C965 C966 1.390 . S
C966 H944 0.930 . S
C966 C963 1.321 . S
C966 C965 1.390 . S
O967 Gd935 2.386 . S
O967 C979 1.265 . S
O968 Gd934 2.353 . S
O968 C979 1.242 . S
O969 Gd934 2.468 . S
O969 C987 1.263 . S
O970 Gd934 2.427 . S
O970 C987 1.252 . S
O971 Gd935 2.307 . S
O971 C980 1.261 . S
O972 Gd934 2.388 . S
O972 C980 1.252 . S
O973 Gd934 2.386 . S
O973 C991 1.265 . S
O974 Gd935 2.353 . S
O974 C991 1.242 . S
O975 Gd935 2.468 . S
O975 C999 1.263 . S
O976 Gd935 2.427 . S
O976 C999 1.252 . S
O977 Gd934 2.307 . S
O977 C992 1.261 . S
O978 Gd935 2.388 . S
O978 C992 1.252 . S
C979 O967 1.265 . S
C979 O968 1.242 . S
C980 O971 1.261 . S
C980 O972 1.252 . S
C981 C984 1.394 . S
C981 C986 1.370 . S
C981 C987 1.500 . S
C982 C985 1.383 . S
C982 C986 1.395 . S
C983 C984 1.396 . S
C983 C985 1.365 . S
C983 H1000 0.929 . S
C984 C981 1.394 . S
C984 C983 1.396 . S
C984 H1001 0.930 . S
C985 C982 1.383 . S
C985 C983 1.365 . S
C985 H1002 0.931 . S
C986 C981 1.370 . S
C986 C982 1.395 . S
C986 H1003 0.930 . S
C987 Gd934 2.805 . S
C987 O969 1.263 . S
C987 O970 1.252 . S
C987 C981 1.500 . S
C988 H950 0.930 . S
C988 C964 1.417 . S
C988 C989 1.329 . S
C989 C959 1.437 . S
C989 H960 0.929 . S
C989 C988 1.329 . S
H990 C963 0.931 . S
C991 O973 1.265 . S
C991 O974 1.242 . S
C992 O977 1.261 . S
C992 O978 1.252 . S
C993 C996 1.394 . S
C993 C998 1.370 . S
C993 C999 1.500 . S
C994 C997 1.383 . S
C994 C998 1.395 . S
C995 C996 1.396 . S
C995 C997 1.365 . S
C995 H1004 0.929 . S
C996 C993 1.394 . S
C996 C995 1.396 . S
C996 H1005 0.930 . S
C997 C994 1.383 . S
C997 C995 1.365 . S
C997 H1006 0.931 . S
C998 C993 1.370 . S
C998 C994 1.395 . S
C998 H1007 0.930 . S
C999 Gd935 2.805 . S
C999 O975 1.263 . S
C999 O976 1.252 . S
C999 C993 1.500 . S
H1000 C983 0.929 . S
H1001 C984 0.930 . S
H1002 C985 0.931 . S
H1003 C986 0.930 . S
H1004 C995 0.929 . S
H1005 C996 0.930 . S
H1006 C997 0.931 . S
H1007 C998 0.930 . S
C1008 C1010 1.422 . S
C1008 C1012 1.415 . S
C1008 N1014 1.369 . S
C1009 C1010 1.421 . S
C1009 C1011 1.417 . S
C1009 C1021 1.422 . S
C1010 C1008 1.422 . S
C1010 C1009 1.421 . S
C1010 N1020 1.359 . S
C1011 C1009 1.417 . S
C1011 C1013 1.329 . S
C1011 H1030 0.930 . S
C1012 C1008 1.415 . S
C1012 C1013 1.437 . S
C1012 C1016 1.413 . S
C1013 C1011 1.329 . S
C1013 C1012 1.437 . S
C1013 H1035 0.929 . S
N1014 C1008 1.369 . S
N1014 C1015 1.338 . S
N1014 Gd1019 2.622 . S
C1015 N1014 1.338 . S
C1015 C1017 1.378 . S
C1015 H1027 0.929 . S
C1016 C1012 1.413 . S
C1016 C1017 1.348 . S
C1016 H1032 0.931 . S
C1017 C1015 1.378 . S
C1017 C1016 1.348 . S
C1017 H1033 0.930 . S
Gd1018 N1038 2.622 . S
Gd1018 N1045 2.570 . S
Gd1018 O1052 2.353 . S
Gd1018 O1053 2.468 . S
Gd1018 O1054 2.427 . S
Gd1018 O1056 2.388 . S
Gd1018 O1057 2.386 . S
Gd1018 O1061 2.307 . S
Gd1018 C1071 2.805 . S
Gd1019 N1014 2.622 . S
Gd1019 N1020 2.570 . S
Gd1019 O1051 2.386 . S
Gd1019 O1055 2.307 . S
Gd1019 O1058 2.353 . S
Gd1019 O1059 2.468 . S
Gd1019 O1060 2.427 . S
Gd1019 O1062 2.388 . S
Gd1019 C1083 2.805 . S
N1020 C1010 1.359 . S
N1020 Gd1019 2.570 . S
N1020 C1022 1.343 . S
C1021 C1009 1.422 . S
C1021 C1023 1.321 . S
C1021 H1029 0.931 . S
C1022 N1020 1.343 . S
C1022 C1023 1.390 . S
C1022 H1024 0.931 . S
C1023 C1021 1.321 . S
C1023 C1022 1.390 . S
C1023 H1025 0.930 . S
H1024 C1022 0.931 . S
H1025 C1023 0.930 . S
H1026 C1049 0.931 . S
H1027 C1015 0.929 . S
H1028 C1050 0.930 . S
H1029 C1021 0.931 . S
H1030 C1011 0.930 . S
H1031 C1040 0.929 . S
H1032 C1016 0.931 . S
H1033 C1017 0.930 . S
H1034 C1072 0.930 . S
H1035 C1013 0.929 . S
H1036 C1041 0.931 . S
H1037 C1042 0.930 . S
N1038 Gd1018 2.622 . S
N1038 C1039 1.369 . S
N1038 C1040 1.338 . S
C1039 N1038 1.369 . S
C1039 C1043 1.373 1_655 S
C1039 C1046 1.422 . S
C1040 H1031 0.929 . S
C1040 N1038 1.338 . S
C1040 C1042 1.378 . S
C1041 H1036 0.931 . S
C1041 C1042 1.348 1_455 S
C1041 C1043 1.428 . S
C1042 H1037 0.930 . S
C1042 C1040 1.378 . S
C1042 C1041 1.348 1_655 S
C1043 C1039 1.373 1_455 S
C1043 C1041 1.428 . S
C1043 C1073 1.464 . S
H1044 C1073 0.929 . S
N1045 Gd1018 2.570 . S
N1045 C1046 1.359 . S
N1045 C1049 1.343 . S
C1046 C1039 1.422 . S
C1046 N1045 1.359 . S
C1046 C1048 1.421 . S
C1047 C1048 1.422 . S
C1047 C1050 1.321 . S
C1047 H1074 0.931 . S
C1048 C1046 1.421 . S
C1048 C1047 1.422 . S
C1048 C1072 1.417 1_655 S
C1049 H1026 0.931 . S
C1049 N1045 1.343 . S
C1049 C1050 1.390 . S
C1050 H1028 0.930 . S
C1050 C1047 1.321 . S
C1050 C1049 1.390 . S
O1051 Gd1019 2.386 . S
O1051 C1063 1.265 . S
O1052 Gd1018 2.353 . S
O1052 C1063 1.242 . S
O1053 Gd1018 2.468 . S
O1053 C1071 1.263 . S
O1054 Gd1018 2.427 . S
O1054 C1071 1.252 . S
O1055 Gd1019 2.307 . S
O1055 C1064 1.261 . S
O1056 Gd1018 2.388 . S
O1056 C1064 1.252 . S
O1057 Gd1018 2.386 . S
O1057 C1075 1.265 . S
O1058 Gd1019 2.353 . S
O1058 C1075 1.242 . S
O1059 Gd1019 2.468 . S
O1059 C1083 1.263 . S
O1060 Gd1019 2.427 . S
O1060 C1083 1.252 . S
O1061 Gd1018 2.307 . S
O1061 C1076 1.261 . S
O1062 Gd1019 2.388 . S
O1062 C1076 1.252 . S
C1063 O1051 1.265 . S
C1063 O1052 1.242 . S
C1064 O1055 1.261 . S
C1064 O1056 1.252 . S
C1065 C1068 1.394 . S
C1065 C1070 1.370 . S
C1065 C1071 1.500 . S
C1066 C1069 1.383 . S
C1066 C1070 1.395 . S
C1067 C1068 1.396 . S
C1067 C1069 1.365 . S
C1067 H1084 0.929 . S
C1068 C1065 1.394 . S
C1068 C1067 1.396 . S
C1068 H1085 0.930 . S
C1069 C1066 1.383 . S
C1069 C1067 1.365 . S
C1069 H1086 0.931 . S
C1070 C1065 1.370 . S
C1070 C1066 1.395 . S
C1070 H1087 0.930 . S
C1071 Gd1018 2.805 . S
C1071 O1053 1.263 . S
C1071 O1054 1.252 . S
C1071 C1065 1.500 . S
C1072 H1034 0.930 . S
C1072 C1048 1.417 1_455 S
C1072 C1073 1.329 . S
C1073 C1043 1.464 . S
C1073 H1044 0.929 . S
C1073 C1072 1.329 . S
H1074 C1047 0.931 . S
C1075 O1057 1.265 . S
C1075 O1058 1.242 . S
C1076 O1061 1.261 . S
C1076 O1062 1.252 . S
C1077 C1080 1.394 . S
C1077 C1082 1.370 . S
C1077 C1083 1.500 . S
C1078 C1081 1.383 . S
C1078 C1082 1.395 . S
C1079 C1080 1.396 . S
C1079 C1081 1.365 . S
C1079 H1088 0.929 . S
C1080 C1077 1.394 . S
C1080 C1079 1.396 . S
C1080 H1089 0.930 . S
C1081 C1078 1.383 . S
C1081 C1079 1.365 . S
C1081 H1090 0.931 . S
C1082 C1077 1.370 . S
C1082 C1078 1.395 . S
C1082 H1091 0.930 . S
C1083 Gd1019 2.805 . S
C1083 O1059 1.263 . S
C1083 O1060 1.252 . S
C1083 C1077 1.500 . S
H1084 C1067 0.929 . S
H1085 C1068 0.930 . S
H1086 C1069 0.931 . S
H1087 C1070 0.930 . S
H1088 C1079 0.929 . S
H1089 C1080 0.930 . S
H1090 C1081 0.931 . S
H1091 C1082 0.930 . S
C1092 C1094 1.422 . S
C1092 C1096 1.415 . S
C1092 N1098 1.369 . S
C1093 C1094 1.421 . S
C1093 C1095 1.417 . S
C1093 C1105 1.422 . S
C1094 C1092 1.422 . S
C1094 C1093 1.421 . S
C1094 N1104 1.359 . S
C1095 C1093 1.417 . S
C1095 C1097 1.329 . S
C1095 H1114 0.930 . S
C1096 C1092 1.415 . S
C1096 C1097 1.437 . S
C1096 C1100 1.413 . S
C1097 C1095 1.329 . S
C1097 C1096 1.437 . S
C1097 H1119 0.929 . S
N1098 C1092 1.369 . S
N1098 C1099 1.338 . S
N1098 Gd1103 2.622 . S
C1099 N1098 1.338 . S
C1099 C1101 1.378 . S
C1099 H1111 0.929 . S
C1100 C1096 1.413 . S
C1100 C1101 1.348 . S
C1100 H1116 0.931 . S
C1101 C1099 1.378 . S
C1101 C1100 1.348 . S
C1101 H1117 0.930 . S
Gd1102 N1122 2.622 . S
Gd1102 N1129 2.570 . S
Gd1102 O1136 2.353 . S
Gd1102 O1137 2.468 . S
Gd1102 O1138 2.427 . S
Gd1102 O1140 2.388 . S
Gd1102 O1141 2.386 . S
Gd1102 O1145 2.307 . S
Gd1102 C1155 2.805 . S
Gd1103 N1098 2.622 . S
Gd1103 N1104 2.570 . S
Gd1103 O1135 2.386 . S
Gd1103 O1139 2.307 . S
Gd1103 O1142 2.353 . S
Gd1103 O1143 2.468 . S
Gd1103 O1144 2.427 . S
Gd1103 O1146 2.388 . S
Gd1103 C1167 2.805 . S
N1104 C1094 1.359 . S
N1104 Gd1103 2.570 . S
N1104 C1106 1.343 . S
C1105 C1093 1.422 . S
C1105 C1107 1.321 . S
C1105 H1113 0.931 . S
C1106 N1104 1.343 . S
C1106 C1107 1.390 . S
C1106 H1108 0.931 . S
C1107 C1105 1.321 . S
C1107 C1106 1.390 . S
C1107 H1109 0.930 . S
H1108 C1106 0.931 . S
H1109 C1107 0.930 . S
H1110 C1133 0.931 . S
H1111 C1099 0.929 . S
H1112 C1134 0.930 . S
H1113 C1105 0.931 . S
H1114 C1095 0.930 . S
H1115 C1124 0.929 . S
H1116 C1100 0.931 . S
H1117 C1101 0.930 . S
H1118 C1156 0.930 . S
H1119 C1097 0.929 . S
H1120 C1125 0.931 . S
H1121 C1126 0.930 . S
N1122 Gd1102 2.622 . S
N1122 C1123 1.369 . S
N1122 C1124 1.338 . S
C1123 N1122 1.369 . S
C1123 C1127 1.415 . S
C1123 C1130 1.422 . S
C1124 H1115 0.929 . S
C1124 N1122 1.338 . S
C1124 C1126 1.378 . S
C1125 H1120 0.931 . S
C1125 C1126 1.348 . S
C1125 C1127 1.413 . S
C1126 H1121 0.930 . S
C1126 C1124 1.378 . S
C1126 C1125 1.348 . S
C1127 C1123 1.415 . S
C1127 C1125 1.413 . S
C1127 C1157 1.437 . S
H1128 C1157 0.929 . S
N1129 Gd1102 2.570 . S
N1129 C1130 1.359 . S
N1129 C1133 1.343 . S
C1130 C1123 1.422 . S
C1130 N1129 1.359 . S
C1130 C1132 1.421 . S
C1131 C1132 1.422 . S
C1131 C1134 1.321 . S
C1131 H1158 0.931 . S
C1132 C1130 1.421 . S
C1132 C1131 1.422 . S
C1132 C1156 1.417 . S
C1133 H1110 0.931 . S
C1133 N1129 1.343 . S
C1133 C1134 1.390 . S
C1134 H1112 0.930 . S
C1134 C1131 1.321 . S
C1134 C1133 1.390 . S
O1135 Gd1103 2.386 . S
O1135 C1147 1.265 . S
O1136 Gd1102 2.353 . S
O1136 C1147 1.242 . S
O1137 Gd1102 2.468 . S
O1137 C1155 1.263 . S
O1138 Gd1102 2.427 . S
O1138 C1155 1.252 . S
O1139 Gd1103 2.307 . S
O1139 C1148 1.261 . S
O1140 Gd1102 2.388 . S
O1140 C1148 1.252 . S
O1141 Gd1102 2.386 . S
O1141 C1159 1.265 . S
O1142 Gd1103 2.353 . S
O1142 C1159 1.242 . S
O1143 Gd1103 2.468 . S
O1143 C1167 1.263 . S
O1144 Gd1103 2.427 . S
O1144 C1167 1.252 . S
O1145 Gd1102 2.307 . S
O1145 C1160 1.261 . S
O1146 Gd1103 2.388 . S
O1146 C1160 1.252 . S
C1147 O1135 1.265 . S
C1147 O1136 1.242 . S
C1148 O1139 1.261 . S
C1148 O1140 1.252 . S
C1149 C1152 1.394 . S
C1149 C1154 1.370 . S
C1149 C1155 1.500 . S
C1150 C1153 1.383 . S
C1150 C1154 1.395 . S
C1151 C1152 1.396 . S
C1151 C1153 1.365 . S
C1151 H1168 0.929 . S
C1152 C1149 1.394 . S
C1152 C1151 1.396 . S
C1152 H1169 0.930 . S
C1153 C1150 1.383 . S
C1153 C1151 1.365 . S
C1153 H1170 0.931 . S
C1154 C1149 1.370 . S
C1154 C1150 1.395 . S
C1154 H1171 0.930 . S
C1155 Gd1102 2.805 . S
C1155 O1137 1.263 . S
C1155 O1138 1.252 . S
C1155 C1149 1.500 . S
C1156 H1118 0.930 . S
C1156 C1132 1.417 . S
C1156 C1157 1.329 . S
C1157 C1127 1.437 . S
C1157 H1128 0.929 . S
C1157 C1156 1.329 . S
H1158 C1131 0.931 . S
C1159 O1141 1.265 . S
C1159 O1142 1.242 . S
C1160 O1145 1.261 . S
C1160 O1146 1.252 . S
C1161 C1164 1.394 . S
C1161 C1166 1.370 . S
C1161 C1167 1.500 . S
C1162 C1165 1.383 . S
C1162 C1166 1.395 . S
C1163 C1164 1.396 . S
C1163 C1165 1.365 . S
C1163 H1172 0.929 . S
C1164 C1161 1.394 . S
C1164 C1163 1.396 . S
C1164 H1173 0.930 . S
C1165 C1162 1.383 . S
C1165 C1163 1.365 . S
C1165 H1174 0.931 . S
C1166 C1161 1.370 . S
C1166 C1162 1.395 . S
C1166 H1175 0.930 . S
C1167 Gd1103 2.805 . S
C1167 O1143 1.263 . S
C1167 O1144 1.252 . S
C1167 C1161 1.500 . S
H1168 C1151 0.929 . S
H1169 C1152 0.930 . S
H1170 C1153 0.931 . S
H1171 C1154 0.930 . S
H1172 C1163 0.929 . S
H1173 C1164 0.930 . S
H1174 C1165 0.931 . S
H1175 C1166 0.930 . S
C1176 C1178 1.422 . S
C1176 C1180 1.415 . S
C1176 N1182 1.369 . S
C1177 C1178 1.421 . S
C1177 C1179 1.417 . S
C1177 C1189 1.422 . S
C1178 C1176 1.422 . S
C1178 C1177 1.421 . S
C1178 N1188 1.359 . S
C1179 C1177 1.417 . S
C1179 C1181 1.329 . S
C1179 H1198 0.930 . S
C1180 C1176 1.415 . S
C1180 C1181 1.437 . S
C1180 C1184 1.413 . S
C1181 C1179 1.329 . S
C1181 C1180 1.437 . S
C1181 H1203 0.929 . S
N1182 C1176 1.369 . S
N1182 C1183 1.338 . S
N1182 Gd1187 2.622 . S
C1183 N1182 1.338 . S
C1183 C1185 1.378 . S
C1183 H1195 0.929 . S
C1184 C1180 1.413 . S
C1184 C1185 1.348 . S
C1184 H1200 0.931 . S
C1185 C1183 1.378 . S
C1185 C1184 1.348 . S
C1185 H1201 0.930 . S
Gd1186 N1206 2.622 . S
Gd1186 N1213 2.570 . S
Gd1186 O1220 2.353 . S
Gd1186 O1221 2.468 . S
Gd1186 O1222 2.427 . S
Gd1186 O1224 2.388 . S
Gd1186 O1225 2.386 . S
Gd1186 O1229 2.307 . S
Gd1186 C1239 2.805 . S
Gd1187 N1182 2.622 . S
Gd1187 N1188 2.570 . S
Gd1187 O1219 2.386 . S
Gd1187 O1223 2.307 . S
Gd1187 O1226 2.353 . S
Gd1187 O1227 2.468 . S
Gd1187 O1228 2.427 . S
Gd1187 O1230 2.388 . S
Gd1187 C1251 2.805 . S
N1188 C1178 1.359 . S
N1188 Gd1187 2.570 . S
N1188 C1190 1.343 . S
C1189 C1177 1.422 . S
C1189 C1191 1.321 . S
C1189 H1197 0.931 . S
C1190 N1188 1.343 . S
C1190 C1191 1.390 . S
C1190 H1192 0.931 . S
C1191 C1189 1.321 . S
C1191 C1190 1.390 . S
C1191 H1193 0.930 . S
H1192 C1190 0.931 . S
H1193 C1191 0.930 . S
H1194 C1217 0.931 . S
H1195 C1183 0.929 . S
H1196 C1218 0.930 . S
H1197 C1189 0.931 . S
H1198 C1179 0.930 . S
H1199 C1208 0.929 . S
H1200 C1184 0.931 . S
H1201 C1185 0.930 . S
H1202 C1240 0.930 . S
H1203 C1181 0.929 . S
H1204 C1209 0.931 . S
H1205 C1210 0.930 . S
N1206 Gd1186 2.622 . S
N1206 C1207 1.369 . S
N1206 C1208 1.338 . S
C1207 N1206 1.369 . S
C1207 C1211 1.385 1_545 S
C1207 C1214 1.422 . S
C1208 H1199 0.929 . S
C1208 N1206 1.338 . S
C1208 C1210 1.378 . S
C1209 H1204 0.931 . S
C1209 C1210 1.348 1_565 S
C1209 C1211 1.421 . S
C1210 H1205 0.930 . S
C1210 C1208 1.378 . S
C1210 C1209 1.348 1_545 S
C1211 C1207 1.385 1_565 S
C1211 C1209 1.421 . S
C1211 C1241 1.459 . S
H1212 C1241 0.929 . S
N1213 Gd1186 2.570 . S
N1213 C1214 1.359 . S
N1213 C1217 1.343 . S
C1214 C1207 1.422 . S
C1214 N1213 1.359 . S
C1214 C1216 1.421 . S
C1215 C1216 1.422 . S
C1215 C1218 1.321 . S
C1215 H1242 0.931 . S
C1216 C1214 1.421 . S
C1216 C1215 1.422 . S
C1216 C1240 1.417 1_545 S
C1217 H1194 0.931 . S
C1217 N1213 1.343 . S
C1217 C1218 1.390 . S
C1218 H1196 0.930 . S
C1218 C1215 1.321 . S
C1218 C1217 1.390 . S
O1219 Gd1187 2.386 . S
O1219 C1231 1.265 . S
O1220 Gd1186 2.353 . S
O1220 C1231 1.242 . S
O1221 Gd1186 2.468 . S
O1221 C1239 1.263 . S
O1222 Gd1186 2.427 . S
O1222 C1239 1.252 . S
O1223 Gd1187 2.307 . S
O1223 C1232 1.261 . S
O1224 Gd1186 2.388 . S
O1224 C1232 1.252 . S
O1225 Gd1186 2.386 . S
O1225 C1243 1.265 . S
O1226 Gd1187 2.353 . S
O1226 C1243 1.242 . S
O1227 Gd1187 2.468 . S
O1227 C1251 1.263 . S
O1228 Gd1187 2.427 . S
O1228 C1251 1.252 . S
O1229 Gd1186 2.307 . S
O1229 C1244 1.261 . S
O1230 Gd1187 2.388 . S
O1230 C1244 1.252 . S
C1231 O1219 1.265 . S
C1231 O1220 1.242 . S
C1232 O1223 1.261 . S
C1232 O1224 1.252 . S
C1233 C1236 1.394 . S
C1233 C1238 1.370 . S
C1233 C1239 1.500 . S
C1234 C1237 1.383 . S
C1234 C1238 1.395 . S
C1235 C1236 1.396 . S
C1235 C1237 1.365 . S
C1235 H1252 0.929 . S
C1236 C1233 1.394 . S
C1236 C1235 1.396 . S
C1236 H1253 0.930 . S
C1237 C1234 1.383 . S
C1237 C1235 1.365 . S
C1237 H1254 0.931 . S
C1238 C1233 1.370 . S
C1238 C1234 1.395 . S
C1238 H1255 0.930 . S
C1239 Gd1186 2.805 . S
C1239 O1221 1.263 . S
C1239 O1222 1.252 . S
C1239 C1233 1.500 . S
C1240 H1202 0.930 . S
C1240 C1216 1.417 1_565 S
C1240 C1241 1.329 . S
C1241 C1211 1.459 . S
C1241 H1212 0.929 . S
C1241 C1240 1.329 . S
H1242 C1215 0.931 . S
C1243 O1225 1.265 . S
C1243 O1226 1.242 . S
C1244 O1229 1.261 . S
C1244 O1230 1.252 . S
C1245 C1248 1.394 . S
C1245 C1250 1.370 . S
C1245 C1251 1.500 . S
C1246 C1249 1.383 . S
C1246 C1250 1.395 . S
C1247 C1248 1.396 . S
C1247 C1249 1.365 . S
C1247 H1256 0.929 . S
C1248 C1245 1.394 . S
C1248 C1247 1.396 . S
C1248 H1257 0.930 . S
C1249 C1246 1.383 . S
C1249 C1247 1.365 . S
C1249 H1258 0.931 . S
C1250 C1245 1.370 . S
C1250 C1246 1.395 . S
C1250 H1259 0.930 . S
C1251 Gd1187 2.805 . S
C1251 O1227 1.263 . S
C1251 O1228 1.252 . S
C1251 C1245 1.500 . S
H1252 C1235 0.929 . S
H1253 C1236 0.930 . S
H1254 C1237 0.931 . S
H1255 C1238 0.930 . S
H1256 C1247 0.929 . S
H1257 C1248 0.930 . S
H1258 C1249 0.931 . S
H1259 C1250 0.930 . S
C1260 C1262 1.422 . S
C1260 C1264 1.415 . S
C1260 N1266 1.369 . S
C1261 C1262 1.421 . S
C1261 C1263 1.417 . S
C1261 C1273 1.422 . S
C1262 C1260 1.422 . S
C1262 C1261 1.421 . S
C1262 N1272 1.359 . S
C1263 C1261 1.417 . S
C1263 C1265 1.329 . S
C1263 H1282 0.930 . S
C1264 C1260 1.415 . S
C1264 C1265 1.437 . S
C1264 C1268 1.413 . S
C1265 C1263 1.329 . S
C1265 C1264 1.437 . S
C1265 H1287 0.929 . S
N1266 C1260 1.369 . S
N1266 C1267 1.338 . S
N1266 Gd1271 2.622 . S
C1267 N1266 1.338 . S
C1267 C1269 1.378 . S
C1267 H1279 0.929 . S
C1268 C1264 1.413 . S
C1268 C1269 1.348 . S
C1268 H1284 0.931 . S
C1269 C1267 1.378 . S
C1269 C1268 1.348 . S
C1269 H1285 0.930 . S
Gd1270 N1290 2.622 . S
Gd1270 N1297 2.570 . S
Gd1270 O1304 2.353 . S
Gd1270 O1305 2.468 . S
Gd1270 O1306 2.427 . S
Gd1270 O1308 2.388 . S
Gd1270 O1309 2.386 . S
Gd1270 O1313 2.307 . S
Gd1270 C1323 2.805 . S
Gd1271 N1266 2.622 . S
Gd1271 N1272 2.570 . S
Gd1271 O1303 2.386 . S
Gd1271 O1307 2.307 . S
Gd1271 O1310 2.353 . S
Gd1271 O1311 2.468 . S
Gd1271 O1312 2.427 . S
Gd1271 O1314 2.388 . S
Gd1271 C1335 2.805 . S
N1272 C1262 1.359 . S
N1272 Gd1271 2.570 . S
N1272 C1274 1.343 . S
C1273 C1261 1.422 . S
C1273 C1275 1.321 . S
C1273 H1281 0.931 . S
C1274 N1272 1.343 . S
C1274 C1275 1.390 . S
C1274 H1276 0.931 . S
C1275 C1273 1.321 . S
C1275 C1274 1.390 . S
C1275 H1277 0.930 . S
H1276 C1274 0.931 . S
H1277 C1275 0.930 . S
H1278 C1301 0.931 . S
H1279 C1267 0.929 . S
H1280 C1302 0.930 . S
H1281 C1273 0.931 . S
H1282 C1263 0.930 . S
H1283 C1292 0.929 . S
H1284 C1268 0.931 . S
H1285 C1269 0.930 . S
H1286 C1324 0.930 . S
H1287 C1265 0.929 . S
H1288 C1293 0.931 . S
H1289 C1294 0.930 . S
N1290 Gd1270 2.622 . S
N1290 C1291 1.369 . S
N1290 C1292 1.338 . S
C1291 N1290 1.369 . S
C1291 C1295 1.415 . S
C1291 C1298 1.422 . S
C1292 H1283 0.929 . S
C1292 N1290 1.338 . S
C1292 C1294 1.378 . S
C1293 H1288 0.931 . S
C1293 C1294 1.348 . S
C1293 C1295 1.413 . S
C1294 H1289 0.930 . S
C1294 C1292 1.378 . S
C1294 C1293 1.348 . S
C1295 C1291 1.415 . S
C1295 C1293 1.413 . S
C1295 C1325 1.437 . S
H1296 C1325 0.929 . S
N1297 Gd1270 2.570 . S
N1297 C1298 1.359 . S
N1297 C1301 1.343 . S
C1298 C1291 1.422 . S
C1298 N1297 1.359 . S
C1298 C1300 1.421 . S
C1299 C1300 1.422 . S
C1299 C1302 1.321 . S
C1299 H1326 0.931 . S
C1300 C1298 1.421 . S
C1300 C1299 1.422 . S
C1300 C1324 1.417 . S
C1301 H1278 0.931 . S
C1301 N1297 1.343 . S
C1301 C1302 1.390 . S
C1302 H1280 0.930 . S
C1302 C1299 1.321 . S
C1302 C1301 1.390 . S
O1303 Gd1271 2.386 . S
O1303 C1315 1.265 . S
O1304 Gd1270 2.353 . S
O1304 C1315 1.242 . S
O1305 Gd1270 2.468 . S
O1305 C1323 1.263 . S
O1306 Gd1270 2.427 . S
O1306 C1323 1.252 . S
O1307 Gd1271 2.307 . S
O1307 C1316 1.261 . S
O1308 Gd1270 2.388 . S
O1308 C1316 1.252 . S
O1309 Gd1270 2.386 . S
O1309 C1327 1.265 . S
O1310 Gd1271 2.353 . S
O1310 C1327 1.242 . S
O1311 Gd1271 2.468 . S
O1311 C1335 1.263 . S
O1312 Gd1271 2.427 . S
O1312 C1335 1.252 . S
O1313 Gd1270 2.307 . S
O1313 C1328 1.261 . S
O1314 Gd1271 2.388 . S
O1314 C1328 1.252 . S
C1315 O1303 1.265 . S
C1315 O1304 1.242 . S
C1316 O1307 1.261 . S
C1316 O1308 1.252 . S
C1317 C1320 1.394 . S
C1317 C1322 1.370 . S
C1317 C1323 1.500 . S
C1318 C1321 1.383 . S
C1318 C1322 1.395 . S
C1319 C1320 1.396 . S
C1319 C1321 1.365 . S
C1319 H1336 0.929 . S
C1320 C1317 1.394 . S
C1320 C1319 1.396 . S
C1320 H1337 0.930 . S
C1321 C1318 1.383 . S
C1321 C1319 1.365 . S
C1321 H1338 0.931 . S
C1322 C1317 1.370 . S
C1322 C1318 1.395 . S
C1322 H1339 0.930 . S
C1323 Gd1270 2.805 . S
C1323 O1305 1.263 . S
C1323 O1306 1.252 . S
C1323 C1317 1.500 . S
C1324 H1286 0.930 . S
C1324 C1300 1.417 . S
C1324 C1325 1.329 . S
C1325 C1295 1.437 . S
C1325 H1296 0.929 . S
C1325 C1324 1.329 . S
H1326 C1299 0.931 . S
C1327 O1309 1.265 . S
C1327 O1310 1.242 . S
C1328 O1313 1.261 . S
C1328 O1314 1.252 . S
C1329 C1332 1.394 . S
C1329 C1334 1.370 . S
C1329 C1335 1.500 . S
C1330 C1333 1.383 . S
C1330 C1334 1.395 . S
C1331 C1332 1.396 . S
C1331 C1333 1.365 . S
C1331 H1340 0.929 . S
C1332 C1329 1.394 . S
C1332 C1331 1.396 . S
C1332 H1341 0.930 . S
C1333 C1330 1.383 . S
C1333 C1331 1.365 . S
C1333 H1342 0.931 . S
C1334 C1329 1.370 . S
C1334 C1330 1.395 . S
C1334 H1343 0.930 . S
C1335 Gd1271 2.805 . S
C1335 O1311 1.263 . S
C1335 O1312 1.252 . S
C1335 C1329 1.500 . S
H1336 C1319 0.929 . S
H1337 C1320 0.930 . S
H1338 C1321 0.931 . S
H1339 C1322 0.930 . S
H1340 C1331 0.929 . S
H1341 C1332 0.930 . S
H1342 C1333 0.931 . S
H1343 C1334 0.930 . S
C1344 C1346 1.422 . S
C1344 C1348 1.415 . S
C1344 N1350 1.369 . S
C1345 C1346 1.421 . S
C1345 C1347 1.417 . S
C1345 C1357 1.422 . S
C1346 C1344 1.422 . S
C1346 C1345 1.421 . S
C1346 N1356 1.359 . S
C1347 C1345 1.417 . S
C1347 C1349 1.329 . S
C1347 H1366 0.930 . S
C1348 C1344 1.415 . S
C1348 C1349 1.437 . S
C1348 C1352 1.413 . S
C1349 C1347 1.329 . S
C1349 C1348 1.437 . S
C1349 H1371 0.929 . S
N1350 C1344 1.369 . S
N1350 C1351 1.338 . S
N1350 Gd1355 2.622 . S
C1351 N1350 1.338 . S
C1351 C1353 1.378 . S
C1351 H1363 0.929 . S
C1352 C1348 1.413 . S
C1352 C1353 1.348 . S
C1352 H1368 0.931 . S
C1353 C1351 1.378 . S
C1353 C1352 1.348 . S
C1353 H1369 0.930 . S
Gd1354 N1374 2.622 . S
Gd1354 N1381 2.570 . S
Gd1354 O1388 2.353 . S
Gd1354 O1389 2.468 . S
Gd1354 O1390 2.427 . S
Gd1354 O1392 2.388 . S
Gd1354 O1393 2.386 . S
Gd1354 O1397 2.307 . S
Gd1354 C1407 2.805 . S
Gd1355 N1350 2.622 . S
Gd1355 N1356 2.570 . S
Gd1355 O1387 2.386 . S
Gd1355 O1391 2.307 . S
Gd1355 O1394 2.353 . S
Gd1355 O1395 2.468 . S
Gd1355 O1396 2.427 . S
Gd1355 O1398 2.388 . S
Gd1355 C1419 2.805 . S
N1356 C1346 1.359 . S
N1356 Gd1355 2.570 . S
N1356 C1358 1.343 . S
C1357 C1345 1.422 . S
C1357 C1359 1.321 . S
C1357 H1365 0.931 . S
C1358 N1356 1.343 . S
C1358 C1359 1.390 . S
C1358 H1360 0.931 . S
C1359 C1357 1.321 . S
C1359 C1358 1.390 . S
C1359 H1361 0.930 . S
H1360 C1358 0.931 . S
H1361 C1359 0.930 . S
H1362 C1385 0.931 . S
H1363 C1351 0.929 . S
H1364 C1386 0.930 . S
H1365 C1357 0.931 . S
H1366 C1347 0.930 . S
H1367 C1376 0.929 . S
H1368 C1352 0.931 . S
H1369 C1353 0.930 . S
H1370 C1408 0.930 . S
H1371 C1349 0.929 . S
H1372 C1377 0.931 . S
H1373 C1378 0.930 . S
N1374 Gd1354 2.622 . S
N1374 C1375 1.369 . S
N1374 C1376 1.338 . S
C1375 N1374 1.369 . S
C1375 C1379 1.415 . S
C1375 C1382 1.422 . S
C1376 H1367 0.929 . S
C1376 N1374 1.338 . S
C1376 C1378 1.378 . S
C1377 H1372 0.931 . S
C1377 C1378 1.348 . S
C1377 C1379 1.413 . S
C1378 H1373 0.930 . S
C1378 C1376 1.378 . S
C1378 C1377 1.348 . S
C1379 C1375 1.415 . S
C1379 C1377 1.413 . S
C1379 C1409 1.437 . S
H1380 C1409 0.929 . S
N1381 Gd1354 2.570 . S
N1381 C1382 1.359 . S
N1381 C1385 1.343 . S
C1382 C1375 1.422 . S
C1382 N1381 1.359 . S
C1382 C1384 1.421 . S
C1383 C1384 1.422 . S
C1383 C1386 1.321 . S
C1383 H1410 0.931 . S
C1384 C1382 1.421 . S
C1384 C1383 1.422 . S
C1384 C1408 1.417 . S
C1385 H1362 0.931 . S
C1385 N1381 1.343 . S
C1385 C1386 1.390 . S
C1386 H1364 0.930 . S
C1386 C1383 1.321 . S
C1386 C1385 1.390 . S
O1387 Gd1355 2.386 . S
O1387 C1399 1.265 . S
O1388 Gd1354 2.353 . S
O1388 C1399 1.242 . S
O1389 Gd1354 2.468 . S
O1389 C1407 1.263 . S
O1390 Gd1354 2.427 . S
O1390 C1407 1.252 . S
O1391 Gd1355 2.307 . S
O1391 C1400 1.261 . S
O1392 Gd1354 2.388 . S
O1392 C1400 1.252 . S
O1393 Gd1354 2.386 . S
O1393 C1411 1.265 . S
O1394 Gd1355 2.353 . S
O1394 C1411 1.242 . S
O1395 Gd1355 2.468 . S
O1395 C1419 1.263 . S
O1396 Gd1355 2.427 . S
O1396 C1419 1.252 . S
O1397 Gd1354 2.307 . S
O1397 C1412 1.261 . S
O1398 Gd1355 2.388 . S
O1398 C1412 1.252 . S
C1399 O1387 1.265 . S
C1399 O1388 1.242 . S
C1400 O1391 1.261 . S
C1400 O1392 1.252 . S
C1401 C1404 1.394 . S
C1401 C1406 1.370 . S
C1401 C1407 1.500 . S
C1402 C1405 1.383 . S
C1402 C1406 1.395 . S
C1403 C1404 1.396 . S
C1403 C1405 1.365 . S
C1403 H1420 0.929 . S
C1404 C1401 1.394 . S
C1404 C1403 1.396 . S
C1404 H1421 0.930 . S
C1405 C1402 1.383 . S
C1405 C1403 1.365 . S
C1405 H1422 0.931 . S
C1406 C1401 1.370 . S
C1406 C1402 1.395 . S
C1406 H1423 0.930 . S
C1407 Gd1354 2.805 . S
C1407 O1389 1.263 . S
C1407 O1390 1.252 . S
C1407 C1401 1.500 . S
C1408 H1370 0.930 . S
C1408 C1384 1.417 . S
C1408 C1409 1.329 . S
C1409 C1379 1.437 . S
C1409 H1380 0.929 . S
C1409 C1408 1.329 . S
H1410 C1383 0.931 . S
C1411 O1393 1.265 . S
C1411 O1394 1.242 . S
C1412 O1397 1.261 . S
C1412 O1398 1.252 . S
C1413 C1416 1.394 . S
C1413 C1418 1.370 . S
C1413 C1419 1.500 . S
C1414 C1417 1.383 . S
C1414 C1418 1.395 . S
C1415 C1416 1.396 . S
C1415 C1417 1.365 . S
C1415 H1424 0.929 . S
C1416 C1413 1.394 . S
C1416 C1415 1.396 . S
C1416 H1425 0.930 . S
C1417 C1414 1.383 . S
C1417 C1415 1.365 . S
C1417 H1426 0.931 . S
C1418 C1413 1.370 . S
C1418 C1414 1.395 . S
C1418 H1427 0.930 . S
C1419 Gd1355 2.805 . S
C1419 O1395 1.263 . S
C1419 O1396 1.252 . S
C1419 C1413 1.500 . S
H1420 C1403 0.929 . S
H1421 C1404 0.930 . S
H1422 C1405 0.931 . S
H1423 C1406 0.930 . S
H1424 C1415 0.929 . S
H1425 C1416 0.930 . S
H1426 C1417 0.931 . S
H1427 C1418 0.930 . S
C1428 C1430 1.422 . S
C1428 C1432 1.415 . S
C1428 N1434 1.369 . S
C1429 C1430 1.421 . S
C1429 C1431 1.417 . S
C1429 C1441 1.422 . S
C1430 C1428 1.422 . S
C1430 C1429 1.421 . S
C1430 N1440 1.359 . S
C1431 C1429 1.417 . S
C1431 C1433 1.329 . S
C1431 H1450 0.930 . S
C1432 C1428 1.415 . S
C1432 C1433 1.437 . S
C1432 C1436 1.413 . S
C1433 C1431 1.329 . S
C1433 C1432 1.437 . S
C1433 H1455 0.929 . S
N1434 C1428 1.369 . S
N1434 C1435 1.338 . S
N1434 Gd1439 2.622 . S
C1435 N1434 1.338 . S
C1435 C1437 1.378 . S
C1435 H1447 0.929 . S
C1436 C1432 1.413 . S
C1436 C1437 1.348 . S
C1436 H1452 0.931 . S
C1437 C1435 1.378 . S
C1437 C1436 1.348 . S
C1437 H1453 0.930 . S
Gd1438 N1458 2.622 . S
Gd1438 N1465 2.570 . S
Gd1438 O1472 2.353 . S
Gd1438 O1473 2.468 . S
Gd1438 O1474 2.427 . S
Gd1438 O1476 2.388 . S
Gd1438 O1477 2.386 . S
Gd1438 O1481 2.307 . S
Gd1438 C1491 2.805 . S
Gd1439 N1434 2.622 . S
Gd1439 N1440 2.570 . S
Gd1439 O1471 2.386 . S
Gd1439 O1475 2.307 . S
Gd1439 O1478 2.353 . S
Gd1439 O1479 2.468 . S
Gd1439 O1480 2.427 . S
Gd1439 O1482 2.388 . S
Gd1439 C1503 2.805 . S
N1440 C1430 1.359 . S
N1440 Gd1439 2.570 . S
N1440 C1442 1.343 . S
C1441 C1429 1.422 . S
C1441 C1443 1.321 . S
C1441 H1449 0.931 . S
C1442 N1440 1.343 . S
C1442 C1443 1.390 . S
C1442 H1444 0.931 . S
C1443 C1441 1.321 . S
C1443 C1442 1.390 . S
C1443 H1445 0.930 . S
H1444 C1442 0.931 . S
H1445 C1443 0.930 . S
H1446 C1469 0.931 . S
H1447 C1435 0.929 . S
H1448 C1470 0.930 . S
H1449 C1441 0.931 . S
H1450 C1431 0.930 . S
H1451 C1460 0.929 . S
H1452 C1436 0.931 . S
H1453 C1437 0.930 . S
H1454 C1492 0.930 . S
H1455 C1433 0.929 . S
H1456 C1461 0.931 . S
H1457 C1462 0.930 . S
N1458 Gd1438 2.622 . S
N1458 C1459 1.369 . S
N1458 C1460 1.338 . S
C1459 N1458 1.369 . S
C1459 C1463 1.415 . S
C1459 C1466 1.422 . S
C1460 H1451 0.929 . S
C1460 N1458 1.338 . S
C1460 C1462 1.378 . S
C1461 H1456 0.931 . S
C1461 C1462 1.348 . S
C1461 C1463 1.413 . S
C1462 H1457 0.930 . S
C1462 C1460 1.378 . S
C1462 C1461 1.348 . S
C1463 C1459 1.415 . S
C1463 C1461 1.413 . S
C1463 C1493 1.437 . S
H1464 C1493 0.929 . S
N1465 Gd1438 2.570 . S
N1465 C1466 1.359 . S
N1465 C1469 1.343 . S
C1466 C1459 1.422 . S
C1466 N1465 1.359 . S
C1466 C1468 1.421 . S
C1467 C1468 1.422 . S
C1467 C1470 1.321 . S
C1467 H1494 0.931 . S
C1468 C1466 1.421 . S
C1468 C1467 1.422 . S
C1468 C1492 1.417 . S
C1469 H1446 0.931 . S
C1469 N1465 1.343 . S
C1469 C1470 1.390 . S
C1470 H1448 0.930 . S
C1470 C1467 1.321 . S
C1470 C1469 1.390 . S
O1471 Gd1439 2.386 . S
O1471 C1483 1.265 . S
O1472 Gd1438 2.353 . S
O1472 C1483 1.242 . S
O1473 Gd1438 2.468 . S
O1473 C1491 1.263 . S
O1474 Gd1438 2.427 . S
O1474 C1491 1.252 . S
O1475 Gd1439 2.307 . S
O1475 C1484 1.261 . S
O1476 Gd1438 2.388 . S
O1476 C1484 1.252 . S
O1477 Gd1438 2.386 . S
O1477 C1495 1.265 . S
O1478 Gd1439 2.353 . S
O1478 C1495 1.242 . S
O1479 Gd1439 2.468 . S
O1479 C1503 1.263 . S
O1480 Gd1439 2.427 . S
O1480 C1503 1.252 . S
O1481 Gd1438 2.307 . S
O1481 C1496 1.261 . S
O1482 Gd1439 2.388 . S
O1482 C1496 1.252 . S
C1483 O1471 1.265 . S
C1483 O1472 1.242 . S
C1484 O1475 1.261 . S
C1484 O1476 1.252 . S
C1485 C1488 1.394 . S
C1485 C1490 1.370 . S
C1485 C1491 1.500 . S
C1486 C1489 1.383 . S
C1486 C1490 1.395 . S
C1487 C1488 1.396 . S
C1487 C1489 1.365 . S
C1487 H1504 0.929 . S
C1488 C1485 1.394 . S
C1488 C1487 1.396 . S
C1488 H1505 0.930 . S
C1489 C1486 1.383 . S
C1489 C1487 1.365 . S
C1489 H1506 0.931 . S
C1490 C1485 1.370 . S
C1490 C1486 1.395 . S
C1490 H1507 0.930 . S
C1491 Gd1438 2.805 . S
C1491 O1473 1.263 . S
C1491 O1474 1.252 . S
C1491 C1485 1.500 . S
C1492 H1454 0.930 . S
C1492 C1468 1.417 . S
C1492 C1493 1.329 . S
C1493 C1463 1.437 . S
C1493 H1464 0.929 . S
C1493 C1492 1.329 . S
H1494 C1467 0.931 . S
C1495 O1477 1.265 . S
C1495 O1478 1.242 . S
C1496 O1481 1.261 . S
C1496 O1482 1.252 . S
C1497 C1500 1.394 . S
C1497 C1502 1.370 . S
C1497 C1503 1.500 . S
C1498 C1501 1.383 . S
C1498 C1502 1.395 . S
C1499 C1500 1.396 . S
C1499 C1501 1.365 . S
C1499 H1508 0.929 . S
C1500 C1497 1.394 . S
C1500 C1499 1.396 . S
C1500 H1509 0.930 . S
C1501 C1498 1.383 . S
C1501 C1499 1.365 . S
C1501 H1510 0.931 . S
C1502 C1497 1.370 . S
C1502 C1498 1.395 . S
C1502 H1511 0.930 . S
C1503 Gd1439 2.805 . S
C1503 O1479 1.263 . S
C1503 O1480 1.252 . S
C1503 C1497 1.500 . S
H1504 C1487 0.929 . S
H1505 C1488 0.930 . S
H1506 C1489 0.931 . S
H1507 C1490 0.930 . S
H1508 C1499 0.929 . S
H1509 C1500 0.930 . S
H1510 C1501 0.931 . S
H1511 C1502 0.930 . S
C1512 C1514 1.422 . S
C1512 C1516 1.415 . S
C1512 N1518 1.369 . S
C1513 C1514 1.421 . S
C1513 C1515 1.417 . S
C1513 C1525 1.422 . S
C1514 C1512 1.422 . S
C1514 C1513 1.421 . S
C1514 N1524 1.359 . S
C1515 C1513 1.417 . S
C1515 C1517 1.329 . S
C1515 H1534 0.930 . S
C1516 C1512 1.415 . S
C1516 C1517 1.437 . S
C1516 C1520 1.413 . S
C1517 C1515 1.329 . S
C1517 C1516 1.437 . S
C1517 H1539 0.929 . S
N1518 C1512 1.369 . S
N1518 C1519 1.338 . S
N1518 Gd1523 2.622 . S
C1519 N1518 1.338 . S
C1519 C1521 1.378 . S
C1519 H1531 0.929 . S
C1520 C1516 1.413 . S
C1520 C1521 1.348 . S
C1520 H1536 0.931 . S
C1521 C1519 1.378 . S
C1521 C1520 1.348 . S
C1521 H1537 0.930 . S
Gd1522 N1542 2.622 . S
Gd1522 N1549 2.570 . S
Gd1522 O1556 2.353 . S
Gd1522 O1557 2.468 . S
Gd1522 O1558 2.427 . S
Gd1522 O1560 2.388 . S
Gd1522 O1561 2.386 . S
Gd1522 O1565 2.307 . S
Gd1522 C1575 2.805 . S
Gd1523 N1518 2.622 . S
Gd1523 N1524 2.570 . S
Gd1523 O1555 2.386 . S
Gd1523 O1559 2.307 . S
Gd1523 O1562 2.353 . S
Gd1523 O1563 2.468 . S
Gd1523 O1564 2.427 . S
Gd1523 O1566 2.388 . S
Gd1523 C1587 2.805 . S
N1524 C1514 1.359 . S
N1524 Gd1523 2.570 . S
N1524 C1526 1.343 . S
C1525 C1513 1.422 . S
C1525 C1527 1.321 . S
C1525 H1533 0.931 . S
C1526 N1524 1.343 . S
C1526 C1527 1.390 . S
C1526 H1528 0.931 . S
C1527 C1525 1.321 . S
C1527 C1526 1.390 . S
C1527 H1529 0.930 . S
H1528 C1526 0.931 . S
H1529 C1527 0.930 . S
H1530 C1553 0.931 . S
H1531 C1519 0.929 . S
H1532 C1554 0.930 . S
H1533 C1525 0.931 . S
H1534 C1515 0.930 . S
H1535 C1544 0.929 . S
H1536 C1520 0.931 . S
H1537 C1521 0.930 . S
H1538 C1576 0.930 . S
H1539 C1517 0.929 . S
H1540 C1545 0.931 . S
H1541 C1546 0.930 . S
N1542 Gd1522 2.622 . S
N1542 C1543 1.369 . S
N1542 C1544 1.338 . S
C1543 N1542 1.369 . S
C1543 C1547 1.415 . S
C1543 C1550 1.422 . S
C1544 H1535 0.929 . S
C1544 N1542 1.338 . S
C1544 C1546 1.378 . S
C1545 H1540 0.931 . S
C1545 C1546 1.348 . S
C1545 C1547 1.413 . S
C1546 H1541 0.930 . S
C1546 C1544 1.378 . S
C1546 C1545 1.348 . S
C1547 C1543 1.415 . S
C1547 C1545 1.413 . S
C1547 C1577 1.437 . S
H1548 C1577 0.929 . S
N1549 Gd1522 2.570 . S
N1549 C1550 1.359 . S
N1549 C1553 1.343 . S
C1550 C1543 1.422 . S
C1550 N1549 1.359 . S
C1550 C1552 1.421 . S
C1551 C1552 1.422 . S
C1551 C1554 1.321 . S
C1551 H1578 0.931 . S
C1552 C1550 1.421 . S
C1552 C1551 1.422 . S
C1552 C1576 1.417 . S
C1553 H1530 0.931 . S
C1553 N1549 1.343 . S
C1553 C1554 1.390 . S
C1554 H1532 0.930 . S
C1554 C1551 1.321 . S
C1554 C1553 1.390 . S
O1555 Gd1523 2.386 . S
O1555 C1567 1.265 . S
O1556 Gd1522 2.353 . S
O1556 C1567 1.242 . S
O1557 Gd1522 2.468 . S
O1557 C1575 1.263 . S
O1558 Gd1522 2.427 . S
O1558 C1575 1.252 . S
O1559 Gd1523 2.307 . S
O1559 C1568 1.261 . S
O1560 Gd1522 2.388 . S
O1560 C1568 1.252 . S
O1561 Gd1522 2.386 . S
O1561 C1579 1.265 . S
O1562 Gd1523 2.353 . S
O1562 C1579 1.242 . S
O1563 Gd1523 2.468 . S
O1563 C1587 1.263 . S
O1564 Gd1523 2.427 . S
O1564 C1587 1.252 . S
O1565 Gd1522 2.307 . S
O1565 C1580 1.261 . S
O1566 Gd1523 2.388 . S
O1566 C1580 1.252 . S
C1567 O1555 1.265 . S
C1567 O1556 1.242 . S
C1568 O1559 1.261 . S
C1568 O1560 1.252 . S
C1569 C1572 1.394 . S
C1569 C1574 1.370 . S
C1569 C1575 1.500 . S
C1570 C1573 1.383 . S
C1570 C1574 1.395 . S
C1571 C1572 1.396 . S
C1571 C1573 1.365 . S
C1571 H1588 0.929 . S
C1572 C1569 1.394 . S
C1572 C1571 1.396 . S
C1572 H1589 0.930 . S
C1573 C1570 1.383 . S
C1573 C1571 1.365 . S
C1573 H1590 0.931 . S
C1574 C1569 1.370 . S
C1574 C1570 1.395 . S
C1574 H1591 0.930 . S
C1575 Gd1522 2.805 . S
C1575 O1557 1.263 . S
C1575 O1558 1.252 . S
C1575 C1569 1.500 . S
C1576 H1538 0.930 . S
C1576 C1552 1.417 . S
C1576 C1577 1.329 . S
C1577 C1547 1.437 . S
C1577 H1548 0.929 . S
C1577 C1576 1.329 . S
H1578 C1551 0.931 . S
C1579 O1561 1.265 . S
C1579 O1562 1.242 . S
C1580 O1565 1.261 . S
C1580 O1566 1.252 . S
C1581 C1584 1.394 . S
C1581 C1586 1.370 . S
C1581 C1587 1.500 . S
C1582 C1585 1.383 . S
C1582 C1586 1.395 . S
C1583 C1584 1.396 . S
C1583 C1585 1.365 . S
C1583 H1592 0.929 . S
C1584 C1581 1.394 . S
C1584 C1583 1.396 . S
C1584 H1593 0.930 . S
C1585 C1582 1.383 . S
C1585 C1583 1.365 . S
C1585 H1594 0.931 . S
C1586 C1581 1.370 . S
C1586 C1582 1.395 . S
C1586 H1595 0.930 . S
C1587 Gd1523 2.805 . S
C1587 O1563 1.263 . S
C1587 O1564 1.252 . S
C1587 C1581 1.500 . S
H1588 C1571 0.929 . S
H1589 C1572 0.930 . S
H1590 C1573 0.931 . S
H1591 C1574 0.930 . S
H1592 C1583 0.929 . S
H1593 C1584 0.930 . S
H1594 C1585 0.931 . S
H1595 C1586 0.930 . S
C1596 C1598 1.422 . S
C1596 C1600 1.415 . S
C1596 N1602 1.369 . S
C1597 C1598 1.421 . S
C1597 C1599 1.417 . S
C1597 C1609 1.422 . S
C1598 C1596 1.422 . S
C1598 C1597 1.421 . S
C1598 N1608 1.359 . S
C1599 C1597 1.417 . S
C1599 C1601 1.329 . S
C1599 H1618 0.930 . S
C1600 C1596 1.415 . S
C1600 C1601 1.437 . S
C1600 C1604 1.413 . S
C1601 C1599 1.329 . S
C1601 C1600 1.437 . S
C1601 H1623 0.929 . S
N1602 C1596 1.369 . S
N1602 C1603 1.338 . S
N1602 Gd1607 2.622 . S
C1603 N1602 1.338 . S
C1603 C1605 1.378 . S
C1603 H1615 0.929 . S
C1604 C1600 1.413 . S
C1604 C1605 1.348 . S
C1604 H1620 0.931 . S
C1605 C1603 1.378 . S
C1605 C1604 1.348 . S
C1605 H1621 0.930 . S
Gd1606 N1626 2.622 . S
Gd1606 N1633 2.570 . S
Gd1606 O1640 2.353 . S
Gd1606 O1641 2.468 . S
Gd1606 O1642 2.427 . S
Gd1606 O1644 2.388 . S
Gd1606 O1645 2.386 . S
Gd1606 O1649 2.307 . S
Gd1606 C1659 2.805 . S
Gd1607 N1602 2.622 . S
Gd1607 N1608 2.570 . S
Gd1607 O1639 2.386 . S
Gd1607 O1643 2.307 . S
Gd1607 O1646 2.353 . S
Gd1607 O1647 2.468 . S
Gd1607 O1648 2.427 . S
Gd1607 O1650 2.388 . S
Gd1607 C1671 2.805 . S
N1608 C1598 1.359 . S
N1608 Gd1607 2.570 . S
N1608 C1610 1.343 . S
C1609 C1597 1.422 . S
C1609 C1611 1.321 . S
C1609 H1617 0.931 . S
C1610 N1608 1.343 . S
C1610 C1611 1.390 . S
C1610 H1612 0.931 . S
C1611 C1609 1.321 . S
C1611 C1610 1.390 . S
C1611 H1613 0.930 . S
H1612 C1610 0.931 . S
H1613 C1611 0.930 . S
H1614 C1637 0.931 . S
H1615 C1603 0.929 . S
H1616 C1638 0.930 . S
H1617 C1609 0.931 . S
H1618 C1599 0.930 . S
H1619 C1628 0.929 . S
H1620 C1604 0.931 . S
H1621 C1605 0.930 . S
H1622 C1660 0.930 . S
H1623 C1601 0.929 . S
H1624 C1629 0.931 . S
H1625 C1630 0.930 . S
N1626 Gd1606 2.622 . S
N1626 C1627 1.369 . S
N1626 C1628 1.338 . S
C1627 N1626 1.369 . S
C1627 C1631 1.415 . S
C1627 C1634 1.422 . S
C1628 H1619 0.929 . S
C1628 N1626 1.338 . S
C1628 C1630 1.378 . S
C1629 H1624 0.931 . S
C1629 C1630 1.348 . S
C1629 C1631 1.413 . S
C1630 H1625 0.930 . S
C1630 C1628 1.378 . S
C1630 C1629 1.348 . S
C1631 C1627 1.415 . S
C1631 C1629 1.413 . S
C1631 C1661 1.437 . S
H1632 C1661 0.929 . S
N1633 Gd1606 2.570 . S
N1633 C1634 1.359 . S
N1633 C1637 1.343 . S
C1634 C1627 1.422 . S
C1634 N1633 1.359 . S
C1634 C1636 1.421 . S
C1635 C1636 1.422 . S
C1635 C1638 1.321 . S
C1635 H1662 0.931 . S
C1636 C1634 1.421 . S
C1636 C1635 1.422 . S
C1636 C1660 1.417 . S
C1637 H1614 0.931 . S
C1637 N1633 1.343 . S
C1637 C1638 1.390 . S
C1638 H1616 0.930 . S
C1638 C1635 1.321 . S
C1638 C1637 1.390 . S
O1639 Gd1607 2.386 . S
O1639 C1651 1.265 . S
O1640 Gd1606 2.353 . S
O1640 C1651 1.242 . S
O1641 Gd1606 2.468 . S
O1641 C1659 1.263 . S
O1642 Gd1606 2.427 . S
O1642 C1659 1.252 . S
O1643 Gd1607 2.307 . S
O1643 C1652 1.261 . S
O1644 Gd1606 2.388 . S
O1644 C1652 1.252 . S
O1645 Gd1606 2.386 . S
O1645 C1663 1.265 . S
O1646 Gd1607 2.353 . S
O1646 C1663 1.242 . S
O1647 Gd1607 2.468 . S
O1647 C1671 1.263 . S
O1648 Gd1607 2.427 . S
O1648 C1671 1.252 . S
O1649 Gd1606 2.307 . S
O1649 C1664 1.261 . S
O1650 Gd1607 2.388 . S
O1650 C1664 1.252 . S
C1651 O1639 1.265 . S
C1651 O1640 1.242 . S
C1652 O1643 1.261 . S
C1652 O1644 1.252 . S
C1653 C1656 1.394 . S
C1653 C1658 1.370 . S
C1653 C1659 1.500 . S
C1654 C1657 1.383 . S
C1654 C1658 1.395 . S
C1655 C1656 1.396 . S
C1655 C1657 1.365 . S
C1655 H1672 0.929 . S
C1656 C1653 1.394 . S
C1656 C1655 1.396 . S
C1656 H1673 0.930 . S
C1657 C1654 1.383 . S
C1657 C1655 1.365 . S
C1657 H1674 0.931 . S
C1658 C1653 1.370 . S
C1658 C1654 1.395 . S
C1658 H1675 0.930 . S
C1659 Gd1606 2.805 . S
C1659 O1641 1.263 . S
C1659 O1642 1.252 . S
C1659 C1653 1.500 . S
C1660 H1622 0.930 . S
C1660 C1636 1.417 . S
C1660 C1661 1.329 . S
C1661 C1631 1.437 . S
C1661 H1632 0.929 . S
C1661 C1660 1.329 . S
H1662 C1635 0.931 . S
C1663 O1645 1.265 . S
C1663 O1646 1.242 . S
C1664 O1649 1.261 . S
C1664 O1650 1.252 . S
C1665 C1668 1.394 . S
C1665 C1670 1.370 . S
C1665 C1671 1.500 . S
C1666 C1669 1.383 . S
C1666 C1670 1.395 . S
C1667 C1668 1.396 . S
C1667 C1669 1.365 . S
C1667 H1676 0.929 . S
C1668 C1665 1.394 . S
C1668 C1667 1.396 . S
C1668 H1677 0.930 . S
C1669 C1666 1.383 . S
C1669 C1667 1.365 . S
C1669 H1678 0.931 . S
C1670 C1665 1.370 . S
C1670 C1666 1.395 . S
C1670 H1679 0.930 . S
C1671 Gd1607 2.805 . S
C1671 O1647 1.263 . S
C1671 O1648 1.252 . S
C1671 C1665 1.500 . S
H1672 C1655 0.929 . S
H1673 C1656 0.930 . S
H1674 C1657 0.931 . S
H1675 C1658 0.930 . S
H1676 C1667 0.929 . S
H1677 C1668 0.930 . S
H1678 C1669 0.931 . S
H1679 C1670 0.930 . S
C1680 C1682 1.422 . S
C1680 C1684 1.415 . S
C1680 N1686 1.369 . S
C1681 C1682 1.421 . S
C1681 C1683 1.417 . S
C1681 C1693 1.422 . S
C1682 C1680 1.422 . S
C1682 C1681 1.421 . S
C1682 N1692 1.359 . S
C1683 C1681 1.417 . S
C1683 C1685 1.329 . S
C1683 H1702 0.930 . S
C1684 C1680 1.415 . S
C1684 C1685 1.437 . S
C1684 C1688 1.413 . S
C1685 C1683 1.329 . S
C1685 C1684 1.437 . S
C1685 H1707 0.929 . S
N1686 C1680 1.369 . S
N1686 C1687 1.338 . S
N1686 Gd1691 2.622 . S
C1687 N1686 1.338 . S
C1687 C1689 1.378 . S
C1687 H1699 0.929 . S
C1688 C1684 1.413 . S
C1688 C1689 1.348 . S
C1688 H1704 0.931 . S
C1689 C1687 1.378 . S
C1689 C1688 1.348 . S
C1689 H1705 0.930 . S
Gd1690 N1710 2.622 . S
Gd1690 N1717 2.570 . S
Gd1690 O1724 2.353 . S
Gd1690 O1725 2.468 . S
Gd1690 O1726 2.427 . S
Gd1690 O1728 2.388 . S
Gd1690 O1729 2.386 . S
Gd1690 O1733 2.307 . S
Gd1690 C1743 2.805 . S
Gd1691 N1686 2.622 . S
Gd1691 N1692 2.570 . S
Gd1691 O1723 2.386 . S
Gd1691 O1727 2.307 . S
Gd1691 O1730 2.353 . S
Gd1691 O1731 2.468 . S
Gd1691 O1732 2.427 . S
Gd1691 O1734 2.388 . S
Gd1691 C1755 2.805 . S
N1692 C1682 1.359 . S
N1692 Gd1691 2.570 . S
N1692 C1694 1.343 . S
C1693 C1681 1.422 . S
C1693 C1695 1.321 . S
C1693 H1701 0.931 . S
C1694 N1692 1.343 . S
C1694 C1695 1.390 . S
C1694 H1696 0.931 . S
C1695 C1693 1.321 . S
C1695 C1694 1.390 . S
C1695 H1697 0.930 . S
H1696 C1694 0.931 . S
H1697 C1695 0.930 . S
H1698 C1721 0.931 . S
H1699 C1687 0.929 . S
H1700 C1722 0.930 . S
H1701 C1693 0.931 . S
H1702 C1683 0.930 . S
H1703 C1712 0.929 . S
H1704 C1688 0.931 . S
H1705 C1689 0.930 . S
H1706 C1744 0.930 . S
H1707 C1685 0.929 . S
H1708 C1713 0.931 . S
H1709 C1714 0.930 . S
N1710 Gd1690 2.622 . S
N1710 C1711 1.369 . S
N1710 C1712 1.338 . S
C1711 N1710 1.369 . S
C1711 C1715 1.415 . S
C1711 C1718 1.422 . S
C1712 H1703 0.929 . S
C1712 N1710 1.338 . S
C1712 C1714 1.378 . S
C1713 H1708 0.931 . S
C1713 C1714 1.348 . S
C1713 C1715 1.413 . S
C1714 H1709 0.930 . S
C1714 C1712 1.378 . S
C1714 C1713 1.348 . S
C1715 C1711 1.415 . S
C1715 C1713 1.413 . S
C1715 C1745 1.437 . S
H1716 C1745 0.929 . S
N1717 Gd1690 2.570 . S
N1717 C1718 1.359 . S
N1717 C1721 1.343 . S
C1718 C1711 1.422 . S
C1718 N1717 1.359 . S
C1718 C1720 1.421 . S
C1719 C1720 1.422 . S
C1719 C1722 1.321 . S
C1719 H1746 0.931 . S
C1720 C1718 1.421 . S
C1720 C1719 1.422 . S
C1720 C1744 1.417 . S
C1721 H1698 0.931 . S
C1721 N1717 1.343 . S
C1721 C1722 1.390 . S
C1722 H1700 0.930 . S
C1722 C1719 1.321 . S
C1722 C1721 1.390 . S
O1723 Gd1691 2.386 . S
O1723 C1735 1.265 . S
O1724 Gd1690 2.353 . S
O1724 C1735 1.242 . S
O1725 Gd1690 2.468 . S
O1725 C1743 1.263 . S
O1726 Gd1690 2.427 . S
O1726 C1743 1.252 . S
O1727 Gd1691 2.307 . S
O1727 C1736 1.261 . S
O1728 Gd1690 2.388 . S
O1728 C1736 1.252 . S
O1729 Gd1690 2.386 . S
O1729 C1747 1.265 . S
O1730 Gd1691 2.353 . S
O1730 C1747 1.242 . S
O1731 Gd1691 2.468 . S
O1731 C1755 1.263 . S
O1732 Gd1691 2.427 . S
O1732 C1755 1.252 . S
O1733 Gd1690 2.307 . S
O1733 C1748 1.261 . S
O1734 Gd1691 2.388 . S
O1734 C1748 1.252 . S
C1735 O1723 1.265 . S
C1735 O1724 1.242 . S
C1736 O1727 1.261 . S
C1736 O1728 1.252 . S
C1737 C1740 1.394 . S
C1737 C1742 1.370 . S
C1737 C1743 1.500 . S
C1738 C1741 1.383 . S
C1738 C1742 1.395 . S
C1739 C1740 1.396 . S
C1739 C1741 1.365 . S
C1739 H1756 0.929 . S
C1740 C1737 1.394 . S
C1740 C1739 1.396 . S
C1740 H1757 0.930 . S
C1741 C1738 1.383 . S
C1741 C1739 1.365 . S
C1741 H1758 0.931 . S
C1742 C1737 1.370 . S
C1742 C1738 1.395 . S
C1742 H1759 0.930 . S
C1743 Gd1690 2.805 . S
C1743 O1725 1.263 . S
C1743 O1726 1.252 . S
C1743 C1737 1.500 . S
C1744 H1706 0.930 . S
C1744 C1720 1.417 . S
C1744 C1745 1.329 . S
C1745 C1715 1.437 . S
C1745 H1716 0.929 . S
C1745 C1744 1.329 . S
H1746 C1719 0.931 . S
C1747 O1729 1.265 . S
C1747 O1730 1.242 . S
C1748 O1733 1.261 . S
C1748 O1734 1.252 . S
C1749 C1752 1.394 . S
C1749 C1754 1.370 . S
C1749 C1755 1.500 . S
C1750 C1753 1.383 . S
C1750 C1754 1.395 . S
C1751 C1752 1.396 . S
C1751 C1753 1.365 . S
C1751 H1760 0.929 . S
C1752 C1749 1.394 . S
C1752 C1751 1.396 . S
C1752 H1761 0.930 . S
C1753 C1750 1.383 . S
C1753 C1751 1.365 . S
C1753 H1762 0.931 . S
C1754 C1749 1.370 . S
C1754 C1750 1.395 . S
C1754 H1763 0.930 . S
C1755 Gd1691 2.805 . S
C1755 O1731 1.263 . S
C1755 O1732 1.252 . S
C1755 C1749 1.500 . S
H1756 C1739 0.929 . S
H1757 C1740 0.930 . S
H1758 C1741 0.931 . S
H1759 C1742 0.930 . S
H1760 C1751 0.929 . S
H1761 C1752 0.930 . S
H1762 C1753 0.931 . S
H1763 C1754 0.930 . S
C1764 C1766 1.422 . S
C1764 C1768 1.415 . S
C1764 N1770 1.369 . S
C1765 C1766 1.421 . S
C1765 C1767 1.417 . S
C1765 C1777 1.422 . S
C1766 C1764 1.422 . S
C1766 C1765 1.421 . S
C1766 N1776 1.359 . S
C1767 C1765 1.417 . S
C1767 C1769 1.329 . S
C1767 H1786 0.930 1_556 S
C1768 C1764 1.415 . S
C1768 C1769 1.437 . S
C1768 C1772 1.413 . S
C1769 C1767 1.329 . S
C1769 C1768 1.437 . S
C1769 H1791 0.929 . S
N1770 C1764 1.369 . S
N1770 C1771 1.338 . S
N1770 Gd1775 2.622 . S
C1771 N1770 1.338 . S
C1771 C1773 1.378 . S
C1771 H1783 0.929 . S
C1772 C1768 1.413 . S
C1772 C1773 1.348 . S
C1772 H1788 0.931 . S
C1773 C1771 1.378 . S
C1773 C1772 1.348 . S
C1773 H1789 0.930 . S
Gd1774 N1794 2.622 . S
Gd1774 N1801 2.570 . S
Gd1774 O1808 2.353 . S
Gd1774 O1809 2.468 . S
Gd1774 O1810 2.427 . S
Gd1774 O1812 2.388 . S
Gd1774 O1813 2.386 . S
Gd1774 O1817 2.307 . S
Gd1774 C1827 2.805 . S
Gd1775 N1770 2.622 . S
Gd1775 N1776 2.570 . S
Gd1775 O1807 2.386 . S
Gd1775 O1811 2.307 . S
Gd1775 O1814 2.353 . S
Gd1775 O1815 2.468 . S
Gd1775 O1816 2.427 . S
Gd1775 O1818 2.388 . S
Gd1775 C1839 2.805 . S
N1776 C1766 1.359 . S
N1776 Gd1775 2.570 . S
N1776 C1778 1.343 . S
C1777 C1765 1.422 . S
C1777 C1779 1.321 . S
C1777 H1785 0.931 1_556 S
C1778 N1776 1.343 . S
C1778 C1779 1.390 . S
C1778 H1780 0.931 . S
C1779 C1777 1.321 . S
C1779 C1778 1.390 . S
C1779 H1781 0.930 1_556 S
H1780 C1778 0.931 . S
H1781 C1779 0.930 1_554 S
H1782 C1805 0.931 . S
H1783 C1771 0.929 . S
H1784 C1806 0.930 . S
H1785 C1777 0.931 1_554 S
H1786 C1767 0.930 1_554 S
H1787 C1796 0.929 . S
H1788 C1772 0.931 . S
H1789 C1773 0.930 . S
H1790 C1828 0.930 . S
H1791 C1769 0.929 . S
H1792 C1797 0.931 . S
H1793 C1798 0.930 1_565 S
N1794 Gd1774 2.622 . S
N1794 C1795 1.369 . S
N1794 C1796 1.338 . S
C1795 N1794 1.369 . S
C1795 C1799 1.415 . S
C1795 C1802 1.422 . S
C1796 H1787 0.929 . S
C1796 N1794 1.338 . S
C1796 C1798 1.378 . S
C1797 H1792 0.931 . S
C1797 C1798 1.348 1_565 S
C1797 C1799 1.413 1_565 S
C1798 H1793 0.930 1_545 S
C1798 C1796 1.378 . S
C1798 C1797 1.348 1_545 S
C1799 C1795 1.415 . S
C1799 C1797 1.413 1_545 S
C1799 C1829 1.431 1_545 S
H1800 C1829 0.975 . S
N1801 Gd1774 2.570 . S
N1801 C1802 1.359 . S
N1801 C1805 1.343 . S
C1802 C1795 1.422 . S
C1802 N1801 1.359 . S
C1802 C1804 1.421 . S
C1803 C1804 1.422 . S
C1803 C1806 1.321 . S
C1803 H1830 0.931 . S
C1804 C1802 1.421 . S
C1804 C1803 1.422 . S
C1804 C1828 1.417 . S
C1805 H1782 0.931 . S
C1805 N1801 1.343 . S
C1805 C1806 1.390 . S
C1806 H1784 0.930 . S
C1806 C1803 1.321 . S
C1806 C1805 1.390 . S
O1807 Gd1775 2.386 . S
O1807 C1819 1.265 . S
O1808 Gd1774 2.353 . S
O1808 C1819 1.242 . S
O1809 Gd1774 2.468 . S
O1809 C1827 1.263 . S
O1810 Gd1774 2.427 . S
O1810 C1827 1.252 . S
O1811 Gd1775 2.307 . S
O1811 C1820 1.261 . S
O1812 Gd1774 2.388 . S
O1812 C1820 1.252 . S
O1813 Gd1774 2.386 . S
O1813 C1831 1.265 . S
O1814 Gd1775 2.353 . S
O1814 C1831 1.242 . S
O1815 Gd1775 2.468 . S
O1815 C1839 1.263 . S
O1816 Gd1775 2.427 . S
O1816 C1839 1.252 . S
O1817 Gd1774 2.307 . S
O1817 C1832 1.261 . S
O1818 Gd1775 2.388 . S
O1818 C1832 1.252 . S
C1819 O1807 1.265 . S
C1819 O1808 1.242 . S
C1820 O1811 1.261 . S
C1820 O1812 1.252 . S
C1821 C1824 1.394 . S
C1821 C1826 1.370 . S
C1821 C1827 1.500 . S
C1822 C1825 1.383 . S
C1822 C1826 1.395 . S
C1823 C1824 1.396 . S
C1823 C1825 1.365 . S
C1823 H1840 0.929 . S
C1824 C1821 1.394 . S
C1824 C1823 1.396 . S
C1824 H1841 0.930 . S
C1825 C1822 1.383 . S
C1825 C1823 1.365 . S
C1825 H1842 0.931 . S
C1826 C1821 1.370 . S
C1826 C1822 1.395 . S
C1826 H1843 0.930 . S
C1827 Gd1774 2.805 . S
C1827 O1809 1.263 . S
C1827 O1810 1.252 . S
C1827 C1821 1.500 . S
C1828 H1790 0.930 . S
C1828 C1804 1.417 . S
C1828 C1829 1.292 1_545 S
C1829 C1799 1.431 1_565 S
C1829 H1800 0.975 . S
C1829 C1828 1.292 1_565 S
H1830 C1803 0.931 . S
C1831 O1813 1.265 . S
C1831 O1814 1.242 . S
C1832 O1817 1.261 . S
C1832 O1818 1.252 . S
C1833 C1836 1.394 . S
C1833 C1838 1.370 . S
C1833 C1839 1.500 . S
C1834 C1837 1.383 . S
C1834 C1838 1.395 . S
C1835 C1836 1.396 . S
C1835 C1837 1.365 . S
C1835 H1844 0.929 . S
C1836 C1833 1.394 . S
C1836 C1835 1.396 . S
C1836 H1845 0.930 . S
C1837 C1834 1.383 . S
C1837 C1835 1.365 . S
C1837 H1846 0.931 . S
C1838 C1833 1.370 . S
C1838 C1834 1.395 . S
C1838 H1847 0.930 . S
C1839 Gd1775 2.805 . S
C1839 O1815 1.263 . S
C1839 O1816 1.252 . S
C1839 C1833 1.500 . S
H1840 C1823 0.929 . S
H1841 C1824 0.930 . S
H1842 C1825 0.931 . S
H1843 C1826 0.930 . S
H1844 C1835 0.929 . S
H1845 C1836 0.930 . S
H1846 C1837 0.931 . S
H1847 C1838 0.930 . S
C1848 C1850 1.422 . S
C1848 C1852 1.415 . S
C1848 N1854 1.369 . S
C1849 C1850 1.421 . S
C1849 C1851 1.417 . S
C1849 C1861 1.422 . S
C1850 C1848 1.422 . S
C1850 C1849 1.421 . S
C1850 N1860 1.359 . S
C1851 C1849 1.417 . S
C1851 C1853 1.329 . S
C1851 H1870 0.930 1_556 S
C1852 C1848 1.415 . S
C1852 C1853 1.437 . S
C1852 C1856 1.413 . S
C1853 C1851 1.329 . S
C1853 C1852 1.437 . S
C1853 H1875 0.929 . S
N1854 C1848 1.369 . S
N1854 C1855 1.338 . S
N1854 Gd1859 2.622 . S
C1855 N1854 1.338 . S
C1855 C1857 1.378 . S
C1855 H1867 0.929 . S
C1856 C1852 1.413 . S
C1856 C1857 1.348 . S
C1856 H1872 0.931 . S
C1857 C1855 1.378 . S
C1857 C1856 1.348 . S
C1857 H1873 0.930 . S
Gd1858 N1878 2.622 . S
Gd1858 N1885 2.570 . S
Gd1858 O1892 2.353 . S
Gd1858 O1893 2.468 . S
Gd1858 O1894 2.427 . S
Gd1858 O1896 2.388 . S
Gd1858 O1897 2.386 . S
Gd1858 O1901 2.307 . S
Gd1858 C1911 2.805 . S
Gd1859 N1854 2.622 . S
Gd1859 N1860 2.570 . S
Gd1859 O1891 2.386 . S
Gd1859 O1895 2.307 . S
Gd1859 O1898 2.353 . S
Gd1859 O1899 2.468 . S
Gd1859 O1900 2.427 . S
Gd1859 O1902 2.388 . S
Gd1859 C1923 2.805 . S
N1860 C1850 1.359 . S
N1860 Gd1859 2.570 . S
N1860 C1862 1.343 . S
C1861 C1849 1.422 . S
C1861 C1863 1.321 . S
C1861 H1869 0.931 1_556 S
C1862 N1860 1.343 . S
C1862 C1863 1.390 . S
C1862 H1864 0.931 . S
C1863 C1861 1.321 . S
C1863 C1862 1.390 . S
C1863 H1865 0.930 1_556 S
H1864 C1862 0.931 . S
H1865 C1863 0.930 1_554 S
H1866 C1889 0.931 . S
H1867 C1855 0.929 . S
H1868 C1890 0.930 . S
H1869 C1861 0.931 1_554 S
H1870 C1851 0.930 1_554 S
H1871 C1880 0.929 . S
H1872 C1856 0.931 . S
H1873 C1857 0.930 . S
H1874 C1912 0.930 . S
H1875 C1853 0.929 . S
H1876 C1881 0.931 . S
H1877 C1882 0.930 1_455 S
N1878 Gd1858 2.622 . S
N1878 C1879 1.369 . S
N1878 C1880 1.338 . S
C1879 N1878 1.369 . S
C1879 C1883 1.415 . S
C1879 C1886 1.422 . S
C1880 H1871 0.929 . S
C1880 N1878 1.338 . S
C1880 C1882 1.378 . S
C1881 H1876 0.931 . S
C1881 C1882 1.348 1_455 S
C1881 C1883 1.413 1_455 S
C1882 H1877 0.930 1_655 S
C1882 C1880 1.378 . S
C1882 C1881 1.348 1_655 S
C1883 C1879 1.415 . S
C1883 C1881 1.413 1_655 S
C1883 C1913 1.414 1_655 S
H1884 C1913 0.964 . S
N1885 Gd1858 2.570 . S
N1885 C1886 1.359 . S
N1885 C1889 1.343 . S
C1886 C1879 1.422 . S
C1886 N1885 1.359 . S
C1886 C1888 1.421 . S
C1887 C1888 1.422 . S
C1887 C1890 1.321 . S
C1887 H1914 0.931 . S
C1888 C1886 1.421 . S
C1888 C1887 1.422 . S
C1888 C1912 1.417 . S
C1889 H1866 0.931 . S
C1889 N1885 1.343 . S
C1889 C1890 1.390 . S
C1890 H1868 0.930 . S
C1890 C1887 1.321 . S
C1890 C1889 1.390 . S
O1891 Gd1859 2.386 . S
O1891 C1903 1.265 . S
O1892 Gd1858 2.353 . S
O1892 C1903 1.242 . S
O1893 Gd1858 2.468 . S
O1893 C1911 1.263 . S
O1894 Gd1858 2.427 . S
O1894 C1911 1.252 . S
O1895 Gd1859 2.307 . S
O1895 C1904 1.261 . S
O1896 Gd1858 2.388 . S
O1896 C1904 1.252 . S
O1897 Gd1858 2.386 . S
O1897 C1915 1.265 . S
O1898 Gd1859 2.353 . S
O1898 C1915 1.242 . S
O1899 Gd1859 2.468 . S
O1899 C1923 1.263 . S
O1900 Gd1859 2.427 . S
O1900 C1923 1.252 . S
O1901 Gd1858 2.307 . S
O1901 C1916 1.261 . S
O1902 Gd1859 2.388 . S
O1902 C1916 1.252 . S
C1903 O1891 1.265 . S
C1903 O1892 1.242 . S
C1904 O1895 1.261 . S
C1904 O1896 1.252 . S
C1905 C1908 1.394 . S
C1905 C1910 1.370 . S
C1905 C1911 1.500 . S
C1906 C1909 1.383 . S
C1906 C1910 1.395 . S
C1907 C1908 1.396 . S
C1907 C1909 1.365 . S
C1907 H1924 0.929 . S
C1908 C1905 1.394 . S
C1908 C1907 1.396 . S
C1908 H1925 0.930 . S
C1909 C1906 1.383 . S
C1909 C1907 1.365 . S
C1909 H1926 0.931 . S
C1910 C1905 1.370 . S
C1910 C1906 1.395 . S
C1910 H1927 0.930 . S
C1911 Gd1858 2.805 . S
C1911 O1893 1.263 . S
C1911 O1894 1.252 . S
C1911 C1905 1.500 . S
C1912 H1874 0.930 . S
C1912 C1888 1.417 . S
C1912 C1913 1.320 1_655 S
C1913 C1883 1.414 1_455 S
C1913 H1884 0.964 . S
C1913 C1912 1.320 1_455 S
H1914 C1887 0.931 . S
C1915 O1897 1.265 . S
C1915 O1898 1.242 . S
C1916 O1901 1.261 . S
C1916 O1902 1.252 . S
C1917 C1920 1.394 . S
C1917 C1922 1.370 . S
C1917 C1923 1.500 . S
C1918 C1921 1.383 . S
C1918 C1922 1.395 . S
C1919 C1920 1.396 . S
C1919 C1921 1.365 . S
C1919 H1928 0.929 . S
C1920 C1917 1.394 . S
C1920 C1919 1.396 . S
C1920 H1929 0.930 . S
C1921 C1918 1.383 . S
C1921 C1919 1.365 . S
C1921 H1930 0.931 . S
C1922 C1917 1.370 . S
C1922 C1918 1.395 . S
C1922 H1931 0.930 . S
C1923 Gd1859 2.805 . S
C1923 O1899 1.263 . S
C1923 O1900 1.252 . S
C1923 C1917 1.500 . S
H1924 C1907 0.929 . S
H1925 C1908 0.930 . S
H1926 C1909 0.931 . S
H1927 C1910 0.930 . S
H1928 C1919 0.929 . S
H1929 C1920 0.930 . S
H1930 C1921 0.931 . S
H1931 C1922 0.930 . S
C1932 C1934 1.422 . S
C1932 C1936 1.415 . S
C1932 N1938 1.369 . S
C1933 C1934 1.421 . S
C1933 C1935 1.417 . S
C1933 C1945 1.422 . S
C1934 C1932 1.422 . S
C1934 C1933 1.421 . S
C1934 N1944 1.359 . S
C1935 C1933 1.417 . S
C1935 C1937 1.329 . S
C1935 H1954 0.930 1_556 S
C1936 C1932 1.415 . S
C1936 C1937 1.437 . S
C1936 C1940 1.413 . S
C1937 C1935 1.329 . S
C1937 C1936 1.437 . S
C1937 H1959 0.929 . S
N1938 C1932 1.369 . S
N1938 C1939 1.338 . S
N1938 Gd1943 2.622 . S
C1939 N1938 1.338 . S
C1939 C1941 1.378 . S
C1939 H1951 0.929 . S
C1940 C1936 1.413 . S
C1940 C1941 1.348 . S
C1940 H1956 0.931 . S
C1941 C1939 1.378 . S
C1941 C1940 1.348 . S
C1941 H1957 0.930 . S
Gd1942 N1962 2.622 . S
Gd1942 N1969 2.570 . S
Gd1942 O1976 2.353 . S
Gd1942 O1977 2.468 . S
Gd1942 O1978 2.427 . S
Gd1942 O1980 2.388 . S
Gd1942 O1981 2.386 . S
Gd1942 O1985 2.307 . S
Gd1942 C1995 2.805 . S
Gd1943 N1938 2.622 . S
Gd1943 N1944 2.570 . S
Gd1943 O1975 2.386 . S
Gd1943 O1979 2.307 . S
Gd1943 O1982 2.353 . S
Gd1943 O1983 2.468 . S
Gd1943 O1984 2.427 . S
Gd1943 O1986 2.388 . S
Gd1943 C2007 2.805 . S
N1944 C1934 1.359 . S
N1944 Gd1943 2.570 . S
N1944 C1946 1.343 . S
C1945 C1933 1.422 . S
C1945 C1947 1.321 . S
C1945 H1953 0.931 1_556 S
C1946 N1944 1.343 . S
C1946 C1947 1.390 . S
C1946 H1948 0.931 . S
C1947 C1945 1.321 . S
C1947 C1946 1.390 . S
C1947 H1949 0.930 1_556 S
H1948 C1946 0.931 . S
H1949 C1947 0.930 1_554 S
H1950 C1973 0.931 . S
H1951 C1939 0.929 . S
H1952 C1974 0.930 . S
H1953 C1945 0.931 1_554 S
H1954 C1935 0.930 1_554 S
H1955 C1964 0.929 . S
H1956 C1940 0.931 . S
H1957 C1941 0.930 . S
H1958 C1996 0.930 . S
H1959 C1937 0.929 . S
H1960 C1965 0.931 . S
H1961 C1966 0.930 . S
N1962 Gd1942 2.622 . S
N1962 C1963 1.369 . S
N1962 C1964 1.338 . S
C1963 N1962 1.369 . S
C1963 C1967 1.415 . S
C1963 C1970 1.422 . S
C1964 H1955 0.929 . S
C1964 N1962 1.338 . S
C1964 C1966 1.378 . S
C1965 H1960 0.931 . S
C1965 C1966 1.348 . S
C1965 C1967 1.413 . S
C1966 H1961 0.930 . S
C1966 C1964 1.378 . S
C1966 C1965 1.348 . S
C1967 C1963 1.415 . S
C1967 C1965 1.413 . S
C1967 C1997 1.437 . S
H1968 C1997 0.929 . S
N1969 Gd1942 2.570 . S
N1969 C1970 1.359 . S
N1969 C1973 1.343 . S
C1970 C1963 1.422 . S
C1970 N1969 1.359 . S
C1970 C1972 1.421 . S
C1971 C1972 1.422 . S
C1971 C1974 1.321 . S
C1971 H1998 0.931 . S
C1972 C1970 1.421 . S
C1972 C1971 1.422 . S
C1972 C1996 1.417 . S
C1973 H1950 0.931 . S
C1973 N1969 1.343 . S
C1973 C1974 1.390 . S
C1974 H1952 0.930 . S
C1974 C1971 1.321 . S
C1974 C1973 1.390 . S
O1975 Gd1943 2.386 . S
O1975 C1987 1.265 . S
O1976 Gd1942 2.353 . S
O1976 C1987 1.242 . S
O1977 Gd1942 2.468 . S
O1977 C1995 1.263 . S
O1978 Gd1942 2.427 . S
O1978 C1995 1.252 . S
O1979 Gd1943 2.307 . S
O1979 C1988 1.261 . S
O1980 Gd1942 2.388 . S
O1980 C1988 1.252 . S
O1981 Gd1942 2.386 . S
O1981 C1999 1.265 . S
O1982 Gd1943 2.353 . S
O1982 C1999 1.242 . S
O1983 Gd1943 2.468 . S
O1983 C2007 1.263 . S
O1984 Gd1943 2.427 . S
O1984 C2007 1.252 . S
O1985 Gd1942 2.307 . S
O1985 C2000 1.261 . S
O1986 Gd1943 2.388 . S
O1986 C2000 1.252 . S
C1987 O1975 1.265 . S
C1987 O1976 1.242 . S
C1988 O1979 1.261 . S
C1988 O1980 1.252 . S
C1989 C1992 1.394 . S
C1989 C1994 1.370 . S
C1989 C1995 1.500 . S
C1990 C1993 1.383 . S
C1990 C1994 1.395 . S
C1991 C1992 1.396 . S
C1991 C1993 1.365 . S
C1991 H2008 0.929 . S
C1992 C1989 1.394 . S
C1992 C1991 1.396 . S
C1992 H2009 0.930 . S
C1993 C1990 1.383 . S
C1993 C1991 1.365 . S
C1993 H2010 0.931 . S
C1994 C1989 1.370 . S
C1994 C1990 1.395 . S
C1994 H2011 0.930 . S
C1995 Gd1942 2.805 . S
C1995 O1977 1.263 . S
C1995 O1978 1.252 . S
C1995 C1989 1.500 . S
C1996 H1958 0.930 . S
C1996 C1972 1.417 . S
C1996 C1997 1.329 . S
C1997 C1967 1.437 . S
C1997 H1968 0.929 . S
C1997 C1996 1.329 . S
H1998 C1971 0.931 . S
C1999 O1981 1.265 . S
C1999 O1982 1.242 . S
C2000 O1985 1.261 . S
C2000 O1986 1.252 . S
C2001 C2004 1.394 . S
C2001 C2006 1.370 . S
C2001 C2007 1.500 . S
C2002 C2005 1.383 . S
C2002 C2006 1.395 . S
C2003 C2004 1.396 . S
C2003 C2005 1.365 . S
C2003 H2012 0.929 . S
C2004 C2001 1.394 . S
C2004 C2003 1.396 . S
C2004 H2013 0.930 . S
C2005 C2002 1.383 . S
C2005 C2003 1.365 . S
C2005 H2014 0.931 . S
C2006 C2001 1.370 . S
C2006 C2002 1.395 . S
C2006 H2015 0.930 . S
C2007 Gd1943 2.805 . S
C2007 O1983 1.263 . S
C2007 O1984 1.252 . S
C2007 C2001 1.500 . S
H2008 C1991 0.929 . S
H2009 C1992 0.930 . S
H2010 C1993 0.931 . S
H2011 C1994 0.930 . S
H2012 C2003 0.929 . S
H2013 C2004 0.930 . S
H2014 C2005 0.931 . S
H2015 C2006 0.930 . S
C2016 C2018 1.422 . S
C2016 C2020 1.415 . S
C2016 N2022 1.369 . S
C2017 C2018 1.421 . S
C2017 C2019 1.417 . S
C2017 C2029 1.422 . S
C2018 C2016 1.422 . S
C2018 C2017 1.421 . S
C2018 N2028 1.359 . S
C2019 C2017 1.417 . S
C2019 C2021 1.329 . S
C2019 H2038 0.930 . S
C2020 C2016 1.415 . S
C2020 C2021 1.437 . S
C2020 C2024 1.413 . S
C2021 C2019 1.329 . S
C2021 C2020 1.437 . S
C2021 H2043 0.929 . S
N2022 C2016 1.369 . S
N2022 C2023 1.338 . S
N2022 Gd2027 2.622 . S
C2023 N2022 1.338 . S
C2023 C2025 1.378 . S
C2023 H2035 0.929 . S
C2024 C2020 1.413 . S
C2024 C2025 1.348 . S
C2024 H2040 0.931 . S
C2025 C2023 1.378 . S
C2025 C2024 1.348 . S
C2025 H2041 0.930 . S
Gd2026 N2046 2.622 . S
Gd2026 N2053 2.570 . S
Gd2026 O2060 2.353 . S
Gd2026 O2061 2.468 . S
Gd2026 O2062 2.427 . S
Gd2026 O2064 2.388 . S
Gd2026 O2065 2.386 . S
Gd2026 O2069 2.307 . S
Gd2026 C2079 2.805 . S
Gd2027 N2022 2.622 . S
Gd2027 N2028 2.570 . S
Gd2027 O2059 2.386 . S
Gd2027 O2063 2.307 . S
Gd2027 O2066 2.353 . S
Gd2027 O2067 2.468 . S
Gd2027 O2068 2.427 . S
Gd2027 O2070 2.388 . S
Gd2027 C2091 2.805 . S
N2028 C2018 1.359 . S
N2028 Gd2027 2.570 . S
N2028 C2030 1.343 . S
C2029 C2017 1.422 . S
C2029 C2031 1.321 . S
C2029 H2037 0.931 . S
C2030 N2028 1.343 . S
C2030 C2031 1.390 . S
C2030 H2032 0.931 . S
C2031 C2029 1.321 . S
C2031 C2030 1.390 . S
C2031 H2033 0.930 . S
H2032 C2030 0.931 . S
H2033 C2031 0.930 . S
H2034 C2057 0.931 . S
H2035 C2023 0.929 . S
H2036 C2058 0.930 . S
H2037 C2029 0.931 . S
H2038 C2019 0.930 . S
H2039 C2048 0.929 . S
H2040 C2024 0.931 . S
H2041 C2025 0.930 . S
H2042 C2080 0.930 . S
H2043 C2021 0.929 . S
H2044 C2049 0.931 . S
H2045 C2050 0.930 . S
N2046 Gd2026 2.622 . S
N2046 C2047 1.369 . S
N2046 C2048 1.338 . S
C2047 N2046 1.369 . S
C2047 C2051 1.415 . S
C2047 C2054 1.422 . S
C2048 H2039 0.929 . S
C2048 N2046 1.338 . S
C2048 C2050 1.378 . S
C2049 H2044 0.931 . S
C2049 C2050 1.348 . S
C2049 C2051 1.413 . S
C2050 H2045 0.930 . S
C2050 C2048 1.378 . S
C2050 C2049 1.348 . S
C2051 C2047 1.415 . S
C2051 C2049 1.413 . S
C2051 C2081 1.437 . S
H2052 C2081 0.929 . S
N2053 Gd2026 2.570 . S
N2053 C2054 1.359 . S
N2053 C2057 1.343 . S
C2054 C2047 1.422 . S
C2054 N2053 1.359 . S
C2054 C2056 1.421 . S
C2055 C2056 1.422 . S
C2055 C2058 1.321 . S
C2055 H2082 0.931 . S
C2056 C2054 1.421 . S
C2056 C2055 1.422 . S
C2056 C2080 1.417 . S
C2057 H2034 0.931 . S
C2057 N2053 1.343 . S
C2057 C2058 1.390 . S
C2058 H2036 0.930 . S
C2058 C2055 1.321 . S
C2058 C2057 1.390 . S
O2059 Gd2027 2.386 . S
O2059 C2071 1.265 . S
O2060 Gd2026 2.353 . S
O2060 C2071 1.242 . S
O2061 Gd2026 2.468 . S
O2061 C2079 1.263 . S
O2062 Gd2026 2.427 . S
O2062 C2079 1.252 . S
O2063 Gd2027 2.307 . S
O2063 C2072 1.261 . S
O2064 Gd2026 2.388 . S
O2064 C2072 1.252 . S
O2065 Gd2026 2.386 . S
O2065 C2083 1.265 . S
O2066 Gd2027 2.353 . S
O2066 C2083 1.242 . S
O2067 Gd2027 2.468 . S
O2067 C2091 1.263 . S
O2068 Gd2027 2.427 . S
O2068 C2091 1.252 . S
O2069 Gd2026 2.307 . S
O2069 C2084 1.261 . S
O2070 Gd2027 2.388 . S
O2070 C2084 1.252 . S
C2071 O2059 1.265 . S
C2071 O2060 1.242 . S
C2072 O2063 1.261 . S
C2072 O2064 1.252 . S
C2073 C2076 1.394 . S
C2073 C2078 1.370 . S
C2073 C2079 1.500 . S
C2074 C2077 1.383 . S
C2074 C2078 1.395 . S
C2075 C2076 1.396 . S
C2075 C2077 1.365 . S
C2075 H2092 0.929 . S
C2076 C2073 1.394 . S
C2076 C2075 1.396 . S
C2076 H2093 0.930 . S
C2077 C2074 1.383 . S
C2077 C2075 1.365 . S
C2077 H2094 0.931 . S
C2078 C2073 1.370 . S
C2078 C2074 1.395 . S
C2078 H2095 0.930 . S
C2079 Gd2026 2.805 . S
C2079 O2061 1.263 . S
C2079 O2062 1.252 . S
C2079 C2073 1.500 . S
C2080 H2042 0.930 . S
C2080 C2056 1.417 . S
C2080 C2081 1.329 . S
C2081 C2051 1.437 . S
C2081 H2052 0.929 . S
C2081 C2080 1.329 . S
H2082 C2055 0.931 . S
C2083 O2065 1.265 . S
C2083 O2066 1.242 . S
C2084 O2069 1.261 . S
C2084 O2070 1.252 . S
C2085 C2088 1.394 . S
C2085 C2090 1.370 . S
C2085 C2091 1.500 . S
C2086 C2089 1.383 . S
C2086 C2090 1.395 . S
C2087 C2088 1.396 . S
C2087 C2089 1.365 . S
C2087 H2096 0.929 . S
C2088 C2085 1.394 . S
C2088 C2087 1.396 . S
C2088 H2097 0.930 . S
C2089 C2086 1.383 . S
C2089 C2087 1.365 . S
C2089 H2098 0.931 . S
C2090 C2085 1.370 . S
C2090 C2086 1.395 . S
C2090 H2099 0.930 . S
C2091 Gd2027 2.805 . S
C2091 O2067 1.263 . S
C2091 O2068 1.252 . S
C2091 C2085 1.500 . S
H2092 C2075 0.929 . S
H2093 C2076 0.930 . S
H2094 C2077 0.931 . S
H2095 C2078 0.930 . S
H2096 C2087 0.929 . S
H2097 C2088 0.930 . S
H2098 C2089 0.931 . S
H2099 C2090 0.930 . S
C2100 C2102 1.422 . S
C2100 C2104 1.415 . S
C2100 N2106 1.369 . S
C2101 C2102 1.421 . S
C2101 C2103 1.417 . S
C2101 C2113 1.422 . S
C2102 C2100 1.422 . S
C2102 C2101 1.421 . S
C2102 N2112 1.359 . S
C2103 C2101 1.417 . S
C2103 C2105 1.329 . S
C2103 H2122 0.930 . S
C2104 C2100 1.415 . S
C2104 C2105 1.437 . S
C2104 C2108 1.413 . S
C2105 C2103 1.329 . S
C2105 C2104 1.437 . S
C2105 H2127 0.929 . S
N2106 C2100 1.369 . S
N2106 C2107 1.338 . S
N2106 Gd2111 2.622 . S
C2107 N2106 1.338 . S
C2107 C2109 1.378 . S
C2107 H2119 0.929 . S
C2108 C2104 1.413 . S
C2108 C2109 1.348 . S
C2108 H2124 0.931 . S
C2109 C2107 1.378 . S
C2109 C2108 1.348 . S
C2109 H2125 0.930 . S
Gd2110 N2130 2.622 . S
Gd2110 N2137 2.570 . S
Gd2110 O2144 2.353 . S
Gd2110 O2145 2.468 . S
Gd2110 O2146 2.427 . S
Gd2110 O2148 2.388 . S
Gd2110 O2149 2.386 . S
Gd2110 O2153 2.307 . S
Gd2110 C2163 2.805 . S
Gd2111 N2106 2.622 . S
Gd2111 N2112 2.570 . S
Gd2111 O2143 2.386 . S
Gd2111 O2147 2.307 . S
Gd2111 O2150 2.353 . S
Gd2111 O2151 2.468 . S
Gd2111 O2152 2.427 . S
Gd2111 O2154 2.388 . S
Gd2111 C2175 2.805 . S
N2112 C2102 1.359 . S
N2112 Gd2111 2.570 . S
N2112 C2114 1.343 . S
C2113 C2101 1.422 . S
C2113 C2115 1.321 . S
C2113 H2121 0.931 . S
C2114 N2112 1.343 . S
C2114 C2115 1.390 . S
C2114 H2116 0.931 . S
C2115 C2113 1.321 . S
C2115 C2114 1.390 . S
C2115 H2117 0.930 . S
H2116 C2114 0.931 . S
H2117 C2115 0.930 . S
H2118 C2141 0.931 . S
H2119 C2107 0.929 . S
H2120 C2142 0.930 . S
H2121 C2113 0.931 . S
H2122 C2103 0.930 . S
H2123 C2132 0.929 . S
H2124 C2108 0.931 . S
H2125 C2109 0.930 . S
H2126 C2164 0.930 . S
H2127 C2105 0.929 . S
H2128 C2133 0.931 . S
H2129 C2134 0.930 . S
N2130 Gd2110 2.622 . S
N2130 C2131 1.369 . S
N2130 C2132 1.338 . S
C2131 N2130 1.369 . S
C2131 C2135 1.415 . S
C2131 C2138 1.422 . S
C2132 H2123 0.929 . S
C2132 N2130 1.338 . S
C2132 C2134 1.378 . S
C2133 H2128 0.931 . S
C2133 C2134 1.348 . S
C2133 C2135 1.413 . S
C2134 H2129 0.930 . S
C2134 C2132 1.378 . S
C2134 C2133 1.348 . S
C2135 C2131 1.415 . S
C2135 C2133 1.413 . S
C2135 C2165 1.437 . S
H2136 C2165 0.929 . S
N2137 Gd2110 2.570 . S
N2137 C2138 1.359 . S
N2137 C2141 1.343 . S
C2138 C2131 1.422 . S
C2138 N2137 1.359 . S
C2138 C2140 1.421 . S
C2139 C2140 1.422 . S
C2139 C2142 1.321 . S
C2139 H2166 0.931 . S
C2140 C2138 1.421 . S
C2140 C2139 1.422 . S
C2140 C2164 1.417 . S
C2141 H2118 0.931 . S
C2141 N2137 1.343 . S
C2141 C2142 1.390 . S
C2142 H2120 0.930 . S
C2142 C2139 1.321 . S
C2142 C2141 1.390 . S
O2143 Gd2111 2.386 . S
O2143 C2155 1.265 . S
O2144 Gd2110 2.353 . S
O2144 C2155 1.242 . S
O2145 Gd2110 2.468 . S
O2145 C2163 1.263 . S
O2146 Gd2110 2.427 . S
O2146 C2163 1.252 . S
O2147 Gd2111 2.307 . S
O2147 C2156 1.261 . S
O2148 Gd2110 2.388 . S
O2148 C2156 1.252 . S
O2149 Gd2110 2.386 . S
O2149 C2167 1.265 . S
O2150 Gd2111 2.353 . S
O2150 C2167 1.242 . S
O2151 Gd2111 2.468 . S
O2151 C2175 1.263 . S
O2152 Gd2111 2.427 . S
O2152 C2175 1.252 . S
O2153 Gd2110 2.307 . S
O2153 C2168 1.261 . S
O2154 Gd2111 2.388 . S
O2154 C2168 1.252 . S
C2155 O2143 1.265 . S
C2155 O2144 1.242 . S
C2156 O2147 1.261 . S
C2156 O2148 1.252 . S
C2157 C2160 1.394 . S
C2157 C2162 1.370 . S
C2157 C2163 1.500 . S
C2158 C2161 1.383 . S
C2158 C2162 1.395 . S
C2159 C2160 1.396 . S
C2159 C2161 1.365 . S
C2159 H2176 0.929 . S
C2160 C2157 1.394 . S
C2160 C2159 1.396 . S
C2160 H2177 0.930 . S
C2161 C2158 1.383 . S
C2161 C2159 1.365 . S
C2161 H2178 0.931 . S
C2162 C2157 1.370 . S
C2162 C2158 1.395 . S
C2162 H2179 0.930 . S
C2163 Gd2110 2.805 . S
C2163 O2145 1.263 . S
C2163 O2146 1.252 . S
C2163 C2157 1.500 . S
C2164 H2126 0.930 . S
C2164 C2140 1.417 . S
C2164 C2165 1.329 . S
C2165 C2135 1.437 . S
C2165 H2136 0.929 . S
C2165 C2164 1.329 . S
H2166 C2139 0.931 . S
C2167 O2149 1.265 . S
C2167 O2150 1.242 . S
C2168 O2153 1.261 . S
C2168 O2154 1.252 . S
C2169 C2172 1.394 . S
C2169 C2174 1.370 . S
C2169 C2175 1.500 . S
C2170 C2173 1.383 . S
C2170 C2174 1.395 . S
C2171 C2172 1.396 . S
C2171 C2173 1.365 . S
C2171 H2180 0.929 . S
C2172 C2169 1.394 . S
C2172 C2171 1.396 . S
C2172 H2181 0.930 . S
C2173 C2170 1.383 . S
C2173 C2171 1.365 . S
C2173 H2182 0.931 . S
C2174 C2169 1.370 . S
C2174 C2170 1.395 . S
C2174 H2183 0.930 . S
C2175 Gd2111 2.805 . S
C2175 O2151 1.263 . S
C2175 O2152 1.252 . S
C2175 C2169 1.500 . S
H2176 C2159 0.929 . S
H2177 C2160 0.930 . S
H2178 C2161 0.931 . S
H2179 C2162 0.930 . S
H2180 C2171 0.929 . S
H2181 C2172 0.930 . S
H2182 C2173 0.931 . S
H2183 C2174 0.930 . S
C2184 C2186 1.422 . S
C2184 C2188 1.415 . S
C2184 N2190 1.369 . S
C2185 C2186 1.421 . S
C2185 C2187 1.417 . S
C2185 C2197 1.422 . S
C2186 C2184 1.422 . S
C2186 C2185 1.421 . S
C2186 N2196 1.359 . S
C2187 C2185 1.417 . S
C2187 C2189 1.329 . S
C2187 H2206 0.930 . S
C2188 C2184 1.415 . S
C2188 C2189 1.437 . S
C2188 C2192 1.413 . S
C2189 C2187 1.329 . S
C2189 C2188 1.437 . S
C2189 H2211 0.929 . S
N2190 C2184 1.369 . S
N2190 C2191 1.338 . S
N2190 Gd2195 2.622 . S
C2191 N2190 1.338 . S
C2191 C2193 1.378 . S
C2191 H2203 0.929 . S
C2192 C2188 1.413 . S
C2192 C2193 1.348 . S
C2192 H2208 0.931 . S
C2193 C2191 1.378 . S
C2193 C2192 1.348 . S
C2193 H2209 0.930 . S
Gd2194 N2214 2.622 . S
Gd2194 N2221 2.570 . S
Gd2194 O2228 2.353 . S
Gd2194 O2229 2.468 . S
Gd2194 O2230 2.427 . S
Gd2194 O2232 2.388 . S
Gd2194 O2233 2.386 . S
Gd2194 O2237 2.307 . S
Gd2194 C2247 2.805 . S
Gd2195 N2190 2.622 . S
Gd2195 N2196 2.570 . S
Gd2195 O2227 2.386 . S
Gd2195 O2231 2.307 . S
Gd2195 O2234 2.353 . S
Gd2195 O2235 2.468 . S
Gd2195 O2236 2.427 . S
Gd2195 O2238 2.388 . S
Gd2195 C2259 2.805 . S
N2196 C2186 1.359 . S
N2196 Gd2195 2.570 . S
N2196 C2198 1.343 . S
C2197 C2185 1.422 . S
C2197 C2199 1.321 . S
C2197 H2205 0.931 . S
C2198 N2196 1.343 . S
C2198 C2199 1.390 . S
C2198 H2200 0.931 . S
C2199 C2197 1.321 . S
C2199 C2198 1.390 . S
C2199 H2201 0.930 . S
H2200 C2198 0.931 . S
H2201 C2199 0.930 . S
H2202 C2225 0.931 . S
H2203 C2191 0.929 . S
H2204 C2226 0.930 . S
H2205 C2197 0.931 . S
H2206 C2187 0.930 . S
H2207 C2216 0.929 . S
H2208 C2192 0.931 . S
H2209 C2193 0.930 . S
H2210 C2248 0.930 . S
H2211 C2189 0.929 . S
H2212 C2217 0.931 . S
H2213 C2218 0.930 . S
N2214 Gd2194 2.622 . S
N2214 C2215 1.369 . S
N2214 C2216 1.338 . S
C2215 N2214 1.369 . S
C2215 C2219 1.415 . S
C2215 C2222 1.422 . S
C2216 H2207 0.929 . S
C2216 N2214 1.338 . S
C2216 C2218 1.378 . S
C2217 H2212 0.931 . S
C2217 C2218 1.348 . S
C2217 C2219 1.413 . S
C2218 H2213 0.930 . S
C2218 C2216 1.378 . S
C2218 C2217 1.348 . S
C2219 C2215 1.415 . S
C2219 C2217 1.413 . S
C2219 C2249 1.437 . S
H2220 C2249 0.929 . S
N2221 Gd2194 2.570 . S
N2221 C2222 1.359 . S
N2221 C2225 1.343 . S
C2222 C2215 1.422 . S
C2222 N2221 1.359 . S
C2222 C2224 1.421 . S
C2223 C2224 1.422 . S
C2223 C2226 1.321 . S
C2223 H2250 0.931 . S
C2224 C2222 1.421 . S
C2224 C2223 1.422 . S
C2224 C2248 1.417 . S
C2225 H2202 0.931 . S
C2225 N2221 1.343 . S
C2225 C2226 1.390 . S
C2226 H2204 0.930 . S
C2226 C2223 1.321 . S
C2226 C2225 1.390 . S
O2227 Gd2195 2.386 . S
O2227 C2239 1.265 . S
O2228 Gd2194 2.353 . S
O2228 C2239 1.242 . S
O2229 Gd2194 2.468 . S
O2229 C2247 1.263 . S
O2230 Gd2194 2.427 . S
O2230 C2247 1.252 . S
O2231 Gd2195 2.307 . S
O2231 C2240 1.261 . S
O2232 Gd2194 2.388 . S
O2232 C2240 1.252 . S
O2233 Gd2194 2.386 . S
O2233 C2251 1.265 . S
O2234 Gd2195 2.353 . S
O2234 C2251 1.242 . S
O2235 Gd2195 2.468 . S
O2235 C2259 1.263 . S
O2236 Gd2195 2.427 . S
O2236 C2259 1.252 . S
O2237 Gd2194 2.307 . S
O2237 C2252 1.261 . S
O2238 Gd2195 2.388 . S
O2238 C2252 1.252 . S
C2239 O2227 1.265 . S
C2239 O2228 1.242 . S
C2240 O2231 1.261 . S
C2240 O2232 1.252 . S
C2241 C2244 1.394 . S
C2241 C2246 1.370 . S
C2241 C2247 1.500 . S
C2242 C2245 1.383 . S
C2242 C2246 1.395 . S
C2243 C2244 1.396 . S
C2243 C2245 1.365 . S
C2243 H2260 0.929 . S
C2244 C2241 1.394 . S
C2244 C2243 1.396 . S
C2244 H2261 0.930 . S
C2245 C2242 1.383 . S
C2245 C2243 1.365 . S
C2245 H2262 0.931 . S
C2246 C2241 1.370 . S
C2246 C2242 1.395 . S
C2246 H2263 0.930 . S
C2247 Gd2194 2.805 . S
C2247 O2229 1.263 . S
C2247 O2230 1.252 . S
C2247 C2241 1.500 . S
C2248 H2210 0.930 . S
C2248 C2224 1.417 . S
C2248 C2249 1.329 . S
C2249 C2219 1.437 . S
C2249 H2220 0.929 . S
C2249 C2248 1.329 . S
H2250 C2223 0.931 . S
C2251 O2233 1.265 . S
C2251 O2234 1.242 . S
C2252 O2237 1.261 . S
C2252 O2238 1.252 . S
C2253 C2256 1.394 . S
C2253 C2258 1.370 . S
C2253 C2259 1.500 . S
C2254 C2257 1.383 . S
C2254 C2258 1.395 . S
C2255 C2256 1.396 . S
C2255 C2257 1.365 . S
C2255 H2264 0.929 . S
C2256 C2253 1.394 . S
C2256 C2255 1.396 . S
C2256 H2265 0.930 . S
C2257 C2254 1.383 . S
C2257 C2255 1.365 . S
C2257 H2266 0.931 . S
C2258 C2253 1.370 . S
C2258 C2254 1.395 . S
C2258 H2267 0.930 . S
C2259 Gd2195 2.805 . S
C2259 O2235 1.263 . S
C2259 O2236 1.252 . S
C2259 C2253 1.500 . S
H2260 C2243 0.929 . S
H2261 C2244 0.930 . S
H2262 C2245 0.931 . S
H2263 C2246 0.930 . S
H2264 C2255 0.929 . S
H2265 C2256 0.930 . S
H2266 C2257 0.931 . S
H2267 C2258 0.930 . S
C2268 C2270 1.422 . S
C2268 C2272 1.415 . S
C2268 N2274 1.369 . S
C2269 C2270 1.421 . S
C2269 C2271 1.417 . S
C2269 C2281 1.422 . S
C2270 C2268 1.422 . S
C2270 C2269 1.421 . S
C2270 N2280 1.359 . S
C2271 C2269 1.417 . S
C2271 C2273 1.292 1_565 S
C2271 H2290 0.930 . S
C2272 C2268 1.415 . S
C2272 C2273 1.431 1_565 S
C2272 C2276 1.413 1_565 S
C2273 C2271 1.292 1_545 S
C2273 C2272 1.431 1_545 S
C2273 H2295 0.975 . S
N2274 C2268 1.369 . S
N2274 C2275 1.338 . S
N2274 Gd2279 2.622 . S
C2275 N2274 1.338 . S
C2275 C2277 1.378 . S
C2275 H2287 0.929 . S
C2276 C2272 1.413 1_545 S
C2276 C2277 1.348 1_545 S
C2276 H2292 0.931 . S
C2277 C2275 1.378 . S
C2277 C2276 1.348 1_565 S
C2277 H2293 0.930 1_565 S
Gd2278 N2298 2.622 . S
Gd2278 N2305 2.570 . S
Gd2278 O2312 2.353 . S
Gd2278 O2313 2.468 . S
Gd2278 O2314 2.427 . S
Gd2278 O2316 2.388 . S
Gd2278 O2317 2.386 . S
Gd2278 O2321 2.307 . S
Gd2278 C2331 2.805 . S
Gd2279 N2274 2.622 . S
Gd2279 N2280 2.570 . S
Gd2279 O2311 2.386 . S
Gd2279 O2315 2.307 . S
Gd2279 O2318 2.353 . S
Gd2279 O2319 2.468 . S
Gd2279 O2320 2.427 . S
Gd2279 O2322 2.388 . S
Gd2279 C2343 2.805 . S
N2280 C2270 1.359 . S
N2280 Gd2279 2.570 . S
N2280 C2282 1.343 . S
C2281 C2269 1.422 . S
C2281 C2283 1.321 . S
C2281 H2289 0.931 . S
C2282 N2280 1.343 . S
C2282 C2283 1.390 . S
C2282 H2284 0.931 . S
C2283 C2281 1.321 . S
C2283 C2282 1.390 . S
C2283 H2285 0.930 . S
H2284 C2282 0.931 . S
H2285 C2283 0.930 . S
H2286 C2309 0.931 . S
H2287 C2275 0.929 . S
H2288 C2310 0.930 1_556 S
H2289 C2281 0.931 . S
H2290 C2271 0.930 . S
H2291 C2300 0.929 . S
H2292 C2276 0.931 . S
H2293 C2277 0.930 1_545 S
H2294 C2332 0.930 1_556 S
H2295 C2273 0.975 . S
H2296 C2301 0.931 . S
H2297 C2302 0.930 . S
N2298 Gd2278 2.622 . S
N2298 C2299 1.369 . S
N2298 C2300 1.338 . S
C2299 N2298 1.369 . S
C2299 C2303 1.415 . S
C2299 C2306 1.422 . S
C2300 H2291 0.929 . S
C2300 N2298 1.338 . S
C2300 C2302 1.378 . S
C2301 H2296 0.931 . S
C2301 C2302 1.348 . S
C2301 C2303 1.413 . S
C2302 H2297 0.930 . S
C2302 C2300 1.378 . S
C2302 C2301 1.348 . S
C2303 C2299 1.415 . S
C2303 C2301 1.413 . S
C2303 C2333 1.437 . S
H2304 C2333 0.929 . S
N2305 Gd2278 2.570 . S
N2305 C2306 1.359 . S
N2305 C2309 1.343 . S
C2306 C2299 1.422 . S
C2306 N2305 1.359 . S
C2306 C2308 1.421 . S
C2307 C2308 1.422 . S
C2307 C2310 1.321 . S
C2307 H2334 0.931 1_554 S
C2308 C2306 1.421 . S
C2308 C2307 1.422 . S
C2308 C2332 1.417 . S
C2309 H2286 0.931 . S
C2309 N2305 1.343 . S
C2309 C2310 1.390 . S
C2310 H2288 0.930 1_554 S
C2310 C2307 1.321 . S
C2310 C2309 1.390 . S
O2311 Gd2279 2.386 . S
O2311 C2323 1.265 . S
O2312 Gd2278 2.353 . S
O2312 C2323 1.242 . S
O2313 Gd2278 2.468 . S
O2313 C2331 1.263 . S
O2314 Gd2278 2.427 . S
O2314 C2331 1.252 . S
O2315 Gd2279 2.307 . S
O2315 C2324 1.261 . S
O2316 Gd2278 2.388 . S
O2316 C2324 1.252 . S
O2317 Gd2278 2.386 . S
O2317 C2335 1.265 . S
O2318 Gd2279 2.353 . S
O2318 C2335 1.242 . S
O2319 Gd2279 2.468 . S
O2319 C2343 1.263 . S
O2320 Gd2279 2.427 . S
O2320 C2343 1.252 . S
O2321 Gd2278 2.307 . S
O2321 C2336 1.261 . S
O2322 Gd2279 2.388 . S
O2322 C2336 1.252 . S
C2323 O2311 1.265 . S
C2323 O2312 1.242 . S
C2324 O2315 1.261 . S
C2324 O2316 1.252 . S
C2325 C2328 1.394 . S
C2325 C2330 1.370 . S
C2325 C2331 1.500 . S
C2326 C2329 1.383 . S
C2326 C2330 1.395 . S
C2327 C2328 1.396 . S
C2327 C2329 1.365 . S
C2327 H2344 0.929 . S
C2328 C2325 1.394 . S
C2328 C2327 1.396 . S
C2328 H2345 0.930 . S
C2329 C2326 1.383 . S
C2329 C2327 1.365 . S
C2329 H2346 0.931 . S
C2330 C2325 1.370 . S
C2330 C2326 1.395 . S
C2330 H2347 0.930 . S
C2331 Gd2278 2.805 . S
C2331 O2313 1.263 . S
C2331 O2314 1.252 . S
C2331 C2325 1.500 . S
C2332 H2294 0.930 1_554 S
C2332 C2308 1.417 . S
C2332 C2333 1.329 . S
C2333 C2303 1.437 . S
C2333 H2304 0.929 . S
C2333 C2332 1.329 . S
H2334 C2307 0.931 1_556 S
C2335 O2317 1.265 . S
C2335 O2318 1.242 . S
C2336 O2321 1.261 . S
C2336 O2322 1.252 . S
C2337 C2340 1.394 . S
C2337 C2342 1.370 . S
C2337 C2343 1.500 . S
C2338 C2341 1.383 . S
C2338 C2342 1.395 . S
C2339 C2340 1.396 . S
C2339 C2341 1.365 . S
C2339 H2348 0.929 . S
C2340 C2337 1.394 . S
C2340 C2339 1.396 . S
C2340 H2349 0.930 . S
C2341 C2338 1.383 . S
C2341 C2339 1.365 . S
C2341 H2350 0.931 . S
C2342 C2337 1.370 . S
C2342 C2338 1.395 . S
C2342 H2351 0.930 . S
C2343 Gd2279 2.805 . S
C2343 O2319 1.263 . S
C2343 O2320 1.252 . S
C2343 C2337 1.500 . S
H2344 C2327 0.929 . S
H2345 C2328 0.930 . S
H2346 C2329 0.931 . S
H2347 C2330 0.930 . S
H2348 C2339 0.929 . S
H2349 C2340 0.930 . S
H2350 C2341 0.931 . S
H2351 C2342 0.930 . S
C2352 C2354 1.422 . S
C2352 C2356 1.415 . S
C2352 N2358 1.369 . S
C2353 C2354 1.421 . S
C2353 C2355 1.417 . S
C2353 C2365 1.422 . S
C2354 C2352 1.422 . S
C2354 C2353 1.421 . S
C2354 N2364 1.359 . S
C2355 C2353 1.417 . S
C2355 C2357 1.320 1_455 S
C2355 H2374 0.930 . S
C2356 C2352 1.415 . S
C2356 C2357 1.414 1_455 S
C2356 C2360 1.413 1_455 S
C2357 C2355 1.320 1_655 S
C2357 C2356 1.414 1_655 S
C2357 H2379 0.964 . S
N2358 C2352 1.369 . S
N2358 C2359 1.338 . S
N2358 Gd2363 2.622 . S
C2359 N2358 1.338 . S
C2359 C2361 1.378 . S
C2359 H2371 0.929 . S
C2360 C2356 1.413 1_655 S
C2360 C2361 1.348 1_655 S
C2360 H2376 0.931 . S
C2361 C2359 1.378 . S
C2361 C2360 1.348 1_455 S
C2361 H2377 0.930 1_455 S
Gd2362 N2382 2.622 . S
Gd2362 N2389 2.570 . S
Gd2362 O2396 2.353 . S
Gd2362 O2397 2.468 . S
Gd2362 O2398 2.427 . S
Gd2362 O2400 2.388 . S
Gd2362 O2401 2.386 . S
Gd2362 O2405 2.307 . S
Gd2362 C2415 2.805 . S
Gd2363 N2358 2.622 . S
Gd2363 N2364 2.570 . S
Gd2363 O2395 2.386 . S
Gd2363 O2399 2.307 . S
Gd2363 O2402 2.353 . S
Gd2363 O2403 2.468 . S
Gd2363 O2404 2.427 . S
Gd2363 O2406 2.388 . S
Gd2363 C2427 2.805 . S
N2364 C2354 1.359 . S
N2364 Gd2363 2.570 . S
N2364 C2366 1.343 . S
C2365 C2353 1.422 . S
C2365 C2367 1.321 . S
C2365 H2373 0.931 . S
C2366 N2364 1.343 . S
C2366 C2367 1.390 . S
C2366 H2368 0.931 . S
C2367 C2365 1.321 . S
C2367 C2366 1.390 . S
C2367 H2369 0.930 . S
H2368 C2366 0.931 . S
H2369 C2367 0.930 . S
H2370 C2393 0.931 . S
H2371 C2359 0.929 . S
H2372 C2394 0.930 1_556 S
H2373 C2365 0.931 . S
H2374 C2355 0.930 . S
H2375 C2384 0.929 . S
H2376 C2360 0.931 . S
H2377 C2361 0.930 1_655 S
H2378 C2416 0.930 1_556 S
H2379 C2357 0.964 . S
H2380 C2385 0.931 . S
H2381 C2386 0.930 . S
N2382 Gd2362 2.622 . S
N2382 C2383 1.369 . S
N2382 C2384 1.338 . S
C2383 N2382 1.369 . S
C2383 C2387 1.415 . S
C2383 C2390 1.422 . S
C2384 H2375 0.929 . S
C2384 N2382 1.338 . S
C2384 C2386 1.378 . S
C2385 H2380 0.931 . S
C2385 C2386 1.348 . S
C2385 C2387 1.413 . S
C2386 H2381 0.930 . S
C2386 C2384 1.378 . S
C2386 C2385 1.348 . S
C2387 C2383 1.415 . S
C2387 C2385 1.413 . S
C2387 C2417 1.437 . S
H2388 C2417 0.929 . S
N2389 Gd2362 2.570 . S
N2389 C2390 1.359 . S
N2389 C2393 1.343 . S
C2390 C2383 1.422 . S
C2390 N2389 1.359 . S
C2390 C2392 1.421 . S
C2391 C2392 1.422 . S
C2391 C2394 1.321 . S
C2391 H2418 0.931 1_554 S
C2392 C2390 1.421 . S
C2392 C2391 1.422 . S
C2392 C2416 1.417 . S
C2393 H2370 0.931 . S
C2393 N2389 1.343 . S
C2393 C2394 1.390 . S
C2394 H2372 0.930 1_554 S
C2394 C2391 1.321 . S
C2394 C2393 1.390 . S
O2395 Gd2363 2.386 . S
O2395 C2407 1.265 . S
O2396 Gd2362 2.353 . S
O2396 C2407 1.242 . S
O2397 Gd2362 2.468 . S
O2397 C2415 1.263 . S
O2398 Gd2362 2.427 . S
O2398 C2415 1.252 . S
O2399 Gd2363 2.307 . S
O2399 C2408 1.261 . S
O2400 Gd2362 2.388 . S
O2400 C2408 1.252 . S
O2401 Gd2362 2.386 . S
O2401 C2419 1.265 . S
O2402 Gd2363 2.353 . S
O2402 C2419 1.242 . S
O2403 Gd2363 2.468 . S
O2403 C2427 1.263 . S
O2404 Gd2363 2.427 . S
O2404 C2427 1.252 . S
O2405 Gd2362 2.307 . S
O2405 C2420 1.261 . S
O2406 Gd2363 2.388 . S
O2406 C2420 1.252 . S
C2407 O2395 1.265 . S
C2407 O2396 1.242 . S
C2408 O2399 1.261 . S
C2408 O2400 1.252 . S
C2409 C2412 1.394 . S
C2409 C2414 1.370 . S
C2409 C2415 1.500 . S
C2410 C2413 1.383 . S
C2410 C2414 1.395 . S
C2411 C2412 1.396 . S
C2411 C2413 1.365 . S
C2411 H2428 0.929 . S
C2412 C2409 1.394 . S
C2412 C2411 1.396 . S
C2412 H2429 0.930 . S
C2413 C2410 1.383 . S
C2413 C2411 1.365 . S
C2413 H2430 0.931 . S
C2414 C2409 1.370 . S
C2414 C2410 1.395 . S
C2414 H2431 0.930 . S
C2415 Gd2362 2.805 . S
C2415 O2397 1.263 . S
C2415 O2398 1.252 . S
C2415 C2409 1.500 . S
C2416 H2378 0.930 1_554 S
C2416 C2392 1.417 . S
C2416 C2417 1.329 . S
C2417 C2387 1.437 . S
C2417 H2388 0.929 . S
C2417 C2416 1.329 . S
H2418 C2391 0.931 1_556 S
C2419 O2401 1.265 . S
C2419 O2402 1.242 . S
C2420 O2405 1.261 . S
C2420 O2406 1.252 . S
C2421 C2424 1.394 . S
C2421 C2426 1.370 . S
C2421 C2427 1.500 . S
C2422 C2425 1.383 . S
C2422 C2426 1.395 . S
C2423 C2424 1.396 . S
C2423 C2425 1.365 . S
C2423 H2432 0.929 . S
C2424 C2421 1.394 . S
C2424 C2423 1.396 . S
C2424 H2433 0.930 . S
C2425 C2422 1.383 . S
C2425 C2423 1.365 . S
C2425 H2434 0.931 . S
C2426 C2421 1.370 . S
C2426 C2422 1.395 . S
C2426 H2435 0.930 . S
C2427 Gd2363 2.805 . S
C2427 O2403 1.263 . S
C2427 O2404 1.252 . S
C2427 C2421 1.500 . S
H2428 C2411 0.929 . S
H2429 C2412 0.930 . S
H2430 C2413 0.931 . S
H2431 C2414 0.930 . S
H2432 C2423 0.929 . S
H2433 C2424 0.930 . S
H2434 C2425 0.931 . S
H2435 C2426 0.930 . S
C2436 C2438 1.422 . S
C2436 C2440 1.415 . S
C2436 N2442 1.369 . S
C2437 C2438 1.421 . S
C2437 C2439 1.417 . S
C2437 C2449 1.422 . S
C2438 C2436 1.422 . S
C2438 C2437 1.421 . S
C2438 N2448 1.359 . S
C2439 C2437 1.417 . S
C2439 C2441 1.329 . S
C2439 H2458 0.930 . S
C2440 C2436 1.415 . S
C2440 C2441 1.437 . S
C2440 C2444 1.413 . S
C2441 C2439 1.329 . S
C2441 C2440 1.437 . S
C2441 H2463 0.929 . S
N2442 C2436 1.369 . S
N2442 C2443 1.338 . S
N2442 Gd2447 2.622 . S
C2443 N2442 1.338 . S
C2443 C2445 1.378 . S
C2443 H2455 0.929 . S
C2444 C2440 1.413 . S
C2444 C2445 1.348 . S
C2444 H2460 0.931 . S
C2445 C2443 1.378 . S
C2445 C2444 1.348 . S
C2445 H2461 0.930 . S
Gd2446 N2466 2.622 . S
Gd2446 N2473 2.570 . S
Gd2446 O2480 2.353 . S
Gd2446 O2481 2.468 . S
Gd2446 O2482 2.427 . S
Gd2446 O2484 2.388 . S
Gd2446 O2485 2.386 . S
Gd2446 O2489 2.307 . S
Gd2446 C2499 2.805 . S
Gd2447 N2442 2.622 . S
Gd2447 N2448 2.570 . S
Gd2447 O2479 2.386 . S
Gd2447 O2483 2.307 . S
Gd2447 O2486 2.353 . S
Gd2447 O2487 2.468 . S
Gd2447 O2488 2.427 . S
Gd2447 O2490 2.388 . S
Gd2447 C2511 2.805 . S
N2448 C2438 1.359 . S
N2448 Gd2447 2.570 . S
N2448 C2450 1.343 . S
C2449 C2437 1.422 . S
C2449 C2451 1.321 . S
C2449 H2457 0.931 . S
C2450 N2448 1.343 . S
C2450 C2451 1.390 . S
C2450 H2452 0.931 . S
C2451 C2449 1.321 . S
C2451 C2450 1.390 . S
C2451 H2453 0.930 . S
H2452 C2450 0.931 . S
H2453 C2451 0.930 . S
H2454 C2477 0.931 . S
H2455 C2443 0.929 . S
H2456 C2478 0.930 1_556 S
H2457 C2449 0.931 . S
H2458 C2439 0.930 . S
H2459 C2468 0.929 . S
H2460 C2444 0.931 . S
H2461 C2445 0.930 . S
H2462 C2500 0.930 1_556 S
H2463 C2441 0.929 . S
H2464 C2469 0.931 . S
H2465 C2470 0.930 . S
N2466 Gd2446 2.622 . S
N2466 C2467 1.369 . S
N2466 C2468 1.338 . S
C2467 N2466 1.369 . S
C2467 C2471 1.415 . S
C2467 C2474 1.422 . S
C2468 H2459 0.929 . S
C2468 N2466 1.338 . S
C2468 C2470 1.378 . S
C2469 H2464 0.931 . S
C2469 C2470 1.348 . S
C2469 C2471 1.413 . S
C2470 H2465 0.930 . S
C2470 C2468 1.378 . S
C2470 C2469 1.348 . S
C2471 C2467 1.415 . S
C2471 C2469 1.413 . S
C2471 C2501 1.437 . S
H2472 C2501 0.929 . S
N2473 Gd2446 2.570 . S
N2473 C2474 1.359 . S
N2473 C2477 1.343 . S
C2474 C2467 1.422 . S
C2474 N2473 1.359 . S
C2474 C2476 1.421 . S
C2475 C2476 1.422 . S
C2475 C2478 1.321 . S
C2475 H2502 0.931 1_554 S
C2476 C2474 1.421 . S
C2476 C2475 1.422 . S
C2476 C2500 1.417 . S
C2477 H2454 0.931 . S
C2477 N2473 1.343 . S
C2477 C2478 1.390 . S
C2478 H2456 0.930 1_554 S
C2478 C2475 1.321 . S
C2478 C2477 1.390 . S
O2479 Gd2447 2.386 . S
O2479 C2491 1.265 . S
O2480 Gd2446 2.353 . S
O2480 C2491 1.242 . S
O2481 Gd2446 2.468 . S
O2481 C2499 1.263 . S
O2482 Gd2446 2.427 . S
O2482 C2499 1.252 . S
O2483 Gd2447 2.307 . S
O2483 C2492 1.261 . S
O2484 Gd2446 2.388 . S
O2484 C2492 1.252 . S
O2485 Gd2446 2.386 . S
O2485 C2503 1.265 . S
O2486 Gd2447 2.353 . S
O2486 C2503 1.242 . S
O2487 Gd2447 2.468 . S
O2487 C2511 1.263 . S
O2488 Gd2447 2.427 . S
O2488 C2511 1.252 . S
O2489 Gd2446 2.307 . S
O2489 C2504 1.261 . S
O2490 Gd2447 2.388 . S
O2490 C2504 1.252 . S
C2491 O2479 1.265 . S
C2491 O2480 1.242 . S
C2492 O2483 1.261 . S
C2492 O2484 1.252 . S
C2493 C2496 1.394 . S
C2493 C2498 1.370 . S
C2493 C2499 1.500 . S
C2494 C2497 1.383 . S
C2494 C2498 1.395 . S
C2495 C2496 1.396 . S
C2495 C2497 1.365 . S
C2495 H2512 0.929 . S
C2496 C2493 1.394 . S
C2496 C2495 1.396 . S
C2496 H2513 0.930 . S
C2497 C2494 1.383 . S
C2497 C2495 1.365 . S
C2497 H2514 0.931 . S
C2498 C2493 1.370 . S
C2498 C2494 1.395 . S
C2498 H2515 0.930 . S
C2499 Gd2446 2.805 . S
C2499 O2481 1.263 . S
C2499 O2482 1.252 . S
C2499 C2493 1.500 . S
C2500 H2462 0.930 1_554 S
C2500 C2476 1.417 . S
C2500 C2501 1.329 . S
C2501 C2471 1.437 . S
C2501 H2472 0.929 . S
C2501 C2500 1.329 . S
H2502 C2475 0.931 1_556 S
C2503 O2485 1.265 . S
C2503 O2486 1.242 . S
C2504 O2489 1.261 . S
C2504 O2490 1.252 . S
C2505 C2508 1.394 . S
C2505 C2510 1.370 . S
C2505 C2511 1.500 . S
C2506 C2509 1.383 . S
C2506 C2510 1.395 . S
C2507 C2508 1.396 . S
C2507 C2509 1.365 . S
C2507 H2516 0.929 . S
C2508 C2505 1.394 . S
C2508 C2507 1.396 . S
C2508 H2517 0.930 . S
C2509 C2506 1.383 . S
C2509 C2507 1.365 . S
C2509 H2518 0.931 . S
C2510 C2505 1.370 . S
C2510 C2506 1.395 . S
C2510 H2519 0.930 . S
C2511 Gd2447 2.805 . S
C2511 O2487 1.263 . S
C2511 O2488 1.252 . S
C2511 C2505 1.500 . S
H2512 C2495 0.929 . S
H2513 C2496 0.930 . S
H2514 C2497 0.931 . S
H2515 C2498 0.930 . S
H2516 C2507 0.929 . S
H2517 C2508 0.930 . S
H2518 C2509 0.931 . S
H2519 C2510 0.930 . S
C2520 C2522 1.422 . S
C2520 C2524 1.373 1_455 S
C2520 N2526 1.369 . S
C2521 C2522 1.421 . S
C2521 C2523 1.417 1_455 S
C2521 C2533 1.422 . S
C2522 C2520 1.422 . S
C2522 C2521 1.421 . S
C2522 N2532 1.359 . S
C2523 C2521 1.417 1_655 S
C2523 C2525 1.329 . S
C2523 H2542 0.930 . S
C2524 C2520 1.373 1_655 S
C2524 C2525 1.464 . S
C2524 C2528 1.428 . S
C2525 C2523 1.329 . S
C2525 C2524 1.464 . S
C2525 H2547 0.929 . S
N2526 C2520 1.369 . S
N2526 C2527 1.338 . S
N2526 Gd2531 2.622 . S
C2527 N2526 1.338 . S
C2527 C2529 1.378 . S
C2527 H2539 0.929 . S
C2528 C2524 1.428 . S
C2528 C2529 1.348 1_655 S
C2528 H2544 0.931 . S
C2529 C2527 1.378 . S
C2529 C2528 1.348 1_455 S
C2529 H2545 0.930 . S
Gd2530 N2550 2.622 . S
Gd2530 N2557 2.570 . S
Gd2530 O2564 2.353 . S
Gd2530 O2565 2.468 . S
Gd2530 O2566 2.427 . S
Gd2530 O2568 2.388 . S
Gd2530 O2569 2.386 . S
Gd2530 O2573 2.307 . S
Gd2530 C2583 2.805 . S
Gd2531 N2526 2.622 . S
Gd2531 N2532 2.570 . S
Gd2531 O2563 2.386 . S
Gd2531 O2567 2.307 . S
Gd2531 O2570 2.353 . S
Gd2531 O2571 2.468 . S
Gd2531 O2572 2.427 . S
Gd2531 O2574 2.388 . S
Gd2531 C2595 2.805 . S
N2532 C2522 1.359 . S
N2532 Gd2531 2.570 . S
N2532 C2534 1.343 . S
C2533 C2521 1.422 . S
C2533 C2535 1.321 . S
C2533 H2541 0.931 . S
C2534 N2532 1.343 . S
C2534 C2535 1.390 . S
C2534 H2536 0.931 . S
C2535 C2533 1.321 . S
C2535 C2534 1.390 . S
C2535 H2537 0.930 . S
H2536 C2534 0.931 . S
H2537 C2535 0.930 . S
H2538 C2561 0.931 . S
H2539 C2527 0.929 . S
H2540 C2562 0.930 . S
H2541 C2533 0.931 . S
H2542 C2523 0.930 . S
H2543 C2552 0.929 . S
H2544 C2528 0.931 . S
H2545 C2529 0.930 . S
H2546 C2584 0.930 . S
H2547 C2525 0.929 . S
H2548 C2553 0.931 . S
H2549 C2554 0.930 . S
N2550 Gd2530 2.622 . S
N2550 C2551 1.369 . S
N2550 C2552 1.338 . S
C2551 N2550 1.369 . S
C2551 C2555 1.415 . S
C2551 C2558 1.422 . S
C2552 H2543 0.929 . S
C2552 N2550 1.338 . S
C2552 C2554 1.378 . S
C2553 H2548 0.931 . S
C2553 C2554 1.348 . S
C2553 C2555 1.413 . S
C2554 H2549 0.930 . S
C2554 C2552 1.378 . S
C2554 C2553 1.348 . S
C2555 C2551 1.415 . S
C2555 C2553 1.413 . S
C2555 C2585 1.437 . S
H2556 C2585 0.929 . S
N2557 Gd2530 2.570 . S
N2557 C2558 1.359 . S
N2557 C2561 1.343 . S
C2558 C2551 1.422 . S
C2558 N2557 1.359 . S
C2558 C2560 1.421 . S
C2559 C2560 1.422 . S
C2559 C2562 1.321 . S
C2559 H2586 0.931 . S
C2560 C2558 1.421 . S
C2560 C2559 1.422 . S
C2560 C2584 1.417 . S
C2561 H2538 0.931 . S
C2561 N2557 1.343 . S
C2561 C2562 1.390 . S
C2562 H2540 0.930 . S
C2562 C2559 1.321 . S
C2562 C2561 1.390 . S
O2563 Gd2531 2.386 . S
O2563 C2575 1.265 . S
O2564 Gd2530 2.353 . S
O2564 C2575 1.242 . S
O2565 Gd2530 2.468 . S
O2565 C2583 1.263 . S
O2566 Gd2530 2.427 . S
O2566 C2583 1.252 . S
O2567 Gd2531 2.307 . S
O2567 C2576 1.261 . S
O2568 Gd2530 2.388 . S
O2568 C2576 1.252 . S
O2569 Gd2530 2.386 . S
O2569 C2587 1.265 . S
O2570 Gd2531 2.353 . S
O2570 C2587 1.242 . S
O2571 Gd2531 2.468 . S
O2571 C2595 1.263 . S
O2572 Gd2531 2.427 . S
O2572 C2595 1.252 . S
O2573 Gd2530 2.307 . S
O2573 C2588 1.261 . S
O2574 Gd2531 2.388 . S
O2574 C2588 1.252 . S
C2575 O2563 1.265 . S
C2575 O2564 1.242 . S
C2576 O2567 1.261 . S
C2576 O2568 1.252 . S
C2577 C2580 1.394 . S
C2577 C2582 1.370 . S
C2577 C2583 1.500 . S
C2578 C2581 1.383 . S
C2578 C2582 1.395 . S
C2579 C2580 1.396 . S
C2579 C2581 1.365 . S
C2579 H2596 0.929 . S
C2580 C2577 1.394 . S
C2580 C2579 1.396 . S
C2580 H2597 0.930 . S
C2581 C2578 1.383 . S
C2581 C2579 1.365 . S
C2581 H2598 0.931 . S
C2582 C2577 1.370 . S
C2582 C2578 1.395 . S
C2582 H2599 0.930 . S
C2583 Gd2530 2.805 . S
C2583 O2565 1.263 . S
C2583 O2566 1.252 . S
C2583 C2577 1.500 . S
C2584 H2546 0.930 . S
C2584 C2560 1.417 . S
C2584 C2585 1.329 . S
C2585 C2555 1.437 . S
C2585 H2556 0.929 . S
C2585 C2584 1.329 . S
H2586 C2559 0.931 . S
C2587 O2569 1.265 . S
C2587 O2570 1.242 . S
C2588 O2573 1.261 . S
C2588 O2574 1.252 . S
C2589 C2592 1.394 . S
C2589 C2594 1.370 . S
C2589 C2595 1.500 . S
C2590 C2593 1.383 . S
C2590 C2594 1.395 . S
C2591 C2592 1.396 . S
C2591 C2593 1.365 . S
C2591 H2600 0.929 . S
C2592 C2589 1.394 . S
C2592 C2591 1.396 . S
C2592 H2601 0.930 . S
C2593 C2590 1.383 . S
C2593 C2591 1.365 . S
C2593 H2602 0.931 . S
C2594 C2589 1.370 . S
C2594 C2590 1.395 . S
C2594 H2603 0.930 . S
C2595 Gd2531 2.805 . S
C2595 O2571 1.263 . S
C2595 O2572 1.252 . S
C2595 C2589 1.500 . S
H2596 C2579 0.929 . S
H2597 C2580 0.930 . S
H2598 C2581 0.931 . S
H2599 C2582 0.930 . S
H2600 C2591 0.929 . S
H2601 C2592 0.930 . S
H2602 C2593 0.931 . S
H2603 C2594 0.930 . S
C2604 C2606 1.422 . S
C2604 C2608 1.415 . S
C2604 N2610 1.369 . S
C2605 C2606 1.421 . S
C2605 C2607 1.417 . S
C2605 C2617 1.422 . S
C2606 C2604 1.422 . S
C2606 C2605 1.421 . S
C2606 N2616 1.359 . S
C2607 C2605 1.417 . S
C2607 C2609 1.329 . S
C2607 H2626 0.930 . S
C2608 C2604 1.415 . S
C2608 C2609 1.437 . S
C2608 C2612 1.413 . S
C2609 C2607 1.329 . S
C2609 C2608 1.437 . S
C2609 H2631 0.929 . S
N2610 C2604 1.369 . S
N2610 C2611 1.338 . S
N2610 Gd2615 2.622 . S
C2611 N2610 1.338 . S
C2611 C2613 1.378 . S
C2611 H2623 0.929 . S
C2612 C2608 1.413 . S
C2612 C2613 1.348 . S
C2612 H2628 0.931 . S
C2613 C2611 1.378 . S
C2613 C2612 1.348 . S
C2613 H2629 0.930 . S
Gd2614 N2634 2.622 . S
Gd2614 N2641 2.570 . S
Gd2614 O2648 2.353 . S
Gd2614 O2649 2.468 . S
Gd2614 O2650 2.427 . S
Gd2614 O2652 2.388 . S
Gd2614 O2653 2.386 . S
Gd2614 O2657 2.307 . S
Gd2614 C2667 2.805 . S
Gd2615 N2610 2.622 . S
Gd2615 N2616 2.570 . S
Gd2615 O2647 2.386 . S
Gd2615 O2651 2.307 . S
Gd2615 O2654 2.353 . S
Gd2615 O2655 2.468 . S
Gd2615 O2656 2.427 . S
Gd2615 O2658 2.388 . S
Gd2615 C2679 2.805 . S
N2616 C2606 1.359 . S
N2616 Gd2615 2.570 . S
N2616 C2618 1.343 . S
C2617 C2605 1.422 . S
C2617 C2619 1.321 . S
C2617 H2625 0.931 . S
C2618 N2616 1.343 . S
C2618 C2619 1.390 . S
C2618 H2620 0.931 . S
C2619 C2617 1.321 . S
C2619 C2618 1.390 . S
C2619 H2621 0.930 . S
H2620 C2618 0.931 . S
H2621 C2619 0.930 . S
H2622 C2645 0.931 . S
H2623 C2611 0.929 . S
H2624 C2646 0.930 . S
H2625 C2617 0.931 . S
H2626 C2607 0.930 . S
H2627 C2636 0.929 . S
H2628 C2612 0.931 . S
H2629 C2613 0.930 . S
H2630 C2668 0.930 . S
H2631 C2609 0.929 . S
H2632 C2637 0.931 . S
H2633 C2638 0.930 . S
N2634 Gd2614 2.622 . S
N2634 C2635 1.369 . S
N2634 C2636 1.338 . S
C2635 N2634 1.369 . S
C2635 C2639 1.415 . S
C2635 C2642 1.422 . S
C2636 H2627 0.929 . S
C2636 N2634 1.338 . S
C2636 C2638 1.378 . S
C2637 H2632 0.931 . S
C2637 C2638 1.348 . S
C2637 C2639 1.413 . S
C2638 H2633 0.930 . S
C2638 C2636 1.378 . S
C2638 C2637 1.348 . S
C2639 C2635 1.415 . S
C2639 C2637 1.413 . S
C2639 C2669 1.437 . S
H2640 C2669 0.929 . S
N2641 Gd2614 2.570 . S
N2641 C2642 1.359 . S
N2641 C2645 1.343 . S
C2642 C2635 1.422 . S
C2642 N2641 1.359 . S
C2642 C2644 1.421 . S
C2643 C2644 1.422 . S
C2643 C2646 1.321 . S
C2643 H2670 0.931 . S
C2644 C2642 1.421 . S
C2644 C2643 1.422 . S
C2644 C2668 1.417 . S
C2645 H2622 0.931 . S
C2645 N2641 1.343 . S
C2645 C2646 1.390 . S
C2646 H2624 0.930 . S
C2646 C2643 1.321 . S
C2646 C2645 1.390 . S
O2647 Gd2615 2.386 . S
O2647 C2659 1.265 . S
O2648 Gd2614 2.353 . S
O2648 C2659 1.242 . S
O2649 Gd2614 2.468 . S
O2649 C2667 1.263 . S
O2650 Gd2614 2.427 . S
O2650 C2667 1.252 . S
O2651 Gd2615 2.307 . S
O2651 C2660 1.261 . S
O2652 Gd2614 2.388 . S
O2652 C2660 1.252 . S
O2653 Gd2614 2.386 . S
O2653 C2671 1.265 . S
O2654 Gd2615 2.353 . S
O2654 C2671 1.242 . S
O2655 Gd2615 2.468 . S
O2655 C2679 1.263 . S
O2656 Gd2615 2.427 . S
O2656 C2679 1.252 . S
O2657 Gd2614 2.307 . S
O2657 C2672 1.261 . S
O2658 Gd2615 2.388 . S
O2658 C2672 1.252 . S
C2659 O2647 1.265 . S
C2659 O2648 1.242 . S
C2660 O2651 1.261 . S
C2660 O2652 1.252 . S
C2661 C2664 1.394 . S
C2661 C2666 1.370 . S
C2661 C2667 1.500 . S
C2662 C2665 1.383 . S
C2662 C2666 1.395 . S
C2663 C2664 1.396 . S
C2663 C2665 1.365 . S
C2663 H2680 0.929 . S
C2664 C2661 1.394 . S
C2664 C2663 1.396 . S
C2664 H2681 0.930 . S
C2665 C2662 1.383 . S
C2665 C2663 1.365 . S
C2665 H2682 0.931 . S
C2666 C2661 1.370 . S
C2666 C2662 1.395 . S
C2666 H2683 0.930 . S
C2667 Gd2614 2.805 . S
C2667 O2649 1.263 . S
C2667 O2650 1.252 . S
C2667 C2661 1.500 . S
C2668 H2630 0.930 . S
C2668 C2644 1.417 . S
C2668 C2669 1.329 . S
C2669 C2639 1.437 . S
C2669 H2640 0.929 . S
C2669 C2668 1.329 . S
H2670 C2643 0.931 . S
C2671 O2653 1.265 . S
C2671 O2654 1.242 . S
C2672 O2657 1.261 . S
C2672 O2658 1.252 . S
C2673 C2676 1.394 . S
C2673 C2678 1.370 . S
C2673 C2679 1.500 . S
C2674 C2677 1.383 . S
C2674 C2678 1.395 . S
C2675 C2676 1.396 . S
C2675 C2677 1.365 . S
C2675 H2684 0.929 . S
C2676 C2673 1.394 . S
C2676 C2675 1.396 . S
C2676 H2685 0.930 . S
C2677 C2674 1.383 . S
C2677 C2675 1.365 . S
C2677 H2686 0.931 . S
C2678 C2673 1.370 . S
C2678 C2674 1.395 . S
C2678 H2687 0.930 . S
C2679 Gd2615 2.805 . S
C2679 O2655 1.263 . S
C2679 O2656 1.252 . S
C2679 C2673 1.500 . S
H2680 C2663 0.929 . S
H2681 C2664 0.930 . S
H2682 C2665 0.931 . S
H2683 C2666 0.930 . S
H2684 C2675 0.929 . S
H2685 C2676 0.930 . S
H2686 C2677 0.931 . S
H2687 C2678 0.930 . S
C2688 C2690 1.422 . S
C2688 C2692 1.385 1_565 S
C2688 N2694 1.369 . S
C2689 C2690 1.421 . S
C2689 C2691 1.417 1_565 S
C2689 C2701 1.422 . S
C2690 C2688 1.422 . S
C2690 C2689 1.421 . S
C2690 N2700 1.359 . S
C2691 C2689 1.417 1_545 S
C2691 C2693 1.329 . S
C2691 H2710 0.930 . S
C2692 C2688 1.385 1_545 S
C2692 C2693 1.459 . S
C2692 C2696 1.421 . S
C2693 C2691 1.329 . S
C2693 C2692 1.459 . S
C2693 H2715 0.929 . S
N2694 C2688 1.369 . S
N2694 C2695 1.338 . S
N2694 Gd2699 2.622 . S
C2695 N2694 1.338 . S
C2695 C2697 1.378 . S
C2695 H2707 0.929 . S
C2696 C2692 1.421 . S
C2696 C2697 1.348 1_545 S
C2696 H2712 0.931 . S
C2697 C2695 1.378 . S
C2697 C2696 1.348 1_565 S
C2697 H2713 0.930 . S
Gd2698 N2718 2.622 . S
Gd2698 N2725 2.570 . S
Gd2698 O2732 2.353 . S
Gd2698 O2733 2.468 . S
Gd2698 O2734 2.427 . S
Gd2698 O2736 2.388 . S
Gd2698 O2737 2.386 . S
Gd2698 O2741 2.307 . S
Gd2698 C2751 2.805 . S
Gd2699 N2694 2.622 . S
Gd2699 N2700 2.570 . S
Gd2699 O2731 2.386 . S
Gd2699 O2735 2.307 . S
Gd2699 O2738 2.353 . S
Gd2699 O2739 2.468 . S
Gd2699 O2740 2.427 . S
Gd2699 O2742 2.388 . S
Gd2699 C2763 2.805 . S
N2700 C2690 1.359 . S
N2700 Gd2699 2.570 . S
N2700 C2702 1.343 . S
C2701 C2689 1.422 . S
C2701 C2703 1.321 . S
C2701 H2709 0.931 . S
C2702 N2700 1.343 . S
C2702 C2703 1.390 . S
C2702 H2704 0.931 . S
C2703 C2701 1.321 . S
C2703 C2702 1.390 . S
C2703 H2705 0.930 . S
H2704 C2702 0.931 . S
H2705 C2703 0.930 . S
H2706 C2729 0.931 . S
H2707 C2695 0.929 . S
H2708 C2730 0.930 . S
H2709 C2701 0.931 . S
H2710 C2691 0.930 . S
H2711 C2720 0.929 . S
H2712 C2696 0.931 . S
H2713 C2697 0.930 . S
H2714 C2752 0.930 . S
H2715 C2693 0.929 . S
H2716 C2721 0.931 . S
H2717 C2722 0.930 . S
N2718 Gd2698 2.622 . S
N2718 C2719 1.369 . S
N2718 C2720 1.338 . S
C2719 N2718 1.369 . S
C2719 C2723 1.415 . S
C2719 C2726 1.422 . S
C2720 H2711 0.929 . S
C2720 N2718 1.338 . S
C2720 C2722 1.378 . S
C2721 H2716 0.931 . S
C2721 C2722 1.348 . S
C2721 C2723 1.413 . S
C2722 H2717 0.930 . S
C2722 C2720 1.378 . S
C2722 C2721 1.348 . S
C2723 C2719 1.415 . S
C2723 C2721 1.413 . S
C2723 C2753 1.437 . S
H2724 C2753 0.929 . S
N2725 Gd2698 2.570 . S
N2725 C2726 1.359 . S
N2725 C2729 1.343 . S
C2726 C2719 1.422 . S
C2726 N2725 1.359 . S
C2726 C2728 1.421 . S
C2727 C2728 1.422 . S
C2727 C2730 1.321 . S
C2727 H2754 0.931 . S
C2728 C2726 1.421 . S
C2728 C2727 1.422 . S
C2728 C2752 1.417 . S
C2729 H2706 0.931 . S
C2729 N2725 1.343 . S
C2729 C2730 1.390 . S
C2730 H2708 0.930 . S
C2730 C2727 1.321 . S
C2730 C2729 1.390 . S
O2731 Gd2699 2.386 . S
O2731 C2743 1.265 . S
O2732 Gd2698 2.353 . S
O2732 C2743 1.242 . S
O2733 Gd2698 2.468 . S
O2733 C2751 1.263 . S
O2734 Gd2698 2.427 . S
O2734 C2751 1.252 . S
O2735 Gd2699 2.307 . S
O2735 C2744 1.261 . S
O2736 Gd2698 2.388 . S
O2736 C2744 1.252 . S
O2737 Gd2698 2.386 . S
O2737 C2755 1.265 . S
O2738 Gd2699 2.353 . S
O2738 C2755 1.242 . S
O2739 Gd2699 2.468 . S
O2739 C2763 1.263 . S
O2740 Gd2699 2.427 . S
O2740 C2763 1.252 . S
O2741 Gd2698 2.307 . S
O2741 C2756 1.261 . S
O2742 Gd2699 2.388 . S
O2742 C2756 1.252 . S
C2743 O2731 1.265 . S
C2743 O2732 1.242 . S
C2744 O2735 1.261 . S
C2744 O2736 1.252 . S
C2745 C2748 1.394 . S
C2745 C2750 1.370 . S
C2745 C2751 1.500 . S
C2746 C2749 1.383 . S
C2746 C2750 1.395 . S
C2747 C2748 1.396 . S
C2747 C2749 1.365 . S
C2747 H2764 0.929 . S
C2748 C2745 1.394 . S
C2748 C2747 1.396 . S
C2748 H2765 0.930 . S
C2749 C2746 1.383 . S
C2749 C2747 1.365 . S
C2749 H2766 0.931 . S
C2750 C2745 1.370 . S
C2750 C2746 1.395 . S
C2750 H2767 0.930 . S
C2751 Gd2698 2.805 . S
C2751 O2733 1.263 . S
C2751 O2734 1.252 . S
C2751 C2745 1.500 . S
C2752 H2714 0.930 . S
C2752 C2728 1.417 . S
C2752 C2753 1.329 . S
C2753 C2723 1.437 . S
C2753 H2724 0.929 . S
C2753 C2752 1.329 . S
H2754 C2727 0.931 . S
C2755 O2737 1.265 . S
C2755 O2738 1.242 . S
C2756 O2741 1.261 . S
C2756 O2742 1.252 . S
C2757 C2760 1.394 . S
C2757 C2762 1.370 . S
C2757 C2763 1.500 . S
C2758 C2761 1.383 . S
C2758 C2762 1.395 . S
C2759 C2760 1.396 . S
C2759 C2761 1.365 . S
C2759 H2768 0.929 . S
C2760 C2757 1.394 . S
C2760 C2759 1.396 . S
C2760 H2769 0.930 . S
C2761 C2758 1.383 . S
C2761 C2759 1.365 . S
C2761 H2770 0.931 . S
C2762 C2757 1.370 . S
C2762 C2758 1.395 . S
C2762 H2771 0.930 . S
C2763 Gd2699 2.805 . S
C2763 O2739 1.263 . S
C2763 O2740 1.252 . S
C2763 C2757 1.500 . S
H2764 C2747 0.929 . S
H2765 C2748 0.930 . S
H2766 C2749 0.931 . S
H2767 C2750 0.930 . S
H2768 C2759 0.929 . S
H2769 C2760 0.930 . S
H2770 C2761 0.931 . S
H2771 C2762 0.930 . S
C2772 C2774 1.422 . S
C2772 C2776 1.415 . S
C2772 N2778 1.369 . S
C2773 C2774 1.421 . S
C2773 C2775 1.417 . S
C2773 C2785 1.422 . S
C2774 C2772 1.422 . S
C2774 C2773 1.421 . S
C2774 N2784 1.359 . S
C2775 C2773 1.417 . S
C2775 C2777 1.329 . S
C2775 H2794 0.930 . S
C2776 C2772 1.415 . S
C2776 C2777 1.437 . S
C2776 C2780 1.413 . S
C2777 C2775 1.329 . S
C2777 C2776 1.437 . S
C2777 H2799 0.929 . S
N2778 C2772 1.369 . S
N2778 C2779 1.338 . S
N2778 Gd2783 2.622 . S
C2779 N2778 1.338 . S
C2779 C2781 1.378 . S
C2779 H2791 0.929 . S
C2780 C2776 1.413 . S
C2780 C2781 1.348 . S
C2780 H2796 0.931 . S
C2781 C2779 1.378 . S
C2781 C2780 1.348 . S
C2781 H2797 0.930 . S
Gd2782 N2802 2.622 . S
Gd2782 N2809 2.570 . S
Gd2782 O2816 2.353 . S
Gd2782 O2817 2.468 . S
Gd2782 O2818 2.427 . S
Gd2782 O2820 2.388 . S
Gd2782 O2821 2.386 . S
Gd2782 O2825 2.307 . S
Gd2782 C2835 2.805 . S
Gd2783 N2778 2.622 . S
Gd2783 N2784 2.570 . S
Gd2783 O2815 2.386 . S
Gd2783 O2819 2.307 . S
Gd2783 O2822 2.353 . S
Gd2783 O2823 2.468 . S
Gd2783 O2824 2.427 . S
Gd2783 O2826 2.388 . S
Gd2783 C2847 2.805 . S
N2784 C2774 1.359 . S
N2784 Gd2783 2.570 . S
N2784 C2786 1.343 . S
C2785 C2773 1.422 . S
C2785 C2787 1.321 . S
C2785 H2793 0.931 . S
C2786 N2784 1.343 . S
C2786 C2787 1.390 . S
C2786 H2788 0.931 . S
C2787 C2785 1.321 . S
C2787 C2786 1.390 . S
C2787 H2789 0.930 . S
H2788 C2786 0.931 . S
H2789 C2787 0.930 . S
H2790 C2813 0.931 . S
H2791 C2779 0.929 . S
H2792 C2814 0.930 . S
H2793 C2785 0.931 . S
H2794 C2775 0.930 . S
H2795 C2804 0.929 . S
H2796 C2780 0.931 . S
H2797 C2781 0.930 . S
H2798 C2836 0.930 . S
H2799 C2777 0.929 . S
H2800 C2805 0.931 . S
H2801 C2806 0.930 . S
N2802 Gd2782 2.622 . S
N2802 C2803 1.369 . S
N2802 C2804 1.338 . S
C2803 N2802 1.369 . S
C2803 C2807 1.415 . S
C2803 C2810 1.422 . S
C2804 H2795 0.929 . S
C2804 N2802 1.338 . S
C2804 C2806 1.378 . S
C2805 H2800 0.931 . S
C2805 C2806 1.348 . S
C2805 C2807 1.413 . S
C2806 H2801 0.930 . S
C2806 C2804 1.378 . S
C2806 C2805 1.348 . S
C2807 C2803 1.415 . S
C2807 C2805 1.413 . S
C2807 C2837 1.437 . S
H2808 C2837 0.929 . S
N2809 Gd2782 2.570 . S
N2809 C2810 1.359 . S
N2809 C2813 1.343 . S
C2810 C2803 1.422 . S
C2810 N2809 1.359 . S
C2810 C2812 1.421 . S
C2811 C2812 1.422 . S
C2811 C2814 1.321 . S
C2811 H2838 0.931 . S
C2812 C2810 1.421 . S
C2812 C2811 1.422 . S
C2812 C2836 1.417 . S
C2813 H2790 0.931 . S
C2813 N2809 1.343 . S
C2813 C2814 1.390 . S
C2814 H2792 0.930 . S
C2814 C2811 1.321 . S
C2814 C2813 1.390 . S
O2815 Gd2783 2.386 . S
O2815 C2827 1.265 . S
O2816 Gd2782 2.353 . S
O2816 C2827 1.242 . S
O2817 Gd2782 2.468 . S
O2817 C2835 1.263 . S
O2818 Gd2782 2.427 . S
O2818 C2835 1.252 . S
O2819 Gd2783 2.307 . S
O2819 C2828 1.261 . S
O2820 Gd2782 2.388 . S
O2820 C2828 1.252 . S
O2821 Gd2782 2.386 . S
O2821 C2839 1.265 . S
O2822 Gd2783 2.353 . S
O2822 C2839 1.242 . S
O2823 Gd2783 2.468 . S
O2823 C2847 1.263 . S
O2824 Gd2783 2.427 . S
O2824 C2847 1.252 . S
O2825 Gd2782 2.307 . S
O2825 C2840 1.261 . S
O2826 Gd2783 2.388 . S
O2826 C2840 1.252 . S
C2827 O2815 1.265 . S
C2827 O2816 1.242 . S
C2828 O2819 1.261 . S
C2828 O2820 1.252 . S
C2829 C2832 1.394 . S
C2829 C2834 1.370 . S
C2829 C2835 1.500 . S
C2830 C2833 1.383 . S
C2830 C2834 1.395 . S
C2831 C2832 1.396 . S
C2831 C2833 1.365 . S
C2831 H2848 0.929 . S
C2832 C2829 1.394 . S
C2832 C2831 1.396 . S
C2832 H2849 0.930 . S
C2833 C2830 1.383 . S
C2833 C2831 1.365 . S
C2833 H2850 0.931 . S
C2834 C2829 1.370 . S
C2834 C2830 1.395 . S
C2834 H2851 0.930 . S
C2835 Gd2782 2.805 . S
C2835 O2817 1.263 . S
C2835 O2818 1.252 . S
C2835 C2829 1.500 . S
C2836 H2798 0.930 . S
C2836 C2812 1.417 . S
C2836 C2837 1.329 . S
C2837 C2807 1.437 . S
C2837 H2808 0.929 . S
C2837 C2836 1.329 . S
H2838 C2811 0.931 . S
C2839 O2821 1.265 . S
C2839 O2822 1.242 . S
C2840 O2825 1.261 . S
C2840 O2826 1.252 . S
C2841 C2844 1.394 . S
C2841 C2846 1.370 . S
C2841 C2847 1.500 . S
C2842 C2845 1.383 . S
C2842 C2846 1.395 . S
C2843 C2844 1.396 . S
C2843 C2845 1.365 . S
C2843 H2852 0.929 . S
C2844 C2841 1.394 . S
C2844 C2843 1.396 . S
C2844 H2853 0.930 . S
C2845 C2842 1.383 . S
C2845 C2843 1.365 . S
C2845 H2854 0.931 . S
C2846 C2841 1.370 . S
C2846 C2842 1.395 . S
C2846 H2855 0.930 . S
C2847 Gd2783 2.805 . S
C2847 O2823 1.263 . S
C2847 O2824 1.252 . S
C2847 C2841 1.500 . S
H2848 C2831 0.929 . S
H2849 C2832 0.930 . S
H2850 C2833 0.931 . S
H2851 C2834 0.930 . S
H2852 C2843 0.929 . S
H2853 C2844 0.930 . S
H2854 C2845 0.931 . S
H2855 C2846 0.930 . S
C2856 C2858 1.422 . S
C2856 C2860 1.415 . S
C2856 N2862 1.369 . S
C2857 C2858 1.421 . S
C2857 C2859 1.417 . S
C2857 C2869 1.422 . S
C2858 C2856 1.422 . S
C2858 C2857 1.421 . S
C2858 N2868 1.359 . S
C2859 C2857 1.417 . S
C2859 C2861 1.329 . S
C2859 H2878 0.930 . S
C2860 C2856 1.415 . S
C2860 C2861 1.437 . S
C2860 C2864 1.413 . S
C2861 C2859 1.329 . S
C2861 C2860 1.437 . S
C2861 H2883 0.929 . S
N2862 C2856 1.369 . S
N2862 C2863 1.338 . S
N2862 Gd2867 2.622 . S
C2863 N2862 1.338 . S
C2863 C2865 1.378 . S
C2863 H2875 0.929 . S
C2864 C2860 1.413 . S
C2864 C2865 1.348 . S
C2864 H2880 0.931 . S
C2865 C2863 1.378 . S
C2865 C2864 1.348 . S
C2865 H2881 0.930 . S
Gd2866 N2886 2.622 . S
Gd2866 N2893 2.570 . S
Gd2866 O2900 2.353 . S
Gd2866 O2901 2.468 . S
Gd2866 O2902 2.427 . S
Gd2866 O2904 2.388 . S
Gd2866 O2905 2.386 . S
Gd2866 O2909 2.307 . S
Gd2866 C2919 2.805 . S
Gd2867 N2862 2.622 . S
Gd2867 N2868 2.570 . S
Gd2867 O2899 2.386 . S
Gd2867 O2903 2.307 . S
Gd2867 O2906 2.353 . S
Gd2867 O2907 2.468 . S
Gd2867 O2908 2.427 . S
Gd2867 O2910 2.388 . S
Gd2867 C2931 2.805 . S
N2868 C2858 1.359 . S
N2868 Gd2867 2.570 . S
N2868 C2870 1.343 . S
C2869 C2857 1.422 . S
C2869 C2871 1.321 . S
C2869 H2877 0.931 . S
C2870 N2868 1.343 . S
C2870 C2871 1.390 . S
C2870 H2872 0.931 . S
C2871 C2869 1.321 . S
C2871 C2870 1.390 . S
C2871 H2873 0.930 . S
H2872 C2870 0.931 . S
H2873 C2871 0.930 . S
H2874 C2897 0.931 . S
H2875 C2863 0.929 . S
H2876 C2898 0.930 . S
H2877 C2869 0.931 . S
H2878 C2859 0.930 . S
H2879 C2888 0.929 . S
H2880 C2864 0.931 . S
H2881 C2865 0.930 . S
H2882 C2920 0.930 . S
H2883 C2861 0.929 . S
H2884 C2889 0.931 . S
H2885 C2890 0.930 . S
N2886 Gd2866 2.622 . S
N2886 C2887 1.369 . S
N2886 C2888 1.338 . S
C2887 N2886 1.369 . S
C2887 C2891 1.415 . S
C2887 C2894 1.422 . S
C2888 H2879 0.929 . S
C2888 N2886 1.338 . S
C2888 C2890 1.378 . S
C2889 H2884 0.931 . S
C2889 C2890 1.348 . S
C2889 C2891 1.413 . S
C2890 H2885 0.930 . S
C2890 C2888 1.378 . S
C2890 C2889 1.348 . S
C2891 C2887 1.415 . S
C2891 C2889 1.413 . S
C2891 C2921 1.437 . S
H2892 C2921 0.929 . S
N2893 Gd2866 2.570 . S
N2893 C2894 1.359 . S
N2893 C2897 1.343 . S
C2894 C2887 1.422 . S
C2894 N2893 1.359 . S
C2894 C2896 1.421 . S
C2895 C2896 1.422 . S
C2895 C2898 1.321 . S
C2895 H2922 0.931 . S
C2896 C2894 1.421 . S
C2896 C2895 1.422 . S
C2896 C2920 1.417 . S
C2897 H2874 0.931 . S
C2897 N2893 1.343 . S
C2897 C2898 1.390 . S
C2898 H2876 0.930 . S
C2898 C2895 1.321 . S
C2898 C2897 1.390 . S
O2899 Gd2867 2.386 . S
O2899 C2911 1.265 . S
O2900 Gd2866 2.353 . S
O2900 C2911 1.242 . S
O2901 Gd2866 2.468 . S
O2901 C2919 1.263 . S
O2902 Gd2866 2.427 . S
O2902 C2919 1.252 . S
O2903 Gd2867 2.307 . S
O2903 C2912 1.261 . S
O2904 Gd2866 2.388 . S
O2904 C2912 1.252 . S
O2905 Gd2866 2.386 . S
O2905 C2923 1.265 . S
O2906 Gd2867 2.353 . S
O2906 C2923 1.242 . S
O2907 Gd2867 2.468 . S
O2907 C2931 1.263 . S
O2908 Gd2867 2.427 . S
O2908 C2931 1.252 . S
O2909 Gd2866 2.307 . S
O2909 C2924 1.261 . S
O2910 Gd2867 2.388 . S
O2910 C2924 1.252 . S
C2911 O2899 1.265 . S
C2911 O2900 1.242 . S
C2912 O2903 1.261 . S
C2912 O2904 1.252 . S
C2913 C2916 1.394 . S
C2913 C2918 1.370 . S
C2913 C2919 1.500 . S
C2914 C2917 1.383 . S
C2914 C2918 1.395 . S
C2915 C2916 1.396 . S
C2915 C2917 1.365 . S
C2915 H2932 0.929 . S
C2916 C2913 1.394 . S
C2916 C2915 1.396 . S
C2916 H2933 0.930 . S
C2917 C2914 1.383 . S
C2917 C2915 1.365 . S
C2917 H2934 0.931 . S
C2918 C2913 1.370 . S
C2918 C2914 1.395 . S
C2918 H2935 0.930 . S
C2919 Gd2866 2.805 . S
C2919 O2901 1.263 . S
C2919 O2902 1.252 . S
C2919 C2913 1.500 . S
C2920 H2882 0.930 . S
C2920 C2896 1.417 . S
C2920 C2921 1.329 . S
C2921 C2891 1.437 . S
C2921 H2892 0.929 . S
C2921 C2920 1.329 . S
H2922 C2895 0.931 . S
C2923 O2905 1.265 . S
C2923 O2906 1.242 . S
C2924 O2909 1.261 . S
C2924 O2910 1.252 . S
C2925 C2928 1.394 . S
C2925 C2930 1.370 . S
C2925 C2931 1.500 . S
C2926 C2929 1.383 . S
C2926 C2930 1.395 . S
C2927 C2928 1.396 . S
C2927 C2929 1.365 . S
C2927 H2936 0.929 . S
C2928 C2925 1.394 . S
C2928 C2927 1.396 . S
C2928 H2937 0.930 . S
C2929 C2926 1.383 . S
C2929 C2927 1.365 . S
C2929 H2938 0.931 . S
C2930 C2925 1.370 . S
C2930 C2926 1.395 . S
C2930 H2939 0.930 . S
C2931 Gd2867 2.805 . S
C2931 O2907 1.263 . S
C2931 O2908 1.252 . S
C2931 C2925 1.500 . S
H2932 C2915 0.929 . S
H2933 C2916 0.930 . S
H2934 C2917 0.931 . S
H2935 C2918 0.930 . S
H2936 C2927 0.929 . S
H2937 C2928 0.930 . S
H2938 C2929 0.931 . S
H2939 C2930 0.930 . S
C2940 C2942 1.422 . S
C2940 C2944 1.415 . S
C2940 N2946 1.369 . S
C2941 C2942 1.421 . S
C2941 C2943 1.417 . S
C2941 C2953 1.422 . S
C2942 C2940 1.422 . S
C2942 C2941 1.421 . S
C2942 N2952 1.359 . S
C2943 C2941 1.417 . S
C2943 C2945 1.329 . S
C2943 H2962 0.930 . S
C2944 C2940 1.415 . S
C2944 C2945 1.437 . S
C2944 C2948 1.413 . S
C2945 C2943 1.329 . S
C2945 C2944 1.437 . S
C2945 H2967 0.929 . S
N2946 C2940 1.369 . S
N2946 C2947 1.338 . S
N2946 Gd2951 2.622 . S
C2947 N2946 1.338 . S
C2947 C2949 1.378 . S
C2947 H2959 0.929 . S
C2948 C2944 1.413 . S
C2948 C2949 1.348 . S
C2948 H2964 0.931 . S
C2949 C2947 1.378 . S
C2949 C2948 1.348 . S
C2949 H2965 0.930 . S
Gd2950 N2970 2.622 . S
Gd2950 N2977 2.570 . S
Gd2950 O2984 2.353 . S
Gd2950 O2985 2.468 . S
Gd2950 O2986 2.427 . S
Gd2950 O2988 2.388 . S
Gd2950 O2989 2.386 . S
Gd2950 O2993 2.307 . S
Gd2950 C3003 2.805 . S
Gd2951 N2946 2.622 . S
Gd2951 N2952 2.570 . S
Gd2951 O2983 2.386 . S
Gd2951 O2987 2.307 . S
Gd2951 O2990 2.353 . S
Gd2951 O2991 2.468 . S
Gd2951 O2992 2.427 . S
Gd2951 O2994 2.388 . S
Gd2951 C3015 2.805 . S
N2952 C2942 1.359 . S
N2952 Gd2951 2.570 . S
N2952 C2954 1.343 . S
C2953 C2941 1.422 . S
C2953 C2955 1.321 . S
C2953 H2961 0.931 . S
C2954 N2952 1.343 . S
C2954 C2955 1.390 . S
C2954 H2956 0.931 . S
C2955 C2953 1.321 . S
C2955 C2954 1.390 . S
C2955 H2957 0.930 . S
H2956 C2954 0.931 . S
H2957 C2955 0.930 . S
H2958 C2981 0.931 . S
H2959 C2947 0.929 . S
H2960 C2982 0.930 . S
H2961 C2953 0.931 . S
H2962 C2943 0.930 . S
H2963 C2972 0.929 . S
H2964 C2948 0.931 . S
H2965 C2949 0.930 . S
H2966 C3004 0.930 . S
H2967 C2945 0.929 . S
H2968 C2973 0.931 . S
H2969 C2974 0.930 . S
N2970 Gd2950 2.622 . S
N2970 C2971 1.369 . S
N2970 C2972 1.338 . S
C2971 N2970 1.369 . S
C2971 C2975 1.415 . S
C2971 C2978 1.422 . S
C2972 H2963 0.929 . S
C2972 N2970 1.338 . S
C2972 C2974 1.378 . S
C2973 H2968 0.931 . S
C2973 C2974 1.348 . S
C2973 C2975 1.413 . S
C2974 H2969 0.930 . S
C2974 C2972 1.378 . S
C2974 C2973 1.348 . S
C2975 C2971 1.415 . S
C2975 C2973 1.413 . S
C2975 C3005 1.437 . S
H2976 C3005 0.929 . S
N2977 Gd2950 2.570 . S
N2977 C2978 1.359 . S
N2977 C2981 1.343 . S
C2978 C2971 1.422 . S
C2978 N2977 1.359 . S
C2978 C2980 1.421 . S
C2979 C2980 1.422 . S
C2979 C2982 1.321 . S
C2979 H3006 0.931 . S
C2980 C2978 1.421 . S
C2980 C2979 1.422 . S
C2980 C3004 1.417 . S
C2981 H2958 0.931 . S
C2981 N2977 1.343 . S
C2981 C2982 1.390 . S
C2982 H2960 0.930 . S
C2982 C2979 1.321 . S
C2982 C2981 1.390 . S
O2983 Gd2951 2.386 . S
O2983 C2995 1.265 . S
O2984 Gd2950 2.353 . S
O2984 C2995 1.242 . S
O2985 Gd2950 2.468 . S
O2985 C3003 1.263 . S
O2986 Gd2950 2.427 . S
O2986 C3003 1.252 . S
O2987 Gd2951 2.307 . S
O2987 C2996 1.261 . S
O2988 Gd2950 2.388 . S
O2988 C2996 1.252 . S
O2989 Gd2950 2.386 . S
O2989 C3007 1.265 . S
O2990 Gd2951 2.353 . S
O2990 C3007 1.242 . S
O2991 Gd2951 2.468 . S
O2991 C3015 1.263 . S
O2992 Gd2951 2.427 . S
O2992 C3015 1.252 . S
O2993 Gd2950 2.307 . S
O2993 C3008 1.261 . S
O2994 Gd2951 2.388 . S
O2994 C3008 1.252 . S
C2995 O2983 1.265 . S
C2995 O2984 1.242 . S
C2996 O2987 1.261 . S
C2996 O2988 1.252 . S
C2997 C3000 1.394 . S
C2997 C3002 1.370 . S
C2997 C3003 1.500 . S
C2998 C3001 1.383 . S
C2998 C3002 1.395 . S
C2999 C3000 1.396 . S
C2999 C3001 1.365 . S
C2999 H3016 0.929 . S
C3000 C2997 1.394 . S
C3000 C2999 1.396 . S
C3000 H3017 0.930 . S
C3001 C2998 1.383 . S
C3001 C2999 1.365 . S
C3001 H3018 0.931 . S
C3002 C2997 1.370 . S
C3002 C2998 1.395 . S
C3002 H3019 0.930 . S
C3003 Gd2950 2.805 . S
C3003 O2985 1.263 . S
C3003 O2986 1.252 . S
C3003 C2997 1.500 . S
C3004 H2966 0.930 . S
C3004 C2980 1.417 . S
C3004 C3005 1.329 . S
C3005 C2975 1.437 . S
C3005 H2976 0.929 . S
C3005 C3004 1.329 . S
H3006 C2979 0.931 . S
C3007 O2989 1.265 . S
C3007 O2990 1.242 . S
C3008 O2993 1.261 . S
C3008 O2994 1.252 . S
C3009 C3012 1.394 . S
C3009 C3014 1.370 . S
C3009 C3015 1.500 . S
C3010 C3013 1.383 . S
C3010 C3014 1.395 . S
C3011 C3012 1.396 . S
C3011 C3013 1.365 . S
C3011 H3020 0.929 . S
C3012 C3009 1.394 . S
C3012 C3011 1.396 . S
C3012 H3021 0.930 . S
C3013 C3010 1.383 . S
C3013 C3011 1.365 . S
C3013 H3022 0.931 . S
C3014 C3009 1.370 . S
C3014 C3010 1.395 . S
C3014 H3023 0.930 . S
C3015 Gd2951 2.805 . S
C3015 O2991 1.263 . S
C3015 O2992 1.252 . S
C3015 C3009 1.500 . S
H3016 C2999 0.929 . S
H3017 C3000 0.930 . S
H3018 C3001 0.931 . S
H3019 C3002 0.930 . S
H3020 C3011 0.929 . S
H3021 C3012 0.930 . S
H3022 C3013 0.931 . S
H3023 C3014 0.930 . S
H3024 C3032 0.929 1_556 S
H3025 C3034 0.930 . S
H3026 C3036 0.930 . S
H3027 C3039 0.929 . S
H3028 C3042 0.930 . S
H3029 C3044 0.960 . S
H3030 C3044 0.960 . S
H3031 C3044 0.960 . S
C3032 H3024 0.929 1_554 S
C3032 C3033 1.377 . S
C3032 C3034 1.384 1_554 S
C3033 C3032 1.377 . S
C3033 C3039 1.390 . S
C3034 H3025 0.930 . S
C3034 C3032 1.384 1_556 S
C3034 C3035 1.372 1_556 S
C3035 C3034 1.372 1_554 S
C3035 C3036 1.400 . S
C3035 C3040 1.490 . S
C3036 H3026 0.930 . S
C3036 C3035 1.400 . S
C3036 C3039 1.386 . S
H3037 C3053 0.930 1_554 S
H3038 C3054 0.931 1_554 S
C3039 H3027 0.929 . S
C3039 C3033 1.390 . S
C3039 C3036 1.386 . S
C3040 C3035 1.490 . S
C3040 C3042 1.395 1_554 S
C3040 C3043 1.403 . S
H3041 C3047 0.934 . S
C3042 H3028 0.930 . S
C3042 C3040 1.395 1_556 S
C3042 C3045 1.403 . S
C3043 C3040 1.403 . S
C3043 C3044 1.524 . S
C3043 C3047 1.405 . S
C3044 H3029 0.960 . S
C3044 H3030 0.960 . S
C3044 H3031 0.960 . S
C3044 C3043 1.524 . S
C3045 C3042 1.403 . S
C3045 C3046 1.392 . S
C3045 C3049 1.495 . S
C3046 C3045 1.392 . S
C3046 C3047 1.377 1_556 S
C3046 C3048 1.531 . S
C3047 H3041 0.934 . S
C3047 C3043 1.405 . S
C3047 C3046 1.377 1_554 S
C3048 C3046 1.531 . S
C3048 C3050 1.369 1_545 S
C3048 C3054 1.342 1_545 S
C3049 C3045 1.495 . S
C3049 H3055 0.959 . S
C3049 H3056 0.961 . S
C3049 H3057 0.960 . S
C3050 C3048 1.369 1_565 S
C3050 C3051 1.394 . S
C3050 H3058 0.930 1_565 S
C3051 C3050 1.394 . S
C3051 C3052 1.383 . S
C3051 H3059 0.929 . S
C3052 C3051 1.383 . S
C3052 C3053 1.377 . S
C3053 H3037 0.930 1_556 S
C3053 C3052 1.377 . S
C3053 C3054 1.379 . S
C3054 H3038 0.931 1_556 S
C3054 C3048 1.342 1_565 S
C3054 C3053 1.379 . S
H3055 C3049 0.959 . S
H3056 C3049 0.961 . S
H3057 C3049 0.960 . S
H3058 C3050 0.930 1_545 S
H3059 C3051 0.929 . S
H3060 C3068 0.929 . S
H3061 C3070 0.930 . S
H3062 C3072 0.930 1_655 S
H3063 C3075 0.929 . S
H3064 C3078 0.930 . S
H3065 C3080 0.960 . S
H3066 C3080 0.960 . S
H3067 C3080 0.960 . S
C3068 H3060 0.929 . S
C3068 C3069 1.377 . S
C3068 C3070 1.384 . S
C3069 C3068 1.377 . S
C3069 C3075 1.390 . S
C3070 H3061 0.930 . S
C3070 C3068 1.384 . S
C3070 C3071 1.409 . S
C3071 C3070 1.409 . S
C3071 C3072 1.390 . S
C3071 C3076 1.464 1_455 S
C3072 H3062 0.930 1_455 S
C3072 C3071 1.390 . S
C3072 C3075 1.386 . S
H3073 C3089 0.930 . S
H3074 C3090 0.931 . S
C3075 H3063 0.929 . S
C3075 C3069 1.390 . S
C3075 C3072 1.386 . S
C3076 C3071 1.464 1_655 S
C3076 C3078 1.395 1_556 S
C3076 C3079 1.403 . S
H3077 C3083 0.930 . S
C3078 H3064 0.930 . S
C3078 C3076 1.395 1_554 S
C3078 C3081 1.403 . S
C3079 C3076 1.403 . S
C3079 C3080 1.524 . S
C3079 C3083 1.400 . S
C3080 H3065 0.960 . S
C3080 H3066 0.960 . S
C3080 H3067 0.960 . S
C3080 C3079 1.524 . S
C3081 C3078 1.403 . S
C3081 C3082 1.392 . S
C3081 C3085 1.495 . S
C3082 C3081 1.392 . S
C3082 C3083 1.385 1_554 S
C3082 C3084 1.478 . S
C3083 H3077 0.930 . S
C3083 C3079 1.400 . S
C3083 C3082 1.385 1_556 S
C3084 C3082 1.478 . S
C3084 C3086 1.381 . S
C3084 C3090 1.383 . S
C3085 C3081 1.495 . S
C3085 H3091 0.959 . S
C3085 H3092 0.961 . S
C3085 H3093 0.960 . S
C3086 C3084 1.381 . S
C3086 C3087 1.394 . S
C3086 H3094 0.930 . S
C3087 C3086 1.394 . S
C3087 C3088 1.383 . S
C3087 H3095 0.929 . S
C3088 C3087 1.383 . S
C3088 C3089 1.377 . S
C3089 H3073 0.930 . S
C3089 C3088 1.377 . S
C3089 C3090 1.379 . S
C3090 H3074 0.931 . S
C3090 C3084 1.383 . S
C3090 C3089 1.379 . S
H3091 C3085 0.959 . S
H3092 C3085 0.961 . S
H3093 C3085 0.960 . S
H3094 C3086 0.930 . S
H3095 C3087 0.929 . S
H3096 C3104 0.929 . S
H3097 C3106 0.930 . S
H3098 C3108 0.930 1_554 S
H3099 C3111 0.929 1_554 S
H3100 C3114 0.930 . S
H3101 C3116 0.960 1_554 S
H3102 C3116 0.960 . S
H3103 C3116 0.960 1_554 S
C3104 H3096 0.929 . S
C3104 C3105 1.377 . S
C3104 C3106 1.384 . S
C3105 C3104 1.377 . S
C3105 C3111 1.390 . S
C3106 H3097 0.930 . S
C3106 C3104 1.384 . S
C3106 C3107 1.372 . S
C3107 C3106 1.372 . S
C3107 C3108 1.400 . S
C3107 C3112 1.490 . S
C3108 H3098 0.930 1_556 S
C3108 C3107 1.400 . S
C3108 C3111 1.386 . S
H3109 C3125 0.930 . S
H3110 C3126 0.931 . S
C3111 H3099 0.929 1_556 S
C3111 C3105 1.390 . S
C3111 C3108 1.386 . S
C3112 C3107 1.490 . S
C3112 C3114 1.395 . S
C3112 C3115 1.403 . S
H3113 C3119 0.930 . S
C3114 H3100 0.930 . S
C3114 C3112 1.395 . S
C3114 C3117 1.403 . S
C3115 C3112 1.403 . S
C3115 C3116 1.524 . S
C3115 C3119 1.400 1_556 S
C3116 H3101 0.960 1_556 S
C3116 H3102 0.960 . S
C3116 H3103 0.960 1_556 S
C3116 C3115 1.524 . S
C3117 C3114 1.403 . S
C3117 C3118 1.392 1_556 S
C3117 C3121 1.495 . S
C3118 C3117 1.392 1_554 S
C3118 C3119 1.385 . S
C3118 C3120 1.478 . S
C3119 H3113 0.930 . S
C3119 C3115 1.400 1_554 S
C3119 C3118 1.385 . S
C3120 C3118 1.478 . S
C3120 C3122 1.381 1_554 S
C3120 C3126 1.383 . S
C3121 C3117 1.495 . S
C3121 H3127 0.959 . S
C3121 H3128 0.961 1_556 S
C3121 H3129 0.960 . S
C3122 C3120 1.381 1_556 S
C3122 C3123 1.394 1_556 S
C3122 H3130 0.930 . S
C3123 C3122 1.394 1_554 S
C3123 C3124 1.383 . S
C3123 H3131 0.929 1_554 S
C3124 C3123 1.383 . S
C3124 C3125 1.377 . S
C3125 H3109 0.930 . S
C3125 C3124 1.377 . S
C3125 C3126 1.379 . S
C3126 H3110 0.931 . S
C3126 C3120 1.383 . S
C3126 C3125 1.379 . S
H3127 C3121 0.959 . S
H3128 C3121 0.961 1_554 S
H3129 C3121 0.960 . S
H3130 C3122 0.930 . S
H3131 C3123 0.929 1_556 S
H3132 C3140 0.929 . S
H3133 C3142 0.930 . S
H3134 C3144 0.930 1_455 S
H3135 C3147 0.929 . S
H3136 C3150 0.930 . S
H3137 C3152 0.960 . S
H3138 C3152 0.960 . S
H3139 C3152 0.960 . S
C3140 H3132 0.929 . S
C3140 C3141 1.377 . S
C3140 C3142 1.384 . S
C3141 C3140 1.377 . S
C3141 C3147 1.390 . S
C3142 H3133 0.930 . S
C3142 C3140 1.384 . S
C3142 C3143 1.372 . S
C3143 C3142 1.372 . S
C3143 C3144 1.400 . S
C3143 C3148 1.490 1_655 S
C3144 H3134 0.930 1_655 S
C3144 C3143 1.400 . S
C3144 C3147 1.386 . S
H3145 C3161 0.930 . S
H3146 C3162 0.931 . S
C3147 H3135 0.929 . S
C3147 C3141 1.390 . S
C3147 C3144 1.386 . S
C3148 C3143 1.490 1_455 S
C3148 C3150 1.395 . S
C3148 C3151 1.403 . S
H3149 C3155 0.930 . S
C3150 H3136 0.930 . S
C3150 C3148 1.395 . S
C3150 C3153 1.403 . S
C3151 C3148 1.403 . S
C3151 C3152 1.524 . S
C3151 C3155 1.400 . S
C3152 H3137 0.960 . S
C3152 H3138 0.960 . S
C3152 H3139 0.960 . S
C3152 C3151 1.524 . S
C3153 C3150 1.403 . S
C3153 C3154 1.392 . S
C3153 C3157 1.495 . S
C3154 C3153 1.392 . S
C3154 C3155 1.385 . S
C3154 C3156 1.478 . S
C3155 H3149 0.930 . S
C3155 C3151 1.400 . S
C3155 C3154 1.385 . S
C3156 C3154 1.478 . S
C3156 C3158 1.381 . S
C3156 C3162 1.383 . S
C3157 C3153 1.495 . S
C3157 H3163 0.959 . S
C3157 H3164 0.961 . S
C3157 H3165 0.960 . S
C3158 C3156 1.381 . S
C3158 C3159 1.394 . S
C3158 H3166 0.930 . S
C3159 C3158 1.394 . S
C3159 C3160 1.383 . S
C3159 H3167 0.929 . S
C3160 C3159 1.383 . S
C3160 C3161 1.377 . S
C3161 H3145 0.930 . S
C3161 C3160 1.377 . S
C3161 C3162 1.379 . S
C3162 H3146 0.931 . S
C3162 C3156 1.383 . S
C3162 C3161 1.379 . S
H3163 C3157 0.959 . S
H3164 C3157 0.961 . S
H3165 C3157 0.960 . S
H3166 C3158 0.930 . S
H3167 C3159 0.929 . S
H3168 C3176 0.929 . S
H3169 C3178 0.930 . S
H3170 C3180 0.930 . S
H3171 C3183 0.929 . S
H3172 C3186 0.930 . S
H3173 C3188 0.960 . S
H3174 C3188 0.960 . S
H3175 C3188 0.960 . S
C3176 H3168 0.929 . S
C3176 C3177 1.377 . S
C3176 C3178 1.384 . S
C3177 C3176 1.377 . S
C3177 C3183 1.390 . S
C3178 H3169 0.930 . S
C3178 C3176 1.384 . S
C3178 C3179 1.372 . S
C3179 C3178 1.372 . S
C3179 C3180 1.400 . S
C3179 C3184 1.490 . S
C3180 H3170 0.930 . S
C3180 C3179 1.400 . S
C3180 C3183 1.386 . S
H3181 C3197 0.930 . S
H3182 C3198 0.931 . S
C3183 H3171 0.929 . S
C3183 C3177 1.390 . S
C3183 C3180 1.386 . S
C3184 C3179 1.490 . S
C3184 C3186 1.395 . S
C3184 C3187 1.403 . S
H3185 C3191 0.930 . S
C3186 H3172 0.930 . S
C3186 C3184 1.395 . S
C3186 C3189 1.403 . S
C3187 C3184 1.403 . S
C3187 C3188 1.524 . S
C3187 C3191 1.400 . S
C3188 H3173 0.960 . S
C3188 H3174 0.960 . S
C3188 H3175 0.960 . S
C3188 C3187 1.524 . S
C3189 C3186 1.403 . S
C3189 C3190 1.392 . S
C3189 C3193 1.495 . S
C3190 C3189 1.392 . S
C3190 C3191 1.385 . S
C3190 C3192 1.478 . S
C3191 H3185 0.930 . S
C3191 C3187 1.400 . S
C3191 C3190 1.385 . S
C3192 C3190 1.478 . S
C3192 C3194 1.381 . S
C3192 C3198 1.383 . S
C3193 C3189 1.495 . S
C3193 H3199 0.959 . S
C3193 H3200 0.961 . S
C3193 H3201 0.960 . S
C3194 C3192 1.381 . S
C3194 C3195 1.394 . S
C3194 H3202 0.930 . S
C3195 C3194 1.394 . S
C3195 C3196 1.383 . S
C3195 H3203 0.929 . S
C3196 C3195 1.383 . S
C3196 C3197 1.377 . S
C3197 H3181 0.930 . S
C3197 C3196 1.377 . S
C3197 C3198 1.379 . S
C3198 H3182 0.931 . S
C3198 C3192 1.383 . S
C3198 C3197 1.379 . S
H3199 C3193 0.959 . S
H3200 C3193 0.961 . S
H3201 C3193 0.960 . S
H3202 C3194 0.930 . S
H3203 C3195 0.929 . S
H3204 C3212 0.929 . S
H3205 C3214 0.930 . S
H3206 C3216 0.930 . S
H3207 C3219 0.929 . S
H3208 C3222 0.930 . S
H3209 C3224 0.960 . S
H3210 C3224 0.960 . S
H3211 C3224 0.960 . S
C3212 H3204 0.929 . S
C3212 C3213 1.377 . S
C3212 C3214 1.384 . S
C3213 C3212 1.377 . S
C3213 C3219 1.390 . S
C3214 H3205 0.930 . S
C3214 C3212 1.384 . S
C3214 C3215 1.372 . S
C3215 C3214 1.372 . S
C3215 C3216 1.400 . S
C3215 C3220 1.490 . S
C3216 H3206 0.930 . S
C3216 C3215 1.400 . S
C3216 C3219 1.386 . S
H3217 C3233 0.930 . S
H3218 C3234 0.931 . S
C3219 H3207 0.929 . S
C3219 C3213 1.390 . S
C3219 C3216 1.386 . S
C3220 C3215 1.490 . S
C3220 C3222 1.395 . S
C3220 C3223 1.403 . S
H3221 C3227 0.930 . S
C3222 H3208 0.930 . S
C3222 C3220 1.395 . S
C3222 C3225 1.403 . S
C3223 C3220 1.403 . S
C3223 C3224 1.524 . S
C3223 C3227 1.400 . S
C3224 H3209 0.960 . S
C3224 H3210 0.960 . S
C3224 H3211 0.960 . S
C3224 C3223 1.524 . S
C3225 C3222 1.403 . S
C3225 C3226 1.392 . S
C3225 C3229 1.495 . S
C3226 C3225 1.392 . S
C3226 C3227 1.385 . S
C3226 C3228 1.478 1_565 S
C3227 H3221 0.930 . S
C3227 C3223 1.400 . S
C3227 C3226 1.385 . S
C3228 C3226 1.478 1_545 S
C3228 C3230 1.381 . S
C3228 C3234 1.383 . S
C3229 C3225 1.495 . S
C3229 H3235 0.959 . S
C3229 H3236 1.046 . S
C3229 H3237 0.960 . S
C3230 C3228 1.381 . S
C3230 C3231 1.394 . S
C3230 H3238 0.929 1_545 S
C3231 C3230 1.394 . S
C3231 C3232 1.383 . S
C3231 H3239 0.929 . S
C3232 C3231 1.383 . S
C3232 C3233 1.377 . S
C3233 H3217 0.930 . S
C3233 C3232 1.377 . S
C3233 C3234 1.379 . S
C3234 H3218 0.931 . S
C3234 C3228 1.383 . S
C3234 C3233 1.379 . S
H3235 C3229 0.959 . S
H3236 C3229 1.046 . S
H3237 C3229 0.960 . S
H3238 C3230 0.929 1_565 S
H3239 C3231 0.929 . S
H3240 C3248 0.929 . S
H3241 C3250 0.930 1_565 S
H3242 C3252 0.930 1_556 S
H3243 C3255 0.929 . S
H3244 C3258 0.930 . S
H3245 C3260 0.960 . S
H3246 C3260 0.960 . S
H3247 C3260 0.960 . S
C3248 H3240 0.929 . S
C3248 C3249 1.377 . S
C3248 C3250 1.384 . S
C3249 C3248 1.377 . S
C3249 C3255 1.390 . S
C3250 H3241 0.930 1_545 S
C3250 C3248 1.384 . S
C3250 C3251 1.373 1_545 S
C3251 C3250 1.373 1_565 S
C3251 C3252 1.401 1_565 S
C3251 C3256 1.488 . S
C3252 H3242 0.930 1_554 S
C3252 C3251 1.401 1_545 S
C3252 C3255 1.386 . S
H3253 C3269 0.930 . S
H3254 C3270 0.931 . S
C3255 H3243 0.929 . S
C3255 C3249 1.390 . S
C3255 C3252 1.386 . S
C3256 C3251 1.488 . S
C3256 C3258 1.395 . S
C3256 C3259 1.403 . S
H3257 C3263 0.933 . S
C3258 H3244 0.930 . S
C3258 C3256 1.395 . S
C3258 C3261 1.411 . S
C3259 C3256 1.403 . S
C3259 C3260 1.524 . S
C3259 C3263 1.396 1_554 S
C3260 H3245 0.960 . S
C3260 H3246 0.960 . S
C3260 H3247 0.960 . S
C3260 C3259 1.524 . S
C3261 C3258 1.411 . S
C3261 C3262 1.389 1_554 S
C3261 C3265 1.492 1_554 S
C3262 C3261 1.389 1_556 S
C3262 C3263 1.387 . S
C3262 C3264 1.478 . S
C3263 H3257 0.933 . S
C3263 C3259 1.396 1_556 S
C3263 C3262 1.387 . S
C3264 C3262 1.478 . S
C3264 C3266 1.381 1_556 S
C3264 C3270 1.383 . S
C3265 C3261 1.492 1_556 S
C3265 H3271 0.951 1_556 S
C3265 H3272 0.961 . S
C3265 H3273 0.960 1_556 S
C3266 C3264 1.381 1_554 S
C3266 C3267 1.394 1_554 S
C3266 H3274 0.930 . S
C3267 C3266 1.394 1_556 S
C3267 C3268 1.383 . S
C3267 H3275 0.929 1_556 S
C3268 C3267 1.383 . S
C3268 C3269 1.377 . S
C3269 H3253 0.930 . S
C3269 C3268 1.377 . S
C3269 C3270 1.379 . S
C3270 H3254 0.931 . S
C3270 C3264 1.383 . S
C3270 C3269 1.379 . S
H3271 C3265 0.951 1_554 S
H3272 C3265 0.961 . S
H3273 C3265 0.960 1_554 S
H3274 C3266 0.930 . S
H3275 C3267 0.929 1_554 S
H3276 C3284 0.929 1_554 S
H3277 C3286 0.930 . S
H3278 C3288 0.930 . S
H3279 C3291 0.929 . S
H3280 C3294 0.930 . S
H3281 C3296 0.960 . S
H3282 C3296 0.960 . S
H3283 C3296 0.960 . S
C3284 H3276 0.929 1_556 S
C3284 C3285 1.377 . S
C3284 C3286 1.384 1_556 S
C3285 C3284 1.377 . S
C3285 C3291 1.390 . S
C3286 H3277 0.930 . S
C3286 C3284 1.384 1_554 S
C3286 C3287 1.372 1_554 S
C3287 C3286 1.372 1_556 S
C3287 C3288 1.400 . S
C3287 C3292 1.490 . S
C3288 H3278 0.930 . S
C3288 C3287 1.400 . S
C3288 C3291 1.386 . S
H3289 C3305 0.930 1_556 S
H3290 C3306 0.931 1_556 S
C3291 H3279 0.929 . S
C3291 C3285 1.390 . S
C3291 C3288 1.386 . S
C3292 C3287 1.490 . S
C3292 C3294 1.395 1_556 S
C3292 C3295 1.403 . S
H3293 C3299 0.930 . S
C3294 H3280 0.930 . S
C3294 C3292 1.395 1_554 S
C3294 C3297 1.403 . S
C3295 C3292 1.403 . S
C3295 C3296 1.524 . S
C3295 C3299 1.400 . S
C3296 H3281 0.960 . S
C3296 H3282 0.960 . S
C3296 H3283 0.960 . S
C3296 C3295 1.524 . S
C3297 C3294 1.403 . S
C3297 C3298 1.392 . S
C3297 C3301 1.495 . S
C3298 C3297 1.392 . S
C3298 C3299 1.385 1_554 S
C3298 C3300 1.445 1_455 S
C3299 H3293 0.930 . S
C3299 C3295 1.400 . S
C3299 C3298 1.385 1_556 S
C3300 C3298 1.445 1_655 S
C3300 C3302 1.385 . S
C3300 C3306 1.411 . S
C3301 C3297 1.495 . S
C3301 H3307 0.959 . S
C3301 H3308 0.961 . S
C3301 H3309 0.960 . S
C3302 C3300 1.385 . S
C3302 C3303 1.394 . S
C3302 H3310 0.930 1_655 S
C3303 C3302 1.394 . S
C3303 C3304 1.383 . S
C3303 H3311 0.929 . S
C3304 C3303 1.383 . S
C3304 C3305 1.377 . S
C3305 H3289 0.930 1_554 S
C3305 C3304 1.377 . S
C3305 C3306 1.379 . S
C3306 H3290 0.931 1_554 S
C3306 C3300 1.411 . S
C3306 C3305 1.379 . S
H3307 C3301 0.959 . S
H3308 C3301 0.961 . S
H3309 C3301 0.960 . S
H3310 C3302 0.930 1_455 S
H3311 C3303 0.929 . S
H3312 C3320 0.929 . S
H3313 C3322 0.930 1_556 S
H3314 C3324 0.930 . S
H3315 C3327 0.929 . S
H3316 C3330 0.930 . S
H3317 C3332 0.960 . S
H3318 C3332 0.960 . S
H3319 C3332 0.960 1_554 S
C3320 H3312 0.929 . S
C3320 C3321 1.377 . S
C3320 C3322 1.384 . S
C3321 C3320 1.377 . S
C3321 C3327 1.390 . S
C3322 H3313 0.930 1_554 S
C3322 C3320 1.384 . S
C3322 C3323 1.372 . S
C3323 C3322 1.372 . S
C3323 C3324 1.400 . S
C3323 C3328 1.490 . S
C3324 H3314 0.930 . S
C3324 C3323 1.400 . S
C3324 C3327 1.386 . S
H3325 C3341 0.930 1_554 S
H3326 C3342 0.931 . S
C3327 H3315 0.929 . S
C3327 C3321 1.390 . S
C3327 C3324 1.386 . S
C3328 C3323 1.490 . S
C3328 C3330 1.395 . S
C3328 C3331 1.395 1_554 S
H3329 C3335 0.930 . S
C3330 H3316 0.930 . S
C3330 C3328 1.395 . S
C3330 C3333 1.403 . S
C3331 C3328 1.395 1_556 S
C3331 C3332 1.527 . S
C3331 C3335 1.405 . S
C3332 H3317 0.960 . S
C3332 H3318 0.960 . S
C3332 H3319 0.960 1_556 S
C3332 C3331 1.527 . S
C3333 C3330 1.403 . S
C3333 C3334 1.392 1_554 S
C3333 C3337 1.495 . S
C3334 C3333 1.392 1_556 S
C3334 C3335 1.385 . S
C3334 C3336 1.478 . S
C3335 H3329 0.930 . S
C3335 C3331 1.405 . S
C3335 C3334 1.385 . S
C3336 C3334 1.478 . S
C3336 C3338 1.381 . S
C3336 C3342 1.383 1_556 S
C3337 C3333 1.495 . S
C3337 H3343 0.959 . S
C3337 H3344 0.961 . S
C3337 H3345 0.960 1_554 S
C3338 C3336 1.381 . S
C3338 C3339 1.394 . S
C3338 H3346 0.930 . S
C3339 C3338 1.394 . S
C3339 C3340 1.383 . S
C3339 H3347 0.929 . S
C3340 C3339 1.383 . S
C3340 C3341 1.377 . S
C3341 H3325 0.930 1_556 S
C3341 C3340 1.377 . S
C3341 C3342 1.379 1_556 S
C3342 H3326 0.931 . S
C3342 C3336 1.383 1_554 S
C3342 C3341 1.379 1_554 S
H3343 C3337 0.959 . S
H3344 C3337 0.961 . S
H3345 C3337 0.960 1_556 S
H3346 C3338 0.930 . S
H3347 C3339 0.929 . S
H3348 C3356 0.929 . S
H3349 C3358 0.930 1_655 S
H3350 C3360 0.930 . S
H3351 C3363 0.929 . S
H3352 C3366 0.930 . S
H3353 C3368 0.960 . S
H3354 C3368 0.960 . S
H3355 C3368 0.960 . S
C3356 H3348 0.929 . S
C3356 C3357 1.377 . S
C3356 C3358 1.384 . S
C3357 C3356 1.377 . S
C3357 C3363 1.390 . S
C3358 H3349 0.930 1_455 S
C3358 C3356 1.384 . S
C3358 C3359 1.397 . S
C3359 C3358 1.397 . S
C3359 C3360 1.421 . S
C3359 C3364 1.447 1_455 S
C3360 H3350 0.930 . S
C3360 C3359 1.421 . S
C3360 C3363 1.386 . S
H3361 C3377 0.930 . S
H3362 C3378 0.931 . S
C3363 H3351 0.929 . S
C3363 C3357 1.390 . S
C3363 C3360 1.386 . S
C3364 C3359 1.447 1_655 S
C3364 C3366 1.395 . S
C3364 C3367 1.403 . S
H3365 C3371 0.930 . S
C3366 H3352 0.930 . S
C3366 C3364 1.395 . S
C3366 C3369 1.403 . S
C3367 C3364 1.403 . S
C3367 C3368 1.524 . S
C3367 C3371 1.400 . S
C3368 H3353 0.960 . S
C3368 H3354 0.960 . S
C3368 H3355 0.960 . S
C3368 C3367 1.524 . S
C3369 C3366 1.403 . S
C3369 C3370 1.392 . S
C3369 C3373 1.495 . S
C3370 C3369 1.392 . S
C3370 C3371 1.385 . S
C3370 C3372 1.478 . S
C3371 H3365 0.930 . S
C3371 C3367 1.400 . S
C3371 C3370 1.385 . S
C3372 C3370 1.478 . S
C3372 C3374 1.381 . S
C3372 C3378 1.383 . S
C3373 C3369 1.495 . S
C3373 H3379 0.959 . S
C3373 H3380 0.961 . S
C3373 H3381 0.960 . S
C3374 C3372 1.381 . S
C3374 C3375 1.394 . S
C3374 H3382 0.930 . S
C3375 C3374 1.394 . S
C3375 C3376 1.383 . S
C3375 H3383 0.929 . S
C3376 C3375 1.383 . S
C3376 C3377 1.377 . S
C3377 H3361 0.930 . S
C3377 C3376 1.377 . S
C3377 C3378 1.379 . S
C3378 H3362 0.931 . S
C3378 C3372 1.383 . S
C3378 C3377 1.379 . S
H3379 C3373 0.959 . S
H3380 C3373 0.961 . S
H3381 C3373 0.960 . S
H3382 C3374 0.930 . S
H3383 C3375 0.929 . S
H3384 C3392 0.929 . S
H3385 C3394 0.930 . S
H3386 C3396 0.930 . S
H3387 C3399 0.929 . S
H3388 C3402 0.930 . S
H3389 C3404 0.960 . S
H3390 C3404 0.960 . S
H3391 C3404 0.960 . S
C3392 H3384 0.929 . S
C3392 C3393 1.377 . S
C3392 C3394 1.384 . S
C3393 C3392 1.377 . S
C3393 C3399 1.390 . S
C3394 H3385 0.930 . S
C3394 C3392 1.384 . S
C3394 C3395 1.372 . S
C3395 C3394 1.372 . S
C3395 C3396 1.400 . S
C3395 C3400 1.490 . S
C3396 H3386 0.930 . S
C3396 C3395 1.400 . S
C3396 C3399 1.386 . S
H3397 C3413 0.930 . S
H3398 C3414 0.931 . S
C3399 H3387 0.929 . S
C3399 C3393 1.390 . S
C3399 C3396 1.386 . S
C3400 C3395 1.490 . S
C3400 C3402 1.395 . S
C3400 C3403 1.403 . S
H3401 C3407 0.930 . S
C3402 H3388 0.930 . S
C3402 C3400 1.395 . S
C3402 C3405 1.403 . S
C3403 C3400 1.403 . S
C3403 C3404 1.524 . S
C3403 C3407 1.400 . S
C3404 H3389 0.960 . S
C3404 H3390 0.960 . S
C3404 H3391 0.960 . S
C3404 C3403 1.524 . S
C3405 C3402 1.403 . S
C3405 C3406 1.392 . S
C3405 C3409 1.495 . S
C3406 C3405 1.392 . S
C3406 C3407 1.385 . S
C3406 C3408 1.478 . S
C3407 H3401 0.930 . S
C3407 C3403 1.400 . S
C3407 C3406 1.385 . S
C3408 C3406 1.478 . S
C3408 C3410 1.381 . S
C3408 C3414 1.383 . S
C3409 C3405 1.495 . S
C3409 H3415 0.959 . S
C3409 H3416 0.961 . S
C3409 H3417 0.960 . S
C3410 C3408 1.381 . S
C3410 C3411 1.394 . S
C3410 H3418 0.930 . S
C3411 C3410 1.394 . S
C3411 C3412 1.383 . S
C3411 H3419 0.929 . S
C3412 C3411 1.383 . S
C3412 C3413 1.377 . S
C3413 H3397 0.930 . S
C3413 C3412 1.377 . S
C3413 C3414 1.379 . S
C3414 H3398 0.931 . S
C3414 C3408 1.383 . S
C3414 C3413 1.379 . S
H3415 C3409 0.959 . S
H3416 C3409 0.961 . S
H3417 C3409 0.960 . S
H3418 C3410 0.930 . S
H3419 C3411 0.929 . S
H3420 C3428 0.929 . S
H3421 C3430 0.930 . S
H3422 C3432 0.930 . S
H3423 C3435 0.929 . S
H3424 C3438 0.930 . S
H3425 C3440 0.960 . S
H3426 C3440 0.960 . S
H3427 C3440 0.960 . S
C3428 H3420 0.929 . S
C3428 C3429 1.377 . S
C3428 C3430 1.384 . S
C3429 C3428 1.377 . S
C3429 C3435 1.390 . S
C3430 H3421 0.930 . S
C3430 C3428 1.384 . S
C3430 C3431 1.372 . S
C3431 C3430 1.372 . S
C3431 C3432 1.400 . S
C3431 C3436 1.490 . S
C3432 H3422 0.930 . S
C3432 C3431 1.400 . S
C3432 C3435 1.386 . S
H3433 C3449 0.930 . S
H3434 C3450 0.931 1_545 S
C3435 H3423 0.929 . S
C3435 C3429 1.390 . S
C3435 C3432 1.386 . S
C3436 C3431 1.490 . S
C3436 C3438 1.395 . S
C3436 C3439 1.403 . S
H3437 C3443 0.930 . S
C3438 H3424 0.930 . S
C3438 C3436 1.395 . S
C3438 C3441 1.403 . S
C3439 C3436 1.403 . S
C3439 C3440 1.524 . S
C3439 C3443 1.400 . S
C3440 H3425 0.960 . S
C3440 H3426 0.960 . S
C3440 H3427 0.960 . S
C3440 C3439 1.524 . S
C3441 C3438 1.403 . S
C3441 C3442 1.392 . S
C3441 C3445 1.495 . S
C3442 C3441 1.392 . S
C3442 C3443 1.385 . S
C3442 C3444 1.478 1_545 S
C3443 H3437 0.930 . S
C3443 C3439 1.400 . S
C3443 C3442 1.385 . S
C3444 C3442 1.478 1_565 S
C3444 C3446 1.381 . S
C3444 C3450 1.383 . S
C3445 C3441 1.495 . S
C3445 H3451 0.959 . S
C3445 H3452 0.961 . S
C3445 H3453 1.006 . S
C3446 C3444 1.381 . S
C3446 C3447 1.394 . S
C3446 H3454 0.930 . S
C3447 C3446 1.394 . S
C3447 C3448 1.383 . S
C3447 H3455 0.929 . S
C3448 C3447 1.383 . S
C3448 C3449 1.377 . S
C3449 H3433 0.930 . S
C3449 C3448 1.377 . S
C3449 C3450 1.379 . S
C3450 H3434 0.931 1_565 S
C3450 C3444 1.383 . S
C3450 C3449 1.379 . S
H3451 C3445 0.959 . S
H3452 C3445 0.961 . S
H3453 C3445 1.006 . S
H3454 C3446 0.930 . S
H3455 C3447 0.929 . S
H3456 C3464 0.929 . S
H3457 C3466 0.930 . S
H3458 C3468 0.930 . S
H3459 C3471 0.929 . S
H3460 C3474 0.930 . S
H3461 C3476 0.960 . S
H3462 C3476 0.960 . S
H3463 C3476 0.960 . S
C3464 H3456 0.929 . S
C3464 C3465 1.377 . S
C3464 C3466 1.384 . S
C3465 C3464 1.377 . S
C3465 C3471 1.390 . S
C3466 H3457 0.930 . S
C3466 C3464 1.384 . S
C3466 C3467 1.372 . S
C3467 C3466 1.372 . S
C3467 C3468 1.400 . S
C3467 C3472 1.490 . S
C3468 H3458 0.930 . S
C3468 C3467 1.400 . S
C3468 C3471 1.386 . S
H3469 C3485 0.930 . S
H3470 C3486 0.931 . S
C3471 H3459 0.929 . S
C3471 C3465 1.390 . S
C3471 C3468 1.386 . S
C3472 C3467 1.490 . S
C3472 C3474 1.395 . S
C3472 C3475 1.403 . S
H3473 C3479 0.930 . S
C3474 H3460 0.930 . S
C3474 C3472 1.395 . S
C3474 C3477 1.403 . S
C3475 C3472 1.403 . S
C3475 C3476 1.524 . S
C3475 C3479 1.400 . S
C3476 H3461 0.960 . S
C3476 H3462 0.960 . S
C3476 H3463 0.960 . S
C3476 C3475 1.524 . S
C3477 C3474 1.403 . S
C3477 C3478 1.392 . S
C3477 C3481 1.495 . S
C3478 C3477 1.392 . S
C3478 C3479 1.385 . S
C3478 C3480 1.478 . S
C3479 H3473 0.930 . S
C3479 C3475 1.400 . S
C3479 C3478 1.385 . S
C3480 C3478 1.478 . S
C3480 C3482 1.381 . S
C3480 C3486 1.383 . S
C3481 C3477 1.495 . S
C3481 H3487 0.959 . S
C3481 H3488 0.961 . S
C3481 H3489 0.960 . S
C3482 C3480 1.381 . S
C3482 C3483 1.394 . S
C3482 H3490 0.930 . S
C3483 C3482 1.394 . S
C3483 C3484 1.383 . S
C3483 H3491 0.929 . S
C3484 C3483 1.383 . S
C3484 C3485 1.377 . S
C3485 H3469 0.930 . S
C3485 C3484 1.377 . S
C3485 C3486 1.379 . S
C3486 H3470 0.931 . S
C3486 C3480 1.383 . S
C3486 C3485 1.379 . S
H3487 C3481 0.959 . S
H3488 C3481 0.961 . S
H3489 C3481 0.960 . S
H3490 C3482 0.930 . S
H3491 C3483 0.929 . S
H3492 C3500 0.929 . S
H3493 C3502 0.930 . S
H3494 C3504 0.930 . S
H3495 C3507 0.929 . S
H3496 C3510 0.930 . S
H3497 C3512 0.960 . S
H3498 C3512 0.960 . S
H3499 C3512 0.960 . S
C3500 H3492 0.929 . S
C3500 C3501 1.377 . S
C3500 C3502 1.384 . S
C3501 C3500 1.377 . S
C3501 C3507 1.390 . S
C3502 H3493 0.930 . S
C3502 C3500 1.384 . S
C3502 C3503 1.372 . S
C3503 C3502 1.372 . S
C3503 C3504 1.400 . S
C3503 C3508 1.490 . S
C3504 H3494 0.930 . S
C3504 C3503 1.400 . S
C3504 C3507 1.386 . S
H3505 C3521 0.930 . S
H3506 C3522 0.931 . S
C3507 H3495 0.929 . S
C3507 C3501 1.390 . S
C3507 C3504 1.386 . S
C3508 C3503 1.490 . S
C3508 C3510 1.395 . S
C3508 C3511 1.403 . S
H3509 C3515 0.930 . S
C3510 H3496 0.930 . S
C3510 C3508 1.395 . S
C3510 C3513 1.403 . S
C3511 C3508 1.403 . S
C3511 C3512 1.524 . S
C3511 C3515 1.400 . S
C3512 H3497 0.960 . S
C3512 H3498 0.960 . S
C3512 H3499 0.960 . S
C3512 C3511 1.524 . S
C3513 C3510 1.403 . S
C3513 C3514 1.392 . S
C3513 C3517 1.495 . S
C3514 C3513 1.392 . S
C3514 C3515 1.385 . S
C3514 C3516 1.478 . S
C3515 H3509 0.930 . S
C3515 C3511 1.400 . S
C3515 C3514 1.385 . S
C3516 C3514 1.478 . S
C3516 C3518 1.381 . S
C3516 C3522 1.383 . S
C3517 C3513 1.495 . S
C3517 H3523 0.959 . S
C3517 H3524 0.961 . S
C3517 H3525 0.960 . S
C3518 C3516 1.381 . S
C3518 C3519 1.394 . S
C3518 H3526 0.930 . S
C3519 C3518 1.394 . S
C3519 C3520 1.383 . S
C3519 H3527 0.929 . S
C3520 C3519 1.383 . S
C3520 C3521 1.377 . S
C3521 H3505 0.930 . S
C3521 C3520 1.377 . S
C3521 C3522 1.379 . S
C3522 H3506 0.931 . S
C3522 C3516 1.383 . S
C3522 C3521 1.379 . S
H3523 C3517 0.959 . S
H3524 C3517 0.961 . S
H3525 C3517 0.960 . S
H3526 C3518 0.930 . S
H3527 C3519 0.929 . S
H3528 C3536 0.929 . S
H3529 C3538 0.930 . S
H3530 C3540 0.930 . S
H3531 C3543 0.929 . S
H3532 C3546 0.930 . S
H3533 C3548 0.960 . S
H3534 C3548 0.960 . S
H3535 C3548 0.960 . S
C3536 H3528 0.929 . S
C3536 C3537 1.377 . S
C3536 C3538 1.384 . S
C3537 C3536 1.377 . S
C3537 C3543 1.390 . S
C3538 H3529 0.930 . S
C3538 C3536 1.384 . S
C3538 C3539 1.372 . S
C3539 C3538 1.372 . S
C3539 C3540 1.400 . S
C3539 C3544 1.490 . S
C3540 H3530 0.930 . S
C3540 C3539 1.400 . S
C3540 C3543 1.386 . S
H3541 C3557 0.930 . S
H3542 C3558 0.931 . S
C3543 H3531 0.929 . S
C3543 C3537 1.390 . S
C3543 C3540 1.386 . S
C3544 C3539 1.490 . S
C3544 C3546 1.395 . S
C3544 C3547 1.403 . S
H3545 C3551 0.930 . S
C3546 H3532 0.930 . S
C3546 C3544 1.395 . S
C3546 C3549 1.403 . S
C3547 C3544 1.403 . S
C3547 C3548 1.524 . S
C3547 C3551 1.400 . S
C3548 H3533 0.960 . S
C3548 H3534 0.960 . S
C3548 H3535 0.960 . S
C3548 C3547 1.524 . S
C3549 C3546 1.403 . S
C3549 C3550 1.392 . S
C3549 C3553 1.495 . S
C3550 C3549 1.392 . S
C3550 C3551 1.385 . S
C3550 C3552 1.478 . S
C3551 H3545 0.930 . S
C3551 C3547 1.400 . S
C3551 C3550 1.385 . S
C3552 C3550 1.478 . S
C3552 C3554 1.381 . S
C3552 C3558 1.383 . S
C3553 C3549 1.495 . S
C3553 H3559 0.959 . S
C3553 H3560 0.961 . S
C3553 H3561 0.960 . S
C3554 C3552 1.381 . S
C3554 C3555 1.394 . S
C3554 H3562 0.930 . S
C3555 C3554 1.394 . S
C3555 C3556 1.383 . S
C3555 H3563 0.929 . S
C3556 C3555 1.383 . S
C3556 C3557 1.377 . S
C3557 H3541 0.930 . S
C3557 C3556 1.377 . S
C3557 C3558 1.379 . S
C3558 H3542 0.931 . S
C3558 C3552 1.383 . S
C3558 C3557 1.379 . S
H3559 C3553 0.959 . S
H3560 C3553 0.961 . S
H3561 C3553 0.960 . S
H3562 C3554 0.930 . S
H3563 C3555 0.929 . S
H3564 C3572 0.929 . S
H3565 C3574 0.930 . S
H3566 C3576 0.930 . S
H3567 C3579 0.929 . S
H3568 C3582 0.930 . S
H3569 C3584 0.960 . S
H3570 C3584 0.960 . S
H3571 C3584 0.960 . S
C3572 H3564 0.929 . S
C3572 C3573 1.377 . S
C3572 C3574 1.384 . S
C3573 C3572 1.377 . S
C3573 C3579 1.390 . S
C3574 H3565 0.930 . S
C3574 C3572 1.384 . S
C3574 C3575 1.372 . S
C3575 C3574 1.372 . S
C3575 C3576 1.400 . S
C3575 C3580 1.490 . S
C3576 H3566 0.930 . S
C3576 C3575 1.400 . S
C3576 C3579 1.386 . S
H3577 C3593 0.930 . S
H3578 C3594 0.931 . S
C3579 H3567 0.929 . S
C3579 C3573 1.390 . S
C3579 C3576 1.386 . S
C3580 C3575 1.490 . S
C3580 C3582 1.395 . S
C3580 C3583 1.403 . S
H3581 C3587 0.930 . S
C3582 H3568 0.930 . S
C3582 C3580 1.395 . S
C3582 C3585 1.403 . S
C3583 C3580 1.403 . S
C3583 C3584 1.524 . S
C3583 C3587 1.400 . S
C3584 H3569 0.960 . S
C3584 H3570 0.960 . S
C3584 H3571 0.960 . S
C3584 C3583 1.524 . S
C3585 C3582 1.403 . S
C3585 C3586 1.392 . S
C3585 C3589 1.495 . S
C3586 C3585 1.392 . S
C3586 C3587 1.385 . S
C3586 C3588 1.478 . S
C3587 H3581 0.930 . S
C3587 C3583 1.400 . S
C3587 C3586 1.385 . S
C3588 C3586 1.478 . S
C3588 C3590 1.381 . S
C3588 C3594 1.383 . S
C3589 C3585 1.495 . S
C3589 H3595 0.959 . S
C3589 H3596 0.961 . S
C3589 H3597 0.960 . S
C3590 C3588 1.381 . S
C3590 C3591 1.394 . S
C3590 H3598 0.930 . S
C3591 C3590 1.394 . S
C3591 C3592 1.383 . S
C3591 H3599 0.929 . S
C3592 C3591 1.383 . S
C3592 C3593 1.377 . S
C3593 H3577 0.930 . S
C3593 C3592 1.377 . S
C3593 C3594 1.379 . S
C3594 H3578 0.931 . S
C3594 C3588 1.383 . S
C3594 C3593 1.379 . S
H3595 C3589 0.959 . S
H3596 C3589 0.961 . S
H3597 C3589 0.960 . S
H3598 C3590 0.930 . S
H3599 C3591 0.929 . S
H3600 C3608 0.929 . S
H3601 C3610 0.930 . S
H3602 C3612 0.930 . S
H3603 C3615 0.929 . S
H3604 C3618 0.930 . S
H3605 C3620 0.960 . S
H3606 C3620 0.960 . S
H3607 C3620 0.960 . S
C3608 H3600 0.929 . S
C3608 C3609 1.377 . S
C3608 C3610 1.384 . S
C3609 C3608 1.377 . S
C3609 C3615 1.390 . S
C3610 H3601 0.930 . S
C3610 C3608 1.384 . S
C3610 C3611 1.372 . S
C3611 C3610 1.372 . S
C3611 C3612 1.400 . S
C3611 C3616 1.490 . S
C3612 H3602 0.930 . S
C3612 C3611 1.400 . S
C3612 C3615 1.386 . S
H3613 C3629 0.930 . S
H3614 C3630 0.931 . S
C3615 H3603 0.929 . S
C3615 C3609 1.390 . S
C3615 C3612 1.386 . S
C3616 C3611 1.490 . S
C3616 C3618 1.395 . S
C3616 C3619 1.403 . S
H3617 C3623 0.930 . S
C3618 H3604 0.930 . S
C3618 C3616 1.395 . S
C3618 C3621 1.403 . S
C3619 C3616 1.403 . S
C3619 C3620 1.524 . S
C3619 C3623 1.400 . S
C3620 H3605 0.960 . S
C3620 H3606 0.960 . S
C3620 H3607 0.960 . S
C3620 C3619 1.524 . S
C3621 C3618 1.403 . S
C3621 C3622 1.392 . S
C3621 C3625 1.495 . S
C3622 C3621 1.392 . S
C3622 C3623 1.385 . S
C3622 C3624 1.478 . S
C3623 H3617 0.930 . S
C3623 C3619 1.400 . S
C3623 C3622 1.385 . S
C3624 C3622 1.478 . S
C3624 C3626 1.381 . S
C3624 C3630 1.383 . S
C3625 C3621 1.495 . S
C3625 H3631 0.959 . S
C3625 H3632 0.961 . S
C3625 H3633 0.960 . S
C3626 C3624 1.381 . S
C3626 C3627 1.394 . S
C3626 H3634 0.930 . S
C3627 C3626 1.394 . S
C3627 C3628 1.383 . S
C3627 H3635 0.929 . S
C3628 C3627 1.383 . S
C3628 C3629 1.377 . S
C3629 H3613 0.930 . S
C3629 C3628 1.377 . S
C3629 C3630 1.379 . S
C3630 H3614 0.931 . S
C3630 C3624 1.383 . S
C3630 C3629 1.379 . S
H3631 C3625 0.959 . S
H3632 C3625 0.961 . S
H3633 C3625 0.960 . S
H3634 C3626 0.930 . S
H3635 C3627 0.929 . S
H3636 C3644 0.929 . S
H3637 C3646 0.930 . S
H3638 C3648 0.930 . S
H3639 C3651 0.929 . S
H3640 C3654 0.930 . S
H3641 C3656 0.960 . S
H3642 C3656 0.960 . S
H3643 C3656 0.960 . S
C3644 H3636 0.929 . S
C3644 C3645 1.377 . S
C3644 C3646 1.384 . S
C3645 C3644 1.377 . S
C3645 C3651 1.390 . S
C3646 H3637 0.930 . S
C3646 C3644 1.384 . S
C3646 C3647 1.372 . S
C3647 C3646 1.372 . S
C3647 C3648 1.400 . S
C3647 C3652 1.490 . S
C3648 H3638 0.930 . S
C3648 C3647 1.400 . S
C3648 C3651 1.386 . S
H3649 C3665 0.930 . S
H3650 C3666 0.931 . S
C3651 H3639 0.929 . S
C3651 C3645 1.390 . S
C3651 C3648 1.386 . S
C3652 C3647 1.490 . S
C3652 C3654 1.395 . S
C3652 C3655 1.403 . S
H3653 C3659 0.930 . S
C3654 H3640 0.930 . S
C3654 C3652 1.395 . S
C3654 C3657 1.403 . S
C3655 C3652 1.403 . S
C3655 C3656 1.524 . S
C3655 C3659 1.400 . S
C3656 H3641 0.960 . S
C3656 H3642 0.960 . S
C3656 H3643 0.960 . S
C3656 C3655 1.524 . S
C3657 C3654 1.403 . S
C3657 C3658 1.392 . S
C3657 C3661 1.495 . S
C3658 C3657 1.392 . S
C3658 C3659 1.385 . S
C3658 C3660 1.478 . S
C3659 H3653 0.930 . S
C3659 C3655 1.400 . S
C3659 C3658 1.385 . S
C3660 C3658 1.478 . S
C3660 C3662 1.381 . S
C3660 C3666 1.383 . S
C3661 C3657 1.495 . S
C3661 H3667 0.959 . S
C3661 H3668 0.961 . S
C3661 H3669 0.960 . S
C3662 C3660 1.381 . S
C3662 C3663 1.394 . S
C3662 H3670 0.930 . S
C3663 C3662 1.394 . S
C3663 C3664 1.383 . S
C3663 H3671 0.929 . S
C3664 C3663 1.383 . S
C3664 C3665 1.377 . S
C3665 H3649 0.930 . S
C3665 C3664 1.377 . S
C3665 C3666 1.379 . S
C3666 H3650 0.931 . S
C3666 C3660 1.383 . S
C3666 C3665 1.379 . S
H3667 C3661 0.959 . S
H3668 C3661 0.961 . S
H3669 C3661 0.960 . S
H3670 C3662 0.930 . S
H3671 C3663 0.929 . S
H3672 C3680 0.929 . S
H3673 C3682 0.930 . S
H3674 C3684 0.930 . S
H3675 C3687 0.929 . S
H3676 C3690 0.930 . S
H3677 C3692 0.960 . S
H3678 C3692 0.960 . S
H3679 C3692 0.960 . S
C3680 H3672 0.929 . S
C3680 C3681 1.377 . S
C3680 C3682 1.384 . S
C3681 C3680 1.377 . S
C3681 C3687 1.390 . S
C3682 H3673 0.930 . S
C3682 C3680 1.384 . S
C3682 C3683 1.372 . S
C3683 C3682 1.372 . S
C3683 C3684 1.400 . S
C3683 C3688 1.490 . S
C3684 H3674 0.930 . S
C3684 C3683 1.400 . S
C3684 C3687 1.386 . S
H3685 C3701 0.930 . S
H3686 C3702 0.931 . S
C3687 H3675 0.929 . S
C3687 C3681 1.390 . S
C3687 C3684 1.386 . S
C3688 C3683 1.490 . S
C3688 C3690 1.395 . S
C3688 C3691 1.403 . S
H3689 C3695 0.930 . S
C3690 H3676 0.930 . S
C3690 C3688 1.395 . S
C3690 C3693 1.403 . S
C3691 C3688 1.403 . S
C3691 C3692 1.524 . S
C3691 C3695 1.400 . S
C3692 H3677 0.960 . S
C3692 H3678 0.960 . S
C3692 H3679 0.960 . S
C3692 C3691 1.524 . S
C3693 C3690 1.403 . S
C3693 C3694 1.392 . S
C3693 C3697 1.495 . S
C3694 C3693 1.392 . S
C3694 C3695 1.385 . S
C3694 C3696 1.478 . S
C3695 H3689 0.930 . S
C3695 C3691 1.400 . S
C3695 C3694 1.385 . S
C3696 C3694 1.478 . S
C3696 C3698 1.381 . S
C3696 C3702 1.383 . S
C3697 C3693 1.495 . S
C3697 H3703 0.959 . S
C3697 H3704 0.961 . S
C3697 H3705 0.960 . S
C3698 C3696 1.381 . S
C3698 C3699 1.394 . S
C3698 H3706 0.930 . S
C3699 C3698 1.394 . S
C3699 C3700 1.383 . S
C3699 H3707 0.929 . S
C3700 C3699 1.383 . S
C3700 C3701 1.377 . S
C3701 H3685 0.930 . S
C3701 C3700 1.377 . S
C3701 C3702 1.379 . S
C3702 H3686 0.931 . S
C3702 C3696 1.383 . S
C3702 C3701 1.379 . S
H3703 C3697 0.959 . S
H3704 C3697 0.961 . S
H3705 C3697 0.960 . S
H3706 C3698 0.930 . S
H3707 C3699 0.929 . S
H3708 C3716 0.929 . S
H3709 C3718 0.930 . S
H3710 C3720 0.930 . S
H3711 C3723 0.929 . S
H3712 C3726 0.930 . S
H3713 C3728 0.960 . S
H3714 C3728 0.960 . S
H3715 C3728 0.960 . S
C3716 H3708 0.929 . S
C3716 C3717 1.377 . S
C3716 C3718 1.384 . S
C3717 C3716 1.377 . S
C3717 C3723 1.390 . S
C3718 H3709 0.930 . S
C3718 C3716 1.384 . S
C3718 C3719 1.372 . S
C3719 C3718 1.372 . S
C3719 C3720 1.400 . S
C3719 C3724 1.490 . S
C3720 H3710 0.930 . S
C3720 C3719 1.400 . S
C3720 C3723 1.386 . S
H3721 C3737 0.930 . S
H3722 C3738 0.931 . S
C3723 H3711 0.929 . S
C3723 C3717 1.390 . S
C3723 C3720 1.386 . S
C3724 C3719 1.490 . S
C3724 C3726 1.395 . S
C3724 C3727 1.403 . S
H3725 C3731 0.930 . S
C3726 H3712 0.930 . S
C3726 C3724 1.395 . S
C3726 C3729 1.403 . S
C3727 C3724 1.403 . S
C3727 C3728 1.524 . S
C3727 C3731 1.400 . S
C3728 H3713 0.960 . S
C3728 H3714 0.960 . S
C3728 H3715 0.960 . S
C3728 C3727 1.524 . S
C3729 C3726 1.403 . S
C3729 C3730 1.392 . S
C3729 C3733 1.495 . S
C3730 C3729 1.392 . S
C3730 C3731 1.385 . S
C3730 C3732 1.478 . S
C3731 H3725 0.930 . S
C3731 C3727 1.400 . S
C3731 C3730 1.385 . S
C3732 C3730 1.478 . S
C3732 C3734 1.381 . S
C3732 C3738 1.383 . S
C3733 C3729 1.495 . S
C3733 H3739 0.959 . S
C3733 H3740 0.961 . S
C3733 H3741 0.960 . S
C3734 C3732 1.381 . S
C3734 C3735 1.394 . S
C3734 H3742 0.930 . S
C3735 C3734 1.394 . S
C3735 C3736 1.383 . S
C3735 H3743 0.929 . S
C3736 C3735 1.383 . S
C3736 C3737 1.377 . S
C3737 H3721 0.930 . S
C3737 C3736 1.377 . S
C3737 C3738 1.379 . S
C3738 H3722 0.931 . S
C3738 C3732 1.383 . S
C3738 C3737 1.379 . S
H3739 C3733 0.959 . S
H3740 C3733 0.961 . S
H3741 C3733 0.960 . S
H3742 C3734 0.930 . S
H3743 C3735 0.929 . S
H3744 C3752 0.929 . S
H3745 C3754 0.930 . S
H3746 C3756 0.930 . S
H3747 C3759 0.929 . S
H3748 C3762 0.930 . S
H3749 C3764 0.960 . S
H3750 C3764 0.960 . S
H3751 C3764 0.960 . S
C3752 H3744 0.929 . S
C3752 C3753 1.377 . S
C3752 C3754 1.384 . S
C3753 C3752 1.377 . S
C3753 C3759 1.390 . S
C3754 H3745 0.930 . S
C3754 C3752 1.384 . S
C3754 C3755 1.372 . S
C3755 C3754 1.372 . S
C3755 C3756 1.400 . S
C3755 C3760 1.490 . S
C3756 H3746 0.930 . S
C3756 C3755 1.400 . S
C3756 C3759 1.386 . S
H3757 C3773 0.930 . S
H3758 C3774 0.931 . S
C3759 H3747 0.929 . S
C3759 C3753 1.390 . S
C3759 C3756 1.386 . S
C3760 C3755 1.490 . S
C3760 C3762 1.395 . S
C3760 C3763 1.403 . S
H3761 C3767 0.930 . S
C3762 H3748 0.930 . S
C3762 C3760 1.395 . S
C3762 C3765 1.403 . S
C3763 C3760 1.403 . S
C3763 C3764 1.524 . S
C3763 C3767 1.400 . S
C3764 H3749 0.960 . S
C3764 H3750 0.960 . S
C3764 H3751 0.960 . S
C3764 C3763 1.524 . S
C3765 C3762 1.403 . S
C3765 C3766 1.392 . S
C3765 C3769 1.495 . S
C3766 C3765 1.392 . S
C3766 C3767 1.385 . S
C3766 C3768 1.478 . S
C3767 H3761 0.930 . S
C3767 C3763 1.400 . S
C3767 C3766 1.385 . S
C3768 C3766 1.478 . S
C3768 C3770 1.381 . S
C3768 C3774 1.383 . S
C3769 C3765 1.495 . S
C3769 H3775 0.959 . S
C3769 H3776 0.961 . S
C3769 H3777 0.960 . S
C3770 C3768 1.381 . S
C3770 C3771 1.394 . S
C3770 H3778 0.930 . S
C3771 C3770 1.394 . S
C3771 C3772 1.383 . S
C3771 H3779 0.929 . S
C3772 C3771 1.383 . S
C3772 C3773 1.377 . S
C3773 H3757 0.930 . S
C3773 C3772 1.377 . S
C3773 C3774 1.379 . S
C3774 H3758 0.931 . S
C3774 C3768 1.383 . S
C3774 C3773 1.379 . S
H3775 C3769 0.959 . S
H3776 C3769 0.961 . S
H3777 C3769 0.960 . S
H3778 C3770 0.930 . S
H3779 C3771 0.929 . S
H3780 C3788 0.929 . S
H3781 C3790 0.930 . S
H3782 C3792 0.930 . S
H3783 C3795 0.929 . S
H3784 C3798 0.930 . S
H3785 C3800 0.960 . S
H3786 C3800 0.960 . S
H3787 C3800 0.960 . S
C3788 H3780 0.929 . S
C3788 C3789 1.377 . S
C3788 C3790 1.384 . S
C3789 C3788 1.377 . S
C3789 C3795 1.390 . S
C3790 H3781 0.930 . S
C3790 C3788 1.384 . S
C3790 C3791 1.372 . S
C3791 C3790 1.372 . S
C3791 C3792 1.400 . S
C3791 C3796 1.490 . S
C3792 H3782 0.930 . S
C3792 C3791 1.400 . S
C3792 C3795 1.386 . S
H3793 C3809 0.930 . S
H3794 C3810 0.931 . S
C3795 H3783 0.929 . S
C3795 C3789 1.390 . S
C3795 C3792 1.386 . S
C3796 C3791 1.490 . S
C3796 C3798 1.395 . S
C3796 C3799 1.403 . S
H3797 C3803 0.930 . S
C3798 H3784 0.930 . S
C3798 C3796 1.395 . S
C3798 C3801 1.403 . S
C3799 C3796 1.403 . S
C3799 C3800 1.524 . S
C3799 C3803 1.400 . S
C3800 H3785 0.960 . S
C3800 H3786 0.960 . S
C3800 H3787 0.960 . S
C3800 C3799 1.524 . S
C3801 C3798 1.403 . S
C3801 C3802 1.392 . S
C3801 C3805 1.495 . S
C3802 C3801 1.392 . S
C3802 C3803 1.385 . S
C3802 C3804 1.478 . S
C3803 H3797 0.930 . S
C3803 C3799 1.400 . S
C3803 C3802 1.385 . S
C3804 C3802 1.478 . S
C3804 C3806 1.381 . S
C3804 C3810 1.383 . S
C3805 C3801 1.495 . S
C3805 H3811 0.959 . S
C3805 H3812 0.961 . S
C3805 H3813 0.960 . S
C3806 C3804 1.381 . S
C3806 C3807 1.394 . S
C3806 H3814 0.930 . S
C3807 C3806 1.394 . S
C3807 C3808 1.383 . S
C3807 H3815 0.929 . S
C3808 C3807 1.383 . S
C3808 C3809 1.377 . S
C3809 H3793 0.930 . S
C3809 C3808 1.377 . S
C3809 C3810 1.379 . S
C3810 H3794 0.931 . S
C3810 C3804 1.383 . S
C3810 C3809 1.379 . S
H3811 C3805 0.959 . S
H3812 C3805 0.961 . S
H3813 C3805 0.960 . S
H3814 C3806 0.930 . S
H3815 C3807 0.929 . S
H3816 C3824 0.929 . S
H3817 C3826 0.930 . S
H3818 C3828 0.930 . S
H3819 C3831 0.929 . S
H3820 C3834 0.930 . S
H3821 C3836 0.960 . S
H3822 C3836 0.960 . S
H3823 C3836 0.960 . S
C3824 H3816 0.929 . S
C3824 C3825 1.377 . S
C3824 C3826 1.384 . S
C3825 C3824 1.377 . S
C3825 C3831 1.390 . S
C3826 H3817 0.930 . S
C3826 C3824 1.384 . S
C3826 C3827 1.372 . S
C3827 C3826 1.372 . S
C3827 C3828 1.400 . S
C3827 C3832 1.490 . S
C3828 H3818 0.930 . S
C3828 C3827 1.400 . S
C3828 C3831 1.386 . S
H3829 C3845 0.930 . S
H3830 C3846 0.931 . S
C3831 H3819 0.929 . S
C3831 C3825 1.390 . S
C3831 C3828 1.386 . S
C3832 C3827 1.490 . S
C3832 C3834 1.395 . S
C3832 C3835 1.403 . S
H3833 C3839 0.930 . S
C3834 H3820 0.930 . S
C3834 C3832 1.395 . S
C3834 C3837 1.403 . S
C3835 C3832 1.403 . S
C3835 C3836 1.524 . S
C3835 C3839 1.400 . S
C3836 H3821 0.960 . S
C3836 H3822 0.960 . S
C3836 H3823 0.960 . S
C3836 C3835 1.524 . S
C3837 C3834 1.403 . S
C3837 C3838 1.392 . S
C3837 C3841 1.495 . S
C3838 C3837 1.392 . S
C3838 C3839 1.385 . S
C3838 C3840 1.478 . S
C3839 H3833 0.930 . S
C3839 C3835 1.400 . S
C3839 C3838 1.385 . S
C3840 C3838 1.478 . S
C3840 C3842 1.381 . S
C3840 C3846 1.383 . S
C3841 C3837 1.495 . S
C3841 H3847 0.959 . S
C3841 H3848 0.961 . S
C3841 H3849 0.960 . S
C3842 C3840 1.381 . S
C3842 C3843 1.394 . S
C3842 H3850 0.930 . S
C3843 C3842 1.394 . S
C3843 C3844 1.383 . S
C3843 H3851 0.929 . S
C3844 C3843 1.383 . S
C3844 C3845 1.377 . S
C3845 H3829 0.930 . S
C3845 C3844 1.377 . S
C3845 C3846 1.379 . S
C3846 H3830 0.931 . S
C3846 C3840 1.383 . S
C3846 C3845 1.379 . S
H3847 C3841 0.959 . S
H3848 C3841 0.961 . S
H3849 C3841 0.960 . S
H3850 C3842 0.930 . S
H3851 C3843 0.929 . S
H3852 C3860 0.929 . S
H3853 C3862 0.930 . S
H3854 C3864 0.930 . S
H3855 C3867 0.929 . S
H3856 C3870 0.930 . S
H3857 C3872 0.960 . S
H3858 C3872 0.960 . S
H3859 C3872 0.960 . S
C3860 H3852 0.929 . S
C3860 C3861 1.377 . S
C3860 C3862 1.384 . S
C3861 C3860 1.377 . S
C3861 C3867 1.390 . S
C3862 H3853 0.930 . S
C3862 C3860 1.384 . S
C3862 C3863 1.372 . S
C3863 C3862 1.372 . S
C3863 C3864 1.400 . S
C3863 C3868 1.490 . S
C3864 H3854 0.930 . S
C3864 C3863 1.400 . S
C3864 C3867 1.386 . S
H3865 C3881 0.930 . S
H3866 C3882 0.931 . S
C3867 H3855 0.929 . S
C3867 C3861 1.390 . S
C3867 C3864 1.386 . S
C3868 C3863 1.490 . S
C3868 C3870 1.395 . S
C3868 C3871 1.403 . S
H3869 C3875 0.930 . S
C3870 H3856 0.930 . S
C3870 C3868 1.395 . S
C3870 C3873 1.403 . S
C3871 C3868 1.403 . S
C3871 C3872 1.524 . S
C3871 C3875 1.400 . S
C3872 H3857 0.960 . S
C3872 H3858 0.960 . S
C3872 H3859 0.960 . S
C3872 C3871 1.524 . S
C3873 C3870 1.403 . S
C3873 C3874 1.392 . S
C3873 C3877 1.495 . S
C3874 C3873 1.392 . S
C3874 C3875 1.385 . S
C3874 C3876 1.478 . S
C3875 H3869 0.930 . S
C3875 C3871 1.400 . S
C3875 C3874 1.385 . S
C3876 C3874 1.478 . S
C3876 C3878 1.381 . S
C3876 C3882 1.383 . S
C3877 C3873 1.495 . S
C3877 H3883 0.959 . S
C3877 H3884 0.961 . S
C3877 H3885 0.960 . S
C3878 C3876 1.381 . S
C3878 C3879 1.394 . S
C3878 H3886 0.930 . S
C3879 C3878 1.394 . S
C3879 C3880 1.383 . S
C3879 H3887 0.929 . S
C3880 C3879 1.383 . S
C3880 C3881 1.377 . S
C3881 H3865 0.930 . S
C3881 C3880 1.377 . S
C3881 C3882 1.379 . S
C3882 H3866 0.931 . S
C3882 C3876 1.383 . S
C3882 C3881 1.379 . S
H3883 C3877 0.959 . S
H3884 C3877 0.961 . S
H3885 C3877 0.960 . S
H3886 C3878 0.930 . S
H3887 C3879 0.929 . S
H3888 C3896 0.929 . S
H3889 C3898 0.930 . S
H3890 C3900 0.930 . S
H3891 C3903 0.929 . S
H3892 C3906 0.930 . S
H3893 C3908 0.960 . S
H3894 C3908 0.960 . S
H3895 C3908 0.960 . S
C3896 H3888 0.929 . S
C3896 C3897 1.377 . S
C3896 C3898 1.384 . S
C3897 C3896 1.377 . S
C3897 C3903 1.390 . S
C3898 H3889 0.930 . S
C3898 C3896 1.384 . S
C3898 C3899 1.372 . S
C3899 C3898 1.372 . S
C3899 C3900 1.400 . S
C3899 C3904 1.490 . S
C3900 H3890 0.930 . S
C3900 C3899 1.400 . S
C3900 C3903 1.386 . S
H3901 C3917 0.930 . S
H3902 C3918 0.931 . S
C3903 H3891 0.929 . S
C3903 C3897 1.390 . S
C3903 C3900 1.386 . S
C3904 C3899 1.490 . S
C3904 C3906 1.395 . S
C3904 C3907 1.403 . S
H3905 C3911 0.930 . S
C3906 H3892 0.930 . S
C3906 C3904 1.395 . S
C3906 C3909 1.403 . S
C3907 C3904 1.403 . S
C3907 C3908 1.524 . S
C3907 C3911 1.400 . S
C3908 H3893 0.960 . S
C3908 H3894 0.960 . S
C3908 H3895 0.960 . S
C3908 C3907 1.524 . S
C3909 C3906 1.403 . S
C3909 C3910 1.392 . S
C3909 C3913 1.495 . S
C3910 C3909 1.392 . S
C3910 C3911 1.385 . S
C3910 C3912 1.478 . S
C3911 H3905 0.930 . S
C3911 C3907 1.400 . S
C3911 C3910 1.385 . S
C3912 C3910 1.478 . S
C3912 C3914 1.381 . S
C3912 C3918 1.383 . S
C3913 C3909 1.495 . S
C3913 H3919 0.959 . S
C3913 H3920 0.961 . S
C3913 H3921 0.960 . S
C3914 C3912 1.381 . S
C3914 C3915 1.394 . S
C3914 H3922 0.930 . S
C3915 C3914 1.394 . S
C3915 C3916 1.383 . S
C3915 H3923 0.929 . S
C3916 C3915 1.383 . S
C3916 C3917 1.377 . S
C3917 H3901 0.930 . S
C3917 C3916 1.377 . S
C3917 C3918 1.379 . S
C3918 H3902 0.931 . S
C3918 C3912 1.383 . S
C3918 C3917 1.379 . S
H3919 C3913 0.959 . S
H3920 C3913 0.961 . S
H3921 C3913 0.960 . S
H3922 C3914 0.930 . S
H3923 C3915 0.929 . S
H3924 C3932 0.929 . S
H3925 C3934 0.930 . S
H3926 C3936 0.930 . S
H3927 C3939 0.929 . S
H3928 C3942 0.930 . S
H3929 C3944 0.960 . S
H3930 C3944 0.960 . S
H3931 C3944 0.960 . S
C3932 H3924 0.929 . S
C3932 C3933 1.377 . S
C3932 C3934 1.384 . S
C3933 C3932 1.377 . S
C3933 C3939 1.390 . S
C3934 H3925 0.930 . S
C3934 C3932 1.384 . S
C3934 C3935 1.372 . S
C3935 C3934 1.372 . S
C3935 C3936 1.400 . S
C3935 C3940 1.490 . S
C3936 H3926 0.930 . S
C3936 C3935 1.400 . S
C3936 C3939 1.386 . S
H3937 C3953 0.930 . S
H3938 C3954 0.931 . S
C3939 H3927 0.929 . S
C3939 C3933 1.390 . S
C3939 C3936 1.386 . S
C3940 C3935 1.490 . S
C3940 C3942 1.395 . S
C3940 C3943 1.403 . S
H3941 C3947 0.930 . S
C3942 H3928 0.930 . S
C3942 C3940 1.395 . S
C3942 C3945 1.403 . S
C3943 C3940 1.403 . S
C3943 C3944 1.524 . S
C3943 C3947 1.400 . S
C3944 H3929 0.960 . S
C3944 H3930 0.960 . S
C3944 H3931 0.960 . S
C3944 C3943 1.524 . S
C3945 C3942 1.403 . S
C3945 C3946 1.392 . S
C3945 C3949 1.495 . S
C3946 C3945 1.392 . S
C3946 C3947 1.385 . S
C3946 C3948 1.478 . S
C3947 H3941 0.930 . S
C3947 C3943 1.400 . S
C3947 C3946 1.385 . S
C3948 C3946 1.478 . S
C3948 C3950 1.381 . S
C3948 C3954 1.383 . S
C3949 C3945 1.495 . S
C3949 H3955 0.959 . S
C3949 H3956 0.961 . S
C3949 H3957 0.960 . S
C3950 C3948 1.381 . S
C3950 C3951 1.394 . S
C3950 H3958 0.930 . S
C3951 C3950 1.394 . S
C3951 C3952 1.383 . S
C3951 H3959 0.929 . S
C3952 C3951 1.383 . S
C3952 C3953 1.377 . S
C3953 H3937 0.930 . S
C3953 C3952 1.377 . S
C3953 C3954 1.379 . S
C3954 H3938 0.931 . S
C3954 C3948 1.383 . S
C3954 C3953 1.379 . S
H3955 C3949 0.959 . S
H3956 C3949 0.961 . S
H3957 C3949 0.960 . S
H3958 C3950 0.930 . S
H3959 C3951 0.929 . S
H3960 C3968 0.929 . S
H3961 C3970 0.930 . S
H3962 C3972 0.930 . S
H3963 C3975 0.929 . S
H3964 C3978 0.930 . S
H3965 C3980 0.960 . S
H3966 C3980 0.960 . S
H3967 C3980 0.960 . S
C3968 H3960 0.929 . S
C3968 C3969 1.377 . S
C3968 C3970 1.384 . S
C3969 C3968 1.377 . S
C3969 C3975 1.390 . S
C3970 H3961 0.930 . S
C3970 C3968 1.384 . S
C3970 C3971 1.372 . S
C3971 C3970 1.372 . S
C3971 C3972 1.400 . S
C3971 C3976 1.490 . S
C3972 H3962 0.930 . S
C3972 C3971 1.400 . S
C3972 C3975 1.386 . S
H3973 C3989 0.930 . S
H3974 C3990 0.931 . S
C3975 H3963 0.929 . S
C3975 C3969 1.390 . S
C3975 C3972 1.386 . S
C3976 C3971 1.490 . S
C3976 C3978 1.395 . S
C3976 C3979 1.403 . S
H3977 C3983 0.930 . S
C3978 H3964 0.930 . S
C3978 C3976 1.395 . S
C3978 C3981 1.403 . S
C3979 C3976 1.403 . S
C3979 C3980 1.524 . S
C3979 C3983 1.400 . S
C3980 H3965 0.960 . S
C3980 H3966 0.960 . S
C3980 H3967 0.960 . S
C3980 C3979 1.524 . S
C3981 C3978 1.403 . S
C3981 C3982 1.392 . S
C3981 C3985 1.495 . S
C3982 C3981 1.392 . S
C3982 C3983 1.385 . S
C3982 C3984 1.478 . S
C3983 H3977 0.930 . S
C3983 C3979 1.400 . S
C3983 C3982 1.385 . S
C3984 C3982 1.478 . S
C3984 C3986 1.381 . S
C3984 C3990 1.383 . S
C3985 C3981 1.495 . S
C3985 H3991 0.959 . S
C3985 H3992 0.961 . S
C3985 H3993 0.960 . S
C3986 C3984 1.381 . S
C3986 C3987 1.394 . S
C3986 H3994 0.930 . S
C3987 C3986 1.394 . S
C3987 C3988 1.383 . S
C3987 H3995 0.929 . S
C3988 C3987 1.383 . S
C3988 C3989 1.377 . S
C3989 H3973 0.930 . S
C3989 C3988 1.377 . S
C3989 C3990 1.379 . S
C3990 H3974 0.931 . S
C3990 C3984 1.383 . S
C3990 C3989 1.379 . S
H3991 C3985 0.959 . S
H3992 C3985 0.961 . S
H3993 C3985 0.960 . S
H3994 C3986 0.930 . S
H3995 C3987 0.929 . S
H3996 C4004 0.929 . S
H3997 C4006 0.930 . S
H3998 C4008 0.930 . S
H3999 C4011 0.929 . S
H4000 C4014 0.930 . S
H4001 C4016 0.960 . S
H4002 C4016 0.960 . S
H4003 C4016 0.960 . S
C4004 H3996 0.929 . S
C4004 C4005 1.377 . S
C4004 C4006 1.384 . S
C4005 C4004 1.377 . S
C4005 C4011 1.390 . S
C4006 H3997 0.930 . S
C4006 C4004 1.384 . S
C4006 C4007 1.372 . S
C4007 C4006 1.372 . S
C4007 C4008 1.400 . S
C4007 C4012 1.490 . S
C4008 H3998 0.930 . S
C4008 C4007 1.400 . S
C4008 C4011 1.386 . S
H4009 C4025 0.930 . S
H4010 C4026 0.931 . S
C4011 H3999 0.929 . S
C4011 C4005 1.390 . S
C4011 C4008 1.386 . S
C4012 C4007 1.490 . S
C4012 C4014 1.395 . S
C4012 C4015 1.403 . S
H4013 C4019 0.930 . S
C4014 H4000 0.930 . S
C4014 C4012 1.395 . S
C4014 C4017 1.403 . S
C4015 C4012 1.403 . S
C4015 C4016 1.524 . S
C4015 C4019 1.400 . S
C4016 H4001 0.960 . S
C4016 H4002 0.960 . S
C4016 H4003 0.960 . S
C4016 C4015 1.524 . S
C4017 C4014 1.403 . S
C4017 C4018 1.392 . S
C4017 C4021 1.495 . S
C4018 C4017 1.392 . S
C4018 C4019 1.385 . S
C4018 C4020 1.478 . S
C4019 H4013 0.930 . S
C4019 C4015 1.400 . S
C4019 C4018 1.385 . S
C4020 C4018 1.478 . S
C4020 C4022 1.381 . S
C4020 C4026 1.383 . S
C4021 C4017 1.495 . S
C4021 H4027 0.959 . S
C4021 H4028 0.961 . S
C4021 H4029 0.960 . S
C4022 C4020 1.381 . S
C4022 C4023 1.394 . S
C4022 H4030 0.930 . S
C4023 C4022 1.394 . S
C4023 C4024 1.383 . S
C4023 H4031 0.929 . S
C4024 C4023 1.383 . S
C4024 C4025 1.377 . S
C4025 H4009 0.930 . S
C4025 C4024 1.377 . S
C4025 C4026 1.379 . S
C4026 H4010 0.931 . S
C4026 C4020 1.383 . S
C4026 C4025 1.379 . S
H4027 C4021 0.959 . S
H4028 C4021 0.961 . S
H4029 C4021 0.960 . S
H4030 C4022 0.930 . S
H4031 C4023 0.929 . S
H4032 C4040 0.929 . S
H4033 C4042 0.930 . S
H4034 C4044 0.930 . S
H4035 C4047 0.929 . S
H4036 C4050 0.930 . S
H4037 C4052 0.960 . S
H4038 C4052 0.960 . S
H4039 C4052 0.960 . S
C4040 H4032 0.929 . S
C4040 C4041 1.377 . S
C4040 C4042 1.384 . S
C4041 C4040 1.377 . S
C4041 C4047 1.390 . S
C4042 H4033 0.930 . S
C4042 C4040 1.384 . S
C4042 C4043 1.372 . S
C4043 C4042 1.372 . S
C4043 C4044 1.400 . S
C4043 C4048 1.490 . S
C4044 H4034 0.930 . S
C4044 C4043 1.400 . S
C4044 C4047 1.386 . S
H4045 C4061 0.930 . S
H4046 C4062 0.931 . S
C4047 H4035 0.929 . S
C4047 C4041 1.390 . S
C4047 C4044 1.386 . S
C4048 C4043 1.490 . S
C4048 C4050 1.395 . S
C4048 C4051 1.403 . S
H4049 C4055 0.930 . S
C4050 H4036 0.930 . S
C4050 C4048 1.395 . S
C4050 C4053 1.403 . S
C4051 C4048 1.403 . S
C4051 C4052 1.524 . S
C4051 C4055 1.400 . S
C4052 H4037 0.960 . S
C4052 H4038 0.960 . S
C4052 H4039 0.960 . S
C4052 C4051 1.524 . S
C4053 C4050 1.403 . S
C4053 C4054 1.392 . S
C4053 C4057 1.495 . S
C4054 C4053 1.392 . S
C4054 C4055 1.385 . S
C4054 C4056 1.478 . S
C4055 H4049 0.930 . S
C4055 C4051 1.400 . S
C4055 C4054 1.385 . S
C4056 C4054 1.478 . S
C4056 C4058 1.381 . S
C4056 C4062 1.383 . S
C4057 C4053 1.495 . S
C4057 H4063 0.959 . S
C4057 H4064 0.961 . S
C4057 H4065 0.960 . S
C4058 C4056 1.381 . S
C4058 C4059 1.394 . S
C4058 H4066 0.930 . S
C4059 C4058 1.394 . S
C4059 C4060 1.383 . S
C4059 H4067 0.929 . S
C4060 C4059 1.383 . S
C4060 C4061 1.377 . S
C4061 H4045 0.930 . S
C4061 C4060 1.377 . S
C4061 C4062 1.379 . S
C4062 H4046 0.931 . S
C4062 C4056 1.383 . S
C4062 C4061 1.379 . S
H4063 C4057 0.959 . S
H4064 C4057 0.961 . S
H4065 C4057 0.960 . S
H4066 C4058 0.930 . S
H4067 C4059 0.929 . S
H4068 C4076 0.929 . S
H4069 C4078 0.930 . S
H4070 C4080 0.930 . S
H4071 C4083 0.929 . S
H4072 C4086 0.930 . S
H4073 C4088 0.960 . S
H4074 C4088 0.960 . S
H4075 C4088 0.960 . S
C4076 H4068 0.929 . S
C4076 C4077 1.377 . S
C4076 C4078 1.384 . S
C4077 C4076 1.377 . S
C4077 C4083 1.390 . S
C4078 H4069 0.930 . S
C4078 C4076 1.384 . S
C4078 C4079 1.372 . S
C4079 C4078 1.372 . S
C4079 C4080 1.400 . S
C4079 C4084 1.490 . S
C4080 H4070 0.930 . S
C4080 C4079 1.400 . S
C4080 C4083 1.386 . S
H4081 C4097 0.930 . S
H4082 C4098 0.931 . S
C4083 H4071 0.929 . S
C4083 C4077 1.390 . S
C4083 C4080 1.386 . S
C4084 C4079 1.490 . S
C4084 C4086 1.395 . S
C4084 C4087 1.403 . S
H4085 C4091 0.930 . S
C4086 H4072 0.930 . S
C4086 C4084 1.395 . S
C4086 C4089 1.403 . S
C4087 C4084 1.403 . S
C4087 C4088 1.524 . S
C4087 C4091 1.400 . S
C4088 H4073 0.960 . S
C4088 H4074 0.960 . S
C4088 H4075 0.960 . S
C4088 C4087 1.524 . S
C4089 C4086 1.403 . S
C4089 C4090 1.392 . S
C4089 C4093 1.495 . S
C4090 C4089 1.392 . S
C4090 C4091 1.385 . S
C4090 C4092 1.478 . S
C4091 H4085 0.930 . S
C4091 C4087 1.400 . S
C4091 C4090 1.385 . S
C4092 C4090 1.478 . S
C4092 C4094 1.381 . S
C4092 C4098 1.383 . S
C4093 C4089 1.495 . S
C4093 H4099 0.959 . S
C4093 H4100 0.961 . S
C4093 H4101 0.960 . S
C4094 C4092 1.381 . S
C4094 C4095 1.394 . S
C4094 H4102 0.930 . S
C4095 C4094 1.394 . S
C4095 C4096 1.383 . S
C4095 H4103 0.929 . S
C4096 C4095 1.383 . S
C4096 C4097 1.377 . S
C4097 H4081 0.930 . S
C4097 C4096 1.377 . S
C4097 C4098 1.379 . S
C4098 H4082 0.931 . S
C4098 C4092 1.383 . S
C4098 C4097 1.379 . S
H4099 C4093 0.959 . S
H4100 C4093 0.961 . S
H4101 C4093 0.960 . S
H4102 C4094 0.930 . S
H4103 C4095 0.929 . S
H4104 C4112 0.929 . S
H4105 C4114 0.930 . S
H4106 C4116 0.930 . S
H4107 C4119 0.929 . S
H4108 C4122 0.930 . S
H4109 C4124 0.960 . S
H4110 C4124 0.960 . S
H4111 C4124 0.960 . S
C4112 H4104 0.929 . S
C4112 C4113 1.377 . S
C4112 C4114 1.384 . S
C4113 C4112 1.377 . S
C4113 C4119 1.390 . S
C4114 H4105 0.930 . S
C4114 C4112 1.384 . S
C4114 C4115 1.372 . S
C4115 C4114 1.372 . S
C4115 C4116 1.400 . S
C4115 C4120 1.490 . S
C4116 H4106 0.930 . S
C4116 C4115 1.400 . S
C4116 C4119 1.386 . S
H4117 C4133 0.930 . S
H4118 C4134 0.931 . S
C4119 H4107 0.929 . S
C4119 C4113 1.390 . S
C4119 C4116 1.386 . S
C4120 C4115 1.490 . S
C4120 C4122 1.395 . S
C4120 C4123 1.403 . S
H4121 C4127 0.930 . S
C4122 H4108 0.930 . S
C4122 C4120 1.395 . S
C4122 C4125 1.403 . S
C4123 C4120 1.403 . S
C4123 C4124 1.524 . S
C4123 C4127 1.400 . S
C4124 H4109 0.960 . S
C4124 H4110 0.960 . S
C4124 H4111 0.960 . S
C4124 C4123 1.524 . S
C4125 C4122 1.403 . S
C4125 C4126 1.392 . S
C4125 C4129 1.495 . S
C4126 C4125 1.392 . S
C4126 C4127 1.385 . S
C4126 C4128 1.478 . S
C4127 H4121 0.930 . S
C4127 C4123 1.400 . S
C4127 C4126 1.385 . S
C4128 C4126 1.478 . S
C4128 C4130 1.381 . S
C4128 C4134 1.383 . S
C4129 C4125 1.495 . S
C4129 H4135 0.959 . S
C4129 H4136 0.961 . S
C4129 H4137 0.960 . S
C4130 C4128 1.381 . S
C4130 C4131 1.394 . S
C4130 H4138 0.930 . S
C4131 C4130 1.394 . S
C4131 C4132 1.383 . S
C4131 H4139 0.929 . S
C4132 C4131 1.383 . S
C4132 C4133 1.377 . S
C4133 H4117 0.930 . S
C4133 C4132 1.377 . S
C4133 C4134 1.379 . S
C4134 H4118 0.931 . S
C4134 C4128 1.383 . S
C4134 C4133 1.379 . S
H4135 C4129 0.959 . S
H4136 C4129 0.961 . S
H4137 C4129 0.960 . S
H4138 C4130 0.930 . S
H4139 C4131 0.929 . S
H4140 C4148 0.929 . S
H4141 C4150 0.930 . S
H4142 C4152 0.930 . S
H4143 C4155 0.929 . S
H4144 C4158 0.930 . S
H4145 C4160 0.960 . S
H4146 C4160 0.960 . S
H4147 C4160 0.960 . S
C4148 H4140 0.929 . S
C4148 C4149 1.377 . S
C4148 C4150 1.384 . S
C4149 C4148 1.377 . S
C4149 C4155 1.390 . S
C4150 H4141 0.930 . S
C4150 C4148 1.384 . S
C4150 C4151 1.372 . S
C4151 C4150 1.372 . S
C4151 C4152 1.400 . S
C4151 C4156 1.490 . S
C4152 H4142 0.930 . S
C4152 C4151 1.400 . S
C4152 C4155 1.386 . S
H4153 C4169 0.930 . S
H4154 C4170 0.931 . S
C4155 H4143 0.929 . S
C4155 C4149 1.390 . S
C4155 C4152 1.386 . S
C4156 C4151 1.490 . S
C4156 C4158 1.395 . S
C4156 C4159 1.403 . S
H4157 C4163 0.930 . S
C4158 H4144 0.930 . S
C4158 C4156 1.395 . S
C4158 C4161 1.403 . S
C4159 C4156 1.403 . S
C4159 C4160 1.524 . S
C4159 C4163 1.400 . S
C4160 H4145 0.960 . S
C4160 H4146 0.960 . S
C4160 H4147 0.960 . S
C4160 C4159 1.524 . S
C4161 C4158 1.403 . S
C4161 C4162 1.392 . S
C4161 C4165 1.495 . S
C4162 C4161 1.392 . S
C4162 C4163 1.385 . S
C4162 C4164 1.478 . S
C4163 H4157 0.930 . S
C4163 C4159 1.400 . S
C4163 C4162 1.385 . S
C4164 C4162 1.478 . S
C4164 C4166 1.381 . S
C4164 C4170 1.383 . S
C4165 C4161 1.495 . S
C4165 H4171 0.959 . S
C4165 H4172 0.961 . S
C4165 H4173 0.960 . S
C4166 C4164 1.381 . S
C4166 C4167 1.394 . S
C4166 H4174 0.930 . S
C4167 C4166 1.394 . S
C4167 C4168 1.383 . S
C4167 H4175 0.929 . S
C4168 C4167 1.383 . S
C4168 C4169 1.377 . S
C4169 H4153 0.930 . S
C4169 C4168 1.377 . S
C4169 C4170 1.379 . S
C4170 H4154 0.931 . S
C4170 C4164 1.383 . S
C4170 C4169 1.379 . S
H4171 C4165 0.959 . S
H4172 C4165 0.961 . S
H4173 C4165 0.960 . S
H4174 C4166 0.930 . S
H4175 C4167 0.929 . S
H4176 C4184 0.929 . S
H4177 C4186 0.930 . S
H4178 C4188 0.930 . S
H4179 C4191 0.929 . S
H4180 C4194 0.930 . S
H4181 C4196 0.960 . S
H4182 C4196 0.960 . S
H4183 C4196 0.960 . S
C4184 H4176 0.929 . S
C4184 C4185 1.377 . S
C4184 C4186 1.384 . S
C4185 C4184 1.377 . S
C4185 C4191 1.390 . S
C4186 H4177 0.930 . S
C4186 C4184 1.384 . S
C4186 C4187 1.372 . S
C4187 C4186 1.372 . S
C4187 C4188 1.400 . S
C4187 C4192 1.490 . S
C4188 H4178 0.930 . S
C4188 C4187 1.400 . S
C4188 C4191 1.386 . S
H4189 C4205 0.930 . S
H4190 C4206 0.931 . S
C4191 H4179 0.929 . S
C4191 C4185 1.390 . S
C4191 C4188 1.386 . S
C4192 C4187 1.490 . S
C4192 C4194 1.395 . S
C4192 C4195 1.403 . S
H4193 C4199 0.930 . S
C4194 H4180 0.930 . S
C4194 C4192 1.395 . S
C4194 C4197 1.403 . S
C4195 C4192 1.403 . S
C4195 C4196 1.524 . S
C4195 C4199 1.400 . S
C4196 H4181 0.960 . S
C4196 H4182 0.960 . S
C4196 H4183 0.960 . S
C4196 C4195 1.524 . S
C4197 C4194 1.403 . S
C4197 C4198 1.392 . S
C4197 C4201 1.495 . S
C4198 C4197 1.392 . S
C4198 C4199 1.385 . S
C4198 C4200 1.478 . S
C4199 H4193 0.930 . S
C4199 C4195 1.400 . S
C4199 C4198 1.385 . S
C4200 C4198 1.478 . S
C4200 C4202 1.381 . S
C4200 C4206 1.383 . S
C4201 C4197 1.495 . S
C4201 H4207 0.959 . S
C4201 H4208 0.961 . S
C4201 H4209 0.960 . S
C4202 C4200 1.381 . S
C4202 C4203 1.394 . S
C4202 H4210 0.930 . S
C4203 C4202 1.394 . S
C4203 C4204 1.383 . S
C4203 H4211 0.929 . S
C4204 C4203 1.383 . S
C4204 C4205 1.377 . S
C4205 H4189 0.930 . S
C4205 C4204 1.377 . S
C4205 C4206 1.379 . S
C4206 H4190 0.931 . S
C4206 C4200 1.383 . S
C4206 C4205 1.379 . S
H4207 C4201 0.959 . S
H4208 C4201 0.961 . S
H4209 C4201 0.960 . S
H4210 C4202 0.930 . S
H4211 C4203 0.929 . S
H4212 C4220 0.929 . S
H4213 C4222 0.930 . S
H4214 C4224 0.930 . S
H4215 C4227 0.929 . S
H4216 C4230 0.930 . S
H4217 C4232 0.960 . S
H4218 C4232 0.960 . S
H4219 C4232 0.960 . S
C4220 H4212 0.929 . S
C4220 C4221 1.377 . S
C4220 C4222 1.384 . S
C4221 C4220 1.377 . S
C4221 C4227 1.390 . S
C4222 H4213 0.930 . S
C4222 C4220 1.384 . S
C4222 C4223 1.372 . S
C4223 C4222 1.372 . S
C4223 C4224 1.400 . S
C4223 C4228 1.490 . S
C4224 H4214 0.930 . S
C4224 C4223 1.400 . S
C4224 C4227 1.386 . S
H4225 C4241 0.930 . S
H4226 C4242 0.931 . S
C4227 H4215 0.929 . S
C4227 C4221 1.390 . S
C4227 C4224 1.386 . S
C4228 C4223 1.490 . S
C4228 C4230 1.395 . S
C4228 C4231 1.403 . S
H4229 C4235 0.930 . S
C4230 H4216 0.930 . S
C4230 C4228 1.395 . S
C4230 C4233 1.403 . S
C4231 C4228 1.403 . S
C4231 C4232 1.524 . S
C4231 C4235 1.400 . S
C4232 H4217 0.960 . S
C4232 H4218 0.960 . S
C4232 H4219 0.960 . S
C4232 C4231 1.524 . S
C4233 C4230 1.403 . S
C4233 C4234 1.392 . S
C4233 C4237 1.495 . S
C4234 C4233 1.392 . S
C4234 C4235 1.385 . S
C4234 C4236 1.478 . S
C4235 H4229 0.930 . S
C4235 C4231 1.400 . S
C4235 C4234 1.385 . S
C4236 C4234 1.478 . S
C4236 C4238 1.381 . S
C4236 C4242 1.383 . S
C4237 C4233 1.495 . S
C4237 H4243 0.959 . S
C4237 H4244 0.961 . S
C4237 H4245 0.960 . S
C4238 C4236 1.381 . S
C4238 C4239 1.394 . S
C4238 H4246 0.930 . S
C4239 C4238 1.394 . S
C4239 C4240 1.383 . S
C4239 H4247 0.929 . S
C4240 C4239 1.383 . S
C4240 C4241 1.377 . S
C4241 H4225 0.930 . S
C4241 C4240 1.377 . S
C4241 C4242 1.379 . S
C4242 H4226 0.931 . S
C4242 C4236 1.383 . S
C4242 C4241 1.379 . S
H4243 C4237 0.959 . S
H4244 C4237 0.961 . S
H4245 C4237 0.960 . S
H4246 C4238 0.930 . S
H4247 C4239 0.929 . S
H4248 C4256 0.929 . S
H4249 C4258 0.930 . S
H4250 C4260 0.930 . S
H4251 C4263 0.929 . S
H4252 C4266 0.930 . S
H4253 C4268 0.960 . S
H4254 C4268 0.960 . S
H4255 C4268 0.960 . S
C4256 H4248 0.929 . S
C4256 C4257 1.377 . S
C4256 C4258 1.384 . S
C4257 C4256 1.377 . S
C4257 C4263 1.390 . S
C4258 H4249 0.930 . S
C4258 C4256 1.384 . S
C4258 C4259 1.372 . S
C4259 C4258 1.372 . S
C4259 C4260 1.400 . S
C4259 C4264 1.490 . S
C4260 H4250 0.930 . S
C4260 C4259 1.400 . S
C4260 C4263 1.386 . S
H4261 C4277 0.930 . S
H4262 C4278 0.931 . S
C4263 H4251 0.929 . S
C4263 C4257 1.390 . S
C4263 C4260 1.386 . S
C4264 C4259 1.490 . S
C4264 C4266 1.395 . S
C4264 C4267 1.403 . S
H4265 C4271 0.930 . S
C4266 H4252 0.930 . S
C4266 C4264 1.395 . S
C4266 C4269 1.403 . S
C4267 C4264 1.403 . S
C4267 C4268 1.524 . S
C4267 C4271 1.400 . S
C4268 H4253 0.960 . S
C4268 H4254 0.960 . S
C4268 H4255 0.960 . S
C4268 C4267 1.524 . S
C4269 C4266 1.403 . S
C4269 C4270 1.392 . S
C4269 C4273 1.495 . S
C4270 C4269 1.392 . S
C4270 C4271 1.385 . S
C4270 C4272 1.478 . S
C4271 H4265 0.930 . S
C4271 C4267 1.400 . S
C4271 C4270 1.385 . S
C4272 C4270 1.478 . S
C4272 C4274 1.381 . S
C4272 C4278 1.383 . S
C4273 C4269 1.495 . S
C4273 H4279 0.959 . S
C4273 H4280 0.961 . S
C4273 H4281 0.960 . S
C4274 C4272 1.381 . S
C4274 C4275 1.394 . S
C4274 H4282 0.930 . S
C4275 C4274 1.394 . S
C4275 C4276 1.383 . S
C4275 H4283 0.929 . S
C4276 C4275 1.383 . S
C4276 C4277 1.377 . S
C4277 H4261 0.930 . S
C4277 C4276 1.377 . S
C4277 C4278 1.379 . S
C4278 H4262 0.931 . S
C4278 C4272 1.383 . S
C4278 C4277 1.379 . S
H4279 C4273 0.959 . S
H4280 C4273 0.961 . S
H4281 C4273 0.960 . S
H4282 C4274 0.930 . S
H4283 C4275 0.929 . S
H4284 C4292 0.929 . S
H4285 C4294 0.930 . S
H4286 C4296 0.930 . S
H4287 C4299 0.929 . S
H4288 C4302 0.930 . S
H4289 C4304 0.960 . S
H4290 C4304 0.960 . S
H4291 C4304 0.960 . S
C4292 H4284 0.929 . S
C4292 C4293 1.377 . S
C4292 C4294 1.384 . S
C4293 C4292 1.377 . S
C4293 C4299 1.390 . S
C4294 H4285 0.930 . S
C4294 C4292 1.384 . S
C4294 C4295 1.372 . S
C4295 C4294 1.372 . S
C4295 C4296 1.400 . S
C4295 C4300 1.490 . S
C4296 H4286 0.930 . S
C4296 C4295 1.400 . S
C4296 C4299 1.386 . S
H4297 C4313 0.930 . S
H4298 C4314 0.931 . S
C4299 H4287 0.929 . S
C4299 C4293 1.390 . S
C4299 C4296 1.386 . S
C4300 C4295 1.490 . S
C4300 C4302 1.395 . S
C4300 C4303 1.403 . S
H4301 C4307 0.930 . S
C4302 H4288 0.930 . S
C4302 C4300 1.395 . S
C4302 C4305 1.403 . S
C4303 C4300 1.403 . S
C4303 C4304 1.524 . S
C4303 C4307 1.400 . S
C4304 H4289 0.960 . S
C4304 H4290 0.960 . S
C4304 H4291 0.960 . S
C4304 C4303 1.524 . S
C4305 C4302 1.403 . S
C4305 C4306 1.392 . S
C4305 C4309 1.495 . S
C4306 C4305 1.392 . S
C4306 C4307 1.385 . S
C4306 C4308 1.478 . S
C4307 H4301 0.930 . S
C4307 C4303 1.400 . S
C4307 C4306 1.385 . S
C4308 C4306 1.478 . S
C4308 C4310 1.381 . S
C4308 C4314 1.383 . S
C4309 C4305 1.495 . S
C4309 H4315 0.959 . S
C4309 H4316 0.961 . S
C4309 H4317 0.960 . S
C4310 C4308 1.381 . S
C4310 C4311 1.394 . S
C4310 H4318 0.930 . S
C4311 C4310 1.394 . S
C4311 C4312 1.383 . S
C4311 H4319 0.929 . S
C4312 C4311 1.383 . S
C4312 C4313 1.377 . S
C4313 H4297 0.930 . S
C4313 C4312 1.377 . S
C4313 C4314 1.379 . S
C4314 H4298 0.931 . S
C4314 C4308 1.383 . S
C4314 C4313 1.379 . S
H4315 C4309 0.959 . S
H4316 C4309 0.961 . S
H4317 C4309 0.960 . S
H4318 C4310 0.930 . S
H4319 C4311 0.929 . S
H4320 C4328 0.929 . S
H4321 C4330 0.930 . S
H4322 C4332 0.930 . S
H4323 C4335 0.929 . S
H4324 C4338 0.930 . S
H4325 C4340 0.960 . S
H4326 C4340 0.960 . S
H4327 C4340 0.960 . S
C4328 H4320 0.929 . S
C4328 C4329 1.377 . S
C4328 C4330 1.384 . S
C4329 C4328 1.377 . S
C4329 C4335 1.390 . S
C4330 H4321 0.930 . S
C4330 C4328 1.384 . S
C4330 C4331 1.372 . S
C4331 C4330 1.372 . S
C4331 C4332 1.400 . S
C4331 C4336 1.490 . S
C4332 H4322 0.930 . S
C4332 C4331 1.400 . S
C4332 C4335 1.386 . S
H4333 C4349 0.930 . S
H4334 C4350 0.931 . S
C4335 H4323 0.929 . S
C4335 C4329 1.390 . S
C4335 C4332 1.386 . S
C4336 C4331 1.490 . S
C4336 C4338 1.395 . S
C4336 C4339 1.403 . S
H4337 C4343 0.930 . S
C4338 H4324 0.930 . S
C4338 C4336 1.395 . S
C4338 C4341 1.403 . S
C4339 C4336 1.403 . S
C4339 C4340 1.524 . S
C4339 C4343 1.400 . S
C4340 H4325 0.960 . S
C4340 H4326 0.960 . S
C4340 H4327 0.960 . S
C4340 C4339 1.524 . S
C4341 C4338 1.403 . S
C4341 C4342 1.392 . S
C4341 C4345 1.495 . S
C4342 C4341 1.392 . S
C4342 C4343 1.385 . S
C4342 C4344 1.478 . S
C4343 H4337 0.930 . S
C4343 C4339 1.400 . S
C4343 C4342 1.385 . S
C4344 C4342 1.478 . S
C4344 C4346 1.381 . S
C4344 C4350 1.383 . S
C4345 C4341 1.495 . S
C4345 H4351 0.959 . S
C4345 H4352 0.961 . S
C4345 H4353 0.960 . S
C4346 C4344 1.381 . S
C4346 C4347 1.394 . S
C4346 H4354 0.930 . S
C4347 C4346 1.394 . S
C4347 C4348 1.383 . S
C4347 H4355 0.929 . S
C4348 C4347 1.383 . S
C4348 C4349 1.377 . S
C4349 H4333 0.930 . S
C4349 C4348 1.377 . S
C4349 C4350 1.379 . S
C4350 H4334 0.931 . S
C4350 C4344 1.383 . S
C4350 C4349 1.379 . S
H4351 C4345 0.959 . S
H4352 C4345 0.961 . S
H4353 C4345 0.960 . S
H4354 C4346 0.930 . S
H4355 C4347 0.929 . S
H4356 C4364 0.929 . S
H4357 C4366 0.930 . S
H4358 C4368 0.930 . S
H4359 C4371 0.929 . S
H4360 C4374 0.930 . S
H4361 C4376 0.960 . S
H4362 C4376 0.960 . S
H4363 C4376 0.960 . S
C4364 H4356 0.929 . S
C4364 C4365 1.377 . S
C4364 C4366 1.384 . S
C4365 C4364 1.377 . S
C4365 C4371 1.390 . S
C4366 H4357 0.930 . S
C4366 C4364 1.384 . S
C4366 C4367 1.372 . S
C4367 C4366 1.372 . S
C4367 C4368 1.400 . S
C4367 C4372 1.490 . S
C4368 H4358 0.930 . S
C4368 C4367 1.400 . S
C4368 C4371 1.386 . S
H4369 C4385 0.930 . S
H4370 C4386 0.931 . S
C4371 H4359 0.929 . S
C4371 C4365 1.390 . S
C4371 C4368 1.386 . S
C4372 C4367 1.490 . S
C4372 C4374 1.395 . S
C4372 C4375 1.403 . S
H4373 C4379 0.930 . S
C4374 H4360 0.930 . S
C4374 C4372 1.395 . S
C4374 C4377 1.403 . S
C4375 C4372 1.403 . S
C4375 C4376 1.524 . S
C4375 C4379 1.400 . S
C4376 H4361 0.960 . S
C4376 H4362 0.960 . S
C4376 H4363 0.960 . S
C4376 C4375 1.524 . S
C4377 C4374 1.403 . S
C4377 C4378 1.392 . S
C4377 C4381 1.495 . S
C4378 C4377 1.392 . S
C4378 C4379 1.385 . S
C4378 C4380 1.478 . S
C4379 H4373 0.930 . S
C4379 C4375 1.400 . S
C4379 C4378 1.385 . S
C4380 C4378 1.478 . S
C4380 C4382 1.381 . S
C4380 C4386 1.383 . S
C4381 C4377 1.495 . S
C4381 H4387 0.959 . S
C4381 H4388 0.961 . S
C4381 H4389 0.960 . S
C4382 C4380 1.381 . S
C4382 C4383 1.394 . S
C4382 H4390 0.930 . S
C4383 C4382 1.394 . S
C4383 C4384 1.383 . S
C4383 H4391 0.929 . S
C4384 C4383 1.383 . S
C4384 C4385 1.377 . S
C4385 H4369 0.930 . S
C4385 C4384 1.377 . S
C4385 C4386 1.379 . S
C4386 H4370 0.931 . S
C4386 C4380 1.383 . S
C4386 C4385 1.379 . S
H4387 C4381 0.959 . S
H4388 C4381 0.961 . S
H4389 C4381 0.960 . S
H4390 C4382 0.930 . S
H4391 C4383 0.929 . S
H4392 C4400 0.929 . S
H4393 C4402 0.930 . S
H4394 C4404 0.930 . S
H4395 C4407 0.929 . S
H4396 C4410 0.930 . S
H4397 C4412 0.960 . S
H4398 C4412 0.960 . S
H4399 C4412 0.960 . S
C4400 H4392 0.929 . S
C4400 C4401 1.377 . S
C4400 C4402 1.384 . S
C4401 C4400 1.377 . S
C4401 C4407 1.390 . S
C4402 H4393 0.930 . S
C4402 C4400 1.384 . S
C4402 C4403 1.372 . S
C4403 C4402 1.372 . S
C4403 C4404 1.400 . S
C4403 C4408 1.490 . S
C4404 H4394 0.930 . S
C4404 C4403 1.400 . S
C4404 C4407 1.386 . S
H4405 C4421 0.930 . S
H4406 C4422 0.931 . S
C4407 H4395 0.929 . S
C4407 C4401 1.390 . S
C4407 C4404 1.386 . S
C4408 C4403 1.490 . S
C4408 C4410 1.395 . S
C4408 C4411 1.403 . S
H4409 C4415 0.930 . S
C4410 H4396 0.930 . S
C4410 C4408 1.395 . S
C4410 C4413 1.403 . S
C4411 C4408 1.403 . S
C4411 C4412 1.524 . S
C4411 C4415 1.400 . S
C4412 H4397 0.960 . S
C4412 H4398 0.960 . S
C4412 H4399 0.960 . S
C4412 C4411 1.524 . S
C4413 C4410 1.403 . S
C4413 C4414 1.392 . S
C4413 C4417 1.495 . S
C4414 C4413 1.392 . S
C4414 C4415 1.385 . S
C4414 C4416 1.478 . S
C4415 H4409 0.930 . S
C4415 C4411 1.400 . S
C4415 C4414 1.385 . S
C4416 C4414 1.478 . S
C4416 C4418 1.381 . S
C4416 C4422 1.383 . S
C4417 C4413 1.495 . S
C4417 H4423 0.959 . S
C4417 H4424 0.961 . S
C4417 H4425 0.960 . S
C4418 C4416 1.381 . S
C4418 C4419 1.394 . S
C4418 H4426 0.930 . S
C4419 C4418 1.394 . S
C4419 C4420 1.383 . S
C4419 H4427 0.929 . S
C4420 C4419 1.383 . S
C4420 C4421 1.377 . S
C4421 H4405 0.930 . S
C4421 C4420 1.377 . S
C4421 C4422 1.379 . S
C4422 H4406 0.931 . S
C4422 C4416 1.383 . S
C4422 C4421 1.379 . S
H4423 C4417 0.959 . S
H4424 C4417 0.961 . S
H4425 C4417 0.960 . S
H4426 C4418 0.930 . S
H4427 C4419 0.929 . S
H4428 C4436 0.929 . S
H4429 C4438 0.930 . S
H4430 C4440 0.930 . S
H4431 C4443 0.929 . S
H4432 C4446 0.930 . S
H4433 C4448 0.960 . S
H4434 C4448 0.960 . S
H4435 C4448 0.960 . S
C4436 H4428 0.929 . S
C4436 C4437 1.377 . S
C4436 C4438 1.384 . S
C4437 C4436 1.377 . S
C4437 C4443 1.390 . S
C4438 H4429 0.930 . S
C4438 C4436 1.384 . S
C4438 C4439 1.372 . S
C4439 C4438 1.372 . S
C4439 C4440 1.400 . S
C4439 C4444 1.490 . S
C4440 H4430 0.930 . S
C4440 C4439 1.400 . S
C4440 C4443 1.386 . S
H4441 C4457 0.930 . S
H4442 C4458 0.931 . S
C4443 H4431 0.929 . S
C4443 C4437 1.390 . S
C4443 C4440 1.386 . S
C4444 C4439 1.490 . S
C4444 C4446 1.395 . S
C4444 C4447 1.403 . S
H4445 C4451 0.930 . S
C4446 H4432 0.930 . S
C4446 C4444 1.395 . S
C4446 C4449 1.403 . S
C4447 C4444 1.403 . S
C4447 C4448 1.524 . S
C4447 C4451 1.400 . S
C4448 H4433 0.960 . S
C4448 H4434 0.960 . S
C4448 H4435 0.960 . S
C4448 C4447 1.524 . S
C4449 C4446 1.403 . S
C4449 C4450 1.392 . S
C4449 C4453 1.495 . S
C4450 C4449 1.392 . S
C4450 C4451 1.385 . S
C4450 C4452 1.478 . S
C4451 H4445 0.930 . S
C4451 C4447 1.400 . S
C4451 C4450 1.385 . S
C4452 C4450 1.478 . S
C4452 C4454 1.381 . S
C4452 C4458 1.383 . S
C4453 C4449 1.495 . S
C4453 H4459 0.959 . S
C4453 H4460 0.961 . S
C4453 H4461 0.960 . S
C4454 C4452 1.381 . S
C4454 C4455 1.394 . S
C4454 H4462 0.930 . S
C4455 C4454 1.394 . S
C4455 C4456 1.383 . S
C4455 H4463 0.929 . S
C4456 C4455 1.383 . S
C4456 C4457 1.377 . S
C4457 H4441 0.930 . S
C4457 C4456 1.377 . S
C4457 C4458 1.379 . S
C4458 H4442 0.931 . S
C4458 C4452 1.383 . S
C4458 C4457 1.379 . S
H4459 C4453 0.959 . S
H4460 C4453 0.961 . S
H4461 C4453 0.960 . S
H4462 C4454 0.930 . S
H4463 C4455 0.929 . S
H4464 C4472 0.929 . S
H4465 C4474 0.930 . S
H4466 C4476 0.930 . S
H4467 C4479 0.929 . S
H4468 C4482 0.930 . S
H4469 C4484 0.960 . S
H4470 C4484 0.960 . S
H4471 C4484 0.960 . S
C4472 H4464 0.929 . S
C4472 C4473 1.377 . S
C4472 C4474 1.384 . S
C4473 C4472 1.377 . S
C4473 C4479 1.390 . S
C4474 H4465 0.930 . S
C4474 C4472 1.384 . S
C4474 C4475 1.372 . S
C4475 C4474 1.372 . S
C4475 C4476 1.400 . S
C4475 C4480 1.490 . S
C4476 H4466 0.930 . S
C4476 C4475 1.400 . S
C4476 C4479 1.386 . S
H4477 C4493 0.930 . S
H4478 C4494 0.931 . S
C4479 H4467 0.929 . S
C4479 C4473 1.390 . S
C4479 C4476 1.386 . S
C4480 C4475 1.490 . S
C4480 C4482 1.395 . S
C4480 C4483 1.403 . S
H4481 C4487 0.930 . S
C4482 H4468 0.930 . S
C4482 C4480 1.395 . S
C4482 C4485 1.403 . S
C4483 C4480 1.403 . S
C4483 C4484 1.524 . S
C4483 C4487 1.400 . S
C4484 H4469 0.960 . S
C4484 H4470 0.960 . S
C4484 H4471 0.960 . S
C4484 C4483 1.524 . S
C4485 C4482 1.403 . S
C4485 C4486 1.392 . S
C4485 C4489 1.495 . S
C4486 C4485 1.392 . S
C4486 C4487 1.385 . S
C4486 C4488 1.478 . S
C4487 H4481 0.930 . S
C4487 C4483 1.400 . S
C4487 C4486 1.385 . S
C4488 C4486 1.478 . S
C4488 C4490 1.381 . S
C4488 C4494 1.383 . S
C4489 C4485 1.495 . S
C4489 H4495 0.959 . S
C4489 H4496 0.961 . S
C4489 H4497 0.960 . S
C4490 C4488 1.381 . S
C4490 C4491 1.394 . S
C4490 H4498 0.930 . S
C4491 C4490 1.394 . S
C4491 C4492 1.383 . S
C4491 H4499 0.929 . S
C4492 C4491 1.383 . S
C4492 C4493 1.377 . S
C4493 H4477 0.930 . S
C4493 C4492 1.377 . S
C4493 C4494 1.379 . S
C4494 H4478 0.931 . S
C4494 C4488 1.383 . S
C4494 C4493 1.379 . S
H4495 C4489 0.959 . S
H4496 C4489 0.961 . S
H4497 C4489 0.960 . S
H4498 C4490 0.930 . S
H4499 C4491 0.929 . S
H4500 C4508 0.929 . S
H4501 C4510 0.930 . S
H4502 C4512 0.930 . S
H4503 C4515 0.929 . S
H4504 C4518 0.930 . S
H4505 C4520 0.960 . S
H4506 C4520 0.960 . S
H4507 C4520 0.960 . S
C4508 H4500 0.929 . S
C4508 C4509 1.377 . S
C4508 C4510 1.384 . S
C4509 C4508 1.377 . S
C4509 C4515 1.390 . S
C4510 H4501 0.930 . S
C4510 C4508 1.384 . S
C4510 C4511 1.372 . S
C4511 C4510 1.372 . S
C4511 C4512 1.400 . S
C4511 C4516 1.490 . S
C4512 H4502 0.930 . S
C4512 C4511 1.400 . S
C4512 C4515 1.386 . S
H4513 C4529 0.930 . S
H4514 C4530 0.931 . S
C4515 H4503 0.929 . S
C4515 C4509 1.390 . S
C4515 C4512 1.386 . S
C4516 C4511 1.490 . S
C4516 C4518 1.395 . S
C4516 C4519 1.403 . S
H4517 C4523 0.930 . S
C4518 H4504 0.930 . S
C4518 C4516 1.395 . S
C4518 C4521 1.403 . S
C4519 C4516 1.403 . S
C4519 C4520 1.524 . S
C4519 C4523 1.400 . S
C4520 H4505 0.960 . S
C4520 H4506 0.960 . S
C4520 H4507 0.960 . S
C4520 C4519 1.524 . S
C4521 C4518 1.403 . S
C4521 C4522 1.392 . S
C4521 C4525 1.495 . S
C4522 C4521 1.392 . S
C4522 C4523 1.385 . S
C4522 C4524 1.478 . S
C4523 H4517 0.930 . S
C4523 C4519 1.400 . S
C4523 C4522 1.385 . S
C4524 C4522 1.478 . S
C4524 C4526 1.381 . S
C4524 C4530 1.383 . S
C4525 C4521 1.495 . S
C4525 H4531 0.959 . S
C4525 H4532 0.961 . S
C4525 H4533 0.960 . S
C4526 C4524 1.381 . S
C4526 C4527 1.394 . S
C4526 H4534 0.930 . S
C4527 C4526 1.394 . S
C4527 C4528 1.383 . S
C4527 H4535 0.929 . S
C4528 C4527 1.383 . S
C4528 C4529 1.377 . S
C4529 H4513 0.930 . S
C4529 C4528 1.377 . S
C4529 C4530 1.379 . S
C4530 H4514 0.931 . S
C4530 C4524 1.383 . S
C4530 C4529 1.379 . S
H4531 C4525 0.959 . S
H4532 C4525 0.961 . S
H4533 C4525 0.960 . S
H4534 C4526 0.930 . S
H4535 C4527 0.929 . S
H4536 C4544 0.929 . S
H4537 C4546 0.930 . S
H4538 C4548 0.930 . S
H4539 C4551 0.929 . S
H4540 C4554 0.930 . S
H4541 C4556 0.960 . S
H4542 C4556 0.960 . S
H4543 C4556 0.960 . S
C4544 H4536 0.929 . S
C4544 C4545 1.377 . S
C4544 C4546 1.384 . S
C4545 C4544 1.377 . S
C4545 C4551 1.390 . S
C4546 H4537 0.930 . S
C4546 C4544 1.384 . S
C4546 C4547 1.372 . S
C4547 C4546 1.372 . S
C4547 C4548 1.400 . S
C4547 C4552 1.490 . S
C4548 H4538 0.930 . S
C4548 C4547 1.400 . S
C4548 C4551 1.386 . S
H4549 C4565 0.930 . S
H4550 C4566 0.931 . S
C4551 H4539 0.929 . S
C4551 C4545 1.390 . S
C4551 C4548 1.386 . S
C4552 C4547 1.490 . S
C4552 C4554 1.395 . S
C4552 C4555 1.403 . S
H4553 C4559 0.930 . S
C4554 H4540 0.930 . S
C4554 C4552 1.395 . S
C4554 C4557 1.403 . S
C4555 C4552 1.403 . S
C4555 C4556 1.524 . S
C4555 C4559 1.400 . S
C4556 H4541 0.960 . S
C4556 H4542 0.960 . S
C4556 H4543 0.960 . S
C4556 C4555 1.524 . S
C4557 C4554 1.403 . S
C4557 C4558 1.392 . S
C4557 C4561 1.495 . S
C4558 C4557 1.392 . S
C4558 C4559 1.385 . S
C4558 C4560 1.478 . S
C4559 H4553 0.930 . S
C4559 C4555 1.400 . S
C4559 C4558 1.385 . S
C4560 C4558 1.478 . S
C4560 C4562 1.381 . S
C4560 C4566 1.383 . S
C4561 C4557 1.495 . S
C4561 H4567 0.959 . S
C4561 H4568 0.961 . S
C4561 H4569 0.960 . S
C4562 C4560 1.381 . S
C4562 C4563 1.394 . S
C4562 H4570 0.930 . S
C4563 C4562 1.394 . S
C4563 C4564 1.383 . S
C4563 H4571 0.929 . S
C4564 C4563 1.383 . S
C4564 C4565 1.377 . S
C4565 H4549 0.930 . S
C4565 C4564 1.377 . S
C4565 C4566 1.379 . S
C4566 H4550 0.931 . S
C4566 C4560 1.383 . S
C4566 C4565 1.379 . S
H4567 C4561 0.959 . S
H4568 C4561 0.961 . S
H4569 C4561 0.960 . S
H4570 C4562 0.930 . S
H4571 C4563 0.929 . S
H4572 C4580 0.929 . S
H4573 C4582 0.930 . S
H4574 C4584 0.930 . S
H4575 C4587 0.929 . S
H4576 C4590 0.930 . S
H4577 C4592 0.960 . S
H4578 C4592 0.960 . S
H4579 C4592 0.960 . S
C4580 H4572 0.929 . S
C4580 C4581 1.377 . S
C4580 C4582 1.384 . S
C4581 C4580 1.377 . S
C4581 C4587 1.390 . S
C4582 H4573 0.930 . S
C4582 C4580 1.384 . S
C4582 C4583 1.372 . S
C4583 C4582 1.372 . S
C4583 C4584 1.400 . S
C4583 C4588 1.490 . S
C4584 H4574 0.930 . S
C4584 C4583 1.400 . S
C4584 C4587 1.386 . S
H4585 C4601 0.930 . S
H4586 C4602 0.931 . S
C4587 H4575 0.929 . S
C4587 C4581 1.390 . S
C4587 C4584 1.386 . S
C4588 C4583 1.490 . S
C4588 C4590 1.395 . S
C4588 C4591 1.403 . S
H4589 C4595 0.930 . S
C4590 H4576 0.930 . S
C4590 C4588 1.395 . S
C4590 C4593 1.403 . S
C4591 C4588 1.403 . S
C4591 C4592 1.524 . S
C4591 C4595 1.400 . S
C4592 H4577 0.960 . S
C4592 H4578 0.960 . S
C4592 H4579 0.960 . S
C4592 C4591 1.524 . S
C4593 C4590 1.403 . S
C4593 C4594 1.392 . S
C4593 C4597 1.495 . S
C4594 C4593 1.392 . S
C4594 C4595 1.385 . S
C4594 C4596 1.478 . S
C4595 H4589 0.930 . S
C4595 C4591 1.400 . S
C4595 C4594 1.385 . S
C4596 C4594 1.478 . S
C4596 C4598 1.381 . S
C4596 C4602 1.383 . S
C4597 C4593 1.495 . S
C4597 H4603 0.959 . S
C4597 H4604 0.961 . S
C4597 H4605 0.960 . S
C4598 C4596 1.381 . S
C4598 C4599 1.394 . S
C4598 H4606 0.930 . S
C4599 C4598 1.394 . S
C4599 C4600 1.383 . S
C4599 H4607 0.929 . S
C4600 C4599 1.383 . S
C4600 C4601 1.377 . S
C4601 H4585 0.930 . S
C4601 C4600 1.377 . S
C4601 C4602 1.379 . S
C4602 H4586 0.931 . S
C4602 C4596 1.383 . S
C4602 C4601 1.379 . S
H4603 C4597 0.959 . S
H4604 C4597 0.961 . S
H4605 C4597 0.960 . S
H4606 C4598 0.930 . S
H4607 C4599 0.929 . S
H4608 C4616 0.929 . S
H4609 C4618 0.930 . S
H4610 C4620 0.930 . S
H4611 C4623 0.929 . S
H4612 C4626 0.930 . S
H4613 C4628 0.960 . S
H4614 C4628 0.960 . S
H4615 C4628 0.960 . S
C4616 H4608 0.929 . S
C4616 C4617 1.377 . S
C4616 C4618 1.384 . S
C4617 C4616 1.377 . S
C4617 C4623 1.390 . S
C4618 H4609 0.930 . S
C4618 C4616 1.384 . S
C4618 C4619 1.372 . S
C4619 C4618 1.372 . S
C4619 C4620 1.400 . S
C4619 C4624 1.490 . S
C4620 H4610 0.930 . S
C4620 C4619 1.400 . S
C4620 C4623 1.386 . S
H4621 C4637 0.930 . S
H4622 C4638 0.931 . S
C4623 H4611 0.929 . S
C4623 C4617 1.390 . S
C4623 C4620 1.386 . S
C4624 C4619 1.490 . S
C4624 C4626 1.395 . S
C4624 C4627 1.403 . S
H4625 C4631 0.930 . S
C4626 H4612 0.930 . S
C4626 C4624 1.395 . S
C4626 C4629 1.403 . S
C4627 C4624 1.403 . S
C4627 C4628 1.524 . S
C4627 C4631 1.400 . S
C4628 H4613 0.960 . S
C4628 H4614 0.960 . S
C4628 H4615 0.960 . S
C4628 C4627 1.524 . S
C4629 C4626 1.403 . S
C4629 C4630 1.392 . S
C4629 C4633 1.495 . S
C4630 C4629 1.392 . S
C4630 C4631 1.385 . S
C4630 C4632 1.478 . S
C4631 H4625 0.930 . S
C4631 C4627 1.400 . S
C4631 C4630 1.385 . S
C4632 C4630 1.478 . S
C4632 C4634 1.381 . S
C4632 C4638 1.383 . S
C4633 C4629 1.495 . S
C4633 H4639 0.959 . S
C4633 H4640 0.961 . S
C4633 H4641 0.960 . S
C4634 C4632 1.381 . S
C4634 C4635 1.394 . S
C4634 H4642 0.930 . S
C4635 C4634 1.394 . S
C4635 C4636 1.383 . S
C4635 H4643 0.929 . S
C4636 C4635 1.383 . S
C4636 C4637 1.377 . S
C4637 H4621 0.930 . S
C4637 C4636 1.377 . S
C4637 C4638 1.379 . S
C4638 H4622 0.931 . S
C4638 C4632 1.383 . S
C4638 C4637 1.379 . S
H4639 C4633 0.959 . S
H4640 C4633 0.961 . S
H4641 C4633 0.960 . S
H4642 C4634 0.930 . S
H4643 C4635 0.929 . S
H4644 C4652 0.929 . S
H4645 C4654 0.930 . S
H4646 C4656 0.930 . S
H4647 C4659 0.929 . S
H4648 C4662 0.930 . S
H4649 C4664 0.960 . S
H4650 C4664 0.960 . S
H4651 C4664 0.960 . S
C4652 H4644 0.929 . S
C4652 C4653 1.377 . S
C4652 C4654 1.384 . S
C4653 C4652 1.377 . S
C4653 C4659 1.390 . S
C4654 H4645 0.930 . S
C4654 C4652 1.384 . S
C4654 C4655 1.372 . S
C4655 C4654 1.372 . S
C4655 C4656 1.400 . S
C4655 C4660 1.490 . S
C4656 H4646 0.930 . S
C4656 C4655 1.400 . S
C4656 C4659 1.386 . S
H4657 C4673 0.930 . S
H4658 C4674 0.931 . S
C4659 H4647 0.929 . S
C4659 C4653 1.390 . S
C4659 C4656 1.386 . S
C4660 C4655 1.490 . S
C4660 C4662 1.395 . S
C4660 C4663 1.403 . S
H4661 C4667 0.930 . S
C4662 H4648 0.930 . S
C4662 C4660 1.395 . S
C4662 C4665 1.403 . S
C4663 C4660 1.403 . S
C4663 C4664 1.524 . S
C4663 C4667 1.400 . S
C4664 H4649 0.960 . S
C4664 H4650 0.960 . S
C4664 H4651 0.960 . S
C4664 C4663 1.524 . S
C4665 C4662 1.403 . S
C4665 C4666 1.392 . S
C4665 C4669 1.495 . S
C4666 C4665 1.392 . S
C4666 C4667 1.385 . S
C4666 C4668 1.478 . S
C4667 H4661 0.930 . S
C4667 C4663 1.400 . S
C4667 C4666 1.385 . S
C4668 C4666 1.478 . S
C4668 C4670 1.381 . S
C4668 C4674 1.383 . S
C4669 C4665 1.495 . S
C4669 H4675 0.959 . S
C4669 H4676 0.961 . S
C4669 H4677 0.960 . S
C4670 C4668 1.381 . S
C4670 C4671 1.394 . S
C4670 H4678 0.930 . S
C4671 C4670 1.394 . S
C4671 C4672 1.383 . S
C4671 H4679 0.929 . S
C4672 C4671 1.383 . S
C4672 C4673 1.377 . S
C4673 H4657 0.930 . S
C4673 C4672 1.377 . S
C4673 C4674 1.379 . S
C4674 H4658 0.931 . S
C4674 C4668 1.383 . S
C4674 C4673 1.379 . S
H4675 C4669 0.959 . S
H4676 C4669 0.961 . S
H4677 C4669 0.960 . S
H4678 C4670 0.930 . S
H4679 C4671 0.929 . S
H4680 C4688 0.929 . S
H4681 C4690 0.930 . S
H4682 C4692 0.930 . S
H4683 C4695 0.929 . S
H4684 C4698 0.930 . S
H4685 C4700 0.960 . S
H4686 C4700 0.960 . S
H4687 C4700 0.960 . S
C4688 H4680 0.929 . S
C4688 C4689 1.377 . S
C4688 C4690 1.384 . S
C4689 C4688 1.377 . S
C4689 C4695 1.390 . S
C4690 H4681 0.930 . S
C4690 C4688 1.384 . S
C4690 C4691 1.372 . S
C4691 C4690 1.372 . S
C4691 C4692 1.400 . S
C4691 C4696 1.490 . S
C4692 H4682 0.930 . S
C4692 C4691 1.400 . S
C4692 C4695 1.386 . S
H4693 C4709 0.930 . S
H4694 C4710 0.931 . S
C4695 H4683 0.929 . S
C4695 C4689 1.390 . S
C4695 C4692 1.386 . S
C4696 C4691 1.490 . S
C4696 C4698 1.395 . S
C4696 C4699 1.403 . S
H4697 C4703 0.930 . S
C4698 H4684 0.930 . S
C4698 C4696 1.395 . S
C4698 C4701 1.403 . S
C4699 C4696 1.403 . S
C4699 C4700 1.524 . S
C4699 C4703 1.400 . S
C4700 H4685 0.960 . S
C4700 H4686 0.960 . S
C4700 H4687 0.960 . S
C4700 C4699 1.524 . S
C4701 C4698 1.403 . S
C4701 C4702 1.392 . S
C4701 C4705 1.495 . S
C4702 C4701 1.392 . S
C4702 C4703 1.385 . S
C4702 C4704 1.478 . S
C4703 H4697 0.930 . S
C4703 C4699 1.400 . S
C4703 C4702 1.385 . S
C4704 C4702 1.478 . S
C4704 C4706 1.381 . S
C4704 C4710 1.383 . S
C4705 C4701 1.495 . S
C4705 H4711 0.959 . S
C4705 H4712 0.961 . S
C4705 H4713 0.960 . S
C4706 C4704 1.381 . S
C4706 C4707 1.394 . S
C4706 H4714 0.930 . S
C4707 C4706 1.394 . S
C4707 C4708 1.383 . S
C4707 H4715 0.929 . S
C4708 C4707 1.383 . S
C4708 C4709 1.377 . S
C4709 H4693 0.930 . S
C4709 C4708 1.377 . S
C4709 C4710 1.379 . S
C4710 H4694 0.931 . S
C4710 C4704 1.383 . S
C4710 C4709 1.379 . S
H4711 C4705 0.959 . S
H4712 C4705 0.961 . S
H4713 C4705 0.960 . S
H4714 C4706 0.930 . S
H4715 C4707 0.929 . S
H4716 C4724 0.929 . S
H4717 C4726 0.930 . S
H4718 C4728 0.930 . S
H4719 C4731 0.929 . S
H4720 C4734 0.930 . S
H4721 C4736 0.960 . S
H4722 C4736 0.960 . S
H4723 C4736 0.960 . S
C4724 H4716 0.929 . S
C4724 C4725 1.377 . S
C4724 C4726 1.384 . S
C4725 C4724 1.377 . S
C4725 C4731 1.390 . S
C4726 H4717 0.930 . S
C4726 C4724 1.384 . S
C4726 C4727 1.372 . S
C4727 C4726 1.372 . S
C4727 C4728 1.400 . S
C4727 C4732 1.490 . S
C4728 H4718 0.930 . S
C4728 C4727 1.400 . S
C4728 C4731 1.386 . S
H4729 C4745 0.930 . S
H4730 C4746 0.931 . S
C4731 H4719 0.929 . S
C4731 C4725 1.390 . S
C4731 C4728 1.386 . S
C4732 C4727 1.490 . S
C4732 C4734 1.395 . S
C4732 C4735 1.403 . S
H4733 C4739 0.930 . S
C4734 H4720 0.930 . S
C4734 C4732 1.395 . S
C4734 C4737 1.403 . S
C4735 C4732 1.403 . S
C4735 C4736 1.524 . S
C4735 C4739 1.400 . S
C4736 H4721 0.960 . S
C4736 H4722 0.960 . S
C4736 H4723 0.960 . S
C4736 C4735 1.524 . S
C4737 C4734 1.403 . S
C4737 C4738 1.392 . S
C4737 C4741 1.495 . S
C4738 C4737 1.392 . S
C4738 C4739 1.385 . S
C4738 C4740 1.478 . S
C4739 H4733 0.930 . S
C4739 C4735 1.400 . S
C4739 C4738 1.385 . S
C4740 C4738 1.478 . S
C4740 C4742 1.381 . S
C4740 C4746 1.383 . S
C4741 C4737 1.495 . S
C4741 H4747 0.959 . S
C4741 H4748 0.961 . S
C4741 H4749 0.960 . S
C4742 C4740 1.381 . S
C4742 C4743 1.394 . S
C4742 H4750 0.930 . S
C4743 C4742 1.394 . S
C4743 C4744 1.383 . S
C4743 H4751 0.929 . S
C4744 C4743 1.383 . S
C4744 C4745 1.377 . S
C4745 H4729 0.930 . S
C4745 C4744 1.377 . S
C4745 C4746 1.379 . S
C4746 H4730 0.931 . S
C4746 C4740 1.383 . S
C4746 C4745 1.379 . S
H4747 C4741 0.959 . S
H4748 C4741 0.961 . S
H4749 C4741 0.960 . S
H4750 C4742 0.930 . S
H4751 C4743 0.929 . S
H4752 C4760 0.929 . S
H4753 C4762 0.930 . S
H4754 C4764 0.930 . S
H4755 C4767 0.929 . S
H4756 C4770 0.930 . S
H4757 C4772 0.960 . S
H4758 C4772 0.960 . S
H4759 C4772 0.960 1_655 S
C4760 H4752 0.929 . S
C4760 C4761 1.377 . S
C4760 C4762 1.384 . S
C4761 C4760 1.377 . S
C4761 C4767 1.390 . S
C4762 H4753 0.930 . S
C4762 C4760 1.384 . S
C4762 C4763 1.372 . S
C4763 C4762 1.372 . S
C4763 C4764 1.400 . S
C4763 C4768 1.490 . S
C4764 H4754 0.930 . S
C4764 C4763 1.400 . S
C4764 C4767 1.386 . S
H4765 C4781 0.930 . S
H4766 C4782 0.931 . S
C4767 H4755 0.929 . S
C4767 C4761 1.390 . S
C4767 C4764 1.386 . S
C4768 C4763 1.490 . S
C4768 C4770 1.395 . S
C4768 C4771 1.392 1_655 S
H4769 C4775 0.930 . S
C4770 H4756 0.930 . S
C4770 C4768 1.395 . S
C4770 C4773 1.423 . S
C4771 C4768 1.392 1_455 S
C4771 C4772 1.525 . S
C4771 C4775 1.410 . S
C4772 H4757 0.960 . S
C4772 H4758 0.960 . S
C4772 H4759 0.960 1_455 S
C4772 C4771 1.525 . S
C4773 C4770 1.423 . S
C4773 C4774 1.372 1_655 S
C4773 C4777 1.497 . S
C4774 C4773 1.372 1_455 S
C4774 C4775 1.385 . S
C4774 C4776 1.478 . S
C4775 H4769 0.930 . S
C4775 C4771 1.410 . S
C4775 C4774 1.385 . S
C4776 C4774 1.478 . S
C4776 C4778 1.381 . S
C4776 C4782 1.383 . S
C4777 C4773 1.497 . S
C4777 H4783 0.959 . S
C4777 H4784 0.961 . S
C4777 H4785 0.960 1_655 S
C4778 C4776 1.381 . S
C4778 C4779 1.394 . S
C4778 H4786 0.930 . S
C4779 C4778 1.394 . S
C4779 C4780 1.383 . S
C4779 H4787 0.929 . S
C4780 C4779 1.383 . S
C4780 C4781 1.377 . S
C4781 H4765 0.930 . S
C4781 C4780 1.377 . S
C4781 C4782 1.379 . S
C4782 H4766 0.931 . S
C4782 C4776 1.383 . S
C4782 C4781 1.379 . S
H4783 C4777 0.959 . S
H4784 C4777 0.961 . S
H4785 C4777 0.960 1_455 S
H4786 C4778 0.930 . S
H4787 C4779 0.929 . S
H4788 C4796 0.929 . S
H4789 C4798 0.930 . S
H4790 C4800 0.930 . S
H4791 C4803 0.929 . S
H4792 C4806 0.930 . S
H4793 C4808 0.960 . S
H4794 C4808 0.960 . S
H4795 C4808 0.960 . S
C4796 H4788 0.929 . S
C4796 C4797 1.377 . S
C4796 C4798 1.384 . S
C4797 C4796 1.377 . S
C4797 C4803 1.390 . S
C4798 H4789 0.930 . S
C4798 C4796 1.384 . S
C4798 C4799 1.372 . S
C4799 C4798 1.372 . S
C4799 C4800 1.400 . S
C4799 C4804 1.490 . S
C4800 H4790 0.930 . S
C4800 C4799 1.400 . S
C4800 C4803 1.386 . S
H4801 C4817 0.930 . S
H4802 C4818 0.931 . S
C4803 H4791 0.929 . S
C4803 C4797 1.390 . S
C4803 C4800 1.386 . S
C4804 C4799 1.490 . S
C4804 C4806 1.395 . S
C4804 C4807 1.403 . S
H4805 C4811 0.930 . S
C4806 H4792 0.930 . S
C4806 C4804 1.395 . S
C4806 C4809 1.403 . S
C4807 C4804 1.403 . S
C4807 C4808 1.524 . S
C4807 C4811 1.400 . S
C4808 H4793 0.960 . S
C4808 H4794 0.960 . S
C4808 H4795 0.960 . S
C4808 C4807 1.524 . S
C4809 C4806 1.403 . S
C4809 C4810 1.392 . S
C4809 C4813 1.495 . S
C4810 C4809 1.392 . S
C4810 C4811 1.385 . S
C4810 C4812 1.478 . S
C4811 H4805 0.930 . S
C4811 C4807 1.400 . S
C4811 C4810 1.385 . S
C4812 C4810 1.478 . S
C4812 C4814 1.381 . S
C4812 C4818 1.383 . S
C4813 C4809 1.495 . S
C4813 H4819 0.959 . S
C4813 H4820 0.961 . S
C4813 H4821 0.960 . S
C4814 C4812 1.381 . S
C4814 C4815 1.394 . S
C4814 H4822 0.930 . S
C4815 C4814 1.394 . S
C4815 C4816 1.383 . S
C4815 H4823 0.929 . S
C4816 C4815 1.383 . S
C4816 C4817 1.377 . S
C4817 H4801 0.930 . S
C4817 C4816 1.377 . S
C4817 C4818 1.379 . S
C4818 H4802 0.931 . S
C4818 C4812 1.383 . S
C4818 C4817 1.379 . S
H4819 C4813 0.959 . S
H4820 C4813 0.961 . S
H4821 C4813 0.960 . S
H4822 C4814 0.930 . S
H4823 C4815 0.929 . S
H4824 C4832 0.929 . S
H4825 C4834 0.930 . S
H4826 C4836 0.930 . S
H4827 C4839 0.929 . S
H4828 C4842 0.930 . S
H4829 C4844 0.965 . S
H4830 C4844 0.956 1_545 S
H4831 C4844 0.962 . S
C4832 H4824 0.929 . S
C4832 C4833 1.377 . S
C4832 C4834 1.384 . S
C4833 C4832 1.377 . S
C4833 C4839 1.390 . S
C4834 H4825 0.930 . S
C4834 C4832 1.384 . S
C4834 C4835 1.372 . S
C4835 C4834 1.372 . S
C4835 C4836 1.400 . S
C4835 C4840 1.490 . S
C4836 H4826 0.930 . S
C4836 C4835 1.400 . S
C4836 C4839 1.386 . S
H4837 C4853 0.930 . S
H4838 C4854 0.931 . S
C4839 H4827 0.929 . S
C4839 C4833 1.390 . S
C4839 C4836 1.386 . S
C4840 C4835 1.490 . S
C4840 C4842 1.395 . S
C4840 C4843 1.443 . S
H4841 C4847 0.930 . S
C4842 H4828 0.930 . S
C4842 C4840 1.395 . S
C4842 C4845 1.403 . S
C4843 C4840 1.443 . S
C4843 C4844 1.495 1_545 S
C4843 C4847 1.388 1_545 S
C4844 H4829 0.965 . S
C4844 H4830 0.956 1_565 S
C4844 H4831 0.962 . S
C4844 C4843 1.495 1_565 S
C4845 C4842 1.403 . S
C4845 C4846 1.392 1_545 S
C4845 C4849 1.495 . S
C4846 C4845 1.392 1_565 S
C4846 C4847 1.385 . S
C4846 C4848 1.478 . S
C4847 H4841 0.930 . S
C4847 C4843 1.388 1_565 S
C4847 C4846 1.385 . S
C4848 C4846 1.478 . S
C4848 C4850 1.381 . S
C4848 C4854 1.383 . S
C4849 C4845 1.495 . S
C4849 H4855 0.959 . S
C4849 H4856 0.961 1_545 S
C4849 H4857 0.960 . S
C4850 C4848 1.381 . S
C4850 C4851 1.394 . S
C4850 H4858 0.930 . S
C4851 C4850 1.394 . S
C4851 C4852 1.383 . S
C4851 H4859 0.929 . S
C4852 C4851 1.383 . S
C4852 C4853 1.377 . S
C4853 H4837 0.930 . S
C4853 C4852 1.377 . S
C4853 C4854 1.379 . S
C4854 H4838 0.931 . S
C4854 C4848 1.383 . S
C4854 C4853 1.379 . S
H4855 C4849 0.959 . S
H4856 C4849 0.961 1_565 S
H4857 C4849 0.960 . S
H4858 C4850 0.930 . S
H4859 C4851 0.929 . S
H4860 C4868 0.929 . S
H4861 C4870 0.930 . S
H4862 C4872 0.930 . S
H4863 C4875 0.929 . S
H4864 C4878 0.930 . S
H4865 C4880 0.922 1_545 S
H4866 C4880 1.018 . S
H4867 C4880 0.979 1_544 S
C4868 H4860 0.929 . S
C4868 C4869 1.377 . S
C4868 C4870 1.384 . S
C4869 C4868 1.377 . S
C4869 C4875 1.390 . S
C4870 H4861 0.930 . S
C4870 C4868 1.384 . S
C4870 C4871 1.372 . S
C4871 C4870 1.372 . S
C4871 C4872 1.400 . S
C4871 C4876 1.490 . S
C4872 H4862 0.930 . S
C4872 C4871 1.400 . S
C4872 C4875 1.386 . S
H4873 C4889 0.930 . S
H4874 C4890 0.931 . S
C4875 H4863 0.929 . S
C4875 C4869 1.390 . S
C4875 C4872 1.386 . S
C4876 C4871 1.490 . S
C4876 C4878 1.395 . S
C4876 C4879 1.442 1_554 S
H4877 C4883 0.930 . S
C4878 H4864 0.930 . S
C4878 C4876 1.395 . S
C4878 C4881 1.481 . S
C4879 C4876 1.442 1_556 S
C4879 C4880 1.536 . S
C4879 C4883 1.316 1_565 S
C4880 H4865 0.922 1_565 S
C4880 H4866 1.018 . S
C4880 H4867 0.979 1_566 S
C4880 C4879 1.536 . S
C4881 C4878 1.481 . S
C4881 C4882 1.360 1_564 S
C4881 C4885 1.457 . S
C4882 C4881 1.360 1_546 S
C4882 C4883 1.385 . S
C4882 C4884 1.478 . S
C4883 H4877 0.930 . S
C4883 C4879 1.316 1_545 S
C4883 C4882 1.385 . S
C4884 C4882 1.478 . S
C4884 C4886 1.381 . S
C4884 C4890 1.383 . S
C4885 C4881 1.457 . S
C4885 H4891 0.959 . S
C4885 H4892 0.961 1_565 S
C4885 H4893 0.960 1_554 S
C4886 C4884 1.381 . S
C4886 C4887 1.394 . S
C4886 H4894 0.930 . S
C4887 C4886 1.394 . S
C4887 C4888 1.383 . S
C4887 H4895 0.929 . S
C4888 C4887 1.383 . S
C4888 C4889 1.377 . S
C4889 H4873 0.930 . S
C4889 C4888 1.377 . S
C4889 C4890 1.379 . S
C4890 H4874 0.931 . S
C4890 C4884 1.383 . S
C4890 C4889 1.379 . S
H4891 C4885 0.959 . S
H4892 C4885 0.961 1_545 S
H4893 C4885 0.960 1_556 S
H4894 C4886 0.930 . S
H4895 C4887 0.929 . S
H4896 C4904 0.929 . S
H4897 C4906 0.930 . S
H4898 C4908 0.930 1_554 S
H4899 C4911 0.929 . S
H4900 C4914 0.930 . S
H4901 C4916 0.960 . S
H4902 C4916 0.960 1_556 S
H4903 C4916 0.960 1_655 S
C4904 H4896 0.929 . S
C4904 C4905 1.377 . S
C4904 C4906 1.384 . S
C4905 C4904 1.377 . S
C4905 C4911 1.390 . S
C4906 H4897 0.930 . S
C4906 C4904 1.384 . S
C4906 C4907 1.372 . S
C4907 C4906 1.372 . S
C4907 C4908 1.400 . S
C4907 C4912 1.490 . S
C4908 H4898 0.930 1_556 S
C4908 C4907 1.400 . S
C4908 C4911 1.386 . S
H4909 C4925 0.930 . S
H4910 C4926 0.931 . S
C4911 H4899 0.929 . S
C4911 C4905 1.390 . S
C4911 C4908 1.386 . S
C4912 C4907 1.490 . S
C4912 C4914 1.395 . S
C4912 C4915 1.373 1_656 S
H4913 C4919 0.930 . S
C4914 H4900 0.930 . S
C4914 C4912 1.395 . S
C4914 C4917 1.423 . S
C4915 C4912 1.373 1_454 S
C4915 C4916 1.545 . S
C4915 C4919 1.410 . S
C4916 H4901 0.960 . S
C4916 H4902 0.960 1_554 S
C4916 H4903 0.960 1_455 S
C4916 C4915 1.545 . S
C4917 C4914 1.423 . S
C4917 C4918 1.338 1_656 S
C4917 C4921 1.533 . S
C4918 C4917 1.338 1_454 S
C4918 C4919 1.385 . S
C4918 C4920 1.478 . S
C4919 H4913 0.930 . S
C4919 C4915 1.410 . S
C4919 C4918 1.385 . S
C4920 C4918 1.478 . S
C4920 C4922 1.381 . S
C4920 C4926 1.383 . S
C4921 C4917 1.533 . S
C4921 H4927 0.959 . S
C4921 H4928 0.961 1_556 S
C4921 H4929 0.960 1_655 S
C4922 C4920 1.381 . S
C4922 C4923 1.394 . S
C4922 H4930 0.930 1_554 S
C4923 C4922 1.394 . S
C4923 C4924 1.383 . S
C4923 H4931 0.929 . S
C4924 C4923 1.383 . S
C4924 C4925 1.377 . S
C4925 H4909 0.930 . S
C4925 C4924 1.377 . S
C4925 C4926 1.379 . S
C4926 H4910 0.931 . S
C4926 C4920 1.383 . S
C4926 C4925 1.379 . S
H4927 C4921 0.959 . S
H4928 C4921 0.961 1_554 S
H4929 C4921 0.960 1_455 S
H4930 C4922 0.930 1_556 S
H4931 C4923 0.929 . S
H4932 C4940 0.929 . S
H4933 C4942 0.930 . S
H4934 C4944 0.930 . S
H4935 C4947 0.929 . S
H4936 C4950 0.930 . S
H4937 C4952 0.960 . S
H4938 C4952 0.960 . S
H4939 C4952 0.960 . S
C4940 H4932 0.929 . S
C4940 C4941 1.377 . S
C4940 C4942 1.384 . S
C4941 C4940 1.377 . S
C4941 C4947 1.390 . S
C4942 H4933 0.930 . S
C4942 C4940 1.384 . S
C4942 C4943 1.372 . S
C4943 C4942 1.372 . S
C4943 C4944 1.400 . S
C4943 C4948 1.490 . S
C4944 H4934 0.930 . S
C4944 C4943 1.400 . S
C4944 C4947 1.386 . S
H4945 C4961 0.930 . S
H4946 C4962 0.931 . S
C4947 H4935 0.929 . S
C4947 C4941 1.390 . S
C4947 C4944 1.386 . S
C4948 C4943 1.490 . S
C4948 C4950 1.395 1_554 S
C4948 C4951 1.403 . S
H4949 C4955 0.930 . S
C4950 H4936 0.930 . S
C4950 C4948 1.395 1_556 S
C4950 C4953 1.403 . S
C4951 C4948 1.403 . S
C4951 C4952 1.524 . S
C4951 C4955 1.400 . S
C4952 H4937 0.960 . S
C4952 H4938 0.960 . S
C4952 H4939 0.960 . S
C4952 C4951 1.524 . S
C4953 C4950 1.403 . S
C4953 C4954 1.392 . S
C4953 C4957 1.495 . S
C4954 C4953 1.392 . S
C4954 C4955 1.385 1_556 S
C4954 C4956 1.478 . S
C4955 H4949 0.930 . S
C4955 C4951 1.400 . S
C4955 C4954 1.385 1_554 S
C4956 C4954 1.478 . S
C4956 C4958 1.381 . S
C4956 C4962 1.383 . S
C4957 C4953 1.495 . S
C4957 H4963 0.959 . S
C4957 H4964 0.961 . S
C4957 H4965 0.960 . S
C4958 C4956 1.381 . S
C4958 C4959 1.394 . S
C4958 H4966 0.930 . S
C4959 C4958 1.394 . S
C4959 C4960 1.383 . S
C4959 H4967 0.929 . S
C4960 C4959 1.383 . S
C4960 C4961 1.377 . S
C4961 H4945 0.930 . S
C4961 C4960 1.377 . S
C4961 C4962 1.379 . S
C4962 H4946 0.931 . S
C4962 C4956 1.383 . S
C4962 C4961 1.379 . S
H4963 C4957 0.959 . S
H4964 C4957 0.961 . S
H4965 C4957 0.960 . S
H4966 C4958 0.930 . S
H4967 C4959 0.929 . S
H4968 C4976 0.929 . S
H4969 C4978 0.930 . S
H4970 C4980 0.930 . S
H4971 C4983 0.929 1_554 S
H4972 C4986 0.930 . S
H4973 C4988 0.960 . S
H4974 C4988 0.960 . S
H4975 C4988 0.960 . S
C4976 H4968 0.929 . S
C4976 C4977 1.377 . S
C4976 C4978 1.384 . S
C4977 C4976 1.377 . S
C4977 C4983 1.390 . S
C4978 H4969 0.930 . S
C4978 C4976 1.384 . S
C4978 C4979 1.372 . S
C4979 C4978 1.372 . S
C4979 C4980 1.400 . S
C4979 C4984 1.490 . S
C4980 H4970 0.930 . S
C4980 C4979 1.400 . S
C4980 C4983 1.386 . S
H4981 C4997 0.930 . S
H4982 C4998 0.931 . S
C4983 H4971 0.929 1_556 S
C4983 C4977 1.390 . S
C4983 C4980 1.386 . S
C4984 C4979 1.490 . S
C4984 C4986 1.395 . S
C4984 C4987 1.403 . S
H4985 C4991 0.930 . S
C4986 H4972 0.930 . S
C4986 C4984 1.395 . S
C4986 C4989 1.403 . S
C4987 C4984 1.403 . S
C4987 C4988 1.524 . S
C4987 C4991 1.400 . S
C4988 H4973 0.960 . S
C4988 H4974 0.960 . S
C4988 H4975 0.960 . S
C4988 C4987 1.524 . S
C4989 C4986 1.403 . S
C4989 C4990 1.392 . S
C4989 C4993 1.495 . S
C4990 C4989 1.392 . S
C4990 C4991 1.385 . S
C4990 C4992 1.478 . S
C4991 H4985 0.930 . S
C4991 C4987 1.400 . S
C4991 C4990 1.385 . S
C4992 C4990 1.478 . S
C4992 C4994 1.381 . S
C4992 C4998 1.383 . S
C4993 C4989 1.495 . S
C4993 H4999 0.959 . S
C4993 H5000 0.961 . S
C4993 H5001 0.960 . S
C4994 C4992 1.381 . S
C4994 C4995 1.394 . S
C4994 H5002 0.930 . S
C4995 C4994 1.394 . S
C4995 C4996 1.383 . S
C4995 H5003 0.929 . S
C4996 C4995 1.383 . S
C4996 C4997 1.377 . S
C4997 H4981 0.930 . S
C4997 C4996 1.377 . S
C4997 C4998 1.379 . S
C4998 H4982 0.931 . S
C4998 C4992 1.383 . S
C4998 C4997 1.379 . S
H4999 C4993 0.959 . S
H5000 C4993 0.961 . S
H5001 C4993 0.960 . S
H5002 C4994 0.930 . S
H5003 C4995 0.929 . S
H5004 C5012 0.929 1_554 S
H5005 C5014 0.930 . S
H5006 C5016 0.930 . S
H5007 C5019 0.929 . S
H5008 C5022 0.930 . S
H5009 C5024 0.960 . S
H5010 C5024 0.960 . S
H5011 C5024 0.960 . S
C5012 H5004 0.929 1_556 S
C5012 C5013 1.377 . S
C5012 C5014 1.384 . S
C5013 C5012 1.377 . S
C5013 C5019 1.390 . S
C5014 H5005 0.930 . S
C5014 C5012 1.384 . S
C5014 C5015 1.372 . S
C5015 C5014 1.372 . S
C5015 C5016 1.400 . S
C5015 C5020 1.490 . S
C5016 H5006 0.930 . S
C5016 C5015 1.400 . S
C5016 C5019 1.386 . S
H5017 C5033 0.930 . S
H5018 C5034 0.931 . S
C5019 H5007 0.929 . S
C5019 C5013 1.390 . S
C5019 C5016 1.386 . S
C5020 C5015 1.490 . S
C5020 C5022 1.395 . S
C5020 C5023 1.403 . S
H5021 C5027 0.930 . S
C5022 H5008 0.930 . S
C5022 C5020 1.395 . S
C5022 C5025 1.403 . S
C5023 C5020 1.403 . S
C5023 C5024 1.524 . S
C5023 C5027 1.400 . S
C5024 H5009 0.960 . S
C5024 H5010 0.960 . S
C5024 H5011 0.960 . S
C5024 C5023 1.524 . S
C5025 C5022 1.403 . S
C5025 C5026 1.392 . S
C5025 C5029 1.495 . S
C5026 C5025 1.392 . S
C5026 C5027 1.385 . S
C5026 C5028 1.478 . S
C5027 H5021 0.930 . S
C5027 C5023 1.400 . S
C5027 C5026 1.385 . S
C5028 C5026 1.478 . S
C5028 C5030 1.381 . S
C5028 C5034 1.383 . S
C5029 C5025 1.495 . S
C5029 H5035 0.959 . S
C5029 H5036 0.961 . S
C5029 H5037 0.960 . S
C5030 C5028 1.381 . S
C5030 C5031 1.394 . S
C5030 H5038 0.930 . S
C5031 C5030 1.394 . S
C5031 C5032 1.383 . S
C5031 H5039 0.929 . S
C5032 C5031 1.383 . S
C5032 C5033 1.377 . S
C5033 H5017 0.930 . S
C5033 C5032 1.377 . S
C5033 C5034 1.379 . S
C5034 H5018 0.931 . S
C5034 C5028 1.383 . S
C5034 C5033 1.379 . S
H5035 C5029 0.959 . S
H5036 C5029 0.961 . S
H5037 C5029 0.960 . S
H5038 C5030 0.930 . S
H5039 C5031 0.929 . S
H5040 C5048 0.929 . S
H5041 C5050 0.930 . S
H5042 C5052 0.930 . S
H5043 C5055 0.929 . S
H5044 C5058 0.930 . S
H5045 C5060 0.960 . S
H5046 C5060 0.960 . S
H5047 C5060 0.960 . S
C5048 H5040 0.929 . S
C5048 C5049 1.377 . S
C5048 C5050 1.384 . S
C5049 C5048 1.377 . S
C5049 C5055 1.390 . S
C5050 H5041 0.930 . S
C5050 C5048 1.384 . S
C5050 C5051 1.372 . S
C5051 C5050 1.372 . S
C5051 C5052 1.400 . S
C5051 C5056 1.490 . S
C5052 H5042 0.930 . S
C5052 C5051 1.400 . S
C5052 C5055 1.386 . S
H5053 C5069 0.930 . S
H5054 C5070 0.931 . S
C5055 H5043 0.929 . S
C5055 C5049 1.390 . S
C5055 C5052 1.386 . S
C5056 C5051 1.490 . S
C5056 C5058 1.395 . S
C5056 C5059 1.403 . S
H5057 C5063 0.930 . S
C5058 H5044 0.930 . S
C5058 C5056 1.395 . S
C5058 C5061 1.403 . S
C5059 C5056 1.403 . S
C5059 C5060 1.524 . S
C5059 C5063 1.400 . S
C5060 H5045 0.960 . S
C5060 H5046 0.960 . S
C5060 H5047 0.960 . S
C5060 C5059 1.524 . S
C5061 C5058 1.403 . S
C5061 C5062 1.392 . S
C5061 C5065 1.495 . S
C5062 C5061 1.392 . S
C5062 C5063 1.385 . S
C5062 C5064 1.478 . S
C5063 H5057 0.930 . S
C5063 C5059 1.400 . S
C5063 C5062 1.385 . S
C5064 C5062 1.478 . S
C5064 C5066 1.381 . S
C5064 C5070 1.383 . S
C5065 C5061 1.495 . S
C5065 H5071 0.959 . S
C5065 H5072 0.961 . S
C5065 H5073 0.960 . S
C5066 C5064 1.381 . S
C5066 C5067 1.394 . S
C5066 H5074 0.930 . S
C5067 C5066 1.394 . S
C5067 C5068 1.383 . S
C5067 H5075 0.929 . S
C5068 C5067 1.383 . S
C5068 C5069 1.377 . S
C5069 H5053 0.930 . S
C5069 C5068 1.377 . S
C5069 C5070 1.379 . S
C5070 H5054 0.931 . S
C5070 C5064 1.383 . S
C5070 C5069 1.379 . S
H5071 C5065 0.959 . S
H5072 C5065 0.961 . S
H5073 C5065 0.960 . S
H5074 C5066 0.930 . S
H5075 C5067 0.929 . S
H5076 C5084 0.929 . S
H5077 C5086 0.930 . S
H5078 C5088 0.930 . S
H5079 C5091 0.929 . S
H5080 C5094 0.930 . S
H5081 C5096 0.960 . S
H5082 C5096 0.960 . S
H5083 C5096 0.960 . S
C5084 H5076 0.929 . S
C5084 C5085 1.377 . S
C5084 C5086 1.384 . S
C5085 C5084 1.377 . S
C5085 C5091 1.390 . S
C5086 H5077 0.930 . S
C5086 C5084 1.384 . S
C5086 C5087 1.372 . S
C5087 C5086 1.372 . S
C5087 C5088 1.400 . S
C5087 C5092 1.490 . S
C5088 H5078 0.930 . S
C5088 C5087 1.400 . S
C5088 C5091 1.386 . S
H5089 C5105 0.930 . S
H5090 C5106 0.931 . S
C5091 H5079 0.929 . S
C5091 C5085 1.390 . S
C5091 C5088 1.386 . S
C5092 C5087 1.490 . S
C5092 C5094 1.395 . S
C5092 C5095 1.403 . S
H5093 C5099 0.930 . S
C5094 H5080 0.930 . S
C5094 C5092 1.395 . S
C5094 C5097 1.403 . S
C5095 C5092 1.403 . S
C5095 C5096 1.524 . S
C5095 C5099 1.400 . S
C5096 H5081 0.960 . S
C5096 H5082 0.960 . S
C5096 H5083 0.960 . S
C5096 C5095 1.524 . S
C5097 C5094 1.403 . S
C5097 C5098 1.392 . S
C5097 C5101 1.495 . S
C5098 C5097 1.392 . S
C5098 C5099 1.385 . S
C5098 C5100 1.478 . S
C5099 H5093 0.930 . S
C5099 C5095 1.400 . S
C5099 C5098 1.385 . S
C5100 C5098 1.478 . S
C5100 C5102 1.381 . S
C5100 C5106 1.383 . S
C5101 C5097 1.495 . S
C5101 H5107 0.959 . S
C5101 H5108 0.961 . S
C5101 H5109 0.960 . S
C5102 C5100 1.381 . S
C5102 C5103 1.394 . S
C5102 H5110 0.930 . S
C5103 C5102 1.394 . S
C5103 C5104 1.383 . S
C5103 H5111 0.929 . S
C5104 C5103 1.383 . S
C5104 C5105 1.377 . S
C5105 H5089 0.930 . S
C5105 C5104 1.377 . S
C5105 C5106 1.379 . S
C5106 H5090 0.931 . S
C5106 C5100 1.383 . S
C5106 C5105 1.379 . S
H5107 C5101 0.959 . S
H5108 C5101 0.961 . S
H5109 C5101 0.960 . S
H5110 C5102 0.930 . S
H5111 C5103 0.929 . S
H5112 C5120 0.929 . S
H5113 C5122 0.930 . S
H5114 C5124 0.930 . S
H5115 C5127 0.929 . S
H5116 C5130 0.930 . S
H5117 C5132 0.960 . S
H5118 C5132 0.960 . S
H5119 C5132 0.960 . S
C5120 H5112 0.929 . S
C5120 C5121 1.377 . S
C5120 C5122 1.384 . S
C5121 C5120 1.377 . S
C5121 C5127 1.390 . S
C5122 H5113 0.930 . S
C5122 C5120 1.384 . S
C5122 C5123 1.372 . S
C5123 C5122 1.372 . S
C5123 C5124 1.400 . S
C5123 C5128 1.490 . S
C5124 H5114 0.930 . S
C5124 C5123 1.400 . S
C5124 C5127 1.386 . S
H5125 C5141 0.930 . S
H5126 C5142 0.931 . S
C5127 H5115 0.929 . S
C5127 C5121 1.390 . S
C5127 C5124 1.386 . S
C5128 C5123 1.490 . S
C5128 C5130 1.395 . S
C5128 C5131 1.403 . S
H5129 C5135 0.930 . S
C5130 H5116 0.930 . S
C5130 C5128 1.395 . S
C5130 C5133 1.403 . S
C5131 C5128 1.403 . S
C5131 C5132 1.524 . S
C5131 C5135 1.400 . S
C5132 H5117 0.960 . S
C5132 H5118 0.960 . S
C5132 H5119 0.960 . S
C5132 C5131 1.524 . S
C5133 C5130 1.403 . S
C5133 C5134 1.392 . S
C5133 C5137 1.495 . S
C5134 C5133 1.392 . S
C5134 C5135 1.385 . S
C5134 C5136 1.478 . S
C5135 H5129 0.930 . S
C5135 C5131 1.400 . S
C5135 C5134 1.385 . S
C5136 C5134 1.478 . S
C5136 C5138 1.381 . S
C5136 C5142 1.383 . S
C5137 C5133 1.495 . S
C5137 H5143 0.959 . S
C5137 H5144 0.961 . S
C5137 H5145 0.960 . S
C5138 C5136 1.381 . S
C5138 C5139 1.394 . S
C5138 H5146 0.930 . S
C5139 C5138 1.394 . S
C5139 C5140 1.383 . S
C5139 H5147 0.929 . S
C5140 C5139 1.383 . S
C5140 C5141 1.377 . S
C5141 H5125 0.930 . S
C5141 C5140 1.377 . S
C5141 C5142 1.379 . S
C5142 H5126 0.931 . S
C5142 C5136 1.383 . S
C5142 C5141 1.379 . S
H5143 C5137 0.959 . S
H5144 C5137 0.961 . S
H5145 C5137 0.960 . S
H5146 C5138 0.930 . S
H5147 C5139 0.929 . S
H5148 C5156 0.929 . S
H5149 C5158 0.930 . S
H5150 C5160 0.930 . S
H5151 C5163 0.929 . S
H5152 C5166 0.930 . S
H5153 C5168 0.960 . S
H5154 C5168 0.960 . S
H5155 C5168 0.960 . S
C5156 H5148 0.929 . S
C5156 C5157 1.377 . S
C5156 C5158 1.384 . S
C5157 C5156 1.377 . S
C5157 C5163 1.390 . S
C5158 H5149 0.930 . S
C5158 C5156 1.384 . S
C5158 C5159 1.372 . S
C5159 C5158 1.372 . S
C5159 C5160 1.400 . S
C5159 C5164 1.490 . S
C5160 H5150 0.930 . S
C5160 C5159 1.400 . S
C5160 C5163 1.386 . S
H5161 C5177 0.930 . S
H5162 C5178 0.931 . S
C5163 H5151 0.929 . S
C5163 C5157 1.390 . S
C5163 C5160 1.386 . S
C5164 C5159 1.490 . S
C5164 C5166 1.395 . S
C5164 C5167 1.403 . S
H5165 C5171 0.930 . S
C5166 H5152 0.930 . S
C5166 C5164 1.395 . S
C5166 C5169 1.403 . S
C5167 C5164 1.403 . S
C5167 C5168 1.524 . S
C5167 C5171 1.400 . S
C5168 H5153 0.960 . S
C5168 H5154 0.960 . S
C5168 H5155 0.960 . S
C5168 C5167 1.524 . S
C5169 C5166 1.403 . S
C5169 C5170 1.392 . S
C5169 C5173 1.495 . S
C5170 C5169 1.392 . S
C5170 C5171 1.385 . S
C5170 C5172 1.478 . S
C5171 H5165 0.930 . S
C5171 C5167 1.400 . S
C5171 C5170 1.385 . S
C5172 C5170 1.478 . S
C5172 C5174 1.381 . S
C5172 C5178 1.383 . S
C5173 C5169 1.495 . S
C5173 H5179 0.959 . S
C5173 H5180 0.961 . S
C5173 H5181 0.960 . S
C5174 C5172 1.381 . S
C5174 C5175 1.394 . S
C5174 H5182 0.930 . S
C5175 C5174 1.394 . S
C5175 C5176 1.383 . S
C5175 H5183 0.929 . S
C5176 C5175 1.383 . S
C5176 C5177 1.377 . S
C5177 H5161 0.930 . S
C5177 C5176 1.377 . S
C5177 C5178 1.379 . S
C5178 H5162 0.931 . S
C5178 C5172 1.383 . S
C5178 C5177 1.379 . S
H5179 C5173 0.959 . S
H5180 C5173 0.961 . S
H5181 C5173 0.960 . S
H5182 C5174 0.930 . S
H5183 C5175 0.929 . S
H5184 C5192 0.929 . S
H5185 C5194 0.930 . S
H5186 C5196 0.930 . S
H5187 C5199 0.929 . S
H5188 C5202 0.930 . S
H5189 C5204 0.960 . S
H5190 C5204 0.960 . S
H5191 C5204 0.960 . S
C5192 H5184 0.929 . S
C5192 C5193 1.377 . S
C5192 C5194 1.384 . S
C5193 C5192 1.377 . S
C5193 C5199 1.390 . S
C5194 H5185 0.930 . S
C5194 C5192 1.384 . S
C5194 C5195 1.372 . S
C5195 C5194 1.372 . S
C5195 C5196 1.400 . S
C5195 C5200 1.490 . S
C5196 H5186 0.930 . S
C5196 C5195 1.400 . S
C5196 C5199 1.386 . S
H5197 C5213 0.930 . S
H5198 C5214 0.931 . S
C5199 H5187 0.929 . S
C5199 C5193 1.390 . S
C5199 C5196 1.386 . S
C5200 C5195 1.490 . S
C5200 C5202 1.395 . S
C5200 C5203 1.403 . S
H5201 C5207 0.930 . S
C5202 H5188 0.930 . S
C5202 C5200 1.395 . S
C5202 C5205 1.403 . S
C5203 C5200 1.403 . S
C5203 C5204 1.524 . S
C5203 C5207 1.400 . S
C5204 H5189 0.960 . S
C5204 H5190 0.960 . S
C5204 H5191 0.960 . S
C5204 C5203 1.524 . S
C5205 C5202 1.403 . S
C5205 C5206 1.392 . S
C5205 C5209 1.495 . S
C5206 C5205 1.392 . S
C5206 C5207 1.385 . S
C5206 C5208 1.478 . S
C5207 H5201 0.930 . S
C5207 C5203 1.400 . S
C5207 C5206 1.385 . S
C5208 C5206 1.478 . S
C5208 C5210 1.381 . S
C5208 C5214 1.383 . S
C5209 C5205 1.495 . S
C5209 H5215 0.959 . S
C5209 H5216 0.961 . S
C5209 H5217 0.960 . S
C5210 C5208 1.381 . S
C5210 C5211 1.394 . S
C5210 H5218 0.930 . S
C5211 C5210 1.394 . S
C5211 C5212 1.383 . S
C5211 H5219 0.929 . S
C5212 C5211 1.383 . S
C5212 C5213 1.377 . S
C5213 H5197 0.930 . S
C5213 C5212 1.377 . S
C5213 C5214 1.379 . S
C5214 H5198 0.931 . S
C5214 C5208 1.383 . S
C5214 C5213 1.379 . S
H5215 C5209 0.959 . S
H5216 C5209 0.961 . S
H5217 C5209 0.960 . S
H5218 C5210 0.930 . S
H5219 C5211 0.929 . S
H5220 C5228 0.929 . S
H5221 C5230 0.930 . S
H5222 C5232 0.930 . S
H5223 C5235 0.929 1_556 S
H5224 C5238 0.930 . S
H5225 C5240 0.960 . S
H5226 C5240 0.960 . S
H5227 C5240 0.960 . S
C5228 H5220 0.929 . S
C5228 C5229 1.377 . S
C5228 C5230 1.384 . S
C5229 C5228 1.377 . S
C5229 C5235 1.390 . S
C5230 H5221 0.930 . S
C5230 C5228 1.384 . S
C5230 C5231 1.372 . S
C5231 C5230 1.372 . S
C5231 C5232 1.400 . S
C5231 C5236 1.490 . S
C5232 H5222 0.930 . S
C5232 C5231 1.400 . S
C5232 C5235 1.386 . S
H5233 C5249 0.930 . S
H5234 C5250 0.931 . S
C5235 H5223 0.929 1_554 S
C5235 C5229 1.390 . S
C5235 C5232 1.386 . S
C5236 C5231 1.490 . S
C5236 C5238 1.395 . S
C5236 C5239 1.403 . S
H5237 C5243 0.930 . S
C5238 H5224 0.930 . S
C5238 C5236 1.395 . S
C5238 C5241 1.403 . S
C5239 C5236 1.403 . S
C5239 C5240 1.524 . S
C5239 C5243 1.400 . S
C5240 H5225 0.960 . S
C5240 H5226 0.960 . S
C5240 H5227 0.960 . S
C5240 C5239 1.524 . S
C5241 C5238 1.403 . S
C5241 C5242 1.392 . S
C5241 C5245 1.495 . S
C5242 C5241 1.392 . S
C5242 C5243 1.385 . S
C5242 C5244 1.478 . S
C5243 H5237 0.930 . S
C5243 C5239 1.400 . S
C5243 C5242 1.385 . S
C5244 C5242 1.478 . S
C5244 C5246 1.381 . S
C5244 C5250 1.383 . S
C5245 C5241 1.495 . S
C5245 H5251 0.959 . S
C5245 H5252 0.961 . S
C5245 H5253 0.960 . S
C5246 C5244 1.381 . S
C5246 C5247 1.394 . S
C5246 H5254 0.930 . S
C5247 C5246 1.394 . S
C5247 C5248 1.383 . S
C5247 H5255 0.929 . S
C5248 C5247 1.383 . S
C5248 C5249 1.377 . S
C5249 H5233 0.930 . S
C5249 C5248 1.377 . S
C5249 C5250 1.379 . S
C5250 H5234 0.931 . S
C5250 C5244 1.383 . S
C5250 C5249 1.379 . S
H5251 C5245 0.959 . S
H5252 C5245 0.961 . S
H5253 C5245 0.960 . S
H5254 C5246 0.930 . S
H5255 C5247 0.929 . S
H5256 C5264 0.929 . S
H5257 C5266 0.930 . S
H5258 C5268 0.930 . S
H5259 C5271 0.929 . S
H5260 C5274 0.930 . S
H5261 C5276 0.960 . S
H5262 C5276 0.960 . S
H5263 C5276 0.960 . S
C5264 H5256 0.929 . S
C5264 C5265 1.377 . S
C5264 C5266 1.384 . S
C5265 C5264 1.377 . S
C5265 C5271 1.390 . S
C5266 H5257 0.930 . S
C5266 C5264 1.384 . S
C5266 C5267 1.372 . S
C5267 C5266 1.372 . S
C5267 C5268 1.400 . S
C5267 C5272 1.490 . S
C5268 H5258 0.930 . S
C5268 C5267 1.400 . S
C5268 C5271 1.386 . S
H5269 C5285 0.930 . S
H5270 C5286 0.931 . S
C5271 H5259 0.929 . S
C5271 C5265 1.390 . S
C5271 C5268 1.386 . S
C5272 C5267 1.490 . S
C5272 C5274 1.395 . S
C5272 C5275 1.403 . S
H5273 C5279 0.930 . S
C5274 H5260 0.930 . S
C5274 C5272 1.395 . S
C5274 C5277 1.403 . S
C5275 C5272 1.403 . S
C5275 C5276 1.524 . S
C5275 C5279 1.400 . S
C5276 H5261 0.960 . S
C5276 H5262 0.960 . S
C5276 H5263 0.960 . S
C5276 C5275 1.524 . S
C5277 C5274 1.403 . S
C5277 C5278 1.392 . S
C5277 C5281 1.495 . S
C5278 C5277 1.392 . S
C5278 C5279 1.385 . S
C5278 C5280 1.478 . S
C5279 H5273 0.930 . S
C5279 C5275 1.400 . S
C5279 C5278 1.385 . S
C5280 C5278 1.478 . S
C5280 C5282 1.381 . S
C5280 C5286 1.383 . S
C5281 C5277 1.495 . S
C5281 H5287 0.959 . S
C5281 H5288 0.961 . S
C5281 H5289 0.960 . S
C5282 C5280 1.381 . S
C5282 C5283 1.394 . S
C5282 H5290 0.930 . S
C5283 C5282 1.394 . S
C5283 C5284 1.383 . S
C5283 H5291 0.929 . S
C5284 C5283 1.383 . S
C5284 C5285 1.377 . S
C5285 H5269 0.930 . S
C5285 C5284 1.377 . S
C5285 C5286 1.379 . S
C5286 H5270 0.931 . S
C5286 C5280 1.383 . S
C5286 C5285 1.379 . S
H5287 C5281 0.959 . S
H5288 C5281 0.961 . S
H5289 C5281 0.960 . S
H5290 C5282 0.930 . S
H5291 C5283 0.929 . S
H5292 C5300 0.929 . S
H5293 C5302 0.930 . S
H5294 C5304 0.930 . S
H5295 C5307 0.929 . S
H5296 C5310 0.930 . S
H5297 C5312 0.960 . S
H5298 C5312 0.960 . S
H5299 C5312 0.960 . S
C5300 H5292 0.929 . S
C5300 C5301 1.377 . S
C5300 C5302 1.384 . S
C5301 C5300 1.377 . S
C5301 C5307 1.390 . S
C5302 H5293 0.930 . S
C5302 C5300 1.384 . S
C5302 C5303 1.372 . S
C5303 C5302 1.372 . S
C5303 C5304 1.400 . S
C5303 C5308 1.490 . S
C5304 H5294 0.930 . S
C5304 C5303 1.400 . S
C5304 C5307 1.386 . S
H5305 C5321 0.930 . S
H5306 C5322 0.931 . S
C5307 H5295 0.929 . S
C5307 C5301 1.390 . S
C5307 C5304 1.386 . S
C5308 C5303 1.490 . S
C5308 C5310 1.395 . S
C5308 C5311 1.403 . S
H5309 C5315 0.930 . S
C5310 H5296 0.930 . S
C5310 C5308 1.395 . S
C5310 C5313 1.403 . S
C5311 C5308 1.403 . S
C5311 C5312 1.524 . S
C5311 C5315 1.400 . S
C5312 H5297 0.960 . S
C5312 H5298 0.960 . S
C5312 H5299 0.960 . S
C5312 C5311 1.524 . S
C5313 C5310 1.403 . S
C5313 C5314 1.392 . S
C5313 C5317 1.495 . S
C5314 C5313 1.392 . S
C5314 C5315 1.385 . S
C5314 C5316 1.478 . S
C5315 H5309 0.930 . S
C5315 C5311 1.400 . S
C5315 C5314 1.385 . S
C5316 C5314 1.478 . S
C5316 C5318 1.381 . S
C5316 C5322 1.383 . S
C5317 C5313 1.495 . S
C5317 H5323 0.959 . S
C5317 H5324 0.961 . S
C5317 H5325 0.960 . S
C5318 C5316 1.381 . S
C5318 C5319 1.394 . S
C5318 H5326 0.930 . S
C5319 C5318 1.394 . S
C5319 C5320 1.383 . S
C5319 H5327 0.929 . S
C5320 C5319 1.383 . S
C5320 C5321 1.377 . S
C5321 H5305 0.930 . S
C5321 C5320 1.377 . S
C5321 C5322 1.379 . S
C5322 H5306 0.931 . S
C5322 C5316 1.383 . S
C5322 C5321 1.379 . S
H5323 C5317 0.959 . S
H5324 C5317 0.961 . S
H5325 C5317 0.960 . S
H5326 C5318 0.930 . S
H5327 C5319 0.929 . S
H5328 C5336 0.929 . S
H5329 C5338 0.930 . S
H5330 C5340 0.930 . S
H5331 C5343 0.929 . S
H5332 C5346 0.930 . S
H5333 C5348 0.960 . S
H5334 C5348 0.960 . S
H5335 C5348 0.960 . S
C5336 H5328 0.929 . S
C5336 C5337 1.377 . S
C5336 C5338 1.384 . S
C5337 C5336 1.377 . S
C5337 C5343 1.390 . S
C5338 H5329 0.930 . S
C5338 C5336 1.384 . S
C5338 C5339 1.372 . S
C5339 C5338 1.372 . S
C5339 C5340 1.400 . S
C5339 C5344 1.490 . S
C5340 H5330 0.930 . S
C5340 C5339 1.400 . S
C5340 C5343 1.386 . S
H5341 C5357 0.930 . S
H5342 C5358 0.931 . S
C5343 H5331 0.929 . S
C5343 C5337 1.390 . S
C5343 C5340 1.386 . S
C5344 C5339 1.490 . S
C5344 C5346 1.395 . S
C5344 C5347 1.403 . S
H5345 C5351 0.930 . S
C5346 H5332 0.930 . S
C5346 C5344 1.395 . S
C5346 C5349 1.403 . S
C5347 C5344 1.403 . S
C5347 C5348 1.524 . S
C5347 C5351 1.400 . S
C5348 H5333 0.960 . S
C5348 H5334 0.960 . S
C5348 H5335 0.960 . S
C5348 C5347 1.524 . S
C5349 C5346 1.403 . S
C5349 C5350 1.392 . S
C5349 C5353 1.495 . S
C5350 C5349 1.392 . S
C5350 C5351 1.385 . S
C5350 C5352 1.478 . S
C5351 H5345 0.930 . S
C5351 C5347 1.400 . S
C5351 C5350 1.385 . S
C5352 C5350 1.478 . S
C5352 C5354 1.381 . S
C5352 C5358 1.383 . S
C5353 C5349 1.495 . S
C5353 H5359 0.959 . S
C5353 H5360 0.961 . S
C5353 H5361 0.960 . S
C5354 C5352 1.381 . S
C5354 C5355 1.394 . S
C5354 H5362 0.930 . S
C5355 C5354 1.394 . S
C5355 C5356 1.383 . S
C5355 H5363 0.929 . S
C5356 C5355 1.383 . S
C5356 C5357 1.377 . S
C5357 H5341 0.930 . S
C5357 C5356 1.377 . S
C5357 C5358 1.379 . S
C5358 H5342 0.931 . S
C5358 C5352 1.383 . S
C5358 C5357 1.379 . S
H5359 C5353 0.959 . S
H5360 C5353 0.961 . S
H5361 C5353 0.960 . S
H5362 C5354 0.930 . S
H5363 C5355 0.929 . S
H5364 C5372 0.929 . S
H5365 C5374 0.930 . S
H5366 C5376 0.930 . S
H5367 C5379 0.929 . S
H5368 C5382 0.930 . S
H5369 C5384 0.960 . S
H5370 C5384 0.960 . S
H5371 C5384 0.960 . S
C5372 H5364 0.929 . S
C5372 C5373 1.377 . S
C5372 C5374 1.384 . S
C5373 C5372 1.377 . S
C5373 C5379 1.390 . S
C5374 H5365 0.930 . S
C5374 C5372 1.384 . S
C5374 C5375 1.372 . S
C5375 C5374 1.372 . S
C5375 C5376 1.400 . S
C5375 C5380 1.490 . S
C5376 H5366 0.930 . S
C5376 C5375 1.400 . S
C5376 C5379 1.386 . S
H5377 C5393 0.930 . S
H5378 C5394 0.931 . S
C5379 H5367 0.929 . S
C5379 C5373 1.390 . S
C5379 C5376 1.386 . S
C5380 C5375 1.490 . S
C5380 C5382 1.395 . S
C5380 C5383 1.403 . S
H5381 C5387 0.930 . S
C5382 H5368 0.930 . S
C5382 C5380 1.395 . S
C5382 C5385 1.403 . S
C5383 C5380 1.403 . S
C5383 C5384 1.524 . S
C5383 C5387 1.400 . S
C5384 H5369 0.960 . S
C5384 H5370 0.960 . S
C5384 H5371 0.960 . S
C5384 C5383 1.524 . S
C5385 C5382 1.403 . S
C5385 C5386 1.392 . S
C5385 C5389 1.495 . S
C5386 C5385 1.392 . S
C5386 C5387 1.385 . S
C5386 C5388 1.478 . S
C5387 H5381 0.930 . S
C5387 C5383 1.400 . S
C5387 C5386 1.385 . S
C5388 C5386 1.478 . S
C5388 C5390 1.381 . S
C5388 C5394 1.383 . S
C5389 C5385 1.495 . S
C5389 H5395 0.959 . S
C5389 H5396 0.961 . S
C5389 H5397 0.960 . S
C5390 C5388 1.381 . S
C5390 C5391 1.394 . S
C5390 H5398 0.930 . S
C5391 C5390 1.394 . S
C5391 C5392 1.383 . S
C5391 H5399 0.929 . S
C5392 C5391 1.383 . S
C5392 C5393 1.377 . S
C5393 H5377 0.930 . S
C5393 C5392 1.377 . S
C5393 C5394 1.379 . S
C5394 H5378 0.931 . S
C5394 C5388 1.383 . S
C5394 C5393 1.379 . S
H5395 C5389 0.959 . S
H5396 C5389 0.961 . S
H5397 C5389 0.960 . S
H5398 C5390 0.930 . S
H5399 C5391 0.929 . S
H5400 C5408 0.929 . S
H5401 C5410 0.930 . S
H5402 C5412 0.930 . S
H5403 C5415 0.929 . S
H5404 C5418 0.930 . S
H5405 C5420 0.960 . S
H5406 C5420 0.960 . S
H5407 C5420 0.960 . S
C5408 H5400 0.929 . S
C5408 C5409 1.377 . S
C5408 C5410 1.384 . S
C5409 C5408 1.377 . S
C5409 C5415 1.390 . S
C5410 H5401 0.930 . S
C5410 C5408 1.384 . S
C5410 C5411 1.372 . S
C5411 C5410 1.372 . S
C5411 C5412 1.400 . S
C5411 C5416 1.490 . S
C5412 H5402 0.930 . S
C5412 C5411 1.400 . S
C5412 C5415 1.386 . S
H5413 C5429 0.930 . S
H5414 C5430 0.931 . S
C5415 H5403 0.929 . S
C5415 C5409 1.390 . S
C5415 C5412 1.386 . S
C5416 C5411 1.490 . S
C5416 C5418 1.395 1_455 S
C5416 C5419 1.403 . S
H5417 C5423 0.930 . S
C5418 H5404 0.930 . S
C5418 C5416 1.395 1_655 S
C5418 C5421 1.403 . S
C5419 C5416 1.403 . S
C5419 C5420 1.524 . S
C5419 C5423 1.400 . S
C5420 H5405 0.960 . S
C5420 H5406 0.960 . S
C5420 H5407 0.960 . S
C5420 C5419 1.524 . S
C5421 C5418 1.403 . S
C5421 C5422 1.392 . S
C5421 C5425 1.495 . S
C5422 C5421 1.392 . S
C5422 C5423 1.385 1_655 S
C5422 C5424 1.478 . S
C5423 H5417 0.930 . S
C5423 C5419 1.400 . S
C5423 C5422 1.385 1_455 S
C5424 C5422 1.478 . S
C5424 C5426 1.381 . S
C5424 C5430 1.383 . S
C5425 C5421 1.495 . S
C5425 H5431 0.959 . S
C5425 H5432 0.961 . S
C5425 H5433 0.960 . S
C5426 C5424 1.381 . S
C5426 C5427 1.394 . S
C5426 H5434 0.930 . S
C5427 C5426 1.394 . S
C5427 C5428 1.383 . S
C5427 H5435 0.929 . S
C5428 C5427 1.383 . S
C5428 C5429 1.377 . S
C5429 H5413 0.930 . S
C5429 C5428 1.377 . S
C5429 C5430 1.379 . S
C5430 H5414 0.931 . S
C5430 C5424 1.383 . S
C5430 C5429 1.379 . S
H5431 C5425 0.959 . S
H5432 C5425 0.961 . S
H5433 C5425 0.960 . S
H5434 C5426 0.930 . S
H5435 C5427 0.929 . S
H5436 C5444 0.929 . S
H5437 C5446 0.930 . S
H5438 C5448 0.930 . S
H5439 C5451 0.929 . S
H5440 C5454 0.930 . S
H5441 C5456 0.960 . S
H5442 C5456 0.960 . S
H5443 C5456 0.960 . S
C5444 H5436 0.929 . S
C5444 C5445 1.377 . S
C5444 C5446 1.384 . S
C5445 C5444 1.377 . S
C5445 C5451 1.390 . S
C5446 H5437 0.930 . S
C5446 C5444 1.384 . S
C5446 C5447 1.372 . S
C5447 C5446 1.372 . S
C5447 C5448 1.400 . S
C5447 C5452 1.490 . S
C5448 H5438 0.930 . S
C5448 C5447 1.400 . S
C5448 C5451 1.386 . S
H5449 C5465 0.930 . S
H5450 C5466 0.931 . S
C5451 H5439 0.929 . S
C5451 C5445 1.390 . S
C5451 C5448 1.386 . S
C5452 C5447 1.490 . S
C5452 C5454 1.395 . S
C5452 C5455 1.403 . S
H5453 C5459 0.930 . S
C5454 H5440 0.930 . S
C5454 C5452 1.395 . S
C5454 C5457 1.403 . S
C5455 C5452 1.403 . S
C5455 C5456 1.524 . S
C5455 C5459 1.400 . S
C5456 H5441 0.960 . S
C5456 H5442 0.960 . S
C5456 H5443 0.960 . S
C5456 C5455 1.524 . S
C5457 C5454 1.403 . S
C5457 C5458 1.392 . S
C5457 C5461 1.495 . S
C5458 C5457 1.392 . S
C5458 C5459 1.385 . S
C5458 C5460 1.478 . S
C5459 H5453 0.930 . S
C5459 C5455 1.400 . S
C5459 C5458 1.385 . S
C5460 C5458 1.478 . S
C5460 C5462 1.381 . S
C5460 C5466 1.383 . S
C5461 C5457 1.495 . S
C5461 H5467 0.959 . S
C5461 H5468 0.961 . S
C5461 H5469 0.960 . S
C5462 C5460 1.381 . S
C5462 C5463 1.394 . S
C5462 H5470 0.930 . S
C5463 C5462 1.394 . S
C5463 C5464 1.383 . S
C5463 H5471 0.929 . S
C5464 C5463 1.383 . S
C5464 C5465 1.377 . S
C5465 H5449 0.930 . S
C5465 C5464 1.377 . S
C5465 C5466 1.379 . S
C5466 H5450 0.931 . S
C5466 C5460 1.383 . S
C5466 C5465 1.379 . S
H5467 C5461 0.959 . S
H5468 C5461 0.961 . S
H5469 C5461 0.960 . S
H5470 C5462 0.930 . S
H5471 C5463 0.929 . S
H5472 C5480 0.929 . S
H5473 C5482 0.930 . S
H5474 C5484 0.930 . S
H5475 C5487 0.929 . S
H5476 C5490 0.930 . S
H5477 C5492 0.960 . S
H5478 C5492 0.960 . S
H5479 C5492 0.960 . S
C5480 H5472 0.929 . S
C5480 C5481 1.377 . S
C5480 C5482 1.384 . S
C5481 C5480 1.377 . S
C5481 C5487 1.390 . S
C5482 H5473 0.930 . S
C5482 C5480 1.384 . S
C5482 C5483 1.372 . S
C5483 C5482 1.372 . S
C5483 C5484 1.400 . S
C5483 C5488 1.490 . S
C5484 H5474 0.930 . S
C5484 C5483 1.400 . S
C5484 C5487 1.386 . S
H5485 C5501 0.930 . S
H5486 C5502 0.931 . S
C5487 H5475 0.929 . S
C5487 C5481 1.390 . S
C5487 C5484 1.386 . S
C5488 C5483 1.490 . S
C5488 C5490 1.395 1_545 S
C5488 C5491 1.403 . S
H5489 C5495 0.928 1_545 S
C5490 H5476 0.930 . S
C5490 C5488 1.395 1_565 S
C5490 C5493 1.403 . S
C5491 C5488 1.403 . S
C5491 C5492 1.524 . S
C5491 C5495 1.387 1_545 S
C5492 H5477 0.960 . S
C5492 H5478 0.960 . S
C5492 H5479 0.960 . S
C5492 C5491 1.524 . S
C5493 C5490 1.403 . S
C5493 C5494 1.392 . S
C5493 C5497 1.495 . S
C5494 C5493 1.392 . S
C5494 C5495 1.401 . S
C5494 C5496 1.478 . S
C5495 H5489 0.928 1_565 S
C5495 C5491 1.387 1_565 S
C5495 C5494 1.401 . S
C5496 C5494 1.478 . S
C5496 C5498 1.381 . S
C5496 C5502 1.383 . S
C5497 C5493 1.495 . S
C5497 H5503 0.959 . S
C5497 H5504 0.961 . S
C5497 H5505 0.960 . S
C5498 C5496 1.381 . S
C5498 C5499 1.394 . S
C5498 H5506 0.930 . S
C5499 C5498 1.394 . S
C5499 C5500 1.383 . S
C5499 H5507 0.929 . S
C5500 C5499 1.383 . S
C5500 C5501 1.377 . S
C5501 H5485 0.930 . S
C5501 C5500 1.377 . S
C5501 C5502 1.379 . S
C5502 H5486 0.931 . S
C5502 C5496 1.383 . S
C5502 C5501 1.379 . S
H5503 C5497 0.959 . S
H5504 C5497 0.961 . S
H5505 C5497 0.960 . S
H5506 C5498 0.930 . S
H5507 C5499 0.929 . S
H5508 C5516 0.929 . S
H5509 C5518 0.930 . S
H5510 C5520 0.930 . S
H5511 C5523 0.929 . S
H5512 C5526 0.930 . S
H5513 C5528 0.960 . S
H5514 C5528 0.960 . S
H5515 C5528 0.960 . S
C5516 H5508 0.929 . S
C5516 C5517 1.377 . S
C5516 C5518 1.384 . S
C5517 C5516 1.377 . S
C5517 C5523 1.390 . S
C5518 H5509 0.930 . S
C5518 C5516 1.384 . S
C5518 C5519 1.372 . S
C5519 C5518 1.372 . S
C5519 C5520 1.400 . S
C5519 C5524 1.490 . S
C5520 H5510 0.930 . S
C5520 C5519 1.400 . S
C5520 C5523 1.386 . S
H5521 C5537 0.930 . S
H5522 C5538 0.931 . S
C5523 H5511 0.929 . S
C5523 C5517 1.390 . S
C5523 C5520 1.386 . S
C5524 C5519 1.490 . S
C5524 C5526 1.395 . S
C5524 C5527 1.403 1_565 S
H5525 C5531 0.930 . S
C5526 H5512 0.930 . S
C5526 C5524 1.395 . S
C5526 C5529 1.403 . S
C5527 C5524 1.403 1_545 S
C5527 C5528 1.524 . S
C5527 C5531 1.400 . S
C5528 H5513 0.960 . S
C5528 H5514 0.960 . S
C5528 H5515 0.960 . S
C5528 C5527 1.524 . S
C5529 C5526 1.403 . S
C5529 C5530 1.392 1_565 S
C5529 C5533 1.495 . S
C5530 C5529 1.392 1_545 S
C5530 C5531 1.385 . S
C5530 C5532 1.478 . S
C5531 H5525 0.930 . S
C5531 C5527 1.400 . S
C5531 C5530 1.385 . S
C5532 C5530 1.478 . S
C5532 C5534 1.381 . S
C5532 C5538 1.383 . S
C5533 C5529 1.495 . S
C5533 H5539 0.959 . S
C5533 H5540 0.961 . S
C5533 H5541 0.960 . S
C5534 C5532 1.381 . S
C5534 C5535 1.394 . S
C5534 H5542 0.930 . S
C5535 C5534 1.394 . S
C5535 C5536 1.383 . S
C5535 H5543 0.929 . S
C5536 C5535 1.383 . S
C5536 C5537 1.377 . S
C5537 H5521 0.930 . S
C5537 C5536 1.377 . S
C5537 C5538 1.379 . S
C5538 H5522 0.931 . S
C5538 C5532 1.383 . S
C5538 C5537 1.379 . S
H5539 C5533 0.959 . S
H5540 C5533 0.961 . S
H5541 C5533 0.960 . S
H5542 C5534 0.930 . S
H5543 C5535 0.929 . S
H5544 C5552 0.929 . S
H5545 C5554 0.930 . S
H5546 C5556 0.930 . S
H5547 C5559 0.929 . S
H5548 C5562 0.930 . S
H5549 C5564 0.960 . S
H5550 C5564 0.960 . S
H5551 C5564 0.960 . S
C5552 H5544 0.929 . S
C5552 C5553 1.377 . S
C5552 C5554 1.384 . S
C5553 C5552 1.377 . S
C5553 C5559 1.390 . S
C5554 H5545 0.930 . S
C5554 C5552 1.384 . S
C5554 C5555 1.372 . S
C5555 C5554 1.372 . S
C5555 C5556 1.400 . S
C5555 C5560 1.490 . S
C5556 H5546 0.930 . S
C5556 C5555 1.400 . S
C5556 C5559 1.386 . S
H5557 C5573 0.930 . S
H5558 C5574 0.931 . S
C5559 H5547 0.929 . S
C5559 C5553 1.390 . S
C5559 C5556 1.386 . S
C5560 C5555 1.490 . S
C5560 C5562 1.395 . S
C5560 C5563 1.403 . S
H5561 C5567 0.930 . S
C5562 H5548 0.930 . S
C5562 C5560 1.395 . S
C5562 C5565 1.403 1_455 S
C5563 C5560 1.403 . S
C5563 C5564 1.524 . S
C5563 C5567 1.400 1_455 S
C5564 H5549 0.960 . S
C5564 H5550 0.960 . S
C5564 H5551 0.960 . S
C5564 C5563 1.524 . S
C5565 C5562 1.403 1_655 S
C5565 C5566 1.392 . S
C5565 C5569 1.495 . S
C5566 C5565 1.392 . S
C5566 C5567 1.385 . S
C5566 C5568 1.478 . S
C5567 H5561 0.930 . S
C5567 C5563 1.400 1_655 S
C5567 C5566 1.385 . S
C5568 C5566 1.478 . S
C5568 C5570 1.381 . S
C5568 C5574 1.383 . S
C5569 C5565 1.495 . S
C5569 H5575 0.959 . S
C5569 H5576 0.961 . S
C5569 H5577 0.960 . S
C5570 C5568 1.381 . S
C5570 C5571 1.394 . S
C5570 H5578 0.930 . S
C5571 C5570 1.394 . S
C5571 C5572 1.383 . S
C5571 H5579 0.929 . S
C5572 C5571 1.383 . S
C5572 C5573 1.377 . S
C5573 H5557 0.930 . S
C5573 C5572 1.377 . S
C5573 C5574 1.379 . S
C5574 H5558 0.931 . S
C5574 C5568 1.383 . S
C5574 C5573 1.379 . S
H5575 C5569 0.959 . S
H5576 C5569 0.961 . S
H5577 C5569 0.960 . S
H5578 C5570 0.930 . S
H5579 C5571 0.929 . S
H5580 C5588 0.929 . S
H5581 C5590 0.930 . S
H5582 C5592 0.930 . S
H5583 C5595 0.929 . S
H5584 C5598 0.930 . S
H5585 C5600 0.960 . S
H5586 C5600 0.960 . S
H5587 C5600 0.960 . S
C5588 H5580 0.929 . S
C5588 C5589 1.377 . S
C5588 C5590 1.384 . S
C5589 C5588 1.377 . S
C5589 C5595 1.390 . S
C5590 H5581 0.930 . S
C5590 C5588 1.384 . S
C5590 C5591 1.372 . S
C5591 C5590 1.372 . S
C5591 C5592 1.400 . S
C5591 C5596 1.490 . S
C5592 H5582 0.930 . S
C5592 C5591 1.400 . S
C5592 C5595 1.386 . S
H5593 C5609 0.930 . S
H5594 C5610 0.931 . S
C5595 H5583 0.929 . S
C5595 C5589 1.390 . S
C5595 C5592 1.386 . S
C5596 C5591 1.490 . S
C5596 C5598 1.395 . S
C5596 C5599 1.403 . S
H5597 C5603 0.930 . S
C5598 H5584 0.930 . S
C5598 C5596 1.395 . S
C5598 C5601 1.403 . S
C5599 C5596 1.403 . S
C5599 C5600 1.524 . S
C5599 C5603 1.400 . S
C5600 H5585 0.960 . S
C5600 H5586 0.960 . S
C5600 H5587 0.960 . S
C5600 C5599 1.524 . S
C5601 C5598 1.403 . S
C5601 C5602 1.392 . S
C5601 C5605 1.495 . S
C5602 C5601 1.392 . S
C5602 C5603 1.385 . S
C5602 C5604 1.478 . S
C5603 H5597 0.930 . S
C5603 C5599 1.400 . S
C5603 C5602 1.385 . S
C5604 C5602 1.478 . S
C5604 C5606 1.381 . S
C5604 C5610 1.383 . S
C5605 C5601 1.495 . S
C5605 H5611 0.959 . S
C5605 H5612 0.961 . S
C5605 H5613 0.960 . S
C5606 C5604 1.381 . S
C5606 C5607 1.394 . S
C5606 H5614 0.930 . S
C5607 C5606 1.394 . S
C5607 C5608 1.383 . S
C5607 H5615 0.929 . S
C5608 C5607 1.383 . S
C5608 C5609 1.377 . S
C5609 H5593 0.930 . S
C5609 C5608 1.377 . S
C5609 C5610 1.379 . S
C5610 H5594 0.931 . S
C5610 C5604 1.383 . S
C5610 C5609 1.379 . S
H5611 C5605 0.959 . S
H5612 C5605 0.961 . S
H5613 C5605 0.960 . S
H5614 C5606 0.930 . S
H5615 C5607 0.929 . S
H5616 C5624 0.929 . S
H5617 C5626 0.930 . S
H5618 C5628 0.930 . S
H5619 C5631 0.929 . S
H5620 C5634 0.930 . S
H5621 C5636 0.960 . S
H5622 C5636 0.960 . S
H5623 C5636 0.960 . S
C5624 H5616 0.929 . S
C5624 C5625 1.377 . S
C5624 C5626 1.384 . S
C5625 C5624 1.377 . S
C5625 C5631 1.390 . S
C5626 H5617 0.930 . S
C5626 C5624 1.384 . S
C5626 C5627 1.372 . S
C5627 C5626 1.372 . S
C5627 C5628 1.400 . S
C5627 C5632 1.490 . S
C5628 H5618 0.930 . S
C5628 C5627 1.400 . S
C5628 C5631 1.386 . S
H5629 C5645 0.930 . S
H5630 C5646 0.931 . S
C5631 H5619 0.929 . S
C5631 C5625 1.390 . S
C5631 C5628 1.386 . S
C5632 C5627 1.490 . S
C5632 C5634 1.395 . S
C5632 C5635 1.403 . S
H5633 C5639 0.930 . S
C5634 H5620 0.930 . S
C5634 C5632 1.395 . S
C5634 C5637 1.403 . S
C5635 C5632 1.403 . S
C5635 C5636 1.524 . S
C5635 C5639 1.400 . S
C5636 H5621 0.960 . S
C5636 H5622 0.960 . S
C5636 H5623 0.960 . S
C5636 C5635 1.524 . S
C5637 C5634 1.403 . S
C5637 C5638 1.392 . S
C5637 C5641 1.495 . S
C5638 C5637 1.392 . S
C5638 C5639 1.385 . S
C5638 C5640 1.478 . S
C5639 H5633 0.930 . S
C5639 C5635 1.400 . S
C5639 C5638 1.385 . S
C5640 C5638 1.478 . S
C5640 C5642 1.381 . S
C5640 C5646 1.383 . S
C5641 C5637 1.495 . S
C5641 H5647 0.959 . S
C5641 H5648 0.961 . S
C5641 H5649 0.960 . S
C5642 C5640 1.381 . S
C5642 C5643 1.394 . S
C5642 H5650 0.930 . S
C5643 C5642 1.394 . S
C5643 C5644 1.383 . S
C5643 H5651 0.929 . S
C5644 C5643 1.383 . S
C5644 C5645 1.377 . S
C5645 H5629 0.930 . S
C5645 C5644 1.377 . S
C5645 C5646 1.379 . S
C5646 H5630 0.931 . S
C5646 C5640 1.383 . S
C5646 C5645 1.379 . S
H5647 C5641 0.959 . S
H5648 C5641 0.961 . S
H5649 C5641 0.960 . S
H5650 C5642 0.930 . S
H5651 C5643 0.929 . S
H5652 C5660 0.929 . S
H5653 C5662 0.930 . S
H5654 C5664 0.930 . S
H5655 C5667 0.929 . S
H5656 C5670 0.930 . S
H5657 C5672 0.960 . S
H5658 C5672 0.960 . S
H5659 C5672 0.960 . S
C5660 H5652 0.929 . S
C5660 C5661 1.377 . S
C5660 C5662 1.384 . S
C5661 C5660 1.377 . S
C5661 C5667 1.390 . S
C5662 H5653 0.930 . S
C5662 C5660 1.384 . S
C5662 C5663 1.372 . S
C5663 C5662 1.372 . S
C5663 C5664 1.400 . S
C5663 C5668 1.490 . S
C5664 H5654 0.930 . S
C5664 C5663 1.400 . S
C5664 C5667 1.386 . S
H5665 C5681 0.930 . S
H5666 C5682 0.931 . S
C5667 H5655 0.929 . S
C5667 C5661 1.390 . S
C5667 C5664 1.386 . S
C5668 C5663 1.490 . S
C5668 C5670 1.395 . S
C5668 C5671 1.403 . S
H5669 C5675 0.930 . S
C5670 H5656 0.930 . S
C5670 C5668 1.395 . S
C5670 C5673 1.403 1_545 S
C5671 C5668 1.403 . S
C5671 C5672 1.524 . S
C5671 C5675 1.400 1_545 S
C5672 H5657 0.960 . S
C5672 H5658 0.960 . S
C5672 H5659 0.960 . S
C5672 C5671 1.524 . S
C5673 C5670 1.403 1_565 S
C5673 C5674 1.392 . S
C5673 C5677 1.495 . S
C5674 C5673 1.392 . S
C5674 C5675 1.385 . S
C5674 C5676 1.478 . S
C5675 H5669 0.930 . S
C5675 C5671 1.400 1_565 S
C5675 C5674 1.385 . S
C5676 C5674 1.478 . S
C5676 C5678 1.381 . S
C5676 C5682 1.383 . S
C5677 C5673 1.495 . S
C5677 H5683 0.959 . S
C5677 H5684 0.961 . S
C5677 H5685 0.960 . S
C5678 C5676 1.381 . S
C5678 C5679 1.394 . S
C5678 H5686 0.930 . S
C5679 C5678 1.394 . S
C5679 C5680 1.383 . S
C5679 H5687 0.929 . S
C5680 C5679 1.383 . S
C5680 C5681 1.377 . S
C5681 H5665 0.930 . S
C5681 C5680 1.377 . S
C5681 C5682 1.379 . S
C5682 H5666 0.931 . S
C5682 C5676 1.383 . S
C5682 C5681 1.379 . S
H5683 C5677 0.959 . S
H5684 C5677 0.961 . S
H5685 C5677 0.960 . S
H5686 C5678 0.930 . S
H5687 C5679 0.929 . S
H5688 C5696 0.929 . S
H5689 C5698 0.930 . S
H5690 C5700 0.930 . S
H5691 C5703 0.929 . S
H5692 C5706 0.930 . S
H5693 C5708 0.960 . S
H5694 C5708 0.960 . S
H5695 C5708 0.954 1_655 S
C5696 H5688 0.929 . S
C5696 C5697 1.377 . S
C5696 C5698 1.384 . S
C5697 C5696 1.377 . S
C5697 C5703 1.390 . S
C5698 H5689 0.930 . S
C5698 C5696 1.384 . S
C5698 C5699 1.372 . S
C5699 C5698 1.372 . S
C5699 C5700 1.400 . S
C5699 C5704 1.490 . S
C5700 H5690 0.930 . S
C5700 C5699 1.400 . S
C5700 C5703 1.386 . S
H5701 C5717 0.930 . S
H5702 C5718 0.931 . S
C5703 H5691 0.929 . S
C5703 C5697 1.390 . S
C5703 C5700 1.386 . S
C5704 C5699 1.490 . S
C5704 C5706 1.395 . S
C5704 C5707 1.403 1_655 S
H5705 C5711 0.930 . S
C5706 H5692 0.930 . S
C5706 C5704 1.395 . S
C5706 C5709 1.403 . S
C5707 C5704 1.403 1_455 S
C5707 C5708 1.524 . S
C5707 C5711 1.400 . S
C5708 H5693 0.960 . S
C5708 H5694 0.960 . S
C5708 H5695 0.954 1_455 S
C5708 C5707 1.524 . S
C5709 C5706 1.403 . S
C5709 C5710 1.392 1_655 S
C5709 C5713 1.495 . S
C5710 C5709 1.392 1_455 S
C5710 C5711 1.385 . S
C5710 C5712 1.478 . S
C5711 H5705 0.930 . S
C5711 C5707 1.400 . S
C5711 C5710 1.385 . S
C5712 C5710 1.478 . S
C5712 C5714 1.381 . S
C5712 C5718 1.383 . S
C5713 C5709 1.495 . S
C5713 H5719 0.959 . S
C5713 H5720 0.961 . S
C5713 H5721 0.960 . S
C5714 C5712 1.381 . S
C5714 C5715 1.394 . S
C5714 H5722 0.930 . S
C5715 C5714 1.394 . S
C5715 C5716 1.383 . S
C5715 H5723 0.929 . S
C5716 C5715 1.383 . S
C5716 C5717 1.377 . S
C5717 H5701 0.930 . S
C5717 C5716 1.377 . S
C5717 C5718 1.379 . S
C5718 H5702 0.931 . S
C5718 C5712 1.383 . S
C5718 C5717 1.379 . S
H5719 C5713 0.959 . S
H5720 C5713 0.961 . S
H5721 C5713 0.960 . S
H5722 C5714 0.930 . S
H5723 C5715 0.929 . S
H5724 C5732 0.929 . S
H5725 C5734 0.930 . S
H5726 C5736 0.930 . S
H5727 C5739 0.929 . S
H5728 C5742 0.930 . S
H5729 C5744 0.960 . S
H5730 C5744 0.960 . S
H5731 C5744 0.960 . S
C5732 H5724 0.929 . S
C5732 C5733 1.377 . S
C5732 C5734 1.384 . S
C5733 C5732 1.377 . S
C5733 C5739 1.390 . S
C5734 H5725 0.930 . S
C5734 C5732 1.384 . S
C5734 C5735 1.372 . S
C5735 C5734 1.372 . S
C5735 C5736 1.400 . S
C5735 C5740 1.490 . S
C5736 H5726 0.930 . S
C5736 C5735 1.400 . S
C5736 C5739 1.386 . S
H5737 C5753 0.930 . S
H5738 C5754 0.931 . S
C5739 H5727 0.929 . S
C5739 C5733 1.390 . S
C5739 C5736 1.386 . S
C5740 C5735 1.490 . S
C5740 C5742 1.395 . S
C5740 C5743 1.403 . S
H5741 C5747 0.930 . S
C5742 H5728 0.930 . S
C5742 C5740 1.395 . S
C5742 C5745 1.403 . S
C5743 C5740 1.403 . S
C5743 C5744 1.524 . S
C5743 C5747 1.400 . S
C5744 H5729 0.960 . S
C5744 H5730 0.960 . S
C5744 H5731 0.960 . S
C5744 C5743 1.524 . S
C5745 C5742 1.403 . S
C5745 C5746 1.392 . S
C5745 C5749 1.495 . S
C5746 C5745 1.392 . S
C5746 C5747 1.385 . S
C5746 C5748 1.478 . S
C5747 H5741 0.930 . S
C5747 C5743 1.400 . S
C5747 C5746 1.385 . S
C5748 C5746 1.478 . S
C5748 C5750 1.381 . S
C5748 C5754 1.383 . S
C5749 C5745 1.495 . S
C5749 H5755 0.959 . S
C5749 H5756 0.961 . S
C5749 H5757 0.960 . S
C5750 C5748 1.381 . S
C5750 C5751 1.394 . S
C5750 H5758 0.930 . S
C5751 C5750 1.394 . S
C5751 C5752 1.383 . S
C5751 H5759 0.929 . S
C5752 C5751 1.383 . S
C5752 C5753 1.377 . S
C5753 H5737 0.930 . S
C5753 C5752 1.377 . S
C5753 C5754 1.379 . S
C5754 H5738 0.931 . S
C5754 C5748 1.383 . S
C5754 C5753 1.379 . S
H5755 C5749 0.959 . S
H5756 C5749 0.961 . S
H5757 C5749 0.960 . S
H5758 C5750 0.930 . S
H5759 C5751 0.929 . S
H5760 C5768 0.929 . S
H5761 C5770 0.930 . S
H5762 C5772 0.930 . S
H5763 C5775 0.929 . S
H5764 C5778 0.930 . S
H5765 C5780 0.960 . S
H5766 C5780 0.960 . S
H5767 C5780 0.960 . S
C5768 H5760 0.929 . S
C5768 C5769 1.377 . S
C5768 C5770 1.384 . S
C5769 C5768 1.377 . S
C5769 C5775 1.390 . S
C5770 H5761 0.930 . S
C5770 C5768 1.384 . S
C5770 C5771 1.372 . S
C5771 C5770 1.372 . S
C5771 C5772 1.400 . S
C5771 C5776 1.490 . S
C5772 H5762 0.930 . S
C5772 C5771 1.400 . S
C5772 C5775 1.386 . S
H5773 C5789 0.930 . S
H5774 C5790 0.931 . S
C5775 H5763 0.929 . S
C5775 C5769 1.390 . S
C5775 C5772 1.386 . S
C5776 C5771 1.490 . S
C5776 C5778 1.395 1_565 S
C5776 C5779 1.403 . S
H5777 C5783 0.930 . S
C5778 H5764 0.930 . S
C5778 C5776 1.395 1_545 S
C5778 C5781 1.403 . S
C5779 C5776 1.403 . S
C5779 C5780 1.524 . S
C5779 C5783 1.400 . S
C5780 H5765 0.960 . S
C5780 H5766 0.960 . S
C5780 H5767 0.960 . S
C5780 C5779 1.524 . S
C5781 C5778 1.403 . S
C5781 C5782 1.392 . S
C5781 C5785 1.495 . S
C5782 C5781 1.392 . S
C5782 C5783 1.385 1_545 S
C5782 C5784 1.478 . S
C5783 H5777 0.930 . S
C5783 C5779 1.400 . S
C5783 C5782 1.385 1_565 S
C5784 C5782 1.478 . S
C5784 C5786 1.381 . S
C5784 C5790 1.383 . S
C5785 C5781 1.495 . S
C5785 H5791 0.959 . S
C5785 H5792 0.961 . S
C5785 H5793 0.960 . S
C5786 C5784 1.381 . S
C5786 C5787 1.394 . S
C5786 H5794 0.930 . S
C5787 C5786 1.394 . S
C5787 C5788 1.383 . S
C5787 H5795 0.929 . S
C5788 C5787 1.383 . S
C5788 C5789 1.377 . S
C5789 H5773 0.930 . S
C5789 C5788 1.377 . S
C5789 C5790 1.379 . S
C5790 H5774 0.931 . S
C5790 C5784 1.383 . S
C5790 C5789 1.379 . S
H5791 C5785 0.959 . S
H5792 C5785 0.961 . S
H5793 C5785 0.960 . S
H5794 C5786 0.930 . S
H5795 C5787 0.929 . S
H5796 C5804 0.929 . S
H5797 C5806 0.930 . S
H5798 C5808 0.930 . S
H5799 C5811 0.929 . S
H5800 C5814 0.930 . S
H5801 C5816 0.960 . S
H5802 C5816 0.960 . S
H5803 C5816 0.960 . S
C5804 H5796 0.929 . S
C5804 C5805 1.377 . S
C5804 C5806 1.384 . S
C5805 C5804 1.377 . S
C5805 C5811 1.390 . S
C5806 H5797 0.930 . S
C5806 C5804 1.384 . S
C5806 C5807 1.372 . S
C5807 C5806 1.372 . S
C5807 C5808 1.400 . S
C5807 C5812 1.490 . S
C5808 H5798 0.930 . S
C5808 C5807 1.400 . S
C5808 C5811 1.386 . S
H5809 C5825 0.930 . S
H5810 C5826 0.931 . S
C5811 H5799 0.929 . S
C5811 C5805 1.390 . S
C5811 C5808 1.386 . S
C5812 C5807 1.490 . S
C5812 C5814 1.395 . S
C5812 C5815 1.403 . S
H5813 C5819 0.930 . S
C5814 H5800 0.930 . S
C5814 C5812 1.395 . S
C5814 C5817 1.403 1_655 S
C5815 C5812 1.403 . S
C5815 C5816 1.524 . S
C5815 C5819 1.400 1_655 S
C5816 H5801 0.960 . S
C5816 H5802 0.960 . S
C5816 H5803 0.960 . S
C5816 C5815 1.524 . S
C5817 C5814 1.403 1_455 S
C5817 C5818 1.392 . S
C5817 C5821 1.495 . S
C5818 C5817 1.392 . S
C5818 C5819 1.385 . S
C5818 C5820 1.478 . S
C5819 H5813 0.930 . S
C5819 C5815 1.400 1_455 S
C5819 C5818 1.385 . S
C5820 C5818 1.478 . S
C5820 C5822 1.381 . S
C5820 C5826 1.383 . S
C5821 C5817 1.495 . S
C5821 H5827 0.959 . S
C5821 H5828 0.961 . S
C5821 H5829 0.960 . S
C5822 C5820 1.381 . S
C5822 C5823 1.394 . S
C5822 H5830 0.930 . S
C5823 C5822 1.394 . S
C5823 C5824 1.383 . S
C5823 H5831 0.929 . S
C5824 C5823 1.383 . S
C5824 C5825 1.377 . S
C5825 H5809 0.930 . S
C5825 C5824 1.377 . S
C5825 C5826 1.379 . S
C5826 H5810 0.931 . S
C5826 C5820 1.383 . S
C5826 C5825 1.379 . S
H5827 C5821 0.959 . S
H5828 C5821 0.961 . S
H5829 C5821 0.960 . S
H5830 C5822 0.930 . S
H5831 C5823 0.929 . S
H5832 C5840 0.929 . S
H5833 C5842 0.930 . S
H5834 C5844 0.930 . S
H5835 C5847 0.929 . S
H5836 C5850 0.930 . S
H5837 C5852 0.960 . S
H5838 C5852 0.960 . S
H5839 C5852 0.960 . S
C5840 H5832 0.929 . S
C5840 C5841 1.377 . S
C5840 C5842 1.384 . S
C5841 C5840 1.377 . S
C5841 C5847 1.390 . S
C5842 H5833 0.930 . S
C5842 C5840 1.384 . S
C5842 C5843 1.372 . S
C5843 C5842 1.372 . S
C5843 C5844 1.400 . S
C5843 C5848 1.490 . S
C5844 H5834 0.930 . S
C5844 C5843 1.400 . S
C5844 C5847 1.386 . S
H5845 C5861 0.930 . S
H5846 C5862 0.931 . S
C5847 H5835 0.929 . S
C5847 C5841 1.390 . S
C5847 C5844 1.386 . S
C5848 C5843 1.490 . S
C5848 C5850 1.395 . S
C5848 C5851 1.403 . S
H5849 C5855 0.930 . S
C5850 H5836 0.930 . S
C5850 C5848 1.395 . S
C5850 C5853 1.403 . S
C5851 C5848 1.403 . S
C5851 C5852 1.524 . S
C5851 C5855 1.400 . S
C5852 H5837 0.960 . S
C5852 H5838 0.960 . S
C5852 H5839 0.960 . S
C5852 C5851 1.524 . S
C5853 C5850 1.403 . S
C5853 C5854 1.392 . S
C5853 C5857 1.495 . S
C5854 C5853 1.392 . S
C5854 C5855 1.385 . S
C5854 C5856 1.478 . S
C5855 H5849 0.930 . S
C5855 C5851 1.400 . S
C5855 C5854 1.385 . S
C5856 C5854 1.478 . S
C5856 C5858 1.381 . S
C5856 C5862 1.383 . S
C5857 C5853 1.495 . S
C5857 H5863 0.959 . S
C5857 H5864 0.961 . S
C5857 H5865 0.960 . S
C5858 C5856 1.381 . S
C5858 C5859 1.394 . S
C5858 H5866 0.930 . S
C5859 C5858 1.394 . S
C5859 C5860 1.383 . S
C5859 H5867 0.929 . S
C5860 C5859 1.383 . S
C5860 C5861 1.377 . S
C5861 H5845 0.930 . S
C5861 C5860 1.377 . S
C5861 C5862 1.379 . S
C5862 H5846 0.931 . S
C5862 C5856 1.383 . S
C5862 C5861 1.379 . S
H5863 C5857 0.959 . S
H5864 C5857 0.961 . S
H5865 C5857 0.960 . S
H5866 C5858 0.930 . S
H5867 C5859 0.929 . S
H5868 C5876 0.929 . S
H5869 C5878 0.930 . S
H5870 C5880 0.930 . S
H5871 C5883 0.929 . S
H5872 C5886 0.930 . S
H5873 C5888 0.960 . S
H5874 C5888 0.960 . S
H5875 C5888 0.960 . S
C5876 H5868 0.929 . S
C5876 C5877 1.377 . S
C5876 C5878 1.384 . S
C5877 C5876 1.377 . S
C5877 C5883 1.390 . S
C5878 H5869 0.930 . S
C5878 C5876 1.384 . S
C5878 C5879 1.372 . S
C5879 C5878 1.372 . S
C5879 C5880 1.400 . S
C5879 C5884 1.490 . S
C5880 H5870 0.930 . S
C5880 C5879 1.400 . S
C5880 C5883 1.386 . S
H5881 C5897 0.930 . S
H5882 C5898 0.931 . S
C5883 H5871 0.929 . S
C5883 C5877 1.390 . S
C5883 C5880 1.386 . S
C5884 C5879 1.490 . S
C5884 C5886 1.395 . S
C5884 C5887 1.403 . S
H5885 C5891 0.930 . S
C5886 H5872 0.930 . S
C5886 C5884 1.395 . S
C5886 C5889 1.403 . S
C5887 C5884 1.403 . S
C5887 C5888 1.524 . S
C5887 C5891 1.400 . S
C5888 H5873 0.960 . S
C5888 H5874 0.960 . S
C5888 H5875 0.960 . S
C5888 C5887 1.524 . S
C5889 C5886 1.403 . S
C5889 C5890 1.392 . S
C5889 C5893 1.495 . S
C5890 C5889 1.392 . S
C5890 C5891 1.385 . S
C5890 C5892 1.478 . S
C5891 H5885 0.930 . S
C5891 C5887 1.400 . S
C5891 C5890 1.385 . S
C5892 C5890 1.478 . S
C5892 C5894 1.381 . S
C5892 C5898 1.383 . S
C5893 C5889 1.495 . S
C5893 H5899 0.959 . S
C5893 H5900 0.961 . S
C5893 H5901 0.960 . S
C5894 C5892 1.381 . S
C5894 C5895 1.394 . S
C5894 H5902 0.930 . S
C5895 C5894 1.394 . S
C5895 C5896 1.383 . S
C5895 H5903 0.929 . S
C5896 C5895 1.383 . S
C5896 C5897 1.377 . S
C5897 H5881 0.930 . S
C5897 C5896 1.377 . S
C5897 C5898 1.379 . S
C5898 H5882 0.931 . S
C5898 C5892 1.383 . S
C5898 C5897 1.379 . S
H5899 C5893 0.959 . S
H5900 C5893 0.961 . S
H5901 C5893 0.960 . S
H5902 C5894 0.930 . S
H5903 C5895 0.929 . S
H5904 C5912 0.929 . S
H5905 C5914 0.930 . S
H5906 C5916 0.930 . S
H5907 C5919 0.929 . S
H5908 C5922 0.930 . S
H5909 C5924 0.960 . S
H5910 C5924 0.960 . S
H5911 C5924 0.960 . S
C5912 H5904 0.929 . S
C5912 C5913 1.377 . S
C5912 C5914 1.384 . S
C5913 C5912 1.377 . S
C5913 C5919 1.390 . S
C5914 H5905 0.930 . S
C5914 C5912 1.384 . S
C5914 C5915 1.372 . S
C5915 C5914 1.372 . S
C5915 C5916 1.400 . S
C5915 C5920 1.490 . S
C5916 H5906 0.930 . S
C5916 C5915 1.400 . S
C5916 C5919 1.386 . S
H5917 C5933 0.930 . S
H5918 C5934 0.931 . S
C5919 H5907 0.929 . S
C5919 C5913 1.390 . S
C5919 C5916 1.386 . S
C5920 C5915 1.490 . S
C5920 C5922 1.395 . S
C5920 C5923 1.403 . S
H5921 C5927 0.930 . S
C5922 H5908 0.930 . S
C5922 C5920 1.395 . S
C5922 C5925 1.403 . S
C5923 C5920 1.403 . S
C5923 C5924 1.524 . S
C5923 C5927 1.400 . S
C5924 H5909 0.960 . S
C5924 H5910 0.960 . S
C5924 H5911 0.960 . S
C5924 C5923 1.524 . S
C5925 C5922 1.403 . S
C5925 C5926 1.392 . S
C5925 C5929 1.495 . S
C5926 C5925 1.392 . S
C5926 C5927 1.385 . S
C5926 C5928 1.478 . S
C5927 H5921 0.930 . S
C5927 C5923 1.400 . S
C5927 C5926 1.385 . S
C5928 C5926 1.478 . S
C5928 C5930 1.381 . S
C5928 C5934 1.383 . S
C5929 C5925 1.495 . S
C5929 H5935 0.959 . S
C5929 H5936 0.961 . S
C5929 H5937 0.960 . S
C5930 C5928 1.381 . S
C5930 C5931 1.394 . S
C5930 H5938 0.930 . S
C5931 C5930 1.394 . S
C5931 C5932 1.383 . S
C5931 H5939 0.929 . S
C5932 C5931 1.383 . S
C5932 C5933 1.377 . S
C5933 H5917 0.930 . S
C5933 C5932 1.377 . S
C5933 C5934 1.379 . S
C5934 H5918 0.931 . S
C5934 C5928 1.383 . S
C5934 C5933 1.379 . S
H5935 C5929 0.959 . S
H5936 C5929 0.961 . S
H5937 C5929 0.960 . S
H5938 C5930 0.930 . S
H5939 C5931 0.929 . S
H5940 C5948 0.929 . S
H5941 C5950 0.930 . S
H5942 C5952 0.930 . S
H5943 C5955 0.929 . S
H5944 C5958 0.930 . S
H5945 C5960 0.960 . S
H5946 C5960 0.960 . S
H5947 C5960 0.960 . S
C5948 H5940 0.929 . S
C5948 C5949 1.377 . S
C5948 C5950 1.384 . S
C5949 C5948 1.377 . S
C5949 C5955 1.390 . S
C5950 H5941 0.930 . S
C5950 C5948 1.384 . S
C5950 C5951 1.372 . S
C5951 C5950 1.372 . S
C5951 C5952 1.400 . S
C5951 C5956 1.490 . S
C5952 H5942 0.930 . S
C5952 C5951 1.400 . S
C5952 C5955 1.386 . S
H5953 C5969 0.930 . S
H5954 C5970 0.931 . S
C5955 H5943 0.929 . S
C5955 C5949 1.390 . S
C5955 C5952 1.386 . S
C5956 C5951 1.490 . S
C5956 C5958 1.395 . S
C5956 C5959 1.403 . S
H5957 C5963 0.930 . S
C5958 H5944 0.930 . S
C5958 C5956 1.395 . S
C5958 C5961 1.403 . S
C5959 C5956 1.403 . S
C5959 C5960 1.524 . S
C5959 C5963 1.400 . S
C5960 H5945 0.960 . S
C5960 H5946 0.960 . S
C5960 H5947 0.960 . S
C5960 C5959 1.524 . S
C5961 C5958 1.403 . S
C5961 C5962 1.392 . S
C5961 C5965 1.495 . S
C5962 C5961 1.392 . S
C5962 C5963 1.385 . S
C5962 C5964 1.478 . S
C5963 H5957 0.930 . S
C5963 C5959 1.400 . S
C5963 C5962 1.385 . S
C5964 C5962 1.478 . S
C5964 C5966 1.381 . S
C5964 C5970 1.383 . S
C5965 C5961 1.495 . S
C5965 H5971 0.959 . S
C5965 H5972 0.961 . S
C5965 H5973 0.960 . S
C5966 C5964 1.381 . S
C5966 C5967 1.394 . S
C5966 H5974 0.930 . S
C5967 C5966 1.394 . S
C5967 C5968 1.383 . S
C5967 H5975 0.929 1_554 S
C5968 C5967 1.383 . S
C5968 C5969 1.377 . S
C5969 H5953 0.930 . S
C5969 C5968 1.377 . S
C5969 C5970 1.379 . S
C5970 H5954 0.931 . S
C5970 C5964 1.383 . S
C5970 C5969 1.379 . S
H5971 C5965 0.959 . S
H5972 C5965 0.961 . S
H5973 C5965 0.960 . S
H5974 C5966 0.930 . S
H5975 C5967 0.929 1_556 S
H5976 C5984 0.929 . S
H5977 C5986 0.930 . S
H5978 C5988 0.930 . S
H5979 C5991 0.929 . S
H5980 C5994 0.930 . S
H5981 C5996 0.960 . S
H5982 C5996 0.960 . S
H5983 C5996 0.960 . S
C5984 H5976 0.929 . S
C5984 C5985 1.377 . S
C5984 C5986 1.384 . S
C5985 C5984 1.377 . S
C5985 C5991 1.390 . S
C5986 H5977 0.930 . S
C5986 C5984 1.384 . S
C5986 C5987 1.372 . S
C5987 C5986 1.372 . S
C5987 C5988 1.400 . S
C5987 C5992 1.490 . S
C5988 H5978 0.930 . S
C5988 C5987 1.400 . S
C5988 C5991 1.386 . S
H5989 C6005 0.930 . S
H5990 C6006 0.931 . S
C5991 H5979 0.929 . S
C5991 C5985 1.390 . S
C5991 C5988 1.386 . S
C5992 C5987 1.490 . S
C5992 C5994 1.395 . S
C5992 C5995 1.403 . S
H5993 C5999 0.930 . S
C5994 H5980 0.930 . S
C5994 C5992 1.395 . S
C5994 C5997 1.403 . S
C5995 C5992 1.403 . S
C5995 C5996 1.524 . S
C5995 C5999 1.400 . S
C5996 H5981 0.960 . S
C5996 H5982 0.960 . S
C5996 H5983 0.960 . S
C5996 C5995 1.524 . S
C5997 C5994 1.403 . S
C5997 C5998 1.392 . S
C5997 C6001 1.495 . S
C5998 C5997 1.392 . S
C5998 C5999 1.385 . S
C5998 C6000 1.478 . S
C5999 H5993 0.930 . S
C5999 C5995 1.400 . S
C5999 C5998 1.385 . S
C6000 C5998 1.478 . S
C6000 C6002 1.381 . S
C6000 C6006 1.383 . S
C6001 C5997 1.495 . S
C6001 H6007 0.959 . S
C6001 H6008 0.961 . S
C6001 H6009 0.960 . S
C6002 C6000 1.381 . S
C6002 C6003 1.394 . S
C6002 H6010 0.930 . S
C6003 C6002 1.394 . S
C6003 C6004 1.383 . S
C6003 H6011 0.929 1_554 S
C6004 C6003 1.383 . S
C6004 C6005 1.377 . S
C6005 H5989 0.930 . S
C6005 C6004 1.377 . S
C6005 C6006 1.379 . S
C6006 H5990 0.931 . S
C6006 C6000 1.383 . S
C6006 C6005 1.379 . S
H6007 C6001 0.959 . S
H6008 C6001 0.961 . S
H6009 C6001 0.960 . S
H6010 C6002 0.930 . S
H6011 C6003 0.929 1_556 S
H6012 C6020 0.929 . S
H6013 C6022 0.930 . S
H6014 C6024 0.930 . S
H6015 C6027 0.929 . S
H6016 C6030 0.930 . S
H6017 C6032 0.960 . S
H6018 C6032 0.960 . S
H6019 C6032 0.960 . S
C6020 H6012 0.929 . S
C6020 C6021 1.377 . S
C6020 C6022 1.384 . S
C6021 C6020 1.377 . S
C6021 C6027 1.390 . S
C6022 H6013 0.930 . S
C6022 C6020 1.384 . S
C6022 C6023 1.372 . S
C6023 C6022 1.372 . S
C6023 C6024 1.400 . S
C6023 C6028 1.490 . S
C6024 H6014 0.930 . S
C6024 C6023 1.400 . S
C6024 C6027 1.386 . S
H6025 C6041 0.930 . S
H6026 C6042 0.931 . S
C6027 H6015 0.929 . S
C6027 C6021 1.390 . S
C6027 C6024 1.386 . S
C6028 C6023 1.490 . S
C6028 C6030 1.395 . S
C6028 C6031 1.403 . S
H6029 C6035 0.930 . S
C6030 H6016 0.930 . S
C6030 C6028 1.395 . S
C6030 C6033 1.403 . S
C6031 C6028 1.403 . S
C6031 C6032 1.524 . S
C6031 C6035 1.400 . S
C6032 H6017 0.960 . S
C6032 H6018 0.960 . S
C6032 H6019 0.960 . S
C6032 C6031 1.524 . S
C6033 C6030 1.403 . S
C6033 C6034 1.392 . S
C6033 C6037 1.495 . S
C6034 C6033 1.392 . S
C6034 C6035 1.385 . S
C6034 C6036 1.478 . S
C6035 H6029 0.930 . S
C6035 C6031 1.400 . S
C6035 C6034 1.385 . S
C6036 C6034 1.478 . S
C6036 C6038 1.381 . S
C6036 C6042 1.383 . S
C6037 C6033 1.495 . S
C6037 H6043 0.959 . S
C6037 H6044 0.961 . S
C6037 H6045 0.960 . S
C6038 C6036 1.381 . S
C6038 C6039 1.394 1_554 S
C6038 H6046 0.930 . S
C6039 C6038 1.394 1_556 S
C6039 C6040 1.377 1_556 S
C6039 H6047 0.929 . S
C6040 C6039 1.377 1_554 S
C6040 C6041 1.407 . S
C6041 H6025 0.930 . S
C6041 C6040 1.407 . S
C6041 C6042 1.379 . S
C6042 H6026 0.931 . S
C6042 C6036 1.383 . S
C6042 C6041 1.379 . S
H6043 C6037 0.959 . S
H6044 C6037 0.961 . S
H6045 C6037 0.960 . S
H6046 C6038 0.930 . S
H6047 C6039 0.929 . S
H6048 C6056 0.929 . S
H6049 C6058 0.930 . S
H6050 C6060 0.930 . S
H6051 C6063 0.929 . S
H6052 C6066 0.930 . S
H6053 C6068 0.960 . S
H6054 C6068 0.960 . S
H6055 C6068 0.960 . S
C6056 H6048 0.929 . S
C6056 C6057 1.377 . S
C6056 C6058 1.384 . S
C6057 C6056 1.377 . S
C6057 C6063 1.390 . S
C6058 H6049 0.930 . S
C6058 C6056 1.384 . S
C6058 C6059 1.372 . S
C6059 C6058 1.372 . S
C6059 C6060 1.400 . S
C6059 C6064 1.490 . S
C6060 H6050 0.930 . S
C6060 C6059 1.400 . S
C6060 C6063 1.386 . S
H6061 C6077 0.930 . S
H6062 C6078 0.931 . S
C6063 H6051 0.929 . S
C6063 C6057 1.390 . S
C6063 C6060 1.386 . S
C6064 C6059 1.490 . S
C6064 C6066 1.395 . S
C6064 C6067 1.403 . S
H6065 C6071 0.930 . S
C6066 H6052 0.930 . S
C6066 C6064 1.395 . S
C6066 C6069 1.403 . S
C6067 C6064 1.403 . S
C6067 C6068 1.524 . S
C6067 C6071 1.400 . S
C6068 H6053 0.960 . S
C6068 H6054 0.960 . S
C6068 H6055 0.960 . S
C6068 C6067 1.524 . S
C6069 C6066 1.403 . S
C6069 C6070 1.392 . S
C6069 C6073 1.495 . S
C6070 C6069 1.392 . S
C6070 C6071 1.385 . S
C6070 C6072 1.478 . S
C6071 H6065 0.930 . S
C6071 C6067 1.400 . S
C6071 C6070 1.385 . S
C6072 C6070 1.478 . S
C6072 C6074 1.381 . S
C6072 C6078 1.383 . S
C6073 C6069 1.495 . S
C6073 H6079 0.959 . S
C6073 H6080 0.961 . S
C6073 H6081 0.960 . S
C6074 C6072 1.381 . S
C6074 C6075 1.394 . S
C6074 H6082 0.930 . S
C6075 C6074 1.394 . S
C6075 C6076 1.383 . S
C6075 H6083 0.929 . S
C6076 C6075 1.383 . S
C6076 C6077 1.377 . S
C6077 H6061 0.930 . S
C6077 C6076 1.377 . S
C6077 C6078 1.379 . S
C6078 H6062 0.931 . S
C6078 C6072 1.383 . S
C6078 C6077 1.379 . S
H6079 C6073 0.959 . S
H6080 C6073 0.961 . S
H6081 C6073 0.960 . S
H6082 C6074 0.930 . S
H6083 C6075 0.929 . S
H6084 C6092 0.929 . S
H6085 C6094 0.930 . S
H6086 C6096 0.930 . S
H6087 C6099 0.929 . S
H6088 C6102 0.930 . S
H6089 C6104 0.960 . S
H6090 C6104 0.960 . S
H6091 C6104 0.960 . S
C6092 H6084 0.929 . S
C6092 C6093 1.377 . S
C6092 C6094 1.384 . S
C6093 C6092 1.377 . S
C6093 C6099 1.390 1_556 S
C6094 H6085 0.930 . S
C6094 C6092 1.384 . S
C6094 C6095 1.372 . S
C6095 C6094 1.372 . S
C6095 C6096 1.400 . S
C6095 C6100 1.490 . S
C6096 H6086 0.930 . S
C6096 C6095 1.400 . S
C6096 C6099 1.386 1_556 S
H6097 C6113 0.930 . S
H6098 C6114 0.931 . S
C6099 H6087 0.929 . S
C6099 C6093 1.390 1_554 S
C6099 C6096 1.386 1_554 S
C6100 C6095 1.490 . S
C6100 C6102 1.395 . S
C6100 C6103 1.403 . S
H6101 C6107 0.930 . S
C6102 H6088 0.930 . S
C6102 C6100 1.395 . S
C6102 C6105 1.403 . S
C6103 C6100 1.403 . S
C6103 C6104 1.524 . S
C6103 C6107 1.400 . S
C6104 H6089 0.960 . S
C6104 H6090 0.960 . S
C6104 H6091 0.960 . S
C6104 C6103 1.524 . S
C6105 C6102 1.403 . S
C6105 C6106 1.392 . S
C6105 C6109 1.495 . S
C6106 C6105 1.392 . S
C6106 C6107 1.385 . S
C6106 C6108 1.478 . S
C6107 H6101 0.930 . S
C6107 C6103 1.400 . S
C6107 C6106 1.385 . S
C6108 C6106 1.478 . S
C6108 C6110 1.381 . S
C6108 C6114 1.383 . S
C6109 C6105 1.495 . S
C6109 H6115 0.959 . S
C6109 H6116 0.961 . S
C6109 H6117 0.960 . S
C6110 C6108 1.381 . S
C6110 C6111 1.394 . S
C6110 H6118 0.930 . S
C6111 C6110 1.394 . S
C6111 C6112 1.383 . S
C6111 H6119 0.929 . S
C6112 C6111 1.383 . S
C6112 C6113 1.377 . S
C6113 H6097 0.930 . S
C6113 C6112 1.377 . S
C6113 C6114 1.379 . S
C6114 H6098 0.931 . S
C6114 C6108 1.383 . S
C6114 C6113 1.379 . S
H6115 C6109 0.959 . S
H6116 C6109 0.961 . S
H6117 C6109 0.960 . S
H6118 C6110 0.930 . S
H6119 C6111 0.929 . S
H6120 C6128 0.929 . S
H6121 C6130 0.930 . S
H6122 C6132 0.930 . S
H6123 C6135 0.929 1_554 S
H6124 C6138 0.930 . S
H6125 C6140 0.960 . S
H6126 C6140 0.960 . S
H6127 C6140 0.960 . S
C6128 H6120 0.929 . S
C6128 C6129 1.377 . S
C6128 C6130 1.384 . S
C6129 C6128 1.377 . S
C6129 C6135 1.390 . S
C6130 H6121 0.930 . S
C6130 C6128 1.384 . S
C6130 C6131 1.372 . S
C6131 C6130 1.372 . S
C6131 C6132 1.400 . S
C6131 C6136 1.490 . S
C6132 H6122 0.930 . S
C6132 C6131 1.400 . S
C6132 C6135 1.386 . S
H6133 C6149 0.930 . S
H6134 C6150 0.931 . S
C6135 H6123 0.929 1_556 S
C6135 C6129 1.390 . S
C6135 C6132 1.386 . S
C6136 C6131 1.490 . S
C6136 C6138 1.395 . S
C6136 C6139 1.403 . S
H6137 C6143 0.930 . S
C6138 H6124 0.930 . S
C6138 C6136 1.395 . S
C6138 C6141 1.403 . S
C6139 C6136 1.403 . S
C6139 C6140 1.524 . S
C6139 C6143 1.400 . S
C6140 H6125 0.960 . S
C6140 H6126 0.960 . S
C6140 H6127 0.960 . S
C6140 C6139 1.524 . S
C6141 C6138 1.403 . S
C6141 C6142 1.392 . S
C6141 C6145 1.495 . S
C6142 C6141 1.392 . S
C6142 C6143 1.385 . S
C6142 C6144 1.478 . S
C6143 H6137 0.930 . S
C6143 C6139 1.400 . S
C6143 C6142 1.385 . S
C6144 C6142 1.478 . S
C6144 C6146 1.381 . S
C6144 C6150 1.383 . S
C6145 C6141 1.495 . S
C6145 H6151 0.959 . S
C6145 H6152 0.961 . S
C6145 H6153 0.960 . S
C6146 C6144 1.381 . S
C6146 C6147 1.394 . S
C6146 H6154 0.930 . S
C6147 C6146 1.394 . S
C6147 C6148 1.383 . S
C6147 H6155 0.929 . S
C6148 C6147 1.383 . S
C6148 C6149 1.377 . S
C6149 H6133 0.930 . S
C6149 C6148 1.377 . S
C6149 C6150 1.379 . S
C6150 H6134 0.931 . S
C6150 C6144 1.383 . S
C6150 C6149 1.379 . S
H6151 C6145 0.959 . S
H6152 C6145 0.961 . S
H6153 C6145 0.960 . S
H6154 C6146 0.930 . S
H6155 C6147 0.929 . S
H6156 C6164 0.929 . S
H6157 C6166 0.930 . S
H6158 C6168 0.930 . S
H6159 C6171 0.929 . S
H6160 C6174 0.930 . S
H6161 C6176 0.960 . S
H6162 C6176 0.960 . S
H6163 C6176 0.960 . S
C6164 H6156 0.929 . S
C6164 C6165 1.377 . S
C6164 C6166 1.384 . S
C6165 C6164 1.377 . S
C6165 C6171 1.390 . S
C6166 H6157 0.930 . S
C6166 C6164 1.384 . S
C6166 C6167 1.372 . S
C6167 C6166 1.372 . S
C6167 C6168 1.400 . S
C6167 C6172 1.490 . S
C6168 H6158 0.930 . S
C6168 C6167 1.400 . S
C6168 C6171 1.386 . S
H6169 C6185 0.930 . S
H6170 C6186 0.931 . S
C6171 H6159 0.929 . S
C6171 C6165 1.390 . S
C6171 C6168 1.386 . S
C6172 C6167 1.490 . S
C6172 C6174 1.395 . S
C6172 C6175 1.403 . S
H6173 C6179 0.930 . S
C6174 H6160 0.930 . S
C6174 C6172 1.395 . S
C6174 C6177 1.403 . S
C6175 C6172 1.403 . S
C6175 C6176 1.524 . S
C6175 C6179 1.400 . S
C6176 H6161 0.960 . S
C6176 H6162 0.960 . S
C6176 H6163 0.960 . S
C6176 C6175 1.524 . S
C6177 C6174 1.403 . S
C6177 C6178 1.392 . S
C6177 C6181 1.495 . S
C6178 C6177 1.392 . S
C6178 C6179 1.385 . S
C6178 C6180 1.478 . S
C6179 H6173 0.930 . S
C6179 C6175 1.400 . S
C6179 C6178 1.385 . S
C6180 C6178 1.478 . S
C6180 C6182 1.381 . S
C6180 C6186 1.383 . S
C6181 C6177 1.495 . S
C6181 H6187 0.959 . S
C6181 H6188 0.961 . S
C6181 H6189 0.960 . S
C6182 C6180 1.381 . S
C6182 C6183 1.394 . S
C6182 H6190 0.930 . S
C6183 C6182 1.394 . S
C6183 C6184 1.383 . S
C6183 H6191 0.929 . S
C6184 C6183 1.383 . S
C6184 C6185 1.377 . S
C6185 H6169 0.930 . S
C6185 C6184 1.377 . S
C6185 C6186 1.379 . S
C6186 H6170 0.931 . S
C6186 C6180 1.383 . S
C6186 C6185 1.379 . S
H6187 C6181 0.959 . S
H6188 C6181 0.961 . S
H6189 C6181 0.960 . S
H6190 C6182 0.930 . S
H6191 C6183 0.929 . S
H6192 C6200 0.929 . S
H6193 C6202 0.930 . S
H6194 C6204 0.930 . S
H6195 C6207 0.929 . S
H6196 C6210 0.930 . S
H6197 C6212 0.960 . S
H6198 C6212 0.960 . S
H6199 C6212 0.960 . S
C6200 H6192 0.929 . S
C6200 C6201 1.377 . S
C6200 C6202 1.384 . S
C6201 C6200 1.377 . S
C6201 C6207 1.390 . S
C6202 H6193 0.930 . S
C6202 C6200 1.384 . S
C6202 C6203 1.372 . S
C6203 C6202 1.372 . S
C6203 C6204 1.400 . S
C6203 C6208 1.490 . S
C6204 H6194 0.930 . S
C6204 C6203 1.400 . S
C6204 C6207 1.386 . S
H6205 C6221 0.930 . S
H6206 C6222 0.931 . S
C6207 H6195 0.929 . S
C6207 C6201 1.390 . S
C6207 C6204 1.386 . S
C6208 C6203 1.490 . S
C6208 C6210 1.395 . S
C6208 C6211 1.403 . S
H6209 C6215 0.930 . S
C6210 H6196 0.930 . S
C6210 C6208 1.395 . S
C6210 C6213 1.403 . S
C6211 C6208 1.403 . S
C6211 C6212 1.524 . S
C6211 C6215 1.400 . S
C6212 H6197 0.960 . S
C6212 H6198 0.960 . S
C6212 H6199 0.960 . S
C6212 C6211 1.524 . S
C6213 C6210 1.403 . S
C6213 C6214 1.392 . S
C6213 C6217 1.495 . S
C6214 C6213 1.392 . S
C6214 C6215 1.385 . S
C6214 C6216 1.478 . S
C6215 H6209 0.930 . S
C6215 C6211 1.400 . S
C6215 C6214 1.385 . S
C6216 C6214 1.478 . S
C6216 C6218 1.381 . S
C6216 C6222 1.383 . S
C6217 C6213 1.495 . S
C6217 H6223 0.959 . S
C6217 H6224 0.961 . S
C6217 H6225 0.960 . S
C6218 C6216 1.381 . S
C6218 C6219 1.394 . S
C6218 H6226 0.930 . S
C6219 C6218 1.394 . S
C6219 C6220 1.383 . S
C6219 H6227 0.929 . S
C6220 C6219 1.383 . S
C6220 C6221 1.377 . S
C6221 H6205 0.930 . S
C6221 C6220 1.377 . S
C6221 C6222 1.379 . S
C6222 H6206 0.931 . S
C6222 C6216 1.383 . S
C6222 C6221 1.379 . S
H6223 C6217 0.959 . S
H6224 C6217 0.961 . S
H6225 C6217 0.960 . S
H6226 C6218 0.930 . S
H6227 C6219 0.929 . S
H6228 C6236 0.929 . S
H6229 C6238 0.930 . S
H6230 C6240 0.930 . S
H6231 C6243 0.929 . S
H6232 C6246 0.930 . S
H6233 C6248 0.960 . S
H6234 C6248 0.960 . S
H6235 C6248 0.960 . S
C6236 H6228 0.929 . S
C6236 C6237 1.377 . S
C6236 C6238 1.384 . S
C6237 C6236 1.377 . S
C6237 C6243 1.390 . S
C6238 H6229 0.930 . S
C6238 C6236 1.384 . S
C6238 C6239 1.372 . S
C6239 C6238 1.372 . S
C6239 C6240 1.400 . S
C6239 C6244 1.490 . S
C6240 H6230 0.930 . S
C6240 C6239 1.400 . S
C6240 C6243 1.386 . S
H6241 C6257 0.930 . S
H6242 C6258 0.931 . S
C6243 H6231 0.929 . S
C6243 C6237 1.390 . S
C6243 C6240 1.386 . S
C6244 C6239 1.490 . S
C6244 C6246 1.395 . S
C6244 C6247 1.403 . S
H6245 C6251 0.930 . S
C6246 H6232 0.930 . S
C6246 C6244 1.395 . S
C6246 C6249 1.403 . S
C6247 C6244 1.403 . S
C6247 C6248 1.524 . S
C6247 C6251 1.400 . S
C6248 H6233 0.960 . S
C6248 H6234 0.960 . S
C6248 H6235 0.960 . S
C6248 C6247 1.524 . S
C6249 C6246 1.403 . S
C6249 C6250 1.392 . S
C6249 C6253 1.495 . S
C6250 C6249 1.392 . S
C6250 C6251 1.385 . S
C6250 C6252 1.478 . S
C6251 H6245 0.930 . S
C6251 C6247 1.400 . S
C6251 C6250 1.385 . S
C6252 C6250 1.478 . S
C6252 C6254 1.381 . S
C6252 C6258 1.383 . S
C6253 C6249 1.495 . S
C6253 H6259 0.959 . S
C6253 H6260 0.961 . S
C6253 H6261 0.960 . S
C6254 C6252 1.381 . S
C6254 C6255 1.394 . S
C6254 H6262 0.930 . S
C6255 C6254 1.394 . S
C6255 C6256 1.383 . S
C6255 H6263 0.929 . S
C6256 C6255 1.383 . S
C6256 C6257 1.377 . S
C6257 H6241 0.930 . S
C6257 C6256 1.377 . S
C6257 C6258 1.379 . S
C6258 H6242 0.931 . S
C6258 C6252 1.383 . S
C6258 C6257 1.379 . S
H6259 C6253 0.959 . S
H6260 C6253 0.961 . S
H6261 C6253 0.960 . S
H6262 C6254 0.930 . S
H6263 C6255 0.929 . S
H6264 C6272 0.929 . S
H6265 C6274 0.930 . S
H6266 C6276 0.930 . S
H6267 C6279 0.929 . S
H6268 C6282 0.930 . S
H6269 C6284 0.960 . S
H6270 C6284 0.960 . S
H6271 C6284 0.960 . S
C6272 H6264 0.929 . S
C6272 C6273 1.377 . S
C6272 C6274 1.384 . S
C6273 C6272 1.377 . S
C6273 C6279 1.390 . S
C6274 H6265 0.930 . S
C6274 C6272 1.384 . S
C6274 C6275 1.372 . S
C6275 C6274 1.372 . S
C6275 C6276 1.400 . S
C6275 C6280 1.490 . S
C6276 H6266 0.930 . S
C6276 C6275 1.400 . S
C6276 C6279 1.386 . S
H6277 C6293 0.930 . S
H6278 C6294 0.931 . S
C6279 H6267 0.929 . S
C6279 C6273 1.390 . S
C6279 C6276 1.386 . S
C6280 C6275 1.490 . S
C6280 C6282 1.395 . S
C6280 C6283 1.403 . S
H6281 C6287 0.930 . S
C6282 H6268 0.930 . S
C6282 C6280 1.395 . S
C6282 C6285 1.403 . S
C6283 C6280 1.403 . S
C6283 C6284 1.524 . S
C6283 C6287 1.400 . S
C6284 H6269 0.960 . S
C6284 H6270 0.960 . S
C6284 H6271 0.960 . S
C6284 C6283 1.524 . S
C6285 C6282 1.403 . S
C6285 C6286 1.392 . S
C6285 C6289 1.495 . S
C6286 C6285 1.392 . S
C6286 C6287 1.385 . S
C6286 C6288 1.478 . S
C6287 H6281 0.930 . S
C6287 C6283 1.400 . S
C6287 C6286 1.385 . S
C6288 C6286 1.478 . S
C6288 C6290 1.381 . S
C6288 C6294 1.383 . S
C6289 C6285 1.495 . S
C6289 H6295 0.959 . S
C6289 H6296 0.961 . S
C6289 H6297 0.960 . S
C6290 C6288 1.381 . S
C6290 C6291 1.394 . S
C6290 H6298 0.930 . S
C6291 C6290 1.394 . S
C6291 C6292 1.383 . S
C6291 H6299 0.929 . S
C6292 C6291 1.383 . S
C6292 C6293 1.377 . S
C6293 H6277 0.930 . S
C6293 C6292 1.377 . S
C6293 C6294 1.379 . S
C6294 H6278 0.931 . S
C6294 C6288 1.383 . S
C6294 C6293 1.379 . S
H6295 C6289 0.959 . S
H6296 C6289 0.961 . S
H6297 C6289 0.960 . S
H6298 C6290 0.930 . S
H6299 C6291 0.929 . S
H6300 C6308 0.929 . S
H6301 C6310 0.930 . S
H6302 C6312 0.930 . S
H6303 C6315 0.929 . S
H6304 C6318 0.930 . S
H6305 C6320 0.960 . S
H6306 C6320 0.960 . S
H6307 C6320 0.960 . S
C6308 H6300 0.929 . S
C6308 C6309 1.377 . S
C6308 C6310 1.384 . S
C6309 C6308 1.377 . S
C6309 C6315 1.390 . S
C6310 H6301 0.930 . S
C6310 C6308 1.384 . S
C6310 C6311 1.372 . S
C6311 C6310 1.372 . S
C6311 C6312 1.400 . S
C6311 C6316 1.490 . S
C6312 H6302 0.930 . S
C6312 C6311 1.400 . S
C6312 C6315 1.386 . S
H6313 C6329 0.930 . S
H6314 C6330 0.931 . S
C6315 H6303 0.929 . S
C6315 C6309 1.390 . S
C6315 C6312 1.386 . S
C6316 C6311 1.490 . S
C6316 C6318 1.395 . S
C6316 C6319 1.403 . S
H6317 C6323 0.930 . S
C6318 H6304 0.930 . S
C6318 C6316 1.395 . S
C6318 C6321 1.403 . S
C6319 C6316 1.403 . S
C6319 C6320 1.524 . S
C6319 C6323 1.400 . S
C6320 H6305 0.960 . S
C6320 H6306 0.960 . S
C6320 H6307 0.960 . S
C6320 C6319 1.524 . S
C6321 C6318 1.403 . S
C6321 C6322 1.392 . S
C6321 C6325 1.495 . S
C6322 C6321 1.392 . S
C6322 C6323 1.385 . S
C6322 C6324 1.478 . S
C6323 H6317 0.930 . S
C6323 C6319 1.400 . S
C6323 C6322 1.385 . S
C6324 C6322 1.478 . S
C6324 C6326 1.381 . S
C6324 C6330 1.383 1_565 S
C6325 C6321 1.495 . S
C6325 H6331 0.959 . S
C6325 H6332 0.961 . S
C6325 H6333 0.960 . S
C6326 C6324 1.381 . S
C6326 C6327 1.394 . S
C6326 H6334 0.930 . S
C6327 C6326 1.394 . S
C6327 C6328 1.383 1_565 S
C6327 H6335 0.929 . S
C6328 C6327 1.383 1_545 S
C6328 C6329 1.377 . S
C6329 H6313 0.930 . S
C6329 C6328 1.377 . S
C6329 C6330 1.379 . S
C6330 H6314 0.931 . S
C6330 C6324 1.383 1_545 S
C6330 C6329 1.379 . S
H6331 C6325 0.959 . S
H6332 C6325 0.961 . S
H6333 C6325 0.960 . S
H6334 C6326 0.930 . S
H6335 C6327 0.929 . S
H6336 C6344 0.929 . S
H6337 C6346 0.930 . S
H6338 C6348 0.930 . S
H6339 C6351 0.929 . S
H6340 C6354 0.930 1_655 S
H6341 C6356 0.960 . S
H6342 C6356 0.960 . S
H6343 C6356 0.960 . S
C6344 H6336 0.929 . S
C6344 C6345 1.377 . S
C6344 C6346 1.384 . S
C6345 C6344 1.377 . S
C6345 C6351 1.390 1_655 S
C6346 H6337 0.930 . S
C6346 C6344 1.384 . S
C6346 C6347 1.372 1_655 S
C6347 C6346 1.372 1_455 S
C6347 C6348 1.400 . S
C6347 C6352 1.490 . S
C6348 H6338 0.930 . S
C6348 C6347 1.400 . S
C6348 C6351 1.386 . S
H6349 C6365 0.930 . S
H6350 C6366 0.931 . S
C6351 H6339 0.929 . S
C6351 C6345 1.390 1_455 S
C6351 C6348 1.386 . S
C6352 C6347 1.490 . S
C6352 C6354 1.395 . S
C6352 C6355 1.403 . S
H6353 C6359 0.930 . S
C6354 H6340 0.930 1_455 S
C6354 C6352 1.395 . S
C6354 C6357 1.403 . S
C6355 C6352 1.403 . S
C6355 C6356 1.524 . S
C6355 C6359 1.400 . S
C6356 H6341 0.960 . S
C6356 H6342 0.960 . S
C6356 H6343 0.960 . S
C6356 C6355 1.524 . S
C6357 C6354 1.403 . S
C6357 C6358 1.392 . S
C6357 C6361 1.495 . S
C6358 C6357 1.392 . S
C6358 C6359 1.385 . S
C6358 C6360 1.478 . S
C6359 H6353 0.930 . S
C6359 C6355 1.400 . S
C6359 C6358 1.385 . S
C6360 C6358 1.478 . S
C6360 C6362 1.381 . S
C6360 C6366 1.383 . S
C6361 C6357 1.495 . S
C6361 H6367 0.959 1_455 S
C6361 H6368 0.961 . S
C6361 H6369 0.960 . S
C6362 C6360 1.381 . S
C6362 C6363 1.394 . S
C6362 H6370 0.930 . S
C6363 C6362 1.394 . S
C6363 C6364 1.383 . S
C6363 H6371 0.929 . S
C6364 C6363 1.383 . S
C6364 C6365 1.377 . S
C6365 H6349 0.930 . S
C6365 C6364 1.377 . S
C6365 C6366 1.379 . S
C6366 H6350 0.931 . S
C6366 C6360 1.383 . S
C6366 C6365 1.379 . S
H6367 C6361 0.959 1_655 S
H6368 C6361 0.961 . S
H6369 C6361 0.960 . S
H6370 C6362 0.930 . S
H6371 C6363 0.929 . S
H6372 C6380 0.929 . S
H6373 C6382 0.930 . S
H6374 C6384 0.930 . S
H6375 C6387 0.929 . S
H6376 C6390 0.930 . S
H6377 C6392 0.960 . S
H6378 C6392 0.960 . S
H6379 C6392 0.960 . S
C6380 H6372 0.929 . S
C6380 C6381 1.377 . S
C6380 C6382 1.384 . S
C6381 C6380 1.377 . S
C6381 C6387 1.390 . S
C6382 H6373 0.930 . S
C6382 C6380 1.384 . S
C6382 C6383 1.372 . S
C6383 C6382 1.372 . S
C6383 C6384 1.400 . S
C6383 C6388 1.490 . S
C6384 H6374 0.930 . S
C6384 C6383 1.400 . S
C6384 C6387 1.386 . S
H6385 C6401 0.930 . S
H6386 C6402 0.931 . S
C6387 H6375 0.929 . S
C6387 C6381 1.390 . S
C6387 C6384 1.386 . S
C6388 C6383 1.490 . S
C6388 C6390 1.395 . S
C6388 C6391 1.403 . S
H6389 C6395 0.930 . S
C6390 H6376 0.930 . S
C6390 C6388 1.395 . S
C6390 C6393 1.403 . S
C6391 C6388 1.403 . S
C6391 C6392 1.524 . S
C6391 C6395 1.400 . S
C6392 H6377 0.960 . S
C6392 H6378 0.960 . S
C6392 H6379 0.960 . S
C6392 C6391 1.524 . S
C6393 C6390 1.403 . S
C6393 C6394 1.392 . S
C6393 C6397 1.495 . S
C6394 C6393 1.392 . S
C6394 C6395 1.385 . S
C6394 C6396 1.478 . S
C6395 H6389 0.930 . S
C6395 C6391 1.400 . S
C6395 C6394 1.385 . S
C6396 C6394 1.478 . S
C6396 C6398 1.381 . S
C6396 C6402 1.383 . S
C6397 C6393 1.495 . S
C6397 H6403 0.959 . S
C6397 H6404 0.961 . S
C6397 H6405 0.960 . S
C6398 C6396 1.381 . S
C6398 C6399 1.394 . S
C6398 H6406 0.930 . S
C6399 C6398 1.394 . S
C6399 C6400 1.383 . S
C6399 H6407 0.929 . S
C6400 C6399 1.383 . S
C6400 C6401 1.377 . S
C6401 H6385 0.930 . S
C6401 C6400 1.377 . S
C6401 C6402 1.379 . S
C6402 H6386 0.931 . S
C6402 C6396 1.383 . S
C6402 C6401 1.379 . S
H6403 C6397 0.959 . S
H6404 C6397 0.961 . S
H6405 C6397 0.960 . S
H6406 C6398 0.930 . S
H6407 C6399 0.929 . S
H6408 C6416 0.929 . S
H6409 C6418 0.930 . S
H6410 C6420 0.930 . S
H6411 C6423 0.929 . S
H6412 C6426 0.930 1_565 S
H6413 C6428 0.960 . S
H6414 C6428 0.960 . S
H6415 C6428 0.960 . S
C6416 H6408 0.929 . S
C6416 C6417 1.377 . S
C6416 C6418 1.384 . S
C6417 C6416 1.377 . S
C6417 C6423 1.390 1_565 S
C6418 H6409 0.930 . S
C6418 C6416 1.384 . S
C6418 C6419 1.372 1_565 S
C6419 C6418 1.372 1_545 S
C6419 C6420 1.400 . S
C6419 C6424 1.490 . S
C6420 H6410 0.930 . S
C6420 C6419 1.400 . S
C6420 C6423 1.386 . S
H6421 C6437 0.930 . S
H6422 C6438 0.931 . S
C6423 H6411 0.929 . S
C6423 C6417 1.390 1_545 S
C6423 C6420 1.386 . S
C6424 C6419 1.490 . S
C6424 C6426 1.395 . S
C6424 C6427 1.403 . S
H6425 C6431 0.930 . S
C6426 H6412 0.930 1_545 S
C6426 C6424 1.395 . S
C6426 C6429 1.403 . S
C6427 C6424 1.403 . S
C6427 C6428 1.524 . S
C6427 C6431 1.400 . S
C6428 H6413 0.960 . S
C6428 H6414 0.960 . S
C6428 H6415 0.960 . S
C6428 C6427 1.524 . S
C6429 C6426 1.403 . S
C6429 C6430 1.392 . S
C6429 C6433 1.495 . S
C6430 C6429 1.392 . S
C6430 C6431 1.385 . S
C6430 C6432 1.478 . S
C6431 H6425 0.930 . S
C6431 C6427 1.400 . S
C6431 C6430 1.385 . S
C6432 C6430 1.478 . S
C6432 C6434 1.381 . S
C6432 C6438 1.383 . S
C6433 C6429 1.495 . S
C6433 H6439 0.959 1_545 S
C6433 H6440 0.961 . S
C6433 H6441 0.960 . S
C6434 C6432 1.381 . S
C6434 C6435 1.394 . S
C6434 H6442 0.930 . S
C6435 C6434 1.394 . S
C6435 C6436 1.383 . S
C6435 H6443 0.929 . S
C6436 C6435 1.383 . S
C6436 C6437 1.377 . S
C6437 H6421 0.930 . S
C6437 C6436 1.377 . S
C6437 C6438 1.379 . S
C6438 H6422 0.931 . S
C6438 C6432 1.383 . S
C6438 C6437 1.379 . S
H6439 C6433 0.959 1_565 S
H6440 C6433 0.961 . S
H6441 C6433 0.960 . S
H6442 C6434 0.930 . S
H6443 C6435 0.929 . S
H6444 C6452 0.929 . S
H6445 C6454 0.930 . S
H6446 C6456 0.930 . S
H6447 C6459 0.929 . S
H6448 C6462 0.930 1_455 S
H6449 C6464 0.960 . S
H6450 C6464 0.960 . S
H6451 C6464 0.960 . S
C6452 H6444 0.929 . S
C6452 C6453 1.377 . S
C6452 C6454 1.384 . S
C6453 C6452 1.377 . S
C6453 C6459 1.390 1_455 S
C6454 H6445 0.930 . S
C6454 C6452 1.384 . S
C6454 C6455 1.372 1_455 S
C6455 C6454 1.372 1_655 S
C6455 C6456 1.400 . S
C6455 C6460 1.490 . S
C6456 H6446 0.930 . S
C6456 C6455 1.400 . S
C6456 C6459 1.386 . S
H6457 C6473 0.930 . S
H6458 C6474 0.931 . S
C6459 H6447 0.929 . S
C6459 C6453 1.390 1_655 S
C6459 C6456 1.386 . S
C6460 C6455 1.490 . S
C6460 C6462 1.395 . S
C6460 C6463 1.403 . S
H6461 C6467 0.930 . S
C6462 H6448 0.930 1_655 S
C6462 C6460 1.395 . S
C6462 C6465 1.403 . S
C6463 C6460 1.403 . S
C6463 C6464 1.524 . S
C6463 C6467 1.400 . S
C6464 H6449 0.960 . S
C6464 H6450 0.960 . S
C6464 H6451 0.960 . S
C6464 C6463 1.524 . S
C6465 C6462 1.403 . S
C6465 C6466 1.392 . S
C6465 C6469 1.495 . S
C6466 C6465 1.392 . S
C6466 C6467 1.385 . S
C6466 C6468 1.478 . S
C6467 H6461 0.930 . S
C6467 C6463 1.400 . S
C6467 C6466 1.385 . S
C6468 C6466 1.478 . S
C6468 C6470 1.381 . S
C6468 C6474 1.383 . S
C6469 C6465 1.495 . S
C6469 H6475 0.960 1_655 S
C6469 H6476 0.961 . S
C6469 H6477 0.983 . S
C6470 C6468 1.381 . S
C6470 C6471 1.394 . S
C6470 H6478 0.930 . S
C6471 C6470 1.394 . S
C6471 C6472 1.383 . S
C6471 H6479 0.929 . S
C6472 C6471 1.383 . S
C6472 C6473 1.377 . S
C6473 H6457 0.930 . S
C6473 C6472 1.377 . S
C6473 C6474 1.379 . S
C6474 H6458 0.931 . S
C6474 C6468 1.383 . S
C6474 C6473 1.379 . S
H6475 C6469 0.960 1_455 S
H6476 C6469 0.961 . S
H6477 C6469 0.983 . S
H6478 C6470 0.930 . S
H6479 C6471 0.929 . S
H6480 C6488 0.929 . S
H6481 C6490 0.930 . S
H6482 C6492 0.930 . S
H6483 C6495 0.929 . S
H6484 C6498 0.930 . S
H6485 C6500 0.960 . S
H6486 C6500 0.960 . S
H6487 C6500 0.960 . S
C6488 H6480 0.929 . S
C6488 C6489 1.377 . S
C6488 C6490 1.384 . S
C6489 C6488 1.377 . S
C6489 C6495 1.390 . S
C6490 H6481 0.930 . S
C6490 C6488 1.384 . S
C6490 C6491 1.372 . S
C6491 C6490 1.372 . S
C6491 C6492 1.400 . S
C6491 C6496 1.490 . S
C6492 H6482 0.930 . S
C6492 C6491 1.400 . S
C6492 C6495 1.386 . S
H6493 C6509 0.930 . S
H6494 C6510 0.931 . S
C6495 H6483 0.929 . S
C6495 C6489 1.390 . S
C6495 C6492 1.386 . S
C6496 C6491 1.490 . S
C6496 C6498 1.395 . S
C6496 C6499 1.403 . S
H6497 C6503 0.930 . S
C6498 H6484 0.930 . S
C6498 C6496 1.395 . S
C6498 C6501 1.403 . S
C6499 C6496 1.403 . S
C6499 C6500 1.524 . S
C6499 C6503 1.400 . S
C6500 H6485 0.960 . S
C6500 H6486 0.960 . S
C6500 H6487 0.960 . S
C6500 C6499 1.524 . S
C6501 C6498 1.403 . S
C6501 C6502 1.392 . S
C6501 C6505 1.495 . S
C6502 C6501 1.392 . S
C6502 C6503 1.385 . S
C6502 C6504 1.478 . S
C6503 H6497 0.930 . S
C6503 C6499 1.400 . S
C6503 C6502 1.385 . S
C6504 C6502 1.478 . S
C6504 C6506 1.381 . S
C6504 C6510 1.383 . S
C6505 C6501 1.495 . S
C6505 H6511 0.959 . S
C6505 H6512 0.961 . S
C6505 H6513 0.960 . S
C6506 C6504 1.381 . S
C6506 C6507 1.394 . S
C6506 H6514 0.930 . S
C6507 C6506 1.394 . S
C6507 C6508 1.383 . S
C6507 H6515 0.929 . S
C6508 C6507 1.383 . S
C6508 C6509 1.377 . S
C6509 H6493 0.930 . S
C6509 C6508 1.377 . S
C6509 C6510 1.379 . S
C6510 H6494 0.931 . S
C6510 C6504 1.383 . S
C6510 C6509 1.379 . S
H6511 C6505 0.959 . S
H6512 C6505 0.961 . S
H6513 C6505 0.960 . S
H6514 C6506 0.930 . S
H6515 C6507 0.929 . S
H6516 C6524 0.929 . S
H6517 C6526 0.930 . S
H6518 C6528 0.930 . S
H6519 C6531 0.929 . S
H6520 C6534 0.930 . S
H6521 C6536 0.960 . S
H6522 C6536 0.960 . S
H6523 C6536 0.960 . S
C6524 H6516 0.929 . S
C6524 C6525 1.377 . S
C6524 C6526 1.384 . S
C6525 C6524 1.377 . S
C6525 C6531 1.390 1_565 S
C6526 H6517 0.930 . S
C6526 C6524 1.384 . S
C6526 C6527 1.372 1_565 S
C6527 C6526 1.372 1_545 S
C6527 C6528 1.400 . S
C6527 C6532 1.490 . S
C6528 H6518 0.930 . S
C6528 C6527 1.400 . S
C6528 C6531 1.386 . S
H6529 C6545 0.930 . S
H6530 C6546 0.931 . S
C6531 H6519 0.929 . S
C6531 C6525 1.390 1_545 S
C6531 C6528 1.386 . S
C6532 C6527 1.490 . S
C6532 C6534 1.395 . S
C6532 C6535 1.403 . S
H6533 C6539 0.930 . S
C6534 H6520 0.930 . S
C6534 C6532 1.395 . S
C6534 C6537 1.403 . S
C6535 C6532 1.403 . S
C6535 C6536 1.524 . S
C6535 C6539 1.400 . S
C6536 H6521 0.960 . S
C6536 H6522 0.960 . S
C6536 H6523 0.960 . S
C6536 C6535 1.524 . S
C6537 C6534 1.403 . S
C6537 C6538 1.392 . S
C6537 C6541 1.495 . S
C6538 C6537 1.392 . S
C6538 C6539 1.385 . S
C6538 C6540 1.478 . S
C6539 H6533 0.930 . S
C6539 C6535 1.400 . S
C6539 C6538 1.385 . S
C6540 C6538 1.478 . S
C6540 C6542 1.381 . S
C6540 C6546 1.383 . S
C6541 C6537 1.495 . S
C6541 H6547 0.959 . S
C6541 H6548 0.961 . S
C6541 H6549 0.960 . S
C6542 C6540 1.381 . S
C6542 C6543 1.394 . S
C6542 H6550 0.930 . S
C6543 C6542 1.394 . S
C6543 C6544 1.383 . S
C6543 H6551 0.929 . S
C6544 C6543 1.383 . S
C6544 C6545 1.377 . S
C6545 H6529 0.930 . S
C6545 C6544 1.377 . S
C6545 C6546 1.379 . S
C6546 H6530 0.931 . S
C6546 C6540 1.383 . S
C6546 C6545 1.379 . S
H6547 C6541 0.959 . S
H6548 C6541 0.961 . S
H6549 C6541 0.960 . S
H6550 C6542 0.930 . S
H6551 C6543 0.929 . S
H6552 C6560 0.929 . S
H6553 C6562 0.930 . S
H6554 C6564 0.930 . S
H6555 C6567 0.929 . S
H6556 C6570 0.930 . S
H6557 C6572 0.960 . S
H6558 C6572 0.960 . S
H6559 C6572 0.960 . S
C6560 H6552 0.929 . S
C6560 C6561 1.377 . S
C6560 C6562 1.384 . S
C6561 C6560 1.377 . S
C6561 C6567 1.390 . S
C6562 H6553 0.930 . S
C6562 C6560 1.384 . S
C6562 C6563 1.372 . S
C6563 C6562 1.372 . S
C6563 C6564 1.400 . S
C6563 C6568 1.490 . S
C6564 H6554 0.930 . S
C6564 C6563 1.400 . S
C6564 C6567 1.386 . S
H6565 C6581 0.930 . S
H6566 C6582 0.922 1_655 S
C6567 H6555 0.929 . S
C6567 C6561 1.390 . S
C6567 C6564 1.386 . S
C6568 C6563 1.490 . S
C6568 C6570 1.395 . S
C6568 C6571 1.403 . S
H6569 C6575 0.930 . S
C6570 H6556 0.930 . S
C6570 C6568 1.395 . S
C6570 C6573 1.403 . S
C6571 C6568 1.403 . S
C6571 C6572 1.524 . S
C6571 C6575 1.400 . S
C6572 H6557 0.960 . S
C6572 H6558 0.960 . S
C6572 H6559 0.960 . S
C6572 C6571 1.524 . S
C6573 C6570 1.403 . S
C6573 C6574 1.392 . S
C6573 C6577 1.495 1_655 S
C6574 C6573 1.392 . S
C6574 C6575 1.385 . S
C6574 C6576 1.478 . S
C6575 H6569 0.930 . S
C6575 C6571 1.400 . S
C6575 C6574 1.385 . S
C6576 C6574 1.478 . S
C6576 C6578 1.384 . S
C6576 C6582 1.360 1_655 S
C6577 C6573 1.495 1_455 S
C6577 H6583 0.959 . S
C6577 H6584 0.961 . S
C6577 H6585 0.960 . S
C6578 C6576 1.384 . S
C6578 C6579 1.386 1_655 S
C6578 H6586 0.936 . S
C6579 C6578 1.386 1_455 S
C6579 C6580 1.383 . S
C6579 H6587 0.929 . S
C6580 C6579 1.383 . S
C6580 C6581 1.377 . S
C6581 H6565 0.930 . S
C6581 C6580 1.377 . S
C6581 C6582 1.413 . S
C6582 H6566 0.922 1_455 S
C6582 C6576 1.360 1_455 S
C6582 C6581 1.413 . S
H6583 C6577 0.959 . S
H6584 C6577 0.961 . S
H6585 C6577 0.960 . S
H6586 C6578 0.936 . S
H6587 C6579 0.929 . S
H6588 C6596 0.929 . S
H6589 C6598 0.930 . S
H6590 C6600 0.930 . S
H6591 C6603 0.929 . S
H6592 C6606 0.930 . S
H6593 C6608 0.960 . S
H6594 C6608 0.960 . S
H6595 C6608 0.960 . S
C6596 H6588 0.929 . S
C6596 C6597 1.377 . S
C6596 C6598 1.384 . S
C6597 C6596 1.377 . S
C6597 C6603 1.390 . S
C6598 H6589 0.930 . S
C6598 C6596 1.384 . S
C6598 C6599 1.372 . S
C6599 C6598 1.372 . S
C6599 C6600 1.400 . S
C6599 C6604 1.490 . S
C6600 H6590 0.930 . S
C6600 C6599 1.400 . S
C6600 C6603 1.386 . S
H6601 C6617 0.930 . S
H6602 C6618 0.931 . S
C6603 H6591 0.929 . S
C6603 C6597 1.390 . S
C6603 C6600 1.386 . S
C6604 C6599 1.490 . S
C6604 C6606 1.395 . S
C6604 C6607 1.403 . S
H6605 C6611 0.930 . S
C6606 H6592 0.930 . S
C6606 C6604 1.395 . S
C6606 C6609 1.403 . S
C6607 C6604 1.403 . S
C6607 C6608 1.524 . S
C6607 C6611 1.400 . S
C6608 H6593 0.960 . S
C6608 H6594 0.960 . S
C6608 H6595 0.960 . S
C6608 C6607 1.524 . S
C6609 C6606 1.403 . S
C6609 C6610 1.392 . S
C6609 C6613 1.495 . S
C6610 C6609 1.392 . S
C6610 C6611 1.385 . S
C6610 C6612 1.478 . S
C6611 H6605 0.930 . S
C6611 C6607 1.400 . S
C6611 C6610 1.385 . S
C6612 C6610 1.478 . S
C6612 C6614 1.381 . S
C6612 C6618 1.383 . S
C6613 C6609 1.495 . S
C6613 H6619 0.959 . S
C6613 H6620 0.961 . S
C6613 H6621 0.960 . S
C6614 C6612 1.381 . S
C6614 C6615 1.394 . S
C6614 H6622 0.930 . S
C6615 C6614 1.394 . S
C6615 C6616 1.383 . S
C6615 H6623 0.929 . S
C6616 C6615 1.383 . S
C6616 C6617 1.377 . S
C6617 H6601 0.930 . S
C6617 C6616 1.377 . S
C6617 C6618 1.379 . S
C6618 H6602 0.931 . S
C6618 C6612 1.383 . S
C6618 C6617 1.379 . S
H6619 C6613 0.959 . S
H6620 C6613 0.961 . S
H6621 C6613 0.960 . S
H6622 C6614 0.930 . S
H6623 C6615 0.929 . S
H6624 C6632 0.929 . S
H6625 C6634 0.930 . S
H6626 C6636 0.930 . S
H6627 C6639 0.929 . S
H6628 C6642 0.930 . S
H6629 C6644 0.960 . S
H6630 C6644 0.960 . S
H6631 C6644 0.960 . S
C6632 H6624 0.929 . S
C6632 C6633 1.377 . S
C6632 C6634 1.384 . S
C6633 C6632 1.377 . S
C6633 C6639 1.390 . S
C6634 H6625 0.930 . S
C6634 C6632 1.384 . S
C6634 C6635 1.372 . S
C6635 C6634 1.372 . S
C6635 C6636 1.400 . S
C6635 C6640 1.490 . S
C6636 H6626 0.930 . S
C6636 C6635 1.400 . S
C6636 C6639 1.386 . S
H6637 C6653 0.930 . S
H6638 C6654 0.931 . S
C6639 H6627 0.929 . S
C6639 C6633 1.390 . S
C6639 C6636 1.386 . S
C6640 C6635 1.490 . S
C6640 C6642 1.395 . S
C6640 C6643 1.403 . S
H6641 C6647 0.930 . S
C6642 H6628 0.930 . S
C6642 C6640 1.395 . S
C6642 C6645 1.403 . S
C6643 C6640 1.403 . S
C6643 C6644 1.524 . S
C6643 C6647 1.400 . S
C6644 H6629 0.960 . S
C6644 H6630 0.960 . S
C6644 H6631 0.960 . S
C6644 C6643 1.524 . S
C6645 C6642 1.403 . S
C6645 C6646 1.392 . S
C6645 C6649 1.495 . S
C6646 C6645 1.392 . S
C6646 C6647 1.385 . S
C6646 C6648 1.478 . S
C6647 H6641 0.930 . S
C6647 C6643 1.400 . S
C6647 C6646 1.385 . S
C6648 C6646 1.478 . S
C6648 C6650 1.381 1_565 S
C6648 C6654 1.383 . S
C6649 C6645 1.495 . S
C6649 H6655 0.959 . S
C6649 H6656 0.961 . S
C6649 H6657 0.960 . S
C6650 C6648 1.381 1_545 S
C6650 C6651 1.394 . S
C6650 H6658 0.930 . S
C6651 C6650 1.394 . S
C6651 C6652 1.383 . S
C6651 H6659 0.929 . S
C6652 C6651 1.383 . S
C6652 C6653 1.377 1_545 S
C6653 H6637 0.930 . S
C6653 C6652 1.377 1_565 S
C6653 C6654 1.379 . S
C6654 H6638 0.931 . S
C6654 C6648 1.383 . S
C6654 C6653 1.379 . S
H6655 C6649 0.959 . S
H6656 C6649 0.961 . S
H6657 C6649 0.960 . S
H6658 C6650 0.930 . S
H6659 C6651 0.929 . S
H6660 C6668 0.929 . S
H6661 C6670 0.930 . S
H6662 C6672 0.930 . S
H6663 C6675 0.929 . S
H6664 C6678 0.930 . S
H6665 C6680 0.960 . S
H6666 C6680 0.960 . S
H6667 C6680 0.960 . S
C6668 H6660 0.929 . S
C6668 C6669 1.377 . S
C6668 C6670 1.384 . S
C6669 C6668 1.377 . S
C6669 C6675 1.390 . S
C6670 H6661 0.930 . S
C6670 C6668 1.384 . S
C6670 C6671 1.372 . S
C6671 C6670 1.372 . S
C6671 C6672 1.400 . S
C6671 C6676 1.490 . S
C6672 H6662 0.930 . S
C6672 C6671 1.400 . S
C6672 C6675 1.386 . S
H6673 C6689 0.930 . S
H6674 C6690 0.931 . S
C6675 H6663 0.929 . S
C6675 C6669 1.390 . S
C6675 C6672 1.386 . S
C6676 C6671 1.490 . S
C6676 C6678 1.395 . S
C6676 C6679 1.403 . S
H6677 C6683 0.930 . S
C6678 H6664 0.930 . S
C6678 C6676 1.395 . S
C6678 C6681 1.403 . S
C6679 C6676 1.403 . S
C6679 C6680 1.524 . S
C6679 C6683 1.400 . S
C6680 H6665 0.960 . S
C6680 H6666 0.960 . S
C6680 H6667 0.960 . S
C6680 C6679 1.524 . S
C6681 C6678 1.403 . S
C6681 C6682 1.392 . S
C6681 C6685 1.495 1_455 S
C6682 C6681 1.392 . S
C6682 C6683 1.385 . S
C6682 C6684 1.478 . S
C6683 H6677 0.930 . S
C6683 C6679 1.400 . S
C6683 C6682 1.385 . S
C6684 C6682 1.478 . S
C6684 C6686 1.381 1_455 S
C6684 C6690 1.383 . S
C6685 C6681 1.495 1_655 S
C6685 H6691 0.959 . S
C6685 H6692 0.961 . S
C6685 H6693 0.960 . S
C6686 C6684 1.381 1_655 S
C6686 C6687 1.394 . S
C6686 H6694 0.930 . S
C6687 C6686 1.394 . S
C6687 C6688 1.383 . S
C6687 H6695 0.929 . S
C6688 C6687 1.383 . S
C6688 C6689 1.377 . S
C6689 H6673 0.930 . S
C6689 C6688 1.377 . S
C6689 C6690 1.379 1_655 S
C6690 H6674 0.931 . S
C6690 C6684 1.383 . S
C6690 C6689 1.379 1_455 S
H6691 C6685 0.959 . S
H6692 C6685 0.961 . S
H6693 C6685 0.960 . S
H6694 C6686 0.930 . S
H6695 C6687 0.929 . S
H6696 C6704 0.929 . S
H6697 C6706 0.930 . S
H6698 C6708 0.930 . S
H6699 C6711 0.929 . S
H6700 C6714 0.930 . S
H6701 C6716 0.961 . S
H6702 C6716 0.960 . S
H6703 C6716 0.960 . S
C6704 H6696 0.929 . S
C6704 C6705 1.377 . S
C6704 C6706 1.384 . S
C6705 C6704 1.377 . S
C6705 C6711 1.390 . S
C6706 H6697 0.930 . S
C6706 C6704 1.384 . S
C6706 C6707 1.372 . S
C6707 C6706 1.372 . S
C6707 C6708 1.400 . S
C6707 C6712 1.490 . S
C6708 H6698 0.930 . S
C6708 C6707 1.400 . S
C6708 C6711 1.386 . S
H6709 C6725 0.930 . S
H6710 C6726 0.931 . S
C6711 H6699 0.929 . S
C6711 C6705 1.390 . S
C6711 C6708 1.386 . S
C6712 C6707 1.490 . S
C6712 C6714 1.395 . S
C6712 C6715 1.403 . S
H6713 C6719 0.930 . S
C6714 H6700 0.930 . S
C6714 C6712 1.395 . S
C6714 C6717 1.403 1_655 S
C6715 C6712 1.403 . S
C6715 C6716 1.524 . S
C6715 C6719 1.400 1_655 S
C6716 H6701 0.961 . S
C6716 H6702 0.960 . S
C6716 H6703 0.960 . S
C6716 C6715 1.524 . S
C6717 C6714 1.403 1_455 S
C6717 C6718 1.392 . S
C6717 C6721 1.495 . S
C6718 C6717 1.392 . S
C6718 C6719 1.385 . S
C6718 C6720 1.478 . S
C6719 H6713 0.930 . S
C6719 C6715 1.400 1_455 S
C6719 C6718 1.385 . S
C6720 C6718 1.478 . S
C6720 C6722 1.381 . S
C6720 C6726 1.383 . S
C6721 C6717 1.495 . S
C6721 H6727 0.959 1_455 S
C6721 H6728 0.961 . S
C6721 H6729 0.960 . S
C6722 C6720 1.381 . S
C6722 C6723 1.394 . S
C6722 H6730 0.930 . S
C6723 C6722 1.394 . S
C6723 C6724 1.383 . S
C6723 H6731 0.929 . S
C6724 C6723 1.383 . S
C6724 C6725 1.377 . S
C6725 H6709 0.930 . S
C6725 C6724 1.377 . S
C6725 C6726 1.379 . S
C6726 H6710 0.931 . S
C6726 C6720 1.383 . S
C6726 C6725 1.379 . S
H6727 C6721 0.959 1_655 S
H6728 C6721 0.961 . S
H6729 C6721 0.960 . S
H6730 C6722 0.930 . S
H6731 C6723 0.929 . S
H6732 C6740 0.929 . S
H6733 C6742 0.930 . S
H6734 C6744 0.930 . S
H6735 C6747 0.929 . S
H6736 C6750 0.930 . S
H6737 C6752 0.960 . S
H6738 C6752 0.960 . S
H6739 C6752 0.960 . S
C6740 H6732 0.929 . S
C6740 C6741 1.377 . S
C6740 C6742 1.384 . S
C6741 C6740 1.377 . S
C6741 C6747 1.390 . S
C6742 H6733 0.930 . S
C6742 C6740 1.384 . S
C6742 C6743 1.372 . S
C6743 C6742 1.372 . S
C6743 C6744 1.400 . S
C6743 C6748 1.490 . S
C6744 H6734 0.930 . S
C6744 C6743 1.400 . S
C6744 C6747 1.386 . S
H6745 C6761 0.930 . S
H6746 C6762 0.931 . S
C6747 H6735 0.929 . S
C6747 C6741 1.390 . S
C6747 C6744 1.386 . S
C6748 C6743 1.490 . S
C6748 C6750 1.395 . S
C6748 C6751 1.403 . S
H6749 C6755 0.930 . S
C6750 H6736 0.930 . S
C6750 C6748 1.395 . S
C6750 C6753 1.403 . S
C6751 C6748 1.403 . S
C6751 C6752 1.524 . S
C6751 C6755 1.400 . S
C6752 H6737 0.960 . S
C6752 H6738 0.960 . S
C6752 H6739 0.960 . S
C6752 C6751 1.524 . S
C6753 C6750 1.403 . S
C6753 C6754 1.392 . S
C6753 C6757 1.495 . S
C6754 C6753 1.392 . S
C6754 C6755 1.385 . S
C6754 C6756 1.478 . S
C6755 H6749 0.930 . S
C6755 C6751 1.400 . S
C6755 C6754 1.385 . S
C6756 C6754 1.478 . S
C6756 C6758 1.381 . S
C6756 C6762 1.383 . S
C6757 C6753 1.495 . S
C6757 H6763 0.959 . S
C6757 H6764 0.961 . S
C6757 H6765 0.960 . S
C6758 C6756 1.381 . S
C6758 C6759 1.394 . S
C6758 H6766 0.930 . S
C6759 C6758 1.394 . S
C6759 C6760 1.383 . S
C6759 H6767 0.929 . S
C6760 C6759 1.383 . S
C6760 C6761 1.377 . S
C6761 H6745 0.930 . S
C6761 C6760 1.377 . S
C6761 C6762 1.379 . S
C6762 H6746 0.931 . S
C6762 C6756 1.383 . S
C6762 C6761 1.379 . S
H6763 C6757 0.959 . S
H6764 C6757 0.961 . S
H6765 C6757 0.960 . S
H6766 C6758 0.930 . S
H6767 C6759 0.929 . S
H6768 C6776 0.929 . S
H6769 C6778 0.930 . S
H6770 C6780 0.930 . S
H6771 C6783 0.929 . S
H6772 C6786 0.930 . S
H6773 C6788 0.960 . S
H6774 C6788 0.960 . S
H6775 C6788 0.960 . S
C6776 H6768 0.929 . S
C6776 C6777 1.377 . S
C6776 C6778 1.384 . S
C6777 C6776 1.377 . S
C6777 C6783 1.390 . S
C6778 H6769 0.930 . S
C6778 C6776 1.384 . S
C6778 C6779 1.372 . S
C6779 C6778 1.372 . S
C6779 C6780 1.400 . S
C6779 C6784 1.490 . S
C6780 H6770 0.930 . S
C6780 C6779 1.400 . S
C6780 C6783 1.386 . S
H6781 C6797 0.930 . S
H6782 C6798 0.931 . S
C6783 H6771 0.929 . S
C6783 C6777 1.390 . S
C6783 C6780 1.386 . S
C6784 C6779 1.490 . S
C6784 C6786 1.395 . S
C6784 C6787 1.403 . S
H6785 C6791 0.930 . S
C6786 H6772 0.930 . S
C6786 C6784 1.395 . S
C6786 C6789 1.403 1_545 S
C6787 C6784 1.403 . S
C6787 C6788 1.524 . S
C6787 C6791 1.400 1_545 S
C6788 H6773 0.960 . S
C6788 H6774 0.960 . S
C6788 H6775 0.960 . S
C6788 C6787 1.524 . S
C6789 C6786 1.403 1_565 S
C6789 C6790 1.392 . S
C6789 C6793 1.495 . S
C6790 C6789 1.392 . S
C6790 C6791 1.385 . S
C6790 C6792 1.478 . S
C6791 H6785 0.930 . S
C6791 C6787 1.400 1_565 S
C6791 C6790 1.385 . S
C6792 C6790 1.478 . S
C6792 C6794 1.381 . S
C6792 C6798 1.383 . S
C6793 C6789 1.495 . S
C6793 H6799 0.959 . S
C6793 H6800 0.961 . S
C6793 H6801 0.960 . S
C6794 C6792 1.381 . S
C6794 C6795 1.394 . S
C6794 H6802 0.930 . S
C6795 C6794 1.394 . S
C6795 C6796 1.383 . S
C6795 H6803 0.929 . S
C6796 C6795 1.383 . S
C6796 C6797 1.377 . S
C6797 H6781 0.930 . S
C6797 C6796 1.377 . S
C6797 C6798 1.379 . S
C6798 H6782 0.931 . S
C6798 C6792 1.383 . S
C6798 C6797 1.379 . S
H6799 C6793 0.959 . S
H6800 C6793 0.961 . S
H6801 C6793 0.960 . S
H6802 C6794 0.930 . S
H6803 C6795 0.929 . S
H6804 C6812 0.929 . S
H6805 C6814 0.930 . S
H6806 C6816 0.930 . S
H6807 C6819 0.929 . S
H6808 C6822 0.930 . S
H6809 C6824 0.960 . S
H6810 C6824 0.960 . S
H6811 C6824 0.960 . S
C6812 H6804 0.929 . S
C6812 C6813 1.377 . S
C6812 C6814 1.384 . S
C6813 C6812 1.377 . S
C6813 C6819 1.390 . S
C6814 H6805 0.930 . S
C6814 C6812 1.384 . S
C6814 C6815 1.372 . S
C6815 C6814 1.372 . S
C6815 C6816 1.400 . S
C6815 C6820 1.490 . S
C6816 H6806 0.930 . S
C6816 C6815 1.400 . S
C6816 C6819 1.386 . S
H6817 C6833 0.930 . S
H6818 C6834 0.931 . S
C6819 H6807 0.929 . S
C6819 C6813 1.390 . S
C6819 C6816 1.386 . S
C6820 C6815 1.490 . S
C6820 C6822 1.395 . S
C6820 C6823 1.403 . S
H6821 C6827 0.930 . S
C6822 H6808 0.930 . S
C6822 C6820 1.395 . S
C6822 C6825 1.403 1_545 S
C6823 C6820 1.403 . S
C6823 C6824 1.524 . S
C6823 C6827 1.400 1_545 S
C6824 H6809 0.960 . S
C6824 H6810 0.960 . S
C6824 H6811 0.960 . S
C6824 C6823 1.524 . S
C6825 C6822 1.403 1_565 S
C6825 C6826 1.392 . S
C6825 C6829 1.495 . S
C6826 C6825 1.392 . S
C6826 C6827 1.385 . S
C6826 C6828 1.478 . S
C6827 H6821 0.930 . S
C6827 C6823 1.400 1_565 S
C6827 C6826 1.385 . S
C6828 C6826 1.478 . S
C6828 C6830 1.381 . S
C6828 C6834 1.383 . S
C6829 C6825 1.495 . S
C6829 H6835 0.959 . S
C6829 H6836 0.961 . S
C6829 H6837 0.960 . S
C6830 C6828 1.381 . S
C6830 C6831 1.394 . S
C6830 H6838 0.930 . S
C6831 C6830 1.394 . S
C6831 C6832 1.383 . S
C6831 H6839 0.929 . S
C6832 C6831 1.383 . S
C6832 C6833 1.377 . S
C6833 H6817 0.930 . S
C6833 C6832 1.377 . S
C6833 C6834 1.379 . S
C6834 H6818 0.931 . S
C6834 C6828 1.383 . S
C6834 C6833 1.379 . S
H6835 C6829 0.959 . S
H6836 C6829 0.961 . S
H6837 C6829 0.960 . S
H6838 C6830 0.930 . S
H6839 C6831 0.929 . S
H6840 C6848 0.929 . S
H6841 C6850 0.930 . S
H6842 C6852 0.930 . S
H6843 C6855 0.929 . S
H6844 C6858 0.930 . S
H6845 C6860 0.960 . S
H6846 C6860 0.960 . S
H6847 C6860 0.960 . S
C6848 H6840 0.929 . S
C6848 C6849 1.377 . S
C6848 C6850 1.384 . S
C6849 C6848 1.377 . S
C6849 C6855 1.390 . S
C6850 H6841 0.930 . S
C6850 C6848 1.384 . S
C6850 C6851 1.372 . S
C6851 C6850 1.372 . S
C6851 C6852 1.400 . S
C6851 C6856 1.490 . S
C6852 H6842 0.930 . S
C6852 C6851 1.400 . S
C6852 C6855 1.386 . S
H6853 C6869 0.930 . S
H6854 C6870 0.931 . S
C6855 H6843 0.929 . S
C6855 C6849 1.390 . S
C6855 C6852 1.386 . S
C6856 C6851 1.490 . S
C6856 C6858 1.395 . S
C6856 C6859 1.403 . S
H6857 C6863 0.930 . S
C6858 H6844 0.930 . S
C6858 C6856 1.395 . S
C6858 C6861 1.403 1_655 S
C6859 C6856 1.403 . S
C6859 C6860 1.524 . S
C6859 C6863 1.400 1_655 S
C6860 H6845 0.960 . S
C6860 H6846 0.960 . S
C6860 H6847 0.960 . S
C6860 C6859 1.524 . S
C6861 C6858 1.403 1_455 S
C6861 C6862 1.392 . S
C6861 C6865 1.495 . S
C6862 C6861 1.392 . S
C6862 C6863 1.385 . S
C6862 C6864 1.478 . S
C6863 H6857 0.930 . S
C6863 C6859 1.400 1_455 S
C6863 C6862 1.385 . S
C6864 C6862 1.478 . S
C6864 C6866 1.381 . S
C6864 C6870 1.383 . S
C6865 C6861 1.495 . S
C6865 H6871 0.959 . S
C6865 H6872 0.961 . S
C6865 H6873 0.960 . S
C6866 C6864 1.381 . S
C6866 C6867 1.394 . S
C6866 H6874 0.930 . S
C6867 C6866 1.394 . S
C6867 C6868 1.383 . S
C6867 H6875 0.929 . S
C6868 C6867 1.383 . S
C6868 C6869 1.377 . S
C6869 H6853 0.930 . S
C6869 C6868 1.377 . S
C6869 C6870 1.379 . S
C6870 H6854 0.931 . S
C6870 C6864 1.383 . S
C6870 C6869 1.379 . S
H6871 C6865 0.959 . S
H6872 C6865 0.961 . S
H6873 C6865 0.960 . S
H6874 C6866 0.930 . S
H6875 C6867 0.929 . S
H6876 C6884 0.929 . S
H6877 C6886 0.930 . S
H6878 C6888 0.930 . S
H6879 C6891 0.929 . S
H6880 C6894 0.930 . S
H6881 C6896 0.960 . S
H6882 C6896 0.960 . S
H6883 C6896 0.960 . S
C6884 H6876 0.929 . S
C6884 C6885 1.377 . S
C6884 C6886 1.384 . S
C6885 C6884 1.377 . S
C6885 C6891 1.390 . S
C6886 H6877 0.930 . S
C6886 C6884 1.384 . S
C6886 C6887 1.372 . S
C6887 C6886 1.372 . S
C6887 C6888 1.400 . S
C6887 C6892 1.490 . S
C6888 H6878 0.930 . S
C6888 C6887 1.400 . S
C6888 C6891 1.386 . S
H6889 C6905 0.930 . S
H6890 C6906 0.931 . S
C6891 H6879 0.929 . S
C6891 C6885 1.390 . S
C6891 C6888 1.386 . S
C6892 C6887 1.490 . S
C6892 C6894 1.395 . S
C6892 C6895 1.403 . S
H6893 C6899 0.930 . S
C6894 H6880 0.930 . S
C6894 C6892 1.395 . S
C6894 C6897 1.403 . S
C6895 C6892 1.403 . S
C6895 C6896 1.524 . S
C6895 C6899 1.400 . S
C6896 H6881 0.960 . S
C6896 H6882 0.960 . S
C6896 H6883 0.960 . S
C6896 C6895 1.524 . S
C6897 C6894 1.403 . S
C6897 C6898 1.392 . S
C6897 C6901 1.495 . S
C6898 C6897 1.392 . S
C6898 C6899 1.385 . S
C6898 C6900 1.478 . S
C6899 H6893 0.930 . S
C6899 C6895 1.400 . S
C6899 C6898 1.385 . S
C6900 C6898 1.478 . S
C6900 C6902 1.381 . S
C6900 C6906 1.383 . S
C6901 C6897 1.495 . S
C6901 H6907 0.959 . S
C6901 H6908 0.961 . S
C6901 H6909 0.960 . S
C6902 C6900 1.381 . S
C6902 C6903 1.394 . S
C6902 H6910 0.930 . S
C6903 C6902 1.394 . S
C6903 C6904 1.383 . S
C6903 H6911 0.929 . S
C6904 C6903 1.383 . S
C6904 C6905 1.377 . S
C6905 H6889 0.930 . S
C6905 C6904 1.377 . S
C6905 C6906 1.379 . S
C6906 H6890 0.931 . S
C6906 C6900 1.383 . S
C6906 C6905 1.379 . S
H6907 C6901 0.959 . S
H6908 C6901 0.961 . S
H6909 C6901 0.960 . S
H6910 C6902 0.930 . S
H6911 C6903 0.929 . S
C3033 C70 1.794 . S
C3052 C655 1.924 . S
C3069 C739 1.928 . S
C3088 C154 1.768 . S
C3105 C571 1.928 . S
C3124 C238 1.772 . S
C3141 C992 1.914 . S
C3160 C310 1.758 . S
C3177 C394 1.745 . S
C3196 C824 1.901 . S
C3213 C478 1.741 . S
C3232 C908 1.912 . S
C3249 C139 1.927 . S
C3268 C562 1.809 . S
C3285 C646 1.800 . S
C3304 C223 1.916 . S
C3321 C55 1.933 . S
C3340 C730 1.781 . S
C3357 C476 1.917 . S
C3376 C826 1.770 . S
C3393 C910 1.733 . S
C3412 C308 1.902 . S
C3429 C994 1.732 . S
C3448 C392 1.915 . S
C3465 C1078 1.792 . S
C3484 C1663 1.920 . S
C3501 C1747 1.928 . S
C3520 C1162 1.773 . S
C3537 C1579 1.931 . S
C3556 C1246 1.804 . S
C3573 C1318 1.732 . S
C3592 C2000 1.924 . S
C3609 C1832 1.918 . S
C3628 C1402 1.705 . S
C3645 C1486 1.746 . S
C3664 C1916 1.901 . S
C3681 C1570 1.798 . S
C3700 C1147 1.912 . S
C3717 C1231 1.927 . S
C3736 C1654 1.804 . S
C3753 C1738 1.801 . S
C3772 C1063 1.917 . S
C3789 C1484 1.919 . S
C3808 C1834 1.728 . S
C3825 C1316 1.918 . S
C3844 C1918 1.711 . S
C3861 C2002 1.734 . S
C3880 C1400 1.901 . S
C3897 C2086 1.801 . S
C3916 C2671 1.938 . S
C3933 C2170 1.790 . S
C3952 C2755 1.919 . S
C3969 C2587 1.933 . S
C3988 C2254 1.822 . S
C4005 C3008 1.914 . S
C4024 C2326 1.769 . S
C4041 C2410 1.744 . S
C4060 C2840 1.902 . S
C4077 C2924 1.916 . S
C4096 C2494 1.733 . S
C4113 C2155 1.930 . S
C4132 C2578 1.764 . S
C4149 C2662 1.799 . S
C4168 C2239 1.929 . S
C4185 C2071 1.930 . S
C4204 C2746 1.814 . S
C4221 C2842 1.744 . S
C4240 C2492 1.923 . S
C4257 C2926 1.732 . S
C4276 C2324 1.905 . S
C4293 C3010 1.746 . S
C4312 C2408 1.916 . S
C4329 C67 1.594 . S
C4348 C1567 1.596 . S
C4365 C151 1.591 . S
C4384 C1651 1.598 . S
C4401 C1735 1.594 . S
C4420 C235 1.592 . S
C4437 C2828 1.689 . S
C4456 C320 1.705 . S
C4473 C2912 1.690 . S
C4492 C404 1.705 . S
C4509 C2996 1.684 . S
C4528 C488 1.686 . S
C4545 C559 1.594 . S
C4564 C2083 1.591 . S
C4581 C2167 1.589 . S
C4600 C643 1.579 . S
C4617 C727 1.594 . S
C4636 C2251 1.585 . S
C4653 C812 1.688 . S
C4672 C1328 1.667 . S
C4689 C896 1.686 . S
C4708 C1412 1.699 . S
C4725 C980 1.689 . S
C4744 C1496 1.705 . S
C4761 C1075 1.590 . S
C4780 C2575 1.581 . S
C4797 C2659 1.592 . S
C4816 C1159 1.600 . S
C4833 C1243 1.593 . S
C4852 C2743 1.584 . S
C4869 C2336 1.686 . S
C4888 C1820 1.663 . S
C4905 C1904 1.686 . S
C4924 C2420 1.662 . S
C4941 C2504 1.687 . S
C4960 C1988 1.701 . S
C4977 C56 2.227 1_556 S
C4996 C1399 2.257 . S
C5013 C140 2.221 1_556 S
C5032 C1483 2.270 . S
C5049 C1315 2.282 . S
C5068 C224 2.221 1_556 S
C5085 C307 2.277 . S
C5104 C2240 2.241 . S
C5121 C2072 2.226 . S
C5140 C391 2.257 . S
C5157 C475 2.278 . S
C5176 C2156 2.221 . S
C5193 C2923 2.283 . S
C5212 C572 2.229 1_554 S
C5229 C656 2.224 1_554 S
C5248 C3007 2.289 . S
C5265 C2839 2.276 . S
C5284 C740 2.197 1_554 S
C5301 C823 2.281 . S
C5320 C1748 2.212 . S
C5337 C907 2.280 . S
C5356 C1580 2.206 . S
C5373 C991 2.276 . S
C5392 C1664 2.197 . S
C5409 C2407 2.280 . S
C5428 C1064 2.231 . S
C5445 C1148 2.219 . S
C5464 C2491 2.293 . S
C5481 C1232 2.219 . S
C5500 C2323 2.293 . S
C5517 C2756 2.217 . S
C5536 C1831 2.258 . S
C5553 C2588 2.223 . S
C5572 C1915 2.270 . S
C5589 C2672 2.217 . S
C5608 C1999 2.261 . S
C5625 C319 2.810 . S
C5644 C68 2.852 . S
C5661 C152 2.858 . S
C5680 C403 2.808 . S
C5697 C236 2.858 . S
C5716 C487 2.800 . S
C5733 C811 2.811 . S
C5752 C560 2.854 . S
C5769 C644 2.858 . S
C5788 C895 2.816 . S
C5805 C979 2.810 . S
C5824 C728 2.855 . S
C5841 C1327 2.813 . S
C5860 C1076 2.855 . S
C5877 C1160 2.858 . S
C5896 C1411 2.796 . S
C5913 C1244 2.858 . S
C5932 C1495 2.814 . S
C5949 C1568 2.858 . S
C5968 C1819 2.816 1_554 S
C5985 C1652 2.858 . S
C6004 C1903 2.817 1_554 S
C6021 C1736 2.858 . S
C6040 C1987 2.778 1_554 S
C6057 C2084 2.858 . S
C6076 C2335 2.816 1_556 S
C6093 C2419 2.814 1_556 S
C6112 C2168 2.855 . S
C6129 C2503 2.811 1_556 S
C6148 C2252 2.854 . S
C6165 C2576 2.858 . S
C6184 C2827 2.796 . S
C6201 C2911 2.813 . S
C6220 C2660 2.852 . S
C6237 C2744 2.858 . S
C6256 C2995 2.800 . S
C6273 C58 0.791 . S
C6292 C2506 0.553 . S
C6309 C2338 0.660 . S
C6328 C142 0.732 . S
C6345 C226 0.783 . S
C6364 C2422 0.577 . S
C6381 C1150 0.779 . S
C6400 C322 0.633 . S
C6417 C406 0.636 . S
C6436 C1234 0.812 . S
C6453 C490 0.647 . S
C6472 C1066 0.762 . S
C6489 C1990 0.662 . S
C6508 C574 0.863 . S
C6525 C658 0.751 . S
C6544 C1822 0.609 . S
C6561 C1906 0.661 . S
C6580 C742 0.738 . S
C6597 C814 0.667 . S
C6616 C2674 0.787 . S
C6633 C2758 0.766 . S
C6652 C898 0.727 . S
C6669 C2590 0.759 . S
C6688 C982 0.551 . S
C6705 C1330 0.641 . S
C6724 C2158 0.787 . S
C6741 C1414 0.653 . S
C6760 C2242 0.773 . S
C6777 C1498 0.666 . S
C6796 C2074 0.699 . S
C6813 C1582 0.752 . S
C6832 C2998 0.580 . S
C6849 C1666 0.752 . S
C6868 C2830 0.582 . S
C6885 C2914 0.633 . S
C6904 C1750 0.820 . S
