# Generated by pormake.
# Topology umb, (4)-cn, num edge types: 1
# Building blocks:
#     Node 0, Type 0, BuildingBlock: KOZSID_clean_sbu_0, # of connection points: 4
#     Node 1, Type 0, BuildingBlock: KOZSID_clean_sbu_0, # of connection points: 4
#     Node 2, Type 0, BuildingBlock: KOZSID_clean_sbu_0, # of connection points: 4
#     Node 3, Type 0, BuildingBlock: KOZSID_clean_sbu_0, # of connection points: 4
#     Node 4, Type 0, BuildingBlock: KOZSID_clean_sbu_0, # of connection points: 4
#     Node 5, Type 0, BuildingBlock: KOZSID_clean_sbu_0, # of connection points: 4
#     Node 6, Type 0, BuildingBlock: KOZSID_clean_sbu_0, # of connection points: 4
#     Node 7, Type 0, BuildingBlock: KOZSID_clean_sbu_0, # of connection points: 4
#     Node 8, Type 0, BuildingBlock: KOZSID_clean_sbu_0, # of connection points: 4
#     Node 9, Type 0, BuildingBlock: KOZSID_clean_sbu_0, # of connection points: 4
#     Node 10, Type 0, BuildingBlock: KOZSID_clean_sbu_0, # of connection points: 4
#     Node 11, Type 0, BuildingBlock: KOZSID_clean_sbu_0, # of connection points: 4
#     Edge 12, Type (0, 0), BuildingBlock: EZIPEK_clean_linker_0, # of connection points: 2
#     Edge 13, Type (0, 0), BuildingBlock: EZIPEK_clean_linker_0, # of connection points: 2
#     Edge 14, Type (0, 0), BuildingBlock: EZIPEK_clean_linker_0, # of connection points: 2
#     Edge 15, Type (0, 0), BuildingBlock: EZIPEK_clean_linker_0, # of connection points: 2
#     Edge 16, Type (0, 0), BuildingBlock: EZIPEK_clean_linker_0, # of connection points: 2
#     Edge 17, Type (0, 0), BuildingBlock: EZIPEK_clean_linker_0, # of connection points: 2
#     Edge 18, Type (0, 0), BuildingBlock: EZIPEK_clean_linker_0, # of connection points: 2
#     Edge 19, Type (0, 0), BuildingBlock: EZIPEK_clean_linker_0, # of connection points: 2
#     Edge 20, Type (0, 0), BuildingBlock: EZIPEK_clean_linker_0, # of connection points: 2
#     Edge 21, Type (0, 0), BuildingBlock: EZIPEK_clean_linker_0, # of connection points: 2
#     Edge 22, Type (0, 0), BuildingBlock: EZIPEK_clean_linker_0, # of connection points: 2
#     Edge 23, Type (0, 0), BuildingBlock: EZIPEK_clean_linker_0, # of connection points: 2
#     Edge 24, Type (0, 0), BuildingBlock: EZIPEK_clean_linker_0, # of connection points: 2
#     Edge 25, Type (0, 0), BuildingBlock: EZIPEK_clean_linker_0, # of connection points: 2
#     Edge 26, Type (0, 0), BuildingBlock: EZIPEK_clean_linker_0, # of connection points: 2
#     Edge 27, Type (0, 0), BuildingBlock: EZIPEK_clean_linker_0, # of connection points: 2
#     Edge 28, Type (0, 0), BuildingBlock: EZIPEK_clean_linker_0, # of connection points: 2
#     Edge 29, Type (0, 0), BuildingBlock: EZIPEK_clean_linker_0, # of connection points: 2
#     Edge 30, Type (0, 0), BuildingBlock: EZIPEK_clean_linker_0, # of connection points: 2
#     Edge 31, Type (0, 0), BuildingBlock: EZIPEK_clean_linker_0, # of connection points: 2
#     Edge 32, Type (0, 0), BuildingBlock: EZIPEK_clean_linker_0, # of connection points: 2
#     Edge 33, Type (0, 0), BuildingBlock: EZIPEK_clean_linker_0, # of connection points: 2
#     Edge 34, Type (0, 0), BuildingBlock: EZIPEK_clean_linker_0, # of connection points: 2
#     Edge 35, Type (0, 0), BuildingBlock: EZIPEK_clean_linker_0, # of connection points: 2
# Relax obj value: 0.223
# Max RMSD: 0.237
# Mean RMSD: 0.236
data_MOF--net-umb--node1-KOZSID_clean_sbu_0--edge1-EZIPEK_clean_linker_0
_symmetry_space_group_name_H-M    P1
_symmetry_Int_Tables_number       1
_symmetry_cell_setting            triclinic
loop_
_symmetry_equiv_pos_as_xyz
'x, y, z'
_cell_length_a     48.77445
_cell_length_b     48.922404
_cell_length_c     31.608569
_cell_angle_alpha  90.032557
_cell_angle_beta   89.950336
_cell_angle_gamma 120.18974
loop_
_atom_site_label
_atom_site_type_symbol
_atom_site_fract_x
_atom_site_fract_y
_atom_site_fract_z
_atom_type_partial_charge
C0 C 0.57479 0.22158 0.22582 0.0
C1 C 0.59828 0.23029 0.19546 0.0
C2 C 0.61542 0.21591 0.20628 0.0
C3 C 0.60202 0.19948 0.24306 0.0
N4 N 0.57726 0.20246 0.25553 0.0
Co5 Co 0.55669 0.1904 0.31216 0.0
N6 N 0.5916 0.18681 0.33799 0.0
C7 C 0.6131 0.18294 0.31612 0.0
C8 C 0.63407 0.18015 0.34233 0.0
C9 C 0.62489 0.18216 0.38292 0.0
C10 C 0.5988 0.18619 0.37936 0.0
N11 N 0.53624 0.18133 0.36867 0.0
C12 C 0.54859 0.18271 0.40757 0.0
C13 C 0.52566 0.17461 0.4387 0.0
C14 C 0.49799 0.16749 0.41837 0.0
C15 C 0.50551 0.17176 0.3761 0.0
N16 N 0.5213 0.1932 0.28567 0.0
C17 C 0.49153 0.17988 0.30075 0.0
C18 C 0.47225 0.18625 0.27594 0.0
C19 C 0.49124 0.20514 0.24373 0.0
C20 C 0.52119 0.20942 0.25079 0.0
N21 N 0.53593 0.14326 0.29933 0.0
C22 C 0.52333 0.07922 0.28886 0.0
C23 C 0.51698 0.08986 0.32683 0.0
C24 C 0.52433 0.12148 0.33182 0.0
C25 C 0.53397 0.10113 0.25511 0.0
C26 C 0.53874 0.13213 0.26048 0.0
N27 N 0.57918 0.23587 0.3257 0.0
C28 C 0.58167 0.28436 0.34802 0.0
C29 C 0.61396 0.30167 0.33694 0.0
C30 C 0.62855 0.28529 0.32248 0.0
C31 C 0.61103 0.2528 0.3174 0.0
C32 C 0.56469 0.25117 0.34257 0.0
H33 H 0.62359 0.24166 0.30567 0.0
H34 H 0.53971 0.23813 0.35016 0.0
H35 H 0.52175 0.1278 0.36337 0.0
H36 H 0.546 0.14722 0.23306 0.0
C37 C 0.61658 0.18868 0.27203 0.0
C38 C 0.54947 0.2305 0.22536 0.0
C39 C 0.58059 0.18798 0.41562 0.0
C40 C 0.48547 0.16996 0.34305 0.0
H41 H 0.60308 0.24597 0.16886 0.0
H42 H 0.63677 0.21928 0.191 0.0
H43 H 0.65449 0.17837 0.33313 0.0
H44 H 0.63614 0.18095 0.41179 0.0
H45 H 0.52841 0.17321 0.47246 0.0
H46 H 0.47525 0.16049 0.43277 0.0
H47 H 0.44807 0.18026 0.28247 0.0
H48 H 0.4843 0.2158 0.2191 0.0
H49 H 0.50803 0.07419 0.3539 0.0
H50 H 0.53904 0.09458 0.22462 0.0
H51 H 0.56965 0.29634 0.35985 0.0
H52 H 0.65356 0.29772 0.31445 0.0
C53 C 0.36708 0.56675 0.56245 0.0
C54 C 0.38258 0.58951 0.5315 0.0
C55 C 0.41419 0.60614 0.54271 0.0
C56 C 0.41649 0.59297 0.58009 0.0
N57 N 0.38824 0.56885 0.59255 0.0
Co58 Co 0.37914 0.54763 0.64871 0.0
N59 N 0.41801 0.58194 0.67494 0.0
C60 C 0.44365 0.60345 0.65337 0.0
C61 C 0.46771 0.6238 0.67981 0.0
C62 C 0.45645 0.61421 0.72027 0.0
C63 C 0.42601 0.58851 0.71639 0.0
N64 N 0.36759 0.52657 0.70476 0.0
C65 C 0.3786 0.53845 0.74389 0.0
C66 C 0.36331 0.51533 0.77458 0.0
C67 C 0.34251 0.48802 0.75372 0.0
C68 C 0.34604 0.49592 0.71159 0.0
N69 N 0.34046 0.5131 0.62179 0.0
C70 C 0.32328 0.48334 0.63633 0.0
C71 C 0.29705 0.46501 0.61172 0.0
C72 C 0.29756 0.48465 0.58026 0.0
C73 C 0.32406 0.51401 0.58752 0.0
N74 N 0.40492 0.5266 0.63479 0.0
C75 C 0.45565 0.51328 0.62239 0.0
C76 C 0.43953 0.50758 0.66103 0.0
C77 C 0.41562 0.51531 0.66694 0.0
C78 C 0.44379 0.52354 0.58899 0.0
C79 C 0.41783 0.52866 0.59535 0.0
N80 N 0.35639 0.56998 0.66351 0.0
C81 C 0.3124 0.573 0.69368 0.0
C82 C 0.32711 0.60516 0.68294 0.0
C83 C 0.35665 0.61924 0.66331 0.0
C84 C 0.37093 0.60156 0.65452 0.0
C85 C 0.32752 0.55569 0.6835 0.0
H86 H 0.39404 0.61387 0.64044 0.0
H87 H 0.31577 0.53084 0.69115 0.0
H88 H 0.40749 0.51335 0.69884 0.0
H89 H 0.4094 0.5356 0.56825 0.0
C90 C 0.44179 0.60715 0.60929 0.0
C91 C 0.33251 0.54261 0.5623 0.0
C92 C 0.40584 0.57012 0.75243 0.0
C93 C 0.32723 0.47658 0.67828 0.0
H94 H 0.3721 0.59409 0.50423 0.0
H95 H 0.43275 0.62694 0.52713 0.0
H96 H 0.49024 0.64399 0.67087 0.0
H97 H 0.46911 0.62491 0.74928 0.0
H98 H 0.36732 0.51772 0.80838 0.0
H99 H 0.32631 0.46532 0.76774 0.0
H100 H 0.27827 0.44105 0.61795 0.0
H101 H 0.27982 0.4785 0.5559 0.0
H102 H 0.44678 0.49895 0.68787 0.0
H103 H 0.45476 0.52807 0.55805 0.0
H104 H 0.28962 0.56147 0.70949 0.0
H105 H 0.369 0.64418 0.65533 0.0
C106 C 0.80404 0.36218 0.89049 0.0
C107 C 0.79422 0.37515 0.85912 0.0
C108 C 0.79938 0.40362 0.87404 0.0
C109 C 0.81277 0.40698 0.91325 0.0
N110 N 0.8177 0.38303 0.92355 0.0
Co111 Co 0.83446 0.37816 0.97942 0.0
N112 N 0.83793 0.41768 1.00418 0.0
C113 C 0.83051 0.4374 0.98401 0.0
C114 C 0.83367 0.46176 0.0091 0.0
C115 C 0.84306 0.45686 0.04787 0.0
C116 C 0.84512 0.42972 0.0443 0.0
N117 N 0.84945 0.37164 0.03558 0.0
C118 C 0.8545 0.38712 0.07304 0.0
C119 C 0.86425 0.37394 0.10427 0.0
C120 C 0.8653 0.34924 0.08601 0.0
C121 C 0.8561 0.34877 0.04495 0.0
N122 N 0.83208 0.33907 0.95375 0.0
C123 C 0.84179 0.32079 0.97325 0.0
C124 C 0.83203 0.29247 0.95381 0.0
C125 C 0.81417 0.29192 0.92055 0.0
C126 C 0.81516 0.32088 0.91965 0.0
N127 N 0.88036 0.40577 0.96046 0.0
C128 C 0.94632 0.45451 0.95462 0.0
C129 C 0.9369 0.42328 0.96731 0.0
C130 C 0.90423 0.39978 0.97088 0.0
C131 C 0.92165 0.45944 0.94173 0.0
C132 C 0.88978 0.43488 0.94288 0.0
N133 N 0.78905 0.35283 0.99891 0.0
C134 C 0.73686 0.30738 0.98666 0.0
C135 C 0.72265 0.32504 0.99785 0.0
C136 C 0.74152 0.3545 0.01618 0.0
C137 C 0.77429 0.36787 0.01636 0.0
C138 C 0.76999 0.32128 0.98947 0.0
H139 H 0.78666 0.39093 0.0297 0.0
H140 H 0.77952 0.30623 0.983 0.0
H141 H 0.89882 0.37716 0.98297 0.0
H142 H 0.87301 0.44063 0.9307 0.0
C143 C 0.81841 0.43075 0.94269 0.0
C144 C 0.79659 0.32862 0.88933 0.0
C145 C 0.8501 0.41407 0.08083 0.0
C146 C 0.85219 0.3265 0.0149 0.0
H147 H 0.78266 0.36422 0.82965 0.0
H148 H 0.79266 0.41924 0.85895 0.0
H149 H 0.82847 0.48013 1.00076 0.0
H150 H 0.84658 0.47078 0.0761 0.0
H151 H 0.86984 0.3813 0.13694 0.0
H152 H 0.87152 0.33322 0.10104 0.0
H153 H 0.83415 0.27283 0.96554 0.0
H154 H 0.79977 0.27085 0.9024 0.0
H155 H 0.95467 0.41727 0.97616 0.0
H156 H 0.92683 0.48254 0.9308 0.0
H157 H 0.72268 0.2835 0.97472 0.0
H158 H 0.73114 0.36823 0.02747 0.0
C159 C 0.44489 0.79853 0.22889 0.0
C160 C 0.4188 0.78518 0.20227 0.0
C161 C 0.39929 0.7963 0.21514 0.0
C162 C 0.41421 0.81564 0.24919 0.0
N163 N 0.44259 0.81833 0.25782 0.0
Co164 Co 0.46749 0.83617 0.31134 0.0
N165 N 0.43354 0.84116 0.33925 0.0
C166 C 0.40794 0.83907 0.31971 0.0
C167 C 0.38829 0.84296 0.34716 0.0
C168 C 0.40225 0.84763 0.38627 0.0
C169 C 0.42967 0.84618 0.38064 0.0
N170 N 0.49193 0.85098 0.36536 0.0
C171 C 0.48247 0.85397 0.40466 0.0
C172 C 0.50655 0.86248 0.43408 0.0
C173 C 0.53199 0.86484 0.41258 0.0
C174 C 0.52199 0.85741 0.37148 0.0
N175 N 0.5018 0.83176 0.28282 0.0
C176 C 0.53186 0.84399 0.29662 0.0
C177 C 0.5499 0.8363 0.27132 0.0
C178 C 0.52982 0.81721 0.24031 0.0
C179 C 0.50048 0.8141 0.24864 0.0
N180 N 0.48653 0.88202 0.29119 0.0
C181 C 0.50315 0.94765 0.28421 0.0
C182 C 0.52396 0.93865 0.3019 0.0
C183 C 0.51513 0.90628 0.30573 0.0
C184 C 0.47527 0.92291 0.26658 0.0
C185 C 0.46844 0.89122 0.2685 0.0
N186 N 0.4472 0.79194 0.33188 0.0
C187 C 0.44842 0.7442 0.34796 0.0
C188 C 0.41539 0.72609 0.34273 0.0
C189 C 0.39862 0.74177 0.33691 0.0
C190 C 0.41473 0.77425 0.33176 0.0
C191 C 0.46393 0.7774 0.34284 0.0
H192 H 0.40017 0.78418 0.32537 0.0
H193 H 0.48944 0.79081 0.34501 0.0
H194 H 0.53173 0.90165 0.32137 0.0
H195 H 0.44779 0.87457 0.25197 0.0
C196 C 0.39986 0.82653 0.27839 0.0
C197 C 0.47128 0.79148 0.22626 0.0
C198 C 0.45104 0.84897 0.41541 0.0
C199 C 0.53954 0.8548 0.33827 0.0
H200 H 0.4138 0.76824 0.1772 0.0
H201 H 0.37586 0.78914 0.20311 0.0
H202 H 0.36552 0.84069 0.34015 0.0
H203 H 0.3929 0.85081 0.41576 0.0
H204 H 0.50577 0.86631 0.46767 0.0
H205 H 0.55478 0.8705 0.42558 0.0
H206 H 0.5739 0.84141 0.277 0.0
H207 H 0.5355 0.80518 0.21611 0.0
H208 H 0.54662 0.95653 0.31449 0.0
H209 H 0.45841 0.92787 0.25122 0.0
H210 H 0.46218 0.73277 0.35356 0.0
H211 H 0.37299 0.7287 0.33396 0.0
C212 C 0.65883 0.43493 0.56281 0.0
C213 C 0.64718 0.40893 0.53621 0.0
C214 C 0.61626 0.38897 0.54776 0.0
C215 C 0.6106 0.40345 0.58116 0.0
N216 N 0.63583 0.43201 0.59068 0.0
Co217 Co 0.64139 0.45621 0.64441 0.0
N218 N 0.60177 0.42157 0.67057 0.0
C219 C 0.57899 0.39586 0.65022 0.0
C220 C 0.55486 0.37566 0.67664 0.0
C221 C 0.56301 0.3893 0.71601 0.0
C222 C 0.59181 0.41708 0.71149 0.0
N223 N 0.64936 0.47991 0.69877 0.0
C224 C 0.63577 0.46981 0.73741 0.0
C225 C 0.65021 0.49348 0.76757 0.0
C226 C 0.6739 0.51927 0.74729 0.0
C227 C 0.67271 0.50989 0.7061 0.0
N228 N 0.6807 0.49116 0.61753 0.0
C229 C 0.69827 0.52089 0.63245 0.0
C230 C 0.72447 0.53951 0.60805 0.0
C231 C 0.7241 0.52017 0.57648 0.0
C232 C 0.69777 0.49064 0.58364 0.0
N233 N 0.61468 0.47488 0.62313 0.0
C234 C 0.56613 0.49194 0.61563 0.0
C235 C 0.59651 0.51307 0.63177 0.0
C236 C 0.61984 0.50403 0.63586 0.0
C237 C 0.56216 0.46345 0.59946 0.0
C238 C 0.58682 0.45633 0.6016 0.0
N239 N 0.66554 0.43657 0.66616 0.0
C240 C 0.71506 0.43882 0.68276 0.0
C241 C 0.70034 0.40589 0.67849 0.0
C242 C 0.66771 0.38867 0.67307 0.0
C243 C 0.65097 0.40424 0.66688 0.0
C244 C 0.69694 0.45375 0.67715 0.0
H245 H 0.62647 0.38935 0.66019 0.0
H246 H 0.70887 0.47917 0.67895 0.0
H247 H 0.64159 0.52093 0.65029 0.0
H248 H 0.58225 0.43511 0.58633 0.0
C249 C 0.58474 0.38833 0.60933 0.0
C250 C 0.69208 0.46194 0.56091 0.0
C251 C 0.60948 0.43805 0.74691 0.0
C252 C 0.69405 0.52787 0.67405 0.0
H253 H 0.66004 0.40434 0.51198 0.0
H254 H 0.60061 0.36549 0.53544 0.0
H255 H 0.5348 0.35276 0.66885 0.0
H256 H 0.54985 0.37946 0.74499 0.0
H257 H 0.64447 0.49212 0.80087 0.0
H258 H 0.69055 0.54187 0.76118 0.0
H259 H 0.74321 0.56342 0.61463 0.0
H260 H 0.74235 0.52641 0.5528 0.0
H261 H 0.60185 0.53614 0.64308 0.0
H262 H 0.53982 0.44635 0.58522 0.0
H263 H 0.7404 0.45293 0.68782 0.0
H264 H 0.65538 0.36309 0.67058 0.0
C265 C 0.21471 0.6602 0.89444 0.0
C266 C 0.21666 0.64513 0.85831 0.0
C267 C 0.20266 0.61335 0.86789 0.0
C268 C 0.19242 0.61045 0.90911 0.0
N269 N 0.1986 0.63836 0.92538 0.0
Co270 Co 0.18904 0.6451 0.98405 0.0
N271 N 0.18601 0.6057 0.00533 0.0
C272 C 0.18085 0.58105 0.98083 0.0
C273 C 0.17902 0.55646 1.00417 0.0
C274 C 0.18303 0.56633 0.04573 0.0
C275 C 0.18714 0.59651 0.04558 0.0
N276 N 0.18155 0.65389 0.04285 0.0
C277 C 0.18397 0.64146 0.08005 0.0
C278 C 0.17597 0.65434 0.11376 0.0
C279 C 0.16786 0.67511 0.09682 0.0
C280 C 0.17139 0.67383 0.0539 0.0
N281 N 0.19244 0.68477 0.96207 0.0
C282 C 0.18204 0.7021 0.98244 0.0
C283 C 0.19638 0.7326 0.96789 0.0
C284 C 0.21735 0.73476 0.93751 0.0
C285 C 0.21345 0.70478 0.93243 0.0
N286 N 0.14153 0.6192 0.97353 0.0
C287 C 0.07757 0.56731 0.9622 0.0
C288 C 0.08948 0.58069 1.00203 0.0
C289 C 0.12113 0.60519 0.00714 0.0
C290 C 0.09804 0.5826 0.92762 0.0
C291 C 0.12896 0.6091 0.93377 0.0
N292 N 0.2348 0.66808 0.99496 0.0
C293 C 0.28333 0.71468 0.01624 0.0
C294 C 0.30078 0.70053 1.0033 0.0
C295 C 0.28465 0.66985 0.98721 0.0
C296 C 0.2519 0.65415 0.98325 0.0
C297 C 0.25014 0.69778 0.01229 0.0
H298 H 0.24053 0.63084 0.96971 0.0
H299 H 0.23696 0.70888 0.02255 0.0
H300 H 0.12885 0.61104 0.03925 0.0
H301 H 0.14303 0.6202 0.90599 0.0
C302 C 0.18328 0.58429 0.93626 0.0
C303 C 0.22929 0.69531 0.89933 0.0
C304 C 0.1899 0.61495 0.08409 0.0
C305 C 0.1708 0.69452 0.02402 0.0
H306 H 0.22818 0.65611 0.82879 0.0
H307 H 0.20202 0.59501 0.84804 0.0
H308 H 0.17623 0.53443 0.99239 0.0
H309 H 0.18274 0.55283 0.07301 0.0
H310 H 0.17544 0.64886 0.14702 0.0
H311 H 0.16118 0.69006 0.11389 0.0
H312 H 0.19546 0.75225 0.98215 0.0
H313 H 0.23496 0.75681 0.92372 0.0
H314 H 0.07492 0.57084 0.03001 0.0
H315 H 0.09047 0.57393 0.89578 0.0
H316 H 0.29518 0.73831 0.02941 0.0
H317 H 0.29744 0.65812 0.97732 0.0
C318 C 0.80023 0.43705 0.44709 0.0
C319 C 0.78567 0.41013 0.47204 0.0
C320 C 0.79663 0.3907 0.4585 0.0
C321 C 0.81695 0.40639 0.42556 0.0
N322 N 0.82039 0.43517 0.41826 0.0
Co323 Co 0.83868 0.46094 0.36552 0.0
N324 N 0.84301 0.4272 0.33604 0.0
C325 C 0.8403 0.40104 0.35445 0.0
C326 C 0.84404 0.38181 0.32618 0.0
C327 C 0.84927 0.39663 0.28768 0.0
C328 C 0.84828 0.4241 0.29449 0.0
N329 N 0.85391 0.48628 0.31226 0.0
C330 C 0.85685 0.47745 0.27251 0.0
C331 C 0.8656 0.502 0.24391 0.0
C332 C 0.86818 0.52708 0.26638 0.0
C333 C 0.86063 0.51643 0.30722 0.0
N334 N 0.83506 0.49503 0.39568 0.0
C335 C 0.84771 0.52528 0.38291 0.0
C336 C 0.84087 0.54322 0.40962 0.0
C337 C 0.82186 0.52286 0.44048 0.0
C338 C 0.81787 0.49347 0.43057 0.0
N339 N 0.88453 0.47893 0.38548 0.0
C340 C 0.95029 0.49542 0.39215 0.0
C341 C 0.94135 0.51676 0.37644 0.0
C342 C 0.90892 0.50801 0.37271 0.0
C343 C 0.92539 0.46688 0.40802 0.0
C344 C 0.89358 0.46002 0.40628 0.0
N345 N 0.79435 0.44181 0.34514 0.0
C346 C 0.7469 0.44436 0.33104 0.0
C347 C 0.72831 0.41134 0.33464 0.0
C348 C 0.74356 0.39404 0.33901 0.0
C349 C 0.77615 0.40948 0.34393 0.0
C350 C 0.78018 0.45918 0.33586 0.0
H351 H 0.78574 0.39449 0.34901 0.0
H352 H 0.79399 0.48463 0.33465 0.0
H353 H 0.90436 0.52509 0.35856 0.0
H354 H 0.87672 0.43873 0.42136 0.0
C355 C 0.82748 0.39228 0.39554 0.0
C356 C 0.79421 0.464 0.45137 0.0
C357 C 0.85162 0.44622 0.2606 0.0
C358 C 0.8583 0.53353 0.34122 0.0
H359 H 0.76806 0.40458 0.49643 0.0
H360 H 0.7886 0.36682 0.46911 0.0
H361 H 0.84133 0.35881 0.33226 0.0
H362 H 0.8525 0.38781 0.25778 0.0
H363 H 0.86947 0.50176 0.21023 0.0
H364 H 0.8741 0.55008 0.25419 0.0
H365 H 0.84643 0.5674 0.40501 0.0
H366 H 0.81021 0.52838 0.46544 0.0
H367 H 0.95935 0.53984 0.36529 0.0
H368 H 0.93032 0.44955 0.42181 0.0
H369 H 0.7358 0.45854 0.32661 0.0
H370 H 0.73007 0.36843 0.34074 0.0
C371 C 0.36623 0.80098 0.78547 0.0
C372 C 0.37938 0.79135 0.81686 0.0
C373 C 0.40807 0.79682 0.80197 0.0
C374 C 0.41136 0.81016 0.76276 0.0
N375 N 0.38716 0.81479 0.75244 0.0
Co376 Co 0.38209 0.83131 0.6965 0.0
N377 N 0.4219 0.83515 0.67175 0.0
C378 C 0.4419 0.82809 0.69199 0.0
C379 C 0.46643 0.83146 0.6669 0.0
C380 C 0.46136 0.84061 0.62807 0.0
C381 C 0.43394 0.84233 0.63159 0.0
N382 N 0.37534 0.846 0.64027 0.0
C383 C 0.39086 0.8511 0.60278 0.0
C384 C 0.37745 0.86059 0.57152 0.0
C385 C 0.35257 0.86143 0.58978 0.0
C386 C 0.35222 0.85237 0.63088 0.0
N387 N 0.3427 0.82857 0.72215 0.0
C388 C 0.32422 0.83804 0.70262 0.0
C389 C 0.29577 0.82811 0.72206 0.0
C390 C 0.29535 0.81038 0.75533 0.0
C391 C 0.32452 0.81162 0.75626 0.0
N392 N 0.40948 0.87716 0.71531 0.0
C393 C 0.45809 0.94307 0.72097 0.0
C394 C 0.42677 0.93346 0.70801 0.0
C395 C 0.40334 0.90082 0.70455 0.0
C396 C 0.46316 0.91862 0.73421 0.0
C397 C 0.43865 0.88677 0.73313 0.0
N398 N 0.35704 0.78596 0.67719 0.0
C399 C 0.31182 0.73372 0.68971 0.0
C400 C 0.3298 0.71981 0.67863 0.0
C401 C 0.35931 0.73882 0.66028 0.0
C402 C 0.37239 0.77147 0.65988 0.0
C403 C 0.32545 0.76672 0.6867 0.0
H404 H 0.39551 0.78396 0.6465 0.0
H405 H 0.31016 0.77601 0.69307 0.0
H406 H 0.38066 0.89526 0.69226 0.0
H407 H 0.44451 0.87019 0.74556 0.0
C408 C 0.4353 0.81604 0.73334 0.0
C409 C 0.33247 0.79325 0.7866 0.0
C410 C 0.41808 0.84701 0.59501 0.0
C411 C 0.32985 0.84836 0.66095 0.0
H412 H 0.36845 0.77974 0.8463 0.0
H413 H 0.42388 0.7903 0.81707 0.0
H414 H 0.48503 0.82654 0.6753 0.0
H415 H 0.47535 0.8442 0.59984 0.0
H416 H 0.38478 0.86614 0.53883 0.0
H417 H 0.33635 0.86742 0.57474 0.0
H418 H 0.27596 0.83003 0.7103 0.0
H419 H 0.27423 0.79588 0.77346 0.0
H420 H 0.42063 0.95104 0.69888 0.0
H421 H 0.48632 0.92395 0.74536 0.0
H422 H 0.28788 0.71942 0.70166 0.0
H423 H 0.37328 0.72868 0.64906 0.0
C424 C 0.57248 0.36406 0.11432 0.0
C425 C 0.59579 0.37913 0.14478 0.0
C426 C 0.6129 0.41062 0.13351 0.0
C427 C 0.59944 0.41326 0.09658 0.0
N428 N 0.57464 0.38537 0.0845 0.0
Co429 Co 0.55287 0.37659 0.02871 0.0
N430 N 0.58757 0.41492 1.00201 0.0
C431 C 0.60977 0.44028 0.02327 0.0
C432 C 0.63038 0.46391 0.99653 0.0
C433 C 0.62025 0.45267 0.95622 0.0
C434 C 0.59398 0.42267 0.96049 0.0
N435 N 0.53122 0.36525 0.973 0.0
C436 C 0.54281 0.37623 0.93376 0.0
C437 C 0.51924 0.36141 0.90345 0.0
C438 C 0.49196 0.34083 0.92468 0.0
C439 C 0.50033 0.34407 0.96664 0.0
N440 N 0.51803 0.33842 0.05616 0.0
C441 C 0.48801 0.32164 0.04208 0.0
C442 C 0.46958 0.29557 0.06684 0.0
C443 C 0.48942 0.29573 0.09782 0.0
C444 C 0.51899 0.32187 0.09017 0.0
N445 N 0.53268 0.40319 0.04301 0.0
C446 C 0.5204 0.45464 0.05471 0.0
C447 C 0.51299 0.4373 0.01697 0.0
C448 C 0.52024 0.41308 0.01129 0.0
C449 C 0.53186 0.44368 0.08778 0.0
C450 C 0.5364 0.41737 0.0819 0.0
N451 N 0.57433 0.35305 0.0134 0.0
C452 C 0.57594 0.30845 0.98314 0.0
C453 C 0.60819 0.32244 0.99357 0.0
C454 C 0.62304 0.35197 0.013 0.0
C455 C 0.60603 0.36693 0.02194 0.0
C456 C 0.5593 0.32423 0.99354 0.0
H457 H 0.61894 0.39 0.0358 0.0
H458 H 0.53435 0.31299 0.9862 0.0
H459 H 0.51685 0.40403 0.97977 0.0
H460 H 0.54417 0.40966 0.10888 0.0
C461 C 0.61385 0.43838 0.06723 0.0
C462 C 0.54789 0.32972 0.11457 0.0
C463 C 0.57482 0.40277 0.92476 0.0
C464 C 0.48104 0.3256 1.00024 0.0
H465 H 0.60045 0.36842 0.17169 0.0
H466 H 0.6342 0.42881 0.14866 0.0
H467 H 0.65109 0.48611 0.00517 0.0
H468 H 0.63095 0.46506 0.92705 0.0
H469 H 0.52136 0.36551 0.86966 0.0
H470 H 0.46895 0.32502 0.91102 0.0
H471 H 0.44541 0.27706 0.06091 0.0
H472 H 0.48327 0.27794 0.12204 0.0
H473 H 0.50332 0.44375 0.99048 0.0
H474 H 0.53773 0.45558 0.1181 0.0
H475 H 0.56383 0.28572 0.96743 0.0
H476 H 0.6481 0.3638 0.02067 0.0
C477 C 0.22457 0.56903 0.44962 0.0
C478 C 0.2324 0.59181 0.48067 0.0
C479 C 0.21766 0.60864 0.46999 0.0
C480 C 0.2019 0.59575 0.43264 0.0
N481 N 0.20567 0.57165 0.41965 0.0
Co482 Co 0.19435 0.55182 0.36259 0.0
N483 N 0.19033 0.58659 0.3374 0.0
C484 C 0.18582 0.60746 0.35967 0.0
C485 C 0.18281 0.62844 0.33387 0.0
C486 C 0.18535 0.61993 0.29311 0.0
C487 C 0.18988 0.5942 0.29617 0.0
N488 N 0.18589 0.53214 0.30565 0.0
C489 C 0.18733 0.54482 0.26697 0.0
C490 C 0.17961 0.52234 0.23542 0.0
C491 C 0.17266 0.49462 0.25522 0.0
C492 C 0.17663 0.50166 0.29763 0.0
N493 N 0.19759 0.51658 0.38837 0.0
C494 C 0.18476 0.48713 0.37264 0.0
C495 C 0.19134 0.46787 0.39706 0.0
C496 C 0.20984 0.48654 0.42974 0.0
C497 C 0.21368 0.51629 0.42334 0.0
N498 N 0.14704 0.53037 0.37494 0.0
C499 C 0.08256 0.51676 0.38591 0.0
C500 C 0.09365 0.51188 0.34728 0.0
C501 C 0.1255 0.51972 0.34212 0.0
C502 C 0.10425 0.5264 0.41991 0.0
C503 C 0.1355 0.53169 0.41421 0.0
N504 N 0.24005 0.57496 0.34968 0.0
C505 C 0.28919 0.57859 0.32727 0.0
C506 C 0.30606 0.61065 0.33906 0.0
C507 C 0.28916 0.62454 0.3541 0.0
C508 C 0.25657 0.60659 0.35885 0.0
C509 C 0.25589 0.56113 0.33248 0.0
H510 H 0.24499 0.61863 0.37094 0.0
H511 H 0.24318 0.53633 0.3243 0.0
H512 H 0.13224 0.51839 0.3103 0.0
H513 H 0.15048 0.53818 0.44174 0.0
C514 C 0.19103 0.61034 0.40387 0.0
C515 C 0.23404 0.54419 0.44968 0.0
C516 C 0.19214 0.57661 0.25953 0.0
C517 C 0.17499 0.48145 0.33026 0.0
H518 H 0.2477 0.59635 0.50768 0.0
H519 H 0.22035 0.62946 0.48586 0.0
H520 H 0.1805 0.64843 0.34347 0.0
H521 H 0.18409 0.63136 0.26446 0.0
H522 H 0.17832 0.52541 0.20172 0.0
H523 H 0.16597 0.47218 0.24038 0.0
H524 H 0.18573 0.44395 0.39005 0.0
H525 H 0.22047 0.47952 0.45434 0.0
H526 H 0.07816 0.50376 0.31995 0.0
H527 H 0.09734 0.53032 0.45086 0.0
H528 H 0.30159 0.56712 0.31497 0.0
H529 H 0.30124 0.64937 0.36268 0.0
C530 C 0.66349 0.21114 0.78122 0.0
C531 C 0.64829 0.21296 0.81734 0.0
C532 C 0.61643 0.19903 0.80766 0.0
C533 C 0.61363 0.18893 0.7664 0.0
N534 N 0.64166 0.19515 0.7502 0.0
Co535 Co 0.64854 0.18566 0.69156 0.0
N536 N 0.60903 0.18258 0.67018 0.0
C537 C 0.58426 0.17741 0.69463 0.0
C538 C 0.5596 0.17552 0.67122 0.0
C539 C 0.56953 0.17949 0.62968 0.0
C540 C 0.59983 0.18364 0.62991 0.0
N541 N 0.65748 0.17823 0.6328 0.0
C542 C 0.64503 0.18058 0.59557 0.0
C543 C 0.65804 0.17267 0.5619 0.0
C544 C 0.67891 0.16467 0.57891 0.0
C545 C 0.67755 0.16818 0.62181 0.0
N546 N 0.68835 0.18913 0.71363 0.0
C547 C 0.70582 0.17884 0.6933 0.0
C548 C 0.7364 0.19323 0.70788 0.0
C549 C 0.73847 0.2141 0.73824 0.0
C550 C 0.70834 0.21008 0.74328 0.0
N551 N 0.62261 0.13826 0.70209 0.0
C552 C 0.57074 0.07435 0.71334 0.0
C553 C 0.58424 0.08629 0.67355 0.0
C554 C 0.60872 0.1179 0.66848 0.0
C555 C 0.5859 0.09481 0.74793 0.0
C556 C 0.6124 0.12571 0.74183 0.0
N557 N 0.67156 0.23133 0.68062 0.0
C558 C 0.71829 0.27974 0.65926 0.0
C559 C 0.70411 0.29715 0.67219 0.0
C560 C 0.67333 0.28106 0.68829 0.0
C561 C 0.65758 0.24838 0.69229 0.0
C562 C 0.70136 0.24664 0.66325 0.0
H563 H 0.6342 0.23703 0.70584 0.0
H564 H 0.71251 0.23352 0.65303 0.0
H565 H 0.61464 0.1256 0.63637 0.0
H566 H 0.6234 0.13973 0.76963 0.0
C567 C 0.58743 0.17982 0.7392 0.0
C568 C 0.69872 0.22574 0.77642 0.0
C569 C 0.61837 0.18638 0.59145 0.0
C570 C 0.6983 0.16764 0.65173 0.0
H571 H 0.65923 0.22436 0.84692 0.0
H572 H 0.59798 0.1983 0.82749 0.0
H573 H 0.53746 0.17269 0.68295 0.0
H574 H 0.55601 0.17914 0.60236 0.0
H575 H 0.65259 0.17213 0.52862 0.0
H576 H 0.69398 0.15807 0.56189 0.0
H577 H 0.75617 0.1924 0.69365 0.0
H578 H 0.76055 0.23171 0.75204 0.0
H579 H 0.57451 0.07176 0.64557 0.0
H580 H 0.57713 0.08723 0.77975 0.0
H581 H 0.74202 0.29156 0.64614 0.0
H582 H 0.66158 0.29381 0.69823 0.0
C583 C 0.44294 0.65726 0.11415 0.0
C584 C 0.41794 0.64527 0.1426 0.0
C585 C 0.39801 0.61424 0.13171 0.0
C586 C 0.41163 0.60884 0.097 0.0
N587 N 0.43963 0.63432 0.08603 0.0
Co588 Co 0.46275 0.63953 0.03131 0.0
N589 N 0.42805 0.59928 0.00686 0.0
C590 C 0.40318 0.57645 0.0285 0.0
C591 C 0.38271 0.55174 1.00308 0.0
C592 C 0.3953 0.55956 0.96307 0.0
C593 C 0.42277 0.58876 0.96618 0.0
N594 N 0.48528 0.64716 0.97597 0.0
C595 C 0.47431 0.63328 0.93772 0.0
C596 C 0.4972 0.64782 0.9065 0.0
C597 C 0.52339 0.6718 0.92573 0.0
C598 C 0.51499 0.67071 0.96738 0.0
N599 N 0.4978 0.67958 0.05643 0.0
C600 C 0.52725 0.69723 0.04036 0.0
C601 C 0.5459 0.72416 0.06335 0.0
C602 C 0.52687 0.72414 0.09521 0.0
C603 C 0.4975 0.69721 0.08973 0.0
N604 N 0.48281 0.61395 0.05215 0.0
C605 C 0.50013 0.56566 0.05966 0.0
C606 C 0.52041 0.59522 0.04081 0.0
C607 C 0.51122 0.61842 0.03678 0.0
C608 C 0.47261 0.56255 0.07837 0.0
C609 C 0.46547 0.58714 0.07614 0.0
N610 N 0.44168 0.66236 0.01002 0.0
C611 C 0.44229 0.71059 0.9912 0.0
C612 C 0.40936 0.69549 0.99716 0.0
C613 C 0.39283 0.66312 1.0044 0.0
C614 C 0.40922 0.64724 0.01096 0.0
C615 C 0.45805 0.69332 0.99719 0.0
H616 H 0.39495 0.62299 0.01921 0.0
H617 H 0.4835 0.7056 0.99425 0.0
H618 H 0.52734 0.63945 0.02024 0.0
H619 H 0.44517 0.58331 0.09342 0.0
C620 C 0.39638 0.58249 0.0697 0.0
C621 C 0.46921 0.69083 0.11433 0.0
C622 C 0.44255 0.60633 0.92969 0.0
C623 C 0.53352 0.69244 0.99867 0.0
H624 H 0.41393 0.65796 0.16764 0.0
H625 H 0.37513 0.59824 0.14559 0.0
H626 H 0.36023 0.53146 0.01198 0.0
H627 H 0.38494 0.54592 0.9346 0.0
H628 H 0.49509 0.64193 0.8732 0.0
H629 H 0.54557 0.68859 0.91086 0.0
H630 H 0.56952 0.74308 0.0556 0.0
H631 H 0.53324 0.74279 0.1182 0.0
H632 H 0.54283 0.59998 0.0274 0.0
H633 H 0.45625 0.54094 0.09471 0.0
H634 H 0.45587 0.73571 0.98477 0.0
H635 H 0.36726 0.65046 0.00817 0.0
C636 C 0.60863 0.2167 0.48313 0.0
C637 C 0.59079 0.18778 0.46074 0.0
C638 C 0.58641 0.1582 0.52606 0.0
C639 C 0.60637 0.18708 0.54757 0.0
N640 N 0.63913 0.24377 0.54597 0.0
N641 N 0.56557 0.13097 0.45916 0.0
C642 C 0.61813 0.21634 0.5259 0.0
C643 C 0.58047 0.15851 0.48181 0.0
N644 N 0.6159 0.2445 0.46368 0.0
N645 N 0.57282 0.13042 0.5482 0.0
H646 H 0.56024 0.13019 0.42708 0.0
H647 H 0.56052 0.10911 0.47111 0.0
H648 H 0.57717 0.12919 0.58024 0.0
H649 H 0.5554 0.10888 0.53592 0.0
H650 H 0.62573 0.26614 0.47929 0.0
H651 H 0.61028 0.24571 0.43214 0.0
H652 H 0.65156 0.26557 0.53084 0.0
H653 H 0.64555 0.24448 0.57761 0.0
C654 C 0.43364 0.56844 0.81972 0.0
C655 C 0.4163 0.58024 0.79763 0.0
C656 C 0.41371 0.6066 0.86294 0.0
C657 C 0.43194 0.59572 0.88466 0.0
N658 N 0.46104 0.568 0.88396 0.0
N659 N 0.39304 0.61344 0.79606 0.0
C660 C 0.44229 0.57699 0.86306 0.0
C661 C 0.40723 0.60012 0.81873 0.0
N662 N 0.44138 0.5486 0.79921 0.0
N663 N 0.40211 0.6227 0.88495 0.0
H664 H 0.38733 0.60865 0.76408 0.0
H665 H 0.38881 0.63083 0.80784 0.0
H666 H 0.40707 0.62854 0.91687 0.0
H667 H 0.38598 0.6286 0.87271 0.0
H668 H 0.45076 0.53614 0.81397 0.0
H669 H 0.43719 0.54343 0.76704 0.0
H670 H 0.47252 0.55741 0.86956 0.0
H671 H 0.46641 0.57242 0.91607 0.0
C672 C 0.88 0.4505 0.19103 0.0
C673 C 0.8512 0.43787 0.21433 0.0
C674 C 0.82155 0.40964 0.15033 0.0
C675 C 0.85004 0.42436 0.12614 0.0
N676 N 0.90596 0.46188 0.12223 0.0
N677 N 0.79409 0.40934 0.2147 0.0
C678 C 0.87914 0.44581 0.1462 0.0
C679 C 0.82184 0.41857 0.19349 0.0
N680 N 0.90826 0.46623 0.21206 0.0
N681 N 0.79434 0.38615 0.13254 0.0
H682 H 0.7933 0.41482 0.24642 0.0
H683 H 0.77195 0.39837 0.2001 0.0
H684 H 0.79313 0.37908 0.10121 0.0
H685 H 0.77369 0.37196 0.14963 0.0
H686 H 0.93012 0.47326 0.19801 0.0
H687 H 0.90973 0.47012 0.24465 0.0
H688 H 0.92729 0.48019 0.13384 0.0
H689 H 0.90622 0.45855 0.08966 0.0
C690 C 0.45439 0.87712 0.48473 0.0
C691 C 0.44199 0.84843 0.46142 0.0
C692 C 0.41392 0.81869 0.52548 0.0
C693 C 0.42846 0.84709 0.54968 0.0
N694 N 0.46557 0.90296 0.55352 0.0
N695 N 0.41375 0.7915 0.46098 0.0
C696 C 0.44969 0.87619 0.52957 0.0
C697 C 0.42283 0.8191 0.48225 0.0
N698 N 0.47002 0.90531 0.46369 0.0
N699 N 0.39063 0.79142 0.54336 0.0
H700 H 0.41911 0.7908 0.42918 0.0
H701 H 0.40298 0.76942 0.47556 0.0
H702 H 0.38363 0.7901 0.57476 0.0
H703 H 0.37651 0.77079 0.52631 0.0
H704 H 0.47691 0.92707 0.47771 0.0
H705 H 0.47393 0.90679 0.43109 0.0
H706 H 0.48375 0.92435 0.5419 0.0
H707 H 0.46224 0.90317 0.58611 0.0
C708 C 0.60325 0.40233 0.8576 0.0
C709 C 0.58474 0.41281 0.87945 0.0
C710 C 0.57971 0.43694 0.81351 0.0
C711 C 0.59988 0.42819 0.79235 0.0
N712 N 0.63422 0.40614 0.79515 0.0
N713 N 0.55898 0.44383 0.88021 0.0
C714 C 0.61257 0.41185 0.8147 0.0
C715 C 0.57404 0.43123 0.85791 0.0
N716 N 0.61126 0.38258 0.87762 0.0
N717 N 0.56546 0.45017 0.79083 0.0
H718 H 0.55401 0.43976 0.91245 0.0
H719 H 0.55352 0.4602 0.86775 0.0
H720 H 0.56952 0.45516 0.75859 0.0
H721 H 0.54788 0.45407 0.80299 0.0
H722 H 0.62151 0.3711 0.86228 0.0
H723 H 0.60577 0.37599 0.90927 0.0
H724 H 0.64722 0.39766 0.81076 0.0
H725 H 0.64086 0.4119 0.76357 0.0
C726 C 0.2207 0.6052 0.19213 0.0
C727 C 0.19176 0.58708 0.21458 0.0
C728 C 0.16189 0.58285 0.14951 0.0
C729 C 0.19077 0.603 0.12795 0.0
N730 N 0.2476 0.63604 0.12943 0.0
N731 N 0.13476 0.56153 0.2164 0.0
C732 C 0.22018 0.61484 0.14949 0.0
C733 C 0.16233 0.5767 0.19367 0.0
N734 N 0.24869 0.61262 0.21141 0.0
N735 N 0.13398 0.56929 0.1275 0.0
H736 H 0.13407 0.55602 0.24839 0.0
H737 H 0.11276 0.5564 0.20464 0.0
H738 H 0.13263 0.5738 0.09557 0.0
H739 H 0.11245 0.55175 0.13977 0.0
H740 H 0.27039 0.62267 0.19573 0.0
H741 H 0.25002 0.60691 0.24287 0.0
H742 H 0.26947 0.6485 0.14449 0.0
H743 H 0.2482 0.64259 0.09787 0.0
C744 C 0.67883 0.38004 0.37674 0.0
C745 C 0.69297 0.39343 0.3371 0.0
C746 C 0.64494 0.35393 0.30074 0.0
C747 C 0.63399 0.33685 0.33932 0.0
N748 N 0.63734 0.33498 0.41497 0.0
N749 N 0.68857 0.39675 0.26195 0.0
C750 C 0.64945 0.35092 0.37788 0.0
C751 C 0.67522 0.38203 0.29934 0.0
N752 N 0.69467 0.39453 0.41301 0.0
N753 N 0.6268 0.34211 0.26525 0.0
H754 H 0.71029 0.41783 0.26069 0.0
H755 H 0.67872 0.3882 0.23233 0.0
H756 H 0.60532 0.3209 0.26575 0.0
H757 H 0.63177 0.35381 0.23635 0.0
H758 H 0.68533 0.3879 0.44332 0.0
H759 H 0.71704 0.41472 0.41232 0.0
H760 H 0.6488 0.34187 0.44404 0.0
H761 H 0.61549 0.31409 0.41654 0.0
C762 C 0.29793 0.6616 0.66151 0.0
C763 C 0.31979 0.68627 0.68832 0.0
C764 C 0.32957 0.64821 0.72607 0.0
C765 C 0.31411 0.62611 0.69343 0.0
N766 N 0.28045 0.60933 0.63244 0.0
N767 N 0.35887 0.70349 0.74448 0.0
C768 C 0.29661 0.63181 0.66243 0.0
C769 C 0.33579 0.67958 0.72086 0.0
N770 N 0.2795 0.66704 0.63421 0.0
N771 N 0.33968 0.63935 0.76094 0.0
H772 H 0.36516 0.7271 0.74112 0.0
H773 H 0.37359 0.70027 0.76523 0.0
H774 H 0.33539 0.6163 0.76454 0.0
H775 H 0.34907 0.65361 0.78761 0.0
H776 H 0.26132 0.64941 0.61625 0.0
H777 H 0.28094 0.68896 0.63154 0.0
H778 H 0.27039 0.61291 0.60551 0.0
H779 H 0.27782 0.58693 0.63469 0.0
C780 C 0.63429 0.29146 0.01383 0.0
C781 C 0.62854 0.30879 0.98272 0.0
C782 C 0.68215 0.33053 0.95535 0.0
C783 C 0.68898 0.31482 0.98809 0.0
N784 N 0.66985 0.27479 0.04243 0.0
N785 N 0.64154 0.33356 0.91479 0.0
C786 C 0.66427 0.29298 0.01494 0.0
C787 C 0.6506 0.32396 0.94992 0.0
N788 N 0.61166 0.27524 0.04368 0.0
N789 N 0.70605 0.3537 0.93179 0.0
H790 H 0.61828 0.32883 0.9111 0.0
H791 H 0.65584 0.34287 0.88809 0.0
H792 H 0.72982 0.36035 0.93542 0.0
H793 H 0.70262 0.36813 0.91083 0.0
H794 H 0.61519 0.26522 0.07067 0.0
H795 H 0.58912 0.27243 0.0411 0.0
H796 H 0.65224 0.25673 0.06055 0.0
H797 H 0.6919 0.27637 0.04512 0.0
C798 C 0.38354 0.67728 0.29962 0.0
C799 C 0.39709 0.69088 0.33949 0.0
C800 C 0.35855 0.64187 0.37485 0.0
C801 C 0.34127 0.63126 0.33639 0.0
N802 N 0.33868 0.63579 0.26106 0.0
N803 N 0.40056 0.68547 0.4145 0.0
C804 C 0.35483 0.64754 0.29813 0.0
C805 C 0.38612 0.6725 0.37683 0.0
N806 N 0.39739 0.69388 0.26351 0.0
N807 N 0.34745 0.62296 0.40973 0.0
H808 H 0.42121 0.70749 0.41643 0.0
H809 H 0.39199 0.67505 0.44386 0.0
H810 H 0.32664 0.60112 0.40879 0.0
H811 H 0.35951 0.62763 0.43834 0.0
H812 H 0.39082 0.68483 0.23308 0.0
H813 H 0.41693 0.71667 0.26424 0.0
H814 H 0.34499 0.64779 0.23236 0.0
H815 H 0.31815 0.61367 0.25919 0.0
C816 C 0.72614 0.37726 0.71015 0.0
C817 C 0.71772 0.38829 0.67378 0.0
C818 C 0.71597 0.34551 0.63117 0.0
C819 C 0.7199 0.33215 0.66872 0.0
N820 N 0.74019 0.33986 0.73933 0.0
N821 N 0.71434 0.38943 0.59797 0.0
C822 C 0.72932 0.34996 0.70662 0.0
C823 C 0.71667 0.37487 0.6335 0.0
N824 N 0.72863 0.39139 0.74832 0.0
N825 N 0.70881 0.32875 0.59426 0.0
H826 H 0.71274 0.40984 0.59954 0.0
H827 H 0.71609 0.3827 0.5673 0.0
H828 H 0.70911 0.30764 0.59166 0.0
H829 H 0.70178 0.33509 0.56666 0.0
H830 H 0.73115 0.38245 0.77701 0.0
H831 H 0.72717 0.41187 0.75122 0.0
H832 H 0.74912 0.35241 0.76735 0.0
H833 H 0.74269 0.31994 0.73651 0.0
C834 C 0.35383 0.72546 0.96937 0.0
C835 C 0.33581 0.71608 0.00713 0.0
C836 C 0.3777 0.71118 0.04226 0.0
C837 C 0.39131 0.71242 1.00195 0.0
N838 N 0.39478 0.72385 0.92744 0.0
N839 N 0.33177 0.70439 0.08139 0.0
C840 C 0.38073 0.72151 0.9657 0.0
C841 C 0.34873 0.71142 0.04459 0.0
N842 N 0.34422 0.73699 0.93687 0.0
N843 N 0.39163 0.70781 0.07781 0.0
H844 H 0.31101 0.70546 0.08398 0.0
H845 H 0.33758 0.69675 0.10888 0.0
H846 H 0.41144 0.70506 0.07646 0.0
H847 H 0.38491 0.70961 0.10847 0.0
H848 H 0.35701 0.74602 0.90901 0.0
H849 H 0.32451 0.73991 0.93977 0.0
H850 H 0.386 0.72684 0.89888 0.0
H851 H 0.41487 0.72168 0.92421 0.0
C852 C 0.50427 0.02514 0.25121 0.0
C853 C 0.51971 0.04602 0.28592 0.0
C854 C 0.52108 1.00138 0.32137 0.0
C855 C 0.50998 0.98211 0.28433 0.0
N856 N 0.50086 0.98209 0.20912 0.0
N857 N 0.5524 0.05486 0.34776 0.0
C858 C 0.50451 0.99592 0.24778 0.0
C859 C 0.53102 0.03439 0.31908 0.0
N860 N 0.4878 0.032 0.22239 0.0
N861 N 0.52066 0.98824 0.35961 0.0
H862 H 0.56253 0.07932 0.34535 0.0
H863 H 0.56299 0.0477 0.37049 0.0
H864 H 0.51095 0.96399 0.36395 0.0
H865 H 0.52621 1.00105 0.38779 0.0
H866 H 0.4741 0.01622 0.19863 0.0
H867 H 0.48463 0.05145 0.22532 0.0
H868 H 0.49929 0.99258 0.18121 0.0
H869 H 0.50345 0.96241 0.20445 0.0
C870 C 0.48953 0.49325 0.58409 0.0
C871 C 0.48507 0.5095 0.61855 0.0
C872 C 0.53161 0.51118 0.65294 0.0
C873 C 0.53877 0.49909 0.61606 0.0
N874 N 0.52809 0.48825 0.54137 0.0
N875 N 0.51056 0.54346 0.67885 0.0
C876 C 0.51878 0.49301 0.58006 0.0
C877 C 0.50877 0.52138 0.65084 0.0
N878 N 0.46548 0.47649 0.55618 0.0
N879 N 0.54506 0.51145 0.6909 0.0
H880 H 0.49634 0.5537 0.67645 0.0
H881 H 0.52886 0.55439 0.70088 0.0
H882 H 0.55948 0.50162 0.69522 0.0
H883 H 0.5385 0.51777 0.71905 0.0
H884 H 0.46686 0.46223 0.53272 0.0
H885 H 0.44299 0.47374 0.55961 0.0
H886 H 0.51554 0.48623 0.51373 0.0
H887 H 0.55018 0.49032 0.53625 0.0
C888 C 0.99345 0.50427 0.92086 0.0
C889 C 0.98103 0.482 0.95488 0.0
C890 C 0.03458 0.51159 0.98708 0.0
C891 C 0.0446 0.53728 0.958 0.0
N892 N 0.02748 0.55937 0.90244 0.0
N893 N 0.99014 0.47161 0.02693 0.0
C894 C 0.02234 0.53396 0.92623 0.0
C895 C 1.00173 0.48761 0.98984 0.0
N896 N 0.97853 0.49684 0.88258 0.0
N897 N 0.0564 0.50902 0.01113 0.0
H898 H 0.96606 0.45623 0.03226 0.0
H899 H 1.00407 0.47685 0.05405 0.0
H900 H 0.08077 0.52412 0.00756 0.0
H901 H 0.05034 0.48951 0.03045 0.0
H902 H 0.98799 0.51134 0.8561 0.0
H903 H 0.95907 0.4746 0.87608 0.0
H904 H 1.01065 0.55847 0.88128 0.0
H905 H 0.04649 0.58208 0.90765 0.0
C906 C 0.02799 0.49598 0.42336 0.0
C907 C 0.04914 0.51271 0.38934 0.0
C908 C 1.00446 0.5149 0.35508 0.0
C909 C 0.98487 0.50241 0.39171 0.0
N910 N 0.98428 0.49064 0.46613 0.0
N911 N 0.05824 0.54738 0.32977 0.0
C912 C 0.99853 0.49581 0.42749 0.0
C913 C 0.03759 0.52498 0.35731 0.0
N914 N 0.03486 0.47872 0.45075 0.0
N915 N 0.99151 0.51571 0.31717 0.0
H916 H 0.08278 0.55757 0.33236 0.0
H917 H 0.05111 0.55859 0.30801 0.0
H918 H 0.9672 0.50603 0.31272 0.0
H919 H 1.00457 0.52232 0.28913 0.0
H920 H 0.01891 0.46416 0.47384 0.0
H921 H 0.05451 0.47589 0.44713 0.0
H922 H 0.99464 0.48821 0.49365 0.0
H923 H 0.96435 0.4928 0.47143 0.0
C924 C 0.51504 0.03112 0.68826 0.0
C925 C 0.54074 0.04135 0.7175 0.0
C926 C 0.50775 0.99035 0.75478 0.0
C927 C 0.48553 0.97776 0.72066 0.0
N928 N 0.47528 0.98659 0.6484 0.0
N929 N 0.5629 0.02459 0.77343 0.0
C930 C 0.49116 0.9983 0.68555 0.0
C931 C 0.53745 0.01926 0.74944 0.0
N932 N 0.51236 0.05272 0.66398 0.0
N933 N 0.50025 0.97556 0.79313 0.0
H934 H 0.58565 0.04361 0.76824 0.0
H935 H 0.56205 1.00791 0.79474 0.0
H936 H 0.47798 0.95609 0.79959 0.0
H937 H 0.51468 0.98513 0.81968 0.0
H938 H 0.49282 0.0465 0.64453 0.0
H939 H 0.52733 0.07704 0.66749 0.0
H940 H 0.48056 1.00042 0.62121 0.0
H941 H 0.46 0.96255 0.64314 0.0
C942 C 0.51732 0.52957 0.02209 0.0
C943 C 0.50713 0.53823 0.05953 0.0
C944 C 0.50248 0.49015 0.0933 0.0
C945 C 0.51701 0.48427 0.05792 0.0
N946 N 0.54819 0.50735 0.9946 0.0
N947 N 0.50002 0.53039 0.13519 0.0
C948 C 0.52746 0.50672 0.02415 0.0
C949 C 0.50271 0.5196 0.09648 0.0
N950 N 0.51577 0.54156 0.98376 0.0
N951 N 0.48685 0.46724 0.12302 0.0
H952 H 0.50262 0.5527 0.13951 0.0
H953 H 0.49925 0.51883 0.16326 0.0
H954 H 0.48366 0.4446 0.12039 0.0
H955 H 0.47379 0.46964 0.1474 0.0
H956 H 0.52065 0.53388 0.95544 0.0
H957 H 0.5058 0.55586 0.97969 0.0
H958 H 0.55813 0.52476 0.97129 0.0
H959 H 0.55849 0.49317 0.99673 0.0
C960 C 0.54692 0.28188 0.21443 0.0
C961 C 0.54898 0.25599 0.19654 0.0
C962 C 0.54746 0.27693 0.1252 0.0
C963 C 0.54889 0.30451 0.14318 0.0
N964 N 0.539 0.32697 0.20481 0.0
N965 N 0.546 0.22665 0.13402 0.0
C966 C 0.54584 0.30532 0.18789 0.0
C967 C 0.5477 0.25298 0.15163 0.0
N968 N 0.54574 0.28403 0.25732 0.0
N969 N 0.54341 0.27243 0.08258 0.0
H970 H 0.54149 0.20687 0.15181 0.0
H971 H 0.54984 0.22446 0.10214 0.0
H972 H 0.54502 0.28975 0.06216 0.0
H973 H 0.53649 0.25107 0.06741 0.0
H974 H 0.5483 0.30372 0.27343 0.0
H975 H 0.54381 0.26649 0.27743 0.0
H976 H 0.53293 0.3273 0.23625 0.0
H977 H 0.53649 0.3433 0.18653 0.0
C978 C 0.28562 0.54209 0.46166 0.0
C979 C 0.25931 0.54372 0.47904 0.0
C980 C 0.27987 0.54256 0.55084 0.0
C981 C 0.30751 0.54368 0.53326 0.0
N982 N 0.32989 0.53292 0.47219 0.0
N983 N 0.22834 0.53879 0.54071 0.0
C984 C 0.30854 0.54042 0.48864 0.0
C985 C 0.25562 0.54194 0.52388 0.0
N986 N 0.28876 0.54195 0.41882 0.0
N987 N 0.27589 0.54007 0.59366 0.0
H988 H 0.20873 0.53399 0.52221 0.0
H989 H 0.22472 0.541 0.57262 0.0
H990 H 0.29357 0.54249 0.61412 0.0
H991 H 0.25499 0.53447 0.60935 0.0
H992 H 0.30885 0.54467 0.40342 0.0
H993 H 0.27187 0.54105 0.39819 0.0
H994 H 0.32994 0.5264 0.44088 0.0
H995 H 0.34591 0.53006 0.49078 0.0
C996 C 0.74044 0.29978 0.85214 0.0
C997 C 0.77124 0.30349 0.85863 0.0
C998 C 0.75019 0.25243 0.82229 0.0
C999 C 0.72282 0.2523 0.8065 0.0
N1000 N 0.69752 0.28407 0.80184 0.0
N1001 N 0.80655 0.28758 0.82789 0.0
C1002 C 0.71957 0.2785 0.81997 0.0
C1003 C 0.77662 0.28132 0.83652 0.0
N1004 N 0.73001 0.31495 0.87774 0.0
N1005 N 0.7503 0.22494 0.82806 0.0
H1006 H 0.82644 0.30937 0.8352 0.0
H1007 H 0.81063 0.27166 0.81085 0.0
H1008 H 0.73005 0.20295 0.82288 0.0
H1009 H 0.76978 0.22468 0.84131 0.0
H1010 H 0.70692 0.31095 0.87612 0.0
H1011 H 0.74322 0.32819 0.90351 0.0
H1012 H 0.69582 0.30396 0.8092 0.0
H1013 H 0.68382 0.2711 0.77615 0.0
C1014 C 0.47038 0.74411 0.12564 0.0
C1015 C 0.46994 0.71688 0.14323 0.0
C1016 C 0.47361 0.73993 0.21468 0.0
C1017 C 0.47104 0.76564 0.1973 0.0
N1018 N 0.47562 0.79611 0.13545 0.0
N1019 N 0.47898 0.69328 0.2042 0.0
C1020 C 0.47156 0.76859 0.15245 0.0
C1021 C 0.47348 0.71598 0.18781 0.0
N1022 N 0.47031 0.74689 0.08277 0.0
N1023 N 0.4769 0.73875 0.25733 0.0
H1024 H 0.48018 0.67632 0.18559 0.0
H1025 H 0.48452 0.69205 0.2356 0.0
H1026 H 0.48117 0.75743 0.27692 0.0
H1027 H 0.47455 0.71929 0.27376 0.0
H1028 H 0.46623 0.76307 0.06678 0.0
H1029 H 0.47321 0.73177 0.06276 0.0
H1030 H 0.4791 0.80181 0.10349 0.0
H1031 H 0.47791 0.81483 0.15385 0.0
C1032 C 0.74644 0.46474 0.55075 0.0
C1033 C 0.71842 0.46247 0.53272 0.0
C1034 C 0.74307 0.46749 0.46211 0.0
C1035 C 0.76796 0.46357 0.47973 0.0
N1036 N 0.79371 0.46032 0.54291 0.0
N1037 N 0.69125 0.46286 0.46938 0.0
C1038 C 0.76948 0.46246 0.52466 0.0
C1039 C 0.71709 0.46393 0.48785 0.0
N1040 N 0.75229 0.47115 0.59282 0.0
N1041 N 0.74505 0.47665 0.42096 0.0
H1042 H 0.67374 0.46424 0.48655 0.0
H1043 H 0.68631 0.45884 0.43718 0.0
H1044 H 0.76363 0.48039 0.4014 0.0
H1045 H 0.73008 0.48359 0.40732 0.0
H1046 H 0.77361 0.47676 0.60742 0.0
H1047 H 0.73689 0.47387 0.61256 0.0
H1048 H 0.79376 0.45453 0.5746 0.0
H1049 H 0.81313 0.46277 0.52588 0.0
C1050 C 0.28238 0.71636 0.856 0.0
C1051 C 0.25597 0.71944 0.86933 0.0
C1052 C 0.28498 0.77312 0.83938 0.0
C1053 C 0.30734 0.7679 0.81735 0.0
N1054 N 0.31924 0.72703 0.79848 0.0
N1055 N 0.22839 0.74668 0.84768 0.0
C1056 C 0.30378 0.73727 0.82391 0.0
C1057 C 0.25602 0.74668 0.85353 0.0
N1058 N 0.28802 0.69443 0.87419 0.0
N1059 N 0.29109 0.80292 0.84797 0.0
H1060 H 0.20637 0.72644 0.85281 0.0
H1061 H 0.22806 0.76607 0.83441 0.0
H1062 H 0.31291 0.82281 0.8407 0.0
H1063 H 0.27503 0.80688 0.86495 0.0
H1064 H 0.30806 0.69286 0.86698 0.0
H1065 H 0.27491 0.68066 0.89975 0.0
H1066 H 0.31537 0.70406 0.80013 0.0
H1067 H 0.33262 0.74028 0.77281 0.0
loop_
_geom_bond_atom_site_label_1
_geom_bond_atom_site_label_2
_geom_bond_distance
_geom_bond_site_symmetry_2
_ccdc_geom_bond_type
C0 C1 1.443 . S
C0 N4 1.376 . S
C0 C38 1.389 . S
C1 C0 1.443 . S
C1 C2 1.340 . S
C1 H41 0.951 . S
C2 C1 1.340 . S
C2 C3 1.439 . S
C2 H42 0.950 . S
C3 C2 1.439 . S
C3 N4 1.374 . S
C3 C37 1.395 . S
N4 C0 1.376 . S
N4 C3 1.374 . S
N4 Co5 2.008 . S
Co5 N4 2.008 . S
Co5 N6 1.995 . S
Co5 N11 2.008 . S
Co5 N16 1.995 . S
Co5 N21 2.282 . S
Co5 N27 2.282 . S
N6 Co5 1.995 . S
N6 C7 1.376 . S
N6 C10 1.383 . S
C7 N6 1.376 . S
C7 C8 1.446 . S
C7 C37 1.391 . S
C8 C7 1.446 . S
C8 C9 1.339 . S
C8 H43 0.949 . S
C9 C8 1.339 . S
C9 C10 1.439 . S
C9 H44 0.950 . S
C10 N6 1.383 . S
C10 C9 1.439 . S
C10 C39 1.392 . S
N11 Co5 2.008 . S
N11 C12 1.376 . S
N11 C15 1.374 . S
C12 N11 1.376 . S
C12 C13 1.443 . S
C12 C39 1.389 . S
C13 C12 1.443 . S
C13 C14 1.340 . S
C13 H45 0.951 . S
C14 C13 1.340 . S
C14 C15 1.439 . S
C14 H46 0.950 . S
C15 N11 1.374 . S
C15 C14 1.439 . S
C15 C40 1.395 . S
N16 Co5 1.995 . S
N16 C17 1.376 . S
N16 C20 1.383 . S
C17 N16 1.376 . S
C17 C18 1.446 . S
C17 C40 1.391 . S
C18 C17 1.446 . S
C18 C19 1.339 . S
C18 H47 0.949 . S
C19 C18 1.339 . S
C19 C20 1.439 . S
C19 H48 0.950 . S
C20 N16 1.383 . S
C20 C19 1.439 . S
C20 C38 1.392 . S
N21 Co5 2.282 . S
N21 C24 1.332 . S
N21 C26 1.332 . S
C22 C23 1.386 . S
C22 C25 1.388 . S
C23 C22 1.386 . S
C23 C24 1.382 . S
C23 H49 0.950 . S
C24 N21 1.332 . S
C24 C23 1.382 . S
C24 H35 0.952 . S
C25 C22 1.388 . S
C25 C26 1.382 . S
C25 H50 0.950 . S
C26 N21 1.332 . S
C26 C25 1.382 . S
C26 H36 0.948 . S
N27 Co5 2.282 . S
N27 C31 1.332 . S
N27 C32 1.332 . S
C28 C29 1.388 . S
C28 C32 1.382 . S
C28 H51 0.950 . S
C29 C28 1.388 . S
C29 C30 1.386 . S
C30 C29 1.386 . S
C30 C31 1.382 . S
C30 H52 0.950 . S
C31 N27 1.332 . S
C31 C30 1.382 . S
C31 H33 0.952 . S
C32 N27 1.332 . S
C32 C28 1.382 . S
C32 H34 0.948 . S
H33 C31 0.952 . S
H34 C32 0.948 . S
H35 C24 0.952 . S
H36 C26 0.948 . S
C37 C3 1.395 . S
C37 C7 1.391 . S
C38 C0 1.389 . S
C38 C20 1.392 . S
C39 C10 1.392 . S
C39 C12 1.389 . S
C40 C15 1.395 . S
C40 C17 1.391 . S
H41 C1 0.951 . S
H42 C2 0.950 . S
H43 C8 0.949 . S
H44 C9 0.950 . S
H45 C13 0.951 . S
H46 C14 0.950 . S
H47 C18 0.949 . S
H48 C19 0.950 . S
H49 C23 0.950 . S
H50 C25 0.950 . S
H51 C28 0.950 . S
H52 C30 0.950 . S
C53 C54 1.443 . S
C53 N57 1.376 . S
C53 C91 1.389 . S
C54 C53 1.443 . S
C54 C55 1.340 . S
C54 H94 0.951 . S
C55 C54 1.340 . S
C55 C56 1.439 . S
C55 H95 0.950 . S
C56 C55 1.439 . S
C56 N57 1.374 . S
C56 C90 1.395 . S
N57 C53 1.376 . S
N57 C56 1.374 . S
N57 Co58 2.008 . S
Co58 N57 2.008 . S
Co58 N59 1.995 . S
Co58 N64 2.008 . S
Co58 N69 1.995 . S
Co58 N74 2.282 . S
Co58 N80 2.282 . S
N59 Co58 1.995 . S
N59 C60 1.376 . S
N59 C63 1.383 . S
C60 N59 1.376 . S
C60 C61 1.446 . S
C60 C90 1.391 . S
C61 C60 1.446 . S
C61 C62 1.339 . S
C61 H96 0.949 . S
C62 C61 1.339 . S
C62 C63 1.439 . S
C62 H97 0.950 . S
C63 N59 1.383 . S
C63 C62 1.439 . S
C63 C92 1.392 . S
N64 Co58 2.008 . S
N64 C65 1.376 . S
N64 C68 1.374 . S
C65 N64 1.376 . S
C65 C66 1.443 . S
C65 C92 1.389 . S
C66 C65 1.443 . S
C66 C67 1.340 . S
C66 H98 0.951 . S
C67 C66 1.340 . S
C67 C68 1.439 . S
C67 H99 0.950 . S
C68 N64 1.374 . S
C68 C67 1.439 . S
C68 C93 1.395 . S
N69 Co58 1.995 . S
N69 C70 1.376 . S
N69 C73 1.383 . S
C70 N69 1.376 . S
C70 C71 1.446 . S
C70 C93 1.391 . S
C71 C70 1.446 . S
C71 C72 1.339 . S
C71 H100 0.949 . S
C72 C71 1.339 . S
C72 C73 1.439 . S
C72 H101 0.950 . S
C73 N69 1.383 . S
C73 C72 1.439 . S
C73 C91 1.392 . S
N74 Co58 2.282 . S
N74 C77 1.332 . S
N74 C79 1.332 . S
C75 C76 1.386 . S
C75 C78 1.388 . S
C76 C75 1.386 . S
C76 C77 1.382 . S
C76 H102 0.950 . S
C77 N74 1.332 . S
C77 C76 1.382 . S
C77 H88 0.952 . S
C78 C75 1.388 . S
C78 C79 1.382 . S
C78 H103 0.950 . S
C79 N74 1.332 . S
C79 C78 1.382 . S
C79 H89 0.948 . S
N80 Co58 2.282 . S
N80 C84 1.332 . S
N80 C85 1.332 . S
C81 C82 1.388 . S
C81 C85 1.382 . S
C81 H104 0.950 . S
C82 C81 1.388 . S
C82 C83 1.386 . S
C83 C82 1.386 . S
C83 C84 1.382 . S
C83 H105 0.950 . S
C84 N80 1.332 . S
C84 C83 1.382 . S
C84 H86 0.952 . S
C85 N80 1.332 . S
C85 C81 1.382 . S
C85 H87 0.948 . S
H86 C84 0.952 . S
H87 C85 0.948 . S
H88 C77 0.952 . S
H89 C79 0.948 . S
C90 C56 1.395 . S
C90 C60 1.391 . S
C91 C53 1.389 . S
C91 C73 1.392 . S
C92 C63 1.392 . S
C92 C65 1.389 . S
C93 C68 1.395 . S
C93 C70 1.391 . S
H94 C54 0.951 . S
H95 C55 0.950 . S
H96 C61 0.949 . S
H97 C62 0.950 . S
H98 C66 0.951 . S
H99 C67 0.950 . S
H100 C71 0.949 . S
H101 C72 0.950 . S
H102 C76 0.950 . S
H103 C78 0.950 . S
H104 C81 0.950 . S
H105 C83 0.950 . S
C106 C107 1.443 . S
C106 N110 1.376 . S
C106 C144 1.389 . S
C107 C106 1.443 . S
C107 C108 1.340 . S
C107 H147 0.951 . S
C108 C107 1.340 . S
C108 C109 1.439 . S
C108 H148 0.950 . S
C109 C108 1.439 . S
C109 N110 1.374 . S
C109 C143 1.395 . S
N110 C106 1.376 . S
N110 C109 1.374 . S
N110 Co111 2.008 . S
Co111 N110 2.008 . S
Co111 N112 1.995 1_556 S
Co111 N117 2.008 1_556 S
Co111 N122 1.995 . S
Co111 N127 2.282 . S
Co111 N133 2.282 1_556 S
N112 Co111 1.995 1_554 S
N112 C113 1.376 1_554 S
N112 C116 1.383 . S
C113 N112 1.376 1_556 S
C113 C114 1.446 1_556 S
C113 C143 1.391 . S
C114 C113 1.446 1_554 S
C114 C115 1.339 . S
C114 H149 0.949 . S
C115 C114 1.339 . S
C115 C116 1.439 . S
C115 H150 0.950 . S
C116 N112 1.383 . S
C116 C115 1.439 . S
C116 C145 1.392 . S
N117 Co111 2.008 1_554 S
N117 C118 1.376 . S
N117 C121 1.374 . S
C118 N117 1.376 . S
C118 C119 1.443 . S
C118 C145 1.389 . S
C119 C118 1.443 . S
C119 C120 1.340 . S
C119 H151 0.951 . S
C120 C119 1.340 . S
C120 C121 1.439 . S
C120 H152 0.950 . S
C121 N117 1.374 . S
C121 C120 1.439 . S
C121 C146 1.395 . S
N122 Co111 1.995 . S
N122 C123 1.376 1_556 S
N122 C126 1.383 . S
C123 N122 1.376 1_554 S
C123 C124 1.446 1_554 S
C123 C146 1.391 . S
C124 C123 1.446 1_556 S
C124 C125 1.339 . S
C124 H153 0.949 . S
C125 C124 1.339 . S
C125 C126 1.439 . S
C125 H154 0.950 . S
C126 N122 1.383 . S
C126 C125 1.439 . S
C126 C144 1.392 . S
N127 Co111 2.282 . S
N127 C130 1.332 1_556 S
N127 C132 1.332 . S
C128 C129 1.386 . S
C128 C131 1.388 1_554 S
C129 C128 1.386 . S
C129 C130 1.382 . S
C129 H155 0.950 . S
C130 N127 1.332 1_554 S
C130 C129 1.382 . S
C130 H141 0.952 . S
C131 C128 1.388 1_556 S
C131 C132 1.382 . S
C131 H156 0.950 . S
C132 N127 1.332 . S
C132 C131 1.382 . S
C132 H142 0.948 . S
N133 Co111 2.282 1_554 S
N133 C137 1.332 1_554 S
N133 C138 1.332 . S
C134 C135 1.388 1_554 S
C134 C138 1.382 . S
C134 H157 0.950 . S
C135 C134 1.388 1_556 S
C135 C136 1.386 . S
C136 C135 1.386 . S
C136 C137 1.382 . S
C136 H158 0.950 . S
C137 N133 1.332 1_556 S
C137 C136 1.382 . S
C137 H139 0.952 . S
C138 N133 1.332 . S
C138 C134 1.382 . S
C138 H140 0.948 . S
H139 C137 0.952 . S
H140 C138 0.948 . S
H141 C130 0.952 . S
H142 C132 0.948 . S
C143 C109 1.395 . S
C143 C113 1.391 . S
C144 C106 1.389 . S
C144 C126 1.392 . S
C145 C116 1.392 . S
C145 C118 1.389 . S
C146 C121 1.395 . S
C146 C123 1.391 . S
H147 C107 0.951 . S
H148 C108 0.950 . S
H149 C114 0.949 . S
H150 C115 0.950 . S
H151 C119 0.951 . S
H152 C120 0.950 . S
H153 C124 0.949 . S
H154 C125 0.950 . S
H155 C129 0.950 . S
H156 C131 0.950 . S
H157 C134 0.950 . S
H158 C136 0.950 . S
C159 C160 1.443 . S
C159 N163 1.376 . S
C159 C197 1.389 . S
C160 C159 1.443 . S
C160 C161 1.340 . S
C160 H200 0.951 . S
C161 C160 1.340 . S
C161 C162 1.439 . S
C161 H201 0.950 . S
C162 C161 1.439 . S
C162 N163 1.374 . S
C162 C196 1.395 . S
N163 C159 1.376 . S
N163 C162 1.374 . S
N163 Co164 2.008 . S
Co164 N163 2.008 . S
Co164 N165 1.995 . S
Co164 N170 2.008 . S
Co164 N175 1.995 . S
Co164 N180 2.282 . S
Co164 N186 2.282 . S
N165 Co164 1.995 . S
N165 C166 1.376 . S
N165 C169 1.383 . S
C166 N165 1.376 . S
C166 C167 1.446 . S
C166 C196 1.391 . S
C167 C166 1.446 . S
C167 C168 1.339 . S
C167 H202 0.949 . S
C168 C167 1.339 . S
C168 C169 1.439 . S
C168 H203 0.950 . S
C169 N165 1.383 . S
C169 C168 1.439 . S
C169 C198 1.392 . S
N170 Co164 2.008 . S
N170 C171 1.376 . S
N170 C174 1.374 . S
C171 N170 1.376 . S
C171 C172 1.443 . S
C171 C198 1.389 . S
C172 C171 1.443 . S
C172 C173 1.340 . S
C172 H204 0.951 . S
C173 C172 1.340 . S
C173 C174 1.439 . S
C173 H205 0.950 . S
C174 N170 1.374 . S
C174 C173 1.439 . S
C174 C199 1.395 . S
N175 Co164 1.995 . S
N175 C176 1.376 . S
N175 C179 1.383 . S
C176 N175 1.376 . S
C176 C177 1.446 . S
C176 C199 1.391 . S
C177 C176 1.446 . S
C177 C178 1.339 . S
C177 H206 0.949 . S
C178 C177 1.339 . S
C178 C179 1.439 . S
C178 H207 0.950 . S
C179 N175 1.383 . S
C179 C178 1.439 . S
C179 C197 1.392 . S
N180 Co164 2.282 . S
N180 C183 1.332 . S
N180 C185 1.332 . S
C181 C182 1.386 . S
C181 C184 1.388 . S
C182 C181 1.386 . S
C182 C183 1.382 . S
C182 H208 0.950 . S
C183 N180 1.332 . S
C183 C182 1.382 . S
C183 H194 0.952 . S
C184 C181 1.388 . S
C184 C185 1.382 . S
C184 H209 0.950 . S
C185 N180 1.332 . S
C185 C184 1.382 . S
C185 H195 0.948 . S
N186 Co164 2.282 . S
N186 C190 1.332 . S
N186 C191 1.332 . S
C187 C188 1.388 . S
C187 C191 1.382 . S
C187 H210 0.950 . S
C188 C187 1.388 . S
C188 C189 1.386 . S
C189 C188 1.386 . S
C189 C190 1.382 . S
C189 H211 0.950 . S
C190 N186 1.332 . S
C190 C189 1.382 . S
C190 H192 0.952 . S
C191 N186 1.332 . S
C191 C187 1.382 . S
C191 H193 0.948 . S
H192 C190 0.952 . S
H193 C191 0.948 . S
H194 C183 0.952 . S
H195 C185 0.948 . S
C196 C162 1.395 . S
C196 C166 1.391 . S
C197 C159 1.389 . S
C197 C179 1.392 . S
C198 C169 1.392 . S
C198 C171 1.389 . S
C199 C174 1.395 . S
C199 C176 1.391 . S
H200 C160 0.951 . S
H201 C161 0.950 . S
H202 C167 0.949 . S
H203 C168 0.950 . S
H204 C172 0.951 . S
H205 C173 0.950 . S
H206 C177 0.949 . S
H207 C178 0.950 . S
H208 C182 0.950 . S
H209 C184 0.950 . S
H210 C187 0.950 . S
H211 C189 0.950 . S
C212 C213 1.443 . S
C212 N216 1.376 . S
C212 C250 1.389 . S
C213 C212 1.443 . S
C213 C214 1.340 . S
C213 H253 0.951 . S
C214 C213 1.340 . S
C214 C215 1.439 . S
C214 H254 0.950 . S
C215 C214 1.439 . S
C215 N216 1.374 . S
C215 C249 1.395 . S
N216 C212 1.376 . S
N216 C215 1.374 . S
N216 Co217 2.008 . S
Co217 N216 2.008 . S
Co217 N218 1.995 . S
Co217 N223 2.008 . S
Co217 N228 1.995 . S
Co217 N233 2.282 . S
Co217 N239 2.282 . S
N218 Co217 1.995 . S
N218 C219 1.376 . S
N218 C222 1.383 . S
C219 N218 1.376 . S
C219 C220 1.446 . S
C219 C249 1.391 . S
C220 C219 1.446 . S
C220 C221 1.339 . S
C220 H255 0.949 . S
C221 C220 1.339 . S
C221 C222 1.439 . S
C221 H256 0.950 . S
C222 N218 1.383 . S
C222 C221 1.439 . S
C222 C251 1.392 . S
N223 Co217 2.008 . S
N223 C224 1.376 . S
N223 C227 1.374 . S
C224 N223 1.376 . S
C224 C225 1.443 . S
C224 C251 1.389 . S
C225 C224 1.443 . S
C225 C226 1.340 . S
C225 H257 0.951 . S
C226 C225 1.340 . S
C226 C227 1.439 . S
C226 H258 0.950 . S
C227 N223 1.374 . S
C227 C226 1.439 . S
C227 C252 1.395 . S
N228 Co217 1.995 . S
N228 C229 1.376 . S
N228 C232 1.383 . S
C229 N228 1.376 . S
C229 C230 1.446 . S
C229 C252 1.391 . S
C230 C229 1.446 . S
C230 C231 1.339 . S
C230 H259 0.949 . S
C231 C230 1.339 . S
C231 C232 1.439 . S
C231 H260 0.950 . S
C232 N228 1.383 . S
C232 C231 1.439 . S
C232 C250 1.392 . S
N233 Co217 2.282 . S
N233 C236 1.332 . S
N233 C238 1.332 . S
C234 C235 1.386 . S
C234 C237 1.388 . S
C235 C234 1.386 . S
C235 C236 1.382 . S
C235 H261 0.950 . S
C236 N233 1.332 . S
C236 C235 1.382 . S
C236 H247 0.952 . S
C237 C234 1.388 . S
C237 C238 1.382 . S
C237 H262 0.950 . S
C238 N233 1.332 . S
C238 C237 1.382 . S
C238 H248 0.948 . S
N239 Co217 2.282 . S
N239 C243 1.332 . S
N239 C244 1.332 . S
C240 C241 1.388 . S
C240 C244 1.382 . S
C240 H263 0.950 . S
C241 C240 1.388 . S
C241 C242 1.386 . S
C242 C241 1.386 . S
C242 C243 1.382 . S
C242 H264 0.950 . S
C243 N239 1.332 . S
C243 C242 1.382 . S
C243 H245 0.952 . S
C244 N239 1.332 . S
C244 C240 1.382 . S
C244 H246 0.948 . S
H245 C243 0.952 . S
H246 C244 0.948 . S
H247 C236 0.952 . S
H248 C238 0.948 . S
C249 C215 1.395 . S
C249 C219 1.391 . S
C250 C212 1.389 . S
C250 C232 1.392 . S
C251 C222 1.392 . S
C251 C224 1.389 . S
C252 C227 1.395 . S
C252 C229 1.391 . S
H253 C213 0.951 . S
H254 C214 0.950 . S
H255 C220 0.949 . S
H256 C221 0.950 . S
H257 C225 0.951 . S
H258 C226 0.950 . S
H259 C230 0.949 . S
H260 C231 0.950 . S
H261 C235 0.950 . S
H262 C237 0.950 . S
H263 C240 0.950 . S
H264 C242 0.950 . S
C265 C266 1.443 . S
C265 N269 1.376 . S
C265 C303 1.389 . S
C266 C265 1.443 . S
C266 C267 1.340 . S
C266 H306 0.951 . S
C267 C266 1.340 . S
C267 C268 1.439 . S
C267 H307 0.950 . S
C268 C267 1.439 . S
C268 N269 1.374 . S
C268 C302 1.395 . S
N269 C265 1.376 . S
N269 C268 1.374 . S
N269 Co270 2.008 . S
Co270 N269 2.008 . S
Co270 N271 1.995 1_556 S
Co270 N276 2.008 1_556 S
Co270 N281 1.995 . S
Co270 N286 2.282 . S
Co270 N292 2.282 1_556 S
N271 Co270 1.995 1_554 S
N271 C272 1.376 1_554 S
N271 C275 1.383 . S
C272 N271 1.376 1_556 S
C272 C273 1.446 1_556 S
C272 C302 1.391 . S
C273 C272 1.446 1_554 S
C273 C274 1.339 . S
C273 H308 0.949 . S
C274 C273 1.339 . S
C274 C275 1.439 . S
C274 H309 0.950 . S
C275 N271 1.383 . S
C275 C274 1.439 . S
C275 C304 1.392 . S
N276 Co270 2.008 1_554 S
N276 C277 1.376 . S
N276 C280 1.374 . S
C277 N276 1.376 . S
C277 C278 1.443 . S
C277 C304 1.389 . S
C278 C277 1.443 . S
C278 C279 1.340 . S
C278 H310 0.951 . S
C279 C278 1.340 . S
C279 C280 1.439 . S
C279 H311 0.950 . S
C280 N276 1.374 . S
C280 C279 1.439 . S
C280 C305 1.395 . S
N281 Co270 1.995 . S
N281 C282 1.376 1_556 S
N281 C285 1.383 . S
C282 N281 1.376 1_554 S
C282 C283 1.446 1_554 S
C282 C305 1.391 . S
C283 C282 1.446 1_556 S
C283 C284 1.339 . S
C283 H312 0.949 . S
C284 C283 1.339 . S
C284 C285 1.439 . S
C284 H313 0.950 . S
C285 N281 1.383 . S
C285 C284 1.439 . S
C285 C303 1.392 . S
N286 Co270 2.282 . S
N286 C289 1.332 1_556 S
N286 C291 1.332 . S
C287 C288 1.386 . S
C287 C290 1.388 1_554 S
C288 C287 1.386 . S
C288 C289 1.382 . S
C288 H314 0.950 . S
C289 N286 1.332 1_554 S
C289 C288 1.382 . S
C289 H300 0.952 . S
C290 C287 1.388 1_556 S
C290 C291 1.382 . S
C290 H315 0.950 . S
C291 N286 1.332 . S
C291 C290 1.382 . S
C291 H301 0.948 . S
N292 Co270 2.282 1_554 S
N292 C296 1.332 1_554 S
N292 C297 1.332 . S
C293 C294 1.388 1_554 S
C293 C297 1.382 . S
C293 H316 0.950 . S
C294 C293 1.388 1_556 S
C294 C295 1.386 . S
C295 C294 1.386 . S
C295 C296 1.382 . S
C295 H317 0.950 . S
C296 N292 1.332 1_556 S
C296 C295 1.382 . S
C296 H298 0.952 . S
C297 N292 1.332 . S
C297 C293 1.382 . S
C297 H299 0.948 . S
H298 C296 0.952 . S
H299 C297 0.948 . S
H300 C289 0.952 . S
H301 C291 0.948 . S
C302 C268 1.395 . S
C302 C272 1.391 . S
C303 C265 1.389 . S
C303 C285 1.392 . S
C304 C275 1.392 . S
C304 C277 1.389 . S
C305 C280 1.395 . S
C305 C282 1.391 . S
H306 C266 0.951 . S
H307 C267 0.950 . S
H308 C273 0.949 . S
H309 C274 0.950 . S
H310 C278 0.951 . S
H311 C279 0.950 . S
H312 C283 0.949 . S
H313 C284 0.950 . S
H314 C288 0.950 . S
H315 C290 0.950 . S
H316 C293 0.950 . S
H317 C295 0.950 . S
C318 C319 1.443 . S
C318 N322 1.376 . S
C318 C356 1.389 . S
C319 C318 1.443 . S
C319 C320 1.340 . S
C319 H359 0.951 . S
C320 C319 1.340 . S
C320 C321 1.439 . S
C320 H360 0.950 . S
C321 C320 1.439 . S
C321 N322 1.374 . S
C321 C355 1.395 . S
N322 C318 1.376 . S
N322 C321 1.374 . S
N322 Co323 2.008 . S
Co323 N322 2.008 . S
Co323 N324 1.995 . S
Co323 N329 2.008 . S
Co323 N334 1.995 . S
Co323 N339 2.282 . S
Co323 N345 2.282 . S
N324 Co323 1.995 . S
N324 C325 1.376 . S
N324 C328 1.383 . S
C325 N324 1.376 . S
C325 C326 1.446 . S
C325 C355 1.391 . S
C326 C325 1.446 . S
C326 C327 1.339 . S
C326 H361 0.949 . S
C327 C326 1.339 . S
C327 C328 1.439 . S
C327 H362 0.950 . S
C328 N324 1.383 . S
C328 C327 1.439 . S
C328 C357 1.392 . S
N329 Co323 2.008 . S
N329 C330 1.376 . S
N329 C333 1.374 . S
C330 N329 1.376 . S
C330 C331 1.443 . S
C330 C357 1.389 . S
C331 C330 1.443 . S
C331 C332 1.340 . S
C331 H363 0.951 . S
C332 C331 1.340 . S
C332 C333 1.439 . S
C332 H364 0.950 . S
C333 N329 1.374 . S
C333 C332 1.439 . S
C333 C358 1.395 . S
N334 Co323 1.995 . S
N334 C335 1.376 . S
N334 C338 1.383 . S
C335 N334 1.376 . S
C335 C336 1.446 . S
C335 C358 1.391 . S
C336 C335 1.446 . S
C336 C337 1.339 . S
C336 H365 0.949 . S
C337 C336 1.339 . S
C337 C338 1.439 . S
C337 H366 0.950 . S
C338 N334 1.383 . S
C338 C337 1.439 . S
C338 C356 1.392 . S
N339 Co323 2.282 . S
N339 C342 1.332 . S
N339 C344 1.332 . S
C340 C341 1.386 . S
C340 C343 1.388 . S
C341 C340 1.386 . S
C341 C342 1.382 . S
C341 H367 0.950 . S
C342 N339 1.332 . S
C342 C341 1.382 . S
C342 H353 0.952 . S
C343 C340 1.388 . S
C343 C344 1.382 . S
C343 H368 0.950 . S
C344 N339 1.332 . S
C344 C343 1.382 . S
C344 H354 0.948 . S
N345 Co323 2.282 . S
N345 C349 1.332 . S
N345 C350 1.332 . S
C346 C347 1.388 . S
C346 C350 1.382 . S
C346 H369 0.950 . S
C347 C346 1.388 . S
C347 C348 1.386 . S
C348 C347 1.386 . S
C348 C349 1.382 . S
C348 H370 0.950 . S
C349 N345 1.332 . S
C349 C348 1.382 . S
C349 H351 0.952 . S
C350 N345 1.332 . S
C350 C346 1.382 . S
C350 H352 0.948 . S
H351 C349 0.952 . S
H352 C350 0.948 . S
H353 C342 0.952 . S
H354 C344 0.948 . S
C355 C321 1.395 . S
C355 C325 1.391 . S
C356 C318 1.389 . S
C356 C338 1.392 . S
C357 C328 1.392 . S
C357 C330 1.389 . S
C358 C333 1.395 . S
C358 C335 1.391 . S
H359 C319 0.951 . S
H360 C320 0.950 . S
H361 C326 0.949 . S
H362 C327 0.950 . S
H363 C331 0.951 . S
H364 C332 0.950 . S
H365 C336 0.949 . S
H366 C337 0.950 . S
H367 C341 0.950 . S
H368 C343 0.950 . S
H369 C346 0.950 . S
H370 C348 0.950 . S
C371 C372 1.443 . S
C371 N375 1.376 . S
C371 C409 1.389 . S
C372 C371 1.443 . S
C372 C373 1.340 . S
C372 H412 0.951 . S
C373 C372 1.340 . S
C373 C374 1.439 . S
C373 H413 0.950 . S
C374 C373 1.439 . S
C374 N375 1.374 . S
C374 C408 1.395 . S
N375 C371 1.376 . S
N375 C374 1.374 . S
N375 Co376 2.008 . S
Co376 N375 2.008 . S
Co376 N377 1.995 . S
Co376 N382 2.008 . S
Co376 N387 1.995 . S
Co376 N392 2.282 . S
Co376 N398 2.282 . S
N377 Co376 1.995 . S
N377 C378 1.376 . S
N377 C381 1.383 . S
C378 N377 1.376 . S
C378 C379 1.446 . S
C378 C408 1.391 . S
C379 C378 1.446 . S
C379 C380 1.339 . S
C379 H414 0.949 . S
C380 C379 1.339 . S
C380 C381 1.439 . S
C380 H415 0.950 . S
C381 N377 1.383 . S
C381 C380 1.439 . S
C381 C410 1.392 . S
N382 Co376 2.008 . S
N382 C383 1.376 . S
N382 C386 1.374 . S
C383 N382 1.376 . S
C383 C384 1.443 . S
C383 C410 1.389 . S
C384 C383 1.443 . S
C384 C385 1.340 . S
C384 H416 0.951 . S
C385 C384 1.340 . S
C385 C386 1.439 . S
C385 H417 0.950 . S
C386 N382 1.374 . S
C386 C385 1.439 . S
C386 C411 1.395 . S
N387 Co376 1.995 . S
N387 C388 1.376 . S
N387 C391 1.383 . S
C388 N387 1.376 . S
C388 C389 1.446 . S
C388 C411 1.391 . S
C389 C388 1.446 . S
C389 C390 1.339 . S
C389 H418 0.949 . S
C390 C389 1.339 . S
C390 C391 1.439 . S
C390 H419 0.950 . S
C391 N387 1.383 . S
C391 C390 1.439 . S
C391 C409 1.392 . S
N392 Co376 2.282 . S
N392 C395 1.332 . S
N392 C397 1.332 . S
C393 C394 1.386 . S
C393 C396 1.388 . S
C394 C393 1.386 . S
C394 C395 1.382 . S
C394 H420 0.950 . S
C395 N392 1.332 . S
C395 C394 1.382 . S
C395 H406 0.952 . S
C396 C393 1.388 . S
C396 C397 1.382 . S
C396 H421 0.950 . S
C397 N392 1.332 . S
C397 C396 1.382 . S
C397 H407 0.948 . S
N398 Co376 2.282 . S
N398 C402 1.332 . S
N398 C403 1.332 . S
C399 C400 1.388 . S
C399 C403 1.382 . S
C399 H422 0.950 . S
C400 C399 1.388 . S
C400 C401 1.386 . S
C401 C400 1.386 . S
C401 C402 1.382 . S
C401 H423 0.950 . S
C402 N398 1.332 . S
C402 C401 1.382 . S
C402 H404 0.952 . S
C403 N398 1.332 . S
C403 C399 1.382 . S
C403 H405 0.948 . S
H404 C402 0.952 . S
H405 C403 0.948 . S
H406 C395 0.952 . S
H407 C397 0.948 . S
C408 C374 1.395 . S
C408 C378 1.391 . S
C409 C371 1.389 . S
C409 C391 1.392 . S
C410 C381 1.392 . S
C410 C383 1.389 . S
C411 C386 1.395 . S
C411 C388 1.391 . S
H412 C372 0.951 . S
H413 C373 0.950 . S
H414 C379 0.949 . S
H415 C380 0.950 . S
H416 C384 0.951 . S
H417 C385 0.950 . S
H418 C389 0.949 . S
H419 C390 0.950 . S
H420 C394 0.950 . S
H421 C396 0.950 . S
H422 C399 0.950 . S
H423 C401 0.950 . S
C424 C425 1.443 . S
C424 N428 1.376 . S
C424 C462 1.389 . S
C425 C424 1.443 . S
C425 C426 1.340 . S
C425 H465 0.951 . S
C426 C425 1.340 . S
C426 C427 1.439 . S
C426 H466 0.950 . S
C427 C426 1.439 . S
C427 N428 1.374 . S
C427 C461 1.395 . S
N428 C424 1.376 . S
N428 C427 1.374 . S
N428 Co429 2.008 . S
Co429 N428 2.008 . S
Co429 N430 1.995 1_554 S
Co429 N435 2.008 1_554 S
Co429 N440 1.995 . S
Co429 N445 2.282 . S
Co429 N451 2.282 1_554 S
N430 Co429 1.995 1_556 S
N430 C431 1.376 1_556 S
N430 C434 1.383 . S
C431 N430 1.376 1_554 S
C431 C432 1.446 1_554 S
C431 C461 1.391 . S
C432 C431 1.446 1_556 S
C432 C433 1.339 . S
C432 H467 0.949 . S
C433 C432 1.339 . S
C433 C434 1.439 . S
C433 H468 0.950 . S
C434 N430 1.383 . S
C434 C433 1.439 . S
C434 C463 1.392 . S
N435 Co429 2.008 1_556 S
N435 C436 1.376 . S
N435 C439 1.374 . S
C436 N435 1.376 . S
C436 C437 1.443 . S
C436 C463 1.389 . S
C437 C436 1.443 . S
C437 C438 1.340 . S
C437 H469 0.951 . S
C438 C437 1.340 . S
C438 C439 1.439 . S
C438 H470 0.950 . S
C439 N435 1.374 . S
C439 C438 1.439 . S
C439 C464 1.395 . S
N440 Co429 1.995 . S
N440 C441 1.376 1_554 S
N440 C444 1.383 . S
C441 N440 1.376 1_556 S
C441 C442 1.446 1_556 S
C441 C464 1.391 . S
C442 C441 1.446 1_554 S
C442 C443 1.339 . S
C442 H471 0.949 . S
C443 C442 1.339 . S
C443 C444 1.439 . S
C443 H472 0.950 . S
C444 N440 1.383 . S
C444 C443 1.439 . S
C444 C462 1.392 . S
N445 Co429 2.282 . S
N445 C448 1.332 1_554 S
N445 C450 1.332 . S
C446 C447 1.386 . S
C446 C449 1.388 1_556 S
C447 C446 1.386 . S
C447 C448 1.382 . S
C447 H473 0.950 . S
C448 N445 1.332 1_556 S
C448 C447 1.382 . S
C448 H459 0.952 . S
C449 C446 1.388 1_554 S
C449 C450 1.382 . S
C449 H474 0.950 . S
C450 N445 1.332 . S
C450 C449 1.382 . S
C450 H460 0.948 . S
N451 Co429 2.282 1_556 S
N451 C455 1.332 1_556 S
N451 C456 1.332 . S
C452 C453 1.388 1_556 S
C452 C456 1.382 . S
C452 H475 0.950 . S
C453 C452 1.388 1_554 S
C453 C454 1.386 . S
C454 C453 1.386 . S
C454 C455 1.382 . S
C454 H476 0.950 . S
C455 N451 1.332 1_554 S
C455 C454 1.382 . S
C455 H457 0.952 . S
C456 N451 1.332 . S
C456 C452 1.382 . S
C456 H458 0.948 . S
H457 C455 0.952 . S
H458 C456 0.948 . S
H459 C448 0.952 . S
H460 C450 0.948 . S
C461 C427 1.395 . S
C461 C431 1.391 . S
C462 C424 1.389 . S
C462 C444 1.392 . S
C463 C434 1.392 . S
C463 C436 1.389 . S
C464 C439 1.395 . S
C464 C441 1.391 . S
H465 C425 0.951 . S
H466 C426 0.950 . S
H467 C432 0.949 . S
H468 C433 0.950 . S
H469 C437 0.951 . S
H470 C438 0.950 . S
H471 C442 0.949 . S
H472 C443 0.950 . S
H473 C447 0.950 . S
H474 C449 0.950 . S
H475 C452 0.950 . S
H476 C454 0.950 . S
C477 C478 1.443 . S
C477 N481 1.376 . S
C477 C515 1.389 . S
C478 C477 1.443 . S
C478 C479 1.340 . S
C478 H518 0.951 . S
C479 C478 1.340 . S
C479 C480 1.439 . S
C479 H519 0.950 . S
C480 C479 1.439 . S
C480 N481 1.374 . S
C480 C514 1.395 . S
N481 C477 1.376 . S
N481 C480 1.374 . S
N481 Co482 2.008 . S
Co482 N481 2.008 . S
Co482 N483 1.995 . S
Co482 N488 2.008 . S
Co482 N493 1.995 . S
Co482 N498 2.282 . S
Co482 N504 2.282 . S
N483 Co482 1.995 . S
N483 C484 1.376 . S
N483 C487 1.383 . S
C484 N483 1.376 . S
C484 C485 1.446 . S
C484 C514 1.391 . S
C485 C484 1.446 . S
C485 C486 1.339 . S
C485 H520 0.949 . S
C486 C485 1.339 . S
C486 C487 1.439 . S
C486 H521 0.950 . S
C487 N483 1.383 . S
C487 C486 1.439 . S
C487 C516 1.392 . S
N488 Co482 2.008 . S
N488 C489 1.376 . S
N488 C492 1.374 . S
C489 N488 1.376 . S
C489 C490 1.443 . S
C489 C516 1.389 . S
C490 C489 1.443 . S
C490 C491 1.340 . S
C490 H522 0.951 . S
C491 C490 1.340 . S
C491 C492 1.439 . S
C491 H523 0.950 . S
C492 N488 1.374 . S
C492 C491 1.439 . S
C492 C517 1.395 . S
N493 Co482 1.995 . S
N493 C494 1.376 . S
N493 C497 1.383 . S
C494 N493 1.376 . S
C494 C495 1.446 . S
C494 C517 1.391 . S
C495 C494 1.446 . S
C495 C496 1.339 . S
C495 H524 0.949 . S
C496 C495 1.339 . S
C496 C497 1.439 . S
C496 H525 0.950 . S
C497 N493 1.383 . S
C497 C496 1.439 . S
C497 C515 1.392 . S
N498 Co482 2.282 . S
N498 C501 1.332 . S
N498 C503 1.332 . S
C499 C500 1.386 . S
C499 C502 1.388 . S
C500 C499 1.386 . S
C500 C501 1.382 . S
C500 H526 0.950 . S
C501 N498 1.332 . S
C501 C500 1.382 . S
C501 H512 0.952 . S
C502 C499 1.388 . S
C502 C503 1.382 . S
C502 H527 0.950 . S
C503 N498 1.332 . S
C503 C502 1.382 . S
C503 H513 0.948 . S
N504 Co482 2.282 . S
N504 C508 1.332 . S
N504 C509 1.332 . S
C505 C506 1.388 . S
C505 C509 1.382 . S
C505 H528 0.950 . S
C506 C505 1.388 . S
C506 C507 1.386 . S
C507 C506 1.386 . S
C507 C508 1.382 . S
C507 H529 0.950 . S
C508 N504 1.332 . S
C508 C507 1.382 . S
C508 H510 0.952 . S
C509 N504 1.332 . S
C509 C505 1.382 . S
C509 H511 0.948 . S
H510 C508 0.952 . S
H511 C509 0.948 . S
H512 C501 0.952 . S
H513 C503 0.948 . S
C514 C480 1.395 . S
C514 C484 1.391 . S
C515 C477 1.389 . S
C515 C497 1.392 . S
C516 C487 1.392 . S
C516 C489 1.389 . S
C517 C492 1.395 . S
C517 C494 1.391 . S
H518 C478 0.951 . S
H519 C479 0.950 . S
H520 C485 0.949 . S
H521 C486 0.950 . S
H522 C490 0.951 . S
H523 C491 0.950 . S
H524 C495 0.949 . S
H525 C496 0.950 . S
H526 C500 0.950 . S
H527 C502 0.950 . S
H528 C505 0.950 . S
H529 C507 0.950 . S
C530 C531 1.443 . S
C530 N534 1.376 . S
C530 C568 1.389 . S
C531 C530 1.443 . S
C531 C532 1.340 . S
C531 H571 0.951 . S
C532 C531 1.340 . S
C532 C533 1.439 . S
C532 H572 0.950 . S
C533 C532 1.439 . S
C533 N534 1.374 . S
C533 C567 1.395 . S
N534 C530 1.376 . S
N534 C533 1.374 . S
N534 Co535 2.008 . S
Co535 N534 2.008 . S
Co535 N536 1.995 . S
Co535 N541 2.008 . S
Co535 N546 1.995 . S
Co535 N551 2.282 . S
Co535 N557 2.282 . S
N536 Co535 1.995 . S
N536 C537 1.376 . S
N536 C540 1.383 . S
C537 N536 1.376 . S
C537 C538 1.446 . S
C537 C567 1.391 . S
C538 C537 1.446 . S
C538 C539 1.339 . S
C538 H573 0.949 . S
C539 C538 1.339 . S
C539 C540 1.439 . S
C539 H574 0.950 . S
C540 N536 1.383 . S
C540 C539 1.439 . S
C540 C569 1.392 . S
N541 Co535 2.008 . S
N541 C542 1.376 . S
N541 C545 1.374 . S
C542 N541 1.376 . S
C542 C543 1.443 . S
C542 C569 1.389 . S
C543 C542 1.443 . S
C543 C544 1.340 . S
C543 H575 0.951 . S
C544 C543 1.340 . S
C544 C545 1.439 . S
C544 H576 0.950 . S
C545 N541 1.374 . S
C545 C544 1.439 . S
C545 C570 1.395 . S
N546 Co535 1.995 . S
N546 C547 1.376 . S
N546 C550 1.383 . S
C547 N546 1.376 . S
C547 C548 1.446 . S
C547 C570 1.391 . S
C548 C547 1.446 . S
C548 C549 1.339 . S
C548 H577 0.949 . S
C549 C548 1.339 . S
C549 C550 1.439 . S
C549 H578 0.950 . S
C550 N546 1.383 . S
C550 C549 1.439 . S
C550 C568 1.392 . S
N551 Co535 2.282 . S
N551 C554 1.332 . S
N551 C556 1.332 . S
C552 C553 1.386 . S
C552 C555 1.388 . S
C553 C552 1.386 . S
C553 C554 1.382 . S
C553 H579 0.950 . S
C554 N551 1.332 . S
C554 C553 1.382 . S
C554 H565 0.952 . S
C555 C552 1.388 . S
C555 C556 1.382 . S
C555 H580 0.950 . S
C556 N551 1.332 . S
C556 C555 1.382 . S
C556 H566 0.948 . S
N557 Co535 2.282 . S
N557 C561 1.332 . S
N557 C562 1.332 . S
C558 C559 1.388 . S
C558 C562 1.382 . S
C558 H581 0.950 . S
C559 C558 1.388 . S
C559 C560 1.386 . S
C560 C559 1.386 . S
C560 C561 1.382 . S
C560 H582 0.950 . S
C561 N557 1.332 . S
C561 C560 1.382 . S
C561 H563 0.952 . S
C562 N557 1.332 . S
C562 C558 1.382 . S
C562 H564 0.948 . S
H563 C561 0.952 . S
H564 C562 0.948 . S
H565 C554 0.952 . S
H566 C556 0.948 . S
C567 C533 1.395 . S
C567 C537 1.391 . S
C568 C530 1.389 . S
C568 C550 1.392 . S
C569 C540 1.392 . S
C569 C542 1.389 . S
C570 C545 1.395 . S
C570 C547 1.391 . S
H571 C531 0.951 . S
H572 C532 0.950 . S
H573 C538 0.949 . S
H574 C539 0.950 . S
H575 C543 0.951 . S
H576 C544 0.950 . S
H577 C548 0.949 . S
H578 C549 0.950 . S
H579 C553 0.950 . S
H580 C555 0.950 . S
H581 C558 0.950 . S
H582 C560 0.950 . S
C583 C584 1.443 . S
C583 N587 1.376 . S
C583 C621 1.389 . S
C584 C583 1.443 . S
C584 C585 1.340 . S
C584 H624 0.951 . S
C585 C584 1.340 . S
C585 C586 1.439 . S
C585 H625 0.950 . S
C586 C585 1.439 . S
C586 N587 1.374 . S
C586 C620 1.395 . S
N587 C583 1.376 . S
N587 C586 1.374 . S
N587 Co588 2.008 . S
Co588 N587 2.008 . S
Co588 N589 1.995 1_554 S
Co588 N594 2.008 1_554 S
Co588 N599 1.995 . S
Co588 N604 2.282 . S
Co588 N610 2.282 1_554 S
N589 Co588 1.995 1_556 S
N589 C590 1.376 1_556 S
N589 C593 1.383 . S
C590 N589 1.376 1_554 S
C590 C591 1.446 1_554 S
C590 C620 1.391 . S
C591 C590 1.446 1_556 S
C591 C592 1.339 . S
C591 H626 0.949 . S
C592 C591 1.339 . S
C592 C593 1.439 . S
C592 H627 0.950 . S
C593 N589 1.383 . S
C593 C592 1.439 . S
C593 C622 1.392 . S
N594 Co588 2.008 1_556 S
N594 C595 1.376 . S
N594 C598 1.374 . S
C595 N594 1.376 . S
C595 C596 1.443 . S
C595 C622 1.389 . S
C596 C595 1.443 . S
C596 C597 1.340 . S
C596 H628 0.951 . S
C597 C596 1.340 . S
C597 C598 1.439 . S
C597 H629 0.950 . S
C598 N594 1.374 . S
C598 C597 1.439 . S
C598 C623 1.395 . S
N599 Co588 1.995 . S
N599 C600 1.376 1_554 S
N599 C603 1.383 . S
C600 N599 1.376 1_556 S
C600 C601 1.446 1_556 S
C600 C623 1.391 . S
C601 C600 1.446 1_554 S
C601 C602 1.339 . S
C601 H630 0.949 . S
C602 C601 1.339 . S
C602 C603 1.439 . S
C602 H631 0.950 . S
C603 N599 1.383 . S
C603 C602 1.439 . S
C603 C621 1.392 . S
N604 Co588 2.282 . S
N604 C607 1.332 1_554 S
N604 C609 1.332 . S
C605 C606 1.386 . S
C605 C608 1.388 1_556 S
C606 C605 1.386 . S
C606 C607 1.382 . S
C606 H632 0.950 . S
C607 N604 1.332 1_556 S
C607 C606 1.382 . S
C607 H618 0.952 . S
C608 C605 1.388 1_554 S
C608 C609 1.382 . S
C608 H633 0.950 . S
C609 N604 1.332 . S
C609 C608 1.382 . S
C609 H619 0.948 . S
N610 Co588 2.282 1_556 S
N610 C614 1.332 1_556 S
N610 C615 1.332 . S
C611 C612 1.388 1_556 S
C611 C615 1.382 . S
C611 H634 0.950 . S
C612 C611 1.388 1_554 S
C612 C613 1.386 . S
C613 C612 1.386 . S
C613 C614 1.382 . S
C613 H635 0.950 . S
C614 N610 1.332 1_554 S
C614 C613 1.382 . S
C614 H616 0.952 . S
C615 N610 1.332 . S
C615 C611 1.382 . S
C615 H617 0.948 . S
H616 C614 0.952 . S
H617 C615 0.948 . S
H618 C607 0.952 . S
H619 C609 0.948 . S
C620 C586 1.395 . S
C620 C590 1.391 . S
C621 C583 1.389 . S
C621 C603 1.392 . S
C622 C593 1.392 . S
C622 C595 1.389 . S
C623 C598 1.395 . S
C623 C600 1.391 . S
H624 C584 0.951 . S
H625 C585 0.950 . S
H626 C591 0.949 . S
H627 C592 0.950 . S
H628 C596 0.951 . S
H629 C597 0.950 . S
H630 C601 0.949 . S
H631 C602 0.950 . S
H632 C606 0.950 . S
H633 C608 0.950 . S
H634 C611 0.950 . S
H635 C613 0.950 . S
C636 C637 1.363 . S
C636 C642 1.379 . S
C636 N644 1.356 . S
C637 C636 1.363 . S
C637 C643 1.363 . S
C638 C639 1.363 . S
C638 C643 1.379 . S
C638 N645 1.356 . S
C639 C638 1.363 . S
C639 C642 1.363 . S
N640 C642 1.356 . S
N640 H652 0.984 . S
N640 H653 0.985 . S
N641 C643 1.356 . S
N641 H646 0.984 . S
N641 H647 0.985 . S
C642 C636 1.379 . S
C642 C639 1.363 . S
C642 N640 1.356 . S
C643 C637 1.363 . S
C643 C638 1.379 . S
C643 N641 1.356 . S
N644 C636 1.356 . S
N644 H650 0.984 . S
N644 H651 0.984 . S
N645 C638 1.356 . S
N645 H648 0.984 . S
N645 H649 0.985 . S
H646 N641 0.984 . S
H647 N641 0.985 . S
H648 N645 0.984 . S
H649 N645 0.985 . S
H650 N644 0.984 . S
H651 N644 0.984 . S
H652 N640 0.984 . S
H653 N640 0.985 . S
C654 C655 1.363 . S
C654 C660 1.379 . S
C654 N662 1.356 . S
C655 C654 1.363 . S
C655 C661 1.363 . S
C656 C657 1.363 . S
C656 C661 1.379 . S
C656 N663 1.356 . S
C657 C656 1.363 . S
C657 C660 1.363 . S
N658 C660 1.356 . S
N658 H670 0.984 . S
N658 H671 0.985 . S
N659 C661 1.356 . S
N659 H664 0.984 . S
N659 H665 0.985 . S
C660 C654 1.379 . S
C660 C657 1.363 . S
C660 N658 1.356 . S
C661 C655 1.363 . S
C661 C656 1.379 . S
C661 N659 1.356 . S
N662 C654 1.356 . S
N662 H668 0.984 . S
N662 H669 0.984 . S
N663 C656 1.356 . S
N663 H666 0.984 . S
N663 H667 0.985 . S
H664 N659 0.984 . S
H665 N659 0.985 . S
H666 N663 0.984 . S
H667 N663 0.985 . S
H668 N662 0.984 . S
H669 N662 0.984 . S
H670 N658 0.984 . S
H671 N658 0.985 . S
C672 C673 1.363 . S
C672 C678 1.379 . S
C672 N680 1.356 . S
C673 C672 1.363 . S
C673 C679 1.363 . S
C674 C675 1.363 . S
C674 C679 1.379 . S
C674 N681 1.356 . S
C675 C674 1.363 . S
C675 C678 1.363 . S
N676 C678 1.356 . S
N676 H688 0.984 . S
N676 H689 0.985 . S
N677 C679 1.356 . S
N677 H682 0.984 . S
N677 H683 0.985 . S
C678 C672 1.379 . S
C678 C675 1.363 . S
C678 N676 1.356 . S
C679 C673 1.363 . S
C679 C674 1.379 . S
C679 N677 1.356 . S
N680 C672 1.356 . S
N680 H686 0.984 . S
N680 H687 0.984 . S
N681 C674 1.356 . S
N681 H684 0.984 . S
N681 H685 0.985 . S
H682 N677 0.984 . S
H683 N677 0.985 . S
H684 N681 0.984 . S
H685 N681 0.985 . S
H686 N680 0.984 . S
H687 N680 0.984 . S
H688 N676 0.984 . S
H689 N676 0.985 . S
C690 C691 1.363 . S
C690 C696 1.379 . S
C690 N698 1.356 . S
C691 C690 1.363 . S
C691 C697 1.363 . S
C692 C693 1.363 . S
C692 C697 1.379 . S
C692 N699 1.356 . S
C693 C692 1.363 . S
C693 C696 1.363 . S
N694 C696 1.356 . S
N694 H706 0.984 . S
N694 H707 0.985 . S
N695 C697 1.356 . S
N695 H700 0.984 . S
N695 H701 0.985 . S
C696 C690 1.379 . S
C696 C693 1.363 . S
C696 N694 1.356 . S
C697 C691 1.363 . S
C697 C692 1.379 . S
C697 N695 1.356 . S
N698 C690 1.356 . S
N698 H704 0.984 . S
N698 H705 0.984 . S
N699 C692 1.356 . S
N699 H702 0.984 . S
N699 H703 0.985 . S
H700 N695 0.984 . S
H701 N695 0.985 . S
H702 N699 0.984 . S
H703 N699 0.985 . S
H704 N698 0.984 . S
H705 N698 0.984 . S
H706 N694 0.984 . S
H707 N694 0.985 . S
C708 C709 1.363 . S
C708 C714 1.379 . S
C708 N716 1.356 . S
C709 C708 1.363 . S
C709 C715 1.363 . S
C710 C711 1.363 . S
C710 C715 1.379 . S
C710 N717 1.356 . S
C711 C710 1.363 . S
C711 C714 1.363 . S
N712 C714 1.356 . S
N712 H724 0.984 . S
N712 H725 0.985 . S
N713 C715 1.356 . S
N713 H718 0.984 . S
N713 H719 0.985 . S
C714 C708 1.379 . S
C714 C711 1.363 . S
C714 N712 1.356 . S
C715 C709 1.363 . S
C715 C710 1.379 . S
C715 N713 1.356 . S
N716 C708 1.356 . S
N716 H722 0.984 . S
N716 H723 0.984 . S
N717 C710 1.356 . S
N717 H720 0.984 . S
N717 H721 0.985 . S
H718 N713 0.984 . S
H719 N713 0.985 . S
H720 N717 0.984 . S
H721 N717 0.985 . S
H722 N716 0.984 . S
H723 N716 0.984 . S
H724 N712 0.984 . S
H725 N712 0.985 . S
C726 C727 1.363 . S
C726 C732 1.379 . S
C726 N734 1.356 . S
C727 C726 1.363 . S
C727 C733 1.363 . S
C728 C729 1.363 . S
C728 C733 1.379 . S
C728 N735 1.356 . S
C729 C728 1.363 . S
C729 C732 1.363 . S
N730 C732 1.356 . S
N730 H742 0.984 . S
N730 H743 0.985 . S
N731 C733 1.356 . S
N731 H736 0.984 . S
N731 H737 0.985 . S
C732 C726 1.379 . S
C732 C729 1.363 . S
C732 N730 1.356 . S
C733 C727 1.363 . S
C733 C728 1.379 . S
C733 N731 1.356 . S
N734 C726 1.356 . S
N734 H740 0.984 . S
N734 H741 0.984 . S
N735 C728 1.356 . S
N735 H738 0.984 . S
N735 H739 0.985 . S
H736 N731 0.984 . S
H737 N731 0.985 . S
H738 N735 0.984 . S
H739 N735 0.985 . S
H740 N734 0.984 . S
H741 N734 0.984 . S
H742 N730 0.984 . S
H743 N730 0.985 . S
C744 C745 1.363 . S
C744 C750 1.379 . S
C744 N752 1.356 . S
C745 C744 1.363 . S
C745 C751 1.363 . S
C746 C747 1.363 . S
C746 C751 1.379 . S
C746 N753 1.356 . S
C747 C746 1.363 . S
C747 C750 1.363 . S
N748 C750 1.356 . S
N748 H760 0.984 . S
N748 H761 0.985 . S
N749 C751 1.356 . S
N749 H754 0.984 . S
N749 H755 0.985 . S
C750 C744 1.379 . S
C750 C747 1.363 . S
C750 N748 1.356 . S
C751 C745 1.363 . S
C751 C746 1.379 . S
C751 N749 1.356 . S
N752 C744 1.356 . S
N752 H758 0.984 . S
N752 H759 0.984 . S
N753 C746 1.356 . S
N753 H756 0.984 . S
N753 H757 0.985 . S
H754 N749 0.984 . S
H755 N749 0.985 . S
H756 N753 0.984 . S
H757 N753 0.985 . S
H758 N752 0.984 . S
H759 N752 0.984 . S
H760 N748 0.984 . S
H761 N748 0.985 . S
C762 C763 1.363 . S
C762 C768 1.379 . S
C762 N770 1.356 . S
C763 C762 1.363 . S
C763 C769 1.363 . S
C764 C765 1.363 . S
C764 C769 1.379 . S
C764 N771 1.356 . S
C765 C764 1.363 . S
C765 C768 1.363 . S
N766 C768 1.356 . S
N766 H778 0.984 . S
N766 H779 0.985 . S
N767 C769 1.356 . S
N767 H772 0.984 . S
N767 H773 0.985 . S
C768 C762 1.379 . S
C768 C765 1.363 . S
C768 N766 1.356 . S
C769 C763 1.363 . S
C769 C764 1.379 . S
C769 N767 1.356 . S
N770 C762 1.356 . S
N770 H776 0.984 . S
N770 H777 0.984 . S
N771 C764 1.356 . S
N771 H774 0.984 . S
N771 H775 0.985 . S
H772 N767 0.984 . S
H773 N767 0.985 . S
H774 N771 0.984 . S
H775 N771 0.985 . S
H776 N770 0.984 . S
H777 N770 0.984 . S
H778 N766 0.984 . S
H779 N766 0.985 . S
C780 C781 1.363 . S
C780 C786 1.379 . S
C780 N788 1.356 . S
C781 C780 1.363 . S
C781 C787 1.363 1_554 S
C782 C783 1.363 . S
C782 C787 1.379 . S
C782 N789 1.356 . S
C783 C782 1.363 . S
C783 C786 1.363 1_556 S
N784 C786 1.356 . S
N784 H796 0.984 . S
N784 H797 0.985 . S
N785 C787 1.356 . S
N785 H790 0.984 . S
N785 H791 0.985 . S
C786 C780 1.379 . S
C786 C783 1.363 1_554 S
C786 N784 1.356 . S
C787 C781 1.363 1_556 S
C787 C782 1.379 . S
C787 N785 1.356 . S
N788 C780 1.356 . S
N788 H794 0.984 . S
N788 H795 0.984 . S
N789 C782 1.356 . S
N789 H792 0.984 . S
N789 H793 0.985 . S
H790 N785 0.984 . S
H791 N785 0.985 . S
H792 N789 0.984 . S
H793 N789 0.985 . S
H794 N788 0.984 . S
H795 N788 0.984 . S
H796 N784 0.984 . S
H797 N784 0.985 . S
C798 C799 1.363 . S
C798 C804 1.379 . S
C798 N806 1.356 . S
C799 C798 1.363 . S
C799 C805 1.363 . S
C800 C801 1.363 . S
C800 C805 1.379 . S
C800 N807 1.356 . S
C801 C800 1.363 . S
C801 C804 1.363 . S
N802 C804 1.356 . S
N802 H814 0.984 . S
N802 H815 0.985 . S
N803 C805 1.356 . S
N803 H808 0.984 . S
N803 H809 0.985 . S
C804 C798 1.379 . S
C804 C801 1.363 . S
C804 N802 1.356 . S
C805 C799 1.363 . S
C805 C800 1.379 . S
C805 N803 1.356 . S
N806 C798 1.356 . S
N806 H812 0.984 . S
N806 H813 0.984 . S
N807 C800 1.356 . S
N807 H810 0.984 . S
N807 H811 0.985 . S
H808 N803 0.984 . S
H809 N803 0.985 . S
H810 N807 0.984 . S
H811 N807 0.985 . S
H812 N806 0.984 . S
H813 N806 0.984 . S
H814 N802 0.984 . S
H815 N802 0.985 . S
C816 C817 1.363 . S
C816 C822 1.379 . S
C816 N824 1.356 . S
C817 C816 1.363 . S
C817 C823 1.363 . S
C818 C819 1.363 . S
C818 C823 1.379 . S
C818 N825 1.356 . S
C819 C818 1.363 . S
C819 C822 1.363 . S
N820 C822 1.356 . S
N820 H832 0.984 . S
N820 H833 0.985 . S
N821 C823 1.356 . S
N821 H826 0.984 . S
N821 H827 0.985 . S
C822 C816 1.379 . S
C822 C819 1.363 . S
C822 N820 1.356 . S
C823 C817 1.363 . S
C823 C818 1.379 . S
C823 N821 1.356 . S
N824 C816 1.356 . S
N824 H830 0.984 . S
N824 H831 0.984 . S
N825 C818 1.356 . S
N825 H828 0.984 . S
N825 H829 0.985 . S
H826 N821 0.984 . S
H827 N821 0.985 . S
H828 N825 0.984 . S
H829 N825 0.985 . S
H830 N824 0.984 . S
H831 N824 0.984 . S
H832 N820 0.984 . S
H833 N820 0.985 . S
C834 C835 1.363 . S
C834 C840 1.379 . S
C834 N842 1.356 . S
C835 C834 1.363 . S
C835 C841 1.363 1_556 S
C836 C837 1.363 . S
C836 C841 1.379 . S
C836 N843 1.356 . S
C837 C836 1.363 . S
C837 C840 1.363 1_554 S
N838 C840 1.356 . S
N838 H850 0.984 . S
N838 H851 0.985 . S
N839 C841 1.356 . S
N839 H844 0.984 . S
N839 H845 0.985 . S
C840 C834 1.379 . S
C840 C837 1.363 1_556 S
C840 N838 1.356 . S
C841 C835 1.363 1_554 S
C841 C836 1.379 . S
C841 N839 1.356 . S
N842 C834 1.356 . S
N842 H848 0.984 . S
N842 H849 0.984 . S
N843 C836 1.356 . S
N843 H846 0.984 . S
N843 H847 0.985 . S
H844 N839 0.984 . S
H845 N839 0.985 . S
H846 N843 0.984 . S
H847 N843 0.985 . S
H848 N842 0.984 . S
H849 N842 0.984 . S
H850 N838 0.984 . S
H851 N838 0.985 . S
C852 C853 1.363 1_565 S
C852 C858 1.379 . S
C852 N860 1.356 . S
C853 C852 1.363 1_545 S
C853 C859 1.363 . S
C854 C855 1.363 1_545 S
C854 C859 1.379 . S
C854 N861 1.356 . S
C855 C854 1.363 1_565 S
C855 C858 1.363 . S
N856 C858 1.356 . S
N856 H868 0.984 . S
N856 H869 0.985 . S
N857 C859 1.356 . S
N857 H862 0.984 . S
N857 H863 0.985 . S
C858 C852 1.379 . S
C858 C855 1.363 . S
C858 N856 1.356 . S
C859 C853 1.363 . S
C859 C854 1.379 . S
C859 N857 1.356 . S
N860 C852 1.356 . S
N860 H866 0.984 . S
N860 H867 0.984 1_565 S
N861 C854 1.356 . S
N861 H864 0.984 1_545 S
N861 H865 0.985 . S
H862 N857 0.984 . S
H863 N857 0.985 . S
H864 N861 0.984 1_565 S
H865 N861 0.985 . S
H866 N860 0.984 . S
H867 N860 0.984 1_545 S
H868 N856 0.984 . S
H869 N856 0.985 . S
C870 C871 1.363 . S
C870 C876 1.379 . S
C870 N878 1.356 . S
C871 C870 1.363 . S
C871 C877 1.363 . S
C872 C873 1.363 . S
C872 C877 1.379 . S
C872 N879 1.356 . S
C873 C872 1.363 . S
C873 C876 1.363 . S
N874 C876 1.356 . S
N874 H886 0.984 . S
N874 H887 0.985 . S
N875 C877 1.356 . S
N875 H880 0.984 . S
N875 H881 0.985 . S
C876 C870 1.379 . S
C876 C873 1.363 . S
C876 N874 1.356 . S
C877 C871 1.363 . S
C877 C872 1.379 . S
C877 N875 1.356 . S
N878 C870 1.356 . S
N878 H884 0.984 . S
N878 H885 0.984 . S
N879 C872 1.356 . S
N879 H882 0.984 . S
N879 H883 0.985 . S
H880 N875 0.984 . S
H881 N875 0.985 . S
H882 N879 0.984 . S
H883 N879 0.985 . S
H884 N878 0.984 . S
H885 N878 0.984 . S
H886 N874 0.984 . S
H887 N874 0.985 . S
C888 C889 1.363 1_456 S
C888 C894 1.379 . S
C888 N896 1.356 . S
C889 C888 1.363 1_654 S
C889 C895 1.363 . S
C890 C891 1.363 1_655 S
C890 C895 1.379 . S
C890 N897 1.356 . S
C891 C890 1.363 1_455 S
C891 C894 1.363 1_554 S
N892 C894 1.356 . S
N892 H904 0.984 . S
N892 H905 0.985 . S
N893 C895 1.356 . S
N893 H898 0.984 . S
N893 H899 0.985 . S
C894 C888 1.379 . S
C894 C891 1.363 1_556 S
C894 N892 1.356 . S
C895 C889 1.363 . S
C895 C890 1.379 . S
C895 N893 1.356 . S
N896 C888 1.356 . S
N896 H902 0.984 . S
N896 H903 0.984 1_455 S
N897 C890 1.356 . S
N897 H900 0.984 1_655 S
N897 H901 0.985 . S
H898 N893 0.984 . S
H899 N893 0.985 . S
H900 N897 0.984 1_455 S
H901 N897 0.985 . S
H902 N896 0.984 . S
H903 N896 0.984 1_655 S
H904 N892 0.984 . S
H905 N892 0.985 . S
C906 C907 1.363 1_655 S
C906 C912 1.379 . S
C906 N914 1.356 . S
C907 C906 1.363 1_455 S
C907 C913 1.363 . S
C908 C909 1.363 1_455 S
C908 C913 1.379 . S
C908 N915 1.356 . S
C909 C908 1.363 1_655 S
C909 C912 1.363 . S
N910 C912 1.356 . S
N910 H922 0.984 . S
N910 H923 0.985 . S
N911 C913 1.356 . S
N911 H916 0.984 . S
N911 H917 0.985 . S
C912 C906 1.379 . S
C912 C909 1.363 . S
C912 N910 1.356 . S
C913 C907 1.363 . S
C913 C908 1.379 . S
C913 N911 1.356 . S
N914 C906 1.356 . S
N914 H920 0.984 . S
N914 H921 0.984 1_655 S
N915 C908 1.356 . S
N915 H918 0.984 1_455 S
N915 H919 0.985 . S
H916 N911 0.984 . S
H917 N911 0.985 . S
H918 N915 0.984 1_655 S
H919 N915 0.985 . S
H920 N914 0.984 . S
H921 N914 0.984 1_455 S
H922 N910 0.984 . S
H923 N910 0.985 . S
C924 C925 1.363 . S
C924 C930 1.379 . S
C924 N932 1.356 . S
C925 C924 1.363 . S
C925 C931 1.363 1_545 S
C926 C927 1.363 . S
C926 C931 1.379 . S
C926 N933 1.356 . S
C927 C926 1.363 . S
C927 C930 1.363 1_565 S
N928 C930 1.356 . S
N928 H940 0.984 . S
N928 H941 0.985 1_545 S
N929 C931 1.356 . S
N929 H934 0.984 1_565 S
N929 H935 0.985 . S
C930 C924 1.379 . S
C930 C927 1.363 1_545 S
C930 N928 1.356 . S
C931 C925 1.363 1_565 S
C931 C926 1.379 . S
C931 N929 1.356 . S
N932 C924 1.356 . S
N932 H938 0.984 . S
N932 H939 0.984 . S
N933 C926 1.356 . S
N933 H936 0.984 . S
N933 H937 0.985 . S
H934 N929 0.984 1_545 S
H935 N929 0.985 . S
H936 N933 0.984 . S
H937 N933 0.985 . S
H938 N932 0.984 . S
H939 N932 0.984 . S
H940 N928 0.984 . S
H941 N928 0.985 1_565 S
C942 C943 1.363 . S
C942 C948 1.379 . S
C942 N950 1.356 . S
C943 C942 1.363 . S
C943 C949 1.363 1_556 S
C944 C945 1.363 1_554 S
C944 C949 1.379 . S
C944 N951 1.356 . S
C945 C944 1.363 1_556 S
C945 C948 1.363 . S
N946 C948 1.356 . S
N946 H958 0.984 . S
N946 H959 0.985 . S
N947 C949 1.356 . S
N947 H952 0.984 . S
N947 H953 0.985 . S
C948 C942 1.379 . S
C948 C945 1.363 . S
C948 N946 1.356 . S
C949 C943 1.363 1_554 S
C949 C944 1.379 . S
C949 N947 1.356 . S
N950 C942 1.356 . S
N950 H956 0.984 . S
N950 H957 0.984 . S
N951 C944 1.356 . S
N951 H954 0.984 . S
N951 H955 0.985 . S
H952 N947 0.984 . S
H953 N947 0.985 . S
H954 N951 0.984 . S
H955 N951 0.985 . S
H956 N950 0.984 . S
H957 N950 0.984 . S
H958 N946 0.984 . S
H959 N946 0.985 . S
C960 C961 1.363 . S
C960 C966 1.379 . S
C960 N968 1.356 . S
C961 C960 1.363 . S
C961 C967 1.363 . S
C962 C963 1.363 . S
C962 C967 1.379 . S
C962 N969 1.356 . S
C963 C962 1.363 . S
C963 C966 1.363 . S
N964 C966 1.356 . S
N964 H976 0.984 . S
N964 H977 0.985 . S
N965 C967 1.356 . S
N965 H970 0.984 . S
N965 H971 0.985 . S
C966 C960 1.379 . S
C966 C963 1.363 . S
C966 N964 1.356 . S
C967 C961 1.363 . S
C967 C962 1.379 . S
C967 N965 1.356 . S
N968 C960 1.356 . S
N968 H974 0.984 . S
N968 H975 0.984 . S
N969 C962 1.356 . S
N969 H972 0.984 . S
N969 H973 0.985 . S
H970 N965 0.984 . S
H971 N965 0.985 . S
H972 N969 0.984 . S
H973 N969 0.985 . S
H974 N968 0.984 . S
H975 N968 0.984 . S
H976 N964 0.984 . S
H977 N964 0.985 . S
C978 C979 1.363 . S
C978 C984 1.379 . S
C978 N986 1.356 . S
C979 C978 1.363 . S
C979 C985 1.363 . S
C980 C981 1.363 . S
C980 C985 1.379 . S
C980 N987 1.356 . S
C981 C980 1.363 . S
C981 C984 1.363 . S
N982 C984 1.356 . S
N982 H994 0.984 . S
N982 H995 0.985 . S
N983 C985 1.356 . S
N983 H988 0.984 . S
N983 H989 0.985 . S
C984 C978 1.379 . S
C984 C981 1.363 . S
C984 N982 1.356 . S
C985 C979 1.363 . S
C985 C980 1.379 . S
C985 N983 1.356 . S
N986 C978 1.356 . S
N986 H992 0.984 . S
N986 H993 0.984 . S
N987 C980 1.356 . S
N987 H990 0.984 . S
N987 H991 0.985 . S
H988 N983 0.984 . S
H989 N983 0.985 . S
H990 N987 0.984 . S
H991 N987 0.985 . S
H992 N986 0.984 . S
H993 N986 0.984 . S
H994 N982 0.984 . S
H995 N982 0.985 . S
C996 C997 1.363 . S
C996 C1002 1.379 . S
C996 N1004 1.356 . S
C997 C996 1.363 . S
C997 C1003 1.363 . S
C998 C999 1.363 . S
C998 C1003 1.379 . S
C998 N1005 1.356 . S
C999 C998 1.363 . S
C999 C1002 1.363 . S
N1000 C1002 1.356 . S
N1000 H1012 0.984 . S
N1000 H1013 0.985 . S
N1001 C1003 1.356 . S
N1001 H1006 0.984 . S
N1001 H1007 0.985 . S
C1002 C996 1.379 . S
C1002 C999 1.363 . S
C1002 N1000 1.356 . S
C1003 C997 1.363 . S
C1003 C998 1.379 . S
C1003 N1001 1.356 . S
N1004 C996 1.356 . S
N1004 H1010 0.984 . S
N1004 H1011 0.984 . S
N1005 C998 1.356 . S
N1005 H1008 0.984 . S
N1005 H1009 0.985 . S
H1006 N1001 0.984 . S
H1007 N1001 0.985 . S
H1008 N1005 0.984 . S
H1009 N1005 0.985 . S
H1010 N1004 0.984 . S
H1011 N1004 0.984 . S
H1012 N1000 0.984 . S
H1013 N1000 0.985 . S
C1014 C1015 1.363 . S
C1014 C1020 1.379 . S
C1014 N1022 1.356 . S
C1015 C1014 1.363 . S
C1015 C1021 1.363 . S
C1016 C1017 1.363 . S
C1016 C1021 1.379 . S
C1016 N1023 1.356 . S
C1017 C1016 1.363 . S
C1017 C1020 1.363 . S
N1018 C1020 1.356 . S
N1018 H1030 0.984 . S
N1018 H1031 0.985 . S
N1019 C1021 1.356 . S
N1019 H1024 0.984 . S
N1019 H1025 0.985 . S
C1020 C1014 1.379 . S
C1020 C1017 1.363 . S
C1020 N1018 1.356 . S
C1021 C1015 1.363 . S
C1021 C1016 1.379 . S
C1021 N1019 1.356 . S
N1022 C1014 1.356 . S
N1022 H1028 0.984 . S
N1022 H1029 0.984 . S
N1023 C1016 1.356 . S
N1023 H1026 0.984 . S
N1023 H1027 0.985 . S
H1024 N1019 0.984 . S
H1025 N1019 0.985 . S
H1026 N1023 0.984 . S
H1027 N1023 0.985 . S
H1028 N1022 0.984 . S
H1029 N1022 0.984 . S
H1030 N1018 0.984 . S
H1031 N1018 0.985 . S
C1032 C1033 1.363 . S
C1032 C1038 1.379 . S
C1032 N1040 1.356 . S
C1033 C1032 1.363 . S
C1033 C1039 1.363 . S
C1034 C1035 1.363 . S
C1034 C1039 1.379 . S
C1034 N1041 1.356 . S
C1035 C1034 1.363 . S
C1035 C1038 1.363 . S
N1036 C1038 1.356 . S
N1036 H1048 0.984 . S
N1036 H1049 0.985 . S
N1037 C1039 1.356 . S
N1037 H1042 0.984 . S
N1037 H1043 0.985 . S
C1038 C1032 1.379 . S
C1038 C1035 1.363 . S
C1038 N1036 1.356 . S
C1039 C1033 1.363 . S
C1039 C1034 1.379 . S
C1039 N1037 1.356 . S
N1040 C1032 1.356 . S
N1040 H1046 0.984 . S
N1040 H1047 0.984 . S
N1041 C1034 1.356 . S
N1041 H1044 0.984 . S
N1041 H1045 0.985 . S
H1042 N1037 0.984 . S
H1043 N1037 0.985 . S
H1044 N1041 0.984 . S
H1045 N1041 0.985 . S
H1046 N1040 0.984 . S
H1047 N1040 0.984 . S
H1048 N1036 0.984 . S
H1049 N1036 0.985 . S
C1050 C1051 1.363 . S
C1050 C1056 1.379 . S
C1050 N1058 1.356 . S
C1051 C1050 1.363 . S
C1051 C1057 1.363 . S
C1052 C1053 1.363 . S
C1052 C1057 1.379 . S
C1052 N1059 1.356 . S
C1053 C1052 1.363 . S
C1053 C1056 1.363 . S
N1054 C1056 1.356 . S
N1054 H1066 0.984 . S
N1054 H1067 0.985 . S
N1055 C1057 1.356 . S
N1055 H1060 0.984 . S
N1055 H1061 0.985 . S
C1056 C1050 1.379 . S
C1056 C1053 1.363 . S
C1056 N1054 1.356 . S
C1057 C1051 1.363 . S
C1057 C1052 1.379 . S
C1057 N1055 1.356 . S
N1058 C1050 1.356 . S
N1058 H1064 0.984 . S
N1058 H1065 0.984 . S
N1059 C1052 1.356 . S
N1059 H1062 0.984 . S
N1059 H1063 0.985 . S
H1060 N1055 0.984 . S
H1061 N1055 0.985 . S
H1062 N1059 0.984 . S
H1063 N1059 0.985 . S
H1064 N1058 0.984 . S
H1065 N1058 0.984 . S
H1066 N1054 0.984 . S
H1067 N1054 0.985 . S
C637 C39 1.445 . S
C639 C569 1.445 . S
C655 C92 1.547 . S
C657 C622 1.545 . S
C673 C357 1.547 . S
C675 C145 1.545 . S
C691 C198 1.445 . S
C693 C410 1.445 . S
C709 C463 1.542 . S
C711 C251 1.549 . S
C727 C516 1.547 . S
C729 C304 1.545 . S
C745 C347 1.500 . S
C747 C29 1.500 . S
C763 C400 1.500 . S
C765 C82 1.500 . S
C781 C453 1.509 . S
C783 C135 1.509 . S
C799 C188 1.500 . S
C801 C506 1.500 . S
C817 C241 1.500 . S
C819 C559 1.500 . S
C835 C294 1.509 . S
C837 C612 1.509 . S
C853 C22 3.043 . S
C855 C181 3.043 . S
C871 C75 3.039 . S
C873 C234 3.039 . S
C889 C128 3.021 . S
C891 C287 3.021 . S
C907 C499 3.040 . S
C909 C340 3.040 . S
C925 C552 3.043 . S
C927 C393 3.043 . S
C943 C605 3.021 . S
C945 C446 3.021 . S
C961 C38 2.223 . S
C963 C462 2.224 . S
C979 C515 2.308 . S
C981 C91 2.308 . S
C997 C144 2.226 . S
C999 C568 2.221 . S
C1015 C621 2.226 . S
C1017 C197 2.221 . S
C1033 C250 2.308 . S
C1035 C356 2.308 . S
C1051 C303 2.226 . S
C1053 C409 2.221 . S
