# Generated by pormake.
# Topology unv, (4)-cn, num edge types: 1
# Building blocks:
#     Node 0, Type 0, BuildingBlock: NAHDIM_clean_sbu_0, # of connection points: 4
#     Node 1, Type 0, BuildingBlock: NAHDIM_clean_sbu_0, # of connection points: 4
#     Node 2, Type 0, BuildingBlock: NAHDIM_clean_sbu_0, # of connection points: 4
#     Node 3, Type 0, BuildingBlock: NAHDIM_clean_sbu_0, # of connection points: 4
#     Node 4, Type 0, BuildingBlock: NAHDIM_clean_sbu_0, # of connection points: 4
#     Node 5, Type 0, BuildingBlock: NAHDIM_clean_sbu_0, # of connection points: 4
#     Node 6, Type 0, BuildingBlock: NAHDIM_clean_sbu_0, # of connection points: 4
#     Node 7, Type 0, BuildingBlock: NAHDIM_clean_sbu_0, # of connection points: 4
#     Node 8, Type 0, BuildingBlock: NAHDIM_clean_sbu_0, # of connection points: 4
#     Node 9, Type 0, BuildingBlock: NAHDIM_clean_sbu_0, # of connection points: 4
#     Node 10, Type 0, BuildingBlock: NAHDIM_clean_sbu_0, # of connection points: 4
#     Node 11, Type 0, BuildingBlock: NAHDIM_clean_sbu_0, # of connection points: 4
#     Node 12, Type 0, BuildingBlock: NAHDIM_clean_sbu_0, # of connection points: 4
#     Node 13, Type 0, BuildingBlock: NAHDIM_clean_sbu_0, # of connection points: 4
#     Node 14, Type 0, BuildingBlock: NAHDIM_clean_sbu_0, # of connection points: 4
#     Node 15, Type 0, BuildingBlock: NAHDIM_clean_sbu_0, # of connection points: 4
#     Node 16, Type 0, BuildingBlock: NAHDIM_clean_sbu_0, # of connection points: 4
#     Node 17, Type 0, BuildingBlock: NAHDIM_clean_sbu_0, # of connection points: 4
#     Node 18, Type 0, BuildingBlock: NAHDIM_clean_sbu_0, # of connection points: 4
#     Node 19, Type 0, BuildingBlock: NAHDIM_clean_sbu_0, # of connection points: 4
#     Node 20, Type 0, BuildingBlock: NAHDIM_clean_sbu_0, # of connection points: 4
#     Node 21, Type 0, BuildingBlock: NAHDIM_clean_sbu_0, # of connection points: 4
#     Node 22, Type 0, BuildingBlock: NAHDIM_clean_sbu_0, # of connection points: 4
#     Node 23, Type 0, BuildingBlock: NAHDIM_clean_sbu_0, # of connection points: 4
#     Edge 24, Type (0, 0), BuildingBlock: ZUJKAS_clean_linker_0, # of connection points: 2
#     Edge 25, Type (0, 0), BuildingBlock: ZUJKAS_clean_linker_0, # of connection points: 2
#     Edge 26, Type (0, 0), BuildingBlock: ZUJKAS_clean_linker_0, # of connection points: 2
#     Edge 27, Type (0, 0), BuildingBlock: ZUJKAS_clean_linker_0, # of connection points: 2
#     Edge 28, Type (0, 0), BuildingBlock: ZUJKAS_clean_linker_0, # of connection points: 2
#     Edge 29, Type (0, 0), BuildingBlock: ZUJKAS_clean_linker_0, # of connection points: 2
#     Edge 30, Type (0, 0), BuildingBlock: ZUJKAS_clean_linker_0, # of connection points: 2
#     Edge 31, Type (0, 0), BuildingBlock: ZUJKAS_clean_linker_0, # of connection points: 2
#     Edge 32, Type (0, 0), BuildingBlock: ZUJKAS_clean_linker_0, # of connection points: 2
#     Edge 33, Type (0, 0), BuildingBlock: ZUJKAS_clean_linker_0, # of connection points: 2
#     Edge 34, Type (0, 0), BuildingBlock: ZUJKAS_clean_linker_0, # of connection points: 2
#     Edge 35, Type (0, 0), BuildingBlock: ZUJKAS_clean_linker_0, # of connection points: 2
#     Edge 36, Type (0, 0), BuildingBlock: ZUJKAS_clean_linker_0, # of connection points: 2
#     Edge 37, Type (0, 0), BuildingBlock: ZUJKAS_clean_linker_0, # of connection points: 2
#     Edge 38, Type (0, 0), BuildingBlock: ZUJKAS_clean_linker_0, # of connection points: 2
#     Edge 39, Type (0, 0), BuildingBlock: ZUJKAS_clean_linker_0, # of connection points: 2
#     Edge 40, Type (0, 0), BuildingBlock: ZUJKAS_clean_linker_0, # of connection points: 2
#     Edge 41, Type (0, 0), BuildingBlock: ZUJKAS_clean_linker_0, # of connection points: 2
#     Edge 42, Type (0, 0), BuildingBlock: ZUJKAS_clean_linker_0, # of connection points: 2
#     Edge 43, Type (0, 0), BuildingBlock: ZUJKAS_clean_linker_0, # of connection points: 2
#     Edge 44, Type (0, 0), BuildingBlock: ZUJKAS_clean_linker_0, # of connection points: 2
#     Edge 45, Type (0, 0), BuildingBlock: ZUJKAS_clean_linker_0, # of connection points: 2
#     Edge 46, Type (0, 0), BuildingBlock: ZUJKAS_clean_linker_0, # of connection points: 2
#     Edge 47, Type (0, 0), BuildingBlock: ZUJKAS_clean_linker_0, # of connection points: 2
#     Edge 48, Type (0, 0), BuildingBlock: ZUJKAS_clean_linker_0, # of connection points: 2
#     Edge 49, Type (0, 0), BuildingBlock: ZUJKAS_clean_linker_0, # of connection points: 2
#     Edge 50, Type (0, 0), BuildingBlock: ZUJKAS_clean_linker_0, # of connection points: 2
#     Edge 51, Type (0, 0), BuildingBlock: ZUJKAS_clean_linker_0, # of connection points: 2
#     Edge 52, Type (0, 0), BuildingBlock: ZUJKAS_clean_linker_0, # of connection points: 2
#     Edge 53, Type (0, 0), BuildingBlock: ZUJKAS_clean_linker_0, # of connection points: 2
#     Edge 54, Type (0, 0), BuildingBlock: ZUJKAS_clean_linker_0, # of connection points: 2
#     Edge 55, Type (0, 0), BuildingBlock: ZUJKAS_clean_linker_0, # of connection points: 2
#     Edge 56, Type (0, 0), BuildingBlock: ZUJKAS_clean_linker_0, # of connection points: 2
#     Edge 57, Type (0, 0), BuildingBlock: ZUJKAS_clean_linker_0, # of connection points: 2
#     Edge 58, Type (0, 0), BuildingBlock: ZUJKAS_clean_linker_0, # of connection points: 2
#     Edge 59, Type (0, 0), BuildingBlock: ZUJKAS_clean_linker_0, # of connection points: 2
#     Edge 60, Type (0, 0), BuildingBlock: ZUJKAS_clean_linker_0, # of connection points: 2
#     Edge 61, Type (0, 0), BuildingBlock: ZUJKAS_clean_linker_0, # of connection points: 2
#     Edge 62, Type (0, 0), BuildingBlock: ZUJKAS_clean_linker_0, # of connection points: 2
#     Edge 63, Type (0, 0), BuildingBlock: ZUJKAS_clean_linker_0, # of connection points: 2
#     Edge 64, Type (0, 0), BuildingBlock: ZUJKAS_clean_linker_0, # of connection points: 2
#     Edge 65, Type (0, 0), BuildingBlock: ZUJKAS_clean_linker_0, # of connection points: 2
#     Edge 66, Type (0, 0), BuildingBlock: ZUJKAS_clean_linker_0, # of connection points: 2
#     Edge 67, Type (0, 0), BuildingBlock: ZUJKAS_clean_linker_0, # of connection points: 2
#     Edge 68, Type (0, 0), BuildingBlock: ZUJKAS_clean_linker_0, # of connection points: 2
#     Edge 69, Type (0, 0), BuildingBlock: ZUJKAS_clean_linker_0, # of connection points: 2
#     Edge 70, Type (0, 0), BuildingBlock: ZUJKAS_clean_linker_0, # of connection points: 2
#     Edge 71, Type (0, 0), BuildingBlock: ZUJKAS_clean_linker_0, # of connection points: 2
# Relax obj value: 0.376
# Max RMSD: 0.323
# Mean RMSD: 0.306
data_MOF--net-unv--node1-NAHDIM_clean_sbu_0--edge1-ZUJKAS_clean_linker_0
_symmetry_space_group_name_H-M    P1
_symmetry_Int_Tables_number       1
_symmetry_cell_setting            triclinic
loop_
_symmetry_equiv_pos_as_xyz
'x, y, z'
_cell_length_a     62.108746
_cell_length_b     62.106007
_cell_length_c     62.052377
_cell_angle_alpha  90.020991
_cell_angle_beta   90.038983
_cell_angle_gamma 90.006065
loop_
_atom_site_label
_atom_site_type_symbol
_atom_site_fract_x
_atom_site_fract_y
_atom_site_fract_z
_atom_type_partial_charge
C0 C 0.03668 0.13693 0.34796 0.0
O1 O 0.05743 0.13312 0.34641 0.0
O2 O 0.04607 0.07894 0.33296 0.0
Zn3 Zn 0.03545 0.09251 0.36037 0.0
O4 O 0.05885 0.09379 0.38279 0.0
C5 C 0.00786 0.05533 0.36607 0.0
O6 O 0.01931 0.04766 0.35002 0.0
O7 O 0.02417 0.1219 0.3539 0.0
C8 C 0.06542 0.07583 0.39006 0.0
O9 O 0.05747 0.05801 0.38188 0.0
C10 C 0.06553 0.07466 0.32833 0.0
O11 O 0.08093 0.08006 0.3418 0.0
O12 O 0.01147 0.07435 0.37275 0.0
C13 C 0.94994 0.34858 0.32494 0.0
O14 O 0.92905 0.35169 0.32618 0.0
O15 O 0.93195 0.40453 0.31177 0.0
Zn16 Zn 0.94981 0.39279 0.33615 0.0
O17 O 0.9325 0.38889 0.36326 0.0
C18 C 0.97354 0.43296 0.33562 0.0
O19 O 0.95829 0.43871 0.32212 0.0
O20 O 0.96253 0.36437 0.3281 0.0
C21 C 0.92635 0.40542 0.37361 0.0
O22 O 0.9304 0.4246 0.36566 0.0
C23 C 0.9121 0.40947 0.31258 0.0
O24 O 0.90104 0.40532 0.33012 0.0
O25 O 0.97357 0.4139 0.34312 0.0
C26 C 0.00852 0.86089 0.17511 0.0
O27 O 0.01962 0.87422 0.18722 0.0
O28 O 0.02362 0.91463 0.16701 0.0
Zn29 Zn 0.00825 0.89643 0.14502 0.0
O30 O 0.0267 0.89347 0.11861 0.0
C31 C 0.97275 0.92616 0.14804 0.0
O32 O 0.98053 0.92925 0.16749 0.0
O33 O 0.00173 0.86714 0.15683 0.0
C34 C 0.0295 0.91032 0.10736 0.0
O35 O 0.02052 0.92842 0.11366 0.0
C36 C 0.04349 0.91951 0.16664 0.0
O37 O 0.0558 0.91199 0.15118 0.0
O38 O 0.98122 0.91189 0.13606 0.0
C39 C -0.00119 0.63729 0.16678 0.0
O40 O 0.00772 0.63063 0.14877 0.0
O41 O 0.95712 0.58104 0.18223 0.0
Zn42 Zn 0.97683 0.59743 0.16246 0.0
O43 O 0.96233 0.60283 0.134 0.0
C44 C 0.00713 0.56215 0.16615 0.0
O45 O 0.99473 0.55644 0.1823 0.0
O46 O 0.98502 0.62539 0.17602 0.0
C47 C 0.95585 0.58642 0.12365 0.0
O48 O 0.95835 0.56725 0.13226 0.0
C49 C 0.93676 0.57973 0.18057 0.0
O50 O 0.9268 0.59033 0.16519 0.0
O51 O 0.0031 0.57952 0.15612 0.0
C52 C 0.34054 0.03533 0.13367 0.0
O53 O 0.33249 0.05254 0.12436 0.0
O54 O 0.32835 0.03677 0.07706 0.0
Zn55 Zn 0.35597 0.0272 0.09102 0.0
O56 O 0.37896 0.04956 0.08667 0.0
C57 C 0.35745 0.99278 0.05959 0.0
O58 O 0.34005 0.00235 0.05232 0.0
O59 O 0.35132 0.02204 0.12247 0.0
C60 C 0.38518 0.05247 0.06739 0.0
O61 O 0.37591 0.04144 0.05187 0.0
C62 C 0.32422 0.05587 0.07096 0.0
O63 O 0.3382 0.07128 0.07479 0.0
O64 O 0.36648 -1e-05 0.07653 0.0
C65 C 0.66577 0.49541 0.12612 0.0
O66 O 0.67408 0.47763 0.11822 0.0
O67 O 0.6732 0.4842 0.07064 0.0
Zn68 Zn 0.6465 0.49581 0.0848 0.0
O69 O 0.62358 0.47301 0.08704 0.0
C70 C 0.6471 0.53086 0.05417 0.0
O71 O 0.66807 0.52865 0.0559 0.0
O72 O 0.65337 0.50664 0.11435 0.0
C73 C 0.61216 0.46933 0.07045 0.0
O74 O 0.61634 0.47985 0.05257 0.0
C75 C 0.67497 0.46572 0.062 0.0
O76 O 0.65873 0.45221 0.06283 0.0
O77 O 0.63488 0.51946 0.06598 0.0
C78 C 0.32959 0.97701 0.35511 0.0
O79 O 0.32376 0.95709 0.35917 0.0
O80 O 0.31933 0.95964 0.40989 0.0
Zn81 Zn 0.34597 0.97353 0.39775 0.0
O82 O 0.36969 0.95194 0.39335 0.0
C83 C 0.35169 0.99494 0.43861 0.0
O84 O 0.33738 0.98067 0.44485 0.0
O85 O 0.33929 0.9877 0.36961 0.0
C86 C 0.37621 0.94107 0.40941 0.0
O87 O 0.36647 0.94342 0.42805 0.0
C88 C 0.31519 0.9396 0.41014 0.0
O89 O 0.32855 0.92604 0.40093 0.0
O90 O 0.3573 0.99547 0.41891 0.0
C91 C 0.65824 0.52168 0.35428 0.0
O92 O 0.66226 0.53972 0.36459 0.0
O93 O 0.66898 0.51836 0.41224 0.0
Zn94 Zn 0.64265 0.50932 0.39563 0.0
O95 O 0.61874 0.53083 0.39915 0.0
C96 C 0.63796 0.47398 0.42552 0.0
O97 O 0.65385 0.48384 0.43541 0.0
O98 O 0.64982 0.50606 0.36443 0.0
C99 C 0.6122 0.53464 0.41817 0.0
O100 O 0.62205 0.52538 0.43446 0.0
C101 C 0.67294 0.53728 0.41897 0.0
O102 O 0.65964 0.55303 0.41426 0.0
O103 O 0.63124 0.48135 0.40763 0.0
C104 C 0.12688 0.33268 0.0254 0.0
O105 O 0.11728 0.32962 0.04401 0.0
O106 O 0.06885 0.32963 0.02841 0.0
Zn107 Zn 0.08721 0.35332 0.01622 0.0
O108 O 0.08843 0.3782 0.03687 0.0
C109 C 0.06082 0.35407 0.97729 0.0
O110 O 0.05739 0.33363 0.9815 0.0
O111 O 0.11688 0.34249 0.0105 0.0
C112 C 0.07079 0.38807 0.03993 0.0
O113 O 0.05336 0.38111 0.03014 0.0
C114 C 0.06368 0.32828 0.04818 0.0
O115 O 0.07085 0.34272 0.06189 0.0
O116 O 0.07356 0.36475 0.98923 0.0
C117 C 0.1278 0.6484 0.48234 0.0
O118 O 0.11686 0.66107 0.46941 0.0
O119 O 0.07094 0.6561 0.48342 0.0
Zn120 Zn 0.08662 0.62801 0.48712 0.0
O121 O 0.08168 0.60868 0.46163 0.0
C122 C 0.0631 0.62193 0.52715 0.0
O123 O 0.06245 0.64308 0.52742 0.0
O124 O 0.11817 0.63301 0.49178 0.0
C125 C 0.0622 0.60335 0.45833 0.0
O126 O 0.04714 0.61171 0.47063 0.0
C127 C 0.06467 0.66378 0.4655 0.0
O128 O 0.06907 0.65342 0.44758 0.0
O129 O 0.07354 0.61245 0.51232 0.0
C130 C 0.86026 0.836 0.52935 0.0
O131 O 0.87557 0.82146 0.53053 0.0
O132 O 0.91481 0.84067 0.51715 0.0
Zn133 Zn 0.89623 0.86503 0.52747 0.0
O134 O 0.90008 0.88966 0.50684 0.0
C135 C 0.9165 0.86141 0.569 0.0
O136 O 0.91474 0.84069 0.56505 0.0
O137 O 0.8653 0.85583 0.52864 0.0
C138 C 0.91953 0.89501 0.50343 0.0
O139 O 0.93491 0.88439 0.51335 0.0
C140 C 0.91613 0.83524 0.49746 0.0
O141 O 0.90445 0.84544 0.48306 0.0
O142 O 0.90793 0.8747 0.55601 0.0
C143 C 0.35134 0.65443 0.53075 0.0
O144 O 0.35578 0.65111 0.55119 0.0
O145 O 0.41217 0.66206 0.54278 0.0
Zn146 Zn 0.39477 0.64022 0.52624 0.0
O147 O 0.39024 0.61338 0.54372 0.0
C148 C 0.42691 0.64377 0.49279 0.0
O149 O 0.42925 0.66322 0.50079 0.0
O150 O 0.36598 0.65147 0.51678 0.0
C151 C 0.38974 0.61238 0.56416 0.0
O152 O 0.39227 0.63005 0.57553 0.0
C153 C 0.40676 0.68151 0.54613 0.0
O154 O 0.38758 0.68811 0.54015 0.0
O155 O 0.41243 0.63149 0.50045 0.0
C156 C 0.52537 0.62872 0.80934 0.0
O157 O 0.54438 0.61953 0.8081 0.0
O158 O 0.52543 0.57014 0.79853 0.0
Zn159 Zn 0.51444 0.58703 0.82389 0.0
O160 O 0.53579 0.5868 0.84826 0.0
C161 C 0.48057 0.55545 0.82854 0.0
O162 O 0.49127 0.54567 0.81314 0.0
O163 O 0.50933 0.61758 0.81539 0.0
C164 C 0.53819 0.56976 0.85932 0.0
O165 O 0.52728 0.55243 0.85396 0.0
C166 C 0.54416 0.56206 0.79692 0.0
O167 O 0.55831 0.56537 0.81231 0.0
O168 O 0.487 0.57375 0.8351 0.0
C169 C 0.49534 0.85302 0.84148 0.0
O170 O 0.47554 0.86039 0.84256 0.0
O171 O 0.48836 0.91014 0.83046 0.0
Zn172 Zn 0.50372 0.89553 0.85495 0.0
O173 O 0.4858 0.89633 0.88195 0.0
C174 C 0.54156 0.92066 0.84542 0.0
O175 O 0.53708 0.91515 0.82547 0.0
O176 O 0.51084 0.86539 0.84649 0.0
C177 C 0.48312 0.91484 0.89025 0.0
O178 O 0.49161 0.93166 0.88062 0.0
C179 C 0.46914 0.91718 0.83063 0.0
O180 O 0.45705 0.91419 0.84771 0.0
O181 O 0.53035 0.91285 0.86065 0.0
C182 C 0.4808 0.35055 0.65175 0.0
O183 O 0.48571 0.3666 0.66464 0.0
O184 O 0.4961 0.40355 0.63866 0.0
Zn185 Zn 0.47909 0.38396 0.6194 0.0
O186 O 0.49423 0.38298 0.59085 0.0
C187 C 0.44138 0.40674 0.63182 0.0
O188 O 0.44933 0.4028 0.65105 0.0
O189 O 0.47672 0.35433 0.63204 0.0
C190 C 0.49814 0.40121 0.58246 0.0
O191 O 0.4917 0.41866 0.59256 0.0
C192 C 0.51595 0.40195 0.64332 0.0
O193 O 0.52717 0.38566 0.63584 0.0
O194 O 0.45049 0.39843 0.61548 0.0
C195 C 0.51459 0.12757 0.6665 0.0
O196 O 0.51055 0.1139 0.68213 0.0
O197 O 0.49884 0.07375 0.66547 0.0
Zn198 Zn 0.51121 0.08955 0.64 0.0
O199 O 0.49015 0.08728 0.61549 0.0
C200 C 0.54522 0.05787 0.63911 0.0
O201 O 0.53671 0.05213 0.65761 0.0
O202 O 0.51625 0.12066 0.64728 0.0
C203 C 0.48605 0.06825 0.60915 0.0
O204 O 0.4953 0.052 0.61906 0.0
C205 C 0.47877 0.07143 0.6687 0.0
O206 O 0.46497 0.08012 0.65521 0.0
O207 O 0.53811 0.07458 0.62966 0.0
C208 C 0.81873 0.4749 0.64071 0.0
O209 O 0.80481 0.48009 0.62564 0.0
O210 O 0.82674 0.48964 0.5871 0.0
Zn211 Zn 0.84865 0.47401 0.60515 0.0
O212 O 0.87605 0.49125 0.60517 0.0
C213 C 0.84076 0.43727 0.57839 0.0
O214 O 0.82119 0.44529 0.57829 0.0
O215 O 0.83807 0.47071 0.63549 0.0
C216 C 0.88615 0.49263 0.58743 0.0
O217 O 0.87836 0.48272 0.5704 0.0
C218 C 0.82727 0.50954 0.58236 0.0
O219 O 0.84282 0.52169 0.59001 0.0
O220 O 0.85489 0.44579 0.59052 0.0
C221 C 0.18668 0.97092 0.64045 0.0
O222 O 0.19625 0.95626 0.62857 0.0
O223 O 0.17582 0.95459 0.58691 0.0
Zn224 Zn 0.15575 0.97203 0.60547 0.0
O225 O 0.12841 0.95571 0.61165 0.0
C226 C 0.16229 0.00998 0.57939 0.0
O227 O 0.18274 0.00538 0.58232 0.0
O228 O 0.16968 0.97994 0.63348 0.0
C229 C 0.11359 0.95571 0.59752 0.0
O230 O 0.1168 0.96593 0.57927 0.0
C231 C 0.17091 0.93704 0.57757 0.0
O232 O 0.15181 0.92855 0.58071 0.0
O233 O 0.14809 -0.00147 0.58864 0.0
C234 C 0.83441 0.5261 0.85902 0.0
O235 O 0.82121 0.52441 0.87546 0.0
O236 O 0.84505 0.50858 0.91144 0.0
Zn237 Zn 0.86699 0.52192 0.89187 0.0
O238 O 0.8918 0.50126 0.89048 0.0
C239 C 0.86452 0.55929 0.91846 0.0
O240 O 0.8441 0.55379 0.91876 0.0
O241 O 0.85461 0.52637 0.86237 0.0
C242 C 0.90157 0.49816 0.9082 0.0
O243 O 0.89525 0.50885 0.92535 0.0
C244 C 0.83927 0.48899 0.91043 0.0
O245 O 0.84744 0.47648 0.89544 0.0
O246 O 0.87728 0.54914 0.90609 0.0
C247 C 0.16758 0.99249 0.86255 0.0
O248 O 0.18085 0.99417 0.87896 0.0
O249 O 0.15717 0.01329 0.91453 0.0
Zn250 Zn 0.13502 0.00063 0.89474 0.0
O251 O 0.11003 0.02105 0.89279 0.0
C252 C 0.13673 0.96078 0.91838 0.0
O253 O 0.15761 0.96397 0.91714 0.0
O254 O 0.14745 0.99454 0.86562 0.0
C255 C 0.10256 0.02705 0.91087 0.0
O256 O 0.1118 0.02 0.92857 0.0
C257 C 0.16338 0.03276 0.91405 0.0
O258 O 0.15569 0.04578 0.89924 0.0
O259 O 0.12411 0.97375 0.90883 0.0
C260 C 0.63858 0.8153 0.48476 0.0
O261 O 0.62457 0.8032 0.49497 0.0
O262 O 0.58358 0.82296 0.49636 0.0
Zn263 Zn 0.60246 0.84431 0.48086 0.0
O264 O 0.60418 0.87141 0.49849 0.0
C265 C 0.57466 0.83864 0.44443 0.0
O266 O 0.57414 0.81875 0.45163 0.0
O267 O 0.6324 0.83298 0.47651 0.0
C268 C 0.58664 0.8807 0.50341 0.0
O269 O 0.56837 0.87225 0.49686 0.0
C270 C 0.57981 0.82286 0.51649 0.0
O271 O 0.58954 0.83687 0.52902 0.0
O272 O 0.58741 0.85201 0.45325 0.0
C273 C 0.63306 0.17797 0.94021 0.0
O274 O 0.62954 0.17603 0.91942 0.0
O275 O 0.57345 0.18896 0.92938 0.0
Zn276 Zn 0.58938 0.16409 0.94243 0.0
O277 O 0.59311 0.13944 0.92168 0.0
C278 C 0.5619 0.16569 0.98017 0.0
O279 O 0.56416 0.18662 0.97811 0.0
O280 O 0.61795 0.17383 0.95332 0.0
C281 C 0.5771 0.12696 0.91923 0.0
O282 O 0.559 0.13149 0.92921 0.0
C283 C 0.56277 0.18863 0.91191 0.0
O284 O 0.56273 0.17115 0.89999 0.0
O285 O 0.57175 0.15325 0.96725 0.0
C286 C 0.34878 0.35289 0.98831 0.0
O287 O 0.35399 0.35734 0.96829 0.0
O288 O 0.4069 0.34339 0.9775 0.0
Zn289 Zn 0.39166 0.36637 0.99438 0.0
O290 O 0.38958 0.39305 0.97618 0.0
C291 C 0.42115 0.36003 0.03004 0.0
O292 O 0.41933 0.33957 0.02498 0.0
O293 O 0.36261 0.35581 0.0031 0.0
C294 C 0.40765 0.40126 0.97124 0.0
O295 O 0.42531 0.39192 0.97823 0.0
C296 C 0.40732 0.34269 0.95703 0.0
O297 O 0.39686 0.35732 0.94587 0.0
O298 O 0.40989 0.37383 0.01997 0.0
C299 C 0.84802 0.16166 0.01343 0.0
O300 O 0.85503 0.1651 0.03311 0.0
O301 O 0.90396 0.16923 0.02408 0.0
Zn302 Zn 0.89012 0.14434 0.00864 0.0
O303 O 0.88975 0.1182 0.0277 0.0
C304 C 0.92437 0.1472 0.977 0.0
O305 O 0.92946 0.16472 0.98772 0.0
O306 O 0.86032 0.15255 -0.00013 0.0
C307 C 0.90808 0.11153 0.03389 0.0
O308 O 0.92536 0.12223 0.028 0.0
C309 C 0.9069 0.17067 0.0443 0.0
O310 O 0.90004 0.15523 0.05702 0.0
O311 O 0.90778 0.13657 0.98253 0.0
H312 H 0.18815 0.03598 0.55481 0.0
H313 H 0.17729 0.05775 0.52376 0.0
H314 H 0.11093 0.04055 0.53496 0.0
H315 H 0.12149 0.01942 0.56616 0.0
H316 H 0.16013 0.04176 0.48868 0.0
H317 H 0.10373 0.10253 0.51985 0.0
H318 H 0.12153 0.08762 0.53738 0.0
H319 H 0.09588 0.0765 0.52945 0.0
C320 C 0.17119 0.03732 0.55098 0.0
C321 C 0.1557 0.02586 0.56289 0.0
C322 C 0.16501 0.04977 0.53323 0.0
C323 C 0.14326 0.05104 0.52715 0.0
C324 C 0.12773 0.04037 0.53963 0.0
H325 H 0.08088 0.0399 0.40978 0.0
H326 H 0.10351 0.03787 0.44172 0.0
C327 C 0.13385 0.02808 0.5574 0.0
C328 C 0.13693 0.06074 0.50624 0.0
H329 H 0.09708 0.09038 0.48277 0.0
C330 C 0.1467 0.05285 0.48742 0.0
C331 C 0.11974 0.07558 0.50445 0.0
C332 C 0.10982 0.0862 0.52393 0.0
C333 C 0.13852 0.05789 0.46698 0.0
C334 C 0.11977 0.0707 0.46536 0.0
C335 C 0.11119 0.08018 0.48402 0.0
C336 C 0.10744 0.07236 0.44498 0.0
C337 C 0.14965 0.04883 0.44737 0.0
C338 C 0.10172 0.09247 0.43639 0.0
C339 C 0.0885 0.09371 0.41815 0.0
C340 C 0.08067 0.07482 0.40834 0.0
C341 C 0.08671 0.05475 0.41684 0.0
C342 C 0.09983 0.05355 0.43503 0.0
H343 H 0.16716 0.04672 0.45035 0.0
H344 H 0.14283 0.03274 0.44363 0.0
H345 H 0.14747 0.0594 0.43309 0.0
H346 H 0.10726 0.10719 0.44396 0.0
H347 H 0.08409 0.10942 0.412 0.0
H348 H 0.90815 0.43709 0.39795 0.0
H349 H 0.89396 0.43413 0.43449 0.0
H350 H 0.90774 0.36607 0.43465 0.0
H351 H 0.92162 0.36879 0.39778 0.0
H352 H 0.86826 0.37567 0.45324 0.0
H353 H 0.93254 0.42719 0.4871 0.0
H354 H 0.9186 0.44028 0.46544 0.0
H355 H 0.93388 0.41619 0.46021 0.0
C356 C 0.90808 0.42146 0.40568 0.0
C357 C 0.91622 0.40322 0.39505 0.0
C358 C 0.90007 0.41981 0.42661 0.0
C359 C 0.90029 0.39998 0.43744 0.0
C360 C 0.90761 0.38156 0.42661 0.0
H361 H 0.87878 0.41528 0.57499 0.0
H362 H 0.8936 0.39912 0.54229 0.0
C363 C 0.91553 0.38315 0.40557 0.0
C364 C 0.8932 0.39878 0.46018 0.0
H365 H 0.90105 0.42264 0.50897 0.0
C366 C 0.8756 0.38567 0.46556 0.0
C367 C 0.90319 0.41131 0.47637 0.0
C368 C 0.92325 0.42434 0.47206 0.0
C369 C 0.86683 0.38588 0.48644 0.0
C370 C 0.87564 0.39994 0.5021 0.0
C371 C 0.8941 0.41197 0.497 0.0
C372 C 0.86497 0.40432 0.52306 0.0
C373 C 0.84812 0.37122 0.49137 0.0
C374 C 0.84361 0.41172 0.52345 0.0
C375 C 0.83499 0.42064 0.54221 0.0
C376 C 0.84776 0.42281 0.5608 0.0
C377 C 0.86859 0.41396 0.56088 0.0
C378 C 0.87709 0.40473 0.54218 0.0
H379 H 0.849 0.35624 0.48162 0.0
H380 H 0.8476 0.3668 0.5087 0.0
H381 H 0.83288 0.37951 0.4871 0.0
H382 H 0.83406 0.4121 0.50885 0.0
H383 H 0.81892 0.42737 0.54156 0.0
H384 H 0.04929 0.87542 0.08885 0.0
H385 H 0.07159 0.87502 0.05621 0.0
H386 H 0.06187 0.94336 0.04876 0.0
H387 H 0.03978 0.94398 0.08121 0.0
H388 H 0.06023 0.8884 0.01347 0.0
H389 H 0.12793 0.93591 0.04673 0.0
H390 H 0.10812 0.92293 0.06362 0.0
H391 H 0.10231 0.94849 0.05127 0.0
C392 C 0.05198 0.89037 0.08028 0.0
C393 C 0.04287 0.90977 0.08768 0.0
C394 C 0.06468 0.89009 0.06167 0.0
C395 C 0.06862 0.90922 0.05034 0.0
C396 C 0.05934 0.9285 0.05754 0.0
H397 H 0.09442 0.95281 0.92713 0.0
H398 H 0.08001 0.93365 0.95809 0.0
C399 C 0.04664 0.9288 0.07605 0.0
C400 C 0.08199 0.90929 0.03065 0.0
H401 H 0.12462 0.93535 0.00809 0.0
C402 C 0.07458 0.89829 0.01233 0.0
C403 C 0.10096 0.92177 0.02935 0.0
C404 C 0.11044 0.93276 0.04886 0.0
C405 C 0.08476 0.90086 0.99229 0.0
C406 C 0.10252 0.91503 0.99059 0.0
C407 C 0.11089 0.92463 0.0093 0.0
C408 C 0.11099 0.92242 0.96953 0.0
C409 C 0.07603 0.88882 0.97307 0.0
C410 C 0.13322 0.9223 0.96542 0.0
C411 C 0.14159 0.93356 0.9478 0.0
C412 C 0.12784 0.94523 0.93409 0.0
C413 C 0.10548 0.94403 0.93739 0.0
C414 C 0.09716 0.93287 0.95502 0.0
H415 H 0.06875 0.87326 0.97804 0.0
H416 H 0.06318 0.89857 0.96537 0.0
H417 H 0.08878 0.88562 0.96095 0.0
H418 H 0.14419 0.91443 0.97648 0.0
H419 H 0.15888 0.93409 0.94566 0.0
H420 H 0.95666 0.62158 0.09698 0.0
H421 H 0.94241 0.62409 0.06024 0.0
H422 H 0.91861 0.559 0.06502 0.0
H423 H 0.93334 0.55615 0.10135 0.0
H424 H 0.94065 0.5652 0.02859 0.0
H425 H 0.88124 0.63127 0.03904 0.0
H426 H 0.9083 0.63792 0.0468 0.0
H427 H 0.8937 0.61778 0.06158 0.0
C428 C 0.94821 0.60789 0.09024 0.0
C429 C 0.94614 0.58865 0.10202 0.0
C430 C 0.93997 0.60939 0.06929 0.0
C431 C 0.92922 0.59182 0.05997 0.0
C432 C 0.92685 0.57276 0.07189 0.0
H433 H 0.84452 0.57141 0.95566 0.0
H434 H 0.86196 0.58396 0.98853 0.0
C435 C 0.93528 0.57116 0.09266 0.0
C436 C 0.92134 0.59258 0.03742 0.0
H437 H 0.88556 0.61745 0.00381 0.0
C438 C 0.9287 0.57672 0.02311 0.0
C439 C 0.90571 0.6076 0.03037 0.0
C440 C 0.8966 0.6245 0.04526 0.0
C441 C 0.92032 0.57487 0.00223 0.0
C442 C 0.90466 0.58986 0.99513 0.0
C443 C 0.89776 0.60618 0.0092 0.0
C444 C 0.89354 0.58715 0.97415 0.0
C445 C 0.92748 0.5561 0.98848 0.0
C446 C 0.90521 0.58607 0.95481 0.0
C447 C 0.89534 0.57852 0.93601 0.0
C448 C 0.87355 0.57239 0.9362 0.0
C449 C 0.86137 0.57584 0.95498 0.0
C450 C 0.87133 0.58304 0.97383 0.0
H451 H 0.9358 0.54353 -0.00188 0.0
H452 H 0.91355 0.54854 0.9802 0.0
H453 H 0.93891 0.5619 0.97604 0.0
H454 H 0.92224 0.5898 0.95456 0.0
H455 H 0.90507 0.57634 0.92169 0.0
H456 H 0.40262 0.06087 0.02804 0.0
H457 H 0.43307 0.08418 0.01974 0.0
H458 H 0.43854 0.10152 0.08683 0.0
H459 H 0.40811 0.07787 0.09542 0.0
H460 H 0.43815 0.12842 0.02678 0.0
H461 H 0.49934 0.08011 0.07115 0.0
H462 H 0.47291 0.06976 0.06491 0.0
H463 H 0.47628 0.08894 0.08628 0.0
C464 C 0.41022 0.06964 0.04108 0.0
C465 C 0.40302 0.06741 0.06242 0.0
C466 C 0.42761 0.08299 0.03628 0.0
C467 C 0.43818 0.09437 0.0527 0.0
C468 C 0.43079 0.09259 0.07399 0.0
H469 H 0.53586 0.18746 0.00845 0.0
H470 H 0.50665 0.17243 0.0303 0.0
C471 C 0.41336 0.07916 0.07883 0.0
C472 C 0.45707 0.10779 0.0472 0.0
H473 H 0.51182 0.10996 0.05155 0.0
C474 C 0.45425 0.12464 0.03241 0.0
C475 C 0.47801 0.10265 0.05455 0.0
C476 C 0.48198 0.08431 0.06999 0.0
C477 C 0.47191 0.13592 0.02402 0.0
C478 C 0.49291 0.13044 0.03096 0.0
C479 C 0.49567 0.11419 0.04643 0.0
C480 C 0.51223 0.13951 0.02035 0.0
C481 C 0.46801 0.15271 0.00686 0.0
C482 C 0.52562 0.12585 0.00836 0.0
C483 C 0.54236 0.13431 0.99604 0.0
C484 C 0.54604 0.15664 0.99545 0.0
C485 C 0.53333 0.17021 0.00841 0.0
C486 C 0.51658 0.16168 0.02083 0.0
H487 H 0.45125 0.1522 0.00059 0.0
H488 H 0.47085 0.16895 0.01376 0.0
H489 H 0.47926 0.15047 0.99315 0.0
H490 H 0.52256 0.10867 0.00784 0.0
H491 H 0.55191 0.12338 0.98636 0.0
H492 H 0.58348 0.46033 0.03853 0.0
H493 H 0.55238 0.4365 0.04017 0.0
H494 H 0.5684 0.41958 0.10566 0.0
H495 H 0.59954 0.44384 0.10432 0.0
H496 H 0.55061 0.39257 0.04813 0.0
H497 H 0.50539 0.43916 0.11005 0.0
H498 H 0.52841 0.45016 0.09614 0.0
H499 H 0.53214 0.43054 0.11704 0.0
C500 C 0.58047 0.45154 0.0533 0.0
C501 C 0.59392 0.45407 0.07133 0.0
C502 C 0.56269 0.4379 0.0542 0.0
C503 C 0.55796 0.42647 0.0731 0.0
C504 C 0.57157 0.42855 0.09104 0.0
H505 H 0.4512 0.33559 0.05138 0.0
H506 H 0.4846 0.34851 0.06797 0.0
C507 C 0.5894 0.44232 0.09019 0.0
C508 C 0.53857 0.41264 0.07366 0.0
H509 H 0.48755 0.41002 0.09392 0.0
C510 C 0.53691 0.39608 0.05839 0.0
C511 C 0.52079 0.41737 0.08709 0.0
C512 C 0.52157 0.43534 0.10344 0.0
C513 C 0.51752 0.38499 0.05518 0.0
C514 C 0.49944 0.39025 0.06805 0.0
C515 C 0.50149 0.40594 0.08422 0.0
C516 C 0.47766 0.38223 0.06257 0.0
C517 C 0.51616 0.36888 0.03698 0.0
C518 C 0.46209 0.39695 0.05545 0.0
C519 C 0.44294 0.38968 0.04627 0.0
C520 C 0.43904 0.3675 0.04391 0.0
C521 C 0.45385 0.35278 0.0527 0.0
C522 C 0.47299 0.36011 0.06208 0.0
H523 H 0.53052 0.36948 0.02632 0.0
H524 H 0.51502 0.35239 0.04375 0.0
H525 H 0.50161 0.37181 0.027 0.0
H526 H 0.4653 0.4141 0.05579 0.0
H527 H 0.4318 0.40148 0.03988 0.0
H528 H 0.57125 0.87823 0.4254 0.0
H529 H 0.53833 0.89458 0.41127 0.0
H530 H 0.50474 0.83437 0.41942 0.0
H531 H 0.53766 0.81773 0.43301 0.0
H532 H 0.49013 0.85851 0.38356 0.0
H533 H 0.49414 0.90705 0.4588 0.0
H534 H 0.51692 0.90995 0.44126 0.0
H535 H 0.51168 0.88446 0.45394 0.0
C536 C 0.55703 0.86829 0.42359 0.0
C537 C 0.55693 0.84681 0.43077 0.0
C538 C 0.53822 0.87768 0.41558 0.0
C539 C 0.519 0.86583 0.4149 0.0
C540 C 0.51939 0.84383 0.41999 0.0
H541 H 0.39181 0.91298 0.43931 0.0
H542 H 0.42586 0.89339 0.43828 0.0
C543 C 0.53825 0.83435 0.42779 0.0
C544 C 0.49808 0.87684 0.41191 0.0
H545 H 0.46475 0.91334 0.43586 0.0
C546 C 0.48457 0.8706 0.39487 0.0
C547 C 0.49076 0.89229 0.427 0.0
C548 C 0.504 0.89874 0.4464 0.0
C549 C 0.46385 0.87945 0.39253 0.0
C550 C 0.4567 0.89506 0.4075 0.0
C551 C 0.47031 0.90138 0.4244 0.0
C552 C 0.43493 0.90477 0.40659 0.0
C553 C 0.44958 0.87155 0.37451 0.0
C554 C 0.42857 0.91737 0.38895 0.0
C555 C 0.409 0.92851 0.38944 0.0
C556 C 0.39564 0.92743 0.40771 0.0
C557 C 0.40177 0.91425 0.42505 0.0
C558 C 0.42122 0.90302 0.42448 0.0
H559 H 0.45534 0.85599 0.3678 0.0
H560 H 0.43274 0.86949 0.38015 0.0
H561 H 0.44957 0.88359 0.36131 0.0
H562 H 0.43908 0.91928 0.37517 0.0
H563 H 0.40476 0.93861 0.37586 0.0
H564 H 0.46645 0.66037 0.48341 0.0
H565 H 0.49551 0.64275 0.46385 0.0
H566 H 0.45324 0.58981 0.44831 0.0
H567 H 0.42426 0.60702 0.46867 0.0
H568 H 0.48822 0.5754 0.46571 0.0
H569 H 0.51249 0.6332 0.40279 0.0
H570 H 0.51237 0.64601 0.42866 0.0
H571 H 0.48755 0.63589 0.41747 0.0
C572 C 0.46316 0.64522 0.4754 0.0
C573 C 0.4431 0.635 0.47771 0.0
C574 C 0.47979 0.63522 0.46404 0.0
C575 C 0.47654 0.61504 0.45435 0.0
C576 C 0.45612 0.60539 0.45561 0.0
H577 H 0.58318 0.54936 0.38832 0.0
H578 H 0.5494 0.5685 0.39531 0.0
C579 C 0.43957 0.61524 0.46725 0.0
C580 C 0.49511 0.60283 0.44555 0.0
H581 H 0.53978 0.60741 0.4138 0.0
C582 C 0.49926 0.58229 0.45406 0.0
C583 C 0.50943 0.61161 0.43014 0.0
C584 C 0.50508 0.63279 0.41908 0.0
C585 C 0.51778 0.57076 0.44838 0.0
C586 C 0.53296 0.5803 0.43434 0.0
C587 C 0.52834 0.60033 0.42493 0.0
C588 C 0.55396 0.56994 0.42985 0.0
C589 C 0.52092 0.54849 0.4576 0.0
C590 C 0.568 0.56503 0.44688 0.0
C591 C 0.58716 0.55398 0.44299 0.0
C592 C 0.59282 0.54792 0.42192 0.0
C593 C 0.57923 0.55376 0.40474 0.0
C594 C 0.55993 0.56468 0.40869 0.0
H595 H 0.5053 0.54101 0.46208 0.0
H596 H 0.52925 0.53775 0.44597 0.0
H597 H 0.53086 0.54959 0.47243 0.0
H598 H 0.56399 0.56949 0.46327 0.0
H599 H 0.59741 0.54996 0.45654 0.0
H600 H 0.035 0.41023 0.05207 0.0
H601 H 0.03308 0.44246 0.07436 0.0
H602 H 0.10214 0.44198 0.08172 0.0
H603 H 0.10422 0.40928 0.05961 0.0
H604 H 0.08097 0.45004 0.11999 0.0
H605 H 0.04962 0.50291 0.05572 0.0
H606 H 0.03352 0.47909 0.0583 0.0
H607 H 0.06127 0.47687 0.05014 0.0
C608 C 0.04982 0.41695 0.05837 0.0
C609 C 0.06978 0.4073 0.05393 0.0
C610 C 0.0487 0.43546 0.07101 0.0
C611 C 0.06751 0.44488 0.07926 0.0
C612 C 0.08746 0.43506 0.0753 0.0
H613 H 0.03818 0.56993 0.1359 0.0
H614 H 0.05964 0.54316 0.11657 0.0
C615 C 0.08861 0.4164 0.06269 0.0
C616 C 0.06596 0.46474 0.09235 0.0
H617 H 0.04246 0.51426 0.09224 0.0
C618 C 0.07293 0.46428 0.11386 0.0
C619 C 0.05608 0.48354 0.08417 0.0
C620 C 0.04993 0.48574 0.06074 0.0
C621 C 0.06872 0.48155 0.12787 0.0
C622 C 0.05679 0.49941 0.12022 0.0
C623 C 0.05135 0.50049 0.09827 0.0
C624 C 0.04767 0.51598 0.13483 0.0
C625 C 0.07677 0.48026 0.15076 0.0
C626 C 0.03432 0.50972 0.15198 0.0
C627 C 0.02227 0.52501 0.16322 0.0
C628 C 0.02297 0.5468 0.15721 0.0
C629 C 0.03721 0.55323 0.14082 0.0
C630 C 0.04949 0.53795 0.12977 0.0
H631 H 0.09206 0.471 0.15163 0.0
H632 H 0.07948 0.49649 0.15776 0.0
H633 H 0.06473 0.47164 0.16076 0.0
H634 H 0.03213 0.49287 0.15585 0.0
H635 H 0.01139 0.51951 0.1757 0.0
H636 H 0.97423 0.47605 0.32699 0.0
H637 H 0.99582 0.50358 0.34478 0.0
H638 H 0.02889 0.45452 0.38119 0.0
H639 H 0.00694 0.4268 0.36379 0.0
H640 H 0.01266 0.48486 0.40677 0.0
H641 H 0.05706 0.52459 0.34068 0.0
H642 H 0.02877 0.52321 0.33505 0.0
H643 H 0.04414 0.49873 0.33742 0.0
C644 C 0.98638 0.47103 0.33847 0.0
C645 C 0.98876 0.44923 0.34408 0.0
C646 C -0.00113 0.48682 0.3485 0.0
C647 C 0.01418 0.48111 0.36412 0.0
C648 C 0.01724 0.45927 0.36909 0.0
H649 H 0.08961 0.57883 0.43382 0.0
H650 H 0.07999 0.54851 0.41037 0.0
C651 C 0.00467 0.44346 0.35914 0.0
C652 C 0.02492 0.49804 0.37709 0.0
H653 H 0.05256 0.54545 0.37334 0.0
C654 C 0.0217 0.4979 0.39947 0.0
C655 C 0.03691 0.51496 0.36762 0.0
C656 C 0.04212 0.51528 0.34389 0.0
C657 C 0.0292 0.51472 0.4125 0.0
C658 C 0.03981 0.53238 0.40283 0.0
C659 C 0.04407 0.53204 0.38063 0.0
C660 C 0.0457 0.55167 0.41551 0.0
C661 C 0.02543 0.51357 0.4365 0.0
C662 C 0.02954 0.56384 0.42554 0.0
C663 C 0.03494 0.58106 0.43892 0.0
C664 C 0.05662 0.58654 0.4424 0.0
C665 C 0.07276 0.57494 0.43153 0.0
C666 C 0.06732 0.55764 0.41814 0.0
H667 H 0.02282 0.49673 0.44195 0.0
H668 H 0.03924 0.52045 0.44556 0.0
H669 H 0.01081 0.52299 0.44061 0.0
H670 H 0.01273 0.55974 0.42333 0.0
H671 H 0.0221 0.58978 0.44687 0.0
H672 H 0.89211 0.92367 0.48389 0.0
H673 H 0.90181 0.95355 0.45997 0.0
H674 H 0.96882 0.93608 0.46535 0.0
H675 H 0.95938 0.90665 0.48952 0.0
H676 H 0.96211 0.97908 0.47117 0.0
H677 H 0.9206 0.95038 0.39709 0.0
H678 H 0.90387 0.95307 0.42054 0.0
H679 H 0.92494 0.93326 0.42018 0.0
C680 C 0.90889 0.92617 0.47989 0.0
C681 C 0.92498 0.9128 0.48859 0.0
C682 C 0.91438 0.94317 0.46614 0.0
C683 C 0.93601 0.94687 0.46069 0.0
C684 C 0.95203 0.9335 0.46934 0.0
H685 H 0.00217 0.0121 0.36068 0.0
H686 H 0.98151 0.98772 0.38352 0.0
C687 C 0.94659 0.91666 0.48315 0.0
C688 C 0.94233 0.96492 0.44645 0.0
H689 H 0.93894 0.98355 0.3948 0.0
C690 C 0.95691 0.98019 0.45451 0.0
C691 C 0.93558 0.9662 0.42471 0.0
C692 C 0.92052 0.94979 0.41498 0.0
C693 C 0.96553 0.9963 0.44127 0.0
C694 C 0.9589 -0.00246 0.41948 0.0
C695 C 0.94382 0.98265 0.41156 0.0
C696 C 0.96904 0.01283 0.40423 0.0
C697 C 0.98247 0.01113 0.45049 0.0
C698 C 0.96828 0.03513 0.40785 0.0
C699 C 0.9803 0.04912 0.39495 0.0
C700 C 0.99303 0.04104 0.37803 0.0
C701 C 0.99264 0.01884 0.37364 0.0
C702 C 0.98079 0.00487 0.38665 0.0
H703 H 0.98914 0.00495 0.46592 0.0
H704 H 0.99596 0.01334 0.43896 0.0
H705 H 0.9752 0.02713 0.45369 0.0
H706 H 0.9589 0.04164 0.42103 0.0
H707 H 0.98006 0.06618 0.39858 0.0
H708 H 0.38526 0.57311 0.54499 0.0
H709 H 0.38474 0.53794 0.56225 0.0
H710 H 0.38827 0.56819 0.62473 0.0
H711 H 0.38923 0.60367 0.6075 0.0
H712 H 0.41866 0.53783 0.61941 0.0
H713 H 0.3403 0.5037 0.59492 0.0
H714 H 0.35491 0.51367 0.5721 0.0
H715 H 0.34627 0.53209 0.5928 0.0
C716 C 0.38561 0.57237 0.56243 0.0
C717 C 0.38741 0.59122 0.57487 0.0
C718 C 0.38506 0.5522 0.57229 0.0
C719 C 0.38603 0.55042 0.5948 0.0
C720 C 0.38726 0.56922 0.60733 0.0
H721 H 0.42297 0.43211 0.66284 0.0
H722 H 0.40457 0.46647 0.65714 0.0
C723 C 0.38787 0.58947 0.59746 0.0
C724 C 0.38849 0.52892 0.60485 0.0
H725 H 0.36818 0.47781 0.60412 0.0
C726 C 0.40737 0.52482 0.61656 0.0
C727 C 0.37373 0.51196 0.60107 0.0
C728 C 0.35257 0.51565 0.58972 0.0
C729 C 0.41263 0.50394 0.62331 0.0
C730 C 0.39843 0.48677 0.6185 0.0
C731 C 0.37902 0.49102 0.60775 0.0
C732 C 0.40482 0.46416 0.62237 0.0
C733 C 0.43402 0.50021 0.63431 0.0
C734 C 0.40978 0.45094 0.60473 0.0
C735 C 0.42019 0.43128 0.6079 0.0
C736 C 0.42584 0.42455 0.62879 0.0
C737 C 0.41906 0.43693 0.64653 0.0
C738 C 0.4086 0.4566 0.64332 0.0
H739 H 0.44456 0.51465 0.6337 0.0
H740 H 0.43122 0.49612 0.65148 0.0
H741 H 0.44267 0.48652 0.62672 0.0
H742 H 0.40688 0.45648 0.58843 0.0
H743 H 0.42501 0.42205 0.59389 0.0
H744 H 0.66848 0.55322 0.02275 0.0
H745 H 0.65317 0.56805 0.98959 0.0
H746 H 0.58951 0.55051 0.01107 0.0
H747 H 0.60455 0.53601 0.04429 0.0
H748 H 0.63232 0.54304 0.96071 0.0
H749 H 0.5786 0.60945 0.98559 0.0
H750 H 0.59922 0.59869 0.0031 0.0
H751 H 0.57351 0.58545 0.00082 0.0
C752 C 0.65116 0.55304 0.02068 0.0
C753 C 0.63775 0.54329 0.0361 0.0
C754 C 0.64245 0.56151 0.00171 0.0
C755 C 0.62019 0.56055 -0.00207 0.0
C756 C 0.60668 0.55186 0.01382 0.0
H757 H 0.54731 0.53582 0.88569 0.0
H758 H 0.56949 0.53588 0.91817 0.0
C759 C 0.61535 0.54342 0.03277 0.0
C760 C 0.61131 0.5658 0.9764 0.0
H761 H 0.57039 0.5926 0.95132 0.0
C762 C 0.61905 0.55421 0.95858 0.0
C763 C 0.59417 0.58052 0.97356 0.0
C764 C 0.58605 0.5944 0.99177 0.0
C765 C 0.60929 0.55599 0.9383 0.0
C766 C 0.5911 0.56945 0.93587 0.0
C767 C 0.58416 0.58205 0.95332 0.0
C768 C 0.57824 0.56953 0.9158 0.0
C769 C 0.61825 0.54311 0.91974 0.0
C770 C 0.57553 0.58854 0.90391 0.0
C771 C 0.5628 0.58858 0.88531 0.0
C772 C 0.5524 0.56963 0.87845 0.0
C773 C 0.55517 0.55065 0.89045 0.0
C774 C 0.56793 0.55062 0.90897 0.0
H775 H 0.63545 0.53895 0.92238 0.0
H776 H 0.6091 0.52784 0.91822 0.0
H777 H 0.61678 0.55207 0.90432 0.0
H778 H 0.58326 0.60332 0.90903 0.0
H779 H 0.56091 0.60349 0.87647 0.0
H780 H 0.34809 0.98136 0.01825 0.0
H781 H 0.36964 0.95916 0.99429 0.0
H782 H 0.41295 0.94435 0.04664 0.0
H783 H 0.39182 0.96739 0.07063 0.0
H784 H 0.43467 0.95821 0.01424 0.0
H785 H 0.37894 0.89719 0.98233 0.0
H786 H 0.3672 0.92328 0.97886 0.0
H787 H 0.37241 0.91327 0.00567 0.0
C788 C 0.36191 0.973 0.02485 0.0
C789 C 0.36834 0.97628 0.04631 0.0
C790 C 0.37414 0.96008 0.01112 0.0
C791 C 0.39278 0.94976 0.01868 0.0
C792 C 0.39858 0.95206 0.04045 0.0
H793 H 0.46723 0.88354 0.91714 0.0
H794 H 0.44705 0.88882 0.95072 0.0
C795 C 0.38649 0.96525 0.05415 0.0
C796 C 0.40767 0.93934 0.00313 0.0
H797 H 0.40844 0.90763 0.95819 0.0
C798 C 0.42903 0.94673 0.00232 0.0
C799 C 0.4006 0.92403 0.98777 0.0
C800 C 0.37859 0.91383 0.98889 0.0
C801 C 0.44292 0.94054 0.98566 0.0
C802 C 0.43506 0.92712 0.969 0.0
C803 C 0.41431 0.91834 0.9707 0.0
C804 C 0.44744 0.92362 0.9489 0.0
C805 C 0.46575 0.94886 0.98586 0.0
C806 C 0.45394 0.94139 0.93656 0.0
C807 C 0.46552 0.93846 0.91756 0.0
C808 C 0.47057 0.91765 0.91029 0.0
C809 C 0.46364 0.89979 0.92238 0.0
C810 C 0.45213 0.90276 0.94155 0.0
H811 H 0.47137 0.95191 0.00259 0.0
H812 H 0.47699 0.93735 0.97804 0.0
H813 H 0.46643 0.96438 0.97702 0.0
H814 H 0.44991 0.95761 0.94157 0.0
H815 H 0.47039 0.95255 0.90852 0.0
H816 H 0.51212 0.43791 0.56307 0.0
H817 H 0.53403 0.44118 0.53076 0.0
H818 H 0.53426 0.3721 0.52343 0.0
H819 H 0.5126 0.36861 0.55629 0.0
H820 H 0.57401 0.38864 0.51861 0.0
H821 H 0.51768 0.43525 0.46835 0.0
H822 H 0.52097 0.44814 0.49397 0.0
H823 H 0.50919 0.42163 0.4926 0.0
C824 C 0.51661 0.42337 0.55451 0.0
C825 C 0.51054 0.40299 0.56221 0.0
C826 C 0.52901 0.42529 0.53591 0.0
C827 C 0.53536 0.40692 0.52438 0.0
C828 C 0.52933 0.3865 0.53196 0.0
H829 H 0.60494 0.44928 0.40973 0.0
H830 H 0.58071 0.42613 0.43045 0.0
C831 C 0.51696 0.38454 0.55072 0.0
C832 C 0.5495 0.40932 0.50532 0.0
H833 H 0.55577 0.44027 0.46046 0.0
C834 C 0.56987 0.39954 0.5056 0.0
C835 C 0.54391 0.42298 0.48797 0.0
C836 C 0.52163 0.43237 0.48558 0.0
C837 C 0.58545 0.4046 0.49002 0.0
C838 C 0.58067 0.42028 0.47417 0.0
C839 C 0.55966 0.42853 0.4728 0.0
C840 C 0.5976 0.43041 0.46069 0.0
C841 C 0.60701 0.39348 0.49109 0.0
C842 C 0.61549 0.44005 0.47062 0.0
C843 C 0.62946 0.45306 0.45879 0.0
C844 C 0.62558 0.45708 0.43685 0.0
C845 C 0.60831 0.44657 0.42664 0.0
C846 C 0.59445 0.43333 0.43846 0.0
H847 H 0.60524 0.37678 0.49725 0.0
H848 H 0.61495 0.39289 0.47507 0.0
H849 H 0.61762 0.40227 0.50248 0.0
H850 H 0.61798 0.43862 0.48783 0.0
H851 H 0.64256 0.46096 0.46719 0.0
H852 H 0.46613 0.09798 0.5832 0.0
H853 H 0.44246 0.09084 0.55238 0.0
H854 H 0.44894 0.02254 0.56317 0.0
H855 H 0.47278 0.02945 0.59362 0.0
H856 H 0.45507 0.03435 0.52064 0.0
H857 H 0.37981 0.06989 0.55373 0.0
H858 H 0.40291 0.08733 0.55335 0.0
H859 H 0.40289 0.06397 0.57039 0.0
C860 C 0.46242 0.08145 0.57905 0.0
C861 C 0.4713 0.06428 0.59087 0.0
C862 C 0.44882 0.07741 0.56151 0.0
C863 C 0.44378 0.05617 0.55566 0.0
C864 C 0.45262 0.03906 0.56746 0.0
H865 H 0.34669 0.99418 0.48228 0.0
H866 H 0.36878 0.0124 0.50922 0.0
C867 C 0.46622 0.04305 0.58488 0.0
C868 C 0.42974 0.05145 0.53696 0.0
H869 H 0.37801 0.05525 0.5187 0.0
C870 C 0.43826 0.03907 0.52009 0.0
C871 C 0.40782 0.05757 0.53642 0.0
C872 C 0.39768 0.07028 0.55448 0.0
C873 C 0.42531 0.03206 0.50296 0.0
C874 C 0.40333 0.03803 0.50247 0.0
C875 C 0.39492 0.05089 0.51906 0.0
C876 C 0.38846 0.02932 0.48597 0.0
C877 C 0.43506 0.01747 0.48611 0.0
C878 C 0.39174 0.03337 0.46397 0.0
C879 C 0.37922 0.02283 0.44848 0.0
C880 C 0.3631 0.00822 0.45478 0.0
C881 C 0.35905 0.00522 0.47687 0.0
C882 C 0.37163 0.01567 0.49231 0.0
H883 H 0.45083 0.01082 0.49132 0.0
H884 H 0.42409 0.00384 0.48238 0.0
H885 H 0.43767 0.02674 0.47106 0.0
H886 H 0.40437 0.04421 0.45878 0.0
H887 H 0.38261 0.02565 0.4316 0.0
H888 H 0.05897 0.57818 0.52896 0.0
H889 H 0.03035 0.55782 0.54653 0.0
H890 H 0.00564 0.61631 0.57462 0.0
H891 H 0.03412 0.63697 0.55685 0.0
H892 H 0.01447 0.55308 0.58975 0.0
H893 H 0.95687 0.59437 0.5347 0.0
H894 H 0.98562 0.59563 0.53085 0.0
H895 H 0.97306 0.61149 0.55153 0.0
C896 C 0.04773 0.58672 0.5392 0.0
C897 C 0.0486 0.60927 0.54119 0.0
C898 C 0.03141 0.57502 0.54928 0.0
C899 C 0.01569 0.58563 0.56152 0.0
C900 C 0.01746 0.6079 0.56494 0.0
H901 H 0.90623 0.51606 0.6191 0.0
H902 H 0.93798 0.53921 0.61528 0.0
C903 C 0.03379 0.61965 0.55483 0.0
C904 C 0.99634 0.57366 0.56854 0.0
H905 H 0.94289 0.56757 0.5573 0.0
C906 C -0.00127 0.55637 0.58292 0.0
C907 C 0.97594 0.57789 0.55932 0.0
C908 C 0.97261 0.59573 0.54312 0.0
C909 C 0.98127 0.54291 0.58799 0.0
C910 C 0.96098 0.547 0.5785 0.0
C911 C 0.9585 0.56459 0.56457 0.0
C912 C 0.94246 0.53234 0.5814 0.0
C913 C 0.98479 0.52391 0.6027 0.0
C914 C 0.93445 0.52098 0.56358 0.0
C915 C 0.91636 0.50784 0.56567 0.0
C916 C 0.90583 0.50591 0.58561 0.0
C917 C 0.91401 0.51717 0.60353 0.0
C918 C 0.93219 0.53032 0.60142 0.0
H919 H 0.00214 0.52107 0.60602 0.0
H920 H 0.97653 0.52687 0.61827 0.0
H921 H 0.97778 0.5091 0.59552 0.0
H922 H 0.94216 0.52239 0.54798 0.0
H923 H 0.9105 0.4994 0.55155 0.0
H924 H 0.94327 0.83752 0.59469 0.0
H925 H 0.97605 0.85026 0.61239 0.0
H926 H 0.95994 0.91559 0.59517 0.0
H927 H 0.92707 0.90313 0.57798 0.0
H928 H 0.0062 0.86772 0.58799 0.0
H929 H 0.98756 0.92549 0.65273 0.0
H930 H 0.96778 0.90671 0.64254 0.0
H931 H 0.97242 0.93199 0.62903 0.0
C932 C 0.94629 0.85468 0.59538 0.0
C933 C 0.93274 0.86928 0.58459 0.0
C934 C 0.96505 0.86193 0.60552 0.0
C935 C 0.97048 0.88388 0.60516 0.0
C936 C 0.95596 0.89864 0.59609 0.0
H937 H 0.08086 0.9495 0.56898 0.0
H938 H 0.04735 0.92982 0.5747 0.0
C939 C 0.9372 0.89143 0.58604 0.0
C940 C 0.99276 0.89091 0.61011 0.0
H941 H 0.02133 0.9319 0.63313 0.0
C942 C 0.00957 0.88137 0.59837 0.0
C943 C 0.99729 0.90862 0.62374 0.0
C944 C 0.98029 0.91861 0.63788 0.0
C945 C 0.03034 0.89011 0.59854 0.0
C946 C 0.03434 0.90901 0.61053 0.0
C947 C 0.01807 0.91757 0.62366 0.0
C948 C 0.05454 0.92123 0.60771 0.0
C949 C 0.04765 0.87963 0.58509 0.0
C950 C 0.06945 0.9232 0.62456 0.0
C951 C 0.08874 0.93441 0.62132 0.0
C952 C 0.09321 0.944 0.60125 0.0
C953 C 0.07797 0.94227 0.58459 0.0
C954 C 0.05884 0.93099 0.5878 0.0
H955 H 0.04389 0.86246 0.58175 0.0
H956 H 0.04889 0.88815 0.56942 0.0
H957 H 0.06355 0.8806 0.59324 0.0
H958 H 0.0663 0.91584 0.64006 0.0
H959 H 0.10012 0.93556 0.6345 0.0
H960 H 0.06211 0.39678 0.96714 0.0
H961 H 0.03534 0.41713 0.94696 0.0
H962 H 0.00202 0.35827 0.93116 0.0
H963 H 0.02857 0.33767 0.95185 0.0
H964 H 0.01807 0.41735 0.90533 0.0
H965 H 0.95804 0.3918 0.96693 0.0
H966 H 0.98648 0.387 0.97016 0.0
H967 H 0.97093 0.37058 0.95209 0.0
C968 C 0.04932 0.38805 0.95909 0.0
C969 C 0.04721 0.36563 0.9615 0.0
C970 C 0.03407 0.39973 0.94746 0.0
C971 C 0.01647 0.38925 0.93796 0.0
C972 C 0.01528 0.36669 0.93876 0.0
H973 H 0.91581 0.46993 0.87727 0.0
H974 H 0.94336 0.44192 0.88138 0.0
C975 C 0.03051 0.35495 0.95052 0.0
C976 C -0.00162 0.40231 0.92957 0.0
H977 H 0.94701 0.41751 0.94176 0.0
C978 C 0.00239 0.41718 0.91301 0.0
C979 C 0.97804 0.40217 0.93985 0.0
C980 C 0.97305 0.38718 0.95835 0.0
C981 C 0.98684 0.43249 0.907 0.0
C982 C 0.96677 0.43268 0.91772 0.0
C983 C 0.96245 0.41722 0.93359 0.0
C984 C 0.95083 0.45006 0.91446 0.0
C985 C 0.99237 0.44904 0.8901 0.0
C986 C 0.94587 0.46377 0.93171 0.0
C987 C 0.93015 0.47962 0.92949 0.0
C988 C 0.919 0.48206 0.90993 0.0
C989 C 0.92419 0.4685 0.89251 0.0
C990 C 0.93996 0.45256 0.89479 0.0
H991 H 0.00971 0.44869 0.88574 0.0
H992 H 0.98281 0.44585 0.87533 0.0
H993 H 0.98822 0.46546 0.89587 0.0
H994 H 0.95411 0.46209 0.94702 0.0
H995 H 0.92659 0.4898 0.9432 0.0
H996 H 0.08463 0.04405 0.94704 0.0
H997 H 0.0516 0.06501 0.94991 0.0
H998 H 0.04331 0.06214 0.88097 0.0
H999 H 0.07671 0.04122 0.87784 0.0
H1000 H 0.0351 0.10341 0.89921 0.0
H1001 H 0.99127 0.0389 0.94221 0.0
H1002 H 0.01663 0.04498 0.95466 0.0
H1003 H 0.01605 0.03405 0.92779 0.0
C1004 C 0.07586 0.04788 0.93244 0.0
C1005 C 0.08318 0.04079 0.91222 0.0
C1006 C 0.05693 0.05979 0.93413 0.0
C1007 C 0.04482 0.0647 0.9157 0.0
C1008 C 0.05238 0.05831 0.89539 0.0
H1009 H 0.91768 0.11342 0.9495 0.0
H1010 H 0.94481 0.09445 0.9282 0.0
C1011 C 0.07143 0.04638 0.89365 0.0
C1012 C 0.02421 0.07639 0.91803 0.0
H1013 H 0.97709 0.07468 0.94599 0.0
C1014 C 0.02219 0.09704 0.90911 0.0
C1015 C 0.00719 0.06781 0.93046 0.0
C1016 C 0.00776 0.04512 0.93913 0.0
C1017 C 0.00418 0.10996 0.91361 0.0
C1018 C 0.98809 0.1021 0.92772 0.0
C1019 C 0.98948 0.08087 0.93535 0.0
C1020 C 0.97087 0.11603 0.93665 0.0
C1021 C 0.00277 0.13198 0.90347 0.0
C1022 C 0.97632 0.13483 0.94799 0.0
C1023 C 0.96081 0.14582 0.95998 0.0
C1024 C 0.93962 0.13796 0.96122 0.0
C1025 C 0.9339 0.1198 0.94896 0.0
C1026 C 0.94939 0.10895 0.93676 0.0
H1027 H 0.01093 0.13223 0.88754 0.0
H1028 H 0.9858 0.13716 0.9013 0.0
H1029 H 0.01108 0.14382 0.91398 0.0
H1030 H 0.99286 0.14031 0.94867 0.0
H1031 H 0.96576 0.15971 0.9693 0.0
H1032 H 0.56744 0.06482 0.60162 0.0
H1033 H 0.58267 0.03729 0.57785 0.0
H1034 H 0.56741 0.98837 0.62475 0.0
H1035 H 0.55302 0.01576 0.64887 0.0
H1036 H 0.60421 0.97891 0.60361 0.0
H1037 H 0.53975 0.00094 0.54538 0.0
H1038 H 0.5583 0.02224 0.55147 0.0
H1039 H 0.54088 0.01196 0.57221 0.0
C1040 C 0.56783 0.04827 0.60707 0.0
C1041 C 0.55865 0.04242 0.62695 0.0
C1042 C 0.57639 0.03254 0.59341 0.0
C1043 C 0.57551 0.01072 0.59924 0.0
C1044 C 0.56807 0.0051 0.61983 0.0
H1045 H 0.5524 0.89929 0.52348 0.0
H1046 H 0.55228 0.93141 0.54609 0.0
C1047 C 0.55982 0.02082 0.63362 0.0
C1048 C 0.58014 0.99349 0.58335 0.0
H1049 H 0.56205 0.972 0.53605 0.0
C1050 C 0.59516 0.97747 0.58871 0.0
C1051 C 0.56805 0.9915 0.56409 0.0
C1052 C 0.5507 0.00743 0.55797 0.0
C1053 C 0.59799 0.95919 0.57567 0.0
C1054 C 0.58584 0.95722 0.55646 0.0
C1055 C 0.57137 0.9736 0.55075 0.0
C1056 C 0.58645 0.93757 0.54288 0.0
C1057 C 0.61312 0.94171 0.58315 0.0
C1058 C 0.60569 0.93038 0.53344 0.0
C1059 C 0.60584 0.9118 0.52068 0.0
C1060 C 0.58668 0.90034 0.51686 0.0
C1061 C 0.56741 0.90777 0.52607 0.0
C1062 C 0.56733 0.92615 0.53899 0.0
H1063 H 0.61712 0.94332 0.60053 0.0
H1064 H 0.60604 0.92552 0.58041 0.0
H1065 H 0.62836 0.94277 0.57389 0.0
H1066 H 0.62054 0.93922 0.53577 0.0
H1067 H 0.62091 0.90656 0.51364 0.0
H1068 H 0.54604 0.09685 0.91241 0.0
H1069 H 0.54956 0.06242 0.89401 0.0
H1070 H 0.61573 0.07692 0.87874 0.0
H1071 H 0.61248 0.11152 0.89759 0.0
H1072 H 0.56064 0.05313 0.85153 0.0
H1073 H 0.6195 0.0185 0.90981 0.0
H1074 H 0.60452 0.04272 0.91558 0.0
H1075 H 0.62656 0.04345 0.89691 0.0
C1076 C 0.56135 0.09284 0.90509 0.0
C1077 C 0.57903 0.10687 0.9066 0.0
C1078 C 0.56332 0.07314 0.89453 0.0
C1079 C 0.58297 0.06702 0.88525 0.0
C1080 C 0.60053 0.08121 0.88612 0.0
H1081 H 0.56534 0.94421 0.81656 0.0
H1082 H 0.58224 0.97925 0.82314 0.0
C1083 C 0.5986 0.101 0.89678 0.0
C1084 C 0.58472 0.04547 0.87522 0.0
H1085 H 0.60475 0.99508 0.88413 0.0
C1086 C 0.57059 0.04047 0.85831 0.0
C1087 C 0.59774 0.02909 0.88421 0.0
C1088 C 0.61288 0.03353 0.90271 0.0
C1089 C 0.56796 0.01923 0.85112 0.0
C1090 C 0.58027 0.00263 0.86078 0.0
C1091 C 0.59547 0.00787 0.8767 0.0
C1092 C 0.5749 0.97966 0.85723 0.0
C1093 C 0.55081 0.0146 0.83449 0.0
C1094 C 0.56664 0.96764 0.87448 0.0
C1095 C 0.55729 0.94756 0.87085 0.0
C1096 C 0.55588 0.93918 0.84985 0.0
C1097 C 0.5659 0.95037 0.83288 0.0
C1098 C 0.57546 0.97044 0.83658 0.0
H1099 H 0.54039 0.0288 0.83135 0.0
H1100 H 0.55856 0.00997 0.81907 0.0
H1101 H 0.54041 0.00104 0.83977 0.0
H1102 H 0.56616 0.97439 0.89058 0.0
H1103 H 0.54994 0.93929 0.88434 0.0
H1104 H 0.46953 0.51315 0.82479 0.0
H1105 H 0.4467 0.49243 0.84888 0.0
H1106 H 0.43012 0.55038 0.8835 0.0
H1107 H 0.45372 0.57121 0.85981 0.0
H1108 H 0.4441 0.52181 0.91013 0.0
H1109 H 0.38464 0.48096 0.85876 0.0
H1110 H 0.41093 0.47639 0.84787 0.0
H1111 H 0.40037 0.50344 0.84912 0.0
C1112 C 0.46064 0.52162 0.83718 0.0
C1113 C 0.46361 0.5438 0.84052 0.0
C1114 C 0.44735 0.50974 0.85086 0.0
C1115 C 0.43639 0.51985 0.86787 0.0
C1116 C 0.43833 0.54224 0.87043 0.0
H1117 H 0.37455 0.42541 0.9545 0.0
H1118 H 0.37756 0.45729 0.9313 0.0
C1119 C 0.45184 0.55412 0.85689 0.0
C1120 C 0.42591 0.50653 0.88472 0.0
H1121 H 0.39569 0.46112 0.89133 0.0
C1122 C 0.43304 0.50891 0.90608 0.0
C1123 C 0.41111 0.48994 0.8797 0.0
C1124 C 0.40116 0.48774 0.85763 0.0
C1125 C 0.4273 0.49404 0.92204 0.0
C1126 C 0.41461 0.47601 0.91636 0.0
C1127 C 0.40585 0.47469 0.89555 0.0
C1128 C 0.4124 0.45731 0.93098 0.0
C1129 C 0.43555 0.49741 0.94467 0.0
C1130 C 0.43095 0.44662 0.93816 0.0
C1131 C 0.42931 0.42857 0.95137 0.0
C1132 C 0.40905 0.42063 0.95749 0.0
C1133 C 0.3904 0.4312 0.95012 0.0
C1134 C 0.39208 0.44939 0.93689 0.0
H1135 H 0.43779 0.51481 0.94817 0.0
H1136 H 0.4244 0.4905 0.95682 0.0
H1137 H 0.45146 0.48947 0.94639 0.0
H1138 H 0.44678 0.45207 0.93328 0.0
H1139 H 0.444 0.42072 0.95658 0.0
H1140 H 0.87721 0.08114 0.04247 0.0
H1141 H 0.88183 0.0474 0.06242 0.0
H1142 H 0.94807 0.06401 0.07522 0.0
H1143 H 0.94377 0.09734 0.05493 0.0
H1144 H 0.94386 0.02374 0.05927 0.0
H1145 H 0.88653 0.03619 0.12687 0.0
H1146 H 0.87518 0.03895 0.10038 0.0
H1147 H 0.89512 0.05784 0.10949 0.0
C1148 C 0.89269 0.07767 0.04973 0.0
C1149 C 0.91016 0.09185 0.04708 0.0
C1150 C 0.89526 0.05845 0.06122 0.0
C1151 C 0.91523 0.05331 0.07048 0.0
C1152 C 0.93252 0.06767 0.06819 0.0
H1153 H 0.96151 0.9655 0.1641 0.0
H1154 H 0.94339 0.99448 0.14471 0.0
C1155 C 0.93003 0.08672 0.05658 0.0
C1156 C 0.91879 0.03247 0.08153 0.0
H1157 H 0.90441 0.00262 0.12544 0.0
C1158 C 0.93514 0.01904 0.07366 0.0
C1159 C 0.90741 0.02647 0.10034 0.0
C1160 C 0.89019 0.04066 0.10993 0.0
C1161 C 0.94099 0.00011 0.08444 0.0
C1162 C 0.92964 0.99405 0.10327 0.0
C1163 C 0.91288 0.00719 0.11086 0.0
C1164 C 0.93655 0.97534 0.11637 0.0
C1165 C 0.96 0.98742 0.07611 0.0
C1166 C 0.93769 0.95466 0.10732 0.0
C1167 C 0.94836 0.93812 0.11823 0.0
C1168 C 0.95767 0.94193 0.13854 0.0
C1169 C 0.95464 0.96207 0.14842 0.0
C1170 C 0.94424 0.97867 0.13737 0.0
H1171 H 0.96984 0.9969 0.06455 0.0
H1172 H 0.97058 0.9822 0.08956 0.0
H1173 H 0.95412 0.97285 0.06761 0.0
H1174 H 0.93133 0.95162 0.09135 0.0
H1175 H 0.95016 0.92267 0.11034 0.0
H1176 H 0.05894 0.17399 0.33936 0.0
H1177 H 0.04399 0.20984 0.33252 0.0
H1178 H 0.97969 0.18417 0.33789 0.0
H1179 H 0.9944 0.14847 0.34515 0.0
H1180 H 0.01594 0.2246 0.30038 0.0
H1181 H 0.97981 0.23307 0.38174 0.0
H1182 H -0.00079 0.21241 0.37535 0.0
H1183 H 0.97145 0.20921 0.36771 0.0
C1184 C 0.04162 0.17599 0.33909 0.0
C1185 C 0.02785 0.15846 0.34304 0.0
C1186 C 0.03312 0.19645 0.33513 0.0
C1187 C 0.01076 0.19967 0.33508 0.0
C1188 C 0.997 0.18209 0.33835 0.0
H1189 H 0.92762 0.31074 0.3227 0.0
H1190 H 0.94246 0.27427 0.32249 0.0
C1191 C 0.00545 0.16169 0.34243 0.0
C1192 C 0.00177 0.22147 0.33189 0.0
H1193 H 0.97049 0.25965 0.35598 0.0
C1194 C 0.00606 0.23233 0.31253 0.0
C1195 C 0.98895 0.23147 0.34785 0.0
C1196 C 0.98472 0.22105 0.36941 0.0
C1197 C -0.00249 0.25287 0.30855 0.0
C1198 C 0.98454 0.26274 0.32443 0.0
C1199 C 0.98029 0.25189 0.34377 0.0
C1200 C 0.9757 0.28464 0.32177 0.0
C1201 C 0.00212 0.26375 0.28732 0.0
C1202 C 0.98953 0.30246 0.3212 0.0
C1203 C 0.98113 0.32331 0.3214 0.0
C1204 C 0.95875 0.32665 0.32226 0.0
C1205 C 0.94493 0.30872 0.32204 0.0
C1206 C 0.95336 0.28788 0.32192 0.0
H1207 H 0.008 0.25215 0.27503 0.0
H1208 H 0.98749 0.2719 0.28104 0.0
H1209 H 0.01474 0.27617 0.28973 0.0
H1210 H 0.00683 0.30026 0.32144 0.0
H1211 H 0.99221 0.33679 0.32155 0.0
H1212 H 0.02224 0.66908 0.14756 0.0
H1213 H 0.02544 0.70649 0.15899 0.0
H1214 H 0.98844 0.69251 0.21612 0.0
H1215 H 0.98471 0.65507 0.20452 0.0
H1216 H 0.97228 0.72597 0.19493 0.0
H1217 H 0.05979 0.73814 0.20389 0.0
H1218 H 0.05383 0.72634 0.17821 0.0
H1219 H 0.04786 0.71165 0.20254 0.0
C1220 C 0.01512 0.67384 0.16275 0.0
C1221 C 0.0031 0.65916 0.17505 0.0
C1222 C 0.01713 0.69521 0.16938 0.0
C1223 C 0.00746 0.70222 0.18859 0.0
C1224 C 0.99614 0.6874 0.20132 0.0
H1225 H 0.02423 0.84092 0.21121 0.0
H1226 H 0.02229 0.8025 0.21993 0.0
C1227 C 0.994 0.66603 0.19464 0.0
C1228 C 0.00699 0.72546 0.19382 0.0
H1229 H 0.03881 0.77016 0.19525 0.0
C1230 C 0.98686 0.73559 0.19552 0.0
C1231 C 0.02597 0.73797 0.19503 0.0
C1232 C 0.04807 0.72789 0.19507 0.0
C1233 C 0.98518 0.75805 0.19666 0.0
C1234 C 0.0041 0.77064 0.19562 0.0
C1235 C 0.02428 0.76047 0.1957 0.0
C1236 C 0.00329 0.79413 0.19192 0.0
C1237 C 0.96312 0.76808 0.19831 0.0
C1238 C 0.99317 0.8021 0.17335 0.0
C1239 C 0.99423 0.82393 0.16832 0.0
C1240 C 0.00563 0.83822 0.18168 0.0
C1241 C 0.01531 0.83031 0.20059 0.0
C1242 C 0.01423 0.8084 0.20562 0.0
H1243 H 0.95166 0.75712 0.20659 0.0
H1244 H 0.96364 0.78362 0.20715 0.0
H1245 H 0.95679 0.7711 0.18185 0.0
H1246 H 0.9851 0.79128 0.16227 0.0
H1247 H 0.98664 0.82947 0.15362 0.0
H1248 H 0.31805 0.06017 0.16234 0.0
H1249 H 0.31364 0.05403 0.2011 0.0
H1250 H 0.35112 0.99579 0.19622 0.0
H1251 H 0.35576 0.0018 0.15764 0.0
H1252 H 0.29571 0.01741 0.22284 0.0
H1253 H 0.38143 0.03122 0.24387 0.0
H1254 H 0.36993 0.03961 0.21849 0.0
H1255 H 0.37757 0.01199 0.22259 0.0
C1256 C 0.32537 0.04607 0.16953 0.0
C1257 C 0.33739 0.03155 0.15696 0.0
C1258 C 0.3228 0.04259 0.19163 0.0
C1259 C 0.33233 0.02465 0.20148 0.0
C1260 C 0.34398 0.00994 0.18893 0.0
H1261 H 0.31256 0.95737 0.31957 0.0
H1262 H 0.31089 0.97156 0.28291 0.0
C1263 C 0.34653 0.01337 0.16688 0.0
C1264 C 0.33013 0.02111 0.22489 0.0
H1265 H 0.35965 0.01451 0.27073 0.0
C1266 C 0.30962 0.017 0.23341 0.0
C1267 C 0.34829 0.02095 0.23862 0.0
C1268 C 0.37054 0.02638 0.23051 0.0
C1269 C 0.30692 0.01178 0.25525 0.0
C1270 C 0.32526 0.0104 0.2687 0.0
C1271 C 0.34563 0.01542 0.26033 0.0
C1272 C 0.32399 0.00278 0.29123 0.0
C1273 C 0.28452 0.00769 0.26369 0.0
C1274 C 0.33203 0.01559 0.30802 0.0
C1275 C 0.33321 0.00746 0.32895 0.0
C1276 C 0.32648 0.98631 0.33342 0.0
C1277 C 0.31783 0.97374 0.31667 0.0
C1278 C 0.31671 0.98188 0.29573 0.0
H1279 H 0.27214 0.01563 0.25349 0.0
H1280 H 0.28131 0.99012 0.26351 0.0
H1281 H 0.28279 0.01355 0.28051 0.0
H1282 H 0.33785 0.03173 0.30481 0.0
H1283 H 0.3399 0.01758 0.34151 0.0
H1284 H 0.68905 0.47335 0.15625 0.0
H1285 H 0.69092 0.48051 0.19496 0.0
H1286 H 0.65203 0.53739 0.18649 0.0
H1287 H 0.64984 0.53029 0.14778 0.0
H1288 H 0.70447 0.51749 0.21979 0.0
H1289 H 0.61735 0.49849 0.22835 0.0
H1290 H 0.6325 0.49182 0.20445 0.0
H1291 H 0.62373 0.51901 0.20897 0.0
C1292 C 0.68108 0.48752 0.16257 0.0
C1293 C 0.66904 0.50109 0.14901 0.0
C1294 C 0.68223 0.4916 0.18466 0.0
C1295 C 0.67134 0.50927 0.19352 0.0
C1296 C 0.66026 0.52349 0.17992 0.0
H1297 H 0.67385 0.5527 0.32713 0.0
H1298 H 0.67863 0.55009 0.28806 0.0
C1299 C 0.65908 0.51942 0.15783 0.0
C1300 C 0.67036 0.51194 0.21714 0.0
H1301 H 0.63564 0.50988 0.25963 0.0
C1302 C 0.68945 0.51591 0.22856 0.0
C1303 C 0.65074 0.50954 0.22843 0.0
C1304 C 0.62991 0.5043 0.21701 0.0
C1305 C 0.68941 0.51767 0.25112 0.0
C1306 C 0.66972 0.51557 0.26235 0.0
C1307 C 0.65067 0.51157 0.2509 0.0
C1308 C 0.66844 0.51683 0.28608 0.0
C1309 C 0.71041 0.52125 0.2628 0.0
C1310 C 0.661 0.49904 0.2978 0.0
C1311 C 0.65811 0.5005 0.32004 0.0
C1312 C 0.66252 0.51985 0.33094 0.0
C1313 C 0.67035 0.53756 0.3192 0.0
C1314 C 0.67322 0.53607 0.29691 0.0
H1315 H 0.72451 0.51777 0.25235 0.0
H1316 H 0.71143 0.53831 0.268 0.0
H1317 H 0.71139 0.51097 0.27741 0.0
H1318 H 0.65716 0.48407 0.28967 0.0
H1319 H 0.6521 0.48654 0.3286 0.0
H1320 H 0.31397 0.35069 0.96162 0.0
H1321 H 0.27735 0.33979 0.97091 0.0
H1322 H 0.29779 0.32582 0.03587 0.0
H1323 H 0.33441 0.33723 0.02688 0.0
H1324 H 0.26013 0.30161 0.98694 0.0
H1325 H 0.24968 0.36942 0.04472 0.0
H1326 H 0.27203 0.36807 0.02624 0.0
H1327 H 0.27195 0.3518 0.05019 0.0
C1328 C 0.31071 0.34524 0.97787 0.0
C1329 C 0.32698 0.3451 0.9936 0.0
C1330 C 0.28981 0.33894 0.98312 0.0
C1331 C 0.28485 0.33232 0.00415 0.0
C1332 C 0.30124 0.3313 0.01967 0.0
H1333 H 0.15483 0.31742 0.05584 0.0
H1334 H 0.19368 0.31215 0.05193 0.0
C1335 C 0.32213 0.33779 0.01449 0.0
C1336 C 0.26228 0.32756 0.0099 0.0
H1337 H 0.22016 0.34647 0.0396 0.0
C1338 C 0.25141 0.31125 -0.00139 0.0
C1339 C 0.25102 0.34017 0.02517 0.0
C1340 C 0.26165 0.35846 0.03719 0.0
C1341 C 0.22936 0.30759 0.00179 0.0
C1342 C 0.21798 0.32073 0.01647 0.0
C1343 C 0.22903 0.33638 0.02843 0.0
C1344 C 0.19428 0.32029 0.01804 0.0
C1345 C 0.21834 0.28999 0.98918 0.0
C1346 C 0.18182 0.32636 0.0002 0.0
C1347 C 0.15971 0.32952 0.00239 0.0
C1348 C 0.1497 0.32675 0.02251 0.0
C1349 C 0.16208 0.31972 0.04014 0.0
C1350 C 0.18424 0.31665 0.03794 0.0
H1351 H 0.22997 0.27744 0.98395 0.0
H1352 H 0.20543 0.28226 -0.00116 0.0
H1353 H 0.21092 0.29703 0.97452 0.0
H1354 H 0.18935 0.32968 0.98482 0.0
H1355 H 0.15061 0.33487 0.9885 0.0
H1356 H 0.15308 0.68051 0.46585 0.0
H1357 H 0.19186 0.68558 0.47108 0.0
H1358 H 0.19386 0.62935 0.51176 0.0
H1359 H 0.15524 0.62404 0.50659 0.0
H1360 H 0.21522 0.69079 0.51084 0.0
H1361 H 0.24037 0.61824 0.46515 0.0
H1362 H 0.21381 0.62985 0.46275 0.0
H1363 H 0.22038 0.61301 0.48539 0.0
C1364 C 0.16178 0.6692 0.47588 0.0
C1365 C 0.15112 0.65179 0.4857 0.0
C1366 C 0.18389 0.67215 0.47886 0.0
C1367 C 0.19568 0.65766 0.49154 0.0
C1368 C 0.18505 0.64048 0.50161 0.0
H1369 H 0.31617 0.66028 0.55645 0.0
H1370 H 0.27878 0.66451 0.5451 0.0
C1371 C 0.16297 0.63754 0.4987 0.0
C1372 C 0.21911 0.66045 0.49448 0.0
H1373 H 0.26703 0.63466 0.48744 0.0
C1374 C 0.22663 0.67868 0.50553 0.0
C1375 C 0.2339 0.64478 0.48719 0.0
C1376 C 0.22678 0.62546 0.47427 0.0
C1377 C 0.24857 0.68113 0.51038 0.0
C1378 C 0.26318 0.66481 0.5042 0.0
C1379 C 0.25575 0.64709 0.49228 0.0
C1380 C 0.286 0.66498 0.51098 0.0
C1381 C 0.25588 0.70106 0.5222 0.0
C1382 C 0.30246 0.66379 0.49555 0.0
C1383 C 0.32386 0.66121 0.50199 0.0
C1384 C 0.32912 0.65959 0.52398 0.0
C1385 C 0.31266 0.6615 0.5394 0.0
C1386 C 0.29128 0.66408 0.53295 0.0
H1387 H 0.2444 0.71459 0.51991 0.0
H1388 H 0.25676 0.69752 0.53971 0.0
H1389 H 0.27208 0.70624 0.51672 0.0
H1390 H 0.29866 0.66432 0.47852 0.0
H1391 H 0.33616 0.65982 0.4897 0.0
H1392 H 0.65811 0.78255 0.50689 0.0
H1393 H 0.69665 0.77855 0.51414 0.0
H1394 H 0.71008 0.83315 0.47342 0.0
H1395 H 0.6717 0.83722 0.46592 0.0
H1396 H 0.74039 0.79768 0.47005 0.0
H1397 H 0.72472 0.82461 0.55429 0.0
H1398 H 0.7098 0.80167 0.5448 0.0
H1399 H 0.70506 0.82766 0.53309 0.0
C1400 C 0.66929 0.79345 0.49913 0.0
C1401 C 0.66183 0.81042 0.4861 0.0
C1402 C 0.69128 0.79117 0.50336 0.0
C1403 C 0.70607 0.80579 0.49459 0.0
C1404 C 0.69884 0.82177 0.48039 0.0
H1405 H 0.82473 0.86183 0.52876 0.0
H1406 H 0.78757 0.85124 0.52145 0.0
C1407 C 0.6769 0.8241 0.47618 0.0
C1408 C 0.72877 0.80591 0.50165 0.0
H1409 H 0.76078 0.81981 0.54418 0.0
C1410 C 0.74493 0.80216 0.48633 0.0
C1411 C 0.73448 0.81202 0.52287 0.0
C1412 C 0.71768 0.81688 0.53975 0.0
C1413 C 0.76674 0.80494 0.49154 0.0
C1414 C 0.7724 0.81151 0.51261 0.0
C1415 C 0.75628 0.81463 0.52809 0.0
C1416 C 0.79474 0.8173 0.51827 0.0
C1417 C 0.78354 0.80186 0.47425 0.0
C1418 C 0.81091 0.8016 0.51936 0.0
C1419 C 0.83219 0.80758 0.52362 0.0
C1420 C 0.83756 0.82937 0.52678 0.0
C1421 C 0.82115 0.84494 0.5263 0.0
C1422 C 0.79991 0.83893 0.52215 0.0
H1423 H 0.77625 0.79956 0.45805 0.0
H1424 H 0.79451 0.81596 0.47367 0.0
H1425 H 0.79339 0.78745 0.47807 0.0
H1426 H 0.8071 0.78479 0.51665 0.0
H1427 H 0.84446 0.79521 0.52392 0.0
H1428 H 0.46593 0.82106 0.83463 0.0
H1429 H 0.47308 0.78368 0.82454 0.0
H1430 H 0.54115 0.79722 0.82203 0.0
H1431 H 0.53423 0.8345 0.8326 0.0
H1432 H 0.49322 0.76595 0.78864 0.0
H1433 H 0.53787 0.74694 0.86394 0.0
H1434 H 0.52216 0.77117 0.86084 0.0
H1435 H 0.54851 0.76928 0.84901 0.0
C1436 C 0.48242 0.81609 0.83193 0.0
C1437 C 0.49954 0.83065 0.83465 0.0
C1438 C 0.48646 0.79476 0.82611 0.0
C1439 C 0.50765 0.78766 0.82288 0.0
C1440 C 0.52472 0.8023 0.82491 0.0
H1441 H 0.55729 0.65817 0.80232 0.0
H1442 H 0.55382 0.6974 0.80191 0.0
C1443 C 0.52072 0.8236 0.83089 0.0
C1444 C 0.51185 0.76477 0.81791 0.0
H1445 H 0.5361 0.71962 0.83763 0.0
C1446 C 0.50265 0.7558 0.79928 0.0
C1447 C 0.52416 0.75163 0.83188 0.0
C1448 C 0.5336 0.76014 0.85264 0.0
C1449 C 0.50538 0.73394 0.7943 0.0
C1450 C 0.51744 0.7208 0.80841 0.0
C1451 C 0.527 0.72985 0.82678 0.0
C1452 C 0.51918 0.69729 0.80542 0.0
C1453 C 0.49533 0.72505 0.77402 0.0
C1454 C 0.50079 0.68433 0.80726 0.0
C1455 C 0.5027 0.66195 0.80761 0.0
C1456 C 0.52308 0.65218 0.80622 0.0
C1457 C 0.54138 0.6652 0.80345 0.0
C1458 C 0.53944 0.6876 0.8032 0.0
H1459 H 0.49172 0.738 0.76221 0.0
H1460 H 0.50607 0.71302 0.7663 0.0
H1461 H 0.47998 0.71692 0.77817 0.0
H1462 H 0.48505 0.69153 0.80939 0.0
H1463 H 0.48829 0.65236 0.80973 0.0
H1464 H 0.46692 0.31432 0.63118 0.0
H1465 H 0.47284 0.27699 0.64198 0.0
H1466 H 0.5043 0.29847 0.7001 0.0
H1467 H 0.4984 0.33601 0.68946 0.0
H1468 H 0.52833 0.26851 0.67392 0.0
H1469 H 0.44539 0.24008 0.6907 0.0
H1470 H 0.4479 0.25462 0.6658 0.0
H1471 H 0.45272 0.26826 0.69091 0.0
C1472 C 0.47481 0.31114 0.64642 0.0
C1473 C 0.48225 0.3281 0.65944 0.0
C1474 C 0.47806 0.28981 0.65262 0.0
C1475 C 0.48882 0.28506 0.67192 0.0
C1476 C 0.49583 0.3019 0.68523 0.0
H1477 H 0.50327 0.14824 0.70372 0.0
H1478 H 0.49942 0.18709 0.70921 0.0
C1479 C 0.49241 0.32329 0.67913 0.0
C1480 C 0.4943 0.2625 0.67701 0.0
H1481 H 0.47179 0.21284 0.68318 0.0
C1482 C 0.51603 0.25635 0.67637 0.0
C1483 C 0.47822 0.24679 0.68042 0.0
C1484 C 0.45475 0.25275 0.68222 0.0
C1485 C 0.52199 0.23462 0.6777 0.0
C1486 C 0.50577 0.21878 0.67955 0.0
C1487 C 0.48417 0.22505 0.68159 0.0
C1488 C 0.51058 0.1956 0.67732 0.0
C1489 C 0.54551 0.22872 0.6765 0.0
C1490 C 0.51828 0.18763 0.65764 0.0
C1491 C 0.52036 0.16551 0.65438 0.0
C1492 C 0.51475 0.15096 0.67079 0.0
C1493 C 0.50777 0.15903 0.69079 0.0
C1494 C 0.50555 0.1812 0.69396 0.0
H1495 H 0.55596 0.2424 0.68139 0.0
H1496 H 0.54915 0.21465 0.68693 0.0
H1497 H 0.54961 0.22439 0.65964 0.0
H1498 H 0.52189 0.19851 0.64448 0.0
H1499 H 0.52579 0.1598 0.63881 0.0
H1500 H 0.7934 0.51649 0.8459 0.0
H1501 H 0.78138 0.50886 0.80904 0.0
H1502 H 0.84475 0.52411 0.78516 0.0
H1503 H 0.85689 0.53183 0.82176 0.0
H1504 H 0.80854 0.54058 0.75984 0.0
H1505 H 0.80395 0.45286 0.7785 0.0
H1506 H 0.78937 0.47124 0.79553 0.0
H1507 H 0.81824 0.47151 0.79564 0.0
C1508 C 0.80468 0.51857 0.83275 0.0
C1509 C 0.82618 0.52453 0.83674 0.0
C1510 C 0.79779 0.51412 0.81176 0.0
C1511 C 0.81228 0.51567 0.79452 0.0
C1512 C 0.83337 0.52278 0.79832 0.0
H1513 H 0.84299 0.4637 0.67558 0.0
H1514 H 0.83604 0.47256 0.71325 0.0
C1515 C 0.84029 0.52713 0.81924 0.0
C1516 C 0.80629 0.5085 0.77265 0.0
H1517 H 0.80045 0.46303 0.74229 0.0
C1518 C 0.80627 0.5237 0.75597 0.0
C1519 C 0.80352 0.48642 0.76782 0.0
C1520 C 0.80385 0.46945 0.78522 0.0
C1521 C 0.80461 0.51729 0.73436 0.0
C1522 C 0.80276 0.49511 0.72947 0.0
C1523 C 0.80172 0.48001 0.74621 0.0
C1524 C 0.80503 0.48721 0.70715 0.0
C1525 C 0.80624 0.5341 0.71688 0.0
C1526 C 0.78951 0.49187 0.69142 0.0
C1527 C 0.79343 0.48682 0.66981 0.0
C1528 C 0.81297 0.4771 0.6637 0.0
C1529 C 0.82787 0.47134 0.67974 0.0
C1530 C 0.82391 0.47633 0.70127 0.0
H1531 H 0.81026 0.55027 0.7234 0.0
H1532 H 0.81873 0.52947 0.70495 0.0
H1533 H 0.79063 0.53524 0.70825 0.0
H1534 H 0.77474 0.50006 0.69575 0.0
H1535 H 0.78157 0.49137 0.65784 0.0
H1536 H 0.21899 0.95069 0.66278 0.0
H1537 H 0.22671 0.95379 0.7014 0.0
H1538 H 0.1779 0.00282 0.70725 0.0
H1539 H 0.17032 0.00013 0.66883 0.0
H1540 H 0.21521 0.01053 0.73263 0.0
H1541 H 0.18201 0.92773 0.74305 0.0
H1542 H 0.2045 0.9309 0.72511 0.0
H1543 H 0.17894 0.9425 0.71823 0.0
C1544 C 0.21018 0.9624 0.67222 0.0
C1545 C 0.19378 0.9749 0.66283 0.0
C1546 C 0.21458 0.9641 0.69427 0.0
C1547 C 0.20261 0.97826 0.70717 0.0
C1548 C 0.18728 0.99175 0.69755 0.0
H1549 H 0.14421 0.98567 0.82603 0.0
H1550 H 0.15762 0.98081 0.78946 0.0
C1551 C 0.18289 0.9901 0.67559 0.0
C1552 C 0.20414 0.97774 0.73092 0.0
H1553 H 0.18785 0.94805 0.7742 0.0
C1554 C 0.20974 0.99673 0.74183 0.0
C1555 C 0.19682 0.95969 0.74275 0.0
C1556 C 0.19008 0.93905 0.73179 0.0
C1557 C 0.20703 -0.00143 0.7642 0.0
C1558 C 0.19867 0.98089 0.77582 0.0
C1559 C 0.19433 0.96149 0.76512 0.0
C1560 C 0.19124 0.98319 0.79828 0.0
C1561 C 0.21168 0.01981 0.77506 0.0
C1562 C 0.20579 0.98593 0.81534 0.0
C1563 C 0.19816 0.98871 0.83638 0.0
C1564 C 0.17589 0.98882 0.84055 0.0
C1565 C 0.16145 0.98575 0.82338 0.0
C1566 C 0.16907 0.98291 0.80247 0.0
H1567 H 0.21633 0.03252 0.76336 0.0
H1568 H 0.19731 0.02534 0.78416 0.0
H1569 H 0.22503 0.01773 0.78677 0.0
H1570 H 0.22297 0.98598 0.81237 0.0
H1571 H 0.20969 0.99099 0.84928 0.0
H1572 H 0.81659 0.17884 0.03906 0.0
H1573 H 0.77963 0.18792 0.02872 0.0
H1574 H 0.79278 0.16808 0.96345 0.0
H1575 H 0.82972 0.15902 0.97352 0.0
H1576 H 0.76891 0.20924 0.96916 0.0
H1577 H 0.73495 0.13921 0.01387 0.0
H1578 H 0.75276 0.15688 0.0284 0.0
H1579 H 0.76307 0.14085 0.00669 0.0
C1580 C 0.81166 0.17651 0.02248 0.0
C1581 C 0.826 0.16802 0.00715 0.0
C1582 C 0.79057 0.1817 0.01663 0.0
C1583 C 0.78357 0.1785 0.99539 0.0
C1584 C 0.79798 0.17065 0.97992 0.0
H1585 H 0.6707 0.17964 0.91754 0.0
H1586 H 0.70702 0.18359 0.93208 0.0
C1587 C 0.81902 0.16538 0.98575 0.0
C1588 C 0.76092 0.18224 0.98938 0.0
H1589 H 0.71074 0.16073 0.99451 0.0
C1590 C 0.75609 0.19881 0.97482 0.0
C1591 C 0.74437 0.16859 0.99691 0.0
C1592 C 0.74892 0.15027 0.01223 0.0
C1593 C 0.73501 0.20192 0.96729 0.0
C1594 C 0.71859 0.18774 0.9742 0.0
C1595 C 0.72337 0.17159 0.98927 0.0
C1596 C 0.69661 0.18829 0.96505 0.0
C1597 C 0.73057 0.2203 0.95205 0.0
C1598 C 0.67872 0.18951 0.97877 0.0
C1599 C 0.65797 0.18691 0.97055 0.0
C1600 C 0.65476 0.18304 0.94846 0.0
C1601 C 0.67265 0.18268 0.93461 0.0
C1602 C 0.69342 0.18512 0.94288 0.0
H1603 H 0.74255 0.23344 0.95405 0.0
H1604 H 0.73172 0.21439 0.93521 0.0
H1605 H 0.71419 0.22702 0.95455 0.0
H1606 H 0.68086 0.19184 0.99594 0.0
H1607 H 0.64449 0.18739 0.98162 0.0
H1608 H 0.02329 0.93434 0.20263 0.0
H1609 H 0.03645 0.96096 0.22835 0.0
H1610 H 0.09635 0.96548 0.19354 0.0
H1611 H 0.08327 0.93872 0.1675 0.0
H1612 H 0.0763 0.96014 0.25428 0.0
H1613 H 0.07052 0.02842 0.19619 0.0
H1614 H 0.05637 0.0034 0.19183 0.0
H1615 H 0.08498 0.00456 0.18826 0.0
C1616 C 0.03932 0.94086 0.20045 0.0
C1617 C 0.05219 0.93453 0.18294 0.0
C1618 C 0.04683 0.95602 0.21521 0.0
C1619 C 0.06727 0.96523 0.2127 0.0
C1620 C 0.08044 0.95862 0.19559 0.0
H1621 H 0.10334 0.05439 0.31778 0.0
H1622 H 0.10915 0.02886 0.28815 0.0
C1623 C 0.07297 0.94331 0.18081 0.0
C1624 C 0.07409 0.98232 0.22777 0.0
H1625 H 0.07687 0.03699 0.23247 0.0
C1626 C 0.07697 0.97693 0.24952 0.0
C1627 C 0.07477 0.00415 0.22136 0.0
C1628 C 0.07143 0.01067 0.19818 0.0
C1629 C 0.07935 0.99293 0.26529 0.0
C1630 C 0.079 0.01482 0.25901 0.0
C1631 C 0.07728 0.02016 0.23712 0.0
C1632 C 0.07699 0.03218 0.27516 0.0
C1633 C 0.08073 0.9864 0.28868 0.0
C1634 C 0.05727 0.04296 0.27712 0.0
C1635 C 0.0539 0.05744 0.29393 0.0
C1636 C 0.07025 0.0615 0.30906 0.0
C1637 C 0.09042 0.05155 0.30641 0.0
C1638 C 0.09375 0.03692 0.28956 0.0
H1639 H 0.07843 0.96881 0.29095 0.0
H1640 H 0.09678 0.99085 0.29517 0.0
H1641 H 0.06839 0.99507 0.29828 0.0
H1642 H 0.04416 0.03949 0.26612 0.0
H1643 H 0.03823 0.06495 0.29542 0.0
H1644 H 0.87474 0.43298 0.31372 0.0
H1645 H 0.86424 0.46165 0.28872 0.0
H1646 H 0.91906 0.44679 0.24873 0.0
H1647 H 0.9294 0.41812 0.27325 0.0
H1648 H 0.88946 0.496 0.28298 0.0
H1649 H 0.8747 0.45976 0.20343 0.0
H1650 H 0.87412 0.44407 0.22795 0.0
H1651 H 0.89925 0.44923 0.21432 0.0
C1652 C 0.88414 0.43537 0.29921 0.0
C1653 C 0.90303 0.42343 0.29556 0.0
C1654 C 0.87811 0.45177 0.28496 0.0
C1655 C 0.89072 0.45625 0.26673 0.0
C1656 C 0.90875 0.44335 0.26237 0.0
H1657 H 0.95168 0.55986 0.21664 0.0
H1658 H 0.93368 0.53247 0.23808 0.0
C1659 C 0.91479 0.42706 0.27657 0.0
C1660 C 0.88763 0.47639 0.25432 0.0
H1661 H 0.89155 0.49578 0.20308 0.0
C1662 C 0.88919 0.49599 0.26549 0.0
C1663 C 0.88687 0.47653 0.23155 0.0
C1664 C 0.88339 0.45622 0.21868 0.0
C1665 C 0.89238 0.51542 0.25448 0.0
C1666 C 0.89438 0.51512 0.2318 0.0
C1667 C 0.89043 0.49593 0.22053 0.0
C1668 C 0.9039 0.53345 0.21995 0.0
C1669 C 0.89479 0.53592 0.2673 0.0
C1670 C 0.89319 0.54298 0.20247 0.0
C1671 C 0.90353 0.55872 0.19006 0.0
C1672 C 0.92483 0.56485 0.19478 0.0
C1673 C 0.93527 0.55553 0.21257 0.0
C1674 C 0.92493 0.53998 0.22498 0.0
H1675 H 0.88539 0.53513 0.28251 0.0
H1676 H 0.91197 0.53813 0.27168 0.0
H1677 H 0.88944 0.55016 0.2579 0.0
H1678 H 0.87704 0.53795 0.1982 0.0
H1679 H 0.8951 0.56554 0.17638 0.0
H1680 H 0.17834 0.01081 0.94892 0.0
H1681 H 0.20288 0.02357 0.97674 0.0
H1682 H 0.2072 0.08524 0.94514 0.0
H1683 H 0.18246 0.07255 0.91695 0.0
H1684 H 0.24756 0.06588 0.95683 0.0
H1685 H 0.19065 0.06739 0.02538 0.0
H1686 H 0.18955 0.04265 0.01044 0.0
H1687 H 0.18185 0.06747 0.99761 0.0
C1688 C 0.18439 0.02713 0.94785 0.0
C1689 C 0.17841 0.04069 0.93072 0.0
C1690 C 0.19829 0.03444 0.96388 0.0
C1691 C 0.20647 0.05546 0.96319 0.0
C1692 C 0.2008 0.06904 0.94604 0.0
H1693 H 0.31326 0.093 0.04967 0.0
H1694 H 0.28336 0.09799 0.02432 0.0
C1695 C 0.18673 0.06175 0.92997 0.0
C1696 C 0.22193 0.06246 0.97988 0.0
H1697 H 0.22834 0.06448 0.03443 0.0
C1698 C 0.24335 0.06616 0.97379 0.0
C1699 C 0.21626 0.06286 0.00193 0.0
C1700 C 0.19327 0.06009 0.00924 0.0
C1701 C 0.25961 0.06852 0.98933 0.0
C1702 C 0.25412 0.06747 0.01143 0.0
C1703 C 0.23248 0.0652 0.01746 0.0
C1704 C 0.27081 0.06575 0.02832 0.0
C1705 C 0.28269 0.07058 0.98203 0.0
C1706 C 0.27309 0.04626 0.03947 0.0
C1707 C 0.29002 0.04337 0.05393 0.0
C1708 C 0.30497 0.05998 0.05758 0.0
C1709 C 0.30206 0.07987 0.04713 0.0
C1710 C 0.28508 0.08273 0.03259 0.0
H1711 H 0.28445 0.06823 0.96437 0.0
H1712 H 0.28878 0.08687 0.98614 0.0
H1713 H 0.29298 0.05861 0.99045 0.0
H1714 H 0.26219 0.03298 0.03641 0.0
H1715 H 0.29171 0.02789 0.06179 0.0
H1716 H 0.68181 0.43077 0.03588 0.0
H1717 H 0.71229 0.42485 0.0115 0.0
H1718 H 0.7418 0.48348 0.03426 0.0
H1719 H 0.71175 0.48938 0.05871 0.0
H1720 H 0.72329 0.45261 0.97885 0.0
H1721 H 0.79253 0.44235 0.03373 0.0
H1722 H 0.765 0.43932 0.04264 0.0
H1723 H 0.77702 0.46565 0.04078 0.0
C1724 C 0.69502 0.44215 0.03601 0.0
C1725 C 0.69434 0.46058 0.04918 0.0
C1726 C 0.71239 0.43874 0.02207 0.0
C1727 C 0.72944 0.45355 0.02132 0.0
C1728 C 0.72909 0.47156 0.03496 0.0
H1729 H 0.82279 0.50991 0.94526 0.0
H1730 H 0.79686 0.49637 0.97141 0.0
C1731 C 0.71177 0.47501 0.0488 0.0
C1732 C 0.74643 0.4518 0.00471 0.0
H1733 H 0.80074 0.45644 -0.00193 0.0
C1734 C 0.74027 0.45282 0.98297 0.0
C1735 C 0.76854 0.45199 0.01015 0.0
C1736 C 0.77615 0.44953 0.03311 0.0
C1737 C 0.75559 0.45583 0.96664 0.0
C1738 C 0.77754 0.45767 0.9723 0.0
C1739 C 0.78383 0.45516 0.99386 0.0
C1740 C 0.79377 0.46501 0.95657 0.0
C1741 C 0.74814 0.45854 0.94365 0.0
C1742 C 0.80065 0.45173 0.93964 0.0
C1743 C 0.81555 0.45943 0.92458 0.0
C1744 C 0.82367 0.48052 0.92627 0.0
C1745 C 0.8168 0.49363 0.94341 0.0
C1746 C 0.80205 0.48591 0.95844 0.0
H1747 H 0.73031 0.45838 0.94222 0.0
H1748 H 0.7543 0.47394 0.93698 0.0
H1749 H 0.75472 0.44528 0.93364 0.0
H1750 H 0.79447 0.4355 0.93807 0.0
H1751 H 0.82059 0.44894 0.91158 0.0
H1752 H 0.30675 0.89819 0.42295 0.0
H1753 H 0.27893 0.88639 0.44839 0.0
H1754 H 0.25498 0.95146 0.4523 0.0
H1755 H 0.28241 0.96329 0.42696 0.0
H1756 H 0.27601 0.9015 0.49007 0.0
H1757 H 0.19963 0.91684 0.44732 0.0
H1758 H 0.22509 0.91465 0.43341 0.0
H1759 H 0.21713 0.93974 0.44564 0.0
C1760 C 0.29523 0.90986 0.42886 0.0
C1761 C 0.29682 0.93169 0.42301 0.0
C1762 C 0.27938 0.9031 0.44339 0.0
C1763 C 0.26472 0.91799 0.45198 0.0
C1764 C 0.2658 0.93959 0.44549 0.0
H1765 H 0.21209 0.94944 0.56891 0.0
H1766 H 0.2346 0.93799 0.53893 0.0
C1767 C 0.28164 0.94637 0.43113 0.0
C1768 C 0.24992 0.9119 0.46963 0.0
H1769 H 0.19828 0.91949 0.48653 0.0
C1770 C 0.25889 0.90485 0.48916 0.0
C1771 C 0.22755 0.91587 0.46836 0.0
C1772 C 0.21677 0.92197 0.44745 0.0
C1773 C 0.24641 0.90362 0.50794 0.0
C1774 C 0.22455 0.90991 0.50715 0.0
C1775 C 0.21514 0.91497 0.48721 0.0
C1776 C 0.21201 0.91427 0.52695 0.0
C1777 C 0.25696 0.89645 0.52863 0.0
C1778 C 0.19177 0.90477 0.53018 0.0
C1779 C 0.17874 0.91141 0.54732 0.0
C1780 C 0.18566 0.92785 0.5613 0.0
C1781 C 0.20627 0.93674 0.55845 0.0
C1782 C 0.21927 0.93006 0.5414 0.0
H1783 H 0.27039 0.88509 0.52538 0.0
H1784 H 0.26381 0.9107 0.53699 0.0
H1785 H 0.24522 0.88856 0.53957 0.0
H1786 H 0.18581 0.8927 0.51907 0.0
H1787 H 0.16292 0.90427 0.54907 0.0
H1788 H 0.79164 0.48943 0.56657 0.0
H1789 H 0.76669 0.50267 0.53927 0.0
H1790 H 0.8014 0.56272 0.53621 0.0
H1791 H 0.82669 0.54954 0.5636 0.0
H1792 H 0.74038 0.54143 0.53893 0.0
H1793 H 0.80152 0.53806 0.47325 0.0
H1794 H 0.80523 0.52413 0.49852 0.0
H1795 H 0.80816 0.55284 0.49733 0.0
C1796 C 0.79394 0.50552 0.56023 0.0
C1797 C 0.81125 0.51838 0.56713 0.0
C1798 C 0.77962 0.51307 0.54468 0.0
C1799 C 0.78236 0.53355 0.53564 0.0
C1800 C 0.79919 0.54676 0.54289 0.0
H1801 H 0.68202 0.57336 0.44284 0.0
H1802 H 0.70987 0.57718 0.47063 0.0
C1803 C 0.81355 0.53923 0.55857 0.0
C1804 C 0.76794 0.54039 0.51798 0.0
H1805 H 0.7658 0.54519 0.46323 0.0
C1806 C 0.74592 0.54272 0.5224 0.0
C1807 C 0.77534 0.54186 0.49649 0.0
C1808 C 0.79882 0.53901 0.49093 0.0
C1809 C 0.73092 0.54552 0.50574 0.0
C1810 C 0.73823 0.54618 0.48418 0.0
C1811 C 0.76035 0.54482 0.47983 0.0
C1812 C 0.72298 0.54526 0.46592 0.0
C1813 C 0.70725 0.54641 0.51118 0.0
C1814 C 0.72168 0.52634 0.45368 0.0
C1815 C 0.70588 0.52409 0.43788 0.0
C1816 C 0.69113 0.5408 0.43394 0.0
C1817 C 0.69311 0.56018 0.44554 0.0
C1818 C 0.70893 0.56237 0.46146 0.0
H1819 H 0.70414 0.54298 0.52848 0.0
H1820 H 0.70092 0.5627 0.50747 0.0
H1821 H 0.69814 0.53462 0.50127 0.0
H1822 H 0.73243 0.51297 0.4569 0.0
H1823 H 0.70489 0.50901 0.42916 0.0
H1824 H 0.0423 0.32538 0.08666 0.0
H1825 H 0.01549 0.2983 0.09708 0.0
H1826 H 0.02454 0.26591 0.03628 0.0
H1827 H 0.05115 0.29276 0.02571 0.0
H1828 H 0.97692 0.2899 0.07304 0.0
H1829 H 0.02724 0.21687 0.08149 0.0
H1830 H 0.03824 0.24379 0.08289 0.0
H1831 H 0.03284 0.2315 0.05718 0.0
C1832 C 0.03879 0.3123 0.07565 0.0
C1833 C 0.0488 0.3112 0.05535 0.0
C1834 C 0.0235 0.29689 0.08164 0.0
C1835 C 0.01832 0.27999 0.06757 0.0
C1836 C 0.02864 0.27861 0.04752 0.0
H1837 H 0.9169 0.20817 0.02409 0.0
H1838 H 0.94189 0.23588 0.03622 0.0
C1839 C 0.04373 0.29406 0.04145 0.0
C1840 C 0.00081 0.26476 0.07265 0.0
H1841 H 0.98966 0.21104 0.07294 0.0
C1842 C 0.97968 0.27266 0.0736 0.0
C1843 C 0.00451 0.24234 0.07373 0.0
C1844 C 0.02697 0.23311 0.074 0.0
C1845 C 0.96203 0.25859 0.07365 0.0
C1846 C 0.96573 0.23617 0.07255 0.0
C1847 C 0.98687 0.22827 0.07359 0.0
C1848 C 0.94835 0.2209 0.06704 0.0
C1849 C 0.93958 0.26783 0.07387 0.0
C1850 C 0.9437 0.20327 0.08038 0.0
C1851 C 0.92934 0.18734 0.07347 0.0
C1852 C 0.9198 0.18866 0.05295 0.0
C1853 C 0.92402 0.20668 0.03996 0.0
C1854 C 0.93816 0.22264 0.04695 0.0
H1855 H 0.93926 0.28385 0.08183 0.0
H1856 H 0.93395 0.26996 0.05703 0.0
H1857 H 0.92817 0.25694 0.08228 0.0
H1858 H 0.95162 0.20157 0.09585 0.0
H1859 H 0.92645 0.17357 0.08378 0.0
H1860 H 0.0445 0.68241 0.4309 0.0
H1861 H 0.02079 0.71398 0.4312 0.0
H1862 H 0.03089 0.72096 0.49961 0.0
H1863 H 0.05462 0.68971 0.49949 0.0
H1864 H 0.98264 0.71813 0.45548 0.0
H1865 H 0.04122 0.78196 0.47662 0.0
H1866 H 0.04936 0.75598 0.46638 0.0
H1867 H 0.04256 0.75921 0.49438 0.0
C1868 C 0.04189 0.69084 0.44595 0.0
C1869 C 0.05147 0.68358 0.46516 0.0
C1870 C 0.02833 0.70883 0.44608 0.0
C1871 C 0.02437 0.71994 0.46536 0.0
C1872 C 0.03411 0.71287 0.48448 0.0
H1873 H 0.94296 0.81207 0.52337 0.0
H1874 H 0.96896 0.78466 0.51265 0.0
C1875 C 0.04757 0.69491 0.48439 0.0
C1876 C 0.00897 0.73809 0.46602 0.0
H1877 H 0.00392 0.79013 0.48283 0.0
C1878 C 0.9873 0.73401 0.46106 0.0
C1879 C 0.01518 0.75875 0.47327 0.0
C1880 C 0.03839 0.76434 0.47777 0.0
C1881 C 0.97143 0.74975 0.46439 0.0
C1882 C 0.97753 0.77009 0.47261 0.0
C1883 C -0.00068 0.77445 0.47665 0.0
C1884 C 0.96144 0.78652 0.47866 0.0
C1885 C 0.94815 0.74419 0.46016 0.0
C1886 C 0.94862 0.79665 0.46304 0.0
C1887 C 0.93367 0.81236 0.46911 0.0
C1888 C 0.93139 0.8182 0.4909 0.0
C1889 C 0.94427 0.80794 0.50646 0.0
C1890 C 0.95918 0.79231 0.50038 0.0
H1891 H 0.94582 0.72669 0.45726 0.0
H1892 H 0.93794 0.74914 0.47398 0.0
H1893 H 0.94249 0.75305 0.44571 0.0
H1894 H 0.95036 0.79256 0.44616 0.0
H1895 H 0.92405 0.82003 0.45674 0.0
H1896 H 0.55964 0.78991 0.4957 0.0
H1897 H 0.52929 0.76855 0.50846 0.0
H1898 H 0.53081 0.80212 0.56928 0.0
H1899 H 0.56158 0.82349 0.55674 0.0
H1900 H 0.52388 0.75748 0.57339 0.0
H1901 H 0.46855 0.79368 0.51362 0.0
H1902 H 0.49222 0.78269 0.50124 0.0
H1903 H 0.49465 0.80499 0.51963 0.0
C1904 C 0.55366 0.79269 0.51186 0.0
C1905 C 0.56288 0.80855 0.52513 0.0
C1906 C 0.53624 0.78054 0.51908 0.0
C1907 C 0.52751 0.78414 0.5396 0.0
C1908 C 0.53722 0.79927 0.55331 0.0
H1909 H 0.40138 0.7243 0.5554 0.0
H1910 H 0.42973 0.75128 0.55996 0.0
C1911 C 0.55479 0.81142 0.54612 0.0
C1912 C 0.50798 0.77229 0.54633 0.0
H1913 H 0.45714 0.76035 0.5295 0.0
C1914 C 0.50913 0.75831 0.56404 0.0
C1915 C 0.48858 0.77387 0.5345 0.0
C1916 C 0.48581 0.7898 0.51634 0.0
C1917 C 0.49181 0.74476 0.56932 0.0
C1918 C 0.47312 0.74495 0.55625 0.0
C1919 C 0.47151 0.75999 0.53944 0.0
C1920 C 0.45597 0.72842 0.55806 0.0
C1921 C 0.49386 0.73019 0.58866 0.0
C1922 C 0.46125 0.70654 0.55608 0.0
C1923 C 0.44511 0.69109 0.55368 0.0
C1924 C 0.42334 0.69727 0.5528 0.0
C1925 C 0.418 0.71904 0.55592 0.0
C1926 C 0.43418 0.73447 0.55854 0.0
H1927 H 0.50438 0.73754 0.60115 0.0
H1928 H 0.47793 0.72662 0.59593 0.0
H1929 H 0.50143 0.7148 0.58363 0.0
H1930 H 0.47791 0.70147 0.55506 0.0
H1931 H 0.44983 0.67448 0.55124 0.0
H1932 H 0.51904 0.55349 0.76198 0.0
H1933 H 0.52512 0.52657 0.73409 0.0
H1934 H 0.5863 0.51034 0.76268 0.0
H1935 H 0.58027 0.53727 0.79099 0.0
H1936 H 0.55978 0.52084 0.70393 0.0
H1937 H 0.55188 0.45299 0.76233 0.0
H1938 H 0.54354 0.48001 0.76904 0.0
H1939 H 0.57164 0.47347 0.76781 0.0
C1940 C 0.5339 0.54437 0.76229 0.0
C1941 C 0.54908 0.54737 0.77884 0.0
C1942 C 0.53737 0.52903 0.74628 0.0
C1943 C 0.55603 0.51634 0.7465 0.0
C1944 C 0.57168 0.51983 0.76243 0.0
H1945 H 0.55563 0.40098 0.66294 0.0
H1946 H 0.57127 0.42865 0.68662 0.0
C1947 C 0.56823 0.53527 0.77851 0.0
C1948 C 0.55808 0.49873 0.73061 0.0
H1949 H 0.55136 0.44441 0.72562 0.0
C1950 C 0.55845 0.50407 0.70865 0.0
C1951 C 0.55647 0.47687 0.73685 0.0
C1952 C 0.55575 0.47033 0.76026 0.0
C1953 C 0.55585 0.48824 0.69276 0.0
C1954 C 0.55254 0.46663 0.69906 0.0
C1955 C 0.55388 0.46104 0.72091 0.0
C1956 C 0.54424 0.45042 0.68374 0.0
C1957 C 0.55569 0.49488 0.66938 0.0
C1958 C 0.52383 0.45347 0.6746 0.0
C1959 C 0.51483 0.43776 0.66138 0.0
C1960 C 0.52606 0.41861 0.65699 0.0
C1961 C 0.54664 0.41561 0.66598 0.0
C1962 C 0.5556 0.43136 0.67945 0.0
H1963 H 0.56512 0.50987 0.66684 0.0
H1964 H 0.56235 0.48199 0.65893 0.0
H1965 H 0.53886 0.49808 0.6643 0.0
H1966 H 0.51462 0.46787 0.67809 0.0
H1967 H 0.49896 0.4406 0.6547 0.0
H1968 H 0.43429 0.94422 0.82991 0.0
H1969 H 0.42538 0.97074 0.80201 0.0
H1970 H 0.47856 0.94815 0.7635 0.0
H1971 H 0.48753 0.92172 0.79109 0.0
H1972 H 0.45442 0.003 0.78967 0.0
H1973 H 0.42995 0.95434 0.71915 0.0
H1974 H 0.42968 0.94386 0.74632 0.0
H1975 H 0.45437 0.94461 0.73116 0.0
C1976 C 0.44376 0.94458 0.81526 0.0
C1977 C 0.46168 0.93096 0.81272 0.0
C1978 C 0.43866 0.95974 0.79938 0.0
C1979 C 0.45116 0.96121 0.78061 0.0
C1980 C 0.46844 0.94699 0.77766 0.0
H1981 H 0.50258 0.05585 0.7021 0.0
H1982 H 0.49096 0.03124 0.73041 0.0
C1983 C 0.47365 0.932 0.79354 0.0
C1984 C 0.44809 0.97913 0.76525 0.0
H1985 H 0.44469 0.98968 0.71143 0.0
C1986 C 0.45174 0.00019 0.77262 0.0
C1987 C 0.44436 0.97546 0.74308 0.0
C1988 C 0.43915 0.95335 0.73448 0.0
C1989 C 0.45347 0.01742 0.75815 0.0
C1990 C 0.45168 0.01339 0.73581 0.0
C1991 C 0.4463 0.99267 0.72858 0.0
C1992 C 0.45784 0.02974 0.71966 0.0
C1993 C 0.45805 0.03965 0.7668 0.0
C1994 C 0.44306 0.03691 0.70414 0.0
C1995 C 0.44966 0.05104 0.68789 0.0
C1996 C 0.47122 0.05791 0.68675 0.0
C1997 C 0.48586 0.05088 0.70252 0.0
C1998 C 0.47922 0.03693 0.71881 0.0
H1999 H 0.45239 0.04137 0.7837 0.0
H2000 H 0.47569 0.0425 0.76663 0.0
H2001 H 0.45023 0.05222 0.75675 0.0
H2002 H 0.42654 0.03134 0.70446 0.0
H2003 H 0.43803 0.05611 0.6759 0.0
H2004 H 0.4302 0.31016 0.97553 0.0
H2005 H 0.45406 0.28456 0.9578 0.0
H2006 H 0.4385 0.31221 0.89598 0.0
H2007 H 0.41459 0.33821 0.91366 0.0
H2008 H 0.44502 0.25403 0.92451 0.0
H2009 H 0.50524 0.316 0.90018 0.0
H2010 H 0.48478 0.32139 0.92011 0.0
H2011 H 0.47768 0.31996 0.89213 0.0
C2012 C 0.43172 0.31079 0.95815 0.0
C2013 C 0.42061 0.32633 0.94601 0.0
C2014 C 0.44533 0.2961 0.94805 0.0
C2015 C 0.44816 0.29667 0.92564 0.0
C2016 C 0.43669 0.31173 0.91334 0.0
H2017 H 0.53121 0.19038 0.88097 0.0
H2018 H 0.50278 0.2176 0.87777 0.0
C2019 C 0.423 0.32649 0.92346 0.0
C2020 C 0.46376 0.28176 0.91564 0.0
H2021 H 0.51487 0.2798 0.89562 0.0
C2022 C 0.46013 0.25958 0.91772 0.0
C2023 C 0.48342 0.2892 0.90691 0.0
C2024 C 0.48821 0.31292 0.90473 0.0
C2025 C 0.47618 0.24459 0.91254 0.0
C2026 C 0.49624 0.25207 0.90475 0.0
C2027 C 0.4994 0.27419 0.90144 0.0
C2028 C 0.51509 0.2376 0.90354 0.0
C2029 C 0.47212 0.22103 0.91697 0.0
C2030 C 0.53194 0.24049 0.9183 0.0
C2031 C 0.54817 0.22512 0.9201 0.0
C2032 C 0.54786 0.20655 0.90716 0.0
C2033 C 0.5318 0.20444 0.89129 0.0
C2034 C 0.51551 0.2199 0.88949 0.0
H2035 H 0.45677 0.21833 0.92574 0.0
H2036 H 0.47133 0.21213 0.90149 0.0
H2037 H 0.48548 0.2141 0.92665 0.0
H2038 H 0.53193 0.25409 0.92924 0.0
H2039 H 0.56042 0.22735 0.93235 0.0
loop_
_geom_bond_atom_site_label_1
_geom_bond_atom_site_label_2
_geom_bond_distance
_geom_bond_site_symmetry_2
_ccdc_geom_bond_type
C0 O1 1.160 1_655 S
C0 O7 1.185 . S
O1 C0 1.160 1_455 S
O2 Zn3 1.899 . S
O2 C10 1.284 1_655 S
Zn3 O2 1.899 . S
Zn3 O4 2.032 1_655 S
Zn3 O7 2.086 . S
Zn3 O12 1.977 . S
O4 Zn3 2.032 1_455 S
O4 C8 1.278 . S
C5 O6 1.203 . S
C5 O12 1.267 . S
O6 C5 1.203 . S
O7 C0 1.185 . S
O7 Zn3 2.086 . S
C8 O4 1.278 . S
C8 O9 1.211 . S
O9 C8 1.211 . S
C10 O2 1.284 1_455 S
C10 O11 1.273 . S
O11 C10 1.273 . S
O12 Zn3 1.977 . S
O12 C5 1.267 . S
C13 O14 1.160 1_455 S
C13 O20 1.185 . S
O14 C13 1.160 1_655 S
O15 Zn16 1.899 . S
O15 C23 1.284 1_455 S
Zn16 O15 1.899 . S
Zn16 O17 2.032 1_455 S
Zn16 O20 2.086 . S
Zn16 O25 1.977 . S
O17 Zn16 2.032 1_655 S
O17 C21 1.278 . S
C18 O19 1.203 . S
C18 O25 1.267 . S
O19 C18 1.203 . S
O20 C13 1.185 . S
O20 Zn16 2.086 . S
C21 O17 1.278 . S
C21 O22 1.211 . S
O22 C21 1.211 . S
C23 O15 1.284 1_655 S
C23 O24 1.273 . S
O24 C23 1.273 . S
O25 Zn16 1.977 . S
O25 C18 1.267 . S
C26 O27 1.160 1_655 S
C26 O33 1.185 . S
O27 C26 1.160 1_455 S
O28 Zn29 1.899 . S
O28 C36 1.284 1_655 S
Zn29 O28 1.899 . S
Zn29 O30 2.032 1_655 S
Zn29 O33 2.086 . S
Zn29 O38 1.977 . S
O30 Zn29 2.032 1_455 S
O30 C34 1.278 . S
C31 O32 1.203 . S
C31 O38 1.267 . S
O32 C31 1.203 . S
O33 C26 1.185 . S
O33 Zn29 2.086 . S
C34 O30 1.278 . S
C34 O35 1.211 . S
O35 C34 1.211 . S
C36 O28 1.284 1_455 S
C36 O37 1.273 . S
O37 C36 1.273 . S
O38 Zn29 1.977 . S
O38 C31 1.267 . S
C39 O40 1.160 1_455 S
C39 O46 1.185 . S
O40 C39 1.160 1_655 S
O41 Zn42 1.899 . S
O41 C49 1.284 1_455 S
Zn42 O41 1.899 . S
Zn42 O43 2.032 1_455 S
Zn42 O46 2.086 . S
Zn42 O51 1.977 . S
O43 Zn42 2.032 1_655 S
O43 C47 1.278 . S
C44 O45 1.203 . S
C44 O51 1.267 . S
O45 C44 1.203 . S
O46 C39 1.185 . S
O46 Zn42 2.086 . S
C47 O43 1.278 . S
C47 O48 1.211 . S
O48 C47 1.211 . S
C49 O41 1.284 1_655 S
C49 O50 1.273 . S
O50 C49 1.273 . S
O51 Zn42 1.977 . S
O51 C44 1.267 . S
C52 O53 1.160 1_565 S
C52 O59 1.185 . S
O53 C52 1.160 1_545 S
O54 Zn55 1.899 . S
O54 C62 1.284 1_565 S
Zn55 O54 1.899 . S
Zn55 O56 2.032 1_565 S
Zn55 O59 2.086 . S
Zn55 O64 1.977 . S
O56 Zn55 2.032 1_545 S
O56 C60 1.278 . S
C57 O58 1.203 . S
C57 O64 1.267 . S
O58 C57 1.203 . S
O59 C52 1.185 . S
O59 Zn55 2.086 . S
C60 O56 1.278 . S
C60 O61 1.211 . S
O61 C60 1.211 . S
C62 O54 1.284 1_545 S
C62 O63 1.273 . S
O63 C62 1.273 . S
O64 Zn55 1.977 . S
O64 C57 1.267 . S
C65 O66 1.160 . S
C65 O72 1.185 . S
O66 C65 1.160 . S
O67 Zn68 1.899 . S
O67 C75 1.284 . S
Zn68 O67 1.899 . S
Zn68 O69 2.032 . S
Zn68 O72 2.086 . S
Zn68 O77 1.977 . S
O69 Zn68 2.032 . S
O69 C73 1.278 . S
C70 O71 1.203 . S
C70 O77 1.267 . S
O71 C70 1.203 . S
O72 C65 1.185 . S
O72 Zn68 2.086 . S
C73 O69 1.278 . S
C73 O74 1.211 . S
O74 C73 1.211 . S
C75 O67 1.284 . S
C75 O76 1.273 . S
O76 C75 1.273 . S
O77 Zn68 1.977 . S
O77 C70 1.267 . S
C78 O79 1.160 1_545 S
C78 O85 1.185 . S
O79 C78 1.160 1_565 S
O80 Zn81 1.899 . S
O80 C88 1.284 1_545 S
Zn81 O80 1.899 . S
Zn81 O82 2.032 1_545 S
Zn81 O85 2.086 . S
Zn81 O90 1.977 . S
O82 Zn81 2.032 1_565 S
O82 C86 1.278 . S
C83 O84 1.203 . S
C83 O90 1.267 . S
O84 C83 1.203 . S
O85 C78 1.185 . S
O85 Zn81 2.086 . S
C86 O82 1.278 . S
C86 O87 1.211 . S
O87 C86 1.211 . S
C88 O80 1.284 1_565 S
C88 O89 1.273 . S
O89 C88 1.273 . S
O90 Zn81 1.977 . S
O90 C83 1.267 . S
C91 O92 1.160 . S
C91 O98 1.185 . S
O92 C91 1.160 . S
O93 Zn94 1.899 . S
O93 C101 1.284 . S
Zn94 O93 1.899 . S
Zn94 O95 2.032 . S
Zn94 O98 2.086 . S
Zn94 O103 1.977 . S
O95 Zn94 2.032 . S
O95 C99 1.278 . S
C96 O97 1.203 . S
C96 O103 1.267 . S
O97 C96 1.203 . S
O98 C91 1.185 . S
O98 Zn94 2.086 . S
C99 O95 1.278 . S
C99 O100 1.211 . S
O100 C99 1.211 . S
C101 O93 1.284 . S
C101 O102 1.273 . S
O102 C101 1.273 . S
O103 Zn94 1.977 . S
O103 C96 1.267 . S
C104 O105 1.160 1_556 S
C104 O111 1.185 . S
O105 C104 1.160 1_554 S
O106 Zn107 1.899 . S
O106 C114 1.284 1_556 S
Zn107 O106 1.899 . S
Zn107 O108 2.032 1_556 S
Zn107 O111 2.086 . S
Zn107 O116 1.977 . S
O108 Zn107 2.032 1_554 S
O108 C112 1.278 . S
C109 O110 1.203 . S
C109 O116 1.267 . S
O110 C109 1.203 . S
O111 C104 1.185 . S
O111 Zn107 2.086 . S
C112 O108 1.278 . S
C112 O113 1.211 . S
O113 C112 1.211 . S
C114 O106 1.284 1_554 S
C114 O115 1.273 . S
O115 C114 1.273 . S
O116 Zn107 1.977 . S
O116 C109 1.267 . S
C117 O118 1.160 . S
C117 O124 1.185 . S
O118 C117 1.160 . S
O119 Zn120 1.899 . S
O119 C127 1.284 . S
Zn120 O119 1.899 . S
Zn120 O121 2.032 . S
Zn120 O124 2.086 . S
Zn120 O129 1.977 . S
O121 Zn120 2.032 . S
O121 C125 1.278 . S
C122 O123 1.203 . S
C122 O129 1.267 . S
O123 C122 1.203 . S
O124 C117 1.185 . S
O124 Zn120 2.086 . S
C125 O121 1.278 . S
C125 O126 1.211 . S
O126 C125 1.211 . S
C127 O119 1.284 . S
C127 O128 1.273 . S
O128 C127 1.273 . S
O129 Zn120 1.977 . S
O129 C122 1.267 . S
C130 O131 1.160 . S
C130 O137 1.185 . S
O131 C130 1.160 . S
O132 Zn133 1.899 . S
O132 C140 1.284 . S
Zn133 O132 1.899 . S
Zn133 O134 2.032 . S
Zn133 O137 2.086 . S
Zn133 O142 1.977 . S
O134 Zn133 2.032 . S
O134 C138 1.278 . S
C135 O136 1.203 . S
C135 O142 1.267 . S
O136 C135 1.203 . S
O137 C130 1.185 . S
O137 Zn133 2.086 . S
C138 O134 1.278 . S
C138 O139 1.211 . S
O139 C138 1.211 . S
C140 O132 1.284 . S
C140 O141 1.273 . S
O141 C140 1.273 . S
O142 Zn133 1.977 . S
O142 C135 1.267 . S
C143 O144 1.160 . S
C143 O150 1.185 . S
O144 C143 1.160 . S
O145 Zn146 1.899 . S
O145 C153 1.284 . S
Zn146 O145 1.899 . S
Zn146 O147 2.032 . S
Zn146 O150 2.086 . S
Zn146 O155 1.977 . S
O147 Zn146 2.032 . S
O147 C151 1.278 . S
C148 O149 1.203 . S
C148 O155 1.267 . S
O149 C148 1.203 . S
O150 C143 1.185 . S
O150 Zn146 2.086 . S
C151 O147 1.278 . S
C151 O152 1.211 . S
O152 C151 1.211 . S
C153 O145 1.284 . S
C153 O154 1.273 . S
O154 C153 1.273 . S
O155 Zn146 1.977 . S
O155 C148 1.267 . S
C156 O157 1.160 . S
C156 O163 1.185 . S
O157 C156 1.160 . S
O158 Zn159 1.899 . S
O158 C166 1.284 . S
Zn159 O158 1.899 . S
Zn159 O160 2.032 . S
Zn159 O163 2.086 . S
Zn159 O168 1.977 . S
O160 Zn159 2.032 . S
O160 C164 1.278 . S
C161 O162 1.203 . S
C161 O168 1.267 . S
O162 C161 1.203 . S
O163 C156 1.185 . S
O163 Zn159 2.086 . S
C164 O160 1.278 . S
C164 O165 1.211 . S
O165 C164 1.211 . S
C166 O158 1.284 . S
C166 O167 1.273 . S
O167 C166 1.273 . S
O168 Zn159 1.977 . S
O168 C161 1.267 . S
C169 O170 1.160 . S
C169 O176 1.185 . S
O170 C169 1.160 . S
O171 Zn172 1.899 . S
O171 C179 1.284 . S
Zn172 O171 1.899 . S
Zn172 O173 2.032 . S
Zn172 O176 2.086 . S
Zn172 O181 1.977 . S
O173 Zn172 2.032 . S
O173 C177 1.278 . S
C174 O175 1.203 . S
C174 O181 1.267 . S
O175 C174 1.203 . S
O176 C169 1.185 . S
O176 Zn172 2.086 . S
C177 O173 1.278 . S
C177 O178 1.211 . S
O178 C177 1.211 . S
C179 O171 1.284 . S
C179 O180 1.273 . S
O180 C179 1.273 . S
O181 Zn172 1.977 . S
O181 C174 1.267 . S
C182 O183 1.160 . S
C182 O189 1.185 . S
O183 C182 1.160 . S
O184 Zn185 1.899 . S
O184 C192 1.284 . S
Zn185 O184 1.899 . S
Zn185 O186 2.032 . S
Zn185 O189 2.086 . S
Zn185 O194 1.977 . S
O186 Zn185 2.032 . S
O186 C190 1.278 . S
C187 O188 1.203 . S
C187 O194 1.267 . S
O188 C187 1.203 . S
O189 C182 1.185 . S
O189 Zn185 2.086 . S
C190 O186 1.278 . S
C190 O191 1.211 . S
O191 C190 1.211 . S
C192 O184 1.284 . S
C192 O193 1.273 . S
O193 C192 1.273 . S
O194 Zn185 1.977 . S
O194 C187 1.267 . S
C195 O196 1.160 . S
C195 O202 1.185 . S
O196 C195 1.160 . S
O197 Zn198 1.899 . S
O197 C205 1.284 . S
Zn198 O197 1.899 . S
Zn198 O199 2.032 . S
Zn198 O202 2.086 . S
Zn198 O207 1.977 . S
O199 Zn198 2.032 . S
O199 C203 1.278 . S
C200 O201 1.203 . S
C200 O207 1.267 . S
O201 C200 1.203 . S
O202 C195 1.185 . S
O202 Zn198 2.086 . S
C203 O199 1.278 . S
C203 O204 1.211 . S
O204 C203 1.211 . S
C205 O197 1.284 . S
C205 O206 1.273 . S
O206 C205 1.273 . S
O207 Zn198 1.977 . S
O207 C200 1.267 . S
C208 O209 1.160 . S
C208 O215 1.185 . S
O209 C208 1.160 . S
O210 Zn211 1.899 . S
O210 C218 1.284 . S
Zn211 O210 1.899 . S
Zn211 O212 2.032 . S
Zn211 O215 2.086 . S
Zn211 O220 1.977 . S
O212 Zn211 2.032 . S
O212 C216 1.278 . S
C213 O214 1.203 . S
C213 O220 1.267 . S
O214 C213 1.203 . S
O215 C208 1.185 . S
O215 Zn211 2.086 . S
C216 O212 1.278 . S
C216 O217 1.211 . S
O217 C216 1.211 . S
C218 O210 1.284 . S
C218 O219 1.273 . S
O219 C218 1.273 . S
O220 Zn211 1.977 . S
O220 C213 1.267 . S
C221 O222 1.160 1_545 S
C221 O228 1.185 . S
O222 C221 1.160 1_565 S
O223 Zn224 1.899 . S
O223 C231 1.284 1_545 S
Zn224 O223 1.899 . S
Zn224 O225 2.032 1_545 S
Zn224 O228 2.086 . S
Zn224 O233 1.977 . S
O225 Zn224 2.032 1_565 S
O225 C229 1.278 . S
C226 O227 1.203 . S
C226 O233 1.267 . S
O227 C226 1.203 . S
O228 C221 1.185 . S
O228 Zn224 2.086 . S
C229 O225 1.278 . S
C229 O230 1.211 . S
O230 C229 1.211 . S
C231 O223 1.284 1_565 S
C231 O232 1.273 . S
O232 C231 1.273 . S
O233 Zn224 1.977 . S
O233 C226 1.267 . S
C234 O235 1.160 . S
C234 O241 1.185 . S
O235 C234 1.160 . S
O236 Zn237 1.899 . S
O236 C244 1.284 . S
Zn237 O236 1.899 . S
Zn237 O238 2.032 . S
Zn237 O241 2.086 . S
Zn237 O246 1.977 . S
O238 Zn237 2.032 . S
O238 C242 1.278 . S
C239 O240 1.203 . S
C239 O246 1.267 . S
O240 C239 1.203 . S
O241 C234 1.185 . S
O241 Zn237 2.086 . S
C242 O238 1.278 . S
C242 O243 1.211 . S
O243 C242 1.211 . S
C244 O236 1.284 . S
C244 O245 1.273 . S
O245 C244 1.273 . S
O246 Zn237 1.977 . S
O246 C239 1.267 . S
C247 O248 1.160 1_565 S
C247 O254 1.185 . S
O248 C247 1.160 1_545 S
O249 Zn250 1.899 . S
O249 C257 1.284 1_565 S
Zn250 O249 1.899 . S
Zn250 O251 2.032 1_565 S
Zn250 O254 2.086 . S
Zn250 O259 1.977 . S
O251 Zn250 2.032 1_545 S
O251 C255 1.278 . S
C252 O253 1.203 . S
C252 O259 1.267 . S
O253 C252 1.203 . S
O254 C247 1.185 . S
O254 Zn250 2.086 . S
C255 O251 1.278 . S
C255 O256 1.211 . S
O256 C255 1.211 . S
C257 O249 1.284 1_545 S
C257 O258 1.273 . S
O258 C257 1.273 . S
O259 Zn250 1.977 . S
O259 C252 1.267 . S
C260 O261 1.160 . S
C260 O267 1.185 . S
O261 C260 1.160 . S
O262 Zn263 1.899 . S
O262 C270 1.284 . S
Zn263 O262 1.899 . S
Zn263 O264 2.032 . S
Zn263 O267 2.086 . S
Zn263 O272 1.977 . S
O264 Zn263 2.032 . S
O264 C268 1.278 . S
C265 O266 1.203 . S
C265 O272 1.267 . S
O266 C265 1.203 . S
O267 C260 1.185 . S
O267 Zn263 2.086 . S
C268 O264 1.278 . S
C268 O269 1.211 . S
O269 C268 1.211 . S
C270 O262 1.284 . S
C270 O271 1.273 . S
O271 C270 1.273 . S
O272 Zn263 1.977 . S
O272 C265 1.267 . S
C273 O274 1.160 1_554 S
C273 O280 1.185 . S
O274 C273 1.160 1_556 S
O275 Zn276 1.899 . S
O275 C283 1.284 1_554 S
Zn276 O275 1.899 . S
Zn276 O277 2.032 1_554 S
Zn276 O280 2.086 . S
Zn276 O285 1.977 . S
O277 Zn276 2.032 1_556 S
O277 C281 1.278 . S
C278 O279 1.203 . S
C278 O285 1.267 . S
O279 C278 1.203 . S
O280 C273 1.185 . S
O280 Zn276 2.086 . S
C281 O277 1.278 . S
C281 O282 1.211 . S
O282 C281 1.211 . S
C283 O275 1.284 1_556 S
C283 O284 1.273 . S
O284 C283 1.273 . S
O285 Zn276 1.977 . S
O285 C278 1.267 . S
C286 O287 1.160 1_554 S
C286 O293 1.185 . S
O287 C286 1.160 1_556 S
O288 Zn289 1.899 . S
O288 C296 1.284 1_554 S
Zn289 O288 1.899 . S
Zn289 O290 2.032 1_554 S
Zn289 O293 2.086 . S
Zn289 O298 1.977 . S
O290 Zn289 2.032 1_556 S
O290 C294 1.278 . S
C291 O292 1.203 . S
C291 O298 1.267 . S
O292 C291 1.203 . S
O293 C286 1.185 . S
O293 Zn289 2.086 . S
C294 O290 1.278 . S
C294 O295 1.211 . S
O295 C294 1.211 . S
C296 O288 1.284 1_556 S
C296 O297 1.273 . S
O297 C296 1.273 . S
O298 Zn289 1.977 . S
O298 C291 1.267 . S
C299 O300 1.160 1_556 S
C299 O306 1.185 . S
O300 C299 1.160 1_554 S
O301 Zn302 1.899 . S
O301 C309 1.284 1_556 S
Zn302 O301 1.899 . S
Zn302 O303 2.032 1_556 S
Zn302 O306 2.086 . S
Zn302 O311 1.977 . S
O303 Zn302 2.032 1_554 S
O303 C307 1.278 . S
C304 O305 1.203 . S
C304 O311 1.267 . S
O305 C304 1.203 . S
O306 C299 1.185 . S
O306 Zn302 2.086 . S
C307 O303 1.278 . S
C307 O308 1.211 . S
O308 C307 1.211 . S
C309 O301 1.284 1_554 S
C309 O310 1.273 . S
O310 C309 1.273 . S
O311 Zn302 1.977 . S
O311 C304 1.267 . S
H312 C320 0.929 . S
H313 C322 0.930 . S
H314 C324 0.930 . S
H315 C327 0.929 . S
H316 C330 0.930 . S
H317 C332 0.960 . S
H318 C332 0.960 . S
H319 C332 0.960 . S
C320 H312 0.929 . S
C320 C321 1.377 . S
C320 C322 1.384 . S
C321 C320 1.377 . S
C321 C327 1.390 . S
C322 H313 0.930 . S
C322 C320 1.384 . S
C322 C323 1.372 . S
C323 C322 1.372 . S
C323 C324 1.400 . S
C323 C328 1.490 . S
C324 H314 0.930 . S
C324 C323 1.400 . S
C324 C327 1.386 . S
H325 C341 0.930 . S
H326 C342 0.931 . S
C327 H315 0.929 . S
C327 C321 1.390 . S
C327 C324 1.386 . S
C328 C323 1.490 . S
C328 C330 1.395 . S
C328 C331 1.403 . S
H329 C335 0.930 . S
C330 H316 0.930 . S
C330 C328 1.395 . S
C330 C333 1.403 . S
C331 C328 1.403 . S
C331 C332 1.524 . S
C331 C335 1.400 . S
C332 H317 0.960 . S
C332 H318 0.960 . S
C332 H319 0.960 . S
C332 C331 1.524 . S
C333 C330 1.403 . S
C333 C334 1.392 . S
C333 C337 1.495 . S
C334 C333 1.392 . S
C334 C335 1.385 . S
C334 C336 1.478 . S
C335 H329 0.930 . S
C335 C331 1.400 . S
C335 C334 1.385 . S
C336 C334 1.478 . S
C336 C338 1.381 . S
C336 C342 1.383 . S
C337 C333 1.495 . S
C337 H343 0.959 . S
C337 H344 0.961 . S
C337 H345 0.960 . S
C338 C336 1.381 . S
C338 C339 1.394 . S
C338 H346 0.930 . S
C339 C338 1.394 . S
C339 C340 1.383 . S
C339 H347 0.929 . S
C340 C339 1.383 . S
C340 C341 1.377 . S
C341 H325 0.930 . S
C341 C340 1.377 . S
C341 C342 1.379 . S
C342 H326 0.931 . S
C342 C336 1.383 . S
C342 C341 1.379 . S
H343 C337 0.959 . S
H344 C337 0.961 . S
H345 C337 0.960 . S
H346 C338 0.930 . S
H347 C339 0.929 . S
H348 C356 0.929 . S
H349 C358 0.930 . S
H350 C360 0.930 . S
H351 C363 0.929 . S
H352 C366 0.930 . S
H353 C368 0.960 . S
H354 C368 0.960 . S
H355 C368 0.960 . S
C356 H348 0.929 . S
C356 C357 1.377 . S
C356 C358 1.384 . S
C357 C356 1.377 . S
C357 C363 1.390 . S
C358 H349 0.930 . S
C358 C356 1.384 . S
C358 C359 1.372 . S
C359 C358 1.372 . S
C359 C360 1.400 . S
C359 C364 1.490 . S
C360 H350 0.930 . S
C360 C359 1.400 . S
C360 C363 1.386 . S
H361 C377 0.930 . S
H362 C378 0.931 . S
C363 H351 0.929 . S
C363 C357 1.390 . S
C363 C360 1.386 . S
C364 C359 1.490 . S
C364 C366 1.395 . S
C364 C367 1.403 . S
H365 C371 0.930 . S
C366 H352 0.930 . S
C366 C364 1.395 . S
C366 C369 1.403 . S
C367 C364 1.403 . S
C367 C368 1.524 . S
C367 C371 1.400 . S
C368 H353 0.960 . S
C368 H354 0.960 . S
C368 H355 0.960 . S
C368 C367 1.524 . S
C369 C366 1.403 . S
C369 C370 1.392 . S
C369 C373 1.495 . S
C370 C369 1.392 . S
C370 C371 1.385 . S
C370 C372 1.478 . S
C371 H365 0.930 . S
C371 C367 1.400 . S
C371 C370 1.385 . S
C372 C370 1.478 . S
C372 C374 1.381 . S
C372 C378 1.383 . S
C373 C369 1.495 . S
C373 H379 0.959 . S
C373 H380 0.961 . S
C373 H381 0.960 . S
C374 C372 1.381 . S
C374 C375 1.394 . S
C374 H382 0.930 . S
C375 C374 1.394 . S
C375 C376 1.383 . S
C375 H383 0.929 . S
C376 C375 1.383 . S
C376 C377 1.377 . S
C377 H361 0.930 . S
C377 C376 1.377 . S
C377 C378 1.379 . S
C378 H362 0.931 . S
C378 C372 1.383 . S
C378 C377 1.379 . S
H379 C373 0.959 . S
H380 C373 0.961 . S
H381 C373 0.960 . S
H382 C374 0.930 . S
H383 C375 0.929 . S
H384 C392 0.929 . S
H385 C394 0.930 . S
H386 C396 0.930 . S
H387 C399 0.929 . S
H388 C402 0.930 . S
H389 C404 0.960 . S
H390 C404 0.960 . S
H391 C404 0.960 . S
C392 H384 0.929 . S
C392 C393 1.377 . S
C392 C394 1.384 . S
C393 C392 1.377 . S
C393 C399 1.390 . S
C394 H385 0.930 . S
C394 C392 1.384 . S
C394 C395 1.372 . S
C395 C394 1.372 . S
C395 C396 1.400 . S
C395 C400 1.490 . S
C396 H386 0.930 . S
C396 C395 1.400 . S
C396 C399 1.386 . S
H397 C413 0.930 . S
H398 C414 0.931 . S
C399 H387 0.929 . S
C399 C393 1.390 . S
C399 C396 1.386 . S
C400 C395 1.490 . S
C400 C402 1.395 . S
C400 C403 1.403 . S
H401 C407 0.930 . S
C402 H388 0.930 . S
C402 C400 1.395 . S
C402 C405 1.403 . S
C403 C400 1.403 . S
C403 C404 1.524 . S
C403 C407 1.400 . S
C404 H389 0.960 . S
C404 H390 0.960 . S
C404 H391 0.960 . S
C404 C403 1.524 . S
C405 C402 1.403 . S
C405 C406 1.399 . S
C405 C409 1.495 1_554 S
C406 C405 1.399 . S
C406 C407 1.424 . S
C406 C408 1.434 1_554 S
C407 H401 0.930 . S
C407 C403 1.400 . S
C407 C406 1.424 . S
C408 C406 1.434 1_556 S
C408 C410 1.381 . S
C408 C414 1.383 . S
C409 C405 1.495 1_556 S
C409 H415 0.959 . S
C409 H416 0.961 . S
C409 H417 0.960 . S
C410 C408 1.381 . S
C410 C411 1.394 . S
C410 H418 0.930 . S
C411 C410 1.394 . S
C411 C412 1.383 . S
C411 H419 0.929 . S
C412 C411 1.383 . S
C412 C413 1.377 . S
C413 H397 0.930 . S
C413 C412 1.377 . S
C413 C414 1.379 . S
C414 H398 0.931 . S
C414 C408 1.383 . S
C414 C413 1.379 . S
H415 C409 0.959 . S
H416 C409 0.961 . S
H417 C409 0.960 . S
H418 C410 0.930 . S
H419 C411 0.929 . S
H420 C428 0.929 . S
H421 C430 0.930 . S
H422 C432 0.930 . S
H423 C435 0.929 . S
H424 C438 0.930 . S
H425 C440 0.960 . S
H426 C440 0.960 . S
H427 C440 0.960 . S
C428 H420 0.929 . S
C428 C429 1.377 . S
C428 C430 1.384 . S
C429 C428 1.377 . S
C429 C435 1.390 . S
C430 H421 0.930 . S
C430 C428 1.384 . S
C430 C431 1.372 . S
C431 C430 1.372 . S
C431 C432 1.400 . S
C431 C436 1.490 . S
C432 H422 0.930 . S
C432 C431 1.400 . S
C432 C435 1.386 . S
H433 C449 0.930 . S
H434 C450 0.931 . S
C435 H423 0.929 . S
C435 C429 1.390 . S
C435 C432 1.386 . S
C436 C431 1.490 . S
C436 C438 1.395 . S
C436 C439 1.403 . S
H437 C443 0.930 . S
C438 H424 0.930 . S
C438 C436 1.395 . S
C438 C441 1.403 . S
C439 C436 1.403 . S
C439 C440 1.524 . S
C439 C443 1.400 . S
C440 H425 0.960 . S
C440 H426 0.960 . S
C440 H427 0.960 . S
C440 C439 1.524 . S
C441 C438 1.403 . S
C441 C442 1.392 . S
C441 C445 1.495 . S
C442 C441 1.392 . S
C442 C443 1.385 . S
C442 C444 1.478 1_554 S
C443 H437 0.930 . S
C443 C439 1.400 . S
C443 C442 1.385 . S
C444 C442 1.478 1_556 S
C444 C446 1.381 . S
C444 C450 1.383 . S
C445 C441 1.495 . S
C445 H451 0.959 . S
C445 H452 0.961 . S
C445 H453 0.960 1_554 S
C446 C444 1.381 . S
C446 C447 1.394 . S
C446 H454 0.930 . S
C447 C446 1.394 . S
C447 C448 1.383 . S
C447 H455 0.929 . S
C448 C447 1.383 . S
C448 C449 1.377 . S
C449 H433 0.930 . S
C449 C448 1.377 . S
C449 C450 1.379 . S
C450 H434 0.931 . S
C450 C444 1.383 . S
C450 C449 1.379 . S
H451 C445 0.959 . S
H452 C445 0.961 . S
H453 C445 0.960 1_556 S
H454 C446 0.930 . S
H455 C447 0.929 . S
H456 C464 0.929 . S
H457 C466 0.930 . S
H458 C468 0.930 . S
H459 C471 0.929 . S
H460 C474 0.930 . S
H461 C476 0.960 . S
H462 C476 0.960 . S
H463 C476 0.960 . S
C464 H456 0.929 . S
C464 C465 1.377 . S
C464 C466 1.384 . S
C465 C464 1.377 . S
C465 C471 1.390 . S
C466 H457 0.930 . S
C466 C464 1.384 . S
C466 C467 1.372 . S
C467 C466 1.372 . S
C467 C468 1.400 . S
C467 C472 1.490 . S
C468 H458 0.930 . S
C468 C467 1.400 . S
C468 C471 1.386 . S
H469 C485 0.930 . S
H470 C486 0.931 . S
C471 H459 0.929 . S
C471 C465 1.390 . S
C471 C468 1.386 . S
C472 C467 1.490 . S
C472 C474 1.395 . S
C472 C475 1.403 . S
H473 C479 0.930 . S
C474 H460 0.930 . S
C474 C472 1.395 . S
C474 C477 1.403 . S
C475 C472 1.403 . S
C475 C476 1.524 . S
C475 C479 1.400 . S
C476 H461 0.960 . S
C476 H462 0.960 . S
C476 H463 0.960 . S
C476 C475 1.524 . S
C477 C474 1.403 . S
C477 C478 1.392 . S
C477 C481 1.495 . S
C478 C477 1.392 . S
C478 C479 1.385 . S
C478 C480 1.478 . S
C479 H473 0.930 . S
C479 C475 1.400 . S
C479 C478 1.385 . S
C480 C478 1.478 . S
C480 C482 1.381 . S
C480 C486 1.383 . S
C481 C477 1.495 . S
C481 H487 0.959 . S
C481 H488 0.961 . S
C481 H489 0.960 . S
C482 C480 1.381 . S
C482 C483 1.394 . S
C482 H490 0.930 . S
C483 C482 1.394 . S
C483 C484 1.383 . S
C483 H491 0.929 . S
C484 C483 1.383 . S
C484 C485 1.377 . S
C485 H469 0.930 . S
C485 C484 1.377 . S
C485 C486 1.379 . S
C486 H470 0.931 . S
C486 C480 1.383 . S
C486 C485 1.379 . S
H487 C481 0.959 . S
H488 C481 0.961 . S
H489 C481 0.960 . S
H490 C482 0.930 . S
H491 C483 0.929 . S
H492 C500 0.929 . S
H493 C502 0.930 . S
H494 C504 0.930 . S
H495 C507 0.929 . S
H496 C510 0.930 . S
H497 C512 0.960 . S
H498 C512 0.960 . S
H499 C512 0.960 . S
C500 H492 0.929 . S
C500 C501 1.377 . S
C500 C502 1.384 . S
C501 C500 1.377 . S
C501 C507 1.390 . S
C502 H493 0.930 . S
C502 C500 1.384 . S
C502 C503 1.372 . S
C503 C502 1.372 . S
C503 C504 1.400 . S
C503 C508 1.490 . S
C504 H494 0.930 . S
C504 C503 1.400 . S
C504 C507 1.386 . S
H505 C521 0.930 . S
H506 C522 0.931 . S
C507 H495 0.929 . S
C507 C501 1.390 . S
C507 C504 1.386 . S
C508 C503 1.490 . S
C508 C510 1.395 . S
C508 C511 1.403 . S
H509 C515 0.930 . S
C510 H496 0.930 . S
C510 C508 1.395 . S
C510 C513 1.403 . S
C511 C508 1.403 . S
C511 C512 1.524 . S
C511 C515 1.400 . S
C512 H497 0.960 . S
C512 H498 0.960 . S
C512 H499 0.960 . S
C512 C511 1.524 . S
C513 C510 1.403 . S
C513 C514 1.392 . S
C513 C517 1.495 . S
C514 C513 1.392 . S
C514 C515 1.385 . S
C514 C516 1.478 . S
C515 H509 0.930 . S
C515 C511 1.400 . S
C515 C514 1.385 . S
C516 C514 1.478 . S
C516 C518 1.381 . S
C516 C522 1.383 . S
C517 C513 1.495 . S
C517 H523 0.959 . S
C517 H524 0.961 . S
C517 H525 0.960 . S
C518 C516 1.381 . S
C518 C519 1.394 . S
C518 H526 0.930 . S
C519 C518 1.394 . S
C519 C520 1.383 . S
C519 H527 0.929 . S
C520 C519 1.383 . S
C520 C521 1.377 . S
C521 H505 0.930 . S
C521 C520 1.377 . S
C521 C522 1.379 . S
C522 H506 0.931 . S
C522 C516 1.383 . S
C522 C521 1.379 . S
H523 C517 0.959 . S
H524 C517 0.961 . S
H525 C517 0.960 . S
H526 C518 0.930 . S
H527 C519 0.929 . S
H528 C536 0.929 . S
H529 C538 0.930 . S
H530 C540 0.930 . S
H531 C543 0.929 . S
H532 C546 0.930 . S
H533 C548 0.960 . S
H534 C548 0.960 . S
H535 C548 0.960 . S
C536 H528 0.929 . S
C536 C537 1.377 . S
C536 C538 1.384 . S
C537 C536 1.377 . S
C537 C543 1.390 . S
C538 H529 0.930 . S
C538 C536 1.384 . S
C538 C539 1.372 . S
C539 C538 1.372 . S
C539 C540 1.400 . S
C539 C544 1.490 . S
C540 H530 0.930 . S
C540 C539 1.400 . S
C540 C543 1.386 . S
H541 C557 0.930 . S
H542 C558 0.931 . S
C543 H531 0.929 . S
C543 C537 1.390 . S
C543 C540 1.386 . S
C544 C539 1.490 . S
C544 C546 1.395 . S
C544 C547 1.403 . S
H545 C551 0.930 . S
C546 H532 0.930 . S
C546 C544 1.395 . S
C546 C549 1.403 . S
C547 C544 1.403 . S
C547 C548 1.524 . S
C547 C551 1.400 . S
C548 H533 0.960 . S
C548 H534 0.960 . S
C548 H535 0.960 . S
C548 C547 1.524 . S
C549 C546 1.403 . S
C549 C550 1.392 . S
C549 C553 1.495 . S
C550 C549 1.392 . S
C550 C551 1.385 . S
C550 C552 1.478 . S
C551 H545 0.930 . S
C551 C547 1.400 . S
C551 C550 1.385 . S
C552 C550 1.478 . S
C552 C554 1.381 . S
C552 C558 1.383 . S
C553 C549 1.495 . S
C553 H559 0.959 . S
C553 H560 0.961 . S
C553 H561 0.960 . S
C554 C552 1.381 . S
C554 C555 1.394 . S
C554 H562 0.930 . S
C555 C554 1.394 . S
C555 C556 1.383 . S
C555 H563 0.929 . S
C556 C555 1.383 . S
C556 C557 1.377 . S
C557 H541 0.930 . S
C557 C556 1.377 . S
C557 C558 1.379 . S
C558 H542 0.931 . S
C558 C552 1.383 . S
C558 C557 1.379 . S
H559 C553 0.959 . S
H560 C553 0.961 . S
H561 C553 0.960 . S
H562 C554 0.930 . S
H563 C555 0.929 . S
H564 C572 0.929 . S
H565 C574 0.930 . S
H566 C576 0.930 . S
H567 C579 0.929 . S
H568 C582 0.930 . S
H569 C584 0.960 . S
H570 C584 0.960 . S
H571 C584 0.960 . S
C572 H564 0.929 . S
C572 C573 1.377 . S
C572 C574 1.384 . S
C573 C572 1.377 . S
C573 C579 1.390 . S
C574 H565 0.930 . S
C574 C572 1.384 . S
C574 C575 1.372 . S
C575 C574 1.372 . S
C575 C576 1.400 . S
C575 C580 1.490 . S
C576 H566 0.930 . S
C576 C575 1.400 . S
C576 C579 1.386 . S
H577 C593 0.930 . S
H578 C594 0.931 . S
C579 H567 0.929 . S
C579 C573 1.390 . S
C579 C576 1.386 . S
C580 C575 1.490 . S
C580 C582 1.395 . S
C580 C583 1.403 . S
H581 C587 0.930 . S
C582 H568 0.930 . S
C582 C580 1.395 . S
C582 C585 1.403 . S
C583 C580 1.403 . S
C583 C584 1.524 . S
C583 C587 1.400 . S
C584 H569 0.960 . S
C584 H570 0.960 . S
C584 H571 0.960 . S
C584 C583 1.524 . S
C585 C582 1.403 . S
C585 C586 1.392 . S
C585 C589 1.495 . S
C586 C585 1.392 . S
C586 C587 1.385 . S
C586 C588 1.478 . S
C587 H581 0.930 . S
C587 C583 1.400 . S
C587 C586 1.385 . S
C588 C586 1.478 . S
C588 C590 1.381 . S
C588 C594 1.383 . S
C589 C585 1.495 . S
C589 H595 0.959 . S
C589 H596 0.961 . S
C589 H597 0.960 . S
C590 C588 1.381 . S
C590 C591 1.394 . S
C590 H598 0.930 . S
C591 C590 1.394 . S
C591 C592 1.383 . S
C591 H599 0.929 . S
C592 C591 1.383 . S
C592 C593 1.377 . S
C593 H577 0.930 . S
C593 C592 1.377 . S
C593 C594 1.379 . S
C594 H578 0.931 . S
C594 C588 1.383 . S
C594 C593 1.379 . S
H595 C589 0.959 . S
H596 C589 0.961 . S
H597 C589 0.960 . S
H598 C590 0.930 . S
H599 C591 0.929 . S
H600 C608 0.929 . S
H601 C610 0.930 . S
H602 C612 0.930 . S
H603 C615 0.929 . S
H604 C618 0.930 . S
H605 C620 0.960 . S
H606 C620 0.960 . S
H607 C620 0.960 . S
C608 H600 0.929 . S
C608 C609 1.377 . S
C608 C610 1.384 . S
C609 C608 1.377 . S
C609 C615 1.390 . S
C610 H601 0.930 . S
C610 C608 1.384 . S
C610 C611 1.372 . S
C611 C610 1.372 . S
C611 C612 1.400 . S
C611 C616 1.490 . S
C612 H602 0.930 . S
C612 C611 1.400 . S
C612 C615 1.386 . S
H613 C629 0.930 . S
H614 C630 0.931 . S
C615 H603 0.929 . S
C615 C609 1.390 . S
C615 C612 1.386 . S
C616 C611 1.490 . S
C616 C618 1.395 . S
C616 C619 1.403 . S
H617 C623 0.930 . S
C618 H604 0.930 . S
C618 C616 1.395 . S
C618 C621 1.403 . S
C619 C616 1.403 . S
C619 C620 1.524 . S
C619 C623 1.400 . S
C620 H605 0.960 . S
C620 H606 0.960 . S
C620 H607 0.960 . S
C620 C619 1.524 . S
C621 C618 1.403 . S
C621 C622 1.392 . S
C621 C625 1.495 . S
C622 C621 1.392 . S
C622 C623 1.385 . S
C622 C624 1.478 . S
C623 H617 0.930 . S
C623 C619 1.400 . S
C623 C622 1.385 . S
C624 C622 1.478 . S
C624 C626 1.381 . S
C624 C630 1.383 . S
C625 C621 1.495 . S
C625 H631 0.959 . S
C625 H632 0.961 . S
C625 H633 0.960 . S
C626 C624 1.381 . S
C626 C627 1.394 . S
C626 H634 0.930 . S
C627 C626 1.394 . S
C627 C628 1.383 . S
C627 H635 0.929 . S
C628 C627 1.383 . S
C628 C629 1.377 . S
C629 H613 0.930 . S
C629 C628 1.377 . S
C629 C630 1.379 . S
C630 H614 0.931 . S
C630 C624 1.383 . S
C630 C629 1.379 . S
H631 C625 0.959 . S
H632 C625 0.961 . S
H633 C625 0.960 . S
H634 C626 0.930 . S
H635 C627 0.929 . S
H636 C644 0.929 . S
H637 C646 0.930 . S
H638 C648 0.930 . S
H639 C651 0.929 . S
H640 C654 0.930 . S
H641 C656 0.960 . S
H642 C656 0.960 . S
H643 C656 0.960 . S
C644 H636 0.929 . S
C644 C645 1.377 . S
C644 C646 1.384 . S
C645 C644 1.377 . S
C645 C651 1.390 . S
C646 H637 0.930 . S
C646 C644 1.384 . S
C646 C647 1.372 . S
C647 C646 1.372 . S
C647 C648 1.400 . S
C647 C652 1.490 . S
C648 H638 0.930 . S
C648 C647 1.400 . S
C648 C651 1.386 . S
H649 C665 0.930 . S
H650 C666 0.931 . S
C651 H639 0.929 . S
C651 C645 1.390 . S
C651 C648 1.386 . S
C652 C647 1.490 . S
C652 C654 1.395 . S
C652 C655 1.403 . S
H653 C659 0.930 . S
C654 H640 0.930 . S
C654 C652 1.395 . S
C654 C657 1.403 . S
C655 C652 1.403 . S
C655 C656 1.524 . S
C655 C659 1.400 . S
C656 H641 0.960 . S
C656 H642 0.960 . S
C656 H643 0.960 . S
C656 C655 1.524 . S
C657 C654 1.403 . S
C657 C658 1.392 . S
C657 C661 1.495 . S
C658 C657 1.392 . S
C658 C659 1.385 . S
C658 C660 1.478 . S
C659 H653 0.930 . S
C659 C655 1.400 . S
C659 C658 1.385 . S
C660 C658 1.478 . S
C660 C662 1.381 . S
C660 C666 1.383 . S
C661 C657 1.495 . S
C661 H667 0.959 . S
C661 H668 0.961 . S
C661 H669 0.960 . S
C662 C660 1.381 . S
C662 C663 1.394 . S
C662 H670 0.930 . S
C663 C662 1.394 . S
C663 C664 1.383 . S
C663 H671 0.929 . S
C664 C663 1.383 . S
C664 C665 1.377 . S
C665 H649 0.930 . S
C665 C664 1.377 . S
C665 C666 1.379 . S
C666 H650 0.931 . S
C666 C660 1.383 . S
C666 C665 1.379 . S
H667 C661 0.959 . S
H668 C661 0.961 . S
H669 C661 0.960 . S
H670 C662 0.930 . S
H671 C663 0.929 . S
H672 C680 0.929 . S
H673 C682 0.930 . S
H674 C684 0.930 . S
H675 C687 0.929 . S
H676 C690 0.930 . S
H677 C692 0.960 . S
H678 C692 0.960 . S
H679 C692 0.960 . S
C680 H672 0.929 . S
C680 C681 1.377 . S
C680 C682 1.384 . S
C681 C680 1.377 . S
C681 C687 1.390 . S
C682 H673 0.930 . S
C682 C680 1.384 . S
C682 C683 1.372 . S
C683 C682 1.372 . S
C683 C684 1.400 . S
C683 C688 1.490 . S
C684 H674 0.930 . S
C684 C683 1.400 . S
C684 C687 1.386 . S
H685 C701 0.930 . S
H686 C702 0.931 . S
C687 H675 0.929 . S
C687 C681 1.390 . S
C687 C684 1.386 . S
C688 C683 1.490 . S
C688 C690 1.395 . S
C688 C691 1.403 . S
H689 C695 0.930 . S
C690 H676 0.930 . S
C690 C688 1.395 . S
C690 C693 1.403 . S
C691 C688 1.403 . S
C691 C692 1.524 . S
C691 C695 1.400 . S
C692 H677 0.960 . S
C692 H678 0.960 . S
C692 H679 0.960 . S
C692 C691 1.524 . S
C693 C690 1.403 . S
C693 C694 1.392 . S
C693 C697 1.495 1_565 S
C694 C693 1.392 . S
C694 C695 1.385 . S
C694 C696 1.478 1_565 S
C695 H689 0.930 . S
C695 C691 1.400 . S
C695 C694 1.385 . S
C696 C694 1.478 1_545 S
C696 C698 1.381 . S
C696 C702 1.383 . S
C697 C693 1.495 1_545 S
C697 H703 0.959 . S
C697 H704 0.961 . S
C697 H705 0.960 . S
C698 C696 1.381 . S
C698 C699 1.394 . S
C698 H706 0.930 . S
C699 C698 1.394 . S
C699 C700 1.383 . S
C699 H707 0.929 . S
C700 C699 1.383 . S
C700 C701 1.377 . S
C701 H685 0.930 . S
C701 C700 1.377 . S
C701 C702 1.379 . S
C702 H686 0.931 . S
C702 C696 1.383 . S
C702 C701 1.379 . S
H703 C697 0.959 . S
H704 C697 0.961 . S
H705 C697 0.960 . S
H706 C698 0.930 . S
H707 C699 0.929 . S
H708 C716 0.929 . S
H709 C718 0.930 . S
H710 C720 0.930 . S
H711 C723 0.929 . S
H712 C726 0.930 . S
H713 C728 0.960 . S
H714 C728 0.960 . S
H715 C728 0.960 . S
C716 H708 0.929 . S
C716 C717 1.377 . S
C716 C718 1.384 . S
C717 C716 1.377 . S
C717 C723 1.390 . S
C718 H709 0.930 . S
C718 C716 1.384 . S
C718 C719 1.372 . S
C719 C718 1.372 . S
C719 C720 1.400 . S
C719 C724 1.490 . S
C720 H710 0.930 . S
C720 C719 1.400 . S
C720 C723 1.386 . S
H721 C737 0.930 . S
H722 C738 0.931 . S
C723 H711 0.929 . S
C723 C717 1.390 . S
C723 C720 1.386 . S
C724 C719 1.490 . S
C724 C726 1.395 . S
C724 C727 1.403 . S
H725 C731 0.930 . S
C726 H712 0.930 . S
C726 C724 1.395 . S
C726 C729 1.403 . S
C727 C724 1.403 . S
C727 C728 1.524 . S
C727 C731 1.400 . S
C728 H713 0.960 . S
C728 H714 0.960 . S
C728 H715 0.960 . S
C728 C727 1.524 . S
C729 C726 1.403 . S
C729 C730 1.392 . S
C729 C733 1.495 . S
C730 C729 1.392 . S
C730 C731 1.385 . S
C730 C732 1.478 . S
C731 H725 0.930 . S
C731 C727 1.400 . S
C731 C730 1.385 . S
C732 C730 1.478 . S
C732 C734 1.381 . S
C732 C738 1.383 . S
C733 C729 1.495 . S
C733 H739 0.959 . S
C733 H740 0.961 . S
C733 H741 0.960 . S
C734 C732 1.381 . S
C734 C735 1.394 . S
C734 H742 0.930 . S
C735 C734 1.394 . S
C735 C736 1.383 . S
C735 H743 0.929 . S
C736 C735 1.383 . S
C736 C737 1.377 . S
C737 H721 0.930 . S
C737 C736 1.377 . S
C737 C738 1.379 . S
C738 H722 0.931 . S
C738 C732 1.383 . S
C738 C737 1.379 . S
H739 C733 0.959 . S
H740 C733 0.961 . S
H741 C733 0.960 . S
H742 C734 0.930 . S
H743 C735 0.929 . S
H744 C752 0.929 . S
H745 C754 0.930 . S
H746 C756 0.930 . S
H747 C759 0.929 . S
H748 C762 0.930 . S
H749 C764 0.960 . S
H750 C764 0.960 . S
H751 C764 0.960 . S
C752 H744 0.929 . S
C752 C753 1.377 . S
C752 C754 1.384 . S
C753 C752 1.377 . S
C753 C759 1.390 . S
C754 H745 0.930 . S
C754 C752 1.384 . S
C754 C755 1.372 . S
C755 C754 1.372 . S
C755 C756 1.400 . S
C755 C760 1.490 1_554 S
C756 H746 0.930 . S
C756 C755 1.400 . S
C756 C759 1.386 . S
H757 C773 0.930 . S
H758 C774 0.931 . S
C759 H747 0.929 . S
C759 C753 1.390 . S
C759 C756 1.386 . S
C760 C755 1.490 1_556 S
C760 C762 1.395 . S
C760 C763 1.403 . S
H761 C767 0.930 . S
C762 H748 0.930 . S
C762 C760 1.395 . S
C762 C765 1.403 . S
C763 C760 1.403 . S
C763 C764 1.524 1_556 S
C763 C767 1.400 . S
C764 H749 0.960 . S
C764 H750 0.960 . S
C764 H751 0.960 . S
C764 C763 1.524 1_554 S
C765 C762 1.403 . S
C765 C766 1.392 . S
C765 C769 1.495 . S
C766 C765 1.392 . S
C766 C767 1.385 . S
C766 C768 1.478 . S
C767 H761 0.930 . S
C767 C763 1.400 . S
C767 C766 1.385 . S
C768 C766 1.478 . S
C768 C770 1.381 . S
C768 C774 1.383 . S
C769 C765 1.495 . S
C769 H775 0.959 . S
C769 H776 0.961 . S
C769 H777 0.960 . S
C770 C768 1.381 . S
C770 C771 1.394 . S
C770 H778 0.930 . S
C771 C770 1.394 . S
C771 C772 1.383 . S
C771 H779 0.929 . S
C772 C771 1.383 . S
C772 C773 1.377 . S
C773 H757 0.930 . S
C773 C772 1.377 . S
C773 C774 1.379 . S
C774 H758 0.931 . S
C774 C768 1.383 . S
C774 C773 1.379 . S
H775 C769 0.959 . S
H776 C769 0.961 . S
H777 C769 0.960 . S
H778 C770 0.930 . S
H779 C771 0.929 . S
H780 C788 0.929 . S
H781 C790 0.930 . S
H782 C792 0.930 . S
H783 C795 0.929 . S
H784 C798 0.930 . S
H785 C800 0.960 . S
H786 C800 0.960 . S
H787 C800 0.960 . S
C788 H780 0.929 . S
C788 C789 1.377 . S
C788 C790 1.384 . S
C789 C788 1.377 . S
C789 C795 1.390 . S
C790 H781 0.930 . S
C790 C788 1.384 . S
C790 C791 1.372 . S
C791 C790 1.372 . S
C791 C792 1.400 . S
C791 C796 1.490 1_554 S
C792 H782 0.930 . S
C792 C791 1.400 . S
C792 C795 1.386 . S
H793 C809 0.930 . S
H794 C810 0.931 . S
C795 H783 0.929 . S
C795 C789 1.390 . S
C795 C792 1.386 . S
C796 C791 1.490 1_556 S
C796 C798 1.395 . S
C796 C799 1.403 . S
H797 C803 0.930 . S
C798 H784 0.930 . S
C798 C796 1.395 . S
C798 C801 1.403 . S
C799 C796 1.403 . S
C799 C800 1.524 . S
C799 C803 1.400 . S
C800 H785 0.960 . S
C800 H786 0.960 . S
C800 H787 0.960 . S
C800 C799 1.524 . S
C801 C798 1.403 . S
C801 C802 1.392 . S
C801 C805 1.495 . S
C802 C801 1.392 . S
C802 C803 1.385 . S
C802 C804 1.478 . S
C803 H797 0.930 . S
C803 C799 1.400 . S
C803 C802 1.385 . S
C804 C802 1.478 . S
C804 C806 1.381 . S
C804 C810 1.383 . S
C805 C801 1.495 . S
C805 H811 0.959 . S
C805 H812 0.961 . S
C805 H813 0.960 . S
C806 C804 1.381 . S
C806 C807 1.394 . S
C806 H814 0.930 . S
C807 C806 1.394 . S
C807 C808 1.383 . S
C807 H815 0.929 . S
C808 C807 1.383 . S
C808 C809 1.377 . S
C809 H793 0.930 . S
C809 C808 1.377 . S
C809 C810 1.379 . S
C810 H794 0.931 . S
C810 C804 1.383 . S
C810 C809 1.379 . S
H811 C805 0.959 . S
H812 C805 0.961 . S
H813 C805 0.960 . S
H814 C806 0.930 . S
H815 C807 0.929 . S
H816 C824 0.929 . S
H817 C826 0.930 . S
H818 C828 0.930 . S
H819 C831 0.929 . S
H820 C834 0.930 . S
H821 C836 0.960 . S
H822 C836 0.960 . S
H823 C836 0.960 . S
C824 H816 0.929 . S
C824 C825 1.377 . S
C824 C826 1.384 . S
C825 C824 1.377 . S
C825 C831 1.390 . S
C826 H817 0.930 . S
C826 C824 1.384 . S
C826 C827 1.372 . S
C827 C826 1.372 . S
C827 C828 1.400 . S
C827 C832 1.490 . S
C828 H818 0.930 . S
C828 C827 1.400 . S
C828 C831 1.386 . S
H829 C845 0.930 . S
H830 C846 0.931 . S
C831 H819 0.929 . S
C831 C825 1.390 . S
C831 C828 1.386 . S
C832 C827 1.490 . S
C832 C834 1.395 . S
C832 C835 1.403 . S
H833 C839 0.930 . S
C834 H820 0.930 . S
C834 C832 1.395 . S
C834 C837 1.403 . S
C835 C832 1.403 . S
C835 C836 1.524 . S
C835 C839 1.400 . S
C836 H821 0.960 . S
C836 H822 0.960 . S
C836 H823 0.960 . S
C836 C835 1.524 . S
C837 C834 1.403 . S
C837 C838 1.392 . S
C837 C841 1.495 . S
C838 C837 1.392 . S
C838 C839 1.385 . S
C838 C840 1.478 . S
C839 H833 0.930 . S
C839 C835 1.400 . S
C839 C838 1.385 . S
C840 C838 1.478 . S
C840 C842 1.381 . S
C840 C846 1.383 . S
C841 C837 1.495 . S
C841 H847 0.959 . S
C841 H848 0.961 . S
C841 H849 0.960 . S
C842 C840 1.381 . S
C842 C843 1.394 . S
C842 H850 0.930 . S
C843 C842 1.394 . S
C843 C844 1.383 . S
C843 H851 0.929 . S
C844 C843 1.383 . S
C844 C845 1.377 . S
C845 H829 0.930 . S
C845 C844 1.377 . S
C845 C846 1.379 . S
C846 H830 0.931 . S
C846 C840 1.383 . S
C846 C845 1.379 . S
H847 C841 0.959 . S
H848 C841 0.961 . S
H849 C841 0.960 . S
H850 C842 0.930 . S
H851 C843 0.929 . S
H852 C860 0.929 . S
H853 C862 0.930 . S
H854 C864 0.930 . S
H855 C867 0.929 . S
H856 C870 0.930 . S
H857 C872 0.960 . S
H858 C872 0.960 . S
H859 C872 0.960 . S
C860 H852 0.929 . S
C860 C861 1.377 . S
C860 C862 1.384 . S
C861 C860 1.377 . S
C861 C867 1.390 . S
C862 H853 0.930 . S
C862 C860 1.384 . S
C862 C863 1.372 . S
C863 C862 1.372 . S
C863 C864 1.400 . S
C863 C868 1.490 . S
C864 H854 0.930 . S
C864 C863 1.400 . S
C864 C867 1.386 . S
H865 C881 0.930 . S
H866 C882 0.931 . S
C867 H855 0.929 . S
C867 C861 1.390 . S
C867 C864 1.386 . S
C868 C863 1.490 . S
C868 C870 1.395 . S
C868 C871 1.403 . S
H869 C875 0.930 . S
C870 H856 0.930 . S
C870 C868 1.395 . S
C870 C873 1.403 . S
C871 C868 1.403 . S
C871 C872 1.524 . S
C871 C875 1.400 . S
C872 H857 0.960 . S
C872 H858 0.960 . S
C872 H859 0.960 . S
C872 C871 1.524 . S
C873 C870 1.403 . S
C873 C874 1.392 . S
C873 C877 1.495 . S
C874 C873 1.392 . S
C874 C875 1.385 . S
C874 C876 1.478 . S
C875 H869 0.930 . S
C875 C871 1.400 . S
C875 C874 1.385 . S
C876 C874 1.478 . S
C876 C878 1.381 . S
C876 C882 1.383 . S
C877 C873 1.495 . S
C877 H883 0.959 . S
C877 H884 0.961 . S
C877 H885 0.960 . S
C878 C876 1.381 . S
C878 C879 1.394 . S
C878 H886 0.930 . S
C879 C878 1.394 . S
C879 C880 1.383 . S
C879 H887 0.929 . S
C880 C879 1.383 . S
C880 C881 1.377 . S
C881 H865 0.930 . S
C881 C880 1.377 . S
C881 C882 1.379 . S
C882 H866 0.931 . S
C882 C876 1.383 . S
C882 C881 1.379 . S
H883 C877 0.959 . S
H884 C877 0.961 . S
H885 C877 0.960 . S
H886 C878 0.930 . S
H887 C879 0.929 . S
H888 C896 0.929 . S
H889 C898 0.930 . S
H890 C900 0.930 . S
H891 C903 0.929 . S
H892 C906 0.930 1_455 S
H893 C908 0.960 . S
H894 C908 0.960 . S
H895 C908 0.960 . S
C896 H888 0.929 . S
C896 C897 1.377 . S
C896 C898 1.384 . S
C897 C896 1.377 . S
C897 C903 1.390 . S
C898 H889 0.930 . S
C898 C896 1.384 . S
C898 C899 1.372 . S
C899 C898 1.372 . S
C899 C900 1.400 . S
C899 C904 1.490 1_455 S
C900 H890 0.930 . S
C900 C899 1.400 . S
C900 C903 1.386 . S
H901 C917 0.930 . S
H902 C918 0.931 . S
C903 H891 0.929 . S
C903 C897 1.390 . S
C903 C900 1.386 . S
C904 C899 1.490 1_655 S
C904 C906 1.395 . S
C904 C907 1.403 . S
H905 C911 0.930 . S
C906 H892 0.930 1_655 S
C906 C904 1.395 . S
C906 C909 1.403 . S
C907 C904 1.403 . S
C907 C908 1.524 . S
C907 C911 1.400 . S
C908 H893 0.960 . S
C908 H894 0.960 . S
C908 H895 0.960 . S
C908 C907 1.524 . S
C909 C906 1.403 . S
C909 C910 1.392 . S
C909 C913 1.495 . S
C910 C909 1.392 . S
C910 C911 1.385 . S
C910 C912 1.478 . S
C911 H905 0.930 . S
C911 C907 1.400 . S
C911 C910 1.385 . S
C912 C910 1.478 . S
C912 C914 1.381 . S
C912 C918 1.383 . S
C913 C909 1.495 . S
C913 H919 0.959 . S
C913 H920 0.961 . S
C913 H921 0.960 . S
C914 C912 1.381 . S
C914 C915 1.394 . S
C914 H922 0.930 . S
C915 C914 1.394 . S
C915 C916 1.383 . S
C915 H923 0.929 . S
C916 C915 1.383 . S
C916 C917 1.377 . S
C917 H901 0.930 . S
C917 C916 1.377 . S
C917 C918 1.379 . S
C918 H902 0.931 . S
C918 C912 1.383 . S
C918 C917 1.379 . S
H919 C913 0.959 . S
H920 C913 0.961 . S
H921 C913 0.960 . S
H922 C914 0.930 . S
H923 C915 0.929 . S
H924 C932 0.929 . S
H925 C934 0.930 . S
H926 C936 0.930 . S
H927 C939 0.929 . S
H928 C942 0.930 . S
H929 C944 0.960 . S
H930 C944 0.960 . S
H931 C944 0.960 . S
C932 H924 0.929 . S
C932 C933 1.377 . S
C932 C934 1.384 . S
C933 C932 1.377 . S
C933 C939 1.390 . S
C934 H925 0.930 . S
C934 C932 1.384 . S
C934 C935 1.372 . S
C935 C934 1.372 . S
C935 C936 1.400 . S
C935 C940 1.490 1_655 S
C936 H926 0.930 . S
C936 C935 1.400 . S
C936 C939 1.386 . S
H937 C953 0.930 . S
H938 C954 0.931 . S
C939 H927 0.929 . S
C939 C933 1.390 . S
C939 C936 1.386 . S
C940 C935 1.490 1_455 S
C940 C942 1.395 . S
C940 C943 1.403 . S
H941 C947 0.930 . S
C942 H928 0.930 . S
C942 C940 1.395 . S
C942 C945 1.403 . S
C943 C940 1.403 . S
C943 C944 1.524 1_455 S
C943 C947 1.400 . S
C944 H929 0.960 . S
C944 H930 0.960 . S
C944 H931 0.960 . S
C944 C943 1.524 1_655 S
C945 C942 1.403 . S
C945 C946 1.392 . S
C945 C949 1.495 . S
C946 C945 1.392 . S
C946 C947 1.385 . S
C946 C948 1.478 . S
C947 H941 0.930 . S
C947 C943 1.400 . S
C947 C946 1.385 . S
C948 C946 1.478 . S
C948 C950 1.381 . S
C948 C954 1.383 . S
C949 C945 1.495 . S
C949 H955 0.959 . S
C949 H956 0.961 . S
C949 H957 0.960 . S
C950 C948 1.381 . S
C950 C951 1.394 . S
C950 H958 0.930 . S
C951 C950 1.394 . S
C951 C952 1.383 . S
C951 H959 0.929 . S
C952 C951 1.383 . S
C952 C953 1.377 . S
C953 H937 0.930 . S
C953 C952 1.377 . S
C953 C954 1.379 . S
C954 H938 0.931 . S
C954 C948 1.383 . S
C954 C953 1.379 . S
H955 C949 0.959 . S
H956 C949 0.961 . S
H957 C949 0.960 . S
H958 C950 0.930 . S
H959 C951 0.929 . S
H960 C968 0.929 . S
H961 C970 0.930 . S
H962 C972 0.930 . S
H963 C975 0.929 . S
H964 C978 0.930 1_455 S
H965 C980 0.960 . S
H966 C980 0.960 . S
H967 C980 0.960 . S
C968 H960 0.929 . S
C968 C969 1.377 . S
C968 C970 1.384 . S
C969 C968 1.377 . S
C969 C975 1.390 . S
C970 H961 0.930 . S
C970 C968 1.384 . S
C970 C971 1.372 . S
C971 C970 1.372 . S
C971 C972 1.400 . S
C971 C976 1.490 1_455 S
C972 H962 0.930 . S
C972 C971 1.400 . S
C972 C975 1.386 . S
H973 C989 0.930 . S
H974 C990 0.931 . S
C975 H963 0.929 . S
C975 C969 1.390 . S
C975 C972 1.386 . S
C976 C971 1.490 1_655 S
C976 C978 1.395 . S
C976 C979 1.403 . S
H977 C983 0.930 . S
C978 H964 0.930 1_655 S
C978 C976 1.395 . S
C978 C981 1.403 . S
C979 C976 1.403 . S
C979 C980 1.524 . S
C979 C983 1.400 . S
C980 H965 0.960 . S
C980 H966 0.960 . S
C980 H967 0.960 . S
C980 C979 1.524 . S
C981 C978 1.403 . S
C981 C982 1.392 . S
C981 C985 1.495 . S
C982 C981 1.392 . S
C982 C983 1.385 . S
C982 C984 1.478 . S
C983 H977 0.930 . S
C983 C979 1.400 . S
C983 C982 1.385 . S
C984 C982 1.478 . S
C984 C986 1.381 . S
C984 C990 1.383 . S
C985 C981 1.495 . S
C985 H991 0.959 . S
C985 H992 0.961 . S
C985 H993 0.960 . S
C986 C984 1.381 . S
C986 C987 1.394 . S
C986 H994 0.930 . S
C987 C986 1.394 . S
C987 C988 1.383 . S
C987 H995 0.929 . S
C988 C987 1.383 . S
C988 C989 1.377 . S
C989 H973 0.930 . S
C989 C988 1.377 . S
C989 C990 1.379 . S
C990 H974 0.931 . S
C990 C984 1.383 . S
C990 C989 1.379 . S
H991 C985 0.959 . S
H992 C985 0.961 . S
H993 C985 0.960 . S
H994 C986 0.930 . S
H995 C987 0.929 . S
H996 C1004 0.929 . S
H997 C1006 0.930 . S
H998 C1008 0.930 . S
H999 C1011 0.929 . S
H1000 C1014 0.930 . S
H1001 C1016 0.960 . S
H1002 C1016 0.960 . S
H1003 C1016 0.960 . S
C1004 H996 0.929 . S
C1004 C1005 1.377 . S
C1004 C1006 1.384 . S
C1005 C1004 1.377 . S
C1005 C1011 1.390 . S
C1006 H997 0.930 . S
C1006 C1004 1.384 . S
C1006 C1007 1.372 . S
C1007 C1006 1.372 . S
C1007 C1008 1.400 . S
C1007 C1012 1.490 . S
C1008 H998 0.930 . S
C1008 C1007 1.400 . S
C1008 C1011 1.386 . S
H1009 C1025 0.930 . S
H1010 C1026 0.931 . S
C1011 H999 0.929 . S
C1011 C1005 1.390 . S
C1011 C1008 1.386 . S
C1012 C1007 1.490 . S
C1012 C1014 1.395 . S
C1012 C1015 1.403 . S
H1013 C1019 0.930 . S
C1014 H1000 0.930 . S
C1014 C1012 1.395 . S
C1014 C1017 1.403 . S
C1015 C1012 1.403 . S
C1015 C1016 1.524 . S
C1015 C1019 1.400 . S
C1016 H1001 0.960 . S
C1016 H1002 0.960 . S
C1016 H1003 0.960 . S
C1016 C1015 1.524 . S
C1017 C1014 1.403 . S
C1017 C1018 1.392 . S
C1017 C1021 1.495 . S
C1018 C1017 1.392 . S
C1018 C1019 1.385 . S
C1018 C1020 1.478 1_455 S
C1019 H1013 0.930 . S
C1019 C1015 1.400 . S
C1019 C1018 1.385 . S
C1020 C1018 1.478 1_655 S
C1020 C1022 1.381 . S
C1020 C1026 1.383 . S
C1021 C1017 1.495 . S
C1021 H1027 0.959 . S
C1021 H1028 0.961 1_455 S
C1021 H1029 0.960 . S
C1022 C1020 1.381 . S
C1022 C1023 1.394 . S
C1022 H1030 0.930 . S
C1023 C1022 1.394 . S
C1023 C1024 1.383 . S
C1023 H1031 0.929 . S
C1024 C1023 1.383 . S
C1024 C1025 1.377 . S
C1025 H1009 0.930 . S
C1025 C1024 1.377 . S
C1025 C1026 1.379 . S
C1026 H1010 0.931 . S
C1026 C1020 1.383 . S
C1026 C1025 1.379 . S
H1027 C1021 0.959 . S
H1028 C1021 0.961 1_655 S
H1029 C1021 0.960 . S
H1030 C1022 0.930 . S
H1031 C1023 0.929 . S
H1032 C1040 0.929 . S
H1033 C1042 0.930 . S
H1034 C1044 0.930 . S
H1035 C1047 0.929 . S
H1036 C1050 0.921 1_545 S
H1037 C1052 0.960 . S
H1038 C1052 0.992 . S
H1039 C1052 0.960 . S
C1040 H1032 0.929 . S
C1040 C1041 1.377 . S
C1040 C1042 1.384 . S
C1041 C1040 1.377 . S
C1041 C1047 1.390 . S
C1042 H1033 0.930 . S
C1042 C1040 1.384 . S
C1042 C1043 1.372 . S
C1043 C1042 1.372 . S
C1043 C1044 1.400 . S
C1043 C1048 1.490 1_545 S
C1044 H1034 0.930 . S
C1044 C1043 1.400 . S
C1044 C1047 1.386 . S
H1045 C1061 0.930 . S
H1046 C1062 0.931 . S
C1047 H1035 0.929 . S
C1047 C1041 1.390 . S
C1047 C1044 1.386 . S
C1048 C1043 1.490 1_565 S
C1048 C1050 1.395 . S
C1048 C1051 1.403 . S
H1049 C1055 0.930 . S
C1050 H1036 0.921 1_565 S
C1050 C1048 1.395 . S
C1050 C1053 1.403 . S
C1051 C1048 1.403 . S
C1051 C1052 1.524 . S
C1051 C1055 1.400 . S
C1052 H1037 0.960 . S
C1052 H1038 0.992 . S
C1052 H1039 0.960 . S
C1052 C1051 1.524 . S
C1053 C1050 1.403 . S
C1053 C1054 1.392 . S
C1053 C1057 1.495 . S
C1054 C1053 1.392 . S
C1054 C1055 1.385 . S
C1054 C1056 1.478 . S
C1055 H1049 0.930 . S
C1055 C1051 1.400 . S
C1055 C1054 1.385 . S
C1056 C1054 1.478 . S
C1056 C1058 1.381 . S
C1056 C1062 1.383 . S
C1057 C1053 1.495 . S
C1057 H1063 0.959 . S
C1057 H1064 0.961 . S
C1057 H1065 0.960 . S
C1058 C1056 1.381 . S
C1058 C1059 1.394 . S
C1058 H1066 0.930 . S
C1059 C1058 1.394 . S
C1059 C1060 1.383 . S
C1059 H1067 0.929 . S
C1060 C1059 1.383 . S
C1060 C1061 1.377 . S
C1061 H1045 0.930 . S
C1061 C1060 1.377 . S
C1061 C1062 1.379 . S
C1062 H1046 0.931 . S
C1062 C1056 1.383 . S
C1062 C1061 1.379 . S
H1063 C1057 0.959 . S
H1064 C1057 0.961 . S
H1065 C1057 0.960 . S
H1066 C1058 0.930 . S
H1067 C1059 0.929 . S
H1068 C1076 0.929 . S
H1069 C1078 0.930 . S
H1070 C1080 0.930 . S
H1071 C1083 0.929 . S
H1072 C1086 0.930 . S
H1073 C1088 0.960 . S
H1074 C1088 0.960 . S
H1075 C1088 0.960 . S
C1076 H1068 0.929 . S
C1076 C1077 1.377 . S
C1076 C1078 1.384 . S
C1077 C1076 1.377 . S
C1077 C1083 1.390 . S
C1078 H1069 0.930 . S
C1078 C1076 1.384 . S
C1078 C1079 1.372 . S
C1079 C1078 1.372 . S
C1079 C1080 1.400 . S
C1079 C1084 1.490 . S
C1080 H1070 0.930 . S
C1080 C1079 1.400 . S
C1080 C1083 1.386 . S
H1081 C1097 0.930 . S
H1082 C1098 0.931 . S
C1083 H1071 0.929 . S
C1083 C1077 1.390 . S
C1083 C1080 1.386 . S
C1084 C1079 1.490 . S
C1084 C1086 1.395 . S
C1084 C1087 1.403 . S
H1085 C1091 0.930 . S
C1086 H1072 0.930 . S
C1086 C1084 1.395 . S
C1086 C1089 1.403 . S
C1087 C1084 1.403 . S
C1087 C1088 1.524 . S
C1087 C1091 1.400 . S
C1088 H1073 0.960 . S
C1088 H1074 0.960 . S
C1088 H1075 0.960 . S
C1088 C1087 1.524 . S
C1089 C1086 1.403 . S
C1089 C1090 1.392 . S
C1089 C1093 1.495 . S
C1090 C1089 1.392 . S
C1090 C1091 1.385 . S
C1090 C1092 1.478 1_545 S
C1091 H1085 0.930 . S
C1091 C1087 1.400 . S
C1091 C1090 1.385 . S
C1092 C1090 1.478 1_565 S
C1092 C1094 1.381 . S
C1092 C1098 1.383 . S
C1093 C1089 1.495 . S
C1093 H1099 0.959 . S
C1093 H1100 0.969 . S
C1093 H1101 0.960 1_545 S
C1094 C1092 1.381 . S
C1094 C1095 1.394 . S
C1094 H1102 0.930 . S
C1095 C1094 1.394 . S
C1095 C1096 1.383 . S
C1095 H1103 0.929 . S
C1096 C1095 1.383 . S
C1096 C1097 1.377 . S
C1097 H1081 0.930 . S
C1097 C1096 1.377 . S
C1097 C1098 1.379 . S
C1098 H1082 0.931 . S
C1098 C1092 1.383 . S
C1098 C1097 1.379 . S
H1099 C1093 0.959 . S
H1100 C1093 0.969 . S
H1101 C1093 0.960 1_565 S
H1102 C1094 0.930 . S
H1103 C1095 0.929 . S
H1104 C1112 0.929 . S
H1105 C1114 0.930 . S
H1106 C1116 0.930 . S
H1107 C1119 0.929 . S
H1108 C1122 0.930 . S
H1109 C1124 0.960 . S
H1110 C1124 0.960 . S
H1111 C1124 0.960 . S
C1112 H1104 0.929 . S
C1112 C1113 1.377 . S
C1112 C1114 1.384 . S
C1113 C1112 1.377 . S
C1113 C1119 1.390 . S
C1114 H1105 0.930 . S
C1114 C1112 1.384 . S
C1114 C1115 1.372 . S
C1115 C1114 1.372 . S
C1115 C1116 1.400 . S
C1115 C1120 1.490 . S
C1116 H1106 0.930 . S
C1116 C1115 1.400 . S
C1116 C1119 1.386 . S
H1117 C1133 0.930 . S
H1118 C1134 0.931 . S
C1119 H1107 0.929 . S
C1119 C1113 1.390 . S
C1119 C1116 1.386 . S
C1120 C1115 1.490 . S
C1120 C1122 1.395 . S
C1120 C1123 1.403 . S
H1121 C1127 0.930 . S
C1122 H1108 0.930 . S
C1122 C1120 1.395 . S
C1122 C1125 1.403 . S
C1123 C1120 1.403 . S
C1123 C1124 1.524 . S
C1123 C1127 1.400 . S
C1124 H1109 0.960 . S
C1124 H1110 0.960 . S
C1124 H1111 0.960 . S
C1124 C1123 1.524 . S
C1125 C1122 1.403 . S
C1125 C1126 1.392 . S
C1125 C1129 1.495 . S
C1126 C1125 1.392 . S
C1126 C1127 1.385 . S
C1126 C1128 1.478 . S
C1127 H1121 0.930 . S
C1127 C1123 1.400 . S
C1127 C1126 1.385 . S
C1128 C1126 1.478 . S
C1128 C1130 1.381 . S
C1128 C1134 1.383 . S
C1129 C1125 1.495 . S
C1129 H1135 0.959 . S
C1129 H1136 0.961 . S
C1129 H1137 0.960 . S
C1130 C1128 1.381 . S
C1130 C1131 1.394 . S
C1130 H1138 0.930 . S
C1131 C1130 1.394 . S
C1131 C1132 1.383 . S
C1131 H1139 0.929 . S
C1132 C1131 1.383 . S
C1132 C1133 1.377 . S
C1133 H1117 0.930 . S
C1133 C1132 1.377 . S
C1133 C1134 1.379 . S
C1134 H1118 0.931 . S
C1134 C1128 1.383 . S
C1134 C1133 1.379 . S
H1135 C1129 0.959 . S
H1136 C1129 0.961 . S
H1137 C1129 0.960 . S
H1138 C1130 0.930 . S
H1139 C1131 0.929 . S
H1140 C1148 0.929 . S
H1141 C1150 0.930 . S
H1142 C1152 0.930 . S
H1143 C1155 0.929 . S
H1144 C1158 0.930 . S
H1145 C1160 0.960 . S
H1146 C1160 0.960 . S
H1147 C1160 0.960 . S
C1148 H1140 0.929 . S
C1148 C1149 1.377 . S
C1148 C1150 1.384 . S
C1149 C1148 1.377 . S
C1149 C1155 1.390 . S
C1150 H1141 0.930 . S
C1150 C1148 1.384 . S
C1150 C1151 1.372 . S
C1151 C1150 1.372 . S
C1151 C1152 1.400 . S
C1151 C1156 1.490 . S
C1152 H1142 0.930 . S
C1152 C1151 1.400 . S
C1152 C1155 1.386 . S
H1153 C1169 0.930 . S
H1154 C1170 0.931 . S
C1155 H1143 0.929 . S
C1155 C1149 1.390 . S
C1155 C1152 1.386 . S
C1156 C1151 1.490 . S
C1156 C1158 1.395 . S
C1156 C1159 1.403 . S
H1157 C1163 0.930 . S
C1158 H1144 0.930 . S
C1158 C1156 1.395 . S
C1158 C1161 1.403 . S
C1159 C1156 1.403 . S
C1159 C1160 1.524 . S
C1159 C1163 1.400 . S
C1160 H1145 0.960 . S
C1160 H1146 0.960 . S
C1160 H1147 0.960 . S
C1160 C1159 1.524 . S
C1161 C1158 1.403 . S
C1161 C1162 1.392 . S
C1161 C1165 1.495 . S
C1162 C1161 1.392 . S
C1162 C1163 1.385 . S
C1162 C1164 1.478 1_545 S
C1163 H1157 0.930 . S
C1163 C1159 1.400 . S
C1163 C1162 1.385 . S
C1164 C1162 1.478 1_565 S
C1164 C1166 1.381 . S
C1164 C1170 1.383 . S
C1165 C1161 1.495 . S
C1165 H1171 0.959 . S
C1165 H1172 0.961 . S
C1165 H1173 0.960 1_545 S
C1166 C1164 1.381 . S
C1166 C1167 1.394 . S
C1166 H1174 0.930 . S
C1167 C1166 1.394 . S
C1167 C1168 1.383 . S
C1167 H1175 0.929 . S
C1168 C1167 1.383 . S
C1168 C1169 1.377 . S
C1169 H1153 0.930 . S
C1169 C1168 1.377 . S
C1169 C1170 1.379 . S
C1170 H1154 0.931 . S
C1170 C1164 1.383 . S
C1170 C1169 1.379 . S
H1171 C1165 0.959 . S
H1172 C1165 0.961 . S
H1173 C1165 0.960 1_565 S
H1174 C1166 0.930 . S
H1175 C1167 0.929 . S
H1176 C1184 0.929 . S
H1177 C1186 0.930 . S
H1178 C1188 0.930 . S
H1179 C1191 0.929 . S
H1180 C1194 0.930 . S
H1181 C1196 0.960 . S
H1182 C1196 0.960 . S
H1183 C1196 0.960 . S
C1184 H1176 0.929 . S
C1184 C1185 1.377 1_455 S
C1184 C1186 1.384 . S
C1185 C1184 1.377 1_655 S
C1185 C1191 1.390 . S
C1186 H1177 0.930 . S
C1186 C1184 1.384 . S
C1186 C1187 1.372 1_455 S
C1187 C1186 1.372 1_655 S
C1187 C1188 1.400 . S
C1187 C1192 1.490 1_655 S
C1188 H1178 0.930 . S
C1188 C1187 1.400 . S
C1188 C1191 1.386 . S
H1189 C1205 0.930 . S
H1190 C1206 0.931 . S
C1191 H1179 0.929 . S
C1191 C1185 1.390 . S
C1191 C1188 1.386 . S
C1192 C1187 1.490 1_455 S
C1192 C1194 1.396 . S
C1192 C1195 1.402 1_455 S
H1193 C1199 0.930 . S
C1194 H1180 0.930 . S
C1194 C1192 1.396 . S
C1194 C1197 1.403 . S
C1195 C1192 1.402 1_655 S
C1195 C1196 1.524 . S
C1195 C1199 1.400 . S
C1196 H1181 0.960 . S
C1196 H1182 0.960 . S
C1196 H1183 0.960 . S
C1196 C1195 1.524 . S
C1197 C1194 1.403 . S
C1197 C1198 1.392 . S
C1197 C1201 1.495 . S
C1198 C1197 1.392 . S
C1198 C1199 1.385 1_455 S
C1198 C1200 1.478 . S
C1199 H1193 0.930 . S
C1199 C1195 1.400 . S
C1199 C1198 1.385 1_655 S
C1200 C1198 1.478 . S
C1200 C1202 1.381 . S
C1200 C1206 1.383 1_455 S
C1201 C1197 1.495 . S
C1201 H1207 0.959 . S
C1201 H1208 0.961 . S
C1201 H1209 0.960 . S
C1202 C1200 1.381 . S
C1202 C1203 1.394 . S
C1202 H1210 0.930 . S
C1203 C1202 1.394 . S
C1203 C1204 1.383 . S
C1203 H1211 0.929 . S
C1204 C1203 1.383 . S
C1204 C1205 1.377 1_455 S
C1205 H1189 0.930 . S
C1205 C1204 1.377 1_655 S
C1205 C1206 1.379 . S
C1206 H1190 0.931 . S
C1206 C1200 1.383 1_655 S
C1206 C1205 1.379 . S
H1207 C1201 0.959 . S
H1208 C1201 0.961 . S
H1209 C1201 0.960 . S
H1210 C1202 0.930 . S
H1211 C1203 0.929 . S
H1212 C1220 0.929 . S
H1213 C1222 0.930 . S
H1214 C1224 0.930 . S
H1215 C1227 0.929 . S
H1216 C1230 0.930 . S
H1217 C1232 0.960 . S
H1218 C1232 0.960 . S
H1219 C1232 0.960 . S
C1220 H1212 0.929 . S
C1220 C1221 1.377 1_655 S
C1220 C1222 1.384 . S
C1221 C1220 1.377 1_455 S
C1221 C1227 1.390 . S
C1222 H1213 0.930 . S
C1222 C1220 1.384 . S
C1222 C1223 1.372 1_655 S
C1223 C1222 1.372 1_455 S
C1223 C1224 1.400 . S
C1223 C1228 1.490 . S
C1224 H1214 0.930 . S
C1224 C1223 1.400 . S
C1224 C1227 1.386 . S
H1225 C1241 0.930 . S
H1226 C1242 0.931 . S
C1227 H1215 0.929 . S
C1227 C1221 1.390 . S
C1227 C1224 1.386 . S
C1228 C1223 1.490 . S
C1228 C1230 1.395 1_455 S
C1228 C1231 1.403 . S
H1229 C1235 0.930 . S
C1230 H1216 0.930 . S
C1230 C1228 1.395 1_655 S
C1230 C1233 1.403 . S
C1231 C1228 1.403 . S
C1231 C1232 1.524 . S
C1231 C1235 1.400 . S
C1232 H1217 0.960 . S
C1232 H1218 0.960 . S
C1232 H1219 0.960 . S
C1232 C1231 1.524 . S
C1233 C1230 1.403 . S
C1233 C1234 1.392 . S
C1233 C1237 1.495 . S
C1234 C1233 1.392 . S
C1234 C1235 1.385 1_655 S
C1234 C1236 1.478 . S
C1235 H1229 0.930 . S
C1235 C1231 1.400 . S
C1235 C1234 1.385 1_455 S
C1236 C1234 1.478 . S
C1236 C1238 1.381 . S
C1236 C1242 1.383 1_655 S
C1237 C1233 1.495 . S
C1237 H1243 0.959 . S
C1237 H1244 0.961 . S
C1237 H1245 0.960 . S
C1238 C1236 1.381 . S
C1238 C1239 1.394 . S
C1238 H1246 0.930 . S
C1239 C1238 1.394 . S
C1239 C1240 1.383 . S
C1239 H1247 0.929 . S
C1240 C1239 1.383 . S
C1240 C1241 1.377 1_655 S
C1241 H1225 0.930 . S
C1241 C1240 1.377 1_455 S
C1241 C1242 1.379 . S
C1242 H1226 0.931 . S
C1242 C1236 1.383 1_455 S
C1242 C1241 1.379 . S
H1243 C1237 0.959 . S
H1244 C1237 0.961 . S
H1245 C1237 0.960 . S
H1246 C1238 0.930 . S
H1247 C1239 0.929 . S
H1248 C1256 0.929 . S
H1249 C1258 0.930 . S
H1250 C1260 0.930 . S
H1251 C1263 0.929 . S
H1252 C1266 0.930 . S
H1253 C1268 0.960 . S
H1254 C1268 0.960 . S
H1255 C1268 0.960 . S
C1256 H1248 0.929 . S
C1256 C1257 1.377 1_545 S
C1256 C1258 1.384 . S
C1257 C1256 1.377 1_565 S
C1257 C1263 1.390 . S
C1258 H1249 0.930 . S
C1258 C1256 1.384 . S
C1258 C1259 1.372 1_545 S
C1259 C1258 1.372 1_565 S
C1259 C1260 1.400 . S
C1259 C1264 1.489 1_565 S
C1260 H1250 0.930 . S
C1260 C1259 1.400 . S
C1260 C1263 1.386 . S
H1261 C1277 0.930 . S
H1262 C1278 0.931 . S
C1263 H1251 0.929 . S
C1263 C1257 1.390 . S
C1263 C1260 1.386 . S
C1264 C1259 1.489 1_545 S
C1264 C1266 1.397 . S
C1264 C1267 1.401 1_545 S
H1265 C1271 0.930 . S
C1266 H1252 0.930 . S
C1266 C1264 1.397 . S
C1266 C1269 1.403 . S
C1267 C1264 1.401 1_565 S
C1267 C1268 1.524 . S
C1267 C1271 1.400 . S
C1268 H1253 0.960 . S
C1268 H1254 0.960 . S
C1268 H1255 0.960 . S
C1268 C1267 1.524 . S
C1269 C1266 1.403 . S
C1269 C1270 1.392 . S
C1269 C1273 1.495 . S
C1270 C1269 1.392 . S
C1270 C1271 1.385 1_545 S
C1270 C1272 1.478 . S
C1271 H1265 0.930 . S
C1271 C1267 1.400 . S
C1271 C1270 1.385 1_565 S
C1272 C1270 1.478 . S
C1272 C1274 1.381 . S
C1272 C1278 1.383 1_545 S
C1273 C1269 1.495 . S
C1273 H1279 0.959 . S
C1273 H1280 0.961 . S
C1273 H1281 0.960 . S
C1274 C1272 1.381 . S
C1274 C1275 1.394 . S
C1274 H1282 0.930 . S
C1275 C1274 1.394 . S
C1275 C1276 1.383 . S
C1275 H1283 0.929 . S
C1276 C1275 1.383 . S
C1276 C1277 1.377 1_545 S
C1277 H1261 0.930 . S
C1277 C1276 1.377 1_565 S
C1277 C1278 1.379 . S
C1278 H1262 0.931 . S
C1278 C1272 1.383 1_565 S
C1278 C1277 1.379 . S
H1279 C1273 0.959 . S
H1280 C1273 0.961 . S
H1281 C1273 0.960 . S
H1282 C1274 0.930 . S
H1283 C1275 0.929 . S
H1284 C1292 0.929 . S
H1285 C1294 0.930 . S
H1286 C1296 0.930 . S
H1287 C1299 0.929 . S
H1288 C1302 0.930 . S
H1289 C1304 0.960 . S
H1290 C1304 0.960 . S
H1291 C1304 0.960 . S
C1292 H1284 0.929 . S
C1292 C1293 1.377 . S
C1292 C1294 1.384 . S
C1293 C1292 1.377 . S
C1293 C1299 1.390 . S
C1294 H1285 0.930 . S
C1294 C1292 1.384 . S
C1294 C1295 1.372 . S
C1295 C1294 1.372 . S
C1295 C1296 1.400 . S
C1295 C1300 1.490 . S
C1296 H1286 0.930 . S
C1296 C1295 1.400 . S
C1296 C1299 1.386 . S
H1297 C1313 0.930 . S
H1298 C1314 0.931 . S
C1299 H1287 0.929 . S
C1299 C1293 1.390 . S
C1299 C1296 1.386 . S
C1300 C1295 1.490 . S
C1300 C1302 1.395 . S
C1300 C1303 1.403 . S
H1301 C1307 0.930 . S
C1302 H1288 0.930 . S
C1302 C1300 1.395 . S
C1302 C1305 1.403 . S
C1303 C1300 1.403 . S
C1303 C1304 1.524 . S
C1303 C1307 1.400 . S
C1304 H1289 0.960 . S
C1304 H1290 0.960 . S
C1304 H1291 0.960 . S
C1304 C1303 1.524 . S
C1305 C1302 1.403 . S
C1305 C1306 1.392 . S
C1305 C1309 1.495 . S
C1306 C1305 1.392 . S
C1306 C1307 1.385 . S
C1306 C1308 1.478 . S
C1307 H1301 0.930 . S
C1307 C1303 1.400 . S
C1307 C1306 1.385 . S
C1308 C1306 1.478 . S
C1308 C1310 1.381 . S
C1308 C1314 1.383 . S
C1309 C1305 1.495 . S
C1309 H1315 0.959 . S
C1309 H1316 0.961 . S
C1309 H1317 0.960 . S
C1310 C1308 1.381 . S
C1310 C1311 1.394 . S
C1310 H1318 0.930 . S
C1311 C1310 1.394 . S
C1311 C1312 1.383 . S
C1311 H1319 0.929 . S
C1312 C1311 1.383 . S
C1312 C1313 1.377 . S
C1313 H1297 0.930 . S
C1313 C1312 1.377 . S
C1313 C1314 1.379 . S
C1314 H1298 0.931 . S
C1314 C1308 1.383 . S
C1314 C1313 1.379 . S
H1315 C1309 0.959 . S
H1316 C1309 0.961 . S
H1317 C1309 0.960 . S
H1318 C1310 0.930 . S
H1319 C1311 0.929 . S
H1320 C1328 0.929 . S
H1321 C1330 0.930 . S
H1322 C1332 0.930 . S
H1323 C1335 0.929 . S
H1324 C1338 0.930 . S
H1325 C1340 0.960 . S
H1326 C1340 0.960 . S
H1327 C1340 0.960 . S
C1328 H1320 0.929 . S
C1328 C1329 1.377 1_556 S
C1328 C1330 1.384 . S
C1329 C1328 1.377 1_554 S
C1329 C1335 1.390 . S
C1330 H1321 0.930 . S
C1330 C1328 1.384 . S
C1330 C1331 1.372 1_556 S
C1331 C1330 1.372 1_554 S
C1331 C1332 1.400 . S
C1331 C1336 1.498 . S
C1332 H1322 0.930 . S
C1332 C1331 1.400 . S
C1332 C1335 1.386 . S
H1333 C1349 0.930 . S
H1334 C1350 0.931 . S
C1335 H1323 0.929 . S
C1335 C1329 1.390 . S
C1335 C1332 1.386 . S
C1336 C1331 1.498 . S
C1336 C1338 1.348 1_554 S
C1336 C1339 1.442 . S
H1337 C1343 0.930 . S
C1338 H1324 0.930 . S
C1338 C1336 1.348 1_556 S
C1338 C1341 1.403 . S
C1339 C1336 1.442 . S
C1339 C1340 1.524 . S
C1339 C1343 1.400 . S
C1340 H1325 0.960 . S
C1340 H1326 0.960 . S
C1340 H1327 0.960 . S
C1340 C1339 1.524 . S
C1341 C1338 1.403 . S
C1341 C1342 1.392 . S
C1341 C1345 1.495 . S
C1342 C1341 1.392 . S
C1342 C1343 1.385 1_556 S
C1342 C1344 1.478 . S
C1343 H1337 0.930 . S
C1343 C1339 1.400 . S
C1343 C1342 1.385 1_554 S
C1344 C1342 1.478 . S
C1344 C1346 1.381 . S
C1344 C1350 1.383 1_556 S
C1345 C1341 1.495 . S
C1345 H1351 0.959 . S
C1345 H1352 0.961 . S
C1345 H1353 0.960 . S
C1346 C1344 1.381 . S
C1346 C1347 1.394 . S
C1346 H1354 0.930 . S
C1347 C1346 1.394 . S
C1347 C1348 1.383 . S
C1347 H1355 0.929 . S
C1348 C1347 1.383 . S
C1348 C1349 1.377 1_556 S
C1349 H1333 0.930 . S
C1349 C1348 1.377 1_554 S
C1349 C1350 1.379 . S
C1350 H1334 0.931 . S
C1350 C1344 1.383 1_554 S
C1350 C1349 1.379 . S
H1351 C1345 0.959 . S
H1352 C1345 0.961 . S
H1353 C1345 0.960 . S
H1354 C1346 0.930 . S
H1355 C1347 0.929 . S
H1356 C1364 0.929 . S
H1357 C1366 0.930 . S
H1358 C1368 0.930 . S
H1359 C1371 0.929 . S
H1360 C1374 0.930 . S
H1361 C1376 0.960 . S
H1362 C1376 0.960 . S
H1363 C1376 0.960 . S
C1364 H1356 0.929 . S
C1364 C1365 1.377 . S
C1364 C1366 1.384 . S
C1365 C1364 1.377 . S
C1365 C1371 1.390 . S
C1366 H1357 0.930 . S
C1366 C1364 1.384 . S
C1366 C1367 1.372 . S
C1367 C1366 1.372 . S
C1367 C1368 1.400 . S
C1367 C1372 1.490 . S
C1368 H1358 0.930 . S
C1368 C1367 1.400 . S
C1368 C1371 1.386 . S
H1369 C1385 0.930 . S
H1370 C1386 0.931 . S
C1371 H1359 0.929 . S
C1371 C1365 1.390 . S
C1371 C1368 1.386 . S
C1372 C1367 1.490 . S
C1372 C1374 1.395 . S
C1372 C1375 1.403 . S
H1373 C1379 0.930 . S
C1374 H1360 0.930 . S
C1374 C1372 1.395 . S
C1374 C1377 1.403 . S
C1375 C1372 1.403 . S
C1375 C1376 1.524 . S
C1375 C1379 1.400 . S
C1376 H1361 0.960 . S
C1376 H1362 0.960 . S
C1376 H1363 0.960 . S
C1376 C1375 1.524 . S
C1377 C1374 1.403 . S
C1377 C1378 1.392 . S
C1377 C1381 1.495 . S
C1378 C1377 1.392 . S
C1378 C1379 1.385 . S
C1378 C1380 1.478 . S
C1379 H1373 0.930 . S
C1379 C1375 1.400 . S
C1379 C1378 1.385 . S
C1380 C1378 1.478 . S
C1380 C1382 1.381 . S
C1380 C1386 1.383 . S
C1381 C1377 1.495 . S
C1381 H1387 0.959 . S
C1381 H1388 0.961 . S
C1381 H1389 0.960 . S
C1382 C1380 1.381 . S
C1382 C1383 1.394 . S
C1382 H1390 0.930 . S
C1383 C1382 1.394 . S
C1383 C1384 1.383 . S
C1383 H1391 0.929 . S
C1384 C1383 1.383 . S
C1384 C1385 1.377 . S
C1385 H1369 0.930 . S
C1385 C1384 1.377 . S
C1385 C1386 1.379 . S
C1386 H1370 0.931 . S
C1386 C1380 1.383 . S
C1386 C1385 1.379 . S
H1387 C1381 0.959 . S
H1388 C1381 0.961 . S
H1389 C1381 0.960 . S
H1390 C1382 0.930 . S
H1391 C1383 0.929 . S
H1392 C1400 0.929 . S
H1393 C1402 0.930 . S
H1394 C1404 0.930 . S
H1395 C1407 0.929 . S
H1396 C1410 0.930 . S
H1397 C1412 0.960 . S
H1398 C1412 0.960 . S
H1399 C1412 0.960 . S
C1400 H1392 0.929 . S
C1400 C1401 1.377 . S
C1400 C1402 1.384 . S
C1401 C1400 1.377 . S
C1401 C1407 1.390 . S
C1402 H1393 0.930 . S
C1402 C1400 1.384 . S
C1402 C1403 1.372 . S
C1403 C1402 1.372 . S
C1403 C1404 1.400 . S
C1403 C1408 1.490 . S
C1404 H1394 0.930 . S
C1404 C1403 1.400 . S
C1404 C1407 1.386 . S
H1405 C1421 0.930 . S
H1406 C1422 0.931 . S
C1407 H1395 0.929 . S
C1407 C1401 1.390 . S
C1407 C1404 1.386 . S
C1408 C1403 1.490 . S
C1408 C1410 1.395 . S
C1408 C1411 1.403 . S
H1409 C1415 0.930 . S
C1410 H1396 0.930 . S
C1410 C1408 1.395 . S
C1410 C1413 1.403 . S
C1411 C1408 1.403 . S
C1411 C1412 1.524 . S
C1411 C1415 1.400 . S
C1412 H1397 0.960 . S
C1412 H1398 0.960 . S
C1412 H1399 0.960 . S
C1412 C1411 1.524 . S
C1413 C1410 1.403 . S
C1413 C1414 1.392 . S
C1413 C1417 1.495 . S
C1414 C1413 1.392 . S
C1414 C1415 1.385 . S
C1414 C1416 1.478 . S
C1415 H1409 0.930 . S
C1415 C1411 1.400 . S
C1415 C1414 1.385 . S
C1416 C1414 1.478 . S
C1416 C1418 1.381 . S
C1416 C1422 1.383 . S
C1417 C1413 1.495 . S
C1417 H1423 0.959 . S
C1417 H1424 0.961 . S
C1417 H1425 0.960 . S
C1418 C1416 1.381 . S
C1418 C1419 1.394 . S
C1418 H1426 0.930 . S
C1419 C1418 1.394 . S
C1419 C1420 1.383 . S
C1419 H1427 0.929 . S
C1420 C1419 1.383 . S
C1420 C1421 1.377 . S
C1421 H1405 0.930 . S
C1421 C1420 1.377 . S
C1421 C1422 1.379 . S
C1422 H1406 0.931 . S
C1422 C1416 1.383 . S
C1422 C1421 1.379 . S
H1423 C1417 0.959 . S
H1424 C1417 0.961 . S
H1425 C1417 0.960 . S
H1426 C1418 0.930 . S
H1427 C1419 0.929 . S
H1428 C1436 0.929 . S
H1429 C1438 0.930 . S
H1430 C1440 0.930 . S
H1431 C1443 0.929 . S
H1432 C1446 0.930 . S
H1433 C1448 0.960 . S
H1434 C1448 0.960 . S
H1435 C1448 0.960 . S
C1436 H1428 0.929 . S
C1436 C1437 1.377 . S
C1436 C1438 1.384 . S
C1437 C1436 1.377 . S
C1437 C1443 1.390 . S
C1438 H1429 0.930 . S
C1438 C1436 1.384 . S
C1438 C1439 1.372 . S
C1439 C1438 1.372 . S
C1439 C1440 1.400 . S
C1439 C1444 1.490 . S
C1440 H1430 0.930 . S
C1440 C1439 1.400 . S
C1440 C1443 1.386 . S
H1441 C1457 0.930 . S
H1442 C1458 0.931 . S
C1443 H1431 0.929 . S
C1443 C1437 1.390 . S
C1443 C1440 1.386 . S
C1444 C1439 1.490 . S
C1444 C1446 1.395 . S
C1444 C1447 1.403 . S
H1445 C1451 0.930 . S
C1446 H1432 0.930 . S
C1446 C1444 1.395 . S
C1446 C1449 1.403 . S
C1447 C1444 1.403 . S
C1447 C1448 1.524 . S
C1447 C1451 1.400 . S
C1448 H1433 0.960 . S
C1448 H1434 0.960 . S
C1448 H1435 0.960 . S
C1448 C1447 1.524 . S
C1449 C1446 1.403 . S
C1449 C1450 1.392 . S
C1449 C1453 1.495 . S
C1450 C1449 1.392 . S
C1450 C1451 1.385 . S
C1450 C1452 1.478 . S
C1451 H1445 0.930 . S
C1451 C1447 1.400 . S
C1451 C1450 1.385 . S
C1452 C1450 1.478 . S
C1452 C1454 1.381 . S
C1452 C1458 1.383 . S
C1453 C1449 1.495 . S
C1453 H1459 0.959 . S
C1453 H1460 0.961 . S
C1453 H1461 0.960 . S
C1454 C1452 1.381 . S
C1454 C1455 1.394 . S
C1454 H1462 0.930 . S
C1455 C1454 1.394 . S
C1455 C1456 1.383 . S
C1455 H1463 0.929 . S
C1456 C1455 1.383 . S
C1456 C1457 1.377 . S
C1457 H1441 0.930 . S
C1457 C1456 1.377 . S
C1457 C1458 1.379 . S
C1458 H1442 0.931 . S
C1458 C1452 1.383 . S
C1458 C1457 1.379 . S
H1459 C1453 0.959 . S
H1460 C1453 0.961 . S
H1461 C1453 0.960 . S
H1462 C1454 0.930 . S
H1463 C1455 0.929 . S
H1464 C1472 0.929 . S
H1465 C1474 0.930 . S
H1466 C1476 0.930 . S
H1467 C1479 0.929 . S
H1468 C1482 0.930 . S
H1469 C1484 0.960 . S
H1470 C1484 0.960 . S
H1471 C1484 0.960 . S
C1472 H1464 0.929 . S
C1472 C1473 1.377 . S
C1472 C1474 1.384 . S
C1473 C1472 1.377 . S
C1473 C1479 1.390 . S
C1474 H1465 0.930 . S
C1474 C1472 1.384 . S
C1474 C1475 1.372 . S
C1475 C1474 1.372 . S
C1475 C1476 1.400 . S
C1475 C1480 1.490 . S
C1476 H1466 0.930 . S
C1476 C1475 1.400 . S
C1476 C1479 1.386 . S
H1477 C1493 0.930 . S
H1478 C1494 0.931 . S
C1479 H1467 0.929 . S
C1479 C1473 1.390 . S
C1479 C1476 1.386 . S
C1480 C1475 1.490 . S
C1480 C1482 1.395 . S
C1480 C1483 1.403 . S
H1481 C1487 0.930 . S
C1482 H1468 0.930 . S
C1482 C1480 1.395 . S
C1482 C1485 1.403 . S
C1483 C1480 1.403 . S
C1483 C1484 1.524 . S
C1483 C1487 1.400 . S
C1484 H1469 0.960 . S
C1484 H1470 0.960 . S
C1484 H1471 0.960 . S
C1484 C1483 1.524 . S
C1485 C1482 1.403 . S
C1485 C1486 1.392 . S
C1485 C1489 1.495 . S
C1486 C1485 1.392 . S
C1486 C1487 1.385 . S
C1486 C1488 1.478 . S
C1487 H1481 0.930 . S
C1487 C1483 1.400 . S
C1487 C1486 1.385 . S
C1488 C1486 1.478 . S
C1488 C1490 1.381 . S
C1488 C1494 1.383 . S
C1489 C1485 1.495 . S
C1489 H1495 0.959 . S
C1489 H1496 0.961 . S
C1489 H1497 0.960 . S
C1490 C1488 1.381 . S
C1490 C1491 1.394 . S
C1490 H1498 0.930 . S
C1491 C1490 1.394 . S
C1491 C1492 1.383 . S
C1491 H1499 0.929 . S
C1492 C1491 1.383 . S
C1492 C1493 1.377 . S
C1493 H1477 0.930 . S
C1493 C1492 1.377 . S
C1493 C1494 1.379 . S
C1494 H1478 0.931 . S
C1494 C1488 1.383 . S
C1494 C1493 1.379 . S
H1495 C1489 0.959 . S
H1496 C1489 0.961 . S
H1497 C1489 0.960 . S
H1498 C1490 0.930 . S
H1499 C1491 0.929 . S
H1500 C1508 0.929 . S
H1501 C1510 0.930 . S
H1502 C1512 0.930 . S
H1503 C1515 0.929 . S
H1504 C1518 0.930 . S
H1505 C1520 0.960 . S
H1506 C1520 0.960 . S
H1507 C1520 0.960 . S
C1508 H1500 0.929 . S
C1508 C1509 1.377 . S
C1508 C1510 1.384 . S
C1509 C1508 1.377 . S
C1509 C1515 1.390 . S
C1510 H1501 0.930 . S
C1510 C1508 1.384 . S
C1510 C1511 1.372 . S
C1511 C1510 1.372 . S
C1511 C1512 1.400 . S
C1511 C1516 1.490 . S
C1512 H1502 0.930 . S
C1512 C1511 1.400 . S
C1512 C1515 1.386 . S
H1513 C1529 0.930 . S
H1514 C1530 0.931 . S
C1515 H1503 0.929 . S
C1515 C1509 1.390 . S
C1515 C1512 1.386 . S
C1516 C1511 1.490 . S
C1516 C1518 1.395 . S
C1516 C1519 1.403 . S
H1517 C1523 0.930 . S
C1518 H1504 0.930 . S
C1518 C1516 1.395 . S
C1518 C1521 1.403 . S
C1519 C1516 1.403 . S
C1519 C1520 1.524 . S
C1519 C1523 1.400 . S
C1520 H1505 0.960 . S
C1520 H1506 0.960 . S
C1520 H1507 0.960 . S
C1520 C1519 1.524 . S
C1521 C1518 1.403 . S
C1521 C1522 1.392 . S
C1521 C1525 1.495 . S
C1522 C1521 1.392 . S
C1522 C1523 1.385 . S
C1522 C1524 1.478 . S
C1523 H1517 0.930 . S
C1523 C1519 1.400 . S
C1523 C1522 1.385 . S
C1524 C1522 1.478 . S
C1524 C1526 1.381 . S
C1524 C1530 1.383 . S
C1525 C1521 1.495 . S
C1525 H1531 0.959 . S
C1525 H1532 0.961 . S
C1525 H1533 0.960 . S
C1526 C1524 1.381 . S
C1526 C1527 1.394 . S
C1526 H1534 0.930 . S
C1527 C1526 1.394 . S
C1527 C1528 1.383 . S
C1527 H1535 0.929 . S
C1528 C1527 1.383 . S
C1528 C1529 1.377 . S
C1529 H1513 0.930 . S
C1529 C1528 1.377 . S
C1529 C1530 1.379 . S
C1530 H1514 0.931 . S
C1530 C1524 1.383 . S
C1530 C1529 1.379 . S
H1531 C1525 0.959 . S
H1532 C1525 0.961 . S
H1533 C1525 0.960 . S
H1534 C1526 0.930 . S
H1535 C1527 0.929 . S
H1536 C1544 0.929 . S
H1537 C1546 0.930 . S
H1538 C1548 0.930 1_565 S
H1539 C1551 0.929 . S
H1540 C1554 0.930 . S
H1541 C1556 0.960 . S
H1542 C1556 0.960 . S
H1543 C1556 0.960 . S
C1544 H1536 0.929 . S
C1544 C1545 1.377 . S
C1544 C1546 1.384 . S
C1545 C1544 1.377 . S
C1545 C1551 1.390 . S
C1546 H1537 0.930 . S
C1546 C1544 1.384 . S
C1546 C1547 1.372 . S
C1547 C1546 1.372 . S
C1547 C1548 1.400 . S
C1547 C1552 1.490 . S
C1548 H1538 0.930 1_545 S
C1548 C1547 1.400 . S
C1548 C1551 1.386 . S
H1549 C1565 0.930 . S
H1550 C1566 0.931 . S
C1551 H1539 0.929 . S
C1551 C1545 1.390 . S
C1551 C1548 1.386 . S
C1552 C1547 1.490 . S
C1552 C1554 1.395 . S
C1552 C1555 1.403 1_545 S
H1553 C1559 0.930 . S
C1554 H1540 0.930 . S
C1554 C1552 1.395 . S
C1554 C1557 1.403 . S
C1555 C1552 1.403 1_565 S
C1555 C1556 1.524 . S
C1555 C1559 1.400 . S
C1556 H1541 0.960 . S
C1556 H1542 0.960 . S
C1556 H1543 0.960 . S
C1556 C1555 1.524 . S
C1557 C1554 1.403 . S
C1557 C1558 1.392 . S
C1557 C1561 1.495 . S
C1558 C1557 1.392 . S
C1558 C1559 1.385 1_545 S
C1558 C1560 1.478 . S
C1559 H1553 0.930 . S
C1559 C1555 1.400 . S
C1559 C1558 1.385 1_565 S
C1560 C1558 1.478 . S
C1560 C1562 1.381 . S
C1560 C1566 1.381 1_545 S
C1561 C1557 1.495 . S
C1561 H1567 0.959 . S
C1561 H1568 0.961 . S
C1561 H1569 0.960 . S
C1562 C1560 1.381 . S
C1562 C1563 1.394 1_545 S
C1562 H1570 0.930 . S
C1563 C1562 1.394 1_565 S
C1563 C1564 1.383 . S
C1563 H1571 0.929 . S
C1564 C1563 1.383 . S
C1564 C1565 1.377 . S
C1565 H1549 0.930 . S
C1565 C1564 1.377 . S
C1565 C1566 1.379 . S
C1566 H1550 0.931 . S
C1566 C1560 1.381 1_565 S
C1566 C1565 1.379 . S
H1567 C1561 0.959 . S
H1568 C1561 0.961 . S
H1569 C1561 0.960 . S
H1570 C1562 0.930 . S
H1571 C1563 0.929 . S
H1572 C1580 0.929 . S
H1573 C1582 0.930 . S
H1574 C1584 0.930 . S
H1575 C1587 0.929 . S
H1576 C1590 0.930 . S
H1577 C1592 0.960 . S
H1578 C1592 0.960 . S
H1579 C1592 0.960 . S
C1580 H1572 0.929 . S
C1580 C1581 1.377 1_554 S
C1580 C1582 1.384 . S
C1581 C1580 1.377 1_556 S
C1581 C1587 1.390 . S
C1582 H1573 0.930 . S
C1582 C1580 1.384 . S
C1582 C1583 1.372 1_554 S
C1583 C1582 1.372 1_556 S
C1583 C1584 1.400 . S
C1583 C1588 1.495 . S
C1584 H1574 0.930 . S
C1584 C1583 1.400 . S
C1584 C1587 1.386 . S
H1585 C1601 0.930 . S
H1586 C1602 0.931 . S
C1587 H1575 0.929 . S
C1587 C1581 1.390 . S
C1587 C1584 1.386 . S
C1588 C1583 1.495 . S
C1588 C1590 1.411 . S
C1588 C1591 1.384 1_556 S
H1589 C1595 0.930 . S
C1590 H1576 0.930 . S
C1590 C1588 1.411 . S
C1590 C1593 1.403 . S
C1591 C1588 1.384 1_554 S
C1591 C1592 1.524 . S
C1591 C1595 1.400 . S
C1592 H1577 0.960 . S
C1592 H1578 0.960 . S
C1592 H1579 0.960 . S
C1592 C1591 1.524 . S
C1593 C1590 1.403 . S
C1593 C1594 1.392 1_556 S
C1593 C1597 1.495 . S
C1594 C1593 1.392 1_554 S
C1594 C1595 1.385 . S
C1594 C1596 1.478 . S
C1595 H1589 0.930 . S
C1595 C1591 1.400 . S
C1595 C1594 1.385 . S
C1596 C1594 1.478 . S
C1596 C1598 1.381 . S
C1596 C1602 1.383 1_554 S
C1597 C1593 1.495 . S
C1597 H1603 0.959 . S
C1597 H1604 0.961 . S
C1597 H1605 0.960 . S
C1598 C1596 1.381 . S
C1598 C1599 1.394 . S
C1598 H1606 0.930 . S
C1599 C1598 1.394 . S
C1599 C1600 1.383 . S
C1599 H1607 0.929 . S
C1600 C1599 1.383 . S
C1600 C1601 1.377 1_554 S
C1601 H1585 0.930 . S
C1601 C1600 1.377 1_556 S
C1601 C1602 1.379 . S
C1602 H1586 0.931 . S
C1602 C1596 1.383 1_556 S
C1602 C1601 1.379 . S
H1603 C1597 0.959 . S
H1604 C1597 0.961 . S
H1605 C1597 0.960 . S
H1606 C1598 0.930 . S
H1607 C1599 0.929 . S
H1608 C1616 0.929 . S
H1609 C1618 0.930 . S
H1610 C1620 0.930 . S
H1611 C1623 0.929 . S
H1612 C1626 0.930 . S
H1613 C1628 0.960 . S
H1614 C1628 0.960 . S
H1615 C1628 0.960 1_565 S
C1616 H1608 0.929 . S
C1616 C1617 1.377 1_655 S
C1616 C1618 1.384 . S
C1617 C1616 1.377 1_455 S
C1617 C1623 1.390 . S
C1618 H1609 0.930 . S
C1618 C1616 1.384 . S
C1618 C1619 1.372 1_655 S
C1619 C1618 1.372 1_455 S
C1619 C1620 1.400 . S
C1619 C1624 1.490 . S
C1620 H1610 0.930 . S
C1620 C1619 1.400 . S
C1620 C1623 1.386 . S
H1621 C1637 0.930 . S
H1622 C1638 0.931 . S
C1623 H1611 0.929 . S
C1623 C1617 1.390 . S
C1623 C1620 1.386 . S
C1624 C1619 1.490 . S
C1624 C1626 1.395 1_455 S
C1624 C1627 1.403 1_565 S
H1625 C1631 0.930 . S
C1626 H1612 0.930 . S
C1626 C1624 1.395 1_655 S
C1626 C1629 1.403 . S
C1627 C1624 1.403 1_545 S
C1627 C1628 1.524 . S
C1627 C1631 1.400 . S
C1628 H1613 0.960 . S
C1628 H1614 0.960 . S
C1628 H1615 0.960 1_545 S
C1628 C1627 1.524 . S
C1629 C1626 1.403 . S
C1629 C1630 1.392 1_665 S
C1629 C1633 1.495 . S
C1630 C1629 1.392 1_445 S
C1630 C1631 1.385 . S
C1630 C1632 1.478 . S
C1631 H1625 0.930 . S
C1631 C1627 1.400 . S
C1631 C1630 1.385 . S
C1632 C1630 1.478 . S
C1632 C1634 1.381 1_455 S
C1632 C1638 1.383 . S
C1633 C1629 1.495 . S
C1633 H1639 0.959 . S
C1633 H1640 0.961 . S
C1633 H1641 0.960 1_565 S
C1634 C1632 1.381 1_655 S
C1634 C1635 1.394 . S
C1634 H1642 0.930 . S
C1635 C1634 1.394 . S
C1635 C1636 1.383 1_655 S
C1635 H1643 0.929 . S
C1636 C1635 1.383 1_455 S
C1636 C1637 1.377 . S
C1637 H1621 0.930 . S
C1637 C1636 1.377 . S
C1637 C1638 1.379 . S
C1638 H1622 0.931 . S
C1638 C1632 1.383 . S
C1638 C1637 1.379 . S
H1639 C1633 0.959 . S
H1640 C1633 0.961 . S
H1641 C1633 0.960 1_545 S
H1642 C1634 0.930 . S
H1643 C1635 0.929 . S
H1644 C1652 0.929 . S
H1645 C1654 0.930 . S
H1646 C1656 0.930 . S
H1647 C1659 0.929 . S
H1648 C1662 0.930 1_455 S
H1649 C1664 0.960 . S
H1650 C1664 0.960 . S
H1651 C1664 0.960 . S
C1652 H1644 0.929 . S
C1652 C1653 1.377 . S
C1652 C1654 1.384 . S
C1653 C1652 1.377 . S
C1653 C1659 1.390 1_655 S
C1654 H1645 0.930 . S
C1654 C1652 1.384 . S
C1654 C1655 1.372 . S
C1655 C1654 1.372 . S
C1655 C1656 1.400 1_655 S
C1655 C1660 1.490 . S
C1656 H1646 0.930 . S
C1656 C1655 1.400 1_455 S
C1656 C1659 1.386 . S
H1657 C1673 0.930 . S
H1658 C1674 0.931 . S
C1659 H1647 0.929 . S
C1659 C1653 1.390 1_455 S
C1659 C1656 1.386 . S
C1660 C1655 1.490 . S
C1660 C1662 1.395 . S
C1660 C1663 1.403 . S
H1661 C1667 0.930 . S
C1662 H1648 0.930 1_655 S
C1662 C1660 1.395 . S
C1662 C1665 1.403 . S
C1663 C1660 1.403 . S
C1663 C1664 1.524 . S
C1663 C1667 1.400 . S
C1664 H1649 0.960 . S
C1664 H1650 0.960 . S
C1664 H1651 0.960 . S
C1664 C1663 1.524 . S
C1665 C1662 1.403 . S
C1665 C1666 1.392 . S
C1665 C1669 1.495 1_655 S
C1666 C1665 1.392 . S
C1666 C1667 1.385 . S
C1666 C1668 1.478 . S
C1667 H1661 0.930 . S
C1667 C1663 1.400 . S
C1667 C1666 1.385 . S
C1668 C1666 1.478 . S
C1668 C1670 1.381 . S
C1668 C1674 1.383 1_655 S
C1669 C1665 1.495 1_455 S
C1669 H1675 0.959 . S
C1669 H1676 0.961 . S
C1669 H1677 0.960 1_455 S
C1670 C1668 1.381 . S
C1670 C1671 1.394 . S
C1670 H1678 0.930 . S
C1671 C1670 1.394 . S
C1671 C1672 1.383 . S
C1671 H1679 0.929 . S
C1672 C1671 1.383 . S
C1672 C1673 1.377 1_655 S
C1673 H1657 0.930 . S
C1673 C1672 1.377 1_455 S
C1673 C1674 1.379 . S
C1674 H1658 0.931 . S
C1674 C1668 1.383 1_455 S
C1674 C1673 1.379 . S
H1675 C1669 0.959 . S
H1676 C1669 0.961 . S
H1677 C1669 0.960 1_655 S
H1678 C1670 0.930 . S
H1679 C1671 0.929 . S
H1680 C1688 0.929 . S
H1681 C1690 0.930 . S
H1682 C1692 0.930 . S
H1683 C1695 0.929 . S
H1684 C1698 0.930 . S
H1685 C1700 0.960 . S
H1686 C1700 0.960 1_565 S
H1687 C1700 0.960 . S
C1688 H1680 0.929 . S
C1688 C1689 1.377 1_565 S
C1688 C1690 1.384 . S
C1689 C1688 1.377 1_545 S
C1689 C1695 1.390 . S
C1690 H1681 0.930 . S
C1690 C1688 1.384 . S
C1690 C1691 1.372 1_565 S
C1691 C1690 1.372 1_545 S
C1691 C1692 1.400 . S
C1691 C1696 1.490 . S
C1692 H1682 0.930 . S
C1692 C1691 1.400 . S
C1692 C1695 1.386 . S
H1693 C1709 0.930 . S
H1694 C1710 0.931 . S
C1695 H1683 0.929 . S
C1695 C1689 1.390 . S
C1695 C1692 1.386 . S
C1696 C1691 1.490 . S
C1696 C1698 1.395 . S
C1696 C1699 1.403 1_556 S
H1697 C1703 0.930 . S
C1698 H1684 0.930 . S
C1698 C1696 1.395 . S
C1698 C1701 1.403 . S
C1699 C1696 1.403 1_554 S
C1699 C1700 1.524 . S
C1699 C1703 1.400 . S
C1700 H1685 0.960 . S
C1700 H1686 0.960 1_545 S
C1700 H1687 0.960 . S
C1700 C1699 1.524 . S
C1701 C1698 1.403 . S
C1701 C1702 1.392 1_556 S
C1701 C1705 1.495 . S
C1702 C1701 1.392 1_554 S
C1702 C1703 1.385 . S
C1702 C1704 1.478 . S
C1703 H1697 0.930 . S
C1703 C1699 1.400 . S
C1703 C1702 1.385 . S
C1704 C1702 1.478 . S
C1704 C1706 1.381 1_545 S
C1704 C1710 1.383 . S
C1705 C1701 1.495 . S
C1705 H1711 0.959 . S
C1705 H1712 0.961 . S
C1705 H1713 0.960 1_545 S
C1706 C1704 1.381 1_565 S
C1706 C1707 1.394 . S
C1706 H1714 0.930 . S
C1707 C1706 1.394 . S
C1707 C1708 1.383 1_565 S
C1707 H1715 0.929 . S
C1708 C1707 1.383 1_545 S
C1708 C1709 1.377 . S
C1709 H1693 0.930 . S
C1709 C1708 1.377 . S
C1709 C1710 1.379 . S
C1710 H1694 0.931 . S
C1710 C1704 1.383 . S
C1710 C1709 1.379 . S
H1711 C1705 0.959 . S
H1712 C1705 0.961 . S
H1713 C1705 0.960 1_565 S
H1714 C1706 0.930 . S
H1715 C1707 0.929 . S
H1716 C1724 0.929 . S
H1717 C1726 0.930 . S
H1718 C1728 0.930 . S
H1719 C1731 0.929 . S
H1720 C1734 0.926 1_554 S
H1721 C1736 0.960 . S
H1722 C1736 0.960 . S
H1723 C1736 0.960 . S
C1724 H1716 0.929 . S
C1724 C1725 1.377 . S
C1724 C1726 1.384 . S
C1725 C1724 1.377 . S
C1725 C1731 1.390 . S
C1726 H1717 0.930 . S
C1726 C1724 1.384 . S
C1726 C1727 1.372 . S
C1727 C1726 1.372 . S
C1727 C1728 1.400 . S
C1727 C1732 1.490 . S
C1728 H1718 0.930 . S
C1728 C1727 1.400 . S
C1728 C1731 1.386 . S
H1729 C1745 0.930 . S
H1730 C1746 0.931 . S
C1731 H1719 0.929 . S
C1731 C1725 1.390 . S
C1731 C1728 1.386 . S
C1732 C1727 1.490 . S
C1732 C1734 1.380 1_554 S
C1732 C1735 1.403 . S
H1733 C1739 0.930 . S
C1734 H1720 0.926 1_556 S
C1734 C1732 1.380 1_556 S
C1734 C1737 1.420 . S
C1735 C1732 1.403 . S
C1735 C1736 1.524 . S
C1735 C1739 1.400 1_554 S
C1736 H1721 0.960 . S
C1736 H1722 0.960 . S
C1736 H1723 0.960 . S
C1736 C1735 1.524 . S
C1737 C1734 1.420 . S
C1737 C1738 1.392 . S
C1737 C1741 1.495 . S
C1738 C1737 1.392 . S
C1738 C1739 1.385 . S
C1738 C1740 1.478 . S
C1739 H1733 0.930 . S
C1739 C1735 1.400 1_556 S
C1739 C1738 1.385 . S
C1740 C1738 1.478 . S
C1740 C1742 1.381 . S
C1740 C1746 1.383 . S
C1741 C1737 1.495 . S
C1741 H1747 0.959 . S
C1741 H1748 0.961 . S
C1741 H1749 0.960 . S
C1742 C1740 1.381 . S
C1742 C1743 1.394 . S
C1742 H1750 0.930 . S
C1743 C1742 1.394 . S
C1743 C1744 1.383 . S
C1743 H1751 0.929 . S
C1744 C1743 1.383 . S
C1744 C1745 1.377 . S
C1745 H1729 0.930 . S
C1745 C1744 1.377 . S
C1745 C1746 1.379 . S
C1746 H1730 0.931 . S
C1746 C1740 1.383 . S
C1746 C1745 1.379 . S
H1747 C1741 0.959 . S
H1748 C1741 0.961 . S
H1749 C1741 0.960 . S
H1750 C1742 0.930 . S
H1751 C1743 0.929 . S
H1752 C1760 0.929 . S
H1753 C1762 0.930 . S
H1754 C1764 0.930 . S
H1755 C1767 0.929 . S
H1756 C1770 0.930 1_545 S
H1757 C1772 0.960 . S
H1758 C1772 0.960 . S
H1759 C1772 0.960 . S
C1760 H1752 0.929 . S
C1760 C1761 1.377 . S
C1760 C1762 1.384 . S
C1761 C1760 1.377 . S
C1761 C1767 1.390 1_565 S
C1762 H1753 0.930 . S
C1762 C1760 1.384 . S
C1762 C1763 1.372 . S
C1763 C1762 1.372 . S
C1763 C1764 1.400 1_565 S
C1763 C1768 1.490 . S
C1764 H1754 0.930 . S
C1764 C1763 1.400 1_545 S
C1764 C1767 1.386 . S
H1765 C1781 0.930 . S
H1766 C1782 0.931 . S
C1767 H1755 0.929 . S
C1767 C1761 1.390 1_545 S
C1767 C1764 1.386 . S
C1768 C1763 1.490 . S
C1768 C1770 1.395 . S
C1768 C1771 1.403 . S
H1769 C1775 0.930 . S
C1770 H1756 0.930 1_565 S
C1770 C1768 1.395 . S
C1770 C1773 1.403 . S
C1771 C1768 1.403 . S
C1771 C1772 1.524 . S
C1771 C1775 1.400 . S
C1772 H1757 0.960 . S
C1772 H1758 0.960 . S
C1772 H1759 0.960 . S
C1772 C1771 1.524 . S
C1773 C1770 1.403 . S
C1773 C1774 1.392 . S
C1773 C1777 1.495 1_565 S
C1774 C1773 1.392 . S
C1774 C1775 1.385 . S
C1774 C1776 1.478 . S
C1775 H1769 0.930 . S
C1775 C1771 1.400 . S
C1775 C1774 1.385 . S
C1776 C1774 1.478 . S
C1776 C1778 1.381 . S
C1776 C1782 1.383 1_565 S
C1777 C1773 1.495 1_545 S
C1777 H1783 0.959 . S
C1777 H1784 0.961 . S
C1777 H1785 0.960 1_545 S
C1778 C1776 1.381 . S
C1778 C1779 1.394 . S
C1778 H1786 0.930 . S
C1779 C1778 1.394 . S
C1779 C1780 1.383 . S
C1779 H1787 0.929 . S
C1780 C1779 1.383 . S
C1780 C1781 1.377 1_565 S
C1781 H1765 0.930 . S
C1781 C1780 1.377 1_545 S
C1781 C1782 1.379 . S
C1782 H1766 0.931 . S
C1782 C1776 1.383 1_545 S
C1782 C1781 1.379 . S
H1783 C1777 0.959 . S
H1784 C1777 0.961 . S
H1785 C1777 0.960 1_565 S
H1786 C1778 0.930 . S
H1787 C1779 0.929 . S
H1788 C1796 0.929 . S
H1789 C1798 0.930 . S
H1790 C1800 0.930 . S
H1791 C1803 0.929 . S
H1792 C1806 0.930 . S
H1793 C1808 0.960 . S
H1794 C1808 0.960 . S
H1795 C1808 0.960 . S
C1796 H1788 0.929 . S
C1796 C1797 1.377 . S
C1796 C1798 1.384 . S
C1797 C1796 1.377 . S
C1797 C1803 1.390 . S
C1798 H1789 0.930 . S
C1798 C1796 1.384 . S
C1798 C1799 1.372 . S
C1799 C1798 1.372 . S
C1799 C1800 1.400 . S
C1799 C1804 1.490 . S
C1800 H1790 0.930 . S
C1800 C1799 1.400 . S
C1800 C1803 1.386 . S
H1801 C1817 0.930 . S
H1802 C1818 0.931 . S
C1803 H1791 0.929 . S
C1803 C1797 1.390 . S
C1803 C1800 1.386 . S
C1804 C1799 1.490 . S
C1804 C1806 1.395 . S
C1804 C1807 1.403 . S
H1805 C1811 0.930 . S
C1806 H1792 0.930 . S
C1806 C1804 1.395 . S
C1806 C1809 1.403 . S
C1807 C1804 1.403 . S
C1807 C1808 1.524 . S
C1807 C1811 1.400 . S
C1808 H1793 0.960 . S
C1808 H1794 0.960 . S
C1808 H1795 0.960 . S
C1808 C1807 1.524 . S
C1809 C1806 1.403 . S
C1809 C1810 1.392 . S
C1809 C1813 1.495 . S
C1810 C1809 1.392 . S
C1810 C1811 1.385 . S
C1810 C1812 1.478 . S
C1811 H1805 0.930 . S
C1811 C1807 1.400 . S
C1811 C1810 1.385 . S
C1812 C1810 1.478 . S
C1812 C1814 1.381 . S
C1812 C1818 1.383 . S
C1813 C1809 1.495 . S
C1813 H1819 0.959 . S
C1813 H1820 0.961 . S
C1813 H1821 0.960 . S
C1814 C1812 1.381 . S
C1814 C1815 1.394 . S
C1814 H1822 0.930 . S
C1815 C1814 1.394 . S
C1815 C1816 1.383 . S
C1815 H1823 0.929 . S
C1816 C1815 1.383 . S
C1816 C1817 1.377 . S
C1817 H1801 0.930 . S
C1817 C1816 1.377 . S
C1817 C1818 1.379 . S
C1818 H1802 0.931 . S
C1818 C1812 1.383 . S
C1818 C1817 1.379 . S
H1819 C1813 0.959 . S
H1820 C1813 0.961 . S
H1821 C1813 0.960 . S
H1822 C1814 0.930 . S
H1823 C1815 0.929 . S
H1824 C1832 0.929 . S
H1825 C1834 0.930 . S
H1826 C1836 0.930 . S
H1827 C1839 0.929 . S
H1828 C1842 0.930 . S
H1829 C1844 0.960 . S
H1830 C1844 0.960 1_554 S
H1831 C1844 0.960 . S
C1832 H1824 0.929 . S
C1832 C1833 1.377 . S
C1832 C1834 1.384 . S
C1833 C1832 1.377 . S
C1833 C1839 1.390 1_554 S
C1834 H1825 0.930 . S
C1834 C1832 1.384 . S
C1834 C1835 1.372 . S
C1835 C1834 1.372 . S
C1835 C1836 1.400 1_554 S
C1835 C1840 1.490 . S
C1836 H1826 0.930 . S
C1836 C1835 1.400 1_556 S
C1836 C1839 1.386 . S
H1837 C1853 0.930 . S
H1838 C1854 0.931 . S
C1839 H1827 0.929 . S
C1839 C1833 1.390 1_556 S
C1839 C1836 1.386 . S
C1840 C1835 1.490 . S
C1840 C1842 1.395 1_455 S
C1840 C1843 1.403 . S
H1841 C1847 0.936 1_556 S
C1842 H1828 0.930 . S
C1842 C1840 1.395 1_655 S
C1842 C1845 1.403 . S
C1843 C1840 1.403 . S
C1843 C1844 1.524 1_554 S
C1843 C1847 1.421 . S
C1844 H1829 0.960 . S
C1844 H1830 0.960 1_556 S
C1844 H1831 0.960 . S
C1844 C1843 1.524 1_556 S
C1845 C1842 1.403 . S
C1845 C1846 1.392 . S
C1845 C1849 1.495 . S
C1846 C1845 1.392 . S
C1846 C1847 1.359 1_655 S
C1846 C1848 1.478 . S
C1847 H1841 0.936 1_554 S
C1847 C1843 1.421 . S
C1847 C1846 1.359 1_455 S
C1848 C1846 1.478 . S
C1848 C1850 1.381 . S
C1848 C1854 1.383 1_554 S
C1849 C1845 1.495 . S
C1849 H1855 0.959 . S
C1849 H1856 0.961 . S
C1849 H1857 0.960 . S
C1850 C1848 1.381 . S
C1850 C1851 1.394 . S
C1850 H1858 0.930 . S
C1851 C1850 1.394 . S
C1851 C1852 1.383 . S
C1851 H1859 0.929 . S
C1852 C1851 1.383 . S
C1852 C1853 1.377 1_554 S
C1853 H1837 0.930 . S
C1853 C1852 1.377 1_556 S
C1853 C1854 1.379 . S
C1854 H1838 0.931 . S
C1854 C1848 1.383 1_556 S
C1854 C1853 1.379 . S
H1855 C1849 0.959 . S
H1856 C1849 0.961 . S
H1857 C1849 0.960 . S
H1858 C1850 0.930 . S
H1859 C1851 0.929 . S
H1860 C1868 0.929 . S
H1861 C1870 0.930 . S
H1862 C1872 0.930 . S
H1863 C1875 0.929 . S
H1864 C1878 0.930 . S
H1865 C1880 0.960 . S
H1866 C1880 0.960 . S
H1867 C1880 0.960 . S
C1868 H1860 0.929 . S
C1868 C1869 1.377 . S
C1868 C1870 1.384 . S
C1869 C1868 1.377 . S
C1869 C1875 1.390 . S
C1870 H1861 0.930 . S
C1870 C1868 1.384 . S
C1870 C1871 1.372 . S
C1871 C1870 1.372 . S
C1871 C1872 1.400 . S
C1871 C1876 1.490 . S
C1872 H1862 0.930 . S
C1872 C1871 1.400 . S
C1872 C1875 1.386 . S
H1873 C1889 0.930 . S
H1874 C1890 0.931 . S
C1875 H1863 0.929 . S
C1875 C1869 1.390 . S
C1875 C1872 1.386 . S
C1876 C1871 1.490 . S
C1876 C1878 1.395 1_455 S
C1876 C1879 1.403 . S
H1877 C1883 0.930 . S
C1878 H1864 0.930 . S
C1878 C1876 1.395 1_655 S
C1878 C1881 1.403 . S
C1879 C1876 1.403 . S
C1879 C1880 1.524 . S
C1879 C1883 1.400 . S
C1880 H1865 0.960 . S
C1880 H1866 0.960 . S
C1880 H1867 0.960 . S
C1880 C1879 1.524 . S
C1881 C1878 1.403 . S
C1881 C1882 1.392 . S
C1881 C1885 1.495 . S
C1882 C1881 1.392 . S
C1882 C1883 1.385 1_655 S
C1882 C1884 1.478 . S
C1883 H1877 0.930 . S
C1883 C1879 1.400 . S
C1883 C1882 1.385 1_455 S
C1884 C1882 1.478 . S
C1884 C1886 1.381 . S
C1884 C1890 1.383 . S
C1885 C1881 1.495 . S
C1885 H1891 0.959 . S
C1885 H1892 0.961 . S
C1885 H1893 0.960 . S
C1886 C1884 1.381 . S
C1886 C1887 1.394 . S
C1886 H1894 0.930 . S
C1887 C1886 1.394 . S
C1887 C1888 1.383 . S
C1887 H1895 0.929 . S
C1888 C1887 1.383 . S
C1888 C1889 1.377 . S
C1889 H1873 0.930 . S
C1889 C1888 1.377 . S
C1889 C1890 1.379 . S
C1890 H1874 0.931 . S
C1890 C1884 1.383 . S
C1890 C1889 1.379 . S
H1891 C1885 0.959 . S
H1892 C1885 0.961 . S
H1893 C1885 0.960 . S
H1894 C1886 0.930 . S
H1895 C1887 0.929 . S
H1896 C1904 0.929 . S
H1897 C1906 0.930 . S
H1898 C1908 0.930 . S
H1899 C1911 0.929 . S
H1900 C1914 0.930 . S
H1901 C1916 0.960 . S
H1902 C1916 0.960 . S
H1903 C1916 0.960 . S
C1904 H1896 0.929 . S
C1904 C1905 1.377 . S
C1904 C1906 1.384 . S
C1905 C1904 1.377 . S
C1905 C1911 1.390 . S
C1906 H1897 0.930 . S
C1906 C1904 1.384 . S
C1906 C1907 1.372 . S
C1907 C1906 1.372 . S
C1907 C1908 1.400 . S
C1907 C1912 1.490 . S
C1908 H1898 0.930 . S
C1908 C1907 1.400 . S
C1908 C1911 1.386 . S
H1909 C1925 0.930 . S
H1910 C1926 0.931 . S
C1911 H1899 0.929 . S
C1911 C1905 1.390 . S
C1911 C1908 1.386 . S
C1912 C1907 1.490 . S
C1912 C1914 1.395 . S
C1912 C1915 1.403 . S
H1913 C1919 0.930 . S
C1914 H1900 0.930 . S
C1914 C1912 1.395 . S
C1914 C1917 1.403 . S
C1915 C1912 1.403 . S
C1915 C1916 1.524 . S
C1915 C1919 1.400 . S
C1916 H1901 0.960 . S
C1916 H1902 0.960 . S
C1916 H1903 0.960 . S
C1916 C1915 1.524 . S
C1917 C1914 1.403 . S
C1917 C1918 1.392 . S
C1917 C1921 1.495 . S
C1918 C1917 1.392 . S
C1918 C1919 1.385 . S
C1918 C1920 1.478 . S
C1919 H1913 0.930 . S
C1919 C1915 1.400 . S
C1919 C1918 1.385 . S
C1920 C1918 1.478 . S
C1920 C1922 1.381 . S
C1920 C1926 1.383 . S
C1921 C1917 1.495 . S
C1921 H1927 0.959 . S
C1921 H1928 0.961 . S
C1921 H1929 0.960 . S
C1922 C1920 1.381 . S
C1922 C1923 1.394 . S
C1922 H1930 0.930 . S
C1923 C1922 1.394 . S
C1923 C1924 1.383 . S
C1923 H1931 0.929 . S
C1924 C1923 1.383 . S
C1924 C1925 1.377 . S
C1925 H1909 0.930 . S
C1925 C1924 1.377 . S
C1925 C1926 1.379 . S
C1926 H1910 0.931 . S
C1926 C1920 1.383 . S
C1926 C1925 1.379 . S
H1927 C1921 0.959 . S
H1928 C1921 0.961 . S
H1929 C1921 0.960 . S
H1930 C1922 0.930 . S
H1931 C1923 0.929 . S
H1932 C1940 0.929 . S
H1933 C1942 0.930 . S
H1934 C1944 0.930 . S
H1935 C1947 0.929 . S
H1936 C1950 0.930 . S
H1937 C1952 0.960 . S
H1938 C1952 0.960 . S
H1939 C1952 0.960 . S
C1940 H1932 0.929 . S
C1940 C1941 1.377 . S
C1940 C1942 1.384 . S
C1941 C1940 1.377 . S
C1941 C1947 1.390 . S
C1942 H1933 0.930 . S
C1942 C1940 1.384 . S
C1942 C1943 1.372 . S
C1943 C1942 1.372 . S
C1943 C1944 1.400 . S
C1943 C1948 1.490 . S
C1944 H1934 0.930 . S
C1944 C1943 1.400 . S
C1944 C1947 1.386 . S
H1945 C1961 0.930 . S
H1946 C1962 0.931 . S
C1947 H1935 0.929 . S
C1947 C1941 1.390 . S
C1947 C1944 1.386 . S
C1948 C1943 1.490 . S
C1948 C1950 1.395 . S
C1948 C1951 1.403 . S
H1949 C1955 0.930 . S
C1950 H1936 0.930 . S
C1950 C1948 1.395 . S
C1950 C1953 1.403 . S
C1951 C1948 1.403 . S
C1951 C1952 1.524 . S
C1951 C1955 1.400 . S
C1952 H1937 0.960 . S
C1952 H1938 0.960 . S
C1952 H1939 0.960 . S
C1952 C1951 1.524 . S
C1953 C1950 1.403 . S
C1953 C1954 1.392 . S
C1953 C1957 1.495 . S
C1954 C1953 1.392 . S
C1954 C1955 1.385 . S
C1954 C1956 1.478 . S
C1955 H1949 0.930 . S
C1955 C1951 1.400 . S
C1955 C1954 1.385 . S
C1956 C1954 1.478 . S
C1956 C1958 1.381 . S
C1956 C1962 1.383 . S
C1957 C1953 1.495 . S
C1957 H1963 0.959 . S
C1957 H1964 0.961 . S
C1957 H1965 0.960 . S
C1958 C1956 1.381 . S
C1958 C1959 1.394 . S
C1958 H1966 0.930 . S
C1959 C1958 1.394 . S
C1959 C1960 1.383 . S
C1959 H1967 0.929 . S
C1960 C1959 1.383 . S
C1960 C1961 1.377 . S
C1961 H1945 0.930 . S
C1961 C1960 1.377 . S
C1961 C1962 1.379 . S
C1962 H1946 0.931 . S
C1962 C1956 1.383 . S
C1962 C1961 1.379 . S
H1963 C1957 0.959 . S
H1964 C1957 0.961 . S
H1965 C1957 0.960 . S
H1966 C1958 0.930 . S
H1967 C1959 0.929 . S
H1968 C1976 0.929 . S
H1969 C1978 0.930 . S
H1970 C1980 0.930 . S
H1971 C1983 0.929 . S
H1972 C1986 0.930 . S
H1973 C1988 0.960 . S
H1974 C1988 0.960 . S
H1975 C1988 0.960 . S
C1976 H1968 0.929 . S
C1976 C1977 1.377 . S
C1976 C1978 1.384 . S
C1977 C1976 1.377 . S
C1977 C1983 1.390 . S
C1978 H1969 0.930 . S
C1978 C1976 1.384 . S
C1978 C1979 1.372 . S
C1979 C1978 1.372 . S
C1979 C1980 1.400 . S
C1979 C1984 1.490 . S
C1980 H1970 0.930 . S
C1980 C1979 1.400 . S
C1980 C1983 1.386 . S
H1981 C1997 0.930 . S
H1982 C1998 0.931 . S
C1983 H1971 0.929 . S
C1983 C1977 1.390 . S
C1983 C1980 1.386 . S
C1984 C1979 1.490 . S
C1984 C1986 1.395 1_565 S
C1984 C1987 1.403 . S
H1985 C1991 0.930 . S
C1986 H1972 0.930 . S
C1986 C1984 1.395 1_545 S
C1986 C1989 1.403 . S
C1987 C1984 1.403 . S
C1987 C1988 1.524 . S
C1987 C1991 1.400 . S
C1988 H1973 0.960 . S
C1988 H1974 0.960 . S
C1988 H1975 0.960 . S
C1988 C1987 1.524 . S
C1989 C1986 1.403 . S
C1989 C1990 1.392 . S
C1989 C1993 1.495 . S
C1990 C1989 1.392 . S
C1990 C1991 1.385 1_545 S
C1990 C1992 1.478 . S
C1991 H1985 0.930 . S
C1991 C1987 1.400 . S
C1991 C1990 1.385 1_565 S
C1992 C1990 1.478 . S
C1992 C1994 1.381 . S
C1992 C1998 1.383 . S
C1993 C1989 1.495 . S
C1993 H1999 0.959 . S
C1993 H2000 0.961 . S
C1993 H2001 0.960 . S
C1994 C1992 1.381 . S
C1994 C1995 1.394 . S
C1994 H2002 0.930 . S
C1995 C1994 1.394 . S
C1995 C1996 1.383 . S
C1995 H2003 0.929 . S
C1996 C1995 1.383 . S
C1996 C1997 1.377 . S
C1997 H1981 0.930 . S
C1997 C1996 1.377 . S
C1997 C1998 1.379 . S
C1998 H1982 0.931 . S
C1998 C1992 1.383 . S
C1998 C1997 1.379 . S
H1999 C1993 0.959 . S
H2000 C1993 0.961 . S
H2001 C1993 0.960 . S
H2002 C1994 0.930 . S
H2003 C1995 0.929 . S
H2004 C2012 0.929 . S
H2005 C2014 0.930 . S
H2006 C2016 0.930 . S
H2007 C2019 0.929 . S
H2008 C2022 0.930 . S
H2009 C2024 0.960 . S
H2010 C2024 0.960 . S
H2011 C2024 0.960 1_556 S
C2012 H2004 0.929 . S
C2012 C2013 1.377 1_554 S
C2012 C2014 1.384 . S
C2013 C2012 1.377 1_556 S
C2013 C2019 1.390 . S
C2014 H2005 0.930 . S
C2014 C2012 1.384 . S
C2014 C2015 1.372 1_554 S
C2015 C2014 1.372 1_556 S
C2015 C2016 1.400 . S
C2015 C2020 1.490 . S
C2016 H2006 0.930 . S
C2016 C2015 1.400 . S
C2016 C2019 1.386 . S
H2017 C2033 0.930 . S
H2018 C2034 0.931 . S
C2019 H2007 0.929 . S
C2019 C2013 1.390 . S
C2019 C2016 1.386 . S
C2020 C2015 1.490 . S
C2020 C2022 1.395 . S
C2020 C2023 1.403 . S
H2021 C2027 0.929 . S
C2022 H2008 0.930 . S
C2022 C2020 1.395 . S
C2022 C2025 1.403 . S
C2023 C2020 1.403 . S
C2023 C2024 1.524 1_556 S
C2023 C2027 1.400 . S
C2024 H2009 0.960 . S
C2024 H2010 0.960 . S
C2024 H2011 0.960 1_554 S
C2024 C2023 1.524 1_554 S
C2025 C2022 1.403 . S
C2025 C2026 1.392 . S
C2025 C2029 1.495 . S
C2026 C2025 1.392 . S
C2026 C2027 1.385 . S
C2026 C2028 1.478 . S
C2027 H2021 0.929 . S
C2027 C2023 1.400 . S
C2027 C2026 1.385 . S
C2028 C2026 1.478 . S
C2028 C2030 1.381 1_556 S
C2028 C2034 1.383 . S
C2029 C2025 1.495 . S
C2029 H2035 0.959 . S
C2029 H2036 0.961 . S
C2029 H2037 0.960 . S
C2030 C2028 1.381 1_554 S
C2030 C2031 1.394 . S
C2030 H2038 0.930 . S
C2031 C2030 1.394 . S
C2031 C2032 1.383 1_554 S
C2031 H2039 0.929 . S
C2032 C2031 1.383 1_556 S
C2032 C2033 1.377 . S
C2033 H2017 0.930 . S
C2033 C2032 1.377 . S
C2033 C2034 1.379 . S
C2034 H2018 0.931 . S
C2034 C2028 1.383 . S
C2034 C2033 1.379 . S
H2035 C2029 0.959 . S
H2036 C2029 0.961 . S
H2037 C2029 0.960 . S
H2038 C2030 0.930 . S
H2039 C2031 0.929 . S
C321 C226 0.599 . S
C340 C8 0.590 . S
C357 C21 0.562 . S
C376 C213 0.697 . S
C393 C34 0.598 . S
C412 C252 0.654 . S
C429 C47 0.569 . S
C448 C239 0.564 . S
C465 C60 0.557 . S
C484 C278 0.549 . S
C501 C73 0.541 . S
C520 C291 0.506 . S
C537 C265 0.660 . S
C556 C86 0.634 . S
C573 C148 0.619 . S
C592 C99 0.463 . S
C609 C112 0.571 . S
C628 C44 0.627 . S
C645 C18 0.577 . S
C664 C125 0.510 . S
C681 C138 0.612 . S
C700 C5 0.661 . S
C717 C151 0.542 . S
C736 C187 0.558 . S
C753 C70 0.675 . S
C772 C164 0.693 . S
C789 C57 0.601 . S
C808 C177 0.511 . S
C825 C190 0.556 . S
C844 C96 0.687 . S
C861 C203 0.557 . S
C880 C83 0.577 . S
C897 C122 0.635 . S
C916 C216 0.521 . S
C933 C135 0.662 . S
C952 C229 0.669 . S
C969 C109 0.605 . S
C988 C242 0.593 . S
C1005 C255 0.584 . S
C1024 C304 0.658 . S
C1041 C200 0.654 . S
C1060 C268 0.636 . S
C1077 C281 0.569 . S
C1096 C174 0.566 . S
C1113 C161 0.652 . S
C1132 C294 0.528 . S
C1149 C307 0.572 . S
C1168 C31 0.519 . S
C1185 C0 1.502 . S
C1204 C13 1.494 . S
C1221 C39 1.434 . S
C1240 C26 1.429 . S
C1257 C52 1.503 . S
C1276 C78 1.495 . S
C1293 C65 1.614 . S
C1312 C91 1.597 . S
C1329 C286 1.509 . S
C1348 C104 1.503 . S
C1365 C117 1.613 . S
C1384 C143 1.594 . S
C1401 C260 1.545 . S
C1420 C130 1.526 . S
C1437 C169 1.549 . S
C1456 C156 1.554 . S
C1473 C182 1.625 . S
C1492 C195 1.633 . S
C1509 C234 1.541 . S
C1528 C208 1.521 . S
C1545 C221 1.427 . S
C1564 C247 1.406 . S
C1581 C299 1.424 . S
C1600 C273 1.408 . S
C1617 C36 1.114 . S
C1636 C10 1.104 . S
C1653 C23 1.248 . S
C1672 C49 1.269 . S
C1689 C257 1.118 . S
C1708 C62 1.091 . S
C1725 C75 1.216 . S
C1744 C244 1.216 . S
C1761 C88 1.248 . S
C1780 C231 1.269 . S
C1797 C218 1.341 . S
C1816 C101 1.351 . S
C1833 C114 1.123 . S
C1852 C309 1.139 . S
C1869 C127 1.210 . S
C1888 C140 1.233 . S
C1905 C270 1.349 . S
C1924 C153 1.329 . S
C1941 C166 1.340 . S
C1960 C192 1.340 . S
C1977 C179 1.210 . S
C1996 C205 1.233 . S
C2013 C296 1.250 . S
C2032 C283 1.222 . S
