# Generated by pormake.
# Topology hcp, (12)-cn, num edge types: 1
# Building blocks:
#     Node 0, Type 0, BuildingBlock: ZALLEG_clean_sbu_0, # of connection points: 12
#     Node 1, Type 0, BuildingBlock: ZALLEG_clean_sbu_0, # of connection points: 12
#     Edge 2, Type (0, 0), BuildingBlock: KIFKEQ_clean_linker_1, # of connection points: 2
#     Edge 3, Type (0, 0), BuildingBlock: KIFKEQ_clean_linker_1, # of connection points: 2
#     Edge 4, Type (0, 0), BuildingBlock: KIFKEQ_clean_linker_1, # of connection points: 2
#     Edge 5, Type (0, 0), BuildingBlock: KIFKEQ_clean_linker_1, # of connection points: 2
#     Edge 6, Type (0, 0), BuildingBlock: KIFKEQ_clean_linker_1, # of connection points: 2
#     Edge 7, Type (0, 0), BuildingBlock: KIFKEQ_clean_linker_1, # of connection points: 2
#     Edge 8, Type (0, 0), BuildingBlock: KIFKEQ_clean_linker_1, # of connection points: 2
#     Edge 9, Type (0, 0), BuildingBlock: KIFKEQ_clean_linker_1, # of connection points: 2
#     Edge 10, Type (0, 0), BuildingBlock: KIFKEQ_clean_linker_1, # of connection points: 2
#     Edge 11, Type (0, 0), BuildingBlock: KIFKEQ_clean_linker_1, # of connection points: 2
#     Edge 12, Type (0, 0), BuildingBlock: KIFKEQ_clean_linker_1, # of connection points: 2
#     Edge 13, Type (0, 0), BuildingBlock: KIFKEQ_clean_linker_1, # of connection points: 2
# Relax obj value: 0.186
# Max RMSD: 0.270
# Mean RMSD: 0.270
data_MOF--net-hcp--node1-ZALLEG_clean_sbu_0--edge1-KIFKEQ_clean_linker_1
_symmetry_space_group_name_H-M    P1
_symmetry_Int_Tables_number       1
_symmetry_cell_setting            triclinic
loop_
_symmetry_equiv_pos_as_xyz
'x, y, z'
_cell_length_a     18.94911
_cell_length_b     18.903433
_cell_length_c     28.780888
_cell_angle_alpha  90.268017
_cell_angle_beta   89.769336
_cell_angle_gamma 119.93157
loop_
_atom_site_label
_atom_site_type_symbol
_atom_site_fract_x
_atom_site_fract_y
_atom_site_fract_z
_atom_type_partial_charge
H0 H 0.56359 0.14759 0.26816 0.0
O1 O 0.59146 0.20468 0.2792 0.0
Tb2 Tb 0.53491 0.26959 0.25366 0.0
Tb3 Tb 0.59616 0.20712 0.35224 0.0
Tb4 Tb 0.71078 0.26346 0.2559 0.0
O5 O 0.53082 0.2636 0.32734 0.0
O6 O 0.65507 0.32619 0.22809 0.0
O7 O 0.59481 0.38836 0.27887 0.0
O8 O 0.652 0.32639 0.37803 0.0
O9 O 0.77544 0.38557 0.28041 0.0
O10 O 0.71572 0.26677 0.3292 0.0
H11 H 0.47437 0.23566 0.33929 0.0
H12 H 0.65622 0.32627 0.1937 0.0
Tb13 Tb 0.58958 0.38257 0.35203 0.0
Tb14 Tb 0.71732 0.44553 0.25519 0.0
H15 H 0.56642 0.41675 0.26755 0.0
H16 H 0.65135 0.32648 0.41226 0.0
Tb17 Tb 0.7717 0.38943 0.35332 0.0
H18 H 0.8326 0.41428 0.26975 0.0
H19 H 0.74347 0.23834 0.34147 0.0
O20 O 0.71233 0.44859 0.3286 0.0
H21 H 0.74029 0.50499 0.34076 0.0
O22 O 0.43231 0.14671 0.26861 0.0
O23 O 0.8754 0.51115 0.3398 0.0
O24 O 0.78973 0.33405 0.41294 0.0
O25 O 0.52988 0.34595 0.19401 0.0
O26 O 0.61397 0.10322 0.33864 0.0
O27 O 0.69652 0.54798 0.26994 0.0
O28 O 0.80174 0.45277 0.19659 0.0
O29 O 0.52038 0.18678 0.41116 0.0
O30 O 0.63785 0.18041 0.19664 0.0
O31 O 0.64404 0.45888 0.41138 0.0
O32 O 0.46858 0.36471 0.33743 0.0
O33 O 0.83296 0.28352 0.27138 0.0
O34 O 0.47388 0.10468 0.33666 0.0
O35 O 0.83673 0.55074 0.27055 0.0
O36 O 0.66175 0.46358 0.19493 0.0
O37 O 0.6652 0.2072 0.41703 0.0
O38 O 0.42991 0.28538 0.26812 0.0
O39 O 0.87467 0.36915 0.33891 0.0
O40 O 0.7696 0.45922 0.41762 0.0
O41 O 0.51964 0.19421 0.19327 0.0
O42 O 0.51902 0.3119 0.41646 0.0
O43 O 0.78658 0.32033 0.19655 0.0
O44 O 0.69573 0.14348 0.27055 0.0
O45 O 0.60952 0.50502 0.3368 0.0
C46 C 0.42084 0.09342 0.30263 0.0
C47 C 0.88838 0.56354 0.30531 0.0
C48 C 0.73987 0.26354 0.43316 0.0
C49 C 0.5871 0.42013 0.17758 0.0
C50 C 0.6549 0.0909 0.30463 0.0
C51 C 0.65292 0.55872 0.30332 0.0
C52 C 0.81952 0.3959 0.18024 0.0
C53 C 0.4998 0.23644 0.43195 0.0
C54 C 0.56532 0.16336 0.17817 0.0
C55 C 0.7136 0.47918 0.43258 0.0
C56 C 0.41686 0.32512 0.3027 0.0
C57 C 0.88615 0.32637 0.30519 0.0
H58 H 0.1394 0.56958 0.76602 0.0
O59 O 0.19642 0.59739 0.77677 0.0
Tb60 Tb 0.19995 0.60522 0.84978 0.0
Tb61 Tb 0.25919 0.53793 0.75235 0.0
Tb62 Tb 0.25667 0.71552 0.75132 0.0
O63 O 0.2542 0.5367 0.8257 0.0
O64 O 0.26148 0.72352 0.82476 0.0
O65 O 0.31955 0.65985 0.87452 0.0
O66 O 0.37842 0.59695 0.77561 0.0
O67 O 0.37903 0.77887 0.77516 0.0
O68 O 0.31725 0.65651 0.72418 0.0
H69 H 0.22576 0.48061 0.83822 0.0
H70 H 0.23425 0.75282 0.83686 0.0
Tb71 Tb 0.37363 0.59461 0.84856 0.0
Tb72 Tb 0.384 0.77823 0.84835 0.0
H73 H 0.32022 0.66092 0.90874 0.0
H74 H 0.40557 0.56689 0.76482 0.0
Tb75 Tb 0.43732 0.71844 0.74985 0.0
H76 H 0.40834 0.83567 0.7639 0.0
H77 H 0.31658 0.65548 0.6898 0.0
O78 O 0.44093 0.71631 0.82354 0.0
H79 H 0.49725 0.74379 0.83551 0.0
O80 O 0.09502 0.48285 0.835 0.0
O81 O 0.54311 0.83919 0.76407 0.0
O82 O 0.45219 0.65518 0.69048 0.0
O83 O 0.20643 0.679 0.91477 0.0
O84 O 0.18302 0.52016 0.69306 0.0
O85 O 0.4519 0.77327 0.91341 0.0
O86 O 0.3668 0.88256 0.83256 0.0
O87 O 0.27263 0.43176 0.76707 0.0
O88 O 0.13688 0.70142 0.76622 0.0
O89 O 0.49484 0.61109 0.83213 0.0
O90 O 0.30352 0.52954 0.91442 0.0
O91 O 0.31462 0.79017 0.69128 0.0
O92 O 0.13754 0.43657 0.76876 0.0
O93 O 0.50636 0.87898 0.83445 0.0
O94 O 0.33049 0.80499 0.90625 0.0
O95 O 0.33114 0.5251 0.69363 0.0
O96 O 0.17769 0.52883 0.90847 0.0
O97 O 0.44531 0.8013 0.69046 0.0
O98 O 0.53906 0.69775 0.76529 0.0
O99 O 0.09856 0.62671 0.83685 0.0
O100 O 0.35305 0.472 0.8355 0.0
O101 O 0.27895 0.83909 0.76623 0.0
O102 O 0.17262 0.64035 0.69246 0.0
O103 O 0.45248 0.64802 0.90614 0.0
C104 C 0.08395 0.42731 0.80214 0.0
C105 C 0.5575 0.89119 0.79932 0.0
C106 C 0.40499 0.57859 0.67578 0.0
C107 C 0.26242 0.75588 0.9288 0.0
C108 C 0.15349 0.56546 0.67601 0.0
C109 C 0.47183 0.7168 0.92804 0.0
C110 C 0.32348 0.89341 0.7993 0.0
C111 C 0.31253 0.41925 0.80135 0.0
C112 C 0.08554 0.66457 0.80159 0.0
C113 C 0.54907 0.65396 0.79861 0.0
C114 C 0.22805 0.51048 0.92991 0.0
C115 C 0.38944 0.81998 0.67405 0.0
H116 H 0.21252 0.85981 0.96535 0.0
H117 H 0.34548 0.7381 0.99515 0.0
H118 H 0.28351 0.95611 1.02889 0.0
H119 H 0.41688 0.8307 0.05713 0.0
H120 H 0.5369 0.00629 0.17663 0.0
H121 H 0.44292 0.89554 0.12595 0.0
H122 H 0.40679 0.06779 1.04562 0.0
H123 H 0.49651 0.17638 0.09844 0.0
C124 C 0.25263 0.84964 0.98753 0.0
C125 C 0.26797 0.78566 0.97736 0.0
C126 C 0.29594 0.90675 1.0232 0.0
C127 C 0.35779 0.903 1.04884 0.0
C128 C 0.36885 0.83595 1.0402 0.0
C129 C 0.32502 0.77931 1.00531 0.0
C130 C 0.51044 0.02053 0.14736 0.0
C131 C 0.52594 0.10059 0.14094 0.0
C132 C 0.45552 0.95669 0.1182 0.0
C133 C 0.41532 0.97111 0.08112 0.0
C134 C 0.43369 0.05236 0.07408 0.0
C135 C 0.48709 0.11555 0.10381 0.0
H136 H 0.42328 0.60907 0.58267 0.0
H137 H 0.48544 0.49619 0.69237 0.0
H138 H 0.51658 0.59409 0.53012 0.0
H139 H 0.58213 0.48425 0.64092 0.0
H140 H 0.69043 0.40707 0.51678 0.0
H141 H 0.61005 0.42433 0.57749 0.0
H142 H 0.65354 0.64828 0.5126 0.0
H143 H 0.72915 0.62701 0.45083 0.0
C144 C 0.45556 0.57909 0.59514 0.0
C145 C 0.44476 0.55117 0.64112 0.0
C146 C 0.51092 0.57222 0.56538 0.0
C147 C 0.55914 0.53926 0.58105 0.0
C148 C 0.54633 0.50932 0.62697 0.0
C149 C 0.4901 0.51536 0.65652 0.0
C150 C 0.68618 0.46195 0.51688 0.0
C151 C 0.71658 0.51541 0.47885 0.0
C152 C 0.63866 0.47151 0.55145 0.0
C153 C 0.62167 0.53618 0.54943 0.0
C154 C 0.66172 0.59567 0.51471 0.0
C155 C 0.70808 0.58524 0.47997 0.0
H156 H 0.87098 0.29278 0.14884 0.0
H157 H 0.91881 0.53997 0.13039 0.0
H158 H 0.97968 0.31755 0.09734 0.0
H159 H 0.02798 0.56363 0.07521 0.0
H160 H 0.25307 0.60754 1.00231 0.0
H161 H 0.15959 0.5822 0.0653 0.0
H162 H 0.01961 0.33088 1.02064 0.0
H163 H 0.11959 0.35703 0.95986 0.0
C164 C 0.90366 0.35282 0.13333 0.0
C165 C 0.88443 0.41444 0.14431 0.0
C166 C 0.96676 0.36662 0.10304 0.0
C167 C 0.01336 0.44229 0.08141 0.0
C168 C -0.00562 0.50448 0.09163 0.0
C169 C 0.93096 0.49087 0.12291 0.0
C170 C 0.20813 0.54533 1.00898 0.0
C171 C 0.199 0.48359 0.97793 0.0
C172 C 0.15076 0.53133 1.04374 0.0
C173 C 0.0803 0.45475 1.04817 0.0
C174 C 0.07328 0.39084 1.01916 0.0
C175 C 0.13178 0.40516 0.98462 0.0
H176 H 0.53809 0.95517 0.64667 0.0
H177 H 0.28065 0.82808 0.61698 0.0
H178 H 0.55633 0.06544 0.59405 0.0
H179 H 0.29662 0.93853 0.56951 0.0
H180 H 0.35243 0.1053 0.44596 0.0
H181 H 0.33035 0.003 0.50258 0.0
H182 H 0.54365 0.17937 0.57794 0.0
H183 H 0.56692 0.28086 0.51846 0.0
C184 C 0.48566 0.94997 0.62861 0.0
C185 C 0.40802 0.88171 0.63622 0.0
C186 C 0.49556 0.01433 0.59912 0.0
C187 C 0.42795 0.01273 0.57693 0.0
C188 C 0.35116 0.94328 0.58431 0.0
C189 C 0.34178 0.87909 0.61242 0.0
C190 C 0.39183 0.12392 0.47614 0.0
C191 C 0.4612 0.20215 0.47751 0.0
C192 C 0.38022 0.06407 0.50875 0.0
C193 C 0.43611 0.08072 0.54531 0.0
C194 C 0.50027 0.16218 0.54986 0.0
C195 C 0.51236 0.22183 0.51649 0.0
H196 H 0.69668 0.56312 0.13612 0.0
H197 H 0.44041 0.38268 0.13327 0.0
H198 H 0.67445 0.64896 0.08481 0.0
H199 H 0.41876 0.46812 0.07764 0.0
H200 H 0.3815 0.65014 1.00376 0.0
H201 H 0.40883 0.58292 0.06539 0.0
H202 H 0.65303 0.67934 1.01194 0.0
H203 H 0.62568 0.75471 0.95313 0.0
C204 C 0.63496 0.54034 0.12407 0.0
C205 C 0.57007 0.46474 0.13983 0.0
C206 C 0.62252 0.59049 0.09372 0.0
C207 C 0.54482 0.56714 0.07647 0.0
C208 C 0.47966 0.49009 0.09073 0.0
C209 C 0.49201 0.43988 0.1222 0.0
C210 C 0.44333 0.66537 1.00821 0.0
C211 C 0.50248 0.71487 0.9753 0.0
C212 C 0.4582 0.62171 1.04224 0.0
C213 C 0.53283 0.62307 1.04393 0.0
C214 C 0.59461 0.67648 1.01286 0.0
C215 C 0.57963 0.72167 0.9793 0.0
H216 H 0.69432 0.28393 0.52012 0.0
H217 H 0.87012 0.24584 0.4464 0.0
H218 H 0.79543 0.36132 0.58002 0.0
H219 H 0.97192 0.32513 0.50346 0.0
H220 H 0.1457 0.4486 0.61835 0.0
H221 H 0.0355 0.35439 0.57063 0.0
H222 H 0.90904 0.48831 0.59611 0.0
H223 H 0.019 0.57996 0.64907 0.0
C224 C 0.75339 0.28855 0.51791 0.0
C225 C 0.77347 0.25789 0.47847 0.0
C226 C 0.81271 0.3355 0.55155 0.0
C227 C 0.89401 0.35273 0.54675 0.0
C228 C 0.91091 0.31391 0.50976 0.0
C229 C 0.8514 0.26625 0.4769 0.0
C230 C 0.0948 0.45896 0.61397 0.0
C231 C 0.09206 0.52265 0.63813 0.0
C232 C 0.03082 0.40438 0.58572 0.0
C233 C 0.96164 0.4122 0.57856 0.0
C234 C 0.95999 0.47836 0.60107 0.0
C235 C 0.02412 0.53256 0.63073 0.0
H236 H 0.54881 0.95056 0.34941 0.0
H237 H 0.7601 0.05518 0.25945 0.0
H238 H 0.5469 0.82097 0.34816 0.0
H239 H 0.75961 0.92624 0.25936 0.0
H240 H 0.68299 0.66096 0.23016 0.0
H241 H 0.68181 0.78918 0.23016 0.0
H242 H 0.6233 0.76049 0.37675 0.0
H243 H 0.62205 0.63118 0.37641 0.0
C244 C 0.59531 0.9461 0.32974 0.0
C245 C 0.65462 0.01297 0.30454 0.0
C246 C 0.59435 0.87193 0.32915 0.0
C247 C 0.65315 0.86344 0.30371 0.0
C248 C 0.71268 0.93051 0.27868 0.0
C249 C 0.71319 0.00447 0.27891 0.0
C250 C 0.67008 0.68223 0.26237 0.0
C251 C 0.65262 0.63627 0.30328 0.0
C252 C 0.66966 0.75574 0.26242 0.0
C253 C 0.65261 0.78498 0.30347 0.0
C254 C 0.63534 0.73891 0.34439 0.0
C255 C 0.63493 0.66503 0.34424 0.0
H256 H 0.0117 0.69039 0.72764 0.0
H257 H 0.98264 0.63671 0.87465 0.0
H258 H 0.88076 0.68501 0.72648 0.0
H259 H 0.85279 0.63381 0.87375 0.0
H260 H 0.58642 0.55126 0.84546 0.0
H261 H 0.71577 0.55292 0.84558 0.0
H262 H 0.81782 0.7604 0.75314 0.0
H263 H 0.68833 0.75745 0.75191 0.0
C264 C 0.97781 0.67841 0.75983 0.0
C265 C 0.00755 0.66414 0.80126 0.0
C266 C 0.90283 0.6755 0.75918 0.0
C267 C 0.85636 0.65903 0.80003 0.0
C268 C 0.88645 0.64529 0.84153 0.0
C269 C 0.9611 0.64746 0.84209 0.0
C270 C 0.63646 0.59721 0.82515 0.0
C271 C 0.62702 0.65415 0.79865 0.0
C272 C 0.7107 0.59838 0.8254 0.0
C273 C 0.77712 0.65686 0.79941 0.0
C274 C 0.76751 0.71371 0.77292 0.0
C275 C 0.69323 0.71218 0.7724 0.0
H276 H 0.31843 0.01888 0.22962 0.0
H277 H 0.3478 -0.00729 0.37631 0.0
H278 H 0.19017 0.88995 0.23014 0.0
H279 H 0.21855 0.86535 0.37718 0.0
H280 H 0.02759 0.59989 0.35204 0.0
H281 H 0.15693 0.72736 0.35062 0.0
H282 H 0.05345 0.83126 0.2583 0.0
H283 H 0.92497 0.70304 0.25854 0.0
C284 C 0.29709 0.98594 0.26204 0.0
C285 C 0.34307 0.01578 0.3029 0.0
C286 C 0.22352 0.91226 0.26244 0.0
C287 C 0.19405 0.86742 0.30376 0.0
C288 C 0.2401 0.89759 0.34464 0.0
C289 C 0.31406 0.97081 0.34414 0.0
C290 C 0.03237 0.65006 0.33155 0.0
C291 C 0.96611 0.64141 0.30538 0.0
C292 C 0.10639 0.72322 0.33085 0.0
C293 C 0.1155 0.78953 0.30433 0.0
C294 C 0.04894 0.78098 0.27842 0.0
C295 C 0.97513 0.70755 0.27877 0.0
H296 H 0.20742 0.27716 0.75701 0.0
H297 H 0.42052 0.38721 0.84505 0.0
H298 H 0.21022 0.14965 0.75684 0.0
H299 H 0.42467 0.26086 0.84376 0.0
H300 H 0.35566 -0.00244 0.87217 0.0
H301 H 0.35137 0.12412 0.87285 0.0
H302 H 0.28986 0.09259 0.72681 0.0
H303 H 0.29179 0.96481 0.72648 0.0
C304 C 0.25509 0.27424 0.77606 0.0
C305 C 0.3135 0.34193 0.80119 0.0
C306 C 0.25695 0.2014 0.7758 0.0
C307 C 0.3177 0.19524 0.80029 0.0
C308 C 0.37626 0.2632 0.82522 0.0
C309 C 0.37397 0.33568 0.82584 0.0
C310 C 0.34163 0.01793 0.84018 0.0
C311 C 0.32386 0.97135 0.79932 0.0
C312 C 0.33936 0.09049 0.84053 0.0
C313 C 0.32013 0.11825 0.79989 0.0
C314 C 0.30337 0.07203 0.75888 0.0
C315 C 0.30486 -0.00093 0.75865 0.0
H316 H 0.2768 0.22142 0.25648 0.0
H317 H 0.38157 0.42992 0.34896 0.0
H318 H 0.14821 0.22125 0.25769 0.0
H319 H 0.25402 0.43135 0.34898 0.0
H320 H -0.01025 0.3574 0.37791 0.0
H321 H 0.11757 0.35592 0.37734 0.0
H322 H 0.08755 0.29791 0.23066 0.0
H323 H 0.95868 0.29682 0.2316 0.0
C324 C 0.2726 0.26763 0.27674 0.0
C325 C 0.33923 0.32551 0.30273 0.0
C326 C 0.19902 0.26778 0.27728 0.0
C327 C 0.19082 0.3263 0.30345 0.0
C328 C 0.25778 0.38453 0.32914 0.0
C329 C 0.33105 0.3839 0.32895 0.0
C330 C 0.01063 0.34451 0.34555 0.0
C331 C 0.96414 0.32691 0.30486 0.0
C332 C 0.084 0.34396 0.34516 0.0
C333 C 0.11276 0.32671 0.30395 0.0
C334 C 0.06644 0.3099 0.26317 0.0
C335 C -0.00729 0.30959 0.26367 0.0
H336 H 0.94123 0.39063 0.84604 0.0
H337 H 0.05265 0.286 0.7591 0.0
H338 H 0.81359 0.26083 0.84471 0.0
H339 H 0.92626 0.15636 0.75882 0.0
H340 H 0.62769 -0.00554 0.87268 0.0
H341 H 0.75491 0.12355 0.87366 0.0
H342 H 0.79055 0.09392 0.72795 0.0
H343 H 0.66398 0.96332 0.72721 0.0
C344 C 0.93869 0.33987 0.82697 0.0
C345 C 0.00688 0.34875 0.80252 0.0
C346 C 0.8657 0.26545 0.82632 0.0
C347 C 0.85978 0.19837 0.80152 0.0
C348 C 0.92832 0.20723 0.77749 0.0
C349 C 0.00093 0.2816 0.77786 0.0
C350 C 0.66257 0.01537 0.84079 0.0
C351 C 0.63572 0.96863 0.79981 0.0
C352 C 0.73532 0.08967 0.84134 0.0
C353 C 0.78263 0.11919 0.80087 0.0
C354 C 0.75597 0.0723 0.7599 0.0
C355 C 0.68337 -0.00243 0.75942 0.0
loop_
_geom_bond_atom_site_label_1
_geom_bond_atom_site_label_2
_geom_bond_distance
_geom_bond_site_symmetry_2
_ccdc_geom_bond_type
H0 O1 0.850 . S
O1 H0 0.850 . S
O1 Tb2 2.341 . S
O1 Tb3 2.341 . S
O1 Tb4 2.341 . S
Tb2 O1 2.341 . S
Tb2 O5 2.341 . S
Tb2 O6 2.341 . S
Tb2 O7 2.341 . S
Tb2 O22 2.344 . S
Tb2 O25 2.344 . S
Tb2 O38 2.344 . S
Tb2 O41 2.344 . S
Tb3 O1 2.341 . S
Tb3 O5 2.341 . S
Tb3 O8 2.341 . S
Tb3 O10 2.341 . S
Tb3 O26 2.344 . S
Tb3 O29 2.344 . S
Tb3 O34 2.344 . S
Tb3 O37 2.344 . S
Tb4 O1 2.341 . S
Tb4 O6 2.341 . S
Tb4 O9 2.341 . S
Tb4 O10 2.341 . S
Tb4 O30 2.344 . S
Tb4 O33 2.344 . S
Tb4 O43 2.344 . S
Tb4 O44 2.344 . S
O5 Tb2 2.341 . S
O5 Tb3 2.341 . S
O5 H11 0.850 . S
O5 Tb13 2.341 . S
O6 Tb2 2.341 . S
O6 Tb4 2.341 . S
O6 H12 0.850 . S
O6 Tb14 2.341 . S
O7 Tb2 2.341 . S
O7 Tb13 2.341 . S
O7 Tb14 2.341 . S
O7 H15 0.850 . S
O8 Tb3 2.341 . S
O8 Tb13 2.341 . S
O8 H16 0.850 . S
O8 Tb17 2.341 . S
O9 Tb4 2.341 . S
O9 Tb14 2.341 . S
O9 Tb17 2.341 . S
O9 H18 0.850 . S
O10 Tb3 2.341 . S
O10 Tb4 2.341 . S
O10 Tb17 2.341 . S
O10 H19 0.850 . S
H11 O5 0.850 . S
H12 O6 0.850 . S
Tb13 O5 2.341 . S
Tb13 O7 2.341 . S
Tb13 O8 2.341 . S
Tb13 O20 2.341 . S
Tb13 O31 2.344 . S
Tb13 O32 2.344 . S
Tb13 O42 2.344 . S
Tb13 O45 2.344 . S
Tb14 O6 2.341 . S
Tb14 O7 2.341 . S
Tb14 O9 2.341 . S
Tb14 O20 2.341 . S
Tb14 O27 2.344 . S
Tb14 O28 2.344 . S
Tb14 O35 2.344 . S
Tb14 O36 2.344 . S
H15 O7 0.850 . S
H16 O8 0.850 . S
Tb17 O8 2.341 . S
Tb17 O9 2.341 . S
Tb17 O10 2.341 . S
Tb17 O20 2.341 . S
Tb17 O23 2.344 . S
Tb17 O24 2.344 . S
Tb17 O39 2.344 . S
Tb17 O40 2.344 . S
H18 O9 0.850 . S
H19 O10 0.850 . S
O20 Tb13 2.341 . S
O20 Tb14 2.341 . S
O20 Tb17 2.341 . S
O20 H21 0.850 . S
H21 O20 0.850 . S
O22 Tb2 2.344 . S
O22 C46 1.272 . S
O23 Tb17 2.344 . S
O23 C47 1.272 . S
O24 Tb17 2.344 . S
O24 C48 1.272 . S
O25 Tb2 2.344 . S
O25 C49 1.272 . S
O26 Tb3 2.344 . S
O26 C50 1.272 . S
O27 Tb14 2.344 . S
O27 C51 1.272 . S
O28 Tb14 2.344 . S
O28 C52 1.272 . S
O29 Tb3 2.344 . S
O29 C53 1.272 . S
O30 Tb4 2.344 . S
O30 C54 1.272 . S
O31 Tb13 2.344 . S
O31 C55 1.272 . S
O32 Tb13 2.344 . S
O32 C56 1.272 . S
O33 Tb4 2.344 . S
O33 C57 1.272 . S
O34 Tb3 2.344 . S
O34 C46 1.272 . S
O35 Tb14 2.344 . S
O35 C47 1.272 . S
O36 Tb14 2.344 . S
O36 C49 1.272 . S
O37 Tb3 2.344 . S
O37 C48 1.272 . S
O38 Tb2 2.344 . S
O38 C56 1.272 . S
O39 Tb17 2.344 . S
O39 C57 1.272 . S
O40 Tb17 2.344 . S
O40 C55 1.272 . S
O41 Tb2 2.344 . S
O41 C54 1.272 . S
O42 Tb13 2.344 . S
O42 C53 1.272 . S
O43 Tb4 2.344 . S
O43 C52 1.272 . S
O44 Tb4 2.344 . S
O44 C50 1.272 . S
O45 Tb13 2.344 . S
O45 C51 1.272 . S
C46 O22 1.272 . S
C46 O34 1.272 . S
C47 O23 1.272 . S
C47 O35 1.272 . S
C48 O24 1.272 . S
C48 O37 1.272 . S
C49 O25 1.272 . S
C49 O36 1.272 . S
C50 O26 1.272 . S
C50 O44 1.272 . S
C51 O27 1.272 . S
C51 O45 1.272 . S
C52 O28 1.272 . S
C52 O43 1.272 . S
C53 O29 1.272 . S
C53 O42 1.272 . S
C54 O30 1.272 . S
C54 O41 1.272 . S
C55 O31 1.272 . S
C55 O40 1.272 . S
C56 O32 1.272 . S
C56 O38 1.272 . S
C57 O33 1.272 . S
C57 O39 1.272 . S
H58 O59 0.850 . S
O59 H58 0.850 . S
O59 Tb60 2.341 . S
O59 Tb61 2.341 . S
O59 Tb62 2.341 . S
Tb60 O59 2.341 . S
Tb60 O63 2.341 . S
Tb60 O64 2.341 . S
Tb60 O65 2.341 . S
Tb60 O80 2.344 . S
Tb60 O83 2.344 . S
Tb60 O96 2.344 . S
Tb60 O99 2.344 . S
Tb61 O59 2.341 . S
Tb61 O63 2.341 . S
Tb61 O66 2.341 . S
Tb61 O68 2.341 . S
Tb61 O84 2.344 . S
Tb61 O87 2.344 . S
Tb61 O92 2.344 . S
Tb61 O95 2.344 . S
Tb62 O59 2.341 . S
Tb62 O64 2.341 . S
Tb62 O67 2.341 . S
Tb62 O68 2.341 . S
Tb62 O88 2.344 . S
Tb62 O91 2.344 . S
Tb62 O101 2.344 . S
Tb62 O102 2.344 . S
O63 Tb60 2.341 . S
O63 Tb61 2.341 . S
O63 H69 0.850 . S
O63 Tb71 2.341 . S
O64 Tb60 2.341 . S
O64 Tb62 2.341 . S
O64 H70 0.850 . S
O64 Tb72 2.341 . S
O65 Tb60 2.341 . S
O65 Tb71 2.341 . S
O65 Tb72 2.341 . S
O65 H73 0.850 . S
O66 Tb61 2.341 . S
O66 Tb71 2.341 . S
O66 H74 0.850 . S
O66 Tb75 2.341 . S
O67 Tb62 2.341 . S
O67 Tb72 2.341 . S
O67 Tb75 2.341 . S
O67 H76 0.850 . S
O68 Tb61 2.341 . S
O68 Tb62 2.341 . S
O68 Tb75 2.341 . S
O68 H77 0.850 . S
H69 O63 0.850 . S
H70 O64 0.850 . S
Tb71 O63 2.341 . S
Tb71 O65 2.341 . S
Tb71 O66 2.341 . S
Tb71 O78 2.341 . S
Tb71 O89 2.344 . S
Tb71 O90 2.344 . S
Tb71 O100 2.344 . S
Tb71 O103 2.344 . S
Tb72 O64 2.341 . S
Tb72 O65 2.341 . S
Tb72 O67 2.341 . S
Tb72 O78 2.341 . S
Tb72 O85 2.344 . S
Tb72 O86 2.344 . S
Tb72 O93 2.344 . S
Tb72 O94 2.344 . S
H73 O65 0.850 . S
H74 O66 0.850 . S
Tb75 O66 2.341 . S
Tb75 O67 2.341 . S
Tb75 O68 2.341 . S
Tb75 O78 2.341 . S
Tb75 O81 2.344 . S
Tb75 O82 2.344 . S
Tb75 O97 2.344 . S
Tb75 O98 2.344 . S
H76 O67 0.850 . S
H77 O68 0.850 . S
O78 Tb71 2.341 . S
O78 Tb72 2.341 . S
O78 Tb75 2.341 . S
O78 H79 0.850 . S
H79 O78 0.850 . S
O80 Tb60 2.344 . S
O80 C104 1.272 . S
O81 Tb75 2.344 . S
O81 C105 1.272 . S
O82 Tb75 2.344 . S
O82 C106 1.272 . S
O83 Tb60 2.344 . S
O83 C107 1.272 . S
O84 Tb61 2.344 . S
O84 C108 1.272 . S
O85 Tb72 2.344 . S
O85 C109 1.272 . S
O86 Tb72 2.344 . S
O86 C110 1.272 . S
O87 Tb61 2.344 . S
O87 C111 1.272 . S
O88 Tb62 2.344 . S
O88 C112 1.272 . S
O89 Tb71 2.344 . S
O89 C113 1.272 . S
O90 Tb71 2.344 . S
O90 C114 1.272 . S
O91 Tb62 2.344 . S
O91 C115 1.272 . S
O92 Tb61 2.344 . S
O92 C104 1.272 . S
O93 Tb72 2.344 . S
O93 C105 1.272 . S
O94 Tb72 2.344 . S
O94 C107 1.272 . S
O95 Tb61 2.344 . S
O95 C106 1.272 . S
O96 Tb60 2.344 . S
O96 C114 1.272 . S
O97 Tb75 2.344 . S
O97 C115 1.272 . S
O98 Tb75 2.344 . S
O98 C113 1.272 . S
O99 Tb60 2.344 . S
O99 C112 1.272 . S
O100 Tb71 2.344 . S
O100 C111 1.272 . S
O101 Tb62 2.344 . S
O101 C110 1.272 . S
O102 Tb62 2.344 . S
O102 C108 1.272 . S
O103 Tb71 2.344 . S
O103 C109 1.272 . S
C104 O80 1.272 . S
C104 O92 1.272 . S
C105 O81 1.272 . S
C105 O93 1.272 . S
C106 O82 1.272 . S
C106 O95 1.272 . S
C107 O83 1.272 . S
C107 O94 1.272 . S
C108 O84 1.272 . S
C108 O102 1.272 . S
C109 O85 1.272 . S
C109 O103 1.272 . S
C110 O86 1.272 . S
C110 O101 1.272 . S
C111 O87 1.272 . S
C111 O100 1.272 . S
C112 O88 1.272 . S
C112 O99 1.272 . S
C113 O89 1.272 . S
C113 O98 1.272 . S
C114 O90 1.272 . S
C114 O96 1.272 . S
C115 O91 1.272 . S
C115 O97 1.272 . S
H116 C124 0.950 . S
H117 C129 0.950 . S
H118 C126 0.950 . S
H119 C128 0.950 1_554 S
H120 C130 0.950 . S
H121 C132 0.950 . S
H122 C134 0.950 1_556 S
H123 C135 0.950 . S
C124 H116 0.950 . S
C124 C125 1.386 . S
C124 C126 1.391 . S
C125 C124 1.386 . S
C125 C129 1.393 . S
C126 H118 0.950 . S
C126 C124 1.391 . S
C126 C127 1.400 . S
C127 C126 1.400 . S
C127 C128 1.398 . S
C127 C133 1.491 1_556 S
C128 H119 0.950 1_556 S
C128 C127 1.398 . S
C128 C129 1.391 . S
C129 H117 0.950 . S
C129 C125 1.393 . S
C129 C128 1.391 . S
C130 H120 0.950 . S
C130 C131 1.386 . S
C130 C132 1.391 1_545 S
C131 C130 1.386 . S
C131 C135 1.393 . S
C132 H121 0.950 . S
C132 C130 1.391 1_565 S
C132 C133 1.400 . S
C133 C127 1.491 1_554 S
C133 C132 1.400 . S
C133 C134 1.398 1_565 S
C134 H122 0.950 1_554 S
C134 C133 1.398 1_545 S
C134 C135 1.391 . S
C135 H123 0.950 . S
C135 C131 1.393 . S
C135 C134 1.391 . S
H136 C144 0.950 . S
H137 C149 0.950 . S
H138 C146 0.950 . S
H139 C148 0.950 . S
H140 C150 0.950 . S
H141 C152 0.950 . S
H142 C154 0.950 . S
H143 C155 0.950 . S
C144 H136 0.950 . S
C144 C145 1.386 . S
C144 C146 1.391 . S
C145 C144 1.386 . S
C145 C149 1.393 . S
C146 H138 0.950 . S
C146 C144 1.391 . S
C146 C147 1.400 . S
C147 C146 1.400 . S
C147 C148 1.398 . S
C147 C153 1.491 . S
C148 H139 0.950 . S
C148 C147 1.398 . S
C148 C149 1.391 . S
C149 H137 0.950 . S
C149 C145 1.393 . S
C149 C148 1.391 . S
C150 H140 0.950 . S
C150 C151 1.386 . S
C150 C152 1.391 . S
C151 C150 1.386 . S
C151 C155 1.393 . S
C152 H141 0.950 . S
C152 C150 1.391 . S
C152 C153 1.400 . S
C153 C147 1.491 . S
C153 C152 1.400 . S
C153 C154 1.398 . S
C154 H142 0.950 . S
C154 C153 1.398 . S
C154 C155 1.391 . S
C155 H143 0.950 . S
C155 C151 1.393 . S
C155 C154 1.391 . S
H156 C164 0.950 . S
H157 C169 0.950 . S
H158 C166 0.951 1_455 S
H159 C168 0.950 1_556 S
H160 C170 0.950 . S
H161 C172 0.950 . S
H162 C174 0.950 1_554 S
H163 C175 0.950 . S
C164 H156 0.950 . S
C164 C165 1.386 . S
C164 C166 1.390 . S
C165 C164 1.386 . S
C165 C169 1.393 . S
C166 H158 0.951 1_655 S
C166 C164 1.390 . S
C166 C167 1.400 1_655 S
C167 C166 1.400 1_455 S
C167 C168 1.398 1_455 S
C167 C173 1.491 1_554 S
C168 H159 0.950 1_554 S
C168 C167 1.398 1_655 S
C168 C169 1.391 . S
C169 H157 0.950 . S
C169 C165 1.393 . S
C169 C168 1.391 . S
C170 H160 0.950 . S
C170 C171 1.386 . S
C170 C172 1.391 . S
C171 C170 1.386 . S
C171 C175 1.393 . S
C172 H161 0.950 . S
C172 C170 1.391 . S
C172 C173 1.400 . S
C173 C167 1.491 1_556 S
C173 C172 1.400 . S
C173 C174 1.398 . S
C174 H162 0.950 1_556 S
C174 C173 1.398 . S
C174 C175 1.391 . S
C175 H163 0.950 . S
C175 C171 1.393 . S
C175 C174 1.391 . S
H176 C184 0.950 . S
H177 C189 0.950 . S
H178 C186 0.950 . S
H179 C188 0.950 . S
H180 C190 0.950 . S
H181 C192 0.950 . S
H182 C194 0.950 . S
H183 C195 0.950 . S
C184 H176 0.950 . S
C184 C185 1.386 . S
C184 C186 1.391 1_565 S
C185 C184 1.386 . S
C185 C189 1.393 . S
C186 H178 0.950 . S
C186 C184 1.391 1_545 S
C186 C187 1.400 . S
C187 C186 1.400 . S
C187 C188 1.398 1_545 S
C187 C193 1.491 . S
C188 H179 0.950 . S
C188 C187 1.398 1_565 S
C188 C189 1.391 . S
C189 H177 0.950 . S
C189 C185 1.393 . S
C189 C188 1.391 . S
C190 H180 0.950 . S
C190 C191 1.386 . S
C190 C192 1.391 . S
C191 C190 1.386 . S
C191 C195 1.393 . S
C192 H181 0.950 . S
C192 C190 1.391 . S
C192 C193 1.400 . S
C193 C187 1.491 . S
C193 C192 1.400 . S
C193 C194 1.398 . S
C194 H182 0.950 . S
C194 C193 1.398 . S
C194 C195 1.391 . S
C195 H183 0.950 . S
C195 C191 1.393 . S
C195 C194 1.391 . S
H196 C204 0.950 . S
H197 C209 0.950 . S
H198 C206 0.950 . S
H199 C208 0.950 1_556 S
H200 C210 0.950 . S
H201 C212 0.950 . S
H202 C214 0.950 1_554 S
H203 C215 0.950 . S
C204 H196 0.950 . S
C204 C205 1.386 . S
C204 C206 1.391 . S
C205 C204 1.386 . S
C205 C209 1.393 . S
C206 H198 0.950 . S
C206 C204 1.391 . S
C206 C207 1.400 . S
C207 C206 1.400 . S
C207 C208 1.398 . S
C207 C213 1.491 1_554 S
C208 H199 0.950 1_554 S
C208 C207 1.398 . S
C208 C209 1.391 . S
C209 H197 0.950 . S
C209 C205 1.393 . S
C209 C208 1.391 . S
C210 H200 0.950 . S
C210 C211 1.386 . S
C210 C212 1.391 . S
C211 C210 1.386 . S
C211 C215 1.393 . S
C212 H201 0.950 . S
C212 C210 1.391 . S
C212 C213 1.400 . S
C213 C207 1.491 1_556 S
C213 C212 1.400 . S
C213 C214 1.398 . S
C214 H202 0.950 1_556 S
C214 C213 1.398 . S
C214 C215 1.391 . S
C215 H203 0.950 . S
C215 C211 1.393 . S
C215 C214 1.391 . S
H216 C224 0.950 . S
H217 C229 0.950 . S
H218 C226 0.950 . S
H219 C228 0.950 1_455 S
H220 C230 0.950 . S
H221 C232 0.950 . S
H222 C234 0.950 . S
H223 C235 0.950 . S
C224 H216 0.950 . S
C224 C225 1.386 . S
C224 C226 1.391 . S
C225 C224 1.386 . S
C225 C229 1.393 . S
C226 H218 0.950 . S
C226 C224 1.391 . S
C226 C227 1.400 . S
C227 C226 1.400 . S
C227 C228 1.398 . S
C227 C233 1.491 . S
C228 H219 0.950 1_655 S
C228 C227 1.398 . S
C228 C229 1.391 . S
C229 H217 0.950 . S
C229 C225 1.393 . S
C229 C228 1.391 . S
C230 H220 0.950 . S
C230 C231 1.386 . S
C230 C232 1.391 . S
C231 C230 1.386 . S
C231 C235 1.393 . S
C232 H221 0.950 . S
C232 C230 1.391 . S
C232 C233 1.400 1_455 S
C233 C227 1.491 . S
C233 C232 1.400 1_655 S
C233 C234 1.398 . S
C234 H222 0.950 . S
C234 C233 1.398 . S
C234 C235 1.391 1_655 S
C235 H223 0.950 . S
C235 C231 1.393 . S
C235 C234 1.391 1_455 S
H236 C244 0.950 . S
H237 C249 0.950 . S
H238 C246 0.950 . S
H239 C248 0.950 . S
H240 C250 0.950 . S
H241 C252 0.950 . S
H242 C254 0.950 . S
H243 C255 0.950 . S
C244 H236 0.950 . S
C244 C245 1.386 . S
C244 C246 1.391 1_545 S
C245 C244 1.386 . S
C245 C249 1.393 1_545 S
C246 H238 0.950 . S
C246 C244 1.391 1_565 S
C246 C247 1.400 . S
C247 C246 1.400 . S
C247 C248 1.398 . S
C247 C253 1.491 . S
C248 H239 0.950 . S
C248 C247 1.398 . S
C248 C249 1.391 . S
C249 H237 0.950 . S
C249 C245 1.393 1_565 S
C249 C248 1.391 . S
C250 H240 0.950 . S
C250 C251 1.386 . S
C250 C252 1.391 . S
C251 C250 1.386 . S
C251 C255 1.393 . S
C252 H241 0.950 . S
C252 C250 1.391 . S
C252 C253 1.400 . S
C253 C247 1.491 . S
C253 C252 1.400 . S
C253 C254 1.398 . S
C254 H242 0.950 . S
C254 C253 1.398 . S
C254 C255 1.391 . S
C255 H243 0.950 . S
C255 C251 1.393 . S
C255 C254 1.391 . S
H256 C264 0.950 . S
H257 C269 0.950 . S
H258 C266 0.950 . S
H259 C268 0.950 . S
H260 C270 0.950 . S
H261 C272 0.950 . S
H262 C274 0.950 . S
H263 C275 0.950 . S
C264 H256 0.950 . S
C264 C265 1.386 . S
C264 C266 1.391 1_455 S
C265 C264 1.386 . S
C265 C269 1.393 1_455 S
C266 H258 0.950 . S
C266 C264 1.391 1_655 S
C266 C267 1.400 . S
C267 C266 1.400 . S
C267 C268 1.398 . S
C267 C273 1.491 . S
C268 H259 0.950 . S
C268 C267 1.398 . S
C268 C269 1.391 . S
C269 H257 0.950 . S
C269 C265 1.393 1_655 S
C269 C268 1.391 . S
C270 H260 0.950 . S
C270 C271 1.386 . S
C270 C272 1.391 . S
C271 C270 1.386 . S
C271 C275 1.393 . S
C272 H261 0.950 . S
C272 C270 1.391 . S
C272 C273 1.400 . S
C273 C267 1.491 . S
C273 C272 1.400 . S
C273 C274 1.398 . S
C274 H262 0.950 . S
C274 C273 1.398 . S
C274 C275 1.391 . S
C275 H263 0.950 . S
C275 C271 1.393 . S
C275 C274 1.391 . S
H276 C284 0.950 . S
H277 C289 0.950 . S
H278 C286 0.950 . S
H279 C288 0.950 . S
H280 C290 0.950 . S
H281 C292 0.950 . S
H282 C294 0.950 . S
H283 C295 0.950 . S
C284 H276 0.950 . S
C284 C285 1.386 1_565 S
C284 C286 1.391 . S
C285 C284 1.386 1_545 S
C285 C289 1.393 . S
C286 H278 0.950 . S
C286 C284 1.391 . S
C286 C287 1.400 . S
C287 C286 1.400 . S
C287 C288 1.398 . S
C287 C293 1.491 . S
C288 H279 0.950 . S
C288 C287 1.398 . S
C288 C289 1.391 1_565 S
C289 H277 0.950 . S
C289 C285 1.393 . S
C289 C288 1.391 1_545 S
C290 H280 0.950 . S
C290 C291 1.386 . S
C290 C292 1.391 1_655 S
C291 C290 1.386 . S
C291 C295 1.393 1_655 S
C292 H281 0.950 . S
C292 C290 1.391 1_455 S
C292 C293 1.400 . S
C293 C287 1.491 . S
C293 C292 1.400 . S
C293 C294 1.398 . S
C294 H282 0.950 . S
C294 C293 1.398 . S
C294 C295 1.391 . S
C295 H283 0.950 . S
C295 C291 1.393 1_455 S
C295 C294 1.391 . S
H296 C304 0.950 . S
H297 C309 0.950 . S
H298 C306 0.950 . S
H299 C308 0.950 . S
H300 C310 0.950 . S
H301 C312 0.950 . S
H302 C314 0.950 . S
H303 C315 0.950 . S
C304 H296 0.950 . S
C304 C305 1.386 . S
C304 C306 1.391 . S
C305 C304 1.386 . S
C305 C309 1.393 . S
C306 H298 0.950 . S
C306 C304 1.391 . S
C306 C307 1.400 . S
C307 C306 1.400 . S
C307 C308 1.398 . S
C307 C313 1.491 . S
C308 H299 0.950 . S
C308 C307 1.398 . S
C308 C309 1.391 . S
C309 H297 0.950 . S
C309 C305 1.393 . S
C309 C308 1.391 . S
C310 H300 0.950 . S
C310 C311 1.386 1_545 S
C310 C312 1.391 . S
C311 C310 1.386 1_565 S
C311 C315 1.393 . S
C312 H301 0.950 . S
C312 C310 1.391 . S
C312 C313 1.400 . S
C313 C307 1.491 . S
C313 C312 1.400 . S
C313 C314 1.398 . S
C314 H302 0.950 . S
C314 C313 1.398 . S
C314 C315 1.391 1_545 S
C315 H303 0.950 . S
C315 C311 1.393 . S
C315 C314 1.391 1_565 S
H316 C324 0.950 . S
H317 C329 0.950 . S
H318 C326 0.950 . S
H319 C328 0.950 . S
H320 C330 0.950 . S
H321 C332 0.950 . S
H322 C334 0.950 . S
H323 C335 0.950 . S
C324 H316 0.950 . S
C324 C325 1.386 . S
C324 C326 1.391 . S
C325 C324 1.386 . S
C325 C329 1.393 . S
C326 H318 0.950 . S
C326 C324 1.391 . S
C326 C327 1.400 . S
C327 C326 1.400 . S
C327 C328 1.398 . S
C327 C333 1.491 . S
C328 H319 0.950 . S
C328 C327 1.398 . S
C328 C329 1.391 . S
C329 H317 0.950 . S
C329 C325 1.393 . S
C329 C328 1.391 . S
C330 H320 0.950 . S
C330 C331 1.386 1_455 S
C330 C332 1.391 . S
C331 C330 1.386 1_655 S
C331 C335 1.393 . S
C332 H321 0.950 . S
C332 C330 1.391 . S
C332 C333 1.400 . S
C333 C327 1.491 . S
C333 C332 1.400 . S
C333 C334 1.398 . S
C334 H322 0.950 . S
C334 C333 1.398 . S
C334 C335 1.391 1_455 S
C335 H323 0.950 . S
C335 C331 1.393 . S
C335 C334 1.391 1_655 S
H336 C344 0.950 . S
H337 C349 0.950 . S
H338 C346 0.950 . S
H339 C348 0.950 . S
H340 C350 0.950 . S
H341 C352 0.950 . S
H342 C354 0.950 . S
H343 C355 0.950 . S
C344 H336 0.950 . S
C344 C345 1.386 1_655 S
C344 C346 1.391 . S
C345 C344 1.386 1_455 S
C345 C349 1.393 . S
C346 H338 0.950 . S
C346 C344 1.391 . S
C346 C347 1.400 . S
C347 C346 1.400 . S
C347 C348 1.398 . S
C347 C353 1.491 . S
C348 H339 0.950 . S
C348 C347 1.398 . S
C348 C349 1.391 1_655 S
C349 H337 0.950 . S
C349 C345 1.393 . S
C349 C348 1.391 1_455 S
C350 H340 0.950 . S
C350 C351 1.386 . S
C350 C352 1.391 1_565 S
C351 C350 1.386 . S
C351 C355 1.393 1_565 S
C352 H341 0.950 . S
C352 C350 1.391 1_545 S
C352 C353 1.400 . S
C353 C347 1.491 . S
C353 C352 1.400 . S
C353 C354 1.398 . S
C354 H342 0.950 . S
C354 C353 1.398 . S
C354 C355 1.391 . S
C355 H343 0.950 . S
C355 C351 1.393 1_545 S
C355 C354 1.391 . S
C125 C107 1.823 . S
C131 C54 1.946 . S
C145 C106 1.935 . S
C151 C55 1.801 . S
C165 C52 1.940 . S
C171 C114 1.814 . S
C185 C115 1.943 . S
C191 C53 1.821 . S
C205 C49 1.939 . S
C211 C109 1.811 . S
C225 C48 1.829 . S
C231 C108 1.948 . S
C245 C50 1.112 . S
C251 C51 1.112 . S
C265 C112 1.113 . S
C271 C113 1.113 . S
C285 C46 1.124 . S
C291 C47 1.124 . S
C305 C111 1.112 . S
C311 C110 1.112 . S
C325 C56 1.124 . S
C331 C57 1.124 . S
C345 C104 1.116 . S
C351 C105 1.116 . S
