# Generated by pormake.
# Topology mok, (4)-cn, num edge types: 1
# Building blocks:
#     Node 0, Type 0, BuildingBlock: CEKHIL_clean_sbu_0, # of connection points: 4
#     Node 1, Type 0, BuildingBlock: CEKHIL_clean_sbu_0, # of connection points: 4
#     Node 2, Type 0, BuildingBlock: CEKHIL_clean_sbu_0, # of connection points: 4
#     Node 3, Type 0, BuildingBlock: CEKHIL_clean_sbu_0, # of connection points: 4
#     Node 4, Type 0, BuildingBlock: CEKHIL_clean_sbu_0, # of connection points: 4
#     Node 5, Type 0, BuildingBlock: CEKHIL_clean_sbu_0, # of connection points: 4
#     Node 6, Type 0, BuildingBlock: CEKHIL_clean_sbu_0, # of connection points: 4
#     Node 7, Type 0, BuildingBlock: CEKHIL_clean_sbu_0, # of connection points: 4
#     Edge 8, Type (0, 0), BuildingBlock: FUNLAD_clean_linker_1, # of connection points: 2
#     Edge 9, Type (0, 0), BuildingBlock: FUNLAD_clean_linker_1, # of connection points: 2
#     Edge 10, Type (0, 0), BuildingBlock: FUNLAD_clean_linker_1, # of connection points: 2
#     Edge 11, Type (0, 0), BuildingBlock: FUNLAD_clean_linker_1, # of connection points: 2
#     Edge 12, Type (0, 0), BuildingBlock: FUNLAD_clean_linker_1, # of connection points: 2
#     Edge 13, Type (0, 0), BuildingBlock: FUNLAD_clean_linker_1, # of connection points: 2
#     Edge 14, Type (0, 0), BuildingBlock: FUNLAD_clean_linker_1, # of connection points: 2
#     Edge 15, Type (0, 0), BuildingBlock: FUNLAD_clean_linker_1, # of connection points: 2
#     Edge 16, Type (0, 0), BuildingBlock: FUNLAD_clean_linker_1, # of connection points: 2
#     Edge 17, Type (0, 0), BuildingBlock: FUNLAD_clean_linker_1, # of connection points: 2
#     Edge 18, Type (0, 0), BuildingBlock: FUNLAD_clean_linker_1, # of connection points: 2
#     Edge 19, Type (0, 0), BuildingBlock: FUNLAD_clean_linker_1, # of connection points: 2
#     Edge 20, Type (0, 0), BuildingBlock: FUNLAD_clean_linker_1, # of connection points: 2
#     Edge 21, Type (0, 0), BuildingBlock: FUNLAD_clean_linker_1, # of connection points: 2
#     Edge 22, Type (0, 0), BuildingBlock: FUNLAD_clean_linker_1, # of connection points: 2
#     Edge 23, Type (0, 0), BuildingBlock: FUNLAD_clean_linker_1, # of connection points: 2
# Relax obj value: 0.017
# Max RMSD: 0.041
# Mean RMSD: 0.041
data_MOF--net-mok--node1-CEKHIL_clean_sbu_0--edge1-FUNLAD_clean_linker_1
_symmetry_space_group_name_H-M    P1
_symmetry_Int_Tables_number       1
_symmetry_cell_setting            triclinic
loop_
_symmetry_equiv_pos_as_xyz
'x, y, z'
_cell_length_a     56.063105
_cell_length_b     16.022497
_cell_length_c     28.100579
_cell_angle_alpha  89.995315
_cell_angle_beta   89.98317
_cell_angle_gamma 89.952841
loop_
_atom_site_label
_atom_site_type_symbol
_atom_site_fract_x
_atom_site_fract_y
_atom_site_fract_z
_atom_type_partial_charge
Co0 Co 0.61106 0.2914 0.03972 0.0
O1 O 0.57695 0.27273 0.03737 0.0
O2 O 0.60446 0.17596 0.02486 0.0
C3 C 0.61103 0.36598 0.10762 0.0
O4 O 0.64746 0.28337 0.04113 0.0
Co5 Co 0.63393 0.46781 0.0358 0.0
O6 O 0.66442 0.4096 0.04961 0.0
C7 C 0.61252 0.39415 0.9495 0.0
C8 C 0.58202 0.19531 0.02793 0.0
C9 C 0.66585 0.33035 0.04702 0.0
O10 O 0.61111 0.32246 0.97003 0.0
O11 O 0.619 0.4608 0.97107 0.0
O12 O 0.61045 0.28487 0.1093 0.0
O13 O 0.60989 0.39883 0.06587 0.0
Co14 Co 0.4006 0.72484 0.04049 0.0
O15 O 0.43434 0.74996 0.03855 0.0
O16 O 0.40545 0.84069 0.02388 0.0
C17 C 0.40122 0.65414 0.10954 0.0
O18 O 0.36412 0.72508 0.0412 0.0
Co19 Co 0.38102 0.54294 0.03924 0.0
O20 O 0.34966 0.5956 0.05251 0.0
C21 C 0.4008 0.61788 0.95169 0.0
C22 C 0.42815 0.82586 0.02789 0.0
C23 C 0.34671 0.67413 0.04825 0.0
O24 O 0.40135 0.69041 0.97139 0.0
O25 O 0.39539 0.55089 0.97408 0.0
O26 O 0.40065 0.73529 0.10987 0.0
O27 O 0.40333 0.61939 0.06846 0.0
Co28 Co 0.60623 0.70873 0.51015 0.0
O29 O 0.57177 0.7092 0.50979 0.0
O30 O 0.59361 0.81975 0.52629 0.0
C31 C 0.6102 0.63953 0.44066 0.0
O32 O 0.64272 0.72994 0.51194 0.0
Co33 Co 0.63308 0.5376 0.51305 0.0
O34 O 0.6618 0.60692 0.50215 0.0
C35 C 0.60829 0.60045 0.59842 0.0
C36 C 0.57244 0.78747 0.52085 0.0
C37 C 0.66202 0.68618 0.50636 0.0
O38 O 0.606 0.67311 0.57928 0.0
O39 O 0.61633 0.53676 0.57602 0.0
O40 O 0.60675 0.71978 0.44052 0.0
O41 O 0.60917 0.60405 0.48162 0.0
Co42 Co 0.39981 0.31015 0.51093 0.0
O43 O 0.43408 0.30059 0.51216 0.0
O44 O 0.40989 0.19533 0.52651 0.0
C45 C 0.3987 0.38165 0.44184 0.0
O46 O 0.36279 0.30057 0.5107 0.0
Co47 Co 0.37775 0.49004 0.51327 0.0
O48 O 0.34876 0.42923 0.49288 0.0
C49 C 0.39913 0.41691 0.59986 0.0
C50 C 0.43173 0.22243 0.52218 0.0
C51 C 0.34561 0.35132 0.49936 0.0
O52 O 0.40004 0.34427 0.58024 0.0
O53 O 0.39291 0.48327 0.57765 0.0
O54 O 0.4 0.30067 0.44117 0.0
O55 O 0.39999 0.41561 0.48314 0.0
Co56 Co 0.10873 0.78176 0.04475 0.0
O57 O 0.07457 0.77311 0.04937 0.0
O58 O 0.0981 0.67451 0.02025 0.0
C59 C 0.11431 0.8305 0.11946 0.0
O60 O 0.14478 0.7662 0.03753 0.0
Co61 Co 0.13334 0.95284 0.05038 0.0
O62 O 0.16295 0.88618 0.05762 0.0
C63 C 0.11048 0.90417 0.96052 0.0
C64 C 0.07669 0.6989 0.03161 0.0
C65 C 0.16366 0.80895 0.04689 0.0
O66 O 0.1062 0.83198 0.97869 0.0
O67 O 0.11982 0.96402 0.98427 0.0
O68 O 0.11175 0.75134 0.11145 0.0
O69 O 0.11119 0.87893 0.08298 0.0
Co70 Co 0.90217 0.20897 0.03288 0.0
O71 O 0.93634 0.22544 0.03334 0.0
O72 O 0.91001 0.31605 0.00523 0.0
C73 C 0.89899 0.16194 0.1085 0.0
O74 O 0.86585 0.21834 0.02895 0.0
Co75 Co 0.87947 0.03572 0.04243 0.0
O76 O 0.84911 0.09749 0.0517 0.0
C77 C 0.89984 0.08366 0.95011 0.0
C78 C 0.93216 0.29737 0.01372 0.0
C79 C 0.84753 0.1742 0.04024 0.0
O80 O 0.90402 0.15646 0.96744 0.0
O81 O 0.89121 0.02381 0.97491 0.0
O82 O 0.90031 0.24124 0.09948 0.0
O83 O 0.90189 0.11273 0.07227 0.0
Co84 Co 0.11467 0.20602 0.51552 0.0
O85 O 0.08053 0.21874 0.51374 0.0
O86 O 0.10486 0.31766 0.5381 0.0
C87 C 0.11802 0.15284 0.44107 0.0
O88 O 0.15168 0.21041 0.51977 0.0
Co89 Co 0.13286 0.02416 0.5119 0.0
O90 O 0.16405 0.07951 0.50265 0.0
C91 C 0.11375 0.08733 0.60191 0.0
C92 C 0.08301 0.29358 0.52976 0.0
C93 C 0.16836 0.1562 0.51096 0.0
O94 O 0.11228 0.16005 0.58267 0.0
O95 O 0.11996 0.02206 0.57873 0.0
O96 O 0.11703 0.23266 0.44805 0.0
O97 O 0.11421 0.10742 0.47845 0.0
Co98 Co 0.90481 0.78423 0.505 0.0
O99 O 0.93921 0.7863 0.50358 0.0
O100 O 0.91832 0.67773 0.52746 0.0
C101 C 0.89979 0.83662 0.43062 0.0
O102 O 0.86848 0.76145 0.50915 0.0
Co103 Co 0.8783 0.95244 0.50117 0.0
O104 O 0.84945 0.88245 0.49369 0.0
C105 C 0.90026 0.90119 0.59132 0.0
C106 C 0.93921 0.71061 0.51935 0.0
C107 C 0.84916 0.80418 0.5018 0.0
O108 O 0.90516 0.83018 0.57227 0.0
O109 O 0.89107 0.96179 0.56794 0.0
O110 O 0.9037 0.75782 0.43743 0.0
O111 O 0.90141 0.88305 0.46825 0.0
H112 H 0.82285 0.28078 0.03077 0.0
C113 C 0.82376 0.21465 0.03925 0.0
H114 H 0.80415 0.10697 0.05792 0.0
H115 H 0.71342 0.29025 0.13822 0.0
H116 H 0.73039 0.23128 0.21019 0.0
H117 H 0.77003 0.16435 0.20908 0.0
H118 H 0.79297 0.15602 0.13609 0.0
C119 C 0.80345 0.17253 0.04812 0.0
C120 C 0.7796 0.21426 0.04839 0.0
C121 C 0.76631 0.21815 0.09135 0.0
C122 C 0.74341 0.25674 0.09204 0.0
C123 C 0.73076 0.26093 0.1356 0.0
C124 C 0.74032 0.22755 0.17721 0.0
C125 C 0.76264 0.18987 0.17659 0.0
C126 C 0.77559 0.18527 0.13435 0.0
H127 H 0.69032 0.22202 0.04993 0.0
C128 C 0.68957 0.28983 0.04974 0.0
H129 H 0.70977 0.40128 0.04836 0.0
H130 H 0.79875 0.20873 0.95853 0.0
H131 H 0.78183 0.26877 0.88701 0.0
H132 H 0.74293 0.34075 0.8891 0.0
H133 H 0.72059 0.35214 0.96277 0.0
C134 C 0.71006 0.33357 0.05037 0.0
C135 C 0.73377 0.29131 0.04976 0.0
C136 C 0.74699 0.28732 0.0068 0.0
C137 C 0.76974 0.24766 0.00588 0.0
C138 C 0.78186 0.24077 0.96181 0.0
C139 C 0.77224 0.2744 0.92032 0.0
C140 C 0.75033 0.31479 0.92147 0.0
C141 C 0.73772 0.32105 0.96403 0.0
H142 H 0.18765 0.70001 0.03767 0.0
C143 C 0.18716 0.76665 0.04485 0.0
H144 H 0.20738 0.8746 0.06008 0.0
H145 H 0.29929 0.70363 0.14026 0.0
H146 H 0.28222 0.76274 0.21211 0.0
H147 H 0.24178 0.8236 0.21166 0.0
H148 H 0.21815 0.82565 0.13945 0.0
C149 C 0.20774 0.80843 0.05162 0.0
C150 C 0.23153 0.76649 0.05193 0.0
C151 C 0.24518 0.76597 0.09448 0.0
C152 C 0.26853 0.73094 0.09478 0.0
C153 C 0.28159 0.7303 0.13792 0.0
C154 C 0.27198 0.76375 0.17947 0.0
C155 C 0.24921 0.79802 0.17921 0.0
C156 C 0.23587 0.79909 0.13741 0.0
H157 H 0.32015 0.77631 0.04984 0.0
C158 C 0.32226 0.70886 0.05064 0.0
H159 H 0.30435 0.59262 0.0516 0.0
H160 H 0.21121 0.76301 0.96307 0.0
H161 H 0.22811 0.70159 0.89191 0.0
H162 H 0.26794 0.63615 0.89341 0.0
H163 H 0.29123 0.63266 0.96614 0.0
C164 C 0.30272 0.66016 0.05253 0.0
C165 C 0.27825 0.69656 0.05254 0.0
C166 C 0.2645 0.69579 0.0102 0.0
C167 C 0.24126 0.73183 0.00965 0.0
C168 C 0.22856 0.7341 0.9661 0.0
C169 C 0.23814 0.69955 0.9248 0.0
C170 C 0.26058 0.66282 0.92562 0.0
C171 C 0.27373 0.6611 0.96765 0.0
H172 H 0.82453 0.69514 0.50827 0.0
C173 C 0.82533 0.76241 0.50377 0.0
H174 H 0.80575 0.87423 0.49532 0.0
H175 H 0.70787 0.7497 0.42006 0.0
H176 H 0.72461 0.81237 0.34907 0.0
H177 H 0.76672 0.85658 0.34669 0.0
H178 H 0.79243 0.83774 0.41516 0.0
C179 C 0.8048 0.80716 0.50074 0.0
C180 C 0.78007 0.77089 0.50122 0.0
C181 C 0.76501 0.78278 0.46104 0.0
C182 C 0.74057 0.75757 0.46244 0.0
C183 C 0.72637 0.76857 0.42125 0.0
C184 C 0.73578 0.80431 0.38016 0.0
C185 C 0.75948 0.82922 0.37883 0.0
C186 C 0.77402 0.81848 0.41855 0.0
H187 H 0.68657 0.79603 0.50645 0.0
C188 C 0.68582 0.72831 0.50548 0.0
H189 H 0.70561 0.61582 0.50481 0.0
H190 H 0.80274 0.74513 0.58635 0.0
H191 H 0.78599 0.68156 0.65696 0.0
H192 H 0.74413 0.63456 0.65852 0.0
H193 H 0.71862 0.65199 0.58953 0.0
C194 C 0.70637 0.68355 0.50399 0.0
C195 C 0.73098 0.72059 0.50413 0.0
C196 C 0.746 0.70863 0.54429 0.0
C197 C 0.77039 0.73447 0.54308 0.0
C198 C 0.7844 0.72477 0.58463 0.0
C199 C 0.77495 0.68872 0.62561 0.0
C200 C 0.75138 0.66229 0.6265 0.0
C201 C 0.73697 0.67228 0.58654 0.0
H202 H 0.20623 0.1251 0.50453 0.0
C203 C 0.19422 0.17737 0.51086 0.0
H204 H 0.19313 0.30648 0.52576 0.0
H205 H 0.29959 0.31429 0.60589 0.0
H206 H 0.27644 0.35281 0.67525 0.0
H207 H 0.23249 0.3486 0.6736 0.0
H208 H 0.21134 0.30687 0.60226 0.0
C209 C 0.20422 0.25274 0.51758 0.0
C210 C 0.23107 0.26114 0.5173 0.0
C211 C 0.24335 0.28468 0.55938 0.0
C212 C 0.26887 0.2854 0.5606 0.0
C213 C 0.28038 0.31107 0.60301 0.0
C214 C 0.2673 0.33357 0.64316 0.0
C215 C 0.24254 0.33129 0.64221 0.0
C216 C 0.23063 0.30719 0.60097 0.0
H217 H 0.30985 0.35973 0.46834 0.0
C218 C 0.32059 0.32296 0.49285 0.0
H219 H 0.31909 0.23532 0.54854 0.0
H220 H 0.21395 0.22657 0.42828 0.0
H221 H 0.23695 0.18217 0.35975 0.0
H222 H 0.28073 0.16926 0.36436 0.0
H223 H 0.30183 0.20265 0.43719 0.0
C224 C 0.30923 0.26743 0.52074 0.0
C225 C 0.28233 0.26161 0.51987 0.0
C226 C 0.27002 0.23748 0.47785 0.0
C227 C 0.24455 0.23994 0.47609 0.0
C228 C 0.23307 0.22147 0.43245 0.0
C229 C 0.24608 0.19663 0.39267 0.0
C230 C 0.27074 0.18975 0.3952 0.0
C231 C 0.28265 0.2098 0.43715 0.0
H232 H 0.61236 0.48668 0.14443 0.0
C233 C 0.61248 0.4195 0.15 0.0
H234 H 0.61359 0.32276 0.20114 0.0
H235 H 0.65773 0.57941 0.35246 0.0
H236 H 0.6931 0.49948 0.33233 0.0
H237 H 0.69217 0.39489 0.26789 0.0
H238 H 0.65585 0.36983 0.22308 0.0
C239 C 0.61293 0.38952 0.1945 0.0
C240 C 0.61293 0.44798 0.23563 0.0
C241 C 0.63413 0.46062 0.26206 0.0
C242 C 0.63455 0.51998 0.2997 0.0
C243 C 0.65622 0.53348 0.32441 0.0
C244 C 0.67671 0.48845 0.31298 0.0
C245 C 0.6762 0.42965 0.27665 0.0
C246 C 0.65524 0.41584 0.25125 0.0
H247 H 0.61687 0.52289 0.40197 0.0
C248 C 0.6142 0.58967 0.39748 0.0
H249 H 0.6094 0.68767 0.34824 0.0
H250 H 0.56884 0.43451 0.19419 0.0
H251 H 0.53346 0.51408 0.21435 0.0
H252 H 0.53428 0.61815 0.279 0.0
H253 H 0.57049 0.64317 0.32391 0.0
C254 C 0.61315 0.62176 0.35349 0.0
C255 C 0.6136 0.56532 0.31141 0.0
C256 C 0.59242 0.55293 0.28479 0.0
C257 C 0.59201 0.49362 0.24716 0.0
C258 C 0.57035 0.48022 0.22235 0.0
C259 C 0.54983 0.52509 0.23376 0.0
C260 C 0.55029 0.58361 0.27019 0.0
C261 C 0.57124 0.59741 0.29564 0.0
H262 H 0.39859 0.5353 0.1479 0.0
C263 C 0.39866 0.60272 0.15245 0.0
H264 H 0.39809 0.70195 0.20197 0.0
H265 H 0.35546 0.37509 0.32236 0.0
H266 H 0.31982 0.39421 0.27443 0.0
H267 H 0.31882 0.49869 0.20991 0.0
H268 H 0.35343 0.58457 0.19288 0.0
C269 C 0.3971 0.63495 0.19629 0.0
C270 C 0.39665 0.57834 0.23815 0.0
C271 C 0.37618 0.52924 0.24785 0.0
C272 C 0.37665 0.46973 0.28536 0.0
C273 C 0.35601 0.42135 0.29432 0.0
C274 C 0.33545 0.43171 0.2671 0.0
C275 C 0.33489 0.49046 0.23073 0.0
C276 C 0.35494 0.53899 0.22114 0.0
H277 H 0.39574 0.50092 0.4041 0.0
C278 C 0.39665 0.43368 0.39906 0.0
H279 H 0.3979 0.33579 0.34862 0.0
H280 H 0.43865 0.66419 0.22951 0.0
H281 H 0.47436 0.64437 0.27699 0.0
H282 H 0.47548 0.5391 0.34101 0.0
H283 H 0.44092 0.45324 0.35804 0.0
C284 C 0.39735 0.40269 0.35483 0.0
C285 C 0.39745 0.46046 0.31346 0.0
C286 C 0.41795 0.50948 0.30368 0.0
C287 C 0.41744 0.56923 0.26633 0.0
C288 C 0.4381 0.61764 0.25739 0.0
C289 C 0.45872 0.60691 0.28435 0.0
C290 C 0.45934 0.54773 0.32044 0.0
C291 C 0.4393 0.49924 0.33005 0.0
H292 H 0.40676 0.66927 0.87953 0.0
C293 C 0.4051 0.61198 0.9 0.0
H294 H 0.40424 0.47988 0.89749 0.0
H295 H 0.36404 0.55647 0.68302 0.0
H296 H 0.32898 0.60983 0.72318 0.0
H297 H 0.32833 0.6258 0.81047 0.0
H298 H 0.36277 0.5892 0.85795 0.0
C299 C 0.40523 0.53784 0.87752 0.0
C300 C 0.40588 0.5313 0.82488 0.0
C301 C 0.38539 0.55231 0.79778 0.0
C302 C 0.38563 0.54192 0.74759 0.0
C303 C 0.36493 0.56336 0.72127 0.0
C304 C 0.34461 0.59382 0.74388 0.0
C305 C 0.34425 0.60287 0.793 0.0
C306 C 0.36427 0.58205 0.81983 0.0
H307 H 0.40544 0.36762 0.67248 0.0
C308 C 0.40424 0.42415 0.65123 0.0
H309 H 0.40443 0.55614 0.65138 0.0
H310 H 0.44798 0.48545 0.86657 0.0
H311 H 0.48323 0.43258 0.82624 0.0
H312 H 0.48368 0.41505 0.73902 0.0
H313 H 0.44887 0.44987 0.69157 0.0
C314 C 0.406 0.49934 0.67229 0.0
C315 C 0.40614 0.50894 0.72478 0.0
C316 C 0.42664 0.48817 0.75181 0.0
C317 C 0.42645 0.49901 0.80203 0.0
C318 C 0.44716 0.47814 0.82832 0.0
C319 C 0.46751 0.44795 0.80562 0.0
C320 C 0.46777 0.43804 0.7565 0.0
C321 C 0.44764 0.45796 0.7297 0.0
H322 H 0.6054 0.34189 0.87791 0.0
C323 C 0.60765 0.39939 0.89794 0.0
H324 H 0.60876 0.53138 0.89478 0.0
H325 H 0.64458 0.45688 0.67733 0.0
H326 H 0.68032 0.40248 0.71441 0.0
H327 H 0.68257 0.38435 0.80145 0.0
H328 H 0.64907 0.41999 0.85177 0.0
C329 C 0.60729 0.47323 0.8751 0.0
C330 C 0.60548 0.47936 0.8225 0.0
C331 C 0.62537 0.45848 0.79365 0.0
C332 C 0.62416 0.46982 0.74355 0.0
C333 C 0.64436 0.44904 0.71556 0.0
C334 C 0.66509 0.41802 0.73639 0.0
C335 C 0.66635 0.40778 0.78536 0.0
C336 C 0.64686 0.42809 0.81384 0.0
H337 H 0.60126 0.6463 0.67151 0.0
C338 C 0.60311 0.59067 0.64968 0.0
H339 H 0.60462 0.45894 0.64839 0.0
H340 H 0.56424 0.52447 0.86771 0.0
H341 H 0.52817 0.57744 0.83047 0.0
H342 H 0.52591 0.59564 0.74341 0.0
H343 H 0.55973 0.56155 0.69303 0.0
C344 C 0.60247 0.51463 0.67006 0.0
C345 C 0.60322 0.50324 0.7225 0.0
C346 C 0.58324 0.52323 0.75127 0.0
C347 C 0.58445 0.51177 0.80141 0.0
C348 C 0.56428 0.53221 0.82944 0.0
C349 C 0.54346 0.56243 0.80853 0.0
C350 C 0.54219 0.57272 0.7595 0.0
C351 C 0.56177 0.55329 0.73101 0.0
H352 H 0.12002 0.81438 0.19632 0.0
C353 C 0.11835 0.86103 0.16841 0.0
H354 H 0.1159 0.98956 0.15315 0.0
H355 H 0.07591 0.07833 0.35801 0.0
H356 H 0.04146 0.10463 0.30814 0.0
H357 H 0.04205 0.069 0.22277 0.0
H358 H 0.07706 0.0067 0.18676 0.0
C359 C 0.11859 0.94221 0.1803 0.0
C360 C 0.11909 0.96834 0.23143 0.0
C361 C 0.0986 0.00611 0.25187 0.0
C362 C 0.09833 0.0274 0.30109 0.0
C363 C 0.07732 0.06259 0.32069 0.0
C364 C 0.05733 0.07757 0.29252 0.0
C365 C 0.05766 0.05745 0.24447 0.0
C366 C 0.07794 0.02184 0.22423 0.0
H367 H 0.12257 0.16514 0.36381 0.0
C368 C 0.12054 0.1197 0.39227 0.0
H369 H 0.11705 0.99141 0.40846 0.0
H370 H 0.1621 0.90409 0.20313 0.0
H371 H 0.19651 0.87755 0.25321 0.0
H372 H 0.19566 0.91169 0.33882 0.0
H373 H 0.16038 0.97307 0.37487 0.0
C374 C 0.11881 0.03855 0.38091 0.0
C375 C 0.1187 0.0122 0.32985 0.0
C376 C 0.13918 0.97453 0.30947 0.0
C377 C 0.1395 0.9534 0.26018 0.0
C378 C 0.1606 0.91904 0.24055 0.0
C379 C 0.18055 0.90406 0.26884 0.0
C380 C 0.18009 0.92342 0.31703 0.0
C381 C 0.15973 0.95853 0.33727 0.0
H382 H 0.89698 0.82376 0.35297 0.0
C383 C 0.89692 0.86924 0.38169 0.0
H384 H 0.89571 0.99779 0.3985 0.0
H385 H 0.93965 0.00206 0.17924 0.0
H386 H 0.97566 0.95041 0.21684 0.0
H387 H 0.97596 0.91272 0.30193 0.0
H388 H 0.94025 0.92608 0.34991 0.0
C389 C 0.89609 0.9508 0.37065 0.0
C390 C 0.89626 0.97837 0.31971 0.0
C391 C 0.91738 0.97099 0.29208 0.0
C392 C 0.91728 0.99376 0.24305 0.0
C393 C 0.93865 0.98556 0.21652 0.0
C394 C 0.95949 0.95615 0.23768 0.0
C395 C 0.95966 0.93485 0.28557 0.0
C396 C 0.93896 0.94233 0.31265 0.0
H397 H 0.89345 0.17905 0.1855 0.0
C398 C 0.89572 0.13212 0.15793 0.0
H399 H 0.89992 0.00374 0.1436 0.0
H400 H 0.85306 0.00254 0.3624 0.0
H401 H 0.81697 0.05469 0.32488 0.0
H402 H 0.81663 0.09258 0.23978 0.0
H403 H 0.85234 0.07885 0.19162 0.0
C404 C 0.8966 0.05119 0.17043 0.0
C405 C 0.89621 0.0255 0.22168 0.0
C406 C 0.87513 0.03342 0.24937 0.0
C407 C 0.87523 0.01046 0.29844 0.0
C408 C 0.85393 0.01894 0.32507 0.0
C409 C 0.8331 0.0487 0.30398 0.0
C410 C 0.83292 0.07013 0.25606 0.0
C411 C 0.85359 0.06243 0.22887 0.0
H412 H 0.90884 0.85464 0.66348 0.0
C413 C 0.90402 0.91014 0.64341 0.0
H414 H 0.89497 0.03768 0.64718 0.0
H415 H 0.85487 0.0442 0.85512 0.0
H416 H 0.81951 0.07246 0.80813 0.0
H417 H 0.82043 0.06072 0.72065 0.0
H418 H 0.85667 0.02113 0.67956 0.0
C419 C 0.90036 0.98243 0.66687 0.0
C420 C 0.90012 0.98734 0.72014 0.0
C421 C 0.87864 0.00969 0.74381 0.0
C422 C 0.87799 0.01536 0.79439 0.0
C423 C 0.85633 0.03838 0.81686 0.0
C424 C 0.83589 0.05482 0.79033 0.0
C425 C 0.83642 0.04832 0.74108 0.0
C426 C 0.85743 0.02581 0.71792 0.0
H427 H 0.91206 0.12304 0.87872 0.0
C428 C 0.90429 0.07144 0.89849 0.0
H429 H 0.88882 0.95153 0.89325 0.0
H430 H 0.945 0.95248 0.6868 0.0
H431 H 0.98017 0.92333 0.73421 0.0
H432 H 0.97842 0.92679 0.82188 0.0
H433 H 0.94147 0.96058 0.86278 0.0
C434 C 0.89755 0.00249 0.87466 0.0
C435 C 0.89874 0.99845 0.82155 0.0
C436 C 0.92026 0.97664 0.79807 0.0
C437 C 0.92106 0.97213 0.74736 0.0
C438 C 0.9431 0.95384 0.72507 0.0
C439 C 0.9635 0.93758 0.75188 0.0
C440 C 0.96253 0.93972 0.80127 0.0
C441 C 0.94122 0.95921 0.82429 0.0
H442 H 0.10125 0.86044 0.88816 0.0
C443 C 0.10601 0.91534 0.9088 0.0
H444 H 0.11449 0.04341 0.90643 0.0
H445 H 0.15387 0.05468 0.6976 0.0
H446 H 0.18907 0.08578 0.74429 0.0
H447 H 0.18831 0.07506 0.83181 0.0
H448 H 0.15239 0.03337 0.87319 0.0
C449 C 0.10918 0.98872 0.88618 0.0
C450 C 0.10914 0.9955 0.83295 0.0
C451 C 0.13036 0.02022 0.80913 0.0
C452 C 0.13087 0.02607 0.75853 0.0
C453 C 0.15241 0.04977 0.73588 0.0
C454 C 0.1728 0.06761 0.76224 0.0
C455 C 0.17236 0.06161 0.81151 0.0
C456 C 0.15152 0.03791 0.83484 0.0
H457 H 0.10603 0.13872 0.67336 0.0
C458 C 0.10948 0.08126 0.65396 0.0
H459 H 0.11457 0.95078 0.65989 0.0
H460 H 0.0646 0.95716 0.86668 0.0
H461 H 0.02949 0.92578 0.81958 0.0
H462 H 0.03097 0.93017 0.7319 0.0
H463 H 0.06759 0.96709 0.69069 0.0
C464 C 0.11122 0.00915 0.67838 0.0
C465 C 0.11019 0.00717 0.73154 0.0
C466 C 0.08892 0.98337 0.75521 0.0
C467 C 0.08826 0.97869 0.80592 0.0
C468 C 0.06639 0.95871 0.82839 0.0
C469 C 0.04603 0.94121 0.80176 0.0
C470 C 0.04685 0.94383 0.75237 0.0
C471 C 0.06798 0.96491 0.72917 0.0
H472 H 0.43928 0.95659 0.01634 0.0
C473 C 0.44582 0.8937 0.02272 0.0
H474 H 0.47629 0.81817 0.0336 0.0
H475 H 0.54278 0.09757 0.93778 0.0
H476 H 0.53639 0.00999 0.8686 0.0
H477 H 0.50748 0.89406 0.87095 0.0
H478 H 0.48456 0.86561 0.94247 0.0
C479 C 0.46939 0.88072 0.02779 0.0
C480 C 0.48679 0.95107 0.02641 0.0
C481 C 0.50048 0.96576 0.98485 0.0
C482 C 0.51759 0.03148 0.9839 0.0
C483 C 0.53018 0.04687 0.9411 0.0
C484 C 0.52654 0.99743 0.90096 0.0
C485 C 0.51023 0.93224 0.90225 0.0
C486 C 0.49724 0.91648 0.94354 0.0
H487 H 0.56907 0.06657 0.01727 0.0
C488 C 0.56338 0.13078 0.0225 0.0
H489 H 0.53414 0.21197 0.03215 0.0
H490 H 0.46387 0.93882 0.11213 0.0
H491 H 0.47028 0.02571 0.18156 0.0
H492 H 0.50017 0.13856 0.1804 0.0
H493 H 0.52384 0.1652 0.10987 0.0
C494 C 0.53994 0.14833 0.02541 0.0
C495 C 0.52146 0.08108 0.02508 0.0
C496 C 0.50755 0.06683 0.06651 0.0
C497 C 0.49026 0.00172 0.06721 0.0
C498 C 0.47703 0.98789 0.10943 0.0
C499 C 0.48059 0.03716 0.14963 0.0
C500 C 0.49741 0.10069 0.14897 0.0
C501 C 0.51084 0.11546 0.10812 0.0
H502 H 0.53331 0.79801 0.52416 0.0
C503 C 0.54964 0.8344 0.52602 0.0
H504 H 0.56375 0.95621 0.52973 0.0
H505 H 0.46873 0.11382 0.44213 0.0
H506 H 0.49555 0.12319 0.37481 0.0
H507 H 0.53554 0.05923 0.37773 0.0
H508 H 0.54888 0.98466 0.44792 0.0
C509 C 0.54778 0.91788 0.53029 0.0
C510 C 0.52377 0.96032 0.53003 0.0
C511 C 0.51635 0.00611 0.48938 0.0
C512 C 0.4934 0.04499 0.48817 0.0
C513 C 0.48621 0.08608 0.4459 0.0
C514 C 0.50136 0.09125 0.40672 0.0
C515 C 0.52386 0.05509 0.40833 0.0
C516 C 0.53131 0.01263 0.44894 0.0
H517 H 0.47048 0.20388 0.52531 0.0
C518 C 0.45363 0.17039 0.5266 0.0
H519 H 0.43794 0.05082 0.53053 0.0
H520 H 0.53226 0.88061 0.61428 0.0
H521 H 0.50537 0.87069 0.68167 0.0
H522 H 0.46582 0.93812 0.67972 0.0
H523 H 0.45286 0.0161 0.61035 0.0
C524 C 0.45438 0.08642 0.52848 0.0
C525 C 0.47795 0.04072 0.52832 0.0
C526 C 0.48527 0.99403 0.56874 0.0
C527 C 0.50813 0.95429 0.5697 0.0
C528 C 0.51501 0.91045 0.61121 0.0
C529 C 0.4998 0.90466 0.65027 0.0
C530 C 0.47753 0.9427 0.64919 0.0
C531 C 0.47029 0.98718 0.60911 0.0
H532 H 0.0413 0.65667 0.05402 0.0
C533 C 0.05568 0.64377 0.02914 0.0
H534 H 0.06776 0.56813 0.97296 0.0
H535 H 1.00489 0.25103 0.01573 0.0
H536 H 0.0449 0.19486 0.01091 0.0
H537 H 0.07962 0.28797 0.0024 0.0
H538 H 0.07453 0.43753 0.99758 0.0
C539 C 0.05342 0.58058 0.99797 0.0
C540 C 0.03215 0.52359 0.99927 0.0
C541 C 0.03551 0.43605 0.0034 0.0
C542 C 0.0155 0.38242 0.01023 0.0
C543 C 0.0194 0.29503 0.01217 0.0
C544 C 0.0423 0.26175 0.0092 0.0
C545 C 0.06184 0.31415 0.00429 0.0
C546 C 0.05861 0.40019 0.00147 0.0
H547 H 0.94886 0.39812 0.97173 0.0
C548 C 0.95161 0.35548 1.00128 0.0
H549 H 0.97418 0.31626 0.05659 0.0
H550 H 0.01813 0.68246 0.97623 0.0
H551 H 0.97856 0.74125 0.98653 0.0
H552 H 0.94535 0.65407 0.01558 0.0
H553 H 0.95118 0.50725 0.03176 0.0
C554 C 0.97185 0.35914 0.02695 0.0
C555 C 0.9922 0.41637 0.01528 0.0
C556 C 0.98887 0.50408 0.01092 0.0
C557 C 0.00859 0.55649 0.99956 0.0
C558 C 1.00418 0.64153 0.98894 0.0
C559 C 0.98151 0.67584 0.99418 0.0
C560 C 0.96279 0.62663 0.01016 0.0
C561 C 0.96633 0.54186 0.01865 0.0
H562 H 0.04438 0.31078 0.53688 0.0
C563 C 0.06119 0.34463 0.53747 0.0
H564 H 0.07659 0.46473 0.53767 0.0
H565 H 0.97978 0.60618 0.44576 0.0
H566 H 0.00666 0.6125 0.37852 0.0
H567 H 0.04752 0.55633 0.38417 0.0
H568 H 0.06165 0.49248 0.45711 0.0
C569 C 0.0603 0.42837 0.54029 0.0
C570 C 0.03653 0.47245 0.53957 0.0
C571 C 0.02871 0.51292 0.49742 0.0
C572 C 1.00527 0.54783 0.49467 0.0
C573 C 0.99763 0.58229 0.45081 0.0
C574 C 0.01282 0.5855 0.41163 0.0
C575 C 0.0358 0.55369 0.41477 0.0
C576 C 0.04369 0.51731 0.45693 0.0
H577 H 0.97834 0.7053 0.52216 0.0
C578 C 0.96243 0.66713 0.52605 0.0
H579 H 0.94973 0.54486 0.53749 0.0
H580 H 0.046 0.40451 0.62657 0.0
H581 H 0.01931 0.39925 0.69452 0.0
H582 H 0.97907 0.46108 0.69033 0.0
H583 H 0.96518 0.52856 0.61819 0.0
C584 C 0.96527 0.58448 0.53281 0.0
C585 C 0.98979 0.54553 0.53485 0.0
C586 C 0.99773 0.50565 0.57714 0.0
C587 C 0.02102 0.46941 0.57952 0.0
C588 C 0.02843 0.43156 0.62256 0.0
C589 C 0.01334 0.42853 0.66191 0.0
C590 C 0.99068 0.46342 0.65956 0.0
C591 C 0.9829 0.50182 0.61786 0.0
loop_
_geom_bond_atom_site_label_1
_geom_bond_atom_site_label_2
_geom_bond_distance
_geom_bond_site_symmetry_2
_ccdc_geom_bond_type
Co0 O1 2.216 . S
Co0 O2 2.091 . S
Co0 O4 2.004 . S
Co0 O10 2.021 1_554 S
Co0 O12 2.137 . S
Co0 O13 2.244 . S
O1 Co0 2.216 . S
O1 C8 1.247 . S
O2 Co0 2.091 . S
O2 C8 1.261 . S
C3 O12 1.247 . S
C3 O13 1.272 . S
O4 Co0 2.004 . S
O4 C9 1.259 . S
Co5 O6 2.061 . S
Co5 O11 2.052 1_554 S
Co5 O13 2.135 . S
O6 Co5 2.061 . S
O6 C9 1.235 . S
C7 O10 1.238 . S
C7 O11 1.241 . S
C8 O1 1.247 . S
C8 O2 1.261 . S
C9 O4 1.259 . S
C9 O6 1.235 . S
O10 Co0 2.021 1_556 S
O10 C7 1.238 . S
O11 Co5 2.052 1_556 S
O11 C7 1.241 . S
O12 Co0 2.137 . S
O12 C3 1.247 . S
O13 Co0 2.244 . S
O13 C3 1.272 . S
O13 Co5 2.135 . S
Co14 O15 2.216 . S
Co14 O16 2.091 . S
Co14 O18 2.004 . S
Co14 O24 2.021 1_554 S
Co14 O26 2.137 . S
Co14 O27 2.244 . S
O15 Co14 2.216 . S
O15 C22 1.247 . S
O16 Co14 2.091 . S
O16 C22 1.261 . S
C17 O26 1.247 . S
C17 O27 1.272 . S
O18 Co14 2.004 . S
O18 C23 1.259 . S
Co19 O20 2.061 . S
Co19 O25 2.052 1_554 S
Co19 O27 2.135 . S
O20 Co19 2.061 . S
O20 C23 1.235 . S
C21 O24 1.238 . S
C21 O25 1.241 . S
C22 O15 1.247 . S
C22 O16 1.261 . S
C23 O18 1.259 . S
C23 O20 1.235 . S
O24 Co14 2.021 1_556 S
O24 C21 1.238 . S
O25 Co19 2.052 1_556 S
O25 C21 1.241 . S
O26 Co14 2.137 . S
O26 C17 1.247 . S
O27 Co14 2.244 . S
O27 C17 1.272 . S
O27 Co19 2.135 . S
Co28 O29 2.216 . S
Co28 O30 2.091 . S
Co28 O32 2.004 . S
Co28 O38 2.021 . S
Co28 O40 2.137 . S
Co28 O41 2.244 . S
O29 Co28 2.216 . S
O29 C36 1.247 . S
O30 Co28 2.091 . S
O30 C36 1.261 . S
C31 O40 1.247 . S
C31 O41 1.272 . S
O32 Co28 2.004 . S
O32 C37 1.259 . S
Co33 O34 2.061 . S
Co33 O39 2.052 . S
Co33 O41 2.135 . S
O34 Co33 2.061 . S
O34 C37 1.235 . S
C35 O38 1.238 . S
C35 O39 1.241 . S
C36 O29 1.247 . S
C36 O30 1.261 . S
C37 O32 1.259 . S
C37 O34 1.235 . S
O38 Co28 2.021 . S
O38 C35 1.238 . S
O39 Co33 2.052 . S
O39 C35 1.241 . S
O40 Co28 2.137 . S
O40 C31 1.247 . S
O41 Co28 2.244 . S
O41 C31 1.272 . S
O41 Co33 2.135 . S
Co42 O43 2.216 . S
Co42 O44 2.091 . S
Co42 O46 2.004 . S
Co42 O52 2.021 . S
Co42 O54 2.137 . S
Co42 O55 2.244 . S
O43 Co42 2.216 . S
O43 C50 1.247 . S
O44 Co42 2.091 . S
O44 C50 1.261 . S
C45 O54 1.247 . S
C45 O55 1.272 . S
O46 Co42 2.004 . S
O46 C51 1.259 . S
Co47 O48 2.061 . S
Co47 O53 2.052 . S
Co47 O55 2.135 . S
O48 Co47 2.061 . S
O48 C51 1.235 . S
C49 O52 1.238 . S
C49 O53 1.241 . S
C50 O43 1.247 . S
C50 O44 1.261 . S
C51 O46 1.259 . S
C51 O48 1.235 . S
O52 Co42 2.021 . S
O52 C49 1.238 . S
O53 Co47 2.052 . S
O53 C49 1.241 . S
O54 Co42 2.137 . S
O54 C45 1.247 . S
O55 Co42 2.244 . S
O55 C45 1.272 . S
O55 Co47 2.135 . S
Co56 O57 2.216 . S
Co56 O58 2.091 . S
Co56 O60 2.004 . S
Co56 O66 2.021 1_554 S
Co56 O68 2.137 . S
Co56 O69 2.244 . S
O57 Co56 2.216 . S
O57 C64 1.247 . S
O58 Co56 2.091 . S
O58 C64 1.261 . S
C59 O68 1.247 . S
C59 O69 1.272 . S
O60 Co56 2.004 . S
O60 C65 1.259 . S
Co61 O62 2.061 . S
Co61 O67 2.052 1_554 S
Co61 O69 2.135 . S
O62 Co61 2.061 . S
O62 C65 1.235 . S
C63 O66 1.238 . S
C63 O67 1.241 . S
C64 O57 1.247 . S
C64 O58 1.261 . S
C65 O60 1.259 . S
C65 O62 1.235 . S
O66 Co56 2.021 1_556 S
O66 C63 1.238 . S
O67 Co61 2.052 1_556 S
O67 C63 1.241 . S
O68 Co56 2.137 . S
O68 C59 1.247 . S
O69 Co56 2.244 . S
O69 C59 1.272 . S
O69 Co61 2.135 . S
Co70 O71 2.216 . S
Co70 O72 2.091 . S
Co70 O74 2.004 . S
Co70 O80 2.021 1_554 S
Co70 O82 2.137 . S
Co70 O83 2.244 . S
O71 Co70 2.216 . S
O71 C78 1.247 . S
O72 Co70 2.091 . S
O72 C78 1.261 . S
C73 O82 1.247 . S
C73 O83 1.272 . S
O74 Co70 2.004 . S
O74 C79 1.259 . S
Co75 O76 2.061 . S
Co75 O81 2.052 1_554 S
Co75 O83 2.135 . S
O76 Co75 2.061 . S
O76 C79 1.235 . S
C77 O80 1.238 . S
C77 O81 1.241 . S
C78 O71 1.247 . S
C78 O72 1.261 . S
C79 O74 1.259 . S
C79 O76 1.235 . S
O80 Co70 2.021 1_556 S
O80 C77 1.238 . S
O81 Co75 2.052 1_556 S
O81 C77 1.241 . S
O82 Co70 2.137 . S
O82 C73 1.247 . S
O83 Co70 2.244 . S
O83 C73 1.272 . S
O83 Co75 2.135 . S
Co84 O85 2.216 . S
Co84 O86 2.091 . S
Co84 O88 2.004 . S
Co84 O94 2.021 . S
Co84 O96 2.137 . S
Co84 O97 2.244 . S
O85 Co84 2.216 . S
O85 C92 1.247 . S
O86 Co84 2.091 . S
O86 C92 1.261 . S
C87 O96 1.247 . S
C87 O97 1.272 . S
O88 Co84 2.004 . S
O88 C93 1.259 . S
Co89 O90 2.061 . S
Co89 O95 2.052 . S
Co89 O97 2.135 . S
O90 Co89 2.061 . S
O90 C93 1.235 . S
C91 O94 1.238 . S
C91 O95 1.241 . S
C92 O85 1.247 . S
C92 O86 1.261 . S
C93 O88 1.259 . S
C93 O90 1.235 . S
O94 Co84 2.021 . S
O94 C91 1.238 . S
O95 Co89 2.052 . S
O95 C91 1.241 . S
O96 Co84 2.137 . S
O96 C87 1.247 . S
O97 Co84 2.244 . S
O97 C87 1.272 . S
O97 Co89 2.135 . S
Co98 O99 2.216 . S
Co98 O100 2.091 . S
Co98 O102 2.004 . S
Co98 O108 2.021 . S
Co98 O110 2.137 . S
Co98 O111 2.244 . S
O99 Co98 2.216 . S
O99 C106 1.247 . S
O100 Co98 2.091 . S
O100 C106 1.261 . S
C101 O110 1.247 . S
C101 O111 1.272 . S
O102 Co98 2.004 . S
O102 C107 1.259 . S
Co103 O104 2.061 . S
Co103 O109 2.052 . S
Co103 O111 2.135 . S
O104 Co103 2.061 . S
O104 C107 1.235 . S
C105 O108 1.238 . S
C105 O109 1.241 . S
C106 O99 1.247 . S
C106 O100 1.261 . S
C107 O102 1.259 . S
C107 O104 1.235 . S
O108 Co98 2.021 . S
O108 C105 1.238 . S
O109 Co103 2.052 . S
O109 C105 1.241 . S
O110 Co98 2.137 . S
O110 C101 1.247 . S
O111 Co98 2.244 . S
O111 C101 1.272 . S
O111 Co103 2.135 . S
H112 C113 0.951 . S
C113 H112 0.951 . S
C113 C119 1.265 . S
H114 C119 0.950 . S
H115 C123 0.949 . S
H116 C124 0.950 . S
H117 C125 0.951 . S
H118 C126 0.951 . S
C119 C113 1.265 . S
C119 H114 0.950 . S
C119 C120 1.478 . S
C120 C119 1.478 . S
C120 C121 1.397 . S
C120 C137 1.394 1_554 S
C121 C120 1.397 . S
C121 C122 1.438 . S
C121 C126 1.429 . S
C122 C121 1.438 . S
C122 C123 1.428 . S
C122 C135 1.394 . S
C123 H115 0.949 . S
C123 C122 1.428 . S
C123 C124 1.345 . S
C124 H116 0.950 . S
C124 C123 1.345 . S
C124 C125 1.424 . S
C125 H117 0.951 . S
C125 C124 1.424 . S
C125 C126 1.347 . S
C126 H118 0.951 . S
C126 C121 1.429 . S
C126 C125 1.347 . S
H127 C128 0.951 . S
C128 H127 0.951 . S
C128 C134 1.265 . S
H129 C134 0.950 . S
H130 C138 0.949 . S
H131 C139 0.950 . S
H132 C140 0.951 . S
H133 C141 0.951 . S
C134 C128 1.265 . S
C134 H129 0.950 . S
C134 C135 1.478 . S
C135 C122 1.394 . S
C135 C134 1.478 . S
C135 C136 1.397 1_554 S
C136 C135 1.397 1_556 S
C136 C137 1.438 . S
C136 C141 1.429 . S
C137 C120 1.394 1_556 S
C137 C136 1.438 . S
C137 C138 1.428 . S
C138 H130 0.949 . S
C138 C137 1.428 . S
C138 C139 1.345 . S
C139 H131 0.950 . S
C139 C138 1.345 . S
C139 C140 1.424 . S
C140 H132 0.951 . S
C140 C139 1.424 . S
C140 C141 1.347 . S
C141 H133 0.951 . S
C141 C136 1.429 . S
C141 C140 1.347 . S
H142 C143 0.951 . S
C143 H142 0.951 . S
C143 C149 1.265 . S
H144 C149 0.950 . S
H145 C153 0.949 . S
H146 C154 0.950 . S
H147 C155 0.951 . S
H148 C156 0.951 . S
C149 C143 1.265 . S
C149 H144 0.950 . S
C149 C150 1.478 . S
C150 C149 1.478 . S
C150 C151 1.397 . S
C150 C167 1.394 1_554 S
C151 C150 1.397 . S
C151 C152 1.438 . S
C151 C156 1.429 . S
C152 C151 1.438 . S
C152 C153 1.428 . S
C152 C165 1.394 . S
C153 H145 0.949 . S
C153 C152 1.428 . S
C153 C154 1.345 . S
C154 H146 0.950 . S
C154 C153 1.345 . S
C154 C155 1.424 . S
C155 H147 0.951 . S
C155 C154 1.424 . S
C155 C156 1.347 . S
C156 H148 0.951 . S
C156 C151 1.429 . S
C156 C155 1.347 . S
H157 C158 0.951 . S
C158 H157 0.951 . S
C158 C164 1.265 . S
H159 C164 0.950 . S
H160 C168 0.949 . S
H161 C169 0.950 . S
H162 C170 0.951 . S
H163 C171 0.951 . S
C164 C158 1.265 . S
C164 H159 0.950 . S
C164 C165 1.478 . S
C165 C152 1.394 . S
C165 C164 1.478 . S
C165 C166 1.397 1_554 S
C166 C165 1.397 1_556 S
C166 C167 1.438 . S
C166 C171 1.429 . S
C167 C150 1.394 1_556 S
C167 C166 1.438 . S
C167 C168 1.428 . S
C168 H160 0.949 . S
C168 C167 1.428 . S
C168 C169 1.345 . S
C169 H161 0.950 . S
C169 C168 1.345 . S
C169 C170 1.424 . S
C170 H162 0.951 . S
C170 C169 1.424 . S
C170 C171 1.347 . S
C171 H163 0.951 . S
C171 C166 1.429 . S
C171 C170 1.347 . S
H172 C173 0.951 . S
C173 H172 0.951 . S
C173 C179 1.265 . S
H174 C179 0.950 . S
H175 C183 0.949 . S
H176 C184 0.950 . S
H177 C185 0.951 . S
H178 C186 0.951 . S
C179 C173 1.265 . S
C179 H174 0.950 . S
C179 C180 1.478 . S
C180 C179 1.478 . S
C180 C181 1.397 . S
C180 C197 1.394 . S
C181 C180 1.397 . S
C181 C182 1.438 . S
C181 C186 1.429 . S
C182 C181 1.438 . S
C182 C183 1.428 . S
C182 C195 1.394 . S
C183 H175 0.949 . S
C183 C182 1.428 . S
C183 C184 1.345 . S
C184 H176 0.950 . S
C184 C183 1.345 . S
C184 C185 1.424 . S
C185 H177 0.951 . S
C185 C184 1.424 . S
C185 C186 1.347 . S
C186 H178 0.951 . S
C186 C181 1.429 . S
C186 C185 1.347 . S
H187 C188 0.951 . S
C188 H187 0.951 . S
C188 C194 1.265 . S
H189 C194 0.950 . S
H190 C198 0.949 . S
H191 C199 0.950 . S
H192 C200 0.951 . S
H193 C201 0.951 . S
C194 C188 1.265 . S
C194 H189 0.950 . S
C194 C195 1.478 . S
C195 C182 1.394 . S
C195 C194 1.478 . S
C195 C196 1.397 . S
C196 C195 1.397 . S
C196 C197 1.438 . S
C196 C201 1.429 . S
C197 C180 1.394 . S
C197 C196 1.438 . S
C197 C198 1.428 . S
C198 H190 0.949 . S
C198 C197 1.428 . S
C198 C199 1.345 . S
C199 H191 0.950 . S
C199 C198 1.345 . S
C199 C200 1.424 . S
C200 H192 0.951 . S
C200 C199 1.424 . S
C200 C201 1.347 . S
C201 H193 0.951 . S
C201 C196 1.429 . S
C201 C200 1.347 . S
H202 C203 0.951 . S
C203 H202 0.951 . S
C203 C209 1.265 . S
H204 C209 0.950 . S
H205 C213 0.949 . S
H206 C214 0.950 . S
H207 C215 0.951 . S
H208 C216 0.951 . S
C209 C203 1.265 . S
C209 H204 0.950 . S
C209 C210 1.478 . S
C210 C209 1.478 . S
C210 C211 1.397 . S
C210 C227 1.394 . S
C211 C210 1.397 . S
C211 C212 1.438 . S
C211 C216 1.429 . S
C212 C211 1.438 . S
C212 C213 1.428 . S
C212 C225 1.394 . S
C213 H205 0.949 . S
C213 C212 1.428 . S
C213 C214 1.345 . S
C214 H206 0.950 . S
C214 C213 1.345 . S
C214 C215 1.424 . S
C215 H207 0.951 . S
C215 C214 1.424 . S
C215 C216 1.347 . S
C216 H208 0.951 . S
C216 C211 1.429 . S
C216 C215 1.347 . S
H217 C218 0.951 . S
C218 H217 0.951 . S
C218 C224 1.265 . S
H219 C224 0.950 . S
H220 C228 0.949 . S
H221 C229 0.950 . S
H222 C230 0.951 . S
H223 C231 0.951 . S
C224 C218 1.265 . S
C224 H219 0.950 . S
C224 C225 1.478 . S
C225 C212 1.394 . S
C225 C224 1.478 . S
C225 C226 1.397 . S
C226 C225 1.397 . S
C226 C227 1.438 . S
C226 C231 1.429 . S
C227 C210 1.394 . S
C227 C226 1.438 . S
C227 C228 1.428 . S
C228 H220 0.949 . S
C228 C227 1.428 . S
C228 C229 1.345 . S
C229 H221 0.950 . S
C229 C228 1.345 . S
C229 C230 1.424 . S
C230 H222 0.951 . S
C230 C229 1.424 . S
C230 C231 1.347 . S
C231 H223 0.951 . S
C231 C226 1.429 . S
C231 C230 1.347 . S
H232 C233 0.951 . S
C233 H232 0.951 . S
C233 C239 1.265 . S
H234 C239 0.950 . S
H235 C243 0.949 . S
H236 C244 0.950 . S
H237 C245 0.951 . S
H238 C246 0.951 . S
C239 C233 1.265 . S
C239 H234 0.950 . S
C239 C240 1.478 . S
C240 C239 1.478 . S
C240 C241 1.397 . S
C240 C257 1.394 . S
C241 C240 1.397 . S
C241 C242 1.438 . S
C241 C246 1.429 . S
C242 C241 1.438 . S
C242 C243 1.428 . S
C242 C255 1.394 . S
C243 H235 0.949 . S
C243 C242 1.428 . S
C243 C244 1.345 . S
C244 H236 0.950 . S
C244 C243 1.345 . S
C244 C245 1.424 . S
C245 H237 0.951 . S
C245 C244 1.424 . S
C245 C246 1.347 . S
C246 H238 0.951 . S
C246 C241 1.429 . S
C246 C245 1.347 . S
H247 C248 0.951 . S
C248 H247 0.951 . S
C248 C254 1.265 . S
H249 C254 0.950 . S
H250 C258 0.949 . S
H251 C259 0.950 . S
H252 C260 0.951 . S
H253 C261 0.951 . S
C254 C248 1.265 . S
C254 H249 0.950 . S
C254 C255 1.478 . S
C255 C242 1.394 . S
C255 C254 1.478 . S
C255 C256 1.397 . S
C256 C255 1.397 . S
C256 C257 1.438 . S
C256 C261 1.429 . S
C257 C240 1.394 . S
C257 C256 1.438 . S
C257 C258 1.428 . S
C258 H250 0.949 . S
C258 C257 1.428 . S
C258 C259 1.345 . S
C259 H251 0.950 . S
C259 C258 1.345 . S
C259 C260 1.424 . S
C260 H252 0.951 . S
C260 C259 1.424 . S
C260 C261 1.347 . S
C261 H253 0.951 . S
C261 C256 1.429 . S
C261 C260 1.347 . S
H262 C263 0.951 . S
C263 H262 0.951 . S
C263 C269 1.265 . S
H264 C269 0.950 . S
H265 C273 0.949 . S
H266 C274 0.950 . S
H267 C275 0.951 . S
H268 C276 0.951 . S
C269 C263 1.265 . S
C269 H264 0.950 . S
C269 C270 1.478 . S
C270 C269 1.478 . S
C270 C271 1.397 . S
C270 C287 1.394 . S
C271 C270 1.397 . S
C271 C272 1.438 . S
C271 C276 1.429 . S
C272 C271 1.438 . S
C272 C273 1.428 . S
C272 C285 1.394 . S
C273 H265 0.949 . S
C273 C272 1.428 . S
C273 C274 1.345 . S
C274 H266 0.950 . S
C274 C273 1.345 . S
C274 C275 1.424 . S
C275 H267 0.951 . S
C275 C274 1.424 . S
C275 C276 1.347 . S
C276 H268 0.951 . S
C276 C271 1.429 . S
C276 C275 1.347 . S
H277 C278 0.951 . S
C278 H277 0.951 . S
C278 C284 1.265 . S
H279 C284 0.950 . S
H280 C288 0.949 . S
H281 C289 0.950 . S
H282 C290 0.951 . S
H283 C291 0.951 . S
C284 C278 1.265 . S
C284 H279 0.950 . S
C284 C285 1.478 . S
C285 C272 1.394 . S
C285 C284 1.478 . S
C285 C286 1.397 . S
C286 C285 1.397 . S
C286 C287 1.438 . S
C286 C291 1.429 . S
C287 C270 1.394 . S
C287 C286 1.438 . S
C287 C288 1.428 . S
C288 H280 0.949 . S
C288 C287 1.428 . S
C288 C289 1.345 . S
C289 H281 0.950 . S
C289 C288 1.345 . S
C289 C290 1.424 . S
C290 H282 0.951 . S
C290 C289 1.424 . S
C290 C291 1.347 . S
C291 H283 0.951 . S
C291 C286 1.429 . S
C291 C290 1.347 . S
H292 C293 0.951 . S
C293 H292 0.951 . S
C293 C299 1.265 . S
H294 C299 0.950 . S
H295 C303 0.949 . S
H296 C304 0.950 . S
H297 C305 0.951 . S
H298 C306 0.951 . S
C299 C293 1.265 . S
C299 H294 0.950 . S
C299 C300 1.478 . S
C300 C299 1.478 . S
C300 C301 1.397 . S
C300 C317 1.394 . S
C301 C300 1.397 . S
C301 C302 1.438 . S
C301 C306 1.429 . S
C302 C301 1.438 . S
C302 C303 1.428 . S
C302 C315 1.394 . S
C303 H295 0.949 . S
C303 C302 1.428 . S
C303 C304 1.345 . S
C304 H296 0.950 . S
C304 C303 1.345 . S
C304 C305 1.424 . S
C305 H297 0.951 . S
C305 C304 1.424 . S
C305 C306 1.347 . S
C306 H298 0.951 . S
C306 C301 1.429 . S
C306 C305 1.347 . S
H307 C308 0.951 . S
C308 H307 0.951 . S
C308 C314 1.265 . S
H309 C314 0.950 . S
H310 C318 0.949 . S
H311 C319 0.950 . S
H312 C320 0.951 . S
H313 C321 0.951 . S
C314 C308 1.265 . S
C314 H309 0.950 . S
C314 C315 1.478 . S
C315 C302 1.394 . S
C315 C314 1.478 . S
C315 C316 1.397 . S
C316 C315 1.397 . S
C316 C317 1.438 . S
C316 C321 1.429 . S
C317 C300 1.394 . S
C317 C316 1.438 . S
C317 C318 1.428 . S
C318 H310 0.949 . S
C318 C317 1.428 . S
C318 C319 1.345 . S
C319 H311 0.950 . S
C319 C318 1.345 . S
C319 C320 1.424 . S
C320 H312 0.951 . S
C320 C319 1.424 . S
C320 C321 1.347 . S
C321 H313 0.951 . S
C321 C316 1.429 . S
C321 C320 1.347 . S
H322 C323 0.951 . S
C323 H322 0.951 . S
C323 C329 1.265 . S
H324 C329 0.950 . S
H325 C333 0.949 . S
H326 C334 0.950 . S
H327 C335 0.951 . S
H328 C336 0.951 . S
C329 C323 1.265 . S
C329 H324 0.950 . S
C329 C330 1.478 . S
C330 C329 1.478 . S
C330 C331 1.397 . S
C330 C347 1.394 . S
C331 C330 1.397 . S
C331 C332 1.438 . S
C331 C336 1.429 . S
C332 C331 1.438 . S
C332 C333 1.428 . S
C332 C345 1.394 . S
C333 H325 0.949 . S
C333 C332 1.428 . S
C333 C334 1.345 . S
C334 H326 0.950 . S
C334 C333 1.345 . S
C334 C335 1.424 . S
C335 H327 0.951 . S
C335 C334 1.424 . S
C335 C336 1.347 . S
C336 H328 0.951 . S
C336 C331 1.429 . S
C336 C335 1.347 . S
H337 C338 0.951 . S
C338 H337 0.951 . S
C338 C344 1.265 . S
H339 C344 0.950 . S
H340 C348 0.949 . S
H341 C349 0.950 . S
H342 C350 0.951 . S
H343 C351 0.951 . S
C344 C338 1.265 . S
C344 H339 0.950 . S
C344 C345 1.478 . S
C345 C332 1.394 . S
C345 C344 1.478 . S
C345 C346 1.397 . S
C346 C345 1.397 . S
C346 C347 1.438 . S
C346 C351 1.429 . S
C347 C330 1.394 . S
C347 C346 1.438 . S
C347 C348 1.428 . S
C348 H340 0.949 . S
C348 C347 1.428 . S
C348 C349 1.345 . S
C349 H341 0.950 . S
C349 C348 1.345 . S
C349 C350 1.424 . S
C350 H342 0.951 . S
C350 C349 1.424 . S
C350 C351 1.347 . S
C351 H343 0.951 . S
C351 C346 1.429 . S
C351 C350 1.347 . S
H352 C353 0.951 . S
C353 H352 0.951 . S
C353 C359 1.265 . S
H354 C359 0.950 . S
H355 C363 0.949 . S
H356 C364 0.950 . S
H357 C365 0.951 . S
H358 C366 0.951 . S
C359 C353 1.265 . S
C359 H354 0.950 . S
C359 C360 1.478 . S
C360 C359 1.478 . S
C360 C361 1.397 1_565 S
C360 C377 1.394 . S
C361 C360 1.397 1_545 S
C361 C362 1.438 . S
C361 C366 1.429 . S
C362 C361 1.438 . S
C362 C363 1.428 . S
C362 C375 1.394 . S
C363 H355 0.949 . S
C363 C362 1.428 . S
C363 C364 1.345 . S
C364 H356 0.950 . S
C364 C363 1.345 . S
C364 C365 1.424 . S
C365 H357 0.951 . S
C365 C364 1.424 . S
C365 C366 1.347 . S
C366 H358 0.951 . S
C366 C361 1.429 . S
C366 C365 1.347 . S
H367 C368 0.951 . S
C368 H367 0.951 . S
C368 C374 1.265 . S
H369 C374 0.950 . S
H370 C378 0.949 . S
H371 C379 0.950 . S
H372 C380 0.951 . S
H373 C381 0.951 . S
C374 C368 1.265 . S
C374 H369 0.950 . S
C374 C375 1.478 . S
C375 C362 1.394 . S
C375 C374 1.478 . S
C375 C376 1.397 1_545 S
C376 C375 1.397 1_565 S
C376 C377 1.438 . S
C376 C381 1.429 . S
C377 C360 1.394 . S
C377 C376 1.438 . S
C377 C378 1.428 . S
C378 H370 0.949 . S
C378 C377 1.428 . S
C378 C379 1.345 . S
C379 H371 0.950 . S
C379 C378 1.345 . S
C379 C380 1.424 . S
C380 H372 0.951 . S
C380 C379 1.424 . S
C380 C381 1.347 . S
C381 H373 0.951 . S
C381 C376 1.429 . S
C381 C380 1.347 . S
H382 C383 0.951 . S
C383 H382 0.951 . S
C383 C389 1.265 . S
H384 C389 0.950 . S
H385 C393 0.949 . S
H386 C394 0.950 . S
H387 C395 0.951 . S
H388 C396 0.951 . S
C389 C383 1.265 . S
C389 H384 0.950 . S
C389 C390 1.478 . S
C390 C389 1.478 . S
C390 C391 1.397 . S
C390 C407 1.394 1_565 S
C391 C390 1.397 . S
C391 C392 1.438 . S
C391 C396 1.429 . S
C392 C391 1.438 . S
C392 C393 1.428 . S
C392 C405 1.394 1_565 S
C393 H385 0.949 . S
C393 C392 1.428 . S
C393 C394 1.345 . S
C394 H386 0.950 . S
C394 C393 1.345 . S
C394 C395 1.424 . S
C395 H387 0.951 . S
C395 C394 1.424 . S
C395 C396 1.347 . S
C396 H388 0.951 . S
C396 C391 1.429 . S
C396 C395 1.347 . S
H397 C398 0.951 . S
C398 H397 0.951 . S
C398 C404 1.265 . S
H399 C404 0.950 . S
H400 C408 0.949 . S
H401 C409 0.950 . S
H402 C410 0.951 . S
H403 C411 0.951 . S
C404 C398 1.265 . S
C404 H399 0.950 . S
C404 C405 1.478 . S
C405 C392 1.394 1_545 S
C405 C404 1.478 . S
C405 C406 1.397 . S
C406 C405 1.397 . S
C406 C407 1.438 . S
C406 C411 1.429 . S
C407 C390 1.394 1_545 S
C407 C406 1.438 . S
C407 C408 1.428 . S
C408 H400 0.949 . S
C408 C407 1.428 . S
C408 C409 1.345 . S
C409 H401 0.950 . S
C409 C408 1.345 . S
C409 C410 1.424 . S
C410 H402 0.951 . S
C410 C409 1.424 . S
C410 C411 1.347 . S
C411 H403 0.951 . S
C411 C406 1.429 . S
C411 C410 1.347 . S
H412 C413 0.951 . S
C413 H412 0.951 . S
C413 C419 1.265 . S
H414 C419 0.950 . S
H415 C423 0.949 . S
H416 C424 0.950 . S
H417 C425 0.951 . S
H418 C426 0.951 . S
C419 C413 1.265 . S
C419 H414 0.950 . S
C419 C420 1.478 . S
C420 C419 1.478 . S
C420 C421 1.397 1_565 S
C420 C437 1.394 . S
C421 C420 1.397 1_545 S
C421 C422 1.438 . S
C421 C426 1.429 . S
C422 C421 1.438 . S
C422 C423 1.428 . S
C422 C435 1.394 . S
C423 H415 0.949 . S
C423 C422 1.428 . S
C423 C424 1.345 . S
C424 H416 0.950 . S
C424 C423 1.345 . S
C424 C425 1.424 . S
C425 H417 0.951 . S
C425 C424 1.424 . S
C425 C426 1.347 . S
C426 H418 0.951 . S
C426 C421 1.429 . S
C426 C425 1.347 . S
H427 C428 0.951 . S
C428 H427 0.951 . S
C428 C434 1.265 . S
H429 C434 0.950 . S
H430 C438 0.949 . S
H431 C439 0.950 . S
H432 C440 0.951 . S
H433 C441 0.951 . S
C434 C428 1.265 . S
C434 H429 0.950 . S
C434 C435 1.478 . S
C435 C422 1.394 . S
C435 C434 1.478 . S
C435 C436 1.397 1_545 S
C436 C435 1.397 1_565 S
C436 C437 1.438 . S
C436 C441 1.429 . S
C437 C420 1.394 . S
C437 C436 1.438 . S
C437 C438 1.428 . S
C438 H430 0.949 . S
C438 C437 1.428 . S
C438 C439 1.345 . S
C439 H431 0.950 . S
C439 C438 1.345 . S
C439 C440 1.424 . S
C440 H432 0.951 . S
C440 C439 1.424 . S
C440 C441 1.347 . S
C441 H433 0.951 . S
C441 C436 1.429 . S
C441 C440 1.347 . S
H442 C443 0.951 . S
C443 H442 0.951 . S
C443 C449 1.265 . S
H444 C449 0.950 . S
H445 C453 0.949 . S
H446 C454 0.950 . S
H447 C455 0.951 . S
H448 C456 0.951 . S
C449 C443 1.265 . S
C449 H444 0.950 . S
C449 C450 1.478 . S
C450 C449 1.478 . S
C450 C451 1.397 1_565 S
C450 C467 1.394 . S
C451 C450 1.397 1_545 S
C451 C452 1.438 . S
C451 C456 1.429 . S
C452 C451 1.438 . S
C452 C453 1.428 . S
C452 C465 1.394 . S
C453 H445 0.949 . S
C453 C452 1.428 . S
C453 C454 1.345 . S
C454 H446 0.950 . S
C454 C453 1.345 . S
C454 C455 1.424 . S
C455 H447 0.951 . S
C455 C454 1.424 . S
C455 C456 1.347 . S
C456 H448 0.951 . S
C456 C451 1.429 . S
C456 C455 1.347 . S
H457 C458 0.951 . S
C458 H457 0.951 . S
C458 C464 1.265 . S
H459 C464 0.950 . S
H460 C468 0.949 . S
H461 C469 0.950 . S
H462 C470 0.951 . S
H463 C471 0.951 . S
C464 C458 1.265 . S
C464 H459 0.950 . S
C464 C465 1.478 . S
C465 C452 1.394 . S
C465 C464 1.478 . S
C465 C466 1.397 1_545 S
C466 C465 1.397 1_565 S
C466 C467 1.438 . S
C466 C471 1.429 . S
C467 C450 1.394 . S
C467 C466 1.438 . S
C467 C468 1.428 . S
C468 H460 0.949 . S
C468 C467 1.428 . S
C468 C469 1.345 . S
C469 H461 0.950 . S
C469 C468 1.345 . S
C469 C470 1.424 . S
C470 H462 0.951 . S
C470 C469 1.424 . S
C470 C471 1.347 . S
C471 H463 0.951 . S
C471 C466 1.429 . S
C471 C470 1.347 . S
H472 C473 0.951 . S
C473 H472 0.951 . S
C473 C479 1.265 . S
H474 C479 0.950 . S
H475 C483 0.949 . S
H476 C484 0.950 1_545 S
H477 C485 0.951 . S
H478 C486 0.951 . S
C479 C473 1.265 . S
C479 H474 0.950 . S
C479 C480 1.478 . S
C480 C479 1.478 . S
C480 C481 1.397 1_554 S
C480 C497 1.394 . S
C481 C480 1.397 1_556 S
C481 C482 1.438 1_565 S
C481 C486 1.429 . S
C482 C481 1.438 1_545 S
C482 C483 1.428 . S
C482 C495 1.394 1_556 S
C483 H475 0.949 . S
C483 C482 1.428 . S
C483 C484 1.345 1_545 S
C484 H476 0.950 1_565 S
C484 C483 1.345 1_565 S
C484 C485 1.424 . S
C485 H477 0.951 . S
C485 C484 1.424 . S
C485 C486 1.347 . S
C486 H478 0.951 . S
C486 C481 1.429 . S
C486 C485 1.347 . S
H487 C488 0.951 . S
C488 H487 0.951 . S
C488 C494 1.265 . S
H489 C494 0.950 . S
H490 C498 0.949 . S
H491 C499 0.950 1_565 S
H492 C500 0.951 . S
H493 C501 0.951 . S
C494 C488 1.265 . S
C494 H489 0.950 . S
C494 C495 1.478 . S
C495 C482 1.394 1_554 S
C495 C494 1.478 . S
C495 C496 1.397 . S
C496 C495 1.397 . S
C496 C497 1.438 1_545 S
C496 C501 1.429 . S
C497 C480 1.394 . S
C497 C496 1.438 1_565 S
C497 C498 1.428 . S
C498 H490 0.949 . S
C498 C497 1.428 . S
C498 C499 1.345 1_565 S
C499 H491 0.950 1_545 S
C499 C498 1.345 1_545 S
C499 C500 1.424 . S
C500 H492 0.951 . S
C500 C499 1.424 . S
C500 C501 1.347 . S
C501 H493 0.951 . S
C501 C496 1.429 . S
C501 C500 1.347 . S
H502 C503 0.951 . S
C503 H502 0.951 . S
C503 C509 1.265 . S
H504 C509 0.950 . S
H505 C513 0.949 . S
H506 C514 0.950 . S
H507 C515 0.951 . S
H508 C516 0.951 1_565 S
C509 C503 1.265 . S
C509 H504 0.950 . S
C509 C510 1.478 . S
C510 C509 1.478 . S
C510 C511 1.397 1_565 S
C510 C527 1.394 . S
C511 C510 1.397 1_545 S
C511 C512 1.438 . S
C511 C516 1.429 . S
C512 C511 1.438 . S
C512 C513 1.428 . S
C512 C525 1.394 . S
C513 H505 0.949 . S
C513 C512 1.428 . S
C513 C514 1.345 . S
C514 H506 0.950 . S
C514 C513 1.345 . S
C514 C515 1.424 . S
C515 H507 0.951 . S
C515 C514 1.424 . S
C515 C516 1.347 . S
C516 H508 0.951 1_545 S
C516 C511 1.429 . S
C516 C515 1.347 . S
H517 C518 0.951 . S
C518 H517 0.951 . S
C518 C524 1.265 . S
H519 C524 0.950 . S
H520 C528 0.949 . S
H521 C529 0.950 . S
H522 C530 0.951 . S
H523 C531 0.951 1_545 S
C524 C518 1.265 . S
C524 H519 0.950 . S
C524 C525 1.478 . S
C525 C512 1.394 . S
C525 C524 1.478 . S
C525 C526 1.397 1_545 S
C526 C525 1.397 1_565 S
C526 C527 1.438 . S
C526 C531 1.429 . S
C527 C510 1.394 . S
C527 C526 1.438 . S
C527 C528 1.428 . S
C528 H520 0.949 . S
C528 C527 1.428 . S
C528 C529 1.345 . S
C529 H521 0.950 . S
C529 C528 1.345 . S
C529 C530 1.424 . S
C530 H522 0.951 . S
C530 C529 1.424 . S
C530 C531 1.347 . S
C531 H523 0.951 1_565 S
C531 C526 1.429 . S
C531 C530 1.347 . S
H532 C533 0.951 . S
C533 H532 0.951 . S
C533 C539 1.254 1_554 S
H534 C539 0.966 . S
H535 C543 0.948 1_654 S
H536 C544 0.950 . S
H537 C545 0.951 . S
H538 C546 0.951 . S
C539 C533 1.254 1_556 S
C539 H534 0.966 . S
C539 C540 1.474 1_556 S
C540 C539 1.474 1_554 S
C540 C541 1.401 . S
C540 C557 1.394 1_455 S
C541 C540 1.401 . S
C541 C542 1.442 . S
C541 C546 1.421 1_554 S
C542 C541 1.442 . S
C542 C543 1.427 1_554 S
C542 C555 1.394 1_455 S
C543 H535 0.948 1_456 S
C543 C542 1.427 1_556 S
C543 C544 1.346 . S
C544 H536 0.950 . S
C544 C543 1.346 . S
C544 C545 1.424 . S
C545 H537 0.951 . S
C545 C544 1.424 . S
C545 C546 1.347 . S
C546 H538 0.951 . S
C546 C541 1.421 1_556 S
C546 C545 1.347 . S
H547 C548 0.951 1_556 S
C548 H547 0.951 1_554 S
C548 C554 1.265 . S
H549 C554 0.950 . S
H550 C558 0.949 1_455 S
H551 C559 0.950 . S
H552 C560 0.951 . S
H553 C561 0.951 . S
C554 C548 1.265 . S
C554 H549 0.950 . S
C554 C555 1.478 . S
C555 C542 1.394 1_655 S
C555 C554 1.478 . S
C555 C556 1.397 . S
C556 C555 1.397 . S
C556 C557 1.438 . S
C556 C561 1.429 . S
C557 C540 1.394 1_655 S
C557 C556 1.438 . S
C557 C558 1.428 . S
C558 H550 0.949 1_655 S
C558 C557 1.428 . S
C558 C559 1.345 . S
C559 H551 0.950 . S
C559 C558 1.345 . S
C559 C560 1.424 . S
C560 H552 0.951 . S
C560 C559 1.424 . S
C560 C561 1.347 . S
C561 H553 0.951 . S
C561 C556 1.429 . S
C561 C560 1.347 . S
H562 C563 0.951 . S
C563 H562 0.951 . S
C563 C569 1.265 . S
H564 C569 0.950 . S
H565 C573 0.949 . S
H566 C574 0.950 . S
H567 C575 0.951 . S
H568 C576 0.951 . S
C569 C563 1.265 . S
C569 H564 0.950 . S
C569 C570 1.478 . S
C570 C569 1.478 . S
C570 C571 1.397 . S
C570 C587 1.394 . S
C571 C570 1.397 . S
C571 C572 1.438 1_455 S
C571 C576 1.429 . S
C572 C571 1.438 1_655 S
C572 C573 1.428 . S
C572 C585 1.394 . S
C573 H565 0.949 . S
C573 C572 1.428 . S
C573 C574 1.345 . S
C574 H566 0.950 . S
C574 C573 1.345 . S
C574 C575 1.424 1_655 S
C575 H567 0.951 . S
C575 C574 1.424 1_455 S
C575 C576 1.347 . S
C576 H568 0.951 . S
C576 C571 1.429 . S
C576 C575 1.347 . S
H577 C578 0.951 . S
C578 H577 0.951 . S
C578 C584 1.265 . S
H579 C584 0.950 . S
H580 C588 0.949 . S
H581 C589 0.950 . S
H582 C590 0.951 . S
H583 C591 0.951 . S
C584 C578 1.265 . S
C584 H579 0.950 . S
C584 C585 1.478 . S
C585 C572 1.394 . S
C585 C584 1.478 . S
C585 C586 1.397 . S
C586 C585 1.397 . S
C586 C587 1.438 1_655 S
C586 C591 1.429 . S
C587 C570 1.394 . S
C587 C586 1.438 1_455 S
C587 C588 1.428 . S
C588 H580 0.949 . S
C588 C587 1.428 . S
C588 C589 1.345 . S
C589 H581 0.950 . S
C589 C588 1.345 . S
C589 C590 1.424 1_455 S
C590 H582 0.951 . S
C590 C589 1.424 1_655 S
C590 C591 1.347 . S
C591 H583 0.951 . S
C591 C586 1.429 . S
C591 C590 1.347 . S
C113 C79 1.500 . S
C128 C9 1.500 . S
C143 C65 1.500 . S
C158 C23 1.500 . S
C173 C107 1.500 . S
C188 C37 1.499 . S
C203 C93 1.440 . S
C218 C51 1.441 . S
C233 C3 1.391 . S
C248 C31 1.403 . S
C263 C17 1.400 . S
C278 C45 1.387 . S
C293 C21 1.404 . S
C308 C49 1.340 . S
C323 C7 1.403 . S
C338 C35 1.339 . S
C353 C59 1.389 . S
C368 C87 1.377 . S
C383 C101 1.373 . S
C398 C73 1.384 . S
C413 C105 1.346 . S
C428 C77 1.408 . S
C443 C63 1.352 . S
C458 C91 1.410 . S
C473 C22 1.478 . S
C488 C8 1.479 . S
C503 C36 1.498 . S
C518 C50 1.496 . S
C533 C64 1.481 . S
C548 C78 1.495 . S
C563 C92 1.498 . S
C578 C106 1.496 . S
