# Generated by pormake.
# Topology dei, (4)-cn, num edge types: 1
# Building blocks:
#     Node 0, Type 0, BuildingBlock: QUQFOY_clean_sbu_1, # of connection points: 4
#     Node 1, Type 0, BuildingBlock: QUQFOY_clean_sbu_1, # of connection points: 4
#     Node 2, Type 0, BuildingBlock: QUQFOY_clean_sbu_1, # of connection points: 4
#     Node 3, Type 0, BuildingBlock: QUQFOY_clean_sbu_1, # of connection points: 4
#     Node 4, Type 0, BuildingBlock: QUQFOY_clean_sbu_1, # of connection points: 4
#     Node 5, Type 0, BuildingBlock: QUQFOY_clean_sbu_1, # of connection points: 4
#     Node 6, Type 0, BuildingBlock: QUQFOY_clean_sbu_1, # of connection points: 4
#     Node 7, Type 0, BuildingBlock: QUQFOY_clean_sbu_1, # of connection points: 4
#     Node 8, Type 0, BuildingBlock: QUQFOY_clean_sbu_1, # of connection points: 4
#     Node 9, Type 0, BuildingBlock: QUQFOY_clean_sbu_1, # of connection points: 4
#     Node 10, Type 0, BuildingBlock: QUQFOY_clean_sbu_1, # of connection points: 4
#     Node 11, Type 0, BuildingBlock: QUQFOY_clean_sbu_1, # of connection points: 4
#     Node 12, Type 0, BuildingBlock: QUQFOY_clean_sbu_1, # of connection points: 4
#     Node 13, Type 0, BuildingBlock: QUQFOY_clean_sbu_1, # of connection points: 4
#     Node 14, Type 0, BuildingBlock: QUQFOY_clean_sbu_1, # of connection points: 4
#     Node 15, Type 0, BuildingBlock: QUQFOY_clean_sbu_1, # of connection points: 4
#     Node 16, Type 0, BuildingBlock: QUQFOY_clean_sbu_1, # of connection points: 4
#     Node 17, Type 0, BuildingBlock: QUQFOY_clean_sbu_1, # of connection points: 4
#     Node 18, Type 0, BuildingBlock: QUQFOY_clean_sbu_1, # of connection points: 4
#     Node 19, Type 0, BuildingBlock: QUQFOY_clean_sbu_1, # of connection points: 4
#     Node 20, Type 0, BuildingBlock: QUQFOY_clean_sbu_1, # of connection points: 4
#     Node 21, Type 0, BuildingBlock: QUQFOY_clean_sbu_1, # of connection points: 4
#     Node 22, Type 0, BuildingBlock: QUQFOY_clean_sbu_1, # of connection points: 4
#     Node 23, Type 0, BuildingBlock: QUQFOY_clean_sbu_1, # of connection points: 4
#     Node 24, Type 0, BuildingBlock: QUQFOY_clean_sbu_1, # of connection points: 4
#     Node 25, Type 0, BuildingBlock: QUQFOY_clean_sbu_1, # of connection points: 4
#     Node 26, Type 0, BuildingBlock: QUQFOY_clean_sbu_1, # of connection points: 4
#     Node 27, Type 0, BuildingBlock: QUQFOY_clean_sbu_1, # of connection points: 4
#     Node 28, Type 0, BuildingBlock: QUQFOY_clean_sbu_1, # of connection points: 4
#     Node 29, Type 0, BuildingBlock: QUQFOY_clean_sbu_1, # of connection points: 4
#     Node 30, Type 0, BuildingBlock: QUQFOY_clean_sbu_1, # of connection points: 4
#     Node 31, Type 0, BuildingBlock: QUQFOY_clean_sbu_1, # of connection points: 4
#     Edge 32, Type (0, 0), BuildingBlock: UVAHIK_clean_linker_0, # of connection points: 2
#     Edge 33, Type (0, 0), BuildingBlock: UVAHIK_clean_linker_0, # of connection points: 2
#     Edge 34, Type (0, 0), BuildingBlock: UVAHIK_clean_linker_0, # of connection points: 2
#     Edge 35, Type (0, 0), BuildingBlock: UVAHIK_clean_linker_0, # of connection points: 2
#     Edge 36, Type (0, 0), BuildingBlock: UVAHIK_clean_linker_0, # of connection points: 2
#     Edge 37, Type (0, 0), BuildingBlock: UVAHIK_clean_linker_0, # of connection points: 2
#     Edge 38, Type (0, 0), BuildingBlock: UVAHIK_clean_linker_0, # of connection points: 2
#     Edge 39, Type (0, 0), BuildingBlock: UVAHIK_clean_linker_0, # of connection points: 2
#     Edge 40, Type (0, 0), BuildingBlock: UVAHIK_clean_linker_0, # of connection points: 2
#     Edge 41, Type (0, 0), BuildingBlock: UVAHIK_clean_linker_0, # of connection points: 2
#     Edge 42, Type (0, 0), BuildingBlock: UVAHIK_clean_linker_0, # of connection points: 2
#     Edge 43, Type (0, 0), BuildingBlock: UVAHIK_clean_linker_0, # of connection points: 2
#     Edge 44, Type (0, 0), BuildingBlock: UVAHIK_clean_linker_0, # of connection points: 2
#     Edge 45, Type (0, 0), BuildingBlock: UVAHIK_clean_linker_0, # of connection points: 2
#     Edge 46, Type (0, 0), BuildingBlock: UVAHIK_clean_linker_0, # of connection points: 2
#     Edge 47, Type (0, 0), BuildingBlock: UVAHIK_clean_linker_0, # of connection points: 2
#     Edge 48, Type (0, 0), BuildingBlock: UVAHIK_clean_linker_0, # of connection points: 2
#     Edge 49, Type (0, 0), BuildingBlock: UVAHIK_clean_linker_0, # of connection points: 2
#     Edge 50, Type (0, 0), BuildingBlock: UVAHIK_clean_linker_0, # of connection points: 2
#     Edge 51, Type (0, 0), BuildingBlock: UVAHIK_clean_linker_0, # of connection points: 2
#     Edge 52, Type (0, 0), BuildingBlock: UVAHIK_clean_linker_0, # of connection points: 2
#     Edge 53, Type (0, 0), BuildingBlock: UVAHIK_clean_linker_0, # of connection points: 2
#     Edge 54, Type (0, 0), BuildingBlock: UVAHIK_clean_linker_0, # of connection points: 2
#     Edge 55, Type (0, 0), BuildingBlock: UVAHIK_clean_linker_0, # of connection points: 2
#     Edge 56, Type (0, 0), BuildingBlock: UVAHIK_clean_linker_0, # of connection points: 2
#     Edge 57, Type (0, 0), BuildingBlock: UVAHIK_clean_linker_0, # of connection points: 2
#     Edge 58, Type (0, 0), BuildingBlock: UVAHIK_clean_linker_0, # of connection points: 2
#     Edge 59, Type (0, 0), BuildingBlock: UVAHIK_clean_linker_0, # of connection points: 2
#     Edge 60, Type (0, 0), BuildingBlock: UVAHIK_clean_linker_0, # of connection points: 2
#     Edge 61, Type (0, 0), BuildingBlock: UVAHIK_clean_linker_0, # of connection points: 2
#     Edge 62, Type (0, 0), BuildingBlock: UVAHIK_clean_linker_0, # of connection points: 2
#     Edge 63, Type (0, 0), BuildingBlock: UVAHIK_clean_linker_0, # of connection points: 2
#     Edge 64, Type (0, 0), BuildingBlock: UVAHIK_clean_linker_0, # of connection points: 2
#     Edge 65, Type (0, 0), BuildingBlock: UVAHIK_clean_linker_0, # of connection points: 2
#     Edge 66, Type (0, 0), BuildingBlock: UVAHIK_clean_linker_0, # of connection points: 2
#     Edge 67, Type (0, 0), BuildingBlock: UVAHIK_clean_linker_0, # of connection points: 2
#     Edge 68, Type (0, 0), BuildingBlock: UVAHIK_clean_linker_0, # of connection points: 2
#     Edge 69, Type (0, 0), BuildingBlock: UVAHIK_clean_linker_0, # of connection points: 2
#     Edge 70, Type (0, 0), BuildingBlock: UVAHIK_clean_linker_0, # of connection points: 2
#     Edge 71, Type (0, 0), BuildingBlock: UVAHIK_clean_linker_0, # of connection points: 2
#     Edge 72, Type (0, 0), BuildingBlock: UVAHIK_clean_linker_0, # of connection points: 2
#     Edge 73, Type (0, 0), BuildingBlock: UVAHIK_clean_linker_0, # of connection points: 2
#     Edge 74, Type (0, 0), BuildingBlock: UVAHIK_clean_linker_0, # of connection points: 2
#     Edge 75, Type (0, 0), BuildingBlock: UVAHIK_clean_linker_0, # of connection points: 2
#     Edge 76, Type (0, 0), BuildingBlock: UVAHIK_clean_linker_0, # of connection points: 2
#     Edge 77, Type (0, 0), BuildingBlock: UVAHIK_clean_linker_0, # of connection points: 2
#     Edge 78, Type (0, 0), BuildingBlock: UVAHIK_clean_linker_0, # of connection points: 2
#     Edge 79, Type (0, 0), BuildingBlock: UVAHIK_clean_linker_0, # of connection points: 2
#     Edge 80, Type (0, 0), BuildingBlock: UVAHIK_clean_linker_0, # of connection points: 2
#     Edge 81, Type (0, 0), BuildingBlock: UVAHIK_clean_linker_0, # of connection points: 2
#     Edge 82, Type (0, 0), BuildingBlock: UVAHIK_clean_linker_0, # of connection points: 2
#     Edge 83, Type (0, 0), BuildingBlock: UVAHIK_clean_linker_0, # of connection points: 2
#     Edge 84, Type (0, 0), BuildingBlock: UVAHIK_clean_linker_0, # of connection points: 2
#     Edge 85, Type (0, 0), BuildingBlock: UVAHIK_clean_linker_0, # of connection points: 2
#     Edge 86, Type (0, 0), BuildingBlock: UVAHIK_clean_linker_0, # of connection points: 2
#     Edge 87, Type (0, 0), BuildingBlock: UVAHIK_clean_linker_0, # of connection points: 2
#     Edge 88, Type (0, 0), BuildingBlock: UVAHIK_clean_linker_0, # of connection points: 2
#     Edge 89, Type (0, 0), BuildingBlock: UVAHIK_clean_linker_0, # of connection points: 2
#     Edge 90, Type (0, 0), BuildingBlock: UVAHIK_clean_linker_0, # of connection points: 2
#     Edge 91, Type (0, 0), BuildingBlock: UVAHIK_clean_linker_0, # of connection points: 2
#     Edge 92, Type (0, 0), BuildingBlock: UVAHIK_clean_linker_0, # of connection points: 2
#     Edge 93, Type (0, 0), BuildingBlock: UVAHIK_clean_linker_0, # of connection points: 2
#     Edge 94, Type (0, 0), BuildingBlock: UVAHIK_clean_linker_0, # of connection points: 2
#     Edge 95, Type (0, 0), BuildingBlock: UVAHIK_clean_linker_0, # of connection points: 2
# Relax obj value: 0.264
# Max RMSD: 0.148
# Mean RMSD: 0.148
data_MOF--net-dei--node1-QUQFOY_clean_sbu_1--edge1-UVAHIK_clean_linker_0
_symmetry_space_group_name_H-M    P1
_symmetry_Int_Tables_number       1
_symmetry_cell_setting            triclinic
loop_
_symmetry_equiv_pos_as_xyz
'x, y, z'
_cell_length_a     74.526341
_cell_length_b     74.459769
_cell_length_c     117.8779
_cell_angle_alpha  89.989131
_cell_angle_beta   89.980948
_cell_angle_gamma 89.958796
loop_
_atom_site_label
_atom_site_type_symbol
_atom_site_fract_x
_atom_site_fract_y
_atom_site_fract_z
_atom_type_partial_charge
O0 O 0.11371 0.62883 0.02967 0.0
Cd1 Cd 0.1413 0.62824 0.02847 0.0
Cd2 Cd 0.13933 0.63808 0.0515 0.0
O3 O 0.11236 0.63464 0.04801 0.0
O4 O 0.14719 0.6122 0.01539 0.0
O5 O 0.15345 0.60524 0.03321 0.0
C6 C 0.15326 0.60067 0.02262 0.0
C7 C 0.14768 0.63051 0.07014 0.0
C8 C 0.10458 0.63131 0.03864 0.0
C9 C 0.15679 0.66404 0.03459 0.0
O10 O 0.15209 0.66027 0.04469 0.0
O11 O 0.1542 0.65283 0.0266 0.0
O12 O 0.1389 0.64492 0.06786 0.0
O13 O 0.15196 0.62016 0.06178 0.0
O14 O 0.60609 0.90255 0.29336 0.0
Cd15 Cd 0.62815 0.88943 0.30007 0.0
Cd16 Cd 0.63685 0.8916 0.27655 0.0
O17 O 0.61213 0.90432 0.27505 0.0
O18 O 0.61944 0.88716 0.316 0.0
O19 O 0.64459 0.90115 0.31177 0.0
C20 C 0.6333 0.89588 0.31938 0.0
C21 C 0.66448 0.90401 0.2714 0.0
C22 C 0.6016 0.90713 0.28337 0.0
C23 C 0.63477 0.85487 0.28661 0.0
O24 O 0.63653 0.864 0.27758 0.0
O25 O 0.63199 0.86263 0.29606 0.0
O26 O 0.65337 0.89816 0.26385 0.0
O27 O 0.65939 0.90378 0.2819 0.0
O28 O 0.40167 0.38731 0.52955 0.0
Cd29 Cd 0.37411 0.38822 0.52816 0.0
Cd30 Cd 0.37554 0.37823 0.55119 0.0
O31 O 0.40262 0.38121 0.54786 0.0
O32 O 0.36861 0.40435 0.51504 0.0
O33 O 0.36209 0.41134 0.53282 0.0
C34 C 0.3625 0.41592 0.52224 0.0
C35 C 0.36704 0.38581 0.5698 0.0
C36 C 0.4106 0.38454 0.53856 0.0
C37 C 0.35813 0.35253 0.53412 0.0
O38 O 0.3626 0.35624 0.54427 0.0
O39 O 0.36104 0.36373 0.52617 0.0
O40 O 0.37563 0.37127 0.56753 0.0
O41 O 0.36304 0.39628 0.56145 0.0
O42 O 0.90747 0.11319 0.79192 0.0
Cd43 Cd 0.88528 0.12636 0.79843 0.0
Cd44 Cd 0.8768 0.12338 0.77479 0.0
O45 O 0.90155 0.11062 0.77363 0.0
O46 O 0.89399 0.12936 0.8143 0.0
O47 O 0.86903 0.11487 0.81033 0.0
C48 C 0.88026 0.12057 0.81784 0.0
C49 C 0.84937 0.11101 0.76921 0.0
C50 C 0.91204 0.1082 0.78201 0.0
C51 C 0.87847 0.16039 0.78444 0.0
O52 O 0.87709 0.15098 0.7755 0.0
O53 O 0.88105 0.15295 0.79402 0.0
O54 O 0.86092 0.11659 0.76184 0.0
O55 O 0.8539 0.11146 0.7798 0.0
O56 O 0.11436 0.38769 0.98216 0.0
Cd57 Cd 0.14196 0.38842 0.98291 0.0
Cd58 Cd 0.13924 0.37846 0.95961 0.0
O59 O 0.11254 0.38224 0.96378 0.0
O60 O 0.14838 0.40507 0.99558 0.0
O61 O 0.15375 0.41118 0.97752 0.0
C62 C 0.154 0.41627 0.98801 0.0
C63 C 0.14547 0.38343 0.94026 0.0
C64 C 0.10501 0.3854 0.97326 0.0
C65 C 0.15751 0.3528 0.97656 0.0
O66 O 0.1525 0.35663 0.96653 0.0
O67 O 0.15505 0.3639 0.98463 0.0
O68 O 0.1369 0.36952 0.94374 0.0
O69 O 0.15074 0.39483 0.94779 0.0
O70 O 0.90682 0.90171 0.2145 0.0
Cd71 Cd 0.88434 0.88851 0.20844 0.0
Cd72 Cd 0.87637 0.89127 0.23204 0.0
O73 O 0.90104 0.90422 0.23283 0.0
O74 O 0.89183 0.88427 0.19244 0.0
O75 O 0.86785 0.90013 0.19672 0.0
C76 C 0.87812 0.89324 0.18905 0.0
C77 C 0.8489 0.90372 0.23752 0.0
C78 C 0.91145 0.90669 0.22441 0.0
C79 C 0.87828 0.85437 0.2226 0.0
O80 O 0.87696 0.86364 0.23161 0.0
O81 O 0.88048 0.862 0.21306 0.0
O82 O 0.8605 0.89842 0.24494 0.0
O83 O 0.85338 0.90292 0.22692 0.0
O84 O 0.40155 0.62879 0.48082 0.0
Cd85 Cd 0.37396 0.62811 0.48187 0.0
Cd86 Cd 0.37618 0.63778 0.45851 0.0
O87 O 0.40298 0.63398 0.4624 0.0
O88 O 0.3678 0.61153 0.49464 0.0
O89 O 0.36205 0.60531 0.47664 0.0
C90 C 0.36202 0.60028 0.48715 0.0
C91 C 0.36941 0.63259 0.43927 0.0
C92 C 0.41071 0.63093 0.47182 0.0
C93 C 0.35833 0.66369 0.47549 0.0
O94 O 0.36317 0.65972 0.46545 0.0
O95 O 0.3609 0.65267 0.4836 0.0
O96 O 0.3781 0.64652 0.44258 0.0
O97 O 0.36433 0.62128 0.44692 0.0
O98 O 0.60644 0.11268 0.71334 0.0
Cd99 Cd 0.6284 0.1261 0.70676 0.0
Cd100 Cd 0.63724 0.12463 0.72989 0.0
O101 O 0.61273 0.1116 0.73164 0.0
O102 O 0.62159 0.12651 0.6904 0.0
O103 O 0.64666 0.11404 0.69642 0.0
C104 C 0.6362 0.11811 0.68808 0.0
C105 C 0.66502 0.11258 0.73508 0.0
C106 C 0.60214 0.10834 0.72342 0.0
C107 C 0.6339 0.16118 0.71963 0.0
O108 O 0.63639 0.15221 0.72866 0.0
O109 O 0.63097 0.15321 0.71027 0.0
O110 O 0.6539 0.11852 0.74261 0.0
O111 O 0.6599 0.11258 0.72459 0.0
O112 O 0.90226 0.3888 0.9821 0.0
Cd113 Cd 0.87463 0.38942 0.98235 0.0
Cd114 Cd 0.87797 0.38041 0.95894 0.0
O115 O 0.90435 0.38472 0.96361 0.0
O116 O 0.86744 0.40576 0.99502 0.0
O117 O 0.86307 0.41228 0.9769 0.0
C118 C 0.86224 0.41714 0.98743 0.0
C119 C 0.87316 0.38631 0.93952 0.0
C120 C 0.91173 0.38727 0.97319 0.0
C121 C 0.85969 0.35379 0.97518 0.0
O122 O 0.86507 0.35791 0.96526 0.0
O123 O 0.86161 0.36476 0.98338 0.0
O124 O 0.88227 0.37272 0.94298 0.0
O125 O 0.86617 0.39661 0.94713 0.0
O126 O 0.37831 0.15177 0.73061 0.0
Cd127 Cd 0.37749 0.1242 0.73183 0.0
Cd128 Cd 0.38611 0.12575 0.70828 0.0
O129 O 0.38318 0.15271 0.71214 0.0
O130 O 0.36136 0.11814 0.74483 0.0
O131 O 0.35453 0.11229 0.72692 0.0
C132 C 0.34988 0.11228 0.7375 0.0
C133 C 0.3806 0.11927 0.68902 0.0
C134 C 0.38048 0.1607 0.72153 0.0
C135 C 0.41237 0.10775 0.72498 0.0
O136 O 0.40786 0.1121 0.71495 0.0
O137 O 0.40202 0.11111 0.73331 0.0
O138 O 0.39475 0.12758 0.69233 0.0
O139 O 0.36923 0.11441 0.69668 0.0
O140 O 0.61322 0.62841 0.48 0.0
Cd141 Cd 0.64079 0.62773 0.481 0.0
Cd142 Cd 0.63857 0.63658 0.45773 0.0
O143 O 0.61165 0.63337 0.46156 0.0
O144 O 0.64704 0.61134 0.49385 0.0
O145 O 0.65271 0.60487 0.47587 0.0
C146 C 0.6528 0.59998 0.48641 0.0
C147 C 0.64623 0.62919 0.43893 0.0
C148 C 0.60399 0.63052 0.47103 0.0
C149 C 0.65648 0.66304 0.47427 0.0
O150 O 0.65177 0.65874 0.46426 0.0
O151 O 0.65373 0.65236 0.48252 0.0
O152 O 0.63757 0.6436 0.4414 0.0
O153 O 0.65073 0.6187 0.44717 0.0
O154 O 0.13559 0.86404 0.23048 0.0
Cd155 Cd 0.13639 0.89162 0.23158 0.0
Cd156 Cd 0.12783 0.8899 0.20811 0.0
O157 O 0.13084 0.86296 0.21201 0.0
O158 O 0.15306 0.89793 0.24425 0.0
O159 O 0.15905 0.90351 0.22619 0.0
C160 C 0.16419 0.90368 0.23667 0.0
C161 C 0.13337 0.89643 0.18887 0.0
C162 C 0.1335 0.85504 0.22142 0.0
C163 C 0.10148 0.90792 0.22478 0.0
O164 O 0.106 0.90346 0.21477 0.0
O165 O 0.11187 0.90472 0.23312 0.0
O166 O 0.11924 0.88806 0.19215 0.0
O167 O 0.14471 0.9013 0.19653 0.0
O168 O 0.90213 0.62906 0.02997 0.0
Cd169 Cd 0.87453 0.62866 0.02878 0.0
Cd170 Cd 0.87664 0.6383 0.05187 0.0
O171 O 0.90357 0.63462 0.04834 0.0
O172 O 0.86862 0.61281 0.01561 0.0
O173 O 0.86228 0.60565 0.03339 0.0
C174 C 0.8625 0.60121 0.02278 0.0
C175 C 0.86819 0.63075 0.0705 0.0
C176 C 0.9113 0.63136 0.03894 0.0
C177 C 0.85939 0.66458 0.03505 0.0
O178 O 0.86411 0.66067 0.04512 0.0
O179 O 0.86181 0.65339 0.02702 0.0
O180 O 0.87713 0.64507 0.06824 0.0
O181 O 0.86384 0.62047 0.06213 0.0
O182 O 0.13695 0.15164 0.77675 0.0
Cd183 Cd 0.13744 0.12403 0.77596 0.0
Cd184 Cd 0.12855 0.12659 0.79942 0.0
O185 O 0.13232 0.15332 0.79522 0.0
O186 O 0.1541 0.11729 0.76336 0.0
O187 O 0.16001 0.1121 0.78148 0.0
C188 C 0.16519 0.11168 0.77101 0.0
C189 C 0.13377 0.12049 0.81876 0.0
C190 C 0.13512 0.16092 0.78572 0.0
C191 C 0.10221 0.10848 0.78278 0.0
O192 O 0.10658 0.11327 0.79276 0.0
O193 O 0.1128 0.11117 0.77448 0.0
O194 O 0.11985 0.1291 0.81533 0.0
O195 O 0.14505 0.11511 0.81118 0.0
O196 O 0.61306 0.38752 0.52969 0.0
Cd197 Cd 0.64063 0.3884 0.52834 0.0
Cd198 Cd 0.63911 0.37897 0.55144 0.0
O199 O 0.61204 0.38192 0.54806 0.0
O200 O 0.64623 0.40436 0.51516 0.0
O201 O 0.65259 0.41157 0.53292 0.0
C202 C 0.65226 0.41601 0.52231 0.0
C203 C 0.64756 0.38681 0.57001 0.0
C204 C 0.60409 0.385 0.53872 0.0
C205 C 0.65657 0.35284 0.53464 0.0
O206 O 0.65203 0.35681 0.54473 0.0
O207 O 0.65373 0.36386 0.52657 0.0
O208 O 0.63893 0.37228 0.56782 0.0
O209 O 0.65161 0.39714 0.5616 0.0
O210 O 0.37654 0.86322 0.27659 0.0
Cd211 Cd 0.3761 0.89084 0.27596 0.0
Cd212 Cd 0.38436 0.88796 0.29963 0.0
O213 O 0.37996 0.86146 0.29515 0.0
O214 O 0.36021 0.89778 0.26303 0.0
O215 O 0.35319 0.90271 0.28101 0.0
C216 C 0.34867 0.90331 0.27042 0.0
C217 C 0.37955 0.8934 0.31913 0.0
C218 C 0.3777 0.8539 0.28559 0.0
C219 C 0.41134 0.90589 0.2833 0.0
O220 O 0.40678 0.90084 0.2932 0.0
O221 O 0.40082 0.90363 0.27492 0.0
O222 O 0.39285 0.88409 0.31547 0.0
O223 O 0.36867 0.89992 0.31168 0.0
O224 O 0.61317 0.12957 0.5288 0.0
Cd225 Cd 0.64077 0.1287 0.52789 0.0
Cd226 Cd 0.63853 0.13808 0.55085 0.0
O227 O 0.61157 0.13503 0.54718 0.0
O228 O 0.64705 0.11198 0.51521 0.0
O229 O 0.6526 0.10593 0.53326 0.0
C230 C 0.65277 0.1008 0.52278 0.0
C231 C 0.64661 0.13021 0.56949 0.0
C232 C 0.60391 0.132 0.53773 0.0
C233 C 0.65643 0.16424 0.53424 0.0
O234 O 0.65156 0.16029 0.54428 0.0
O235 O 0.65388 0.15321 0.52615 0.0
O236 O 0.63793 0.1447 0.56724 0.0
O237 O 0.65089 0.11992 0.5611 0.0
O238 O 0.10673 0.40154 0.79331 0.0
Cd239 Cd 0.1289 0.38846 0.79989 0.0
Cd240 Cd 0.13752 0.3912 0.77625 0.0
O241 O 0.11274 0.40392 0.77501 0.0
O242 O 0.12024 0.38578 0.8158 0.0
O243 O 0.14526 0.40005 0.81168 0.0
C244 C 0.13403 0.39454 0.81924 0.0
C245 C 0.16493 0.40347 0.77047 0.0
C246 C 0.10219 0.4064 0.78337 0.0
C247 C 0.13558 0.35425 0.78608 0.0
O248 O 0.13718 0.36359 0.77712 0.0
O249 O 0.1329 0.36178 0.79562 0.0
O250 O 0.15333 0.39775 0.76318 0.0
O251 O 0.16048 0.40322 0.78108 0.0
O252 O 0.90267 0.88863 0.02625 0.0
Cd253 Cd 0.87504 0.88914 0.02574 0.0
Cd254 Cd 0.87807 0.88035 0.04915 0.0
O255 O 0.90454 0.88496 0.04479 0.0
O256 O 0.86802 0.9057 0.01314 0.0
O257 O 0.86327 0.91181 0.03128 0.0
C258 C 0.86261 0.91689 0.02079 0.0
C259 C 0.87213 0.88538 0.06856 0.0
C260 C 0.91204 0.88737 0.03522 0.0
C261 C 0.86026 0.85354 0.03274 0.0
O262 O 0.86555 0.8578 0.04264 0.0
O263 O 0.86215 0.86445 0.0245 0.0
O264 O 0.88163 0.87209 0.06506 0.0
O265 O 0.86571 0.89611 0.06099 0.0
O266 O 0.40736 0.61264 0.29255 0.0
Cd267 Cd 0.38527 0.626 0.29903 0.0
Cd268 Cd 0.37701 0.6236 0.27538 0.0
O269 O 0.40168 0.61064 0.27421 0.0
O270 O 0.39393 0.62864 0.31494 0.0
O271 O 0.36875 0.61465 0.31085 0.0
C272 C 0.38003 0.62006 0.3184 0.0
C273 C 0.34946 0.61154 0.26975 0.0
C274 C 0.41203 0.60789 0.28262 0.0
C275 C 0.37924 0.66041 0.28527 0.0
O276 O 0.37764 0.6512 0.27626 0.0
O277 O 0.38168 0.65273 0.29479 0.0
O278 O 0.36104 0.61711 0.26239 0.0
O279 O 0.35401 0.61183 0.28034 0.0
O280 O 0.61424 0.88747 0.48251 0.0
Cd281 Cd 0.64182 0.8883 0.4833 0.0
Cd282 Cd 0.63928 0.87978 0.4597 0.0
O283 O 0.61254 0.88307 0.46402 0.0
O284 O 0.64827 0.90436 0.49625 0.0
O285 O 0.65343 0.91138 0.47829 0.0
C286 C 0.65375 0.91596 0.48888 0.0
C287 C 0.64513 0.88507 0.44033 0.0
C288 C 0.60495 0.8856 0.47355 0.0
C289 C 0.6577 0.85328 0.47612 0.0
O290 O 0.65287 0.85784 0.46619 0.0
O291 O 0.65491 0.86369 0.48451 0.0
O292 O 0.6367 0.87108 0.4438 0.0
O293 O 0.65042 0.89643 0.44788 0.0
O294 O 0.40746 0.4026 0.71352 0.0
Cd295 Cd 0.38535 0.38918 0.70716 0.0
Cd296 Cd 0.3769 0.39106 0.73035 0.0
O297 O 0.40143 0.40415 0.73184 0.0
O298 O 0.39203 0.38845 0.69077 0.0
O299 O 0.36709 0.40119 0.6968 0.0
C300 C 0.37746 0.39694 0.68845 0.0
C301 C 0.3491 0.40305 0.7356 0.0
C302 C 0.41191 0.40716 0.72353 0.0
C303 C 0.38004 0.35433 0.72032 0.0
O304 O 0.3778 0.36346 0.72932 0.0
O305 O 0.38272 0.36214 0.71087 0.0
O306 O 0.36036 0.39732 0.74311 0.0
O307 O 0.35411 0.4029 0.72509 0.0
O308 O 0.90177 0.13008 0.98036 0.0
Cd309 Cd 0.87416 0.12934 0.98132 0.0
Cd310 Cd 0.87658 0.139 0.95798 0.0
O311 O 0.90337 0.13541 0.96197 0.0
O312 O 0.868 0.11321 0.99431 0.0
O313 O 0.8623 0.10631 0.97641 0.0
C314 C 0.86223 0.10169 0.98699 0.0
C315 C 0.86995 0.13362 0.93874 0.0
C316 C 0.91101 0.13235 0.97142 0.0
C317 C 0.85858 0.16494 0.97484 0.0
O318 O 0.86347 0.16096 0.96481 0.0
O319 O 0.86111 0.15393 0.98295 0.0
O320 O 0.87857 0.14761 0.94202 0.0
O321 O 0.86488 0.12235 0.94641 0.0
O322 O 0.10654 0.61322 0.21376 0.0
Cd323 Cd 0.12871 0.62658 0.20743 0.0
Cd324 Cd 0.13706 0.62468 0.2306 0.0
O325 O 0.11251 0.61161 0.23208 0.0
O326 O 0.12213 0.62732 0.19104 0.0
O327 O 0.14703 0.61456 0.19711 0.0
C328 C 0.13671 0.61883 0.18875 0.0
C329 C 0.16488 0.61263 0.23573 0.0
C330 C 0.10204 0.60864 0.22376 0.0
C331 C 0.134 0.66142 0.2206 0.0
O332 O 0.13618 0.65229 0.2296 0.0
O333 O 0.13136 0.65362 0.21114 0.0
O334 O 0.15368 0.61831 0.2433 0.0
O335 O 0.1598 0.61285 0.22524 0.0
O336 O 0.40214 0.88723 0.48214 0.0
Cd337 Cd 0.37451 0.88799 0.48227 0.0
Cd338 Cd 0.37789 0.87876 0.45906 0.0
O339 O 0.40431 0.88283 0.4637 0.0
O340 O 0.36722 0.90469 0.49472 0.0
O341 O 0.36313 0.91073 0.47651 0.0
C342 C 0.36217 0.91588 0.48697 0.0
C343 C 0.37293 0.88503 0.43971 0.0
C344 C 0.41167 0.88548 0.47328 0.0
C345 C 0.35942 0.85236 0.47529 0.0
O346 O 0.36485 0.85633 0.46536 0.0
O347 O 0.36138 0.86341 0.48344 0.0
O348 O 0.38197 0.87131 0.44303 0.0
O349 O 0.36609 0.89525 0.44742 0.0
O350 O 0.87751 0.65155 0.23055 0.0
Cd351 Cd 0.87678 0.62394 0.23142 0.0
Cd352 Cd 0.88495 0.62636 0.20807 0.0
O353 O 0.8819 0.65327 0.21206 0.0
O354 O 0.86097 0.61756 0.24451 0.0
O355 O 0.85368 0.61217 0.22662 0.0
C356 C 0.84928 0.61194 0.23724 0.0
C357 C 0.87727 0.61898 0.18927 0.0
C358 C 0.87939 0.66086 0.22159 0.0
C359 C 0.91187 0.60827 0.22422 0.0
O360 O 0.90727 0.61308 0.21428 0.0
O361 O 0.90143 0.61094 0.2326 0.0
O362 O 0.89168 0.62763 0.19171 0.0
O363 O 0.86692 0.61437 0.19755 0.0
O364 O 0.11354 0.12968 0.98098 0.0
Cd365 Cd 0.14113 0.12884 0.98198 0.0
Cd366 Cd 0.13907 0.139 0.95879 0.0
O367 O 0.11221 0.13563 0.96265 0.0
O368 O 0.14734 0.11193 0.99456 0.0
O369 O 0.15307 0.1062 0.97649 0.0
C370 C 0.15316 0.1009 0.98695 0.0
C371 C 0.14578 0.13369 0.93955 0.0
C372 C 0.10442 0.13232 0.97202 0.0
C373 C 0.15706 0.16442 0.97593 0.0
O374 O 0.15236 0.16068 0.96583 0.0
O375 O 0.15425 0.15329 0.98394 0.0
O376 O 0.13734 0.14779 0.94286 0.0
O377 O 0.15068 0.1223 0.94719 0.0
O378 O 0.6362 0.36375 0.72898 0.0
Cd379 Cd 0.63697 0.39132 0.73032 0.0
Cd380 Cd 0.62872 0.39001 0.70705 0.0
O381 O 0.63136 0.36288 0.71052 0.0
O382 O 0.65291 0.3972 0.74344 0.0
O383 O 0.65999 0.40335 0.72562 0.0
C384 C 0.66449 0.4032 0.73622 0.0
C385 C 0.63677 0.39815 0.68844 0.0
C386 C 0.63402 0.35485 0.71989 0.0
C387 C 0.60194 0.40753 0.72349 0.0
O388 O 0.60652 0.40324 0.71345 0.0
O389 O 0.61236 0.40431 0.7318 0.0
O390 O 0.62219 0.38963 0.69065 0.0
O391 O 0.64706 0.40223 0.69686 0.0
O392 O 0.40154 0.12956 0.52707 0.0
Cd393 Cd 0.37396 0.1287 0.52584 0.0
Cd394 Cd 0.37561 0.13821 0.54921 0.0
O395 O 0.40252 0.13493 0.54547 0.0
O396 O 0.36812 0.11247 0.51285 0.0
O397 O 0.36206 0.10567 0.53072 0.0
C398 C 0.36221 0.10098 0.52015 0.0
C399 C 0.36873 0.13272 0.56841 0.0
C400 C 0.41048 0.13192 0.53612 0.0
C401 C 0.35786 0.1641 0.53223 0.0
O402 O 0.36241 0.16007 0.54231 0.0
O403 O 0.36083 0.15321 0.52411 0.0
O404 O 0.37723 0.14682 0.56518 0.0
O405 O 0.36388 0.12142 0.5607 0.0
O406 O 0.63711 0.65216 0.27874 0.0
Cd407 Cd 0.63762 0.62455 0.27782 0.0
Cd408 Cd 0.62885 0.62698 0.30106 0.0
O409 O 0.63226 0.65388 0.29718 0.0
O410 O 0.65401 0.61807 0.26502 0.0
O411 O 0.66034 0.61252 0.28304 0.0
C412 C 0.66528 0.6123 0.27251 0.0
C413 C 0.63624 0.61935 0.31987 0.0
C414 C 0.63511 0.66147 0.28768 0.0
C415 C 0.60225 0.60914 0.2846 0.0
O416 O 0.6066 0.61391 0.29459 0.0
O417 O 0.61294 0.61174 0.27634 0.0
O418 O 0.62191 0.62812 0.3174 0.0
O419 O 0.64666 0.61473 0.31162 0.0
O420 O 0.11465 0.88737 0.02616 0.0
Cd421 Cd 0.14226 0.88808 0.02542 0.0
Cd422 Cd 0.13955 0.87884 0.04881 0.0
O423 O 0.11287 0.88266 0.04462 0.0
O424 O 0.14876 0.90428 0.01255 0.0
O425 O 0.15395 0.91106 0.03054 0.0
C426 C 0.15429 0.91577 0.01997 0.0
C427 C 0.14576 0.88413 0.06812 0.0
C428 C 0.10533 0.88546 0.03511 0.0
C429 C 0.15773 0.85262 0.03218 0.0
O430 O 0.15269 0.85675 0.04215 0.0
O431 O 0.15534 0.8635 0.02398 0.0
O432 O 0.13708 0.87024 0.06474 0.0
O433 O 0.15115 0.89535 0.06051 0.0
O434 O 0.8763 0.36305 0.77605 0.0
Cd435 Cd 0.87622 0.39068 0.77569 0.0
Cd436 Cd 0.88433 0.38708 0.79929 0.0
O437 O 0.8792 0.36078 0.79462 0.0
O438 O 0.85992 0.39814 0.76308 0.0
O439 O 0.85365 0.40259 0.78123 0.0
C440 C 0.84869 0.40348 0.77072 0.0
C441 C 0.87954 0.3925 0.81879 0.0
C442 C 0.87699 0.3535 0.78497 0.0
C443 C 0.91168 0.40495 0.78312 0.0
O444 O 0.90704 0.39958 0.79294 0.0
O445 O 0.90108 0.40322 0.77472 0.0
O446 O 0.8926 0.38284 0.81514 0.0
O447 O 0.86888 0.39934 0.81132 0.0
C448 C 0.15919 0.6122 0.17337 0.0
C449 C 0.1413 0.61465 0.17683 0.0
C450 C 0.16336 0.61016 0.16183 0.0
C451 C 0.14389 0.59889 0.13387 0.0
H452 H 0.17731 0.63384 0.12169 0.0
C453 C 0.15503 0.60821 0.08549 0.0
C454 C 0.15212 0.62604 0.08204 0.0
C455 C 0.15726 0.60409 0.09702 0.0
C456 C 0.16811 0.62385 0.12498 0.0
H457 H 0.11372 0.61597 0.17102 0.0
H458 H 0.12095 0.61206 0.15103 0.0
H459 H 0.17416 0.63055 0.14225 0.0
H460 H 0.15016 0.65361 0.08785 0.0
H461 H 0.15438 0.64649 0.10783 0.0
H462 H 0.13732 0.5927 0.11661 0.0
C463 C 0.13176 0.61182 0.15717 0.0
C464 C 0.1664 0.62188 0.13674 0.0
C465 C 0.12765 0.61419 0.16862 0.0
C466 C 0.15231 0.63973 0.09025 0.0
C467 C 0.15486 0.63567 0.10169 0.0
C468 C 0.14578 0.6007 0.12212 0.0
C469 C 0.14967 0.61012 0.15362 0.0
C470 C 0.15385 0.6098 0.1413 0.0
C471 C 0.15701 0.61779 0.10524 0.0
C472 C 0.15747 0.61361 0.11756 0.0
H473 H 0.16998 0.61255 0.17952 0.0
H474 H 0.17728 0.60885 0.15932 0.0
H475 H 0.13419 0.5894 0.13716 0.0
H476 H 0.1549 0.59739 0.07935 0.0
H477 H 0.15892 0.5902 0.09953 0.0
C478 C 0.65054 0.90503 0.42339 0.0
C479 C 0.64804 0.88782 0.42803 0.0
C480 C 0.651 0.90741 0.41157 0.0
C481 C 0.63482 0.88454 0.38571 0.0
H482 H 0.66392 0.91921 0.36949 0.0
C483 C 0.62124 0.89812 0.33899 0.0
C484 C 0.63603 0.89907 0.33164 0.0
C485 C 0.6236 0.899 0.35071 0.0
C486 C 0.65579 0.9094 0.3739 0.0
H487 H 0.64545 0.85953 0.42402 0.0
H488 H 0.64682 0.86356 0.40362 0.0
H489 H 0.66755 0.91573 0.39006 0.0
H490 H 0.66485 0.90254 0.33076 0.0
H491 H 0.6691 0.90356 0.3514 0.0
H492 H 0.62339 0.87774 0.36972 0.0
C493 C 0.64776 0.87534 0.40898 0.0
C494 C 0.65774 0.90753 0.38569 0.0
C495 C 0.64707 0.873 0.4207 0.0
C496 C 0.65321 0.90176 0.33625 0.0
C497 C 0.65562 0.9024 0.34806 0.0
C498 C 0.63293 0.88635 0.37402 0.0
C499 C 0.64912 0.8926 0.40423 0.0
C500 C 0.64731 0.89499 0.39173 0.0
C501 C 0.64085 0.90052 0.35543 0.0
C502 C 0.64328 0.89885 0.36793 0.0
H503 H 0.65134 0.91669 0.42886 0.0
H504 H 0.65203 0.92091 0.40821 0.0
H505 H 0.62631 0.87497 0.39006 0.0
H506 H 0.60779 0.89636 0.3357 0.0
H507 H 0.61185 0.89806 0.35609 0.0
C508 C 0.38665 0.40154 0.66834 0.0
C509 C 0.37295 0.40115 0.67652 0.0
C510 C 0.3826 0.40398 0.65688 0.0
C511 C 0.34796 0.39431 0.63638 0.0
H512 H 0.37744 0.42329 0.61635 0.0
C513 C 0.36208 0.37654 0.58988 0.0
C514 C 0.36253 0.39027 0.5817 0.0
C515 C 0.35949 0.38058 0.60132 0.0
C516 C 0.36887 0.41535 0.62183 0.0
H517 H 0.34427 0.40344 0.67917 0.0
H518 H 0.3371 0.40726 0.65896 0.0
H519 H 0.3805 0.42645 0.63691 0.0
H520 H 0.36017 0.41897 0.57905 0.0
H521 H 0.35606 0.42611 0.59924 0.0
H522 H 0.337 0.38255 0.6213 0.0
C523 C 0.351 0.40585 0.6615 0.0
C524 C 0.37072 0.41708 0.63359 0.0
C525 C 0.35509 0.40373 0.67304 0.0
C526 C 0.35983 0.40812 0.58517 0.0
C527 C 0.35755 0.41221 0.5967 0.0
C528 C 0.34629 0.39242 0.62462 0.0
C529 C 0.36473 0.40582 0.6533 0.0
C530 C 0.36062 0.40624 0.64098 0.0
C531 C 0.35755 0.39846 0.6049 0.0
C532 C 0.35707 0.40259 0.61723 0.0
H533 H 0.40054 0.39966 0.67076 0.0
H534 H 0.39345 0.40368 0.65077 0.0
H535 H 0.34009 0.3857 0.64186 0.0
H536 H 0.36405 0.36265 0.58746 0.0
H537 H 0.35976 0.36972 0.60744 0.0
C538 C 0.86425 0.11343 0.92197 0.0
C539 C 0.86666 0.13072 0.9265 0.0
C540 C 0.86356 0.11089 0.91017 0.0
C541 C 0.87896 0.13367 0.88407 0.0
H542 H 0.85033 0.09814 0.86828 0.0
C543 C 0.89244 0.11918 0.83745 0.0
C544 C 0.87764 0.11775 0.83015 0.0
C545 C 0.89017 0.11861 0.84918 0.0
C546 C 0.85832 0.1082 0.87257 0.0
H547 H 0.8688 0.15899 0.92233 0.0
H548 H 0.86698 0.1547 0.90196 0.0
H549 H 0.84686 0.10197 0.88883 0.0
H550 H 0.84888 0.11375 0.82939 0.0
H551 H 0.84476 0.11325 0.85005 0.0
H552 H 0.8901 0.14034 0.86797 0.0
C553 C 0.86632 0.14298 0.90739 0.0
C554 C 0.85646 0.11027 0.88435 0.0
C555 C 0.86725 0.14547 0.91909 0.0
C556 C 0.86053 0.1149 0.83483 0.0
C557 C 0.8582 0.11455 0.84665 0.0
C558 C 0.88076 0.13166 0.87238 0.0
C559 C 0.86509 0.12564 0.90274 0.0
C560 C 0.86674 0.12311 0.89024 0.0
C561 C 0.87297 0.1169 0.85396 0.0
C562 C 0.87059 0.11884 0.86646 0.0
H563 H 0.86375 0.10182 0.9275 0.0
H564 H 0.86264 0.09735 0.90689 0.0
H565 H 0.88736 0.14346 0.8883 0.0
H566 H 0.90585 0.12108 0.8341 0.0
H567 H 0.90192 0.1199 0.85451 0.0
C568 C 0.15107 0.40326 0.9233 0.0
C569 C 0.14847 0.38609 0.92796 0.0
C570 C 0.15157 0.40561 0.91148 0.0
C571 C 0.13547 0.38267 0.8856 0.0
H572 H 0.1645 0.41747 0.86944 0.0
C573 C 0.12194 0.3964 0.83887 0.0
C574 C 0.13673 0.39755 0.83153 0.0
C575 C 0.12427 0.39716 0.85059 0.0
C576 C 0.15639 0.40761 0.87383 0.0
H577 H 0.14578 0.35779 0.92399 0.0
H578 H 0.14726 0.36175 0.90358 0.0
H579 H 0.1681 0.41395 0.89 0.0
H580 H 0.16553 0.40125 0.83069 0.0
H581 H 0.16974 0.40206 0.85133 0.0
H582 H 0.1241 0.37588 0.86959 0.0
C583 C 0.14821 0.37354 0.90893 0.0
C584 C 0.15833 0.40572 0.88562 0.0
C585 C 0.14747 0.37124 0.92065 0.0
C586 C 0.15389 0.40031 0.83616 0.0
C587 C 0.15627 0.40084 0.84797 0.0
C588 C 0.1336 0.3845 0.8739 0.0
C589 C 0.14966 0.39079 0.90415 0.0
C590 C 0.14791 0.39315 0.89164 0.0
C591 C 0.14151 0.39877 0.85533 0.0
C592 C 0.14393 0.39705 0.86784 0.0
H593 H 0.15188 0.41495 0.92875 0.0
H594 H 0.15266 0.41909 0.9081 0.0
H595 H 0.12696 0.37309 0.88993 0.0
H596 H 0.10851 0.39458 0.83556 0.0
H597 H 0.11253 0.39609 0.85596 0.0
C598 C 0.87613 0.87538 0.08857 0.0
C599 C 0.86899 0.88791 0.08088 0.0
C600 C 0.87358 0.8774 0.1002 0.0
C601 C 0.86401 0.91045 0.1225 0.0
H602 H 0.85746 0.8672 0.14038 0.0
C603 C 0.86148 0.90688 0.17248 0.0
C604 C 0.87419 0.89465 0.17677 0.0
C605 C 0.85789 0.9076 0.16078 0.0
C606 C 0.85916 0.87941 0.1355 0.0
H607 H 0.85358 0.9125 0.07943 0.0
H608 H 0.84903 0.91604 0.09996 0.0
H609 H 0.85596 0.86556 0.11977 0.0
H610 H 0.89305 0.87364 0.17216 0.0
H611 H 0.88654 0.87469 0.15199 0.0
H612 H 0.86753 0.92416 0.13841 0.0
C613 C 0.85667 0.90466 0.09688 0.0
C614 C 0.85839 0.87848 0.12369 0.0
C615 C 0.85921 0.90261 0.08514 0.0
C616 C 0.88319 0.88324 0.16917 0.0
C617 C 0.87941 0.88375 0.1576 0.0
C618 C 0.86463 0.91141 0.13439 0.0
C619 C 0.86376 0.89199 0.10453 0.0
C620 C 0.8615 0.89383 0.11703 0.0
C621 C 0.86668 0.89584 0.15328 0.0
C622 C 0.86283 0.89575 0.14095 0.0
H623 H 0.88383 0.86395 0.08562 0.0
H624 H 0.8796 0.86761 0.10583 0.0
H625 H 0.86649 0.92251 0.11761 0.0
H626 H 0.85437 0.91587 0.17813 0.0
H627 H 0.84803 0.91706 0.15763 0.0
C628 C 0.36353 0.61255 0.42247 0.0
C629 C 0.36607 0.62979 0.42703 0.0
C630 C 0.36281 0.61008 0.41066 0.0
C631 C 0.37844 0.63285 0.38464 0.0
H632 H 0.34954 0.59766 0.36873 0.0
C633 C 0.39206 0.61833 0.33804 0.0
C634 C 0.37729 0.61717 0.3307 0.0
C635 C 0.3897 0.61772 0.34976 0.0
C636 C 0.35761 0.60762 0.37305 0.0
H637 H 0.36839 0.65807 0.42293 0.0
H638 H 0.36654 0.6539 0.40254 0.0
H639 H 0.34603 0.60143 0.38928 0.0
H640 H 0.34848 0.61359 0.32985 0.0
H641 H 0.34421 0.61301 0.3505 0.0
H642 H 0.38973 0.63946 0.36857 0.0
C643 C 0.36579 0.64216 0.40795 0.0
C644 C 0.35572 0.60966 0.38484 0.0
C645 C 0.36675 0.64458 0.41966 0.0
C646 C 0.36011 0.61453 0.33533 0.0
C647 C 0.35769 0.61415 0.34714 0.0
C648 C 0.38028 0.63086 0.37295 0.0
C649 C 0.36445 0.62485 0.40326 0.0
C650 C 0.3661 0.62237 0.39076 0.0
C651 C 0.37244 0.61624 0.35449 0.0
C652 C 0.37001 0.61816 0.36698 0.0
H653 H 0.36296 0.60091 0.42797 0.0
H654 H 0.3618 0.59656 0.40735 0.0
H655 H 0.38692 0.64254 0.3889 0.0
H656 H 0.40552 0.62006 0.33473 0.0
H657 H 0.40143 0.61883 0.35513 0.0
C658 C 0.65859 0.11147 0.67266 0.0
C659 C 0.64072 0.11385 0.67616 0.0
C660 C 0.66269 0.10941 0.66111 0.0
C661 C 0.64304 0.09814 0.63318 0.0
H662 H 0.67635 0.13317 0.62098 0.0
C663 C 0.65389 0.10777 0.58478 0.0
C664 C 0.65098 0.12563 0.58138 0.0
C665 C 0.65615 0.10357 0.59629 0.0
C666 C 0.66718 0.12316 0.62427 0.0
H667 H 0.61309 0.11501 0.67044 0.0
H668 H 0.62018 0.11109 0.65043 0.0
H669 H 0.67334 0.12978 0.64153 0.0
H670 H 0.64906 0.15316 0.58727 0.0
H671 H 0.65332 0.14589 0.60722 0.0
H672 H 0.63635 0.09204 0.61592 0.0
C673 C 0.63105 0.1109 0.65654 0.0
C674 C 0.66555 0.12113 0.63603 0.0
C675 C 0.627 0.11328 0.66799 0.0
C676 C 0.65119 0.13925 0.58963 0.0
C677 C 0.65377 0.13511 0.60106 0.0
C678 C 0.64484 0.10001 0.62142 0.0
C679 C 0.64894 0.1093 0.65293 0.0
C680 C 0.65303 0.10903 0.6406 0.0
C681 C 0.65594 0.11721 0.60455 0.0
C682 C 0.65649 0.11295 0.61686 0.0
H683 H 0.66943 0.1119 0.67877 0.0
H684 H 0.67659 0.10818 0.65855 0.0
H685 H 0.63336 0.08863 0.63648 0.0
H686 H 0.65374 0.097 0.5786 0.0
H687 H 0.65782 0.08965 0.59876 0.0
C688 C 0.8896 0.38773 0.83871 0.0
C689 C 0.87719 0.39536 0.83115 0.0
C690 C 0.8878 0.39011 0.85038 0.0
C691 C 0.8554 0.40027 0.87297 0.0
H692 H 0.89904 0.40566 0.89056 0.0
C693 C 0.85948 0.40278 0.92289 0.0
C694 C 0.87166 0.39005 0.92721 0.0
C695 C 0.85872 0.40624 0.91118 0.0
C696 C 0.88672 0.40426 0.88576 0.0
H697 H 0.85301 0.41145 0.82995 0.0
H698 H 0.84986 0.41568 0.85053 0.0
H699 H 0.9004 0.40715 0.86995 0.0
H700 H 0.89251 0.371 0.92264 0.0
H701 H 0.89136 0.37725 0.90244 0.0
H702 H 0.84186 0.39708 0.88896 0.0
C703 C 0.86097 0.40779 0.84734 0.0
C704 C 0.88749 0.40503 0.87396 0.0
C705 C 0.86281 0.40543 0.83557 0.0
C706 C 0.88296 0.38088 0.91962 0.0
C707 C 0.88239 0.38452 0.90804 0.0
C708 C 0.85461 0.39964 0.88486 0.0
C709 C 0.87355 0.40023 0.85486 0.0
C710 C 0.87197 0.40238 0.86739 0.0
C711 C 0.87037 0.39728 0.90368 0.0
C712 C 0.87039 0.40101 0.89132 0.0
H713 H 0.90078 0.3798 0.83565 0.0
H714 H 0.8975 0.38373 0.85591 0.0
H715 H 0.84321 0.39815 0.86815 0.0
H716 H 0.85058 0.41003 0.92853 0.0
H717 H 0.84931 0.41613 0.908 0.0
C718 C 0.36035 0.11394 0.67225 0.0
C719 C 0.37766 0.11612 0.67678 0.0
C720 C 0.35779 0.11347 0.66045 0.0
C721 C 0.38048 0.12956 0.63457 0.0
H722 H 0.34535 0.10106 0.61834 0.0
C723 C 0.36621 0.14434 0.58812 0.0
C724 C 0.36542 0.1297 0.58063 0.0
C725 C 0.36537 0.1417 0.59981 0.0
C726 C 0.35528 0.10903 0.62276 0.0
H727 H 0.40592 0.11804 0.6726 0.0
H728 H 0.40157 0.11668 0.65222 0.0
H729 H 0.34906 0.09703 0.63887 0.0
H730 H 0.36218 0.10085 0.5795 0.0
H731 H 0.36116 0.09611 0.60009 0.0
H732 H 0.3871 0.14129 0.61862 0.0
C733 C 0.38988 0.11599 0.65766 0.0
C734 C 0.35729 0.10683 0.63452 0.0
C735 C 0.39239 0.11667 0.66936 0.0
C736 C 0.36284 0.11238 0.58508 0.0
C737 C 0.36221 0.10969 0.59687 0.0
C738 C 0.3785 0.13172 0.6229 0.0
C739 C 0.37253 0.11503 0.65302 0.0
C740 C 0.37001 0.11705 0.64055 0.0
C741 C 0.364 0.12431 0.60436 0.0
C742 C 0.36583 0.12159 0.61683 0.0
H743 H 0.34876 0.11347 0.67778 0.0
H744 H 0.34425 0.11274 0.65715 0.0
H745 H 0.39018 0.1379 0.63892 0.0
H746 H 0.36789 0.15789 0.58495 0.0
H747 H 0.36626 0.15332 0.6053 0.0
C748 C 0.65058 0.63884 0.41887 0.0
C749 C 0.65038 0.62496 0.42694 0.0
C750 C 0.653 0.63505 0.40737 0.0
C751 C 0.64356 0.60079 0.38658 0.0
H752 H 0.67275 0.63048 0.3668 0.0
C753 C 0.62662 0.61513 0.33995 0.0
C754 C 0.64047 0.61521 0.33186 0.0
C755 C 0.63042 0.6127 0.35144 0.0
C756 C 0.66475 0.62187 0.37221 0.0
H757 H 0.65293 0.59623 0.42935 0.0
H758 H 0.65669 0.5895 0.40907 0.0
H759 H 0.67565 0.63336 0.3874 0.0
H760 H 0.66915 0.61242 0.32943 0.0
H761 H 0.67589 0.60865 0.3497 0.0
H762 H 0.63199 0.58998 0.37139 0.0
C763 C 0.65516 0.60334 0.41173 0.0
C764 C 0.66633 0.6236 0.38399 0.0
C765 C 0.65308 0.60719 0.42331 0.0
C766 C 0.65821 0.61237 0.33548 0.0
C767 C 0.66207 0.61028 0.34705 0.0
C768 C 0.6418 0.59924 0.3748 0.0
C769 C 0.65498 0.61725 0.40364 0.0
C770 C 0.65544 0.61339 0.39129 0.0
C771 C 0.64819 0.61058 0.35515 0.0
C772 C 0.65207 0.61008 0.3675 0.0
H773 H 0.6486 0.65268 0.42141 0.0
H774 H 0.65259 0.64603 0.40134 0.0
H775 H 0.63491 0.59283 0.39199 0.0
H776 H 0.6128 0.61722 0.33742 0.0
H777 H 0.61947 0.6132 0.35748 0.0
C778 C 0.15363 0.9017 0.17208 0.0
C779 C 0.13632 0.89965 0.17663 0.0
C780 C 0.15617 0.90226 0.16028 0.0
C781 C 0.13317 0.88684 0.13432 0.0
H782 H 0.16892 0.91483 0.11826 0.0
C783 C 0.14742 0.8723 0.08782 0.0
C784 C 0.14877 0.88698 0.08039 0.0
C785 C 0.14812 0.87481 0.09952 0.0
C786 C 0.15881 0.90701 0.12263 0.0
H787 H 0.10803 0.89806 0.17248 0.0
H788 H 0.11234 0.89962 0.1521 0.0
H789 H 0.16521 0.91869 0.1388 0.0
H790 H 0.15279 0.91574 0.07938 0.0
H791 H 0.15353 0.92026 0.10001 0.0
H792 H 0.12635 0.87546 0.11832 0.0
C793 C 0.12406 0.90011 0.15753 0.0
C794 C 0.1568 0.9091 0.1344 0.0
C795 C 0.12157 0.89932 0.16923 0.0
C796 C 0.1517 0.90419 0.08492 0.0
C797 C 0.15218 0.90675 0.09672 0.0
C798 C 0.13513 0.8848 0.12265 0.0
C799 C 0.1414 0.90094 0.15287 0.0
C800 C 0.14388 0.89906 0.14038 0.0
C801 C 0.14989 0.89211 0.10415 0.0
C802 C 0.14803 0.89474 0.11663 0.0
H803 H 0.16524 0.902 0.1776 0.0
H804 H 0.16971 0.90288 0.15697 0.0
H805 H 0.1233 0.87862 0.13863 0.0
H806 H 0.14547 0.85882 0.08459 0.0
H807 H 0.14685 0.86315 0.10496 0.0
C808 C 0.86066 0.60851 0.08585 0.0
C809 C 0.86365 0.62632 0.0824 0.0
C810 C 0.8583 0.60443 0.09738 0.0
C811 C 0.84706 0.62423 0.12525 0.0
H812 H 0.88092 0.5899 0.13767 0.0
C813 C 0.85513 0.61237 0.17371 0.0
C814 C 0.87292 0.61494 0.17729 0.0
C815 C 0.85119 0.61039 0.16213 0.0
C816 C 0.87123 0.59936 0.13431 0.0
H817 H 0.86562 0.6539 0.08818 0.0
H818 H 0.86115 0.64684 0.10815 0.0
H819 H 0.87811 0.59315 0.11709 0.0
H820 H 0.90059 0.6166 0.17169 0.0
H821 H 0.89378 0.61279 0.15163 0.0
H822 H 0.84068 0.63092 0.14248 0.0
C823 C 0.86073 0.63601 0.10203 0.0
C824 C 0.86953 0.60113 0.12254 0.0
C825 C 0.86342 0.64003 0.09059 0.0
C826 C 0.88673 0.61471 0.16918 0.0
C827 C 0.88285 0.6124 0.15769 0.0
C828 C 0.84857 0.62228 0.13702 0.0
C829 C 0.85849 0.61815 0.10558 0.0
C830 C 0.85786 0.614 0.1179 0.0
C831 C 0.86503 0.61055 0.15401 0.0
C832 C 0.86109 0.61023 0.14166 0.0
H833 H 0.86083 0.59768 0.07972 0.0
H834 H 0.85658 0.59055 0.0999 0.0
H835 H 0.83788 0.63419 0.1219 0.0
H836 H 0.84422 0.61254 0.17978 0.0
H837 H 0.83733 0.60898 0.15951 0.0
C838 C 0.15379 0.11486 0.83562 0.0
C839 C 0.13659 0.11759 0.83105 0.0
C840 C 0.15631 0.1145 0.84743 0.0
C841 C 0.13404 0.13146 0.87329 0.0
H842 H 0.16836 0.10194 0.88953 0.0
C843 C 0.14831 0.14549 0.91987 0.0
C844 C 0.14897 0.13076 0.9273 0.0
C845 C 0.14909 0.14296 0.90817 0.0
C846 C 0.15864 0.1102 0.88511 0.0
H847 H 0.1084 0.12066 0.83519 0.0
H848 H 0.11265 0.11946 0.85558 0.0
H849 H 0.16458 0.09806 0.869 0.0
H850 H 0.15186 0.10186 0.92832 0.0
H851 H 0.15272 0.09731 0.90771 0.0
H852 H 0.12765 0.1433 0.88924 0.0
C853 C 0.12434 0.11826 0.85016 0.0
C854 C 0.1566 0.10809 0.87334 0.0
C855 C 0.12188 0.11885 0.83845 0.0
C856 C 0.15131 0.11345 0.92278 0.0
C857 C 0.15186 0.11087 0.91098 0.0
C858 C 0.13602 0.13352 0.88496 0.0
C859 C 0.14162 0.1167 0.85483 0.0
C860 C 0.14418 0.11866 0.86731 0.0
C861 C 0.15024 0.12559 0.90354 0.0
C862 C 0.1484 0.12302 0.89105 0.0
H863 H 0.16537 0.11384 0.8301 0.0
H864 H 0.16981 0.1133 0.85073 0.0
H865 H 0.12458 0.14009 0.86893 0.0
H866 H 0.14681 0.15903 0.9231 0.0
H867 H 0.14835 0.15465 0.90272 0.0
C868 C 0.65487 0.40927 0.58527 0.0
C869 C 0.6521 0.39139 0.58188 0.0
C870 C 0.6572 0.41347 0.59678 0.0
C871 C 0.66843 0.39389 0.62476 0.0
H872 H 0.63428 0.42814 0.63695 0.0
C873 C 0.6593 0.40507 0.67315 0.0
C874 C 0.6414 0.40256 0.67656 0.0
C875 C 0.66351 0.40729 0.66163 0.0
C876 C 0.64405 0.4187 0.63366 0.0
H877 H 0.65052 0.36384 0.58776 0.0
H878 H 0.65488 0.3711 0.6077 0.0
H879 H 0.6374 0.42485 0.6164 0.0
H880 H 0.61385 0.4013 0.67071 0.0
H881 H 0.62114 0.40548 0.65076 0.0
H882 H 0.67453 0.3872 0.64202 0.0
C883 C 0.65518 0.3819 0.60154 0.0
C884 C 0.64593 0.41691 0.6219 0.0
C885 C 0.65254 0.37775 0.59012 0.0
C886 C 0.62778 0.40313 0.66834 0.0
C887 C 0.63193 0.40566 0.65691 0.0
C888 C 0.66672 0.39584 0.63652 0.0
C889 C 0.65718 0.39981 0.60503 0.0
C890 C 0.6577 0.40406 0.61734 0.0
C891 C 0.64985 0.40741 0.65339 0.0
C892 C 0.65407 0.40783 0.64108 0.0
H893 H 0.65455 0.42005 0.5791 0.0
H894 H 0.65874 0.42739 0.59925 0.0
H895 H 0.67769 0.38395 0.62147 0.0
H896 H 0.67007 0.40464 0.67931 0.0
H897 H 0.67743 0.40863 0.65914 0.0
C898 C 0.36253 0.90587 0.33593 0.0
C899 C 0.37716 0.89621 0.33149 0.0
C900 C 0.36061 0.9081 0.34771 0.0
C901 C 0.3871 0.90562 0.37438 0.0
H902 H 0.34157 0.89638 0.38921 0.0
C903 C 0.38269 0.8801 0.41975 0.0
C904 C 0.37138 0.88905 0.42744 0.0
C905 C 0.38209 0.88402 0.4082 0.0
C906 C 0.35429 0.8993 0.38516 0.0
H907 H 0.40116 0.88125 0.33596 0.0
H908 H 0.39775 0.88494 0.35623 0.0
H909 H 0.343 0.89787 0.36843 0.0
H910 H 0.35023 0.90892 0.42897 0.0
H911 H 0.34888 0.9155 0.4085 0.0
H912 H 0.39854 0.90613 0.39102 0.0
C913 C 0.38789 0.89111 0.35071 0.0
C914 C 0.35512 0.90017 0.37328 0.0
C915 C 0.38977 0.88887 0.33904 0.0
C916 C 0.35914 0.90184 0.42325 0.0
C917 C 0.35833 0.90557 0.41157 0.0
C918 C 0.38628 0.90459 0.38618 0.0
C919 C 0.37337 0.90081 0.35522 0.0
C920 C 0.37168 0.90274 0.36775 0.0
C921 C 0.37 0.89684 0.40399 0.0
C922 C 0.37 0.90088 0.39167 0.0
H923 H 0.35256 0.91166 0.33033 0.0
H924 H 0.34928 0.91567 0.35092 0.0
H925 H 0.39998 0.90809 0.37042 0.0
H926 H 0.39229 0.87019 0.42267 0.0
H927 H 0.39108 0.87694 0.40253 0.0
C928 C 0.07572 0.62705 0.02796 0.0
C929 C 0.08473 0.63031 0.03824 0.0
C930 C 0.05698 0.62618 0.02764 0.0
C931 C 0.01735 0.61902 0.04598 0.0
H932 H 0.99148 0.64314 0.02184 0.0
C933 C 0.94138 0.63251 0.04841 0.0
C934 C 0.93115 0.63027 0.03849 0.0
C935 C 0.96009 0.63159 0.04803 0.0
C936 C 0.99851 0.63613 0.02855 0.0
H937 H 0.08102 0.63518 0.05625 0.0
H938 H 0.04843 0.6338 0.05565 0.0
H939 H 0.02423 0.64317 0.02178 0.0
H940 H 0.93263 0.62521 0.02038 0.0
H941 H 0.96532 0.62352 0.01975 0.0
H942 H 0.99167 0.6121 0.05281 0.0
C943 C 0.05585 0.6317 0.04786 0.0
C944 C 0.01727 0.63615 0.02852 0.0
C945 C 0.07456 0.63261 0.04818 0.0
C946 C 0.94009 0.62704 0.02818 0.0
C947 C 0.95883 0.62616 0.0278 0.0
C948 C 0.99861 0.619 0.04601 0.0
C949 C 0.04683 0.62848 0.03759 0.0
C950 C 0.02691 0.62775 0.0373 0.0
C951 C 0.96904 0.62842 0.03772 0.0
C952 C 0.98897 0.62771 0.03737 0.0
H953 H 0.08313 0.62518 0.02014 0.0
H954 H 0.05043 0.62351 0.01961 0.0
H955 H 0.02437 0.61214 0.05275 0.0
H956 H 0.93496 0.63505 0.0565 0.0
H957 H 0.96756 0.63366 0.0558 0.0
C958 C 0.63438 0.69173 0.29698 0.0
C959 C 0.63612 0.68133 0.28709 0.0
C960 C 0.63529 0.71044 0.29648 0.0
C961 C 0.62979 0.74864 0.27691 0.0
H962 H 0.65517 0.77473 0.30042 0.0
C963 C 0.6386 0.82595 0.27587 0.0
C964 C 0.63592 0.835 0.28621 0.0
C965 C 0.63956 0.80719 0.27557 0.0
C966 C 0.64791 0.76765 0.29384 0.0
H967 H 0.64025 0.68254 0.26888 0.0
H968 H 0.64191 0.71524 0.26801 0.0
H969 H 0.65516 0.742 0.30063 0.0
H970 H 0.63217 0.83137 0.30434 0.0
H971 H 0.63367 0.79876 0.30376 0.0
H972 H 0.6224 0.77432 0.2702 0.0
C973 C 0.63968 0.70887 0.27615 0.0
C974 C 0.6479 0.7489 0.29396 0.0
C975 C 0.63881 0.69012 0.27666 0.0
C976 C 0.63429 0.82487 0.29622 0.0
C977 C 0.63527 0.80615 0.29591 0.0
C978 C 0.6298 0.76742 0.2768 0.0
C979 C 0.63794 0.71924 0.28606 0.0
C980 C 0.63868 0.73917 0.28557 0.0
C981 C 0.63791 0.79708 0.28559 0.0
C982 C 0.63869 0.77714 0.28534 0.0
H983 H 0.63225 0.68543 0.30516 0.0
H984 H 0.63363 0.71803 0.30424 0.0
H985 H 0.6224 0.74155 0.2704 0.0
H986 H 0.63996 0.83334 0.26801 0.0
H987 H 0.64177 0.80061 0.26749 0.0
C988 C 0.43972 0.38828 0.52806 0.0
C989 C 0.43048 0.38504 0.53827 0.0
C990 C 0.45849 0.38849 0.52782 0.0
C991 C 0.49802 0.37247 0.5438 0.0
H992 H 0.52368 0.40843 0.5264 0.0
C993 C 0.5742 0.38261 0.54835 0.0
C994 C 0.58421 0.38546 0.5384 0.0
C995 C 0.55547 0.38272 0.54807 0.0
C996 C 0.5167 0.39818 0.53119 0.0
H997 H 0.43381 0.3797 0.55625 0.0
H998 H 0.46643 0.38024 0.55583 0.0
H999 H 0.49091 0.40834 0.52637 0.0
H1000 H 0.58228 0.39081 0.52034 0.0
H1001 H 0.54954 0.39086 0.51985 0.0
H1002 H 0.52375 0.36233 0.54865 0.0
C1003 C 0.45918 0.38235 0.54798 0.0
C1004 C 0.49793 0.39812 0.53118 0.0
C1005 C 0.44045 0.38214 0.54823 0.0
C1006 C 0.57501 0.38858 0.52817 0.0
C1007 C 0.55624 0.3887 0.52789 0.0
C1008 C 0.51675 0.37253 0.54382 0.0
C1009 C 0.46843 0.38543 0.53777 0.0
C1010 C 0.48838 0.38533 0.53754 0.0
C1011 C 0.54626 0.38568 0.53784 0.0
C1012 C 0.52632 0.38545 0.53757 0.0
H1013 H 0.43247 0.39054 0.52023 0.0
H1014 H 0.46521 0.39073 0.5198 0.0
H1015 H 0.49108 0.36222 0.54862 0.0
H1016 H 0.58082 0.38025 0.55639 0.0
H1017 H 0.5482 0.38063 0.55592 0.0
C1018 C 0.87366 0.32509 0.77363 0.0
C1019 C 0.87544 0.3337 0.7842 0.0
C1020 C 0.87256 0.30635 0.773 0.0
C1021 C 0.86247 0.26613 0.79034 0.0
H1022 H 0.89065 0.24085 0.76774 0.0
C1023 C 0.87763 0.19063 0.79373 0.0
C1024 C 0.87699 0.18022 0.78379 0.0
C1025 C 0.87623 0.2093 0.7932 0.0
C1026 C 0.88251 0.24772 0.774 0.0
H1027 H 0.87733 0.32931 0.80237 0.0
H1028 H 0.87558 0.29678 0.80123 0.0
H1029 H 0.89021 0.27364 0.76781 0.0
H1030 H 0.87434 0.18136 0.76547 0.0
H1031 H 0.87187 0.21404 0.76456 0.0
H1032 H 0.85498 0.24025 0.79663 0.0
C1033 C 0.87481 0.30448 0.79345 0.0
C1034 C 0.88224 0.2665 0.77404 0.0
C1035 C 0.87593 0.32316 0.79409 0.0
C1036 C 0.87492 0.18896 0.77329 0.0
C1037 C 0.87358 0.20769 0.77276 0.0
C1038 C 0.86275 0.24738 0.7903 0.0
C1039 C 0.87315 0.29584 0.7829 0.0
C1040 C 0.87243 0.27592 0.78231 0.0
C1041 C 0.87419 0.21806 0.78272 0.0
C1042 C 0.87298 0.23796 0.78224 0.0
H1043 H 0.8732 0.33279 0.76585 0.0
H1044 H 0.87113 0.3001 0.76475 0.0
H1045 H 0.85449 0.27297 0.79669 0.0
H1046 H 0.87925 0.18437 0.80197 0.0
H1047 H 0.87703 0.21692 0.80101 0.0
C1048 C 0.94194 0.38618 0.96397 0.0
C1049 C 0.93158 0.38801 0.97387 0.0
C1050 C 0.96064 0.38619 0.96451 0.0
C1051 C 0.99912 0.39948 0.98221 0.0
H1052 H 0.02436 0.36448 0.96377 0.0
C1053 C 0.07632 0.38887 0.98429 0.0
C1054 C 0.08516 0.38621 0.97388 0.0
C1055 C 0.05756 0.38925 0.98481 0.0
C1056 C 0.01754 0.37446 0.96888 0.0
H1057 H 0.93284 0.39164 0.99212 0.0
H1058 H 0.96562 0.39156 0.99306 0.0
H1059 H 0.99172 0.36495 0.96378 0.0
H1060 H 0.08115 0.38221 0.95581 0.0
H1061 H 0.04859 0.38306 0.95671 0.0
H1062 H 0.02505 0.40904 0.98724 0.0
C1063 C 0.95918 0.39022 0.98487 0.0
C1064 C 0.99883 0.37472 0.9689 0.0
C1065 C 0.94041 0.39018 0.98433 0.0
C1066 C 0.07482 0.38416 0.96399 0.0
C1067 C 0.05612 0.38455 0.96451 0.0
C1068 C 0.01791 0.39923 0.98218 0.0
C1069 C 0.96949 0.38803 0.97497 0.0
C1070 C 0.98939 0.38736 0.97545 0.0
C1071 C 0.04725 0.38695 0.97493 0.0
C1072 C 0.02732 0.38684 0.97541 0.0
H1073 H 0.93564 0.38461 0.95575 0.0
H1074 H 0.96818 0.38481 0.9567 0.0
H1075 H 0.99223 0.40946 0.98728 0.0
H1076 H 0.08387 0.3905 0.99207 0.0
H1077 H 0.05113 0.39099 0.99298 0.0
C1078 C 0.87571 0.82541 0.23351 0.0
C1079 C 0.87765 0.83448 0.22312 0.0
C1080 C 0.8757 0.80661 0.23389 0.0
C1081 C 0.89064 0.76719 0.21743 0.0
H1082 H 0.85669 0.74081 0.23596 0.0
C1083 C 0.8807 0.69112 0.21234 0.0
C1084 C 0.87881 0.68074 0.22223 0.0
C1085 C 0.88049 0.70985 0.2129 0.0
C1086 C 0.8664 0.74799 0.23085 0.0
H1087 H 0.88075 0.83084 0.20494 0.0
H1088 H 0.88058 0.79825 0.20561 0.0
H1089 H 0.85644 0.77364 0.23621 0.0
H1090 H 0.87504 0.68196 0.24047 0.0
H1091 H 0.87482 0.71471 0.24145 0.0
H1092 H 0.9006 0.74166 0.21203 0.0
C1093 C 0.87935 0.80562 0.21349 0.0
C1094 C 0.86625 0.76679 0.23099 0.0
C1095 C 0.87933 0.82434 0.21311 0.0
C1096 C 0.87652 0.68955 0.23269 0.0
C1097 C 0.8763 0.70832 0.23325 0.0
C1098 C 0.8908 0.74845 0.21729 0.0
C1099 C 0.87769 0.79652 0.22388 0.0
C1100 C 0.87825 0.77659 0.22418 0.0
C1101 C 0.8784 0.71868 0.22336 0.0
C1102 C 0.87856 0.73862 0.2239 0.0
H1103 H 0.87438 0.83281 0.24138 0.0
H1104 H 0.8745 0.79999 0.24203 0.0
H1105 H 0.90031 0.77434 0.21226 0.0
H1106 H 0.88239 0.68481 0.20413 0.0
H1107 H 0.88182 0.71742 0.20511 0.0
C1108 C 0.43959 0.62695 0.48255 0.0
C1109 C 0.43056 0.6299 0.47224 0.0
C1110 C 0.45834 0.62607 0.48286 0.0
C1111 C 0.49789 0.61832 0.46453 0.0
H1112 H 0.5239 0.6432 0.48828 0.0
C1113 C 0.57381 0.63166 0.46167 0.0
C1114 C 0.58413 0.62964 0.47158 0.0
C1115 C 0.55511 0.63085 0.46214 0.0
C1116 C 0.51683 0.63598 0.48168 0.0
H1117 H 0.43423 0.63422 0.45417 0.0
H1118 H 0.46681 0.63284 0.45475 0.0
H1119 H 0.49115 0.6432 0.48845 0.0
H1120 H 0.5828 0.62512 0.48975 0.0
H1121 H 0.55011 0.62361 0.49053 0.0
H1122 H 0.52353 0.61122 0.45771 0.0
C1123 C 0.45941 0.63098 0.46257 0.0
C1124 C 0.49807 0.63598 0.48177 0.0
C1125 C 0.44071 0.63189 0.46226 0.0
C1126 C 0.57527 0.62678 0.48196 0.0
C1127 C 0.55653 0.62599 0.48242 0.0
C1128 C 0.51663 0.61832 0.46444 0.0
C1129 C 0.46846 0.62806 0.47287 0.0
C1130 C 0.48838 0.62731 0.47313 0.0
C1131 C 0.54624 0.628 0.47251 0.0
C1132 C 0.52632 0.62731 0.47294 0.0
H1133 H 0.4322 0.62532 0.49039 0.0
H1134 H 0.46491 0.62364 0.49091 0.0
H1135 H 0.49084 0.61123 0.45787 0.0
H1136 H 0.58017 0.63393 0.45353 0.0
H1137 H 0.54757 0.63272 0.45437 0.0
C1138 C 0.63162 0.1911 0.70999 0.0
C1139 C 0.63427 0.18108 0.71997 0.0
C1140 C 0.63172 0.20985 0.71028 0.0
C1141 C 0.6469 0.24857 0.72733 0.0
H1142 H 0.6116 0.27446 0.70952 0.0
C1143 C 0.6372 0.32566 0.73042 0.0
C1144 C 0.63441 0.33494 0.72017 0.0
C1145 C 0.6373 0.30688 0.73065 0.0
C1146 C 0.62167 0.26744 0.71445 0.0
H1147 H 0.63923 0.18299 0.73807 0.0
H1148 H 0.63926 0.21575 0.73857 0.0
H1149 H 0.61156 0.24175 0.70947 0.0
H1150 H 0.62974 0.33168 0.70211 0.0
H1151 H 0.63007 0.29902 0.70252 0.0
H1152 H 0.65701 0.27433 0.73228 0.0
C1153 C 0.63727 0.20906 0.7305 0.0
C1154 C 0.62165 0.24869 0.71442 0.0
C1155 C 0.63716 0.19028 0.73022 0.0
C1156 C 0.63185 0.325 0.71016 0.0
C1157 C 0.63193 0.30625 0.7104 0.0
C1158 C 0.64692 0.26736 0.72736 0.0
C1159 C 0.63448 0.21906 0.72054 0.0
C1160 C 0.63432 0.23902 0.72081 0.0
C1161 C 0.63458 0.29696 0.72064 0.0
C1162 C 0.63437 0.277 0.72086 0.0
H1163 H 0.62943 0.18448 0.70193 0.0
H1164 H 0.62981 0.21714 0.70242 0.0
H1165 H 0.65698 0.24153 0.73224 0.0
H1166 H 0.63921 0.33289 0.73829 0.0
H1167 H 0.63921 0.30012 0.73869 0.0
C1168 C 0.37701 0.32542 0.73116 0.0
C1169 C 0.3797 0.33444 0.72081 0.0
C1170 C 0.37696 0.30665 0.73158 0.0
C1171 C 0.39257 0.26682 0.71572 0.0
H1172 H 0.35749 0.24129 0.73389 0.0
C1173 C 0.38248 0.19052 0.71176 0.0
C1174 C 0.38004 0.1806 0.7218 0.0
C1175 C 0.38237 0.20926 0.71197 0.0
C1176 C 0.36751 0.24823 0.72888 0.0
H1177 H 0.38425 0.33072 0.70277 0.0
H1178 H 0.384 0.29807 0.70351 0.0
H1179 H 0.3574 0.27409 0.73366 0.0
H1180 H 0.37542 0.18271 0.73993 0.0
H1181 H 0.37536 0.21549 0.74028 0.0
H1182 H 0.40265 0.24103 0.71091 0.0
C1183 C 0.38218 0.3055 0.71133 0.0
C1184 C 0.36745 0.26702 0.72875 0.0
C1185 C 0.38222 0.32424 0.7109 0.0
C1186 C 0.37733 0.18991 0.73204 0.0
C1187 C 0.3772 0.2087 0.73224 0.0
C1188 C 0.39262 0.24807 0.71585 0.0
C1189 C 0.37964 0.29647 0.72168 0.0
C1190 C 0.37991 0.27652 0.7221 0.0
C1191 C 0.37982 0.21859 0.72221 0.0
C1192 C 0.38001 0.23855 0.72237 0.0
H1193 H 0.37504 0.33285 0.73896 0.0
H1194 H 0.37513 0.3001 0.73971 0.0
H1195 H 0.40257 0.27373 0.71068 0.0
H1196 H 0.38452 0.18382 0.70371 0.0
H1197 H 0.38414 0.21646 0.70406 0.0
C1198 C 0.137 0.69034 0.23142 0.0
C1199 C 0.13436 0.68131 0.22107 0.0
C1200 C 0.13704 0.70912 0.23183 0.0
C1201 C 0.1215 0.7489 0.2159 0.0
H1202 H 0.15648 0.77452 0.23407 0.0
C1203 C 0.13161 0.82515 0.21175 0.0
C1204 C 0.13398 0.83514 0.22175 0.0
C1205 C 0.13174 0.80641 0.21201 0.0
C1206 C 0.14649 0.76755 0.22906 0.0
H1207 H 0.12993 0.68501 0.20302 0.0
H1208 H 0.13018 0.71766 0.20374 0.0
H1209 H 0.15657 0.74172 0.23391 0.0
H1210 H 0.13849 0.83317 0.2399 0.0
H1211 H 0.13857 0.80039 0.24035 0.0
H1212 H 0.11143 0.77466 0.21101 0.0
C1213 C 0.13194 0.71024 0.21157 0.0
C1214 C 0.14654 0.74876 0.22897 0.0
C1215 C 0.13191 0.6915 0.21115 0.0
C1216 C 0.13663 0.82591 0.23203 0.0
C1217 C 0.13678 0.80712 0.23229 0.0
C1218 C 0.12144 0.76764 0.21599 0.0
C1219 C 0.13442 0.71928 0.22191 0.0
C1220 C 0.13413 0.73923 0.22231 0.0
C1221 C 0.13422 0.79716 0.22228 0.0
C1222 C 0.13402 0.7772 0.2225 0.0
H1223 H 0.13891 0.68292 0.23923 0.0
H1224 H 0.13882 0.71568 0.23996 0.0
H1225 H 0.11152 0.74197 0.21085 0.0
H1226 H 0.12962 0.83179 0.20366 0.0
H1227 H 0.13003 0.79916 0.20412 0.0
C1228 C 0.13888 0.18966 0.77478 0.0
C1229 C 0.13628 0.18078 0.78518 0.0
C1230 C 0.13991 0.20841 0.77435 0.0
C1231 C 0.14878 0.24812 0.79233 0.0
H1232 H 0.12292 0.27414 0.76898 0.0
C1233 C 0.13531 0.32402 0.79541 0.0
C1234 C 0.13676 0.3344 0.78549 0.0
C1235 C 0.13629 0.30531 0.79491 0.0
C1236 C 0.13042 0.26707 0.77546 0.0
H1237 H 0.13273 0.18471 0.8033 0.0
H1238 H 0.13439 0.21729 0.80252 0.0
H1239 H 0.12279 0.24135 0.76892 0.0
H1240 H 0.14049 0.33318 0.76724 0.0
H1241 H 0.14229 0.30047 0.76639 0.0
H1242 H 0.15627 0.27378 0.79895 0.0
C1243 C 0.13586 0.20978 0.79471 0.0
C1244 C 0.13034 0.24828 0.77542 0.0
C1245 C 0.13479 0.19108 0.79514 0.0
C1246 C 0.13928 0.32561 0.77504 0.0
C1247 C 0.14023 0.30685 0.77455 0.0
C1248 C 0.14886 0.26687 0.79237 0.0
C1249 C 0.13843 0.21868 0.78432 0.0
C1250 C 0.13934 0.2386 0.78394 0.0
C1251 C 0.13875 0.2965 0.78448 0.0
C1252 C 0.1395 0.27657 0.78402 0.0
H1253 H 0.14013 0.18215 0.76695 0.0
H1254 H 0.14206 0.21487 0.76623 0.0
H1255 H 0.15613 0.24106 0.79889 0.0
H1256 H 0.13333 0.33032 0.8036 0.0
H1257 H 0.13483 0.29773 0.8027 0.0
C1258 C 0.37995 0.69049 0.29475 0.0
C1259 C 0.37844 0.68029 0.28476 0.0
C1260 C 0.37958 0.70922 0.29434 0.0
C1261 C 0.36574 0.74766 0.2766 0.0
H1262 H 0.39909 0.77373 0.29572 0.0
C1263 C 0.37506 0.8251 0.27455 0.0
C1264 C 0.37687 0.83403 0.28501 0.0
C1265 C 0.37496 0.80632 0.27408 0.0
C1266 C 0.38957 0.76666 0.29041 0.0
H1267 H 0.37515 0.68185 0.2665 0.0
H1268 H 0.37466 0.71462 0.26578 0.0
H1269 H 0.39953 0.74106 0.29566 0.0
H1270 H 0.37958 0.83015 0.30319 0.0
H1271 H 0.37925 0.79755 0.30235 0.0
H1272 H 0.35579 0.77338 0.27137 0.0
C1273 C 0.37597 0.70807 0.27394 0.0
C1274 C 0.38981 0.74793 0.29038 0.0
C1275 C 0.37635 0.68929 0.27435 0.0
C1276 C 0.37828 0.82376 0.29497 0.0
C1277 C 0.3782 0.80504 0.2945 0.0
C1278 C 0.3655 0.76646 0.27662 0.0
C1279 C 0.37772 0.71824 0.28393 0.0
C1280 C 0.37779 0.73819 0.28357 0.0
C1281 C 0.37672 0.79609 0.28405 0.0
C1282 C 0.37729 0.77615 0.28363 0.0
H1283 H 0.38147 0.68403 0.30293 0.0
H1284 H 0.38064 0.71664 0.30221 0.0
H1285 H 0.3562 0.74055 0.27133 0.0
H1286 H 0.37394 0.8326 0.26671 0.0
H1287 H 0.37391 0.79981 0.26589 0.0
C1288 C 0.43967 0.12851 0.52562 0.0
C1289 C 0.43037 0.13139 0.53585 0.0
C1290 C 0.45845 0.12836 0.52543 0.0
C1291 C 0.4977 0.14415 0.54173 0.0
H1292 H 0.52391 0.10871 0.5242 0.0
C1293 C 0.57373 0.13409 0.54701 0.0
C1294 C 0.58404 0.13149 0.53716 0.0
C1295 C 0.55502 0.13393 0.54651 0.0
C1296 C 0.51678 0.11882 0.52904 0.0
H1297 H 0.43357 0.13609 0.55391 0.0
H1298 H 0.46617 0.13567 0.55356 0.0
H1299 H 0.49113 0.1087 0.5239 0.0
H1300 H 0.58269 0.12653 0.51903 0.0
H1301 H 0.54997 0.12641 0.51815 0.0
H1302 H 0.52326 0.15426 0.5469 0.0
C1303 C 0.45899 0.13381 0.54567 0.0
C1304 C 0.49801 0.11882 0.52886 0.0
C1305 C 0.44027 0.13394 0.54587 0.0
C1306 C 0.57517 0.12856 0.52679 0.0
C1307 C 0.55641 0.1284 0.52629 0.0
C1308 C 0.51643 0.14415 0.54191 0.0
C1309 C 0.46832 0.13113 0.53544 0.0
C1310 C 0.48826 0.13139 0.53529 0.0
C1311 C 0.54613 0.13119 0.53613 0.0
C1312 C 0.5262 0.13141 0.53564 0.0
H1313 H 0.43247 0.1265 0.51775 0.0
H1314 H 0.46524 0.12641 0.51739 0.0
H1315 H 0.49061 0.15425 0.5466 0.0
H1316 H 0.5801 0.13628 0.55515 0.0
H1317 H 0.5475 0.13582 0.55428 0.0
C1318 C 0.94218 0.88673 0.04455 0.0
C1319 C 0.93188 0.88823 0.03461 0.0
C1320 C 0.96088 0.8868 0.04405 0.0
C1321 C 0.99944 0.89956 0.02621 0.0
H1322 H 0.02466 0.86517 0.0451 0.0
C1323 C 0.07659 0.88864 0.02409 0.0
C1324 C 0.08547 0.88633 0.03452 0.0
C1325 C 0.05783 0.88906 0.02362 0.0
C1326 C 0.01785 0.87498 0.03986 0.0
H1327 H 0.93326 0.89132 0.01632 0.0
H1328 H 0.96603 0.89133 0.01545 0.0
H1329 H 0.99203 0.86569 0.04512 0.0
H1330 H 0.08154 0.883 0.05265 0.0
H1331 H 0.04898 0.88393 0.05182 0.0
H1332 H 0.02537 0.90889 0.021 0.0
C1333 C 0.95955 0.89022 0.02365 0.0
C1334 C 0.99913 0.87528 0.03987 0.0
C1335 C 0.94078 0.89013 0.02414 0.0
C1336 C 0.07518 0.88467 0.04446 0.0
C1337 C 0.05647 0.8851 0.04398 0.0
C1338 C 0.01823 0.89928 0.02621 0.0
C1339 C 0.96979 0.88835 0.03359 0.0
C1340 C 0.9897 0.88769 0.03315 0.0
C1341 C 0.04756 0.88716 0.03356 0.0
C1342 C 0.02763 0.8871 0.03313 0.0
H1343 H 0.93581 0.88537 0.05277 0.0
H1344 H 0.96838 0.88567 0.05189 0.0
H1345 H 0.99256 0.90937 0.021 0.0
H1346 H 0.08411 0.88995 0.01627 0.0
H1347 H 0.05136 0.89053 0.01544 0.0
C1348 C 0.44193 0.88412 0.46413 0.0
C1349 C 0.43151 0.88615 0.474 0.0
C1350 C 0.46062 0.8842 0.46472 0.0
C1351 C 0.49889 0.89814 0.48242 0.0
H1352 H 0.52463 0.86334 0.46411 0.0
C1353 C 0.57621 0.88855 0.48458 0.0
C1354 C 0.58509 0.88611 0.47416 0.0
C1355 C 0.55744 0.88862 0.4851 0.0
C1356 C 0.51766 0.87325 0.46919 0.0
H1357 H 0.43266 0.89013 0.49222 0.0
H1358 H 0.46544 0.89016 0.49323 0.0
H1359 H 0.49198 0.86335 0.46411 0.0
H1360 H 0.58115 0.88214 0.45608 0.0
H1361 H 0.54857 0.88243 0.45699 0.0
H1362 H 0.52468 0.90808 0.48744 0.0
C1363 C 0.45905 0.88862 0.48504 0.0
C1364 C 0.49894 0.87326 0.46919 0.0
C1365 C 0.44028 0.88852 0.48446 0.0
C1366 C 0.57479 0.88395 0.46427 0.0
C1367 C 0.55608 0.88401 0.46479 0.0
C1368 C 0.51767 0.89814 0.48241 0.0
C1369 C 0.46941 0.88629 0.47517 0.0
C1370 C 0.48933 0.88584 0.47569 0.0
C1371 C 0.54718 0.88622 0.47521 0.0
C1372 C 0.52726 0.88582 0.47569 0.0
H1373 H 0.43567 0.88238 0.45592 0.0
H1374 H 0.4682 0.8827 0.45693 0.0
H1375 H 0.49187 0.90809 0.48744 0.0
H1376 H 0.58373 0.89025 0.49237 0.0
H1377 H 0.55098 0.89023 0.49327 0.0
C1378 C 0.07544 0.12869 0.98271 0.0
C1379 C 0.08455 0.13173 0.97244 0.0
C1380 C 0.05666 0.1285 0.98304 0.0
C1381 C 0.0171 0.14442 0.96707 0.0
H1382 H 0.99123 0.10882 0.98466 0.0
C1383 C 0.94112 0.13422 0.96206 0.0
C1384 C 0.93088 0.13169 0.97195 0.0
C1385 C 0.95984 0.13403 0.96251 0.0
C1386 C 0.99827 0.11897 0.97981 0.0
H1387 H 0.08101 0.13664 0.95442 0.0
H1388 H 0.04841 0.13613 0.955 0.0
H1389 H 0.02403 0.10884 0.98476 0.0
H1390 H 0.93235 0.12674 0.99007 0.0
H1391 H 0.9651 0.12654 0.99085 0.0
H1392 H 0.99143 0.15453 0.96208 0.0
C1393 C 0.05574 0.13419 0.96283 0.0
C1394 C 0.01705 0.11899 0.97987 0.0
C1395 C 0.07446 0.13437 0.9625 0.0
C1396 C 0.93982 0.12874 0.98229 0.0
C1397 C 0.95859 0.12853 0.98274 0.0
C1398 C 0.99837 0.1444 0.967 0.0
C1399 C 0.04661 0.13137 0.97311 0.0
C1400 C 0.02667 0.13162 0.97342 0.0
C1401 C 0.9688 0.13131 0.97286 0.0
C1402 C 0.98873 0.13158 0.97329 0.0
H1403 H 0.08279 0.1266 0.99053 0.0
H1404 H 0.05003 0.12643 0.99112 0.0
H1405 H 0.02409 0.15456 0.96219 0.0
H1406 H 0.93471 0.13643 0.95393 0.0
H1407 H 0.9673 0.1359 0.95472 0.0
C1408 C 0.15966 0.43998 1.00273 0.0
C1409 C 0.15906 0.43489 0.99124 0.0
C1410 C 0.16223 0.45796 0.00581 0.0
C1411 C 0.15497 0.50355 0.99472 0.0
H1412 H 0.18294 0.51832 0.02082 0.0
C1413 C 0.15958 0.57818 0.00729 0.0
C1414 C 0.15839 0.5823 0.0189 0.0
C1415 C 0.16225 0.56048 1.00367 0.0
C1416 C 0.17494 0.51443 0.01357 0.0
H1417 H 0.1614 0.4447 0.97399 0.0
H1418 H 0.16592 0.47607 0.97936 0.0
H1419 H 0.18308 0.48687 0.01493 0.0
H1420 H 0.15968 0.57105 0.03584 0.0
H1421 H 0.16399 0.54013 0.02956 0.0
H1422 H 0.14637 0.53086 0.9935 0.0
C1423 C 0.16423 0.46615 0.98599 0.0
C1424 C 0.17506 0.49638 0.01017 0.0
C1425 C 0.16177 0.44813 0.98291 0.0
C1426 C 0.16062 0.56837 0.02683 0.0
C1427 C 0.16315 0.55061 0.02321 0.0
C1428 C 0.15476 0.52154 0.99814 0.0
C1429 C 0.16415 0.47134 0.99747 0.0
C1430 C 0.16498 0.49069 1.00074 0.0
C1431 C 0.16364 0.54635 0.01157 0.0
C1432 C 0.16465 0.52725 0.00766 0.0
H1433 H 0.15761 0.43014 0.00938 0.0
H1434 H 0.16195 0.46147 0.01472 0.0
H1435 H 0.14679 0.49961 0.98755 0.0
H1436 H 0.15806 0.58859 1.00094 0.0
H1437 H 0.16297 0.55785 0.99465 0.0
C1438 C 0.81662 0.91064 0.23307 0.0
C1439 C 0.83051 0.90902 0.24107 0.0
C1440 C 0.79883 0.91325 0.23659 0.0
C1441 C 0.76972 0.90593 0.26172 0.0
H1442 H 0.73491 0.933 0.24426 0.0
C1443 C 0.69613 0.91247 0.27651 0.0
C1444 C 0.68303 0.90926 0.26817 0.0
C1445 C 0.71412 0.91509 0.27347 0.0
C1446 C 0.74446 0.92533 0.24921 0.0
H1447 H 0.8367 0.90988 0.25904 0.0
H1448 H 0.80589 0.9149 0.26514 0.0
H1449 H 0.76639 0.93296 0.23848 0.0
H1450 H 0.67851 0.9071 0.25004 0.0
H1451 H 0.70979 0.91169 0.24476 0.0
H1452 H 0.74781 0.89816 0.27238 0.0
C1453 C 0.80859 0.91366 0.25615 0.0
C1454 C 0.76252 0.92527 0.24588 0.0
C1455 C 0.82632 0.91092 0.25264 0.0
C1456 C 0.68823 0.90954 0.25669 0.0
C1457 C 0.70619 0.91225 0.25365 0.0
C1458 C 0.75171 0.90606 0.26507 0.0
C1459 C 0.79451 0.91442 0.2482 0.0
C1460 C 0.7754 0.91543 0.25204 0.0
C1461 C 0.71944 0.91466 0.26201 0.0
C1462 C 0.7388 0.91562 0.25881 0.0
H1463 H 0.81936 0.90916 0.22409 0.0
H1464 H 0.7884 0.91361 0.2302 0.0
H1465 H 0.7791 0.89788 0.26657 0.0
H1466 H 0.69261 0.91236 0.28542 0.0
H1467 H 0.72392 0.91717 0.28011 0.0
C1468 C 0.35533 0.44829 0.52639 0.0
C1469 C 0.35755 0.43433 0.51848 0.0
C1470 C 0.35291 0.46606 0.52275 0.0
C1471 C 0.36144 0.49506 0.49763 0.0
H1472 H 0.3332 0.52984 0.51438 0.0
C1473 C 0.35426 0.56836 0.48219 0.0
C1474 C 0.35703 0.58167 0.49046 0.0
C1475 C 0.35186 0.55037 0.48534 0.0
C1476 C 0.3412 0.5203 0.50963 0.0
H1477 H 0.35799 0.428 0.50053 0.0
H1478 H 0.35325 0.45875 0.4942 0.0
H1479 H 0.3333 0.49842 0.52033 0.0
H1480 H 0.35866 0.58656 0.50857 0.0
H1481 H 0.3544 0.55526 0.51404 0.0
H1482 H 0.3694 0.51692 0.48697 0.0
C1483 C 0.35391 0.45615 0.50322 0.0
C1484 C 0.3413 0.50226 0.51306 0.0
C1485 C 0.35648 0.43844 0.50686 0.0
C1486 C 0.35656 0.57667 0.50197 0.0
C1487 C 0.35404 0.55871 0.50512 0.0
C1488 C 0.36124 0.51303 0.49417 0.0
C1489 C 0.35251 0.47029 0.5111 0.0
C1490 C 0.35156 0.48939 0.50717 0.0
C1491 C 0.35205 0.54526 0.49684 0.0
C1492 C 0.35125 0.52593 0.50017 0.0
H1493 H 0.35618 0.44561 0.53541 0.0
H1494 H 0.35207 0.47654 0.52909 0.0
H1495 H 0.36981 0.4857 0.49299 0.0
H1496 H 0.35454 0.57172 0.47325 0.0
H1497 H 0.35012 0.54039 0.47874 0.0
C1498 C 0.81705 0.10426 0.77361 0.0
C1499 C 0.83096 0.10587 0.76562 0.0
C1500 C 0.79925 0.10189 0.77007 0.0
C1501 C 0.77027 0.10989 0.74494 0.0
H1502 H 0.73511 0.08308 0.76227 0.0
C1503 C 0.69669 0.10406 0.73002 0.0
C1504 C 0.68357 0.10735 0.73834 0.0
C1505 C 0.71465 0.10133 0.73309 0.0
C1506 C 0.74476 0.09068 0.75736 0.0
H1507 H 0.83718 0.10523 0.74766 0.0
H1508 H 0.80635 0.10059 0.74151 0.0
H1509 H 0.76658 0.08267 0.76808 0.0
H1510 H 0.67898 0.10958 0.75646 0.0
H1511 H 0.71022 0.10478 0.76179 0.0
H1512 H 0.74848 0.118 0.73428 0.0
C1513 C 0.80903 0.10168 0.75051 0.0
C1514 C 0.76282 0.09049 0.76071 0.0
C1515 C 0.82678 0.10419 0.75404 0.0
C1516 C 0.68872 0.10708 0.74983 0.0
C1517 C 0.70665 0.10425 0.75289 0.0
C1518 C 0.75228 0.10999 0.74157 0.0
C1519 C 0.79494 0.10095 0.75845 0.0
C1520 C 0.77582 0.10022 0.7546 0.0
C1521 C 0.71991 0.10171 0.74456 0.0
C1522 C 0.73925 0.10053 0.74779 0.0
H1523 H 0.81978 0.10559 0.7826 0.0
H1524 H 0.7888 0.10156 0.77645 0.0
H1525 H 0.77975 0.11787 0.74014 0.0
H1526 H 0.6932 0.10415 0.7211 0.0
H1527 H 0.72448 0.09916 0.72646 0.0
C1528 C 0.85502 0.56888 0.02683 0.0
C1529 C 0.85739 0.58288 0.01896 0.0
C1530 C 0.85252 0.55116 0.02313 0.0
C1531 C 0.86135 0.52229 0.99803 0.0
H1532 H 0.83262 0.48755 0.01444 0.0
C1533 C 0.85464 0.44909 0.98241 0.0
C1534 C 0.85706 0.43573 0.9907 0.0
C1535 C 0.85212 0.46707 0.98555 0.0
C1536 C 0.84076 0.49708 0.00979 0.0
H1537 H 0.85802 0.58933 1.00103 0.0
H1538 H 0.85318 0.55865 0.9946 0.0
H1539 H 0.8327 0.51894 0.02047 0.0
H1540 H 0.85793 0.43074 0.00882 0.0
H1541 H 0.85351 0.46201 0.01428 0.0
H1542 H 0.86951 0.50046 0.98741 0.0
C1543 C 0.85375 0.5612 1.00363 0.0
C1544 C 0.84085 0.51509 0.01326 0.0
C1545 C 0.85638 0.57887 0.00733 0.0
C1546 C 0.85611 0.44067 1.0022 0.0
C1547 C 0.85349 0.45862 0.00534 0.0
C1548 C 0.86118 0.50434 0.99453 0.0
C1549 C 0.85222 0.54701 0.01147 0.0
C1550 C 0.85127 0.52795 0.00748 0.0
C1551 C 0.85187 0.47212 0.99706 0.0
C1552 C 0.85102 0.49145 1.00041 0.0
H1553 H 0.85581 0.57148 0.03585 0.0
H1554 H 0.85156 0.54063 0.02943 0.0
H1555 H 0.86985 0.53164 0.99348 0.0
H1556 H 0.85528 0.44578 0.97347 0.0
H1557 H 0.85066 0.47708 0.97895 0.0
C1558 C 0.18906 0.10588 0.75642 0.0
C1559 C 0.18381 0.1065 0.76788 0.0
C1560 C 0.20707 0.10327 0.75345 0.0
C1561 C 0.25243 0.11048 0.76482 0.0
H1562 H 0.26764 0.08258 0.73877 0.0
C1563 C 0.32719 0.10588 0.75269 0.0
C1564 C 0.33148 0.10715 0.74111 0.0
C1565 C 0.30945 0.10319 0.7562 0.0
C1566 C 0.26362 0.09056 0.74601 0.0
H1567 H 0.19335 0.10413 0.78519 0.0
H1568 H 0.22475 0.09952 0.78 0.0
H1569 H 0.23612 0.08242 0.74447 0.0
H1570 H 0.32048 0.10601 0.7241 0.0
H1571 H 0.28951 0.10166 0.7302 0.0
H1572 H 0.27969 0.11908 0.76622 0.0
C1573 C 0.21494 0.10124 0.77331 0.0
C1574 C 0.24554 0.09043 0.7493 0.0
C1575 C 0.19691 0.10374 0.77629 0.0
C1576 C 0.31767 0.10501 0.73309 0.0
C1577 C 0.29988 0.10245 0.73661 0.0
C1578 C 0.27046 0.1107 0.76151 0.0
C1579 C 0.22031 0.10132 0.76186 0.0
C1580 C 0.23969 0.10048 0.75871 0.0
C1581 C 0.29546 0.10186 0.74822 0.0
C1582 C 0.27633 0.10083 0.75202 0.0
H1583 H 0.17934 0.10797 0.74972 0.0
H1584 H 0.21071 0.10355 0.74456 0.0
H1585 H 0.24838 0.11865 0.77198 0.0
H1586 H 0.3375 0.10734 0.7591 0.0
H1587 H 0.30669 0.1024 0.76521 0.0
C1588 C 0.65833 0.43836 0.50685 0.0
C1589 C 0.65722 0.43438 0.51849 0.0
C1590 C 0.66091 0.45602 0.50314 0.0
C1591 C 0.67346 0.50223 0.51278 0.0
H1592 H 0.64544 0.51664 0.48661 0.0
C1593 C 0.65826 0.57654 0.50134 0.0
C1594 C 0.6578 0.58141 0.48981 0.0
C1595 C 0.66077 0.55861 0.50457 0.0
C1596 C 0.65358 0.51282 0.49382 0.0
H1597 H 0.65851 0.44585 0.53536 0.0
H1598 H 0.66264 0.4767 0.52891 0.0
H1599 H 0.64502 0.48549 0.49277 0.0
H1600 H 0.6603 0.57126 0.47265 0.0
H1601 H 0.66471 0.53998 0.47828 0.0
H1602 H 0.68157 0.52982 0.51398 0.0
C1603 C 0.66182 0.46615 0.52262 0.0
C1604 C 0.65337 0.49488 0.49737 0.0
C1605 C 0.65939 0.44842 0.52634 0.0
C1606 C 0.66057 0.568 0.4816 0.0
C1607 C 0.66297 0.55004 0.48483 0.0
C1608 C 0.67358 0.52023 0.50927 0.0
C1609 C 0.66227 0.47026 0.51095 0.0
C1610 C 0.66323 0.48931 0.50694 0.0
C1611 C 0.66277 0.54506 0.49635 0.0
C1612 C 0.66356 0.52577 0.49977 0.0
H1613 H 0.65685 0.42785 0.50056 0.0
H1614 H 0.6616 0.45853 0.4941 0.0
H1615 H 0.68144 0.49846 0.52008 0.0
H1616 H 0.65616 0.58651 0.5079 0.0
H1617 H 0.66041 0.55527 0.51351 0.0
C1618 C 0.19588 0.91192 0.23151 0.0
C1619 C 0.18278 0.90881 0.23987 0.0
C1620 C 0.21388 0.9145 0.23453 0.0
C1621 C 0.24425 0.92491 0.25871 0.0
H1622 H 0.27885 0.89725 0.24145 0.0
C1623 C 0.31641 0.91036 0.27486 0.0
C1624 C 0.33029 0.90861 0.26685 0.0
C1625 C 0.29863 0.91296 0.27134 0.0
C1626 C 0.26949 0.90535 0.24626 0.0
H1627 H 0.17828 0.90677 0.25801 0.0
H1628 H 0.20959 0.91129 0.26325 0.0
H1629 H 0.24756 0.8975 0.23566 0.0
H1630 H 0.33646 0.9092 0.24888 0.0
H1631 H 0.30566 0.91421 0.24277 0.0
H1632 H 0.2662 0.93265 0.26938 0.0
C1633 C 0.20597 0.9118 0.25436 0.0
C1634 C 0.25147 0.90547 0.24293 0.0
C1635 C 0.188 0.90913 0.25134 0.0
C1636 C 0.32609 0.91036 0.25528 0.0
C1637 C 0.30836 0.91308 0.25177 0.0
C1638 C 0.26232 0.92488 0.26202 0.0
C1639 C 0.21921 0.91414 0.24598 0.0
C1640 C 0.23858 0.9151 0.24916 0.0
C1641 C 0.2943 0.91398 0.25973 0.0
C1642 C 0.27518 0.91496 0.2559 0.0
H1643 H 0.19234 0.91179 0.2226 0.0
H1644 H 0.22369 0.91652 0.22787 0.0
H1645 H 0.23471 0.93264 0.26363 0.0
H1646 H 0.31916 0.90899 0.28384 0.0
H1647 H 0.28821 0.91341 0.27773 0.0
C1648 C 0.66089 0.06902 0.52789 0.0
C1649 C 0.65786 0.08218 0.51955 0.0
C1650 C 0.66347 0.05101 0.52485 0.0
C1651 C 0.67412 0.02072 0.50063 0.0
H1652 H 0.64651 0.98597 0.51778 0.0
C1653 C 0.66043 0.94833 0.48445 0.0
C1654 C 0.65872 0.93444 0.49246 0.0
C1655 C 0.66276 0.96617 0.48796 0.0
C1656 C 0.6546 0.99537 0.513 0.0
H1657 H 0.65595 0.08677 0.50142 0.0
H1658 H 0.66048 0.05545 0.49613 0.0
H1659 H 0.64655 0.01728 0.5236 0.0
H1660 H 0.65909 0.92834 0.51044 0.0
H1661 H 0.66364 0.95924 0.51655 0.0
H1662 H 0.68208 0.9988 0.48998 0.0
C1663 C 0.66092 0.05903 0.50503 0.0
C1664 C 0.65459 0.0134 0.51634 0.0
C1665 C 0.65824 0.07701 0.50807 0.0
C1666 C 0.66022 0.93871 0.50404 0.0
C1667 C 0.66267 0.9565 0.50755 0.0
C1668 C 0.67421 1.00264 0.49731 0.0
C1669 C 0.66319 0.04573 0.51338 0.0
C1670 C 0.66422 0.02635 0.51016 0.0
C1671 C 0.66355 0.97056 0.49958 0.0
C1672 C 0.66432 0.98972 0.50339 0.0
H1673 H 0.6607 0.07252 0.53681 0.0
H1674 H 0.66543 0.04116 0.53149 0.0
H1675 H 0.68185 0.0303 0.49575 0.0
H1676 H 0.65924 0.94554 0.47546 0.0
H1677 H 0.6632 0.97659 0.48156 0.0
C1678 C 0.19726 0.41046 0.7747 0.0
C1679 C 0.1833 0.4086 0.76677 0.0
C1680 C 0.21502 0.41289 0.77108 0.0
C1681 C 0.2439 0.40472 0.7459 0.0
H1682 H 0.27892 0.43218 0.76291 0.0
C1683 C 0.31729 0.41114 0.73063 0.0
C1684 C 0.33053 0.40814 0.73891 0.0
C1685 C 0.29932 0.41371 0.73376 0.0
C1686 C 0.26931 0.42439 0.75809 0.0
H1687 H 0.17695 0.40882 0.74883 0.0
H1688 H 0.20771 0.41355 0.74253 0.0
H1689 H 0.24751 0.43234 0.76884 0.0
H1690 H 0.33532 0.40627 0.75702 0.0
H1691 H 0.30408 0.41079 0.76246 0.0
H1692 H 0.26568 0.39668 0.73521 0.0
C1693 C 0.20509 0.41263 0.75155 0.0
C1694 C 0.25128 0.42445 0.7615 0.0
C1695 C 0.18739 0.41007 0.75517 0.0
C1696 C 0.32549 0.40854 0.75041 0.0
C1697 C 0.30756 0.41121 0.75354 0.0
C1698 C 0.26187 0.40475 0.74246 0.0
C1699 C 0.21924 0.41363 0.75944 0.0
C1700 C 0.23833 0.41448 0.75551 0.0
C1701 C 0.29417 0.41345 0.74525 0.0
C1702 C 0.27485 0.41445 0.74856 0.0
H1703 H 0.19461 0.40931 0.78371 0.0
H1704 H 0.22551 0.41344 0.77742 0.0
H1705 H 0.23447 0.39656 0.74119 0.0
H1706 H 0.32068 0.41093 0.7217 0.0
H1707 H 0.28941 0.41564 0.72716 0.0
C1708 C 0.85467 0.94867 0.02602 0.0
C1709 C 0.85737 0.93551 0.01764 0.0
C1710 C 0.85208 0.9667 0.02301 0.0
C1711 C 0.84099 0.99714 0.99894 0.0
H1712 H 0.86945 0.03156 0.01577 0.0
C1713 C 0.85511 0.06939 0.98262 0.0
C1714 C 0.85718 0.08325 0.99061 0.0
C1715 C 0.85266 0.05157 0.98615 0.0
C1716 C 0.86113 0.02225 0.01108 0.0
H1717 H 0.85865 0.93093 0.99948 0.0
H1718 H 0.85411 0.96228 0.99426 0.0
H1719 H 0.86923 1.00025 0.02158 0.0
H1720 H 0.85732 0.08933 0.0086 0.0
H1721 H 0.85257 0.05848 0.01474 0.0
H1722 H 0.833 0.01917 0.98838 0.0
C1723 C 0.85393 0.95869 1.00316 0.0
C1724 C 0.86103 1.00422 0.01443 0.0
C1725 C 0.85661 0.94069 0.00617 0.0
C1726 C 0.85592 0.07898 1.0022 0.0
C1727 C 0.85334 0.06122 0.00573 0.0
C1728 C 0.84101 0.01523 0.99562 0.0
C1729 C 0.85203 0.972 0.01155 0.0
C1730 C 0.85109 0.99138 0.00835 0.0
C1731 C 0.85211 0.04718 0.99777 0.0
C1732 C 0.85121 0.02803 1.00159 0.0
H1733 H 0.85515 0.94516 0.03493 0.0
H1734 H 0.8504 0.97655 0.02969 0.0
H1735 H 0.83303 0.98765 0.99414 0.0
H1736 H 0.85609 0.07218 0.97362 0.0
H1737 H 0.85193 0.04117 0.97975 0.0
C1738 C 0.32678 0.60507 0.25456 0.0
C1739 C 0.33101 0.60653 0.26615 0.0
C1740 C 0.30902 0.6026 0.25104 0.0
C1741 C 0.2629 0.591 0.26122 0.0
H1742 H 0.24832 0.6188 0.23498 0.0
C1743 C 0.18862 0.60708 0.25045 0.0
C1744 C 0.18347 0.6075 0.23897 0.0
C1745 C 0.20658 0.60438 0.2535 0.0
C1746 C 0.25218 0.61072 0.24222 0.0
H1747 H 0.31989 0.60592 0.28313 0.0
H1748 H 0.28889 0.60195 0.27701 0.0
H1749 H 0.2796 0.61881 0.24081 0.0
H1750 H 0.19315 0.60471 0.22171 0.0
H1751 H 0.22447 0.59993 0.22704 0.0
H1752 H 0.23525 0.58337 0.26276 0.0
C1753 C 0.29931 0.60243 0.27061 0.0
C1754 C 0.27019 0.61069 0.24557 0.0
C1755 C 0.31712 0.60476 0.27414 0.0
C1756 C 0.19663 0.60449 0.23063 0.0
C1757 C 0.21462 0.60188 0.23368 0.0
C1758 C 0.24483 0.59112 0.25789 0.0
C1759 C 0.29496 0.60168 0.25899 0.0
C1760 C 0.27582 0.60092 0.25516 0.0
C1761 C 0.21988 0.60212 0.24515 0.0
C1762 C 0.23923 0.60107 0.24838 0.0
H1763 H 0.33715 0.60624 0.24817 0.0
H1764 H 0.3063 0.60167 0.24203 0.0
H1765 H 0.26672 0.5831 0.26855 0.0
H1766 H 0.17885 0.60937 0.2571 0.0
H1767 H 0.21014 0.60479 0.2624 0.0
C1768 C 0.35487 0.06875 0.52456 0.0
C1769 C 0.35721 0.08253 0.51654 0.0
C1770 C 0.35242 0.05091 0.52106 0.0
C1771 C 0.36134 0.02134 0.49632 0.0
H1772 H 0.33249 0.98709 0.51307 0.0
C1773 C 0.35468 0.94769 0.48155 0.0
C1774 C 0.35701 0.93457 0.49001 0.0
C1775 C 0.35217 0.96576 0.48447 0.0
C1776 C 0.34066 0.99648 0.50833 0.0
H1777 H 0.35786 0.08847 0.49854 0.0
H1778 H 0.35312 0.05759 0.49245 0.0
H1779 H 0.33256 0.01865 0.51874 0.0
H1780 H 0.35772 0.93012 0.50819 0.0
H1781 H 0.35332 0.96154 0.51326 0.0
H1782 H 0.36955 0.99919 0.48598 0.0
C1783 C 0.35367 0.0604 0.50146 0.0
C1784 C 0.34074 0.01459 0.51159 0.0
C1785 C 0.35624 0.07818 0.50495 0.0
C1786 C 0.35597 0.93985 0.50145 0.0
C1787 C 0.35337 0.95789 0.50437 0.0
C1788 C 0.36118 1.00328 0.49303 0.0
C1789 C 0.35214 0.04644 0.50945 0.0
C1790 C 0.35121 0.02726 0.50569 0.0
C1791 C 0.35183 0.97115 0.49592 0.0
C1792 C 0.35097 0.99057 0.49904 0.0
H1793 H 0.35563 0.0716 0.53356 0.0
H1794 H 0.35146 0.04056 0.52749 0.0
H1795 H 0.36986 0.03055 0.49169 0.0
H1796 H 0.35539 0.94411 0.47266 0.0
H1797 H 0.35077 0.97558 0.47775 0.0
C1798 C 0.69711 0.60418 0.27742 0.0
C1799 C 0.68382 0.60715 0.26916 0.0
C1800 C 0.71506 0.60163 0.27425 0.0
C1801 C 0.74496 0.59099 0.24985 0.0
H1802 H 0.77982 0.61894 0.26666 0.0
C1803 C 0.8169 0.60504 0.23308 0.0
C1804 C 0.83091 0.60689 0.24098 0.0
C1805 C 0.79916 0.60262 0.23674 0.0
C1806 C 0.77039 0.61076 0.26197 0.0
H1807 H 0.67891 0.60896 0.25106 0.0
H1808 H 0.71013 0.60447 0.24555 0.0
H1809 H 0.74864 0.61874 0.27271 0.0
H1810 H 0.83734 0.6067 0.25892 0.0
H1811 H 0.80661 0.60199 0.26527 0.0
H1812 H 0.76673 0.5831 0.23905 0.0
C1813 C 0.70671 0.60406 0.25448 0.0
C1814 C 0.75244 0.61067 0.26545 0.0
C1815 C 0.68879 0.60671 0.25765 0.0
C1816 C 0.82687 0.60545 0.25259 0.0
C1817 C 0.80918 0.60291 0.25624 0.0
C1818 C 0.76297 0.59099 0.24639 0.0
C1819 C 0.72014 0.60187 0.26274 0.0
C1820 C 0.73945 0.60092 0.25939 0.0
C1821 C 0.79499 0.60188 0.24839 0.0
C1822 C 0.77593 0.60101 0.25235 0.0
H1823 H 0.69377 0.60442 0.28636 0.0
H1824 H 0.72502 0.59973 0.28083 0.0
H1825 H 0.73535 0.58317 0.24505 0.0
H1826 H 0.81952 0.60617 0.22407 0.0
H1827 H 0.78864 0.60206 0.23041 0.0
C1828 C 0.16103 0.94807 0.02454 0.0
C1829 C 0.15934 0.93427 0.01647 0.0
C1830 C 0.1634 0.96594 0.0211 0.0
C1831 C 0.15535 0.99538 0.99617 0.0
H1832 H 0.18248 0.03015 0.01361 0.0
C1833 C 0.16146 0.06924 0.98166 0.0
C1834 C 0.15833 0.08226 0.99007 0.0
C1835 C 0.16411 0.05119 0.98461 0.0
C1836 C 0.17479 0.02061 0.00867 0.0
H1837 H 0.1598 0.92833 0.99847 0.0
H1838 H 0.16444 0.95929 0.99249 0.0
H1839 H 0.18274 0.99857 0.01924 0.0
H1840 H 0.15631 0.08658 0.00823 0.0
H1841 H 0.16097 0.0552 0.01335 0.0
H1842 H 0.1473 0.0174 0.98567 0.0
C1843 C 0.16342 0.95646 1.00148 0.0
C1844 C 0.1749 1.00249 0.01191 0.0
C1845 C 0.16091 0.93864 0.00492 0.0
C1846 C 0.15868 0.07692 1.00152 0.0
C1847 C 0.16144 0.05891 0.00447 0.0
C1848 C 0.15533 0.01344 0.99291 0.0
C1849 C 0.16426 0.97043 0.0095 0.0
C1850 C 0.16505 0.98963 0.00576 0.0
C1851 C 0.16381 0.04575 0.99605 0.0
C1852 C 0.1649 0.02634 0.99916 0.0
H1853 H 0.15978 0.94519 0.03352 0.0
H1854 H 0.16382 0.97629 0.02754 0.0
H1855 H 0.1473 0.98601 0.99134 0.0
H1856 H 0.16129 0.07286 0.97276 0.0
H1857 H 0.16615 0.04145 0.97791 0.0
C1858 C 0.82505 0.40977 0.75606 0.0
C1859 C 0.83013 0.40881 0.76754 0.0
C1860 C 0.80708 0.41241 0.75301 0.0
C1861 C 0.76157 0.4047 0.76407 0.0
H1862 H 0.74662 0.43313 0.73818 0.0
C1863 C 0.68696 0.40931 0.75158 0.0
C1864 C 0.68283 0.40829 0.73996 0.0
C1865 C 0.70464 0.41198 0.75521 0.0
C1866 C 0.75057 0.425 0.74538 0.0
H1867 H 0.82031 0.41064 0.78482 0.0
H1868 H 0.78898 0.41533 0.7795 0.0
H1869 H 0.77805 0.4333 0.74406 0.0
H1870 H 0.69406 0.40985 0.72303 0.0
H1871 H 0.72494 0.41416 0.72932 0.0
H1872 H 0.73433 0.39596 0.76524 0.0
C1873 C 0.79889 0.41384 0.77285 0.0
C1874 C 0.7686 0.42514 0.74876 0.0
C1875 C 0.81689 0.41129 0.7759 0.0
C1876 C 0.69674 0.41065 0.73204 0.0
C1877 C 0.71448 0.41319 0.73567 0.0
C1878 C 0.74359 0.40448 0.76065 0.0
C1879 C 0.7937 0.41407 0.76137 0.0
C1880 C 0.77436 0.41489 0.75812 0.0
C1881 C 0.71874 0.41353 0.74731 0.0
C1882 C 0.73782 0.41454 0.75122 0.0
H1883 H 0.83488 0.40789 0.7494 0.0
H1884 H 0.80358 0.41238 0.7441 0.0
H1885 H 0.76555 0.39638 0.77117 0.0
H1886 H 0.67656 0.40768 0.75792 0.0
H1887 H 0.70728 0.41257 0.76423 0.0
C1888 C 0.16406 0.82632 0.01929 0.0
C1889 C 0.1646 0.83414 0.03015 0.0
C1890 C 0.16763 0.80795 0.01785 0.0
C1891 C 0.18642 0.76756 0.03248 0.0
H1892 H 0.15082 0.74151 0.01507 0.0
C1893 C 0.16876 0.6937 0.04114 0.0
C1894 C 0.1636 0.68242 0.03215 0.0
C1895 C 0.17261 0.71182 0.03924 0.0
C1896 C 0.16111 0.74854 0.01978 0.0
H1897 H 0.17038 0.82894 0.04788 0.0
H1898 H 0.1766 0.79719 0.04539 0.0
H1899 H 0.1511 0.77424 0.0146 0.0
H1900 H 0.15923 0.68126 0.01398 0.0
H1901 H 0.16601 0.713 0.01065 0.0
H1902 H 0.19603 0.74187 0.03796 0.0
C1903 C 0.17347 0.80514 0.03795 0.0
C1904 C 0.16128 0.76736 0.01951 0.0
C1905 C 0.16979 0.82339 0.0394 0.0
C1906 C 0.16319 0.68955 0.0211 0.0
C1907 C 0.16693 0.70778 0.0192 0.0
C1908 C 0.18625 0.74877 0.03275 0.0
C1909 C 0.172 0.79704 0.02722 0.0
C1910 C 0.17362 0.77712 0.02611 0.0
C1911 C 0.17134 0.71922 0.02829 0.0
C1912 C 0.17328 0.73902 0.02665 0.0
H1913 H 0.16006 0.83419 0.01198 0.0
H1914 H 0.16657 0.80219 0.00944 0.0
H1915 H 0.19634 0.77462 0.03749 0.0
H1916 H 0.16925 0.68869 0.04977 0.0
H1917 H 0.17576 0.72021 0.04647 0.0
C1918 C 0.57321 0.92063 0.29075 0.0
C1919 C 0.58303 0.91379 0.28153 0.0
C1920 C 0.55477 0.92359 0.28986 0.0
C1921 C 0.51578 0.92616 0.27015 0.0
H1922 H 0.49041 0.90735 0.29629 0.0
C1923 C 0.43883 0.91042 0.27117 0.0
C1924 C 0.42992 0.91259 0.2816 0.0
C1925 C 0.45739 0.91347 0.27033 0.0
C1926 C 0.49719 0.91298 0.28898 0.0
H1927 H 0.58129 0.90582 0.26388 0.0
H1928 H 0.54888 0.91079 0.26236 0.0
H1929 H 0.52288 0.9077 0.29624 0.0
H1930 H 0.4332 0.92115 0.29906 0.0
H1931 H 0.46519 0.92699 0.29752 0.0
H1932 H 0.48981 0.93114 0.26286 0.0
C1933 C 0.55554 0.91399 0.27027 0.0
C1934 C 0.51591 0.91317 0.28895 0.0
C1935 C 0.57413 0.91115 0.27113 0.0
C1936 C 0.43968 0.91912 0.29093 0.0
C1937 C 0.45809 0.92233 0.29006 0.0
C1938 C 0.49692 0.92599 0.27019 0.0
C1939 C 0.54554 0.91962 0.27977 0.0
C1940 C 0.5255 0.91985 0.27959 0.0
C1941 C 0.46735 0.91887 0.27989 0.0
C1942 C 0.48739 0.91948 0.27965 0.0
H1943 H 0.57967 0.92303 0.29884 0.0
H1944 H 0.5476 0.92841 0.29726 0.0
H1945 H 0.52274 0.93142 0.2628 0.0
H1946 H 0.43171 0.90533 0.26384 0.0
H1947 H 0.46405 0.91065 0.26236 0.0
C1948 C 0.34521 0.19328 0.53912 0.0
C1949 C 0.35094 0.18251 0.53001 0.0
C1950 C 0.34148 0.2115 0.53756 0.0
C1951 C 0.35435 0.24923 0.51923 0.0
H1952 H 0.31869 0.27468 0.537 0.0
C1953 C 0.35215 0.32702 0.52058 0.0
C1954 C 0.3513 0.3342 0.5316 0.0
C1955 C 0.3485 0.30878 0.51866 0.0
C1956 C 0.32873 0.26779 0.53197 0.0
H1957 H 0.35636 0.18238 0.51194 0.0
H1958 H 0.34976 0.21431 0.50918 0.0
H1959 H 0.31854 0.24192 0.53661 0.0
H1960 H 0.34489 0.32802 0.54913 0.0
H1961 H 0.3385 0.29648 0.54579 0.0
H1962 H 0.3649 0.27509 0.51489 0.0
C1963 C 0.34832 0.2086 0.51758 0.0
C1964 C 0.32865 0.249 0.53175 0.0
C1965 C 0.35195 0.19026 0.51914 0.0
C1966 C 0.34573 0.32296 0.54053 0.0
C1967 C 0.34195 0.30484 0.5386 0.0
C1968 C 0.35442 0.26805 0.51944 0.0
C1969 C 0.34343 0.21954 0.52683 0.0
C1970 C 0.34177 0.23945 0.52564 0.0
C1971 C 0.34371 0.29737 0.5277 0.0
C1972 C 0.34192 0.27756 0.52608 0.0
H1973 H 0.34425 0.18778 0.54761 0.0
H1974 H 0.33795 0.21947 0.54491 0.0
H1975 H 0.36478 0.24236 0.51452 0.0
H1976 H 0.35644 0.33527 0.51351 0.0
H1977 H 0.34979 0.30351 0.51013 0.0
C1978 C 0.93963 0.10387 0.76994 0.0
C1979 C 0.93062 0.10149 0.78032 0.0
C1980 C 0.95821 0.10093 0.76916 0.0
C1981 C 0.99774 0.10156 0.788 0.0
H1982 H 0.02385 0.08352 0.76193 0.0
C1983 C 0.07386 0.09488 0.79013 0.0
C1984 C 0.0837 0.10169 0.78092 0.0
C1985 C 0.05545 0.09174 0.78918 0.0
C1986 C 0.01673 0.08867 0.76925 0.0
H1987 H 0.93375 0.09261 0.79772 0.0
H1988 H 0.9658 0.08698 0.79629 0.0
H1989 H 0.99092 0.08347 0.76181 0.0
H1990 H 0.08208 0.10945 0.76322 0.0
H1991 H 0.04974 0.10419 0.76159 0.0
H1992 H 0.02325 0.1071 0.7954 0.0
C1993 C 0.95875 0.09171 0.78883 0.0
C1994 C 0.99787 0.08865 0.76918 0.0
C1995 C 0.94031 0.09481 0.78964 0.0
C1996 C 0.07489 0.10414 0.77047 0.0
C1997 C 0.05634 0.10113 0.76954 0.0
C1998 C 0.01645 0.10158 0.78807 0.0
C1999 C 0.96809 0.09542 0.77873 0.0
C2000 C 0.98814 0.09501 0.77861 0.0
C2001 C 0.04629 0.09551 0.77902 0.0
C2002 C 0.02626 0.09505 0.77875 0.0
H2003 H 0.93256 0.10909 0.76261 0.0
H2004 H 0.96495 0.10393 0.76125 0.0
H2005 H 0.99078 0.10708 0.79528 0.0
H2006 H 0.08026 0.09263 0.79826 0.0
H2007 H 0.04827 0.08692 0.79656 0.0
C2008 C 0.16333 0.1901 0.98931 0.0
C2009 C 0.16404 0.18274 0.97833 0.0
C2010 C 0.16707 0.20836 0.9911 0.0
C2011 C 0.18666 0.24911 0.97734 0.0
H2012 H 0.15096 0.27486 0.99489 0.0
C2013 C 0.16979 0.32343 0.96972 0.0
C2014 C 0.16444 0.3344 0.97882 0.0
C2015 C 0.17355 0.30524 0.97139 0.0
C2016 C 0.16129 0.2679 0.99015 0.0
H2017 H 0.17029 0.18862 0.96073 0.0
H2018 H 0.17679 0.22018 0.96383 0.0
H2019 H 0.15086 0.24212 0.99479 0.0
H2020 H 0.15967 0.33493 0.99696 0.0
H2021 H 0.1663 0.30304 0.99989 0.0
H2022 H 0.19668 0.2749 0.97239 0.0
C2023 C 0.1734 0.21195 0.9711 0.0
C2024 C 0.16123 0.24908 0.99009 0.0
C2025 C 0.16956 0.19381 0.96931 0.0
C2026 C 0.1638 0.32689 0.98977 0.0
C2027 C 0.16744 0.30857 0.99143 0.0
C2028 C 0.18671 0.26791 0.9774 0.0
C2029 C 0.17177 0.2196 0.98196 0.0
C2030 C 0.1736 0.23944 0.98343 0.0
C2031 C 0.17199 0.29744 0.98221 0.0
C2032 C 0.17371 0.27756 0.98355 0.0
H2033 H 0.15909 0.18197 0.99644 0.0
H2034 H 0.16588 0.21376 0.99959 0.0
H2035 H 0.1966 0.24214 0.97229 0.0
H2036 H 0.17045 0.32875 0.96117 0.0
H2037 H 0.17682 0.2971 0.96406 0.0
C2038 C 0.93972 0.92009 0.21676 0.0
C2039 C 0.92999 0.9135 0.22608 0.0
C2040 C 0.95811 0.92345 0.21764 0.0
C2041 C 0.99683 0.92721 0.23763 0.0
H2042 H 0.02309 0.9094 0.21156 0.0
C2043 C 0.07395 0.91202 0.23694 0.0
C2044 C 0.083 0.91481 0.22661 0.0
C2045 C 0.05537 0.91501 0.23774 0.0
C2046 C 0.01603 0.91475 0.21885 0.0
H2047 H 0.93179 0.90625 0.24385 0.0
H2048 H 0.96406 0.91178 0.24535 0.0
H2049 H 0.99062 0.90898 0.21139 0.0
H2050 H 0.07996 0.92449 0.20937 0.0
H2051 H 0.04791 0.93012 0.21084 0.0
H2052 H 0.02256 0.93252 0.24516 0.0
C2053 C 0.95741 0.91457 0.23738 0.0
C2054 C 0.99732 0.91452 0.21875 0.0
C2055 C 0.93889 0.91139 0.23652 0.0
C2056 C 0.07338 0.92197 0.21741 0.0
C2057 C 0.05494 0.92508 0.21823 0.0
C2058 C 0.01569 0.9274 0.23774 0.0
C2059 C 0.96736 0.92006 0.22782 0.0
C2060 C 0.9874 0.92082 0.22809 0.0
C2061 C 0.04555 0.92093 0.22824 0.0
C2062 C 0.02551 0.92124 0.22831 0.0
H2063 H 0.93324 0.92208 0.20863 0.0
H2064 H 0.96519 0.92817 0.21019 0.0
H2065 H 0.98965 0.93222 0.24497 0.0
H2066 H 0.08096 0.90644 0.24417 0.0
H2067 H 0.04857 0.91168 0.24558 0.0
C2068 C 0.35193 0.68968 0.48863 0.0
C2069 C 0.35147 0.68213 0.47769 0.0
C2070 C 0.34833 0.70802 0.49024 0.0
C2071 C 0.32974 0.74879 0.47586 0.0
H2072 H 0.36484 0.77438 0.49393 0.0
C2073 C 0.34781 0.82286 0.46819 0.0
C2074 C 0.35252 0.83391 0.47739 0.0
C2075 C 0.3439 0.80469 0.46983 0.0
C2076 C 0.35469 0.76747 0.48903 0.0
H2077 H 0.3458 0.68776 0.46 0.0
H2078 H 0.33958 0.71944 0.46278 0.0
H2079 H 0.36458 0.74164 0.49404 0.0
H2080 H 0.35604 0.8346 0.49565 0.0
H2081 H 0.34919 0.80275 0.49852 0.0
H2082 H 0.3203 0.77462 0.47052 0.0
C2083 C 0.34264 0.71132 0.47015 0.0
C2084 C 0.35453 0.74865 0.48909 0.0
C2085 C 0.34633 0.6931 0.46854 0.0
C2086 C 0.35242 0.82649 0.48837 0.0
C2087 C 0.34865 0.8082 0.49001 0.0
C2088 C 0.32993 0.76758 0.47577 0.0
C2089 C 0.34403 0.71915 0.48097 0.0
C2090 C 0.34237 0.73905 0.48226 0.0
C2091 C 0.34468 0.797 0.48072 0.0
C2092 C 0.34272 0.77717 0.48212 0.0
H2093 H 0.35588 0.68163 0.49587 0.0
H2094 H 0.34931 0.71356 0.49871 0.0
H2095 H 0.31995 0.74186 0.47067 0.0
H2096 H 0.34772 0.8281 0.45962 0.0
H2097 H 0.34109 0.79648 0.46246 0.0
C2098 C 0.44029 0.09318 0.71771 0.0
C2099 C 0.43082 0.10079 0.72683 0.0
C2100 C 0.4587 0.08996 0.7185 0.0
C2101 C 0.49817 0.08841 0.73793 0.0
H2102 H 0.52309 0.10496 0.71103 0.0
C2103 C 0.57497 0.10437 0.73589 0.0
C2104 C 0.58374 0.10144 0.72548 0.0
C2105 C 0.55647 0.10119 0.73695 0.0
C2106 C 0.51643 0.09995 0.71855 0.0
H2107 H 0.4331 0.10988 0.74424 0.0
H2108 H 0.46545 0.1045 0.74558 0.0
H2109 H 0.49063 0.10476 0.71134 0.0
H2110 H 0.5803 0.09136 0.70837 0.0
H2111 H 0.5484 0.08531 0.71031 0.0
H2112 H 0.52426 0.08397 0.74518 0.0
C2113 C 0.45856 0.10086 0.73783 0.0
C2114 C 0.49772 0.09984 0.71873 0.0
C2115 C 0.44 0.10395 0.73707 0.0
C2116 C 0.57392 0.09399 0.71646 0.0
C2117 C 0.55557 0.09066 0.71755 0.0
C2118 C 0.51703 0.08851 0.73775 0.0
C2119 C 0.46824 0.09446 0.7284 0.0
C2120 C 0.48828 0.09401 0.72839 0.0
C2121 C 0.54642 0.09489 0.72765 0.0
C2122 C 0.52639 0.09422 0.72802 0.0
H2123 H 0.43359 0.09038 0.70975 0.0
H2124 H 0.46561 0.08454 0.71118 0.0
H2125 H 0.49134 0.08381 0.7455 0.0
H2126 H 0.58213 0.11017 0.74299 0.0
H2127 H 0.54989 0.10463 0.74485 0.0
C2128 C 0.84823 0.32433 0.96793 0.0
C2129 C 0.85286 0.33529 0.97719 0.0
C2130 C 0.84436 0.30613 0.96948 0.0
C2131 C 0.85507 0.2687 0.98856 0.0
H2132 H 0.8205 0.24326 0.96999 0.0
C2133 C 0.85213 0.19091 0.98798 0.0
C2134 C 0.85176 0.1834 0.97703 0.0
C2135 C 0.84858 0.20925 0.98961 0.0
C2136 C 0.83024 0.25013 0.97523 0.0
H2137 H 0.85631 0.33578 0.99545 0.0
H2138 H 0.84954 0.30388 0.99817 0.0
H2139 H 0.82086 0.27602 0.96995 0.0
H2140 H 0.84631 0.18913 0.95932 0.0
H2141 H 0.84017 0.22082 0.96212 0.0
H2142 H 0.8649 0.24283 0.99353 0.0
C2143 C 0.84902 0.30942 0.98968 0.0
C2144 C 0.83044 0.26893 0.97522 0.0
C2145 C 0.85275 0.32774 0.98813 0.0
C2146 C 0.84677 0.19443 0.96787 0.0
C2147 C 0.84313 0.21266 0.9695 0.0
C2148 C 0.8549 0.24988 0.98856 0.0
C2149 C 0.84512 0.29831 0.98034 0.0
C2150 C 0.84317 0.27846 0.98164 0.0
C2151 C 0.84442 0.22044 0.98033 0.0
C2152 C 0.8428 0.24034 0.98166 0.0
H2153 H 0.84815 0.32967 0.95938 0.0
H2154 H 0.84161 0.29799 0.96207 0.0
H2155 H 0.86518 0.27557 0.99353 0.0
H2156 H 0.85597 0.18282 0.99523 0.0
H2157 H 0.84948 0.21476 0.99809 0.0
C2158 C 0.67156 0.82519 0.46855 0.0
C2159 C 0.66454 0.83473 0.47783 0.0
C2160 C 0.6746 0.80672 0.46926 0.0
C2161 C 0.6768 0.76715 0.48862 0.0
H2162 H 0.65879 0.74241 0.46203 0.0
C2163 C 0.66081 0.69023 0.48671 0.0
C2164 C 0.66328 0.68153 0.47623 0.0
C2165 C 0.66394 0.70876 0.48776 0.0
C2166 C 0.6642 0.74902 0.46946 0.0
H2167 H 0.6563 0.83249 0.4954 0.0
H2168 H 0.66139 0.80004 0.49662 0.0
H2169 H 0.65914 0.77491 0.46239 0.0
H2170 H 0.67245 0.68516 0.45893 0.0
H2171 H 0.67839 0.71712 0.46083 0.0
H2172 H 0.68151 0.74098 0.49572 0.0
C2173 C 0.6647 0.80693 0.4888 0.0
C2174 C 0.6644 0.76775 0.46967 0.0
C2175 C 0.66179 0.82555 0.48811 0.0
C2176 C 0.67018 0.69148 0.46708 0.0
C2177 C 0.67346 0.70986 0.46815 0.0
C2178 C 0.67661 0.74827 0.4884 0.0
C2179 C 0.6705 0.79719 0.47923 0.0
C2180 C 0.67078 0.77712 0.4792 0.0
C2181 C 0.6697 0.71892 0.47836 0.0
C2182 C 0.67038 0.73897 0.47878 0.0
H2183 H 0.67402 0.83189 0.46053 0.0
H2184 H 0.67957 0.79977 0.46182 0.0
H2185 H 0.68183 0.77392 0.4961 0.0
H2186 H 0.65543 0.68297 0.49391 0.0
H2187 H 0.66088 0.71526 0.49574 0.0
C2188 C 0.84794 0.69439 0.04173 0.0
C2189 C 0.85281 0.68308 0.03269 0.0
C2190 C 0.84436 0.71259 0.0399 0.0
C2191 C 0.85604 0.74926 0.02041 0.0
H2192 H 0.82166 0.7758 0.03855 0.0
C2193 C 0.85368 0.82716 0.01997 0.0
C2194 C 0.85353 0.83498 0.03083 0.0
C2195 C 0.85004 0.80878 0.01859 0.0
C2196 C 0.83134 0.76861 0.03342 0.0
H2197 H 0.85692 0.68197 0.01449 0.0
H2198 H 0.85058 0.71385 0.01127 0.0
H2199 H 0.8215 0.74305 0.03895 0.0
H2200 H 0.84842 0.8298 0.04865 0.0
H2201 H 0.84205 0.79806 0.04625 0.0
H2202 H 0.86625 0.77485 0.01516 0.0
C2203 C 0.8497 0.70859 0.01982 0.0
C2204 C 0.83125 0.74982 0.03365 0.0
C2205 C 0.85318 0.69028 0.02165 0.0
C2206 C 0.84871 0.82424 0.04016 0.0
C2207 C 0.84494 0.806 0.03877 0.0
C2208 C 0.85612 0.76809 0.02017 0.0
C2209 C 0.8456 0.72005 0.02897 0.0
C2210 C 0.84392 0.73989 0.0274 0.0
C2211 C 0.84596 0.7979 0.02802 0.0
C2212 C 0.84409 0.77801 0.02692 0.0
H2213 H 0.8475 0.68933 0.05035 0.0
H2214 H 0.84145 0.72098 0.04718 0.0
H2215 H 0.86611 0.7421 0.01557 0.0
H2216 H 0.8574 0.83502 0.0126 0.0
H2217 H 0.85077 0.80302 0.01016 0.0
C2218 C 0.66269 0.32699 0.52135 0.0
C2219 C 0.6634 0.33443 0.53232 0.0
C2220 C 0.66632 0.30869 0.51962 0.0
C2221 C 0.68563 0.2679 0.53351 0.0
H2222 H 0.64996 0.24227 0.51591 0.0
C2223 C 0.6686 0.19362 0.54112 0.0
C2224 C 0.6633 0.18266 0.53201 0.0
C2225 C 0.67237 0.21181 0.53947 0.0
C2226 C 0.66028 0.24919 0.52067 0.0
H2227 H 0.66952 0.32863 0.54993 0.0
H2228 H 0.67583 0.29699 0.54694 0.0
H2229 H 0.64997 0.27501 0.51598 0.0
H2230 H 0.65861 0.18216 0.51386 0.0
H2231 H 0.66526 0.21404 0.51095 0.0
H2232 H 0.69555 0.24208 0.53851 0.0
C2233 C 0.67253 0.30519 0.53964 0.0
C2234 C 0.66029 0.26801 0.52071 0.0
C2235 C 0.66879 0.32338 0.54137 0.0
C2236 C 0.6627 0.19019 0.52106 0.0
C2237 C 0.66635 0.2085 0.51941 0.0
C2238 C 0.68562 0.2491 0.53348 0.0
C2239 C 0.67091 0.29747 0.5288 0.0
C2240 C 0.67265 0.27761 0.52738 0.0
C2241 C 0.67087 0.21962 0.52865 0.0
C2242 C 0.67263 0.23949 0.52731 0.0
H2243 H 0.65854 0.3351 0.51419 0.0
H2244 H 0.66514 0.30323 0.51114 0.0
H2245 H 0.69557 0.27484 0.53858 0.0
H2246 H 0.66924 0.18829 0.54967 0.0
H2247 H 0.67561 0.21994 0.5468 0.0
C2248 C 0.94016 0.41753 0.79096 0.0
C2249 C 0.93034 0.41148 0.78153 0.0
C2250 C 0.95859 0.42065 0.79015 0.0
C2251 C 0.9974 0.42509 0.77033 0.0
H2252 H 0.02336 0.40576 0.79609 0.0
C2253 C 0.07473 0.41065 0.77116 0.0
C2254 C 0.08356 0.41295 0.78161 0.0
C2255 C 0.05611 0.41337 0.7703 0.0
C2256 C 0.01639 0.41151 0.78889 0.0
H2257 H 0.93207 0.40496 0.76365 0.0
H2258 H 0.96446 0.41012 0.76225 0.0
H2259 H 0.99088 0.40531 0.7961 0.0
H2260 H 0.08005 0.42145 0.79906 0.0
H2261 H 0.04794 0.42662 0.7975 0.0
H2262 H 0.02322 0.43091 0.76307 0.0
C2263 C 0.95781 0.41264 0.77027 0.0
C2264 C 0.99767 0.41126 0.7889 0.0
C2265 C 0.93923 0.40967 0.77106 0.0
C2266 C 0.07364 0.41932 0.79092 0.0
C2267 C 0.05517 0.42216 0.79005 0.0
C2268 C 0.01626 0.42531 0.77032 0.0
C2269 C 0.96782 0.41757 0.77991 0.0
C2270 C 0.98786 0.41816 0.77968 0.0
C2271 C 0.04602 0.41853 0.77987 0.0
C2272 C 0.02598 0.41863 0.77966 0.0
H2273 H 0.93369 0.41928 0.79912 0.0
H2274 H 0.96572 0.42495 0.79767 0.0
H2275 H 0.99029 0.43054 0.7631 0.0
H2276 H 0.08196 0.40568 0.76383 0.0
H2277 H 0.04951 0.41045 0.76233 0.0
C2278 C 0.44017 0.59428 0.29028 0.0
C2279 C 0.43062 0.60117 0.28096 0.0
C2280 C 0.45864 0.59132 0.28959 0.0
C2281 C 0.49819 0.58893 0.27027 0.0
H2282 H 0.52285 0.60738 0.29677 0.0
C2283 C 0.57509 0.60477 0.27216 0.0
C2284 C 0.58373 0.60242 0.28267 0.0
C2285 C 0.55656 0.60171 0.27112 0.0
C2286 C 0.51626 0.60185 0.28936 0.0
H2287 H 0.43285 0.60923 0.26335 0.0
H2288 H 0.4653 0.60425 0.26217 0.0
H2289 H 0.49038 0.60702 0.29638 0.0
H2290 H 0.58001 0.59354 0.30003 0.0
H2291 H 0.54807 0.58771 0.29813 0.0
H2292 H 0.52436 0.58408 0.26322 0.0
C2293 C 0.45842 0.60101 0.27 0.0
C2294 C 0.49755 0.60165 0.28914 0.0
C2295 C 0.43981 0.60385 0.27067 0.0
C2296 C 0.57374 0.59571 0.29185 0.0
C2297 C 0.55536 0.5925 0.29078 0.0
C2298 C 0.51705 0.58912 0.2705 0.0
C2299 C 0.46816 0.59534 0.2796 0.0
C2300 C 0.48821 0.5951 0.27964 0.0
C2301 C 0.54636 0.59613 0.28054 0.0
C2302 C 0.52632 0.5955 0.2801 0.0
H2303 H 0.43348 0.59186 0.2983 0.0
H2304 H 0.46559 0.58645 0.29705 0.0
H2305 H 0.49144 0.58377 0.26282 0.0
H2306 H 0.58239 0.61 0.26494 0.0
H2307 H 0.5501 0.60466 0.2631 0.0
C2308 C 0.44006 0.42125 0.71623 0.0
C2309 C 0.43039 0.41403 0.72539 0.0
C2310 C 0.45846 0.42448 0.71714 0.0
C2311 C 0.49744 0.42683 0.73695 0.0
H2312 H 0.52316 0.40982 0.71045 0.0
C2313 C 0.57446 0.4114 0.73571 0.0
C2314 C 0.58343 0.4143 0.72537 0.0
C2315 C 0.5559 0.41443 0.7366 0.0
C2316 C 0.51627 0.41495 0.71787 0.0
H2317 H 0.4323 0.40561 0.74295 0.0
H2318 H 0.46462 0.411 0.74449 0.0
H2319 H 0.49069 0.40976 0.71046 0.0
H2320 H 0.58025 0.42416 0.70818 0.0
H2321 H 0.54823 0.4299 0.70981 0.0
H2322 H 0.52332 0.43164 0.7444 0.0
C2323 C 0.4579 0.41433 0.73662 0.0
C2324 C 0.49755 0.41492 0.71787 0.0
C2325 C 0.43935 0.41124 0.73575 0.0
C2326 C 0.57372 0.42156 0.71623 0.0
C2327 C 0.55531 0.42472 0.71714 0.0
C2328 C 0.51631 0.42686 0.73695 0.0
C2329 C 0.46779 0.42038 0.72718 0.0
C2330 C 0.48783 0.42093 0.72737 0.0
C2331 C 0.546 0.42051 0.72718 0.0
C2332 C 0.52595 0.42099 0.72736 0.0
H2333 H 0.43353 0.42376 0.70817 0.0
H2334 H 0.46551 0.42963 0.70979 0.0
H2335 H 0.4904 0.43159 0.7444 0.0
H2336 H 0.58153 0.40575 0.7429 0.0
H2337 H 0.54919 0.41102 0.74446 0.0
C2338 C 0.93943 0.60402 0.23631 0.0
C2339 C 0.93043 0.60153 0.22594 0.0
C2340 C 0.958 0.60105 0.23712 0.0
C2341 C 0.9976 0.60134 0.21829 0.0
H2342 H 0.02358 0.5838 0.24455 0.0
C2343 C 0.07379 0.59485 0.2164 0.0
C2344 C 0.08354 0.60182 0.22561 0.0
C2345 C 0.05538 0.59166 0.21732 0.0
C2346 C 0.01651 0.58881 0.23717 0.0
H2347 H 0.93359 0.59245 0.20858 0.0
H2348 H 0.96563 0.58677 0.21006 0.0
H2349 H 0.99066 0.58373 0.24461 0.0
H2350 H 0.08173 0.60983 0.24324 0.0
H2351 H 0.0494 0.6045 0.24481 0.0
H2352 H 0.02316 0.60678 0.2109 0.0
C2353 C 0.95857 0.59161 0.21749 0.0
C2354 C 0.99764 0.58877 0.23721 0.0
C2355 C 0.94014 0.59473 0.21666 0.0
C2356 C 0.07462 0.6044 0.23601 0.0
C2357 C 0.05607 0.60134 0.2369 0.0
C2358 C 0.01632 0.60137 0.21826 0.0
C2359 C 0.9679 0.59542 0.22757 0.0
C2360 C 0.98795 0.59496 0.22772 0.0
C2361 C 0.04612 0.59555 0.22743 0.0
C2362 C 0.02608 0.59503 0.22765 0.0
H2363 H 0.93236 0.60932 0.24361 0.0
H2364 H 0.96473 0.60414 0.24502 0.0
H2365 H 0.99069 0.60673 0.21096 0.0
H2366 H 0.08027 0.5925 0.20831 0.0
H2367 H 0.04827 0.58671 0.20994 0.0
loop_
_geom_bond_atom_site_label_1
_geom_bond_atom_site_label_2
_geom_bond_distance
_geom_bond_site_symmetry_2
_ccdc_geom_bond_type
O0 Cd1 2.223 . S
O0 C8 1.315 . S
Cd1 O0 2.223 . S
Cd1 O4 2.297 . S
Cd1 O5 2.439 . S
Cd1 O11 2.240 . S
Cd2 O3 2.240 . S
Cd2 O10 2.223 . S
Cd2 O12 2.297 . S
Cd2 O13 2.439 . S
O3 Cd2 2.240 . S
O3 C8 1.279 . S
O4 Cd1 2.297 . S
O4 C6 1.247 . S
O5 Cd1 2.439 . S
O5 C6 1.208 . S
C6 O4 1.247 . S
C6 O5 1.208 . S
C7 O12 1.247 . S
C7 O13 1.208 . S
C8 O0 1.315 . S
C8 O3 1.279 . S
C9 O10 1.315 . S
C9 O11 1.279 . S
O10 Cd2 2.223 . S
O10 C9 1.315 . S
O11 Cd1 2.240 . S
O11 C9 1.279 . S
O12 Cd2 2.297 . S
O12 C7 1.247 . S
O13 Cd2 2.439 . S
O13 C7 1.208 . S
O14 Cd15 2.223 . S
O14 C22 1.315 . S
Cd15 O14 2.223 . S
Cd15 O18 2.297 . S
Cd15 O19 2.439 . S
Cd15 O25 2.240 . S
Cd16 O17 2.240 . S
Cd16 O24 2.223 . S
Cd16 O26 2.297 . S
Cd16 O27 2.439 . S
O17 Cd16 2.240 . S
O17 C22 1.279 . S
O18 Cd15 2.297 . S
O18 C20 1.247 . S
O19 Cd15 2.439 . S
O19 C20 1.208 . S
C20 O18 1.247 . S
C20 O19 1.208 . S
C21 O26 1.247 . S
C21 O27 1.208 . S
C22 O14 1.315 . S
C22 O17 1.279 . S
C23 O24 1.315 . S
C23 O25 1.279 . S
O24 Cd16 2.223 . S
O24 C23 1.315 . S
O25 Cd15 2.240 . S
O25 C23 1.279 . S
O26 Cd16 2.297 . S
O26 C21 1.247 . S
O27 Cd16 2.439 . S
O27 C21 1.208 . S
O28 Cd29 2.223 . S
O28 C36 1.315 . S
Cd29 O28 2.223 . S
Cd29 O32 2.297 . S
Cd29 O33 2.439 . S
Cd29 O39 2.240 . S
Cd30 O31 2.240 . S
Cd30 O38 2.223 . S
Cd30 O40 2.297 . S
Cd30 O41 2.439 . S
O31 Cd30 2.240 . S
O31 C36 1.279 . S
O32 Cd29 2.297 . S
O32 C34 1.247 . S
O33 Cd29 2.439 . S
O33 C34 1.208 . S
C34 O32 1.247 . S
C34 O33 1.208 . S
C35 O40 1.247 . S
C35 O41 1.208 . S
C36 O28 1.315 . S
C36 O31 1.279 . S
C37 O38 1.315 . S
C37 O39 1.279 . S
O38 Cd30 2.223 . S
O38 C37 1.315 . S
O39 Cd29 2.240 . S
O39 C37 1.279 . S
O40 Cd30 2.297 . S
O40 C35 1.247 . S
O41 Cd30 2.439 . S
O41 C35 1.208 . S
O42 Cd43 2.223 . S
O42 C50 1.315 . S
Cd43 O42 2.223 . S
Cd43 O46 2.297 . S
Cd43 O47 2.439 . S
Cd43 O53 2.240 . S
Cd44 O45 2.240 . S
Cd44 O52 2.223 . S
Cd44 O54 2.297 . S
Cd44 O55 2.439 . S
O45 Cd44 2.240 . S
O45 C50 1.279 . S
O46 Cd43 2.297 . S
O46 C48 1.247 . S
O47 Cd43 2.439 . S
O47 C48 1.208 . S
C48 O46 1.247 . S
C48 O47 1.208 . S
C49 O54 1.247 . S
C49 O55 1.208 . S
C50 O42 1.315 . S
C50 O45 1.279 . S
C51 O52 1.315 . S
C51 O53 1.279 . S
O52 Cd44 2.223 . S
O52 C51 1.315 . S
O53 Cd43 2.240 . S
O53 C51 1.279 . S
O54 Cd44 2.297 . S
O54 C49 1.247 . S
O55 Cd44 2.439 . S
O55 C49 1.208 . S
O56 Cd57 2.223 . S
O56 C64 1.315 . S
Cd57 O56 2.223 . S
Cd57 O60 2.297 . S
Cd57 O61 2.439 . S
Cd57 O67 2.240 . S
Cd58 O59 2.240 . S
Cd58 O66 2.223 . S
Cd58 O68 2.297 . S
Cd58 O69 2.439 . S
O59 Cd58 2.240 . S
O59 C64 1.279 . S
O60 Cd57 2.297 . S
O60 C62 1.247 . S
O61 Cd57 2.439 . S
O61 C62 1.208 . S
C62 O60 1.247 . S
C62 O61 1.208 . S
C63 O68 1.247 . S
C63 O69 1.208 . S
C64 O56 1.315 . S
C64 O59 1.279 . S
C65 O66 1.315 . S
C65 O67 1.279 . S
O66 Cd58 2.223 . S
O66 C65 1.315 . S
O67 Cd57 2.240 . S
O67 C65 1.279 . S
O68 Cd58 2.297 . S
O68 C63 1.247 . S
O69 Cd58 2.439 . S
O69 C63 1.208 . S
O70 Cd71 2.223 . S
O70 C78 1.315 . S
Cd71 O70 2.223 . S
Cd71 O74 2.297 . S
Cd71 O75 2.439 . S
Cd71 O81 2.240 . S
Cd72 O73 2.240 . S
Cd72 O80 2.223 . S
Cd72 O82 2.297 . S
Cd72 O83 2.439 . S
O73 Cd72 2.240 . S
O73 C78 1.279 . S
O74 Cd71 2.297 . S
O74 C76 1.247 . S
O75 Cd71 2.439 . S
O75 C76 1.208 . S
C76 O74 1.247 . S
C76 O75 1.208 . S
C77 O82 1.247 . S
C77 O83 1.208 . S
C78 O70 1.315 . S
C78 O73 1.279 . S
C79 O80 1.315 . S
C79 O81 1.279 . S
O80 Cd72 2.223 . S
O80 C79 1.315 . S
O81 Cd71 2.240 . S
O81 C79 1.279 . S
O82 Cd72 2.297 . S
O82 C77 1.247 . S
O83 Cd72 2.439 . S
O83 C77 1.208 . S
O84 Cd85 2.223 . S
O84 C92 1.315 . S
Cd85 O84 2.223 . S
Cd85 O88 2.297 . S
Cd85 O89 2.439 . S
Cd85 O95 2.240 . S
Cd86 O87 2.240 . S
Cd86 O94 2.223 . S
Cd86 O96 2.297 . S
Cd86 O97 2.439 . S
O87 Cd86 2.240 . S
O87 C92 1.279 . S
O88 Cd85 2.297 . S
O88 C90 1.247 . S
O89 Cd85 2.439 . S
O89 C90 1.208 . S
C90 O88 1.247 . S
C90 O89 1.208 . S
C91 O96 1.247 . S
C91 O97 1.208 . S
C92 O84 1.315 . S
C92 O87 1.279 . S
C93 O94 1.315 . S
C93 O95 1.279 . S
O94 Cd86 2.223 . S
O94 C93 1.315 . S
O95 Cd85 2.240 . S
O95 C93 1.279 . S
O96 Cd86 2.297 . S
O96 C91 1.247 . S
O97 Cd86 2.439 . S
O97 C91 1.208 . S
O98 Cd99 2.223 . S
O98 C106 1.315 . S
Cd99 O98 2.223 . S
Cd99 O102 2.297 . S
Cd99 O103 2.439 . S
Cd99 O109 2.240 . S
Cd100 O101 2.240 . S
Cd100 O108 2.223 . S
Cd100 O110 2.297 . S
Cd100 O111 2.439 . S
O101 Cd100 2.240 . S
O101 C106 1.279 . S
O102 Cd99 2.297 . S
O102 C104 1.247 . S
O103 Cd99 2.439 . S
O103 C104 1.208 . S
C104 O102 1.247 . S
C104 O103 1.208 . S
C105 O110 1.247 . S
C105 O111 1.208 . S
C106 O98 1.315 . S
C106 O101 1.279 . S
C107 O108 1.315 . S
C107 O109 1.279 . S
O108 Cd100 2.223 . S
O108 C107 1.315 . S
O109 Cd99 2.240 . S
O109 C107 1.279 . S
O110 Cd100 2.297 . S
O110 C105 1.247 . S
O111 Cd100 2.439 . S
O111 C105 1.208 . S
O112 Cd113 2.223 . S
O112 C120 1.315 . S
Cd113 O112 2.223 . S
Cd113 O116 2.297 . S
Cd113 O117 2.439 . S
Cd113 O123 2.240 . S
Cd114 O115 2.240 . S
Cd114 O122 2.223 . S
Cd114 O124 2.297 . S
Cd114 O125 2.439 . S
O115 Cd114 2.240 . S
O115 C120 1.279 . S
O116 Cd113 2.297 . S
O116 C118 1.247 . S
O117 Cd113 2.439 . S
O117 C118 1.208 . S
C118 O116 1.247 . S
C118 O117 1.208 . S
C119 O124 1.247 . S
C119 O125 1.208 . S
C120 O112 1.315 . S
C120 O115 1.279 . S
C121 O122 1.315 . S
C121 O123 1.279 . S
O122 Cd114 2.223 . S
O122 C121 1.315 . S
O123 Cd113 2.240 . S
O123 C121 1.279 . S
O124 Cd114 2.297 . S
O124 C119 1.247 . S
O125 Cd114 2.439 . S
O125 C119 1.208 . S
O126 Cd127 2.223 . S
O126 C134 1.315 . S
Cd127 O126 2.223 . S
Cd127 O130 2.297 . S
Cd127 O131 2.439 . S
Cd127 O137 2.240 . S
Cd128 O129 2.240 . S
Cd128 O136 2.223 . S
Cd128 O138 2.297 . S
Cd128 O139 2.439 . S
O129 Cd128 2.240 . S
O129 C134 1.279 . S
O130 Cd127 2.297 . S
O130 C132 1.247 . S
O131 Cd127 2.439 . S
O131 C132 1.208 . S
C132 O130 1.247 . S
C132 O131 1.208 . S
C133 O138 1.247 . S
C133 O139 1.208 . S
C134 O126 1.315 . S
C134 O129 1.279 . S
C135 O136 1.315 . S
C135 O137 1.279 . S
O136 Cd128 2.223 . S
O136 C135 1.315 . S
O137 Cd127 2.240 . S
O137 C135 1.279 . S
O138 Cd128 2.297 . S
O138 C133 1.247 . S
O139 Cd128 2.439 . S
O139 C133 1.208 . S
O140 Cd141 2.223 . S
O140 C148 1.315 . S
Cd141 O140 2.223 . S
Cd141 O144 2.297 . S
Cd141 O145 2.439 . S
Cd141 O151 2.240 . S
Cd142 O143 2.240 . S
Cd142 O150 2.223 . S
Cd142 O152 2.297 . S
Cd142 O153 2.439 . S
O143 Cd142 2.240 . S
O143 C148 1.279 . S
O144 Cd141 2.297 . S
O144 C146 1.247 . S
O145 Cd141 2.439 . S
O145 C146 1.208 . S
C146 O144 1.247 . S
C146 O145 1.208 . S
C147 O152 1.247 . S
C147 O153 1.208 . S
C148 O140 1.315 . S
C148 O143 1.279 . S
C149 O150 1.315 . S
C149 O151 1.279 . S
O150 Cd142 2.223 . S
O150 C149 1.315 . S
O151 Cd141 2.240 . S
O151 C149 1.279 . S
O152 Cd142 2.297 . S
O152 C147 1.247 . S
O153 Cd142 2.439 . S
O153 C147 1.208 . S
O154 Cd155 2.223 . S
O154 C162 1.315 . S
Cd155 O154 2.223 . S
Cd155 O158 2.297 . S
Cd155 O159 2.439 . S
Cd155 O165 2.240 . S
Cd156 O157 2.240 . S
Cd156 O164 2.223 . S
Cd156 O166 2.297 . S
Cd156 O167 2.439 . S
O157 Cd156 2.240 . S
O157 C162 1.279 . S
O158 Cd155 2.297 . S
O158 C160 1.247 . S
O159 Cd155 2.439 . S
O159 C160 1.208 . S
C160 O158 1.247 . S
C160 O159 1.208 . S
C161 O166 1.247 . S
C161 O167 1.208 . S
C162 O154 1.315 . S
C162 O157 1.279 . S
C163 O164 1.315 . S
C163 O165 1.279 . S
O164 Cd156 2.223 . S
O164 C163 1.315 . S
O165 Cd155 2.240 . S
O165 C163 1.279 . S
O166 Cd156 2.297 . S
O166 C161 1.247 . S
O167 Cd156 2.439 . S
O167 C161 1.208 . S
O168 Cd169 2.223 . S
O168 C176 1.315 . S
Cd169 O168 2.223 . S
Cd169 O172 2.297 . S
Cd169 O173 2.439 . S
Cd169 O179 2.240 . S
Cd170 O171 2.240 . S
Cd170 O178 2.223 . S
Cd170 O180 2.297 . S
Cd170 O181 2.439 . S
O171 Cd170 2.240 . S
O171 C176 1.279 . S
O172 Cd169 2.297 . S
O172 C174 1.247 . S
O173 Cd169 2.439 . S
O173 C174 1.208 . S
C174 O172 1.247 . S
C174 O173 1.208 . S
C175 O180 1.247 . S
C175 O181 1.208 . S
C176 O168 1.315 . S
C176 O171 1.279 . S
C177 O178 1.315 . S
C177 O179 1.279 . S
O178 Cd170 2.223 . S
O178 C177 1.315 . S
O179 Cd169 2.240 . S
O179 C177 1.279 . S
O180 Cd170 2.297 . S
O180 C175 1.247 . S
O181 Cd170 2.439 . S
O181 C175 1.208 . S
O182 Cd183 2.223 . S
O182 C190 1.315 . S
Cd183 O182 2.223 . S
Cd183 O186 2.297 . S
Cd183 O187 2.439 . S
Cd183 O193 2.240 . S
Cd184 O185 2.240 . S
Cd184 O192 2.223 . S
Cd184 O194 2.297 . S
Cd184 O195 2.439 . S
O185 Cd184 2.240 . S
O185 C190 1.279 . S
O186 Cd183 2.297 . S
O186 C188 1.247 . S
O187 Cd183 2.439 . S
O187 C188 1.208 . S
C188 O186 1.247 . S
C188 O187 1.208 . S
C189 O194 1.247 . S
C189 O195 1.208 . S
C190 O182 1.315 . S
C190 O185 1.279 . S
C191 O192 1.315 . S
C191 O193 1.279 . S
O192 Cd184 2.223 . S
O192 C191 1.315 . S
O193 Cd183 2.240 . S
O193 C191 1.279 . S
O194 Cd184 2.297 . S
O194 C189 1.247 . S
O195 Cd184 2.439 . S
O195 C189 1.208 . S
O196 Cd197 2.223 . S
O196 C204 1.315 . S
Cd197 O196 2.223 . S
Cd197 O200 2.297 . S
Cd197 O201 2.439 . S
Cd197 O207 2.240 . S
Cd198 O199 2.240 . S
Cd198 O206 2.223 . S
Cd198 O208 2.297 . S
Cd198 O209 2.439 . S
O199 Cd198 2.240 . S
O199 C204 1.279 . S
O200 Cd197 2.297 . S
O200 C202 1.247 . S
O201 Cd197 2.439 . S
O201 C202 1.208 . S
C202 O200 1.247 . S
C202 O201 1.208 . S
C203 O208 1.247 . S
C203 O209 1.208 . S
C204 O196 1.315 . S
C204 O199 1.279 . S
C205 O206 1.315 . S
C205 O207 1.279 . S
O206 Cd198 2.223 . S
O206 C205 1.315 . S
O207 Cd197 2.240 . S
O207 C205 1.279 . S
O208 Cd198 2.297 . S
O208 C203 1.247 . S
O209 Cd198 2.439 . S
O209 C203 1.208 . S
O210 Cd211 2.223 . S
O210 C218 1.315 . S
Cd211 O210 2.223 . S
Cd211 O214 2.297 . S
Cd211 O215 2.439 . S
Cd211 O221 2.240 . S
Cd212 O213 2.240 . S
Cd212 O220 2.223 . S
Cd212 O222 2.297 . S
Cd212 O223 2.439 . S
O213 Cd212 2.240 . S
O213 C218 1.279 . S
O214 Cd211 2.297 . S
O214 C216 1.247 . S
O215 Cd211 2.439 . S
O215 C216 1.208 . S
C216 O214 1.247 . S
C216 O215 1.208 . S
C217 O222 1.247 . S
C217 O223 1.208 . S
C218 O210 1.315 . S
C218 O213 1.279 . S
C219 O220 1.315 . S
C219 O221 1.279 . S
O220 Cd212 2.223 . S
O220 C219 1.315 . S
O221 Cd211 2.240 . S
O221 C219 1.279 . S
O222 Cd212 2.297 . S
O222 C217 1.247 . S
O223 Cd212 2.439 . S
O223 C217 1.208 . S
O224 Cd225 2.223 . S
O224 C232 1.315 . S
Cd225 O224 2.223 . S
Cd225 O228 2.297 . S
Cd225 O229 2.439 . S
Cd225 O235 2.240 . S
Cd226 O227 2.240 . S
Cd226 O234 2.223 . S
Cd226 O236 2.297 . S
Cd226 O237 2.439 . S
O227 Cd226 2.240 . S
O227 C232 1.279 . S
O228 Cd225 2.297 . S
O228 C230 1.247 . S
O229 Cd225 2.439 . S
O229 C230 1.208 . S
C230 O228 1.247 . S
C230 O229 1.208 . S
C231 O236 1.247 . S
C231 O237 1.208 . S
C232 O224 1.315 . S
C232 O227 1.279 . S
C233 O234 1.315 . S
C233 O235 1.279 . S
O234 Cd226 2.223 . S
O234 C233 1.315 . S
O235 Cd225 2.240 . S
O235 C233 1.279 . S
O236 Cd226 2.297 . S
O236 C231 1.247 . S
O237 Cd226 2.439 . S
O237 C231 1.208 . S
O238 Cd239 2.223 . S
O238 C246 1.315 . S
Cd239 O238 2.223 . S
Cd239 O242 2.297 . S
Cd239 O243 2.439 . S
Cd239 O249 2.240 . S
Cd240 O241 2.240 . S
Cd240 O248 2.223 . S
Cd240 O250 2.297 . S
Cd240 O251 2.439 . S
O241 Cd240 2.240 . S
O241 C246 1.279 . S
O242 Cd239 2.297 . S
O242 C244 1.247 . S
O243 Cd239 2.439 . S
O243 C244 1.208 . S
C244 O242 1.247 . S
C244 O243 1.208 . S
C245 O250 1.247 . S
C245 O251 1.208 . S
C246 O238 1.315 . S
C246 O241 1.279 . S
C247 O248 1.315 . S
C247 O249 1.279 . S
O248 Cd240 2.223 . S
O248 C247 1.315 . S
O249 Cd239 2.240 . S
O249 C247 1.279 . S
O250 Cd240 2.297 . S
O250 C245 1.247 . S
O251 Cd240 2.439 . S
O251 C245 1.208 . S
O252 Cd253 2.223 . S
O252 C260 1.315 . S
Cd253 O252 2.223 . S
Cd253 O256 2.297 . S
Cd253 O257 2.439 . S
Cd253 O263 2.240 . S
Cd254 O255 2.240 . S
Cd254 O262 2.223 . S
Cd254 O264 2.297 . S
Cd254 O265 2.439 . S
O255 Cd254 2.240 . S
O255 C260 1.279 . S
O256 Cd253 2.297 . S
O256 C258 1.247 . S
O257 Cd253 2.439 . S
O257 C258 1.208 . S
C258 O256 1.247 . S
C258 O257 1.208 . S
C259 O264 1.247 . S
C259 O265 1.208 . S
C260 O252 1.315 . S
C260 O255 1.279 . S
C261 O262 1.315 . S
C261 O263 1.279 . S
O262 Cd254 2.223 . S
O262 C261 1.315 . S
O263 Cd253 2.240 . S
O263 C261 1.279 . S
O264 Cd254 2.297 . S
O264 C259 1.247 . S
O265 Cd254 2.439 . S
O265 C259 1.208 . S
O266 Cd267 2.223 . S
O266 C274 1.315 . S
Cd267 O266 2.223 . S
Cd267 O270 2.297 . S
Cd267 O271 2.439 . S
Cd267 O277 2.240 . S
Cd268 O269 2.240 . S
Cd268 O276 2.223 . S
Cd268 O278 2.297 . S
Cd268 O279 2.439 . S
O269 Cd268 2.240 . S
O269 C274 1.279 . S
O270 Cd267 2.297 . S
O270 C272 1.247 . S
O271 Cd267 2.439 . S
O271 C272 1.208 . S
C272 O270 1.247 . S
C272 O271 1.208 . S
C273 O278 1.247 . S
C273 O279 1.208 . S
C274 O266 1.315 . S
C274 O269 1.279 . S
C275 O276 1.315 . S
C275 O277 1.279 . S
O276 Cd268 2.223 . S
O276 C275 1.315 . S
O277 Cd267 2.240 . S
O277 C275 1.279 . S
O278 Cd268 2.297 . S
O278 C273 1.247 . S
O279 Cd268 2.439 . S
O279 C273 1.208 . S
O280 Cd281 2.223 . S
O280 C288 1.315 . S
Cd281 O280 2.223 . S
Cd281 O284 2.297 . S
Cd281 O285 2.439 . S
Cd281 O291 2.240 . S
Cd282 O283 2.240 . S
Cd282 O290 2.223 . S
Cd282 O292 2.297 . S
Cd282 O293 2.439 . S
O283 Cd282 2.240 . S
O283 C288 1.279 . S
O284 Cd281 2.297 . S
O284 C286 1.247 . S
O285 Cd281 2.439 . S
O285 C286 1.208 . S
C286 O284 1.247 . S
C286 O285 1.208 . S
C287 O292 1.247 . S
C287 O293 1.208 . S
C288 O280 1.315 . S
C288 O283 1.279 . S
C289 O290 1.315 . S
C289 O291 1.279 . S
O290 Cd282 2.223 . S
O290 C289 1.315 . S
O291 Cd281 2.240 . S
O291 C289 1.279 . S
O292 Cd282 2.297 . S
O292 C287 1.247 . S
O293 Cd282 2.439 . S
O293 C287 1.208 . S
O294 Cd295 2.223 . S
O294 C302 1.315 . S
Cd295 O294 2.223 . S
Cd295 O298 2.297 . S
Cd295 O299 2.439 . S
Cd295 O305 2.240 . S
Cd296 O297 2.240 . S
Cd296 O304 2.223 . S
Cd296 O306 2.297 . S
Cd296 O307 2.439 . S
O297 Cd296 2.240 . S
O297 C302 1.279 . S
O298 Cd295 2.297 . S
O298 C300 1.247 . S
O299 Cd295 2.439 . S
O299 C300 1.208 . S
C300 O298 1.247 . S
C300 O299 1.208 . S
C301 O306 1.247 . S
C301 O307 1.208 . S
C302 O294 1.315 . S
C302 O297 1.279 . S
C303 O304 1.315 . S
C303 O305 1.279 . S
O304 Cd296 2.223 . S
O304 C303 1.315 . S
O305 Cd295 2.240 . S
O305 C303 1.279 . S
O306 Cd296 2.297 . S
O306 C301 1.247 . S
O307 Cd296 2.439 . S
O307 C301 1.208 . S
O308 Cd309 2.223 . S
O308 C316 1.315 . S
Cd309 O308 2.223 . S
Cd309 O312 2.297 . S
Cd309 O313 2.439 . S
Cd309 O319 2.240 . S
Cd310 O311 2.240 . S
Cd310 O318 2.223 . S
Cd310 O320 2.297 . S
Cd310 O321 2.439 . S
O311 Cd310 2.240 . S
O311 C316 1.279 . S
O312 Cd309 2.297 . S
O312 C314 1.247 . S
O313 Cd309 2.439 . S
O313 C314 1.208 . S
C314 O312 1.247 . S
C314 O313 1.208 . S
C315 O320 1.247 . S
C315 O321 1.208 . S
C316 O308 1.315 . S
C316 O311 1.279 . S
C317 O318 1.315 . S
C317 O319 1.279 . S
O318 Cd310 2.223 . S
O318 C317 1.315 . S
O319 Cd309 2.240 . S
O319 C317 1.279 . S
O320 Cd310 2.297 . S
O320 C315 1.247 . S
O321 Cd310 2.439 . S
O321 C315 1.208 . S
O322 Cd323 2.223 . S
O322 C330 1.315 . S
Cd323 O322 2.223 . S
Cd323 O326 2.297 . S
Cd323 O327 2.439 . S
Cd323 O333 2.240 . S
Cd324 O325 2.240 . S
Cd324 O332 2.223 . S
Cd324 O334 2.297 . S
Cd324 O335 2.439 . S
O325 Cd324 2.240 . S
O325 C330 1.279 . S
O326 Cd323 2.297 . S
O326 C328 1.247 . S
O327 Cd323 2.439 . S
O327 C328 1.208 . S
C328 O326 1.247 . S
C328 O327 1.208 . S
C329 O334 1.247 . S
C329 O335 1.208 . S
C330 O322 1.315 . S
C330 O325 1.279 . S
C331 O332 1.315 . S
C331 O333 1.279 . S
O332 Cd324 2.223 . S
O332 C331 1.315 . S
O333 Cd323 2.240 . S
O333 C331 1.279 . S
O334 Cd324 2.297 . S
O334 C329 1.247 . S
O335 Cd324 2.439 . S
O335 C329 1.208 . S
O336 Cd337 2.223 . S
O336 C344 1.315 . S
Cd337 O336 2.223 . S
Cd337 O340 2.297 . S
Cd337 O341 2.439 . S
Cd337 O347 2.240 . S
Cd338 O339 2.240 . S
Cd338 O346 2.223 . S
Cd338 O348 2.297 . S
Cd338 O349 2.439 . S
O339 Cd338 2.240 . S
O339 C344 1.279 . S
O340 Cd337 2.297 . S
O340 C342 1.247 . S
O341 Cd337 2.439 . S
O341 C342 1.208 . S
C342 O340 1.247 . S
C342 O341 1.208 . S
C343 O348 1.247 . S
C343 O349 1.208 . S
C344 O336 1.315 . S
C344 O339 1.279 . S
C345 O346 1.315 . S
C345 O347 1.279 . S
O346 Cd338 2.223 . S
O346 C345 1.315 . S
O347 Cd337 2.240 . S
O347 C345 1.279 . S
O348 Cd338 2.297 . S
O348 C343 1.247 . S
O349 Cd338 2.439 . S
O349 C343 1.208 . S
O350 Cd351 2.223 . S
O350 C358 1.315 . S
Cd351 O350 2.223 . S
Cd351 O354 2.297 . S
Cd351 O355 2.439 . S
Cd351 O361 2.240 . S
Cd352 O353 2.240 . S
Cd352 O360 2.223 . S
Cd352 O362 2.297 . S
Cd352 O363 2.439 . S
O353 Cd352 2.240 . S
O353 C358 1.279 . S
O354 Cd351 2.297 . S
O354 C356 1.247 . S
O355 Cd351 2.439 . S
O355 C356 1.208 . S
C356 O354 1.247 . S
C356 O355 1.208 . S
C357 O362 1.247 . S
C357 O363 1.208 . S
C358 O350 1.315 . S
C358 O353 1.279 . S
C359 O360 1.315 . S
C359 O361 1.279 . S
O360 Cd352 2.223 . S
O360 C359 1.315 . S
O361 Cd351 2.240 . S
O361 C359 1.279 . S
O362 Cd352 2.297 . S
O362 C357 1.247 . S
O363 Cd352 2.439 . S
O363 C357 1.208 . S
O364 Cd365 2.223 . S
O364 C372 1.315 . S
Cd365 O364 2.223 . S
Cd365 O368 2.297 . S
Cd365 O369 2.439 . S
Cd365 O375 2.240 . S
Cd366 O367 2.240 . S
Cd366 O374 2.223 . S
Cd366 O376 2.297 . S
Cd366 O377 2.439 . S
O367 Cd366 2.240 . S
O367 C372 1.279 . S
O368 Cd365 2.297 . S
O368 C370 1.247 . S
O369 Cd365 2.439 . S
O369 C370 1.208 . S
C370 O368 1.247 . S
C370 O369 1.208 . S
C371 O376 1.247 . S
C371 O377 1.208 . S
C372 O364 1.315 . S
C372 O367 1.279 . S
C373 O374 1.315 . S
C373 O375 1.279 . S
O374 Cd366 2.223 . S
O374 C373 1.315 . S
O375 Cd365 2.240 . S
O375 C373 1.279 . S
O376 Cd366 2.297 . S
O376 C371 1.247 . S
O377 Cd366 2.439 . S
O377 C371 1.208 . S
O378 Cd379 2.223 . S
O378 C386 1.315 . S
Cd379 O378 2.223 . S
Cd379 O382 2.297 . S
Cd379 O383 2.439 . S
Cd379 O389 2.240 . S
Cd380 O381 2.240 . S
Cd380 O388 2.223 . S
Cd380 O390 2.297 . S
Cd380 O391 2.439 . S
O381 Cd380 2.240 . S
O381 C386 1.279 . S
O382 Cd379 2.297 . S
O382 C384 1.247 . S
O383 Cd379 2.439 . S
O383 C384 1.208 . S
C384 O382 1.247 . S
C384 O383 1.208 . S
C385 O390 1.247 . S
C385 O391 1.208 . S
C386 O378 1.315 . S
C386 O381 1.279 . S
C387 O388 1.315 . S
C387 O389 1.279 . S
O388 Cd380 2.223 . S
O388 C387 1.315 . S
O389 Cd379 2.240 . S
O389 C387 1.279 . S
O390 Cd380 2.297 . S
O390 C385 1.247 . S
O391 Cd380 2.439 . S
O391 C385 1.208 . S
O392 Cd393 2.223 . S
O392 C400 1.315 . S
Cd393 O392 2.223 . S
Cd393 O396 2.297 . S
Cd393 O397 2.439 . S
Cd393 O403 2.240 . S
Cd394 O395 2.240 . S
Cd394 O402 2.223 . S
Cd394 O404 2.297 . S
Cd394 O405 2.439 . S
O395 Cd394 2.240 . S
O395 C400 1.279 . S
O396 Cd393 2.297 . S
O396 C398 1.247 . S
O397 Cd393 2.439 . S
O397 C398 1.208 . S
C398 O396 1.247 . S
C398 O397 1.208 . S
C399 O404 1.247 . S
C399 O405 1.208 . S
C400 O392 1.315 . S
C400 O395 1.279 . S
C401 O402 1.315 . S
C401 O403 1.279 . S
O402 Cd394 2.223 . S
O402 C401 1.315 . S
O403 Cd393 2.240 . S
O403 C401 1.279 . S
O404 Cd394 2.297 . S
O404 C399 1.247 . S
O405 Cd394 2.439 . S
O405 C399 1.208 . S
O406 Cd407 2.223 . S
O406 C414 1.315 . S
Cd407 O406 2.223 . S
Cd407 O410 2.297 . S
Cd407 O411 2.439 . S
Cd407 O417 2.240 . S
Cd408 O409 2.240 . S
Cd408 O416 2.223 . S
Cd408 O418 2.297 . S
Cd408 O419 2.439 . S
O409 Cd408 2.240 . S
O409 C414 1.279 . S
O410 Cd407 2.297 . S
O410 C412 1.247 . S
O411 Cd407 2.439 . S
O411 C412 1.208 . S
C412 O410 1.247 . S
C412 O411 1.208 . S
C413 O418 1.247 . S
C413 O419 1.208 . S
C414 O406 1.315 . S
C414 O409 1.279 . S
C415 O416 1.315 . S
C415 O417 1.279 . S
O416 Cd408 2.223 . S
O416 C415 1.315 . S
O417 Cd407 2.240 . S
O417 C415 1.279 . S
O418 Cd408 2.297 . S
O418 C413 1.247 . S
O419 Cd408 2.439 . S
O419 C413 1.208 . S
O420 Cd421 2.223 . S
O420 C428 1.315 . S
Cd421 O420 2.223 . S
Cd421 O424 2.297 . S
Cd421 O425 2.439 . S
Cd421 O431 2.240 . S
Cd422 O423 2.240 . S
Cd422 O430 2.223 . S
Cd422 O432 2.297 . S
Cd422 O433 2.439 . S
O423 Cd422 2.240 . S
O423 C428 1.279 . S
O424 Cd421 2.297 . S
O424 C426 1.247 . S
O425 Cd421 2.439 . S
O425 C426 1.208 . S
C426 O424 1.247 . S
C426 O425 1.208 . S
C427 O432 1.247 . S
C427 O433 1.208 . S
C428 O420 1.315 . S
C428 O423 1.279 . S
C429 O430 1.315 . S
C429 O431 1.279 . S
O430 Cd422 2.223 . S
O430 C429 1.315 . S
O431 Cd421 2.240 . S
O431 C429 1.279 . S
O432 Cd422 2.297 . S
O432 C427 1.247 . S
O433 Cd422 2.439 . S
O433 C427 1.208 . S
O434 Cd435 2.223 . S
O434 C442 1.315 . S
Cd435 O434 2.223 . S
Cd435 O438 2.297 . S
Cd435 O439 2.439 . S
Cd435 O445 2.240 . S
Cd436 O437 2.240 . S
Cd436 O444 2.223 . S
Cd436 O446 2.297 . S
Cd436 O447 2.439 . S
O437 Cd436 2.240 . S
O437 C442 1.279 . S
O438 Cd435 2.297 . S
O438 C440 1.247 . S
O439 Cd435 2.439 . S
O439 C440 1.208 . S
C440 O438 1.247 . S
C440 O439 1.208 . S
C441 O446 1.247 . S
C441 O447 1.208 . S
C442 O434 1.315 . S
C442 O437 1.279 . S
C443 O444 1.315 . S
C443 O445 1.279 . S
O444 Cd436 2.223 . S
O444 C443 1.315 . S
O445 Cd435 2.240 . S
O445 C443 1.279 . S
O446 Cd436 2.297 . S
O446 C441 1.247 . S
O447 Cd436 2.439 . S
O447 C441 1.208 . S
C448 C449 1.349 . S
C448 C450 1.327 . S
C448 H473 0.950 . S
C449 C448 1.349 . S
C449 C465 1.349 . S
C450 C448 1.327 . S
C450 C469 1.429 . S
C450 H474 0.950 . S
C451 C468 1.574 . S
C451 C470 1.368 . S
C451 H475 0.949 . S
H452 C456 0.949 . S
C453 C454 1.349 . S
C453 C455 1.327 . S
C453 H476 0.950 . S
C454 C453 1.349 . S
C454 C466 1.349 . S
C455 C453 1.327 . S
C455 C471 1.429 . S
C455 H477 0.950 . S
C456 H452 0.949 . S
C456 C464 1.574 . S
C456 C472 1.368 . S
H457 C465 0.950 . S
H458 C463 0.950 . S
H459 C464 0.949 . S
H460 C466 0.950 . S
H461 C467 0.950 . S
H462 C468 0.949 . S
C463 H458 0.950 . S
C463 C465 1.327 . S
C463 C469 1.429 . S
C464 C456 1.574 . S
C464 H459 0.949 . S
C464 C470 1.368 . S
C465 C449 1.349 . S
C465 H457 0.950 . S
C465 C463 1.327 . S
C466 C454 1.349 . S
C466 H460 0.950 . S
C466 C467 1.327 . S
C467 H461 0.950 . S
C467 C466 1.327 . S
C467 C471 1.429 . S
C468 C451 1.574 . S
C468 H462 0.949 . S
C468 C472 1.368 . S
C469 C450 1.429 . S
C469 C463 1.429 . S
C469 C470 1.523 . S
C470 C451 1.368 . S
C470 C464 1.368 . S
C470 C469 1.523 . S
C471 C455 1.429 . S
C471 C467 1.429 . S
C471 C472 1.523 . S
C472 C456 1.368 . S
C472 C468 1.368 . S
C472 C471 1.523 . S
H473 C448 0.950 . S
H474 C450 0.950 . S
H475 C451 0.949 . S
H476 C453 0.950 . S
H477 C455 0.950 . S
C478 C479 1.349 . S
C478 C480 1.327 . S
C478 H503 0.950 . S
C479 C478 1.349 . S
C479 C495 1.349 . S
C480 C478 1.327 . S
C480 C499 1.429 . S
C480 H504 0.950 . S
C481 C498 1.574 . S
C481 C500 1.368 . S
C481 H505 0.949 . S
H482 C486 0.949 . S
C483 C484 1.349 . S
C483 C485 1.327 . S
C483 H506 0.950 . S
C484 C483 1.349 . S
C484 C496 1.349 . S
C485 C483 1.327 . S
C485 C501 1.429 . S
C485 H507 0.950 . S
C486 H482 0.949 . S
C486 C494 1.574 . S
C486 C502 1.368 . S
H487 C495 0.950 . S
H488 C493 0.950 . S
H489 C494 0.949 . S
H490 C496 0.950 . S
H491 C497 0.950 . S
H492 C498 0.949 . S
C493 H488 0.950 . S
C493 C495 1.327 . S
C493 C499 1.429 . S
C494 C486 1.574 . S
C494 H489 0.949 . S
C494 C500 1.368 . S
C495 C479 1.349 . S
C495 H487 0.950 . S
C495 C493 1.327 . S
C496 C484 1.349 . S
C496 H490 0.950 . S
C496 C497 1.327 . S
C497 H491 0.950 . S
C497 C496 1.327 . S
C497 C501 1.429 . S
C498 C481 1.574 . S
C498 H492 0.949 . S
C498 C502 1.368 . S
C499 C480 1.429 . S
C499 C493 1.429 . S
C499 C500 1.523 . S
C500 C481 1.368 . S
C500 C494 1.368 . S
C500 C499 1.523 . S
C501 C485 1.429 . S
C501 C497 1.429 . S
C501 C502 1.523 . S
C502 C486 1.368 . S
C502 C498 1.368 . S
C502 C501 1.523 . S
H503 C478 0.950 . S
H504 C480 0.950 . S
H505 C481 0.949 . S
H506 C483 0.950 . S
H507 C485 0.950 . S
C508 C509 1.349 . S
C508 C510 1.327 . S
C508 H533 0.950 . S
C509 C508 1.349 . S
C509 C525 1.349 . S
C510 C508 1.327 . S
C510 C529 1.429 . S
C510 H534 0.950 . S
C511 C528 1.574 . S
C511 C530 1.368 . S
C511 H535 0.949 . S
H512 C516 0.949 . S
C513 C514 1.349 . S
C513 C515 1.327 . S
C513 H536 0.950 . S
C514 C513 1.349 . S
C514 C526 1.349 . S
C515 C513 1.327 . S
C515 C531 1.429 . S
C515 H537 0.950 . S
C516 H512 0.949 . S
C516 C524 1.574 . S
C516 C532 1.368 . S
H517 C525 0.950 . S
H518 C523 0.950 . S
H519 C524 0.949 . S
H520 C526 0.950 . S
H521 C527 0.950 . S
H522 C528 0.949 . S
C523 H518 0.950 . S
C523 C525 1.327 . S
C523 C529 1.429 . S
C524 C516 1.574 . S
C524 H519 0.949 . S
C524 C530 1.368 . S
C525 C509 1.349 . S
C525 H517 0.950 . S
C525 C523 1.327 . S
C526 C514 1.349 . S
C526 H520 0.950 . S
C526 C527 1.327 . S
C527 H521 0.950 . S
C527 C526 1.327 . S
C527 C531 1.429 . S
C528 C511 1.574 . S
C528 H522 0.949 . S
C528 C532 1.368 . S
C529 C510 1.429 . S
C529 C523 1.429 . S
C529 C530 1.523 . S
C530 C511 1.368 . S
C530 C524 1.368 . S
C530 C529 1.523 . S
C531 C515 1.429 . S
C531 C527 1.429 . S
C531 C532 1.523 . S
C532 C516 1.368 . S
C532 C528 1.368 . S
C532 C531 1.523 . S
H533 C508 0.950 . S
H534 C510 0.950 . S
H535 C511 0.949 . S
H536 C513 0.950 . S
H537 C515 0.950 . S
C538 C539 1.349 . S
C538 C540 1.327 . S
C538 H563 0.950 . S
C539 C538 1.349 . S
C539 C555 1.349 . S
C540 C538 1.327 . S
C540 C559 1.429 . S
C540 H564 0.950 . S
C541 C558 1.574 . S
C541 C560 1.368 . S
C541 H565 0.949 . S
H542 C546 0.949 . S
C543 C544 1.349 . S
C543 C545 1.327 . S
C543 H566 0.950 . S
C544 C543 1.349 . S
C544 C556 1.349 . S
C545 C543 1.327 . S
C545 C561 1.429 . S
C545 H567 0.950 . S
C546 H542 0.949 . S
C546 C554 1.574 . S
C546 C562 1.368 . S
H547 C555 0.950 . S
H548 C553 0.950 . S
H549 C554 0.949 . S
H550 C556 0.950 . S
H551 C557 0.950 . S
H552 C558 0.949 . S
C553 H548 0.950 . S
C553 C555 1.327 . S
C553 C559 1.429 . S
C554 C546 1.574 . S
C554 H549 0.949 . S
C554 C560 1.368 . S
C555 C539 1.349 . S
C555 H547 0.950 . S
C555 C553 1.327 . S
C556 C544 1.349 . S
C556 H550 0.950 . S
C556 C557 1.327 . S
C557 H551 0.950 . S
C557 C556 1.327 . S
C557 C561 1.429 . S
C558 C541 1.574 . S
C558 H552 0.949 . S
C558 C562 1.368 . S
C559 C540 1.429 . S
C559 C553 1.429 . S
C559 C560 1.523 . S
C560 C541 1.368 . S
C560 C554 1.368 . S
C560 C559 1.523 . S
C561 C545 1.429 . S
C561 C557 1.429 . S
C561 C562 1.523 . S
C562 C546 1.368 . S
C562 C558 1.368 . S
C562 C561 1.523 . S
H563 C538 0.950 . S
H564 C540 0.950 . S
H565 C541 0.949 . S
H566 C543 0.950 . S
H567 C545 0.950 . S
C568 C569 1.349 . S
C568 C570 1.327 . S
C568 H593 0.950 . S
C569 C568 1.349 . S
C569 C585 1.349 . S
C570 C568 1.327 . S
C570 C589 1.429 . S
C570 H594 0.950 . S
C571 C588 1.574 . S
C571 C590 1.368 . S
C571 H595 0.949 . S
H572 C576 0.949 . S
C573 C574 1.349 . S
C573 C575 1.327 . S
C573 H596 0.950 . S
C574 C573 1.349 . S
C574 C586 1.349 . S
C575 C573 1.327 . S
C575 C591 1.429 . S
C575 H597 0.950 . S
C576 H572 0.949 . S
C576 C584 1.574 . S
C576 C592 1.368 . S
H577 C585 0.950 . S
H578 C583 0.950 . S
H579 C584 0.949 . S
H580 C586 0.950 . S
H581 C587 0.950 . S
H582 C588 0.949 . S
C583 H578 0.950 . S
C583 C585 1.327 . S
C583 C589 1.429 . S
C584 C576 1.574 . S
C584 H579 0.949 . S
C584 C590 1.368 . S
C585 C569 1.349 . S
C585 H577 0.950 . S
C585 C583 1.327 . S
C586 C574 1.349 . S
C586 H580 0.950 . S
C586 C587 1.327 . S
C587 H581 0.950 . S
C587 C586 1.327 . S
C587 C591 1.429 . S
C588 C571 1.574 . S
C588 H582 0.949 . S
C588 C592 1.368 . S
C589 C570 1.429 . S
C589 C583 1.429 . S
C589 C590 1.523 . S
C590 C571 1.368 . S
C590 C584 1.368 . S
C590 C589 1.523 . S
C591 C575 1.429 . S
C591 C587 1.429 . S
C591 C592 1.523 . S
C592 C576 1.368 . S
C592 C588 1.368 . S
C592 C591 1.523 . S
H593 C568 0.950 . S
H594 C570 0.950 . S
H595 C571 0.949 . S
H596 C573 0.950 . S
H597 C575 0.950 . S
C598 C599 1.349 . S
C598 C600 1.327 . S
C598 H623 0.950 . S
C599 C598 1.349 . S
C599 C615 1.349 . S
C600 C598 1.327 . S
C600 C619 1.429 . S
C600 H624 0.950 . S
C601 C618 1.574 . S
C601 C620 1.368 . S
C601 H625 0.949 . S
H602 C606 0.949 . S
C603 C604 1.349 . S
C603 C605 1.327 . S
C603 H626 0.950 . S
C604 C603 1.349 . S
C604 C616 1.349 . S
C605 C603 1.327 . S
C605 C621 1.429 . S
C605 H627 0.950 . S
C606 H602 0.949 . S
C606 C614 1.574 . S
C606 C622 1.368 . S
H607 C615 0.950 . S
H608 C613 0.950 . S
H609 C614 0.949 . S
H610 C616 0.950 . S
H611 C617 0.950 . S
H612 C618 0.949 . S
C613 H608 0.950 . S
C613 C615 1.327 . S
C613 C619 1.429 . S
C614 C606 1.574 . S
C614 H609 0.949 . S
C614 C620 1.368 . S
C615 C599 1.349 . S
C615 H607 0.950 . S
C615 C613 1.327 . S
C616 C604 1.349 . S
C616 H610 0.950 . S
C616 C617 1.327 . S
C617 H611 0.950 . S
C617 C616 1.327 . S
C617 C621 1.429 . S
C618 C601 1.574 . S
C618 H612 0.949 . S
C618 C622 1.368 . S
C619 C600 1.429 . S
C619 C613 1.429 . S
C619 C620 1.523 . S
C620 C601 1.368 . S
C620 C614 1.368 . S
C620 C619 1.523 . S
C621 C605 1.429 . S
C621 C617 1.429 . S
C621 C622 1.523 . S
C622 C606 1.368 . S
C622 C618 1.368 . S
C622 C621 1.523 . S
H623 C598 0.950 . S
H624 C600 0.950 . S
H625 C601 0.949 . S
H626 C603 0.950 . S
H627 C605 0.950 . S
C628 C629 1.349 . S
C628 C630 1.327 . S
C628 H653 0.950 . S
C629 C628 1.349 . S
C629 C645 1.349 . S
C630 C628 1.327 . S
C630 C649 1.429 . S
C630 H654 0.950 . S
C631 C648 1.574 . S
C631 C650 1.368 . S
C631 H655 0.949 . S
H632 C636 0.949 . S
C633 C634 1.349 . S
C633 C635 1.327 . S
C633 H656 0.950 . S
C634 C633 1.349 . S
C634 C646 1.349 . S
C635 C633 1.327 . S
C635 C651 1.429 . S
C635 H657 0.950 . S
C636 H632 0.949 . S
C636 C644 1.574 . S
C636 C652 1.368 . S
H637 C645 0.950 . S
H638 C643 0.950 . S
H639 C644 0.949 . S
H640 C646 0.950 . S
H641 C647 0.950 . S
H642 C648 0.949 . S
C643 H638 0.950 . S
C643 C645 1.327 . S
C643 C649 1.429 . S
C644 C636 1.574 . S
C644 H639 0.949 . S
C644 C650 1.368 . S
C645 C629 1.349 . S
C645 H637 0.950 . S
C645 C643 1.327 . S
C646 C634 1.349 . S
C646 H640 0.950 . S
C646 C647 1.327 . S
C647 H641 0.950 . S
C647 C646 1.327 . S
C647 C651 1.429 . S
C648 C631 1.574 . S
C648 H642 0.949 . S
C648 C652 1.368 . S
C649 C630 1.429 . S
C649 C643 1.429 . S
C649 C650 1.523 . S
C650 C631 1.368 . S
C650 C644 1.368 . S
C650 C649 1.523 . S
C651 C635 1.429 . S
C651 C647 1.429 . S
C651 C652 1.523 . S
C652 C636 1.368 . S
C652 C648 1.368 . S
C652 C651 1.523 . S
H653 C628 0.950 . S
H654 C630 0.950 . S
H655 C631 0.949 . S
H656 C633 0.950 . S
H657 C635 0.950 . S
C658 C659 1.349 . S
C658 C660 1.327 . S
C658 H683 0.950 . S
C659 C658 1.349 . S
C659 C675 1.349 . S
C660 C658 1.327 . S
C660 C679 1.429 . S
C660 H684 0.950 . S
C661 C678 1.574 . S
C661 C680 1.368 . S
C661 H685 0.949 . S
H662 C666 0.949 . S
C663 C664 1.349 . S
C663 C665 1.327 . S
C663 H686 0.950 . S
C664 C663 1.349 . S
C664 C676 1.349 . S
C665 C663 1.327 . S
C665 C681 1.429 . S
C665 H687 0.950 . S
C666 H662 0.949 . S
C666 C674 1.574 . S
C666 C682 1.368 . S
H667 C675 0.950 . S
H668 C673 0.950 . S
H669 C674 0.949 . S
H670 C676 0.950 . S
H671 C677 0.950 . S
H672 C678 0.949 . S
C673 H668 0.950 . S
C673 C675 1.327 . S
C673 C679 1.429 . S
C674 C666 1.574 . S
C674 H669 0.949 . S
C674 C680 1.368 . S
C675 C659 1.349 . S
C675 H667 0.950 . S
C675 C673 1.327 . S
C676 C664 1.349 . S
C676 H670 0.950 . S
C676 C677 1.327 . S
C677 H671 0.950 . S
C677 C676 1.327 . S
C677 C681 1.429 . S
C678 C661 1.574 . S
C678 H672 0.949 . S
C678 C682 1.368 . S
C679 C660 1.429 . S
C679 C673 1.429 . S
C679 C680 1.523 . S
C680 C661 1.368 . S
C680 C674 1.368 . S
C680 C679 1.523 . S
C681 C665 1.429 . S
C681 C677 1.429 . S
C681 C682 1.523 . S
C682 C666 1.368 . S
C682 C678 1.368 . S
C682 C681 1.523 . S
H683 C658 0.950 . S
H684 C660 0.950 . S
H685 C661 0.949 . S
H686 C663 0.950 . S
H687 C665 0.950 . S
C688 C689 1.349 . S
C688 C690 1.327 . S
C688 H713 0.950 . S
C689 C688 1.349 . S
C689 C705 1.349 . S
C690 C688 1.327 . S
C690 C709 1.429 . S
C690 H714 0.950 . S
C691 C708 1.574 . S
C691 C710 1.368 . S
C691 H715 0.949 . S
H692 C696 0.949 . S
C693 C694 1.349 . S
C693 C695 1.327 . S
C693 H716 0.950 . S
C694 C693 1.349 . S
C694 C706 1.349 . S
C695 C693 1.327 . S
C695 C711 1.429 . S
C695 H717 0.950 . S
C696 H692 0.949 . S
C696 C704 1.574 . S
C696 C712 1.368 . S
H697 C705 0.950 . S
H698 C703 0.950 . S
H699 C704 0.949 . S
H700 C706 0.950 . S
H701 C707 0.950 . S
H702 C708 0.949 . S
C703 H698 0.950 . S
C703 C705 1.327 . S
C703 C709 1.429 . S
C704 C696 1.574 . S
C704 H699 0.949 . S
C704 C710 1.368 . S
C705 C689 1.349 . S
C705 H697 0.950 . S
C705 C703 1.327 . S
C706 C694 1.349 . S
C706 H700 0.950 . S
C706 C707 1.327 . S
C707 H701 0.950 . S
C707 C706 1.327 . S
C707 C711 1.429 . S
C708 C691 1.574 . S
C708 H702 0.949 . S
C708 C712 1.368 . S
C709 C690 1.429 . S
C709 C703 1.429 . S
C709 C710 1.523 . S
C710 C691 1.368 . S
C710 C704 1.368 . S
C710 C709 1.523 . S
C711 C695 1.429 . S
C711 C707 1.429 . S
C711 C712 1.523 . S
C712 C696 1.368 . S
C712 C708 1.368 . S
C712 C711 1.523 . S
H713 C688 0.950 . S
H714 C690 0.950 . S
H715 C691 0.949 . S
H716 C693 0.950 . S
H717 C695 0.950 . S
C718 C719 1.349 . S
C718 C720 1.327 . S
C718 H743 0.950 . S
C719 C718 1.349 . S
C719 C735 1.349 . S
C720 C718 1.327 . S
C720 C739 1.429 . S
C720 H744 0.950 . S
C721 C738 1.574 . S
C721 C740 1.368 . S
C721 H745 0.949 . S
H722 C726 0.949 . S
C723 C724 1.349 . S
C723 C725 1.327 . S
C723 H746 0.950 . S
C724 C723 1.349 . S
C724 C736 1.349 . S
C725 C723 1.327 . S
C725 C741 1.429 . S
C725 H747 0.950 . S
C726 H722 0.949 . S
C726 C734 1.574 . S
C726 C742 1.368 . S
H727 C735 0.950 . S
H728 C733 0.950 . S
H729 C734 0.949 . S
H730 C736 0.950 . S
H731 C737 0.950 . S
H732 C738 0.949 . S
C733 H728 0.950 . S
C733 C735 1.327 . S
C733 C739 1.429 . S
C734 C726 1.574 . S
C734 H729 0.949 . S
C734 C740 1.368 . S
C735 C719 1.349 . S
C735 H727 0.950 . S
C735 C733 1.327 . S
C736 C724 1.349 . S
C736 H730 0.950 . S
C736 C737 1.327 . S
C737 H731 0.950 . S
C737 C736 1.327 . S
C737 C741 1.429 . S
C738 C721 1.574 . S
C738 H732 0.949 . S
C738 C742 1.368 . S
C739 C720 1.429 . S
C739 C733 1.429 . S
C739 C740 1.523 . S
C740 C721 1.368 . S
C740 C734 1.368 . S
C740 C739 1.523 . S
C741 C725 1.429 . S
C741 C737 1.429 . S
C741 C742 1.523 . S
C742 C726 1.368 . S
C742 C738 1.368 . S
C742 C741 1.523 . S
H743 C718 0.950 . S
H744 C720 0.950 . S
H745 C721 0.949 . S
H746 C723 0.950 . S
H747 C725 0.950 . S
C748 C749 1.349 . S
C748 C750 1.327 . S
C748 H773 0.950 . S
C749 C748 1.349 . S
C749 C765 1.349 . S
C750 C748 1.327 . S
C750 C769 1.429 . S
C750 H774 0.950 . S
C751 C768 1.574 . S
C751 C770 1.368 . S
C751 H775 0.949 . S
H752 C756 0.949 . S
C753 C754 1.349 . S
C753 C755 1.327 . S
C753 H776 0.950 . S
C754 C753 1.349 . S
C754 C766 1.349 . S
C755 C753 1.327 . S
C755 C771 1.429 . S
C755 H777 0.950 . S
C756 H752 0.949 . S
C756 C764 1.574 . S
C756 C772 1.368 . S
H757 C765 0.950 . S
H758 C763 0.950 . S
H759 C764 0.949 . S
H760 C766 0.950 . S
H761 C767 0.950 . S
H762 C768 0.949 . S
C763 H758 0.950 . S
C763 C765 1.327 . S
C763 C769 1.429 . S
C764 C756 1.574 . S
C764 H759 0.949 . S
C764 C770 1.368 . S
C765 C749 1.349 . S
C765 H757 0.950 . S
C765 C763 1.327 . S
C766 C754 1.349 . S
C766 H760 0.950 . S
C766 C767 1.327 . S
C767 H761 0.950 . S
C767 C766 1.327 . S
C767 C771 1.429 . S
C768 C751 1.574 . S
C768 H762 0.949 . S
C768 C772 1.368 . S
C769 C750 1.429 . S
C769 C763 1.429 . S
C769 C770 1.523 . S
C770 C751 1.368 . S
C770 C764 1.368 . S
C770 C769 1.523 . S
C771 C755 1.429 . S
C771 C767 1.429 . S
C771 C772 1.523 . S
C772 C756 1.368 . S
C772 C768 1.368 . S
C772 C771 1.523 . S
H773 C748 0.950 . S
H774 C750 0.950 . S
H775 C751 0.949 . S
H776 C753 0.950 . S
H777 C755 0.950 . S
C778 C779 1.349 . S
C778 C780 1.327 . S
C778 H803 0.950 . S
C779 C778 1.349 . S
C779 C795 1.349 . S
C780 C778 1.327 . S
C780 C799 1.429 . S
C780 H804 0.950 . S
C781 C798 1.574 . S
C781 C800 1.368 . S
C781 H805 0.949 . S
H782 C786 0.949 . S
C783 C784 1.349 . S
C783 C785 1.327 . S
C783 H806 0.950 . S
C784 C783 1.349 . S
C784 C796 1.349 . S
C785 C783 1.327 . S
C785 C801 1.429 . S
C785 H807 0.950 . S
C786 H782 0.949 . S
C786 C794 1.574 . S
C786 C802 1.368 . S
H787 C795 0.950 . S
H788 C793 0.950 . S
H789 C794 0.949 . S
H790 C796 0.950 . S
H791 C797 0.950 . S
H792 C798 0.949 . S
C793 H788 0.950 . S
C793 C795 1.327 . S
C793 C799 1.429 . S
C794 C786 1.574 . S
C794 H789 0.949 . S
C794 C800 1.368 . S
C795 C779 1.349 . S
C795 H787 0.950 . S
C795 C793 1.327 . S
C796 C784 1.349 . S
C796 H790 0.950 . S
C796 C797 1.327 . S
C797 H791 0.950 . S
C797 C796 1.327 . S
C797 C801 1.429 . S
C798 C781 1.574 . S
C798 H792 0.949 . S
C798 C802 1.368 . S
C799 C780 1.429 . S
C799 C793 1.429 . S
C799 C800 1.523 . S
C800 C781 1.368 . S
C800 C794 1.368 . S
C800 C799 1.523 . S
C801 C785 1.429 . S
C801 C797 1.429 . S
C801 C802 1.523 . S
C802 C786 1.368 . S
C802 C798 1.368 . S
C802 C801 1.523 . S
H803 C778 0.950 . S
H804 C780 0.950 . S
H805 C781 0.949 . S
H806 C783 0.950 . S
H807 C785 0.950 . S
C808 C809 1.349 . S
C808 C810 1.327 . S
C808 H833 0.950 . S
C809 C808 1.349 . S
C809 C825 1.349 . S
C810 C808 1.327 . S
C810 C829 1.429 . S
C810 H834 0.950 . S
C811 C828 1.574 . S
C811 C830 1.368 . S
C811 H835 0.949 . S
H812 C816 0.949 . S
C813 C814 1.349 . S
C813 C815 1.327 . S
C813 H836 0.950 . S
C814 C813 1.349 . S
C814 C826 1.349 . S
C815 C813 1.327 . S
C815 C831 1.429 . S
C815 H837 0.950 . S
C816 H812 0.949 . S
C816 C824 1.574 . S
C816 C832 1.368 . S
H817 C825 0.950 . S
H818 C823 0.950 . S
H819 C824 0.949 . S
H820 C826 0.950 . S
H821 C827 0.950 . S
H822 C828 0.949 . S
C823 H818 0.950 . S
C823 C825 1.327 . S
C823 C829 1.429 . S
C824 C816 1.574 . S
C824 H819 0.949 . S
C824 C830 1.368 . S
C825 C809 1.349 . S
C825 H817 0.950 . S
C825 C823 1.327 . S
C826 C814 1.349 . S
C826 H820 0.950 . S
C826 C827 1.327 . S
C827 H821 0.950 . S
C827 C826 1.327 . S
C827 C831 1.429 . S
C828 C811 1.574 . S
C828 H822 0.949 . S
C828 C832 1.368 . S
C829 C810 1.429 . S
C829 C823 1.429 . S
C829 C830 1.523 . S
C830 C811 1.368 . S
C830 C824 1.368 . S
C830 C829 1.523 . S
C831 C815 1.429 . S
C831 C827 1.429 . S
C831 C832 1.523 . S
C832 C816 1.368 . S
C832 C828 1.368 . S
C832 C831 1.523 . S
H833 C808 0.950 . S
H834 C810 0.950 . S
H835 C811 0.949 . S
H836 C813 0.950 . S
H837 C815 0.950 . S
C838 C839 1.349 . S
C838 C840 1.327 . S
C838 H863 0.950 . S
C839 C838 1.349 . S
C839 C855 1.349 . S
C840 C838 1.327 . S
C840 C859 1.429 . S
C840 H864 0.950 . S
C841 C858 1.574 . S
C841 C860 1.368 . S
C841 H865 0.949 . S
H842 C846 0.949 . S
C843 C844 1.349 . S
C843 C845 1.327 . S
C843 H866 0.950 . S
C844 C843 1.349 . S
C844 C856 1.349 . S
C845 C843 1.327 . S
C845 C861 1.429 . S
C845 H867 0.950 . S
C846 H842 0.949 . S
C846 C854 1.574 . S
C846 C862 1.368 . S
H847 C855 0.950 . S
H848 C853 0.950 . S
H849 C854 0.949 . S
H850 C856 0.950 . S
H851 C857 0.950 . S
H852 C858 0.949 . S
C853 H848 0.950 . S
C853 C855 1.327 . S
C853 C859 1.429 . S
C854 C846 1.574 . S
C854 H849 0.949 . S
C854 C860 1.368 . S
C855 C839 1.349 . S
C855 H847 0.950 . S
C855 C853 1.327 . S
C856 C844 1.349 . S
C856 H850 0.950 . S
C856 C857 1.327 . S
C857 H851 0.950 . S
C857 C856 1.327 . S
C857 C861 1.429 . S
C858 C841 1.574 . S
C858 H852 0.949 . S
C858 C862 1.368 . S
C859 C840 1.429 . S
C859 C853 1.429 . S
C859 C860 1.523 . S
C860 C841 1.368 . S
C860 C854 1.368 . S
C860 C859 1.523 . S
C861 C845 1.429 . S
C861 C857 1.429 . S
C861 C862 1.523 . S
C862 C846 1.368 . S
C862 C858 1.368 . S
C862 C861 1.523 . S
H863 C838 0.950 . S
H864 C840 0.950 . S
H865 C841 0.949 . S
H866 C843 0.950 . S
H867 C845 0.950 . S
C868 C869 1.349 . S
C868 C870 1.327 . S
C868 H893 0.950 . S
C869 C868 1.349 . S
C869 C885 1.349 . S
C870 C868 1.327 . S
C870 C889 1.429 . S
C870 H894 0.950 . S
C871 C888 1.574 . S
C871 C890 1.368 . S
C871 H895 0.949 . S
H872 C876 0.949 . S
C873 C874 1.349 . S
C873 C875 1.327 . S
C873 H896 0.950 . S
C874 C873 1.349 . S
C874 C886 1.349 . S
C875 C873 1.327 . S
C875 C891 1.429 . S
C875 H897 0.950 . S
C876 H872 0.949 . S
C876 C884 1.574 . S
C876 C892 1.368 . S
H877 C885 0.950 . S
H878 C883 0.950 . S
H879 C884 0.949 . S
H880 C886 0.950 . S
H881 C887 0.950 . S
H882 C888 0.949 . S
C883 H878 0.950 . S
C883 C885 1.327 . S
C883 C889 1.429 . S
C884 C876 1.574 . S
C884 H879 0.949 . S
C884 C890 1.368 . S
C885 C869 1.349 . S
C885 H877 0.950 . S
C885 C883 1.327 . S
C886 C874 1.349 . S
C886 H880 0.950 . S
C886 C887 1.327 . S
C887 H881 0.950 . S
C887 C886 1.327 . S
C887 C891 1.429 . S
C888 C871 1.574 . S
C888 H882 0.949 . S
C888 C892 1.368 . S
C889 C870 1.429 . S
C889 C883 1.429 . S
C889 C890 1.523 . S
C890 C871 1.368 . S
C890 C884 1.368 . S
C890 C889 1.523 . S
C891 C875 1.429 . S
C891 C887 1.429 . S
C891 C892 1.523 . S
C892 C876 1.368 . S
C892 C888 1.368 . S
C892 C891 1.523 . S
H893 C868 0.950 . S
H894 C870 0.950 . S
H895 C871 0.949 . S
H896 C873 0.950 . S
H897 C875 0.950 . S
C898 C899 1.349 . S
C898 C900 1.327 . S
C898 H923 0.950 . S
C899 C898 1.349 . S
C899 C915 1.349 . S
C900 C898 1.327 . S
C900 C919 1.429 . S
C900 H924 0.950 . S
C901 C918 1.574 . S
C901 C920 1.368 . S
C901 H925 0.949 . S
H902 C906 0.949 . S
C903 C904 1.349 . S
C903 C905 1.327 . S
C903 H926 0.950 . S
C904 C903 1.349 . S
C904 C916 1.349 . S
C905 C903 1.327 . S
C905 C921 1.429 . S
C905 H927 0.950 . S
C906 H902 0.949 . S
C906 C914 1.574 . S
C906 C922 1.368 . S
H907 C915 0.950 . S
H908 C913 0.950 . S
H909 C914 0.949 . S
H910 C916 0.950 . S
H911 C917 0.950 . S
H912 C918 0.949 . S
C913 H908 0.950 . S
C913 C915 1.327 . S
C913 C919 1.429 . S
C914 C906 1.574 . S
C914 H909 0.949 . S
C914 C920 1.368 . S
C915 C899 1.349 . S
C915 H907 0.950 . S
C915 C913 1.327 . S
C916 C904 1.349 . S
C916 H910 0.950 . S
C916 C917 1.327 . S
C917 H911 0.950 . S
C917 C916 1.327 . S
C917 C921 1.429 . S
C918 C901 1.574 . S
C918 H912 0.949 . S
C918 C922 1.368 . S
C919 C900 1.429 . S
C919 C913 1.429 . S
C919 C920 1.523 . S
C920 C901 1.368 . S
C920 C914 1.368 . S
C920 C919 1.523 . S
C921 C905 1.429 . S
C921 C917 1.429 . S
C921 C922 1.523 . S
C922 C906 1.368 . S
C922 C918 1.368 . S
C922 C921 1.523 . S
H923 C898 0.950 . S
H924 C900 0.950 . S
H925 C901 0.949 . S
H926 C903 0.950 . S
H927 C905 0.950 . S
C928 C929 1.349 . S
C928 C930 1.327 . S
C928 H953 0.950 . S
C929 C928 1.349 . S
C929 C945 1.349 . S
C930 C928 1.327 . S
C930 C949 1.429 . S
C930 H954 0.950 . S
C931 C948 1.574 1_455 S
C931 C950 1.368 . S
C931 H955 0.949 . S
H932 C936 0.949 . S
C933 C934 1.349 . S
C933 C935 1.327 . S
C933 H956 0.950 . S
C934 C933 1.349 . S
C934 C946 1.349 . S
C935 C933 1.327 . S
C935 C951 1.429 . S
C935 H957 0.950 . S
C936 H932 0.949 . S
C936 C944 1.574 1_655 S
C936 C952 1.368 . S
H937 C945 0.950 . S
H938 C943 0.950 . S
H939 C944 0.949 . S
H940 C946 0.950 . S
H941 C947 0.950 . S
H942 C948 0.949 . S
C943 H938 0.950 . S
C943 C945 1.327 . S
C943 C949 1.429 . S
C944 C936 1.574 1_455 S
C944 H939 0.949 . S
C944 C950 1.368 . S
C945 C929 1.349 . S
C945 H937 0.950 . S
C945 C943 1.327 . S
C946 C934 1.349 . S
C946 H940 0.950 . S
C946 C947 1.327 . S
C947 H941 0.950 . S
C947 C946 1.327 . S
C947 C951 1.429 . S
C948 C931 1.574 1_655 S
C948 H942 0.949 . S
C948 C952 1.368 . S
C949 C930 1.429 . S
C949 C943 1.429 . S
C949 C950 1.523 . S
C950 C931 1.368 . S
C950 C944 1.368 . S
C950 C949 1.523 . S
C951 C935 1.429 . S
C951 C947 1.429 . S
C951 C952 1.523 . S
C952 C936 1.368 . S
C952 C948 1.368 . S
C952 C951 1.523 . S
H953 C928 0.950 . S
H954 C930 0.950 . S
H955 C931 0.949 . S
H956 C933 0.950 . S
H957 C935 0.950 . S
C958 C959 1.349 . S
C958 C960 1.327 . S
C958 H983 0.950 . S
C959 C958 1.349 . S
C959 C975 1.349 . S
C960 C958 1.327 . S
C960 C979 1.429 . S
C960 H984 0.950 . S
C961 C978 1.574 . S
C961 C980 1.368 . S
C961 H985 0.949 . S
H962 C966 0.949 . S
C963 C964 1.349 . S
C963 C965 1.327 . S
C963 H986 0.950 . S
C964 C963 1.349 . S
C964 C976 1.349 . S
C965 C963 1.327 . S
C965 C981 1.429 . S
C965 H987 0.950 . S
C966 H962 0.949 . S
C966 C974 1.574 . S
C966 C982 1.368 . S
H967 C975 0.950 . S
H968 C973 0.950 . S
H969 C974 0.949 . S
H970 C976 0.950 . S
H971 C977 0.950 . S
H972 C978 0.949 . S
C973 H968 0.950 . S
C973 C975 1.327 . S
C973 C979 1.429 . S
C974 C966 1.574 . S
C974 H969 0.949 . S
C974 C980 1.368 . S
C975 C959 1.349 . S
C975 H967 0.950 . S
C975 C973 1.327 . S
C976 C964 1.349 . S
C976 H970 0.950 . S
C976 C977 1.327 . S
C977 H971 0.950 . S
C977 C976 1.327 . S
C977 C981 1.429 . S
C978 C961 1.574 . S
C978 H972 0.949 . S
C978 C982 1.368 . S
C979 C960 1.429 . S
C979 C973 1.429 . S
C979 C980 1.523 . S
C980 C961 1.368 . S
C980 C974 1.368 . S
C980 C979 1.523 . S
C981 C965 1.429 . S
C981 C977 1.429 . S
C981 C982 1.523 . S
C982 C966 1.368 . S
C982 C978 1.368 . S
C982 C981 1.523 . S
H983 C958 0.950 . S
H984 C960 0.950 . S
H985 C961 0.949 . S
H986 C963 0.950 . S
H987 C965 0.950 . S
C988 C989 1.349 . S
C988 C990 1.327 . S
C988 H1013 0.950 . S
C989 C988 1.349 . S
C989 C1005 1.349 . S
C990 C988 1.327 . S
C990 C1009 1.429 . S
C990 H1014 0.950 . S
C991 C1008 1.574 . S
C991 C1010 1.368 . S
C991 H1015 0.949 . S
H992 C996 0.949 . S
C993 C994 1.349 . S
C993 C995 1.327 . S
C993 H1016 0.950 . S
C994 C993 1.349 . S
C994 C1006 1.349 . S
C995 C993 1.327 . S
C995 C1011 1.429 . S
C995 H1017 0.950 . S
C996 H992 0.949 . S
C996 C1004 1.574 . S
C996 C1012 1.368 . S
H997 C1005 0.950 . S
H998 C1003 0.950 . S
H999 C1004 0.949 . S
H1000 C1006 0.950 . S
H1001 C1007 0.950 . S
H1002 C1008 0.949 . S
C1003 H998 0.950 . S
C1003 C1005 1.327 . S
C1003 C1009 1.429 . S
C1004 C996 1.574 . S
C1004 H999 0.949 . S
C1004 C1010 1.368 . S
C1005 C989 1.349 . S
C1005 H997 0.950 . S
C1005 C1003 1.327 . S
C1006 C994 1.349 . S
C1006 H1000 0.950 . S
C1006 C1007 1.327 . S
C1007 H1001 0.950 . S
C1007 C1006 1.327 . S
C1007 C1011 1.429 . S
C1008 C991 1.574 . S
C1008 H1002 0.949 . S
C1008 C1012 1.368 . S
C1009 C990 1.429 . S
C1009 C1003 1.429 . S
C1009 C1010 1.523 . S
C1010 C991 1.368 . S
C1010 C1004 1.368 . S
C1010 C1009 1.523 . S
C1011 C995 1.429 . S
C1011 C1007 1.429 . S
C1011 C1012 1.523 . S
C1012 C996 1.368 . S
C1012 C1008 1.368 . S
C1012 C1011 1.523 . S
H1013 C988 0.950 . S
H1014 C990 0.950 . S
H1015 C991 0.949 . S
H1016 C993 0.950 . S
H1017 C995 0.950 . S
C1018 C1019 1.349 . S
C1018 C1020 1.327 . S
C1018 H1043 0.950 . S
C1019 C1018 1.349 . S
C1019 C1035 1.349 . S
C1020 C1018 1.327 . S
C1020 C1039 1.429 . S
C1020 H1044 0.950 . S
C1021 C1038 1.574 . S
C1021 C1040 1.368 . S
C1021 H1045 0.949 . S
H1022 C1026 0.949 . S
C1023 C1024 1.349 . S
C1023 C1025 1.327 . S
C1023 H1046 0.950 . S
C1024 C1023 1.349 . S
C1024 C1036 1.349 . S
C1025 C1023 1.327 . S
C1025 C1041 1.429 . S
C1025 H1047 0.950 . S
C1026 H1022 0.949 . S
C1026 C1034 1.574 . S
C1026 C1042 1.368 . S
H1027 C1035 0.950 . S
H1028 C1033 0.950 . S
H1029 C1034 0.949 . S
H1030 C1036 0.950 . S
H1031 C1037 0.950 . S
H1032 C1038 0.949 . S
C1033 H1028 0.950 . S
C1033 C1035 1.327 . S
C1033 C1039 1.429 . S
C1034 C1026 1.574 . S
C1034 H1029 0.949 . S
C1034 C1040 1.368 . S
C1035 C1019 1.349 . S
C1035 H1027 0.950 . S
C1035 C1033 1.327 . S
C1036 C1024 1.349 . S
C1036 H1030 0.950 . S
C1036 C1037 1.327 . S
C1037 H1031 0.950 . S
C1037 C1036 1.327 . S
C1037 C1041 1.429 . S
C1038 C1021 1.574 . S
C1038 H1032 0.949 . S
C1038 C1042 1.368 . S
C1039 C1020 1.429 . S
C1039 C1033 1.429 . S
C1039 C1040 1.523 . S
C1040 C1021 1.368 . S
C1040 C1034 1.368 . S
C1040 C1039 1.523 . S
C1041 C1025 1.429 . S
C1041 C1037 1.429 . S
C1041 C1042 1.523 . S
C1042 C1026 1.368 . S
C1042 C1038 1.368 . S
C1042 C1041 1.523 . S
H1043 C1018 0.950 . S
H1044 C1020 0.950 . S
H1045 C1021 0.949 . S
H1046 C1023 0.950 . S
H1047 C1025 0.950 . S
C1048 C1049 1.349 . S
C1048 C1050 1.327 . S
C1048 H1073 0.950 . S
C1049 C1048 1.349 . S
C1049 C1065 1.349 . S
C1050 C1048 1.327 . S
C1050 C1069 1.429 . S
C1050 H1074 0.950 . S
C1051 C1068 1.574 1_655 S
C1051 C1070 1.368 . S
C1051 H1075 0.949 . S
H1052 C1056 0.949 . S
C1053 C1054 1.349 . S
C1053 C1055 1.327 . S
C1053 H1076 0.950 . S
C1054 C1053 1.349 . S
C1054 C1066 1.349 . S
C1055 C1053 1.327 . S
C1055 C1071 1.429 . S
C1055 H1077 0.950 . S
C1056 H1052 0.949 . S
C1056 C1064 1.574 1_455 S
C1056 C1072 1.368 . S
H1057 C1065 0.950 . S
H1058 C1063 0.950 . S
H1059 C1064 0.949 . S
H1060 C1066 0.950 . S
H1061 C1067 0.950 . S
H1062 C1068 0.949 . S
C1063 H1058 0.950 . S
C1063 C1065 1.327 . S
C1063 C1069 1.429 . S
C1064 C1056 1.574 1_655 S
C1064 H1059 0.949 . S
C1064 C1070 1.368 . S
C1065 C1049 1.349 . S
C1065 H1057 0.950 . S
C1065 C1063 1.327 . S
C1066 C1054 1.349 . S
C1066 H1060 0.950 . S
C1066 C1067 1.327 . S
C1067 H1061 0.950 . S
C1067 C1066 1.327 . S
C1067 C1071 1.429 . S
C1068 C1051 1.574 1_455 S
C1068 H1062 0.949 . S
C1068 C1072 1.368 . S
C1069 C1050 1.429 . S
C1069 C1063 1.429 . S
C1069 C1070 1.523 . S
C1070 C1051 1.368 . S
C1070 C1064 1.368 . S
C1070 C1069 1.523 . S
C1071 C1055 1.429 . S
C1071 C1067 1.429 . S
C1071 C1072 1.523 . S
C1072 C1056 1.368 . S
C1072 C1068 1.368 . S
C1072 C1071 1.523 . S
H1073 C1048 0.950 . S
H1074 C1050 0.950 . S
H1075 C1051 0.949 . S
H1076 C1053 0.950 . S
H1077 C1055 0.950 . S
C1078 C1079 1.349 . S
C1078 C1080 1.327 . S
C1078 H1103 0.950 . S
C1079 C1078 1.349 . S
C1079 C1095 1.349 . S
C1080 C1078 1.327 . S
C1080 C1099 1.429 . S
C1080 H1104 0.950 . S
C1081 C1098 1.574 . S
C1081 C1100 1.368 . S
C1081 H1105 0.949 . S
H1082 C1086 0.949 . S
C1083 C1084 1.349 . S
C1083 C1085 1.327 . S
C1083 H1106 0.950 . S
C1084 C1083 1.349 . S
C1084 C1096 1.349 . S
C1085 C1083 1.327 . S
C1085 C1101 1.429 . S
C1085 H1107 0.950 . S
C1086 H1082 0.949 . S
C1086 C1094 1.574 . S
C1086 C1102 1.368 . S
H1087 C1095 0.950 . S
H1088 C1093 0.950 . S
H1089 C1094 0.949 . S
H1090 C1096 0.950 . S
H1091 C1097 0.950 . S
H1092 C1098 0.949 . S
C1093 H1088 0.950 . S
C1093 C1095 1.327 . S
C1093 C1099 1.429 . S
C1094 C1086 1.574 . S
C1094 H1089 0.949 . S
C1094 C1100 1.368 . S
C1095 C1079 1.349 . S
C1095 H1087 0.950 . S
C1095 C1093 1.327 . S
C1096 C1084 1.349 . S
C1096 H1090 0.950 . S
C1096 C1097 1.327 . S
C1097 H1091 0.950 . S
C1097 C1096 1.327 . S
C1097 C1101 1.429 . S
C1098 C1081 1.574 . S
C1098 H1092 0.949 . S
C1098 C1102 1.368 . S
C1099 C1080 1.429 . S
C1099 C1093 1.429 . S
C1099 C1100 1.523 . S
C1100 C1081 1.368 . S
C1100 C1094 1.368 . S
C1100 C1099 1.523 . S
C1101 C1085 1.429 . S
C1101 C1097 1.429 . S
C1101 C1102 1.523 . S
C1102 C1086 1.368 . S
C1102 C1098 1.368 . S
C1102 C1101 1.523 . S
H1103 C1078 0.950 . S
H1104 C1080 0.950 . S
H1105 C1081 0.949 . S
H1106 C1083 0.950 . S
H1107 C1085 0.950 . S
C1108 C1109 1.349 . S
C1108 C1110 1.327 . S
C1108 H1133 0.950 . S
C1109 C1108 1.349 . S
C1109 C1125 1.349 . S
C1110 C1108 1.327 . S
C1110 C1129 1.429 . S
C1110 H1134 0.950 . S
C1111 C1128 1.574 . S
C1111 C1130 1.368 . S
C1111 H1135 0.949 . S
H1112 C1116 0.949 . S
C1113 C1114 1.349 . S
C1113 C1115 1.327 . S
C1113 H1136 0.950 . S
C1114 C1113 1.349 . S
C1114 C1126 1.349 . S
C1115 C1113 1.327 . S
C1115 C1131 1.429 . S
C1115 H1137 0.950 . S
C1116 H1112 0.949 . S
C1116 C1124 1.574 . S
C1116 C1132 1.368 . S
H1117 C1125 0.950 . S
H1118 C1123 0.950 . S
H1119 C1124 0.949 . S
H1120 C1126 0.950 . S
H1121 C1127 0.950 . S
H1122 C1128 0.949 . S
C1123 H1118 0.950 . S
C1123 C1125 1.327 . S
C1123 C1129 1.429 . S
C1124 C1116 1.574 . S
C1124 H1119 0.949 . S
C1124 C1130 1.368 . S
C1125 C1109 1.349 . S
C1125 H1117 0.950 . S
C1125 C1123 1.327 . S
C1126 C1114 1.349 . S
C1126 H1120 0.950 . S
C1126 C1127 1.327 . S
C1127 H1121 0.950 . S
C1127 C1126 1.327 . S
C1127 C1131 1.429 . S
C1128 C1111 1.574 . S
C1128 H1122 0.949 . S
C1128 C1132 1.368 . S
C1129 C1110 1.429 . S
C1129 C1123 1.429 . S
C1129 C1130 1.523 . S
C1130 C1111 1.368 . S
C1130 C1124 1.368 . S
C1130 C1129 1.523 . S
C1131 C1115 1.429 . S
C1131 C1127 1.429 . S
C1131 C1132 1.523 . S
C1132 C1116 1.368 . S
C1132 C1128 1.368 . S
C1132 C1131 1.523 . S
H1133 C1108 0.950 . S
H1134 C1110 0.950 . S
H1135 C1111 0.949 . S
H1136 C1113 0.950 . S
H1137 C1115 0.950 . S
C1138 C1139 1.349 . S
C1138 C1140 1.327 . S
C1138 H1163 0.950 . S
C1139 C1138 1.349 . S
C1139 C1155 1.349 . S
C1140 C1138 1.327 . S
C1140 C1159 1.429 . S
C1140 H1164 0.950 . S
C1141 C1158 1.574 . S
C1141 C1160 1.368 . S
C1141 H1165 0.949 . S
H1142 C1146 0.949 . S
C1143 C1144 1.349 . S
C1143 C1145 1.327 . S
C1143 H1166 0.950 . S
C1144 C1143 1.349 . S
C1144 C1156 1.349 . S
C1145 C1143 1.327 . S
C1145 C1161 1.429 . S
C1145 H1167 0.950 . S
C1146 H1142 0.949 . S
C1146 C1154 1.574 . S
C1146 C1162 1.368 . S
H1147 C1155 0.950 . S
H1148 C1153 0.950 . S
H1149 C1154 0.949 . S
H1150 C1156 0.950 . S
H1151 C1157 0.950 . S
H1152 C1158 0.949 . S
C1153 H1148 0.950 . S
C1153 C1155 1.327 . S
C1153 C1159 1.429 . S
C1154 C1146 1.574 . S
C1154 H1149 0.949 . S
C1154 C1160 1.368 . S
C1155 C1139 1.349 . S
C1155 H1147 0.950 . S
C1155 C1153 1.327 . S
C1156 C1144 1.349 . S
C1156 H1150 0.950 . S
C1156 C1157 1.327 . S
C1157 H1151 0.950 . S
C1157 C1156 1.327 . S
C1157 C1161 1.429 . S
C1158 C1141 1.574 . S
C1158 H1152 0.949 . S
C1158 C1162 1.368 . S
C1159 C1140 1.429 . S
C1159 C1153 1.429 . S
C1159 C1160 1.523 . S
C1160 C1141 1.368 . S
C1160 C1154 1.368 . S
C1160 C1159 1.523 . S
C1161 C1145 1.429 . S
C1161 C1157 1.429 . S
C1161 C1162 1.523 . S
C1162 C1146 1.368 . S
C1162 C1158 1.368 . S
C1162 C1161 1.523 . S
H1163 C1138 0.950 . S
H1164 C1140 0.950 . S
H1165 C1141 0.949 . S
H1166 C1143 0.950 . S
H1167 C1145 0.950 . S
C1168 C1169 1.349 . S
C1168 C1170 1.327 . S
C1168 H1193 0.950 . S
C1169 C1168 1.349 . S
C1169 C1185 1.349 . S
C1170 C1168 1.327 . S
C1170 C1189 1.429 . S
C1170 H1194 0.950 . S
C1171 C1188 1.574 . S
C1171 C1190 1.368 . S
C1171 H1195 0.949 . S
H1172 C1176 0.949 . S
C1173 C1174 1.349 . S
C1173 C1175 1.327 . S
C1173 H1196 0.950 . S
C1174 C1173 1.349 . S
C1174 C1186 1.349 . S
C1175 C1173 1.327 . S
C1175 C1191 1.429 . S
C1175 H1197 0.950 . S
C1176 H1172 0.949 . S
C1176 C1184 1.574 . S
C1176 C1192 1.368 . S
H1177 C1185 0.950 . S
H1178 C1183 0.950 . S
H1179 C1184 0.949 . S
H1180 C1186 0.950 . S
H1181 C1187 0.950 . S
H1182 C1188 0.949 . S
C1183 H1178 0.950 . S
C1183 C1185 1.327 . S
C1183 C1189 1.429 . S
C1184 C1176 1.574 . S
C1184 H1179 0.949 . S
C1184 C1190 1.368 . S
C1185 C1169 1.349 . S
C1185 H1177 0.950 . S
C1185 C1183 1.327 . S
C1186 C1174 1.349 . S
C1186 H1180 0.950 . S
C1186 C1187 1.327 . S
C1187 H1181 0.950 . S
C1187 C1186 1.327 . S
C1187 C1191 1.429 . S
C1188 C1171 1.574 . S
C1188 H1182 0.949 . S
C1188 C1192 1.368 . S
C1189 C1170 1.429 . S
C1189 C1183 1.429 . S
C1189 C1190 1.523 . S
C1190 C1171 1.368 . S
C1190 C1184 1.368 . S
C1190 C1189 1.523 . S
C1191 C1175 1.429 . S
C1191 C1187 1.429 . S
C1191 C1192 1.523 . S
C1192 C1176 1.368 . S
C1192 C1188 1.368 . S
C1192 C1191 1.523 . S
H1193 C1168 0.950 . S
H1194 C1170 0.950 . S
H1195 C1171 0.949 . S
H1196 C1173 0.950 . S
H1197 C1175 0.950 . S
C1198 C1199 1.349 . S
C1198 C1200 1.327 . S
C1198 H1223 0.950 . S
C1199 C1198 1.349 . S
C1199 C1215 1.349 . S
C1200 C1198 1.327 . S
C1200 C1219 1.429 . S
C1200 H1224 0.950 . S
C1201 C1218 1.574 . S
C1201 C1220 1.368 . S
C1201 H1225 0.949 . S
H1202 C1206 0.949 . S
C1203 C1204 1.349 . S
C1203 C1205 1.327 . S
C1203 H1226 0.950 . S
C1204 C1203 1.349 . S
C1204 C1216 1.349 . S
C1205 C1203 1.327 . S
C1205 C1221 1.429 . S
C1205 H1227 0.950 . S
C1206 H1202 0.949 . S
C1206 C1214 1.574 . S
C1206 C1222 1.368 . S
H1207 C1215 0.950 . S
H1208 C1213 0.950 . S
H1209 C1214 0.949 . S
H1210 C1216 0.950 . S
H1211 C1217 0.950 . S
H1212 C1218 0.949 . S
C1213 H1208 0.950 . S
C1213 C1215 1.327 . S
C1213 C1219 1.429 . S
C1214 C1206 1.574 . S
C1214 H1209 0.949 . S
C1214 C1220 1.368 . S
C1215 C1199 1.349 . S
C1215 H1207 0.950 . S
C1215 C1213 1.327 . S
C1216 C1204 1.349 . S
C1216 H1210 0.950 . S
C1216 C1217 1.327 . S
C1217 H1211 0.950 . S
C1217 C1216 1.327 . S
C1217 C1221 1.429 . S
C1218 C1201 1.574 . S
C1218 H1212 0.949 . S
C1218 C1222 1.368 . S
C1219 C1200 1.429 . S
C1219 C1213 1.429 . S
C1219 C1220 1.523 . S
C1220 C1201 1.368 . S
C1220 C1214 1.368 . S
C1220 C1219 1.523 . S
C1221 C1205 1.429 . S
C1221 C1217 1.429 . S
C1221 C1222 1.523 . S
C1222 C1206 1.368 . S
C1222 C1218 1.368 . S
C1222 C1221 1.523 . S
H1223 C1198 0.950 . S
H1224 C1200 0.950 . S
H1225 C1201 0.949 . S
H1226 C1203 0.950 . S
H1227 C1205 0.950 . S
C1228 C1229 1.349 . S
C1228 C1230 1.327 . S
C1228 H1253 0.950 . S
C1229 C1228 1.349 . S
C1229 C1245 1.349 . S
C1230 C1228 1.327 . S
C1230 C1249 1.429 . S
C1230 H1254 0.950 . S
C1231 C1248 1.574 . S
C1231 C1250 1.368 . S
C1231 H1255 0.949 . S
H1232 C1236 0.949 . S
C1233 C1234 1.349 . S
C1233 C1235 1.327 . S
C1233 H1256 0.950 . S
C1234 C1233 1.349 . S
C1234 C1246 1.349 . S
C1235 C1233 1.327 . S
C1235 C1251 1.429 . S
C1235 H1257 0.950 . S
C1236 H1232 0.949 . S
C1236 C1244 1.574 . S
C1236 C1252 1.368 . S
H1237 C1245 0.950 . S
H1238 C1243 0.950 . S
H1239 C1244 0.949 . S
H1240 C1246 0.950 . S
H1241 C1247 0.950 . S
H1242 C1248 0.949 . S
C1243 H1238 0.950 . S
C1243 C1245 1.327 . S
C1243 C1249 1.429 . S
C1244 C1236 1.574 . S
C1244 H1239 0.949 . S
C1244 C1250 1.368 . S
C1245 C1229 1.349 . S
C1245 H1237 0.950 . S
C1245 C1243 1.327 . S
C1246 C1234 1.349 . S
C1246 H1240 0.950 . S
C1246 C1247 1.327 . S
C1247 H1241 0.950 . S
C1247 C1246 1.327 . S
C1247 C1251 1.429 . S
C1248 C1231 1.574 . S
C1248 H1242 0.949 . S
C1248 C1252 1.368 . S
C1249 C1230 1.429 . S
C1249 C1243 1.429 . S
C1249 C1250 1.523 . S
C1250 C1231 1.368 . S
C1250 C1244 1.368 . S
C1250 C1249 1.523 . S
C1251 C1235 1.429 . S
C1251 C1247 1.429 . S
C1251 C1252 1.523 . S
C1252 C1236 1.368 . S
C1252 C1248 1.368 . S
C1252 C1251 1.523 . S
H1253 C1228 0.950 . S
H1254 C1230 0.950 . S
H1255 C1231 0.949 . S
H1256 C1233 0.950 . S
H1257 C1235 0.950 . S
C1258 C1259 1.349 . S
C1258 C1260 1.327 . S
C1258 H1283 0.950 . S
C1259 C1258 1.349 . S
C1259 C1275 1.349 . S
C1260 C1258 1.327 . S
C1260 C1279 1.429 . S
C1260 H1284 0.950 . S
C1261 C1278 1.574 . S
C1261 C1280 1.368 . S
C1261 H1285 0.949 . S
H1262 C1266 0.949 . S
C1263 C1264 1.349 . S
C1263 C1265 1.327 . S
C1263 H1286 0.950 . S
C1264 C1263 1.349 . S
C1264 C1276 1.349 . S
C1265 C1263 1.327 . S
C1265 C1281 1.429 . S
C1265 H1287 0.950 . S
C1266 H1262 0.949 . S
C1266 C1274 1.574 . S
C1266 C1282 1.368 . S
H1267 C1275 0.950 . S
H1268 C1273 0.950 . S
H1269 C1274 0.949 . S
H1270 C1276 0.950 . S
H1271 C1277 0.950 . S
H1272 C1278 0.949 . S
C1273 H1268 0.950 . S
C1273 C1275 1.327 . S
C1273 C1279 1.429 . S
C1274 C1266 1.574 . S
C1274 H1269 0.949 . S
C1274 C1280 1.368 . S
C1275 C1259 1.349 . S
C1275 H1267 0.950 . S
C1275 C1273 1.327 . S
C1276 C1264 1.349 . S
C1276 H1270 0.950 . S
C1276 C1277 1.327 . S
C1277 H1271 0.950 . S
C1277 C1276 1.327 . S
C1277 C1281 1.429 . S
C1278 C1261 1.574 . S
C1278 H1272 0.949 . S
C1278 C1282 1.368 . S
C1279 C1260 1.429 . S
C1279 C1273 1.429 . S
C1279 C1280 1.523 . S
C1280 C1261 1.368 . S
C1280 C1274 1.368 . S
C1280 C1279 1.523 . S
C1281 C1265 1.429 . S
C1281 C1277 1.429 . S
C1281 C1282 1.523 . S
C1282 C1266 1.368 . S
C1282 C1278 1.368 . S
C1282 C1281 1.523 . S
H1283 C1258 0.950 . S
H1284 C1260 0.950 . S
H1285 C1261 0.949 . S
H1286 C1263 0.950 . S
H1287 C1265 0.950 . S
C1288 C1289 1.349 . S
C1288 C1290 1.327 . S
C1288 H1313 0.950 . S
C1289 C1288 1.349 . S
C1289 C1305 1.349 . S
C1290 C1288 1.327 . S
C1290 C1309 1.429 . S
C1290 H1314 0.950 . S
C1291 C1308 1.574 . S
C1291 C1310 1.368 . S
C1291 H1315 0.949 . S
H1292 C1296 0.949 . S
C1293 C1294 1.349 . S
C1293 C1295 1.327 . S
C1293 H1316 0.950 . S
C1294 C1293 1.349 . S
C1294 C1306 1.349 . S
C1295 C1293 1.327 . S
C1295 C1311 1.429 . S
C1295 H1317 0.950 . S
C1296 H1292 0.949 . S
C1296 C1304 1.574 . S
C1296 C1312 1.368 . S
H1297 C1305 0.950 . S
H1298 C1303 0.950 . S
H1299 C1304 0.949 . S
H1300 C1306 0.950 . S
H1301 C1307 0.950 . S
H1302 C1308 0.949 . S
C1303 H1298 0.950 . S
C1303 C1305 1.327 . S
C1303 C1309 1.429 . S
C1304 C1296 1.574 . S
C1304 H1299 0.949 . S
C1304 C1310 1.368 . S
C1305 C1289 1.349 . S
C1305 H1297 0.950 . S
C1305 C1303 1.327 . S
C1306 C1294 1.349 . S
C1306 H1300 0.950 . S
C1306 C1307 1.327 . S
C1307 H1301 0.950 . S
C1307 C1306 1.327 . S
C1307 C1311 1.429 . S
C1308 C1291 1.574 . S
C1308 H1302 0.949 . S
C1308 C1312 1.368 . S
C1309 C1290 1.429 . S
C1309 C1303 1.429 . S
C1309 C1310 1.523 . S
C1310 C1291 1.368 . S
C1310 C1304 1.368 . S
C1310 C1309 1.523 . S
C1311 C1295 1.429 . S
C1311 C1307 1.429 . S
C1311 C1312 1.523 . S
C1312 C1296 1.368 . S
C1312 C1308 1.368 . S
C1312 C1311 1.523 . S
H1313 C1288 0.950 . S
H1314 C1290 0.950 . S
H1315 C1291 0.949 . S
H1316 C1293 0.950 . S
H1317 C1295 0.950 . S
C1318 C1319 1.349 . S
C1318 C1320 1.327 . S
C1318 H1343 0.950 . S
C1319 C1318 1.349 . S
C1319 C1335 1.349 . S
C1320 C1318 1.327 . S
C1320 C1339 1.429 . S
C1320 H1344 0.950 . S
C1321 C1338 1.574 1_655 S
C1321 C1340 1.368 . S
C1321 H1345 0.949 . S
H1322 C1326 0.949 . S
C1323 C1324 1.349 . S
C1323 C1325 1.327 . S
C1323 H1346 0.950 . S
C1324 C1323 1.349 . S
C1324 C1336 1.349 . S
C1325 C1323 1.327 . S
C1325 C1341 1.429 . S
C1325 H1347 0.950 . S
C1326 H1322 0.949 . S
C1326 C1334 1.574 1_455 S
C1326 C1342 1.368 . S
H1327 C1335 0.950 . S
H1328 C1333 0.950 . S
H1329 C1334 0.949 . S
H1330 C1336 0.950 . S
H1331 C1337 0.950 . S
H1332 C1338 0.949 . S
C1333 H1328 0.950 . S
C1333 C1335 1.327 . S
C1333 C1339 1.429 . S
C1334 C1326 1.574 1_655 S
C1334 H1329 0.949 . S
C1334 C1340 1.368 . S
C1335 C1319 1.349 . S
C1335 H1327 0.950 . S
C1335 C1333 1.327 . S
C1336 C1324 1.349 . S
C1336 H1330 0.950 . S
C1336 C1337 1.327 . S
C1337 H1331 0.950 . S
C1337 C1336 1.327 . S
C1337 C1341 1.429 . S
C1338 C1321 1.574 1_455 S
C1338 H1332 0.949 . S
C1338 C1342 1.368 . S
C1339 C1320 1.429 . S
C1339 C1333 1.429 . S
C1339 C1340 1.523 . S
C1340 C1321 1.368 . S
C1340 C1334 1.368 . S
C1340 C1339 1.523 . S
C1341 C1325 1.429 . S
C1341 C1337 1.429 . S
C1341 C1342 1.523 . S
C1342 C1326 1.368 . S
C1342 C1338 1.368 . S
C1342 C1341 1.523 . S
H1343 C1318 0.950 . S
H1344 C1320 0.950 . S
H1345 C1321 0.949 . S
H1346 C1323 0.950 . S
H1347 C1325 0.950 . S
C1348 C1349 1.349 . S
C1348 C1350 1.327 . S
C1348 H1373 0.950 . S
C1349 C1348 1.349 . S
C1349 C1365 1.349 . S
C1350 C1348 1.327 . S
C1350 C1369 1.429 . S
C1350 H1374 0.950 . S
C1351 C1368 1.574 . S
C1351 C1370 1.368 . S
C1351 H1375 0.949 . S
H1352 C1356 0.949 . S
C1353 C1354 1.349 . S
C1353 C1355 1.327 . S
C1353 H1376 0.950 . S
C1354 C1353 1.349 . S
C1354 C1366 1.349 . S
C1355 C1353 1.327 . S
C1355 C1371 1.429 . S
C1355 H1377 0.950 . S
C1356 H1352 0.949 . S
C1356 C1364 1.574 . S
C1356 C1372 1.368 . S
H1357 C1365 0.950 . S
H1358 C1363 0.950 . S
H1359 C1364 0.949 . S
H1360 C1366 0.950 . S
H1361 C1367 0.950 . S
H1362 C1368 0.949 . S
C1363 H1358 0.950 . S
C1363 C1365 1.327 . S
C1363 C1369 1.429 . S
C1364 C1356 1.574 . S
C1364 H1359 0.949 . S
C1364 C1370 1.368 . S
C1365 C1349 1.349 . S
C1365 H1357 0.950 . S
C1365 C1363 1.327 . S
C1366 C1354 1.349 . S
C1366 H1360 0.950 . S
C1366 C1367 1.327 . S
C1367 H1361 0.950 . S
C1367 C1366 1.327 . S
C1367 C1371 1.429 . S
C1368 C1351 1.574 . S
C1368 H1362 0.949 . S
C1368 C1372 1.368 . S
C1369 C1350 1.429 . S
C1369 C1363 1.429 . S
C1369 C1370 1.523 . S
C1370 C1351 1.368 . S
C1370 C1364 1.368 . S
C1370 C1369 1.523 . S
C1371 C1355 1.429 . S
C1371 C1367 1.429 . S
C1371 C1372 1.523 . S
C1372 C1356 1.368 . S
C1372 C1368 1.368 . S
C1372 C1371 1.523 . S
H1373 C1348 0.950 . S
H1374 C1350 0.950 . S
H1375 C1351 0.949 . S
H1376 C1353 0.950 . S
H1377 C1355 0.950 . S
C1378 C1379 1.349 . S
C1378 C1380 1.327 . S
C1378 H1403 0.950 . S
C1379 C1378 1.349 . S
C1379 C1395 1.349 . S
C1380 C1378 1.327 . S
C1380 C1399 1.429 . S
C1380 H1404 0.950 . S
C1381 C1398 1.574 1_455 S
C1381 C1400 1.368 . S
C1381 H1405 0.949 . S
H1382 C1386 0.949 . S
C1383 C1384 1.349 . S
C1383 C1385 1.327 . S
C1383 H1406 0.950 . S
C1384 C1383 1.349 . S
C1384 C1396 1.349 . S
C1385 C1383 1.327 . S
C1385 C1401 1.429 . S
C1385 H1407 0.950 . S
C1386 H1382 0.949 . S
C1386 C1394 1.574 1_655 S
C1386 C1402 1.368 . S
H1387 C1395 0.950 . S
H1388 C1393 0.950 . S
H1389 C1394 0.949 . S
H1390 C1396 0.950 . S
H1391 C1397 0.950 . S
H1392 C1398 0.949 . S
C1393 H1388 0.950 . S
C1393 C1395 1.327 . S
C1393 C1399 1.429 . S
C1394 C1386 1.574 1_455 S
C1394 H1389 0.949 . S
C1394 C1400 1.368 . S
C1395 C1379 1.349 . S
C1395 H1387 0.950 . S
C1395 C1393 1.327 . S
C1396 C1384 1.349 . S
C1396 H1390 0.950 . S
C1396 C1397 1.327 . S
C1397 H1391 0.950 . S
C1397 C1396 1.327 . S
C1397 C1401 1.429 . S
C1398 C1381 1.574 1_655 S
C1398 H1392 0.949 . S
C1398 C1402 1.368 . S
C1399 C1380 1.429 . S
C1399 C1393 1.429 . S
C1399 C1400 1.523 . S
C1400 C1381 1.368 . S
C1400 C1394 1.368 . S
C1400 C1399 1.523 . S
C1401 C1385 1.429 . S
C1401 C1397 1.429 . S
C1401 C1402 1.523 . S
C1402 C1386 1.368 . S
C1402 C1398 1.368 . S
C1402 C1401 1.523 . S
H1403 C1378 0.950 . S
H1404 C1380 0.950 . S
H1405 C1381 0.949 . S
H1406 C1383 0.950 . S
H1407 C1385 0.950 . S
C1408 C1409 1.349 . S
C1408 C1410 1.327 . S
C1408 H1433 0.950 . S
C1409 C1408 1.349 . S
C1409 C1425 1.349 . S
C1410 C1408 1.327 . S
C1410 C1429 1.429 . S
C1410 H1434 0.950 1_556 S
C1411 C1428 1.574 . S
C1411 C1430 1.368 . S
C1411 H1435 0.949 . S
H1412 C1416 0.949 . S
C1413 C1414 1.349 . S
C1413 C1415 1.327 . S
C1413 H1436 0.950 . S
C1414 C1413 1.349 . S
C1414 C1426 1.349 . S
C1415 C1413 1.327 . S
C1415 C1431 1.429 . S
C1415 H1437 0.950 1_554 S
C1416 H1412 0.949 . S
C1416 C1424 1.574 . S
C1416 C1432 1.368 . S
H1417 C1425 0.950 . S
H1418 C1423 0.950 . S
H1419 C1424 0.949 . S
H1420 C1426 0.950 . S
H1421 C1427 0.950 . S
H1422 C1428 0.949 . S
C1423 H1418 0.950 . S
C1423 C1425 1.327 . S
C1423 C1429 1.429 . S
C1424 C1416 1.574 . S
C1424 H1419 0.949 . S
C1424 C1430 1.368 1_554 S
C1425 C1409 1.349 . S
C1425 H1417 0.950 . S
C1425 C1423 1.327 . S
C1426 C1414 1.349 . S
C1426 H1420 0.950 . S
C1426 C1427 1.327 . S
C1427 H1421 0.950 . S
C1427 C1426 1.327 . S
C1427 C1431 1.429 . S
C1428 C1411 1.574 . S
C1428 H1422 0.949 . S
C1428 C1432 1.368 1_556 S
C1429 C1410 1.429 . S
C1429 C1423 1.429 . S
C1429 C1430 1.523 . S
C1430 C1411 1.368 . S
C1430 C1424 1.368 1_556 S
C1430 C1429 1.523 . S
C1431 C1415 1.429 . S
C1431 C1427 1.429 . S
C1431 C1432 1.523 . S
C1432 C1416 1.368 . S
C1432 C1428 1.368 1_554 S
C1432 C1431 1.523 . S
H1433 C1408 0.950 . S
H1434 C1410 0.950 1_554 S
H1435 C1411 0.949 . S
H1436 C1413 0.950 . S
H1437 C1415 0.950 1_556 S
C1438 C1439 1.349 . S
C1438 C1440 1.327 . S
C1438 H1463 0.950 . S
C1439 C1438 1.349 . S
C1439 C1455 1.349 . S
C1440 C1438 1.327 . S
C1440 C1459 1.429 . S
C1440 H1464 0.950 . S
C1441 C1458 1.574 . S
C1441 C1460 1.368 . S
C1441 H1465 0.949 . S
H1442 C1446 0.949 . S
C1443 C1444 1.349 . S
C1443 C1445 1.327 . S
C1443 H1466 0.950 . S
C1444 C1443 1.349 . S
C1444 C1456 1.349 . S
C1445 C1443 1.327 . S
C1445 C1461 1.429 . S
C1445 H1467 0.950 . S
C1446 H1442 0.949 . S
C1446 C1454 1.574 . S
C1446 C1462 1.368 . S
H1447 C1455 0.950 . S
H1448 C1453 0.950 . S
H1449 C1454 0.949 . S
H1450 C1456 0.950 . S
H1451 C1457 0.950 . S
H1452 C1458 0.949 . S
C1453 H1448 0.950 . S
C1453 C1455 1.327 . S
C1453 C1459 1.429 . S
C1454 C1446 1.574 . S
C1454 H1449 0.949 . S
C1454 C1460 1.368 . S
C1455 C1439 1.349 . S
C1455 H1447 0.950 . S
C1455 C1453 1.327 . S
C1456 C1444 1.349 . S
C1456 H1450 0.950 . S
C1456 C1457 1.327 . S
C1457 H1451 0.950 . S
C1457 C1456 1.327 . S
C1457 C1461 1.429 . S
C1458 C1441 1.574 . S
C1458 H1452 0.949 . S
C1458 C1462 1.368 . S
C1459 C1440 1.429 . S
C1459 C1453 1.429 . S
C1459 C1460 1.523 . S
C1460 C1441 1.368 . S
C1460 C1454 1.368 . S
C1460 C1459 1.523 . S
C1461 C1445 1.429 . S
C1461 C1457 1.429 . S
C1461 C1462 1.523 . S
C1462 C1446 1.368 . S
C1462 C1458 1.368 . S
C1462 C1461 1.523 . S
H1463 C1438 0.950 . S
H1464 C1440 0.950 . S
H1465 C1441 0.949 . S
H1466 C1443 0.950 . S
H1467 C1445 0.950 . S
C1468 C1469 1.349 . S
C1468 C1470 1.327 . S
C1468 H1493 0.950 . S
C1469 C1468 1.349 . S
C1469 C1485 1.349 . S
C1470 C1468 1.327 . S
C1470 C1489 1.429 . S
C1470 H1494 0.950 . S
C1471 C1488 1.574 . S
C1471 C1490 1.368 . S
C1471 H1495 0.949 . S
H1472 C1476 0.949 . S
C1473 C1474 1.349 . S
C1473 C1475 1.327 . S
C1473 H1496 0.950 . S
C1474 C1473 1.349 . S
C1474 C1486 1.349 . S
C1475 C1473 1.327 . S
C1475 C1491 1.429 . S
C1475 H1497 0.950 . S
C1476 H1472 0.949 . S
C1476 C1484 1.574 . S
C1476 C1492 1.368 . S
H1477 C1485 0.950 . S
H1478 C1483 0.950 . S
H1479 C1484 0.949 . S
H1480 C1486 0.950 . S
H1481 C1487 0.950 . S
H1482 C1488 0.949 . S
C1483 H1478 0.950 . S
C1483 C1485 1.327 . S
C1483 C1489 1.429 . S
C1484 C1476 1.574 . S
C1484 H1479 0.949 . S
C1484 C1490 1.368 . S
C1485 C1469 1.349 . S
C1485 H1477 0.950 . S
C1485 C1483 1.327 . S
C1486 C1474 1.349 . S
C1486 H1480 0.950 . S
C1486 C1487 1.327 . S
C1487 H1481 0.950 . S
C1487 C1486 1.327 . S
C1487 C1491 1.429 . S
C1488 C1471 1.574 . S
C1488 H1482 0.949 . S
C1488 C1492 1.368 . S
C1489 C1470 1.429 . S
C1489 C1483 1.429 . S
C1489 C1490 1.523 . S
C1490 C1471 1.368 . S
C1490 C1484 1.368 . S
C1490 C1489 1.523 . S
C1491 C1475 1.429 . S
C1491 C1487 1.429 . S
C1491 C1492 1.523 . S
C1492 C1476 1.368 . S
C1492 C1488 1.368 . S
C1492 C1491 1.523 . S
H1493 C1468 0.950 . S
H1494 C1470 0.950 . S
H1495 C1471 0.949 . S
H1496 C1473 0.950 . S
H1497 C1475 0.950 . S
C1498 C1499 1.349 . S
C1498 C1500 1.327 . S
C1498 H1523 0.950 . S
C1499 C1498 1.349 . S
C1499 C1515 1.349 . S
C1500 C1498 1.327 . S
C1500 C1519 1.429 . S
C1500 H1524 0.950 . S
C1501 C1518 1.574 . S
C1501 C1520 1.368 . S
C1501 H1525 0.949 . S
H1502 C1506 0.949 . S
C1503 C1504 1.349 . S
C1503 C1505 1.327 . S
C1503 H1526 0.950 . S
C1504 C1503 1.349 . S
C1504 C1516 1.349 . S
C1505 C1503 1.327 . S
C1505 C1521 1.429 . S
C1505 H1527 0.950 . S
C1506 H1502 0.949 . S
C1506 C1514 1.574 . S
C1506 C1522 1.368 . S
H1507 C1515 0.950 . S
H1508 C1513 0.950 . S
H1509 C1514 0.949 . S
H1510 C1516 0.950 . S
H1511 C1517 0.950 . S
H1512 C1518 0.949 . S
C1513 H1508 0.950 . S
C1513 C1515 1.327 . S
C1513 C1519 1.429 . S
C1514 C1506 1.574 . S
C1514 H1509 0.949 . S
C1514 C1520 1.368 . S
C1515 C1499 1.349 . S
C1515 H1507 0.950 . S
C1515 C1513 1.327 . S
C1516 C1504 1.349 . S
C1516 H1510 0.950 . S
C1516 C1517 1.327 . S
C1517 H1511 0.950 . S
C1517 C1516 1.327 . S
C1517 C1521 1.429 . S
C1518 C1501 1.574 . S
C1518 H1512 0.949 . S
C1518 C1522 1.368 . S
C1519 C1500 1.429 . S
C1519 C1513 1.429 . S
C1519 C1520 1.523 . S
C1520 C1501 1.368 . S
C1520 C1514 1.368 . S
C1520 C1519 1.523 . S
C1521 C1505 1.429 . S
C1521 C1517 1.429 . S
C1521 C1522 1.523 . S
C1522 C1506 1.368 . S
C1522 C1518 1.368 . S
C1522 C1521 1.523 . S
H1523 C1498 0.950 . S
H1524 C1500 0.950 . S
H1525 C1501 0.949 . S
H1526 C1503 0.950 . S
H1527 C1505 0.950 . S
C1528 C1529 1.349 . S
C1528 C1530 1.327 . S
C1528 H1553 0.950 . S
C1529 C1528 1.349 . S
C1529 C1545 1.349 . S
C1530 C1528 1.327 . S
C1530 C1549 1.429 . S
C1530 H1554 0.950 . S
C1531 C1548 1.574 . S
C1531 C1550 1.368 1_556 S
C1531 H1555 0.949 . S
H1532 C1536 0.949 . S
C1533 C1534 1.349 . S
C1533 C1535 1.327 . S
C1533 H1556 0.950 . S
C1534 C1533 1.349 . S
C1534 C1546 1.349 . S
C1535 C1533 1.327 . S
C1535 C1551 1.429 . S
C1535 H1557 0.950 . S
C1536 H1532 0.949 . S
C1536 C1544 1.574 . S
C1536 C1552 1.368 1_554 S
H1537 C1545 0.950 . S
H1538 C1543 0.904 1_556 S
H1539 C1544 0.949 . S
H1540 C1546 0.950 . S
H1541 C1547 0.904 1_554 S
H1542 C1548 0.949 . S
C1543 H1538 0.904 1_554 S
C1543 C1545 1.327 . S
C1543 C1549 1.429 . S
C1544 C1536 1.574 . S
C1544 H1539 0.949 . S
C1544 C1550 1.368 . S
C1545 C1529 1.349 . S
C1545 H1537 0.950 . S
C1545 C1543 1.327 . S
C1546 C1534 1.349 . S
C1546 H1540 0.950 . S
C1546 C1547 1.327 . S
C1547 H1541 0.904 1_556 S
C1547 C1546 1.327 . S
C1547 C1551 1.429 . S
C1548 C1531 1.574 . S
C1548 H1542 0.949 . S
C1548 C1552 1.368 . S
C1549 C1530 1.429 . S
C1549 C1543 1.429 . S
C1549 C1550 1.523 . S
C1550 C1531 1.368 1_554 S
C1550 C1544 1.368 . S
C1550 C1549 1.523 . S
C1551 C1535 1.429 . S
C1551 C1547 1.429 . S
C1551 C1552 1.523 . S
C1552 C1536 1.368 1_556 S
C1552 C1548 1.368 . S
C1552 C1551 1.523 . S
H1553 C1528 0.950 . S
H1554 C1530 0.950 . S
H1555 C1531 0.949 . S
H1556 C1533 0.950 . S
H1557 C1535 0.950 . S
C1558 C1559 1.349 . S
C1558 C1560 1.327 . S
C1558 H1583 0.950 . S
C1559 C1558 1.349 . S
C1559 C1575 1.349 . S
C1560 C1558 1.327 . S
C1560 C1579 1.429 . S
C1560 H1584 0.950 . S
C1561 C1578 1.574 . S
C1561 C1580 1.368 . S
C1561 H1585 0.949 . S
H1562 C1566 0.949 . S
C1563 C1564 1.349 . S
C1563 C1565 1.327 . S
C1563 H1586 0.950 . S
C1564 C1563 1.349 . S
C1564 C1576 1.349 . S
C1565 C1563 1.327 . S
C1565 C1581 1.429 . S
C1565 H1587 0.950 . S
C1566 H1562 0.949 . S
C1566 C1574 1.574 . S
C1566 C1582 1.368 . S
H1567 C1575 0.950 . S
H1568 C1573 0.950 . S
H1569 C1574 0.949 . S
H1570 C1576 0.950 . S
H1571 C1577 0.950 . S
H1572 C1578 0.949 . S
C1573 H1568 0.950 . S
C1573 C1575 1.327 . S
C1573 C1579 1.429 . S
C1574 C1566 1.574 . S
C1574 H1569 0.949 . S
C1574 C1580 1.368 . S
C1575 C1559 1.349 . S
C1575 H1567 0.950 . S
C1575 C1573 1.327 . S
C1576 C1564 1.349 . S
C1576 H1570 0.950 . S
C1576 C1577 1.327 . S
C1577 H1571 0.950 . S
C1577 C1576 1.327 . S
C1577 C1581 1.429 . S
C1578 C1561 1.574 . S
C1578 H1572 0.949 . S
C1578 C1582 1.368 . S
C1579 C1560 1.429 . S
C1579 C1573 1.429 . S
C1579 C1580 1.523 . S
C1580 C1561 1.368 . S
C1580 C1574 1.368 . S
C1580 C1579 1.523 . S
C1581 C1565 1.429 . S
C1581 C1577 1.429 . S
C1581 C1582 1.523 . S
C1582 C1566 1.368 . S
C1582 C1578 1.368 . S
C1582 C1581 1.523 . S
H1583 C1558 0.950 . S
H1584 C1560 0.950 . S
H1585 C1561 0.949 . S
H1586 C1563 0.950 . S
H1587 C1565 0.950 . S
C1588 C1589 1.349 . S
C1588 C1590 1.327 . S
C1588 H1613 0.950 . S
C1589 C1588 1.349 . S
C1589 C1605 1.349 . S
C1590 C1588 1.327 . S
C1590 C1609 1.429 . S
C1590 H1614 0.950 . S
C1591 C1608 1.574 . S
C1591 C1610 1.368 . S
C1591 H1615 0.949 . S
H1592 C1596 0.949 . S
C1593 C1594 1.349 . S
C1593 C1595 1.327 . S
C1593 H1616 0.950 . S
C1594 C1593 1.349 . S
C1594 C1606 1.349 . S
C1595 C1593 1.327 . S
C1595 C1611 1.429 . S
C1595 H1617 0.950 . S
C1596 H1592 0.949 . S
C1596 C1604 1.574 . S
C1596 C1612 1.368 . S
H1597 C1605 0.950 . S
H1598 C1603 0.950 . S
H1599 C1604 0.949 . S
H1600 C1606 0.950 . S
H1601 C1607 0.950 . S
H1602 C1608 0.949 . S
C1603 H1598 0.950 . S
C1603 C1605 1.327 . S
C1603 C1609 1.429 . S
C1604 C1596 1.574 . S
C1604 H1599 0.949 . S
C1604 C1610 1.368 . S
C1605 C1589 1.349 . S
C1605 H1597 0.950 . S
C1605 C1603 1.327 . S
C1606 C1594 1.349 . S
C1606 H1600 0.950 . S
C1606 C1607 1.327 . S
C1607 H1601 0.950 . S
C1607 C1606 1.327 . S
C1607 C1611 1.429 . S
C1608 C1591 1.574 . S
C1608 H1602 0.949 . S
C1608 C1612 1.368 . S
C1609 C1590 1.429 . S
C1609 C1603 1.429 . S
C1609 C1610 1.523 . S
C1610 C1591 1.368 . S
C1610 C1604 1.368 . S
C1610 C1609 1.523 . S
C1611 C1595 1.429 . S
C1611 C1607 1.429 . S
C1611 C1612 1.523 . S
C1612 C1596 1.368 . S
C1612 C1608 1.368 . S
C1612 C1611 1.523 . S
H1613 C1588 0.950 . S
H1614 C1590 0.950 . S
H1615 C1591 0.949 . S
H1616 C1593 0.950 . S
H1617 C1595 0.950 . S
C1618 C1619 1.349 . S
C1618 C1620 1.327 . S
C1618 H1643 0.950 . S
C1619 C1618 1.349 . S
C1619 C1635 1.349 . S
C1620 C1618 1.327 . S
C1620 C1639 1.429 . S
C1620 H1644 0.950 . S
C1621 C1638 1.574 . S
C1621 C1640 1.368 . S
C1621 H1645 0.949 . S
H1622 C1626 0.949 . S
C1623 C1624 1.349 . S
C1623 C1625 1.327 . S
C1623 H1646 0.950 . S
C1624 C1623 1.349 . S
C1624 C1636 1.349 . S
C1625 C1623 1.327 . S
C1625 C1641 1.429 . S
C1625 H1647 0.950 . S
C1626 H1622 0.949 . S
C1626 C1634 1.574 . S
C1626 C1642 1.368 . S
H1627 C1635 0.950 . S
H1628 C1633 0.950 . S
H1629 C1634 0.949 . S
H1630 C1636 0.950 . S
H1631 C1637 0.950 . S
H1632 C1638 0.949 . S
C1633 H1628 0.950 . S
C1633 C1635 1.327 . S
C1633 C1639 1.429 . S
C1634 C1626 1.574 . S
C1634 H1629 0.949 . S
C1634 C1640 1.368 . S
C1635 C1619 1.349 . S
C1635 H1627 0.950 . S
C1635 C1633 1.327 . S
C1636 C1624 1.349 . S
C1636 H1630 0.950 . S
C1636 C1637 1.327 . S
C1637 H1631 0.950 . S
C1637 C1636 1.327 . S
C1637 C1641 1.429 . S
C1638 C1621 1.574 . S
C1638 H1632 0.949 . S
C1638 C1642 1.368 . S
C1639 C1620 1.429 . S
C1639 C1633 1.429 . S
C1639 C1640 1.523 . S
C1640 C1621 1.368 . S
C1640 C1634 1.368 . S
C1640 C1639 1.523 . S
C1641 C1625 1.429 . S
C1641 C1637 1.429 . S
C1641 C1642 1.523 . S
C1642 C1626 1.368 . S
C1642 C1638 1.368 . S
C1642 C1641 1.523 . S
H1643 C1618 0.950 . S
H1644 C1620 0.950 . S
H1645 C1621 0.949 . S
H1646 C1623 0.950 . S
H1647 C1625 0.950 . S
C1648 C1649 1.349 . S
C1648 C1650 1.327 . S
C1648 H1673 0.950 . S
C1649 C1648 1.349 . S
C1649 C1665 1.349 . S
C1650 C1648 1.327 . S
C1650 C1669 1.429 . S
C1650 H1674 0.950 . S
C1651 C1668 1.574 1_545 S
C1651 C1670 1.368 . S
C1651 H1675 0.949 . S
H1652 C1656 0.949 . S
C1653 C1654 1.349 . S
C1653 C1655 1.327 . S
C1653 H1676 0.950 . S
C1654 C1653 1.349 . S
C1654 C1666 1.349 . S
C1655 C1653 1.327 . S
C1655 C1671 1.429 . S
C1655 H1677 0.950 . S
C1656 H1652 0.949 . S
C1656 C1664 1.574 1_565 S
C1656 C1672 1.368 . S
H1657 C1665 0.950 . S
H1658 C1663 0.950 . S
H1659 C1664 0.949 . S
H1660 C1666 0.950 . S
H1661 C1667 0.950 . S
H1662 C1668 0.949 . S
C1663 H1658 0.950 . S
C1663 C1665 1.327 . S
C1663 C1669 1.429 . S
C1664 C1656 1.574 1_545 S
C1664 H1659 0.949 . S
C1664 C1670 1.368 . S
C1665 C1649 1.349 . S
C1665 H1657 0.950 . S
C1665 C1663 1.327 . S
C1666 C1654 1.349 . S
C1666 H1660 0.950 . S
C1666 C1667 1.327 . S
C1667 H1661 0.950 . S
C1667 C1666 1.327 . S
C1667 C1671 1.429 . S
C1668 C1651 1.574 1_565 S
C1668 H1662 0.949 . S
C1668 C1672 1.368 . S
C1669 C1650 1.429 . S
C1669 C1663 1.429 . S
C1669 C1670 1.523 . S
C1670 C1651 1.368 . S
C1670 C1664 1.368 . S
C1670 C1669 1.523 . S
C1671 C1655 1.429 . S
C1671 C1667 1.429 . S
C1671 C1672 1.523 . S
C1672 C1656 1.368 . S
C1672 C1668 1.368 . S
C1672 C1671 1.523 . S
H1673 C1648 0.950 . S
H1674 C1650 0.950 . S
H1675 C1651 0.949 . S
H1676 C1653 0.950 . S
H1677 C1655 0.950 . S
C1678 C1679 1.349 . S
C1678 C1680 1.327 . S
C1678 H1703 0.950 . S
C1679 C1678 1.349 . S
C1679 C1695 1.349 . S
C1680 C1678 1.327 . S
C1680 C1699 1.429 . S
C1680 H1704 0.950 . S
C1681 C1698 1.574 . S
C1681 C1700 1.368 . S
C1681 H1705 0.949 . S
H1682 C1686 0.949 . S
C1683 C1684 1.349 . S
C1683 C1685 1.327 . S
C1683 H1706 0.950 . S
C1684 C1683 1.349 . S
C1684 C1696 1.349 . S
C1685 C1683 1.327 . S
C1685 C1701 1.429 . S
C1685 H1707 0.950 . S
C1686 H1682 0.949 . S
C1686 C1694 1.574 . S
C1686 C1702 1.368 . S
H1687 C1695 0.950 . S
H1688 C1693 0.950 . S
H1689 C1694 0.949 . S
H1690 C1696 0.950 . S
H1691 C1697 0.950 . S
H1692 C1698 0.949 . S
C1693 H1688 0.950 . S
C1693 C1695 1.327 . S
C1693 C1699 1.429 . S
C1694 C1686 1.574 . S
C1694 H1689 0.949 . S
C1694 C1700 1.368 . S
C1695 C1679 1.349 . S
C1695 H1687 0.950 . S
C1695 C1693 1.327 . S
C1696 C1684 1.349 . S
C1696 H1690 0.950 . S
C1696 C1697 1.327 . S
C1697 H1691 0.950 . S
C1697 C1696 1.327 . S
C1697 C1701 1.429 . S
C1698 C1681 1.574 . S
C1698 H1692 0.949 . S
C1698 C1702 1.368 . S
C1699 C1680 1.429 . S
C1699 C1693 1.429 . S
C1699 C1700 1.523 . S
C1700 C1681 1.368 . S
C1700 C1694 1.368 . S
C1700 C1699 1.523 . S
C1701 C1685 1.429 . S
C1701 C1697 1.429 . S
C1701 C1702 1.523 . S
C1702 C1686 1.368 . S
C1702 C1698 1.368 . S
C1702 C1701 1.523 . S
H1703 C1678 0.950 . S
H1704 C1680 0.950 . S
H1705 C1681 0.949 . S
H1706 C1683 0.950 . S
H1707 C1685 0.950 . S
C1708 C1709 1.349 . S
C1708 C1710 1.327 . S
C1708 H1733 0.950 . S
C1709 C1708 1.349 . S
C1709 C1725 1.349 . S
C1710 C1708 1.327 . S
C1710 C1729 1.429 . S
C1710 H1734 0.950 . S
C1711 C1728 1.574 1_565 S
C1711 C1730 1.368 1_556 S
C1711 H1735 0.949 . S
H1712 C1716 0.949 . S
C1713 C1714 1.349 . S
C1713 C1715 1.327 . S
C1713 H1736 0.950 . S
C1714 C1713 1.349 . S
C1714 C1726 1.349 . S
C1715 C1713 1.327 . S
C1715 C1731 1.429 . S
C1715 H1737 0.950 . S
C1716 H1712 0.949 . S
C1716 C1724 1.574 1_545 S
C1716 C1732 1.368 1_554 S
H1717 C1725 0.950 . S
H1718 C1723 0.950 1_556 S
H1719 C1724 0.949 . S
H1720 C1726 0.950 . S
H1721 C1727 0.950 1_554 S
H1722 C1728 0.949 . S
C1723 H1718 0.950 1_554 S
C1723 C1725 1.327 . S
C1723 C1729 1.429 . S
C1724 C1716 1.574 1_565 S
C1724 H1719 0.949 . S
C1724 C1730 1.368 . S
C1725 C1709 1.349 . S
C1725 H1717 0.950 . S
C1725 C1723 1.327 . S
C1726 C1714 1.349 . S
C1726 H1720 0.950 . S
C1726 C1727 1.327 . S
C1727 H1721 0.950 1_556 S
C1727 C1726 1.327 . S
C1727 C1731 1.429 . S
C1728 C1711 1.574 1_545 S
C1728 H1722 0.949 . S
C1728 C1732 1.368 . S
C1729 C1710 1.429 . S
C1729 C1723 1.429 . S
C1729 C1730 1.523 . S
C1730 C1711 1.368 1_554 S
C1730 C1724 1.368 . S
C1730 C1729 1.523 . S
C1731 C1715 1.429 . S
C1731 C1727 1.429 . S
C1731 C1732 1.523 . S
C1732 C1716 1.368 1_556 S
C1732 C1728 1.368 . S
C1732 C1731 1.523 . S
H1733 C1708 0.950 . S
H1734 C1710 0.950 . S
H1735 C1711 0.949 . S
H1736 C1713 0.950 . S
H1737 C1715 0.950 . S
C1738 C1739 1.349 . S
C1738 C1740 1.327 . S
C1738 H1763 0.950 . S
C1739 C1738 1.349 . S
C1739 C1755 1.349 . S
C1740 C1738 1.327 . S
C1740 C1759 1.429 . S
C1740 H1764 0.950 . S
C1741 C1758 1.574 . S
C1741 C1760 1.368 . S
C1741 H1765 0.949 . S
H1742 C1746 0.949 . S
C1743 C1744 1.349 . S
C1743 C1745 1.327 . S
C1743 H1766 0.950 . S
C1744 C1743 1.349 . S
C1744 C1756 1.349 . S
C1745 C1743 1.327 . S
C1745 C1761 1.429 . S
C1745 H1767 0.950 . S
C1746 H1742 0.949 . S
C1746 C1754 1.574 . S
C1746 C1762 1.368 . S
H1747 C1755 0.950 . S
H1748 C1753 0.950 . S
H1749 C1754 0.949 . S
H1750 C1756 0.950 . S
H1751 C1757 0.950 . S
H1752 C1758 0.949 . S
C1753 H1748 0.950 . S
C1753 C1755 1.327 . S
C1753 C1759 1.429 . S
C1754 C1746 1.574 . S
C1754 H1749 0.949 . S
C1754 C1760 1.368 . S
C1755 C1739 1.349 . S
C1755 H1747 0.950 . S
C1755 C1753 1.327 . S
C1756 C1744 1.349 . S
C1756 H1750 0.950 . S
C1756 C1757 1.327 . S
C1757 H1751 0.950 . S
C1757 C1756 1.327 . S
C1757 C1761 1.429 . S
C1758 C1741 1.574 . S
C1758 H1752 0.949 . S
C1758 C1762 1.368 . S
C1759 C1740 1.429 . S
C1759 C1753 1.429 . S
C1759 C1760 1.523 . S
C1760 C1741 1.368 . S
C1760 C1754 1.368 . S
C1760 C1759 1.523 . S
C1761 C1745 1.429 . S
C1761 C1757 1.429 . S
C1761 C1762 1.523 . S
C1762 C1746 1.368 . S
C1762 C1758 1.368 . S
C1762 C1761 1.523 . S
H1763 C1738 0.950 . S
H1764 C1740 0.950 . S
H1765 C1741 0.949 . S
H1766 C1743 0.950 . S
H1767 C1745 0.950 . S
C1768 C1769 1.349 . S
C1768 C1770 1.327 . S
C1768 H1793 0.950 . S
C1769 C1768 1.349 . S
C1769 C1785 1.349 . S
C1770 C1768 1.327 . S
C1770 C1789 1.429 . S
C1770 H1794 0.950 . S
C1771 C1788 1.574 1_545 S
C1771 C1790 1.368 . S
C1771 H1795 0.949 . S
H1772 C1776 0.949 . S
C1773 C1774 1.349 . S
C1773 C1775 1.327 . S
C1773 H1796 0.950 . S
C1774 C1773 1.349 . S
C1774 C1786 1.349 . S
C1775 C1773 1.327 . S
C1775 C1791 1.429 . S
C1775 H1797 0.950 . S
C1776 H1772 0.949 . S
C1776 C1784 1.574 1_565 S
C1776 C1792 1.368 . S
H1777 C1785 0.950 . S
H1778 C1783 0.950 . S
H1779 C1784 0.949 . S
H1780 C1786 0.950 . S
H1781 C1787 0.950 . S
H1782 C1788 0.949 . S
C1783 H1778 0.950 . S
C1783 C1785 1.327 . S
C1783 C1789 1.429 . S
C1784 C1776 1.574 1_545 S
C1784 H1779 0.949 . S
C1784 C1790 1.368 . S
C1785 C1769 1.349 . S
C1785 H1777 0.950 . S
C1785 C1783 1.327 . S
C1786 C1774 1.349 . S
C1786 H1780 0.950 . S
C1786 C1787 1.327 . S
C1787 H1781 0.950 . S
C1787 C1786 1.327 . S
C1787 C1791 1.429 . S
C1788 C1771 1.574 1_565 S
C1788 H1782 0.949 . S
C1788 C1792 1.368 . S
C1789 C1770 1.429 . S
C1789 C1783 1.429 . S
C1789 C1790 1.523 . S
C1790 C1771 1.368 . S
C1790 C1784 1.368 . S
C1790 C1789 1.523 . S
C1791 C1775 1.429 . S
C1791 C1787 1.429 . S
C1791 C1792 1.523 . S
C1792 C1776 1.368 . S
C1792 C1788 1.368 . S
C1792 C1791 1.523 . S
H1793 C1768 0.950 . S
H1794 C1770 0.950 . S
H1795 C1771 0.949 . S
H1796 C1773 0.950 . S
H1797 C1775 0.950 . S
C1798 C1799 1.349 . S
C1798 C1800 1.327 . S
C1798 H1823 0.950 . S
C1799 C1798 1.349 . S
C1799 C1815 1.349 . S
C1800 C1798 1.327 . S
C1800 C1819 1.429 . S
C1800 H1824 0.950 . S
C1801 C1818 1.574 . S
C1801 C1820 1.368 . S
C1801 H1825 0.949 . S
H1802 C1806 0.949 . S
C1803 C1804 1.349 . S
C1803 C1805 1.327 . S
C1803 H1826 0.950 . S
C1804 C1803 1.349 . S
C1804 C1816 1.349 . S
C1805 C1803 1.327 . S
C1805 C1821 1.429 . S
C1805 H1827 0.950 . S
C1806 H1802 0.949 . S
C1806 C1814 1.574 . S
C1806 C1822 1.368 . S
H1807 C1815 0.950 . S
H1808 C1813 0.950 . S
H1809 C1814 0.949 . S
H1810 C1816 0.950 . S
H1811 C1817 0.950 . S
H1812 C1818 0.949 . S
C1813 H1808 0.950 . S
C1813 C1815 1.327 . S
C1813 C1819 1.429 . S
C1814 C1806 1.574 . S
C1814 H1809 0.949 . S
C1814 C1820 1.368 . S
C1815 C1799 1.349 . S
C1815 H1807 0.950 . S
C1815 C1813 1.327 . S
C1816 C1804 1.349 . S
C1816 H1810 0.950 . S
C1816 C1817 1.327 . S
C1817 H1811 0.950 . S
C1817 C1816 1.327 . S
C1817 C1821 1.429 . S
C1818 C1801 1.574 . S
C1818 H1812 0.949 . S
C1818 C1822 1.368 . S
C1819 C1800 1.429 . S
C1819 C1813 1.429 . S
C1819 C1820 1.523 . S
C1820 C1801 1.368 . S
C1820 C1814 1.368 . S
C1820 C1819 1.523 . S
C1821 C1805 1.429 . S
C1821 C1817 1.429 . S
C1821 C1822 1.523 . S
C1822 C1806 1.368 . S
C1822 C1818 1.368 . S
C1822 C1821 1.523 . S
H1823 C1798 0.950 . S
H1824 C1800 0.950 . S
H1825 C1801 0.949 . S
H1826 C1803 0.950 . S
H1827 C1805 0.950 . S
C1828 C1829 1.349 . S
C1828 C1830 1.327 . S
C1828 H1853 0.950 . S
C1829 C1828 1.349 . S
C1829 C1845 1.349 . S
C1830 C1828 1.327 . S
C1830 C1849 1.429 . S
C1830 H1854 0.950 . S
C1831 C1848 1.574 1_565 S
C1831 C1850 1.368 1_556 S
C1831 H1855 0.949 . S
H1832 C1836 0.949 . S
C1833 C1834 1.349 . S
C1833 C1835 1.327 . S
C1833 H1856 0.950 . S
C1834 C1833 1.349 . S
C1834 C1846 1.349 . S
C1835 C1833 1.327 . S
C1835 C1851 1.429 . S
C1835 H1857 0.950 . S
C1836 H1832 0.949 . S
C1836 C1844 1.574 1_545 S
C1836 C1852 1.368 1_554 S
H1837 C1845 0.950 . S
H1838 C1843 0.950 1_556 S
H1839 C1844 0.949 . S
H1840 C1846 0.950 . S
H1841 C1847 0.950 1_554 S
H1842 C1848 0.949 . S
C1843 H1838 0.950 1_554 S
C1843 C1845 1.327 . S
C1843 C1849 1.429 . S
C1844 C1836 1.574 1_565 S
C1844 H1839 0.949 . S
C1844 C1850 1.368 . S
C1845 C1829 1.349 . S
C1845 H1837 0.950 . S
C1845 C1843 1.327 . S
C1846 C1834 1.349 . S
C1846 H1840 0.950 . S
C1846 C1847 1.327 . S
C1847 H1841 0.950 1_556 S
C1847 C1846 1.327 . S
C1847 C1851 1.429 . S
C1848 C1831 1.574 1_545 S
C1848 H1842 0.949 . S
C1848 C1852 1.368 . S
C1849 C1830 1.429 . S
C1849 C1843 1.429 . S
C1849 C1850 1.523 . S
C1850 C1831 1.368 1_554 S
C1850 C1844 1.368 . S
C1850 C1849 1.523 . S
C1851 C1835 1.429 . S
C1851 C1847 1.429 . S
C1851 C1852 1.523 . S
C1852 C1836 1.368 1_556 S
C1852 C1848 1.368 . S
C1852 C1851 1.523 . S
H1853 C1828 0.950 . S
H1854 C1830 0.950 . S
H1855 C1831 0.949 . S
H1856 C1833 0.950 . S
H1857 C1835 0.950 . S
C1858 C1859 1.349 . S
C1858 C1860 1.327 . S
C1858 H1883 0.950 . S
C1859 C1858 1.349 . S
C1859 C1875 1.349 . S
C1860 C1858 1.327 . S
C1860 C1879 1.429 . S
C1860 H1884 0.950 . S
C1861 C1878 1.574 . S
C1861 C1880 1.368 . S
C1861 H1885 0.949 . S
H1862 C1866 0.949 . S
C1863 C1864 1.349 . S
C1863 C1865 1.327 . S
C1863 H1886 0.950 . S
C1864 C1863 1.349 . S
C1864 C1876 1.349 . S
C1865 C1863 1.327 . S
C1865 C1881 1.429 . S
C1865 H1887 0.950 . S
C1866 H1862 0.949 . S
C1866 C1874 1.574 . S
C1866 C1882 1.368 . S
H1867 C1875 0.950 . S
H1868 C1873 0.950 . S
H1869 C1874 0.949 . S
H1870 C1876 0.950 . S
H1871 C1877 0.950 . S
H1872 C1878 0.949 . S
C1873 H1868 0.950 . S
C1873 C1875 1.327 . S
C1873 C1879 1.429 . S
C1874 C1866 1.574 . S
C1874 H1869 0.949 . S
C1874 C1880 1.368 . S
C1875 C1859 1.349 . S
C1875 H1867 0.950 . S
C1875 C1873 1.327 . S
C1876 C1864 1.349 . S
C1876 H1870 0.950 . S
C1876 C1877 1.327 . S
C1877 H1871 0.950 . S
C1877 C1876 1.327 . S
C1877 C1881 1.429 . S
C1878 C1861 1.574 . S
C1878 H1872 0.949 . S
C1878 C1882 1.368 . S
C1879 C1860 1.429 . S
C1879 C1873 1.429 . S
C1879 C1880 1.523 . S
C1880 C1861 1.368 . S
C1880 C1874 1.368 . S
C1880 C1879 1.523 . S
C1881 C1865 1.429 . S
C1881 C1877 1.429 . S
C1881 C1882 1.523 . S
C1882 C1866 1.368 . S
C1882 C1878 1.368 . S
C1882 C1881 1.523 . S
H1883 C1858 0.950 . S
H1884 C1860 0.950 . S
H1885 C1861 0.949 . S
H1886 C1863 0.950 . S
H1887 C1865 0.950 . S
C1888 C1889 1.349 . S
C1888 C1890 1.327 . S
C1888 H1913 0.950 . S
C1889 C1888 1.349 . S
C1889 C1905 1.349 . S
C1890 C1888 1.327 . S
C1890 C1909 1.429 . S
C1890 H1914 0.950 . S
C1891 C1908 1.574 . S
C1891 C1910 1.368 . S
C1891 H1915 0.949 . S
H1892 C1896 0.949 . S
C1893 C1894 1.349 . S
C1893 C1895 1.327 . S
C1893 H1916 0.950 . S
C1894 C1893 1.349 . S
C1894 C1906 1.349 . S
C1895 C1893 1.327 . S
C1895 C1911 1.429 . S
C1895 H1917 0.950 . S
C1896 H1892 0.949 . S
C1896 C1904 1.574 . S
C1896 C1912 1.368 . S
H1897 C1905 0.950 . S
H1898 C1903 0.950 . S
H1899 C1904 0.949 . S
H1900 C1906 0.950 . S
H1901 C1907 0.950 . S
H1902 C1908 0.949 . S
C1903 H1898 0.950 . S
C1903 C1905 1.327 . S
C1903 C1909 1.429 . S
C1904 C1896 1.574 . S
C1904 H1899 0.949 . S
C1904 C1910 1.368 . S
C1905 C1889 1.349 . S
C1905 H1897 0.950 . S
C1905 C1903 1.327 . S
C1906 C1894 1.349 . S
C1906 H1900 0.950 . S
C1906 C1907 1.327 . S
C1907 H1901 0.950 . S
C1907 C1906 1.327 . S
C1907 C1911 1.429 . S
C1908 C1891 1.574 . S
C1908 H1902 0.949 . S
C1908 C1912 1.368 . S
C1909 C1890 1.429 . S
C1909 C1903 1.429 . S
C1909 C1910 1.523 . S
C1910 C1891 1.368 . S
C1910 C1904 1.368 . S
C1910 C1909 1.523 . S
C1911 C1895 1.429 . S
C1911 C1907 1.429 . S
C1911 C1912 1.523 . S
C1912 C1896 1.368 . S
C1912 C1908 1.368 . S
C1912 C1911 1.523 . S
H1913 C1888 0.950 . S
H1914 C1890 0.950 . S
H1915 C1891 0.949 . S
H1916 C1893 0.950 . S
H1917 C1895 0.950 . S
C1918 C1919 1.349 . S
C1918 C1920 1.327 . S
C1918 H1943 0.950 . S
C1919 C1918 1.349 . S
C1919 C1935 1.349 . S
C1920 C1918 1.327 . S
C1920 C1939 1.429 . S
C1920 H1944 0.950 . S
C1921 C1938 1.574 . S
C1921 C1940 1.368 . S
C1921 H1945 0.949 . S
H1922 C1926 0.949 . S
C1923 C1924 1.349 . S
C1923 C1925 1.327 . S
C1923 H1946 0.950 . S
C1924 C1923 1.349 . S
C1924 C1936 1.349 . S
C1925 C1923 1.327 . S
C1925 C1941 1.429 . S
C1925 H1947 0.950 . S
C1926 H1922 0.949 . S
C1926 C1934 1.574 . S
C1926 C1942 1.368 . S
H1927 C1935 0.950 . S
H1928 C1933 0.950 . S
H1929 C1934 0.949 . S
H1930 C1936 0.950 . S
H1931 C1937 0.950 . S
H1932 C1938 0.949 . S
C1933 H1928 0.950 . S
C1933 C1935 1.327 . S
C1933 C1939 1.429 . S
C1934 C1926 1.574 . S
C1934 H1929 0.949 . S
C1934 C1940 1.368 . S
C1935 C1919 1.349 . S
C1935 H1927 0.950 . S
C1935 C1933 1.327 . S
C1936 C1924 1.349 . S
C1936 H1930 0.950 . S
C1936 C1937 1.327 . S
C1937 H1931 0.950 . S
C1937 C1936 1.327 . S
C1937 C1941 1.429 . S
C1938 C1921 1.574 . S
C1938 H1932 0.949 . S
C1938 C1942 1.368 . S
C1939 C1920 1.429 . S
C1939 C1933 1.429 . S
C1939 C1940 1.523 . S
C1940 C1921 1.368 . S
C1940 C1934 1.368 . S
C1940 C1939 1.523 . S
C1941 C1925 1.429 . S
C1941 C1937 1.429 . S
C1941 C1942 1.523 . S
C1942 C1926 1.368 . S
C1942 C1938 1.368 . S
C1942 C1941 1.523 . S
H1943 C1918 0.950 . S
H1944 C1920 0.950 . S
H1945 C1921 0.949 . S
H1946 C1923 0.950 . S
H1947 C1925 0.950 . S
C1948 C1949 1.349 . S
C1948 C1950 1.327 . S
C1948 H1973 0.950 . S
C1949 C1948 1.349 . S
C1949 C1965 1.349 . S
C1950 C1948 1.327 . S
C1950 C1969 1.429 . S
C1950 H1974 0.950 . S
C1951 C1968 1.574 . S
C1951 C1970 1.368 . S
C1951 H1975 0.949 . S
H1952 C1956 0.949 . S
C1953 C1954 1.349 . S
C1953 C1955 1.327 . S
C1953 H1976 0.950 . S
C1954 C1953 1.349 . S
C1954 C1966 1.349 . S
C1955 C1953 1.327 . S
C1955 C1971 1.429 . S
C1955 H1977 0.950 . S
C1956 H1952 0.949 . S
C1956 C1964 1.574 . S
C1956 C1972 1.368 . S
H1957 C1965 0.950 . S
H1958 C1963 0.950 . S
H1959 C1964 0.949 . S
H1960 C1966 0.950 . S
H1961 C1967 0.950 . S
H1962 C1968 0.949 . S
C1963 H1958 0.950 . S
C1963 C1965 1.327 . S
C1963 C1969 1.429 . S
C1964 C1956 1.574 . S
C1964 H1959 0.949 . S
C1964 C1970 1.368 . S
C1965 C1949 1.349 . S
C1965 H1957 0.950 . S
C1965 C1963 1.327 . S
C1966 C1954 1.349 . S
C1966 H1960 0.950 . S
C1966 C1967 1.327 . S
C1967 H1961 0.950 . S
C1967 C1966 1.327 . S
C1967 C1971 1.429 . S
C1968 C1951 1.574 . S
C1968 H1962 0.949 . S
C1968 C1972 1.368 . S
C1969 C1950 1.429 . S
C1969 C1963 1.429 . S
C1969 C1970 1.523 . S
C1970 C1951 1.368 . S
C1970 C1964 1.368 . S
C1970 C1969 1.523 . S
C1971 C1955 1.429 . S
C1971 C1967 1.429 . S
C1971 C1972 1.523 . S
C1972 C1956 1.368 . S
C1972 C1968 1.368 . S
C1972 C1971 1.523 . S
H1973 C1948 0.950 . S
H1974 C1950 0.950 . S
H1975 C1951 0.949 . S
H1976 C1953 0.950 . S
H1977 C1955 0.950 . S
C1978 C1979 1.349 . S
C1978 C1980 1.327 . S
C1978 H2003 0.950 . S
C1979 C1978 1.349 . S
C1979 C1995 1.349 . S
C1980 C1978 1.327 . S
C1980 C1999 1.429 . S
C1980 H2004 0.950 . S
C1981 C1998 1.574 1_655 S
C1981 C2000 1.368 . S
C1981 H2005 0.949 . S
H1982 C1986 0.949 . S
C1983 C1984 1.349 . S
C1983 C1985 1.327 . S
C1983 H2006 0.950 . S
C1984 C1983 1.349 . S
C1984 C1996 1.349 . S
C1985 C1983 1.327 . S
C1985 C2001 1.429 . S
C1985 H2007 0.950 . S
C1986 H1982 0.949 . S
C1986 C1994 1.574 1_455 S
C1986 C2002 1.368 . S
H1987 C1995 0.950 . S
H1988 C1993 0.950 . S
H1989 C1994 0.949 . S
H1990 C1996 0.950 . S
H1991 C1997 0.950 . S
H1992 C1998 0.949 . S
C1993 H1988 0.950 . S
C1993 C1995 1.327 . S
C1993 C1999 1.429 . S
C1994 C1986 1.574 1_655 S
C1994 H1989 0.949 . S
C1994 C2000 1.368 . S
C1995 C1979 1.349 . S
C1995 H1987 0.950 . S
C1995 C1993 1.327 . S
C1996 C1984 1.349 . S
C1996 H1990 0.950 . S
C1996 C1997 1.327 . S
C1997 H1991 0.950 . S
C1997 C1996 1.327 . S
C1997 C2001 1.429 . S
C1998 C1981 1.574 1_455 S
C1998 H1992 0.949 . S
C1998 C2002 1.368 . S
C1999 C1980 1.429 . S
C1999 C1993 1.429 . S
C1999 C2000 1.523 . S
C2000 C1981 1.368 . S
C2000 C1994 1.368 . S
C2000 C1999 1.523 . S
C2001 C1985 1.429 . S
C2001 C1997 1.429 . S
C2001 C2002 1.523 . S
C2002 C1986 1.368 . S
C2002 C1998 1.368 . S
C2002 C2001 1.523 . S
H2003 C1978 0.950 . S
H2004 C1980 0.950 . S
H2005 C1981 0.949 . S
H2006 C1983 0.950 . S
H2007 C1985 0.950 . S
C2008 C2009 1.349 . S
C2008 C2010 1.327 . S
C2008 H2033 0.950 . S
C2009 C2008 1.349 . S
C2009 C2025 1.349 . S
C2010 C2008 1.327 . S
C2010 C2029 1.429 . S
C2010 H2034 0.950 . S
C2011 C2028 1.574 . S
C2011 C2030 1.368 . S
C2011 H2035 0.949 . S
H2012 C2016 0.949 . S
C2013 C2014 1.349 . S
C2013 C2015 1.327 . S
C2013 H2036 0.950 . S
C2014 C2013 1.349 . S
C2014 C2026 1.349 . S
C2015 C2013 1.327 . S
C2015 C2031 1.429 . S
C2015 H2037 0.950 . S
C2016 H2012 0.949 . S
C2016 C2024 1.574 . S
C2016 C2032 1.368 . S
H2017 C2025 0.950 . S
H2018 C2023 0.950 . S
H2019 C2024 0.949 . S
H2020 C2026 0.950 . S
H2021 C2027 0.950 . S
H2022 C2028 0.949 . S
C2023 H2018 0.950 . S
C2023 C2025 1.327 . S
C2023 C2029 1.429 . S
C2024 C2016 1.574 . S
C2024 H2019 0.949 . S
C2024 C2030 1.368 . S
C2025 C2009 1.349 . S
C2025 H2017 0.950 . S
C2025 C2023 1.327 . S
C2026 C2014 1.349 . S
C2026 H2020 0.950 . S
C2026 C2027 1.327 . S
C2027 H2021 0.950 . S
C2027 C2026 1.327 . S
C2027 C2031 1.429 . S
C2028 C2011 1.574 . S
C2028 H2022 0.949 . S
C2028 C2032 1.368 . S
C2029 C2010 1.429 . S
C2029 C2023 1.429 . S
C2029 C2030 1.523 . S
C2030 C2011 1.368 . S
C2030 C2024 1.368 . S
C2030 C2029 1.523 . S
C2031 C2015 1.429 . S
C2031 C2027 1.429 . S
C2031 C2032 1.523 . S
C2032 C2016 1.368 . S
C2032 C2028 1.368 . S
C2032 C2031 1.523 . S
H2033 C2008 0.950 . S
H2034 C2010 0.950 . S
H2035 C2011 0.949 . S
H2036 C2013 0.950 . S
H2037 C2015 0.950 . S
C2038 C2039 1.349 . S
C2038 C2040 1.327 . S
C2038 H2063 0.950 . S
C2039 C2038 1.349 . S
C2039 C2055 1.349 . S
C2040 C2038 1.327 . S
C2040 C2059 1.429 . S
C2040 H2064 0.950 . S
C2041 C2058 1.574 1_655 S
C2041 C2060 1.368 . S
C2041 H2065 0.949 . S
H2042 C2046 0.949 . S
C2043 C2044 1.349 . S
C2043 C2045 1.327 . S
C2043 H2066 0.950 . S
C2044 C2043 1.349 . S
C2044 C2056 1.349 . S
C2045 C2043 1.327 . S
C2045 C2061 1.429 . S
C2045 H2067 0.950 . S
C2046 H2042 0.949 . S
C2046 C2054 1.574 1_455 S
C2046 C2062 1.368 . S
H2047 C2055 0.950 . S
H2048 C2053 0.950 . S
H2049 C2054 0.949 . S
H2050 C2056 0.950 . S
H2051 C2057 0.950 . S
H2052 C2058 0.949 . S
C2053 H2048 0.950 . S
C2053 C2055 1.327 . S
C2053 C2059 1.429 . S
C2054 C2046 1.574 1_655 S
C2054 H2049 0.949 . S
C2054 C2060 1.368 . S
C2055 C2039 1.349 . S
C2055 H2047 0.950 . S
C2055 C2053 1.327 . S
C2056 C2044 1.349 . S
C2056 H2050 0.950 . S
C2056 C2057 1.327 . S
C2057 H2051 0.950 . S
C2057 C2056 1.327 . S
C2057 C2061 1.429 . S
C2058 C2041 1.574 1_455 S
C2058 H2052 0.949 . S
C2058 C2062 1.368 . S
C2059 C2040 1.429 . S
C2059 C2053 1.429 . S
C2059 C2060 1.523 . S
C2060 C2041 1.368 . S
C2060 C2054 1.368 . S
C2060 C2059 1.523 . S
C2061 C2045 1.429 . S
C2061 C2057 1.429 . S
C2061 C2062 1.523 . S
C2062 C2046 1.368 . S
C2062 C2058 1.368 . S
C2062 C2061 1.523 . S
H2063 C2038 0.950 . S
H2064 C2040 0.950 . S
H2065 C2041 0.949 . S
H2066 C2043 0.950 . S
H2067 C2045 0.950 . S
C2068 C2069 1.349 . S
C2068 C2070 1.327 . S
C2068 H2093 0.950 . S
C2069 C2068 1.349 . S
C2069 C2085 1.349 . S
C2070 C2068 1.327 . S
C2070 C2089 1.429 . S
C2070 H2094 0.950 . S
C2071 C2088 1.574 . S
C2071 C2090 1.368 . S
C2071 H2095 0.949 . S
H2072 C2076 0.949 . S
C2073 C2074 1.349 . S
C2073 C2075 1.327 . S
C2073 H2096 0.950 . S
C2074 C2073 1.349 . S
C2074 C2086 1.349 . S
C2075 C2073 1.327 . S
C2075 C2091 1.429 . S
C2075 H2097 0.950 . S
C2076 H2072 0.949 . S
C2076 C2084 1.574 . S
C2076 C2092 1.368 . S
H2077 C2085 0.950 . S
H2078 C2083 0.950 . S
H2079 C2084 0.949 . S
H2080 C2086 0.950 . S
H2081 C2087 0.950 . S
H2082 C2088 0.949 . S
C2083 H2078 0.950 . S
C2083 C2085 1.327 . S
C2083 C2089 1.429 . S
C2084 C2076 1.574 . S
C2084 H2079 0.949 . S
C2084 C2090 1.368 . S
C2085 C2069 1.349 . S
C2085 H2077 0.950 . S
C2085 C2083 1.327 . S
C2086 C2074 1.349 . S
C2086 H2080 0.950 . S
C2086 C2087 1.327 . S
C2087 H2081 0.950 . S
C2087 C2086 1.327 . S
C2087 C2091 1.429 . S
C2088 C2071 1.574 . S
C2088 H2082 0.949 . S
C2088 C2092 1.368 . S
C2089 C2070 1.429 . S
C2089 C2083 1.429 . S
C2089 C2090 1.523 . S
C2090 C2071 1.368 . S
C2090 C2084 1.368 . S
C2090 C2089 1.523 . S
C2091 C2075 1.429 . S
C2091 C2087 1.429 . S
C2091 C2092 1.523 . S
C2092 C2076 1.368 . S
C2092 C2088 1.368 . S
C2092 C2091 1.523 . S
H2093 C2068 0.950 . S
H2094 C2070 0.950 . S
H2095 C2071 0.949 . S
H2096 C2073 0.950 . S
H2097 C2075 0.950 . S
C2098 C2099 1.349 . S
C2098 C2100 1.327 . S
C2098 H2123 0.950 . S
C2099 C2098 1.349 . S
C2099 C2115 1.349 . S
C2100 C2098 1.327 . S
C2100 C2119 1.429 . S
C2100 H2124 0.950 . S
C2101 C2118 1.574 . S
C2101 C2120 1.368 . S
C2101 H2125 0.949 . S
H2102 C2106 0.949 . S
C2103 C2104 1.349 . S
C2103 C2105 1.327 . S
C2103 H2126 0.950 . S
C2104 C2103 1.349 . S
C2104 C2116 1.349 . S
C2105 C2103 1.327 . S
C2105 C2121 1.429 . S
C2105 H2127 0.950 . S
C2106 H2102 0.949 . S
C2106 C2114 1.574 . S
C2106 C2122 1.368 . S
H2107 C2115 0.950 . S
H2108 C2113 0.950 . S
H2109 C2114 0.949 . S
H2110 C2116 0.950 . S
H2111 C2117 0.950 . S
H2112 C2118 0.949 . S
C2113 H2108 0.950 . S
C2113 C2115 1.327 . S
C2113 C2119 1.429 . S
C2114 C2106 1.574 . S
C2114 H2109 0.949 . S
C2114 C2120 1.368 . S
C2115 C2099 1.349 . S
C2115 H2107 0.950 . S
C2115 C2113 1.327 . S
C2116 C2104 1.349 . S
C2116 H2110 0.950 . S
C2116 C2117 1.327 . S
C2117 H2111 0.950 . S
C2117 C2116 1.327 . S
C2117 C2121 1.429 . S
C2118 C2101 1.574 . S
C2118 H2112 0.949 . S
C2118 C2122 1.368 . S
C2119 C2100 1.429 . S
C2119 C2113 1.429 . S
C2119 C2120 1.523 . S
C2120 C2101 1.368 . S
C2120 C2114 1.368 . S
C2120 C2119 1.523 . S
C2121 C2105 1.429 . S
C2121 C2117 1.429 . S
C2121 C2122 1.523 . S
C2122 C2106 1.368 . S
C2122 C2118 1.368 . S
C2122 C2121 1.523 . S
H2123 C2098 0.950 . S
H2124 C2100 0.950 . S
H2125 C2101 0.949 . S
H2126 C2103 0.950 . S
H2127 C2105 0.950 . S
C2128 C2129 1.349 . S
C2128 C2130 1.327 . S
C2128 H2153 0.950 . S
C2129 C2128 1.349 . S
C2129 C2145 1.349 . S
C2130 C2128 1.327 . S
C2130 C2149 1.429 . S
C2130 H2154 0.950 . S
C2131 C2148 1.574 . S
C2131 C2150 1.368 . S
C2131 H2155 0.949 . S
H2132 C2136 0.949 . S
C2133 C2134 1.349 . S
C2133 C2135 1.327 . S
C2133 H2156 0.950 . S
C2134 C2133 1.349 . S
C2134 C2146 1.349 . S
C2135 C2133 1.327 . S
C2135 C2151 1.429 . S
C2135 H2157 0.950 . S
C2136 H2132 0.949 . S
C2136 C2144 1.574 . S
C2136 C2152 1.368 . S
H2137 C2145 0.950 . S
H2138 C2143 0.950 . S
H2139 C2144 0.949 . S
H2140 C2146 0.950 . S
H2141 C2147 0.950 . S
H2142 C2148 0.949 . S
C2143 H2138 0.950 . S
C2143 C2145 1.327 . S
C2143 C2149 1.429 . S
C2144 C2136 1.574 . S
C2144 H2139 0.949 . S
C2144 C2150 1.368 . S
C2145 C2129 1.349 . S
C2145 H2137 0.950 . S
C2145 C2143 1.327 . S
C2146 C2134 1.349 . S
C2146 H2140 0.950 . S
C2146 C2147 1.327 . S
C2147 H2141 0.950 . S
C2147 C2146 1.327 . S
C2147 C2151 1.429 . S
C2148 C2131 1.574 . S
C2148 H2142 0.949 . S
C2148 C2152 1.368 . S
C2149 C2130 1.429 . S
C2149 C2143 1.429 . S
C2149 C2150 1.523 . S
C2150 C2131 1.368 . S
C2150 C2144 1.368 . S
C2150 C2149 1.523 . S
C2151 C2135 1.429 . S
C2151 C2147 1.429 . S
C2151 C2152 1.523 . S
C2152 C2136 1.368 . S
C2152 C2148 1.368 . S
C2152 C2151 1.523 . S
H2153 C2128 0.950 . S
H2154 C2130 0.950 . S
H2155 C2131 0.949 . S
H2156 C2133 0.950 . S
H2157 C2135 0.950 . S
C2158 C2159 1.349 . S
C2158 C2160 1.327 . S
C2158 H2183 0.950 . S
C2159 C2158 1.349 . S
C2159 C2175 1.349 . S
C2160 C2158 1.327 . S
C2160 C2179 1.429 . S
C2160 H2184 0.950 . S
C2161 C2178 1.574 . S
C2161 C2180 1.368 . S
C2161 H2185 0.949 . S
H2162 C2166 0.949 . S
C2163 C2164 1.349 . S
C2163 C2165 1.327 . S
C2163 H2186 0.950 . S
C2164 C2163 1.349 . S
C2164 C2176 1.349 . S
C2165 C2163 1.327 . S
C2165 C2181 1.429 . S
C2165 H2187 0.950 . S
C2166 H2162 0.949 . S
C2166 C2174 1.574 . S
C2166 C2182 1.368 . S
H2167 C2175 0.950 . S
H2168 C2173 0.950 . S
H2169 C2174 0.949 . S
H2170 C2176 0.950 . S
H2171 C2177 0.950 . S
H2172 C2178 0.949 . S
C2173 H2168 0.950 . S
C2173 C2175 1.327 . S
C2173 C2179 1.429 . S
C2174 C2166 1.574 . S
C2174 H2169 0.949 . S
C2174 C2180 1.368 . S
C2175 C2159 1.349 . S
C2175 H2167 0.950 . S
C2175 C2173 1.327 . S
C2176 C2164 1.349 . S
C2176 H2170 0.950 . S
C2176 C2177 1.327 . S
C2177 H2171 0.950 . S
C2177 C2176 1.327 . S
C2177 C2181 1.429 . S
C2178 C2161 1.574 . S
C2178 H2172 0.949 . S
C2178 C2182 1.368 . S
C2179 C2160 1.429 . S
C2179 C2173 1.429 . S
C2179 C2180 1.523 . S
C2180 C2161 1.368 . S
C2180 C2174 1.368 . S
C2180 C2179 1.523 . S
C2181 C2165 1.429 . S
C2181 C2177 1.429 . S
C2181 C2182 1.523 . S
C2182 C2166 1.368 . S
C2182 C2178 1.368 . S
C2182 C2181 1.523 . S
H2183 C2158 0.950 . S
H2184 C2160 0.950 . S
H2185 C2161 0.949 . S
H2186 C2163 0.950 . S
H2187 C2165 0.950 . S
C2188 C2189 1.349 . S
C2188 C2190 1.327 . S
C2188 H2213 0.950 . S
C2189 C2188 1.349 . S
C2189 C2205 1.349 . S
C2190 C2188 1.327 . S
C2190 C2209 1.429 . S
C2190 H2214 0.950 . S
C2191 C2208 1.574 . S
C2191 C2210 1.368 . S
C2191 H2215 0.949 . S
H2192 C2196 0.949 . S
C2193 C2194 1.349 . S
C2193 C2195 1.327 . S
C2193 H2216 0.950 . S
C2194 C2193 1.349 . S
C2194 C2206 1.349 . S
C2195 C2193 1.327 . S
C2195 C2211 1.429 . S
C2195 H2217 0.950 . S
C2196 H2192 0.949 . S
C2196 C2204 1.574 . S
C2196 C2212 1.368 . S
H2197 C2205 0.950 . S
H2198 C2203 0.950 . S
H2199 C2204 0.949 . S
H2200 C2206 0.950 . S
H2201 C2207 0.950 . S
H2202 C2208 0.949 . S
C2203 H2198 0.950 . S
C2203 C2205 1.327 . S
C2203 C2209 1.429 . S
C2204 C2196 1.574 . S
C2204 H2199 0.949 . S
C2204 C2210 1.368 . S
C2205 C2189 1.349 . S
C2205 H2197 0.950 . S
C2205 C2203 1.327 . S
C2206 C2194 1.349 . S
C2206 H2200 0.950 . S
C2206 C2207 1.327 . S
C2207 H2201 0.950 . S
C2207 C2206 1.327 . S
C2207 C2211 1.429 . S
C2208 C2191 1.574 . S
C2208 H2202 0.949 . S
C2208 C2212 1.368 . S
C2209 C2190 1.429 . S
C2209 C2203 1.429 . S
C2209 C2210 1.523 . S
C2210 C2191 1.368 . S
C2210 C2204 1.368 . S
C2210 C2209 1.523 . S
C2211 C2195 1.429 . S
C2211 C2207 1.429 . S
C2211 C2212 1.523 . S
C2212 C2196 1.368 . S
C2212 C2208 1.368 . S
C2212 C2211 1.523 . S
H2213 C2188 0.950 . S
H2214 C2190 0.950 . S
H2215 C2191 0.949 . S
H2216 C2193 0.950 . S
H2217 C2195 0.950 . S
C2218 C2219 1.349 . S
C2218 C2220 1.327 . S
C2218 H2243 0.950 . S
C2219 C2218 1.349 . S
C2219 C2235 1.349 . S
C2220 C2218 1.327 . S
C2220 C2239 1.429 . S
C2220 H2244 0.950 . S
C2221 C2238 1.574 . S
C2221 C2240 1.368 . S
C2221 H2245 0.949 . S
H2222 C2226 0.949 . S
C2223 C2224 1.349 . S
C2223 C2225 1.327 . S
C2223 H2246 0.950 . S
C2224 C2223 1.349 . S
C2224 C2236 1.349 . S
C2225 C2223 1.327 . S
C2225 C2241 1.429 . S
C2225 H2247 0.950 . S
C2226 H2222 0.949 . S
C2226 C2234 1.574 . S
C2226 C2242 1.368 . S
H2227 C2235 0.950 . S
H2228 C2233 0.950 . S
H2229 C2234 0.949 . S
H2230 C2236 0.950 . S
H2231 C2237 0.950 . S
H2232 C2238 0.949 . S
C2233 H2228 0.950 . S
C2233 C2235 1.327 . S
C2233 C2239 1.429 . S
C2234 C2226 1.574 . S
C2234 H2229 0.949 . S
C2234 C2240 1.368 . S
C2235 C2219 1.349 . S
C2235 H2227 0.950 . S
C2235 C2233 1.327 . S
C2236 C2224 1.349 . S
C2236 H2230 0.950 . S
C2236 C2237 1.327 . S
C2237 H2231 0.950 . S
C2237 C2236 1.327 . S
C2237 C2241 1.429 . S
C2238 C2221 1.574 . S
C2238 H2232 0.949 . S
C2238 C2242 1.368 . S
C2239 C2220 1.429 . S
C2239 C2233 1.429 . S
C2239 C2240 1.523 . S
C2240 C2221 1.368 . S
C2240 C2234 1.368 . S
C2240 C2239 1.523 . S
C2241 C2225 1.429 . S
C2241 C2237 1.429 . S
C2241 C2242 1.523 . S
C2242 C2226 1.368 . S
C2242 C2238 1.368 . S
C2242 C2241 1.523 . S
H2243 C2218 0.950 . S
H2244 C2220 0.950 . S
H2245 C2221 0.949 . S
H2246 C2223 0.950 . S
H2247 C2225 0.950 . S
C2248 C2249 1.349 . S
C2248 C2250 1.327 . S
C2248 H2273 0.950 . S
C2249 C2248 1.349 . S
C2249 C2265 1.349 . S
C2250 C2248 1.327 . S
C2250 C2269 1.429 . S
C2250 H2274 0.950 . S
C2251 C2268 1.574 1_655 S
C2251 C2270 1.368 . S
C2251 H2275 0.949 . S
H2252 C2256 0.949 . S
C2253 C2254 1.349 . S
C2253 C2255 1.327 . S
C2253 H2276 0.950 . S
C2254 C2253 1.349 . S
C2254 C2266 1.349 . S
C2255 C2253 1.327 . S
C2255 C2271 1.429 . S
C2255 H2277 0.950 . S
C2256 H2252 0.949 . S
C2256 C2264 1.574 1_455 S
C2256 C2272 1.368 . S
H2257 C2265 0.950 . S
H2258 C2263 0.950 . S
H2259 C2264 0.949 . S
H2260 C2266 0.950 . S
H2261 C2267 0.950 . S
H2262 C2268 0.949 . S
C2263 H2258 0.950 . S
C2263 C2265 1.327 . S
C2263 C2269 1.429 . S
C2264 C2256 1.574 1_655 S
C2264 H2259 0.949 . S
C2264 C2270 1.368 . S
C2265 C2249 1.349 . S
C2265 H2257 0.950 . S
C2265 C2263 1.327 . S
C2266 C2254 1.349 . S
C2266 H2260 0.950 . S
C2266 C2267 1.327 . S
C2267 H2261 0.950 . S
C2267 C2266 1.327 . S
C2267 C2271 1.429 . S
C2268 C2251 1.574 1_455 S
C2268 H2262 0.949 . S
C2268 C2272 1.368 . S
C2269 C2250 1.429 . S
C2269 C2263 1.429 . S
C2269 C2270 1.523 . S
C2270 C2251 1.368 . S
C2270 C2264 1.368 . S
C2270 C2269 1.523 . S
C2271 C2255 1.429 . S
C2271 C2267 1.429 . S
C2271 C2272 1.523 . S
C2272 C2256 1.368 . S
C2272 C2268 1.368 . S
C2272 C2271 1.523 . S
H2273 C2248 0.950 . S
H2274 C2250 0.950 . S
H2275 C2251 0.949 . S
H2276 C2253 0.950 . S
H2277 C2255 0.950 . S
C2278 C2279 1.349 . S
C2278 C2280 1.327 . S
C2278 H2303 0.950 . S
C2279 C2278 1.349 . S
C2279 C2295 1.349 . S
C2280 C2278 1.327 . S
C2280 C2299 1.429 . S
C2280 H2304 0.950 . S
C2281 C2298 1.574 . S
C2281 C2300 1.368 . S
C2281 H2305 0.949 . S
H2282 C2286 0.949 . S
C2283 C2284 1.349 . S
C2283 C2285 1.327 . S
C2283 H2306 0.950 . S
C2284 C2283 1.349 . S
C2284 C2296 1.349 . S
C2285 C2283 1.327 . S
C2285 C2301 1.429 . S
C2285 H2307 0.950 . S
C2286 H2282 0.949 . S
C2286 C2294 1.574 . S
C2286 C2302 1.368 . S
H2287 C2295 0.950 . S
H2288 C2293 0.950 . S
H2289 C2294 0.949 . S
H2290 C2296 0.950 . S
H2291 C2297 0.950 . S
H2292 C2298 0.949 . S
C2293 H2288 0.950 . S
C2293 C2295 1.327 . S
C2293 C2299 1.429 . S
C2294 C2286 1.574 . S
C2294 H2289 0.949 . S
C2294 C2300 1.368 . S
C2295 C2279 1.349 . S
C2295 H2287 0.950 . S
C2295 C2293 1.327 . S
C2296 C2284 1.349 . S
C2296 H2290 0.950 . S
C2296 C2297 1.327 . S
C2297 H2291 0.950 . S
C2297 C2296 1.327 . S
C2297 C2301 1.429 . S
C2298 C2281 1.574 . S
C2298 H2292 0.949 . S
C2298 C2302 1.368 . S
C2299 C2280 1.429 . S
C2299 C2293 1.429 . S
C2299 C2300 1.523 . S
C2300 C2281 1.368 . S
C2300 C2294 1.368 . S
C2300 C2299 1.523 . S
C2301 C2285 1.429 . S
C2301 C2297 1.429 . S
C2301 C2302 1.523 . S
C2302 C2286 1.368 . S
C2302 C2298 1.368 . S
C2302 C2301 1.523 . S
H2303 C2278 0.950 . S
H2304 C2280 0.950 . S
H2305 C2281 0.949 . S
H2306 C2283 0.950 . S
H2307 C2285 0.950 . S
C2308 C2309 1.349 . S
C2308 C2310 1.327 . S
C2308 H2333 0.950 . S
C2309 C2308 1.349 . S
C2309 C2325 1.349 . S
C2310 C2308 1.327 . S
C2310 C2329 1.429 . S
C2310 H2334 0.950 . S
C2311 C2328 1.574 . S
C2311 C2330 1.368 . S
C2311 H2335 0.949 . S
H2312 C2316 0.949 . S
C2313 C2314 1.349 . S
C2313 C2315 1.327 . S
C2313 H2336 0.950 . S
C2314 C2313 1.349 . S
C2314 C2326 1.349 . S
C2315 C2313 1.327 . S
C2315 C2331 1.429 . S
C2315 H2337 0.950 . S
C2316 H2312 0.949 . S
C2316 C2324 1.574 . S
C2316 C2332 1.368 . S
H2317 C2325 0.950 . S
H2318 C2323 0.950 . S
H2319 C2324 0.949 . S
H2320 C2326 0.950 . S
H2321 C2327 0.950 . S
H2322 C2328 0.949 . S
C2323 H2318 0.950 . S
C2323 C2325 1.327 . S
C2323 C2329 1.429 . S
C2324 C2316 1.574 . S
C2324 H2319 0.949 . S
C2324 C2330 1.368 . S
C2325 C2309 1.349 . S
C2325 H2317 0.950 . S
C2325 C2323 1.327 . S
C2326 C2314 1.349 . S
C2326 H2320 0.950 . S
C2326 C2327 1.327 . S
C2327 H2321 0.950 . S
C2327 C2326 1.327 . S
C2327 C2331 1.429 . S
C2328 C2311 1.574 . S
C2328 H2322 0.949 . S
C2328 C2332 1.368 . S
C2329 C2310 1.429 . S
C2329 C2323 1.429 . S
C2329 C2330 1.523 . S
C2330 C2311 1.368 . S
C2330 C2324 1.368 . S
C2330 C2329 1.523 . S
C2331 C2315 1.429 . S
C2331 C2327 1.429 . S
C2331 C2332 1.523 . S
C2332 C2316 1.368 . S
C2332 C2328 1.368 . S
C2332 C2331 1.523 . S
H2333 C2308 0.950 . S
H2334 C2310 0.950 . S
H2335 C2311 0.949 . S
H2336 C2313 0.950 . S
H2337 C2315 0.950 . S
C2338 C2339 1.349 . S
C2338 C2340 1.327 . S
C2338 H2363 0.950 . S
C2339 C2338 1.349 . S
C2339 C2355 1.349 . S
C2340 C2338 1.327 . S
C2340 C2359 1.429 . S
C2340 H2364 0.950 . S
C2341 C2358 1.574 1_655 S
C2341 C2360 1.368 . S
C2341 H2365 0.949 . S
H2342 C2346 0.949 . S
C2343 C2344 1.349 . S
C2343 C2345 1.327 . S
C2343 H2366 0.950 . S
C2344 C2343 1.349 . S
C2344 C2356 1.349 . S
C2345 C2343 1.327 . S
C2345 C2361 1.429 . S
C2345 H2367 0.950 . S
C2346 H2342 0.949 . S
C2346 C2354 1.574 1_455 S
C2346 C2362 1.368 . S
H2347 C2355 0.950 . S
H2348 C2353 0.950 . S
H2349 C2354 0.949 . S
H2350 C2356 0.950 . S
H2351 C2357 0.950 . S
H2352 C2358 0.949 . S
C2353 H2348 0.950 . S
C2353 C2355 1.327 . S
C2353 C2359 1.429 . S
C2354 C2346 1.574 1_655 S
C2354 H2349 0.949 . S
C2354 C2360 1.368 . S
C2355 C2339 1.349 . S
C2355 H2347 0.950 . S
C2355 C2353 1.327 . S
C2356 C2344 1.349 . S
C2356 H2350 0.950 . S
C2356 C2357 1.327 . S
C2357 H2351 0.950 . S
C2357 C2356 1.327 . S
C2357 C2361 1.429 . S
C2358 C2341 1.574 1_455 S
C2358 H2352 0.949 . S
C2358 C2362 1.368 . S
C2359 C2340 1.429 . S
C2359 C2353 1.429 . S
C2359 C2360 1.523 . S
C2360 C2341 1.368 . S
C2360 C2354 1.368 . S
C2360 C2359 1.523 . S
C2361 C2345 1.429 . S
C2361 C2357 1.429 . S
C2361 C2362 1.523 . S
C2362 C2346 1.368 . S
C2362 C2358 1.368 . S
C2362 C2361 1.523 . S
H2363 C2338 0.950 . S
H2364 C2340 0.950 . S
H2365 C2341 0.949 . S
H2366 C2343 0.950 . S
H2367 C2345 0.950 . S
C449 C328 1.693 . S
C454 C7 1.693 . S
C479 C287 1.693 . S
C484 C20 1.693 . S
C509 C300 1.693 . S
C514 C35 1.693 . S
C539 C315 1.693 . S
C544 C48 1.693 . S
C569 C63 1.693 . S
C574 C244 1.693 . S
C599 C259 1.693 . S
C604 C76 1.693 . S
C629 C91 1.693 . S
C634 C272 1.693 . S
C659 C104 1.693 . S
C664 C231 1.693 . S
C689 C441 1.693 . S
C694 C119 1.693 . S
C719 C133 1.693 . S
C724 C399 1.693 . S
C749 C147 1.693 . S
C754 C413 1.693 . S
C779 C161 1.693 . S
C784 C427 1.693 . S
C809 C175 1.693 . S
C814 C357 1.693 . S
C839 C189 1.693 . S
C844 C371 1.693 . S
C869 C203 1.693 . S
C874 C385 1.693 . S
C899 C217 1.693 . S
C904 C343 1.693 . S
C929 C8 1.155 . S
C934 C176 1.155 . S
C959 C414 1.155 . S
C964 C23 1.155 . S
C989 C36 1.155 . S
C994 C204 1.155 . S
C1019 C442 1.155 . S
C1024 C51 1.155 . S
C1049 C120 1.155 . S
C1054 C64 1.155 . S
C1079 C79 1.155 . S
C1084 C358 1.155 . S
C1109 C92 1.155 . S
C1114 C148 1.155 . S
C1139 C107 1.155 . S
C1144 C386 1.155 . S
C1169 C303 1.155 . S
C1174 C134 1.155 . S
C1199 C331 1.155 . S
C1204 C162 1.155 . S
C1229 C190 1.155 . S
C1234 C247 1.155 . S
C1259 C275 1.155 . S
C1264 C218 1.155 . S
C1289 C400 1.155 . S
C1294 C232 1.155 . S
C1319 C260 1.155 . S
C1324 C428 1.155 . S
C1349 C344 1.155 . S
C1354 C288 1.155 . S
C1379 C372 1.155 . S
C1384 C316 1.155 . S
C1409 C62 1.190 . S
C1414 C6 1.190 . S
C1439 C77 1.190 . S
C1444 C21 1.190 . S
C1469 C34 1.190 . S
C1474 C90 1.190 . S
C1499 C49 1.190 . S
C1504 C105 1.190 . S
C1529 C174 1.190 . S
C1534 C118 1.190 . S
C1559 C188 1.190 . S
C1564 C132 1.190 . S
C1589 C202 1.190 . S
C1594 C146 1.190 . S
C1619 C160 1.190 . S
C1624 C216 1.190 . S
C1649 C230 1.190 . S
C1654 C286 1.190 . S
C1679 C245 1.190 . S
C1684 C301 1.190 . S
C1709 C258 1.190 . S
C1714 C314 1.190 . S
C1739 C273 1.190 . S
C1744 C329 1.190 . S
C1769 C398 1.190 . S
C1774 C342 1.190 . S
C1799 C412 1.190 . S
C1804 C356 1.190 . S
C1829 C426 1.190 . S
C1834 C370 1.190 . S
C1859 C440 1.190 . S
C1864 C384 1.190 . S
C1889 C429 1.698 . S
C1894 C9 1.698 . S
C1919 C22 1.698 . S
C1924 C219 1.698 . S
C1949 C401 1.698 . S
C1954 C37 1.698 . S
C1979 C50 1.698 . S
C1984 C191 1.698 . S
C2009 C373 1.698 . S
C2014 C65 1.698 . S
C2039 C78 1.698 . S
C2044 C163 1.698 . S
C2069 C93 1.698 . S
C2074 C345 1.698 . S
C2099 C135 1.698 . S
C2104 C106 1.698 . S
C2129 C121 1.698 . S
C2134 C317 1.698 . S
C2159 C289 1.698 . S
C2164 C149 1.698 . S
C2189 C177 1.698 . S
C2194 C261 1.698 . S
C2219 C205 1.698 . S
C2224 C233 1.698 . S
C2249 C443 1.698 . S
C2254 C246 1.698 . S
C2279 C274 1.698 . S
C2284 C415 1.698 . S
C2309 C302 1.698 . S
C2314 C387 1.698 . S
C2339 C359 1.698 . S
C2344 C330 1.698 . S
