# Generated by pormake.
# Topology smc, (6)-cn, num edge types: 1
# Building blocks:
#     Node 0, Type 0, BuildingBlock: OJICUG_clean_sbu_0, # of connection points: 6
#     Node 1, Type 0, BuildingBlock: OJICUG_clean_sbu_0, # of connection points: 6
#     Node 2, Type 0, BuildingBlock: OJICUG_clean_sbu_0, # of connection points: 6
#     Node 3, Type 0, BuildingBlock: OJICUG_clean_sbu_0, # of connection points: 6
#     Node 4, Type 0, BuildingBlock: OJICUG_clean_sbu_0, # of connection points: 6
#     Node 5, Type 0, BuildingBlock: OJICUG_clean_sbu_0, # of connection points: 6
#     Node 6, Type 0, BuildingBlock: OJICUG_clean_sbu_0, # of connection points: 6
#     Node 7, Type 0, BuildingBlock: OJICUG_clean_sbu_0, # of connection points: 6
#     Node 8, Type 0, BuildingBlock: OJICUG_clean_sbu_0, # of connection points: 6
#     Edge 9, Type (0, 0), BuildingBlock: OJICUG_clean_linker_0, # of connection points: 2
#     Edge 10, Type (0, 0), BuildingBlock: OJICUG_clean_linker_0, # of connection points: 2
#     Edge 11, Type (0, 0), BuildingBlock: OJICUG_clean_linker_0, # of connection points: 2
#     Edge 12, Type (0, 0), BuildingBlock: OJICUG_clean_linker_0, # of connection points: 2
#     Edge 13, Type (0, 0), BuildingBlock: OJICUG_clean_linker_0, # of connection points: 2
#     Edge 14, Type (0, 0), BuildingBlock: OJICUG_clean_linker_0, # of connection points: 2
#     Edge 15, Type (0, 0), BuildingBlock: OJICUG_clean_linker_0, # of connection points: 2
#     Edge 16, Type (0, 0), BuildingBlock: OJICUG_clean_linker_0, # of connection points: 2
#     Edge 17, Type (0, 0), BuildingBlock: OJICUG_clean_linker_0, # of connection points: 2
#     Edge 18, Type (0, 0), BuildingBlock: OJICUG_clean_linker_0, # of connection points: 2
#     Edge 19, Type (0, 0), BuildingBlock: OJICUG_clean_linker_0, # of connection points: 2
#     Edge 20, Type (0, 0), BuildingBlock: OJICUG_clean_linker_0, # of connection points: 2
#     Edge 21, Type (0, 0), BuildingBlock: OJICUG_clean_linker_0, # of connection points: 2
#     Edge 22, Type (0, 0), BuildingBlock: OJICUG_clean_linker_0, # of connection points: 2
#     Edge 23, Type (0, 0), BuildingBlock: OJICUG_clean_linker_0, # of connection points: 2
#     Edge 24, Type (0, 0), BuildingBlock: OJICUG_clean_linker_0, # of connection points: 2
#     Edge 25, Type (0, 0), BuildingBlock: OJICUG_clean_linker_0, # of connection points: 2
#     Edge 26, Type (0, 0), BuildingBlock: OJICUG_clean_linker_0, # of connection points: 2
#     Edge 27, Type (0, 0), BuildingBlock: OJICUG_clean_linker_0, # of connection points: 2
#     Edge 28, Type (0, 0), BuildingBlock: OJICUG_clean_linker_0, # of connection points: 2
#     Edge 29, Type (0, 0), BuildingBlock: OJICUG_clean_linker_0, # of connection points: 2
#     Edge 30, Type (0, 0), BuildingBlock: OJICUG_clean_linker_0, # of connection points: 2
#     Edge 31, Type (0, 0), BuildingBlock: OJICUG_clean_linker_0, # of connection points: 2
#     Edge 32, Type (0, 0), BuildingBlock: OJICUG_clean_linker_0, # of connection points: 2
#     Edge 33, Type (0, 0), BuildingBlock: OJICUG_clean_linker_0, # of connection points: 2
#     Edge 34, Type (0, 0), BuildingBlock: OJICUG_clean_linker_0, # of connection points: 2
#     Edge 35, Type (0, 0), BuildingBlock: OJICUG_clean_linker_0, # of connection points: 2
# Relax obj value: 0.196
# Max RMSD: 0.270
# Mean RMSD: 0.270
data_MOF--net-smc--node1-OJICUG_clean_sbu_0--edge1-OJICUG_clean_linker_0
_symmetry_space_group_name_H-M    P1
_symmetry_Int_Tables_number       1
_symmetry_cell_setting            triclinic
loop_
_symmetry_equiv_pos_as_xyz
'x, y, z'
_cell_length_a     22.332283
_cell_length_b     22.396985
_cell_length_c     35.138762
_cell_angle_alpha  89.926164
_cell_angle_beta   90.010652
_cell_angle_gamma 119.32092
loop_
_atom_site_label
_atom_site_type_symbol
_atom_site_fract_x
_atom_site_fract_y
_atom_site_fract_z
_atom_type_partial_charge
Sc0 Sc 0.11502 0.53097 0.94232 0.0
Sc1 Sc 0.04456 0.36689 0.98178 0.0
Sc2 Sc 1.0064 0.49084 0.01764 0.0
O3 O 0.05588 0.46158 0.98094 0.0
C4 C 0.15142 0.61628 0.01607 0.0
C5 C 0.2054 0.46921 0.97965 0.0
C6 C 1.01842 0.38149 0.06969 0.0
C7 C 0.06951 0.39841 0.89269 0.0
C8 C 0.99233 0.55757 0.94469 0.0
C9 C 0.89382 0.34919 0.97922 0.0
O10 O 0.14199 0.61343 0.98054 0.0
O11 O 0.15405 0.40979 -0.01477 0.0
O12 O 1.00095 0.42626 0.06335 0.0
O13 O 0.09814 0.46225 0.89722 0.0
O14 O 1.00504 0.5646 0.97979 0.0
O15 O 0.93578 0.32592 0.97746 0.0
O16 O 0.02492 0.53838 0.92245 0.0
O17 O 0.04511 0.35677 0.92036 0.0
O18 O 0.90973 0.40838 -0.00669 0.0
O19 O 0.20118 0.51946 0.9645 0.0
O20 O 0.10623 0.57223 0.03864 0.0
O21 O 0.04073 0.35843 0.0435 0.0
Sc22 Sc 0.54124 0.60756 0.96354 0.0
Sc23 Sc 0.71332 0.70292 -0.01409 0.0
Sc24 Sc 0.61845 0.53152 0.00923 0.0
O25 O 0.62636 0.61594 -0.01384 0.0
C26 C 0.47313 0.52556 0.0277 0.0
C27 C 0.61001 0.75831 -0.00136 0.0
C28 C 0.69682 0.63937 0.07137 0.0
C29 C 0.6483 0.68501 0.90071 0.0
C30 C 0.53504 0.46225 0.94568 0.0
C31 C 0.76904 0.60003 0.9732 0.0
O32 O 0.50382 0.58775 0.01962 0.0
O33 O 0.66537 0.75893 0.00747 0.0
O34 O 0.64815 0.57994 0.063 0.0
O35 O 0.58886 0.6364 0.90942 0.0
O36 O 0.5975 0.4927 0.95352 0.0
O37 O 0.76947 0.65513 0.96431 0.0
O38 O 0.50134 0.49465 0.95043 0.0
O39 O 0.69544 0.71887 0.92559 0.0
O40 O 0.72384 0.55594 -0.00444 0.0
O41 O 0.56564 0.71283 0.97658 0.0
O42 O 0.50547 0.49182 0.02298 0.0
O43 O 0.73032 0.68614 0.04624 0.0
Sc44 Sc 0.50082 0.99647 0.95367 0.0
Sc45 Sc 0.37647 0.03419 -0.01015 0.0
Sc46 Sc 0.54101 0.1041 0.02918 0.0
O47 O 0.47143 0.04547 -0.00945 0.0
C48 C 0.56784 0.98184 0.02637 0.0
C49 C 0.35883 0.88388 -0.00785 0.0
C50 C 0.40803 0.05833 0.07895 0.0
C51 C 0.39103 1.0086 0.90189 0.0
C52 C 0.62627 0.14126 0.95528 0.0
C53 C 0.47908 0.19458 -0.00773 0.0
O54 O 0.57491 0.99486 -0.0087 0.0
O55 O 0.33542 0.92566 -0.00596 0.0
O56 O 0.47205 0.08674 0.07438 0.0
O57 O 0.43595 0.99118 0.90812 0.0
O58 O 0.62366 0.13138 -0.00923 0.0
O59 O 0.41956 0.14341 -0.01348 0.0
O60 O 0.5822 0.09628 0.9327 0.0
O61 O 0.36794 0.03076 0.92814 0.0
O62 O 0.52939 0.19025 0.0074 0.0
O63 O 0.41822 0.89991 0.97799 0.0
O64 O 0.54851 0.01409 0.04874 0.0
O65 O 0.36629 0.03436 0.0513 0.0
Sc66 Sc 0.74029 0.83501 0.28069 0.0
Sc67 Sc 0.68374 0.67136 0.31857 0.0
Sc68 Sc 0.62522 0.78032 0.35343 0.0
O69 O 0.683 0.76065 0.31757 0.0
C70 C 0.75814 0.92011 0.35221 0.0
C71 C 0.84052 0.7893 0.32315 0.0
C72 C 0.65246 0.68227 0.40653 0.0
C73 C 0.71845 0.70864 0.23066 0.0
C74 C 0.60412 0.83851 0.27877 0.0
C75 C 0.52585 0.63234 0.31439 0.0
O76 O 0.74886 0.91452 0.31681 0.0
O77 O 0.7932 0.7268 0.32534 0.0
O78 O 0.62941 0.72254 0.39999 0.0
O79 O 0.74105 0.77153 0.23643 0.0
O80 O 0.61317 0.84551 0.31419 0.0
O81 O 0.57428 0.61773 0.31187 0.0
O82 O 0.64494 0.82865 0.25729 0.0
O83 O 0.69107 0.66439 0.25698 0.0
O84 O 0.53426 0.68892 0.32909 0.0
O85 O 0.83134 0.83671 0.3077 0.0
O86 O 0.71928 0.87132 0.37477 0.0
O87 O 0.6769 0.66138 0.38032 0.0
Sc88 Sc 0.1859 0.8994 0.28396 0.0
Sc89 Sc 0.34931 1.00275 0.32262 0.0
Sc90 Sc 0.24123 0.83669 0.35609 0.0
O91 O 0.26012 0.9145 0.32101 0.0
C92 C 0.10267 0.83523 0.3569 0.0
C93 C 0.23122 0.0441 0.32624 0.0
C94 C 0.33941 0.95859 0.40983 0.0
C95 C 0.31376 0.99994 0.23437 0.0
C96 C 0.17981 0.75929 0.28181 0.0
C97 C 0.38807 0.88338 0.31545 0.0
O98 O 0.1068 0.83221 0.32126 0.0
O99 O 0.29355 0.05754 0.32981 0.0
O100 O 0.30107 0.89595 0.40277 0.0
O101 O 0.25049 0.9603 0.23926 0.0
O102 O 0.17356 0.76149 0.31728 0.0
O103 O 0.40347 0.94639 0.31503 0.0
O104 O 0.19062 0.81007 0.26055 0.0
O105 O 0.35668 0.01778 0.26149 0.0
O106 O 0.33134 0.83556 0.32972 0.0
O107 O 0.1846 0.98916 0.30998 0.0
O108 O 0.1515 0.84194 0.37884 0.0
O109 O 0.35836 1.00415 0.38411 0.0
Sc110 Sc 0.12321 0.28185 0.28094 0.0
Sc111 Sc 1.01432 0.34031 0.31573 0.0
Sc112 Sc 0.17747 0.39545 0.35442 0.0
O113 O 0.10352 0.33904 0.3171 0.0
C114 C 0.18182 0.26014 0.35585 0.0
C115 C 0.97411 0.18229 0.31845 0.0
C116 C 0.04844 0.36831 0.40406 0.0
C117 C 0.02947 0.31513 0.22759 0.0
C118 C 0.26313 0.41487 0.28267 0.0
C119 C 0.1325 0.49692 0.31362 0.0
O120 O 0.18764 0.26816 0.32027 0.0
O121 O 0.95909 0.23044 0.32001 0.0
O122 O 0.11207 0.39374 0.39856 0.0
O123 O 0.06597 0.28764 0.23423 0.0
O124 O 0.25766 0.40522 0.31808 0.0
O125 O 0.06973 0.45003 0.31153 0.0
O126 O 0.2145 0.37596 0.26008 0.0
O127 O 1.00939 0.34002 0.25393 0.0
O128 O 0.1799 0.48696 0.32836 0.0
O129 O 0.03161 0.19096 0.30484 0.0
O130 O 0.17158 0.30059 0.37726 0.0
O131 O 1.00497 0.34183 0.3773 0.0
Sc132 Sc 0.40599 0.16776 0.61725 0.0
Sc133 Sc 0.35056 1.00502 0.65596 0.0
Sc134 Sc 0.29124 0.11316 0.69048 0.0
O135 O 0.34907 0.09382 0.65449 0.0
C136 C 0.42422 0.253 0.68882 0.0
C137 C 0.5074 0.1232 0.65858 0.0
C138 C 0.32457 0.01987 0.74404 0.0
C139 C 0.37967 0.03944 0.56769 0.0
C140 C 0.27007 0.17149 0.6153 0.0
C141 C 0.192 0.96447 0.65297 0.0
O142 O 0.41487 0.24749 0.6534 0.0
O143 O 0.46054 0.0605 0.66042 0.0
O144 O 0.29699 0.05624 0.73734 0.0
O145 O 0.40524 0.10287 0.57321 0.0
O146 O 0.27763 0.17717 0.65091 0.0
O147 O 0.24044 0.94972 0.65146 0.0
O148 O 0.31104 0.16158 0.59404 0.0
O149 O 0.3527 0.99598 0.59441 0.0
O150 O 0.2004 0.02167 0.66657 0.0
O151 O 0.49748 0.17046 0.64376 0.0
O152 O 0.38522 0.2044 0.71141 0.0
O153 O 0.34966 0.99987 0.71775 0.0
Sc154 Sc 0.84592 0.23028 0.61638 0.0
Sc155 Sc 1.0127 0.33872 0.64916 0.0
Sc156 Sc 0.9098 0.17605 0.68846 0.0
O157 O 0.92435 0.24966 0.6512 0.0
C158 C 0.76947 0.1702 0.6912 0.0
C159 C 0.89291 0.37727 0.65636 0.0
C160 C 1.01104 0.30402 0.73745 0.0
C161 C 0.96761 0.32777 0.56205 0.0
C162 C 0.84422 0.09193 0.6161 0.0
C163 C 0.05431 0.22106 0.6455 0.0
O164 O 0.77114 0.1634 0.65575 0.0
O165 O 0.95609 0.3926 0.65676 0.0
O166 O 0.97154 0.24086 0.73275 0.0
O167 O 0.90488 0.28924 0.56929 0.0
O168 O 0.84184 0.09659 0.65173 0.0
O169 O 0.06775 0.28321 0.64191 0.0
O170 O 0.85082 0.14039 0.59398 0.0
O171 O 1.01347 0.34726 0.58766 0.0
O172 O 0.9994 0.1746 0.66199 0.0
O173 O 0.84494 0.32054 0.64231 0.0
O174 O 0.82063 0.1811 0.71224 0.0
O175 O 0.02835 0.34666 0.71024 0.0
Sc176 Sc 0.7897 0.61537 0.61806 0.0
Sc177 Sc 0.68001 0.673 0.65327 0.0
Sc178 Sc 0.84408 0.72923 0.69107 0.0
O179 O 0.76969 0.67248 0.65411 0.0
C180 C 0.84819 0.59366 0.69243 0.0
C181 C 0.64134 0.51565 0.65708 0.0
C182 C 0.71703 0.70653 0.74124 0.0
C183 C 0.69123 0.6427 0.56521 0.0
C184 C 0.92958 0.7483 0.61935 0.0
C185 C 0.79796 0.82955 0.64918 0.0
O186 O 0.85528 0.60315 0.65704 0.0
O187 O 0.62644 0.56376 0.6597 0.0
O188 O 0.78012 0.72905 0.73546 0.0
O189 O 0.73163 0.61971 0.57166 0.0
O190 O 0.92404 0.7387 0.65474 0.0
O191 O 0.73537 0.78224 0.6468 0.0
O192 O 0.88076 0.70954 0.59679 0.0
O193 O 0.67023 0.66689 0.5915 0.0
O194 O 0.84552 0.82031 0.66452 0.0
O195 O 0.6982 0.52435 0.64236 0.0
O196 O 0.838 0.63396 0.71407 0.0
O197 O 0.67274 0.67961 0.71489 0.0
C198 C 0.36545 0.52929 0.03981 0.0
C199 C 0.39726 0.49458 0.02315 0.0
H200 H 0.28163 0.55092 0.03807 0.0
C201 C 0.36274 0.44953 -0.00718 0.0
H202 H 0.39104 0.56593 0.06244 0.0
C203 C 0.30035 0.44115 0.97896 0.0
C204 C 0.27202 0.47972 -0.00613 0.0
H205 H 0.38563 0.4251 0.97701 0.0
H206 H 0.27579 0.4068 0.95526 0.0
C207 C 0.30395 0.52244 0.02515 0.0
C208 C 0.52069 0.85737 0.03106 0.0
C209 C 0.57667 0.92311 0.03749 0.0
H210 H 0.48691 0.75449 0.01218 0.0
C211 C 0.64321 0.93149 0.03591 0.0
H212 H 0.46891 0.84961 0.03135 0.0
C213 C 0.65373 0.87708 0.025 0.0
C214 C 0.59797 0.81339 0.01441 0.0
H215 H 0.68746 0.98192 0.03938 0.0
H216 H 0.70595 0.88646 0.02227 0.0
C217 C 0.53112 0.80334 0.0191 0.0
C218 C 0.25407 0.80172 0.02917 0.0
C219 C 0.31324 0.81424 0.0082 0.0
H220 H 0.15583 0.72663 0.05081 0.0
C221 C 0.32539 0.7593 0.00187 0.0
H222 H 0.24368 0.84298 0.03581 0.0
C223 C 0.27566 0.69264 0.01213 0.0
C224 C 0.21254 0.67943 0.02845 0.0
H225 H 0.37065 0.76686 -0.01347 0.0
H226 H 0.28286 0.65049 0.00281 0.0
C227 C 0.20424 0.73505 0.03908 0.0
C228 C 0.53049 0.29276 0.9465 0.0
C229 C 0.4895 0.26127 0.97851 0.0
H230 H 0.57253 0.37962 0.90908 0.0
C231 C 0.45248 0.29019 -0.00522 0.0
H232 H 0.55785 0.27007 0.93264 0.0
C233 C 0.46066 0.35261 0.98138 0.0
C234 C 0.50382 0.38657 0.95018 0.0
H235 H 0.41957 0.26605 0.01913 0.0
H236 H 0.43777 0.37593 -0.00183 0.0
C237 C 0.53711 0.35436 0.93234 0.0
C238 C 0.74535 0.19498 0.93212 0.0
C239 C 0.68926 0.20265 0.94289 0.0
H240 H 0.85368 0.23502 0.93526 0.0
C241 C 0.702 0.26534 0.95928 0.0
H242 H 0.73728 0.14693 0.9203 0.0
C243 C 0.7687 0.31523 0.96952 0.0
C244 C 0.82412 0.30364 0.9631 0.0
H245 H 0.65945 0.27205 0.96865 0.0
H246 H 0.77595 0.36014 -0.01507 0.0
C247 C 0.81204 0.24496 0.942 0.0
C248 C 0.86763 0.51064 0.94011 0.0
C249 C 0.93354 0.56637 0.93343 0.0
H250 H 0.76475 0.47717 0.95953 0.0
C251 C 0.94205 0.63276 0.93492 0.0
H252 H 0.85976 0.45897 0.93986 0.0
C253 C 0.8877 0.6434 0.94613 0.0
C254 C 0.82397 0.5879 0.95708 0.0
H255 H 0.99262 0.67683 0.93123 0.0
H256 H 0.89722 0.6955 0.94883 0.0
C257 C 0.81368 0.52119 0.95237 0.0
C258 C 0.96362 0.8721 0.34276 0.0
C259 C 0.9077 0.80533 0.34118 0.0
H260 H 0.07033 0.93507 0.35562 0.0
C261 C 0.91607 0.75213 0.35768 0.0
H262 H 0.96029 0.91445 0.33026 0.0
C263 C 0.98011 0.76416 0.37124 0.0
C264 C 0.03735 0.82987 0.36943 0.0
H265 H 0.87423 0.69986 0.35793 0.0
H266 H 0.98652 0.72073 0.37888 0.0
C267 C 0.02678 0.88424 0.35793 0.0
C268 C 0.13356 0.13647 0.35726 0.0
C269 C 0.18722 0.20051 0.36898 0.0
H270 H 0.10512 0.04004 0.33085 0.0
C271 C 0.25322 0.20828 0.37209 0.0
H272 H 0.08258 0.12975 0.35392 0.0
C273 C 0.26637 0.15625 0.35975 0.0
C274 C 0.21406 0.09537 0.34319 0.0
H275 H 0.29618 0.25748 0.37986 0.0
H276 H 0.31887 0.16604 0.36094 0.0
C277 C 0.14686 0.08533 0.3434 0.0
C278 C 0.93325 0.05855 0.33788 0.0
C279 C 0.92211 0.11496 0.33546 0.0
H280 H 0.89005 0.95194 0.35115 0.0
C281 C 0.8599 0.1072 0.35058 0.0
H282 H 0.97955 0.06146 0.32648 0.0
C283 C 0.80818 0.04362 0.364 0.0
C284 C 0.8174 0.98605 0.36351 0.0
H285 H 0.84909 0.14934 0.35006 0.0
H286 H 0.75831 0.03788 0.37082 0.0
C287 C 0.88225 0.99572 0.35269 0.0
C288 C 0.2289 0.68364 0.28048 0.0
C289 C 0.17482 0.69462 0.26874 0.0
H290 H 0.2582 0.61649 0.30802 0.0
C291 C 0.10892 0.63765 0.26625 0.0
H292 H 0.27982 0.72692 0.28324 0.0
C293 C 0.09631 0.57336 0.2794 0.0
C294 C 0.14908 0.56447 0.29616 0.0
H295 H 0.06567 0.64437 0.25838 0.0
H296 H 0.04389 0.53167 0.2786 0.0
C297 C 0.21614 0.62021 0.29526 0.0
C298 C 0.38684 0.4667 0.2694 0.0
C299 C 0.32856 0.47478 0.27124 0.0
H300 H 0.49361 0.509 0.28149 0.0
C301 C 0.33757 0.53891 0.2826 0.0
H302 H 0.38162 0.41738 0.26209 0.0
C303 C 0.40082 0.59038 0.29668 0.0
C304 C 0.45818 0.58042 0.29772 0.0
H305 H 0.2932 0.54575 0.28505 0.0
H306 H 0.40339 0.63602 0.30863 0.0
C307 C 0.45081 0.51895 0.28199 0.0
C308 C 0.49852 0.92036 0.27917 0.0
C309 C 0.43878 0.86724 0.29639 0.0
H310 H 0.59876 0.95189 0.25636 0.0
C311 C 0.42916 0.80047 0.29437 0.0
H312 H 0.50785 0.97257 0.27906 0.0
C313 C 0.4799 0.7884 0.27825 0.0
C314 C 0.54342 0.84283 0.26616 0.0
H315 H 0.3847 0.75804 0.30722 0.0
H316 H 0.47373 0.73761 0.28022 0.0
C317 C 0.55015 0.90837 0.26453 0.0
C318 C 0.64772 0.09988 0.70702 0.0
C319 C 0.7049 0.16557 0.70449 0.0
H320 H 0.54167 0.03497 0.69429 0.0
C321 C 0.694 0.21952 0.69264 0.0
H322 H 0.65436 0.05675 0.71506 0.0
C323 C 0.63062 0.20675 0.67751 0.0
C324 C 0.57481 0.13984 0.67648 0.0
H325 H 0.73742 0.27033 0.68997 0.0
H326 H 0.62707 0.24867 0.66458 0.0
C327 C 0.58346 0.08726 0.69353 0.0
C328 C 0.80988 0.41868 0.67713 0.0
C329 C 0.87681 0.42814 0.67511 0.0
H330 H 0.74702 0.46349 0.69098 0.0
C331 C 0.93019 0.48796 0.692 0.0
H332 H 0.76725 0.37414 0.66454 0.0
C333 C 0.91829 0.53969 0.70635 0.0
C334 C 0.85256 0.53298 0.70482 0.0
H335 H 0.98255 0.49723 0.69208 0.0
H336 H 0.962 0.58823 0.71432 0.0
C337 C 0.79793 0.46959 0.69293 0.0
C338 C 0.5277 0.44025 0.68957 0.0
C339 C 0.58945 0.44799 0.67372 0.0
H340 H 0.42597 0.37078 0.70958 0.0
C341 C 0.59977 0.39101 0.67462 0.0
H342 H 0.51748 0.48277 0.69017 0.0
C343 C 0.54842 0.32778 0.68874 0.0
C344 C 0.484 0.31839 0.70025 0.0
H345 H 0.64557 0.39383 0.66252 0.0
H346 H 0.55556 0.28374 0.68619 0.0
C347 C 0.47553 0.37629 0.70219 0.0
C348 C 0.76052 0.90544 0.61535 0.0
C349 C 0.81392 0.89685 0.63154 0.0
H350 H 0.729 0.97598 0.59461 0.0
C351 C 0.88086 0.95268 0.63004 0.0
H352 H 0.7081 0.86372 0.61511 0.0
C353 C 0.89299 0.01587 0.61517 0.0
C354 C 0.83849 0.02652 0.60379 0.0
H355 H 0.92336 0.94919 0.64234 0.0
H356 H 0.94395 0.05927 0.61749 0.0
C357 C 0.77256 0.96949 0.60206 0.0
C358 C 1.00494 0.87214 0.61879 0.0
C359 C 0.99561 0.8076 0.60803 0.0
H360 H 0.07055 0.96938 0.64479 0.0
C361 C 0.05356 0.79878 0.60754 0.0
H362 H 0.96084 0.87964 0.62029 0.0
C363 C 0.11718 0.85055 0.62091 0.0
C364 C 0.12462 0.91245 0.63596 0.0
H365 H 0.04809 0.74916 0.60075 0.0
H366 H 0.1596 0.84001 0.62145 0.0
C367 C 0.06785 0.92325 0.6335 0.0
C368 C 0.14619 0.12337 0.61382 0.0
C369 C 0.21041 0.17683 0.60197 0.0
H370 H 0.04993 0.09525 0.64076 0.0
C371 C 0.21828 0.24267 0.59882 0.0
H372 H 0.13936 0.07249 0.61717 0.0
C373 C 0.16631 0.25592 0.61142 0.0
C374 C 0.10544 0.20385 0.62825 0.0
H375 H 0.26759 0.28545 0.59089 0.0
H376 H 0.17621 0.30829 0.61024 0.0
C377 C 0.0952 0.13679 0.62798 0.0
C378 C 0.03875 0.29556 0.15806 0.0
C379 C 1.0172 0.32441 0.18705 0.0
H380 H 0.05634 0.29082 0.09848 0.0
C381 C 0.99098 0.3676 0.17668 0.0
H382 H 0.05892 0.26163 0.16493 0.0
C383 C 0.98959 0.38427 0.13847 0.0
C384 C 1.01445 0.35822 0.10965 0.0
H385 H 0.97401 0.39073 0.19812 0.0
H386 H 0.97071 0.41929 0.13172 0.0
C387 C 0.03747 0.31232 0.11985 0.0
C388 C 0.68017 0.62009 0.17883 0.0
C389 C 0.72078 0.68798 0.19082 0.0
H390 H 0.64129 0.55133 0.13176 0.0
C391 C 0.75984 0.7384 0.16346 0.0
H392 H 0.64977 0.58006 0.19908 0.0
C393 C 0.75494 0.72223 0.12481 0.0
C394 C 0.71089 0.65521 0.1125 0.0
H395 H 0.7926 0.79125 0.17172 0.0
H396 H 0.78349 0.7629 0.10453 0.0
C397 C 0.67526 0.60388 0.1401 0.0
C398 C 0.31239 0.01164 0.12683 0.0
C399 C 0.38267 0.04968 0.11859 0.0
H400 H 0.23548 0.96669 0.16979 0.0
C401 C 0.42986 0.07621 0.14897 0.0
H402 H 0.27474 0.99074 0.1042 0.0
C403 C 0.40757 0.06219 0.18665 0.0
C404 C 0.33755 0.02158 0.19487 0.0
H405 H 0.48454 0.10633 0.14375 0.0
H406 H 0.44542 0.08159 0.20923 0.0
C407 C 0.29006 0.99785 0.16454 0.0
C408 C 0.39345 0.97963 0.83315 0.0
C409 C 0.36764 1.00473 0.86196 0.0
H410 H 0.39972 0.96389 0.77352 0.0
C411 C 0.32193 0.02809 0.85179 0.0
H412 H 0.42831 0.96047 0.83988 0.0
C413 C 0.30514 0.02944 0.81358 0.0
C414 C 0.33379 1.00762 0.7846 0.0
H415 H 0.30061 0.04716 0.87316 0.0
H416 H 0.27139 0.04987 0.80672 0.0
C417 C 0.37676 0.98108 0.79496 0.0
C418 C 0.0235 0.30301 0.84495 0.0
C419 C 0.06101 0.37314 0.85308 0.0
H420 H 0.97899 0.22617 0.80213 0.0
C421 C 0.08707 0.42019 0.82261 0.0
H422 H 1.00299 0.26547 0.86763 0.0
C423 C 0.07306 0.39787 0.78497 0.0
C424 C 0.03293 0.32796 0.77687 0.0
H425 H 0.11676 0.47477 0.82775 0.0
H426 H 0.09202 0.43558 0.76233 0.0
C427 C 1.00975 0.28065 0.80728 0.0
C428 C 0.62839 0.66732 0.7933 0.0
C429 C 0.69626 0.70864 0.7811 0.0
H430 H 0.55983 0.62789 0.8406 0.0
C431 C 0.74671 0.7483 0.80828 0.0
H432 H 0.58834 0.63641 0.77319 0.0
C433 C 0.73069 0.74339 0.84697 0.0
C434 C 0.66376 0.69873 0.8595 0.0
H435 H 0.79954 0.78161 0.79985 0.0
H436 H 0.77144 0.77252 0.86709 0.0
C437 C 0.61231 0.66238 0.83208 0.0
C438 C 0.62769 0.68812 0.47565 0.0
C439 C 0.65476 0.66408 0.44693 0.0
H440 H 0.61758 0.70027 0.53538 0.0
C441 C 0.68789 0.62731 0.45764 0.0
H442 H 0.60117 0.7162 0.46853 0.0
C443 C 0.69684 0.61792 0.49611 0.0
C444 C 0.6731 0.64526 0.52484 0.0
H445 H 0.70899 0.60779 0.4364 0.0
H446 H 0.72451 0.59098 0.50323 0.0
C447 C 0.63684 0.67892 0.51413 0.0
C448 C 0.32939 0.92865 0.47928 0.0
C449 C 0.35739 0.97846 0.45021 0.0
H450 H 0.31442 0.90847 0.53917 0.0
C451 C 0.39836 0.0473 0.46042 0.0
H452 H 0.29781 0.87489 0.4725 0.0
C453 C 0.4082 0.0663 0.49869 0.0
C454 C 0.37695 0.01698 0.52774 0.0
H455 H 0.42114 0.08688 0.43889 0.0
H456 H 0.43856 0.12026 0.50536 0.0
C457 C 0.33895 0.94772 0.51762 0.0
C458 C 0.93736 0.31698 0.49263 0.0
C459 C 0.9873 0.34557 0.52161 0.0
H460 H 0.91712 0.30169 0.43277 0.0
C461 C 0.05621 0.38716 0.51128 0.0
H462 H 0.88355 0.2849 0.4995 0.0
C463 C 0.07519 0.39708 0.47299 0.0
C464 C 0.02581 0.36533 0.44402 0.0
H465 H 0.09588 0.41042 0.53273 0.0
H466 H 0.12922 0.42798 0.46622 0.0
C467 C 0.95642 0.32665 0.45425 0.0
loop_
_geom_bond_atom_site_label_1
_geom_bond_atom_site_label_2
_geom_bond_distance
_geom_bond_site_symmetry_2
_ccdc_geom_bond_type
Sc0 O3 2.025 1_556 S
Sc0 O10 2.105 . S
Sc0 O13 2.105 . S
Sc0 O16 2.105 1_455 S
Sc0 O19 2.105 . S
Sc1 O3 2.025 . S
Sc1 O11 2.105 1_554 S
Sc1 O15 2.105 1_455 S
Sc1 O17 2.105 1_454 S
Sc1 O21 2.105 . S
Sc2 O3 2.025 1_655 S
Sc2 O12 2.105 1_655 S
Sc2 O14 2.105 . S
Sc2 O18 2.105 . S
Sc2 O20 2.105 1_655 S
O3 Sc0 2.025 1_554 S
O3 Sc1 2.025 . S
O3 Sc2 2.025 1_455 S
C4 O10 1.268 1_554 S
C4 O20 1.268 . S
C5 O11 1.268 . S
C5 O19 1.268 . S
C6 O12 1.268 . S
C6 O21 1.268 . S
C7 O13 1.268 1_655 S
C7 O17 1.268 . S
C8 O14 1.268 1_556 S
C8 O16 1.268 . S
C9 O15 1.268 . S
C9 O18 1.268 . S
O10 Sc0 2.105 . S
O10 C4 1.268 1_556 S
O11 Sc1 2.105 1_556 S
O11 C5 1.268 . S
O12 Sc2 2.105 1_455 S
O12 C6 1.268 . S
O13 Sc0 2.105 . S
O13 C7 1.268 1_455 S
O14 Sc2 2.105 . S
O14 C8 1.268 1_554 S
O15 Sc1 2.105 1_655 S
O15 C9 1.268 . S
O16 Sc0 2.105 1_655 S
O16 C8 1.268 . S
O17 Sc1 2.105 1_656 S
O17 C7 1.268 . S
O18 Sc2 2.105 . S
O18 C9 1.268 . S
O19 Sc0 2.105 . S
O19 C5 1.268 . S
O20 Sc2 2.105 1_455 S
O20 C4 1.268 . S
O21 Sc1 2.105 . S
O21 C6 1.268 . S
Sc22 O25 2.025 1_556 S
Sc22 O32 2.105 . S
Sc22 O35 2.105 . S
Sc22 O38 2.105 . S
Sc22 O41 2.105 . S
Sc23 O25 2.025 . S
Sc23 O33 2.105 1_554 S
Sc23 O37 2.105 . S
Sc23 O39 2.105 1_554 S
Sc23 O43 2.105 . S
Sc24 O25 2.025 . S
Sc24 O34 2.105 . S
Sc24 O36 2.105 . S
Sc24 O40 2.105 . S
Sc24 O42 2.105 . S
O25 Sc22 2.025 1_554 S
O25 Sc23 2.025 . S
O25 Sc24 2.025 . S
C26 O32 1.268 1_554 S
C26 O42 1.268 . S
C27 O33 1.268 . S
C27 O41 1.268 . S
C28 O34 1.268 . S
C28 O43 1.268 . S
C29 O35 1.268 . S
C29 O39 1.268 . S
C30 O36 1.268 1_556 S
C30 O38 1.268 . S
C31 O37 1.268 . S
C31 O40 1.268 . S
O32 Sc22 2.105 . S
O32 C26 1.268 1_556 S
O33 Sc23 2.105 1_556 S
O33 C27 1.268 . S
O34 Sc24 2.105 . S
O34 C28 1.268 . S
O35 Sc22 2.105 . S
O35 C29 1.268 . S
O36 Sc24 2.105 . S
O36 C30 1.268 1_554 S
O37 Sc23 2.105 . S
O37 C31 1.268 . S
O38 Sc22 2.105 . S
O38 C30 1.268 . S
O39 Sc23 2.105 1_556 S
O39 C29 1.268 . S
O40 Sc24 2.105 . S
O40 C31 1.268 . S
O41 Sc22 2.105 . S
O41 C27 1.268 . S
O42 Sc24 2.105 . S
O42 C26 1.268 . S
O43 Sc23 2.105 . S
O43 C28 1.268 . S
Sc44 O47 2.025 1_566 S
Sc44 O54 2.105 . S
Sc44 O57 2.105 1_565 S
Sc44 O60 2.105 1_565 S
Sc44 O63 2.105 . S
Sc45 O47 2.025 . S
Sc45 O55 2.105 1_544 S
Sc45 O59 2.105 . S
Sc45 O61 2.105 1_554 S
Sc45 O65 2.105 1_545 S
Sc46 O47 2.025 . S
Sc46 O56 2.105 . S
Sc46 O58 2.105 . S
Sc46 O62 2.105 . S
Sc46 O64 2.105 1_545 S
O47 Sc44 2.025 1_544 S
O47 Sc45 2.025 . S
O47 Sc46 2.025 . S
C48 O54 1.268 1_554 S
C48 O64 1.268 . S
C49 O55 1.268 . S
C49 O63 1.268 . S
C50 O56 1.268 1_565 S
C50 O65 1.268 . S
C51 O57 1.268 . S
C51 O61 1.268 . S
C52 O58 1.268 1_556 S
C52 O60 1.268 . S
C53 O59 1.268 . S
C53 O62 1.268 . S
O54 Sc44 2.105 . S
O54 C48 1.268 1_556 S
O55 Sc45 2.105 1_566 S
O55 C49 1.268 . S
O56 Sc46 2.105 . S
O56 C50 1.268 1_545 S
O57 Sc44 2.105 1_545 S
O57 C51 1.268 . S
O58 Sc46 2.105 . S
O58 C52 1.268 1_554 S
O59 Sc45 2.105 . S
O59 C53 1.268 . S
O60 Sc44 2.105 1_545 S
O60 C52 1.268 . S
O61 Sc45 2.105 1_556 S
O61 C51 1.268 . S
O62 Sc46 2.105 . S
O62 C53 1.268 . S
O63 Sc44 2.105 . S
O63 C49 1.268 . S
O64 Sc46 2.105 1_565 S
O64 C48 1.268 . S
O65 Sc45 2.105 1_565 S
O65 C50 1.268 . S
Sc66 O69 2.025 . S
Sc66 O76 2.105 . S
Sc66 O79 2.105 . S
Sc66 O82 2.105 . S
Sc66 O85 2.105 . S
Sc67 O69 2.025 . S
Sc67 O77 2.105 . S
Sc67 O81 2.105 . S
Sc67 O83 2.105 . S
Sc67 O87 2.105 . S
Sc68 O69 2.025 . S
Sc68 O78 2.105 . S
Sc68 O80 2.105 . S
Sc68 O84 2.105 . S
Sc68 O86 2.105 . S
O69 Sc66 2.025 . S
O69 Sc67 2.025 . S
O69 Sc68 2.025 . S
C70 O76 1.268 . S
C70 O86 1.268 . S
C71 O77 1.268 . S
C71 O85 1.268 . S
C72 O78 1.268 . S
C72 O87 1.268 . S
C73 O79 1.268 . S
C73 O83 1.268 . S
C74 O80 1.268 . S
C74 O82 1.268 . S
C75 O81 1.268 . S
C75 O84 1.268 . S
O76 Sc66 2.105 . S
O76 C70 1.268 . S
O77 Sc67 2.105 . S
O77 C71 1.268 . S
O78 Sc68 2.105 . S
O78 C72 1.268 . S
O79 Sc66 2.105 . S
O79 C73 1.268 . S
O80 Sc68 2.105 . S
O80 C74 1.268 . S
O81 Sc67 2.105 . S
O81 C75 1.268 . S
O82 Sc66 2.105 . S
O82 C74 1.268 . S
O83 Sc67 2.105 . S
O83 C73 1.268 . S
O84 Sc68 2.105 . S
O84 C75 1.268 . S
O85 Sc66 2.105 . S
O85 C71 1.268 . S
O86 Sc68 2.105 . S
O86 C70 1.268 . S
O87 Sc67 2.105 . S
O87 C72 1.268 . S
Sc88 O91 2.025 . S
Sc88 O98 2.105 . S
Sc88 O101 2.105 . S
Sc88 O104 2.105 . S
Sc88 O107 2.105 . S
Sc89 O91 2.025 . S
Sc89 O99 2.105 1_565 S
Sc89 O103 2.105 . S
Sc89 O105 2.105 . S
Sc89 O109 2.104 1_565 S
Sc90 O91 2.025 . S
Sc90 O100 2.105 . S
Sc90 O102 2.105 . S
Sc90 O106 2.105 . S
Sc90 O108 2.105 . S
O91 Sc88 2.025 . S
O91 Sc89 2.025 . S
O91 Sc90 2.025 . S
C92 O98 1.268 . S
C92 O108 1.268 . S
C93 O99 1.268 . S
C93 O107 1.268 1_545 S
C94 O100 1.268 . S
C94 O109 1.267 1_565 S
C95 O101 1.268 . S
C95 O105 1.268 . S
C96 O102 1.268 . S
C96 O104 1.268 . S
C97 O103 1.268 . S
C97 O106 1.268 . S
O98 Sc88 2.105 . S
O98 C92 1.268 . S
O99 Sc89 2.105 1_545 S
O99 C93 1.268 . S
O100 Sc90 2.105 . S
O100 C94 1.268 . S
O101 Sc88 2.105 . S
O101 C95 1.268 . S
O102 Sc90 2.105 . S
O102 C96 1.268 . S
O103 Sc89 2.105 . S
O103 C97 1.268 . S
O104 Sc88 2.105 . S
O104 C96 1.268 . S
O105 Sc89 2.105 . S
O105 C95 1.268 . S
O106 Sc90 2.105 . S
O106 C97 1.268 . S
O107 Sc88 2.105 . S
O107 C93 1.268 1_565 S
O108 Sc90 2.105 . S
O108 C92 1.268 . S
O109 Sc89 2.104 1_545 S
O109 C94 1.267 1_545 S
Sc110 O113 2.025 . S
Sc110 O120 2.105 . S
Sc110 O123 2.105 . S
Sc110 O126 2.105 . S
Sc110 O129 2.105 . S
Sc111 O113 2.025 . S
Sc111 O121 2.105 1_455 S
Sc111 O125 2.105 . S
Sc111 O127 2.105 . S
Sc111 O131 2.105 . S
Sc112 O113 2.025 . S
Sc112 O122 2.105 . S
Sc112 O124 2.105 . S
Sc112 O128 2.105 . S
Sc112 O130 2.105 . S
O113 Sc110 2.025 . S
O113 Sc111 2.025 . S
O113 Sc112 2.025 . S
C114 O120 1.268 . S
C114 O130 1.268 . S
C115 O121 1.268 . S
C115 O129 1.268 1_655 S
C116 O122 1.268 . S
C116 O131 1.268 . S
C117 O123 1.268 . S
C117 O127 1.268 . S
C118 O124 1.268 . S
C118 O126 1.268 . S
C119 O125 1.268 . S
C119 O128 1.268 . S
O120 Sc110 2.105 . S
O120 C114 1.268 . S
O121 Sc111 2.105 1_655 S
O121 C115 1.268 . S
O122 Sc112 2.105 . S
O122 C116 1.268 . S
O123 Sc110 2.105 . S
O123 C117 1.268 . S
O124 Sc112 2.105 . S
O124 C118 1.268 . S
O125 Sc111 2.105 . S
O125 C119 1.268 . S
O126 Sc110 2.105 . S
O126 C118 1.268 . S
O127 Sc111 2.105 . S
O127 C117 1.268 . S
O128 Sc112 2.105 . S
O128 C119 1.268 . S
O129 Sc110 2.105 . S
O129 C115 1.268 1_455 S
O130 Sc112 2.105 . S
O130 C114 1.268 . S
O131 Sc111 2.105 . S
O131 C116 1.268 . S
Sc132 O135 2.025 . S
Sc132 O142 2.105 . S
Sc132 O145 2.105 . S
Sc132 O148 2.105 . S
Sc132 O151 2.105 . S
Sc133 O135 2.025 . S
Sc133 O143 2.105 . S
Sc133 O147 2.105 1_545 S
Sc133 O149 2.105 . S
Sc133 O153 2.105 . S
Sc134 O135 2.025 . S
Sc134 O144 2.105 . S
Sc134 O146 2.105 . S
Sc134 O150 2.105 . S
Sc134 O152 2.105 . S
O135 Sc132 2.025 . S
O135 Sc133 2.025 . S
O135 Sc134 2.025 . S
C136 O142 1.268 . S
C136 O152 1.268 . S
C137 O143 1.268 . S
C137 O151 1.268 . S
C138 O144 1.268 . S
C138 O153 1.268 . S
C139 O145 1.268 . S
C139 O149 1.268 . S
C140 O146 1.268 . S
C140 O148 1.268 . S
C141 O147 1.268 . S
C141 O150 1.268 1_565 S
O142 Sc132 2.105 . S
O142 C136 1.268 . S
O143 Sc133 2.105 . S
O143 C137 1.268 . S
O144 Sc134 2.105 . S
O144 C138 1.268 . S
O145 Sc132 2.105 . S
O145 C139 1.268 . S
O146 Sc134 2.105 . S
O146 C140 1.268 . S
O147 Sc133 2.105 1_565 S
O147 C141 1.268 . S
O148 Sc132 2.105 . S
O148 C140 1.268 . S
O149 Sc133 2.105 . S
O149 C139 1.268 . S
O150 Sc134 2.105 . S
O150 C141 1.268 1_545 S
O151 Sc132 2.105 . S
O151 C137 1.268 . S
O152 Sc134 2.105 . S
O152 C136 1.268 . S
O153 Sc133 2.105 . S
O153 C138 1.268 . S
Sc154 O157 2.025 . S
Sc154 O164 2.105 . S
Sc154 O167 2.105 . S
Sc154 O170 2.105 . S
Sc154 O173 2.105 . S
Sc155 O157 2.025 . S
Sc155 O165 2.105 . S
Sc155 O169 2.105 1_655 S
Sc155 O171 2.105 1_655 S
Sc155 O175 2.105 . S
Sc156 O157 2.025 . S
Sc156 O166 2.105 . S
Sc156 O168 2.105 . S
Sc156 O172 2.105 . S
Sc156 O174 2.105 . S
O157 Sc154 2.025 . S
O157 Sc155 2.025 . S
O157 Sc156 2.025 . S
C158 O164 1.268 . S
C158 O174 1.268 . S
C159 O165 1.268 . S
C159 O173 1.268 . S
C160 O166 1.268 . S
C160 O175 1.268 . S
C161 O167 1.268 . S
C161 O171 1.269 1_655 S
C162 O168 1.268 . S
C162 O170 1.268 . S
C163 O169 1.268 . S
C163 O172 1.268 1_455 S
O164 Sc154 2.105 . S
O164 C158 1.268 . S
O165 Sc155 2.105 . S
O165 C159 1.268 . S
O166 Sc156 2.105 . S
O166 C160 1.268 . S
O167 Sc154 2.105 . S
O167 C161 1.268 . S
O168 Sc156 2.105 . S
O168 C162 1.268 . S
O169 Sc155 2.105 1_455 S
O169 C163 1.268 . S
O170 Sc154 2.105 . S
O170 C162 1.268 . S
O171 Sc155 2.105 1_455 S
O171 C161 1.269 1_455 S
O172 Sc156 2.105 . S
O172 C163 1.268 1_655 S
O173 Sc154 2.105 . S
O173 C159 1.268 . S
O174 Sc156 2.105 . S
O174 C158 1.268 . S
O175 Sc155 2.105 . S
O175 C160 1.268 . S
Sc176 O179 2.025 . S
Sc176 O186 2.105 . S
Sc176 O189 2.105 . S
Sc176 O192 2.105 . S
Sc176 O195 2.105 . S
Sc177 O179 2.025 . S
Sc177 O187 2.105 . S
Sc177 O191 2.105 . S
Sc177 O193 2.105 . S
Sc177 O197 2.105 . S
Sc178 O179 2.025 . S
Sc178 O188 2.105 . S
Sc178 O190 2.105 . S
Sc178 O194 2.105 . S
Sc178 O196 2.105 . S
O179 Sc176 2.025 . S
O179 Sc177 2.025 . S
O179 Sc178 2.025 . S
C180 O186 1.268 . S
C180 O196 1.268 . S
C181 O187 1.268 . S
C181 O195 1.268 . S
C182 O188 1.268 . S
C182 O197 1.268 . S
C183 O189 1.268 . S
C183 O193 1.268 . S
C184 O190 1.268 . S
C184 O192 1.268 . S
C185 O191 1.268 . S
C185 O194 1.268 . S
O186 Sc176 2.105 . S
O186 C180 1.268 . S
O187 Sc177 2.105 . S
O187 C181 1.268 . S
O188 Sc178 2.105 . S
O188 C182 1.268 . S
O189 Sc176 2.105 . S
O189 C183 1.268 . S
O190 Sc178 2.105 . S
O190 C184 1.268 . S
O191 Sc177 2.105 . S
O191 C185 1.268 . S
O192 Sc176 2.105 . S
O192 C184 1.268 . S
O193 Sc177 2.105 . S
O193 C183 1.268 . S
O194 Sc178 2.105 . S
O194 C185 1.268 . S
O195 Sc176 2.105 . S
O195 C181 1.268 . S
O196 Sc178 2.105 . S
O196 C180 1.268 . S
O197 Sc177 2.105 . S
O197 C182 1.268 . S
C198 C199 1.387 . S
C198 H202 0.950 . S
C198 C207 1.390 1_554 S
C199 C198 1.387 . S
C199 C201 1.387 . S
H200 C207 0.950 . S
C201 C199 1.387 . S
C201 C203 1.390 . S
C201 H205 0.950 . S
H202 C198 0.950 . S
C203 C201 1.390 . S
C203 C204 1.387 1_554 S
C203 H206 0.949 . S
C204 C203 1.387 1_556 S
C204 C207 1.387 . S
H205 C201 0.950 . S
H206 C203 0.949 . S
C207 C198 1.390 1_556 S
C207 H200 0.950 . S
C207 C204 1.387 . S
C208 C209 1.387 1_556 S
C208 H212 0.950 . S
C208 C217 1.390 . S
C209 C208 1.387 1_554 S
C209 C211 1.387 . S
H210 C217 0.950 . S
C211 C209 1.387 . S
C211 C213 1.390 . S
C211 H215 0.950 . S
H212 C208 0.950 . S
C213 C211 1.390 . S
C213 C214 1.387 1_554 S
C213 H216 0.950 . S
C214 C213 1.387 1_556 S
C214 C217 1.387 . S
H215 C211 0.950 . S
H216 C213 0.950 . S
C217 C208 1.390 . S
C217 H210 0.950 . S
C217 C214 1.387 . S
C218 C219 1.387 1_554 S
C218 H222 0.950 . S
C218 C227 1.390 . S
C219 C218 1.387 1_556 S
C219 C221 1.387 . S
H220 C227 0.950 . S
C221 C219 1.387 . S
C221 C223 1.390 . S
C221 H225 0.950 . S
H222 C218 0.950 . S
C223 C221 1.390 . S
C223 C224 1.387 1_556 S
C223 H226 0.950 . S
C224 C223 1.387 1_554 S
C224 C227 1.387 . S
H225 C221 0.950 . S
H226 C223 0.950 . S
C227 C218 1.390 . S
C227 H220 0.950 . S
C227 C224 1.387 . S
C228 C229 1.387 1_556 S
C228 H232 0.950 . S
C228 C237 1.390 . S
C229 C228 1.387 1_554 S
C229 C231 1.387 . S
H230 C237 0.950 . S
C231 C229 1.387 . S
C231 C233 1.390 . S
C231 H235 0.950 . S
H232 C228 0.950 . S
C233 C231 1.390 . S
C233 C234 1.387 1_554 S
C233 H236 0.950 . S
C234 C233 1.387 1_556 S
C234 C237 1.387 . S
H235 C231 0.950 . S
H236 C233 0.950 . S
C237 C228 1.390 . S
C237 H230 0.950 . S
C237 C234 1.387 . S
C238 C239 1.387 . S
C238 H242 0.950 . S
C238 C247 1.390 1_556 S
C239 C238 1.387 . S
C239 C241 1.387 . S
H240 C247 0.950 . S
C241 C239 1.387 . S
C241 C243 1.390 1_556 S
C241 H245 0.950 . S
H242 C238 0.950 . S
C243 C241 1.390 1_554 S
C243 C244 1.387 . S
C243 H246 0.950 . S
C244 C243 1.387 . S
C244 C247 1.387 . S
H245 C241 0.950 . S
H246 C243 0.950 . S
C247 C238 1.390 1_554 S
C247 H240 0.950 . S
C247 C244 1.387 . S
C248 C249 1.387 . S
C248 H252 0.950 . S
C248 C257 1.390 1_556 S
C249 C248 1.387 . S
C249 C251 1.387 . S
H250 C257 0.950 . S
C251 C249 1.387 . S
C251 C253 1.390 1_556 S
C251 H255 0.950 . S
H252 C248 0.950 . S
C253 C251 1.390 1_554 S
C253 C254 1.387 . S
C253 H256 0.950 . S
C254 C253 1.387 . S
C254 C257 1.387 . S
H255 C251 0.950 . S
H256 C253 0.950 . S
C257 C248 1.390 1_554 S
C257 H250 0.950 . S
C257 C254 1.387 . S
C258 C259 1.387 . S
C258 H262 0.950 . S
C258 C267 1.390 1_655 S
C259 C258 1.387 . S
C259 C261 1.387 . S
H260 C267 0.950 . S
C261 C259 1.387 . S
C261 C263 1.390 . S
C261 H265 0.950 . S
H262 C258 0.950 . S
C263 C261 1.390 . S
C263 C264 1.383 1_655 S
C263 H266 0.950 . S
C264 C263 1.383 1_455 S
C264 C267 1.382 . S
H265 C261 0.950 . S
H266 C263 0.950 . S
C267 C258 1.390 1_455 S
C267 H260 0.950 . S
C267 C264 1.382 . S
C268 C269 1.387 . S
C268 H272 0.950 . S
C268 C277 1.390 . S
C269 C268 1.387 . S
C269 C271 1.387 . S
H270 C277 0.950 . S
C271 C269 1.387 . S
C271 C273 1.390 . S
C271 H275 0.950 . S
H272 C268 0.950 . S
C273 C271 1.390 . S
C273 C274 1.387 . S
C273 H276 0.950 . S
C274 C273 1.387 . S
C274 C277 1.387 . S
H275 C271 0.950 . S
H276 C273 0.950 . S
C277 C268 1.390 . S
C277 H270 0.950 . S
C277 C274 1.387 . S
C278 C279 1.387 . S
C278 H282 0.950 . S
C278 C287 1.390 . S
C279 C278 1.387 . S
C279 C281 1.387 . S
H280 C287 0.950 1_565 S
C281 C279 1.387 . S
C281 C283 1.390 . S
C281 H285 0.950 . S
H282 C278 0.950 . S
C283 C281 1.390 . S
C283 C284 1.387 . S
C283 H286 0.950 . S
C284 C283 1.387 . S
C284 C287 1.387 . S
H285 C281 0.950 . S
H286 C283 0.950 . S
C287 C278 1.390 . S
C287 H280 0.950 1_545 S
C287 C284 1.387 . S
C288 C289 1.387 . S
C288 H292 0.950 . S
C288 C297 1.390 . S
C289 C288 1.387 . S
C289 C291 1.387 . S
H290 C297 0.950 . S
C291 C289 1.387 . S
C291 C293 1.390 . S
C291 H295 0.950 . S
H292 C288 0.950 . S
C293 C291 1.390 . S
C293 C294 1.387 . S
C293 H296 0.950 . S
C294 C293 1.387 . S
C294 C297 1.387 . S
H295 C291 0.950 . S
H296 C293 0.950 . S
C297 C288 1.390 . S
C297 H290 0.950 . S
C297 C294 1.387 . S
C298 C299 1.387 . S
C298 H302 0.950 . S
C298 C307 1.390 . S
C299 C298 1.387 . S
C299 C301 1.387 . S
H300 C307 0.950 . S
C301 C299 1.387 . S
C301 C303 1.390 . S
C301 H305 0.950 . S
H302 C298 0.950 . S
C303 C301 1.390 . S
C303 C304 1.387 . S
C303 H306 0.950 . S
C304 C303 1.387 . S
C304 C307 1.387 . S
H305 C301 0.950 . S
H306 C303 0.950 . S
C307 C298 1.390 . S
C307 H300 0.950 . S
C307 C304 1.387 . S
C308 C309 1.387 . S
C308 H312 0.950 . S
C308 C317 1.390 . S
C309 C308 1.387 . S
C309 C311 1.387 . S
H310 C317 0.950 . S
C311 C309 1.387 . S
C311 C313 1.390 . S
C311 H315 0.950 . S
H312 C308 0.950 . S
C313 C311 1.390 . S
C313 C314 1.387 . S
C313 H316 0.950 . S
C314 C313 1.387 . S
C314 C317 1.387 . S
H315 C311 0.950 . S
H316 C313 0.950 . S
C317 C308 1.390 . S
C317 H310 0.950 . S
C317 C314 1.387 . S
C318 C319 1.387 . S
C318 H322 0.950 . S
C318 C327 1.390 . S
C319 C318 1.387 . S
C319 C321 1.387 . S
H320 C327 0.950 . S
C321 C319 1.387 . S
C321 C323 1.390 . S
C321 H325 0.950 . S
H322 C318 0.950 . S
C323 C321 1.390 . S
C323 C324 1.387 . S
C323 H326 0.950 . S
C324 C323 1.387 . S
C324 C327 1.387 . S
H325 C321 0.950 . S
H326 C323 0.950 . S
C327 C318 1.390 . S
C327 H320 0.950 . S
C327 C324 1.387 . S
C328 C329 1.387 . S
C328 H332 0.950 . S
C328 C337 1.390 . S
C329 C328 1.387 . S
C329 C331 1.387 . S
H330 C337 0.950 . S
C331 C329 1.387 . S
C331 C333 1.390 . S
C331 H335 0.950 . S
H332 C328 0.950 . S
C333 C331 1.390 . S
C333 C334 1.387 . S
C333 H336 0.950 . S
C334 C333 1.387 . S
C334 C337 1.387 . S
H335 C331 0.950 . S
H336 C333 0.950 . S
C337 C328 1.390 . S
C337 H330 0.950 . S
C337 C334 1.387 . S
C338 C339 1.387 . S
C338 H342 0.950 . S
C338 C347 1.390 . S
C339 C338 1.387 . S
C339 C341 1.387 . S
H340 C347 0.950 . S
C341 C339 1.387 . S
C341 C343 1.390 . S
C341 H345 0.950 . S
H342 C338 0.950 . S
C343 C341 1.390 . S
C343 C344 1.387 . S
C343 H346 0.950 . S
C344 C343 1.387 . S
C344 C347 1.387 . S
H345 C341 0.950 . S
H346 C343 0.950 . S
C347 C338 1.390 . S
C347 H340 0.950 . S
C347 C344 1.387 . S
C348 C349 1.387 . S
C348 H352 0.950 . S
C348 C357 1.390 . S
C349 C348 1.387 . S
C349 C351 1.387 . S
H350 C357 0.950 . S
C351 C349 1.387 . S
C351 C353 1.373 1_565 S
C351 H355 0.950 . S
H352 C348 0.950 . S
C353 C351 1.373 1_545 S
C353 C354 1.388 . S
C353 H356 0.967 . S
C354 C353 1.388 . S
C354 C357 1.373 1_545 S
H355 C351 0.950 . S
H356 C353 0.967 . S
C357 C348 1.390 . S
C357 H350 0.950 . S
C357 C354 1.373 1_565 S
C358 C359 1.387 . S
C358 H362 0.950 1_455 S
C358 C367 1.390 . S
C359 C358 1.387 . S
C359 C361 1.387 . S
H360 C367 0.950 . S
C361 C359 1.387 . S
C361 C363 1.390 . S
C361 H365 0.950 . S
H362 C358 0.950 1_655 S
C363 C361 1.390 . S
C363 C364 1.387 . S
C363 H366 0.950 . S
C364 C363 1.387 . S
C364 C367 1.387 . S
H365 C361 0.950 . S
H366 C363 0.950 . S
C367 C358 1.390 . S
C367 H360 0.950 . S
C367 C364 1.387 . S
C368 C369 1.387 . S
C368 H372 0.950 . S
C368 C377 1.390 . S
C369 C368 1.387 . S
C369 C371 1.387 . S
H370 C377 0.950 . S
C371 C369 1.387 . S
C371 C373 1.390 . S
C371 H375 0.950 . S
H372 C368 0.950 . S
C373 C371 1.390 . S
C373 C374 1.387 . S
C373 H376 0.950 . S
C374 C373 1.387 . S
C374 C377 1.387 . S
H375 C371 0.950 . S
H376 C373 0.950 . S
C377 C368 1.390 . S
C377 H370 0.950 . S
C377 C374 1.387 . S
C378 C379 1.387 . S
C378 H382 0.950 . S
C378 C387 1.390 . S
C379 C378 1.387 . S
C379 C381 1.387 . S
H380 C387 0.950 1_655 S
C381 C379 1.387 . S
C381 C383 1.390 . S
C381 H385 0.950 . S
H382 C378 0.950 . S
C383 C381 1.390 . S
C383 C384 1.387 . S
C383 H386 0.950 . S
C384 C383 1.387 . S
C384 C387 1.387 . S
H385 C381 0.950 . S
H386 C383 0.950 . S
C387 C378 1.390 . S
C387 H380 0.950 1_455 S
C387 C384 1.387 . S
C388 C389 1.387 . S
C388 H392 0.950 . S
C388 C397 1.390 . S
C389 C388 1.387 . S
C389 C391 1.387 . S
H390 C397 0.950 . S
C391 C389 1.387 . S
C391 C393 1.390 . S
C391 H395 0.950 . S
H392 C388 0.950 . S
C393 C391 1.390 . S
C393 C394 1.387 . S
C393 H396 0.950 . S
C394 C393 1.387 . S
C394 C397 1.387 . S
H395 C391 0.950 . S
H396 C393 0.950 . S
C397 C388 1.390 . S
C397 H390 0.950 . S
C397 C394 1.387 . S
C398 C399 1.387 . S
C398 H402 0.950 . S
C398 C407 1.390 . S
C399 C398 1.387 . S
C399 C401 1.387 1_565 S
H400 C407 0.950 . S
C401 C399 1.387 1_545 S
C401 C403 1.390 . S
C401 H405 0.950 . S
H402 C398 0.950 . S
C403 C401 1.390 . S
C403 C404 1.387 1_545 S
C403 H406 0.950 . S
C404 C403 1.387 1_565 S
C404 C407 1.387 . S
H405 C401 0.950 . S
H406 C403 0.950 . S
C407 C398 1.390 . S
C407 H400 0.950 . S
C407 C404 1.387 . S
C408 C409 1.387 . S
C408 H412 0.950 1_545 S
C408 C417 1.390 . S
C409 C408 1.387 . S
C409 C411 1.387 . S
H410 C417 0.950 1_565 S
C411 C409 1.387 . S
C411 C413 1.390 . S
C411 H415 0.950 . S
H412 C408 0.950 1_565 S
C413 C411 1.390 . S
C413 C414 1.387 . S
C413 H416 0.950 . S
C414 C413 1.387 . S
C414 C417 1.387 . S
H415 C411 0.950 . S
H416 C413 0.950 . S
C417 C408 1.390 . S
C417 H410 0.950 1_545 S
C417 C414 1.387 . S
C418 C419 1.387 1_455 S
C418 H422 0.950 . S
C418 C427 1.390 1_455 S
C419 C418 1.387 1_655 S
C419 C421 1.387 . S
H420 C427 0.950 1_455 S
C421 C419 1.387 . S
C421 C423 1.390 . S
C421 H425 0.950 . S
H422 C418 0.950 . S
C423 C421 1.390 . S
C423 C424 1.387 . S
C423 H426 0.950 . S
C424 C423 1.387 . S
C424 C427 1.387 . S
H425 C421 0.950 . S
H426 C423 0.950 . S
C427 C418 1.390 1_655 S
C427 H420 0.950 1_655 S
C427 C424 1.387 . S
C428 C429 1.387 . S
C428 H432 0.950 . S
C428 C437 1.390 . S
C429 C428 1.387 . S
C429 C431 1.387 . S
H430 C437 0.950 . S
C431 C429 1.387 . S
C431 C433 1.390 . S
C431 H435 0.950 . S
H432 C428 0.950 . S
C433 C431 1.390 . S
C433 C434 1.387 . S
C433 H436 0.950 . S
C434 C433 1.387 . S
C434 C437 1.387 . S
H435 C431 0.950 . S
H436 C433 0.950 . S
C437 C428 1.390 . S
C437 H430 0.950 . S
C437 C434 1.387 . S
C438 C439 1.387 . S
C438 H442 0.950 . S
C438 C447 1.390 . S
C439 C438 1.387 . S
C439 C441 1.387 . S
H440 C447 0.950 . S
C441 C439 1.387 . S
C441 C443 1.390 . S
C441 H445 0.950 . S
H442 C438 0.950 . S
C443 C441 1.390 . S
C443 C444 1.387 . S
C443 H446 0.950 . S
C444 C443 1.387 . S
C444 C447 1.387 . S
H445 C441 0.950 . S
H446 C443 0.950 . S
C447 C438 1.390 . S
C447 H440 0.950 . S
C447 C444 1.387 . S
C448 C449 1.387 . S
C448 H452 0.950 . S
C448 C457 1.390 1_565 S
C449 C448 1.387 . S
C449 C451 1.387 . S
H450 C457 0.950 . S
C451 C449 1.387 . S
C451 C453 1.390 1_565 S
C451 H455 0.950 . S
H452 C448 0.950 . S
C453 C451 1.390 1_545 S
C453 C454 1.387 . S
C453 H456 0.950 . S
C454 C453 1.387 . S
C454 C457 1.387 . S
H455 C451 0.950 . S
H456 C453 0.950 . S
C457 C448 1.390 1_545 S
C457 H450 0.950 . S
C457 C454 1.387 . S
C458 C459 1.387 . S
C458 H462 0.950 . S
C458 C467 1.390 1_655 S
C459 C458 1.387 . S
C459 C461 1.387 . S
H460 C467 0.950 . S
C461 C459 1.387 . S
C461 C463 1.390 1_655 S
C461 H465 0.950 . S
H462 C458 0.950 . S
C463 C461 1.390 1_455 S
C463 C464 1.387 . S
C463 H466 0.950 . S
C464 C463 1.387 . S
C464 C467 1.387 . S
H465 C461 0.950 . S
H466 C463 0.950 . S
C467 C458 1.390 1_455 S
C467 H460 0.950 . S
C467 C464 1.387 . S
C199 C26 1.530 . S
C204 C5 1.673 . S
C209 C48 1.528 . S
C214 C27 1.671 . S
C219 C49 1.672 . S
C224 C4 1.527 . S
C229 C53 1.673 . S
C234 C30 1.529 . S
C239 C52 1.525 . S
C244 C9 1.671 . S
C249 C8 1.530 . S
C254 C31 1.673 . S
C259 C71 1.673 . S
C264 C92 1.541 . S
C269 C114 1.528 . S
C274 C93 1.672 . S
C279 C115 1.672 . S
C284 C70 1.528 1_545 S
C289 C96 1.529 . S
C294 C119 1.672 . S
C299 C118 1.528 . S
C304 C75 1.672 . S
C309 C97 1.671 . S
C314 C74 1.525 . S
C319 C158 1.525 . S
C324 C137 1.671 . S
C329 C159 1.671 . S
C334 C180 1.528 . S
C339 C181 1.670 . S
C344 C136 1.525 . S
C349 C185 1.672 . S
C354 C162 1.545 . S
C359 C184 1.528 1_455 S
C364 C141 1.671 . S
C369 C140 1.530 . S
C374 C163 1.673 . S
C379 C117 1.415 . S
C384 C6 1.414 . S
C389 C73 1.417 . S
C394 C28 1.417 . S
C399 C50 1.416 . S
C404 C95 1.417 . S
C409 C51 1.415 . S
C414 C138 1.415 . S
C419 C7 1.415 . S
C424 C160 1.415 . S
C429 C182 1.416 . S
C434 C29 1.417 . S
C439 C72 1.417 . S
C444 C183 1.416 . S
C449 C94 1.417 . S
C454 C139 1.417 . S
C459 C161 1.417 . S
C464 C116 1.417 . S
