# Generated by pormake.
# Topology uol, (4)-cn, num edge types: 1
# Building blocks:
#     Node 0, Type 0, BuildingBlock: KUFVIS_clean_sbu_0, # of connection points: 4
#     Node 1, Type 0, BuildingBlock: KUFVIS_clean_sbu_0, # of connection points: 4
#     Node 2, Type 0, BuildingBlock: KUFVIS_clean_sbu_0, # of connection points: 4
#     Node 3, Type 0, BuildingBlock: KUFVIS_clean_sbu_0, # of connection points: 4
#     Node 4, Type 0, BuildingBlock: KUFVIS_clean_sbu_0, # of connection points: 4
#     Node 5, Type 0, BuildingBlock: KUFVIS_clean_sbu_0, # of connection points: 4
#     Node 6, Type 0, BuildingBlock: KUFVIS_clean_sbu_0, # of connection points: 4
#     Node 7, Type 0, BuildingBlock: KUFVIS_clean_sbu_0, # of connection points: 4
#     Node 8, Type 0, BuildingBlock: KUFVIS_clean_sbu_0, # of connection points: 4
#     Node 9, Type 0, BuildingBlock: KUFVIS_clean_sbu_0, # of connection points: 4
#     Node 10, Type 0, BuildingBlock: KUFVIS_clean_sbu_0, # of connection points: 4
#     Node 11, Type 0, BuildingBlock: KUFVIS_clean_sbu_0, # of connection points: 4
#     Edge 12, Type (0, 0), BuildingBlock: CIFDUS_clean_linker_0, # of connection points: 2
#     Edge 13, Type (0, 0), BuildingBlock: CIFDUS_clean_linker_0, # of connection points: 2
#     Edge 14, Type (0, 0), BuildingBlock: CIFDUS_clean_linker_0, # of connection points: 2
#     Edge 15, Type (0, 0), BuildingBlock: CIFDUS_clean_linker_0, # of connection points: 2
#     Edge 16, Type (0, 0), BuildingBlock: CIFDUS_clean_linker_0, # of connection points: 2
#     Edge 17, Type (0, 0), BuildingBlock: CIFDUS_clean_linker_0, # of connection points: 2
#     Edge 18, Type (0, 0), BuildingBlock: CIFDUS_clean_linker_0, # of connection points: 2
#     Edge 19, Type (0, 0), BuildingBlock: CIFDUS_clean_linker_0, # of connection points: 2
#     Edge 20, Type (0, 0), BuildingBlock: CIFDUS_clean_linker_0, # of connection points: 2
#     Edge 21, Type (0, 0), BuildingBlock: CIFDUS_clean_linker_0, # of connection points: 2
#     Edge 22, Type (0, 0), BuildingBlock: CIFDUS_clean_linker_0, # of connection points: 2
#     Edge 23, Type (0, 0), BuildingBlock: CIFDUS_clean_linker_0, # of connection points: 2
#     Edge 24, Type (0, 0), BuildingBlock: CIFDUS_clean_linker_0, # of connection points: 2
#     Edge 25, Type (0, 0), BuildingBlock: CIFDUS_clean_linker_0, # of connection points: 2
#     Edge 26, Type (0, 0), BuildingBlock: CIFDUS_clean_linker_0, # of connection points: 2
#     Edge 27, Type (0, 0), BuildingBlock: CIFDUS_clean_linker_0, # of connection points: 2
#     Edge 28, Type (0, 0), BuildingBlock: CIFDUS_clean_linker_0, # of connection points: 2
#     Edge 29, Type (0, 0), BuildingBlock: CIFDUS_clean_linker_0, # of connection points: 2
#     Edge 30, Type (0, 0), BuildingBlock: CIFDUS_clean_linker_0, # of connection points: 2
#     Edge 31, Type (0, 0), BuildingBlock: CIFDUS_clean_linker_0, # of connection points: 2
#     Edge 32, Type (0, 0), BuildingBlock: CIFDUS_clean_linker_0, # of connection points: 2
#     Edge 33, Type (0, 0), BuildingBlock: CIFDUS_clean_linker_0, # of connection points: 2
#     Edge 34, Type (0, 0), BuildingBlock: CIFDUS_clean_linker_0, # of connection points: 2
#     Edge 35, Type (0, 0), BuildingBlock: CIFDUS_clean_linker_0, # of connection points: 2
# Relax obj value: 0.140
# Max RMSD: 0.196
# Mean RMSD: 0.196
data_MOF--net-uol--node1-KUFVIS_clean_sbu_0--edge1-CIFDUS_clean_linker_0
_symmetry_space_group_name_H-M    P1
_symmetry_Int_Tables_number       1
_symmetry_cell_setting            triclinic
loop_
_symmetry_equiv_pos_as_xyz
'x, y, z'
_cell_length_a     28.005398
_cell_length_b     27.957472
_cell_length_c     59.870242
_cell_angle_alpha  89.949598
_cell_angle_beta   89.959485
_cell_angle_gamma 120.00655
loop_
_atom_site_label
_atom_site_type_symbol
_atom_site_fract_x
_atom_site_fract_y
_atom_site_fract_z
_atom_type_partial_charge
Mn0 Mn 0.13333 0.33021 0.09872 0.0
Mn1 Mn 0.15674 0.3897 0.1496 0.0
C2 C 0.1655 0.29752 0.12675 0.0
C3 C 0.16805 0.335 0.06276 0.0
C4 C 0.04276 0.30643 0.1325 0.0
O5 O 0.13009 0.40005 0.09341 0.0
O6 O 0.15745 0.44207 0.12675 0.0
C7 C 0.27217 0.47873 0.14291 0.0
N8 N 0.23417 0.4342 0.15471 0.0
C9 C 0.30281 0.44274 0.18107 0.0
C10 C 0.34265 0.48895 0.16929 0.0
C11 C 0.32729 0.50687 0.15008 0.0
C12 C 0.24859 0.41628 0.17309 0.0
H13 H 0.26043 0.4926 0.12814 0.0
C14 C 0.14401 0.44124 0.10625 0.0
O15 O 0.11519 0.30809 0.06651 0.0
O16 O 0.19972 0.35899 0.07971 0.0
N17 N 0.15736 0.3448 0.17364 0.0
C18 C 0.11454 0.29799 0.18247 0.0
C19 C 0.12336 0.27369 0.20139 0.0
C20 C 0.17582 0.29822 0.21127 0.0
C21 C 0.219 0.34695 0.20215 0.0
C22 C 0.20776 0.36927 0.18327 0.0
H23 H 0.07401 0.27915 0.17509 0.0
O24 O 0.14408 0.26876 0.10881 0.0
O25 O 0.17031 0.34642 0.12728 0.0
O26 O 0.05706 0.29355 0.11416 0.0
O27 O 0.07641 0.34351 0.14592 0.0
C28 C 0.27299 0.3737 0.21081 0.0
C29 C 0.3149 0.42147 0.20024 0.0
H30 H 0.38521 0.51073 0.17475 0.0
H31 H 0.35785 0.54234 0.14084 0.0
H32 H 0.08977 0.23617 0.20836 0.0
H33 H 0.18252 0.2792 0.22579 0.0
H34 H 0.28296 0.35731 0.22536 0.0
H35 H 0.35646 0.44111 0.20683 0.0
Mn36 Mn 0.80829 0.12278 0.26251 0.0
Mn37 Mn 0.77669 0.16513 0.3103 0.0
C38 C 0.87635 0.16977 0.28874 0.0
C39 C 0.83448 0.14038 0.22499 0.0
C40 C 0.74615 0.04614 0.30136 0.0
O41 O 0.73393 0.11614 0.25586 0.0
O42 O 0.72348 0.15641 0.28662 0.0
C43 C 0.79955 0.27624 0.2964 0.0
N44 N 0.80818 0.24349 0.31074 0.0
C45 C 0.86826 0.32141 0.33358 0.0
C46 C 0.85977 0.35597 0.31914 0.0
C47 C 0.8254 0.33329 0.30043 0.0
C48 C 0.84123 0.26486 0.32876 0.0
H49 H 0.77312 0.25889 0.28202 0.0
C50 C 0.70862 0.13544 0.2671 0.0
O51 O 0.80956 0.09028 0.23282 0.0
O52 O 0.84298 0.17954 0.23878 0.0
N53 N 0.82495 0.17567 0.33477 0.0
C54 C 0.83223 0.1374 0.34602 0.0
C55 C 0.86724 0.15373 0.36468 0.0
C56 C 0.89383 0.20901 0.37174 0.0
C57 C 0.88521 0.24753 0.36005 0.0
C58 C 0.84975 0.22882 0.34161 0.0
H59 H 0.81174 0.0948 0.34075 0.0
O60 O 0.8825 0.14048 0.27343 0.0
O61 O 0.83107 0.172 0.28793 0.0
O62 O 0.77181 0.05387 0.28284 0.0
O63 O 0.74326 0.0843 0.31189 0.0
C64 C 0.91173 0.30407 0.36556 0.0
C65 C 0.90336 0.341 0.3523 0.0
H66 H 0.87984 0.40003 0.32212 0.0
H67 H 0.81886 0.35974 0.28915 0.0
H68 H 0.87378 0.12379 0.37358 0.0
H69 H 0.92124 0.22155 0.38601 0.0
H70 H 0.93954 0.31977 0.37968 0.0
H71 H 0.92478 0.38452 0.35646 0.0
Mn72 Mn 0.64763 0.81154 0.43853 0.0
Mn73 Mn 0.59342 0.78007 0.49054 0.0
C74 C 0.68144 0.87908 0.46574 0.0
C75 C 0.6433 0.84045 0.40227 0.0
C76 C 0.67308 0.74585 0.47221 0.0
O77 O 0.57651 0.73803 0.43456 0.0
O78 O 0.53906 0.72734 0.46883 0.0
C79 C 0.50388 0.8063 0.48567 0.0
N80 N 0.54965 0.81341 0.49655 0.0
C81 C 0.54392 0.87463 0.52324 0.0
C82 C 0.49647 0.86771 0.51241 0.0
C83 C 0.47648 0.83352 0.49351 0.0
C84 C 0.56932 0.84627 0.51472 0.0
H85 H 0.48848 0.78004 0.47113 0.0
C86 C 0.53713 0.71229 0.44848 0.0
O87 O 0.66876 0.81323 0.40635 0.0
O88 O 0.61925 0.84901 0.41902 0.0
N89 N 0.64131 0.82738 0.51346 0.0
C90 C 0.68992 0.8331 0.52084 0.0
C91 C 0.71666 0.86767 0.53913 0.0
C92 C 0.69286 0.89544 0.5498 0.0
C93 C 0.64251 0.88843 0.54206 0.0
C94 C 0.61765 0.85328 0.52382 0.0
H95 H 0.70832 0.8117 0.51277 0.0
O96 O 0.70986 0.88464 0.44784 0.0
O97 O 0.63316 0.83467 0.46698 0.0
O98 O 0.68461 0.77205 0.45368 0.0
O99 O 0.63826 0.74466 0.48629 0.0
C100 C 0.61684 0.91625 0.55129 0.0
C101 C 0.56767 0.90947 0.54185 0.0
H102 H 0.47538 0.88886 0.51833 0.0
H103 H 0.44006 0.82821 0.485 0.0
H104 H 0.75557 0.87296 0.54497 0.0
H105 H 0.71389 0.92248 0.56376 0.0
H106 H 0.63519 0.94385 0.56535 0.0
H107 H 0.54891 0.9319 0.54882 0.0
Mn108 Mn 0.87579 0.68397 0.5906 0.0
Mn109 Mn 0.84407 0.6207 0.64106 0.0
C110 C 0.83878 0.71427 0.61773 0.0
C111 C 0.85024 0.68684 0.55376 0.0
C112 C 0.96008 0.7071 0.62737 0.0
O113 O 0.87965 0.61414 0.58517 0.0
O114 O 0.85037 0.57213 0.61844 0.0
C115 C 0.73188 0.52983 0.63035 0.0
N116 N 0.76615 0.57327 0.64351 0.0
C117 C 0.69161 0.55711 0.66814 0.0
C118 C 0.65551 0.51198 0.65492 0.0
C119 C 0.6757 0.49847 0.63588 0.0
C120 C 0.74704 0.5871 0.66168 0.0
H121 H 0.74738 0.51921 0.61577 0.0
C122 C 0.8658 0.57323 0.59824 0.0
O123 O 0.90183 0.71127 0.55957 0.0
O124 O 0.81412 0.65908 0.56909 0.0
N125 N 0.83637 0.66131 0.66515 0.0
C126 C 0.87615 0.70735 0.67561 0.0
C127 C 0.86243 0.72727 0.69466 0.0
C128 C 0.80836 0.69894 0.70308 0.0
C129 C 0.76844 0.65091 0.69236 0.0
C130 C 0.78443 0.63323 0.67335 0.0
H131 H 0.91796 0.72889 0.66941 0.0
O132 O 0.8636 0.74453 0.60046 0.0
O133 O 0.83323 0.665 0.61815 0.0
O134 O 0.94876 0.7191 0.60822 0.0
O135 O 0.92452 0.66962 0.64019 0.0
C136 C 0.71318 0.62043 0.69955 0.0
C137 C 0.67472 0.57375 0.68737 0.0
H138 H 0.61219 0.48759 0.65917 0.0
H139 H 0.64807 0.46382 0.62556 0.0
H140 H 0.89352 0.76426 0.70288 0.0
H141 H 0.7979 0.71455 0.71773 0.0
H142 H 0.69957 0.63318 0.71416 0.0
H143 H 0.63214 0.55125 0.69283 0.0
Mn144 Mn 0.19099 0.85865 0.76295 0.0
Mn145 Mn 0.22425 0.82918 0.81318 0.0
C146 C 0.12539 0.82573 0.79066 0.0
C147 C 0.16236 0.82671 0.72668 0.0
C148 C 0.25983 0.94575 0.79745 0.0
O149 O 0.26292 0.86013 0.75752 0.0
O150 O 0.27427 0.82669 0.79002 0.0
C151 C 0.19213 0.71233 0.80557 0.0
N152 N 0.18783 0.75114 0.81772 0.0
C153 C 0.12545 0.68259 0.84371 0.0
C154 C 0.12948 0.64188 0.83156 0.0
C155 C 0.1628 0.6568 0.81236 0.0
C156 C 0.15552 0.73719 0.8361 0.0
H157 H 0.21775 0.72372 0.79081 0.0
C158 C 0.28787 0.84236 0.76975 0.0
O159 O 0.18889 0.87943 0.73092 0.0
O160 O 0.15281 0.79367 0.74335 0.0
N161 N 0.17984 0.82984 0.83739 0.0
C162 C 0.17806 0.87357 0.84652 0.0
C163 C 0.14503 0.86531 0.86541 0.0
C164 C 0.11491 0.81244 0.87494 0.0
C165 C 0.11817 0.76827 0.8655 0.0
C166 C 0.15171 0.77898 0.84665 0.0
H167 H 0.2014 0.91439 0.83941 0.0
O168 O 0.1193 0.84907 0.77301 0.0
O169 O 0.16859 0.81958 0.79101 0.0
O170 O 0.232 0.93366 0.77929 0.0
O171 O 0.26211 0.91013 0.81013 0.0
C172 C 0.08863 0.71385 0.8738 0.0
C173 C 0.09218 0.67101 0.86288 0.0
H174 H 0.10686 0.599 0.83673 0.0
H175 H 0.1659 0.62559 0.80283 0.0
H176 H 0.14285 0.89964 0.87263 0.0
H177 H 0.08924 0.80617 0.88943 0.0
H178 H 0.06225 0.70429 0.88831 0.0
H179 H 0.0685 0.62917 0.86918 0.0
Mn180 Mn 0.3078 0.18611 0.92648 0.0
Mn181 Mn 0.37615 0.22145 0.97577 0.0
C182 C 0.28021 0.1205 0.9544 0.0
C183 C 0.30265 0.15718 0.88952 0.0
C184 C 0.28852 0.25028 0.96326 0.0
O185 O 0.37665 0.25955 0.91973 0.0
O186 O 0.42267 0.27369 0.95199 0.0
C187 C 0.46509 0.19786 0.96421 0.0
N188 N 0.4233 0.19059 0.97801 0.0
C189 C 0.44248 0.13572 0.00346 0.0
C190 C 0.48594 0.14281 0.98959 0.0
C191 C 0.49708 0.17376 0.96982 0.0
C192 C 0.41172 0.16026 0.99689 0.0
H193 H 0.47398 0.22199 0.94909 0.0
C194 C 0.41933 0.28676 0.9318 0.0
O195 O 0.27806 0.18381 0.89589 0.0
O196 O 0.33102 0.14854 0.90446 0.0
N197 N 0.33792 0.17583 1.00088 0.0
C198 C 0.29294 0.17072 0.01186 0.0
C199 C 0.27524 0.13962 0.03166 0.0
C200 C 0.30474 0.1153 0.04028 0.0
C201 C 0.35162 0.12214 0.02897 0.0
C202 C 0.36702 0.15317 0.00921 0.0
H203 H 0.27059 0.19004 0.00553 0.0
O204 O 0.24864 0.11376 0.93747 0.0
O205 O 0.32937 0.1643 0.95392 0.0
O206 O 0.2741 0.22483 0.94457 0.0
O207 O 0.32784 0.25378 0.97526 0.0
C208 C 0.38305 0.09848 0.03628 0.0
C209 C 0.42825 0.10498 0.02347 0.0
H210 H 0.51084 0.12446 0.9939 0.0
H211 H 0.53044 0.17928 0.95899 0.0
H212 H 0.23912 0.13467 0.04033 0.0
H213 H 0.29088 0.09123 0.05552 0.0
H214 H 0.37209 0.07419 0.05148 0.0
H215 H 0.45143 0.0857 0.02903 0.0
Mn216 Mn 0.67065 0.84714 0.73682 0.0
Mn217 Mn 0.60282 0.82147 0.68778 0.0
C218 C 0.69532 0.80932 0.70791 0.0
C219 C 0.67105 0.81501 0.77288 0.0
C220 C 0.69042 0.93621 0.70283 0.0
O221 O 0.60317 0.85332 0.74421 0.0
O222 O 0.55524 0.82279 0.71218 0.0
C223 C 0.51307 0.70699 0.69599 0.0
N224 N 0.55611 0.74398 0.68326 0.0
C225 C 0.54167 0.67384 0.6565 0.0
C226 C 0.49691 0.63502 0.66924 0.0
C227 C 0.48267 0.65166 0.6891 0.0
C228 C 0.57025 0.72844 0.66414 0.0
H229 H 0.5021 0.71968 0.71127 0.0
C230 C 0.55982 0.83825 0.7326 0.0
O231 O 0.6989 0.86753 0.76831 0.0
O232 O 0.64346 0.78217 0.75668 0.0
N233 N 0.64349 0.81881 0.66256 0.0
C234 C 0.69029 0.86034 0.65316 0.0
C235 C 0.71146 0.85 0.63363 0.0
C236 C 0.684 0.79735 0.62383 0.0
C237 C 0.63558 0.75544 0.63366 0.0
C238 C 0.61629 0.76823 0.65306 0.0
H239 H 0.7115 0.90095 0.66055 0.0
O240 O 0.72812 0.83229 0.72472 0.0
O241 O 0.64789 0.80734 0.70888 0.0
O242 O 0.70654 0.92248 0.72047 0.0
O243 O 0.65053 0.90199 0.69061 0.0
C244 C 0.60661 0.70106 0.62535 0.0
C245 C 0.55977 0.66027 0.63678 0.0
H246 H 0.47355 0.59224 0.66405 0.0
H247 H 0.44837 0.62187 0.69908 0.0
H248 H 0.7489 0.88254 0.62617 0.0
H249 H 0.70076 0.78941 0.60889 0.0
H250 H 0.62064 0.68991 0.61041 0.0
H251 H 0.53845 0.61838 0.63045 0.0
Mn252 Mn 0.81433 0.65701 0.9049 0.0
Mn253 Mn 0.77325 0.59378 0.85486 0.0
C254 C 0.87894 0.67927 0.87713 0.0
C255 C 0.84341 0.65425 0.9412 0.0
C256 C 0.75657 0.68844 0.86953 0.0
O257 O 0.73731 0.59305 0.91098 0.0
O258 O 0.71813 0.54821 0.87812 0.0
C259 C 0.78397 0.49553 0.86395 0.0
N260 N 0.7968 0.54087 0.85128 0.0
C261 C 0.85159 0.52055 0.82627 0.0
C262 C 0.83863 0.47338 0.83896 0.0
C263 C 0.8048 0.46092 0.85792 0.0
C264 C 0.82945 0.55336 0.83305 0.0
H265 H 0.75807 0.48594 0.87856 0.0
C266 C 0.70647 0.55223 0.89848 0.0
O267 O 0.82171 0.68466 0.93637 0.0
O268 O 0.8461 0.62453 0.92523 0.0
N269 N 0.82195 0.63241 0.83056 0.0
C270 C 0.8332 0.68117 0.82093 0.0
C271 C 0.86796 0.70057 0.80218 0.0
C272 C 0.89014 0.66932 0.79332 0.0
C273 C 0.87728 0.61887 0.8033 0.0
C274 C 0.84225 0.60153 0.82192 0.0
H275 H 0.81615 0.7053 0.82759 0.0
O276 O 0.88926 0.71118 0.89428 0.0
O277 O 0.83146 0.63349 0.87711 0.0
O278 O 0.78263 0.69957 0.88809 0.0
O279 O 0.74868 0.64838 0.85686 0.0
C280 C 0.89911 0.58588 0.79589 0.0
C281 C 0.88638 0.53683 0.8074 0.0
H282 H 0.85482 0.44671 0.83442 0.0
H283 H 0.79486 0.42475 0.86786 0.0
H284 H 0.87772 0.73957 0.79458 0.0
H285 H 0.91737 0.6847 0.77899 0.0
H286 H 0.92649 0.59834 0.7816 0.0
H287 H 0.90409 0.51226 0.80175 0.0
Mn288 Mn 0.1401 0.8226 0.0754 0.0
Mn289 Mn 0.17773 0.78504 0.02773 0.0
C290 C 0.18509 0.88797 0.04781 0.0
C291 C 0.15849 0.85228 0.11242 0.0
C292 C 0.06082 0.75929 0.03742 0.0
O293 O 0.13237 0.74811 0.08327 0.0
O294 O 0.16703 0.73228 0.05205 0.0
C295 C 0.28727 0.80464 0.04193 0.0
N296 N 0.2555 0.81345 0.02717 0.0
C297 C 0.33371 0.86866 0.00356 0.0
C298 C 0.36726 0.85989 0.01844 0.0
C299 C 0.34396 0.8279 0.03775 0.0
C300 C 0.27751 0.84436 0.0086 0.0
H301 H 0.26942 0.78002 0.05677 0.0
C302 C 0.14799 0.71974 0.07195 0.0
O303 O 0.10841 0.82645 0.10479 0.0
O304 O 0.19747 0.85929 0.09876 0.0
N305 N 0.18986 0.83156 0.00239 0.0
C306 C 0.15258 0.83918 0.99059 0.0
C307 C 0.16961 0.87167 0.97114 0.0
C308 C 0.22447 0.89521 0.96382 0.0
C309 C 0.2619 0.88614 0.97606 0.0
C310 C 0.24253 0.85327 0.99529 0.0
H311 H 0.11025 0.82087 0.99603 0.0
O312 O 0.1576 0.8958 0.06341 0.0
O313 O 0.18764 0.84271 0.04922 0.0
O314 O 0.07033 0.78528 0.0559 0.0
O315 O 0.0974 0.75479 0.02638 0.0
C316 C 0.31807 0.90989 0.97036 0.0
C317 C 0.35399 0.90133 0.98415 0.0
H318 H 0.41103 0.8779 0.01531 0.0
H319 H 0.36963 0.82116 0.04936 0.0
H320 H 0.14051 0.87857 0.9618 0.0
H321 H 0.23757 0.92068 0.94894 0.0
H322 H 0.3343 0.93572 0.95566 0.0
H323 H 0.39727 0.9206 0.9798 0.0
Mn324 Mn 0.33932 0.15647 0.23955 0.0
Mn325 Mn 0.40367 0.18586 0.18959 0.0
C326 C 0.31334 0.19744 0.21251 0.0
C327 C 0.34241 0.18553 0.27633 0.0
C328 C 0.31621 0.07037 0.20387 0.0
O329 O 0.40605 0.14819 0.24485 0.0
O330 O 0.45242 0.18044 0.2125 0.0
C331 C 0.49547 0.29858 0.19881 0.0
N332 N 0.45121 0.26362 0.18619 0.0
C333 C 0.46465 0.33735 0.16154 0.0
C334 C 0.51068 0.37413 0.17416 0.0
C335 C 0.52605 0.35467 0.19291 0.0
C336 C 0.43596 0.28188 0.16816 0.0
H337 H 0.50726 0.28371 0.21325 0.0
C338 C 0.44821 0.16264 0.23255 0.0
O339 O 0.31348 0.13347 0.27114 0.0
O340 O 0.36905 0.21967 0.2603 0.0
N341 N 0.36181 0.1922 0.16569 0.0
C342 C 0.31407 0.15224 0.15633 0.0
C343 C 0.29177 0.16539 0.1379 0.0
C344 C 0.31907 0.21923 0.12913 0.0
C345 C 0.36849 0.25947 0.13887 0.0
C346 C 0.38886 0.24391 0.15716 0.0
H347 H 0.29296 0.11076 0.16295 0.0
O348 O 0.28175 0.17327 0.22957 0.0
O349 O 0.36055 0.19872 0.2122 0.0
O350 O 0.30154 0.0827 0.22224 0.0
O351 O 0.35501 0.10537 0.19139 0.0
C352 C 0.39746 0.31483 0.13159 0.0
C353 C 0.44543 0.35376 0.14294 0.0
H354 H 0.53419 0.41748 0.16974 0.0
H355 H 0.56133 0.38287 0.20281 0.0
H356 H 0.25355 0.13413 0.13051 0.0
H357 H 0.30143 0.22935 0.11506 0.0
H358 H 0.3826 0.32813 0.11754 0.0
H359 H 0.46678 0.39639 0.13743 0.0
Mn360 Mn 0.18807 0.33708 0.40352 0.0
Mn361 Mn 0.21823 0.38467 0.35043 0.0
C362 C 0.12076 0.29706 0.37663 0.0
C363 C 0.16103 0.34717 0.43932 0.0
C364 C 0.25113 0.3058 0.37072 0.0
O365 O 0.26093 0.40882 0.40637 0.0
O366 O 0.27167 0.44136 0.3713 0.0
C367 C 0.19218 0.47475 0.35398 0.0
N368 N 0.18509 0.42829 0.34364 0.0
C369 C 0.12579 0.4338 0.31596 0.0
C370 C 0.13267 0.48191 0.32623 0.0
C371 C 0.16578 0.50229 0.3454 0.0
C372 C 0.15273 0.40789 0.32539 0.0
H373 H 0.21787 0.49065 0.36864 0.0
C374 C 0.2865 0.4463 0.39176 0.0
O375 O 0.18818 0.32123 0.4362 0.0
O376 O 0.15101 0.36798 0.42181 0.0
N377 N 0.17111 0.33554 0.32775 0.0
C378 C 0.16672 0.28734 0.32044 0.0
C379 C 0.1338 0.26066 0.30176 0.0
C380 C 0.10682 0.28443 0.29045 0.0
C381 C 0.11293 0.33467 0.29796 0.0
C382 C 0.14599 0.35919 0.31676 0.0
H383 H 0.18801 0.26926 0.32884 0.0
O384 O 0.11574 0.27281 0.39565 0.0
O385 O 0.16374 0.34629 0.37428 0.0
O386 O 0.2269 0.29807 0.3896 0.0
O387 O 0.25253 0.33917 0.3558 0.0
C388 C 0.08674 0.36092 0.28778 0.0
C389 C 0.09292 0.41029 0.29684 0.0
H390 H 0.11251 0.50335 0.31963 0.0
H391 H 0.17112 0.53927 0.35348 0.0
H392 H 0.12947 0.222 0.29601 0.0
H393 H 0.08136 0.26365 0.27608 0.0
H394 H 0.06083 0.34288 0.27325 0.0
H395 H 0.07174 0.42951 0.28912 0.0
Mn396 Mn 0.87978 0.194 0.57806 0.0
Mn397 Mn 0.84138 0.22369 0.5287 0.0
C398 C 0.84218 0.12677 0.55086 0.0
C399 C 0.85789 0.16416 0.61511 0.0
C400 C 0.95988 0.25849 0.5402 0.0
O401 O 0.88083 0.26611 0.5844 0.0
O402 O 0.84796 0.27762 0.55179 0.0
C403 C 0.72899 0.19824 0.54152 0.0
N404 N 0.76303 0.19067 0.52756 0.0
C405 C 0.68727 0.13094 0.50374 0.0
C406 C 0.65137 0.13829 0.5178 0.0
C407 C 0.6723 0.17186 0.53683 0.0
C408 C 0.74326 0.15793 0.50937 0.0
H409 H 0.74506 0.22431 0.55608 0.0
C410 C 0.86486 0.29226 0.57182 0.0
O411 O 0.90886 0.19311 0.60858 0.0
O412 O 0.82023 0.15465 0.60042 0.0
N413 N 0.83318 0.17603 0.5043 0.0
C414 C 0.87287 0.17103 0.49311 0.0
C415 C 0.85845 0.13738 0.47405 0.0
C416 C 0.80373 0.11029 0.46639 0.0
C417 C 0.76385 0.11702 0.47789 0.0
C418 C 0.78056 0.15076 0.49687 0.0
H419 H 0.91514 0.19232 0.49874 0.0
O420 O 0.86968 0.12249 0.56737 0.0
O421 O 0.83472 0.16929 0.5512 0.0
O422 O 0.95121 0.23512 0.55934 0.0
O423 O 0.92205 0.25806 0.52815 0.0
C424 C 0.70796 0.09075 0.47152 0.0
C425 C 0.66965 0.09751 0.48449 0.0
H426 H 0.60765 0.11811 0.51422 0.0
H427 H 0.64483 0.17758 0.5478 0.0
H428 H 0.8895 0.13254 0.46522 0.0
H429 H 0.79274 0.08423 0.45172 0.0
H430 H 0.6938 0.06434 0.45694 0.0
H431 H 0.62662 0.07626 0.47967 0.0
H432 H 0.15191 0.63642 0.05055 0.0
H433 H 0.13706 0.69088 0.11631 0.0
H434 H 0.13553 0.61001 0.13285 0.0
H435 H 0.13934 0.52409 0.12854 0.0
H436 H 0.1513 0.46955 0.06236 0.0
H437 H 0.15325 0.55043 0.04615 0.0
C438 C 0.14839 0.63079 0.06852 0.0
C439 C 0.14486 0.66989 0.08216 0.0
C440 C 0.14714 0.58419 0.07787 0.0
C441 C 0.13968 0.66139 0.1054 0.0
C442 C 0.139 0.61525 0.11488 0.0
C443 C 0.14254 0.53003 0.11058 0.0
C444 C 0.1453 0.4908 0.09671 0.0
C445 C 0.14292 0.57645 0.10127 0.0
C446 C 0.14886 0.49886 0.07344 0.0
C447 C 0.15009 0.54519 0.06413 0.0
H448 H 0.62996 0.14706 0.28853 0.0
H449 H 0.68003 0.12561 0.22283 0.0
H450 H 0.60445 0.13345 0.20618 0.0
H451 H 0.52517 0.14839 0.21037 0.0
H452 H 0.47457 0.16685 0.27644 0.0
H453 H 0.54979 0.15863 0.29283 0.0
C454 C 0.62439 0.14399 0.27056 0.0
C455 C 0.66076 0.13602 0.25695 0.0
C456 C 0.58098 0.14837 0.26115 0.0
C457 C 0.65248 0.1315 0.23371 0.0
C458 C 0.60947 0.13629 0.22417 0.0
C459 C 0.53086 0.15088 0.22834 0.0
C460 C 0.49457 0.15852 0.24216 0.0
C461 C 0.57374 0.14519 0.23773 0.0
C462 C 0.50188 0.16087 0.26543 0.0
C463 C 0.54488 0.1562 0.27483 0.0
H464 H 0.50629 0.67398 0.40591 0.0
H465 H 0.45463 0.63554 0.47476 0.0
H466 H 0.37332 0.55018 0.46333 0.0
H467 H 0.31703 0.48563 0.434 0.0
H468 H 0.36676 0.52464 0.36503 0.0
H469 H 0.44841 0.61033 0.37637 0.0
C470 C 0.47727 0.64698 0.41842 0.0
C471 C 0.48688 0.66132 0.44116 0.0
C472 C 0.43014 0.59785 0.41176 0.0
C473 C 0.44844 0.62586 0.45711 0.0
C474 C 0.40186 0.57681 0.45062 0.0
C475 C 0.34578 0.51275 0.42143 0.0
C476 C 0.33583 0.49846 0.39872 0.0
C477 C 0.39239 0.56227 0.42802 0.0
C478 C 0.37328 0.53454 0.38266 0.0
C479 C 0.42009 0.58359 0.38911 0.0
H480 H 0.86668 0.49134 0.62258 0.0
H481 H 0.86765 0.54437 0.55472 0.0
H482 H 0.86707 0.46205 0.54074 0.0
H483 H 0.86534 0.3748 0.5477 0.0
H484 H 0.86765 0.32307 0.61547 0.0
H485 H 0.86797 0.40533 0.62954 0.0
C486 C 0.86669 0.48493 0.60471 0.0
C487 C 0.86694 0.52398 0.58973 0.0
C488 C 0.86693 0.43777 0.59677 0.0
C489 C 0.8676 0.51518 0.56665 0.0
C490 C 0.86712 0.46801 0.55862 0.0
C491 C 0.86576 0.38135 0.56557 0.0
C492 C 0.86612 0.34255 0.58051 0.0
C493 C 0.8666 0.42898 0.57353 0.0
C494 C 0.86745 0.35223 0.60359 0.0
C495 C 0.8675 0.39921 0.61165 0.0
H496 H 0.47168 0.8342 0.7119 0.0
H497 H 0.54069 0.84269 0.77723 0.0
H498 H 0.46173 0.84275 0.79459 0.0
H499 H 0.37342 0.84155 0.79117 0.0
H500 H 0.30713 0.83662 0.72557 0.0
H501 H 0.3846 0.83377 0.70845 0.0
C502 C 0.46947 0.83587 0.72995 0.0
C503 C 0.51208 0.83838 0.74321 0.0
C504 C 0.42437 0.83653 0.73981 0.0
C505 C 0.50862 0.841 0.76658 0.0
C506 C 0.4634 0.84089 0.77655 0.0
C507 C 0.37584 0.83956 0.77314 0.0
C508 C 0.33455 0.83933 0.75969 0.0
C509 C 0.42107 0.83879 0.76332 0.0
C510 C 0.33851 0.83723 0.73633 0.0
C511 C 0.38276 0.83549 0.7265 0.0
H512 H 0.50674 0.36871 0.95388 0.0
H513 H 0.44228 0.31361 0.88755 0.0
H514 H 0.52526 0.39087 0.87142 0.0
H515 H 0.61708 0.47285 0.87613 0.0
H516 H 0.67993 0.52897 0.9426 0.0
H517 H 0.59651 0.45246 0.95863 0.0
C518 C 0.51071 0.37354 0.93588 0.0
C519 C 0.46835 0.33514 0.92197 0.0
C520 C 0.55832 0.4182 0.92672 0.0
C521 C 0.47409 0.34254 0.89868 0.0
C522 C 0.52165 0.38663 0.88943 0.0
C523 C 0.61258 0.46836 0.89413 0.0
C524 C 0.65495 0.50654 0.90811 0.0
C525 C 0.56419 0.4245 0.90329 0.0
C526 C 0.64803 0.50036 0.93141 0.0
C527 C 0.60035 0.45651 0.94061 0.0
H528 H 0.21456 0.15388 0.19315 0.0
H529 H 0.37113 0.30391 0.19766 0.0
H530 H 0.34 0.34898 0.17078 0.0
H531 H 0.26745 0.34417 0.1455 0.0
H532 H 0.10757 0.19695 0.14513 0.0
H533 H 0.14038 0.15176 0.17084 0.0
C534 C 0.24183 0.19637 0.18808 0.0
C535 C 0.29606 0.22474 0.19609 0.0
C536 C 0.22271 0.22239 0.17359 0.0
C537 C 0.33034 0.28048 0.19046 0.0
C538 C 0.31224 0.30636 0.17542 0.0
C539 C 0.23963 0.30283 0.15162 0.0
C540 C 0.18476 0.27441 0.14421 0.0
C541 C 0.25852 0.27755 0.16677 0.0
C542 C 0.14962 0.21983 0.15118 0.0
C543 C 0.16835 0.19401 0.16577 0.0
H544 H 0.93356 0.13355 0.31209 0.0
H545 H 0.92381 0.27936 0.29803 0.0
H546 H 0.99751 0.33219 0.32507 0.0
H547 H 0.06346 0.33551 0.35343 0.0
H548 H 0.08039 0.19212 0.36349 0.0
H549 H 0.00465 0.13907 0.33755 0.0
C550 C 0.94777 0.17692 0.31502 0.0
C551 C 0.92158 0.20209 0.30431 0.0
C552 C 0.99141 0.20722 0.32977 0.0
C553 C 0.9416 0.25871 0.30724 0.0
C554 C 0.98403 0.28893 0.32243 0.0
C555 C 0.05136 0.29313 0.3494 0.0
C556 C 0.07837 0.26809 0.35958 0.0
C557 C 0.0089 0.26343 0.33397 0.0
C558 C 0.0607 0.21234 0.35532 0.0
C559 C 0.01754 0.18209 0.34054 0.0
H560 H 0.73726 0.06981 0.53501 0.0
H561 H 0.89698 0.08317 0.53043 0.0
H562 H 0.86069 0.00569 0.50432 0.0
H563 H 0.78359 0.9345 0.48265 0.0
H564 H 0.62729 0.92893 0.48283 0.0
H565 H 0.6618 0.00342 0.51055 0.0
C566 C 0.76422 0.05656 0.52776 0.0
C567 C 0.82002 0.08317 0.53384 0.0
C568 C 0.74344 0.01309 0.51224 0.0
C569 C 0.85412 0.0639 0.52544 0.0
C570 C 0.83345 0.01972 0.51057 0.0
C571 C 0.75724 0.94973 0.48885 0.0
C572 C 0.70212 0.92442 0.48197 0.0
C573 C 0.77824 0.99411 0.50382 0.0
C574 C 0.6689 0.94587 0.4891 0.0
C575 C 0.68886 0.98884 0.50466 0.0
H576 H 0.73624 0.66812 0.63625 0.0
H577 H 0.89685 0.81442 0.63629 0.0
H578 H 0.86523 0.85848 0.66307 0.0
H579 H 0.7927 0.85472 0.68707 0.0
H580 H 0.63622 0.70453 0.69161 0.0
H581 H 0.66482 0.66217 0.66251 0.0
C582 C 0.7644 0.70908 0.6426 0.0
C583 C 0.81922 0.73737 0.6351 0.0
C584 C 0.74633 0.73356 0.65849 0.0
C585 C 0.8548 0.79154 0.64239 0.0
C586 C 0.83679 0.81672 0.65763 0.0
C587 C 0.7649 0.81279 0.68154 0.0
C588 C 0.71138 0.78368 0.69028 0.0
C589 C 0.7828 0.78802 0.66587 0.0
C590 C 0.67643 0.72863 0.68395 0.0
C591 C 0.6931 0.70426 0.66762 0.0
H592 H 0.93565 0.77844 0.8582 0.0
H593 H 0.9222 0.61833 0.86014 0.0
H594 H 0.99695 0.64868 0.83258 0.0
H595 H 0.06658 0.7222 0.808 0.0
H596 H 0.08597 0.88501 0.81023 0.0
H597 H 0.00845 0.85265 0.83615 0.0
C598 C 0.94899 0.7502 0.85241 0.0
C599 C 0.92173 0.69543 0.85997 0.0
C600 C 0.99343 0.76882 0.83761 0.0
C601 C 0.9407 0.65974 0.85336 0.0
C602 C 0.98387 0.67737 0.83793 0.0
C603 C 0.05452 0.75064 0.8147 0.0
C604 C 0.08284 0.80624 0.80803 0.0
C605 C 0.01056 0.73192 0.82993 0.0
C606 C 0.06536 0.84235 0.81573 0.0
C607 C 0.02108 0.82387 0.83043 0.0
H608 H 0.14074 0.93973 0.02607 0.0
H609 H 0.29154 0.93564 0.03282 0.0
H610 H 0.33418 0.00493 0.00302 0.0
H611 H 0.32725 0.06653 0.97474 0.0
H612 H 0.1808 0.08037 0.9733 0.0
H613 H 0.13725 0.00726 1.00121 0.0
C614 C 0.18297 0.95411 0.02096 0.0
C615 C 0.21203 0.93034 0.03039 0.0
C616 C 0.20789 0.996 0.00493 0.0
C617 C 0.26746 0.95103 0.02461 0.0
C618 C 0.29199 0.99118 0.00787 0.0
C619 C 0.2865 0.05448 0.98108 0.0
C620 C 0.25789 0.0799 0.97266 0.0
C621 C 0.26243 0.01377 0.9978 0.0
C622 C 0.20393 0.06203 0.98 0.0
C623 C 0.17903 0.02032 0.99591 0.0
H624 H 0.12092 0.26487 0.02716 0.0
H625 H 0.27169 0.40733 0.04925 0.0
H626 H 0.32056 0.39986 0.01709 0.0
H627 H 0.32441 0.344 0.98665 0.0
H628 H 0.17612 0.19944 0.96468 0.0
H629 H 0.12211 0.21728 0.99226 0.0
C630 C 0.16409 0.295 0.02458 0.0
C631 C 0.19286 0.33592 0.04081 0.0
C632 C 0.19253 0.2899 0.0061 0.0
C633 C 0.24878 0.37482 0.03723 0.0
C634 C 0.27686 0.37066 0.01881 0.0
C635 C 0.27995 0.31751 0.98742 0.0
C636 C 0.25425 0.27047 0.97379 0.0
C637 C 0.24975 0.32707 0.00371 0.0
C638 C 0.1967 0.2363 0.97487 0.0
C639 C 0.16597 0.24607 0.99088 0.0
H640 H 0.85401 0.22921 0.20036 0.0
H641 H 0.86801 0.0826 0.19872 0.0
H642 H 0.92604 0.11686 0.16527 0.0
H643 H 0.98699 0.19686 0.14133 0.0
H644 H 0.97518 0.34449 0.14464 0.0
H645 H 0.90079 0.30103 0.172 0.0
C646 C 0.86868 0.20417 0.19233 0.0
C647 C 0.85766 0.15399 0.20215 0.0
C648 C 0.90244 0.22445 0.17334 0.0
C649 C 0.87617 0.12151 0.19148 0.0
C650 C 0.90962 0.14126 0.17243 0.0
C651 C 0.96608 0.21828 0.14724 0.0
C652 C 0.986 0.27354 0.14093 0.0
C653 C 0.92494 0.19376 0.16378 0.0
C654 C 0.95989 0.30168 0.14913 0.0
C655 C 0.91795 0.27711 0.16501 0.0
H656 H 0.65269 0.99633 0.32547 0.0
H657 H 0.78979 0.97785 0.30459 0.0
H658 H 0.76529 0.90513 0.33265 0.0
H659 H 0.71368 0.85839 0.36722 0.0
H660 H 0.57878 0.88111 0.38814 0.0
H661 H 0.59317 0.93992 0.35593 0.0
C662 C 0.67629 0.97526 0.32667 0.0
C663 C 0.72311 0.99256 0.31313 0.0
C664 C 0.66281 0.9348 0.34314 0.0
C665 C 0.75327 0.9649 0.31472 0.0
C666 C 0.73964 0.92382 0.33097 0.0
C667 C 0.68665 0.87516 0.3644 0.0
C668 C 0.64578 0.86608 0.38029 0.0
C669 C 0.69583 0.91008 0.3459 0.0
C670 C 0.61103 0.88803 0.37638 0.0
C671 C 0.61924 0.92177 0.35794 0.0
H672 H 0.75233 0.62254 0.53365 0.0
H673 H 0.90713 0.77364 0.52515 0.0
H674 H 0.86784 0.8013 0.49464 0.0
H675 H 0.78398 0.7903 0.47587 0.0
H676 H 0.62889 0.64075 0.48629 0.0
H677 H 0.67378 0.60398 0.51005 0.0
C678 C 0.77788 0.66085 0.52471 0.0
C679 C 0.83214 0.69643 0.53185 0.0
C680 C 0.7547 0.67687 0.50757 0.0
C681 C 0.8651 0.7456 0.51998 0.0
C682 C 0.8425 0.76164 0.50265 0.0
C683 C 0.76074 0.74875 0.48258 0.0
C684 C 0.70337 0.71809 0.47939 0.0
C685 C 0.78658 0.72875 0.497 0.0
C686 C 0.67319 0.6648 0.48851 0.0
C687 C 0.69873 0.64403 0.50227 0.0
H688 H 0.13886 0.87487 0.69158 0.0
H689 H 0.13629 0.72545 0.71193 0.0
H690 H 0.08192 0.67742 0.67928 0.0
H691 H 0.02099 0.67289 0.64928 0.0
H692 H 0.01871 0.81954 0.62912 0.0
H693 H 0.09 0.874 0.65678 0.0
C694 C 0.12759 0.83229 0.68848 0.0
C695 C 0.14052 0.80341 0.70438 0.0
C696 C 0.0951 0.80428 0.66975 0.0
C697 C 0.12589 0.74829 0.70016 0.0
C698 C 0.0948 0.72071 0.68148 0.0
C699 C 0.03775 0.71721 0.6504 0.0
C700 C 0.01484 0.74228 0.63733 0.0
C701 C 0.07708 0.74753 0.66677 0.0
C702 C 0.03638 0.79958 0.63888 0.0
C703 C 0.07649 0.8305 0.65494 0.0
H704 H 0.37011 0.12956 0.86783 0.0
H705 H 0.21676 0.12921 0.86085 0.0
H706 H 0.1945 0.07145 0.82745 0.0
H707 H 0.21148 0.00756 0.80463 0.0
H708 H 0.36372 0.00645 0.8129 0.0
H709 H 0.39452 0.07954 0.84081 0.0
C710 C 0.33237 0.1178 0.8587 0.0
C711 C 0.29468 0.13271 0.86698 0.0
C712 C 0.31975 0.08434 0.83966 0.0
C713 C 0.24632 0.11796 0.85485 0.0
C714 C 0.23347 0.08473 0.8358 0.0
C715 C 0.25243 0.02532 0.81179 0.0
C716 C 0.28549 0.00201 0.80671 0.0
C717 C 0.2689 0.06587 0.82856 0.0
C718 C 0.3379 0.02422 0.81648 0.0
C719 C 0.35517 0.06545 0.83265 0.0
H720 H 0.74974 0.86047 0.80579 0.0
H721 H 0.59426 0.71631 0.78937 0.0
H722 H 0.60194 0.66768 0.82161 0.0
H723 H 0.65988 0.66014 0.85013 0.0
H724 H 0.81748 0.80087 0.86615 0.0
H725 H 0.80151 0.85726 0.83902 0.0
C726 C 0.71701 0.81896 0.80965 0.0
C727 C 0.67199 0.79168 0.79497 0.0
C728 C 0.72224 0.79048 0.82812 0.0
C729 C 0.6298 0.7379 0.80017 0.0
C730 C 0.63408 0.70998 0.81864 0.0
C731 C 0.68977 0.70374 0.84824 0.0
C732 C 0.73966 0.72641 0.86003 0.0
C733 C 0.68113 0.73498 0.83212 0.0
C734 C 0.77838 0.78278 0.85745 0.0
C735 C 0.7696 0.81473 0.84166 0.0
H736 H 0.8699 0.73033 0.97472 0.0
H737 H 0.87849 0.58562 0.95613 0.0
H738 H 0.94085 0.601 0.98701 0.0
H739 H 0.0043 0.66336 0.01524 0.0
H740 H 0.99813 0.80873 0.03423 0.0
H741 H 0.92287 0.78486 0.00766 0.0
C742 C 0.88432 0.70144 0.9778 0.0
C743 C 0.87037 0.65751 0.96286 0.0
C744 C 0.92107 0.71093 0.99556 0.0
C745 C 0.88921 0.62026 0.96714 0.0
C746 C 0.92502 0.62903 0.9848 0.0
C747 C 0.98534 0.68894 0.01398 0.0
C748 C 0.00673 0.73779 0.02648 0.0
C749 C 0.94297 0.67543 0.9985 0.0
C750 C 0.98193 0.77063 0.02485 0.0
C751 C 0.93934 0.7573 0.00948 0.0
H752 H 0.24935 0.87973 0.13712 0.0
H753 H 0.09774 0.88421 0.13748 0.0
H754 H 0.12929 0.9453 0.17002 0.0
H755 H 0.20731 0.01056 0.19378 0.0
H756 H 0.35931 0.00707 0.19216 0.0
H757 H 0.31995 0.93142 0.16528 0.0
C758 C 0.22273 0.8931 0.14465 0.0
C759 C 0.17181 0.87838 0.13473 0.0
C760 C 0.24133 0.92848 0.16319 0.0
C761 C 0.1373 0.89525 0.14479 0.0
C762 C 0.15545 0.93043 0.16334 0.0
C763 C 0.23068 0.99135 0.18827 0.0
C764 C 0.28591 0.01389 0.19493 0.0
C765 C 0.20834 0.9491 0.17212 0.0
C766 C 0.31652 0.98984 0.18732 0.0
C767 C 0.29427 0.94709 0.17176 0.0
H768 H 0.26582 0.1371 0.30976 0.0
H769 H 0.41967 0.28339 0.29329 0.0
H770 H 0.41119 0.3306 0.32583 0.0
H771 H 0.35091 0.33691 0.35368 0.0
H772 H 0.19494 0.19367 0.36956 0.0
H773 H 0.21386 0.13817 0.34319 0.0
C774 C 0.29819 0.17867 0.31372 0.0
C775 C 0.34263 0.20717 0.29887 0.0
C776 C 0.29245 0.20629 0.33233 0.0
C777 C 0.38446 0.26096 0.30422 0.0
C778 C 0.37971 0.28807 0.32285 0.0
C779 C 0.32236 0.2929 0.3521 0.0
C780 C 0.2718 0.26925 0.36344 0.0
C781 C 0.33258 0.26214 0.33631 0.0
C782 C 0.23458 0.21244 0.3612 0.0
C783 C 0.24497 0.181 0.3458 0.0
H784 H 0.14609 0.28329 0.47631 0.0
H785 H 0.12201 0.41461 0.45133 0.0
H786 H 0.06564 0.40585 0.48371 0.0
H787 H 0.01032 0.35052 0.51524 0.0
H788 H 0.02923 0.21611 0.53981 0.0
H789 H 0.10155 0.23731 0.51201 0.0
C790 C 0.12963 0.31085 0.47828 0.0
C791 C 0.13738 0.34885 0.46122 0.0
C792 C 0.09602 0.3048 0.49684 0.0
C793 C 0.11594 0.38442 0.46403 0.0
C794 C 0.08365 0.37947 0.48255 0.0
C795 C 0.03163 0.32705 0.51496 0.0
C796 C 0.01442 0.28171 0.52939 0.0
C797 C 0.0715 0.33828 0.49851 0.0
C798 C 0.04221 0.25156 0.52898 0.0
C799 C 0.08297 0.2632 0.51285 0.0
H800 H 0.80081 0.99946 0.69504 0.0
H801 H 0.6467 0.99805 0.68952 0.0
H802 H 0.68848 0.07607 0.66374 0.0
H803 H 0.76304 0.1322 0.63762 0.0
H804 H 0.91713 0.13322 0.6418 0.0
H805 H 0.88179 0.06871 0.67335 0.0
C806 C 0.77727 0.01793 0.68892 0.0
C807 C 0.72084 0.99325 0.69416 0.0
C808 C 0.80123 0.06187 0.67342 0.0
C809 C 0.69027 0.01664 0.68575 0.0
C810 C 0.71399 0.06088 0.67084 0.0
C811 C 0.78936 0.11935 0.64581 0.0
C812 C 0.84226 0.13676 0.63722 0.0
C813 C 0.76854 0.08191 0.66371 0.0
C814 C 0.87618 0.12031 0.6481 0.0
C815 C 0.85582 0.0831 0.66606 0.0
loop_
_geom_bond_atom_site_label_1
_geom_bond_atom_site_label_2
_geom_bond_distance
_geom_bond_site_symmetry_2
_ccdc_geom_bond_type
Mn0 O5 2.095 . S
Mn0 O15 2.162 . S
Mn0 O16 2.297 . S
Mn0 O24 2.385 . S
Mn0 O25 2.209 . S
Mn0 O26 2.094 . S
Mn1 O6 2.121 . S
Mn1 N8 2.257 . S
Mn1 N17 2.282 . S
Mn1 O25 2.215 . S
Mn1 O27 2.117 . S
C2 O24 1.234 . S
C2 O25 1.283 . S
C3 O15 1.281 . S
C3 O16 1.236 . S
C4 O26 1.240 . S
C4 O27 1.264 . S
O5 Mn0 2.095 . S
O5 C14 1.250 . S
O6 Mn1 2.121 . S
O6 C14 1.258 . S
C7 N8 1.326 . S
C7 C11 1.460 . S
C7 H13 0.929 . S
N8 Mn1 2.257 . S
N8 C7 1.326 . S
N8 C12 1.362 . S
C9 C10 1.258 . S
C9 C12 1.431 . S
C9 C29 1.449 . S
C10 C9 1.258 . S
C10 C11 1.477 . S
C10 H30 0.931 . S
C11 C7 1.460 . S
C11 C10 1.477 . S
C11 H31 0.930 . S
C12 N8 1.362 . S
C12 C9 1.431 . S
C12 C22 1.476 . S
H13 C7 0.929 . S
C14 O5 1.250 . S
C14 O6 1.258 . S
O15 Mn0 2.162 . S
O15 C3 1.281 . S
O16 Mn0 2.297 . S
O16 C3 1.236 . S
N17 Mn1 2.282 . S
N17 C18 1.328 . S
N17 C22 1.318 . S
C18 N17 1.328 . S
C18 C19 1.457 . S
C18 H23 0.929 . S
C19 C18 1.457 . S
C19 C20 1.291 . S
C19 H32 0.931 . S
C20 C19 1.291 . S
C20 C21 1.373 . S
C20 H33 0.929 . S
C21 C20 1.373 . S
C21 C22 1.396 . S
C21 C28 1.403 . S
C22 C12 1.476 . S
C22 N17 1.318 . S
C22 C21 1.396 . S
H23 C18 0.929 . S
O24 Mn0 2.385 . S
O24 C2 1.234 . S
O25 Mn0 2.209 . S
O25 Mn1 2.215 . S
O25 C2 1.283 . S
O26 Mn0 2.094 . S
O26 C4 1.240 . S
O27 Mn1 2.117 . S
O27 C4 1.264 . S
C28 C21 1.403 . S
C28 C29 1.399 . S
C28 H34 0.929 . S
C29 C9 1.449 . S
C29 C28 1.399 . S
C29 H35 0.930 . S
H30 C10 0.931 . S
H31 C11 0.930 . S
H32 C19 0.931 . S
H33 C20 0.929 . S
H34 C28 0.929 . S
H35 C29 0.930 . S
Mn36 O41 2.095 . S
Mn36 O51 2.162 . S
Mn36 O52 2.297 . S
Mn36 O60 2.385 . S
Mn36 O61 2.209 . S
Mn36 O62 2.094 . S
Mn37 O42 2.121 . S
Mn37 N44 2.257 . S
Mn37 N53 2.282 . S
Mn37 O61 2.215 . S
Mn37 O63 2.117 . S
C38 O60 1.234 . S
C38 O61 1.283 . S
C39 O51 1.281 . S
C39 O52 1.236 . S
C40 O62 1.240 . S
C40 O63 1.264 . S
O41 Mn36 2.095 . S
O41 C50 1.250 . S
O42 Mn37 2.121 . S
O42 C50 1.258 . S
C43 N44 1.326 . S
C43 C47 1.460 . S
C43 H49 0.929 . S
N44 Mn37 2.257 . S
N44 C43 1.326 . S
N44 C48 1.362 . S
C45 C46 1.258 . S
C45 C48 1.431 . S
C45 C65 1.449 . S
C46 C45 1.258 . S
C46 C47 1.477 . S
C46 H66 0.931 . S
C47 C43 1.460 . S
C47 C46 1.477 . S
C47 H67 0.930 . S
C48 N44 1.362 . S
C48 C45 1.431 . S
C48 C58 1.476 . S
H49 C43 0.929 . S
C50 O41 1.250 . S
C50 O42 1.258 . S
O51 Mn36 2.162 . S
O51 C39 1.281 . S
O52 Mn36 2.297 . S
O52 C39 1.236 . S
N53 Mn37 2.282 . S
N53 C54 1.328 . S
N53 C58 1.318 . S
C54 N53 1.328 . S
C54 C55 1.457 . S
C54 H59 0.929 . S
C55 C54 1.457 . S
C55 C56 1.291 . S
C55 H68 0.931 . S
C56 C55 1.291 . S
C56 C57 1.373 . S
C56 H69 0.929 . S
C57 C56 1.373 . S
C57 C58 1.396 . S
C57 C64 1.403 . S
C58 C48 1.476 . S
C58 N53 1.318 . S
C58 C57 1.396 . S
H59 C54 0.929 . S
O60 Mn36 2.385 . S
O60 C38 1.234 . S
O61 Mn36 2.209 . S
O61 Mn37 2.215 . S
O61 C38 1.283 . S
O62 Mn36 2.094 . S
O62 C40 1.240 . S
O63 Mn37 2.117 . S
O63 C40 1.264 . S
C64 C57 1.403 . S
C64 C65 1.399 . S
C64 H70 0.929 . S
C65 C45 1.449 . S
C65 C64 1.399 . S
C65 H71 0.930 . S
H66 C46 0.931 . S
H67 C47 0.930 . S
H68 C55 0.931 . S
H69 C56 0.929 . S
H70 C64 0.929 . S
H71 C65 0.930 . S
Mn72 O77 2.095 . S
Mn72 O87 2.162 . S
Mn72 O88 2.297 . S
Mn72 O96 2.385 . S
Mn72 O97 2.209 . S
Mn72 O98 2.094 . S
Mn73 O78 2.121 . S
Mn73 N80 2.257 . S
Mn73 N89 2.282 . S
Mn73 O97 2.215 . S
Mn73 O99 2.117 . S
C74 O96 1.234 . S
C74 O97 1.283 . S
C75 O87 1.281 . S
C75 O88 1.236 . S
C76 O98 1.240 . S
C76 O99 1.264 . S
O77 Mn72 2.095 . S
O77 C86 1.250 . S
O78 Mn73 2.121 . S
O78 C86 1.258 . S
C79 N80 1.326 . S
C79 C83 1.460 . S
C79 H85 0.929 . S
N80 Mn73 2.257 . S
N80 C79 1.326 . S
N80 C84 1.362 . S
C81 C82 1.258 . S
C81 C84 1.431 . S
C81 C101 1.449 . S
C82 C81 1.258 . S
C82 C83 1.477 . S
C82 H102 0.931 . S
C83 C79 1.460 . S
C83 C82 1.477 . S
C83 H103 0.930 . S
C84 N80 1.362 . S
C84 C81 1.431 . S
C84 C94 1.476 . S
H85 C79 0.929 . S
C86 O77 1.250 . S
C86 O78 1.258 . S
O87 Mn72 2.162 . S
O87 C75 1.281 . S
O88 Mn72 2.297 . S
O88 C75 1.236 . S
N89 Mn73 2.282 . S
N89 C90 1.328 . S
N89 C94 1.318 . S
C90 N89 1.328 . S
C90 C91 1.457 . S
C90 H95 0.929 . S
C91 C90 1.457 . S
C91 C92 1.291 . S
C91 H104 0.931 . S
C92 C91 1.291 . S
C92 C93 1.373 . S
C92 H105 0.929 . S
C93 C92 1.373 . S
C93 C94 1.396 . S
C93 C100 1.403 . S
C94 C84 1.476 . S
C94 N89 1.318 . S
C94 C93 1.396 . S
H95 C90 0.929 . S
O96 Mn72 2.385 . S
O96 C74 1.234 . S
O97 Mn72 2.209 . S
O97 Mn73 2.215 . S
O97 C74 1.283 . S
O98 Mn72 2.094 . S
O98 C76 1.240 . S
O99 Mn73 2.117 . S
O99 C76 1.264 . S
C100 C93 1.403 . S
C100 C101 1.399 . S
C100 H106 0.929 . S
C101 C81 1.449 . S
C101 C100 1.399 . S
C101 H107 0.930 . S
H102 C82 0.931 . S
H103 C83 0.930 . S
H104 C91 0.931 . S
H105 C92 0.929 . S
H106 C100 0.929 . S
H107 C101 0.930 . S
Mn108 O113 2.095 . S
Mn108 O123 2.162 . S
Mn108 O124 2.297 . S
Mn108 O132 2.385 . S
Mn108 O133 2.209 . S
Mn108 O134 2.094 . S
Mn109 O114 2.121 . S
Mn109 N116 2.257 . S
Mn109 N125 2.282 . S
Mn109 O133 2.215 . S
Mn109 O135 2.117 . S
C110 O132 1.234 . S
C110 O133 1.283 . S
C111 O123 1.281 . S
C111 O124 1.236 . S
C112 O134 1.240 . S
C112 O135 1.264 . S
O113 Mn108 2.095 . S
O113 C122 1.250 . S
O114 Mn109 2.121 . S
O114 C122 1.258 . S
C115 N116 1.326 . S
C115 C119 1.460 . S
C115 H121 0.929 . S
N116 Mn109 2.257 . S
N116 C115 1.326 . S
N116 C120 1.362 . S
C117 C118 1.258 . S
C117 C120 1.431 . S
C117 C137 1.449 . S
C118 C117 1.258 . S
C118 C119 1.477 . S
C118 H138 0.931 . S
C119 C115 1.460 . S
C119 C118 1.477 . S
C119 H139 0.930 . S
C120 N116 1.362 . S
C120 C117 1.431 . S
C120 C130 1.476 . S
H121 C115 0.929 . S
C122 O113 1.250 . S
C122 O114 1.258 . S
O123 Mn108 2.162 . S
O123 C111 1.281 . S
O124 Mn108 2.297 . S
O124 C111 1.236 . S
N125 Mn109 2.282 . S
N125 C126 1.328 . S
N125 C130 1.318 . S
C126 N125 1.328 . S
C126 C127 1.457 . S
C126 H131 0.929 . S
C127 C126 1.457 . S
C127 C128 1.291 . S
C127 H140 0.931 . S
C128 C127 1.291 . S
C128 C129 1.373 . S
C128 H141 0.929 . S
C129 C128 1.373 . S
C129 C130 1.396 . S
C129 C136 1.403 . S
C130 C120 1.476 . S
C130 N125 1.318 . S
C130 C129 1.396 . S
H131 C126 0.929 . S
O132 Mn108 2.385 . S
O132 C110 1.234 . S
O133 Mn108 2.209 . S
O133 Mn109 2.215 . S
O133 C110 1.283 . S
O134 Mn108 2.094 . S
O134 C112 1.240 . S
O135 Mn109 2.117 . S
O135 C112 1.264 . S
C136 C129 1.403 . S
C136 C137 1.399 . S
C136 H142 0.929 . S
C137 C117 1.449 . S
C137 C136 1.399 . S
C137 H143 0.930 . S
H138 C118 0.931 . S
H139 C119 0.930 . S
H140 C127 0.931 . S
H141 C128 0.929 . S
H142 C136 0.929 . S
H143 C137 0.930 . S
Mn144 O149 2.095 . S
Mn144 O159 2.162 . S
Mn144 O160 2.297 . S
Mn144 O168 2.385 . S
Mn144 O169 2.209 . S
Mn144 O170 2.094 . S
Mn145 O150 2.121 . S
Mn145 N152 2.257 . S
Mn145 N161 2.282 . S
Mn145 O169 2.215 . S
Mn145 O171 2.117 . S
C146 O168 1.234 . S
C146 O169 1.283 . S
C147 O159 1.281 . S
C147 O160 1.236 . S
C148 O170 1.240 . S
C148 O171 1.264 . S
O149 Mn144 2.095 . S
O149 C158 1.250 . S
O150 Mn145 2.121 . S
O150 C158 1.258 . S
C151 N152 1.326 . S
C151 C155 1.460 . S
C151 H157 0.929 . S
N152 Mn145 2.257 . S
N152 C151 1.326 . S
N152 C156 1.362 . S
C153 C154 1.258 . S
C153 C156 1.431 . S
C153 C173 1.449 . S
C154 C153 1.258 . S
C154 C155 1.477 . S
C154 H174 0.931 . S
C155 C151 1.460 . S
C155 C154 1.477 . S
C155 H175 0.930 . S
C156 N152 1.362 . S
C156 C153 1.431 . S
C156 C166 1.476 . S
H157 C151 0.929 . S
C158 O149 1.250 . S
C158 O150 1.258 . S
O159 Mn144 2.162 . S
O159 C147 1.281 . S
O160 Mn144 2.297 . S
O160 C147 1.236 . S
N161 Mn145 2.282 . S
N161 C162 1.328 . S
N161 C166 1.318 . S
C162 N161 1.328 . S
C162 C163 1.457 . S
C162 H167 0.929 . S
C163 C162 1.457 . S
C163 C164 1.291 . S
C163 H176 0.931 . S
C164 C163 1.291 . S
C164 C165 1.373 . S
C164 H177 0.929 . S
C165 C164 1.373 . S
C165 C166 1.396 . S
C165 C172 1.403 . S
C166 C156 1.476 . S
C166 N161 1.318 . S
C166 C165 1.396 . S
H167 C162 0.929 . S
O168 Mn144 2.385 . S
O168 C146 1.234 . S
O169 Mn144 2.209 . S
O169 Mn145 2.215 . S
O169 C146 1.283 . S
O170 Mn144 2.094 . S
O170 C148 1.240 . S
O171 Mn145 2.117 . S
O171 C148 1.264 . S
C172 C165 1.403 . S
C172 C173 1.399 . S
C172 H178 0.929 . S
C173 C153 1.449 . S
C173 C172 1.399 . S
C173 H179 0.930 . S
H174 C154 0.931 . S
H175 C155 0.930 . S
H176 C163 0.931 . S
H177 C164 0.929 . S
H178 C172 0.929 . S
H179 C173 0.930 . S
Mn180 O185 2.095 . S
Mn180 O195 2.162 . S
Mn180 O196 2.297 . S
Mn180 O204 2.385 . S
Mn180 O205 2.209 . S
Mn180 O206 2.094 . S
Mn181 O186 2.121 . S
Mn181 N188 2.257 . S
Mn181 N197 2.282 1_556 S
Mn181 O205 2.215 . S
Mn181 O207 2.117 . S
C182 O204 1.234 . S
C182 O205 1.283 . S
C183 O195 1.281 . S
C183 O196 1.236 . S
C184 O206 1.240 . S
C184 O207 1.264 . S
O185 Mn180 2.095 . S
O185 C194 1.250 . S
O186 Mn181 2.121 . S
O186 C194 1.258 . S
C187 N188 1.326 . S
C187 C191 1.460 1_556 S
C187 H193 0.929 . S
N188 Mn181 2.257 . S
N188 C187 1.326 . S
N188 C192 1.362 1_556 S
C189 C190 1.258 . S
C189 C192 1.431 . S
C189 C209 1.449 . S
C190 C189 1.258 . S
C190 C191 1.477 . S
C190 H210 0.931 . S
C191 C187 1.460 1_554 S
C191 C190 1.477 . S
C191 H211 0.930 1_554 S
C192 N188 1.362 1_554 S
C192 C189 1.431 . S
C192 C202 1.476 . S
H193 C187 0.929 . S
C194 O185 1.250 . S
C194 O186 1.258 . S
O195 Mn180 2.162 . S
O195 C183 1.281 . S
O196 Mn180 2.297 . S
O196 C183 1.236 . S
N197 Mn181 2.282 1_554 S
N197 C198 1.328 . S
N197 C202 1.318 . S
C198 N197 1.328 . S
C198 C199 1.457 . S
C198 H203 0.929 . S
C199 C198 1.457 . S
C199 C200 1.291 . S
C199 H212 0.931 . S
C200 C199 1.291 . S
C200 C201 1.373 . S
C200 H213 0.929 . S
C201 C200 1.373 . S
C201 C202 1.396 . S
C201 C208 1.403 . S
C202 C192 1.476 . S
C202 N197 1.318 . S
C202 C201 1.396 . S
H203 C198 0.929 . S
O204 Mn180 2.385 . S
O204 C182 1.234 . S
O205 Mn180 2.209 . S
O205 Mn181 2.215 . S
O205 C182 1.283 . S
O206 Mn180 2.094 . S
O206 C184 1.240 . S
O207 Mn181 2.117 . S
O207 C184 1.264 . S
C208 C201 1.403 . S
C208 C209 1.399 . S
C208 H214 0.929 . S
C209 C189 1.449 . S
C209 C208 1.399 . S
C209 H215 0.930 . S
H210 C190 0.931 . S
H211 C191 0.930 1_556 S
H212 C199 0.931 . S
H213 C200 0.929 . S
H214 C208 0.929 . S
H215 C209 0.930 . S
Mn216 O221 2.095 . S
Mn216 O231 2.162 . S
Mn216 O232 2.297 . S
Mn216 O240 2.385 . S
Mn216 O241 2.209 . S
Mn216 O242 2.094 . S
Mn217 O222 2.121 . S
Mn217 N224 2.257 . S
Mn217 N233 2.282 . S
Mn217 O241 2.215 . S
Mn217 O243 2.117 . S
C218 O240 1.234 . S
C218 O241 1.283 . S
C219 O231 1.281 . S
C219 O232 1.236 . S
C220 O242 1.240 . S
C220 O243 1.264 . S
O221 Mn216 2.095 . S
O221 C230 1.250 . S
O222 Mn217 2.121 . S
O222 C230 1.258 . S
C223 N224 1.326 . S
C223 C227 1.460 . S
C223 H229 0.929 . S
N224 Mn217 2.257 . S
N224 C223 1.326 . S
N224 C228 1.362 . S
C225 C226 1.258 . S
C225 C228 1.431 . S
C225 C245 1.449 . S
C226 C225 1.258 . S
C226 C227 1.477 . S
C226 H246 0.931 . S
C227 C223 1.460 . S
C227 C226 1.477 . S
C227 H247 0.930 . S
C228 N224 1.362 . S
C228 C225 1.431 . S
C228 C238 1.476 . S
H229 C223 0.929 . S
C230 O221 1.250 . S
C230 O222 1.258 . S
O231 Mn216 2.162 . S
O231 C219 1.281 . S
O232 Mn216 2.297 . S
O232 C219 1.236 . S
N233 Mn217 2.282 . S
N233 C234 1.328 . S
N233 C238 1.318 . S
C234 N233 1.328 . S
C234 C235 1.457 . S
C234 H239 0.929 . S
C235 C234 1.457 . S
C235 C236 1.291 . S
C235 H248 0.931 . S
C236 C235 1.291 . S
C236 C237 1.373 . S
C236 H249 0.929 . S
C237 C236 1.373 . S
C237 C238 1.396 . S
C237 C244 1.403 . S
C238 C228 1.476 . S
C238 N233 1.318 . S
C238 C237 1.396 . S
H239 C234 0.929 . S
O240 Mn216 2.385 . S
O240 C218 1.234 . S
O241 Mn216 2.209 . S
O241 Mn217 2.215 . S
O241 C218 1.283 . S
O242 Mn216 2.094 . S
O242 C220 1.240 . S
O243 Mn217 2.117 . S
O243 C220 1.264 . S
C244 C237 1.403 . S
C244 C245 1.399 . S
C244 H250 0.929 . S
C245 C225 1.449 . S
C245 C244 1.399 . S
C245 H251 0.930 . S
H246 C226 0.931 . S
H247 C227 0.930 . S
H248 C235 0.931 . S
H249 C236 0.929 . S
H250 C244 0.929 . S
H251 C245 0.930 . S
Mn252 O257 2.095 . S
Mn252 O267 2.162 . S
Mn252 O268 2.297 . S
Mn252 O276 2.385 . S
Mn252 O277 2.209 . S
Mn252 O278 2.094 . S
Mn253 O258 2.121 . S
Mn253 N260 2.257 . S
Mn253 N269 2.282 . S
Mn253 O277 2.215 . S
Mn253 O279 2.117 . S
C254 O276 1.234 . S
C254 O277 1.283 . S
C255 O267 1.281 . S
C255 O268 1.236 . S
C256 O278 1.240 . S
C256 O279 1.264 . S
O257 Mn252 2.095 . S
O257 C266 1.250 . S
O258 Mn253 2.121 . S
O258 C266 1.258 . S
C259 N260 1.326 . S
C259 C263 1.460 . S
C259 H265 0.929 . S
N260 Mn253 2.257 . S
N260 C259 1.326 . S
N260 C264 1.362 . S
C261 C262 1.258 . S
C261 C264 1.431 . S
C261 C281 1.449 . S
C262 C261 1.258 . S
C262 C263 1.477 . S
C262 H282 0.931 . S
C263 C259 1.460 . S
C263 C262 1.477 . S
C263 H283 0.930 . S
C264 N260 1.362 . S
C264 C261 1.431 . S
C264 C274 1.476 . S
H265 C259 0.929 . S
C266 O257 1.250 . S
C266 O258 1.258 . S
O267 Mn252 2.162 . S
O267 C255 1.281 . S
O268 Mn252 2.297 . S
O268 C255 1.236 . S
N269 Mn253 2.282 . S
N269 C270 1.328 . S
N269 C274 1.318 . S
C270 N269 1.328 . S
C270 C271 1.457 . S
C270 H275 0.929 . S
C271 C270 1.457 . S
C271 C272 1.291 . S
C271 H284 0.931 . S
C272 C271 1.291 . S
C272 C273 1.373 . S
C272 H285 0.929 . S
C273 C272 1.373 . S
C273 C274 1.396 . S
C273 C280 1.403 . S
C274 C264 1.476 . S
C274 N269 1.318 . S
C274 C273 1.396 . S
H275 C270 0.929 . S
O276 Mn252 2.385 . S
O276 C254 1.234 . S
O277 Mn252 2.209 . S
O277 Mn253 2.215 . S
O277 C254 1.283 . S
O278 Mn252 2.094 . S
O278 C256 1.240 . S
O279 Mn253 2.117 . S
O279 C256 1.264 . S
C280 C273 1.403 . S
C280 C281 1.399 . S
C280 H286 0.929 . S
C281 C261 1.449 . S
C281 C280 1.399 . S
C281 H287 0.930 . S
H282 C262 0.931 . S
H283 C263 0.930 . S
H284 C271 0.931 . S
H285 C272 0.929 . S
H286 C280 0.929 . S
H287 C281 0.930 . S
Mn288 O293 2.095 . S
Mn288 O303 2.162 . S
Mn288 O304 2.297 . S
Mn288 O312 2.385 . S
Mn288 O313 2.209 . S
Mn288 O314 2.094 . S
Mn289 O294 2.121 . S
Mn289 N296 2.257 . S
Mn289 N305 2.282 1_554 S
Mn289 O313 2.215 . S
Mn289 O315 2.117 . S
C290 O312 1.234 . S
C290 O313 1.283 . S
C291 O303 1.281 . S
C291 O304 1.236 . S
C292 O314 1.240 . S
C292 O315 1.264 . S
O293 Mn288 2.095 . S
O293 C302 1.250 . S
O294 Mn289 2.121 . S
O294 C302 1.258 . S
C295 N296 1.326 . S
C295 C299 1.460 1_554 S
C295 H301 0.929 . S
N296 Mn289 2.257 . S
N296 C295 1.326 . S
N296 C300 1.362 1_554 S
C297 C298 1.258 . S
C297 C300 1.431 . S
C297 C317 1.449 . S
C298 C297 1.258 . S
C298 C299 1.477 . S
C298 H318 0.931 . S
C299 C295 1.460 1_556 S
C299 C298 1.477 . S
C299 H319 0.930 1_556 S
C300 N296 1.362 1_556 S
C300 C297 1.431 . S
C300 C310 1.476 . S
H301 C295 0.929 . S
C302 O293 1.250 . S
C302 O294 1.258 . S
O303 Mn288 2.162 . S
O303 C291 1.281 . S
O304 Mn288 2.297 . S
O304 C291 1.236 . S
N305 Mn289 2.282 1_556 S
N305 C306 1.328 . S
N305 C310 1.318 . S
C306 N305 1.328 . S
C306 C307 1.457 . S
C306 H311 0.929 . S
C307 C306 1.457 . S
C307 C308 1.291 . S
C307 H320 0.931 . S
C308 C307 1.291 . S
C308 C309 1.373 . S
C308 H321 0.929 . S
C309 C308 1.373 . S
C309 C310 1.396 . S
C309 C316 1.403 . S
C310 C300 1.476 . S
C310 N305 1.318 . S
C310 C309 1.396 . S
H311 C306 0.929 . S
O312 Mn288 2.385 . S
O312 C290 1.234 . S
O313 Mn288 2.209 . S
O313 Mn289 2.215 . S
O313 C290 1.283 . S
O314 Mn288 2.094 . S
O314 C292 1.240 . S
O315 Mn289 2.117 . S
O315 C292 1.264 . S
C316 C309 1.403 . S
C316 C317 1.399 . S
C316 H322 0.929 . S
C317 C297 1.449 . S
C317 C316 1.399 . S
C317 H323 0.930 . S
H318 C298 0.931 . S
H319 C299 0.930 1_554 S
H320 C307 0.931 . S
H321 C308 0.929 . S
H322 C316 0.929 . S
H323 C317 0.930 . S
Mn324 O329 2.095 . S
Mn324 O339 2.162 . S
Mn324 O340 2.297 . S
Mn324 O348 2.385 . S
Mn324 O349 2.209 . S
Mn324 O350 2.094 . S
Mn325 O330 2.121 . S
Mn325 N332 2.257 . S
Mn325 N341 2.282 . S
Mn325 O349 2.215 . S
Mn325 O351 2.117 . S
C326 O348 1.234 . S
C326 O349 1.283 . S
C327 O339 1.281 . S
C327 O340 1.236 . S
C328 O350 1.240 . S
C328 O351 1.264 . S
O329 Mn324 2.095 . S
O329 C338 1.250 . S
O330 Mn325 2.121 . S
O330 C338 1.258 . S
C331 N332 1.326 . S
C331 C335 1.460 . S
C331 H337 0.929 . S
N332 Mn325 2.257 . S
N332 C331 1.326 . S
N332 C336 1.362 . S
C333 C334 1.258 . S
C333 C336 1.431 . S
C333 C353 1.449 . S
C334 C333 1.258 . S
C334 C335 1.477 . S
C334 H354 0.931 . S
C335 C331 1.460 . S
C335 C334 1.477 . S
C335 H355 0.930 . S
C336 N332 1.362 . S
C336 C333 1.431 . S
C336 C346 1.476 . S
H337 C331 0.929 . S
C338 O329 1.250 . S
C338 O330 1.258 . S
O339 Mn324 2.162 . S
O339 C327 1.281 . S
O340 Mn324 2.297 . S
O340 C327 1.236 . S
N341 Mn325 2.282 . S
N341 C342 1.328 . S
N341 C346 1.318 . S
C342 N341 1.328 . S
C342 C343 1.457 . S
C342 H347 0.929 . S
C343 C342 1.457 . S
C343 C344 1.291 . S
C343 H356 0.931 . S
C344 C343 1.291 . S
C344 C345 1.373 . S
C344 H357 0.929 . S
C345 C344 1.373 . S
C345 C346 1.396 . S
C345 C352 1.403 . S
C346 C336 1.476 . S
C346 N341 1.318 . S
C346 C345 1.396 . S
H347 C342 0.929 . S
O348 Mn324 2.385 . S
O348 C326 1.234 . S
O349 Mn324 2.209 . S
O349 Mn325 2.215 . S
O349 C326 1.283 . S
O350 Mn324 2.094 . S
O350 C328 1.240 . S
O351 Mn325 2.117 . S
O351 C328 1.264 . S
C352 C345 1.403 . S
C352 C353 1.399 . S
C352 H358 0.929 . S
C353 C333 1.449 . S
C353 C352 1.399 . S
C353 H359 0.930 . S
H354 C334 0.931 . S
H355 C335 0.930 . S
H356 C343 0.931 . S
H357 C344 0.929 . S
H358 C352 0.929 . S
H359 C353 0.930 . S
Mn360 O365 2.095 . S
Mn360 O375 2.162 . S
Mn360 O376 2.297 . S
Mn360 O384 2.385 . S
Mn360 O385 2.209 . S
Mn360 O386 2.094 . S
Mn361 O366 2.121 . S
Mn361 N368 2.257 . S
Mn361 N377 2.282 . S
Mn361 O385 2.215 . S
Mn361 O387 2.117 . S
C362 O384 1.234 . S
C362 O385 1.283 . S
C363 O375 1.281 . S
C363 O376 1.236 . S
C364 O386 1.240 . S
C364 O387 1.264 . S
O365 Mn360 2.095 . S
O365 C374 1.250 . S
O366 Mn361 2.121 . S
O366 C374 1.258 . S
C367 N368 1.326 . S
C367 C371 1.460 . S
C367 H373 0.929 . S
N368 Mn361 2.257 . S
N368 C367 1.326 . S
N368 C372 1.362 . S
C369 C370 1.258 . S
C369 C372 1.431 . S
C369 C389 1.449 . S
C370 C369 1.258 . S
C370 C371 1.477 . S
C370 H390 0.931 . S
C371 C367 1.460 . S
C371 C370 1.477 . S
C371 H391 0.930 . S
C372 N368 1.362 . S
C372 C369 1.431 . S
C372 C382 1.476 . S
H373 C367 0.929 . S
C374 O365 1.250 . S
C374 O366 1.258 . S
O375 Mn360 2.162 . S
O375 C363 1.281 . S
O376 Mn360 2.297 . S
O376 C363 1.236 . S
N377 Mn361 2.282 . S
N377 C378 1.328 . S
N377 C382 1.318 . S
C378 N377 1.328 . S
C378 C379 1.457 . S
C378 H383 0.929 . S
C379 C378 1.457 . S
C379 C380 1.291 . S
C379 H392 0.931 . S
C380 C379 1.291 . S
C380 C381 1.373 . S
C380 H393 0.929 . S
C381 C380 1.373 . S
C381 C382 1.396 . S
C381 C388 1.403 . S
C382 C372 1.476 . S
C382 N377 1.318 . S
C382 C381 1.396 . S
H383 C378 0.929 . S
O384 Mn360 2.385 . S
O384 C362 1.234 . S
O385 Mn360 2.209 . S
O385 Mn361 2.215 . S
O385 C362 1.283 . S
O386 Mn360 2.094 . S
O386 C364 1.240 . S
O387 Mn361 2.117 . S
O387 C364 1.264 . S
C388 C381 1.403 . S
C388 C389 1.399 . S
C388 H394 0.929 . S
C389 C369 1.449 . S
C389 C388 1.399 . S
C389 H395 0.930 . S
H390 C370 0.931 . S
H391 C371 0.930 . S
H392 C379 0.931 . S
H393 C380 0.929 . S
H394 C388 0.929 . S
H395 C389 0.930 . S
Mn396 O401 2.095 . S
Mn396 O411 2.162 . S
Mn396 O412 2.297 . S
Mn396 O420 2.385 . S
Mn396 O421 2.209 . S
Mn396 O422 2.094 . S
Mn397 O402 2.121 . S
Mn397 N404 2.257 . S
Mn397 N413 2.282 . S
Mn397 O421 2.215 . S
Mn397 O423 2.117 . S
C398 O420 1.234 . S
C398 O421 1.283 . S
C399 O411 1.281 . S
C399 O412 1.236 . S
C400 O422 1.240 . S
C400 O423 1.264 . S
O401 Mn396 2.095 . S
O401 C410 1.250 . S
O402 Mn397 2.121 . S
O402 C410 1.258 . S
C403 N404 1.326 . S
C403 C407 1.460 . S
C403 H409 0.929 . S
N404 Mn397 2.257 . S
N404 C403 1.326 . S
N404 C408 1.362 . S
C405 C406 1.258 . S
C405 C408 1.431 . S
C405 C425 1.449 . S
C406 C405 1.258 . S
C406 C407 1.477 . S
C406 H426 0.931 . S
C407 C403 1.460 . S
C407 C406 1.477 . S
C407 H427 0.930 . S
C408 N404 1.362 . S
C408 C405 1.431 . S
C408 C418 1.476 . S
H409 C403 0.929 . S
C410 O401 1.250 . S
C410 O402 1.258 . S
O411 Mn396 2.162 . S
O411 C399 1.281 . S
O412 Mn396 2.297 . S
O412 C399 1.236 . S
N413 Mn397 2.282 . S
N413 C414 1.328 . S
N413 C418 1.318 . S
C414 N413 1.328 . S
C414 C415 1.457 . S
C414 H419 0.929 . S
C415 C414 1.457 . S
C415 C416 1.291 . S
C415 H428 0.931 . S
C416 C415 1.291 . S
C416 C417 1.373 . S
C416 H429 0.929 . S
C417 C416 1.373 . S
C417 C418 1.396 . S
C417 C424 1.403 . S
C418 C408 1.476 . S
C418 N413 1.318 . S
C418 C417 1.396 . S
H419 C414 0.929 . S
O420 Mn396 2.385 . S
O420 C398 1.234 . S
O421 Mn396 2.209 . S
O421 Mn397 2.215 . S
O421 C398 1.283 . S
O422 Mn396 2.094 . S
O422 C400 1.240 . S
O423 Mn397 2.117 . S
O423 C400 1.264 . S
C424 C417 1.403 . S
C424 C425 1.399 . S
C424 H430 0.929 . S
C425 C405 1.449 . S
C425 C424 1.399 . S
C425 H431 0.930 . S
H426 C406 0.931 . S
H427 C407 0.930 . S
H428 C415 0.931 . S
H429 C416 0.929 . S
H430 C424 0.929 . S
H431 C425 0.930 . S
H432 C438 0.930 . S
H433 C441 0.930 . S
H434 C442 0.930 . S
H435 C443 0.930 . S
H436 C446 0.930 . S
H437 C447 0.930 . S
C438 H432 0.930 . S
C438 C439 1.355 . S
C438 C440 1.415 . S
C439 C438 1.355 . S
C439 C441 1.419 . S
C440 C438 1.415 . S
C440 C445 1.425 . S
C440 C447 1.409 . S
C441 H433 0.930 . S
C441 C439 1.419 . S
C441 C442 1.362 . S
C442 H434 0.930 . S
C442 C441 1.362 . S
C442 C445 1.409 . S
C443 H435 0.930 . S
C443 C444 1.355 . S
C443 C445 1.415 . S
C444 C443 1.355 . S
C444 C446 1.419 . S
C445 C440 1.425 . S
C445 C442 1.409 . S
C445 C443 1.415 . S
C446 H436 0.930 . S
C446 C444 1.419 . S
C446 C447 1.362 . S
C447 H437 0.930 . S
C447 C440 1.409 . S
C447 C446 1.362 . S
H448 C454 0.930 . S
H449 C457 0.930 . S
H450 C458 0.930 . S
H451 C459 0.930 . S
H452 C462 0.930 . S
H453 C463 0.930 . S
C454 H448 0.930 . S
C454 C455 1.355 . S
C454 C456 1.415 . S
C455 C454 1.355 . S
C455 C457 1.419 . S
C456 C454 1.415 . S
C456 C461 1.425 . S
C456 C463 1.409 . S
C457 H449 0.930 . S
C457 C455 1.419 . S
C457 C458 1.362 . S
C458 H450 0.930 . S
C458 C457 1.362 . S
C458 C461 1.409 . S
C459 H451 0.930 . S
C459 C460 1.355 . S
C459 C461 1.415 . S
C460 C459 1.355 . S
C460 C462 1.419 . S
C461 C456 1.425 . S
C461 C458 1.409 . S
C461 C459 1.415 . S
C462 H452 0.930 . S
C462 C460 1.419 . S
C462 C463 1.362 . S
C463 H453 0.930 . S
C463 C456 1.409 . S
C463 C462 1.362 . S
H464 C470 0.930 . S
H465 C473 0.930 . S
H466 C474 0.930 . S
H467 C475 0.930 . S
H468 C478 0.930 . S
H469 C479 0.930 . S
C470 H464 0.930 . S
C470 C471 1.355 . S
C470 C472 1.415 . S
C471 C470 1.355 . S
C471 C473 1.419 . S
C472 C470 1.415 . S
C472 C477 1.425 . S
C472 C479 1.409 . S
C473 H465 0.930 . S
C473 C471 1.419 . S
C473 C474 1.362 . S
C474 H466 0.930 . S
C474 C473 1.362 . S
C474 C477 1.409 . S
C475 H467 0.930 . S
C475 C476 1.355 . S
C475 C477 1.415 . S
C476 C475 1.355 . S
C476 C478 1.419 . S
C477 C472 1.425 . S
C477 C474 1.409 . S
C477 C475 1.415 . S
C478 H468 0.930 . S
C478 C476 1.419 . S
C478 C479 1.362 . S
C479 H469 0.930 . S
C479 C472 1.409 . S
C479 C478 1.362 . S
H480 C486 0.930 . S
H481 C489 0.930 . S
H482 C490 0.930 . S
H483 C491 0.930 . S
H484 C494 0.930 . S
H485 C495 0.930 . S
C486 H480 0.930 . S
C486 C487 1.355 . S
C486 C488 1.415 . S
C487 C486 1.355 . S
C487 C489 1.419 . S
C488 C486 1.415 . S
C488 C493 1.425 . S
C488 C495 1.409 . S
C489 H481 0.930 . S
C489 C487 1.419 . S
C489 C490 1.362 . S
C490 H482 0.930 . S
C490 C489 1.362 . S
C490 C493 1.409 . S
C491 H483 0.930 . S
C491 C492 1.355 . S
C491 C493 1.415 . S
C492 C491 1.355 . S
C492 C494 1.419 . S
C493 C488 1.425 . S
C493 C490 1.409 . S
C493 C491 1.415 . S
C494 H484 0.930 . S
C494 C492 1.419 . S
C494 C495 1.362 . S
C495 H485 0.930 . S
C495 C488 1.409 . S
C495 C494 1.362 . S
H496 C502 0.930 . S
H497 C505 0.930 . S
H498 C506 0.930 . S
H499 C507 0.930 . S
H500 C510 0.930 . S
H501 C511 0.930 . S
C502 H496 0.930 . S
C502 C503 1.355 . S
C502 C504 1.415 . S
C503 C502 1.355 . S
C503 C505 1.419 . S
C504 C502 1.415 . S
C504 C509 1.425 . S
C504 C511 1.409 . S
C505 H497 0.930 . S
C505 C503 1.419 . S
C505 C506 1.362 . S
C506 H498 0.930 . S
C506 C505 1.362 . S
C506 C509 1.409 . S
C507 H499 0.930 . S
C507 C508 1.355 . S
C507 C509 1.415 . S
C508 C507 1.355 . S
C508 C510 1.419 . S
C509 C504 1.425 . S
C509 C506 1.409 . S
C509 C507 1.415 . S
C510 H500 0.930 . S
C510 C508 1.419 . S
C510 C511 1.362 . S
C511 H501 0.930 . S
C511 C504 1.409 . S
C511 C510 1.362 . S
H512 C518 0.930 . S
H513 C521 0.930 . S
H514 C522 0.930 . S
H515 C523 0.930 . S
H516 C526 0.930 . S
H517 C527 0.930 . S
C518 H512 0.930 . S
C518 C519 1.355 . S
C518 C520 1.415 . S
C519 C518 1.355 . S
C519 C521 1.419 . S
C520 C518 1.415 . S
C520 C525 1.425 . S
C520 C527 1.409 . S
C521 H513 0.930 . S
C521 C519 1.419 . S
C521 C522 1.362 . S
C522 H514 0.930 . S
C522 C521 1.362 . S
C522 C525 1.409 . S
C523 H515 0.930 . S
C523 C524 1.355 . S
C523 C525 1.415 . S
C524 C523 1.355 . S
C524 C526 1.419 . S
C525 C520 1.425 . S
C525 C522 1.409 . S
C525 C523 1.415 . S
C526 H516 0.930 . S
C526 C524 1.419 . S
C526 C527 1.362 . S
C527 H517 0.930 . S
C527 C520 1.409 . S
C527 C526 1.362 . S
H528 C534 0.930 . S
H529 C537 0.930 . S
H530 C538 0.930 . S
H531 C539 0.930 . S
H532 C542 0.930 . S
H533 C543 0.930 . S
C534 H528 0.930 . S
C534 C535 1.355 . S
C534 C536 1.415 . S
C535 C534 1.355 . S
C535 C537 1.419 . S
C536 C534 1.415 . S
C536 C541 1.425 . S
C536 C543 1.409 . S
C537 H529 0.930 . S
C537 C535 1.419 . S
C537 C538 1.362 . S
C538 H530 0.930 . S
C538 C537 1.362 . S
C538 C541 1.409 . S
C539 H531 0.930 . S
C539 C540 1.355 . S
C539 C541 1.415 . S
C540 C539 1.355 . S
C540 C542 1.419 . S
C541 C536 1.425 . S
C541 C538 1.409 . S
C541 C539 1.415 . S
C542 H532 0.930 . S
C542 C540 1.419 . S
C542 C543 1.362 . S
C543 H533 0.930 . S
C543 C536 1.409 . S
C543 C542 1.362 . S
H544 C550 0.930 . S
H545 C553 0.930 . S
H546 C554 0.930 . S
H547 C555 0.930 . S
H548 C558 0.930 . S
H549 C559 0.930 . S
C550 H544 0.930 . S
C550 C551 1.355 . S
C550 C552 1.401 1_655 S
C551 C550 1.355 . S
C551 C553 1.419 . S
C552 C550 1.401 1_455 S
C552 C557 1.406 1_455 S
C552 C559 1.432 . S
C553 H545 0.930 . S
C553 C551 1.419 . S
C553 C554 1.362 . S
C554 H546 0.930 . S
C554 C553 1.362 . S
C554 C557 1.433 . S
C555 H547 0.930 . S
C555 C556 1.355 . S
C555 C557 1.401 1_455 S
C556 C555 1.355 . S
C556 C558 1.419 . S
C557 C552 1.406 1_655 S
C557 C554 1.433 . S
C557 C555 1.401 1_655 S
C558 H548 0.930 . S
C558 C556 1.419 . S
C558 C559 1.362 . S
C559 H549 0.930 . S
C559 C552 1.432 . S
C559 C558 1.362 . S
H560 C566 0.930 . S
H561 C569 0.930 . S
H562 C570 0.930 . S
H563 C571 0.930 . S
H564 C574 0.930 . S
H565 C575 0.930 . S
C566 H560 0.930 . S
C566 C567 1.355 . S
C566 C568 1.415 . S
C567 C566 1.355 . S
C567 C569 1.419 . S
C568 C566 1.415 . S
C568 C573 1.425 1_545 S
C568 C575 1.409 . S
C569 H561 0.930 . S
C569 C567 1.419 . S
C569 C570 1.362 1_545 S
C570 H562 0.930 . S
C570 C569 1.362 1_565 S
C570 C573 1.409 . S
C571 H563 0.930 . S
C571 C572 1.355 . S
C571 C573 1.415 . S
C572 C571 1.355 . S
C572 C574 1.419 . S
C573 C568 1.425 1_565 S
C573 C570 1.409 . S
C573 C571 1.415 . S
C574 H564 0.930 . S
C574 C572 1.419 . S
C574 C575 1.362 1_565 S
C575 H565 0.930 . S
C575 C568 1.409 . S
C575 C574 1.362 1_545 S
H576 C582 0.930 . S
H577 C585 0.930 . S
H578 C586 0.930 . S
H579 C587 0.930 . S
H580 C590 0.930 . S
H581 C591 0.930 . S
C582 H576 0.930 . S
C582 C583 1.355 . S
C582 C584 1.415 . S
C583 C582 1.355 . S
C583 C585 1.419 . S
C584 C582 1.415 . S
C584 C589 1.425 . S
C584 C591 1.409 . S
C585 H577 0.930 . S
C585 C583 1.419 . S
C585 C586 1.362 . S
C586 H578 0.930 . S
C586 C585 1.362 . S
C586 C589 1.409 . S
C587 H579 0.930 . S
C587 C588 1.355 . S
C587 C589 1.415 . S
C588 C587 1.355 . S
C588 C590 1.419 . S
C589 C584 1.425 . S
C589 C586 1.409 . S
C589 C587 1.415 . S
C590 H580 0.930 . S
C590 C588 1.419 . S
C590 C591 1.362 . S
C591 H581 0.930 . S
C591 C584 1.409 . S
C591 C590 1.362 . S
H592 C598 0.930 . S
H593 C601 0.930 . S
H594 C602 0.928 . S
H595 C603 0.930 . S
H596 C606 0.930 . S
H597 C607 0.928 . S
C598 H592 0.930 . S
C598 C599 1.355 . S
C598 C600 1.415 . S
C599 C598 1.355 . S
C599 C601 1.419 . S
C600 C598 1.415 . S
C600 C605 1.425 1_655 S
C600 C607 1.409 . S
C601 H593 0.930 . S
C601 C599 1.419 . S
C601 C602 1.364 1_655 S
C602 H594 0.928 . S
C602 C601 1.364 1_455 S
C602 C605 1.409 . S
C603 H595 0.930 . S
C603 C604 1.355 . S
C603 C605 1.415 . S
C604 C603 1.355 . S
C604 C606 1.419 . S
C605 C600 1.425 1_455 S
C605 C602 1.409 . S
C605 C603 1.415 . S
C606 H596 0.930 . S
C606 C604 1.419 . S
C606 C607 1.364 1_455 S
C607 H597 0.928 . S
C607 C600 1.409 . S
C607 C606 1.364 1_655 S
H608 C614 0.930 . S
H609 C617 0.930 . S
H610 C618 0.930 . S
H611 C619 0.930 . S
H612 C622 0.930 . S
H613 C623 0.930 . S
C614 H608 0.930 . S
C614 C615 1.355 . S
C614 C616 1.415 1_565 S
C615 C614 1.355 . S
C615 C617 1.419 . S
C616 C614 1.415 1_545 S
C616 C621 1.425 1_544 S
C616 C623 1.409 . S
C617 H609 0.930 . S
C617 C615 1.419 . S
C617 C618 1.362 1_554 S
C618 H610 0.930 . S
C618 C617 1.362 1_556 S
C618 C621 1.409 . S
C619 H611 0.930 . S
C619 C620 1.355 . S
C619 C621 1.415 1_545 S
C620 C619 1.355 . S
C620 C622 1.419 . S
C621 C616 1.425 1_566 S
C621 C618 1.409 . S
C621 C619 1.415 1_565 S
C622 H612 0.930 . S
C622 C620 1.419 . S
C622 C623 1.362 1_556 S
C623 H613 0.930 . S
C623 C616 1.409 . S
C623 C622 1.362 1_554 S
H624 C630 0.930 . S
H625 C633 0.930 . S
H626 C634 0.930 . S
H627 C635 0.930 . S
H628 C638 0.930 . S
H629 C639 0.930 . S
C630 H624 0.930 . S
C630 C631 1.355 . S
C630 C632 1.415 . S
C631 C630 1.355 . S
C631 C633 1.419 . S
C632 C630 1.415 . S
C632 C637 1.425 . S
C632 C639 1.409 1_554 S
C633 H625 0.930 . S
C633 C631 1.419 . S
C633 C634 1.362 . S
C634 H626 0.930 . S
C634 C633 1.362 . S
C634 C637 1.409 . S
C635 H627 0.930 . S
C635 C636 1.355 1_554 S
C635 C637 1.415 . S
C636 C635 1.355 1_556 S
C636 C638 1.419 . S
C637 C632 1.425 . S
C637 C634 1.409 . S
C637 C635 1.415 . S
C638 H628 0.930 . S
C638 C636 1.419 . S
C638 C639 1.362 . S
C639 H629 0.930 . S
C639 C632 1.409 1_556 S
C639 C638 1.362 . S
H640 C646 0.930 . S
H641 C649 0.930 . S
H642 C650 0.930 . S
H643 C651 0.930 . S
H644 C654 0.930 . S
H645 C655 0.930 . S
C646 H640 0.930 . S
C646 C647 1.355 . S
C646 C648 1.415 . S
C647 C646 1.355 . S
C647 C649 1.419 . S
C648 C646 1.415 . S
C648 C653 1.425 . S
C648 C655 1.409 1_655 S
C649 H641 0.930 . S
C649 C647 1.419 . S
C649 C650 1.362 . S
C650 H642 0.930 . S
C650 C649 1.362 . S
C650 C653 1.409 . S
C651 H643 0.930 . S
C651 C652 1.355 . S
C651 C653 1.415 1_455 S
C652 C651 1.355 . S
C652 C654 1.419 . S
C653 C648 1.425 . S
C653 C650 1.409 . S
C653 C651 1.415 1_655 S
C654 H644 0.930 . S
C654 C652 1.419 . S
C654 C655 1.362 . S
C655 H645 0.930 . S
C655 C648 1.409 1_455 S
C655 C654 1.362 . S
H656 C662 0.930 1_565 S
H657 C665 0.930 . S
H658 C666 0.930 . S
H659 C667 0.930 . S
H660 C670 0.930 . S
H661 C671 0.930 . S
C662 H656 0.930 1_545 S
C662 C663 1.355 . S
C662 C664 1.415 1_545 S
C663 C662 1.355 . S
C663 C665 1.419 . S
C664 C662 1.415 1_565 S
C664 C669 1.425 . S
C664 C671 1.409 . S
C665 H657 0.930 . S
C665 C663 1.419 . S
C665 C666 1.362 . S
C666 H658 0.930 . S
C666 C665 1.362 . S
C666 C669 1.409 1_545 S
C667 H659 0.930 . S
C667 C668 1.355 . S
C667 C669 1.415 . S
C668 C667 1.355 . S
C668 C670 1.419 . S
C669 C664 1.425 . S
C669 C666 1.409 1_565 S
C669 C667 1.415 . S
C670 H660 0.930 . S
C670 C668 1.419 . S
C670 C671 1.362 . S
C671 H661 0.930 . S
C671 C664 1.409 . S
C671 C670 1.362 . S
H672 C678 0.930 . S
H673 C681 0.930 . S
H674 C682 0.930 . S
H675 C683 0.930 . S
H676 C686 0.930 . S
H677 C687 0.930 . S
C678 H672 0.930 . S
C678 C679 1.355 . S
C678 C680 1.415 . S
C679 C678 1.355 . S
C679 C681 1.419 . S
C680 C678 1.415 . S
C680 C685 1.425 . S
C680 C687 1.409 . S
C681 H673 0.930 . S
C681 C679 1.419 . S
C681 C682 1.362 . S
C682 H674 0.930 . S
C682 C681 1.362 . S
C682 C685 1.409 . S
C683 H675 0.930 . S
C683 C684 1.355 . S
C683 C685 1.415 . S
C684 C683 1.355 . S
C684 C686 1.419 . S
C685 C680 1.425 . S
C685 C682 1.409 . S
C685 C683 1.415 . S
C686 H676 0.930 . S
C686 C684 1.419 . S
C686 C687 1.362 . S
C687 H677 0.930 . S
C687 C680 1.409 . S
C687 C686 1.362 . S
H688 C694 0.930 . S
H689 C697 0.930 . S
H690 C698 0.922 1_655 S
H691 C699 0.930 . S
H692 C702 0.930 . S
H693 C703 0.930 . S
C694 H688 0.930 . S
C694 C695 1.355 . S
C694 C696 1.415 . S
C695 C694 1.355 . S
C695 C697 1.419 . S
C696 C694 1.415 . S
C696 C701 1.425 . S
C696 C703 1.409 . S
C697 H689 0.930 . S
C697 C695 1.419 . S
C697 C698 1.371 . S
C698 H690 0.922 1_455 S
C698 C697 1.371 . S
C698 C701 1.408 . S
C699 H691 0.930 . S
C699 C700 1.355 . S
C699 C701 1.415 1_655 S
C700 C699 1.355 . S
C700 C702 1.419 1_655 S
C701 C696 1.425 . S
C701 C698 1.408 . S
C701 C699 1.415 1_455 S
C702 H692 0.930 . S
C702 C700 1.419 1_455 S
C702 C703 1.362 . S
C703 H693 0.930 . S
C703 C696 1.409 . S
C703 C702 1.362 . S
H704 C710 0.930 . S
H705 C713 0.930 . S
H706 C714 0.930 . S
H707 C715 0.930 . S
H708 C718 0.930 . S
H709 C719 0.930 . S
C710 H704 0.930 . S
C710 C711 1.355 . S
C710 C712 1.415 . S
C711 C710 1.355 . S
C711 C713 1.419 . S
C712 C710 1.415 . S
C712 C717 1.425 . S
C712 C719 1.409 1_545 S
C713 H705 0.930 . S
C713 C711 1.419 . S
C713 C714 1.362 . S
C714 H706 0.930 . S
C714 C713 1.362 . S
C714 C717 1.409 . S
C715 H707 0.930 . S
C715 C716 1.355 1_545 S
C715 C717 1.415 . S
C716 C715 1.355 1_565 S
C716 C718 1.419 . S
C717 C712 1.425 . S
C717 C714 1.409 . S
C717 C715 1.415 . S
C718 H708 0.930 . S
C718 C716 1.419 . S
C718 C719 1.362 . S
C719 H709 0.930 . S
C719 C712 1.409 1_565 S
C719 C718 1.362 . S
H720 C726 0.930 . S
H721 C729 0.930 . S
H722 C730 0.930 . S
H723 C731 0.930 . S
H724 C734 0.930 . S
H725 C735 0.930 . S
C726 H720 0.930 . S
C726 C727 1.355 . S
C726 C728 1.415 . S
C727 C726 1.355 . S
C727 C729 1.419 . S
C728 C726 1.415 . S
C728 C733 1.425 . S
C728 C735 1.409 . S
C729 H721 0.930 . S
C729 C727 1.419 . S
C729 C730 1.362 . S
C730 H722 0.930 . S
C730 C729 1.362 . S
C730 C733 1.409 . S
C731 H723 0.930 . S
C731 C732 1.355 . S
C731 C733 1.415 . S
C732 C731 1.355 . S
C732 C734 1.419 . S
C733 C728 1.425 . S
C733 C730 1.409 . S
C733 C731 1.415 . S
C734 H724 0.930 . S
C734 C732 1.419 . S
C734 C735 1.362 . S
C735 H725 0.930 . S
C735 C728 1.409 . S
C735 C734 1.362 . S
H736 C742 0.930 . S
H737 C745 0.930 . S
H738 C746 0.930 . S
H739 C747 0.930 . S
H740 C750 0.930 . S
H741 C751 0.930 . S
C742 H736 0.930 . S
C742 C743 1.355 . S
C742 C744 1.415 . S
C743 C742 1.355 . S
C743 C745 1.419 . S
C744 C742 1.415 . S
C744 C749 1.425 . S
C744 C751 1.409 1_556 S
C745 H737 0.930 . S
C745 C743 1.419 . S
C745 C746 1.362 1_655 S
C746 H738 0.930 . S
C746 C745 1.362 1_455 S
C746 C749 1.409 1_455 S
C747 H739 0.930 . S
C747 C748 1.355 1_556 S
C747 C749 1.415 1_455 S
C748 C747 1.355 1_554 S
C748 C750 1.419 1_455 S
C749 C744 1.425 . S
C749 C746 1.409 1_655 S
C749 C747 1.415 1_655 S
C750 H740 0.930 . S
C750 C748 1.419 1_655 S
C750 C751 1.362 . S
C751 H741 0.930 . S
C751 C744 1.409 1_554 S
C751 C750 1.362 . S
H752 C758 0.930 . S
H753 C761 0.930 . S
H754 C762 0.930 1_545 S
H755 C763 0.930 . S
H756 C766 0.930 . S
H757 C767 0.930 . S
C758 H752 0.930 . S
C758 C759 1.355 . S
C758 C760 1.415 . S
C759 C758 1.355 . S
C759 C761 1.419 . S
C760 C758 1.415 . S
C760 C765 1.425 . S
C760 C767 1.409 . S
C761 H753 0.930 . S
C761 C759 1.419 . S
C761 C762 1.362 . S
C762 H754 0.930 1_565 S
C762 C761 1.362 . S
C762 C765 1.409 . S
C763 H755 0.930 . S
C763 C764 1.355 . S
C763 C765 1.415 1_545 S
C764 C763 1.355 . S
C764 C766 1.419 1_545 S
C765 C760 1.425 . S
C765 C762 1.409 . S
C765 C763 1.415 1_565 S
C766 H756 0.930 . S
C766 C764 1.419 1_565 S
C766 C767 1.362 . S
C767 H757 0.930 . S
C767 C760 1.409 . S
C767 C766 1.362 . S
H768 C774 0.930 . S
H769 C777 0.930 . S
H770 C778 0.930 . S
H771 C779 0.930 . S
H772 C782 0.930 . S
H773 C783 0.930 . S
C774 H768 0.930 . S
C774 C775 1.355 . S
C774 C776 1.415 . S
C775 C774 1.355 . S
C775 C777 1.419 . S
C776 C774 1.415 . S
C776 C781 1.425 . S
C776 C783 1.409 . S
C777 H769 0.930 . S
C777 C775 1.419 . S
C777 C778 1.362 . S
C778 H770 0.930 . S
C778 C777 1.362 . S
C778 C781 1.409 . S
C779 H771 0.930 . S
C779 C780 1.355 . S
C779 C781 1.415 . S
C780 C779 1.355 . S
C780 C782 1.419 . S
C781 C776 1.425 . S
C781 C778 1.409 . S
C781 C779 1.415 . S
C782 H772 0.930 . S
C782 C780 1.419 . S
C782 C783 1.362 . S
C783 H773 0.930 . S
C783 C776 1.409 . S
C783 C782 1.362 . S
H784 C790 0.930 . S
H785 C793 0.930 . S
H786 C794 0.930 1_655 S
H787 C795 0.930 . S
H788 C798 0.930 . S
H789 C799 0.930 . S
C790 H784 0.930 . S
C790 C791 1.355 . S
C790 C792 1.415 . S
C791 C790 1.355 . S
C791 C793 1.419 . S
C792 C790 1.415 . S
C792 C797 1.425 . S
C792 C799 1.409 . S
C793 H785 0.930 . S
C793 C791 1.419 . S
C793 C794 1.362 . S
C794 H786 0.930 1_455 S
C794 C793 1.362 . S
C794 C797 1.409 . S
C795 H787 0.930 . S
C795 C796 1.355 . S
C795 C797 1.415 1_655 S
C796 C795 1.355 . S
C796 C798 1.419 1_655 S
C797 C792 1.425 . S
C797 C794 1.409 . S
C797 C795 1.415 1_455 S
C798 H788 0.930 . S
C798 C796 1.419 1_455 S
C798 C799 1.362 . S
C799 H789 0.930 . S
C799 C792 1.409 . S
C799 C798 1.362 . S
H800 C806 0.930 . S
H801 C809 0.930 . S
H802 C810 0.930 . S
H803 C811 0.930 . S
H804 C814 0.930 . S
H805 C815 0.930 . S
C806 H800 0.930 . S
C806 C807 1.355 . S
C806 C808 1.415 1_565 S
C807 C806 1.355 . S
C807 C809 1.419 . S
C808 C806 1.415 1_545 S
C808 C813 1.425 . S
C808 C815 1.409 . S
C809 H801 0.930 . S
C809 C807 1.419 . S
C809 C810 1.362 1_565 S
C810 H802 0.930 . S
C810 C809 1.362 1_545 S
C810 C813 1.409 . S
C811 H803 0.930 . S
C811 C812 1.355 . S
C811 C813 1.415 . S
C812 C811 1.355 . S
C812 C814 1.419 . S
C813 C808 1.425 . S
C813 C810 1.409 . S
C813 C811 1.415 . S
C814 H804 0.930 . S
C814 C812 1.419 . S
C814 C815 1.362 . S
C815 H805 0.930 . S
C815 C808 1.409 . S
C815 C814 1.362 . S
C439 C302 1.236 . S
C444 C14 1.225 . S
C455 C50 1.225 . S
C460 C338 1.236 . S
C471 C86 1.169 . S
C476 C374 1.152 . S
C487 C122 1.160 . S
C492 C410 1.188 . S
C503 C230 1.233 . S
C508 C158 1.233 . S
C519 C194 1.188 . S
C524 C266 1.219 . S
C535 C326 0.983 . S
C540 C2 0.892 . S
C551 C38 0.985 . S
C556 C362 0.926 . S
C567 C398 0.905 . S
C572 C74 0.962 . S
C583 C110 0.903 . S
C588 C218 0.965 . S
C599 C254 0.988 . S
C604 C146 0.891 . S
C615 C290 0.980 . S
C620 C182 0.933 . S
C631 C3 1.456 . S
C636 C184 1.462 . S
C647 C39 1.478 . S
C652 C4 1.411 . S
C663 C40 1.404 . S
C668 C75 1.462 . S
C679 C111 1.474 . S
C684 C76 1.437 . S
C695 C147 1.454 . S
C700 C112 1.461 . S
C711 C183 1.474 . S
C716 C148 1.399 . S
C727 C219 1.461 . S
C732 C256 1.406 . S
C743 C255 1.461 . S
C748 C292 1.461 . S
C759 C291 1.470 . S
C764 C328 1.449 . S
C775 C327 1.458 . S
C780 C364 1.411 . S
C791 C363 1.452 . S
C796 C400 1.457 . S
C807 C220 1.453 . S
C812 C399 1.468 . S
