# Generated by pormake.
# Topology unx, (4)-cn, num edge types: 1
# Building blocks:
#     Node 0, Type 0, BuildingBlock: QUQFOY_clean_sbu_1, # of connection points: 4
#     Node 1, Type 0, BuildingBlock: QUQFOY_clean_sbu_1, # of connection points: 4
#     Node 2, Type 0, BuildingBlock: QUQFOY_clean_sbu_1, # of connection points: 4
#     Node 3, Type 0, BuildingBlock: QUQFOY_clean_sbu_1, # of connection points: 4
#     Node 4, Type 0, BuildingBlock: QUQFOY_clean_sbu_1, # of connection points: 4
#     Node 5, Type 0, BuildingBlock: QUQFOY_clean_sbu_1, # of connection points: 4
#     Node 6, Type 0, BuildingBlock: QUQFOY_clean_sbu_1, # of connection points: 4
#     Node 7, Type 0, BuildingBlock: QUQFOY_clean_sbu_1, # of connection points: 4
#     Node 8, Type 0, BuildingBlock: QUQFOY_clean_sbu_1, # of connection points: 4
#     Node 9, Type 0, BuildingBlock: QUQFOY_clean_sbu_1, # of connection points: 4
#     Node 10, Type 0, BuildingBlock: QUQFOY_clean_sbu_1, # of connection points: 4
#     Node 11, Type 0, BuildingBlock: QUQFOY_clean_sbu_1, # of connection points: 4
#     Node 12, Type 0, BuildingBlock: QUQFOY_clean_sbu_1, # of connection points: 4
#     Node 13, Type 0, BuildingBlock: QUQFOY_clean_sbu_1, # of connection points: 4
#     Node 14, Type 0, BuildingBlock: QUQFOY_clean_sbu_1, # of connection points: 4
#     Node 15, Type 0, BuildingBlock: QUQFOY_clean_sbu_1, # of connection points: 4
#     Node 16, Type 0, BuildingBlock: QUQFOY_clean_sbu_1, # of connection points: 4
#     Node 17, Type 0, BuildingBlock: QUQFOY_clean_sbu_1, # of connection points: 4
#     Node 18, Type 0, BuildingBlock: QUQFOY_clean_sbu_1, # of connection points: 4
#     Node 19, Type 0, BuildingBlock: QUQFOY_clean_sbu_1, # of connection points: 4
#     Node 20, Type 0, BuildingBlock: QUQFOY_clean_sbu_1, # of connection points: 4
#     Node 21, Type 0, BuildingBlock: QUQFOY_clean_sbu_1, # of connection points: 4
#     Node 22, Type 0, BuildingBlock: QUQFOY_clean_sbu_1, # of connection points: 4
#     Node 23, Type 0, BuildingBlock: QUQFOY_clean_sbu_1, # of connection points: 4
#     Node 24, Type 0, BuildingBlock: QUQFOY_clean_sbu_1, # of connection points: 4
#     Node 25, Type 0, BuildingBlock: QUQFOY_clean_sbu_1, # of connection points: 4
#     Node 26, Type 0, BuildingBlock: QUQFOY_clean_sbu_1, # of connection points: 4
#     Node 27, Type 0, BuildingBlock: QUQFOY_clean_sbu_1, # of connection points: 4
#     Node 28, Type 0, BuildingBlock: QUQFOY_clean_sbu_1, # of connection points: 4
#     Node 29, Type 0, BuildingBlock: QUQFOY_clean_sbu_1, # of connection points: 4
#     Node 30, Type 0, BuildingBlock: QUQFOY_clean_sbu_1, # of connection points: 4
#     Node 31, Type 0, BuildingBlock: QUQFOY_clean_sbu_1, # of connection points: 4
#     Node 32, Type 0, BuildingBlock: QUQFOY_clean_sbu_1, # of connection points: 4
#     Node 33, Type 0, BuildingBlock: QUQFOY_clean_sbu_1, # of connection points: 4
#     Node 34, Type 0, BuildingBlock: QUQFOY_clean_sbu_1, # of connection points: 4
#     Node 35, Type 0, BuildingBlock: QUQFOY_clean_sbu_1, # of connection points: 4
#     Node 36, Type 0, BuildingBlock: QUQFOY_clean_sbu_1, # of connection points: 4
#     Node 37, Type 0, BuildingBlock: QUQFOY_clean_sbu_1, # of connection points: 4
#     Node 38, Type 0, BuildingBlock: QUQFOY_clean_sbu_1, # of connection points: 4
#     Node 39, Type 0, BuildingBlock: QUQFOY_clean_sbu_1, # of connection points: 4
#     Node 40, Type 0, BuildingBlock: QUQFOY_clean_sbu_1, # of connection points: 4
#     Node 41, Type 0, BuildingBlock: QUQFOY_clean_sbu_1, # of connection points: 4
#     Node 42, Type 0, BuildingBlock: QUQFOY_clean_sbu_1, # of connection points: 4
#     Node 43, Type 0, BuildingBlock: QUQFOY_clean_sbu_1, # of connection points: 4
#     Node 44, Type 0, BuildingBlock: QUQFOY_clean_sbu_1, # of connection points: 4
#     Node 45, Type 0, BuildingBlock: QUQFOY_clean_sbu_1, # of connection points: 4
#     Node 46, Type 0, BuildingBlock: QUQFOY_clean_sbu_1, # of connection points: 4
#     Node 47, Type 0, BuildingBlock: QUQFOY_clean_sbu_1, # of connection points: 4
#     Edge 48, Type (0, 0), None
#     Edge 49, Type (0, 0), None
#     Edge 50, Type (0, 0), None
#     Edge 51, Type (0, 0), None
#     Edge 52, Type (0, 0), None
#     Edge 53, Type (0, 0), None
#     Edge 54, Type (0, 0), None
#     Edge 55, Type (0, 0), None
#     Edge 56, Type (0, 0), None
#     Edge 57, Type (0, 0), None
#     Edge 58, Type (0, 0), None
#     Edge 59, Type (0, 0), None
#     Edge 60, Type (0, 0), None
#     Edge 61, Type (0, 0), None
#     Edge 62, Type (0, 0), None
#     Edge 63, Type (0, 0), None
#     Edge 64, Type (0, 0), None
#     Edge 65, Type (0, 0), None
#     Edge 66, Type (0, 0), None
#     Edge 67, Type (0, 0), None
#     Edge 68, Type (0, 0), None
#     Edge 69, Type (0, 0), None
#     Edge 70, Type (0, 0), None
#     Edge 71, Type (0, 0), None
#     Edge 72, Type (0, 0), None
#     Edge 73, Type (0, 0), None
#     Edge 74, Type (0, 0), None
#     Edge 75, Type (0, 0), None
#     Edge 76, Type (0, 0), None
#     Edge 77, Type (0, 0), None
#     Edge 78, Type (0, 0), None
#     Edge 79, Type (0, 0), None
#     Edge 80, Type (0, 0), None
#     Edge 81, Type (0, 0), None
#     Edge 82, Type (0, 0), None
#     Edge 83, Type (0, 0), None
#     Edge 84, Type (0, 0), None
#     Edge 85, Type (0, 0), None
#     Edge 86, Type (0, 0), None
#     Edge 87, Type (0, 0), None
#     Edge 88, Type (0, 0), None
#     Edge 89, Type (0, 0), None
#     Edge 90, Type (0, 0), None
#     Edge 91, Type (0, 0), None
#     Edge 92, Type (0, 0), None
#     Edge 93, Type (0, 0), None
#     Edge 94, Type (0, 0), None
#     Edge 95, Type (0, 0), None
#     Edge 96, Type (0, 0), None
#     Edge 97, Type (0, 0), None
#     Edge 98, Type (0, 0), None
#     Edge 99, Type (0, 0), None
#     Edge 100, Type (0, 0), None
#     Edge 101, Type (0, 0), None
#     Edge 102, Type (0, 0), None
#     Edge 103, Type (0, 0), None
#     Edge 104, Type (0, 0), None
#     Edge 105, Type (0, 0), None
#     Edge 106, Type (0, 0), None
#     Edge 107, Type (0, 0), None
#     Edge 108, Type (0, 0), None
#     Edge 109, Type (0, 0), None
#     Edge 110, Type (0, 0), None
#     Edge 111, Type (0, 0), None
#     Edge 112, Type (0, 0), None
#     Edge 113, Type (0, 0), None
#     Edge 114, Type (0, 0), None
#     Edge 115, Type (0, 0), None
#     Edge 116, Type (0, 0), None
#     Edge 117, Type (0, 0), None
#     Edge 118, Type (0, 0), None
#     Edge 119, Type (0, 0), None
#     Edge 120, Type (0, 0), None
#     Edge 121, Type (0, 0), None
#     Edge 122, Type (0, 0), None
#     Edge 123, Type (0, 0), None
#     Edge 124, Type (0, 0), None
#     Edge 125, Type (0, 0), None
#     Edge 126, Type (0, 0), None
#     Edge 127, Type (0, 0), None
#     Edge 128, Type (0, 0), None
#     Edge 129, Type (0, 0), None
#     Edge 130, Type (0, 0), None
#     Edge 131, Type (0, 0), None
#     Edge 132, Type (0, 0), None
#     Edge 133, Type (0, 0), None
#     Edge 134, Type (0, 0), None
#     Edge 135, Type (0, 0), None
#     Edge 136, Type (0, 0), None
#     Edge 137, Type (0, 0), None
#     Edge 138, Type (0, 0), None
#     Edge 139, Type (0, 0), None
#     Edge 140, Type (0, 0), None
#     Edge 141, Type (0, 0), None
#     Edge 142, Type (0, 0), None
#     Edge 143, Type (0, 0), None
# Relax obj value: 0.288
# Max RMSD: 0.129
# Mean RMSD: 0.129
data_MOF--net-unx--node1-QUQFOY_clean_sbu_1--edge1-none
_symmetry_space_group_name_H-M    P1
_symmetry_Int_Tables_number       1
_symmetry_cell_setting            triclinic
loop_
_symmetry_equiv_pos_as_xyz
'x, y, z'
_cell_length_a     31.034358
_cell_length_b     31.032889
_cell_length_c     31.036289
_cell_angle_alpha  90.000698
_cell_angle_beta   89.999358
_cell_angle_gamma 89.999993
loop_
_atom_site_label
_atom_site_type_symbol
_atom_site_fract_x
_atom_site_fract_y
_atom_site_fract_z
_atom_type_partial_charge
O0 O 0.15349 0.56749 0.15278 0.0
Cd1 Cd 0.13804 0.56066 0.21262 0.0
Cd2 Cd 0.07969 0.50502 0.15673 0.0
O3 O 0.14238 0.50196 0.12905 0.0
O4 O 0.18826 0.59664 0.23162 0.0
O5 O 0.18789 0.52507 0.23377 0.0
C6 C 0.2096 0.5608 0.23349 0.0
C7 C 0.00816 0.4841 0.15646 0.0
C8 C 0.16467 0.53698 0.12878 0.0
C9 C 0.05304 0.58875 0.18087 0.0
O10 O 0.06419 0.5649 0.15024 0.0
O11 O 0.07536 0.58833 0.21586 0.0
O12 O 0.02951 0.48614 0.12063 0.0
O13 O 0.02985 0.48368 0.19218 0.0
O14 O 0.65283 0.31416 0.40023 0.0
Cd15 Cd 0.71274 0.32956 0.40671 0.0
Cd16 Cd 0.65709 0.38804 0.46261 0.0
O17 O 0.62937 0.32537 0.46584 0.0
O18 O 0.73153 0.27938 0.37055 0.0
O19 O 0.73405 0.27965 0.44209 0.0
C20 C 0.73358 0.25799 0.40635 0.0
C21 C 0.65689 0.45959 0.48351 0.0
C22 C 0.62896 0.30304 0.43086 0.0
C23 C 0.68093 0.41458 0.37873 0.0
O24 O 0.6504 0.40349 0.40275 0.0
O25 O 0.7159 0.39223 0.37901 0.0
O26 O 0.62105 0.43825 0.48155 0.0
O27 O 0.69261 0.43789 0.48385 0.0
O28 O 0.81465 0.90033 0.65287 0.0
Cd29 Cd 0.82998 0.90672 0.71278 0.0
Cd30 Cd 0.88849 0.96259 0.65714 0.0
O31 O 0.82579 0.96599 0.62953 0.0
O32 O 0.77969 0.87062 0.73146 0.0
O33 O 0.78007 0.94216 0.73404 0.0
C34 C 0.75835 0.90645 0.73353 0.0
C35 C 0.96 0.98356 0.65682 0.0
C36 C 0.80342 0.93103 0.62914 0.0
C37 C 0.91491 0.87853 0.68084 0.0
O38 O 0.90398 0.90272 0.65039 0.0
O39 O 0.89257 0.87885 0.71582 0.0
O40 O 0.93861 0.98158 0.62102 0.0
O41 O 0.93836 -0.0161 0.69257 0.0
O42 O 0.31483 0.15368 0.90002 0.0
Cd43 Cd 0.25495 0.1382 0.9066 0.0
Cd44 Cd 0.31044 0.07998 0.96251 0.0
O45 O 0.33814 0.14266 0.96571 0.0
O46 O 0.23601 0.1884 0.87056 0.0
O47 O 0.23367 0.18802 0.94212 0.0
C48 C 0.23404 0.20973 0.90641 0.0
C49 C 0.31046 0.00849 0.9835 0.0
C50 C 0.33862 0.1649 0.93067 0.0
C51 C 0.28682 0.0532 0.87872 0.0
O52 O 0.31733 0.06439 0.90271 0.0
O53 O 0.25181 0.07549 0.87898 0.0
O54 O 0.34634 0.02977 0.98164 0.0
O55 O 0.27476 0.03024 0.98373 0.0
O56 O 0.06425 0.40286 0.81726 0.0
Cd57 Cd 0.07968 0.46273 0.81059 0.0
Cd58 Cd 0.1382 0.40694 0.75495 0.0
O59 O 0.07558 0.37912 0.75177 0.0
O60 O 0.02944 0.48165 0.8466 0.0
O61 O 0.02985 0.48396 0.77505 0.0
C62 C 0.00812 0.4836 0.81075 0.0
C63 C 0.20977 0.40667 0.7341 0.0
C64 C 0.05322 0.37881 0.78673 0.0
C65 C 0.16465 0.43098 0.83879 0.0
O66 O 0.1536 0.40039 0.81484 0.0
O67 O 0.1423 0.46595 0.8384 0.0
O68 O 0.18842 0.37084 0.73613 0.0
O69 O 0.18808 0.44239 0.73366 0.0
O70 O 0.81741 0.40366 0.06486 0.0
Cd71 Cd 0.8107 0.38815 0.00501 0.0
Cd72 Cd 0.75499 0.32984 0.06073 0.0
O73 O 0.75184 0.3925 0.08845 0.0
O74 O 0.8467 0.43837 -0.01396 0.0
O75 O 0.77514 0.43797 0.98376 0.0
C76 C 0.81085 0.45969 -0.0159 0.0
C77 C 0.73409 0.2583 0.06086 0.0
C78 C 0.78685 0.4148 0.08881 0.0
C79 C 0.83879 0.3032 0.03687 0.0
O80 O 0.81485 0.31435 0.06743 0.0
O81 O 0.83844 0.3255 0.00186 0.0
O82 O 0.736 0.27961 0.09671 0.0
O83 O 0.73379 0.28002 0.02515 0.0
O84 O 0.9036 0.06489 0.31726 0.0
Cd85 Cd 0.88808 0.00504 0.3105 0.0
Cd86 Cd 0.82967 0.06086 0.25491 0.0
O87 O 0.89227 0.08869 0.25179 0.0
O88 O 0.9383 -0.014 0.34647 0.0
O89 O 0.93787 0.98381 0.27491 0.0
C90 C 0.9596 -0.01591 0.31061 0.0
C91 C 0.75808 0.06109 0.23412 0.0
C92 C 0.91461 0.08899 0.28676 0.0
C93 C 0.80312 0.0368 0.33865 0.0
O94 O 0.81428 0.06743 0.31479 0.0
O95 O 0.82543 0.00181 0.33825 0.0
O96 O 0.77942 0.09693 0.23612 0.0
O97 O 0.77978 0.02537 0.23367 0.0
O98 O 0.15054 0.06423 0.56489 0.0
Cd99 Cd 0.15706 0.07969 0.50501 0.0
Cd100 Cd 0.21277 0.13823 0.56071 0.0
O101 O 0.21607 0.07561 0.5885 0.0
O102 O 0.12096 0.02947 0.48619 0.0
O103 O 0.19251 0.02983 0.48366 0.0
C104 C 0.15678 0.00813 0.48412 0.0
C105 C 0.2336 0.20981 0.56089 0.0
C106 C 0.18112 0.05322 0.58887 0.0
C107 C 0.12884 0.16463 0.53683 0.0
O108 O 0.15287 0.1536 0.56737 0.0
O109 O 0.12919 0.14228 0.50186 0.0
O110 O 0.23164 0.18848 0.59673 0.0
O111 O 0.23397 0.18809 0.52518 0.0
O112 O 0.15285 0.81454 0.40051 0.0
Cd113 Cd 0.21276 0.82986 0.40688 0.0
Cd114 Cd 0.15707 0.8886 0.46257 0.0
O115 O 0.1293 0.82598 0.46604 0.0
O116 O 0.23138 0.77953 0.37079 0.0
O117 O 0.23407 0.77995 0.44232 0.0
C118 C 0.2335 0.75821 0.40663 0.0
C119 C 0.1568 0.96016 0.48342 0.0
C120 C 0.12895 0.80351 0.43115 0.0
C121 C 0.18092 0.91479 0.37849 0.0
O122 O 0.15042 0.90395 0.40265 0.0
O123 O 0.21586 0.89239 0.37885 0.0
O124 O 0.12098 0.9388 0.48141 0.0
O125 O 0.19253 0.93848 0.48384 0.0
O126 O 0.31408 0.40043 0.65274 0.0
Cd127 Cd 0.32935 0.40697 0.71267 0.0
Cd128 Cd 0.38813 0.46275 0.65703 0.0
O129 O 0.32556 0.46595 0.6291 0.0
O130 O 0.2791 0.37086 0.73138 0.0
O131 O 0.27942 0.4424 0.73393 0.0
C132 C 0.25774 0.40667 0.73343 0.0
C133 C 0.45975 0.48354 0.65675 0.0
C134 C 0.30314 0.43101 0.62871 0.0
C135 C 0.41441 0.37882 0.68118 0.0
O136 O 0.40348 0.40284 0.6506 0.0
O137 O 0.39194 0.37915 0.71607 0.0
O138 O 0.43841 0.48143 0.62093 0.0
O139 O 0.43803 0.48407 0.69246 0.0
O140 O 0.8148 0.65324 0.90046 0.0
Cd141 Cd 0.75487 0.63795 0.90678 0.0
Cd142 Cd 0.8105 0.57924 0.96259 0.0
O143 O 0.83824 0.64188 0.96604 0.0
O144 O 0.73626 0.68828 0.87069 0.0
O145 O 0.73359 0.68786 0.94222 0.0
C146 C 0.73416 0.7096 0.90653 0.0
C147 C 0.81081 0.50766 0.98342 0.0
C148 C 0.83863 0.66432 0.93113 0.0
C149 C 0.78674 0.55299 0.87852 0.0
O150 O 0.81721 0.56388 0.9027 0.0
O151 O 0.75179 0.57539 0.87883 0.0
O152 O 0.84661 0.52904 0.98143 0.0
O153 O 0.77507 0.52932 -0.01616 0.0
O154 O 0.65393 0.06753 0.15275 0.0
Cd155 Cd 0.63855 0.06082 0.21264 0.0
Cd156 Cd 0.58007 0.00509 0.15704 0.0
O157 O 0.64265 0.00198 0.12913 0.0
O158 O 0.68874 0.0969 0.23152 0.0
O159 O 0.68843 0.02534 0.23386 0.0
C160 C 0.71011 0.06108 0.23347 0.0
C161 C 0.50851 -0.01578 0.15705 0.0
C162 C 0.66495 0.03699 0.12871 0.0
C163 C 0.55347 0.08882 0.18109 0.0
O164 O 0.5646 0.06495 0.15046 0.0
O165 O 0.57587 0.08848 0.21602 0.0
O166 O 0.52974 -0.0138 0.12115 0.0
O167 O 0.53033 0.98384 0.1927 0.0
O168 O 0.56483 0.15005 0.06441 0.0
Cd169 Cd 0.50489 0.15658 0.07962 0.0
Cd170 Cd 0.56041 0.21271 0.13816 0.0
O171 O 0.58821 0.21572 0.07551 0.0
O172 O 0.48613 0.12062 0.02928 0.0
O173 O 0.4838 0.19218 0.02977 0.0
C174 C 0.4842 0.1565 0.008 0.0
C175 C 0.56088 0.2337 0.20969 0.0
C176 C 0.58864 0.18071 0.05322 0.0
C177 C 0.53656 0.12864 0.16464 0.0
O178 O 0.56699 0.15288 0.15379 0.0
O179 O 0.50165 0.12876 0.1422 0.0
O180 O 0.59665 0.23163 0.18825 0.0
O181 O 0.5251 0.23413 0.18809 0.0
O182 O 0.06492 0.81708 0.40374 0.0
Cd183 Cd 0.00514 0.8103 0.38799 0.0
Cd184 Cd 0.06126 0.75484 0.32967 0.0
O185 O 0.08899 0.75168 0.3923 0.0
O186 O -0.01402 0.84634 0.43809 0.0
O187 O 0.98378 0.77477 0.43776 0.0
C188 C -0.01597 0.81051 0.45944 0.0
C189 C 0.06129 0.73416 0.25805 0.0
C190 C 0.08912 0.78664 0.41468 0.0
C191 C 0.03716 0.83844 0.30307 0.0
O192 O 0.06785 0.81476 0.31444 0.0
O193 O 0.00211 0.83799 0.32529 0.0
O194 O 0.09718 0.73603 0.27932 0.0
O195 O 0.02561 0.7338 0.27983 0.0
O196 O 0.40285 0.31771 0.5643 0.0
Cd197 Cd 0.46277 0.31103 0.57955 0.0
Cd198 Cd 0.40709 0.25505 0.63802 0.0
O199 O 0.37934 0.25208 0.57534 0.0
O200 O 0.48161 0.347 0.52926 0.0
O201 O 0.48384 0.27544 0.52969 0.0
C202 C 0.48349 0.31114 0.50795 0.0
C203 C 0.40666 0.23403 0.70952 0.0
C204 C 0.37898 0.28711 0.55308 0.0
C205 C 0.43113 0.33896 0.6646 0.0
O206 O 0.4006 0.31489 0.65366 0.0
O207 O 0.46606 0.33875 0.64218 0.0
O208 O 0.37088 0.23613 0.68811 0.0
O209 O 0.44243 0.23359 0.6879 0.0
O210 O 0.89996 0.65294 0.81452 0.0
Cd211 Cd 0.90632 0.71292 0.82965 0.0
Cd212 Cd 0.96257 0.6574 0.88826 0.0
O213 O 0.96566 0.62966 0.82558 0.0
O214 O 0.87018 0.73152 0.77936 0.0
O215 O 0.94172 0.73407 0.77967 0.0
C216 C 0.90599 0.73355 0.75799 0.0
C217 C 0.98362 0.65689 0.95976 0.0
C218 C 0.93066 0.62922 0.80328 0.0
C219 C 0.87847 0.68125 0.91472 0.0
O220 O 0.90274 0.65082 0.90391 0.0
O221 O 0.87857 0.71615 0.89226 0.0
O222 O 0.98152 0.62114 0.9383 0.0
O223 O -0.01595 0.69269 0.93817 0.0
O224 O 0.06491 0.65052 0.0643 0.0
Cd225 Cd 0.00492 0.65692 0.07939 0.0
Cd226 Cd 0.06051 0.7128 0.13845 0.0
O227 O 0.08852 0.71602 0.07591 0.0
O228 O -0.01361 0.6209 0.02899 0.0
O229 O 0.98372 0.69243 0.0295 0.0
C230 C -0.0157 0.65677 0.00772 0.0
C231 C 0.06115 0.73356 0.21009 0.0
C232 C 0.08891 0.68113 0.05343 0.0
C233 C 0.03625 0.62864 0.16444 0.0
O234 O 0.06676 0.65286 0.15379 0.0
O235 O 0.00143 0.62885 0.14185 0.0
O236 O 0.09689 0.73129 0.18862 0.0
O237 O 0.02538 0.73428 0.1885 0.0
O238 O 0.40266 0.81707 0.06344 0.0
Cd239 Cd 0.4625 0.81009 0.07894 0.0
Cd240 Cd 0.40633 0.75476 0.13756 0.0
O241 O 0.37831 0.75183 0.07505 0.0
O242 O 0.48158 0.84622 0.02886 0.0
O243 O 0.48372 0.77465 0.02903 0.0
C244 C 0.48346 0.81043 0.00743 0.0
C245 C 0.40614 0.73411 0.20923 0.0
C246 C 0.37817 0.7868 0.05269 0.0
C247 C 0.43109 0.83822 0.16407 0.0
O248 O 0.40022 0.81473 0.15278 0.0
O249 O 0.46602 0.83768 0.14167 0.0
O250 O 0.37028 0.73627 0.18796 0.0
O251 O 0.44181 0.73347 0.18744 0.0
O252 O 0.40051 0.15286 0.81426 0.0
Cd253 Cd 0.40687 0.21288 0.82921 0.0
Cd254 Cd 0.46275 0.15731 0.88842 0.0
O255 O 0.46598 0.12919 0.82594 0.0
O256 O 0.37077 0.23127 0.7788 0.0
O257 O 0.44228 0.23405 0.77922 0.0
C258 C 0.4066 0.23339 0.75749 0.0
C259 C 0.48356 0.15662 0.96004 0.0
C260 C 0.43111 0.1288 0.80344 0.0
C261 C 0.37852 0.18171 0.9143 0.0
O262 O 0.4028 0.15119 0.90379 0.0
O263 O 0.37875 0.21647 0.89163 0.0
O264 O 0.48119 0.12089 0.93858 0.0
O265 O 0.48435 0.19239 0.93845 0.0
O266 O 0.56486 0.31678 0.40377 0.0
Cd267 Cd 0.50494 0.31051 0.38837 0.0
Cd268 Cd 0.56081 0.25491 0.32934 0.0
O269 O 0.58886 0.25145 0.39181 0.0
O270 O 0.48639 0.34682 0.43856 0.0
O271 O 0.48344 0.2753 0.43836 0.0
C272 C 0.48413 0.31106 0.45999 0.0
C273 C 0.56098 0.23435 0.25765 0.0
C274 C 0.58908 0.28626 0.41441 0.0
C275 C 0.53666 0.33893 0.30339 0.0
O276 O 0.56725 0.3149 0.31429 0.0
O277 O 0.50175 0.33856 0.32585 0.0
O278 O 0.59684 0.2364 0.27894 0.0
O279 O 0.52531 0.23377 0.27942 0.0
O280 O 0.15378 0.06704 0.65287 0.0
Cd281 Cd 0.13843 0.06062 0.71278 0.0
Cd282 Cd 0.07959 0.00495 0.65699 0.0
O283 O 0.14209 0.00162 0.62898 0.0
O284 O 0.18867 0.09678 0.73145 0.0
O285 O 0.18835 0.02524 0.73411 0.0
C286 C 0.21004 0.06097 0.73355 0.0
C287 C 0.00796 -0.01577 0.65676 0.0
C288 C 0.16458 0.0365 0.62874 0.0
C289 C 0.05343 0.08892 0.68112 0.0
O290 O 0.06435 0.06489 0.65055 0.0
O291 O 0.07587 0.08856 0.71603 0.0
O292 O 0.02928 -0.01368 0.62092 0.0
O293 O 0.0297 0.98368 0.69245 0.0
O294 O 0.65288 0.81394 0.90053 0.0
Cd295 Cd 0.71279 0.82922 0.90705 0.0
Cd296 Cd 0.65684 0.88802 0.96274 0.0
O297 O 0.62904 0.8254 0.96596 0.0
O298 O 0.73148 0.77901 0.87084 0.0
O299 O 0.73404 0.7792 0.94237 0.0
C300 C 0.73353 0.75758 0.90661 0.0
C301 C 0.65642 0.95964 0.9835 0.0
C302 C 0.62878 0.80298 0.93104 0.0
C303 C 0.68116 0.91429 0.87887 0.0
O304 O 0.65052 0.90329 0.90279 0.0
O305 O 0.71608 0.89185 0.87927 0.0
O306 O 0.62062 0.93825 0.98137 0.0
O307 O 0.69216 0.93798 -0.01595 0.0
O308 O 0.81409 0.40098 0.15283 0.0
Cd309 Cd 0.8294 0.40724 0.21277 0.0
Cd310 Cd 0.8885 0.46288 0.15688 0.0
O311 O 0.826 0.46634 0.12887 0.0
O312 O 0.77915 0.37098 0.2313 0.0
O313 O 0.77942 0.4425 0.23418 0.0
C314 C 0.75776 0.40677 0.23351 0.0
C315 C 0.96019 0.48347 0.15647 0.0
C316 C 0.8034 0.43153 0.12867 0.0
C317 C 0.91438 0.37879 0.18111 0.0
O318 O 0.90357 0.40288 0.15055 0.0
O319 O 0.8919 0.37916 0.216 0.0
O320 O 0.93881 0.48132 0.12068 0.0
O321 O 0.93851 0.48413 0.1922 0.0
O322 O 0.31486 0.654 0.40037 0.0
Cd323 Cd 0.25497 0.63864 0.40706 0.0
Cd324 Cd 0.31094 0.57997 0.46273 0.0
O325 O 0.33877 0.64259 0.46579 0.0
O326 O 0.23612 0.68882 0.37091 0.0
O327 O 0.23375 0.6886 0.44245 0.0
C328 C 0.23415 0.71024 0.40669 0.0
C329 C 0.31132 0.50834 0.48348 0.0
C330 C 0.33901 0.66496 0.43083 0.0
C331 C 0.28658 0.55355 0.37898 0.0
O332 O 0.31725 0.56466 0.4028 0.0
O333 O 0.25165 0.57596 0.37936 0.0
O334 O 0.34713 0.52972 0.48137 0.0
O335 O 0.27559 0.53002 0.48403 0.0
O336 O 0.06394 0.90274 0.31641 0.0
Cd337 Cd 0.07921 0.96269 0.31002 0.0
Cd338 Cd 0.13855 0.90648 0.25454 0.0
O339 O 0.07611 0.87833 0.25126 0.0
O340 O 0.02898 0.9812 0.34629 0.0
O341 O 0.0292 -0.01591 0.27479 0.0
C342 C 0.00756 0.98342 0.31053 0.0
C343 C 0.2103 0.90581 0.23403 0.0
C344 C 0.05346 0.87828 0.28604 0.0
C345 C 0.16425 0.93127 0.33857 0.0
O346 O 0.15354 0.90058 0.31459 0.0
O347 O 0.14166 0.96609 0.33819 0.0
O348 O 0.18885 0.87007 0.23638 0.0
O349 O 0.18868 0.94156 0.23315 0.0
O350 O 0.81676 0.90392 0.56497 0.0
Cd351 Cd 0.81006 0.88827 0.50516 0.0
Cd352 Cd 0.75468 0.82964 0.5614 0.0
O353 O 0.7515 0.89221 0.58927 0.0
O354 O 0.84619 0.93838 0.48615 0.0
O355 O 0.77464 0.93813 0.48379 0.0
C356 C 0.8104 0.95978 0.48415 0.0
C357 C 0.73409 0.75796 0.56164 0.0
C358 C 0.78639 0.91468 0.58932 0.0
C359 C 0.83836 0.80331 0.53702 0.0
O360 O 0.81466 0.81453 0.56775 0.0
O361 O 0.83787 0.82562 0.50203 0.0
O362 O 0.73612 0.77929 0.59748 0.0
O363 O 0.73355 0.77969 0.52594 0.0
O364 O 0.90382 0.56494 0.81669 0.0
Cd365 Cd 0.88852 0.505 0.81024 0.0
Cd366 Cd 0.82933 0.56105 0.75466 0.0
O367 O 0.89176 0.58925 0.75148 0.0
O368 O 0.93875 0.48641 0.84647 0.0
O369 O 0.93851 0.48365 0.77495 0.0
C370 C 0.96016 0.48426 0.81069 0.0
C371 C 0.7576 0.56149 0.7341 0.0
C372 C 0.91435 0.58936 0.78629 0.0
C373 C 0.80346 0.53647 0.83864 0.0
O374 O 0.81424 0.56713 0.81466 0.0
O375 O 0.82603 0.50164 0.83832 0.0
O376 O 0.77897 0.59729 0.73636 0.0
O377 O 0.7793 0.52578 0.73333 0.0
O378 O 0.15091 0.56439 0.06483 0.0
Cd379 Cd 0.15718 0.5797 0.00491 0.0
Cd380 Cd 0.21295 0.63875 0.06094 0.0
O381 O 0.21626 0.57619 0.08884 0.0
O382 O 0.12096 0.52942 -0.01364 0.0
O383 O 0.19248 0.52972 0.98355 0.0
C384 C 0.15675 0.50804 -0.01582 0.0
C385 C 0.23357 0.71044 0.06155 0.0
C386 C 0.18143 0.55361 0.08898 0.0
C387 C 0.1288 0.66465 0.0367 0.0
O388 O 0.15296 0.65389 0.06723 0.0
O389 O 0.12906 0.64218 0.00181 0.0
O390 O 0.23141 0.68896 0.09728 0.0
O391 O 0.23422 0.68885 0.02577 0.0
O392 O 0.15283 0.31429 0.9006 0.0
Cd393 Cd 0.21281 0.3294 0.90691 0.0
Cd394 Cd 0.15715 0.38845 0.96277 0.0
O395 O 0.12913 0.32593 0.96606 0.0
O396 O 0.23124 0.2791 0.87068 0.0
O397 O 0.2341 0.27936 0.94219 0.0
C398 C 0.23341 0.2577 0.90645 0.0
C399 C 0.15675 0.46007 0.98354 0.0
C400 C 0.12877 0.30344 0.93118 0.0
C401 C 0.18138 0.41446 0.87866 0.0
O402 O 0.15083 0.40377 0.90284 0.0
O403 O 0.2162 0.39189 0.87889 0.0
O404 O 0.12095 0.4387 0.98137 0.0
O405 O 0.19247 0.43839 -0.01584 0.0
O406 O 0.3151 0.90021 0.15299 0.0
Cd407 Cd 0.33003 0.90612 0.21304 0.0
Cd408 Cd 0.38901 0.96255 0.1578 0.0
O409 O 0.32637 0.96598 0.13001 0.0
O410 O 0.27961 0.86991 0.23125 0.0
O411 O 0.28 0.94143 0.23427 0.0
C412 C 0.25827 0.90573 0.23349 0.0
C413 C 0.46055 0.98352 0.15723 0.0
C414 C 0.30392 0.93107 0.12946 0.0
C415 C 0.41505 0.87806 0.18133 0.0
O416 O 0.40455 0.90269 0.15108 0.0
O417 O 0.3925 0.87806 0.21617 0.0
O418 O 0.43906 0.98144 0.1215 0.0
O419 O 0.43899 -0.01602 0.19303 0.0
O420 O 0.81476 0.1534 0.40042 0.0
Cd421 Cd 0.75477 0.13832 0.40667 0.0
Cd422 Cd 0.8102 0.07934 0.46265 0.0
O423 O 0.83826 0.14184 0.46596 0.0
O424 O 0.73635 0.18867 0.37051 0.0
O425 O 0.73352 0.18831 0.44203 0.0
C426 C 0.73419 0.21002 0.40632 0.0
C427 C 0.81045 0.00774 0.48346 0.0
C428 C 0.83872 0.1643 0.43106 0.0
C429 C 0.78626 0.05326 0.37849 0.0
O430 O 0.81673 0.06394 0.40276 0.0
O431 O 0.75143 0.07582 0.37864 0.0
O432 O 0.84628 0.02907 0.48138 0.0
O433 O 0.77475 0.02947 0.48398 0.0
O434 O 0.65321 0.56747 0.65286 0.0
Cd435 Cd 0.63798 0.56108 0.7128 0.0
Cd436 Cd 0.5793 0.50506 0.65717 0.0
O437 O 0.64196 0.50186 0.62941 0.0
O438 O 0.68823 0.59727 0.73145 0.0
O439 O 0.68797 0.52572 0.73403 0.0
C440 C 0.70963 0.56147 0.73351 0.0
C441 C 0.50772 0.4842 0.6568 0.0
C442 C 0.66434 0.53681 0.62902 0.0
C443 C 0.55294 0.5891 0.68105 0.0
O444 O 0.56387 0.56494 0.65057 0.0
O445 O 0.57535 0.58886 0.71598 0.0
O446 O 0.52912 0.48623 0.62101 0.0
O447 O 0.52937 0.48377 0.69255 0.0
O448 O 0.56489 0.65038 0.56393 0.0
Cd449 Cd 0.50494 0.65694 0.57916 0.0
Cd450 Cd 0.56071 0.71281 0.63798 0.0
O451 O 0.58869 0.71584 0.57543 0.0
O452 O 0.4862 0.62082 0.52892 0.0
O453 O 0.48374 0.69237 0.52923 0.0
C454 C 0.48419 0.65663 0.50755 0.0
C455 C 0.56115 0.73357 0.70961 0.0
C456 C 0.58902 0.68089 0.55304 0.0
C457 C 0.53636 0.62894 0.66429 0.0
O458 O 0.56699 0.65289 0.65336 0.0
O459 O 0.5015 0.62918 0.64178 0.0
O460 O 0.59694 0.73139 0.68822 0.0
O461 O 0.52541 0.73421 0.68795 0.0
O462 O 0.06482 0.31733 0.9037 0.0
Cd463 Cd 0.0049 0.31085 0.88838 0.0
Cd464 Cd 0.06068 0.25499 0.82963 0.0
O465 O 0.08863 0.25185 0.89218 0.0
O466 O -0.01383 0.34693 0.93864 0.0
O467 O 0.98364 0.27538 0.93826 0.0
C468 C -0.01587 0.3111 0.95997 0.0
C469 C 0.06106 0.2342 0.75803 0.0
C470 C 0.08889 0.28678 0.9146 0.0
C471 C 0.03653 0.33897 0.80336 0.0
O472 O 0.06708 0.3149 0.81425 0.0
O473 O 0.00163 0.33875 0.82582 0.0
O474 O 0.09686 0.23631 0.77941 0.0
O475 O 0.02533 0.23364 0.7797 0.0
O476 O 0.90062 0.15286 0.31434 0.0
Cd477 Cd 0.9069 0.21279 0.32965 0.0
Cd478 Cd 0.96272 0.157 0.3885 0.0
O479 O 0.96609 0.1291 0.32595 0.0
O480 O 0.87067 0.23137 0.27941 0.0
O481 O 0.9422 0.23417 0.2797 0.0
C482 C 0.90647 0.23355 0.25803 0.0
C483 C 0.98352 0.15667 0.46007 0.0
C484 C 0.93122 0.12884 0.30345 0.0
C485 C 0.87862 0.18103 0.41461 0.0
O486 O 0.90279 0.15052 0.40383 0.0
O487 O 0.87888 0.21594 0.39216 0.0
O488 O 0.98144 0.12086 0.43871 0.0
O489 O -0.01596 0.1924 0.43839 0.0
O490 O 0.06489 0.15073 0.56425 0.0
Cd491 Cd 0.00497 0.15706 0.57962 0.0
Cd492 Cd 0.06078 0.21285 0.63845 0.0
O493 O 0.08873 0.21617 0.57592 0.0
O494 O -0.01366 0.12087 0.52939 0.0
O495 O 0.98358 0.1924 0.52971 0.0
C496 C -0.01582 0.15667 0.50803 0.0
C497 C 0.06108 0.23357 0.71007 0.0
C498 C 0.08898 0.1813 0.55343 0.0
C499 C 0.03672 0.12879 0.66457 0.0
O500 O 0.06725 0.15291 0.65372 0.0
O501 O 0.00181 0.12904 0.64213 0.0
O502 O 0.0969 0.23151 0.68872 0.0
O503 O 0.02536 0.2341 0.68837 0.0
O504 O 0.4005 0.65288 0.31377 0.0
Cd505 Cd 0.40691 0.71287 0.32888 0.0
Cd506 Cd 0.4628 0.65708 0.38794 0.0
O507 O 0.46588 0.62894 0.32547 0.0
O508 O 0.37057 0.73138 0.27868 0.0
O509 O 0.44209 0.73413 0.27877 0.0
C510 C 0.4063 0.73351 0.2572 0.0
C511 C 0.48355 0.65663 0.45958 0.0
C512 C 0.43097 0.62864 0.30302 0.0
C513 C 0.37885 0.68154 0.41407 0.0
O514 O 0.40286 0.65091 0.40325 0.0
O515 O 0.37908 0.71635 0.39147 0.0
O516 O 0.48128 0.62084 0.43822 0.0
O517 O 0.48425 0.69236 0.4379 0.0
O518 O 0.56491 0.8169 0.90345 0.0
Cd519 Cd 0.50506 0.81041 0.88791 0.0
Cd520 Cd 0.56095 0.75482 0.82923 0.0
O521 O 0.58874 0.75145 0.89184 0.0
O522 O 0.48625 0.84641 0.93819 0.0
O523 O 0.48368 0.77487 0.9377 0.0
C524 C 0.48416 0.81054 0.95947 0.0
C525 C 0.56118 0.73418 0.75758 0.0
C526 C 0.58895 0.78632 0.91434 0.0
C527 C 0.53705 0.83882 0.80305 0.0
O528 O 0.56758 0.81477 0.81405 0.0
O529 O 0.50206 0.83845 0.82538 0.0
O530 O 0.59701 0.7361 0.77893 0.0
O531 O 0.52546 0.73375 0.77928 0.0
O532 O 0.56399 0.40295 0.3172 0.0
Cd533 Cd 0.57924 0.4629 0.3108 0.0
Cd534 Cd 0.63815 0.4071 0.25488 0.0
O535 O 0.57564 0.37905 0.25177 0.0
O536 O 0.52902 0.48149 0.34703 0.0
O537 O 0.52923 0.48418 0.27551 0.0
C538 C 0.5076 0.4836 0.31126 0.0
C539 C 0.70979 0.40675 0.23414 0.0
C540 C 0.55318 0.37881 0.28667 0.0
C541 C 0.6643 0.43131 0.33891 0.0
O542 O 0.65348 0.40077 0.3148 0.0
O543 O 0.64179 0.46618 0.33872 0.0
O544 O 0.68843 0.37093 0.23626 0.0
O545 O 0.68809 0.44247 0.23357 0.0
O546 O 0.31705 0.40379 0.56469 0.0
Cd547 Cd 0.31087 0.38866 0.5047 0.0
Cd548 Cd 0.25491 0.32945 0.56037 0.0
O549 O 0.25164 0.39191 0.58854 0.0
O550 O 0.34711 0.43899 0.48632 0.0
O551 O 0.2756 0.43868 0.48338 0.0
C552 C 0.31132 0.46037 0.4841 0.0
C553 C 0.23423 0.25777 0.56085 0.0
C554 C 0.28648 0.41447 0.58882 0.0
C555 C 0.33914 0.30359 0.53622 0.0
O556 O 0.31485 0.31421 0.56669 0.0
O557 O 0.339 0.3262 0.50142 0.0
O558 O 0.23643 0.27918 0.59662 0.0
O559 O 0.23355 0.27943 0.52511 0.0
O560 O 0.40377 0.06478 0.81727 0.0
Cd561 Cd 0.38849 0.00484 0.81082 0.0
Cd562 Cd 0.32965 0.06058 0.75489 0.0
O563 O 0.39215 0.08865 0.75182 0.0
O564 O 0.43875 -0.01383 0.84696 0.0
O565 O 0.43843 0.98358 0.77542 0.0
C566 C 0.46011 -0.0159 0.81115 0.0
C567 C 0.258 0.06096 0.73417 0.0
C568 C 0.41458 0.08892 0.78674 0.0
C569 C 0.30345 0.03643 0.83892 0.0
O570 O 0.3143 0.06695 0.81479 0.0
O571 O 0.32595 0.00155 0.83876 0.0
O572 O 0.27938 0.09676 0.73628 0.0
O573 O 0.27968 0.02523 0.73359 0.0
O574 O 0.65089 0.06419 0.06472 0.0
Cd575 Cd 0.65688 0.07932 0.00472 0.0
Cd576 Cd 0.71284 0.13864 0.06032 0.0
O577 O 0.71631 0.0762 0.08847 0.0
O578 O 0.62061 0.02897 -0.01356 0.0
O579 O 0.6921 0.02931 0.98329 0.0
C580 C 0.6564 0.00761 -0.01588 0.0
C581 C 0.73346 0.21033 0.06079 0.0
C582 C 0.68152 0.05357 0.0888 0.0
C583 C 0.62849 0.16434 0.03629 0.0
O584 O 0.65287 0.15379 0.06672 0.0
O585 O 0.62863 0.14173 0.00149 0.0
O586 O 0.73129 0.18892 0.09656 0.0
O587 O 0.73414 0.18868 0.02505 0.0
O588 O 0.9028 0.31694 0.06419 0.0
Cd589 Cd 0.96271 0.31059 0.07954 0.0
Cd590 Cd 0.90678 0.25488 0.13844 0.0
O591 O 0.87881 0.25156 0.07593 0.0
O592 O 0.98132 0.34683 0.02933 0.0
O593 O -0.0159 0.2753 0.02958 0.0
C594 C 0.98349 0.31105 0.00793 0.0
C595 C 0.90645 0.23417 0.21007 0.0
C596 C 0.87863 0.28642 0.05341 0.0
C597 C 0.93099 0.33889 0.16452 0.0
O598 O 0.90041 0.31484 0.15368 0.0
O599 O 0.9659 0.3386 0.14206 0.0
O600 O 0.87063 0.23628 0.18872 0.0
O601 O 0.94217 0.23359 0.18838 0.0
O602 O 0.90268 0.81669 0.56379 0.0
Cd603 Cd 0.96262 0.81016 0.57903 0.0
Cd604 Cd 0.90657 0.75466 0.63829 0.0
O605 O 0.87834 0.75149 0.57588 0.0
O606 O 0.98123 0.84631 0.52876 0.0
O607 O -0.01607 0.77478 0.52909 0.0
C608 C 0.98334 0.8105 0.5074 0.0
C609 C 0.90601 0.73412 0.71002 0.0
C610 C 0.87823 0.78631 0.55328 0.0
C611 C 0.93136 0.83863 0.6641 0.0
O612 O 0.90066 0.81469 0.65336 0.0
O613 O 0.96616 0.83826 0.64149 0.0
O614 O 0.87024 0.73648 0.68863 0.0
O615 O 0.94173 0.73324 0.68835 0.0
O616 O 0.56444 0.90278 0.81699 0.0
Cd617 Cd 0.57971 0.96274 0.81073 0.0
Cd618 Cd 0.63873 0.90696 0.75485 0.0
O619 O 0.5762 0.87895 0.75156 0.0
O620 O 0.52944 0.98127 0.84693 0.0
O621 O 0.52975 -0.01589 0.77542 0.0
C622 C 0.50807 0.98346 0.81114 0.0
C623 C 0.71038 0.9065 0.73415 0.0
C624 C 0.55366 0.8787 0.78641 0.0
C625 C 0.66471 0.93108 0.839 0.0
O626 O 0.65398 0.90058 0.81479 0.0
O627 O 0.6422 0.96595 0.83879 0.0
O628 O 0.68898 0.87072 0.73629 0.0
O629 O 0.68873 0.94225 0.73354 0.0
O630 O 0.31693 0.90448 0.06499 0.0
Cd631 Cd 0.31004 0.88899 0.00514 0.0
Cd632 Cd 0.2547 0.83013 0.06137 0.0
O633 O 0.25179 0.89256 0.08957 0.0
O634 O 0.34616 0.93912 -0.01382 0.0
O635 O 0.27461 0.93889 -0.01616 0.0
C636 C 0.31037 0.96053 -0.01579 0.0
C637 C 0.23414 0.75841 0.06167 0.0
C638 C 0.28669 0.91503 0.0896 0.0
C639 C 0.33831 0.80389 0.0365 0.0
O640 O 0.31469 0.81497 0.06733 0.0
O641 O 0.33787 0.82638 0.00162 0.0
O642 O 0.23638 0.7797 0.09751 0.0
O643 O 0.23338 0.78018 0.026 0.0
O644 O 0.40324 0.56486 0.31727 0.0
Cd645 Cd 0.38799 0.5049 0.31103 0.0
Cd646 Cd 0.32916 0.56043 0.25497 0.0
O647 O 0.39173 0.58837 0.25169 0.0
O648 O 0.43831 0.48636 0.34715 0.0
O649 O 0.43791 0.48359 0.27562 0.0
C650 C 0.45963 0.48421 0.31132 0.0
C651 C 0.25756 0.56077 0.23415 0.0
C652 C 0.41419 0.58874 0.28659 0.0
C653 C 0.30298 0.53663 0.33914 0.0
O654 O 0.31374 0.56705 0.31484 0.0
O655 O 0.32547 0.50174 0.33902 0.0
O656 O 0.27894 0.59657 0.2362 0.0
O657 O 0.27923 0.52503 0.23366 0.0
O658 O 0.65082 0.56387 0.56486 0.0
Cd659 Cd 0.6573 0.5792 0.50494 0.0
Cd660 Cd 0.71291 0.63828 0.561 0.0
O661 O 0.71609 0.57579 0.58907 0.0
O662 O 0.62112 0.52894 0.48631 0.0
O663 O 0.69264 0.52924 0.4836 0.0
C664 C 0.65691 0.50756 0.48418 0.0
C665 C 0.73351 0.70999 0.56157 0.0
C666 C 0.68125 0.55322 0.58918 0.0
C667 C 0.62891 0.66423 0.53648 0.0
O668 O 0.65292 0.65343 0.56711 0.0
O669 O 0.62923 0.6417 0.50163 0.0
O670 O 0.73125 0.68856 0.59733 0.0
O671 O 0.73428 0.68835 0.52582 0.0
loop_
_geom_bond_atom_site_label_1
_geom_bond_atom_site_label_2
_geom_bond_distance
_geom_bond_site_symmetry_2
_ccdc_geom_bond_type
O0 Cd1 2.223 . S
O0 C8 1.315 . S
Cd1 O0 2.223 . S
Cd1 O4 2.297 . S
Cd1 O5 2.439 . S
Cd1 O11 2.240 . S
Cd2 O3 2.240 . S
Cd2 O10 2.223 . S
Cd2 O12 2.297 . S
Cd2 O13 2.439 . S
O3 Cd2 2.240 . S
O3 C8 1.279 . S
O4 Cd1 2.297 . S
O4 C6 1.247 . S
O5 Cd1 2.439 . S
O5 C6 1.208 . S
C6 O4 1.247 . S
C6 O5 1.208 . S
C7 O12 1.247 . S
C7 O13 1.208 . S
C8 O0 1.315 . S
C8 O3 1.279 . S
C9 O10 1.315 . S
C9 O11 1.279 . S
O10 Cd2 2.223 . S
O10 C9 1.315 . S
O11 Cd1 2.240 . S
O11 C9 1.279 . S
O12 Cd2 2.297 . S
O12 C7 1.247 . S
O13 Cd2 2.439 . S
O13 C7 1.208 . S
O14 Cd15 2.223 . S
O14 C22 1.315 . S
Cd15 O14 2.223 . S
Cd15 O18 2.297 . S
Cd15 O19 2.439 . S
Cd15 O25 2.240 . S
Cd16 O17 2.240 . S
Cd16 O24 2.223 . S
Cd16 O26 2.297 . S
Cd16 O27 2.439 . S
O17 Cd16 2.240 . S
O17 C22 1.279 . S
O18 Cd15 2.297 . S
O18 C20 1.247 . S
O19 Cd15 2.439 . S
O19 C20 1.208 . S
C20 O18 1.247 . S
C20 O19 1.208 . S
C21 O26 1.247 . S
C21 O27 1.208 . S
C22 O14 1.315 . S
C22 O17 1.279 . S
C23 O24 1.315 . S
C23 O25 1.279 . S
O24 Cd16 2.223 . S
O24 C23 1.315 . S
O25 Cd15 2.240 . S
O25 C23 1.279 . S
O26 Cd16 2.297 . S
O26 C21 1.247 . S
O27 Cd16 2.439 . S
O27 C21 1.208 . S
O28 Cd29 2.223 . S
O28 C36 1.315 . S
Cd29 O28 2.223 . S
Cd29 O32 2.297 . S
Cd29 O33 2.439 . S
Cd29 O39 2.240 . S
Cd30 O31 2.240 . S
Cd30 O38 2.223 . S
Cd30 O40 2.297 1_565 S
Cd30 O41 2.439 1_565 S
O31 Cd30 2.240 . S
O31 C36 1.279 . S
O32 Cd29 2.297 . S
O32 C34 1.247 . S
O33 Cd29 2.439 . S
O33 C34 1.208 . S
C34 O32 1.247 . S
C34 O33 1.208 . S
C35 O40 1.247 . S
C35 O41 1.208 . S
C36 O28 1.315 . S
C36 O31 1.279 . S
C37 O38 1.315 . S
C37 O39 1.279 . S
O38 Cd30 2.223 . S
O38 C37 1.315 . S
O39 Cd29 2.240 . S
O39 C37 1.279 . S
O40 Cd30 2.297 1_545 S
O40 C35 1.247 . S
O41 Cd30 2.439 1_545 S
O41 C35 1.208 . S
O42 Cd43 2.223 . S
O42 C50 1.315 . S
Cd43 O42 2.223 . S
Cd43 O46 2.297 . S
Cd43 O47 2.439 . S
Cd43 O53 2.240 . S
Cd44 O45 2.240 . S
Cd44 O52 2.223 . S
Cd44 O54 2.297 1_556 S
Cd44 O55 2.439 1_556 S
O45 Cd44 2.240 . S
O45 C50 1.279 . S
O46 Cd43 2.297 . S
O46 C48 1.247 . S
O47 Cd43 2.439 . S
O47 C48 1.208 . S
C48 O46 1.247 . S
C48 O47 1.208 . S
C49 O54 1.247 . S
C49 O55 1.208 . S
C50 O42 1.315 . S
C50 O45 1.279 . S
C51 O52 1.315 . S
C51 O53 1.279 . S
O52 Cd44 2.223 . S
O52 C51 1.315 . S
O53 Cd43 2.240 . S
O53 C51 1.279 . S
O54 Cd44 2.297 1_554 S
O54 C49 1.247 . S
O55 Cd44 2.439 1_554 S
O55 C49 1.208 . S
O56 Cd57 2.223 . S
O56 C64 1.315 . S
Cd57 O56 2.223 . S
Cd57 O60 2.297 . S
Cd57 O61 2.439 . S
Cd57 O67 2.240 . S
Cd58 O59 2.240 . S
Cd58 O66 2.223 . S
Cd58 O68 2.297 . S
Cd58 O69 2.439 . S
O59 Cd58 2.240 . S
O59 C64 1.279 . S
O60 Cd57 2.297 . S
O60 C62 1.247 . S
O61 Cd57 2.439 . S
O61 C62 1.208 . S
C62 O60 1.247 . S
C62 O61 1.208 . S
C63 O68 1.247 . S
C63 O69 1.208 . S
C64 O56 1.315 . S
C64 O59 1.279 . S
C65 O66 1.315 . S
C65 O67 1.279 . S
O66 Cd58 2.223 . S
O66 C65 1.315 . S
O67 Cd57 2.240 . S
O67 C65 1.279 . S
O68 Cd58 2.297 . S
O68 C63 1.247 . S
O69 Cd58 2.439 . S
O69 C63 1.208 . S
O70 Cd71 2.223 . S
O70 C78 1.315 . S
Cd71 O70 2.223 . S
Cd71 O74 2.297 1_554 S
Cd71 O75 2.439 1_554 S
Cd71 O81 2.240 . S
Cd72 O73 2.240 . S
Cd72 O80 2.223 . S
Cd72 O82 2.297 . S
Cd72 O83 2.439 . S
O73 Cd72 2.240 . S
O73 C78 1.279 . S
O74 Cd71 2.297 1_556 S
O74 C76 1.247 . S
O75 Cd71 2.439 1_556 S
O75 C76 1.208 . S
C76 O74 1.247 . S
C76 O75 1.208 . S
C77 O82 1.247 . S
C77 O83 1.208 . S
C78 O70 1.315 . S
C78 O73 1.279 . S
C79 O80 1.315 . S
C79 O81 1.279 . S
O80 Cd72 2.223 . S
O80 C79 1.315 . S
O81 Cd71 2.240 . S
O81 C79 1.279 . S
O82 Cd72 2.297 . S
O82 C77 1.247 . S
O83 Cd72 2.439 . S
O83 C77 1.208 . S
O84 Cd85 2.223 . S
O84 C92 1.315 . S
Cd85 O84 2.223 . S
Cd85 O88 2.297 1_545 S
Cd85 O89 2.439 1_545 S
Cd85 O95 2.240 . S
Cd86 O87 2.240 . S
Cd86 O94 2.223 . S
Cd86 O96 2.297 . S
Cd86 O97 2.439 . S
O87 Cd86 2.240 . S
O87 C92 1.279 . S
O88 Cd85 2.297 1_565 S
O88 C90 1.247 . S
O89 Cd85 2.439 1_565 S
O89 C90 1.208 . S
C90 O88 1.247 . S
C90 O89 1.208 . S
C91 O96 1.247 . S
C91 O97 1.208 . S
C92 O84 1.315 . S
C92 O87 1.279 . S
C93 O94 1.315 . S
C93 O95 1.279 . S
O94 Cd86 2.223 . S
O94 C93 1.315 . S
O95 Cd85 2.240 . S
O95 C93 1.279 . S
O96 Cd86 2.297 . S
O96 C91 1.247 . S
O97 Cd86 2.439 . S
O97 C91 1.208 . S
O98 Cd99 2.223 . S
O98 C106 1.315 . S
Cd99 O98 2.223 . S
Cd99 O102 2.297 . S
Cd99 O103 2.439 . S
Cd99 O109 2.240 . S
Cd100 O101 2.240 . S
Cd100 O108 2.223 . S
Cd100 O110 2.297 . S
Cd100 O111 2.439 . S
O101 Cd100 2.240 . S
O101 C106 1.279 . S
O102 Cd99 2.297 . S
O102 C104 1.247 . S
O103 Cd99 2.439 . S
O103 C104 1.208 . S
C104 O102 1.247 . S
C104 O103 1.208 . S
C105 O110 1.247 . S
C105 O111 1.208 . S
C106 O98 1.315 . S
C106 O101 1.279 . S
C107 O108 1.315 . S
C107 O109 1.279 . S
O108 Cd100 2.223 . S
O108 C107 1.315 . S
O109 Cd99 2.240 . S
O109 C107 1.279 . S
O110 Cd100 2.297 . S
O110 C105 1.247 . S
O111 Cd100 2.439 . S
O111 C105 1.208 . S
O112 Cd113 2.223 . S
O112 C120 1.315 . S
Cd113 O112 2.223 . S
Cd113 O116 2.297 . S
Cd113 O117 2.439 . S
Cd113 O123 2.240 . S
Cd114 O115 2.240 . S
Cd114 O122 2.223 . S
Cd114 O124 2.297 . S
Cd114 O125 2.439 . S
O115 Cd114 2.240 . S
O115 C120 1.279 . S
O116 Cd113 2.297 . S
O116 C118 1.247 . S
O117 Cd113 2.439 . S
O117 C118 1.208 . S
C118 O116 1.247 . S
C118 O117 1.208 . S
C119 O124 1.247 . S
C119 O125 1.208 . S
C120 O112 1.315 . S
C120 O115 1.279 . S
C121 O122 1.315 . S
C121 O123 1.279 . S
O122 Cd114 2.223 . S
O122 C121 1.315 . S
O123 Cd113 2.240 . S
O123 C121 1.279 . S
O124 Cd114 2.297 . S
O124 C119 1.247 . S
O125 Cd114 2.439 . S
O125 C119 1.208 . S
O126 Cd127 2.223 . S
O126 C134 1.315 . S
Cd127 O126 2.223 . S
Cd127 O130 2.297 . S
Cd127 O131 2.439 . S
Cd127 O137 2.240 . S
Cd128 O129 2.240 . S
Cd128 O136 2.223 . S
Cd128 O138 2.297 . S
Cd128 O139 2.439 . S
O129 Cd128 2.240 . S
O129 C134 1.279 . S
O130 Cd127 2.297 . S
O130 C132 1.247 . S
O131 Cd127 2.439 . S
O131 C132 1.208 . S
C132 O130 1.247 . S
C132 O131 1.208 . S
C133 O138 1.247 . S
C133 O139 1.208 . S
C134 O126 1.315 . S
C134 O129 1.279 . S
C135 O136 1.315 . S
C135 O137 1.279 . S
O136 Cd128 2.223 . S
O136 C135 1.315 . S
O137 Cd127 2.240 . S
O137 C135 1.279 . S
O138 Cd128 2.297 . S
O138 C133 1.247 . S
O139 Cd128 2.439 . S
O139 C133 1.208 . S
O140 Cd141 2.223 . S
O140 C148 1.315 . S
Cd141 O140 2.223 . S
Cd141 O144 2.297 . S
Cd141 O145 2.439 . S
Cd141 O151 2.240 . S
Cd142 O143 2.240 . S
Cd142 O150 2.223 . S
Cd142 O152 2.297 1_556 S
Cd142 O153 2.439 1_556 S
O143 Cd142 2.240 . S
O143 C148 1.279 . S
O144 Cd141 2.297 . S
O144 C146 1.247 . S
O145 Cd141 2.439 . S
O145 C146 1.208 . S
C146 O144 1.247 . S
C146 O145 1.208 . S
C147 O152 1.247 . S
C147 O153 1.208 . S
C148 O140 1.315 . S
C148 O143 1.279 . S
C149 O150 1.315 . S
C149 O151 1.279 . S
O150 Cd142 2.223 . S
O150 C149 1.315 . S
O151 Cd141 2.240 . S
O151 C149 1.279 . S
O152 Cd142 2.297 1_554 S
O152 C147 1.247 . S
O153 Cd142 2.439 1_554 S
O153 C147 1.208 . S
O154 Cd155 2.223 . S
O154 C162 1.315 . S
Cd155 O154 2.223 . S
Cd155 O158 2.297 . S
Cd155 O159 2.439 . S
Cd155 O165 2.240 . S
Cd156 O157 2.240 . S
Cd156 O164 2.223 . S
Cd156 O166 2.297 1_545 S
Cd156 O167 2.439 1_545 S
O157 Cd156 2.240 . S
O157 C162 1.279 . S
O158 Cd155 2.297 . S
O158 C160 1.247 . S
O159 Cd155 2.439 . S
O159 C160 1.208 . S
C160 O158 1.247 . S
C160 O159 1.208 . S
C161 O166 1.247 . S
C161 O167 1.208 . S
C162 O154 1.315 . S
C162 O157 1.279 . S
C163 O164 1.315 . S
C163 O165 1.279 . S
O164 Cd156 2.223 . S
O164 C163 1.315 . S
O165 Cd155 2.240 . S
O165 C163 1.279 . S
O166 Cd156 2.297 1_565 S
O166 C161 1.247 . S
O167 Cd156 2.439 1_565 S
O167 C161 1.208 . S
O168 Cd169 2.223 . S
O168 C176 1.315 . S
Cd169 O168 2.223 . S
Cd169 O172 2.297 . S
Cd169 O173 2.439 . S
Cd169 O179 2.240 . S
Cd170 O171 2.240 . S
Cd170 O178 2.223 . S
Cd170 O180 2.297 . S
Cd170 O181 2.439 . S
O171 Cd170 2.240 . S
O171 C176 1.279 . S
O172 Cd169 2.297 . S
O172 C174 1.247 . S
O173 Cd169 2.439 . S
O173 C174 1.208 . S
C174 O172 1.247 . S
C174 O173 1.208 . S
C175 O180 1.247 . S
C175 O181 1.208 . S
C176 O168 1.315 . S
C176 O171 1.279 . S
C177 O178 1.315 . S
C177 O179 1.279 . S
O178 Cd170 2.223 . S
O178 C177 1.315 . S
O179 Cd169 2.240 . S
O179 C177 1.279 . S
O180 Cd170 2.297 . S
O180 C175 1.247 . S
O181 Cd170 2.439 . S
O181 C175 1.208 . S
O182 Cd183 2.223 . S
O182 C190 1.315 . S
Cd183 O182 2.223 . S
Cd183 O186 2.297 1_455 S
Cd183 O187 2.439 1_455 S
Cd183 O193 2.240 . S
Cd184 O185 2.240 . S
Cd184 O192 2.223 . S
Cd184 O194 2.297 . S
Cd184 O195 2.439 . S
O185 Cd184 2.240 . S
O185 C190 1.279 . S
O186 Cd183 2.297 1_655 S
O186 C188 1.247 . S
O187 Cd183 2.439 1_655 S
O187 C188 1.208 . S
C188 O186 1.247 . S
C188 O187 1.208 . S
C189 O194 1.247 . S
C189 O195 1.208 . S
C190 O182 1.315 . S
C190 O185 1.279 . S
C191 O192 1.315 . S
C191 O193 1.279 . S
O192 Cd184 2.223 . S
O192 C191 1.315 . S
O193 Cd183 2.240 . S
O193 C191 1.279 . S
O194 Cd184 2.297 . S
O194 C189 1.247 . S
O195 Cd184 2.439 . S
O195 C189 1.208 . S
O196 Cd197 2.223 . S
O196 C204 1.315 . S
Cd197 O196 2.223 . S
Cd197 O200 2.297 . S
Cd197 O201 2.439 . S
Cd197 O207 2.240 . S
Cd198 O199 2.240 . S
Cd198 O206 2.223 . S
Cd198 O208 2.297 . S
Cd198 O209 2.439 . S
O199 Cd198 2.240 . S
O199 C204 1.279 . S
O200 Cd197 2.297 . S
O200 C202 1.247 . S
O201 Cd197 2.439 . S
O201 C202 1.208 . S
C202 O200 1.247 . S
C202 O201 1.208 . S
C203 O208 1.247 . S
C203 O209 1.208 . S
C204 O196 1.315 . S
C204 O199 1.279 . S
C205 O206 1.315 . S
C205 O207 1.279 . S
O206 Cd198 2.223 . S
O206 C205 1.315 . S
O207 Cd197 2.240 . S
O207 C205 1.279 . S
O208 Cd198 2.297 . S
O208 C203 1.247 . S
O209 Cd198 2.439 . S
O209 C203 1.208 . S
O210 Cd211 2.223 . S
O210 C218 1.315 . S
Cd211 O210 2.223 . S
Cd211 O214 2.297 . S
Cd211 O215 2.439 . S
Cd211 O221 2.240 . S
Cd212 O213 2.240 . S
Cd212 O220 2.223 . S
Cd212 O222 2.297 1_655 S
Cd212 O223 2.439 1_655 S
O213 Cd212 2.240 . S
O213 C218 1.279 . S
O214 Cd211 2.297 . S
O214 C216 1.247 . S
O215 Cd211 2.439 . S
O215 C216 1.208 . S
C216 O214 1.247 . S
C216 O215 1.208 . S
C217 O222 1.247 . S
C217 O223 1.208 . S
C218 O210 1.315 . S
C218 O213 1.279 . S
C219 O220 1.315 . S
C219 O221 1.279 . S
O220 Cd212 2.223 . S
O220 C219 1.315 . S
O221 Cd211 2.240 . S
O221 C219 1.279 . S
O222 Cd212 2.297 1_455 S
O222 C217 1.247 . S
O223 Cd212 2.439 1_455 S
O223 C217 1.208 . S
O224 Cd225 2.223 . S
O224 C232 1.315 . S
Cd225 O224 2.223 . S
Cd225 O228 2.297 1_455 S
Cd225 O229 2.439 1_455 S
Cd225 O235 2.240 . S
Cd226 O227 2.240 . S
Cd226 O234 2.223 . S
Cd226 O236 2.297 . S
Cd226 O237 2.439 . S
O227 Cd226 2.240 . S
O227 C232 1.279 . S
O228 Cd225 2.297 1_655 S
O228 C230 1.247 . S
O229 Cd225 2.439 1_655 S
O229 C230 1.208 . S
C230 O228 1.247 . S
C230 O229 1.208 . S
C231 O236 1.247 . S
C231 O237 1.208 . S
C232 O224 1.315 . S
C232 O227 1.279 . S
C233 O234 1.315 . S
C233 O235 1.279 . S
O234 Cd226 2.223 . S
O234 C233 1.315 . S
O235 Cd225 2.240 . S
O235 C233 1.279 . S
O236 Cd226 2.297 . S
O236 C231 1.247 . S
O237 Cd226 2.439 . S
O237 C231 1.208 . S
O238 Cd239 2.223 . S
O238 C246 1.315 . S
Cd239 O238 2.223 . S
Cd239 O242 2.297 . S
Cd239 O243 2.439 . S
Cd239 O249 2.240 . S
Cd240 O241 2.240 . S
Cd240 O248 2.223 . S
Cd240 O250 2.297 . S
Cd240 O251 2.439 . S
O241 Cd240 2.240 . S
O241 C246 1.279 . S
O242 Cd239 2.297 . S
O242 C244 1.247 . S
O243 Cd239 2.439 . S
O243 C244 1.208 . S
C244 O242 1.247 . S
C244 O243 1.208 . S
C245 O250 1.247 . S
C245 O251 1.208 . S
C246 O238 1.315 . S
C246 O241 1.279 . S
C247 O248 1.315 . S
C247 O249 1.279 . S
O248 Cd240 2.223 . S
O248 C247 1.315 . S
O249 Cd239 2.240 . S
O249 C247 1.279 . S
O250 Cd240 2.297 . S
O250 C245 1.247 . S
O251 Cd240 2.439 . S
O251 C245 1.208 . S
O252 Cd253 2.223 . S
O252 C260 1.315 . S
Cd253 O252 2.223 . S
Cd253 O256 2.297 . S
Cd253 O257 2.439 . S
Cd253 O263 2.240 . S
Cd254 O255 2.240 . S
Cd254 O262 2.223 . S
Cd254 O264 2.297 . S
Cd254 O265 2.439 . S
O255 Cd254 2.240 . S
O255 C260 1.279 . S
O256 Cd253 2.297 . S
O256 C258 1.247 . S
O257 Cd253 2.439 . S
O257 C258 1.208 . S
C258 O256 1.247 . S
C258 O257 1.208 . S
C259 O264 1.247 . S
C259 O265 1.208 . S
C260 O252 1.315 . S
C260 O255 1.279 . S
C261 O262 1.315 . S
C261 O263 1.279 . S
O262 Cd254 2.223 . S
O262 C261 1.315 . S
O263 Cd253 2.240 . S
O263 C261 1.279 . S
O264 Cd254 2.297 . S
O264 C259 1.247 . S
O265 Cd254 2.439 . S
O265 C259 1.208 . S
O266 Cd267 2.223 . S
O266 C274 1.315 . S
Cd267 O266 2.223 . S
Cd267 O270 2.297 . S
Cd267 O271 2.439 . S
Cd267 O277 2.240 . S
Cd268 O269 2.240 . S
Cd268 O276 2.223 . S
Cd268 O278 2.297 . S
Cd268 O279 2.439 . S
O269 Cd268 2.240 . S
O269 C274 1.279 . S
O270 Cd267 2.297 . S
O270 C272 1.247 . S
O271 Cd267 2.439 . S
O271 C272 1.208 . S
C272 O270 1.247 . S
C272 O271 1.208 . S
C273 O278 1.247 . S
C273 O279 1.208 . S
C274 O266 1.315 . S
C274 O269 1.279 . S
C275 O276 1.315 . S
C275 O277 1.279 . S
O276 Cd268 2.223 . S
O276 C275 1.315 . S
O277 Cd267 2.240 . S
O277 C275 1.279 . S
O278 Cd268 2.297 . S
O278 C273 1.247 . S
O279 Cd268 2.439 . S
O279 C273 1.208 . S
O280 Cd281 2.223 . S
O280 C288 1.315 . S
Cd281 O280 2.223 . S
Cd281 O284 2.297 . S
Cd281 O285 2.439 . S
Cd281 O291 2.240 . S
Cd282 O283 2.240 . S
Cd282 O290 2.223 . S
Cd282 O292 2.297 1_545 S
Cd282 O293 2.439 1_545 S
O283 Cd282 2.240 . S
O283 C288 1.279 . S
O284 Cd281 2.297 . S
O284 C286 1.247 . S
O285 Cd281 2.439 . S
O285 C286 1.208 . S
C286 O284 1.247 . S
C286 O285 1.208 . S
C287 O292 1.247 . S
C287 O293 1.208 . S
C288 O280 1.315 . S
C288 O283 1.279 . S
C289 O290 1.315 . S
C289 O291 1.279 . S
O290 Cd282 2.223 . S
O290 C289 1.315 . S
O291 Cd281 2.240 . S
O291 C289 1.279 . S
O292 Cd282 2.297 1_565 S
O292 C287 1.247 . S
O293 Cd282 2.439 1_565 S
O293 C287 1.208 . S
O294 Cd295 2.223 . S
O294 C302 1.315 . S
Cd295 O294 2.223 . S
Cd295 O298 2.297 . S
Cd295 O299 2.439 . S
Cd295 O305 2.240 . S
Cd296 O297 2.240 . S
Cd296 O304 2.223 . S
Cd296 O306 2.297 1_556 S
Cd296 O307 2.439 1_556 S
O297 Cd296 2.240 . S
O297 C302 1.279 . S
O298 Cd295 2.297 . S
O298 C300 1.247 . S
O299 Cd295 2.439 . S
O299 C300 1.208 . S
C300 O298 1.247 . S
C300 O299 1.208 . S
C301 O306 1.247 . S
C301 O307 1.208 . S
C302 O294 1.315 . S
C302 O297 1.279 . S
C303 O304 1.315 . S
C303 O305 1.279 . S
O304 Cd296 2.223 . S
O304 C303 1.315 . S
O305 Cd295 2.240 . S
O305 C303 1.279 . S
O306 Cd296 2.297 1_554 S
O306 C301 1.247 . S
O307 Cd296 2.439 1_554 S
O307 C301 1.208 . S
O308 Cd309 2.223 . S
O308 C316 1.315 . S
Cd309 O308 2.223 . S
Cd309 O312 2.297 . S
Cd309 O313 2.439 . S
Cd309 O319 2.240 . S
Cd310 O311 2.240 . S
Cd310 O318 2.223 . S
Cd310 O320 2.297 . S
Cd310 O321 2.439 . S
O311 Cd310 2.240 . S
O311 C316 1.279 . S
O312 Cd309 2.297 . S
O312 C314 1.247 . S
O313 Cd309 2.439 . S
O313 C314 1.208 . S
C314 O312 1.247 . S
C314 O313 1.208 . S
C315 O320 1.247 . S
C315 O321 1.208 . S
C316 O308 1.315 . S
C316 O311 1.279 . S
C317 O318 1.315 . S
C317 O319 1.279 . S
O318 Cd310 2.223 . S
O318 C317 1.315 . S
O319 Cd309 2.240 . S
O319 C317 1.279 . S
O320 Cd310 2.297 . S
O320 C315 1.247 . S
O321 Cd310 2.439 . S
O321 C315 1.208 . S
O322 Cd323 2.223 . S
O322 C330 1.315 . S
Cd323 O322 2.223 . S
Cd323 O326 2.297 . S
Cd323 O327 2.439 . S
Cd323 O333 2.240 . S
Cd324 O325 2.240 . S
Cd324 O332 2.223 . S
Cd324 O334 2.297 . S
Cd324 O335 2.439 . S
O325 Cd324 2.240 . S
O325 C330 1.279 . S
O326 Cd323 2.297 . S
O326 C328 1.247 . S
O327 Cd323 2.439 . S
O327 C328 1.208 . S
C328 O326 1.247 . S
C328 O327 1.208 . S
C329 O334 1.247 . S
C329 O335 1.208 . S
C330 O322 1.315 . S
C330 O325 1.279 . S
C331 O332 1.315 . S
C331 O333 1.279 . S
O332 Cd324 2.223 . S
O332 C331 1.315 . S
O333 Cd323 2.240 . S
O333 C331 1.279 . S
O334 Cd324 2.297 . S
O334 C329 1.247 . S
O335 Cd324 2.439 . S
O335 C329 1.208 . S
O336 Cd337 2.223 . S
O336 C344 1.315 . S
Cd337 O336 2.223 . S
Cd337 O340 2.297 1_565 S
Cd337 O341 2.439 1_565 S
Cd337 O347 2.240 . S
Cd338 O339 2.240 . S
Cd338 O346 2.223 . S
Cd338 O348 2.297 . S
Cd338 O349 2.439 . S
O339 Cd338 2.240 . S
O339 C344 1.279 . S
O340 Cd337 2.297 1_545 S
O340 C342 1.247 . S
O341 Cd337 2.439 1_545 S
O341 C342 1.208 . S
C342 O340 1.247 . S
C342 O341 1.208 . S
C343 O348 1.247 . S
C343 O349 1.208 . S
C344 O336 1.315 . S
C344 O339 1.279 . S
C345 O346 1.315 . S
C345 O347 1.279 . S
O346 Cd338 2.223 . S
O346 C345 1.315 . S
O347 Cd337 2.240 . S
O347 C345 1.279 . S
O348 Cd338 2.297 . S
O348 C343 1.247 . S
O349 Cd338 2.439 . S
O349 C343 1.208 . S
O350 Cd351 2.223 . S
O350 C358 1.315 . S
Cd351 O350 2.223 . S
Cd351 O354 2.297 . S
Cd351 O355 2.439 . S
Cd351 O361 2.240 . S
Cd352 O353 2.240 . S
Cd352 O360 2.223 . S
Cd352 O362 2.297 . S
Cd352 O363 2.439 . S
O353 Cd352 2.240 . S
O353 C358 1.279 . S
O354 Cd351 2.297 . S
O354 C356 1.247 . S
O355 Cd351 2.439 . S
O355 C356 1.208 . S
C356 O354 1.247 . S
C356 O355 1.208 . S
C357 O362 1.247 . S
C357 O363 1.208 . S
C358 O350 1.315 . S
C358 O353 1.279 . S
C359 O360 1.315 . S
C359 O361 1.279 . S
O360 Cd352 2.223 . S
O360 C359 1.315 . S
O361 Cd351 2.240 . S
O361 C359 1.279 . S
O362 Cd352 2.297 . S
O362 C357 1.247 . S
O363 Cd352 2.439 . S
O363 C357 1.208 . S
O364 Cd365 2.223 . S
O364 C372 1.315 . S
Cd365 O364 2.223 . S
Cd365 O368 2.297 . S
Cd365 O369 2.439 . S
Cd365 O375 2.240 . S
Cd366 O367 2.240 . S
Cd366 O374 2.223 . S
Cd366 O376 2.297 . S
Cd366 O377 2.439 . S
O367 Cd366 2.240 . S
O367 C372 1.279 . S
O368 Cd365 2.297 . S
O368 C370 1.247 . S
O369 Cd365 2.439 . S
O369 C370 1.208 . S
C370 O368 1.247 . S
C370 O369 1.208 . S
C371 O376 1.247 . S
C371 O377 1.208 . S
C372 O364 1.315 . S
C372 O367 1.279 . S
C373 O374 1.315 . S
C373 O375 1.279 . S
O374 Cd366 2.223 . S
O374 C373 1.315 . S
O375 Cd365 2.240 . S
O375 C373 1.279 . S
O376 Cd366 2.297 . S
O376 C371 1.247 . S
O377 Cd366 2.439 . S
O377 C371 1.208 . S
O378 Cd379 2.223 . S
O378 C386 1.315 . S
Cd379 O378 2.223 . S
Cd379 O382 2.297 1_554 S
Cd379 O383 2.439 1_554 S
Cd379 O389 2.240 . S
Cd380 O381 2.240 . S
Cd380 O388 2.223 . S
Cd380 O390 2.297 . S
Cd380 O391 2.439 . S
O381 Cd380 2.240 . S
O381 C386 1.279 . S
O382 Cd379 2.297 1_556 S
O382 C384 1.247 . S
O383 Cd379 2.439 1_556 S
O383 C384 1.208 . S
C384 O382 1.247 . S
C384 O383 1.208 . S
C385 O390 1.247 . S
C385 O391 1.208 . S
C386 O378 1.315 . S
C386 O381 1.279 . S
C387 O388 1.315 . S
C387 O389 1.279 . S
O388 Cd380 2.223 . S
O388 C387 1.315 . S
O389 Cd379 2.240 . S
O389 C387 1.279 . S
O390 Cd380 2.297 . S
O390 C385 1.247 . S
O391 Cd380 2.439 . S
O391 C385 1.208 . S
O392 Cd393 2.223 . S
O392 C400 1.315 . S
Cd393 O392 2.223 . S
Cd393 O396 2.297 . S
Cd393 O397 2.439 . S
Cd393 O403 2.240 . S
Cd394 O395 2.240 . S
Cd394 O402 2.223 . S
Cd394 O404 2.297 1_556 S
Cd394 O405 2.439 1_556 S
O395 Cd394 2.240 . S
O395 C400 1.279 . S
O396 Cd393 2.297 . S
O396 C398 1.247 . S
O397 Cd393 2.439 . S
O397 C398 1.208 . S
C398 O396 1.247 . S
C398 O397 1.208 . S
C399 O404 1.247 . S
C399 O405 1.208 . S
C400 O392 1.315 . S
C400 O395 1.279 . S
C401 O402 1.315 . S
C401 O403 1.279 . S
O402 Cd394 2.223 . S
O402 C401 1.315 . S
O403 Cd393 2.240 . S
O403 C401 1.279 . S
O404 Cd394 2.297 1_554 S
O404 C399 1.247 . S
O405 Cd394 2.439 1_554 S
O405 C399 1.208 . S
O406 Cd407 2.223 . S
O406 C414 1.315 . S
Cd407 O406 2.223 . S
Cd407 O410 2.297 . S
Cd407 O411 2.439 . S
Cd407 O417 2.240 . S
Cd408 O409 2.240 . S
Cd408 O416 2.223 . S
Cd408 O418 2.297 1_565 S
Cd408 O419 2.439 1_565 S
O409 Cd408 2.240 . S
O409 C414 1.279 . S
O410 Cd407 2.297 . S
O410 C412 1.247 . S
O411 Cd407 2.439 . S
O411 C412 1.208 . S
C412 O410 1.247 . S
C412 O411 1.208 . S
C413 O418 1.247 . S
C413 O419 1.208 . S
C414 O406 1.315 . S
C414 O409 1.279 . S
C415 O416 1.315 . S
C415 O417 1.279 . S
O416 Cd408 2.223 . S
O416 C415 1.315 . S
O417 Cd407 2.240 . S
O417 C415 1.279 . S
O418 Cd408 2.297 1_545 S
O418 C413 1.247 . S
O419 Cd408 2.439 1_545 S
O419 C413 1.208 . S
O420 Cd421 2.223 . S
O420 C428 1.315 . S
Cd421 O420 2.223 . S
Cd421 O424 2.297 . S
Cd421 O425 2.439 . S
Cd421 O431 2.240 . S
Cd422 O423 2.240 . S
Cd422 O430 2.223 . S
Cd422 O432 2.297 . S
Cd422 O433 2.439 . S
O423 Cd422 2.240 . S
O423 C428 1.279 . S
O424 Cd421 2.297 . S
O424 C426 1.247 . S
O425 Cd421 2.439 . S
O425 C426 1.208 . S
C426 O424 1.247 . S
C426 O425 1.208 . S
C427 O432 1.247 . S
C427 O433 1.208 . S
C428 O420 1.315 . S
C428 O423 1.279 . S
C429 O430 1.315 . S
C429 O431 1.279 . S
O430 Cd422 2.223 . S
O430 C429 1.315 . S
O431 Cd421 2.240 . S
O431 C429 1.279 . S
O432 Cd422 2.297 . S
O432 C427 1.247 . S
O433 Cd422 2.439 . S
O433 C427 1.208 . S
O434 Cd435 2.223 . S
O434 C442 1.315 . S
Cd435 O434 2.223 . S
Cd435 O438 2.297 . S
Cd435 O439 2.439 . S
Cd435 O445 2.240 . S
Cd436 O437 2.240 . S
Cd436 O444 2.223 . S
Cd436 O446 2.297 . S
Cd436 O447 2.439 . S
O437 Cd436 2.240 . S
O437 C442 1.279 . S
O438 Cd435 2.297 . S
O438 C440 1.247 . S
O439 Cd435 2.439 . S
O439 C440 1.208 . S
C440 O438 1.247 . S
C440 O439 1.208 . S
C441 O446 1.247 . S
C441 O447 1.208 . S
C442 O434 1.315 . S
C442 O437 1.279 . S
C443 O444 1.315 . S
C443 O445 1.279 . S
O444 Cd436 2.223 . S
O444 C443 1.315 . S
O445 Cd435 2.240 . S
O445 C443 1.279 . S
O446 Cd436 2.297 . S
O446 C441 1.247 . S
O447 Cd436 2.439 . S
O447 C441 1.208 . S
O448 Cd449 2.223 . S
O448 C456 1.315 . S
Cd449 O448 2.223 . S
Cd449 O452 2.297 . S
Cd449 O453 2.439 . S
Cd449 O459 2.240 . S
Cd450 O451 2.240 . S
Cd450 O458 2.223 . S
Cd450 O460 2.297 . S
Cd450 O461 2.439 . S
O451 Cd450 2.240 . S
O451 C456 1.279 . S
O452 Cd449 2.297 . S
O452 C454 1.247 . S
O453 Cd449 2.439 . S
O453 C454 1.208 . S
C454 O452 1.247 . S
C454 O453 1.208 . S
C455 O460 1.247 . S
C455 O461 1.208 . S
C456 O448 1.315 . S
C456 O451 1.279 . S
C457 O458 1.315 . S
C457 O459 1.279 . S
O458 Cd450 2.223 . S
O458 C457 1.315 . S
O459 Cd449 2.240 . S
O459 C457 1.279 . S
O460 Cd450 2.297 . S
O460 C455 1.247 . S
O461 Cd450 2.439 . S
O461 C455 1.208 . S
O462 Cd463 2.223 . S
O462 C470 1.315 . S
Cd463 O462 2.223 . S
Cd463 O466 2.297 1_455 S
Cd463 O467 2.439 1_455 S
Cd463 O473 2.240 . S
Cd464 O465 2.240 . S
Cd464 O472 2.223 . S
Cd464 O474 2.297 . S
Cd464 O475 2.439 . S
O465 Cd464 2.240 . S
O465 C470 1.279 . S
O466 Cd463 2.297 1_655 S
O466 C468 1.247 . S
O467 Cd463 2.439 1_655 S
O467 C468 1.208 . S
C468 O466 1.247 . S
C468 O467 1.208 . S
C469 O474 1.247 . S
C469 O475 1.208 . S
C470 O462 1.315 . S
C470 O465 1.279 . S
C471 O472 1.315 . S
C471 O473 1.279 . S
O472 Cd464 2.223 . S
O472 C471 1.315 . S
O473 Cd463 2.240 . S
O473 C471 1.279 . S
O474 Cd464 2.297 . S
O474 C469 1.247 . S
O475 Cd464 2.439 . S
O475 C469 1.208 . S
O476 Cd477 2.223 . S
O476 C484 1.315 . S
Cd477 O476 2.223 . S
Cd477 O480 2.297 . S
Cd477 O481 2.439 . S
Cd477 O487 2.240 . S
Cd478 O479 2.240 . S
Cd478 O486 2.223 . S
Cd478 O488 2.297 1_655 S
Cd478 O489 2.439 1_655 S
O479 Cd478 2.240 . S
O479 C484 1.279 . S
O480 Cd477 2.297 . S
O480 C482 1.247 . S
O481 Cd477 2.439 . S
O481 C482 1.208 . S
C482 O480 1.247 . S
C482 O481 1.208 . S
C483 O488 1.247 . S
C483 O489 1.208 . S
C484 O476 1.315 . S
C484 O479 1.279 . S
C485 O486 1.315 . S
C485 O487 1.279 . S
O486 Cd478 2.223 . S
O486 C485 1.315 . S
O487 Cd477 2.240 . S
O487 C485 1.279 . S
O488 Cd478 2.297 1_455 S
O488 C483 1.247 . S
O489 Cd478 2.439 1_455 S
O489 C483 1.208 . S
O490 Cd491 2.223 . S
O490 C498 1.315 . S
Cd491 O490 2.223 . S
Cd491 O494 2.297 1_455 S
Cd491 O495 2.439 1_455 S
Cd491 O501 2.240 . S
Cd492 O493 2.240 . S
Cd492 O500 2.223 . S
Cd492 O502 2.297 . S
Cd492 O503 2.439 . S
O493 Cd492 2.240 . S
O493 C498 1.279 . S
O494 Cd491 2.297 1_655 S
O494 C496 1.247 . S
O495 Cd491 2.439 1_655 S
O495 C496 1.208 . S
C496 O494 1.247 . S
C496 O495 1.208 . S
C497 O502 1.247 . S
C497 O503 1.208 . S
C498 O490 1.315 . S
C498 O493 1.279 . S
C499 O500 1.315 . S
C499 O501 1.279 . S
O500 Cd492 2.223 . S
O500 C499 1.315 . S
O501 Cd491 2.240 . S
O501 C499 1.279 . S
O502 Cd492 2.297 . S
O502 C497 1.247 . S
O503 Cd492 2.439 . S
O503 C497 1.208 . S
O504 Cd505 2.223 . S
O504 C512 1.315 . S
Cd505 O504 2.223 . S
Cd505 O508 2.297 . S
Cd505 O509 2.439 . S
Cd505 O515 2.240 . S
Cd506 O507 2.240 . S
Cd506 O514 2.223 . S
Cd506 O516 2.297 . S
Cd506 O517 2.439 . S
O507 Cd506 2.240 . S
O507 C512 1.279 . S
O508 Cd505 2.297 . S
O508 C510 1.247 . S
O509 Cd505 2.439 . S
O509 C510 1.208 . S
C510 O508 1.247 . S
C510 O509 1.208 . S
C511 O516 1.247 . S
C511 O517 1.208 . S
C512 O504 1.315 . S
C512 O507 1.279 . S
C513 O514 1.315 . S
C513 O515 1.279 . S
O514 Cd506 2.223 . S
O514 C513 1.315 . S
O515 Cd505 2.240 . S
O515 C513 1.279 . S
O516 Cd506 2.297 . S
O516 C511 1.247 . S
O517 Cd506 2.439 . S
O517 C511 1.208 . S
O518 Cd519 2.223 . S
O518 C526 1.315 . S
Cd519 O518 2.223 . S
Cd519 O522 2.297 . S
Cd519 O523 2.439 . S
Cd519 O529 2.240 . S
Cd520 O521 2.240 . S
Cd520 O528 2.223 . S
Cd520 O530 2.297 . S
Cd520 O531 2.439 . S
O521 Cd520 2.240 . S
O521 C526 1.279 . S
O522 Cd519 2.297 . S
O522 C524 1.247 . S
O523 Cd519 2.439 . S
O523 C524 1.208 . S
C524 O522 1.247 . S
C524 O523 1.208 . S
C525 O530 1.247 . S
C525 O531 1.208 . S
C526 O518 1.315 . S
C526 O521 1.279 . S
C527 O528 1.315 . S
C527 O529 1.279 . S
O528 Cd520 2.223 . S
O528 C527 1.315 . S
O529 Cd519 2.240 . S
O529 C527 1.279 . S
O530 Cd520 2.297 . S
O530 C525 1.247 . S
O531 Cd520 2.439 . S
O531 C525 1.208 . S
O532 Cd533 2.223 . S
O532 C540 1.315 . S
Cd533 O532 2.223 . S
Cd533 O536 2.297 . S
Cd533 O537 2.439 . S
Cd533 O543 2.240 . S
Cd534 O535 2.240 . S
Cd534 O542 2.223 . S
Cd534 O544 2.297 . S
Cd534 O545 2.439 . S
O535 Cd534 2.240 . S
O535 C540 1.279 . S
O536 Cd533 2.297 . S
O536 C538 1.247 . S
O537 Cd533 2.439 . S
O537 C538 1.208 . S
C538 O536 1.247 . S
C538 O537 1.208 . S
C539 O544 1.247 . S
C539 O545 1.208 . S
C540 O532 1.315 . S
C540 O535 1.279 . S
C541 O542 1.315 . S
C541 O543 1.279 . S
O542 Cd534 2.223 . S
O542 C541 1.315 . S
O543 Cd533 2.240 . S
O543 C541 1.279 . S
O544 Cd534 2.297 . S
O544 C539 1.247 . S
O545 Cd534 2.439 . S
O545 C539 1.208 . S
O546 Cd547 2.223 . S
O546 C554 1.315 . S
Cd547 O546 2.223 . S
Cd547 O550 2.297 . S
Cd547 O551 2.439 . S
Cd547 O557 2.240 . S
Cd548 O549 2.240 . S
Cd548 O556 2.223 . S
Cd548 O558 2.297 . S
Cd548 O559 2.439 . S
O549 Cd548 2.240 . S
O549 C554 1.279 . S
O550 Cd547 2.297 . S
O550 C552 1.247 . S
O551 Cd547 2.439 . S
O551 C552 1.208 . S
C552 O550 1.247 . S
C552 O551 1.208 . S
C553 O558 1.247 . S
C553 O559 1.208 . S
C554 O546 1.315 . S
C554 O549 1.279 . S
C555 O556 1.315 . S
C555 O557 1.279 . S
O556 Cd548 2.223 . S
O556 C555 1.315 . S
O557 Cd547 2.240 . S
O557 C555 1.279 . S
O558 Cd548 2.297 . S
O558 C553 1.247 . S
O559 Cd548 2.439 . S
O559 C553 1.208 . S
O560 Cd561 2.223 . S
O560 C568 1.315 . S
Cd561 O560 2.223 . S
Cd561 O564 2.297 1_545 S
Cd561 O565 2.439 1_545 S
Cd561 O571 2.240 . S
Cd562 O563 2.240 . S
Cd562 O570 2.223 . S
Cd562 O572 2.297 . S
Cd562 O573 2.439 . S
O563 Cd562 2.240 . S
O563 C568 1.279 . S
O564 Cd561 2.297 1_565 S
O564 C566 1.247 . S
O565 Cd561 2.439 1_565 S
O565 C566 1.208 . S
C566 O564 1.247 . S
C566 O565 1.208 . S
C567 O572 1.247 . S
C567 O573 1.208 . S
C568 O560 1.315 . S
C568 O563 1.279 . S
C569 O570 1.315 . S
C569 O571 1.279 . S
O570 Cd562 2.223 . S
O570 C569 1.315 . S
O571 Cd561 2.240 . S
O571 C569 1.279 . S
O572 Cd562 2.297 . S
O572 C567 1.247 . S
O573 Cd562 2.439 . S
O573 C567 1.208 . S
O574 Cd575 2.223 . S
O574 C582 1.315 . S
Cd575 O574 2.223 . S
Cd575 O578 2.297 1_554 S
Cd575 O579 2.439 1_554 S
Cd575 O585 2.240 . S
Cd576 O577 2.240 . S
Cd576 O584 2.223 . S
Cd576 O586 2.297 . S
Cd576 O587 2.439 . S
O577 Cd576 2.240 . S
O577 C582 1.279 . S
O578 Cd575 2.297 1_556 S
O578 C580 1.247 . S
O579 Cd575 2.439 1_556 S
O579 C580 1.208 . S
C580 O578 1.247 . S
C580 O579 1.208 . S
C581 O586 1.247 . S
C581 O587 1.208 . S
C582 O574 1.315 . S
C582 O577 1.279 . S
C583 O584 1.315 . S
C583 O585 1.279 . S
O584 Cd576 2.223 . S
O584 C583 1.315 . S
O585 Cd575 2.240 . S
O585 C583 1.279 . S
O586 Cd576 2.297 . S
O586 C581 1.247 . S
O587 Cd576 2.439 . S
O587 C581 1.208 . S
O588 Cd589 2.223 . S
O588 C596 1.315 . S
Cd589 O588 2.223 . S
Cd589 O592 2.297 1_655 S
Cd589 O593 2.439 1_655 S
Cd589 O599 2.240 . S
Cd590 O591 2.240 . S
Cd590 O598 2.223 . S
Cd590 O600 2.297 . S
Cd590 O601 2.439 . S
O591 Cd590 2.240 . S
O591 C596 1.279 . S
O592 Cd589 2.297 1_455 S
O592 C594 1.247 . S
O593 Cd589 2.439 1_455 S
O593 C594 1.208 . S
C594 O592 1.247 . S
C594 O593 1.208 . S
C595 O600 1.247 . S
C595 O601 1.208 . S
C596 O588 1.315 . S
C596 O591 1.279 . S
C597 O598 1.315 . S
C597 O599 1.279 . S
O598 Cd590 2.223 . S
O598 C597 1.315 . S
O599 Cd589 2.240 . S
O599 C597 1.279 . S
O600 Cd590 2.297 . S
O600 C595 1.247 . S
O601 Cd590 2.439 . S
O601 C595 1.208 . S
O602 Cd603 2.223 . S
O602 C610 1.315 . S
Cd603 O602 2.223 . S
Cd603 O606 2.297 1_655 S
Cd603 O607 2.439 1_655 S
Cd603 O613 2.240 . S
Cd604 O605 2.240 . S
Cd604 O612 2.223 . S
Cd604 O614 2.297 . S
Cd604 O615 2.439 . S
O605 Cd604 2.240 . S
O605 C610 1.279 . S
O606 Cd603 2.297 1_455 S
O606 C608 1.247 . S
O607 Cd603 2.439 1_455 S
O607 C608 1.208 . S
C608 O606 1.247 . S
C608 O607 1.208 . S
C609 O614 1.247 . S
C609 O615 1.208 . S
C610 O602 1.315 . S
C610 O605 1.279 . S
C611 O612 1.315 . S
C611 O613 1.279 . S
O612 Cd604 2.223 . S
O612 C611 1.315 . S
O613 Cd603 2.240 . S
O613 C611 1.279 . S
O614 Cd604 2.297 . S
O614 C609 1.247 . S
O615 Cd604 2.439 . S
O615 C609 1.208 . S
O616 Cd617 2.223 . S
O616 C624 1.315 . S
Cd617 O616 2.223 . S
Cd617 O620 2.297 1_565 S
Cd617 O621 2.439 1_565 S
Cd617 O627 2.240 . S
Cd618 O619 2.240 . S
Cd618 O626 2.223 . S
Cd618 O628 2.297 . S
Cd618 O629 2.439 . S
O619 Cd618 2.240 . S
O619 C624 1.279 . S
O620 Cd617 2.297 1_545 S
O620 C622 1.247 . S
O621 Cd617 2.439 1_545 S
O621 C622 1.208 . S
C622 O620 1.247 . S
C622 O621 1.208 . S
C623 O628 1.247 . S
C623 O629 1.208 . S
C624 O616 1.315 . S
C624 O619 1.279 . S
C625 O626 1.315 . S
C625 O627 1.279 . S
O626 Cd618 2.223 . S
O626 C625 1.315 . S
O627 Cd617 2.240 . S
O627 C625 1.279 . S
O628 Cd618 2.297 . S
O628 C623 1.247 . S
O629 Cd618 2.439 . S
O629 C623 1.208 . S
O630 Cd631 2.223 . S
O630 C638 1.315 . S
Cd631 O630 2.223 . S
Cd631 O634 2.297 1_554 S
Cd631 O635 2.439 1_554 S
Cd631 O641 2.240 . S
Cd632 O633 2.240 . S
Cd632 O640 2.223 . S
Cd632 O642 2.297 . S
Cd632 O643 2.439 . S
O633 Cd632 2.240 . S
O633 C638 1.279 . S
O634 Cd631 2.297 1_556 S
O634 C636 1.247 . S
O635 Cd631 2.439 1_556 S
O635 C636 1.208 . S
C636 O634 1.247 . S
C636 O635 1.208 . S
C637 O642 1.247 . S
C637 O643 1.208 . S
C638 O630 1.315 . S
C638 O633 1.279 . S
C639 O640 1.315 . S
C639 O641 1.279 . S
O640 Cd632 2.223 . S
O640 C639 1.315 . S
O641 Cd631 2.240 . S
O641 C639 1.279 . S
O642 Cd632 2.297 . S
O642 C637 1.247 . S
O643 Cd632 2.439 . S
O643 C637 1.208 . S
O644 Cd645 2.223 . S
O644 C652 1.315 . S
Cd645 O644 2.223 . S
Cd645 O648 2.297 . S
Cd645 O649 2.439 . S
Cd645 O655 2.240 . S
Cd646 O647 2.240 . S
Cd646 O654 2.223 . S
Cd646 O656 2.297 . S
Cd646 O657 2.439 . S
O647 Cd646 2.240 . S
O647 C652 1.279 . S
O648 Cd645 2.297 . S
O648 C650 1.247 . S
O649 Cd645 2.439 . S
O649 C650 1.208 . S
C650 O648 1.247 . S
C650 O649 1.208 . S
C651 O656 1.247 . S
C651 O657 1.208 . S
C652 O644 1.315 . S
C652 O647 1.279 . S
C653 O654 1.315 . S
C653 O655 1.279 . S
O654 Cd646 2.223 . S
O654 C653 1.315 . S
O655 Cd645 2.240 . S
O655 C653 1.279 . S
O656 Cd646 2.297 . S
O656 C651 1.247 . S
O657 Cd646 2.439 . S
O657 C651 1.208 . S
O658 Cd659 2.223 . S
O658 C666 1.315 . S
Cd659 O658 2.223 . S
Cd659 O662 2.297 . S
Cd659 O663 2.439 . S
Cd659 O669 2.240 . S
Cd660 O661 2.240 . S
Cd660 O668 2.223 . S
Cd660 O670 2.297 . S
Cd660 O671 2.439 . S
O661 Cd660 2.240 . S
O661 C666 1.279 . S
O662 Cd659 2.297 . S
O662 C664 1.247 . S
O663 Cd659 2.439 . S
O663 C664 1.208 . S
C664 O662 1.247 . S
C664 O663 1.208 . S
C665 O670 1.247 . S
C665 O671 1.208 . S
C666 O658 1.315 . S
C666 O661 1.279 . S
C667 O668 1.315 . S
C667 O669 1.279 . S
O668 Cd660 2.223 . S
O668 C667 1.315 . S
O669 Cd659 2.240 . S
O669 C667 1.279 . S
O670 Cd660 2.297 . S
O670 C665 1.247 . S
O671 Cd660 2.439 . S
O671 C665 1.208 . S
C386 C8 1.018 . S
C23 C541 1.018 . S
C36 C358 1.018 . S
C569 C51 1.018 . S
C401 C65 1.018 . S
C78 C316 1.018 . S
C429 C93 1.018 . S
C106 C288 1.018 . S
C498 C107 1.018 . S
C471 C64 1.018 . S
C79 C596 1.018 . S
C484 C92 1.018 . S
C120 C190 1.018 . S
C205 C135 1.018 . S
C219 C148 1.018 . S
C177 C163 1.018 . S
C191 C344 1.018 . S
C204 C555 1.018 . S
C372 C218 1.018 . S
C387 C232 1.018 . S
C247 C415 1.018 . S
C261 C50 1.018 . S
C274 C22 1.018 . S
C625 C303 1.018 . S
C653 C331 1.018 . S
C345 C121 1.018 . S
C373 C149 1.018 . S
C359 C610 1.018 . S
C470 C400 1.018 . S
C485 C428 1.018 . S
C457 C443 1.018 . S
C246 C639 1.018 . S
C513 C330 1.018 . S
C302 C526 1.018 . S
C666 C442 1.018 . S
C414 C638 1.018 . S
C134 C554 1.018 . S
C162 C582 1.018 . S
C176 C583 1.018 . S
C275 C540 1.018 . S
C260 C568 1.018 . S
C317 C597 1.018 . S
C289 C499 1.018 . S
C624 C527 1.018 . S
C652 C512 1.018 . S
C667 C456 1.018 . S
C611 C37 1.018 . S
C233 C9 1.018 . S
C6 C651 2.151 . S
C21 C664 2.151 . S
C34 C623 2.151 . S
C49 C636 2.151 1_544 S
C63 C132 2.151 . S
C76 C147 2.151 1_556 S
C91 C160 2.151 . S
C104 C119 2.151 1_545 S
C105 C553 2.151 . S
C62 C370 2.151 1_455 S
C77 C581 2.151 . S
C90 C342 2.151 1_665 S
C118 C328 2.151 . S
C133 C441 2.151 . S
C146 C300 2.151 . S
C413 C161 2.151 1_545 S
C175 C273 2.151 . S
C189 C231 2.151 . S
C272 C202 2.151 . S
C609 C216 2.151 . S
C217 C230 2.151 1_456 S
C510 C245 2.151 . S
C174 C259 2.151 1_554 S
C567 C286 2.151 . S
C580 C301 2.151 1_546 S
C314 C539 2.151 . S
C552 C329 2.151 . S
C343 C412 2.151 . S
C427 C356 2.151 1_545 S
C371 C440 2.151 . S
C399 C384 2.151 1_554 S
C385 C637 2.151 . S
C665 C357 2.151 . S
C398 C48 2.151 . S
C20 C426 2.151 . S
C525 C455 2.151 . S
C497 C469 2.151 . S
C244 C524 2.151 1_554 S
C482 C595 2.151 . S
C496 C483 2.151 1_655 S
C203 C258 2.151 . S
C454 C511 2.151 . S
C650 C538 2.151 . S
C566 C622 2.151 1_565 S
C7 C315 2.151 1_455 S
C287 C35 2.151 1_465 S
C468 C594 2.151 1_656 S
C188 C608 2.151 1_655 S
