# Generated by pormake.
# Topology cds-f, (5)-cn, num edge types: 1
# Building blocks:
#     Node 0, Type 0, BuildingBlock: XOMCOT_clean_sbu_0, # of connection points: 5
#     Node 1, Type 0, BuildingBlock: XOMCOT_clean_sbu_0, # of connection points: 5
#     Node 2, Type 0, BuildingBlock: XOMCOT_clean_sbu_0, # of connection points: 5
#     Node 3, Type 0, BuildingBlock: XOMCOT_clean_sbu_0, # of connection points: 5
#     Node 4, Type 0, BuildingBlock: XOMCOT_clean_sbu_0, # of connection points: 5
#     Node 5, Type 0, BuildingBlock: XOMCOT_clean_sbu_0, # of connection points: 5
#     Node 6, Type 0, BuildingBlock: XOMCOT_clean_sbu_0, # of connection points: 5
#     Node 7, Type 0, BuildingBlock: XOMCOT_clean_sbu_0, # of connection points: 5
#     Node 8, Type 0, BuildingBlock: XOMCOT_clean_sbu_0, # of connection points: 5
#     Node 9, Type 0, BuildingBlock: XOMCOT_clean_sbu_0, # of connection points: 5
#     Node 10, Type 0, BuildingBlock: XOMCOT_clean_sbu_0, # of connection points: 5
#     Node 11, Type 0, BuildingBlock: XOMCOT_clean_sbu_0, # of connection points: 5
#     Node 12, Type 0, BuildingBlock: XOMCOT_clean_sbu_0, # of connection points: 5
#     Node 13, Type 0, BuildingBlock: XOMCOT_clean_sbu_0, # of connection points: 5
#     Node 14, Type 0, BuildingBlock: XOMCOT_clean_sbu_0, # of connection points: 5
#     Node 15, Type 0, BuildingBlock: XOMCOT_clean_sbu_0, # of connection points: 5
#     Edge 16, Type (0, 0), BuildingBlock: AJUNOK_clean_linker_0, # of connection points: 2
#     Edge 17, Type (0, 0), BuildingBlock: AJUNOK_clean_linker_0, # of connection points: 2
#     Edge 18, Type (0, 0), BuildingBlock: AJUNOK_clean_linker_0, # of connection points: 2
#     Edge 19, Type (0, 0), BuildingBlock: AJUNOK_clean_linker_0, # of connection points: 2
#     Edge 20, Type (0, 0), BuildingBlock: AJUNOK_clean_linker_0, # of connection points: 2
#     Edge 21, Type (0, 0), BuildingBlock: AJUNOK_clean_linker_0, # of connection points: 2
#     Edge 22, Type (0, 0), BuildingBlock: AJUNOK_clean_linker_0, # of connection points: 2
#     Edge 23, Type (0, 0), BuildingBlock: AJUNOK_clean_linker_0, # of connection points: 2
#     Edge 24, Type (0, 0), BuildingBlock: AJUNOK_clean_linker_0, # of connection points: 2
#     Edge 25, Type (0, 0), BuildingBlock: AJUNOK_clean_linker_0, # of connection points: 2
#     Edge 26, Type (0, 0), BuildingBlock: AJUNOK_clean_linker_0, # of connection points: 2
#     Edge 27, Type (0, 0), BuildingBlock: AJUNOK_clean_linker_0, # of connection points: 2
#     Edge 28, Type (0, 0), BuildingBlock: AJUNOK_clean_linker_0, # of connection points: 2
#     Edge 29, Type (0, 0), BuildingBlock: AJUNOK_clean_linker_0, # of connection points: 2
#     Edge 30, Type (0, 0), BuildingBlock: AJUNOK_clean_linker_0, # of connection points: 2
#     Edge 31, Type (0, 0), BuildingBlock: AJUNOK_clean_linker_0, # of connection points: 2
#     Edge 32, Type (0, 0), BuildingBlock: AJUNOK_clean_linker_0, # of connection points: 2
#     Edge 33, Type (0, 0), BuildingBlock: AJUNOK_clean_linker_0, # of connection points: 2
#     Edge 34, Type (0, 0), BuildingBlock: AJUNOK_clean_linker_0, # of connection points: 2
#     Edge 35, Type (0, 0), BuildingBlock: AJUNOK_clean_linker_0, # of connection points: 2
#     Edge 36, Type (0, 0), BuildingBlock: AJUNOK_clean_linker_0, # of connection points: 2
#     Edge 37, Type (0, 0), BuildingBlock: AJUNOK_clean_linker_0, # of connection points: 2
#     Edge 38, Type (0, 0), BuildingBlock: AJUNOK_clean_linker_0, # of connection points: 2
#     Edge 39, Type (0, 0), BuildingBlock: AJUNOK_clean_linker_0, # of connection points: 2
#     Edge 40, Type (0, 0), BuildingBlock: AJUNOK_clean_linker_0, # of connection points: 2
#     Edge 41, Type (0, 0), BuildingBlock: AJUNOK_clean_linker_0, # of connection points: 2
#     Edge 42, Type (0, 0), BuildingBlock: AJUNOK_clean_linker_0, # of connection points: 2
#     Edge 43, Type (0, 0), BuildingBlock: AJUNOK_clean_linker_0, # of connection points: 2
#     Edge 44, Type (0, 0), BuildingBlock: AJUNOK_clean_linker_0, # of connection points: 2
#     Edge 45, Type (0, 0), BuildingBlock: AJUNOK_clean_linker_0, # of connection points: 2
#     Edge 46, Type (0, 0), BuildingBlock: AJUNOK_clean_linker_0, # of connection points: 2
#     Edge 47, Type (0, 0), BuildingBlock: AJUNOK_clean_linker_0, # of connection points: 2
#     Edge 48, Type (0, 0), BuildingBlock: AJUNOK_clean_linker_0, # of connection points: 2
#     Edge 49, Type (0, 0), BuildingBlock: AJUNOK_clean_linker_0, # of connection points: 2
#     Edge 50, Type (0, 0), BuildingBlock: AJUNOK_clean_linker_0, # of connection points: 2
#     Edge 51, Type (0, 0), BuildingBlock: AJUNOK_clean_linker_0, # of connection points: 2
#     Edge 52, Type (0, 0), BuildingBlock: AJUNOK_clean_linker_0, # of connection points: 2
#     Edge 53, Type (0, 0), BuildingBlock: AJUNOK_clean_linker_0, # of connection points: 2
#     Edge 54, Type (0, 0), BuildingBlock: AJUNOK_clean_linker_0, # of connection points: 2
#     Edge 55, Type (0, 0), BuildingBlock: AJUNOK_clean_linker_0, # of connection points: 2
# Relax obj value: 0.271
# Max RMSD: 0.210
# Mean RMSD: 0.206
data_MOF--net-cds-f--node1-XOMCOT_clean_sbu_0--edge1-AJUNOK_clean_linker_0
_symmetry_space_group_name_H-M    P1
_symmetry_Int_Tables_number       1
_symmetry_cell_setting            triclinic
loop_
_symmetry_equiv_pos_as_xyz
'x, y, z'
_cell_length_a     27.504613
_cell_length_b     27.544089
_cell_length_c     40.996637
_cell_angle_alpha  89.934826
_cell_angle_beta   90.095535
_cell_angle_gamma 92.944641
loop_
_atom_site_label
_atom_site_type_symbol
_atom_site_fract_x
_atom_site_fract_y
_atom_site_fract_z
_atom_type_partial_charge
Co0 Co 0.2534 0.26266 0.14542 0.0
C1 C 0.14334 0.26447 0.14109 0.0
C2 C 0.16962 0.19278 0.1394 0.0
C3 C 0.11941 0.1891 0.13893 0.0
N4 N 0.18494 0.24014 0.14055 0.0
N5 N 0.10306 0.23427 0.14037 0.0
H6 H 0.1414 0.30321 0.14166 0.0
H7 H 0.19351 0.16279 0.13939 0.0
C8 C 0.24439 0.22167 0.07872 0.0
O9 O 0.20275 0.24288 0.07793 0.0
N10 N 0.32155 0.28349 0.15158 0.0
C11 C 0.33807 0.32787 0.16175 0.0
C12 C 0.38814 0.32925 0.16298 0.0
C13 C 0.36192 0.25804 0.14737 0.0
N14 N 0.40319 0.28537 0.15412 0.0
C15 C 0.22086 0.35752 0.1338 0.0
C16 C 0.28842 0.38108 0.08579 0.0
C17 C 0.26592 0.41811 0.10234 0.0
C18 C 0.22865 0.40564 0.12435 0.0
C19 C 0.27757 0.33269 0.09476 0.0
N20 N 0.24583 0.32145 0.11974 0.0
H21 H 0.19982 0.35094 0.15561 0.0
H22 H 0.30025 0.30557 0.08493 0.0
H23 H 0.31524 0.35734 0.16784 0.0
H24 H 0.36114 0.22063 0.13927 0.0
O25 O 0.23826 0.28935 0.18725 0.0
O26 O 0.25992 0.21399 0.17991 0.0
O27 O 0.27101 0.22498 0.10451 0.0
C28 C 0.24653 0.24765 0.19997 0.0
H29 H 0.09669 0.15583 0.13856 0.0
H30 H 0.41174 0.35994 0.1704 0.0
H31 H 0.31785 0.38954 0.06885 0.0
H32 H 0.2105 0.43351 0.13762 0.0
Co33 Co 0.80459 0.28105 0.63086 0.0
C34 C 0.80341 0.39037 0.64197 0.0
C35 C 0.87538 0.36455 0.64021 0.0
C36 C 0.87877 0.41444 0.64392 0.0
N37 N 0.82804 0.34901 0.63877 0.0
N38 N 0.83346 0.43067 0.64524 0.0
H39 H 0.76443 0.39176 0.64198 0.0
H40 H 0.90573 0.34126 0.63853 0.0
C41 C 0.82205 0.28631 0.70338 0.0
O42 O 0.81318 0.33256 0.7017 0.0
N43 N 0.78242 0.21414 0.62231 0.0
C44 C 0.74328 0.19911 0.60454 0.0
C45 C 0.73972 0.14903 0.60458 0.0
C46 C 0.80246 0.173 0.63263 0.0
N47 N 0.77681 0.13243 0.62234 0.0
C48 C 0.71174 0.32028 0.62215 0.0
C49 C 0.66481 0.26733 0.67109 0.0
C50 C 0.63741 0.29357 0.64913 0.0
C51 C 0.66142 0.32109 0.62485 0.0
C52 C 0.71531 0.268 0.66774 0.0
N53 N 0.73839 0.29416 0.64346 0.0
H54 H 0.7291 0.3395 0.60201 0.0
H55 H 0.73494 0.24417 0.68294 0.0
H56 H 0.71884 0.22292 0.5925 0.0
H57 H 0.8357 0.17302 0.64676 0.0
O58 O 0.79831 0.29602 0.58544 0.0
O59 O 0.86518 0.26894 0.60753 0.0
O60 O 0.822 0.26069 0.67729 0.0
C61 C 0.84249 0.28333 0.58152 0.0
H62 H 0.91205 0.437 0.64583 0.0
H63 H 0.71153 0.12657 0.5927 0.0
H64 H 0.64719 0.24487 0.68977 0.0
H65 H 0.64125 0.34085 0.60691 0.0
Co66 Co 0.80311 0.77134 0.15492 0.0
C67 C 0.9128 0.766 0.15446 0.0
C68 C 0.88817 0.83688 0.14396 0.0
C69 C 0.93819 0.839 0.1427 0.0
N70 N 0.87195 0.79106 0.15094 0.0
N71 N 0.95379 0.7944 0.14913 0.0
H72 H 0.91307 0.72842 0.16167 0.0
H73 H 0.86507 0.86696 0.14008 0.0
C74 C 0.77093 0.84772 0.10576 0.0
O75 O 0.74802 0.87321 0.1273 0.0
N76 N 0.73361 0.75311 0.15885 0.0
C77 C 0.71283 0.70775 0.1581 0.0
C78 C 0.66313 0.71024 0.16 0.0
C79 C 0.69589 0.78242 0.16256 0.0
N80 N 0.65197 0.75727 0.16269 0.0
C81 C 0.83224 0.67486 0.14247 0.0
C82 C 0.78296 0.66198 0.08402 0.0
C83 C 0.80222 0.62177 0.09927 0.0
C84 C 0.82867 0.62894 0.12819 0.0
C85 C 0.78813 0.70769 0.0988 0.0
N86 N 0.81131 0.71354 0.12829 0.0
H87 H 0.84829 0.67801 0.16641 0.0
H88 H 0.76922 0.73682 0.08775 0.0
H89 H 0.73212 0.67473 0.15598 0.0
H90 H 0.70088 0.82105 0.16618 0.0
O91 O 0.81435 0.7435 0.19719 0.0
O92 O 0.7971 0.82006 0.18914 0.0
O93 O 0.79208 0.8094 0.11386 0.0
C94 C 0.80736 0.7857 0.20966 0.0
H95 H 0.96131 0.87091 0.13713 0.0
H96 H 0.63723 0.6794 0.15865 0.0
H97 H 0.76152 0.65756 0.06193 0.0
H98 H 0.84282 0.59848 0.14125 0.0
Co99 Co 0.25942 0.78703 0.63016 0.0
C100 C 0.2574 0.67873 0.63281 0.0
C101 C 0.19289 0.7072 0.65307 0.0
C102 C 0.18876 0.65712 0.6547 0.0
N103 N 0.23596 0.72075 0.63947 0.0
N104 N 0.2295 0.63908 0.64218 0.0
H105 H 0.29269 0.6772 0.62134 0.0
H106 H 0.16588 0.73203 0.66066 0.0
C107 C 0.25927 0.83819 0.69493 0.0
O108 O 0.29944 0.86231 0.68584 0.0
N109 N 0.28188 0.85423 0.6204 0.0
C110 C 0.32441 0.87115 0.60704 0.0
C111 C 0.32566 0.92112 0.60619 0.0
C112 C 0.25698 0.89466 0.62597 0.0
N113 N 0.28349 0.93577 0.61825 0.0
C114 C 0.35945 0.76636 0.62276 0.0
C115 C 0.3832 0.76269 0.68815 0.0
C116 C 0.4203 0.76709 0.66487 0.0
C117 C 0.40805 0.76584 0.63186 0.0
C118 C 0.33465 0.7632 0.67776 0.0
N119 N 0.32394 0.77091 0.6456 0.0
H120 H 0.35109 0.76697 0.59708 0.0
H121 H 0.30621 0.75909 0.69576 0.0
H122 H 0.35285 0.8497 0.59782 0.0
H123 H 0.22086 0.89406 0.63646 0.0
O124 O 0.26697 0.76991 0.58518 0.0
O125 O 0.19975 0.79833 0.60587 0.0
O126 O 0.23846 0.80713 0.67547 0.0
C127 C 0.22292 0.7829 0.5805 0.0
H128 H 0.15731 0.63579 0.66343 0.0
H129 H 0.35501 0.94495 0.59693 0.0
H130 H 0.39162 0.76109 0.71393 0.0
H131 H 0.43598 0.76694 0.61321 0.0
Co132 Co 0.27744 0.79444 0.89599 0.0
C133 C 0.38636 0.80805 0.90538 0.0
C134 C 0.36172 0.84857 0.86461 0.0
C135 C 0.41177 0.8539 0.86606 0.0
N136 N 0.34533 0.81892 0.88887 0.0
N137 N 0.42752 0.82818 0.8916 0.0
H138 H 0.38645 0.78466 0.92649 0.0
H139 H 0.33938 0.86512 0.84659 0.0
C140 C 0.22118 0.82477 0.83439 0.0
O141 O 0.17918 0.80853 0.84604 0.0
N142 N 0.21042 0.76963 0.90453 0.0
C143 C 0.1954 0.72253 0.90866 0.0
C144 C 0.14601 0.71942 0.9141 0.0
C145 C 0.17008 0.7947 0.91031 0.0
N146 N 0.13001 0.76472 0.91494 0.0
C147 C 0.32506 0.70549 0.88952 0.0
C148 C 0.26355 0.66452 0.84269 0.0
C149 C 0.29479 0.63478 0.85973 0.0
C150 C 0.32835 0.6568 0.88152 0.0
C151 C 0.26333 0.71402 0.85017 0.0
N152 N 0.29163 0.73328 0.87492 0.0
H153 H 0.34635 0.71907 0.90978 0.0
H154 H 0.23575 0.73453 0.83892 0.0
H155 H 0.21859 0.69206 0.90802 0.0
H156 H 0.16954 0.83395 0.90929 0.0
O157 O 0.29284 0.77682 0.93976 0.0
O158 O 0.26739 0.84885 0.92555 0.0
O159 O 0.26002 0.82326 0.85169 0.0
C160 C 0.28149 0.81994 0.94861 0.0
H161 H 0.43486 0.87482 0.84928 0.0
H162 H 0.12349 0.68636 0.91733 0.0
H163 H 0.2362 0.64931 0.82611 0.0
H164 H 0.35394 0.63553 0.89477 0.0
Co165 Co 0.27644 0.26679 0.39454 0.0
C166 C 0.28091 0.158 0.4 0.0
C167 C 0.21132 0.18299 0.41342 0.0
C168 C 0.2092 0.133 0.41511 0.0
N169 N 0.25641 0.19908 0.40419 0.0
N170 N 0.25294 0.11734 0.4066 0.0
H171 H 0.31757 0.157 0.39099 0.0
H172 H 0.18121 0.20563 0.41773 0.0
C173 C 0.19866 0.29778 0.44167 0.0
O174 O 0.16428 0.29514 0.41941 0.0
N175 N 0.29614 0.33424 0.38491 0.0
C176 C 0.3403 0.34962 0.37363 0.0
C177 C 0.34308 0.39964 0.37265 0.0
C178 C 0.27223 0.37538 0.39019 0.0
N179 N 0.30046 0.41587 0.38315 0.0
C180 C 0.3732 0.23797 0.40653 0.0
C181 C 0.39091 0.29477 0.46126 0.0
C182 C 0.42908 0.27036 0.44739 0.0
C183 C 0.41955 0.24078 0.4202 0.0
C184 C 0.34458 0.29021 0.44718 0.0
N185 N 0.33611 0.26229 0.41989 0.0
H186 H 0.36849 0.21912 0.38367 0.0
H187 H 0.31702 0.31238 0.45707 0.0
H188 H 0.369 0.32605 0.36716 0.0
H189 H 0.23563 0.37587 0.39974 0.0
O190 O 0.30053 0.24738 0.3527 0.0
O191 O 0.22525 0.26842 0.36147 0.0
O192 O 0.24216 0.28765 0.43499 0.0
C193 C 0.25764 0.25371 0.34093 0.0
H194 H 0.17781 0.10992 0.42196 0.0
H195 H 0.37411 0.42243 0.36477 0.0
H196 H 0.39741 0.3191 0.48173 0.0
H197 H 0.44866 0.22304 0.40794 0.0
Co198 Co 0.77386 0.24859 0.90792 0.0
C199 C 0.66405 0.24797 0.89825 0.0
C200 C 0.69401 0.17925 0.88876 0.0
C201 C 0.64409 0.17418 0.88522 0.0
N202 N 0.70691 0.22556 0.89703 0.0
N203 N 0.62524 0.21741 0.89137 0.0
H204 H 0.66024 0.28552 0.90429 0.0
H205 H 0.71931 0.15084 0.88564 0.0
C206 C 0.77347 0.23841 0.83488 0.0
O207 O 0.72845 0.25193 0.83553 0.0
N208 N 0.84012 0.26963 0.91921 0.0
C209 C 0.85445 0.30654 0.93911 0.0
C210 C 0.90461 0.3098 0.94017 0.0
C211 C 0.88157 0.25058 0.90876 0.0
N212 N 0.92173 0.2748 0.92091 0.0
C213 C 0.73429 0.34157 0.91681 0.0
C214 C 0.79283 0.38995 0.87136 0.0
C215 C 0.76365 0.4167 0.8918 0.0
C216 C 0.73371 0.39195 0.91451 0.0
C217 C 0.79207 0.33949 0.87443 0.0
N218 N 0.76229 0.31554 0.89641 0.0
H219 H 0.71421 0.32394 0.93647 0.0
H220 H 0.81908 0.32043 0.86162 0.0
H221 H 0.83013 0.32972 0.95175 0.0
H222 H 0.88205 0.21906 0.89309 0.0
O223 O 0.75557 0.25248 0.95284 0.0
O224 O 0.78403 0.18678 0.93023 0.0
O225 O 0.79706 0.23384 0.86165 0.0
C226 C 0.7683 0.20826 0.95628 0.0
H227 H 0.62342 0.14131 0.87826 0.0
H228 H 0.92678 0.33642 0.9537 0.0
H229 H 0.81784 0.40803 0.85434 0.0
H230 H 0.71234 0.41154 0.9318 0.0
Co231 Co 0.78386 0.78981 0.40578 0.0
C232 C 0.7823 0.89947 0.40268 0.0
C233 C 0.85247 0.87345 0.41395 0.0
C234 C 0.85637 0.92347 0.41285 0.0
N235 N 0.80601 0.85817 0.40776 0.0
N236 N 0.81226 0.93976 0.40569 0.0
H237 H 0.7444 0.90076 0.39628 0.0
H238 H 0.88168 0.84968 0.41898 0.0
C239 C 0.84784 0.75058 0.46141 0.0
O240 O 0.86043 0.71159 0.44592 0.0
N241 N 0.76261 0.7207 0.40345 0.0
C242 C 0.7164 0.70202 0.40613 0.0
C243 C 0.7159 0.65233 0.4031 0.0
C244 C 0.78922 0.68157 0.39714 0.0
N245 N 0.76163 0.63924 0.39753 0.0
C246 C 0.68872 0.82377 0.41615 0.0
C247 C 0.67291 0.78064 0.47641 0.0
C248 C 0.63401 0.8005 0.46 0.0
C249 C 0.64273 0.82394 0.43016 0.0
C250 C 0.71894 0.78232 0.46189 0.0
N251 N 0.72615 0.80236 0.43153 0.0
H252 H 0.69277 0.83736 0.3916 0.0
H253 H 0.74693 0.76306 0.47397 0.0
H254 H 0.68457 0.72272 0.40966 0.0
H255 H 0.82791 0.68395 0.3924 0.0
O256 O 0.7571 0.79941 0.36308 0.0
O257 O 0.83294 0.77998 0.37212 0.0
O258 O 0.82101 0.78114 0.44774 0.0
C259 C 0.79935 0.79105 0.35119 0.0
H260 H 0.88894 0.94612 0.41757 0.0
H261 H 0.68404 0.62763 0.40442 0.0
H262 H 0.66708 0.76126 0.49919 0.0
H263 H 0.61316 0.83832 0.41626 0.0
Co264 Co 0.77666 0.79437 0.92033 0.0
C265 C 0.88755 0.78676 0.91701 0.0
C266 C 0.86494 0.85908 0.92419 0.0
C267 C 0.91472 0.86037 0.92476 0.0
N268 N 0.84702 0.81298 0.91945 0.0
N269 N 0.92928 0.81488 0.92091 0.0
H270 H 0.88715 0.7481 0.9128 0.0
H271 H 0.84349 0.89059 0.92681 0.0
C272 C 0.79685 0.83529 0.85229 0.0
O273 O 0.82083 0.87435 0.86316 0.0
N274 N 0.70696 0.77768 0.92208 0.0
C275 C 0.6862 0.74146 0.94024 0.0
C276 C 0.63642 0.74417 0.9391 0.0
C277 C 0.66925 0.80214 0.91007 0.0
N278 N 0.62566 0.78243 0.92036 0.0
C279 C 0.80981 0.69853 0.93196 0.0
C280 C 0.76195 0.65619 0.87894 0.0
C281 C 0.78454 0.62655 0.90138 0.0
C282 C 0.80964 0.64812 0.92784 0.0
C283 C 0.76261 0.706 0.88409 0.0
N284 N 0.78705 0.72696 0.90996 0.0
H285 H 0.82705 0.71465 0.95334 0.0
H286 H 0.74069 0.72708 0.86812 0.0
H287 H 0.70604 0.71557 0.95416 0.0
H288 H 0.67363 0.83465 0.89529 0.0
O289 O 0.77982 0.78885 0.96684 0.0
O290 O 0.76392 0.85688 0.94102 0.0
O291 O 0.77226 0.80733 0.87174 0.0
C292 C 0.77015 0.83414 0.96861 0.0
H293 H 0.93834 0.89278 0.92729 0.0
H294 H 0.61005 0.72001 0.95135 0.0
H295 H 0.7421 0.64077 0.85824 0.0
H296 H 0.82695 0.62608 0.94594 0.0
Co297 Co 0.28827 0.7692 0.39405 0.0
C298 C 0.28919 0.6592 0.38746 0.0
C299 C 0.21784 0.6867 0.38879 0.0
C300 C 0.21331 0.63671 0.38777 0.0
N301 N 0.26537 0.70118 0.38876 0.0
N302 N 0.25816 0.61914 0.38716 0.0
H303 H 0.32812 0.65753 0.38644 0.0
H304 H 0.18825 0.71098 0.3903 0.0
C305 C 0.20721 0.78847 0.44275 0.0
O306 O 0.18105 0.81277 0.42218 0.0
N307 N 0.3098 0.83726 0.39944 0.0
C308 C 0.35607 0.85557 0.39713 0.0
C309 C 0.3563 0.90549 0.39871 0.0
C310 C 0.28247 0.87656 0.4019 0.0
N311 N 0.30999 0.91887 0.4015 0.0
C312 C 0.38208 0.73301 0.40619 0.0
C313 C 0.39122 0.76734 0.4694 0.0
C314 C 0.43222 0.75135 0.45337 0.0
C315 C 0.42685 0.73193 0.42199 0.0
C316 C 0.34676 0.76716 0.45289 0.0
N317 N 0.34281 0.7514 0.42124 0.0
H318 H 0.38026 0.72262 0.38083 0.0
H319 H 0.31726 0.78419 0.46489 0.0
H320 H 0.38752 0.83428 0.39343 0.0
H321 H 0.24335 0.87428 0.40341 0.0
O322 O 0.32032 0.7697 0.35258 0.0
O323 O 0.24373 0.78825 0.35942 0.0
O324 O 0.24703 0.77082 0.43411 0.0
C325 C 0.28083 0.78492 0.33983 0.0
H326 H 0.17942 0.61495 0.3884 0.0
H327 H 0.38811 0.93013 0.39671 0.0
H328 H 0.39431 0.78315 0.49355 0.0
H329 H 0.45807 0.72019 0.40858 0.0
Co330 Co 0.2737 0.25942 0.89529 0.0
C331 C 0.1637 0.26309 0.90589 0.0
C332 C 0.18772 0.1953 0.88806 0.0
C333 C 0.13783 0.19204 0.88975 0.0
N334 N 0.20442 0.23991 0.89781 0.0
N335 N 0.12277 0.23465 0.90081 0.0
H336 H 0.16288 0.29994 0.91444 0.0
H337 H 0.21054 0.16715 0.8795 0.0
C338 C 0.29535 0.23121 0.82372 0.0
O339 O 0.34279 0.23409 0.82728 0.0
N340 N 0.34366 0.27682 0.89298 0.0
C341 C 0.36437 0.32119 0.89962 0.0
C342 C 0.41411 0.31896 0.89927 0.0
C343 C 0.3818 0.24761 0.89022 0.0
N344 N 0.42542 0.27279 0.89329 0.0
C345 C 0.24065 0.35547 0.90322 0.0
C346 C 0.27806 0.39289 0.84543 0.0
C347 C 0.25845 0.42464 0.86796 0.0
C348 C 0.23771 0.40482 0.89659 0.0
C349 C 0.27796 0.3433 0.85228 0.0
N350 N 0.2601 0.32499 0.88115 0.0
H351 H 0.22976 0.3424 0.92706 0.0
H352 H 0.29723 0.32119 0.83571 0.0
H353 H 0.34489 0.35306 0.90558 0.0
H354 H 0.37759 0.20888 0.8859 0.0
O355 O 0.27712 0.27136 0.94138 0.0
O356 O 0.28704 0.19952 0.91889 0.0
O357 O 0.26781 0.23702 0.84826 0.0
C358 C 0.28511 0.22588 0.94529 0.0
H359 H 0.1143 0.16085 0.88319 0.0
H360 H 0.44008 0.34894 0.90418 0.0
H361 H 0.29685 0.40629 0.82381 0.0
H362 H 0.22201 0.4277 0.91483 0.0
Co363 Co 0.78233 0.2889 0.39114 0.0
C364 C 0.78192 0.39915 0.38855 0.0
C365 C 0.85163 0.37146 0.37863 0.0
C366 C 0.85608 0.42152 0.37789 0.0
N367 N 0.80501 0.35701 0.385 0.0
N368 N 0.81214 0.43906 0.38394 0.0
H369 H 0.74415 0.40139 0.39487 0.0
H370 H 0.88101 0.34722 0.37572 0.0
C371 C 0.85848 0.27199 0.44375 0.0
O372 O 0.88463 0.2448 0.4251 0.0
N373 N 0.76054 0.22097 0.39717 0.0
C374 C 0.71406 0.20308 0.39501 0.0
C375 C 0.71321 0.15322 0.39688 0.0
C376 C 0.78743 0.1813 0.39961 0.0
N377 N 0.75933 0.13935 0.39959 0.0
C378 C 0.68759 0.32541 0.39742 0.0
C379 C 0.6722 0.29617 0.46133 0.0
C380 C 0.63308 0.31174 0.44294 0.0
C381 C 0.64155 0.32838 0.4111 0.0
C382 C 0.71797 0.29425 0.44685 0.0
N383 N 0.72503 0.30767 0.41494 0.0
H384 H 0.69256 0.33526 0.3721 0.0
H385 H 0.74614 0.27791 0.46075 0.0
H386 H 0.68276 0.22452 0.39113 0.0
H387 H 0.82664 0.18299 0.40067 0.0
O388 O 0.75478 0.2861 0.34799 0.0
O389 O 0.83064 0.26869 0.35953 0.0
O390 O 0.81974 0.28994 0.43314 0.0
C391 C 0.79616 0.27179 0.33783 0.0
H392 H 0.88963 0.44319 0.37453 0.0
H393 H 0.68113 0.12889 0.39511 0.0
H394 H 0.66676 0.28267 0.48595 0.0
H395 H 0.61195 0.34002 0.39598 0.0
Co396 Co 0.75531 0.26949 0.1459 0.0
C397 C 0.64512 0.26919 0.15344 0.0
C398 C 0.67328 0.19859 0.14828 0.0
C399 C 0.62333 0.19343 0.14966 0.0
N400 N 0.68735 0.24603 0.15053 0.0
N401 N 0.60537 0.23779 0.15315 0.0
H402 H 0.64282 0.30797 0.15547 0.0
H403 H 0.69782 0.16961 0.14477 0.0
C404 C 0.77666 0.19414 0.09412 0.0
O405 O 0.80294 0.16875 0.11395 0.0
N406 N 0.8235 0.29135 0.14119 0.0
C407 C 0.84156 0.33784 0.14216 0.0
C408 C 0.89156 0.33832 0.14192 0.0
C409 C 0.86315 0.26418 0.14106 0.0
N410 N 0.90512 0.29202 0.14152 0.0
C411 C 0.71914 0.36419 0.13888 0.0
C412 C 0.75605 0.38147 0.07701 0.0
C413 C 0.74158 0.4206 0.09574 0.0
C414 C 0.7204 0.41119 0.12624 0.0
C415 C 0.75336 0.33465 0.09033 0.0
N416 N 0.73711 0.32676 0.12158 0.0
H417 H 0.70798 0.35907 0.16392 0.0
H418 H 0.7695 0.30632 0.07657 0.0
H419 H 0.82017 0.3695 0.14402 0.0
H420 H 0.86165 0.22501 0.14256 0.0
O421 O 0.75635 0.29722 0.18884 0.0
O422 O 0.77438 0.22149 0.17835 0.0
O423 O 0.75668 0.23222 0.10389 0.0
C424 C 0.77106 0.25637 0.19967 0.0
H425 H 0.602 0.15961 0.14679 0.0
H426 H 0.91606 0.37035 0.14243 0.0
H427 H 0.77283 0.38756 0.05337 0.0
H428 H 0.70946 0.44067 0.14162 0.0
Co429 Co 0.79304 0.78099 0.64875 0.0
C430 C 0.78938 0.89022 0.63782 0.0
C431 C 0.85896 0.86643 0.65284 0.0
C432 C 0.86183 0.91629 0.65104 0.0
N433 N 0.81359 0.84968 0.64478 0.0
N434 N 0.8181 0.93128 0.64179 0.0
H435 H 0.7515 0.89048 0.63105 0.0
H436 H 0.88784 0.84375 0.66051 0.0
C437 C 0.82227 0.76032 0.71995 0.0
O438 O 0.82077 0.71303 0.71602 0.0
N439 N 0.77402 0.71134 0.65267 0.0
C440 C 0.72829 0.6913 0.65021 0.0
C441 C 0.72961 0.64154 0.6508 0.0
C442 C 0.80274 0.67251 0.65338 0.0
N443 N 0.7763 0.62942 0.65313 0.0
C444 C 0.6965 0.81077 0.63735 0.0
C445 C 0.65967 0.78878 0.69861 0.0
C446 C 0.62761 0.79983 0.67354 0.0
C447 C 0.64668 0.81263 0.64291 0.0
C448 C 0.70939 0.78755 0.6921 0.0
N449 N 0.72734 0.79722 0.66148 0.0
H450 H 0.70982 0.81805 0.613 0.0
H451 H 0.73199 0.7751 0.71136 0.0
H452 H 0.69573 0.71093 0.64679 0.0
H453 H 0.84211 0.67567 0.65408 0.0
O454 O 0.78262 0.77609 0.60252 0.0
O455 O 0.85326 0.76471 0.62652 0.0
O456 O 0.815 0.7881 0.69573 0.0
C457 C 0.82795 0.76669 0.59962 0.0
H458 H 0.89358 0.93983 0.65637 0.0
H459 H 0.69847 0.61616 0.64825 0.0
H460 H 0.64621 0.77903 0.72269 0.0
H461 H 0.62297 0.82116 0.6228 0.0
Co462 Co 0.30385 0.77841 0.14904 0.0
C463 C 0.41174 0.79297 0.16331 0.0
C464 C 0.3887 0.83795 0.12431 0.0
C465 C 0.43846 0.84313 0.12675 0.0
N466 N 0.3715 0.80519 0.14646 0.0
N467 N 0.45341 0.81486 0.1513 0.0
H468 H 0.4109 0.76819 0.18376 0.0
H469 H 0.36727 0.85619 0.10653 0.0
C470 C 0.27362 0.83952 0.08943 0.0
O471 O 0.2522 0.87346 0.10566 0.0
N472 N 0.23682 0.75248 0.15181 0.0
C473 C 0.22251 0.70779 0.16265 0.0
C474 C 0.17243 0.70354 0.16294 0.0
C475 C 0.19514 0.77522 0.1463 0.0
N476 N 0.15519 0.74583 0.15253 0.0
C477 C 0.355 0.69025 0.14261 0.0
C478 C 0.29682 0.65212 0.0929 0.0
C479 C 0.32819 0.62178 0.10922 0.0
C480 C 0.36054 0.64268 0.13233 0.0
C481 C 0.29448 0.70045 0.10256 0.0
N482 N 0.32148 0.71828 0.12837 0.0
H483 H 0.37489 0.70266 0.1638 0.0
H484 H 0.26691 0.72168 0.09151 0.0
H485 H 0.2469 0.68044 0.17044 0.0
H486 H 0.19394 0.81258 0.13839 0.0
O487 O 0.31277 0.76028 0.19367 0.0
O488 O 0.28703 0.83164 0.17758 0.0
O489 O 0.29198 0.80411 0.10417 0.0
C490 C 0.29699 0.80221 0.20143 0.0
H491 H 0.46171 0.86395 0.11007 0.0
H492 H 0.15043 0.6723 0.17133 0.0
H493 H 0.27107 0.63777 0.07489 0.0
H494 H 0.38695 0.62124 0.1446 0.0
Co495 Co 0.25984 0.28804 0.62479 0.0
C496 C 0.26336 0.17761 0.62808 0.0
C497 C 0.19233 0.20195 0.61788 0.0
C498 C 0.18976 0.1522 0.61822 0.0
N499 N 0.23847 0.21863 0.62409 0.0
N500 N 0.23442 0.1364 0.6243 0.0
H501 H 0.30181 0.17769 0.63298 0.0
H502 H 0.16168 0.22417 0.61379 0.0
C503 C 0.21955 0.26475 0.69238 0.0
O504 O 0.18007 0.24206 0.68094 0.0
N505 N 0.27986 0.35704 0.62457 0.0
C506 C 0.3203 0.3763 0.61 0.0
C507 C 0.31969 0.42609 0.61094 0.0
C508 C 0.25459 0.39579 0.63366 0.0
N509 N 0.27835 0.4387 0.62566 0.0
C510 C 0.35396 0.25159 0.61135 0.0
C511 C 0.39903 0.29419 0.66535 0.0
C512 C 0.42736 0.27267 0.64178 0.0
C513 C 0.40446 0.24997 0.61488 0.0
C514 C 0.34913 0.29524 0.66085 0.0
N515 N 0.32685 0.27382 0.6343 0.0
H516 H 0.33674 0.23643 0.58966 0.0
H517 H 0.32927 0.31671 0.67773 0.0
H518 H 0.34779 0.35557 0.59843 0.0
H519 H 0.21862 0.39243 0.6443 0.0
O520 O 0.26405 0.28818 0.57816 0.0
O521 O 0.19749 0.30484 0.60553 0.0
O522 O 0.24788 0.28998 0.67352 0.0
C523 C 0.21931 0.30042 0.57747 0.0
H524 H 0.15702 0.12944 0.61435 0.0
H525 H 0.34747 0.45114 0.60103 0.0
H526 H 0.41568 0.31239 0.68629 0.0
H527 H 0.4256 0.23351 0.59598 0.0
C528 C 0.96835 0.23728 0.12317 0.0
C529 C 0.95429 0.27603 0.14279 0.0
C530 C 1.01688 0.22333 0.12276 0.0
C531 C 0.05299 0.24763 0.14196 0.0
H532 H 0.94191 0.21853 0.10743 0.0
H533 H 1.0265 0.19412 0.10674 0.0
S534 S 0.03323 0.34629 0.20127 0.0
N535 N 0.9793 0.33499 0.18436 0.0
N536 N 0.07003 0.30875 0.18368 0.0
C537 C 0.03886 0.28507 0.16264 0.0
C538 C 0.98965 0.29926 0.16303 0.0
C539 C 0.77274 0.04588 0.60482 0.0
C540 C 0.78656 0.08181 0.62811 0.0
C541 C 0.78177 0.99656 0.60978 0.0
C542 C 0.80537 0.98122 0.63809 0.0
H543 H 0.75562 0.05602 0.5822 0.0
H544 H 0.77151 0.97042 0.59097 0.0
S545 S 0.84418 0.05877 0.70828 0.0
N546 N 0.82143 0.09697 0.68195 0.0
N547 N 0.83928 1.0048 0.69074 0.0
C548 C 0.81837 1.01629 0.66189 0.0
C549 C 0.80882 0.06638 0.65703 0.0
C550 C 0.04098 0.81495 0.16067 0.0
C551 C 1.00407 0.78109 0.15009 0.0
C552 C 0.09022 0.80355 0.16095 0.0
C553 C 0.10462 0.75772 0.15081 0.0
H554 H 0.03168 0.85047 0.16919 0.0
H555 H 0.11714 0.83045 0.16979 0.0
S556 S 1.02331 0.65768 0.11791 0.0
N557 N 0.98617 0.70085 0.12711 0.0
N558 N 0.07841 0.6793 0.12797 0.0
C559 C 0.0683 0.72376 0.13971 0.0
C560 C 1.01816 0.73543 0.1393 0.0
C561 C 0.22923 1.00166 0.60559 0.0
C562 C 0.27028 0.9854 0.62167 0.0
C563 C 0.2182 0.05084 0.60645 0.0
C564 C 0.24725 0.08582 0.62403 0.0
H565 H 0.2064 0.97635 0.5914 0.0
H566 H 0.18704 0.06147 0.59257 0.0
S567 S 0.35694 0.05946 0.67272 0.0
N568 N 0.33932 1.00654 0.65654 0.0
N569 N 0.31764 0.09857 0.65976 0.0
C570 C 0.28791 0.0693 0.64098 0.0
C571 C 0.29957 1.01925 0.63946 0.0
C572 C 0.99431 0.76351 0.90036 0.0
C573 C 0.97937 0.80069 0.921 0.0
C574 C 0.04352 0.75188 0.8986 0.0
C575 C 0.07975 0.77724 0.9172 0.0
H576 H 0.968 0.74407 0.88489 0.0
H577 H 0.05354 0.72345 0.88207 0.0
S578 S 0.05944 0.87295 0.97819 0.0
N579 N 1.00477 0.85915 0.96309 0.0
N580 N 0.09695 0.8382 0.95867 0.0
C581 C 0.06529 0.81348 0.93849 0.0
C582 C 1.01523 0.8249 0.9407 0.0
C583 C 0.32487 1.0055 0.41682 0.0
C584 C 0.29438 0.96837 0.40276 0.0
C585 C 0.31145 0.05405 0.41761 0.0
C586 C 0.26671 0.06749 0.40473 0.0
H587 H 0.35933 0.99692 0.42762 0.0
H588 H 0.33584 0.08122 0.42891 0.0
S589 S 0.17539 0.98598 0.36259 0.0
N590 N 0.21861 0.94981 0.37354 0.0
N591 N 0.19305 0.04063 0.37591 0.0
C592 C 0.23602 0.0311 0.39034 0.0
C593 C 0.24987 0.9817 0.38918 0.0
C594 C 1.00778 0.2756 0.93949 0.0
C595 C 0.9724 0.26563 0.91506 0.0
C596 C 0.05712 0.26669 0.93445 0.0
C597 C 0.07286 0.24702 0.90495 0.0
H598 H 0.99715 0.28954 0.96294 0.0
H599 H 0.08296 0.27394 0.95403 0.0
S600 S 0.99688 0.21962 0.83187 0.0
N601 N 0.95824 0.23913 0.85908 0.0
N602 N 0.05041 0.22105 0.85023 0.0
C603 C 0.03835 0.23793 0.88011 0.0
C604 C 0.9883 0.2475 0.88501 0.0
C605 C 0.74392 0.05366 0.41668 0.0
C606 C 0.77405 0.08963 0.40114 0.0
C607 C 0.75625 1.00481 0.41769 0.0
C608 C 0.79945 0.98989 0.40343 0.0
H609 H 0.71062 0.06343 0.42846 0.0
H610 H 0.73226 0.97861 0.43024 0.0
S611 S 0.88883 0.06822 0.35717 0.0
N612 N 0.84753 0.10577 0.3692 0.0
N613 N 0.87109 1.01426 0.37171 0.0
C614 C 0.8297 1.02519 0.38751 0.0
C615 C 0.81696 0.07493 0.38625 0.0
C616 C 0.29296 0.49649 0.07463 0.0
C617 C 0.28797 0.46818 0.10303 0.0
C618 C 0.30886 0.54575 0.07644 0.0
C619 C 0.32027 0.56806 0.10669 0.0
H620 H 0.28275 0.48103 0.05116 0.0
H621 H 0.31076 0.56689 0.05414 0.0
S622 S 0.31729 0.50694 0.18773 0.0
N623 N 0.30059 0.4638 0.1616 0.0
N624 N 0.32698 0.55641 0.16552 0.0
C625 C 0.31749 0.53898 0.13501 0.0
C626 C 0.30224 0.48903 0.13302 0.0
C627 C 0.50914 0.23733 0.64413 0.0
C628 C 0.48083 0.2783 0.64401 0.0
C629 C 0.55993 0.2425 0.64695 0.0
C630 C 0.58378 0.28881 0.64931 0.0
H631 H 0.49189 0.20118 0.64221 0.0
H632 H 0.58076 0.21018 0.64648 0.0
S633 S 0.52588 0.40729 0.64973 0.0
N634 N 0.48003 0.36651 0.64619 0.0
N635 N 0.5755 0.3761 0.6516 0.0
C636 C 0.55581 0.32995 0.64926 0.0
C637 C 0.50427 0.32472 0.64658 0.0
C638 C 0.72259 0.50759 0.08791 0.0
C639 C 0.75672 0.47135 0.08718 0.0
C640 C 0.73774 0.55697 0.08856 0.0
C641 C 0.78753 0.5716 0.08904 0.0
H642 H 0.68411 0.4976 0.09005 0.0
H643 H 0.7104 0.5836 0.09138 0.0
S644 S 0.89107 0.49111 0.08409 0.0
N645 N 0.84229 0.45354 0.08413 0.0
N646 N 0.87064 0.54642 0.08558 0.0
C647 C 0.82183 0.53589 0.08595 0.0
C648 C 0.80643 0.48569 0.08493 0.0
C649 C 0.54452 0.83048 0.6669 0.0
C650 C 0.57425 0.79382 0.67786 0.0
C651 C 0.49402 0.82233 0.66494 0.0
C652 C 0.47157 0.77734 0.67395 0.0
H653 H 0.56061 0.86495 0.65846 0.0
H654 H 0.4725 0.85064 0.65486 0.0
S655 S 0.53248 0.67038 0.70573 0.0
N656 N 0.57731 0.71146 0.69917 0.0
N657 N 0.48188 0.69661 0.69567 0.0
C658 C 0.50032 0.7413 0.68663 0.0
C659 C 0.5519 0.74947 0.68858 0.0
C660 C 0.27876 0.50625 0.89203 0.0
C661 C 0.26605 0.47831 0.86433 0.0
C662 C 0.28805 0.55631 0.88997 0.0
C663 C 0.28671 0.58098 0.85992 0.0
H664 H 0.28226 0.48942 0.91575 0.0
H665 H 0.29581 0.57581 0.91246 0.0
S666 S 0.2567 0.52512 0.77965 0.0
N667 N 0.25153 0.47939 0.80569 0.0
N668 N 0.27311 0.57354 0.8015 0.0
C669 C 0.2748 0.55368 0.83179 0.0
C670 C 0.26384 0.50243 0.83403 0.0
C671 C 0.54956 0.3405 0.45169 0.0
C672 C 0.58232 0.30314 0.45413 0.0
C673 C 0.49922 0.33017 0.45319 0.0
C674 C 0.4802 0.28208 0.45673 0.0
H675 H 0.56285 0.37736 0.44634 0.0
H676 H 0.47512 0.35935 0.44864 0.0
S677 S 0.55061 0.17236 0.46848 0.0
N678 N 0.59237 0.21707 0.46377 0.0
N679 N 0.4976 0.19779 0.46648 0.0
C680 C 0.51257 0.24513 0.46205 0.0
C681 C 0.56377 0.25564 0.46079 0.0
C682 C 0.81968 0.54479 0.89871 0.0
C683 C 0.77871 0.57317 0.89826 0.0
C684 C 0.81459 0.49415 0.89557 0.0
C685 C 0.76834 0.47034 0.89219 0.0
H686 H 0.85583 0.56186 0.9014 0.0
H687 H 0.84697 0.47339 0.89659 0.0
S688 S 0.64975 0.52829 0.88991 0.0
N689 N 0.69044 0.57395 0.89458 0.0
N690 N 0.68106 0.4788 0.88819 0.0
C691 C 0.72718 0.49836 0.89157 0.0
C692 C 0.73232 0.5498 0.89471 0.0
C693 C 0.51597 0.7271 0.46706 0.0
C694 C 0.48181 0.76328 0.46585 0.0
C695 C 0.56591 0.73953 0.46919 0.0
C696 C 0.58311 0.78851 0.46964 0.0
H697 H 0.50423 0.68924 0.46391 0.0
H698 H 0.59127 0.71082 0.46732 0.0
S699 S 0.50828 0.89642 0.47119 0.0
N700 N 0.46828 0.84973 0.46885 0.0
N701 N 0.56232 0.87294 0.47251 0.0
C702 C 0.54918 0.82472 0.47137 0.0
C703 C 0.49838 0.81212 0.46956 0.0
C704 C 0.30841 0.22423 0.03536 0.0
C705 C 0.26337 0.20491 0.04701 0.0
C706 C 0.31845 0.22558 1.00169 0.0
C707 C 0.28464 0.20603 0.97876 0.0
H708 H 0.33373 0.24311 0.05182 0.0
H709 H 0.35094 0.24578 0.99335 0.0
S710 S 0.16544 0.14385 0.99731 0.0
N711 N 0.18748 0.16053 0.03334 0.0
N712 N 0.20738 0.16149 0.97041 0.0
C713 C 0.24227 0.18154 0.99047 0.0
C714 C 0.23144 0.18126 0.02456 0.0
C715 C 0.88146 0.2394 0.49881 0.0
C716 C 0.86965 0.27888 0.4789 0.0
C717 C 0.87816 0.24234 0.53313 0.0
C718 C 0.86326 0.28492 0.5483 0.0
H719 H 0.8891 0.20486 0.48783 0.0
H720 H 0.88298 0.20994 0.54753 0.0
S721 S 0.83702 0.40073 0.50736 0.0
N722 N 0.84923 0.36361 0.47721 0.0
N723 N 0.84304 0.36897 0.54119 0.0
C724 C 0.85606 0.32579 0.52874 0.0
C725 C 0.85928 0.32283 0.49414 0.0
C726 C 0.72754 0.86119 1.01863 0.0
C727 C 0.7711 0.85722 1.00106 0.0
C728 C 0.72777 0.8635 0.05304 0.0
C729 C 0.77152 0.86096 0.07072 0.0
H730 H 0.6929 0.85799 1.00598 0.0
H731 H 0.69331 0.86266 0.06584 0.0
S732 S 0.89541 0.85581 0.03584 0.0
N733 N 0.85906 0.85566 1.00375 0.0
N734 N 0.85956 0.85923 0.06794 0.0
C735 C 0.81536 0.86084 0.05321 0.0
C736 C 0.81512 0.85915 1.01846 0.0
C737 C 0.20626 0.74141 0.49417 0.0
C738 C 0.19484 0.78429 0.4778 0.0
C739 C 0.21035 0.74003 0.52815 0.0
C740 C 0.20273 0.7813 0.54715 0.0
H741 H 0.21578 0.70967 0.48043 0.0
H742 H 0.22296 0.70738 0.53948 0.0
S743 S 0.16739 0.90114 0.5167 0.0
N744 N 0.17203 0.86796 0.48337 0.0
N745 N 0.17931 0.86508 0.54764 0.0
C746 C 0.18709 0.82316 0.5315 0.0
C747 C 0.18314 0.8247 0.49664 0.0
C748 C 0.24919 0.86137 0.99861 0.0
C749 C 0.28415 0.83312 0.98365 0.0
C750 C 0.24691 0.86555 0.03295 0.0
C751 C 0.27947 0.84149 0.05326 0.0
H752 H 0.2219 0.87807 0.98387 0.0
H753 H 0.21815 0.88571 0.04363 0.0
S754 S 0.38202 0.76886 0.02535 0.0
N755 N 0.35495 0.78529 0.99149 0.0
N756 N 0.35107 0.79285 0.05511 0.0
C757 C 0.3164 0.81581 0.03815 0.0
C758 C 0.31862 0.8117 1.0036 0.0
C759 C 0.16462 0.27139 0.49558 0.0
C760 C 0.18783 0.30784 0.47619 0.0
C761 C 0.16929 0.27222 0.52983 0.0
C762 C 0.19696 0.30973 0.54553 0.0
H763 H 0.14691 0.23973 0.48414 0.0
H764 H 0.15532 0.24106 0.54371 0.0
S765 S 0.25974 0.41629 0.50588 0.0
N766 N 0.23539 0.38443 0.47531 0.0
N767 N 0.24366 0.38627 0.5394 0.0
C768 C 0.2165 0.34836 0.52652 0.0
C769 C 0.21208 0.34734 0.49186 0.0
C770 C 0.72863 0.19195 0.0428 0.0
C771 C 0.77227 0.1823 0.05892 0.0
C772 C 0.72624 0.1943 1.00873 0.0
C773 C 0.76733 0.18703 0.98937 0.0
H774 H 0.69687 0.20108 0.05669 0.0
H775 H 0.69296 0.20573 0.99756 0.0
S776 S 0.88918 0.15643 1.01927 0.0
N777 N 0.85656 0.1614 0.05282 0.0
N778 N 0.85198 0.16616 0.9885 0.0
C779 C 0.8101 0.17332 1.00491 0.0
C780 C 0.81258 0.17084 0.03982 0.0
C781 C 0.85816 0.7145 0.51744 0.0
C782 C 0.85644 0.75585 0.49718 0.0
C783 C 0.85398 0.71834 0.55163 0.0
C784 C 0.84879 0.76369 0.56659 0.0
H785 H 0.85886 0.6786 0.50675 0.0
H786 H 0.85113 0.68541 0.56613 0.0
S787 S 0.84907 0.88338 0.52534 0.0
N788 N 0.8546 0.84406 0.49536 0.0
N789 N 0.84667 0.85083 0.5592 0.0
C790 C 0.8509 0.80541 0.54692 0.0
C791 C 0.8549 0.80164 0.51233 0.0
C792 C 0.53913 0.29308 0.1405 0.0
C793 C 0.55433 0.24915 0.15383 0.0
C794 C 0.48975 0.30422 0.14025 0.0
C795 C 0.4533 0.27176 0.15297 0.0
H796 H 0.56549 0.31888 0.1298 0.0
H797 H 0.47987 0.33846 0.1298 0.0
S798 S 0.4734 0.15412 0.19338 0.0
N799 N 0.5284 0.17457 0.18227 0.0
N800 N 0.43591 0.19523 0.18084 0.0
C801 C 0.46778 0.22798 0.16655 0.0
C802 C 0.51812 0.21679 0.16723 0.0
C803 C 0.84747 0.51903 0.63323 0.0
C804 C 0.82022 0.4808 0.64877 0.0
C805 C 0.83406 0.56775 0.63549 0.0
C806 C 0.79291 0.58019 0.65345 0.0
H807 H 0.87866 0.51105 0.61847 0.0
H808 H 0.85509 0.59561 0.62226 0.0
S809 S 0.71368 0.49497 0.70265 0.0
N810 N 0.75311 0.45985 0.68538 0.0
N811 N 0.72814 0.55066 0.68977 0.0
C812 C 0.7667 0.54254 0.6702 0.0
C813 C 0.78022 0.49313 0.66781 0.0
C814 C 0.56295 0.7436 0.17259 0.0
C815 C 0.60291 0.77508 0.16354 0.0
C816 C 0.51458 0.75747 0.16996 0.0
C817 C 0.50351 0.80384 0.15857 0.0
H818 H 0.56875 0.70725 0.18121 0.0
H819 H 0.48564 0.73073 0.17568 0.0
S820 S 0.59406 0.90317 0.13617 0.0
N821 N 0.62729 0.85667 0.14483 0.0
N822 N 0.53709 0.88363 0.14224 0.0
C823 C 0.54305 0.83699 0.15164 0.0
C824 C 0.59241 0.82251 0.15361 0.0
C825 C 0.27858 0.52462 0.60717 0.0
C826 C 0.26317 0.48814 0.62965 0.0
C827 C 0.26748 0.57345 0.61142 0.0
C828 C 0.24011 0.58828 0.63825 0.0
H829 H 0.29938 0.51543 0.58587 0.0
H830 H 0.28006 0.59975 0.59328 0.0
S831 S 0.19102 0.50757 0.70445 0.0
N832 N 0.21912 0.4707 0.67994 0.0
N833 N 0.19807 0.56218 0.68795 0.0
C834 C 0.22387 0.55217 0.66077 0.0
C835 C 0.23533 0.50229 0.65645 0.0
C836 C 0.56219 0.80819 0.88183 0.0
C837 C 0.57721 0.79838 0.91384 0.0
C838 C 0.51355 0.81851 0.87488 0.0
C839 C 0.47796 0.81983 0.89968 0.0
H840 H 0.5878 0.8061 0.86192 0.0
H841 H 0.5035 0.82408 0.84967 0.0
S842 S 0.50106 0.80388 0.98819 0.0
N843 N 0.55405 0.79506 0.9709 0.0
N844 N 0.46333 0.81536 0.95809 0.0
C845 C 0.4933 0.81218 0.93198 0.0
C846 C 0.54267 0.80132 0.93897 0.0
C847 C 0.24608 0.48312 0.3723 0.0
C848 C 0.28884 0.46632 0.38613 0.0
C849 C 0.2366 0.53293 0.37255 0.0
C850 C 0.26925 0.56802 0.38697 0.0
H851 H 0.22051 0.45772 0.36036 0.0
H852 H 0.20372 0.54408 0.3608 0.0
S853 S 0.38367 0.54112 0.43017 0.0
N854 N 0.36246 0.4877 0.41662 0.0
N855 N 0.34425 0.58069 0.4181 0.0
C856 C 0.31143 0.55113 0.40187 0.0
C857 C 0.32125 0.50052 0.40124 0.0
C858 C 0.51237 0.28752 0.87877 0.0
C859 C 0.47456 0.25611 0.89107 0.0
C860 C 0.56108 0.27446 0.87868 0.0
C861 C 0.57441 0.22917 0.89067 0.0
H862 H 0.50426 0.32284 0.86918 0.0
H863 H 0.58862 0.30005 0.86904 0.0
S864 S 0.49022 0.13394 0.92662 0.0
N865 N 0.45441 0.17777 0.91623 0.0
N866 N 0.54579 0.15299 0.91578 0.0
C867 C 0.53705 0.19699 0.90266 0.0
C868 C 0.48727 0.21044 0.90289 0.0
C869 C 0.76561 0.50355 0.40983 0.0
C870 C 0.80057 0.48973 0.38707 0.0
C871 C 0.75383 0.55234 0.41334 0.0
C872 C 0.77649 0.5897 0.39432 0.0
H873 H 0.74752 0.4765 0.42539 0.0
H874 H 0.72684 0.56099 0.43132 0.0
S875 S 0.86809 0.57298 0.32961 0.0
N876 N 0.85618 0.51764 0.34406 0.0
N877 N 0.83421 0.60915 0.35097 0.0
C878 C 0.81145 0.57656 0.37143 0.0
C879 C 0.82339 0.52673 0.36772 0.0
C880 C 0.28023 0.21818 0.28717 0.0
C881 C 0.24834 0.24606 0.30552 0.0
C882 C 0.27727 0.21558 0.25297 0.0
C883 C 0.24276 0.2414 0.23581 0.0
H884 H 0.30889 0.19941 0.29925 0.0
H885 H 0.304 0.19568 0.23984 0.0
S886 S 0.14745 0.3153 0.27211 0.0
N887 N 0.17836 0.29631 0.30384 0.0
N888 N 0.1732 0.29217 0.23967 0.0
C889 C 0.20896 0.26717 0.2539 0.0
C890 C 0.21157 0.26927 0.28872 0.0
C891 C 0.83146 0.27893 0.79512 0.0
C892 C 0.79866 0.2397 0.80278 0.0
C893 C 0.84241 0.29124 0.7626 0.0
C894 C 0.82272 0.26365 0.73643 0.0
H895 H 0.84591 0.30292 0.8139 0.0
H896 H 0.86414 0.32442 0.75787 0.0
S897 S 0.74545 0.1497 0.74397 0.0
N898 N 0.7525 0.16903 0.78191 0.0
N899 N 0.77715 0.1891 0.72098 0.0
C900 C 0.79545 0.22039 0.74399 0.0
C901 C 0.78234 0.20924 0.77712 0.0
C902 C 0.83581 0.75951 0.26475 0.0
C903 C 0.81007 0.79237 0.24562 0.0
C904 C 0.83481 0.76092 0.29905 0.0
C905 C 0.80723 0.79465 0.31547 0.0
H906 H 0.85609 0.73163 0.25313 0.0
H907 H 0.8537 0.73392 0.3127 0.0
S908 S 0.73657 0.89106 0.27716 0.0
N909 N 0.75913 0.86177 0.24597 0.0
N910 N 0.75632 0.86393 0.31023 0.0
C911 C 0.78295 0.82893 0.29671 0.0
C912 C 0.78465 0.82799 0.26184 0.0
C913 C 0.2655 0.86207 0.78628 0.0
C914 C 0.22579 0.83368 0.79866 0.0
C915 C 0.27454 0.86523 0.75265 0.0
C916 C 0.2444 0.83983 0.72985 0.0
H917 H 0.29044 0.88137 0.8027 0.0
H918 H 0.30656 0.88647 0.74466 0.0
S919 S 0.13278 0.76381 0.74927 0.0
N920 N 0.15386 0.78228 0.78512 0.0
N921 N 0.17081 0.78833 0.72208 0.0
C922 C 0.20304 0.81333 0.74177 0.0
C923 C 0.19371 0.81028 0.77606 0.0
C924 C 0.81069 0.76848 0.81241 0.0
C925 C 0.80492 0.81825 0.81827 0.0
C926 C 0.81828 0.75047 0.78091 0.0
C927 C 0.82078 0.78146 0.7536 0.0
H928 H 0.81021 0.74301 0.83242 0.0
H929 H 0.82136 0.71167 0.77801 0.0
S930 S 0.81227 0.91594 0.75596 0.0
N931 N 0.80545 0.89887 0.79439 0.0
N932 N 0.81978 0.86565 0.73507 0.0
C933 C 0.81705 0.83185 0.75927 0.0
C934 C 0.80931 0.85008 0.79154 0.0
C935 C 0.24426 0.79589 0.25066 0.0
C936 C 0.28836 0.81266 0.23607 0.0
C937 C 0.24037 0.7902 0.28477 0.0
C938 C 0.2809 0.8001 0.30508 0.0
H939 H 0.21367 0.78391 0.23548 0.0
H940 H 0.20672 0.77471 0.29496 0.0
S941 S 0.40269 0.85002 0.2788 0.0
N942 N 0.37159 0.84287 0.2445 0.0
N943 N 0.36482 0.83255 0.30827 0.0
C944 C 0.32408 0.81997 0.29077 0.0
C945 C 0.32774 0.82603 0.25629 0.0
C946 C 0.28603 0.24543 0.73145 0.0
C947 C 0.23665 0.25421 0.72607 0.0
C948 C 0.30415 0.23592 0.76272 0.0
C949 C 0.27363 0.23434 0.79025 0.0
H950 H 0.31106 0.24512 0.71123 0.0
H951 H 0.34272 0.23061 0.76529 0.0
S952 S 0.13998 0.25048 0.78899 0.0
N953 N 0.15669 0.25744 0.75052 0.0
N954 N 0.19004 0.23949 0.80941 0.0
C955 C 0.22346 0.24094 0.785 0.0
C956 C 0.20514 0.25069 0.75296 0.0
C957 C 0.82013 0.29713 0.28189 0.0
C958 C 0.80201 0.26044 0.30298 0.0
C959 C 0.81249 0.29361 0.24811 0.0
C960 C 0.78679 0.25313 0.23416 0.0
H961 H 0.83721 0.3303 0.29175 0.0
H962 H 0.82482 0.32398 0.23288 0.0
S963 S 0.73513 0.14574 0.27894 0.0
N964 N 0.75945 0.18133 0.30772 0.0
N965 N 0.74619 0.17416 0.24398 0.0
C966 C 0.77136 0.21471 0.25478 0.0
C967 C 0.77855 0.21864 0.28931 0.0
loop_
_geom_bond_atom_site_label_1
_geom_bond_atom_site_label_2
_geom_bond_distance
_geom_bond_site_symmetry_2
_ccdc_geom_bond_type
Co0 N4 2.148 . S
Co0 N10 2.128 . S
Co0 N20 2.194 . S
Co0 O25 2.351 . S
Co0 O26 2.155 . S
Co0 O27 2.096 . S
C1 N4 1.301 . S
C1 N5 1.328 . S
C1 H6 0.930 . S
C2 C3 1.333 . S
C2 N4 1.317 . S
C2 H7 0.930 . S
C3 C2 1.333 . S
C3 N5 1.350 . S
C3 H29 0.931 . S
N4 Co0 2.148 . S
N4 C1 1.301 . S
N4 C2 1.317 . S
N5 C1 1.328 . S
N5 C3 1.350 . S
H6 C1 0.930 . S
H7 C2 0.930 . S
C8 O9 1.224 . S
C8 O27 1.247 . S
O9 C8 1.224 . S
N10 Co0 2.128 . S
N10 C11 1.355 . S
N10 C13 1.311 . S
C11 N10 1.355 . S
C11 C12 1.363 . S
C11 H23 0.929 . S
C12 C11 1.363 . S
C12 N14 1.375 . S
C12 H30 0.931 . S
C13 N10 1.311 . S
C13 N14 1.347 . S
C13 H24 0.929 . S
N14 C12 1.375 . S
N14 C13 1.347 . S
C15 C18 1.365 . S
C15 N20 1.328 . S
C15 H21 0.929 . S
C16 C17 1.362 . S
C16 C19 1.378 . S
C16 H31 0.929 . S
C17 C16 1.362 . S
C17 C18 1.366 . S
C18 C15 1.365 . S
C18 C17 1.366 . S
C18 H32 0.930 . S
C19 C16 1.378 . S
C19 N20 1.315 . S
C19 H22 0.930 . S
N20 Co0 2.194 . S
N20 C15 1.328 . S
N20 C19 1.315 . S
H21 C15 0.929 . S
H22 C19 0.930 . S
H23 C11 0.929 . S
H24 C13 0.929 . S
O25 Co0 2.351 . S
O25 C28 1.244 . S
O26 Co0 2.155 . S
O26 C28 1.240 . S
O27 Co0 2.096 . S
O27 C8 1.247 . S
C28 O25 1.244 . S
C28 O26 1.240 . S
H29 C3 0.931 . S
H30 C12 0.931 . S
H31 C16 0.929 . S
H32 C18 0.930 . S
Co33 N37 2.148 . S
Co33 N43 2.128 . S
Co33 N53 2.194 . S
Co33 O58 2.351 . S
Co33 O59 2.155 . S
Co33 O60 2.096 . S
C34 N37 1.301 . S
C34 N38 1.328 . S
C34 H39 0.930 . S
C35 C36 1.333 . S
C35 N37 1.317 . S
C35 H40 0.930 . S
C36 C35 1.333 . S
C36 N38 1.350 . S
C36 H62 0.931 . S
N37 Co33 2.148 . S
N37 C34 1.301 . S
N37 C35 1.317 . S
N38 C34 1.328 . S
N38 C36 1.350 . S
H39 C34 0.930 . S
H40 C35 0.930 . S
C41 O42 1.224 . S
C41 O60 1.247 . S
O42 C41 1.224 . S
N43 Co33 2.128 . S
N43 C44 1.355 . S
N43 C46 1.311 . S
C44 N43 1.355 . S
C44 C45 1.363 . S
C44 H56 0.929 . S
C45 C44 1.363 . S
C45 N47 1.375 . S
C45 H63 0.931 . S
C46 N43 1.311 . S
C46 N47 1.347 . S
C46 H57 0.929 . S
N47 C45 1.375 . S
N47 C46 1.347 . S
C48 C51 1.365 . S
C48 N53 1.328 . S
C48 H54 0.929 . S
C49 C50 1.362 . S
C49 C52 1.378 . S
C49 H64 0.929 . S
C50 C49 1.362 . S
C50 C51 1.366 . S
C51 C48 1.365 . S
C51 C50 1.366 . S
C51 H65 0.930 . S
C52 C49 1.378 . S
C52 N53 1.315 . S
C52 H55 0.930 . S
N53 Co33 2.194 . S
N53 C48 1.328 . S
N53 C52 1.315 . S
H54 C48 0.929 . S
H55 C52 0.930 . S
H56 C44 0.929 . S
H57 C46 0.929 . S
O58 Co33 2.351 . S
O58 C61 1.244 . S
O59 Co33 2.155 . S
O59 C61 1.240 . S
O60 Co33 2.096 . S
O60 C41 1.247 . S
C61 O58 1.244 . S
C61 O59 1.240 . S
H62 C36 0.931 . S
H63 C45 0.931 . S
H64 C49 0.929 . S
H65 C51 0.930 . S
Co66 N70 2.148 . S
Co66 N76 2.128 . S
Co66 N86 2.194 . S
Co66 O91 2.351 . S
Co66 O92 2.155 . S
Co66 O93 2.096 . S
C67 N70 1.301 . S
C67 N71 1.328 . S
C67 H72 0.930 . S
C68 C69 1.333 . S
C68 N70 1.317 . S
C68 H73 0.930 . S
C69 C68 1.333 . S
C69 N71 1.350 . S
C69 H95 0.931 . S
N70 Co66 2.148 . S
N70 C67 1.301 . S
N70 C68 1.317 . S
N71 C67 1.328 . S
N71 C69 1.350 . S
H72 C67 0.930 . S
H73 C68 0.930 . S
C74 O75 1.224 . S
C74 O93 1.247 . S
O75 C74 1.224 . S
N76 Co66 2.128 . S
N76 C77 1.355 . S
N76 C79 1.311 . S
C77 N76 1.355 . S
C77 C78 1.363 . S
C77 H89 0.929 . S
C78 C77 1.363 . S
C78 N80 1.375 . S
C78 H96 0.931 . S
C79 N76 1.311 . S
C79 N80 1.347 . S
C79 H90 0.929 . S
N80 C78 1.375 . S
N80 C79 1.347 . S
C81 C84 1.365 . S
C81 N86 1.328 . S
C81 H87 0.929 . S
C82 C83 1.362 . S
C82 C85 1.378 . S
C82 H97 0.929 . S
C83 C82 1.362 . S
C83 C84 1.366 . S
C84 C81 1.365 . S
C84 C83 1.366 . S
C84 H98 0.930 . S
C85 C82 1.378 . S
C85 N86 1.315 . S
C85 H88 0.930 . S
N86 Co66 2.194 . S
N86 C81 1.328 . S
N86 C85 1.315 . S
H87 C81 0.929 . S
H88 C85 0.930 . S
H89 C77 0.929 . S
H90 C79 0.929 . S
O91 Co66 2.351 . S
O91 C94 1.244 . S
O92 Co66 2.155 . S
O92 C94 1.240 . S
O93 Co66 2.096 . S
O93 C74 1.247 . S
C94 O91 1.244 . S
C94 O92 1.240 . S
H95 C69 0.931 . S
H96 C78 0.931 . S
H97 C82 0.929 . S
H98 C84 0.930 . S
Co99 N103 2.148 . S
Co99 N109 2.128 . S
Co99 N119 2.194 . S
Co99 O124 2.351 . S
Co99 O125 2.155 . S
Co99 O126 2.096 . S
C100 N103 1.301 . S
C100 N104 1.328 . S
C100 H105 0.930 . S
C101 C102 1.333 . S
C101 N103 1.317 . S
C101 H106 0.930 . S
C102 C101 1.333 . S
C102 N104 1.350 . S
C102 H128 0.931 . S
N103 Co99 2.148 . S
N103 C100 1.301 . S
N103 C101 1.317 . S
N104 C100 1.328 . S
N104 C102 1.350 . S
H105 C100 0.930 . S
H106 C101 0.930 . S
C107 O108 1.224 . S
C107 O126 1.247 . S
O108 C107 1.224 . S
N109 Co99 2.128 . S
N109 C110 1.355 . S
N109 C112 1.311 . S
C110 N109 1.355 . S
C110 C111 1.363 . S
C110 H122 0.929 . S
C111 C110 1.363 . S
C111 N113 1.375 . S
C111 H129 0.931 . S
C112 N109 1.311 . S
C112 N113 1.347 . S
C112 H123 0.929 . S
N113 C111 1.375 . S
N113 C112 1.347 . S
C114 C117 1.365 . S
C114 N119 1.328 . S
C114 H120 0.929 . S
C115 C116 1.362 . S
C115 C118 1.378 . S
C115 H130 0.929 . S
C116 C115 1.362 . S
C116 C117 1.366 . S
C117 C114 1.365 . S
C117 C116 1.366 . S
C117 H131 0.930 . S
C118 C115 1.378 . S
C118 N119 1.315 . S
C118 H121 0.930 . S
N119 Co99 2.194 . S
N119 C114 1.328 . S
N119 C118 1.315 . S
H120 C114 0.929 . S
H121 C118 0.930 . S
H122 C110 0.929 . S
H123 C112 0.929 . S
O124 Co99 2.351 . S
O124 C127 1.244 . S
O125 Co99 2.155 . S
O125 C127 1.240 . S
O126 Co99 2.096 . S
O126 C107 1.247 . S
C127 O124 1.244 . S
C127 O125 1.240 . S
H128 C102 0.931 . S
H129 C111 0.931 . S
H130 C115 0.929 . S
H131 C117 0.930 . S
Co132 N136 2.148 . S
Co132 N142 2.128 . S
Co132 N152 2.194 . S
Co132 O157 2.351 . S
Co132 O158 2.155 . S
Co132 O159 2.096 . S
C133 N136 1.301 . S
C133 N137 1.328 . S
C133 H138 0.930 . S
C134 C135 1.333 . S
C134 N136 1.317 . S
C134 H139 0.930 . S
C135 C134 1.333 . S
C135 N137 1.350 . S
C135 H161 0.931 . S
N136 Co132 2.148 . S
N136 C133 1.301 . S
N136 C134 1.317 . S
N137 C133 1.328 . S
N137 C135 1.350 . S
H138 C133 0.930 . S
H139 C134 0.930 . S
C140 O141 1.224 . S
C140 O159 1.247 . S
O141 C140 1.224 . S
N142 Co132 2.128 . S
N142 C143 1.355 . S
N142 C145 1.311 . S
C143 N142 1.355 . S
C143 C144 1.363 . S
C143 H155 0.929 . S
C144 C143 1.363 . S
C144 N146 1.375 . S
C144 H162 0.931 . S
C145 N142 1.311 . S
C145 N146 1.347 . S
C145 H156 0.929 . S
N146 C144 1.375 . S
N146 C145 1.347 . S
C147 C150 1.365 . S
C147 N152 1.328 . S
C147 H153 0.929 . S
C148 C149 1.362 . S
C148 C151 1.378 . S
C148 H163 0.929 . S
C149 C148 1.362 . S
C149 C150 1.366 . S
C150 C147 1.365 . S
C150 C149 1.366 . S
C150 H164 0.930 . S
C151 C148 1.378 . S
C151 N152 1.315 . S
C151 H154 0.930 . S
N152 Co132 2.194 . S
N152 C147 1.328 . S
N152 C151 1.315 . S
H153 C147 0.929 . S
H154 C151 0.930 . S
H155 C143 0.929 . S
H156 C145 0.929 . S
O157 Co132 2.351 . S
O157 C160 1.244 . S
O158 Co132 2.155 . S
O158 C160 1.240 . S
O159 Co132 2.096 . S
O159 C140 1.247 . S
C160 O157 1.244 . S
C160 O158 1.240 . S
H161 C135 0.931 . S
H162 C144 0.931 . S
H163 C148 0.929 . S
H164 C150 0.930 . S
Co165 N169 2.148 . S
Co165 N175 2.128 . S
Co165 N185 2.194 . S
Co165 O190 2.351 . S
Co165 O191 2.155 . S
Co165 O192 2.096 . S
C166 N169 1.301 . S
C166 N170 1.328 . S
C166 H171 0.930 . S
C167 C168 1.333 . S
C167 N169 1.317 . S
C167 H172 0.930 . S
C168 C167 1.333 . S
C168 N170 1.350 . S
C168 H194 0.931 . S
N169 Co165 2.148 . S
N169 C166 1.301 . S
N169 C167 1.317 . S
N170 C166 1.328 . S
N170 C168 1.350 . S
H171 C166 0.930 . S
H172 C167 0.930 . S
C173 O174 1.224 . S
C173 O192 1.247 . S
O174 C173 1.224 . S
N175 Co165 2.128 . S
N175 C176 1.355 . S
N175 C178 1.311 . S
C176 N175 1.355 . S
C176 C177 1.363 . S
C176 H188 0.929 . S
C177 C176 1.363 . S
C177 N179 1.375 . S
C177 H195 0.931 . S
C178 N175 1.311 . S
C178 N179 1.347 . S
C178 H189 0.929 . S
N179 C177 1.375 . S
N179 C178 1.347 . S
C180 C183 1.365 . S
C180 N185 1.328 . S
C180 H186 0.929 . S
C181 C182 1.362 . S
C181 C184 1.378 . S
C181 H196 0.929 . S
C182 C181 1.362 . S
C182 C183 1.366 . S
C183 C180 1.365 . S
C183 C182 1.366 . S
C183 H197 0.930 . S
C184 C181 1.378 . S
C184 N185 1.315 . S
C184 H187 0.930 . S
N185 Co165 2.194 . S
N185 C180 1.328 . S
N185 C184 1.315 . S
H186 C180 0.929 . S
H187 C184 0.930 . S
H188 C176 0.929 . S
H189 C178 0.929 . S
O190 Co165 2.351 . S
O190 C193 1.244 . S
O191 Co165 2.155 . S
O191 C193 1.240 . S
O192 Co165 2.096 . S
O192 C173 1.247 . S
C193 O190 1.244 . S
C193 O191 1.240 . S
H194 C168 0.931 . S
H195 C177 0.931 . S
H196 C181 0.929 . S
H197 C183 0.930 . S
Co198 N202 2.148 . S
Co198 N208 2.128 . S
Co198 N218 2.194 . S
Co198 O223 2.351 . S
Co198 O224 2.155 . S
Co198 O225 2.096 . S
C199 N202 1.301 . S
C199 N203 1.328 . S
C199 H204 0.930 . S
C200 C201 1.333 . S
C200 N202 1.317 . S
C200 H205 0.930 . S
C201 C200 1.333 . S
C201 N203 1.350 . S
C201 H227 0.931 . S
N202 Co198 2.148 . S
N202 C199 1.301 . S
N202 C200 1.317 . S
N203 C199 1.328 . S
N203 C201 1.350 . S
H204 C199 0.930 . S
H205 C200 0.930 . S
C206 O207 1.224 . S
C206 O225 1.247 . S
O207 C206 1.224 . S
N208 Co198 2.128 . S
N208 C209 1.355 . S
N208 C211 1.311 . S
C209 N208 1.355 . S
C209 C210 1.363 . S
C209 H221 0.929 . S
C210 C209 1.363 . S
C210 N212 1.375 . S
C210 H228 0.931 . S
C211 N208 1.311 . S
C211 N212 1.347 . S
C211 H222 0.929 . S
N212 C210 1.375 . S
N212 C211 1.347 . S
C213 C216 1.365 . S
C213 N218 1.328 . S
C213 H219 0.929 . S
C214 C215 1.362 . S
C214 C217 1.378 . S
C214 H229 0.929 . S
C215 C214 1.362 . S
C215 C216 1.366 . S
C216 C213 1.365 . S
C216 C215 1.366 . S
C216 H230 0.930 . S
C217 C214 1.378 . S
C217 N218 1.315 . S
C217 H220 0.930 . S
N218 Co198 2.194 . S
N218 C213 1.328 . S
N218 C217 1.315 . S
H219 C213 0.929 . S
H220 C217 0.930 . S
H221 C209 0.929 . S
H222 C211 0.929 . S
O223 Co198 2.351 . S
O223 C226 1.244 . S
O224 Co198 2.155 . S
O224 C226 1.240 . S
O225 Co198 2.096 . S
O225 C206 1.247 . S
C226 O223 1.244 . S
C226 O224 1.240 . S
H227 C201 0.931 . S
H228 C210 0.931 . S
H229 C214 0.929 . S
H230 C216 0.930 . S
Co231 N235 2.148 . S
Co231 N241 2.128 . S
Co231 N251 2.194 . S
Co231 O256 2.351 . S
Co231 O257 2.155 . S
Co231 O258 2.096 . S
C232 N235 1.301 . S
C232 N236 1.328 . S
C232 H237 0.930 . S
C233 C234 1.333 . S
C233 N235 1.317 . S
C233 H238 0.930 . S
C234 C233 1.333 . S
C234 N236 1.350 . S
C234 H260 0.931 . S
N235 Co231 2.148 . S
N235 C232 1.301 . S
N235 C233 1.317 . S
N236 C232 1.328 . S
N236 C234 1.350 . S
H237 C232 0.930 . S
H238 C233 0.930 . S
C239 O240 1.224 . S
C239 O258 1.247 . S
O240 C239 1.224 . S
N241 Co231 2.128 . S
N241 C242 1.355 . S
N241 C244 1.311 . S
C242 N241 1.355 . S
C242 C243 1.363 . S
C242 H254 0.929 . S
C243 C242 1.363 . S
C243 N245 1.375 . S
C243 H261 0.931 . S
C244 N241 1.311 . S
C244 N245 1.347 . S
C244 H255 0.929 . S
N245 C243 1.375 . S
N245 C244 1.347 . S
C246 C249 1.365 . S
C246 N251 1.328 . S
C246 H252 0.929 . S
C247 C248 1.362 . S
C247 C250 1.378 . S
C247 H262 0.929 . S
C248 C247 1.362 . S
C248 C249 1.366 . S
C249 C246 1.365 . S
C249 C248 1.366 . S
C249 H263 0.930 . S
C250 C247 1.378 . S
C250 N251 1.315 . S
C250 H253 0.930 . S
N251 Co231 2.194 . S
N251 C246 1.328 . S
N251 C250 1.315 . S
H252 C246 0.929 . S
H253 C250 0.930 . S
H254 C242 0.929 . S
H255 C244 0.929 . S
O256 Co231 2.351 . S
O256 C259 1.244 . S
O257 Co231 2.155 . S
O257 C259 1.240 . S
O258 Co231 2.096 . S
O258 C239 1.247 . S
C259 O256 1.244 . S
C259 O257 1.240 . S
H260 C234 0.931 . S
H261 C243 0.931 . S
H262 C247 0.929 . S
H263 C249 0.930 . S
Co264 N268 2.148 . S
Co264 N274 2.128 . S
Co264 N284 2.194 . S
Co264 O289 2.351 . S
Co264 O290 2.155 . S
Co264 O291 2.096 . S
C265 N268 1.301 . S
C265 N269 1.328 . S
C265 H270 0.930 . S
C266 C267 1.333 . S
C266 N268 1.317 . S
C266 H271 0.930 . S
C267 C266 1.333 . S
C267 N269 1.350 . S
C267 H293 0.931 . S
N268 Co264 2.148 . S
N268 C265 1.301 . S
N268 C266 1.317 . S
N269 C265 1.328 . S
N269 C267 1.350 . S
H270 C265 0.930 . S
H271 C266 0.930 . S
C272 O273 1.224 . S
C272 O291 1.247 . S
O273 C272 1.224 . S
N274 Co264 2.128 . S
N274 C275 1.355 . S
N274 C277 1.311 . S
C275 N274 1.355 . S
C275 C276 1.363 . S
C275 H287 0.929 . S
C276 C275 1.363 . S
C276 N278 1.375 . S
C276 H294 0.931 . S
C277 N274 1.311 . S
C277 N278 1.347 . S
C277 H288 0.929 . S
N278 C276 1.375 . S
N278 C277 1.347 . S
C279 C282 1.365 . S
C279 N284 1.328 . S
C279 H285 0.929 . S
C280 C281 1.362 . S
C280 C283 1.378 . S
C280 H295 0.929 . S
C281 C280 1.362 . S
C281 C282 1.366 . S
C282 C279 1.365 . S
C282 C281 1.366 . S
C282 H296 0.930 . S
C283 C280 1.378 . S
C283 N284 1.315 . S
C283 H286 0.930 . S
N284 Co264 2.194 . S
N284 C279 1.328 . S
N284 C283 1.315 . S
H285 C279 0.929 . S
H286 C283 0.930 . S
H287 C275 0.929 . S
H288 C277 0.929 . S
O289 Co264 2.351 . S
O289 C292 1.244 . S
O290 Co264 2.155 . S
O290 C292 1.240 . S
O291 Co264 2.096 . S
O291 C272 1.247 . S
C292 O289 1.244 . S
C292 O290 1.240 . S
H293 C267 0.931 . S
H294 C276 0.931 . S
H295 C280 0.929 . S
H296 C282 0.930 . S
Co297 N301 2.148 . S
Co297 N307 2.128 . S
Co297 N317 2.194 . S
Co297 O322 2.351 . S
Co297 O323 2.155 . S
Co297 O324 2.096 . S
C298 N301 1.301 . S
C298 N302 1.328 . S
C298 H303 0.930 . S
C299 C300 1.333 . S
C299 N301 1.317 . S
C299 H304 0.930 . S
C300 C299 1.333 . S
C300 N302 1.350 . S
C300 H326 0.931 . S
N301 Co297 2.148 . S
N301 C298 1.301 . S
N301 C299 1.317 . S
N302 C298 1.328 . S
N302 C300 1.350 . S
H303 C298 0.930 . S
H304 C299 0.930 . S
C305 O306 1.224 . S
C305 O324 1.247 . S
O306 C305 1.224 . S
N307 Co297 2.128 . S
N307 C308 1.355 . S
N307 C310 1.311 . S
C308 N307 1.355 . S
C308 C309 1.363 . S
C308 H320 0.929 . S
C309 C308 1.363 . S
C309 N311 1.375 . S
C309 H327 0.931 . S
C310 N307 1.311 . S
C310 N311 1.347 . S
C310 H321 0.929 . S
N311 C309 1.375 . S
N311 C310 1.347 . S
C312 C315 1.365 . S
C312 N317 1.328 . S
C312 H318 0.929 . S
C313 C314 1.362 . S
C313 C316 1.378 . S
C313 H328 0.929 . S
C314 C313 1.362 . S
C314 C315 1.366 . S
C315 C312 1.365 . S
C315 C314 1.366 . S
C315 H329 0.930 . S
C316 C313 1.378 . S
C316 N317 1.315 . S
C316 H319 0.930 . S
N317 Co297 2.194 . S
N317 C312 1.328 . S
N317 C316 1.315 . S
H318 C312 0.929 . S
H319 C316 0.930 . S
H320 C308 0.929 . S
H321 C310 0.929 . S
O322 Co297 2.351 . S
O322 C325 1.244 . S
O323 Co297 2.155 . S
O323 C325 1.240 . S
O324 Co297 2.096 . S
O324 C305 1.247 . S
C325 O322 1.244 . S
C325 O323 1.240 . S
H326 C300 0.931 . S
H327 C309 0.931 . S
H328 C313 0.929 . S
H329 C315 0.930 . S
Co330 N334 2.148 . S
Co330 N340 2.128 . S
Co330 N350 2.194 . S
Co330 O355 2.351 . S
Co330 O356 2.155 . S
Co330 O357 2.096 . S
C331 N334 1.301 . S
C331 N335 1.328 . S
C331 H336 0.930 . S
C332 C333 1.333 . S
C332 N334 1.317 . S
C332 H337 0.930 . S
C333 C332 1.333 . S
C333 N335 1.350 . S
C333 H359 0.931 . S
N334 Co330 2.148 . S
N334 C331 1.301 . S
N334 C332 1.317 . S
N335 C331 1.328 . S
N335 C333 1.350 . S
H336 C331 0.930 . S
H337 C332 0.930 . S
C338 O339 1.224 . S
C338 O357 1.247 . S
O339 C338 1.224 . S
N340 Co330 2.128 . S
N340 C341 1.355 . S
N340 C343 1.311 . S
C341 N340 1.355 . S
C341 C342 1.363 . S
C341 H353 0.929 . S
C342 C341 1.363 . S
C342 N344 1.375 . S
C342 H360 0.931 . S
C343 N340 1.311 . S
C343 N344 1.347 . S
C343 H354 0.929 . S
N344 C342 1.375 . S
N344 C343 1.347 . S
C345 C348 1.365 . S
C345 N350 1.328 . S
C345 H351 0.929 . S
C346 C347 1.362 . S
C346 C349 1.378 . S
C346 H361 0.929 . S
C347 C346 1.362 . S
C347 C348 1.366 . S
C348 C345 1.365 . S
C348 C347 1.366 . S
C348 H362 0.930 . S
C349 C346 1.378 . S
C349 N350 1.315 . S
C349 H352 0.930 . S
N350 Co330 2.194 . S
N350 C345 1.328 . S
N350 C349 1.315 . S
H351 C345 0.929 . S
H352 C349 0.930 . S
H353 C341 0.929 . S
H354 C343 0.929 . S
O355 Co330 2.351 . S
O355 C358 1.244 . S
O356 Co330 2.155 . S
O356 C358 1.240 . S
O357 Co330 2.096 . S
O357 C338 1.247 . S
C358 O355 1.244 . S
C358 O356 1.240 . S
H359 C333 0.931 . S
H360 C342 0.931 . S
H361 C346 0.929 . S
H362 C348 0.930 . S
Co363 N367 2.148 . S
Co363 N373 2.128 . S
Co363 N383 2.194 . S
Co363 O388 2.351 . S
Co363 O389 2.155 . S
Co363 O390 2.096 . S
C364 N367 1.301 . S
C364 N368 1.328 . S
C364 H369 0.930 . S
C365 C366 1.333 . S
C365 N367 1.317 . S
C365 H370 0.930 . S
C366 C365 1.333 . S
C366 N368 1.350 . S
C366 H392 0.931 . S
N367 Co363 2.148 . S
N367 C364 1.301 . S
N367 C365 1.317 . S
N368 C364 1.328 . S
N368 C366 1.350 . S
H369 C364 0.930 . S
H370 C365 0.930 . S
C371 O372 1.224 . S
C371 O390 1.247 . S
O372 C371 1.224 . S
N373 Co363 2.128 . S
N373 C374 1.355 . S
N373 C376 1.311 . S
C374 N373 1.355 . S
C374 C375 1.363 . S
C374 H386 0.929 . S
C375 C374 1.363 . S
C375 N377 1.375 . S
C375 H393 0.931 . S
C376 N373 1.311 . S
C376 N377 1.347 . S
C376 H387 0.929 . S
N377 C375 1.375 . S
N377 C376 1.347 . S
C378 C381 1.365 . S
C378 N383 1.328 . S
C378 H384 0.929 . S
C379 C380 1.362 . S
C379 C382 1.378 . S
C379 H394 0.929 . S
C380 C379 1.362 . S
C380 C381 1.366 . S
C381 C378 1.365 . S
C381 C380 1.366 . S
C381 H395 0.930 . S
C382 C379 1.378 . S
C382 N383 1.315 . S
C382 H385 0.930 . S
N383 Co363 2.194 . S
N383 C378 1.328 . S
N383 C382 1.315 . S
H384 C378 0.929 . S
H385 C382 0.930 . S
H386 C374 0.929 . S
H387 C376 0.929 . S
O388 Co363 2.351 . S
O388 C391 1.244 . S
O389 Co363 2.155 . S
O389 C391 1.240 . S
O390 Co363 2.096 . S
O390 C371 1.247 . S
C391 O388 1.244 . S
C391 O389 1.240 . S
H392 C366 0.931 . S
H393 C375 0.931 . S
H394 C379 0.929 . S
H395 C381 0.930 . S
Co396 N400 2.148 . S
Co396 N406 2.128 . S
Co396 N416 2.194 . S
Co396 O421 2.351 . S
Co396 O422 2.155 . S
Co396 O423 2.096 . S
C397 N400 1.301 . S
C397 N401 1.328 . S
C397 H402 0.930 . S
C398 C399 1.333 . S
C398 N400 1.317 . S
C398 H403 0.930 . S
C399 C398 1.333 . S
C399 N401 1.350 . S
C399 H425 0.931 . S
N400 Co396 2.148 . S
N400 C397 1.301 . S
N400 C398 1.317 . S
N401 C397 1.328 . S
N401 C399 1.350 . S
H402 C397 0.930 . S
H403 C398 0.930 . S
C404 O405 1.224 . S
C404 O423 1.247 . S
O405 C404 1.224 . S
N406 Co396 2.128 . S
N406 C407 1.355 . S
N406 C409 1.311 . S
C407 N406 1.355 . S
C407 C408 1.363 . S
C407 H419 0.929 . S
C408 C407 1.363 . S
C408 N410 1.375 . S
C408 H426 0.931 . S
C409 N406 1.311 . S
C409 N410 1.347 . S
C409 H420 0.929 . S
N410 C408 1.375 . S
N410 C409 1.347 . S
C411 C414 1.365 . S
C411 N416 1.328 . S
C411 H417 0.929 . S
C412 C413 1.362 . S
C412 C415 1.378 . S
C412 H427 0.929 . S
C413 C412 1.362 . S
C413 C414 1.366 . S
C414 C411 1.365 . S
C414 C413 1.366 . S
C414 H428 0.930 . S
C415 C412 1.378 . S
C415 N416 1.315 . S
C415 H418 0.930 . S
N416 Co396 2.194 . S
N416 C411 1.328 . S
N416 C415 1.315 . S
H417 C411 0.929 . S
H418 C415 0.930 . S
H419 C407 0.929 . S
H420 C409 0.929 . S
O421 Co396 2.351 . S
O421 C424 1.244 . S
O422 Co396 2.155 . S
O422 C424 1.240 . S
O423 Co396 2.096 . S
O423 C404 1.247 . S
C424 O421 1.244 . S
C424 O422 1.240 . S
H425 C399 0.931 . S
H426 C408 0.931 . S
H427 C412 0.929 . S
H428 C414 0.930 . S
Co429 N433 2.148 . S
Co429 N439 2.128 . S
Co429 N449 2.194 . S
Co429 O454 2.351 . S
Co429 O455 2.155 . S
Co429 O456 2.096 . S
C430 N433 1.301 . S
C430 N434 1.328 . S
C430 H435 0.930 . S
C431 C432 1.333 . S
C431 N433 1.317 . S
C431 H436 0.930 . S
C432 C431 1.333 . S
C432 N434 1.350 . S
C432 H458 0.931 . S
N433 Co429 2.148 . S
N433 C430 1.301 . S
N433 C431 1.317 . S
N434 C430 1.328 . S
N434 C432 1.350 . S
H435 C430 0.930 . S
H436 C431 0.930 . S
C437 O438 1.224 . S
C437 O456 1.247 . S
O438 C437 1.224 . S
N439 Co429 2.128 . S
N439 C440 1.355 . S
N439 C442 1.311 . S
C440 N439 1.355 . S
C440 C441 1.363 . S
C440 H452 0.929 . S
C441 C440 1.363 . S
C441 N443 1.375 . S
C441 H459 0.931 . S
C442 N439 1.311 . S
C442 N443 1.347 . S
C442 H453 0.929 . S
N443 C441 1.375 . S
N443 C442 1.347 . S
C444 C447 1.365 . S
C444 N449 1.328 . S
C444 H450 0.929 . S
C445 C446 1.362 . S
C445 C448 1.378 . S
C445 H460 0.929 . S
C446 C445 1.362 . S
C446 C447 1.366 . S
C447 C444 1.365 . S
C447 C446 1.366 . S
C447 H461 0.930 . S
C448 C445 1.378 . S
C448 N449 1.315 . S
C448 H451 0.930 . S
N449 Co429 2.194 . S
N449 C444 1.328 . S
N449 C448 1.315 . S
H450 C444 0.929 . S
H451 C448 0.930 . S
H452 C440 0.929 . S
H453 C442 0.929 . S
O454 Co429 2.351 . S
O454 C457 1.244 . S
O455 Co429 2.155 . S
O455 C457 1.240 . S
O456 Co429 2.096 . S
O456 C437 1.247 . S
C457 O454 1.244 . S
C457 O455 1.240 . S
H458 C432 0.931 . S
H459 C441 0.931 . S
H460 C445 0.929 . S
H461 C447 0.930 . S
Co462 N466 2.148 . S
Co462 N472 2.128 . S
Co462 N482 2.194 . S
Co462 O487 2.351 . S
Co462 O488 2.155 . S
Co462 O489 2.096 . S
C463 N466 1.301 . S
C463 N467 1.328 . S
C463 H468 0.930 . S
C464 C465 1.333 . S
C464 N466 1.317 . S
C464 H469 0.930 . S
C465 C464 1.333 . S
C465 N467 1.350 . S
C465 H491 0.931 . S
N466 Co462 2.148 . S
N466 C463 1.301 . S
N466 C464 1.317 . S
N467 C463 1.328 . S
N467 C465 1.350 . S
H468 C463 0.930 . S
H469 C464 0.930 . S
C470 O471 1.224 . S
C470 O489 1.247 . S
O471 C470 1.224 . S
N472 Co462 2.128 . S
N472 C473 1.355 . S
N472 C475 1.311 . S
C473 N472 1.355 . S
C473 C474 1.363 . S
C473 H485 0.929 . S
C474 C473 1.363 . S
C474 N476 1.375 . S
C474 H492 0.931 . S
C475 N472 1.311 . S
C475 N476 1.347 . S
C475 H486 0.929 . S
N476 C474 1.375 . S
N476 C475 1.347 . S
C477 C480 1.365 . S
C477 N482 1.328 . S
C477 H483 0.929 . S
C478 C479 1.362 . S
C478 C481 1.378 . S
C478 H493 0.929 . S
C479 C478 1.362 . S
C479 C480 1.366 . S
C480 C477 1.365 . S
C480 C479 1.366 . S
C480 H494 0.930 . S
C481 C478 1.378 . S
C481 N482 1.315 . S
C481 H484 0.930 . S
N482 Co462 2.194 . S
N482 C477 1.328 . S
N482 C481 1.315 . S
H483 C477 0.929 . S
H484 C481 0.930 . S
H485 C473 0.929 . S
H486 C475 0.929 . S
O487 Co462 2.351 . S
O487 C490 1.244 . S
O488 Co462 2.155 . S
O488 C490 1.240 . S
O489 Co462 2.096 . S
O489 C470 1.247 . S
C490 O487 1.244 . S
C490 O488 1.240 . S
H491 C465 0.931 . S
H492 C474 0.931 . S
H493 C478 0.929 . S
H494 C480 0.930 . S
Co495 N499 2.148 . S
Co495 N505 2.128 . S
Co495 N515 2.194 . S
Co495 O520 2.351 . S
Co495 O521 2.155 . S
Co495 O522 2.096 . S
C496 N499 1.301 . S
C496 N500 1.328 . S
C496 H501 0.930 . S
C497 C498 1.333 . S
C497 N499 1.317 . S
C497 H502 0.930 . S
C498 C497 1.333 . S
C498 N500 1.350 . S
C498 H524 0.931 . S
N499 Co495 2.148 . S
N499 C496 1.301 . S
N499 C497 1.317 . S
N500 C496 1.328 . S
N500 C498 1.350 . S
H501 C496 0.930 . S
H502 C497 0.930 . S
C503 O504 1.224 . S
C503 O522 1.247 . S
O504 C503 1.224 . S
N505 Co495 2.128 . S
N505 C506 1.355 . S
N505 C508 1.311 . S
C506 N505 1.355 . S
C506 C507 1.363 . S
C506 H518 0.929 . S
C507 C506 1.363 . S
C507 N509 1.375 . S
C507 H525 0.931 . S
C508 N505 1.311 . S
C508 N509 1.347 . S
C508 H519 0.929 . S
N509 C507 1.375 . S
N509 C508 1.347 . S
C510 C513 1.365 . S
C510 N515 1.328 . S
C510 H516 0.929 . S
C511 C512 1.362 . S
C511 C514 1.378 . S
C511 H526 0.929 . S
C512 C511 1.362 . S
C512 C513 1.366 . S
C513 C510 1.365 . S
C513 C512 1.366 . S
C513 H527 0.930 . S
C514 C511 1.378 . S
C514 N515 1.315 . S
C514 H517 0.930 . S
N515 Co495 2.194 . S
N515 C510 1.328 . S
N515 C514 1.315 . S
H516 C510 0.929 . S
H517 C514 0.930 . S
H518 C506 0.929 . S
H519 C508 0.929 . S
O520 Co495 2.351 . S
O520 C523 1.244 . S
O521 Co495 2.155 . S
O521 C523 1.240 . S
O522 Co495 2.096 . S
O522 C503 1.247 . S
C523 O520 1.244 . S
C523 O521 1.240 . S
H524 C498 0.931 . S
H525 C507 0.931 . S
H526 C511 0.929 . S
H527 C513 0.930 . S
C528 C529 1.369 . S
C528 C530 1.419 1_655 S
C528 H532 0.930 . S
C529 C528 1.369 . S
C529 C538 1.429 . S
C530 C528 1.419 1_455 S
C530 C531 1.363 . S
C530 H533 0.929 . S
C531 C530 1.363 . S
C531 C537 1.428 . S
H532 C528 0.930 . S
H533 C530 0.929 . S
S534 N535 1.613 . S
S534 N536 1.610 1_655 S
N535 S534 1.613 . S
N535 C538 1.350 . S
N536 S534 1.610 1_455 S
N536 C537 1.351 . S
C537 C531 1.428 . S
C537 N536 1.351 . S
C537 C538 1.434 1_455 S
C538 C529 1.429 . S
C538 N535 1.350 . S
C538 C537 1.434 1_655 S
C539 C540 1.369 . S
C539 C541 1.419 1_545 S
C539 H543 0.930 . S
C540 C539 1.369 . S
C540 C549 1.429 . S
C541 C539 1.419 1_565 S
C541 C542 1.363 . S
C541 H544 0.929 . S
C542 C541 1.363 . S
C542 C548 1.428 . S
H543 C539 0.930 . S
H544 C541 0.929 . S
S545 N546 1.613 1_565 S
S545 N547 1.610 . S
N546 S545 1.613 1_545 S
N546 C549 1.350 . S
N547 S545 1.610 . S
N547 C548 1.351 . S
C548 C542 1.428 . S
C548 N547 1.351 . S
C548 C549 1.434 1_565 S
C549 C540 1.429 . S
C549 N546 1.350 . S
C549 C548 1.434 1_545 S
C550 C551 1.369 1_455 S
C550 C552 1.419 . S
C550 H554 0.930 1_455 S
C551 C550 1.369 1_655 S
C551 C560 1.429 . S
C552 C550 1.419 . S
C552 C553 1.363 . S
C552 H555 0.929 . S
C553 C552 1.363 . S
C553 C559 1.428 . S
H554 C550 0.930 1_655 S
H555 C552 0.929 . S
S556 N557 1.613 . S
S556 N558 1.610 1_655 S
N557 S556 1.613 . S
N557 C560 1.350 . S
N558 S556 1.610 1_455 S
N558 C559 1.351 . S
C559 C553 1.428 . S
C559 N558 1.351 . S
C559 C560 1.434 1_455 S
C560 C551 1.429 . S
C560 N557 1.350 . S
C560 C559 1.434 1_655 S
C561 C562 1.369 . S
C561 C563 1.419 1_565 S
C561 H565 0.930 . S
C562 C561 1.369 . S
C562 C571 1.429 . S
C563 C561 1.419 1_545 S
C563 C564 1.363 . S
C563 H566 0.929 . S
C564 C563 1.363 . S
C564 C570 1.428 . S
H565 C561 0.930 . S
H566 C563 0.929 . S
S567 N568 1.613 . S
S567 N569 1.610 1_565 S
N568 S567 1.613 . S
N568 C571 1.350 . S
N569 S567 1.610 1_545 S
N569 C570 1.351 . S
C570 C564 1.428 . S
C570 N569 1.351 . S
C570 C571 1.434 1_545 S
C571 C562 1.429 . S
C571 N568 1.350 . S
C571 C570 1.434 1_565 S
C572 C573 1.369 . S
C572 C574 1.419 1_655 S
C572 H576 0.930 . S
C573 C572 1.369 . S
C573 C582 1.429 . S
C574 C572 1.419 1_455 S
C574 C575 1.363 . S
C574 H577 0.929 . S
C575 C574 1.363 . S
C575 C581 1.428 . S
H576 C572 0.930 . S
H577 C574 0.929 . S
S578 N579 1.613 . S
S578 N580 1.610 1_655 S
N579 S578 1.613 . S
N579 C582 1.350 . S
N580 S578 1.610 1_455 S
N580 C581 1.351 . S
C581 C575 1.428 . S
C581 N580 1.351 . S
C581 C582 1.434 1_455 S
C582 C573 1.429 . S
C582 N579 1.350 . S
C582 C581 1.434 1_655 S
C583 C584 1.369 . S
C583 C585 1.419 1_565 S
C583 H587 0.930 . S
C584 C583 1.369 . S
C584 C593 1.429 . S
C585 C583 1.419 1_545 S
C585 C586 1.363 . S
C585 H588 0.929 . S
C586 C585 1.363 . S
C586 C592 1.428 1_545 S
H587 C583 0.930 . S
H588 C585 0.929 . S
S589 N590 1.613 . S
S589 N591 1.610 1_565 S
N590 S589 1.613 . S
N590 C593 1.350 . S
N591 S589 1.610 1_545 S
N591 C592 1.351 1_545 S
C592 C586 1.428 1_565 S
C592 N591 1.351 1_565 S
C592 C593 1.434 . S
C593 C584 1.429 . S
C593 N590 1.350 . S
C593 C592 1.434 . S
C594 C595 1.369 . S
C594 C596 1.419 1_655 S
C594 H598 0.930 . S
C595 C594 1.369 . S
C595 C604 1.429 . S
C596 C594 1.419 1_455 S
C596 C597 1.363 . S
C596 H599 0.929 . S
C597 C596 1.363 . S
C597 C603 1.428 . S
H598 C594 0.930 . S
H599 C596 0.929 . S
S600 N601 1.613 1_455 S
S600 N602 1.610 . S
N601 S600 1.613 1_655 S
N601 C604 1.350 . S
N602 S600 1.610 . S
N602 C603 1.351 . S
C603 C597 1.428 . S
C603 N602 1.351 . S
C603 C604 1.434 1_455 S
C604 C595 1.429 . S
C604 N601 1.350 . S
C604 C603 1.434 1_655 S
C605 C606 1.369 . S
C605 C607 1.419 1_545 S
C605 H609 0.930 . S
C606 C605 1.369 . S
C606 C615 1.429 . S
C607 C605 1.419 1_565 S
C607 C608 1.363 . S
C607 H610 0.929 . S
C608 C607 1.363 . S
C608 C614 1.428 1_565 S
H609 C605 0.930 . S
H610 C607 0.929 . S
S611 N612 1.613 . S
S611 N613 1.617 . S
N612 S611 1.613 . S
N612 C615 1.350 . S
N613 S611 1.617 . S
N613 C614 1.352 . S
C614 C608 1.428 1_545 S
C614 N613 1.352 . S
C614 C615 1.434 . S
C615 C606 1.429 . S
C615 N612 1.350 . S
C615 C614 1.434 . S
C616 C617 1.369 . S
C616 C618 1.419 . S
C616 H620 0.930 . S
C617 C616 1.369 . S
C617 C626 1.429 . S
C618 C616 1.419 . S
C618 C619 1.363 . S
C618 H621 0.929 . S
C619 C618 1.363 . S
C619 C625 1.428 . S
H620 C616 0.930 . S
H621 C618 0.929 . S
S622 N623 1.613 . S
S622 N624 1.610 . S
N623 S622 1.613 . S
N623 C626 1.350 . S
N624 S622 1.610 . S
N624 C625 1.351 . S
C625 C619 1.428 . S
C625 N624 1.351 . S
C625 C626 1.434 . S
C626 C617 1.429 . S
C626 N623 1.350 . S
C626 C625 1.434 . S
C627 C628 1.369 . S
C627 C629 1.419 . S
C627 H631 0.930 . S
C628 C627 1.369 . S
C628 C637 1.429 . S
C629 C627 1.419 . S
C629 C630 1.363 . S
C629 H632 0.929 . S
C630 C629 1.363 . S
C630 C636 1.428 . S
H631 C627 0.930 . S
H632 C629 0.929 . S
S633 N634 1.613 . S
S633 N635 1.610 . S
N634 S633 1.613 . S
N634 C637 1.350 . S
N635 S633 1.610 . S
N635 C636 1.351 . S
C636 C630 1.428 . S
C636 N635 1.351 . S
C636 C637 1.434 . S
C637 C628 1.429 . S
C637 N634 1.350 . S
C637 C636 1.434 . S
C638 C639 1.369 . S
C638 C640 1.419 . S
C638 H642 0.930 . S
C639 C638 1.369 . S
C639 C648 1.429 . S
C640 C638 1.419 . S
C640 C641 1.363 . S
C640 H643 0.929 . S
C641 C640 1.363 . S
C641 C647 1.428 . S
H642 C638 0.930 . S
H643 C640 0.929 . S
S644 N645 1.613 . S
S644 N646 1.610 . S
N645 S644 1.613 . S
N645 C648 1.350 . S
N646 S644 1.610 . S
N646 C647 1.351 . S
C647 C641 1.428 . S
C647 N646 1.351 . S
C647 C648 1.434 . S
C648 C639 1.429 . S
C648 N645 1.350 . S
C648 C647 1.434 . S
C649 C650 1.369 . S
C649 C651 1.419 . S
C649 H653 0.930 . S
C650 C649 1.369 . S
C650 C659 1.429 . S
C651 C649 1.419 . S
C651 C652 1.363 . S
C651 H654 0.929 . S
C652 C651 1.363 . S
C652 C658 1.428 . S
H653 C649 0.930 . S
H654 C651 0.929 . S
S655 N656 1.613 . S
S655 N657 1.610 . S
N656 S655 1.613 . S
N656 C659 1.350 . S
N657 S655 1.610 . S
N657 C658 1.351 . S
C658 C652 1.428 . S
C658 N657 1.351 . S
C658 C659 1.434 . S
C659 C650 1.429 . S
C659 N656 1.350 . S
C659 C658 1.434 . S
C660 C661 1.369 . S
C660 C662 1.419 . S
C660 H664 0.930 . S
C661 C660 1.369 . S
C661 C670 1.429 . S
C662 C660 1.419 . S
C662 C663 1.363 . S
C662 H665 0.929 . S
C663 C662 1.363 . S
C663 C669 1.428 . S
H664 C660 0.930 . S
H665 C662 0.929 . S
S666 N667 1.613 . S
S666 N668 1.610 . S
N667 S666 1.613 . S
N667 C670 1.350 . S
N668 S666 1.610 . S
N668 C669 1.351 . S
C669 C663 1.428 . S
C669 N668 1.351 . S
C669 C670 1.434 . S
C670 C661 1.429 . S
C670 N667 1.350 . S
C670 C669 1.434 . S
C671 C672 1.369 . S
C671 C673 1.419 . S
C671 H675 0.930 . S
C672 C671 1.369 . S
C672 C681 1.429 . S
C673 C671 1.419 . S
C673 C674 1.363 . S
C673 H676 0.929 . S
C674 C673 1.363 . S
C674 C680 1.428 . S
H675 C671 0.930 . S
H676 C673 0.929 . S
S677 N678 1.613 . S
S677 N679 1.610 . S
N678 S677 1.613 . S
N678 C681 1.350 . S
N679 S677 1.610 . S
N679 C680 1.351 . S
C680 C674 1.428 . S
C680 N679 1.351 . S
C680 C681 1.434 . S
C681 C672 1.429 . S
C681 N678 1.350 . S
C681 C680 1.434 . S
C682 C683 1.369 . S
C682 C684 1.419 . S
C682 H686 0.930 . S
C683 C682 1.369 . S
C683 C692 1.429 . S
C684 C682 1.419 . S
C684 C685 1.363 . S
C684 H687 0.929 . S
C685 C684 1.363 . S
C685 C691 1.428 . S
H686 C682 0.930 . S
H687 C684 0.929 . S
S688 N689 1.613 . S
S688 N690 1.610 . S
N689 S688 1.613 . S
N689 C692 1.350 . S
N690 S688 1.610 . S
N690 C691 1.351 . S
C691 C685 1.428 . S
C691 N690 1.351 . S
C691 C692 1.434 . S
C692 C683 1.429 . S
C692 N689 1.350 . S
C692 C691 1.434 . S
C693 C694 1.369 . S
C693 C695 1.419 . S
C693 H697 0.930 . S
C694 C693 1.369 . S
C694 C703 1.429 . S
C695 C693 1.419 . S
C695 C696 1.363 . S
C695 H698 0.929 . S
C696 C695 1.363 . S
C696 C702 1.428 . S
H697 C693 0.930 . S
H698 C695 0.929 . S
S699 N700 1.613 . S
S699 N701 1.610 . S
N700 S699 1.613 . S
N700 C703 1.350 . S
N701 S699 1.610 . S
N701 C702 1.351 . S
C702 C696 1.428 . S
C702 N701 1.351 . S
C702 C703 1.434 . S
C703 C694 1.429 . S
C703 N700 1.350 . S
C703 C702 1.434 . S
C704 C705 1.369 . S
C704 C706 1.419 1_554 S
C704 H708 0.930 . S
C705 C704 1.369 . S
C705 C714 1.429 . S
C706 C704 1.419 1_556 S
C706 C707 1.363 . S
C706 H709 0.929 . S
C707 C706 1.363 . S
C707 C713 1.428 . S
H708 C704 0.930 . S
H709 C706 0.929 . S
S710 N711 1.613 1_556 S
S710 N712 1.610 . S
N711 S710 1.613 1_554 S
N711 C714 1.350 . S
N712 S710 1.610 . S
N712 C713 1.351 . S
C713 C707 1.428 . S
C713 N712 1.351 . S
C713 C714 1.434 1_556 S
C714 C705 1.429 . S
C714 N711 1.350 . S
C714 C713 1.434 1_554 S
C715 C716 1.369 . S
C715 C717 1.419 . S
C715 H719 0.930 . S
C716 C715 1.369 . S
C716 C725 1.429 . S
C717 C715 1.419 . S
C717 C718 1.363 . S
C717 H720 0.929 . S
C718 C717 1.363 . S
C718 C724 1.428 . S
H719 C715 0.930 . S
H720 C717 0.929 . S
S721 N722 1.613 . S
S721 N723 1.610 . S
N722 S721 1.613 . S
N722 C725 1.350 . S
N723 S721 1.610 . S
N723 C724 1.351 . S
C724 C718 1.428 . S
C724 N723 1.351 . S
C724 C725 1.434 . S
C725 C716 1.429 . S
C725 N722 1.350 . S
C725 C724 1.434 . S
C726 C727 1.369 . S
C726 C728 1.419 1_556 S
C726 H730 0.930 . S
C727 C726 1.369 . S
C727 C736 1.429 . S
C728 C726 1.419 1_554 S
C728 C729 1.363 . S
C728 H731 0.929 . S
C729 C728 1.363 . S
C729 C735 1.428 . S
H730 C726 0.930 . S
H731 C728 0.929 . S
S732 N733 1.613 1_554 S
S732 N734 1.610 . S
N733 S732 1.613 1_556 S
N733 C736 1.350 . S
N734 S732 1.610 . S
N734 C735 1.351 . S
C735 C729 1.428 . S
C735 N734 1.351 . S
C735 C736 1.434 1_554 S
C736 C727 1.429 . S
C736 N733 1.350 . S
C736 C735 1.434 1_556 S
C737 C738 1.369 . S
C737 C739 1.419 . S
C737 H741 0.930 . S
C738 C737 1.369 . S
C738 C747 1.429 . S
C739 C737 1.419 . S
C739 C740 1.363 . S
C739 H742 0.929 . S
C740 C739 1.363 . S
C740 C746 1.428 . S
H741 C737 0.930 . S
H742 C739 0.929 . S
S743 N744 1.613 . S
S743 N745 1.610 . S
N744 S743 1.613 . S
N744 C747 1.350 . S
N745 S743 1.610 . S
N745 C746 1.351 . S
C746 C740 1.428 . S
C746 N745 1.351 . S
C746 C747 1.434 . S
C747 C738 1.429 . S
C747 N744 1.350 . S
C747 C746 1.434 . S
C748 C749 1.369 . S
C748 C750 1.419 1_556 S
C748 H752 0.930 . S
C749 C748 1.369 . S
C749 C758 1.429 . S
C750 C748 1.419 1_554 S
C750 C751 1.363 . S
C750 H753 0.929 . S
C751 C750 1.363 . S
C751 C757 1.428 . S
H752 C748 0.930 . S
H753 C750 0.929 . S
S754 N755 1.613 1_554 S
S754 N756 1.610 . S
N755 S754 1.613 1_556 S
N755 C758 1.350 . S
N756 S754 1.610 . S
N756 C757 1.351 . S
C757 C751 1.428 . S
C757 N756 1.351 . S
C757 C758 1.434 1_554 S
C758 C749 1.429 . S
C758 N755 1.350 . S
C758 C757 1.434 1_556 S
C759 C760 1.369 . S
C759 C761 1.419 . S
C759 H763 0.930 . S
C760 C759 1.369 . S
C760 C769 1.429 . S
C761 C759 1.419 . S
C761 C762 1.363 . S
C761 H764 0.929 . S
C762 C761 1.363 . S
C762 C768 1.428 . S
H763 C759 0.930 . S
H764 C761 0.929 . S
S765 N766 1.613 . S
S765 N767 1.610 . S
N766 S765 1.613 . S
N766 C769 1.350 . S
N767 S765 1.610 . S
N767 C768 1.351 . S
C768 C762 1.428 . S
C768 N767 1.351 . S
C768 C769 1.434 . S
C769 C760 1.429 . S
C769 N766 1.350 . S
C769 C768 1.434 . S
C770 C771 1.369 . S
C770 C772 1.419 1_554 S
C770 H774 0.930 . S
C771 C770 1.369 . S
C771 C780 1.429 . S
C772 C770 1.419 1_556 S
C772 C773 1.363 . S
C772 H775 0.929 . S
C773 C772 1.363 . S
C773 C779 1.428 . S
H774 C770 0.930 . S
H775 C772 0.929 . S
S776 N777 1.613 . S
S776 N778 1.610 1_554 S
N777 S776 1.613 . S
N777 C780 1.350 . S
N778 S776 1.610 1_556 S
N778 C779 1.351 . S
C779 C773 1.428 . S
C779 N778 1.351 . S
C779 C780 1.434 1_556 S
C780 C771 1.429 . S
C780 N777 1.350 . S
C780 C779 1.434 1_554 S
C781 C782 1.369 . S
C781 C783 1.419 . S
C781 H785 0.930 . S
C782 C781 1.369 . S
C782 C791 1.429 . S
C783 C781 1.419 . S
C783 C784 1.363 . S
C783 H786 0.929 . S
C784 C783 1.363 . S
C784 C790 1.428 . S
H785 C781 0.930 . S
H786 C783 0.929 . S
S787 N788 1.613 . S
S787 N789 1.610 . S
N788 S787 1.613 . S
N788 C791 1.350 . S
N789 S787 1.610 . S
N789 C790 1.351 . S
C790 C784 1.428 . S
C790 N789 1.351 . S
C790 C791 1.434 . S
C791 C782 1.429 . S
C791 N788 1.350 . S
C791 C790 1.434 . S
C792 C793 1.369 . S
C792 C794 1.419 . S
C792 H796 0.930 . S
C793 C792 1.369 . S
C793 C802 1.429 . S
C794 C792 1.419 . S
C794 C795 1.363 . S
C794 H797 0.929 . S
C795 C794 1.363 . S
C795 C801 1.428 . S
H796 C792 0.930 . S
H797 C794 0.929 . S
S798 N799 1.613 . S
S798 N800 1.610 . S
N799 S798 1.613 . S
N799 C802 1.350 . S
N800 S798 1.610 . S
N800 C801 1.351 . S
C801 C795 1.428 . S
C801 N800 1.351 . S
C801 C802 1.434 . S
C802 C793 1.429 . S
C802 N799 1.350 . S
C802 C801 1.434 . S
C803 C804 1.369 . S
C803 C805 1.419 . S
C803 H807 0.930 . S
C804 C803 1.369 . S
C804 C813 1.429 . S
C805 C803 1.419 . S
C805 C806 1.363 . S
C805 H808 0.929 . S
C806 C805 1.363 . S
C806 C812 1.428 . S
H807 C803 0.930 . S
H808 C805 0.929 . S
S809 N810 1.613 . S
S809 N811 1.610 . S
N810 S809 1.613 . S
N810 C813 1.350 . S
N811 S809 1.610 . S
N811 C812 1.351 . S
C812 C806 1.428 . S
C812 N811 1.351 . S
C812 C813 1.434 . S
C813 C804 1.429 . S
C813 N810 1.350 . S
C813 C812 1.434 . S
C814 C815 1.369 . S
C814 C816 1.419 . S
C814 H818 0.930 . S
C815 C814 1.369 . S
C815 C824 1.429 . S
C816 C814 1.419 . S
C816 C817 1.363 . S
C816 H819 0.929 . S
C817 C816 1.363 . S
C817 C823 1.428 . S
H818 C814 0.930 . S
H819 C816 0.929 . S
S820 N821 1.613 . S
S820 N822 1.610 . S
N821 S820 1.613 . S
N821 C824 1.350 . S
N822 S820 1.610 . S
N822 C823 1.351 . S
C823 C817 1.428 . S
C823 N822 1.351 . S
C823 C824 1.434 . S
C824 C815 1.429 . S
C824 N821 1.350 . S
C824 C823 1.434 . S
C825 C826 1.369 . S
C825 C827 1.419 . S
C825 H829 0.930 . S
C826 C825 1.369 . S
C826 C835 1.429 . S
C827 C825 1.419 . S
C827 C828 1.363 . S
C827 H830 0.929 . S
C828 C827 1.363 . S
C828 C834 1.428 . S
H829 C825 0.930 . S
H830 C827 0.929 . S
S831 N832 1.613 . S
S831 N833 1.610 . S
N832 S831 1.613 . S
N832 C835 1.350 . S
N833 S831 1.610 . S
N833 C834 1.351 . S
C834 C828 1.428 . S
C834 N833 1.351 . S
C834 C835 1.434 . S
C835 C826 1.429 . S
C835 N832 1.350 . S
C835 C834 1.434 . S
C836 C837 1.369 . S
C836 C838 1.419 . S
C836 H840 0.930 . S
C837 C836 1.369 . S
C837 C846 1.429 . S
C838 C836 1.419 . S
C838 C839 1.363 . S
C838 H841 0.929 . S
C839 C838 1.363 . S
C839 C845 1.428 . S
H840 C836 0.930 . S
H841 C838 0.929 . S
S842 N843 1.613 . S
S842 N844 1.610 . S
N843 S842 1.613 . S
N843 C846 1.350 . S
N844 S842 1.610 . S
N844 C845 1.351 . S
C845 C839 1.428 . S
C845 N844 1.351 . S
C845 C846 1.434 . S
C846 C837 1.429 . S
C846 N843 1.350 . S
C846 C845 1.434 . S
C847 C848 1.369 . S
C847 C849 1.419 . S
C847 H851 0.930 . S
C848 C847 1.369 . S
C848 C857 1.429 . S
C849 C847 1.419 . S
C849 C850 1.363 . S
C849 H852 0.929 . S
C850 C849 1.363 . S
C850 C856 1.428 . S
H851 C847 0.930 . S
H852 C849 0.929 . S
S853 N854 1.613 . S
S853 N855 1.610 . S
N854 S853 1.613 . S
N854 C857 1.350 . S
N855 S853 1.610 . S
N855 C856 1.351 . S
C856 C850 1.428 . S
C856 N855 1.351 . S
C856 C857 1.434 . S
C857 C848 1.429 . S
C857 N854 1.350 . S
C857 C856 1.434 . S
C858 C859 1.369 . S
C858 C860 1.419 . S
C858 H862 0.930 . S
C859 C858 1.369 . S
C859 C868 1.429 . S
C860 C858 1.419 . S
C860 C861 1.363 . S
C860 H863 0.929 . S
C861 C860 1.363 . S
C861 C867 1.428 . S
H862 C858 0.930 . S
H863 C860 0.929 . S
S864 N865 1.613 . S
S864 N866 1.610 . S
N865 S864 1.613 . S
N865 C868 1.350 . S
N866 S864 1.610 . S
N866 C867 1.351 . S
C867 C861 1.428 . S
C867 N866 1.351 . S
C867 C868 1.434 . S
C868 C859 1.429 . S
C868 N865 1.350 . S
C868 C867 1.434 . S
C869 C870 1.369 . S
C869 C871 1.419 . S
C869 H873 0.930 . S
C870 C869 1.369 . S
C870 C879 1.429 . S
C871 C869 1.419 . S
C871 C872 1.363 . S
C871 H874 0.929 . S
C872 C871 1.363 . S
C872 C878 1.428 . S
H873 C869 0.930 . S
H874 C871 0.929 . S
S875 N876 1.613 . S
S875 N877 1.610 . S
N876 S875 1.613 . S
N876 C879 1.350 . S
N877 S875 1.610 . S
N877 C878 1.351 . S
C878 C872 1.428 . S
C878 N877 1.351 . S
C878 C879 1.434 . S
C879 C870 1.429 . S
C879 N876 1.350 . S
C879 C878 1.434 . S
C880 C881 1.369 . S
C880 C882 1.419 . S
C880 H884 0.930 . S
C881 C880 1.369 . S
C881 C890 1.429 . S
C882 C880 1.419 . S
C882 C883 1.363 . S
C882 H885 0.929 . S
C883 C882 1.363 . S
C883 C889 1.428 . S
H884 C880 0.930 . S
H885 C882 0.929 . S
S886 N887 1.613 . S
S886 N888 1.610 . S
N887 S886 1.613 . S
N887 C890 1.350 . S
N888 S886 1.610 . S
N888 C889 1.351 . S
C889 C883 1.428 . S
C889 N888 1.351 . S
C889 C890 1.434 . S
C890 C881 1.429 . S
C890 N887 1.350 . S
C890 C889 1.434 . S
C891 C892 1.369 . S
C891 C893 1.419 . S
C891 H895 0.930 . S
C892 C891 1.369 . S
C892 C901 1.429 . S
C893 C891 1.419 . S
C893 C894 1.363 . S
C893 H896 0.929 . S
C894 C893 1.363 . S
C894 C900 1.428 . S
H895 C891 0.930 . S
H896 C893 0.929 . S
S897 N898 1.613 . S
S897 N899 1.610 . S
N898 S897 1.613 . S
N898 C901 1.350 . S
N899 S897 1.610 . S
N899 C900 1.351 . S
C900 C894 1.428 . S
C900 N899 1.351 . S
C900 C901 1.434 . S
C901 C892 1.429 . S
C901 N898 1.350 . S
C901 C900 1.434 . S
C902 C903 1.369 . S
C902 C904 1.419 . S
C902 H906 0.930 . S
C903 C902 1.369 . S
C903 C912 1.429 . S
C904 C902 1.419 . S
C904 C905 1.363 . S
C904 H907 0.929 . S
C905 C904 1.363 . S
C905 C911 1.428 . S
H906 C902 0.930 . S
H907 C904 0.929 . S
S908 N909 1.613 . S
S908 N910 1.610 . S
N909 S908 1.613 . S
N909 C912 1.350 . S
N910 S908 1.610 . S
N910 C911 1.351 . S
C911 C905 1.428 . S
C911 N910 1.351 . S
C911 C912 1.434 . S
C912 C903 1.429 . S
C912 N909 1.350 . S
C912 C911 1.434 . S
C913 C914 1.369 . S
C913 C915 1.419 . S
C913 H917 0.930 . S
C914 C913 1.369 . S
C914 C923 1.429 . S
C915 C913 1.419 . S
C915 C916 1.363 . S
C915 H918 0.929 . S
C916 C915 1.363 . S
C916 C922 1.428 . S
H917 C913 0.930 . S
H918 C915 0.929 . S
S919 N920 1.613 . S
S919 N921 1.610 . S
N920 S919 1.613 . S
N920 C923 1.350 . S
N921 S919 1.610 . S
N921 C922 1.351 . S
C922 C916 1.428 . S
C922 N921 1.351 . S
C922 C923 1.434 . S
C923 C914 1.429 . S
C923 N920 1.350 . S
C923 C922 1.434 . S
C924 C925 1.369 . S
C924 C926 1.419 . S
C924 H928 0.930 . S
C925 C924 1.369 . S
C925 C934 1.429 . S
C926 C924 1.419 . S
C926 C927 1.363 . S
C926 H929 0.929 . S
C927 C926 1.363 . S
C927 C933 1.428 . S
H928 C924 0.930 . S
H929 C926 0.929 . S
S930 N931 1.613 . S
S930 N932 1.610 . S
N931 S930 1.613 . S
N931 C934 1.350 . S
N932 S930 1.610 . S
N932 C933 1.351 . S
C933 C927 1.428 . S
C933 N932 1.351 . S
C933 C934 1.434 . S
C934 C925 1.429 . S
C934 N931 1.350 . S
C934 C933 1.434 . S
C935 C936 1.369 . S
C935 C937 1.419 . S
C935 H939 0.930 . S
C936 C935 1.369 . S
C936 C945 1.429 . S
C937 C935 1.419 . S
C937 C938 1.363 . S
C937 H940 0.929 . S
C938 C937 1.363 . S
C938 C944 1.428 . S
H939 C935 0.930 . S
H940 C937 0.929 . S
S941 N942 1.613 . S
S941 N943 1.610 . S
N942 S941 1.613 . S
N942 C945 1.350 . S
N943 S941 1.610 . S
N943 C944 1.351 . S
C944 C938 1.428 . S
C944 N943 1.351 . S
C944 C945 1.434 . S
C945 C936 1.429 . S
C945 N942 1.350 . S
C945 C944 1.434 . S
C946 C947 1.369 . S
C946 C948 1.419 . S
C946 H950 0.930 . S
C947 C946 1.369 . S
C947 C956 1.429 . S
C948 C946 1.419 . S
C948 C949 1.363 . S
C948 H951 0.929 . S
C949 C948 1.363 . S
C949 C955 1.428 . S
H950 C946 0.930 . S
H951 C948 0.929 . S
S952 N953 1.613 . S
S952 N954 1.610 . S
N953 S952 1.613 . S
N953 C956 1.350 . S
N954 S952 1.610 . S
N954 C955 1.351 . S
C955 C949 1.428 . S
C955 N954 1.351 . S
C955 C956 1.434 . S
C956 C947 1.429 . S
C956 N953 1.350 . S
C956 C955 1.434 . S
C957 C958 1.369 . S
C957 C959 1.419 . S
C957 H961 0.930 . S
C958 C957 1.369 . S
C958 C967 1.429 . S
C959 C957 1.419 . S
C959 C960 1.363 . S
C959 H962 0.929 . S
C960 C959 1.363 . S
C960 C966 1.428 . S
H961 C957 0.930 . S
H962 C959 0.929 . S
S963 N964 1.613 . S
S963 N965 1.610 . S
N964 S963 1.613 . S
N964 C967 1.350 . S
N965 S963 1.610 . S
N965 C966 1.351 . S
C966 C960 1.428 . S
C966 N965 1.351 . S
C966 C967 1.434 . S
C967 C958 1.429 . S
C967 N964 1.350 . S
C967 C966 1.434 . S
C529 N410 1.478 . S
C531 N5 1.478 . S
C540 N47 1.449 . S
C542 N434 1.458 . S
C551 N71 1.479 . S
C553 N476 1.479 . S
C562 N113 1.441 . S
C564 N500 1.463 . S
C573 N269 1.456 . S
C575 N146 1.448 . S
C584 N311 1.478 . S
C586 N170 1.479 . S
C595 N212 1.449 . S
C597 N335 1.457 . S
C606 N377 1.477 . S
C608 N236 1.479 . S
C617 C17 1.195 . S
C619 C479 1.193 . S
C628 C512 1.180 . S
C630 C50 1.174 . S
C639 C413 1.193 . S
C641 C83 1.195 . S
C650 C446 1.179 . S
C652 C116 1.174 . S
C661 C347 1.179 . S
C663 C149 1.176 . S
C672 C380 1.193 . S
C674 C182 1.195 . S
C683 C281 1.180 . S
C685 C215 1.174 . S
C694 C314 1.194 . S
C696 C248 1.194 . S
C705 C8 1.403 . S
C707 C358 1.469 . S
C716 C371 1.493 . S
C718 C61 1.443 . S
C727 C292 1.466 . S
C729 C74 1.393 . S
C738 C305 1.495 . S
C740 C127 1.440 . S
C749 C160 1.449 . S
C751 C470 1.497 . S
C760 C173 1.401 . S
C762 C523 1.467 . S
C771 C404 1.499 . S
C773 C226 1.447 . S
C782 C239 1.393 . S
C784 C457 1.468 . S
C793 N401 1.749 . S
C795 N14 1.739 . S
C804 N38 1.779 . S
C806 N443 1.775 . S
C815 N80 1.739 . S
C817 N467 1.750 . S
C826 N509 1.781 . S
C828 N104 1.773 . S
C837 N278 1.773 . S
C839 N137 1.779 . S
C848 N179 1.737 . S
C850 N302 1.752 . S
C859 N344 1.774 . S
C861 N203 1.778 . S
C870 N368 1.747 . S
C872 N245 1.741 . S
C881 C193 1.701 . S
C883 C28 1.693 . S
C892 C206 1.647 . S
C894 C41 1.638 . S
C903 C94 1.702 . S
C905 C259 1.696 . S
C914 C140 1.637 . S
C916 C107 1.639 . S
C925 C272 1.532 . S
C927 C437 1.521 . S
C936 C490 1.595 . S
C938 C325 1.595 . S
C947 C503 1.532 . S
C949 C338 1.521 . S
C958 C391 1.589 . S
C960 C424 1.601 . S
