# Generated by pormake.
# Topology whm, (6)-cn, num edge types: 1
# Building blocks:
#     Node 0, Type 0, BuildingBlock: IZENUY_clean_sbu_0, # of connection points: 6
#     Node 1, Type 0, BuildingBlock: IZENUY_clean_sbu_0, # of connection points: 6
#     Node 2, Type 0, BuildingBlock: IZENUY_clean_sbu_0, # of connection points: 6
#     Node 3, Type 0, BuildingBlock: IZENUY_clean_sbu_0, # of connection points: 6
#     Node 4, Type 0, BuildingBlock: IZENUY_clean_sbu_0, # of connection points: 6
#     Node 5, Type 0, BuildingBlock: IZENUY_clean_sbu_0, # of connection points: 6
#     Node 6, Type 0, BuildingBlock: IZENUY_clean_sbu_0, # of connection points: 6
#     Node 7, Type 0, BuildingBlock: IZENUY_clean_sbu_0, # of connection points: 6
#     Node 8, Type 0, BuildingBlock: IZENUY_clean_sbu_0, # of connection points: 6
#     Node 9, Type 0, BuildingBlock: IZENUY_clean_sbu_0, # of connection points: 6
#     Node 10, Type 0, BuildingBlock: IZENUY_clean_sbu_0, # of connection points: 6
#     Node 11, Type 0, BuildingBlock: IZENUY_clean_sbu_0, # of connection points: 6
#     Node 12, Type 0, BuildingBlock: IZENUY_clean_sbu_0, # of connection points: 6
#     Node 13, Type 0, BuildingBlock: IZENUY_clean_sbu_0, # of connection points: 6
#     Node 14, Type 0, BuildingBlock: IZENUY_clean_sbu_0, # of connection points: 6
#     Node 15, Type 0, BuildingBlock: IZENUY_clean_sbu_0, # of connection points: 6
#     Edge 16, Type (0, 0), BuildingBlock: EZIPEK_clean_linker_0, # of connection points: 2
#     Edge 17, Type (0, 0), BuildingBlock: EZIPEK_clean_linker_0, # of connection points: 2
#     Edge 18, Type (0, 0), BuildingBlock: EZIPEK_clean_linker_0, # of connection points: 2
#     Edge 19, Type (0, 0), BuildingBlock: EZIPEK_clean_linker_0, # of connection points: 2
#     Edge 20, Type (0, 0), BuildingBlock: EZIPEK_clean_linker_0, # of connection points: 2
#     Edge 21, Type (0, 0), BuildingBlock: EZIPEK_clean_linker_0, # of connection points: 2
#     Edge 22, Type (0, 0), BuildingBlock: EZIPEK_clean_linker_0, # of connection points: 2
#     Edge 23, Type (0, 0), BuildingBlock: EZIPEK_clean_linker_0, # of connection points: 2
#     Edge 24, Type (0, 0), BuildingBlock: EZIPEK_clean_linker_0, # of connection points: 2
#     Edge 25, Type (0, 0), BuildingBlock: EZIPEK_clean_linker_0, # of connection points: 2
#     Edge 26, Type (0, 0), BuildingBlock: EZIPEK_clean_linker_0, # of connection points: 2
#     Edge 27, Type (0, 0), BuildingBlock: EZIPEK_clean_linker_0, # of connection points: 2
#     Edge 28, Type (0, 0), BuildingBlock: EZIPEK_clean_linker_0, # of connection points: 2
#     Edge 29, Type (0, 0), BuildingBlock: EZIPEK_clean_linker_0, # of connection points: 2
#     Edge 30, Type (0, 0), BuildingBlock: EZIPEK_clean_linker_0, # of connection points: 2
#     Edge 31, Type (0, 0), BuildingBlock: EZIPEK_clean_linker_0, # of connection points: 2
#     Edge 32, Type (0, 0), BuildingBlock: EZIPEK_clean_linker_0, # of connection points: 2
#     Edge 33, Type (0, 0), BuildingBlock: EZIPEK_clean_linker_0, # of connection points: 2
#     Edge 34, Type (0, 0), BuildingBlock: EZIPEK_clean_linker_0, # of connection points: 2
#     Edge 35, Type (0, 0), BuildingBlock: EZIPEK_clean_linker_0, # of connection points: 2
#     Edge 36, Type (0, 0), BuildingBlock: EZIPEK_clean_linker_0, # of connection points: 2
#     Edge 37, Type (0, 0), BuildingBlock: EZIPEK_clean_linker_0, # of connection points: 2
#     Edge 38, Type (0, 0), BuildingBlock: EZIPEK_clean_linker_0, # of connection points: 2
#     Edge 39, Type (0, 0), BuildingBlock: EZIPEK_clean_linker_0, # of connection points: 2
#     Edge 40, Type (0, 0), BuildingBlock: EZIPEK_clean_linker_0, # of connection points: 2
#     Edge 41, Type (0, 0), BuildingBlock: EZIPEK_clean_linker_0, # of connection points: 2
#     Edge 42, Type (0, 0), BuildingBlock: EZIPEK_clean_linker_0, # of connection points: 2
#     Edge 43, Type (0, 0), BuildingBlock: EZIPEK_clean_linker_0, # of connection points: 2
#     Edge 44, Type (0, 0), BuildingBlock: EZIPEK_clean_linker_0, # of connection points: 2
#     Edge 45, Type (0, 0), BuildingBlock: EZIPEK_clean_linker_0, # of connection points: 2
#     Edge 46, Type (0, 0), BuildingBlock: EZIPEK_clean_linker_0, # of connection points: 2
#     Edge 47, Type (0, 0), BuildingBlock: EZIPEK_clean_linker_0, # of connection points: 2
#     Edge 48, Type (0, 0), BuildingBlock: EZIPEK_clean_linker_0, # of connection points: 2
#     Edge 49, Type (0, 0), BuildingBlock: EZIPEK_clean_linker_0, # of connection points: 2
#     Edge 50, Type (0, 0), BuildingBlock: EZIPEK_clean_linker_0, # of connection points: 2
#     Edge 51, Type (0, 0), BuildingBlock: EZIPEK_clean_linker_0, # of connection points: 2
#     Edge 52, Type (0, 0), BuildingBlock: EZIPEK_clean_linker_0, # of connection points: 2
#     Edge 53, Type (0, 0), BuildingBlock: EZIPEK_clean_linker_0, # of connection points: 2
#     Edge 54, Type (0, 0), BuildingBlock: EZIPEK_clean_linker_0, # of connection points: 2
#     Edge 55, Type (0, 0), BuildingBlock: EZIPEK_clean_linker_0, # of connection points: 2
#     Edge 56, Type (0, 0), BuildingBlock: EZIPEK_clean_linker_0, # of connection points: 2
#     Edge 57, Type (0, 0), BuildingBlock: EZIPEK_clean_linker_0, # of connection points: 2
#     Edge 58, Type (0, 0), BuildingBlock: EZIPEK_clean_linker_0, # of connection points: 2
#     Edge 59, Type (0, 0), BuildingBlock: EZIPEK_clean_linker_0, # of connection points: 2
#     Edge 60, Type (0, 0), BuildingBlock: EZIPEK_clean_linker_0, # of connection points: 2
#     Edge 61, Type (0, 0), BuildingBlock: EZIPEK_clean_linker_0, # of connection points: 2
#     Edge 62, Type (0, 0), BuildingBlock: EZIPEK_clean_linker_0, # of connection points: 2
#     Edge 63, Type (0, 0), BuildingBlock: EZIPEK_clean_linker_0, # of connection points: 2
# Relax obj value: 0.317
# Max RMSD: 0.231
# Mean RMSD: 0.231
data_MOF--net-whm--node1-IZENUY_clean_sbu_0--edge1-EZIPEK_clean_linker_0
_symmetry_space_group_name_H-M    P1
_symmetry_Int_Tables_number       1
_symmetry_cell_setting            triclinic
loop_
_symmetry_equiv_pos_as_xyz
'x, y, z'
_cell_length_a     37.699352
_cell_length_b     37.682068
_cell_length_c     21.095046
_cell_angle_alpha  90.10774
_cell_angle_beta   89.780391
_cell_angle_gamma 89.499388
loop_
_atom_site_label
_atom_site_type_symbol
_atom_site_fract_x
_atom_site_fract_y
_atom_site_fract_z
_atom_type_partial_charge
Fe0 Fe 0.53927 0.18816 0.22645 0.0
Fe1 Fe 0.57621 0.11567 0.19795 0.0
O2 O 0.57233 0.16252 0.18525 0.0
Fe3 Fe 0.60255 0.18442 0.13324 0.0
O4 O 0.61781 0.2134 0.19603 0.0
O5 O 0.56584 0.2287 0.23389 0.0
O6 O 0.55609 0.17365 0.30423 0.0
C7 C 0.56052 0.14164 0.32166 0.0
C8 C 0.53664 0.21936 0.10777 0.0
O9 O 0.56556 0.11773 0.28104 0.0
C10 C 0.59104 0.12281 0.0659 0.0
O11 O 0.50615 0.1532 0.22874 0.0
O12 O 0.52961 0.10744 0.17895 0.0
O13 O 0.57006 0.21702 0.10454 0.0
O14 O 0.51955 0.20424 0.15194 0.0
C15 C 0.64734 0.13546 0.19511 0.0
O16 O 0.58834 0.10497 0.11623 0.0
O17 O 0.59087 0.15637 0.06632 0.0
C18 C 0.50378 0.12194 0.20817 0.0
O19 O 0.62247 0.11886 0.2216 0.0
O20 O 0.64102 0.15713 0.1514 0.0
C21 C 0.59876 0.23403 0.2286 0.0
Fe22 Fe 0.33951 0.53978 0.71813 0.0
Fe23 Fe 0.40937 0.57544 0.68306 0.0
O24 O 0.36263 0.57284 0.67615 0.0
Fe25 Fe 0.33887 0.60401 0.62973 0.0
O26 O 0.31286 0.61901 0.69715 0.0
O27 O 0.299 0.56617 0.72964 0.0
O28 O 0.35545 0.55813 0.79365 0.0
C29 C 0.3879 0.56173 0.80793 0.0
C30 C 0.30402 0.53911 0.60421 0.0
O31 O 0.41104 0.55891 0.76491 0.0
C32 C 0.39645 0.59533 0.55421 0.0
O33 O 0.37626 0.50703 0.71585 0.0
O34 O 0.41539 0.53056 0.65249 0.0
O35 O 0.3048 0.57264 0.60517 0.0
O36 O 0.32165 0.52078 0.64413 0.0
C37 C 0.39051 0.64579 0.6901 0.0
O38 O 0.41619 0.59319 0.60262 0.0
O39 O 0.36341 0.59148 0.55904 0.0
C40 C 0.40448 0.50385 0.68312 0.0
O41 O 0.40634 0.61999 0.71559 0.0
O42 O 0.36838 0.64121 0.64627 0.0
C43 C 0.2946 0.59942 0.73246 0.0
Fe44 Fe 0.93651 0.40941 0.19736 0.0
Fe45 Fe 0.91854 0.34096 0.12578 0.0
O46 O 0.94533 0.36366 0.18187 0.0
Fe47 Fe 0.97933 0.34071 0.22393 0.0
O48 O 0.97058 0.3645 0.29921 0.0
O49 O 0.92585 0.40041 0.27832 0.0
O50 O 0.88893 0.40696 0.18227 0.0
C51 C 0.86837 0.38087 0.18579 0.0
C52 C 0.01198 0.40532 0.21487 0.0
O53 O 0.87858 0.35016 0.171 0.0
C54 C 0.98348 0.31172 0.09655 0.0
O55 O 0.94561 0.42173 0.11598 0.0
O56 O 0.91179 0.38002 0.07532 0.0
O57 O 0.01379 0.37254 0.20184 0.0
O58 O 0.98227 0.42093 0.21858 0.0
C59 C 0.92849 0.28833 0.21986 0.0
O60 O 0.9567 0.32909 0.07736 0.0
O61 O 0.99246 0.31274 0.15477 0.0
C62 C 0.92727 0.40961 0.07109 0.0
O63 O 0.91956 0.29797 0.16506 0.0
O64 O 0.94918 0.3069 0.25254 0.0
C65 C 0.94557 0.38494 0.31745 0.0
Fe66 Fe 0.11295 0.94181 0.68087 0.0
Fe67 Fe 0.18479 0.91846 0.6227 0.0
O68 O 0.15946 0.94786 0.6713 0.0
Fe69 Fe 0.18013 0.98302 0.71333 0.0
O70 O 0.166 0.96326 0.7898 0.0
O71 O 0.11125 0.95919 0.76068 0.0
O72 O 0.11994 0.89767 0.71335 0.0
C73 C 0.13858 0.87288 0.68984 0.0
C74 C 0.11177 0.01316 0.68097 0.0
O75 O 0.16087 0.87873 0.64641 0.0
C76 C 0.21332 0.98696 0.59517 0.0
O77 O 0.10467 0.92296 0.60367 0.0
O78 O 0.15608 0.92583 0.55505 0.0
O79 O 0.14065 0.01288 0.712 0.0
O80 O 0.10335 0.98595 0.64931 0.0
C81 C 0.23308 0.92878 0.71842 0.0
O82 O 0.21325 0.95339 0.59175 0.0
O83 O 0.19638 1.00357 0.63888 0.0
C84 C 0.12314 0.92046 0.55448 0.0
O85 O 0.21598 0.90738 0.68486 0.0
O86 O 0.2229 0.96061 0.72429 0.0
C87 C 0.13387 0.95631 0.80301 0.0
Fe88 Fe 0.60079 0.3408 0.8809 0.0
Fe89 Fe 0.53829 0.3418 0.78749 0.0
O90 O 0.57263 0.36473 0.82853 0.0
Fe91 Fe 0.57884 0.41115 0.81733 0.0
O92 O 0.62495 0.40536 0.79343 0.0
O93 O 0.64087 0.36646 0.86526 0.0
O94 O 0.61537 0.31091 0.81915 0.0
C95 C 0.59522 0.29209 0.78618 0.0
C96 C 0.58928 0.40182 0.95071 0.0
O97 O 0.56242 0.29912 0.7823 0.0
C98 C 0.50717 0.41104 0.80529 0.0
O99 O 0.5664 0.31037 0.90718 0.0
O100 O 0.51671 0.32847 0.86249 0.0
O101 O 0.59126 0.42031 0.90063 0.0
O102 O 0.58835 0.36856 0.94652 0.0
C103 C 0.56546 0.38441 0.6934 0.0
O104 O 0.50803 0.38022 0.78145 0.0
O105 O 0.53289 0.42171 0.8382 0.0
C106 C 0.53296 0.31168 0.90607 0.0
O107 O 0.55766 0.35329 0.71093 0.0
O108 O 0.5684 0.40967 0.73257 0.0
C109 C 0.64862 0.38753 0.82115 0.0
Fe110 Fe 0.17784 0.5411 0.28002 0.0
Fe111 Fe 0.11024 0.58711 0.3022 0.0
O112 O 0.15575 0.57746 0.31753 0.0
Fe113 Fe 0.17971 0.60555 0.36973 0.0
O114 O 0.22272 0.59966 0.33185 0.0
O115 O 0.21161 0.56956 0.24593 0.0
O116 O 0.15417 0.54628 0.20406 0.0
C117 C 0.13392 0.57037 0.18248 0.0
C118 C 0.20452 0.5407 0.40887 0.0
O119 O 0.11794 0.59178 0.21859 0.0
C120 C 0.11193 0.60312 0.42807 0.0
O121 O 0.14564 0.50876 0.30772 0.0
O122 O 0.09719 0.5404 0.29078 0.0
O123 O 0.18844 0.56919 0.42373 0.0
O124 O 0.20552 0.53049 0.35104 0.0
C125 C 0.14319 0.65447 0.30036 0.0
O126 O 0.0984 0.58364 0.38592 0.0
O127 O 0.14145 0.6178 0.41878 0.0
C128 C 0.1128 0.51061 0.29625 0.0
O129 O 0.11557 0.63577 0.30725 0.0
O130 O 0.17308 0.64332 0.31813 0.0
C131 C 0.23058 0.591 0.27593 0.0
Fe132 Fe 0.93151 0.1089 0.80778 0.0
Fe133 Fe 0.91496 0.17744 0.88085 0.0
O134 O 0.94177 0.15382 0.82534 0.0
Fe135 Fe 0.97767 0.17492 0.78549 0.0
O136 O 0.97098 0.15079 0.70976 0.0
O137 O 0.92252 0.11994 0.72654 0.0
O138 O 0.88367 0.11299 0.82209 0.0
C139 C 0.86381 0.13998 0.81846 0.0
C140 C 1.0075 0.10937 0.79533 0.0
O141 O 0.8749 0.16994 0.83503 0.0
C142 C 0.98031 0.20451 0.91201 0.0
O143 O 0.93919 0.09499 0.88852 0.0
O144 O 0.90724 0.13835 0.93126 0.0
O145 O 1.01004 0.14155 0.81162 0.0
O146 O 0.97722 0.0958 0.78837 0.0
C147 C 0.92787 0.22925 0.78609 0.0
O148 O 0.95289 0.18819 0.93049 0.0
O149 O 0.98992 0.20289 0.85424 0.0
C150 C 0.92159 0.10779 0.93418 0.0
O151 O 0.91748 0.22006 0.84054 0.0
O152 O 0.94913 0.21 0.75455 0.0
C153 C 0.94497 0.13293 0.68916 0.0
Fe154 Fe 0.41393 0.93942 0.3108 0.0
Fe155 Fe 0.34305 0.91412 0.36552 0.0
O156 O 0.36672 0.94492 0.31749 0.0
Fe157 Fe 0.34377 0.97924 0.27524 0.0
O158 O 0.36899 0.97091 0.20084 0.0
O159 O 0.41113 0.93222 0.22723 0.0
O160 O 0.41374 0.8911 0.3201 0.0
C161 C 0.39006 0.86957 0.30392 0.0
C162 C 0.40654 0.01436 0.2937 0.0
O163 O 0.35796 0.87717 0.3153 0.0
C164 C 0.3109 0.97846 0.39974 0.0
O165 O 0.4202 0.94559 0.39563 0.0
O166 O 0.37919 0.90723 0.42263 0.0
O167 O 0.37346 0.01418 0.30034 0.0
O168 O 0.42438 0.98603 0.2964 0.0
C169 C 0.29202 0.92722 0.26936 0.0
O170 O 0.32549 0.94941 0.41674 0.0
O171 O 0.31523 0.99101 0.34405 0.0
C172 C 0.40712 0.92416 0.43546 0.0
O173 O 0.30224 0.91377 0.32047 0.0
O174 O 0.31011 0.95057 0.2424 0.0
C175 C 0.39362 0.94893 0.18636 0.0
Fe176 Fe 0.4436 0.90642 0.80341 0.0
Fe177 Fe 0.48256 0.83566 0.77354 0.0
O178 O 0.44873 0.85975 0.81454 0.0
Fe179 Fe 0.4188 0.83675 0.86514 0.0
O180 O 0.38002 0.86513 0.84925 0.0
O181 O 0.39842 0.90135 0.77596 0.0
O182 O 0.45609 0.90617 0.72045 0.0
C183 C 0.46071 0.88233 0.67937 0.0
C184 C 0.42831 0.89633 0.93565 0.0
O185 O 0.46531 0.85029 0.69638 0.0
C186 C 0.48473 0.80212 0.88962 0.0
O187 O 0.48942 0.91593 0.82554 0.0
O188 O 0.51467 0.87194 0.77346 0.0
O189 O 0.43147 0.86312 0.93259 0.0
O190 O 0.42894 0.91527 0.8859 0.0
C191 C 0.42425 0.78795 0.77073 0.0
O192 O 0.50219 0.81893 0.84785 0.0
O193 O 0.45135 0.80388 0.89144 0.0
C194 C 0.51589 0.90309 0.7955 0.0
O195 O 0.45684 0.79481 0.76462 0.0
O196 O 0.4039 0.80826 0.80153 0.0
C197 C 0.37349 0.88627 0.80464 0.0
Fe198 Fe 0.61525 0.43842 0.32236 0.0
Fe199 Fe 0.68237 0.48212 0.28892 0.0
O200 O 0.66128 0.44698 0.33156 0.0
Fe201 Fe 0.68597 0.4193 0.38386 0.0
O202 O 0.6764 0.37989 0.33813 0.0
O203 O 0.61923 0.38998 0.33343 0.0
O204 O 0.62077 0.43017 0.23929 0.0
C205 C 0.63584 0.44934 0.19845 0.0
C206 C 0.62036 0.42709 0.44927 0.0
O207 O 0.6574 0.47372 0.21425 0.0
C208 C 0.71294 0.48499 0.41478 0.0
O209 O 0.60235 0.48424 0.30547 0.0
O210 O 0.65048 0.51584 0.31491 0.0
O211 O 0.64912 0.4108 0.43806 0.0
O212 O 0.60631 0.44617 0.40678 0.0
C213 C 0.73541 0.4311 0.28581 0.0
O214 O 0.71102 0.49524 0.35715 0.0
O215 O 0.69802 0.45677 0.43261 0.0
C216 C 0.6176 0.51395 0.30546 0.0
O217 O 0.71646 0.45309 0.25641 0.0
O218 O 0.72737 0.4214 0.34085 0.0
C219 C 0.64567 0.36936 0.32556 0.0
Fe220 Fe 0.10601 0.68343 0.86833 0.0
Fe221 Fe 0.08258 0.61319 0.80314 0.0
O222 O 0.07629 0.65982 0.81782 0.0
Fe223 Fe 0.04071 0.68374 0.78039 0.0
O224 O 0.06332 0.72651 0.77562 0.0
O225 O 0.11728 0.71488 0.80682 0.0
O226 O 0.14581 0.65943 0.84491 0.0
C227 C 0.15249 0.63584 0.80441 0.0
C228 C 0.03809 0.7124 0.90092 0.0
O229 O 0.1285 0.6178 0.77944 0.0
C230 C 1.00999 0.61508 0.79387 0.0
O231 O 0.09864 0.65408 0.93492 0.0
O232 O 0.09496 0.60253 0.88503 0.0
O233 O 0.02107 0.69672 0.85726 0.0
O234 O 0.07158 0.71239 0.90161 0.0
C235 C 0.06716 0.6413 0.6815 0.0
O236 O 0.03675 0.60205 0.82177 0.0
O237 O 1.01009 0.64683 0.77614 0.0
C238 C 0.09903 0.62062 0.93507 0.0
O239 O 0.07252 0.6162 0.71971 0.0
O240 O 0.05797 0.67218 0.70091 0.0
C241 C 0.09553 0.73473 0.77894 0.0
Fe242 Fe 0.83987 0.1052 0.37969 0.0
Fe243 Fe 0.90815 0.07877 0.30956 0.0
O244 O 0.86138 0.07599 0.32401 0.0
Fe245 Fe 0.83591 0.04478 0.27978 0.0
O246 O 0.79484 0.07055 0.2778 0.0
O247 O 0.8074 0.12118 0.32299 0.0
O248 O 0.8653 0.14452 0.35963 0.0
C249 C 0.88791 0.15042 0.31701 0.0
C250 C 0.80646 0.03814 0.40029 0.0
O251 O 0.90451 0.12544 0.29002 0.0
C252 C 0.90281 1.00768 0.2924 0.0
O253 O 0.86987 0.09334 0.44311 0.0
O254 O 0.92022 0.08948 0.39031 0.0
O255 O 0.82039 0.02222 0.35263 0.0
O256 O 0.81023 0.07108 0.40909 0.0
C257 C 0.88075 0.07174 0.18638 0.0
O258 O 0.91618 0.03192 0.32619 0.0
O259 O 0.87173 0.01149 0.27099 0.0
C260 C 0.90325 0.09323 0.44121 0.0
O261 O 0.9056 0.06888 0.22553 0.0
O262 O 0.84896 0.0665 0.20442 0.0
C263 C 0.78736 0.10237 0.28988 0.0
Fe264 Fe 0.43382 0.60811 0.18884 0.0
Fe265 Fe 0.47773 0.67677 0.21065 0.0
O266 O 0.44275 0.65347 0.17091 0.0
Fe267 Fe 0.41527 0.6757 0.11359 0.0
O268 O 0.37517 0.66822 0.15996 0.0
O269 O 0.38583 0.61185 0.17948 0.0
O270 O 0.42716 0.61804 0.27257 0.0
C271 C 0.44587 0.63667 0.30935 0.0
C272 C 0.42231 0.60641 0.0612 0.0
O273 O 0.46922 0.65762 0.28889 0.0
C274 C 0.48164 0.70085 0.07996 0.0
O275 O 0.47941 0.59523 0.20266 0.0
O276 O 0.51195 0.64272 0.19565 0.0
O277 O 0.40727 0.63635 0.06489 0.0
O278 O 0.43984 0.59401 0.10694 0.0
C279 C 0.42656 0.73033 0.20251 0.0
O280 O 0.49155 0.70074 0.13773 0.0
O281 O 0.45327 0.68555 0.06343 0.0
C282 C 0.50909 0.60973 0.20657 0.0
O283 O 0.44835 0.71286 0.23506 0.0
O284 O 0.4168 0.71966 0.14905 0.0
C285 C 0.36495 0.63816 0.17827 0.0
Fe286 Fe 0.90803 0.43968 0.69644 0.0
Fe287 Fe 0.83775 0.47708 0.73166 0.0
O288 O 0.86113 0.44422 0.68692 0.0
Fe289 Fe 0.83669 0.415 0.63676 0.0
O290 O 0.86206 0.37499 0.65426 0.0
O291 O 0.90443 0.39314 0.71718 0.0
O292 O 0.90767 0.44984 0.78054 0.0
C293 C 0.88348 0.44801 0.82154 0.0
C294 C 0.89797 0.4241 0.56589 0.0
O295 O 0.85152 0.45506 0.8062 0.0
C296 C 0.80618 0.48369 0.61426 0.0
O297 O 0.91671 0.48616 0.67841 0.0
O298 O 0.87437 0.50843 0.7376 0.0
O299 O 0.86442 0.4244 0.56809 0.0
O300 O 0.91679 0.42847 0.61436 0.0
C301 C 0.79018 0.42111 0.73834 0.0
O302 O 0.82248 0.49958 0.65887 0.0
O303 O 0.80628 0.4501 0.61011 0.0
C304 C 0.90463 0.5111 0.71276 0.0
O305 O 0.79589 0.45378 0.73666 0.0
O306 O 0.80731 0.40126 0.70107 0.0
C307 C 0.88649 0.36856 0.69301 0.0
Fe308 Fe 0.0483 0.83906 0.21349 0.0
Fe309 Fe 0.10687 0.84399 0.11093 0.0
O310 O 0.07824 0.86501 0.16759 0.0
Fe311 Fe 0.08068 0.91169 0.18242 0.0
O312 O 0.0712 0.90842 0.26626 0.0
O313 O 0.07195 0.85175 0.28624 0.0
O314 O 0.07436 0.79812 0.21337 0.0
C315 C 0.1065 0.79186 0.20207 0.0
C316 C 1.00984 0.90522 0.20155 0.0
O317 O 0.1243 0.81199 0.16729 0.0
C318 C 0.09485 0.90744 0.05067 0.0
O319 O 0.02436 0.82397 0.14253 0.0
O320 O 0.07236 0.81378 0.08352 0.0
O321 O 0.03359 0.91907 0.16694 0.0
O322 O 0.0149 0.87464 0.22479 0.0
C323 C 0.15222 0.89228 0.17241 0.0
O324 O 0.0937 0.87403 0.04853 0.0
O325 O 0.09109 0.92428 0.10167 0.0
C326 C 0.03944 0.81013 0.0941 0.0
O327 O 0.14609 0.87013 0.12909 0.0
O328 O 0.12743 0.90822 0.2011 0.0
C329 C 0.07747 0.88346 0.30371 0.0
Fe330 Fe 0.60763 0.0895 0.69263 0.0
Fe331 Fe 0.67601 0.04751 0.72208 0.0
O332 O 0.65326 0.0805 0.67835 0.0
Fe333 Fe 0.677 0.10663 0.62226 0.0
O334 O 0.66887 0.14643 0.66842 0.0
O335 O 0.61159 0.1374 0.67958 0.0
O336 O 0.61478 0.0995 0.77484 0.0
C337 C 0.63013 0.07998 0.81438 0.0
C338 C 0.60886 0.10005 0.566 0.0
O339 O 0.65124 0.0555 0.79664 0.0
C340 C 0.7053 0.04215 0.59407 0.0
O341 O 0.59603 0.04313 0.71171 0.0
O342 O 0.64558 0.01228 0.69959 0.0
O343 O 0.63824 0.11564 0.57184 0.0
O344 O 0.59655 0.08119 0.61019 0.0
C345 C 0.72767 0.09828 0.71845 0.0
O346 O 0.70515 0.03433 0.65325 0.0
O347 O 0.68701 0.06808 0.57397 0.0
C348 C 0.61255 0.01365 0.71049 0.0
O349 O 0.70709 0.08002 0.75157 0.0
O350 O 0.72067 0.10322 0.66078 0.0
C351 C 0.63843 0.1571 0.6846 0.0
C352 C 0.60436 0.2773 0.31978 0.0
C353 C 0.61467 0.26645 0.25773 0.0
C354 C 0.65669 0.31584 0.25505 0.0
C355 C 0.63959 0.3314 0.30863 0.0
N356 N 0.59857 0.32507 0.39606 0.0
N357 N 0.64774 0.27975 0.16194 0.0
C358 C 0.61366 0.31162 0.34202 0.0
C359 C 0.64042 0.28661 0.22435 0.0
N360 N 0.58788 0.25394 0.35921 0.0
N361 N 0.68813 0.32867 0.23284 0.0
H362 H 0.6335 0.26188 0.13455 0.0
H363 H 0.66518 0.29484 0.13495 0.0
H364 H 0.70121 0.35011 0.2528 0.0
H365 H 0.70298 0.31573 0.19785 0.0
H366 H 0.58248 0.25924 0.40677 0.0
H367 H 0.584 0.22759 0.34668 0.0
H368 H 0.57612 0.31421 0.41717 0.0
H369 H 0.60794 0.34766 0.4189 0.0
C370 C 0.24311 0.59126 0.80678 0.0
C371 C 0.26234 0.61383 0.76568 0.0
C372 C 0.21056 0.65306 0.75645 0.0
C373 C 0.19002 0.62778 0.78979 0.0
N374 N 0.18591 0.57178 0.84488 0.0
N375 N 0.26941 0.67489 0.73386 0.0
C376 C 0.20608 0.59665 0.81483 0.0
C377 C 0.24768 0.64745 0.74975 0.0
N378 N 0.26098 0.56661 0.84211 0.0
N379 N 0.19432 0.68158 0.72856 0.0
H380 H 0.29688 0.67335 0.73873 0.0
H381 H 0.2603 0.70067 0.72606 0.0
H382 H 0.16703 0.68614 0.73123 0.0
H383 H 0.20733 0.69875 0.69779 0.0
H384 H 0.24915 0.55127 0.87719 0.0
H385 H 0.28862 0.56506 0.84232 0.0
H386 H 0.19543 0.54673 0.85728 0.0
H387 H 0.15887 0.5751 0.85363 0.0
C388 C 0.89515 0.19304 0.22771 0.0
C389 C 0.89344 0.18734 0.29394 0.0
C390 C 0.90471 0.25078 0.30961 0.0
C391 C 0.91523 0.25382 0.24499 0.0
N392 N 0.92556 0.22361 0.14441 0.0
N393 N 0.89768 0.21211 0.39987 0.0
C394 C 0.91175 0.22385 0.20434 0.0
C395 C 0.89837 0.21658 0.33568 0.0
N396 N 0.87945 0.16985 0.18691 0.0
N397 N 0.89854 0.28052 0.3452 0.0
H398 H 0.89156 0.18826 0.42181 0.0
H399 H 0.90558 0.23181 0.43145 0.0
H400 H 0.90009 0.30604 0.32658 0.0
H401 H 0.88769 0.2798 0.39069 0.0
H402 H 0.87754 0.17457 0.13833 0.0
H403 H 0.86493 0.14811 0.20265 0.0
H404 H 0.92612 0.20084 0.11618 0.0
H405 H 0.93995 0.24443 0.12542 0.0
C406 C 0.30804 0.87176 0.7872 0.0
C407 C 0.33615 0.89686 0.78998 0.0
C408 C 0.29751 0.94089 0.74087 0.0
C409 C 0.26817 0.91766 0.7448 0.0
N410 N 0.24436 0.86357 0.78844 0.0
N411 N 0.35134 0.95916 0.79163 0.0
C412 C 0.273 0.88384 0.77321 0.0
C413 C 0.32887 0.93268 0.7741 0.0
N414 N 0.31459 0.83632 0.79436 0.0
N415 N 0.29679 0.96942 0.70143 0.0
H416 H 0.37321 0.95478 0.82083 0.0
H417 H 0.34542 0.98591 0.78402 0.0
H418 H 0.27623 0.97341 0.6696 0.0
H419 H 0.31884 0.98543 0.69382 0.0
H420 H 0.29544 0.81708 0.78614 0.0
H421 H 0.33971 0.82572 0.80204 0.0
H422 H 0.24648 0.84014 0.81441 0.0
H423 H 0.2183 0.87209 0.78147 0.0
C424 C 0.61945 0.23047 0.80078 0.0
C425 C 0.60934 0.25849 0.7594 0.0
C426 C 0.62288 0.22097 0.66713 0.0
C427 C 0.63332 0.19342 0.70877 0.0
N428 N 0.65092 0.17454 0.81302 0.0
N429 N 0.60866 0.28336 0.65413 0.0
C430 C 0.63462 0.19905 0.77498 0.0
C431 C 0.61316 0.25461 0.6927 0.0
N432 N 0.61306 0.23313 0.86445 0.0
N433 N 0.62187 0.21473 0.60332 0.0
H434 H 0.60199 0.30839 0.6715 0.0
H435 H 0.61441 0.28326 0.60583 0.0
H436 H 0.63123 0.19116 0.583 0.0
H437 H 0.61033 0.23206 0.57085 0.0
H438 H 0.61571 0.2119 0.89567 0.0
H439 H 0.6023 0.25572 0.88568 0.0
H440 H 0.65561 0.17855 0.86111 0.0
H441 H 0.66308 0.15163 0.79513 0.0
C442 C 0.29922 0.62967 0.16134 0.0
C443 C 0.32857 0.63262 0.20261 0.0
C444 C 0.29512 0.60413 0.28711 0.0
C445 C 0.26443 0.60392 0.24851 0.0
N446 N 0.23536 0.62531 0.15372 0.0
N447 N 0.34951 0.63431 0.30965 0.0
C448 C 0.26584 0.61915 0.18673 0.0
C449 C 0.32489 0.62347 0.26705 0.0
N450 N 0.30331 0.6361 0.0981 0.0
N451 N 0.29667 0.58462 0.34159 0.0
H452 H 0.37005 0.65096 0.29608 0.0
H453 H 0.34643 0.6309 0.35836 0.0
H454 H 0.27633 0.56796 0.35609 0.0
H455 H 0.3198 0.58175 0.36813 0.0
H456 H 0.28375 0.63052 0.06483 0.0
H457 H 0.32716 0.64486 0.07863 0.0
H458 H 0.23468 0.63925 0.11112 0.0
H459 H 0.21038 0.61954 0.17194 0.0
C460 C 0.89674 0.30239 0.67229 0.0
C461 C 0.89272 0.33148 0.71503 0.0
C462 C 0.91319 0.29423 0.80226 0.0
C463 C 0.91583 0.26438 0.76089 0.0
N464 N 0.89963 0.23856 0.66005 0.0
N465 N 0.88221 0.34923 0.82336 0.0
C466 C 0.90468 0.26799 0.69676 0.0
C467 C 0.89637 0.3256 0.78085 0.0
N468 N 0.89356 0.30728 0.60843 0.0
N469 N 0.92803 0.29364 0.8612 0.0
H470 H 0.86744 0.3714 0.80937 0.0
H471 H 0.88159 0.34453 0.87205 0.0
H472 H 0.94228 0.27212 0.87867 0.0
H473 H 0.92956 0.31615 0.88987 0.0
H474 H 0.90126 0.28817 0.57523 0.0
H475 H 0.88527 0.33098 0.58794 0.0
H476 H 0.88784 0.23941 0.61549 0.0
H477 H 0.90365 0.21283 0.6764 0.0
C478 C 0.21724 0.906 0.15208 0.0
C479 C 0.18923 0.89767 0.19459 0.0
C480 C 0.22765 0.91033 0.28484 0.0
C481 C 0.25677 0.91664 0.243 0.0
N482 N 0.28039 0.91181 0.13625 0.0
N483 N 0.17265 0.8793 0.29994 0.0
C484 C 0.25189 0.91209 0.1764 0.0
C485 C 0.19596 0.896 0.26047 0.0
N486 N 0.21091 0.90898 0.08859 0.0
N487 N 0.22904 0.91953 0.34751 0.0
H488 H 0.15009 0.86659 0.28331 0.0
H489 H 0.17792 0.87433 0.3476 0.0
H490 H 0.25068 0.93145 0.36878 0.0
H491 H 0.20686 0.91908 0.37717 0.0
H492 H 0.22895 0.92004 0.0569 0.0
H493 H 0.18689 0.90254 0.06769 0.0
H494 H 0.27891 0.90423 0.08882 0.0
H495 H 0.30621 0.91575 0.15121 0.0
C496 C 0.41252 0.707 0.66669 0.0
C497 C 0.39832 0.68237 0.71061 0.0
C498 C 0.39947 0.72738 0.79433 0.0
C499 C 0.41157 0.75277 0.74937 0.0
N500 N 0.42218 0.76879 0.64048 0.0
N501 N 0.37114 0.67082 0.81215 0.0
C502 C 0.41585 0.74315 0.68477 0.0
C503 C 0.38975 0.69303 0.77328 0.0
N504 N 0.42423 0.69556 0.60867 0.0
N505 N 0.39871 0.73526 0.85758 0.0
H506 H 0.36343 0.64538 0.79871 0.0
H507 H 0.36051 0.67873 0.85564 0.0
H508 H 0.40381 0.76029 0.87584 0.0
H509 H 0.39529 0.71616 0.89268 0.0
H510 H 0.43808 0.71154 0.57705 0.0
H511 H 0.42307 0.6691 0.59436 0.0
H512 H 0.42222 0.76401 0.59184 0.0
H513 H 0.42381 0.79565 0.6521 0.0
C514 C 0.79885 0.41183 0.29815 0.0
C515 C 0.76905 0.41731 0.25785 0.0
C516 C 0.80436 0.39546 0.16761 0.0
C517 C 0.83232 0.38729 0.20968 0.0
N518 N 0.8517 0.37688 0.3165 0.0
N519 N 0.74141 0.40568 0.15613 0.0
C520 C 0.828 0.39186 0.2755 0.0
C521 C 0.77112 0.40673 0.19291 0.0
N522 N 0.80052 0.42731 0.3567 0.0
N523 N 0.80966 0.39294 0.10366 0.0
H524 H 0.71624 0.41235 0.17272 0.0
H525 H 0.74118 0.39474 0.11073 0.0
H526 H 0.8332 0.3831 0.08391 0.0
H527 H 0.79159 0.40264 0.07054 0.0
H528 H 0.82329 0.42662 0.3846 0.0
H529 H 0.78109 0.44443 0.37433 0.0
H530 H 0.84825 0.37718 0.36556 0.0
H531 H 0.87238 0.36053 0.30079 0.0
C532 C 0.13202 0.82914 0.77896 0.0
C533 C 0.13303 0.83597 0.71268 0.0
C534 C 0.10561 0.77875 0.69193 0.0
C535 C 0.10699 0.77029 0.7572 0.0
N536 N 0.124 0.78656 0.86377 0.0
N537 N 0.13438 0.8097 0.60722 0.0
C538 C 0.12119 0.79516 0.80104 0.0
C539 C 0.12425 0.80853 0.66941 0.0
N540 N 0.14166 0.85507 0.82077 0.0
N541 N 0.08551 0.75937 0.65108 0.0
H542 H 0.14919 0.82994 0.58726 0.0
H543 H 0.13118 0.78822 0.57656 0.0
H544 H 0.06989 0.73822 0.66534 0.0
H545 H 0.08124 0.76699 0.60419 0.0
H546 H 0.1367 0.854 0.8693 0.0
H547 H 0.15392 0.87847 0.80661 0.0
H548 H 0.13812 0.80146 0.89655 0.0
H549 H 0.1134 0.76361 0.88314 0.0
C550 C 0.69026 0.13059 0.28554 0.0
C551 C 0.68451 0.13149 0.21892 0.0
C552 C 0.74893 0.12421 0.2021 0.0
C553 C 0.75303 0.11664 0.26726 0.0
N554 N 0.72734 0.11016 0.37151 0.0
N555 N 0.7098 0.1297 0.11252 0.0
C556 C 0.72367 0.11928 0.30922 0.0
C557 C 0.71427 0.12893 0.17674 0.0
N558 N 0.66455 0.14271 0.32633 0.0
N559 N 0.77841 0.12771 0.16468 0.0
H560 H 0.68612 0.13598 0.09024 0.0
H561 H 0.72954 0.12222 0.08039 0.0
H562 H 0.80411 0.12443 0.18201 0.0
H563 H 0.77775 0.13718 0.11836 0.0
H564 H 0.66848 0.14549 0.37494 0.0
H565 H 0.64086 0.15426 0.31103 0.0
H566 H 0.70584 0.10693 0.40211 0.0
H567 H 0.75167 0.1035 0.39161 0.0
C568 C 0.38386 0.80267 0.30415 0.0
C569 C 0.40039 0.83356 0.27911 0.0
C570 C 0.43011 0.79656 0.19804 0.0
C571 C 0.41492 0.76594 0.22491 0.0
N572 N 0.36894 0.74067 0.289 0.0
N573 N 0.44759 0.85705 0.21199 0.0
C574 C 0.38947 0.76918 0.27407 0.0
C575 C 0.42574 0.82983 0.22872 0.0
N576 N 0.3653 0.80468 0.3599 0.0
N577 N 0.44757 0.79424 0.14126 0.0
H578 H 0.44828 0.88145 0.23425 0.0
H579 H 0.46892 0.85404 0.18086 0.0
H580 H 0.45136 0.77043 0.11712 0.0
H581 H 0.45457 0.81629 0.11442 0.0
H582 H 0.35599 0.78253 0.38402 0.0
H583 H 0.36267 0.82794 0.38631 0.0
H584 H 0.34706 0.74208 0.31919 0.0
H585 H 0.3717 0.71623 0.26611 0.0
C586 C 0.7024 0.4263 0.82646 0.0
C587 C 0.68667 0.3941 0.80662 0.0
C588 C 0.74436 0.37375 0.76425 0.0
C589 C 0.75805 0.40822 0.77389 0.0
N590 N 0.75692 0.45768 0.84655 0.0
N591 N 0.69242 0.33714 0.75446 0.0
C592 C 0.73904 0.43194 0.8144 0.0
C593 C 0.70771 0.36759 0.7757 0.0
N594 N 0.6823 0.45178 0.85616 0.0
N595 N 0.76684 0.34618 0.75016 0.0
H596 H 0.66585 0.33153 0.76177 0.0
H597 H 0.70521 0.31903 0.72461 0.0
H598 H 0.79434 0.34866 0.75153 0.0
H599 H 0.75882 0.31986 0.74736 0.0
H600 H 0.69106 0.47755 0.86397 0.0
H601 H 0.65599 0.44793 0.86967 0.0
H602 H 0.7453 0.47405 0.88074 0.0
H603 H 0.78452 0.4591 0.84609 0.0
C604 C 0.12346 0.72828 0.1839 0.0
C605 C 0.12205 0.7581 0.22502 0.0
C606 C 0.14042 0.72083 0.31477 0.0
C607 C 0.13993 0.69081 0.27403 0.0
N608 N 0.14298 0.66756 0.16785 0.0
N609 N 0.13434 0.78495 0.32608 0.0
C610 C 0.13497 0.69502 0.20792 0.0
C611 C 0.13228 0.75502 0.28953 0.0
N612 N 0.1126 0.73144 0.1224 0.0
N613 N 0.1483 0.71641 0.37749 0.0
H614 H 0.12848 0.81013 0.30856 0.0
H615 H 0.14355 0.78557 0.37243 0.0
H616 H 0.15656 0.69214 0.39625 0.0
H617 H 0.14611 0.7362 0.41169 0.0
H618 H 0.10821 0.70984 0.09266 0.0
H619 H 0.10592 0.75567 0.10186 0.0
H620 H 0.14303 0.66959 0.11864 0.0
H621 H 0.15361 0.64371 0.18408 0.0
C622 C 0.80597 0.10955 0.83039 0.0
C623 C 0.82644 0.13513 0.79879 0.0
C624 C 0.77784 0.14324 0.72354 0.0
C625 C 0.76156 0.11158 0.74638 0.0
N626 N 0.76864 0.05938 0.8135 0.0
N627 N 0.83319 0.17437 0.70941 0.0
C628 C 0.77775 0.09328 0.79796 0.0
C629 C 0.81277 0.15158 0.74366 0.0
N630 N 0.81301 0.10121 0.89185 0.0
N631 N 0.75976 0.1664 0.68561 0.0
H632 H 0.85867 0.18137 0.72317 0.0
H633 H 0.82572 0.184 0.66508 0.0
H634 H 0.73314 0.16352 0.67432 0.0
H635 H 0.76991 0.19095 0.67237 0.0
H636 H 0.79654 0.08476 0.91841 0.0
H637 H 0.83254 0.11435 0.91761 0.0
H638 H 0.78173 0.04515 0.84891 0.0
H639 H 0.75228 0.04366 0.78565 0.0
C640 C 0.57289 0.10086 0.9583 0.0
C641 C 0.59898 0.10386 0.00577 0.0
C642 C 0.64527 0.08581 0.93068 0.0
C643 C 0.61952 0.0838 0.88201 0.0
N644 N 0.55762 0.07637 0.85584 0.0
N645 N 0.65555 0.08227 0.04325 0.0
C646 C 0.58283 0.08743 0.89767 0.0
C647 C 0.63378 0.09088 0.99408 0.0
N648 N 0.53859 0.11011 0.97167 0.0
N649 N 0.68068 0.08519 0.91675 0.0
H650 H 0.64767 0.08442 0.09048 0.0
H651 H 0.67993 0.06947 0.0368 0.0
H652 H 0.69065 0.08286 0.87089 0.0
H653 H 0.7001 0.0904 0.95051 0.0
H654 H 0.51898 0.11255 0.93729 0.0
H655 H 0.53013 0.11626 0.01757 0.0
H656 H 0.53065 0.07565 0.86644 0.0
H657 H 0.56401 0.06402 0.81304 0.0
C658 C 0.39661 0.64008 0.46444 0.0
C659 C 0.41175 0.60935 0.4942 0.0
C660 C 0.45936 0.60937 0.41491 0.0
C661 C 0.43976 0.63375 0.37864 0.0
N662 N 0.40294 0.68538 0.38327 0.0
N663 N 0.45755 0.56378 0.49464 0.0
C664 C 0.41212 0.65309 0.40762 0.0
C665 C 0.44355 0.59412 0.4693 0.0
N666 N 0.36724 0.65658 0.48919 0.0
N667 N 0.49417 0.60358 0.40086 0.0
H668 H 0.44583 0.55035 0.53229 0.0
H669 H 0.47885 0.55015 0.47402 0.0
H670 H 0.50664 0.6169 0.36372 0.0
H671 H 0.51118 0.58954 0.43071 0.0
H672 H 0.35226 0.67528 0.46449 0.0
H673 H 0.3567 0.65108 0.53352 0.0
H674 H 0.38563 0.70324 0.40528 0.0
H675 H 0.4159 0.69569 0.34371 0.0
C676 C 0.88728 0.44741 0.00425 0.0
C677 C 0.92062 0.43061 0.01355 0.0
C678 C 0.92844 0.424 0.90069 0.0
C679 C 0.89528 0.44211 0.88893 0.0
N680 N 0.85015 0.48163 0.93372 0.0
N681 N 0.97808 0.41662 0.97202 0.0
C682 C 0.87654 0.45697 0.94184 0.0
C683 C 0.94308 0.42426 0.96205 0.0
N684 N 0.86593 0.45437 0.05515 0.0
N685 N 0.94484 0.40363 0.85559 0.0
H686 H 0.98905 0.4163 0.0174 0.0
H687 H 0.99655 0.41462 0.93522 0.0
H688 H 0.93376 0.39775 0.81233 0.0
H689 H 0.96714 0.38795 0.86472 0.0
H690 H 0.83937 0.46187 0.05106 0.0
H691 H 0.8749 0.45163 0.10151 0.0
H692 H 0.83815 0.49511 0.97137 0.0
H693 H 0.84301 0.49224 0.89016 0.0
C694 C 0.07523 0.87168 0.42239 0.0
C695 C 0.08609 0.8933 0.3705 0.0
C696 C 0.10593 0.93782 0.44703 0.0
C697 C 0.10519 0.91233 0.49472 0.0
N698 N 0.08477 0.85559 0.53207 0.0
N699 N 0.11773 0.9474 0.33822 0.0
C700 C 0.08853 0.87931 0.48385 0.0
C701 C 0.1028 0.92668 0.38393 0.0
N702 N 0.05023 0.84597 0.41468 0.0
N703 N 0.10846 0.97294 0.4621 0.0
H704 H 0.1195 0.94088 0.29097 0.0
H705 H 0.13252 0.96988 0.34884 0.0
H706 H 0.10899 0.98177 0.50904 0.0
H707 H 0.10573 0.99305 0.42851 0.0
H708 H 0.03954 0.83167 0.45228 0.0
H709 H 0.03631 0.84209 0.3728 0.0
H710 H 0.07697 0.82942 0.52501 0.0
H711 H 0.09074 0.86178 0.57891 0.0
C712 C 0.60292 0.39383 0.06634 0.0
C713 C 0.59557 0.41757 0.0158 0.0
C714 C 0.61337 0.46637 0.08772 0.0
C715 C 0.62754 0.44093 0.13083 0.0
N716 N 0.64433 0.37997 0.14824 0.0
N717 N 0.59022 0.47903 0.98282 0.0
C718 C 0.62544 0.40463 0.11523 0.0
C719 C 0.60011 0.45473 0.02735 0.0
N720 N 0.58628 0.36191 0.07127 0.0
N721 N 0.61022 0.50103 0.1058 0.0
H722 H 0.5734 0.47304 0.94536 0.0
H723 H 0.59813 0.50545 0.98419 0.0
H724 H 0.61905 0.51014 0.14945 0.0
H725 H 0.59656 0.52017 0.07975 0.0
H726 H 0.59003 0.34495 0.1098 0.0
H727 H 0.56465 0.35533 0.0433 0.0
H728 H 0.6453 0.35347 0.13421 0.0
H729 H 0.6617 0.3869 0.18439 0.0
C730 C 0.09191 0.64901 0.50614 0.0
C731 C 0.09223 0.61295 0.48697 0.0
C732 C 0.06508 0.5979 0.58877 0.0
C733 C 0.07259 0.63274 0.61259 0.0
N734 N 0.10507 0.6869 0.59426 0.0
N735 N 0.08332 0.55168 0.51549 0.0
C736 C 0.08885 0.65739 0.57127 0.0
C737 C 0.07959 0.58693 0.52943 0.0
N738 N 0.09474 0.67531 0.46229 0.0
N739 N 0.04413 0.57509 0.62198 0.0
H740 H 0.0945 0.54242 0.47335 0.0
H741 H 0.07828 0.53171 0.54835 0.0
H742 H 0.03272 0.58124 0.66548 0.0
H743 H 0.03516 0.55123 0.60306 0.0
H744 H 0.09252 0.70212 0.47434 0.0
H745 H 0.09482 0.66991 0.41377 0.0
H746 H 0.11928 0.70413 0.5652 0.0
H747 H 0.10888 0.69115 0.64255 0.0
C748 C 0.93855 0.09502 0.04316 0.0
C749 C 0.9164 0.08719 0.9927 0.0
C750 C 0.87361 0.06042 0.06631 0.0
C751 C 0.89164 0.07709 0.11806 0.0
N752 N 0.94056 0.11601 0.14898 0.0
N753 N 0.8673 0.05511 0.95132 0.0
C754 C 0.92424 0.09545 0.10478 0.0
C755 C 0.88511 0.0676 0.00281 0.0
N756 N 0.97329 0.10278 0.03186 0.0
N757 N 0.8469 0.03686 0.07719 0.0
H758 H 0.87727 0.05796 0.90539 0.0
H759 H 0.84288 0.04256 0.95338 0.0
H760 H 0.83848 0.02913 0.12193 0.0
H761 H 0.83468 0.02214 0.04188 0.0
H762 H 0.99193 0.10529 0.06796 0.0
H763 H 0.984 0.1025 0.98611 0.0
H764 H 0.96227 0.13196 0.13884 0.0
H765 H 0.93002 0.1215 0.19288 0.0
C766 C 0.45462 0.93012 0.59474 0.0
C767 C 0.45792 0.89342 0.61082 0.0
C768 C 0.43696 0.87766 0.50495 0.0
C769 C 0.42747 0.91399 0.49347 0.0
N770 N 0.4258 0.9747 0.5301 0.0
N771 N 0.47199 0.83614 0.56666 0.0
C772 C 0.4365 0.94026 0.53858 0.0
C773 C 0.45477 0.86808 0.56182 0.0
N774 N 0.47127 0.95527 0.63035 0.0
N775 N 0.42859 0.8519 0.46218 0.0
H776 H 0.49003 0.83066 0.60269 0.0
H777 H 0.47309 0.81738 0.53039 0.0
H778 H 0.41945 0.85733 0.41707 0.0
H779 H 0.42924 0.82489 0.47263 0.0
H780 H 0.47279 0.98186 0.61733 0.0
H781 H 0.48799 0.94898 0.66782 0.0
H782 H 0.42721 0.99391 0.56557 0.0
H783 H 0.41278 0.98362 0.48961 0.0
C784 C 0.43673 0.94174 0.023 0.0
C785 C 0.41802 0.91233 0.99776 0.0
C786 C 0.3849 0.90683 0.09737 0.0
C787 C 0.40022 0.93853 0.11979 0.0
N788 N 0.44123 0.98645 0.10574 0.0
N789 N 0.36756 0.87296 0.00669 0.0
C790 C 0.42602 0.95636 0.08269 0.0
C791 C 0.39021 0.89664 0.03368 0.0
N792 N 0.46611 0.95409 0.99219 0.0
N793 N 0.36656 0.88521 0.13763 0.0
H794 H 0.36914 0.86509 0.9597 0.0
H795 H 0.34464 0.86411 0.0293 0.0
H796 H 0.36099 0.89179 0.18464 0.0
H797 H 0.35921 0.85947 0.12555 0.0
H798 H 0.48303 0.97306 0.01089 0.0
H799 H 0.47545 0.94334 0.9497 0.0
H800 H 0.45702 1.00323 0.07876 0.0
H801 H 0.43681 0.99535 0.15187 0.0
C802 C 0.56632 0.4115 0.5186 0.0
C803 C 0.60306 0.41984 0.51197 0.0
C804 C 0.61389 0.39523 0.61742 0.0
C805 C 0.5772 0.39157 0.62772 0.0
N806 N 0.51743 0.40193 0.5921 0.0
N807 N 0.65858 0.42973 0.56616 0.0
C808 C 0.55297 0.40156 0.57957 0.0
C809 C 0.62582 0.41474 0.56484 0.0
N810 N 0.54454 0.41089 0.46706 0.0
N811 N 0.63758 0.37973 0.65769 0.0
H812 H 0.66709 0.44674 0.5308 0.0
H813 H 0.67495 0.42911 0.6059 0.0
H814 H 0.62942 0.36387 0.69528 0.0
H815 H 0.66484 0.37922 0.64907 0.0
H816 H 0.51862 0.40159 0.46915 0.0
H817 H 0.55302 0.41643 0.42121 0.0
H818 H 0.49879 0.4127 0.56107 0.0
H819 H 0.507 0.39367 0.6355 0.0
C820 C 0.14435 0.59845 0.01292 0.0
C821 C 0.10813 0.60201 0.99488 0.0
C822 C 0.08992 0.57357 0.09417 0.0
C823 C 0.12594 0.57284 0.11374 0.0
N824 N 0.18749 0.57131 0.08263 0.0
N825 N 0.0462 0.59265 0.01629 0.0
C826 C 0.15321 0.58097 0.0702 0.0
C827 C 0.0808 0.58887 0.03455 0.0
N828 N 0.17037 0.61367 0.97726 0.0
N829 N 0.06487 0.55833 0.13218 0.0
H830 H 0.03897 0.60334 0.97261 0.0
H831 H 0.02448 0.58667 0.04468 0.0
H832 H 0.07154 0.54524 0.17405 0.0
H833 H 0.03825 0.55587 0.12053 0.0
H834 H 0.1965 0.61634 0.99226 0.0
H835 H 0.16538 0.62622 0.93458 0.0
H836 H 0.20794 0.57308 0.04949 0.0
H837 H 0.19509 0.55788 0.12344 0.0
C838 C 0.92263 0.07519 0.54923 0.0
C839 C 0.92298 0.10033 0.4999 0.0
C840 C 0.94582 0.14577 0.57148 0.0
C841 C 0.94357 0.12116 0.6221 0.0
N842 N 0.94426 0.05933 0.65293 0.0
N843 N 0.94865 0.15403 0.45802 0.0
C844 C 0.93641 0.0848 0.60907 0.0
C845 C 0.9392 0.13381 0.5089 0.0
N846 N 0.90925 0.04214 0.53873 0.0
N847 N 0.95209 0.18086 0.58288 0.0
H848 H 0.94437 0.14632 0.4113 0.0
H849 H 0.96381 0.1769 0.46203 0.0
H850 H 0.95803 0.19098 0.62743 0.0
H851 H 0.94902 0.20045 0.54849 0.0
H852 H 0.90407 0.02408 0.57484 0.0
H853 H 0.9022 0.03333 0.49361 0.0
H854 H 0.94242 0.03221 0.64414 0.0
H855 H 0.95675 0.06512 0.69545 0.0
C856 C 0.43286 0.58375 0.89055 0.0
C857 C 0.39958 0.56731 0.8756 0.0
C858 C 0.38366 0.57053 0.98861 0.0
C859 C 0.41706 0.58555 0.00243 0.0
N860 N 0.47774 0.59251 0.97088 0.0
N861 N 0.35161 0.53188 0.91809 0.0
C862 C 0.44318 0.587 0.95488 0.0
C863 C 0.37732 0.55671 0.9269 0.0
N864 N 0.45368 0.59913 0.84528 0.0
N865 N 0.35794 0.56935 0.03423 0.0
H866 H 0.34905 0.51753 0.87611 0.0
H867 H 0.33636 0.52186 0.95516 0.0
H868 H 0.36253 0.57695 0.081 0.0
H869 H 0.33177 0.56253 0.02448 0.0
H870 H 0.47613 0.6138 0.85633 0.0
H871 H 0.4472 0.60168 0.79795 0.0
H872 H 0.49849 0.59048 0.93821 0.0
H873 H 0.48587 0.59526 0.01786 0.0
C874 C 0.93355 0.43204 0.39826 0.0
C875 C 0.94154 0.39577 0.38483 0.0
C876 C 0.93345 0.38245 0.4971 0.0
C877 C 0.91629 0.41587 0.50557 0.0
N878 N 0.90199 0.47391 0.4653 0.0
N879 N 0.94807 0.33552 0.4235 0.0
C880 C 0.91683 0.44111 0.45633 0.0
C881 C 0.94179 0.37071 0.43489 0.0
N882 N 0.94369 0.45794 0.35693 0.0
N883 N 0.9427 0.3622 0.5481 0.0
H884 H 0.95499 0.32528 0.37936 0.0
H885 H 0.94382 0.31595 0.45751 0.0
H886 H 0.9376 0.36971 0.59473 0.0
H887 H 0.95857 0.33949 0.54427 0.0
H888 H 0.94113 0.48496 0.36666 0.0
H889 H 0.95881 0.45248 0.3166 0.0
H890 H 0.89782 0.49187 0.42852 0.0
H891 H 0.89249 0.4824 0.5093 0.0
C892 C 0.13687 0.96436 0.92183 0.0
C893 C 0.12044 0.94869 0.86831 0.0
C894 C 0.07825 0.91956 0.94033 0.0
C895 C 0.10049 0.92724 0.99137 0.0
N896 N 0.15061 0.95941 0.03327 0.0
N897 N 0.07276 0.90963 0.82967 0.0
C898 C 0.12953 0.95067 0.98322 0.0
C899 C 0.09008 0.92624 0.87809 0.0
N900 N 0.1576 0.99367 0.9147 0.0
N901 N 0.04487 0.90705 0.95161 0.0
H902 H 0.07409 0.91596 0.78217 0.0
H903 H 0.0563 0.88794 0.83743 0.0
H904 H 0.03498 0.90345 0.99743 0.0
H905 H 0.02575 0.90456 0.91632 0.0
H906 H 0.16767 1.008 0.95277 0.0
H907 H 0.1608 1.00658 0.87143 0.0
H908 H 0.17462 0.9726 0.02802 0.0
H909 H 0.14551 0.95166 0.07968 0.0
C910 C 0.57082 0.14219 0.50305 0.0
C911 C 0.58707 0.10822 0.50955 0.0
C912 C 0.56667 0.09304 0.40399 0.0
C913 C 0.56123 0.12989 0.39016 0.0
N914 N 0.54675 0.18759 0.43391 0.0
N915 N 0.5991 0.05015 0.46655 0.0
C916 C 0.55985 0.15406 0.44194 0.0
C917 C 0.58438 0.08319 0.46028 0.0
N918 N 0.56373 0.16189 0.55598 0.0
N919 N 0.5526 0.06728 0.36622 0.0
H920 H 0.61064 0.04132 0.50859 0.0
H921 H 0.60153 0.03243 0.42871 0.0
H922 H 0.53515 0.07283 0.32939 0.0
H923 H 0.55378 0.04037 0.37747 0.0
H924 H 0.54978 0.18583 0.5559 0.0
H925 H 0.56828 0.15204 0.60122 0.0
H926 H 0.55066 0.20805 0.46632 0.0
H927 H 0.53075 0.19464 0.39578 0.0
C928 C 0.42357 0.05978 0.21126 0.0
C929 C 0.42506 0.04762 0.27509 0.0
C930 C 0.46739 0.0946 0.29757 0.0
C931 C 0.47321 0.0999 0.23106 0.0
N932 N 0.45545 0.08696 0.12396 0.0
N933 N 0.45074 0.05256 0.37893 0.0
C934 C 0.45089 0.08221 0.18761 0.0
C935 C 0.44779 0.06469 0.31817 0.0
N936 N 0.39569 0.05074 0.17366 0.0
N937 N 0.47888 0.11849 0.34153 0.0
H938 H 0.43522 0.03203 0.39677 0.0
H939 H 0.47021 0.06147 0.40999 0.0
H940 H 0.48961 0.1429 0.33024 0.0
H941 H 0.47301 0.11635 0.38969 0.0
H942 H 0.39196 0.06095 0.12829 0.0
H943 H 0.37426 0.0363 0.19054 0.0
H944 H 0.44245 0.07177 0.09004 0.0
H945 H 0.47364 0.10487 0.10521 0.0
C946 C 0.44369 0.42795 0.78094 0.0
C947 C 0.48033 0.43662 0.77824 0.0
C948 C 0.4672 0.47906 0.69248 0.0
C949 C 0.43031 0.47456 0.70173 0.0
N950 N 0.38478 0.43439 0.73494 0.0
N951 N 0.52533 0.47694 0.7391 0.0
C952 C 0.41886 0.44599 0.74065 0.0
C953 C 0.49161 0.46408 0.73642 0.0
N954 N 0.43256 0.40346 0.82425 0.0
N955 N 0.47925 0.49493 0.63852 0.0
H956 H 0.54398 0.46892 0.77232 0.0
H957 H 0.53341 0.49902 0.71329 0.0
H958 H 0.46234 0.50124 0.60114 0.0
H959 H 0.50605 0.49621 0.62649 0.0
H960 H 0.40607 0.39793 0.83355 0.0
H961 H 0.44999 0.39068 0.85522 0.0
H962 H 0.37473 0.4123 0.75813 0.0
H963 H 0.36761 0.44454 0.70063 0.0
C964 C 0.04766 0.43332 0.30253 0.0
C965 C 0.04398 0.42537 0.23688 0.0
C966 C 0.0948 0.4639 0.21597 0.0
C967 C 0.0927 0.4778 0.27888 0.0
N968 N 0.06497 0.47642 0.38177 0.0
N969 N 0.0635 0.43511 0.12972 0.0
C970 C 0.06832 0.4628 0.32203 0.0
C971 C 0.06752 0.44117 0.19309 0.0
N972 N 0.03353 0.41115 0.34657 0.0
N973 N 0.12347 0.47118 0.17883 0.0
H974 H 0.04467 0.4176 0.11189 0.0
H975 H 0.07729 0.44913 0.09511 0.0
H976 H 0.1457 0.48381 0.19672 0.0
H977 H 0.12739 0.4602 0.13397 0.0
H978 H 0.03661 0.41454 0.39526 0.0
H979 H 0.02442 0.38626 0.33373 0.0
H980 H 0.04478 0.46903 0.41283 0.0
H981 H 0.08113 0.49664 0.39861 0.0
C982 C 0.05544 0.02653 0.74315 0.0
C983 C 0.08349 0.03881 0.70352 0.0
C984 C 0.0634 0.10024 0.72597 0.0
C985 C 0.03867 0.08756 0.77211 0.0
N986 N 0.02065 0.03853 0.83737 0.0
N987 N 0.11714 0.08846 0.66507 0.0
C988 C 0.03798 0.05068 0.78483 0.0
C989 C 0.08854 0.07604 0.6979 0.0
N990 N 0.04407 0.99226 0.74006 0.0
N991 N 0.0619 0.13461 0.70562 0.0
H992 H 0.13455 0.07179 0.6402 0.0
H993 H 0.12459 0.11503 0.66569 0.0
H994 H 0.04441 0.15357 0.72363 0.0
H995 H 0.07639 0.14369 0.66684 0.0
H996 H 0.022 0.98336 0.76514 0.0
H997 H 0.05313 0.97395 0.70677 0.0
H998 H 0.02197 0.01211 0.8519 0.0
H999 H 1.00864 0.05563 0.8702 0.0
C1000 C 0.59084 0.97199 0.79638 0.0
C1001 C 0.59304 0.98099 0.73096 0.0
C1002 C 0.55434 0.93073 0.70765 0.0
C1003 C 0.54561 0.92705 0.77384 0.0
N1004 N 0.5563 0.946 0.88138 0.0
N1005 N 0.57322 0.97089 0.62444 0.0
C1006 C 0.56387 0.94853 0.81819 0.0
C1007 C 0.57367 0.96094 0.68671 0.0
N1008 N 0.61596 0.98397 0.83725 0.0
N1009 N 0.54536 0.90549 0.66407 0.0
H1010 H 0.5883 0.99181 0.60689 0.0
H1011 H 0.55583 0.96005 0.59147 0.0
H1012 H 0.53305 0.88176 0.67447 0.0
H1013 H 0.55414 0.90615 0.61719 0.0
H1014 H 0.61708 0.97678 0.88486 0.0
H1015 H 0.63879 0.99627 0.82104 0.0
H1016 H 0.56549 0.96414 0.91474 0.0
H1017 H 0.53951 0.9268 0.90009 0.0
C1018 C 0.56086 0.54624 0.317 0.0
C1019 C 0.59502 0.54588 0.29032 0.0
C1020 C 0.57519 0.59186 0.21381 0.0
C1021 C 0.53927 0.58773 0.23448 0.0
N1022 N 0.49869 0.55276 0.30137 0.0
N1023 N 0.63561 0.56855 0.21163 0.0
C1024 C 0.53229 0.56253 0.28438 0.0
C1025 C 0.60272 0.56931 0.2391 0.0
N1026 N 0.5557 0.53099 0.37512 0.0
N1027 N 0.58306 0.61617 0.16799 0.0
H1028 H 0.65684 0.55399 0.22952 0.0
H1029 H 0.64158 0.58084 0.16881 0.0
H1030 H 0.56395 0.62872 0.14026 0.0
H1031 H 0.60874 0.62455 0.15819 0.0
H1032 H 0.53174 0.53223 0.39984 0.0
H1033 H 0.57658 0.52032 0.40155 0.0
H1034 H 0.49376 0.52957 0.32674 0.0
H1035 H 0.47553 0.56682 0.29265 0.0
C1036 C 0.93617 0.54562 0.8006 0.0
C1037 C 0.92846 0.54055 0.73462 0.0
C1038 C 0.96647 0.59151 0.71053 0.0
C1039 C 0.97949 0.59183 0.77456 0.0
N1040 N 0.97601 0.56824 0.88051 0.0
N1041 N 0.93868 0.55791 0.62638 0.0
C1042 C 0.96431 0.56836 0.81923 0.0
C1043 C 0.94438 0.56326 0.68967 0.0
N1044 N 0.91579 0.53033 0.84652 0.0
N1045 N 0.9744 0.61806 0.66878 0.0
H1046 H 0.92038 0.5398 0.60885 0.0
H1047 H 0.95377 0.56996 0.59109 0.0
H1048 H 0.99229 0.63825 0.6767 0.0
H1049 H 0.96117 0.62136 0.62588 0.0
H1050 H 0.91798 0.53617 0.8946 0.0
H1051 H 0.89362 0.51535 0.83753 0.0
H1052 H 0.97079 0.54773 0.91217 0.0
H1053 H 0.99202 0.58801 0.89932 0.0
C1054 C 0.94524 0.9568 0.31264 0.0
C1055 C 0.92614 0.97755 0.26841 0.0
C1056 C 0.9575 0.94601 0.18044 0.0
C1057 C 0.97876 0.92745 0.22488 0.0
N1058 N 0.99385 0.91711 0.33541 0.0
N1059 N 0.90796 0.98506 0.15864 0.0
C1060 C 0.97252 0.93297 0.29146 0.0
C1061 C 0.93048 0.97023 0.20188 0.0
N1062 N 0.9356 0.95809 0.37527 0.0
N1063 N 0.96372 0.94105 0.11702 0.0
H1064 H 0.88811 1.00297 0.16987 0.0
H1065 H 0.90655 0.97748 0.11131 0.0
H1066 H 0.97977 0.92062 0.09925 0.0
H1067 H 0.95438 0.95789 0.08168 0.0
H1068 H 0.945 0.94047 0.40937 0.0
H1069 H 0.91521 0.9744 0.39244 0.0
H1070 H 0.99564 0.92559 0.38229 0.0
H1071 H 0.01081 0.89616 0.32555 0.0
C1072 C 0.51533 0.22776 0.99644 0.0
C1073 C 0.51875 0.2418 0.05844 0.0
C1074 C 0.50902 0.30172 0.01497 0.0
C1075 C 0.51469 0.28834 0.953 0.0
N1076 N 0.51956 0.23828 0.88293 0.0
N1077 N 0.51634 0.29226 0.12829 0.0
C1078 C 0.51581 0.25109 0.94317 0.0
C1079 C 0.51395 0.27883 0.06835 0.0
N1080 N 0.51199 0.19201 0.98899 0.0
N1081 N 0.49969 0.33654 0.02222 0.0
H1082 H 0.51868 0.27595 0.16801 0.0
H1083 H 0.51735 0.3193 0.13828 0.0
H1084 H 0.49634 0.35324 0.98319 0.0
H1085 H 0.49267 0.34786 0.06561 0.0
H1086 H 0.50688 0.17987 0.94566 0.0
H1087 H 0.51076 0.17505 0.02798 0.0
H1088 H 0.52528 0.21184 0.87233 0.0
H1089 H 0.51793 0.25483 0.84342 0.0
C1090 C 0.2159 0.5257 0.52413 0.0
C1091 C 0.22732 0.52359 0.45976 0.0
C1092 C 0.28899 0.51597 0.49567 0.0
C1093 C 0.27822 0.52304 0.55894 0.0
N1094 N 0.23164 0.52585 0.6365 0.0
N1095 N 0.27173 0.4982 0.38973 0.0
C1096 C 0.24152 0.52455 0.57413 0.0
C1097 C 0.26291 0.51267 0.44706 0.0
N1098 N 0.18042 0.529 0.53668 0.0
N1099 N 0.32433 0.51433 0.48142 0.0
H1100 H 0.25295 0.49193 0.35562 0.0
H1101 H 0.2968 0.48782 0.37948 0.0
H1102 H 0.34388 0.51493 0.51634 0.0
H1103 H 0.33415 0.5142 0.43519 0.0
H1104 H 0.16955 0.53349 0.58135 0.0
H1105 H 0.16141 0.52641 0.50114 0.0
H1106 H 0.20557 0.5268 0.65262 0.0
H1107 H 0.25016 0.52403 0.67302 0.0
C1108 C 1.0049 0.24892 0.0691 0.0
C1109 C 0.99969 0.28498 0.05098 0.0
C1110 C 1.005 0.26594 0.93931 0.0
C1111 C 0.99745 0.23038 0.95762 0.0
N1112 N 0.99874 0.18678 0.04036 0.0
N1113 N 1.00223 0.32842 0.96789 0.0
C1114 C 1.0003 0.22154 0.02285 0.0
C1115 C 1.00242 0.29361 0.98562 0.0
N1116 N 0.01492 0.24075 0.12951 0.0
N1117 N 0.01539 0.27341 0.87873 0.0
H1118 H 1.00453 0.34894 1.00088 0.0
H1119 H 0.99891 0.33681 0.92127 0.0
H1120 H 0.02114 0.25395 0.84521 0.0
H1121 H 0.02313 0.29855 0.86403 0.0
H1122 H 0.02085 0.21509 0.14451 0.0
H1123 H 0.02212 0.25986 0.16253 0.0
H1124 H 0.99575 0.17843 0.08705 0.0
H1125 H 1.00002 0.16634 0.00703 0.0
C1126 C 0.2961 1.00557 0.50756 0.0
C1127 C 0.28518 0.99611 0.44528 0.0
C1128 C 0.22297 1.00042 0.48044 0.0
C1129 C 0.23417 1.00501 0.54383 0.0
N1130 N 0.27852 0.0304 0.60991 0.0
N1131 N 0.23763 1.00032 0.36845 0.0
C1132 C 0.26995 0.01365 0.5549 0.0
C1133 C 0.24843 0.99908 0.43014 0.0
N1134 N 0.33134 1.00614 0.52181 0.0
N1135 N 0.18783 0.99547 0.46912 0.0
H1136 H 0.25494 0.99905 0.33005 0.0
H1137 H 0.21154 1.00559 0.35516 0.0
H1138 H 0.16899 0.99918 0.50493 0.0
H1139 H 0.17791 0.98678 0.42588 0.0
H1140 H 0.34082 1.00892 0.56787 0.0
H1141 H 0.35094 1.00269 0.48724 0.0
H1142 H 0.30371 0.04027 0.61917 0.0
H1143 H 0.25915 0.0367 0.64375 0.0
C1144 C 0.4986 0.71284 0.96611 0.0
C1145 C 0.49989 0.72362 0.03052 0.0
C1146 C 0.50946 0.78527 0.99604 0.0
C1147 C 0.5014 0.77538 0.93284 0.0
N1148 N 0.49376 0.72955 0.85502 0.0
N1149 N 0.52544 0.76638 0.10228 0.0
C1150 C 0.4986 0.73888 0.91695 0.0
C1151 C 0.51153 0.75867 0.04428 0.0
N1152 N 0.49859 0.67742 0.95268 0.0
N1153 N 0.51298 0.82041 0.01046 0.0
H1154 H 0.53068 0.74705 0.13616 0.0
H1155 H 0.5362 0.7909 0.11376 0.0
H1156 H 0.51314 0.84004 0.97557 0.0
H1157 H 0.51417 0.83018 0.0566 0.0
H1158 H 0.49988 0.66688 0.90715 0.0
H1159 H 0.50096 0.65851 0.98852 0.0
H1160 H 0.48672 0.70428 0.83993 0.0
H1161 H 0.4965 0.74783 0.81832 0.0
C1162 C 0.79556 0.51121 0.50773 0.0
C1163 C 0.78235 0.50279 0.56872 0.0
C1164 C 0.72187 0.50601 0.52623 0.0
C1165 C 0.73557 0.50341 0.46367 0.0
N1166 N 0.78569 0.51234 0.39385 0.0
N1167 N 0.73231 0.49666 0.63852 0.0
C1168 C 0.77246 0.50958 0.45392 0.0
C1169 C 0.74519 0.50243 0.57893 0.0
N1170 N 0.83024 0.52067 0.50197 0.0
N1171 N 0.68642 0.512 0.53461 0.0
H1172 H 0.74882 0.49594 0.67809 0.0
H1173 H 0.70571 0.49158 0.64817 0.0
H1174 H 0.66933 0.51515 0.4961 0.0
H1175 H 0.67478 0.51681 0.57869 0.0
H1176 H 0.84165 0.52973 0.4601 0.0
H1177 H 0.84663 0.52266 0.54161 0.0
H1178 H 0.81266 0.51215 0.38318 0.0
H1179 H 0.7696 0.51413 0.35403 0.0
C1180 C 0.01444 0.77163 0.93735 0.0
C1181 C 0.02034 0.73506 0.95015 0.0
C1182 C 0.022 0.74806 0.06456 0.0
C1183 C 0.02073 0.78494 0.05092 0.0
N1184 N 1.0042 0.83123 0.97931 0.0
N1185 N 0.02039 0.68719 0.02467 0.0
C1186 C 0.01279 0.7964 0.9887 0.0
C1187 C 0.02052 0.72291 0.01374 0.0
N1188 N 0.01292 0.7828 0.87588 0.0
N1189 N 0.02662 0.73745 0.12586 0.0
H1190 H 0.019 0.66885 0.9876 0.0
H1191 H 0.01915 0.67573 0.06941 0.0
H1192 H 0.02572 0.7554 0.16354 0.0
H1193 H 0.03162 0.71141 0.13961 0.0
H1194 H 0.01319 0.80933 0.86233 0.0
H1195 H 0.01228 0.76501 0.83795 0.0
H1196 H 0.99584 0.84156 0.93611 0.0
H1197 H 1.00239 0.84909 0.01713 0.0
C1198 C 0.74511 0.01953 0.4335 0.0
C1199 C 0.78195 0.02055 0.44646 0.0
C1200 C 0.76891 0.02443 0.5608 0.0
C1201 C 0.7317 0.02589 0.54783 0.0
N1202 N 0.68526 0.01178 0.47436 0.0
N1203 N 0.82817 1.01018 0.52127 0.0
C1204 C 0.72019 0.01892 0.48482 0.0
C1205 C 0.79339 0.018 0.50999 0.0
N1206 N 0.73391 0.02133 0.37214 0.0
N1207 N 0.78151 0.032 0.61989 0.0
H1208 H 0.84588 1.00513 0.48406 0.0
H1209 H 0.83815 1.00482 0.56625 0.0
H1210 H 0.76557 0.03611 0.65947 0.0
H1211 H 0.80827 0.03623 0.62912 0.0
H1212 H 0.70755 0.02552 0.35938 0.0
H1213 H 0.75159 0.02004 0.33401 0.0
H1214 H 0.67532 1.00411 0.43048 0.0
H1215 H 0.66704 1.00991 0.51157 0.0
loop_
_geom_bond_atom_site_label_1
_geom_bond_atom_site_label_2
_geom_bond_distance
_geom_bond_site_symmetry_2
_ccdc_geom_bond_type
Fe0 O2 1.918 . S
Fe0 O5 1.997 . S
Fe0 O6 2.002 . S
Fe0 O11 1.976 . S
Fe0 O14 1.996 . S
Fe1 O2 1.918 . S
Fe1 O9 1.997 . S
Fe1 O12 1.996 . S
Fe1 O16 1.976 . S
Fe1 O19 2.002 . S
O2 Fe0 1.918 . S
O2 Fe1 1.918 . S
O2 Fe3 1.918 . S
Fe3 O2 1.918 . S
Fe3 O4 2.002 . S
Fe3 O13 1.976 . S
Fe3 O17 1.996 . S
Fe3 O20 1.997 . S
O4 Fe3 2.002 . S
O4 C21 1.295 . S
O5 Fe0 1.997 . S
O5 C21 1.235 . S
O6 Fe0 2.002 . S
O6 C7 1.295 . S
C7 O6 1.295 . S
C7 O9 1.235 . S
C8 O13 1.287 . S
C8 O14 1.255 . S
O9 Fe1 1.997 . S
O9 C7 1.235 . S
C10 O16 1.287 . S
C10 O17 1.255 . S
O11 Fe0 1.976 . S
O11 C18 1.287 . S
O12 Fe1 1.996 . S
O12 C18 1.255 . S
O13 Fe3 1.976 . S
O13 C8 1.287 . S
O14 Fe0 1.996 . S
O14 C8 1.255 . S
C15 O19 1.295 . S
C15 O20 1.235 . S
O16 Fe1 1.976 . S
O16 C10 1.287 . S
O17 Fe3 1.996 . S
O17 C10 1.255 . S
C18 O11 1.287 . S
C18 O12 1.255 . S
O19 Fe1 2.002 . S
O19 C15 1.295 . S
O20 Fe3 1.997 . S
O20 C15 1.235 . S
C21 O4 1.295 . S
C21 O5 1.235 . S
Fe22 O24 1.918 . S
Fe22 O27 1.997 . S
Fe22 O28 2.002 . S
Fe22 O33 1.976 . S
Fe22 O36 1.996 . S
Fe23 O24 1.918 . S
Fe23 O31 1.997 . S
Fe23 O34 1.996 . S
Fe23 O38 1.976 . S
Fe23 O41 2.002 . S
O24 Fe22 1.918 . S
O24 Fe23 1.918 . S
O24 Fe25 1.918 . S
Fe25 O24 1.918 . S
Fe25 O26 2.002 . S
Fe25 O35 1.976 . S
Fe25 O39 1.996 . S
Fe25 O42 1.997 . S
O26 Fe25 2.002 . S
O26 C43 1.295 . S
O27 Fe22 1.997 . S
O27 C43 1.235 . S
O28 Fe22 2.002 . S
O28 C29 1.295 . S
C29 O28 1.295 . S
C29 O31 1.235 . S
C30 O35 1.287 . S
C30 O36 1.255 . S
O31 Fe23 1.997 . S
O31 C29 1.235 . S
C32 O38 1.287 . S
C32 O39 1.255 . S
O33 Fe22 1.976 . S
O33 C40 1.287 . S
O34 Fe23 1.996 . S
O34 C40 1.255 . S
O35 Fe25 1.976 . S
O35 C30 1.287 . S
O36 Fe22 1.996 . S
O36 C30 1.255 . S
C37 O41 1.295 . S
C37 O42 1.235 . S
O38 Fe23 1.976 . S
O38 C32 1.287 . S
O39 Fe25 1.996 . S
O39 C32 1.255 . S
C40 O33 1.287 . S
C40 O34 1.255 . S
O41 Fe23 2.002 . S
O41 C37 1.295 . S
O42 Fe25 1.997 . S
O42 C37 1.235 . S
C43 O26 1.295 . S
C43 O27 1.235 . S
Fe44 O46 1.918 . S
Fe44 O49 1.997 . S
Fe44 O50 2.002 . S
Fe44 O55 1.976 . S
Fe44 O58 1.996 . S
Fe45 O46 1.918 . S
Fe45 O53 1.997 . S
Fe45 O56 1.996 . S
Fe45 O60 1.976 . S
Fe45 O63 2.002 . S
O46 Fe44 1.918 . S
O46 Fe45 1.918 . S
O46 Fe47 1.918 . S
Fe47 O46 1.918 . S
Fe47 O48 2.002 . S
Fe47 O57 1.976 1_655 S
Fe47 O61 1.996 . S
Fe47 O64 1.997 . S
O48 Fe47 2.002 . S
O48 C65 1.295 . S
O49 Fe44 1.997 . S
O49 C65 1.235 . S
O50 Fe44 2.002 . S
O50 C51 1.295 . S
C51 O50 1.295 . S
C51 O53 1.235 . S
C52 O57 1.287 . S
C52 O58 1.255 1_455 S
O53 Fe45 1.997 . S
O53 C51 1.235 . S
C54 O60 1.287 . S
C54 O61 1.255 . S
O55 Fe44 1.976 . S
O55 C62 1.287 . S
O56 Fe45 1.996 . S
O56 C62 1.255 . S
O57 Fe47 1.976 1_455 S
O57 C52 1.287 . S
O58 Fe44 1.996 . S
O58 C52 1.255 1_655 S
C59 O63 1.295 . S
C59 O64 1.235 . S
O60 Fe45 1.976 . S
O60 C54 1.287 . S
O61 Fe47 1.996 . S
O61 C54 1.255 . S
C62 O55 1.287 . S
C62 O56 1.255 . S
O63 Fe45 2.002 . S
O63 C59 1.295 . S
O64 Fe47 1.997 . S
O64 C59 1.235 . S
C65 O48 1.295 . S
C65 O49 1.235 . S
Fe66 O68 1.918 . S
Fe66 O71 1.997 . S
Fe66 O72 2.002 . S
Fe66 O77 1.976 . S
Fe66 O80 1.996 . S
Fe67 O68 1.918 . S
Fe67 O75 1.997 . S
Fe67 O78 1.996 . S
Fe67 O82 1.976 . S
Fe67 O85 2.002 . S
O68 Fe66 1.918 . S
O68 Fe67 1.918 . S
O68 Fe69 1.918 . S
Fe69 O68 1.918 . S
Fe69 O70 2.002 . S
Fe69 O79 1.976 1_565 S
Fe69 O83 1.996 . S
Fe69 O86 1.997 . S
O70 Fe69 2.002 . S
O70 C87 1.295 . S
O71 Fe66 1.997 . S
O71 C87 1.235 . S
O72 Fe66 2.002 . S
O72 C73 1.295 . S
C73 O72 1.295 . S
C73 O75 1.235 . S
C74 O79 1.287 . S
C74 O80 1.255 1_545 S
O75 Fe67 1.997 . S
O75 C73 1.235 . S
C76 O82 1.287 . S
C76 O83 1.255 . S
O77 Fe66 1.976 . S
O77 C84 1.287 . S
O78 Fe67 1.996 . S
O78 C84 1.255 . S
O79 Fe69 1.976 1_545 S
O79 C74 1.287 . S
O80 Fe66 1.996 . S
O80 C74 1.255 1_565 S
C81 O85 1.295 . S
C81 O86 1.235 . S
O82 Fe67 1.976 . S
O82 C76 1.287 . S
O83 Fe69 1.996 . S
O83 C76 1.255 . S
C84 O77 1.287 . S
C84 O78 1.255 . S
O85 Fe67 2.002 . S
O85 C81 1.295 . S
O86 Fe69 1.997 . S
O86 C81 1.235 . S
C87 O70 1.295 . S
C87 O71 1.235 . S
Fe88 O90 1.918 . S
Fe88 O93 1.997 . S
Fe88 O94 2.002 . S
Fe88 O99 1.976 . S
Fe88 O102 1.996 . S
Fe89 O90 1.918 . S
Fe89 O97 1.997 . S
Fe89 O100 1.996 . S
Fe89 O104 1.976 . S
Fe89 O107 2.002 . S
O90 Fe88 1.918 . S
O90 Fe89 1.918 . S
O90 Fe91 1.918 . S
Fe91 O90 1.918 . S
Fe91 O92 2.002 . S
Fe91 O101 1.976 . S
Fe91 O105 1.996 . S
Fe91 O108 1.997 . S
O92 Fe91 2.002 . S
O92 C109 1.295 . S
O93 Fe88 1.997 . S
O93 C109 1.235 . S
O94 Fe88 2.002 . S
O94 C95 1.295 . S
C95 O94 1.295 . S
C95 O97 1.235 . S
C96 O101 1.287 . S
C96 O102 1.255 . S
O97 Fe89 1.997 . S
O97 C95 1.235 . S
C98 O104 1.287 . S
C98 O105 1.255 . S
O99 Fe88 1.976 . S
O99 C106 1.287 . S
O100 Fe89 1.996 . S
O100 C106 1.255 . S
O101 Fe91 1.976 . S
O101 C96 1.287 . S
O102 Fe88 1.996 . S
O102 C96 1.255 . S
C103 O107 1.295 . S
C103 O108 1.235 . S
O104 Fe89 1.976 . S
O104 C98 1.287 . S
O105 Fe91 1.996 . S
O105 C98 1.255 . S
C106 O99 1.287 . S
C106 O100 1.255 . S
O107 Fe89 2.002 . S
O107 C103 1.295 . S
O108 Fe91 1.997 . S
O108 C103 1.235 . S
C109 O92 1.295 . S
C109 O93 1.235 . S
Fe110 O112 1.918 . S
Fe110 O115 1.997 . S
Fe110 O116 2.002 . S
Fe110 O121 1.976 . S
Fe110 O124 1.996 . S
Fe111 O112 1.918 . S
Fe111 O119 1.997 . S
Fe111 O122 1.996 . S
Fe111 O126 1.976 . S
Fe111 O129 2.002 . S
O112 Fe110 1.918 . S
O112 Fe111 1.918 . S
O112 Fe113 1.918 . S
Fe113 O112 1.918 . S
Fe113 O114 2.002 . S
Fe113 O123 1.976 . S
Fe113 O127 1.996 . S
Fe113 O130 1.997 . S
O114 Fe113 2.002 . S
O114 C131 1.295 . S
O115 Fe110 1.997 . S
O115 C131 1.235 . S
O116 Fe110 2.002 . S
O116 C117 1.295 . S
C117 O116 1.295 . S
C117 O119 1.235 . S
C118 O123 1.287 . S
C118 O124 1.255 . S
O119 Fe111 1.997 . S
O119 C117 1.235 . S
C120 O126 1.287 . S
C120 O127 1.255 . S
O121 Fe110 1.976 . S
O121 C128 1.287 . S
O122 Fe111 1.996 . S
O122 C128 1.255 . S
O123 Fe113 1.976 . S
O123 C118 1.287 . S
O124 Fe110 1.996 . S
O124 C118 1.255 . S
C125 O129 1.295 . S
C125 O130 1.235 . S
O126 Fe111 1.976 . S
O126 C120 1.287 . S
O127 Fe113 1.996 . S
O127 C120 1.255 . S
C128 O121 1.287 . S
C128 O122 1.255 . S
O129 Fe111 2.002 . S
O129 C125 1.295 . S
O130 Fe113 1.997 . S
O130 C125 1.235 . S
C131 O114 1.295 . S
C131 O115 1.235 . S
Fe132 O134 1.918 . S
Fe132 O137 1.997 . S
Fe132 O138 2.002 . S
Fe132 O143 1.976 . S
Fe132 O146 1.996 . S
Fe133 O134 1.918 . S
Fe133 O141 1.997 . S
Fe133 O144 1.996 . S
Fe133 O148 1.976 . S
Fe133 O151 2.002 . S
O134 Fe132 1.918 . S
O134 Fe133 1.918 . S
O134 Fe135 1.918 . S
Fe135 O134 1.918 . S
Fe135 O136 2.002 . S
Fe135 O145 1.976 1_655 S
Fe135 O149 1.996 . S
Fe135 O152 1.997 . S
O136 Fe135 2.002 . S
O136 C153 1.295 . S
O137 Fe132 1.997 . S
O137 C153 1.235 . S
O138 Fe132 2.002 . S
O138 C139 1.295 . S
C139 O138 1.295 . S
C139 O141 1.235 . S
C140 O145 1.287 . S
C140 O146 1.255 1_455 S
O141 Fe133 1.997 . S
O141 C139 1.235 . S
C142 O148 1.287 . S
C142 O149 1.255 . S
O143 Fe132 1.976 . S
O143 C150 1.287 . S
O144 Fe133 1.996 . S
O144 C150 1.255 . S
O145 Fe135 1.976 1_455 S
O145 C140 1.287 . S
O146 Fe132 1.996 . S
O146 C140 1.255 1_655 S
C147 O151 1.295 . S
C147 O152 1.235 . S
O148 Fe133 1.976 . S
O148 C142 1.287 . S
O149 Fe135 1.996 . S
O149 C142 1.255 . S
C150 O143 1.287 . S
C150 O144 1.255 . S
O151 Fe133 2.002 . S
O151 C147 1.295 . S
O152 Fe135 1.997 . S
O152 C147 1.235 . S
C153 O136 1.295 . S
C153 O137 1.235 . S
Fe154 O156 1.918 . S
Fe154 O159 1.997 . S
Fe154 O160 2.002 . S
Fe154 O165 1.976 . S
Fe154 O168 1.996 . S
Fe155 O156 1.918 . S
Fe155 O163 1.997 . S
Fe155 O166 1.996 . S
Fe155 O170 1.976 . S
Fe155 O173 2.002 . S
O156 Fe154 1.918 . S
O156 Fe155 1.918 . S
O156 Fe157 1.918 . S
Fe157 O156 1.918 . S
Fe157 O158 2.002 . S
Fe157 O167 1.976 1_565 S
Fe157 O171 1.996 . S
Fe157 O174 1.997 . S
O158 Fe157 2.002 . S
O158 C175 1.295 . S
O159 Fe154 1.997 . S
O159 C175 1.235 . S
O160 Fe154 2.002 . S
O160 C161 1.295 . S
C161 O160 1.295 . S
C161 O163 1.235 . S
C162 O167 1.287 . S
C162 O168 1.255 1_545 S
O163 Fe155 1.997 . S
O163 C161 1.235 . S
C164 O170 1.287 . S
C164 O171 1.255 . S
O165 Fe154 1.976 . S
O165 C172 1.287 . S
O166 Fe155 1.996 . S
O166 C172 1.255 . S
O167 Fe157 1.976 1_545 S
O167 C162 1.287 . S
O168 Fe154 1.996 . S
O168 C162 1.255 1_565 S
C169 O173 1.295 . S
C169 O174 1.235 . S
O170 Fe155 1.976 . S
O170 C164 1.287 . S
O171 Fe157 1.996 . S
O171 C164 1.255 . S
C172 O165 1.287 . S
C172 O166 1.255 . S
O173 Fe155 2.002 . S
O173 C169 1.295 . S
O174 Fe157 1.997 . S
O174 C169 1.235 . S
C175 O158 1.295 . S
C175 O159 1.235 . S
Fe176 O178 1.918 . S
Fe176 O181 1.997 . S
Fe176 O182 2.002 . S
Fe176 O187 1.976 . S
Fe176 O190 1.996 . S
Fe177 O178 1.918 . S
Fe177 O185 1.997 . S
Fe177 O188 1.996 . S
Fe177 O192 1.976 . S
Fe177 O195 2.002 . S
O178 Fe176 1.918 . S
O178 Fe177 1.918 . S
O178 Fe179 1.918 . S
Fe179 O178 1.918 . S
Fe179 O180 2.002 . S
Fe179 O189 1.976 . S
Fe179 O193 1.996 . S
Fe179 O196 1.997 . S
O180 Fe179 2.002 . S
O180 C197 1.295 . S
O181 Fe176 1.997 . S
O181 C197 1.235 . S
O182 Fe176 2.002 . S
O182 C183 1.295 . S
C183 O182 1.295 . S
C183 O185 1.235 . S
C184 O189 1.287 . S
C184 O190 1.255 . S
O185 Fe177 1.997 . S
O185 C183 1.235 . S
C186 O192 1.287 . S
C186 O193 1.255 . S
O187 Fe176 1.976 . S
O187 C194 1.287 . S
O188 Fe177 1.996 . S
O188 C194 1.255 . S
O189 Fe179 1.976 . S
O189 C184 1.287 . S
O190 Fe176 1.996 . S
O190 C184 1.255 . S
C191 O195 1.295 . S
C191 O196 1.235 . S
O192 Fe177 1.976 . S
O192 C186 1.287 . S
O193 Fe179 1.996 . S
O193 C186 1.255 . S
C194 O187 1.287 . S
C194 O188 1.255 . S
O195 Fe177 2.002 . S
O195 C191 1.295 . S
O196 Fe179 1.997 . S
O196 C191 1.235 . S
C197 O180 1.295 . S
C197 O181 1.235 . S
Fe198 O200 1.918 . S
Fe198 O203 1.997 . S
Fe198 O204 2.002 . S
Fe198 O209 1.976 . S
Fe198 O212 1.996 . S
Fe199 O200 1.918 . S
Fe199 O207 1.997 . S
Fe199 O210 1.996 . S
Fe199 O214 1.976 . S
Fe199 O217 2.002 . S
O200 Fe198 1.918 . S
O200 Fe199 1.918 . S
O200 Fe201 1.918 . S
Fe201 O200 1.918 . S
Fe201 O202 2.002 . S
Fe201 O211 1.976 . S
Fe201 O215 1.996 . S
Fe201 O218 1.997 . S
O202 Fe201 2.002 . S
O202 C219 1.295 . S
O203 Fe198 1.997 . S
O203 C219 1.235 . S
O204 Fe198 2.002 . S
O204 C205 1.295 . S
C205 O204 1.295 . S
C205 O207 1.235 . S
C206 O211 1.287 . S
C206 O212 1.255 . S
O207 Fe199 1.997 . S
O207 C205 1.235 . S
C208 O214 1.287 . S
C208 O215 1.255 . S
O209 Fe198 1.976 . S
O209 C216 1.287 . S
O210 Fe199 1.996 . S
O210 C216 1.255 . S
O211 Fe201 1.976 . S
O211 C206 1.287 . S
O212 Fe198 1.996 . S
O212 C206 1.255 . S
C213 O217 1.295 . S
C213 O218 1.235 . S
O214 Fe199 1.976 . S
O214 C208 1.287 . S
O215 Fe201 1.996 . S
O215 C208 1.255 . S
C216 O209 1.287 . S
C216 O210 1.255 . S
O217 Fe199 2.002 . S
O217 C213 1.295 . S
O218 Fe201 1.997 . S
O218 C213 1.235 . S
C219 O202 1.295 . S
C219 O203 1.235 . S
Fe220 O222 1.918 . S
Fe220 O225 1.997 . S
Fe220 O226 2.002 . S
Fe220 O231 1.976 . S
Fe220 O234 1.996 . S
Fe221 O222 1.918 . S
Fe221 O229 1.997 . S
Fe221 O232 1.996 . S
Fe221 O236 1.976 . S
Fe221 O239 2.002 . S
O222 Fe220 1.918 . S
O222 Fe221 1.918 . S
O222 Fe223 1.918 . S
Fe223 O222 1.918 . S
Fe223 O224 2.002 . S
Fe223 O233 1.976 . S
Fe223 O237 1.996 1_455 S
Fe223 O240 1.997 . S
O224 Fe223 2.002 . S
O224 C241 1.295 . S
O225 Fe220 1.997 . S
O225 C241 1.235 . S
O226 Fe220 2.002 . S
O226 C227 1.295 . S
C227 O226 1.295 . S
C227 O229 1.235 . S
C228 O233 1.287 . S
C228 O234 1.255 . S
O229 Fe221 1.997 . S
O229 C227 1.235 . S
C230 O236 1.287 1_655 S
C230 O237 1.255 . S
O231 Fe220 1.976 . S
O231 C238 1.287 . S
O232 Fe221 1.996 . S
O232 C238 1.255 . S
O233 Fe223 1.976 . S
O233 C228 1.287 . S
O234 Fe220 1.996 . S
O234 C228 1.255 . S
C235 O239 1.295 . S
C235 O240 1.235 . S
O236 Fe221 1.976 . S
O236 C230 1.287 1_455 S
O237 Fe223 1.996 1_655 S
O237 C230 1.255 . S
C238 O231 1.287 . S
C238 O232 1.255 . S
O239 Fe221 2.002 . S
O239 C235 1.295 . S
O240 Fe223 1.997 . S
O240 C235 1.235 . S
C241 O224 1.295 . S
C241 O225 1.235 . S
Fe242 O244 1.918 . S
Fe242 O247 1.997 . S
Fe242 O248 2.002 . S
Fe242 O253 1.976 . S
Fe242 O256 1.996 . S
Fe243 O244 1.918 . S
Fe243 O251 1.997 . S
Fe243 O254 1.996 . S
Fe243 O258 1.976 . S
Fe243 O261 2.002 . S
O244 Fe242 1.918 . S
O244 Fe243 1.918 . S
O244 Fe245 1.918 . S
Fe245 O244 1.918 . S
Fe245 O246 2.002 . S
Fe245 O255 1.976 . S
Fe245 O259 1.996 1_545 S
Fe245 O262 1.997 . S
O246 Fe245 2.002 . S
O246 C263 1.295 . S
O247 Fe242 1.997 . S
O247 C263 1.235 . S
O248 Fe242 2.002 . S
O248 C249 1.295 . S
C249 O248 1.295 . S
C249 O251 1.235 . S
C250 O255 1.287 . S
C250 O256 1.255 . S
O251 Fe243 1.997 . S
O251 C249 1.235 . S
C252 O258 1.287 1_565 S
C252 O259 1.255 . S
O253 Fe242 1.976 . S
O253 C260 1.287 . S
O254 Fe243 1.996 . S
O254 C260 1.255 . S
O255 Fe245 1.976 . S
O255 C250 1.287 . S
O256 Fe242 1.996 . S
O256 C250 1.255 . S
C257 O261 1.295 . S
C257 O262 1.235 . S
O258 Fe243 1.976 . S
O258 C252 1.287 1_545 S
O259 Fe245 1.996 1_565 S
O259 C252 1.255 . S
C260 O253 1.287 . S
C260 O254 1.255 . S
O261 Fe243 2.002 . S
O261 C257 1.295 . S
O262 Fe245 1.997 . S
O262 C257 1.235 . S
C263 O246 1.295 . S
C263 O247 1.235 . S
Fe264 O266 1.918 . S
Fe264 O269 1.997 . S
Fe264 O270 2.002 . S
Fe264 O275 1.976 . S
Fe264 O278 1.996 . S
Fe265 O266 1.918 . S
Fe265 O273 1.997 . S
Fe265 O276 1.996 . S
Fe265 O280 1.976 . S
Fe265 O283 2.002 . S
O266 Fe264 1.918 . S
O266 Fe265 1.918 . S
O266 Fe267 1.918 . S
Fe267 O266 1.918 . S
Fe267 O268 2.002 . S
Fe267 O277 1.976 . S
Fe267 O281 1.996 . S
Fe267 O284 1.997 . S
O268 Fe267 2.002 . S
O268 C285 1.295 . S
O269 Fe264 1.997 . S
O269 C285 1.235 . S
O270 Fe264 2.002 . S
O270 C271 1.295 . S
C271 O270 1.295 . S
C271 O273 1.235 . S
C272 O277 1.287 . S
C272 O278 1.255 . S
O273 Fe265 1.997 . S
O273 C271 1.235 . S
C274 O280 1.287 . S
C274 O281 1.255 . S
O275 Fe264 1.976 . S
O275 C282 1.287 . S
O276 Fe265 1.996 . S
O276 C282 1.255 . S
O277 Fe267 1.976 . S
O277 C272 1.287 . S
O278 Fe264 1.996 . S
O278 C272 1.255 . S
C279 O283 1.295 . S
C279 O284 1.235 . S
O280 Fe265 1.976 . S
O280 C274 1.287 . S
O281 Fe267 1.996 . S
O281 C274 1.255 . S
C282 O275 1.287 . S
C282 O276 1.255 . S
O283 Fe265 2.002 . S
O283 C279 1.295 . S
O284 Fe267 1.997 . S
O284 C279 1.235 . S
C285 O268 1.295 . S
C285 O269 1.235 . S
Fe286 O288 1.918 . S
Fe286 O291 1.997 . S
Fe286 O292 2.002 . S
Fe286 O297 1.976 . S
Fe286 O300 1.996 . S
Fe287 O288 1.918 . S
Fe287 O295 1.997 . S
Fe287 O298 1.996 . S
Fe287 O302 1.976 . S
Fe287 O305 2.002 . S
O288 Fe286 1.918 . S
O288 Fe287 1.918 . S
O288 Fe289 1.918 . S
Fe289 O288 1.918 . S
Fe289 O290 2.002 . S
Fe289 O299 1.976 . S
Fe289 O303 1.996 . S
Fe289 O306 1.997 . S
O290 Fe289 2.002 . S
O290 C307 1.295 . S
O291 Fe286 1.997 . S
O291 C307 1.235 . S
O292 Fe286 2.002 . S
O292 C293 1.295 . S
C293 O292 1.295 . S
C293 O295 1.235 . S
C294 O299 1.287 . S
C294 O300 1.255 . S
O295 Fe287 1.997 . S
O295 C293 1.235 . S
C296 O302 1.287 . S
C296 O303 1.255 . S
O297 Fe286 1.976 . S
O297 C304 1.287 . S
O298 Fe287 1.996 . S
O298 C304 1.255 . S
O299 Fe289 1.976 . S
O299 C294 1.287 . S
O300 Fe286 1.996 . S
O300 C294 1.255 . S
C301 O305 1.295 . S
C301 O306 1.235 . S
O302 Fe287 1.976 . S
O302 C296 1.287 . S
O303 Fe289 1.996 . S
O303 C296 1.255 . S
C304 O297 1.287 . S
C304 O298 1.255 . S
O305 Fe287 2.002 . S
O305 C301 1.295 . S
O306 Fe289 1.997 . S
O306 C301 1.235 . S
C307 O290 1.295 . S
C307 O291 1.235 . S
Fe308 O310 1.918 . S
Fe308 O313 1.997 . S
Fe308 O314 2.002 . S
Fe308 O319 1.976 . S
Fe308 O322 1.996 1_455 S
Fe309 O310 1.918 . S
Fe309 O317 1.997 . S
Fe309 O320 1.996 . S
Fe309 O324 1.976 . S
Fe309 O327 2.002 . S
O310 Fe308 1.918 . S
O310 Fe309 1.918 . S
O310 Fe311 1.918 . S
Fe311 O310 1.918 . S
Fe311 O312 2.002 . S
Fe311 O321 1.976 . S
Fe311 O325 1.996 . S
Fe311 O328 1.997 . S
O312 Fe311 2.002 . S
O312 C329 1.295 . S
O313 Fe308 1.997 . S
O313 C329 1.235 . S
O314 Fe308 2.002 . S
O314 C315 1.295 . S
C315 O314 1.295 . S
C315 O317 1.235 . S
C316 O321 1.287 1_655 S
C316 O322 1.255 . S
O317 Fe309 1.997 . S
O317 C315 1.235 . S
C318 O324 1.287 . S
C318 O325 1.255 . S
O319 Fe308 1.976 . S
O319 C326 1.287 . S
O320 Fe309 1.996 . S
O320 C326 1.255 . S
O321 Fe311 1.976 . S
O321 C316 1.287 1_455 S
O322 Fe308 1.996 1_655 S
O322 C316 1.255 . S
C323 O327 1.295 . S
C323 O328 1.235 . S
O324 Fe309 1.976 . S
O324 C318 1.287 . S
O325 Fe311 1.996 . S
O325 C318 1.255 . S
C326 O319 1.287 . S
C326 O320 1.255 . S
O327 Fe309 2.002 . S
O327 C323 1.295 . S
O328 Fe311 1.997 . S
O328 C323 1.235 . S
C329 O312 1.295 . S
C329 O313 1.235 . S
Fe330 O332 1.918 . S
Fe330 O335 1.997 . S
Fe330 O336 2.002 . S
Fe330 O341 1.976 . S
Fe330 O344 1.996 . S
Fe331 O332 1.918 . S
Fe331 O339 1.997 . S
Fe331 O342 1.996 1_545 S
Fe331 O346 1.976 . S
Fe331 O349 2.002 . S
O332 Fe330 1.918 . S
O332 Fe331 1.918 . S
O332 Fe333 1.918 . S
Fe333 O332 1.918 . S
Fe333 O334 2.002 . S
Fe333 O343 1.976 . S
Fe333 O347 1.996 . S
Fe333 O350 1.997 . S
O334 Fe333 2.002 . S
O334 C351 1.295 . S
O335 Fe330 1.997 . S
O335 C351 1.235 . S
O336 Fe330 2.002 . S
O336 C337 1.295 . S
C337 O336 1.295 . S
C337 O339 1.235 . S
C338 O343 1.287 . S
C338 O344 1.255 . S
O339 Fe331 1.997 . S
O339 C337 1.235 . S
C340 O346 1.287 . S
C340 O347 1.255 . S
O341 Fe330 1.976 . S
O341 C348 1.287 1_545 S
O342 Fe331 1.996 1_565 S
O342 C348 1.255 . S
O343 Fe333 1.976 . S
O343 C338 1.287 . S
O344 Fe330 1.996 . S
O344 C338 1.255 . S
C345 O349 1.295 . S
C345 O350 1.235 . S
O346 Fe331 1.976 . S
O346 C340 1.287 . S
O347 Fe333 1.996 . S
O347 C340 1.255 . S
C348 O341 1.287 1_565 S
C348 O342 1.255 . S
O349 Fe331 2.002 . S
O349 C345 1.295 . S
O350 Fe333 1.997 . S
O350 C345 1.235 . S
C351 O334 1.295 . S
C351 O335 1.235 . S
C352 C353 1.363 . S
C352 C358 1.379 . S
C352 N360 1.356 . S
C353 C352 1.363 . S
C353 C359 1.363 . S
C354 C355 1.363 . S
C354 C359 1.379 . S
C354 N361 1.356 . S
C355 C354 1.363 . S
C355 C358 1.363 . S
N356 C358 1.356 . S
N356 H368 0.984 . S
N356 H369 0.985 . S
N357 C359 1.356 . S
N357 H362 0.984 . S
N357 H363 0.985 . S
C358 C352 1.379 . S
C358 C355 1.363 . S
C358 N356 1.356 . S
C359 C353 1.363 . S
C359 C354 1.379 . S
C359 N357 1.356 . S
N360 C352 1.356 . S
N360 H366 0.984 . S
N360 H367 0.984 . S
N361 C354 1.356 . S
N361 H364 0.984 . S
N361 H365 0.985 . S
H362 N357 0.984 . S
H363 N357 0.985 . S
H364 N361 0.984 . S
H365 N361 0.985 . S
H366 N360 0.984 . S
H367 N360 0.984 . S
H368 N356 0.984 . S
H369 N356 0.985 . S
C370 C371 1.363 . S
C370 C376 1.379 . S
C370 N378 1.356 . S
C371 C370 1.363 . S
C371 C377 1.363 . S
C372 C373 1.363 . S
C372 C377 1.379 . S
C372 N379 1.356 . S
C373 C372 1.363 . S
C373 C376 1.363 . S
N374 C376 1.356 . S
N374 H386 0.984 . S
N374 H387 0.985 . S
N375 C377 1.356 . S
N375 H380 0.984 . S
N375 H381 0.985 . S
C376 C370 1.379 . S
C376 C373 1.363 . S
C376 N374 1.356 . S
C377 C371 1.363 . S
C377 C372 1.379 . S
C377 N375 1.356 . S
N378 C370 1.356 . S
N378 H384 0.984 . S
N378 H385 0.984 . S
N379 C372 1.356 . S
N379 H382 0.984 . S
N379 H383 0.985 . S
H380 N375 0.984 . S
H381 N375 0.985 . S
H382 N379 0.984 . S
H383 N379 0.985 . S
H384 N378 0.984 . S
H385 N378 0.984 . S
H386 N374 0.984 . S
H387 N374 0.985 . S
C388 C389 1.363 . S
C388 C394 1.379 . S
C388 N396 1.356 . S
C389 C388 1.363 . S
C389 C395 1.363 . S
C390 C391 1.363 . S
C390 C395 1.379 . S
C390 N397 1.356 . S
C391 C390 1.363 . S
C391 C394 1.363 . S
N392 C394 1.356 . S
N392 H404 0.984 . S
N392 H405 0.985 . S
N393 C395 1.356 . S
N393 H398 0.984 . S
N393 H399 0.985 . S
C394 C388 1.379 . S
C394 C391 1.363 . S
C394 N392 1.356 . S
C395 C389 1.363 . S
C395 C390 1.379 . S
C395 N393 1.356 . S
N396 C388 1.356 . S
N396 H402 0.984 . S
N396 H403 0.984 . S
N397 C390 1.356 . S
N397 H400 0.984 . S
N397 H401 0.985 . S
H398 N393 0.984 . S
H399 N393 0.985 . S
H400 N397 0.984 . S
H401 N397 0.985 . S
H402 N396 0.984 . S
H403 N396 0.984 . S
H404 N392 0.984 . S
H405 N392 0.985 . S
C406 C407 1.363 . S
C406 C412 1.379 . S
C406 N414 1.356 . S
C407 C406 1.363 . S
C407 C413 1.363 . S
C408 C409 1.363 . S
C408 C413 1.379 . S
C408 N415 1.356 . S
C409 C408 1.363 . S
C409 C412 1.363 . S
N410 C412 1.356 . S
N410 H422 0.984 . S
N410 H423 0.985 . S
N411 C413 1.356 . S
N411 H416 0.984 . S
N411 H417 0.985 . S
C412 C406 1.379 . S
C412 C409 1.363 . S
C412 N410 1.356 . S
C413 C407 1.363 . S
C413 C408 1.379 . S
C413 N411 1.356 . S
N414 C406 1.356 . S
N414 H420 0.984 . S
N414 H421 0.984 . S
N415 C408 1.356 . S
N415 H418 0.984 . S
N415 H419 0.985 . S
H416 N411 0.984 . S
H417 N411 0.985 . S
H418 N415 0.984 . S
H419 N415 0.985 . S
H420 N414 0.984 . S
H421 N414 0.984 . S
H422 N410 0.984 . S
H423 N410 0.985 . S
C424 C425 1.363 . S
C424 C430 1.379 . S
C424 N432 1.356 . S
C425 C424 1.363 . S
C425 C431 1.363 . S
C426 C427 1.363 . S
C426 C431 1.379 . S
C426 N433 1.356 . S
C427 C426 1.363 . S
C427 C430 1.363 . S
N428 C430 1.356 . S
N428 H440 0.984 . S
N428 H441 0.985 . S
N429 C431 1.356 . S
N429 H434 0.984 . S
N429 H435 0.985 . S
C430 C424 1.379 . S
C430 C427 1.363 . S
C430 N428 1.356 . S
C431 C425 1.363 . S
C431 C426 1.379 . S
C431 N429 1.356 . S
N432 C424 1.356 . S
N432 H438 0.984 . S
N432 H439 0.984 . S
N433 C426 1.356 . S
N433 H436 0.984 . S
N433 H437 0.985 . S
H434 N429 0.984 . S
H435 N429 0.985 . S
H436 N433 0.984 . S
H437 N433 0.985 . S
H438 N432 0.984 . S
H439 N432 0.984 . S
H440 N428 0.984 . S
H441 N428 0.985 . S
C442 C443 1.363 . S
C442 C448 1.379 . S
C442 N450 1.356 . S
C443 C442 1.363 . S
C443 C449 1.363 . S
C444 C445 1.363 . S
C444 C449 1.379 . S
C444 N451 1.356 . S
C445 C444 1.363 . S
C445 C448 1.363 . S
N446 C448 1.356 . S
N446 H458 0.984 . S
N446 H459 0.985 . S
N447 C449 1.356 . S
N447 H452 0.984 . S
N447 H453 0.985 . S
C448 C442 1.379 . S
C448 C445 1.363 . S
C448 N446 1.356 . S
C449 C443 1.363 . S
C449 C444 1.379 . S
C449 N447 1.356 . S
N450 C442 1.356 . S
N450 H456 0.984 . S
N450 H457 0.984 . S
N451 C444 1.356 . S
N451 H454 0.984 . S
N451 H455 0.985 . S
H452 N447 0.984 . S
H453 N447 0.985 . S
H454 N451 0.984 . S
H455 N451 0.985 . S
H456 N450 0.984 . S
H457 N450 0.984 . S
H458 N446 0.984 . S
H459 N446 0.985 . S
C460 C461 1.363 . S
C460 C466 1.379 . S
C460 N468 1.356 . S
C461 C460 1.363 . S
C461 C467 1.363 . S
C462 C463 1.363 . S
C462 C467 1.379 . S
C462 N469 1.356 . S
C463 C462 1.363 . S
C463 C466 1.363 . S
N464 C466 1.356 . S
N464 H476 0.984 . S
N464 H477 0.985 . S
N465 C467 1.356 . S
N465 H470 0.984 . S
N465 H471 0.985 . S
C466 C460 1.379 . S
C466 C463 1.363 . S
C466 N464 1.356 . S
C467 C461 1.363 . S
C467 C462 1.379 . S
C467 N465 1.356 . S
N468 C460 1.356 . S
N468 H474 0.984 . S
N468 H475 0.984 . S
N469 C462 1.356 . S
N469 H472 0.984 . S
N469 H473 0.985 . S
H470 N465 0.984 . S
H471 N465 0.985 . S
H472 N469 0.984 . S
H473 N469 0.985 . S
H474 N468 0.984 . S
H475 N468 0.984 . S
H476 N464 0.984 . S
H477 N464 0.985 . S
C478 C479 1.363 . S
C478 C484 1.379 . S
C478 N486 1.356 . S
C479 C478 1.363 . S
C479 C485 1.363 . S
C480 C481 1.363 . S
C480 C485 1.379 . S
C480 N487 1.356 . S
C481 C480 1.363 . S
C481 C484 1.363 . S
N482 C484 1.356 . S
N482 H494 0.984 . S
N482 H495 0.985 . S
N483 C485 1.356 . S
N483 H488 0.984 . S
N483 H489 0.985 . S
C484 C478 1.379 . S
C484 C481 1.363 . S
C484 N482 1.356 . S
C485 C479 1.363 . S
C485 C480 1.379 . S
C485 N483 1.356 . S
N486 C478 1.356 . S
N486 H492 0.984 . S
N486 H493 0.984 . S
N487 C480 1.356 . S
N487 H490 0.984 . S
N487 H491 0.985 . S
H488 N483 0.984 . S
H489 N483 0.985 . S
H490 N487 0.984 . S
H491 N487 0.985 . S
H492 N486 0.984 . S
H493 N486 0.984 . S
H494 N482 0.984 . S
H495 N482 0.985 . S
C496 C497 1.363 . S
C496 C502 1.379 . S
C496 N504 1.356 . S
C497 C496 1.363 . S
C497 C503 1.363 . S
C498 C499 1.363 . S
C498 C503 1.379 . S
C498 N505 1.356 . S
C499 C498 1.363 . S
C499 C502 1.363 . S
N500 C502 1.356 . S
N500 H512 0.984 . S
N500 H513 0.985 . S
N501 C503 1.356 . S
N501 H506 0.984 . S
N501 H507 0.985 . S
C502 C496 1.379 . S
C502 C499 1.363 . S
C502 N500 1.356 . S
C503 C497 1.363 . S
C503 C498 1.379 . S
C503 N501 1.356 . S
N504 C496 1.356 . S
N504 H510 0.984 . S
N504 H511 0.984 . S
N505 C498 1.356 . S
N505 H508 0.984 . S
N505 H509 0.985 . S
H506 N501 0.984 . S
H507 N501 0.985 . S
H508 N505 0.984 . S
H509 N505 0.985 . S
H510 N504 0.984 . S
H511 N504 0.984 . S
H512 N500 0.984 . S
H513 N500 0.985 . S
C514 C515 1.363 . S
C514 C520 1.379 . S
C514 N522 1.356 . S
C515 C514 1.363 . S
C515 C521 1.363 . S
C516 C517 1.363 . S
C516 C521 1.379 . S
C516 N523 1.356 . S
C517 C516 1.363 . S
C517 C520 1.363 . S
N518 C520 1.356 . S
N518 H530 0.984 . S
N518 H531 0.985 . S
N519 C521 1.356 . S
N519 H524 0.984 . S
N519 H525 0.985 . S
C520 C514 1.379 . S
C520 C517 1.363 . S
C520 N518 1.356 . S
C521 C515 1.363 . S
C521 C516 1.379 . S
C521 N519 1.356 . S
N522 C514 1.356 . S
N522 H528 0.984 . S
N522 H529 0.984 . S
N523 C516 1.356 . S
N523 H526 0.984 . S
N523 H527 0.985 . S
H524 N519 0.984 . S
H525 N519 0.985 . S
H526 N523 0.984 . S
H527 N523 0.985 . S
H528 N522 0.984 . S
H529 N522 0.984 . S
H530 N518 0.984 . S
H531 N518 0.985 . S
C532 C533 1.363 . S
C532 C538 1.379 . S
C532 N540 1.356 . S
C533 C532 1.363 . S
C533 C539 1.363 . S
C534 C535 1.363 . S
C534 C539 1.379 . S
C534 N541 1.356 . S
C535 C534 1.363 . S
C535 C538 1.363 . S
N536 C538 1.356 . S
N536 H548 0.984 . S
N536 H549 0.985 . S
N537 C539 1.356 . S
N537 H542 0.984 . S
N537 H543 0.985 . S
C538 C532 1.379 . S
C538 C535 1.363 . S
C538 N536 1.356 . S
C539 C533 1.363 . S
C539 C534 1.379 . S
C539 N537 1.356 . S
N540 C532 1.356 . S
N540 H546 0.984 . S
N540 H547 0.984 . S
N541 C534 1.356 . S
N541 H544 0.984 . S
N541 H545 0.985 . S
H542 N537 0.984 . S
H543 N537 0.985 . S
H544 N541 0.984 . S
H545 N541 0.985 . S
H546 N540 0.984 . S
H547 N540 0.984 . S
H548 N536 0.984 . S
H549 N536 0.985 . S
C550 C551 1.363 . S
C550 C556 1.379 . S
C550 N558 1.356 . S
C551 C550 1.363 . S
C551 C557 1.363 . S
C552 C553 1.363 . S
C552 C557 1.379 . S
C552 N559 1.356 . S
C553 C552 1.363 . S
C553 C556 1.363 . S
N554 C556 1.356 . S
N554 H566 0.984 . S
N554 H567 0.985 . S
N555 C557 1.356 . S
N555 H560 0.984 . S
N555 H561 0.985 . S
C556 C550 1.379 . S
C556 C553 1.363 . S
C556 N554 1.356 . S
C557 C551 1.363 . S
C557 C552 1.379 . S
C557 N555 1.356 . S
N558 C550 1.356 . S
N558 H564 0.984 . S
N558 H565 0.984 . S
N559 C552 1.356 . S
N559 H562 0.984 . S
N559 H563 0.985 . S
H560 N555 0.984 . S
H561 N555 0.985 . S
H562 N559 0.984 . S
H563 N559 0.985 . S
H564 N558 0.984 . S
H565 N558 0.984 . S
H566 N554 0.984 . S
H567 N554 0.985 . S
C568 C569 1.363 . S
C568 C574 1.379 . S
C568 N576 1.356 . S
C569 C568 1.363 . S
C569 C575 1.363 . S
C570 C571 1.363 . S
C570 C575 1.379 . S
C570 N577 1.356 . S
C571 C570 1.363 . S
C571 C574 1.363 . S
N572 C574 1.356 . S
N572 H584 0.984 . S
N572 H585 0.985 . S
N573 C575 1.356 . S
N573 H578 0.984 . S
N573 H579 0.985 . S
C574 C568 1.379 . S
C574 C571 1.363 . S
C574 N572 1.356 . S
C575 C569 1.363 . S
C575 C570 1.379 . S
C575 N573 1.356 . S
N576 C568 1.356 . S
N576 H582 0.984 . S
N576 H583 0.984 . S
N577 C570 1.356 . S
N577 H580 0.984 . S
N577 H581 0.985 . S
H578 N573 0.984 . S
H579 N573 0.985 . S
H580 N577 0.984 . S
H581 N577 0.985 . S
H582 N576 0.984 . S
H583 N576 0.984 . S
H584 N572 0.984 . S
H585 N572 0.985 . S
C586 C587 1.363 . S
C586 C592 1.379 . S
C586 N594 1.356 . S
C587 C586 1.363 . S
C587 C593 1.363 . S
C588 C589 1.363 . S
C588 C593 1.379 . S
C588 N595 1.356 . S
C589 C588 1.363 . S
C589 C592 1.363 . S
N590 C592 1.356 . S
N590 H602 0.984 . S
N590 H603 0.985 . S
N591 C593 1.356 . S
N591 H596 0.984 . S
N591 H597 0.985 . S
C592 C586 1.379 . S
C592 C589 1.363 . S
C592 N590 1.356 . S
C593 C587 1.363 . S
C593 C588 1.379 . S
C593 N591 1.356 . S
N594 C586 1.356 . S
N594 H600 0.984 . S
N594 H601 0.984 . S
N595 C588 1.356 . S
N595 H598 0.984 . S
N595 H599 0.985 . S
H596 N591 0.984 . S
H597 N591 0.985 . S
H598 N595 0.984 . S
H599 N595 0.985 . S
H600 N594 0.984 . S
H601 N594 0.984 . S
H602 N590 0.984 . S
H603 N590 0.985 . S
C604 C605 1.363 . S
C604 C610 1.379 . S
C604 N612 1.356 . S
C605 C604 1.363 . S
C605 C611 1.363 . S
C606 C607 1.363 . S
C606 C611 1.379 . S
C606 N613 1.356 . S
C607 C606 1.363 . S
C607 C610 1.363 . S
N608 C610 1.356 . S
N608 H620 0.984 . S
N608 H621 0.985 . S
N609 C611 1.356 . S
N609 H614 0.984 . S
N609 H615 0.985 . S
C610 C604 1.379 . S
C610 C607 1.363 . S
C610 N608 1.356 . S
C611 C605 1.363 . S
C611 C606 1.379 . S
C611 N609 1.356 . S
N612 C604 1.356 . S
N612 H618 0.984 . S
N612 H619 0.984 . S
N613 C606 1.356 . S
N613 H616 0.984 . S
N613 H617 0.985 . S
H614 N609 0.984 . S
H615 N609 0.985 . S
H616 N613 0.984 . S
H617 N613 0.985 . S
H618 N612 0.984 . S
H619 N612 0.984 . S
H620 N608 0.984 . S
H621 N608 0.985 . S
C622 C623 1.363 . S
C622 C628 1.379 . S
C622 N630 1.356 . S
C623 C622 1.363 . S
C623 C629 1.363 . S
C624 C625 1.363 . S
C624 C629 1.379 . S
C624 N631 1.356 . S
C625 C624 1.363 . S
C625 C628 1.363 . S
N626 C628 1.356 . S
N626 H638 0.984 . S
N626 H639 0.985 . S
N627 C629 1.356 . S
N627 H632 0.984 . S
N627 H633 0.985 . S
C628 C622 1.379 . S
C628 C625 1.363 . S
C628 N626 1.356 . S
C629 C623 1.363 . S
C629 C624 1.379 . S
C629 N627 1.356 . S
N630 C622 1.356 . S
N630 H636 0.984 . S
N630 H637 0.984 . S
N631 C624 1.356 . S
N631 H634 0.984 . S
N631 H635 0.985 . S
H632 N627 0.984 . S
H633 N627 0.985 . S
H634 N631 0.984 . S
H635 N631 0.985 . S
H636 N630 0.984 . S
H637 N630 0.984 . S
H638 N626 0.984 . S
H639 N626 0.985 . S
C640 C641 1.363 1_556 S
C640 C646 1.379 . S
C640 N648 1.356 . S
C641 C640 1.363 1_554 S
C641 C647 1.363 . S
C642 C643 1.363 . S
C642 C647 1.379 1_556 S
C642 N649 1.356 . S
C643 C642 1.363 . S
C643 C646 1.363 . S
N644 C646 1.356 . S
N644 H656 0.984 . S
N644 H657 0.985 . S
N645 C647 1.356 . S
N645 H650 0.984 . S
N645 H651 0.985 . S
C646 C640 1.379 . S
C646 C643 1.363 . S
C646 N644 1.356 . S
C647 C641 1.363 . S
C647 C642 1.379 1_554 S
C647 N645 1.356 . S
N648 C640 1.356 . S
N648 H654 0.984 . S
N648 H655 0.984 1_556 S
N649 C642 1.356 . S
N649 H652 0.984 . S
N649 H653 0.985 . S
H650 N645 0.984 . S
H651 N645 0.985 . S
H652 N649 0.984 . S
H653 N649 0.985 . S
H654 N648 0.984 . S
H655 N648 0.984 1_554 S
H656 N644 0.984 . S
H657 N644 0.985 . S
C658 C659 1.363 . S
C658 C664 1.379 . S
C658 N666 1.356 . S
C659 C658 1.363 . S
C659 C665 1.363 . S
C660 C661 1.363 . S
C660 C665 1.379 . S
C660 N667 1.356 . S
C661 C660 1.363 . S
C661 C664 1.363 . S
N662 C664 1.356 . S
N662 H674 0.984 . S
N662 H675 0.985 . S
N663 C665 1.356 . S
N663 H668 0.984 . S
N663 H669 0.985 . S
C664 C658 1.379 . S
C664 C661 1.363 . S
C664 N662 1.356 . S
C665 C659 1.363 . S
C665 C660 1.379 . S
C665 N663 1.356 . S
N666 C658 1.356 . S
N666 H672 0.984 . S
N666 H673 0.984 . S
N667 C660 1.356 . S
N667 H670 0.984 . S
N667 H671 0.985 . S
H668 N663 0.984 . S
H669 N663 0.985 . S
H670 N667 0.984 . S
H671 N667 0.985 . S
H672 N666 0.984 . S
H673 N666 0.984 . S
H674 N662 0.984 . S
H675 N662 0.985 . S
C676 C677 1.363 . S
C676 C682 1.379 1_554 S
C676 N684 1.356 . S
C677 C676 1.363 . S
C677 C683 1.363 1_554 S
C678 C679 1.363 . S
C678 C683 1.379 . S
C678 N685 1.356 . S
C679 C678 1.363 . S
C679 C682 1.363 . S
N680 C682 1.356 . S
N680 H692 0.984 . S
N680 H693 0.985 . S
N681 C683 1.356 . S
N681 H686 0.984 1_556 S
N681 H687 0.985 . S
C682 C676 1.379 1_556 S
C682 C679 1.363 . S
C682 N680 1.356 . S
C683 C677 1.363 1_556 S
C683 C678 1.379 . S
C683 N681 1.356 . S
N684 C676 1.356 . S
N684 H690 0.984 . S
N684 H691 0.984 . S
N685 C678 1.356 . S
N685 H688 0.984 . S
N685 H689 0.985 . S
H686 N681 0.984 1_554 S
H687 N681 0.985 . S
H688 N685 0.984 . S
H689 N685 0.985 . S
H690 N684 0.984 . S
H691 N684 0.984 . S
H692 N680 0.984 . S
H693 N680 0.985 . S
C694 C695 1.363 . S
C694 C700 1.379 . S
C694 N702 1.356 . S
C695 C694 1.363 . S
C695 C701 1.363 . S
C696 C697 1.363 . S
C696 C701 1.379 . S
C696 N703 1.356 . S
C697 C696 1.363 . S
C697 C700 1.363 . S
N698 C700 1.356 . S
N698 H710 0.984 . S
N698 H711 0.985 . S
N699 C701 1.356 . S
N699 H704 0.984 . S
N699 H705 0.985 . S
C700 C694 1.379 . S
C700 C697 1.363 . S
C700 N698 1.356 . S
C701 C695 1.363 . S
C701 C696 1.379 . S
C701 N699 1.356 . S
N702 C694 1.356 . S
N702 H708 0.984 . S
N702 H709 0.984 . S
N703 C696 1.356 . S
N703 H706 0.984 . S
N703 H707 0.985 . S
H704 N699 0.984 . S
H705 N699 0.985 . S
H706 N703 0.984 . S
H707 N703 0.985 . S
H708 N702 0.984 . S
H709 N702 0.984 . S
H710 N698 0.984 . S
H711 N698 0.985 . S
C712 C713 1.363 1_554 S
C712 C718 1.379 . S
C712 N720 1.356 . S
C713 C712 1.363 1_556 S
C713 C719 1.363 . S
C714 C715 1.363 . S
C714 C719 1.379 1_554 S
C714 N721 1.356 . S
C715 C714 1.363 . S
C715 C718 1.363 . S
N716 C718 1.356 . S
N716 H728 0.984 . S
N716 H729 0.985 . S
N717 C719 1.356 . S
N717 H722 0.984 . S
N717 H723 0.985 . S
C718 C712 1.379 . S
C718 C715 1.363 . S
C718 N716 1.356 . S
C719 C713 1.363 . S
C719 C714 1.379 1_556 S
C719 N717 1.356 . S
N720 C712 1.356 . S
N720 H726 0.984 . S
N720 H727 0.984 1_554 S
N721 C714 1.356 . S
N721 H724 0.984 . S
N721 H725 0.985 . S
H722 N717 0.984 . S
H723 N717 0.985 . S
H724 N721 0.984 . S
H725 N721 0.985 . S
H726 N720 0.984 . S
H727 N720 0.984 1_556 S
H728 N716 0.984 . S
H729 N716 0.985 . S
C730 C731 1.363 . S
C730 C736 1.379 . S
C730 N738 1.356 . S
C731 C730 1.363 . S
C731 C737 1.363 . S
C732 C733 1.363 . S
C732 C737 1.379 . S
C732 N739 1.356 . S
C733 C732 1.363 . S
C733 C736 1.363 . S
N734 C736 1.356 . S
N734 H746 0.984 . S
N734 H747 0.985 . S
N735 C737 1.356 . S
N735 H740 0.984 . S
N735 H741 0.985 . S
C736 C730 1.379 . S
C736 C733 1.363 . S
C736 N734 1.356 . S
C737 C731 1.363 . S
C737 C732 1.379 . S
C737 N735 1.356 . S
N738 C730 1.356 . S
N738 H744 0.984 . S
N738 H745 0.984 . S
N739 C732 1.356 . S
N739 H742 0.984 . S
N739 H743 0.985 . S
H740 N735 0.984 . S
H741 N735 0.985 . S
H742 N739 0.984 . S
H743 N739 0.985 . S
H744 N738 0.984 . S
H745 N738 0.984 . S
H746 N734 0.984 . S
H747 N734 0.985 . S
C748 C749 1.363 1_554 S
C748 C754 1.379 . S
C748 N756 1.356 . S
C749 C748 1.363 1_556 S
C749 C755 1.363 . S
C750 C751 1.363 . S
C750 C755 1.379 1_554 S
C750 N757 1.356 . S
C751 C750 1.363 . S
C751 C754 1.363 . S
N752 C754 1.356 . S
N752 H764 0.984 . S
N752 H765 0.985 . S
N753 C755 1.356 . S
N753 H758 0.984 . S
N753 H759 0.985 . S
C754 C748 1.379 . S
C754 C751 1.363 . S
C754 N752 1.356 . S
C755 C749 1.363 . S
C755 C750 1.379 1_556 S
C755 N753 1.356 . S
N756 C748 1.356 . S
N756 H762 0.984 . S
N756 H763 0.984 1_554 S
N757 C750 1.356 . S
N757 H760 0.984 . S
N757 H761 0.985 . S
H758 N753 0.984 . S
H759 N753 0.985 . S
H760 N757 0.984 . S
H761 N757 0.985 . S
H762 N756 0.984 . S
H763 N756 0.984 1_556 S
H764 N752 0.984 . S
H765 N752 0.985 . S
C766 C767 1.363 . S
C766 C772 1.379 . S
C766 N774 1.356 . S
C767 C766 1.363 . S
C767 C773 1.363 . S
C768 C769 1.363 . S
C768 C773 1.379 . S
C768 N775 1.356 . S
C769 C768 1.363 . S
C769 C772 1.363 . S
N770 C772 1.356 . S
N770 H782 0.984 . S
N770 H783 0.985 . S
N771 C773 1.356 . S
N771 H776 0.984 . S
N771 H777 0.985 . S
C772 C766 1.379 . S
C772 C769 1.363 . S
C772 N770 1.356 . S
C773 C767 1.363 . S
C773 C768 1.379 . S
C773 N771 1.356 . S
N774 C766 1.356 . S
N774 H780 0.984 . S
N774 H781 0.984 . S
N775 C768 1.356 . S
N775 H778 0.984 . S
N775 H779 0.985 . S
H776 N771 0.984 . S
H777 N771 0.985 . S
H778 N775 0.984 . S
H779 N775 0.985 . S
H780 N774 0.984 . S
H781 N774 0.984 . S
H782 N770 0.984 . S
H783 N770 0.985 . S
C784 C785 1.363 1_554 S
C784 C790 1.379 . S
C784 N792 1.356 1_554 S
C785 C784 1.363 1_556 S
C785 C791 1.363 1_556 S
C786 C787 1.363 . S
C786 C791 1.379 . S
C786 N793 1.356 . S
C787 C786 1.363 . S
C787 C790 1.363 . S
N788 C790 1.356 . S
N788 H800 0.984 1_565 S
N788 H801 0.985 . S
N789 C791 1.356 1_556 S
N789 H794 0.984 . S
N789 H795 0.985 1_556 S
C790 C784 1.379 . S
C790 C787 1.363 . S
C790 N788 1.356 . S
C791 C785 1.363 1_554 S
C791 C786 1.379 . S
C791 N789 1.356 1_554 S
N792 C784 1.356 1_556 S
N792 H798 0.984 . S
N792 H799 0.984 . S
N793 C786 1.356 . S
N793 H796 0.984 . S
N793 H797 0.985 . S
H794 N789 0.984 . S
H795 N789 0.985 1_554 S
H796 N793 0.984 . S
H797 N793 0.985 . S
H798 N792 0.984 . S
H799 N792 0.984 . S
H800 N788 0.984 1_545 S
H801 N788 0.985 . S
C802 C803 1.363 . S
C802 C808 1.379 . S
C802 N810 1.356 . S
C803 C802 1.363 . S
C803 C809 1.363 . S
C804 C805 1.363 . S
C804 C809 1.379 . S
C804 N811 1.356 . S
C805 C804 1.363 . S
C805 C808 1.363 . S
N806 C808 1.356 . S
N806 H818 0.984 . S
N806 H819 0.985 . S
N807 C809 1.356 . S
N807 H812 0.984 . S
N807 H813 0.985 . S
C808 C802 1.379 . S
C808 C805 1.363 . S
C808 N806 1.356 . S
C809 C803 1.363 . S
C809 C804 1.379 . S
C809 N807 1.356 . S
N810 C802 1.356 . S
N810 H816 0.984 . S
N810 H817 0.984 . S
N811 C804 1.356 . S
N811 H814 0.984 . S
N811 H815 0.985 . S
H812 N807 0.984 . S
H813 N807 0.985 . S
H814 N811 0.984 . S
H815 N811 0.985 . S
H816 N810 0.984 . S
H817 N810 0.984 . S
H818 N806 0.984 . S
H819 N806 0.985 . S
C820 C821 1.363 . S
C820 C826 1.379 1_556 S
C820 N828 1.356 . S
C821 C820 1.363 . S
C821 C827 1.363 1_556 S
C822 C823 1.363 . S
C822 C827 1.379 . S
C822 N829 1.356 . S
C823 C822 1.363 . S
C823 C826 1.363 . S
N824 C826 1.356 . S
N824 H836 0.984 . S
N824 H837 0.985 . S
N825 C827 1.356 . S
N825 H830 0.984 1_554 S
N825 H831 0.985 . S
C826 C820 1.379 1_554 S
C826 C823 1.363 . S
C826 N824 1.356 . S
C827 C821 1.363 1_554 S
C827 C822 1.379 . S
C827 N825 1.356 . S
N828 C820 1.356 . S
N828 H834 0.984 . S
N828 H835 0.984 . S
N829 C822 1.356 . S
N829 H832 0.984 . S
N829 H833 0.985 . S
H830 N825 0.984 1_556 S
H831 N825 0.985 . S
H832 N829 0.984 . S
H833 N829 0.985 . S
H834 N828 0.984 . S
H835 N828 0.984 . S
H836 N824 0.984 . S
H837 N824 0.985 . S
C838 C839 1.363 . S
C838 C844 1.379 . S
C838 N846 1.356 . S
C839 C838 1.363 . S
C839 C845 1.363 . S
C840 C841 1.363 . S
C840 C845 1.379 . S
C840 N847 1.356 . S
C841 C840 1.363 . S
C841 C844 1.363 . S
N842 C844 1.356 . S
N842 H854 0.984 . S
N842 H855 0.985 . S
N843 C845 1.356 . S
N843 H848 0.984 . S
N843 H849 0.985 . S
C844 C838 1.379 . S
C844 C841 1.363 . S
C844 N842 1.356 . S
C845 C839 1.363 . S
C845 C840 1.379 . S
C845 N843 1.356 . S
N846 C838 1.356 . S
N846 H852 0.984 . S
N846 H853 0.984 . S
N847 C840 1.356 . S
N847 H850 0.984 . S
N847 H851 0.985 . S
H848 N843 0.984 . S
H849 N843 0.985 . S
H850 N847 0.984 . S
H851 N847 0.985 . S
H852 N846 0.984 . S
H853 N846 0.984 . S
H854 N842 0.984 . S
H855 N842 0.985 . S
C856 C857 1.363 . S
C856 C862 1.379 . S
C856 N864 1.356 . S
C857 C856 1.363 . S
C857 C863 1.363 . S
C858 C859 1.363 . S
C858 C863 1.379 1_554 S
C858 N865 1.356 . S
C859 C858 1.363 . S
C859 C862 1.363 1_554 S
N860 C862 1.356 . S
N860 H872 0.984 . S
N860 H873 0.985 1_556 S
N861 C863 1.356 . S
N861 H866 0.984 . S
N861 H867 0.985 . S
C862 C856 1.379 . S
C862 C859 1.363 1_556 S
C862 N860 1.356 . S
C863 C857 1.363 . S
C863 C858 1.379 1_556 S
C863 N861 1.356 . S
N864 C856 1.356 . S
N864 H870 0.984 . S
N864 H871 0.984 . S
N865 C858 1.356 . S
N865 H868 0.984 . S
N865 H869 0.985 . S
H866 N861 0.984 . S
H867 N861 0.985 . S
H868 N865 0.984 . S
H869 N865 0.985 . S
H870 N864 0.984 . S
H871 N864 0.984 . S
H872 N860 0.984 . S
H873 N860 0.985 1_554 S
C874 C875 1.363 . S
C874 C880 1.379 . S
C874 N882 1.356 . S
C875 C874 1.363 . S
C875 C881 1.363 . S
C876 C877 1.363 . S
C876 C881 1.379 . S
C876 N883 1.356 . S
C877 C876 1.363 . S
C877 C880 1.363 . S
N878 C880 1.356 . S
N878 H890 0.984 . S
N878 H891 0.985 . S
N879 C881 1.356 . S
N879 H884 0.984 . S
N879 H885 0.985 . S
C880 C874 1.379 . S
C880 C877 1.363 . S
C880 N878 1.356 . S
C881 C875 1.363 . S
C881 C876 1.379 . S
C881 N879 1.356 . S
N882 C874 1.356 . S
N882 H888 0.984 . S
N882 H889 0.984 . S
N883 C876 1.356 . S
N883 H886 0.984 . S
N883 H887 0.985 . S
H884 N879 0.984 . S
H885 N879 0.985 . S
H886 N883 0.984 . S
H887 N883 0.985 . S
H888 N882 0.984 . S
H889 N882 0.984 . S
H890 N878 0.984 . S
H891 N878 0.985 . S
C892 C893 1.363 . S
C892 C898 1.379 1_556 S
C892 N900 1.356 . S
C893 C892 1.363 . S
C893 C899 1.363 . S
C894 C895 1.363 1_556 S
C894 C899 1.379 . S
C894 N901 1.356 . S
C895 C894 1.363 1_554 S
C895 C898 1.363 . S
N896 C898 1.356 . S
N896 H908 0.984 . S
N896 H909 0.985 . S
N897 C899 1.356 . S
N897 H902 0.984 . S
N897 H903 0.985 . S
C898 C892 1.379 1_554 S
C898 C895 1.363 . S
C898 N896 1.356 . S
C899 C893 1.363 . S
C899 C894 1.379 . S
C899 N897 1.356 . S
N900 C892 1.356 . S
N900 H906 0.998 . S
N900 H907 0.984 . S
N901 C894 1.356 . S
N901 H904 0.984 1_556 S
N901 H905 0.985 . S
H902 N897 0.984 . S
H903 N897 0.985 . S
H904 N901 0.984 1_554 S
H905 N901 0.985 . S
H906 N900 0.998 . S
H907 N900 0.984 . S
H908 N896 0.984 . S
H909 N896 0.985 . S
C910 C911 1.363 . S
C910 C916 1.379 . S
C910 N918 1.356 . S
C911 C910 1.363 . S
C911 C917 1.363 . S
C912 C913 1.363 . S
C912 C917 1.379 . S
C912 N919 1.356 . S
C913 C912 1.363 . S
C913 C916 1.363 . S
N914 C916 1.356 . S
N914 H926 0.984 . S
N914 H927 0.985 . S
N915 C917 1.356 . S
N915 H920 0.984 . S
N915 H921 0.985 . S
C916 C910 1.379 . S
C916 C913 1.363 . S
C916 N914 1.356 . S
C917 C911 1.363 . S
C917 C912 1.379 . S
C917 N915 1.356 . S
N918 C910 1.356 . S
N918 H924 0.984 . S
N918 H925 0.984 . S
N919 C912 1.356 . S
N919 H922 0.984 . S
N919 H923 0.985 . S
H920 N915 0.984 . S
H921 N915 0.985 . S
H922 N919 0.984 . S
H923 N919 0.985 . S
H924 N918 0.984 . S
H925 N918 0.984 . S
H926 N914 0.984 . S
H927 N914 0.985 . S
C928 C929 1.363 . S
C928 C934 1.379 . S
C928 N936 1.356 . S
C929 C928 1.363 . S
C929 C935 1.363 . S
C930 C931 1.363 . S
C930 C935 1.379 . S
C930 N937 1.356 . S
C931 C930 1.363 . S
C931 C934 1.363 . S
N932 C934 1.356 . S
N932 H944 0.984 . S
N932 H945 0.985 . S
N933 C935 1.356 . S
N933 H938 0.984 . S
N933 H939 0.985 . S
C934 C928 1.379 . S
C934 C931 1.363 . S
C934 N932 1.356 . S
C935 C929 1.363 . S
C935 C930 1.379 . S
C935 N933 1.356 . S
N936 C928 1.356 . S
N936 H942 0.984 . S
N936 H943 0.984 . S
N937 C930 1.356 . S
N937 H940 0.984 . S
N937 H941 0.985 . S
H938 N933 0.984 . S
H939 N933 0.985 . S
H940 N937 0.984 . S
H941 N937 0.985 . S
H942 N936 0.984 . S
H943 N936 0.984 . S
H944 N932 0.984 . S
H945 N932 0.985 . S
C946 C947 1.363 . S
C946 C952 1.379 . S
C946 N954 1.356 . S
C947 C946 1.363 . S
C947 C953 1.363 . S
C948 C949 1.363 . S
C948 C953 1.379 . S
C948 N955 1.356 . S
C949 C948 1.363 . S
C949 C952 1.363 . S
N950 C952 1.356 . S
N950 H962 0.984 . S
N950 H963 0.985 . S
N951 C953 1.356 . S
N951 H956 0.984 . S
N951 H957 0.985 . S
C952 C946 1.379 . S
C952 C949 1.363 . S
C952 N950 1.356 . S
C953 C947 1.363 . S
C953 C948 1.379 . S
C953 N951 1.356 . S
N954 C946 1.356 . S
N954 H960 0.984 . S
N954 H961 0.984 . S
N955 C948 1.356 . S
N955 H958 0.984 . S
N955 H959 0.985 . S
H956 N951 0.984 . S
H957 N951 0.985 . S
H958 N955 0.984 . S
H959 N955 0.985 . S
H960 N954 0.984 . S
H961 N954 0.984 . S
H962 N950 0.984 . S
H963 N950 0.985 . S
C964 C965 1.363 . S
C964 C970 1.379 . S
C964 N972 1.356 . S
C965 C964 1.363 . S
C965 C971 1.363 . S
C966 C967 1.363 . S
C966 C971 1.379 . S
C966 N973 1.356 . S
C967 C966 1.363 . S
C967 C970 1.363 . S
N968 C970 1.356 . S
N968 H980 0.984 . S
N968 H981 0.985 . S
N969 C971 1.356 . S
N969 H974 0.984 . S
N969 H975 0.985 . S
C970 C964 1.379 . S
C970 C967 1.363 . S
C970 N968 1.356 . S
C971 C965 1.363 . S
C971 C966 1.379 . S
C971 N969 1.356 . S
N972 C964 1.356 . S
N972 H978 0.984 . S
N972 H979 0.984 . S
N973 C966 1.356 . S
N973 H976 0.984 . S
N973 H977 0.985 . S
H974 N969 0.984 . S
H975 N969 0.985 . S
H976 N973 0.984 . S
H977 N973 0.985 . S
H978 N972 0.984 . S
H979 N972 0.984 . S
H980 N968 0.984 . S
H981 N968 0.985 . S
C982 C983 1.363 . S
C982 C988 1.379 . S
C982 N990 1.356 1_545 S
C983 C982 1.363 . S
C983 C989 1.363 . S
C984 C985 1.363 . S
C984 C989 1.379 . S
C984 N991 1.356 . S
C985 C984 1.363 . S
C985 C988 1.363 . S
N986 C988 1.356 . S
N986 H998 0.984 1_455 S
N986 H999 0.985 1_455 S
N987 C989 1.356 . S
N987 H992 0.984 . S
N987 H993 0.985 . S
C988 C982 1.379 . S
C988 C985 1.363 . S
C988 N986 1.356 . S
C989 C983 1.363 . S
C989 C984 1.379 . S
C989 N987 1.356 . S
N990 C982 1.356 1_565 S
N990 H996 0.984 . S
N990 H997 0.984 . S
N991 C984 1.356 . S
N991 H994 0.984 . S
N991 H995 0.985 . S
H992 N987 0.984 . S
H993 N987 0.985 . S
H994 N991 0.984 . S
H995 N991 0.985 . S
H996 N990 0.984 . S
H997 N990 0.984 . S
H998 N986 0.984 1_655 S
H999 N986 0.985 1_655 S
C1000 C1001 1.363 . S
C1000 C1006 1.379 . S
C1000 N1008 1.356 . S
C1001 C1000 1.363 . S
C1001 C1007 1.363 . S
C1002 C1003 1.363 . S
C1002 C1007 1.379 . S
C1002 N1009 1.356 . S
C1003 C1002 1.363 . S
C1003 C1006 1.363 . S
N1004 C1006 1.356 . S
N1004 H1016 0.984 . S
N1004 H1017 0.985 . S
N1005 C1007 1.356 . S
N1005 H1010 0.984 . S
N1005 H1011 0.985 . S
C1006 C1000 1.379 . S
C1006 C1003 1.363 . S
C1006 N1004 1.356 . S
C1007 C1001 1.363 . S
C1007 C1002 1.379 . S
C1007 N1005 1.356 . S
N1008 C1000 1.356 . S
N1008 H1014 0.984 1_565 S
N1008 H1015 0.984 1_565 S
N1009 C1002 1.356 . S
N1009 H1012 0.984 . S
N1009 H1013 0.985 . S
H1010 N1005 0.984 . S
H1011 N1005 0.985 . S
H1012 N1009 0.984 . S
H1013 N1009 0.985 . S
H1014 N1008 0.984 1_545 S
H1015 N1008 0.984 1_545 S
H1016 N1004 0.984 . S
H1017 N1004 0.985 . S
C1018 C1019 1.363 . S
C1018 C1024 1.379 . S
C1018 N1026 1.356 . S
C1019 C1018 1.363 . S
C1019 C1025 1.363 . S
C1020 C1021 1.363 . S
C1020 C1025 1.379 . S
C1020 N1027 1.356 . S
C1021 C1020 1.363 . S
C1021 C1024 1.363 . S
N1022 C1024 1.356 . S
N1022 H1034 0.984 . S
N1022 H1035 0.985 . S
N1023 C1025 1.356 . S
N1023 H1028 0.984 . S
N1023 H1029 0.985 . S
C1024 C1018 1.379 . S
C1024 C1021 1.363 . S
C1024 N1022 1.356 . S
C1025 C1019 1.363 . S
C1025 C1020 1.379 . S
C1025 N1023 1.356 . S
N1026 C1018 1.356 . S
N1026 H1032 0.984 . S
N1026 H1033 0.984 . S
N1027 C1020 1.356 . S
N1027 H1030 0.984 . S
N1027 H1031 0.985 . S
H1028 N1023 0.984 . S
H1029 N1023 0.985 . S
H1030 N1027 0.984 . S
H1031 N1027 0.985 . S
H1032 N1026 0.984 . S
H1033 N1026 0.984 . S
H1034 N1022 0.984 . S
H1035 N1022 0.985 . S
C1036 C1037 1.363 . S
C1036 C1042 1.379 . S
C1036 N1044 1.356 . S
C1037 C1036 1.363 . S
C1037 C1043 1.363 . S
C1038 C1039 1.363 . S
C1038 C1043 1.379 . S
C1038 N1045 1.356 . S
C1039 C1038 1.363 . S
C1039 C1042 1.363 . S
N1040 C1042 1.356 . S
N1040 H1052 0.984 . S
N1040 H1053 0.985 . S
N1041 C1043 1.356 . S
N1041 H1046 0.984 . S
N1041 H1047 0.985 . S
C1042 C1036 1.379 . S
C1042 C1039 1.363 . S
C1042 N1040 1.356 . S
C1043 C1037 1.363 . S
C1043 C1038 1.379 . S
C1043 N1041 1.356 . S
N1044 C1036 1.356 . S
N1044 H1050 0.984 . S
N1044 H1051 0.984 . S
N1045 C1038 1.356 . S
N1045 H1048 0.984 . S
N1045 H1049 0.985 . S
H1046 N1041 0.984 . S
H1047 N1041 0.985 . S
H1048 N1045 0.984 . S
H1049 N1045 0.985 . S
H1050 N1044 0.984 . S
H1051 N1044 0.984 . S
H1052 N1040 0.984 . S
H1053 N1040 0.985 . S
C1054 C1055 1.363 . S
C1054 C1060 1.379 . S
C1054 N1062 1.356 . S
C1055 C1054 1.363 . S
C1055 C1061 1.363 . S
C1056 C1057 1.363 . S
C1056 C1061 1.379 . S
C1056 N1063 1.356 . S
C1057 C1056 1.363 . S
C1057 C1060 1.363 . S
N1058 C1060 1.354 . S
N1058 H1070 0.986 1_655 S
N1058 H1071 0.986 1_655 S
N1059 C1061 1.356 . S
N1059 H1064 0.984 . S
N1059 H1065 0.985 . S
C1060 C1054 1.379 . S
C1060 C1057 1.363 . S
C1060 N1058 1.354 . S
C1061 C1055 1.363 . S
C1061 C1056 1.379 . S
C1061 N1059 1.356 . S
N1062 C1054 1.356 . S
N1062 H1068 0.984 . S
N1062 H1069 0.984 . S
N1063 C1056 1.356 . S
N1063 H1066 0.984 . S
N1063 H1067 0.985 . S
H1064 N1059 0.984 . S
H1065 N1059 0.985 . S
H1066 N1063 0.984 . S
H1067 N1063 0.985 . S
H1068 N1062 0.984 . S
H1069 N1062 0.984 . S
H1070 N1058 0.986 1_455 S
H1071 N1058 0.986 1_455 S
C1072 C1073 1.363 . S
C1072 C1078 1.379 1_554 S
C1072 N1080 1.356 . S
C1073 C1072 1.363 . S
C1073 C1079 1.363 . S
C1074 C1075 1.363 . S
C1074 C1079 1.379 1_556 S
C1074 N1081 1.356 . S
C1075 C1074 1.363 . S
C1075 C1078 1.363 . S
N1076 C1078 1.356 . S
N1076 H1088 0.984 . S
N1076 H1089 0.985 . S
N1077 C1079 1.356 . S
N1077 H1082 0.984 . S
N1077 H1083 0.985 . S
C1078 C1072 1.379 1_556 S
C1078 C1075 1.363 . S
C1078 N1076 1.356 . S
C1079 C1073 1.363 . S
C1079 C1074 1.379 1_554 S
C1079 N1077 1.356 . S
N1080 C1072 1.356 . S
N1080 H1086 0.984 1_554 S
N1080 H1087 0.984 . S
N1081 C1074 1.356 . S
N1081 H1084 0.984 . S
N1081 H1085 0.985 1_556 S
H1082 N1077 0.984 . S
H1083 N1077 0.985 . S
H1084 N1081 0.984 . S
H1085 N1081 0.985 1_554 S
H1086 N1080 0.984 1_556 S
H1087 N1080 0.984 . S
H1088 N1076 0.984 . S
H1089 N1076 0.985 . S
C1090 C1091 1.363 . S
C1090 C1096 1.379 . S
C1090 N1098 1.356 . S
C1091 C1090 1.363 . S
C1091 C1097 1.363 . S
C1092 C1093 1.363 . S
C1092 C1097 1.379 . S
C1092 N1099 1.356 . S
C1093 C1092 1.363 . S
C1093 C1096 1.363 . S
N1094 C1096 1.356 . S
N1094 H1106 0.984 . S
N1094 H1107 0.985 . S
N1095 C1097 1.356 . S
N1095 H1100 0.984 . S
N1095 H1101 0.985 . S
C1096 C1090 1.379 . S
C1096 C1093 1.363 . S
C1096 N1094 1.356 . S
C1097 C1091 1.363 . S
C1097 C1092 1.379 . S
C1097 N1095 1.356 . S
N1098 C1090 1.356 . S
N1098 H1104 0.984 . S
N1098 H1105 0.984 . S
N1099 C1092 1.356 . S
N1099 H1102 0.984 . S
N1099 H1103 0.985 . S
H1100 N1095 0.984 . S
H1101 N1095 0.985 . S
H1102 N1099 0.984 . S
H1103 N1099 0.985 . S
H1104 N1098 0.984 . S
H1105 N1098 0.984 . S
H1106 N1094 0.984 . S
H1107 N1094 0.985 . S
C1108 C1109 1.363 1_455 S
C1108 C1114 1.395 . S
C1108 N1116 1.356 . S
C1109 C1108 1.363 1_655 S
C1109 C1115 1.346 1_554 S
C1110 C1111 1.363 . S
C1110 C1115 1.395 . S
C1110 N1117 1.356 . S
C1111 C1110 1.363 . S
C1111 C1114 1.346 1_656 S
N1112 C1114 1.351 1_556 S
N1112 H1124 0.984 1_556 S
N1112 H1125 0.985 . S
N1113 C1115 1.351 1_554 S
N1113 H1118 0.984 . S
N1113 H1119 0.985 1_554 S
C1114 C1108 1.395 . S
C1114 C1111 1.346 1_454 S
C1114 N1112 1.351 1_554 S
C1115 C1109 1.346 1_556 S
C1115 C1110 1.395 . S
C1115 N1113 1.351 1_556 S
N1116 C1108 1.356 . S
N1116 H1122 0.984 . S
N1116 H1123 0.984 . S
N1117 C1110 1.356 . S
N1117 H1120 0.984 . S
N1117 H1121 0.985 . S
H1118 N1113 0.984 . S
H1119 N1113 0.985 1_556 S
H1120 N1117 0.984 . S
H1121 N1117 0.985 . S
H1122 N1116 0.984 . S
H1123 N1116 0.984 . S
H1124 N1112 0.984 1_554 S
H1125 N1112 0.985 . S
C1126 C1127 1.363 1_545 S
C1126 C1132 1.379 . S
C1126 N1134 1.356 . S
C1127 C1126 1.363 1_565 S
C1127 C1133 1.363 . S
C1128 C1129 1.363 . S
C1128 C1133 1.379 . S
C1128 N1135 1.356 . S
C1129 C1128 1.363 . S
C1129 C1132 1.363 1_565 S
N1130 C1132 1.356 . S
N1130 H1142 0.984 . S
N1130 H1143 0.985 . S
N1131 C1133 1.356 . S
N1131 H1136 0.984 . S
N1131 H1137 0.985 . S
C1132 C1126 1.379 . S
C1132 C1129 1.363 1_545 S
C1132 N1130 1.356 . S
C1133 C1127 1.363 . S
C1133 C1128 1.379 . S
C1133 N1131 1.356 . S
N1134 C1126 1.356 . S
N1134 H1140 0.984 . S
N1134 H1141 0.984 . S
N1135 C1128 1.356 . S
N1135 H1138 0.984 . S
N1135 H1139 0.985 . S
H1136 N1131 0.984 . S
H1137 N1131 0.985 . S
H1138 N1135 0.984 . S
H1139 N1135 0.985 . S
H1140 N1134 0.984 . S
H1141 N1134 0.984 . S
H1142 N1130 0.984 . S
H1143 N1130 0.985 . S
C1144 C1145 1.362 1_556 S
C1144 C1150 1.380 . S
C1144 N1152 1.356 1_556 S
C1145 C1144 1.362 1_554 S
C1145 C1151 1.363 . S
C1146 C1147 1.363 1_554 S
C1146 C1151 1.379 . S
C1146 N1153 1.356 1_554 S
C1147 C1146 1.363 1_556 S
C1147 C1150 1.363 . S
N1148 C1150 1.356 . S
N1148 H1160 0.984 . S
N1148 H1161 0.985 . S
N1149 C1151 1.356 . S
N1149 H1154 0.984 . S
N1149 H1155 0.985 . S
C1150 C1144 1.380 . S
C1150 C1147 1.363 . S
C1150 N1148 1.356 . S
C1151 C1145 1.363 . S
C1151 C1146 1.379 . S
C1151 N1149 1.356 . S
N1152 C1144 1.356 1_554 S
N1152 H1158 0.984 1_554 S
N1152 H1159 0.984 . S
N1153 C1146 1.356 1_556 S
N1153 H1156 0.984 . S
N1153 H1157 0.985 1_556 S
H1154 N1149 0.984 . S
H1155 N1149 0.985 . S
H1156 N1153 0.984 . S
H1157 N1153 0.985 1_554 S
H1158 N1152 0.984 1_556 S
H1159 N1152 0.984 . S
H1160 N1148 0.984 . S
H1161 N1148 0.985 . S
C1162 C1163 1.363 . S
C1162 C1168 1.379 . S
C1162 N1170 1.356 . S
C1163 C1162 1.363 . S
C1163 C1169 1.363 . S
C1164 C1165 1.363 . S
C1164 C1169 1.379 . S
C1164 N1171 1.356 . S
C1165 C1164 1.363 . S
C1165 C1168 1.363 . S
N1166 C1168 1.356 . S
N1166 H1178 0.984 . S
N1166 H1179 0.985 . S
N1167 C1169 1.356 . S
N1167 H1172 0.984 . S
N1167 H1173 0.985 . S
C1168 C1162 1.379 . S
C1168 C1165 1.363 . S
C1168 N1166 1.356 . S
C1169 C1163 1.363 . S
C1169 C1164 1.379 . S
C1169 N1167 1.356 . S
N1170 C1162 1.356 . S
N1170 H1176 0.984 . S
N1170 H1177 0.984 . S
N1171 C1164 1.356 . S
N1171 H1174 0.984 . S
N1171 H1175 0.985 . S
H1172 N1167 0.984 . S
H1173 N1167 0.985 . S
H1174 N1171 0.984 . S
H1175 N1171 0.985 . S
H1176 N1170 0.984 . S
H1177 N1170 0.984 . S
H1178 N1166 0.984 . S
H1179 N1166 0.985 . S
C1180 C1181 1.363 . S
C1180 C1186 1.379 1_556 S
C1180 N1188 1.356 . S
C1181 C1180 1.363 . S
C1181 C1187 1.363 1_455 S
C1182 C1183 1.363 1_655 S
C1182 C1187 1.379 1_554 S
C1182 N1189 1.356 . S
C1183 C1182 1.363 1_455 S
C1183 C1186 1.363 . S
N1184 C1186 1.356 . S
N1184 H1196 0.984 1_554 S
N1184 H1197 0.985 . S
N1185 C1187 1.356 . S
N1185 H1190 0.984 . S
N1185 H1191 0.985 1_556 S
C1186 C1180 1.379 1_554 S
C1186 C1183 1.363 . S
C1186 N1184 1.356 . S
C1187 C1181 1.363 1_655 S
C1187 C1182 1.379 1_556 S
C1187 N1185 1.356 . S
N1188 C1180 1.356 . S
N1188 H1194 0.984 . S
N1188 H1195 0.984 . S
N1189 C1182 1.356 . S
N1189 H1192 0.984 . S
N1189 H1193 0.985 . S
H1190 N1185 0.984 . S
H1191 N1185 0.985 1_554 S
H1192 N1189 0.984 . S
H1193 N1189 0.985 . S
H1194 N1188 0.984 . S
H1195 N1188 0.984 . S
H1196 N1184 0.984 1_556 S
H1197 N1184 0.985 . S
C1198 C1199 1.363 1_565 S
C1198 C1204 1.379 . S
C1198 N1206 1.356 . S
C1199 C1198 1.363 1_545 S
C1199 C1205 1.363 . S
C1200 C1201 1.363 . S
C1200 C1205 1.379 . S
C1200 N1207 1.356 . S
C1201 C1200 1.363 . S
C1201 C1204 1.363 1_545 S
N1202 C1204 1.356 . S
N1202 H1214 0.984 . S
N1202 H1215 0.985 . S
N1203 C1205 1.356 . S
N1203 H1208 0.984 . S
N1203 H1209 0.985 . S
C1204 C1198 1.379 . S
C1204 C1201 1.363 1_565 S
C1204 N1202 1.356 . S
C1205 C1199 1.363 . S
C1205 C1200 1.379 . S
C1205 N1203 1.356 . S
N1206 C1198 1.356 . S
N1206 H1212 0.984 . S
N1206 H1213 0.984 . S
N1207 C1200 1.356 . S
N1207 H1210 0.984 . S
N1207 H1211 0.985 . S
H1208 N1203 0.984 . S
H1209 N1203 0.985 . S
H1210 N1207 0.984 . S
H1211 N1207 0.985 . S
H1212 N1206 0.984 . S
H1213 N1206 0.984 . S
H1214 N1202 0.984 . S
H1215 N1202 0.985 . S
C353 C21 1.388 . S
C355 C219 1.403 . S
C371 C43 1.388 . S
C373 C227 1.403 . S
C389 C249 1.403 . S
C391 C59 1.388 . S
C407 C197 1.403 . S
C409 C81 1.388 . S
C425 C95 1.388 . S
C427 C351 1.403 . S
C443 C285 1.403 . S
C445 C131 1.388 . S
C461 C307 1.403 . S
C463 C147 1.388 . S
C479 C323 1.403 . S
C481 C169 1.388 . S
C497 C37 1.397 . S
C499 C191 1.387 . S
C515 C213 1.387 . S
C517 C51 1.397 . S
C533 C73 1.397 . S
C535 C241 1.387 . S
C551 C15 1.397 . S
C553 C263 1.387 . S
C569 C161 1.397 . S
C571 C279 1.387 . S
C587 C109 1.397 . S
C589 C301 1.387 . S
C605 C315 1.387 . S
C607 C125 1.397 . S
C623 C139 1.397 . S
C625 C345 1.387 . S
C641 C10 1.444 . S
C643 C337 1.424 . S
C659 C32 1.444 . S
C661 C271 1.424 . S
C677 C62 1.444 . S
C679 C293 1.424 . S
C695 C329 1.424 . S
C697 C84 1.444 . S
C713 C96 1.444 . S
C715 C205 1.424 . S
C731 C120 1.444 . S
C733 C235 1.424 . S
C749 C150 1.444 . S
C751 C257 1.424 . S
C767 C183 1.424 . S
C769 C172 1.444 . S
C785 C184 1.455 . S
C787 C175 1.441 . S
C803 C206 1.455 . S
C805 C103 1.441 . S
C821 C238 1.455 . S
C823 C117 1.441 . S
C839 C260 1.455 . S
C841 C153 1.441 . S
C857 C29 1.441 . S
C859 C272 1.455 . S
C875 C65 1.441 . S
C877 C294 1.455 . S
C893 C87 1.441 . S
C895 C318 1.455 . S
C911 C338 1.455 . S
C913 C7 1.441 . S
C929 C162 1.349 . S
C931 C18 1.349 . S
C947 C98 1.349 . S
C949 C40 1.349 . S
C965 C52 1.349 . S
C967 C128 1.349 . S
C983 C74 1.349 . S
C985 C140 1.349 . S
C1001 C348 1.360 . S
C1003 C194 1.359 . S
C1019 C216 1.359 . S
C1021 C282 1.359 . S
C1037 C304 1.359 . S
C1039 C230 1.359 . S
C1055 C252 1.359 . S
C1057 C316 1.359 . S
C1073 C8 1.467 . S
C1075 C106 1.467 . S
C1091 C118 1.467 . S
C1093 C30 1.467 . S
C1109 C54 1.467 . S
C1111 C142 1.467 . S
C1127 C164 1.467 . S
C1129 C76 1.467 . S
C1145 C274 1.437 . S
C1147 C186 1.437 . S
C1163 C296 1.437 . S
C1165 C208 1.437 . S
C1181 C228 1.436 . S
C1183 C326 1.437 . S
C1199 C250 1.437 . S
C1201 C340 1.436 . S
