# Generated by pormake.
# Topology som, (6)-cn, num edge types: 1
# Building blocks:
#     Node 0, Type 0, BuildingBlock: BETFAJ_clean_sbu_0, # of connection points: 6
#     Node 1, Type 0, BuildingBlock: BETFAJ_clean_sbu_0, # of connection points: 6
#     Node 2, Type 0, BuildingBlock: BETFAJ_clean_sbu_0, # of connection points: 6
#     Node 3, Type 0, BuildingBlock: BETFAJ_clean_sbu_0, # of connection points: 6
#     Node 4, Type 0, BuildingBlock: BETFAJ_clean_sbu_0, # of connection points: 6
#     Node 5, Type 0, BuildingBlock: BETFAJ_clean_sbu_0, # of connection points: 6
#     Node 6, Type 0, BuildingBlock: BETFAJ_clean_sbu_0, # of connection points: 6
#     Node 7, Type 0, BuildingBlock: BETFAJ_clean_sbu_0, # of connection points: 6
#     Node 8, Type 0, BuildingBlock: BETFAJ_clean_sbu_0, # of connection points: 6
#     Node 9, Type 0, BuildingBlock: BETFAJ_clean_sbu_0, # of connection points: 6
#     Node 10, Type 0, BuildingBlock: BETFAJ_clean_sbu_0, # of connection points: 6
#     Node 11, Type 0, BuildingBlock: BETFAJ_clean_sbu_0, # of connection points: 6
#     Node 12, Type 0, BuildingBlock: BETFAJ_clean_sbu_0, # of connection points: 6
#     Node 13, Type 0, BuildingBlock: BETFAJ_clean_sbu_0, # of connection points: 6
#     Node 14, Type 0, BuildingBlock: BETFAJ_clean_sbu_0, # of connection points: 6
#     Node 15, Type 0, BuildingBlock: BETFAJ_clean_sbu_0, # of connection points: 6
#     Node 16, Type 0, BuildingBlock: BETFAJ_clean_sbu_0, # of connection points: 6
#     Node 17, Type 0, BuildingBlock: BETFAJ_clean_sbu_0, # of connection points: 6
#     Node 18, Type 0, BuildingBlock: BETFAJ_clean_sbu_0, # of connection points: 6
#     Node 19, Type 0, BuildingBlock: BETFAJ_clean_sbu_0, # of connection points: 6
#     Node 20, Type 0, BuildingBlock: BETFAJ_clean_sbu_0, # of connection points: 6
#     Node 21, Type 0, BuildingBlock: BETFAJ_clean_sbu_0, # of connection points: 6
#     Node 22, Type 0, BuildingBlock: BETFAJ_clean_sbu_0, # of connection points: 6
#     Node 23, Type 0, BuildingBlock: BETFAJ_clean_sbu_0, # of connection points: 6
#     Node 24, Type 0, BuildingBlock: BETFAJ_clean_sbu_0, # of connection points: 6
#     Node 25, Type 0, BuildingBlock: BETFAJ_clean_sbu_0, # of connection points: 6
#     Node 26, Type 0, BuildingBlock: BETFAJ_clean_sbu_0, # of connection points: 6
#     Node 27, Type 0, BuildingBlock: BETFAJ_clean_sbu_0, # of connection points: 6
#     Node 28, Type 0, BuildingBlock: BETFAJ_clean_sbu_0, # of connection points: 6
#     Node 29, Type 0, BuildingBlock: BETFAJ_clean_sbu_0, # of connection points: 6
#     Node 30, Type 0, BuildingBlock: BETFAJ_clean_sbu_0, # of connection points: 6
#     Node 31, Type 0, BuildingBlock: BETFAJ_clean_sbu_0, # of connection points: 6
#     Edge 32, Type (0, 0), None
#     Edge 33, Type (0, 0), None
#     Edge 34, Type (0, 0), None
#     Edge 35, Type (0, 0), None
#     Edge 36, Type (0, 0), None
#     Edge 37, Type (0, 0), None
#     Edge 38, Type (0, 0), None
#     Edge 39, Type (0, 0), None
#     Edge 40, Type (0, 0), None
#     Edge 41, Type (0, 0), None
#     Edge 42, Type (0, 0), None
#     Edge 43, Type (0, 0), None
#     Edge 44, Type (0, 0), None
#     Edge 45, Type (0, 0), None
#     Edge 46, Type (0, 0), None
#     Edge 47, Type (0, 0), None
#     Edge 48, Type (0, 0), None
#     Edge 49, Type (0, 0), None
#     Edge 50, Type (0, 0), None
#     Edge 51, Type (0, 0), None
#     Edge 52, Type (0, 0), None
#     Edge 53, Type (0, 0), None
#     Edge 54, Type (0, 0), None
#     Edge 55, Type (0, 0), None
#     Edge 56, Type (0, 0), None
#     Edge 57, Type (0, 0), None
#     Edge 58, Type (0, 0), None
#     Edge 59, Type (0, 0), None
#     Edge 60, Type (0, 0), None
#     Edge 61, Type (0, 0), None
#     Edge 62, Type (0, 0), None
#     Edge 63, Type (0, 0), None
#     Edge 64, Type (0, 0), None
#     Edge 65, Type (0, 0), None
#     Edge 66, Type (0, 0), None
#     Edge 67, Type (0, 0), None
#     Edge 68, Type (0, 0), None
#     Edge 69, Type (0, 0), None
#     Edge 70, Type (0, 0), None
#     Edge 71, Type (0, 0), None
#     Edge 72, Type (0, 0), None
#     Edge 73, Type (0, 0), None
#     Edge 74, Type (0, 0), None
#     Edge 75, Type (0, 0), None
#     Edge 76, Type (0, 0), None
#     Edge 77, Type (0, 0), None
#     Edge 78, Type (0, 0), None
#     Edge 79, Type (0, 0), None
#     Edge 80, Type (0, 0), None
#     Edge 81, Type (0, 0), None
#     Edge 82, Type (0, 0), None
#     Edge 83, Type (0, 0), None
#     Edge 84, Type (0, 0), None
#     Edge 85, Type (0, 0), None
#     Edge 86, Type (0, 0), None
#     Edge 87, Type (0, 0), None
#     Edge 88, Type (0, 0), None
#     Edge 89, Type (0, 0), None
#     Edge 90, Type (0, 0), None
#     Edge 91, Type (0, 0), None
#     Edge 92, Type (0, 0), None
#     Edge 93, Type (0, 0), None
#     Edge 94, Type (0, 0), None
#     Edge 95, Type (0, 0), None
#     Edge 96, Type (0, 0), None
#     Edge 97, Type (0, 0), None
#     Edge 98, Type (0, 0), None
#     Edge 99, Type (0, 0), None
#     Edge 100, Type (0, 0), None
#     Edge 101, Type (0, 0), None
#     Edge 102, Type (0, 0), None
#     Edge 103, Type (0, 0), None
#     Edge 104, Type (0, 0), None
#     Edge 105, Type (0, 0), None
#     Edge 106, Type (0, 0), None
#     Edge 107, Type (0, 0), None
#     Edge 108, Type (0, 0), None
#     Edge 109, Type (0, 0), None
#     Edge 110, Type (0, 0), None
#     Edge 111, Type (0, 0), None
#     Edge 112, Type (0, 0), None
#     Edge 113, Type (0, 0), None
#     Edge 114, Type (0, 0), None
#     Edge 115, Type (0, 0), None
#     Edge 116, Type (0, 0), None
#     Edge 117, Type (0, 0), None
#     Edge 118, Type (0, 0), None
#     Edge 119, Type (0, 0), None
#     Edge 120, Type (0, 0), None
#     Edge 121, Type (0, 0), None
#     Edge 122, Type (0, 0), None
#     Edge 123, Type (0, 0), None
#     Edge 124, Type (0, 0), None
#     Edge 125, Type (0, 0), None
#     Edge 126, Type (0, 0), None
#     Edge 127, Type (0, 0), None
# Relax obj value: 0.099
# Max RMSD: 0.184
# Mean RMSD: 0.183
data_MOF--net-som--node1-BETFAJ_clean_sbu_0--edge1-none
_symmetry_space_group_name_H-M    P1
_symmetry_Int_Tables_number       1
_symmetry_cell_setting            triclinic
loop_
_symmetry_equiv_pos_as_xyz
'x, y, z'
_cell_length_a     16.263352
_cell_length_b     23.747252
_cell_length_c     46.233692
_cell_angle_alpha  90.000813
_cell_angle_beta   90.000036
_cell_angle_gamma 89.997722
loop_
_atom_site_label
_atom_site_type_symbol
_atom_site_fract_x
_atom_site_fract_y
_atom_site_fract_z
_atom_type_partial_charge
Sm0 Sm 1.01439 0.46571 0.09723 0.0
Sm1 Sm 0.16581 0.38378 0.08046 0.0
C2 C 0.86808 0.51171 0.09376 0.0
C3 C 0.78969 0.48864 0.08278 0.0
C4 C 0.78446 0.43415 0.07091 0.0
C5 C 0.70762 0.40946 0.06551 0.0
C6 C 0.63548 0.43982 0.07113 0.0
C7 C 0.64166 0.49648 0.07931 0.0
C8 C 0.71823 0.52047 0.08523 0.0
C9 C 0.14287 0.45551 0.13746 0.0
C10 C 0.97758 0.32781 0.09155 0.0
C11 C 0.31355 0.33859 0.08255 0.0
C12 C 0.39711 0.36285 0.07907 0.0
C13 C 0.43821 0.38524 0.10318 0.0
C14 C 0.5161 0.40889 0.10023 0.0
C15 C 0.55485 0.41133 0.07321 0.0
C16 C 0.51571 0.38742 0.04912 0.0
C17 C 0.43707 0.36363 0.05197 0.0
C18 C 0.08696 0.42015 0.03211 0.0
C19 C 0.17393 0.52783 0.07558 0.0
O20 O 0.92497 0.51975 0.07414 0.0
O21 O 0.89654 0.48951 0.11786 0.0
O22 O 0.11295 0.41658 0.12185 0.0
O23 O 0.09667 0.50024 0.13472 0.0
O24 O 0.95047 0.3792 0.09616 0.0
O25 O 1.05799 0.31708 0.08724 0.0
O26 O 0.27263 0.35336 0.10577 0.0
O27 O 0.26724 0.33599 0.05945 0.0
O28 O 0.06991 0.42971 0.05803 0.0
O29 O 0.14955 0.38654 0.03047 0.0
O30 O 0.21336 0.47865 0.07935 0.0
O31 O 0.09357 0.532 0.07644 0.0
H32 H 0.83911 0.41006 0.06652 0.0
H33 H 0.70455 0.36599 0.0585 0.0
H34 H 0.58669 0.52081 0.08303 0.0
H35 H 0.72191 0.56289 0.0931 0.0
H36 H 0.41053 0.38412 0.12449 0.0
H37 H 0.54691 0.42485 0.1192 0.0
H38 H 0.54546 0.38752 0.02819 0.0
H39 H 0.40773 0.34584 0.03302 0.0
Sm40 Sm 0.36436 0.64818 0.10221 0.0
Sm41 Sm 0.22639 0.72526 0.08261 0.0
C42 C 0.50877 0.60691 0.11557 0.0
C43 C 0.59121 0.63087 0.11025 0.0
C44 C 0.61213 0.656 0.08366 0.0
C45 C 0.6901 0.68002 0.07964 0.0
C46 C 0.74839 0.67995 0.10223 0.0
C47 C 0.72555 0.65622 0.12893 0.0
C48 C 0.64846 0.6315 0.13269 0.0
C49 C 0.22964 0.65953 0.14012 0.0
C50 C 0.41332 0.78148 0.09164 0.0
C51 C 0.07784 0.77003 0.08597 0.0
C52 C 0.99442 0.74589 0.09007 0.0
C53 C 0.95475 0.75066 0.11692 0.0
C54 C 0.87509 0.72976 0.1208 0.0
C55 C 0.83316 0.7029 0.09796 0.0
C56 C 0.87351 0.69754 0.07115 0.0
C57 C 0.95288 0.719 0.06721 0.0
C58 C 0.30176 0.69471 0.03304 0.0
C59 C 0.21999 0.58151 0.07618 0.0
O60 O 0.46739 0.58999 0.09283 0.0
O61 O 0.46356 0.63443 0.13426 0.0
O62 O 0.26603 0.69839 0.12638 0.0
O63 O 0.26853 0.61284 0.13527 0.0
O64 O 0.43899 0.72945 0.09441 0.0
O65 O 0.33276 0.79269 0.08917 0.0
O66 O 0.12799 0.76788 0.10804 0.0
O67 O 0.1146 0.75956 0.06145 0.0
O68 O 0.32371 0.67834 0.05807 0.0
O69 O 0.2439 0.73216 0.03384 0.0
O70 O 0.17975 0.63016 0.08044 0.0
O71 O 0.30005 0.57858 0.07844 0.0
H72 H 0.56842 0.65707 0.06599 0.0
H73 H 0.70427 0.69899 0.05894 0.0
H74 H 0.76782 0.65524 0.1468 0.0
H75 H 0.63326 0.61218 0.15306 0.0
H76 H 0.98469 0.77185 0.13478 0.0
H77 H 0.84576 0.73599 0.14157 0.0
H78 H 0.84422 0.67628 0.05318 0.0
H79 H 0.98145 0.71454 0.04617 0.0
Sm80 Sm 1.01443 0.65137 0.19234 0.0
Sm81 Sm 0.16582 0.73328 0.2092 0.0
C82 C 0.86811 0.60539 0.19578 0.0
C83 C 0.78973 0.62844 0.20678 0.0
C84 C 0.7845 0.68291 0.21867 0.0
C85 C 0.70766 0.70761 0.22407 0.0
C86 C 0.63551 0.67727 0.21843 0.0
C87 C 0.64169 0.62061 0.21025 0.0
C88 C 0.71826 0.59661 0.20432 0.0
C89 C 0.14307 0.66154 0.1522 0.0
C90 C 0.9776 0.78926 0.19815 0.0
C91 C 0.31353 0.77854 0.20721 0.0
C92 C 0.3971 0.75426 0.21062 0.0
C93 C 0.43793 0.73164 0.18651 0.0
C94 C 0.51583 0.70798 0.18942 0.0
C95 C 0.55486 0.70576 0.21639 0.0
C96 C 0.51601 0.72993 0.24048 0.0
C97 C 0.43735 0.7537 0.23767 0.0
C98 C 0.0867 0.69696 0.25749 0.0
C99 C 0.17393 0.58924 0.21405 0.0
O100 O 0.92501 0.59725 0.21538 0.0
O101 O 0.89657 0.62767 0.17169 0.0
O102 O 0.11311 0.70049 0.16778 0.0
O103 O 0.09678 0.61685 0.15487 0.0
O104 O 0.95051 0.73789 0.19347 0.0
O105 O 1.058 0.8 0.20247 0.0
O106 O 0.27258 0.76403 0.18396 0.0
O107 O 0.26726 0.78084 0.23032 0.0
O108 O 0.06978 0.68739 0.23156 0.0
O109 O 0.14931 0.73054 0.25916 0.0
O110 O 0.21338 0.63841 0.21029 0.0
O111 O 0.09357 0.58508 0.21317 0.0
H112 H 0.83916 0.70699 0.22308 0.0
H113 H 0.70461 0.75107 0.2311 0.0
H114 H 0.58672 0.59628 0.20652 0.0
H115 H 0.72194 0.5542 0.19645 0.0
H116 H 0.41004 0.73257 0.16524 0.0
H117 H 0.54643 0.69183 0.17044 0.0
H118 H 0.54602 0.73006 0.26135 0.0
H119 H 0.40823 0.7717 0.25661 0.0
Sm120 Sm 0.36432 0.46885 0.18736 0.0
Sm121 Sm 0.22632 0.39178 0.20703 0.0
C122 C 0.50872 0.51008 0.17396 0.0
C123 C 0.59118 0.48617 0.17932 0.0
C124 C 0.61202 0.46106 0.20591 0.0
C125 C 0.68999 0.43703 0.20996 0.0
C126 C 0.74835 0.4371 0.1874 0.0
C127 C 0.7256 0.46085 0.16069 0.0
C128 C 0.64851 0.48555 0.1569 0.0
C129 C 0.22943 0.45752 0.14954 0.0
C130 C 0.4133 0.33557 0.19806 0.0
C131 C 0.07778 0.34698 0.20376 0.0
C132 C 0.99434 0.3711 0.19963 0.0
C133 C 0.95476 0.3664 0.17276 0.0
C134 C 0.8751 0.3873 0.16886 0.0
C135 C 0.8331 0.41412 0.1917 0.0
C136 C 0.87335 0.4194 0.21854 0.0
C137 C 0.9527 0.39792 0.2225 0.0
C138 C 0.30192 0.42231 0.25655 0.0
C139 C 0.21999 0.53554 0.21344 0.0
O140 O 0.46732 0.52711 0.19667 0.0
O141 O 0.46355 0.48244 0.1553 0.0
O142 O 0.26586 0.41865 0.16325 0.0
O143 O 0.26844 0.50419 0.15432 0.0
O144 O 0.43895 0.3876 0.19524 0.0
O145 O 0.33273 0.32435 0.20051 0.0
O146 O 0.12791 0.349 0.18167 0.0
O147 O 0.11456 0.35759 0.22825 0.0
O148 O 0.32377 0.43867 0.2315 0.0
O149 O 0.24401 0.3849 0.25579 0.0
O150 O 0.17972 0.48689 0.20921 0.0
O151 O 0.30004 0.53845 0.21115 0.0
H152 H 0.56826 0.45998 0.22357 0.0
H153 H 0.70408 0.41806 0.23067 0.0
H154 H 0.76793 0.46184 0.14284 0.0
H155 H 0.63338 0.50486 0.13652 0.0
H156 H 0.98477 0.34525 0.15491 0.0
H157 H 0.84586 0.38112 0.14807 0.0
H158 H 0.844 0.44062 0.23651 0.0
H159 H 0.9812 0.40231 0.24355 0.0
Sm160 Sm 0.97099 0.48374 0.95906 0.0
Sm161 Sm 0.12314 0.40142 0.94284 0.0
C162 C 0.82346 0.52914 0.95654 0.0
C163 C 0.73989 0.50501 0.96026 0.0
C164 C 0.69828 0.48258 0.93627 0.0
C165 C 0.62057 0.45874 0.93945 0.0
C166 C 0.58252 0.4562 0.96658 0.0
C167 C 0.62207 0.48025 0.99056 0.0
C168 C 0.70054 0.5042 0.98747 0.0
C169 C 1.049 0.44724 1.00758 0.0
C170 C 0.96265 0.33966 0.96405 0.0
C171 C 0.26921 0.35515 0.94697 0.0
C172 C 0.34776 0.37845 0.95768 0.0
C173 C 0.35305 0.43331 0.96908 0.0
C174 C 0.42988 0.45816 0.97426 0.0
C175 C 0.50201 0.42763 0.96888 0.0
C176 C 0.49587 0.37072 0.96113 0.0
C177 C 0.41925 0.34652 0.95545 0.0
C178 C 0.99507 0.41151 0.90238 0.0
C179 C 0.15966 0.53946 0.94795 0.0
O180 O 0.8643 0.51344 0.93347 0.0
O181 O 0.86984 0.53258 0.9796 0.0
O182 O 1.06668 0.43817 0.98167 0.0
O183 O 0.98616 0.48065 1.00914 0.0
O184 O 0.92333 0.38886 0.96017 0.0
O185 O 1.04304 0.33542 0.96345 0.0
O186 O 0.2122 0.34827 0.96666 0.0
O187 O 0.24096 0.37636 0.9226 0.0
O188 O 1.02504 0.45037 0.91801 0.0
O189 O 1.04124 0.36677 0.90522 0.0
O190 O 0.18689 0.48801 0.94355 0.0
O191 O 0.07919 0.55023 0.95219 0.0
H192 H 0.72547 0.48375 0.91489 0.0
H193 H 0.58933 0.44271 0.92057 0.0
H194 H 0.59279 0.48012 1.01157 0.0
H195 H 0.73024 0.52205 1.00633 0.0
H196 H 0.29841 0.45757 0.97326 0.0
H197 H 0.43294 0.50185 0.9809 0.0
H198 H 0.55085 0.34625 0.95758 0.0
H199 H 0.41561 0.30382 0.94795 0.0
Sm200 Sm 0.91074 0.1422 0.95674 0.0
Sm201 Sm 0.77275 0.21902 0.93696 0.0
C202 C 1.05943 0.09755 0.95352 0.0
C203 C 0.14283 0.12168 0.94928 0.0
C204 C 0.18213 0.11705 0.92234 0.0
C205 C 0.26173 0.138 0.91834 0.0
C206 C 0.30399 0.1647 0.94115 0.0
C207 C 0.26408 0.16988 0.96804 0.0
C208 C 0.18475 0.14844 0.9721 0.0
C209 C 0.83476 0.1725 1.00622 0.0
C210 C 0.91661 0.28596 0.96324 0.0
C211 C 0.62848 0.26025 0.92327 0.0
C212 C 0.54594 0.23651 0.92865 0.0
C213 C 0.52556 0.21065 0.9551 0.0
C214 C 0.44757 0.18669 0.95917 0.0
C215 C 0.38871 0.18761 0.93678 0.0
C216 C 0.41096 0.2121 0.91021 0.0
C217 C 0.48813 0.23666 0.90638 0.0
C218 C 0.90817 0.20764 0.89928 0.0
C219 C 0.7239 0.08576 0.94782 0.0
O220 O 1.00917 0.09921 0.93147 0.0
O221 O 1.02275 0.10849 0.978 0.0
O222 O 0.81293 0.18892 0.98117 0.0
O223 O 0.89269 0.13509 1.00546 0.0
O224 O 0.95704 0.23736 0.95904 0.0
O225 O 0.83659 0.28879 0.9608 0.0
O226 O 0.66974 0.27749 0.94597 0.0
O227 O 0.67374 0.23228 0.90477 0.0
O228 O 0.87131 0.16887 0.91291 0.0
O229 O 0.86928 0.25434 0.9041 0.0
O230 O 0.69817 0.13775 0.94493 0.0
O231 O 0.80449 0.07462 0.95029 0.0
H232 H 0.15192 0.09593 0.90452 0.0
H233 H 0.29078 0.13198 0.8975 0.0
H234 H 0.29372 0.191 0.98599 0.0
H235 H 0.15652 0.15276 0.9932 0.0
H236 H 0.56973 0.20893 0.97261 0.0
H237 H 0.43379 0.16714 0.97977 0.0
H238 H 0.36824 0.21363 0.89249 0.0
H239 H 0.50301 0.25628 0.88605 0.0
Sm240 Sm 0.97096 0.13329 0.83065 0.0
Sm241 Sm 0.12306 0.2156 0.84691 0.0
C242 C 0.82342 0.08789 0.83313 0.0
C243 C 0.73985 0.11205 0.82944 0.0
C244 C 0.69835 0.13456 0.85344 0.0
C245 C 0.62064 0.15841 0.85028 0.0
C246 C 0.58248 0.1609 0.82316 0.0
C247 C 0.62192 0.13677 0.79919 0.0
C248 C 0.70039 0.1128 0.80225 0.0
C249 C 1.04909 0.16975 0.78215 0.0
C250 C 0.96262 0.27737 0.82565 0.0
C251 C 0.26913 0.26189 0.84283 0.0
C252 C 0.34769 0.23861 0.83211 0.0
C253 C 0.353 0.18378 0.82068 0.0
C254 C 0.42983 0.15894 0.81549 0.0
C255 C 0.50195 0.18947 0.82089 0.0
C256 C 0.4958 0.24636 0.82867 0.0
C257 C 0.41917 0.27055 0.83436 0.0
C258 C 0.99487 0.20554 0.88731 0.0
C259 C 0.15963 0.07758 0.84176 0.0
O260 O 0.86428 0.10348 0.85621 0.0
O261 O 0.86978 0.08455 0.81006 0.0
O262 O 1.0667 0.17885 0.80806 0.0
O263 O 0.98623 0.13635 0.78057 0.0
O264 O 0.92329 0.22817 0.82953 0.0
O265 O 1.04301 0.2816 0.82626 0.0
O266 O 0.21213 0.26882 0.82314 0.0
O267 O 0.24086 0.24061 0.86718 0.0
O268 O 1.02489 0.16666 0.87171 0.0
O269 O 1.04109 0.25026 0.88452 0.0
O270 O 0.18684 0.12902 0.84618 0.0
O271 O 0.07916 0.0668 0.83752 0.0
H272 H 0.72562 0.13343 0.87481 0.0
H273 H 0.58948 0.1745 0.86916 0.0
H274 H 0.59256 0.13685 0.77819 0.0
H275 H 0.73 0.09489 0.78338 0.0
H276 H 0.29836 0.15953 0.81648 0.0
H277 H 0.43291 0.11527 0.80882 0.0
H278 H 0.55077 0.27082 0.83223 0.0
H279 H 0.41553 0.31323 0.84189 0.0
Sm280 Sm 0.91077 0.47484 0.83298 0.0
Sm281 Sm 0.77282 0.39804 0.8528 0.0
C282 C 1.05948 0.51948 0.83616 0.0
C283 C 0.14288 0.49535 0.84043 0.0
C284 C 0.18213 0.49999 0.86737 0.0
C285 C 0.26173 0.47904 0.8714 0.0
C286 C 0.30405 0.45234 0.8486 0.0
C287 C 0.26418 0.44715 0.82169 0.0
C288 C 0.18485 0.46859 0.81762 0.0
C289 C 0.83472 0.44456 0.78352 0.0
C290 C 0.91659 0.33108 0.82647 0.0
C291 C 0.62857 0.35685 0.86654 0.0
C292 C 0.54601 0.38056 0.86115 0.0
C293 C 0.52564 0.40639 0.83469 0.0
C294 C 0.44765 0.43034 0.8306 0.0
C295 C 0.38878 0.42944 0.85298 0.0
C296 C 0.41101 0.40498 0.87957 0.0
C297 C 0.48818 0.38043 0.88341 0.0
C298 C 0.90838 0.40939 0.89041 0.0
C299 C 0.72393 0.53129 0.84189 0.0
O300 O 1.00921 0.51791 0.85821 0.0
O301 O 1.02281 0.50845 0.81169 0.0
O302 O 0.81291 0.42813 0.80856 0.0
O303 O 0.89263 0.48198 0.78427 0.0
O304 O 0.95704 0.37967 0.83066 0.0
O305 O 0.83657 0.32826 0.82893 0.0
O306 O 0.66982 0.33953 0.84385 0.0
O307 O 0.67384 0.38489 0.885 0.0
O308 O 0.87146 0.44817 0.87681 0.0
O309 O 0.86942 0.36271 0.88564 0.0
O310 O 0.69822 0.47929 0.8448 0.0
O311 O 0.80451 0.54243 0.83942 0.0
H312 H 0.15189 0.52111 0.88518 0.0
H313 H 0.29074 0.48507 0.89224 0.0
H314 H 0.29385 0.42603 0.80375 0.0
H315 H 0.15666 0.46426 0.79651 0.0
H316 H 0.56983 0.40809 0.81718 0.0
H317 H 0.43389 0.44987 0.81 0.0
H318 H 0.36828 0.40347 0.89728 0.0
H319 H 0.50305 0.36084 0.90375 0.0
Sm320 Sm 1.01435 -0.03428 0.59733 0.0
Sm321 Sm 0.1658 0.8838 0.58053 0.0
C322 C 0.86805 0.01173 0.59382 0.0
C323 C 0.78967 -0.01135 0.58283 0.0
C324 C 0.78444 -0.06586 0.57099 0.0
C325 C 0.7076 0.90943 0.56561 0.0
C326 C 0.63546 -0.06019 0.5712 0.0
C327 C 0.64163 -0.0035 0.57933 0.0
C328 C 0.71821 0.02051 0.58524 0.0
C329 C 0.14286 -0.04448 0.63754 0.0
C330 C 0.97758 0.82781 0.59156 0.0
C331 C 0.31352 0.83856 0.58254 0.0
C332 C 0.39707 0.86283 0.57909 0.0
C333 C 0.43798 0.88543 0.60319 0.0
C334 C 0.51588 0.90909 0.60026 0.0
C335 C 0.55482 0.91132 0.57327 0.0
C336 C 0.51589 0.88718 0.5492 0.0
C337 C 0.43723 0.8634 0.55203 0.0
C338 C 0.08675 0.92011 0.53222 0.0
C339 C 0.17395 0.02783 0.57568 0.0
O340 O 0.92497 0.01976 0.57421 0.0
O341 O 0.89647 -0.01047 0.61793 0.0
O342 O 0.11296 0.91659 0.62192 0.0
O343 O 0.09661 0.00023 0.63482 0.0
O344 O 0.95047 0.87919 0.59622 0.0
O345 O 1.058 0.81709 0.58726 0.0
O346 O 0.27259 0.85316 0.60579 0.0
O347 O 0.26722 0.83613 0.55944 0.0
O348 O 0.06981 0.92967 0.55815 0.0
O349 O 0.14938 0.88655 0.53055 0.0
O350 O 0.21338 -0.02135 0.57945 0.0
O351 O 0.09358 0.032 0.57654 0.0
H352 H 0.83909 0.91003 0.56662 0.0
H353 H 0.70455 0.86595 0.55862 0.0
H354 H 0.58666 0.02086 0.58302 0.0
H355 H 0.72188 0.06296 0.59306 0.0
H356 H 0.41017 0.88448 0.62448 0.0
H357 H 0.54656 0.92521 0.61922 0.0
H358 H 0.54583 0.88705 0.52831 0.0
H359 H 0.40805 0.84542 0.5331 0.0
Sm360 Sm 0.36436 0.14819 0.60237 0.0
Sm361 Sm 0.22635 0.22526 0.58272 0.0
C362 C 0.50876 0.10695 0.61578 0.0
C363 C 0.59121 0.13086 0.61043 0.0
C364 C 0.612 0.15609 0.58385 0.0
C365 C 0.68996 0.18012 0.57981 0.0
C366 C 0.74837 0.17994 0.60236 0.0
C367 C 0.72568 0.15609 0.62904 0.0
C368 C 0.64859 0.13139 0.63283 0.0
C369 C 0.22953 0.15953 0.64023 0.0
C370 C 0.41331 0.28148 0.59168 0.0
C371 C 0.0778 0.27004 0.58599 0.0
C372 C 0.99437 0.24592 0.59012 0.0
C373 C 0.9548 0.25059 0.617 0.0
C374 C 0.87515 0.2297 0.6209 0.0
C375 C 0.83312 0.20291 0.59806 0.0
C376 C 0.87334 0.19767 0.57121 0.0
C377 C 0.9527 0.21913 0.56725 0.0
C378 C 0.30195 0.19474 0.53319 0.0
C379 C 0.22002 0.08151 0.5763 0.0
O380 O 0.46737 0.08993 0.59306 0.0
O381 O 0.46357 0.13458 0.63443 0.0
O382 O 0.26592 0.19839 0.6265 0.0
O383 O 0.26848 0.11286 0.6354 0.0
O384 O 0.43897 0.22945 0.5945 0.0
O385 O 0.33274 0.29269 0.58923 0.0
O386 O 0.12793 0.26803 0.60807 0.0
O387 O 0.11457 0.25943 0.5615 0.0
O388 O 0.3238 0.17838 0.55823 0.0
O389 O 0.24404 0.23215 0.53395 0.0
O390 O 0.17975 0.13016 0.58054 0.0
O391 O 0.30007 0.07859 0.57858 0.0
H392 H 0.56819 0.15725 0.56621 0.0
H393 H 0.70402 0.19917 0.55911 0.0
H394 H 0.76805 0.15502 0.64688 0.0
H395 H 0.63348 0.11202 0.6532 0.0
H396 H 0.98483 0.27171 0.63486 0.0
H397 H 0.84591 0.23585 0.64169 0.0
H398 H 0.84397 0.17648 0.55323 0.0
H399 H 0.98117 0.21476 0.54619 0.0
Sm400 Sm 1.01444 0.15134 0.6925 0.0
Sm401 Sm 0.16584 0.23329 0.70928 0.0
C402 C 0.86815 0.10529 0.69598 0.0
C403 C 0.78974 0.12834 0.70695 0.0
C404 C 0.78446 0.18284 0.71881 0.0
C405 C 0.70761 0.20751 0.72421 0.0
C406 C 0.63549 0.17712 0.7186 0.0
C407 C 0.6417 0.12046 0.71043 0.0
C408 C 0.71829 0.09648 0.70451 0.0
C409 C 0.14296 0.16153 0.65231 0.0
C410 C 0.97759 0.28924 0.69819 0.0
C411 C 0.3136 0.27844 0.70719 0.0
C412 C 0.39714 0.25414 0.71067 0.0
C413 C 0.4382 0.23171 0.68656 0.0
C414 C 0.51608 0.20803 0.68952 0.0
C415 C 0.55484 0.2056 0.71653 0.0
C416 C 0.51574 0.22954 0.74062 0.0
C417 C 0.43711 0.25336 0.73777 0.0
C418 C 0.08705 0.19685 0.75762 0.0
C419 C 0.17398 0.08925 0.71416 0.0
O420 O 0.92504 0.09728 0.7156 0.0
O421 O 0.89659 0.12749 0.67187 0.0
O422 O 0.113 0.20047 0.6679 0.0
O423 O 0.09672 0.11682 0.65501 0.0
O424 O 0.9505 0.23785 0.69358 0.0
O425 O 1.058 0.29999 0.7025 0.0
O426 O 0.27267 0.26369 0.68398 0.0
O427 O 0.26729 0.28106 0.73029 0.0
O428 O 0.06998 0.18732 0.7317 0.0
O429 O 0.14957 0.23051 0.75927 0.0
O430 O 0.21341 0.13842 0.71039 0.0
O431 O 0.09363 0.08506 0.7133 0.0
H432 H 0.8391 0.20695 0.72319 0.0
H433 H 0.70452 0.25098 0.73122 0.0
H434 H 0.58675 0.0961 0.70672 0.0
H435 H 0.72199 0.05405 0.69665 0.0
H436 H 0.41052 0.23282 0.66526 0.0
H437 H 0.54689 0.19204 0.67054 0.0
H438 H 0.54551 0.22946 0.76155 0.0
H439 H 0.4078 0.27119 0.75671 0.0
Sm440 Sm 0.36429 -0.03114 0.68746 0.0
Sm441 Sm 0.22638 0.89181 0.7071 0.0
C442 C 0.50867 0.01009 0.67401 0.0
C443 C 0.59113 -0.01384 0.67935 0.0
C444 C 0.61199 -0.03904 0.70592 0.0
C445 C 0.68996 -0.06306 0.70995 0.0
C446 C 0.74832 -0.06291 0.68738 0.0
C447 C 0.72554 -0.03911 0.66069 0.0
C448 C 0.64845 -0.0144 0.65692 0.0
C449 C 0.22942 -0.04245 0.64963 0.0
C450 C 0.41331 0.83559 0.69808 0.0
C451 C 0.0778 0.84708 0.70377 0.0
C452 C 0.99438 0.87122 0.69963 0.0
C453 C 0.95479 0.86645 0.67276 0.0
C454 C 0.87512 0.88733 0.66885 0.0
C455 C 0.8331 0.91418 0.69168 0.0
C456 C 0.87337 0.91954 0.71851 0.0
C457 C 0.95274 0.8981 0.72248 0.0
C458 C 0.3018 0.92233 0.75666 0.0
C459 C 0.22005 0.03556 0.71354 0.0
O460 O 0.46733 0.0271 0.69675 0.0
O461 O 0.46343 -0.01753 0.65537 0.0
O462 O 0.26587 0.91867 0.66332 0.0
O463 O 0.26837 0.00423 0.65444 0.0
O464 O 0.43896 0.88762 0.6953 0.0
O465 O 0.33275 0.82437 0.70054 0.0
O466 O 0.12798 0.8491 0.68171 0.0
O467 O 0.11453 0.85766 0.72828 0.0
O468 O 0.32375 -0.06127 0.73163 0.0
O469 O 0.24398 0.88486 0.75586 0.0
O470 O 0.17979 -0.01308 0.7093 0.0
O471 O 0.30009 0.03848 0.71126 0.0
H472 H 0.56823 -0.04017 0.72357 0.0
H473 H 0.70408 0.91793 0.73065 0.0
H474 H 0.76787 -0.03809 0.64284 0.0
H475 H 0.6333 0.00494 0.63655 0.0
H476 H 0.98479 0.84526 0.65492 0.0
H477 H 0.84585 0.88111 0.64807 0.0
H478 H 0.84401 -0.05921 0.73647 0.0
H479 H 0.98124 0.90256 0.74353 0.0
Sm480 Sm 0.97092 -0.01627 0.45915 0.0
Sm481 Sm 0.12331 0.90125 0.44312 0.0
C482 C 0.82329 0.0289 0.45657 0.0
C483 C 0.73986 0.00462 0.46043 0.0
C484 C 0.69807 -0.01791 0.43649 0.0
C485 C 0.62048 -0.04188 0.43978 0.0
C486 C 0.58274 -0.04449 0.46696 0.0
C487 C 0.62244 -0.02032 0.49087 0.0
C488 C 0.7008 0.00377 0.48769 0.0
C489 C 1.04869 -0.05283 0.5077 0.0
C490 C 0.96236 0.83971 0.46412 0.0
C491 C 0.26918 0.85468 0.44753 0.0
C492 C 0.34784 0.87792 0.45819 0.0
C493 C 0.35328 0.93293 0.46938 0.0
C494 C 0.43015 -0.04229 0.47453 0.0
C495 C 0.50221 0.927 0.46934 0.0
C496 C 0.49594 0.86999 0.46176 0.0
C497 C 0.41925 0.84582 0.45611 0.0
C498 C 0.99553 0.91139 0.40253 0.0
C499 C 0.15968 0.03935 0.44809 0.0
O500 O 0.86406 0.01299 0.43352 0.0
O501 O 0.8698 0.03279 0.47958 0.0
O502 O 1.06644 -0.06183 0.4818 0.0
O503 O 0.98582 -0.01945 0.50925 0.0
O504 O 0.92314 0.88892 0.4602 0.0
O505 O 1.04275 0.83541 0.46365 0.0
O506 O 0.21204 0.84832 0.46723 0.0
O507 O 0.24113 0.87561 0.42307 0.0
O508 O 1.0254 -0.04977 0.4182 0.0
O509 O 1.04168 0.86664 0.40541 0.0
O510 O 0.18699 -0.01212 0.44378 0.0
O511 O 0.07917 0.05015 0.45224 0.0
H512 H 0.72501 -0.01666 0.41508 0.0
H513 H 0.58904 -0.05792 0.42096 0.0
H514 H 0.59333 -0.0204 0.51191 0.0
H515 H 0.73062 0.0217 0.5065 0.0
H516 H 0.29871 -0.04264 0.47341 0.0
H517 H 0.43331 0.00149 0.48101 0.0
H518 H 0.55086 0.84537 0.45834 0.0
H519 H 0.41555 0.803 0.44877 0.0
Sm520 Sm 0.91066 0.64235 0.45659 0.0
Sm521 Sm 0.77296 0.71903 0.43668 0.0
C522 C 1.05959 0.59798 0.45348 0.0
C523 C 0.14294 0.62211 0.44904 0.0
C524 C 0.18178 0.61759 0.42201 0.0
C525 C 0.2614 0.63846 0.41787 0.0
C526 C 0.30416 0.66488 0.44065 0.0
C527 C 0.26472 0.66995 0.46763 0.0
C528 C 0.18537 0.64864 0.47181 0.0
C529 C 0.83442 0.67247 0.50603 0.0
C530 C 0.9163 0.78604 0.4632 0.0
C531 C 0.62879 0.76006 0.42261 0.0
C532 C 0.5462 0.7364 0.42799 0.0
C533 C 0.52623 0.7099 0.45431 0.0
C534 C 0.44824 0.68598 0.45841 0.0
C535 C 0.38893 0.68761 0.43618 0.0
C536 C 0.41076 0.71269 0.40971 0.0
C537 C 0.48798 0.73716 0.40584 0.0
C538 C 0.90875 0.70777 0.39914 0.0
C539 C 0.72393 0.58585 0.44768 0.0
O540 O 1.00914 0.59903 0.43146 0.0
O541 O 1.02303 0.6094 0.47792 0.0
O542 O 0.81262 0.68902 0.48099 0.0
O543 O 0.89223 0.63497 0.50525 0.0
O544 O 0.95679 0.73749 0.45899 0.0
O545 O 0.8363 0.78887 0.46064 0.0
O546 O 0.66982 0.77766 0.44529 0.0
O547 O 0.67427 0.73176 0.40432 0.0
O548 O 0.87177 0.66896 0.41269 0.0
O549 O 0.86988 0.75445 0.40398 0.0
O550 O 0.69827 0.63786 0.4448 0.0
O551 O 0.80452 0.5747 0.45012 0.0
H552 H 0.1512 0.59664 0.40422 0.0
H553 H 0.29009 0.63259 0.39696 0.0
H554 H 0.29479 0.69085 0.48556 0.0
H555 H 0.15754 0.65285 0.49299 0.0
H556 H 0.57073 0.70768 0.4717 0.0
H557 H 0.43476 0.66594 0.47891 0.0
H558 H 0.3677 0.71469 0.39212 0.0
H559 H 0.50261 0.75708 0.38556 0.0
Sm560 Sm 0.97091 0.63329 0.33055 0.0
Sm561 Sm 0.12326 0.71578 0.3466 0.0
C562 C 0.82327 0.58814 0.33313 0.0
C563 C 0.73984 0.61243 0.32928 0.0
C564 C 0.69807 0.63496 0.35322 0.0
C565 C 0.62049 0.65895 0.34994 0.0
C566 C 0.58273 0.66156 0.32276 0.0
C567 C 0.62241 0.6374 0.29884 0.0
C568 C 0.70077 0.6133 0.30202 0.0
C569 C 1.04867 0.66989 0.282 0.0
C570 C 0.96235 0.77733 0.32557 0.0
C571 C 0.26913 0.76236 0.34221 0.0
C572 C 0.3478 0.73913 0.33155 0.0
C573 C 0.35326 0.68414 0.32034 0.0
C574 C 0.43014 0.65937 0.31518 0.0
C575 C 0.50219 0.69008 0.32039 0.0
C576 C 0.49591 0.74708 0.328 0.0
C577 C 0.41921 0.77123 0.33365 0.0
C578 C 0.99541 0.70566 0.38714 0.0
C579 C 0.15969 0.57768 0.34162 0.0
O580 O 0.86406 0.60402 0.35618 0.0
O581 O 0.86977 0.58426 0.31011 0.0
O582 O 1.06642 0.67887 0.3079 0.0
O583 O 0.98582 0.63648 0.28044 0.0
O584 O 0.92313 0.72811 0.32949 0.0
O585 O 1.04274 0.78162 0.32605 0.0
O586 O 0.212 0.76873 0.32251 0.0
O587 O 0.24107 0.74141 0.36667 0.0
O588 O 1.02533 0.6668 0.3715 0.0
O589 O 1.04161 0.7504 0.38431 0.0
O590 O 0.18698 0.62915 0.34593 0.0
O591 O 0.07919 0.56688 0.33746 0.0
H592 H 0.72502 0.6337 0.37463 0.0
H593 H 0.58905 0.67498 0.36877 0.0
H594 H 0.5933 0.6375 0.27781 0.0
H595 H 0.73058 0.59538 0.2832 0.0
H596 H 0.2987 0.65971 0.3163 0.0
H597 H 0.43331 0.6156 0.30869 0.0
H598 H 0.55082 0.77169 0.33143 0.0
H599 H 0.4155 0.81404 0.34101 0.0
Sm600 Sm 0.91067 -0.0253 0.33311 0.0
Sm601 Sm 0.773 0.89802 0.35304 0.0
C602 C 1.0596 0.01907 0.33622 0.0
C603 C 0.14295 -0.00507 0.34068 0.0
C604 C 0.18179 -0.00051 0.3677 0.0
C605 C 0.26141 -0.02138 0.37185 0.0
C606 C 0.30418 -0.04783 0.34908 0.0
C607 C 0.26474 -0.05295 0.3221 0.0
C608 C 0.18539 -0.03164 0.31791 0.0
C609 C 0.83445 -0.05542 0.28367 0.0
C610 C 0.91629 0.831 0.32649 0.0
C611 C 0.62885 0.85702 0.36713 0.0
C612 C 0.54624 0.88067 0.36175 0.0
C613 C 0.52625 0.90714 0.33543 0.0
C614 C 0.44825 0.93105 0.33132 0.0
C615 C 0.38896 0.92945 0.35356 0.0
C616 C 0.41081 0.9044 0.38003 0.0
C617 C 0.48803 0.87993 0.3839 0.0
C618 C 0.90887 0.90926 0.39053 0.0
C619 C 0.72392 0.03119 0.34202 0.0
O620 O 1.00914 0.01804 0.35823 0.0
O621 O 1.02306 0.00763 0.31178 0.0
O622 O 0.81263 0.92802 0.30871 0.0
O623 O 0.89223 -0.01791 0.28445 0.0
O624 O 0.95678 0.87955 0.3307 0.0
O625 O 0.8363 0.82818 0.32907 0.0
O626 O 0.66986 0.83938 0.34445 0.0
O627 O 0.67433 0.88534 0.3854 0.0
O628 O 0.87184 -0.05191 0.37701 0.0
O629 O 0.86995 0.86259 0.38573 0.0
O630 O 0.69828 -0.02082 0.34491 0.0
O631 O 0.80451 0.04235 0.33958 0.0
H632 H 0.15121 0.02047 0.38548 0.0
H633 H 0.29011 -0.01548 0.39276 0.0
H634 H 0.29481 0.92613 0.30418 0.0
H635 H 0.15756 -0.03587 0.29674 0.0
H636 H 0.57074 0.90934 0.31803 0.0
H637 H 0.43476 -0.04893 0.31082 0.0
H638 H 0.36776 0.90243 0.39763 0.0
H639 H 0.50267 0.86003 0.40419 0.0
Sm640 Sm 0.51432 0.46577 0.59717 0.0
Sm641 Sm 0.66582 0.38378 0.58045 0.0
C642 C 0.36807 0.51185 0.59358 0.0
C643 C 0.28965 0.48878 0.58263 0.0
C644 C 0.28438 0.43421 0.57085 0.0
C645 C 0.20753 0.40953 0.56547 0.0
C646 C 0.13541 0.43997 0.57101 0.0
C647 C 0.14162 0.49668 0.57909 0.0
C648 C 0.21822 0.52068 0.585 0.0
C649 C 0.64271 0.45555 0.63743 0.0
C650 C 0.47757 0.32784 0.59153 0.0
C651 C 0.81358 0.33865 0.58256 0.0
C652 C 0.8971 0.36295 0.57904 0.0
C653 C 0.93825 0.38539 0.60313 0.0
C654 C 1.01611 0.40906 0.60014 0.0
C655 C 1.05477 0.4115 0.57311 0.0
C656 C 1.01559 0.38755 0.54904 0.0
C657 C 0.93697 0.36373 0.55192 0.0
C658 C 0.58701 0.42017 0.53209 0.0
C659 C 0.674 0.52781 0.57556 0.0
O660 O 0.425 0.51972 0.57396 0.0
O661 O 0.39645 0.48977 0.61773 0.0
O662 O 0.61282 0.41663 0.6218 0.0
O663 O 0.59652 0.50028 0.63468 0.0
O664 O 0.45044 0.37924 0.59612 0.0
O665 O 0.55799 0.3171 0.58723 0.0
O666 O 0.77268 0.35349 0.60577 0.0
O667 O 0.76723 0.33592 0.55948 0.0
O668 O 0.56996 0.4297 0.55802 0.0
O669 O 0.64962 0.38657 0.53045 0.0
O670 O 0.7134 0.47863 0.57935 0.0
O671 O 0.59364 0.53201 0.5764 0.0
H672 H 0.33901 0.41005 0.56653 0.0
H673 H 0.20444 0.36602 0.55853 0.0
H674 H 0.08667 0.52108 0.58275 0.0
H675 H 0.22192 0.56316 0.59277 0.0
H676 H 0.91065 0.38426 0.62444 0.0
H677 H 1.04699 0.42504 0.6191 0.0
H678 H 1.0453 0.38762 0.52811 0.0
H679 H 0.9076 0.3459 0.53299 0.0
Sm680 Sm 0.86431 0.64817 0.60229 0.0
Sm681 Sm 0.7264 0.72522 0.58265 0.0
C682 C 1.00868 0.60694 0.61576 0.0
C683 C 0.09114 0.63087 0.61044 0.0
C684 C 0.11191 0.65624 0.5839 0.0
C685 C 0.18987 0.68026 0.57987 0.0
C686 C 0.24832 0.67995 0.60241 0.0
C687 C 0.22563 0.65599 0.62907 0.0
C688 C 0.14853 0.63129 0.63284 0.0
C689 C 0.72948 0.6595 0.64015 0.0
C690 C 0.91332 0.78145 0.59166 0.0
C691 C 0.57779 0.76992 0.58598 0.0
C692 C 0.49438 0.74578 0.59014 0.0
C693 C 0.45483 0.75051 0.61702 0.0
C694 C 0.37517 0.72964 0.62094 0.0
C695 C 0.3331 0.70285 0.59811 0.0
C696 C 0.3733 0.69753 0.57127 0.0
C697 C 0.45268 0.71894 0.56729 0.0
C698 C 0.80183 0.6947 0.53308 0.0
C699 C 0.72008 0.58148 0.5762 0.0
O700 O 0.96738 0.58993 0.59302 0.0
O701 O 0.96341 0.63457 0.63439 0.0
O702 O 0.76591 0.69836 0.62643 0.0
O703 O 0.76837 0.61281 0.63529 0.0
O704 O 0.93897 0.72942 0.59443 0.0
O705 O 0.83275 0.79267 0.5892 0.0
O706 O 0.62799 0.76793 0.60804 0.0
O707 O 0.61451 0.75931 0.56147 0.0
O708 O 0.82378 0.6783 0.55812 0.0
O709 O 0.74401 0.73219 0.53389 0.0
O710 O 0.67981 0.63012 0.58045 0.0
O711 O 0.80012 0.57856 0.57848 0.0
H712 H 1.06808 0.6575 0.56627 0.0
H713 H 0.20394 0.69941 0.5592 0.0
H714 H 0.26802 0.65486 0.6469 0.0
H715 H 0.13344 0.61185 0.65319 0.0
H716 H 0.48489 0.77166 0.63486 0.0
H717 H 0.34594 0.73581 0.64173 0.0
H718 H 0.34389 0.67632 0.5533 0.0
H719 H 0.48114 0.71452 0.54623 0.0
Sm720 Sm 0.51437 0.65131 0.6924 0.0
Sm721 Sm 0.66583 0.73327 0.7092 0.0
C722 C 0.3681 0.60524 0.69595 0.0
C723 C 0.28969 0.6283 0.70693 0.0
C724 C 0.28442 0.68284 0.71873 0.0
C725 C 0.20758 0.70753 0.72411 0.0
C726 C 0.13545 0.67712 0.71855 0.0
C727 C 0.14166 0.62041 0.71046 0.0
C728 C 0.21826 0.59641 0.70455 0.0
C729 C 0.64291 0.6615 0.65222 0.0
C730 C 0.47759 0.78923 0.69817 0.0
C731 C 0.81356 0.77847 0.70719 0.0
C732 C 0.8971 0.75415 0.71065 0.0
C733 C 0.93797 0.73148 0.68655 0.0
C734 C 1.01584 0.70779 0.6895 0.0
C735 C 1.05479 0.70559 0.71649 0.0
C736 C 1.0159 0.7298 0.74055 0.0
C737 C 0.93726 0.75361 0.73771 0.0
C738 C 0.58678 0.69695 0.7575 0.0
C739 C 0.67401 0.58924 0.71406 0.0
O740 O 0.42504 0.59729 0.71556 0.0
O741 O 0.3965 0.62741 0.67183 0.0
O742 O 0.61298 0.70045 0.66782 0.0
O743 O 0.59663 0.61681 0.65491 0.0
O744 O 0.45048 0.73785 0.69351 0.0
O745 O 0.558 0.79997 0.70247 0.0
O746 O 0.77263 0.76388 0.68394 0.0
O747 O 0.76726 0.78092 0.73029 0.0
O748 O 0.56985 0.68739 0.73157 0.0
O749 O 0.6494 0.73051 0.75918 0.0
O750 O 0.71343 0.63842 0.71029 0.0
O751 O 0.59365 0.58506 0.7132 0.0
H752 H 0.33906 0.70699 0.72307 0.0
H753 H 0.2045 0.75103 0.73107 0.0
H754 H 0.08671 0.59601 0.70679 0.0
H755 H 0.22195 0.55393 0.69676 0.0
H756 H 0.91015 0.73242 0.66527 0.0
H757 H 1.04652 0.69162 0.67054 0.0
H758 H 1.04587 0.72997 0.76143 0.0
H759 H 0.90811 0.77164 0.75663 0.0
Sm760 Sm 0.86428 0.46886 0.68728 0.0
Sm761 Sm 0.72634 0.39181 0.70698 0.0
C762 C 1.00864 0.51005 0.67376 0.0
C763 C 0.09112 0.48616 0.67912 0.0
C764 C 0.11182 0.46082 0.70567 0.0
C765 C 0.18977 0.4368 0.70973 0.0
C766 C 0.24829 0.4371 0.68721 0.0
C767 C 0.22569 0.46106 0.66054 0.0
C768 C 0.14859 0.48575 0.65674 0.0
C769 C 0.72928 0.45756 0.6495 0.0
C770 C 0.9133 0.3356 0.69803 0.0
C771 C 0.57773 0.34709 0.70374 0.0
C772 C 0.49431 0.37121 0.69956 0.0
C773 C 0.45485 0.36653 0.67266 0.0
C774 C 0.37519 0.38741 0.66872 0.0
C775 C 0.33305 0.41417 0.69155 0.0
C776 C 0.37316 0.41941 0.71841 0.0
C777 C 0.45252 0.39798 0.72241 0.0
C778 C 0.80201 0.42232 0.75649 0.0
C779 C 0.72008 0.53556 0.71342 0.0
O780 O 0.96732 0.52717 0.69647 0.0
O781 O 0.96341 0.4823 0.65516 0.0
O782 O 0.76574 0.41868 0.66319 0.0
O783 O 0.76829 0.50422 0.65428 0.0
O784 O 0.93893 0.38763 0.69521 0.0
O785 O 0.83274 0.32437 0.70047 0.0
O786 O 0.62792 0.34894 0.68167 0.0
O787 O 0.61447 0.35784 0.72823 0.0
O788 O 0.82385 0.4387 0.73145 0.0
O789 O 0.74414 0.38487 0.75573 0.0
O790 O 0.6798 0.48692 0.70918 0.0
O791 O 0.80013 0.53847 0.7111 0.0
H792 H 1.06793 0.45957 0.72328 0.0
H793 H 0.20376 0.41766 0.73041 0.0
H794 H 0.26814 0.4622 0.64273 0.0
H795 H 0.13355 0.50517 0.63638 0.0
H796 H 0.48496 0.34543 0.65481 0.0
H797 H 0.34604 0.38128 0.64791 0.0
H798 H 0.34368 0.44058 0.73638 0.0
H799 H 0.4809 0.40234 0.74348 0.0
Sm800 Sm 0.47099 0.48375 0.45906 0.0
Sm801 Sm 0.62319 0.4014 0.44287 0.0
C802 C 0.32346 0.52914 0.45654 0.0
C803 C 0.23989 0.505 0.46027 0.0
C804 C 0.19828 0.48253 0.43629 0.0
C805 C 0.12058 0.45868 0.43948 0.0
C806 C 0.08255 0.45616 0.46662 0.0
C807 C 0.12209 0.48026 0.49058 0.0
C808 C 0.20055 0.50422 0.48749 0.0
C809 C 0.54901 0.44725 0.50757 0.0
C810 C 0.46261 0.33967 0.46404 0.0
C811 C 0.76923 0.35508 0.44705 0.0
C812 C 0.84779 0.37839 0.45776 0.0
C813 C 0.85309 0.43329 0.46912 0.0
C814 C 0.92991 0.45814 0.47428 0.0
C815 C 1.00204 0.42759 0.46893 0.0
C816 C 0.9959 0.37066 0.46122 0.0
C817 C 0.91928 0.34644 0.45555 0.0
C818 C 0.49515 0.4115 0.40239 0.0
C819 C 0.65968 0.53944 0.44797 0.0
O820 O 0.36428 0.51343 0.43347 0.0
O821 O 0.36985 0.53262 0.47959 0.0
O822 O 0.56668 0.4382 0.48166 0.0
O823 O 0.48615 0.48064 0.50914 0.0
O824 O 0.42331 0.38888 0.46016 0.0
O825 O 0.54301 0.33542 0.46346 0.0
O826 O 0.71219 0.3483 0.46675 0.0
O827 O 0.74102 0.37623 0.42266 0.0
O828 O 0.52511 0.45035 0.41803 0.0
O829 O 0.54133 0.36676 0.40523 0.0
O830 O 0.68692 0.488 0.44356 0.0
O831 O 0.5792 0.55022 0.45219 0.0
H832 H 0.22546 0.48369 0.41491 0.0
H833 H 0.08933 0.44263 0.42062 0.0
H834 H 0.09281 0.48018 0.51159 0.0
H835 H 0.23025 0.52211 0.50634 0.0
H836 H 0.79845 0.45756 0.47327 0.0
H837 H 0.93298 0.50185 0.48089 0.0
H838 H 1.05088 0.34617 0.4577 0.0
H839 H 0.91564 0.30372 0.44809 0.0
Sm840 Sm 0.41073 0.14222 0.4567 0.0
Sm841 Sm 0.27275 0.21904 0.4369 0.0
C842 C 0.55945 0.09759 0.45351 0.0
C843 C 0.64285 0.12172 0.44923 0.0
C844 C 0.68209 0.1171 0.42229 0.0
C845 C 0.76169 0.13805 0.41827 0.0
C846 C 0.80401 0.16472 0.44107 0.0
C847 C 0.76417 0.16988 0.46798 0.0
C848 C 0.68484 0.14845 0.47205 0.0
C849 C 0.33468 0.1725 0.50616 0.0
C850 C 0.41657 0.28597 0.46322 0.0
C851 C 0.1285 0.26024 0.42317 0.0
C852 C 1.04596 0.23651 0.42855 0.0
C853 C 1.02565 0.21055 0.45498 0.0
C854 C 0.94766 0.18659 0.45906 0.0
C855 C 0.88874 0.18761 0.43669 0.0
C856 C 0.91092 0.21219 0.41013 0.0
C857 C 0.98808 0.23675 0.4063 0.0
C858 C 0.40824 0.20765 0.39925 0.0
C859 C 0.22389 0.08577 0.44779 0.0
O860 O 0.50917 0.09917 0.43146 0.0
O861 O 0.52278 0.1086 0.47798 0.0
O862 O 0.31288 0.18893 0.48112 0.0
O863 O 0.3926 0.13508 0.50541 0.0
O864 O 0.457 0.23738 0.45902 0.0
O865 O 0.33655 0.28881 0.46075 0.0
O866 O 0.16974 0.27753 0.44587 0.0
O867 O 0.17379 0.23225 0.40469 0.0
O868 O 0.37136 0.16889 0.41287 0.0
O869 O 0.36934 0.25435 0.40406 0.0
O870 O 0.19817 0.13777 0.44489 0.0
O871 O 0.30448 0.07463 0.45026 0.0
H872 H 0.65184 0.09601 0.40447 0.0
H873 H 0.79069 0.13205 0.39742 0.0
H874 H 0.79386 0.19096 0.48593 0.0
H875 H 0.65666 0.15275 0.49316 0.0
H876 H 0.06987 0.20876 0.47247 0.0
H877 H 0.93393 0.16697 0.47964 0.0
H878 H 0.86815 0.21379 0.39243 0.0
H879 H 1.00292 0.25641 0.38598 0.0
Sm880 Sm 0.47095 0.13328 0.33065 0.0
Sm881 Sm 0.62311 0.21563 0.34688 0.0
C882 C 0.32342 0.08789 0.33313 0.0
C883 C 0.23986 0.11206 0.32943 0.0
C884 C 0.19836 0.13461 0.35342 0.0
C885 C 0.12066 0.15847 0.35025 0.0
C886 C 0.08251 0.16094 0.32313 0.0
C887 C 0.12195 0.13676 0.29916 0.0
C888 C 0.20041 0.11278 0.30223 0.0
C889 C 0.54911 0.16974 0.28215 0.0
C890 C 0.46259 0.27736 0.32566 0.0
C891 C 0.76915 0.26195 0.34275 0.0
C892 C 0.84772 0.23867 0.33203 0.0
C893 C 0.85304 0.1838 0.32064 0.0
C894 C 0.92987 0.15896 0.31547 0.0
C895 C 1.00199 0.1895 0.32084 0.0
C896 C 0.99583 0.24642 0.32858 0.0
C897 C 0.9192 0.27062 0.33426 0.0
C898 C 0.49495 0.20555 0.3873 0.0
C899 C 0.65965 0.07759 0.34174 0.0
O900 O 0.36427 0.10349 0.35622 0.0
O901 O 0.36979 0.08452 0.31007 0.0
O902 O 0.56671 0.17882 0.30806 0.0
O903 O 0.48623 0.13637 0.28057 0.0
O904 O 0.42327 0.22816 0.32954 0.0
O905 O 0.54298 0.2816 0.32625 0.0
O906 O 0.71213 0.26879 0.32305 0.0
O907 O 0.74091 0.24074 0.36712 0.0
O908 O 0.52497 0.16668 0.37169 0.0
O909 O 0.54118 0.25028 0.3845 0.0
O910 O 0.68687 0.12903 0.34617 0.0
O911 O 0.57918 0.06681 0.33751 0.0
H912 H 0.22561 0.1335 0.37479 0.0
H913 H 0.08948 0.17458 0.36912 0.0
H914 H 0.09258 0.13679 0.27817 0.0
H915 H 0.23002 0.09484 0.28338 0.0
H916 H 0.79841 0.15953 0.31647 0.0
H917 H 0.93295 0.11527 0.30884 0.0
H918 H 1.0508 0.27091 0.33212 0.0
H919 H 0.91556 0.31333 0.34175 0.0
Sm920 Sm 0.41077 0.47483 0.33301 0.0
Sm921 Sm 0.27283 0.39802 0.35285 0.0
C922 C 0.55951 0.51943 0.33617 0.0
C923 C 0.6429 0.49531 0.34047 0.0
C924 C 0.68209 0.49993 0.36743 0.0
C925 C 0.76169 0.47899 0.37147 0.0
C926 C 0.80407 0.45232 0.34867 0.0
C927 C 0.76427 0.44715 0.32175 0.0
C928 C 0.68494 0.46858 0.31767 0.0
C929 C 0.33465 0.44456 0.28357 0.0
C930 C 0.41655 0.33107 0.32649 0.0
C931 C 0.12859 0.35685 0.36664 0.0
C932 C 1.04603 0.38056 0.36124 0.0
C933 C 1.02573 0.40649 0.3348 0.0
C934 C 0.94775 0.43044 0.33071 0.0
C935 C 0.8888 0.42944 0.35307 0.0
C936 C 0.91097 0.40489 0.37964 0.0
C937 C 0.98814 0.38034 0.38349 0.0
C938 C 0.40844 0.40938 0.39044 0.0
C939 C 0.22392 0.53127 0.34192 0.0
O940 O 0.50921 0.51795 0.35822 0.0
O941 O 0.52284 0.50834 0.31171 0.0
O942 O 0.31287 0.42812 0.30862 0.0
O943 O 0.39254 0.48199 0.28431 0.0
O944 O 0.45701 0.37966 0.33068 0.0
O945 O 0.33654 0.32824 0.32897 0.0
O946 O 0.16982 0.33949 0.34395 0.0
O947 O 0.17388 0.38492 0.38508 0.0
O948 O 0.37151 0.44816 0.37685 0.0
O949 O 0.36948 0.36269 0.38568 0.0
O950 O 0.19822 0.47927 0.34483 0.0
O951 O 0.30451 0.54242 0.33945 0.0
H952 H 0.6518 0.52103 0.38523 0.0
H953 H 0.79066 0.485 0.39232 0.0
H954 H 0.794 0.42607 0.30381 0.0
H955 H 0.6568 0.46427 0.29655 0.0
H956 H 0.06997 0.40826 0.31731 0.0
H957 H 0.93403 0.45004 0.31012 0.0
H958 H 0.86819 0.40331 0.39733 0.0
H959 H 1.00297 0.3607 0.40382 0.0
Sm960 Sm 0.51428 -0.03422 0.09726 0.0
Sm961 Sm 0.66582 0.8838 0.08053 0.0
C962 C 0.36804 0.01188 0.09364 0.0
C963 C 0.28963 -0.0112 0.08268 0.0
C964 C 0.28436 -0.06579 0.07093 0.0
C965 C 0.20751 0.90951 0.06556 0.0
C966 C 0.13539 -0.06004 0.07108 0.0
C967 C 0.1416 -0.0033 0.07912 0.0
C968 C 0.2182 0.02072 0.08501 0.0
C969 C 0.64269 -0.04444 0.13751 0.0
C970 C 0.47757 0.82785 0.09155 0.0
C971 C 0.81355 0.83862 0.08257 0.0
C972 C 0.89707 0.86294 0.07907 0.0
C973 C 0.93804 0.88558 0.10315 0.0
C974 C 1.01589 0.90927 0.10018 0.0
C975 C 1.05474 0.9115 0.07317 0.0
C976 C 1.01577 0.8873 0.04912 0.0
C977 C 0.93714 0.86349 0.05199 0.0
C978 C 0.58683 0.92012 0.0322 0.0
C979 C 0.67403 0.02782 0.07567 0.0
O980 O 0.42501 0.01972 0.07403 0.0
O981 O 0.39639 -0.01019 0.11779 0.0
O982 O 0.61282 0.91664 0.12188 0.0
O983 O 0.59646 0.00027 0.13478 0.0
O984 O 0.45044 0.87923 0.09618 0.0
O985 O 0.55799 0.81711 0.08726 0.0
O986 O 0.77265 0.85331 0.1058 0.0
O987 O 0.76722 0.83604 0.05948 0.0
O988 O 0.56987 0.92966 0.05813 0.0
O989 O 0.64948 0.88657 0.03054 0.0
O990 O 0.71343 -0.02137 0.07945 0.0
O991 O 0.59366 0.03201 0.0765 0.0
H992 H 0.33899 0.91004 0.06663 0.0
H993 H 0.20443 0.86599 0.05865 0.0
H994 H 0.08665 0.02112 0.08274 0.0
H995 H 0.22189 0.06323 0.09274 0.0
H996 H 0.9103 0.88462 0.12445 0.0
H997 H 1.04664 0.92542 0.11912 0.0
H998 H 1.04567 0.88713 0.02823 0.0
H999 H 0.90792 0.84547 0.03308 0.0
Sm1000 Sm 0.86432 0.14818 0.10246 0.0
Sm1001 Sm 0.72637 0.22522 0.08276 0.0
C1002 C 1.00867 0.10699 0.11599 0.0
C1003 C 0.09115 0.13087 0.11064 0.0
C1004 C 0.11178 0.15634 0.08411 0.0
C1005 C 0.18974 0.18036 0.08005 0.0
C1006 C 0.24831 0.17994 0.10255 0.0
C1007 C 0.22577 0.15587 0.1292 0.0
C1008 C 0.14867 0.13118 0.133 0.0
C1009 C 0.72936 0.1595 0.14027 0.0
C1010 C 0.91331 0.28145 0.09171 0.0
C1011 C 0.57774 0.26992 0.08601 0.0
C1012 C 0.49432 0.2458 0.09019 0.0
C1013 C 0.4549 0.25045 0.1171 0.0
C1014 C 0.37523 0.22957 0.12104 0.0
C1015 C 0.33306 0.20286 0.09821 0.0
C1016 C 0.37314 0.19765 0.07134 0.0
C1017 C 0.45251 0.21907 0.06734 0.0
C1018 C 0.80205 0.19473 0.03325 0.0
C1019 C 0.72011 0.08149 0.07632 0.0
O1020 O 0.96736 0.08987 0.09327 0.0
O1021 O 0.96342 0.13473 0.13458 0.0
O1022 O 0.7658 0.19836 0.12656 0.0
O1023 O 0.76832 0.11282 0.13544 0.0
O1024 O 0.93896 0.22942 0.09453 0.0
O1025 O 0.83274 0.29267 0.08927 0.0
O1026 O 0.62794 0.26809 0.10808 0.0
O1027 O 0.61448 0.25916 0.06152 0.0
O1028 O 0.82389 0.17834 0.05829 0.0
O1029 O 0.74417 0.23217 0.03401 0.0
O1030 O 0.67983 0.13012 0.08056 0.0
O1031 O 0.80016 0.07857 0.07864 0.0
H1032 H 1.06785 0.15768 0.06651 0.0
H1033 H 0.20369 0.19959 0.05939 0.0
H1034 H 0.26826 0.15465 0.147 0.0
H1035 H 0.13367 0.11169 0.15335 0.0
H1036 H 0.48503 0.27152 0.13495 0.0
H1037 H 0.3461 0.23567 0.14186 0.0
H1038 H 0.34363 0.17652 0.05337 0.0
H1039 H 0.48086 0.21473 0.04626 0.0
Sm1040 Sm 0.51436 0.15128 0.19256 0.0
Sm1041 Sm 0.66584 0.2333 0.20929 0.0
C1042 C 0.36813 0.10515 0.19616 0.0
C1043 C 0.28969 0.1282 0.20711 0.0
C1044 C 0.28438 0.18278 0.21887 0.0
C1045 C 0.20751 0.20744 0.22426 0.0
C1046 C 0.13541 0.17697 0.21873 0.0
C1047 C 0.14166 0.12025 0.21066 0.0
C1048 C 0.21827 0.09627 0.20476 0.0
C1049 C 0.64279 0.16149 0.15234 0.0
C1050 C 0.47757 0.28921 0.19821 0.0
C1051 C 0.81363 0.27838 0.20718 0.0
C1052 C 0.89713 0.25404 0.2107 0.0
C1053 C 0.93825 0.23157 0.18661 0.0
C1054 C 1.0161 0.20786 0.1896 0.0
C1055 C 1.05476 0.20543 0.21663 0.0
C1056 C 1.01561 0.22942 0.2407 0.0
C1057 C 0.93701 0.25327 0.23782 0.0
C1058 C 0.58711 0.19684 0.25764 0.0
C1059 C 0.67406 0.08926 0.21418 0.0
O1060 O 0.42507 0.09733 0.21579 0.0
O1061 O 0.39651 0.12722 0.17202 0.0
O1062 O 0.61286 0.20043 0.16795 0.0
O1063 O 0.59656 0.11678 0.15505 0.0
O1064 O 0.45046 0.23781 0.19362 0.0
O1065 O 0.55798 0.29996 0.20251 0.0
O1066 O 0.77272 0.26356 0.18397 0.0
O1067 O 0.76728 0.28115 0.23026 0.0
O1068 O 0.57003 0.18734 0.23171 0.0
O1069 O 0.64965 0.23048 0.25929 0.0
O1070 O 0.71345 0.13845 0.21039 0.0
O1071 O 0.5937 0.08506 0.21334 0.0
H1072 H 0.33899 0.20696 0.22318 0.0
H1073 H 0.2044 0.25095 0.23118 0.0
H1074 H 0.08672 0.09583 0.20701 0.0
H1075 H 0.22199 0.05378 0.19699 0.0
H1076 H 0.91065 0.2327 0.1653 0.0
H1077 H 1.04698 0.19186 0.17065 0.0
H1078 H 1.04533 0.22937 0.26163 0.0
H1079 H 0.90766 0.27113 0.25674 0.0
Sm1080 Sm 0.86423 -0.03113 0.18738 0.0
Sm1081 Sm 0.72639 0.89185 0.20707 0.0
C1082 C 1.00858 0.01005 0.17382 0.0
C1083 C 0.09106 -0.01385 0.17915 0.0
C1084 C 0.11176 -0.03929 0.20567 0.0
C1085 C 0.18973 -0.0633 0.20971 0.0
C1086 C 0.24825 -0.0629 0.1872 0.0
C1087 C 0.22563 -0.03888 0.16055 0.0
C1088 C 0.14852 -0.01418 0.15677 0.0
C1089 C 0.72925 -0.04241 0.1496 0.0
C1090 C 0.91331 0.83562 0.19806 0.0
C1091 C 0.57774 0.84721 0.20376 0.0
C1092 C 0.49433 0.87134 0.19956 0.0
C1093 C 0.45487 0.8666 0.17266 0.0
C1094 C 0.3752 0.88746 0.16871 0.0
C1095 C 0.33304 0.91423 0.19153 0.0
C1096 C 0.37316 0.91956 0.21838 0.0
C1097 C 0.45254 0.89816 0.22239 0.0
C1098 C 0.80188 0.92234 0.25662 0.0
C1099 C 0.72013 0.03559 0.21353 0.0
O1100 O 0.96732 0.02717 0.19655 0.0
O1101 O 0.96327 -0.01767 0.15524 0.0
O1102 O 0.76575 0.9187 0.16327 0.0
O1103 O 0.7682 0.00426 0.15441 0.0
O1104 O 0.93893 0.88766 0.19528 0.0
O1105 O 0.83274 0.82439 0.20051 0.0
O1106 O 0.62798 0.84905 0.18171 0.0
O1107 O 0.61442 0.85792 0.22826 0.0
O1108 O 0.82383 -0.06123 0.23158 0.0
O1109 O 0.7441 0.88484 0.25581 0.0
O1110 O 0.67985 -0.01304 0.20928 0.0
O1111 O 0.80017 0.0385 0.21122 0.0
H1112 H 1.06787 -0.04061 0.22329 0.0
H1113 H 0.20374 0.9175 0.23037 0.0
H1114 H 0.26807 -0.03769 0.14273 0.0
H1115 H 0.13347 0.00529 0.13642 0.0
H1116 H 0.48499 0.84546 0.15483 0.0
H1117 H 0.34604 0.88129 0.14791 0.0
H1118 H 0.34366 -0.05925 0.23634 0.0
H1119 H 0.48092 0.90258 0.24346 0.0
Sm1120 Sm 0.47093 -0.01628 0.95915 0.0
Sm1121 Sm 0.62335 0.90122 0.94313 0.0
C1122 C 0.3233 0.02888 0.95658 0.0
C1123 C 0.23987 0.00459 0.96044 0.0
C1124 C 0.19809 -0.01797 0.93651 0.0
C1125 C 0.12051 -0.04194 0.93981 0.0
C1126 C 0.08276 -0.04452 0.96698 0.0
C1127 C 0.12245 -0.02032 0.99089 0.0
C1128 C 0.20081 0.00376 0.9877 0.0
C1129 C 0.54874 -0.05283 1.0077 0.0
C1130 C 0.46235 0.8397 0.96412 0.0
C1131 C 0.76919 0.85463 0.94758 0.0
C1132 C 0.84786 0.87787 0.95823 0.0
C1133 C 0.8533 0.9329 0.96941 0.0
C1134 C 0.93017 -0.04232 0.97455 0.0
C1135 C 1.00223 0.92696 0.96936 0.0
C1136 C 0.99596 0.86994 0.96181 0.0
C1137 C 0.91927 0.84576 0.95617 0.0
C1138 C 0.49558 0.91138 0.90254 0.0
C1139 C 0.65969 0.03933 0.9481 0.0
O1140 O 0.36406 0.01298 0.93352 0.0
O1141 O 0.36981 0.03278 0.97959 0.0
O1142 O 0.56647 -0.06182 0.9818 0.0
O1143 O 0.48585 -0.01946 1.00926 0.0
O1144 O 0.42314 0.88891 0.9602 0.0
O1145 O 0.54275 0.83539 0.96365 0.0
O1146 O 0.71204 0.84831 0.96727 0.0
O1147 O 0.74117 0.87552 0.9231 0.0
O1148 O 0.52545 -0.04979 0.91821 0.0
O1149 O 0.54174 0.86663 0.90541 0.0
O1150 O 0.68701 -0.01214 0.9438 0.0
O1151 O 0.57918 0.05013 0.95225 0.0
H1152 H 0.22503 -0.01673 0.91509 0.0
H1153 H 0.08906 -0.05799 0.92098 0.0
H1154 H 0.09332 -0.02037 1.01192 0.0
H1155 H 0.23062 0.02172 1.00651 0.0
H1156 H 0.79873 -0.04267 0.97342 0.0
H1157 H 0.93333 0.00147 0.98101 0.0
H1158 H 1.05088 0.84531 0.9584 0.0
H1159 H 0.91558 0.80293 0.94885 0.0
Sm1160 Sm 0.41066 0.64234 0.95656 0.0
Sm1161 Sm 0.27296 0.71904 0.93664 0.0
C1162 C 0.5596 0.59799 0.95347 0.0
C1163 C 0.64295 0.62212 0.94901 0.0
C1164 C 0.68175 0.61763 0.92198 0.0
C1165 C 0.76137 0.63848 0.91783 0.0
C1166 C 0.80417 0.66488 0.94061 0.0
C1167 C 0.76478 0.66993 0.9676 0.0
C1168 C 0.68543 0.64863 0.97179 0.0
C1169 C 0.33437 0.67247 1.00599 0.0
C1170 C 0.41628 0.78604 0.96318 0.0
C1171 C 0.1288 0.76006 0.92256 0.0
C1172 C 1.04621 0.73639 0.92793 0.0
C1173 C 1.02628 0.70984 0.95424 0.0
C1174 C 0.94829 0.68591 0.95835 0.0
C1175 C 0.88895 0.6876 0.93613 0.0
C1176 C 0.91074 0.71273 0.90967 0.0
C1177 C 0.98796 0.7372 0.9058 0.0
C1178 C 0.40879 0.70778 0.89912 0.0
C1179 C 0.22392 0.58586 0.94766 0.0
O1180 O 0.50914 0.59899 0.93146 0.0
O1181 O 0.52305 0.60945 0.9779 0.0
O1182 O 0.31259 0.68902 0.98095 0.0
O1183 O 0.39216 0.63496 1.00523 0.0
O1184 O 0.45677 0.73749 0.95897 0.0
O1185 O 0.33629 0.78887 0.96061 0.0
O1186 O 0.16981 0.77767 0.94524 0.0
O1187 O 0.17429 0.73176 0.90428 0.0
O1188 O 0.37179 0.66897 0.91267 0.0
O1189 O 0.3699 0.75446 0.90396 0.0
O1190 O 0.19827 0.63787 0.94477 0.0
O1191 O 0.30451 0.5747 0.9501 0.0
H1192 H 0.65114 0.59669 0.90419 0.0
H1193 H 0.79004 0.63264 0.89691 0.0
H1194 H 0.79489 0.6908 0.98553 0.0
H1195 H 0.65764 0.65281 0.99297 0.0
H1196 H 0.07081 0.70757 0.97162 0.0
H1197 H 0.93484 0.66582 0.97884 0.0
H1198 H 0.86765 0.71477 0.89209 0.0
H1199 H 1.00256 0.75715 0.88553 0.0
Sm1200 Sm 0.47091 0.6333 0.83055 0.0
Sm1201 Sm 0.6233 0.71581 0.84659 0.0
C1202 C 0.32328 0.58816 0.83312 0.0
C1203 C 0.23985 0.61247 0.82927 0.0
C1204 C 0.19809 0.63502 0.8532 0.0
C1205 C 0.12051 0.65901 0.84992 0.0
C1206 C 0.08275 0.6616 0.82274 0.0
C1207 C 0.12242 0.6374 0.79883 0.0
C1208 C 0.20077 0.61331 0.80201 0.0
C1209 C 0.54871 0.66988 0.78201 0.0
C1210 C 0.46233 0.77734 0.82557 0.0
C1211 C 0.76914 0.76241 0.84217 0.0
C1212 C 0.84782 0.73918 0.83151 0.0
C1213 C 0.85328 0.68418 0.82032 0.0
C1214 C 0.93016 0.65941 0.81517 0.0
C1215 C 1.00221 0.69012 0.82037 0.0
C1216 C 0.99592 0.74713 0.82795 0.0
C1217 C 0.91923 0.77129 0.83359 0.0
C1218 C 0.49546 0.70567 0.88714 0.0
C1219 C 0.6597 0.57771 0.8416 0.0
O1220 O 0.36406 0.60404 0.85618 0.0
O1221 O 0.36978 0.58427 0.81011 0.0
O1222 O 0.56644 0.67887 0.80791 0.0
O1223 O 0.48585 0.63649 0.78045 0.0
O1224 O 0.42313 0.72812 0.82949 0.0
O1225 O 0.54273 0.78164 0.82605 0.0
O1226 O 0.712 0.76874 0.82247 0.0
O1227 O 0.7411 0.74149 0.86663 0.0
O1228 O 0.52537 0.66682 0.87149 0.0
O1229 O 0.54166 0.75041 0.8843 0.0
O1230 O 0.687 0.62918 0.84592 0.0
O1231 O 0.5792 0.5669 0.83745 0.0
H1232 H 0.22504 0.63378 0.87462 0.0
H1233 H 0.08907 0.67506 0.86874 0.0
H1234 H 0.09329 0.63746 0.7778 0.0
H1235 H 0.23057 0.59535 0.7832 0.0
H1236 H 0.79872 0.65975 0.81629 0.0
H1237 H 0.93333 0.61563 0.80869 0.0
H1238 H 1.05083 0.77175 0.83138 0.0
H1239 H 0.91552 0.81411 0.84094 0.0
Sm1240 Sm 0.41066 -0.02529 0.83314 0.0
Sm1241 Sm 0.273 0.89801 0.85308 0.0
C1242 C 0.55961 0.01905 0.83623 0.0
C1243 C 0.64296 -0.00508 0.8407 0.0
C1244 C 0.68176 -0.00054 0.86773 0.0
C1245 C 0.76138 -0.0214 0.87189 0.0
C1246 C 0.80419 -0.04783 0.84913 0.0
C1247 C 0.7648 -0.05292 0.82213 0.0
C1248 C 0.68544 -0.03162 0.81794 0.0
C1249 C 0.33439 -0.05542 0.78372 0.0
C1250 C 0.41627 0.831 0.82651 0.0
C1251 C 0.12885 0.85702 0.86719 0.0
C1252 C 1.04625 0.88068 0.86181 0.0
C1253 C 1.0263 0.9072 0.8355 0.0
C1254 C 0.94831 0.93112 0.83139 0.0
C1255 C 0.88897 0.92946 0.85361 0.0
C1256 C 0.91078 0.90437 0.88007 0.0
C1257 C 0.98801 0.8799 0.88395 0.0
C1258 C 0.40891 0.90925 0.89055 0.0
C1259 C 0.22391 0.03118 0.84204 0.0
O1260 O 0.50914 0.01808 0.85824 0.0
O1261 O 0.52308 0.00756 0.8118 0.0
O1262 O 0.3126 0.92802 0.80875 0.0
O1263 O 0.39216 -0.01789 0.78448 0.0
O1264 O 0.45676 0.87955 0.83072 0.0
O1265 O 0.33628 0.82818 0.8291 0.0
O1266 O 0.16985 0.83937 0.84451 0.0
O1267 O 0.17435 0.88535 0.88545 0.0
O1268 O 0.37186 -0.05192 0.87704 0.0
O1269 O 0.36998 0.86258 0.88575 0.0
O1270 O 0.19828 -0.02083 0.84494 0.0
O1271 O 0.3045 0.04235 0.8396 0.0
H1272 H 0.65115 0.02042 0.88551 0.0
H1273 H 0.79004 -0.01552 0.89281 0.0
H1274 H 0.79491 0.92618 0.80421 0.0
H1275 H 0.65765 -0.03584 0.79676 0.0
H1276 H 0.07082 0.90944 0.81811 0.0
H1277 H 0.93485 -0.04882 0.81089 0.0
H1278 H 0.86771 0.90236 0.89766 0.0
H1279 H 1.00262 0.85997 0.90423 0.0
loop_
_geom_bond_atom_site_label_1
_geom_bond_atom_site_label_2
_geom_bond_distance
_geom_bond_site_symmetry_2
_ccdc_geom_bond_type
Sm0 C2 2.846 . S
Sm0 O20 2.543 . S
Sm0 O21 2.450 . S
Sm0 O22 2.681 1_655 S
Sm0 O23 2.464 . S
Sm0 O24 2.396 . S
Sm0 O28 2.386 . S
Sm0 O31 2.408 1_655 S
Sm1 C11 2.846 . S
Sm1 O22 2.386 . S
Sm1 O25 2.408 . S
Sm1 O26 2.543 . S
Sm1 O27 2.450 . S
Sm1 O28 2.681 1_455 S
Sm1 O29 2.464 . S
Sm1 O30 2.396 . S
C2 Sm0 2.846 . S
C2 C3 1.506 . S
C2 O20 1.261 . S
C2 O21 1.242 . S
C3 C2 1.506 . S
C3 C4 1.358 . S
C3 C8 1.382 . S
C4 C3 1.358 . S
C4 C5 1.385 . S
C4 H32 0.930 . S
C5 C4 1.385 . S
C5 C6 1.395 . S
C5 H33 0.929 . S
C6 C5 1.395 . S
C6 C7 1.335 . S
C7 C6 1.335 . S
C7 C8 1.398 . S
C7 H34 0.930 . S
C8 C3 1.382 . S
C8 C7 1.398 . S
C8 H35 0.929 . S
C9 O22 1.271 . S
C9 O23 1.251 1_455 S
C10 O24 1.252 . S
C10 O25 1.272 1_655 S
C11 Sm1 2.846 . S
C11 C12 1.506 . S
C11 O26 1.261 . S
C11 O27 1.242 . S
C12 C11 1.506 . S
C12 C13 1.358 . S
C12 C17 1.382 . S
C13 C12 1.358 . S
C13 C14 1.385 . S
C13 H36 0.930 . S
C14 C13 1.385 . S
C14 C15 1.395 . S
C14 H37 0.929 . S
C15 C14 1.395 . S
C15 C16 1.335 . S
C16 C15 1.335 . S
C16 C17 1.398 . S
C16 H38 0.930 . S
C17 C12 1.382 . S
C17 C16 1.398 . S
C17 H39 0.929 . S
C18 O28 1.271 1_455 S
C18 O29 1.251 . S
C19 O30 1.252 . S
C19 O31 1.272 . S
O20 Sm0 2.543 . S
O20 C2 1.261 . S
O21 Sm0 2.450 . S
O21 C2 1.242 . S
O22 Sm0 2.681 1_455 S
O22 Sm1 2.386 . S
O22 C9 1.271 . S
O23 Sm0 2.464 . S
O23 C9 1.251 1_655 S
O24 Sm0 2.396 . S
O24 C10 1.252 . S
O25 Sm1 2.408 . S
O25 C10 1.272 1_455 S
O26 Sm1 2.543 . S
O26 C11 1.261 . S
O27 Sm1 2.450 . S
O27 C11 1.242 . S
O28 Sm0 2.386 . S
O28 Sm1 2.681 1_655 S
O28 C18 1.271 1_655 S
O29 Sm1 2.464 . S
O29 C18 1.251 . S
O30 Sm1 2.396 . S
O30 C19 1.252 . S
O31 Sm0 2.408 1_455 S
O31 C19 1.272 . S
H32 C4 0.930 . S
H33 C5 0.929 . S
H34 C7 0.930 . S
H35 C8 0.929 . S
H36 C13 0.930 . S
H37 C14 0.929 . S
H38 C16 0.930 . S
H39 C17 0.929 . S
Sm40 C42 2.846 . S
Sm40 O60 2.543 . S
Sm40 O61 2.450 . S
Sm40 O62 2.681 . S
Sm40 O63 2.464 . S
Sm40 O64 2.396 . S
Sm40 O68 2.386 . S
Sm40 O71 2.408 . S
Sm41 C51 2.846 1_455 S
Sm41 O62 2.386 . S
Sm41 O65 2.408 . S
Sm41 O66 2.543 . S
Sm41 O67 2.450 . S
Sm41 O68 2.681 . S
Sm41 O69 2.464 . S
Sm41 O70 2.396 . S
C42 Sm40 2.846 . S
C42 C43 1.506 . S
C42 O60 1.261 . S
C42 O61 1.242 . S
C43 C42 1.506 . S
C43 C44 1.358 . S
C43 C48 1.382 . S
C44 C43 1.358 . S
C44 C45 1.385 . S
C44 H72 0.930 . S
C45 C44 1.385 . S
C45 C46 1.395 . S
C45 H73 0.929 . S
C46 C45 1.395 . S
C46 C47 1.335 . S
C47 C46 1.335 . S
C47 C48 1.398 . S
C47 H74 0.930 . S
C48 C43 1.382 . S
C48 C47 1.398 . S
C48 H75 0.929 . S
C49 O62 1.271 . S
C49 O63 1.251 . S
C50 O64 1.252 . S
C50 O65 1.272 . S
C51 Sm41 2.846 1_655 S
C51 C52 1.506 . S
C51 O66 1.261 1_655 S
C51 O67 1.242 1_655 S
C52 C51 1.506 . S
C52 C53 1.358 . S
C52 C57 1.382 . S
C53 C52 1.358 . S
C53 C54 1.385 . S
C53 H76 0.930 . S
C54 C53 1.385 . S
C54 C55 1.395 . S
C54 H77 0.929 . S
C55 C54 1.395 . S
C55 C56 1.335 . S
C56 C55 1.335 . S
C56 C57 1.398 . S
C56 H78 0.930 . S
C57 C52 1.382 . S
C57 C56 1.398 . S
C57 H79 0.929 . S
C58 O68 1.271 . S
C58 O69 1.251 . S
C59 O70 1.252 . S
C59 O71 1.272 . S
O60 Sm40 2.543 . S
O60 C42 1.261 . S
O61 Sm40 2.450 . S
O61 C42 1.242 . S
O62 Sm40 2.681 . S
O62 Sm41 2.386 . S
O62 C49 1.271 . S
O63 Sm40 2.464 . S
O63 C49 1.251 . S
O64 Sm40 2.396 . S
O64 C50 1.252 . S
O65 Sm41 2.408 . S
O65 C50 1.272 . S
O66 Sm41 2.543 . S
O66 C51 1.261 1_455 S
O67 Sm41 2.450 . S
O67 C51 1.242 1_455 S
O68 Sm40 2.386 . S
O68 Sm41 2.681 . S
O68 C58 1.271 . S
O69 Sm41 2.464 . S
O69 C58 1.251 . S
O70 Sm41 2.396 . S
O70 C59 1.252 . S
O71 Sm40 2.408 . S
O71 C59 1.272 . S
H72 C44 0.930 . S
H73 C45 0.929 . S
H74 C47 0.930 . S
H75 C48 0.929 . S
H76 C53 0.930 . S
H77 C54 0.929 . S
H78 C56 0.930 . S
H79 C57 0.929 . S
Sm80 C82 2.846 . S
Sm80 O100 2.543 . S
Sm80 O101 2.450 . S
Sm80 O102 2.681 1_655 S
Sm80 O103 2.464 . S
Sm80 O104 2.396 . S
Sm80 O108 2.386 . S
Sm80 O111 2.408 1_655 S
Sm81 C91 2.846 . S
Sm81 O102 2.386 . S
Sm81 O105 2.408 . S
Sm81 O106 2.543 . S
Sm81 O107 2.450 . S
Sm81 O108 2.681 1_455 S
Sm81 O109 2.464 . S
Sm81 O110 2.396 . S
C82 Sm80 2.846 . S
C82 C83 1.506 . S
C82 O100 1.261 . S
C82 O101 1.242 . S
C83 C82 1.506 . S
C83 C84 1.358 . S
C83 C88 1.382 . S
C84 C83 1.358 . S
C84 C85 1.385 . S
C84 H112 0.930 . S
C85 C84 1.385 . S
C85 C86 1.395 . S
C85 H113 0.929 . S
C86 C85 1.395 . S
C86 C87 1.335 . S
C87 C86 1.335 . S
C87 C88 1.398 . S
C87 H114 0.930 . S
C88 C83 1.382 . S
C88 C87 1.398 . S
C88 H115 0.929 . S
C89 O102 1.271 . S
C89 O103 1.251 1_455 S
C90 O104 1.252 . S
C90 O105 1.272 1_655 S
C91 Sm81 2.846 . S
C91 C92 1.506 . S
C91 O106 1.261 . S
C91 O107 1.242 . S
C92 C91 1.506 . S
C92 C93 1.358 . S
C92 C97 1.382 . S
C93 C92 1.358 . S
C93 C94 1.385 . S
C93 H116 0.930 . S
C94 C93 1.385 . S
C94 C95 1.395 . S
C94 H117 0.929 . S
C95 C94 1.395 . S
C95 C96 1.335 . S
C96 C95 1.335 . S
C96 C97 1.398 . S
C96 H118 0.930 . S
C97 C92 1.382 . S
C97 C96 1.398 . S
C97 H119 0.929 . S
C98 O108 1.271 1_455 S
C98 O109 1.251 . S
C99 O110 1.252 . S
C99 O111 1.272 . S
O100 Sm80 2.543 . S
O100 C82 1.261 . S
O101 Sm80 2.450 . S
O101 C82 1.242 . S
O102 Sm80 2.681 1_455 S
O102 Sm81 2.386 . S
O102 C89 1.271 . S
O103 Sm80 2.464 . S
O103 C89 1.251 1_655 S
O104 Sm80 2.396 . S
O104 C90 1.252 . S
O105 Sm81 2.408 . S
O105 C90 1.272 1_455 S
O106 Sm81 2.543 . S
O106 C91 1.261 . S
O107 Sm81 2.450 . S
O107 C91 1.242 . S
O108 Sm80 2.386 . S
O108 Sm81 2.681 1_655 S
O108 C98 1.271 1_655 S
O109 Sm81 2.464 . S
O109 C98 1.251 . S
O110 Sm81 2.396 . S
O110 C99 1.252 . S
O111 Sm80 2.408 1_455 S
O111 C99 1.272 . S
H112 C84 0.930 . S
H113 C85 0.929 . S
H114 C87 0.930 . S
H115 C88 0.929 . S
H116 C93 0.930 . S
H117 C94 0.929 . S
H118 C96 0.930 . S
H119 C97 0.929 . S
Sm120 C122 2.846 . S
Sm120 O140 2.543 . S
Sm120 O141 2.450 . S
Sm120 O142 2.681 . S
Sm120 O143 2.464 . S
Sm120 O144 2.396 . S
Sm120 O148 2.386 . S
Sm120 O151 2.408 . S
Sm121 C131 2.846 1_455 S
Sm121 O142 2.386 . S
Sm121 O145 2.408 . S
Sm121 O146 2.543 . S
Sm121 O147 2.450 . S
Sm121 O148 2.681 . S
Sm121 O149 2.464 . S
Sm121 O150 2.396 . S
C122 Sm120 2.846 . S
C122 C123 1.506 . S
C122 O140 1.261 . S
C122 O141 1.242 . S
C123 C122 1.506 . S
C123 C124 1.358 . S
C123 C128 1.382 . S
C124 C123 1.358 . S
C124 C125 1.385 . S
C124 H152 0.930 . S
C125 C124 1.385 . S
C125 C126 1.395 . S
C125 H153 0.929 . S
C126 C125 1.395 . S
C126 C127 1.335 . S
C127 C126 1.335 . S
C127 C128 1.398 . S
C127 H154 0.930 . S
C128 C123 1.382 . S
C128 C127 1.398 . S
C128 H155 0.929 . S
C129 O142 1.271 . S
C129 O143 1.251 . S
C130 O144 1.252 . S
C130 O145 1.272 . S
C131 Sm121 2.846 1_655 S
C131 C132 1.506 . S
C131 O146 1.261 1_655 S
C131 O147 1.242 1_655 S
C132 C131 1.506 . S
C132 C133 1.358 . S
C132 C137 1.382 . S
C133 C132 1.358 . S
C133 C134 1.385 . S
C133 H156 0.930 . S
C134 C133 1.385 . S
C134 C135 1.395 . S
C134 H157 0.929 . S
C135 C134 1.395 . S
C135 C136 1.335 . S
C136 C135 1.335 . S
C136 C137 1.398 . S
C136 H158 0.930 . S
C137 C132 1.382 . S
C137 C136 1.398 . S
C137 H159 0.929 . S
C138 O148 1.271 . S
C138 O149 1.251 . S
C139 O150 1.252 . S
C139 O151 1.272 . S
O140 Sm120 2.543 . S
O140 C122 1.261 . S
O141 Sm120 2.450 . S
O141 C122 1.242 . S
O142 Sm120 2.681 . S
O142 Sm121 2.386 . S
O142 C129 1.271 . S
O143 Sm120 2.464 . S
O143 C129 1.251 . S
O144 Sm120 2.396 . S
O144 C130 1.252 . S
O145 Sm121 2.408 . S
O145 C130 1.272 . S
O146 Sm121 2.543 . S
O146 C131 1.261 1_455 S
O147 Sm121 2.450 . S
O147 C131 1.242 1_455 S
O148 Sm120 2.386 . S
O148 Sm121 2.681 . S
O148 C138 1.271 . S
O149 Sm121 2.464 . S
O149 C138 1.251 . S
O150 Sm121 2.396 . S
O150 C139 1.252 . S
O151 Sm120 2.408 . S
O151 C139 1.272 . S
H152 C124 0.930 . S
H153 C125 0.929 . S
H154 C127 0.930 . S
H155 C128 0.929 . S
H156 C133 0.930 . S
H157 C134 0.929 . S
H158 C136 0.930 . S
H159 C137 0.929 . S
Sm160 C162 2.846 . S
Sm160 O180 2.543 . S
Sm160 O181 2.450 . S
Sm160 O182 2.681 1_655 S
Sm160 O183 2.464 . S
Sm160 O184 2.396 . S
Sm160 O188 2.386 . S
Sm160 O191 2.408 . S
Sm161 C171 2.846 . S
Sm161 O182 2.386 . S
Sm161 O185 2.408 1_455 S
Sm161 O186 2.543 . S
Sm161 O187 2.450 . S
Sm161 O188 2.681 1_455 S
Sm161 O189 2.464 . S
Sm161 O190 2.396 . S
C162 Sm160 2.846 . S
C162 C163 1.506 . S
C162 O180 1.261 . S
C162 O181 1.242 . S
C163 C162 1.506 . S
C163 C164 1.358 . S
C163 C168 1.382 . S
C164 C163 1.358 . S
C164 C165 1.385 . S
C164 H192 0.930 . S
C165 C164 1.385 . S
C165 C166 1.395 . S
C165 H193 0.929 . S
C166 C165 1.395 . S
C166 C167 1.335 . S
C167 C166 1.335 . S
C167 C168 1.398 . S
C167 H194 0.930 . S
C168 C163 1.382 . S
C168 C167 1.398 . S
C168 H195 0.929 . S
C169 O182 1.271 1_655 S
C169 O183 1.251 . S
C170 O184 1.252 . S
C170 O185 1.272 . S
C171 Sm161 2.846 . S
C171 C172 1.506 . S
C171 O186 1.261 . S
C171 O187 1.242 . S
C172 C171 1.506 . S
C172 C173 1.358 . S
C172 C177 1.382 . S
C173 C172 1.358 . S
C173 C174 1.385 . S
C173 H196 0.930 . S
C174 C173 1.385 . S
C174 C175 1.395 . S
C174 H197 0.929 . S
C175 C174 1.395 . S
C175 C176 1.335 . S
C176 C175 1.335 . S
C176 C177 1.398 . S
C176 H198 0.930 . S
C177 C172 1.382 . S
C177 C176 1.398 . S
C177 H199 0.929 . S
C178 O188 1.271 . S
C178 O189 1.251 1_655 S
C179 O190 1.252 . S
C179 O191 1.272 1_455 S
O180 Sm160 2.543 . S
O180 C162 1.261 . S
O181 Sm160 2.450 . S
O181 C162 1.242 . S
O182 Sm160 2.681 1_455 S
O182 Sm161 2.386 . S
O182 C169 1.271 1_455 S
O183 Sm160 2.464 . S
O183 C169 1.251 . S
O184 Sm160 2.396 . S
O184 C170 1.252 . S
O185 Sm161 2.408 1_655 S
O185 C170 1.272 . S
O186 Sm161 2.543 . S
O186 C171 1.261 . S
O187 Sm161 2.450 . S
O187 C171 1.242 . S
O188 Sm160 2.386 . S
O188 Sm161 2.681 1_655 S
O188 C178 1.271 . S
O189 Sm161 2.464 . S
O189 C178 1.251 1_455 S
O190 Sm161 2.396 . S
O190 C179 1.252 . S
O191 Sm160 2.408 . S
O191 C179 1.272 1_655 S
H192 C164 0.930 . S
H193 C165 0.929 . S
H194 C167 0.930 . S
H195 C168 0.929 . S
H196 C173 0.930 . S
H197 C174 0.929 . S
H198 C176 0.930 . S
H199 C177 0.929 . S
Sm200 C202 2.846 1_655 S
Sm200 O220 2.543 . S
Sm200 O221 2.450 . S
Sm200 O222 2.681 . S
Sm200 O223 2.464 . S
Sm200 O224 2.396 . S
Sm200 O228 2.386 . S
Sm200 O231 2.408 . S
Sm201 C211 2.846 . S
Sm201 O222 2.386 . S
Sm201 O225 2.408 . S
Sm201 O226 2.543 . S
Sm201 O227 2.450 . S
Sm201 O228 2.681 . S
Sm201 O229 2.464 . S
Sm201 O230 2.396 . S
C202 Sm200 2.846 1_455 S
C202 C203 1.506 . S
C202 O220 1.261 1_455 S
C202 O221 1.242 1_455 S
C203 C202 1.506 . S
C203 C204 1.358 . S
C203 C208 1.382 . S
C204 C203 1.358 . S
C204 C205 1.385 . S
C204 H232 0.930 . S
C205 C204 1.385 . S
C205 C206 1.395 . S
C205 H233 0.929 . S
C206 C205 1.395 . S
C206 C207 1.335 . S
C207 C206 1.335 . S
C207 C208 1.398 . S
C207 H234 0.930 . S
C208 C203 1.382 . S
C208 C207 1.398 . S
C208 H235 0.929 . S
C209 O222 1.271 . S
C209 O223 1.251 . S
C210 O224 1.252 . S
C210 O225 1.272 . S
C211 Sm201 2.846 . S
C211 C212 1.506 . S
C211 O226 1.261 . S
C211 O227 1.242 . S
C212 C211 1.506 . S
C212 C213 1.358 . S
C212 C217 1.382 . S
C213 C212 1.358 . S
C213 C214 1.385 . S
C213 H236 0.930 . S
C214 C213 1.385 . S
C214 C215 1.395 . S
C214 H237 0.929 . S
C215 C214 1.395 . S
C215 C216 1.335 . S
C216 C215 1.335 . S
C216 C217 1.398 . S
C216 H238 0.930 . S
C217 C212 1.382 . S
C217 C216 1.398 . S
C217 H239 0.929 . S
C218 O228 1.271 . S
C218 O229 1.251 . S
C219 O230 1.252 . S
C219 O231 1.272 . S
O220 Sm200 2.543 . S
O220 C202 1.261 1_655 S
O221 Sm200 2.450 . S
O221 C202 1.242 1_655 S
O222 Sm200 2.681 . S
O222 Sm201 2.386 . S
O222 C209 1.271 . S
O223 Sm200 2.464 . S
O223 C209 1.251 . S
O224 Sm200 2.396 . S
O224 C210 1.252 . S
O225 Sm201 2.408 . S
O225 C210 1.272 . S
O226 Sm201 2.543 . S
O226 C211 1.261 . S
O227 Sm201 2.450 . S
O227 C211 1.242 . S
O228 Sm200 2.386 . S
O228 Sm201 2.681 . S
O228 C218 1.271 . S
O229 Sm201 2.464 . S
O229 C218 1.251 . S
O230 Sm201 2.396 . S
O230 C219 1.252 . S
O231 Sm200 2.408 . S
O231 C219 1.272 . S
H232 C204 0.930 . S
H233 C205 0.929 . S
H234 C207 0.930 . S
H235 C208 0.929 . S
H236 C213 0.930 . S
H237 C214 0.929 . S
H238 C216 0.930 . S
H239 C217 0.929 . S
Sm240 C242 2.846 . S
Sm240 O260 2.543 . S
Sm240 O261 2.450 . S
Sm240 O262 2.681 1_655 S
Sm240 O263 2.464 . S
Sm240 O264 2.396 . S
Sm240 O268 2.386 . S
Sm240 O271 2.408 . S
Sm241 C251 2.846 . S
Sm241 O262 2.386 . S
Sm241 O265 2.408 1_455 S
Sm241 O266 2.543 . S
Sm241 O267 2.450 . S
Sm241 O268 2.681 1_455 S
Sm241 O269 2.464 . S
Sm241 O270 2.396 . S
C242 Sm240 2.846 . S
C242 C243 1.506 . S
C242 O260 1.261 . S
C242 O261 1.242 . S
C243 C242 1.506 . S
C243 C244 1.358 . S
C243 C248 1.382 . S
C244 C243 1.358 . S
C244 C245 1.385 . S
C244 H272 0.930 . S
C245 C244 1.385 . S
C245 C246 1.395 . S
C245 H273 0.929 . S
C246 C245 1.395 . S
C246 C247 1.335 . S
C247 C246 1.335 . S
C247 C248 1.398 . S
C247 H274 0.930 . S
C248 C243 1.382 . S
C248 C247 1.398 . S
C248 H275 0.929 . S
C249 O262 1.271 1_655 S
C249 O263 1.251 . S
C250 O264 1.252 . S
C250 O265 1.272 . S
C251 Sm241 2.846 . S
C251 C252 1.506 . S
C251 O266 1.261 . S
C251 O267 1.242 . S
C252 C251 1.506 . S
C252 C253 1.358 . S
C252 C257 1.382 . S
C253 C252 1.358 . S
C253 C254 1.385 . S
C253 H276 0.930 . S
C254 C253 1.385 . S
C254 C255 1.395 . S
C254 H277 0.929 . S
C255 C254 1.395 . S
C255 C256 1.335 . S
C256 C255 1.335 . S
C256 C257 1.398 . S
C256 H278 0.930 . S
C257 C252 1.382 . S
C257 C256 1.398 . S
C257 H279 0.929 . S
C258 O268 1.271 . S
C258 O269 1.251 1_655 S
C259 O270 1.252 . S
C259 O271 1.272 1_455 S
O260 Sm240 2.543 . S
O260 C242 1.261 . S
O261 Sm240 2.450 . S
O261 C242 1.242 . S
O262 Sm240 2.681 1_455 S
O262 Sm241 2.386 . S
O262 C249 1.271 1_455 S
O263 Sm240 2.464 . S
O263 C249 1.251 . S
O264 Sm240 2.396 . S
O264 C250 1.252 . S
O265 Sm241 2.408 1_655 S
O265 C250 1.272 . S
O266 Sm241 2.543 . S
O266 C251 1.261 . S
O267 Sm241 2.450 . S
O267 C251 1.242 . S
O268 Sm240 2.386 . S
O268 Sm241 2.681 1_655 S
O268 C258 1.271 . S
O269 Sm241 2.464 . S
O269 C258 1.251 1_455 S
O270 Sm241 2.396 . S
O270 C259 1.252 . S
O271 Sm240 2.408 . S
O271 C259 1.272 1_655 S
H272 C244 0.930 . S
H273 C245 0.929 . S
H274 C247 0.930 . S
H275 C248 0.929 . S
H276 C253 0.930 . S
H277 C254 0.929 . S
H278 C256 0.930 . S
H279 C257 0.929 . S
Sm280 C282 2.846 1_655 S
Sm280 O300 2.543 . S
Sm280 O301 2.450 . S
Sm280 O302 2.681 . S
Sm280 O303 2.464 . S
Sm280 O304 2.396 . S
Sm280 O308 2.386 . S
Sm280 O311 2.408 . S
Sm281 C291 2.846 . S
Sm281 O302 2.386 . S
Sm281 O305 2.408 . S
Sm281 O306 2.543 . S
Sm281 O307 2.450 . S
Sm281 O308 2.681 . S
Sm281 O309 2.464 . S
Sm281 O310 2.396 . S
C282 Sm280 2.846 1_455 S
C282 C283 1.506 . S
C282 O300 1.261 1_455 S
C282 O301 1.242 1_455 S
C283 C282 1.506 . S
C283 C284 1.358 . S
C283 C288 1.382 . S
C284 C283 1.358 . S
C284 C285 1.385 . S
C284 H312 0.930 . S
C285 C284 1.385 . S
C285 C286 1.395 . S
C285 H313 0.929 . S
C286 C285 1.395 . S
C286 C287 1.335 . S
C287 C286 1.335 . S
C287 C288 1.398 . S
C287 H314 0.930 . S
C288 C283 1.382 . S
C288 C287 1.398 . S
C288 H315 0.929 . S
C289 O302 1.271 . S
C289 O303 1.251 . S
C290 O304 1.252 . S
C290 O305 1.272 . S
C291 Sm281 2.846 . S
C291 C292 1.506 . S
C291 O306 1.261 . S
C291 O307 1.242 . S
C292 C291 1.506 . S
C292 C293 1.358 . S
C292 C297 1.382 . S
C293 C292 1.358 . S
C293 C294 1.385 . S
C293 H316 0.930 . S
C294 C293 1.385 . S
C294 C295 1.395 . S
C294 H317 0.929 . S
C295 C294 1.395 . S
C295 C296 1.335 . S
C296 C295 1.335 . S
C296 C297 1.398 . S
C296 H318 0.930 . S
C297 C292 1.382 . S
C297 C296 1.398 . S
C297 H319 0.929 . S
C298 O308 1.271 . S
C298 O309 1.251 . S
C299 O310 1.252 . S
C299 O311 1.272 . S
O300 Sm280 2.543 . S
O300 C282 1.261 1_655 S
O301 Sm280 2.450 . S
O301 C282 1.242 1_655 S
O302 Sm280 2.681 . S
O302 Sm281 2.386 . S
O302 C289 1.271 . S
O303 Sm280 2.464 . S
O303 C289 1.251 . S
O304 Sm280 2.396 . S
O304 C290 1.252 . S
O305 Sm281 2.408 . S
O305 C290 1.272 . S
O306 Sm281 2.543 . S
O306 C291 1.261 . S
O307 Sm281 2.450 . S
O307 C291 1.242 . S
O308 Sm280 2.386 . S
O308 Sm281 2.681 . S
O308 C298 1.271 . S
O309 Sm281 2.464 . S
O309 C298 1.251 . S
O310 Sm281 2.396 . S
O310 C299 1.252 . S
O311 Sm280 2.408 . S
O311 C299 1.272 . S
H312 C284 0.930 . S
H313 C285 0.929 . S
H314 C287 0.930 . S
H315 C288 0.929 . S
H316 C293 0.930 . S
H317 C294 0.929 . S
H318 C296 0.930 . S
H319 C297 0.929 . S
Sm320 C322 2.846 . S
Sm320 O340 2.543 . S
Sm320 O341 2.450 . S
Sm320 O342 2.681 1_645 S
Sm320 O343 2.464 . S
Sm320 O344 2.396 1_545 S
Sm320 O348 2.386 1_545 S
Sm320 O351 2.408 1_655 S
Sm321 C331 2.846 . S
Sm321 O342 2.386 . S
Sm321 O345 2.408 . S
Sm321 O346 2.543 . S
Sm321 O347 2.450 . S
Sm321 O348 2.681 1_455 S
Sm321 O349 2.464 . S
Sm321 O350 2.396 1_565 S
C322 Sm320 2.846 . S
C322 C323 1.506 . S
C322 O340 1.261 . S
C322 O341 1.242 . S
C323 C322 1.506 . S
C323 C324 1.358 1_545 S
C323 C328 1.382 . S
C324 C323 1.358 1_565 S
C324 C325 1.385 . S
C324 H352 0.930 . S
C325 C324 1.385 . S
C325 C326 1.395 . S
C325 H353 0.929 . S
C326 C325 1.395 . S
C326 C327 1.335 1_565 S
C327 C326 1.335 1_545 S
C327 C328 1.398 . S
C327 H354 0.930 . S
C328 C323 1.382 . S
C328 C327 1.398 . S
C328 H355 0.929 . S
C329 O342 1.271 . S
C329 O343 1.251 1_465 S
C330 O344 1.252 . S
C330 O345 1.272 1_655 S
C331 Sm321 2.846 . S
C331 C332 1.506 . S
C331 O346 1.261 . S
C331 O347 1.242 . S
C332 C331 1.506 . S
C332 C333 1.358 . S
C332 C337 1.382 . S
C333 C332 1.358 . S
C333 C334 1.385 . S
C333 H356 0.930 . S
C334 C333 1.385 . S
C334 C335 1.395 . S
C334 H357 0.929 . S
C335 C334 1.395 . S
C335 C336 1.335 . S
C336 C335 1.335 . S
C336 C337 1.398 . S
C336 H358 0.930 . S
C337 C332 1.382 . S
C337 C336 1.398 . S
C337 H359 0.929 . S
C338 O348 1.271 1_455 S
C338 O349 1.251 . S
C339 O350 1.252 . S
C339 O351 1.272 . S
O340 Sm320 2.543 . S
O340 C322 1.261 . S
O341 Sm320 2.450 . S
O341 C322 1.242 . S
O342 Sm320 2.681 1_465 S
O342 Sm321 2.386 . S
O342 C329 1.271 . S
O343 Sm320 2.464 . S
O343 C329 1.251 1_645 S
O344 Sm320 2.396 1_565 S
O344 C330 1.252 . S
O345 Sm321 2.408 . S
O345 C330 1.272 1_455 S
O346 Sm321 2.543 . S
O346 C331 1.261 . S
O347 Sm321 2.450 . S
O347 C331 1.242 . S
O348 Sm320 2.386 1_565 S
O348 Sm321 2.681 1_655 S
O348 C338 1.271 1_655 S
O349 Sm321 2.464 . S
O349 C338 1.251 . S
O350 Sm321 2.396 1_545 S
O350 C339 1.252 . S
O351 Sm320 2.408 1_455 S
O351 C339 1.272 . S
H352 C324 0.930 . S
H353 C325 0.929 . S
H354 C327 0.930 . S
H355 C328 0.929 . S
H356 C333 0.930 . S
H357 C334 0.929 . S
H358 C336 0.930 . S
H359 C337 0.929 . S
Sm360 C362 2.846 . S
Sm360 O380 2.543 . S
Sm360 O381 2.450 . S
Sm360 O382 2.681 . S
Sm360 O383 2.464 . S
Sm360 O384 2.396 . S
Sm360 O388 2.386 . S
Sm360 O391 2.408 . S
Sm361 C371 2.846 1_455 S
Sm361 O382 2.386 . S
Sm361 O385 2.408 . S
Sm361 O386 2.543 . S
Sm361 O387 2.450 . S
Sm361 O388 2.681 . S
Sm361 O389 2.464 . S
Sm361 O390 2.396 . S
C362 Sm360 2.846 . S
C362 C363 1.506 . S
C362 O380 1.261 . S
C362 O381 1.242 . S
C363 C362 1.506 . S
C363 C364 1.358 . S
C363 C368 1.382 . S
C364 C363 1.358 . S
C364 C365 1.385 . S
C364 H392 0.930 . S
C365 C364 1.385 . S
C365 C366 1.395 . S
C365 H393 0.929 . S
C366 C365 1.395 . S
C366 C367 1.335 . S
C367 C366 1.335 . S
C367 C368 1.398 . S
C367 H394 0.930 . S
C368 C363 1.382 . S
C368 C367 1.398 . S
C368 H395 0.929 . S
C369 O382 1.271 . S
C369 O383 1.251 . S
C370 O384 1.252 . S
C370 O385 1.272 . S
C371 Sm361 2.846 1_655 S
C371 C372 1.506 . S
C371 O386 1.261 1_655 S
C371 O387 1.242 1_655 S
C372 C371 1.506 . S
C372 C373 1.358 . S
C372 C377 1.382 . S
C373 C372 1.358 . S
C373 C374 1.385 . S
C373 H396 0.930 . S
C374 C373 1.385 . S
C374 C375 1.395 . S
C374 H397 0.929 . S
C375 C374 1.395 . S
C375 C376 1.335 . S
C376 C375 1.335 . S
C376 C377 1.398 . S
C376 H398 0.930 . S
C377 C372 1.382 . S
C377 C376 1.398 . S
C377 H399 0.929 . S
C378 O388 1.271 . S
C378 O389 1.251 . S
C379 O390 1.252 . S
C379 O391 1.272 . S
O380 Sm360 2.543 . S
O380 C362 1.261 . S
O381 Sm360 2.450 . S
O381 C362 1.242 . S
O382 Sm360 2.681 . S
O382 Sm361 2.386 . S
O382 C369 1.271 . S
O383 Sm360 2.464 . S
O383 C369 1.251 . S
O384 Sm360 2.396 . S
O384 C370 1.252 . S
O385 Sm361 2.408 . S
O385 C370 1.272 . S
O386 Sm361 2.543 . S
O386 C371 1.261 1_455 S
O387 Sm361 2.450 . S
O387 C371 1.242 1_455 S
O388 Sm360 2.386 . S
O388 Sm361 2.681 . S
O388 C378 1.271 . S
O389 Sm361 2.464 . S
O389 C378 1.251 . S
O390 Sm361 2.396 . S
O390 C379 1.252 . S
O391 Sm360 2.408 . S
O391 C379 1.272 . S
H392 C364 0.930 . S
H393 C365 0.929 . S
H394 C367 0.930 . S
H395 C368 0.929 . S
H396 C373 0.930 . S
H397 C374 0.929 . S
H398 C376 0.930 . S
H399 C377 0.929 . S
Sm400 C402 2.846 . S
Sm400 O420 2.543 . S
Sm400 O421 2.450 . S
Sm400 O422 2.681 1_655 S
Sm400 O423 2.464 . S
Sm400 O424 2.396 . S
Sm400 O428 2.386 . S
Sm400 O431 2.408 1_655 S
Sm401 C411 2.846 . S
Sm401 O422 2.386 . S
Sm401 O425 2.408 . S
Sm401 O426 2.543 . S
Sm401 O427 2.450 . S
Sm401 O428 2.681 1_455 S
Sm401 O429 2.464 . S
Sm401 O430 2.396 . S
C402 Sm400 2.846 . S
C402 C403 1.506 . S
C402 O420 1.261 . S
C402 O421 1.242 . S
C403 C402 1.506 . S
C403 C404 1.358 . S
C403 C408 1.382 . S
C404 C403 1.358 . S
C404 C405 1.385 . S
C404 H432 0.930 . S
C405 C404 1.385 . S
C405 C406 1.395 . S
C405 H433 0.929 . S
C406 C405 1.395 . S
C406 C407 1.335 . S
C407 C406 1.335 . S
C407 C408 1.398 . S
C407 H434 0.930 . S
C408 C403 1.382 . S
C408 C407 1.398 . S
C408 H435 0.929 . S
C409 O422 1.271 . S
C409 O423 1.251 1_455 S
C410 O424 1.252 . S
C410 O425 1.272 1_655 S
C411 Sm401 2.846 . S
C411 C412 1.506 . S
C411 O426 1.261 . S
C411 O427 1.242 . S
C412 C411 1.506 . S
C412 C413 1.358 . S
C412 C417 1.382 . S
C413 C412 1.358 . S
C413 C414 1.385 . S
C413 H436 0.930 . S
C414 C413 1.385 . S
C414 C415 1.395 . S
C414 H437 0.929 . S
C415 C414 1.395 . S
C415 C416 1.335 . S
C416 C415 1.335 . S
C416 C417 1.398 . S
C416 H438 0.930 . S
C417 C412 1.382 . S
C417 C416 1.398 . S
C417 H439 0.929 . S
C418 O428 1.271 1_455 S
C418 O429 1.251 . S
C419 O430 1.252 . S
C419 O431 1.272 . S
O420 Sm400 2.543 . S
O420 C402 1.261 . S
O421 Sm400 2.450 . S
O421 C402 1.242 . S
O422 Sm400 2.681 1_455 S
O422 Sm401 2.386 . S
O422 C409 1.271 . S
O423 Sm400 2.464 . S
O423 C409 1.251 1_655 S
O424 Sm400 2.396 . S
O424 C410 1.252 . S
O425 Sm401 2.408 . S
O425 C410 1.272 1_455 S
O426 Sm401 2.543 . S
O426 C411 1.261 . S
O427 Sm401 2.450 . S
O427 C411 1.242 . S
O428 Sm400 2.386 . S
O428 Sm401 2.681 1_655 S
O428 C418 1.271 1_655 S
O429 Sm401 2.464 . S
O429 C418 1.251 . S
O430 Sm401 2.396 . S
O430 C419 1.252 . S
O431 Sm400 2.408 1_455 S
O431 C419 1.272 . S
H432 C404 0.930 . S
H433 C405 0.929 . S
H434 C407 0.930 . S
H435 C408 0.929 . S
H436 C413 0.930 . S
H437 C414 0.929 . S
H438 C416 0.930 . S
H439 C417 0.929 . S
Sm440 C442 2.846 . S
Sm440 O460 2.543 . S
Sm440 O461 2.450 . S
Sm440 O462 2.681 1_545 S
Sm440 O463 2.464 . S
Sm440 O464 2.396 1_545 S
Sm440 O468 2.386 1_545 S
Sm440 O471 2.408 . S
Sm441 C451 2.846 1_455 S
Sm441 O462 2.386 . S
Sm441 O465 2.408 . S
Sm441 O466 2.543 . S
Sm441 O467 2.450 . S
Sm441 O468 2.681 . S
Sm441 O469 2.464 . S
Sm441 O470 2.396 1_565 S
C442 Sm440 2.846 . S
C442 C443 1.506 . S
C442 O460 1.261 . S
C442 O461 1.242 . S
C443 C442 1.506 . S
C443 C444 1.358 1_545 S
C443 C448 1.382 . S
C444 C443 1.358 1_565 S
C444 C445 1.385 . S
C444 H472 0.930 . S
C445 C444 1.385 . S
C445 C446 1.395 . S
C445 H473 0.929 . S
C446 C445 1.395 . S
C446 C447 1.335 1_565 S
C447 C446 1.335 1_545 S
C447 C448 1.398 . S
C447 H474 0.930 . S
C448 C443 1.382 . S
C448 C447 1.398 . S
C448 H475 0.929 . S
C449 O462 1.271 . S
C449 O463 1.251 1_565 S
C450 O464 1.252 . S
C450 O465 1.272 . S
C451 Sm441 2.846 1_655 S
C451 C452 1.506 . S
C451 O466 1.261 1_655 S
C451 O467 1.242 1_655 S
C452 C451 1.506 . S
C452 C453 1.358 . S
C452 C457 1.382 . S
C453 C452 1.358 . S
C453 C454 1.385 . S
C453 H476 0.930 . S
C454 C453 1.385 . S
C454 C455 1.395 . S
C454 H477 0.929 . S
C455 C454 1.395 . S
C455 C456 1.335 . S
C456 C455 1.335 . S
C456 C457 1.398 . S
C456 H478 0.930 . S
C457 C452 1.382 . S
C457 C456 1.398 . S
C457 H479 0.929 . S
C458 O468 1.271 . S
C458 O469 1.251 . S
C459 O470 1.252 . S
C459 O471 1.272 . S
O460 Sm440 2.543 . S
O460 C442 1.261 . S
O461 Sm440 2.450 . S
O461 C442 1.242 . S
O462 Sm440 2.681 1_565 S
O462 Sm441 2.386 . S
O462 C449 1.271 . S
O463 Sm440 2.464 . S
O463 C449 1.251 1_545 S
O464 Sm440 2.396 1_565 S
O464 C450 1.252 . S
O465 Sm441 2.408 . S
O465 C450 1.272 . S
O466 Sm441 2.543 . S
O466 C451 1.261 1_455 S
O467 Sm441 2.450 . S
O467 C451 1.242 1_455 S
O468 Sm440 2.386 1_565 S
O468 Sm441 2.681 . S
O468 C458 1.271 . S
O469 Sm441 2.464 . S
O469 C458 1.251 . S
O470 Sm441 2.396 1_545 S
O470 C459 1.252 . S
O471 Sm440 2.408 . S
O471 C459 1.272 . S
H472 C444 0.930 . S
H473 C445 0.929 . S
H474 C447 0.930 . S
H475 C448 0.929 . S
H476 C453 0.930 . S
H477 C454 0.929 . S
H478 C456 0.930 . S
H479 C457 0.929 . S
Sm480 C482 2.846 . S
Sm480 O500 2.543 . S
Sm480 O501 2.450 . S
Sm480 O502 2.681 1_655 S
Sm480 O503 2.464 . S
Sm480 O504 2.396 1_545 S
Sm480 O508 2.386 . S
Sm480 O511 2.408 . S
Sm481 C491 2.846 . S
Sm481 O502 2.386 1_565 S
Sm481 O505 2.408 1_455 S
Sm481 O506 2.543 . S
Sm481 O507 2.450 . S
Sm481 O508 2.681 1_465 S
Sm481 O509 2.464 . S
Sm481 O510 2.396 1_565 S
C482 Sm480 2.846 . S
C482 C483 1.506 . S
C482 O500 1.261 . S
C482 O501 1.242 . S
C483 C482 1.506 . S
C483 C484 1.358 . S
C483 C488 1.382 . S
C484 C483 1.358 . S
C484 C485 1.385 . S
C484 H512 0.930 . S
C485 C484 1.385 . S
C485 C486 1.395 . S
C485 H513 0.929 . S
C486 C485 1.395 . S
C486 C487 1.335 . S
C487 C486 1.335 . S
C487 C488 1.398 . S
C487 H514 0.930 . S
C488 C483 1.382 . S
C488 C487 1.398 . S
C488 H515 0.929 . S
C489 O502 1.271 1_655 S
C489 O503 1.251 . S
C490 O504 1.252 . S
C490 O505 1.272 . S
C491 Sm481 2.846 . S
C491 C492 1.506 . S
C491 O506 1.261 . S
C491 O507 1.242 . S
C492 C491 1.506 . S
C492 C493 1.358 1_565 S
C492 C497 1.382 . S
C493 C492 1.358 1_545 S
C493 C494 1.385 . S
C493 H516 0.930 . S
C494 C493 1.385 . S
C494 C495 1.395 . S
C494 H517 0.929 . S
C495 C494 1.395 . S
C495 C496 1.335 1_545 S
C496 C495 1.335 1_565 S
C496 C497 1.398 . S
C496 H518 0.930 . S
C497 C492 1.382 . S
C497 C496 1.398 . S
C497 H519 0.929 . S
C498 O508 1.271 . S
C498 O509 1.251 1_645 S
C499 O510 1.252 . S
C499 O511 1.272 1_455 S
O500 Sm480 2.543 . S
O500 C482 1.261 . S
O501 Sm480 2.450 . S
O501 C482 1.242 . S
O502 Sm480 2.681 1_455 S
O502 Sm481 2.386 1_545 S
O502 C489 1.271 1_455 S
O503 Sm480 2.464 . S
O503 C489 1.251 . S
O504 Sm480 2.396 1_565 S
O504 C490 1.252 . S
O505 Sm481 2.408 1_655 S
O505 C490 1.272 . S
O506 Sm481 2.543 . S
O506 C491 1.261 . S
O507 Sm481 2.450 . S
O507 C491 1.242 . S
O508 Sm480 2.386 . S
O508 Sm481 2.681 1_645 S
O508 C498 1.271 . S
O509 Sm481 2.464 . S
O509 C498 1.251 1_465 S
O510 Sm481 2.396 1_545 S
O510 C499 1.252 . S
O511 Sm480 2.408 . S
O511 C499 1.272 1_655 S
H512 C484 0.930 . S
H513 C485 0.929 . S
H514 C487 0.930 . S
H515 C488 0.929 . S
H516 C493 0.930 . S
H517 C494 0.929 . S
H518 C496 0.930 . S
H519 C497 0.929 . S
Sm520 C522 2.846 1_655 S
Sm520 O540 2.543 . S
Sm520 O541 2.450 . S
Sm520 O542 2.681 . S
Sm520 O543 2.464 . S
Sm520 O544 2.396 . S
Sm520 O548 2.386 . S
Sm520 O551 2.408 . S
Sm521 C531 2.846 . S
Sm521 O542 2.386 . S
Sm521 O545 2.408 . S
Sm521 O546 2.543 . S
Sm521 O547 2.450 . S
Sm521 O548 2.681 . S
Sm521 O549 2.464 . S
Sm521 O550 2.396 . S
C522 Sm520 2.846 1_455 S
C522 C523 1.506 . S
C522 O540 1.261 1_455 S
C522 O541 1.242 1_455 S
C523 C522 1.506 . S
C523 C524 1.358 . S
C523 C528 1.382 . S
C524 C523 1.358 . S
C524 C525 1.385 . S
C524 H552 0.930 . S
C525 C524 1.385 . S
C525 C526 1.395 . S
C525 H553 0.929 . S
C526 C525 1.395 . S
C526 C527 1.335 . S
C527 C526 1.335 . S
C527 C528 1.398 . S
C527 H554 0.930 . S
C528 C523 1.382 . S
C528 C527 1.398 . S
C528 H555 0.929 . S
C529 O542 1.271 . S
C529 O543 1.251 . S
C530 O544 1.252 . S
C530 O545 1.272 . S
C531 Sm521 2.846 . S
C531 C532 1.506 . S
C531 O546 1.261 . S
C531 O547 1.242 . S
C532 C531 1.506 . S
C532 C533 1.358 . S
C532 C537 1.382 . S
C533 C532 1.358 . S
C533 C534 1.385 . S
C533 H556 0.930 . S
C534 C533 1.385 . S
C534 C535 1.395 . S
C534 H557 0.929 . S
C535 C534 1.395 . S
C535 C536 1.335 . S
C536 C535 1.335 . S
C536 C537 1.398 . S
C536 H558 0.930 . S
C537 C532 1.382 . S
C537 C536 1.398 . S
C537 H559 0.929 . S
C538 O548 1.271 . S
C538 O549 1.251 . S
C539 O550 1.252 . S
C539 O551 1.272 . S
O540 Sm520 2.543 . S
O540 C522 1.261 1_655 S
O541 Sm520 2.450 . S
O541 C522 1.242 1_655 S
O542 Sm520 2.681 . S
O542 Sm521 2.386 . S
O542 C529 1.271 . S
O543 Sm520 2.464 . S
O543 C529 1.251 . S
O544 Sm520 2.396 . S
O544 C530 1.252 . S
O545 Sm521 2.408 . S
O545 C530 1.272 . S
O546 Sm521 2.543 . S
O546 C531 1.261 . S
O547 Sm521 2.450 . S
O547 C531 1.242 . S
O548 Sm520 2.386 . S
O548 Sm521 2.681 . S
O548 C538 1.271 . S
O549 Sm521 2.464 . S
O549 C538 1.251 . S
O550 Sm521 2.396 . S
O550 C539 1.252 . S
O551 Sm520 2.408 . S
O551 C539 1.272 . S
H552 C524 0.930 . S
H553 C525 0.929 . S
H554 C527 0.930 . S
H555 C528 0.929 . S
H556 C533 0.930 . S
H557 C534 0.929 . S
H558 C536 0.930 . S
H559 C537 0.929 . S
Sm560 C562 2.846 . S
Sm560 O580 2.543 . S
Sm560 O581 2.450 . S
Sm560 O582 2.681 1_655 S
Sm560 O583 2.464 . S
Sm560 O584 2.396 . S
Sm560 O588 2.386 . S
Sm560 O591 2.408 . S
Sm561 C571 2.846 . S
Sm561 O582 2.386 . S
Sm561 O585 2.408 1_455 S
Sm561 O586 2.543 . S
Sm561 O587 2.450 . S
Sm561 O588 2.681 1_455 S
Sm561 O589 2.464 . S
Sm561 O590 2.396 . S
C562 Sm560 2.846 . S
C562 C563 1.506 . S
C562 O580 1.261 . S
C562 O581 1.242 . S
C563 C562 1.506 . S
C563 C564 1.358 . S
C563 C568 1.382 . S
C564 C563 1.358 . S
C564 C565 1.385 . S
C564 H592 0.930 . S
C565 C564 1.385 . S
C565 C566 1.395 . S
C565 H593 0.929 . S
C566 C565 1.395 . S
C566 C567 1.335 . S
C567 C566 1.335 . S
C567 C568 1.398 . S
C567 H594 0.930 . S
C568 C563 1.382 . S
C568 C567 1.398 . S
C568 H595 0.929 . S
C569 O582 1.271 1_655 S
C569 O583 1.251 . S
C570 O584 1.252 . S
C570 O585 1.272 . S
C571 Sm561 2.846 . S
C571 C572 1.506 . S
C571 O586 1.261 . S
C571 O587 1.242 . S
C572 C571 1.506 . S
C572 C573 1.358 . S
C572 C577 1.382 . S
C573 C572 1.358 . S
C573 C574 1.385 . S
C573 H596 0.930 . S
C574 C573 1.385 . S
C574 C575 1.395 . S
C574 H597 0.929 . S
C575 C574 1.395 . S
C575 C576 1.335 . S
C576 C575 1.335 . S
C576 C577 1.398 . S
C576 H598 0.930 . S
C577 C572 1.382 . S
C577 C576 1.398 . S
C577 H599 0.929 . S
C578 O588 1.271 . S
C578 O589 1.251 1_655 S
C579 O590 1.252 . S
C579 O591 1.272 1_455 S
O580 Sm560 2.543 . S
O580 C562 1.261 . S
O581 Sm560 2.450 . S
O581 C562 1.242 . S
O582 Sm560 2.681 1_455 S
O582 Sm561 2.386 . S
O582 C569 1.271 1_455 S
O583 Sm560 2.464 . S
O583 C569 1.251 . S
O584 Sm560 2.396 . S
O584 C570 1.252 . S
O585 Sm561 2.408 1_655 S
O585 C570 1.272 . S
O586 Sm561 2.543 . S
O586 C571 1.261 . S
O587 Sm561 2.450 . S
O587 C571 1.242 . S
O588 Sm560 2.386 . S
O588 Sm561 2.681 1_655 S
O588 C578 1.271 . S
O589 Sm561 2.464 . S
O589 C578 1.251 1_455 S
O590 Sm561 2.396 . S
O590 C579 1.252 . S
O591 Sm560 2.408 . S
O591 C579 1.272 1_655 S
H592 C564 0.930 . S
H593 C565 0.929 . S
H594 C567 0.930 . S
H595 C568 0.929 . S
H596 C573 0.930 . S
H597 C574 0.929 . S
H598 C576 0.930 . S
H599 C577 0.929 . S
Sm600 C602 2.846 1_655 S
Sm600 O620 2.543 . S
Sm600 O621 2.450 . S
Sm600 O622 2.681 . S
Sm600 O623 2.464 . S
Sm600 O624 2.396 1_545 S
Sm600 O628 2.386 . S
Sm600 O631 2.408 . S
Sm601 C611 2.846 . S
Sm601 O622 2.386 1_565 S
Sm601 O625 2.408 . S
Sm601 O626 2.543 . S
Sm601 O627 2.450 . S
Sm601 O628 2.681 1_565 S
Sm601 O629 2.464 . S
Sm601 O630 2.396 1_565 S
C602 Sm600 2.846 1_455 S
C602 C603 1.506 . S
C602 O620 1.261 1_455 S
C602 O621 1.242 1_455 S
C603 C602 1.506 . S
C603 C604 1.358 . S
C603 C608 1.382 . S
C604 C603 1.358 . S
C604 C605 1.385 . S
C604 H632 0.930 . S
C605 C604 1.385 . S
C605 C606 1.395 . S
C605 H633 0.929 . S
C606 C605 1.395 . S
C606 C607 1.335 . S
C607 C606 1.335 . S
C607 C608 1.398 . S
C607 H634 0.930 . S
C608 C603 1.382 . S
C608 C607 1.398 . S
C608 H635 0.929 . S
C609 O622 1.271 . S
C609 O623 1.251 . S
C610 O624 1.252 . S
C610 O625 1.272 . S
C611 Sm601 2.846 . S
C611 C612 1.506 . S
C611 O626 1.261 . S
C611 O627 1.242 . S
C612 C611 1.506 . S
C612 C613 1.358 1_565 S
C612 C617 1.382 . S
C613 C612 1.358 1_545 S
C613 C614 1.385 . S
C613 H636 0.930 . S
C614 C613 1.385 . S
C614 C615 1.395 . S
C614 H637 0.929 . S
C615 C614 1.395 . S
C615 C616 1.335 1_545 S
C616 C615 1.335 1_565 S
C616 C617 1.398 . S
C616 H638 0.930 . S
C617 C612 1.382 . S
C617 C616 1.398 . S
C617 H639 0.929 . S
C618 O628 1.271 . S
C618 O629 1.251 1_545 S
C619 O630 1.252 . S
C619 O631 1.272 . S
O620 Sm600 2.543 . S
O620 C602 1.261 1_655 S
O621 Sm600 2.450 . S
O621 C602 1.242 1_655 S
O622 Sm600 2.681 . S
O622 Sm601 2.386 1_545 S
O622 C609 1.271 . S
O623 Sm600 2.464 . S
O623 C609 1.251 . S
O624 Sm600 2.396 1_565 S
O624 C610 1.252 . S
O625 Sm601 2.408 . S
O625 C610 1.272 . S
O626 Sm601 2.543 . S
O626 C611 1.261 . S
O627 Sm601 2.450 . S
O627 C611 1.242 . S
O628 Sm600 2.386 . S
O628 Sm601 2.681 1_545 S
O628 C618 1.271 . S
O629 Sm601 2.464 . S
O629 C618 1.251 1_565 S
O630 Sm601 2.396 1_545 S
O630 C619 1.252 . S
O631 Sm600 2.408 . S
O631 C619 1.272 . S
H632 C604 0.930 . S
H633 C605 0.929 . S
H634 C607 0.930 . S
H635 C608 0.929 . S
H636 C613 0.930 . S
H637 C614 0.929 . S
H638 C616 0.930 . S
H639 C617 0.929 . S
Sm640 C642 2.846 . S
Sm640 O660 2.543 . S
Sm640 O661 2.450 . S
Sm640 O662 2.681 . S
Sm640 O663 2.464 . S
Sm640 O664 2.396 . S
Sm640 O668 2.386 . S
Sm640 O671 2.408 . S
Sm641 C651 2.846 . S
Sm641 O662 2.386 . S
Sm641 O665 2.408 . S
Sm641 O666 2.543 . S
Sm641 O667 2.450 . S
Sm641 O668 2.681 . S
Sm641 O669 2.464 . S
Sm641 O670 2.396 . S
C642 Sm640 2.846 . S
C642 C643 1.506 . S
C642 O660 1.261 . S
C642 O661 1.242 . S
C643 C642 1.506 . S
C643 C644 1.358 . S
C643 C648 1.382 . S
C644 C643 1.358 . S
C644 C645 1.385 . S
C644 H672 0.930 . S
C645 C644 1.385 . S
C645 C646 1.395 . S
C645 H673 0.929 . S
C646 C645 1.395 . S
C646 C647 1.335 . S
C647 C646 1.335 . S
C647 C648 1.398 . S
C647 H674 0.930 . S
C648 C643 1.382 . S
C648 C647 1.398 . S
C648 H675 0.929 . S
C649 O662 1.271 . S
C649 O663 1.251 . S
C650 O664 1.252 . S
C650 O665 1.272 . S
C651 Sm641 2.846 . S
C651 C652 1.506 . S
C651 O666 1.261 . S
C651 O667 1.242 . S
C652 C651 1.506 . S
C652 C653 1.358 . S
C652 C657 1.382 . S
C653 C652 1.358 . S
C653 C654 1.385 . S
C653 H676 0.930 . S
C654 C653 1.385 . S
C654 C655 1.395 . S
C654 H677 0.929 . S
C655 C654 1.395 . S
C655 C656 1.335 . S
C656 C655 1.335 . S
C656 C657 1.398 . S
C656 H678 0.930 . S
C657 C652 1.382 . S
C657 C656 1.398 . S
C657 H679 0.929 . S
C658 O668 1.271 . S
C658 O669 1.251 . S
C659 O670 1.252 . S
C659 O671 1.272 . S
O660 Sm640 2.543 . S
O660 C642 1.261 . S
O661 Sm640 2.450 . S
O661 C642 1.242 . S
O662 Sm640 2.681 . S
O662 Sm641 2.386 . S
O662 C649 1.271 . S
O663 Sm640 2.464 . S
O663 C649 1.251 . S
O664 Sm640 2.396 . S
O664 C650 1.252 . S
O665 Sm641 2.408 . S
O665 C650 1.272 . S
O666 Sm641 2.543 . S
O666 C651 1.261 . S
O667 Sm641 2.450 . S
O667 C651 1.242 . S
O668 Sm640 2.386 . S
O668 Sm641 2.681 . S
O668 C658 1.271 . S
O669 Sm641 2.464 . S
O669 C658 1.251 . S
O670 Sm641 2.396 . S
O670 C659 1.252 . S
O671 Sm640 2.408 . S
O671 C659 1.272 . S
H672 C644 0.930 . S
H673 C645 0.929 . S
H674 C647 0.930 . S
H675 C648 0.929 . S
H676 C653 0.930 . S
H677 C654 0.929 . S
H678 C656 0.930 . S
H679 C657 0.929 . S
Sm680 C682 2.846 . S
Sm680 O700 2.543 . S
Sm680 O701 2.450 . S
Sm680 O702 2.681 . S
Sm680 O703 2.464 . S
Sm680 O704 2.396 . S
Sm680 O708 2.386 . S
Sm680 O711 2.408 . S
Sm681 C691 2.846 . S
Sm681 O702 2.386 . S
Sm681 O705 2.408 . S
Sm681 O706 2.543 . S
Sm681 O707 2.450 . S
Sm681 O708 2.681 . S
Sm681 O709 2.464 . S
Sm681 O710 2.396 . S
C682 Sm680 2.846 . S
C682 C683 1.506 1_655 S
C682 O700 1.261 . S
C682 O701 1.242 . S
C683 C682 1.506 1_455 S
C683 C684 1.358 . S
C683 C688 1.382 . S
C684 C683 1.358 . S
C684 C685 1.385 . S
C684 H712 0.930 . S
C685 C684 1.385 . S
C685 C686 1.395 . S
C685 H713 0.929 . S
C686 C685 1.395 . S
C686 C687 1.335 . S
C687 C686 1.335 . S
C687 C688 1.398 . S
C687 H714 0.930 . S
C688 C683 1.382 . S
C688 C687 1.398 . S
C688 H715 0.929 . S
C689 O702 1.271 . S
C689 O703 1.251 . S
C690 O704 1.252 . S
C690 O705 1.272 . S
C691 Sm681 2.846 . S
C691 C692 1.506 . S
C691 O706 1.261 . S
C691 O707 1.242 . S
C692 C691 1.506 . S
C692 C693 1.358 . S
C692 C697 1.382 . S
C693 C692 1.358 . S
C693 C694 1.385 . S
C693 H716 0.930 . S
C694 C693 1.385 . S
C694 C695 1.395 . S
C694 H717 0.929 . S
C695 C694 1.395 . S
C695 C696 1.335 . S
C696 C695 1.335 . S
C696 C697 1.398 . S
C696 H718 0.930 . S
C697 C692 1.382 . S
C697 C696 1.398 . S
C697 H719 0.929 . S
C698 O708 1.271 . S
C698 O709 1.251 . S
C699 O710 1.252 . S
C699 O711 1.272 . S
O700 Sm680 2.543 . S
O700 C682 1.261 . S
O701 Sm680 2.450 . S
O701 C682 1.242 . S
O702 Sm680 2.681 . S
O702 Sm681 2.386 . S
O702 C689 1.271 . S
O703 Sm680 2.464 . S
O703 C689 1.251 . S
O704 Sm680 2.396 . S
O704 C690 1.252 . S
O705 Sm681 2.408 . S
O705 C690 1.272 . S
O706 Sm681 2.543 . S
O706 C691 1.261 . S
O707 Sm681 2.450 . S
O707 C691 1.242 . S
O708 Sm680 2.386 . S
O708 Sm681 2.681 . S
O708 C698 1.271 . S
O709 Sm681 2.464 . S
O709 C698 1.251 . S
O710 Sm681 2.396 . S
O710 C699 1.252 . S
O711 Sm680 2.408 . S
O711 C699 1.272 . S
H712 C684 0.930 . S
H713 C685 0.929 . S
H714 C687 0.930 . S
H715 C688 0.929 . S
H716 C693 0.930 . S
H717 C694 0.929 . S
H718 C696 0.930 . S
H719 C697 0.929 . S
Sm720 C722 2.846 . S
Sm720 O740 2.543 . S
Sm720 O741 2.450 . S
Sm720 O742 2.681 . S
Sm720 O743 2.464 . S
Sm720 O744 2.396 . S
Sm720 O748 2.386 . S
Sm720 O751 2.408 . S
Sm721 C731 2.846 . S
Sm721 O742 2.386 . S
Sm721 O745 2.408 . S
Sm721 O746 2.543 . S
Sm721 O747 2.450 . S
Sm721 O748 2.681 . S
Sm721 O749 2.464 . S
Sm721 O750 2.396 . S
C722 Sm720 2.846 . S
C722 C723 1.506 . S
C722 O740 1.261 . S
C722 O741 1.242 . S
C723 C722 1.506 . S
C723 C724 1.358 . S
C723 C728 1.382 . S
C724 C723 1.358 . S
C724 C725 1.385 . S
C724 H752 0.930 . S
C725 C724 1.385 . S
C725 C726 1.395 . S
C725 H753 0.929 . S
C726 C725 1.395 . S
C726 C727 1.335 . S
C727 C726 1.335 . S
C727 C728 1.398 . S
C727 H754 0.930 . S
C728 C723 1.382 . S
C728 C727 1.398 . S
C728 H755 0.929 . S
C729 O742 1.271 . S
C729 O743 1.251 . S
C730 O744 1.252 . S
C730 O745 1.272 . S
C731 Sm721 2.846 . S
C731 C732 1.506 . S
C731 O746 1.261 . S
C731 O747 1.242 . S
C732 C731 1.506 . S
C732 C733 1.358 . S
C732 C737 1.382 . S
C733 C732 1.358 . S
C733 C734 1.385 . S
C733 H756 0.930 . S
C734 C733 1.385 . S
C734 C735 1.395 . S
C734 H757 0.929 . S
C735 C734 1.395 . S
C735 C736 1.335 . S
C736 C735 1.335 . S
C736 C737 1.398 . S
C736 H758 0.930 . S
C737 C732 1.382 . S
C737 C736 1.398 . S
C737 H759 0.929 . S
C738 O748 1.271 . S
C738 O749 1.251 . S
C739 O750 1.252 . S
C739 O751 1.272 . S
O740 Sm720 2.543 . S
O740 C722 1.261 . S
O741 Sm720 2.450 . S
O741 C722 1.242 . S
O742 Sm720 2.681 . S
O742 Sm721 2.386 . S
O742 C729 1.271 . S
O743 Sm720 2.464 . S
O743 C729 1.251 . S
O744 Sm720 2.396 . S
O744 C730 1.252 . S
O745 Sm721 2.408 . S
O745 C730 1.272 . S
O746 Sm721 2.543 . S
O746 C731 1.261 . S
O747 Sm721 2.450 . S
O747 C731 1.242 . S
O748 Sm720 2.386 . S
O748 Sm721 2.681 . S
O748 C738 1.271 . S
O749 Sm721 2.464 . S
O749 C738 1.251 . S
O750 Sm721 2.396 . S
O750 C739 1.252 . S
O751 Sm720 2.408 . S
O751 C739 1.272 . S
H752 C724 0.930 . S
H753 C725 0.929 . S
H754 C727 0.930 . S
H755 C728 0.929 . S
H756 C733 0.930 . S
H757 C734 0.929 . S
H758 C736 0.930 . S
H759 C737 0.929 . S
Sm760 C762 2.846 . S
Sm760 O780 2.543 . S
Sm760 O781 2.450 . S
Sm760 O782 2.681 . S
Sm760 O783 2.464 . S
Sm760 O784 2.396 . S
Sm760 O788 2.386 . S
Sm760 O791 2.408 . S
Sm761 C771 2.846 . S
Sm761 O782 2.386 . S
Sm761 O785 2.408 . S
Sm761 O786 2.543 . S
Sm761 O787 2.450 . S
Sm761 O788 2.681 . S
Sm761 O789 2.464 . S
Sm761 O790 2.396 . S
C762 Sm760 2.846 . S
C762 C763 1.506 1_655 S
C762 O780 1.261 . S
C762 O781 1.242 . S
C763 C762 1.506 1_455 S
C763 C764 1.358 . S
C763 C768 1.382 . S
C764 C763 1.358 . S
C764 C765 1.385 . S
C764 H792 0.930 . S
C765 C764 1.385 . S
C765 C766 1.395 . S
C765 H793 0.929 . S
C766 C765 1.395 . S
C766 C767 1.335 . S
C767 C766 1.335 . S
C767 C768 1.398 . S
C767 H794 0.930 . S
C768 C763 1.382 . S
C768 C767 1.398 . S
C768 H795 0.929 . S
C769 O782 1.271 . S
C769 O783 1.251 . S
C770 O784 1.252 . S
C770 O785 1.272 . S
C771 Sm761 2.846 . S
C771 C772 1.506 . S
C771 O786 1.261 . S
C771 O787 1.242 . S
C772 C771 1.506 . S
C772 C773 1.358 . S
C772 C777 1.382 . S
C773 C772 1.358 . S
C773 C774 1.385 . S
C773 H796 0.930 . S
C774 C773 1.385 . S
C774 C775 1.395 . S
C774 H797 0.929 . S
C775 C774 1.395 . S
C775 C776 1.335 . S
C776 C775 1.335 . S
C776 C777 1.398 . S
C776 H798 0.930 . S
C777 C772 1.382 . S
C777 C776 1.398 . S
C777 H799 0.929 . S
C778 O788 1.271 . S
C778 O789 1.251 . S
C779 O790 1.252 . S
C779 O791 1.272 . S
O780 Sm760 2.543 . S
O780 C762 1.261 . S
O781 Sm760 2.450 . S
O781 C762 1.242 . S
O782 Sm760 2.681 . S
O782 Sm761 2.386 . S
O782 C769 1.271 . S
O783 Sm760 2.464 . S
O783 C769 1.251 . S
O784 Sm760 2.396 . S
O784 C770 1.252 . S
O785 Sm761 2.408 . S
O785 C770 1.272 . S
O786 Sm761 2.543 . S
O786 C771 1.261 . S
O787 Sm761 2.450 . S
O787 C771 1.242 . S
O788 Sm760 2.386 . S
O788 Sm761 2.681 . S
O788 C778 1.271 . S
O789 Sm761 2.464 . S
O789 C778 1.251 . S
O790 Sm761 2.396 . S
O790 C779 1.252 . S
O791 Sm760 2.408 . S
O791 C779 1.272 . S
H792 C764 0.930 . S
H793 C765 0.929 . S
H794 C767 0.930 . S
H795 C768 0.929 . S
H796 C773 0.930 . S
H797 C774 0.929 . S
H798 C776 0.930 . S
H799 C777 0.929 . S
Sm800 C802 2.846 . S
Sm800 O820 2.543 . S
Sm800 O821 2.450 . S
Sm800 O822 2.681 . S
Sm800 O823 2.464 . S
Sm800 O824 2.396 . S
Sm800 O828 2.386 . S
Sm800 O831 2.408 . S
Sm801 C811 2.846 . S
Sm801 O822 2.386 . S
Sm801 O825 2.408 . S
Sm801 O826 2.543 . S
Sm801 O827 2.450 . S
Sm801 O828 2.681 . S
Sm801 O829 2.464 . S
Sm801 O830 2.396 . S
C802 Sm800 2.846 . S
C802 C803 1.506 . S
C802 O820 1.261 . S
C802 O821 1.242 . S
C803 C802 1.506 . S
C803 C804 1.358 . S
C803 C808 1.382 . S
C804 C803 1.358 . S
C804 C805 1.385 . S
C804 H832 0.930 . S
C805 C804 1.385 . S
C805 C806 1.395 . S
C805 H833 0.929 . S
C806 C805 1.395 . S
C806 C807 1.335 . S
C807 C806 1.335 . S
C807 C808 1.398 . S
C807 H834 0.930 . S
C808 C803 1.382 . S
C808 C807 1.398 . S
C808 H835 0.929 . S
C809 O822 1.271 . S
C809 O823 1.251 . S
C810 O824 1.252 . S
C810 O825 1.272 . S
C811 Sm801 2.846 . S
C811 C812 1.506 . S
C811 O826 1.261 . S
C811 O827 1.242 . S
C812 C811 1.506 . S
C812 C813 1.358 . S
C812 C817 1.382 . S
C813 C812 1.358 . S
C813 C814 1.385 . S
C813 H836 0.930 . S
C814 C813 1.385 . S
C814 C815 1.395 . S
C814 H837 0.929 . S
C815 C814 1.395 . S
C815 C816 1.335 . S
C816 C815 1.335 . S
C816 C817 1.398 . S
C816 H838 0.930 . S
C817 C812 1.382 . S
C817 C816 1.398 . S
C817 H839 0.929 . S
C818 O828 1.271 . S
C818 O829 1.251 . S
C819 O830 1.252 . S
C819 O831 1.272 . S
O820 Sm800 2.543 . S
O820 C802 1.261 . S
O821 Sm800 2.450 . S
O821 C802 1.242 . S
O822 Sm800 2.681 . S
O822 Sm801 2.386 . S
O822 C809 1.271 . S
O823 Sm800 2.464 . S
O823 C809 1.251 . S
O824 Sm800 2.396 . S
O824 C810 1.252 . S
O825 Sm801 2.408 . S
O825 C810 1.272 . S
O826 Sm801 2.543 . S
O826 C811 1.261 . S
O827 Sm801 2.450 . S
O827 C811 1.242 . S
O828 Sm800 2.386 . S
O828 Sm801 2.681 . S
O828 C818 1.271 . S
O829 Sm801 2.464 . S
O829 C818 1.251 . S
O830 Sm801 2.396 . S
O830 C819 1.252 . S
O831 Sm800 2.408 . S
O831 C819 1.272 . S
H832 C804 0.930 . S
H833 C805 0.929 . S
H834 C807 0.930 . S
H835 C808 0.929 . S
H836 C813 0.930 . S
H837 C814 0.929 . S
H838 C816 0.930 . S
H839 C817 0.929 . S
Sm840 C842 2.846 . S
Sm840 O860 2.543 . S
Sm840 O861 2.450 . S
Sm840 O862 2.681 . S
Sm840 O863 2.464 . S
Sm840 O864 2.396 . S
Sm840 O868 2.386 . S
Sm840 O871 2.408 . S
Sm841 C851 2.846 . S
Sm841 O862 2.386 . S
Sm841 O865 2.408 . S
Sm841 O866 2.543 . S
Sm841 O867 2.450 . S
Sm841 O868 2.681 . S
Sm841 O869 2.464 . S
Sm841 O870 2.396 . S
C842 Sm840 2.846 . S
C842 C843 1.506 . S
C842 O860 1.261 . S
C842 O861 1.242 . S
C843 C842 1.506 . S
C843 C844 1.358 . S
C843 C848 1.382 . S
C844 C843 1.358 . S
C844 C845 1.385 . S
C844 H872 0.930 . S
C845 C844 1.385 . S
C845 C846 1.395 . S
C845 H873 0.929 . S
C846 C845 1.395 . S
C846 C847 1.335 . S
C847 C846 1.335 . S
C847 C848 1.398 . S
C847 H874 0.930 . S
C848 C843 1.382 . S
C848 C847 1.398 . S
C848 H875 0.929 . S
C849 O862 1.271 . S
C849 O863 1.251 . S
C850 O864 1.252 . S
C850 O865 1.272 . S
C851 Sm841 2.846 . S
C851 C852 1.506 1_455 S
C851 O866 1.261 . S
C851 O867 1.242 . S
C852 C851 1.506 1_655 S
C852 C853 1.358 . S
C852 C857 1.382 . S
C853 C852 1.358 . S
C853 C854 1.385 . S
C853 H876 0.930 . S
C854 C853 1.385 . S
C854 C855 1.395 . S
C854 H877 0.929 . S
C855 C854 1.395 . S
C855 C856 1.335 . S
C856 C855 1.335 . S
C856 C857 1.398 . S
C856 H878 0.930 . S
C857 C852 1.382 . S
C857 C856 1.398 . S
C857 H879 0.929 . S
C858 O868 1.271 . S
C858 O869 1.251 . S
C859 O870 1.252 . S
C859 O871 1.272 . S
O860 Sm840 2.543 . S
O860 C842 1.261 . S
O861 Sm840 2.450 . S
O861 C842 1.242 . S
O862 Sm840 2.681 . S
O862 Sm841 2.386 . S
O862 C849 1.271 . S
O863 Sm840 2.464 . S
O863 C849 1.251 . S
O864 Sm840 2.396 . S
O864 C850 1.252 . S
O865 Sm841 2.408 . S
O865 C850 1.272 . S
O866 Sm841 2.543 . S
O866 C851 1.261 . S
O867 Sm841 2.450 . S
O867 C851 1.242 . S
O868 Sm840 2.386 . S
O868 Sm841 2.681 . S
O868 C858 1.271 . S
O869 Sm841 2.464 . S
O869 C858 1.251 . S
O870 Sm841 2.396 . S
O870 C859 1.252 . S
O871 Sm840 2.408 . S
O871 C859 1.272 . S
H872 C844 0.930 . S
H873 C845 0.929 . S
H874 C847 0.930 . S
H875 C848 0.929 . S
H876 C853 0.930 . S
H877 C854 0.929 . S
H878 C856 0.930 . S
H879 C857 0.929 . S
Sm880 C882 2.846 . S
Sm880 O900 2.543 . S
Sm880 O901 2.450 . S
Sm880 O902 2.681 . S
Sm880 O903 2.464 . S
Sm880 O904 2.396 . S
Sm880 O908 2.386 . S
Sm880 O911 2.408 . S
Sm881 C891 2.846 . S
Sm881 O902 2.386 . S
Sm881 O905 2.408 . S
Sm881 O906 2.543 . S
Sm881 O907 2.450 . S
Sm881 O908 2.681 . S
Sm881 O909 2.464 . S
Sm881 O910 2.396 . S
C882 Sm880 2.846 . S
C882 C883 1.506 . S
C882 O900 1.261 . S
C882 O901 1.242 . S
C883 C882 1.506 . S
C883 C884 1.358 . S
C883 C888 1.382 . S
C884 C883 1.358 . S
C884 C885 1.385 . S
C884 H912 0.930 . S
C885 C884 1.385 . S
C885 C886 1.395 . S
C885 H913 0.929 . S
C886 C885 1.395 . S
C886 C887 1.335 . S
C887 C886 1.335 . S
C887 C888 1.398 . S
C887 H914 0.930 . S
C888 C883 1.382 . S
C888 C887 1.398 . S
C888 H915 0.929 . S
C889 O902 1.271 . S
C889 O903 1.251 . S
C890 O904 1.252 . S
C890 O905 1.272 . S
C891 Sm881 2.846 . S
C891 C892 1.506 . S
C891 O906 1.261 . S
C891 O907 1.242 . S
C892 C891 1.506 . S
C892 C893 1.358 . S
C892 C897 1.382 . S
C893 C892 1.358 . S
C893 C894 1.385 . S
C893 H916 0.930 . S
C894 C893 1.385 . S
C894 C895 1.395 . S
C894 H917 0.929 . S
C895 C894 1.395 . S
C895 C896 1.335 . S
C896 C895 1.335 . S
C896 C897 1.398 . S
C896 H918 0.930 . S
C897 C892 1.382 . S
C897 C896 1.398 . S
C897 H919 0.929 . S
C898 O908 1.271 . S
C898 O909 1.251 . S
C899 O910 1.252 . S
C899 O911 1.272 . S
O900 Sm880 2.543 . S
O900 C882 1.261 . S
O901 Sm880 2.450 . S
O901 C882 1.242 . S
O902 Sm880 2.681 . S
O902 Sm881 2.386 . S
O902 C889 1.271 . S
O903 Sm880 2.464 . S
O903 C889 1.251 . S
O904 Sm880 2.396 . S
O904 C890 1.252 . S
O905 Sm881 2.408 . S
O905 C890 1.272 . S
O906 Sm881 2.543 . S
O906 C891 1.261 . S
O907 Sm881 2.450 . S
O907 C891 1.242 . S
O908 Sm880 2.386 . S
O908 Sm881 2.681 . S
O908 C898 1.271 . S
O909 Sm881 2.464 . S
O909 C898 1.251 . S
O910 Sm881 2.396 . S
O910 C899 1.252 . S
O911 Sm880 2.408 . S
O911 C899 1.272 . S
H912 C884 0.930 . S
H913 C885 0.929 . S
H914 C887 0.930 . S
H915 C888 0.929 . S
H916 C893 0.930 . S
H917 C894 0.929 . S
H918 C896 0.930 . S
H919 C897 0.929 . S
Sm920 C922 2.846 . S
Sm920 O940 2.543 . S
Sm920 O941 2.450 . S
Sm920 O942 2.681 . S
Sm920 O943 2.464 . S
Sm920 O944 2.396 . S
Sm920 O948 2.386 . S
Sm920 O951 2.408 . S
Sm921 C931 2.846 . S
Sm921 O942 2.386 . S
Sm921 O945 2.408 . S
Sm921 O946 2.543 . S
Sm921 O947 2.450 . S
Sm921 O948 2.681 . S
Sm921 O949 2.464 . S
Sm921 O950 2.396 . S
C922 Sm920 2.846 . S
C922 C923 1.506 . S
C922 O940 1.261 . S
C922 O941 1.242 . S
C923 C922 1.506 . S
C923 C924 1.358 . S
C923 C928 1.382 . S
C924 C923 1.358 . S
C924 C925 1.385 . S
C924 H952 0.930 . S
C925 C924 1.385 . S
C925 C926 1.395 . S
C925 H953 0.929 . S
C926 C925 1.395 . S
C926 C927 1.335 . S
C927 C926 1.335 . S
C927 C928 1.398 . S
C927 H954 0.930 . S
C928 C923 1.382 . S
C928 C927 1.398 . S
C928 H955 0.929 . S
C929 O942 1.271 . S
C929 O943 1.251 . S
C930 O944 1.252 . S
C930 O945 1.272 . S
C931 Sm921 2.846 . S
C931 C932 1.506 1_455 S
C931 O946 1.261 . S
C931 O947 1.242 . S
C932 C931 1.506 1_655 S
C932 C933 1.358 . S
C932 C937 1.382 . S
C933 C932 1.358 . S
C933 C934 1.385 . S
C933 H956 0.930 . S
C934 C933 1.385 . S
C934 C935 1.395 . S
C934 H957 0.929 . S
C935 C934 1.395 . S
C935 C936 1.335 . S
C936 C935 1.335 . S
C936 C937 1.398 . S
C936 H958 0.930 . S
C937 C932 1.382 . S
C937 C936 1.398 . S
C937 H959 0.929 . S
C938 O948 1.271 . S
C938 O949 1.251 . S
C939 O950 1.252 . S
C939 O951 1.272 . S
O940 Sm920 2.543 . S
O940 C922 1.261 . S
O941 Sm920 2.450 . S
O941 C922 1.242 . S
O942 Sm920 2.681 . S
O942 Sm921 2.386 . S
O942 C929 1.271 . S
O943 Sm920 2.464 . S
O943 C929 1.251 . S
O944 Sm920 2.396 . S
O944 C930 1.252 . S
O945 Sm921 2.408 . S
O945 C930 1.272 . S
O946 Sm921 2.543 . S
O946 C931 1.261 . S
O947 Sm921 2.450 . S
O947 C931 1.242 . S
O948 Sm920 2.386 . S
O948 Sm921 2.681 . S
O948 C938 1.271 . S
O949 Sm921 2.464 . S
O949 C938 1.251 . S
O950 Sm921 2.396 . S
O950 C939 1.252 . S
O951 Sm920 2.408 . S
O951 C939 1.272 . S
H952 C924 0.930 . S
H953 C925 0.929 . S
H954 C927 0.930 . S
H955 C928 0.929 . S
H956 C933 0.930 . S
H957 C934 0.929 . S
H958 C936 0.930 . S
H959 C937 0.929 . S
Sm960 C962 2.846 . S
Sm960 O980 2.543 . S
Sm960 O981 2.450 . S
Sm960 O982 2.681 1_545 S
Sm960 O983 2.464 . S
Sm960 O984 2.396 1_545 S
Sm960 O988 2.386 1_545 S
Sm960 O991 2.408 . S
Sm961 C971 2.846 . S
Sm961 O982 2.386 . S
Sm961 O985 2.408 . S
Sm961 O986 2.543 . S
Sm961 O987 2.450 . S
Sm961 O988 2.681 . S
Sm961 O989 2.464 . S
Sm961 O990 2.396 1_565 S
C962 Sm960 2.846 . S
C962 C963 1.506 . S
C962 O980 1.261 . S
C962 O981 1.242 . S
C963 C962 1.506 . S
C963 C964 1.358 1_545 S
C963 C968 1.382 . S
C964 C963 1.358 1_565 S
C964 C965 1.385 . S
C964 H992 0.930 . S
C965 C964 1.385 . S
C965 C966 1.395 . S
C965 H993 0.929 . S
C966 C965 1.395 . S
C966 C967 1.335 1_565 S
C967 C966 1.335 1_545 S
C967 C968 1.398 . S
C967 H994 0.930 . S
C968 C963 1.382 . S
C968 C967 1.398 . S
C968 H995 0.929 . S
C969 O982 1.271 . S
C969 O983 1.251 1_565 S
C970 O984 1.252 . S
C970 O985 1.272 . S
C971 Sm961 2.846 . S
C971 C972 1.506 . S
C971 O986 1.261 . S
C971 O987 1.242 . S
C972 C971 1.506 . S
C972 C973 1.358 . S
C972 C977 1.382 . S
C973 C972 1.358 . S
C973 C974 1.385 . S
C973 H996 0.930 . S
C974 C973 1.385 . S
C974 C975 1.395 . S
C974 H997 0.929 . S
C975 C974 1.395 . S
C975 C976 1.335 . S
C976 C975 1.335 . S
C976 C977 1.398 . S
C976 H998 0.930 . S
C977 C972 1.382 . S
C977 C976 1.398 . S
C977 H999 0.929 . S
C978 O988 1.271 . S
C978 O989 1.251 . S
C979 O990 1.252 . S
C979 O991 1.272 . S
O980 Sm960 2.543 . S
O980 C962 1.261 . S
O981 Sm960 2.450 . S
O981 C962 1.242 . S
O982 Sm960 2.681 1_565 S
O982 Sm961 2.386 . S
O982 C969 1.271 . S
O983 Sm960 2.464 . S
O983 C969 1.251 1_545 S
O984 Sm960 2.396 1_565 S
O984 C970 1.252 . S
O985 Sm961 2.408 . S
O985 C970 1.272 . S
O986 Sm961 2.543 . S
O986 C971 1.261 . S
O987 Sm961 2.450 . S
O987 C971 1.242 . S
O988 Sm960 2.386 1_565 S
O988 Sm961 2.681 . S
O988 C978 1.271 . S
O989 Sm961 2.464 . S
O989 C978 1.251 . S
O990 Sm961 2.396 1_545 S
O990 C979 1.252 . S
O991 Sm960 2.408 . S
O991 C979 1.272 . S
H992 C964 0.930 . S
H993 C965 0.929 . S
H994 C967 0.930 . S
H995 C968 0.929 . S
H996 C973 0.930 . S
H997 C974 0.929 . S
H998 C976 0.930 . S
H999 C977 0.929 . S
Sm1000 C1002 2.846 . S
Sm1000 O1020 2.543 . S
Sm1000 O1021 2.450 . S
Sm1000 O1022 2.681 . S
Sm1000 O1023 2.464 . S
Sm1000 O1024 2.396 . S
Sm1000 O1028 2.386 . S
Sm1000 O1031 2.408 . S
Sm1001 C1011 2.846 . S
Sm1001 O1022 2.386 . S
Sm1001 O1025 2.408 . S
Sm1001 O1026 2.543 . S
Sm1001 O1027 2.450 . S
Sm1001 O1028 2.681 . S
Sm1001 O1029 2.464 . S
Sm1001 O1030 2.396 . S
C1002 Sm1000 2.846 . S
C1002 C1003 1.506 1_655 S
C1002 O1020 1.261 . S
C1002 O1021 1.242 . S
C1003 C1002 1.506 1_455 S
C1003 C1004 1.358 . S
C1003 C1008 1.382 . S
C1004 C1003 1.358 . S
C1004 C1005 1.385 . S
C1004 H1032 0.930 . S
C1005 C1004 1.385 . S
C1005 C1006 1.395 . S
C1005 H1033 0.929 . S
C1006 C1005 1.395 . S
C1006 C1007 1.335 . S
C1007 C1006 1.335 . S
C1007 C1008 1.398 . S
C1007 H1034 0.930 . S
C1008 C1003 1.382 . S
C1008 C1007 1.398 . S
C1008 H1035 0.929 . S
C1009 O1022 1.271 . S
C1009 O1023 1.251 . S
C1010 O1024 1.252 . S
C1010 O1025 1.272 . S
C1011 Sm1001 2.846 . S
C1011 C1012 1.506 . S
C1011 O1026 1.261 . S
C1011 O1027 1.242 . S
C1012 C1011 1.506 . S
C1012 C1013 1.358 . S
C1012 C1017 1.382 . S
C1013 C1012 1.358 . S
C1013 C1014 1.385 . S
C1013 H1036 0.930 . S
C1014 C1013 1.385 . S
C1014 C1015 1.395 . S
C1014 H1037 0.929 . S
C1015 C1014 1.395 . S
C1015 C1016 1.335 . S
C1016 C1015 1.335 . S
C1016 C1017 1.398 . S
C1016 H1038 0.930 . S
C1017 C1012 1.382 . S
C1017 C1016 1.398 . S
C1017 H1039 0.929 . S
C1018 O1028 1.271 . S
C1018 O1029 1.251 . S
C1019 O1030 1.252 . S
C1019 O1031 1.272 . S
O1020 Sm1000 2.543 . S
O1020 C1002 1.261 . S
O1021 Sm1000 2.450 . S
O1021 C1002 1.242 . S
O1022 Sm1000 2.681 . S
O1022 Sm1001 2.386 . S
O1022 C1009 1.271 . S
O1023 Sm1000 2.464 . S
O1023 C1009 1.251 . S
O1024 Sm1000 2.396 . S
O1024 C1010 1.252 . S
O1025 Sm1001 2.408 . S
O1025 C1010 1.272 . S
O1026 Sm1001 2.543 . S
O1026 C1011 1.261 . S
O1027 Sm1001 2.450 . S
O1027 C1011 1.242 . S
O1028 Sm1000 2.386 . S
O1028 Sm1001 2.681 . S
O1028 C1018 1.271 . S
O1029 Sm1001 2.464 . S
O1029 C1018 1.251 . S
O1030 Sm1001 2.396 . S
O1030 C1019 1.252 . S
O1031 Sm1000 2.408 . S
O1031 C1019 1.272 . S
H1032 C1004 0.930 . S
H1033 C1005 0.929 . S
H1034 C1007 0.930 . S
H1035 C1008 0.929 . S
H1036 C1013 0.930 . S
H1037 C1014 0.929 . S
H1038 C1016 0.930 . S
H1039 C1017 0.929 . S
Sm1040 C1042 2.846 . S
Sm1040 O1060 2.543 . S
Sm1040 O1061 2.450 . S
Sm1040 O1062 2.681 . S
Sm1040 O1063 2.464 . S
Sm1040 O1064 2.396 . S
Sm1040 O1068 2.386 . S
Sm1040 O1071 2.408 . S
Sm1041 C1051 2.846 . S
Sm1041 O1062 2.386 . S
Sm1041 O1065 2.408 . S
Sm1041 O1066 2.543 . S
Sm1041 O1067 2.450 . S
Sm1041 O1068 2.681 . S
Sm1041 O1069 2.464 . S
Sm1041 O1070 2.396 . S
C1042 Sm1040 2.846 . S
C1042 C1043 1.506 . S
C1042 O1060 1.261 . S
C1042 O1061 1.242 . S
C1043 C1042 1.506 . S
C1043 C1044 1.358 . S
C1043 C1048 1.382 . S
C1044 C1043 1.358 . S
C1044 C1045 1.385 . S
C1044 H1072 0.930 . S
C1045 C1044 1.385 . S
C1045 C1046 1.395 . S
C1045 H1073 0.929 . S
C1046 C1045 1.395 . S
C1046 C1047 1.335 . S
C1047 C1046 1.335 . S
C1047 C1048 1.398 . S
C1047 H1074 0.930 . S
C1048 C1043 1.382 . S
C1048 C1047 1.398 . S
C1048 H1075 0.929 . S
C1049 O1062 1.271 . S
C1049 O1063 1.251 . S
C1050 O1064 1.252 . S
C1050 O1065 1.272 . S
C1051 Sm1041 2.846 . S
C1051 C1052 1.506 . S
C1051 O1066 1.261 . S
C1051 O1067 1.242 . S
C1052 C1051 1.506 . S
C1052 C1053 1.358 . S
C1052 C1057 1.382 . S
C1053 C1052 1.358 . S
C1053 C1054 1.385 . S
C1053 H1076 0.930 . S
C1054 C1053 1.385 . S
C1054 C1055 1.395 . S
C1054 H1077 0.929 . S
C1055 C1054 1.395 . S
C1055 C1056 1.335 . S
C1056 C1055 1.335 . S
C1056 C1057 1.398 . S
C1056 H1078 0.930 . S
C1057 C1052 1.382 . S
C1057 C1056 1.398 . S
C1057 H1079 0.929 . S
C1058 O1068 1.271 . S
C1058 O1069 1.251 . S
C1059 O1070 1.252 . S
C1059 O1071 1.272 . S
O1060 Sm1040 2.543 . S
O1060 C1042 1.261 . S
O1061 Sm1040 2.450 . S
O1061 C1042 1.242 . S
O1062 Sm1040 2.681 . S
O1062 Sm1041 2.386 . S
O1062 C1049 1.271 . S
O1063 Sm1040 2.464 . S
O1063 C1049 1.251 . S
O1064 Sm1040 2.396 . S
O1064 C1050 1.252 . S
O1065 Sm1041 2.408 . S
O1065 C1050 1.272 . S
O1066 Sm1041 2.543 . S
O1066 C1051 1.261 . S
O1067 Sm1041 2.450 . S
O1067 C1051 1.242 . S
O1068 Sm1040 2.386 . S
O1068 Sm1041 2.681 . S
O1068 C1058 1.271 . S
O1069 Sm1041 2.464 . S
O1069 C1058 1.251 . S
O1070 Sm1041 2.396 . S
O1070 C1059 1.252 . S
O1071 Sm1040 2.408 . S
O1071 C1059 1.272 . S
H1072 C1044 0.930 . S
H1073 C1045 0.929 . S
H1074 C1047 0.930 . S
H1075 C1048 0.929 . S
H1076 C1053 0.930 . S
H1077 C1054 0.929 . S
H1078 C1056 0.930 . S
H1079 C1057 0.929 . S
Sm1080 C1082 2.846 . S
Sm1080 O1100 2.543 . S
Sm1080 O1101 2.450 . S
Sm1080 O1102 2.681 1_545 S
Sm1080 O1103 2.464 . S
Sm1080 O1104 2.396 1_545 S
Sm1080 O1108 2.386 1_545 S
Sm1080 O1111 2.408 . S
Sm1081 C1091 2.846 . S
Sm1081 O1102 2.386 . S
Sm1081 O1105 2.408 . S
Sm1081 O1106 2.543 . S
Sm1081 O1107 2.450 . S
Sm1081 O1108 2.681 . S
Sm1081 O1109 2.464 . S
Sm1081 O1110 2.396 1_565 S
C1082 Sm1080 2.846 . S
C1082 C1083 1.506 1_655 S
C1082 O1100 1.261 . S
C1082 O1101 1.242 . S
C1083 C1082 1.506 1_455 S
C1083 C1084 1.358 1_545 S
C1083 C1088 1.382 . S
C1084 C1083 1.358 1_565 S
C1084 C1085 1.385 . S
C1084 H1112 0.930 . S
C1085 C1084 1.385 . S
C1085 C1086 1.395 . S
C1085 H1113 0.929 . S
C1086 C1085 1.395 . S
C1086 C1087 1.335 1_565 S
C1087 C1086 1.335 1_545 S
C1087 C1088 1.398 . S
C1087 H1114 0.930 . S
C1088 C1083 1.382 . S
C1088 C1087 1.398 . S
C1088 H1115 0.929 . S
C1089 O1102 1.271 . S
C1089 O1103 1.251 1_565 S
C1090 O1104 1.252 . S
C1090 O1105 1.272 . S
C1091 Sm1081 2.846 . S
C1091 C1092 1.506 . S
C1091 O1106 1.261 . S
C1091 O1107 1.242 . S
C1092 C1091 1.506 . S
C1092 C1093 1.358 . S
C1092 C1097 1.382 . S
C1093 C1092 1.358 . S
C1093 C1094 1.385 . S
C1093 H1116 0.930 . S
C1094 C1093 1.385 . S
C1094 C1095 1.395 . S
C1094 H1117 0.929 . S
C1095 C1094 1.395 . S
C1095 C1096 1.335 . S
C1096 C1095 1.335 . S
C1096 C1097 1.398 . S
C1096 H1118 0.930 . S
C1097 C1092 1.382 . S
C1097 C1096 1.398 . S
C1097 H1119 0.929 . S
C1098 O1108 1.271 . S
C1098 O1109 1.251 . S
C1099 O1110 1.252 . S
C1099 O1111 1.272 . S
O1100 Sm1080 2.543 . S
O1100 C1082 1.261 . S
O1101 Sm1080 2.450 . S
O1101 C1082 1.242 . S
O1102 Sm1080 2.681 1_565 S
O1102 Sm1081 2.386 . S
O1102 C1089 1.271 . S
O1103 Sm1080 2.464 . S
O1103 C1089 1.251 1_545 S
O1104 Sm1080 2.396 1_565 S
O1104 C1090 1.252 . S
O1105 Sm1081 2.408 . S
O1105 C1090 1.272 . S
O1106 Sm1081 2.543 . S
O1106 C1091 1.261 . S
O1107 Sm1081 2.450 . S
O1107 C1091 1.242 . S
O1108 Sm1080 2.386 1_565 S
O1108 Sm1081 2.681 . S
O1108 C1098 1.271 . S
O1109 Sm1081 2.464 . S
O1109 C1098 1.251 . S
O1110 Sm1081 2.396 1_545 S
O1110 C1099 1.252 . S
O1111 Sm1080 2.408 . S
O1111 C1099 1.272 . S
H1112 C1084 0.930 . S
H1113 C1085 0.929 . S
H1114 C1087 0.930 . S
H1115 C1088 0.929 . S
H1116 C1093 0.930 . S
H1117 C1094 0.929 . S
H1118 C1096 0.930 . S
H1119 C1097 0.929 . S
Sm1120 C1122 2.846 . S
Sm1120 O1140 2.543 . S
Sm1120 O1141 2.450 . S
Sm1120 O1142 2.681 . S
Sm1120 O1143 2.464 . S
Sm1120 O1144 2.396 1_545 S
Sm1120 O1148 2.386 . S
Sm1120 O1151 2.408 . S
Sm1121 C1131 2.846 . S
Sm1121 O1142 2.386 1_565 S
Sm1121 O1145 2.408 . S
Sm1121 O1146 2.543 . S
Sm1121 O1147 2.450 . S
Sm1121 O1148 2.681 1_565 S
Sm1121 O1149 2.464 . S
Sm1121 O1150 2.396 1_565 S
C1122 Sm1120 2.846 . S
C1122 C1123 1.506 . S
C1122 O1140 1.261 . S
C1122 O1141 1.242 . S
C1123 C1122 1.506 . S
C1123 C1124 1.358 . S
C1123 C1128 1.382 . S
C1124 C1123 1.358 . S
C1124 C1125 1.385 . S
C1124 H1152 0.930 . S
C1125 C1124 1.385 . S
C1125 C1126 1.395 . S
C1125 H1153 0.929 . S
C1126 C1125 1.395 . S
C1126 C1127 1.335 . S
C1127 C1126 1.335 . S
C1127 C1128 1.398 . S
C1127 H1154 0.930 . S
C1128 C1123 1.382 . S
C1128 C1127 1.398 . S
C1128 H1155 0.929 . S
C1129 O1142 1.271 . S
C1129 O1143 1.251 . S
C1130 O1144 1.252 . S
C1130 O1145 1.272 . S
C1131 Sm1121 2.846 . S
C1131 C1132 1.506 . S
C1131 O1146 1.261 . S
C1131 O1147 1.242 . S
C1132 C1131 1.506 . S
C1132 C1133 1.358 1_565 S
C1132 C1137 1.382 . S
C1133 C1132 1.358 1_545 S
C1133 C1134 1.385 . S
C1133 H1156 0.930 . S
C1134 C1133 1.385 . S
C1134 C1135 1.395 . S
C1134 H1157 0.929 . S
C1135 C1134 1.395 . S
C1135 C1136 1.335 1_545 S
C1136 C1135 1.335 1_565 S
C1136 C1137 1.398 . S
C1136 H1158 0.930 . S
C1137 C1132 1.382 . S
C1137 C1136 1.398 . S
C1137 H1159 0.929 . S
C1138 O1148 1.271 . S
C1138 O1149 1.251 1_545 S
C1139 O1150 1.252 . S
C1139 O1151 1.272 . S
O1140 Sm1120 2.543 . S
O1140 C1122 1.261 . S
O1141 Sm1120 2.450 . S
O1141 C1122 1.242 . S
O1142 Sm1120 2.681 . S
O1142 Sm1121 2.386 1_545 S
O1142 C1129 1.271 . S
O1143 Sm1120 2.464 . S
O1143 C1129 1.251 . S
O1144 Sm1120 2.396 1_565 S
O1144 C1130 1.252 . S
O1145 Sm1121 2.408 . S
O1145 C1130 1.272 . S
O1146 Sm1121 2.543 . S
O1146 C1131 1.261 . S
O1147 Sm1121 2.450 . S
O1147 C1131 1.242 . S
O1148 Sm1120 2.386 . S
O1148 Sm1121 2.681 1_545 S
O1148 C1138 1.271 . S
O1149 Sm1121 2.464 . S
O1149 C1138 1.251 1_565 S
O1150 Sm1121 2.396 1_545 S
O1150 C1139 1.252 . S
O1151 Sm1120 2.408 . S
O1151 C1139 1.272 . S
H1152 C1124 0.930 . S
H1153 C1125 0.929 . S
H1154 C1127 0.930 . S
H1155 C1128 0.929 . S
H1156 C1133 0.930 . S
H1157 C1134 0.929 . S
H1158 C1136 0.930 . S
H1159 C1137 0.929 . S
Sm1160 C1162 2.846 . S
Sm1160 O1180 2.543 . S
Sm1160 O1181 2.450 . S
Sm1160 O1182 2.681 . S
Sm1160 O1183 2.464 . S
Sm1160 O1184 2.396 . S
Sm1160 O1188 2.386 . S
Sm1160 O1191 2.408 . S
Sm1161 C1171 2.846 . S
Sm1161 O1182 2.386 . S
Sm1161 O1185 2.408 . S
Sm1161 O1186 2.543 . S
Sm1161 O1187 2.450 . S
Sm1161 O1188 2.681 . S
Sm1161 O1189 2.464 . S
Sm1161 O1190 2.396 . S
C1162 Sm1160 2.846 . S
C1162 C1163 1.506 . S
C1162 O1180 1.261 . S
C1162 O1181 1.242 . S
C1163 C1162 1.506 . S
C1163 C1164 1.358 . S
C1163 C1168 1.382 . S
C1164 C1163 1.358 . S
C1164 C1165 1.385 . S
C1164 H1192 0.930 . S
C1165 C1164 1.385 . S
C1165 C1166 1.395 . S
C1165 H1193 0.929 . S
C1166 C1165 1.395 . S
C1166 C1167 1.335 . S
C1167 C1166 1.335 . S
C1167 C1168 1.398 . S
C1167 H1194 0.930 . S
C1168 C1163 1.382 . S
C1168 C1167 1.398 . S
C1168 H1195 0.929 . S
C1169 O1182 1.271 . S
C1169 O1183 1.251 . S
C1170 O1184 1.252 . S
C1170 O1185 1.272 . S
C1171 Sm1161 2.846 . S
C1171 C1172 1.506 1_455 S
C1171 O1186 1.261 . S
C1171 O1187 1.242 . S
C1172 C1171 1.506 1_655 S
C1172 C1173 1.358 . S
C1172 C1177 1.382 . S
C1173 C1172 1.358 . S
C1173 C1174 1.385 . S
C1173 H1196 0.930 . S
C1174 C1173 1.385 . S
C1174 C1175 1.395 . S
C1174 H1197 0.929 . S
C1175 C1174 1.395 . S
C1175 C1176 1.335 . S
C1176 C1175 1.335 . S
C1176 C1177 1.398 . S
C1176 H1198 0.930 . S
C1177 C1172 1.382 . S
C1177 C1176 1.398 . S
C1177 H1199 0.929 . S
C1178 O1188 1.271 . S
C1178 O1189 1.251 . S
C1179 O1190 1.252 . S
C1179 O1191 1.272 . S
O1180 Sm1160 2.543 . S
O1180 C1162 1.261 . S
O1181 Sm1160 2.450 . S
O1181 C1162 1.242 . S
O1182 Sm1160 2.681 . S
O1182 Sm1161 2.386 . S
O1182 C1169 1.271 . S
O1183 Sm1160 2.464 . S
O1183 C1169 1.251 . S
O1184 Sm1160 2.396 . S
O1184 C1170 1.252 . S
O1185 Sm1161 2.408 . S
O1185 C1170 1.272 . S
O1186 Sm1161 2.543 . S
O1186 C1171 1.261 . S
O1187 Sm1161 2.450 . S
O1187 C1171 1.242 . S
O1188 Sm1160 2.386 . S
O1188 Sm1161 2.681 . S
O1188 C1178 1.271 . S
O1189 Sm1161 2.464 . S
O1189 C1178 1.251 . S
O1190 Sm1161 2.396 . S
O1190 C1179 1.252 . S
O1191 Sm1160 2.408 . S
O1191 C1179 1.272 . S
H1192 C1164 0.930 . S
H1193 C1165 0.929 . S
H1194 C1167 0.930 . S
H1195 C1168 0.929 . S
H1196 C1173 0.930 . S
H1197 C1174 0.929 . S
H1198 C1176 0.930 . S
H1199 C1177 0.929 . S
Sm1200 C1202 2.846 . S
Sm1200 O1220 2.543 . S
Sm1200 O1221 2.450 . S
Sm1200 O1222 2.681 . S
Sm1200 O1223 2.464 . S
Sm1200 O1224 2.396 . S
Sm1200 O1228 2.386 . S
Sm1200 O1231 2.408 . S
Sm1201 C1211 2.846 . S
Sm1201 O1222 2.386 . S
Sm1201 O1225 2.408 . S
Sm1201 O1226 2.543 . S
Sm1201 O1227 2.450 . S
Sm1201 O1228 2.681 . S
Sm1201 O1229 2.464 . S
Sm1201 O1230 2.396 . S
C1202 Sm1200 2.846 . S
C1202 C1203 1.506 . S
C1202 O1220 1.261 . S
C1202 O1221 1.242 . S
C1203 C1202 1.506 . S
C1203 C1204 1.358 . S
C1203 C1208 1.382 . S
C1204 C1203 1.358 . S
C1204 C1205 1.385 . S
C1204 H1232 0.930 . S
C1205 C1204 1.385 . S
C1205 C1206 1.395 . S
C1205 H1233 0.929 . S
C1206 C1205 1.395 . S
C1206 C1207 1.335 . S
C1207 C1206 1.335 . S
C1207 C1208 1.398 . S
C1207 H1234 0.930 . S
C1208 C1203 1.382 . S
C1208 C1207 1.398 . S
C1208 H1235 0.929 . S
C1209 O1222 1.271 . S
C1209 O1223 1.251 . S
C1210 O1224 1.252 . S
C1210 O1225 1.272 . S
C1211 Sm1201 2.846 . S
C1211 C1212 1.506 . S
C1211 O1226 1.261 . S
C1211 O1227 1.242 . S
C1212 C1211 1.506 . S
C1212 C1213 1.358 . S
C1212 C1217 1.382 . S
C1213 C1212 1.358 . S
C1213 C1214 1.385 . S
C1213 H1236 0.930 . S
C1214 C1213 1.385 . S
C1214 C1215 1.395 . S
C1214 H1237 0.929 . S
C1215 C1214 1.395 . S
C1215 C1216 1.335 . S
C1216 C1215 1.335 . S
C1216 C1217 1.398 . S
C1216 H1238 0.930 . S
C1217 C1212 1.382 . S
C1217 C1216 1.398 . S
C1217 H1239 0.929 . S
C1218 O1228 1.271 . S
C1218 O1229 1.251 . S
C1219 O1230 1.252 . S
C1219 O1231 1.272 . S
O1220 Sm1200 2.543 . S
O1220 C1202 1.261 . S
O1221 Sm1200 2.450 . S
O1221 C1202 1.242 . S
O1222 Sm1200 2.681 . S
O1222 Sm1201 2.386 . S
O1222 C1209 1.271 . S
O1223 Sm1200 2.464 . S
O1223 C1209 1.251 . S
O1224 Sm1200 2.396 . S
O1224 C1210 1.252 . S
O1225 Sm1201 2.408 . S
O1225 C1210 1.272 . S
O1226 Sm1201 2.543 . S
O1226 C1211 1.261 . S
O1227 Sm1201 2.450 . S
O1227 C1211 1.242 . S
O1228 Sm1200 2.386 . S
O1228 Sm1201 2.681 . S
O1228 C1218 1.271 . S
O1229 Sm1201 2.464 . S
O1229 C1218 1.251 . S
O1230 Sm1201 2.396 . S
O1230 C1219 1.252 . S
O1231 Sm1200 2.408 . S
O1231 C1219 1.272 . S
H1232 C1204 0.930 . S
H1233 C1205 0.929 . S
H1234 C1207 0.930 . S
H1235 C1208 0.929 . S
H1236 C1213 0.930 . S
H1237 C1214 0.929 . S
H1238 C1216 0.930 . S
H1239 C1217 0.929 . S
Sm1240 C1242 2.846 . S
Sm1240 O1260 2.543 . S
Sm1240 O1261 2.450 . S
Sm1240 O1262 2.681 . S
Sm1240 O1263 2.464 . S
Sm1240 O1264 2.396 1_545 S
Sm1240 O1268 2.386 . S
Sm1240 O1271 2.408 . S
Sm1241 C1251 2.846 . S
Sm1241 O1262 2.386 1_565 S
Sm1241 O1265 2.408 . S
Sm1241 O1266 2.543 . S
Sm1241 O1267 2.450 . S
Sm1241 O1268 2.681 1_565 S
Sm1241 O1269 2.464 . S
Sm1241 O1270 2.396 1_565 S
C1242 Sm1240 2.846 . S
C1242 C1243 1.506 . S
C1242 O1260 1.261 . S
C1242 O1261 1.242 . S
C1243 C1242 1.506 . S
C1243 C1244 1.358 . S
C1243 C1248 1.382 . S
C1244 C1243 1.358 . S
C1244 C1245 1.385 . S
C1244 H1272 0.930 . S
C1245 C1244 1.385 . S
C1245 C1246 1.395 . S
C1245 H1273 0.929 . S
C1246 C1245 1.395 . S
C1246 C1247 1.335 . S
C1247 C1246 1.335 . S
C1247 C1248 1.398 . S
C1247 H1274 0.930 . S
C1248 C1243 1.382 . S
C1248 C1247 1.398 . S
C1248 H1275 0.929 . S
C1249 O1262 1.271 . S
C1249 O1263 1.251 . S
C1250 O1264 1.252 . S
C1250 O1265 1.272 . S
C1251 Sm1241 2.846 . S
C1251 C1252 1.506 1_455 S
C1251 O1266 1.261 . S
C1251 O1267 1.242 . S
C1252 C1251 1.506 1_655 S
C1252 C1253 1.358 1_565 S
C1252 C1257 1.382 . S
C1253 C1252 1.358 1_545 S
C1253 C1254 1.385 . S
C1253 H1276 0.930 . S
C1254 C1253 1.385 . S
C1254 C1255 1.395 . S
C1254 H1277 0.929 . S
C1255 C1254 1.395 . S
C1255 C1256 1.335 1_545 S
C1256 C1255 1.335 1_565 S
C1256 C1257 1.398 . S
C1256 H1278 0.930 . S
C1257 C1252 1.382 . S
C1257 C1256 1.398 . S
C1257 H1279 0.929 . S
C1258 O1268 1.271 . S
C1258 O1269 1.251 1_545 S
C1259 O1270 1.252 . S
C1259 O1271 1.272 . S
O1260 Sm1240 2.543 . S
O1260 C1242 1.261 . S
O1261 Sm1240 2.450 . S
O1261 C1242 1.242 . S
O1262 Sm1240 2.681 . S
O1262 Sm1241 2.386 1_545 S
O1262 C1249 1.271 . S
O1263 Sm1240 2.464 . S
O1263 C1249 1.251 . S
O1264 Sm1240 2.396 1_565 S
O1264 C1250 1.252 . S
O1265 Sm1241 2.408 . S
O1265 C1250 1.272 . S
O1266 Sm1241 2.543 . S
O1266 C1251 1.261 . S
O1267 Sm1241 2.450 . S
O1267 C1251 1.242 . S
O1268 Sm1240 2.386 . S
O1268 Sm1241 2.681 1_545 S
O1268 C1258 1.271 . S
O1269 Sm1241 2.464 . S
O1269 C1258 1.251 1_565 S
O1270 Sm1241 2.396 1_545 S
O1270 C1259 1.252 . S
O1271 Sm1240 2.408 . S
O1271 C1259 1.272 . S
H1272 C1244 0.930 . S
H1273 C1245 0.929 . S
H1274 C1247 0.930 . S
H1275 C1248 0.929 . S
H1276 C1253 0.930 . S
H1277 C1254 0.929 . S
H1278 C1256 0.930 . S
H1279 C1257 0.929 . S
C10 C1010 2.541 . S
C970 C50 2.541 . S
C1090 C90 2.541 . S
C130 C1050 2.541 . S
C179 C1179 2.541 . S
C219 C1139 2.541 . S
C259 C1259 2.541 . S
C1219 C299 2.541 . S
C330 C690 2.541 . S
C370 C650 2.541 . S
C410 C770 2.541 . S
C730 C450 2.541 . S
C499 C859 2.541 . S
C539 C819 2.541 . S
C939 C579 2.541 . S
C619 C899 2.541 . S
C9 C129 2.896 . S
C49 C89 2.896 . S
C298 C178 2.896 . S
C258 C218 2.896 . S
C329 C449 2.896 . S
C369 C409 2.896 . S
C498 C618 2.896 . S
C578 C538 2.896 . S
C649 C769 2.896 . S
C689 C729 2.896 . S
C938 C818 2.896 . S
C858 C898 2.896 . S
C1089 C969 2.896 . S
C1009 C1049 2.896 . S
C1258 C1138 2.896 . S
C1218 C1178 2.896 . S
C59 C19 1.606 . S
C99 C139 1.606 . S
C210 C170 1.606 . S
C290 C250 1.606 . S
C339 C379 1.607 . S
C419 C459 1.607 . S
C530 C490 1.607 . S
C570 C610 1.607 . S
C659 C699 1.606 . S
C779 C739 1.606 . S
C810 C850 1.606 . S
C890 C930 1.606 . S
C979 C1019 1.607 . S
C1059 C1099 1.607 . S
C1170 C1130 1.607 . S
C1210 C1250 1.607 . S
C6 C15 2.765 . S
C46 C55 2.765 . S
C86 C95 2.765 . S
C135 C126 2.765 . S
C166 C175 2.765 . S
C215 C206 2.765 . S
C246 C255 2.765 . S
C286 C295 2.765 . S
C335 C326 2.765 . S
C366 C375 2.765 . S
C406 C415 2.765 . S
C455 C446 2.765 . S
C486 C495 2.765 . S
C535 C526 2.765 . S
C575 C566 2.765 . S
C606 C615 2.765 . S
C646 C655 2.765 1_455 S
C695 C686 2.765 . S
C735 C726 2.765 1_655 S
C766 C775 2.765 . S
C815 C806 2.765 1_655 S
C855 C846 2.765 . S
C886 C895 2.765 1_455 S
C935 C926 2.765 . S
C975 C966 2.765 1_655 S
C1006 C1015 2.765 . S
C1055 C1046 2.765 1_655 S
C1095 C1086 2.765 . S
C1135 C1126 2.765 1_655 S
C1175 C1166 2.765 . S
C1206 C1215 2.765 1_455 S
C1246 C1255 2.765 . S
C18 C169 1.613 1_454 S
C1169 C58 1.612 1_556 S
C569 C98 1.612 1_655 S
C138 C929 1.613 . S
C209 C1018 1.612 1_556 S
C249 C418 1.612 1_655 S
C289 C778 1.613 . S
C338 C489 1.612 1_465 S
C849 C378 1.612 . S
C1249 C458 1.612 1_545 S
C529 C698 1.612 . S
C1098 C609 1.612 1_565 S
C658 C809 1.613 . S
C1209 C738 1.612 . S
C889 C1058 1.612 . S
C978 C1129 1.612 1_564 S
