# Generated by pormake.
# Topology qtz-x, (6)-cn, num edge types: 1
# Building blocks:
#     Node 0, Type 0, BuildingBlock: BETGAK_clean_sbu_0, # of connection points: 6
#     Node 1, Type 0, BuildingBlock: BETGAK_clean_sbu_0, # of connection points: 6
#     Node 2, Type 0, BuildingBlock: BETGAK_clean_sbu_0, # of connection points: 6
#     Edge 3, Type (0, 0), BuildingBlock: XIVTED_clean_linker_0, # of connection points: 2
#     Edge 4, Type (0, 0), BuildingBlock: XIVTED_clean_linker_0, # of connection points: 2
#     Edge 5, Type (0, 0), BuildingBlock: XIVTED_clean_linker_0, # of connection points: 2
#     Edge 6, Type (0, 0), BuildingBlock: XIVTED_clean_linker_0, # of connection points: 2
#     Edge 7, Type (0, 0), BuildingBlock: XIVTED_clean_linker_0, # of connection points: 2
#     Edge 8, Type (0, 0), BuildingBlock: XIVTED_clean_linker_0, # of connection points: 2
#     Edge 9, Type (0, 0), BuildingBlock: XIVTED_clean_linker_0, # of connection points: 2
#     Edge 10, Type (0, 0), BuildingBlock: XIVTED_clean_linker_0, # of connection points: 2
#     Edge 11, Type (0, 0), BuildingBlock: XIVTED_clean_linker_0, # of connection points: 2
# Relax obj value: 0.241
# Max RMSD: 0.266
# Mean RMSD: 0.242
data_MOF--net-qtz-x--node1-BETGAK_clean_sbu_0--edge1-XIVTED_clean_linker_0
_symmetry_space_group_name_H-M    P1
_symmetry_Int_Tables_number       1
_symmetry_cell_setting            triclinic
loop_
_symmetry_equiv_pos_as_xyz
'x, y, z'
_cell_length_a     14.653619
_cell_length_b     14.66916
_cell_length_c     52.948284
_cell_angle_alpha  69.063715
_cell_angle_beta   113.90523
_cell_angle_gamma 121.21027
loop_
_atom_site_label
_atom_site_type_symbol
_atom_site_fract_x
_atom_site_fract_y
_atom_site_fract_z
_atom_type_partial_charge
La0 La 1.03595 0.63414 0.19972 0.0
La1 La 0.26228 0.77679 0.19382 0.0
C2 C 0.87458 0.48278 0.21828 0.0
C3 C 0.85313 0.44337 0.24633 0.0
C4 C 0.80308 0.48661 0.25367 0.0
C5 C 0.7867 0.45236 0.28045 0.0
C6 C 0.81903 0.3733 0.3005 0.0
C7 C 0.86731 0.32871 0.29299 0.0
C8 C 0.88399 0.36315 0.26625 0.0
C9 C 0.09074 0.8436 0.19002 0.0
C10 C 0.24515 0.70179 0.25417 0.0
C11 C 0.42434 0.92706 0.17563 0.0
C12 C 0.44939 0.95182 0.14889 0.0
C13 C 0.54917 0.95846 0.14948 0.0
C14 C 0.56645 0.96366 0.12479 0.0
C15 C 0.4838 0.9615 0.09898 0.0
C16 C 0.38651 0.961 0.09823 0.0
C17 C 0.36971 0.95669 0.12288 0.0
C18 C 0.20719 0.56685 0.20347 0.0
C19 C 1.05746 0.70768 0.13903 0.0
O20 O 0.8793 0.57862 0.20489 0.0
O21 O 0.95249 0.4688 0.21626 0.0
O22 O 0.99295 0.77063 0.18008 0.0
O23 O 0.15253 0.79751 0.20579 0.0
O24 O 0.14233 0.6318 0.24367 0.0
O25 O 0.30562 0.78042 0.23758 0.0
O26 O 0.42547 0.83685 0.19239 0.0
O27 O 0.33931 0.93879 0.17406 0.0
O28 O 0.30537 0.64002 0.21303 0.0
O29 O 0.14591 0.61344 0.18784 0.0
O30 O 0.16012 0.77517 0.15016 0.0
O31 O 0.99137 0.63325 0.15499 0.0
H32 H 0.77705 0.54759 0.23878 0.0
H33 H 0.74772 0.48721 0.28536 0.0
H34 H 0.8942 0.26844 0.30797 0.0
H35 H 0.9222 0.32757 0.26132 0.0
H36 H 0.61212 0.95548 0.16923 0.0
H37 H 0.64364 0.96676 0.12607 0.0
H38 H 0.32064 0.9585 0.07887 0.0
H39 H 0.29201 0.95237 0.12162 0.0
La40 La 0.86386 0.19044 0.55986 0.0
La41 La 0.76495 0.96084 0.55622 0.0
C42 C 0.91886 0.36419 0.57324 0.0
C43 C 0.95765 0.39674 0.60045 0.0
C44 C 1.05171 0.49486 0.60555 0.0
C45 C 0.09424 0.52413 0.63181 0.0
C46 C 1.04314 0.45588 0.65352 0.0
C47 C 0.94831 0.35772 0.64823 0.0
C48 C 0.90624 0.32827 0.62202 0.0
C49 C 0.99994 0.13439 0.5552 0.0
C50 C 0.85281 0.00693 0.61613 0.0
C51 C 0.70965 0.78684 0.54278 0.0
C52 C 0.6763 0.75697 0.51549 0.0
C53 C 0.58022 0.66189 0.5088 0.0
C54 C 0.53761 0.64043 0.48157 0.0
C55 C 0.5901 0.7141 0.46045 0.0
C56 C 0.68935 0.80684 0.46767 0.0
C57 C 0.73205 0.82794 0.49489 0.0
C58 C 0.62924 0.01731 0.56097 0.0
C59 C 0.77613 0.14581 0.50005 0.0
O60 O 0.98698 0.34453 0.56838 0.0
O61 O 0.81587 0.29159 0.56599 0.0
O62 O 0.9964 0.22699 0.54365 0.0
O63 O 0.93192 0.07785 0.56996 0.0
O64 O 0.86635 0.10722 0.60367 0.0
O65 O 0.82373 0.93415 0.60179 0.0
O66 O 0.64041 0.80951 0.54607 0.0
O67 O 0.81292 0.85635 0.55162 0.0
O68 O 0.63247 0.92457 0.57246 0.0
O69 O 0.69696 0.07325 0.54613 0.0
O70 O 0.76751 0.0468 0.51263 0.0
O71 O 0.7999 0.21595 0.5145 0.0
H72 H 0.09338 0.54821 0.5893 0.0
H73 H 0.16828 0.59948 0.63522 0.0
H74 H 0.90564 0.30389 0.66424 0.0
H75 H 0.83392 0.2516 0.61874 0.0
H76 H 0.53593 0.60597 0.52439 0.0
H77 H 0.46233 0.56715 0.47696 0.0
H78 H 0.73152 0.86626 0.45198 0.0
H79 H 0.8061 0.90226 0.49941 0.0
La80 La 0.83169 0.86849 0.86718 0.0
La81 La 1.0067 0.79393 0.88544 0.0
C82 C 0.66587 0.89078 0.86261 0.0
C83 C 0.61906 0.88552 0.88338 0.0
C84 C 0.60913 0.97627 0.88295 0.0
C85 C 0.57906 0.97856 0.90456 0.0
C86 C 0.55776 0.88969 0.92697 0.0
C87 C 0.56228 0.79672 0.92658 0.0
C88 C 0.593 0.79474 0.90509 0.0
C89 C 1.03397 0.02478 0.86807 0.0
C90 C 0.94873 0.81153 0.93253 0.0
C91 C 0.17212 0.77046 0.89046 0.0
C92 C 0.18991 0.72398 0.87336 0.0
C93 C 0.10455 0.63005 0.8628 0.0
C94 C 0.11577 0.59411 0.84362 0.0
C95 C 0.21201 0.65192 0.83433 0.0
C96 C 0.29917 0.74372 0.8457 0.0
C97 C 0.2881 0.77934 0.86509 0.0
C98 C 0.80374 0.6361 0.8834 0.0
C99 C 0.89202 0.8538 0.81954 0.0
O100 O 0.76328 0.97181 0.86174 0.0
O101 O 0.65992 0.8001 0.86144 0.0
O102 O 0.94469 0.0287 0.84947 0.0
O103 O 1.00808 0.93846 0.88606 0.0
O104 O 0.85666 0.81226 0.91318 0.0
O105 O 1.0319 0.82541 0.92524 0.0
O106 O 0.09803 0.70263 0.90432 0.0
O107 O 0.16157 0.8605 0.87786 0.0
O108 O 0.89283 0.62989 0.9013 0.0
O109 O 0.83086 0.72436 0.86621 0.0
O110 O 0.97686 0.83908 0.83944 0.0
O111 O 0.81317 0.8542 0.82565 0.0
H112 H 0.62875 0.04717 0.86641 0.0
H113 H 0.57706 0.05168 0.90428 0.0
H114 H 0.54449 0.72617 0.94326 0.0
H115 H 0.59969 0.72338 0.90602 0.0
H116 H 1.0271 0.58664 0.86846 0.0
H117 H 1.04637 0.52432 0.83491 0.0
H118 H 0.3745 0.7896 0.83901 0.0
H119 H 0.35426 0.85249 0.87277 0.0
H120 H 0.27863 -0.00478 0.21887 0.0
H121 H 1.01905 0.41586 0.17437 0.0
H122 H 0.95023 0.94023 0.16384 0.0
H123 H 0.34683 0.46953 0.22963 0.0
H124 H 0.99128 0.24087 0.17048 0.0
H125 H 0.30596 0.17003 0.22268 0.0
C126 C 0.21255 0.02027 0.20746 0.0
C127 C 0.11196 0.95295 0.19106 0.0
C128 C 1.06922 0.29074 0.18352 0.0
C129 C 0.14214 0.15279 0.19545 0.0
C130 C 0.08488 0.39049 0.18582 0.0
C131 C 0.18547 0.45746 0.20231 0.0
C132 C 0.1548 0.25756 0.19781 0.0
C133 C 0.26802 0.42057 0.21664 0.0
C134 C 0.22796 0.11994 0.20971 0.0
C135 C 1.02909 -0.01052 0.17675 0.0
N136 N 0.25102 0.32352 0.21401 0.0
N137 N 1.04586 0.08655 0.17933 0.0
H138 H 0.58146 0.19166 0.53057 0.0
H139 H 1.04788 0.96016 0.58555 0.0
H140 H 0.47344 0.89264 0.58984 0.0
H141 H 0.15624 0.25963 0.52644 0.0
H142 H 0.20239 0.93293 0.58721 0.0
H143 H 0.42714 0.21913 0.52896 0.0
C144 C 0.52561 0.13212 0.54331 0.0
C145 C 0.54021 0.03966 0.5603 0.0
C146 C 0.19229 0.00458 0.57384 0.0
C147 C 0.36293 0.06988 0.55849 0.0
C148 C 0.10384 0.01985 0.57285 0.0
C149 C 0.08923 0.11233 0.55589 0.0
C150 C 0.26676 0.08238 0.55774 0.0
C151 C 0.16448 0.18725 0.53989 0.0
C152 C 0.43727 0.14753 0.54235 0.0
C153 C 0.46515 0.96497 0.57636 0.0
N154 N 0.24978 0.1708 0.54124 0.0
N155 N 0.37996 0.98153 0.57503 0.0
H156 H 0.09816 0.21655 0.83103 0.0
H157 H 0.73931 0.44315 0.91971 0.0
H158 H 0.22774 0.03601 0.90859 0.0
H159 H 0.61095 0.62361 0.84197 0.0
H160 H 0.55294 0.29306 0.91584 0.0
H161 H 0.28539 0.36526 0.83431 0.0
C162 C 0.1661 0.20827 0.84877 0.0
C163 C 0.14738 0.11397 0.86963 0.0
C164 C 0.56523 0.36544 0.89963 0.0
C165 C 0.36189 0.28441 0.87363 0.0
C166 C 0.67168 0.4512 0.90183 0.0
C167 C 0.6905 0.54609 0.88117 0.0
C168 C 0.47649 0.37439 0.87657 0.0
C169 C 0.59991 0.55219 0.85846 0.0
C170 C 0.27292 0.29332 0.85065 0.0
C171 C 0.23847 0.10742 0.89208 0.0
N172 N 0.49686 0.46755 0.85676 0.0
N173 N 0.34165 0.19155 0.89352 0.0
H174 H 0.43417 0.97974 0.92782 0.0
H175 H 0.57658 0.84597 0.0959 0.0
H176 H 0.6409 0.81769 0.98256 0.0
H177 H 0.41567 0.05387 1.04355 0.0
H178 H 0.5909 0.8269 0.05405 0.0
H179 H 0.41482 -0.00162 0.96937 0.0
C180 C 0.47541 0.94805 0.94853 0.0
C181 C 0.53908 0.8968 0.95166 0.0
C182 C 0.55271 0.87702 0.05167 0.0
C183 C 0.51689 0.91748 0.99923 0.0
C184 C 0.54539 0.88885 0.07566 0.0
C185 C 0.49575 0.95258 0.07342 0.0
C186 C 0.50953 0.92862 1.02505 0.0
C187 C 0.45388 0.00326 0.04637 0.0
C188 C 0.46413 0.95853 0.97222 0.0
C189 C 0.58944 0.8561 0.97903 0.0
N190 N 0.46168 -0.00983 1.02326 0.0
N191 N 0.57739 0.86749 1.00167 0.0
H192 H 0.83202 0.35198 0.46814 0.0
H193 H 0.74827 0.16697 0.3319 0.0
H194 H 0.70074 0.01851 0.46211 0.0
H195 H 0.85385 0.49877 0.33462 0.0
H196 H 0.72806 0.11132 0.37941 0.0
H197 H 0.83492 0.40745 0.4189 0.0
C198 C 0.80283 0.2902 0.45643 0.0
C199 C 0.76728 0.18027 0.46946 0.0
C200 C 0.75522 0.1963 0.3696 0.0
C201 C 0.77149 0.24344 0.41309 0.0
C202 C 0.7675 0.22827 0.3425 0.0
C203 C 0.80323 0.33789 0.32919 0.0
C204 C 0.77936 0.27442 0.38374 0.0
C205 C 0.82508 0.41327 0.34389 0.0
C206 C 0.80497 0.32203 0.42832 0.0
C207 C 0.73068 0.10413 0.45317 0.0
N208 N 0.81336 0.38026 0.37038 0.0
N209 N 0.7344 0.13709 0.42597 0.0
H210 H 1.06644 0.95523 0.79719 0.0
H211 H 0.73224 0.81273 0.64546 0.0
H212 H 0.70862 0.79309 0.77441 0.0
H213 H 0.99722 0.1321 0.65604 0.0
H214 H 0.74034 0.77089 0.69552 0.0
H215 H 1.06005 -0.01167 0.7478 0.0
C216 C 0.98655 0.92591 0.78181 0.0
C217 C 0.88779 0.87172 0.78982 0.0
C218 C 0.79714 0.8496 0.68681 0.0
C219 C 0.88043 0.90707 0.73362 0.0
C220 C 0.7934 0.87313 0.65844 0.0
C221 C 0.86466 0.97575 0.64672 0.0
C222 C 0.87483 0.92814 0.70364 0.0
C223 C 0.94108 0.05192 0.66431 0.0
C224 C 0.98315 0.94516 0.75371 0.0
C225 C 0.78654 0.83586 0.76903 0.0
N226 N 0.94489 0.02629 0.69196 0.0
N227 N 0.78537 0.85323 0.74185 0.0
H228 H 0.13108 0.82024 0.97671 0.0
H229 H 0.8561 0.67758 0.0981 0.0
H230 H 0.7921 0.76389 0.95758 0.0
H231 H 0.19207 0.73994 0.11108 0.0
H232 H 0.82329 0.70069 0.04698 0.0
H233 H 0.14932 0.78713 1.02635 0.0
C234 C 1.06015 0.8009 0.98292 0.0
C235 C 0.95982 0.79477 0.96281 0.0
C236 C 0.90393 0.7089 0.06115 0.0
C237 C 0.97997 0.75565 1.02028 0.0
C238 C 0.92228 0.69505 0.09024 0.0
C239 C 1.02742 0.70861 0.10871 0.0
C240 C 0.99126 0.73532 0.05082 0.0
C241 C 0.11051 0.7313 0.09754 0.0
C242 C 1.07055 0.78169 1.01143 0.0
C243 C 0.87111 0.76958 0.97235 0.0
N244 N 0.09079 0.74421 0.0695 0.0
N245 N 0.88315 0.75076 1.00044 0.0
H246 H 0.13662 0.58356 0.29546 0.0
H247 H 0.69383 0.76073 0.42117 0.0
H248 H 0.46225 0.80177 0.2831 0.0
H249 H 0.36845 0.63265 0.43151 0.0
H250 H 0.60872 0.75076 0.37136 0.0
H251 H 0.21915 0.57601 0.34636 0.0
C252 C 0.22538 0.62955 0.30343 0.0
C253 C 0.2926 0.69399 0.28499 0.0
C254 C 0.55597 0.72438 0.38459 0.0
C255 C 0.3873 0.68472 0.34305 0.0
C256 C 0.60453 0.73038 0.41305 0.0
C257 C 0.5386 0.69843 0.43068 0.0
C258 C 0.44035 0.68534 0.37356 0.0
C259 C 0.42283 0.6572 0.41892 0.0
C260 C 0.2723 0.62533 0.33244 0.0
C261 C 0.40708 0.75177 0.29649 0.0
N262 N 0.37747 0.65221 0.3911 0.0
N263 N 0.45073 0.74558 0.32474 0.0
H264 H 0.14592 0.44917 0.82641 0.0
H265 H 0.13264 0.65919 0.66473 0.0
H266 H 0.28117 0.78806 0.78793 0.0
H267 H 1.05455 0.32518 0.70605 0.0
H268 H 0.1966 0.70832 0.7103 0.0
H269 H 0.12173 0.40193 0.78351 0.0
C270 C 0.17185 0.51366 0.80905 0.0
C271 C 0.21485 0.62267 0.81066 0.0
C272 C 0.16631 0.62437 0.70945 0.0
C273 C 0.18627 0.56932 0.7614 0.0
C274 C 0.1301 0.5962 0.68338 0.0
C275 C 0.08726 0.48759 0.68139 0.0
C276 C 0.15884 0.5434 0.73382 0.0
C277 C 0.08458 0.40956 0.7064 0.0
C278 C 0.15814 0.4867 0.78458 0.0
C279 C 0.24827 0.70303 0.78768 0.0
N280 N 0.11897 0.43885 0.73152 0.0
N281 N 0.23187 0.67468 0.76388 0.0
loop_
_geom_bond_atom_site_label_1
_geom_bond_atom_site_label_2
_geom_bond_distance
_geom_bond_site_symmetry_2
_ccdc_geom_bond_type
La0 C2 2.928 . S
La0 O20 2.521 . S
La0 O21 2.628 . S
La0 O22 2.554 . S
La0 O23 2.757 1_655 S
La0 O24 2.470 1_655 S
La0 O29 2.482 . S
La0 O31 2.503 . S
La1 C11 2.928 . S
La1 O23 2.482 . S
La1 O25 2.503 . S
La1 O26 2.521 . S
La1 O27 2.628 . S
La1 O28 2.554 . S
La1 O29 2.757 1_455 S
La1 O30 2.470 1_455 S
C2 La0 2.928 . S
C2 C3 1.503 . S
C2 O20 1.261 . S
C2 O21 1.243 . S
C3 C2 1.503 . S
C3 C4 1.394 . S
C3 C8 1.373 . S
C4 C3 1.394 . S
C4 C5 1.380 . S
C4 H32 0.930 . S
C5 C4 1.380 . S
C5 C6 1.376 . S
C5 H33 0.930 . S
C6 C5 1.376 . S
C6 C7 1.370 . S
C7 C6 1.370 . S
C7 C8 1.396 . S
C7 H34 0.929 . S
C8 C3 1.373 . S
C8 C7 1.396 . S
C8 H35 0.929 . S
C9 O22 1.240 . S
C9 O23 1.289 1_655 S
C10 O24 1.258 . S
C10 O25 1.256 . S
C11 La1 2.928 . S
C11 C12 1.503 . S
C11 O26 1.261 . S
C11 O27 1.243 . S
C12 C11 1.503 . S
C12 C13 1.394 . S
C12 C17 1.373 . S
C13 C12 1.394 . S
C13 C14 1.380 . S
C13 H36 0.930 . S
C14 C13 1.380 . S
C14 C15 1.376 . S
C14 H37 0.930 . S
C15 C14 1.376 . S
C15 C16 1.370 1_565 S
C16 C15 1.370 1_545 S
C16 C17 1.396 1_545 S
C16 H38 0.929 . S
C17 C12 1.373 . S
C17 C16 1.396 1_565 S
C17 H39 0.929 1_565 S
C18 O28 1.240 . S
C18 O29 1.289 1_455 S
C19 O30 1.258 . S
C19 O31 1.256 . S
O20 La0 2.521 . S
O20 C2 1.261 . S
O21 La0 2.628 . S
O21 C2 1.243 . S
O22 La0 2.554 . S
O22 C9 1.240 . S
O23 La0 2.757 1_455 S
O23 La1 2.482 . S
O23 C9 1.289 1_455 S
O24 La0 2.470 1_455 S
O24 C10 1.258 . S
O25 La1 2.503 . S
O25 C10 1.256 . S
O26 La1 2.521 . S
O26 C11 1.261 . S
O27 La1 2.628 . S
O27 C11 1.243 . S
O28 La1 2.554 . S
O28 C18 1.240 . S
O29 La0 2.482 . S
O29 La1 2.757 1_655 S
O29 C18 1.289 1_655 S
O30 La1 2.470 1_655 S
O30 C19 1.258 . S
O31 La0 2.503 . S
O31 C19 1.256 . S
H32 C4 0.930 . S
H33 C5 0.930 . S
H34 C7 0.929 . S
H35 C8 0.929 . S
H36 C13 0.930 . S
H37 C14 0.930 . S
H38 C16 0.929 . S
H39 C17 0.929 1_545 S
La40 C42 2.928 . S
La40 O60 2.521 . S
La40 O61 2.628 . S
La40 O62 2.554 . S
La40 O63 2.757 1_545 S
La40 O64 2.466 1_545 S
La40 O69 2.482 . S
La40 O71 2.503 . S
La41 C51 2.928 . S
La41 O63 2.482 . S
La41 O65 2.503 . S
La41 O66 2.521 . S
La41 O67 2.628 . S
La41 O68 2.554 . S
La41 O69 2.757 1_565 S
La41 O70 2.470 1_565 S
C42 La40 2.928 . S
C42 C43 1.503 . S
C42 O60 1.261 . S
C42 O61 1.243 . S
C43 C42 1.503 . S
C43 C44 1.394 1_655 S
C43 C48 1.373 . S
C44 C43 1.394 1_455 S
C44 C45 1.380 . S
C44 H72 0.930 . S
C45 C44 1.380 . S
C45 C46 1.376 . S
C45 H73 0.930 . S
C46 C45 1.376 . S
C46 C47 1.370 1_455 S
C47 C46 1.370 1_655 S
C47 C48 1.396 . S
C47 H74 0.929 . S
C48 C43 1.373 . S
C48 C47 1.396 . S
C48 H75 0.929 . S
C49 O62 1.240 . S
C49 O63 1.289 1_545 S
C50 O64 1.262 . S
C50 O65 1.256 . S
C51 La41 2.928 . S
C51 C52 1.503 . S
C51 O66 1.261 . S
C51 O67 1.243 . S
C52 C51 1.503 . S
C52 C53 1.394 . S
C52 C57 1.373 . S
C53 C52 1.394 . S
C53 C54 1.380 . S
C53 H76 0.930 . S
C54 C53 1.380 . S
C54 C55 1.376 . S
C54 H77 0.930 . S
C55 C54 1.376 . S
C55 C56 1.370 . S
C56 C55 1.370 . S
C56 C57 1.396 . S
C56 H78 0.929 . S
C57 C52 1.373 . S
C57 C56 1.396 . S
C57 H79 0.929 . S
C58 O68 1.240 . S
C58 O69 1.289 1_565 S
C59 O70 1.258 . S
C59 O71 1.256 . S
O60 La40 2.521 . S
O60 C42 1.261 . S
O61 La40 2.628 . S
O61 C42 1.243 . S
O62 La40 2.554 . S
O62 C49 1.240 . S
O63 La40 2.757 1_565 S
O63 La41 2.482 . S
O63 C49 1.289 1_565 S
O64 La40 2.466 1_565 S
O64 C50 1.262 . S
O65 La41 2.503 . S
O65 C50 1.256 . S
O66 La41 2.521 . S
O66 C51 1.261 . S
O67 La41 2.628 . S
O67 C51 1.243 . S
O68 La41 2.554 . S
O68 C58 1.240 . S
O69 La40 2.482 . S
O69 La41 2.757 1_545 S
O69 C58 1.289 1_545 S
O70 La41 2.470 1_545 S
O70 C59 1.258 . S
O71 La40 2.503 . S
O71 C59 1.256 . S
H72 C44 0.930 . S
H73 C45 0.930 . S
H74 C47 0.929 . S
H75 C48 0.929 . S
H76 C53 0.930 . S
H77 C54 0.930 . S
H78 C56 0.929 . S
H79 C57 0.929 . S
La80 C82 2.928 . S
La80 O100 2.521 . S
La80 O101 2.628 1_545 S
La80 O102 2.554 1_655 S
La80 O103 2.757 1_655 S
La80 O104 2.470 1_545 S
La80 O109 2.482 1_545 S
La80 O111 2.503 . S
La81 C91 2.928 1_655 S
La81 O103 2.482 1_665 S
La81 O105 2.503 . S
La81 O106 2.521 . S
La81 O107 2.628 1_655 S
La81 O108 2.554 . S
La81 O109 2.757 . S
La81 O110 2.470 . S
C82 La80 2.928 . S
C82 C83 1.503 . S
C82 O100 1.261 . S
C82 O101 1.243 1_545 S
C83 C82 1.503 . S
C83 C84 1.394 . S
C83 C88 1.373 1_545 S
C84 C83 1.394 . S
C84 C85 1.380 . S
C84 H112 0.930 . S
C85 C84 1.380 . S
C85 C86 1.376 . S
C85 H113 0.930 . S
C86 C85 1.376 . S
C86 C87 1.370 . S
C87 C86 1.370 . S
C87 C88 1.396 1_545 S
C87 H114 0.929 1_545 S
C88 C83 1.373 1_565 S
C88 C87 1.396 1_565 S
C88 H115 0.929 . S
C89 O102 1.240 . S
C89 O103 1.289 . S
C90 O104 1.258 . S
C90 O105 1.256 . S
C91 La81 2.928 1_455 S
C91 C92 1.503 . S
C91 O106 1.261 1_455 S
C91 O107 1.243 . S
C92 C91 1.503 . S
C92 C93 1.394 . S
C92 C97 1.373 . S
C93 C92 1.394 . S
C93 C94 1.380 . S
C93 H116 0.930 1_455 S
C94 C93 1.380 . S
C94 C95 1.376 . S
C94 H117 0.930 . S
C95 C94 1.376 . S
C95 C96 1.370 . S
C96 C95 1.370 . S
C96 C97 1.396 . S
C96 H118 0.929 . S
C97 C92 1.373 . S
C97 C96 1.396 . S
C97 H119 0.929 . S
C98 O108 1.240 . S
C98 O109 1.289 . S
C99 O110 1.258 . S
C99 O111 1.256 1_565 S
O100 La80 2.521 . S
O100 C82 1.261 . S
O101 La80 2.628 1_565 S
O101 C82 1.243 1_565 S
O102 La80 2.554 1_455 S
O102 C89 1.240 . S
O103 La80 2.757 1_455 S
O103 La81 2.482 1_445 S
O103 C89 1.289 . S
O104 La80 2.470 1_565 S
O104 C90 1.258 . S
O105 La81 2.503 . S
O105 C90 1.256 . S
O106 La81 2.521 . S
O106 C91 1.261 1_655 S
O107 La81 2.628 1_455 S
O107 C91 1.243 . S
O108 La81 2.554 . S
O108 C98 1.240 . S
O109 La80 2.482 1_565 S
O109 La81 2.757 . S
O109 C98 1.289 . S
O110 La81 2.470 . S
O110 C99 1.258 . S
O111 La80 2.503 . S
O111 C99 1.256 1_545 S
H112 C84 0.930 . S
H113 C85 0.930 . S
H114 C87 0.929 1_565 S
H115 C88 0.929 . S
H116 C93 0.930 1_655 S
H117 C94 0.930 . S
H118 C96 0.929 . S
H119 C97 0.929 . S
H120 C126 0.930 . S
H121 C130 0.930 . S
H122 C135 0.924 1_565 S
H123 C133 0.929 . S
H124 C128 0.929 . S
H125 C134 0.929 . S
C126 H120 0.930 . S
C126 C127 1.367 1_545 S
C126 C134 1.378 . S
C127 C126 1.367 1_565 S
C127 C135 1.427 1_465 S
C128 H124 0.929 . S
C128 C130 1.378 . S
C128 C132 1.350 . S
C129 C132 1.463 1_455 S
C129 C134 1.350 . S
C129 N137 1.427 1_455 S
C130 H121 0.930 . S
C130 C128 1.378 . S
C130 C131 1.367 . S
C131 C130 1.367 . S
C131 C133 1.433 1_655 S
C132 C128 1.350 . S
C132 C129 1.463 1_655 S
C132 N136 1.427 1_655 S
C133 H123 0.929 . S
C133 C131 1.433 1_455 S
C133 N136 1.384 . S
C134 H125 0.929 . S
C134 C126 1.378 . S
C134 C129 1.350 . S
C135 H122 0.924 1_545 S
C135 C127 1.427 1_645 S
C135 N137 1.395 . S
N136 C132 1.427 1_455 S
N136 C133 1.384 . S
N137 C129 1.427 1_655 S
N137 C135 1.395 . S
H138 C144 0.930 . S
H139 C148 0.930 1_655 S
H140 C153 0.929 . S
H141 C151 0.929 . S
H142 C146 0.929 . S
H143 C152 0.929 . S
C144 H138 0.930 . S
C144 C145 1.367 . S
C144 C152 1.378 . S
C145 C144 1.367 . S
C145 C153 1.433 1_545 S
C146 H142 0.929 . S
C146 C148 1.378 . S
C146 C150 1.350 1_565 S
C147 C150 1.463 . S
C147 C152 1.350 . S
C147 N155 1.427 1_545 S
C148 H139 0.930 1_455 S
C148 C146 1.378 . S
C148 C149 1.367 1_565 S
C149 C148 1.367 1_545 S
C149 C151 1.433 . S
C150 C146 1.350 1_545 S
C150 C147 1.463 . S
C150 N154 1.427 . S
C151 H141 0.929 . S
C151 C149 1.433 . S
C151 N154 1.384 . S
C152 H143 0.929 . S
C152 C144 1.378 . S
C152 C147 1.350 . S
C153 H140 0.929 . S
C153 C145 1.433 1_565 S
C153 N155 1.384 . S
N154 C150 1.427 . S
N154 C151 1.384 . S
N155 C147 1.427 1_565 S
N155 C153 1.384 . S
H156 C162 0.930 . S
H157 C166 0.930 . S
H158 C171 0.929 . S
H159 C169 0.929 . S
H160 C164 0.929 . S
H161 C170 0.929 . S
C162 H156 0.930 . S
C162 C163 1.367 . S
C162 C170 1.378 . S
C163 C162 1.367 . S
C163 C171 1.433 . S
C164 H160 0.929 . S
C164 C166 1.378 . S
C164 C168 1.350 . S
C165 C168 1.463 . S
C165 C170 1.350 . S
C165 N173 1.427 . S
C166 H157 0.930 . S
C166 C164 1.378 . S
C166 C167 1.367 . S
C167 C166 1.367 . S
C167 C169 1.433 . S
C168 C164 1.350 . S
C168 C165 1.463 . S
C168 N172 1.427 . S
C169 H159 0.929 . S
C169 C167 1.433 . S
C169 N172 1.384 . S
C170 H161 0.929 . S
C170 C162 1.378 . S
C170 C165 1.350 . S
C171 H158 0.929 . S
C171 C163 1.433 . S
C171 N173 1.384 . S
N172 C168 1.427 . S
N172 C169 1.384 . S
N173 C165 1.427 . S
N173 C171 1.384 . S
H174 C180 0.930 . S
H175 C184 0.930 . S
H176 C189 0.929 1_565 S
H177 C187 0.929 . S
H178 C182 0.929 . S
H179 C188 0.929 . S
C180 H174 0.930 . S
C180 C181 1.367 . S
C180 C188 1.378 . S
C181 C180 1.367 . S
C181 C189 1.433 . S
C182 H178 0.929 . S
C182 C184 1.378 . S
C182 C186 1.350 1_564 S
C183 C186 1.463 . S
C183 C188 1.350 . S
C183 N191 1.427 . S
C184 H175 0.930 . S
C184 C182 1.378 . S
C184 C185 1.367 1_565 S
C185 C184 1.367 1_545 S
C185 C187 1.433 1_554 S
C186 C182 1.350 1_546 S
C186 C183 1.463 . S
C186 N190 1.427 . S
C187 H177 0.929 . S
C187 C185 1.433 1_556 S
C187 N190 1.384 . S
C188 H179 0.929 . S
C188 C180 1.378 . S
C188 C183 1.350 . S
C189 H176 0.929 1_545 S
C189 C181 1.433 . S
C189 N191 1.384 . S
N190 C186 1.427 . S
N190 C187 1.384 . S
N191 C183 1.427 . S
N191 C189 1.384 . S
H192 C198 0.930 . S
H193 C202 0.930 . S
H194 C207 0.929 . S
H195 C205 0.929 . S
H196 C200 0.929 . S
H197 C206 0.929 . S
C198 H192 0.930 . S
C198 C199 1.367 . S
C198 C206 1.378 . S
C199 C198 1.367 . S
C199 C207 1.433 . S
C200 H196 0.929 . S
C200 C202 1.378 . S
C200 C204 1.350 . S
C201 C204 1.463 . S
C201 C206 1.350 . S
C201 N209 1.427 . S
C202 H193 0.930 . S
C202 C200 1.378 . S
C202 C203 1.367 . S
C203 C202 1.367 . S
C203 C205 1.433 . S
C204 C200 1.350 . S
C204 C201 1.463 . S
C204 N208 1.427 . S
C205 H195 0.929 . S
C205 C203 1.433 . S
C205 N208 1.384 . S
C206 H197 0.929 . S
C206 C198 1.378 . S
C206 C201 1.350 . S
C207 H194 0.929 . S
C207 C199 1.433 . S
C207 N209 1.384 . S
N208 C204 1.427 . S
N208 C205 1.384 . S
N209 C201 1.427 . S
N209 C207 1.384 . S
H210 C216 0.930 . S
H211 C220 0.930 . S
H212 C225 0.929 . S
H213 C223 0.929 1_545 S
H214 C218 0.929 . S
H215 C224 0.929 . S
C216 H210 0.930 . S
C216 C217 1.367 1_545 S
C216 C224 1.378 . S
C217 C216 1.367 1_565 S
C217 C225 1.433 . S
C218 H214 0.929 . S
C218 C220 1.378 . S
C218 C222 1.350 . S
C219 C222 1.463 . S
C219 C224 1.350 1_565 S
C219 N227 1.427 . S
C220 H211 0.930 . S
C220 C218 1.378 . S
C220 C221 1.367 . S
C221 C220 1.367 . S
C221 C223 1.433 . S
C222 C218 1.350 . S
C222 C219 1.463 . S
C222 N226 1.427 . S
C223 H213 0.929 1_565 S
C223 C221 1.433 . S
C223 N226 1.384 . S
C224 H215 0.929 . S
C224 C216 1.378 . S
C224 C219 1.350 1_545 S
C225 H212 0.929 . S
C225 C217 1.433 . S
C225 N227 1.384 . S
N226 C222 1.427 . S
N226 C223 1.384 . S
N227 C219 1.427 . S
N227 C225 1.384 . S
H228 C234 0.930 . S
H229 C238 0.930 . S
H230 C243 0.929 . S
H231 C241 0.929 . S
H232 C236 0.929 1_556 S
H233 C242 0.929 . S
C234 H228 0.930 . S
C234 C235 1.367 . S
C234 C242 1.378 . S
C235 C234 1.367 . S
C235 C243 1.433 . S
C236 H232 0.929 1_554 S
C236 C238 1.378 . S
C236 C240 1.350 . S
C237 C240 1.463 1_556 S
C237 C242 1.350 . S
C237 N245 1.427 . S
C238 H229 0.930 . S
C238 C236 1.378 . S
C238 C239 1.367 . S
C239 C238 1.367 . S
C239 C241 1.433 . S
C240 C236 1.350 . S
C240 C237 1.463 1_554 S
C240 N244 1.427 . S
C241 H231 0.929 . S
C241 C239 1.433 . S
C241 N244 1.384 . S
C242 H233 0.929 . S
C242 C234 1.378 . S
C242 C237 1.350 . S
C243 H230 0.929 . S
C243 C235 1.433 . S
C243 N245 1.384 . S
N244 C240 1.427 . S
N244 C241 1.384 . S
N245 C237 1.427 . S
N245 C243 1.384 . S
H246 C252 0.930 . S
H247 C256 0.930 . S
H248 C261 0.929 . S
H249 C259 0.929 . S
H250 C254 0.929 . S
H251 C260 0.929 . S
C252 H246 0.930 . S
C252 C253 1.367 . S
C252 C260 1.378 . S
C253 C252 1.367 . S
C253 C261 1.433 . S
C254 H250 0.929 . S
C254 C256 1.378 . S
C254 C258 1.350 . S
C255 C258 1.463 . S
C255 C260 1.350 . S
C255 N263 1.427 . S
C256 H247 0.930 . S
C256 C254 1.378 . S
C256 C257 1.367 . S
C257 C256 1.367 . S
C257 C259 1.433 . S
C258 C254 1.350 . S
C258 C255 1.463 . S
C258 N262 1.427 . S
C259 H249 0.929 . S
C259 C257 1.433 . S
C259 N262 1.384 . S
C260 H251 0.929 . S
C260 C252 1.378 . S
C260 C255 1.350 . S
C261 H248 0.929 . S
C261 C253 1.433 . S
C261 N263 1.384 . S
N262 C258 1.427 . S
N262 C259 1.384 . S
N263 C255 1.427 . S
N263 C261 1.384 . S
H264 C270 0.930 . S
H265 C274 0.930 . S
H266 C279 0.929 . S
H267 C277 0.929 1_655 S
H268 C272 0.929 . S
H269 C278 0.929 . S
C270 H264 0.930 . S
C270 C271 1.367 . S
C270 C278 1.378 . S
C271 C270 1.367 . S
C271 C279 1.433 . S
C272 H268 0.929 . S
C272 C274 1.378 . S
C272 C276 1.350 . S
C273 C276 1.463 . S
C273 C278 1.350 . S
C273 N281 1.427 . S
C274 H265 0.930 . S
C274 C272 1.378 . S
C274 C275 1.367 . S
C275 C274 1.367 . S
C275 C277 1.433 . S
C276 C272 1.350 . S
C276 C273 1.463 . S
C276 N280 1.427 . S
C277 H267 0.929 1_455 S
C277 C275 1.433 . S
C277 N280 1.384 . S
C278 H269 0.929 . S
C278 C270 1.378 . S
C278 C273 1.350 . S
C279 H266 0.929 . S
C279 C271 1.433 . S
C279 N281 1.384 . S
N280 C276 1.427 . S
N280 C277 1.384 . S
N281 C273 1.427 . S
N281 C279 1.384 . S
C127 C9 1.580 1_455 S
C131 C18 1.580 1_655 S
C145 C58 1.667 1_545 S
C149 C49 1.667 1_455 S
C163 C89 1.351 . S
C167 C98 1.351 . S
C181 C86 0.976 . S
C185 C15 0.968 1_545 S
C199 C59 1.950 . S
C203 C6 1.900 . S
C217 C99 2.445 . S
C221 C50 2.457 . S
C235 C90 2.382 . S
C239 C19 2.322 . S
C253 C10 1.772 . S
C257 C55 1.672 . S
C271 C95 0.948 . S
C275 C46 0.966 . S
