# Generated by pormake.
# Topology dei, (4)-cn, num edge types: 1
# Building blocks:
#     Node 0, Type 0, BuildingBlock: GALJAG_clean_sbu_0, # of connection points: 4
#     Node 1, Type 0, BuildingBlock: GALJAG_clean_sbu_0, # of connection points: 4
#     Node 2, Type 0, BuildingBlock: GALJAG_clean_sbu_0, # of connection points: 4
#     Node 3, Type 0, BuildingBlock: GALJAG_clean_sbu_0, # of connection points: 4
#     Node 4, Type 0, BuildingBlock: GALJAG_clean_sbu_0, # of connection points: 4
#     Node 5, Type 0, BuildingBlock: GALJAG_clean_sbu_0, # of connection points: 4
#     Node 6, Type 0, BuildingBlock: GALJAG_clean_sbu_0, # of connection points: 4
#     Node 7, Type 0, BuildingBlock: GALJAG_clean_sbu_0, # of connection points: 4
#     Node 8, Type 0, BuildingBlock: GALJAG_clean_sbu_0, # of connection points: 4
#     Node 9, Type 0, BuildingBlock: GALJAG_clean_sbu_0, # of connection points: 4
#     Node 10, Type 0, BuildingBlock: GALJAG_clean_sbu_0, # of connection points: 4
#     Node 11, Type 0, BuildingBlock: GALJAG_clean_sbu_0, # of connection points: 4
#     Node 12, Type 0, BuildingBlock: GALJAG_clean_sbu_0, # of connection points: 4
#     Node 13, Type 0, BuildingBlock: GALJAG_clean_sbu_0, # of connection points: 4
#     Node 14, Type 0, BuildingBlock: GALJAG_clean_sbu_0, # of connection points: 4
#     Node 15, Type 0, BuildingBlock: GALJAG_clean_sbu_0, # of connection points: 4
#     Node 16, Type 0, BuildingBlock: GALJAG_clean_sbu_0, # of connection points: 4
#     Node 17, Type 0, BuildingBlock: GALJAG_clean_sbu_0, # of connection points: 4
#     Node 18, Type 0, BuildingBlock: GALJAG_clean_sbu_0, # of connection points: 4
#     Node 19, Type 0, BuildingBlock: GALJAG_clean_sbu_0, # of connection points: 4
#     Node 20, Type 0, BuildingBlock: GALJAG_clean_sbu_0, # of connection points: 4
#     Node 21, Type 0, BuildingBlock: GALJAG_clean_sbu_0, # of connection points: 4
#     Node 22, Type 0, BuildingBlock: GALJAG_clean_sbu_0, # of connection points: 4
#     Node 23, Type 0, BuildingBlock: GALJAG_clean_sbu_0, # of connection points: 4
#     Node 24, Type 0, BuildingBlock: GALJAG_clean_sbu_0, # of connection points: 4
#     Node 25, Type 0, BuildingBlock: GALJAG_clean_sbu_0, # of connection points: 4
#     Node 26, Type 0, BuildingBlock: GALJAG_clean_sbu_0, # of connection points: 4
#     Node 27, Type 0, BuildingBlock: GALJAG_clean_sbu_0, # of connection points: 4
#     Node 28, Type 0, BuildingBlock: GALJAG_clean_sbu_0, # of connection points: 4
#     Node 29, Type 0, BuildingBlock: GALJAG_clean_sbu_0, # of connection points: 4
#     Node 30, Type 0, BuildingBlock: GALJAG_clean_sbu_0, # of connection points: 4
#     Node 31, Type 0, BuildingBlock: GALJAG_clean_sbu_0, # of connection points: 4
#     Edge 32, Type (0, 0), BuildingBlock: UVAHIK_clean_linker_0, # of connection points: 2
#     Edge 33, Type (0, 0), BuildingBlock: UVAHIK_clean_linker_0, # of connection points: 2
#     Edge 34, Type (0, 0), BuildingBlock: UVAHIK_clean_linker_0, # of connection points: 2
#     Edge 35, Type (0, 0), BuildingBlock: UVAHIK_clean_linker_0, # of connection points: 2
#     Edge 36, Type (0, 0), BuildingBlock: UVAHIK_clean_linker_0, # of connection points: 2
#     Edge 37, Type (0, 0), BuildingBlock: UVAHIK_clean_linker_0, # of connection points: 2
#     Edge 38, Type (0, 0), BuildingBlock: UVAHIK_clean_linker_0, # of connection points: 2
#     Edge 39, Type (0, 0), BuildingBlock: UVAHIK_clean_linker_0, # of connection points: 2
#     Edge 40, Type (0, 0), BuildingBlock: UVAHIK_clean_linker_0, # of connection points: 2
#     Edge 41, Type (0, 0), BuildingBlock: UVAHIK_clean_linker_0, # of connection points: 2
#     Edge 42, Type (0, 0), BuildingBlock: UVAHIK_clean_linker_0, # of connection points: 2
#     Edge 43, Type (0, 0), BuildingBlock: UVAHIK_clean_linker_0, # of connection points: 2
#     Edge 44, Type (0, 0), BuildingBlock: UVAHIK_clean_linker_0, # of connection points: 2
#     Edge 45, Type (0, 0), BuildingBlock: UVAHIK_clean_linker_0, # of connection points: 2
#     Edge 46, Type (0, 0), BuildingBlock: UVAHIK_clean_linker_0, # of connection points: 2
#     Edge 47, Type (0, 0), BuildingBlock: UVAHIK_clean_linker_0, # of connection points: 2
#     Edge 48, Type (0, 0), BuildingBlock: UVAHIK_clean_linker_0, # of connection points: 2
#     Edge 49, Type (0, 0), BuildingBlock: UVAHIK_clean_linker_0, # of connection points: 2
#     Edge 50, Type (0, 0), BuildingBlock: UVAHIK_clean_linker_0, # of connection points: 2
#     Edge 51, Type (0, 0), BuildingBlock: UVAHIK_clean_linker_0, # of connection points: 2
#     Edge 52, Type (0, 0), BuildingBlock: UVAHIK_clean_linker_0, # of connection points: 2
#     Edge 53, Type (0, 0), BuildingBlock: UVAHIK_clean_linker_0, # of connection points: 2
#     Edge 54, Type (0, 0), BuildingBlock: UVAHIK_clean_linker_0, # of connection points: 2
#     Edge 55, Type (0, 0), BuildingBlock: UVAHIK_clean_linker_0, # of connection points: 2
#     Edge 56, Type (0, 0), BuildingBlock: UVAHIK_clean_linker_0, # of connection points: 2
#     Edge 57, Type (0, 0), BuildingBlock: UVAHIK_clean_linker_0, # of connection points: 2
#     Edge 58, Type (0, 0), BuildingBlock: UVAHIK_clean_linker_0, # of connection points: 2
#     Edge 59, Type (0, 0), BuildingBlock: UVAHIK_clean_linker_0, # of connection points: 2
#     Edge 60, Type (0, 0), BuildingBlock: UVAHIK_clean_linker_0, # of connection points: 2
#     Edge 61, Type (0, 0), BuildingBlock: UVAHIK_clean_linker_0, # of connection points: 2
#     Edge 62, Type (0, 0), BuildingBlock: UVAHIK_clean_linker_0, # of connection points: 2
#     Edge 63, Type (0, 0), BuildingBlock: UVAHIK_clean_linker_0, # of connection points: 2
#     Edge 64, Type (0, 0), BuildingBlock: UVAHIK_clean_linker_0, # of connection points: 2
#     Edge 65, Type (0, 0), BuildingBlock: UVAHIK_clean_linker_0, # of connection points: 2
#     Edge 66, Type (0, 0), BuildingBlock: UVAHIK_clean_linker_0, # of connection points: 2
#     Edge 67, Type (0, 0), BuildingBlock: UVAHIK_clean_linker_0, # of connection points: 2
#     Edge 68, Type (0, 0), BuildingBlock: UVAHIK_clean_linker_0, # of connection points: 2
#     Edge 69, Type (0, 0), BuildingBlock: UVAHIK_clean_linker_0, # of connection points: 2
#     Edge 70, Type (0, 0), BuildingBlock: UVAHIK_clean_linker_0, # of connection points: 2
#     Edge 71, Type (0, 0), BuildingBlock: UVAHIK_clean_linker_0, # of connection points: 2
#     Edge 72, Type (0, 0), BuildingBlock: UVAHIK_clean_linker_0, # of connection points: 2
#     Edge 73, Type (0, 0), BuildingBlock: UVAHIK_clean_linker_0, # of connection points: 2
#     Edge 74, Type (0, 0), BuildingBlock: UVAHIK_clean_linker_0, # of connection points: 2
#     Edge 75, Type (0, 0), BuildingBlock: UVAHIK_clean_linker_0, # of connection points: 2
#     Edge 76, Type (0, 0), BuildingBlock: UVAHIK_clean_linker_0, # of connection points: 2
#     Edge 77, Type (0, 0), BuildingBlock: UVAHIK_clean_linker_0, # of connection points: 2
#     Edge 78, Type (0, 0), BuildingBlock: UVAHIK_clean_linker_0, # of connection points: 2
#     Edge 79, Type (0, 0), BuildingBlock: UVAHIK_clean_linker_0, # of connection points: 2
#     Edge 80, Type (0, 0), BuildingBlock: UVAHIK_clean_linker_0, # of connection points: 2
#     Edge 81, Type (0, 0), BuildingBlock: UVAHIK_clean_linker_0, # of connection points: 2
#     Edge 82, Type (0, 0), BuildingBlock: UVAHIK_clean_linker_0, # of connection points: 2
#     Edge 83, Type (0, 0), BuildingBlock: UVAHIK_clean_linker_0, # of connection points: 2
#     Edge 84, Type (0, 0), BuildingBlock: UVAHIK_clean_linker_0, # of connection points: 2
#     Edge 85, Type (0, 0), BuildingBlock: UVAHIK_clean_linker_0, # of connection points: 2
#     Edge 86, Type (0, 0), BuildingBlock: UVAHIK_clean_linker_0, # of connection points: 2
#     Edge 87, Type (0, 0), BuildingBlock: UVAHIK_clean_linker_0, # of connection points: 2
#     Edge 88, Type (0, 0), BuildingBlock: UVAHIK_clean_linker_0, # of connection points: 2
#     Edge 89, Type (0, 0), BuildingBlock: UVAHIK_clean_linker_0, # of connection points: 2
#     Edge 90, Type (0, 0), BuildingBlock: UVAHIK_clean_linker_0, # of connection points: 2
#     Edge 91, Type (0, 0), BuildingBlock: UVAHIK_clean_linker_0, # of connection points: 2
#     Edge 92, Type (0, 0), BuildingBlock: UVAHIK_clean_linker_0, # of connection points: 2
#     Edge 93, Type (0, 0), BuildingBlock: UVAHIK_clean_linker_0, # of connection points: 2
#     Edge 94, Type (0, 0), BuildingBlock: UVAHIK_clean_linker_0, # of connection points: 2
#     Edge 95, Type (0, 0), BuildingBlock: UVAHIK_clean_linker_0, # of connection points: 2
# Relax obj value: 0.293
# Max RMSD: 0.107
# Mean RMSD: 0.107
data_MOF--net-dei--node1-GALJAG_clean_sbu_0--edge1-UVAHIK_clean_linker_0
_symmetry_space_group_name_H-M    P1
_symmetry_Int_Tables_number       1
_symmetry_cell_setting            triclinic
loop_
_symmetry_equiv_pos_as_xyz
'x, y, z'
_cell_length_a     73.897784
_cell_length_b     74.013423
_cell_length_c     105.25708
_cell_angle_alpha  89.978382
_cell_angle_beta   89.991533
_cell_angle_gamma 89.962695
loop_
_atom_site_label
_atom_site_type_symbol
_atom_site_fract_x
_atom_site_fract_y
_atom_site_fract_z
_atom_type_partial_charge
In0 In 0.13472 0.62191 0.03127 0.0
O1 O 0.14441 0.60657 0.0135 0.0
O2 O 0.15344 0.59731 0.03142 0.0
C3 C 0.14084 0.65763 0.0272 0.0
C4 C 0.10043 0.61407 0.02433 0.0
C5 C 0.13816 0.62009 0.05676 0.0
O6 O 0.15222 0.64574 0.02389 0.0
O7 O 0.12683 0.6514 0.03241 0.0
O8 O 0.12373 0.6163 0.05097 0.0
O9 O 0.1511 0.62495 0.04968 0.0
C10 C 0.15303 0.59469 0.01961 0.0
O11 O 0.10855 0.60604 0.03322 0.0
O12 O 0.1097 0.62596 0.01872 0.0
In13 In 0.63178 0.88394 0.28195 0.0
O14 O 0.6202 0.87628 0.30117 0.0
O15 O 0.63669 0.89982 0.30029 0.0
C16 C 0.63636 0.84801 0.2785 0.0
C17 C 0.59961 0.89616 0.27271 0.0
C18 C 0.66422 0.8971 0.27404 0.0
O19 O 0.63428 0.85525 0.28921 0.0
O20 O 0.63628 0.85894 0.26928 0.0
O21 O 0.65017 0.89839 0.26726 0.0
O22 O 0.66169 0.88963 0.28462 0.0
C23 C 0.62764 0.88907 0.30713 0.0
O24 O 0.60985 0.90591 0.27941 0.0
O25 O 0.60605 0.88084 0.27015 0.0
In26 In 0.37261 0.38418 0.5307 0.0
O27 O 0.40023 0.3968 0.53389 0.0
O28 O 0.3965 0.38152 0.51699 0.0
C29 C 0.3703 0.38459 0.55632 0.0
C30 C 0.35539 0.41289 0.51986 0.0
C31 C 0.36492 0.34904 0.5255 0.0
O32 O 0.38434 0.3891 0.55032 0.0
O33 O 0.35723 0.37967 0.54941 0.0
O34 O 0.35293 0.36121 0.52496 0.0
O35 O 0.38039 0.35467 0.52853 0.0
C36 C 0.40712 0.39077 0.52377 0.0
O37 O 0.36354 0.40106 0.51343 0.0
O38 O 0.35494 0.40963 0.53158 0.0
In39 In 0.87571 0.12101 0.77982 0.0
O40 O 0.87932 0.13493 0.79895 0.0
O41 O 0.87126 0.10736 0.79905 0.0
C42 C 0.87602 0.15632 0.77303 0.0
C43 C 0.90668 0.10424 0.77223 0.0
C44 C 0.84383 0.10683 0.77169 0.0
O45 O 0.86256 0.14621 0.77115 0.0
O46 O 0.88934 0.14858 0.77815 0.0
O47 O 0.85799 0.10612 0.76497 0.0
O48 O 0.84603 0.11415 0.78237 0.0
C49 C 0.87495 0.1213 0.80546 0.0
O50 O 0.89809 0.11508 0.76522 0.0
O51 O 0.89901 0.10093 0.78266 0.0
In52 In 0.13602 0.3809 0.96708 0.0
O53 O 0.1072 0.38496 0.96018 0.0
O54 O 0.11139 0.38472 0.98013 0.0
C55 C 0.14156 0.37571 0.94204 0.0
C56 C 0.14923 0.41344 0.97463 0.0
C57 C 0.14829 0.34902 0.97666 0.0
O58 O 0.12869 0.3684 0.94801 0.0
O59 O 0.15201 0.38522 0.94878 0.0
O60 O 0.15832 0.35955 0.97038 0.0
O61 O 0.13259 0.355 0.9786 0.0
C62 C 0.10027 0.38618 0.97108 0.0
O63 O 0.15086 0.39948 0.98145 0.0
O64 O 0.14143 0.41075 0.96419 0.0
In65 In 0.87649 0.88654 0.21912 0.0
O66 O 0.89818 0.90875 0.2211 0.0
O67 O 0.90209 0.8843 0.23117 0.0
C68 C 0.8466 0.90208 0.22961 0.0
C69 C 0.87426 0.88932 0.19358 0.0
C70 C 0.87711 0.85025 0.22196 0.0
O71 O 0.85916 0.89543 0.23624 0.0
O72 O 0.84959 0.90175 0.21785 0.0
O73 O 0.8877 0.85861 0.21463 0.0
O74 O 0.86622 0.8602 0.22799 0.0
C75 C 0.90839 0.89953 0.2282 0.0
O76 O 0.86473 0.87849 0.19997 0.0
O77 O 0.88491 0.89893 0.20009 0.0
In78 In 0.37142 0.62773 0.46763 0.0
O79 O 0.35541 0.60897 0.48111 0.0
O80 O 0.37128 0.59711 0.46651 0.0
C81 C 0.35648 0.65831 0.47745 0.0
C82 C 0.40768 0.62833 0.47116 0.0
C83 C 0.36592 0.62846 0.44226 0.0
O84 O 0.34898 0.64927 0.46878 0.0
O85 O 0.37076 0.65129 0.48171 0.0
O86 O 0.37795 0.63764 0.44776 0.0
O87 O 0.35618 0.6191 0.44961 0.0
C88 C 0.3608 0.59462 0.47578 0.0
O89 O 0.39992 0.63554 0.4618 0.0
O90 O 0.39714 0.6208 0.47897 0.0
In91 In 0.63127 0.11945 0.71924 0.0
O92 O 0.6089 0.09781 0.72076 0.0
O93 O 0.60599 0.12154 0.73174 0.0
C94 C 0.6609 0.10315 0.72959 0.0
C95 C 0.63455 0.1174 0.69373 0.0
C96 C 0.6308 0.15579 0.72168 0.0
O97 O 0.64978 0.11211 0.73614 0.0
O98 O 0.65647 0.10153 0.71811 0.0
O99 O 0.62023 0.14733 0.71441 0.0
O100 O 0.64161 0.14591 0.72785 0.0
C101 C 0.5991 0.1068 0.72827 0.0
O102 O 0.6445 0.12733 0.7005 0.0
O103 O 0.62291 0.10839 0.69982 0.0
In104 In 0.87189 0.3792 0.96735 0.0
O105 O 0.87916 0.36706 0.94814 0.0
O106 O 0.85543 0.38328 0.94921 0.0
C107 C 0.90755 0.38508 0.97122 0.0
C108 C 0.86042 0.34703 0.97693 0.0
C109 C 0.85835 0.41155 0.97506 0.0
O110 O 0.90058 0.38377 0.96034 0.0
O111 O 0.89652 0.3834 0.9803 0.0
O112 O 0.85717 0.39758 0.98193 0.0
O113 O 0.86585 0.40895 0.9645 0.0
C114 C 0.86598 0.3741 0.94232 0.0
O115 O 0.84997 0.35757 0.971 0.0
O116 O 0.87614 0.35314 0.97853 0.0
In117 In 0.376 0.12106 0.71911 0.0
O118 O 0.38812 0.12649 0.69966 0.0
O119 O 0.3679 0.10614 0.7009 0.0
C120 C 0.3744 0.15724 0.72246 0.0
C121 C 0.40738 0.10744 0.72876 0.0
C122 C 0.34291 0.10986 0.72719 0.0
O123 O 0.37819 0.14988 0.71202 0.0
O124 O 0.37148 0.14633 0.73146 0.0
O125 O 0.35732 0.10472 0.73259 0.0
O126 O 0.34538 0.12023 0.71788 0.0
C127 C 0.37849 0.11508 0.69388 0.0
O128 O 0.39768 0.09879 0.721 0.0
O129 O 0.40066 0.12228 0.73224 0.0
In130 In 0.63863 0.62343 0.47057 0.0
O131 O 0.63 0.6094 0.45222 0.0
O132 O 0.64969 0.63023 0.4509 0.0
C133 C 0.60222 0.62486 0.47261 0.0
C134 C 0.65102 0.6557 0.47951 0.0
C135 C 0.65531 0.5945 0.48153 0.0
O136 O 0.61114 0.63558 0.46571 0.0
O137 O 0.61167 0.61341 0.47854 0.0
O138 O 0.64385 0.6041 0.48726 0.0
O139 O 0.65918 0.6001 0.47057 0.0
C140 C 0.64014 0.61871 0.44514 0.0
O141 O 0.65877 0.64717 0.4707 0.0
O142 O 0.63775 0.64749 0.48429 0.0
In143 In 0.12954 0.88654 0.2167 0.0
O144 O 0.11617 0.88363 0.19734 0.0
O145 O 0.13804 0.90214 0.19892 0.0
C146 C 0.13119 0.85011 0.21884 0.0
C147 C 0.09892 0.90016 0.22741 0.0
C148 C 0.16263 0.89744 0.22479 0.0
O149 O 0.12619 0.85808 0.20888 0.0
O150 O 0.1354 0.86049 0.22787 0.0
O151 O 0.14844 0.90072 0.23111 0.0
O152 O 0.15995 0.88901 0.21458 0.0
C153 C 0.12645 0.89473 0.19181 0.0
O154 O 0.10872 0.90927 0.21997 0.0
O155 O 0.10517 0.88477 0.23001 0.0
In156 In 0.87361 0.62043 0.03122 0.0
O157 O 0.85541 0.64408 0.02446 0.0
O158 O 0.88197 0.64984 0.03094 0.0
C159 C 0.85528 0.59286 0.01998 0.0
C160 C 0.87061 0.6196 0.05678 0.0
C161 C 0.9079 0.61267 0.02422 0.0
O162 O 0.86341 0.60485 0.01367 0.0
O163 O 0.85539 0.59549 0.03178 0.0
O164 O 0.90005 0.60506 0.03341 0.0
O165 O 0.89834 0.62408 0.01834 0.0
C166 C 0.86732 0.65597 0.02662 0.0
O167 O 0.88473 0.61492 0.05092 0.0
O168 O 0.85779 0.62486 0.04974 0.0
In169 In 0.12991 0.11965 0.78126 0.0
O170 O 0.10764 0.11333 0.76658 0.0
O171 O 0.10528 0.10134 0.7847 0.0
C172 C 0.15996 0.10467 0.77055 0.0
C173 C 0.13102 0.12 0.80693 0.0
C174 C 0.13175 0.15551 0.77645 0.0
O175 O 0.14807 0.11278 0.76411 0.0
O176 O 0.15619 0.10327 0.78217 0.0
O177 O 0.1456 0.14598 0.77853 0.0
O178 O 0.11699 0.14697 0.77683 0.0
C179 C 0.09823 0.10377 0.77395 0.0
O180 O 0.126 0.13343 0.80044 0.0
O181 O 0.13532 0.10626 0.80048 0.0
In182 In 0.6338 0.38375 0.52963 0.0
O183 O 0.62587 0.39554 0.54878 0.0
O184 O 0.6479 0.37707 0.54844 0.0
C185 C 0.59887 0.38975 0.52347 0.0
C186 C 0.63938 0.34801 0.52525 0.0
C187 C 0.65245 0.41072 0.51781 0.0
O188 O 0.60594 0.39548 0.5336 0.0
O189 O 0.60948 0.38104 0.51632 0.0
O190 O 0.64006 0.40187 0.51247 0.0
O191 O 0.65632 0.40517 0.52878 0.0
C192 C 0.63776 0.38714 0.55503 0.0
O193 O 0.65084 0.35979 0.52194 0.0
O194 O 0.62553 0.35433 0.53062 0.0
In195 In 0.37485 0.8828 0.28036 0.0
O196 O 0.39687 0.90473 0.27782 0.0
O197 O 0.4025 0.87824 0.27136 0.0
C198 C 0.34438 0.89826 0.27072 0.0
C199 C 0.37838 0.88551 0.30578 0.0
C200 C 0.36709 0.84788 0.27511 0.0
O201 O 0.3584 0.89585 0.26409 0.0
O202 O 0.34608 0.89361 0.28215 0.0
O203 O 0.36487 0.85482 0.28593 0.0
O204 O 0.37316 0.85859 0.26682 0.0
C205 C 0.40822 0.89411 0.27286 0.0
O206 O 0.38462 0.87238 0.2995 0.0
O207 O 0.37083 0.89762 0.29918 0.0
In208 In 0.63435 0.11926 0.53164 0.0
O209 O 0.6084 0.10338 0.53454 0.0
O210 O 0.60901 0.12212 0.51926 0.0
C211 C 0.63788 0.1182 0.55718 0.0
C212 C 0.65322 0.09224 0.52015 0.0
C213 C 0.63964 0.1549 0.52671 0.0
O214 O 0.62398 0.11279 0.55139 0.0
O215 O 0.65025 0.12427 0.55008 0.0
O216 O 0.65142 0.14314 0.52392 0.0
O217 O 0.6256 0.14861 0.53182 0.0
C218 C 0.59998 0.11063 0.52545 0.0
O219 O 0.64302 0.10286 0.51411 0.0
O220 O 0.65482 0.09601 0.53175 0.0
In221 In 0.13098 0.38459 0.78026 0.0
O222 O 0.12621 0.37072 0.79931 0.0
O223 O 0.13534 0.39796 0.79957 0.0
C224 C 0.13229 0.34899 0.77431 0.0
C225 C 0.09977 0.40107 0.77278 0.0
C226 C 0.16202 0.39965 0.77124 0.0
O227 O 0.14625 0.3587 0.77507 0.0
O228 O 0.11768 0.35725 0.77639 0.0
O229 O 0.1484 0.39715 0.7642 0.0
O230 O 0.1596 0.39525 0.78266 0.0
C231 C 0.13095 0.38415 0.8059 0.0
O232 O 0.10864 0.39066 0.76563 0.0
O233 O 0.10726 0.40412 0.78332 0.0
In234 In 0.8736 0.88446 0.03125 0.0
O235 O 0.86288 0.901 0.01429 0.0
O236 O 0.85455 0.90877 0.03268 0.0
C237 C 0.86716 0.84887 0.02694 0.0
C238 C 0.90737 0.89167 0.02287 0.0
C239 C 0.87217 0.88574 0.05685 0.0
O240 O 0.85529 0.86078 0.02471 0.0
O241 O 0.88183 0.85499 0.03122 0.0
O242 O 0.88563 0.8911 0.05052 0.0
O243 O 0.85927 0.8796 0.05027 0.0
C244 C 0.85435 0.91225 0.02099 0.0
O245 O 0.90089 0.89845 0.03288 0.0
O246 O 0.89671 0.88137 0.01694 0.0
In247 In 0.37355 0.62148 0.28103 0.0
O248 O 0.3959 0.59991 0.27839 0.0
O249 O 0.40063 0.62619 0.2712 0.0
C250 C 0.34183 0.60706 0.27276 0.0
C251 C 0.37711 0.61753 0.30637 0.0
C252 C 0.36701 0.65654 0.27562 0.0
O253 O 0.35622 0.6057 0.26634 0.0
O254 O 0.34373 0.61511 0.28318 0.0
O255 O 0.3668 0.65023 0.28675 0.0
O256 O 0.37057 0.64513 0.26706 0.0
C257 C 0.40683 0.61055 0.273 0.0
O258 O 0.38306 0.63107 0.3004 0.0
O259 O 0.36988 0.60556 0.29948 0.0
In260 In 0.63522 0.87985 0.46832 0.0
O261 O 0.60608 0.88196 0.46175 0.0
O262 O 0.61075 0.88326 0.48162 0.0
C263 C 0.6399 0.87678 0.44302 0.0
C264 C 0.64871 0.91213 0.47619 0.0
C265 C 0.64756 0.84771 0.47747 0.0
O266 O 0.62759 0.86855 0.44899 0.0
O267 O 0.65036 0.88609 0.4499 0.0
O268 O 0.6335 0.85537 0.48156 0.0
O269 O 0.65603 0.85668 0.46919 0.0
C270 C 0.59937 0.88364 0.47268 0.0
O271 O 0.65327 0.89745 0.48144 0.0
O272 O 0.63774 0.91031 0.46716 0.0
In273 In 0.37487 0.3869 0.71854 0.0
O274 O 0.397 0.40875 0.7209 0.0
O275 O 0.40175 0.38297 0.72889 0.0
C276 C 0.34499 0.40341 0.72842 0.0
C277 C 0.37227 0.38908 0.693 0.0
C278 C 0.37348 0.35073 0.72196 0.0
O279 O 0.35654 0.39555 0.73529 0.0
O280 O 0.34912 0.40391 0.71684 0.0
O281 O 0.38111 0.35807 0.71257 0.0
O282 O 0.36661 0.36165 0.7298 0.0
C283 C 0.40788 0.39853 0.72672 0.0
O284 O 0.36173 0.37962 0.69969 0.0
O285 O 0.38417 0.39761 0.6992 0.0
In286 In 0.87131 0.12374 0.96642 0.0
O287 O 0.89913 0.11676 0.95866 0.0
O288 O 0.89715 0.12175 0.97846 0.0
C289 C 0.86466 0.129 0.94151 0.0
C290 C 0.85755 0.09216 0.97545 0.0
C291 C 0.86028 0.15608 0.9759 0.0
O292 O 0.87759 0.13652 0.94727 0.0
O293 O 0.85467 0.11923 0.94842 0.0
O294 O 0.84976 0.14577 0.96984 0.0
O295 O 0.87589 0.1497 0.97764 0.0
C296 C 0.90719 0.11775 0.96918 0.0
O297 O 0.85634 0.10671 0.98166 0.0
O298 O 0.86524 0.09378 0.96486 0.0
In299 In 0.13084 0.61943 0.21857 0.0
O300 O 0.10879 0.59755 0.22072 0.0
O301 O 0.10463 0.62259 0.22992 0.0
C302 C 0.15997 0.60304 0.22948 0.0
C303 C 0.13478 0.61646 0.19317 0.0
C304 C 0.1313 0.65586 0.22052 0.0
O305 O 0.14919 0.61287 0.23567 0.0
O306 O 0.15546 0.60066 0.21808 0.0
O307 O 0.12244 0.64757 0.21212 0.0
O308 O 0.13988 0.64578 0.22809 0.0
C309 C 0.09833 0.60726 0.22729 0.0
O310 O 0.14572 0.62513 0.20007 0.0
O311 O 0.12183 0.60917 0.1991 0.0
In312 In 0.37129 0.88072 0.46724 0.0
O313 O 0.3798 0.86892 0.4482 0.0
O314 O 0.35603 0.88516 0.44862 0.0
C315 C 0.4069 0.88594 0.47184 0.0
C316 C 0.35852 0.84868 0.47623 0.0
C317 C 0.35772 0.91303 0.47505 0.0
O318 O 0.40026 0.88526 0.46084 0.0
O319 O 0.39555 0.88401 0.4807 0.0
O320 O 0.35674 0.89905 0.4819 0.0
O321 O 0.36502 0.91048 0.46442 0.0
C322 C 0.36707 0.87613 0.442 0.0
O323 O 0.34881 0.85936 0.46984 0.0
O324 O 0.37418 0.85451 0.4785 0.0
In325 In 0.87475 0.61972 0.21892 0.0
O326 O 0.86332 0.62874 0.19991 0.0
O327 O 0.88263 0.60743 0.19974 0.0
C328 C 0.87592 0.65594 0.22212 0.0
C329 C 0.90679 0.60653 0.22765 0.0
C330 C 0.8446 0.60384 0.22882 0.0
O331 O 0.88631 0.64753 0.21468 0.0
O332 O 0.86493 0.64606 0.22811 0.0
O333 O 0.85735 0.60945 0.23574 0.0
O334 O 0.84752 0.60545 0.21712 0.0
C335 C 0.87233 0.61763 0.19338 0.0
O336 O 0.89695 0.59786 0.21998 0.0
O337 O 0.9 0.6212 0.2314 0.0
In338 In 0.1371 0.12554 0.96916 0.0
O339 O 0.15924 0.14736 0.9719 0.0
O340 O 0.13312 0.15252 0.97922 0.0
C341 C 0.15235 0.09713 0.98168 0.0
C342 C 0.14014 0.12663 0.94357 0.0
C343 C 0.10121 0.11891 0.97099 0.0
O344 O 0.13819 0.10496 0.98538 0.0
O345 O 0.15955 0.10428 0.97206 0.0
O346 O 0.1106 0.11379 0.96166 0.0
O347 O 0.10993 0.12724 0.97946 0.0
C348 C 0.1489 0.15837 0.97748 0.0
O349 O 0.13296 0.13922 0.94989 0.0
O350 O 0.14594 0.11361 0.95016 0.0
In351 In 0.63244 0.3863 0.71721 0.0
O352 O 0.64201 0.37624 0.69797 0.0
O353 O 0.62625 0.40029 0.69825 0.0
C354 C 0.63145 0.35012 0.72055 0.0
C355 C 0.60003 0.39902 0.72575 0.0
C356 C 0.66302 0.4014 0.72713 0.0
O357 O 0.62117 0.35839 0.71295 0.0
O358 O 0.64223 0.36013 0.72663 0.0
O359 O 0.64979 0.39684 0.73399 0.0
O360 O 0.66039 0.39918 0.71545 0.0
C361 C 0.63477 0.3888 0.69167 0.0
O362 O 0.60986 0.40785 0.71816 0.0
O363 O 0.60702 0.38446 0.72953 0.0
In364 In 0.37329 0.12253 0.53214 0.0
O365 O 0.38496 0.12902 0.55158 0.0
O366 O 0.35743 0.1208 0.55079 0.0
C367 C 0.40754 0.11266 0.52649 0.0
C368 C 0.36468 0.15695 0.52533 0.0
C369 C 0.35638 0.09359 0.52159 0.0
O370 O 0.39956 0.1077 0.53649 0.0
O371 O 0.39816 0.12242 0.51919 0.0
O372 O 0.36131 0.10702 0.51506 0.0
O373 O 0.35912 0.09527 0.53332 0.0
C374 C 0.37068 0.12543 0.55763 0.0
O375 O 0.35262 0.14542 0.52794 0.0
O376 O 0.38058 0.15093 0.52587 0.0
In377 In 0.63252 0.61838 0.28298 0.0
O378 O 0.60988 0.59729 0.27951 0.0
O379 O 0.60518 0.62431 0.27387 0.0
C380 C 0.66254 0.60198 0.27324 0.0
C381 C 0.63416 0.61492 0.30849 0.0
C382 C 0.63514 0.65445 0.27951 0.0
O383 O 0.65043 0.60871 0.26624 0.0
O384 O 0.65897 0.60266 0.28489 0.0
O385 O 0.62861 0.64735 0.28938 0.0
O386 O 0.64035 0.64333 0.27117 0.0
C387 C 0.59893 0.60857 0.27482 0.0
O388 O 0.6436 0.62608 0.3023 0.0
O389 O 0.62378 0.60525 0.30179 0.0
In390 In 0.13153 0.88629 0.02995 0.0
O391 O 0.14967 0.8628 0.02246 0.0
O392 O 0.12545 0.85651 0.0322 0.0
C393 C 0.1504 0.9138 0.01911 0.0
C394 C 0.13173 0.8897 0.05548 0.0
C395 C 0.09796 0.89354 0.02128 0.0
O396 O 0.13957 0.90401 0.01294 0.0
O397 O 0.15258 0.90898 0.03049 0.0
O398 O 0.10494 0.90172 0.03059 0.0
O399 O 0.10809 0.88192 0.01612 0.0
C400 C 0.13921 0.85061 0.02655 0.0
O401 O 0.11742 0.8895 0.04896 0.0
O402 O 0.14616 0.88815 0.04913 0.0
In403 In 0.87679 0.38472 0.78059 0.0
O404 O 0.89904 0.39109 0.76594 0.0
O405 O 0.90061 0.40416 0.78374 0.0
C406 C 0.84553 0.39972 0.77187 0.0
C407 C 0.87589 0.38362 0.80622 0.0
C408 C 0.87618 0.34924 0.77429 0.0
O409 O 0.85875 0.3965 0.76459 0.0
O410 O 0.84846 0.39608 0.78336 0.0
O411 O 0.86232 0.35914 0.77373 0.0
O412 O 0.89031 0.35723 0.77795 0.0
C413 C 0.908 0.40132 0.77314 0.0
O414 O 0.88025 0.37016 0.79953 0.0
O415 O 0.87228 0.39777 0.8 0.0
C416 C 0.15191 0.62306 0.17322 0.0
C417 C 0.13677 0.6154 0.17923 0.0
C418 C 0.15356 0.6226 0.16 0.0
C419 C 0.13587 0.59959 0.13125 0.0
H420 H 0.15295 0.64261 0.11395 0.0
C421 C 0.12521 0.61146 0.07777 0.0
C422 C 0.1396 0.61878 0.07073 0.0
C423 C 0.12626 0.61025 0.09098 0.0
C424 C 0.1484 0.63041 0.11865 0.0
H425 H 0.11155 0.60115 0.17614 0.0
H426 H 0.11423 0.60061 0.15306 0.0
H427 H 0.15205 0.64193 0.13711 0.0
H428 H 0.1664 0.63052 0.07196 0.0
H429 H 0.1682 0.6285 0.09517 0.0
H430 H 0.13183 0.58826 0.11276 0.0
C431 C 0.12501 0.60671 0.15855 0.0
C432 C 0.14789 0.63 0.13192 0.0
C433 C 0.1234 0.6071 0.17178 0.0
C434 C 0.1551 0.62483 0.07716 0.0
C435 C 0.1561 0.62374 0.09042 0.0
C436 C 0.1363 0.60004 0.11798 0.0
C437 C 0.14007 0.61454 0.15249 0.0
C438 C 0.14144 0.61465 0.13839 0.0
C439 C 0.14167 0.61642 0.09746 0.0
C440 C 0.14238 0.61553 0.11154 0.0
H441 H 0.16249 0.62948 0.17873 0.0
H442 H 0.16546 0.62852 0.15567 0.0
H443 H 0.13117 0.58742 0.13591 0.0
H444 H 0.11307 0.60669 0.07309 0.0
H445 H 0.11482 0.60477 0.09614 0.0
C446 C 0.62896 0.86596 0.42192 0.0
C447 C 0.64078 0.87686 0.429 0.0
C448 C 0.62836 0.86732 0.40869 0.0
C449 C 0.63758 0.89923 0.38279 0.0
H450 H 0.63274 0.8568 0.36147 0.0
C451 C 0.63887 0.90197 0.32767 0.0
C452 C 0.62744 0.88998 0.32115 0.0
C453 C 0.64041 0.90107 0.34091 0.0
C454 C 0.63384 0.86881 0.3673 0.0
H455 H 0.66159 0.89742 0.42779 0.0
H456 H 0.6606 0.89976 0.40462 0.0
H457 H 0.63664 0.85321 0.38431 0.0
H458 H 0.60798 0.8683 0.32338 0.0
H459 H 0.61034 0.86699 0.34643 0.0
H460 H 0.6346 0.91484 0.36577 0.0
C461 C 0.65168 0.89027 0.40933 0.0
C462 C 0.63615 0.86673 0.38038 0.0
C463 C 0.65236 0.88882 0.42257 0.0
C464 C 0.61699 0.87764 0.32814 0.0
C465 C 0.61847 0.87679 0.34134 0.0
C466 C 0.63521 0.90131 0.36968 0.0
C467 C 0.63951 0.87969 0.40226 0.0
C468 C 0.63794 0.88191 0.38828 0.0
C469 C 0.63051 0.88819 0.34787 0.0
C470 C 0.63318 0.88612 0.36179 0.0
H471 H 0.61983 0.85665 0.42661 0.0
H472 H 0.61871 0.8591 0.40354 0.0
H473 H 0.63867 0.91119 0.38865 0.0
H474 H 0.64714 0.91157 0.32252 0.0
H475 H 0.64988 0.90998 0.34562 0.0
C476 C 0.38418 0.39857 0.67174 0.0
C477 C 0.37096 0.38968 0.679 0.0
C478 C 0.38319 0.39853 0.65847 0.0
C479 C 0.36248 0.37354 0.63164 0.0
H480 H 0.37685 0.41576 0.61231 0.0
C481 C 0.3543 0.37862 0.57693 0.0
C482 C 0.36937 0.38537 0.57033 0.0
C483 C 0.35365 0.37944 0.59022 0.0
C484 C 0.37289 0.40383 0.61758 0.0
H485 H 0.34616 0.3741 0.67811 0.0
H486 H 0.34421 0.37436 0.65501 0.0
H487 H 0.3772 0.41688 0.63546 0.0
H488 H 0.39552 0.39834 0.57242 0.0
H489 H 0.39435 0.39982 0.59552 0.0
H490 H 0.35811 0.36056 0.61371 0.0
C491 C 0.35556 0.38104 0.6595 0.0
C492 C 0.37314 0.40444 0.63085 0.0
C493 C 0.35661 0.38099 0.67276 0.0
C494 C 0.38371 0.39302 0.57724 0.0
C495 C 0.383 0.39398 0.59047 0.0
C496 C 0.36212 0.37297 0.61836 0.0
C497 C 0.36891 0.38969 0.65218 0.0
C498 C 0.36809 0.38925 0.63805 0.0
C499 C 0.36798 0.38719 0.59711 0.0
C500 C 0.36748 0.38806 0.6112 0.0
H501 H 0.39544 0.40532 0.6763 0.0
H502 H 0.39385 0.40512 0.65314 0.0
H503 H 0.35877 0.36149 0.63686 0.0
H504 H 0.34305 0.37265 0.57185 0.0
H505 H 0.34185 0.3742 0.59509 0.0
C506 C 0.85147 0.11776 0.92112 0.0
C507 C 0.86259 0.1301 0.92758 0.0
C508 C 0.85128 0.11733 0.90784 0.0
C509 C 0.86191 0.14351 0.87914 0.0
H510 H 0.87049 0.09673 0.86368 0.0
C511 C 0.88037 0.13677 0.82619 0.0
C512 C 0.87351 0.12193 0.81944 0.0
C513 C 0.87837 0.13779 0.83937 0.0
C514 C 0.86778 0.10987 0.86779 0.0
H515 H 0.88159 0.15217 0.92528 0.0
H516 H 0.88099 0.15162 0.90208 0.0
H517 H 0.86697 0.09899 0.88664 0.0
H518 H 0.85914 0.09653 0.82112 0.0
H519 H 0.85517 0.09851 0.84407 0.0
H520 H 0.86246 0.15443 0.86035 0.0
C521 C 0.87251 0.14224 0.90727 0.0
C522 C 0.8658 0.11115 0.88096 0.0
C523 C 0.87289 0.14251 0.92054 0.0
C524 C 0.86469 0.10807 0.82611 0.0
C525 C 0.86249 0.10919 0.83928 0.0
C526 C 0.86367 0.14222 0.86595 0.0
C527 C 0.862 0.12939 0.9008 0.0
C528 C 0.863 0.12799 0.88677 0.0
C529 C 0.86925 0.1241 0.84608 0.0
C530 C 0.86682 0.1254 0.86011 0.0
H531 H 0.84342 0.108 0.9263 0.0
H532 H 0.84293 0.1074 0.90307 0.0
H533 H 0.85959 0.15665 0.88338 0.0
H534 H 0.88731 0.14762 0.8213 0.0
H535 H 0.88411 0.14929 0.84429 0.0
C536 C 0.13226 0.3626 0.92116 0.0
C537 C 0.14315 0.37465 0.92807 0.0
C538 C 0.13232 0.36291 0.90788 0.0
C539 C 0.13961 0.39377 0.88146 0.0
H540 H 0.14141 0.35042 0.86084 0.0
C541 C 0.14126 0.39694 0.82665 0.0
C542 C 0.13208 0.38341 0.81989 0.0
C543 C 0.14321 0.39571 0.83983 0.0
C544 C 0.14062 0.36266 0.86645 0.0
H545 H 0.16299 0.39612 0.92656 0.0
H546 H 0.16293 0.39676 0.90333 0.0
H547 H 0.14428 0.34808 0.88387 0.0
H548 H 0.11737 0.35821 0.82161 0.0
H549 H 0.12016 0.35636 0.84464 0.0
H550 H 0.13537 0.40836 0.86419 0.0
C551 C 0.15436 0.38711 0.9082 0.0
C552 C 0.14238 0.36129 0.87964 0.0
C553 C 0.15448 0.38665 0.92147 0.0
C554 C 0.1246 0.3688 0.82658 0.0
C555 C 0.12635 0.36767 0.83977 0.0
C556 C 0.13762 0.39513 0.8683 0.0
C557 C 0.14309 0.37541 0.90128 0.0
C558 C 0.14188 0.37683 0.88726 0.0
C559 C 0.13583 0.38102 0.84657 0.0
C560 C 0.13807 0.37959 0.8606 0.0
H561 H 0.12339 0.35322 0.926 0.0
H562 H 0.12343 0.35381 0.90279 0.0
H563 H 0.1389 0.40595 0.88714 0.0
H564 H 0.14729 0.40829 0.82173 0.0
H565 H 0.15084 0.40611 0.84469 0.0
C566 C 0.85761 0.87872 0.0778 0.0
C567 C 0.87171 0.88675 0.07087 0.0
C568 C 0.85748 0.87954 0.09108 0.0
C569 C 0.88786 0.88766 0.11858 0.0
H570 H 0.84283 0.89386 0.13699 0.0
C571 C 0.88574 0.90066 0.17266 0.0
C572 C 0.87327 0.89025 0.17958 0.0
C573 C 0.8852 0.90087 0.15938 0.0
C574 C 0.85549 0.89201 0.13197 0.0
H575 H 0.89653 0.90221 0.07235 0.0
H576 H 0.8961 0.90402 0.09542 0.0
H577 H 0.8425 0.89294 0.11381 0.0
H578 H 0.85027 0.87219 0.17807 0.0
H579 H 0.84928 0.87265 0.1549 0.0
H580 H 0.90084 0.8869 0.13676 0.0
C581 C 0.88535 0.89671 0.09068 0.0
C582 C 0.85531 0.89142 0.11869 0.0
C583 C 0.88554 0.89577 0.07744 0.0
C584 C 0.86006 0.88034 0.17299 0.0
C585 C 0.85943 0.88067 0.15973 0.0
C586 C 0.88804 0.88839 0.13184 0.0
C587 C 0.87139 0.88851 0.09769 0.0
C588 C 0.8715 0.8892 0.11183 0.0
C589 C 0.87208 0.89081 0.15278 0.0
C590 C 0.87187 0.89052 0.13868 0.0
H591 H 0.84679 0.87163 0.07297 0.0
H592 H 0.84663 0.87287 0.09617 0.0
H593 H 0.90054 0.88559 0.11364 0.0
H594 H 0.89606 0.90844 0.17749 0.0
H595 H 0.89501 0.90896 0.15427 0.0
C596 C 0.35394 0.61457 0.42223 0.0
C597 C 0.36443 0.62784 0.42828 0.0
C598 C 0.35403 0.61307 0.40897 0.0
C599 C 0.36487 0.63826 0.37967 0.0
H600 H 0.37261 0.5909 0.36487 0.0
C601 C 0.3854 0.63043 0.32746 0.0
C602 C 0.37693 0.61677 0.32039 0.0
C603 C 0.38354 0.63103 0.34065 0.0
C604 C 0.37022 0.60419 0.36883 0.0
H605 H 0.38281 0.65026 0.42524 0.0
H606 H 0.38286 0.64775 0.40219 0.0
H607 H 0.36862 0.59383 0.38782 0.0
H608 H 0.36035 0.59268 0.32158 0.0
H609 H 0.35695 0.59381 0.34465 0.0
H610 H 0.36646 0.64868 0.36077 0.0
C611 C 0.37453 0.63852 0.40763 0.0
C612 C 0.36791 0.60585 0.38198 0.0
C613 C 0.37456 0.63991 0.42084 0.0
C614 C 0.36709 0.60333 0.3268 0.0
C615 C 0.36517 0.60397 0.34002 0.0
C616 C 0.3671 0.63659 0.36656 0.0
C617 C 0.36446 0.62495 0.40155 0.0
C618 C 0.36545 0.62295 0.38754 0.0
C619 C 0.37309 0.61804 0.34707 0.0
C620 C 0.37007 0.61957 0.36099 0.0
H621 H 0.34604 0.60505 0.42775 0.0
H622 H 0.34601 0.60258 0.40453 0.0
H623 H 0.3627 0.65158 0.38366 0.0
H624 H 0.39315 0.64093 0.32279 0.0
H625 H 0.39017 0.64182 0.34582 0.0
C626 C 0.62397 0.10663 0.67245 0.0
C627 C 0.63631 0.1166 0.67976 0.0
C628 C 0.62544 0.10625 0.65921 0.0
C629 C 0.64526 0.13149 0.6322 0.0
H630 H 0.63455 0.08754 0.61364 0.0
C631 C 0.65389 0.12543 0.57759 0.0
C632 C 0.6393 0.11741 0.57116 0.0
C633 C 0.65478 0.1249 0.59087 0.0
C634 C 0.6375 0.09994 0.6187 0.0
H635 H 0.66004 0.13379 0.67898 0.0
H636 H 0.66282 0.13287 0.65591 0.0
H637 H 0.63378 0.08733 0.6368 0.0
H638 H 0.61433 0.10238 0.57357 0.0
H639 H 0.61593 0.10141 0.59665 0.0
H640 H 0.64897 0.14406 0.61405 0.0
C641 C 0.65179 0.1256 0.66036 0.0
C642 C 0.637 0.09984 0.63197 0.0
C643 C 0.65026 0.12605 0.67359 0.0
C644 C 0.62576 0.10868 0.57824 0.0
C645 C 0.62672 0.10802 0.59147 0.0
C646 C 0.64585 0.13155 0.61893 0.0
C647 C 0.63935 0.11577 0.65299 0.0
C648 C 0.64067 0.11567 0.63889 0.0
C649 C 0.64119 0.11617 0.59794 0.0
C650 C 0.64177 0.11583 0.61203 0.0
H651 H 0.61303 0.09927 0.67694 0.0
H652 H 0.61545 0.09876 0.65384 0.0
H653 H 0.64792 0.14399 0.63721 0.0
H654 H 0.66451 0.13225 0.57236 0.0
H655 H 0.66616 0.13119 0.59561 0.0
C656 C 0.86541 0.39622 0.827 0.0
C657 C 0.87443 0.38263 0.82019 0.0
C658 C 0.8633 0.39484 0.84017 0.0
C659 C 0.86555 0.36148 0.86669 0.0
H660 H 0.86776 0.4046 0.88753 0.0
C661 C 0.87497 0.36115 0.92132 0.0
C662 C 0.86414 0.3731 0.92837 0.0
C663 C 0.87465 0.36151 0.90805 0.0
C664 C 0.86691 0.39247 0.8818 0.0
H665 H 0.88866 0.35713 0.8218 0.0
H666 H 0.88566 0.35502 0.84479 0.0
H667 H 0.87108 0.40715 0.86457 0.0
H668 H 0.84413 0.39445 0.92711 0.0
H669 H 0.84375 0.39524 0.90388 0.0
H670 H 0.86203 0.3468 0.88408 0.0
C671 C 0.87968 0.3665 0.83998 0.0
C672 C 0.86877 0.39391 0.86863 0.0
C673 C 0.88156 0.36777 0.8268 0.0
C674 C 0.85259 0.38506 0.92191 0.0
C675 C 0.85246 0.38559 0.90864 0.0
C676 C 0.86394 0.36003 0.87988 0.0
C677 C 0.87039 0.37994 0.84685 0.0
C678 C 0.86816 0.37843 0.86088 0.0
C679 C 0.86367 0.37399 0.90158 0.0
C680 C 0.86463 0.37551 0.88756 0.0
H681 H 0.85964 0.40776 0.82213 0.0
H682 H 0.85582 0.40532 0.84506 0.0
H683 H 0.86462 0.34929 0.86104 0.0
H684 H 0.88401 0.35179 0.92606 0.0
H685 H 0.8835 0.35249 0.90284 0.0
C686 C 0.36448 0.10464 0.67348 0.0
C687 C 0.37843 0.11377 0.67988 0.0
C688 C 0.36328 0.10539 0.66022 0.0
C689 C 0.37826 0.13374 0.63318 0.0
H690 H 0.36239 0.0932 0.61271 0.0
C691 C 0.38471 0.1323 0.57865 0.0
C692 C 0.37006 0.12544 0.57166 0.0
C693 C 0.38486 0.13117 0.59189 0.0
C694 C 0.36664 0.10469 0.61833 0.0
H695 H 0.40255 0.13004 0.67742 0.0
H696 H 0.40081 0.13089 0.65434 0.0
H697 H 0.36508 0.08973 0.63572 0.0
H698 H 0.34396 0.11222 0.57303 0.0
H699 H 0.34426 0.11018 0.59625 0.0
H700 H 0.38011 0.1486 0.61578 0.0
C701 C 0.39046 0.1236 0.65952 0.0
C702 C 0.36819 0.10271 0.63151 0.0
C703 C 0.39157 0.12298 0.67275 0.0
C704 C 0.35541 0.11767 0.57818 0.0
C705 C 0.35564 0.11638 0.59145 0.0
C706 C 0.37683 0.13567 0.62003 0.0
C707 C 0.37607 0.11518 0.6531 0.0
C708 C 0.37416 0.11718 0.63909 0.0
C709 C 0.37043 0.12302 0.59842 0.0
C710 C 0.37111 0.12115 0.61245 0.0
H711 H 0.35411 0.09751 0.67874 0.0
H712 H 0.35195 0.09884 0.65561 0.0
H713 H 0.38246 0.14532 0.63873 0.0
H714 H 0.39621 0.13832 0.57388 0.0
H715 H 0.39652 0.13626 0.59699 0.0
C716 C 0.62865 0.60447 0.42513 0.0
C717 C 0.64027 0.61679 0.43116 0.0
C718 C 0.62813 0.60333 0.41187 0.0
C719 C 0.63853 0.63012 0.38324 0.0
H720 H 0.63498 0.58418 0.36569 0.0
C721 C 0.64705 0.62499 0.32919 0.0
C722 C 0.63505 0.61379 0.32249 0.0
C723 C 0.64763 0.62461 0.34243 0.0
C724 C 0.63577 0.59712 0.37047 0.0
H725 H 0.66075 0.63729 0.42809 0.0
H726 H 0.66001 0.63518 0.40498 0.0
H727 H 0.63638 0.5848 0.38889 0.0
H728 H 0.61441 0.59318 0.3244 0.0
H729 H 0.61531 0.59258 0.34766 0.0
H730 H 0.63791 0.64246 0.36488 0.0
C731 C 0.65108 0.62658 0.41046 0.0
C732 C 0.63659 0.59748 0.38375 0.0
C733 C 0.6516 0.62771 0.4237 0.0
C734 C 0.6238 0.60196 0.32932 0.0
C735 C 0.62438 0.60157 0.34262 0.0
C736 C 0.63772 0.62976 0.36999 0.0
C737 C 0.63921 0.61452 0.40438 0.0
C738 C 0.6381 0.61399 0.39028 0.0
C739 C 0.63619 0.61303 0.34932 0.0
C740 C 0.63647 0.61326 0.36344 0.0
H741 H 0.61973 0.59589 0.43064 0.0
H742 H 0.61872 0.59402 0.40748 0.0
H743 H 0.63928 0.64309 0.38797 0.0
H744 H 0.65597 0.63419 0.3242 0.0
H745 H 0.65711 0.63337 0.34728 0.0
C746 C 0.14094 0.90485 0.17155 0.0
C747 C 0.12598 0.89748 0.17793 0.0
C748 C 0.14136 0.90538 0.15827 0.0
C749 C 0.11995 0.88325 0.1304 0.0
H750 H 0.14439 0.92099 0.11146 0.0
C751 C 0.11498 0.8896 0.07604 0.0
C752 C 0.1314 0.8915 0.06945 0.0
C753 C 0.11447 0.89104 0.08925 0.0
C754 C 0.13763 0.91032 0.11666 0.0
H755 H 0.09931 0.88584 0.17552 0.0
H756 H 0.09964 0.88748 0.15242 0.0
H757 H 0.14244 0.92306 0.1346 0.0
H758 H 0.16011 0.89675 0.07146 0.0
H759 H 0.15915 0.89957 0.09467 0.0
H760 H 0.11481 0.87077 0.11242 0.0
C761 C 0.11138 0.89223 0.15758 0.0
C762 C 0.13653 0.91145 0.12991 0.0
C763 C 0.1111 0.89144 0.17083 0.0
C764 C 0.14728 0.89515 0.07631 0.0
C765 C 0.14672 0.89687 0.08956 0.0
C766 C 0.12083 0.88227 0.11718 0.0
C767 C 0.1267 0.89877 0.1511 0.0
C768 C 0.12766 0.89792 0.13696 0.0
C769 C 0.13032 0.89467 0.09614 0.0
C770 C 0.12967 0.89577 0.11018 0.0
H771 H 0.15265 0.90951 0.1768 0.0
H772 H 0.15346 0.91035 0.15365 0.0
H773 H 0.11343 0.87232 0.13548 0.0
H774 H 0.10251 0.8868 0.071 0.0
H775 H 0.10163 0.88944 0.09409 0.0
C776 C 0.88308 0.61022 0.07778 0.0
C777 C 0.86936 0.61878 0.07076 0.0
C778 C 0.88218 0.60944 0.09101 0.0
C779 C 0.86314 0.63258 0.11856 0.0
H780 H 0.87429 0.58795 0.13624 0.0
C781 C 0.85758 0.62689 0.17305 0.0
C782 C 0.87095 0.61686 0.1794 0.0
C783 C 0.8564 0.62654 0.15981 0.0
C784 C 0.87136 0.60058 0.13147 0.0
H785 H 0.8439 0.63322 0.07208 0.0
H786 H 0.84242 0.63203 0.09532 0.0
H787 H 0.87392 0.58848 0.11307 0.0
H788 H 0.89357 0.59856 0.17689 0.0
H789 H 0.89186 0.59829 0.15374 0.0
H790 H 0.86105 0.64486 0.13687 0.0
C791 C 0.85386 0.62592 0.09053 0.0
C792 C 0.87107 0.60085 0.1182 0.0
C793 C 0.85467 0.62654 0.07725 0.0
C794 C 0.88307 0.60637 0.17225 0.0
C795 C 0.882 0.60614 0.15899 0.0
C796 C 0.86358 0.63236 0.13183 0.0
C797 C 0.86761 0.61734 0.09753 0.0
C798 C 0.86706 0.61687 0.11161 0.0
C799 C 0.86868 0.61628 0.15259 0.0
C800 C 0.86778 0.61638 0.13846 0.0
H801 H 0.89457 0.60411 0.07304 0.0
H802 H 0.89307 0.60292 0.09615 0.0
H803 H 0.86023 0.64517 0.11372 0.0
H804 H 0.84796 0.63502 0.17832 0.0
H805 H 0.84577 0.63425 0.15525 0.0
C806 C 0.13943 0.10592 0.82775 0.0
C807 C 0.13211 0.12052 0.82095 0.0
C808 C 0.14084 0.10665 0.84099 0.0
C809 C 0.14139 0.13899 0.86789 0.0
H810 H 0.13095 0.09636 0.88801 0.0
C811 C 0.1333 0.14096 0.92255 0.0
C812 C 0.14073 0.12657 0.92953 0.0
C813 C 0.13297 0.14042 0.90928 0.0
C814 C 0.13413 0.10833 0.88252 0.0
H815 H 0.12031 0.14723 0.82265 0.0
H816 H 0.12242 0.14838 0.84575 0.0
H817 H 0.12869 0.0949 0.86494 0.0
H818 H 0.15397 0.1005 0.92808 0.0
H819 H 0.15352 0.09962 0.9049 0.0
H820 H 0.14666 0.15245 0.88552 0.0
C821 C 0.12742 0.1365 0.84087 0.0
C822 C 0.13283 0.10749 0.86929 0.0
C823 C 0.12609 0.1358 0.82764 0.0
C824 C 0.1481 0.11178 0.92296 0.0
C825 C 0.14774 0.11122 0.90969 0.0
C826 C 0.14263 0.13984 0.88113 0.0
C827 C 0.13488 0.12197 0.84772 0.0
C828 C 0.13642 0.12282 0.86181 0.0
C829 C 0.14003 0.12546 0.9027 0.0
C830 C 0.139 0.12452 0.8886 0.0
H831 H 0.14427 0.094 0.82284 0.0
H832 H 0.14686 0.09531 0.84594 0.0
H833 H 0.14455 0.15097 0.86242 0.0
H834 H 0.12747 0.15253 0.92736 0.0
H835 H 0.12677 0.15153 0.90418 0.0
C836 C 0.62808 0.40072 0.57567 0.0
C837 C 0.63917 0.38856 0.56899 0.0
C838 C 0.6287 0.40154 0.58892 0.0
C839 C 0.64028 0.37407 0.61674 0.0
H840 H 0.63897 0.41976 0.63476 0.0
C841 C 0.64721 0.37745 0.67113 0.0
C842 C 0.63613 0.38974 0.67768 0.0
C843 C 0.64833 0.3779 0.6579 0.0
C844 C 0.63913 0.40688 0.62988 0.0
H845 H 0.65983 0.36795 0.57092 0.0
H846 H 0.66092 0.36937 0.59412 0.0
H847 H 0.63986 0.41954 0.61157 0.0
H848 H 0.61761 0.41224 0.67554 0.0
H849 H 0.61924 0.41284 0.65235 0.0
H850 H 0.63923 0.36136 0.63496 0.0
C851 C 0.65166 0.37817 0.58909 0.0
C852 C 0.6397 0.40677 0.6166 0.0
C853 C 0.65111 0.37743 0.57582 0.0
C854 C 0.6263 0.40263 0.67073 0.0
C855 C 0.62733 0.40302 0.65746 0.0
C856 C 0.63962 0.37418 0.63 0.0
C857 C 0.64035 0.39015 0.59578 0.0
C858 C 0.64027 0.39036 0.60989 0.0
C859 C 0.63828 0.39059 0.65088 0.0
C860 C 0.63904 0.39058 0.63675 0.0
H861 H 0.61872 0.40947 0.57066 0.0
H862 H 0.6197 0.41077 0.59381 0.0
H863 H 0.6404 0.3612 0.61185 0.0
H864 H 0.65507 0.36743 0.67623 0.0
H865 H 0.65716 0.36835 0.65317 0.0
C866 C 0.36788 0.89835 0.32651 0.0
C867 C 0.37844 0.88576 0.31982 0.0
C868 C 0.36647 0.89737 0.33974 0.0
C869 C 0.37254 0.86504 0.36636 0.0
H870 H 0.36913 0.90812 0.38717 0.0
C871 C 0.37825 0.86442 0.42116 0.0
C872 C 0.36626 0.8755 0.42799 0.0
C873 C 0.37883 0.86516 0.4079 0.0
C874 C 0.36986 0.89597 0.38146 0.0
H875 H 0.39636 0.86273 0.32174 0.0
H876 H 0.39438 0.86135 0.34482 0.0
H877 H 0.37296 0.91103 0.36424 0.0
H878 H 0.34516 0.89573 0.42629 0.0
H879 H 0.34624 0.89707 0.40309 0.0
H880 H 0.36981 0.85002 0.38366 0.0
C881 C 0.38676 0.87168 0.33986 0.0
C882 C 0.37205 0.89763 0.36831 0.0
C883 C 0.38804 0.87257 0.32664 0.0
C884 C 0.35452 0.887 0.42128 0.0
C885 C 0.35523 0.88788 0.40802 0.0
C886 C 0.37051 0.8634 0.37951 0.0
C887 C 0.3757 0.88386 0.34658 0.0
C888 C 0.37346 0.88218 0.36059 0.0
C889 C 0.36756 0.87713 0.4012 0.0
C890 C 0.36916 0.87884 0.3872 0.0
H891 H 0.36023 0.9086 0.32149 0.0
H892 H 0.35768 0.90687 0.34456 0.0
H893 H 0.37318 0.85284 0.36071 0.0
H894 H 0.38748 0.85545 0.42608 0.0
H895 H 0.38856 0.85681 0.40292 0.0
C896 C 0.0719 0.59676 0.02775 0.0
C897 C 0.08116 0.61071 0.02148 0.0
C898 C 0.05327 0.59471 0.02623 0.0
C899 C 0.0137 0.60838 0.00676 0.0
H900 H 0.98782 0.60108 0.03839 0.0
C901 C 0.93662 0.62085 0.01296 0.0
C902 C 0.92719 0.60949 0.02135 0.0
C903 C 0.95536 0.61912 0.01149 0.0
C904 C 0.9948 0.6028 0.02942 0.0
H905 H 0.07834 0.63298 0.00824 0.0
H906 H 0.04564 0.62957 0.0057 0.0
H907 H 0.02063 0.60136 0.03842 0.0
H908 H 0.92973 0.58671 0.03419 0.0
H909 H 0.96229 0.58345 0.03145 0.0
H910 H 0.98767 0.61013 0.99783 0.0
C911 C 0.05283 0.62009 0.0117 0.0
C912 C 0.01365 0.60297 0.02944 0.0
C913 C 0.07154 0.6221 0.0132 0.0
C914 C 0.93667 0.59579 0.02775 0.0
C915 C 0.95534 0.59399 0.02623 0.0
C916 C 0.99475 0.6082 0.00673 0.0
C917 C 0.04343 0.60664 0.01845 0.0
C918 C 0.02335 0.60579 0.01813 0.0
C919 C 0.96499 0.60594 0.01837 0.0
C920 C 0.98509 0.60544 0.01809 0.0
H921 H 0.07899 0.58767 0.03411 0.0
H922 H 0.04648 0.58398 0.03135 0.0
H923 H 0.02079 0.61045 0.99787 0.0
H924 H 0.92964 0.63154 0.00791 0.0
H925 H 0.9624 0.62862 0.00542 0.0
C926 C 0.64052 0.68212 0.26619 0.0
C927 C 0.63634 0.67424 0.27797 0.0
C928 C 0.64083 0.70097 0.26486 0.0
C929 C 0.62336 0.74221 0.28057 0.0
H930 H 0.66042 0.76733 0.26135 0.0
C931 C 0.63687 0.81717 0.28787 0.0
C932 C 0.63787 0.82822 0.27704 0.0
C933 C 0.63702 0.79844 0.28671 0.0
C934 C 0.64988 0.76044 0.26662 0.0
H935 H 0.6299 0.67979 0.29769 0.0
H936 H 0.63086 0.7124 0.29548 0.0
H937 H 0.66004 0.7342 0.26171 0.0
H938 H 0.64046 0.82833 0.25653 0.0
H939 H 0.64085 0.79525 0.25451 0.0
H940 H 0.6135 0.76833 0.28577 0.0
C941 C 0.63337 0.70419 0.28715 0.0
C942 C 0.64964 0.74151 0.26682 0.0
C943 C 0.63293 0.68546 0.28844 0.0
C944 C 0.63962 0.82012 0.26503 0.0
C945 C 0.6399 0.80124 0.26387 0.0
C946 C 0.6237 0.76102 0.28045 0.0
C947 C 0.63703 0.7122 0.27531 0.0
C948 C 0.63659 0.7322 0.27404 0.0
C949 C 0.63825 0.79027 0.27471 0.0
C950 C 0.63716 0.77034 0.2737 0.0
H951 H 0.64321 0.67376 0.25796 0.0
H952 H 0.64363 0.70672 0.2556 0.0
H953 H 0.61281 0.7355 0.28593 0.0
H954 H 0.63565 0.82299 0.29727 0.0
H955 H 0.63605 0.79029 0.29524 0.0
C956 C 0.43733 0.40414 0.52852 0.0
C957 C 0.42638 0.3935 0.5206 0.0
C958 C 0.45586 0.40565 0.52621 0.0
C959 C 0.49338 0.38088 0.51161 0.0
H960 H 0.51971 0.42515 0.5184 0.0
C961 C 0.57154 0.384 0.50997 0.0
C962 C 0.57952 0.39242 0.52054 0.0
C963 C 0.55294 0.38564 0.50777 0.0
C964 C 0.51254 0.41269 0.51648 0.0
H965 H 0.4261 0.37656 0.50381 0.0
H966 H 0.45859 0.37925 0.49973 0.0
H967 H 0.48669 0.42547 0.51831 0.0
H968 H 0.57444 0.40954 0.53687 0.0
H969 H 0.54207 0.41234 0.53307 0.0
H970 H 0.51923 0.368 0.51013 0.0
C971 C 0.45283 0.38629 0.5078 0.0
C972 C 0.49365 0.41287 0.51644 0.0
C973 C 0.43424 0.38482 0.51009 0.0
C974 C 0.56867 0.4029 0.52864 0.0
C975 C 0.55014 0.40461 0.52641 0.0
C976 C 0.51229 0.38071 0.51165 0.0
C977 C 0.46388 0.39654 0.51594 0.0
C978 C 0.48385 0.39688 0.51431 0.0
C979 C 0.54201 0.39582 0.51604 0.0
C980 C 0.52207 0.39652 0.51439 0.0
H981 H 0.43167 0.41098 0.5367 0.0
H982 H 0.464 0.41344 0.53278 0.0
H983 H 0.48625 0.36829 0.51008 0.0
H984 H 0.57959 0.37586 0.50355 0.0
H985 H 0.54708 0.37884 0.49964 0.0
C986 C 0.89157 0.31926 0.77274 0.0
C987 C 0.87577 0.32968 0.77155 0.0
C988 C 0.89105 0.30059 0.77087 0.0
C989 C 0.85958 0.26211 0.77189 0.0
H990 H 0.8995 0.23655 0.75609 0.0
C991 C 0.85977 0.18448 0.76643 0.0
C992 C 0.87581 0.17588 0.77027 0.0
C993 C 0.85927 0.20323 0.76482 0.0
C994 C 0.88829 0.24351 0.76056 0.0
H995 H 0.84712 0.32882 0.76716 0.0
H996 H 0.84623 0.29617 0.76378 0.0
H997 H 0.89943 0.26953 0.75639 0.0
H998 H 0.90403 0.18003 0.77507 0.0
H999 H 0.90318 0.21271 0.77226 0.0
H1000 H 0.84858 0.23609 0.77623 0.0
C1001 C 0.85898 0.30241 0.76631 0.0
C1002 C 0.88825 0.26239 0.76075 0.0
C1003 C 0.85951 0.32111 0.76818 0.0
C1004 C 0.89147 0.18629 0.7721 0.0
C1005 C 0.89101 0.205 0.77042 0.0
C1006 C 0.8596 0.24324 0.77167 0.0
C1007 C 0.87472 0.29191 0.76776 0.0
C1008 C 0.87404 0.27191 0.7666 0.0
C1009 C 0.87484 0.21371 0.76694 0.0
C1010 C 0.87409 0.23373 0.76617 0.0
H1011 H 0.9043 0.32548 0.77535 0.0
H1012 H 0.90337 0.2929 0.77224 0.0
H1013 H 0.84855 0.26901 0.77663 0.0
H1014 H 0.84748 0.17678 0.76494 0.0
H1015 H 0.84666 0.20954 0.76202 0.0
C1016 C 0.93496 0.3875 0.9852 0.0
C1017 C 0.92714 0.38804 0.97304 0.0
C1018 C 0.95366 0.38971 0.9867 0.0
C1019 C 0.99434 0.40701 0.97016 0.0
H1020 H 0.02054 0.37232 0.99078 0.0
C1021 C 0.06943 0.39179 0.96237 0.0
C1022 C 0.08064 0.38888 0.97294 0.0
C1023 C 0.05081 0.39388 0.9639 0.0
C1024 C 0.01341 0.38232 0.98516 0.0
H1025 H 0.93266 0.39157 0.95296 0.0
H1026 H 0.96512 0.39536 0.95555 0.0
H1027 H 0.98747 0.37214 0.99079 0.0
H1028 H 0.08121 0.38604 0.99343 0.0
H1029 H 0.04845 0.38965 0.99612 0.0
H1030 H 0.02021 0.41687 0.96426 0.0
C1031 C 0.95688 0.39341 0.96395 0.0
C1032 C 0.99447 0.38222 0.98517 0.0
C1033 C 0.93828 0.3911 0.96245 0.0
C1034 C 0.07287 0.38826 0.98512 0.0
C1035 C 0.05414 0.39025 0.98665 0.0
C1036 C 0.01322 0.40711 0.97015 0.0
C1037 C 0.96482 0.39265 0.97608 0.0
C1038 C 0.98475 0.39425 0.9774 0.0
C1039 C 0.04292 0.39306 0.97603 0.0
C1040 C 0.02297 0.39445 0.97738 0.0
H1041 H 0.92668 0.38517 0.99353 0.0
H1042 H 0.95939 0.38915 0.99617 0.0
H1043 H 0.98723 0.4167 0.96427 0.0
H1044 H 0.07502 0.39231 0.95286 0.0
H1045 H 0.04252 0.39572 0.95551 0.0
C1046 C 0.88958 0.82011 0.21595 0.0
C1047 C 0.8772 0.83036 0.22305 0.0
C1048 C 0.8893 0.80127 0.2165 0.0
C1049 C 0.87355 0.76261 0.23571 0.0
H1050 H 0.87919 0.73656 0.20399 0.0
C1051 C 0.8639 0.68494 0.2311 0.0
C1052 C 0.8763 0.67582 0.22328 0.0
C1053 C 0.86385 0.70384 0.23164 0.0
C1054 C 0.87779 0.74361 0.21295 0.0
H1055 H 0.85499 0.82897 0.23647 0.0
H1056 H 0.8544 0.79595 0.23738 0.0
H1057 H 0.87938 0.76942 0.20392 0.0
H1058 H 0.89864 0.67924 0.21013 0.0
H1059 H 0.89867 0.71209 0.21116 0.0
H1060 H 0.87195 0.73667 0.24472 0.0
C1061 C 0.86443 0.80251 0.23146 0.0
C1062 C 0.8779 0.76246 0.21291 0.0
C1063 C 0.86471 0.8214 0.2309 0.0
C1064 C 0.88885 0.6859 0.2162 0.0
C1065 C 0.88879 0.70473 0.21673 0.0
C1066 C 0.87343 0.74369 0.23575 0.0
C1067 C 0.87661 0.79224 0.22417 0.0
C1068 C 0.87595 0.77218 0.22429 0.0
C1069 C 0.87617 0.71394 0.22434 0.0
C1070 C 0.87572 0.734 0.22438 0.0
H1071 H 0.89943 0.82663 0.20986 0.0
H1072 H 0.89907 0.79377 0.21094 0.0
H1073 H 0.87216 0.76971 0.24465 0.0
H1074 H 0.85406 0.67751 0.23666 0.0
H1075 H 0.85388 0.71055 0.23753 0.0
C1076 C 0.4362 0.61802 0.48191 0.0
C1077 C 0.42757 0.62837 0.4725 0.0
C1078 C 0.45512 0.61745 0.48257 0.0
C1079 C 0.49562 0.62562 0.46266 0.0
H1080 H 0.52133 0.62589 0.49477 0.0
C1081 C 0.57239 0.63702 0.46547 0.0
C1082 C 0.58228 0.62539 0.4734 0.0
C1083 C 0.55351 0.63713 0.46585 0.0
C1084 C 0.51431 0.62564 0.48574 0.0
H1085 H 0.43188 0.64666 0.45669 0.0
H1086 H 0.46469 0.64599 0.45801 0.0
H1087 H 0.48824 0.62664 0.49464 0.0
H1088 H 0.58022 0.60498 0.48812 0.0
H1089 H 0.54712 0.60526 0.48883 0.0
H1090 H 0.52163 0.62486 0.45376 0.0
C1091 C 0.45698 0.63795 0.46469 0.0
C1092 C 0.49537 0.62604 0.48566 0.0
C1093 C 0.43815 0.63844 0.46398 0.0
C1094 C 0.57293 0.61408 0.48189 0.0
C1095 C 0.55401 0.61429 0.48234 0.0
C1096 C 0.51449 0.62534 0.46274 0.0
C1097 C 0.46572 0.62726 0.47386 0.0
C1098 C 0.48582 0.6262 0.4741 0.0
C1099 C 0.54412 0.6257 0.47423 0.0
C1100 C 0.52405 0.62549 0.47427 0.0
H1101 H 0.42836 0.6101 0.48858 0.0
H1102 H 0.46143 0.60898 0.4897 0.0
H1103 H 0.48871 0.62529 0.45359 0.0
H1104 H 0.57923 0.64591 0.45886 0.0
H1105 H 0.54624 0.64623 0.4596 0.0
C1106 C 0.64311 0.18475 0.7305 0.0
C1107 C 0.63081 0.17571 0.72256 0.0
C1108 C 0.64345 0.20364 0.7309 0.0
C1109 C 0.63067 0.24347 0.71186 0.0
H1110 H 0.63534 0.26966 0.7436 0.0
C1111 C 0.61906 0.31999 0.71452 0.0
C1112 C 0.63124 0.33024 0.72178 0.0
C1113 C 0.61928 0.30116 0.71513 0.0
C1114 C 0.63423 0.26252 0.73465 0.0
H1115 H 0.60901 0.1793 0.709 0.0
H1116 H 0.6095 0.21218 0.70978 0.0
H1117 H 0.63527 0.23662 0.74373 0.0
H1118 H 0.653 0.32887 0.73555 0.0
H1119 H 0.65347 0.29584 0.73658 0.0
H1120 H 0.62962 0.26926 0.70275 0.0
C1121 C 0.61906 0.20473 0.71556 0.0
C1122 C 0.63419 0.24361 0.73473 0.0
C1123 C 0.61871 0.18589 0.71517 0.0
C1124 C 0.64344 0.3213 0.72985 0.0
C1125 C 0.64366 0.30241 0.73048 0.0
C1126 C 0.63072 0.26232 0.71178 0.0
C1127 C 0.63154 0.21383 0.72334 0.0
C1128 C 0.63222 0.23389 0.72333 0.0
C1129 C 0.63171 0.29213 0.72301 0.0
C1130 C 0.63231 0.27207 0.72318 0.0
H1131 H 0.65261 0.17723 0.73629 0.0
H1132 H 0.65331 0.21026 0.73692 0.0
H1133 H 0.62954 0.23639 0.70289 0.0
H1134 H 0.60942 0.32649 0.70825 0.0
H1135 H 0.60968 0.29366 0.70943 0.0
C1136 C 0.36559 0.32298 0.73451 0.0
C1137 C 0.37235 0.33092 0.72334 0.0
C1138 C 0.36435 0.30415 0.73556 0.0
C1139 C 0.36084 0.26337 0.71591 0.0
H1140 H 0.38054 0.23769 0.74491 0.0
C1141 C 0.37709 0.18811 0.7133 0.0
C1142 C 0.37319 0.17706 0.72379 0.0
C1143 C 0.37556 0.20683 0.71421 0.0
C1144 C 0.37471 0.24468 0.73685 0.0
H1145 H 0.38316 0.32546 0.70457 0.0
H1146 H 0.38086 0.29276 0.70637 0.0
H1147 H 0.38024 0.27078 0.74483 0.0
H1148 H 0.36483 0.17693 0.74353 0.0
H1149 H 0.36203 0.20987 0.74512 0.0
H1150 H 0.35539 0.23747 0.70785 0.0
C1151 C 0.37646 0.30102 0.71428 0.0
C1152 C 0.37456 0.2636 0.7368 0.0
C1153 C 0.37788 0.31974 0.71329 0.0
C1154 C 0.36793 0.18514 0.7353 0.0
C1155 C 0.36638 0.20397 0.73621 0.0
C1156 C 0.36089 0.24454 0.71599 0.0
C1157 C 0.36961 0.29302 0.72539 0.0
C1158 C 0.36803 0.2731 0.72618 0.0
C1159 C 0.37004 0.215 0.72562 0.0
C1160 C 0.36825 0.23496 0.7263 0.0
H1161 H 0.36126 0.3313 0.74241 0.0
H1162 H 0.35898 0.29832 0.74421 0.0
H1163 H 0.35538 0.27036 0.70771 0.0
H1164 H 0.38129 0.18231 0.70433 0.0
H1165 H 0.37887 0.21492 0.70596 0.0
C1166 C 0.14056 0.68464 0.23127 0.0
C1167 C 0.13189 0.67578 0.22116 0.0
C1168 C 0.14134 0.70354 0.23164 0.0
C1169 C 0.13924 0.74328 0.21078 0.0
H1170 H 0.12703 0.76984 0.24136 0.0
C1171 C 0.12582 0.81957 0.20961 0.0
C1172 C 0.13203 0.83021 0.21974 0.0
C1173 C 0.12667 0.80076 0.21026 0.0
C1174 C 0.13075 0.76263 0.2328 0.0
H1175 H 0.11716 0.67969 0.20355 0.0
H1176 H 0.11859 0.71257 0.20416 0.0
H1177 H 0.12707 0.73682 0.24169 0.0
H1178 H 0.14401 0.82954 0.23853 0.0
H1179 H 0.14578 0.79657 0.23961 0.0
H1180 H 0.14302 0.76892 0.20186 0.0
C1181 C 0.12487 0.70496 0.21177 0.0
C1182 C 0.13073 0.74372 0.23299 0.0
C1183 C 0.12395 0.68614 0.21146 0.0
C1184 C 0.13908 0.82166 0.23058 0.0
C1185 C 0.14001 0.80278 0.23122 0.0
C1186 C 0.13938 0.76213 0.2106 0.0
C1187 C 0.13362 0.71386 0.22182 0.0
C1188 C 0.13471 0.73387 0.22193 0.0
C1189 C 0.13387 0.79212 0.22103 0.0
C1190 C 0.13484 0.77205 0.22154 0.0
H1191 H 0.14679 0.67699 0.23888 0.0
H1192 H 0.14825 0.71005 0.23946 0.0
H1193 H 0.1427 0.73604 0.20218 0.0
H1194 H 0.12021 0.82576 0.20115 0.0
H1195 H 0.12147 0.79299 0.20234 0.0
C1196 C 0.14944 0.18412 0.77404 0.0
C1197 C 0.13267 0.1752 0.77427 0.0
C1198 C 0.15025 0.20286 0.7725 0.0
C1199 C 0.1233 0.24251 0.76205 0.0
H1200 H 0.1563 0.26912 0.78371 0.0
C1201 C 0.11706 0.31916 0.77124 0.0
C1202 C 0.13307 0.32931 0.77206 0.0
C1203 C 0.11776 0.30037 0.77006 0.0
C1204 C 0.1472 0.26189 0.77745 0.0
H1205 H 0.10363 0.17882 0.77288 0.0
H1206 H 0.105 0.21153 0.77037 0.0
H1207 H 0.15616 0.23623 0.78438 0.0
H1208 H 0.16237 0.32783 0.77196 0.0
H1209 H 0.16361 0.29499 0.76988 0.0
H1210 H 0.1141 0.26825 0.75534 0.0
C1211 C 0.11755 0.20406 0.7712 0.0
C1212 C 0.14713 0.24302 0.77783 0.0
C1213 C 0.11675 0.18533 0.77272 0.0
C1214 C 0.14981 0.32036 0.77137 0.0
C1215 C 0.15051 0.30155 0.77026 0.0
C1216 C 0.12334 0.26139 0.7617 0.0
C1217 C 0.1343 0.21308 0.77118 0.0
C1218 C 0.13505 0.23311 0.77022 0.0
C1219 C 0.1345 0.29133 0.76975 0.0
C1220 C 0.13518 0.27129 0.76949 0.0
H1221 H 0.16195 0.17664 0.77516 0.0
H1222 H 0.16338 0.20935 0.77235 0.0
H1223 H 0.11404 0.23528 0.75591 0.0
H1224 H 0.10396 0.3257 0.77175 0.0
H1225 H 0.10519 0.29288 0.76982 0.0
C1226 C 0.36713 0.68334 0.261 0.0
C1227 C 0.36373 0.67587 0.27304 0.0
C1228 C 0.3649 0.70191 0.25894 0.0
C1229 C 0.34311 0.74274 0.2723 0.0
H1230 H 0.38333 0.7686 0.25718 0.0
C1231 C 0.35662 0.81755 0.2823 0.0
C1232 C 0.3636 0.82857 0.27261 0.0
C1233 C 0.35428 0.79906 0.28032 0.0
C1234 C 0.37181 0.76159 0.26119 0.0
H1235 H 0.35487 0.6818 0.29224 0.0
H1236 H 0.35095 0.71402 0.28864 0.0
H1237 H 0.38333 0.73563 0.25722 0.0
H1238 H 0.37318 0.82901 0.25315 0.0
H1239 H 0.36903 0.79658 0.24967 0.0
H1240 H 0.3318 0.76864 0.27657 0.0
C1241 C 0.35524 0.70562 0.28077 0.0
C1242 C 0.37182 0.74269 0.26121 0.0
C1243 C 0.35762 0.68717 0.28286 0.0
C1244 C 0.36781 0.82081 0.2608 0.0
C1245 C 0.36551 0.80225 0.25882 0.0
C1246 C 0.34307 0.7616 0.27224 0.0
C1247 C 0.35902 0.71324 0.26884 0.0
C1248 C 0.35772 0.73309 0.2671 0.0
C1249 C 0.35888 0.79115 0.26862 0.0
C1250 C 0.35767 0.77124 0.26702 0.0
H1251 H 0.37185 0.67492 0.25327 0.0
H1252 H 0.36784 0.70741 0.24963 0.0
H1253 H 0.3319 0.73568 0.2767 0.0
H1254 H 0.35326 0.82313 0.29151 0.0
H1255 H 0.34942 0.79087 0.28814 0.0
C1256 C 0.43633 0.11748 0.51442 0.0
C1257 C 0.42677 0.10848 0.52407 0.0
C1258 C 0.455 0.115 0.51311 0.0
C1259 C 0.49445 0.1017 0.53236 0.0
H1260 H 0.51989 0.10264 0.50014 0.0
C1261 C 0.57144 0.09411 0.53042 0.0
C1262 C 0.58065 0.10695 0.52303 0.0
C1263 C 0.55276 0.09198 0.52925 0.0
C1264 C 0.51294 0.10243 0.5092 0.0
H1265 H 0.42897 0.08904 0.53939 0.0
H1266 H 0.4614 0.08435 0.53691 0.0
H1267 H 0.48678 0.1028 0.50042 0.0
H1268 H 0.5777 0.12701 0.50816 0.0
H1269 H 0.54493 0.1234 0.50617 0.0
H1270 H 0.52047 0.10155 0.54116 0.0
C1271 C 0.45464 0.09371 0.53058 0.0
C1272 C 0.494 0.10254 0.50937 0.0
C1273 C 0.43603 0.0963 0.53196 0.0
C1274 C 0.57094 0.11703 0.514 0.0
C1275 C 0.5522 0.1149 0.51282 0.0
C1276 C 0.51331 0.10151 0.53219 0.0
C1277 C 0.46444 0.10338 0.52136 0.0
C1278 C 0.48453 0.10228 0.52097 0.0
C1279 C 0.54286 0.10266 0.52067 0.0
C1280 C 0.52279 0.10196 0.52062 0.0
H1281 H 0.42952 0.12697 0.50821 0.0
H1282 H 0.46213 0.12278 0.50597 0.0
H1283 H 0.48765 0.10193 0.54148 0.0
H1284 H 0.57859 0.08604 0.53739 0.0
H1285 H 0.546 0.08222 0.53527 0.0
C1286 C 0.934 0.88462 0.009 0.0
C1287 C 0.92631 0.89467 0.01896 0.0
C1288 C 0.95242 0.88629 0.00616 0.0
C1289 C 0.99278 0.91509 0.01153 0.0
H1290 H 0.01921 0.86992 0.00942 0.0
C1291 C 0.06816 0.90894 0.02399 0.0
C1292 C 0.07893 0.89635 0.01748 0.0
C1293 C 0.04968 0.91028 0.02142 0.0
C1294 C 0.01206 0.88269 0.00971 0.0
H1295 H 0.93164 0.91488 0.03339 0.0
H1296 H 0.9637 0.91777 0.02846 0.0
H1297 H 0.98628 0.86955 0.00975 0.0
H1298 H 0.07901 0.87586 0.00276 0.0
H1299 H 0.04668 0.87832 0.99818 0.0
H1300 H 0.01859 0.9282 0.01185 0.0
C1301 C 0.95555 0.90868 0.02278 0.0
C1302 C 0.99315 0.88247 0.00991 0.0
C1303 C 0.9372 0.90693 0.02567 0.0
C1304 C 0.07102 0.88564 0.00797 0.0
C1305 C 0.05249 0.88698 0.0054 0.0
C1306 C 0.01169 0.91532 0.01129 0.0
C1307 C 0.96344 0.89815 0.01315 0.0
C1308 C 0.98332 0.89863 0.01115 0.0
C1309 C 0.04154 0.89907 0.01228 0.0
C1310 C 0.02155 0.89909 0.01071 0.0
H1311 H 0.92592 0.87508 0.00365 0.0
H1312 H 0.9581 0.87811 0.99861 0.0
H1313 H 0.98556 0.92779 0.01228 0.0
H1314 H 0.07388 0.91737 0.03137 0.0
H1315 H 0.04163 0.91957 0.02702 0.0
C1316 C 0.43796 0.89169 0.46364 0.0
C1317 C 0.42647 0.88846 0.47401 0.0
C1318 C 0.45655 0.89355 0.46542 0.0
C1319 C 0.4934 0.8809 0.48689 0.0
H1320 H 0.52021 0.91544 0.46655 0.0
C1321 C 0.57211 0.88573 0.48689 0.0
C1322 C 0.57974 0.88607 0.47465 0.0
C1323 C 0.55341 0.88789 0.48851 0.0
C1324 C 0.51291 0.90573 0.4723 0.0
H1325 H 0.42538 0.88483 0.49443 0.0
H1326 H 0.4581 0.88807 0.49758 0.0
H1327 H 0.48724 0.91616 0.46646 0.0
H1328 H 0.57387 0.88906 0.45457 0.0
H1329 H 0.54144 0.89286 0.45739 0.0
H1330 H 0.51919 0.87022 0.49247 0.0
C1331 C 0.45264 0.88909 0.48805 0.0
C1332 C 0.49404 0.90613 0.47224 0.0
C1333 C 0.43394 0.88731 0.48626 0.0
C1334 C 0.5684 0.88875 0.46412 0.0
C1335 C 0.54983 0.89106 0.46574 0.0
C1336 C 0.51234 0.88053 0.48697 0.0
C1337 C 0.46414 0.8922 0.47763 0.0
C1338 C 0.48406 0.89338 0.47922 0.0
C1339 C 0.54211 0.89065 0.47793 0.0
C1340 C 0.52225 0.89261 0.47937 0.0
H1341 H 0.43262 0.89261 0.45407 0.0
H1342 H 0.46505 0.89562 0.45716 0.0
H1343 H 0.48609 0.87084 0.49231 0.0
H1344 H 0.58056 0.88368 0.49517 0.0
H1345 H 0.54781 0.88754 0.49801 0.0
C1346 C 0.07158 0.12183 0.98234 0.0
C1347 C 0.08146 0.11604 0.97168 0.0
C1348 C 0.05275 0.12007 0.98264 0.0
C1349 C 0.01388 0.11723 0.96116 0.0
H1350 H 0.98743 0.10213 0.99117 0.0
C1351 C 0.93681 0.10857 0.95987 0.0
C1352 C 0.92692 0.11508 0.9703 0.0
C1353 C 0.9556 0.10705 0.96051 0.0
C1354 C 0.99462 0.10654 0.98275 0.0
H1355 H 0.07948 0.10338 0.95316 0.0
H1356 H 0.04662 0.1003 0.95369 0.0
H1357 H 0.02052 0.10239 0.99147 0.0
H1358 H 0.92885 0.1247 0.98969 0.0
H1359 H 0.96182 0.12243 0.99074 0.0
H1360 H 0.98816 0.12179 0.9525 0.0
C1361 C 0.0534 0.10636 0.96175 0.0
C1362 C 0.01355 0.10665 0.98292 0.0
C1363 C 0.07222 0.10805 0.96148 0.0
C1364 C 0.93615 0.11961 0.98151 0.0
C1365 C 0.95502 0.11822 0.98212 0.0
C1366 C 0.995 0.11722 0.96101 0.0
C1367 C 0.04344 0.11257 0.97226 0.0
C1368 C 0.02337 0.11199 0.97212 0.0
C1369 C 0.96499 0.11217 0.97155 0.0
C1370 C 0.98512 0.11186 0.97179 0.0
H1371 H 0.07836 0.12803 0.99035 0.0
H1372 H 0.04543 0.12511 0.99082 0.0
H1373 H 0.02104 0.12175 0.95276 0.0
H1374 H 0.93004 0.1048 0.95114 0.0
H1375 H 0.96279 0.10195 0.95229 0.0
C1376 C 0.15351 0.44616 0.96989 0.0
C1377 C 0.15475 0.43183 0.97861 0.0
C1378 C 0.15673 0.46392 0.97371 0.0
C1379 C 0.17625 0.49266 0.99907 0.0
H1380 H 0.14058 0.52712 0.98709 0.0
C1381 C 0.16549 0.56337 0.02158 0.0
C1382 C 0.15926 0.57754 0.01381 0.0
C1383 C 0.16801 0.54602 0.0166 0.0
C1384 C 0.15091 0.51782 0.99034 0.0
H1385 H 0.16108 0.42483 0.9981 0.0
H1386 H 0.1666 0.45606 0.00486 0.0
H1387 H 0.13914 0.49598 0.97997 0.0
H1388 H 0.15207 0.58492 0.99455 0.0
H1389 H 0.15694 0.5548 0.98576 0.0
H1390 H 0.18787 0.51459 0.00958 0.0
C1391 C 0.16324 0.45347 0.99501 0.0
C1392 C 0.15004 0.49989 0.98628 0.0
C1393 C 0.16004 0.43559 0.99116 0.0
C1394 C 0.15679 0.57428 0.00079 0.0
C1395 C 0.15941 0.55695 0.99579 0.0
C1396 C 0.17717 0.51069 0.00311 0.0
C1397 C 0.16121 0.46788 0.98638 0.0
C1398 C 0.16264 0.48704 0.99061 0.0
C1399 C 0.16444 0.54244 0.00371 0.0
C1400 C 0.16444 0.5235 0.99884 0.0
H1401 H 0.14964 0.44372 0.96012 0.0
H1402 H 0.15541 0.47463 0.96675 0.0
H1403 H 0.18627 0.48314 0.00249 0.0
H1404 H 0.16749 0.56543 0.03167 0.0
H1405 H 0.17178 0.53523 0.02302 0.0
C1406 C 0.81447 0.91199 0.22675 0.0
C1407 C 0.82881 0.9074 0.23492 0.0
C1408 C 0.79691 0.91421 0.23147 0.0
C1409 C 0.76881 0.89927 0.25845 0.0
H1410 H 0.73342 0.93249 0.24445 0.0
C1411 C 0.69688 0.90237 0.27862 0.0
C1412 C 0.68255 0.90262 0.26985 0.0
C1413 C 0.71463 0.90554 0.27467 0.0
C1414 C 0.74313 0.92307 0.24839 0.0
H1415 H 0.83617 0.90263 0.25456 0.0
H1416 H 0.80561 0.90691 0.26286 0.0
H1417 H 0.7649 0.93396 0.23732 0.0
H1418 H 0.67548 0.90713 0.25013 0.0
H1419 H 0.70668 0.9125 0.24315 0.0
H1420 H 0.74714 0.8882 0.26938 0.0
C1421 C 0.80784 0.90837 0.25275 0.0
C1422 C 0.76118 0.92391 0.24432 0.0
C1423 C 0.8254 0.90607 0.24801 0.0
C1424 C 0.68626 0.90688 0.2571 0.0
C1425 C 0.70412 0.91 0.25312 0.0
C1426 C 0.75085 0.89846 0.26252 0.0
C1427 C 0.79327 0.91195 0.24449 0.0
C1428 C 0.77425 0.91196 0.24927 0.0
C1429 C 0.71856 0.90894 0.26183 0.0
C1430 C 0.73775 0.9103 0.25755 0.0
H1431 H 0.81664 0.91308 0.2166 0.0
H1432 H 0.78606 0.91681 0.2248 0.0
H1433 H 0.77833 0.88955 0.26226 0.0
H1434 H 0.69446 0.89932 0.28854 0.0
H1435 H 0.72534 0.90503 0.28169 0.0
C1436 C 0.35396 0.43519 0.50196 0.0
C1437 C 0.34948 0.43045 0.51449 0.0
C1438 C 0.35125 0.45285 0.49758 0.0
C1439 C 0.34771 0.49943 0.51001 0.0
H1440 H 0.33699 0.51106 0.4749 0.0
C1441 C 0.34638 0.57335 0.4915 0.0
C1442 C 0.35579 0.57621 0.48007 0.0
C1443 C 0.34264 0.55575 0.4957 0.0
C1444 C 0.34004 0.50804 0.48474 0.0
H1445 H 0.33761 0.44023 0.53203 0.0
H1446 H 0.33248 0.4709 0.52432 0.0
H1447 H 0.33516 0.47977 0.48209 0.0
H1448 H 0.36827 0.56286 0.46395 0.0
H1449 H 0.36179 0.53236 0.47123 0.0
H1450 H 0.35288 0.52767 0.5126 0.0
C1451 C 0.3385 0.46111 0.51794 0.0
C1452 C 0.33902 0.49008 0.48886 0.0
C1453 C 0.34128 0.44347 0.52233 0.0
C1454 C 0.36099 0.56114 0.4728 0.0
C1455 C 0.35716 0.54363 0.47693 0.0
C1456 C 0.34866 0.5174 0.5059 0.0
C1457 C 0.34392 0.46618 0.50563 0.0
C1458 C 0.34317 0.48548 0.5015 0.0
C1459 C 0.34809 0.54067 0.48848 0.0
C1460 C 0.34518 0.52188 0.49316 0.0
H1461 H 0.36039 0.4255 0.4957 0.0
H1462 H 0.35575 0.45624 0.48809 0.0
H1463 H 0.35128 0.49643 0.51976 0.0
H1464 H 0.34218 0.58469 0.4973 0.0
H1465 H 0.33551 0.55393 0.5046 0.0
C1466 C 0.82268 0.09522 0.75476 0.0
C1467 C 0.82567 0.10104 0.76729 0.0
C1468 C 0.80507 0.09154 0.75049 0.0
C1469 C 0.75763 0.08401 0.76191 0.0
H1470 H 0.74455 0.10269 0.72876 0.0
C1471 C 0.68402 0.10081 0.747 0.0
C1472 C 0.67887 0.09739 0.73438 0.0
C1473 C 0.70189 0.09786 0.75094 0.0
C1474 C 0.74801 0.09713 0.73797 0.0
H1475 H 0.81259 0.10699 0.78526 0.0
H1476 H 0.78214 0.1009 0.77784 0.0
H1477 H 0.77602 0.10356 0.73557 0.0
H1478 H 0.68824 0.08742 0.71615 0.0
H1479 H 0.71935 0.08226 0.72304 0.0
H1480 H 0.72942 0.07821 0.76444 0.0
C1481 C 0.79327 0.09888 0.7713 0.0
C1482 C 0.76611 0.09759 0.74187 0.0
C1483 C 0.81079 0.10252 0.77555 0.0
C1484 C 0.69177 0.09021 0.72594 0.0
C1485 C 0.70964 0.08738 0.72986 0.0
C1486 C 0.7395 0.08367 0.75804 0.0
C1487 C 0.79009 0.09359 0.75867 0.0
C1488 C 0.77114 0.09131 0.75399 0.0
C1489 C 0.71502 0.09154 0.74232 0.0
C1490 C 0.73444 0.09047 0.74609 0.0
H1491 H 0.83388 0.09394 0.74818 0.0
H1492 H 0.80318 0.08727 0.74074 0.0
H1493 H 0.76101 0.07872 0.77121 0.0
H1494 H 0.67443 0.10641 0.75371 0.0
H1495 H 0.70561 0.10132 0.76059 0.0
C1496 C 0.84327 0.56142 0.02226 0.0
C1497 C 0.849 0.57562 0.01434 0.0
C1498 C 0.84064 0.54405 0.01735 0.0
C1499 C 0.85653 0.5159 0.99067 0.0
H1500 H 0.82205 0.48107 0.00376 0.0
C1501 C 0.85338 0.44419 0.97037 0.0
C1502 C 0.85274 0.42988 0.97914 0.0
C1503 C 0.85019 0.46193 0.97424 0.0
C1504 C 0.83181 0.49063 7e-05 0.0
H1505 H 0.85518 0.58303 0.99491 0.0
H1506 H 0.85011 0.55286 0.98626 0.0
H1507 H 0.82063 0.51252 0.01087 0.0
H1508 H 0.84748 0.42289 0.99878 0.0
H1509 H 0.842 0.4541 0.00563 0.0
H1510 H 0.86786 0.49411 0.98 0.0
C1511 C 0.84813 0.555 0.99634 0.0
C1512 C 0.83101 0.50867 0.00413 0.0
C1513 C 0.85086 0.57236 0.00127 0.0
C1514 C 0.84805 0.43364 0.9918 0.0
C1515 C 0.84487 0.4515 0.99571 0.0
C1516 C 0.85728 0.49797 0.98659 0.0
C1517 C 0.84359 0.54048 0.00439 0.0
C1518 C 0.84343 0.52153 -0.00048 0.0
C1519 C 0.84634 0.4659 0.98701 0.0
C1520 C 0.84499 0.48507 0.99126 0.0
H1521 H 0.84174 0.56347 0.03239 0.0
H1522 H 0.83727 0.53324 0.02387 0.0
H1523 H 0.86663 0.52524 0.98714 0.0
H1524 H 0.85678 0.44175 0.9605 0.0
H1525 H 0.85105 0.47263 0.96724 0.0
C1526 C 0.1909 0.09133 0.77323 0.0
C1527 C 0.17789 0.0995 0.76536 0.0
C1528 C 0.20867 0.08881 0.76898 0.0
C1529 C 0.23789 0.08931 0.74006 0.0
H1530 H 0.27556 0.10271 0.76391 0.0
C1531 C 0.30943 0.10994 0.72406 0.0
C1532 C 0.32444 0.10485 0.73145 0.0
C1533 C 0.29183 0.10636 0.72818 0.0
C1534 C 0.26527 0.09861 0.75718 0.0
H1535 H 0.17316 0.11077 0.74665 0.0
H1536 H 0.20415 0.10653 0.73924 0.0
H1537 H 0.24418 0.10154 0.77096 0.0
H1538 H 0.33274 0.09165 0.74887 0.0
H1539 H 0.30182 0.08535 0.75613 0.0
H1540 H 0.25897 0.08685 0.7262 0.0
C1541 C 0.20063 0.10187 0.74867 0.0
C1542 C 0.24722 0.09793 0.76123 0.0
C1543 C 0.18284 0.10436 0.75293 0.0
C1544 C 0.32145 0.09574 0.74297 0.0
C1545 C 0.30375 0.09223 0.74715 0.0
C1546 C 0.25592 0.09003 0.73601 0.0
C1547 C 0.21389 0.09443 0.75674 0.0
C1548 C 0.23325 0.09356 0.75267 0.0
C1549 C 0.28872 0.09762 0.73983 0.0
C1550 C 0.26981 0.095 0.74446 0.0
H1551 H 0.18751 0.08739 0.78285 0.0
H1552 H 0.21841 0.08273 0.77537 0.0
H1553 H 0.22755 0.08557 0.73326 0.0
H1554 H 0.31124 0.11699 0.71513 0.0
H1555 H 0.28063 0.11095 0.72238 0.0
C1556 C 0.67204 0.43826 0.51953 0.0
C1557 C 0.65948 0.42794 0.51261 0.0
C1558 C 0.67619 0.45595 0.51581 0.0
C1559 C 0.67044 0.48949 0.48948 0.0
H1560 H 0.67132 0.52426 0.51701 0.0
C1561 C 0.6734 0.56601 0.47924 0.0
C1562 C 0.66151 0.57676 0.48642 0.0
C1563 C 0.67697 0.54813 0.48281 0.0
C1564 C 0.67107 0.51475 0.5092 0.0
H1565 H 0.64215 0.42777 0.496 0.0
H1566 H 0.64913 0.45857 0.48963 0.0
H1567 H 0.67047 0.49212 0.52182 0.0
H1568 H 0.64467 0.57745 0.50327 0.0
H1569 H 0.65062 0.54631 0.50939 0.0
H1570 H 0.66999 0.51214 0.47687 0.0
C1571 C 0.65601 0.45303 0.49783 0.0
C1572 C 0.67084 0.49626 0.51195 0.0
C1573 C 0.65194 0.43533 0.50151 0.0
C1574 C 0.65397 0.56955 0.49757 0.0
C1575 C 0.65745 0.55166 0.5011 0.0
C1576 C 0.67057 0.50799 0.48673 0.0
C1577 C 0.66781 0.46377 0.50512 0.0
C1578 C 0.67017 0.48336 0.50213 0.0
C1579 C 0.66866 0.54055 0.4936 0.0
C1580 C 0.67054 0.52089 0.49655 0.0
H1581 H 0.67812 0.43293 0.52811 0.0
H1582 H 0.68561 0.46367 0.52152 0.0
H1583 H 0.67019 0.47998 0.48166 0.0
H1584 H 0.67947 0.5712 0.47062 0.0
H1585 H 0.68594 0.54012 0.47694 0.0
C1586 C 0.19557 0.90111 0.22039 0.0
C1587 C 0.18113 0.90218 0.22904 0.0
C1588 C 0.21336 0.9039 0.2244 0.0
C1589 C 0.24168 0.92104 0.25114 0.0
H1590 H 0.27719 0.8883 0.23676 0.0
C1591 C 0.31191 0.90689 0.27355 0.0
C1592 C 0.3267 0.90393 0.26541 0.0
C1593 C 0.29454 0.90963 0.26864 0.0
C1594 C 0.26754 0.89777 0.24072 0.0
H1595 H 0.17394 0.90755 0.24862 0.0
H1596 H 0.20515 0.91199 0.25577 0.0
H1597 H 0.2461 0.88725 0.22934 0.0
H1598 H 0.33502 0.90237 0.2457 0.0
H1599 H 0.30465 0.9072 0.23709 0.0
H1600 H 0.26322 0.93111 0.26283 0.0
C1601 C 0.2027 0.9093 0.24581 0.0
C1602 C 0.24965 0.89718 0.23646 0.0
C1603 C 0.18481 0.90669 0.24174 0.0
C1604 C 0.3239 0.90461 0.25222 0.0
C1605 C 0.30648 0.90724 0.2473 0.0
C1606 C 0.25962 0.92155 0.25547 0.0
C1607 C 0.21725 0.9076 0.23722 0.0
C1608 C 0.23643 0.90876 0.24162 0.0
C1609 C 0.29153 0.90936 0.25546 0.0
C1610 C 0.27274 0.90985 0.25034 0.0
H1611 H 0.19317 0.89786 0.2105 0.0
H1612 H 0.2241 0.90294 0.21744 0.0
H1613 H 0.23196 0.93033 0.25522 0.0
H1614 H 0.31363 0.90645 0.28377 0.0
H1615 H 0.28334 0.91109 0.2752 0.0
C1616 C 0.66942 0.06268 0.52238 0.0
C1617 C 0.66013 0.07513 0.51468 0.0
C1618 C 0.67301 0.04518 0.51801 0.0
C1619 C 0.67312 0.01596 0.48917 0.0
H1620 H 0.65968 0.97822 0.51294 0.0
C1621 C 0.65042 0.94546 0.47304 0.0
C1622 C 0.65492 0.93021 0.48035 0.0
C1623 C 0.65493 0.96279 0.47715 0.0
C1624 C 0.66385 0.98852 0.50624 0.0
H1625 H 0.64828 0.07933 0.49608 0.0
H1626 H 0.65448 0.04887 0.48845 0.0
H1627 H 0.66101 0.00948 0.52009 0.0
H1628 H 0.66813 0.92117 0.49759 0.0
H1629 H 0.67606 0.95166 0.50486 0.0
H1630 H 0.67541 0.99502 0.47522 0.0
C1631 C 0.65911 0.05259 0.49785 0.0
C1632 C 0.66461 0.00649 0.51034 0.0
C1633 C 0.6555 0.07008 0.50224 0.0
C1634 C 0.66448 0.93267 0.49176 0.0
C1635 C 0.66893 0.95012 0.49594 0.0
C1636 C 0.67236 0.99799 0.48507 0.0
C1637 C 0.66743 0.03975 0.50582 0.0
C1638 C 0.66886 0.02049 0.50179 0.0
C1639 C 0.66403 0.96541 0.48873 0.0
C1640 C 0.66728 0.9841 0.49348 0.0
H1641 H 0.67321 0.06617 0.53201 0.0
H1642 H 0.67973 0.03575 0.52431 0.0
H1643 H 0.67675 0.02635 0.48238 0.0
H1644 H 0.64306 0.94405 0.46419 0.0
H1645 H 0.65069 0.97421 0.47144 0.0
C1646 C 0.19476 0.40615 0.77495 0.0
C1647 C 0.18004 0.40541 0.76651 0.0
C1648 C 0.21225 0.40952 0.77052 0.0
C1649 C 0.23984 0.40638 0.7412 0.0
H1650 H 0.27583 0.43023 0.76213 0.0
C1651 C 0.31362 0.41479 0.72437 0.0
C1652 C 0.32689 0.40906 0.73307 0.0
C1653 C 0.2957 0.41736 0.72826 0.0
C1654 C 0.26594 0.42351 0.75619 0.0
H1655 H 0.17206 0.40838 0.74682 0.0
H1656 H 0.20262 0.41475 0.73906 0.0
H1657 H 0.24425 0.4298 0.76892 0.0
H1658 H 0.33192 0.40241 0.7528 0.0
H1659 H 0.30062 0.40715 0.75965 0.0
H1660 H 0.26159 0.40011 0.72849 0.0
C1661 C 0.20069 0.41232 0.74911 0.0
C1662 C 0.24781 0.4232 0.76009 0.0
C1663 C 0.18312 0.40882 0.75356 0.0
C1664 C 0.32203 0.40688 0.74589 0.0
C1665 C 0.3041 0.40962 0.74981 0.0
C1666 C 0.25792 0.40686 0.73725 0.0
C1667 C 0.21556 0.41238 0.75751 0.0
C1668 C 0.23454 0.41434 0.75276 0.0
C1669 C 0.29064 0.41442 0.74097 0.0
C1670 C 0.27124 0.41519 0.74479 0.0
H1671 H 0.19288 0.40353 0.78499 0.0
H1672 H 0.22328 0.40915 0.77729 0.0
H1673 H 0.23017 0.39916 0.73539 0.0
H1674 H 0.3169 0.4166 0.71442 0.0
H1675 H 0.28571 0.4213 0.72126 0.0
C1676 C 0.85002 0.93428 0.00313 0.0
C1677 C 0.84743 0.92963 0.01595 0.0
C1678 C 0.84653 0.95188 0.99891 0.0
C1679 C 0.84597 0.9983 0.01122 0.0
H1680 H 0.8279 0.01014 0.97767 0.0
C1681 C 0.8452 0.07206 0.99273 0.0
C1682 C 0.85156 0.07431 0.98025 0.0
C1683 C 0.84111 0.05476 0.99737 0.0
C1684 C 0.83305 0.00707 0.98706 0.0
H1685 H 0.83809 0.9395 0.0342 0.0
H1686 H 0.83185 0.97013 0.02681 0.0
H1687 H 0.82691 0.9789 0.98509 0.0
H1688 H 0.85809 0.06026 0.96275 0.0
H1689 H 0.85122 0.03034 0.97082 0.0
H1690 H 0.8527 0.02629 0.01306 0.0
C1691 C 0.83685 0.96026 0.02006 0.0
C1692 C 0.83246 0.98915 0.99131 0.0
C1693 C 0.84028 0.94266 0.02427 0.0
C1694 C 0.8532 0.05902 0.97242 0.0
C1695 C 0.84912 0.04181 0.97703 0.0
C1696 C 0.84663 0.01619 0.00696 0.0
C1697 C 0.84041 0.96523 0.00741 0.0
C1698 C 0.83921 0.98449 0.00335 0.0
C1699 C 0.84325 0.03938 0.98961 0.0
C1700 C 0.84052 0.02077 0.99472 0.0
H1701 H 0.85557 0.92457 0.99649 0.0
H1702 H 0.84955 0.95526 0.98912 0.0
H1703 H 0.85152 0.99517 0.02048 0.0
H1704 H 0.84378 0.08359 0.99898 0.0
H1705 H 0.83643 0.05341 0.00708 0.0
C1706 C 0.32109 0.59425 0.256 0.0
C1707 C 0.32378 0.60104 0.26832 0.0
C1708 C 0.30357 0.59029 0.25166 0.0
C1709 C 0.25586 0.58383 0.26283 0.0
H1710 H 0.24349 0.60036 0.22899 0.0
C1711 C 0.1829 0.6012 0.24702 0.0
C1712 C 0.17774 0.59708 0.23451 0.0
C1713 C 0.20065 0.59803 0.25113 0.0
C1714 C 0.24676 0.59539 0.23839 0.0
H1715 H 0.31027 0.60846 0.28586 0.0
H1716 H 0.28001 0.60189 0.27832 0.0
H1717 H 0.27489 0.60131 0.23599 0.0
H1718 H 0.18692 0.58562 0.21667 0.0
H1719 H 0.21784 0.58009 0.22384 0.0
H1720 H 0.22755 0.57859 0.26536 0.0
C1721 C 0.29128 0.59931 0.272 0.0
C1722 C 0.2648 0.59589 0.24241 0.0
C1723 C 0.3087 0.60322 0.27631 0.0
C1724 C 0.19046 0.58897 0.22637 0.0
C1725 C 0.20823 0.58592 0.23044 0.0
C1726 C 0.2378 0.58346 0.25884 0.0
C1727 C 0.28841 0.59302 0.25957 0.0
C1728 C 0.26956 0.59045 0.25477 0.0
C1729 C 0.21364 0.59079 0.24278 0.0
C1730 C 0.23299 0.58952 0.24665 0.0
H1731 H 0.33245 0.59242 0.24962 0.0
H1732 H 0.3019 0.58527 0.24207 0.0
H1733 H 0.25904 0.57918 0.27232 0.0
H1734 H 0.17343 0.60752 0.2535 0.0
H1735 H 0.2044 0.60206 0.26066 0.0
C1736 C 0.34617 0.06156 0.52393 0.0
C1737 C 0.35029 0.07626 0.51598 0.0
C1738 C 0.34328 0.04435 0.51885 0.0
C1739 C 0.35595 0.01743 0.49086 0.0
H1740 H 0.32324 0.98196 0.5053 0.0
C1741 C 0.35226 0.94565 0.4705 0.0
C1742 C 0.35221 0.93132 0.47926 0.0
C1743 C 0.34918 0.96337 0.47449 0.0
C1744 C 0.33252 0.99168 0.50122 0.0
H1745 H 0.35359 0.08465 0.4964 0.0
H1746 H 0.34826 0.05463 0.48747 0.0
H1747 H 0.32236 0.01319 0.51285 0.0
H1748 H 0.34817 0.92425 0.49903 0.0
H1749 H 0.34299 0.95537 0.50609 0.0
H1750 H 0.36638 0.99598 0.47942 0.0
C1751 C 0.34759 0.05634 0.49768 0.0
C1752 C 0.33201 0.00959 0.50553 0.0
C1753 C 0.35049 0.07358 0.50277 0.0
C1754 C 0.34825 0.93502 0.49206 0.0
C1755 C 0.34524 0.95284 0.49608 0.0
C1756 C 0.35646 0.99958 0.48656 0.0
C1757 C 0.34444 0.04141 0.50568 0.0
C1758 C 0.34382 0.02267 0.50047 0.0
C1759 C 0.34608 0.96729 0.48737 0.0
C1760 C 0.34484 0.98643 0.49172 0.0
H1761 H 0.34593 0.06317 0.53416 0.0
H1762 H 0.34105 0.0332 0.52532 0.0
H1763 H 0.36554 0.02698 0.48693 0.0
H1764 H 0.35509 0.94324 0.46054 0.0
H1765 H 0.34953 0.97408 0.46747 0.0
C1766 C 0.68494 0.59725 0.25554 0.0
C1767 C 0.68053 0.59617 0.2685 0.0
C1768 C 0.70277 0.59434 0.25145 0.0
C1769 C 0.74908 0.59914 0.26314 0.0
H1770 H 0.76275 0.57243 0.23296 0.0
C1771 C 0.82365 0.59651 0.24694 0.0
C1772 C 0.82678 0.59802 0.23382 0.0
C1773 C 0.80617 0.59318 0.25156 0.0
C1774 C 0.75918 0.58011 0.24135 0.0
H1775 H 0.69118 0.59033 0.28727 0.0
H1776 H 0.72218 0.58536 0.28016 0.0
H1777 H 0.73122 0.57248 0.23994 0.0
H1778 H 0.81414 0.59665 0.21526 0.0
H1779 H 0.7838 0.59144 0.22323 0.0
H1780 H 0.77668 0.60749 0.26433 0.0
C1781 C 0.71192 0.58858 0.27316 0.0
C1782 C 0.7411 0.58006 0.24536 0.0
C1783 C 0.69412 0.59132 0.27721 0.0
C1784 C 0.81221 0.59549 0.22543 0.0
C1785 C 0.79475 0.59238 0.23003 0.0
C1786 C 0.76708 0.59939 0.25905 0.0
C1787 C 0.71654 0.59046 0.26028 0.0
C1788 C 0.73583 0.58966 0.25626 0.0
C1789 C 0.79138 0.5915 0.24317 0.0
C1790 C 0.77241 0.59001 0.24804 0.0
H1791 H 0.67478 0.60101 0.24861 0.0
H1792 H 0.70594 0.59596 0.24147 0.0
H1793 H 0.74541 0.60689 0.27147 0.0
H1794 H 0.83461 0.59832 0.25364 0.0
H1795 H 0.80422 0.59221 0.26173 0.0
C1796 C 0.15135 0.938 0.00248 0.0
C1797 C 0.15752 0.93114 0.01415 0.0
C1798 C 0.15536 0.95575 0.99886 0.0
C1799 C 0.16646 0.99968 0.0135 0.0
H1800 H 0.17065 0.01518 0.97845 0.0
C1801 C 0.14886 0.07186 0.99725 0.0
C1802 C 0.1583 0.07957 0.98701 0.0
C1803 C 0.15242 0.05412 0.00108 0.0
C1804 C 0.16979 0.01112 0.98831 0.0
H1805 H 0.17376 0.9371 0.03077 0.0
H1806 H 0.18114 0.9679 0.02432 0.0
H1807 H 0.17111 0.98303 0.98348 0.0
H1808 H 0.17951 0.07501 0.97315 0.0
H1809 H 0.18593 0.04407 0.97996 0.0
H1810 H 0.1651 0.02773 0.01833 0.0
C1811 C 0.17282 0.95975 0.0181 0.0
C1812 C 0.16983 0.99264 0.99119 0.0
C1813 C 0.16872 0.94202 0.02174 0.0
C1814 C 0.172 0.06945 0.98107 0.0
C1815 C 0.17556 0.05166 0.9849 0.0
C1816 C 0.16646 0.01813 0.01063 0.0
C1817 C 0.16572 0.96704 0.00679 0.0
C1818 C 0.16779 0.98666 0.0038 0.0
C1819 C 0.16553 0.04363 0.99478 0.0
C1820 C 0.16773 0.0241 0.99797 0.0
H1821 H 0.14261 0.92999 0.99644 0.0
H1822 H 0.1495 0.9609 0.99015 0.0
H1823 H 0.16468 0.99564 0.02331 0.0
H1824 H 0.13817 0.07927 0.00199 0.0
H1825 H 0.14427 0.04838 0.00861 0.0
C1826 C 0.81337 0.40815 0.77619 0.0
C1827 C 0.82734 0.40529 0.76735 0.0
C1828 C 0.79559 0.411 0.77215 0.0
C1829 C 0.76688 0.42274 0.74448 0.0
H1830 H 0.73094 0.39396 0.76211 0.0
C1831 C 0.69561 0.40924 0.7239 0.0
C1832 C 0.68096 0.40669 0.73224 0.0
C1833 C 0.71313 0.41179 0.72857 0.0
C1834 C 0.74066 0.4024 0.75721 0.0
H1835 H 0.83371 0.40397 0.74728 0.0
H1836 H 0.80253 0.40899 0.74017 0.0
H1837 H 0.76217 0.39359 0.76933 0.0
H1838 H 0.67311 0.40572 0.75205 0.0
H1839 H 0.70366 0.41067 0.76026 0.0
H1840 H 0.74536 0.43151 0.73232 0.0
C1841 C 0.80539 0.40909 0.75026 0.0
C1842 C 0.75864 0.40213 0.76134 0.0
C1843 C 0.82325 0.40618 0.75432 0.0
C1844 C 0.68412 0.40759 0.74538 0.0
C1845 C 0.70168 0.41026 0.75007 0.0
C1846 C 0.74883 0.42312 0.74039 0.0
C1847 C 0.79128 0.41109 0.75915 0.0
C1848 C 0.77202 0.41217 0.75498 0.0
C1849 C 0.7165 0.41198 0.74172 0.0
C1850 C 0.73549 0.41279 0.74662 0.0
H1851 H 0.81607 0.40766 0.7863 0.0
H1852 H 0.78513 0.41283 0.77924 0.0
H1853 H 0.77681 0.4308 0.73946 0.0
H1854 H 0.69367 0.40856 0.71371 0.0
H1855 H 0.72414 0.41283 0.72181 0.0
C1856 C 0.12846 0.81889 0.02857 0.0
C1857 C 0.14212 0.83094 0.02478 0.0
C1858 C 0.1305 0.80033 0.0269 0.0
C1859 C 0.1633 0.76375 0.02373 0.0
H1860 H 0.12127 0.73758 0.0116 0.0
C1861 C 0.15931 0.68463 0.02021 0.0
C1862 C 0.14325 0.67732 0.02521 0.0
C1863 C 0.16108 0.70339 0.0185 0.0
C1864 C 0.13314 0.74465 0.01501 0.0
H1865 H 0.16885 0.83286 0.01643 0.0
H1866 H 0.17253 0.80001 0.01361 0.0
H1867 H 0.12109 0.77046 0.01154 0.0
H1868 H 0.11654 0.68399 0.03239 0.0
H1869 H 0.1196 0.71632 0.02944 0.0
H1870 H 0.17508 0.73775 0.02757 0.0
C1871 C 0.1602 0.80514 0.01783 0.0
C1872 C 0.13304 0.7635 0.01497 0.0
C1873 C 0.15807 0.8239 0.0194 0.0
C1874 C 0.12907 0.68911 0.02846 0.0
C1875 C 0.13078 0.70769 0.02668 0.0
C1876 C 0.16339 0.74477 0.0238 0.0
C1877 C 0.1463 0.79319 0.02145 0.0
C1878 C 0.14786 0.77329 0.0197 0.0
C1879 C 0.14673 0.71511 0.02162 0.0
C1880 C 0.14805 0.73503 0.01982 0.0
H1881 H 0.11603 0.82379 0.0328 0.0
H1882 H 0.11968 0.7915 0.03001 0.0
H1883 H 0.17492 0.77093 0.02745 0.0
H1884 H 0.17049 0.67588 0.01765 0.0
H1885 H 0.17354 0.70871 0.01457 0.0
C1886 C 0.56999 0.8892 0.26234 0.0
C1887 C 0.58069 0.90111 0.26951 0.0
C1888 C 0.55146 0.89231 0.26081 0.0
C1889 C 0.51329 0.91484 0.27684 0.0
H1890 H 0.48721 0.90009 0.24662 0.0
C1891 C 0.43482 0.91519 0.27466 0.0
C1892 C 0.42722 0.89911 0.26999 0.0
C1893 C 0.45336 0.91867 0.27316 0.0
C1894 C 0.49429 0.90426 0.25514 0.0
H1895 H 0.58047 0.92609 0.28024 0.0
H1896 H 0.54806 0.93167 0.27745 0.0
H1897 H 0.52022 0.90067 0.24642 0.0
H1898 H 0.43293 0.87443 0.25965 0.0
H1899 H 0.46505 0.88048 0.25699 0.0
H1900 H 0.48734 0.91802 0.28565 0.0
C1901 C 0.55399 0.91977 0.27314 0.0
C1902 C 0.51322 0.90457 0.25503 0.0
C1903 C 0.57259 0.91666 0.27465 0.0
C1904 C 0.43836 0.88696 0.26335 0.0
C1905 C 0.45679 0.89048 0.26176 0.0
C1906 C 0.49434 0.91458 0.27694 0.0
C1907 C 0.5431 0.90742 0.26642 0.0
C1908 C 0.523 0.90943 0.26598 0.0
C1909 C 0.46462 0.90621 0.26684 0.0
C1910 C 0.48461 0.90885 0.26619 0.0
H1911 H 0.57579 0.87706 0.25828 0.0
H1912 H 0.54354 0.88236 0.25571 0.0
H1913 H 0.52032 0.91846 0.2855 0.0
H1914 H 0.42658 0.9248 0.27984 0.0
H1915 H 0.45894 0.93098 0.27709 0.0
C1916 C 0.37538 0.18762 0.51909 0.0
C1917 C 0.36099 0.17627 0.5226 0.0
C1918 C 0.37268 0.20613 0.51745 0.0
C1919 C 0.34284 0.24355 0.52717 0.0
H1920 H 0.37101 0.26966 0.50208 0.0
C1921 C 0.34386 0.32241 0.52322 0.0
C1922 C 0.36146 0.32963 0.52306 0.0
C1923 C 0.34111 0.30376 0.52168 0.0
C1924 C 0.36301 0.26257 0.50912 0.0
H1925 H 0.33233 0.17542 0.52689 0.0
H1926 H 0.32753 0.20799 0.52392 0.0
H1927 H 0.37068 0.23675 0.50178 0.0
H1928 H 0.38988 0.32305 0.52083 0.0
H1929 H 0.38508 0.29081 0.51794 0.0
H1930 H 0.33547 0.26955 0.53461 0.0
C1931 C 0.34096 0.20249 0.52254 0.0
C1932 C 0.36286 0.24369 0.50898 0.0
C1933 C 0.34368 0.18383 0.52415 0.0
C1934 C 0.37615 0.31793 0.52101 0.0
C1935 C 0.3734 0.29944 0.51928 0.0
C1936 C 0.3429 0.2625 0.52725 0.0
C1937 C 0.3555 0.21389 0.51925 0.0
C1938 C 0.35326 0.2339 0.51826 0.0
C1939 C 0.35588 0.29208 0.51969 0.0
C1940 C 0.35345 0.27219 0.51847 0.0
H1941 H 0.38891 0.18227 0.51786 0.0
H1942 H 0.38428 0.21445 0.51516 0.0
H1943 H 0.33538 0.23648 0.5345 0.0
H1944 H 0.33228 0.3311 0.52483 0.0
H1945 H 0.32745 0.29846 0.52201 0.0
C1946 C 0.93548 0.08877 0.77858 0.0
C1947 C 0.92547 0.09834 0.76943 0.0
C1948 C 0.95408 0.08593 0.77698 0.0
C1949 C 0.99317 0.10655 0.76063 0.0
H1950 H 0.01891 0.0649 0.77381 0.0
C1951 C 0.07113 0.10359 0.75957 0.0
C1952 C 0.07941 0.09818 0.77098 0.0
C1953 C 0.05258 0.10083 0.75764 0.0
C1954 C 0.01193 0.07666 0.77012 0.0
H1955 H 0.92693 0.11147 0.75105 0.0
H1956 H 0.95928 0.10621 0.74813 0.0
H1957 H 0.98586 0.06486 0.77339 0.0
H1958 H 0.07488 0.08484 0.78904 0.0
H1959 H 0.04259 0.0801 0.78571 0.0
H1960 H 0.01915 0.11853 0.75762 0.0
C1961 C 0.95286 0.10123 0.75669 0.0
C1962 C 0.99297 0.07664 0.76988 0.0
C1963 C 0.93426 0.1041 0.7583 0.0
C1964 C 0.06893 0.08913 0.78013 0.0
C1965 C 0.05039 0.08635 0.7782 0.0
C1966 C 0.0121 0.10655 0.76084 0.0
C1967 C 0.96313 0.09257 0.76618 0.0
C1968 C 0.98331 0.09171 0.76532 0.0
C1969 C 0.04186 0.09259 0.76707 0.0
C1970 C 0.02175 0.09173 0.76576 0.0
H1971 H 0.92914 0.0842 0.78728 0.0
H1972 H 0.9615 0.07935 0.78455 0.0
H1973 H 0.98628 0.11854 0.75726 0.0
H1974 H 0.07883 0.11057 0.75233 0.0
H1975 H 0.04654 0.10554 0.74887 0.0
C1976 C 0.14184 0.18819 0.9874 0.0
C1977 C 0.15394 0.17725 0.98055 0.0
C1978 C 0.14521 0.20662 0.989 0.0
C1979 C 0.16873 0.24433 0.97349 0.0
H1980 H 0.15408 0.27034 0.00376 0.0
C1981 C 0.16946 0.32248 0.97529 0.0
C1982 C 0.15352 0.3303 0.98009 0.0
C1983 C 0.17292 0.30401 0.977 0.0
C1984 C 0.15821 0.2633 0.99522 0.0
H1985 H 0.17944 0.17695 0.9704 0.0
H1986 H 0.18541 0.20927 0.97323 0.0
H1987 H 0.15417 0.23738 0.00383 0.0
H1988 H 0.12915 0.32505 0.99094 0.0
H1989 H 0.13511 0.29301 0.99389 0.0
H1990 H 0.17222 0.27022 0.96475 0.0
C1991 C 0.17322 0.20356 0.97729 0.0
C1992 C 0.15827 0.24439 0.99526 0.0
C1993 C 0.16988 0.18503 0.97575 0.0
C1994 C 0.14157 0.31946 0.98714 0.0
C1995 C 0.14505 0.30106 0.98889 0.0
C1996 C 0.16866 0.26325 0.97345 0.0
C1997 C 0.16075 0.21464 0.98375 0.0
C1998 C 0.16309 0.23465 0.98429 0.0
C1999 C 0.16056 0.29298 0.9836 0.0
C2000 C 0.16297 0.27298 0.98422 0.0
H2001 H 0.12941 0.18262 0.99121 0.0
H2002 H 0.13519 0.21472 0.99389 0.0
H2003 H 0.17233 0.2373 0.96482 0.0
H2004 H 0.17892 0.33048 0.9698 0.0
H2005 H 0.1851 0.29828 0.97293 0.0
C2006 C 0.93506 0.92035 0.226 0.0
C2007 C 0.92713 0.90494 0.23147 0.0
C2008 C 0.95355 0.92388 0.22763 0.0
C2009 C 0.9943 0.91058 0.24647 0.0
H2010 H 0.02017 0.92229 0.2155 0.0
C2011 C 0.06987 0.89437 0.23891 0.0
C2012 C 0.08039 0.90571 0.23116 0.0
C2013 C 0.05144 0.8978 0.24073 0.0
C2014 C 0.01319 0.91938 0.22432 0.0
H2015 H 0.9322 0.88164 0.24344 0.0
H2016 H 0.96431 0.8877 0.24624 0.0
H2017 H 0.98725 0.92205 0.21549 0.0
H2018 H 0.08002 0.93014 0.21981 0.0
H2019 H 0.04784 0.93627 0.22309 0.0
H2020 H 0.02031 0.90738 0.25518 0.0
C2021 C 0.95631 0.89719 0.24077 0.0
C2022 C 0.99426 0.91924 0.22431 0.0
C2023 C 0.93788 0.89365 0.23911 0.0
C2024 C 0.07228 0.92113 0.22583 0.0
C2025 C 0.0538 0.92455 0.22762 0.0
C2026 C 0.01325 0.91072 0.24648 0.0
C2027 C 0.9645 0.91211 0.23481 0.0
C2028 C 0.98455 0.91445 0.23531 0.0
C2029 C 0.04304 0.91265 0.23482 0.0
C2030 C 0.02296 0.91474 0.23533 0.0
H2031 H 0.92714 0.92932 0.22007 0.0
H2032 H 0.95935 0.93563 0.22305 0.0
H2033 H 0.98728 0.90714 0.25517 0.0
H2034 H 0.07569 0.88235 0.24314 0.0
H2035 H 0.04359 0.88824 0.24624 0.0
C2036 C 0.36142 0.68735 0.48912 0.0
C2037 C 0.3508 0.67693 0.48083 0.0
C2038 C 0.35813 0.70584 0.49061 0.0
C2039 C 0.33834 0.7441 0.47287 0.0
H2040 H 0.34925 0.77048 0.50375 0.0
C2041 C 0.33747 0.82219 0.47413 0.0
C2042 C 0.35299 0.83001 0.47954 0.0
C2043 C 0.3338 0.80377 0.47583 0.0
C2044 C 0.34616 0.76331 0.49505 0.0
H2045 H 0.32767 0.67753 0.46818 0.0
H2046 H 0.32164 0.70974 0.47098 0.0
H2047 H 0.34852 0.73751 0.50412 0.0
H2048 H 0.37633 0.82485 0.49148 0.0
H2049 H 0.36992 0.79286 0.49449 0.0
H2050 H 0.33634 0.76988 0.46375 0.0
C2051 C 0.33279 0.70371 0.47614 0.0
C2052 C 0.34577 0.74439 0.49525 0.0
C2053 C 0.33613 0.6852 0.47462 0.0
C2054 C 0.36425 0.81924 0.48719 0.0
C2055 C 0.36052 0.80089 0.48897 0.0
C2056 C 0.33864 0.76301 0.47269 0.0
C2057 C 0.34408 0.7144 0.48386 0.0
C2058 C 0.34226 0.73451 0.4841 0.0
C2059 C 0.34549 0.79281 0.48307 0.0
C2060 C 0.34294 0.77284 0.48371 0.0
H2061 H 0.37287 0.68141 0.49402 0.0
H2062 H 0.36724 0.71358 0.49654 0.0
H2063 H 0.33586 0.73703 0.46404 0.0
H2064 H 0.32854 0.83013 0.46817 0.0
H2065 H 0.322 0.79801 0.47127 0.0
C2066 C 0.43448 0.08728 0.72602 0.0
C2067 C 0.42621 0.10215 0.73198 0.0
C2068 C 0.45307 0.08412 0.72744 0.0
C2069 C 0.49382 0.0973 0.74634 0.0
H2070 H 0.51945 0.08723 0.715 0.0
C2071 C 0.56973 0.11304 0.7393 0.0
C2072 C 0.58016 0.10182 0.7314 0.0
C2073 C 0.55117 0.11 0.74084 0.0
C2074 C 0.51255 0.0897 0.72391 0.0
H2075 H 0.43083 0.12481 0.7446 0.0
H2076 H 0.46313 0.11938 0.74704 0.0
H2077 H 0.48653 0.08725 0.71516 0.0
H2078 H 0.57942 0.0781 0.71935 0.0
H2079 H 0.54702 0.07264 0.72214 0.0
H2080 H 0.5199 0.10022 0.755 0.0
C2081 C 0.45532 0.11004 0.74134 0.0
C2082 C 0.49361 0.08971 0.724 0.0
C2083 C 0.43676 0.11321 0.73991 0.0
C2084 C 0.57176 0.08699 0.72551 0.0
C2085 C 0.55316 0.08397 0.72702 0.0
C2086 C 0.51278 0.09729 0.74625 0.0
C2087 C 0.46383 0.09573 0.73488 0.0
C2088 C 0.48396 0.09382 0.73517 0.0
C2089 C 0.54253 0.09567 0.73448 0.0
C2090 C 0.52241 0.09381 0.73497 0.0
H2091 H 0.42673 0.0785 0.71985 0.0
H2092 H 0.4591 0.0728 0.72249 0.0
H2093 H 0.48687 0.10023 0.75517 0.0
H2094 H 0.57576 0.12462 0.74395 0.0
H2095 H 0.54345 0.11942 0.74655 0.0
C2096 C 0.83949 0.32029 0.9759 0.0
C2097 C 0.85559 0.3282 0.98033 0.0
C2098 C 0.83635 0.30175 0.97753 0.0
C2099 C 0.85257 0.26082 0.99492 0.0
H2100 H 0.83677 0.23536 0.96472 0.0
C2101 C 0.86812 0.18558 0.98608 0.0
C2102 C 0.85561 0.17493 0.97938 0.0
C2103 C 0.865 0.20403 0.98794 0.0
C2104 C 0.84086 0.24222 0.97334 0.0
H2105 H 0.8806 0.32302 0.99047 0.0
H2106 H 0.87519 0.29086 0.99328 0.0
H2107 H 0.83671 0.26826 0.96496 0.0
H2108 H 0.82963 0.17515 0.96983 0.0
H2109 H 0.8241 0.20741 0.97316 0.0
H2110 H 0.85722 0.23476 0.00315 0.0
C2111 C 0.86489 0.29889 0.98863 0.0
C2112 C 0.84083 0.26114 0.97348 0.0
C2113 C 0.86804 0.31736 0.98696 0.0
C2114 C 0.83953 0.183 0.97503 0.0
C2115 C 0.83643 0.20151 0.97686 0.0
C2116 C 0.85261 0.24191 0.99478 0.0
C2117 C 0.8492 0.29074 0.98369 0.0
C2118 C 0.84707 0.2707 0.98417 0.0
C2119 C 0.84931 0.21233 0.98312 0.0
C2120 C 0.84714 0.23236 0.98388 0.0
H2121 H 0.82964 0.32828 0.97075 0.0
H2122 H 0.82402 0.29596 0.97375 0.0
H2123 H 0.85716 0.26773 0.0034 0.0
H2124 H 0.88066 0.1798 0.98953 0.0
H2125 H 0.87533 0.21193 0.99268 0.0
C2126 C 0.66529 0.8192 0.47392 0.0
C2127 C 0.65224 0.82884 0.48088 0.0
C2128 C 0.66766 0.8006 0.47585 0.0
C2129 C 0.6419 0.76109 0.48739 0.0
H2130 H 0.68769 0.73598 0.48393 0.0
C2131 C 0.64534 0.68386 0.49207 0.0
C2132 C 0.65526 0.67477 0.48265 0.0
C2133 C 0.64709 0.70255 0.49365 0.0
C2134 C 0.67479 0.74279 0.48487 0.0
H2135 H 0.63223 0.82678 0.49587 0.0
H2136 H 0.63664 0.79455 0.49945 0.0
H2137 H 0.68699 0.76902 0.48352 0.0
H2138 H 0.67552 0.67802 0.46793 0.0
H2139 H 0.67849 0.71065 0.47061 0.0
H2140 H 0.62962 0.73501 0.48849 0.0
C2141 C 0.64474 0.80118 0.49226 0.0
C2142 C 0.67438 0.76174 0.48462 0.0
C2143 C 0.64232 0.81971 0.49029 0.0
C2144 C 0.66772 0.68462 0.47531 0.0
C2145 C 0.66945 0.70334 0.47687 0.0
C2146 C 0.64231 0.74222 0.48765 0.0
C2147 C 0.65707 0.79126 0.48482 0.0
C2148 C 0.65789 0.77114 0.4858 0.0
C2149 C 0.65877 0.71262 0.48581 0.0
C2150 C 0.65873 0.73278 0.48631 0.0
H2151 H 0.6731 0.82583 0.46656 0.0
H2152 H 0.67718 0.79343 0.46987 0.0
H2153 H 0.62889 0.76777 0.48803 0.0
H2154 H 0.63569 0.67665 0.49793 0.0
H2155 H 0.63893 0.70918 0.50081 0.0
C2156 C 0.87958 0.68728 0.02558 0.0
C2157 C 0.8647 0.6756 0.02444 0.0
C2158 C 0.87755 0.70586 0.02389 0.0
C2159 C 0.84475 0.74291 0.02564 0.0
H2160 H 0.88278 0.76899 0.00808 0.0
C2161 C 0.84751 0.8219 0.02181 0.0
C2162 C 0.86454 0.82924 0.02479 0.0
C2163 C 0.84546 0.80316 0.02015 0.0
C2164 C 0.87204 0.76193 0.01303 0.0
H2165 H 0.83592 0.6743 0.02063 0.0
H2166 H 0.83229 0.70709 0.01773 0.0
H2167 H 0.88282 0.73609 0.00798 0.0
H2168 H 0.89272 0.82271 0.02831 0.0
H2169 H 0.88918 0.79039 0.0254 0.0
H2170 H 0.83429 0.76892 0.03096 0.0
C2171 C 0.84556 0.70172 0.01993 0.0
C2172 C 0.87207 0.74307 0.01297 0.0
C2173 C 0.84764 0.68297 0.02153 0.0
C2174 C 0.87942 0.81754 0.02598 0.0
C2175 C 0.87741 0.79897 0.02423 0.0
C2176 C 0.84472 0.76188 0.0257 0.0
C2177 C 0.86055 0.71336 0.02105 0.0
C2178 C 0.85876 0.73331 0.0196 0.0
C2179 C 0.86045 0.79151 0.02129 0.0
C2180 C 0.85871 0.77158 0.01971 0.0
H2181 H 0.89291 0.68209 0.02785 0.0
H2182 H 0.88932 0.71442 0.02504 0.0
H2183 H 0.83433 0.73579 0.03087 0.0
H2184 H 0.83579 0.83058 0.02086 0.0
H2185 H 0.83221 0.79781 0.01788 0.0
C2186 C 0.65799 0.32081 0.51891 0.0
C2187 C 0.64159 0.32832 0.52317 0.0
C2188 C 0.65973 0.30202 0.51737 0.0
C2189 C 0.63212 0.26071 0.51307 0.0
H2190 H 0.67264 0.23495 0.52792 0.0
C2191 C 0.62707 0.18615 0.52657 0.0
C2192 C 0.64178 0.17454 0.52435 0.0
C2193 C 0.62869 0.20472 0.52466 0.0
C2194 C 0.66139 0.24196 0.52352 0.0
H2195 H 0.61417 0.32203 0.52906 0.0
H2196 H 0.61716 0.28961 0.52634 0.0
H2197 H 0.67262 0.26807 0.52764 0.0
H2198 H 0.66981 0.17337 0.51837 0.0
H2199 H 0.67272 0.20613 0.51506 0.0
H2200 H 0.62064 0.23477 0.50921 0.0
C2201 C 0.62866 0.2981 0.52409 0.0
C2202 C 0.66138 0.26093 0.52337 0.0
C2203 C 0.62699 0.31672 0.52573 0.0
C2204 C 0.65823 0.18198 0.52014 0.0
C2205 C 0.65991 0.20072 0.5183 0.0
C2206 C 0.63213 0.24185 0.51321 0.0
C2207 C 0.64502 0.29048 0.51989 0.0
C2208 C 0.64647 0.2705 0.51847 0.0
C2209 C 0.6451 0.21228 0.5205 0.0
C2210 C 0.6465 0.23222 0.51878 0.0
H2211 H 0.66949 0.32941 0.5169 0.0
H2212 H 0.6725 0.29654 0.5141 0.0
H2213 H 0.62061 0.26766 0.50897 0.0
H2214 H 0.61421 0.18089 0.52986 0.0
H2215 H 0.61711 0.21323 0.52668 0.0
C2216 C 0.93538 0.40146 0.75903 0.0
C2217 C 0.92682 0.40705 0.77028 0.0
C2218 C 0.95397 0.40419 0.75728 0.0
C2219 C 0.99441 0.4284 0.77013 0.0
H2220 H 0.02022 0.38647 0.75753 0.0
C2221 C 0.07077 0.41621 0.77913 0.0
C2222 C 0.08093 0.40681 0.76996 0.0
C2223 C 0.05217 0.41897 0.77746 0.0
C2224 C 0.01328 0.39847 0.76084 0.0
H2225 H 0.93091 0.42072 0.78826 0.0
H2226 H 0.96328 0.42539 0.78528 0.0
H2227 H 0.98735 0.38654 0.75761 0.0
H2228 H 0.0797 0.39386 0.75152 0.0
H2229 H 0.04734 0.39897 0.7485 0.0
H2230 H 0.02045 0.44014 0.77365 0.0
C2231 C 0.95567 0.41902 0.77772 0.0
C2232 C 0.99435 0.39851 0.76089 0.0
C2233 C 0.93708 0.4163 0.77946 0.0
C2234 C 0.07226 0.40111 0.75878 0.0
C2235 C 0.05366 0.4039 0.7571 0.0
C2236 C 0.01338 0.42837 0.77008 0.0
C2237 C 0.96447 0.41257 0.76676 0.0
C2238 C 0.98463 0.41336 0.76569 0.0
C2239 C 0.04326 0.41243 0.76658 0.0
C2240 C 0.02309 0.41329 0.7656 0.0
H2241 H 0.92786 0.39433 0.75176 0.0
H2242 H 0.96021 0.39934 0.74862 0.0
H2243 H 0.98739 0.44018 0.77374 0.0
H2244 H 0.07702 0.42072 0.78788 0.0
H2245 H 0.04465 0.42546 0.78502 0.0
C2246 C 0.43712 0.61861 0.26408 0.0
C2247 C 0.42596 0.60594 0.27021 0.0
C2248 C 0.45567 0.61547 0.26274 0.0
C2249 C 0.49313 0.59034 0.27765 0.0
H2250 H 0.5199 0.60787 0.24846 0.0
C2251 C 0.57167 0.58818 0.27567 0.0
C2252 C 0.57979 0.60443 0.27175 0.0
C2253 C 0.55302 0.58544 0.27402 0.0
C2254 C 0.51264 0.60293 0.2567 0.0
H2255 H 0.42547 0.57972 0.27936 0.0
H2256 H 0.45796 0.57412 0.27692 0.0
H2257 H 0.48691 0.60815 0.2481 0.0
H2258 H 0.57484 0.63023 0.26263 0.0
H2259 H 0.54255 0.62548 0.25975 0.0
H2260 H 0.5189 0.58553 0.28636 0.0
C2261 C 0.45234 0.5866 0.27326 0.0
C2262 C 0.49371 0.6031 0.2565 0.0
C2263 C 0.4337 0.58973 0.27457 0.0
C2264 C 0.56902 0.61754 0.26573 0.0
C2265 C 0.55049 0.61477 0.26402 0.0
C2266 C 0.51209 0.59014 0.27784 0.0
C2267 C 0.46362 0.59957 0.2675 0.0
C2268 C 0.48369 0.59723 0.26709 0.0
C2269 C 0.54216 0.59883 0.26832 0.0
C2270 C 0.52209 0.59684 0.26749 0.0
H2271 H 0.43161 0.63127 0.26065 0.0
H2272 H 0.4639 0.62589 0.25841 0.0
H2273 H 0.4859 0.58589 0.28604 0.0
H2274 H 0.5796 0.57784 0.28037 0.0
H2275 H 0.54707 0.57294 0.27735 0.0
C2276 C 0.43786 0.39155 0.73661 0.0
C2277 C 0.42696 0.40338 0.72949 0.0
C2278 C 0.45644 0.39468 0.7379 0.0
C2279 C 0.49431 0.41644 0.72127 0.0
H2280 H 0.52067 0.40477 0.75204 0.0
C2281 C 0.57261 0.41875 0.72277 0.0
C2282 C 0.58101 0.40393 0.7287 0.0
C2283 C 0.55398 0.42176 0.7242 0.0
C2284 C 0.51355 0.408 0.74334 0.0
H2285 H 0.42692 0.42813 0.71849 0.0
H2286 H 0.45945 0.43363 0.72076 0.0
H2287 H 0.48767 0.40453 0.75219 0.0
H2288 H 0.57653 0.38108 0.7412 0.0
H2289 H 0.54421 0.38617 0.74362 0.0
H2290 H 0.52014 0.41934 0.71229 0.0
C2291 C 0.45361 0.42186 0.72528 0.0
C2292 C 0.4946 0.40789 0.74344 0.0
C2293 C 0.43495 0.41879 0.72407 0.0
C2294 C 0.57052 0.39267 0.73653 0.0
C2295 C 0.55193 0.39565 0.73796 0.0
C2296 C 0.51327 0.41649 0.72115 0.0
C2297 C 0.46464 0.40966 0.73204 0.0
C2298 C 0.48473 0.41177 0.73234 0.0
C2299 C 0.54331 0.41002 0.73162 0.0
C2300 C 0.52317 0.41192 0.73213 0.0
H2301 H 0.43215 0.37952 0.74088 0.0
H2302 H 0.4645 0.38489 0.74305 0.0
H2303 H 0.48718 0.41928 0.7125 0.0
H2304 H 0.58032 0.42768 0.71667 0.0
H2305 H 0.54788 0.43311 0.71933 0.0
C2306 C 0.93396 0.58651 0.22468 0.0
C2307 C 0.9257 0.60134 0.23068 0.0
C2308 C 0.95256 0.58333 0.22611 0.0
C2309 C 0.9932 0.59662 0.24514 0.0
H2310 H 0.0191 0.58626 0.21395 0.0
C2311 C 0.06867 0.61363 0.23786 0.0
C2312 C 0.07941 0.60216 0.23035 0.0
C2313 C 0.05017 0.6103 0.23939 0.0
C2314 C 0.01211 0.58882 0.22281 0.0
H2315 H 0.93033 0.62397 0.24333 0.0
H2316 H 0.96261 0.61857 0.24574 0.0
H2317 H 0.98617 0.58609 0.214 0.0
H2318 H 0.0793 0.57776 0.21897 0.0
H2319 H 0.04694 0.57188 0.22168 0.0
H2320 H 0.01921 0.59995 0.25382 0.0
C2321 C 0.95481 0.60923 0.24003 0.0
C2322 C 0.99316 0.58871 0.22284 0.0
C2323 C 0.93626 0.6124 0.2386 0.0
C2324 C 0.07139 0.58684 0.22483 0.0
C2325 C 0.05282 0.58356 0.2263 0.0
C2326 C 0.01215 0.59678 0.24509 0.0
C2327 C 0.96331 0.59491 0.23357 0.0
C2328 C 0.98343 0.59296 0.23395 0.0
C2329 C 0.04191 0.59545 0.2334 0.0
C2330 C 0.02185 0.59324 0.23386 0.0
H2331 H 0.9262 0.57773 0.21851 0.0
H2332 H 0.95858 0.57201 0.22115 0.0
H2333 H 0.98619 0.59962 0.25392 0.0
H2334 H 0.07443 0.62556 0.24222 0.0
H2335 H 0.04219 0.61985 0.24481 0.0
loop_
_geom_bond_atom_site_label_1
_geom_bond_atom_site_label_2
_geom_bond_distance
_geom_bond_site_symmetry_2
_ccdc_geom_bond_type
In0 O1 2.294 . S
In0 O2 2.326 . S
In0 O6 2.266 . S
In0 O7 2.326 . S
In0 O8 2.266 . S
In0 O9 2.326 . S
In0 O11 2.294 . S
In0 O12 2.326 . S
O1 In0 2.294 . S
O1 C10 1.240 . S
O2 In0 2.326 . S
O2 C10 1.252 . S
C3 O6 1.252 . S
C3 O7 1.260 . S
C4 O11 1.240 . S
C4 O12 1.252 . S
C5 O8 1.252 . S
C5 O9 1.260 . S
O6 In0 2.266 . S
O6 C3 1.252 . S
O7 In0 2.326 . S
O7 C3 1.260 . S
O8 In0 2.266 . S
O8 C5 1.252 . S
O9 In0 2.326 . S
O9 C5 1.260 . S
C10 O1 1.240 . S
C10 O2 1.252 . S
O11 In0 2.294 . S
O11 C4 1.240 . S
O12 In0 2.326 . S
O12 C4 1.252 . S
In13 O14 2.294 . S
In13 O15 2.326 . S
In13 O19 2.266 . S
In13 O20 2.326 . S
In13 O21 2.266 . S
In13 O22 2.326 . S
In13 O24 2.294 . S
In13 O25 2.326 . S
O14 In13 2.294 . S
O14 C23 1.240 . S
O15 In13 2.326 . S
O15 C23 1.252 . S
C16 O19 1.252 . S
C16 O20 1.260 . S
C17 O24 1.240 . S
C17 O25 1.252 . S
C18 O21 1.252 . S
C18 O22 1.260 . S
O19 In13 2.266 . S
O19 C16 1.252 . S
O20 In13 2.326 . S
O20 C16 1.260 . S
O21 In13 2.266 . S
O21 C18 1.252 . S
O22 In13 2.326 . S
O22 C18 1.260 . S
C23 O14 1.240 . S
C23 O15 1.252 . S
O24 In13 2.294 . S
O24 C17 1.240 . S
O25 In13 2.326 . S
O25 C17 1.252 . S
In26 O27 2.294 . S
In26 O28 2.326 . S
In26 O32 2.266 . S
In26 O33 2.326 . S
In26 O34 2.266 . S
In26 O35 2.326 . S
In26 O37 2.294 . S
In26 O38 2.326 . S
O27 In26 2.294 . S
O27 C36 1.240 . S
O28 In26 2.326 . S
O28 C36 1.252 . S
C29 O32 1.252 . S
C29 O33 1.260 . S
C30 O37 1.240 . S
C30 O38 1.252 . S
C31 O34 1.252 . S
C31 O35 1.260 . S
O32 In26 2.266 . S
O32 C29 1.252 . S
O33 In26 2.326 . S
O33 C29 1.260 . S
O34 In26 2.266 . S
O34 C31 1.252 . S
O35 In26 2.326 . S
O35 C31 1.260 . S
C36 O27 1.240 . S
C36 O28 1.252 . S
O37 In26 2.294 . S
O37 C30 1.240 . S
O38 In26 2.326 . S
O38 C30 1.252 . S
In39 O40 2.294 . S
In39 O41 2.326 . S
In39 O45 2.266 . S
In39 O46 2.326 . S
In39 O47 2.266 . S
In39 O48 2.326 . S
In39 O50 2.294 . S
In39 O51 2.326 . S
O40 In39 2.294 . S
O40 C49 1.240 . S
O41 In39 2.326 . S
O41 C49 1.252 . S
C42 O45 1.252 . S
C42 O46 1.260 . S
C43 O50 1.240 . S
C43 O51 1.252 . S
C44 O47 1.252 . S
C44 O48 1.260 . S
O45 In39 2.266 . S
O45 C42 1.252 . S
O46 In39 2.326 . S
O46 C42 1.260 . S
O47 In39 2.266 . S
O47 C44 1.252 . S
O48 In39 2.326 . S
O48 C44 1.260 . S
C49 O40 1.240 . S
C49 O41 1.252 . S
O50 In39 2.294 . S
O50 C43 1.240 . S
O51 In39 2.326 . S
O51 C43 1.252 . S
In52 O53 2.294 . S
In52 O54 2.326 . S
In52 O58 2.266 . S
In52 O59 2.326 . S
In52 O60 2.266 . S
In52 O61 2.326 . S
In52 O63 2.294 . S
In52 O64 2.326 . S
O53 In52 2.294 . S
O53 C62 1.240 . S
O54 In52 2.326 . S
O54 C62 1.252 . S
C55 O58 1.252 . S
C55 O59 1.260 . S
C56 O63 1.240 . S
C56 O64 1.252 . S
C57 O60 1.252 . S
C57 O61 1.260 . S
O58 In52 2.266 . S
O58 C55 1.252 . S
O59 In52 2.326 . S
O59 C55 1.260 . S
O60 In52 2.266 . S
O60 C57 1.252 . S
O61 In52 2.326 . S
O61 C57 1.260 . S
C62 O53 1.240 . S
C62 O54 1.252 . S
O63 In52 2.294 . S
O63 C56 1.240 . S
O64 In52 2.326 . S
O64 C56 1.252 . S
In65 O66 2.294 . S
In65 O67 2.326 . S
In65 O71 2.266 . S
In65 O72 2.326 . S
In65 O73 2.266 . S
In65 O74 2.326 . S
In65 O76 2.294 . S
In65 O77 2.326 . S
O66 In65 2.294 . S
O66 C75 1.240 . S
O67 In65 2.326 . S
O67 C75 1.252 . S
C68 O71 1.252 . S
C68 O72 1.260 . S
C69 O76 1.240 . S
C69 O77 1.252 . S
C70 O73 1.252 . S
C70 O74 1.260 . S
O71 In65 2.266 . S
O71 C68 1.252 . S
O72 In65 2.326 . S
O72 C68 1.260 . S
O73 In65 2.266 . S
O73 C70 1.252 . S
O74 In65 2.326 . S
O74 C70 1.260 . S
C75 O66 1.240 . S
C75 O67 1.252 . S
O76 In65 2.294 . S
O76 C69 1.240 . S
O77 In65 2.326 . S
O77 C69 1.252 . S
In78 O79 2.294 . S
In78 O80 2.326 . S
In78 O84 2.266 . S
In78 O85 2.326 . S
In78 O86 2.266 . S
In78 O87 2.326 . S
In78 O89 2.294 . S
In78 O90 2.326 . S
O79 In78 2.294 . S
O79 C88 1.240 . S
O80 In78 2.326 . S
O80 C88 1.252 . S
C81 O84 1.252 . S
C81 O85 1.260 . S
C82 O89 1.240 . S
C82 O90 1.252 . S
C83 O86 1.252 . S
C83 O87 1.260 . S
O84 In78 2.266 . S
O84 C81 1.252 . S
O85 In78 2.326 . S
O85 C81 1.260 . S
O86 In78 2.266 . S
O86 C83 1.252 . S
O87 In78 2.326 . S
O87 C83 1.260 . S
C88 O79 1.240 . S
C88 O80 1.252 . S
O89 In78 2.294 . S
O89 C82 1.240 . S
O90 In78 2.326 . S
O90 C82 1.252 . S
In91 O92 2.294 . S
In91 O93 2.326 . S
In91 O97 2.266 . S
In91 O98 2.326 . S
In91 O99 2.266 . S
In91 O100 2.326 . S
In91 O102 2.294 . S
In91 O103 2.326 . S
O92 In91 2.294 . S
O92 C101 1.240 . S
O93 In91 2.326 . S
O93 C101 1.252 . S
C94 O97 1.252 . S
C94 O98 1.260 . S
C95 O102 1.240 . S
C95 O103 1.252 . S
C96 O99 1.252 . S
C96 O100 1.260 . S
O97 In91 2.266 . S
O97 C94 1.252 . S
O98 In91 2.326 . S
O98 C94 1.260 . S
O99 In91 2.266 . S
O99 C96 1.252 . S
O100 In91 2.326 . S
O100 C96 1.260 . S
C101 O92 1.240 . S
C101 O93 1.252 . S
O102 In91 2.294 . S
O102 C95 1.240 . S
O103 In91 2.326 . S
O103 C95 1.252 . S
In104 O105 2.294 . S
In104 O106 2.326 . S
In104 O110 2.266 . S
In104 O111 2.326 . S
In104 O112 2.266 . S
In104 O113 2.326 . S
In104 O115 2.294 . S
In104 O116 2.326 . S
O105 In104 2.294 . S
O105 C114 1.240 . S
O106 In104 2.326 . S
O106 C114 1.252 . S
C107 O110 1.252 . S
C107 O111 1.260 . S
C108 O115 1.240 . S
C108 O116 1.252 . S
C109 O112 1.252 . S
C109 O113 1.260 . S
O110 In104 2.266 . S
O110 C107 1.252 . S
O111 In104 2.326 . S
O111 C107 1.260 . S
O112 In104 2.266 . S
O112 C109 1.252 . S
O113 In104 2.326 . S
O113 C109 1.260 . S
C114 O105 1.240 . S
C114 O106 1.252 . S
O115 In104 2.294 . S
O115 C108 1.240 . S
O116 In104 2.326 . S
O116 C108 1.252 . S
In117 O118 2.294 . S
In117 O119 2.326 . S
In117 O123 2.266 . S
In117 O124 2.326 . S
In117 O125 2.266 . S
In117 O126 2.326 . S
In117 O128 2.294 . S
In117 O129 2.326 . S
O118 In117 2.294 . S
O118 C127 1.240 . S
O119 In117 2.326 . S
O119 C127 1.252 . S
C120 O123 1.252 . S
C120 O124 1.260 . S
C121 O128 1.240 . S
C121 O129 1.252 . S
C122 O125 1.252 . S
C122 O126 1.260 . S
O123 In117 2.266 . S
O123 C120 1.252 . S
O124 In117 2.326 . S
O124 C120 1.260 . S
O125 In117 2.266 . S
O125 C122 1.252 . S
O126 In117 2.326 . S
O126 C122 1.260 . S
C127 O118 1.240 . S
C127 O119 1.252 . S
O128 In117 2.294 . S
O128 C121 1.240 . S
O129 In117 2.326 . S
O129 C121 1.252 . S
In130 O131 2.294 . S
In130 O132 2.326 . S
In130 O136 2.266 . S
In130 O137 2.326 . S
In130 O138 2.266 . S
In130 O139 2.326 . S
In130 O141 2.294 . S
In130 O142 2.326 . S
O131 In130 2.294 . S
O131 C140 1.240 . S
O132 In130 2.326 . S
O132 C140 1.252 . S
C133 O136 1.252 . S
C133 O137 1.260 . S
C134 O141 1.240 . S
C134 O142 1.252 . S
C135 O138 1.252 . S
C135 O139 1.260 . S
O136 In130 2.266 . S
O136 C133 1.252 . S
O137 In130 2.326 . S
O137 C133 1.260 . S
O138 In130 2.266 . S
O138 C135 1.252 . S
O139 In130 2.326 . S
O139 C135 1.260 . S
C140 O131 1.240 . S
C140 O132 1.252 . S
O141 In130 2.294 . S
O141 C134 1.240 . S
O142 In130 2.326 . S
O142 C134 1.252 . S
In143 O144 2.294 . S
In143 O145 2.326 . S
In143 O149 2.266 . S
In143 O150 2.326 . S
In143 O151 2.266 . S
In143 O152 2.326 . S
In143 O154 2.294 . S
In143 O155 2.326 . S
O144 In143 2.294 . S
O144 C153 1.240 . S
O145 In143 2.326 . S
O145 C153 1.252 . S
C146 O149 1.252 . S
C146 O150 1.260 . S
C147 O154 1.240 . S
C147 O155 1.252 . S
C148 O151 1.252 . S
C148 O152 1.260 . S
O149 In143 2.266 . S
O149 C146 1.252 . S
O150 In143 2.326 . S
O150 C146 1.260 . S
O151 In143 2.266 . S
O151 C148 1.252 . S
O152 In143 2.326 . S
O152 C148 1.260 . S
C153 O144 1.240 . S
C153 O145 1.252 . S
O154 In143 2.294 . S
O154 C147 1.240 . S
O155 In143 2.326 . S
O155 C147 1.252 . S
In156 O157 2.294 . S
In156 O158 2.326 . S
In156 O162 2.266 . S
In156 O163 2.326 . S
In156 O164 2.266 . S
In156 O165 2.326 . S
In156 O167 2.294 . S
In156 O168 2.326 . S
O157 In156 2.294 . S
O157 C166 1.240 . S
O158 In156 2.326 . S
O158 C166 1.252 . S
C159 O162 1.252 . S
C159 O163 1.260 . S
C160 O167 1.240 . S
C160 O168 1.252 . S
C161 O164 1.252 . S
C161 O165 1.260 . S
O162 In156 2.266 . S
O162 C159 1.252 . S
O163 In156 2.326 . S
O163 C159 1.260 . S
O164 In156 2.266 . S
O164 C161 1.252 . S
O165 In156 2.326 . S
O165 C161 1.260 . S
C166 O157 1.240 . S
C166 O158 1.252 . S
O167 In156 2.294 . S
O167 C160 1.240 . S
O168 In156 2.326 . S
O168 C160 1.252 . S
In169 O170 2.294 . S
In169 O171 2.326 . S
In169 O175 2.266 . S
In169 O176 2.326 . S
In169 O177 2.266 . S
In169 O178 2.326 . S
In169 O180 2.294 . S
In169 O181 2.326 . S
O170 In169 2.294 . S
O170 C179 1.240 . S
O171 In169 2.326 . S
O171 C179 1.252 . S
C172 O175 1.252 . S
C172 O176 1.260 . S
C173 O180 1.240 . S
C173 O181 1.252 . S
C174 O177 1.252 . S
C174 O178 1.260 . S
O175 In169 2.266 . S
O175 C172 1.252 . S
O176 In169 2.326 . S
O176 C172 1.260 . S
O177 In169 2.266 . S
O177 C174 1.252 . S
O178 In169 2.326 . S
O178 C174 1.260 . S
C179 O170 1.240 . S
C179 O171 1.252 . S
O180 In169 2.294 . S
O180 C173 1.240 . S
O181 In169 2.326 . S
O181 C173 1.252 . S
In182 O183 2.294 . S
In182 O184 2.326 . S
In182 O188 2.266 . S
In182 O189 2.326 . S
In182 O190 2.266 . S
In182 O191 2.326 . S
In182 O193 2.294 . S
In182 O194 2.326 . S
O183 In182 2.294 . S
O183 C192 1.240 . S
O184 In182 2.326 . S
O184 C192 1.252 . S
C185 O188 1.252 . S
C185 O189 1.260 . S
C186 O193 1.240 . S
C186 O194 1.252 . S
C187 O190 1.252 . S
C187 O191 1.260 . S
O188 In182 2.266 . S
O188 C185 1.252 . S
O189 In182 2.326 . S
O189 C185 1.260 . S
O190 In182 2.266 . S
O190 C187 1.252 . S
O191 In182 2.326 . S
O191 C187 1.260 . S
C192 O183 1.240 . S
C192 O184 1.252 . S
O193 In182 2.294 . S
O193 C186 1.240 . S
O194 In182 2.326 . S
O194 C186 1.252 . S
In195 O196 2.294 . S
In195 O197 2.326 . S
In195 O201 2.266 . S
In195 O202 2.326 . S
In195 O203 2.266 . S
In195 O204 2.326 . S
In195 O206 2.294 . S
In195 O207 2.326 . S
O196 In195 2.294 . S
O196 C205 1.240 . S
O197 In195 2.326 . S
O197 C205 1.252 . S
C198 O201 1.252 . S
C198 O202 1.260 . S
C199 O206 1.240 . S
C199 O207 1.252 . S
C200 O203 1.252 . S
C200 O204 1.260 . S
O201 In195 2.266 . S
O201 C198 1.252 . S
O202 In195 2.326 . S
O202 C198 1.260 . S
O203 In195 2.266 . S
O203 C200 1.252 . S
O204 In195 2.326 . S
O204 C200 1.260 . S
C205 O196 1.240 . S
C205 O197 1.252 . S
O206 In195 2.294 . S
O206 C199 1.240 . S
O207 In195 2.326 . S
O207 C199 1.252 . S
In208 O209 2.294 . S
In208 O210 2.326 . S
In208 O214 2.266 . S
In208 O215 2.326 . S
In208 O216 2.266 . S
In208 O217 2.326 . S
In208 O219 2.294 . S
In208 O220 2.326 . S
O209 In208 2.294 . S
O209 C218 1.240 . S
O210 In208 2.326 . S
O210 C218 1.252 . S
C211 O214 1.252 . S
C211 O215 1.260 . S
C212 O219 1.240 . S
C212 O220 1.252 . S
C213 O216 1.252 . S
C213 O217 1.260 . S
O214 In208 2.266 . S
O214 C211 1.252 . S
O215 In208 2.326 . S
O215 C211 1.260 . S
O216 In208 2.266 . S
O216 C213 1.252 . S
O217 In208 2.326 . S
O217 C213 1.260 . S
C218 O209 1.240 . S
C218 O210 1.252 . S
O219 In208 2.294 . S
O219 C212 1.240 . S
O220 In208 2.326 . S
O220 C212 1.252 . S
In221 O222 2.294 . S
In221 O223 2.326 . S
In221 O227 2.266 . S
In221 O228 2.326 . S
In221 O229 2.266 . S
In221 O230 2.326 . S
In221 O232 2.294 . S
In221 O233 2.326 . S
O222 In221 2.294 . S
O222 C231 1.240 . S
O223 In221 2.326 . S
O223 C231 1.252 . S
C224 O227 1.252 . S
C224 O228 1.260 . S
C225 O232 1.240 . S
C225 O233 1.252 . S
C226 O229 1.252 . S
C226 O230 1.260 . S
O227 In221 2.266 . S
O227 C224 1.252 . S
O228 In221 2.326 . S
O228 C224 1.260 . S
O229 In221 2.266 . S
O229 C226 1.252 . S
O230 In221 2.326 . S
O230 C226 1.260 . S
C231 O222 1.240 . S
C231 O223 1.252 . S
O232 In221 2.294 . S
O232 C225 1.240 . S
O233 In221 2.326 . S
O233 C225 1.252 . S
In234 O235 2.294 . S
In234 O236 2.326 . S
In234 O240 2.266 . S
In234 O241 2.326 . S
In234 O242 2.266 . S
In234 O243 2.326 . S
In234 O245 2.294 . S
In234 O246 2.326 . S
O235 In234 2.294 . S
O235 C244 1.240 . S
O236 In234 2.326 . S
O236 C244 1.252 . S
C237 O240 1.252 . S
C237 O241 1.260 . S
C238 O245 1.240 . S
C238 O246 1.252 . S
C239 O242 1.252 . S
C239 O243 1.260 . S
O240 In234 2.266 . S
O240 C237 1.252 . S
O241 In234 2.326 . S
O241 C237 1.260 . S
O242 In234 2.266 . S
O242 C239 1.252 . S
O243 In234 2.326 . S
O243 C239 1.260 . S
C244 O235 1.240 . S
C244 O236 1.252 . S
O245 In234 2.294 . S
O245 C238 1.240 . S
O246 In234 2.326 . S
O246 C238 1.252 . S
In247 O248 2.294 . S
In247 O249 2.326 . S
In247 O253 2.266 . S
In247 O254 2.326 . S
In247 O255 2.266 . S
In247 O256 2.326 . S
In247 O258 2.294 . S
In247 O259 2.326 . S
O248 In247 2.294 . S
O248 C257 1.240 . S
O249 In247 2.326 . S
O249 C257 1.252 . S
C250 O253 1.252 . S
C250 O254 1.260 . S
C251 O258 1.240 . S
C251 O259 1.252 . S
C252 O255 1.252 . S
C252 O256 1.260 . S
O253 In247 2.266 . S
O253 C250 1.252 . S
O254 In247 2.326 . S
O254 C250 1.260 . S
O255 In247 2.266 . S
O255 C252 1.252 . S
O256 In247 2.326 . S
O256 C252 1.260 . S
C257 O248 1.240 . S
C257 O249 1.252 . S
O258 In247 2.294 . S
O258 C251 1.240 . S
O259 In247 2.326 . S
O259 C251 1.252 . S
In260 O261 2.294 . S
In260 O262 2.326 . S
In260 O266 2.266 . S
In260 O267 2.326 . S
In260 O268 2.266 . S
In260 O269 2.326 . S
In260 O271 2.294 . S
In260 O272 2.326 . S
O261 In260 2.294 . S
O261 C270 1.240 . S
O262 In260 2.326 . S
O262 C270 1.252 . S
C263 O266 1.252 . S
C263 O267 1.260 . S
C264 O271 1.240 . S
C264 O272 1.252 . S
C265 O268 1.252 . S
C265 O269 1.260 . S
O266 In260 2.266 . S
O266 C263 1.252 . S
O267 In260 2.326 . S
O267 C263 1.260 . S
O268 In260 2.266 . S
O268 C265 1.252 . S
O269 In260 2.326 . S
O269 C265 1.260 . S
C270 O261 1.240 . S
C270 O262 1.252 . S
O271 In260 2.294 . S
O271 C264 1.240 . S
O272 In260 2.326 . S
O272 C264 1.252 . S
In273 O274 2.294 . S
In273 O275 2.326 . S
In273 O279 2.266 . S
In273 O280 2.326 . S
In273 O281 2.266 . S
In273 O282 2.326 . S
In273 O284 2.294 . S
In273 O285 2.326 . S
O274 In273 2.294 . S
O274 C283 1.240 . S
O275 In273 2.326 . S
O275 C283 1.252 . S
C276 O279 1.252 . S
C276 O280 1.260 . S
C277 O284 1.240 . S
C277 O285 1.252 . S
C278 O281 1.252 . S
C278 O282 1.260 . S
O279 In273 2.266 . S
O279 C276 1.252 . S
O280 In273 2.326 . S
O280 C276 1.260 . S
O281 In273 2.266 . S
O281 C278 1.252 . S
O282 In273 2.326 . S
O282 C278 1.260 . S
C283 O274 1.240 . S
C283 O275 1.252 . S
O284 In273 2.294 . S
O284 C277 1.240 . S
O285 In273 2.326 . S
O285 C277 1.252 . S
In286 O287 2.294 . S
In286 O288 2.326 . S
In286 O292 2.266 . S
In286 O293 2.326 . S
In286 O294 2.266 . S
In286 O295 2.326 . S
In286 O297 2.294 . S
In286 O298 2.326 . S
O287 In286 2.294 . S
O287 C296 1.240 . S
O288 In286 2.326 . S
O288 C296 1.252 . S
C289 O292 1.252 . S
C289 O293 1.260 . S
C290 O297 1.240 . S
C290 O298 1.252 . S
C291 O294 1.252 . S
C291 O295 1.260 . S
O292 In286 2.266 . S
O292 C289 1.252 . S
O293 In286 2.326 . S
O293 C289 1.260 . S
O294 In286 2.266 . S
O294 C291 1.252 . S
O295 In286 2.326 . S
O295 C291 1.260 . S
C296 O287 1.240 . S
C296 O288 1.252 . S
O297 In286 2.294 . S
O297 C290 1.240 . S
O298 In286 2.326 . S
O298 C290 1.252 . S
In299 O300 2.294 . S
In299 O301 2.326 . S
In299 O305 2.266 . S
In299 O306 2.326 . S
In299 O307 2.266 . S
In299 O308 2.326 . S
In299 O310 2.294 . S
In299 O311 2.326 . S
O300 In299 2.294 . S
O300 C309 1.240 . S
O301 In299 2.326 . S
O301 C309 1.252 . S
C302 O305 1.252 . S
C302 O306 1.260 . S
C303 O310 1.240 . S
C303 O311 1.252 . S
C304 O307 1.252 . S
C304 O308 1.260 . S
O305 In299 2.266 . S
O305 C302 1.252 . S
O306 In299 2.326 . S
O306 C302 1.260 . S
O307 In299 2.266 . S
O307 C304 1.252 . S
O308 In299 2.326 . S
O308 C304 1.260 . S
C309 O300 1.240 . S
C309 O301 1.252 . S
O310 In299 2.294 . S
O310 C303 1.240 . S
O311 In299 2.326 . S
O311 C303 1.252 . S
In312 O313 2.294 . S
In312 O314 2.326 . S
In312 O318 2.266 . S
In312 O319 2.326 . S
In312 O320 2.266 . S
In312 O321 2.326 . S
In312 O323 2.294 . S
In312 O324 2.326 . S
O313 In312 2.294 . S
O313 C322 1.240 . S
O314 In312 2.326 . S
O314 C322 1.252 . S
C315 O318 1.252 . S
C315 O319 1.260 . S
C316 O323 1.240 . S
C316 O324 1.252 . S
C317 O320 1.252 . S
C317 O321 1.260 . S
O318 In312 2.266 . S
O318 C315 1.252 . S
O319 In312 2.326 . S
O319 C315 1.260 . S
O320 In312 2.266 . S
O320 C317 1.252 . S
O321 In312 2.326 . S
O321 C317 1.260 . S
C322 O313 1.240 . S
C322 O314 1.252 . S
O323 In312 2.294 . S
O323 C316 1.240 . S
O324 In312 2.326 . S
O324 C316 1.252 . S
In325 O326 2.294 . S
In325 O327 2.326 . S
In325 O331 2.266 . S
In325 O332 2.326 . S
In325 O333 2.266 . S
In325 O334 2.326 . S
In325 O336 2.294 . S
In325 O337 2.326 . S
O326 In325 2.294 . S
O326 C335 1.240 . S
O327 In325 2.326 . S
O327 C335 1.252 . S
C328 O331 1.252 . S
C328 O332 1.260 . S
C329 O336 1.240 . S
C329 O337 1.252 . S
C330 O333 1.252 . S
C330 O334 1.260 . S
O331 In325 2.266 . S
O331 C328 1.252 . S
O332 In325 2.326 . S
O332 C328 1.260 . S
O333 In325 2.266 . S
O333 C330 1.252 . S
O334 In325 2.326 . S
O334 C330 1.260 . S
C335 O326 1.240 . S
C335 O327 1.252 . S
O336 In325 2.294 . S
O336 C329 1.240 . S
O337 In325 2.326 . S
O337 C329 1.252 . S
In338 O339 2.294 . S
In338 O340 2.326 . S
In338 O344 2.266 . S
In338 O345 2.326 . S
In338 O346 2.266 . S
In338 O347 2.326 . S
In338 O349 2.294 . S
In338 O350 2.326 . S
O339 In338 2.294 . S
O339 C348 1.240 . S
O340 In338 2.326 . S
O340 C348 1.252 . S
C341 O344 1.252 . S
C341 O345 1.260 . S
C342 O349 1.240 . S
C342 O350 1.252 . S
C343 O346 1.252 . S
C343 O347 1.260 . S
O344 In338 2.266 . S
O344 C341 1.252 . S
O345 In338 2.326 . S
O345 C341 1.260 . S
O346 In338 2.266 . S
O346 C343 1.252 . S
O347 In338 2.326 . S
O347 C343 1.260 . S
C348 O339 1.240 . S
C348 O340 1.252 . S
O349 In338 2.294 . S
O349 C342 1.240 . S
O350 In338 2.326 . S
O350 C342 1.252 . S
In351 O352 2.294 . S
In351 O353 2.326 . S
In351 O357 2.266 . S
In351 O358 2.326 . S
In351 O359 2.266 . S
In351 O360 2.326 . S
In351 O362 2.294 . S
In351 O363 2.326 . S
O352 In351 2.294 . S
O352 C361 1.240 . S
O353 In351 2.326 . S
O353 C361 1.252 . S
C354 O357 1.252 . S
C354 O358 1.260 . S
C355 O362 1.240 . S
C355 O363 1.252 . S
C356 O359 1.252 . S
C356 O360 1.260 . S
O357 In351 2.266 . S
O357 C354 1.252 . S
O358 In351 2.326 . S
O358 C354 1.260 . S
O359 In351 2.266 . S
O359 C356 1.252 . S
O360 In351 2.326 . S
O360 C356 1.260 . S
C361 O352 1.240 . S
C361 O353 1.252 . S
O362 In351 2.294 . S
O362 C355 1.240 . S
O363 In351 2.326 . S
O363 C355 1.252 . S
In364 O365 2.294 . S
In364 O366 2.326 . S
In364 O370 2.266 . S
In364 O371 2.326 . S
In364 O372 2.266 . S
In364 O373 2.326 . S
In364 O375 2.294 . S
In364 O376 2.326 . S
O365 In364 2.294 . S
O365 C374 1.240 . S
O366 In364 2.326 . S
O366 C374 1.252 . S
C367 O370 1.252 . S
C367 O371 1.260 . S
C368 O375 1.240 . S
C368 O376 1.252 . S
C369 O372 1.252 . S
C369 O373 1.260 . S
O370 In364 2.266 . S
O370 C367 1.252 . S
O371 In364 2.326 . S
O371 C367 1.260 . S
O372 In364 2.266 . S
O372 C369 1.252 . S
O373 In364 2.326 . S
O373 C369 1.260 . S
C374 O365 1.240 . S
C374 O366 1.252 . S
O375 In364 2.294 . S
O375 C368 1.240 . S
O376 In364 2.326 . S
O376 C368 1.252 . S
In377 O378 2.294 . S
In377 O379 2.326 . S
In377 O383 2.266 . S
In377 O384 2.326 . S
In377 O385 2.266 . S
In377 O386 2.326 . S
In377 O388 2.294 . S
In377 O389 2.326 . S
O378 In377 2.294 . S
O378 C387 1.240 . S
O379 In377 2.326 . S
O379 C387 1.252 . S
C380 O383 1.252 . S
C380 O384 1.260 . S
C381 O388 1.240 . S
C381 O389 1.252 . S
C382 O385 1.252 . S
C382 O386 1.260 . S
O383 In377 2.266 . S
O383 C380 1.252 . S
O384 In377 2.326 . S
O384 C380 1.260 . S
O385 In377 2.266 . S
O385 C382 1.252 . S
O386 In377 2.326 . S
O386 C382 1.260 . S
C387 O378 1.240 . S
C387 O379 1.252 . S
O388 In377 2.294 . S
O388 C381 1.240 . S
O389 In377 2.326 . S
O389 C381 1.252 . S
In390 O391 2.294 . S
In390 O392 2.326 . S
In390 O396 2.266 . S
In390 O397 2.326 . S
In390 O398 2.266 . S
In390 O399 2.326 . S
In390 O401 2.294 . S
In390 O402 2.326 . S
O391 In390 2.294 . S
O391 C400 1.240 . S
O392 In390 2.326 . S
O392 C400 1.252 . S
C393 O396 1.252 . S
C393 O397 1.260 . S
C394 O401 1.240 . S
C394 O402 1.252 . S
C395 O398 1.252 . S
C395 O399 1.260 . S
O396 In390 2.266 . S
O396 C393 1.252 . S
O397 In390 2.326 . S
O397 C393 1.260 . S
O398 In390 2.266 . S
O398 C395 1.252 . S
O399 In390 2.326 . S
O399 C395 1.260 . S
C400 O391 1.240 . S
C400 O392 1.252 . S
O401 In390 2.294 . S
O401 C394 1.240 . S
O402 In390 2.326 . S
O402 C394 1.252 . S
In403 O404 2.294 . S
In403 O405 2.326 . S
In403 O409 2.266 . S
In403 O410 2.326 . S
In403 O411 2.266 . S
In403 O412 2.326 . S
In403 O414 2.294 . S
In403 O415 2.326 . S
O404 In403 2.294 . S
O404 C413 1.240 . S
O405 In403 2.326 . S
O405 C413 1.252 . S
C406 O409 1.252 . S
C406 O410 1.260 . S
C407 O414 1.240 . S
C407 O415 1.252 . S
C408 O411 1.252 . S
C408 O412 1.260 . S
O409 In403 2.266 . S
O409 C406 1.252 . S
O410 In403 2.326 . S
O410 C406 1.260 . S
O411 In403 2.266 . S
O411 C408 1.252 . S
O412 In403 2.326 . S
O412 C408 1.260 . S
C413 O404 1.240 . S
C413 O405 1.252 . S
O414 In403 2.294 . S
O414 C407 1.240 . S
O415 In403 2.326 . S
O415 C407 1.252 . S
C416 C417 1.349 . S
C416 C418 1.327 . S
C416 H441 0.950 . S
C417 C416 1.349 . S
C417 C433 1.349 . S
C418 C416 1.327 . S
C418 C437 1.429 . S
C418 H442 0.950 . S
C419 C436 1.574 . S
C419 C438 1.368 . S
C419 H443 0.949 . S
H420 C424 0.949 . S
C421 C422 1.349 . S
C421 C423 1.327 . S
C421 H444 0.950 . S
C422 C421 1.349 . S
C422 C434 1.349 . S
C423 C421 1.327 . S
C423 C439 1.429 . S
C423 H445 0.950 . S
C424 H420 0.949 . S
C424 C432 1.574 . S
C424 C440 1.368 . S
H425 C433 0.950 . S
H426 C431 0.950 . S
H427 C432 0.949 . S
H428 C434 0.950 . S
H429 C435 0.950 . S
H430 C436 0.949 . S
C431 H426 0.950 . S
C431 C433 1.327 . S
C431 C437 1.429 . S
C432 C424 1.574 . S
C432 H427 0.949 . S
C432 C438 1.368 . S
C433 C417 1.349 . S
C433 H425 0.950 . S
C433 C431 1.327 . S
C434 C422 1.349 . S
C434 H428 0.950 . S
C434 C435 1.327 . S
C435 H429 0.950 . S
C435 C434 1.327 . S
C435 C439 1.429 . S
C436 C419 1.574 . S
C436 H430 0.949 . S
C436 C440 1.368 . S
C437 C418 1.429 . S
C437 C431 1.429 . S
C437 C438 1.523 . S
C438 C419 1.368 . S
C438 C432 1.368 . S
C438 C437 1.523 . S
C439 C423 1.429 . S
C439 C435 1.429 . S
C439 C440 1.523 . S
C440 C424 1.368 . S
C440 C436 1.368 . S
C440 C439 1.523 . S
H441 C416 0.950 . S
H442 C418 0.950 . S
H443 C419 0.949 . S
H444 C421 0.950 . S
H445 C423 0.950 . S
C446 C447 1.349 . S
C446 C448 1.327 . S
C446 H471 0.950 . S
C447 C446 1.349 . S
C447 C463 1.349 . S
C448 C446 1.327 . S
C448 C467 1.429 . S
C448 H472 0.950 . S
C449 C466 1.574 . S
C449 C468 1.368 . S
C449 H473 0.949 . S
H450 C454 0.949 . S
C451 C452 1.349 . S
C451 C453 1.327 . S
C451 H474 0.950 . S
C452 C451 1.349 . S
C452 C464 1.349 . S
C453 C451 1.327 . S
C453 C469 1.429 . S
C453 H475 0.950 . S
C454 H450 0.949 . S
C454 C462 1.574 . S
C454 C470 1.368 . S
H455 C463 0.950 . S
H456 C461 0.950 . S
H457 C462 0.949 . S
H458 C464 0.950 . S
H459 C465 0.950 . S
H460 C466 0.949 . S
C461 H456 0.950 . S
C461 C463 1.327 . S
C461 C467 1.429 . S
C462 C454 1.574 . S
C462 H457 0.949 . S
C462 C468 1.368 . S
C463 C447 1.349 . S
C463 H455 0.950 . S
C463 C461 1.327 . S
C464 C452 1.349 . S
C464 H458 0.950 . S
C464 C465 1.327 . S
C465 H459 0.950 . S
C465 C464 1.327 . S
C465 C469 1.429 . S
C466 C449 1.574 . S
C466 H460 0.949 . S
C466 C470 1.368 . S
C467 C448 1.429 . S
C467 C461 1.429 . S
C467 C468 1.523 . S
C468 C449 1.368 . S
C468 C462 1.368 . S
C468 C467 1.523 . S
C469 C453 1.429 . S
C469 C465 1.429 . S
C469 C470 1.523 . S
C470 C454 1.368 . S
C470 C466 1.368 . S
C470 C469 1.523 . S
H471 C446 0.950 . S
H472 C448 0.950 . S
H473 C449 0.949 . S
H474 C451 0.950 . S
H475 C453 0.950 . S
C476 C477 1.349 . S
C476 C478 1.327 . S
C476 H501 0.950 . S
C477 C476 1.349 . S
C477 C493 1.349 . S
C478 C476 1.327 . S
C478 C497 1.429 . S
C478 H502 0.950 . S
C479 C496 1.574 . S
C479 C498 1.368 . S
C479 H503 0.949 . S
H480 C484 0.949 . S
C481 C482 1.349 . S
C481 C483 1.327 . S
C481 H504 0.950 . S
C482 C481 1.349 . S
C482 C494 1.349 . S
C483 C481 1.327 . S
C483 C499 1.429 . S
C483 H505 0.950 . S
C484 H480 0.949 . S
C484 C492 1.574 . S
C484 C500 1.368 . S
H485 C493 0.950 . S
H486 C491 0.950 . S
H487 C492 0.949 . S
H488 C494 0.950 . S
H489 C495 0.950 . S
H490 C496 0.949 . S
C491 H486 0.950 . S
C491 C493 1.327 . S
C491 C497 1.429 . S
C492 C484 1.574 . S
C492 H487 0.949 . S
C492 C498 1.368 . S
C493 C477 1.349 . S
C493 H485 0.950 . S
C493 C491 1.327 . S
C494 C482 1.349 . S
C494 H488 0.950 . S
C494 C495 1.327 . S
C495 H489 0.950 . S
C495 C494 1.327 . S
C495 C499 1.429 . S
C496 C479 1.574 . S
C496 H490 0.949 . S
C496 C500 1.368 . S
C497 C478 1.429 . S
C497 C491 1.429 . S
C497 C498 1.523 . S
C498 C479 1.368 . S
C498 C492 1.368 . S
C498 C497 1.523 . S
C499 C483 1.429 . S
C499 C495 1.429 . S
C499 C500 1.523 . S
C500 C484 1.368 . S
C500 C496 1.368 . S
C500 C499 1.523 . S
H501 C476 0.950 . S
H502 C478 0.950 . S
H503 C479 0.949 . S
H504 C481 0.950 . S
H505 C483 0.950 . S
C506 C507 1.349 . S
C506 C508 1.327 . S
C506 H531 0.950 . S
C507 C506 1.349 . S
C507 C523 1.349 . S
C508 C506 1.327 . S
C508 C527 1.429 . S
C508 H532 0.950 . S
C509 C526 1.574 . S
C509 C528 1.368 . S
C509 H533 0.949 . S
H510 C514 0.949 . S
C511 C512 1.349 . S
C511 C513 1.327 . S
C511 H534 0.950 . S
C512 C511 1.349 . S
C512 C524 1.349 . S
C513 C511 1.327 . S
C513 C529 1.429 . S
C513 H535 0.950 . S
C514 H510 0.949 . S
C514 C522 1.574 . S
C514 C530 1.368 . S
H515 C523 0.950 . S
H516 C521 0.950 . S
H517 C522 0.949 . S
H518 C524 0.950 . S
H519 C525 0.950 . S
H520 C526 0.949 . S
C521 H516 0.950 . S
C521 C523 1.327 . S
C521 C527 1.429 . S
C522 C514 1.574 . S
C522 H517 0.949 . S
C522 C528 1.368 . S
C523 C507 1.349 . S
C523 H515 0.950 . S
C523 C521 1.327 . S
C524 C512 1.349 . S
C524 H518 0.950 . S
C524 C525 1.327 . S
C525 H519 0.950 . S
C525 C524 1.327 . S
C525 C529 1.429 . S
C526 C509 1.574 . S
C526 H520 0.949 . S
C526 C530 1.368 . S
C527 C508 1.429 . S
C527 C521 1.429 . S
C527 C528 1.523 . S
C528 C509 1.368 . S
C528 C522 1.368 . S
C528 C527 1.523 . S
C529 C513 1.429 . S
C529 C525 1.429 . S
C529 C530 1.523 . S
C530 C514 1.368 . S
C530 C526 1.368 . S
C530 C529 1.523 . S
H531 C506 0.950 . S
H532 C508 0.950 . S
H533 C509 0.949 . S
H534 C511 0.950 . S
H535 C513 0.950 . S
C536 C537 1.349 . S
C536 C538 1.327 . S
C536 H561 0.950 . S
C537 C536 1.349 . S
C537 C553 1.349 . S
C538 C536 1.327 . S
C538 C557 1.429 . S
C538 H562 0.950 . S
C539 C556 1.574 . S
C539 C558 1.368 . S
C539 H563 0.949 . S
H540 C544 0.949 . S
C541 C542 1.349 . S
C541 C543 1.327 . S
C541 H564 0.950 . S
C542 C541 1.349 . S
C542 C554 1.349 . S
C543 C541 1.327 . S
C543 C559 1.429 . S
C543 H565 0.950 . S
C544 H540 0.949 . S
C544 C552 1.574 . S
C544 C560 1.368 . S
H545 C553 0.950 . S
H546 C551 0.950 . S
H547 C552 0.949 . S
H548 C554 0.950 . S
H549 C555 0.950 . S
H550 C556 0.949 . S
C551 H546 0.950 . S
C551 C553 1.327 . S
C551 C557 1.429 . S
C552 C544 1.574 . S
C552 H547 0.949 . S
C552 C558 1.368 . S
C553 C537 1.349 . S
C553 H545 0.950 . S
C553 C551 1.327 . S
C554 C542 1.349 . S
C554 H548 0.950 . S
C554 C555 1.327 . S
C555 H549 0.950 . S
C555 C554 1.327 . S
C555 C559 1.429 . S
C556 C539 1.574 . S
C556 H550 0.949 . S
C556 C560 1.368 . S
C557 C538 1.429 . S
C557 C551 1.429 . S
C557 C558 1.523 . S
C558 C539 1.368 . S
C558 C552 1.368 . S
C558 C557 1.523 . S
C559 C543 1.429 . S
C559 C555 1.429 . S
C559 C560 1.523 . S
C560 C544 1.368 . S
C560 C556 1.368 . S
C560 C559 1.523 . S
H561 C536 0.950 . S
H562 C538 0.950 . S
H563 C539 0.949 . S
H564 C541 0.950 . S
H565 C543 0.950 . S
C566 C567 1.349 . S
C566 C568 1.327 . S
C566 H591 0.950 . S
C567 C566 1.349 . S
C567 C583 1.349 . S
C568 C566 1.327 . S
C568 C587 1.429 . S
C568 H592 0.950 . S
C569 C586 1.574 . S
C569 C588 1.368 . S
C569 H593 0.949 . S
H570 C574 0.949 . S
C571 C572 1.349 . S
C571 C573 1.327 . S
C571 H594 0.950 . S
C572 C571 1.349 . S
C572 C584 1.349 . S
C573 C571 1.327 . S
C573 C589 1.429 . S
C573 H595 0.950 . S
C574 H570 0.949 . S
C574 C582 1.574 . S
C574 C590 1.368 . S
H575 C583 0.950 . S
H576 C581 0.950 . S
H577 C582 0.949 . S
H578 C584 0.950 . S
H579 C585 0.950 . S
H580 C586 0.949 . S
C581 H576 0.950 . S
C581 C583 1.327 . S
C581 C587 1.429 . S
C582 C574 1.574 . S
C582 H577 0.949 . S
C582 C588 1.368 . S
C583 C567 1.349 . S
C583 H575 0.950 . S
C583 C581 1.327 . S
C584 C572 1.349 . S
C584 H578 0.950 . S
C584 C585 1.327 . S
C585 H579 0.950 . S
C585 C584 1.327 . S
C585 C589 1.429 . S
C586 C569 1.574 . S
C586 H580 0.949 . S
C586 C590 1.368 . S
C587 C568 1.429 . S
C587 C581 1.429 . S
C587 C588 1.523 . S
C588 C569 1.368 . S
C588 C582 1.368 . S
C588 C587 1.523 . S
C589 C573 1.429 . S
C589 C585 1.429 . S
C589 C590 1.523 . S
C590 C574 1.368 . S
C590 C586 1.368 . S
C590 C589 1.523 . S
H591 C566 0.950 . S
H592 C568 0.950 . S
H593 C569 0.949 . S
H594 C571 0.950 . S
H595 C573 0.950 . S
C596 C597 1.349 . S
C596 C598 1.327 . S
C596 H621 0.950 . S
C597 C596 1.349 . S
C597 C613 1.349 . S
C598 C596 1.327 . S
C598 C617 1.429 . S
C598 H622 0.950 . S
C599 C616 1.574 . S
C599 C618 1.368 . S
C599 H623 0.949 . S
H600 C604 0.949 . S
C601 C602 1.349 . S
C601 C603 1.327 . S
C601 H624 0.950 . S
C602 C601 1.349 . S
C602 C614 1.349 . S
C603 C601 1.327 . S
C603 C619 1.429 . S
C603 H625 0.950 . S
C604 H600 0.949 . S
C604 C612 1.574 . S
C604 C620 1.368 . S
H605 C613 0.950 . S
H606 C611 0.950 . S
H607 C612 0.949 . S
H608 C614 0.950 . S
H609 C615 0.950 . S
H610 C616 0.949 . S
C611 H606 0.950 . S
C611 C613 1.327 . S
C611 C617 1.429 . S
C612 C604 1.574 . S
C612 H607 0.949 . S
C612 C618 1.368 . S
C613 C597 1.349 . S
C613 H605 0.950 . S
C613 C611 1.327 . S
C614 C602 1.349 . S
C614 H608 0.950 . S
C614 C615 1.327 . S
C615 H609 0.950 . S
C615 C614 1.327 . S
C615 C619 1.429 . S
C616 C599 1.574 . S
C616 H610 0.949 . S
C616 C620 1.368 . S
C617 C598 1.429 . S
C617 C611 1.429 . S
C617 C618 1.523 . S
C618 C599 1.368 . S
C618 C612 1.368 . S
C618 C617 1.523 . S
C619 C603 1.429 . S
C619 C615 1.429 . S
C619 C620 1.523 . S
C620 C604 1.368 . S
C620 C616 1.368 . S
C620 C619 1.523 . S
H621 C596 0.950 . S
H622 C598 0.950 . S
H623 C599 0.949 . S
H624 C601 0.950 . S
H625 C603 0.950 . S
C626 C627 1.349 . S
C626 C628 1.327 . S
C626 H651 0.950 . S
C627 C626 1.349 . S
C627 C643 1.349 . S
C628 C626 1.327 . S
C628 C647 1.429 . S
C628 H652 0.950 . S
C629 C646 1.574 . S
C629 C648 1.368 . S
C629 H653 0.949 . S
H630 C634 0.949 . S
C631 C632 1.349 . S
C631 C633 1.327 . S
C631 H654 0.950 . S
C632 C631 1.349 . S
C632 C644 1.349 . S
C633 C631 1.327 . S
C633 C649 1.429 . S
C633 H655 0.950 . S
C634 H630 0.949 . S
C634 C642 1.574 . S
C634 C650 1.368 . S
H635 C643 0.950 . S
H636 C641 0.950 . S
H637 C642 0.949 . S
H638 C644 0.950 . S
H639 C645 0.950 . S
H640 C646 0.949 . S
C641 H636 0.950 . S
C641 C643 1.327 . S
C641 C647 1.429 . S
C642 C634 1.574 . S
C642 H637 0.949 . S
C642 C648 1.368 . S
C643 C627 1.349 . S
C643 H635 0.950 . S
C643 C641 1.327 . S
C644 C632 1.349 . S
C644 H638 0.950 . S
C644 C645 1.327 . S
C645 H639 0.950 . S
C645 C644 1.327 . S
C645 C649 1.429 . S
C646 C629 1.574 . S
C646 H640 0.949 . S
C646 C650 1.368 . S
C647 C628 1.429 . S
C647 C641 1.429 . S
C647 C648 1.523 . S
C648 C629 1.368 . S
C648 C642 1.368 . S
C648 C647 1.523 . S
C649 C633 1.429 . S
C649 C645 1.429 . S
C649 C650 1.523 . S
C650 C634 1.368 . S
C650 C646 1.368 . S
C650 C649 1.523 . S
H651 C626 0.950 . S
H652 C628 0.950 . S
H653 C629 0.949 . S
H654 C631 0.950 . S
H655 C633 0.950 . S
C656 C657 1.349 . S
C656 C658 1.327 . S
C656 H681 0.950 . S
C657 C656 1.349 . S
C657 C673 1.349 . S
C658 C656 1.327 . S
C658 C677 1.429 . S
C658 H682 0.950 . S
C659 C676 1.574 . S
C659 C678 1.368 . S
C659 H683 0.949 . S
H660 C664 0.949 . S
C661 C662 1.349 . S
C661 C663 1.327 . S
C661 H684 0.950 . S
C662 C661 1.349 . S
C662 C674 1.349 . S
C663 C661 1.327 . S
C663 C679 1.429 . S
C663 H685 0.950 . S
C664 H660 0.949 . S
C664 C672 1.574 . S
C664 C680 1.368 . S
H665 C673 0.950 . S
H666 C671 0.950 . S
H667 C672 0.949 . S
H668 C674 0.950 . S
H669 C675 0.950 . S
H670 C676 0.949 . S
C671 H666 0.950 . S
C671 C673 1.327 . S
C671 C677 1.429 . S
C672 C664 1.574 . S
C672 H667 0.949 . S
C672 C678 1.368 . S
C673 C657 1.349 . S
C673 H665 0.950 . S
C673 C671 1.327 . S
C674 C662 1.349 . S
C674 H668 0.950 . S
C674 C675 1.327 . S
C675 H669 0.950 . S
C675 C674 1.327 . S
C675 C679 1.429 . S
C676 C659 1.574 . S
C676 H670 0.949 . S
C676 C680 1.368 . S
C677 C658 1.429 . S
C677 C671 1.429 . S
C677 C678 1.523 . S
C678 C659 1.368 . S
C678 C672 1.368 . S
C678 C677 1.523 . S
C679 C663 1.429 . S
C679 C675 1.429 . S
C679 C680 1.523 . S
C680 C664 1.368 . S
C680 C676 1.368 . S
C680 C679 1.523 . S
H681 C656 0.950 . S
H682 C658 0.950 . S
H683 C659 0.949 . S
H684 C661 0.950 . S
H685 C663 0.950 . S
C686 C687 1.349 . S
C686 C688 1.327 . S
C686 H711 0.950 . S
C687 C686 1.349 . S
C687 C703 1.349 . S
C688 C686 1.327 . S
C688 C707 1.429 . S
C688 H712 0.950 . S
C689 C706 1.574 . S
C689 C708 1.368 . S
C689 H713 0.949 . S
H690 C694 0.949 . S
C691 C692 1.349 . S
C691 C693 1.327 . S
C691 H714 0.950 . S
C692 C691 1.349 . S
C692 C704 1.349 . S
C693 C691 1.327 . S
C693 C709 1.429 . S
C693 H715 0.950 . S
C694 H690 0.949 . S
C694 C702 1.574 . S
C694 C710 1.368 . S
H695 C703 0.950 . S
H696 C701 0.950 . S
H697 C702 0.949 . S
H698 C704 0.950 . S
H699 C705 0.950 . S
H700 C706 0.949 . S
C701 H696 0.950 . S
C701 C703 1.327 . S
C701 C707 1.429 . S
C702 C694 1.574 . S
C702 H697 0.949 . S
C702 C708 1.368 . S
C703 C687 1.349 . S
C703 H695 0.950 . S
C703 C701 1.327 . S
C704 C692 1.349 . S
C704 H698 0.950 . S
C704 C705 1.327 . S
C705 H699 0.950 . S
C705 C704 1.327 . S
C705 C709 1.429 . S
C706 C689 1.574 . S
C706 H700 0.949 . S
C706 C710 1.368 . S
C707 C688 1.429 . S
C707 C701 1.429 . S
C707 C708 1.523 . S
C708 C689 1.368 . S
C708 C702 1.368 . S
C708 C707 1.523 . S
C709 C693 1.429 . S
C709 C705 1.429 . S
C709 C710 1.523 . S
C710 C694 1.368 . S
C710 C706 1.368 . S
C710 C709 1.523 . S
H711 C686 0.950 . S
H712 C688 0.950 . S
H713 C689 0.949 . S
H714 C691 0.950 . S
H715 C693 0.950 . S
C716 C717 1.349 . S
C716 C718 1.327 . S
C716 H741 0.950 . S
C717 C716 1.349 . S
C717 C733 1.349 . S
C718 C716 1.327 . S
C718 C737 1.429 . S
C718 H742 0.950 . S
C719 C736 1.574 . S
C719 C738 1.368 . S
C719 H743 0.949 . S
H720 C724 0.949 . S
C721 C722 1.349 . S
C721 C723 1.327 . S
C721 H744 0.950 . S
C722 C721 1.349 . S
C722 C734 1.349 . S
C723 C721 1.327 . S
C723 C739 1.429 . S
C723 H745 0.950 . S
C724 H720 0.949 . S
C724 C732 1.574 . S
C724 C740 1.368 . S
H725 C733 0.950 . S
H726 C731 0.950 . S
H727 C732 0.949 . S
H728 C734 0.950 . S
H729 C735 0.950 . S
H730 C736 0.949 . S
C731 H726 0.950 . S
C731 C733 1.327 . S
C731 C737 1.429 . S
C732 C724 1.574 . S
C732 H727 0.949 . S
C732 C738 1.368 . S
C733 C717 1.349 . S
C733 H725 0.950 . S
C733 C731 1.327 . S
C734 C722 1.349 . S
C734 H728 0.950 . S
C734 C735 1.327 . S
C735 H729 0.950 . S
C735 C734 1.327 . S
C735 C739 1.429 . S
C736 C719 1.574 . S
C736 H730 0.949 . S
C736 C740 1.368 . S
C737 C718 1.429 . S
C737 C731 1.429 . S
C737 C738 1.523 . S
C738 C719 1.368 . S
C738 C732 1.368 . S
C738 C737 1.523 . S
C739 C723 1.429 . S
C739 C735 1.429 . S
C739 C740 1.523 . S
C740 C724 1.368 . S
C740 C736 1.368 . S
C740 C739 1.523 . S
H741 C716 0.950 . S
H742 C718 0.950 . S
H743 C719 0.949 . S
H744 C721 0.950 . S
H745 C723 0.950 . S
C746 C747 1.349 . S
C746 C748 1.327 . S
C746 H771 0.950 . S
C747 C746 1.349 . S
C747 C763 1.349 . S
C748 C746 1.327 . S
C748 C767 1.429 . S
C748 H772 0.950 . S
C749 C766 1.574 . S
C749 C768 1.368 . S
C749 H773 0.949 . S
H750 C754 0.949 . S
C751 C752 1.349 . S
C751 C753 1.327 . S
C751 H774 0.950 . S
C752 C751 1.349 . S
C752 C764 1.349 . S
C753 C751 1.327 . S
C753 C769 1.429 . S
C753 H775 0.950 . S
C754 H750 0.949 . S
C754 C762 1.574 . S
C754 C770 1.368 . S
H755 C763 0.950 . S
H756 C761 0.950 . S
H757 C762 0.949 . S
H758 C764 0.950 . S
H759 C765 0.950 . S
H760 C766 0.949 . S
C761 H756 0.950 . S
C761 C763 1.327 . S
C761 C767 1.429 . S
C762 C754 1.574 . S
C762 H757 0.949 . S
C762 C768 1.368 . S
C763 C747 1.349 . S
C763 H755 0.950 . S
C763 C761 1.327 . S
C764 C752 1.349 . S
C764 H758 0.950 . S
C764 C765 1.327 . S
C765 H759 0.950 . S
C765 C764 1.327 . S
C765 C769 1.429 . S
C766 C749 1.574 . S
C766 H760 0.949 . S
C766 C770 1.368 . S
C767 C748 1.429 . S
C767 C761 1.429 . S
C767 C768 1.523 . S
C768 C749 1.368 . S
C768 C762 1.368 . S
C768 C767 1.523 . S
C769 C753 1.429 . S
C769 C765 1.429 . S
C769 C770 1.523 . S
C770 C754 1.368 . S
C770 C766 1.368 . S
C770 C769 1.523 . S
H771 C746 0.950 . S
H772 C748 0.950 . S
H773 C749 0.949 . S
H774 C751 0.950 . S
H775 C753 0.950 . S
C776 C777 1.349 . S
C776 C778 1.327 . S
C776 H801 0.950 . S
C777 C776 1.349 . S
C777 C793 1.349 . S
C778 C776 1.327 . S
C778 C797 1.429 . S
C778 H802 0.950 . S
C779 C796 1.574 . S
C779 C798 1.368 . S
C779 H803 0.949 . S
H780 C784 0.949 . S
C781 C782 1.349 . S
C781 C783 1.327 . S
C781 H804 0.950 . S
C782 C781 1.349 . S
C782 C794 1.349 . S
C783 C781 1.327 . S
C783 C799 1.429 . S
C783 H805 0.950 . S
C784 H780 0.949 . S
C784 C792 1.574 . S
C784 C800 1.368 . S
H785 C793 0.950 . S
H786 C791 0.950 . S
H787 C792 0.949 . S
H788 C794 0.950 . S
H789 C795 0.950 . S
H790 C796 0.949 . S
C791 H786 0.950 . S
C791 C793 1.327 . S
C791 C797 1.429 . S
C792 C784 1.574 . S
C792 H787 0.949 . S
C792 C798 1.368 . S
C793 C777 1.349 . S
C793 H785 0.950 . S
C793 C791 1.327 . S
C794 C782 1.349 . S
C794 H788 0.950 . S
C794 C795 1.327 . S
C795 H789 0.950 . S
C795 C794 1.327 . S
C795 C799 1.429 . S
C796 C779 1.574 . S
C796 H790 0.949 . S
C796 C800 1.368 . S
C797 C778 1.429 . S
C797 C791 1.429 . S
C797 C798 1.523 . S
C798 C779 1.368 . S
C798 C792 1.368 . S
C798 C797 1.523 . S
C799 C783 1.429 . S
C799 C795 1.429 . S
C799 C800 1.523 . S
C800 C784 1.368 . S
C800 C796 1.368 . S
C800 C799 1.523 . S
H801 C776 0.950 . S
H802 C778 0.950 . S
H803 C779 0.949 . S
H804 C781 0.950 . S
H805 C783 0.950 . S
C806 C807 1.349 . S
C806 C808 1.327 . S
C806 H831 0.950 . S
C807 C806 1.349 . S
C807 C823 1.349 . S
C808 C806 1.327 . S
C808 C827 1.429 . S
C808 H832 0.950 . S
C809 C826 1.574 . S
C809 C828 1.368 . S
C809 H833 0.949 . S
H810 C814 0.949 . S
C811 C812 1.349 . S
C811 C813 1.327 . S
C811 H834 0.950 . S
C812 C811 1.349 . S
C812 C824 1.349 . S
C813 C811 1.327 . S
C813 C829 1.429 . S
C813 H835 0.950 . S
C814 H810 0.949 . S
C814 C822 1.574 . S
C814 C830 1.368 . S
H815 C823 0.950 . S
H816 C821 0.950 . S
H817 C822 0.949 . S
H818 C824 0.950 . S
H819 C825 0.950 . S
H820 C826 0.949 . S
C821 H816 0.950 . S
C821 C823 1.327 . S
C821 C827 1.429 . S
C822 C814 1.574 . S
C822 H817 0.949 . S
C822 C828 1.368 . S
C823 C807 1.349 . S
C823 H815 0.950 . S
C823 C821 1.327 . S
C824 C812 1.349 . S
C824 H818 0.950 . S
C824 C825 1.327 . S
C825 H819 0.950 . S
C825 C824 1.327 . S
C825 C829 1.429 . S
C826 C809 1.574 . S
C826 H820 0.949 . S
C826 C830 1.368 . S
C827 C808 1.429 . S
C827 C821 1.429 . S
C827 C828 1.523 . S
C828 C809 1.368 . S
C828 C822 1.368 . S
C828 C827 1.523 . S
C829 C813 1.429 . S
C829 C825 1.429 . S
C829 C830 1.523 . S
C830 C814 1.368 . S
C830 C826 1.368 . S
C830 C829 1.523 . S
H831 C806 0.950 . S
H832 C808 0.950 . S
H833 C809 0.949 . S
H834 C811 0.950 . S
H835 C813 0.950 . S
C836 C837 1.349 . S
C836 C838 1.327 . S
C836 H861 0.950 . S
C837 C836 1.349 . S
C837 C853 1.349 . S
C838 C836 1.327 . S
C838 C857 1.429 . S
C838 H862 0.950 . S
C839 C856 1.574 . S
C839 C858 1.368 . S
C839 H863 0.949 . S
H840 C844 0.949 . S
C841 C842 1.349 . S
C841 C843 1.327 . S
C841 H864 0.950 . S
C842 C841 1.349 . S
C842 C854 1.349 . S
C843 C841 1.327 . S
C843 C859 1.429 . S
C843 H865 0.950 . S
C844 H840 0.949 . S
C844 C852 1.574 . S
C844 C860 1.368 . S
H845 C853 0.950 . S
H846 C851 0.950 . S
H847 C852 0.949 . S
H848 C854 0.950 . S
H849 C855 0.950 . S
H850 C856 0.949 . S
C851 H846 0.950 . S
C851 C853 1.327 . S
C851 C857 1.429 . S
C852 C844 1.574 . S
C852 H847 0.949 . S
C852 C858 1.368 . S
C853 C837 1.349 . S
C853 H845 0.950 . S
C853 C851 1.327 . S
C854 C842 1.349 . S
C854 H848 0.950 . S
C854 C855 1.327 . S
C855 H849 0.950 . S
C855 C854 1.327 . S
C855 C859 1.429 . S
C856 C839 1.574 . S
C856 H850 0.949 . S
C856 C860 1.368 . S
C857 C838 1.429 . S
C857 C851 1.429 . S
C857 C858 1.523 . S
C858 C839 1.368 . S
C858 C852 1.368 . S
C858 C857 1.523 . S
C859 C843 1.429 . S
C859 C855 1.429 . S
C859 C860 1.523 . S
C860 C844 1.368 . S
C860 C856 1.368 . S
C860 C859 1.523 . S
H861 C836 0.950 . S
H862 C838 0.950 . S
H863 C839 0.949 . S
H864 C841 0.950 . S
H865 C843 0.950 . S
C866 C867 1.349 . S
C866 C868 1.327 . S
C866 H891 0.950 . S
C867 C866 1.349 . S
C867 C883 1.349 . S
C868 C866 1.327 . S
C868 C887 1.429 . S
C868 H892 0.950 . S
C869 C886 1.574 . S
C869 C888 1.368 . S
C869 H893 0.949 . S
H870 C874 0.949 . S
C871 C872 1.349 . S
C871 C873 1.327 . S
C871 H894 0.950 . S
C872 C871 1.349 . S
C872 C884 1.349 . S
C873 C871 1.327 . S
C873 C889 1.429 . S
C873 H895 0.950 . S
C874 H870 0.949 . S
C874 C882 1.574 . S
C874 C890 1.368 . S
H875 C883 0.950 . S
H876 C881 0.950 . S
H877 C882 0.949 . S
H878 C884 0.950 . S
H879 C885 0.950 . S
H880 C886 0.949 . S
C881 H876 0.950 . S
C881 C883 1.327 . S
C881 C887 1.429 . S
C882 C874 1.574 . S
C882 H877 0.949 . S
C882 C888 1.368 . S
C883 C867 1.349 . S
C883 H875 0.950 . S
C883 C881 1.327 . S
C884 C872 1.349 . S
C884 H878 0.950 . S
C884 C885 1.327 . S
C885 H879 0.950 . S
C885 C884 1.327 . S
C885 C889 1.429 . S
C886 C869 1.574 . S
C886 H880 0.949 . S
C886 C890 1.368 . S
C887 C868 1.429 . S
C887 C881 1.429 . S
C887 C888 1.523 . S
C888 C869 1.368 . S
C888 C882 1.368 . S
C888 C887 1.523 . S
C889 C873 1.429 . S
C889 C885 1.429 . S
C889 C890 1.523 . S
C890 C874 1.368 . S
C890 C886 1.368 . S
C890 C889 1.523 . S
H891 C866 0.950 . S
H892 C868 0.950 . S
H893 C869 0.949 . S
H894 C871 0.950 . S
H895 C873 0.950 . S
C896 C897 1.349 . S
C896 C898 1.327 . S
C896 H921 0.950 . S
C897 C896 1.349 . S
C897 C913 1.349 . S
C898 C896 1.327 . S
C898 C917 1.429 . S
C898 H922 0.950 . S
C899 C916 1.574 1_455 S
C899 C918 1.368 . S
C899 H923 0.949 . S
H900 C904 0.949 . S
C901 C902 1.349 . S
C901 C903 1.327 . S
C901 H924 0.950 . S
C902 C901 1.349 . S
C902 C914 1.349 . S
C903 C901 1.327 . S
C903 C919 1.429 . S
C903 H925 0.950 . S
C904 H900 0.949 . S
C904 C912 1.574 1_655 S
C904 C920 1.368 . S
H905 C913 0.950 . S
H906 C911 0.950 . S
H907 C912 0.949 . S
H908 C914 0.950 . S
H909 C915 0.950 . S
H910 C916 0.949 . S
C911 H906 0.950 . S
C911 C913 1.327 . S
C911 C917 1.429 . S
C912 C904 1.574 1_455 S
C912 H907 0.949 . S
C912 C918 1.368 . S
C913 C897 1.349 . S
C913 H905 0.950 . S
C913 C911 1.327 . S
C914 C902 1.349 . S
C914 H908 0.950 . S
C914 C915 1.327 . S
C915 H909 0.950 . S
C915 C914 1.327 . S
C915 C919 1.429 . S
C916 C899 1.574 1_655 S
C916 H910 0.949 . S
C916 C920 1.368 . S
C917 C898 1.429 . S
C917 C911 1.429 . S
C917 C918 1.523 . S
C918 C899 1.368 . S
C918 C912 1.368 . S
C918 C917 1.523 . S
C919 C903 1.429 . S
C919 C915 1.429 . S
C919 C920 1.523 . S
C920 C904 1.368 . S
C920 C916 1.368 . S
C920 C919 1.523 . S
H921 C896 0.950 . S
H922 C898 0.950 . S
H923 C899 0.949 . S
H924 C901 0.950 . S
H925 C903 0.950 . S
C926 C927 1.349 . S
C926 C928 1.327 . S
C926 H951 0.950 . S
C927 C926 1.349 . S
C927 C943 1.349 . S
C928 C926 1.327 . S
C928 C947 1.429 . S
C928 H952 0.950 . S
C929 C946 1.574 . S
C929 C948 1.368 . S
C929 H953 0.949 . S
H930 C934 0.949 . S
C931 C932 1.349 . S
C931 C933 1.327 . S
C931 H954 0.950 . S
C932 C931 1.349 . S
C932 C944 1.349 . S
C933 C931 1.327 . S
C933 C949 1.429 . S
C933 H955 0.950 . S
C934 H930 0.949 . S
C934 C942 1.574 . S
C934 C950 1.368 . S
H935 C943 0.950 . S
H936 C941 0.950 . S
H937 C942 0.949 . S
H938 C944 0.950 . S
H939 C945 0.950 . S
H940 C946 0.949 . S
C941 H936 0.950 . S
C941 C943 1.327 . S
C941 C947 1.429 . S
C942 C934 1.574 . S
C942 H937 0.949 . S
C942 C948 1.368 . S
C943 C927 1.349 . S
C943 H935 0.950 . S
C943 C941 1.327 . S
C944 C932 1.349 . S
C944 H938 0.950 . S
C944 C945 1.327 . S
C945 H939 0.950 . S
C945 C944 1.327 . S
C945 C949 1.429 . S
C946 C929 1.574 . S
C946 H940 0.949 . S
C946 C950 1.368 . S
C947 C928 1.429 . S
C947 C941 1.429 . S
C947 C948 1.523 . S
C948 C929 1.368 . S
C948 C942 1.368 . S
C948 C947 1.523 . S
C949 C933 1.429 . S
C949 C945 1.429 . S
C949 C950 1.523 . S
C950 C934 1.368 . S
C950 C946 1.368 . S
C950 C949 1.523 . S
H951 C926 0.950 . S
H952 C928 0.950 . S
H953 C929 0.949 . S
H954 C931 0.950 . S
H955 C933 0.950 . S
C956 C957 1.349 . S
C956 C958 1.327 . S
C956 H981 0.950 . S
C957 C956 1.349 . S
C957 C973 1.349 . S
C958 C956 1.327 . S
C958 C977 1.429 . S
C958 H982 0.950 . S
C959 C976 1.574 . S
C959 C978 1.368 . S
C959 H983 0.949 . S
H960 C964 0.949 . S
C961 C962 1.349 . S
C961 C963 1.327 . S
C961 H984 0.950 . S
C962 C961 1.349 . S
C962 C974 1.349 . S
C963 C961 1.327 . S
C963 C979 1.429 . S
C963 H985 0.950 . S
C964 H960 0.949 . S
C964 C972 1.574 . S
C964 C980 1.368 . S
H965 C973 0.950 . S
H966 C971 0.950 . S
H967 C972 0.949 . S
H968 C974 0.950 . S
H969 C975 0.950 . S
H970 C976 0.949 . S
C971 H966 0.950 . S
C971 C973 1.327 . S
C971 C977 1.429 . S
C972 C964 1.574 . S
C972 H967 0.949 . S
C972 C978 1.368 . S
C973 C957 1.349 . S
C973 H965 0.950 . S
C973 C971 1.327 . S
C974 C962 1.349 . S
C974 H968 0.950 . S
C974 C975 1.327 . S
C975 H969 0.950 . S
C975 C974 1.327 . S
C975 C979 1.429 . S
C976 C959 1.574 . S
C976 H970 0.949 . S
C976 C980 1.368 . S
C977 C958 1.429 . S
C977 C971 1.429 . S
C977 C978 1.523 . S
C978 C959 1.368 . S
C978 C972 1.368 . S
C978 C977 1.523 . S
C979 C963 1.429 . S
C979 C975 1.429 . S
C979 C980 1.523 . S
C980 C964 1.368 . S
C980 C976 1.368 . S
C980 C979 1.523 . S
H981 C956 0.950 . S
H982 C958 0.950 . S
H983 C959 0.949 . S
H984 C961 0.950 . S
H985 C963 0.950 . S
C986 C987 1.349 . S
C986 C988 1.327 . S
C986 H1011 0.950 . S
C987 C986 1.349 . S
C987 C1003 1.349 . S
C988 C986 1.327 . S
C988 C1007 1.429 . S
C988 H1012 0.950 . S
C989 C1006 1.574 . S
C989 C1008 1.368 . S
C989 H1013 0.949 . S
H990 C994 0.949 . S
C991 C992 1.349 . S
C991 C993 1.327 . S
C991 H1014 0.950 . S
C992 C991 1.349 . S
C992 C1004 1.349 . S
C993 C991 1.327 . S
C993 C1009 1.429 . S
C993 H1015 0.950 . S
C994 H990 0.949 . S
C994 C1002 1.574 . S
C994 C1010 1.368 . S
H995 C1003 0.950 . S
H996 C1001 0.950 . S
H997 C1002 0.949 . S
H998 C1004 0.950 . S
H999 C1005 0.950 . S
H1000 C1006 0.949 . S
C1001 H996 0.950 . S
C1001 C1003 1.327 . S
C1001 C1007 1.429 . S
C1002 C994 1.574 . S
C1002 H997 0.949 . S
C1002 C1008 1.368 . S
C1003 C987 1.349 . S
C1003 H995 0.950 . S
C1003 C1001 1.327 . S
C1004 C992 1.349 . S
C1004 H998 0.950 . S
C1004 C1005 1.327 . S
C1005 H999 0.950 . S
C1005 C1004 1.327 . S
C1005 C1009 1.429 . S
C1006 C989 1.574 . S
C1006 H1000 0.949 . S
C1006 C1010 1.368 . S
C1007 C988 1.429 . S
C1007 C1001 1.429 . S
C1007 C1008 1.523 . S
C1008 C989 1.368 . S
C1008 C1002 1.368 . S
C1008 C1007 1.523 . S
C1009 C993 1.429 . S
C1009 C1005 1.429 . S
C1009 C1010 1.523 . S
C1010 C994 1.368 . S
C1010 C1006 1.368 . S
C1010 C1009 1.523 . S
H1011 C986 0.950 . S
H1012 C988 0.950 . S
H1013 C989 0.949 . S
H1014 C991 0.950 . S
H1015 C993 0.950 . S
C1016 C1017 1.349 . S
C1016 C1018 1.327 . S
C1016 H1041 0.950 . S
C1017 C1016 1.349 . S
C1017 C1033 1.349 . S
C1018 C1016 1.327 . S
C1018 C1037 1.429 . S
C1018 H1042 0.950 . S
C1019 C1036 1.574 1_655 S
C1019 C1038 1.368 . S
C1019 H1043 0.949 . S
H1020 C1024 0.949 . S
C1021 C1022 1.349 . S
C1021 C1023 1.327 . S
C1021 H1044 0.950 . S
C1022 C1021 1.349 . S
C1022 C1034 1.349 . S
C1023 C1021 1.327 . S
C1023 C1039 1.429 . S
C1023 H1045 0.950 . S
C1024 H1020 0.949 . S
C1024 C1032 1.574 1_455 S
C1024 C1040 1.368 . S
H1025 C1033 0.950 . S
H1026 C1031 0.950 . S
H1027 C1032 0.949 . S
H1028 C1034 0.950 . S
H1029 C1035 0.950 . S
H1030 C1036 0.949 . S
C1031 H1026 0.950 . S
C1031 C1033 1.327 . S
C1031 C1037 1.429 . S
C1032 C1024 1.574 1_655 S
C1032 H1027 0.949 . S
C1032 C1038 1.368 . S
C1033 C1017 1.349 . S
C1033 H1025 0.950 . S
C1033 C1031 1.327 . S
C1034 C1022 1.349 . S
C1034 H1028 0.950 . S
C1034 C1035 1.327 . S
C1035 H1029 0.950 . S
C1035 C1034 1.327 . S
C1035 C1039 1.429 . S
C1036 C1019 1.574 1_455 S
C1036 H1030 0.949 . S
C1036 C1040 1.368 . S
C1037 C1018 1.429 . S
C1037 C1031 1.429 . S
C1037 C1038 1.523 . S
C1038 C1019 1.368 . S
C1038 C1032 1.368 . S
C1038 C1037 1.523 . S
C1039 C1023 1.429 . S
C1039 C1035 1.429 . S
C1039 C1040 1.523 . S
C1040 C1024 1.368 . S
C1040 C1036 1.368 . S
C1040 C1039 1.523 . S
H1041 C1016 0.950 . S
H1042 C1018 0.950 . S
H1043 C1019 0.949 . S
H1044 C1021 0.950 . S
H1045 C1023 0.950 . S
C1046 C1047 1.349 . S
C1046 C1048 1.327 . S
C1046 H1071 0.950 . S
C1047 C1046 1.349 . S
C1047 C1063 1.349 . S
C1048 C1046 1.327 . S
C1048 C1067 1.429 . S
C1048 H1072 0.950 . S
C1049 C1066 1.574 . S
C1049 C1068 1.368 . S
C1049 H1073 0.949 . S
H1050 C1054 0.949 . S
C1051 C1052 1.349 . S
C1051 C1053 1.327 . S
C1051 H1074 0.950 . S
C1052 C1051 1.349 . S
C1052 C1064 1.349 . S
C1053 C1051 1.327 . S
C1053 C1069 1.429 . S
C1053 H1075 0.950 . S
C1054 H1050 0.949 . S
C1054 C1062 1.574 . S
C1054 C1070 1.368 . S
H1055 C1063 0.950 . S
H1056 C1061 0.950 . S
H1057 C1062 0.949 . S
H1058 C1064 0.950 . S
H1059 C1065 0.950 . S
H1060 C1066 0.949 . S
C1061 H1056 0.950 . S
C1061 C1063 1.327 . S
C1061 C1067 1.429 . S
C1062 C1054 1.574 . S
C1062 H1057 0.949 . S
C1062 C1068 1.368 . S
C1063 C1047 1.349 . S
C1063 H1055 0.950 . S
C1063 C1061 1.327 . S
C1064 C1052 1.349 . S
C1064 H1058 0.950 . S
C1064 C1065 1.327 . S
C1065 H1059 0.950 . S
C1065 C1064 1.327 . S
C1065 C1069 1.429 . S
C1066 C1049 1.574 . S
C1066 H1060 0.949 . S
C1066 C1070 1.368 . S
C1067 C1048 1.429 . S
C1067 C1061 1.429 . S
C1067 C1068 1.523 . S
C1068 C1049 1.368 . S
C1068 C1062 1.368 . S
C1068 C1067 1.523 . S
C1069 C1053 1.429 . S
C1069 C1065 1.429 . S
C1069 C1070 1.523 . S
C1070 C1054 1.368 . S
C1070 C1066 1.368 . S
C1070 C1069 1.523 . S
H1071 C1046 0.950 . S
H1072 C1048 0.950 . S
H1073 C1049 0.949 . S
H1074 C1051 0.950 . S
H1075 C1053 0.950 . S
C1076 C1077 1.349 . S
C1076 C1078 1.327 . S
C1076 H1101 0.950 . S
C1077 C1076 1.349 . S
C1077 C1093 1.349 . S
C1078 C1076 1.327 . S
C1078 C1097 1.429 . S
C1078 H1102 0.950 . S
C1079 C1096 1.574 . S
C1079 C1098 1.368 . S
C1079 H1103 0.949 . S
H1080 C1084 0.949 . S
C1081 C1082 1.349 . S
C1081 C1083 1.327 . S
C1081 H1104 0.950 . S
C1082 C1081 1.349 . S
C1082 C1094 1.349 . S
C1083 C1081 1.327 . S
C1083 C1099 1.429 . S
C1083 H1105 0.950 . S
C1084 H1080 0.949 . S
C1084 C1092 1.574 . S
C1084 C1100 1.368 . S
H1085 C1093 0.950 . S
H1086 C1091 0.950 . S
H1087 C1092 0.949 . S
H1088 C1094 0.950 . S
H1089 C1095 0.950 . S
H1090 C1096 0.949 . S
C1091 H1086 0.950 . S
C1091 C1093 1.327 . S
C1091 C1097 1.429 . S
C1092 C1084 1.574 . S
C1092 H1087 0.949 . S
C1092 C1098 1.368 . S
C1093 C1077 1.349 . S
C1093 H1085 0.950 . S
C1093 C1091 1.327 . S
C1094 C1082 1.349 . S
C1094 H1088 0.950 . S
C1094 C1095 1.327 . S
C1095 H1089 0.950 . S
C1095 C1094 1.327 . S
C1095 C1099 1.429 . S
C1096 C1079 1.574 . S
C1096 H1090 0.949 . S
C1096 C1100 1.368 . S
C1097 C1078 1.429 . S
C1097 C1091 1.429 . S
C1097 C1098 1.523 . S
C1098 C1079 1.368 . S
C1098 C1092 1.368 . S
C1098 C1097 1.523 . S
C1099 C1083 1.429 . S
C1099 C1095 1.429 . S
C1099 C1100 1.523 . S
C1100 C1084 1.368 . S
C1100 C1096 1.368 . S
C1100 C1099 1.523 . S
H1101 C1076 0.950 . S
H1102 C1078 0.950 . S
H1103 C1079 0.949 . S
H1104 C1081 0.950 . S
H1105 C1083 0.950 . S
C1106 C1107 1.349 . S
C1106 C1108 1.327 . S
C1106 H1131 0.950 . S
C1107 C1106 1.349 . S
C1107 C1123 1.349 . S
C1108 C1106 1.327 . S
C1108 C1127 1.429 . S
C1108 H1132 0.950 . S
C1109 C1126 1.574 . S
C1109 C1128 1.368 . S
C1109 H1133 0.949 . S
H1110 C1114 0.949 . S
C1111 C1112 1.349 . S
C1111 C1113 1.327 . S
C1111 H1134 0.950 . S
C1112 C1111 1.349 . S
C1112 C1124 1.349 . S
C1113 C1111 1.327 . S
C1113 C1129 1.429 . S
C1113 H1135 0.950 . S
C1114 H1110 0.949 . S
C1114 C1122 1.574 . S
C1114 C1130 1.368 . S
H1115 C1123 0.950 . S
H1116 C1121 0.950 . S
H1117 C1122 0.949 . S
H1118 C1124 0.950 . S
H1119 C1125 0.950 . S
H1120 C1126 0.949 . S
C1121 H1116 0.950 . S
C1121 C1123 1.327 . S
C1121 C1127 1.429 . S
C1122 C1114 1.574 . S
C1122 H1117 0.949 . S
C1122 C1128 1.368 . S
C1123 C1107 1.349 . S
C1123 H1115 0.950 . S
C1123 C1121 1.327 . S
C1124 C1112 1.349 . S
C1124 H1118 0.950 . S
C1124 C1125 1.327 . S
C1125 H1119 0.950 . S
C1125 C1124 1.327 . S
C1125 C1129 1.429 . S
C1126 C1109 1.574 . S
C1126 H1120 0.949 . S
C1126 C1130 1.368 . S
C1127 C1108 1.429 . S
C1127 C1121 1.429 . S
C1127 C1128 1.523 . S
C1128 C1109 1.368 . S
C1128 C1122 1.368 . S
C1128 C1127 1.523 . S
C1129 C1113 1.429 . S
C1129 C1125 1.429 . S
C1129 C1130 1.523 . S
C1130 C1114 1.368 . S
C1130 C1126 1.368 . S
C1130 C1129 1.523 . S
H1131 C1106 0.950 . S
H1132 C1108 0.950 . S
H1133 C1109 0.949 . S
H1134 C1111 0.950 . S
H1135 C1113 0.950 . S
C1136 C1137 1.349 . S
C1136 C1138 1.327 . S
C1136 H1161 0.950 . S
C1137 C1136 1.349 . S
C1137 C1153 1.349 . S
C1138 C1136 1.327 . S
C1138 C1157 1.429 . S
C1138 H1162 0.950 . S
C1139 C1156 1.574 . S
C1139 C1158 1.368 . S
C1139 H1163 0.949 . S
H1140 C1144 0.949 . S
C1141 C1142 1.349 . S
C1141 C1143 1.327 . S
C1141 H1164 0.950 . S
C1142 C1141 1.349 . S
C1142 C1154 1.349 . S
C1143 C1141 1.327 . S
C1143 C1159 1.429 . S
C1143 H1165 0.950 . S
C1144 H1140 0.949 . S
C1144 C1152 1.574 . S
C1144 C1160 1.368 . S
H1145 C1153 0.950 . S
H1146 C1151 0.950 . S
H1147 C1152 0.949 . S
H1148 C1154 0.950 . S
H1149 C1155 0.950 . S
H1150 C1156 0.949 . S
C1151 H1146 0.950 . S
C1151 C1153 1.327 . S
C1151 C1157 1.429 . S
C1152 C1144 1.574 . S
C1152 H1147 0.949 . S
C1152 C1158 1.368 . S
C1153 C1137 1.349 . S
C1153 H1145 0.950 . S
C1153 C1151 1.327 . S
C1154 C1142 1.349 . S
C1154 H1148 0.950 . S
C1154 C1155 1.327 . S
C1155 H1149 0.950 . S
C1155 C1154 1.327 . S
C1155 C1159 1.429 . S
C1156 C1139 1.574 . S
C1156 H1150 0.949 . S
C1156 C1160 1.368 . S
C1157 C1138 1.429 . S
C1157 C1151 1.429 . S
C1157 C1158 1.523 . S
C1158 C1139 1.368 . S
C1158 C1152 1.368 . S
C1158 C1157 1.523 . S
C1159 C1143 1.429 . S
C1159 C1155 1.429 . S
C1159 C1160 1.523 . S
C1160 C1144 1.368 . S
C1160 C1156 1.368 . S
C1160 C1159 1.523 . S
H1161 C1136 0.950 . S
H1162 C1138 0.950 . S
H1163 C1139 0.949 . S
H1164 C1141 0.950 . S
H1165 C1143 0.950 . S
C1166 C1167 1.349 . S
C1166 C1168 1.327 . S
C1166 H1191 0.950 . S
C1167 C1166 1.349 . S
C1167 C1183 1.349 . S
C1168 C1166 1.327 . S
C1168 C1187 1.429 . S
C1168 H1192 0.950 . S
C1169 C1186 1.574 . S
C1169 C1188 1.368 . S
C1169 H1193 0.949 . S
H1170 C1174 0.949 . S
C1171 C1172 1.349 . S
C1171 C1173 1.327 . S
C1171 H1194 0.950 . S
C1172 C1171 1.349 . S
C1172 C1184 1.349 . S
C1173 C1171 1.327 . S
C1173 C1189 1.429 . S
C1173 H1195 0.950 . S
C1174 H1170 0.949 . S
C1174 C1182 1.574 . S
C1174 C1190 1.368 . S
H1175 C1183 0.950 . S
H1176 C1181 0.950 . S
H1177 C1182 0.949 . S
H1178 C1184 0.950 . S
H1179 C1185 0.950 . S
H1180 C1186 0.949 . S
C1181 H1176 0.950 . S
C1181 C1183 1.327 . S
C1181 C1187 1.429 . S
C1182 C1174 1.574 . S
C1182 H1177 0.949 . S
C1182 C1188 1.368 . S
C1183 C1167 1.349 . S
C1183 H1175 0.950 . S
C1183 C1181 1.327 . S
C1184 C1172 1.349 . S
C1184 H1178 0.950 . S
C1184 C1185 1.327 . S
C1185 H1179 0.950 . S
C1185 C1184 1.327 . S
C1185 C1189 1.429 . S
C1186 C1169 1.574 . S
C1186 H1180 0.949 . S
C1186 C1190 1.368 . S
C1187 C1168 1.429 . S
C1187 C1181 1.429 . S
C1187 C1188 1.523 . S
C1188 C1169 1.368 . S
C1188 C1182 1.368 . S
C1188 C1187 1.523 . S
C1189 C1173 1.429 . S
C1189 C1185 1.429 . S
C1189 C1190 1.523 . S
C1190 C1174 1.368 . S
C1190 C1186 1.368 . S
C1190 C1189 1.523 . S
H1191 C1166 0.950 . S
H1192 C1168 0.950 . S
H1193 C1169 0.949 . S
H1194 C1171 0.950 . S
H1195 C1173 0.950 . S
C1196 C1197 1.349 . S
C1196 C1198 1.327 . S
C1196 H1221 0.950 . S
C1197 C1196 1.349 . S
C1197 C1213 1.349 . S
C1198 C1196 1.327 . S
C1198 C1217 1.429 . S
C1198 H1222 0.950 . S
C1199 C1216 1.574 . S
C1199 C1218 1.368 . S
C1199 H1223 0.949 . S
H1200 C1204 0.949 . S
C1201 C1202 1.349 . S
C1201 C1203 1.327 . S
C1201 H1224 0.950 . S
C1202 C1201 1.349 . S
C1202 C1214 1.349 . S
C1203 C1201 1.327 . S
C1203 C1219 1.429 . S
C1203 H1225 0.950 . S
C1204 H1200 0.949 . S
C1204 C1212 1.574 . S
C1204 C1220 1.368 . S
H1205 C1213 0.950 . S
H1206 C1211 0.950 . S
H1207 C1212 0.949 . S
H1208 C1214 0.950 . S
H1209 C1215 0.950 . S
H1210 C1216 0.949 . S
C1211 H1206 0.950 . S
C1211 C1213 1.327 . S
C1211 C1217 1.429 . S
C1212 C1204 1.574 . S
C1212 H1207 0.949 . S
C1212 C1218 1.368 . S
C1213 C1197 1.349 . S
C1213 H1205 0.950 . S
C1213 C1211 1.327 . S
C1214 C1202 1.349 . S
C1214 H1208 0.950 . S
C1214 C1215 1.327 . S
C1215 H1209 0.950 . S
C1215 C1214 1.327 . S
C1215 C1219 1.429 . S
C1216 C1199 1.574 . S
C1216 H1210 0.949 . S
C1216 C1220 1.368 . S
C1217 C1198 1.429 . S
C1217 C1211 1.429 . S
C1217 C1218 1.523 . S
C1218 C1199 1.368 . S
C1218 C1212 1.368 . S
C1218 C1217 1.523 . S
C1219 C1203 1.429 . S
C1219 C1215 1.429 . S
C1219 C1220 1.523 . S
C1220 C1204 1.368 . S
C1220 C1216 1.368 . S
C1220 C1219 1.523 . S
H1221 C1196 0.950 . S
H1222 C1198 0.950 . S
H1223 C1199 0.949 . S
H1224 C1201 0.950 . S
H1225 C1203 0.950 . S
C1226 C1227 1.349 . S
C1226 C1228 1.327 . S
C1226 H1251 0.950 . S
C1227 C1226 1.349 . S
C1227 C1243 1.349 . S
C1228 C1226 1.327 . S
C1228 C1247 1.429 . S
C1228 H1252 0.950 . S
C1229 C1246 1.574 . S
C1229 C1248 1.368 . S
C1229 H1253 0.949 . S
H1230 C1234 0.949 . S
C1231 C1232 1.349 . S
C1231 C1233 1.327 . S
C1231 H1254 0.950 . S
C1232 C1231 1.349 . S
C1232 C1244 1.349 . S
C1233 C1231 1.327 . S
C1233 C1249 1.429 . S
C1233 H1255 0.950 . S
C1234 H1230 0.949 . S
C1234 C1242 1.574 . S
C1234 C1250 1.368 . S
H1235 C1243 0.950 . S
H1236 C1241 0.950 . S
H1237 C1242 0.949 . S
H1238 C1244 0.950 . S
H1239 C1245 0.950 . S
H1240 C1246 0.949 . S
C1241 H1236 0.950 . S
C1241 C1243 1.327 . S
C1241 C1247 1.429 . S
C1242 C1234 1.574 . S
C1242 H1237 0.949 . S
C1242 C1248 1.368 . S
C1243 C1227 1.349 . S
C1243 H1235 0.950 . S
C1243 C1241 1.327 . S
C1244 C1232 1.349 . S
C1244 H1238 0.950 . S
C1244 C1245 1.327 . S
C1245 H1239 0.950 . S
C1245 C1244 1.327 . S
C1245 C1249 1.429 . S
C1246 C1229 1.574 . S
C1246 H1240 0.949 . S
C1246 C1250 1.368 . S
C1247 C1228 1.429 . S
C1247 C1241 1.429 . S
C1247 C1248 1.523 . S
C1248 C1229 1.368 . S
C1248 C1242 1.368 . S
C1248 C1247 1.523 . S
C1249 C1233 1.429 . S
C1249 C1245 1.429 . S
C1249 C1250 1.523 . S
C1250 C1234 1.368 . S
C1250 C1246 1.368 . S
C1250 C1249 1.523 . S
H1251 C1226 0.950 . S
H1252 C1228 0.950 . S
H1253 C1229 0.949 . S
H1254 C1231 0.950 . S
H1255 C1233 0.950 . S
C1256 C1257 1.349 . S
C1256 C1258 1.327 . S
C1256 H1281 0.950 . S
C1257 C1256 1.349 . S
C1257 C1273 1.349 . S
C1258 C1256 1.327 . S
C1258 C1277 1.429 . S
C1258 H1282 0.950 . S
C1259 C1276 1.574 . S
C1259 C1278 1.368 . S
C1259 H1283 0.949 . S
H1260 C1264 0.949 . S
C1261 C1262 1.349 . S
C1261 C1263 1.327 . S
C1261 H1284 0.950 . S
C1262 C1261 1.349 . S
C1262 C1274 1.349 . S
C1263 C1261 1.327 . S
C1263 C1279 1.429 . S
C1263 H1285 0.950 . S
C1264 H1260 0.949 . S
C1264 C1272 1.574 . S
C1264 C1280 1.368 . S
H1265 C1273 0.950 . S
H1266 C1271 0.950 . S
H1267 C1272 0.949 . S
H1268 C1274 0.950 . S
H1269 C1275 0.950 . S
H1270 C1276 0.949 . S
C1271 H1266 0.950 . S
C1271 C1273 1.327 . S
C1271 C1277 1.429 . S
C1272 C1264 1.574 . S
C1272 H1267 0.949 . S
C1272 C1278 1.368 . S
C1273 C1257 1.349 . S
C1273 H1265 0.950 . S
C1273 C1271 1.327 . S
C1274 C1262 1.349 . S
C1274 H1268 0.950 . S
C1274 C1275 1.327 . S
C1275 H1269 0.950 . S
C1275 C1274 1.327 . S
C1275 C1279 1.429 . S
C1276 C1259 1.574 . S
C1276 H1270 0.949 . S
C1276 C1280 1.368 . S
C1277 C1258 1.429 . S
C1277 C1271 1.429 . S
C1277 C1278 1.523 . S
C1278 C1259 1.368 . S
C1278 C1272 1.368 . S
C1278 C1277 1.523 . S
C1279 C1263 1.429 . S
C1279 C1275 1.429 . S
C1279 C1280 1.523 . S
C1280 C1264 1.368 . S
C1280 C1276 1.368 . S
C1280 C1279 1.523 . S
H1281 C1256 0.950 . S
H1282 C1258 0.950 . S
H1283 C1259 0.949 . S
H1284 C1261 0.950 . S
H1285 C1263 0.950 . S
C1286 C1287 1.349 . S
C1286 C1288 1.327 . S
C1286 H1311 0.950 . S
C1287 C1286 1.349 . S
C1287 C1303 1.349 . S
C1288 C1286 1.327 . S
C1288 C1307 1.429 . S
C1288 H1312 0.950 . S
C1289 C1306 1.574 1_655 S
C1289 C1308 1.368 . S
C1289 H1313 0.949 . S
H1290 C1294 0.949 . S
C1291 C1292 1.349 . S
C1291 C1293 1.327 . S
C1291 H1314 0.950 . S
C1292 C1291 1.349 . S
C1292 C1304 1.349 . S
C1293 C1291 1.327 . S
C1293 C1309 1.429 . S
C1293 H1315 0.950 . S
C1294 H1290 0.949 . S
C1294 C1302 1.574 1_455 S
C1294 C1310 1.368 . S
H1295 C1303 0.950 . S
H1296 C1301 0.950 . S
H1297 C1302 0.949 . S
H1298 C1304 0.950 . S
H1299 C1305 0.950 . S
H1300 C1306 0.949 . S
C1301 H1296 0.950 . S
C1301 C1303 1.327 . S
C1301 C1307 1.429 . S
C1302 C1294 1.574 1_655 S
C1302 H1297 0.949 . S
C1302 C1308 1.368 . S
C1303 C1287 1.349 . S
C1303 H1295 0.950 . S
C1303 C1301 1.327 . S
C1304 C1292 1.349 . S
C1304 H1298 0.950 . S
C1304 C1305 1.327 . S
C1305 H1299 0.950 . S
C1305 C1304 1.327 . S
C1305 C1309 1.429 . S
C1306 C1289 1.574 1_455 S
C1306 H1300 0.949 . S
C1306 C1310 1.368 . S
C1307 C1288 1.429 . S
C1307 C1301 1.429 . S
C1307 C1308 1.523 . S
C1308 C1289 1.368 . S
C1308 C1302 1.368 . S
C1308 C1307 1.523 . S
C1309 C1293 1.429 . S
C1309 C1305 1.429 . S
C1309 C1310 1.523 . S
C1310 C1294 1.368 . S
C1310 C1306 1.368 . S
C1310 C1309 1.523 . S
H1311 C1286 0.950 . S
H1312 C1288 0.950 . S
H1313 C1289 0.949 . S
H1314 C1291 0.950 . S
H1315 C1293 0.950 . S
C1316 C1317 1.349 . S
C1316 C1318 1.327 . S
C1316 H1341 0.950 . S
C1317 C1316 1.349 . S
C1317 C1333 1.349 . S
C1318 C1316 1.327 . S
C1318 C1337 1.429 . S
C1318 H1342 0.950 . S
C1319 C1336 1.574 . S
C1319 C1338 1.368 . S
C1319 H1343 0.949 . S
H1320 C1324 0.949 . S
C1321 C1322 1.349 . S
C1321 C1323 1.327 . S
C1321 H1344 0.950 . S
C1322 C1321 1.349 . S
C1322 C1334 1.349 . S
C1323 C1321 1.327 . S
C1323 C1339 1.429 . S
C1323 H1345 0.950 . S
C1324 H1320 0.949 . S
C1324 C1332 1.574 . S
C1324 C1340 1.368 . S
H1325 C1333 0.950 . S
H1326 C1331 0.950 . S
H1327 C1332 0.949 . S
H1328 C1334 0.950 . S
H1329 C1335 0.950 . S
H1330 C1336 0.949 . S
C1331 H1326 0.950 . S
C1331 C1333 1.327 . S
C1331 C1337 1.429 . S
C1332 C1324 1.574 . S
C1332 H1327 0.949 . S
C1332 C1338 1.368 . S
C1333 C1317 1.349 . S
C1333 H1325 0.950 . S
C1333 C1331 1.327 . S
C1334 C1322 1.349 . S
C1334 H1328 0.950 . S
C1334 C1335 1.327 . S
C1335 H1329 0.950 . S
C1335 C1334 1.327 . S
C1335 C1339 1.429 . S
C1336 C1319 1.574 . S
C1336 H1330 0.949 . S
C1336 C1340 1.368 . S
C1337 C1318 1.429 . S
C1337 C1331 1.429 . S
C1337 C1338 1.523 . S
C1338 C1319 1.368 . S
C1338 C1332 1.368 . S
C1338 C1337 1.523 . S
C1339 C1323 1.429 . S
C1339 C1335 1.429 . S
C1339 C1340 1.523 . S
C1340 C1324 1.368 . S
C1340 C1336 1.368 . S
C1340 C1339 1.523 . S
H1341 C1316 0.950 . S
H1342 C1318 0.950 . S
H1343 C1319 0.949 . S
H1344 C1321 0.950 . S
H1345 C1323 0.950 . S
C1346 C1347 1.349 . S
C1346 C1348 1.327 . S
C1346 H1371 0.950 . S
C1347 C1346 1.349 . S
C1347 C1363 1.349 . S
C1348 C1346 1.327 . S
C1348 C1367 1.429 . S
C1348 H1372 0.950 . S
C1349 C1366 1.574 1_455 S
C1349 C1368 1.368 . S
C1349 H1373 0.949 . S
H1350 C1354 0.949 . S
C1351 C1352 1.349 . S
C1351 C1353 1.327 . S
C1351 H1374 0.950 . S
C1352 C1351 1.349 . S
C1352 C1364 1.349 . S
C1353 C1351 1.327 . S
C1353 C1369 1.429 . S
C1353 H1375 0.950 . S
C1354 H1350 0.949 . S
C1354 C1362 1.574 1_655 S
C1354 C1370 1.368 . S
H1355 C1363 0.950 . S
H1356 C1361 0.950 . S
H1357 C1362 0.949 . S
H1358 C1364 0.950 . S
H1359 C1365 0.950 . S
H1360 C1366 0.949 . S
C1361 H1356 0.950 . S
C1361 C1363 1.327 . S
C1361 C1367 1.429 . S
C1362 C1354 1.574 1_455 S
C1362 H1357 0.949 . S
C1362 C1368 1.368 . S
C1363 C1347 1.349 . S
C1363 H1355 0.950 . S
C1363 C1361 1.327 . S
C1364 C1352 1.349 . S
C1364 H1358 0.950 . S
C1364 C1365 1.327 . S
C1365 H1359 0.950 . S
C1365 C1364 1.327 . S
C1365 C1369 1.429 . S
C1366 C1349 1.574 1_655 S
C1366 H1360 0.949 . S
C1366 C1370 1.368 . S
C1367 C1348 1.429 . S
C1367 C1361 1.429 . S
C1367 C1368 1.523 . S
C1368 C1349 1.368 . S
C1368 C1362 1.368 . S
C1368 C1367 1.523 . S
C1369 C1353 1.429 . S
C1369 C1365 1.429 . S
C1369 C1370 1.523 . S
C1370 C1354 1.368 . S
C1370 C1366 1.368 . S
C1370 C1369 1.523 . S
H1371 C1346 0.950 . S
H1372 C1348 0.950 . S
H1373 C1349 0.949 . S
H1374 C1351 0.950 . S
H1375 C1353 0.950 . S
C1376 C1377 1.349 . S
C1376 C1378 1.327 . S
C1376 H1401 0.950 . S
C1377 C1376 1.349 . S
C1377 C1393 1.349 . S
C1378 C1376 1.327 . S
C1378 C1397 1.429 . S
C1378 H1402 0.950 . S
C1379 C1396 1.574 . S
C1379 C1398 1.368 1_554 S
C1379 H1403 0.949 . S
H1380 C1384 0.949 . S
C1381 C1382 1.349 . S
C1381 C1383 1.327 . S
C1381 H1404 0.950 . S
C1382 C1381 1.349 . S
C1382 C1394 1.349 . S
C1383 C1381 1.327 . S
C1383 C1399 1.429 . S
C1383 H1405 0.950 . S
C1384 H1380 0.949 . S
C1384 C1392 1.574 . S
C1384 C1400 1.368 1_556 S
H1385 C1393 0.950 . S
H1386 C1391 0.950 1_554 S
H1387 C1392 0.949 . S
H1388 C1394 0.950 . S
H1389 C1395 0.950 1_556 S
H1390 C1396 0.949 . S
C1391 H1386 0.950 1_556 S
C1391 C1393 1.327 . S
C1391 C1397 1.429 . S
C1392 C1384 1.574 . S
C1392 H1387 0.949 . S
C1392 C1398 1.368 . S
C1393 C1377 1.349 . S
C1393 H1385 0.950 . S
C1393 C1391 1.327 . S
C1394 C1382 1.349 . S
C1394 H1388 0.950 . S
C1394 C1395 1.327 . S
C1395 H1389 0.950 1_554 S
C1395 C1394 1.327 . S
C1395 C1399 1.429 . S
C1396 C1379 1.574 . S
C1396 H1390 0.949 . S
C1396 C1400 1.368 . S
C1397 C1378 1.429 . S
C1397 C1391 1.429 . S
C1397 C1398 1.523 . S
C1398 C1379 1.368 1_556 S
C1398 C1392 1.368 . S
C1398 C1397 1.523 . S
C1399 C1383 1.429 . S
C1399 C1395 1.429 . S
C1399 C1400 1.523 . S
C1400 C1384 1.368 1_554 S
C1400 C1396 1.368 . S
C1400 C1399 1.523 . S
H1401 C1376 0.950 . S
H1402 C1378 0.950 . S
H1403 C1379 0.949 . S
H1404 C1381 0.950 . S
H1405 C1383 0.950 . S
C1406 C1407 1.349 . S
C1406 C1408 1.327 . S
C1406 H1431 0.950 . S
C1407 C1406 1.349 . S
C1407 C1423 1.349 . S
C1408 C1406 1.327 . S
C1408 C1427 1.429 . S
C1408 H1432 0.950 . S
C1409 C1426 1.574 . S
C1409 C1428 1.368 . S
C1409 H1433 0.949 . S
H1410 C1414 0.949 . S
C1411 C1412 1.349 . S
C1411 C1413 1.327 . S
C1411 H1434 0.950 . S
C1412 C1411 1.349 . S
C1412 C1424 1.349 . S
C1413 C1411 1.327 . S
C1413 C1429 1.429 . S
C1413 H1435 0.950 . S
C1414 H1410 0.949 . S
C1414 C1422 1.574 . S
C1414 C1430 1.368 . S
H1415 C1423 0.950 . S
H1416 C1421 0.950 . S
H1417 C1422 0.949 . S
H1418 C1424 0.950 . S
H1419 C1425 0.950 . S
H1420 C1426 0.949 . S
C1421 H1416 0.950 . S
C1421 C1423 1.327 . S
C1421 C1427 1.429 . S
C1422 C1414 1.574 . S
C1422 H1417 0.949 . S
C1422 C1428 1.368 . S
C1423 C1407 1.349 . S
C1423 H1415 0.950 . S
C1423 C1421 1.327 . S
C1424 C1412 1.349 . S
C1424 H1418 0.950 . S
C1424 C1425 1.327 . S
C1425 H1419 0.950 . S
C1425 C1424 1.327 . S
C1425 C1429 1.429 . S
C1426 C1409 1.574 . S
C1426 H1420 0.949 . S
C1426 C1430 1.368 . S
C1427 C1408 1.429 . S
C1427 C1421 1.429 . S
C1427 C1428 1.523 . S
C1428 C1409 1.368 . S
C1428 C1422 1.368 . S
C1428 C1427 1.523 . S
C1429 C1413 1.429 . S
C1429 C1425 1.429 . S
C1429 C1430 1.523 . S
C1430 C1414 1.368 . S
C1430 C1426 1.368 . S
C1430 C1429 1.523 . S
H1431 C1406 0.950 . S
H1432 C1408 0.950 . S
H1433 C1409 0.949 . S
H1434 C1411 0.950 . S
H1435 C1413 0.950 . S
C1436 C1437 1.349 . S
C1436 C1438 1.327 . S
C1436 H1461 0.950 . S
C1437 C1436 1.349 . S
C1437 C1453 1.349 . S
C1438 C1436 1.327 . S
C1438 C1457 1.429 . S
C1438 H1462 0.950 . S
C1439 C1456 1.574 . S
C1439 C1458 1.368 . S
C1439 H1463 0.949 . S
H1440 C1444 0.949 . S
C1441 C1442 1.349 . S
C1441 C1443 1.327 . S
C1441 H1464 0.950 . S
C1442 C1441 1.349 . S
C1442 C1454 1.349 . S
C1443 C1441 1.327 . S
C1443 C1459 1.429 . S
C1443 H1465 0.950 . S
C1444 H1440 0.949 . S
C1444 C1452 1.574 . S
C1444 C1460 1.368 . S
H1445 C1453 0.950 . S
H1446 C1451 0.950 . S
H1447 C1452 0.949 . S
H1448 C1454 0.950 . S
H1449 C1455 0.950 . S
H1450 C1456 0.949 . S
C1451 H1446 0.950 . S
C1451 C1453 1.327 . S
C1451 C1457 1.429 . S
C1452 C1444 1.574 . S
C1452 H1447 0.949 . S
C1452 C1458 1.368 . S
C1453 C1437 1.349 . S
C1453 H1445 0.950 . S
C1453 C1451 1.327 . S
C1454 C1442 1.349 . S
C1454 H1448 0.950 . S
C1454 C1455 1.327 . S
C1455 H1449 0.950 . S
C1455 C1454 1.327 . S
C1455 C1459 1.429 . S
C1456 C1439 1.574 . S
C1456 H1450 0.949 . S
C1456 C1460 1.368 . S
C1457 C1438 1.429 . S
C1457 C1451 1.429 . S
C1457 C1458 1.523 . S
C1458 C1439 1.368 . S
C1458 C1452 1.368 . S
C1458 C1457 1.523 . S
C1459 C1443 1.429 . S
C1459 C1455 1.429 . S
C1459 C1460 1.523 . S
C1460 C1444 1.368 . S
C1460 C1456 1.368 . S
C1460 C1459 1.523 . S
H1461 C1436 0.950 . S
H1462 C1438 0.950 . S
H1463 C1439 0.949 . S
H1464 C1441 0.950 . S
H1465 C1443 0.950 . S
C1466 C1467 1.349 . S
C1466 C1468 1.327 . S
C1466 H1491 0.950 . S
C1467 C1466 1.349 . S
C1467 C1483 1.349 . S
C1468 C1466 1.327 . S
C1468 C1487 1.429 . S
C1468 H1492 0.950 . S
C1469 C1486 1.574 . S
C1469 C1488 1.368 . S
C1469 H1493 0.949 . S
H1470 C1474 0.949 . S
C1471 C1472 1.349 . S
C1471 C1473 1.327 . S
C1471 H1494 0.950 . S
C1472 C1471 1.349 . S
C1472 C1484 1.349 . S
C1473 C1471 1.327 . S
C1473 C1489 1.429 . S
C1473 H1495 0.950 . S
C1474 H1470 0.949 . S
C1474 C1482 1.574 . S
C1474 C1490 1.368 . S
H1475 C1483 0.950 . S
H1476 C1481 0.950 . S
H1477 C1482 0.949 . S
H1478 C1484 0.950 . S
H1479 C1485 0.950 . S
H1480 C1486 0.949 . S
C1481 H1476 0.950 . S
C1481 C1483 1.327 . S
C1481 C1487 1.429 . S
C1482 C1474 1.574 . S
C1482 H1477 0.949 . S
C1482 C1488 1.368 . S
C1483 C1467 1.349 . S
C1483 H1475 0.950 . S
C1483 C1481 1.327 . S
C1484 C1472 1.349 . S
C1484 H1478 0.950 . S
C1484 C1485 1.327 . S
C1485 H1479 0.950 . S
C1485 C1484 1.327 . S
C1485 C1489 1.429 . S
C1486 C1469 1.574 . S
C1486 H1480 0.949 . S
C1486 C1490 1.368 . S
C1487 C1468 1.429 . S
C1487 C1481 1.429 . S
C1487 C1488 1.523 . S
C1488 C1469 1.368 . S
C1488 C1482 1.368 . S
C1488 C1487 1.523 . S
C1489 C1473 1.429 . S
C1489 C1485 1.429 . S
C1489 C1490 1.523 . S
C1490 C1474 1.368 . S
C1490 C1486 1.368 . S
C1490 C1489 1.523 . S
H1491 C1466 0.950 . S
H1492 C1468 0.950 . S
H1493 C1469 0.949 . S
H1494 C1471 0.950 . S
H1495 C1473 0.950 . S
C1496 C1497 1.349 . S
C1496 C1498 1.327 . S
C1496 H1521 0.950 . S
C1497 C1496 1.349 . S
C1497 C1513 1.349 . S
C1498 C1496 1.327 . S
C1498 C1517 1.429 . S
C1498 H1522 0.950 . S
C1499 C1516 1.574 . S
C1499 C1518 1.368 1_556 S
C1499 H1523 0.949 . S
H1500 C1504 0.949 . S
C1501 C1502 1.349 . S
C1501 C1503 1.327 . S
C1501 H1524 0.950 . S
C1502 C1501 1.349 . S
C1502 C1514 1.349 . S
C1503 C1501 1.327 . S
C1503 C1519 1.429 . S
C1503 H1525 0.950 . S
C1504 H1500 0.949 . S
C1504 C1512 1.574 . S
C1504 C1520 1.368 1_554 S
H1505 C1513 0.903 1_556 S
H1506 C1511 0.904 1_556 S
H1507 C1512 0.949 . S
H1508 C1514 0.903 1_554 S
H1509 C1515 0.904 1_554 S
H1510 C1516 0.949 . S
C1511 H1506 0.904 1_554 S
C1511 C1513 1.344 . S
C1511 C1517 1.458 . S
C1512 C1504 1.574 . S
C1512 H1507 0.949 . S
C1512 C1518 1.368 . S
C1513 C1497 1.349 . S
C1513 H1505 0.903 1_554 S
C1513 C1511 1.344 . S
C1514 C1502 1.349 . S
C1514 H1508 0.903 1_556 S
C1514 C1515 1.344 . S
C1515 H1509 0.904 1_556 S
C1515 C1514 1.344 . S
C1515 C1519 1.457 . S
C1516 C1499 1.574 . S
C1516 H1510 0.949 . S
C1516 C1520 1.368 . S
C1517 C1498 1.429 . S
C1517 C1511 1.458 . S
C1517 C1518 1.523 . S
C1518 C1499 1.368 1_554 S
C1518 C1512 1.368 . S
C1518 C1517 1.523 . S
C1519 C1503 1.429 . S
C1519 C1515 1.457 . S
C1519 C1520 1.523 . S
C1520 C1504 1.368 1_556 S
C1520 C1516 1.368 . S
C1520 C1519 1.523 . S
H1521 C1496 0.950 . S
H1522 C1498 0.950 . S
H1523 C1499 0.949 . S
H1524 C1501 0.950 . S
H1525 C1503 0.950 . S
C1526 C1527 1.349 . S
C1526 C1528 1.327 . S
C1526 H1551 0.950 . S
C1527 C1526 1.349 . S
C1527 C1543 1.349 . S
C1528 C1526 1.327 . S
C1528 C1547 1.429 . S
C1528 H1552 0.950 . S
C1529 C1546 1.574 . S
C1529 C1548 1.368 . S
C1529 H1553 0.949 . S
H1530 C1534 0.949 . S
C1531 C1532 1.349 . S
C1531 C1533 1.327 . S
C1531 H1554 0.950 . S
C1532 C1531 1.349 . S
C1532 C1544 1.349 . S
C1533 C1531 1.327 . S
C1533 C1549 1.429 . S
C1533 H1555 0.950 . S
C1534 H1530 0.949 . S
C1534 C1542 1.574 . S
C1534 C1550 1.368 . S
H1535 C1543 0.950 . S
H1536 C1541 0.950 . S
H1537 C1542 0.949 . S
H1538 C1544 0.950 . S
H1539 C1545 0.950 . S
H1540 C1546 0.949 . S
C1541 H1536 0.950 . S
C1541 C1543 1.327 . S
C1541 C1547 1.429 . S
C1542 C1534 1.574 . S
C1542 H1537 0.949 . S
C1542 C1548 1.368 . S
C1543 C1527 1.349 . S
C1543 H1535 0.950 . S
C1543 C1541 1.327 . S
C1544 C1532 1.349 . S
C1544 H1538 0.950 . S
C1544 C1545 1.327 . S
C1545 H1539 0.950 . S
C1545 C1544 1.327 . S
C1545 C1549 1.429 . S
C1546 C1529 1.574 . S
C1546 H1540 0.949 . S
C1546 C1550 1.368 . S
C1547 C1528 1.429 . S
C1547 C1541 1.429 . S
C1547 C1548 1.523 . S
C1548 C1529 1.368 . S
C1548 C1542 1.368 . S
C1548 C1547 1.523 . S
C1549 C1533 1.429 . S
C1549 C1545 1.429 . S
C1549 C1550 1.523 . S
C1550 C1534 1.368 . S
C1550 C1546 1.368 . S
C1550 C1549 1.523 . S
H1551 C1526 0.950 . S
H1552 C1528 0.950 . S
H1553 C1529 0.949 . S
H1554 C1531 0.950 . S
H1555 C1533 0.950 . S
C1556 C1557 1.349 . S
C1556 C1558 1.327 . S
C1556 H1581 0.950 . S
C1557 C1556 1.349 . S
C1557 C1573 1.349 . S
C1558 C1556 1.327 . S
C1558 C1577 1.429 . S
C1558 H1582 0.950 . S
C1559 C1576 1.574 . S
C1559 C1578 1.368 . S
C1559 H1583 0.949 . S
H1560 C1564 0.949 . S
C1561 C1562 1.349 . S
C1561 C1563 1.327 . S
C1561 H1584 0.950 . S
C1562 C1561 1.349 . S
C1562 C1574 1.349 . S
C1563 C1561 1.327 . S
C1563 C1579 1.429 . S
C1563 H1585 0.950 . S
C1564 H1560 0.949 . S
C1564 C1572 1.574 . S
C1564 C1580 1.368 . S
H1565 C1573 0.950 . S
H1566 C1571 0.950 . S
H1567 C1572 0.949 . S
H1568 C1574 0.950 . S
H1569 C1575 0.950 . S
H1570 C1576 0.949 . S
C1571 H1566 0.950 . S
C1571 C1573 1.327 . S
C1571 C1577 1.429 . S
C1572 C1564 1.574 . S
C1572 H1567 0.949 . S
C1572 C1578 1.368 . S
C1573 C1557 1.349 . S
C1573 H1565 0.950 . S
C1573 C1571 1.327 . S
C1574 C1562 1.349 . S
C1574 H1568 0.950 . S
C1574 C1575 1.327 . S
C1575 H1569 0.950 . S
C1575 C1574 1.327 . S
C1575 C1579 1.429 . S
C1576 C1559 1.574 . S
C1576 H1570 0.949 . S
C1576 C1580 1.368 . S
C1577 C1558 1.429 . S
C1577 C1571 1.429 . S
C1577 C1578 1.523 . S
C1578 C1559 1.368 . S
C1578 C1572 1.368 . S
C1578 C1577 1.523 . S
C1579 C1563 1.429 . S
C1579 C1575 1.429 . S
C1579 C1580 1.523 . S
C1580 C1564 1.368 . S
C1580 C1576 1.368 . S
C1580 C1579 1.523 . S
H1581 C1556 0.950 . S
H1582 C1558 0.950 . S
H1583 C1559 0.949 . S
H1584 C1561 0.950 . S
H1585 C1563 0.950 . S
C1586 C1587 1.349 . S
C1586 C1588 1.327 . S
C1586 H1611 0.950 . S
C1587 C1586 1.349 . S
C1587 C1603 1.349 . S
C1588 C1586 1.327 . S
C1588 C1607 1.429 . S
C1588 H1612 0.950 . S
C1589 C1606 1.574 . S
C1589 C1608 1.368 . S
C1589 H1613 0.949 . S
H1590 C1594 0.949 . S
C1591 C1592 1.349 . S
C1591 C1593 1.327 . S
C1591 H1614 0.950 . S
C1592 C1591 1.349 . S
C1592 C1604 1.349 . S
C1593 C1591 1.327 . S
C1593 C1609 1.429 . S
C1593 H1615 0.950 . S
C1594 H1590 0.949 . S
C1594 C1602 1.574 . S
C1594 C1610 1.368 . S
H1595 C1603 0.950 . S
H1596 C1601 0.950 . S
H1597 C1602 0.949 . S
H1598 C1604 0.950 . S
H1599 C1605 0.950 . S
H1600 C1606 0.949 . S
C1601 H1596 0.950 . S
C1601 C1603 1.327 . S
C1601 C1607 1.429 . S
C1602 C1594 1.574 . S
C1602 H1597 0.949 . S
C1602 C1608 1.368 . S
C1603 C1587 1.349 . S
C1603 H1595 0.950 . S
C1603 C1601 1.327 . S
C1604 C1592 1.349 . S
C1604 H1598 0.950 . S
C1604 C1605 1.327 . S
C1605 H1599 0.950 . S
C1605 C1604 1.327 . S
C1605 C1609 1.429 . S
C1606 C1589 1.574 . S
C1606 H1600 0.949 . S
C1606 C1610 1.368 . S
C1607 C1588 1.429 . S
C1607 C1601 1.429 . S
C1607 C1608 1.523 . S
C1608 C1589 1.368 . S
C1608 C1602 1.368 . S
C1608 C1607 1.523 . S
C1609 C1593 1.429 . S
C1609 C1605 1.429 . S
C1609 C1610 1.523 . S
C1610 C1594 1.368 . S
C1610 C1606 1.368 . S
C1610 C1609 1.523 . S
H1611 C1586 0.950 . S
H1612 C1588 0.950 . S
H1613 C1589 0.949 . S
H1614 C1591 0.950 . S
H1615 C1593 0.950 . S
C1616 C1617 1.349 . S
C1616 C1618 1.327 . S
C1616 H1641 0.950 . S
C1617 C1616 1.349 . S
C1617 C1633 1.349 . S
C1618 C1616 1.327 . S
C1618 C1637 1.429 . S
C1618 H1642 0.950 . S
C1619 C1636 1.574 1_545 S
C1619 C1638 1.368 . S
C1619 H1643 0.949 . S
H1620 C1624 0.949 . S
C1621 C1622 1.349 . S
C1621 C1623 1.327 . S
C1621 H1644 0.950 . S
C1622 C1621 1.349 . S
C1622 C1634 1.349 . S
C1623 C1621 1.327 . S
C1623 C1639 1.429 . S
C1623 H1645 0.950 . S
C1624 H1620 0.949 . S
C1624 C1632 1.574 1_565 S
C1624 C1640 1.368 . S
H1625 C1633 0.950 . S
H1626 C1631 0.950 . S
H1627 C1632 0.949 . S
H1628 C1634 0.950 . S
H1629 C1635 0.950 . S
H1630 C1636 0.949 . S
C1631 H1626 0.950 . S
C1631 C1633 1.327 . S
C1631 C1637 1.429 . S
C1632 C1624 1.574 1_545 S
C1632 H1627 0.949 . S
C1632 C1638 1.368 . S
C1633 C1617 1.349 . S
C1633 H1625 0.950 . S
C1633 C1631 1.327 . S
C1634 C1622 1.349 . S
C1634 H1628 0.950 . S
C1634 C1635 1.327 . S
C1635 H1629 0.950 . S
C1635 C1634 1.327 . S
C1635 C1639 1.429 . S
C1636 C1619 1.574 1_565 S
C1636 H1630 0.949 . S
C1636 C1640 1.368 . S
C1637 C1618 1.429 . S
C1637 C1631 1.429 . S
C1637 C1638 1.523 . S
C1638 C1619 1.368 . S
C1638 C1632 1.368 . S
C1638 C1637 1.523 . S
C1639 C1623 1.429 . S
C1639 C1635 1.429 . S
C1639 C1640 1.523 . S
C1640 C1624 1.368 . S
C1640 C1636 1.368 . S
C1640 C1639 1.523 . S
H1641 C1616 0.950 . S
H1642 C1618 0.950 . S
H1643 C1619 0.949 . S
H1644 C1621 0.950 . S
H1645 C1623 0.950 . S
C1646 C1647 1.349 . S
C1646 C1648 1.327 . S
C1646 H1671 0.950 . S
C1647 C1646 1.349 . S
C1647 C1663 1.349 . S
C1648 C1646 1.327 . S
C1648 C1667 1.429 . S
C1648 H1672 0.950 . S
C1649 C1666 1.574 . S
C1649 C1668 1.368 . S
C1649 H1673 0.949 . S
H1650 C1654 0.949 . S
C1651 C1652 1.349 . S
C1651 C1653 1.327 . S
C1651 H1674 0.950 . S
C1652 C1651 1.349 . S
C1652 C1664 1.349 . S
C1653 C1651 1.327 . S
C1653 C1669 1.429 . S
C1653 H1675 0.950 . S
C1654 H1650 0.949 . S
C1654 C1662 1.574 . S
C1654 C1670 1.368 . S
H1655 C1663 0.950 . S
H1656 C1661 0.950 . S
H1657 C1662 0.949 . S
H1658 C1664 0.950 . S
H1659 C1665 0.950 . S
H1660 C1666 0.949 . S
C1661 H1656 0.950 . S
C1661 C1663 1.327 . S
C1661 C1667 1.429 . S
C1662 C1654 1.574 . S
C1662 H1657 0.949 . S
C1662 C1668 1.368 . S
C1663 C1647 1.349 . S
C1663 H1655 0.950 . S
C1663 C1661 1.327 . S
C1664 C1652 1.349 . S
C1664 H1658 0.950 . S
C1664 C1665 1.327 . S
C1665 H1659 0.950 . S
C1665 C1664 1.327 . S
C1665 C1669 1.429 . S
C1666 C1649 1.574 . S
C1666 H1660 0.949 . S
C1666 C1670 1.368 . S
C1667 C1648 1.429 . S
C1667 C1661 1.429 . S
C1667 C1668 1.523 . S
C1668 C1649 1.368 . S
C1668 C1662 1.368 . S
C1668 C1667 1.523 . S
C1669 C1653 1.429 . S
C1669 C1665 1.429 . S
C1669 C1670 1.523 . S
C1670 C1654 1.368 . S
C1670 C1666 1.368 . S
C1670 C1669 1.523 . S
H1671 C1646 0.950 . S
H1672 C1648 0.950 . S
H1673 C1649 0.949 . S
H1674 C1651 0.950 . S
H1675 C1653 0.950 . S
C1676 C1677 1.349 . S
C1676 C1678 1.327 . S
C1676 H1701 0.950 . S
C1677 C1676 1.349 . S
C1677 C1693 1.349 . S
C1678 C1676 1.327 . S
C1678 C1697 1.429 . S
C1678 H1702 0.950 1_554 S
C1679 C1696 1.574 1_565 S
C1679 C1698 1.368 . S
C1679 H1703 0.949 . S
H1680 C1684 0.949 . S
C1681 C1682 1.349 . S
C1681 C1683 1.327 . S
C1681 H1704 0.950 . S
C1682 C1681 1.349 . S
C1682 C1694 1.349 . S
C1683 C1681 1.327 . S
C1683 C1699 1.429 . S
C1683 H1705 0.950 1_556 S
C1684 H1680 0.949 . S
C1684 C1692 1.574 1_545 S
C1684 C1700 1.368 . S
H1685 C1693 0.950 . S
H1686 C1691 0.950 . S
H1687 C1692 0.949 . S
H1688 C1694 0.950 . S
H1689 C1695 0.950 . S
H1690 C1696 0.949 . S
C1691 H1686 0.950 . S
C1691 C1693 1.327 . S
C1691 C1697 1.429 . S
C1692 C1684 1.574 1_565 S
C1692 H1687 0.949 . S
C1692 C1698 1.368 1_556 S
C1693 C1677 1.349 . S
C1693 H1685 0.950 . S
C1693 C1691 1.327 . S
C1694 C1682 1.349 . S
C1694 H1688 0.950 . S
C1694 C1695 1.327 . S
C1695 H1689 0.950 . S
C1695 C1694 1.327 . S
C1695 C1699 1.429 . S
C1696 C1679 1.574 1_545 S
C1696 H1690 0.949 . S
C1696 C1700 1.368 1_554 S
C1697 C1678 1.429 . S
C1697 C1691 1.429 . S
C1697 C1698 1.523 . S
C1698 C1679 1.368 . S
C1698 C1692 1.368 1_554 S
C1698 C1697 1.523 . S
C1699 C1683 1.429 . S
C1699 C1695 1.429 . S
C1699 C1700 1.523 . S
C1700 C1684 1.368 . S
C1700 C1696 1.368 1_556 S
C1700 C1699 1.523 . S
H1701 C1676 0.950 . S
H1702 C1678 0.950 1_556 S
H1703 C1679 0.949 . S
H1704 C1681 0.950 . S
H1705 C1683 0.950 1_554 S
C1706 C1707 1.349 . S
C1706 C1708 1.327 . S
C1706 H1731 0.950 . S
C1707 C1706 1.349 . S
C1707 C1723 1.349 . S
C1708 C1706 1.327 . S
C1708 C1727 1.429 . S
C1708 H1732 0.950 . S
C1709 C1726 1.574 . S
C1709 C1728 1.368 . S
C1709 H1733 0.949 . S
H1710 C1714 0.949 . S
C1711 C1712 1.349 . S
C1711 C1713 1.327 . S
C1711 H1734 0.950 . S
C1712 C1711 1.349 . S
C1712 C1724 1.349 . S
C1713 C1711 1.327 . S
C1713 C1729 1.429 . S
C1713 H1735 0.950 . S
C1714 H1710 0.949 . S
C1714 C1722 1.574 . S
C1714 C1730 1.368 . S
H1715 C1723 0.950 . S
H1716 C1721 0.950 . S
H1717 C1722 0.949 . S
H1718 C1724 0.950 . S
H1719 C1725 0.950 . S
H1720 C1726 0.949 . S
C1721 H1716 0.950 . S
C1721 C1723 1.327 . S
C1721 C1727 1.429 . S
C1722 C1714 1.574 . S
C1722 H1717 0.949 . S
C1722 C1728 1.368 . S
C1723 C1707 1.349 . S
C1723 H1715 0.950 . S
C1723 C1721 1.327 . S
C1724 C1712 1.349 . S
C1724 H1718 0.950 . S
C1724 C1725 1.327 . S
C1725 H1719 0.950 . S
C1725 C1724 1.327 . S
C1725 C1729 1.429 . S
C1726 C1709 1.574 . S
C1726 H1720 0.949 . S
C1726 C1730 1.368 . S
C1727 C1708 1.429 . S
C1727 C1721 1.429 . S
C1727 C1728 1.523 . S
C1728 C1709 1.368 . S
C1728 C1722 1.368 . S
C1728 C1727 1.523 . S
C1729 C1713 1.429 . S
C1729 C1725 1.429 . S
C1729 C1730 1.523 . S
C1730 C1714 1.368 . S
C1730 C1726 1.368 . S
C1730 C1729 1.523 . S
H1731 C1706 0.950 . S
H1732 C1708 0.950 . S
H1733 C1709 0.949 . S
H1734 C1711 0.950 . S
H1735 C1713 0.950 . S
C1736 C1737 1.349 . S
C1736 C1738 1.327 . S
C1736 H1761 0.950 . S
C1737 C1736 1.349 . S
C1737 C1753 1.349 . S
C1738 C1736 1.327 . S
C1738 C1757 1.429 . S
C1738 H1762 0.950 . S
C1739 C1756 1.574 1_545 S
C1739 C1758 1.368 . S
C1739 H1763 0.949 . S
H1740 C1744 0.949 . S
C1741 C1742 1.349 . S
C1741 C1743 1.327 . S
C1741 H1764 0.950 . S
C1742 C1741 1.349 . S
C1742 C1754 1.349 . S
C1743 C1741 1.327 . S
C1743 C1759 1.429 . S
C1743 H1765 0.950 . S
C1744 H1740 0.949 . S
C1744 C1752 1.574 1_565 S
C1744 C1760 1.368 . S
H1745 C1753 0.950 . S
H1746 C1751 0.950 . S
H1747 C1752 0.949 . S
H1748 C1754 0.950 . S
H1749 C1755 0.950 . S
H1750 C1756 0.949 . S
C1751 H1746 0.950 . S
C1751 C1753 1.327 . S
C1751 C1757 1.429 . S
C1752 C1744 1.574 1_545 S
C1752 H1747 0.949 . S
C1752 C1758 1.368 . S
C1753 C1737 1.349 . S
C1753 H1745 0.950 . S
C1753 C1751 1.327 . S
C1754 C1742 1.349 . S
C1754 H1748 0.950 . S
C1754 C1755 1.327 . S
C1755 H1749 0.950 . S
C1755 C1754 1.327 . S
C1755 C1759 1.429 . S
C1756 C1739 1.574 1_565 S
C1756 H1750 0.949 . S
C1756 C1760 1.368 . S
C1757 C1738 1.429 . S
C1757 C1751 1.429 . S
C1757 C1758 1.523 . S
C1758 C1739 1.368 . S
C1758 C1752 1.368 . S
C1758 C1757 1.523 . S
C1759 C1743 1.429 . S
C1759 C1755 1.429 . S
C1759 C1760 1.523 . S
C1760 C1744 1.368 . S
C1760 C1756 1.368 . S
C1760 C1759 1.523 . S
H1761 C1736 0.950 . S
H1762 C1738 0.950 . S
H1763 C1739 0.949 . S
H1764 C1741 0.950 . S
H1765 C1743 0.950 . S
C1766 C1767 1.349 . S
C1766 C1768 1.327 . S
C1766 H1791 0.950 . S
C1767 C1766 1.349 . S
C1767 C1783 1.349 . S
C1768 C1766 1.327 . S
C1768 C1787 1.429 . S
C1768 H1792 0.950 . S
C1769 C1786 1.574 . S
C1769 C1788 1.368 . S
C1769 H1793 0.949 . S
H1770 C1774 0.949 . S
C1771 C1772 1.349 . S
C1771 C1773 1.327 . S
C1771 H1794 0.950 . S
C1772 C1771 1.349 . S
C1772 C1784 1.349 . S
C1773 C1771 1.327 . S
C1773 C1789 1.429 . S
C1773 H1795 0.950 . S
C1774 H1770 0.949 . S
C1774 C1782 1.574 . S
C1774 C1790 1.368 . S
H1775 C1783 0.950 . S
H1776 C1781 0.950 . S
H1777 C1782 0.949 . S
H1778 C1784 0.950 . S
H1779 C1785 0.950 . S
H1780 C1786 0.949 . S
C1781 H1776 0.950 . S
C1781 C1783 1.327 . S
C1781 C1787 1.429 . S
C1782 C1774 1.574 . S
C1782 H1777 0.949 . S
C1782 C1788 1.368 . S
C1783 C1767 1.349 . S
C1783 H1775 0.950 . S
C1783 C1781 1.327 . S
C1784 C1772 1.349 . S
C1784 H1778 0.950 . S
C1784 C1785 1.327 . S
C1785 H1779 0.950 . S
C1785 C1784 1.327 . S
C1785 C1789 1.429 . S
C1786 C1769 1.574 . S
C1786 H1780 0.949 . S
C1786 C1790 1.368 . S
C1787 C1768 1.429 . S
C1787 C1781 1.429 . S
C1787 C1788 1.523 . S
C1788 C1769 1.368 . S
C1788 C1782 1.368 . S
C1788 C1787 1.523 . S
C1789 C1773 1.429 . S
C1789 C1785 1.429 . S
C1789 C1790 1.523 . S
C1790 C1774 1.368 . S
C1790 C1786 1.368 . S
C1790 C1789 1.523 . S
H1791 C1766 0.950 . S
H1792 C1768 0.950 . S
H1793 C1769 0.949 . S
H1794 C1771 0.950 . S
H1795 C1773 0.950 . S
C1796 C1797 1.349 . S
C1796 C1798 1.340 . S
C1796 H1821 0.893 1_554 S
C1797 C1796 1.349 . S
C1797 C1813 1.349 . S
C1798 C1796 1.340 . S
C1798 C1817 1.451 . S
C1798 H1822 0.913 1_554 S
C1799 C1816 1.574 1_565 S
C1799 C1818 1.368 . S
C1799 H1823 0.949 . S
H1800 C1804 0.949 . S
C1801 C1802 1.349 . S
C1801 C1803 1.340 . S
C1801 H1824 0.893 1_556 S
C1802 C1801 1.349 . S
C1802 C1814 1.349 . S
C1803 C1801 1.340 . S
C1803 C1819 1.451 . S
C1803 H1825 0.913 1_556 S
C1804 H1800 0.949 . S
C1804 C1812 1.574 1_545 S
C1804 C1820 1.368 . S
H1805 C1813 0.950 . S
H1806 C1811 0.950 . S
H1807 C1812 0.949 . S
H1808 C1814 0.950 . S
H1809 C1815 0.950 . S
H1810 C1816 0.949 . S
C1811 H1806 0.950 . S
C1811 C1813 1.327 . S
C1811 C1817 1.429 . S
C1812 C1804 1.574 1_565 S
C1812 H1807 0.949 . S
C1812 C1818 1.368 1_556 S
C1813 C1797 1.349 . S
C1813 H1805 0.950 . S
C1813 C1811 1.327 . S
C1814 C1802 1.349 . S
C1814 H1808 0.950 . S
C1814 C1815 1.327 . S
C1815 H1809 0.950 . S
C1815 C1814 1.327 . S
C1815 C1819 1.429 . S
C1816 C1799 1.574 1_545 S
C1816 H1810 0.949 . S
C1816 C1820 1.368 1_554 S
C1817 C1798 1.451 . S
C1817 C1811 1.429 . S
C1817 C1818 1.523 . S
C1818 C1799 1.368 . S
C1818 C1812 1.368 1_554 S
C1818 C1817 1.523 . S
C1819 C1803 1.451 . S
C1819 C1815 1.429 . S
C1819 C1820 1.523 . S
C1820 C1804 1.368 . S
C1820 C1816 1.368 1_556 S
C1820 C1819 1.523 . S
H1821 C1796 0.893 1_556 S
H1822 C1798 0.913 1_556 S
H1823 C1799 0.949 . S
H1824 C1801 0.893 1_554 S
H1825 C1803 0.913 1_554 S
C1826 C1827 1.349 . S
C1826 C1828 1.327 . S
C1826 H1851 0.950 . S
C1827 C1826 1.349 . S
C1827 C1843 1.349 . S
C1828 C1826 1.327 . S
C1828 C1847 1.429 . S
C1828 H1852 0.950 . S
C1829 C1846 1.574 . S
C1829 C1848 1.368 . S
C1829 H1853 0.949 . S
H1830 C1834 0.949 . S
C1831 C1832 1.349 . S
C1831 C1833 1.327 . S
C1831 H1854 0.950 . S
C1832 C1831 1.349 . S
C1832 C1844 1.349 . S
C1833 C1831 1.327 . S
C1833 C1849 1.429 . S
C1833 H1855 0.950 . S
C1834 H1830 0.949 . S
C1834 C1842 1.574 . S
C1834 C1850 1.368 . S
H1835 C1843 0.950 . S
H1836 C1841 0.950 . S
H1837 C1842 0.949 . S
H1838 C1844 0.950 . S
H1839 C1845 0.950 . S
H1840 C1846 0.949 . S
C1841 H1836 0.950 . S
C1841 C1843 1.327 . S
C1841 C1847 1.429 . S
C1842 C1834 1.574 . S
C1842 H1837 0.949 . S
C1842 C1848 1.368 . S
C1843 C1827 1.349 . S
C1843 H1835 0.950 . S
C1843 C1841 1.327 . S
C1844 C1832 1.349 . S
C1844 H1838 0.950 . S
C1844 C1845 1.327 . S
C1845 H1839 0.950 . S
C1845 C1844 1.327 . S
C1845 C1849 1.429 . S
C1846 C1829 1.574 . S
C1846 H1840 0.949 . S
C1846 C1850 1.368 . S
C1847 C1828 1.429 . S
C1847 C1841 1.429 . S
C1847 C1848 1.523 . S
C1848 C1829 1.368 . S
C1848 C1842 1.368 . S
C1848 C1847 1.523 . S
C1849 C1833 1.429 . S
C1849 C1845 1.429 . S
C1849 C1850 1.523 . S
C1850 C1834 1.368 . S
C1850 C1846 1.368 . S
C1850 C1849 1.523 . S
H1851 C1826 0.950 . S
H1852 C1828 0.950 . S
H1853 C1829 0.949 . S
H1854 C1831 0.950 . S
H1855 C1833 0.950 . S
C1856 C1857 1.349 . S
C1856 C1858 1.327 . S
C1856 H1881 0.950 . S
C1857 C1856 1.349 . S
C1857 C1873 1.349 . S
C1858 C1856 1.327 . S
C1858 C1877 1.429 . S
C1858 H1882 0.950 . S
C1859 C1876 1.574 . S
C1859 C1878 1.368 . S
C1859 H1883 0.949 . S
H1860 C1864 0.949 . S
C1861 C1862 1.349 . S
C1861 C1863 1.327 . S
C1861 H1884 0.950 . S
C1862 C1861 1.349 . S
C1862 C1874 1.349 . S
C1863 C1861 1.327 . S
C1863 C1879 1.429 . S
C1863 H1885 0.950 . S
C1864 H1860 0.949 . S
C1864 C1872 1.574 . S
C1864 C1880 1.368 . S
H1865 C1873 0.950 . S
H1866 C1871 0.950 . S
H1867 C1872 0.949 . S
H1868 C1874 0.950 . S
H1869 C1875 0.950 . S
H1870 C1876 0.949 . S
C1871 H1866 0.950 . S
C1871 C1873 1.327 . S
C1871 C1877 1.429 . S
C1872 C1864 1.574 . S
C1872 H1867 0.949 . S
C1872 C1878 1.368 . S
C1873 C1857 1.349 . S
C1873 H1865 0.950 . S
C1873 C1871 1.327 . S
C1874 C1862 1.349 . S
C1874 H1868 0.950 . S
C1874 C1875 1.327 . S
C1875 H1869 0.950 . S
C1875 C1874 1.327 . S
C1875 C1879 1.429 . S
C1876 C1859 1.574 . S
C1876 H1870 0.949 . S
C1876 C1880 1.368 . S
C1877 C1858 1.429 . S
C1877 C1871 1.429 . S
C1877 C1878 1.523 . S
C1878 C1859 1.368 . S
C1878 C1872 1.368 . S
C1878 C1877 1.523 . S
C1879 C1863 1.429 . S
C1879 C1875 1.429 . S
C1879 C1880 1.523 . S
C1880 C1864 1.368 . S
C1880 C1876 1.368 . S
C1880 C1879 1.523 . S
H1881 C1856 0.950 . S
H1882 C1858 0.950 . S
H1883 C1859 0.949 . S
H1884 C1861 0.950 . S
H1885 C1863 0.950 . S
C1886 C1887 1.349 . S
C1886 C1888 1.327 . S
C1886 H1911 0.950 . S
C1887 C1886 1.349 . S
C1887 C1903 1.349 . S
C1888 C1886 1.327 . S
C1888 C1907 1.429 . S
C1888 H1912 0.950 . S
C1889 C1906 1.574 . S
C1889 C1908 1.368 . S
C1889 H1913 0.949 . S
H1890 C1894 0.949 . S
C1891 C1892 1.349 . S
C1891 C1893 1.327 . S
C1891 H1914 0.950 . S
C1892 C1891 1.349 . S
C1892 C1904 1.349 . S
C1893 C1891 1.327 . S
C1893 C1909 1.429 . S
C1893 H1915 0.950 . S
C1894 H1890 0.949 . S
C1894 C1902 1.574 . S
C1894 C1910 1.368 . S
H1895 C1903 0.950 . S
H1896 C1901 0.950 . S
H1897 C1902 0.949 . S
H1898 C1904 0.950 . S
H1899 C1905 0.950 . S
H1900 C1906 0.949 . S
C1901 H1896 0.950 . S
C1901 C1903 1.327 . S
C1901 C1907 1.429 . S
C1902 C1894 1.574 . S
C1902 H1897 0.949 . S
C1902 C1908 1.368 . S
C1903 C1887 1.349 . S
C1903 H1895 0.950 . S
C1903 C1901 1.327 . S
C1904 C1892 1.349 . S
C1904 H1898 0.950 . S
C1904 C1905 1.327 . S
C1905 H1899 0.950 . S
C1905 C1904 1.327 . S
C1905 C1909 1.429 . S
C1906 C1889 1.574 . S
C1906 H1900 0.949 . S
C1906 C1910 1.368 . S
C1907 C1888 1.429 . S
C1907 C1901 1.429 . S
C1907 C1908 1.523 . S
C1908 C1889 1.368 . S
C1908 C1902 1.368 . S
C1908 C1907 1.523 . S
C1909 C1893 1.429 . S
C1909 C1905 1.429 . S
C1909 C1910 1.523 . S
C1910 C1894 1.368 . S
C1910 C1906 1.368 . S
C1910 C1909 1.523 . S
H1911 C1886 0.950 . S
H1912 C1888 0.950 . S
H1913 C1889 0.949 . S
H1914 C1891 0.950 . S
H1915 C1893 0.950 . S
C1916 C1917 1.349 . S
C1916 C1918 1.327 . S
C1916 H1941 0.950 . S
C1917 C1916 1.349 . S
C1917 C1933 1.349 . S
C1918 C1916 1.327 . S
C1918 C1937 1.429 . S
C1918 H1942 0.950 . S
C1919 C1936 1.574 . S
C1919 C1938 1.368 . S
C1919 H1943 0.949 . S
H1920 C1924 0.949 . S
C1921 C1922 1.349 . S
C1921 C1923 1.327 . S
C1921 H1944 0.950 . S
C1922 C1921 1.349 . S
C1922 C1934 1.349 . S
C1923 C1921 1.327 . S
C1923 C1939 1.429 . S
C1923 H1945 0.950 . S
C1924 H1920 0.949 . S
C1924 C1932 1.574 . S
C1924 C1940 1.368 . S
H1925 C1933 0.950 . S
H1926 C1931 0.950 . S
H1927 C1932 0.949 . S
H1928 C1934 0.950 . S
H1929 C1935 0.950 . S
H1930 C1936 0.949 . S
C1931 H1926 0.950 . S
C1931 C1933 1.327 . S
C1931 C1937 1.429 . S
C1932 C1924 1.574 . S
C1932 H1927 0.949 . S
C1932 C1938 1.368 . S
C1933 C1917 1.349 . S
C1933 H1925 0.950 . S
C1933 C1931 1.327 . S
C1934 C1922 1.349 . S
C1934 H1928 0.950 . S
C1934 C1935 1.327 . S
C1935 H1929 0.950 . S
C1935 C1934 1.327 . S
C1935 C1939 1.429 . S
C1936 C1919 1.574 . S
C1936 H1930 0.949 . S
C1936 C1940 1.368 . S
C1937 C1918 1.429 . S
C1937 C1931 1.429 . S
C1937 C1938 1.523 . S
C1938 C1919 1.368 . S
C1938 C1932 1.368 . S
C1938 C1937 1.523 . S
C1939 C1923 1.429 . S
C1939 C1935 1.429 . S
C1939 C1940 1.523 . S
C1940 C1924 1.368 . S
C1940 C1936 1.368 . S
C1940 C1939 1.523 . S
H1941 C1916 0.950 . S
H1942 C1918 0.950 . S
H1943 C1919 0.949 . S
H1944 C1921 0.950 . S
H1945 C1923 0.950 . S
C1946 C1947 1.349 . S
C1946 C1948 1.327 . S
C1946 H1971 0.950 . S
C1947 C1946 1.349 . S
C1947 C1963 1.349 . S
C1948 C1946 1.327 . S
C1948 C1967 1.429 . S
C1948 H1972 0.950 . S
C1949 C1966 1.574 1_655 S
C1949 C1968 1.368 . S
C1949 H1973 0.949 . S
H1950 C1954 0.949 . S
C1951 C1952 1.349 . S
C1951 C1953 1.327 . S
C1951 H1974 0.950 . S
C1952 C1951 1.349 . S
C1952 C1964 1.349 . S
C1953 C1951 1.327 . S
C1953 C1969 1.429 . S
C1953 H1975 0.950 . S
C1954 H1950 0.949 . S
C1954 C1962 1.574 1_455 S
C1954 C1970 1.368 . S
H1955 C1963 0.950 . S
H1956 C1961 0.950 . S
H1957 C1962 0.949 . S
H1958 C1964 0.950 . S
H1959 C1965 0.950 . S
H1960 C1966 0.949 . S
C1961 H1956 0.950 . S
C1961 C1963 1.327 . S
C1961 C1967 1.429 . S
C1962 C1954 1.574 1_655 S
C1962 H1957 0.949 . S
C1962 C1968 1.368 . S
C1963 C1947 1.349 . S
C1963 H1955 0.950 . S
C1963 C1961 1.327 . S
C1964 C1952 1.349 . S
C1964 H1958 0.950 . S
C1964 C1965 1.327 . S
C1965 H1959 0.950 . S
C1965 C1964 1.327 . S
C1965 C1969 1.429 . S
C1966 C1949 1.574 1_455 S
C1966 H1960 0.949 . S
C1966 C1970 1.368 . S
C1967 C1948 1.429 . S
C1967 C1961 1.429 . S
C1967 C1968 1.523 . S
C1968 C1949 1.368 . S
C1968 C1962 1.368 . S
C1968 C1967 1.523 . S
C1969 C1953 1.429 . S
C1969 C1965 1.429 . S
C1969 C1970 1.523 . S
C1970 C1954 1.368 . S
C1970 C1966 1.368 . S
C1970 C1969 1.523 . S
H1971 C1946 0.950 . S
H1972 C1948 0.950 . S
H1973 C1949 0.949 . S
H1974 C1951 0.950 . S
H1975 C1953 0.950 . S
C1976 C1977 1.349 . S
C1976 C1978 1.327 . S
C1976 H2001 0.950 . S
C1977 C1976 1.349 . S
C1977 C1993 1.349 . S
C1978 C1976 1.327 . S
C1978 C1997 1.429 . S
C1978 H2002 0.950 . S
C1979 C1996 1.574 . S
C1979 C1998 1.368 . S
C1979 H2003 0.949 . S
H1980 C1984 0.949 . S
C1981 C1982 1.349 . S
C1981 C1983 1.327 . S
C1981 H2004 0.950 . S
C1982 C1981 1.349 . S
C1982 C1994 1.349 . S
C1983 C1981 1.327 . S
C1983 C1999 1.429 . S
C1983 H2005 0.950 . S
C1984 H1980 0.949 . S
C1984 C1992 1.574 . S
C1984 C2000 1.368 . S
H1985 C1993 0.950 . S
H1986 C1991 0.950 . S
H1987 C1992 0.949 . S
H1988 C1994 0.950 . S
H1989 C1995 0.950 . S
H1990 C1996 0.949 . S
C1991 H1986 0.950 . S
C1991 C1993 1.327 . S
C1991 C1997 1.429 . S
C1992 C1984 1.574 . S
C1992 H1987 0.949 . S
C1992 C1998 1.368 . S
C1993 C1977 1.349 . S
C1993 H1985 0.950 . S
C1993 C1991 1.327 . S
C1994 C1982 1.349 . S
C1994 H1988 0.950 . S
C1994 C1995 1.327 . S
C1995 H1989 0.950 . S
C1995 C1994 1.327 . S
C1995 C1999 1.429 . S
C1996 C1979 1.574 . S
C1996 H1990 0.949 . S
C1996 C2000 1.368 . S
C1997 C1978 1.429 . S
C1997 C1991 1.429 . S
C1997 C1998 1.523 . S
C1998 C1979 1.368 . S
C1998 C1992 1.368 . S
C1998 C1997 1.523 . S
C1999 C1983 1.429 . S
C1999 C1995 1.429 . S
C1999 C2000 1.523 . S
C2000 C1984 1.368 . S
C2000 C1996 1.368 . S
C2000 C1999 1.523 . S
H2001 C1976 0.950 . S
H2002 C1978 0.950 . S
H2003 C1979 0.949 . S
H2004 C1981 0.950 . S
H2005 C1983 0.950 . S
C2006 C2007 1.349 . S
C2006 C2008 1.327 . S
C2006 H2031 0.950 . S
C2007 C2006 1.349 . S
C2007 C2023 1.349 . S
C2008 C2006 1.327 . S
C2008 C2027 1.429 . S
C2008 H2032 0.950 . S
C2009 C2026 1.574 1_655 S
C2009 C2028 1.368 . S
C2009 H2033 0.949 . S
H2010 C2014 0.949 . S
C2011 C2012 1.349 . S
C2011 C2013 1.327 . S
C2011 H2034 0.950 . S
C2012 C2011 1.349 . S
C2012 C2024 1.349 . S
C2013 C2011 1.327 . S
C2013 C2029 1.429 . S
C2013 H2035 0.950 . S
C2014 H2010 0.949 . S
C2014 C2022 1.574 1_455 S
C2014 C2030 1.368 . S
H2015 C2023 0.950 . S
H2016 C2021 0.950 . S
H2017 C2022 0.949 . S
H2018 C2024 0.950 . S
H2019 C2025 0.950 . S
H2020 C2026 0.949 . S
C2021 H2016 0.950 . S
C2021 C2023 1.327 . S
C2021 C2027 1.429 . S
C2022 C2014 1.574 1_655 S
C2022 H2017 0.949 . S
C2022 C2028 1.368 . S
C2023 C2007 1.349 . S
C2023 H2015 0.950 . S
C2023 C2021 1.327 . S
C2024 C2012 1.349 . S
C2024 H2018 0.950 . S
C2024 C2025 1.327 . S
C2025 H2019 0.950 . S
C2025 C2024 1.327 . S
C2025 C2029 1.429 . S
C2026 C2009 1.574 1_455 S
C2026 H2020 0.949 . S
C2026 C2030 1.368 . S
C2027 C2008 1.429 . S
C2027 C2021 1.429 . S
C2027 C2028 1.523 . S
C2028 C2009 1.368 . S
C2028 C2022 1.368 . S
C2028 C2027 1.523 . S
C2029 C2013 1.429 . S
C2029 C2025 1.429 . S
C2029 C2030 1.523 . S
C2030 C2014 1.368 . S
C2030 C2026 1.368 . S
C2030 C2029 1.523 . S
H2031 C2006 0.950 . S
H2032 C2008 0.950 . S
H2033 C2009 0.949 . S
H2034 C2011 0.950 . S
H2035 C2013 0.950 . S
C2036 C2037 1.349 . S
C2036 C2038 1.327 . S
C2036 H2061 0.950 . S
C2037 C2036 1.349 . S
C2037 C2053 1.349 . S
C2038 C2036 1.327 . S
C2038 C2057 1.429 . S
C2038 H2062 0.950 . S
C2039 C2056 1.574 . S
C2039 C2058 1.368 . S
C2039 H2063 0.949 . S
H2040 C2044 0.949 . S
C2041 C2042 1.349 . S
C2041 C2043 1.327 . S
C2041 H2064 0.950 . S
C2042 C2041 1.349 . S
C2042 C2054 1.349 . S
C2043 C2041 1.327 . S
C2043 C2059 1.429 . S
C2043 H2065 0.950 . S
C2044 H2040 0.949 . S
C2044 C2052 1.574 . S
C2044 C2060 1.368 . S
H2045 C2053 0.950 . S
H2046 C2051 0.950 . S
H2047 C2052 0.949 . S
H2048 C2054 0.950 . S
H2049 C2055 0.950 . S
H2050 C2056 0.949 . S
C2051 H2046 0.950 . S
C2051 C2053 1.327 . S
C2051 C2057 1.429 . S
C2052 C2044 1.574 . S
C2052 H2047 0.949 . S
C2052 C2058 1.368 . S
C2053 C2037 1.349 . S
C2053 H2045 0.950 . S
C2053 C2051 1.327 . S
C2054 C2042 1.349 . S
C2054 H2048 0.950 . S
C2054 C2055 1.327 . S
C2055 H2049 0.950 . S
C2055 C2054 1.327 . S
C2055 C2059 1.429 . S
C2056 C2039 1.574 . S
C2056 H2050 0.949 . S
C2056 C2060 1.368 . S
C2057 C2038 1.429 . S
C2057 C2051 1.429 . S
C2057 C2058 1.523 . S
C2058 C2039 1.368 . S
C2058 C2052 1.368 . S
C2058 C2057 1.523 . S
C2059 C2043 1.429 . S
C2059 C2055 1.429 . S
C2059 C2060 1.523 . S
C2060 C2044 1.368 . S
C2060 C2056 1.368 . S
C2060 C2059 1.523 . S
H2061 C2036 0.950 . S
H2062 C2038 0.950 . S
H2063 C2039 0.949 . S
H2064 C2041 0.950 . S
H2065 C2043 0.950 . S
C2066 C2067 1.349 . S
C2066 C2068 1.327 . S
C2066 H2091 0.950 . S
C2067 C2066 1.349 . S
C2067 C2083 1.349 . S
C2068 C2066 1.327 . S
C2068 C2087 1.429 . S
C2068 H2092 0.950 . S
C2069 C2086 1.574 . S
C2069 C2088 1.368 . S
C2069 H2093 0.949 . S
H2070 C2074 0.949 . S
C2071 C2072 1.349 . S
C2071 C2073 1.327 . S
C2071 H2094 0.950 . S
C2072 C2071 1.349 . S
C2072 C2084 1.349 . S
C2073 C2071 1.327 . S
C2073 C2089 1.429 . S
C2073 H2095 0.950 . S
C2074 H2070 0.949 . S
C2074 C2082 1.574 . S
C2074 C2090 1.368 . S
H2075 C2083 0.950 . S
H2076 C2081 0.950 . S
H2077 C2082 0.949 . S
H2078 C2084 0.950 . S
H2079 C2085 0.950 . S
H2080 C2086 0.949 . S
C2081 H2076 0.950 . S
C2081 C2083 1.327 . S
C2081 C2087 1.429 . S
C2082 C2074 1.574 . S
C2082 H2077 0.949 . S
C2082 C2088 1.368 . S
C2083 C2067 1.349 . S
C2083 H2075 0.950 . S
C2083 C2081 1.327 . S
C2084 C2072 1.349 . S
C2084 H2078 0.950 . S
C2084 C2085 1.327 . S
C2085 H2079 0.950 . S
C2085 C2084 1.327 . S
C2085 C2089 1.429 . S
C2086 C2069 1.574 . S
C2086 H2080 0.949 . S
C2086 C2090 1.368 . S
C2087 C2068 1.429 . S
C2087 C2081 1.429 . S
C2087 C2088 1.523 . S
C2088 C2069 1.368 . S
C2088 C2082 1.368 . S
C2088 C2087 1.523 . S
C2089 C2073 1.429 . S
C2089 C2085 1.429 . S
C2089 C2090 1.523 . S
C2090 C2074 1.368 . S
C2090 C2086 1.368 . S
C2090 C2089 1.523 . S
H2091 C2066 0.950 . S
H2092 C2068 0.950 . S
H2093 C2069 0.949 . S
H2094 C2071 0.950 . S
H2095 C2073 0.950 . S
C2096 C2097 1.349 . S
C2096 C2098 1.327 . S
C2096 H2121 0.950 . S
C2097 C2096 1.349 . S
C2097 C2113 1.349 . S
C2098 C2096 1.327 . S
C2098 C2117 1.429 . S
C2098 H2122 0.950 . S
C2099 C2116 1.574 . S
C2099 C2118 1.368 . S
C2099 H2123 0.949 . S
H2100 C2104 0.949 . S
C2101 C2102 1.349 . S
C2101 C2103 1.327 . S
C2101 H2124 0.950 . S
C2102 C2101 1.349 . S
C2102 C2114 1.349 . S
C2103 C2101 1.327 . S
C2103 C2119 1.429 . S
C2103 H2125 0.950 . S
C2104 H2100 0.949 . S
C2104 C2112 1.574 . S
C2104 C2120 1.368 . S
H2105 C2113 0.950 . S
H2106 C2111 0.950 . S
H2107 C2112 0.949 . S
H2108 C2114 0.950 . S
H2109 C2115 0.950 . S
H2110 C2116 0.949 . S
C2111 H2106 0.950 . S
C2111 C2113 1.327 . S
C2111 C2117 1.429 . S
C2112 C2104 1.574 . S
C2112 H2107 0.949 . S
C2112 C2118 1.368 . S
C2113 C2097 1.349 . S
C2113 H2105 0.950 . S
C2113 C2111 1.327 . S
C2114 C2102 1.349 . S
C2114 H2108 0.950 . S
C2114 C2115 1.327 . S
C2115 H2109 0.950 . S
C2115 C2114 1.327 . S
C2115 C2119 1.429 . S
C2116 C2099 1.574 . S
C2116 H2110 0.949 . S
C2116 C2120 1.368 . S
C2117 C2098 1.429 . S
C2117 C2111 1.429 . S
C2117 C2118 1.523 . S
C2118 C2099 1.368 . S
C2118 C2112 1.368 . S
C2118 C2117 1.523 . S
C2119 C2103 1.429 . S
C2119 C2115 1.429 . S
C2119 C2120 1.523 . S
C2120 C2104 1.368 . S
C2120 C2116 1.368 . S
C2120 C2119 1.523 . S
H2121 C2096 0.950 . S
H2122 C2098 0.950 . S
H2123 C2099 0.949 . S
H2124 C2101 0.950 . S
H2125 C2103 0.950 . S
C2126 C2127 1.349 . S
C2126 C2128 1.327 . S
C2126 H2151 0.950 . S
C2127 C2126 1.349 . S
C2127 C2143 1.349 . S
C2128 C2126 1.327 . S
C2128 C2147 1.429 . S
C2128 H2152 0.950 . S
C2129 C2146 1.574 . S
C2129 C2148 1.368 . S
C2129 H2153 0.949 . S
H2130 C2134 0.949 . S
C2131 C2132 1.349 . S
C2131 C2133 1.327 . S
C2131 H2154 0.950 . S
C2132 C2131 1.349 . S
C2132 C2144 1.349 . S
C2133 C2131 1.327 . S
C2133 C2149 1.429 . S
C2133 H2155 0.950 . S
C2134 H2130 0.949 . S
C2134 C2142 1.574 . S
C2134 C2150 1.368 . S
H2135 C2143 0.950 . S
H2136 C2141 0.950 . S
H2137 C2142 0.949 . S
H2138 C2144 0.950 . S
H2139 C2145 0.950 . S
H2140 C2146 0.949 . S
C2141 H2136 0.950 . S
C2141 C2143 1.327 . S
C2141 C2147 1.429 . S
C2142 C2134 1.574 . S
C2142 H2137 0.949 . S
C2142 C2148 1.368 . S
C2143 C2127 1.349 . S
C2143 H2135 0.950 . S
C2143 C2141 1.327 . S
C2144 C2132 1.349 . S
C2144 H2138 0.950 . S
C2144 C2145 1.327 . S
C2145 H2139 0.950 . S
C2145 C2144 1.327 . S
C2145 C2149 1.429 . S
C2146 C2129 1.574 . S
C2146 H2140 0.949 . S
C2146 C2150 1.368 . S
C2147 C2128 1.429 . S
C2147 C2141 1.429 . S
C2147 C2148 1.523 . S
C2148 C2129 1.368 . S
C2148 C2142 1.368 . S
C2148 C2147 1.523 . S
C2149 C2133 1.429 . S
C2149 C2145 1.429 . S
C2149 C2150 1.523 . S
C2150 C2134 1.368 . S
C2150 C2146 1.368 . S
C2150 C2149 1.523 . S
H2151 C2126 0.950 . S
H2152 C2128 0.950 . S
H2153 C2129 0.949 . S
H2154 C2131 0.950 . S
H2155 C2133 0.950 . S
C2156 C2157 1.349 . S
C2156 C2158 1.327 . S
C2156 H2181 0.950 . S
C2157 C2156 1.349 . S
C2157 C2173 1.349 . S
C2158 C2156 1.327 . S
C2158 C2177 1.429 . S
C2158 H2182 0.950 . S
C2159 C2176 1.574 . S
C2159 C2178 1.368 . S
C2159 H2183 0.949 . S
H2160 C2164 0.949 . S
C2161 C2162 1.349 . S
C2161 C2163 1.327 . S
C2161 H2184 0.950 . S
C2162 C2161 1.349 . S
C2162 C2174 1.349 . S
C2163 C2161 1.327 . S
C2163 C2179 1.429 . S
C2163 H2185 0.950 . S
C2164 H2160 0.949 . S
C2164 C2172 1.574 . S
C2164 C2180 1.368 . S
H2165 C2173 0.950 . S
H2166 C2171 0.950 . S
H2167 C2172 0.949 . S
H2168 C2174 0.950 . S
H2169 C2175 0.950 . S
H2170 C2176 0.949 . S
C2171 H2166 0.950 . S
C2171 C2173 1.327 . S
C2171 C2177 1.429 . S
C2172 C2164 1.574 . S
C2172 H2167 0.949 . S
C2172 C2178 1.368 . S
C2173 C2157 1.349 . S
C2173 H2165 0.950 . S
C2173 C2171 1.327 . S
C2174 C2162 1.349 . S
C2174 H2168 0.950 . S
C2174 C2175 1.327 . S
C2175 H2169 0.950 . S
C2175 C2174 1.327 . S
C2175 C2179 1.429 . S
C2176 C2159 1.574 . S
C2176 H2170 0.949 . S
C2176 C2180 1.368 . S
C2177 C2158 1.429 . S
C2177 C2171 1.429 . S
C2177 C2178 1.523 . S
C2178 C2159 1.368 . S
C2178 C2172 1.368 . S
C2178 C2177 1.523 . S
C2179 C2163 1.429 . S
C2179 C2175 1.429 . S
C2179 C2180 1.523 . S
C2180 C2164 1.368 . S
C2180 C2176 1.368 . S
C2180 C2179 1.523 . S
H2181 C2156 0.950 . S
H2182 C2158 0.950 . S
H2183 C2159 0.949 . S
H2184 C2161 0.950 . S
H2185 C2163 0.950 . S
C2186 C2187 1.349 . S
C2186 C2188 1.327 . S
C2186 H2211 0.950 . S
C2187 C2186 1.349 . S
C2187 C2203 1.349 . S
C2188 C2186 1.327 . S
C2188 C2207 1.429 . S
C2188 H2212 0.950 . S
C2189 C2206 1.574 . S
C2189 C2208 1.368 . S
C2189 H2213 0.949 . S
H2190 C2194 0.949 . S
C2191 C2192 1.349 . S
C2191 C2193 1.327 . S
C2191 H2214 0.950 . S
C2192 C2191 1.349 . S
C2192 C2204 1.349 . S
C2193 C2191 1.327 . S
C2193 C2209 1.429 . S
C2193 H2215 0.950 . S
C2194 H2190 0.949 . S
C2194 C2202 1.574 . S
C2194 C2210 1.368 . S
H2195 C2203 0.950 . S
H2196 C2201 0.950 . S
H2197 C2202 0.949 . S
H2198 C2204 0.950 . S
H2199 C2205 0.950 . S
H2200 C2206 0.949 . S
C2201 H2196 0.950 . S
C2201 C2203 1.327 . S
C2201 C2207 1.429 . S
C2202 C2194 1.574 . S
C2202 H2197 0.949 . S
C2202 C2208 1.368 . S
C2203 C2187 1.349 . S
C2203 H2195 0.950 . S
C2203 C2201 1.327 . S
C2204 C2192 1.349 . S
C2204 H2198 0.950 . S
C2204 C2205 1.327 . S
C2205 H2199 0.950 . S
C2205 C2204 1.327 . S
C2205 C2209 1.429 . S
C2206 C2189 1.574 . S
C2206 H2200 0.949 . S
C2206 C2210 1.368 . S
C2207 C2188 1.429 . S
C2207 C2201 1.429 . S
C2207 C2208 1.523 . S
C2208 C2189 1.368 . S
C2208 C2202 1.368 . S
C2208 C2207 1.523 . S
C2209 C2193 1.429 . S
C2209 C2205 1.429 . S
C2209 C2210 1.523 . S
C2210 C2194 1.368 . S
C2210 C2206 1.368 . S
C2210 C2209 1.523 . S
H2211 C2186 0.950 . S
H2212 C2188 0.950 . S
H2213 C2189 0.949 . S
H2214 C2191 0.950 . S
H2215 C2193 0.950 . S
C2216 C2217 1.349 . S
C2216 C2218 1.327 . S
C2216 H2241 0.950 . S
C2217 C2216 1.349 . S
C2217 C2233 1.349 . S
C2218 C2216 1.327 . S
C2218 C2237 1.429 . S
C2218 H2242 0.950 . S
C2219 C2236 1.574 1_655 S
C2219 C2238 1.368 . S
C2219 H2243 0.949 . S
H2220 C2224 0.949 . S
C2221 C2222 1.349 . S
C2221 C2223 1.327 . S
C2221 H2244 0.950 . S
C2222 C2221 1.349 . S
C2222 C2234 1.349 . S
C2223 C2221 1.327 . S
C2223 C2239 1.429 . S
C2223 H2245 0.950 . S
C2224 H2220 0.949 . S
C2224 C2232 1.574 1_455 S
C2224 C2240 1.368 . S
H2225 C2233 0.950 . S
H2226 C2231 0.950 . S
H2227 C2232 0.949 . S
H2228 C2234 0.950 . S
H2229 C2235 0.950 . S
H2230 C2236 0.949 . S
C2231 H2226 0.950 . S
C2231 C2233 1.327 . S
C2231 C2237 1.429 . S
C2232 C2224 1.574 1_655 S
C2232 H2227 0.949 . S
C2232 C2238 1.368 . S
C2233 C2217 1.349 . S
C2233 H2225 0.950 . S
C2233 C2231 1.327 . S
C2234 C2222 1.349 . S
C2234 H2228 0.950 . S
C2234 C2235 1.327 . S
C2235 H2229 0.950 . S
C2235 C2234 1.327 . S
C2235 C2239 1.429 . S
C2236 C2219 1.574 1_455 S
C2236 H2230 0.949 . S
C2236 C2240 1.368 . S
C2237 C2218 1.429 . S
C2237 C2231 1.429 . S
C2237 C2238 1.523 . S
C2238 C2219 1.368 . S
C2238 C2232 1.368 . S
C2238 C2237 1.523 . S
C2239 C2223 1.429 . S
C2239 C2235 1.429 . S
C2239 C2240 1.523 . S
C2240 C2224 1.368 . S
C2240 C2236 1.368 . S
C2240 C2239 1.523 . S
H2241 C2216 0.950 . S
H2242 C2218 0.950 . S
H2243 C2219 0.949 . S
H2244 C2221 0.950 . S
H2245 C2223 0.950 . S
C2246 C2247 1.349 . S
C2246 C2248 1.327 . S
C2246 H2271 0.950 . S
C2247 C2246 1.349 . S
C2247 C2263 1.349 . S
C2248 C2246 1.327 . S
C2248 C2267 1.429 . S
C2248 H2272 0.950 . S
C2249 C2266 1.574 . S
C2249 C2268 1.368 . S
C2249 H2273 0.949 . S
H2250 C2254 0.949 . S
C2251 C2252 1.349 . S
C2251 C2253 1.327 . S
C2251 H2274 0.950 . S
C2252 C2251 1.349 . S
C2252 C2264 1.349 . S
C2253 C2251 1.327 . S
C2253 C2269 1.429 . S
C2253 H2275 0.950 . S
C2254 H2250 0.949 . S
C2254 C2262 1.574 . S
C2254 C2270 1.368 . S
H2255 C2263 0.950 . S
H2256 C2261 0.950 . S
H2257 C2262 0.949 . S
H2258 C2264 0.950 . S
H2259 C2265 0.950 . S
H2260 C2266 0.949 . S
C2261 H2256 0.950 . S
C2261 C2263 1.327 . S
C2261 C2267 1.429 . S
C2262 C2254 1.574 . S
C2262 H2257 0.949 . S
C2262 C2268 1.368 . S
C2263 C2247 1.349 . S
C2263 H2255 0.950 . S
C2263 C2261 1.327 . S
C2264 C2252 1.349 . S
C2264 H2258 0.950 . S
C2264 C2265 1.327 . S
C2265 H2259 0.950 . S
C2265 C2264 1.327 . S
C2265 C2269 1.429 . S
C2266 C2249 1.574 . S
C2266 H2260 0.949 . S
C2266 C2270 1.368 . S
C2267 C2248 1.429 . S
C2267 C2261 1.429 . S
C2267 C2268 1.523 . S
C2268 C2249 1.368 . S
C2268 C2262 1.368 . S
C2268 C2267 1.523 . S
C2269 C2253 1.429 . S
C2269 C2265 1.429 . S
C2269 C2270 1.523 . S
C2270 C2254 1.368 . S
C2270 C2266 1.368 . S
C2270 C2269 1.523 . S
H2271 C2246 0.950 . S
H2272 C2248 0.950 . S
H2273 C2249 0.949 . S
H2274 C2251 0.950 . S
H2275 C2253 0.950 . S
C2276 C2277 1.349 . S
C2276 C2278 1.327 . S
C2276 H2301 0.950 . S
C2277 C2276 1.349 . S
C2277 C2293 1.349 . S
C2278 C2276 1.327 . S
C2278 C2297 1.429 . S
C2278 H2302 0.950 . S
C2279 C2296 1.574 . S
C2279 C2298 1.368 . S
C2279 H2303 0.949 . S
H2280 C2284 0.949 . S
C2281 C2282 1.349 . S
C2281 C2283 1.327 . S
C2281 H2304 0.950 . S
C2282 C2281 1.349 . S
C2282 C2294 1.349 . S
C2283 C2281 1.327 . S
C2283 C2299 1.429 . S
C2283 H2305 0.950 . S
C2284 H2280 0.949 . S
C2284 C2292 1.574 . S
C2284 C2300 1.368 . S
H2285 C2293 0.950 . S
H2286 C2291 0.950 . S
H2287 C2292 0.949 . S
H2288 C2294 0.950 . S
H2289 C2295 0.950 . S
H2290 C2296 0.949 . S
C2291 H2286 0.950 . S
C2291 C2293 1.327 . S
C2291 C2297 1.429 . S
C2292 C2284 1.574 . S
C2292 H2287 0.949 . S
C2292 C2298 1.368 . S
C2293 C2277 1.349 . S
C2293 H2285 0.950 . S
C2293 C2291 1.327 . S
C2294 C2282 1.349 . S
C2294 H2288 0.950 . S
C2294 C2295 1.327 . S
C2295 H2289 0.950 . S
C2295 C2294 1.327 . S
C2295 C2299 1.429 . S
C2296 C2279 1.574 . S
C2296 H2290 0.949 . S
C2296 C2300 1.368 . S
C2297 C2278 1.429 . S
C2297 C2291 1.429 . S
C2297 C2298 1.523 . S
C2298 C2279 1.368 . S
C2298 C2292 1.368 . S
C2298 C2297 1.523 . S
C2299 C2283 1.429 . S
C2299 C2295 1.429 . S
C2299 C2300 1.523 . S
C2300 C2284 1.368 . S
C2300 C2296 1.368 . S
C2300 C2299 1.523 . S
H2301 C2276 0.950 . S
H2302 C2278 0.950 . S
H2303 C2279 0.949 . S
H2304 C2281 0.950 . S
H2305 C2283 0.950 . S
C2306 C2307 1.349 . S
C2306 C2308 1.327 . S
C2306 H2331 0.950 . S
C2307 C2306 1.349 . S
C2307 C2323 1.349 . S
C2308 C2306 1.327 . S
C2308 C2327 1.429 . S
C2308 H2332 0.950 . S
C2309 C2326 1.574 1_655 S
C2309 C2328 1.368 . S
C2309 H2333 0.949 . S
H2310 C2314 0.949 . S
C2311 C2312 1.349 . S
C2311 C2313 1.327 . S
C2311 H2334 0.950 . S
C2312 C2311 1.349 . S
C2312 C2324 1.349 . S
C2313 C2311 1.327 . S
C2313 C2329 1.429 . S
C2313 H2335 0.950 . S
C2314 H2310 0.949 . S
C2314 C2322 1.574 1_455 S
C2314 C2330 1.368 . S
H2315 C2323 0.950 . S
H2316 C2321 0.950 . S
H2317 C2322 0.949 . S
H2318 C2324 0.950 . S
H2319 C2325 0.950 . S
H2320 C2326 0.949 . S
C2321 H2316 0.950 . S
C2321 C2323 1.327 . S
C2321 C2327 1.429 . S
C2322 C2314 1.574 1_655 S
C2322 H2317 0.949 . S
C2322 C2328 1.368 . S
C2323 C2307 1.349 . S
C2323 H2315 0.950 . S
C2323 C2321 1.327 . S
C2324 C2312 1.349 . S
C2324 H2318 0.950 . S
C2324 C2325 1.327 . S
C2325 H2319 0.950 . S
C2325 C2324 1.327 . S
C2325 C2329 1.429 . S
C2326 C2309 1.574 1_455 S
C2326 H2320 0.949 . S
C2326 C2330 1.368 . S
C2327 C2308 1.429 . S
C2327 C2321 1.429 . S
C2327 C2328 1.523 . S
C2328 C2309 1.368 . S
C2328 C2322 1.368 . S
C2328 C2327 1.523 . S
C2329 C2313 1.429 . S
C2329 C2325 1.429 . S
C2329 C2330 1.523 . S
C2330 C2314 1.368 . S
C2330 C2326 1.368 . S
C2330 C2329 1.523 . S
H2331 C2306 0.950 . S
H2332 C2308 0.950 . S
H2333 C2309 0.949 . S
H2334 C2311 0.950 . S
H2335 C2313 0.950 . S
C417 C303 1.741 . S
C422 C5 1.745 . S
C447 C263 1.745 . S
C452 C23 1.740 . S
C477 C277 1.740 . S
C482 C29 1.745 . S
C507 C289 1.745 . S
C512 C49 1.740 . S
C537 C55 1.745 . S
C542 C231 1.740 . S
C567 C239 1.745 . S
C572 C69 1.740 . S
C597 C83 1.745 . S
C602 C251 1.740 . S
C627 C95 1.740 . S
C632 C211 1.745 . S
C657 C407 1.727 . S
C662 C114 1.727 . S
C687 C127 1.727 . S
C692 C374 1.727 . S
C717 C140 1.727 . S
C722 C381 1.727 . S
C747 C153 1.727 . S
C752 C394 1.727 . S
C777 C160 1.727 . S
C782 C335 1.727 . S
C807 C173 1.727 . S
C812 C342 1.727 . S
C837 C192 1.727 . S
C842 C361 1.727 . S
C867 C199 1.726 . S
C872 C322 1.727 . S
C897 C4 1.052 . S
C902 C161 1.052 . S
C927 C382 1.048 . S
C932 C16 1.048 . S
C957 C36 1.052 . S
C962 C185 1.052 . S
C987 C408 1.048 . S
C992 C42 1.048 . S
C1017 C107 1.052 . S
C1022 C62 1.052 . S
C1047 C70 1.048 . S
C1052 C328 1.048 . S
C1077 C82 1.052 . S
C1082 C133 1.052 . S
C1107 C96 1.048 . S
C1112 C354 1.048 . S
C1137 C278 1.048 . S
C1142 C120 1.048 . S
C1167 C304 1.048 . S
C1172 C146 1.048 . S
C1197 C174 1.048 . S
C1202 C224 1.048 . S
C1227 C252 1.048 . S
C1232 C200 1.048 . S
C1257 C367 1.052 . S
C1262 C218 1.052 . S
C1287 C238 1.052 . S
C1292 C395 1.052 . S
C1317 C315 1.052 . S
C1322 C270 1.052 . S
C1347 C343 1.052 . S
C1352 C296 1.052 . S
C1377 C56 1.042 . S
C1382 C10 1.042 . S
C1407 C68 1.049 . S
C1412 C18 1.049 . S
C1437 C30 1.042 . S
C1442 C88 1.042 . S
C1467 C44 1.049 . S
C1472 C94 1.049 . S
C1497 C159 1.065 . S
C1502 C109 1.065 . S
C1527 C172 1.053 . S
C1532 C122 1.053 . S
C1557 C187 1.065 . S
C1562 C135 1.065 . S
C1587 C148 1.053 . S
C1592 C198 1.053 . S
C1617 C212 1.042 . S
C1622 C264 1.042 . S
C1647 C226 1.049 . S
C1652 C276 1.049 . S
C1677 C244 1.042 . S
C1682 C290 1.042 . S
C1707 C250 1.049 . S
C1712 C302 1.049 . S
C1737 C369 1.065 . S
C1742 C317 1.065 . S
C1767 C380 1.053 . S
C1772 C330 1.053 . S
C1797 C393 1.065 . S
C1802 C341 1.065 . S
C1827 C406 1.053 . S
C1832 C356 1.053 . S
C1857 C400 1.904 . S
C1862 C3 1.899 . S
C1887 C17 1.900 . S
C1892 C205 1.900 . S
C1917 C368 1.903 . S
C1922 C31 1.899 . S
C1947 C43 1.900 . S
C1952 C179 1.900 . S
C1977 C348 1.904 . S
C1982 C57 1.899 . S
C2007 C75 1.900 . S
C2012 C147 1.900 . S
C2037 C81 1.899 . S
C2042 C316 1.903 . S
C2067 C121 1.900 . S
C2072 C101 1.900 . S
C2097 C108 1.904 . S
C2102 C291 1.899 . S
C2127 C265 1.899 . S
C2132 C134 1.903 . S
C2157 C166 1.904 . S
C2162 C237 1.899 . S
C2187 C186 1.903 . S
C2192 C213 1.899 . S
C2217 C413 1.900 . S
C2222 C225 1.900 . S
C2247 C257 1.900 . S
C2252 C387 1.900 . S
C2277 C283 1.900 . S
C2282 C355 1.900 . S
C2307 C329 1.900 . S
C2312 C309 1.900 . S
