# Generated by pormake.
# Topology zfb, (5)-cn, num edge types: 1
# Building blocks:
#     Node 0, Type 0, BuildingBlock: BEQFEK_clean_sbu_0, # of connection points: 5
#     Node 1, Type 0, BuildingBlock: BEQFEK_clean_sbu_0, # of connection points: 5
#     Node 2, Type 0, BuildingBlock: BEQFEK_clean_sbu_0, # of connection points: 5
#     Node 3, Type 0, BuildingBlock: BEQFEK_clean_sbu_0, # of connection points: 5
#     Node 4, Type 0, BuildingBlock: BEQFEK_clean_sbu_0, # of connection points: 5
#     Node 5, Type 0, BuildingBlock: BEQFEK_clean_sbu_0, # of connection points: 5
#     Node 6, Type 0, BuildingBlock: BEQFEK_clean_sbu_0, # of connection points: 5
#     Node 7, Type 0, BuildingBlock: BEQFEK_clean_sbu_0, # of connection points: 5
#     Edge 8, Type (0, 0), BuildingBlock: ZUJKAS_clean_linker_0, # of connection points: 2
#     Edge 9, Type (0, 0), BuildingBlock: ZUJKAS_clean_linker_0, # of connection points: 2
#     Edge 10, Type (0, 0), BuildingBlock: ZUJKAS_clean_linker_0, # of connection points: 2
#     Edge 11, Type (0, 0), BuildingBlock: ZUJKAS_clean_linker_0, # of connection points: 2
#     Edge 12, Type (0, 0), BuildingBlock: ZUJKAS_clean_linker_0, # of connection points: 2
#     Edge 13, Type (0, 0), BuildingBlock: ZUJKAS_clean_linker_0, # of connection points: 2
#     Edge 14, Type (0, 0), BuildingBlock: ZUJKAS_clean_linker_0, # of connection points: 2
#     Edge 15, Type (0, 0), BuildingBlock: ZUJKAS_clean_linker_0, # of connection points: 2
#     Edge 16, Type (0, 0), BuildingBlock: ZUJKAS_clean_linker_0, # of connection points: 2
#     Edge 17, Type (0, 0), BuildingBlock: ZUJKAS_clean_linker_0, # of connection points: 2
#     Edge 18, Type (0, 0), BuildingBlock: ZUJKAS_clean_linker_0, # of connection points: 2
#     Edge 19, Type (0, 0), BuildingBlock: ZUJKAS_clean_linker_0, # of connection points: 2
#     Edge 20, Type (0, 0), BuildingBlock: ZUJKAS_clean_linker_0, # of connection points: 2
#     Edge 21, Type (0, 0), BuildingBlock: ZUJKAS_clean_linker_0, # of connection points: 2
#     Edge 22, Type (0, 0), BuildingBlock: ZUJKAS_clean_linker_0, # of connection points: 2
#     Edge 23, Type (0, 0), BuildingBlock: ZUJKAS_clean_linker_0, # of connection points: 2
#     Edge 24, Type (0, 0), BuildingBlock: ZUJKAS_clean_linker_0, # of connection points: 2
#     Edge 25, Type (0, 0), BuildingBlock: ZUJKAS_clean_linker_0, # of connection points: 2
#     Edge 26, Type (0, 0), BuildingBlock: ZUJKAS_clean_linker_0, # of connection points: 2
#     Edge 27, Type (0, 0), BuildingBlock: ZUJKAS_clean_linker_0, # of connection points: 2
# Relax obj value: 0.125
# Max RMSD: 0.143
# Mean RMSD: 0.143
data_MOF--net-zfb--node1-BEQFEK_clean_sbu_0--edge1-ZUJKAS_clean_linker_0
_symmetry_space_group_name_H-M    P1
_symmetry_Int_Tables_number       1
_symmetry_cell_setting            triclinic
loop_
_symmetry_equiv_pos_as_xyz
'x, y, z'
_cell_length_a     39.007853
_cell_length_b     38.982219
_cell_length_c     47.769473
_cell_angle_alpha  90.002439
_cell_angle_beta   89.98376
_cell_angle_gamma 89.977759
loop_
_atom_site_label
_atom_site_type_symbol
_atom_site_fract_x
_atom_site_fract_y
_atom_site_fract_z
_atom_type_partial_charge
Co0 Co 0.1986 0.35707 0.06638 0.0
Co1 Co 0.20525 0.36238 1.00073 0.0
C2 C 0.14247 0.38677 0.03072 0.0
O3 O 0.15473 0.37827 0.05447 0.0
O4 O 0.15905 0.38155 0.0081 0.0
C5 C 0.16878 0.34412 0.12082 0.0
O6 O 0.13957 0.34657 0.10729 0.0
C7 C 0.19072 0.35412 0.94055 0.0
C8 C 0.24197 0.36349 0.92226 0.0
C9 C 0.20831 0.35612 0.9153 0.0
N10 N 0.21313 0.35986 0.96141 0.0
N11 N 0.24368 0.36542 0.95033 0.0
C12 C 0.15294 0.35036 0.94509 0.0
H13 H 0.14223 0.37578 0.95074 0.0
H14 H 0.14812 0.3328 0.96295 0.0
H15 H 0.13943 0.3411 0.92618 0.0
C16 C 0.20656 0.28311 0.05256 0.0
N17 N 0.2068 0.31651 0.04523 0.0
N18 N 0.21005 0.31886 0.01786 0.0
C19 C 0.21246 0.2871 0.00695 0.0
C20 C 0.20994 0.26334 0.02848 0.0
C21 C 0.19911 0.27074 0.08158 0.0
H22 H 0.21902 0.28061 0.09608 0.0
H23 H 0.17406 0.28123 0.08848 0.0
H24 H 0.19818 0.24237 0.08285 0.0
O25 O 0.23473 0.3926 0.06122 0.0
O26 O 0.23873 0.39559 0.01503 0.0
H27 H 0.23672 0.29682 0.9675 0.0
H28 H 0.22482 0.25268 0.97278 0.0
C29 C 0.21691 0.27965 0.97641 0.0
H30 H 0.19237 0.28447 0.96537 0.0
H31 H 0.26566 0.37083 0.96196 0.0
O32 O 0.19674 0.34694 0.1073 0.0
C33 C 0.24768 0.40575 0.03922 0.0
Co34 Co 0.63924 0.19322 0.56886 0.0
Co35 Co 0.63782 0.20412 0.50344 0.0
C36 C 0.61217 0.13937 0.52955 0.0
O37 O 0.61956 0.14996 0.55409 0.0
O38 O 0.61821 0.15757 0.50793 0.0
C39 C 0.63033 0.168 0.62481 0.0
O40 O 0.60605 0.14975 0.61295 0.0
C41 C 0.64815 0.19383 0.44282 0.0
C42 C 0.6457 0.24727 0.42748 0.0
C43 C 0.6501 0.21369 0.41871 0.0
N44 N 0.64279 0.21482 0.46473 0.0
N45 N 0.64114 0.24668 0.45538 0.0
C46 C 0.65351 0.15597 0.44546 0.0
H47 H 0.66376 0.14962 0.4665 0.0
H48 H 0.6714 0.14654 0.42911 0.0
H49 H 0.62853 0.14275 0.44287 0.0
C50 C 0.71366 0.2019 0.55842 0.0
N51 N 0.6808 0.20297 0.54973 0.0
N52 N 0.68019 0.2076 0.52244 0.0
C53 C 0.7126 0.21001 0.51294 0.0
C54 C 0.73492 0.20613 0.53533 0.0
C55 C 0.72412 0.19283 0.58764 0.0
H56 H 0.71542 0.21333 0.60212 0.0
H57 H 0.71124 0.16868 0.59398 0.0
H58 H 0.75226 0.18956 0.58958 0.0
O59 O 0.60347 0.22924 0.56394 0.0
O60 O 0.60371 0.23659 0.51794 0.0
H61 H 0.7066 0.23657 0.47403 0.0
H62 H 0.74955 0.22172 0.48038 0.0
C63 C 0.72202 0.21532 0.48286 0.0
H64 H 0.71628 0.19165 0.47088 0.0
H65 H 0.63721 0.26806 0.46813 0.0
O66 O 0.64798 0.18838 0.60982 0.0
C67 C 0.59176 0.24368 0.542 0.0
Co68 Co 0.79677 0.64036 0.06951 0.0
Co69 Co 0.7892 0.63615 0.00389 0.0
C70 C 0.85273 0.61204 0.03304 0.0
O71 O 0.84084 0.62018 0.05701 0.0
O72 O 0.8356 0.61718 0.0107 0.0
C73 C 0.82705 0.65561 0.12339 0.0
O74 O 0.85583 0.65679 0.10912 0.0
C75 C 0.80282 0.6451 0.94352 0.0
C76 C 0.7511 0.63665 0.92596 0.0
C77 C 0.78467 0.64382 0.91843 0.0
N78 N 0.78088 0.63888 0.96464 0.0
N79 N 0.75008 0.63371 0.95398 0.0
C80 C 0.83973 0.65409 0.94785 0.0
H81 H 0.84378 0.6642 0.96931 0.0
H82 H 0.84819 0.67342 0.93225 0.0
H83 H 0.85557 0.63065 0.94535 0.0
C84 C 0.78752 0.71457 0.05657 0.0
N85 N 0.78763 0.68127 0.04888 0.0
N86 N 0.78421 0.67935 0.0215 0.0
C87 C 0.78142 0.71126 0.01096 0.0
C88 C 0.78383 0.73469 0.03272 0.0
C89 C 0.79503 0.72663 0.08567 0.0
H90 H 0.82128 0.71843 0.09155 0.0
H91 H 0.79335 0.75491 0.08759 0.0
H92 H 0.7768 0.71447 0.10049 0.0
O93 O 0.7612 0.60419 0.06424 0.0
O94 O 0.75592 0.60269 0.01808 0.0
H95 H 0.76861 0.74617 0.97726 0.0
H96 H 0.80156 0.71509 0.96946 0.0
C97 C 0.77692 0.71924 0.98052 0.0
H98 H 0.75742 0.70194 0.97134 0.0
H99 H 0.7283 0.6283 0.96587 0.0
O100 O 0.79911 0.64973 0.11052 0.0
C101 C 0.74769 0.59175 0.0422 0.0
Co102 Co 0.35501 0.79982 0.56777 0.0
Co103 Co 0.35835 0.78955 0.5023 0.0
C104 C 0.38249 0.85433 0.52924 0.0
O105 O 0.37473 0.84339 0.5536 0.0
O106 O 0.37708 0.83631 0.50742 0.0
C107 C 0.36456 0.82275 0.62403 0.0
O108 O 0.39102 0.83827 0.61267 0.0
C109 C 0.34898 0.80033 0.44164 0.0
C110 C 0.35666 0.74773 0.42557 0.0
C111 C 0.34987 0.78106 0.41709 0.0
N112 N 0.35509 0.77926 0.46337 0.0
N113 N 0.35976 0.74791 0.4536 0.0
C114 C 0.34047 0.83754 0.44492 0.0
H115 H 0.33028 0.84263 0.46621 0.0
H116 H 0.32137 0.84565 0.42902 0.0
H117 H 0.36413 0.85295 0.44211 0.0
C118 C 0.28098 0.79049 0.55585 0.0
N119 N 0.31409 0.78972 0.54777 0.0
N120 N 0.31552 0.78521 0.52048 0.0
C121 C 0.28341 0.78251 0.51038 0.0
C122 C 0.26043 0.78615 0.53235 0.0
C123 C 0.2696 0.79949 0.58485 0.0
H124 H 0.28195 0.82386 0.59136 0.0
H125 H 0.24137 0.80232 0.5863 0.0
H126 H 0.27823 0.77918 0.59953 0.0
O127 O 0.39135 0.76416 0.56345 0.0
O128 O 0.39249 0.75755 0.51738 0.0
H129 H 0.24771 0.76939 0.47736 0.0
H130 H 0.27916 0.8016 0.46859 0.0
C131 C 0.27482 0.77732 0.48013 0.0
H132 H 0.29163 0.75727 0.4711 0.0
H133 H 0.36501 0.7266 0.4661 0.0
O134 O 0.34514 0.80464 0.60858 0.0
C135 C 0.40386 0.75023 0.54158 0.0
Co136 Co 0.69744 0.14104 0.97818 0.0
Co137 Co 0.70587 0.13859 0.0438 0.0
C138 C 0.64225 0.11336 0.01645 0.0
O139 O 0.65396 0.12087 0.99227 0.0
O140 O 0.65938 0.11939 0.03864 0.0
C141 C 0.67797 0.12804 0.92181 0.0
O142 O 0.66685 0.09938 0.93306 0.0
C143 C 0.69608 0.14528 0.10503 0.0
C144 C 0.74985 0.14996 0.11913 0.0
C145 C 0.71634 0.14945 0.12871 0.0
N146 N 0.71679 0.14336 0.08255 0.0
N147 N 0.74887 0.14591 0.09118 0.0
C148 C 0.65778 0.14594 0.10336 0.0
H149 H 0.64941 0.15685 0.08304 0.0
H150 H 0.6467 0.16129 0.12071 0.0
H151 H 0.64795 0.1193 0.10489 0.0
C152 C 0.70783 0.2152 0.98932 0.0
N153 N 0.70718 0.18224 0.9978 0.0
N154 N 0.71005 0.18125 0.02523 0.0
C155 C 0.71249 0.21353 0.03511 0.0
C156 C 0.71123 0.23616 0.01269 0.0
C157 C 0.70419 0.22621 0.95947 0.0
H158 H 0.72126 0.21047 0.94605 0.0
H159 H 0.67739 0.22174 0.95256 0.0
H160 H 0.71066 0.25373 0.95674 0.0
O161 O 0.73339 0.10536 0.98295 0.0
O162 O 0.73814 0.1041 0.02917 0.0
H163 H 0.73614 0.21462 0.07545 0.0
H164 H 0.70765 0.25032 0.06911 0.0
C165 C 0.71163 0.2225 0.06559 0.0
H166 H 0.69053 0.20833 0.07592 0.0
H167 H 0.7701 0.14539 0.07789 0.0
O168 O 0.69224 0.15025 0.93743 0.0
C169 C 0.74644 0.09279 0.00513 0.0
Co170 Co 0.85603 0.70087 0.4783 0.0
Co171 Co 0.86002 0.70512 0.54416 0.0
C172 C 0.88494 0.6434 0.51372 0.0
O173 O 0.87691 0.65666 0.49019 0.0
O174 O 0.87926 0.65904 0.53671 0.0
C175 C 0.83915 0.67155 0.42447 0.0
O176 O 0.83551 0.64305 0.43885 0.0
C177 C 0.85404 0.69232 0.60523 0.0
C178 C 0.85323 0.74561 0.62102 0.0
C179 C 0.85192 0.71171 0.62966 0.0
N180 N 0.85649 0.71394 0.58335 0.0
N181 N 0.85619 0.74569 0.593 0.0
C182 C 0.85122 0.65421 0.6023 0.0
H183 H 0.87708 0.64265 0.60447 0.0
H184 H 0.84101 0.64739 0.58136 0.0
H185 H 0.83428 0.6434 0.61876 0.0
C186 C 0.782 0.71139 0.49115 0.0
N187 N 0.81516 0.70927 0.49894 0.0
N188 N 0.81692 0.71052 0.52644 0.0
C189 C 0.78503 0.71333 0.53702 0.0
C190 C 0.76181 0.71402 0.51502 0.0
C191 C 0.76997 0.71039 0.46143 0.0
H192 H 0.78705 0.7263 0.44817 0.0
H193 H 0.77116 0.68358 0.45371 0.0
H194 H 0.74324 0.71987 0.45953 0.0
O195 O 0.89137 0.73682 0.4842 0.0
O196 O 0.89388 0.73857 0.53048 0.0
H197 H 0.7862 0.73522 0.57803 0.0
H198 H 0.74903 0.70874 0.57157 0.0
C199 C 0.77688 0.71157 0.56762 0.0
H200 H 0.7903 0.68936 0.57703 0.0
H201 H 0.8577 0.76747 0.58036 0.0
O202 O 0.84702 0.69904 0.43728 0.0
C203 C 0.90436 0.74862 0.50666 0.0
Co204 Co 0.3011 0.85677 0.97768 0.0
Co205 Co 0.29046 0.86143 0.04302 0.0
C206 C 0.35532 0.8852 0.01587 0.0
O207 O 0.34451 0.877 0.99157 0.0
O208 O 0.33723 0.88012 0.03771 0.0
C209 C 0.32208 0.86691 0.92115 0.0
O210 O 0.33541 0.89482 0.93206 0.0
C211 C 0.30116 0.85208 0.10369 0.0
C212 C 0.24884 0.86116 0.11984 0.0
C213 C 0.28196 0.85338 0.12826 0.0
N214 N 0.28024 0.85885 0.082 0.0
N215 N 0.24907 0.86439 0.09182 0.0
C216 C 0.33807 0.8425 0.10033 0.0
H217 H 0.34288 0.83254 0.07891 0.0
H218 H 0.34555 0.82287 0.116 0.0
H219 H 0.35418 0.86564 0.10342 0.0
C220 C 0.29207 0.78294 0.99053 0.0
N221 N 0.29119 0.8162 0.99819 0.0
N222 N 0.28624 0.81815 0.0254 0.0
C223 C 0.28319 0.78621 0.03585 0.0
C224 C 0.2872 0.76279 0.01421 0.0
C225 C 0.30157 0.77106 0.96176 0.0
H226 H 0.32528 0.78435 0.95491 0.0
H227 H 0.30579 0.74295 0.96091 0.0
H228 H 0.28083 0.77819 0.94696 0.0
O229 O 0.26515 0.89281 0.98145 0.0
O230 O 0.2584 0.89525 0.02746 0.0
H231 H 0.26791 0.75141 0.06888 0.0
H232 H 0.30103 0.7817 0.07799 0.0
C233 C 0.27691 0.77818 0.06607 0.0
H234 H 0.25729 0.79583 0.07465 0.0
H235 H 0.22789 0.87021 0.07935 0.0
O236 O 0.30598 0.84625 0.93702 0.0
C237 C 0.25108 0.90588 0.00303 0.0
Co238 Co 0.13948 0.2964 0.47512 0.0
Co239 Co 0.13745 0.29329 0.54107 0.0
C240 C 0.11299 0.35509 0.51092 0.0
O241 O 0.11963 0.34114 0.48733 0.0
O242 O 0.1194 0.33982 0.53394 0.0
C243 C 0.15884 0.32497 0.42173 0.0
O244 O 0.16649 0.35217 0.43672 0.0
C245 C 0.1405 0.3044 0.60255 0.0
C246 C 0.14942 0.25126 0.61702 0.0
C247 C 0.14516 0.28457 0.62645 0.0
N248 N 0.14235 0.28367 0.58008 0.0
N249 N 0.14756 0.25198 0.58892 0.0
C250 C 0.13163 0.34168 0.60091 0.0
H251 H 0.10844 0.34485 0.58776 0.0
H252 H 0.15293 0.35574 0.59063 0.0
H253 H 0.12646 0.35288 0.62181 0.0
C254 C 0.21385 0.28444 0.48675 0.0
N255 N 0.18088 0.28738 0.495 0.0
N256 N 0.17981 0.28731 0.52254 0.0
C257 C 0.21192 0.28503 0.53268 0.0
C258 C 0.23459 0.28285 0.51038 0.0
C259 C 0.22525 0.28351 0.45686 0.0
H260 H 0.20655 0.26891 0.44409 0.0
H261 H 0.22656 0.31011 0.44869 0.0
H262 H 0.25097 0.27156 0.45489 0.0
O263 O 0.10372 0.26103 0.48173 0.0
O264 O 0.10256 0.26057 0.52807 0.0
H265 H 0.21621 0.26476 0.57409 0.0
H266 H 0.24812 0.29668 0.56583 0.0
C267 C 0.22089 0.28929 0.56297 0.0
H268 H 0.20451 0.3094 0.57247 0.0
H269 H 0.14976 0.23078 0.57571 0.0
O270 O 0.14752 0.29833 0.43399 0.0
C271 C 0.09121 0.25007 0.50466 0.0
H272 H 0.24222 0.94628 0.95646 0.0
H273 H 0.22429 0.00645 0.95635 0.0
H274 H 0.19893 -0.0006 0.04402 0.0
H275 H 0.21584 0.93926 0.04424 0.0
H276 H 0.1559 0.04403 0.01493 0.0
H277 H 0.29374 0.07037 0.99406 0.0
H278 H 0.27242 0.04495 0.96799 0.0
H279 H 0.27816 0.02815 0.00272 0.0
C280 C 0.23174 0.95717 0.97549 0.0
C281 C 0.23124 0.93816 1.00053 0.0
C282 C 0.22177 0.99166 0.97544 0.0
C283 C 0.21134 0.00759 1.0004 0.0
C284 C 0.20728 0.98769 0.0246 0.0
H285 H 0.2474 0.21459 0.05554 0.0
H286 H 0.24476 0.1522 0.04887 0.0
C287 C 0.21705 0.95326 0.02467 0.0
C288 C 0.20892 0.04543 0.00248 0.0
H289 H 0.25774 0.11805 1.00002 0.0
C290 C 0.17803 0.06032 0.01143 0.0
C291 C 0.23812 0.06647 0.99854 0.0
C292 C 0.2726 0.05177 0.99054 0.0
C293 C 0.17559 0.09573 0.01665 0.0
C294 C 0.20471 0.11674 0.01239 0.0
C295 C 0.23545 0.10186 0.0032 0.0
C296 C 0.20432 0.15416 0.01784 0.0
C297 C 0.14226 0.11011 0.02758 0.0
C298 C 0.18241 0.17585 0.00272 0.0
C299 C 0.18373 0.21132 0.00672 0.0
C300 C 0.20723 0.22569 0.02566 0.0
C301 C 0.22889 0.20401 0.04101 0.0
C302 C 0.22748 0.1685 0.0371 0.0
H303 H 0.12562 0.08975 0.03652 0.0
H304 H 0.14694 0.12983 0.04391 0.0
H305 H 0.12813 0.12242 0.01011 0.0
H306 H 0.16484 0.16544 0.98737 0.0
H307 H 0.16666 0.22761 0.99474 0.0
H308 H 0.04836 0.23703 0.46036 0.0
H309 H 0.98856 0.21846 0.46351 0.0
H310 H 0.00076 0.20055 0.552 0.0
H311 H 0.06053 0.21845 0.54907 0.0
H312 H 0.95521 0.15347 0.52482 0.0
H313 H 0.9261 0.29045 0.50214 0.0
H314 H 0.95121 0.26862 0.4761 0.0
H315 H 0.96875 0.27569 0.51039 0.0
C316 C 0.03869 0.22806 0.48031 0.0
C317 C 0.05902 0.22993 0.50458 0.0
C318 C 0.00444 0.21767 0.4821 0.0
C319 C 0.99011 0.20904 0.50812 0.0
C320 C 0.01128 0.20742 0.53177 0.0
H321 H 0.78249 0.24232 0.56472 0.0
H322 H 0.8451 0.23987 0.55946 0.0
C323 C 0.04547 0.21775 0.53003 0.0
C324 C 0.95252 0.20619 0.51162 0.0
H325 H 0.87916 0.25387 0.50978 0.0
C326 C 0.93847 0.17528 0.52136 0.0
C327 C 0.93097 0.23501 0.50771 0.0
C328 C 0.94492 0.26944 0.49875 0.0
C329 C 0.90324 0.17237 0.52711 0.0
C330 C 0.88167 0.20106 0.52274 0.0
C331 C 0.89579 0.23192 0.51306 0.0
C332 C 0.84427 0.19991 0.52797 0.0
C333 C 0.88955 0.13897 0.53846 0.0
C334 C 0.82321 0.17809 0.5122 0.0
C335 C 0.78764 0.17943 0.51528 0.0
C336 C 0.77259 0.20281 0.53398 0.0
C337 C 0.79364 0.22403 0.55028 0.0
C338 C 0.82925 0.22268 0.54721 0.0
H339 H 0.9103 0.1227 0.54727 0.0
H340 H 0.87006 0.14361 0.55498 0.0
H341 H 0.8771 0.12447 0.52125 0.0
H342 H 0.8342 0.16078 0.4969 0.0
H343 H 0.77181 0.16267 0.50263 0.0
H344 H 0.75708 0.05139 0.95942 0.0
H345 H 0.77417 0.99102 0.96062 0.0
H346 H 0.79539 -0.00061 0.04892 0.0
H347 H 0.77921 0.05975 0.04788 0.0
H348 H 0.83952 0.95374 0.02118 0.0
H349 H 0.7022 0.92856 0.99741 0.0
H350 H 0.72465 0.95354 0.97168 0.0
H351 H 0.71793 0.9707 0.00617 0.0
C352 C 0.76647 0.04074 0.9789 0.0
C353 C 0.76601 0.06023 0.0037 0.0
C354 C 0.77597 0.00614 0.97958 0.0
C355 C 0.785 0.99056 0.00504 0.0
C356 C 0.78812 0.01085 0.02912 0.0
H357 H 0.7459 0.78338 0.05951 0.0
H358 H 0.74902 0.84583 0.05327 0.0
C359 C 0.77879 0.0454 0.02847 0.0
C360 C 0.78694 0.95273 0.00759 0.0
H361 H 0.73759 0.88053 0.00423 0.0
C362 C 0.81738 0.93762 0.01727 0.0
C363 C 0.75769 0.93194 0.00309 0.0
C364 C 0.72365 0.94691 0.99426 0.0
C365 C 0.81935 0.90221 0.02257 0.0
C366 C 0.79022 0.88142 0.01768 0.0
C367 C 0.75989 0.89654 0.00788 0.0
C368 C 0.79024 0.84394 0.02292 0.0
C369 C 0.85221 0.88755 0.03416 0.0
C370 C 0.8124 0.82227 0.008 0.0
C371 C 0.81077 0.78677 0.01173 0.0
C372 C 0.78676 0.77236 0.03022 0.0
C373 C 0.76482 0.794 0.04535 0.0
C374 C 0.76651 0.82955 0.0417 0.0
H375 H 0.8687 0.90777 0.04349 0.0
H376 H 0.84686 0.86781 0.05035 0.0
H377 H 0.86681 0.87518 0.01696 0.0
H378 H 0.8304 0.83273 0.99301 0.0
H379 H 0.82801 0.7705 0.9999 0.0
H380 H 0.93732 0.78017 0.55003 0.0
H381 H 0.99688 0.79871 0.5507 0.0
H382 H 0.00412 0.78153 0.46171 0.0
H383 H 0.94452 0.76226 0.46087 0.0
H384 H 0.04984 0.74357 0.49161 0.0
H385 H 0.0563 0.87881 0.52645 0.0
H386 H 0.02943 0.85307 0.54856 0.0
H387 H 0.01758 0.85989 0.51258 0.0
C388 C 0.95116 0.78136 0.53039 0.0
C389 C 0.93627 0.76918 0.50546 0.0
C390 C 0.98525 0.79223 0.5308 0.0
C391 C 0.00497 0.79151 0.50626 0.0
C392 C 0.98931 0.78229 0.48089 0.0
H393 H 0.22522 0.83081 0.49957 0.0
H394 H 0.16295 0.83405 0.49285 0.0
C395 C 0.95516 0.77139 0.48044 0.0
C396 C 0.04277 0.79457 0.50806 0.0
H397 H 0.10757 0.84507 0.53282 0.0
C398 C 0.06248 0.76599 0.50023 0.0
C399 C 0.05924 0.82379 0.51933 0.0
C400 C 0.03956 0.85576 0.52696 0.0
C401 C 0.09805 0.76537 0.50422 0.0
C402 C 0.11428 0.79388 0.51675 0.0
C403 C 0.09487 0.82302 0.52364 0.0
C404 C 0.15152 0.79376 0.52254 0.0
C405 C 0.11799 0.73411 0.49509 0.0
C406 C 0.16551 0.77056 0.54193 0.0
C407 C 0.201 0.76863 0.54574 0.0
C408 C 0.22287 0.78987 0.53018 0.0
C409 C 0.20876 0.8139 0.51154 0.0
C410 C 0.17331 0.81591 0.5078 0.0
H411 H 0.10317 0.71806 0.48016 0.0
H412 H 0.14255 0.74163 0.48506 0.0
H413 H 0.12404 0.7182 0.5137 0.0
H414 H 0.14899 0.75353 0.55373 0.0
H415 H 0.21142 0.74997 0.56023 0.0
H416 H 0.70355 0.56655 0.00304 0.0
H417 H 0.68373 0.50732 0.99926 0.0
H418 H 0.72824 0.48463 0.07982 0.0
H419 H 0.74728 0.544 0.08408 0.0
H420 H 0.73039 0.45773 0.99569 0.0
H421 H 0.64272 0.42714 0.08322 0.0
H422 H 0.65239 0.47072 0.07308 0.0
H423 H 0.68142 0.44714 0.0952 0.0
C424 C 0.70796 0.54927 0.02044 0.0
C425 C 0.72724 0.55986 0.04376 0.0
C426 C 0.69669 0.51539 0.01821 0.0
C427 C 0.70453 0.49146 0.03921 0.0
C428 C 0.72128 0.5027 0.06357 0.0
H429 H 0.75617 0.2791 0.0382 0.0
H430 H 0.75133 0.34159 0.04354 0.0
C431 C 0.73225 0.53673 0.06596 0.0
C432 C 0.70052 0.45424 0.0336 0.0
H433 H 0.67143 0.37896 0.06149 0.0
C434 C 0.7169 0.44065 0.00983 0.0
C435 C 0.68308 0.43187 0.05208 0.0
C436 C 0.66362 0.44502 0.07717 0.0
C437 C 0.71741 0.40528 0.00465 0.0
C438 C 0.70128 0.38294 0.02373 0.0
C439 C 0.68393 0.39636 0.04701 0.0
C440 C 0.70383 0.34541 0.02042 0.0
C441 C 0.73601 0.39169 0.97927 0.0
C442 C 0.67887 0.32726 0.00539 0.0
C443 C 0.68167 0.29169 0.00224 0.0
C444 C 0.70943 0.27396 0.01414 0.0
C445 C 0.73455 0.29232 0.02889 0.0
C446 C 0.73176 0.32782 0.03202 0.0
H447 H 0.74574 0.41259 0.96559 0.0
H448 H 0.75802 0.37566 0.98609 0.0
H449 H 0.71861 0.37506 0.96687 0.0
H450 H 0.65723 0.34059 0.99624 0.0
H451 H 0.66181 0.27795 0.99106 0.0
H452 H 0.43386 0.71203 0.50047 0.0
H453 H 0.4942 0.69589 0.49794 0.0
H454 H 0.50884 0.72909 0.58313 0.0
H455 H 0.44838 0.74571 0.58592 0.0
H456 H 0.54221 0.75718 0.51212 0.0
H457 H 0.56776 0.63459 0.56839 0.0
H458 H 0.52731 0.64296 0.55119 0.0
H459 H 0.53758 0.66472 0.58313 0.0
C460 C 0.44954 0.71487 0.51904 0.0
C461 C 0.4364 0.73071 0.54327 0.0
C462 C 0.48403 0.70559 0.51752 0.0
C463 C 0.50585 0.71151 0.54028 0.0
C464 C 0.49222 0.72415 0.56542 0.0
H465 H 0.72189 0.75968 0.54293 0.0
H466 H 0.65944 0.75813 0.54884 0.0
C467 C 0.45763 0.73357 0.56698 0.0
C468 C 0.54333 0.71038 0.53602 0.0
H469 H 0.61579 0.66482 0.55082 0.0
C470 C 0.55835 0.73696 0.5205 0.0
C471 C 0.56403 0.68391 0.54693 0.0
C472 C 0.54858 0.65472 0.5633 0.0
C473 C 0.59378 0.73798 0.5158 0.0
C474 C 0.61471 0.71184 0.52711 0.0
C475 C 0.59962 0.68489 0.54229 0.0
C476 C 0.65239 0.71251 0.52368 0.0
C477 C 0.60856 0.76692 0.49862 0.0
C478 C 0.669 0.68724 0.50774 0.0
C479 C 0.7046 0.68814 0.50434 0.0
C480 C 0.72402 0.71415 0.51705 0.0
C481 C 0.70735 0.73943 0.53293 0.0
C482 C 0.6718 0.73858 0.53627 0.0
H483 H 0.58853 0.78031 0.48621 0.0
H484 H 0.62058 0.78596 0.51283 0.0
H485 H 0.62865 0.7573 0.48413 0.0
H486 H 0.6544 0.66691 0.4979 0.0
H487 H 0.71704 0.66818 0.49226 0.0
H488 H 0.25845 0.44613 0.08546 0.0
H489 H 0.27651 0.50622 0.08497 0.0
H490 H 0.29939 0.49857 0.9969 0.0
H491 H 0.28207 0.43851 0.9972 0.0
H492 H 0.34367 0.54396 0.02682 0.0
H493 H 0.20511 0.56874 0.04607 0.0
H494 H 0.22645 0.54315 0.07205 0.0
H495 H 0.2213 0.5268 0.03714 0.0
C496 C 0.26845 0.45684 0.0662 0.0
C497 C 0.26804 0.43773 0.04121 0.0
C498 C 0.27855 0.49127 0.06593 0.0
C499 C 0.28832 0.50698 0.04073 0.0
C500 C 0.2916 0.48697 0.01651 0.0
H501 H 0.25259 0.71398 0.98484 0.0
H502 H 0.25585 0.6515 0.99092 0.0
C503 C 0.2816 0.4526 0.01674 0.0
C504 C 0.29038 0.54479 0.03845 0.0
H505 H 0.24061 0.61681 0.04022 0.0
C506 C 0.32129 0.56001 0.02998 0.0
C507 C 0.26083 0.56546 0.04197 0.0
C508 C 0.22643 0.55032 0.04958 0.0
C509 C 0.32343 0.59547 0.02497 0.0
C510 C 0.29396 0.61612 0.0288 0.0
C511 C 0.26315 0.60088 0.03737 0.0
C512 C 0.29412 0.65358 0.02371 0.0
C513 C 0.35688 0.61041 0.01484 0.0
C514 C 0.31459 0.67531 0.04006 0.0
C515 C 0.31279 0.71083 0.03652 0.0
C516 C 0.29032 0.72516 0.01674 0.0
C517 C 0.27021 0.70343 1.0001 0.0
C518 C 0.27201 0.66787 0.00362 0.0
H519 H 0.37431 0.5903 0.00651 0.0
H520 H 0.3524 0.62984 0.99824 0.0
H521 H 0.37 0.62326 0.03257 0.0
H522 H 0.33135 0.66487 0.056 0.0
H523 H 0.32873 0.72715 0.04945 0.0
H524 H 0.27374 0.23983 0.54142 0.0
H525 H 0.33598 0.24161 0.54795 0.0
H526 H 0.34287 0.3257 0.4895 0.0
H527 H 0.28034 0.32452 0.48349 0.0
H528 H 0.38757 0.23363 0.50866 0.0
H529 H 0.39395 0.36229 0.55862 0.0
H530 H 0.35428 0.33892 0.55469 0.0
H531 H 0.37264 0.36099 0.52529 0.0
C532 C 0.28862 0.25864 0.52997 0.0
C533 C 0.27241 0.28209 0.51204 0.0
C534 C 0.32407 0.25967 0.53371 0.0
C535 C 0.34393 0.28421 0.51962 0.0
C536 C 0.32791 0.30704 0.50102 0.0
H537 H 0.56363 0.28391 0.50124 0.0
H538 H 0.50331 0.30012 0.49754 0.0
C539 C 0.29234 0.30603 0.49729 0.0
C540 C 0.38149 0.28515 0.52411 0.0
H541 H 0.44701 0.33468 0.54923 0.0
C542 C 0.40053 0.25572 0.51751 0.0
C543 C 0.39827 0.314 0.53582 0.0
C544 C 0.37878 0.34578 0.54427 0.0
C545 C 0.43595 0.25439 0.52219 0.0
C546 C 0.45272 0.28321 0.53375 0.0
C547 C 0.43388 0.31273 0.54032 0.0
C548 C 0.48998 0.28234 0.53897 0.0
C549 C 0.4554 0.22211 0.51488 0.0
C550 C 0.5026 0.26872 0.5641 0.0
C551 C 0.53712 0.25942 0.56636 0.0
C552 C 0.55931 0.26333 0.54334 0.0
C553 C 0.54717 0.28027 0.51926 0.0
C554 C 0.51272 0.28962 0.51708 0.0
H555 H 0.43843 0.20175 0.50636 0.0
H556 H 0.47544 0.22804 0.4991 0.0
H557 H 0.46853 0.21203 0.53379 0.0
H558 H 0.48524 0.26288 0.58116 0.0
H559 H 0.54558 0.24645 0.58518 0.0
H560 H 0.10281 0.4077 0.07476 0.0
H561 H 0.05288 0.44531 0.07326 0.0
H562 H 0.05797 0.44734 0.98309 0.0
H563 H 0.10844 0.41026 0.98433 0.0
H564 H 0.05359 0.51169 0.00624 0.0
H565 H 0.95413 0.4267 0.05157 0.0
H566 H 0.99167 0.43007 0.07308 0.0
H567 H 0.99473 0.41066 0.039 0.0
C568 C 0.09305 0.41565 0.05455 0.0
C569 C 0.10971 0.40592 0.02964 0.0
C570 C 0.06437 0.43705 0.05374 0.0
C571 C 0.05151 0.44879 0.02805 0.0
C572 C 0.06746 0.43844 0.00313 0.0
H573 H 0.88596 0.58927 0.98603 0.0
H574 H 0.93587 0.5514 0.98397 0.0
C575 C 0.09624 0.41713 0.00389 0.0
C576 C 0.02289 0.47371 0.02735 0.0
H577 H 0.94043 0.4863 0.04883 0.0
C578 C 0.02872 0.50606 0.0153 0.0
C579 C 0.99054 0.46626 0.03923 0.0
C580 C 0.98222 0.43142 0.05121 0.0
C581 C 0.00329 0.53152 0.01549 0.0
C582 C 0.97121 0.52424 0.02784 0.0
C583 C 0.96522 0.4918 0.03958 0.0
C584 C 0.94331 0.54984 0.02882 0.0
C585 C 0.01113 0.56626 0.00314 0.0
C586 C 0.93124 0.56166 0.05472 0.0
C587 C 0.90276 0.58328 0.05602 0.0
C588 C 0.8856 0.59317 0.0314 0.0
C589 C 0.89855 0.58219 0.00539 0.0
C590 C 0.92713 0.56063 0.00414 0.0
H591 H 0.03907 0.57003 0.9998 0.0
H592 H 0.99809 0.56868 0.9826 0.0
H593 H 0.00143 0.58703 0.01695 0.0
H594 H 0.94344 0.55353 0.07399 0.0
H595 H 0.89353 0.59124 0.0764 0.0
H596 H 0.40469 0.88574 0.48118 0.0
H597 H 0.44418 0.93436 0.47762 0.0
H598 H 0.44406 0.94468 0.56745 0.0
H599 H 0.40467 0.89628 0.57138 0.0
H600 H 0.43934 0.0059 0.50221 0.0
H601 H 0.54688 0.92601 0.54213 0.0
H602 H 0.5083 0.90768 0.52751 0.0
H603 H 0.50801 0.92487 0.56237 0.0
C604 C 0.41262 0.89866 0.50018 0.0
C605 C 0.4018 0.88685 0.5266 0.0
C606 C 0.43519 0.92638 0.49807 0.0
C607 C 0.44735 0.94254 0.5223 0.0
C608 C 0.43522 0.9321 0.54856 0.0
H609 H 0.59096 0.09595 0.57102 0.0
H610 H 0.55238 0.04708 0.56653 0.0
C611 C 0.41259 0.90453 0.55072 0.0
C612 C 0.47401 0.96927 0.52041 0.0
H613 H 0.55736 0.98559 0.5374 0.0
C614 C 0.46526 0.00152 0.50962 0.0
C615 C 0.5077 0.96317 0.53007 0.0
C616 C 0.51854 0.9285 0.54099 0.0
C617 C 0.48912 0.02846 0.50929 0.0
C618 C 0.52271 0.02255 0.51945 0.0
C619 C 0.53161 0.98998 0.5296 0.0
C620 C 0.54832 0.05041 0.52144 0.0
C621 C 0.47778 0.06334 0.49916 0.0
C622 C 0.55976 0.06769 0.49744 0.0
C623 C 0.58181 0.09578 0.49991 0.0
C624 C 0.59292 0.10689 0.52644 0.0
C625 C 0.5828 0.08827 0.55028 0.0
C626 C 0.56071 0.06031 0.54777 0.0
H627 H 0.44941 0.0654 0.49792 0.0
H628 H 0.48747 0.08387 0.5132 0.0
H629 H 0.48834 0.06792 0.47792 0.0
H630 H 0.5511 0.05989 0.47687 0.0
H631 H 0.5893 0.10936 0.4811 0.0
H632 H 0.38692 0.90743 0.06381 0.0
H633 H 0.43681 0.94517 0.06728 0.0
H634 H 0.44692 0.94467 0.97739 0.0
H635 H 0.39756 0.90655 0.97364 0.0
H636 H 0.50924 0.93891 0.00529 0.0
H637 H 0.43158 0.04714 0.04705 0.0
H638 H 0.42915 0.00806 0.06687 0.0
H639 H 0.41239 0.00937 0.03185 0.0
C640 C 0.39997 0.91501 0.04478 0.0
C641 C 0.388 0.90424 0.01841 0.0
C642 C 0.42832 0.93679 0.04682 0.0
C643 C 0.44498 0.94832 0.02255 0.0
C644 C 0.43419 0.93626 0.99635 0.0
H645 H 0.60189 0.0905 0.97354 0.0
H646 H 0.5534 0.05113 0.97662 0.0
C647 C 0.40597 0.91443 0.99427 0.0
C648 C 0.47311 0.97367 0.0242 0.0
H649 H 0.49116 0.05647 0.04244 0.0
C650 C 0.50534 0.96458 0.01348 0.0
C651 C 0.46783 0.00715 0.03488 0.0
C652 C 0.43333 0.01874 0.04561 0.0
C653 C 0.53247 0.98813 0.01306 0.0
C654 C 0.52702 0.02171 0.02332 0.0
C655 C 0.49507 0.03066 0.03457 0.0
C656 C 0.55414 0.04805 0.02181 0.0
C657 C 0.5668 0.97695 1.0017 0.0
C658 C 0.56954 0.06041 0.04632 0.0
C659 C 0.59727 0.08303 0.0447 0.0
C660 C 0.60986 0.09374 0.0185 0.0
C661 C 0.59303 0.08268 0.99406 0.0
C662 C 0.56543 0.06002 0.99573 0.0
H663 H 0.56899 0.94857 1.00058 0.0
H664 H 0.57008 0.98736 0.98024 0.0
H665 H 0.588 0.98702 0.01486 0.0
H666 H 0.56089 0.05161 0.06664 0.0
H667 H 0.60952 0.09115 0.06393 0.0
H668 H 0.91087 0.60939 0.55925 0.0
H669 H 0.95014 0.56047 0.55902 0.0
H670 H 0.94306 0.55495 0.46907 0.0
H671 H 0.90406 0.60397 0.46894 0.0
H672 H 0.94348 0.49272 0.53697 0.0
H673 H 0.04669 0.56686 0.48437 0.0
H674 H 0.00977 0.5871 0.50011 0.0
H675 H 0.00622 0.56688 0.46643 0.0
C676 C 0.91732 0.59757 0.53942 0.0
C677 C 0.90461 0.6109 0.51408 0.0
C678 C 0.93981 0.56965 0.53935 0.0
C679 C 0.95004 0.55469 0.51399 0.0
C680 C 0.93603 0.5667 0.48881 0.0
H681 H 0.08753 0.39127 0.4664 0.0
H682 H 0.04917 0.4408 0.46794 0.0
C683 C 0.91355 0.59459 0.48882 0.0
C684 C 0.97603 0.52707 0.51381 0.0
H685 H 0.05655 0.50737 0.4908 0.0
C686 C 0.96828 0.4959 0.52701 0.0
C687 C 0.00833 0.53147 0.50081 0.0
C688 C 0.0185 0.56496 0.48732 0.0
C689 C 0.99174 0.46862 0.52701 0.0
C690 C 0.02401 0.47298 0.51393 0.0
C691 C 0.03181 0.5042 0.50083 0.0
C692 C 0.04966 0.44504 0.51309 0.0
C693 C 0.98148 0.43507 0.54037 0.0
C694 C 0.06366 0.43195 0.53792 0.0
C695 C 0.08562 0.40365 0.53715 0.0
C696 C 0.09405 0.38803 0.5115 0.0
C697 C 0.08147 0.40251 0.48654 0.0
C698 C 0.05948 0.43079 0.48735 0.0
H699 H 0.95331 0.43334 0.54353 0.0
H700 H 0.98988 0.413 0.52737 0.0
H701 H 0.99398 0.43285 0.56115 0.0
H702 H 0.05701 0.44316 0.55794 0.0
H703 H 0.09515 0.39349 0.55674 0.0
H704 H 0.11377 0.3374 0.15593 0.0
H705 H 0.11427 0.33281 0.20696 0.0
H706 H 0.22474 0.33655 0.20671 0.0
H707 H 0.22456 0.34061 0.15558 0.0
H708 H 0.1989 0.28701 0.24267 0.0
H709 H 0.1349 0.41229 0.26004 0.0
H710 H 0.11128 0.3839 0.23761 0.0
H711 H 0.15235 0.39988 0.22654 0.0
C712 C 0.13821 0.33716 0.16668 0.0
C713 C 0.16912 0.33966 0.15165 0.0
C714 C 0.13842 0.33473 0.19589 0.0
C715 C 0.16951 0.33502 0.21068 0.0
C716 C 0.20045 0.33653 0.19572 0.0
H717 H 0.18714 0.37549 0.38935 0.0
H718 H 0.19202 0.37698 0.33831 0.0
C719 C 0.20028 0.33889 0.16649 0.0
C720 C 0.16974 0.33389 0.24174 0.0
H721 H 0.14126 0.37628 0.29983 0.0
C722 C 0.18642 0.30657 0.2552 0.0
C723 C 0.15395 0.35976 0.25806 0.0
C724 C 0.13739 0.39081 0.24488 0.0
C725 C 0.18709 0.30402 0.28455 0.0
C726 C 0.17008 0.32916 0.30084 0.0
C727 C 0.15402 0.35684 0.28735 0.0
C728 C 0.1685 0.32733 0.33188 0.0
C729 C 0.20647 0.27472 0.2978 0.0
C730 C 0.15354 0.29898 0.34528 0.0
C731 C 0.1509 0.29796 0.37447 0.0
C732 C 0.16277 0.32549 0.39085 0.0
C733 C 0.17773 0.35386 0.37738 0.0
C734 C 0.18053 0.35477 0.3482 0.0
H735 H 0.22602 0.26397 0.28332 0.0
H736 H 0.21944 0.28298 0.31736 0.0
H737 H 0.18822 0.25387 0.30308 0.0
H738 H 0.14331 0.27788 0.33313 0.0
H739 H 0.13903 0.27582 0.38414 0.0
H740 H 0.64435 0.08799 0.88378 0.0
H741 H 0.63793 0.09778 0.8335 0.0
H742 H 0.69587 0.19154 0.84041 0.0
H743 H 0.70245 0.18204 0.89086 0.0
H744 H 0.6081 0.15886 0.80689 0.0
H745 H 0.74384 0.13487 0.77661 0.0
H746 H 0.72605 0.11983 0.80931 0.0
H747 H 0.73649 0.16433 0.80499 0.0
C748 C 0.65583 0.11068 0.87466 0.0
C749 C 0.67402 0.13417 0.89135 0.0
C750 C 0.65208 0.11623 0.84592 0.0
C751 C 0.66672 0.14517 0.83324 0.0
C752 C 0.68477 0.1688 0.84977 0.0
H753 H 0.67347 0.2068 0.65728 0.0
H754 H 0.68195 0.20306 0.70801 0.0
C755 C 0.68837 0.16339 0.8786 0.0
C756 C 0.66243 0.15078 0.80276 0.0
H757 H 0.70577 0.151 0.74063 0.0
C758 C 0.62943 0.15721 0.79237 0.0
C759 C 0.69037 0.14886 0.78397 0.0
C760 C 0.72622 0.14139 0.7941 0.0
C761 C 0.62356 0.16181 0.76361 0.0
C762 C 0.65135 0.15893 0.74466 0.0
C763 C 0.68448 0.15308 0.75515 0.0
C764 C 0.64639 0.16106 0.71387 0.0
C765 C 0.58771 0.17021 0.75391 0.0
C766 C 0.62411 0.13828 0.70021 0.0
C767 C 0.61901 0.14052 0.67131 0.0
C768 C 0.63648 0.16529 0.65536 0.0
C769 C 0.65949 0.18752 0.66896 0.0
C770 C 0.6644 0.18541 0.69795 0.0
H771 H 0.57225 0.18191 0.77096 0.0
H772 H 0.58808 0.18811 0.73583 0.0
H773 H 0.57468 0.14623 0.74735 0.0
H774 H 0.61068 0.11864 0.7119 0.0
H775 H 0.6014 0.12273 0.66149 0.0
H776 H 0.82217 0.6175 0.39061 0.0
H777 H 0.81892 0.61678 0.33949 0.0
H778 H 0.84532 0.72414 0.33711 0.0
H779 H 0.84805 0.72529 0.38826 0.0
H780 H 0.79264 0.70793 0.30088 0.0
H781 H 0.90171 0.61811 0.28739 0.0
H782 H 0.8684 0.60184 0.30966 0.0
H783 H 0.89249 0.63895 0.32027 0.0
C784 C 0.8272 0.641 0.37925 0.0
C785 C 0.83564 0.67139 0.39355 0.0
C786 C 0.82553 0.64048 0.35 0.0
C787 C 0.83253 0.67024 0.33446 0.0
C788 C 0.84004 0.70083 0.34868 0.0
H789 H 0.8812 0.67343 0.15674 0.0
H790 H 0.8819 0.67921 0.20771 0.0
C791 C 0.84163 0.70141 0.37793 0.0
C792 C 0.83215 0.66947 0.30337 0.0
H793 H 0.86904 0.63076 0.24674 0.0
C794 C 0.8094 0.69114 0.28901 0.0
C795 C 0.85445 0.64798 0.28791 0.0
C796 C 0.88089 0.62564 0.30204 0.0
C797 C 0.80789 0.69143 0.25961 0.0
C798 C 0.82926 0.66896 0.24418 0.0
C799 C 0.85243 0.64775 0.25856 0.0
C800 C 0.82819 0.66701 0.21312 0.0
C801 C 0.78385 0.71625 0.24538 0.0
C802 C 0.79778 0.65815 0.19916 0.0
C803 C 0.79724 0.65505 0.16999 0.0
C804 C 0.82723 0.6603 0.1542 0.0
C805 C 0.85764 0.66919 0.16824 0.0
C806 C 0.8581 0.67248 0.19739 0.0
H807 H 0.77705 0.73803 0.25933 0.0
H808 H 0.79533 0.72665 0.22588 0.0
H809 H 0.75979 0.7027 0.23982 0.0
H810 H 0.77457 0.65299 0.21087 0.0
H811 H 0.77343 0.64793 0.15988 0.0
H812 H 0.29202 0.81555 0.89045 0.0
H813 H 0.29765 0.80498 0.84001 0.0
H814 H 0.36546 0.89181 0.83279 0.0
H815 H 0.35994 0.9027 0.88297 0.0
H816 H 0.2832 0.85505 0.79425 0.0
H817 H 0.41786 0.80859 0.79649 0.0
H818 H 0.39069 0.80866 0.82713 0.0
H819 H 0.40981 0.84788 0.81511 0.0
C820 C 0.3082 0.83234 0.87814 0.0
C821 C 0.32559 0.85995 0.89076 0.0
C822 C 0.31133 0.82629 0.84935 0.0
C823 C 0.33222 0.84743 0.83278 0.0
C824 C 0.34954 0.87496 0.84529 0.0
H825 H 0.3978 0.86388 0.66147 0.0
H826 H 0.38782 0.86876 0.71176 0.0
C827 C 0.34624 0.8812 0.87397 0.0
C828 C 0.33566 0.84121 0.8023 0.0
H829 H 0.39397 0.82013 0.75188 0.0
C830 C 0.30728 0.84712 0.78492 0.0
C831 C 0.36715 0.83098 0.7903 0.0
C832 C 0.39812 0.82336 0.80816 0.0
C833 C 0.3099 0.84421 0.75565 0.0
C834 C 0.34157 0.83433 0.74357 0.0
C835 C 0.36973 0.82778 0.7611 0.0
C836 C 0.34654 0.8317 0.71278 0.0
C837 C 0.27911 0.85303 0.73793 0.0
C838 C 0.32674 0.80912 0.69654 0.0
C839 C 0.33222 0.80646 0.66763 0.0
C840 C 0.35794 0.82599 0.6545 0.0
C841 C 0.3778 0.84843 0.67087 0.0
C842 C 0.37215 0.85123 0.69967 0.0
H843 H 0.26014 0.86866 0.74971 0.0
H844 H 0.28682 0.86738 0.71886 0.0
H845 H 0.26625 0.829 0.73127 0.0
H846 H 0.30736 0.7932 0.70625 0.0
H847 H 0.31661 0.78877 0.65567 0.0
H848 H 0.84754 0.62799 0.89492 0.0
H849 H 0.86512 0.63629 0.84615 0.0
H850 H 0.7654 0.67745 0.8267 0.0
H851 H 0.74791 0.67036 0.87547 0.0
H852 H 0.79804 0.61745 0.79049 0.0
H853 H 0.87408 0.73727 0.80507 0.0
H854 H 0.87811 0.70261 0.82991 0.0
H855 H 0.839 0.72659 0.82818 0.0
C856 C 0.82964 0.6397 0.88053 0.0
C857 C 0.79656 0.64932 0.8893 0.0
C858 C 0.83961 0.64397 0.85259 0.0
C859 C 0.81655 0.65759 0.83302 0.0
C860 C 0.78352 0.66692 0.84159 0.0
H861 H 0.81673 0.74449 0.67054 0.0
H862 H 0.81117 0.72839 0.71972 0.0
C863 C 0.77361 0.66285 0.86945 0.0
C864 C 0.82642 0.66202 0.80341 0.0
H865 H 0.86608 0.71777 0.75894 0.0
C866 C 0.81333 0.63905 0.78351 0.0
C867 C 0.84614 0.69038 0.7946 0.0
C868 C 0.86023 0.71583 0.81541 0.0
C869 C 0.81875 0.64426 0.75476 0.0
C870 C 0.83781 0.67312 0.74587 0.0
C871 C 0.8516 0.6956 0.76589 0.0
C872 C 0.84133 0.68206 0.71591 0.0
C873 C 0.80284 0.61978 0.73404 0.0
C874 C 0.86028 0.66136 0.6975 0.0
C875 C 0.86354 0.67054 0.66928 0.0
C876 C 0.84777 0.70048 0.65908 0.0
C877 C 0.82905 0.72118 0.67772 0.0
C878 C 0.82585 0.71205 0.70582 0.0
H879 H 0.78446 0.60189 0.74417 0.0
H880 H 0.78925 0.63414 0.71731 0.0
H881 H 0.82334 0.60435 0.72398 0.0
H882 H 0.87297 0.63845 0.70506 0.0
H883 H 0.87917 0.6547 0.65576 0.0
H884 H 0.32249 0.74319 0.37507 0.0
H885 H 0.31569 0.75898 0.3259 0.0
H886 H 0.35914 0.85848 0.34286 0.0
H887 H 0.36694 0.84261 0.39199 0.0
H888 H 0.29581 0.85817 0.31034 0.0
H889 H 0.39507 0.7702 0.26804 0.0
H890 H 0.3648 0.75028 0.29129 0.0
H891 H 0.3934 0.78259 0.30446 0.0
C892 C 0.33064 0.76845 0.36838 0.0
C893 C 0.34464 0.79186 0.38764 0.0
C894 C 0.32683 0.77737 0.34026 0.0
C895 C 0.33717 0.80977 0.33077 0.0
C896 C 0.35093 0.83336 0.34987 0.0
H897 H 0.34402 0.86801 0.15353 0.0
H898 H 0.35952 0.85908 0.20262 0.0
C899 C 0.35493 0.82439 0.37805 0.0
C900 C 0.33297 0.819 0.30093 0.0
H901 H 0.35672 0.79522 0.23491 0.0
C902 C 0.30936 0.84469 0.29384 0.0
C903 C 0.35101 0.8016 0.27952 0.0
C904 C 0.37774 0.77482 0.28611 0.0
C905 C 0.30224 0.85247 0.26575 0.0
C906 C 0.31902 0.83387 0.24433 0.0
C907 C 0.3437 0.8092 0.25143 0.0
C908 C 0.31009 0.8386 0.21448 0.0
C909 C 0.27658 0.88029 0.25916 0.0
C910 C 0.27741 0.82946 0.20488 0.0
C911 C 0.26868 0.83394 0.1768 0.0
C912 C 0.29256 0.84741 0.15767 0.0
C913 C 0.32539 0.85646 0.16736 0.0
C914 C 0.33417 0.8518 0.19551 0.0
H915 H 0.27248 0.89765 0.2773 0.0
H916 H 0.28509 0.89578 0.24093 0.0
H917 H 0.25162 0.86833 0.25379 0.0
H918 H 0.25864 0.81879 0.21915 0.0
H919 H 0.24318 0.82672 0.17003 0.0
H920 H 0.17714 0.34054 0.64925 0.0
H921 H 0.18251 0.35469 0.69908 0.0
H922 H 0.12269 0.26539 0.72036 0.0
H923 H 0.11712 0.25123 0.67063 0.0
H924 H 0.13173 0.36594 0.74168 0.0
H925 H 0.21327 0.25203 0.76322 0.0
H926 H 0.20472 0.26712 0.7282 0.0
H927 H 0.17299 0.2426 0.74673 0.0
C928 C 0.16443 0.32444 0.66453 0.0
C929 C 0.14624 0.2951 0.65613 0.0
C930 C 0.16775 0.33238 0.69296 0.0
C931 C 0.15328 0.31088 0.71335 0.0
C932 C 0.13445 0.28203 0.70494 0.0
H933 H 0.16804 0.30447 0.89492 0.0
H934 H 0.15077 0.2952 0.84616 0.0
C935 C 0.1312 0.27405 0.67658 0.0
C936 C 0.15889 0.3179 0.74344 0.0
H937 H 0.19613 0.28506 0.80227 0.0
C938 C 0.14582 0.34832 0.75497 0.0
C939 C 0.1773 0.29481 0.76065 0.0
C940 C 0.19317 0.26244 0.7491 0.0
C941 C 0.15033 0.35608 0.78345 0.0
C942 C 0.16885 0.33303 0.80061 0.0
C943 C 0.18175 0.30256 0.78907 0.0
C944 C 0.17638 0.3405 0.83037 0.0
C945 C 0.13486 0.38861 0.79499 0.0
C946 C 0.19653 0.36895 0.8376 0.0
C947 C 0.20606 0.37444 0.86541 0.0
C948 C 0.19549 0.35165 0.88648 0.0
C949 C 0.17534 0.32317 0.87926 0.0
C950 C 0.16582 0.31766 0.8514 0.0
H951 H 0.11384 0.39835 0.78145 0.0
H952 H 0.12466 0.38452 0.81644 0.0
H953 H 0.15496 0.40871 0.79608 0.0
H954 H 0.20574 0.38637 0.82161 0.0
H955 H 0.22212 0.39626 0.87043 0.0
H956 H 0.66532 0.11612 0.1575 0.0
H957 H 0.64947 0.12397 0.20687 0.0
H958 H 0.72881 0.20013 0.21584 0.0
H959 H 0.74465 0.19259 0.16664 0.0
H960 H 0.70019 0.11872 0.25621 0.0
H961 H 0.63443 0.24446 0.24417 0.0
H962 H 0.63907 0.2144 0.21559 0.0
H963 H 0.67496 0.23986 0.22654 0.0
C964 C 0.67895 0.13494 0.16989 0.0
C965 C 0.70579 0.15424 0.15816 0.0
C966 C 0.67009 0.13914 0.19808 0.0
C967 C 0.68778 0.16286 0.21476 0.0
C968 C 0.71468 0.18196 0.20314 0.0
H969 H 0.68804 0.24679 0.3797 0.0
H970 H 0.69589 0.23157 0.33049 0.0
C971 C 0.72373 0.17755 0.17511 0.0
C972 C 0.67879 0.16753 0.24455 0.0
H973 H 0.64682 0.2264 0.29042 0.0
C974 C 0.68815 0.14202 0.26379 0.0
C975 C 0.66322 0.19802 0.25415 0.0
C976 C 0.65205 0.22575 0.2341 0.0
C977 C 0.68362 0.14689 0.2927 0.0
C978 C 0.66866 0.17779 0.30239 0.0
C979 C 0.65839 0.2028 0.28296 0.0
C980 C 0.66488 0.18561 0.33261 0.0
C981 C 0.69625 0.11963 0.31261 0.0
C982 C 0.64482 0.16482 0.35016 0.0
C983 C 0.64055 0.17334 0.37841 0.0
C984 C 0.65606 0.20294 0.38944 0.0
C985 C 0.67593 0.22375 0.37178 0.0
C986 C 0.68041 0.21509 0.34368 0.0
H987 H 0.71441 0.10166 0.3023 0.0
H988 H 0.70917 0.13132 0.33099 0.0
H989 H 0.67408 0.10448 0.32029 0.0
H990 H 0.63182 0.14248 0.34189 0.0
H991 H 0.62418 0.15744 0.3913 0.0
loop_
_geom_bond_atom_site_label_1
_geom_bond_atom_site_label_2
_geom_bond_distance
_geom_bond_site_symmetry_2
_ccdc_geom_bond_type
Co0 O3 1.970 . S
Co0 N17 1.989 . S
Co0 O25 1.967 . S
Co0 O32 1.920 . S
Co1 O4 1.966 1_556 S
Co1 N10 2.022 . S
Co1 N18 1.993 1_556 S
Co1 O26 1.941 1_556 S
C2 O3 1.258 . S
C2 O4 1.263 . S
O3 Co0 1.970 . S
O3 C2 1.258 . S
O4 Co1 1.966 1_554 S
O4 C2 1.263 . S
C5 O6 1.235 . S
C5 O32 1.289 . S
O6 C5 1.235 . S
C7 C9 1.400 . S
C7 N10 1.351 . S
C7 C12 1.501 . S
C8 C9 1.387 . S
C8 N11 1.341 . S
C9 C7 1.400 . S
C9 C8 1.387 . S
N10 Co1 2.022 . S
N10 C7 1.351 . S
N10 N11 1.365 . S
N11 C8 1.341 . S
N11 N10 1.365 . S
N11 H31 0.862 . S
C12 C7 1.501 . S
C12 H13 0.961 . S
C12 H14 0.961 . S
C12 H15 0.960 . S
H13 C12 0.961 . S
H14 C12 0.961 . S
H15 C12 0.960 . S
C16 N17 1.342 . S
C16 C20 1.401 . S
C16 C21 1.499 . S
N17 Co0 1.989 . S
N17 C16 1.342 . S
N17 N18 1.388 . S
N18 Co1 1.993 1_554 S
N18 N17 1.388 . S
N18 C19 1.346 . S
C19 N18 1.346 . S
C19 C20 1.396 . S
C19 C29 1.510 1_554 S
C20 C16 1.401 . S
C20 C19 1.396 . S
C21 C16 1.499 . S
C21 H22 0.959 . S
C21 H23 0.960 . S
C21 H24 0.961 . S
H22 C21 0.959 . S
H23 C21 0.960 . S
H24 C21 0.961 . S
O25 Co0 1.967 . S
O25 C33 1.258 . S
O26 Co1 1.941 1_554 S
O26 C33 1.266 . S
H27 C29 0.959 . S
H28 C29 0.961 . S
C29 C19 1.510 1_556 S
C29 H27 0.959 . S
C29 H28 0.961 . S
C29 H30 0.960 . S
H30 C29 0.960 . S
H31 N11 0.862 . S
O32 Co0 1.920 . S
O32 C5 1.289 . S
C33 O25 1.258 . S
C33 O26 1.266 . S
Co34 O37 1.970 . S
Co34 N51 1.989 . S
Co34 O59 1.967 . S
Co34 O66 1.920 . S
Co35 O38 1.966 . S
Co35 N44 2.022 . S
Co35 N52 1.993 . S
Co35 O60 1.941 . S
C36 O37 1.258 . S
C36 O38 1.263 . S
O37 Co34 1.970 . S
O37 C36 1.258 . S
O38 Co35 1.966 . S
O38 C36 1.263 . S
C39 O40 1.235 . S
C39 O66 1.289 . S
O40 C39 1.235 . S
C41 C43 1.400 . S
C41 N44 1.351 . S
C41 C46 1.501 . S
C42 C43 1.387 . S
C42 N45 1.341 . S
C43 C41 1.400 . S
C43 C42 1.387 . S
N44 Co35 2.022 . S
N44 C41 1.351 . S
N44 N45 1.365 . S
N45 C42 1.341 . S
N45 N44 1.365 . S
N45 H65 0.862 . S
C46 C41 1.501 . S
C46 H47 0.961 . S
C46 H48 0.961 . S
C46 H49 0.960 . S
H47 C46 0.961 . S
H48 C46 0.961 . S
H49 C46 0.960 . S
C50 N51 1.342 . S
C50 C54 1.401 . S
C50 C55 1.499 . S
N51 Co34 1.989 . S
N51 C50 1.342 . S
N51 N52 1.388 . S
N52 Co35 1.993 . S
N52 N51 1.388 . S
N52 C53 1.346 . S
C53 N52 1.346 . S
C53 C54 1.396 . S
C53 C63 1.510 . S
C54 C50 1.401 . S
C54 C53 1.396 . S
C55 C50 1.499 . S
C55 H56 0.959 . S
C55 H57 0.960 . S
C55 H58 0.961 . S
H56 C55 0.959 . S
H57 C55 0.960 . S
H58 C55 0.961 . S
O59 Co34 1.967 . S
O59 C67 1.258 . S
O60 Co35 1.941 . S
O60 C67 1.266 . S
H61 C63 0.959 . S
H62 C63 0.961 . S
C63 C53 1.510 . S
C63 H61 0.959 . S
C63 H62 0.961 . S
C63 H64 0.960 . S
H64 C63 0.960 . S
H65 N45 0.862 . S
O66 Co34 1.920 . S
O66 C39 1.289 . S
C67 O59 1.258 . S
C67 O60 1.266 . S
Co68 O71 1.970 . S
Co68 N85 1.989 . S
Co68 O93 1.967 . S
Co68 O100 1.920 . S
Co69 O72 1.966 1_556 S
Co69 N78 2.022 . S
Co69 N86 1.993 1_556 S
Co69 O94 1.941 1_556 S
C70 O71 1.258 . S
C70 O72 1.263 . S
O71 Co68 1.970 . S
O71 C70 1.258 . S
O72 Co69 1.966 1_554 S
O72 C70 1.263 . S
C73 O74 1.235 . S
C73 O100 1.289 . S
O74 C73 1.235 . S
C75 C77 1.400 . S
C75 N78 1.351 . S
C75 C80 1.501 . S
C76 C77 1.387 . S
C76 N79 1.341 . S
C77 C75 1.400 . S
C77 C76 1.387 . S
N78 Co69 2.022 . S
N78 C75 1.351 . S
N78 N79 1.365 . S
N79 C76 1.341 . S
N79 N78 1.365 . S
N79 H99 0.862 . S
C80 C75 1.501 . S
C80 H81 0.961 . S
C80 H82 0.961 . S
C80 H83 0.960 . S
H81 C80 0.961 . S
H82 C80 0.961 . S
H83 C80 0.960 . S
C84 N85 1.342 . S
C84 C88 1.401 . S
C84 C89 1.499 . S
N85 Co68 1.989 . S
N85 C84 1.342 . S
N85 N86 1.388 . S
N86 Co69 1.993 1_554 S
N86 N85 1.388 . S
N86 C87 1.346 . S
C87 N86 1.346 . S
C87 C88 1.396 . S
C87 C97 1.510 1_554 S
C88 C84 1.401 . S
C88 C87 1.396 . S
C89 C84 1.499 . S
C89 H90 0.959 . S
C89 H91 0.960 . S
C89 H92 0.961 . S
H90 C89 0.959 . S
H91 C89 0.960 . S
H92 C89 0.961 . S
O93 Co68 1.967 . S
O93 C101 1.258 . S
O94 Co69 1.941 1_554 S
O94 C101 1.266 . S
H95 C97 0.959 . S
H96 C97 0.961 . S
C97 C87 1.510 1_556 S
C97 H95 0.959 . S
C97 H96 0.961 . S
C97 H98 0.960 . S
H98 C97 0.960 . S
H99 N79 0.862 . S
O100 Co68 1.920 . S
O100 C73 1.289 . S
C101 O93 1.258 . S
C101 O94 1.266 . S
Co102 O105 1.970 . S
Co102 N119 1.989 . S
Co102 O127 1.967 . S
Co102 O134 1.920 . S
Co103 O106 1.966 . S
Co103 N112 2.022 . S
Co103 N120 1.993 . S
Co103 O128 1.941 . S
C104 O105 1.258 . S
C104 O106 1.263 . S
O105 Co102 1.970 . S
O105 C104 1.258 . S
O106 Co103 1.966 . S
O106 C104 1.263 . S
C107 O108 1.235 . S
C107 O134 1.289 . S
O108 C107 1.235 . S
C109 C111 1.400 . S
C109 N112 1.351 . S
C109 C114 1.501 . S
C110 C111 1.387 . S
C110 N113 1.341 . S
C111 C109 1.400 . S
C111 C110 1.387 . S
N112 Co103 2.022 . S
N112 C109 1.351 . S
N112 N113 1.365 . S
N113 C110 1.341 . S
N113 N112 1.365 . S
N113 H133 0.862 . S
C114 C109 1.501 . S
C114 H115 0.961 . S
C114 H116 0.961 . S
C114 H117 0.960 . S
H115 C114 0.961 . S
H116 C114 0.961 . S
H117 C114 0.960 . S
C118 N119 1.342 . S
C118 C122 1.401 . S
C118 C123 1.499 . S
N119 Co102 1.989 . S
N119 C118 1.342 . S
N119 N120 1.388 . S
N120 Co103 1.993 . S
N120 N119 1.388 . S
N120 C121 1.346 . S
C121 N120 1.346 . S
C121 C122 1.396 . S
C121 C131 1.510 . S
C122 C118 1.401 . S
C122 C121 1.396 . S
C123 C118 1.499 . S
C123 H124 0.959 . S
C123 H125 0.960 . S
C123 H126 0.961 . S
H124 C123 0.959 . S
H125 C123 0.960 . S
H126 C123 0.961 . S
O127 Co102 1.967 . S
O127 C135 1.258 . S
O128 Co103 1.941 . S
O128 C135 1.266 . S
H129 C131 0.959 . S
H130 C131 0.961 . S
C131 C121 1.510 . S
C131 H129 0.959 . S
C131 H130 0.961 . S
C131 H132 0.960 . S
H132 C131 0.960 . S
H133 N113 0.862 . S
O134 Co102 1.920 . S
O134 C107 1.289 . S
C135 O127 1.258 . S
C135 O128 1.266 . S
Co136 O139 1.970 . S
Co136 N153 1.989 1_556 S
Co136 O161 1.967 . S
Co136 O168 1.920 . S
Co137 O140 1.966 . S
Co137 N146 2.022 . S
Co137 N154 1.993 . S
Co137 O162 1.941 . S
C138 O139 1.258 1_554 S
C138 O140 1.263 . S
O139 Co136 1.970 . S
O139 C138 1.258 1_556 S
O140 Co137 1.966 . S
O140 C138 1.263 . S
C141 O142 1.235 . S
C141 O168 1.289 . S
O142 C141 1.235 . S
C143 C145 1.400 . S
C143 N146 1.351 . S
C143 C148 1.501 . S
C144 C145 1.387 . S
C144 N147 1.341 . S
C145 C143 1.400 . S
C145 C144 1.387 . S
N146 Co137 2.022 . S
N146 C143 1.351 . S
N146 N147 1.365 . S
N147 C144 1.341 . S
N147 N146 1.365 . S
N147 H167 0.862 . S
C148 C143 1.501 . S
C148 H149 0.961 . S
C148 H150 0.961 . S
C148 H151 0.960 . S
H149 C148 0.961 . S
H150 C148 0.961 . S
H151 C148 0.960 . S
C152 N153 1.342 1_556 S
C152 C156 1.401 1_556 S
C152 C157 1.499 . S
N153 Co136 1.989 1_554 S
N153 C152 1.342 1_554 S
N153 N154 1.388 . S
N154 Co137 1.993 . S
N154 N153 1.388 . S
N154 C155 1.346 . S
C155 N154 1.346 . S
C155 C156 1.396 . S
C155 C165 1.510 . S
C156 C152 1.401 1_554 S
C156 C155 1.396 . S
C157 C152 1.499 . S
C157 H158 0.959 . S
C157 H159 0.960 . S
C157 H160 0.961 . S
H158 C157 0.959 . S
H159 C157 0.960 . S
H160 C157 0.961 . S
O161 Co136 1.967 . S
O161 C169 1.258 1_556 S
O162 Co137 1.941 . S
O162 C169 1.266 . S
H163 C165 0.959 . S
H164 C165 0.961 . S
C165 C155 1.510 . S
C165 H163 0.959 . S
C165 H164 0.961 . S
C165 H166 0.960 . S
H166 C165 0.960 . S
H167 N147 0.862 . S
O168 Co136 1.920 . S
O168 C141 1.289 . S
C169 O161 1.258 1_554 S
C169 O162 1.266 . S
Co170 O173 1.970 . S
Co170 N187 1.989 . S
Co170 O195 1.967 . S
Co170 O202 1.920 . S
Co171 O174 1.966 . S
Co171 N180 2.022 . S
Co171 N188 1.993 . S
Co171 O196 1.941 . S
C172 O173 1.258 . S
C172 O174 1.263 . S
O173 Co170 1.970 . S
O173 C172 1.258 . S
O174 Co171 1.966 . S
O174 C172 1.263 . S
C175 O176 1.235 . S
C175 O202 1.289 . S
O176 C175 1.235 . S
C177 C179 1.400 . S
C177 N180 1.351 . S
C177 C182 1.501 . S
C178 C179 1.387 . S
C178 N181 1.341 . S
C179 C177 1.400 . S
C179 C178 1.387 . S
N180 Co171 2.022 . S
N180 C177 1.351 . S
N180 N181 1.365 . S
N181 C178 1.341 . S
N181 N180 1.365 . S
N181 H201 0.862 . S
C182 C177 1.501 . S
C182 H183 0.961 . S
C182 H184 0.961 . S
C182 H185 0.960 . S
H183 C182 0.961 . S
H184 C182 0.961 . S
H185 C182 0.960 . S
C186 N187 1.342 . S
C186 C190 1.401 . S
C186 C191 1.499 . S
N187 Co170 1.989 . S
N187 C186 1.342 . S
N187 N188 1.388 . S
N188 Co171 1.993 . S
N188 N187 1.388 . S
N188 C189 1.346 . S
C189 N188 1.346 . S
C189 C190 1.396 . S
C189 C199 1.510 . S
C190 C186 1.401 . S
C190 C189 1.396 . S
C191 C186 1.499 . S
C191 H192 0.959 . S
C191 H193 0.960 . S
C191 H194 0.961 . S
H192 C191 0.959 . S
H193 C191 0.960 . S
H194 C191 0.961 . S
O195 Co170 1.967 . S
O195 C203 1.258 . S
O196 Co171 1.941 . S
O196 C203 1.266 . S
H197 C199 0.959 . S
H198 C199 0.961 . S
C199 C189 1.510 . S
C199 H197 0.959 . S
C199 H198 0.961 . S
C199 H200 0.960 . S
H200 C199 0.960 . S
H201 N181 0.862 . S
O202 Co170 1.920 . S
O202 C175 1.289 . S
C203 O195 1.258 . S
C203 O196 1.266 . S
Co204 O207 1.970 . S
Co204 N221 1.989 1_556 S
Co204 O229 1.967 . S
Co204 O236 1.920 . S
Co205 O208 1.966 . S
Co205 N214 2.022 . S
Co205 N222 1.993 . S
Co205 O230 1.941 . S
C206 O207 1.258 1_554 S
C206 O208 1.263 . S
O207 Co204 1.970 . S
O207 C206 1.258 1_556 S
O208 Co205 1.966 . S
O208 C206 1.263 . S
C209 O210 1.235 . S
C209 O236 1.289 . S
O210 C209 1.235 . S
C211 C213 1.400 . S
C211 N214 1.351 . S
C211 C216 1.501 . S
C212 C213 1.387 . S
C212 N215 1.341 . S
C213 C211 1.400 . S
C213 C212 1.387 . S
N214 Co205 2.022 . S
N214 C211 1.351 . S
N214 N215 1.365 . S
N215 C212 1.341 . S
N215 N214 1.365 . S
N215 H235 0.862 . S
C216 C211 1.501 . S
C216 H217 0.961 . S
C216 H218 0.961 . S
C216 H219 0.960 . S
H217 C216 0.961 . S
H218 C216 0.961 . S
H219 C216 0.960 . S
C220 N221 1.342 1_556 S
C220 C224 1.401 1_556 S
C220 C225 1.499 . S
N221 Co204 1.989 1_554 S
N221 C220 1.342 1_554 S
N221 N222 1.388 . S
N222 Co205 1.993 . S
N222 N221 1.388 . S
N222 C223 1.346 . S
C223 N222 1.346 . S
C223 C224 1.396 . S
C223 C233 1.510 . S
C224 C220 1.401 1_554 S
C224 C223 1.396 . S
C225 C220 1.499 . S
C225 H226 0.959 . S
C225 H227 0.960 . S
C225 H228 0.961 . S
H226 C225 0.959 . S
H227 C225 0.960 . S
H228 C225 0.961 . S
O229 Co204 1.967 . S
O229 C237 1.258 1_556 S
O230 Co205 1.941 . S
O230 C237 1.266 . S
H231 C233 0.959 . S
H232 C233 0.961 . S
C233 C223 1.510 . S
C233 H231 0.959 . S
C233 H232 0.961 . S
C233 H234 0.960 . S
H234 C233 0.960 . S
H235 N215 0.862 . S
O236 Co204 1.920 . S
O236 C209 1.289 . S
C237 O229 1.258 1_554 S
C237 O230 1.266 . S
Co238 O241 1.970 . S
Co238 N255 1.989 . S
Co238 O263 1.967 . S
Co238 O270 1.920 . S
Co239 O242 1.966 . S
Co239 N248 2.022 . S
Co239 N256 1.993 . S
Co239 O264 1.941 . S
C240 O241 1.258 . S
C240 O242 1.263 . S
O241 Co238 1.970 . S
O241 C240 1.258 . S
O242 Co239 1.966 . S
O242 C240 1.263 . S
C243 O244 1.235 . S
C243 O270 1.289 . S
O244 C243 1.235 . S
C245 C247 1.400 . S
C245 N248 1.351 . S
C245 C250 1.501 . S
C246 C247 1.387 . S
C246 N249 1.341 . S
C247 C245 1.400 . S
C247 C246 1.387 . S
N248 Co239 2.022 . S
N248 C245 1.351 . S
N248 N249 1.365 . S
N249 C246 1.341 . S
N249 N248 1.365 . S
N249 H269 0.862 . S
C250 C245 1.501 . S
C250 H251 0.961 . S
C250 H252 0.961 . S
C250 H253 0.960 . S
H251 C250 0.961 . S
H252 C250 0.961 . S
H253 C250 0.960 . S
C254 N255 1.342 . S
C254 C258 1.401 . S
C254 C259 1.499 . S
N255 Co238 1.989 . S
N255 C254 1.342 . S
N255 N256 1.388 . S
N256 Co239 1.993 . S
N256 N255 1.388 . S
N256 C257 1.346 . S
C257 N256 1.346 . S
C257 C258 1.396 . S
C257 C267 1.510 . S
C258 C254 1.401 . S
C258 C257 1.396 . S
C259 C254 1.499 . S
C259 H260 0.959 . S
C259 H261 0.960 . S
C259 H262 0.961 . S
H260 C259 0.959 . S
H261 C259 0.960 . S
H262 C259 0.961 . S
O263 Co238 1.967 . S
O263 C271 1.258 . S
O264 Co239 1.941 . S
O264 C271 1.266 . S
H265 C267 0.959 . S
H266 C267 0.961 . S
C267 C257 1.510 . S
C267 H265 0.959 . S
C267 H266 0.961 . S
C267 H268 0.960 . S
H268 C267 0.960 . S
H269 N249 0.862 . S
O270 Co238 1.920 . S
O270 C243 1.289 . S
C271 O263 1.258 . S
C271 O264 1.266 . S
H272 C280 0.924 1_556 S
H273 C282 0.930 . S
H274 C284 0.930 . S
H275 C287 0.929 . S
H276 C290 0.930 . S
H277 C292 0.960 . S
H278 C292 0.960 . S
H279 C292 0.960 . S
C280 H272 0.924 1_554 S
C280 C281 1.377 . S
C280 C282 1.384 1_565 S
C281 C280 1.377 . S
C281 C287 1.390 . S
C282 H273 0.930 . S
C282 C280 1.384 1_545 S
C282 C283 1.372 . S
C283 C282 1.372 . S
C283 C284 1.400 . S
C283 C288 1.490 . S
C284 H274 0.930 . S
C284 C283 1.400 . S
C284 C287 1.386 1_545 S
H285 C301 0.930 . S
H286 C302 0.931 . S
C287 H275 0.929 . S
C287 C281 1.390 . S
C287 C284 1.386 1_565 S
C288 C283 1.490 . S
C288 C290 1.395 . S
C288 C291 1.403 . S
H289 C295 0.930 1_556 S
C290 H276 0.930 . S
C290 C288 1.395 . S
C290 C293 1.403 . S
C291 C288 1.403 . S
C291 C292 1.524 1_554 S
C291 C295 1.400 . S
C292 H277 0.960 . S
C292 H278 0.960 . S
C292 H279 0.960 . S
C292 C291 1.524 1_556 S
C293 C290 1.403 . S
C293 C294 1.392 . S
C293 C297 1.495 . S
C294 C293 1.392 . S
C294 C295 1.385 . S
C294 C296 1.478 . S
C295 H289 0.930 1_554 S
C295 C291 1.400 . S
C295 C294 1.385 . S
C296 C294 1.478 . S
C296 C298 1.381 . S
C296 C302 1.383 . S
C297 C293 1.495 . S
C297 H303 0.959 . S
C297 H304 0.961 . S
C297 H305 0.960 . S
C298 C296 1.381 . S
C298 C299 1.394 . S
C298 H306 0.930 . S
C299 C298 1.394 . S
C299 C300 1.383 . S
C299 H307 0.929 . S
C300 C299 1.383 . S
C300 C301 1.377 . S
C301 H285 0.930 . S
C301 C300 1.377 . S
C301 C302 1.379 . S
C302 H286 0.931 . S
C302 C296 1.383 . S
C302 C301 1.379 . S
H303 C297 0.959 . S
H304 C297 0.961 . S
H305 C297 0.960 . S
H306 C298 0.930 . S
H307 C299 0.929 . S
H308 C316 0.929 . S
H309 C318 0.930 . S
H310 C320 0.930 . S
H311 C323 0.929 . S
H312 C326 0.930 . S
H313 C328 0.960 . S
H314 C328 0.960 . S
H315 C328 0.960 . S
C316 H308 0.929 . S
C316 C317 1.377 . S
C316 C318 1.384 1_455 S
C317 C316 1.377 . S
C317 C323 1.390 . S
C318 H309 0.930 . S
C318 C316 1.384 1_655 S
C318 C319 1.372 . S
C319 C318 1.372 . S
C319 C320 1.400 . S
C319 C324 1.490 . S
C320 H310 0.930 . S
C320 C319 1.400 . S
C320 C323 1.386 1_655 S
H321 C337 0.930 . S
H322 C338 0.931 . S
C323 H311 0.929 . S
C323 C317 1.390 . S
C323 C320 1.386 1_455 S
C324 C319 1.490 . S
C324 C326 1.395 . S
C324 C327 1.403 . S
H325 C331 0.930 . S
C326 H312 0.930 . S
C326 C324 1.395 . S
C326 C329 1.403 . S
C327 C324 1.403 . S
C327 C328 1.524 . S
C327 C331 1.400 . S
C328 H313 0.960 . S
C328 H314 0.960 . S
C328 H315 0.960 . S
C328 C327 1.524 . S
C329 C326 1.403 . S
C329 C330 1.392 . S
C329 C333 1.495 . S
C330 C329 1.392 . S
C330 C331 1.385 . S
C330 C332 1.478 . S
C331 H325 0.930 . S
C331 C327 1.400 . S
C331 C330 1.385 . S
C332 C330 1.478 . S
C332 C334 1.381 . S
C332 C338 1.383 . S
C333 C329 1.495 . S
C333 H339 0.959 . S
C333 H340 0.961 . S
C333 H341 0.960 . S
C334 C332 1.381 . S
C334 C335 1.394 . S
C334 H342 0.930 . S
C335 C334 1.394 . S
C335 C336 1.383 . S
C335 H343 0.929 . S
C336 C335 1.383 . S
C336 C337 1.377 . S
C337 H321 0.930 . S
C337 C336 1.377 . S
C337 C338 1.379 . S
C338 H322 0.931 . S
C338 C332 1.383 . S
C338 C337 1.379 . S
H339 C333 0.959 . S
H340 C333 0.961 . S
H341 C333 0.960 . S
H342 C334 0.930 . S
H343 C335 0.929 . S
H344 C352 0.929 . S
H345 C354 0.930 . S
H346 C356 0.930 . S
H347 C359 0.929 . S
H348 C362 0.930 . S
H349 C364 0.960 . S
H350 C364 0.960 . S
H351 C364 0.960 . S
C352 H344 0.929 . S
C352 C353 1.377 1_556 S
C352 C354 1.384 1_545 S
C353 C352 1.377 1_554 S
C353 C359 1.390 . S
C354 H345 0.930 . S
C354 C352 1.384 1_565 S
C354 C355 1.372 1_556 S
C355 C354 1.372 1_554 S
C355 C356 1.400 . S
C355 C360 1.490 . S
C356 H346 0.930 . S
C356 C355 1.400 . S
C356 C359 1.386 1_565 S
H357 C373 0.930 . S
H358 C374 0.931 . S
C359 H347 0.929 . S
C359 C353 1.390 . S
C359 C356 1.386 1_545 S
C360 C355 1.490 . S
C360 C362 1.395 . S
C360 C363 1.403 . S
H361 C367 0.930 . S
C362 H348 0.930 . S
C362 C360 1.395 . S
C362 C365 1.403 . S
C363 C360 1.403 . S
C363 C364 1.524 . S
C363 C367 1.400 . S
C364 H349 0.960 . S
C364 H350 0.960 . S
C364 H351 0.960 . S
C364 C363 1.524 . S
C365 C362 1.403 . S
C365 C366 1.392 . S
C365 C369 1.495 . S
C366 C365 1.392 . S
C366 C367 1.385 . S
C366 C368 1.478 . S
C367 H361 0.930 . S
C367 C363 1.400 . S
C367 C366 1.385 . S
C368 C366 1.478 . S
C368 C370 1.381 1_554 S
C368 C374 1.383 . S
C369 C365 1.495 . S
C369 H375 0.959 . S
C369 H376 0.961 . S
C369 H377 0.960 1_554 S
C370 C368 1.381 1_556 S
C370 C371 1.394 . S
C370 H378 0.930 . S
C371 C370 1.394 . S
C371 C372 1.383 1_556 S
C371 H379 0.929 . S
C372 C371 1.383 1_554 S
C372 C373 1.377 . S
C373 H357 0.930 . S
C373 C372 1.377 . S
C373 C374 1.379 . S
C374 H358 0.931 . S
C374 C368 1.383 . S
C374 C373 1.379 . S
H375 C369 0.959 . S
H376 C369 0.961 . S
H377 C369 0.960 1_556 S
H378 C370 0.930 . S
H379 C371 0.929 . S
H380 C388 0.929 . S
H381 C390 0.930 . S
H382 C392 0.930 . S
H383 C395 0.929 . S
H384 C398 0.930 . S
H385 C400 0.960 . S
H386 C400 0.960 . S
H387 C400 0.960 . S
C388 H380 0.929 . S
C388 C389 1.377 . S
C388 C390 1.384 1_655 S
C389 C388 1.377 . S
C389 C395 1.390 . S
C390 H381 0.930 . S
C390 C388 1.384 1_455 S
C390 C391 1.372 . S
C391 C390 1.372 . S
C391 C392 1.400 . S
C391 C396 1.490 . S
C392 H382 0.930 . S
C392 C391 1.400 . S
C392 C395 1.386 1_455 S
H393 C409 0.930 . S
H394 C410 0.931 . S
C395 H383 0.929 . S
C395 C389 1.390 . S
C395 C392 1.386 1_655 S
C396 C391 1.490 . S
C396 C398 1.395 . S
C396 C399 1.403 . S
H397 C403 0.930 . S
C398 H384 0.930 . S
C398 C396 1.395 . S
C398 C401 1.403 . S
C399 C396 1.403 . S
C399 C400 1.524 . S
C399 C403 1.400 . S
C400 H385 0.960 . S
C400 H386 0.960 . S
C400 H387 0.960 . S
C400 C399 1.524 . S
C401 C398 1.403 . S
C401 C402 1.392 . S
C401 C405 1.495 . S
C402 C401 1.392 . S
C402 C403 1.385 . S
C402 C404 1.478 . S
C403 H397 0.930 . S
C403 C399 1.400 . S
C403 C402 1.385 . S
C404 C402 1.478 . S
C404 C406 1.381 . S
C404 C410 1.383 . S
C405 C401 1.495 . S
C405 H411 0.959 . S
C405 H412 0.961 . S
C405 H413 0.960 . S
C406 C404 1.381 . S
C406 C407 1.394 . S
C406 H414 0.930 . S
C407 C406 1.394 . S
C407 C408 1.383 . S
C407 H415 0.929 . S
C408 C407 1.383 . S
C408 C409 1.377 . S
C409 H393 0.930 . S
C409 C408 1.377 . S
C409 C410 1.379 . S
C410 H394 0.931 . S
C410 C404 1.383 . S
C410 C409 1.379 . S
H411 C405 0.959 . S
H412 C405 0.961 . S
H413 C405 0.960 . S
H414 C406 0.930 . S
H415 C407 0.929 . S
H416 C424 0.929 . S
H417 C426 0.930 . S
H418 C428 0.930 . S
H419 C431 0.929 . S
H420 C434 0.930 1_556 S
H421 C436 0.960 . S
H422 C436 0.960 . S
H423 C436 0.960 . S
C424 H416 0.929 . S
C424 C425 1.377 . S
C424 C426 1.384 . S
C425 C424 1.377 . S
C425 C431 1.390 . S
C426 H417 0.930 . S
C426 C424 1.384 . S
C426 C427 1.372 . S
C427 C426 1.372 . S
C427 C428 1.400 . S
C427 C432 1.490 . S
C428 H418 0.930 . S
C428 C427 1.400 . S
C428 C431 1.386 . S
H429 C445 0.930 . S
H430 C446 0.931 . S
C431 H419 0.929 . S
C431 C425 1.390 . S
C431 C428 1.386 . S
C432 C427 1.490 . S
C432 C434 1.395 . S
C432 C435 1.403 . S
H433 C439 0.930 . S
C434 H420 0.930 1_554 S
C434 C432 1.395 . S
C434 C437 1.403 1_554 S
C435 C432 1.403 . S
C435 C436 1.524 . S
C435 C439 1.400 . S
C436 H421 0.960 . S
C436 H422 0.960 . S
C436 H423 0.960 . S
C436 C435 1.524 . S
C437 C434 1.403 1_556 S
C437 C438 1.392 1_556 S
C437 C441 1.495 . S
C438 C437 1.392 1_554 S
C438 C439 1.385 . S
C438 C440 1.478 . S
C439 H433 0.930 . S
C439 C435 1.400 . S
C439 C438 1.385 . S
C440 C438 1.478 . S
C440 C442 1.381 . S
C440 C446 1.383 . S
C441 C437 1.495 . S
C441 H447 0.959 . S
C441 H448 0.961 . S
C441 H449 0.960 . S
C442 C440 1.381 . S
C442 C443 1.394 . S
C442 H450 0.930 . S
C443 C442 1.394 . S
C443 C444 1.383 . S
C443 H451 0.929 . S
C444 C443 1.383 . S
C444 C445 1.377 . S
C445 H429 0.930 . S
C445 C444 1.377 . S
C445 C446 1.379 . S
C446 H430 0.931 . S
C446 C440 1.383 . S
C446 C445 1.379 . S
H447 C441 0.959 . S
H448 C441 0.961 . S
H449 C441 0.960 . S
H450 C442 0.930 . S
H451 C443 0.929 . S
H452 C460 0.929 . S
H453 C462 0.930 . S
H454 C464 0.930 . S
H455 C467 0.929 . S
H456 C470 0.930 . S
H457 C472 0.960 . S
H458 C472 0.960 . S
H459 C472 0.960 . S
C460 H452 0.929 . S
C460 C461 1.377 . S
C460 C462 1.384 . S
C461 C460 1.377 . S
C461 C467 1.390 . S
C462 H453 0.930 . S
C462 C460 1.384 . S
C462 C463 1.372 . S
C463 C462 1.372 . S
C463 C464 1.400 . S
C463 C468 1.490 . S
C464 H454 0.930 . S
C464 C463 1.400 . S
C464 C467 1.386 . S
H465 C481 0.930 . S
H466 C482 0.931 . S
C467 H455 0.929 . S
C467 C461 1.390 . S
C467 C464 1.386 . S
C468 C463 1.490 . S
C468 C470 1.395 . S
C468 C471 1.403 . S
H469 C475 0.930 . S
C470 H456 0.930 . S
C470 C468 1.395 . S
C470 C473 1.403 . S
C471 C468 1.403 . S
C471 C472 1.524 . S
C471 C475 1.400 . S
C472 H457 0.960 . S
C472 H458 0.960 . S
C472 H459 0.960 . S
C472 C471 1.524 . S
C473 C470 1.403 . S
C473 C474 1.392 . S
C473 C477 1.495 . S
C474 C473 1.392 . S
C474 C475 1.385 . S
C474 C476 1.478 . S
C475 H469 0.930 . S
C475 C471 1.400 . S
C475 C474 1.385 . S
C476 C474 1.478 . S
C476 C478 1.381 . S
C476 C482 1.383 . S
C477 C473 1.495 . S
C477 H483 0.959 . S
C477 H484 0.961 . S
C477 H485 0.960 . S
C478 C476 1.381 . S
C478 C479 1.394 . S
C478 H486 0.930 . S
C479 C478 1.394 . S
C479 C480 1.383 . S
C479 H487 0.929 . S
C480 C479 1.383 . S
C480 C481 1.377 . S
C481 H465 0.930 . S
C481 C480 1.377 . S
C481 C482 1.379 . S
C482 H466 0.931 . S
C482 C476 1.383 . S
C482 C481 1.379 . S
H483 C477 0.959 . S
H484 C477 0.961 . S
H485 C477 0.960 . S
H486 C478 0.930 . S
H487 C479 0.929 . S
H488 C496 0.929 . S
H489 C498 0.930 . S
H490 C500 0.930 1_556 S
H491 C503 0.929 1_556 S
H492 C506 0.930 . S
H493 C508 0.960 . S
H494 C508 0.960 . S
H495 C508 0.960 . S
C496 H488 0.929 . S
C496 C497 1.377 . S
C496 C498 1.384 . S
C497 C496 1.377 . S
C497 C503 1.390 . S
C498 H489 0.930 . S
C498 C496 1.384 . S
C498 C499 1.372 . S
C499 C498 1.372 . S
C499 C500 1.400 . S
C499 C504 1.490 . S
C500 H490 0.930 1_554 S
C500 C499 1.400 . S
C500 C503 1.386 . S
H501 C517 0.930 . S
H502 C518 0.931 . S
C503 H491 0.929 1_554 S
C503 C497 1.390 . S
C503 C500 1.386 . S
C504 C499 1.490 . S
C504 C506 1.395 . S
C504 C507 1.403 . S
H505 C511 0.930 . S
C506 H492 0.930 . S
C506 C504 1.395 . S
C506 C509 1.403 . S
C507 C504 1.403 . S
C507 C508 1.524 . S
C507 C511 1.400 . S
C508 H493 0.960 . S
C508 H494 0.960 . S
C508 H495 0.960 . S
C508 C507 1.524 . S
C509 C506 1.403 . S
C509 C510 1.392 . S
C509 C513 1.495 . S
C510 C509 1.392 . S
C510 C511 1.385 . S
C510 C512 1.478 . S
C511 H505 0.930 . S
C511 C507 1.400 . S
C511 C510 1.385 . S
C512 C510 1.478 . S
C512 C514 1.381 . S
C512 C518 1.383 1_554 S
C513 C509 1.495 . S
C513 H519 0.959 . S
C513 H520 0.961 . S
C513 H521 0.960 . S
C514 C512 1.381 . S
C514 C515 1.394 . S
C514 H522 0.930 . S
C515 C514 1.394 . S
C515 C516 1.383 . S
C515 H523 0.929 . S
C516 C515 1.383 . S
C516 C517 1.377 1_554 S
C517 H501 0.930 . S
C517 C516 1.377 1_556 S
C517 C518 1.379 . S
C518 H502 0.931 . S
C518 C512 1.383 1_556 S
C518 C517 1.379 . S
H519 C513 0.959 . S
H520 C513 0.961 . S
H521 C513 0.960 . S
H522 C514 0.930 . S
H523 C515 0.929 . S
H524 C532 0.929 . S
H525 C534 0.930 . S
H526 C536 0.930 . S
H527 C539 0.929 . S
H528 C542 0.930 . S
H529 C544 0.960 . S
H530 C544 0.960 . S
H531 C544 0.960 . S
C532 H524 0.929 . S
C532 C533 1.377 . S
C532 C534 1.384 . S
C533 C532 1.377 . S
C533 C539 1.390 . S
C534 H525 0.930 . S
C534 C532 1.384 . S
C534 C535 1.372 . S
C535 C534 1.372 . S
C535 C536 1.400 . S
C535 C540 1.490 . S
C536 H526 0.930 . S
C536 C535 1.400 . S
C536 C539 1.386 . S
H537 C553 0.930 . S
H538 C554 0.931 . S
C539 H527 0.929 . S
C539 C533 1.390 . S
C539 C536 1.386 . S
C540 C535 1.490 . S
C540 C542 1.395 . S
C540 C543 1.403 . S
H541 C547 0.930 . S
C542 H528 0.930 . S
C542 C540 1.395 . S
C542 C545 1.403 . S
C543 C540 1.403 . S
C543 C544 1.524 . S
C543 C547 1.400 . S
C544 H529 0.960 . S
C544 H530 0.960 . S
C544 H531 0.960 . S
C544 C543 1.524 . S
C545 C542 1.403 . S
C545 C546 1.392 . S
C545 C549 1.495 . S
C546 C545 1.392 . S
C546 C547 1.385 . S
C546 C548 1.478 . S
C547 H541 0.930 . S
C547 C543 1.400 . S
C547 C546 1.385 . S
C548 C546 1.478 . S
C548 C550 1.381 . S
C548 C554 1.383 . S
C549 C545 1.495 . S
C549 H555 0.959 . S
C549 H556 0.961 . S
C549 H557 0.960 . S
C550 C548 1.381 . S
C550 C551 1.394 . S
C550 H558 0.930 . S
C551 C550 1.394 . S
C551 C552 1.383 . S
C551 H559 0.929 . S
C552 C551 1.383 . S
C552 C553 1.377 . S
C553 H537 0.930 . S
C553 C552 1.377 . S
C553 C554 1.379 . S
C554 H538 0.931 . S
C554 C548 1.383 . S
C554 C553 1.379 . S
H555 C549 0.959 . S
H556 C549 0.961 . S
H557 C549 0.960 . S
H558 C550 0.930 . S
H559 C551 0.929 . S
H560 C568 0.929 . S
H561 C570 0.930 . S
H562 C572 0.930 1_556 S
H563 C575 0.929 1_556 S
H564 C578 0.930 . S
H565 C580 0.960 . S
H566 C580 0.960 . S
H567 C580 0.960 . S
C568 H560 0.929 . S
C568 C569 1.377 . S
C568 C570 1.384 . S
C569 C568 1.377 . S
C569 C575 1.390 . S
C570 H561 0.930 . S
C570 C568 1.384 . S
C570 C571 1.372 . S
C571 C570 1.372 . S
C571 C572 1.400 . S
C571 C576 1.490 . S
C572 H562 0.930 1_554 S
C572 C571 1.400 . S
C572 C575 1.386 . S
H573 C589 0.930 1_556 S
H574 C590 0.931 1_556 S
C575 H563 0.929 1_554 S
C575 C569 1.390 . S
C575 C572 1.386 . S
C576 C571 1.490 . S
C576 C578 1.395 . S
C576 C579 1.403 1_455 S
H577 C583 0.930 . S
C578 H564 0.930 . S
C578 C576 1.395 . S
C578 C581 1.403 . S
C579 C576 1.403 1_655 S
C579 C580 1.524 . S
C579 C583 1.400 . S
C580 H565 0.960 . S
C580 H566 0.960 . S
C580 H567 0.960 . S
C580 C579 1.524 . S
C581 C578 1.403 . S
C581 C582 1.392 1_455 S
C581 C585 1.495 . S
C582 C581 1.392 1_655 S
C582 C583 1.385 . S
C582 C584 1.478 . S
C583 H577 0.930 . S
C583 C579 1.400 . S
C583 C582 1.385 . S
C584 C582 1.478 . S
C584 C586 1.381 . S
C584 C590 1.383 . S
C585 C581 1.495 . S
C585 H591 0.959 . S
C585 H592 0.961 1_554 S
C585 H593 0.960 . S
C586 C584 1.381 . S
C586 C587 1.394 . S
C586 H594 0.930 . S
C587 C586 1.394 . S
C587 C588 1.383 . S
C587 H595 0.929 . S
C588 C587 1.383 . S
C588 C589 1.377 . S
C589 H573 0.930 1_554 S
C589 C588 1.377 . S
C589 C590 1.379 . S
C590 H574 0.931 1_554 S
C590 C584 1.383 . S
C590 C589 1.379 . S
H591 C585 0.959 . S
H592 C585 0.961 1_556 S
H593 C585 0.960 . S
H594 C586 0.930 . S
H595 C587 0.929 . S
H596 C604 0.929 . S
H597 C606 0.930 . S
H598 C608 0.930 . S
H599 C611 0.929 . S
H600 C614 0.930 . S
H601 C616 0.960 . S
H602 C616 0.960 . S
H603 C616 0.960 . S
C604 H596 0.929 . S
C604 C605 1.377 . S
C604 C606 1.384 . S
C605 C604 1.377 . S
C605 C611 1.390 . S
C606 H597 0.930 . S
C606 C604 1.384 . S
C606 C607 1.372 . S
C607 C606 1.372 . S
C607 C608 1.400 . S
C607 C612 1.490 . S
C608 H598 0.930 . S
C608 C607 1.400 . S
C608 C611 1.386 . S
H609 C625 0.930 . S
H610 C626 0.931 . S
C611 H599 0.929 . S
C611 C605 1.390 . S
C611 C608 1.386 . S
C612 C607 1.490 . S
C612 C614 1.395 1_565 S
C612 C615 1.403 . S
H613 C619 0.932 . S
C614 H600 0.930 . S
C614 C612 1.395 1_545 S
C614 C617 1.403 . S
C615 C612 1.403 . S
C615 C616 1.524 . S
C615 C619 1.416 . S
C616 H601 0.960 . S
C616 H602 0.960 . S
C616 H603 0.960 . S
C616 C615 1.524 . S
C617 C614 1.403 . S
C617 C618 1.392 . S
C617 C621 1.495 . S
C618 C617 1.392 . S
C618 C619 1.368 1_545 S
C618 C620 1.478 . S
C619 H613 0.932 . S
C619 C615 1.416 . S
C619 C618 1.368 1_565 S
C620 C618 1.478 . S
C620 C622 1.381 . S
C620 C626 1.383 . S
C621 C617 1.495 . S
C621 H627 0.959 . S
C621 H628 0.961 . S
C621 H629 0.960 . S
C622 C620 1.381 . S
C622 C623 1.394 . S
C622 H630 0.930 . S
C623 C622 1.394 . S
C623 C624 1.383 . S
C623 H631 0.929 . S
C624 C623 1.383 . S
C624 C625 1.377 . S
C625 H609 0.930 . S
C625 C624 1.377 . S
C625 C626 1.379 . S
C626 H610 0.931 . S
C626 C620 1.383 . S
C626 C625 1.379 . S
H627 C621 0.959 . S
H628 C621 0.961 . S
H629 C621 0.960 . S
H630 C622 0.930 . S
H631 C623 0.929 . S
H632 C640 0.929 . S
H633 C642 0.930 . S
H634 C644 0.930 . S
H635 C647 0.929 . S
H636 C650 0.930 . S
H637 C652 0.943 1_545 S
H638 C652 0.980 . S
H639 C652 0.957 1_545 S
C640 H632 0.929 . S
C640 C641 1.377 . S
C640 C642 1.384 . S
C641 C640 1.377 . S
C641 C647 1.390 . S
C642 H633 0.930 . S
C642 C640 1.384 . S
C642 C643 1.372 . S
C643 C642 1.372 . S
C643 C644 1.400 . S
C643 C648 1.490 . S
C644 H634 0.930 . S
C644 C643 1.400 . S
C644 C647 1.386 . S
H645 C661 0.930 . S
H646 C662 0.931 . S
C647 H635 0.929 . S
C647 C641 1.390 . S
C647 C644 1.386 . S
C648 C643 1.490 . S
C648 C650 1.395 1_554 S
C648 C651 1.403 . S
H649 C655 0.930 . S
C650 H636 0.930 . S
C650 C648 1.395 1_556 S
C650 C653 1.403 . S
C651 C648 1.403 . S
C651 C652 1.524 . S
C651 C655 1.400 1_565 S
C652 H637 0.943 1_565 S
C652 H638 0.980 . S
C652 H639 0.957 1_565 S
C652 C651 1.524 . S
C653 C650 1.403 . S
C653 C654 1.392 1_566 S
C653 C657 1.495 . S
C654 C653 1.392 1_544 S
C654 C655 1.385 . S
C654 C656 1.478 . S
C655 H649 0.930 . S
C655 C651 1.400 1_545 S
C655 C654 1.385 . S
C656 C654 1.478 . S
C656 C658 1.381 . S
C656 C662 1.383 . S
C657 C653 1.495 . S
C657 H663 0.959 . S
C657 H664 0.961 1_565 S
C657 H665 0.960 . S
C658 C656 1.381 . S
C658 C659 1.394 . S
C658 H666 0.930 . S
C659 C658 1.394 . S
C659 C660 1.383 . S
C659 H667 0.929 . S
C660 C659 1.383 . S
C660 C661 1.377 . S
C661 H645 0.930 . S
C661 C660 1.377 . S
C661 C662 1.379 . S
C662 H646 0.931 . S
C662 C656 1.383 . S
C662 C661 1.379 . S
H663 C657 0.959 . S
H664 C657 0.961 1_545 S
H665 C657 0.960 . S
H666 C658 0.930 . S
H667 C659 0.929 . S
H668 C676 0.929 . S
H669 C678 0.930 . S
H670 C680 0.930 . S
H671 C683 0.929 . S
H672 C686 0.930 . S
H673 C688 0.940 1_455 S
H674 C688 0.952 1_455 S
H675 C688 0.989 . S
C676 H668 0.929 . S
C676 C677 1.377 . S
C676 C678 1.384 . S
C677 C676 1.377 . S
C677 C683 1.390 . S
C678 H669 0.930 . S
C678 C676 1.384 . S
C678 C679 1.372 . S
C679 C678 1.372 . S
C679 C680 1.400 . S
C679 C684 1.490 . S
C680 H670 0.930 . S
C680 C679 1.400 . S
C680 C683 1.386 . S
H681 C697 0.930 . S
H682 C698 0.931 . S
C683 H671 0.929 . S
C683 C677 1.390 . S
C683 C680 1.386 . S
C684 C679 1.490 . S
C684 C686 1.395 . S
C684 C687 1.403 . S
H685 C691 0.930 . S
C686 H672 0.930 . S
C686 C684 1.395 . S
C686 C689 1.403 1_655 S
C687 C684 1.403 . S
C687 C688 1.524 . S
C687 C691 1.400 1_655 S
C688 H673 0.940 1_655 S
C688 H674 0.952 1_655 S
C688 H675 0.989 . S
C688 C687 1.524 . S
C689 C686 1.403 1_455 S
C689 C690 1.392 . S
C689 C693 1.495 . S
C690 C689 1.392 . S
C690 C691 1.385 . S
C690 C692 1.478 . S
C691 H685 0.930 . S
C691 C687 1.400 1_455 S
C691 C690 1.385 . S
C692 C690 1.478 . S
C692 C694 1.381 . S
C692 C698 1.383 . S
C693 C689 1.495 . S
C693 H699 0.959 1_455 S
C693 H700 0.961 1_455 S
C693 H701 0.960 . S
C694 C692 1.381 . S
C694 C695 1.394 . S
C694 H702 0.930 . S
C695 C694 1.394 . S
C695 C696 1.383 . S
C695 H703 0.929 . S
C696 C695 1.383 . S
C696 C697 1.377 . S
C697 H681 0.930 . S
C697 C696 1.377 . S
C697 C698 1.379 . S
C698 H682 0.931 . S
C698 C692 1.383 . S
C698 C697 1.379 . S
H699 C693 0.959 1_655 S
H700 C693 0.961 1_655 S
H701 C693 0.960 . S
H702 C694 0.930 . S
H703 C695 0.929 . S
H704 C712 0.929 . S
H705 C714 0.930 . S
H706 C716 0.930 . S
H707 C719 0.929 . S
H708 C722 0.930 . S
H709 C724 0.960 . S
H710 C724 0.960 . S
H711 C724 0.960 . S
C712 H704 0.929 . S
C712 C713 1.377 . S
C712 C714 1.384 . S
C713 C712 1.377 . S
C713 C719 1.390 . S
C714 H705 0.930 . S
C714 C712 1.384 . S
C714 C715 1.372 . S
C715 C714 1.372 . S
C715 C716 1.400 . S
C715 C720 1.490 . S
C716 H706 0.930 . S
C716 C715 1.400 . S
C716 C719 1.386 . S
H717 C733 0.930 . S
H718 C734 0.931 . S
C719 H707 0.929 . S
C719 C713 1.390 . S
C719 C716 1.386 . S
C720 C715 1.490 . S
C720 C722 1.395 . S
C720 C723 1.403 . S
H721 C727 0.930 . S
C722 H708 0.930 . S
C722 C720 1.395 . S
C722 C725 1.403 . S
C723 C720 1.403 . S
C723 C724 1.524 . S
C723 C727 1.400 . S
C724 H709 0.960 . S
C724 H710 0.960 . S
C724 H711 0.960 . S
C724 C723 1.524 . S
C725 C722 1.403 . S
C725 C726 1.392 . S
C725 C729 1.495 . S
C726 C725 1.392 . S
C726 C727 1.385 . S
C726 C728 1.478 . S
C727 H721 0.930 . S
C727 C723 1.400 . S
C727 C726 1.385 . S
C728 C726 1.478 . S
C728 C730 1.381 . S
C728 C734 1.383 . S
C729 C725 1.495 . S
C729 H735 0.959 . S
C729 H736 0.961 . S
C729 H737 0.960 . S
C730 C728 1.381 . S
C730 C731 1.394 . S
C730 H738 0.930 . S
C731 C730 1.394 . S
C731 C732 1.383 . S
C731 H739 0.929 . S
C732 C731 1.383 . S
C732 C733 1.377 . S
C733 H717 0.930 . S
C733 C732 1.377 . S
C733 C734 1.379 . S
C734 H718 0.931 . S
C734 C728 1.383 . S
C734 C733 1.379 . S
H735 C729 0.959 . S
H736 C729 0.961 . S
H737 C729 0.960 . S
H738 C730 0.930 . S
H739 C731 0.929 . S
H740 C748 0.929 . S
H741 C750 0.930 . S
H742 C752 0.930 . S
H743 C755 0.929 . S
H744 C758 0.930 . S
H745 C760 0.960 . S
H746 C760 0.960 . S
H747 C760 0.960 . S
C748 H740 0.929 . S
C748 C749 1.377 . S
C748 C750 1.384 . S
C749 C748 1.377 . S
C749 C755 1.390 . S
C750 H741 0.930 . S
C750 C748 1.384 . S
C750 C751 1.372 . S
C751 C750 1.372 . S
C751 C752 1.400 . S
C751 C756 1.490 . S
C752 H742 0.930 . S
C752 C751 1.400 . S
C752 C755 1.386 . S
H753 C769 0.930 . S
H754 C770 0.931 . S
C755 H743 0.929 . S
C755 C749 1.390 . S
C755 C752 1.386 . S
C756 C751 1.490 . S
C756 C758 1.395 . S
C756 C759 1.403 . S
H757 C763 0.930 . S
C758 H744 0.930 . S
C758 C756 1.395 . S
C758 C761 1.403 . S
C759 C756 1.403 . S
C759 C760 1.524 . S
C759 C763 1.400 . S
C760 H745 0.960 . S
C760 H746 0.960 . S
C760 H747 0.960 . S
C760 C759 1.524 . S
C761 C758 1.403 . S
C761 C762 1.392 . S
C761 C765 1.495 . S
C762 C761 1.392 . S
C762 C763 1.385 . S
C762 C764 1.478 . S
C763 H757 0.930 . S
C763 C759 1.400 . S
C763 C762 1.385 . S
C764 C762 1.478 . S
C764 C766 1.381 . S
C764 C770 1.383 . S
C765 C761 1.495 . S
C765 H771 0.959 . S
C765 H772 0.961 . S
C765 H773 0.960 . S
C766 C764 1.381 . S
C766 C767 1.394 . S
C766 H774 0.930 . S
C767 C766 1.394 . S
C767 C768 1.383 . S
C767 H775 0.929 . S
C768 C767 1.383 . S
C768 C769 1.377 . S
C769 H753 0.930 . S
C769 C768 1.377 . S
C769 C770 1.379 . S
C770 H754 0.931 . S
C770 C764 1.383 . S
C770 C769 1.379 . S
H771 C765 0.959 . S
H772 C765 0.961 . S
H773 C765 0.960 . S
H774 C766 0.930 . S
H775 C767 0.929 . S
H776 C784 0.929 . S
H777 C786 0.930 . S
H778 C788 0.930 . S
H779 C791 0.929 . S
H780 C794 0.930 . S
H781 C796 0.960 . S
H782 C796 0.960 . S
H783 C796 0.960 . S
C784 H776 0.929 . S
C784 C785 1.377 . S
C784 C786 1.384 . S
C785 C784 1.377 . S
C785 C791 1.390 . S
C786 H777 0.930 . S
C786 C784 1.384 . S
C786 C787 1.372 . S
C787 C786 1.372 . S
C787 C788 1.400 . S
C787 C792 1.490 . S
C788 H778 0.930 . S
C788 C787 1.400 . S
C788 C791 1.386 . S
H789 C805 0.930 . S
H790 C806 0.931 . S
C791 H779 0.929 . S
C791 C785 1.390 . S
C791 C788 1.386 . S
C792 C787 1.490 . S
C792 C794 1.395 . S
C792 C795 1.403 . S
H793 C799 0.930 . S
C794 H780 0.930 . S
C794 C792 1.395 . S
C794 C797 1.403 . S
C795 C792 1.403 . S
C795 C796 1.524 . S
C795 C799 1.400 . S
C796 H781 0.960 . S
C796 H782 0.960 . S
C796 H783 0.960 . S
C796 C795 1.524 . S
C797 C794 1.403 . S
C797 C798 1.392 . S
C797 C801 1.495 . S
C798 C797 1.392 . S
C798 C799 1.385 . S
C798 C800 1.478 . S
C799 H793 0.930 . S
C799 C795 1.400 . S
C799 C798 1.385 . S
C800 C798 1.478 . S
C800 C802 1.381 . S
C800 C806 1.383 . S
C801 C797 1.495 . S
C801 H807 0.959 . S
C801 H808 0.961 . S
C801 H809 0.960 . S
C802 C800 1.381 . S
C802 C803 1.394 . S
C802 H810 0.930 . S
C803 C802 1.394 . S
C803 C804 1.383 . S
C803 H811 0.929 . S
C804 C803 1.383 . S
C804 C805 1.377 . S
C805 H789 0.930 . S
C805 C804 1.377 . S
C805 C806 1.379 . S
C806 H790 0.931 . S
C806 C800 1.383 . S
C806 C805 1.379 . S
H807 C801 0.959 . S
H808 C801 0.961 . S
H809 C801 0.960 . S
H810 C802 0.930 . S
H811 C803 0.929 . S
H812 C820 0.929 . S
H813 C822 0.930 . S
H814 C824 0.930 . S
H815 C827 0.929 . S
H816 C830 0.930 . S
H817 C832 0.960 . S
H818 C832 0.960 . S
H819 C832 0.960 . S
C820 H812 0.929 . S
C820 C821 1.377 . S
C820 C822 1.384 . S
C821 C820 1.377 . S
C821 C827 1.390 . S
C822 H813 0.930 . S
C822 C820 1.384 . S
C822 C823 1.372 . S
C823 C822 1.372 . S
C823 C824 1.400 . S
C823 C828 1.490 . S
C824 H814 0.930 . S
C824 C823 1.400 . S
C824 C827 1.386 . S
H825 C841 0.930 . S
H826 C842 0.931 . S
C827 H815 0.929 . S
C827 C821 1.390 . S
C827 C824 1.386 . S
C828 C823 1.490 . S
C828 C830 1.395 . S
C828 C831 1.403 . S
H829 C835 0.930 . S
C830 H816 0.930 . S
C830 C828 1.395 . S
C830 C833 1.403 . S
C831 C828 1.403 . S
C831 C832 1.524 . S
C831 C835 1.400 . S
C832 H817 0.960 . S
C832 H818 0.960 . S
C832 H819 0.960 . S
C832 C831 1.524 . S
C833 C830 1.403 . S
C833 C834 1.392 . S
C833 C837 1.495 . S
C834 C833 1.392 . S
C834 C835 1.385 . S
C834 C836 1.478 . S
C835 H829 0.930 . S
C835 C831 1.400 . S
C835 C834 1.385 . S
C836 C834 1.478 . S
C836 C838 1.381 . S
C836 C842 1.383 . S
C837 C833 1.495 . S
C837 H843 0.959 . S
C837 H844 0.961 . S
C837 H845 0.960 . S
C838 C836 1.381 . S
C838 C839 1.394 . S
C838 H846 0.930 . S
C839 C838 1.394 . S
C839 C840 1.383 . S
C839 H847 0.929 . S
C840 C839 1.383 . S
C840 C841 1.377 . S
C841 H825 0.930 . S
C841 C840 1.377 . S
C841 C842 1.379 . S
C842 H826 0.931 . S
C842 C836 1.383 . S
C842 C841 1.379 . S
H843 C837 0.959 . S
H844 C837 0.961 . S
H845 C837 0.960 . S
H846 C838 0.930 . S
H847 C839 0.929 . S
H848 C856 0.929 . S
H849 C858 0.930 . S
H850 C860 0.930 . S
H851 C863 0.929 . S
H852 C866 0.930 . S
H853 C868 0.960 . S
H854 C868 0.960 . S
H855 C868 0.960 . S
C856 H848 0.929 . S
C856 C857 1.377 . S
C856 C858 1.384 . S
C857 C856 1.377 . S
C857 C863 1.390 . S
C858 H849 0.930 . S
C858 C856 1.384 . S
C858 C859 1.372 . S
C859 C858 1.372 . S
C859 C860 1.400 . S
C859 C864 1.490 . S
C860 H850 0.930 . S
C860 C859 1.400 . S
C860 C863 1.386 . S
H861 C877 0.930 . S
H862 C878 0.931 . S
C863 H851 0.929 . S
C863 C857 1.390 . S
C863 C860 1.386 . S
C864 C859 1.490 . S
C864 C866 1.395 . S
C864 C867 1.403 . S
H865 C871 0.930 . S
C866 H852 0.930 . S
C866 C864 1.395 . S
C866 C869 1.403 . S
C867 C864 1.403 . S
C867 C868 1.524 . S
C867 C871 1.400 . S
C868 H853 0.960 . S
C868 H854 0.960 . S
C868 H855 0.960 . S
C868 C867 1.524 . S
C869 C866 1.403 . S
C869 C870 1.392 . S
C869 C873 1.495 . S
C870 C869 1.392 . S
C870 C871 1.385 . S
C870 C872 1.478 . S
C871 H865 0.930 . S
C871 C867 1.400 . S
C871 C870 1.385 . S
C872 C870 1.478 . S
C872 C874 1.381 . S
C872 C878 1.383 . S
C873 C869 1.495 . S
C873 H879 0.959 . S
C873 H880 0.961 . S
C873 H881 0.960 . S
C874 C872 1.381 . S
C874 C875 1.394 . S
C874 H882 0.930 . S
C875 C874 1.394 . S
C875 C876 1.383 . S
C875 H883 0.929 . S
C876 C875 1.383 . S
C876 C877 1.377 . S
C877 H861 0.930 . S
C877 C876 1.377 . S
C877 C878 1.379 . S
C878 H862 0.931 . S
C878 C872 1.383 . S
C878 C877 1.379 . S
H879 C873 0.959 . S
H880 C873 0.961 . S
H881 C873 0.960 . S
H882 C874 0.930 . S
H883 C875 0.929 . S
H884 C892 0.929 . S
H885 C894 0.930 . S
H886 C896 0.930 . S
H887 C899 0.929 . S
H888 C902 0.930 . S
H889 C904 0.960 . S
H890 C904 0.960 . S
H891 C904 0.960 . S
C892 H884 0.929 . S
C892 C893 1.377 . S
C892 C894 1.384 . S
C893 C892 1.377 . S
C893 C899 1.390 . S
C894 H885 0.930 . S
C894 C892 1.384 . S
C894 C895 1.372 . S
C895 C894 1.372 . S
C895 C896 1.400 . S
C895 C900 1.490 . S
C896 H886 0.930 . S
C896 C895 1.400 . S
C896 C899 1.386 . S
H897 C913 0.930 . S
H898 C914 0.931 . S
C899 H887 0.929 . S
C899 C893 1.390 . S
C899 C896 1.386 . S
C900 C895 1.490 . S
C900 C902 1.395 . S
C900 C903 1.403 . S
H901 C907 0.930 . S
C902 H888 0.930 . S
C902 C900 1.395 . S
C902 C905 1.403 . S
C903 C900 1.403 . S
C903 C904 1.524 . S
C903 C907 1.400 . S
C904 H889 0.960 . S
C904 H890 0.960 . S
C904 H891 0.960 . S
C904 C903 1.524 . S
C905 C902 1.403 . S
C905 C906 1.392 . S
C905 C909 1.495 . S
C906 C905 1.392 . S
C906 C907 1.385 . S
C906 C908 1.478 . S
C907 H901 0.930 . S
C907 C903 1.400 . S
C907 C906 1.385 . S
C908 C906 1.478 . S
C908 C910 1.381 . S
C908 C914 1.383 . S
C909 C905 1.495 . S
C909 H915 0.959 . S
C909 H916 0.961 . S
C909 H917 0.960 . S
C910 C908 1.381 . S
C910 C911 1.394 . S
C910 H918 0.930 . S
C911 C910 1.394 . S
C911 C912 1.383 . S
C911 H919 0.929 . S
C912 C911 1.383 . S
C912 C913 1.377 . S
C913 H897 0.930 . S
C913 C912 1.377 . S
C913 C914 1.379 . S
C914 H898 0.931 . S
C914 C908 1.383 . S
C914 C913 1.379 . S
H915 C909 0.959 . S
H916 C909 0.961 . S
H917 C909 0.960 . S
H918 C910 0.930 . S
H919 C911 0.929 . S
H920 C928 0.929 . S
H921 C930 0.930 . S
H922 C932 0.930 . S
H923 C935 0.929 . S
H924 C938 0.930 . S
H925 C940 0.960 . S
H926 C940 0.960 . S
H927 C940 0.960 . S
C928 H920 0.929 . S
C928 C929 1.377 . S
C928 C930 1.384 . S
C929 C928 1.377 . S
C929 C935 1.390 . S
C930 H921 0.930 . S
C930 C928 1.384 . S
C930 C931 1.372 . S
C931 C930 1.372 . S
C931 C932 1.400 . S
C931 C936 1.490 . S
C932 H922 0.930 . S
C932 C931 1.400 . S
C932 C935 1.386 . S
H933 C949 0.930 . S
H934 C950 0.931 . S
C935 H923 0.929 . S
C935 C929 1.390 . S
C935 C932 1.386 . S
C936 C931 1.490 . S
C936 C938 1.395 . S
C936 C939 1.403 . S
H937 C943 0.930 . S
C938 H924 0.930 . S
C938 C936 1.395 . S
C938 C941 1.403 . S
C939 C936 1.403 . S
C939 C940 1.524 . S
C939 C943 1.400 . S
C940 H925 0.960 . S
C940 H926 0.960 . S
C940 H927 0.960 . S
C940 C939 1.524 . S
C941 C938 1.403 . S
C941 C942 1.392 . S
C941 C945 1.495 . S
C942 C941 1.392 . S
C942 C943 1.385 . S
C942 C944 1.478 . S
C943 H937 0.930 . S
C943 C939 1.400 . S
C943 C942 1.385 . S
C944 C942 1.478 . S
C944 C946 1.381 . S
C944 C950 1.383 . S
C945 C941 1.495 . S
C945 H951 0.959 . S
C945 H952 0.961 . S
C945 H953 0.960 . S
C946 C944 1.381 . S
C946 C947 1.394 . S
C946 H954 0.930 . S
C947 C946 1.394 . S
C947 C948 1.383 . S
C947 H955 0.929 . S
C948 C947 1.383 . S
C948 C949 1.377 . S
C949 H933 0.930 . S
C949 C948 1.377 . S
C949 C950 1.379 . S
C950 H934 0.931 . S
C950 C944 1.383 . S
C950 C949 1.379 . S
H951 C945 0.959 . S
H952 C945 0.961 . S
H953 C945 0.960 . S
H954 C946 0.930 . S
H955 C947 0.929 . S
H956 C964 0.929 . S
H957 C966 0.930 . S
H958 C968 0.930 . S
H959 C971 0.929 . S
H960 C974 0.930 . S
H961 C976 0.960 . S
H962 C976 0.960 . S
H963 C976 0.960 . S
C964 H956 0.929 . S
C964 C965 1.377 . S
C964 C966 1.384 . S
C965 C964 1.377 . S
C965 C971 1.390 . S
C966 H957 0.930 . S
C966 C964 1.384 . S
C966 C967 1.372 . S
C967 C966 1.372 . S
C967 C968 1.400 . S
C967 C972 1.490 . S
C968 H958 0.930 . S
C968 C967 1.400 . S
C968 C971 1.386 . S
H969 C985 0.930 . S
H970 C986 0.931 . S
C971 H959 0.929 . S
C971 C965 1.390 . S
C971 C968 1.386 . S
C972 C967 1.490 . S
C972 C974 1.395 . S
C972 C975 1.403 . S
H973 C979 0.930 . S
C974 H960 0.930 . S
C974 C972 1.395 . S
C974 C977 1.403 . S
C975 C972 1.403 . S
C975 C976 1.524 . S
C975 C979 1.400 . S
C976 H961 0.960 . S
C976 H962 0.960 . S
C976 H963 0.960 . S
C976 C975 1.524 . S
C977 C974 1.403 . S
C977 C978 1.392 . S
C977 C981 1.495 . S
C978 C977 1.392 . S
C978 C979 1.385 . S
C978 C980 1.478 . S
C979 H973 0.930 . S
C979 C975 1.400 . S
C979 C978 1.385 . S
C980 C978 1.478 . S
C980 C982 1.381 . S
C980 C986 1.383 . S
C981 C977 1.495 . S
C981 H987 0.959 . S
C981 H988 0.961 . S
C981 H989 0.960 . S
C982 C980 1.381 . S
C982 C983 1.394 . S
C982 H990 0.930 . S
C983 C982 1.394 . S
C983 C984 1.383 . S
C983 H991 0.929 . S
C984 C983 1.383 . S
C984 C985 1.377 . S
C985 H969 0.930 . S
C985 C984 1.377 . S
C985 C986 1.379 . S
C986 H970 0.931 . S
C986 C980 1.383 . S
C986 C985 1.379 . S
H987 C981 0.959 . S
H988 C981 0.961 . S
H989 C981 0.960 . S
H990 C982 0.930 . S
H991 C983 0.929 . S
C281 C237 1.453 . S
C300 C20 1.459 . S
C317 C271 1.453 . S
C336 C54 1.460 . S
C353 C169 1.449 . S
C372 C88 1.453 . S
C389 C203 1.451 . S
C408 C122 1.488 . S
C425 C101 1.454 . S
C444 C156 1.462 . S
C461 C135 1.451 . S
C480 C190 1.488 . S
C497 C33 1.450 . S
C516 C224 1.453 . S
C533 C258 1.471 . S
C552 C67 1.427 . S
C569 C2 0.220 . S
C588 C70 0.311 . S
C605 C104 0.211 . S
C624 C36 0.157 . S
C641 C206 0.236 . S
C660 C138 0.180 . S
C677 C172 0.202 . S
C696 C240 0.222 . S
C713 C5 1.852 . S
C732 C243 1.858 . S
C749 C141 1.854 . S
C768 C39 1.854 . S
C785 C175 1.852 . S
C804 C73 1.858 . S
C821 C209 1.850 . S
C840 C107 1.839 . S
C857 C77 1.058 . S
C876 C179 1.087 . S
C893 C111 1.043 . S
C912 C213 1.004 . S
C929 C247 1.053 . S
C948 C9 1.042 . S
C965 C145 1.058 . S
C984 C43 1.085 . S
