# Generated by pormake.
# Topology umf, (4)-cn, num edge types: 1
# Building blocks:
#     Node 0, Type 0, BuildingBlock: ESEHIV_clean_sbu_0, # of connection points: 4
#     Node 1, Type 0, BuildingBlock: ESEHIV_clean_sbu_0, # of connection points: 4
#     Node 2, Type 0, BuildingBlock: ESEHIV_clean_sbu_0, # of connection points: 4
#     Node 3, Type 0, BuildingBlock: ESEHIV_clean_sbu_0, # of connection points: 4
#     Node 4, Type 0, BuildingBlock: ESEHIV_clean_sbu_0, # of connection points: 4
#     Node 5, Type 0, BuildingBlock: ESEHIV_clean_sbu_0, # of connection points: 4
#     Node 6, Type 0, BuildingBlock: ESEHIV_clean_sbu_0, # of connection points: 4
#     Node 7, Type 0, BuildingBlock: ESEHIV_clean_sbu_0, # of connection points: 4
#     Edge 8, Type (0, 0), BuildingBlock: KIFKEQ_clean_linker_1, # of connection points: 2
#     Edge 9, Type (0, 0), BuildingBlock: KIFKEQ_clean_linker_1, # of connection points: 2
#     Edge 10, Type (0, 0), BuildingBlock: KIFKEQ_clean_linker_1, # of connection points: 2
#     Edge 11, Type (0, 0), BuildingBlock: KIFKEQ_clean_linker_1, # of connection points: 2
#     Edge 12, Type (0, 0), BuildingBlock: KIFKEQ_clean_linker_1, # of connection points: 2
#     Edge 13, Type (0, 0), BuildingBlock: KIFKEQ_clean_linker_1, # of connection points: 2
#     Edge 14, Type (0, 0), BuildingBlock: KIFKEQ_clean_linker_1, # of connection points: 2
#     Edge 15, Type (0, 0), BuildingBlock: KIFKEQ_clean_linker_1, # of connection points: 2
#     Edge 16, Type (0, 0), BuildingBlock: KIFKEQ_clean_linker_1, # of connection points: 2
#     Edge 17, Type (0, 0), BuildingBlock: KIFKEQ_clean_linker_1, # of connection points: 2
#     Edge 18, Type (0, 0), BuildingBlock: KIFKEQ_clean_linker_1, # of connection points: 2
#     Edge 19, Type (0, 0), BuildingBlock: KIFKEQ_clean_linker_1, # of connection points: 2
#     Edge 20, Type (0, 0), BuildingBlock: KIFKEQ_clean_linker_1, # of connection points: 2
#     Edge 21, Type (0, 0), BuildingBlock: KIFKEQ_clean_linker_1, # of connection points: 2
#     Edge 22, Type (0, 0), BuildingBlock: KIFKEQ_clean_linker_1, # of connection points: 2
#     Edge 23, Type (0, 0), BuildingBlock: KIFKEQ_clean_linker_1, # of connection points: 2
# Relax obj value: 0.065
# Max RMSD: 0.103
# Mean RMSD: 0.103
data_MOF--net-umf--node1-ESEHIV_clean_sbu_0--edge1-KIFKEQ_clean_linker_1
_symmetry_space_group_name_H-M    P1
_symmetry_Int_Tables_number       1
_symmetry_cell_setting            triclinic
loop_
_symmetry_equiv_pos_as_xyz
'x, y, z'
_cell_length_a     34.318836
_cell_length_b     34.290995
_cell_length_c     52.463973
_cell_angle_alpha  90.261838
_cell_angle_beta   89.681427
_cell_angle_gamma 89.247961
loop_
_atom_site_label
_atom_site_type_symbol
_atom_site_fract_x
_atom_site_fract_y
_atom_site_fract_z
_atom_type_partial_charge
Cu0 Cu 0.08117 0.2673 0.16914 0.0
N1 N 0.11304 0.22493 0.1592 0.0
N2 N 0.1271 0.1611 0.15543 0.0
C3 C 0.09995 0.18831 0.16171 0.0
C4 C 0.1589 0.18151 0.14866 0.0
C5 C 0.15012 0.22095 0.15093 0.0
O6 O 0.0705 0.2518 0.20469 0.0
C7 C 0.04649 0.26239 0.12134 0.0
O8 O 0.08329 0.25658 0.11533 0.0
H9 H 0.07113 0.18187 0.16891 0.0
H10 H 0.16957 0.24469 0.14699 0.0
N11 N 0.10416 0.31728 0.16781 0.0
N12 N 0.10957 0.38277 0.16823 0.0
C13 C 0.08501 0.35208 0.16898 0.0
C14 C 0.1421 0.32634 0.16613 0.0
C15 C 0.14551 0.36638 0.16638 0.0
C16 C 0.09693 0.25806 0.2213 0.0
O17 O 0.12544 0.28158 0.21542 0.0
H18 H 0.05368 0.3547 0.17094 0.0
H19 H 0.16585 0.30543 0.16533 0.0
O20 O 0.0373 0.26802 0.14479 0.0
H21 H 0.18647 0.16892 0.14248 0.0
H22 H 0.17259 0.38208 0.16525 0.0
Cu23 Cu 0.75737 0.08445 0.65601 0.0
N24 N 0.80164 0.05262 0.65525 0.0
N25 N 0.86388 0.03381 0.65832 0.0
C26 C 0.83756 0.06268 0.66269 0.0
C27 C 0.84359 1.00445 0.64775 0.0
C28 C 0.80519 0.01625 0.64576 0.0
O29 O 0.76794 0.12656 0.68083 0.0
C30 C 0.77272 0.10239 0.60345 0.0
O31 O 0.80912 0.10537 0.61075 0.0
H32 H 0.84423 0.0908 0.6709 0.0
H33 H 0.78165 0.99985 0.63751 0.0
N34 N 0.71554 0.05487 0.66781 0.0
N35 N 0.65517 0.03491 0.67667 0.0
C36 C 0.67711 0.06303 0.66597 0.0
C37 C 0.71794 0.0204 0.67989 0.0
C38 C 0.68087 1.00809 0.68542 0.0
C39 C 0.77212 0.11557 0.70397 0.0
O40 O 0.76749 0.07848 0.70915 0.0
H41 H 0.66558 0.08929 0.65728 0.0
H42 H 0.74484 1.00532 0.68448 0.0
O43 O 0.74619 0.09799 0.62035 0.0
H44 H 0.85581 0.97694 0.64113 0.0
H45 H 0.67347 0.98119 0.69489 0.0
Cu46 Cu 1.00948 0.78231 0.17525 0.0
N47 N 0.04896 0.81818 0.1815 0.0
N48 N 0.08101 0.87473 0.18049 0.0
C49 C 0.0484 0.85559 0.17374 0.0
C50 C 0.10289 0.84808 0.19307 0.0
C51 C 0.08309 0.81324 0.19361 0.0
O52 O 0.96494 0.80103 0.19616 0.0
C53 C 0.99079 0.7591 0.12248 0.0
O54 O 0.97451 0.72729 0.13113 0.0
H55 H 0.02419 0.86849 0.16353 0.0
H56 H 0.09299 0.78619 0.20207 0.0
N57 N 0.0249 0.73228 0.18699 0.0
N58 N 0.0431 0.66924 0.19117 0.0
C59 C 0.03434 0.6985 0.17467 0.0
C60 C 0.0278 0.72386 0.21191 0.0
C61 C 0.03893 0.68542 0.21455 0.0
C62 C 0.94076 0.82827 0.19063 0.0
O63 O 0.94178 0.84369 0.16776 0.0
H64 H 0.03529 0.69548 0.15415 0.0
H65 H 0.02189 0.74442 0.22719 0.0
O66 O 1.00353 0.78436 0.13814 0.0
H67 H 0.13144 0.85309 0.20099 0.0
H68 H 0.04291 0.67036 0.23245 0.0
Cu69 Cu 0.25663 0.98193 0.67443 0.0
N70 N 0.21539 0.01718 0.67788 0.0
N71 N 0.15374 0.03856 0.6779 0.0
C72 C 0.1778 1.00726 0.67611 0.0
C73 C 0.17723 0.06948 0.68105 0.0
C74 C 0.21539 0.05617 0.68089 0.0
O75 O 0.2408 0.9367 0.69495 0.0
C76 C 0.27234 1.00166 0.62397 0.0
O77 O 0.28266 0.03395 0.63555 0.0
H78 H 0.16842 0.97752 0.67342 0.0
H79 H 0.24123 0.07375 0.68227 0.0
N80 N 0.30187 1.00446 0.68738 0.0
N81 N 0.36407 0.02076 0.69338 0.0
C82 C 0.33886 1.00052 0.67883 0.0
C83 C 0.30375 0.02794 0.70793 0.0
C84 C 0.34197 0.03802 0.71169 0.0
C85 C 0.25887 0.92539 0.71488 0.0
O86 O 0.29308 0.94017 0.71994 0.0
H87 H 0.3471 0.98265 0.66257 0.0
H88 H 0.27898 0.03683 0.7195 0.0
O89 O 0.26145 0.97292 0.63757 0.0
H90 H 0.16763 0.09959 0.68255 0.0
H91 H 0.35256 0.05687 0.72665 0.0
Cu92 Cu 0.03894 0.7723 0.88112 0.0
N93 N 1.00591 0.81549 0.87788 0.0
N94 N 0.98712 0.87779 0.87421 0.0
C95 C 0.01638 0.85153 0.87088 0.0
C96 C 0.95677 0.85709 0.88315 0.0
C97 C 0.9685 0.81866 0.88542 0.0
O98 O 0.08385 0.78063 0.85855 0.0
C99 C 0.04779 0.79326 0.93333 0.0
O100 O 0.04631 0.82887 0.92426 0.0
H101 H 0.04539 0.85857 0.86449 0.0
H102 H 0.95167 0.79508 0.89329 0.0
N103 N 1.01235 0.72917 0.86881 0.0
N104 N 0.99187 0.66826 0.86267 0.0
C105 C 0.01508 0.6918 0.87649 0.0
C106 C 0.98654 0.72937 0.84963 0.0
C107 C 0.97387 0.6919 0.84577 0.0
C108 C 0.11003 0.8062 0.86169 0.0
O109 O 0.11092 0.82585 0.88323 0.0
H110 H 0.03435 0.68202 0.89149 0.0
H111 H 0.97773 0.75504 0.83911 0.0
O112 O 0.04876 0.76461 0.91769 0.0
H113 H 0.92888 0.86914 0.88915 0.0
H114 H 0.95288 0.68284 0.83169 0.0
Cu115 Cu 0.2382 0.01644 0.38159 0.0
N116 N 0.20205 0.97587 0.38077 0.0
N117 N 0.14492 0.94508 0.38346 0.0
C118 C 0.1629 0.97959 0.38004 0.0
C119 C 0.17411 0.91857 0.38591 0.0
C120 C 0.20922 0.93764 0.38433 0.0
O121 O 0.21803 0.05817 0.35911 0.0
C122 C 0.22027 0.02614 0.43461 0.0
O123 O 0.18445 0.01947 0.42729 0.0
H124 H 0.14802 1.0074 0.37805 0.0
H125 H 0.23792 0.92483 0.38676 0.0
N126 N 0.286 0.99811 0.36787 0.0
N127 N 0.34938 0.9826 0.36212 0.0
C128 C 0.32188 0.99687 0.37851 0.0
C129 C 0.29098 0.98395 0.34413 0.0
C130 C 0.32976 0.97442 0.34053 0.0
C131 C 0.19232 0.08422 0.36451 0.0
O132 O 0.17894 0.08689 0.38797 0.0
H133 H 0.32776 1.00688 0.39768 0.0
H134 H 0.26789 0.98088 0.33034 0.0
O135 O 0.24686 0.02974 0.41768 0.0
H136 H 0.17048 0.88789 0.3899 0.0
H137 H 0.34238 0.96197 0.32333 0.0
Cu138 Cu 0.94123 0.27061 0.89453 0.0
N139 N 0.9762 0.22887 0.89285 0.0
N140 N 0.99867 0.16796 0.88801 0.0
C141 C 0.96818 0.19263 0.88476 0.0
C142 C 0.02695 0.18964 0.8986 0.0
C143 C 1.01292 0.22722 0.90163 0.0
O144 O 0.8991 0.25783 0.8704 0.0
C145 C 0.94918 0.29546 0.94592 0.0
O146 O 0.97678 0.31667 0.93583 0.0
H147 H 0.9399 0.1842 0.87774 0.0
H148 H 0.02801 0.25143 0.9102 0.0
N149 N 0.96677 0.31525 0.88294 0.0
N150 N 0.98168 0.37692 0.8738 0.0
C151 C 0.95549 0.35301 0.88479 0.0
C152 C 1.00108 0.31544 0.8704 0.0
C153 C 1.01032 0.35329 0.86473 0.0
C154 C 0.90922 0.25562 0.84689 0.0
O155 O 0.94548 0.26341 0.84089 0.0
H156 H 0.92859 0.36264 0.89381 0.0
H157 H 0.01815 0.28973 0.86553 0.0
O158 O 0.92787 0.27501 0.93119 0.0
H159 H 0.0555 0.17903 0.90412 0.0
H160 H 0.0364 0.36272 0.85498 0.0
Cu161 Cu 0.75252 0.95143 0.38341 0.0
N162 N 0.79248 0.91937 0.3958 0.0
N163 N 0.85588 0.90595 0.40183 0.0
C164 C 0.82907 0.92384 0.38711 0.0
C165 C 0.83511 0.88871 0.42051 0.0
C166 C 0.7959 0.8974 0.41689 0.0
O167 O 0.76999 0.95833 0.34774 0.0
C168 C 0.73198 0.99751 0.42653 0.0
O169 O 0.70662 0.96961 0.42965 0.0
H170 H 0.83599 0.94223 0.37108 0.0
H171 H 0.77216 0.89072 0.42973 0.0
N172 N 0.70229 0.92929 0.38437 0.0
N173 N 0.6369 0.92496 0.38396 0.0
C174 C 0.66812 0.94775 0.37931 0.0
C175 C 0.69241 0.89348 0.39226 0.0
C176 C 0.6523 0.89071 0.39202 0.0
C177 C 0.76396 0.93037 0.33203 0.0
O178 O 0.74034 0.90245 0.33889 0.0
H179 H 0.66625 0.97787 0.37333 0.0
H180 H 0.71292 0.87118 0.39824 0.0
O181 O 0.75374 0.99711 0.40661 0.0
H182 H 0.84746 0.87349 0.43665 0.0
H183 H 0.63583 0.86535 0.39746 0.0
H184 H 0.1569 0.44111 0.18398 0.0
H185 H 0.04068 0.4195 0.15668 0.0
H186 H 0.1418 0.51029 0.1871 0.0
H187 H 0.02508 0.48918 0.16062 0.0
H188 H 0.02251 0.62418 0.15041 0.0
H189 H 0.0385 0.55488 0.14339 0.0
H190 H 0.10377 0.55349 0.2135 0.0
H191 H 0.08874 0.62218 0.22004 0.0
C192 C 0.1281 0.45097 0.17849 0.0
C193 C 0.10011 0.42422 0.17005 0.0
C194 C 0.11926 0.49089 0.18056 0.0
C195 C 0.08208 0.50566 0.17427 0.0
C196 C 0.05412 0.47909 0.16547 0.0
C197 C 0.06295 0.43894 0.16349 0.0
C198 C 0.04065 0.60912 0.16412 0.0
C199 C 0.05415 0.62894 0.18586 0.0
C200 C 0.04949 0.56924 0.16026 0.0
C201 C 0.07247 0.54828 0.17788 0.0
C202 C 0.08639 0.56846 0.19933 0.0
C203 C 0.07739 0.60799 0.20324 0.0
H204 H 0.41679 0.03324 0.73065 0.0
H205 H 0.40639 1.01351 0.64964 0.0
H206 H 0.48711 0.03809 0.72604 0.0
H207 H 0.47723 0.01728 0.6451 0.0
H208 H 0.60194 0.06787 0.6449 0.0
H209 H 0.53093 0.06498 0.64852 0.0
H210 H 0.54244 0.99504 0.71637 0.0
H211 H 0.613 0.99883 0.71316 0.0
C212 C 0.42947 0.03006 0.71182 0.0
C213 C 0.40585 0.02304 0.69051 0.0
C214 C 0.46989 0.03244 0.70921 0.0
C215 C 0.48784 0.02795 0.68522 0.0
C216 C 0.46428 0.02116 0.66383 0.0
C217 C 0.42374 0.01857 0.66647 0.0
C218 C 0.58927 0.05219 0.66069 0.0
C219 C 0.61322 0.03358 0.67873 0.0
C220 C 0.5486 0.05018 0.66261 0.0
C221 C 0.53101 0.02979 0.68274 0.0
C222 C 0.555 1.01131 0.70077 0.0
C223 C 0.59553 1.01314 0.69878 0.0
H224 H 0.94851 0.42782 0.90752 0.0
H225 H 1.01173 0.42115 0.83624 0.0
H226 H 0.94874 0.49918 0.90521 0.0
H227 H 1.01271 0.49202 0.83418 0.0
H228 H 0.97313 0.61774 0.825 0.0
H229 H 0.96745 0.54725 0.82808 0.0
H230 H 0.99731 0.55295 0.90784 0.0
H231 H 1.00205 0.62389 0.90491 0.0
C232 C 0.96218 0.44158 0.8913 0.0
C233 C 0.98019 0.41887 0.8721 0.0
C234 C 0.96267 0.48238 0.8901 0.0
C235 C 0.98078 0.50123 0.86952 0.0
C236 C 0.99821 0.47843 0.85017 0.0
C237 C 0.99799 0.4378 0.85147 0.0
C238 C 0.97803 0.60411 0.84328 0.0
C239 C 0.9881 0.62652 0.8647 0.0
C240 C 0.97513 0.56362 0.84498 0.0
C241 C 0.98206 0.54449 0.86818 0.0
C242 C 0.99151 0.56687 0.88974 0.0
C243 C 0.99466 0.60745 0.888 0.0
H244 H 0.3869 0.97019 0.40715 0.0
H245 H 0.40688 0.98262 0.32633 0.0
H246 H 0.45673 0.95847 0.41339 0.0
H247 H 0.47606 0.96993 0.3324 0.0
H248 H 0.60406 0.98046 0.35359 0.0
H249 H 0.535 0.99705 0.34955 0.0
H250 H 0.50673 0.90892 0.4049 0.0
H251 H 0.57576 0.89312 0.40947 0.0
C252 C 0.4061 0.97064 0.39073 0.0
C253 C 0.39094 0.97716 0.36621 0.0
C254 C 0.44619 0.96352 0.39426 0.0
C255 C 0.47231 0.96309 0.37339 0.0
C256 C 0.45714 0.97036 0.34899 0.0
C257 C 0.41718 0.97721 0.34546 0.0
C258 C 0.58323 0.96484 0.3651 0.0
C259 C 0.59582 0.93525 0.38176 0.0
C260 C 0.54344 0.97413 0.36261 0.0
C261 C 0.51497 0.95429 0.37682 0.0
C262 C 0.52763 0.92513 0.39379 0.0
C263 C 0.56738 0.9157 0.39617 0.0
H264 H 0.96891 0.3499 0.98123 0.0
H265 H 0.92915 0.23151 0.97452 0.0
H266 H 0.98118 0.34014 1.02651 0.0
H267 H 0.94188 0.22149 1.02005 0.0
H268 H 0.04096 0.21013 0.08299 0.0
H269 H 1.00606 0.21757 0.04293 0.0
H270 H 0.95478 0.32548 0.07049 0.0
H271 H 0.98961 0.31746 0.11107 0.0
C272 C 0.96182 0.32203 0.98959 0.0
C273 C 0.94808 0.29148 0.9742 0.0
C274 C 0.96873 0.31648 1.01564 0.0
C275 C 0.96276 0.27997 1.027 0.0
C276 C 0.947 0.24995 1.01191 0.0
C277 C 0.93939 0.25575 0.98585 0.0
C278 C 0.02119 0.23479 0.08083 0.0
C279 C 0.01778 0.26303 0.10025 0.0
C280 C 1.0011 0.23904 0.05784 0.0
C281 C 0.97765 0.2722 0.05334 0.0
C282 C 0.97269 0.29963 0.07328 0.0
C283 C 0.99229 0.2949 0.09662 0.0
H284 H 0.81839 0.12067 0.56221 0.0
H285 H 0.70798 0.06997 0.58203 0.0
H286 H 0.80805 0.10395 0.51756 0.0
H287 H 0.69841 0.05128 0.53787 0.0
H288 H 0.67633 0.03254 0.45583 0.0
H289 H 0.6845 0.06572 0.49649 0.0
H290 H 0.80958 0.05286 0.48873 0.0
H291 H 0.80091 0.02191 0.44715 0.0
C292 C 0.79171 0.10618 0.55701 0.0
C293 C 0.76399 0.09682 0.57581 0.0
C294 C 0.78592 0.09613 0.53132 0.0
C295 C 0.75246 0.07581 0.52365 0.0
C296 C 0.72426 0.06751 0.54252 0.0
C297 C 0.72978 0.07814 0.5681 0.0
C298 C 0.7056 0.03789 0.46253 0.0
C299 C 0.73796 0.02486 0.44819 0.0
C300 C 0.71038 0.0564 0.48615 0.0
C301 C 0.74774 0.06144 0.49661 0.0
C302 C 0.78027 0.05007 0.48152 0.0
C303 C 0.77541 0.0323 0.45753 0.0
H304 H 0.96683 0.71287 0.08256 0.0
H305 H 0.03274 0.81625 0.09921 0.0
H306 H 0.9819 0.72015 0.03725 0.0
H307 H 0.04894 0.8227 0.05437 0.0
H308 H 0.03754 0.84885 0.97017 0.0
H309 H 0.02286 0.84017 1.01498 0.0
H310 H 0.03187 0.71514 1.00541 0.0
H311 H 0.04524 0.72395 0.95993 0.0
C312 C 0.98451 0.73716 0.0766 0.0
C313 C 0.99826 0.76411 0.09464 0.0
C314 C 0.99353 0.74113 0.05058 0.0
C315 C 0.01672 0.77205 0.0419 0.0
C316 C 0.03043 0.7989 0.06005 0.0
C317 C 0.02121 0.7951 0.08594 0.0
C318 C 0.03675 0.81941 0.97755 0.0
C319 C 0.04274 0.78711 0.96129 0.0
C320 C 0.02844 0.81441 1.00345 0.0
C321 C 0.02616 0.77691 1.01411 0.0
C322 C 0.0328 0.74449 0.99794 0.0
C323 C 0.04091 0.74952 0.97185 0.0
H324 H 0.29151 0.03565 0.45786 0.0
H325 H 0.17091 1.01056 0.47417 0.0
H326 H 0.30709 0.02674 0.503 0.0
H327 H 0.18646 1.00178 0.51896 0.0
H328 H 0.2324 0.95087 0.59312 0.0
H329 H 0.22192 0.95614 0.5471 0.0
H330 H 0.29467 0.05784 0.54491 0.0
H331 H 0.30528 0.05247 0.59064 0.0
C332 C 0.26827 0.02858 0.47104 0.0
C333 C 0.22992 0.02397 0.46227 0.0
C334 C 0.27721 0.0234 0.49693 0.0
C335 C 0.2481 1.01311 0.51464 0.0
C336 C 0.20976 1.00895 0.50585 0.0
C337 C 0.20079 1.01443 0.48011 0.0
C338 C 0.24663 0.97395 0.58274 0.0
C339 C 0.26955 1.00129 0.59564 0.0
C340 C 0.24035 0.97722 0.55639 0.0
C341 C 0.25719 1.00765 0.54227 0.0
C342 C 0.28143 0.03393 0.55506 0.0
C343 C 0.28736 0.03091 0.58137 0.0
H344 H 0.12741 0.2795 0.26691 0.0
H345 H 0.07972 0.1805 0.22753 0.0
H346 H 0.14765 0.23732 0.30198 0.0
H347 H 0.10065 0.1379 0.26256 0.0
H348 H 0.19612 0.07414 0.31248 0.0
H349 H 0.16738 0.11536 0.27933 0.0
H350 H 0.12219 0.19391 0.33709 0.0
H351 H 0.15038 0.15247 0.37026 0.0
C352 C 0.1204 0.24881 0.26604 0.0
C353 C 0.10143 0.23354 0.24455 0.0
C354 C 0.13214 0.22456 0.28613 0.0
C355 C 0.12608 0.18409 0.2851 0.0
C356 C 0.10605 0.16889 0.26393 0.0
C357 C 0.09353 0.19338 0.24401 0.0
C358 C 0.1801 0.10022 0.31815 0.0
C359 C 0.17582 0.10997 0.34414 0.0
C360 C 0.16328 0.12368 0.29911 0.0
C361 C 0.14227 0.15795 0.30547 0.0
C362 C 0.13823 0.16783 0.33145 0.0
C363 C 0.15443 0.14401 0.35049 0.0
H364 H 0.83644 0.22186 0.85105 0.0
H365 H 0.9223 0.2575 0.79572 0.0
H366 H 0.79759 0.19368 0.81663 0.0
H367 H 0.88449 0.2288 0.76178 0.0
H368 H 0.80074 0.19071 0.70091 0.0
H369 H 0.8279 0.22985 0.73563 0.0
H370 H 0.80094 0.13838 0.78899 0.0
H371 H 0.77322 0.10023 0.75478 0.0
C372 C 0.84685 0.22407 0.8316 0.0
C373 C 0.8827 0.24178 0.82631 0.0
C374 C 0.82474 0.20765 0.81181 0.0
C375 C 0.83784 0.20863 0.78622 0.0
C376 C 0.87296 0.22775 0.78101 0.0
C377 C 0.89495 0.24399 0.80068 0.0
C378 C 0.80006 0.17933 0.72013 0.0
C379 C 0.78498 0.14213 0.72489 0.0
C380 C 0.81592 0.20162 0.74008 0.0
C381 C 0.81697 0.18734 0.76531 0.0
C382 C 0.80037 0.15081 0.77006 0.0
C383 C 0.7847 0.12865 0.75023 0.0
H384 H 0.74336 0.89358 0.28816 0.0
H385 H 0.84054 0.95033 0.32376 0.0
H386 H 0.78585 0.87142 0.25328 0.0
H387 H 0.88344 0.92709 0.28909 0.0
H388 H 0.94884 0.82621 0.24264 0.0
H389 H 0.90655 0.85637 0.27517 0.0
H390 H 0.82934 0.89814 0.21645 0.0
H391 H 0.87215 0.86889 0.18381 0.0
C392 C 0.77368 0.90201 0.28828 0.0
C393 C 0.7884 0.92404 0.30871 0.0
C394 C 0.79806 0.88918 0.26829 0.0
C395 C 0.83814 0.89715 0.26846 0.0
C396 C 0.85275 0.92019 0.28848 0.0
C397 C 0.82808 0.93389 0.30821 0.0
C398 C 0.9228 0.84173 0.23663 0.0
C399 C 0.91387 0.8449 0.21054 0.0
C400 C 0.89875 0.85935 0.25529 0.0
C401 C 0.86463 0.87989 0.24844 0.0
C402 C 0.85538 0.88257 0.22239 0.0
C403 C 0.87992 0.86575 0.20369 0.0
H404 H 0.18369 0.89787 0.71515 0.0
H405 H 0.28945 0.89766 0.75938 0.0
H406 H 0.14989 0.86521 0.75006 0.0
H407 H 0.25589 0.86483 0.794 0.0
H408 H 0.16978 0.85842 0.86182 0.0
H409 H 0.2067 0.88263 0.82553 0.0
H410 H 0.14439 0.80539 0.77544 0.0
H411 H 0.10708 0.78134 0.81181 0.0
C412 C 0.19995 0.89027 0.73209 0.0
C413 C 0.23932 0.90068 0.73439 0.0
C414 C 0.18056 0.87146 0.75214 0.0
C415 C 0.19998 0.86269 0.77506 0.0
C416 C 0.23974 0.87173 0.77689 0.0
C417 C 0.2591 0.89037 0.75687 0.0
C418 C 0.1642 0.8462 0.84315 0.0
C419 C 0.13538 0.81785 0.83987 0.0
C420 C 0.18553 0.86003 0.82226 0.0
C421 C 0.17858 0.84608 0.79742 0.0
C422 C 0.15028 0.81714 0.7942 0.0
C423 C 0.12909 0.8031 0.81514 0.0
H424 H 0.18342 0.10623 0.16426 0.0
H425 H 0.06039 0.12078 0.14989 0.0
H426 H 0.1745 0.03585 0.16887 0.0
H427 H 0.05127 0.05112 0.1552 0.0
H428 H 0.05203 0.92053 0.14269 0.0
H429 H 0.06533 0.98898 0.13505 0.0
H430 H 0.14461 0.98974 0.19865 0.0
H431 H 0.13121 0.92111 0.2064 0.0
C432 C 0.15456 0.09443 0.16191 0.0
C433 C 0.12261 0.11926 0.15683 0.0
C434 C 0.14935 0.05414 0.16482 0.0
C435 C 0.11212 0.03771 0.16248 0.0
C436 C 0.08041 0.06255 0.15689 0.0
C437 C 0.08558 0.10268 0.15413 0.0
C438 C 0.0721 0.9352 0.15521 0.0
C439 C 0.0902 0.9151 0.17536 0.0
C440 C 0.07981 0.97458 0.15077 0.0
C441 C 0.10589 0.99508 0.16631 0.0
C442 C 0.1247 0.97482 0.18611 0.0
C443 C 0.11695 0.93537 0.19058 0.0
H444 H 0.1103 0.98733 0.65138 0.0
H445 H 0.10232 0.09013 0.69908 0.0
H446 H 0.03979 0.98653 0.6479 0.0
H447 H 0.03132 0.08928 0.6957 0.0
H448 H 0.90958 0.09771 0.6587 0.0
H449 H 0.97989 0.09938 0.66445 0.0
H450 H 0.98249 0.97421 0.67358 0.0
H451 H 0.91214 0.97257 0.66768 0.0
C452 C 0.09346 1.00952 0.66139 0.0
C453 C 0.11193 0.03865 0.67566 0.0
C454 C 0.05298 1.00904 0.65941 0.0
C455 C 0.0299 0.03766 0.67168 0.0
C456 C 0.04832 0.06702 0.68582 0.0
C457 C 0.08895 0.06754 0.68775 0.0
C458 C 0.92505 0.0706 0.66225 0.0
C459 C 0.90526 0.03496 0.66264 0.0
C460 C 0.96538 0.07157 0.66556 0.0
C461 C 0.98682 0.03692 0.66937 0.0
C462 C 0.96691 1.00136 0.67022 0.0
C463 C 0.92661 1.00039 0.66684 0.0
H464 H 0.95685 0.12852 0.85288 0.0
H465 H 0.04145 0.11327 0.91278 0.0
H466 H 0.95489 0.05798 0.84679 0.0
H467 H 0.03943 0.043 0.9068 0.0
H468 H 0.05271 0.92122 0.87679 0.0
H469 H 0.05682 0.99168 0.87699 0.0
H470 H 0.93172 1.00083 0.86966 0.0
H471 H 0.92767 0.92991 0.86823 0.0
C472 C 0.97497 0.11013 0.86477 0.0
C473 C 0.99925 0.12652 0.88336 0.0
C474 C 0.97383 0.06974 0.86128 0.0
C475 C 0.99696 0.04488 0.87632 0.0
C476 C 0.02172 0.06135 0.8946 0.0
C477 C 0.0229 0.10169 0.89804 0.0
C478 C 0.02606 0.93801 0.87465 0.0
C479 C 0.98976 0.91966 0.87256 0.0
C480 C 0.02843 0.97856 0.87511 0.0
C481 C 0.99459 1.00188 0.87361 0.0
C482 C 0.95839 0.98369 0.87071 0.0
C483 C 0.95601 0.94302 0.87018 0.0
H484 H 0.91248 0.85556 0.41801 0.0
H485 H 0.89465 0.96702 0.3816 0.0
H486 H 0.98327 0.8639 0.41442 0.0
H487 H 0.96432 0.97462 0.3773 0.0
H488 H 0.08939 0.99786 0.3983 0.0
H489 H 0.0201 0.98702 0.40381 0.0
H490 H 0.0363 0.86632 0.38199 0.0
H491 H 0.10603 0.8772 0.37633 0.0
C492 C 0.92356 0.88171 0.40923 0.0
C493 C 0.8977 0.91037 0.39992 0.0
C494 C 0.96408 0.88637 0.40697 0.0
C495 C 0.97955 0.92 0.3956 0.0
C496 C 0.95358 0.94857 0.38642 0.0
C497 C 0.91338 0.94388 0.38858 0.0
C498 C 0.07834 0.96909 0.39434 0.0
C499 C 0.10354 0.93854 0.38658 0.0
C500 C 0.03845 0.96281 0.39761 0.0
C501 C 0.02247 0.92582 0.39323 0.0
C502 C 0.04764 0.89507 0.38581 0.0
C503 C 0.08766 0.90137 0.38249 0.0
loop_
_geom_bond_atom_site_label_1
_geom_bond_atom_site_label_2
_geom_bond_distance
_geom_bond_site_symmetry_2
_ccdc_geom_bond_type
Cu0 N1 1.999 . S
Cu0 O6 1.974 . S
Cu0 N11 1.985 . S
Cu0 O20 1.959 . S
N1 Cu0 1.999 . S
N1 C3 1.263 . S
N1 C5 1.389 . S
N2 C3 1.358 . S
N2 C4 1.400 . S
C3 N1 1.263 . S
C3 N2 1.358 . S
C3 H9 0.930 . S
C4 N2 1.400 . S
C4 C5 1.351 . S
C4 H21 0.930 1_455 S
C5 N1 1.389 . S
C5 C4 1.351 . S
C5 H10 0.930 1_455 S
O6 Cu0 1.974 . S
O6 C16 1.282 . S
C7 O8 1.261 . S
C7 O20 1.251 . S
O8 C7 1.261 . S
H9 C3 0.930 . S
H10 C5 0.930 1_655 S
N11 Cu0 1.985 . S
N11 C13 1.335 . S
N11 C14 1.390 . S
N12 C13 1.345 . S
N12 C15 1.336 . S
C13 N11 1.335 . S
C13 N12 1.345 . S
C13 H18 0.930 . S
C14 N11 1.390 . S
C14 C15 1.346 . S
C14 H19 0.930 . S
C15 N12 1.336 . S
C15 C14 1.346 . S
C15 H22 0.929 . S
C16 O6 1.282 . S
C16 O17 1.216 . S
O17 C16 1.216 . S
H18 C13 0.930 . S
H19 C14 0.930 . S
O20 Cu0 1.959 . S
O20 C7 1.251 . S
H21 C4 0.930 1_655 S
H22 C15 0.929 . S
Cu23 N24 1.999 . S
Cu23 O29 1.974 . S
Cu23 N34 1.985 . S
Cu23 O43 1.959 . S
N24 Cu23 1.999 . S
N24 C26 1.263 . S
N24 C28 1.389 . S
N25 C26 1.358 . S
N25 C27 1.400 . S
C26 N24 1.263 . S
C26 N25 1.358 . S
C26 H32 0.930 . S
C27 N25 1.400 . S
C27 C28 1.351 . S
C27 H44 0.930 1_545 S
C28 N24 1.389 . S
C28 C27 1.351 . S
C28 H33 0.930 1_545 S
O29 Cu23 1.974 . S
O29 C39 1.282 . S
C30 O31 1.261 . S
C30 O43 1.251 . S
O31 C30 1.261 . S
H32 C26 0.930 . S
H33 C28 0.930 1_565 S
N34 Cu23 1.985 . S
N34 C36 1.335 . S
N34 C37 1.390 . S
N35 C36 1.345 . S
N35 C38 1.336 . S
C36 N34 1.335 . S
C36 N35 1.345 . S
C36 H41 0.930 . S
C37 N34 1.390 . S
C37 C38 1.346 . S
C37 H42 0.930 . S
C38 N35 1.336 . S
C38 C37 1.346 . S
C38 H45 0.929 . S
C39 O29 1.282 . S
C39 O40 1.216 . S
O40 C39 1.216 . S
H41 C36 0.930 . S
H42 C37 0.930 . S
O43 Cu23 1.959 . S
O43 C30 1.251 . S
H44 C27 0.930 1_565 S
H45 C38 0.929 . S
Cu46 N47 1.999 . S
Cu46 O52 1.974 . S
Cu46 N57 1.985 . S
Cu46 O66 1.959 . S
N47 Cu46 1.999 . S
N47 C49 1.263 . S
N47 C51 1.389 . S
N48 C49 1.358 . S
N48 C50 1.400 . S
C49 N47 1.263 . S
C49 N48 1.358 . S
C49 H55 0.930 . S
C50 N48 1.400 . S
C50 C51 1.351 . S
C50 H67 0.930 1_655 S
C51 N47 1.389 . S
C51 C50 1.351 . S
C51 H56 0.930 1_655 S
O52 Cu46 1.974 . S
O52 C62 1.282 . S
C53 O54 1.261 . S
C53 O66 1.251 . S
O54 C53 1.261 . S
H55 C49 0.930 . S
H56 C51 0.930 1_455 S
N57 Cu46 1.985 . S
N57 C59 1.335 . S
N57 C60 1.390 . S
N58 C59 1.345 . S
N58 C61 1.336 . S
C59 N57 1.335 . S
C59 N58 1.345 . S
C59 H64 0.930 . S
C60 N57 1.390 . S
C60 C61 1.346 . S
C60 H65 0.930 . S
C61 N58 1.336 . S
C61 C60 1.346 . S
C61 H68 0.929 . S
C62 O52 1.282 . S
C62 O63 1.216 . S
O63 C62 1.216 . S
H64 C59 0.930 . S
H65 C60 0.930 . S
O66 Cu46 1.959 . S
O66 C53 1.251 . S
H67 C50 0.930 1_455 S
H68 C61 0.929 . S
Cu69 N70 1.999 . S
Cu69 O75 1.974 . S
Cu69 N80 1.985 . S
Cu69 O89 1.959 . S
N70 Cu69 1.999 . S
N70 C72 1.263 . S
N70 C74 1.389 . S
N71 C72 1.358 . S
N71 C73 1.400 . S
C72 N70 1.263 . S
C72 N71 1.358 . S
C72 H78 0.930 . S
C73 N71 1.400 . S
C73 C74 1.351 . S
C73 H90 0.930 1_565 S
C74 N70 1.389 . S
C74 C73 1.351 . S
C74 H79 0.930 1_565 S
O75 Cu69 1.974 . S
O75 C85 1.282 . S
C76 O77 1.261 . S
C76 O89 1.251 . S
O77 C76 1.261 . S
H78 C72 0.930 . S
H79 C74 0.930 1_545 S
N80 Cu69 1.985 . S
N80 C82 1.335 . S
N80 C83 1.390 . S
N81 C82 1.345 . S
N81 C84 1.336 . S
C82 N80 1.335 . S
C82 N81 1.345 . S
C82 H87 0.930 . S
C83 N80 1.390 . S
C83 C84 1.346 . S
C83 H88 0.930 . S
C84 N81 1.336 . S
C84 C83 1.346 . S
C84 H91 0.929 . S
C85 O75 1.282 . S
C85 O86 1.216 . S
O86 C85 1.216 . S
H87 C82 0.930 . S
H88 C83 0.930 . S
O89 Cu69 1.959 . S
O89 C76 1.251 . S
H90 C73 0.930 1_545 S
H91 C84 0.929 . S
Cu92 N93 1.999 . S
Cu92 O98 1.974 . S
Cu92 N103 1.985 . S
Cu92 O112 1.959 . S
N93 Cu92 1.999 . S
N93 C95 1.263 . S
N93 C97 1.389 . S
N94 C95 1.358 . S
N94 C96 1.400 . S
C95 N93 1.263 . S
C95 N94 1.358 . S
C95 H101 0.930 . S
C96 N94 1.400 . S
C96 C97 1.351 . S
C96 H113 0.930 1_455 S
C97 N93 1.389 . S
C97 C96 1.351 . S
C97 H102 0.930 1_455 S
O98 Cu92 1.974 . S
O98 C108 1.282 . S
C99 O100 1.261 . S
C99 O112 1.251 . S
O100 C99 1.261 . S
H101 C95 0.930 . S
H102 C97 0.930 1_655 S
N103 Cu92 1.985 . S
N103 C105 1.335 . S
N103 C106 1.390 . S
N104 C105 1.345 . S
N104 C107 1.336 . S
C105 N103 1.335 . S
C105 N104 1.345 . S
C105 H110 0.930 . S
C106 N103 1.390 . S
C106 C107 1.346 . S
C106 H111 0.930 . S
C107 N104 1.336 . S
C107 C106 1.346 . S
C107 H114 0.929 . S
C108 O98 1.282 . S
C108 O109 1.216 . S
O109 C108 1.216 . S
H110 C105 0.930 . S
H111 C106 0.930 . S
O112 Cu92 1.959 . S
O112 C99 1.251 . S
H113 C96 0.930 1_655 S
H114 C107 0.929 . S
Cu115 N116 1.999 . S
Cu115 O121 1.974 . S
Cu115 N126 1.985 . S
Cu115 O135 1.959 . S
N116 Cu115 1.999 . S
N116 C118 1.263 . S
N116 C120 1.389 . S
N117 C118 1.358 . S
N117 C119 1.400 . S
C118 N116 1.263 . S
C118 N117 1.358 . S
C118 H124 0.930 . S
C119 N117 1.400 . S
C119 C120 1.351 . S
C119 H136 0.930 1_545 S
C120 N116 1.389 . S
C120 C119 1.351 . S
C120 H125 0.930 1_545 S
O121 Cu115 1.974 . S
O121 C131 1.282 . S
C122 O123 1.261 . S
C122 O135 1.251 . S
O123 C122 1.261 . S
H124 C118 0.930 . S
H125 C120 0.930 1_565 S
N126 Cu115 1.985 . S
N126 C128 1.335 . S
N126 C129 1.390 . S
N127 C128 1.345 . S
N127 C130 1.336 . S
C128 N126 1.335 . S
C128 N127 1.345 . S
C128 H133 0.930 . S
C129 N126 1.390 . S
C129 C130 1.346 . S
C129 H134 0.930 . S
C130 N127 1.336 . S
C130 C129 1.346 . S
C130 H137 0.929 . S
C131 O121 1.282 . S
C131 O132 1.216 . S
O132 C131 1.216 . S
H133 C128 0.930 . S
H134 C129 0.930 . S
O135 Cu115 1.959 . S
O135 C122 1.251 . S
H136 C119 0.930 1_565 S
H137 C130 0.929 . S
Cu138 N139 1.999 . S
Cu138 O144 1.974 . S
Cu138 N149 1.985 . S
Cu138 O158 1.959 . S
N139 Cu138 1.999 . S
N139 C141 1.263 . S
N139 C143 1.389 . S
N140 C141 1.358 . S
N140 C142 1.400 . S
C141 N139 1.263 . S
C141 N140 1.358 . S
C141 H147 0.930 . S
C142 N140 1.400 . S
C142 C143 1.351 . S
C142 H159 0.930 1_655 S
C143 N139 1.389 . S
C143 C142 1.351 . S
C143 H148 0.930 1_655 S
O144 Cu138 1.974 . S
O144 C154 1.282 . S
C145 O146 1.261 . S
C145 O158 1.251 . S
O146 C145 1.261 . S
H147 C141 0.930 . S
H148 C143 0.930 1_455 S
N149 Cu138 1.985 . S
N149 C151 1.335 . S
N149 C152 1.390 . S
N150 C151 1.345 . S
N150 C153 1.336 . S
C151 N149 1.335 . S
C151 N150 1.345 . S
C151 H156 0.930 . S
C152 N149 1.390 . S
C152 C153 1.346 . S
C152 H157 0.930 . S
C153 N150 1.336 . S
C153 C152 1.346 . S
C153 H160 0.929 . S
C154 O144 1.282 . S
C154 O155 1.216 . S
O155 C154 1.216 . S
H156 C151 0.930 . S
H157 C152 0.930 . S
O158 Cu138 1.959 . S
O158 C145 1.251 . S
H159 C142 0.930 1_455 S
H160 C153 0.929 . S
Cu161 N162 1.999 . S
Cu161 O167 1.974 . S
Cu161 N172 1.985 . S
Cu161 O181 1.959 . S
N162 Cu161 1.999 . S
N162 C164 1.263 . S
N162 C166 1.389 . S
N163 C164 1.358 . S
N163 C165 1.400 . S
C164 N162 1.263 . S
C164 N163 1.358 . S
C164 H170 0.930 . S
C165 N163 1.400 . S
C165 C166 1.351 . S
C165 H182 0.930 1_565 S
C166 N162 1.389 . S
C166 C165 1.351 . S
C166 H171 0.930 1_565 S
O167 Cu161 1.974 . S
O167 C177 1.282 . S
C168 O169 1.261 . S
C168 O181 1.251 . S
O169 C168 1.261 . S
H170 C164 0.930 . S
H171 C166 0.930 1_545 S
N172 Cu161 1.985 . S
N172 C174 1.335 . S
N172 C175 1.390 . S
N173 C174 1.345 . S
N173 C176 1.336 . S
C174 N172 1.335 . S
C174 N173 1.345 . S
C174 H179 0.930 . S
C175 N172 1.390 . S
C175 C176 1.346 . S
C175 H180 0.930 . S
C176 N173 1.336 . S
C176 C175 1.346 . S
C176 H183 0.929 . S
C177 O167 1.282 . S
C177 O178 1.216 . S
O178 C177 1.216 . S
H179 C174 0.930 . S
H180 C175 0.930 . S
O181 Cu161 1.959 . S
O181 C168 1.251 . S
H182 C165 0.930 1_545 S
H183 C176 0.929 . S
H184 C192 0.950 . S
H185 C197 0.950 . S
H186 C194 0.950 . S
H187 C196 0.938 1_655 S
H188 C198 0.950 . S
H189 C200 0.950 . S
H190 C202 0.938 1_455 S
H191 C203 0.950 . S
C192 H184 0.950 . S
C192 C193 1.386 . S
C192 C194 1.391 . S
C193 C192 1.386 . S
C193 C197 1.393 . S
C194 H186 0.950 . S
C194 C192 1.391 . S
C194 C195 1.400 . S
C195 C194 1.400 . S
C195 C196 1.402 . S
C195 C201 1.491 1_455 S
C196 H187 0.938 1_455 S
C196 C195 1.402 . S
C196 C197 1.398 . S
C197 H185 0.950 . S
C197 C193 1.393 . S
C197 C196 1.398 . S
C198 H188 0.950 . S
C198 C199 1.386 . S
C198 C200 1.391 . S
C199 C198 1.386 . S
C199 C203 1.393 . S
C200 H189 0.950 . S
C200 C198 1.391 . S
C200 C201 1.400 . S
C201 C195 1.491 1_655 S
C201 C200 1.400 . S
C201 C202 1.402 . S
C202 H190 0.938 1_655 S
C202 C201 1.402 . S
C202 C203 1.398 . S
C203 H191 0.950 . S
C203 C199 1.393 . S
C203 C202 1.398 . S
H204 C212 0.950 . S
H205 C217 0.950 1_545 S
H206 C214 0.950 . S
H207 C216 0.950 . S
H208 C218 0.950 . S
H209 C220 0.950 . S
H210 C222 0.950 . S
H211 C223 0.950 1_565 S
C212 H204 0.950 . S
C212 C213 1.386 . S
C212 C214 1.391 . S
C213 C212 1.386 . S
C213 C217 1.393 . S
C214 H206 0.950 . S
C214 C212 1.391 . S
C214 C215 1.400 . S
C215 C214 1.400 . S
C215 C216 1.398 1_565 S
C215 C221 1.491 1_565 S
C216 H207 0.950 . S
C216 C215 1.398 1_545 S
C216 C217 1.391 1_545 S
C217 H205 0.950 1_565 S
C217 C213 1.393 . S
C217 C216 1.391 1_565 S
C218 H208 0.950 . S
C218 C219 1.386 . S
C218 C220 1.391 . S
C219 C218 1.386 . S
C219 C223 1.393 . S
C220 H209 0.950 . S
C220 C218 1.391 . S
C220 C221 1.400 . S
C221 C215 1.491 1_545 S
C221 C220 1.400 . S
C221 C222 1.398 1_545 S
C222 H210 0.950 . S
C222 C221 1.398 1_565 S
C222 C223 1.391 1_565 S
C223 H211 0.950 1_545 S
C223 C219 1.393 . S
C223 C222 1.391 1_545 S
H224 C232 0.950 1_455 S
H225 C237 0.950 . S
H226 C234 0.950 . S
H227 C236 0.950 . S
H228 C238 0.950 1_655 S
H229 C240 0.950 . S
H230 C242 0.950 . S
H231 C243 0.950 . S
C232 H224 0.950 1_655 S
C232 C233 1.386 . S
C232 C234 1.391 1_655 S
C233 C232 1.386 . S
C233 C237 1.393 . S
C234 H226 0.950 . S
C234 C232 1.391 1_455 S
C234 C235 1.400 1_455 S
C235 C234 1.400 1_655 S
C235 C236 1.398 . S
C235 C241 1.491 1_655 S
C236 H227 0.950 . S
C236 C235 1.398 . S
C236 C237 1.391 . S
C237 H225 0.950 . S
C237 C233 1.393 . S
C237 C236 1.391 . S
C238 H228 0.950 1_455 S
C238 C239 1.386 . S
C238 C240 1.391 1_455 S
C239 C238 1.386 . S
C239 C243 1.393 . S
C240 H229 0.950 . S
C240 C238 1.391 1_655 S
C240 C241 1.400 1_655 S
C241 C235 1.491 1_455 S
C241 C240 1.400 1_455 S
C241 C242 1.398 . S
C242 H230 0.950 . S
C242 C241 1.398 . S
C242 C243 1.391 . S
C243 H231 0.950 . S
C243 C239 1.393 . S
C243 C242 1.391 . S
H244 C252 0.950 . S
H245 C257 0.950 . S
H246 C254 0.950 . S
H247 C256 0.950 . S
H248 C258 0.950 . S
H249 C260 0.950 . S
H250 C262 0.950 . S
H251 C263 0.950 . S
C252 H244 0.950 . S
C252 C253 1.386 . S
C252 C254 1.391 1_545 S
C253 C252 1.386 . S
C253 C257 1.393 . S
C254 H246 0.950 . S
C254 C252 1.391 1_565 S
C254 C255 1.400 1_565 S
C255 C254 1.400 1_545 S
C255 C256 1.398 . S
C255 C261 1.491 1_545 S
C256 H247 0.950 . S
C256 C255 1.398 . S
C256 C257 1.391 . S
C257 H245 0.950 . S
C257 C253 1.393 . S
C257 C256 1.391 . S
C258 H248 0.950 . S
C258 C259 1.386 . S
C258 C260 1.391 1_565 S
C259 C258 1.386 . S
C259 C263 1.393 . S
C260 H249 0.950 . S
C260 C258 1.391 1_545 S
C260 C261 1.400 1_545 S
C261 C255 1.491 1_565 S
C261 C260 1.400 1_565 S
C261 C262 1.398 . S
C262 H250 0.950 . S
C262 C261 1.398 . S
C262 C263 1.391 . S
C263 H251 0.950 . S
C263 C259 1.393 . S
C263 C262 1.391 . S
H264 C272 0.950 . S
H265 C277 0.950 . S
H266 C274 0.950 . S
H267 C276 0.950 . S
H268 C278 0.950 . S
H269 C280 0.950 . S
H270 C282 0.950 . S
H271 C283 0.950 . S
C272 H264 0.950 . S
C272 C273 1.386 . S
C272 C274 1.391 . S
C273 C272 1.386 . S
C273 C277 1.393 1_655 S
C274 H266 0.950 . S
C274 C272 1.391 . S
C274 C275 1.400 . S
C275 C274 1.400 . S
C275 C276 1.398 1_655 S
C275 C281 1.491 1_656 S
C276 H267 0.950 . S
C276 C275 1.398 1_455 S
C276 C277 1.391 . S
C277 H265 0.950 . S
C277 C273 1.393 1_455 S
C277 C276 1.391 . S
C278 H268 0.950 . S
C278 C279 1.386 . S
C278 C280 1.391 . S
C279 C278 1.386 . S
C279 C283 1.393 1_455 S
C280 H269 0.950 . S
C280 C278 1.391 . S
C280 C281 1.400 . S
C281 C275 1.491 1_454 S
C281 C280 1.400 . S
C281 C282 1.398 1_455 S
C282 H270 0.950 . S
C282 C281 1.398 1_655 S
C282 C283 1.391 . S
C283 H271 0.950 . S
C283 C279 1.393 1_655 S
C283 C282 1.391 . S
H284 C292 0.950 . S
H285 C297 0.950 . S
H286 C294 0.950 . S
H287 C296 0.950 1_565 S
H288 C298 0.950 . S
H289 C300 0.950 . S
H290 C302 0.950 1_545 S
H291 C303 0.950 . S
C292 H284 0.950 . S
C292 C293 1.386 . S
C292 C294 1.391 . S
C293 C292 1.386 . S
C293 C297 1.393 . S
C294 H286 0.950 . S
C294 C292 1.391 . S
C294 C295 1.400 . S
C295 C294 1.400 . S
C295 C296 1.398 . S
C295 C301 1.491 1_545 S
C296 H287 0.950 1_545 S
C296 C295 1.398 . S
C296 C297 1.391 . S
C297 H285 0.950 . S
C297 C293 1.393 . S
C297 C296 1.391 . S
C298 H288 0.950 . S
C298 C299 1.386 . S
C298 C300 1.391 . S
C299 C298 1.386 . S
C299 C303 1.393 . S
C300 H289 0.950 . S
C300 C298 1.391 . S
C300 C301 1.400 . S
C301 C295 1.491 1_565 S
C301 C300 1.400 . S
C301 C302 1.398 . S
C302 H290 0.950 1_565 S
C302 C301 1.398 . S
C302 C303 1.391 . S
C303 H291 0.950 . S
C303 C299 1.393 . S
C303 C302 1.391 . S
H304 C312 0.950 . S
H305 C317 0.952 . S
H306 C314 0.950 . S
H307 C316 0.950 . S
H308 C318 0.950 . S
H309 C320 0.950 . S
H310 C322 0.950 . S
H311 C323 0.952 . S
C312 H304 0.950 . S
C312 C313 1.386 . S
C312 C314 1.391 . S
C313 C312 1.386 . S
C313 C317 1.393 . S
C314 H306 0.950 . S
C314 C312 1.391 . S
C314 C315 1.400 . S
C315 C314 1.400 . S
C315 C316 1.398 1_655 S
C315 C321 1.491 1_654 S
C316 H307 0.950 . S
C316 C315 1.398 1_455 S
C316 C317 1.391 1_455 S
C317 H305 0.952 . S
C317 C313 1.393 . S
C317 C316 1.391 1_655 S
C318 H308 0.950 . S
C318 C319 1.386 . S
C318 C320 1.391 . S
C319 C318 1.386 . S
C319 C323 1.393 . S
C320 H309 0.950 . S
C320 C318 1.391 . S
C320 C321 1.400 . S
C321 C315 1.491 1_456 S
C321 C320 1.400 . S
C321 C322 1.398 1_455 S
C322 H310 0.950 . S
C322 C321 1.398 1_655 S
C322 C323 1.391 1_655 S
C323 H311 0.952 . S
C323 C319 1.393 . S
C323 C322 1.391 1_455 S
H324 C332 0.950 1_565 S
H325 C337 0.950 . S
H326 C334 0.950 . S
H327 C336 0.950 . S
H328 C338 0.950 1_545 S
H329 C340 0.950 . S
H330 C342 0.950 . S
H331 C343 0.950 . S
C332 H324 0.950 1_545 S
C332 C333 1.386 . S
C332 C334 1.391 1_545 S
C333 C332 1.386 . S
C333 C337 1.393 . S
C334 H326 0.950 . S
C334 C332 1.391 1_565 S
C334 C335 1.400 1_565 S
C335 C334 1.400 1_545 S
C335 C336 1.398 . S
C335 C341 1.491 1_545 S
C336 H327 0.950 . S
C336 C335 1.398 . S
C336 C337 1.391 . S
C337 H325 0.950 . S
C337 C333 1.393 . S
C337 C336 1.391 . S
C338 H328 0.950 1_565 S
C338 C339 1.386 . S
C338 C340 1.391 1_565 S
C339 C338 1.386 . S
C339 C343 1.393 . S
C340 H329 0.950 . S
C340 C338 1.391 1_545 S
C340 C341 1.400 1_545 S
C341 C335 1.491 1_565 S
C341 C340 1.400 1_565 S
C341 C342 1.398 . S
C342 H330 0.950 . S
C342 C341 1.398 . S
C342 C343 1.391 . S
C343 H331 0.950 . S
C343 C339 1.393 . S
C343 C342 1.391 . S
H344 C352 0.950 . S
H345 C357 0.950 . S
H346 C354 0.950 . S
H347 C356 0.950 . S
H348 C358 0.950 . S
H349 C360 0.950 . S
H350 C362 0.950 . S
H351 C363 0.950 . S
C352 H344 0.950 . S
C352 C353 1.386 . S
C352 C354 1.391 . S
C353 C352 1.386 . S
C353 C357 1.393 . S
C354 H346 0.950 . S
C354 C352 1.391 . S
C354 C355 1.400 . S
C355 C354 1.400 . S
C355 C356 1.398 . S
C355 C361 1.491 . S
C356 H347 0.950 . S
C356 C355 1.398 . S
C356 C357 1.391 . S
C357 H345 0.950 . S
C357 C353 1.393 . S
C357 C356 1.391 . S
C358 H348 0.950 . S
C358 C359 1.386 . S
C358 C360 1.391 . S
C359 C358 1.386 . S
C359 C363 1.393 . S
C360 H349 0.950 . S
C360 C358 1.391 . S
C360 C361 1.400 . S
C361 C355 1.491 . S
C361 C360 1.400 . S
C361 C362 1.398 . S
C362 H350 0.950 . S
C362 C361 1.398 . S
C362 C363 1.391 . S
C363 H351 0.950 . S
C363 C359 1.393 . S
C363 C362 1.391 . S
H364 C372 0.950 . S
H365 C377 0.950 . S
H366 C374 0.950 . S
H367 C376 0.950 . S
H368 C378 0.950 . S
H369 C380 0.950 . S
H370 C382 0.950 . S
H371 C383 0.950 . S
C372 H364 0.950 . S
C372 C373 1.386 . S
C372 C374 1.391 . S
C373 C372 1.386 . S
C373 C377 1.393 . S
C374 H366 0.950 . S
C374 C372 1.391 . S
C374 C375 1.400 . S
C375 C374 1.400 . S
C375 C376 1.398 . S
C375 C381 1.491 . S
C376 H367 0.950 . S
C376 C375 1.398 . S
C376 C377 1.391 . S
C377 H365 0.950 . S
C377 C373 1.393 . S
C377 C376 1.391 . S
C378 H368 0.950 . S
C378 C379 1.386 . S
C378 C380 1.391 . S
C379 C378 1.386 . S
C379 C383 1.393 . S
C380 H369 0.950 . S
C380 C378 1.391 . S
C380 C381 1.400 . S
C381 C375 1.491 . S
C381 C380 1.400 . S
C381 C382 1.398 . S
C382 H370 0.950 . S
C382 C381 1.398 . S
C382 C383 1.391 . S
C383 H371 0.950 . S
C383 C379 1.393 . S
C383 C382 1.391 . S
H384 C392 0.950 . S
H385 C397 0.950 . S
H386 C394 0.950 . S
H387 C396 0.950 . S
H388 C398 0.950 . S
H389 C400 0.950 . S
H390 C402 0.950 . S
H391 C403 0.950 . S
C392 H384 0.950 . S
C392 C393 1.386 . S
C392 C394 1.391 . S
C393 C392 1.386 . S
C393 C397 1.393 . S
C394 H386 0.950 . S
C394 C392 1.391 . S
C394 C395 1.400 . S
C395 C394 1.400 . S
C395 C396 1.398 . S
C395 C401 1.491 . S
C396 H387 0.950 . S
C396 C395 1.398 . S
C396 C397 1.391 . S
C397 H385 0.950 . S
C397 C393 1.393 . S
C397 C396 1.391 . S
C398 H388 0.950 . S
C398 C399 1.386 . S
C398 C400 1.391 . S
C399 C398 1.386 . S
C399 C403 1.393 . S
C400 H389 0.950 . S
C400 C398 1.391 . S
C400 C401 1.400 . S
C401 C395 1.491 . S
C401 C400 1.400 . S
C401 C402 1.398 . S
C402 H390 0.950 . S
C402 C401 1.398 . S
C402 C403 1.391 . S
C403 H391 0.950 . S
C403 C399 1.393 . S
C403 C402 1.391 . S
H404 C412 0.950 . S
H405 C417 0.950 . S
H406 C414 0.950 . S
H407 C416 0.950 . S
H408 C418 0.950 . S
H409 C420 0.950 . S
H410 C422 0.950 . S
H411 C423 0.950 . S
C412 H404 0.950 . S
C412 C413 1.386 . S
C412 C414 1.391 . S
C413 C412 1.386 . S
C413 C417 1.393 . S
C414 H406 0.950 . S
C414 C412 1.391 . S
C414 C415 1.400 . S
C415 C414 1.400 . S
C415 C416 1.398 . S
C415 C421 1.491 . S
C416 H407 0.950 . S
C416 C415 1.398 . S
C416 C417 1.391 . S
C417 H405 0.950 . S
C417 C413 1.393 . S
C417 C416 1.391 . S
C418 H408 0.950 . S
C418 C419 1.386 . S
C418 C420 1.391 . S
C419 C418 1.386 . S
C419 C423 1.393 . S
C420 H409 0.950 . S
C420 C418 1.391 . S
C420 C421 1.400 . S
C421 C415 1.491 . S
C421 C420 1.400 . S
C421 C422 1.398 . S
C422 H410 0.950 . S
C422 C421 1.398 . S
C422 C423 1.391 . S
C423 H411 0.950 . S
C423 C419 1.393 . S
C423 C422 1.391 . S
H424 C432 0.950 . S
H425 C437 0.950 1_655 S
H426 C434 0.950 . S
H427 C436 0.950 . S
H428 C438 0.950 . S
H429 C440 0.950 . S
H430 C442 0.950 . S
H431 C443 0.950 1_455 S
C432 H424 0.950 . S
C432 C433 1.386 . S
C432 C434 1.391 . S
C433 C432 1.386 . S
C433 C437 1.393 . S
C434 H426 0.950 . S
C434 C432 1.391 . S
C434 C435 1.400 . S
C435 C434 1.400 . S
C435 C436 1.398 1_455 S
C435 C441 1.491 1_445 S
C436 H427 0.950 . S
C436 C435 1.398 1_655 S
C436 C437 1.391 1_655 S
C437 H425 0.950 1_455 S
C437 C433 1.393 . S
C437 C436 1.391 1_455 S
C438 H428 0.950 . S
C438 C439 1.386 . S
C438 C440 1.391 . S
C439 C438 1.386 . S
C439 C443 1.393 . S
C440 H429 0.950 . S
C440 C438 1.391 . S
C440 C441 1.400 . S
C441 C435 1.491 1_665 S
C441 C440 1.400 . S
C441 C442 1.398 1_655 S
C442 H430 0.950 . S
C442 C441 1.398 1_455 S
C442 C443 1.391 1_455 S
C443 H431 0.950 1_655 S
C443 C439 1.393 . S
C443 C442 1.391 1_655 S
H444 C452 0.950 . S
H445 C457 0.950 1_545 S
H446 C454 0.950 . S
H447 C456 0.950 . S
H448 C458 0.950 . S
H449 C460 0.950 . S
H450 C462 0.950 . S
H451 C463 0.950 1_565 S
C452 H444 0.950 . S
C452 C453 1.386 . S
C452 C454 1.391 . S
C453 C452 1.386 . S
C453 C457 1.393 . S
C454 H446 0.950 . S
C454 C452 1.391 . S
C454 C455 1.400 . S
C455 C454 1.400 . S
C455 C456 1.398 1_565 S
C455 C461 1.491 1_465 S
C456 H447 0.950 . S
C456 C455 1.398 1_545 S
C456 C457 1.391 1_545 S
C457 H445 0.950 1_565 S
C457 C453 1.393 . S
C457 C456 1.391 1_565 S
C458 H448 0.950 . S
C458 C459 1.386 . S
C458 C460 1.391 . S
C459 C458 1.386 . S
C459 C463 1.393 . S
C460 H449 0.950 . S
C460 C458 1.391 . S
C460 C461 1.400 . S
C461 C455 1.491 1_645 S
C461 C460 1.400 . S
C461 C462 1.398 1_545 S
C462 H450 0.950 . S
C462 C461 1.398 1_565 S
C462 C463 1.391 1_565 S
C463 H451 0.950 1_545 S
C463 C459 1.393 . S
C463 C462 1.391 1_545 S
H464 C472 0.950 . S
H465 C477 0.950 . S
H466 C474 0.950 . S
H467 C476 0.950 1_455 S
H468 C478 0.950 . S
H469 C480 0.950 . S
H470 C482 0.950 1_655 S
H471 C483 0.950 . S
C472 H464 0.950 . S
C472 C473 1.386 . S
C472 C474 1.391 . S
C473 C472 1.386 . S
C473 C477 1.393 . S
C474 H466 0.950 . S
C474 C472 1.391 . S
C474 C475 1.400 . S
C475 C474 1.400 . S
C475 C476 1.398 . S
C475 C481 1.491 1_645 S
C476 H467 0.950 1_655 S
C476 C475 1.398 . S
C476 C477 1.391 . S
C477 H465 0.950 . S
C477 C473 1.393 . S
C477 C476 1.391 . S
C478 H468 0.950 . S
C478 C479 1.386 . S
C478 C480 1.391 . S
C479 C478 1.386 . S
C479 C483 1.393 . S
C480 H469 0.950 . S
C480 C478 1.391 . S
C480 C481 1.400 . S
C481 C475 1.491 1_465 S
C481 C480 1.400 . S
C481 C482 1.398 . S
C482 H470 0.950 1_455 S
C482 C481 1.398 . S
C482 C483 1.391 . S
C483 H471 0.950 . S
C483 C479 1.393 . S
C483 C482 1.391 . S
H484 C492 0.950 . S
H485 C497 0.950 1_545 S
H486 C494 0.950 . S
H487 C496 0.950 . S
H488 C498 0.950 . S
H489 C500 0.950 . S
H490 C502 0.950 . S
H491 C503 0.950 1_565 S
C492 H484 0.950 . S
C492 C493 1.386 . S
C492 C494 1.391 . S
C493 C492 1.386 . S
C493 C497 1.393 . S
C494 H486 0.950 . S
C494 C492 1.391 . S
C494 C495 1.400 . S
C495 C494 1.400 . S
C495 C496 1.398 1_565 S
C495 C501 1.491 1_665 S
C496 H487 0.950 . S
C496 C495 1.398 1_545 S
C496 C497 1.391 1_545 S
C497 H485 0.950 1_565 S
C497 C493 1.393 . S
C497 C496 1.391 1_565 S
C498 H488 0.950 . S
C498 C499 1.386 . S
C498 C500 1.391 . S
C499 C498 1.386 . S
C499 C503 1.393 . S
C500 H489 0.950 . S
C500 C498 1.391 . S
C500 C501 1.400 . S
C501 C495 1.491 1_445 S
C501 C500 1.400 . S
C501 C502 1.398 1_545 S
C502 H490 0.950 . S
C502 C501 1.398 1_565 S
C502 C503 1.391 1_565 S
C503 H491 0.950 1_545 S
C503 C499 1.393 . S
C503 C502 1.391 1_545 S
C193 N12 1.716 . S
C199 N58 1.706 . S
C213 N81 1.716 . S
C219 N35 1.701 . S
C233 N150 1.700 . S
C239 N104 1.715 . S
C253 N127 1.706 . S
C259 N173 1.716 . S
C273 C145 1.648 . S
C279 C7 1.661 . S
C293 C30 1.656 . S
C299 C168 1.656 . S
C313 C53 1.650 . S
C319 C99 1.658 . S
C333 C122 1.658 . S
C339 C76 1.650 . S
C353 C16 1.670 . S
C359 C131 1.667 . S
C373 C154 1.654 . S
C379 C39 1.655 . S
C393 C177 1.670 . S
C399 C62 1.667 . S
C413 C85 1.654 . S
C419 C108 1.657 . S
C433 N2 1.363 . S
C439 N48 1.353 . S
C453 N71 1.356 . S
C459 N25 1.347 . S
C473 N140 1.343 . S
C479 N94 1.339 . S
C493 N163 1.361 . S
C499 N117 1.351 . S
