# Generated by pormake.
# Topology wje, (4)-cn, num edge types: 1
# Building blocks:
#     Node 0, Type 0, BuildingBlock: QUQFOY_clean_sbu_1, # of connection points: 4
#     Node 1, Type 0, BuildingBlock: QUQFOY_clean_sbu_1, # of connection points: 4
#     Node 2, Type 0, BuildingBlock: QUQFOY_clean_sbu_1, # of connection points: 4
#     Node 3, Type 0, BuildingBlock: QUQFOY_clean_sbu_1, # of connection points: 4
#     Node 4, Type 0, BuildingBlock: QUQFOY_clean_sbu_1, # of connection points: 4
#     Node 5, Type 0, BuildingBlock: QUQFOY_clean_sbu_1, # of connection points: 4
#     Node 6, Type 0, BuildingBlock: QUQFOY_clean_sbu_1, # of connection points: 4
#     Node 7, Type 0, BuildingBlock: QUQFOY_clean_sbu_1, # of connection points: 4
#     Node 8, Type 0, BuildingBlock: QUQFOY_clean_sbu_1, # of connection points: 4
#     Node 9, Type 0, BuildingBlock: QUQFOY_clean_sbu_1, # of connection points: 4
#     Node 10, Type 0, BuildingBlock: QUQFOY_clean_sbu_1, # of connection points: 4
#     Node 11, Type 0, BuildingBlock: QUQFOY_clean_sbu_1, # of connection points: 4
#     Edge 12, Type (0, 0), BuildingBlock: TEMPAE_clean_linker_10, # of connection points: 2
#     Edge 13, Type (0, 0), BuildingBlock: TEMPAE_clean_linker_10, # of connection points: 2
#     Edge 14, Type (0, 0), BuildingBlock: TEMPAE_clean_linker_10, # of connection points: 2
#     Edge 15, Type (0, 0), BuildingBlock: TEMPAE_clean_linker_10, # of connection points: 2
#     Edge 16, Type (0, 0), BuildingBlock: TEMPAE_clean_linker_10, # of connection points: 2
#     Edge 17, Type (0, 0), BuildingBlock: TEMPAE_clean_linker_10, # of connection points: 2
#     Edge 18, Type (0, 0), BuildingBlock: TEMPAE_clean_linker_10, # of connection points: 2
#     Edge 19, Type (0, 0), BuildingBlock: TEMPAE_clean_linker_10, # of connection points: 2
#     Edge 20, Type (0, 0), BuildingBlock: TEMPAE_clean_linker_10, # of connection points: 2
#     Edge 21, Type (0, 0), BuildingBlock: TEMPAE_clean_linker_10, # of connection points: 2
#     Edge 22, Type (0, 0), BuildingBlock: TEMPAE_clean_linker_10, # of connection points: 2
#     Edge 23, Type (0, 0), BuildingBlock: TEMPAE_clean_linker_10, # of connection points: 2
#     Edge 24, Type (0, 0), BuildingBlock: TEMPAE_clean_linker_10, # of connection points: 2
#     Edge 25, Type (0, 0), BuildingBlock: TEMPAE_clean_linker_10, # of connection points: 2
#     Edge 26, Type (0, 0), BuildingBlock: TEMPAE_clean_linker_10, # of connection points: 2
#     Edge 27, Type (0, 0), BuildingBlock: TEMPAE_clean_linker_10, # of connection points: 2
#     Edge 28, Type (0, 0), BuildingBlock: TEMPAE_clean_linker_10, # of connection points: 2
#     Edge 29, Type (0, 0), BuildingBlock: TEMPAE_clean_linker_10, # of connection points: 2
#     Edge 30, Type (0, 0), BuildingBlock: TEMPAE_clean_linker_10, # of connection points: 2
#     Edge 31, Type (0, 0), BuildingBlock: TEMPAE_clean_linker_10, # of connection points: 2
#     Edge 32, Type (0, 0), BuildingBlock: TEMPAE_clean_linker_10, # of connection points: 2
#     Edge 33, Type (0, 0), BuildingBlock: TEMPAE_clean_linker_10, # of connection points: 2
#     Edge 34, Type (0, 0), BuildingBlock: TEMPAE_clean_linker_10, # of connection points: 2
#     Edge 35, Type (0, 0), BuildingBlock: TEMPAE_clean_linker_10, # of connection points: 2
# Relax obj value: 0.100
# Max RMSD: 0.085
# Mean RMSD: 0.085
data_MOF--net-wje--node1-QUQFOY_clean_sbu_1--edge1-TEMPAE_clean_linker_10
_symmetry_space_group_name_H-M    P1
_symmetry_Int_Tables_number       1
_symmetry_cell_setting            triclinic
loop_
_symmetry_equiv_pos_as_xyz
'x, y, z'
_cell_length_a     42.786348
_cell_length_b     42.879612
_cell_length_c     39.028139
_cell_angle_alpha  89.970291
_cell_angle_beta   90.005503
_cell_angle_gamma 119.94792
loop_
_atom_site_label
_atom_site_type_symbol
_atom_site_fract_x
_atom_site_fract_y
_atom_site_fract_z
_atom_type_partial_charge
O0 O 0.262 0.99604 0.31194 0.0
Cd1 Cd 0.2996 0.04804 0.32429 0.0
Cd2 Cd 0.34245 0.02262 0.34628 0.0
O3 O 0.2926 0.97719 0.34261 0.0
O4 O 0.28562 0.0802 0.29977 0.0
O5 O 0.33717 0.08136 0.29041 0.0
C6 C 0.31548 0.09317 0.28286 0.0
C7 C 0.39087 0.01293 0.33401 0.0
C8 C 0.26381 0.97097 0.32745 0.0
C9 C 0.32023 0.05462 0.3994 0.0
O10 O 0.34641 0.0505 0.39026 0.0
O11 O 0.29866 0.05474 0.37698 0.0
O12 O 0.37025 -0.00125 0.36007 0.0
O13 O 0.38461 0.03356 0.31461 0.0
O14 O 0.26453 0.25539 0.65643 0.0
Cd15 Cd 0.26027 0.30101 0.66123 0.0
Cd16 Cd 0.33305 0.33635 0.65621 0.0
O17 O 0.3238 0.28494 0.65081 0.0
O18 O 0.21241 0.29059 0.64281 0.0
O19 O 0.26441 0.33039 0.61942 0.0
C20 C 0.2295 0.31345 0.61862 0.0
C21 C 0.38581 0.38224 0.63046 0.0
C22 C 0.29415 0.25554 0.65331 0.0
C23 C 0.30002 0.33818 0.72448 0.0
O24 O 0.32782 0.34803 0.70602 0.0
O25 O 0.26869 0.32016 0.71134 0.0
O26 O 0.38662 0.36243 0.65467 0.0
O27 O 0.35457 0.37539 0.61953 0.0
O28 O 0.99708 0.25937 0.99616 0.0
Cd29 Cd 0.95317 0.26663 0.99807 0.0
Cd30 Cd 0.00384 0.33364 0.98769 0.0
O31 O 0.03579 0.31216 0.97421 0.0
O32 O 0.91037 0.22116 0.98172 0.0
O33 O 0.93289 0.27289 0.95376 0.0
C34 C 0.90999 0.23873 0.95494 0.0
C35 C 0.00794 0.38464 0.96118 0.0
C36 C 0.02835 0.28109 0.98468 0.0
C37 C 0.97195 0.31096 0.05928 0.0
O38 O 0.99681 0.33344 0.03982 0.0
O39 O 0.94652 0.28186 0.0468 0.0
O40 O 0.03392 0.3864 0.97928 0.0
O41 O 0.98021 0.35323 0.956 0.0
O42 O 0.73525 0.00078 0.31221 0.0
Cd43 Cd 0.69969 0.94789 0.32379 0.0
Cd44 Cd 0.65481 0.96958 0.34793 0.0
O45 O 0.70326 0.01658 0.34455 0.0
O46 O 0.71537 0.91785 0.29783 0.0
O47 O 0.66238 0.91406 0.29003 0.0
C48 C 0.68512 0.90386 0.28148 0.0
C49 C 0.60449 0.97644 0.33654 0.0
C50 C 0.73229 0.02461 0.32884 0.0
C51 C 0.68076 0.93949 0.39941 0.0
O52 O 0.65325 0.94183 0.3913 0.0
O53 O 0.70215 0.94057 0.37616 0.0
O54 O 0.62464 0.99048 0.3629 0.0
O55 O 0.61223 0.9574 0.31643 0.0
O56 O 0.7343 0.73988 0.64756 0.0
Cd57 Cd 0.73557 0.69295 0.65505 0.0
Cd58 Cd 0.66393 0.66206 0.64591 0.0
O59 O 0.67691 0.71339 0.63288 0.0
O60 O 0.78319 0.70069 0.63876 0.0
O61 O 0.73128 0.66245 0.61419 0.0
C62 C 0.76613 0.67806 0.61441 0.0
C63 C 0.61169 0.61479 0.621 0.0
C64 C 0.70685 0.74181 0.63829 0.0
C65 C 0.6923 0.6617 0.71753 0.0
O66 O 0.66617 0.65519 0.69776 0.0
O67 O 0.72401 0.6746 0.70536 0.0
O68 O 0.61064 0.63786 0.64118 0.0
O69 O 0.64299 0.61913 0.61353 0.0
O70 O 0.9989 0.731 0.99146 0.0
Cd71 Cd 0.0426 0.72344 0.99447 0.0
Cd72 Cd 0.99173 0.65654 0.98382 0.0
O73 O 0.96038 0.67835 0.96918 0.0
O74 O 0.08581 0.76916 0.9792 0.0
O75 O 0.06422 0.71787 0.9507 0.0
C76 C 0.08704 0.75202 0.95247 0.0
C77 C 0.988 0.60546 0.95797 0.0
C78 C 0.96783 0.70948 0.97942 0.0
C79 C 0.02249 0.67896 0.05575 0.0
O80 O 0.99775 0.65667 0.0361 0.0
O81 O 0.04828 0.70792 0.04341 0.0
O82 O 0.96163 0.60383 0.97529 0.0
O83 O 0.01594 0.6368 0.95311 0.0
O84 O 0.0072 0.7399 0.37788 0.0
Cd85 Cd 0.9588 0.69289 0.37137 0.0
Cd86 Cd -0.0005 0.66179 0.37974 0.0
O87 O 0.03863 0.71345 0.39072 0.0
O88 O 0.9192 0.7008 0.38821 0.0
O89 O 0.93323 0.66278 0.41269 0.0
C90 C 0.91394 0.67833 0.41266 0.0
C91 C 0.00474 0.61505 0.40549 0.0
C92 C 0.03693 0.74184 0.38579 0.0
C93 C 0.96866 0.65995 0.3089 0.0
O94 O 0.98835 0.65322 0.32834 0.0
O95 O 0.95089 0.67389 0.32127 0.0
O96 O 0.02817 0.63711 0.38414 0.0
O97 O 0.97844 0.62018 0.41367 0.0
O98 O 0.2662 0.00178 0.72198 0.0
Cd99 Cd 0.25207 0.95029 0.70801 0.0
Cd100 Cd 0.3222 0.97712 0.68904 0.0
O101 O 0.31965 0.023 0.69804 0.0
O102 O 0.20545 0.91746 0.73153 0.0
O103 O 0.25571 0.91619 0.74133 0.0
C104 C 0.22207 0.90419 0.74843 0.0
C105 C 0.37956 0.98417 0.70034 0.0
C106 C 0.29555 0.02818 0.71135 0.0
C107 C 0.2688 0.94789 0.63307 0.0
O108 O 0.29995 0.95459 0.64251 0.0
O109 O 0.24551 0.94475 0.65518 0.0
O110 O 0.37419 0.00133 0.67627 0.0
O111 O 0.35202 0.96204 0.71827 0.0
O112 O 0.26387 0.26378 0.04138 0.0
Cd113 Cd 0.31561 0.2729 0.03724 0.0
Cd114 Cd 0.32947 0.33844 0.05 0.0
O115 O 0.27658 0.31502 0.06595 0.0
O116 O 0.31469 0.22765 0.0515 0.0
O117 O 0.3434 0.27867 0.0806 0.0
C118 C 0.33287 0.24472 0.07835 0.0
C119 C 0.3773 0.3892 0.07571 0.0
C120 C 0.25347 0.28405 0.0548 0.0
C121 C 0.33695 0.31838 0.97687 0.0
O122 O 0.33366 0.33943 0.99753 0.0
O123 O 0.33588 0.28998 0.98819 0.0
O124 O 0.35179 0.39088 0.05987 0.0
O125 O 0.37439 0.35791 0.07928 0.0
O126 O 0.988 0.2531 0.38264 0.0
Cd127 Cd 0.03694 0.29929 0.3753 0.0
Cd128 Cd 0.99743 0.33179 0.38368 0.0
O129 O 0.95793 0.28076 0.39621 0.0
O130 O 0.07601 0.29046 0.39201 0.0
O131 O 0.06342 0.32962 0.41618 0.0
C132 C 0.08203 0.31335 0.41622 0.0
C133 C 0.99329 0.37974 0.40801 0.0
C134 C 0.95879 0.25194 0.39123 0.0
C135 C 0.02661 0.3313 0.31246 0.0
O136 O 0.00745 0.33865 0.33199 0.0
O137 O 0.04449 0.31749 0.32489 0.0
O138 O 0.96937 0.35715 0.38736 0.0
O139 O 0.01947 0.37449 0.41635 0.0
O140 O 0.73631 0.99449 0.7156 0.0
Cd141 Cd 0.75225 0.0471 0.70417 0.0
Cd142 Cd 0.68515 0.0239 0.6812 0.0
O143 O 0.68785 0.97753 0.68389 0.0
O144 O 0.79787 0.07809 0.72993 0.0
O145 O 0.74775 0.08007 0.73821 0.0
C146 C 0.78093 0.09118 0.74657 0.0
C147 C 0.62787 0.01611 0.69396 0.0
C148 C 0.70956 0.97023 0.69924 0.0
C149 C 0.74023 0.05537 0.62894 0.0
O150 O 0.71021 0.05221 0.63772 0.0
O151 O 0.76123 0.05472 0.65169 0.0
O152 O 0.6337 0.00232 0.66724 0.0
O153 O 0.65496 0.03529 0.71372 0.0
O154 O 0.73481 0.73356 0.03437 0.0
Cd155 Cd 0.68385 0.72687 0.03191 0.0
Cd156 Cd 0.66651 0.65949 0.04222 0.0
O157 O 0.71982 0.68038 0.05596 0.0
O158 O 0.68689 0.77259 0.048 0.0
O159 O 0.65697 0.72093 0.07594 0.0
C160 C 0.66854 0.75514 0.07465 0.0
C161 C 0.61917 0.60886 0.06878 0.0
C162 C 0.74385 0.71146 0.04588 0.0
C163 C 0.658 0.68258 0.97058 0.0
O164 O 0.6598 0.6598 0.99006 0.0
O165 O 0.66225 0.7119 0.98306 0.0
O166 O 0.64313 0.60667 0.05065 0.0
O167 O 0.62333 0.64045 0.07392 0.0
C168 C 0.35453 0.13163 0.23427 0.0
C169 C 0.32337 0.11928 0.25445 0.0
C170 C 0.36057 0.1541 0.20572 0.0
C171 C 0.33481 0.16439 0.19704 0.0
C172 C 0.30384 0.15278 0.21789 0.0
C173 C 0.29855 0.13049 0.24626 0.0
C174 C 0.39404 0.16605 0.18432 0.0
C175 C 0.27566 0.16305 0.20965 0.0
C176 C 0.35509 0.24294 0.13762 0.0
C177 C 0.33821 0.22505 0.10715 0.0
C178 C 0.35574 0.22374 0.16665 0.0
C179 C 0.33898 0.18571 0.16529 0.0
C180 C 0.32343 0.16772 0.13411 0.0
C181 C 0.3233 0.18757 0.10547 0.0
C182 C 0.37292 0.24403 0.19925 0.0
C183 C 0.30528 0.12725 0.13143 0.0
H184 H 0.3739 0.12318 0.24036 0.0
H185 H 0.27442 0.12121 0.26165 0.0
H186 H 0.38634 0.15407 0.15835 0.0
H187 H 0.40861 0.19572 0.18115 0.0
H188 H 0.4127 0.15799 0.19582 0.0
H189 H 0.25386 0.15306 0.22916 0.0
H190 H 0.28831 0.19275 0.20791 0.0
H191 H 0.26336 0.15183 0.18435 0.0
H192 H 0.36675 0.27188 0.13922 0.0
H193 H 0.31024 0.17343 0.08209 0.0
H194 H 0.39148 0.23547 0.20993 0.0
H195 H 0.35169 0.23779 0.21872 0.0
H196 H 0.38818 0.27362 0.19516 0.0
H197 H 0.3236 0.11773 0.14068 0.0
H198 H 0.29698 0.11758 0.10477 0.0
H199 H 0.28095 0.11475 0.14799 0.0
C200 C 0.1718 0.29705 0.58795 0.0
C201 C 0.20949 0.31843 0.58988 0.0
C202 C 0.15255 0.29912 0.55969 0.0
C203 C 0.17131 0.32334 0.5326 0.0
C204 C 0.20925 0.34583 0.53485 0.0
C205 C 0.22789 0.34302 0.56338 0.0
C206 C 0.11216 0.27454 0.55835 0.0
C207 C 0.23025 0.37221 0.50671 0.0
C208 C 0.12469 0.29795 0.44568 0.0
C209 C 0.10775 0.31878 0.4444 0.0
C210 C 0.14625 0.29998 0.47373 0.0
C211 C 0.15128 0.32358 0.50125 0.0
C212 C 0.13537 0.34567 0.49956 0.0
C213 C 0.11371 0.34293 0.47124 0.0
C214 C 0.16258 0.27586 0.47446 0.0
C215 C 0.1403 0.37141 0.52816 0.0
H216 H 0.15727 0.27794 0.60823 0.0
H217 H 0.25698 0.35971 0.56461 0.0
H218 H 0.09853 0.2905 0.55447 0.0
H219 H 0.10503 0.25593 0.53625 0.0
H220 H 0.1014 0.25829 0.58208 0.0
H221 H 0.25918 0.38955 0.51338 0.0
H222 H 0.22838 0.35738 0.48281 0.0
H223 H 0.21853 0.38965 0.50121 0.0
H224 H 0.12032 0.27921 0.42513 0.0
H225 H 0.10083 0.35919 0.47051 0.0
H226 H 0.15092 0.25653 0.49604 0.0
H227 H 0.19209 0.29204 0.47882 0.0
H228 H 0.15771 0.26039 0.45031 0.0
H229 H 0.12704 0.35602 0.55176 0.0
H230 H 0.12868 0.38879 0.52176 0.0
H231 H 0.16938 0.38883 0.53405 0.0
C232 C 0.77968 0.1289 0.79547 0.0
C233 C 0.7987 0.11665 0.7755 0.0
C234 C 0.7956 0.15076 0.82446 0.0
C235 C 0.83138 0.16058 0.83379 0.0
C236 C 0.85098 0.14908 0.81317 0.0
C237 C 0.83446 0.12736 0.78436 0.0
C238 C 0.77383 0.16257 0.84562 0.0
C239 C 0.88917 0.15889 0.82209 0.0
C240 C 0.88826 0.23798 0.89486 0.0
C241 C 0.88624 0.21953 0.92526 0.0
C242 C 0.86933 0.21933 0.86525 0.0
C243 C 0.84794 0.18129 0.86596 0.0
C244 C 0.84458 0.1627 0.89699 0.0
C245 C 0.86368 0.182 0.9262 0.0
C246 C 0.87347 0.24023 0.83281 0.0
C247 C 0.82207 0.12219 0.89898 0.0
H248 H 0.75205 0.12082 0.78887 0.0
H249 H 0.84948 0.11817 0.76914 0.0
H250 H 0.76899 0.15021 0.87146 0.0
H251 H 0.78903 0.19219 0.84916 0.0
H252 H 0.74736 0.15483 0.8337 0.0
H253 H 0.90126 0.14913 0.80267 0.0
H254 H 0.90637 0.18853 0.82436 0.0
H255 H 0.88955 0.14711 0.8473 0.0
H256 H 0.90555 0.26695 0.89382 0.0
H257 H 0.86183 0.16743 0.94951 0.0
H258 H 0.84664 0.23218 0.82165 0.0
H259 H 0.88862 0.23399 0.81355 0.0
H260 H 0.88807 0.26976 0.83727 0.0
H261 H 0.79445 0.11296 0.88928 0.0
H262 H 0.82011 0.112 0.92553 0.0
H263 H 0.83415 0.10992 0.88246 0.0
C264 C 0.64749 0.75629 0.13461 0.0
C265 C 0.6638 0.7745 0.10407 0.0
C266 C 0.64701 0.77513 0.16397 0.0
C267 C 0.66327 0.81313 0.16287 0.0
C268 C 0.67835 0.83145 0.13169 0.0
C269 C 0.67841 0.81197 0.10275 0.0
C270 C 0.63046 0.7545 0.19659 0.0
C271 C 0.69589 0.8719 0.12927 0.0
C272 C 0.64646 0.86546 0.23272 0.0
C273 C 0.6778 0.87831 0.2527 0.0
C274 C 0.64084 0.84346 0.2039 0.0
C275 C 0.66717 0.83409 0.1948 0.0
C276 C 0.69836 0.84621 0.21543 0.0
C277 C 0.70327 0.86809 0.24403 0.0
C278 C 0.60718 0.83103 0.18269 0.0
C279 C 0.72712 0.83686 0.20677 0.0
H280 H 0.63609 0.72736 0.13595 0.0
H281 H 0.69101 0.82635 0.07932 0.0
H282 H 0.65194 0.76127 0.2159 0.0
H283 H 0.6114 0.7623 0.20752 0.0
H284 H 0.61587 0.72492 0.19245 0.0
H285 H 0.70398 0.88183 0.10264 0.0
H286 H 0.67724 0.88089 0.13878 0.0
H287 H 0.72028 0.88463 0.14575 0.0
H288 H 0.62661 0.87317 0.23916 0.0
H289 H 0.72753 0.87775 0.25928 0.0
H290 H 0.59304 0.80137 0.17947 0.0
H291 H 0.61458 0.8431 0.15673 0.0
H292 H 0.58822 0.83859 0.19438 0.0
H293 H 0.71505 0.80725 0.20478 0.0
H294 H 0.74901 0.8471 0.22618 0.0
H295 H 0.73917 0.84849 0.18149 0.0
C296 C 0.87126 0.69333 0.44256 0.0
C297 C 0.88828 0.6726 0.44096 0.0
C298 C 0.84972 0.691 0.47072 0.0
C299 C 0.84471 0.66713 0.498 0.0
C300 C 0.86068 0.64511 0.49598 0.0
C301 C 0.88239 0.64822 0.46758 0.0
C302 C 0.83338 0.71512 0.47183 0.0
C303 C 0.85571 0.61903 0.52429 0.0
C304 C 0.824 0.69325 0.58474 0.0
C305 C 0.78625 0.67229 0.58631 0.0
C306 C 0.84335 0.69103 0.55665 0.0
C307 C 0.82463 0.66704 0.52943 0.0
C308 C 0.78666 0.64475 0.53146 0.0
C309 C 0.76791 0.64776 0.55977 0.0
C310 C 0.88378 0.71542 0.55553 0.0
C311 C 0.76571 0.61853 0.50322 0.0
H312 H 0.87559 0.71227 0.42219 0.0
H313 H 0.89532 0.63201 0.46659 0.0
H314 H 0.80384 0.69886 0.47602 0.0
H315 H 0.8449 0.7341 0.49366 0.0
H316 H 0.83839 0.73096 0.44789 0.0
H317 H 0.86727 0.60168 0.51757 0.0
H318 H 0.869 0.63413 0.54798 0.0
H319 H 0.82663 0.60159 0.53016 0.0
H320 H 0.83849 0.71231 0.60504 0.0
H321 H 0.73877 0.63138 0.56075 0.0
H322 H 0.89109 0.7344 0.5337 0.0
H323 H 0.89728 0.69938 0.55132 0.0
H324 H 0.89451 0.73126 0.57946 0.0
H325 H 0.76731 0.63353 0.4795 0.0
H326 H 0.73684 0.60093 0.50998 0.0
H327 H 0.77764 0.60135 0.49736 0.0
C328 C 0.22202 0.86524 0.79683 0.0
C329 C 0.20343 0.87766 0.77643 0.0
C330 C 0.20526 0.84259 0.8252 0.0
C331 C 0.16908 0.83219 0.83347 0.0
C332 C 0.14991 0.84378 0.81233 0.0
C333 C 0.16724 0.86625 0.78415 0.0
C334 C 0.22659 0.83067 0.84691 0.0
C335 C 0.11132 0.83337 0.82012 0.0
C336 C 0.11075 0.75375 0.89305 0.0
C337 C 0.11167 0.77172 0.92344 0.0
C338 C 0.13055 0.77289 0.86397 0.0
C339 C 0.15168 0.81094 0.8652 0.0
C340 C 0.15392 0.82903 0.89626 0.0
C341 C 0.134 0.80925 0.92494 0.0
C342 C 0.12762 0.75251 0.8315 0.0
C343 C 0.1761 0.86953 0.89879 0.0
H344 H 0.24996 0.87384 0.79111 0.0
H345 H 0.15255 0.87558 0.76857 0.0
H346 H 0.23073 0.84276 0.87281 0.0
H347 H 0.21143 0.80101 0.85018 0.0
H348 H 0.25339 0.83866 0.8356 0.0
H349 H 0.09963 0.84318 0.80031 0.0
H350 H 0.09434 0.80367 0.82198 0.0
H351 H 0.10996 0.8447 0.84526 0.0
H352 H 0.09366 0.72477 0.89159 0.0
H353 H 0.13501 0.82345 0.94825 0.0
H354 H 0.15483 0.76101 0.82105 0.0
H355 H 0.11283 0.75875 0.81181 0.0
H356 H 0.11321 0.72293 0.83565 0.0
H357 H 0.20406 0.8791 0.88989 0.0
H358 H 0.17714 0.87932 0.92534 0.0
H359 H 0.16438 0.88187 0.88187 0.0
C360 C 0.42207 0.97821 0.34576 0.0
C361 C 0.42074 0.00569 0.32746 0.0
C362 C 0.45133 0.97236 0.34245 0.0
C363 C 0.48022 0.99469 0.32044 0.0
C364 C 0.47836 0.02146 0.30066 0.0
C365 C 0.44851 0.02659 0.30433 0.0
C366 C 0.45208 0.94338 0.36389 0.0
C367 C 0.50868 0.04579 0.27693 0.0
C368 C 0.56972 0.00709 0.35066 0.0
C369 C 0.57378 0.98248 0.33016 0.0
C370 C 0.54021 0.01241 0.3466 0.0
C371 C 0.51385 0.99252 0.32148 0.0
C372 C 0.5183 0.96846 0.29987 0.0
C373 C 0.54833 0.96375 0.30443 0.0
C374 C 0.5366 0.03841 0.37015 0.0
C375 C 0.49071 0.94678 0.27283 0.0
H376 H 0.40048 0.96159 0.36336 0.0
H377 H 0.44755 0.04776 0.29 0.0
H378 H 0.45838 0.926 0.34767 0.0
H379 H 0.47365 0.956 0.38349 0.0
H380 H 0.42605 0.92616 0.3772 0.0
H381 H 0.50124 0.06211 0.2603 0.0
H382 H 0.53268 0.06434 0.29227 0.0
H383 H 0.51658 0.02978 0.26046 0.0
H384 H 0.58945 0.022 0.37038 0.0
H385 H 0.5514 0.94482 0.28839 0.0
H386 H 0.51271 0.02343 0.38695 0.0
H387 H 0.5323 0.05785 0.35501 0.0
H388 H 0.56074 0.0537 0.38663 0.0
H389 H 0.46512 0.92689 0.28533 0.0
H390 H 0.49986 0.9321 0.25588 0.0
H391 H 0.48469 0.96456 0.25685 0.0
C392 C 0.5778 0.55658 0.58854 0.0
C393 C 0.57773 0.58266 0.61016 0.0
C394 C 0.54605 0.52348 0.5831 0.0
C395 C 0.51399 0.51615 0.60043 0.0
C396 C 0.51332 0.54341 0.62029 0.0
C397 C 0.54505 0.57641 0.62455 0.0
C398 C 0.54744 0.49557 0.56065 0.0
C399 C 0.47992 0.53669 0.63966 0.0
C400 C 0.42038 0.4347 0.59065 0.0
C401 C 0.41976 0.41361 0.61841 0.0
C402 C 0.45202 0.467 0.5824 0.0
C403 C 0.48316 0.47876 0.60304 0.0
C404 C 0.48309 0.45652 0.62988 0.0
C405 C 0.45158 0.42409 0.63691 0.0
C406 C 0.4515 0.48935 0.55278 0.0
C407 C 0.51544 0.46818 0.65296 0.0
H408 H 0.60286 0.56142 0.57694 0.0
H409 H 0.54462 0.59653 0.64103 0.0
H410 H 0.54934 0.47538 0.57695 0.0
H411 H 0.52254 0.48112 0.54503 0.0
H412 H 0.57118 0.50779 0.54328 0.0
H413 H 0.48303 0.56158 0.65166 0.0
H414 H 0.45622 0.52551 0.62238 0.0
H415 H 0.47408 0.51656 0.66017 0.0
H416 H 0.39598 0.42652 0.57599 0.0
H417 H 0.45145 0.40788 0.6583 0.0
H418 H 0.47719 0.50108 0.53821 0.0
H419 H 0.44851 0.51197 0.56266 0.0
H420 H 0.42874 0.47326 0.53503 0.0
H421 H 0.53991 0.47552 0.63754 0.0
H422 H 0.51163 0.44686 0.67147 0.0
H423 H 0.52048 0.49243 0.66764 0.0
C424 C 0.9644 0.53979 0.96517 0.0
C425 C 0.98779 0.57198 0.94816 0.0
C426 C 0.96765 0.50904 0.9613 0.0
C427 C 0.99424 0.51006 0.939 0.0
C428 C 0.01605 0.54158 0.91964 0.0
C429 C 0.01301 0.57246 0.9249 0.0
C430 C 0.94436 0.47637 0.9831 0.0
C431 C 0.04373 0.54328 0.89462 0.0
C432 C 0.03072 0.45016 0.9682 0.0
C433 C 0.00827 0.41802 0.95072 0.0
C434 C 0.02751 0.48083 0.9634 0.0
C435 C 0.00198 0.47979 0.93967 0.0
C436 C 0.98116 0.4483 0.91995 0.0
C437 C 0.98407 0.41749 0.92616 0.0
C438 C 0.04968 0.51346 0.98561 0.0
C439 C 0.95467 0.44659 0.89347 0.0
H440 H 0.9449 0.53919 0.98328 0.0
H441 H 0.03098 0.59717 0.91146 0.0
H442 H 0.93042 0.45195 0.96691 0.0
H443 H 0.9616 0.47199 1.00149 0.0
H444 H 0.92373 0.47926 0.99783 0.0
H445 H 0.05346 0.56674 0.8771 0.0
H446 H 0.06724 0.54561 0.90886 0.0
H447 H 0.03237 0.51828 0.87911 0.0
H448 H 0.0494 0.45077 0.98732 0.0
H449 H 0.96685 0.3928 0.91237 0.0
H450 H 0.03154 0.51783 1.00278 0.0
H451 H 0.06447 0.53789 0.96955 0.0
H452 H 0.06951 0.51053 1.00166 0.0
H453 H 0.93052 0.44424 0.90644 0.0
H454 H 0.94577 0.42314 0.87609 0.0
H455 H 0.96674 0.47159 0.8779 0.0
C456 C 0.98261 0.55942 0.44171 0.0
C457 C 0.00649 0.58307 0.41701 0.0
C458 C 0.9811 0.52649 0.44869 0.0
C459 C 0.0032 0.51676 0.42977 0.0
C460 C 0.0288 0.54156 0.40635 0.0
C461 C 0.03043 0.57453 0.40062 0.0
C462 C 0.95444 0.50131 0.47481 0.0
C463 C 0.05249 0.53214 0.38512 0.0
C464 C 0.01594 0.43612 0.44316 0.0
C465 C 0.99212 0.41228 0.41856 0.0
C466 C 0.01775 0.4693 0.44946 0.0
C467 C 0.99604 0.47908 0.42993 0.0
C468 C 0.97063 0.45421 0.40646 0.0
C469 C 0.96867 0.42099 0.40143 0.0
C470 C 0.04419 0.49458 0.47564 0.0
C471 C 0.94739 0.46368 0.38457 0.0
H472 H 0.96435 0.56607 0.4548 0.0
H473 H 0.04914 0.59273 0.38163 0.0
H474 H 0.93051 0.47971 0.46149 0.0
H475 H 0.96647 0.48826 0.49034 0.0
H476 H 0.94519 0.51555 0.49224 0.0
H477 H 0.07267 0.55535 0.36981 0.0
H478 H 0.06702 0.52263 0.40178 0.0
H479 H 0.03547 0.5099 0.36728 0.0
H480 H 0.03383 0.42934 0.45678 0.0
H481 H 0.95005 0.40267 0.38247 0.0
H482 H 0.03213 0.50789 0.49071 0.0
H483 H 0.06835 0.51598 0.4624 0.0
H484 H 0.05309 0.48036 0.4935 0.0
H485 H 0.93252 0.47314 0.4008 0.0
H486 H 0.92753 0.44053 0.36902 0.0
H487 H 0.96477 0.48599 0.3669 0.0
C488 C 0.56244 0.98639 0.67989 0.0
C489 C 0.59117 0.0099 0.701 0.0
C490 C 0.52773 0.98125 0.68444 0.0
C491 C 0.52142 0.00013 0.71076 0.0
C492 C 0.54993 0.02289 0.73303 0.0
C493 C 0.58457 0.02753 0.72789 0.0
C494 C 0.49813 0.95672 0.66009 0.0
C495 C 0.54416 0.04337 0.76142 0.0
C496 C 0.44561 0.01789 0.689 0.0
C497 C 0.41624 0.98988 0.70628 0.0
C498 C 0.48032 0.0226 0.69178 0.0
C499 C 0.48595 -0.00136 0.71228 0.0
C500 C 0.45678 0.97123 0.73104 0.0
C501 C 0.42217 0.96718 0.72785 0.0
C502 C 0.51065 0.05225 0.6714 0.0
C503 C 0.46181 0.94523 0.75321 0.0
H504 H 0.56716 0.97234 0.65924 0.0
H505 H 0.60659 0.04556 0.74442 0.0
H506 H 0.47408 0.93684 0.6746 0.0
H507 H 0.48978 0.97281 0.64424 0.0
H508 H 0.50677 0.94194 0.64268 0.0
H509 H 0.56782 0.05671 0.7788 0.0
H510 H 0.53919 0.06429 0.75021 0.0
H511 H 0.52001 0.02506 0.77673 0.0
H512 H 0.44139 0.03586 0.67259 0.0
H513 H 0.39963 0.94561 0.74141 0.0
H514 H 0.51954 0.04028 0.6511 0.0
H515 H 0.53421 0.06855 0.68816 0.0
H516 H 0.50248 0.07044 0.65905 0.0
H517 H 0.467 0.92722 0.73673 0.0
H518 H 0.43771 0.92835 0.76927 0.0
H519 H 0.48558 0.95997 0.77018 0.0
C520 C 0.41927 0.45485 0.06834 0.0
C521 C 0.41085 0.42263 0.08506 0.0
C522 C 0.45347 0.48551 0.07153 0.0
C523 C 0.47964 0.48437 0.09288 0.0
C524 C 0.47034 0.45281 0.11202 0.0
C525 C 0.43622 0.42202 0.1074 0.0
C526 C 0.46238 0.51819 0.04994 0.0
C527 C 0.49698 0.45098 0.13608 0.0
C528 C 0.57541 0.54362 0.06162 0.0
C529 C 0.58593 0.57576 0.07942 0.0
C530 C 0.54143 0.5132 0.06686 0.0
C531 C 0.51769 0.51448 0.09138 0.0
C532 C 0.5292 0.546 0.11128 0.0
C533 C 0.56298 0.57658 0.10462 0.0
C534 C 0.53004 0.48056 0.04441 0.0
C535 C 0.50526 0.54795 0.13857 0.0
H536 H 0.39989 0.45552 0.0509 0.0
H537 H 0.42976 0.39726 0.1206 0.0
H538 H 0.47356 0.54266 0.06613 0.0
H539 H 0.48334 0.52238 0.03082 0.0
H540 H 0.43846 0.51544 0.03606 0.0
H541 H 0.48367 0.42753 0.15366 0.0
H542 H 0.51766 0.44855 0.12106 0.0
H543 H 0.51117 0.47597 0.15155 0.0
H544 H 0.59291 0.54281 0.04198 0.0
H545 H 0.5711 0.60128 0.11864 0.0
H546 H 0.50702 0.47632 0.02805 0.0
H547 H 0.52079 0.4561 0.06034 0.0
H548 H 0.55221 0.48337 0.02753 0.0
H549 H 0.48315 0.55033 0.12635 0.0
H550 H 0.5204 0.57145 0.15576 0.0
H551 H 0.4927 0.52301 0.15424 0.0
C552 C 0.10229 0.77657 0.37244 0.0
C553 C 0.07081 0.77653 0.38254 0.0
C554 C 0.13333 0.80853 0.3631 0.0
C555 C 0.13328 0.84143 0.36495 0.0
C556 C 0.10217 0.84187 0.3767 0.0
C557 C 0.071 0.80924 0.38483 0.0
C558 C 0.16581 0.80692 0.35025 0.0
C559 C 0.10168 0.87668 0.38015 0.0
C560 C 0.22592 0.924 0.36923 0.0
C561 C 0.23059 0.93724 0.33563 0.0
C562 C 0.19389 0.89356 0.37936 0.0
C563 C 0.16616 0.87531 0.35503 0.0
C564 C 0.1707 0.88844 0.32094 0.0
C565 C 0.20277 0.91981 0.31177 0.0
C566 C 0.18965 0.88117 0.4162 0.0
C567 C 0.14199 0.869 0.29413 0.0
H568 H 0.10217 0.75132 0.3701 0.0
H569 H 0.04666 0.80925 0.39253 0.0
H570 H 0.17293 0.81845 0.32405 0.0
H571 H 0.18943 0.82334 0.36692 0.0
H572 H 0.16109 0.77899 0.34954 0.0
H573 H 0.07614 0.87259 0.39164 0.0
H574 H 0.12456 0.89591 0.39633 0.0
H575 H 0.10508 0.88932 0.35461 0.0
H576 H 0.24706 0.93816 0.38803 0.0
H577 H 0.20635 0.93038 0.28594 0.0
H578 H 0.18388 0.85294 0.41746 0.0
H579 H 0.16641 0.88187 0.42798 0.0
H580 H 0.21412 0.89819 0.43174 0.0
H581 H 0.13685 0.84109 0.29112 0.0
H582 H 0.14973 0.88266 0.26882 0.0
H583 H 0.11629 0.86711 0.30237 0.0
C584 C 0.26803 0.18885 0.64867 0.0
C585 C 0.2953 0.2224 0.66016 0.0
C586 C 0.26817 0.15723 0.65789 0.0
C587 C 0.2953 0.15938 0.68028 0.0
C588 C 0.32244 0.19323 0.6924 0.0
C589 C 0.32248 0.22437 0.68166 0.0
C590 C 0.23957 0.12162 0.64351 0.0
C591 C 0.35116 0.19655 0.71709 0.0
C592 C 0.27751 0.07389 0.72631 0.0
C593 C 0.29857 0.06376 0.70696 0.0
C594 C 0.27673 0.10548 0.71842 0.0
C595 C 0.29647 0.12651 0.68984 0.0
C596 C 0.31798 0.11652 0.67048 0.0
C597 C 0.31925 0.08565 0.67963 0.0
C598 C 0.25448 0.11611 0.74032 0.0
C599 C 0.33872 0.13774 0.63933 0.0
H600 H 0.24689 0.18743 0.63229 0.0
H601 H 0.3431 0.25031 0.69126 0.0
H602 H 0.25248 0.10852 0.62944 0.0
H603 H 0.22357 0.10328 0.66464 0.0
H604 H 0.22093 0.12468 0.62582 0.0
H605 H 0.369 0.22472 0.72568 0.0
H606 H 0.3384 0.17946 0.73996 0.0
H607 H 0.36807 0.1868 0.70482 0.0
H608 H 0.26136 0.05692 0.7473 0.0
H609 H 0.33509 0.07767 0.66411 0.0
H610 H 0.23235 0.11529 0.72484 0.0
H611 H 0.27141 0.14415 0.74957 0.0
H612 H 0.24251 0.09808 0.76281 0.0
H613 H 0.31995 0.1391 0.62056 0.0
H614 H 0.35339 0.12571 0.62649 0.0
H615 H 0.35855 0.16576 0.64673 0.0
C616 C 0.20268 0.29614 0.06492 0.0
C617 C 0.21548 0.27486 0.05016 0.0
C618 C 0.16967 0.29267 0.05453 0.0
C619 C 0.14946 0.26786 0.02832 0.0
C620 C 0.16118 0.24486 1.0148 0.0
C621 C 0.19381 0.24832 0.02621 0.0
C622 C 0.15737 0.31687 0.07032 0.0
C623 C 0.14061 0.21835 0.98658 0.0
C624 C 0.05325 0.24719 1.01512 0.0
C625 C 0.05781 0.2731 0.99054 0.0
C626 C 0.08269 0.24452 0.0271 0.0
C627 C 0.11738 0.26769 1.01356 0.0
C628 C 0.12176 0.29208 0.98697 0.0
C629 C 0.09194 0.29478 0.97602 0.0
C630 C 0.07701 0.21851 0.05576 0.0
C631 C 0.15824 0.31647 0.97118 0.0
H632 H 0.21915 0.31654 0.08354 0.0
H633 H 0.20345 0.23176 1.01452 0.0
H634 H 0.15907 0.33663 0.05098 0.0
H635 H 0.12878 0.30087 0.07851 0.0
H636 H 0.17404 0.33186 0.0928 0.0
H637 H 0.15139 0.20004 0.98122 0.0
H638 H 0.11164 0.20187 0.99328 0.0
H639 H 0.14236 0.23326 0.96274 0.0
H640 H 0.02701 0.23045 0.02671 0.0
H641 H 0.09562 0.31474 0.95697 0.0
H642 H 0.09028 0.23382 0.07938 0.0
H643 H 0.08958 0.20204 0.04936 0.0
H644 H 0.04797 0.20017 0.06135 0.0
H645 H 0.17627 0.33626 0.9905 0.0
H646 H 0.1565 0.33142 0.94869 0.0
H647 H 0.17095 0.3006 0.96298 0.0
C648 C 0.89317 0.21842 0.37887 0.0
C649 C 0.92441 0.21767 0.38838 0.0
C650 C 0.86181 0.18694 0.36919 0.0
C651 C 0.86129 0.15373 0.37011 0.0
C652 C 0.89204 0.15244 0.38157 0.0
C653 C 0.92354 0.1846 0.39005 0.0
C654 C 0.8297 0.18945 0.35668 0.0
C655 C 0.8919 0.11724 0.38411 0.0
C656 C 0.7686 0.07098 0.37172 0.0
C657 C 0.76475 0.05873 0.3378 0.0
C658 C 0.80024 0.10131 0.38275 0.0
C659 C 0.82841 0.12045 0.35904 0.0
C660 C 0.82458 0.10851 0.32458 0.0
C661 C 0.79291 0.07723 0.31448 0.0
C662 C 0.80372 0.11241 0.41994 0.0
C663 C 0.85379 0.12894 0.29842 0.0
H664 H 0.89379 0.24395 0.37705 0.0
H665 H 0.94767 0.18397 0.39734 0.0
H666 H 0.82307 0.17927 0.33 0.0
H667 H 0.8057 0.17231 0.37267 0.0
H668 H 0.83463 0.21745 0.35729 0.0
H669 H 0.91701 0.12056 0.39592 0.0
H670 H 0.8685 0.09763 0.39955 0.0
H671 H 0.88901 0.1055 0.3582 0.0
H672 H 0.74723 0.05602 0.39012 0.0
H673 H 0.78999 0.06745 0.28841 0.0
H674 H 0.80979 0.14068 0.42204 0.0
H675 H 0.82651 0.11096 0.43186 0.0
H676 H 0.77883 0.09504 0.43484 0.0
H677 H 0.85939 0.15711 0.29668 0.0
H678 H 0.84631 0.11651 0.27257 0.0
H679 H 0.87916 0.13002 0.3065 0.0
C680 C 0.74027 0.80917 0.63965 0.0
C681 C 0.70759 0.7765 0.6408 0.0
C682 C 0.74157 0.84169 0.64782 0.0
C683 C 0.70966 0.84116 0.65845 0.0
C684 C 0.6765 0.80836 0.65885 0.0
C685 C 0.67578 0.77653 0.64947 0.0
C686 C 0.77714 0.87645 0.64585 0.0
C687 C 0.64198 0.80666 0.67046 0.0
C688 C 0.71757 0.9177 0.71383 0.0
C689 C 0.70861 0.9365 0.69021 0.0
C690 C 0.71799 0.88641 0.70386 0.0
C691 C 0.71063 0.87478 0.66927 0.0
C692 C 0.70253 0.89436 0.64522 0.0
C693 C 0.70118 0.9247 0.65611 0.0
C694 C 0.72574 0.86551 0.73035 0.0
C695 C 0.69577 0.88361 0.60791 0.0
H696 H 0.76488 0.8092 0.633 0.0
H697 H 0.65048 0.75131 0.65088 0.0
H698 H 0.77423 0.89648 0.63021 0.0
H699 H 0.78563 0.88797 0.67188 0.0
H700 H 0.7988 0.87258 0.63455 0.0
H701 H 0.61851 0.77887 0.66962 0.0
H702 H 0.64515 0.81689 0.69708 0.0
H703 H 0.63598 0.82414 0.65404 0.0
H704 H 0.72368 0.92716 0.74006 0.0
H705 H 0.69534 0.93994 0.63754 0.0
H706 H 0.74979 0.86377 0.72273 0.0
H707 H 0.70269 0.83758 0.73193 0.0
H708 H 0.73056 0.87796 0.75618 0.0
H709 H 0.72029 0.88519 0.59655 0.0
H710 H 0.6886 0.90112 0.59281 0.0
H711 H 0.67361 0.85536 0.60535 0.0
C712 C 0.79332 0.69738 0.05575 0.0
C713 C 0.78131 0.71919 0.0407 0.0
C714 C 0.82602 0.7 0.0456 0.0
C715 C 0.84669 0.72441 0.01927 0.0
C716 C 0.83557 0.74767 1.00517 0.0
C717 C 0.80324 0.74509 1.01636 0.0
C718 C 0.83765 0.67551 0.06198 0.0
C719 C 0.85659 0.7737 0.97674 0.0
C720 C 0.94284 0.7441 1.00831 0.0
C721 C 0.9385 0.71787 0.98424 0.0
C722 C 0.91336 0.74723 0.01933 0.0
C723 C 0.87888 0.72419 1.00532 0.0
C724 C 0.87478 0.69949 0.97919 0.0
C725 C 0.90461 0.69634 0.96921 0.0
C726 C 0.91874 0.77357 0.04754 0.0
C727 C 0.83855 0.67522 0.9629 0.0
H728 H 0.77657 0.67742 0.07461 0.0
H729 H 0.79408 0.76191 1.00437 0.0
H730 H 0.83619 0.65569 0.04285 0.0
H731 H 0.86608 0.6913 0.07068 0.0
H732 H 0.82046 0.66059 0.08423 0.0
H733 H 0.84597 0.79198 0.97054 0.0
H734 H 0.88545 0.79024 0.9838 0.0
H735 H 0.8552 0.75842 0.95331 0.0
H736 H 0.96888 0.76075 0.02028 0.0
H737 H 0.9011 0.67613 0.95053 0.0
H738 H 0.90482 0.75853 0.07109 0.0
H739 H 0.90665 0.79028 0.04034 0.0
H740 H 0.9477 0.79167 0.05361 0.0
H741 H 0.8201 0.65557 0.98211 0.0
H742 H 0.8406 0.66012 0.94071 0.0
H743 H 0.82616 0.69122 0.95414 0.0
C744 C 0.33154 0.05649 0.46254 0.0
C745 C 0.3073 0.04478 0.43505 0.0
C746 C 0.32083 0.04019 0.49499 0.0
C747 C 0.28561 0.01031 0.49951 0.0
C748 C 0.26076 -0.00091 0.47203 0.0
C749 C 0.27168 0.01695 0.44039 0.0
C750 C 0.34775 0.05388 0.524 0.0
C751 C 0.22341 0.96672 0.47531 0.0
C752 C 0.28048 0.9469 0.57038 0.0
C753 C 0.26471 0.95607 0.59708 0.0
C754 C 0.28528 0.96269 0.53778 0.0
C755 C 0.27566 0.98954 0.53228 0.0
C756 C 0.25845 0.99784 0.55882 0.0
C757 C 0.25258 0.9805 0.59067 0.0
C758 C 0.30224 0.95188 0.50971 0.0
C759 C 0.24892 0.02712 0.5546 0.0
H760 H 0.35919 0.07757 0.45834 0.0
H761 H 0.25309 0.00706 0.41895 0.0
H762 H 0.33529 0.05754 0.54748 0.0
H763 H 0.35616 0.03385 0.52998 0.0
H764 H 0.37221 0.07987 0.5176 0.0
H765 H 0.20762 0.96088 0.45122 0.0
H766 H 0.22537 0.94267 0.48232 0.0
H767 H 0.20836 0.97105 0.49613 0.0
H768 H 0.29029 0.9284 0.57539 0.0
H769 H 0.2413 0.98847 0.6115 0.0
H770 H 0.32988 0.97432 0.50442 0.0
H771 H 0.28649 0.94627 0.48565 0.0
H772 H 0.30399 0.92768 0.5167 0.0
H773 H 0.2741 0.0536 0.55295 0.0
H774 H 0.23261 0.02794 0.57637 0.0
H775 H 0.23375 0.02344 0.5305 0.0
C776 C 0.33302 0.35438 0.92843 0.0
C777 C 0.33645 0.32499 0.93949 0.0
C778 C 0.32688 0.35869 0.89393 0.0
C779 C 0.32471 0.33338 0.86949 0.0
C780 C 0.32954 0.30441 0.88011 0.0
C781 C 0.33514 0.30041 0.91503 0.0
C782 C 0.32168 0.38982 0.88379 0.0
C783 C 0.32806 0.27723 0.85464 0.0
C784 C 0.27606 0.32278 0.7847 0.0
C785 C 0.30508 0.34214 0.76225 0.0
C786 C 0.28196 0.32037 0.81986 0.0
C787 C 0.3177 0.3375 0.83279 0.0
C788 C 0.34689 0.35847 0.81058 0.0
C789 C 0.34022 0.36077 0.77575 0.0
C790 C 0.25004 0.29839 0.84294 0.0
C791 C 0.38539 0.37723 0.82327 0.0
H792 H 0.3339 0.37361 0.94698 0.0
H793 H 0.33759 0.27758 0.92324 0.0
H794 H 0.34157 0.40641 0.86387 0.0
H795 H 0.29444 0.37945 0.87255 0.0
H796 H 0.32458 0.40741 0.90587 0.0
H797 H 0.33364 0.25705 0.86673 0.0
H798 H 0.30099 0.26288 0.84255 0.0
H799 H 0.348 0.29111 0.83387 0.0
H800 H 0.24885 0.30816 0.7746 0.0
H801 H 0.36292 0.37593 0.75876 0.0
H802 H 0.25088 0.31458 0.86546 0.0
H803 H 0.25124 0.27473 0.85275 0.0
H804 H 0.22392 0.28871 0.82947 0.0
H805 H 0.38863 0.39514 0.84512 0.0
H806 H 0.40498 0.39353 0.80296 0.0
H807 H 0.39224 0.35696 0.83272 0.0
C808 C 0.03721 0.31933 0.25154 0.0
C809 C 0.023 0.33397 0.2748 0.0
C810 C 0.02867 0.31668 0.21641 0.0
C811 C 0.00518 0.32866 0.20432 0.0
C812 C 0.99177 0.34452 0.22748 0.0
C813 C 0.00102 0.3472 0.26225 0.0
C814 C 0.04404 0.3002 0.19235 0.0
C815 C 0.96666 0.35762 0.21572 0.0
C816 C 0.00603 0.34889 0.10946 0.0
C817 C 0.97667 0.31691 0.09693 0.0
C818 C 0.01541 0.35309 0.14426 0.0
C819 C 0.9947 0.32485 0.16744 0.0
C820 C 0.96403 0.29313 0.15537 0.0
C821 C 0.95543 0.28947 0.12022 0.0
C822 C 0.04829 0.38733 0.156 0.0
C823 C 0.94089 0.26266 0.17945 0.0
H824 H 0.05404 0.30889 0.2609 0.0
H825 H 0.98985 0.35862 0.27986 0.0
H826 H 0.02184 0.27518 0.18104 0.0
H827 H 0.05839 0.31894 0.17089 0.0
H828 H 0.06307 0.29359 0.20544 0.0
H829 H 0.95911 0.36994 0.23685 0.0
H830 H 0.97946 0.3778 0.19498 0.0
H831 H 0.94167 0.3348 0.20501 0.0
H832 H 0.02267 0.37038 0.09182 0.0
H833 H 0.93284 0.26462 0.11085 0.0
H834 H 0.06852 0.38099 0.16667 0.0
H835 H 0.04091 0.40012 0.17677 0.0
H836 H 0.06107 0.4071 0.13487 0.0
H837 H 0.95712 0.25156 0.19071 0.0
H838 H 0.91707 0.24052 0.16638 0.0
H839 H 0.93137 0.27271 0.20094 0.0
C840 C 0.67124 0.94025 0.46269 0.0
C841 C 0.69481 0.95007 0.43472 0.0
C842 C 0.68312 0.95774 0.49449 0.0
C843 C 0.71895 0.98683 0.49792 0.0
C844 C 0.74318 0.99596 0.47009 0.0
C845 C 0.73102 0.97697 0.43912 0.0
C846 C 0.65682 0.94622 0.52397 0.0
C847 C 0.78131 0.02721 0.47227 0.0
C848 C 0.72847 0.05462 0.56598 0.0
C849 C 0.74343 0.04533 0.59333 0.0
C850 C 0.72251 0.0373 0.53405 0.0
C851 C 0.7302 0.00893 0.52988 0.0
C852 C 0.74659 0.00043 0.55702 0.0
C853 C 0.7537 0.01925 0.58812 0.0
C854 C 0.70632 0.04817 0.50528 0.0
C855 C 0.75459 0.96998 0.55402 0.0
H856 H 0.64319 0.91983 0.45931 0.0
H857 H 0.74924 0.98535 0.4174 0.0
H858 H 0.66913 0.94234 0.54746 0.0
H859 H 0.65013 0.9676 0.52952 0.0
H860 H 0.63138 0.92084 0.51839 0.0
H861 H 0.79569 0.03297 0.44734 0.0
H862 H 0.78121 0.05183 0.48086 0.0
H863 H 0.79673 0.02133 0.49151 0.0
H864 H 0.72011 0.0744 0.56999 0.0
H865 H 0.76454 0.0113 0.60937 0.0
H866 H 0.6783 0.02629 0.5004 0.0
H867 H 0.72189 0.05239 0.4813 0.0
H868 H 0.70573 0.07319 0.51128 0.0
H869 H 0.73013 0.94499 0.54564 0.0
H870 H 0.76408 0.96449 0.57859 0.0
H871 H 0.77565 0.97662 0.53431 0.0
C872 C 0.65311 0.64427 0.92037 0.0
C873 C 0.65663 0.6766 0.93293 0.0
C874 C 0.65812 0.63991 0.88556 0.0
C875 C 0.66642 0.66838 0.86242 0.0
C876 C 0.66838 0.70049 0.87453 0.0
C877 C 0.66357 0.70429 0.90968 0.0
C878 C 0.65575 0.60523 0.87377 0.0
C879 C 0.67659 0.73125 0.8505 0.0
C880 C 0.71442 0.67291 0.77859 0.0
C881 C 0.68574 0.65907 0.75514 0.0
C882 C 0.70848 0.67562 0.81369 0.0
C883 C 0.67309 0.66445 0.82556 0.0
C884 C 0.64395 0.64938 0.80222 0.0
C885 C 0.65058 0.64666 0.76746 0.0
C886 C 0.74019 0.69128 0.83795 0.0
C887 C 0.60584 0.63714 0.81375 0.0
H888 H 0.64769 0.62259 0.938 0.0
H889 H 0.66652 0.7294 0.91907 0.0
H890 H 0.63566 0.59298 0.85286 0.0
H891 H 0.68217 0.61088 0.86329 0.0
H892 H 0.64808 0.58529 0.89484 0.0
H893 H 0.6755 0.75369 0.86357 0.0
H894 H 0.70389 0.74176 0.83936 0.0
H895 H 0.65711 0.72167 0.82892 0.0
H896 H 0.74166 0.68271 0.76941 0.0
H897 H 0.62811 0.63587 0.7497 0.0
H898 H 0.73516 0.67229 0.85934 0.0
H899 H 0.74362 0.71651 0.84934 0.0
H900 H 0.76573 0.69732 0.825 0.0
H901 H 0.59786 0.61683 0.83446 0.0
H902 H 0.58604 0.62528 0.79251 0.0
H903 H 0.60429 0.66031 0.82444 0.0
C904 C 0.99286 0.64252 0.25868 0.0
C905 C 0.97158 0.65654 0.27127 0.0
C906 C 0.00178 0.64478 0.22385 0.0
C907 C 0.98879 0.66106 0.20071 0.0
C908 C 0.96588 0.67373 0.21283 0.0
C909 C 0.95763 0.67143 0.248 0.0
C910 C 0.02621 0.63088 0.21203 0.0
C911 C 0.95097 0.69069 0.18879 0.0
C912 C 0.039 0.70004 0.11675 0.0
C913 C 0.01743 0.67291 0.09336 0.0
C914 C 0.03035 0.69631 0.15189 0.0
C915 C -0.0007 0.66485 0.16384 0.0
C916 C 0.97821 0.63691 0.14055 0.0
C917 C 0.98764 0.64117 0.10575 0.0
C918 C 0.05386 0.72647 0.17609 0.0
C919 C 0.94494 0.60295 0.15217 0.0
H920 H 0.00379 0.63087 0.27631 0.0
H921 H 0.94133 0.68247 0.25739 0.0
H922 H 0.01315 0.61098 0.19113 0.0
H923 H 0.05155 0.65342 0.20152 0.0
H924 H 0.03319 0.618 0.23309 0.0
H925 H 0.93219 0.69762 0.20189 0.0
H926 H 0.97345 0.71559 0.17757 0.0
H927 H 0.93649 0.67213 0.16727 0.0
H928 H 0.06192 0.72469 0.10749 0.0
H929 H 0.97073 0.61992 0.08802 0.0
H930 H 0.06307 0.71598 0.19748 0.0
H931 H 0.03802 0.73792 0.18749 0.0
H932 H 0.07789 0.74843 0.16309 0.0
H933 H 0.9519 0.58979 0.17292 0.0
H934 H 0.93195 0.58334 0.13097 0.0
H935 H 0.92502 0.60973 0.16282 0.0
loop_
_geom_bond_atom_site_label_1
_geom_bond_atom_site_label_2
_geom_bond_distance
_geom_bond_site_symmetry_2
_ccdc_geom_bond_type
O0 Cd1 2.223 . S
O0 C8 1.315 1_545 S
Cd1 O0 2.223 . S
Cd1 O4 2.297 . S
Cd1 O5 2.439 . S
Cd1 O11 2.240 . S
Cd2 O3 2.240 . S
Cd2 O10 2.223 . S
Cd2 O12 2.297 . S
Cd2 O13 2.439 1_565 S
O3 Cd2 2.240 . S
O3 C8 1.279 . S
O4 Cd1 2.297 . S
O4 C6 1.247 . S
O5 Cd1 2.439 . S
O5 C6 1.208 . S
C6 O4 1.247 . S
C6 O5 1.208 . S
C7 O12 1.247 1_545 S
C7 O13 1.208 . S
C8 O0 1.315 1_565 S
C8 O3 1.279 . S
C9 O10 1.315 1_545 S
C9 O11 1.279 . S
O10 Cd2 2.223 . S
O10 C9 1.315 1_565 S
O11 Cd1 2.240 . S
O11 C9 1.279 . S
O12 Cd2 2.297 . S
O12 C7 1.247 1_565 S
O13 Cd2 2.439 1_545 S
O13 C7 1.208 . S
O14 Cd15 2.223 . S
O14 C22 1.315 . S
Cd15 O14 2.223 . S
Cd15 O18 2.297 . S
Cd15 O19 2.439 . S
Cd15 O25 2.240 . S
Cd16 O17 2.240 . S
Cd16 O24 2.223 . S
Cd16 O26 2.297 . S
Cd16 O27 2.439 . S
O17 Cd16 2.240 . S
O17 C22 1.279 . S
O18 Cd15 2.297 . S
O18 C20 1.247 . S
O19 Cd15 2.439 . S
O19 C20 1.208 . S
C20 O18 1.247 . S
C20 O19 1.208 . S
C21 O26 1.247 . S
C21 O27 1.208 . S
C22 O14 1.315 . S
C22 O17 1.279 . S
C23 O24 1.315 . S
C23 O25 1.279 . S
O24 Cd16 2.223 . S
O24 C23 1.315 . S
O25 Cd15 2.240 . S
O25 C23 1.279 . S
O26 Cd16 2.297 . S
O26 C21 1.247 . S
O27 Cd16 2.439 . S
O27 C21 1.208 . S
O28 Cd29 2.223 1_554 S
O28 C36 1.315 1_654 S
Cd29 O28 2.223 1_556 S
Cd29 O32 2.297 . S
Cd29 O33 2.439 . S
Cd29 O39 2.240 1_556 S
Cd30 O31 2.240 . S
Cd30 O38 2.223 1_556 S
Cd30 O40 2.297 1_556 S
Cd30 O41 2.439 1_455 S
O31 Cd30 2.240 . S
O31 C36 1.279 . S
O32 Cd29 2.297 . S
O32 C34 1.247 . S
O33 Cd29 2.439 . S
O33 C34 1.208 . S
C34 O32 1.247 . S
C34 O33 1.208 . S
C35 O40 1.247 1_656 S
C35 O41 1.208 . S
C36 O28 1.315 1_456 S
C36 O31 1.279 . S
C37 O38 1.315 1_655 S
C37 O39 1.279 . S
O38 Cd30 2.223 1_554 S
O38 C37 1.315 1_455 S
O39 Cd29 2.240 1_554 S
O39 C37 1.279 . S
O40 Cd30 2.297 1_554 S
O40 C35 1.247 1_454 S
O41 Cd30 2.439 1_655 S
O41 C35 1.208 . S
O42 Cd43 2.223 . S
O42 C50 1.315 1_565 S
Cd43 O42 2.223 . S
Cd43 O46 2.297 . S
Cd43 O47 2.439 . S
Cd43 O53 2.240 . S
Cd44 O45 2.240 . S
Cd44 O52 2.223 . S
Cd44 O54 2.297 . S
Cd44 O55 2.439 1_545 S
O45 Cd44 2.240 . S
O45 C50 1.279 . S
O46 Cd43 2.297 . S
O46 C48 1.247 . S
O47 Cd43 2.439 . S
O47 C48 1.208 . S
C48 O46 1.247 . S
C48 O47 1.208 . S
C49 O54 1.247 1_565 S
C49 O55 1.208 . S
C50 O42 1.315 1_545 S
C50 O45 1.279 . S
C51 O52 1.315 1_565 S
C51 O53 1.279 . S
O52 Cd44 2.223 . S
O52 C51 1.315 1_545 S
O53 Cd43 2.240 . S
O53 C51 1.279 . S
O54 Cd44 2.297 . S
O54 C49 1.247 1_545 S
O55 Cd44 2.439 1_565 S
O55 C49 1.208 . S
O56 Cd57 2.223 . S
O56 C64 1.315 . S
Cd57 O56 2.223 . S
Cd57 O60 2.297 . S
Cd57 O61 2.439 . S
Cd57 O67 2.240 . S
Cd58 O59 2.240 . S
Cd58 O66 2.223 . S
Cd58 O68 2.297 . S
Cd58 O69 2.439 . S
O59 Cd58 2.240 . S
O59 C64 1.279 . S
O60 Cd57 2.297 . S
O60 C62 1.247 . S
O61 Cd57 2.439 . S
O61 C62 1.208 . S
C62 O60 1.247 . S
C62 O61 1.208 . S
C63 O68 1.247 . S
C63 O69 1.208 . S
C64 O56 1.315 . S
C64 O59 1.279 . S
C65 O66 1.315 . S
C65 O67 1.279 . S
O66 Cd58 2.223 . S
O66 C65 1.315 . S
O67 Cd57 2.240 . S
O67 C65 1.279 . S
O68 Cd58 2.297 . S
O68 C63 1.247 . S
O69 Cd58 2.439 . S
O69 C63 1.208 . S
O70 Cd71 2.223 1_554 S
O70 C78 1.315 1_454 S
Cd71 O70 2.223 1_556 S
Cd71 O74 2.297 . S
Cd71 O75 2.439 . S
Cd71 O81 2.240 1_556 S
Cd72 O73 2.240 . S
Cd72 O80 2.223 1_556 S
Cd72 O82 2.297 1_556 S
Cd72 O83 2.439 1_655 S
O73 Cd72 2.240 . S
O73 C78 1.279 . S
O74 Cd71 2.297 . S
O74 C76 1.247 . S
O75 Cd71 2.439 . S
O75 C76 1.208 . S
C76 O74 1.247 . S
C76 O75 1.208 . S
C77 O82 1.247 1_456 S
C77 O83 1.208 . S
C78 O70 1.315 1_656 S
C78 O73 1.279 . S
C79 O80 1.315 1_455 S
C79 O81 1.279 . S
O80 Cd72 2.223 1_554 S
O80 C79 1.315 1_655 S
O81 Cd71 2.240 1_554 S
O81 C79 1.279 . S
O82 Cd72 2.297 1_554 S
O82 C77 1.247 1_654 S
O83 Cd72 2.439 1_455 S
O83 C77 1.208 . S
O84 Cd85 2.223 . S
O84 C92 1.315 1_655 S
Cd85 O84 2.223 . S
Cd85 O88 2.297 . S
Cd85 O89 2.439 . S
Cd85 O95 2.240 . S
Cd86 O87 2.240 . S
Cd86 O94 2.223 . S
Cd86 O96 2.297 . S
Cd86 O97 2.439 1_455 S
O87 Cd86 2.240 . S
O87 C92 1.279 . S
O88 Cd85 2.297 . S
O88 C90 1.247 . S
O89 Cd85 2.439 . S
O89 C90 1.208 . S
C90 O88 1.247 . S
C90 O89 1.208 . S
C91 O96 1.247 1_655 S
C91 O97 1.208 . S
C92 O84 1.315 1_455 S
C92 O87 1.279 . S
C93 O94 1.315 1_655 S
C93 O95 1.279 . S
O94 Cd86 2.223 . S
O94 C93 1.315 1_455 S
O95 Cd85 2.240 . S
O95 C93 1.279 . S
O96 Cd86 2.297 . S
O96 C91 1.247 1_455 S
O97 Cd86 2.439 1_655 S
O97 C91 1.208 . S
O98 Cd99 2.223 . S
O98 C106 1.315 1_565 S
Cd99 O98 2.223 . S
Cd99 O102 2.297 . S
Cd99 O103 2.439 . S
Cd99 O109 2.240 . S
Cd100 O101 2.240 . S
Cd100 O108 2.223 . S
Cd100 O110 2.297 . S
Cd100 O111 2.439 1_545 S
O101 Cd100 2.240 . S
O101 C106 1.279 . S
O102 Cd99 2.297 . S
O102 C104 1.247 . S
O103 Cd99 2.439 . S
O103 C104 1.208 . S
C104 O102 1.247 . S
C104 O103 1.208 . S
C105 O110 1.247 1_565 S
C105 O111 1.208 . S
C106 O98 1.315 1_545 S
C106 O101 1.279 . S
C107 O108 1.315 1_565 S
C107 O109 1.279 . S
O108 Cd100 2.223 . S
O108 C107 1.315 1_545 S
O109 Cd99 2.240 . S
O109 C107 1.279 . S
O110 Cd100 2.297 . S
O110 C105 1.247 1_545 S
O111 Cd100 2.439 1_565 S
O111 C105 1.208 . S
O112 Cd113 2.223 1_556 S
O112 C120 1.315 1_556 S
Cd113 O112 2.223 1_554 S
Cd113 O116 2.302 . S
Cd113 O117 2.443 . S
Cd113 O123 2.237 1_554 S
Cd114 O115 2.241 1_556 S
Cd114 O122 2.221 . S
Cd114 O124 2.297 . S
Cd114 O125 2.439 1_556 S
O115 Cd114 2.241 1_554 S
O115 C120 1.279 . S
O116 Cd113 2.302 . S
O116 C118 1.247 . S
O117 Cd113 2.443 . S
O117 C118 1.208 . S
C118 O116 1.247 . S
C118 O117 1.208 . S
C119 O124 1.247 1_554 S
C119 O125 1.208 . S
C120 O112 1.315 1_554 S
C120 O115 1.279 . S
C121 O122 1.315 . S
C121 O123 1.279 . S
O122 Cd114 2.221 . S
O122 C121 1.315 . S
O123 Cd113 2.237 1_556 S
O123 C121 1.279 . S
O124 Cd114 2.297 . S
O124 C119 1.247 1_556 S
O125 Cd114 2.439 1_554 S
O125 C119 1.208 . S
O126 Cd127 2.223 . S
O126 C134 1.315 1_455 S
Cd127 O126 2.223 . S
Cd127 O130 2.297 . S
Cd127 O131 2.439 . S
Cd127 O137 2.240 . S
Cd128 O129 2.240 . S
Cd128 O136 2.223 . S
Cd128 O138 2.297 . S
Cd128 O139 2.439 1_655 S
O129 Cd128 2.240 . S
O129 C134 1.279 . S
O130 Cd127 2.297 . S
O130 C132 1.247 . S
O131 Cd127 2.439 . S
O131 C132 1.208 . S
C132 O130 1.247 . S
C132 O131 1.208 . S
C133 O138 1.247 1_455 S
C133 O139 1.208 . S
C134 O126 1.315 1_655 S
C134 O129 1.279 . S
C135 O136 1.315 1_455 S
C135 O137 1.279 . S
O136 Cd128 2.223 . S
O136 C135 1.315 1_655 S
O137 Cd127 2.240 . S
O137 C135 1.279 . S
O138 Cd128 2.297 . S
O138 C133 1.247 1_655 S
O139 Cd128 2.439 1_455 S
O139 C133 1.208 . S
O140 Cd141 2.223 . S
O140 C148 1.315 1_545 S
Cd141 O140 2.223 . S
Cd141 O144 2.297 . S
Cd141 O145 2.439 . S
Cd141 O151 2.240 . S
Cd142 O143 2.240 . S
Cd142 O150 2.223 . S
Cd142 O152 2.297 . S
Cd142 O153 2.439 1_565 S
O143 Cd142 2.240 . S
O143 C148 1.279 . S
O144 Cd141 2.297 . S
O144 C146 1.247 . S
O145 Cd141 2.439 . S
O145 C146 1.208 . S
C146 O144 1.247 . S
C146 O145 1.208 . S
C147 O152 1.247 1_545 S
C147 O153 1.208 . S
C148 O140 1.315 1_565 S
C148 O143 1.279 . S
C149 O150 1.315 1_545 S
C149 O151 1.279 . S
O150 Cd142 2.223 . S
O150 C149 1.315 1_565 S
O151 Cd141 2.240 . S
O151 C149 1.279 . S
O152 Cd142 2.297 . S
O152 C147 1.247 1_565 S
O153 Cd142 2.439 1_545 S
O153 C147 1.208 . S
O154 Cd155 2.223 1_556 S
O154 C162 1.315 1_556 S
Cd155 O154 2.223 1_554 S
Cd155 O158 2.302 . S
Cd155 O159 2.443 . S
Cd155 O165 2.237 1_554 S
Cd156 O157 2.241 1_556 S
Cd156 O164 2.221 . S
Cd156 O166 2.297 . S
Cd156 O167 2.439 1_556 S
O157 Cd156 2.241 1_554 S
O157 C162 1.279 . S
O158 Cd155 2.302 . S
O158 C160 1.247 . S
O159 Cd155 2.443 . S
O159 C160 1.208 . S
C160 O158 1.247 . S
C160 O159 1.208 . S
C161 O166 1.247 1_554 S
C161 O167 1.208 . S
C162 O154 1.315 1_554 S
C162 O157 1.279 . S
C163 O164 1.315 . S
C163 O165 1.279 . S
O164 Cd156 2.221 . S
O164 C163 1.315 . S
O165 Cd155 2.237 1_556 S
O165 C163 1.279 . S
O166 Cd156 2.297 . S
O166 C161 1.247 1_556 S
O167 Cd156 2.439 1_554 S
O167 C161 1.208 . S
C168 C169 1.391 . S
C168 C170 1.394 . S
C168 H184 0.931 . S
C169 C168 1.391 . S
C169 C173 1.376 . S
C170 C168 1.394 . S
C170 C171 1.369 . S
C170 C174 1.531 . S
C171 C170 1.369 . S
C171 C172 1.410 . S
C171 C179 1.503 . S
C172 C171 1.410 . S
C172 C173 1.392 . S
C172 C175 1.511 . S
C173 C169 1.376 . S
C173 C172 1.392 . S
C173 H185 0.929 . S
C174 C170 1.531 . S
C174 H186 0.960 . S
C174 H187 0.962 . S
C174 H188 0.960 . S
C175 C172 1.511 . S
C175 H189 0.961 . S
C175 H190 0.961 . S
C175 H191 0.961 . S
C176 C177 1.370 . S
C176 C178 1.363 . S
C176 H192 0.931 . S
C177 C176 1.370 . S
C177 C181 1.408 . S
C178 C176 1.363 . S
C178 C179 1.370 . S
C178 C182 1.524 . S
C179 C171 1.503 . S
C179 C178 1.370 . S
C179 C180 1.403 . S
C180 C179 1.403 . S
C180 C181 1.404 . S
C180 C183 1.539 . S
C181 C177 1.408 . S
C181 C180 1.404 . S
C181 H193 0.930 . S
C182 C178 1.524 . S
C182 H194 0.956 . S
C182 H195 0.961 . S
C182 H196 0.961 . S
C183 C180 1.539 . S
C183 H197 0.958 . S
C183 H198 0.961 . S
C183 H199 0.960 . S
H184 C168 0.931 . S
H185 C173 0.929 . S
H186 C174 0.960 . S
H187 C174 0.962 . S
H188 C174 0.960 . S
H189 C175 0.961 . S
H190 C175 0.961 . S
H191 C175 0.961 . S
H192 C176 0.931 . S
H193 C181 0.930 . S
H194 C182 0.956 . S
H195 C182 0.961 . S
H196 C182 0.961 . S
H197 C183 0.958 . S
H198 C183 0.961 . S
H199 C183 0.960 . S
C200 C201 1.391 . S
C200 C202 1.394 . S
C200 H216 0.931 . S
C201 C200 1.391 . S
C201 C205 1.376 . S
C202 C200 1.394 . S
C202 C203 1.369 . S
C202 C206 1.531 . S
C203 C202 1.369 . S
C203 C204 1.410 . S
C203 C211 1.503 . S
C204 C203 1.410 . S
C204 C205 1.392 . S
C204 C207 1.511 . S
C205 C201 1.376 . S
C205 C204 1.392 . S
C205 H217 0.929 . S
C206 C202 1.531 . S
C206 H218 0.960 . S
C206 H219 0.962 . S
C206 H220 0.960 . S
C207 C204 1.511 . S
C207 H221 0.961 . S
C207 H222 0.961 . S
C207 H223 0.961 . S
C208 C209 1.370 . S
C208 C210 1.363 . S
C208 H224 0.931 . S
C209 C208 1.370 . S
C209 C213 1.408 . S
C210 C208 1.363 . S
C210 C211 1.370 . S
C210 C214 1.524 . S
C211 C203 1.503 . S
C211 C210 1.370 . S
C211 C212 1.403 . S
C212 C211 1.403 . S
C212 C213 1.404 . S
C212 C215 1.539 . S
C213 C209 1.408 . S
C213 C212 1.404 . S
C213 H225 0.930 . S
C214 C210 1.524 . S
C214 H226 0.956 . S
C214 H227 0.961 . S
C214 H228 0.961 . S
C215 C212 1.539 . S
C215 H229 0.958 . S
C215 H230 0.961 . S
C215 H231 0.960 . S
H216 C200 0.931 . S
H217 C205 0.929 . S
H218 C206 0.960 . S
H219 C206 0.962 . S
H220 C206 0.960 . S
H221 C207 0.961 . S
H222 C207 0.961 . S
H223 C207 0.961 . S
H224 C208 0.931 . S
H225 C213 0.930 . S
H226 C214 0.956 . S
H227 C214 0.961 . S
H228 C214 0.961 . S
H229 C215 0.958 . S
H230 C215 0.961 . S
H231 C215 0.960 . S
C232 C233 1.391 . S
C232 C234 1.394 . S
C232 H248 0.931 . S
C233 C232 1.391 . S
C233 C237 1.376 . S
C234 C232 1.394 . S
C234 C235 1.369 . S
C234 C238 1.531 . S
C235 C234 1.369 . S
C235 C236 1.410 . S
C235 C243 1.503 . S
C236 C235 1.410 . S
C236 C237 1.392 . S
C236 C239 1.511 . S
C237 C233 1.376 . S
C237 C236 1.392 . S
C237 H249 0.929 . S
C238 C234 1.531 . S
C238 H250 0.960 . S
C238 H251 0.962 . S
C238 H252 0.960 . S
C239 C236 1.511 . S
C239 H253 0.961 . S
C239 H254 0.961 . S
C239 H255 0.961 . S
C240 C241 1.370 . S
C240 C242 1.363 . S
C240 H256 0.931 . S
C241 C240 1.370 . S
C241 C245 1.408 . S
C242 C240 1.363 . S
C242 C243 1.370 . S
C242 C246 1.524 . S
C243 C235 1.503 . S
C243 C242 1.370 . S
C243 C244 1.403 . S
C244 C243 1.403 . S
C244 C245 1.404 . S
C244 C247 1.539 . S
C245 C241 1.408 . S
C245 C244 1.404 . S
C245 H257 0.930 . S
C246 C242 1.524 . S
C246 H258 0.956 . S
C246 H259 0.961 . S
C246 H260 0.961 . S
C247 C244 1.539 . S
C247 H261 0.958 . S
C247 H262 0.961 . S
C247 H263 0.960 . S
H248 C232 0.931 . S
H249 C237 0.929 . S
H250 C238 0.960 . S
H251 C238 0.962 . S
H252 C238 0.960 . S
H253 C239 0.961 . S
H254 C239 0.961 . S
H255 C239 0.961 . S
H256 C240 0.931 . S
H257 C245 0.930 . S
H258 C246 0.956 . S
H259 C246 0.961 . S
H260 C246 0.961 . S
H261 C247 0.958 . S
H262 C247 0.961 . S
H263 C247 0.960 . S
C264 C265 1.391 . S
C264 C266 1.394 . S
C264 H280 0.931 . S
C265 C264 1.391 . S
C265 C269 1.376 . S
C266 C264 1.394 . S
C266 C267 1.369 . S
C266 C270 1.531 . S
C267 C266 1.369 . S
C267 C268 1.410 . S
C267 C275 1.503 . S
C268 C267 1.410 . S
C268 C269 1.392 . S
C268 C271 1.511 . S
C269 C265 1.376 . S
C269 C268 1.392 . S
C269 H281 0.929 . S
C270 C266 1.531 . S
C270 H282 0.960 . S
C270 H283 0.962 . S
C270 H284 0.960 . S
C271 C268 1.511 . S
C271 H285 0.961 . S
C271 H286 0.961 . S
C271 H287 0.961 . S
C272 C273 1.370 . S
C272 C274 1.363 . S
C272 H288 0.931 . S
C273 C272 1.370 . S
C273 C277 1.408 . S
C274 C272 1.363 . S
C274 C275 1.370 . S
C274 C278 1.524 . S
C275 C267 1.503 . S
C275 C274 1.370 . S
C275 C276 1.403 . S
C276 C275 1.403 . S
C276 C277 1.404 . S
C276 C279 1.539 . S
C277 C273 1.408 . S
C277 C276 1.404 . S
C277 H289 0.930 . S
C278 C274 1.524 . S
C278 H290 0.956 . S
C278 H291 0.961 . S
C278 H292 0.961 . S
C279 C276 1.539 . S
C279 H293 0.958 . S
C279 H294 0.961 . S
C279 H295 0.960 . S
H280 C264 0.931 . S
H281 C269 0.929 . S
H282 C270 0.960 . S
H283 C270 0.962 . S
H284 C270 0.960 . S
H285 C271 0.961 . S
H286 C271 0.961 . S
H287 C271 0.961 . S
H288 C272 0.931 . S
H289 C277 0.930 . S
H290 C278 0.956 . S
H291 C278 0.961 . S
H292 C278 0.961 . S
H293 C279 0.958 . S
H294 C279 0.961 . S
H295 C279 0.960 . S
C296 C297 1.391 . S
C296 C298 1.394 . S
C296 H312 0.931 . S
C297 C296 1.391 . S
C297 C301 1.376 . S
C298 C296 1.394 . S
C298 C299 1.369 . S
C298 C302 1.531 . S
C299 C298 1.369 . S
C299 C300 1.410 . S
C299 C307 1.503 . S
C300 C299 1.410 . S
C300 C301 1.392 . S
C300 C303 1.511 . S
C301 C297 1.376 . S
C301 C300 1.392 . S
C301 H313 0.929 . S
C302 C298 1.531 . S
C302 H314 0.960 . S
C302 H315 0.962 . S
C302 H316 0.960 . S
C303 C300 1.511 . S
C303 H317 0.961 . S
C303 H318 0.961 . S
C303 H319 0.961 . S
C304 C305 1.370 . S
C304 C306 1.363 . S
C304 H320 0.931 . S
C305 C304 1.370 . S
C305 C309 1.408 . S
C306 C304 1.363 . S
C306 C307 1.370 . S
C306 C310 1.524 . S
C307 C299 1.503 . S
C307 C306 1.370 . S
C307 C308 1.403 . S
C308 C307 1.403 . S
C308 C309 1.404 . S
C308 C311 1.539 . S
C309 C305 1.408 . S
C309 C308 1.404 . S
C309 H321 0.930 . S
C310 C306 1.524 . S
C310 H322 0.956 . S
C310 H323 0.961 . S
C310 H324 0.961 . S
C311 C308 1.539 . S
C311 H325 0.958 . S
C311 H326 0.961 . S
C311 H327 0.960 . S
H312 C296 0.931 . S
H313 C301 0.929 . S
H314 C302 0.960 . S
H315 C302 0.962 . S
H316 C302 0.960 . S
H317 C303 0.961 . S
H318 C303 0.961 . S
H319 C303 0.961 . S
H320 C304 0.931 . S
H321 C309 0.930 . S
H322 C310 0.956 . S
H323 C310 0.961 . S
H324 C310 0.961 . S
H325 C311 0.958 . S
H326 C311 0.961 . S
H327 C311 0.960 . S
C328 C329 1.391 . S
C328 C330 1.394 . S
C328 H344 0.931 . S
C329 C328 1.391 . S
C329 C333 1.376 . S
C330 C328 1.394 . S
C330 C331 1.369 . S
C330 C334 1.531 . S
C331 C330 1.369 . S
C331 C332 1.410 . S
C331 C339 1.503 . S
C332 C331 1.410 . S
C332 C333 1.392 . S
C332 C335 1.511 . S
C333 C329 1.376 . S
C333 C332 1.392 . S
C333 H345 0.929 . S
C334 C330 1.531 . S
C334 H346 0.960 . S
C334 H347 0.962 . S
C334 H348 0.960 . S
C335 C332 1.511 . S
C335 H349 0.961 . S
C335 H350 0.961 . S
C335 H351 0.961 . S
C336 C337 1.370 . S
C336 C338 1.363 . S
C336 H352 0.931 . S
C337 C336 1.370 . S
C337 C341 1.408 . S
C338 C336 1.363 . S
C338 C339 1.370 . S
C338 C342 1.524 . S
C339 C331 1.503 . S
C339 C338 1.370 . S
C339 C340 1.403 . S
C340 C339 1.403 . S
C340 C341 1.404 . S
C340 C343 1.539 . S
C341 C337 1.408 . S
C341 C340 1.404 . S
C341 H353 0.930 . S
C342 C338 1.524 . S
C342 H354 0.956 . S
C342 H355 0.961 . S
C342 H356 0.961 . S
C343 C340 1.539 . S
C343 H357 0.958 . S
C343 H358 0.961 . S
C343 H359 0.960 . S
H344 C328 0.931 . S
H345 C333 0.929 . S
H346 C334 0.960 . S
H347 C334 0.962 . S
H348 C334 0.960 . S
H349 C335 0.961 . S
H350 C335 0.961 . S
H351 C335 0.961 . S
H352 C336 0.931 . S
H353 C341 0.930 . S
H354 C342 0.956 . S
H355 C342 0.961 . S
H356 C342 0.961 . S
H357 C343 0.958 . S
H358 C343 0.961 . S
H359 C343 0.960 . S
C360 C361 1.391 1_565 S
C360 C362 1.394 . S
C360 H376 0.931 . S
C361 C360 1.391 1_545 S
C361 C365 1.376 . S
C362 C360 1.394 . S
C362 C363 1.369 1_565 S
C362 C366 1.531 . S
C363 C362 1.369 1_545 S
C363 C364 1.410 . S
C363 C371 1.503 1_545 S
C364 C363 1.410 . S
C364 C365 1.392 . S
C364 C367 1.511 . S
C365 C361 1.376 . S
C365 C364 1.392 . S
C365 H377 0.929 . S
C366 C362 1.531 . S
C366 H378 0.960 . S
C366 H379 0.962 . S
C366 H380 0.960 . S
C367 C364 1.511 . S
C367 H381 0.961 . S
C367 H382 0.961 . S
C367 H383 0.961 . S
C368 C369 1.370 . S
C368 C370 1.363 . S
C368 H384 0.931 . S
C369 C368 1.370 . S
C369 C373 1.408 1_565 S
C370 C368 1.363 . S
C370 C371 1.370 . S
C370 C374 1.524 . S
C371 C363 1.503 1_565 S
C371 C370 1.370 . S
C371 C372 1.403 1_565 S
C372 C371 1.403 1_545 S
C372 C373 1.404 . S
C372 C375 1.539 . S
C373 C369 1.408 1_545 S
C373 C372 1.404 . S
C373 H385 0.930 . S
C374 C370 1.524 . S
C374 H386 0.956 . S
C374 H387 0.961 . S
C374 H388 0.961 . S
C375 C372 1.539 . S
C375 H389 0.958 . S
C375 H390 0.961 . S
C375 H391 0.960 . S
H376 C360 0.931 . S
H377 C365 0.929 . S
H378 C366 0.960 . S
H379 C366 0.962 . S
H380 C366 0.960 . S
H381 C367 0.961 . S
H382 C367 0.961 . S
H383 C367 0.961 . S
H384 C368 0.931 . S
H385 C373 0.930 . S
H386 C374 0.956 . S
H387 C374 0.961 . S
H388 C374 0.961 . S
H389 C375 0.958 . S
H390 C375 0.961 . S
H391 C375 0.960 . S
C392 C393 1.391 . S
C392 C394 1.394 . S
C392 H408 0.931 . S
C393 C392 1.391 . S
C393 C397 1.376 . S
C394 C392 1.394 . S
C394 C395 1.369 . S
C394 C398 1.531 . S
C395 C394 1.369 . S
C395 C396 1.410 . S
C395 C403 1.503 . S
C396 C395 1.410 . S
C396 C397 1.392 . S
C396 C399 1.511 . S
C397 C393 1.376 . S
C397 C396 1.392 . S
C397 H409 0.929 . S
C398 C394 1.531 . S
C398 H410 0.960 . S
C398 H411 0.962 . S
C398 H412 0.960 . S
C399 C396 1.511 . S
C399 H413 0.961 . S
C399 H414 0.961 . S
C399 H415 0.961 . S
C400 C401 1.370 . S
C400 C402 1.363 . S
C400 H416 0.931 . S
C401 C400 1.370 . S
C401 C405 1.408 . S
C402 C400 1.363 . S
C402 C403 1.370 . S
C402 C406 1.524 . S
C403 C395 1.503 . S
C403 C402 1.370 . S
C403 C404 1.403 . S
C404 C403 1.403 . S
C404 C405 1.404 . S
C404 C407 1.539 . S
C405 C401 1.408 . S
C405 C404 1.404 . S
C405 H417 0.930 . S
C406 C402 1.524 . S
C406 H418 0.956 . S
C406 H419 0.961 . S
C406 H420 0.961 . S
C407 C404 1.539 . S
C407 H421 0.958 . S
C407 H422 0.961 . S
C407 H423 0.960 . S
H408 C392 0.931 . S
H409 C397 0.929 . S
H410 C398 0.960 . S
H411 C398 0.962 . S
H412 C398 0.960 . S
H413 C399 0.961 . S
H414 C399 0.961 . S
H415 C399 0.961 . S
H416 C400 0.931 . S
H417 C405 0.930 . S
H418 C406 0.956 . S
H419 C406 0.961 . S
H420 C406 0.961 . S
H421 C407 0.958 . S
H422 C407 0.961 . S
H423 C407 0.960 . S
C424 C425 1.391 1_655 S
C424 C426 1.394 . S
C424 H440 0.931 . S
C425 C424 1.391 1_455 S
C425 C429 1.376 1_556 S
C426 C424 1.394 . S
C426 C427 1.369 1_655 S
C426 C430 1.531 . S
C427 C426 1.369 1_455 S
C427 C428 1.410 1_556 S
C427 C435 1.503 1_455 S
C428 C427 1.410 1_554 S
C428 C429 1.392 . S
C428 C431 1.511 . S
C429 C425 1.376 1_554 S
C429 C428 1.392 . S
C429 H441 0.929 . S
C430 C426 1.531 . S
C430 H442 0.960 . S
C430 H443 0.962 . S
C430 H444 0.960 . S
C431 C428 1.511 . S
C431 H445 0.961 . S
C431 H446 0.961 . S
C431 H447 0.961 . S
C432 C433 1.370 1_554 S
C432 C434 1.363 . S
C432 H448 0.931 . S
C433 C432 1.370 1_556 S
C433 C437 1.400 1_655 S
C434 C432 1.363 . S
C434 C435 1.370 1_554 S
C434 C438 1.524 . S
C435 C427 1.503 1_655 S
C435 C434 1.370 1_556 S
C435 C436 1.403 1_655 S
C436 C435 1.403 1_455 S
C436 C437 1.397 . S
C436 C439 1.539 . S
C437 C433 1.400 1_455 S
C437 C436 1.397 . S
C437 H449 0.945 . S
C438 C434 1.524 . S
C438 H450 0.956 . S
C438 H451 0.961 . S
C438 H452 0.961 . S
C439 C436 1.539 . S
C439 H453 0.958 . S
C439 H454 0.961 . S
C439 H455 0.960 . S
H440 C424 0.931 . S
H441 C429 0.929 . S
H442 C430 0.960 . S
H443 C430 0.962 . S
H444 C430 0.960 . S
H445 C431 0.961 . S
H446 C431 0.961 . S
H447 C431 0.961 . S
H448 C432 0.931 . S
H449 C437 0.945 . S
H450 C438 0.956 . S
H451 C438 0.961 . S
H452 C438 0.961 . S
H453 C439 0.958 . S
H454 C439 0.961 . S
H455 C439 0.960 . S
C456 C457 1.391 . S
C456 C458 1.394 . S
C456 H472 0.931 . S
C457 C456 1.391 . S
C457 C461 1.376 1_655 S
C458 C456 1.394 . S
C458 C459 1.369 . S
C458 C462 1.531 . S
C459 C458 1.369 . S
C459 C460 1.410 1_655 S
C459 C467 1.503 1_655 S
C460 C459 1.410 1_455 S
C460 C461 1.392 . S
C460 C463 1.511 . S
C461 C457 1.376 1_455 S
C461 C460 1.392 . S
C461 H473 0.929 . S
C462 C458 1.531 . S
C462 H474 0.960 . S
C462 H475 0.962 . S
C462 H476 0.960 . S
C463 C460 1.511 . S
C463 H477 0.961 . S
C463 H478 0.961 . S
C463 H479 0.961 . S
C464 C465 1.370 . S
C464 C466 1.363 . S
C464 H480 0.931 . S
C465 C464 1.370 . S
C465 C469 1.408 . S
C466 C464 1.363 . S
C466 C467 1.370 . S
C466 C470 1.524 1_455 S
C467 C459 1.503 1_455 S
C467 C466 1.370 . S
C467 C468 1.403 . S
C468 C467 1.403 . S
C468 C469 1.404 . S
C468 C471 1.539 . S
C469 C465 1.408 . S
C469 C468 1.404 . S
C469 H481 0.930 . S
C470 C466 1.524 1_655 S
C470 H482 0.956 . S
C470 H483 0.961 1_655 S
C470 H484 0.961 . S
C471 C468 1.539 . S
C471 H485 0.958 . S
C471 H486 0.961 . S
C471 H487 0.960 . S
H472 C456 0.931 . S
H473 C461 0.929 . S
H474 C462 0.960 . S
H475 C462 0.962 . S
H476 C462 0.960 . S
H477 C463 0.961 . S
H478 C463 0.961 . S
H479 C463 0.961 . S
H480 C464 0.931 . S
H481 C469 0.930 . S
H482 C470 0.956 . S
H483 C470 0.961 1_455 S
H484 C470 0.961 . S
H485 C471 0.958 . S
H486 C471 0.961 . S
H487 C471 0.960 . S
C488 C489 1.391 . S
C488 C490 1.394 . S
C488 H504 0.931 . S
C489 C488 1.391 . S
C489 C493 1.376 1_545 S
C490 C488 1.394 . S
C490 C491 1.369 1_545 S
C490 C494 1.531 . S
C491 C490 1.369 1_565 S
C491 C492 1.410 . S
C491 C499 1.503 . S
C492 C491 1.410 . S
C492 C493 1.392 . S
C492 C495 1.511 . S
C493 C489 1.376 1_565 S
C493 C492 1.392 . S
C493 H505 0.929 . S
C494 C490 1.531 . S
C494 H506 0.960 . S
C494 H507 0.962 . S
C494 H508 0.960 . S
C495 C492 1.511 . S
C495 H509 0.961 . S
C495 H510 0.961 . S
C495 H511 0.961 . S
C496 C497 1.370 1_545 S
C496 C498 1.363 . S
C496 H512 0.931 . S
C497 C496 1.370 1_565 S
C497 C501 1.408 . S
C498 C496 1.363 . S
C498 C499 1.370 1_545 S
C498 C502 1.524 . S
C499 C491 1.503 . S
C499 C498 1.370 1_565 S
C499 C500 1.403 . S
C500 C499 1.403 . S
C500 C501 1.404 . S
C500 C503 1.539 . S
C501 C497 1.408 . S
C501 C500 1.404 . S
C501 H513 0.930 . S
C502 C498 1.524 . S
C502 H514 0.956 . S
C502 H515 0.961 . S
C502 H516 0.961 . S
C503 C500 1.539 . S
C503 H517 0.958 . S
C503 H518 0.961 . S
C503 H519 0.960 . S
H504 C488 0.931 . S
H505 C493 0.929 . S
H506 C494 0.960 . S
H507 C494 0.962 . S
H508 C494 0.960 . S
H509 C495 0.961 . S
H510 C495 0.961 . S
H511 C495 0.961 . S
H512 C496 0.931 . S
H513 C501 0.930 . S
H514 C502 0.956 . S
H515 C502 0.961 . S
H516 C502 0.961 . S
H517 C503 0.958 . S
H518 C503 0.961 . S
H519 C503 0.960 . S
C520 C521 1.391 . S
C520 C522 1.394 . S
C520 H536 0.931 . S
C521 C520 1.391 . S
C521 C525 1.377 . S
C522 C520 1.394 . S
C522 C523 1.369 . S
C522 C526 1.531 . S
C523 C522 1.369 . S
C523 C524 1.410 . S
C523 C531 1.503 . S
C524 C523 1.410 . S
C524 C525 1.393 . S
C524 C527 1.511 1_554 S
C525 C521 1.377 . S
C525 C524 1.393 . S
C525 H537 0.928 1_554 S
C526 C522 1.531 . S
C526 H538 0.960 . S
C526 H539 0.962 . S
C526 H540 0.960 . S
C527 C524 1.511 1_556 S
C527 H541 0.961 . S
C527 H542 0.961 . S
C527 H543 0.961 1_556 S
C528 C529 1.370 1_556 S
C528 C530 1.363 . S
C528 H544 0.931 . S
C529 C528 1.370 1_554 S
C529 C533 1.408 . S
C530 C528 1.363 . S
C530 C531 1.370 1_556 S
C530 C534 1.524 . S
C531 C523 1.503 . S
C531 C530 1.370 1_554 S
C531 C532 1.403 . S
C532 C531 1.403 . S
C532 C533 1.404 . S
C532 C535 1.539 . S
C533 C529 1.408 . S
C533 C532 1.404 . S
C533 H545 0.930 . S
C534 C530 1.524 . S
C534 H546 0.956 . S
C534 H547 0.961 . S
C534 H548 0.961 . S
C535 C532 1.539 . S
C535 H549 0.958 . S
C535 H550 0.961 . S
C535 H551 0.960 . S
H536 C520 0.931 . S
H537 C525 0.928 1_556 S
H538 C526 0.960 . S
H539 C526 0.962 . S
H540 C526 0.960 . S
H541 C527 0.961 . S
H542 C527 0.961 . S
H543 C527 0.961 1_554 S
H544 C528 0.931 . S
H545 C533 0.930 . S
H546 C534 0.956 . S
H547 C534 0.961 . S
H548 C534 0.961 . S
H549 C535 0.958 . S
H550 C535 0.961 . S
H551 C535 0.960 . S
C552 C553 1.391 . S
C552 C554 1.394 . S
C552 H568 0.931 . S
C553 C552 1.391 . S
C553 C557 1.376 . S
C554 C552 1.394 . S
C554 C555 1.369 . S
C554 C558 1.531 . S
C555 C554 1.369 . S
C555 C556 1.410 . S
C555 C563 1.503 . S
C556 C555 1.410 . S
C556 C557 1.392 . S
C556 C559 1.511 . S
C557 C553 1.376 . S
C557 C556 1.392 . S
C557 H569 0.929 . S
C558 C554 1.531 . S
C558 H570 0.960 . S
C558 H571 0.962 . S
C558 H572 0.960 . S
C559 C556 1.511 . S
C559 H573 0.961 . S
C559 H574 0.961 . S
C559 H575 0.961 . S
C560 C561 1.370 . S
C560 C562 1.363 . S
C560 H576 0.931 . S
C561 C560 1.370 . S
C561 C565 1.408 . S
C562 C560 1.363 . S
C562 C563 1.370 . S
C562 C566 1.524 . S
C563 C555 1.503 . S
C563 C562 1.370 . S
C563 C564 1.403 . S
C564 C563 1.403 . S
C564 C565 1.404 . S
C564 C567 1.539 . S
C565 C561 1.408 . S
C565 C564 1.404 . S
C565 H577 0.930 . S
C566 C562 1.524 . S
C566 H578 0.956 . S
C566 H579 0.961 . S
C566 H580 0.961 . S
C567 C564 1.539 . S
C567 H581 0.958 . S
C567 H582 0.961 . S
C567 H583 0.960 . S
H568 C552 0.931 . S
H569 C557 0.929 . S
H570 C558 0.960 . S
H571 C558 0.962 . S
H572 C558 0.960 . S
H573 C559 0.961 . S
H574 C559 0.961 . S
H575 C559 0.961 . S
H576 C560 0.931 . S
H577 C565 0.930 . S
H578 C566 0.956 . S
H579 C566 0.961 . S
H580 C566 0.961 . S
H581 C567 0.958 . S
H582 C567 0.961 . S
H583 C567 0.960 . S
C584 C585 1.391 . S
C584 C586 1.394 . S
C584 H600 0.931 . S
C585 C584 1.391 . S
C585 C589 1.376 . S
C586 C584 1.394 . S
C586 C587 1.369 . S
C586 C590 1.531 . S
C587 C586 1.369 . S
C587 C588 1.410 . S
C587 C595 1.503 . S
C588 C587 1.410 . S
C588 C589 1.392 . S
C588 C591 1.511 . S
C589 C585 1.376 . S
C589 C588 1.392 . S
C589 H601 0.929 . S
C590 C586 1.531 . S
C590 H602 0.960 . S
C590 H603 0.962 . S
C590 H604 0.960 . S
C591 C588 1.511 . S
C591 H605 0.961 . S
C591 H606 0.961 . S
C591 H607 0.961 . S
C592 C593 1.370 . S
C592 C594 1.363 . S
C592 H608 0.931 . S
C593 C592 1.370 . S
C593 C597 1.408 . S
C594 C592 1.363 . S
C594 C595 1.370 . S
C594 C598 1.524 . S
C595 C587 1.503 . S
C595 C594 1.370 . S
C595 C596 1.403 . S
C596 C595 1.403 . S
C596 C597 1.404 . S
C596 C599 1.539 . S
C597 C593 1.408 . S
C597 C596 1.404 . S
C597 H609 0.930 . S
C598 C594 1.524 . S
C598 H610 0.956 . S
C598 H611 0.961 . S
C598 H612 0.961 . S
C599 C596 1.539 . S
C599 H613 0.958 . S
C599 H614 0.961 . S
C599 H615 0.960 . S
H600 C584 0.931 . S
H601 C589 0.929 . S
H602 C590 0.960 . S
H603 C590 0.962 . S
H604 C590 0.960 . S
H605 C591 0.961 . S
H606 C591 0.961 . S
H607 C591 0.961 . S
H608 C592 0.931 . S
H609 C597 0.930 . S
H610 C598 0.956 . S
H611 C598 0.961 . S
H612 C598 0.961 . S
H613 C599 0.958 . S
H614 C599 0.961 . S
H615 C599 0.960 . S
C616 C617 1.391 . S
C616 C618 1.394 . S
C616 H632 0.931 . S
C617 C616 1.391 . S
C617 C621 1.376 1_554 S
C618 C616 1.394 . S
C618 C619 1.369 1_554 S
C618 C622 1.531 . S
C619 C618 1.369 1_556 S
C619 C620 1.410 . S
C619 C627 1.503 . S
C620 C619 1.410 . S
C620 C621 1.392 . S
C620 C623 1.511 . S
C621 C617 1.376 1_556 S
C621 C620 1.392 . S
C621 H633 0.929 . S
C622 C618 1.531 . S
C622 H634 0.960 . S
C622 H635 0.962 . S
C622 H636 0.960 . S
C623 C620 1.511 . S
C623 H637 0.961 . S
C623 H638 0.961 . S
C623 H639 0.961 . S
C624 C625 1.370 1_554 S
C624 C626 1.363 . S
C624 H640 0.931 . S
C625 C624 1.370 1_556 S
C625 C629 1.408 . S
C626 C624 1.363 . S
C626 C627 1.370 1_554 S
C626 C630 1.524 . S
C627 C619 1.503 . S
C627 C626 1.370 1_556 S
C627 C628 1.403 . S
C628 C627 1.403 . S
C628 C629 1.404 . S
C628 C631 1.539 . S
C629 C625 1.408 . S
C629 C628 1.404 . S
C629 H641 0.930 . S
C630 C626 1.524 . S
C630 H642 0.956 . S
C630 H643 0.961 1_554 S
C630 H644 0.961 . S
C631 C628 1.539 . S
C631 H645 0.958 . S
C631 H646 0.961 . S
C631 H647 0.960 . S
H632 C616 0.931 . S
H633 C621 0.929 . S
H634 C622 0.960 . S
H635 C622 0.962 . S
H636 C622 0.960 . S
H637 C623 0.961 . S
H638 C623 0.961 . S
H639 C623 0.961 . S
H640 C624 0.931 . S
H641 C629 0.930 . S
H642 C630 0.956 . S
H643 C630 0.961 1_556 S
H644 C630 0.961 . S
H645 C631 0.958 . S
H646 C631 0.961 . S
H647 C631 0.960 . S
C648 C649 1.391 . S
C648 C650 1.394 . S
C648 H664 0.931 . S
C649 C648 1.391 . S
C649 C653 1.376 . S
C650 C648 1.394 . S
C650 C651 1.369 . S
C650 C654 1.531 . S
C651 C650 1.369 . S
C651 C652 1.410 . S
C651 C659 1.503 . S
C652 C651 1.410 . S
C652 C653 1.392 . S
C652 C655 1.511 . S
C653 C649 1.376 . S
C653 C652 1.392 . S
C653 H665 0.929 . S
C654 C650 1.531 . S
C654 H666 0.960 . S
C654 H667 0.962 . S
C654 H668 0.960 . S
C655 C652 1.511 . S
C655 H669 0.961 . S
C655 H670 0.961 . S
C655 H671 0.961 . S
C656 C657 1.370 . S
C656 C658 1.363 . S
C656 H672 0.931 . S
C657 C656 1.370 . S
C657 C661 1.408 . S
C658 C656 1.363 . S
C658 C659 1.370 . S
C658 C662 1.524 . S
C659 C651 1.503 . S
C659 C658 1.370 . S
C659 C660 1.403 . S
C660 C659 1.403 . S
C660 C661 1.404 . S
C660 C663 1.539 . S
C661 C657 1.408 . S
C661 C660 1.404 . S
C661 H673 0.930 . S
C662 C658 1.524 . S
C662 H674 0.956 . S
C662 H675 0.961 . S
C662 H676 0.961 . S
C663 C660 1.539 . S
C663 H677 0.958 . S
C663 H678 0.961 . S
C663 H679 0.960 . S
H664 C648 0.931 . S
H665 C653 0.929 . S
H666 C654 0.960 . S
H667 C654 0.962 . S
H668 C654 0.960 . S
H669 C655 0.961 . S
H670 C655 0.961 . S
H671 C655 0.961 . S
H672 C656 0.931 . S
H673 C661 0.930 . S
H674 C662 0.956 . S
H675 C662 0.961 . S
H676 C662 0.961 . S
H677 C663 0.958 . S
H678 C663 0.961 . S
H679 C663 0.960 . S
C680 C681 1.391 . S
C680 C682 1.394 . S
C680 H696 0.931 . S
C681 C680 1.391 . S
C681 C685 1.376 . S
C682 C680 1.394 . S
C682 C683 1.369 . S
C682 C686 1.531 . S
C683 C682 1.369 . S
C683 C684 1.410 . S
C683 C691 1.503 . S
C684 C683 1.410 . S
C684 C685 1.392 . S
C684 C687 1.511 . S
C685 C681 1.376 . S
C685 C684 1.392 . S
C685 H697 0.929 . S
C686 C682 1.531 . S
C686 H698 0.960 . S
C686 H699 0.962 . S
C686 H700 0.960 . S
C687 C684 1.511 . S
C687 H701 0.961 . S
C687 H702 0.961 . S
C687 H703 0.961 . S
C688 C689 1.370 . S
C688 C690 1.363 . S
C688 H704 0.931 . S
C689 C688 1.370 . S
C689 C693 1.408 . S
C690 C688 1.363 . S
C690 C691 1.370 . S
C690 C694 1.524 . S
C691 C683 1.503 . S
C691 C690 1.370 . S
C691 C692 1.403 . S
C692 C691 1.403 . S
C692 C693 1.404 . S
C692 C695 1.539 . S
C693 C689 1.408 . S
C693 C692 1.404 . S
C693 H705 0.930 . S
C694 C690 1.524 . S
C694 H706 0.956 . S
C694 H707 0.961 . S
C694 H708 0.961 . S
C695 C692 1.539 . S
C695 H709 0.958 . S
C695 H710 0.961 . S
C695 H711 0.960 . S
H696 C680 0.931 . S
H697 C685 0.929 . S
H698 C686 0.960 . S
H699 C686 0.962 . S
H700 C686 0.960 . S
H701 C687 0.961 . S
H702 C687 0.961 . S
H703 C687 0.961 . S
H704 C688 0.931 . S
H705 C693 0.930 . S
H706 C694 0.956 . S
H707 C694 0.961 . S
H708 C694 0.961 . S
H709 C695 0.958 . S
H710 C695 0.961 . S
H711 C695 0.960 . S
C712 C713 1.391 . S
C712 C714 1.394 . S
C712 H728 0.931 . S
C713 C712 1.391 . S
C713 C717 1.376 1_554 S
C714 C712 1.394 . S
C714 C715 1.369 . S
C714 C718 1.531 . S
C715 C714 1.369 . S
C715 C716 1.410 1_554 S
C715 C723 1.503 1_554 S
C716 C715 1.410 1_556 S
C716 C717 1.392 . S
C716 C719 1.511 . S
C717 C713 1.376 1_556 S
C717 C716 1.392 . S
C717 H729 0.929 . S
C718 C714 1.531 . S
C718 H730 0.960 . S
C718 H731 0.962 . S
C718 H732 0.960 . S
C719 C716 1.511 . S
C719 H733 0.961 . S
C719 H734 0.961 . S
C719 H735 0.961 . S
C720 C721 1.370 . S
C720 C722 1.363 . S
C720 H736 0.931 . S
C721 C720 1.370 . S
C721 C725 1.408 . S
C722 C720 1.363 . S
C722 C723 1.370 . S
C722 C726 1.524 . S
C723 C715 1.503 1_556 S
C723 C722 1.370 . S
C723 C724 1.403 . S
C724 C723 1.403 . S
C724 C725 1.406 . S
C724 C727 1.538 1_556 S
C725 C721 1.408 . S
C725 C724 1.406 . S
C725 H737 0.930 . S
C726 C722 1.524 . S
C726 H738 0.956 1_556 S
C726 H739 0.961 . S
C726 H740 0.961 . S
C727 C724 1.538 1_554 S
C727 H741 0.958 . S
C727 H742 0.961 1_554 S
C727 H743 0.960 1_554 S
H728 C712 0.931 . S
H729 C717 0.929 . S
H730 C718 0.960 . S
H731 C718 0.962 . S
H732 C718 0.960 . S
H733 C719 0.961 . S
H734 C719 0.961 . S
H735 C719 0.961 . S
H736 C720 0.931 . S
H737 C725 0.930 . S
H738 C726 0.956 1_554 S
H739 C726 0.961 . S
H740 C726 0.961 . S
H741 C727 0.958 . S
H742 C727 0.961 1_556 S
H743 C727 0.960 1_556 S
C744 C745 1.391 . S
C744 C746 1.394 . S
C744 H760 0.931 . S
C745 C744 1.391 . S
C745 C749 1.376 1_545 S
C746 C744 1.394 . S
C746 C747 1.369 . S
C746 C750 1.531 . S
C747 C746 1.369 . S
C747 C748 1.410 1_545 S
C747 C755 1.503 . S
C748 C747 1.410 1_565 S
C748 C749 1.392 . S
C748 C751 1.511 . S
C749 C745 1.376 1_565 S
C749 C748 1.392 . S
C749 H761 0.929 . S
C750 C746 1.531 . S
C750 H762 0.960 . S
C750 H763 0.962 . S
C750 H764 0.960 . S
C751 C748 1.511 . S
C751 H765 0.961 . S
C751 H766 0.961 . S
C751 H767 0.961 . S
C752 C753 1.370 . S
C752 C754 1.363 . S
C752 H768 0.931 . S
C753 C752 1.370 . S
C753 C757 1.408 1_565 S
C754 C752 1.363 . S
C754 C755 1.370 1_565 S
C754 C758 1.524 . S
C755 C747 1.503 . S
C755 C754 1.370 1_545 S
C755 C756 1.403 . S
C756 C755 1.403 . S
C756 C757 1.404 . S
C756 C759 1.539 . S
C757 C753 1.408 1_545 S
C757 C756 1.404 . S
C757 H769 0.930 . S
C758 C754 1.524 . S
C758 H770 0.956 . S
C758 H771 0.961 . S
C758 H772 0.961 . S
C759 C756 1.539 . S
C759 H773 0.958 . S
C759 H774 0.961 . S
C759 H775 0.960 . S
H760 C744 0.931 . S
H761 C749 0.929 . S
H762 C750 0.960 . S
H763 C750 0.962 . S
H764 C750 0.960 . S
H765 C751 0.961 . S
H766 C751 0.961 . S
H767 C751 0.961 . S
H768 C752 0.931 . S
H769 C757 0.930 . S
H770 C758 0.956 . S
H771 C758 0.961 . S
H772 C758 0.961 . S
H773 C759 0.958 . S
H774 C759 0.961 . S
H775 C759 0.960 . S
C776 C777 1.391 . S
C776 C778 1.394 . S
C776 H792 0.931 . S
C777 C776 1.391 . S
C777 C781 1.376 . S
C778 C776 1.394 . S
C778 C779 1.369 . S
C778 C782 1.531 . S
C779 C778 1.369 . S
C779 C780 1.410 . S
C779 C787 1.503 . S
C780 C779 1.410 . S
C780 C781 1.392 . S
C780 C783 1.511 . S
C781 C777 1.376 . S
C781 C780 1.392 . S
C781 H793 0.929 . S
C782 C778 1.531 . S
C782 H794 0.960 . S
C782 H795 0.962 . S
C782 H796 0.960 . S
C783 C780 1.511 . S
C783 H797 0.961 . S
C783 H798 0.961 . S
C783 H799 0.961 . S
C784 C785 1.370 . S
C784 C786 1.363 . S
C784 H800 0.931 . S
C785 C784 1.370 . S
C785 C789 1.408 . S
C786 C784 1.363 . S
C786 C787 1.370 . S
C786 C790 1.524 . S
C787 C779 1.503 . S
C787 C786 1.370 . S
C787 C788 1.403 . S
C788 C787 1.403 . S
C788 C789 1.404 . S
C788 C791 1.539 . S
C789 C785 1.408 . S
C789 C788 1.404 . S
C789 H801 0.930 . S
C790 C786 1.524 . S
C790 H802 0.956 . S
C790 H803 0.961 . S
C790 H804 0.961 . S
C791 C788 1.539 . S
C791 H805 0.958 . S
C791 H806 0.961 . S
C791 H807 0.960 . S
H792 C776 0.931 . S
H793 C781 0.929 . S
H794 C782 0.960 . S
H795 C782 0.962 . S
H796 C782 0.960 . S
H797 C783 0.961 . S
H798 C783 0.961 . S
H799 C783 0.961 . S
H800 C784 0.931 . S
H801 C789 0.930 . S
H802 C790 0.956 . S
H803 C790 0.961 . S
H804 C790 0.961 . S
H805 C791 0.958 . S
H806 C791 0.961 . S
H807 C791 0.960 . S
C808 C809 1.391 . S
C808 C810 1.394 . S
C808 H824 0.931 . S
C809 C808 1.391 . S
C809 C813 1.376 1_455 S
C810 C808 1.394 . S
C810 C811 1.369 1_455 S
C810 C814 1.531 . S
C811 C810 1.369 1_655 S
C811 C812 1.410 . S
C811 C819 1.503 . S
C812 C811 1.410 . S
C812 C813 1.392 . S
C812 C815 1.511 . S
C813 C809 1.376 1_655 S
C813 C812 1.392 . S
C813 H825 0.929 . S
C814 C810 1.531 . S
C814 H826 0.960 . S
C814 H827 0.962 . S
C814 H828 0.960 . S
C815 C812 1.511 . S
C815 H829 0.961 . S
C815 H830 0.961 . S
C815 H831 0.961 . S
C816 C817 1.370 1_455 S
C816 C818 1.363 . S
C816 H832 0.931 . S
C817 C816 1.370 1_655 S
C817 C821 1.408 . S
C818 C816 1.363 . S
C818 C819 1.370 1_455 S
C818 C822 1.524 . S
C819 C811 1.503 . S
C819 C818 1.370 1_655 S
C819 C820 1.403 . S
C820 C819 1.403 . S
C820 C821 1.404 . S
C820 C823 1.539 . S
C821 C817 1.408 . S
C821 C820 1.404 . S
C821 H833 0.930 . S
C822 C818 1.524 . S
C822 H834 0.956 . S
C822 H835 0.961 . S
C822 H836 0.961 . S
C823 C820 1.539 . S
C823 H837 0.958 . S
C823 H838 0.961 . S
C823 H839 0.960 . S
H824 C808 0.931 . S
H825 C813 0.929 . S
H826 C814 0.960 . S
H827 C814 0.962 . S
H828 C814 0.960 . S
H829 C815 0.961 . S
H830 C815 0.961 . S
H831 C815 0.961 . S
H832 C816 0.931 . S
H833 C821 0.930 . S
H834 C822 0.956 . S
H835 C822 0.961 . S
H836 C822 0.961 . S
H837 C823 0.958 . S
H838 C823 0.961 . S
H839 C823 0.960 . S
C840 C841 1.391 . S
C840 C842 1.394 . S
C840 H856 0.931 . S
C841 C840 1.391 . S
C841 C845 1.376 1_565 S
C842 C840 1.394 . S
C842 C843 1.369 . S
C842 C846 1.531 . S
C843 C842 1.369 . S
C843 C844 1.410 1_565 S
C843 C851 1.503 . S
C844 C843 1.410 1_545 S
C844 C845 1.392 . S
C844 C847 1.511 . S
C845 C841 1.376 1_545 S
C845 C844 1.392 . S
C845 H857 0.929 . S
C846 C842 1.531 . S
C846 H858 0.960 . S
C846 H859 0.962 . S
C846 H860 0.960 . S
C847 C844 1.511 . S
C847 H861 0.961 . S
C847 H862 0.961 . S
C847 H863 0.961 . S
C848 C849 1.370 . S
C848 C850 1.363 . S
C848 H864 0.931 . S
C849 C848 1.370 . S
C849 C853 1.408 1_545 S
C850 C848 1.363 . S
C850 C851 1.370 1_545 S
C850 C854 1.524 . S
C851 C843 1.503 . S
C851 C850 1.370 1_565 S
C851 C852 1.403 . S
C852 C851 1.403 . S
C852 C853 1.404 . S
C852 C855 1.539 . S
C853 C849 1.408 1_565 S
C853 C852 1.404 . S
C853 H865 0.930 . S
C854 C850 1.524 . S
C854 H866 0.956 . S
C854 H867 0.961 . S
C854 H868 0.961 . S
C855 C852 1.539 . S
C855 H869 0.958 . S
C855 H870 0.961 . S
C855 H871 0.960 . S
H856 C840 0.931 . S
H857 C845 0.929 . S
H858 C846 0.960 . S
H859 C846 0.962 . S
H860 C846 0.960 . S
H861 C847 0.961 . S
H862 C847 0.961 . S
H863 C847 0.961 . S
H864 C848 0.931 . S
H865 C853 0.930 . S
H866 C854 0.956 . S
H867 C854 0.961 . S
H868 C854 0.961 . S
H869 C855 0.958 . S
H870 C855 0.961 . S
H871 C855 0.960 . S
C872 C873 1.391 . S
C872 C874 1.394 . S
C872 H888 0.931 . S
C873 C872 1.391 . S
C873 C877 1.376 . S
C874 C872 1.394 . S
C874 C875 1.369 . S
C874 C878 1.531 . S
C875 C874 1.369 . S
C875 C876 1.410 . S
C875 C883 1.503 . S
C876 C875 1.410 . S
C876 C877 1.392 . S
C876 C879 1.511 . S
C877 C873 1.376 . S
C877 C876 1.392 . S
C877 H889 0.929 . S
C878 C874 1.531 . S
C878 H890 0.960 . S
C878 H891 0.962 . S
C878 H892 0.960 . S
C879 C876 1.511 . S
C879 H893 0.961 . S
C879 H894 0.961 . S
C879 H895 0.961 . S
C880 C881 1.370 . S
C880 C882 1.363 . S
C880 H896 0.931 . S
C881 C880 1.370 . S
C881 C885 1.408 . S
C882 C880 1.363 . S
C882 C883 1.370 . S
C882 C886 1.524 . S
C883 C875 1.503 . S
C883 C882 1.370 . S
C883 C884 1.403 . S
C884 C883 1.403 . S
C884 C885 1.404 . S
C884 C887 1.539 . S
C885 C881 1.408 . S
C885 C884 1.404 . S
C885 H897 0.930 . S
C886 C882 1.524 . S
C886 H898 0.956 . S
C886 H899 0.961 . S
C886 H900 0.961 . S
C887 C884 1.539 . S
C887 H901 0.958 . S
C887 H902 0.961 . S
C887 H903 0.960 . S
H888 C872 0.931 . S
H889 C877 0.929 . S
H890 C878 0.960 . S
H891 C878 0.962 . S
H892 C878 0.960 . S
H893 C879 0.961 . S
H894 C879 0.961 . S
H895 C879 0.961 . S
H896 C880 0.931 . S
H897 C885 0.930 . S
H898 C886 0.956 . S
H899 C886 0.961 . S
H900 C886 0.961 . S
H901 C887 0.958 . S
H902 C887 0.961 . S
H903 C887 0.960 . S
C904 C905 1.391 1_455 S
C904 C906 1.394 . S
C904 H920 0.931 . S
C905 C904 1.391 1_655 S
C905 C909 1.376 . S
C906 C904 1.394 . S
C906 C907 1.369 1_455 S
C906 C910 1.531 . S
C907 C906 1.369 1_655 S
C907 C908 1.410 . S
C907 C915 1.503 . S
C908 C907 1.410 . S
C908 C909 1.392 . S
C908 C911 1.511 . S
C909 C905 1.376 . S
C909 C908 1.392 . S
C909 H921 0.929 . S
C910 C906 1.531 . S
C910 H922 0.960 . S
C910 H923 0.962 . S
C910 H924 0.960 . S
C911 C908 1.511 . S
C911 H925 0.961 . S
C911 H926 0.961 . S
C911 H927 0.961 . S
C912 C913 1.370 . S
C912 C914 1.363 . S
C912 H928 0.931 . S
C913 C912 1.370 . S
C913 C917 1.408 1_455 S
C914 C912 1.363 . S
C914 C915 1.370 1_455 S
C914 C918 1.524 . S
C915 C907 1.503 . S
C915 C914 1.370 1_655 S
C915 C916 1.403 . S
C916 C915 1.403 . S
C916 C917 1.404 . S
C916 C919 1.539 . S
C917 C913 1.408 1_655 S
C917 C916 1.404 . S
C917 H929 0.930 . S
C918 C914 1.524 . S
C918 H930 0.956 . S
C918 H931 0.961 . S
C918 H932 0.961 . S
C919 C916 1.539 . S
C919 H933 0.958 . S
C919 H934 0.961 . S
C919 H935 0.960 . S
H920 C904 0.931 . S
H921 C909 0.929 . S
H922 C910 0.960 . S
H923 C910 0.962 . S
H924 C910 0.960 . S
H925 C911 0.961 . S
H926 C911 0.961 . S
H927 C911 0.961 . S
H928 C912 0.931 . S
H929 C917 0.930 . S
H930 C918 0.956 . S
H931 C918 0.961 . S
H932 C918 0.961 . S
H933 C919 0.958 . S
H934 C919 0.961 . S
H935 C919 0.960 . S
C169 C6 1.668 . S
C177 C118 1.662 . S
C201 C20 1.647 . S
C209 C132 1.671 . S
C233 C146 1.671 . S
C241 C34 1.661 . S
C265 C160 1.659 . S
C273 C48 1.665 . S
C297 C90 1.672 . S
C305 C62 1.667 . S
C329 C104 1.679 . S
C337 C76 1.662 . S
C361 C7 1.742 . S
C369 C49 1.715 . S
C393 C63 1.735 . S
C401 C21 1.714 . S
C425 C77 1.740 . S
C433 C35 1.715 . S
C457 C91 1.706 . S
C465 C133 1.725 . S
C489 C147 1.688 . S
C497 C105 1.734 . S
C521 C119 1.734 . S
C529 C161 1.718 . S
C553 C92 1.220 . S
C561 C8 1.232 . S
C585 C22 1.239 . S
C593 C106 1.236 . S
C617 C120 1.236 . S
C625 C36 1.237 . S
C649 C134 1.220 . S
C657 C50 1.233 . S
C681 C64 1.235 . S
C689 C148 1.230 . S
C713 C162 1.239 . S
C721 C78 1.237 . S
C745 C9 1.101 . S
C753 C107 1.063 . S
C777 C121 1.029 . S
C785 C23 1.051 . S
C809 C135 1.053 . S
C817 C37 1.079 . S
C841 C51 1.101 . S
C849 C149 1.064 . S
C873 C163 1.041 . S
C881 C65 1.048 . S
C905 C93 1.069 . S
C913 C79 1.047 . S
