# Generated by pormake.
# Topology wiv, (6)-cn, num edge types: 1
# Building blocks:
#     Node 0, Type 0, BuildingBlock: BETDEL_clean_sbu_0, # of connection points: 6
#     Node 1, Type 0, BuildingBlock: BETDEL_clean_sbu_0, # of connection points: 6
#     Node 2, Type 0, BuildingBlock: BETDEL_clean_sbu_0, # of connection points: 6
#     Node 3, Type 0, BuildingBlock: BETDEL_clean_sbu_0, # of connection points: 6
#     Node 4, Type 0, BuildingBlock: BETDEL_clean_sbu_0, # of connection points: 6
#     Node 5, Type 0, BuildingBlock: BETDEL_clean_sbu_0, # of connection points: 6
#     Node 6, Type 0, BuildingBlock: BETDEL_clean_sbu_0, # of connection points: 6
#     Node 7, Type 0, BuildingBlock: BETDEL_clean_sbu_0, # of connection points: 6
#     Node 8, Type 0, BuildingBlock: BETDEL_clean_sbu_0, # of connection points: 6
#     Node 9, Type 0, BuildingBlock: BETDEL_clean_sbu_0, # of connection points: 6
#     Node 10, Type 0, BuildingBlock: BETDEL_clean_sbu_0, # of connection points: 6
#     Node 11, Type 0, BuildingBlock: BETDEL_clean_sbu_0, # of connection points: 6
#     Node 12, Type 0, BuildingBlock: BETDEL_clean_sbu_0, # of connection points: 6
#     Node 13, Type 0, BuildingBlock: BETDEL_clean_sbu_0, # of connection points: 6
#     Node 14, Type 0, BuildingBlock: BETDEL_clean_sbu_0, # of connection points: 6
#     Node 15, Type 0, BuildingBlock: BETDEL_clean_sbu_0, # of connection points: 6
#     Edge 16, Type (0, 0), BuildingBlock: CIFDUS_clean_linker_0, # of connection points: 2
#     Edge 17, Type (0, 0), BuildingBlock: CIFDUS_clean_linker_0, # of connection points: 2
#     Edge 18, Type (0, 0), BuildingBlock: CIFDUS_clean_linker_0, # of connection points: 2
#     Edge 19, Type (0, 0), BuildingBlock: CIFDUS_clean_linker_0, # of connection points: 2
#     Edge 20, Type (0, 0), BuildingBlock: CIFDUS_clean_linker_0, # of connection points: 2
#     Edge 21, Type (0, 0), BuildingBlock: CIFDUS_clean_linker_0, # of connection points: 2
#     Edge 22, Type (0, 0), BuildingBlock: CIFDUS_clean_linker_0, # of connection points: 2
#     Edge 23, Type (0, 0), BuildingBlock: CIFDUS_clean_linker_0, # of connection points: 2
#     Edge 24, Type (0, 0), BuildingBlock: CIFDUS_clean_linker_0, # of connection points: 2
#     Edge 25, Type (0, 0), BuildingBlock: CIFDUS_clean_linker_0, # of connection points: 2
#     Edge 26, Type (0, 0), BuildingBlock: CIFDUS_clean_linker_0, # of connection points: 2
#     Edge 27, Type (0, 0), BuildingBlock: CIFDUS_clean_linker_0, # of connection points: 2
#     Edge 28, Type (0, 0), BuildingBlock: CIFDUS_clean_linker_0, # of connection points: 2
#     Edge 29, Type (0, 0), BuildingBlock: CIFDUS_clean_linker_0, # of connection points: 2
#     Edge 30, Type (0, 0), BuildingBlock: CIFDUS_clean_linker_0, # of connection points: 2
#     Edge 31, Type (0, 0), BuildingBlock: CIFDUS_clean_linker_0, # of connection points: 2
#     Edge 32, Type (0, 0), BuildingBlock: CIFDUS_clean_linker_0, # of connection points: 2
#     Edge 33, Type (0, 0), BuildingBlock: CIFDUS_clean_linker_0, # of connection points: 2
#     Edge 34, Type (0, 0), BuildingBlock: CIFDUS_clean_linker_0, # of connection points: 2
#     Edge 35, Type (0, 0), BuildingBlock: CIFDUS_clean_linker_0, # of connection points: 2
#     Edge 36, Type (0, 0), BuildingBlock: CIFDUS_clean_linker_0, # of connection points: 2
#     Edge 37, Type (0, 0), BuildingBlock: CIFDUS_clean_linker_0, # of connection points: 2
#     Edge 38, Type (0, 0), BuildingBlock: CIFDUS_clean_linker_0, # of connection points: 2
#     Edge 39, Type (0, 0), BuildingBlock: CIFDUS_clean_linker_0, # of connection points: 2
#     Edge 40, Type (0, 0), BuildingBlock: CIFDUS_clean_linker_0, # of connection points: 2
#     Edge 41, Type (0, 0), BuildingBlock: CIFDUS_clean_linker_0, # of connection points: 2
#     Edge 42, Type (0, 0), BuildingBlock: CIFDUS_clean_linker_0, # of connection points: 2
#     Edge 43, Type (0, 0), BuildingBlock: CIFDUS_clean_linker_0, # of connection points: 2
#     Edge 44, Type (0, 0), BuildingBlock: CIFDUS_clean_linker_0, # of connection points: 2
#     Edge 45, Type (0, 0), BuildingBlock: CIFDUS_clean_linker_0, # of connection points: 2
#     Edge 46, Type (0, 0), BuildingBlock: CIFDUS_clean_linker_0, # of connection points: 2
#     Edge 47, Type (0, 0), BuildingBlock: CIFDUS_clean_linker_0, # of connection points: 2
#     Edge 48, Type (0, 0), BuildingBlock: CIFDUS_clean_linker_0, # of connection points: 2
#     Edge 49, Type (0, 0), BuildingBlock: CIFDUS_clean_linker_0, # of connection points: 2
#     Edge 50, Type (0, 0), BuildingBlock: CIFDUS_clean_linker_0, # of connection points: 2
#     Edge 51, Type (0, 0), BuildingBlock: CIFDUS_clean_linker_0, # of connection points: 2
#     Edge 52, Type (0, 0), BuildingBlock: CIFDUS_clean_linker_0, # of connection points: 2
#     Edge 53, Type (0, 0), BuildingBlock: CIFDUS_clean_linker_0, # of connection points: 2
#     Edge 54, Type (0, 0), BuildingBlock: CIFDUS_clean_linker_0, # of connection points: 2
#     Edge 55, Type (0, 0), BuildingBlock: CIFDUS_clean_linker_0, # of connection points: 2
#     Edge 56, Type (0, 0), BuildingBlock: CIFDUS_clean_linker_0, # of connection points: 2
#     Edge 57, Type (0, 0), BuildingBlock: CIFDUS_clean_linker_0, # of connection points: 2
#     Edge 58, Type (0, 0), BuildingBlock: CIFDUS_clean_linker_0, # of connection points: 2
#     Edge 59, Type (0, 0), BuildingBlock: CIFDUS_clean_linker_0, # of connection points: 2
#     Edge 60, Type (0, 0), BuildingBlock: CIFDUS_clean_linker_0, # of connection points: 2
#     Edge 61, Type (0, 0), BuildingBlock: CIFDUS_clean_linker_0, # of connection points: 2
#     Edge 62, Type (0, 0), BuildingBlock: CIFDUS_clean_linker_0, # of connection points: 2
#     Edge 63, Type (0, 0), BuildingBlock: CIFDUS_clean_linker_0, # of connection points: 2
# Relax obj value: 0.072
# Max RMSD: 0.132
# Mean RMSD: 0.132
data_MOF--net-wiv--node1-BETDEL_clean_sbu_0--edge1-CIFDUS_clean_linker_0
_symmetry_space_group_name_H-M    P1
_symmetry_Int_Tables_number       1
_symmetry_cell_setting            triclinic
loop_
_symmetry_equiv_pos_as_xyz
'x, y, z'
_cell_length_a     48.239604
_cell_length_b     48.196619
_cell_length_c     15.839131
_cell_angle_alpha  89.91049
_cell_angle_beta   90.037022
_cell_angle_gamma 90.110036
loop_
_atom_site_label
_atom_site_type_symbol
_atom_site_fract_x
_atom_site_fract_y
_atom_site_fract_z
_atom_type_partial_charge
Dy0 Dy 0.34863 0.12051 0.21112 0.0
C1 C 0.3798 0.11708 0.86192 0.0
C2 C 0.33462 0.11412 0.37718 0.0
Dy3 Dy 0.37339 0.11547 0.0342 0.0
O4 O 0.32572 0.13402 0.32832 0.0
O5 O 0.34909 0.09672 0.33285 0.0
O6 O 0.37073 0.16067 0.22962 0.0
O7 O 0.35707 0.15042 0.10887 0.0
C8 C 0.37018 0.16835 0.15144 0.0
C9 C 0.36947 0.06795 0.12245 0.0
O10 O 0.41162 0.12684 0.10597 0.0
O11 O 0.39316 0.10826 0.22861 0.0
O12 O 0.38635 0.09646 0.91053 0.0
O13 O 0.37144 0.13765 0.90818 0.0
O14 O 0.38961 0.07334 0.07059 0.0
O15 O 0.35204 0.08728 0.12082 0.0
O16 O 0.30823 0.11874 0.13743 0.0
O17 O 0.32859 0.11316 1.0053 0.0
C18 C 0.41461 0.11698 0.18358 0.0
C19 C 0.30649 0.1157 0.05374 0.0
Dy20 Dy 0.13176 0.62328 0.03689 0.0
C21 C 0.12631 0.65489 0.69471 0.0
C22 C 0.13778 0.61576 0.20733 0.0
Dy23 Dy 0.1329 0.64773 0.86539 0.0
O24 O 0.12096 0.60184 0.15928 0.0
O25 O 0.15244 0.63251 0.16122 0.0
O26 O 0.0892 0.60627 1.01597 0.0
O27 O 0.10011 0.64392 0.95798 0.0
C28 C 0.08179 0.62527 0.9627 0.0
C29 C 0.18389 0.64358 0.93382 0.0
O30 O 0.12086 0.6865 0.93634 0.0
O31 O 0.13475 0.66865 0.06473 0.0
O32 O 0.14234 0.66974 0.74261 0.0
O33 O 0.11284 0.63726 0.741 0.0
O34 O 0.17593 0.66335 0.88408 0.0
O35 O 0.16461 0.62598 0.94131 0.0
O36 O 0.14463 0.58465 0.9692 0.0
O37 O 0.12854 0.60176 0.84219 0.0
C38 C 0.12681 0.68981 1.01771 0.0
C39 C 0.13691 0.58075 0.88978 0.0
Dy40 Dy 0.64802 0.88307 0.20784 0.0
C41 C 0.6149 0.88143 0.86403 0.0
C42 C 0.65524 0.88874 0.37805 0.0
Dy43 Dy 0.62267 0.88566 0.03423 0.0
O44 O 0.6522 0.86549 0.33829 0.0
O45 O 0.65583 0.90906 0.32408 0.0
O46 O 0.66679 0.8421 0.18202 0.0
O47 O 0.62823 0.85202 0.12657 0.0
C48 C 0.6473 0.83397 0.13103 0.0
C49 C 0.62383 0.93385 0.11883 0.0
O50 O 0.5836 0.87415 0.10016 0.0
O51 O 0.60174 0.88686 0.23006 0.0
O52 O 0.61872 0.90436 0.90506 0.0
O53 O 0.61379 0.86078 0.91679 0.0
O54 O 0.6037 0.92687 0.06848 0.0
O55 O 0.64266 0.91582 0.11676 0.0
O56 O 0.68715 0.89266 0.1354 0.0
O57 O 0.66788 0.88046 1.00677 0.0
C58 C 0.58046 0.87958 0.18147 0.0
C59 C 0.68957 0.88744 0.05317 0.0
Dy60 Dy 0.88463 0.38704 0.99128 0.0
C61 C 0.89919 0.35633 0.65027 0.0
C62 C 0.88762 0.3893 0.16202 0.0
Dy63 Dy 0.88219 0.36347 0.81176 0.0
O64 O 0.89984 0.37128 0.11466 0.0
O65 O 0.87364 0.40693 0.11618 0.0
O66 O 0.92692 0.40415 0.95891 0.0
O67 O 0.91388 0.36662 0.90656 0.0
C68 C 0.93294 0.38436 0.90678 0.0
C69 C 0.82993 0.37383 0.85666 0.0
O70 O 0.88643 0.32403 0.88879 0.0
O71 O 0.86918 0.34394 1.01062 0.0
O72 O 0.90494 0.37754 0.69731 0.0
O73 O 0.88497 0.33802 0.69283 0.0
O74 O 0.83689 0.36298 0.78487 0.0
O75 O 0.85126 0.37796 0.90171 0.0
O76 O 0.87208 0.42616 0.92784 0.0
O77 O 0.88695 0.41008 0.79748 0.0
C78 C 0.87731 0.3219 0.96796 0.0
C79 C 0.87872 0.43052 0.84786 0.0
Dy80 Dy 0.36044 0.38246 0.08384 0.0
C81 C 0.3936 0.37907 0.4274 0.0
C82 C 0.35331 0.38849 0.91346 0.0
Dy83 Dy 0.38607 0.38428 0.25713 0.0
O84 O 0.35473 0.36511 0.95359 0.0
O85 O 0.35422 0.4088 0.96722 0.0
O86 O 0.34203 0.34124 0.11022 0.0
O87 O 0.38094 0.3512 0.1629 0.0
C88 C 0.36219 0.33278 0.15819 0.0
C89 C 0.38445 0.43293 0.17498 0.0
O90 O 0.42505 0.37328 0.19039 0.0
O91 O 0.40665 0.38667 0.06137 0.0
O92 O 0.39197 0.40232 0.38649 0.0
O93 O 0.39273 0.35852 0.37443 0.0
O94 O 0.40469 0.42586 0.22477 0.0
O95 O 0.36572 0.41471 0.17635 0.0
O96 O 0.32134 0.39199 0.15601 0.0
O97 O 0.3408 0.37948 0.2842 0.0
C98 C 0.42804 0.37928 0.10933 0.0
C99 C 0.3191 0.3867 0.23824 0.0
Dy100 Dy 0.40085 0.62338 0.80823 0.0
C101 C 0.40247 0.66121 0.15053 0.0
C102 C 0.3989 0.61705 0.63598 0.0
Dy103 Dy 0.39618 0.64733 0.98438 0.0
O104 O 0.41928 0.60975 0.6844 0.0
O105 O 0.37873 0.62619 0.68237 0.0
O106 O 0.44305 0.60687 0.84204 0.0
O107 O 0.42965 0.6444 0.89448 0.0
C108 C 0.44884 0.62675 0.89434 0.0
C109 C 0.34777 0.62718 0.92395 0.0
O110 O 0.39839 0.68809 0.9121 0.0
O111 O 0.40323 0.66829 0.77906 0.0
O112 O 0.38284 0.67045 0.10141 0.0
O113 O 0.41964 0.64637 0.10654 0.0
O114 O 0.35563 0.62568 1.00185 0.0
O115 O 0.36604 0.64015 0.88243 0.0
O116 O 0.38863 0.58501 0.87859 0.0
O117 O 0.40794 0.60254 1.00091 0.0
C118 C 0.40101 0.69023 0.82835 0.0
C119 C 0.3985 0.58141 0.95586 0.0
Dy120 Dy 0.66776 0.61909 0.06766 0.0
C121 C 0.63268 0.62181 0.41965 0.0
C122 C 0.6768 0.60646 0.90205 0.0
Dy123 Dy 0.64012 0.61714 0.24913 0.0
O124 O 0.69284 0.6222 0.94788 0.0
O125 O 0.65726 0.59611 0.94897 0.0
O126 O 0.66645 0.66503 0.04484 0.0
O127 O 0.65072 0.64876 0.15667 0.0
C128 C 0.65433 0.67088 0.11549 0.0
C129 C 0.64466 0.56879 0.16604 0.0
O130 O 0.60334 0.63011 0.17338 0.0
O131 O 0.62196 0.61198 0.04963 0.0
O132 O 0.61972 0.60434 0.37116 0.0
O133 O 0.64812 0.63799 0.37382 0.0
O134 O 0.62507 0.57403 0.21985 0.0
O135 O 0.6619 0.58839 0.16578 0.0
O136 O 0.70656 0.61359 0.14709 0.0
O137 O 0.68525 0.61749 0.27895 0.0
C138 C 0.60059 0.62101 0.09473 0.0
C139 C 0.70765 0.61513 0.23132 0.0
Dy140 Dy 0.61526 0.39014 0.75368 0.0
C141 C 0.6002 0.35557 0.10127 0.0
C142 C 0.62185 0.39716 0.58334 0.0
Dy143 Dy 0.61356 0.36366 0.93551 0.0
O144 O 0.60665 0.41271 0.63161 0.0
O145 O 0.63497 0.37918 0.62942 0.0
O146 O 0.5725 0.40696 0.77264 0.0
O147 O 0.58375 0.37017 0.83425 0.0
C148 C 0.56521 0.38849 0.82793 0.0
C149 C 0.66664 0.37436 0.89318 0.0
O150 O 0.60746 0.32468 0.85781 0.0
O151 O 0.61525 0.34485 0.72587 0.0
O152 O 0.61395 0.33804 0.05483 0.0
O153 O 0.592 0.3762 0.05479 0.0
O154 O 0.65927 0.36278 0.96342 0.0
O155 O 0.64523 0.37882 0.84967 0.0
O156 O 0.62995 0.42633 0.8299 0.0
O157 O 0.60789 0.40961 0.95009 0.0
C158 C 0.61095 0.32288 0.77431 0.0
C159 C 0.61965 0.43003 0.90672 0.0
Dy160 Dy 0.87612 0.62692 0.70977 0.0
C161 C 0.9084 0.63227 0.36903 0.0
C162 C 0.86897 0.61965 0.88059 0.0
Dy163 Dy 0.90156 0.6269 0.54044 0.0
O164 O 0.85398 0.6356 0.83279 0.0
O165 O 0.88664 0.60647 0.83395 0.0
O166 O 0.85826 0.66889 0.69063 0.0
O167 O 0.89664 0.65996 0.6352 0.0
C168 C 0.87789 0.67817 0.64252 0.0
C169 C 0.90043 0.57656 0.61501 0.0
O170 O 0.93932 0.64186 0.60818 0.0
O171 O 0.92222 0.62549 0.73484 0.0
O172 O 0.92305 0.6163 0.41778 0.0
O173 O 0.8914 0.64657 0.41495 0.0
O174 O 0.91984 0.5849 0.56454 0.0
O175 O 0.88128 0.59429 0.61727 0.0
O176 O 0.83833 0.61334 0.63543 0.0
O177 O 0.85658 0.62954 0.51041 0.0
C178 C 0.9431 0.63477 0.68815 0.0
C179 C 0.83545 0.61997 0.5543 0.0
Dy180 Dy 0.60985 0.12344 0.49326 0.0
C181 C 0.60427 0.1615 0.14907 0.0
C182 C 0.61306 0.11881 0.66501 0.0
Dy183 Dy 0.61293 0.14698 0.31347 0.0
O184 O 0.59121 0.12573 0.6224 0.0
O185 O 0.63307 0.11259 0.61313 0.0
O186 O 0.56735 0.10662 0.46266 0.0
O187 O 0.58094 0.1439 0.40801 0.0
C188 C 0.56155 0.12647 0.40992 0.0
C189 C 0.66123 0.12683 0.3732 0.0
O190 O 0.61216 0.18799 0.38362 0.0
O191 O 0.61413 0.16862 0.51824 0.0
O192 O 0.62716 0.16583 0.19063 0.0
O193 O 0.58572 0.151 0.19925 0.0
O194 O 0.65323 0.12498 0.29539 0.0
O195 O 0.64332 0.14024 0.41445 0.0
O196 O 0.61914 0.08439 0.42211 0.0
O197 O 0.6007 0.10223 0.29821 0.0
C198 C 0.61328 0.19041 0.46755 0.0
C199 C 0.60938 0.081 0.34447 0.0
Dy200 Dy 0.14769 0.39151 0.70652 0.0
C201 C 0.11569 0.38984 0.36539 0.0
C202 C 0.15458 0.39368 0.87769 0.0
Dy203 Dy 0.12272 0.39338 0.5361 0.0
O204 O 0.14443 0.37305 0.83575 0.0
O205 O 0.16229 0.41311 0.82555 0.0
O206 O 0.16602 0.35047 0.67889 0.0
O207 O 0.1266 0.35976 0.62954 0.0
C208 C 0.14535 0.34138 0.63428 0.0
C209 C 0.12375 0.44278 0.61312 0.0
O210 O 0.08304 0.38564 0.60432 0.0
O211 O 0.10261 0.4012 0.72892 0.0
O212 O 0.12351 0.41168 0.40635 0.0
O213 O 0.11018 0.3699 0.41839 0.0
O214 O 0.10427 0.43503 0.56164 0.0
O215 O 0.14281 0.42482 0.61583 0.0
O216 O 0.18731 0.39935 0.63521 0.0
O217 O 0.16747 0.38539 0.50964 0.0
C218 C 0.08067 0.39401 0.68352 0.0
C219 C 0.18941 0.39282 0.55399 0.0
Dy220 Dy 0.39193 0.88797 0.53274 0.0
C221 C 0.40641 0.85338 0.18588 0.0
C222 C 0.38525 0.89493 0.70305 0.0
Dy223 Dy 0.39341 0.86117 0.352 0.0
O224 O 0.40058 0.91046 0.65477 0.0
O225 O 0.37203 0.87702 0.65696 0.0
O226 O 0.43447 0.90536 0.51298 0.0
O227 O 0.42356 0.86834 0.4521 0.0
C228 C 0.4419 0.88698 0.45783 0.0
C229 C 0.34019 0.87111 0.39517 0.0
O230 O 0.40083 0.82249 0.4303 0.0
O231 O 0.39311 0.84281 0.56175 0.0
O232 O 0.39299 0.8356 0.2327 0.0
O233 O 0.41446 0.87411 0.23209 0.0
O234 O 0.34763 0.85952 0.32519 0.0
O235 O 0.36163 0.87605 0.43817 0.0
O236 O 0.37751 0.92408 0.45594 0.0
O237 O 0.3993 0.90703 0.33606 0.0
C238 C 0.39778 0.82084 0.514 0.0
C239 C 0.38793 0.92761 0.37918 0.0
Dy240 Dy 0.86772 0.8932 0.59862 0.0
C241 C 0.89354 0.89216 0.9481 0.0
C242 C 0.85415 0.90301 0.43399 0.0
Dy243 Dy 0.88936 0.89502 0.77618 0.0
O244 O 0.84806 0.8805 0.47545 0.0
O245 O 0.86616 0.92058 0.48407 0.0
O246 O 0.88768 0.85212 0.57897 0.0
O247 O 0.8716 0.8615 0.69823 0.0
C248 C 0.88441 0.84336 0.65556 0.0
C249 C 0.89143 0.94385 0.69312 0.0
O250 O 0.92823 0.88178 0.71137 0.0
O251 O 0.91364 0.90095 0.58527 0.0
O252 O 0.88679 0.91396 0.90494 0.0
O253 O 0.8996 0.87196 0.89683 0.0
O254 O 0.91017 0.93576 0.74662 0.0
O255 O 0.87207 0.92626 0.68995 0.0
O256 O 0.82601 0.89457 0.66555 0.0
O257 O 0.84422 0.89253 0.80102 0.0
C258 C 0.93347 0.89036 0.63358 0.0
C259 C 0.82285 0.89359 0.74923 0.0
Dy260 Dy 0.87845 0.12559 0.27429 0.0
C261 C 0.88045 0.15935 0.6159 0.0
C262 C 0.87451 0.11777 0.10335 0.0
Dy263 Dy 0.87435 0.15125 0.44545 0.0
O264 O 0.89286 0.10625 0.15214 0.0
O265 O 0.85735 0.132 0.14899 0.0
O266 O 0.92213 0.11238 0.3043 0.0
O267 O 0.907 0.1496 0.35351 0.0
C268 C 0.92704 0.13305 0.35443 0.0
C269 C 0.82457 0.14386 0.37319 0.0
O270 O 0.88348 0.19045 0.37084 0.0
O271 O 0.87189 0.17034 0.24333 0.0
O272 O 0.86208 0.17142 0.56851 0.0
O273 O 0.89642 0.1442 0.56911 0.0
O274 O 0.83099 0.16427 0.42267 0.0
O275 O 0.84475 0.1272 0.36807 0.0
O276 O 0.86728 0.0866 0.34286 0.0
O277 O 0.88065 0.10529 0.47104 0.0
C278 C 0.87779 0.19252 0.28869 0.0
C279 C 0.87413 0.08357 0.4234 0.0
Dy280 Dy 0.14049 0.1275 0.57076 0.0
C281 C 0.10735 0.13166 0.91162 0.0
C282 C 0.14739 0.12505 0.39948 0.0
Dy283 Dy 0.11367 0.1279 0.7404 0.0
O284 O 0.13905 0.1464 0.44171 0.0
O285 O 0.15344 0.10498 0.45154 0.0
O286 O 0.16338 0.16598 0.60115 0.0
O287 O 0.12257 0.16101 0.64801 0.0
C288 C 0.14383 0.17659 0.64699 0.0
C289 C 0.11215 0.07835 0.66386 0.0
O290 O 0.07503 0.13752 0.66897 0.0
O291 O 0.09503 0.12094 0.54627 0.0
O292 O 0.10239 0.15179 0.85872 0.0
O293 O 0.11405 0.10957 0.87023 0.0
O294 O 0.09279 0.08728 0.71386 0.0
O295 O 0.1322 0.09521 0.66256 0.0
O296 O 0.17805 0.11511 0.64622 0.0
O297 O 0.15875 0.13235 0.76871 0.0
C298 C 0.07307 0.12911 0.58968 0.0
C299 C 0.18007 0.12206 0.72723 0.0
Dy300 Dy 0.12373 0.88877 0.28983 0.0
C301 C 0.10494 0.86054 0.63168 0.0
C302 C 0.12282 0.89042 0.1191 0.0
Dy303 Dy 0.12243 0.86656 0.47019 0.0
O304 O 0.1377 0.90717 0.16542 0.0
O305 O 0.10876 0.87354 0.16591 0.0
O306 O 0.08347 0.91039 0.31325 0.0
O307 O 0.09113 0.8725 0.37383 0.0
C308 C 0.07448 0.89258 0.36807 0.0
C309 C 0.17602 0.87272 0.42875 0.0
O310 O 0.11563 0.82687 0.39728 0.0
O311 O 0.13479 0.84425 0.2743 0.0
O312 O 0.11702 0.84107 0.58831 0.0
O313 O 0.10148 0.88244 0.58541 0.0
O314 O 0.16764 0.86316 0.50087 0.0
O315 O 0.15532 0.87795 0.38238 0.0
O316 O 0.13838 0.92735 0.35265 0.0
O317 O 0.12032 0.91315 0.48134 0.0
C318 C 0.12495 0.82332 0.31903 0.0
C319 C 0.13062 0.93267 0.4311 0.0
H320 H 0.3484 0.96839 0.37557 0.0
H321 H 0.43122 0.94833 0.29355 0.0
H322 H 0.43324 0.99064 0.20965 0.0
H323 H 0.41048 0.0314 0.15087 0.0
H324 H 0.32721 0.05178 0.22669 0.0
H325 H 0.32625 0.01149 0.3215 0.0
C326 C 0.36698 0.97368 0.3405 0.0
C327 C 0.38958 0.95534 0.34033 0.0
C328 C 0.36777 0.99786 0.2903 0.0
C329 C 0.4135 0.96212 0.29401 0.0
C330 C 0.41467 0.98625 0.24586 0.0
C331 C 0.39213 0.02702 0.18823 0.0
C332 C 0.36887 0.04425 0.18139 0.0
C333 C 0.39172 1.00389 0.24187 0.0
C334 C 0.34533 0.03861 0.23077 0.0
C335 C 0.34479 0.01562 0.28498 0.0
H336 H 0.95973 0.60983 0.83194 0.0
H337 H 0.98883 0.66425 0.63435 0.0
H338 H 0.03417 0.66757 0.70424 0.0
H339 H 0.06566 0.65442 0.82229 0.0
H340 H 0.03612 0.59743 1.01252 0.0
H341 H 0.99068 0.59612 0.94556 0.0
C342 C 0.97589 0.62255 0.80403 0.0
C343 C 0.97083 0.63688 0.72819 0.0
C344 C 1.00183 0.624 0.84369 0.0
C345 C 0.9922 0.65296 0.69262 0.0
C346 C 0.01809 0.65492 0.73272 0.0
C347 C 0.04919 0.64182 0.84889 0.0
C348 C 0.05419 0.62609 0.92232 0.0
C349 C 0.02316 0.64049 0.8084 0.0
C350 C 0.03279 0.6097 0.95606 0.0
C351 C 0.00679 0.6089 0.91776 0.0
H352 H 0.58424 0.97348 0.13194 0.0
H353 H 0.66589 0.95179 0.22043 0.0
H354 H 0.66758 0.99394 0.30616 0.0
H355 H 0.64663 0.03849 0.35066 0.0
H356 H 0.56655 0.06147 0.25232 0.0
H357 H 0.56332 0.01749 0.17652 0.0
C358 C 0.60236 0.97798 0.17015 0.0
C359 C 0.62479 0.95943 0.17044 0.0
C360 C 0.60344 1.00257 0.21772 0.0
C361 C 0.6482 0.96558 0.21995 0.0
C362 C 0.64922 0.98974 0.2688 0.0
C363 C 0.62835 0.03356 0.31366 0.0
C364 C 0.60679 0.05302 0.30735 0.0
C365 C 0.62703 0.00853 0.26781 0.0
C366 C 0.5834 0.04674 0.25797 0.0
C367 C 0.58157 0.02164 0.21446 0.0
H368 H 0.97617 0.42013 0.90715 0.0
H369 H 0.94608 0.34557 0.78803 0.0
H370 H 0.98809 0.34317 0.70166 0.0
H371 H 0.03474 0.36123 0.66499 0.0
H372 H 0.0654 0.43414 0.79233 0.0
H373 H 0.02196 0.43836 0.86977 0.0
C374 C 0.9788 0.40341 0.8621 0.0
C375 C 0.95811 0.3831 0.85385 0.0
C376 C 1.00319 0.40188 0.81402 0.0
C377 C 0.96177 0.36149 0.79541 0.0
C378 C 0.98578 0.36011 0.74602 0.0
C379 C 0.03165 0.37819 0.7089 0.0
C380 C 0.05317 0.39733 0.72302 0.0
C381 C 0.00679 0.38006 0.75528 0.0
C382 C 0.04915 0.41905 0.78085 0.0
C383 C 0.02433 0.42148 0.82522 0.0
H384 H 0.4235 0.47322 0.16562 0.0
H385 H 0.34252 0.4508 0.07268 0.0
H386 H 0.34068 0.49349 0.98905 0.0
H387 H 0.36141 0.53859 0.94724 0.0
H388 H 0.44083 0.56204 0.05005 0.0
H389 H 0.44408 0.51775 0.12427 0.0
C390 C 0.40548 0.47768 0.12692 0.0
C391 C 0.3833 0.4588 0.12473 0.0
C392 C 0.40432 0.50255 0.08062 0.0
C393 C 0.36002 0.46488 0.07464 0.0
C394 C 0.35892 0.48935 0.02699 0.0
C395 C 0.37953 0.53372 0.98499 0.0
C396 C 0.40089 0.55341 0.99301 0.0
C397 C 0.38088 0.50846 0.02983 0.0
C398 C 0.4241 0.54717 0.0432 0.0
C399 C 0.42596 0.52188 0.08575 0.0
H400 H 0.55464 0.6537 0.11715 0.0
H401 H 0.58435 0.5812 0.98594 0.0
H402 H 0.53984 0.57599 0.91539 0.0
H403 H 0.49298 0.59261 0.8867 0.0
H404 H 0.46325 0.66651 1.00951 0.0
H405 H 0.50694 0.67055 0.08766 0.0
C406 C 0.55119 0.63671 0.07357 0.0
C407 C 0.57278 0.61797 0.05654 0.0
C408 C 0.52555 0.63411 0.03142 0.0
C409 C 0.56817 0.59611 0.99945 0.0
C410 C 0.54268 0.59304 0.95913 0.0
C411 C 0.49605 0.60956 0.93074 0.0
C412 C 0.47495 0.62915 0.94261 0.0
C413 C 0.52134 0.61205 0.97387 0.0
C414 C 0.4792 0.65108 0.99962 0.0
C415 C 0.5042 0.65342 0.04418 0.0
H416 H 0.60257 0.53328 0.14028 0.0
H417 H 0.68539 0.55236 0.05628 0.0
H418 H 0.68423 0.51244 0.96011 0.0
H419 H 0.66032 0.46996 0.90723 0.0
H420 H 0.57791 0.45151 0.9972 0.0
H421 H 0.57806 0.49345 0.08254 0.0
C422 C 0.62037 0.52873 0.10086 0.0
C423 C 0.64413 0.54543 0.10592 0.0
C424 C 0.61954 0.50587 0.04641 0.0
C425 C 0.66692 0.53956 0.05376 0.0
C426 C 0.66623 0.5168 0.99876 0.0
C427 C 0.64229 0.47554 0.94433 0.0
C428 C 0.61918 0.45771 0.94627 0.0
C429 C 0.64275 0.49953 0.9953 0.0
C430 C 0.59601 0.46487 0.99525 0.0
C431 C 0.59607 0.48879 0.04426 0.0
H432 H 0.44512 0.40731 0.97135 0.0
H433 H 0.47321 0.34848 0.15793 0.0
H434 H 0.51807 0.34498 0.08564 0.0
H435 H 0.54895 0.35818 0.96635 0.0
H436 H 0.52089 0.41977 0.78792 0.0
H437 H 0.47621 0.42218 0.85884 0.0
C438 C 0.46103 0.39367 0.9963 0.0
C439 C 0.45578 0.37802 0.06947 0.0
C440 C 0.48672 0.39209 0.95527 0.0
C441 C 0.47678 0.3608 0.1017 0.0
C442 C 0.50236 0.35869 0.06015 0.0
C443 C 0.53308 0.3722 0.94359 0.0
C444 C 0.53823 0.38879 0.87205 0.0
C445 C 0.50753 0.37414 0.98646 0.0
C446 C 0.51745 0.40679 0.84285 0.0
C447 C 0.49188 0.40823 0.88342 0.0
H448 H 0.9106 0.4508 0.72153 0.0
H449 H 0.84727 0.47482 0.89877 0.0
H450 H 0.84752 0.52207 0.84093 0.0
H451 H 0.86613 0.55677 0.73925 0.0
H452 H 0.93174 0.53252 0.56988 0.0
H453 H 0.93018 0.4853 0.62508 0.0
C454 C 0.89673 0.46633 0.74731 0.0
C455 C 0.87878 0.45924 0.81392 0.0
C456 C 0.89743 0.4935 0.71504 0.0
C457 C 0.86131 0.47975 0.84755 0.0
C458 C 0.86142 0.50676 0.81435 0.0
C459 C 0.87999 0.54107 0.71449 0.0
C460 C 0.89887 0.54808 0.65006 0.0
C461 C 0.87942 0.51391 0.74802 0.0
C462 C 0.91695 0.52766 0.61922 0.0
C463 C 0.91608 0.50062 0.65073 0.0
H464 H 0.52055 0.08831 0.39761 0.0
H465 H 0.54584 0.16876 0.30623 0.0
H466 H 0.50389 0.17184 0.21994 0.0
H467 H 0.45851 0.15258 0.17626 0.0
H468 H 0.43218 0.07364 0.27683 0.0
H469 H 0.4759 0.06891 0.35302 0.0
C470 C 0.51686 0.10647 0.35868 0.0
C471 C 0.53626 0.12817 0.35777 0.0
C472 C 0.49245 0.10835 0.31074 0.0
C473 C 0.53126 0.15164 0.30724 0.0
C474 C 0.50726 0.15345 0.25807 0.0
C475 C 0.46265 0.13423 0.2139 0.0
C476 C 0.44233 0.11348 0.221 0.0
C477 C 0.48755 0.13203 0.25981 0.0
C478 C 0.44759 0.08993 0.27087 0.0
C479 C 0.47253 0.08722 0.31454 0.0
H480 H 0.10689 0.56321 0.7568 0.0
H481 H 0.16854 0.5356 0.93525 0.0
H482 H 0.17095 0.49053 0.86335 0.0
H483 H 0.15592 0.45944 0.74663 0.0
H484 H 0.09173 0.48705 0.57668 0.0
H485 H 0.09036 0.53192 0.64715 0.0
C486 C 0.12092 0.54738 0.78011 0.0
C487 C 0.1377 0.55282 0.85082 0.0
C488 C 0.12189 0.52161 0.73934 0.0
C489 C 0.15539 0.5319 0.88096 0.0
C490 C 0.15686 0.5062 0.8396 0.0
C491 C 0.14159 0.47525 0.72556 0.0
C492 C 0.12399 0.46993 0.65648 0.0
C493 C 0.14029 0.50088 0.76828 0.0
C494 C 0.10551 0.49063 0.6296 0.0
C495 C 0.10467 0.51629 0.66995 0.0
H496 H 0.56298 0.90628 0.32132 0.0
H497 H 0.53534 0.84916 0.12953 0.0
H498 H 0.49016 0.84513 0.19975 0.0
H499 H 0.4587 0.85756 0.31831 0.0
H500 H 0.48635 0.91759 0.50193 0.0
H501 H 0.53142 0.9203 0.43345 0.0
C502 C 0.54711 0.89289 0.2948 0.0
C503 C 0.55259 0.87789 0.22068 0.0
C504 C 0.5212 0.89103 0.33461 0.0
C505 C 0.53162 0.86098 0.1865 0.0
C506 C 0.50584 0.85858 0.22686 0.0
C507 C 0.47459 0.87128 0.34282 0.0
C508 C 0.46917 0.88734 0.4151 0.0
C509 C 0.5004 0.87343 0.30132 0.0
C510 C 0.48997 0.905 0.44641 0.0
C511 C 0.51577 0.90662 0.40723 0.0
H512 H 0.85554 0.96293 0.57233 0.0
H513 H 0.9274 0.9865 0.71769 0.0
H514 H 0.92801 0.03185 0.64863 0.0
H515 H 0.90829 0.06489 0.54651 0.0
H516 H 0.83988 0.03969 0.38893 0.0
H517 H 0.83827 0.99457 0.4608 0.0
C518 C 0.87166 0.97775 0.58758 0.0
C519 C 0.89156 0.97116 0.64957 0.0
C520 C 0.87256 1.00347 0.54506 0.0
C521 C 0.91188 0.99096 0.67012 0.0
C522 C 0.91228 0.01691 0.63055 0.0
C523 C 0.89306 0.04948 0.52784 0.0
C524 C 0.87407 0.05567 0.46302 0.0
C525 C 0.89275 0.0234 0.56791 0.0
C526 C 0.85473 0.03538 0.43855 0.0
C527 C 0.85374 0.00965 0.47992 0.0
H528 H 0.0269 0.16222 0.59904 0.0
H529 H 0.05858 0.08707 0.48752 0.0
H530 H 0.01604 0.08127 0.40684 0.0
H531 H 0.97078 0.09841 0.36221 0.0
H532 H 0.93882 0.17431 0.46727 0.0
H533 H 0.98026 0.17902 0.55575 0.0
C534 C 0.02421 0.14447 0.55782 0.0
C535 C 0.04583 0.12519 0.5489 0.0
C536 C 0.99976 0.14153 0.50969 0.0
C537 C 0.04229 0.10236 0.49477 0.0
C538 C 0.01798 0.09899 0.44854 0.0
C539 C 0.9729 0.11598 0.40451 0.0
C540 C 0.95193 0.13603 0.40798 0.0
C541 C 0.99679 0.11864 0.45438 0.0
C542 C 0.95483 0.15865 0.46328 0.0
C543 C 0.97849 0.16132 0.51399 0.0
H544 H 0.09709 0.95428 0.54967 0.0
H545 H 0.16468 0.97581 0.38383 0.0
H546 H 0.16543 0.02301 0.44217 0.0
H547 H 0.14708 0.05784 0.54323 0.0
H548 H 0.0774 0.03599 0.70067 0.0
H549 H 0.0774 0.98911 0.64323 0.0
C550 C 0.11211 0.96923 0.52639 0.0
C551 C 0.13104 0.96149 0.46327 0.0
C552 C 0.11205 0.99625 0.55898 0.0
C553 C 0.14994 0.98129 0.43256 0.0
C554 C 0.1504 0.00822 0.46606 0.0
C555 C 0.13188 0.0428 0.56451 0.0
C556 C 0.11237 0.0503 0.62644 0.0
C557 C 0.1316 0.0159 0.52967 0.0
C558 C 0.09267 0.0307 0.65325 0.0
C559 C 0.09265 1.00388 0.62047 0.0
H560 H 0.05458 0.86258 0.50284 0.0
H561 H 0.03361 0.92855 0.32985 0.0
H562 H 0.98862 0.93389 0.39731 0.0
H563 H 0.9549 0.91977 0.50368 0.0
H564 H 0.97564 0.85574 0.68322 0.0
H565 H 0.02115 0.85007 0.61638 0.0
C566 C 0.04015 0.87814 0.48034 0.0
C567 C 0.04738 0.89504 0.41114 0.0
C568 C 0.01433 0.88158 0.52088 0.0
C569 C 0.02855 0.91522 0.3828 0.0
C570 C 1.00279 0.91833 0.42139 0.0
C571 C 0.96937 0.90458 0.52843 0.0
C572 C 0.96181 0.88809 0.59798 0.0
C573 C 0.99543 0.90162 0.49024 0.0
C574 C 0.98098 0.86877 0.62986 0.0
C575 C 0.00694 0.86542 0.59135 0.0
H576 H 0.39537 0.20904 0.24018 0.0
H577 H 0.34595 0.1946 1.01735 0.0
H578 H 0.3392 0.2446 1.00044 0.0
H579 H 0.34408 0.29183 0.05583 0.0
H580 H 0.39465 0.30694 0.27565 0.0
H581 H 0.40401 0.25702 0.28791 0.0
C582 C 0.38351 0.21691 0.18713 0.0
C583 C 0.37093 0.19821 0.13051 0.0
C584 C 0.37947 0.24563 0.17849 0.0
C585 C 0.35582 0.20859 0.06167 0.0
C586 C 0.35175 0.23714 0.0525 0.0
C587 C 0.35708 0.2842 0.10667 0.0
C588 C 0.36819 0.30287 0.16611 0.0
C589 C 0.36282 0.25574 0.11188 0.0
C590 C 0.38561 0.29284 0.23008 0.0
C591 C 0.39101 0.26438 0.23676 0.0
H592 H 0.30588 0.60404 1.01335 0.0
H593 H 0.32255 0.65327 0.79131 0.0
H594 H 0.27301 0.66272 0.77549 0.0
H595 H 0.22563 0.66007 0.83128 0.0
H596 H 0.20827 0.60972 0.05031 0.0
H597 H 0.25762 0.59785 0.06174 0.0
C598 C 0.29858 0.61646 0.9607 0.0
C599 C 0.31784 0.62816 0.90397 0.0
C600 C 0.27011 0.62204 0.95262 0.0
C601 C 0.30815 0.64404 0.83573 0.0
C602 C 0.27986 0.64965 0.82715 0.0
C603 C 0.23265 0.64655 0.88172 0.0
C604 C 0.21351 0.63619 0.94108 0.0
C605 C 0.26079 0.63938 0.88652 0.0
C606 C 0.22275 0.61816 1.00469 0.0
C607 C 0.25089 0.61133 1.01093 0.0
H608 H 0.65179 0.79325 0.24713 0.0
H609 H 0.63142 0.80832 0.98607 0.0
H610 H 0.62865 0.75814 0.96086 0.0
H611 H 0.63706 0.71053 1.01025 0.0
H612 H 0.65584 0.69503 0.2721 0.0
H613 H 0.65363 0.74509 0.30112 0.0
C614 C 0.64648 0.78545 0.18496 0.0
C615 C 0.64229 0.80418 0.11784 0.0
C616 C 0.64461 0.75671 0.1716 0.0
C617 C 0.63487 0.79412 0.03811 0.0
C618 C 0.63336 0.76553 0.02387 0.0
C619 C 0.64009 0.71813 0.07406 0.0
C620 C 0.64684 0.6994 0.13904 0.0
C621 C 0.63887 0.74671 0.08967 0.0
C622 C 0.65049 0.7092 0.22151 0.0
C623 C 0.64949 0.73777 0.23769 0.0
H624 H 0.78762 0.38069 0.74863 0.0
H625 H 0.8072 0.37928 1.01431 0.0
H626 H 0.7576 0.3817 0.0484 0.0
H627 H 0.70899 0.37949 1.00167 0.0
H628 H 0.6894 0.38163 0.73607 0.0
H629 H 0.73904 0.38398 0.70219 0.0
C630 C 0.78101 0.38125 0.81407 0.0
C631 C 0.80085 0.37943 0.87915 0.0
C632 C 0.75264 0.38262 0.83272 0.0
C633 C 0.79221 0.38059 0.96348 0.0
C634 C 0.76392 0.38183 0.98275 0.0
C635 C 0.71561 0.38081 0.93633 0.0
C636 C 0.69576 0.38001 0.87113 0.0
C637 C 0.744 0.38213 0.91781 0.0
C638 C 0.7044 0.38215 0.78697 0.0
C639 C 0.73272 0.38335 0.76781 0.0
H640 H 0.85641 0.71883 0.74035 0.0
H641 H 0.91216 0.70504 0.5319 0.0
H642 H 0.92075 0.75518 0.52174 0.0
H643 H 0.91072 0.80294 0.56886 0.0
H644 H 0.85627 0.81617 0.7809 0.0
H645 H 0.84934 0.76601 0.79447 0.0
C646 C 0.87041 0.72678 0.69247 0.0
C647 C 0.88332 0.70833 0.63585 0.0
C648 C 0.87567 0.75542 0.68846 0.0
C649 C 0.90183 0.71889 0.5755 0.0
C650 C 0.90677 0.7475 0.56996 0.0
C651 C 0.89762 0.79478 0.61874 0.0
C652 C 0.88385 0.81322 0.67349 0.0
C653 C 0.89364 0.76596 0.62575 0.0
C654 C 0.86712 0.80242 0.73817 0.0
C655 C 0.86299 0.77377 0.74544 0.0
H656 H 0.78282 0.15583 0.47952 0.0
H657 H 0.80123 0.11169 0.2498 0.0
H658 H 0.7519 0.09977 0.23394 0.0
H659 H 0.7033 0.10528 0.28072 0.0
H660 H 0.68593 0.14875 0.51275 0.0
H661 H 0.73544 0.157 0.5338 0.0
C662 C 0.77606 0.14356 0.42591 0.0
C663 C 0.7954 0.13511 0.36471 0.0
C664 C 0.748 0.13654 0.41825 0.0
C665 C 0.78655 0.11864 0.29696 0.0
C666 C 0.75843 0.11183 0.28811 0.0
C667 C 0.71043 0.11616 0.33658 0.0
C668 C 0.69101 0.12675 0.39459 0.0
C669 C 0.73892 0.12109 0.34772 0.0
C670 C 0.70047 0.14053 0.46711 0.0
C671 C 0.72874 0.14542 0.47881 0.0
H672 H 0.17803 0.30044 0.69278 0.0
H673 H 0.09998 0.31449 0.56707 0.0
H674 H 0.09054 0.26432 0.56877 0.0
H675 H 0.10575 0.21606 0.60255 0.0
H676 H 0.18426 0.20375 0.727 0.0
H677 H 0.19186 0.25379 0.73209 0.0
C678 C 0.15891 0.29263 0.66552 0.0
C679 C 0.13982 0.31116 0.62923 0.0
C680 C 0.1535 0.26408 0.66824 0.0
C681 C 0.11512 0.30061 0.59472 0.0
C682 C 0.10965 0.27197 0.59629 0.0
C683 C 0.12406 0.22453 0.63288 0.0
C684 C 0.14426 0.20645 0.66588 0.0
C685 C 0.12872 0.25346 0.63303 0.0
C686 C 0.16833 0.21742 0.70259 0.0
C687 C 0.17281 0.24597 0.7046 0.0
H688 H 0.29783 0.8763 0.28664 0.0
H689 H 0.31703 0.87721 0.55249 0.0
H690 H 0.26731 0.87918 0.58577 0.0
H691 H 0.21858 0.87678 0.53842 0.0
H692 H 0.19964 0.87743 0.27229 0.0
H693 H 0.24933 0.87887 0.23932 0.0
C694 C 0.29112 0.87723 0.35194 0.0
C695 C 0.31093 0.8763 0.41728 0.0
C696 C 0.26268 0.87845 0.37011 0.0
C697 C 0.30211 0.8779 0.50141 0.0
C698 C 0.27372 0.87887 0.52023 0.0
C699 C 0.22536 0.87747 0.47316 0.0
C700 C 0.20559 0.87664 0.40761 0.0
C701 C 0.25386 0.87853 0.45505 0.0
C702 C 0.21452 0.87797 0.32352 0.0
C703 C 0.24288 0.8787 0.30485 0.0
H704 H 0.18662 0.12744 0.89674 0.0
H705 H 0.232 0.10832 0.66896 0.0
H706 H 0.27454 0.10334 0.75217 0.0
H707 H 0.29852 0.10555 0.88715 0.0
H708 H 0.25375 0.12559 0.11542 0.0
H709 H 0.21067 0.12864 0.0333 0.0
C710 C 0.20578 0.12223 0.86473 0.0
C711 C 0.20612 0.11849 0.77607 0.0
C712 C 0.23003 0.11941 0.91296 0.0
C713 C 0.23113 0.1114 0.73662 0.0
C714 C 0.25541 0.10854 0.78429 0.0
C715 C 0.27943 0.11055 0.91987 0.0
C716 C 0.27952 0.1155 1.008 0.0
C717 C 0.25505 0.11266 0.87225 0.0
C718 C 0.25437 0.12167 0.04814 0.0
C719 C 0.22979 0.12354 1.00102 0.0
H720 H 0.12373 0.69949 0.18643 0.0
H721 H 0.12424 0.74179 0.94589 0.0
H722 H 0.12348 0.78662 1.01888 0.0
H723 H 0.12435 0.81353 0.15054 0.0
H724 H 0.12233 0.77132 0.39101 0.0
H725 H 0.12207 0.72643 0.31804 0.0
C726 C 0.12363 0.71848 0.1496 0.0
C727 C 0.12431 0.71721 0.06038 0.0
C728 C 0.12306 0.74409 0.19202 0.0
C729 C 0.12374 0.74209 1.01425 0.0
C730 C 0.12342 0.76772 0.05607 0.0
C731 C 0.1239 0.79454 0.18731 0.0
C732 C 0.12373 0.79582 0.2765 0.0
C733 C 0.12339 0.76893 0.14487 0.0
C734 C 0.12258 0.77097 0.32264 0.0
C735 C 0.12246 0.74532 0.28082 0.0
H736 H 0.6992 0.88425 0.88345 0.0
H737 H 0.74121 0.89633 0.12168 0.0
H738 H 0.78551 0.90004 0.0473 0.0
H739 H 0.81209 0.89928 0.91649 0.0
H740 H 0.77081 0.88721 0.67716 0.0
H741 H 0.72608 0.88438 0.75089 0.0
C742 C 0.71801 0.88763 0.91956 0.0
C743 C 0.71675 0.88982 1.00874 0.0
C744 C 0.74342 0.88986 0.8762 0.0
C745 C 0.74143 0.89448 0.05355 0.0
C746 C 0.76678 0.89662 1.01089 0.0
C747 C 0.79342 0.89599 0.87965 0.0
C748 C 0.79502 0.89327 0.79072 0.0
C749 C 0.76798 0.89425 0.92243 0.0
C750 C 0.77034 0.88937 0.74519 0.0
C751 C 0.74478 0.88766 0.78753 0.0
H752 H 0.87542 0.31438 0.138 0.0
H753 H 0.8807 0.26882 0.90409 0.0
H754 H 0.8816 0.22511 0.98361 0.0
H755 H 0.88064 0.20011 0.11883 0.0
H756 H 0.87708 0.2457 0.35311 0.0
H757 H 0.87601 0.28942 0.27351 0.0
C758 C 0.87665 0.29493 0.10397 0.0
C759 C 0.87768 0.29497 1.01462 0.0
C760 C 0.87765 0.26999 0.15024 0.0
C761 C 0.87975 0.26948 0.97237 0.0
C762 C 0.88029 0.24449 1.01797 0.0
C763 C 0.87964 0.21957 0.15301 0.0
C764 C 0.87873 0.2195 0.2424 0.0
C765 C 0.87923 0.24453 0.10684 0.0
C766 C 0.87782 0.24504 0.2848 0.0
C767 C 0.87713 0.27003 0.23917 0.0
H768 H 0.31137 0.38979 0.40781 0.0
H769 H 0.26635 0.3898 0.17198 0.0
H770 H 0.22251 0.39231 0.24991 0.0
H771 H 0.19724 0.39321 0.38437 0.0
H772 H 0.24227 0.39396 0.62011 0.0
H773 H 0.28616 0.39256 0.54211 0.0
C774 C 0.29201 0.39028 0.37299 0.0
C775 C 0.29221 0.38929 0.28369 0.0
C776 C 0.26699 0.39185 0.41821 0.0
C777 C 0.26686 0.39044 0.24032 0.0
C778 C 0.24181 0.39182 0.28498 0.0
C779 C 0.21662 0.39302 0.41913 0.0
C780 C 0.2164 0.39339 0.50846 0.0
C781 C 0.24166 0.39232 0.37385 0.0
C782 C 0.24178 0.39364 0.55176 0.0
C783 C 0.26686 0.39276 0.50706 0.0
H784 H 0.40577 0.69906 0.6595 0.0
H785 H 0.39672 0.74299 0.89566 0.0
H786 H 0.39557 0.78709 0.81808 0.0
H787 H 0.39607 0.81259 0.68413 0.0
H788 H 0.40452 0.76833 0.44831 0.0
H789 H 0.40693 0.72446 0.52625 0.0
C790 C 0.40363 0.71818 0.69488 0.0
C791 C 0.40132 0.71755 0.78406 0.0
C792 C 0.40278 0.74327 0.64994 0.0
C793 C 0.39856 0.74274 0.82753 0.0
C794 C 0.39785 0.76794 0.78305 0.0
C795 C 0.39848 0.79343 0.6491 0.0
C796 C 0.40004 0.79389 0.55974 0.0
C797 C 0.39977 0.76837 0.6943 0.0
C798 C 0.40327 0.76871 0.51656 0.0
C799 C 0.40462 0.74363 0.56123 0.0
H800 H 0.71498 0.60889 0.4007 0.0
H801 H 0.76082 0.61882 0.16816 0.0
H802 H 0.80421 0.62014 0.24871 0.0
H803 H 0.82857 0.62039 0.3844 0.0
H804 H 0.78282 0.6108 0.61708 0.0
H805 H 0.73954 0.60735 0.53616 0.0
C806 C 0.7344 0.61129 0.36698 0.0
C807 C 0.73449 0.61397 0.27787 0.0
C808 C 0.75914 0.61216 0.41373 0.0
C809 C 0.76002 0.61672 0.2362 0.0
C810 C 0.78482 0.61756 0.2824 0.0
C811 C 0.80918 0.61754 0.41799 0.0
C812 C 0.80899 0.61613 0.5073 0.0
C813 C 0.78454 0.61563 0.37112 0.0
C814 C 0.78363 0.61199 0.54884 0.0
C815 C 0.75891 0.61009 0.50247 0.0
H816 H 0.60971 0.19997 0.63621 0.0
H817 H 0.61554 0.24297 0.39715 0.0
H818 H 0.61476 0.28752 0.47195 0.0
H819 H 0.61294 0.31382 0.60445 0.0
H820 H 0.60695 0.27045 0.8429 0.0
H821 H 0.60718 0.22608 0.76783 0.0
C822 C 0.61091 0.21898 0.59967 0.0
C823 C 0.61287 0.21794 0.51048 0.0
C824 C 0.61037 0.24436 0.64298 0.0
C825 C 0.61412 0.24301 0.46538 0.0
C826 C 0.61367 0.26848 0.50826 0.0
C827 C 0.61166 0.29474 0.64061 0.0
C828 C 0.61001 0.29562 0.72992 0.0
C829 C 0.61186 0.26935 0.597 0.0
C830 C 0.60821 0.27053 0.77464 0.0
C831 C 0.60841 0.24514 0.73161 0.0
H832 H 0.36608 0.08243 0.48047 0.0
H833 H 0.30918 0.1513 0.48216 0.0
H834 H 0.31925 0.1594 0.6319 0.0
H835 H 0.34578 0.14787 0.76128 0.0
H836 H 0.40279 0.07908 0.75738 0.0
H837 H 0.39174 0.07045 0.60906 0.0
C838 C 0.35552 0.09895 0.51389 0.0
C839 C 0.33672 0.11611 0.47038 0.0
C840 C 0.36202 0.10394 0.59907 0.0
C841 C 0.32351 0.13763 0.51442 0.0
C842 C 0.3295 0.14244 0.5998 0.0
C843 C 0.35607 0.13129 0.72742 0.0
C844 C 0.37545 0.11441 0.76975 0.0
C845 C 0.34912 0.12605 0.6424 0.0
C846 C 0.3881 0.09256 0.72582 0.0
C847 C 0.38161 0.08747 0.64124 0.0
H848 H 0.1062 0.61431 0.59365 0.0
H849 H 0.15287 0.6907 0.58861 0.0
H850 H 0.16195 0.68445 0.43772 0.0
H851 H 0.15746 0.65667 0.30807 0.0
H852 H 0.11074 0.58032 0.31318 0.0
H853 H 0.10142 0.58672 0.46385 0.0
C854 C 0.11804 0.62977 0.55921 0.0
C855 C 0.12867 0.65307 0.60188 0.0
C856 C 0.1237 0.62569 0.47307 0.0
C857 C 0.1443 0.67273 0.55686 0.0
C858 C 0.14968 0.66903 0.47083 0.0
C859 C 0.14559 0.64124 0.34253 0.0
C860 C 0.1351 0.61784 0.30001 0.0
C861 C 0.13981 0.64541 0.42857 0.0
C862 C 0.11927 0.59831 0.3449 0.0
C863 C 0.11376 0.60209 0.43079 0.0
H864 H 0.64029 0.84863 0.48781 0.0
H865 H 0.65948 0.93593 0.47226 0.0
H866 H 0.64687 0.94169 0.62106 0.0
H867 H 0.62977 0.92186 0.7545 0.0
H868 H 0.61021 0.83461 0.76905 0.0
H869 H 0.62289 0.82893 0.62049 0.0
C870 C 0.64204 0.86886 0.51731 0.0
C871 C 0.65107 0.8918 0.4697 0.0
C872 C 0.63412 0.87208 0.60189 0.0
C873 C 0.65287 0.91795 0.50814 0.0
C874 C 0.64543 0.92127 0.59285 0.0
C875 C 0.62794 0.90169 0.72477 0.0
C876 C 0.61885 0.8787 0.77219 0.0
C877 C 0.63576 0.89852 0.64001 0.0
C878 C 0.6169 0.85262 0.73341 0.0
C879 C 0.62437 0.84934 0.64881 0.0
H880 H 0.89781 0.3442 0.25571 0.0
H881 H 0.88035 0.43172 0.27395 0.0
H882 H 0.88515 0.42926 0.42811 0.0
H883 H 0.89369 0.40197 0.55621 0.0
H884 H 0.9059 0.31356 0.53922 0.0
H885 H 0.90423 0.31648 0.38444 0.0
C886 C 0.89504 0.36272 0.29359 0.0
C887 C 0.88892 0.38817 0.25438 0.0
C888 C 0.89714 0.36092 0.38148 0.0
C889 C 0.88501 0.41198 0.30346 0.0
C890 C 0.88788 0.41055 0.39115 0.0
C891 C 0.89634 0.3834 0.5184 0.0
C892 C 0.90044 0.35763 0.55802 0.0
C893 C 0.89398 0.38514 0.43058 0.0
C894 C 0.90304 0.33357 0.50927 0.0
C895 C 0.90193 0.33527 0.42124 0.0
H896 H 0.38129 0.42023 0.53697 0.0
H897 H 0.3949 0.33194 0.52244 0.0
H898 H 0.38169 0.32692 0.67089 0.0
H899 H 0.36559 0.34755 0.80366 0.0
H900 H 0.35225 0.43586 0.81894 0.0
H901 H 0.36536 0.44094 0.67027 0.0
C902 C 0.38172 0.39995 0.56668 0.0
C903 C 0.3893 0.37649 0.51927 0.0
C904 C 0.37358 0.39719 0.65139 0.0
C905 C 0.3894 0.3503 0.55804 0.0
C906 C 0.38163 0.34741 0.64259 0.0
C907 C 0.36521 0.36787 0.77412 0.0
C908 C 0.35769 0.39129 0.8217 0.0
C909 C 0.37339 0.37066 0.68952 0.0
C910 C 0.35768 0.41752 0.78315 0.0
C911 C 0.3654 0.42044 0.69849 0.0
H912 H 0.43352 0.62935 0.2542 0.0
H913 H 0.36578 0.68757 0.25504 0.0
H914 H 0.35759 0.67798 0.40511 0.0
H915 H 0.36873 0.65151 0.53501 0.0
H916 H 0.43631 0.59308 0.53165 0.0
H917 H 0.44505 0.60368 0.38307 0.0
C918 C 0.41723 0.64029 0.28749 0.0
C919 C 0.40042 0.65933 0.24371 0.0
C920 C 0.41216 0.63405 0.3728 0.0
C921 C 0.37918 0.67304 0.28755 0.0
C922 C 0.37431 0.66733 0.3731 0.0
C923 C 0.38507 0.64082 0.50122 0.0
C924 C 0.40159 0.62118 0.54377 0.0
C925 C 0.39035 0.64748 0.41601 0.0
C926 C 0.42312 0.60798 0.49992 0.0
C927 C 0.42827 0.61422 0.41519 0.0
H928 H 0.63531 0.58695 0.80345 0.0
H929 H 0.71323 0.63086 0.79261 0.0
H930 H 0.70562 0.64088 0.64271 0.0
H931 H 0.67575 0.63889 0.51646 0.0
H932 H 0.59802 0.5947 0.52748 0.0
H933 H 0.6062 0.58372 0.67647 0.0
C934 C 0.65086 0.59832 0.76795 0.0
C935 C 0.6749 0.60803 0.80893 0.0
C936 C 0.64598 0.60461 0.68254 0.0
C937 C 0.69469 0.62297 0.7623 0.0
C938 C 0.69019 0.62896 0.67687 0.0
C939 C 0.66041 0.62723 0.55193 0.0
C940 C 0.63603 0.61807 0.5117 0.0
C941 C 0.66564 0.62037 0.63682 0.0
C942 C 0.61671 0.60232 0.5576 0.0
C943 C 0.62151 0.59583 0.64246 0.0
H944 H 0.63401 0.3527 0.48561 0.0
H945 H 0.59898 0.4349 0.47603 0.0
H946 H 0.58671 0.42815 0.32741 0.0
H947 H 0.58597 0.39889 0.20055 0.0
H948 H 0.62091 0.31663 0.20969 0.0
H949 H 0.63244 0.32302 0.35903 0.0
C950 C 0.62408 0.36929 0.45055 0.0
C951 C 0.61781 0.39448 0.49119 0.0
C952 C 0.61646 0.36495 0.36583 0.0
C953 C 0.60434 0.41551 0.44568 0.0
C954 C 0.5971 0.41154 0.36102 0.0
C955 C 0.59566 0.38215 0.2356 0.0
C956 C 0.60239 0.35721 0.1943 0.0
C957 C 0.60285 0.38627 0.32069 0.0
C958 C 0.61526 0.33589 0.2403 0.0
C959 C 0.62212 0.33966 0.32542 0.0
H960 H 0.90997 0.60033 0.98218 0.0
H961 H 0.83282 0.64533 0.98709 0.0
H962 H 0.83892 0.65442 0.13806 0.0
H963 H 0.86684 0.6506 0.26792 0.0
H964 H 0.94399 0.60559 0.26309 0.0
H965 H 0.93762 0.59603 0.11246 0.0
C966 C 0.89431 0.6118 1.0166 0.0
C967 C 0.87083 0.62195 0.9737 0.0
C968 C 0.89829 0.61747 0.10295 0.0
C969 C 0.85093 0.63712 1.01884 0.0
C970 C 0.85454 0.64251 0.10499 0.0
C971 C 0.88244 0.63902 0.23358 0.0
C972 C 0.90608 0.62915 0.27626 0.0
C973 C 0.87832 0.63313 0.14744 0.0
C974 C 0.92581 0.61369 0.23138 0.0
C975 C 0.92206 0.60804 0.14544 0.0
H976 H 0.57312 0.13583 0.77214 0.0
H977 H 0.66005 0.11544 0.76151 0.0
H978 H 0.66571 0.13023 0.9086 0.0
H979 H 0.64563 0.14857 0.04068 0.0
H980 H 0.55822 0.16651 0.05219 0.0
H981 H 0.55313 0.15392 0.90326 0.0
C982 C 0.59327 0.13436 0.80226 0.0
C983 C 0.6161 0.12431 0.75637 0.0
C984 C 0.59635 0.14309 0.88627 0.0
C985 C 0.6421 0.12275 0.79593 0.0
C986 C 0.64538 0.13148 0.87969 0.0
C987 C 0.62563 0.15033 1.00983 0.0
C988 C 0.60239 0.15901 0.05649 0.0
C989 C 0.62268 0.14186 0.9253 0.0
C990 C 0.57642 0.16035 1.01686 0.0
C991 C 0.57347 0.15286 0.93213 0.0
H992 H 0.13903 0.42679 0.25898 0.0
H993 H 0.10148 0.34552 0.26694 0.0
H994 H 0.11191 0.33903 0.11682 0.0
H995 H 0.13196 0.35643 0.98447 0.0
H996 H 0.16961 0.43766 0.97653 0.0
H997 H 0.1595 0.44402 0.12691 0.0
C998 C 0.13286 0.40777 0.22762 0.0
C999 C 0.11923 0.38674 0.27346 0.0
C1000 C 0.13941 0.40403 0.14214 0.0
C1001 C 0.11172 0.36206 0.23255 0.0
C1002 C 0.11787 0.3583 0.14706 0.0
C1003 C 0.13822 0.37542 1.01588 0.0
C1004 C 0.15167 0.39651 0.9699 0.0
C1005 C 0.13187 0.37907 0.10152 0.0
C1006 C 0.15947 0.42107 1.011 0.0
C1007 C 0.15349 0.42477 0.09664 0.0
H1008 H 0.4208 0.89667 0.08613 0.0
H1009 H 0.38546 0.81445 0.07777 0.0
H1010 H 0.37405 0.82082 0.92827 0.0
H1011 H 0.37277 0.85047 0.8012 0.0
H1012 H 0.40821 0.93263 0.81017 0.0
H1013 H 0.4203 0.92589 0.95895 0.0
C1014 C 0.41103 0.87994 0.05123 0.0
C1015 C 0.40417 0.85502 0.0928 0.0
C1016 C 0.40393 0.88405 0.96604 0.0
C1017 C 0.39122 0.8337 0.04697 0.0
C1018 C 0.38444 0.83746 0.96174 0.0
C1019 C 0.38275 0.86705 0.83617 0.0
C1020 C 0.38918 0.89223 0.79528 0.0
C1021 C 0.39026 0.86273 0.92104 0.0
C1022 C 0.40272 0.91325 0.84069 0.0
C1023 C 0.40986 0.9093 0.92545 0.0
H1024 H 0.86436 0.86114 0.32516 0.0
H1025 H 0.85131 0.94948 0.33781 0.0
H1026 H 0.86321 0.95399 0.18808 0.0
H1027 H 0.8792 0.93303 0.05568 0.0
H1028 H 0.89517 0.8451 0.0446 0.0
H1029 H 0.88097 0.84019 0.19245 0.0
C1030 C 0.86352 0.88125 0.29441 0.0
C1031 C 0.85638 0.90491 0.34147 0.0
C1032 C 0.87164 0.8838 0.2095 0.0
C1033 C 0.85626 0.93099 0.30207 0.0
C1034 C 0.86335 0.93358 0.2169 0.0
C1035 C 0.87983 0.91282 0.0859 0.0
C1036 C 0.88841 0.88947 0.03966 0.0
C1037 C 0.87154 0.9102 0.17047 0.0
C1038 C 0.88896 0.86341 0.07931 0.0
C1039 C 0.88058 0.86058 0.1635 0.0
H1040 H 0.84951 0.15571 1.00269 0.0
H1041 H 0.90688 0.08724 0.99745 0.0
H1042 H 0.91535 0.09536 0.84691 0.0
H1043 H 0.90651 0.12211 0.71692 0.0
H1044 H 0.84917 0.19063 0.72256 0.0
H1045 H 0.84118 0.18284 0.87339 0.0
C1046 C 0.86357 0.14232 0.96827 0.0
C1047 C 0.87725 0.12062 1.01072 0.0
C1048 C 0.86877 0.14753 0.88232 0.0
C1049 C 0.89586 0.10384 0.96583 0.0
C1050 C 0.90086 0.10863 0.87998 0.0
C1051 C 0.89256 0.13558 0.7515 0.0
C1052 C 0.8786 0.15707 0.70889 0.0
C1053 C 0.8876 0.13055 0.83772 0.0
C1054 C 0.8603 0.1741 0.75416 0.0
C1055 C 0.85556 0.1695 0.84019 0.0
H1056 H 0.12916 0.0935 1.01731 0.0
H1057 H 0.09599 0.17654 1.01129 0.0
H1058 H 0.1072 0.18225 0.1613 0.0
H1059 H 0.12657 0.16361 0.29327 0.0
H1060 H 0.15971 0.08056 0.29927 0.0
H1061 H 0.14897 0.07504 0.1489 0.0
C1062 C 0.1241 0.11277 0.04904 0.0
C1063 C 0.11145 0.1345 1.00367 0.0
C1064 C 0.13107 0.11601 0.13455 0.0
C1065 C 0.10543 0.15945 0.04519 0.0
C1066 C 0.11203 0.16276 0.13066 0.0
C1067 C 0.13172 0.14439 0.26146 0.0
C1068 C 0.14409 0.12255 0.30704 0.0
C1069 C 0.12499 0.14124 0.17573 0.0
C1070 C 0.15042 0.09771 0.26528 0.0
C1071 C 0.14408 0.0945 0.17959 0.0
H1072 H 0.11455 0.90529 0.72634 0.0
H1073 H 0.09582 0.81791 0.74191 0.0
H1074 H 0.09961 0.81986 0.89646 0.0
H1075 H 0.10945 0.84638 0.02512 0.0
H1076 H 0.13297 0.93259 1.00793 0.0
H1077 H 0.12662 0.93121 0.85418 0.0
C1078 C 0.1109 0.88678 0.76382 0.0
C1079 C 0.10436 0.86158 0.72393 0.0
C1080 C 0.11445 0.88786 0.8513 0.0
C1081 C 0.10049 0.83752 0.77216 0.0
C1082 C 0.10283 0.83864 0.85999 0.0
C1083 C 0.11325 0.86484 0.98751 0.0
C1084 C 0.1215 0.88963 0.02686 0.0
C1085 C 0.11006 0.86365 0.89991 0.0
C1086 C 0.12673 0.91333 0.97821 0.0
C1087 C 0.12292 0.91255 0.89081 0.0
loop_
_geom_bond_atom_site_label_1
_geom_bond_atom_site_label_2
_geom_bond_distance
_geom_bond_site_symmetry_2
_ccdc_geom_bond_type
Dy0 O4 2.398 . S
Dy0 O5 2.491 . S
Dy0 O6 2.403 . S
Dy0 O7 2.664 . S
Dy0 O11 2.326 . S
Dy0 O15 2.310 . S
Dy0 O16 2.351 . S
C1 O12 1.185 . S
C1 O13 1.355 . S
C2 O4 1.185 . S
C2 O5 1.355 . S
Dy3 O7 2.310 . S
Dy3 O10 2.351 . S
Dy3 O12 2.398 1_554 S
Dy3 O13 2.491 1_554 S
Dy3 O14 2.403 . S
Dy3 O15 2.664 . S
Dy3 O17 2.326 . S
O4 Dy0 2.398 . S
O4 C2 1.185 . S
O5 Dy0 2.491 . S
O5 C2 1.355 . S
O6 Dy0 2.403 . S
O6 C8 1.254 . S
O7 Dy0 2.664 . S
O7 Dy3 2.310 . S
O7 C8 1.268 . S
C8 O6 1.254 . S
C8 O7 1.268 . S
C9 O14 1.254 . S
C9 O15 1.268 . S
O10 Dy3 2.351 . S
O10 C18 1.249 . S
O11 Dy0 2.326 . S
O11 C18 1.267 . S
O12 C1 1.185 . S
O12 Dy3 2.398 1_556 S
O13 C1 1.355 . S
O13 Dy3 2.491 1_556 S
O14 Dy3 2.403 . S
O14 C9 1.254 . S
O15 Dy0 2.310 . S
O15 Dy3 2.664 . S
O15 C9 1.268 . S
O16 Dy0 2.351 . S
O16 C19 1.249 . S
O17 Dy3 2.326 . S
O17 C19 1.267 . S
C18 O10 1.249 . S
C18 O11 1.267 . S
C19 O16 1.249 . S
C19 O17 1.267 . S
Dy20 O24 2.398 1_556 S
Dy20 O25 2.491 1_556 S
Dy20 O26 2.403 . S
Dy20 O27 2.664 . S
Dy20 O31 2.326 . S
Dy20 O35 2.310 . S
Dy20 O36 2.351 . S
C21 O32 1.185 . S
C21 O33 1.355 . S
C22 O24 1.185 . S
C22 O25 1.355 . S
Dy23 O27 2.310 . S
Dy23 O30 2.351 . S
Dy23 O32 2.398 . S
Dy23 O33 2.491 . S
Dy23 O34 2.403 . S
Dy23 O35 2.664 . S
Dy23 O37 2.326 . S
O24 Dy20 2.398 1_554 S
O24 C22 1.185 . S
O25 Dy20 2.491 1_554 S
O25 C22 1.355 . S
O26 Dy20 2.403 . S
O26 C28 1.254 . S
O27 Dy20 2.664 . S
O27 Dy23 2.310 . S
O27 C28 1.268 . S
C28 O26 1.254 . S
C28 O27 1.268 . S
C29 O34 1.254 . S
C29 O35 1.268 . S
O30 Dy23 2.351 . S
O30 C38 1.249 . S
O31 Dy20 2.326 . S
O31 C38 1.267 . S
O32 C21 1.185 . S
O32 Dy23 2.398 . S
O33 C21 1.355 . S
O33 Dy23 2.491 . S
O34 Dy23 2.403 . S
O34 C29 1.254 . S
O35 Dy20 2.310 . S
O35 Dy23 2.664 . S
O35 C29 1.268 . S
O36 Dy20 2.351 . S
O36 C39 1.249 . S
O37 Dy23 2.326 . S
O37 C39 1.267 . S
C38 O30 1.249 . S
C38 O31 1.267 . S
C39 O36 1.249 . S
C39 O37 1.267 . S
Dy40 O44 2.398 . S
Dy40 O45 2.491 . S
Dy40 O46 2.403 . S
Dy40 O47 2.664 . S
Dy40 O51 2.326 . S
Dy40 O55 2.310 . S
Dy40 O56 2.351 . S
C41 O52 1.185 . S
C41 O53 1.355 . S
C42 O44 1.185 . S
C42 O45 1.355 . S
Dy43 O47 2.310 . S
Dy43 O50 2.351 . S
Dy43 O52 2.398 1_554 S
Dy43 O53 2.491 1_554 S
Dy43 O54 2.403 . S
Dy43 O55 2.664 . S
Dy43 O57 2.326 . S
O44 Dy40 2.398 . S
O44 C42 1.185 . S
O45 Dy40 2.491 . S
O45 C42 1.355 . S
O46 Dy40 2.403 . S
O46 C48 1.254 . S
O47 Dy40 2.664 . S
O47 Dy43 2.310 . S
O47 C48 1.268 . S
C48 O46 1.254 . S
C48 O47 1.268 . S
C49 O54 1.254 . S
C49 O55 1.268 . S
O50 Dy43 2.351 . S
O50 C58 1.249 . S
O51 Dy40 2.326 . S
O51 C58 1.267 . S
O52 C41 1.185 . S
O52 Dy43 2.398 1_556 S
O53 C41 1.355 . S
O53 Dy43 2.491 1_556 S
O54 Dy43 2.403 . S
O54 C49 1.254 . S
O55 Dy40 2.310 . S
O55 Dy43 2.664 . S
O55 C49 1.268 . S
O56 Dy40 2.351 . S
O56 C59 1.249 . S
O57 Dy43 2.326 . S
O57 C59 1.267 . S
C58 O50 1.249 . S
C58 O51 1.267 . S
C59 O56 1.249 . S
C59 O57 1.267 . S
Dy60 O64 2.398 1_556 S
Dy60 O65 2.491 1_556 S
Dy60 O66 2.403 . S
Dy60 O67 2.664 . S
Dy60 O71 2.326 . S
Dy60 O75 2.310 . S
Dy60 O76 2.351 . S
C61 O72 1.185 . S
C61 O73 1.355 . S
C62 O64 1.185 . S
C62 O65 1.355 . S
Dy63 O67 2.310 . S
Dy63 O70 2.351 . S
Dy63 O72 2.398 . S
Dy63 O73 2.491 . S
Dy63 O74 2.403 . S
Dy63 O75 2.664 . S
Dy63 O77 2.326 . S
O64 Dy60 2.398 1_554 S
O64 C62 1.185 . S
O65 Dy60 2.491 1_554 S
O65 C62 1.355 . S
O66 Dy60 2.403 . S
O66 C68 1.254 . S
O67 Dy60 2.664 . S
O67 Dy63 2.310 . S
O67 C68 1.268 . S
C68 O66 1.254 . S
C68 O67 1.268 . S
C69 O74 1.254 . S
C69 O75 1.268 . S
O70 Dy63 2.351 . S
O70 C78 1.249 . S
O71 Dy60 2.326 . S
O71 C78 1.267 . S
O72 C61 1.185 . S
O72 Dy63 2.398 . S
O73 C61 1.355 . S
O73 Dy63 2.491 . S
O74 Dy63 2.403 . S
O74 C69 1.254 . S
O75 Dy60 2.310 . S
O75 Dy63 2.664 . S
O75 C69 1.268 . S
O76 Dy60 2.351 . S
O76 C79 1.249 . S
O77 Dy63 2.326 . S
O77 C79 1.267 . S
C78 O70 1.249 . S
C78 O71 1.267 . S
C79 O76 1.249 . S
C79 O77 1.267 . S
Dy80 O84 2.398 1_554 S
Dy80 O85 2.491 1_554 S
Dy80 O86 2.403 . S
Dy80 O87 2.664 . S
Dy80 O91 2.326 . S
Dy80 O95 2.310 . S
Dy80 O96 2.351 . S
C81 O92 1.185 . S
C81 O93 1.355 . S
C82 O84 1.185 . S
C82 O85 1.355 . S
Dy83 O87 2.310 . S
Dy83 O90 2.351 . S
Dy83 O92 2.398 . S
Dy83 O93 2.491 . S
Dy83 O94 2.403 . S
Dy83 O95 2.664 . S
Dy83 O97 2.326 . S
O84 Dy80 2.398 1_556 S
O84 C82 1.185 . S
O85 Dy80 2.491 1_556 S
O85 C82 1.355 . S
O86 Dy80 2.403 . S
O86 C88 1.254 . S
O87 Dy80 2.664 . S
O87 Dy83 2.310 . S
O87 C88 1.268 . S
C88 O86 1.254 . S
C88 O87 1.268 . S
C89 O94 1.254 . S
C89 O95 1.268 . S
O90 Dy83 2.351 . S
O90 C98 1.249 . S
O91 Dy80 2.326 . S
O91 C98 1.267 . S
O92 C81 1.185 . S
O92 Dy83 2.398 . S
O93 C81 1.355 . S
O93 Dy83 2.491 . S
O94 Dy83 2.403 . S
O94 C89 1.254 . S
O95 Dy80 2.310 . S
O95 Dy83 2.664 . S
O95 C89 1.268 . S
O96 Dy80 2.351 . S
O96 C99 1.249 . S
O97 Dy83 2.326 . S
O97 C99 1.267 . S
C98 O90 1.249 . S
C98 O91 1.267 . S
C99 O96 1.249 . S
C99 O97 1.267 . S
Dy100 O104 2.398 . S
Dy100 O105 2.491 . S
Dy100 O106 2.403 . S
Dy100 O107 2.664 . S
Dy100 O111 2.326 . S
Dy100 O115 2.310 . S
Dy100 O116 2.351 . S
C101 O112 1.185 . S
C101 O113 1.355 . S
C102 O104 1.185 . S
C102 O105 1.355 . S
Dy103 O107 2.310 . S
Dy103 O110 2.351 . S
Dy103 O112 2.398 1_556 S
Dy103 O113 2.491 1_556 S
Dy103 O114 2.403 . S
Dy103 O115 2.664 . S
Dy103 O117 2.326 . S
O104 Dy100 2.398 . S
O104 C102 1.185 . S
O105 Dy100 2.491 . S
O105 C102 1.355 . S
O106 Dy100 2.403 . S
O106 C108 1.254 . S
O107 Dy100 2.664 . S
O107 Dy103 2.310 . S
O107 C108 1.268 . S
C108 O106 1.254 . S
C108 O107 1.268 . S
C109 O114 1.254 . S
C109 O115 1.268 . S
O110 Dy103 2.351 . S
O110 C118 1.249 . S
O111 Dy100 2.326 . S
O111 C118 1.267 . S
O112 C101 1.185 . S
O112 Dy103 2.398 1_554 S
O113 C101 1.355 . S
O113 Dy103 2.491 1_554 S
O114 Dy103 2.403 . S
O114 C109 1.254 . S
O115 Dy100 2.310 . S
O115 Dy103 2.664 . S
O115 C109 1.268 . S
O116 Dy100 2.351 . S
O116 C119 1.249 . S
O117 Dy103 2.326 . S
O117 C119 1.267 . S
C118 O110 1.249 . S
C118 O111 1.267 . S
C119 O116 1.249 . S
C119 O117 1.267 . S
Dy120 O124 2.398 1_554 S
Dy120 O125 2.491 1_554 S
Dy120 O126 2.403 . S
Dy120 O127 2.664 . S
Dy120 O131 2.326 . S
Dy120 O135 2.310 . S
Dy120 O136 2.351 . S
C121 O132 1.185 . S
C121 O133 1.355 . S
C122 O124 1.185 . S
C122 O125 1.355 . S
Dy123 O127 2.310 . S
Dy123 O130 2.351 . S
Dy123 O132 2.398 . S
Dy123 O133 2.491 . S
Dy123 O134 2.403 . S
Dy123 O135 2.664 . S
Dy123 O137 2.326 . S
O124 Dy120 2.398 1_556 S
O124 C122 1.185 . S
O125 Dy120 2.491 1_556 S
O125 C122 1.355 . S
O126 Dy120 2.403 . S
O126 C128 1.254 . S
O127 Dy120 2.664 . S
O127 Dy123 2.310 . S
O127 C128 1.268 . S
C128 O126 1.254 . S
C128 O127 1.268 . S
C129 O134 1.254 . S
C129 O135 1.268 . S
O130 Dy123 2.351 . S
O130 C138 1.249 . S
O131 Dy120 2.326 . S
O131 C138 1.267 . S
O132 C121 1.185 . S
O132 Dy123 2.398 . S
O133 C121 1.355 . S
O133 Dy123 2.491 . S
O134 Dy123 2.403 . S
O134 C129 1.254 . S
O135 Dy120 2.310 . S
O135 Dy123 2.664 . S
O135 C129 1.268 . S
O136 Dy120 2.351 . S
O136 C139 1.249 . S
O137 Dy123 2.326 . S
O137 C139 1.267 . S
C138 O130 1.249 . S
C138 O131 1.267 . S
C139 O136 1.249 . S
C139 O137 1.267 . S
Dy140 O144 2.398 . S
Dy140 O145 2.491 . S
Dy140 O146 2.403 . S
Dy140 O147 2.664 . S
Dy140 O151 2.326 . S
Dy140 O155 2.310 . S
Dy140 O156 2.351 . S
C141 O152 1.185 . S
C141 O153 1.355 . S
C142 O144 1.185 . S
C142 O145 1.355 . S
Dy143 O147 2.310 . S
Dy143 O150 2.351 . S
Dy143 O152 2.398 1_556 S
Dy143 O153 2.491 1_556 S
Dy143 O154 2.403 . S
Dy143 O155 2.664 . S
Dy143 O157 2.326 . S
O144 Dy140 2.398 . S
O144 C142 1.185 . S
O145 Dy140 2.491 . S
O145 C142 1.355 . S
O146 Dy140 2.403 . S
O146 C148 1.254 . S
O147 Dy140 2.664 . S
O147 Dy143 2.310 . S
O147 C148 1.268 . S
C148 O146 1.254 . S
C148 O147 1.268 . S
C149 O154 1.254 . S
C149 O155 1.268 . S
O150 Dy143 2.351 . S
O150 C158 1.249 . S
O151 Dy140 2.326 . S
O151 C158 1.267 . S
O152 C141 1.185 . S
O152 Dy143 2.398 1_554 S
O153 C141 1.355 . S
O153 Dy143 2.491 1_554 S
O154 Dy143 2.403 . S
O154 C149 1.254 . S
O155 Dy140 2.310 . S
O155 Dy143 2.664 . S
O155 C149 1.268 . S
O156 Dy140 2.351 . S
O156 C159 1.249 . S
O157 Dy143 2.326 . S
O157 C159 1.267 . S
C158 O150 1.249 . S
C158 O151 1.267 . S
C159 O156 1.249 . S
C159 O157 1.267 . S
Dy160 O164 2.398 . S
Dy160 O165 2.491 . S
Dy160 O166 2.403 . S
Dy160 O167 2.664 . S
Dy160 O171 2.326 . S
Dy160 O175 2.310 . S
Dy160 O176 2.351 . S
C161 O172 1.185 . S
C161 O173 1.355 . S
C162 O164 1.185 . S
C162 O165 1.355 . S
Dy163 O167 2.310 . S
Dy163 O170 2.351 . S
Dy163 O172 2.398 . S
Dy163 O173 2.491 . S
Dy163 O174 2.403 . S
Dy163 O175 2.664 . S
Dy163 O177 2.326 . S
O164 Dy160 2.398 . S
O164 C162 1.185 . S
O165 Dy160 2.491 . S
O165 C162 1.355 . S
O166 Dy160 2.403 . S
O166 C168 1.254 . S
O167 Dy160 2.664 . S
O167 Dy163 2.310 . S
O167 C168 1.268 . S
C168 O166 1.254 . S
C168 O167 1.268 . S
C169 O174 1.254 . S
C169 O175 1.268 . S
O170 Dy163 2.351 . S
O170 C178 1.249 . S
O171 Dy160 2.326 . S
O171 C178 1.267 . S
O172 C161 1.185 . S
O172 Dy163 2.398 . S
O173 C161 1.355 . S
O173 Dy163 2.491 . S
O174 Dy163 2.403 . S
O174 C169 1.254 . S
O175 Dy160 2.310 . S
O175 Dy163 2.664 . S
O175 C169 1.268 . S
O176 Dy160 2.351 . S
O176 C179 1.249 . S
O177 Dy163 2.326 . S
O177 C179 1.267 . S
C178 O170 1.249 . S
C178 O171 1.267 . S
C179 O176 1.249 . S
C179 O177 1.267 . S
Dy180 O184 2.398 . S
Dy180 O185 2.491 . S
Dy180 O186 2.403 . S
Dy180 O187 2.664 . S
Dy180 O191 2.326 . S
Dy180 O195 2.310 . S
Dy180 O196 2.351 . S
C181 O192 1.185 . S
C181 O193 1.355 . S
C182 O184 1.185 . S
C182 O185 1.355 . S
Dy183 O187 2.310 . S
Dy183 O190 2.351 . S
Dy183 O192 2.398 . S
Dy183 O193 2.491 . S
Dy183 O194 2.403 . S
Dy183 O195 2.664 . S
Dy183 O197 2.326 . S
O184 Dy180 2.398 . S
O184 C182 1.185 . S
O185 Dy180 2.491 . S
O185 C182 1.355 . S
O186 Dy180 2.403 . S
O186 C188 1.254 . S
O187 Dy180 2.664 . S
O187 Dy183 2.310 . S
O187 C188 1.268 . S
C188 O186 1.254 . S
C188 O187 1.268 . S
C189 O194 1.254 . S
C189 O195 1.268 . S
O190 Dy183 2.351 . S
O190 C198 1.249 . S
O191 Dy180 2.326 . S
O191 C198 1.267 . S
O192 C181 1.185 . S
O192 Dy183 2.398 . S
O193 C181 1.355 . S
O193 Dy183 2.491 . S
O194 Dy183 2.403 . S
O194 C189 1.254 . S
O195 Dy180 2.310 . S
O195 Dy183 2.664 . S
O195 C189 1.268 . S
O196 Dy180 2.351 . S
O196 C199 1.249 . S
O197 Dy183 2.326 . S
O197 C199 1.267 . S
C198 O190 1.249 . S
C198 O191 1.267 . S
C199 O196 1.249 . S
C199 O197 1.267 . S
Dy200 O204 2.398 . S
Dy200 O205 2.491 . S
Dy200 O206 2.403 . S
Dy200 O207 2.664 . S
Dy200 O211 2.326 . S
Dy200 O215 2.310 . S
Dy200 O216 2.351 . S
C201 O212 1.185 . S
C201 O213 1.355 . S
C202 O204 1.185 . S
C202 O205 1.355 . S
Dy203 O207 2.310 . S
Dy203 O210 2.351 . S
Dy203 O212 2.398 . S
Dy203 O213 2.491 . S
Dy203 O214 2.403 . S
Dy203 O215 2.664 . S
Dy203 O217 2.326 . S
O204 Dy200 2.398 . S
O204 C202 1.185 . S
O205 Dy200 2.491 . S
O205 C202 1.355 . S
O206 Dy200 2.403 . S
O206 C208 1.254 . S
O207 Dy200 2.664 . S
O207 Dy203 2.310 . S
O207 C208 1.268 . S
C208 O206 1.254 . S
C208 O207 1.268 . S
C209 O214 1.254 . S
C209 O215 1.268 . S
O210 Dy203 2.351 . S
O210 C218 1.249 . S
O211 Dy200 2.326 . S
O211 C218 1.267 . S
O212 C201 1.185 . S
O212 Dy203 2.398 . S
O213 C201 1.355 . S
O213 Dy203 2.491 . S
O214 Dy203 2.403 . S
O214 C209 1.254 . S
O215 Dy200 2.310 . S
O215 Dy203 2.664 . S
O215 C209 1.268 . S
O216 Dy200 2.351 . S
O216 C219 1.249 . S
O217 Dy203 2.326 . S
O217 C219 1.267 . S
C218 O210 1.249 . S
C218 O211 1.267 . S
C219 O216 1.249 . S
C219 O217 1.267 . S
Dy220 O224 2.398 . S
Dy220 O225 2.491 . S
Dy220 O226 2.403 . S
Dy220 O227 2.664 . S
Dy220 O231 2.326 . S
Dy220 O235 2.310 . S
Dy220 O236 2.351 . S
C221 O232 1.185 . S
C221 O233 1.355 . S
C222 O224 1.185 . S
C222 O225 1.355 . S
Dy223 O227 2.310 . S
Dy223 O230 2.351 . S
Dy223 O232 2.398 . S
Dy223 O233 2.491 . S
Dy223 O234 2.403 . S
Dy223 O235 2.664 . S
Dy223 O237 2.326 . S
O224 Dy220 2.398 . S
O224 C222 1.185 . S
O225 Dy220 2.491 . S
O225 C222 1.355 . S
O226 Dy220 2.403 . S
O226 C228 1.254 . S
O227 Dy220 2.664 . S
O227 Dy223 2.310 . S
O227 C228 1.268 . S
C228 O226 1.254 . S
C228 O227 1.268 . S
C229 O234 1.254 . S
C229 O235 1.268 . S
O230 Dy223 2.351 . S
O230 C238 1.249 . S
O231 Dy220 2.326 . S
O231 C238 1.267 . S
O232 C221 1.185 . S
O232 Dy223 2.398 . S
O233 C221 1.355 . S
O233 Dy223 2.491 . S
O234 Dy223 2.403 . S
O234 C229 1.254 . S
O235 Dy220 2.310 . S
O235 Dy223 2.664 . S
O235 C229 1.268 . S
O236 Dy220 2.351 . S
O236 C239 1.249 . S
O237 Dy223 2.326 . S
O237 C239 1.267 . S
C238 O230 1.249 . S
C238 O231 1.267 . S
C239 O236 1.249 . S
C239 O237 1.267 . S
Dy240 O244 2.398 . S
Dy240 O245 2.491 . S
Dy240 O246 2.403 . S
Dy240 O247 2.664 . S
Dy240 O251 2.326 . S
Dy240 O255 2.310 . S
Dy240 O256 2.351 . S
C241 O252 1.185 . S
C241 O253 1.355 . S
C242 O244 1.185 . S
C242 O245 1.355 . S
Dy243 O247 2.310 . S
Dy243 O250 2.351 . S
Dy243 O252 2.398 . S
Dy243 O253 2.491 . S
Dy243 O254 2.403 . S
Dy243 O255 2.664 . S
Dy243 O257 2.326 . S
O244 Dy240 2.398 . S
O244 C242 1.185 . S
O245 Dy240 2.491 . S
O245 C242 1.355 . S
O246 Dy240 2.403 . S
O246 C248 1.254 . S
O247 Dy240 2.664 . S
O247 Dy243 2.310 . S
O247 C248 1.268 . S
C248 O246 1.254 . S
C248 O247 1.268 . S
C249 O254 1.254 . S
C249 O255 1.268 . S
O250 Dy243 2.351 . S
O250 C258 1.249 . S
O251 Dy240 2.326 . S
O251 C258 1.267 . S
O252 C241 1.185 . S
O252 Dy243 2.398 . S
O253 C241 1.355 . S
O253 Dy243 2.491 . S
O254 Dy243 2.403 . S
O254 C249 1.254 . S
O255 Dy240 2.310 . S
O255 Dy243 2.664 . S
O255 C249 1.268 . S
O256 Dy240 2.351 . S
O256 C259 1.249 . S
O257 Dy243 2.326 . S
O257 C259 1.267 . S
C258 O250 1.249 . S
C258 O251 1.267 . S
C259 O256 1.249 . S
C259 O257 1.267 . S
Dy260 O264 2.398 . S
Dy260 O265 2.491 . S
Dy260 O266 2.403 . S
Dy260 O267 2.664 . S
Dy260 O271 2.326 . S
Dy260 O275 2.310 . S
Dy260 O276 2.351 . S
C261 O272 1.185 . S
C261 O273 1.355 . S
C262 O264 1.185 . S
C262 O265 1.355 . S
Dy263 O267 2.310 . S
Dy263 O270 2.351 . S
Dy263 O272 2.398 . S
Dy263 O273 2.491 . S
Dy263 O274 2.403 . S
Dy263 O275 2.664 . S
Dy263 O277 2.326 . S
O264 Dy260 2.398 . S
O264 C262 1.185 . S
O265 Dy260 2.491 . S
O265 C262 1.355 . S
O266 Dy260 2.403 . S
O266 C268 1.254 . S
O267 Dy260 2.664 . S
O267 Dy263 2.310 . S
O267 C268 1.268 . S
C268 O266 1.254 . S
C268 O267 1.268 . S
C269 O274 1.254 . S
C269 O275 1.268 . S
O270 Dy263 2.351 . S
O270 C278 1.249 . S
O271 Dy260 2.326 . S
O271 C278 1.267 . S
O272 C261 1.185 . S
O272 Dy263 2.398 . S
O273 C261 1.355 . S
O273 Dy263 2.491 . S
O274 Dy263 2.403 . S
O274 C269 1.254 . S
O275 Dy260 2.310 . S
O275 Dy263 2.664 . S
O275 C269 1.268 . S
O276 Dy260 2.351 . S
O276 C279 1.249 . S
O277 Dy263 2.326 . S
O277 C279 1.267 . S
C278 O270 1.249 . S
C278 O271 1.267 . S
C279 O276 1.249 . S
C279 O277 1.267 . S
Dy280 O284 2.398 . S
Dy280 O285 2.491 . S
Dy280 O286 2.403 . S
Dy280 O287 2.664 . S
Dy280 O291 2.326 . S
Dy280 O295 2.310 . S
Dy280 O296 2.351 . S
C281 O292 1.185 . S
C281 O293 1.355 . S
C282 O284 1.185 . S
C282 O285 1.355 . S
Dy283 O287 2.310 . S
Dy283 O290 2.351 . S
Dy283 O292 2.398 . S
Dy283 O293 2.491 . S
Dy283 O294 2.403 . S
Dy283 O295 2.664 . S
Dy283 O297 2.326 . S
O284 Dy280 2.398 . S
O284 C282 1.185 . S
O285 Dy280 2.491 . S
O285 C282 1.355 . S
O286 Dy280 2.403 . S
O286 C288 1.254 . S
O287 Dy280 2.664 . S
O287 Dy283 2.310 . S
O287 C288 1.268 . S
C288 O286 1.254 . S
C288 O287 1.268 . S
C289 O294 1.254 . S
C289 O295 1.268 . S
O290 Dy283 2.351 . S
O290 C298 1.249 . S
O291 Dy280 2.326 . S
O291 C298 1.267 . S
O292 C281 1.185 . S
O292 Dy283 2.398 . S
O293 C281 1.355 . S
O293 Dy283 2.491 . S
O294 Dy283 2.403 . S
O294 C289 1.254 . S
O295 Dy280 2.310 . S
O295 Dy283 2.664 . S
O295 C289 1.268 . S
O296 Dy280 2.351 . S
O296 C299 1.249 . S
O297 Dy283 2.326 . S
O297 C299 1.267 . S
C298 O290 1.249 . S
C298 O291 1.267 . S
C299 O296 1.249 . S
C299 O297 1.267 . S
Dy300 O304 2.398 . S
Dy300 O305 2.491 . S
Dy300 O306 2.403 . S
Dy300 O307 2.664 . S
Dy300 O311 2.326 . S
Dy300 O315 2.310 . S
Dy300 O316 2.351 . S
C301 O312 1.185 . S
C301 O313 1.355 . S
C302 O304 1.185 . S
C302 O305 1.355 . S
Dy303 O307 2.310 . S
Dy303 O310 2.351 . S
Dy303 O312 2.398 . S
Dy303 O313 2.491 . S
Dy303 O314 2.403 . S
Dy303 O315 2.664 . S
Dy303 O317 2.326 . S
O304 Dy300 2.398 . S
O304 C302 1.185 . S
O305 Dy300 2.491 . S
O305 C302 1.355 . S
O306 Dy300 2.403 . S
O306 C308 1.254 . S
O307 Dy300 2.664 . S
O307 Dy303 2.310 . S
O307 C308 1.268 . S
C308 O306 1.254 . S
C308 O307 1.268 . S
C309 O314 1.254 . S
C309 O315 1.268 . S
O310 Dy303 2.351 . S
O310 C318 1.249 . S
O311 Dy300 2.326 . S
O311 C318 1.267 . S
O312 C301 1.185 . S
O312 Dy303 2.398 . S
O313 C301 1.355 . S
O313 Dy303 2.491 . S
O314 Dy303 2.403 . S
O314 C309 1.254 . S
O315 Dy300 2.310 . S
O315 Dy303 2.664 . S
O315 C309 1.268 . S
O316 Dy300 2.351 . S
O316 C319 1.249 . S
O317 Dy303 2.326 . S
O317 C319 1.267 . S
C318 O310 1.249 . S
C318 O311 1.267 . S
C319 O316 1.249 . S
C319 O317 1.267 . S
H320 C326 0.930 . S
H321 C329 0.930 . S
H322 C330 0.930 . S
H323 C331 0.930 . S
H324 C334 0.930 . S
H325 C335 0.926 1_565 S
C326 H320 0.930 . S
C326 C327 1.355 . S
C326 C328 1.415 . S
C327 C326 1.355 . S
C327 C329 1.419 . S
C328 C326 1.415 . S
C328 C333 1.425 . S
C328 C335 1.402 1_565 S
C329 H321 0.930 . S
C329 C327 1.419 . S
C329 C330 1.362 . S
C330 H322 0.930 . S
C330 C329 1.362 . S
C330 C333 1.409 . S
C331 H323 0.930 . S
C331 C332 1.355 . S
C331 C333 1.415 1_545 S
C332 C331 1.355 . S
C332 C334 1.419 . S
C333 C328 1.425 . S
C333 C330 1.409 . S
C333 C331 1.415 1_565 S
C334 H324 0.930 . S
C334 C332 1.419 . S
C334 C335 1.374 . S
C335 H325 0.926 1_545 S
C335 C328 1.402 1_545 S
C335 C334 1.374 . S
H336 C342 0.930 . S
H337 C345 0.930 . S
H338 C346 0.930 . S
H339 C347 0.930 . S
H340 C350 0.930 . S
H341 C351 0.930 . S
C342 H336 0.930 . S
C342 C343 1.355 . S
C342 C344 1.415 . S
C343 C342 1.355 . S
C343 C345 1.419 . S
C344 C342 1.415 . S
C344 C349 1.425 . S
C344 C351 1.409 . S
C345 H337 0.930 . S
C345 C343 1.419 . S
C345 C346 1.362 . S
C346 H338 0.930 . S
C346 C345 1.362 . S
C346 C349 1.409 . S
C347 H339 0.930 . S
C347 C348 1.355 . S
C347 C349 1.415 1_455 S
C348 C347 1.355 . S
C348 C350 1.419 . S
C349 C344 1.425 . S
C349 C346 1.409 . S
C349 C347 1.415 1_655 S
C350 H340 0.930 . S
C350 C348 1.419 . S
C350 C351 1.362 1_455 S
C351 H341 0.930 . S
C351 C344 1.409 . S
C351 C350 1.362 1_655 S
H352 C358 0.930 . S
H353 C361 0.930 . S
H354 C362 0.930 . S
H355 C363 0.930 . S
H356 C366 0.930 . S
H357 C367 0.930 . S
C358 H352 0.930 . S
C358 C359 1.355 . S
C358 C360 1.415 1_565 S
C359 C358 1.355 . S
C359 C361 1.419 . S
C360 C358 1.415 1_545 S
C360 C365 1.425 . S
C360 C367 1.409 . S
C361 H353 0.930 . S
C361 C359 1.419 . S
C361 C362 1.362 . S
C362 H354 0.930 . S
C362 C361 1.362 . S
C362 C365 1.409 1_565 S
C363 H355 0.930 . S
C363 C364 1.355 . S
C363 C365 1.415 . S
C364 C363 1.355 . S
C364 C366 1.419 . S
C365 C360 1.425 . S
C365 C362 1.409 1_545 S
C365 C363 1.415 . S
C366 H356 0.930 . S
C366 C364 1.419 . S
C366 C367 1.362 . S
C367 H357 0.930 . S
C367 C360 1.409 . S
C367 C366 1.362 . S
H368 C374 0.930 . S
H369 C377 0.930 . S
H370 C378 0.930 . S
H371 C379 0.930 . S
H372 C382 0.930 . S
H373 C383 0.930 . S
C374 H368 0.930 . S
C374 C375 1.355 . S
C374 C376 1.415 1_655 S
C375 C374 1.355 . S
C375 C377 1.419 . S
C376 C374 1.415 1_455 S
C376 C381 1.425 . S
C376 C383 1.409 . S
C377 H369 0.930 . S
C377 C375 1.419 . S
C377 C378 1.362 . S
C378 H370 0.930 . S
C378 C377 1.362 . S
C378 C381 1.409 1_655 S
C379 H371 0.930 . S
C379 C380 1.355 . S
C379 C381 1.415 . S
C380 C379 1.355 . S
C380 C382 1.419 . S
C381 C376 1.425 . S
C381 C378 1.409 1_455 S
C381 C379 1.415 . S
C382 H372 0.930 . S
C382 C380 1.419 . S
C382 C383 1.362 . S
C383 H373 0.930 . S
C383 C376 1.409 . S
C383 C382 1.362 . S
H384 C390 0.930 . S
H385 C393 0.930 . S
H386 C394 0.930 . S
H387 C395 0.930 . S
H388 C398 0.930 . S
H389 C399 0.930 . S
C390 H384 0.930 . S
C390 C391 1.355 . S
C390 C392 1.415 . S
C391 C390 1.355 . S
C391 C393 1.419 1_554 S
C392 C390 1.415 . S
C392 C397 1.425 1_554 S
C392 C399 1.409 . S
C393 H385 0.930 . S
C393 C391 1.419 1_556 S
C393 C394 1.362 . S
C394 H386 0.930 . S
C394 C393 1.362 . S
C394 C397 1.409 . S
C395 H387 0.930 . S
C395 C396 1.355 . S
C395 C397 1.415 . S
C396 C395 1.355 . S
C396 C398 1.419 1_556 S
C397 C392 1.425 1_556 S
C397 C394 1.409 . S
C397 C395 1.415 . S
C398 H388 0.930 . S
C398 C396 1.419 1_554 S
C398 C399 1.362 . S
C399 H389 0.930 . S
C399 C392 1.409 . S
C399 C398 1.362 . S
H400 C406 0.930 . S
H401 C409 0.930 . S
H402 C410 0.930 . S
H403 C411 0.930 . S
H404 C414 0.930 . S
H405 C415 0.930 . S
C406 H400 0.930 . S
C406 C407 1.355 . S
C406 C408 1.415 . S
C407 C406 1.355 . S
C407 C409 1.419 1_554 S
C408 C406 1.415 . S
C408 C413 1.425 1_554 S
C408 C415 1.409 . S
C409 H401 0.930 . S
C409 C407 1.419 1_556 S
C409 C410 1.362 . S
C410 H402 0.930 . S
C410 C409 1.362 . S
C410 C413 1.409 . S
C411 H403 0.930 . S
C411 C412 1.355 . S
C411 C413 1.415 . S
C412 C411 1.355 . S
C412 C414 1.419 1_556 S
C413 C408 1.425 1_556 S
C413 C410 1.409 . S
C413 C411 1.415 . S
C414 H404 0.930 . S
C414 C412 1.419 1_554 S
C414 C415 1.362 . S
C415 H405 0.930 . S
C415 C408 1.409 . S
C415 C414 1.362 . S
H416 C422 0.930 . S
H417 C425 0.930 . S
H418 C426 0.930 . S
H419 C427 0.930 . S
H420 C430 0.930 . S
H421 C431 0.930 . S
C422 H416 0.930 . S
C422 C423 1.355 . S
C422 C424 1.415 . S
C423 C422 1.355 . S
C423 C425 1.419 . S
C424 C422 1.415 . S
C424 C429 1.425 . S
C424 C431 1.409 . S
C425 H417 0.930 . S
C425 C423 1.419 . S
C425 C426 1.362 . S
C426 H418 0.930 . S
C426 C425 1.362 . S
C426 C429 1.409 . S
C427 H419 0.930 . S
C427 C428 1.355 1_554 S
C427 C429 1.415 . S
C428 C427 1.355 1_556 S
C428 C430 1.419 . S
C429 C424 1.425 . S
C429 C426 1.409 . S
C429 C427 1.415 . S
C430 H420 0.930 . S
C430 C428 1.419 . S
C430 C431 1.362 1_556 S
C431 H421 0.930 . S
C431 C424 1.409 . S
C431 C430 1.362 1_554 S
H432 C438 0.930 . S
H433 C441 0.930 . S
H434 C442 0.930 . S
H435 C443 0.930 1_554 S
H436 C446 0.930 . S
H437 C447 0.930 . S
C438 H432 0.930 . S
C438 C439 1.355 1_556 S
C438 C440 1.415 . S
C439 C438 1.355 1_554 S
C439 C441 1.419 . S
C440 C438 1.415 . S
C440 C445 1.425 . S
C440 C447 1.409 . S
C441 H433 0.930 . S
C441 C439 1.419 . S
C441 C442 1.362 . S
C442 H434 0.930 . S
C442 C441 1.362 . S
C442 C445 1.409 1_554 S
C443 H435 0.930 1_556 S
C443 C444 1.355 . S
C443 C445 1.415 . S
C444 C443 1.355 . S
C444 C446 1.419 . S
C445 C440 1.425 . S
C445 C442 1.409 1_556 S
C445 C443 1.415 . S
C446 H436 0.930 . S
C446 C444 1.419 . S
C446 C447 1.362 . S
C447 H437 0.930 . S
C447 C440 1.409 . S
C447 C446 1.362 . S
H448 C454 0.930 . S
H449 C457 0.930 . S
H450 C458 0.930 . S
H451 C459 0.930 . S
H452 C462 0.930 . S
H453 C463 0.930 . S
C454 H448 0.930 . S
C454 C455 1.355 . S
C454 C456 1.415 . S
C455 C454 1.355 . S
C455 C457 1.419 . S
C456 C454 1.415 . S
C456 C461 1.425 . S
C456 C463 1.409 . S
C457 H449 0.930 . S
C457 C455 1.419 . S
C457 C458 1.362 . S
C458 H450 0.930 . S
C458 C457 1.362 . S
C458 C461 1.409 . S
C459 H451 0.930 . S
C459 C460 1.355 . S
C459 C461 1.415 . S
C460 C459 1.355 . S
C460 C462 1.419 . S
C461 C456 1.425 . S
C461 C458 1.409 . S
C461 C459 1.415 . S
C462 H452 0.930 . S
C462 C460 1.419 . S
C462 C463 1.362 . S
C463 H453 0.930 . S
C463 C456 1.409 . S
C463 C462 1.362 . S
H464 C470 0.930 . S
H465 C473 0.930 . S
H466 C474 0.930 . S
H467 C475 0.930 . S
H468 C478 0.930 . S
H469 C479 0.930 . S
C470 H464 0.930 . S
C470 C471 1.355 . S
C470 C472 1.415 . S
C471 C470 1.355 . S
C471 C473 1.419 . S
C472 C470 1.415 . S
C472 C477 1.425 . S
C472 C479 1.409 . S
C473 H465 0.930 . S
C473 C471 1.419 . S
C473 C474 1.362 . S
C474 H466 0.930 . S
C474 C473 1.362 . S
C474 C477 1.409 . S
C475 H467 0.930 . S
C475 C476 1.355 . S
C475 C477 1.415 . S
C476 C475 1.355 . S
C476 C478 1.419 . S
C477 C472 1.425 . S
C477 C474 1.409 . S
C477 C475 1.415 . S
C478 H468 0.930 . S
C478 C476 1.419 . S
C478 C479 1.362 . S
C479 H469 0.930 . S
C479 C472 1.409 . S
C479 C478 1.362 . S
H480 C486 0.930 . S
H481 C489 0.930 . S
H482 C490 0.930 . S
H483 C491 0.930 . S
H484 C494 0.930 . S
H485 C495 0.930 . S
C486 H480 0.930 . S
C486 C487 1.355 . S
C486 C488 1.415 . S
C487 C486 1.355 . S
C487 C489 1.419 . S
C488 C486 1.415 . S
C488 C493 1.425 . S
C488 C495 1.409 . S
C489 H481 0.930 . S
C489 C487 1.419 . S
C489 C490 1.362 . S
C490 H482 0.930 . S
C490 C489 1.362 . S
C490 C493 1.409 . S
C491 H483 0.930 . S
C491 C492 1.355 . S
C491 C493 1.415 . S
C492 C491 1.355 . S
C492 C494 1.419 . S
C493 C488 1.425 . S
C493 C490 1.409 . S
C493 C491 1.415 . S
C494 H484 0.930 . S
C494 C492 1.419 . S
C494 C495 1.362 . S
C495 H485 0.930 . S
C495 C488 1.409 . S
C495 C494 1.362 . S
H496 C502 0.930 . S
H497 C505 0.930 . S
H498 C506 0.930 . S
H499 C507 0.930 . S
H500 C510 0.930 . S
H501 C511 0.930 . S
C502 H496 0.930 . S
C502 C503 1.355 . S
C502 C504 1.415 . S
C503 C502 1.355 . S
C503 C505 1.419 . S
C504 C502 1.415 . S
C504 C509 1.425 . S
C504 C511 1.409 . S
C505 H497 0.930 . S
C505 C503 1.419 . S
C505 C506 1.362 . S
C506 H498 0.930 . S
C506 C505 1.362 . S
C506 C509 1.409 . S
C507 H499 0.930 . S
C507 C508 1.355 . S
C507 C509 1.415 . S
C508 C507 1.355 . S
C508 C510 1.419 . S
C509 C504 1.425 . S
C509 C506 1.409 . S
C509 C507 1.415 . S
C510 H500 0.930 . S
C510 C508 1.419 . S
C510 C511 1.362 . S
C511 H501 0.930 . S
C511 C504 1.409 . S
C511 C510 1.362 . S
H512 C518 0.930 . S
H513 C521 0.930 . S
H514 C522 0.930 . S
H515 C523 0.930 . S
H516 C526 0.930 . S
H517 C527 0.930 . S
C518 H512 0.930 . S
C518 C519 1.355 . S
C518 C520 1.415 1_565 S
C519 C518 1.355 . S
C519 C521 1.419 . S
C520 C518 1.415 1_545 S
C520 C525 1.425 . S
C520 C527 1.409 . S
C521 H513 0.930 . S
C521 C519 1.419 . S
C521 C522 1.362 . S
C522 H514 0.930 . S
C522 C521 1.362 . S
C522 C525 1.409 1_565 S
C523 H515 0.930 . S
C523 C524 1.355 . S
C523 C525 1.415 . S
C524 C523 1.355 . S
C524 C526 1.419 . S
C525 C520 1.425 . S
C525 C522 1.409 1_545 S
C525 C523 1.415 . S
C526 H516 0.930 . S
C526 C524 1.419 . S
C526 C527 1.362 . S
C527 H517 0.930 . S
C527 C520 1.409 . S
C527 C526 1.362 . S
H528 C534 0.930 . S
H529 C537 0.930 . S
H530 C538 0.930 . S
H531 C539 0.930 . S
H532 C542 0.930 . S
H533 C543 0.930 . S
C534 H528 0.930 . S
C534 C535 1.355 . S
C534 C536 1.415 . S
C535 C534 1.355 . S
C535 C537 1.419 . S
C536 C534 1.415 . S
C536 C541 1.425 . S
C536 C543 1.409 1_455 S
C537 H529 0.930 . S
C537 C535 1.419 . S
C537 C538 1.362 . S
C538 H530 0.930 . S
C538 C537 1.362 . S
C538 C541 1.409 . S
C539 H531 0.930 . S
C539 C540 1.355 . S
C539 C541 1.415 1_655 S
C540 C539 1.355 . S
C540 C542 1.419 . S
C541 C536 1.425 . S
C541 C538 1.409 . S
C541 C539 1.415 1_455 S
C542 H532 0.930 . S
C542 C540 1.419 . S
C542 C543 1.362 . S
C543 H533 0.930 . S
C543 C536 1.409 1_655 S
C543 C542 1.362 . S
H544 C550 0.930 . S
H545 C553 0.930 . S
H546 C554 0.930 . S
H547 C555 0.930 . S
H548 C558 0.930 . S
H549 C559 0.944 . S
C550 H544 0.930 . S
C550 C551 1.355 . S
C550 C552 1.415 . S
C551 C550 1.355 . S
C551 C553 1.419 . S
C552 C550 1.415 . S
C552 C557 1.425 . S
C552 C559 1.426 . S
C553 H545 0.930 . S
C553 C551 1.419 . S
C553 C554 1.362 . S
C554 H546 0.930 . S
C554 C553 1.362 . S
C554 C557 1.409 . S
C555 H547 0.930 . S
C555 C556 1.355 . S
C555 C557 1.415 1_545 S
C556 C555 1.355 . S
C556 C558 1.419 . S
C557 C552 1.425 . S
C557 C554 1.409 . S
C557 C555 1.415 1_565 S
C558 H548 0.930 . S
C558 C556 1.419 . S
C558 C559 1.333 1_545 S
C559 H549 0.944 . S
C559 C552 1.426 . S
C559 C558 1.333 1_565 S
H560 C566 0.930 . S
H561 C569 0.930 . S
H562 C570 0.930 . S
H563 C571 0.930 . S
H564 C574 0.930 . S
H565 C575 0.930 . S
C566 H560 0.930 . S
C566 C567 1.355 . S
C566 C568 1.415 1_455 S
C567 C566 1.355 . S
C567 C569 1.419 . S
C568 C566 1.415 1_655 S
C568 C573 1.425 . S
C568 C575 1.409 . S
C569 H561 0.930 . S
C569 C567 1.419 . S
C569 C570 1.362 1_455 S
C570 H562 0.930 . S
C570 C569 1.362 1_655 S
C570 C573 1.409 . S
C571 H563 0.930 . S
C571 C572 1.355 . S
C571 C573 1.415 . S
C572 C571 1.355 . S
C572 C574 1.419 . S
C573 C568 1.425 . S
C573 C570 1.409 . S
C573 C571 1.415 . S
C574 H564 0.930 . S
C574 C572 1.419 . S
C574 C575 1.362 . S
C575 H565 0.930 . S
C575 C568 1.409 . S
C575 C574 1.362 . S
H576 C582 0.930 . S
H577 C585 0.930 . S
H578 C586 0.930 . S
H579 C587 0.930 . S
H580 C590 0.930 . S
H581 C591 0.930 . S
C582 H576 0.930 . S
C582 C583 1.355 . S
C582 C584 1.415 . S
C583 C582 1.355 . S
C583 C585 1.419 . S
C584 C582 1.415 . S
C584 C589 1.425 . S
C584 C591 1.409 . S
C585 H577 0.930 . S
C585 C583 1.419 . S
C585 C586 1.362 . S
C586 H578 0.930 . S
C586 C585 1.362 . S
C586 C589 1.409 . S
C587 H579 0.930 . S
C587 C588 1.355 . S
C587 C589 1.415 . S
C588 C587 1.355 . S
C588 C590 1.419 . S
C589 C584 1.425 . S
C589 C586 1.409 . S
C589 C587 1.415 . S
C590 H580 0.930 . S
C590 C588 1.419 . S
C590 C591 1.362 . S
C591 H581 0.930 . S
C591 C584 1.409 . S
C591 C590 1.362 . S
H592 C598 0.930 . S
H593 C601 0.930 . S
H594 C602 0.930 . S
H595 C603 0.930 . S
H596 C606 0.930 . S
H597 C607 0.930 . S
C598 H592 0.930 . S
C598 C599 1.355 . S
C598 C600 1.415 . S
C599 C598 1.355 . S
C599 C601 1.419 . S
C600 C598 1.415 . S
C600 C605 1.425 . S
C600 C607 1.409 . S
C601 H593 0.930 . S
C601 C599 1.419 . S
C601 C602 1.362 . S
C602 H594 0.930 . S
C602 C601 1.362 . S
C602 C605 1.409 . S
C603 H595 0.930 . S
C603 C604 1.355 . S
C603 C605 1.415 . S
C604 C603 1.355 . S
C604 C606 1.419 . S
C605 C600 1.425 . S
C605 C602 1.409 . S
C605 C603 1.415 . S
C606 H596 0.930 . S
C606 C604 1.419 . S
C606 C607 1.362 . S
C607 H597 0.930 . S
C607 C600 1.409 . S
C607 C606 1.362 . S
H608 C614 0.930 . S
H609 C617 0.930 . S
H610 C618 0.930 . S
H611 C619 0.930 . S
H612 C622 0.930 . S
H613 C623 0.930 . S
C614 H608 0.930 . S
C614 C615 1.355 . S
C614 C616 1.415 . S
C615 C614 1.355 . S
C615 C617 1.419 . S
C616 C614 1.415 . S
C616 C621 1.425 . S
C616 C623 1.409 . S
C617 H609 0.930 . S
C617 C615 1.419 . S
C617 C618 1.362 . S
C618 H610 0.930 . S
C618 C617 1.362 . S
C618 C621 1.409 . S
C619 H611 0.930 . S
C619 C620 1.355 . S
C619 C621 1.415 . S
C620 C619 1.355 . S
C620 C622 1.419 . S
C621 C616 1.425 . S
C621 C618 1.409 . S
C621 C619 1.415 . S
C622 H612 0.930 . S
C622 C620 1.419 . S
C622 C623 1.362 . S
C623 H613 0.930 . S
C623 C616 1.409 . S
C623 C622 1.362 . S
H624 C630 0.930 . S
H625 C633 0.930 . S
H626 C634 0.930 . S
H627 C635 0.930 . S
H628 C638 0.930 . S
H629 C639 0.930 . S
C630 H624 0.930 . S
C630 C631 1.355 . S
C630 C632 1.415 . S
C631 C630 1.355 . S
C631 C633 1.419 . S
C632 C630 1.415 . S
C632 C637 1.425 . S
C632 C639 1.409 . S
C633 H625 0.930 . S
C633 C631 1.419 . S
C633 C634 1.362 . S
C634 H626 0.930 . S
C634 C633 1.362 . S
C634 C637 1.409 . S
C635 H627 0.930 . S
C635 C636 1.355 . S
C635 C637 1.415 . S
C636 C635 1.355 . S
C636 C638 1.419 . S
C637 C632 1.425 . S
C637 C634 1.409 . S
C637 C635 1.415 . S
C638 H628 0.930 . S
C638 C636 1.419 . S
C638 C639 1.362 . S
C639 H629 0.930 . S
C639 C632 1.409 . S
C639 C638 1.362 . S
H640 C646 0.930 . S
H641 C649 0.930 . S
H642 C650 0.930 . S
H643 C651 0.930 . S
H644 C654 0.930 . S
H645 C655 0.930 . S
C646 H640 0.930 . S
C646 C647 1.355 . S
C646 C648 1.415 . S
C647 C646 1.355 . S
C647 C649 1.419 . S
C648 C646 1.415 . S
C648 C653 1.425 . S
C648 C655 1.409 . S
C649 H641 0.930 . S
C649 C647 1.419 . S
C649 C650 1.362 . S
C650 H642 0.930 . S
C650 C649 1.362 . S
C650 C653 1.409 . S
C651 H643 0.930 . S
C651 C652 1.355 . S
C651 C653 1.415 . S
C652 C651 1.355 . S
C652 C654 1.419 . S
C653 C648 1.425 . S
C653 C650 1.409 . S
C653 C651 1.415 . S
C654 H644 0.930 . S
C654 C652 1.419 . S
C654 C655 1.362 . S
C655 H645 0.930 . S
C655 C648 1.409 . S
C655 C654 1.362 . S
H656 C662 0.930 . S
H657 C665 0.930 . S
H658 C666 0.930 . S
H659 C667 0.930 . S
H660 C670 0.930 . S
H661 C671 0.930 . S
C662 H656 0.930 . S
C662 C663 1.355 . S
C662 C664 1.415 . S
C663 C662 1.355 . S
C663 C665 1.419 . S
C664 C662 1.415 . S
C664 C669 1.425 . S
C664 C671 1.409 . S
C665 H657 0.930 . S
C665 C663 1.419 . S
C665 C666 1.362 . S
C666 H658 0.930 . S
C666 C665 1.362 . S
C666 C669 1.409 . S
C667 H659 0.930 . S
C667 C668 1.355 . S
C667 C669 1.415 . S
C668 C667 1.355 . S
C668 C670 1.419 . S
C669 C664 1.425 . S
C669 C666 1.409 . S
C669 C667 1.415 . S
C670 H660 0.930 . S
C670 C668 1.419 . S
C670 C671 1.362 . S
C671 H661 0.930 . S
C671 C664 1.409 . S
C671 C670 1.362 . S
H672 C678 0.930 . S
H673 C681 0.930 . S
H674 C682 0.930 . S
H675 C683 0.930 . S
H676 C686 0.930 . S
H677 C687 0.930 . S
C678 H672 0.930 . S
C678 C679 1.355 . S
C678 C680 1.415 . S
C679 C678 1.355 . S
C679 C681 1.419 . S
C680 C678 1.415 . S
C680 C685 1.425 . S
C680 C687 1.409 . S
C681 H673 0.930 . S
C681 C679 1.419 . S
C681 C682 1.362 . S
C682 H674 0.930 . S
C682 C681 1.362 . S
C682 C685 1.409 . S
C683 H675 0.930 . S
C683 C684 1.355 . S
C683 C685 1.415 . S
C684 C683 1.355 . S
C684 C686 1.419 . S
C685 C680 1.425 . S
C685 C682 1.409 . S
C685 C683 1.415 . S
C686 H676 0.930 . S
C686 C684 1.419 . S
C686 C687 1.362 . S
C687 H677 0.930 . S
C687 C680 1.409 . S
C687 C686 1.362 . S
H688 C694 0.930 . S
H689 C697 0.930 . S
H690 C698 0.930 . S
H691 C699 0.930 . S
H692 C702 0.930 . S
H693 C703 0.930 . S
C694 H688 0.930 . S
C694 C695 1.355 . S
C694 C696 1.415 . S
C695 C694 1.355 . S
C695 C697 1.419 . S
C696 C694 1.415 . S
C696 C701 1.425 . S
C696 C703 1.409 . S
C697 H689 0.930 . S
C697 C695 1.419 . S
C697 C698 1.362 . S
C698 H690 0.930 . S
C698 C697 1.362 . S
C698 C701 1.409 . S
C699 H691 0.930 . S
C699 C700 1.355 . S
C699 C701 1.415 . S
C700 C699 1.355 . S
C700 C702 1.419 . S
C701 C696 1.425 . S
C701 C698 1.409 . S
C701 C699 1.415 . S
C702 H692 0.930 . S
C702 C700 1.419 . S
C702 C703 1.362 . S
C703 H693 0.930 . S
C703 C696 1.409 . S
C703 C702 1.362 . S
H704 C710 0.930 . S
H705 C713 0.930 . S
H706 C714 0.930 . S
H707 C715 0.930 . S
H708 C718 0.930 . S
H709 C719 0.930 . S
C710 H704 0.930 . S
C710 C711 1.355 . S
C710 C712 1.415 . S
C711 C710 1.355 . S
C711 C713 1.419 . S
C712 C710 1.415 . S
C712 C717 1.425 . S
C712 C719 1.409 . S
C713 H705 0.930 . S
C713 C711 1.419 . S
C713 C714 1.362 . S
C714 H706 0.930 . S
C714 C713 1.362 . S
C714 C717 1.409 . S
C715 H707 0.930 . S
C715 C716 1.355 . S
C715 C717 1.415 . S
C716 C715 1.355 . S
C716 C718 1.419 1_556 S
C717 C712 1.425 . S
C717 C714 1.409 . S
C717 C715 1.415 . S
C718 H708 0.930 . S
C718 C716 1.419 1_554 S
C718 C719 1.362 1_554 S
C719 H709 0.930 . S
C719 C712 1.409 . S
C719 C718 1.362 1_556 S
H720 C726 0.930 1_556 S
H721 C729 0.930 . S
H722 C730 0.930 . S
H723 C731 0.930 . S
H724 C734 0.930 . S
H725 C735 0.930 . S
C726 H720 0.930 1_554 S
C726 C727 1.355 . S
C726 C728 1.415 . S
C727 C726 1.355 . S
C727 C729 1.419 . S
C728 C726 1.415 . S
C728 C733 1.425 . S
C728 C735 1.409 . S
C729 H721 0.930 . S
C729 C727 1.419 . S
C729 C730 1.362 . S
C730 H722 0.930 . S
C730 C729 1.362 . S
C730 C733 1.409 . S
C731 H723 0.930 . S
C731 C732 1.355 . S
C731 C733 1.415 . S
C732 C731 1.355 . S
C732 C734 1.419 . S
C733 C728 1.425 . S
C733 C730 1.409 . S
C733 C731 1.415 . S
C734 H724 0.930 . S
C734 C732 1.419 . S
C734 C735 1.362 . S
C735 H725 0.930 . S
C735 C728 1.409 . S
C735 C734 1.362 . S
H736 C742 0.930 . S
H737 C745 0.930 . S
H738 C746 0.930 . S
H739 C747 0.930 . S
H740 C750 0.930 . S
H741 C751 0.930 . S
C742 H736 0.930 . S
C742 C743 1.355 . S
C742 C744 1.415 . S
C743 C742 1.355 . S
C743 C745 1.419 . S
C744 C742 1.415 . S
C744 C749 1.425 . S
C744 C751 1.409 . S
C745 H737 0.930 . S
C745 C743 1.419 . S
C745 C746 1.362 . S
C746 H738 0.930 . S
C746 C745 1.362 . S
C746 C749 1.409 . S
C747 H739 0.930 . S
C747 C748 1.355 . S
C747 C749 1.415 . S
C748 C747 1.355 . S
C748 C750 1.419 . S
C749 C744 1.425 . S
C749 C746 1.409 . S
C749 C747 1.415 . S
C750 H740 0.930 . S
C750 C748 1.419 . S
C750 C751 1.362 . S
C751 H741 0.930 . S
C751 C744 1.409 . S
C751 C750 1.362 . S
H752 C758 0.930 . S
H753 C761 0.930 . S
H754 C762 0.930 1_556 S
H755 C763 0.930 . S
H756 C766 0.930 . S
H757 C767 0.930 . S
C758 H752 0.930 . S
C758 C759 1.355 . S
C758 C760 1.415 . S
C759 C758 1.355 . S
C759 C761 1.419 1_554 S
C760 C758 1.415 . S
C760 C765 1.425 . S
C760 C767 1.409 . S
C761 H753 0.930 . S
C761 C759 1.419 1_556 S
C761 C762 1.362 1_556 S
C762 H754 0.930 1_554 S
C762 C761 1.362 1_554 S
C762 C765 1.409 . S
C763 H755 0.930 . S
C763 C764 1.355 . S
C763 C765 1.415 . S
C764 C763 1.355 . S
C764 C766 1.419 . S
C765 C760 1.425 . S
C765 C762 1.409 . S
C765 C763 1.415 . S
C766 H756 0.930 . S
C766 C764 1.419 . S
C766 C767 1.362 . S
C767 H757 0.930 . S
C767 C760 1.409 . S
C767 C766 1.362 . S
H768 C774 0.930 . S
H769 C777 0.930 . S
H770 C778 0.930 . S
H771 C779 0.930 . S
H772 C782 0.930 . S
H773 C783 0.930 . S
C774 H768 0.930 . S
C774 C775 1.355 . S
C774 C776 1.415 . S
C775 C774 1.355 . S
C775 C777 1.419 . S
C776 C774 1.415 . S
C776 C781 1.425 . S
C776 C783 1.409 . S
C777 H769 0.930 . S
C777 C775 1.419 . S
C777 C778 1.362 . S
C778 H770 0.930 . S
C778 C777 1.362 . S
C778 C781 1.409 . S
C779 H771 0.930 . S
C779 C780 1.355 . S
C779 C781 1.415 . S
C780 C779 1.355 . S
C780 C782 1.419 . S
C781 C776 1.425 . S
C781 C778 1.409 . S
C781 C779 1.415 . S
C782 H772 0.930 . S
C782 C780 1.419 . S
C782 C783 1.362 . S
C783 H773 0.930 . S
C783 C776 1.409 . S
C783 C782 1.362 . S
H784 C790 0.930 . S
H785 C793 0.930 . S
H786 C794 0.930 . S
H787 C795 0.930 . S
H788 C798 0.930 . S
H789 C799 0.930 . S
C790 H784 0.930 . S
C790 C791 1.355 . S
C790 C792 1.415 . S
C791 C790 1.355 . S
C791 C793 1.419 . S
C792 C790 1.415 . S
C792 C797 1.425 . S
C792 C799 1.409 . S
C793 H785 0.930 . S
C793 C791 1.419 . S
C793 C794 1.362 . S
C794 H786 0.930 . S
C794 C793 1.362 . S
C794 C797 1.409 . S
C795 H787 0.930 . S
C795 C796 1.355 . S
C795 C797 1.415 . S
C796 C795 1.355 . S
C796 C798 1.419 . S
C797 C792 1.425 . S
C797 C794 1.409 . S
C797 C795 1.415 . S
C798 H788 0.930 . S
C798 C796 1.419 . S
C798 C799 1.362 . S
C799 H789 0.930 . S
C799 C792 1.409 . S
C799 C798 1.362 . S
H800 C806 0.930 . S
H801 C809 0.930 . S
H802 C810 0.930 . S
H803 C811 0.930 . S
H804 C814 0.930 . S
H805 C815 0.930 . S
C806 H800 0.930 . S
C806 C807 1.355 . S
C806 C808 1.415 . S
C807 C806 1.355 . S
C807 C809 1.419 . S
C808 C806 1.415 . S
C808 C813 1.425 . S
C808 C815 1.409 . S
C809 H801 0.930 . S
C809 C807 1.419 . S
C809 C810 1.362 . S
C810 H802 0.930 . S
C810 C809 1.362 . S
C810 C813 1.409 . S
C811 H803 0.930 . S
C811 C812 1.355 . S
C811 C813 1.415 . S
C812 C811 1.355 . S
C812 C814 1.419 . S
C813 C808 1.425 . S
C813 C810 1.409 . S
C813 C811 1.415 . S
C814 H804 0.930 . S
C814 C812 1.419 . S
C814 C815 1.362 . S
C815 H805 0.930 . S
C815 C808 1.409 . S
C815 C814 1.362 . S
H816 C822 0.930 . S
H817 C825 0.930 . S
H818 C826 0.930 . S
H819 C827 0.930 . S
H820 C830 0.930 . S
H821 C831 0.930 . S
C822 H816 0.930 . S
C822 C823 1.355 . S
C822 C824 1.415 . S
C823 C822 1.355 . S
C823 C825 1.419 . S
C824 C822 1.415 . S
C824 C829 1.425 . S
C824 C831 1.409 . S
C825 H817 0.930 . S
C825 C823 1.419 . S
C825 C826 1.362 . S
C826 H818 0.930 . S
C826 C825 1.362 . S
C826 C829 1.409 . S
C827 H819 0.930 . S
C827 C828 1.355 . S
C827 C829 1.415 . S
C828 C827 1.355 . S
C828 C830 1.419 . S
C829 C824 1.425 . S
C829 C826 1.409 . S
C829 C827 1.415 . S
C830 H820 0.930 . S
C830 C828 1.419 . S
C830 C831 1.362 . S
C831 H821 0.930 . S
C831 C824 1.409 . S
C831 C830 1.362 . S
H832 C838 0.930 . S
H833 C841 0.930 . S
H834 C842 0.930 . S
H835 C843 0.930 . S
H836 C846 0.930 . S
H837 C847 0.930 . S
C838 H832 0.930 . S
C838 C839 1.355 . S
C838 C840 1.415 . S
C839 C838 1.355 . S
C839 C841 1.419 . S
C840 C838 1.415 . S
C840 C845 1.425 . S
C840 C847 1.409 . S
C841 H833 0.930 . S
C841 C839 1.419 . S
C841 C842 1.362 . S
C842 H834 0.930 . S
C842 C841 1.362 . S
C842 C845 1.409 . S
C843 H835 0.930 . S
C843 C844 1.355 . S
C843 C845 1.415 . S
C844 C843 1.355 . S
C844 C846 1.419 . S
C845 C840 1.425 . S
C845 C842 1.409 . S
C845 C843 1.415 . S
C846 H836 0.930 . S
C846 C844 1.419 . S
C846 C847 1.362 . S
C847 H837 0.930 . S
C847 C840 1.409 . S
C847 C846 1.362 . S
H848 C854 0.930 . S
H849 C857 0.930 . S
H850 C858 0.930 . S
H851 C859 0.930 . S
H852 C862 0.930 . S
H853 C863 0.930 . S
C854 H848 0.930 . S
C854 C855 1.355 . S
C854 C856 1.415 . S
C855 C854 1.355 . S
C855 C857 1.419 . S
C856 C854 1.415 . S
C856 C861 1.425 . S
C856 C863 1.409 . S
C857 H849 0.930 . S
C857 C855 1.419 . S
C857 C858 1.362 . S
C858 H850 0.930 . S
C858 C857 1.362 . S
C858 C861 1.409 . S
C859 H851 0.930 . S
C859 C860 1.355 . S
C859 C861 1.415 . S
C860 C859 1.355 . S
C860 C862 1.419 . S
C861 C856 1.425 . S
C861 C858 1.409 . S
C861 C859 1.415 . S
C862 H852 0.930 . S
C862 C860 1.419 . S
C862 C863 1.362 . S
C863 H853 0.930 . S
C863 C856 1.409 . S
C863 C862 1.362 . S
H864 C870 0.930 . S
H865 C873 0.930 . S
H866 C874 0.930 . S
H867 C875 0.930 . S
H868 C878 0.930 . S
H869 C879 0.930 . S
C870 H864 0.930 . S
C870 C871 1.355 . S
C870 C872 1.415 . S
C871 C870 1.355 . S
C871 C873 1.419 . S
C872 C870 1.415 . S
C872 C877 1.425 . S
C872 C879 1.409 . S
C873 H865 0.930 . S
C873 C871 1.419 . S
C873 C874 1.362 . S
C874 H866 0.930 . S
C874 C873 1.362 . S
C874 C877 1.409 . S
C875 H867 0.930 . S
C875 C876 1.355 . S
C875 C877 1.415 . S
C876 C875 1.355 . S
C876 C878 1.419 . S
C877 C872 1.425 . S
C877 C874 1.409 . S
C877 C875 1.415 . S
C878 H868 0.930 . S
C878 C876 1.419 . S
C878 C879 1.362 . S
C879 H869 0.930 . S
C879 C872 1.409 . S
C879 C878 1.362 . S
H880 C886 0.930 . S
H881 C889 0.930 . S
H882 C890 0.930 . S
H883 C891 0.930 . S
H884 C894 0.930 . S
H885 C895 0.930 . S
C886 H880 0.930 . S
C886 C887 1.355 . S
C886 C888 1.415 . S
C887 C886 1.355 . S
C887 C889 1.419 . S
C888 C886 1.415 . S
C888 C893 1.425 . S
C888 C895 1.409 . S
C889 H881 0.930 . S
C889 C887 1.419 . S
C889 C890 1.362 . S
C890 H882 0.930 . S
C890 C889 1.362 . S
C890 C893 1.409 . S
C891 H883 0.930 . S
C891 C892 1.355 . S
C891 C893 1.415 . S
C892 C891 1.355 . S
C892 C894 1.419 . S
C893 C888 1.425 . S
C893 C890 1.409 . S
C893 C891 1.415 . S
C894 H884 0.930 . S
C894 C892 1.419 . S
C894 C895 1.362 . S
C895 H885 0.930 . S
C895 C888 1.409 . S
C895 C894 1.362 . S
H896 C902 0.930 . S
H897 C905 0.930 . S
H898 C906 0.930 . S
H899 C907 0.930 . S
H900 C910 0.930 . S
H901 C911 0.930 . S
C902 H896 0.930 . S
C902 C903 1.355 . S
C902 C904 1.415 . S
C903 C902 1.355 . S
C903 C905 1.419 . S
C904 C902 1.415 . S
C904 C909 1.425 . S
C904 C911 1.409 . S
C905 H897 0.930 . S
C905 C903 1.419 . S
C905 C906 1.362 . S
C906 H898 0.930 . S
C906 C905 1.362 . S
C906 C909 1.409 . S
C907 H899 0.930 . S
C907 C908 1.355 . S
C907 C909 1.415 . S
C908 C907 1.355 . S
C908 C910 1.419 . S
C909 C904 1.425 . S
C909 C906 1.409 . S
C909 C907 1.415 . S
C910 H900 0.930 . S
C910 C908 1.419 . S
C910 C911 1.362 . S
C911 H901 0.930 . S
C911 C904 1.409 . S
C911 C910 1.362 . S
H912 C918 0.930 . S
H913 C921 0.930 . S
H914 C922 0.930 . S
H915 C923 0.930 . S
H916 C926 0.930 . S
H917 C927 0.930 . S
C918 H912 0.930 . S
C918 C919 1.355 . S
C918 C920 1.415 . S
C919 C918 1.355 . S
C919 C921 1.419 . S
C920 C918 1.415 . S
C920 C925 1.425 . S
C920 C927 1.409 . S
C921 H913 0.930 . S
C921 C919 1.419 . S
C921 C922 1.362 . S
C922 H914 0.930 . S
C922 C921 1.362 . S
C922 C925 1.409 . S
C923 H915 0.930 . S
C923 C924 1.355 . S
C923 C925 1.415 . S
C924 C923 1.355 . S
C924 C926 1.419 . S
C925 C920 1.425 . S
C925 C922 1.409 . S
C925 C923 1.415 . S
C926 H916 0.930 . S
C926 C924 1.419 . S
C926 C927 1.362 . S
C927 H917 0.930 . S
C927 C920 1.409 . S
C927 C926 1.362 . S
H928 C934 0.930 . S
H929 C937 0.930 . S
H930 C938 0.930 . S
H931 C939 0.930 . S
H932 C942 0.930 . S
H933 C943 0.930 . S
C934 H928 0.930 . S
C934 C935 1.355 . S
C934 C936 1.415 . S
C935 C934 1.355 . S
C935 C937 1.419 . S
C936 C934 1.415 . S
C936 C941 1.425 . S
C936 C943 1.409 . S
C937 H929 0.930 . S
C937 C935 1.419 . S
C937 C938 1.362 . S
C938 H930 0.930 . S
C938 C937 1.362 . S
C938 C941 1.409 . S
C939 H931 0.930 . S
C939 C940 1.355 . S
C939 C941 1.415 . S
C940 C939 1.355 . S
C940 C942 1.419 . S
C941 C936 1.425 . S
C941 C938 1.409 . S
C941 C939 1.415 . S
C942 H932 0.930 . S
C942 C940 1.419 . S
C942 C943 1.362 . S
C943 H933 0.930 . S
C943 C936 1.409 . S
C943 C942 1.362 . S
H944 C950 0.930 . S
H945 C953 0.930 . S
H946 C954 0.930 . S
H947 C955 0.930 . S
H948 C958 0.930 . S
H949 C959 0.930 . S
C950 H944 0.930 . S
C950 C951 1.355 . S
C950 C952 1.415 . S
C951 C950 1.355 . S
C951 C953 1.419 . S
C952 C950 1.415 . S
C952 C957 1.425 . S
C952 C959 1.409 . S
C953 H945 0.930 . S
C953 C951 1.419 . S
C953 C954 1.362 . S
C954 H946 0.930 . S
C954 C953 1.362 . S
C954 C957 1.409 . S
C955 H947 0.930 . S
C955 C956 1.355 . S
C955 C957 1.415 . S
C956 C955 1.355 . S
C956 C958 1.419 . S
C957 C952 1.425 . S
C957 C954 1.409 . S
C957 C955 1.415 . S
C958 H948 0.930 . S
C958 C956 1.419 . S
C958 C959 1.362 . S
C959 H949 0.930 . S
C959 C952 1.409 . S
C959 C958 1.362 . S
H960 C966 0.930 . S
H961 C969 0.930 1_556 S
H962 C970 0.930 . S
H963 C971 0.930 . S
H964 C974 0.930 . S
H965 C975 0.930 . S
C966 H960 0.930 . S
C966 C967 1.355 1_554 S
C966 C968 1.415 . S
C967 C966 1.355 1_556 S
C967 C969 1.419 1_556 S
C968 C966 1.415 . S
C968 C973 1.425 . S
C968 C975 1.409 . S
C969 H961 0.930 1_554 S
C969 C967 1.419 1_554 S
C969 C970 1.362 . S
C970 H962 0.930 . S
C970 C969 1.362 . S
C970 C973 1.409 . S
C971 H963 0.930 . S
C971 C972 1.355 . S
C971 C973 1.415 . S
C972 C971 1.355 . S
C972 C974 1.419 . S
C973 C968 1.425 . S
C973 C970 1.409 . S
C973 C971 1.415 . S
C974 H964 0.930 . S
C974 C972 1.419 . S
C974 C975 1.362 . S
C975 H965 0.930 . S
C975 C968 1.409 . S
C975 C974 1.362 . S
H976 C982 0.930 . S
H977 C985 0.930 . S
H978 C986 0.930 . S
H979 C987 0.930 . S
H980 C990 0.930 1_554 S
H981 C991 0.930 . S
C982 H976 0.930 . S
C982 C983 1.355 . S
C982 C984 1.415 . S
C983 C982 1.355 . S
C983 C985 1.419 . S
C984 C982 1.415 . S
C984 C989 1.425 . S
C984 C991 1.409 . S
C985 H977 0.930 . S
C985 C983 1.419 . S
C985 C986 1.362 . S
C986 H978 0.930 . S
C986 C985 1.362 . S
C986 C989 1.409 . S
C987 H979 0.930 . S
C987 C988 1.355 1_556 S
C987 C989 1.415 . S
C988 C987 1.355 1_554 S
C988 C990 1.419 1_554 S
C989 C984 1.425 . S
C989 C986 1.409 . S
C989 C987 1.415 . S
C990 H980 0.930 1_556 S
C990 C988 1.419 1_556 S
C990 C991 1.362 . S
C991 H981 0.930 . S
C991 C984 1.409 . S
C991 C990 1.362 . S
H992 C998 0.930 . S
H993 C1001 0.930 . S
H994 C1002 0.930 . S
H995 C1003 0.930 . S
H996 C1006 0.925 1_556 S
H997 C1007 0.930 . S
C998 H992 0.930 . S
C998 C999 1.355 . S
C998 C1000 1.415 . S
C999 C998 1.355 . S
C999 C1001 1.419 . S
C1000 C998 1.415 . S
C1000 C1005 1.425 . S
C1000 C1007 1.409 . S
C1001 H993 0.930 . S
C1001 C999 1.419 . S
C1001 C1002 1.362 . S
C1002 H994 0.930 . S
C1002 C1001 1.362 . S
C1002 C1005 1.409 . S
C1003 H995 0.930 . S
C1003 C1004 1.355 1_554 S
C1003 C1005 1.415 . S
C1004 C1003 1.355 1_556 S
C1004 C1006 1.417 1_556 S
C1005 C1000 1.425 . S
C1005 C1002 1.409 . S
C1005 C1003 1.415 . S
C1006 H996 0.925 1_554 S
C1006 C1004 1.417 1_554 S
C1006 C1007 1.370 . S
C1007 H997 0.930 . S
C1007 C1000 1.409 . S
C1007 C1006 1.370 . S
H1008 C1014 0.930 . S
H1009 C1017 0.930 1_554 S
H1010 C1018 0.930 . S
H1011 C1019 0.930 . S
H1012 C1022 0.930 . S
H1013 C1023 0.930 . S
C1014 H1008 0.930 . S
C1014 C1015 1.355 1_556 S
C1014 C1016 1.415 . S
C1015 C1014 1.355 1_554 S
C1015 C1017 1.419 1_554 S
C1016 C1014 1.415 . S
C1016 C1021 1.425 . S
C1016 C1023 1.409 . S
C1017 H1009 0.930 1_556 S
C1017 C1015 1.419 1_556 S
C1017 C1018 1.362 . S
C1018 H1010 0.930 . S
C1018 C1017 1.362 . S
C1018 C1021 1.409 . S
C1019 H1011 0.930 . S
C1019 C1020 1.355 . S
C1019 C1021 1.415 . S
C1020 C1019 1.355 . S
C1020 C1022 1.419 . S
C1021 C1016 1.425 . S
C1021 C1018 1.409 . S
C1021 C1019 1.415 . S
C1022 H1012 0.930 . S
C1022 C1020 1.419 . S
C1022 C1023 1.362 . S
C1023 H1013 0.930 . S
C1023 C1016 1.409 . S
C1023 C1022 1.362 . S
H1024 C1030 0.930 . S
H1025 C1033 0.930 . S
H1026 C1034 0.930 . S
H1027 C1035 0.930 . S
H1028 C1038 0.930 . S
H1029 C1039 0.930 . S
C1030 H1024 0.930 . S
C1030 C1031 1.355 . S
C1030 C1032 1.415 . S
C1031 C1030 1.355 . S
C1031 C1033 1.419 . S
C1032 C1030 1.415 . S
C1032 C1037 1.425 . S
C1032 C1039 1.409 . S
C1033 H1025 0.930 . S
C1033 C1031 1.419 . S
C1033 C1034 1.362 . S
C1034 H1026 0.930 . S
C1034 C1033 1.362 . S
C1034 C1037 1.409 . S
C1035 H1027 0.930 . S
C1035 C1036 1.355 1_554 S
C1035 C1037 1.415 . S
C1036 C1035 1.355 1_556 S
C1036 C1038 1.419 . S
C1037 C1032 1.425 . S
C1037 C1034 1.409 . S
C1037 C1035 1.415 . S
C1038 H1028 0.930 . S
C1038 C1036 1.419 . S
C1038 C1039 1.362 1_556 S
C1039 H1029 0.930 . S
C1039 C1032 1.409 . S
C1039 C1038 1.362 1_554 S
H1040 C1046 0.924 1_554 S
H1041 C1049 0.930 1_554 S
H1042 C1050 0.930 . S
H1043 C1051 0.930 . S
H1044 C1054 0.930 . S
H1045 C1055 0.930 . S
C1046 H1040 0.924 1_556 S
C1046 C1047 1.355 1_556 S
C1046 C1048 1.415 . S
C1047 C1046 1.355 1_554 S
C1047 C1049 1.419 1_554 S
C1048 C1046 1.415 . S
C1048 C1053 1.425 . S
C1048 C1055 1.409 . S
C1049 H1041 0.930 1_556 S
C1049 C1047 1.419 1_556 S
C1049 C1050 1.362 . S
C1050 H1042 0.930 . S
C1050 C1049 1.362 . S
C1050 C1053 1.409 . S
C1051 H1043 0.930 . S
C1051 C1052 1.355 . S
C1051 C1053 1.415 . S
C1052 C1051 1.355 . S
C1052 C1054 1.419 . S
C1053 C1048 1.425 . S
C1053 C1050 1.409 . S
C1053 C1051 1.415 . S
C1054 H1044 0.930 . S
C1054 C1052 1.419 . S
C1054 C1055 1.362 . S
C1055 H1045 0.930 . S
C1055 C1048 1.409 . S
C1055 C1054 1.362 . S
H1056 C1062 0.930 . S
H1057 C1065 0.930 . S
H1058 C1066 0.930 . S
H1059 C1067 0.930 . S
H1060 C1070 0.930 . S
H1061 C1071 0.930 . S
C1062 H1056 0.930 . S
C1062 C1063 1.355 1_554 S
C1062 C1064 1.415 . S
C1063 C1062 1.355 1_556 S
C1063 C1065 1.419 . S
C1064 C1062 1.415 . S
C1064 C1069 1.425 . S
C1064 C1071 1.409 . S
C1065 H1057 0.930 . S
C1065 C1063 1.419 . S
C1065 C1066 1.362 1_556 S
C1066 H1058 0.930 . S
C1066 C1065 1.362 1_554 S
C1066 C1069 1.409 . S
C1067 H1059 0.930 . S
C1067 C1068 1.355 . S
C1067 C1069 1.415 . S
C1068 C1067 1.355 . S
C1068 C1070 1.419 . S
C1069 C1064 1.425 . S
C1069 C1066 1.409 . S
C1069 C1067 1.415 . S
C1070 H1060 0.930 . S
C1070 C1068 1.419 . S
C1070 C1071 1.362 . S
C1071 H1061 0.930 . S
C1071 C1064 1.409 . S
C1071 C1070 1.362 . S
H1072 C1078 0.930 . S
H1073 C1081 0.930 . S
H1074 C1082 0.930 . S
H1075 C1083 0.930 . S
H1076 C1086 0.930 . S
H1077 C1087 0.930 . S
C1078 H1072 0.930 . S
C1078 C1079 1.355 . S
C1078 C1080 1.415 . S
C1079 C1078 1.355 . S
C1079 C1081 1.419 . S
C1080 C1078 1.415 . S
C1080 C1085 1.425 . S
C1080 C1087 1.409 . S
C1081 H1073 0.930 . S
C1081 C1079 1.419 . S
C1081 C1082 1.362 . S
C1082 H1074 0.930 . S
C1082 C1081 1.362 . S
C1082 C1085 1.409 . S
C1083 H1075 0.930 . S
C1083 C1084 1.355 1_556 S
C1083 C1085 1.415 . S
C1084 C1083 1.355 1_554 S
C1084 C1086 1.419 . S
C1085 C1080 1.425 . S
C1085 C1082 1.409 . S
C1085 C1083 1.415 . S
C1086 H1076 0.930 . S
C1086 C1084 1.419 . S
C1086 C1087 1.362 1_554 S
C1087 H1077 0.930 . S
C1087 C1080 1.409 . S
C1087 C1086 1.362 1_556 S
C327 C239 1.606 . S
C332 C9 1.609 . S
C343 C178 1.562 . S
C348 C28 1.564 . S
C359 C49 1.610 . S
C364 C199 1.608 . S
C375 C68 1.587 . S
C380 C218 1.592 . S
C391 C89 1.610 . S
C396 C119 1.610 . S
C407 C138 1.610 . S
C412 C108 1.610 . S
C423 C129 1.600 . S
C428 C159 1.594 . S
C439 C98 1.564 . S
C444 C148 1.563 . S
C455 C79 1.585 . S
C460 C169 1.581 . S
C471 C188 1.610 . S
C476 C18 1.609 . S
C487 C39 1.562 . S
C492 C209 1.565 . S
C503 C58 1.576 . S
C508 C228 1.572 . S
C519 C249 1.603 . S
C524 C279 1.606 . S
C535 C298 1.610 . S
C540 C268 1.610 . S
C551 C319 1.562 . S
C556 C289 1.565 . S
C567 C308 1.580 . S
C572 C258 1.574 . S
C583 C8 1.271 . S
C588 C88 1.300 . S
C599 C109 1.285 . S
C604 C29 1.319 . S
C615 C48 1.334 . S
C620 C128 1.300 . S
C631 C69 1.342 . S
C636 C149 1.310 . S
C647 C168 1.331 . S
C652 C248 1.297 . S
C663 C269 1.296 . S
C668 C189 1.269 . S
C679 C208 1.353 . S
C684 C288 1.329 . S
C695 C229 1.343 . S
C700 C309 1.358 . S
C711 C299 1.819 . S
C716 C19 1.824 1_556 S
C727 C38 1.814 1_554 S
C732 C318 1.797 . S
C743 C59 1.811 1_556 S
C748 C259 1.797 . S
C759 C78 1.820 1_554 S
C764 C278 1.823 . S
C775 C99 1.797 . S
C780 C219 1.813 . S
C791 C118 1.811 . S
C796 C238 1.825 . S
C807 C139 1.803 . S
C812 C179 1.798 . S
C823 C198 1.800 . S
C828 C158 1.800 . S
C839 C2 1.279 . S
C844 C1 1.279 . S
C855 C21 1.284 . S
C860 C22 1.284 . S
C871 C42 1.330 . S
C876 C41 1.330 . S
C887 C62 1.287 . S
C892 C61 1.287 . S
C903 C81 1.333 . S
C908 C82 1.333 . S
C919 C101 1.326 . S
C924 C102 1.326 . S
C935 C122 1.279 . S
C940 C121 1.279 . S
C951 C142 1.300 . S
C956 C141 1.300 . S
C967 C162 1.281 . S
C972 C161 1.281 . S
C983 C182 1.333 . S
C988 C181 1.333 . S
C999 C201 1.306 . S
C1004 C202 1.306 . S
C1015 C221 1.305 . S
C1020 C222 1.305 . S
C1031 C242 1.330 . S
C1036 C241 1.330 . S
C1047 C262 1.287 . S
C1052 C261 1.287 . S
C1063 C281 1.278 . S
C1068 C282 1.278 . S
C1079 C301 1.279 . S
C1084 C302 1.279 . S
