# Generated by pormake.
# Topology ukd, (4)-cn, num edge types: 1
# Building blocks:
#     Node 0, Type 0, BuildingBlock: GALJAG_clean_sbu_0, # of connection points: 4
#     Node 1, Type 0, BuildingBlock: GALJAG_clean_sbu_0, # of connection points: 4
#     Node 2, Type 0, BuildingBlock: GALJAG_clean_sbu_0, # of connection points: 4
#     Node 3, Type 0, BuildingBlock: GALJAG_clean_sbu_0, # of connection points: 4
#     Node 4, Type 0, BuildingBlock: GALJAG_clean_sbu_0, # of connection points: 4
#     Node 5, Type 0, BuildingBlock: GALJAG_clean_sbu_0, # of connection points: 4
#     Node 6, Type 0, BuildingBlock: GALJAG_clean_sbu_0, # of connection points: 4
#     Node 7, Type 0, BuildingBlock: GALJAG_clean_sbu_0, # of connection points: 4
#     Node 8, Type 0, BuildingBlock: GALJAG_clean_sbu_0, # of connection points: 4
#     Node 9, Type 0, BuildingBlock: GALJAG_clean_sbu_0, # of connection points: 4
#     Node 10, Type 0, BuildingBlock: GALJAG_clean_sbu_0, # of connection points: 4
#     Node 11, Type 0, BuildingBlock: GALJAG_clean_sbu_0, # of connection points: 4
#     Node 12, Type 0, BuildingBlock: GALJAG_clean_sbu_0, # of connection points: 4
#     Node 13, Type 0, BuildingBlock: GALJAG_clean_sbu_0, # of connection points: 4
#     Node 14, Type 0, BuildingBlock: GALJAG_clean_sbu_0, # of connection points: 4
#     Node 15, Type 0, BuildingBlock: GALJAG_clean_sbu_0, # of connection points: 4
#     Node 16, Type 0, BuildingBlock: GALJAG_clean_sbu_0, # of connection points: 4
#     Node 17, Type 0, BuildingBlock: GALJAG_clean_sbu_0, # of connection points: 4
#     Node 18, Type 0, BuildingBlock: GALJAG_clean_sbu_0, # of connection points: 4
#     Node 19, Type 0, BuildingBlock: GALJAG_clean_sbu_0, # of connection points: 4
#     Node 20, Type 0, BuildingBlock: GALJAG_clean_sbu_0, # of connection points: 4
#     Node 21, Type 0, BuildingBlock: GALJAG_clean_sbu_0, # of connection points: 4
#     Node 22, Type 0, BuildingBlock: GALJAG_clean_sbu_0, # of connection points: 4
#     Node 23, Type 0, BuildingBlock: GALJAG_clean_sbu_0, # of connection points: 4
#     Node 24, Type 0, BuildingBlock: GALJAG_clean_sbu_0, # of connection points: 4
#     Node 25, Type 0, BuildingBlock: GALJAG_clean_sbu_0, # of connection points: 4
#     Node 26, Type 0, BuildingBlock: GALJAG_clean_sbu_0, # of connection points: 4
#     Node 27, Type 0, BuildingBlock: GALJAG_clean_sbu_0, # of connection points: 4
#     Node 28, Type 0, BuildingBlock: GALJAG_clean_sbu_0, # of connection points: 4
#     Node 29, Type 0, BuildingBlock: GALJAG_clean_sbu_0, # of connection points: 4
#     Node 30, Type 0, BuildingBlock: GALJAG_clean_sbu_0, # of connection points: 4
#     Node 31, Type 0, BuildingBlock: GALJAG_clean_sbu_0, # of connection points: 4
#     Edge 32, Type (0, 0), BuildingBlock: CIFDUS_clean_linker_0, # of connection points: 2
#     Edge 33, Type (0, 0), BuildingBlock: CIFDUS_clean_linker_0, # of connection points: 2
#     Edge 34, Type (0, 0), BuildingBlock: CIFDUS_clean_linker_0, # of connection points: 2
#     Edge 35, Type (0, 0), BuildingBlock: CIFDUS_clean_linker_0, # of connection points: 2
#     Edge 36, Type (0, 0), BuildingBlock: CIFDUS_clean_linker_0, # of connection points: 2
#     Edge 37, Type (0, 0), BuildingBlock: CIFDUS_clean_linker_0, # of connection points: 2
#     Edge 38, Type (0, 0), BuildingBlock: CIFDUS_clean_linker_0, # of connection points: 2
#     Edge 39, Type (0, 0), BuildingBlock: CIFDUS_clean_linker_0, # of connection points: 2
#     Edge 40, Type (0, 0), BuildingBlock: CIFDUS_clean_linker_0, # of connection points: 2
#     Edge 41, Type (0, 0), BuildingBlock: CIFDUS_clean_linker_0, # of connection points: 2
#     Edge 42, Type (0, 0), BuildingBlock: CIFDUS_clean_linker_0, # of connection points: 2
#     Edge 43, Type (0, 0), BuildingBlock: CIFDUS_clean_linker_0, # of connection points: 2
#     Edge 44, Type (0, 0), BuildingBlock: CIFDUS_clean_linker_0, # of connection points: 2
#     Edge 45, Type (0, 0), BuildingBlock: CIFDUS_clean_linker_0, # of connection points: 2
#     Edge 46, Type (0, 0), BuildingBlock: CIFDUS_clean_linker_0, # of connection points: 2
#     Edge 47, Type (0, 0), BuildingBlock: CIFDUS_clean_linker_0, # of connection points: 2
#     Edge 48, Type (0, 0), BuildingBlock: CIFDUS_clean_linker_0, # of connection points: 2
#     Edge 49, Type (0, 0), BuildingBlock: CIFDUS_clean_linker_0, # of connection points: 2
#     Edge 50, Type (0, 0), BuildingBlock: CIFDUS_clean_linker_0, # of connection points: 2
#     Edge 51, Type (0, 0), BuildingBlock: CIFDUS_clean_linker_0, # of connection points: 2
#     Edge 52, Type (0, 0), BuildingBlock: CIFDUS_clean_linker_0, # of connection points: 2
#     Edge 53, Type (0, 0), BuildingBlock: CIFDUS_clean_linker_0, # of connection points: 2
#     Edge 54, Type (0, 0), BuildingBlock: CIFDUS_clean_linker_0, # of connection points: 2
#     Edge 55, Type (0, 0), BuildingBlock: CIFDUS_clean_linker_0, # of connection points: 2
#     Edge 56, Type (0, 0), BuildingBlock: CIFDUS_clean_linker_0, # of connection points: 2
#     Edge 57, Type (0, 0), BuildingBlock: CIFDUS_clean_linker_0, # of connection points: 2
#     Edge 58, Type (0, 0), BuildingBlock: CIFDUS_clean_linker_0, # of connection points: 2
#     Edge 59, Type (0, 0), BuildingBlock: CIFDUS_clean_linker_0, # of connection points: 2
#     Edge 60, Type (0, 0), BuildingBlock: CIFDUS_clean_linker_0, # of connection points: 2
#     Edge 61, Type (0, 0), BuildingBlock: CIFDUS_clean_linker_0, # of connection points: 2
#     Edge 62, Type (0, 0), BuildingBlock: CIFDUS_clean_linker_0, # of connection points: 2
#     Edge 63, Type (0, 0), BuildingBlock: CIFDUS_clean_linker_0, # of connection points: 2
#     Edge 64, Type (0, 0), BuildingBlock: CIFDUS_clean_linker_0, # of connection points: 2
#     Edge 65, Type (0, 0), BuildingBlock: CIFDUS_clean_linker_0, # of connection points: 2
#     Edge 66, Type (0, 0), BuildingBlock: CIFDUS_clean_linker_0, # of connection points: 2
#     Edge 67, Type (0, 0), BuildingBlock: CIFDUS_clean_linker_0, # of connection points: 2
#     Edge 68, Type (0, 0), BuildingBlock: CIFDUS_clean_linker_0, # of connection points: 2
#     Edge 69, Type (0, 0), BuildingBlock: CIFDUS_clean_linker_0, # of connection points: 2
#     Edge 70, Type (0, 0), BuildingBlock: CIFDUS_clean_linker_0, # of connection points: 2
#     Edge 71, Type (0, 0), BuildingBlock: CIFDUS_clean_linker_0, # of connection points: 2
#     Edge 72, Type (0, 0), BuildingBlock: CIFDUS_clean_linker_0, # of connection points: 2
#     Edge 73, Type (0, 0), BuildingBlock: CIFDUS_clean_linker_0, # of connection points: 2
#     Edge 74, Type (0, 0), BuildingBlock: CIFDUS_clean_linker_0, # of connection points: 2
#     Edge 75, Type (0, 0), BuildingBlock: CIFDUS_clean_linker_0, # of connection points: 2
#     Edge 76, Type (0, 0), BuildingBlock: CIFDUS_clean_linker_0, # of connection points: 2
#     Edge 77, Type (0, 0), BuildingBlock: CIFDUS_clean_linker_0, # of connection points: 2
#     Edge 78, Type (0, 0), BuildingBlock: CIFDUS_clean_linker_0, # of connection points: 2
#     Edge 79, Type (0, 0), BuildingBlock: CIFDUS_clean_linker_0, # of connection points: 2
#     Edge 80, Type (0, 0), BuildingBlock: CIFDUS_clean_linker_0, # of connection points: 2
#     Edge 81, Type (0, 0), BuildingBlock: CIFDUS_clean_linker_0, # of connection points: 2
#     Edge 82, Type (0, 0), BuildingBlock: CIFDUS_clean_linker_0, # of connection points: 2
#     Edge 83, Type (0, 0), BuildingBlock: CIFDUS_clean_linker_0, # of connection points: 2
#     Edge 84, Type (0, 0), BuildingBlock: CIFDUS_clean_linker_0, # of connection points: 2
#     Edge 85, Type (0, 0), BuildingBlock: CIFDUS_clean_linker_0, # of connection points: 2
#     Edge 86, Type (0, 0), BuildingBlock: CIFDUS_clean_linker_0, # of connection points: 2
#     Edge 87, Type (0, 0), BuildingBlock: CIFDUS_clean_linker_0, # of connection points: 2
#     Edge 88, Type (0, 0), BuildingBlock: CIFDUS_clean_linker_0, # of connection points: 2
#     Edge 89, Type (0, 0), BuildingBlock: CIFDUS_clean_linker_0, # of connection points: 2
#     Edge 90, Type (0, 0), BuildingBlock: CIFDUS_clean_linker_0, # of connection points: 2
#     Edge 91, Type (0, 0), BuildingBlock: CIFDUS_clean_linker_0, # of connection points: 2
#     Edge 92, Type (0, 0), BuildingBlock: CIFDUS_clean_linker_0, # of connection points: 2
#     Edge 93, Type (0, 0), BuildingBlock: CIFDUS_clean_linker_0, # of connection points: 2
#     Edge 94, Type (0, 0), BuildingBlock: CIFDUS_clean_linker_0, # of connection points: 2
#     Edge 95, Type (0, 0), BuildingBlock: CIFDUS_clean_linker_0, # of connection points: 2
# Relax obj value: 0.105
# Max RMSD: 0.103
# Mean RMSD: 0.103
data_MOF--net-ukd--node1-GALJAG_clean_sbu_0--edge1-CIFDUS_clean_linker_0
_symmetry_space_group_name_H-M    P1
_symmetry_Int_Tables_number       1
_symmetry_cell_setting            triclinic
loop_
_symmetry_equiv_pos_as_xyz
'x, y, z'
_cell_length_a     40.166085
_cell_length_b     40.131082
_cell_length_c     62.365541
_cell_angle_alpha  89.949683
_cell_angle_beta   89.988487
_cell_angle_gamma 90.041366
loop_
_atom_site_label
_atom_site_type_symbol
_atom_site_fract_x
_atom_site_fract_y
_atom_site_fract_z
_atom_type_partial_charge
In0 In 0.20551 0.17935 0.34132 0.0
O1 O 0.15947 0.14586 0.33645 0.0
O2 O 0.176 0.1556 0.36815 0.0
C3 C 0.21819 0.20216 0.30166 0.0
C4 C 0.25981 0.14145 0.34852 0.0
C5 C 0.18802 0.23866 0.35791 0.0
O6 O 0.19549 0.18102 0.30532 0.0
O7 O 0.23475 0.211 0.3179 0.0
O8 O 0.21182 0.22184 0.36558 0.0
O9 O 0.17327 0.2254 0.34224 0.0
C10 C 0.15489 0.1415 0.35629 0.0
O11 O 0.2527 0.1663 0.36005 0.0
O12 O 0.23962 0.13584 0.33347 0.0
In13 In 0.06408 0.96039 0.60074 0.0
O14 O 0.07876 0.99997 0.62548 0.0
O15 O 0.10475 0.99934 0.59579 0.0
C16 C 0.00579 0.93623 0.61563 0.0
C17 C 0.10331 0.90712 0.60896 0.0
C18 C 0.0388 0.98172 0.56325 0.0
O19 O 0.02032 0.96048 0.62461 0.0
O20 O 0.02066 0.9247 0.59946 0.0
O21 O 0.05981 0.95829 0.5643 0.0
O22 O 0.03141 0.99485 0.58103 0.0
C23 C 0.10106 0.01292 0.61387 0.0
O24 O 0.09987 0.91852 0.5902 0.0
O25 O 0.08817 0.92333 0.62324 0.0
In26 In 0.28836 0.80109 0.85222 0.0
O27 O 0.24696 0.81408 0.87615 0.0
O28 O 0.2493 0.84106 0.84684 0.0
C29 C 0.3125 0.74219 0.86575 0.0
C30 C 0.33896 0.84116 0.8641 0.0
C31 C 0.27131 0.78038 0.81286 0.0
O32 O 0.28671 0.75495 0.87403 0.0
O33 O 0.32549 0.75903 0.85086 0.0
O34 O 0.29327 0.80249 0.81591 0.0
O35 O 0.25763 0.76928 0.82967 0.0
C36 C 0.23481 0.83684 0.86455 0.0
O37 O 0.33004 0.83855 0.84475 0.0
O38 O 0.32197 0.82427 0.87715 0.0
In39 In 0.43907 0.04486 0.08676 0.0
O40 O 0.42695 0.9939 0.10251 0.0
O41 O 0.38738 0.02683 0.09491 0.0
C42 C 0.50071 0.06129 0.10054 0.0
C43 C 0.40769 0.10231 0.09558 0.0
C44 C 0.4511 0.02568 0.04618 0.0
O45 O 0.48054 0.04554 0.11239 0.0
O46 O 0.48973 0.06825 0.08217 0.0
O47 O 0.43453 0.05147 0.05065 0.0
O48 O 0.46035 0.00881 0.06219 0.0
C49 C 0.39598 0.99933 0.10278 0.0
O50 O 0.40656 0.08899 0.07724 0.0
O51 O 0.42519 0.08696 0.10922 0.0
In52 In 0.2168 0.82143 0.15379 0.0
O53 O 0.2665 0.82721 0.1358 0.0
O54 O 0.24515 0.86984 0.15063 0.0
C55 C 0.19679 0.75896 0.14478 0.0
C56 C 0.16372 0.8541 0.13767 0.0
C57 C 0.23399 0.81102 0.19492 0.0
O58 O 0.21712 0.77428 0.13279 0.0
O59 O 0.187 0.77516 0.16089 0.0
O60 O 0.2091 0.8286 0.18979 0.0
O61 O 0.25052 0.79976 0.17932 0.0
C62 C 0.26888 0.85799 0.13983 0.0
O63 O 0.17214 0.85667 0.15713 0.0
O64 O 0.18223 0.83553 0.12654 0.0
In65 In 0.43419 0.96548 0.40377 0.0
O66 O 0.4157 0.00347 0.37924 0.0
O67 O 0.40349 0.01129 0.41207 0.0
C68 C 0.48158 0.93576 0.37947 0.0
C69 C 0.38307 0.92196 0.40277 0.0
C70 C 0.46674 0.97988 0.44045 0.0
O71 O 0.48042 0.96694 0.38182 0.0
O72 O 0.45878 0.9201 0.38891 0.0
O73 O 0.44317 0.95906 0.43974 0.0
O74 O 0.4737 0.99339 0.42276 0.0
C75 C 0.40082 0.02123 0.39295 0.0
O76 O 0.40488 0.92125 0.4174 0.0
O77 O 0.38678 0.94496 0.38918 0.0
In78 In 0.2877 0.19289 0.64439 0.0
O79 O 0.32739 0.15428 0.65383 0.0
O80 O 0.31342 0.15871 0.62101 0.0
C81 C 0.27277 0.2202 0.68271 0.0
C82 C 0.23266 0.15839 0.63317 0.0
C83 C 0.31839 0.24552 0.62578 0.0
O84 O 0.29503 0.19817 0.6806 0.0
O85 O 0.25797 0.22804 0.66558 0.0
O86 O 0.28766 0.23998 0.62308 0.0
O87 O 0.33296 0.22484 0.63773 0.0
C88 C 0.33153 0.1444 0.63474 0.0
O89 O 0.24577 0.17988 0.62096 0.0
O90 O 0.24661 0.15527 0.65118 0.0
In91 In 0.063 0.03181 0.89357 0.0
O92 O 0.10057 0.07403 0.901 0.0
O93 O 0.08662 0.06526 0.8687 0.0
C94 C 0.03967 0.01317 0.93222 0.0
C95 C 0.09918 0.9781 0.88226 0.0
C96 C 0.00394 0.05314 0.87841 0.0
O97 O 0.05846 0.03828 0.92989 0.0
O98 O 0.03347 0.99734 0.91518 0.0
O99 O 0.0199 0.02996 0.86934 0.0
O100 O 0.01786 0.0653 0.89475 0.0
C101 C 0.10363 0.08242 0.88156 0.0
O102 O 0.07548 0.98891 0.87092 0.0
O103 O 0.10449 0.99423 0.89927 0.0
In104 In 0.7833 0.80198 0.65147 0.0
O105 O 0.73349 0.81019 0.63425 0.0
O106 O 0.75806 0.85213 0.64785 0.0
C107 C 0.79985 0.7397 0.63942 0.0
C108 C 0.83855 0.83501 0.63908 0.0
C109 C 0.76414 0.788 0.69181 0.0
O110 O 0.78399 0.75893 0.62701 0.0
O111 O 0.80705 0.75199 0.6574 0.0
O112 O 0.79205 0.80111 0.68764 0.0
O113 O 0.74563 0.78333 0.67575 0.0
C114 C 0.73314 0.8412 0.63777 0.0
O115 O 0.8273 0.83707 0.65797 0.0
O116 O 0.82188 0.81658 0.6267 0.0
In117 In 0.93138 0.02856 0.41031 0.0
O118 O 0.96776 0.02812 0.3815 0.0
O119 O 0.97731 0.06046 0.40772 0.0
C120 C 0.89193 0.97555 0.40297 0.0
C121 C 0.95884 0.00824 0.4474 0.0
C122 C 0.89035 0.08094 0.40358 0.0
O123 O 0.91472 0.98415 0.39007 0.0
O124 O 0.88943 0.9935 0.41951 0.0
O125 O 0.90866 0.0787 0.41994 0.0
O126 O 0.8923 0.05667 0.39086 0.0
C127 C 0.98665 0.04985 0.38973 0.0
O128 O 0.93706 0.03096 0.44662 0.0
O129 O 0.966 0.99526 0.42954 0.0
In130 In 0.71407 0.18221 0.1634 0.0
O131 O 0.66897 0.14981 0.17252 0.0
O132 O 0.68132 0.15426 0.13963 0.0
C133 C 0.73088 0.20265 0.20308 0.0
C134 C 0.76748 0.14515 0.15195 0.0
C135 C 0.69423 0.24148 0.14718 0.0
O136 O 0.70894 0.1807 0.19968 0.0
O137 O 0.74472 0.21406 0.18641 0.0
O138 O 0.71932 0.22619 0.13995 0.0
O139 O 0.67951 0.2269 0.16237 0.0
C140 C 0.66191 0.14215 0.15345 0.0
O141 O 0.75507 0.16697 0.13977 0.0
O142 O 0.75318 0.14225 0.16984 0.0
In143 In 0.56485 0.9673 0.89731 0.0
O144 O 0.51899 0.96874 0.87534 0.0
O145 O 0.52363 0.92906 0.89781 0.0
C146 C 0.59605 0.02372 0.88503 0.0
C147 C 0.54361 0.97962 0.93732 0.0
C148 C 0.60837 0.91974 0.88494 0.0
O149 O 0.57398 0.00986 0.87374 0.0
O150 O 0.60192 0.00951 0.90266 0.0
O151 O 0.60496 0.92796 0.90433 0.0
O152 O 0.59029 0.93574 0.87205 0.0
C153 C 0.50656 0.94253 0.88325 0.0
O154 O 0.5663 0.95872 0.93332 0.0
O155 O 0.53252 0.99509 0.92118 0.0
In156 In 0.78641 0.19275 0.84507 0.0
O157 O 0.82631 0.15348 0.83695 0.0
O158 O 0.81772 0.16648 0.8696 0.0
C159 C 0.76061 0.21698 0.80865 0.0
C160 C 0.73284 0.16046 0.86009 0.0
C161 C 0.81977 0.24845 0.85496 0.0
O162 O 0.7823 0.194 0.80855 0.0
O163 O 0.7518 0.22686 0.82703 0.0
O164 O 0.79531 0.23865 0.86617 0.0
O165 O 0.82685 0.23022 0.83914 0.0
C166 C 0.83438 0.14949 0.85643 0.0
O167 O 0.74596 0.18438 0.87028 0.0
O168 O 0.74664 0.15325 0.8425 0.0
In169 In 0.5572 0.02927 0.59695 0.0
O170 O 0.55518 0.03448 0.56045 0.0
O171 O 0.53528 0.99052 0.57478 0.0
C172 C 0.58319 0.08792 0.60937 0.0
C173 C 0.49606 0.04196 0.61259 0.0
C174 C 0.60494 0.98557 0.60826 0.0
O175 O 0.583 0.07928 0.58984 0.0
O176 O 0.57087 0.06688 0.62216 0.0
O177 O 0.57468 0.98076 0.61293 0.0
O178 O 0.61079 0.01208 0.59807 0.0
C179 C 0.54044 0.00688 0.55781 0.0
O180 O 0.51731 0.0258 0.6234 0.0
O181 O 0.50559 0.05062 0.59415 0.0
In182 In 0.70552 0.81112 0.34568 0.0
O183 O 0.65009 0.82202 0.34213 0.0
O184 O 0.68196 0.86251 0.34988 0.0
C185 C 0.71394 0.78924 0.30519 0.0
C186 C 0.76129 0.84435 0.35755 0.0
C187 C 0.69064 0.75675 0.36987 0.0
O188 O 0.69253 0.81108 0.3099 0.0
O189 O 0.73089 0.77877 0.32081 0.0
O190 O 0.70873 0.75565 0.35341 0.0
O191 O 0.68119 0.78566 0.37487 0.0
C192 C 0.65263 0.85265 0.3464 0.0
O193 O 0.74227 0.83066 0.37106 0.0
O194 O 0.75236 0.84086 0.33835 0.0
In195 In 0.93885 0.97038 0.08783 0.0
O196 O 0.94581 0.96438 0.05177 0.0
O197 O 0.97005 0.00514 0.06711 0.0
C198 C 0.89798 0.91849 0.09658 0.0
C199 C 0.99661 0.94889 0.10505 0.0
C200 C 0.89966 0.02216 0.09919 0.0
O201 O 0.90248 0.92886 0.07767 0.0
O202 O 0.91367 0.93445 0.11072 0.0
O203 O 0.9219 0.01067 0.11145 0.0
O204 O 0.89761 0.00791 0.08123 0.0
C205 C 0.96479 0.98938 0.04991 0.0
O206 O 0.98123 0.9738 0.11252 0.0
O207 O 0.98283 0.93526 0.08914 0.0
In208 In 0.73106 0.694 0.84959 0.0
O209 O 0.78109 0.68514 0.8664 0.0
O210 O 0.75934 0.6454 0.84861 0.0
C211 C 0.71075 0.75367 0.86417 0.0
C212 C 0.67938 0.65638 0.86301 0.0
C213 C 0.74839 0.71365 0.80991 0.0
O214 O 0.73125 0.73611 0.87466 0.0
O215 O 0.70097 0.741 0.84681 0.0
O216 O 0.72162 0.698 0.81357 0.0
O217 O 0.76665 0.71824 0.8261 0.0
C218 C 0.78332 0.65532 0.86 0.0
O219 O 0.6877 0.65782 0.84347 0.0
O220 O 0.69714 0.67366 0.87546 0.0
In221 In 0.5693 0.4646 0.10063 0.0
O222 O 0.57904 0.50952 0.12214 0.0
O223 O 0.61246 0.50135 0.09635 0.0
C224 C 0.50749 0.4496 0.11431 0.0
C225 C 0.604 0.41211 0.11657 0.0
C226 C 0.5529 0.47482 0.05925 0.0
O227 O 0.52456 0.47246 0.12284 0.0
O228 O 0.52151 0.43472 0.09896 0.0
O229 O 0.57215 0.45162 0.06509 0.0
O230 O 0.54269 0.49335 0.07423 0.0
C231 C 0.60466 0.51909 0.11223 0.0
O232 O 0.60677 0.42126 0.09729 0.0
O233 O 0.5846 0.42973 0.12758 0.0
In234 In 0.79567 0.31388 0.35228 0.0
O235 O 0.75363 0.32576 0.37582 0.0
O236 O 0.7533 0.35033 0.34568 0.0
C237 C 0.81988 0.25885 0.3719 0.0
C238 C 0.84158 0.36007 0.3627 0.0
C239 C 0.78645 0.29066 0.31208 0.0
O240 O 0.78921 0.26268 0.36833 0.0
O241 O 0.83806 0.28246 0.36561 0.0
O242 O 0.80614 0.31442 0.31611 0.0
O243 O 0.77165 0.27893 0.32824 0.0
C244 C 0.73948 0.34652 0.36367 0.0
O245 O 0.83884 0.34899 0.34378 0.0
O246 O 0.82083 0.34832 0.3759 0.0
In247 In 0.92366 0.52261 0.58763 0.0
O248 O 0.90362 0.48235 0.61032 0.0
O249 O 0.8833 0.48472 0.57902 0.0
C250 C 0.98058 0.5362 0.60942 0.0
C251 C 0.88275 0.57485 0.59377 0.0
C252 C 0.95034 0.51743 0.5482 0.0
O253 O 0.97674 0.50984 0.59877 0.0
O254 O 0.95555 0.55499 0.60967 0.0
O255 O 0.93347 0.54247 0.5539 0.0
O256 O 0.95293 0.49484 0.56218 0.0
C257 C 0.88285 0.47082 0.59712 0.0
O258 O 0.89384 0.56743 0.5754 0.0
O259 O 0.89202 0.55571 0.60869 0.0
In260 In 0.68744 0.31884 0.65821 0.0
O261 O 0.7265 0.33608 0.63391 0.0
O262 O 0.72801 0.35671 0.66535 0.0
C263 C 0.66295 0.26446 0.63807 0.0
C264 C 0.6351 0.36147 0.65657 0.0
C265 C 0.71255 0.29017 0.69377 0.0
O266 O 0.68574 0.28198 0.6298 0.0
O267 O 0.65256 0.27486 0.65588 0.0
O268 O 0.69182 0.31384 0.69451 0.0
O269 O 0.72099 0.28144 0.67511 0.0
C270 C 0.74081 0.35563 0.64687 0.0
O271 O 0.63967 0.34172 0.67201 0.0
O272 O 0.65712 0.36015 0.64221 0.0
In273 In 0.95465 0.46383 0.90163 0.0
O274 O 0.94166 0.51311 0.88443 0.0
O275 O 0.90257 0.48405 0.89786 0.0
C276 C 0.01211 0.44205 0.88414 0.0
C277 C 0.91865 0.40818 0.89607 0.0
C278 C 0.97536 0.48737 0.93973 0.0
O279 O 0.99241 0.4607 0.87381 0.0
O280 O 0.00286 0.43526 0.90295 0.0
O281 O 0.95932 0.46044 0.93794 0.0
O282 O 0.97997 0.50289 0.92238 0.0
C283 C 0.91077 0.50983 0.88768 0.0
O284 O 0.92145 0.42192 0.91423 0.0
O285 O 0.9342 0.42242 0.88102 0.0
In286 In 0.7907 0.6934 0.15449 0.0
O287 O 0.75653 0.67846 0.12649 0.0
O288 O 0.74689 0.65776 0.15714 0.0
C289 C 0.81364 0.75445 0.14387 0.0
C290 C 0.84291 0.65301 0.14606 0.0
C291 C 0.77137 0.70916 0.19437 0.0
O292 O 0.78963 0.74116 0.13391 0.0
O293 O 0.82548 0.73709 0.15887 0.0
O294 O 0.79433 0.68845 0.19056 0.0
O295 O 0.75771 0.72165 0.17794 0.0
C296 C 0.73889 0.65909 0.13767 0.0
O297 O 0.82851 0.65306 0.16402 0.0
O298 O 0.83067 0.67279 0.13252 0.0
In299 In 0.56058 0.53329 0.39651 0.0
O300 O 0.5872 0.58 0.40911 0.0
O301 O 0.60349 0.55913 0.37958 0.0
C302 C 0.53285 0.5151 0.43423 0.0
C303 C 0.59724 0.48078 0.38351 0.0
C304 C 0.50763 0.55823 0.37489 0.0
O305 O 0.55515 0.53722 0.43296 0.0
O306 O 0.525 0.50198 0.41659 0.0
O307 O 0.51358 0.5274 0.37566 0.0
O308 O 0.52856 0.57607 0.38453 0.0
C309 C 0.60689 0.58191 0.39333 0.0
O310 O 0.57875 0.49703 0.37089 0.0
O311 O 0.5968 0.49071 0.40271 0.0
In312 In 0.28838 0.31911 0.15598 0.0
O313 O 0.24466 0.32515 0.1329 0.0
O314 O 0.24939 0.35966 0.15867 0.0
C315 C 0.31805 0.26176 0.14489 0.0
C316 C 0.33613 0.36033 0.14128 0.0
C317 C 0.27057 0.29964 0.19548 0.0
O318 O 0.29224 0.27209 0.13531 0.0
O319 O 0.32823 0.28014 0.15991 0.0
O320 O 0.29178 0.3225 0.19234 0.0
O321 O 0.25783 0.28746 0.1787 0.0
C322 C 0.23332 0.35063 0.1423 0.0
O323 O 0.32928 0.35844 0.16104 0.0
O324 O 0.31838 0.34231 0.12933 0.0
In325 In 0.45712 0.52807 0.90398 0.0
O326 O 0.45252 0.5392 0.93972 0.0
O327 O 0.48239 0.498 0.93038 0.0
C328 C 0.42065 0.58015 0.89017 0.0
C329 C 0.5165 0.54987 0.88917 0.0
C330 C 0.42017 0.475 0.89155 0.0
O331 O 0.4199 0.57036 0.90944 0.0
O332 O 0.43954 0.56357 0.87803 0.0
O333 O 0.45152 0.47508 0.88989 0.0
O334 O 0.40806 0.50115 0.89948 0.0
C335 C 0.47151 0.5158 0.94551 0.0
O336 O 0.4995 0.52851 0.87902 0.0
O337 O 0.50375 0.55934 0.90659 0.0
In338 In 0.18823 0.67159 0.66724 0.0
O339 O 0.23048 0.65891 0.64384 0.0
O340 O 0.22609 0.63053 0.67254 0.0
C341 C 0.16611 0.73158 0.65346 0.0
C342 C 0.13504 0.63215 0.65918 0.0
C343 C 0.20926 0.69017 0.70634 0.0
O344 O 0.18901 0.7163 0.64361 0.0
O345 O 0.15451 0.71623 0.66939 0.0
O346 O 0.18851 0.66688 0.70358 0.0
O347 O 0.22001 0.70345 0.68932 0.0
C348 C 0.24187 0.63558 0.65536 0.0
O349 O 0.13985 0.64601 0.67703 0.0
O350 O 0.15733 0.63764 0.64538 0.0
In351 In 0.07279 0.46715 0.40123 0.0
O352 O 0.07009 0.45364 0.43657 0.0
O353 O 0.04562 0.49801 0.4262 0.0
C354 C 0.10669 0.41402 0.38616 0.0
C355 C 0.01201 0.45287 0.38543 0.0
C356 C 0.11402 0.51929 0.39464 0.0
O357 O 0.10511 0.42053 0.40592 0.0
O358 O 0.09189 0.43456 0.37423 0.0
O359 O 0.08766 0.51538 0.38387 0.0
O360 O 0.11933 0.49709 0.40851 0.0
C361 C 0.05225 0.47845 0.44152 0.0
O362 O 0.0313 0.473 0.37594 0.0
O363 O 0.02341 0.44054 0.40249 0.0
In364 In 0.29149 0.70064 0.34547 0.0
O365 O 0.25824 0.67225 0.36922 0.0
O366 O 0.24605 0.66951 0.33626 0.0
C367 C 0.2991 0.75171 0.37344 0.0
C368 C 0.35061 0.66855 0.34497 0.0
C369 C 0.28403 0.72623 0.30579 0.0
O370 O 0.2831 0.75437 0.35615 0.0
O371 O 0.30982 0.72279 0.37719 0.0
O372 O 0.30486 0.7036 0.31 0.0
O373 O 0.26675 0.73568 0.32156 0.0
C374 C 0.23901 0.66073 0.35509 0.0
O375 O 0.34795 0.69979 0.34372 0.0
O376 O 0.32324 0.65311 0.34596 0.0
In377 In 0.07001 0.54236 0.09439 0.0
O378 O 0.06884 0.54233 0.05796 0.0
O379 O 0.03926 0.50643 0.07458 0.0
C380 C 0.11399 0.59176 0.10219 0.0
C381 C 0.01189 0.57136 0.1049 0.0
C382 C 0.10188 0.48975 0.11155 0.0
O383 O 0.1103 0.57955 0.08368 0.0
O384 O 0.0961 0.5786 0.11648 0.0
O385 O 0.08025 0.50604 0.12186 0.0
O386 O 0.10714 0.49987 0.0927 0.0
C387 C 0.04806 0.51869 0.05679 0.0
O388 O 0.02286 0.54646 0.11514 0.0
O389 O 0.03039 0.5814 0.08992 0.0
In390 In 0.23014 0.30574 0.84182 0.0
O391 O 0.27899 0.31984 0.85909 0.0
O392 O 0.25283 0.3571 0.84154 0.0
C393 C 0.20973 0.24611 0.85688 0.0
C394 C 0.17647 0.34003 0.8552 0.0
C395 C 0.2504 0.2872 0.80241 0.0
O396 O 0.23141 0.26318 0.86674 0.0
O397 O 0.19931 0.25898 0.8397 0.0
O398 O 0.22427 0.30417 0.80538 0.0
O399 O 0.26658 0.28052 0.81923 0.0
C400 C 0.27741 0.35003 0.85324 0.0
O401 O 0.18372 0.33771 0.83549 0.0
O402 O 0.19613 0.32507 0.86771 0.0
In403 In 0.42793 0.47737 0.58959 0.0
O404 O 0.43778 0.46633 0.55394 0.0
O405 O 0.45598 0.51164 0.56706 0.0
C406 C 0.39265 0.4198 0.58804 0.0
C407 C 0.48276 0.46772 0.61428 0.0
C408 C 0.3866 0.52618 0.60341 0.0
O409 O 0.42404 0.42062 0.58823 0.0
O410 O 0.37897 0.44807 0.58764 0.0
O411 O 0.40351 0.50863 0.61623 0.0
O412 O 0.39098 0.51938 0.58392 0.0
C413 C 0.45386 0.49301 0.55088 0.0
O414 O 0.48216 0.48687 0.5983 0.0
O415 O 0.45497 0.45485 0.61881 0.0
H416 H 0.14653 0.36964 0.40721 0.0
H417 H 0.10187 0.39022 0.34565 0.0
H418 H 0.12375 0.33811 0.3315 0.0
H419 H 0.15331 0.28569 0.33691 0.0
H420 H 0.2002 0.265 0.39764 0.0
H421 H 0.17988 0.31825 0.41185 0.0
C422 C 0.14182 0.36275 0.39068 0.0
C423 C 0.12242 0.38362 0.37754 0.0
C424 C 0.15473 0.33274 0.38254 0.0
C425 C 0.1167 0.37458 0.3561 0.0
C426 C 0.12912 0.34474 0.34799 0.0
C427 C 0.15915 0.29288 0.35325 0.0
C428 C 0.17785 0.27143 0.36632 0.0
C429 C 0.14777 0.32348 0.36113 0.0
C430 C 0.18574 0.28119 0.38733 0.0
C431 C 0.17407 0.31154 0.39544 0.0
H432 H 0.96755 0.89162 0.59484 0.0
H433 H 0.97282 0.94845 0.65339 0.0
H434 H 0.92124 0.92216 0.66603 0.0
H435 H 0.87515 0.88191 0.66049 0.0
H436 H 0.8705 0.82658 0.60122 0.0
H437 H 0.92137 0.8534 0.58883 0.0
C438 C 0.95744 0.89833 0.61037 0.0
C439 C 0.97404 0.92179 0.62322 0.0
C440 C 0.9279 0.8833 0.61741 0.0
C441 C 0.96046 0.93042 0.64322 0.0
C442 C 0.93103 0.91535 0.65045 0.0
C443 C 0.88532 0.8758 0.64488 0.0
C444 C 0.86913 0.85218 0.63184 0.0
C445 C 0.91463 0.89157 0.63772 0.0
C446 C 0.88245 0.84465 0.61158 0.0
C447 C 0.91157 0.85995 0.60446 0.0
H448 H 0.37102 0.6138 0.91073 0.0
H449 H 0.42783 0.61167 0.85198 0.0
H450 H 0.39859 0.66098 0.83912 0.0
H451 H 0.35839 0.70562 0.8449 0.0
H452 H 0.3 0.70786 0.90292 0.0
H453 H 0.32813 0.65738 0.91569 0.0
C454 C 0.37689 0.62414 0.89511 0.0
C455 C 0.4017 0.60926 0.88238 0.0
C456 C 0.35972 0.65243 0.88769 0.0
C457 C 0.40887 0.62268 0.86209 0.0
C458 C 0.3922 0.6509 0.85472 0.0
C459 C 0.35171 0.69501 0.86032 0.0
C460 C 0.32737 0.71051 0.87304 0.0
C461 C 0.36781 0.6661 0.86744 0.0
C462 C 0.31869 0.69631 0.89286 0.0
C463 C 0.33485 0.66756 0.90018 0.0
H464 H 0.52457 0.06722 0.14146 0.0
H465 H 0.5514 0.08113 0.07504 0.0
H466 H 0.60458 0.10519 0.08562 0.0
H467 H 0.64183 0.12582 0.11349 0.0
H468 H 0.61513 0.1145 0.18009 0.0
H469 H 0.56374 0.08578 0.16975 0.0
C470 C 0.5423 0.07513 0.12936 0.0
C471 C 0.53403 0.07253 0.10751 0.0
C472 C 0.57275 0.08965 0.13558 0.0
C473 C 0.5571 0.08306 0.09197 0.0
C474 C 0.58753 0.09686 0.098 0.0
C475 C 0.62492 0.11683 0.12578 0.0
C476 C 0.63219 0.12242 0.14751 0.0
C477 C 0.59534 0.10085 0.11972 0.0
C478 C 0.61005 0.11057 0.16322 0.0
C479 C 0.58064 0.09419 0.15732 0.0
H480 H 0.1986 0.72442 0.10698 0.0
H481 H 0.16603 0.71788 0.17282 0.0
H482 H 0.13997 0.66427 0.1657 0.0
H483 H 0.12297 0.62131 0.1405 0.0
H484 H 0.15271 0.62766 0.07417 0.0
H485 H 0.18358 0.67906 0.08175 0.0
C486 C 0.18613 0.71099 0.11977 0.0
C487 C 0.18407 0.72515 0.14035 0.0
C488 C 0.17055 0.68026 0.11546 0.0
C489 C 0.16773 0.70762 0.15679 0.0
C490 C 0.15281 0.67695 0.15275 0.0
C491 C 0.13646 0.63373 0.12771 0.0
C492 C 0.13542 0.62083 0.1068 0.0
C493 C 0.15352 0.66337 0.1321 0.0
C494 C 0.15309 0.63717 0.09041 0.0
C495 C 0.17065 0.66659 0.09473 0.0
H496 H 0.54384 0.95901 0.371 0.0
H497 H 0.4807 0.87273 0.36396 0.0
H498 H 0.52776 0.8402 0.3508 0.0
H499 H 0.58772 0.83464 0.34492 0.0
H500 H 0.65193 0.91966 0.35404 0.0
H501 H 0.60369 0.95437 0.36259 0.0
C502 C 0.54035 0.93329 0.36617 0.0
C503 C 0.50896 0.91821 0.3685 0.0
C504 C 0.56778 0.91441 0.35923 0.0
C505 C 0.50472 0.88479 0.3624 0.0
C506 C 0.53162 0.86615 0.35493 0.0
C507 C 0.59112 0.86088 0.34848 0.0
C508 C 0.62332 0.87451 0.34899 0.0
C509 C 0.56342 0.88044 0.35385 0.0
C510 C 0.62735 0.90854 0.35365 0.0
C511 C 0.5998 0.92839 0.35857 0.0
H512 H 0.29233 0.30286 0.60897 0.0
H513 H 0.3851 0.25239 0.62164 0.0
H514 H 0.41617 0.30069 0.60895 0.0
H515 H 0.41731 0.3586 0.59687 0.0
H516 H 0.32515 0.41101 0.58601 0.0
H517 H 0.2936 0.3607 0.59509 0.0
C518 C 0.31932 0.30239 0.6087 0.0
C519 C 0.33638 0.27417 0.61633 0.0
C520 C 0.33718 0.33066 0.60176 0.0
C521 C 0.37137 0.27391 0.616 0.0
C522 C 0.3892 0.30151 0.60873 0.0
C523 C 0.39033 0.3589 0.59617 0.0
C524 C 0.37361 0.38848 0.59079 0.0
C525 C 0.37241 0.33022 0.60195 0.0
C526 C 0.33862 0.38852 0.59011 0.0
C527 C 0.32056 0.35979 0.59538 0.0
H528 H 0.95764 0.0844 0.90192 0.0
H529 H 0.9777 0.04963 0.83786 0.0
H530 H 0.92568 0.07507 0.82518 0.0
H531 H 0.87611 0.11047 0.83224 0.0
H532 H 0.85673 0.14292 0.89708 0.0
H533 H 0.90667 0.1149 0.90951 0.0
C534 C 0.95054 0.08226 0.88519 0.0
C535 C 0.97152 0.06562 0.87077 0.0
C536 C 0.92073 0.09658 0.87816 0.0
C537 C 0.96186 0.06246 0.84923 0.0
C538 C 0.93222 0.07707 0.84198 0.0
C539 C 0.8827 0.11104 0.8491 0.0
C540 C 0.86287 0.12905 0.86365 0.0
C541 C 0.91166 0.09467 0.85627 0.0
C542 C 0.87159 0.12942 0.88549 0.0
C543 C 0.90023 0.11346 0.89265 0.0
H544 H 0.86145 0.59667 0.63223 0.0
H545 H 0.85934 0.62072 0.56483 0.0
H546 H 0.83038 0.67304 0.57274 0.0
H547 H 0.80941 0.71387 0.59935 0.0
H548 H 0.815 0.6898 0.66671 0.0
H549 H 0.83857 0.63548 0.65828 0.0
C550 C 0.85438 0.61317 0.61922 0.0
C551 C 0.86264 0.60494 0.598 0.0
C552 C 0.83843 0.6433 0.62392 0.0
C553 C 0.85331 0.62659 0.58133 0.0
C554 C 0.83681 0.65651 0.58585 0.0
C555 C 0.81537 0.69646 0.61209 0.0
C556 C 0.81061 0.70578 0.6336 0.0
C557 C 0.82976 0.66542 0.60715 0.0
C558 C 0.81866 0.68321 0.65003 0.0
C559 C 0.83215 0.65216 0.64524 0.0
H560 H 0.10764 0.10478 0.33502 0.0
H561 H 0.13763 0.13748 0.3981 0.0
H562 H 0.08885 0.11117 0.41376 0.0
H563 H 0.03677 0.0811 0.40968 0.0
H564 H 0.00587 0.04629 0.34741 0.0
H565 H 0.05603 0.07093 0.33127 0.0
C566 C 0.10352 0.10591 0.35219 0.0
C567 C 0.12615 0.12325 0.36535 0.0
C568 C 0.07528 0.09045 0.36122 0.0
C569 C 0.12063 0.12436 0.38759 0.0
C570 C 0.09268 0.10937 0.39659 0.0
C571 C 0.041 0.0788 0.39256 0.0
C572 C 0.01757 0.06225 0.3797 0.0
C573 C 0.06972 0.09273 0.38355 0.0
C574 C 0.02361 0.05901 0.35761 0.0
C575 C 0.0522 0.07317 0.34841 0.0
H576 H 0.65084 0.37217 0.09769 0.0
H577 H 0.59317 0.38445 0.15557 0.0
H578 H 0.6164 0.3332 0.17012 0.0
H579 H 0.65142 0.28394 0.16611 0.0
H580 H 0.71086 0.2714 0.10912 0.0
H581 H 0.68877 0.32369 0.09454 0.0
C582 C 0.64356 0.36367 0.11352 0.0
C583 C 0.62019 0.38203 0.12547 0.0
C584 C 0.65722 0.33409 0.12192 0.0
C585 C 0.6111 0.37082 0.14602 0.0
C586 C 0.6243 0.34144 0.15436 0.0
C587 C 0.65961 0.29268 0.15051 0.0
C588 C 0.6825 0.27377 0.13863 0.0
C589 C 0.6471 0.32274 0.14239 0.0
C590 C 0.6932 0.28557 0.11856 0.0
C591 C 0.68053 0.3154 0.11021 0.0
H592 H 0.46725 0.90198 0.90626 0.0
H593 H 0.4737 0.95205 0.84522 0.0
H594 H 0.42151 0.9256 0.83379 0.0
H595 H 0.37522 0.88621 0.84093 0.0
H596 H 0.36882 0.83864 0.90293 0.0
H597 H 0.41977 0.86631 0.91426 0.0
C598 C 0.4572 0.90714 0.89045 0.0
C599 C 0.47433 0.92853 0.87648 0.0
C600 C 0.42722 0.8923 0.88419 0.0
C601 C 0.46085 0.93553 0.8562 0.0
C602 C 0.43112 0.92038 0.84967 0.0
C603 C 0.38495 0.88213 0.85694 0.0
C604 C 0.36843 0.86025 0.87102 0.0
C605 C 0.41425 0.89842 0.86348 0.0
C606 C 0.38107 0.85535 0.89179 0.0
C607 C 0.41027 0.87108 0.89828 0.0
H608 H 0.91476 0.37259 0.8596 0.0
H609 H 0.87625 0.37701 0.9241 0.0
H610 H 0.84105 0.32833 0.91699 0.0
H611 H 0.82141 0.28433 0.89216 0.0
H612 H 0.86199 0.28019 0.82811 0.0
H613 H 0.89601 0.3291 0.8353 0.0
C614 C 0.89868 0.36292 0.87213 0.0
C615 C 0.89804 0.37832 0.89231 0.0
C616 C 0.87879 0.33504 0.86797 0.0
C617 C 0.8772 0.36545 0.90842 0.0
C618 C 0.85703 0.33771 0.90435 0.0
C619 C 0.83759 0.29432 0.87981 0.0
C620 C 0.83916 0.27876 0.85965 0.0
C621 C 0.85758 0.32231 0.88414 0.0
C622 C 0.86041 0.2917 0.84379 0.0
C623 C 0.87989 0.31966 0.84786 0.0
H624 H 0.37736 0.11265 0.66012 0.0
H625 H 0.34347 0.12161 0.59465 0.0
H626 H 0.38961 0.08737 0.58244 0.0
H627 H 0.44247 0.05989 0.58966 0.0
H628 H 0.47776 0.05028 0.65462 0.0
H629 H 0.42795 0.07917 0.6678 0.0
C630 C 0.37989 0.10668 0.64324 0.0
C631 C 0.35727 0.12006 0.62829 0.0
C632 C 0.40676 0.08696 0.63622 0.0
C633 C 0.36069 0.11194 0.60648 0.0
C634 C 0.3871 0.09235 0.59945 0.0
C635 C 0.439 0.06365 0.60675 0.0
C636 C 0.46377 0.05333 0.62115 0.0
C637 C 0.4107 0.0805 0.61408 0.0
C638 C 0.4589 0.05799 0.64325 0.0
C639 C 0.43058 0.07473 0.65074 0.0
H640 H 0.70278 0.69294 0.35838 0.0
H641 H 0.64874 0.75213 0.40439 0.0
H642 H 0.62044 0.70209 0.41757 0.0
H643 H 0.60661 0.64246 0.41315 0.0
H644 H 0.65871 0.58464 0.36548 0.0
H645 H 0.69236 0.63306 0.35595 0.0
C646 C 0.68523 0.69485 0.37155 0.0
C647 C 0.67772 0.72623 0.3803 0.0
C648 C 0.66845 0.66619 0.37861 0.0
C649 C 0.65491 0.72826 0.39735 0.0
C650 C 0.63861 0.69967 0.40482 0.0
C651 C 0.62574 0.64038 0.40095 0.0
C652 C 0.63003 0.6101 0.38994 0.0
C653 C 0.64449 0.66863 0.39515 0.0
C654 C 0.65477 0.60775 0.37408 0.0
C655 C 0.67401 0.63544 0.3686 0.0
H656 H 0.12388 0.90111 0.15631 0.0
H657 H 0.13668 0.84355 0.09844 0.0
H658 H 0.08653 0.8682 0.0833 0.0
H659 H 0.03839 0.90486 0.08664 0.0
H660 H 0.02537 0.96405 0.1437 0.0
H661 H 0.07632 0.94017 0.15899 0.0
C662 C 0.11568 0.89408 0.14037 0.0
C663 C 0.1339 0.87042 0.12856 0.0
C664 C 0.08681 0.9086 0.13163 0.0
C665 C 0.12314 0.86169 0.10788 0.0
C666 C 0.09441 0.87573 0.09919 0.0
C667 C 0.04671 0.91261 0.10242 0.0
C668 C 0.02808 0.936 0.1141 0.0
C669 C 0.07597 0.89901 0.11096 0.0
C670 C 0.03934 0.94605 0.13441 0.0
C671 C 0.0684 0.93235 0.14316 0.0
H672 H 0.68017 0.7998 0.84005 0.0
H673 H 0.71208 0.77995 0.90481 0.0
H674 H 0.68466 0.8312 0.91704 0.0
H675 H 0.64801 0.87947 0.90941 0.0
H676 H 0.6169 0.89804 0.8442 0.0
H677 H 0.6478 0.84948 0.83204 0.0
C678 C 0.68134 0.80678 0.85684 0.0
C679 C 0.69775 0.78605 0.87157 0.0
C680 C 0.66553 0.83595 0.86366 0.0
C681 C 0.6995 0.79558 0.8932 0.0
C682 C 0.68372 0.82476 0.90018 0.0
C683 C 0.64832 0.87301 0.89253 0.0
C684 C 0.62994 0.89214 0.87776 0.0
C685 C 0.66612 0.84483 0.88559 0.0
C686 C 0.63067 0.88364 0.85592 0.0
C687 C 0.64829 0.85584 0.84893 0.0
H688 H 0.46067 0.41623 0.09221 0.0
H689 H 0.4802 0.46069 0.15384 0.0
H690 H 0.42745 0.43855 0.16763 0.0
H691 H 0.37773 0.40282 0.16267 0.0
H692 H 0.35859 0.36008 0.10036 0.0
H693 H 0.40905 0.38551 0.08631 0.0
C694 C 0.45323 0.42128 0.10862 0.0
C695 C 0.47431 0.43965 0.12209 0.0
C696 C 0.42299 0.40869 0.11633 0.0
C697 C 0.46427 0.4465 0.1432 0.0
C698 C 0.43422 0.43376 0.1511 0.0
C699 C 0.38447 0.39945 0.14598 0.0
C700 C 0.36463 0.37932 0.13266 0.0
C701 C 0.41365 0.41427 0.1379 0.0
C702 C 0.37349 0.37533 0.111 0.0
C703 C 0.40241 0.38979 0.10292 0.0
H704 H 0.90399 0.1445 0.41468 0.0
H705 H 0.83271 0.08393 0.38079 0.0
H706 H 0.80218 0.13394 0.36982 0.0
H707 H 0.79823 0.19522 0.36773 0.0
H708 H 0.87361 0.25546 0.398 0.0
H709 H 0.90003 0.20549 0.41266 0.0
C710 C 0.88148 0.14232 0.40517 0.0
C711 C 0.87037 0.11074 0.39866 0.0
C712 C 0.86498 0.17118 0.39818 0.0
C713 C 0.8416 0.10811 0.38599 0.0
C714 C 0.82422 0.13665 0.3797 0.0
C715 C 0.82017 0.19727 0.37778 0.0
C716 C 0.83393 0.22878 0.38194 0.0
C717 C 0.836 0.16836 0.38538 0.0
C718 C 0.86269 0.23133 0.39463 0.0
C719 C 0.87777 0.20282 0.40299 0.0
H720 H 0.12668 0.58332 0.62948 0.0
H721 H 0.07471 0.63923 0.6781 0.0
H722 H 0.02223 0.61291 0.66783 0.0
H723 H 0.99049 0.57722 0.64316 0.0
H724 H 0.04256 0.51843 0.59608 0.0
H725 H 0.09571 0.54222 0.60775 0.0
C726 C 0.10386 0.58943 0.63792 0.0
C727 C 0.10437 0.61341 0.65432 0.0
C728 C 0.07387 0.57372 0.6322 0.0
C729 C 0.07485 0.62085 0.66539 0.0
C730 C 0.04483 0.6059 0.65948 0.0
C731 C 0.01357 0.56931 0.63571 0.0
C732 C 0.01273 0.5464 0.61872 0.0
C733 C 0.04396 0.58277 0.64266 0.0
C734 C 0.04271 0.53599 0.60927 0.0
C735 C 0.07304 0.54975 0.61583 0.0
H736 H 0.62013 0.1344 0.58749 0.0
H737 H 0.5745 0.11408 0.64884 0.0
H738 H 0.59442 0.16706 0.66263 0.0
H739 H 0.62485 0.21873 0.6577 0.0
H740 H 0.67307 0.23981 0.59742 0.0
H741 H 0.65207 0.18705 0.58273 0.0
C742 C 0.61457 0.1417 0.60384 0.0
C743 C 0.59584 0.12033 0.6171 0.0
C744 C 0.6265 0.17228 0.61185 0.0
C745 C 0.58894 0.12997 0.6383 0.0
C746 C 0.60026 0.16032 0.64622 0.0
C747 C 0.63068 0.21193 0.64129 0.0
C748 C 0.65029 0.23318 0.62862 0.0
C749 C 0.61905 0.18159 0.63318 0.0
C750 C 0.65794 0.22382 0.60748 0.0
C751 C 0.64595 0.19369 0.5991 0.0
H752 H 0.13243 0.37885 0.83271 0.0
H753 H 0.15532 0.34296 0.89633 0.0
H754 H 0.10747 0.37246 0.91073 0.0
H755 H 0.05859 0.40709 0.90546 0.0
H756 H 0.03426 0.44392 0.84241 0.0
H757 H 0.08337 0.41572 0.82761 0.0
C758 C 0.12688 0.37757 0.8497 0.0
C759 C 0.14735 0.3586 0.86339 0.0
C760 C 0.09918 0.3948 0.858 0.0
C761 C 0.13999 0.3573 0.88541 0.0
C762 C 0.11261 0.37418 0.8937 0.0
C763 C 0.06405 0.40913 0.88847 0.0
C764 C 0.04279 0.42745 0.87504 0.0
C765 C 0.092 0.39283 0.88016 0.0
C766 C 0.05032 0.42998 0.85309 0.0
C767 C 0.07831 0.41376 0.84463 0.0
H768 H 0.89253 0.88895 0.13523 0.0
H769 H 0.85762 0.88181 0.07001 0.0
H770 H 0.82603 0.83142 0.07917 0.0
H771 H 0.81067 0.78774 0.10562 0.0
H772 H 0.84894 0.79454 0.17012 0.0
H773 H 0.87664 0.84683 0.1614 0.0
C774 C 0.87783 0.87654 0.12301 0.0
C775 C 0.87743 0.88905 0.10197 0.0
C776 C 0.86035 0.84746 0.1283 0.0
C777 C 0.85837 0.87259 0.08633 0.0
C778 C 0.84033 0.8438 0.09157 0.0
C779 C 0.82478 0.80096 0.11776 0.0
C780 C 0.82779 0.78735 0.13847 0.0
C781 C 0.84142 0.83078 0.11248 0.0
C782 C 0.84639 0.80446 0.15404 0.0
C783 C 0.86226 0.83435 0.14908 0.0
H784 H 0.49686 0.62263 0.36476 0.0
H785 H 0.45016 0.52587 0.36389 0.0
H786 H 0.39735 0.55129 0.35296 0.0
H787 H 0.36345 0.60182 0.34689 0.0
H788 H 0.41118 0.69824 0.34768 0.0
H789 H 0.46463 0.67212 0.35526 0.0
C790 C 0.47521 0.60706 0.36193 0.0
C791 C 0.47722 0.57252 0.36532 0.0
C792 C 0.44508 0.62182 0.35578 0.0
C793 C 0.44915 0.55256 0.36138 0.0
C794 C 0.41894 0.5671 0.35525 0.0
C795 C 0.38565 0.61703 0.34847 0.0
C796 C 0.38328 0.65193 0.34696 0.0
C797 C 0.41643 0.60182 0.35289 0.0
C798 C 0.41227 0.67133 0.34888 0.0
C799 C 0.44287 0.65644 0.35326 0.0
H800 H 0.4099 0.13639 0.13286 0.0
H801 H 0.36252 0.13565 0.07079 0.0
H802 H 0.32928 0.1843 0.08082 0.0
H803 H 0.31381 0.22719 0.10742 0.0
H804 H 0.36295 0.22817 0.16895 0.0
H805 H 0.39514 0.17909 0.15902 0.0
C806 C 0.39236 0.14691 0.1215 0.0
C807 C 0.38866 0.13251 0.10114 0.0
C808 C 0.37349 0.1748 0.12734 0.0
C809 C 0.36588 0.14642 0.08656 0.0
C810 C 0.34679 0.17414 0.09231 0.0
C811 C 0.33141 0.21645 0.11865 0.0
C812 C 0.33595 0.23114 0.13888 0.0
C813 C 0.35033 0.1885 0.11269 0.0
C814 C 0.35906 0.21728 0.15325 0.0
C815 C 0.37751 0.18926 0.1476 0.0
H816 H 0.55902 0.58907 0.91104 0.0
H817 H 0.54414 0.54389 0.84906 0.0
H818 H 0.59378 0.5725 0.83533 0.0
H819 H 0.64023 0.61242 0.84079 0.0
H820 H 0.65417 0.65647 0.90329 0.0
H821 H 0.60605 0.62628 0.91692 0.0
C822 C 0.56671 0.58528 0.89454 0.0
C823 C 0.54788 0.56453 0.88106 0.0
C824 C 0.59503 0.6018 0.88682 0.0
C825 C 0.55829 0.55972 0.85977 0.0
C826 C 0.58657 0.57618 0.85191 0.0
C827 C 0.63273 0.61528 0.85739 0.0
C828 C 0.65068 0.63682 0.87097 0.0
C829 C 0.60494 0.59762 0.86524 0.0
C830 C 0.64081 0.64013 0.89248 0.0
C831 C 0.61326 0.62288 0.90032 0.0
H832 H 0.17557 0.76705 0.6161 0.0
H833 H 0.12992 0.77215 0.67872 0.0
H834 H 0.10876 0.82746 0.67087 0.0
H835 H 0.10133 0.87359 0.64623 0.0
H836 H 0.14328 0.86923 0.58266 0.0
H837 H 0.168 0.81471 0.59089 0.0
C838 C 0.1611 0.78041 0.62798 0.0
C839 C 0.15426 0.76541 0.64794 0.0
C840 C 0.14838 0.81236 0.62324 0.0
C841 C 0.13537 0.78295 0.66318 0.0
C842 C 0.12329 0.81469 0.65875 0.0
C843 C 0.11614 0.86093 0.63419 0.0
C844 C 0.12059 0.87548 0.61391 0.0
C845 C 0.12942 0.8295 0.63884 0.0
C846 C 0.13957 0.85854 0.59844 0.0
C847 C 0.15361 0.82735 0.60312 0.0
H848 H 0.95962 0.4331 0.40879 0.0
H849 H 0.99127 0.44945 0.34361 0.0
H850 H 0.93964 0.42384 0.3304 0.0
H851 H 0.88793 0.39188 0.33778 0.0
H852 H 0.85685 0.37753 0.40344 0.0
H853 H 0.90569 0.40752 0.41606 0.0
C854 C 0.95498 0.43144 0.39168 0.0
C855 C 0.97919 0.4427 0.37716 0.0
C856 C 0.92547 0.41684 0.38432 0.0
C857 C 0.97285 0.44091 0.35506 0.0
C858 C 0.94348 0.42609 0.34753 0.0
C859 C 0.89169 0.39574 0.35482 0.0
C860 C 0.86901 0.38212 0.36965 0.0
C861 C 0.91996 0.41321 0.36205 0.0
C862 C 0.874 0.38757 0.39168 0.0
C863 C 0.90198 0.40466 0.39895 0.0
H864 H 0.28449 0.81639 0.36548 0.0
H865 H 0.33842 0.7529 0.40918 0.0
H866 H 0.36598 0.80157 0.42469 0.0
H867 H 0.38101 0.86097 0.42185 0.0
H868 H 0.32924 0.92344 0.37647 0.0
H869 H 0.29432 0.87655 0.36582 0.0
C870 C 0.3017 0.81326 0.37873 0.0
C871 C 0.30972 0.78109 0.38598 0.0
C872 C 0.31817 0.8412 0.3871 0.0
C873 C 0.33196 0.77742 0.40322 0.0
C874 C 0.34788 0.80523 0.41202 0.0
C875 C 0.36155 0.86445 0.41001 0.0
C876 C 0.35796 0.89547 0.39977 0.0
C877 C 0.34216 0.83709 0.4035 0.0
C878 C 0.33269 0.89968 0.38443 0.0
C879 C 0.31277 0.87286 0.37828 0.0
H880 H 0.97183 0.56313 0.13999 0.0
H881 H 0.97997 0.6162 0.07995 0.0
H882 H 0.92771 0.64472 0.08703 0.0
H883 H 0.88068 0.656 0.11047 0.0
H884 H 0.87233 0.60537 0.17127 0.0
H885 H 0.92357 0.57436 0.16368 0.0
C886 C 0.96201 0.58085 0.12847 0.0
C887 C 0.97976 0.58762 0.10952 0.0
C888 C 0.93198 0.5976 0.13277 0.0
C889 C 0.96688 0.61069 0.09473 0.0
C890 C 0.93696 0.627 0.09873 0.0
C891 C 0.88993 0.63803 0.12204 0.0
C892 C 0.8728 0.63294 0.14137 0.0
C893 C 0.91946 0.62083 0.11773 0.0
C894 C 0.88515 0.6097 0.15624 0.0
C895 C 0.91444 0.59202 0.15192 0.0
H896 H 0.17397 0.20172 0.83435 0.0
H897 H 0.21368 0.21956 0.89751 0.0
H898 H 0.18497 0.16967 0.91098 0.0
H899 H 0.14583 0.12246 0.90487 0.0
H900 H 0.10753 0.10597 0.84104 0.0
H901 H 0.13839 0.15383 0.82783 0.0
C902 C 0.17657 0.19462 0.85106 0.0
C903 C 0.19571 0.21438 0.86495 0.0
C904 C 0.16002 0.16621 0.8586 0.0
C905 C 0.1991 0.20467 0.88649 0.0
C906 C 0.18255 0.17626 0.8942 0.0
C907 C 0.14444 0.12931 0.88808 0.0
C908 C 0.12419 0.11075 0.87402 0.0
C909 C 0.1625 0.15707 0.88044 0.0
C910 C 0.12279 0.11981 0.85225 0.0
C911 C 0.14044 0.14723 0.84464 0.0
H912 H 0.49174 0.42289 0.64675 0.0
H913 H 0.5452 0.48755 0.6034 0.0
H914 H 0.59768 0.46188 0.6139 0.0
H915 H 0.62764 0.41676 0.63216 0.0
H916 H 0.57503 0.35268 0.67616 0.0
H917 H 0.52311 0.38247 0.66877 0.0
C918 C 0.51496 0.43181 0.63996 0.0
C919 C 0.51448 0.45682 0.62412 0.0
C920 C 0.54518 0.41673 0.64596 0.0
C921 C 0.5448 0.46823 0.61554 0.0
C922 C 0.57486 0.45343 0.62143 0.0
C923 C 0.60487 0.40963 0.64033 0.0
C924 C 0.605 0.38234 0.65444 0.0
C925 C 0.57522 0.42695 0.63609 0.0
C926 C 0.57548 0.3736 0.66517 0.0
C927 C 0.54578 0.39054 0.66089 0.0
H928 H 0.22772 0.24974 0.20545 0.0
H929 H 0.29659 0.3196 0.23378 0.0
H930 H 0.2866 0.29524 0.26913 0.0
H931 H 0.25925 0.25343 0.29179 0.0
H932 H 0.19007 0.18378 0.2636 0.0
H933 H 0.1994 0.20865 0.22828 0.0
C934 C 0.24039 0.25977 0.21938 0.0
C935 C 0.26286 0.28642 0.21702 0.0
C936 C 0.23468 0.24554 0.23961 0.0
C937 C 0.27912 0.29913 0.2352 0.0
C938 C 0.27352 0.28515 0.25539 0.0
C939 C 0.24628 0.24362 0.27791 0.0
C940 C 0.22416 0.21669 0.28025 0.0
C941 C 0.25156 0.25819 0.25774 0.0
C942 C 0.20731 0.20443 0.26217 0.0
C943 C 0.21259 0.21867 0.242 0.0
H944 H 0.04539 0.95302 0.52402 0.0
H945 H 0.99493 0.03257 0.5573 0.0
H946 H 0.9652 0.04738 0.52451 0.0
H947 H 0.95303 0.03737 0.48648 0.0
H948 H 0.00349 0.95792 0.45313 0.0
H949 H 0.03352 0.94329 0.48587 0.0
C950 C 0.02804 0.97372 0.52405 0.0
C951 C 0.02242 0.9917 0.54304 0.0
C952 C 0.01083 0.98196 0.50517 0.0
C953 C 0.99974 0.01836 0.54287 0.0
C954 C 0.98265 0.0268 0.52414 0.0
C955 C 0.97048 0.01676 0.48641 0.0
C956 C 0.97593 0.99868 0.46745 0.0
C957 C 0.98785 0.00865 0.50524 0.0
C958 C 0.99879 0.97218 0.46756 0.0
C959 C 0.01603 0.96384 0.48625 0.0
H960 H 0.2509 0.74131 0.71583 0.0
H961 H 0.18867 0.66616 0.745 0.0
H962 H 0.20214 0.68778 0.78056 0.0
H963 H 0.2309 0.72846 0.80329 0.0
H964 H 0.29343 0.80344 0.77423 0.0
H965 H 0.28038 0.78154 0.73864 0.0
C966 C 0.24043 0.72956 0.72999 0.0
C967 C 0.21885 0.70218 0.72782 0.0
C968 C 0.24815 0.74221 0.75035 0.0
C969 C 0.2054 0.68725 0.74627 0.0
C970 C 0.21301 0.69964 0.76659 0.0
C971 C 0.2416 0.74006 0.78916 0.0
C972 C 0.26298 0.76759 0.79135 0.0
C973 C 0.23419 0.72722 0.76881 0.0
C974 C 0.27684 0.78224 0.77294 0.0
C975 C 0.26943 0.76972 0.7526 0.0
H976 H 0.49875 0.98183 0.03417 0.0
H977 H 0.42904 0.05364 0.00898 0.0
H978 H 0.45162 0.04568 0.97295 0.0
H979 H 0.49256 0.0199 0.94892 0.0
H980 H 0.56319 0.94912 0.97429 0.0
H981 H 0.53906 0.95534 0.01003 0.0
C982 C 0.48824 0.99541 0.02074 0.0
C983 C 0.46222 0.01819 0.02418 0.0
C984 C 0.5018 0.99124 0.00019 0.0
C985 C 0.44905 0.0359 0.0067 0.0
C986 C 0.46204 0.03148 0.98613 0.0
C987 C 0.50273 0.00592 0.96229 0.0
C988 C 0.52973 0.98425 0.95902 0.0
C989 C 0.48871 0.00957 0.98275 0.0
C990 C 0.54252 0.96612 0.97644 0.0
C991 C 0.52867 0.96956 0.99686 0.0
H992 H 0.24072 0.77437 0.29316 0.0
H993 H 0.31864 0.7099 0.26976 0.0
H994 H 0.3114 0.7322 0.23363 0.0
H995 H 0.28157 0.76827 0.20848 0.0
H996 H 0.2027 0.83189 0.23145 0.0
H997 H 0.21194 0.81192 0.26805 0.0
C998 C 0.25617 0.76529 0.28015 0.0
C999 C 0.28006 0.74041 0.28409 0.0
C1000 C 0.25177 0.77811 0.25939 0.0
C1001 C 0.29998 0.72895 0.26712 0.0
C1002 C 0.29589 0.7417 0.24646 0.0
C1003 C 0.2666 0.77803 0.22152 0.0
C1004 C 0.24148 0.80149 0.21728 0.0
C1005 C 0.2717 0.76607 0.24239 0.0
C1006 C 0.22222 0.81381 0.23432 0.0
C1007 C 0.22741 0.80232 0.25523 0.0
H1008 H 0.46409 0.94704 0.47844 0.0
H1009 H 0.50961 0.03146 0.44714 0.0
H1010 H 0.53782 0.0466 0.48046 0.0
H1011 H 0.54785 0.03701 0.51893 0.0
H1012 H 0.50303 0.95181 0.54986 0.0
H1013 H 0.47658 0.93568 0.51625 0.0
C1014 C 0.48023 0.96871 0.47892 0.0
C1015 C 0.48456 0.98824 0.46044 0.0
C1016 C 0.49658 0.9771 0.49807 0.0
C1017 C 0.50582 0.01606 0.46121 0.0
C1018 C 0.52195 0.02475 0.48025 0.0
C1019 C 0.53254 0.01476 0.51824 0.0
C1020 C 0.52731 0.99574 0.53687 0.0
C1021 C 0.51731 0.0056 0.49883 0.0
C1022 C 0.50746 0.96692 0.53574 0.0
C1023 C 0.49221 0.95771 0.51654 0.0
H1024 H 0.21898 0.29647 0.7642 0.0
H1025 H 0.30372 0.24793 0.79305 0.0
H1026 H 0.31815 0.22287 0.75863 0.0
H1027 H 0.30592 0.2135 0.72048 0.0
H1028 H 0.22155 0.26248 0.69152 0.0
H1029 H 0.20775 0.28847 0.72578 0.0
C1030 C 0.24072 0.28059 0.76291 0.0
C1031 C 0.2602 0.27406 0.78116 0.0
C1032 C 0.24884 0.26614 0.74306 0.0
C1033 C 0.2883 0.2534 0.77924 0.0
C1034 C 0.29654 0.23896 0.75957 0.0
C1035 C 0.28451 0.22985 0.72169 0.0
C1036 C 0.2647 0.2359 0.70352 0.0
C1037 C 0.27683 0.24491 0.74141 0.0
C1038 C 0.23718 0.25735 0.70529 0.0
C1039 C 0.22926 0.27225 0.72487 0.0
H1040 H 0.04381 0.04631 0.97025 0.0
H1041 H 0.0012 0.95894 0.94069 0.0
H1042 H 0.97391 0.94416 0.97433 0.0
H1043 H 0.96162 0.95621 0.01206 0.0
H1044 H 0.00409 0.04343 0.04182 0.0
H1045 H 0.03175 0.05818 0.00822 0.0
C1046 C 0.02869 0.02396 0.97122 0.0
C1047 C 0.0246 0.00375 0.953 0.0
C1048 C 0.01286 0.01567 0.99062 0.0
C1049 C 0.0048 0.97493 0.95448 0.0
C1050 C 0.98911 0.96647 0.9737 0.0
C1051 C 0.97684 0.9785 0.01117 0.0
C1052 C 0.9807 0.99874 0.02938 0.0
C1053 C 0.99282 0.98673 0.99184 0.0
C1054 C 0.00065 0.02746 0.02801 0.0
C1055 C 0.01654 0.03589 0.00881 0.0
H1056 H 0.80377 0.78465 0.727 0.0
H1057 H 0.70463 0.76225 0.70458 0.0
H1058 H 0.69124 0.7363 0.73894 0.0
H1059 H 0.70809 0.71883 0.77512 0.0
H1060 H 0.80719 0.74133 0.79755 0.0
H1061 H 0.82032 0.768 0.76336 0.0
C1062 C 0.77913 0.77441 0.72973 0.0
C1063 C 0.75521 0.77545 0.71332 0.0
C1064 C 0.77173 0.75913 0.74943 0.0
C1065 C 0.72347 0.76183 0.717 0.0
C1066 C 0.71583 0.74684 0.73661 0.0
C1067 C 0.73262 0.72936 0.77244 0.0
C1068 C 0.7567 0.72792 0.78875 0.0
C1069 C 0.73987 0.74503 0.75285 0.0
C1070 C 0.78826 0.74201 0.78518 0.0
C1071 C 0.79576 0.75738 0.76568 0.0
H1072 H 0.77422 0.25192 0.21419 0.0
H1073 H 0.70541 0.18037 0.24088 0.0
H1074 H 0.71699 0.20104 0.2769 0.0
H1075 H 0.74573 0.23995 0.30074 0.0
H1076 H 0.81429 0.312 0.27443 0.0
H1077 H 0.80377 0.2906 0.23831 0.0
C1078 C 0.76188 0.24078 0.22791 0.0
C1079 C 0.73898 0.21466 0.22487 0.0
C1080 C 0.76853 0.25292 0.24861 0.0
C1081 C 0.72313 0.20051 0.24278 0.0
C1082 C 0.72971 0.21233 0.26339 0.0
C1083 C 0.75843 0.25097 0.28711 0.0
C1084 C 0.7807 0.27757 0.29024 0.0
C1085 C 0.75221 0.23861 0.26647 0.0
C1086 C 0.79699 0.29152 0.27243 0.0
C1087 C 0.79098 0.2793 0.25179 0.0
H1088 H 0.77909 0.20482 0.76733 0.0
H1089 H 0.71268 0.26447 0.80585 0.0
H1090 H 0.69228 0.29259 0.77379 0.0
H1091 H 0.69366 0.30088 0.7349 0.0
H1092 H 0.75971 0.2414 0.69609 0.0
H1093 H 0.77997 0.21274 0.72813 0.0
C1094 C 0.76003 0.22384 0.76866 0.0
C1095 C 0.74743 0.23251 0.78892 0.0
C1096 C 0.74847 0.24011 0.75013 0.0
C1097 C 0.72282 0.2573 0.79043 0.0
C1098 C 0.71115 0.27347 0.77211 0.0
C1099 C 0.71255 0.2817 0.73346 0.0
C1100 C 0.72524 0.27335 0.71319 0.0
C1101 C 0.72392 0.26522 0.75191 0.0
C1102 C 0.74958 0.24833 0.71155 0.0
C1103 C 0.76115 0.23189 0.72985 0.0
H1104 H 0.7556 0.74014 0.29274 0.0
H1105 H 0.68419 0.81085 0.26826 0.0
H1106 H 0.69474 0.79142 0.23168 0.0
H1107 H 0.72568 0.75542 0.20663 0.0
H1108 H 0.79717 0.68507 0.23156 0.0
H1109 H 0.785 0.70319 0.26803 0.0
C1110 C 0.74227 0.75127 0.27941 0.0
C1111 C 0.71929 0.77699 0.28315 0.0
C1112 C 0.74848 0.74004 0.25852 0.0
C1113 C 0.70207 0.79104 0.26575 0.0
C1114 C 0.70811 0.77996 0.24486 0.0
C1115 C 0.73843 0.74395 0.22007 0.0
C1116 C 0.76236 0.71903 0.21641 0.0
C1117 C 0.73144 0.75463 0.24104 0.0
C1118 C 0.77868 0.70435 0.23395 0.0
C1119 C 0.77179 0.71472 0.25482 0.0
H1120 H 0.50667 0.51814 0.0441 0.0
H1121 H 0.57355 0.43998 0.02415 0.0
H1122 H 0.55348 0.44503 0.9873 0.0
H1123 H 0.51699 0.47173 0.96074 0.0
H1124 H 0.45015 0.54992 0.9807 0.0
H1125 H 0.46992 0.54456 0.0176 0.0
C1126 C 0.51696 0.50232 0.03166 0.0
C1127 C 0.54166 0.47882 0.03682 0.0
C1128 C 0.50513 0.50519 0.01055 0.0
C1129 C 0.55458 0.45834 0.02057 0.0
C1130 C 0.54306 0.46115 -0.00049 0.0
C1131 C 0.50661 0.48745 0.97319 0.0
C1132 C 0.48209 0.51113 0.96801 0.0
C1133 C 0.51829 0.48443 0.99433 0.0
C1134 C 0.469 0.53144 0.98429 0.0
C1135 C 0.48035 0.52846 0.00538 0.0
H1136 H 0.01023 0.52713 0.45489 0.0
H1137 H 0.06147 0.43874 0.47647 0.0
H1138 H 0.03419 0.44297 0.51136 0.0
H1139 H 0.9947 0.47082 0.53534 0.0
H1140 H 0.94361 0.55939 0.514 0.0
H1141 H 0.97181 0.55594 0.47931 0.0
C1142 C 0.01562 0.50895 0.46729 0.0
C1143 C 0.03781 0.48266 0.46311 0.0
C1144 C 0.99967 0.51139 0.48725 0.0
C1145 C 0.04451 0.45924 0.4793 0.0
C1146 C 0.02884 0.46157 0.49923 0.0
C1147 C 0.98966 0.48932 0.52308 0.0
C1148 C 0.96695 0.51518 0.52714 0.0
C1149 C 0.00613 0.48733 0.50329 0.0
C1150 C 0.96091 0.53916 0.5112 0.0
C1151 C 0.97706 0.53724 0.49139 0.0
H1152 H 0.05196 0.54967 0.01826 0.0
H1153 H 0.0105 0.4633 0.04973 0.0
H1154 H 0.98353 0.4464 0.01634 0.0
H1155 H 0.97155 0.45634 0.97829 0.0
H1156 H 0.01223 0.54324 0.94697 0.0
H1157 H 0.03938 0.55999 0.9803 0.0
C1158 C 0.03721 0.52703 0.01774 0.0
C1159 C 0.03336 0.50765 0.03634 0.0
C1160 C 0.02139 0.51775 0.99861 0.0
C1161 C 0.01389 0.47858 0.03556 0.0
C1162 C 0.99839 0.46895 0.01652 0.0
C1163 C 0.98619 0.47904 0.97881 0.0
C1164 C 0.98985 0.49854 0.96023 0.0
C1165 C 0.00184 0.48844 0.99798 0.0
C1166 C 0.00897 0.52785 0.96109 0.0
C1167 C 0.02461 0.53738 0.98011 0.0
H1168 H 0.53719 0.54701 0.47245 0.0
H1169 H 0.49111 0.46271 0.44148 0.0
H1170 H 0.46247 0.4482 0.47479 0.0
H1171 H 0.45018 0.45978 0.51281 0.0
H1172 H 0.49522 0.54521 0.54321 0.0
H1173 H 0.52441 0.55898 0.5101 0.0
C1174 C 0.52099 0.52538 0.47303 0.0
C1175 C 0.51637 0.50591 0.45458 0.0
C1176 C 0.50425 0.51746 0.49214 0.0
C1177 C 0.49509 0.4781 0.4555 0.0
C1178 C 0.47868 0.4698 0.47454 0.0
C1179 C 0.46632 0.48143 0.51213 0.0
C1180 C 0.47047 0.50143 0.53042 0.0
C1181 C 0.48297 0.48937 0.49295 0.0
C1182 C 0.49147 0.52944 0.52933 0.0
C1183 C 0.50827 0.53732 0.51041 0.0
H1184 H 0.29668 0.13775 0.38493 0.0
H1185 H 0.28745 0.09621 0.32143 0.0
H1186 H 0.33296 0.05753 0.32887 0.0
H1187 H 0.3727 0.03293 0.35423 0.0
H1188 H 0.37904 0.0715 0.41862 0.0
H1189 H 0.33767 0.11416 0.41 0.0
C1190 C 0.3049 0.12045 0.37267 0.0
C1191 C 0.28875 0.11974 0.35269 0.0
C1192 C 0.33053 0.09773 0.37724 0.0
C1193 C 0.29943 0.09707 0.33698 0.0
C1194 C 0.32545 0.07498 0.34121 0.0
C1195 C 0.36539 0.05103 0.36625 0.0
C1196 C 0.37889 0.04921 0.38699 0.0
C1197 C 0.34083 0.07473 0.36139 0.0
C1198 C 0.36891 0.07247 0.40253 0.0
C1199 C 0.34522 0.09678 0.39763 0.0
H1200 H 0.13483 0.05672 0.58887 0.0
H1201 H 0.11386 0.03245 0.65488 0.0
H1202 H 0.15156 0.07665 0.66679 0.0
H1203 H 0.19294 0.12005 0.65834 0.0
H1204 H 0.2119 0.14605 0.59233 0.0
H1205 H 0.17221 0.10365 0.58049 0.0
C1206 C 0.13842 0.06126 0.60586 0.0
C1207 C 0.12195 0.04115 0.62099 0.0
C1208 C 0.15971 0.08704 0.61256 0.0
C1209 C 0.12637 0.04757 0.64294 0.0
C1210 C 0.14795 0.07279 0.64975 0.0
C1211 C 0.18808 0.11667 0.64138 0.0
C1212 C 0.20548 0.13597 0.62622 0.0
C1213 C 0.16509 0.09238 0.6347 0.0
C1214 C 0.19876 0.13154 0.60431 0.0
C1215 C 0.17621 0.10717 0.59752 0.0
H1216 H 0.19253 0.87145 0.83928 0.0
H1217 H 0.21603 0.85127 0.90549 0.0
H1218 H 0.17516 0.89285 0.91698 0.0
H1219 H 0.13551 0.9376 0.90797 0.0
H1220 H 0.10986 0.95539 0.8418 0.0
H1221 H 0.14871 0.91193 0.83045 0.0
C1222 C 0.18841 0.87596 0.85623 0.0
C1223 C 0.20738 0.85867 0.87154 0.0
C1224 C 0.16468 0.89955 0.86267 0.0
C1225 C 0.20163 0.86432 0.89344 0.0
C1226 C 0.17843 0.88819 0.9 0.0
C1227 C 0.13831 0.93173 0.89109 0.0
C1228 C 0.12024 0.94983 0.87569 0.0
C1229 C 0.16026 0.90637 0.88473 0.0
C1230 C 0.1236 0.94176 0.8539 0.0
C1231 C 0.14586 0.91702 0.84742 0.0
H1232 H 0.27177 0.9249 0.14073 0.0
H1233 H 0.32858 0.83836 0.12243 0.0
H1234 H 0.37449 0.87433 0.11055 0.0
H1235 H 0.39776 0.93111 0.10459 0.0
H1236 H 0.33806 0.01662 0.12121 0.0
H1237 H 0.29418 0.98038 0.13474 0.0
C1238 C 0.29423 0.91384 0.1342 0.0
C1239 C 0.29683 0.87907 0.13248 0.0
C1240 C 0.32007 0.93456 0.12717 0.0
C1241 C 0.32599 0.86513 0.12385 0.0
C1242 C 0.35224 0.88568 0.11712 0.0
C1243 C 0.37524 0.94162 0.11138 0.0
C1244 C 0.3711 0.97641 0.11199 0.0
C1245 C 0.34951 0.92051 0.11863 0.0
C1246 C 0.3417 0.98988 0.12053 0.0
C1247 C 0.31659 0.96921 0.12825 0.0
H1248 H 0.73549 0.90783 0.63275 0.0
H1249 H 0.66897 0.82377 0.62831 0.0
H1250 H 0.62263 0.8612 0.61966 0.0
H1251 H 0.60108 0.91832 0.61372 0.0
H1252 H 0.66928 0.00132 0.61575 0.0
H1253 H 0.71491 0.96392 0.62513 0.0
C1254 C 0.71084 0.89771 0.62985 0.0
C1255 C 0.70552 0.86321 0.63127 0.0
C1256 C 0.68463 0.91924 0.62458 0.0
C1257 C 0.67361 0.85031 0.62724 0.0
C1258 C 0.64713 0.8717 0.62239 0.0
C1259 C 0.62593 0.92808 0.61634 0.0
C1260 C 0.63186 0.96246 0.61426 0.0
C1261 C 0.65231 0.90626 0.62113 0.0
C1262 C 0.6642 0.9749 0.6173 0.0
C1263 C 0.69027 0.95357 0.62265 0.0
H1264 H 0.88348 0.94203 0.36554 0.0
H1265 H 0.84762 0.94744 0.43065 0.0
H1266 H 0.80569 0.90503 0.42287 0.0
H1267 H 0.77667 0.86917 0.39689 0.0
H1268 H 0.81076 0.86613 0.33132 0.0
H1269 H 0.85598 0.90452 0.33997 0.0
C1270 C 0.86672 0.93364 0.37807 0.0
C1271 C 0.86857 0.94791 0.3986 0.0
C1272 C 0.84222 0.90973 0.37338 0.0
C1273 C 0.84659 0.93693 0.41467 0.0
C1274 C 0.82259 0.91269 0.41024 0.0
C1275 C 0.79428 0.87661 0.38459 0.0
C1276 C 0.79036 0.86491 0.36351 0.0
C1277 C 0.81979 0.89931 0.38956 0.0
C1278 C 0.81319 0.87491 0.34767 0.0
C1279 C 0.83903 0.8969 0.35259 0.0
H1280 H 0.78938 0.13231 0.11162 0.0
H1281 H 0.80816 0.10928 0.17808 0.0
H1282 H 0.85269 0.07106 0.16769 0.0
H1283 H 0.88436 0.04196 0.1396 0.0
H1284 H 0.86259 0.06181 0.0731 0.0
H1285 H 0.82138 0.10356 0.08354 0.0
C1286 C 0.80347 0.11915 0.12381 0.0
C1287 C 0.79559 0.12362 0.14557 0.0
C1288 C 0.82843 0.09654 0.11768 0.0
C1289 C 0.81375 0.10615 0.16121 0.0
C1290 C 0.83921 0.08431 0.15528 0.0
C1291 C 0.87083 0.05572 0.12743 0.0
C1292 C 0.87653 0.04894 0.10563 0.0
C1293 C 0.8465 0.079 0.13356 0.0
C1294 C 0.85856 0.0666 0.09 0.0
C1295 C 0.83499 0.09045 0.09595 0.0
H1296 H 0.63299 0.06652 0.90888 0.0
H1297 H 0.60344 0.04468 0.84388 0.0
H1298 H 0.64194 0.08694 0.83044 0.0
H1299 H 0.68752 0.12638 0.837 0.0
H1300 H 0.71567 0.15031 0.90189 0.0
H1301 H 0.67392 0.11118 0.91563 0.0
C1302 C 0.63474 0.07136 0.8918 0.0
C1303 C 0.61579 0.05231 0.87735 0.0
C1304 C 0.65674 0.09588 0.8842 0.0
C1305 C 0.61786 0.05902 0.85529 0.0
C1306 C 0.63996 0.08306 0.84759 0.0
C1307 C 0.68419 0.12327 0.85416 0.0
C1308 C 0.70478 0.14074 0.86846 0.0
C1309 C 0.66005 0.10105 0.86187 0.0
C1310 C 0.70003 0.13701 0.89062 0.0
C1311 C 0.67632 0.11455 0.89846 0.0
H1312 H 0.78412 0.58845 0.85765 0.0
H1313 H 0.84535 0.67269 0.87457 0.0
H1314 H 0.89175 0.63515 0.88305 0.0
H1315 H 0.91424 0.57772 0.88649 0.0
H1316 H 0.85029 0.49428 0.87225 0.0
H1317 H 0.8057 0.53208 0.8616 0.0
C1318 C 0.80766 0.59863 0.86312 0.0
C1319 C 0.81142 0.6332 0.86543 0.0
C1320 C 0.83376 0.57698 0.86834 0.0
C1321 C 0.8419 0.64607 0.87275 0.0
C1322 C 0.86842 0.62464 0.87752 0.0
C1323 C 0.89063 0.56802 0.88081 0.0
C1324 C 0.88547 0.53341 0.87994 0.0
C1325 C 0.8646 0.58999 0.87544 0.0
C1326 C 0.85468 0.5209 0.87298 0.0
C1327 C 0.82921 0.54246 0.86694 0.0
H1328 H 0.68831 0.62982 0.15909 0.0
H1329 H 0.73153 0.63925 0.09608 0.0
H1330 H 0.69292 0.59713 0.08229 0.0
H1331 H 0.64949 0.55474 0.08893 0.0
H1332 H 0.60494 0.54748 0.15171 0.0
H1333 H 0.64139 0.59172 0.16483 0.0
C1334 C 0.689 0.6229 0.14228 0.0
C1335 C 0.71283 0.63731 0.12864 0.0
C1336 C 0.66668 0.5989 0.13449 0.0
C1337 C 0.7133 0.62847 0.10686 0.0
C1338 C 0.69139 0.60427 0.09901 0.0
C1339 C 0.64768 0.56305 0.10543 0.0
C1340 C 0.62489 0.54768 0.11942 0.0
C1341 C 0.66842 0.58884 0.11279 0.0
C1342 C 0.62238 0.55892 0.14067 0.0
C1343 C 0.64324 0.58414 0.1482 0.0
H1344 H 0.69939 0.38443 0.33858 0.0
H1345 H 0.71512 0.35397 0.40415 0.0
H1346 H 0.67116 0.39177 0.41605 0.0
H1347 H 0.63086 0.4362 0.40803 0.0
H1348 H 0.61418 0.46563 0.34236 0.0
H1349 H 0.6557 0.42534 0.33025 0.0
C1350 C 0.69296 0.38587 0.35545 0.0
C1351 C 0.71063 0.36669 0.37049 0.0
C1352 C 0.6676 0.40756 0.36215 0.0
C1353 C 0.70188 0.36853 0.39227 0.0
C1354 C 0.67683 0.39022 0.39909 0.0
C1355 C 0.63613 0.43356 0.39106 0.0
C1356 C 0.61973 0.45403 0.37613 0.0
C1357 C 0.65993 0.41027 0.38421 0.0
C1358 C 0.62652 0.45016 0.35417 0.0
C1359 C 0.65034 0.42722 0.34724 0.0
H1360 H 0.86432 0.4516 0.63704 0.0
H1361 H 0.84502 0.43334 0.57005 0.0
H1362 H 0.8004 0.3945 0.57951 0.0
H1363 H 0.7649 0.368 0.60687 0.0
H1364 H 0.78221 0.38918 0.67376 0.0
H1365 H 0.82949 0.42455 0.66433 0.0
C1366 C 0.8506 0.43879 0.62453 0.0
C1367 C 0.85798 0.4452 0.60289 0.0
C1368 C 0.82442 0.41723 0.63008 0.0
C1369 C 0.83976 0.42878 0.58683 0.0
C1370 C 0.81421 0.40663 0.59223 0.0
C1371 C 0.77918 0.38021 0.61936 0.0
C1372 C 0.77005 0.37604 0.64096 0.0
C1373 C 0.80599 0.40103 0.6138 0.0
C1374 C 0.78864 0.39213 0.65699 0.0
C1375 C 0.81572 0.41232 0.65163 0.0
H1376 H 0.13267 0.43952 0.09061 0.0
H1377 H 0.11447 0.47885 0.15385 0.0
H1378 H 0.15228 0.4375 0.1693 0.0
H1379 H 0.19404 0.39333 0.16431 0.0
H1380 H 0.2103 0.35233 0.10127 0.0
H1381 H 0.16936 0.39092 0.08621 0.0
C1382 C 0.13677 0.43875 0.1078 0.0
C1383 C 0.12126 0.46235 0.12109 0.0
C1384 C 0.1582 0.41474 0.11654 0.0
C1385 C 0.12626 0.46091 0.14334 0.0
C1386 C 0.14794 0.43739 0.15215 0.0
C1387 C 0.18827 0.39262 0.14732 0.0
C1388 C 0.20533 0.37039 0.13384 0.0
C1389 C 0.16458 0.41466 0.13884 0.0
C1390 C 0.19743 0.3693 0.11193 0.0
C1391 C 0.17419 0.39145 0.10331 0.0
H1392 H 0.35531 0.47864 0.88147 0.0
H1393 H 0.43692 0.40926 0.88553 0.0
H1394 H 0.39972 0.36357 0.8748 0.0
H1395 H 0.34325 0.34359 0.86431 0.0
H1396 H 0.26375 0.4152 0.85806 0.0
H1397 H 0.30074 0.45972 0.86969 0.0
C1398 C 0.36499 0.4535 0.88004 0.0
C1399 C 0.39867 0.44722 0.88443 0.0
C1400 C 0.34374 0.42775 0.8735 0.0
C1401 C 0.411 0.41465 0.88221 0.0
C1402 C 0.38973 0.38856 0.87615 0.0
C1403 C 0.33418 0.36895 0.86558 0.0
C1404 C 0.30082 0.37612 0.86043 0.0
C1405 C 0.35595 0.3948 0.87179 0.0
C1406 C 0.28935 0.4091 0.86186 0.0
C1407 C 0.31046 0.43459 0.86854 0.0
H1408 H 0.36104 0.53478 0.64341 0.0
H1409 H 0.35641 0.57342 0.57892 0.0
H1410 H 0.3124 0.61205 0.58947 0.0
H1411 H 0.27312 0.63294 0.61662 0.0
H1412 H 0.27601 0.59228 0.68065 0.0
H1413 H 0.32268 0.55655 0.67074 0.0
C1414 C 0.35062 0.55192 0.63175 0.0
C1415 C 0.36195 0.55126 0.61044 0.0
C1416 C 0.3248 0.57359 0.63781 0.0
C1417 C 0.34805 0.5734 0.59544 0.0
C1418 C 0.32284 0.59548 0.60144 0.0
C1419 C 0.28414 0.61641 0.62841 0.0
C1420 C 0.27106 0.61519 0.6493 0.0
C1421 C 0.31068 0.59549 0.62251 0.0
C1422 C 0.2855 0.59356 0.66441 0.0
C1423 C 0.31223 0.57312 0.65877 0.0
H1424 H 0.11888 0.55949 0.35963 0.0
H1425 H 0.16217 0.54093 0.4218 0.0
H1426 H 0.20334 0.5847 0.41566 0.0
H1427 H 0.22876 0.62641 0.39196 0.0
H1428 H 0.18786 0.6427 0.32888 0.0
H1429 H 0.14402 0.60186 0.33602 0.0
C1430 C 0.13717 0.56528 0.37187 0.0
C1431 C 0.13753 0.54706 0.39112 0.0
C1432 C 0.16128 0.58998 0.36803 0.0
C1433 C 0.16151 0.55456 0.4068 0.0
C1434 C 0.18504 0.57958 0.40331 0.0
C1435 C 0.21006 0.62122 0.37987 0.0
C1436 C 0.21148 0.63752 0.35996 0.0
C1437 C 0.18542 0.59718 0.3839 0.0
C1438 C 0.18729 0.63037 0.34434 0.0
C1439 C 0.16224 0.60703 0.3484 0.0
loop_
_geom_bond_atom_site_label_1
_geom_bond_atom_site_label_2
_geom_bond_distance
_geom_bond_site_symmetry_2
_ccdc_geom_bond_type
In0 O1 2.294 . S
In0 O2 2.326 . S
In0 O6 2.266 . S
In0 O7 2.326 . S
In0 O8 2.266 . S
In0 O9 2.326 . S
In0 O11 2.294 . S
In0 O12 2.326 . S
O1 In0 2.294 . S
O1 C10 1.240 . S
O2 In0 2.326 . S
O2 C10 1.252 . S
C3 O6 1.252 . S
C3 O7 1.260 . S
C4 O11 1.240 . S
C4 O12 1.252 . S
C5 O8 1.252 . S
C5 O9 1.260 . S
O6 In0 2.266 . S
O6 C3 1.252 . S
O7 In0 2.326 . S
O7 C3 1.260 . S
O8 In0 2.266 . S
O8 C5 1.252 . S
O9 In0 2.326 . S
O9 C5 1.260 . S
C10 O1 1.240 . S
C10 O2 1.252 . S
O11 In0 2.294 . S
O11 C4 1.240 . S
O12 In0 2.326 . S
O12 C4 1.252 . S
In13 O14 2.294 1_565 S
In13 O15 2.326 . S
In13 O19 2.266 . S
In13 O20 2.326 . S
In13 O21 2.266 . S
In13 O22 2.313 1_565 S
In13 O24 2.294 . S
In13 O25 2.326 . S
O14 In13 2.294 1_545 S
O14 C23 1.240 . S
O15 In13 2.326 . S
O15 C23 1.252 1_565 S
C16 O19 1.252 . S
C16 O20 1.260 . S
C17 O24 1.240 . S
C17 O25 1.252 . S
C18 O21 1.252 . S
C18 O22 1.250 1_565 S
O19 In13 2.266 . S
O19 C16 1.252 . S
O20 In13 2.326 . S
O20 C16 1.260 . S
O21 In13 2.266 . S
O21 C18 1.252 . S
O22 In13 2.313 1_545 S
O22 C18 1.250 1_545 S
C23 O14 1.240 . S
C23 O15 1.252 1_545 S
O24 In13 2.294 . S
O24 C17 1.240 . S
O25 In13 2.326 . S
O25 C17 1.252 . S
In26 O27 2.294 . S
In26 O28 2.326 . S
In26 O32 2.266 . S
In26 O33 2.326 . S
In26 O34 2.266 . S
In26 O35 2.326 . S
In26 O37 2.294 . S
In26 O38 2.326 . S
O27 In26 2.294 . S
O27 C36 1.240 . S
O28 In26 2.326 . S
O28 C36 1.252 . S
C29 O32 1.252 . S
C29 O33 1.260 . S
C30 O37 1.240 . S
C30 O38 1.252 . S
C31 O34 1.252 . S
C31 O35 1.260 . S
O32 In26 2.266 . S
O32 C29 1.252 . S
O33 In26 2.326 . S
O33 C29 1.260 . S
O34 In26 2.266 . S
O34 C31 1.252 . S
O35 In26 2.326 . S
O35 C31 1.260 . S
C36 O27 1.240 . S
C36 O28 1.252 . S
O37 In26 2.294 . S
O37 C30 1.240 . S
O38 In26 2.326 . S
O38 C30 1.252 . S
In39 O40 2.294 1_545 S
In39 O41 2.326 . S
In39 O45 2.266 . S
In39 O46 2.326 . S
In39 O47 2.266 . S
In39 O48 2.313 1_545 S
In39 O50 2.294 . S
In39 O51 2.326 . S
O40 In39 2.294 1_565 S
O40 C49 1.240 . S
O41 In39 2.326 . S
O41 C49 1.252 1_545 S
C42 O45 1.252 . S
C42 O46 1.260 . S
C43 O50 1.240 . S
C43 O51 1.252 . S
C44 O47 1.252 . S
C44 O48 1.250 1_545 S
O45 In39 2.266 . S
O45 C42 1.252 . S
O46 In39 2.326 . S
O46 C42 1.260 . S
O47 In39 2.266 . S
O47 C44 1.252 . S
O48 In39 2.313 1_565 S
O48 C44 1.250 1_565 S
C49 O40 1.240 . S
C49 O41 1.252 1_565 S
O50 In39 2.294 . S
O50 C43 1.240 . S
O51 In39 2.326 . S
O51 C43 1.252 . S
In52 O53 2.294 . S
In52 O54 2.326 . S
In52 O58 2.266 . S
In52 O59 2.326 . S
In52 O60 2.266 . S
In52 O61 2.326 . S
In52 O63 2.294 . S
In52 O64 2.326 . S
O53 In52 2.294 . S
O53 C62 1.240 . S
O54 In52 2.326 . S
O54 C62 1.252 . S
C55 O58 1.252 . S
C55 O59 1.260 . S
C56 O63 1.240 . S
C56 O64 1.252 . S
C57 O60 1.252 . S
C57 O61 1.260 . S
O58 In52 2.266 . S
O58 C55 1.252 . S
O59 In52 2.326 . S
O59 C55 1.260 . S
O60 In52 2.266 . S
O60 C57 1.252 . S
O61 In52 2.326 . S
O61 C57 1.260 . S
C62 O53 1.240 . S
C62 O54 1.252 . S
O63 In52 2.294 . S
O63 C56 1.240 . S
O64 In52 2.326 . S
O64 C56 1.252 . S
In65 O66 2.294 1_565 S
In65 O67 2.326 . S
In65 O71 2.266 . S
In65 O72 2.326 . S
In65 O73 2.266 . S
In65 O74 2.313 1_565 S
In65 O76 2.294 . S
In65 O77 2.326 . S
O66 In65 2.294 1_545 S
O66 C75 1.240 . S
O67 In65 2.326 . S
O67 C75 1.252 1_565 S
C68 O71 1.252 . S
C68 O72 1.260 . S
C69 O76 1.240 . S
C69 O77 1.252 . S
C70 O73 1.252 . S
C70 O74 1.250 1_565 S
O71 In65 2.266 . S
O71 C68 1.252 . S
O72 In65 2.326 . S
O72 C68 1.260 . S
O73 In65 2.266 . S
O73 C70 1.252 . S
O74 In65 2.313 1_545 S
O74 C70 1.250 1_545 S
C75 O66 1.240 . S
C75 O67 1.252 1_545 S
O76 In65 2.294 . S
O76 C69 1.240 . S
O77 In65 2.326 . S
O77 C69 1.252 . S
In78 O79 2.294 . S
In78 O80 2.326 . S
In78 O84 2.266 . S
In78 O85 2.326 . S
In78 O86 2.266 . S
In78 O87 2.326 . S
In78 O89 2.294 . S
In78 O90 2.326 . S
O79 In78 2.294 . S
O79 C88 1.240 . S
O80 In78 2.326 . S
O80 C88 1.252 . S
C81 O84 1.252 . S
C81 O85 1.260 . S
C82 O89 1.240 . S
C82 O90 1.252 . S
C83 O86 1.252 . S
C83 O87 1.260 . S
O84 In78 2.266 . S
O84 C81 1.252 . S
O85 In78 2.326 . S
O85 C81 1.260 . S
O86 In78 2.266 . S
O86 C83 1.252 . S
O87 In78 2.326 . S
O87 C83 1.260 . S
C88 O79 1.240 . S
C88 O80 1.252 . S
O89 In78 2.294 . S
O89 C82 1.240 . S
O90 In78 2.326 . S
O90 C82 1.252 . S
In91 O92 2.294 . S
In91 O93 2.326 . S
In91 O97 2.266 . S
In91 O98 2.313 1_545 S
In91 O99 2.266 . S
In91 O100 2.326 . S
In91 O102 2.294 1_545 S
In91 O103 2.326 . S
O92 In91 2.294 . S
O92 C101 1.240 . S
O93 In91 2.326 . S
O93 C101 1.252 . S
C94 O97 1.252 . S
C94 O98 1.250 1_545 S
C95 O102 1.240 . S
C95 O103 1.252 1_565 S
C96 O99 1.252 . S
C96 O100 1.260 . S
O97 In91 2.266 . S
O97 C94 1.252 . S
O98 In91 2.313 1_565 S
O98 C94 1.250 1_565 S
O99 In91 2.266 . S
O99 C96 1.252 . S
O100 In91 2.326 . S
O100 C96 1.260 . S
C101 O92 1.240 . S
C101 O93 1.252 . S
O102 In91 2.294 1_565 S
O102 C95 1.240 . S
O103 In91 2.326 . S
O103 C95 1.252 1_545 S
In104 O105 2.294 . S
In104 O106 2.326 . S
In104 O110 2.266 . S
In104 O111 2.326 . S
In104 O112 2.266 . S
In104 O113 2.326 . S
In104 O115 2.294 . S
In104 O116 2.326 . S
O105 In104 2.294 . S
O105 C114 1.240 . S
O106 In104 2.326 . S
O106 C114 1.252 . S
C107 O110 1.252 . S
C107 O111 1.260 . S
C108 O115 1.240 . S
C108 O116 1.252 . S
C109 O112 1.252 . S
C109 O113 1.260 . S
O110 In104 2.266 . S
O110 C107 1.252 . S
O111 In104 2.326 . S
O111 C107 1.260 . S
O112 In104 2.266 . S
O112 C109 1.252 . S
O113 In104 2.326 . S
O113 C109 1.260 . S
C114 O105 1.240 . S
C114 O106 1.252 . S
O115 In104 2.294 . S
O115 C108 1.240 . S
O116 In104 2.326 . S
O116 C108 1.252 . S
In117 O118 2.294 . S
In117 O119 2.326 . S
In117 O123 2.266 1_545 S
In117 O124 2.326 . S
In117 O125 2.266 . S
In117 O126 2.326 . S
In117 O128 2.294 . S
In117 O129 2.342 . S
O118 In117 2.294 . S
O118 C127 1.240 . S
O119 In117 2.326 . S
O119 C127 1.252 . S
C120 O123 1.252 . S
C120 O124 1.260 1_565 S
C121 O128 1.240 . S
C121 O129 1.265 . S
C122 O125 1.252 . S
C122 O126 1.260 . S
O123 In117 2.266 1_565 S
O123 C120 1.252 . S
O124 In117 2.326 . S
O124 C120 1.260 1_545 S
O125 In117 2.266 . S
O125 C122 1.252 . S
O126 In117 2.326 . S
O126 C122 1.260 . S
C127 O118 1.240 . S
C127 O119 1.252 . S
O128 In117 2.294 . S
O128 C121 1.240 . S
O129 In117 2.342 . S
O129 C121 1.265 . S
In130 O131 2.294 . S
In130 O132 2.326 . S
In130 O136 2.266 . S
In130 O137 2.326 . S
In130 O138 2.266 . S
In130 O139 2.326 . S
In130 O141 2.294 . S
In130 O142 2.326 . S
O131 In130 2.294 . S
O131 C140 1.240 . S
O132 In130 2.326 . S
O132 C140 1.252 . S
C133 O136 1.252 . S
C133 O137 1.260 . S
C134 O141 1.240 . S
C134 O142 1.252 . S
C135 O138 1.252 . S
C135 O139 1.260 . S
O136 In130 2.266 . S
O136 C133 1.252 . S
O137 In130 2.326 . S
O137 C133 1.260 . S
O138 In130 2.266 . S
O138 C135 1.252 . S
O139 In130 2.326 . S
O139 C135 1.260 . S
C140 O131 1.240 . S
C140 O132 1.252 . S
O141 In130 2.294 . S
O141 C134 1.240 . S
O142 In130 2.326 . S
O142 C134 1.252 . S
In143 O144 2.294 . S
In143 O145 2.326 . S
In143 O149 2.266 1_565 S
In143 O150 2.326 . S
In143 O151 2.266 . S
In143 O152 2.326 . S
In143 O154 2.294 . S
In143 O155 2.342 . S
O144 In143 2.294 . S
O144 C153 1.240 . S
O145 In143 2.326 . S
O145 C153 1.252 . S
C146 O149 1.252 . S
C146 O150 1.260 1_545 S
C147 O154 1.240 . S
C147 O155 1.265 . S
C148 O151 1.252 . S
C148 O152 1.260 . S
O149 In143 2.266 1_545 S
O149 C146 1.252 . S
O150 In143 2.326 . S
O150 C146 1.260 1_565 S
O151 In143 2.266 . S
O151 C148 1.252 . S
O152 In143 2.326 . S
O152 C148 1.260 . S
C153 O144 1.240 . S
C153 O145 1.252 . S
O154 In143 2.294 . S
O154 C147 1.240 . S
O155 In143 2.342 . S
O155 C147 1.265 . S
In156 O157 2.294 . S
In156 O158 2.326 . S
In156 O162 2.266 . S
In156 O163 2.326 . S
In156 O164 2.266 . S
In156 O165 2.326 . S
In156 O167 2.294 . S
In156 O168 2.326 . S
O157 In156 2.294 . S
O157 C166 1.240 . S
O158 In156 2.326 . S
O158 C166 1.252 . S
C159 O162 1.252 . S
C159 O163 1.260 . S
C160 O167 1.240 . S
C160 O168 1.252 . S
C161 O164 1.252 . S
C161 O165 1.260 . S
O162 In156 2.266 . S
O162 C159 1.252 . S
O163 In156 2.326 . S
O163 C159 1.260 . S
O164 In156 2.266 . S
O164 C161 1.252 . S
O165 In156 2.326 . S
O165 C161 1.260 . S
C166 O157 1.240 . S
C166 O158 1.252 . S
O167 In156 2.294 . S
O167 C160 1.240 . S
O168 In156 2.326 . S
O168 C160 1.252 . S
In169 O170 2.294 . S
In169 O171 2.342 . S
In169 O175 2.266 . S
In169 O176 2.326 . S
In169 O177 2.266 1_545 S
In169 O178 2.326 . S
In169 O180 2.294 . S
In169 O181 2.326 . S
O170 In169 2.294 . S
O170 C179 1.240 . S
O171 In169 2.342 . S
O171 C179 1.265 . S
C172 O175 1.252 . S
C172 O176 1.260 . S
C173 O180 1.240 . S
C173 O181 1.252 . S
C174 O177 1.252 . S
C174 O178 1.260 1_565 S
O175 In169 2.266 . S
O175 C172 1.252 . S
O176 In169 2.326 . S
O176 C172 1.260 . S
O177 In169 2.266 1_565 S
O177 C174 1.252 . S
O178 In169 2.326 . S
O178 C174 1.260 1_545 S
C179 O170 1.240 . S
C179 O171 1.265 . S
O180 In169 2.294 . S
O180 C173 1.240 . S
O181 In169 2.326 . S
O181 C173 1.252 . S
In182 O183 2.294 . S
In182 O184 2.326 . S
In182 O188 2.266 . S
In182 O189 2.326 . S
In182 O190 2.266 . S
In182 O191 2.326 . S
In182 O193 2.294 . S
In182 O194 2.326 . S
O183 In182 2.294 . S
O183 C192 1.240 . S
O184 In182 2.326 . S
O184 C192 1.252 . S
C185 O188 1.252 . S
C185 O189 1.260 . S
C186 O193 1.240 . S
C186 O194 1.252 . S
C187 O190 1.252 . S
C187 O191 1.260 . S
O188 In182 2.266 . S
O188 C185 1.252 . S
O189 In182 2.326 . S
O189 C185 1.260 . S
O190 In182 2.266 . S
O190 C187 1.252 . S
O191 In182 2.326 . S
O191 C187 1.260 . S
C192 O183 1.240 . S
C192 O184 1.252 . S
O193 In182 2.294 . S
O193 C186 1.240 . S
O194 In182 2.326 . S
O194 C186 1.252 . S
In195 O196 2.294 . S
In195 O197 2.342 . S
In195 O201 2.266 . S
In195 O202 2.326 . S
In195 O203 2.266 1_565 S
In195 O204 2.326 . S
In195 O206 2.294 . S
In195 O207 2.326 . S
O196 In195 2.294 . S
O196 C205 1.240 . S
O197 In195 2.342 . S
O197 C205 1.265 . S
C198 O201 1.252 . S
C198 O202 1.260 . S
C199 O206 1.240 . S
C199 O207 1.252 . S
C200 O203 1.252 . S
C200 O204 1.260 1_545 S
O201 In195 2.266 . S
O201 C198 1.252 . S
O202 In195 2.326 . S
O202 C198 1.260 . S
O203 In195 2.266 1_545 S
O203 C200 1.252 . S
O204 In195 2.326 . S
O204 C200 1.260 1_565 S
C205 O196 1.240 . S
C205 O197 1.265 . S
O206 In195 2.294 . S
O206 C199 1.240 . S
O207 In195 2.326 . S
O207 C199 1.252 . S
In208 O209 2.294 . S
In208 O210 2.326 . S
In208 O214 2.266 . S
In208 O215 2.326 . S
In208 O216 2.266 . S
In208 O217 2.326 . S
In208 O219 2.294 . S
In208 O220 2.326 . S
O209 In208 2.294 . S
O209 C218 1.240 . S
O210 In208 2.326 . S
O210 C218 1.252 . S
C211 O214 1.252 . S
C211 O215 1.260 . S
C212 O219 1.240 . S
C212 O220 1.252 . S
C213 O216 1.252 . S
C213 O217 1.260 . S
O214 In208 2.266 . S
O214 C211 1.252 . S
O215 In208 2.326 . S
O215 C211 1.260 . S
O216 In208 2.266 . S
O216 C213 1.252 . S
O217 In208 2.326 . S
O217 C213 1.260 . S
C218 O209 1.240 . S
C218 O210 1.252 . S
O219 In208 2.294 . S
O219 C212 1.240 . S
O220 In208 2.326 . S
O220 C212 1.252 . S
In221 O222 2.294 . S
In221 O223 2.326 . S
In221 O227 2.266 . S
In221 O228 2.326 . S
In221 O229 2.266 . S
In221 O230 2.326 . S
In221 O232 2.294 . S
In221 O233 2.326 . S
O222 In221 2.294 . S
O222 C231 1.240 . S
O223 In221 2.326 . S
O223 C231 1.252 . S
C224 O227 1.252 . S
C224 O228 1.260 . S
C225 O232 1.240 . S
C225 O233 1.252 . S
C226 O229 1.252 . S
C226 O230 1.260 . S
O227 In221 2.266 . S
O227 C224 1.252 . S
O228 In221 2.326 . S
O228 C224 1.260 . S
O229 In221 2.266 . S
O229 C226 1.252 . S
O230 In221 2.326 . S
O230 C226 1.260 . S
C231 O222 1.240 . S
C231 O223 1.252 . S
O232 In221 2.294 . S
O232 C225 1.240 . S
O233 In221 2.326 . S
O233 C225 1.252 . S
In234 O235 2.294 . S
In234 O236 2.326 . S
In234 O240 2.266 . S
In234 O241 2.326 . S
In234 O242 2.266 . S
In234 O243 2.326 . S
In234 O245 2.294 . S
In234 O246 2.326 . S
O235 In234 2.294 . S
O235 C244 1.240 . S
O236 In234 2.326 . S
O236 C244 1.252 . S
C237 O240 1.252 . S
C237 O241 1.260 . S
C238 O245 1.240 . S
C238 O246 1.252 . S
C239 O242 1.252 . S
C239 O243 1.260 . S
O240 In234 2.266 . S
O240 C237 1.252 . S
O241 In234 2.326 . S
O241 C237 1.260 . S
O242 In234 2.266 . S
O242 C239 1.252 . S
O243 In234 2.326 . S
O243 C239 1.260 . S
C244 O235 1.240 . S
C244 O236 1.252 . S
O245 In234 2.294 . S
O245 C238 1.240 . S
O246 In234 2.326 . S
O246 C238 1.252 . S
In247 O248 2.294 . S
In247 O249 2.326 . S
In247 O253 2.266 . S
In247 O254 2.326 . S
In247 O255 2.266 . S
In247 O256 2.326 . S
In247 O258 2.294 . S
In247 O259 2.326 . S
O248 In247 2.294 . S
O248 C257 1.240 . S
O249 In247 2.326 . S
O249 C257 1.252 . S
C250 O253 1.252 . S
C250 O254 1.260 . S
C251 O258 1.240 . S
C251 O259 1.252 . S
C252 O255 1.252 . S
C252 O256 1.260 . S
O253 In247 2.266 . S
O253 C250 1.252 . S
O254 In247 2.326 . S
O254 C250 1.260 . S
O255 In247 2.266 . S
O255 C252 1.252 . S
O256 In247 2.326 . S
O256 C252 1.260 . S
C257 O248 1.240 . S
C257 O249 1.252 . S
O258 In247 2.294 . S
O258 C251 1.240 . S
O259 In247 2.326 . S
O259 C251 1.252 . S
In260 O261 2.294 . S
In260 O262 2.326 . S
In260 O266 2.266 . S
In260 O267 2.326 . S
In260 O268 2.266 . S
In260 O269 2.326 . S
In260 O271 2.294 . S
In260 O272 2.326 . S
O261 In260 2.294 . S
O261 C270 1.240 . S
O262 In260 2.326 . S
O262 C270 1.252 . S
C263 O266 1.252 . S
C263 O267 1.260 . S
C264 O271 1.240 . S
C264 O272 1.252 . S
C265 O268 1.252 . S
C265 O269 1.260 . S
O266 In260 2.266 . S
O266 C263 1.252 . S
O267 In260 2.326 . S
O267 C263 1.260 . S
O268 In260 2.266 . S
O268 C265 1.252 . S
O269 In260 2.326 . S
O269 C265 1.260 . S
C270 O261 1.240 . S
C270 O262 1.252 . S
O271 In260 2.294 . S
O271 C264 1.240 . S
O272 In260 2.326 . S
O272 C264 1.252 . S
In273 O274 2.294 . S
In273 O275 2.326 . S
In273 O279 2.266 . S
In273 O280 2.326 . S
In273 O281 2.266 . S
In273 O282 2.326 . S
In273 O284 2.294 . S
In273 O285 2.326 . S
O274 In273 2.294 . S
O274 C283 1.240 . S
O275 In273 2.326 . S
O275 C283 1.252 . S
C276 O279 1.252 . S
C276 O280 1.260 . S
C277 O284 1.240 . S
C277 O285 1.252 . S
C278 O281 1.252 . S
C278 O282 1.260 . S
O279 In273 2.266 . S
O279 C276 1.252 . S
O280 In273 2.326 . S
O280 C276 1.260 . S
O281 In273 2.266 . S
O281 C278 1.252 . S
O282 In273 2.326 . S
O282 C278 1.260 . S
C283 O274 1.240 . S
C283 O275 1.252 . S
O284 In273 2.294 . S
O284 C277 1.240 . S
O285 In273 2.326 . S
O285 C277 1.252 . S
In286 O287 2.294 . S
In286 O288 2.326 . S
In286 O292 2.266 . S
In286 O293 2.326 . S
In286 O294 2.266 . S
In286 O295 2.326 . S
In286 O297 2.294 . S
In286 O298 2.326 . S
O287 In286 2.294 . S
O287 C296 1.240 . S
O288 In286 2.326 . S
O288 C296 1.252 . S
C289 O292 1.252 . S
C289 O293 1.260 . S
C290 O297 1.240 . S
C290 O298 1.252 . S
C291 O294 1.252 . S
C291 O295 1.260 . S
O292 In286 2.266 . S
O292 C289 1.252 . S
O293 In286 2.326 . S
O293 C289 1.260 . S
O294 In286 2.266 . S
O294 C291 1.252 . S
O295 In286 2.326 . S
O295 C291 1.260 . S
C296 O287 1.240 . S
C296 O288 1.252 . S
O297 In286 2.294 . S
O297 C290 1.240 . S
O298 In286 2.326 . S
O298 C290 1.252 . S
In299 O300 2.294 . S
In299 O301 2.326 . S
In299 O305 2.266 . S
In299 O306 2.326 . S
In299 O307 2.266 . S
In299 O308 2.326 . S
In299 O310 2.294 . S
In299 O311 2.326 . S
O300 In299 2.294 . S
O300 C309 1.240 . S
O301 In299 2.326 . S
O301 C309 1.252 . S
C302 O305 1.252 . S
C302 O306 1.260 . S
C303 O310 1.240 . S
C303 O311 1.252 . S
C304 O307 1.252 . S
C304 O308 1.260 . S
O305 In299 2.266 . S
O305 C302 1.252 . S
O306 In299 2.326 . S
O306 C302 1.260 . S
O307 In299 2.266 . S
O307 C304 1.252 . S
O308 In299 2.326 . S
O308 C304 1.260 . S
C309 O300 1.240 . S
C309 O301 1.252 . S
O310 In299 2.294 . S
O310 C303 1.240 . S
O311 In299 2.326 . S
O311 C303 1.252 . S
In312 O313 2.294 . S
In312 O314 2.326 . S
In312 O318 2.266 . S
In312 O319 2.326 . S
In312 O320 2.266 . S
In312 O321 2.326 . S
In312 O323 2.294 . S
In312 O324 2.326 . S
O313 In312 2.294 . S
O313 C322 1.240 . S
O314 In312 2.326 . S
O314 C322 1.252 . S
C315 O318 1.252 . S
C315 O319 1.260 . S
C316 O323 1.240 . S
C316 O324 1.252 . S
C317 O320 1.252 . S
C317 O321 1.260 . S
O318 In312 2.266 . S
O318 C315 1.252 . S
O319 In312 2.326 . S
O319 C315 1.260 . S
O320 In312 2.266 . S
O320 C317 1.252 . S
O321 In312 2.326 . S
O321 C317 1.260 . S
C322 O313 1.240 . S
C322 O314 1.252 . S
O323 In312 2.294 . S
O323 C316 1.240 . S
O324 In312 2.326 . S
O324 C316 1.252 . S
In325 O326 2.294 . S
In325 O327 2.326 . S
In325 O331 2.266 . S
In325 O332 2.326 . S
In325 O333 2.266 . S
In325 O334 2.326 . S
In325 O336 2.294 . S
In325 O337 2.326 . S
O326 In325 2.294 . S
O326 C335 1.240 . S
O327 In325 2.326 . S
O327 C335 1.252 . S
C328 O331 1.252 . S
C328 O332 1.260 . S
C329 O336 1.240 . S
C329 O337 1.252 . S
C330 O333 1.252 . S
C330 O334 1.260 . S
O331 In325 2.266 . S
O331 C328 1.252 . S
O332 In325 2.326 . S
O332 C328 1.260 . S
O333 In325 2.266 . S
O333 C330 1.252 . S
O334 In325 2.326 . S
O334 C330 1.260 . S
C335 O326 1.240 . S
C335 O327 1.252 . S
O336 In325 2.294 . S
O336 C329 1.240 . S
O337 In325 2.326 . S
O337 C329 1.252 . S
In338 O339 2.294 . S
In338 O340 2.326 . S
In338 O344 2.266 . S
In338 O345 2.326 . S
In338 O346 2.266 . S
In338 O347 2.326 . S
In338 O349 2.294 . S
In338 O350 2.326 . S
O339 In338 2.294 . S
O339 C348 1.240 . S
O340 In338 2.326 . S
O340 C348 1.252 . S
C341 O344 1.252 . S
C341 O345 1.260 . S
C342 O349 1.240 . S
C342 O350 1.252 . S
C343 O346 1.252 . S
C343 O347 1.260 . S
O344 In338 2.266 . S
O344 C341 1.252 . S
O345 In338 2.326 . S
O345 C341 1.260 . S
O346 In338 2.266 . S
O346 C343 1.252 . S
O347 In338 2.326 . S
O347 C343 1.260 . S
C348 O339 1.240 . S
C348 O340 1.252 . S
O349 In338 2.294 . S
O349 C342 1.240 . S
O350 In338 2.326 . S
O350 C342 1.252 . S
In351 O352 2.294 . S
In351 O353 2.326 . S
In351 O357 2.266 . S
In351 O358 2.326 . S
In351 O359 2.266 . S
In351 O360 2.326 . S
In351 O362 2.294 . S
In351 O363 2.326 . S
O352 In351 2.294 . S
O352 C361 1.240 . S
O353 In351 2.326 . S
O353 C361 1.252 . S
C354 O357 1.252 . S
C354 O358 1.260 . S
C355 O362 1.240 . S
C355 O363 1.252 . S
C356 O359 1.252 . S
C356 O360 1.260 . S
O357 In351 2.266 . S
O357 C354 1.252 . S
O358 In351 2.326 . S
O358 C354 1.260 . S
O359 In351 2.266 . S
O359 C356 1.252 . S
O360 In351 2.326 . S
O360 C356 1.260 . S
C361 O352 1.240 . S
C361 O353 1.252 . S
O362 In351 2.294 . S
O362 C355 1.240 . S
O363 In351 2.326 . S
O363 C355 1.252 . S
In364 O365 2.294 . S
In364 O366 2.326 . S
In364 O370 2.266 . S
In364 O371 2.326 . S
In364 O372 2.266 . S
In364 O373 2.326 . S
In364 O375 2.294 . S
In364 O376 2.326 . S
O365 In364 2.294 . S
O365 C374 1.240 . S
O366 In364 2.326 . S
O366 C374 1.252 . S
C367 O370 1.252 . S
C367 O371 1.260 . S
C368 O375 1.240 . S
C368 O376 1.252 . S
C369 O372 1.252 . S
C369 O373 1.260 . S
O370 In364 2.266 . S
O370 C367 1.252 . S
O371 In364 2.326 . S
O371 C367 1.260 . S
O372 In364 2.266 . S
O372 C369 1.252 . S
O373 In364 2.326 . S
O373 C369 1.260 . S
C374 O365 1.240 . S
C374 O366 1.252 . S
O375 In364 2.294 . S
O375 C368 1.240 . S
O376 In364 2.326 . S
O376 C368 1.252 . S
In377 O378 2.294 . S
In377 O379 2.326 . S
In377 O383 2.266 . S
In377 O384 2.326 . S
In377 O385 2.266 . S
In377 O386 2.326 . S
In377 O388 2.294 . S
In377 O389 2.326 . S
O378 In377 2.294 . S
O378 C387 1.240 . S
O379 In377 2.326 . S
O379 C387 1.252 . S
C380 O383 1.252 . S
C380 O384 1.260 . S
C381 O388 1.240 . S
C381 O389 1.252 . S
C382 O385 1.252 . S
C382 O386 1.260 . S
O383 In377 2.266 . S
O383 C380 1.252 . S
O384 In377 2.326 . S
O384 C380 1.260 . S
O385 In377 2.266 . S
O385 C382 1.252 . S
O386 In377 2.326 . S
O386 C382 1.260 . S
C387 O378 1.240 . S
C387 O379 1.252 . S
O388 In377 2.294 . S
O388 C381 1.240 . S
O389 In377 2.326 . S
O389 C381 1.252 . S
In390 O391 2.294 . S
In390 O392 2.326 . S
In390 O396 2.266 . S
In390 O397 2.326 . S
In390 O398 2.266 . S
In390 O399 2.326 . S
In390 O401 2.294 . S
In390 O402 2.326 . S
O391 In390 2.294 . S
O391 C400 1.240 . S
O392 In390 2.326 . S
O392 C400 1.252 . S
C393 O396 1.252 . S
C393 O397 1.260 . S
C394 O401 1.240 . S
C394 O402 1.252 . S
C395 O398 1.252 . S
C395 O399 1.260 . S
O396 In390 2.266 . S
O396 C393 1.252 . S
O397 In390 2.326 . S
O397 C393 1.260 . S
O398 In390 2.266 . S
O398 C395 1.252 . S
O399 In390 2.326 . S
O399 C395 1.260 . S
C400 O391 1.240 . S
C400 O392 1.252 . S
O401 In390 2.294 . S
O401 C394 1.240 . S
O402 In390 2.326 . S
O402 C394 1.252 . S
In403 O404 2.294 . S
In403 O405 2.326 . S
In403 O409 2.266 . S
In403 O410 2.326 . S
In403 O411 2.266 . S
In403 O412 2.326 . S
In403 O414 2.294 . S
In403 O415 2.326 . S
O404 In403 2.294 . S
O404 C413 1.240 . S
O405 In403 2.326 . S
O405 C413 1.252 . S
C406 O409 1.252 . S
C406 O410 1.260 . S
C407 O414 1.240 . S
C407 O415 1.252 . S
C408 O411 1.252 . S
C408 O412 1.260 . S
O409 In403 2.266 . S
O409 C406 1.252 . S
O410 In403 2.326 . S
O410 C406 1.260 . S
O411 In403 2.266 . S
O411 C408 1.252 . S
O412 In403 2.326 . S
O412 C408 1.260 . S
C413 O404 1.240 . S
C413 O405 1.252 . S
O414 In403 2.294 . S
O414 C407 1.240 . S
O415 In403 2.326 . S
O415 C407 1.252 . S
H416 C422 0.930 . S
H417 C425 0.930 . S
H418 C426 0.930 . S
H419 C427 0.930 . S
H420 C430 0.930 . S
H421 C431 0.930 . S
C422 H416 0.930 . S
C422 C423 1.355 . S
C422 C424 1.415 . S
C423 C422 1.355 . S
C423 C425 1.419 . S
C424 C422 1.415 . S
C424 C429 1.425 . S
C424 C431 1.409 . S
C425 H417 0.930 . S
C425 C423 1.419 . S
C425 C426 1.362 . S
C426 H418 0.930 . S
C426 C425 1.362 . S
C426 C429 1.409 . S
C427 H419 0.930 . S
C427 C428 1.355 . S
C427 C429 1.415 . S
C428 C427 1.355 . S
C428 C430 1.419 . S
C429 C424 1.425 . S
C429 C426 1.409 . S
C429 C427 1.415 . S
C430 H420 0.930 . S
C430 C428 1.419 . S
C430 C431 1.362 . S
C431 H421 0.930 . S
C431 C424 1.409 . S
C431 C430 1.362 . S
H432 C438 0.930 . S
H433 C441 0.930 . S
H434 C442 0.930 . S
H435 C443 0.930 . S
H436 C446 0.930 . S
H437 C447 0.930 . S
C438 H432 0.930 . S
C438 C439 1.355 . S
C438 C440 1.415 . S
C439 C438 1.355 . S
C439 C441 1.419 . S
C440 C438 1.415 . S
C440 C445 1.425 . S
C440 C447 1.409 . S
C441 H433 0.930 . S
C441 C439 1.419 . S
C441 C442 1.362 . S
C442 H434 0.930 . S
C442 C441 1.362 . S
C442 C445 1.409 . S
C443 H435 0.930 . S
C443 C444 1.355 . S
C443 C445 1.415 . S
C444 C443 1.355 . S
C444 C446 1.419 . S
C445 C440 1.425 . S
C445 C442 1.409 . S
C445 C443 1.415 . S
C446 H436 0.930 . S
C446 C444 1.419 . S
C446 C447 1.362 . S
C447 H437 0.930 . S
C447 C440 1.409 . S
C447 C446 1.362 . S
H448 C454 0.930 . S
H449 C457 0.930 . S
H450 C458 0.930 . S
H451 C459 0.930 . S
H452 C462 0.930 . S
H453 C463 0.930 . S
C454 H448 0.930 . S
C454 C455 1.355 . S
C454 C456 1.415 . S
C455 C454 1.355 . S
C455 C457 1.419 . S
C456 C454 1.415 . S
C456 C461 1.425 . S
C456 C463 1.409 . S
C457 H449 0.930 . S
C457 C455 1.419 . S
C457 C458 1.362 . S
C458 H450 0.930 . S
C458 C457 1.362 . S
C458 C461 1.409 . S
C459 H451 0.930 . S
C459 C460 1.355 . S
C459 C461 1.415 . S
C460 C459 1.355 . S
C460 C462 1.419 . S
C461 C456 1.425 . S
C461 C458 1.409 . S
C461 C459 1.415 . S
C462 H452 0.930 . S
C462 C460 1.419 . S
C462 C463 1.362 . S
C463 H453 0.930 . S
C463 C456 1.409 . S
C463 C462 1.362 . S
H464 C470 0.930 . S
H465 C473 0.930 . S
H466 C474 0.930 . S
H467 C475 0.930 . S
H468 C478 0.930 . S
H469 C479 0.930 . S
C470 H464 0.930 . S
C470 C471 1.355 . S
C470 C472 1.415 . S
C471 C470 1.355 . S
C471 C473 1.419 . S
C472 C470 1.415 . S
C472 C477 1.425 . S
C472 C479 1.409 . S
C473 H465 0.930 . S
C473 C471 1.419 . S
C473 C474 1.362 . S
C474 H466 0.930 . S
C474 C473 1.362 . S
C474 C477 1.409 . S
C475 H467 0.930 . S
C475 C476 1.355 . S
C475 C477 1.415 . S
C476 C475 1.355 . S
C476 C478 1.419 . S
C477 C472 1.425 . S
C477 C474 1.409 . S
C477 C475 1.415 . S
C478 H468 0.930 . S
C478 C476 1.419 . S
C478 C479 1.362 . S
C479 H469 0.930 . S
C479 C472 1.409 . S
C479 C478 1.362 . S
H480 C486 0.930 . S
H481 C489 0.930 . S
H482 C490 0.930 . S
H483 C491 0.930 . S
H484 C494 0.930 . S
H485 C495 0.930 . S
C486 H480 0.930 . S
C486 C487 1.355 . S
C486 C488 1.415 . S
C487 C486 1.355 . S
C487 C489 1.419 . S
C488 C486 1.415 . S
C488 C493 1.425 . S
C488 C495 1.409 . S
C489 H481 0.930 . S
C489 C487 1.419 . S
C489 C490 1.362 . S
C490 H482 0.930 . S
C490 C489 1.362 . S
C490 C493 1.409 . S
C491 H483 0.930 . S
C491 C492 1.355 . S
C491 C493 1.415 . S
C492 C491 1.355 . S
C492 C494 1.419 . S
C493 C488 1.425 . S
C493 C490 1.409 . S
C493 C491 1.415 . S
C494 H484 0.930 . S
C494 C492 1.419 . S
C494 C495 1.362 . S
C495 H485 0.930 . S
C495 C488 1.409 . S
C495 C494 1.362 . S
H496 C502 0.930 . S
H497 C505 0.930 . S
H498 C506 0.930 . S
H499 C507 0.930 . S
H500 C510 0.930 . S
H501 C511 0.930 . S
C502 H496 0.930 . S
C502 C503 1.355 . S
C502 C504 1.415 . S
C503 C502 1.355 . S
C503 C505 1.419 . S
C504 C502 1.415 . S
C504 C509 1.425 . S
C504 C511 1.409 . S
C505 H497 0.930 . S
C505 C503 1.419 . S
C505 C506 1.362 . S
C506 H498 0.930 . S
C506 C505 1.362 . S
C506 C509 1.409 . S
C507 H499 0.930 . S
C507 C508 1.355 . S
C507 C509 1.415 . S
C508 C507 1.355 . S
C508 C510 1.419 . S
C509 C504 1.425 . S
C509 C506 1.409 . S
C509 C507 1.415 . S
C510 H500 0.930 . S
C510 C508 1.419 . S
C510 C511 1.362 . S
C511 H501 0.930 . S
C511 C504 1.409 . S
C511 C510 1.362 . S
H512 C518 0.930 . S
H513 C521 0.930 . S
H514 C522 0.930 . S
H515 C523 0.930 . S
H516 C526 0.930 . S
H517 C527 0.930 . S
C518 H512 0.930 . S
C518 C519 1.355 . S
C518 C520 1.415 . S
C519 C518 1.355 . S
C519 C521 1.419 . S
C520 C518 1.415 . S
C520 C525 1.425 . S
C520 C527 1.409 . S
C521 H513 0.930 . S
C521 C519 1.419 . S
C521 C522 1.362 . S
C522 H514 0.930 . S
C522 C521 1.362 . S
C522 C525 1.409 . S
C523 H515 0.930 . S
C523 C524 1.355 . S
C523 C525 1.415 . S
C524 C523 1.355 . S
C524 C526 1.419 . S
C525 C520 1.425 . S
C525 C522 1.409 . S
C525 C523 1.415 . S
C526 H516 0.930 . S
C526 C524 1.419 . S
C526 C527 1.362 . S
C527 H517 0.930 . S
C527 C520 1.409 . S
C527 C526 1.362 . S
H528 C534 0.930 . S
H529 C537 0.930 . S
H530 C538 0.930 . S
H531 C539 0.930 . S
H532 C542 0.930 . S
H533 C543 0.930 . S
C534 H528 0.930 . S
C534 C535 1.355 . S
C534 C536 1.415 . S
C535 C534 1.355 . S
C535 C537 1.419 . S
C536 C534 1.415 . S
C536 C541 1.425 . S
C536 C543 1.409 . S
C537 H529 0.930 . S
C537 C535 1.419 . S
C537 C538 1.362 . S
C538 H530 0.930 . S
C538 C537 1.362 . S
C538 C541 1.409 . S
C539 H531 0.930 . S
C539 C540 1.355 . S
C539 C541 1.415 . S
C540 C539 1.355 . S
C540 C542 1.419 . S
C541 C536 1.425 . S
C541 C538 1.409 . S
C541 C539 1.415 . S
C542 H532 0.930 . S
C542 C540 1.419 . S
C542 C543 1.362 . S
C543 H533 0.930 . S
C543 C536 1.409 . S
C543 C542 1.362 . S
H544 C550 0.930 . S
H545 C553 0.930 . S
H546 C554 0.930 . S
H547 C555 0.930 . S
H548 C558 0.930 . S
H549 C559 0.930 . S
C550 H544 0.930 . S
C550 C551 1.355 . S
C550 C552 1.415 . S
C551 C550 1.355 . S
C551 C553 1.419 . S
C552 C550 1.415 . S
C552 C557 1.425 . S
C552 C559 1.409 . S
C553 H545 0.930 . S
C553 C551 1.419 . S
C553 C554 1.362 . S
C554 H546 0.930 . S
C554 C553 1.362 . S
C554 C557 1.409 . S
C555 H547 0.930 . S
C555 C556 1.355 . S
C555 C557 1.415 . S
C556 C555 1.355 . S
C556 C558 1.419 . S
C557 C552 1.425 . S
C557 C554 1.409 . S
C557 C555 1.415 . S
C558 H548 0.930 . S
C558 C556 1.419 . S
C558 C559 1.362 . S
C559 H549 0.930 . S
C559 C552 1.409 . S
C559 C558 1.362 . S
H560 C566 0.930 . S
H561 C569 0.930 . S
H562 C570 0.930 . S
H563 C571 0.930 . S
H564 C574 0.930 . S
H565 C575 0.930 . S
C566 H560 0.930 . S
C566 C567 1.355 . S
C566 C568 1.415 . S
C567 C566 1.355 . S
C567 C569 1.419 . S
C568 C566 1.415 . S
C568 C573 1.425 . S
C568 C575 1.409 . S
C569 H561 0.930 . S
C569 C567 1.419 . S
C569 C570 1.362 . S
C570 H562 0.930 . S
C570 C569 1.362 . S
C570 C573 1.409 . S
C571 H563 0.930 . S
C571 C572 1.355 . S
C571 C573 1.415 . S
C572 C571 1.355 . S
C572 C574 1.419 . S
C573 C568 1.425 . S
C573 C570 1.409 . S
C573 C571 1.415 . S
C574 H564 0.930 . S
C574 C572 1.419 . S
C574 C575 1.362 . S
C575 H565 0.930 . S
C575 C568 1.409 . S
C575 C574 1.362 . S
H576 C582 0.930 . S
H577 C585 0.930 . S
H578 C586 0.930 . S
H579 C587 0.930 . S
H580 C590 0.930 . S
H581 C591 0.930 . S
C582 H576 0.930 . S
C582 C583 1.355 . S
C582 C584 1.415 . S
C583 C582 1.355 . S
C583 C585 1.419 . S
C584 C582 1.415 . S
C584 C589 1.425 . S
C584 C591 1.409 . S
C585 H577 0.930 . S
C585 C583 1.419 . S
C585 C586 1.362 . S
C586 H578 0.930 . S
C586 C585 1.362 . S
C586 C589 1.409 . S
C587 H579 0.930 . S
C587 C588 1.355 . S
C587 C589 1.415 . S
C588 C587 1.355 . S
C588 C590 1.419 . S
C589 C584 1.425 . S
C589 C586 1.409 . S
C589 C587 1.415 . S
C590 H580 0.930 . S
C590 C588 1.419 . S
C590 C591 1.362 . S
C591 H581 0.930 . S
C591 C584 1.409 . S
C591 C590 1.362 . S
H592 C598 0.930 . S
H593 C601 0.930 . S
H594 C602 0.930 . S
H595 C603 0.930 . S
H596 C606 0.930 . S
H597 C607 0.930 . S
C598 H592 0.930 . S
C598 C599 1.355 . S
C598 C600 1.415 . S
C599 C598 1.355 . S
C599 C601 1.419 . S
C600 C598 1.415 . S
C600 C605 1.425 . S
C600 C607 1.409 . S
C601 H593 0.930 . S
C601 C599 1.419 . S
C601 C602 1.362 . S
C602 H594 0.930 . S
C602 C601 1.362 . S
C602 C605 1.409 . S
C603 H595 0.930 . S
C603 C604 1.355 . S
C603 C605 1.415 . S
C604 C603 1.355 . S
C604 C606 1.419 . S
C605 C600 1.425 . S
C605 C602 1.409 . S
C605 C603 1.415 . S
C606 H596 0.930 . S
C606 C604 1.419 . S
C606 C607 1.362 . S
C607 H597 0.930 . S
C607 C600 1.409 . S
C607 C606 1.362 . S
H608 C614 0.930 . S
H609 C617 0.930 . S
H610 C618 0.930 . S
H611 C619 0.930 . S
H612 C622 0.930 . S
H613 C623 0.930 . S
C614 H608 0.930 . S
C614 C615 1.355 . S
C614 C616 1.415 . S
C615 C614 1.355 . S
C615 C617 1.419 . S
C616 C614 1.415 . S
C616 C621 1.425 . S
C616 C623 1.409 . S
C617 H609 0.930 . S
C617 C615 1.419 . S
C617 C618 1.362 . S
C618 H610 0.930 . S
C618 C617 1.362 . S
C618 C621 1.409 . S
C619 H611 0.930 . S
C619 C620 1.355 . S
C619 C621 1.415 . S
C620 C619 1.355 . S
C620 C622 1.419 . S
C621 C616 1.425 . S
C621 C618 1.409 . S
C621 C619 1.415 . S
C622 H612 0.930 . S
C622 C620 1.419 . S
C622 C623 1.362 . S
C623 H613 0.930 . S
C623 C616 1.409 . S
C623 C622 1.362 . S
H624 C630 0.930 . S
H625 C633 0.930 . S
H626 C634 0.930 . S
H627 C635 0.930 . S
H628 C638 0.930 . S
H629 C639 0.930 . S
C630 H624 0.930 . S
C630 C631 1.355 . S
C630 C632 1.415 . S
C631 C630 1.355 . S
C631 C633 1.419 . S
C632 C630 1.415 . S
C632 C637 1.425 . S
C632 C639 1.409 . S
C633 H625 0.930 . S
C633 C631 1.419 . S
C633 C634 1.362 . S
C634 H626 0.930 . S
C634 C633 1.362 . S
C634 C637 1.409 . S
C635 H627 0.930 . S
C635 C636 1.355 . S
C635 C637 1.415 . S
C636 C635 1.355 . S
C636 C638 1.419 . S
C637 C632 1.425 . S
C637 C634 1.409 . S
C637 C635 1.415 . S
C638 H628 0.930 . S
C638 C636 1.419 . S
C638 C639 1.362 . S
C639 H629 0.930 . S
C639 C632 1.409 . S
C639 C638 1.362 . S
H640 C646 0.930 . S
H641 C649 0.930 . S
H642 C650 0.930 . S
H643 C651 0.930 . S
H644 C654 0.930 . S
H645 C655 0.930 . S
C646 H640 0.930 . S
C646 C647 1.355 . S
C646 C648 1.415 . S
C647 C646 1.355 . S
C647 C649 1.419 . S
C648 C646 1.415 . S
C648 C653 1.425 . S
C648 C655 1.409 . S
C649 H641 0.930 . S
C649 C647 1.419 . S
C649 C650 1.362 . S
C650 H642 0.930 . S
C650 C649 1.362 . S
C650 C653 1.409 . S
C651 H643 0.930 . S
C651 C652 1.355 . S
C651 C653 1.415 . S
C652 C651 1.355 . S
C652 C654 1.419 . S
C653 C648 1.425 . S
C653 C650 1.409 . S
C653 C651 1.415 . S
C654 H644 0.930 . S
C654 C652 1.419 . S
C654 C655 1.362 . S
C655 H645 0.930 . S
C655 C648 1.409 . S
C655 C654 1.362 . S
H656 C662 0.930 . S
H657 C665 0.930 . S
H658 C666 0.930 . S
H659 C667 0.930 . S
H660 C670 0.930 . S
H661 C671 0.930 . S
C662 H656 0.930 . S
C662 C663 1.355 . S
C662 C664 1.415 . S
C663 C662 1.355 . S
C663 C665 1.419 . S
C664 C662 1.415 . S
C664 C669 1.425 . S
C664 C671 1.409 . S
C665 H657 0.930 . S
C665 C663 1.419 . S
C665 C666 1.362 . S
C666 H658 0.930 . S
C666 C665 1.362 . S
C666 C669 1.409 . S
C667 H659 0.930 . S
C667 C668 1.355 . S
C667 C669 1.415 . S
C668 C667 1.355 . S
C668 C670 1.419 . S
C669 C664 1.425 . S
C669 C666 1.409 . S
C669 C667 1.415 . S
C670 H660 0.930 . S
C670 C668 1.419 . S
C670 C671 1.362 . S
C671 H661 0.930 . S
C671 C664 1.409 . S
C671 C670 1.362 . S
H672 C678 0.930 . S
H673 C681 0.930 . S
H674 C682 0.930 . S
H675 C683 0.930 . S
H676 C686 0.930 . S
H677 C687 0.930 . S
C678 H672 0.930 . S
C678 C679 1.355 . S
C678 C680 1.415 . S
C679 C678 1.355 . S
C679 C681 1.419 . S
C680 C678 1.415 . S
C680 C685 1.425 . S
C680 C687 1.409 . S
C681 H673 0.930 . S
C681 C679 1.419 . S
C681 C682 1.362 . S
C682 H674 0.930 . S
C682 C681 1.362 . S
C682 C685 1.409 . S
C683 H675 0.930 . S
C683 C684 1.355 . S
C683 C685 1.415 . S
C684 C683 1.355 . S
C684 C686 1.419 . S
C685 C680 1.425 . S
C685 C682 1.409 . S
C685 C683 1.415 . S
C686 H676 0.930 . S
C686 C684 1.419 . S
C686 C687 1.362 . S
C687 H677 0.930 . S
C687 C680 1.409 . S
C687 C686 1.362 . S
H688 C694 0.930 . S
H689 C697 0.930 . S
H690 C698 0.930 . S
H691 C699 0.930 . S
H692 C702 0.930 . S
H693 C703 0.930 . S
C694 H688 0.930 . S
C694 C695 1.355 . S
C694 C696 1.415 . S
C695 C694 1.355 . S
C695 C697 1.419 . S
C696 C694 1.415 . S
C696 C701 1.425 . S
C696 C703 1.409 . S
C697 H689 0.930 . S
C697 C695 1.419 . S
C697 C698 1.362 . S
C698 H690 0.930 . S
C698 C697 1.362 . S
C698 C701 1.409 . S
C699 H691 0.930 . S
C699 C700 1.355 . S
C699 C701 1.415 . S
C700 C699 1.355 . S
C700 C702 1.419 . S
C701 C696 1.425 . S
C701 C698 1.409 . S
C701 C699 1.415 . S
C702 H692 0.930 . S
C702 C700 1.419 . S
C702 C703 1.362 . S
C703 H693 0.930 . S
C703 C696 1.409 . S
C703 C702 1.362 . S
H704 C710 0.930 . S
H705 C713 0.930 . S
H706 C714 0.930 . S
H707 C715 0.930 . S
H708 C718 0.930 . S
H709 C719 0.930 . S
C710 H704 0.930 . S
C710 C711 1.355 . S
C710 C712 1.415 . S
C711 C710 1.355 . S
C711 C713 1.419 . S
C712 C710 1.415 . S
C712 C717 1.425 . S
C712 C719 1.409 . S
C713 H705 0.930 . S
C713 C711 1.419 . S
C713 C714 1.362 . S
C714 H706 0.930 . S
C714 C713 1.362 . S
C714 C717 1.409 . S
C715 H707 0.930 . S
C715 C716 1.355 . S
C715 C717 1.415 . S
C716 C715 1.355 . S
C716 C718 1.419 . S
C717 C712 1.425 . S
C717 C714 1.409 . S
C717 C715 1.415 . S
C718 H708 0.930 . S
C718 C716 1.419 . S
C718 C719 1.362 . S
C719 H709 0.930 . S
C719 C712 1.409 . S
C719 C718 1.362 . S
H720 C726 0.930 . S
H721 C729 0.930 . S
H722 C730 0.930 . S
H723 C731 0.930 . S
H724 C734 0.930 . S
H725 C735 0.930 . S
C726 H720 0.930 . S
C726 C727 1.355 . S
C726 C728 1.415 . S
C727 C726 1.355 . S
C727 C729 1.419 . S
C728 C726 1.415 . S
C728 C733 1.425 . S
C728 C735 1.409 . S
C729 H721 0.930 . S
C729 C727 1.419 . S
C729 C730 1.362 . S
C730 H722 0.930 . S
C730 C729 1.362 . S
C730 C733 1.409 . S
C731 H723 0.930 . S
C731 C732 1.355 . S
C731 C733 1.415 . S
C732 C731 1.355 . S
C732 C734 1.419 . S
C733 C728 1.425 . S
C733 C730 1.409 . S
C733 C731 1.415 . S
C734 H724 0.930 . S
C734 C732 1.419 . S
C734 C735 1.362 . S
C735 H725 0.930 . S
C735 C728 1.409 . S
C735 C734 1.362 . S
H736 C742 0.930 . S
H737 C745 0.930 . S
H738 C746 0.930 . S
H739 C747 0.930 . S
H740 C750 0.930 . S
H741 C751 0.930 . S
C742 H736 0.930 . S
C742 C743 1.355 . S
C742 C744 1.415 . S
C743 C742 1.355 . S
C743 C745 1.419 . S
C744 C742 1.415 . S
C744 C749 1.425 . S
C744 C751 1.409 . S
C745 H737 0.930 . S
C745 C743 1.419 . S
C745 C746 1.362 . S
C746 H738 0.930 . S
C746 C745 1.362 . S
C746 C749 1.409 . S
C747 H739 0.930 . S
C747 C748 1.355 . S
C747 C749 1.415 . S
C748 C747 1.355 . S
C748 C750 1.419 . S
C749 C744 1.425 . S
C749 C746 1.409 . S
C749 C747 1.415 . S
C750 H740 0.930 . S
C750 C748 1.419 . S
C750 C751 1.362 . S
C751 H741 0.930 . S
C751 C744 1.409 . S
C751 C750 1.362 . S
H752 C758 0.930 . S
H753 C761 0.930 . S
H754 C762 0.930 . S
H755 C763 0.930 . S
H756 C766 0.903 1_655 S
H757 C767 0.930 . S
C758 H752 0.930 . S
C758 C759 1.355 . S
C758 C760 1.415 . S
C759 C758 1.355 . S
C759 C761 1.419 . S
C760 C758 1.415 . S
C760 C765 1.425 . S
C760 C767 1.409 . S
C761 H753 0.930 . S
C761 C759 1.419 . S
C761 C762 1.362 . S
C762 H754 0.930 . S
C762 C761 1.362 . S
C762 C765 1.409 . S
C763 H755 0.930 . S
C763 C764 1.355 . S
C763 C765 1.415 . S
C764 C763 1.355 . S
C764 C766 1.419 . S
C765 C760 1.425 . S
C765 C762 1.409 . S
C765 C763 1.415 . S
C766 H756 0.903 1_455 S
C766 C764 1.419 . S
C766 C767 1.362 . S
C767 H757 0.930 . S
C767 C760 1.409 . S
C767 C766 1.362 . S
H768 C774 0.930 . S
H769 C777 0.930 . S
H770 C778 0.930 . S
H771 C779 0.930 . S
H772 C782 0.930 . S
H773 C783 0.930 . S
C774 H768 0.930 . S
C774 C775 1.355 . S
C774 C776 1.415 . S
C775 C774 1.355 . S
C775 C777 1.419 . S
C776 C774 1.415 . S
C776 C781 1.425 . S
C776 C783 1.409 . S
C777 H769 0.930 . S
C777 C775 1.419 . S
C777 C778 1.362 . S
C778 H770 0.930 . S
C778 C777 1.362 . S
C778 C781 1.409 . S
C779 H771 0.930 . S
C779 C780 1.355 . S
C779 C781 1.415 . S
C780 C779 1.355 . S
C780 C782 1.419 . S
C781 C776 1.425 . S
C781 C778 1.409 . S
C781 C779 1.415 . S
C782 H772 0.930 . S
C782 C780 1.419 . S
C782 C783 1.362 . S
C783 H773 0.930 . S
C783 C776 1.409 . S
C783 C782 1.362 . S
H784 C790 0.930 . S
H785 C793 0.930 . S
H786 C794 0.930 . S
H787 C795 0.930 . S
H788 C798 0.930 . S
H789 C799 0.930 . S
C790 H784 0.930 . S
C790 C791 1.355 . S
C790 C792 1.415 . S
C791 C790 1.355 . S
C791 C793 1.419 . S
C792 C790 1.415 . S
C792 C797 1.425 . S
C792 C799 1.409 . S
C793 H785 0.930 . S
C793 C791 1.419 . S
C793 C794 1.362 . S
C794 H786 0.930 . S
C794 C793 1.362 . S
C794 C797 1.409 . S
C795 H787 0.930 . S
C795 C796 1.355 . S
C795 C797 1.415 . S
C796 C795 1.355 . S
C796 C798 1.419 . S
C797 C792 1.425 . S
C797 C794 1.409 . S
C797 C795 1.415 . S
C798 H788 0.930 . S
C798 C796 1.419 . S
C798 C799 1.362 . S
C799 H789 0.930 . S
C799 C792 1.409 . S
C799 C798 1.362 . S
H800 C806 0.930 . S
H801 C809 0.930 . S
H802 C810 0.930 . S
H803 C811 0.930 . S
H804 C814 0.930 . S
H805 C815 0.930 . S
C806 H800 0.930 . S
C806 C807 1.355 . S
C806 C808 1.415 . S
C807 C806 1.355 . S
C807 C809 1.419 . S
C808 C806 1.415 . S
C808 C813 1.425 . S
C808 C815 1.409 . S
C809 H801 0.930 . S
C809 C807 1.419 . S
C809 C810 1.362 . S
C810 H802 0.930 . S
C810 C809 1.362 . S
C810 C813 1.409 . S
C811 H803 0.930 . S
C811 C812 1.355 . S
C811 C813 1.415 . S
C812 C811 1.355 . S
C812 C814 1.419 . S
C813 C808 1.425 . S
C813 C810 1.409 . S
C813 C811 1.415 . S
C814 H804 0.930 . S
C814 C812 1.419 . S
C814 C815 1.362 . S
C815 H805 0.930 . S
C815 C808 1.409 . S
C815 C814 1.362 . S
H816 C822 0.930 . S
H817 C825 0.930 . S
H818 C826 0.930 . S
H819 C827 0.930 . S
H820 C830 0.930 . S
H821 C831 0.930 . S
C822 H816 0.930 . S
C822 C823 1.355 . S
C822 C824 1.415 . S
C823 C822 1.355 . S
C823 C825 1.419 . S
C824 C822 1.415 . S
C824 C829 1.425 . S
C824 C831 1.409 . S
C825 H817 0.930 . S
C825 C823 1.419 . S
C825 C826 1.362 . S
C826 H818 0.930 . S
C826 C825 1.362 . S
C826 C829 1.409 . S
C827 H819 0.930 . S
C827 C828 1.355 . S
C827 C829 1.415 . S
C828 C827 1.355 . S
C828 C830 1.419 . S
C829 C824 1.425 . S
C829 C826 1.409 . S
C829 C827 1.415 . S
C830 H820 0.930 . S
C830 C828 1.419 . S
C830 C831 1.362 . S
C831 H821 0.930 . S
C831 C824 1.409 . S
C831 C830 1.362 . S
H832 C838 0.930 . S
H833 C841 0.930 . S
H834 C842 0.930 . S
H835 C843 0.930 . S
H836 C846 0.930 . S
H837 C847 0.930 . S
C838 H832 0.930 . S
C838 C839 1.355 . S
C838 C840 1.415 . S
C839 C838 1.355 . S
C839 C841 1.419 . S
C840 C838 1.415 . S
C840 C845 1.425 . S
C840 C847 1.409 . S
C841 H833 0.930 . S
C841 C839 1.419 . S
C841 C842 1.362 . S
C842 H834 0.930 . S
C842 C841 1.362 . S
C842 C845 1.409 . S
C843 H835 0.930 . S
C843 C844 1.355 . S
C843 C845 1.415 . S
C844 C843 1.355 . S
C844 C846 1.419 . S
C845 C840 1.425 . S
C845 C842 1.409 . S
C845 C843 1.415 . S
C846 H836 0.930 . S
C846 C844 1.419 . S
C846 C847 1.362 . S
C847 H837 0.930 . S
C847 C840 1.409 . S
C847 C846 1.362 . S
H848 C854 0.930 . S
H849 C857 0.930 . S
H850 C858 0.930 . S
H851 C859 0.930 . S
H852 C862 0.930 . S
H853 C863 0.930 . S
C854 H848 0.930 . S
C854 C855 1.355 . S
C854 C856 1.415 . S
C855 C854 1.355 . S
C855 C857 1.419 . S
C856 C854 1.415 . S
C856 C861 1.425 . S
C856 C863 1.409 . S
C857 H849 0.930 . S
C857 C855 1.419 . S
C857 C858 1.362 . S
C858 H850 0.930 . S
C858 C857 1.362 . S
C858 C861 1.409 . S
C859 H851 0.930 . S
C859 C860 1.355 . S
C859 C861 1.415 . S
C860 C859 1.355 . S
C860 C862 1.419 . S
C861 C856 1.425 . S
C861 C858 1.409 . S
C861 C859 1.415 . S
C862 H852 0.930 . S
C862 C860 1.419 . S
C862 C863 1.362 . S
C863 H853 0.930 . S
C863 C856 1.409 . S
C863 C862 1.362 . S
H864 C870 0.930 . S
H865 C873 0.930 . S
H866 C874 0.930 . S
H867 C875 0.930 . S
H868 C878 0.930 . S
H869 C879 0.930 . S
C870 H864 0.930 . S
C870 C871 1.355 . S
C870 C872 1.415 . S
C871 C870 1.355 . S
C871 C873 1.419 . S
C872 C870 1.415 . S
C872 C877 1.425 . S
C872 C879 1.409 . S
C873 H865 0.930 . S
C873 C871 1.419 . S
C873 C874 1.362 . S
C874 H866 0.930 . S
C874 C873 1.362 . S
C874 C877 1.409 . S
C875 H867 0.930 . S
C875 C876 1.355 . S
C875 C877 1.415 . S
C876 C875 1.355 . S
C876 C878 1.419 . S
C877 C872 1.425 . S
C877 C874 1.409 . S
C877 C875 1.415 . S
C878 H868 0.930 . S
C878 C876 1.419 . S
C878 C879 1.362 . S
C879 H869 0.930 . S
C879 C872 1.409 . S
C879 C878 1.362 . S
H880 C886 0.930 . S
H881 C889 0.930 . S
H882 C890 0.930 . S
H883 C891 0.930 . S
H884 C894 0.930 . S
H885 C895 0.930 . S
C886 H880 0.930 . S
C886 C887 1.355 . S
C886 C888 1.415 . S
C887 C886 1.355 . S
C887 C889 1.419 . S
C888 C886 1.415 . S
C888 C893 1.425 . S
C888 C895 1.409 . S
C889 H881 0.930 . S
C889 C887 1.419 . S
C889 C890 1.362 . S
C890 H882 0.930 . S
C890 C889 1.362 . S
C890 C893 1.409 . S
C891 H883 0.930 . S
C891 C892 1.355 . S
C891 C893 1.415 . S
C892 C891 1.355 . S
C892 C894 1.419 . S
C893 C888 1.425 . S
C893 C890 1.409 . S
C893 C891 1.415 . S
C894 H884 0.930 . S
C894 C892 1.419 . S
C894 C895 1.362 . S
C895 H885 0.930 . S
C895 C888 1.409 . S
C895 C894 1.362 . S
H896 C902 0.930 . S
H897 C905 0.930 . S
H898 C906 0.930 . S
H899 C907 0.930 . S
H900 C910 0.930 . S
H901 C911 0.930 . S
C902 H896 0.930 . S
C902 C903 1.355 . S
C902 C904 1.415 . S
C903 C902 1.355 . S
C903 C905 1.419 . S
C904 C902 1.415 . S
C904 C909 1.425 . S
C904 C911 1.409 . S
C905 H897 0.930 . S
C905 C903 1.419 . S
C905 C906 1.362 . S
C906 H898 0.930 . S
C906 C905 1.362 . S
C906 C909 1.409 . S
C907 H899 0.930 . S
C907 C908 1.355 . S
C907 C909 1.415 . S
C908 C907 1.355 . S
C908 C910 1.419 . S
C909 C904 1.425 . S
C909 C906 1.409 . S
C909 C907 1.415 . S
C910 H900 0.930 . S
C910 C908 1.419 . S
C910 C911 1.362 . S
C911 H901 0.930 . S
C911 C904 1.409 . S
C911 C910 1.362 . S
H912 C918 0.930 . S
H913 C921 0.930 . S
H914 C922 0.930 . S
H915 C923 0.930 . S
H916 C926 0.930 . S
H917 C927 0.930 . S
C918 H912 0.930 . S
C918 C919 1.355 . S
C918 C920 1.415 . S
C919 C918 1.355 . S
C919 C921 1.419 . S
C920 C918 1.415 . S
C920 C925 1.425 . S
C920 C927 1.409 . S
C921 H913 0.930 . S
C921 C919 1.419 . S
C921 C922 1.362 . S
C922 H914 0.930 . S
C922 C921 1.362 . S
C922 C925 1.409 . S
C923 H915 0.930 . S
C923 C924 1.355 . S
C923 C925 1.415 . S
C924 C923 1.355 . S
C924 C926 1.419 . S
C925 C920 1.425 . S
C925 C922 1.409 . S
C925 C923 1.415 . S
C926 H916 0.930 . S
C926 C924 1.419 . S
C926 C927 1.362 . S
C927 H917 0.930 . S
C927 C920 1.409 . S
C927 C926 1.362 . S
H928 C934 0.930 . S
H929 C937 0.930 . S
H930 C938 0.930 . S
H931 C939 0.930 . S
H932 C942 0.930 . S
H933 C943 0.930 . S
C934 H928 0.930 . S
C934 C935 1.355 . S
C934 C936 1.415 . S
C935 C934 1.355 . S
C935 C937 1.419 . S
C936 C934 1.415 . S
C936 C941 1.425 . S
C936 C943 1.409 . S
C937 H929 0.930 . S
C937 C935 1.419 . S
C937 C938 1.362 . S
C938 H930 0.930 . S
C938 C937 1.362 . S
C938 C941 1.409 . S
C939 H931 0.930 . S
C939 C940 1.355 . S
C939 C941 1.415 . S
C940 C939 1.355 . S
C940 C942 1.419 . S
C941 C936 1.425 . S
C941 C938 1.409 . S
C941 C939 1.415 . S
C942 H932 0.930 . S
C942 C940 1.419 . S
C942 C943 1.362 . S
C943 H933 0.930 . S
C943 C936 1.409 . S
C943 C942 1.362 . S
H944 C950 0.930 . S
H945 C953 0.930 . S
H946 C954 0.930 . S
H947 C955 0.930 . S
H948 C958 0.930 . S
H949 C959 0.930 . S
C950 H944 0.930 . S
C950 C951 1.355 1_545 S
C950 C952 1.415 . S
C951 C950 1.355 1_565 S
C951 C953 1.419 1_455 S
C952 C950 1.415 . S
C952 C957 1.425 1_445 S
C952 C959 1.409 . S
C953 H945 0.930 . S
C953 C951 1.419 1_655 S
C953 C954 1.362 . S
C954 H946 0.930 . S
C954 C953 1.362 . S
C954 C957 1.409 . S
C955 H947 0.930 . S
C955 C956 1.355 1_565 S
C955 C957 1.415 . S
C956 C955 1.355 1_545 S
C956 C958 1.419 1_655 S
C957 C952 1.425 1_665 S
C957 C954 1.409 . S
C957 C955 1.415 . S
C958 H948 0.930 . S
C958 C956 1.419 1_455 S
C958 C959 1.362 . S
C959 H949 0.930 . S
C959 C952 1.409 . S
C959 C958 1.362 . S
H960 C966 0.930 . S
H961 C969 0.930 . S
H962 C970 0.930 . S
H963 C971 0.930 . S
H964 C974 0.930 . S
H965 C975 0.930 . S
C966 H960 0.930 . S
C966 C967 1.355 . S
C966 C968 1.415 . S
C967 C966 1.355 . S
C967 C969 1.419 . S
C968 C966 1.415 . S
C968 C973 1.425 . S
C968 C975 1.409 . S
C969 H961 0.930 . S
C969 C967 1.419 . S
C969 C970 1.362 . S
C970 H962 0.930 . S
C970 C969 1.362 . S
C970 C973 1.409 . S
C971 H963 0.930 . S
C971 C972 1.355 . S
C971 C973 1.415 . S
C972 C971 1.355 . S
C972 C974 1.419 . S
C973 C968 1.425 . S
C973 C970 1.409 . S
C973 C971 1.415 . S
C974 H964 0.930 . S
C974 C972 1.419 . S
C974 C975 1.362 . S
C975 H965 0.930 . S
C975 C968 1.409 . S
C975 C974 1.362 . S
H976 C982 0.930 . S
H977 C985 0.930 . S
H978 C986 0.930 1_556 S
H979 C987 0.930 . S
H980 C990 0.930 . S
H981 C991 0.930 1_554 S
C982 H976 0.930 . S
C982 C983 1.355 . S
C982 C984 1.415 . S
C983 C982 1.355 . S
C983 C985 1.419 1_545 S
C984 C982 1.415 . S
C984 C989 1.425 1_544 S
C984 C991 1.409 1_554 S
C985 H977 0.930 . S
C985 C983 1.419 1_565 S
C985 C986 1.362 . S
C986 H978 0.930 1_554 S
C986 C985 1.362 . S
C986 C989 1.409 1_554 S
C987 H979 0.930 . S
C987 C988 1.355 . S
C987 C989 1.415 . S
C988 C987 1.355 . S
C988 C990 1.419 1_565 S
C989 C984 1.425 1_566 S
C989 C986 1.409 1_556 S
C989 C987 1.415 . S
C990 H980 0.930 . S
C990 C988 1.419 1_545 S
C990 C991 1.362 . S
C991 H981 0.930 1_556 S
C991 C984 1.409 1_556 S
C991 C990 1.362 . S
H992 C998 0.930 . S
H993 C1001 0.930 . S
H994 C1002 0.930 . S
H995 C1003 0.930 . S
H996 C1006 0.930 . S
H997 C1007 0.930 . S
C998 H992 0.930 . S
C998 C999 1.355 . S
C998 C1000 1.415 . S
C999 C998 1.355 . S
C999 C1001 1.419 . S
C1000 C998 1.415 . S
C1000 C1005 1.425 . S
C1000 C1007 1.409 . S
C1001 H993 0.930 . S
C1001 C999 1.419 . S
C1001 C1002 1.362 . S
C1002 H994 0.930 . S
C1002 C1001 1.362 . S
C1002 C1005 1.409 . S
C1003 H995 0.930 . S
C1003 C1004 1.355 . S
C1003 C1005 1.415 . S
C1004 C1003 1.355 . S
C1004 C1006 1.419 . S
C1005 C1000 1.425 . S
C1005 C1002 1.409 . S
C1005 C1003 1.415 . S
C1006 H996 0.930 . S
C1006 C1004 1.419 . S
C1006 C1007 1.362 . S
C1007 H997 0.930 . S
C1007 C1000 1.409 . S
C1007 C1006 1.362 . S
H1008 C1014 0.927 1_545 S
H1009 C1017 0.930 . S
H1010 C1018 0.930 . S
H1011 C1019 0.929 1_565 S
H1012 C1022 0.930 . S
H1013 C1023 0.930 . S
C1014 H1008 0.927 1_565 S
C1014 C1015 1.358 . S
C1014 C1016 1.414 1_565 S
C1015 C1014 1.358 . S
C1015 C1017 1.419 . S
C1016 C1014 1.414 1_545 S
C1016 C1021 1.425 1_545 S
C1016 C1023 1.409 . S
C1017 H1009 0.930 . S
C1017 C1015 1.419 . S
C1017 C1018 1.362 . S
C1018 H1010 0.930 . S
C1018 C1017 1.362 . S
C1018 C1021 1.409 . S
C1019 H1011 0.929 1_545 S
C1019 C1020 1.356 . S
C1019 C1021 1.414 1_545 S
C1020 C1019 1.356 . S
C1020 C1022 1.419 . S
C1021 C1016 1.425 1_565 S
C1021 C1018 1.409 . S
C1021 C1019 1.414 1_565 S
C1022 H1012 0.930 . S
C1022 C1020 1.419 . S
C1022 C1023 1.362 . S
C1023 H1013 0.930 . S
C1023 C1016 1.409 . S
C1023 C1022 1.362 . S
H1024 C1030 0.930 . S
H1025 C1033 0.930 . S
H1026 C1034 0.930 . S
H1027 C1035 0.930 . S
H1028 C1038 0.930 . S
H1029 C1039 0.930 . S
C1030 H1024 0.930 . S
C1030 C1031 1.355 . S
C1030 C1032 1.415 . S
C1031 C1030 1.355 . S
C1031 C1033 1.419 . S
C1032 C1030 1.415 . S
C1032 C1037 1.425 . S
C1032 C1039 1.409 . S
C1033 H1025 0.930 . S
C1033 C1031 1.419 . S
C1033 C1034 1.362 . S
C1034 H1026 0.930 . S
C1034 C1033 1.362 . S
C1034 C1037 1.409 . S
C1035 H1027 0.930 . S
C1035 C1036 1.355 . S
C1035 C1037 1.415 . S
C1036 C1035 1.355 . S
C1036 C1038 1.419 . S
C1037 C1032 1.425 . S
C1037 C1034 1.409 . S
C1037 C1035 1.415 . S
C1038 H1028 0.930 . S
C1038 C1036 1.419 . S
C1038 C1039 1.362 . S
C1039 H1029 0.930 . S
C1039 C1032 1.409 . S
C1039 C1038 1.362 . S
H1040 C1046 0.949 . S
H1041 C1049 0.930 . S
H1042 C1050 0.930 1_554 S
H1043 C1051 0.950 . S
H1044 C1054 0.930 . S
H1045 C1055 0.930 1_556 S
C1046 H1040 0.949 . S
C1046 C1047 1.327 1_655 S
C1046 C1048 1.424 . S
C1047 C1046 1.327 1_455 S
C1047 C1049 1.419 1_545 S
C1048 C1046 1.424 . S
C1048 C1053 1.425 1_646 S
C1048 C1055 1.409 1_556 S
C1049 H1041 0.930 . S
C1049 C1047 1.419 1_565 S
C1049 C1050 1.362 . S
C1050 H1042 0.930 1_556 S
C1050 C1049 1.362 . S
C1050 C1053 1.409 1_556 S
C1051 H1043 0.950 . S
C1051 C1052 1.325 1_455 S
C1051 C1053 1.425 . S
C1052 C1051 1.325 1_655 S
C1052 C1054 1.419 1_565 S
C1053 C1048 1.425 1_464 S
C1053 C1050 1.409 1_554 S
C1053 C1051 1.425 . S
C1054 H1044 0.930 . S
C1054 C1052 1.419 1_545 S
C1054 C1055 1.362 . S
C1055 H1045 0.930 1_554 S
C1055 C1048 1.409 1_554 S
C1055 C1054 1.362 . S
H1056 C1062 0.930 . S
H1057 C1065 0.930 . S
H1058 C1066 0.930 . S
H1059 C1067 0.930 . S
H1060 C1070 0.930 . S
H1061 C1071 0.930 . S
C1062 H1056 0.930 . S
C1062 C1063 1.355 . S
C1062 C1064 1.415 . S
C1063 C1062 1.355 . S
C1063 C1065 1.419 . S
C1064 C1062 1.415 . S
C1064 C1069 1.425 . S
C1064 C1071 1.409 . S
C1065 H1057 0.930 . S
C1065 C1063 1.419 . S
C1065 C1066 1.362 . S
C1066 H1058 0.930 . S
C1066 C1065 1.362 . S
C1066 C1069 1.409 . S
C1067 H1059 0.930 . S
C1067 C1068 1.355 . S
C1067 C1069 1.415 . S
C1068 C1067 1.355 . S
C1068 C1070 1.419 . S
C1069 C1064 1.425 . S
C1069 C1066 1.409 . S
C1069 C1067 1.415 . S
C1070 H1060 0.930 . S
C1070 C1068 1.419 . S
C1070 C1071 1.362 . S
C1071 H1061 0.930 . S
C1071 C1064 1.409 . S
C1071 C1070 1.362 . S
H1072 C1078 0.930 . S
H1073 C1081 0.930 . S
H1074 C1082 0.930 . S
H1075 C1083 0.930 . S
H1076 C1086 0.930 . S
H1077 C1087 0.930 . S
C1078 H1072 0.930 . S
C1078 C1079 1.355 . S
C1078 C1080 1.415 . S
C1079 C1078 1.355 . S
C1079 C1081 1.419 . S
C1080 C1078 1.415 . S
C1080 C1085 1.425 . S
C1080 C1087 1.409 . S
C1081 H1073 0.930 . S
C1081 C1079 1.419 . S
C1081 C1082 1.362 . S
C1082 H1074 0.930 . S
C1082 C1081 1.362 . S
C1082 C1085 1.409 . S
C1083 H1075 0.930 . S
C1083 C1084 1.355 . S
C1083 C1085 1.415 . S
C1084 C1083 1.355 . S
C1084 C1086 1.419 . S
C1085 C1080 1.425 . S
C1085 C1082 1.409 . S
C1085 C1083 1.415 . S
C1086 H1076 0.930 . S
C1086 C1084 1.419 . S
C1086 C1087 1.362 . S
C1087 H1077 0.930 . S
C1087 C1080 1.409 . S
C1087 C1086 1.362 . S
H1088 C1094 0.930 . S
H1089 C1097 0.930 . S
H1090 C1098 0.930 . S
H1091 C1099 0.930 . S
H1092 C1102 0.930 . S
H1093 C1103 0.930 . S
C1094 H1088 0.930 . S
C1094 C1095 1.355 . S
C1094 C1096 1.415 . S
C1095 C1094 1.355 . S
C1095 C1097 1.419 . S
C1096 C1094 1.415 . S
C1096 C1101 1.425 . S
C1096 C1103 1.409 . S
C1097 H1089 0.930 . S
C1097 C1095 1.419 . S
C1097 C1098 1.362 . S
C1098 H1090 0.930 . S
C1098 C1097 1.362 . S
C1098 C1101 1.409 . S
C1099 H1091 0.930 . S
C1099 C1100 1.355 . S
C1099 C1101 1.415 . S
C1100 C1099 1.355 . S
C1100 C1102 1.419 . S
C1101 C1096 1.425 . S
C1101 C1098 1.409 . S
C1101 C1099 1.415 . S
C1102 H1092 0.930 . S
C1102 C1100 1.419 . S
C1102 C1103 1.362 . S
C1103 H1093 0.930 . S
C1103 C1096 1.409 . S
C1103 C1102 1.362 . S
H1104 C1110 0.930 . S
H1105 C1113 0.930 . S
H1106 C1114 0.930 . S
H1107 C1115 0.930 . S
H1108 C1118 0.930 . S
H1109 C1119 0.930 . S
C1110 H1104 0.930 . S
C1110 C1111 1.355 . S
C1110 C1112 1.415 . S
C1111 C1110 1.355 . S
C1111 C1113 1.419 . S
C1112 C1110 1.415 . S
C1112 C1117 1.425 . S
C1112 C1119 1.409 . S
C1113 H1105 0.930 . S
C1113 C1111 1.419 . S
C1113 C1114 1.362 . S
C1114 H1106 0.930 . S
C1114 C1113 1.362 . S
C1114 C1117 1.409 . S
C1115 H1107 0.930 . S
C1115 C1116 1.355 . S
C1115 C1117 1.415 . S
C1116 C1115 1.355 . S
C1116 C1118 1.419 . S
C1117 C1112 1.425 . S
C1117 C1114 1.409 . S
C1117 C1115 1.415 . S
C1118 H1108 0.930 . S
C1118 C1116 1.419 . S
C1118 C1119 1.362 . S
C1119 H1109 0.930 . S
C1119 C1112 1.409 . S
C1119 C1118 1.362 . S
H1120 C1126 0.930 . S
H1121 C1129 0.930 . S
H1122 C1130 0.930 . S
H1123 C1131 0.930 . S
H1124 C1134 0.930 . S
H1125 C1135 0.930 . S
C1126 H1120 0.930 . S
C1126 C1127 1.355 . S
C1126 C1128 1.415 . S
C1127 C1126 1.355 . S
C1127 C1129 1.419 . S
C1128 C1126 1.415 . S
C1128 C1133 1.425 1_554 S
C1128 C1135 1.409 1_554 S
C1129 H1121 0.930 . S
C1129 C1127 1.419 . S
C1129 C1130 1.362 . S
C1130 H1122 0.930 . S
C1130 C1129 1.362 . S
C1130 C1133 1.409 1_554 S
C1131 H1123 0.930 . S
C1131 C1132 1.355 . S
C1131 C1133 1.415 . S
C1132 C1131 1.355 . S
C1132 C1134 1.419 . S
C1133 C1128 1.425 1_556 S
C1133 C1130 1.409 1_556 S
C1133 C1131 1.415 . S
C1134 H1124 0.930 . S
C1134 C1132 1.419 . S
C1134 C1135 1.362 . S
C1135 H1125 0.930 . S
C1135 C1128 1.409 1_556 S
C1135 C1134 1.362 . S
H1136 C1142 0.930 . S
H1137 C1145 0.930 . S
H1138 C1146 0.930 . S
H1139 C1147 0.930 . S
H1140 C1150 0.930 . S
H1141 C1151 0.930 . S
C1142 H1136 0.930 . S
C1142 C1143 1.355 . S
C1142 C1144 1.415 1_455 S
C1143 C1142 1.355 . S
C1143 C1145 1.419 . S
C1144 C1142 1.415 1_655 S
C1144 C1149 1.425 1_655 S
C1144 C1151 1.409 . S
C1145 H1137 0.930 . S
C1145 C1143 1.419 . S
C1145 C1146 1.362 . S
C1146 H1138 0.930 . S
C1146 C1145 1.362 . S
C1146 C1149 1.409 . S
C1147 H1139 0.930 . S
C1147 C1148 1.355 . S
C1147 C1149 1.415 1_655 S
C1148 C1147 1.355 . S
C1148 C1150 1.419 . S
C1149 C1144 1.425 1_455 S
C1149 C1146 1.409 . S
C1149 C1147 1.415 1_455 S
C1150 H1140 0.930 . S
C1150 C1148 1.419 . S
C1150 C1151 1.362 . S
C1151 H1141 0.930 . S
C1151 C1144 1.409 . S
C1151 C1150 1.362 . S
H1152 C1158 0.930 . S
H1153 C1161 0.930 . S
H1154 C1162 0.930 . S
H1155 C1163 0.930 . S
H1156 C1166 0.930 . S
H1157 C1167 0.930 . S
C1158 H1152 0.930 . S
C1158 C1159 1.355 . S
C1158 C1160 1.411 . S
C1159 C1158 1.355 . S
C1159 C1161 1.419 1_455 S
C1160 C1158 1.411 . S
C1160 C1165 1.425 1_454 S
C1160 C1167 1.412 1_554 S
C1161 H1153 0.930 . S
C1161 C1159 1.419 1_655 S
C1161 C1162 1.362 . S
C1162 H1154 0.930 . S
C1162 C1161 1.362 . S
C1162 C1165 1.378 1_554 S
C1163 H1155 0.930 . S
C1163 C1164 1.355 . S
C1163 C1165 1.448 . S
C1164 C1163 1.355 . S
C1164 C1166 1.419 1_655 S
C1165 C1160 1.425 1_656 S
C1165 C1162 1.378 1_556 S
C1165 C1163 1.448 . S
C1166 H1156 0.930 . S
C1166 C1164 1.419 1_455 S
C1166 C1167 1.362 . S
C1167 H1157 0.930 . S
C1167 C1160 1.412 1_556 S
C1167 C1166 1.362 . S
H1168 C1174 0.930 . S
H1169 C1177 0.930 . S
H1170 C1178 0.930 . S
H1171 C1179 0.930 . S
H1172 C1182 0.930 . S
H1173 C1183 0.930 . S
C1174 H1168 0.930 . S
C1174 C1175 1.355 . S
C1174 C1176 1.415 . S
C1175 C1174 1.355 . S
C1175 C1177 1.419 . S
C1176 C1174 1.415 . S
C1176 C1181 1.425 . S
C1176 C1183 1.409 . S
C1177 H1169 0.930 . S
C1177 C1175 1.419 . S
C1177 C1178 1.362 . S
C1178 H1170 0.930 . S
C1178 C1177 1.362 . S
C1178 C1181 1.409 . S
C1179 H1171 0.930 . S
C1179 C1180 1.355 . S
C1179 C1181 1.415 . S
C1180 C1179 1.355 . S
C1180 C1182 1.419 . S
C1181 C1176 1.425 . S
C1181 C1178 1.409 . S
C1181 C1179 1.415 . S
C1182 H1172 0.930 . S
C1182 C1180 1.419 . S
C1182 C1183 1.362 . S
C1183 H1173 0.930 . S
C1183 C1176 1.409 . S
C1183 C1182 1.362 . S
H1184 C1190 0.930 . S
H1185 C1193 0.930 . S
H1186 C1194 0.930 . S
H1187 C1195 0.930 . S
H1188 C1198 0.930 . S
H1189 C1199 0.930 . S
C1190 H1184 0.930 . S
C1190 C1191 1.355 . S
C1190 C1192 1.415 . S
C1191 C1190 1.355 . S
C1191 C1193 1.419 . S
C1192 C1190 1.415 . S
C1192 C1197 1.425 . S
C1192 C1199 1.409 . S
C1193 H1185 0.930 . S
C1193 C1191 1.419 . S
C1193 C1194 1.362 . S
C1194 H1186 0.930 . S
C1194 C1193 1.362 . S
C1194 C1197 1.409 . S
C1195 H1187 0.930 . S
C1195 C1196 1.355 . S
C1195 C1197 1.415 . S
C1196 C1195 1.355 . S
C1196 C1198 1.419 . S
C1197 C1192 1.425 . S
C1197 C1194 1.409 . S
C1197 C1195 1.415 . S
C1198 H1188 0.930 . S
C1198 C1196 1.419 . S
C1198 C1199 1.362 . S
C1199 H1189 0.930 . S
C1199 C1192 1.409 . S
C1199 C1198 1.362 . S
H1200 C1206 0.930 . S
H1201 C1209 0.930 . S
H1202 C1210 0.930 . S
H1203 C1211 0.930 . S
H1204 C1214 0.930 . S
H1205 C1215 0.930 . S
C1206 H1200 0.930 . S
C1206 C1207 1.355 . S
C1206 C1208 1.415 . S
C1207 C1206 1.355 . S
C1207 C1209 1.419 . S
C1208 C1206 1.415 . S
C1208 C1213 1.425 . S
C1208 C1215 1.409 . S
C1209 H1201 0.930 . S
C1209 C1207 1.419 . S
C1209 C1210 1.362 . S
C1210 H1202 0.930 . S
C1210 C1209 1.362 . S
C1210 C1213 1.409 . S
C1211 H1203 0.930 . S
C1211 C1212 1.355 . S
C1211 C1213 1.415 . S
C1212 C1211 1.355 . S
C1212 C1214 1.419 . S
C1213 C1208 1.425 . S
C1213 C1210 1.409 . S
C1213 C1211 1.415 . S
C1214 H1204 0.930 . S
C1214 C1212 1.419 . S
C1214 C1215 1.362 . S
C1215 H1205 0.930 . S
C1215 C1208 1.409 . S
C1215 C1214 1.362 . S
H1216 C1222 0.930 . S
H1217 C1225 0.930 . S
H1218 C1226 0.930 . S
H1219 C1227 0.930 . S
H1220 C1230 0.930 . S
H1221 C1231 0.930 . S
C1222 H1216 0.930 . S
C1222 C1223 1.355 . S
C1222 C1224 1.415 . S
C1223 C1222 1.355 . S
C1223 C1225 1.419 . S
C1224 C1222 1.415 . S
C1224 C1229 1.425 . S
C1224 C1231 1.409 . S
C1225 H1217 0.930 . S
C1225 C1223 1.419 . S
C1225 C1226 1.362 . S
C1226 H1218 0.930 . S
C1226 C1225 1.362 . S
C1226 C1229 1.409 . S
C1227 H1219 0.930 . S
C1227 C1228 1.355 . S
C1227 C1229 1.415 . S
C1228 C1227 1.355 . S
C1228 C1230 1.419 . S
C1229 C1224 1.425 . S
C1229 C1226 1.409 . S
C1229 C1227 1.415 . S
C1230 H1220 0.930 . S
C1230 C1228 1.419 . S
C1230 C1231 1.362 . S
C1231 H1221 0.930 . S
C1231 C1224 1.409 . S
C1231 C1230 1.362 . S
H1232 C1238 0.930 . S
H1233 C1241 0.930 . S
H1234 C1242 0.930 . S
H1235 C1243 0.930 . S
H1236 C1246 0.930 1_545 S
H1237 C1247 0.930 . S
C1238 H1232 0.930 . S
C1238 C1239 1.355 . S
C1238 C1240 1.415 . S
C1239 C1238 1.355 . S
C1239 C1241 1.419 . S
C1240 C1238 1.415 . S
C1240 C1245 1.425 . S
C1240 C1247 1.409 . S
C1241 H1233 0.930 . S
C1241 C1239 1.419 . S
C1241 C1242 1.362 . S
C1242 H1234 0.930 . S
C1242 C1241 1.362 . S
C1242 C1245 1.409 . S
C1243 H1235 0.930 . S
C1243 C1244 1.355 . S
C1243 C1245 1.415 . S
C1244 C1243 1.355 . S
C1244 C1246 1.419 . S
C1245 C1240 1.425 . S
C1245 C1242 1.409 . S
C1245 C1243 1.415 . S
C1246 H1236 0.930 1_565 S
C1246 C1244 1.419 . S
C1246 C1247 1.362 . S
C1247 H1237 0.930 . S
C1247 C1240 1.409 . S
C1247 C1246 1.362 . S
H1248 C1254 0.930 . S
H1249 C1257 0.930 . S
H1250 C1258 0.930 . S
H1251 C1259 0.930 . S
H1252 C1262 0.930 1_545 S
H1253 C1263 0.930 . S
C1254 H1248 0.930 . S
C1254 C1255 1.355 . S
C1254 C1256 1.415 . S
C1255 C1254 1.355 . S
C1255 C1257 1.419 . S
C1256 C1254 1.415 . S
C1256 C1261 1.425 . S
C1256 C1263 1.409 . S
C1257 H1249 0.930 . S
C1257 C1255 1.419 . S
C1257 C1258 1.362 . S
C1258 H1250 0.930 . S
C1258 C1257 1.362 . S
C1258 C1261 1.409 . S
C1259 H1251 0.930 . S
C1259 C1260 1.355 . S
C1259 C1261 1.415 . S
C1260 C1259 1.355 . S
C1260 C1262 1.419 . S
C1261 C1256 1.425 . S
C1261 C1258 1.409 . S
C1261 C1259 1.415 . S
C1262 H1252 0.930 1_565 S
C1262 C1260 1.419 . S
C1262 C1263 1.362 . S
C1263 H1253 0.930 . S
C1263 C1256 1.409 . S
C1263 C1262 1.362 . S
H1264 C1270 0.930 . S
H1265 C1273 0.930 . S
H1266 C1274 0.930 . S
H1267 C1275 0.930 . S
H1268 C1278 0.930 . S
H1269 C1279 0.930 . S
C1270 H1264 0.930 . S
C1270 C1271 1.355 . S
C1270 C1272 1.415 . S
C1271 C1270 1.355 . S
C1271 C1273 1.419 . S
C1272 C1270 1.415 . S
C1272 C1277 1.425 . S
C1272 C1279 1.409 . S
C1273 H1265 0.930 . S
C1273 C1271 1.419 . S
C1273 C1274 1.362 . S
C1274 H1266 0.930 . S
C1274 C1273 1.362 . S
C1274 C1277 1.409 . S
C1275 H1267 0.930 . S
C1275 C1276 1.355 . S
C1275 C1277 1.415 . S
C1276 C1275 1.355 . S
C1276 C1278 1.419 . S
C1277 C1272 1.425 . S
C1277 C1274 1.409 . S
C1277 C1275 1.415 . S
C1278 H1268 0.930 . S
C1278 C1276 1.419 . S
C1278 C1279 1.362 . S
C1279 H1269 0.930 . S
C1279 C1272 1.409 . S
C1279 C1278 1.362 . S
H1280 C1286 0.930 . S
H1281 C1289 0.930 . S
H1282 C1290 0.930 . S
H1283 C1291 0.930 . S
H1284 C1294 0.930 . S
H1285 C1295 0.930 . S
C1286 H1280 0.930 . S
C1286 C1287 1.355 . S
C1286 C1288 1.415 . S
C1287 C1286 1.355 . S
C1287 C1289 1.419 . S
C1288 C1286 1.415 . S
C1288 C1293 1.425 . S
C1288 C1295 1.409 . S
C1289 H1281 0.930 . S
C1289 C1287 1.419 . S
C1289 C1290 1.362 . S
C1290 H1282 0.930 . S
C1290 C1289 1.362 . S
C1290 C1293 1.409 . S
C1291 H1283 0.930 . S
C1291 C1292 1.355 . S
C1291 C1293 1.415 . S
C1292 C1291 1.355 . S
C1292 C1294 1.419 . S
C1293 C1288 1.425 . S
C1293 C1290 1.409 . S
C1293 C1291 1.415 . S
C1294 H1284 0.930 . S
C1294 C1292 1.419 . S
C1294 C1295 1.362 . S
C1295 H1285 0.930 . S
C1295 C1288 1.409 . S
C1295 C1294 1.362 . S
H1296 C1302 0.930 . S
H1297 C1305 0.930 . S
H1298 C1306 0.930 . S
H1299 C1307 0.930 . S
H1300 C1310 0.930 . S
H1301 C1311 0.930 . S
C1302 H1296 0.930 . S
C1302 C1303 1.355 . S
C1302 C1304 1.415 . S
C1303 C1302 1.355 . S
C1303 C1305 1.419 . S
C1304 C1302 1.415 . S
C1304 C1309 1.425 . S
C1304 C1311 1.409 . S
C1305 H1297 0.930 . S
C1305 C1303 1.419 . S
C1305 C1306 1.362 . S
C1306 H1298 0.930 . S
C1306 C1305 1.362 . S
C1306 C1309 1.409 . S
C1307 H1299 0.930 . S
C1307 C1308 1.355 . S
C1307 C1309 1.415 . S
C1308 C1307 1.355 . S
C1308 C1310 1.419 . S
C1309 C1304 1.425 . S
C1309 C1306 1.409 . S
C1309 C1307 1.415 . S
C1310 H1300 0.930 . S
C1310 C1308 1.419 . S
C1310 C1311 1.362 . S
C1311 H1301 0.930 . S
C1311 C1304 1.409 . S
C1311 C1310 1.362 . S
H1312 C1318 0.930 . S
H1313 C1321 0.930 . S
H1314 C1322 0.930 . S
H1315 C1323 0.930 . S
H1316 C1326 0.930 . S
H1317 C1327 0.930 . S
C1318 H1312 0.930 . S
C1318 C1319 1.355 . S
C1318 C1320 1.415 . S
C1319 C1318 1.355 . S
C1319 C1321 1.419 . S
C1320 C1318 1.415 . S
C1320 C1325 1.425 . S
C1320 C1327 1.409 . S
C1321 H1313 0.930 . S
C1321 C1319 1.419 . S
C1321 C1322 1.362 . S
C1322 H1314 0.930 . S
C1322 C1321 1.362 . S
C1322 C1325 1.409 . S
C1323 H1315 0.930 . S
C1323 C1324 1.355 . S
C1323 C1325 1.415 . S
C1324 C1323 1.355 . S
C1324 C1326 1.419 . S
C1325 C1320 1.425 . S
C1325 C1322 1.409 . S
C1325 C1323 1.415 . S
C1326 H1316 0.930 . S
C1326 C1324 1.419 . S
C1326 C1327 1.362 . S
C1327 H1317 0.930 . S
C1327 C1320 1.409 . S
C1327 C1326 1.362 . S
H1328 C1334 0.930 . S
H1329 C1337 0.930 . S
H1330 C1338 0.930 . S
H1331 C1339 0.930 . S
H1332 C1342 0.930 . S
H1333 C1343 0.930 . S
C1334 H1328 0.930 . S
C1334 C1335 1.355 . S
C1334 C1336 1.415 . S
C1335 C1334 1.355 . S
C1335 C1337 1.419 . S
C1336 C1334 1.415 . S
C1336 C1341 1.425 . S
C1336 C1343 1.409 . S
C1337 H1329 0.930 . S
C1337 C1335 1.419 . S
C1337 C1338 1.362 . S
C1338 H1330 0.930 . S
C1338 C1337 1.362 . S
C1338 C1341 1.409 . S
C1339 H1331 0.930 . S
C1339 C1340 1.355 . S
C1339 C1341 1.415 . S
C1340 C1339 1.355 . S
C1340 C1342 1.419 . S
C1341 C1336 1.425 . S
C1341 C1338 1.409 . S
C1341 C1339 1.415 . S
C1342 H1332 0.930 . S
C1342 C1340 1.419 . S
C1342 C1343 1.362 . S
C1343 H1333 0.930 . S
C1343 C1336 1.409 . S
C1343 C1342 1.362 . S
H1344 C1350 0.930 . S
H1345 C1353 0.930 . S
H1346 C1354 0.930 . S
H1347 C1355 0.930 . S
H1348 C1358 0.930 . S
H1349 C1359 0.930 . S
C1350 H1344 0.930 . S
C1350 C1351 1.355 . S
C1350 C1352 1.415 . S
C1351 C1350 1.355 . S
C1351 C1353 1.419 . S
C1352 C1350 1.415 . S
C1352 C1357 1.425 . S
C1352 C1359 1.409 . S
C1353 H1345 0.930 . S
C1353 C1351 1.419 . S
C1353 C1354 1.362 . S
C1354 H1346 0.930 . S
C1354 C1353 1.362 . S
C1354 C1357 1.409 . S
C1355 H1347 0.930 . S
C1355 C1356 1.355 . S
C1355 C1357 1.415 . S
C1356 C1355 1.355 . S
C1356 C1358 1.419 . S
C1357 C1352 1.425 . S
C1357 C1354 1.409 . S
C1357 C1355 1.415 . S
C1358 H1348 0.930 . S
C1358 C1356 1.419 . S
C1358 C1359 1.362 . S
C1359 H1349 0.930 . S
C1359 C1352 1.409 . S
C1359 C1358 1.362 . S
H1360 C1366 0.930 . S
H1361 C1369 0.930 . S
H1362 C1370 0.930 . S
H1363 C1371 0.930 . S
H1364 C1374 0.930 . S
H1365 C1375 0.930 . S
C1366 H1360 0.930 . S
C1366 C1367 1.355 . S
C1366 C1368 1.415 . S
C1367 C1366 1.355 . S
C1367 C1369 1.419 . S
C1368 C1366 1.415 . S
C1368 C1373 1.425 . S
C1368 C1375 1.409 . S
C1369 H1361 0.930 . S
C1369 C1367 1.419 . S
C1369 C1370 1.362 . S
C1370 H1362 0.930 . S
C1370 C1369 1.362 . S
C1370 C1373 1.409 . S
C1371 H1363 0.930 . S
C1371 C1372 1.355 . S
C1371 C1373 1.415 . S
C1372 C1371 1.355 . S
C1372 C1374 1.419 . S
C1373 C1368 1.425 . S
C1373 C1370 1.409 . S
C1373 C1371 1.415 . S
C1374 H1364 0.930 . S
C1374 C1372 1.419 . S
C1374 C1375 1.362 . S
C1375 H1365 0.930 . S
C1375 C1368 1.409 . S
C1375 C1374 1.362 . S
H1376 C1382 0.930 . S
H1377 C1385 0.930 . S
H1378 C1386 0.930 . S
H1379 C1387 0.930 . S
H1380 C1390 0.930 . S
H1381 C1391 0.930 . S
C1382 H1376 0.930 . S
C1382 C1383 1.355 . S
C1382 C1384 1.415 . S
C1383 C1382 1.355 . S
C1383 C1385 1.419 . S
C1384 C1382 1.415 . S
C1384 C1389 1.425 . S
C1384 C1391 1.409 . S
C1385 H1377 0.930 . S
C1385 C1383 1.419 . S
C1385 C1386 1.362 . S
C1386 H1378 0.930 . S
C1386 C1385 1.362 . S
C1386 C1389 1.409 . S
C1387 H1379 0.930 . S
C1387 C1388 1.355 . S
C1387 C1389 1.415 . S
C1388 C1387 1.355 . S
C1388 C1390 1.419 . S
C1389 C1384 1.425 . S
C1389 C1386 1.409 . S
C1389 C1387 1.415 . S
C1390 H1380 0.930 . S
C1390 C1388 1.419 . S
C1390 C1391 1.362 . S
C1391 H1381 0.930 . S
C1391 C1384 1.409 . S
C1391 C1390 1.362 . S
H1392 C1398 0.930 . S
H1393 C1401 0.930 . S
H1394 C1402 0.930 . S
H1395 C1403 0.930 . S
H1396 C1406 0.930 . S
H1397 C1407 0.930 . S
C1398 H1392 0.930 . S
C1398 C1399 1.355 . S
C1398 C1400 1.415 . S
C1399 C1398 1.355 . S
C1399 C1401 1.419 . S
C1400 C1398 1.415 . S
C1400 C1405 1.425 . S
C1400 C1407 1.409 . S
C1401 H1393 0.930 . S
C1401 C1399 1.419 . S
C1401 C1402 1.362 . S
C1402 H1394 0.930 . S
C1402 C1401 1.362 . S
C1402 C1405 1.409 . S
C1403 H1395 0.930 . S
C1403 C1404 1.355 . S
C1403 C1405 1.415 . S
C1404 C1403 1.355 . S
C1404 C1406 1.419 . S
C1405 C1400 1.425 . S
C1405 C1402 1.409 . S
C1405 C1403 1.415 . S
C1406 H1396 0.930 . S
C1406 C1404 1.419 . S
C1406 C1407 1.362 . S
C1407 H1397 0.930 . S
C1407 C1400 1.409 . S
C1407 C1406 1.362 . S
H1408 C1414 0.930 . S
H1409 C1417 0.930 . S
H1410 C1418 0.930 . S
H1411 C1419 0.930 . S
H1412 C1422 0.930 . S
H1413 C1423 0.930 . S
C1414 H1408 0.930 . S
C1414 C1415 1.355 . S
C1414 C1416 1.415 . S
C1415 C1414 1.355 . S
C1415 C1417 1.419 . S
C1416 C1414 1.415 . S
C1416 C1421 1.425 . S
C1416 C1423 1.409 . S
C1417 H1409 0.930 . S
C1417 C1415 1.419 . S
C1417 C1418 1.362 . S
C1418 H1410 0.930 . S
C1418 C1417 1.362 . S
C1418 C1421 1.409 . S
C1419 H1411 0.930 . S
C1419 C1420 1.355 . S
C1419 C1421 1.415 . S
C1420 C1419 1.355 . S
C1420 C1422 1.419 . S
C1421 C1416 1.425 . S
C1421 C1418 1.409 . S
C1421 C1419 1.415 . S
C1422 H1412 0.930 . S
C1422 C1420 1.419 . S
C1422 C1423 1.362 . S
C1423 H1413 0.930 . S
C1423 C1416 1.409 . S
C1423 C1422 1.362 . S
H1424 C1430 0.930 . S
H1425 C1433 0.930 . S
H1426 C1434 0.930 . S
H1427 C1435 0.930 . S
H1428 C1438 0.930 . S
H1429 C1439 0.930 . S
C1430 H1424 0.930 . S
C1430 C1431 1.355 . S
C1430 C1432 1.415 . S
C1431 C1430 1.355 . S
C1431 C1433 1.419 . S
C1432 C1430 1.415 . S
C1432 C1437 1.425 . S
C1432 C1439 1.409 . S
C1433 H1425 0.930 . S
C1433 C1431 1.419 . S
C1433 C1434 1.362 . S
C1434 H1426 0.930 . S
C1434 C1433 1.362 . S
C1434 C1437 1.409 . S
C1435 H1427 0.930 . S
C1435 C1436 1.355 . S
C1435 C1437 1.415 . S
C1436 C1435 1.355 . S
C1436 C1438 1.419 . S
C1437 C1432 1.425 . S
C1437 C1434 1.409 . S
C1437 C1435 1.415 . S
C1438 H1428 0.930 . S
C1438 C1436 1.419 . S
C1438 C1439 1.362 . S
C1439 H1429 0.930 . S
C1439 C1432 1.409 . S
C1439 C1438 1.362 . S
C423 C354 1.511 . S
C428 C5 1.484 . S
C439 C16 1.502 1_655 S
C444 C108 1.482 . S
C455 C328 1.485 . S
C460 C29 1.510 . S
C471 C42 1.491 . S
C476 C140 1.485 . S
C487 C55 1.486 . S
C492 C380 1.511 . S
C503 C68 1.482 . S
C508 C192 1.501 . S
C519 C83 1.490 . S
C524 C406 1.507 . S
C535 C96 1.501 1_655 S
C540 C166 1.484 . S
C551 C251 1.512 . S
C556 C107 1.485 . S
C567 C10 1.479 . S
C572 C127 1.502 1_455 S
C583 C225 1.491 . S
C588 C135 1.513 . S
C599 C153 1.482 . S
C604 C30 1.502 . S
C615 C277 1.512 . S
C620 C161 1.485 . S
C631 C88 1.484 . S
C636 C173 1.501 . S
C647 C187 1.487 . S
C652 C309 1.513 . S
C663 C56 1.497 . S
C668 C199 1.490 1_455 S
C679 C211 1.511 . S
C684 C148 1.484 . S
C695 C224 1.500 . S
C700 C316 1.479 . S
C711 C122 1.511 . S
C716 C237 1.485 . S
C727 C342 1.479 . S
C732 C250 1.501 1_455 S
C743 C172 1.505 . S
C748 C263 1.493 . S
C759 C394 1.503 . S
C764 C276 1.477 1_455 S
C775 C198 1.507 . S
C780 C289 1.485 . S
C791 C304 1.501 . S
C796 C368 1.478 . S
C807 C43 1.509 . S
C812 C315 1.486 . S
C823 C329 1.502 . S
C828 C212 1.479 . S
C839 C341 1.486 . S
C844 C17 1.510 . S
C855 C355 1.501 1_655 S
C860 C238 1.484 . S
C871 C367 1.486 . S
C876 C69 1.513 . S
C887 C381 1.479 1_655 S
C892 C290 1.499 . S
C903 C393 1.494 . S
C908 C101 1.509 . S
C919 C407 1.502 . S
C924 C264 1.479 . S
C935 C317 1.514 . S
C940 C3 1.515 . S
C951 C18 1.528 . S
C956 C121 1.523 . S
C967 C343 1.514 . S
C972 C31 1.515 . S
C983 C44 1.532 . S
C988 C147 1.530 . S
C999 C369 1.531 . S
C1004 C57 1.531 . S
C1015 C70 1.529 . S
C1020 C179 1.525 . S
C1031 C395 1.525 . S
C1036 C81 1.525 . S
C1047 C94 1.533 . S
C1052 C205 1.532 . S
C1063 C109 1.537 . S
C1068 C213 1.537 . S
C1079 C133 1.519 . S
C1084 C239 1.519 . S
C1095 C159 1.520 . S
C1100 C265 1.520 . S
C1111 C185 1.526 . S
C1116 C291 1.526 . S
C1127 C226 1.518 . S
C1132 C335 1.511 . S
C1143 C361 1.516 . S
C1148 C252 1.521 . S
C1159 C387 1.513 . S
C1164 C278 1.519 . S
C1175 C302 1.539 . S
C1180 C413 1.538 . S
C1191 C4 1.390 . S
C1196 C75 1.398 . S
C1207 C23 1.399 . S
C1212 C82 1.400 . S
C1223 C36 1.397 . S
C1228 C95 1.401 . S
C1239 C62 1.400 . S
C1244 C49 1.392 . S
C1255 C114 1.401 . S
C1260 C174 1.393 . S
C1271 C120 1.395 . S
C1276 C186 1.392 . S
C1287 C134 1.394 . S
C1292 C200 1.391 . S
C1303 C146 1.402 . S
C1308 C160 1.394 . S
C1319 C218 1.400 . S
C1324 C283 1.391 . S
C1335 C296 1.400 . S
C1340 C231 1.399 . S
C1351 C244 1.401 . S
C1356 C303 1.398 . S
C1367 C257 1.399 . S
C1372 C270 1.391 . S
C1383 C382 1.399 . S
C1388 C322 1.403 . S
C1399 C330 1.399 . S
C1404 C400 1.393 . S
C1415 C408 1.391 . S
C1420 C348 1.394 . S
C1431 C356 1.391 . S
C1436 C374 1.400 . S
