# Generated by pormake.
# Topology wga, (5)-cn, num edge types: 1
# Building blocks:
#     Node 0, Type 0, BuildingBlock: BEQFEK_clean_sbu_0, # of connection points: 5
#     Node 1, Type 0, BuildingBlock: BEQFEK_clean_sbu_0, # of connection points: 5
#     Node 2, Type 0, BuildingBlock: BEQFEK_clean_sbu_0, # of connection points: 5
#     Node 3, Type 0, BuildingBlock: BEQFEK_clean_sbu_0, # of connection points: 5
#     Node 4, Type 0, BuildingBlock: BEQFEK_clean_sbu_0, # of connection points: 5
#     Node 5, Type 0, BuildingBlock: BEQFEK_clean_sbu_0, # of connection points: 5
#     Node 6, Type 0, BuildingBlock: BEQFEK_clean_sbu_0, # of connection points: 5
#     Node 7, Type 0, BuildingBlock: BEQFEK_clean_sbu_0, # of connection points: 5
#     Node 8, Type 0, BuildingBlock: BEQFEK_clean_sbu_0, # of connection points: 5
#     Node 9, Type 0, BuildingBlock: BEQFEK_clean_sbu_0, # of connection points: 5
#     Node 10, Type 0, BuildingBlock: BEQFEK_clean_sbu_0, # of connection points: 5
#     Node 11, Type 0, BuildingBlock: BEQFEK_clean_sbu_0, # of connection points: 5
#     Node 12, Type 0, BuildingBlock: BEQFEK_clean_sbu_0, # of connection points: 5
#     Node 13, Type 0, BuildingBlock: BEQFEK_clean_sbu_0, # of connection points: 5
#     Node 14, Type 0, BuildingBlock: BEQFEK_clean_sbu_0, # of connection points: 5
#     Node 15, Type 0, BuildingBlock: BEQFEK_clean_sbu_0, # of connection points: 5
#     Node 16, Type 0, BuildingBlock: BEQFEK_clean_sbu_0, # of connection points: 5
#     Node 17, Type 0, BuildingBlock: BEQFEK_clean_sbu_0, # of connection points: 5
#     Node 18, Type 0, BuildingBlock: BEQFEK_clean_sbu_0, # of connection points: 5
#     Node 19, Type 0, BuildingBlock: BEQFEK_clean_sbu_0, # of connection points: 5
#     Node 20, Type 0, BuildingBlock: BEQFEK_clean_sbu_0, # of connection points: 5
#     Node 21, Type 0, BuildingBlock: BEQFEK_clean_sbu_0, # of connection points: 5
#     Node 22, Type 0, BuildingBlock: BEQFEK_clean_sbu_0, # of connection points: 5
#     Node 23, Type 0, BuildingBlock: BEQFEK_clean_sbu_0, # of connection points: 5
#     Node 24, Type 0, BuildingBlock: BEQFEK_clean_sbu_0, # of connection points: 5
#     Node 25, Type 0, BuildingBlock: BEQFEK_clean_sbu_0, # of connection points: 5
#     Node 26, Type 0, BuildingBlock: BEQFEK_clean_sbu_0, # of connection points: 5
#     Node 27, Type 0, BuildingBlock: BEQFEK_clean_sbu_0, # of connection points: 5
#     Node 28, Type 0, BuildingBlock: BEQFEK_clean_sbu_0, # of connection points: 5
#     Node 29, Type 0, BuildingBlock: BEQFEK_clean_sbu_0, # of connection points: 5
#     Node 30, Type 0, BuildingBlock: BEQFEK_clean_sbu_0, # of connection points: 5
#     Node 31, Type 0, BuildingBlock: BEQFEK_clean_sbu_0, # of connection points: 5
#     Edge 32, Type (0, 0), BuildingBlock: AJUNOK_clean_linker_0, # of connection points: 2
#     Edge 33, Type (0, 0), BuildingBlock: AJUNOK_clean_linker_0, # of connection points: 2
#     Edge 34, Type (0, 0), BuildingBlock: AJUNOK_clean_linker_0, # of connection points: 2
#     Edge 35, Type (0, 0), BuildingBlock: AJUNOK_clean_linker_0, # of connection points: 2
#     Edge 36, Type (0, 0), BuildingBlock: AJUNOK_clean_linker_0, # of connection points: 2
#     Edge 37, Type (0, 0), BuildingBlock: AJUNOK_clean_linker_0, # of connection points: 2
#     Edge 38, Type (0, 0), BuildingBlock: AJUNOK_clean_linker_0, # of connection points: 2
#     Edge 39, Type (0, 0), BuildingBlock: AJUNOK_clean_linker_0, # of connection points: 2
#     Edge 40, Type (0, 0), BuildingBlock: AJUNOK_clean_linker_0, # of connection points: 2
#     Edge 41, Type (0, 0), BuildingBlock: AJUNOK_clean_linker_0, # of connection points: 2
#     Edge 42, Type (0, 0), BuildingBlock: AJUNOK_clean_linker_0, # of connection points: 2
#     Edge 43, Type (0, 0), BuildingBlock: AJUNOK_clean_linker_0, # of connection points: 2
#     Edge 44, Type (0, 0), BuildingBlock: AJUNOK_clean_linker_0, # of connection points: 2
#     Edge 45, Type (0, 0), BuildingBlock: AJUNOK_clean_linker_0, # of connection points: 2
#     Edge 46, Type (0, 0), BuildingBlock: AJUNOK_clean_linker_0, # of connection points: 2
#     Edge 47, Type (0, 0), BuildingBlock: AJUNOK_clean_linker_0, # of connection points: 2
#     Edge 48, Type (0, 0), BuildingBlock: AJUNOK_clean_linker_0, # of connection points: 2
#     Edge 49, Type (0, 0), BuildingBlock: AJUNOK_clean_linker_0, # of connection points: 2
#     Edge 50, Type (0, 0), BuildingBlock: AJUNOK_clean_linker_0, # of connection points: 2
#     Edge 51, Type (0, 0), BuildingBlock: AJUNOK_clean_linker_0, # of connection points: 2
#     Edge 52, Type (0, 0), BuildingBlock: AJUNOK_clean_linker_0, # of connection points: 2
#     Edge 53, Type (0, 0), BuildingBlock: AJUNOK_clean_linker_0, # of connection points: 2
#     Edge 54, Type (0, 0), BuildingBlock: AJUNOK_clean_linker_0, # of connection points: 2
#     Edge 55, Type (0, 0), BuildingBlock: AJUNOK_clean_linker_0, # of connection points: 2
#     Edge 56, Type (0, 0), BuildingBlock: AJUNOK_clean_linker_0, # of connection points: 2
#     Edge 57, Type (0, 0), BuildingBlock: AJUNOK_clean_linker_0, # of connection points: 2
#     Edge 58, Type (0, 0), BuildingBlock: AJUNOK_clean_linker_0, # of connection points: 2
#     Edge 59, Type (0, 0), BuildingBlock: AJUNOK_clean_linker_0, # of connection points: 2
#     Edge 60, Type (0, 0), BuildingBlock: AJUNOK_clean_linker_0, # of connection points: 2
#     Edge 61, Type (0, 0), BuildingBlock: AJUNOK_clean_linker_0, # of connection points: 2
#     Edge 62, Type (0, 0), BuildingBlock: AJUNOK_clean_linker_0, # of connection points: 2
#     Edge 63, Type (0, 0), BuildingBlock: AJUNOK_clean_linker_0, # of connection points: 2
#     Edge 64, Type (0, 0), BuildingBlock: AJUNOK_clean_linker_0, # of connection points: 2
#     Edge 65, Type (0, 0), BuildingBlock: AJUNOK_clean_linker_0, # of connection points: 2
#     Edge 66, Type (0, 0), BuildingBlock: AJUNOK_clean_linker_0, # of connection points: 2
#     Edge 67, Type (0, 0), BuildingBlock: AJUNOK_clean_linker_0, # of connection points: 2
#     Edge 68, Type (0, 0), BuildingBlock: AJUNOK_clean_linker_0, # of connection points: 2
#     Edge 69, Type (0, 0), BuildingBlock: AJUNOK_clean_linker_0, # of connection points: 2
#     Edge 70, Type (0, 0), BuildingBlock: AJUNOK_clean_linker_0, # of connection points: 2
#     Edge 71, Type (0, 0), BuildingBlock: AJUNOK_clean_linker_0, # of connection points: 2
#     Edge 72, Type (0, 0), BuildingBlock: AJUNOK_clean_linker_0, # of connection points: 2
#     Edge 73, Type (0, 0), BuildingBlock: AJUNOK_clean_linker_0, # of connection points: 2
#     Edge 74, Type (0, 0), BuildingBlock: AJUNOK_clean_linker_0, # of connection points: 2
#     Edge 75, Type (0, 0), BuildingBlock: AJUNOK_clean_linker_0, # of connection points: 2
#     Edge 76, Type (0, 0), BuildingBlock: AJUNOK_clean_linker_0, # of connection points: 2
#     Edge 77, Type (0, 0), BuildingBlock: AJUNOK_clean_linker_0, # of connection points: 2
#     Edge 78, Type (0, 0), BuildingBlock: AJUNOK_clean_linker_0, # of connection points: 2
#     Edge 79, Type (0, 0), BuildingBlock: AJUNOK_clean_linker_0, # of connection points: 2
#     Edge 80, Type (0, 0), BuildingBlock: AJUNOK_clean_linker_0, # of connection points: 2
#     Edge 81, Type (0, 0), BuildingBlock: AJUNOK_clean_linker_0, # of connection points: 2
#     Edge 82, Type (0, 0), BuildingBlock: AJUNOK_clean_linker_0, # of connection points: 2
#     Edge 83, Type (0, 0), BuildingBlock: AJUNOK_clean_linker_0, # of connection points: 2
#     Edge 84, Type (0, 0), BuildingBlock: AJUNOK_clean_linker_0, # of connection points: 2
#     Edge 85, Type (0, 0), BuildingBlock: AJUNOK_clean_linker_0, # of connection points: 2
#     Edge 86, Type (0, 0), BuildingBlock: AJUNOK_clean_linker_0, # of connection points: 2
#     Edge 87, Type (0, 0), BuildingBlock: AJUNOK_clean_linker_0, # of connection points: 2
#     Edge 88, Type (0, 0), BuildingBlock: AJUNOK_clean_linker_0, # of connection points: 2
#     Edge 89, Type (0, 0), BuildingBlock: AJUNOK_clean_linker_0, # of connection points: 2
#     Edge 90, Type (0, 0), BuildingBlock: AJUNOK_clean_linker_0, # of connection points: 2
#     Edge 91, Type (0, 0), BuildingBlock: AJUNOK_clean_linker_0, # of connection points: 2
#     Edge 92, Type (0, 0), BuildingBlock: AJUNOK_clean_linker_0, # of connection points: 2
#     Edge 93, Type (0, 0), BuildingBlock: AJUNOK_clean_linker_0, # of connection points: 2
#     Edge 94, Type (0, 0), BuildingBlock: AJUNOK_clean_linker_0, # of connection points: 2
#     Edge 95, Type (0, 0), BuildingBlock: AJUNOK_clean_linker_0, # of connection points: 2
#     Edge 96, Type (0, 0), BuildingBlock: AJUNOK_clean_linker_0, # of connection points: 2
#     Edge 97, Type (0, 0), BuildingBlock: AJUNOK_clean_linker_0, # of connection points: 2
#     Edge 98, Type (0, 0), BuildingBlock: AJUNOK_clean_linker_0, # of connection points: 2
#     Edge 99, Type (0, 0), BuildingBlock: AJUNOK_clean_linker_0, # of connection points: 2
#     Edge 100, Type (0, 0), BuildingBlock: AJUNOK_clean_linker_0, # of connection points: 2
#     Edge 101, Type (0, 0), BuildingBlock: AJUNOK_clean_linker_0, # of connection points: 2
#     Edge 102, Type (0, 0), BuildingBlock: AJUNOK_clean_linker_0, # of connection points: 2
#     Edge 103, Type (0, 0), BuildingBlock: AJUNOK_clean_linker_0, # of connection points: 2
#     Edge 104, Type (0, 0), BuildingBlock: AJUNOK_clean_linker_0, # of connection points: 2
#     Edge 105, Type (0, 0), BuildingBlock: AJUNOK_clean_linker_0, # of connection points: 2
#     Edge 106, Type (0, 0), BuildingBlock: AJUNOK_clean_linker_0, # of connection points: 2
#     Edge 107, Type (0, 0), BuildingBlock: AJUNOK_clean_linker_0, # of connection points: 2
#     Edge 108, Type (0, 0), BuildingBlock: AJUNOK_clean_linker_0, # of connection points: 2
#     Edge 109, Type (0, 0), BuildingBlock: AJUNOK_clean_linker_0, # of connection points: 2
#     Edge 110, Type (0, 0), BuildingBlock: AJUNOK_clean_linker_0, # of connection points: 2
#     Edge 111, Type (0, 0), BuildingBlock: AJUNOK_clean_linker_0, # of connection points: 2
# Relax obj value: 0.053
# Max RMSD: 0.134
# Mean RMSD: 0.134
data_MOF--net-wga--node1-BEQFEK_clean_sbu_0--edge1-AJUNOK_clean_linker_0
_symmetry_space_group_name_H-M    P1
_symmetry_Int_Tables_number       1
_symmetry_cell_setting            triclinic
loop_
_symmetry_equiv_pos_as_xyz
'x, y, z'
_cell_length_a     80.460461
_cell_length_b     80.463716
_cell_length_c     15.525039
_cell_angle_alpha  90.015704
_cell_angle_beta   89.989335
_cell_angle_gamma 89.9992
loop_
_atom_site_label
_atom_site_type_symbol
_atom_site_fract_x
_atom_site_fract_y
_atom_site_fract_z
_atom_type_partial_charge
Co0 Co 0.06784 0.56975 0.96782 0.0
Co1 Co 0.06924 0.56328 0.167 0.0
C2 C 0.03745 0.57312 0.0767 0.0
O3 O 0.04466 0.57437 0.00382 0.0
O4 O 0.04551 0.56883 0.14386 0.0
C5 C 0.06576 0.58384 0.78899 0.0
O6 O 0.05913 0.59774 0.817 0.0
C7 C 0.06693 0.57134 0.3531 0.0
C8 C 0.08407 0.55264 0.40772 0.0
C9 C 0.07389 0.56583 0.42984 0.0
N10 N 0.07301 0.56197 0.28845 0.0
N11 N 0.08324 0.55083 0.32172 0.0
C12 C 0.05381 0.58434 0.34169 0.0
H13 H 0.05239 0.58763 0.27278 0.0
H14 H 0.05682 0.59569 0.3786 0.0
H15 H 0.04184 0.57949 0.36679 0.0
C16 C 0.0945 0.59403 0.01393 0.0
N17 N 0.0833 0.58218 0.03406 0.0
N18 N 0.08366 0.57958 0.11786 0.0
C19 C 0.09498 0.58985 0.15358 0.0
C20 C 0.10214 0.59933 0.08917 0.0
C21 C 0.09743 0.60045 0.92485 0.0
H22 H 0.09865 0.58988 0.87943 0.0
H23 H 0.08654 0.60796 0.90475 0.0
H24 H 0.10872 0.60835 0.92168 0.0
O25 O 0.07206 0.54582 0.98036 0.0
O26 O 0.0738 0.54065 0.11973 0.0
H27 H 0.10204 0.57772 0.27065 0.0
H28 H 0.11006 0.59852 0.26027 0.0
C29 C 0.09919 0.59042 0.24743 0.0
H30 H 0.08837 0.59526 0.28382 0.0
H31 H 0.08968 0.542 0.28556 0.0
O32 O 0.07005 0.57258 0.8418 0.0
C33 C 0.07431 0.5357 0.04189 0.0
Co34 Co 0.68131 0.81916 0.21578 0.0
Co35 Co 0.68819 0.81861 0.41446 0.0
C36 C 0.67763 0.78785 0.31818 0.0
O37 O 0.67656 0.79577 0.24727 0.0
O38 O 0.68203 0.79515 0.38758 0.0
C39 C 0.66895 0.81498 0.03766 0.0
O40 O 0.6583 0.80378 0.06485 0.0
C41 C 0.68301 0.81434 0.60286 0.0
C42 C 0.69713 0.83593 0.6518 0.0
C43 C 0.68694 0.823 0.67771 0.0
N44 N 0.69015 0.82219 0.53577 0.0
N45 N 0.69873 0.83494 0.5658 0.0
C46 C 0.67336 0.79853 0.5948 0.0
H47 H 0.68 0.78989 0.55119 0.0
H48 H 0.66105 0.80123 0.56579 0.0
H49 H 0.67167 0.79239 0.65818 0.0
C50 C 0.65754 0.84558 0.26875 0.0
N51 N 0.66929 0.83411 0.28602 0.0
N52 N 0.67189 0.8336 0.3697 0.0
C53 C 0.66162 0.84455 0.40847 0.0
C54 C 0.65237 0.85267 0.34587 0.0
C55 C 0.65171 0.84975 0.17988 0.0
H56 H 0.66256 0.85095 0.13624 0.0
H57 H 0.64386 0.83943 0.15544 0.0
H58 H 0.64443 0.86146 0.17897 0.0
O59 O 0.70524 0.823 0.22653 0.0
O60 O 0.71076 0.82312 0.36573 0.0
H61 H 0.67055 0.85236 0.53171 0.0
H62 H 0.64825 0.85333 0.52106 0.0
C63 C 0.65951 0.8461 0.50397 0.0
H64 H 0.65836 0.83357 0.53281 0.0
H65 H 0.70536 0.84322 0.52714 0.0
O66 O 0.678 0.82271 0.09133 0.0
C67 C 0.71555 0.8244 0.28783 0.0
Co68 Co 0.43401 0.43058 0.4609 0.0
Co69 Co 0.43372 0.43887 0.65834 0.0
C70 C 0.46488 0.42741 0.56841 0.0
O71 O 0.45731 0.42588 0.49658 0.0
O72 O 0.45726 0.43233 0.63596 0.0
C73 C 0.44144 0.42468 0.28137 0.0
O74 O 0.45705 0.42392 0.30553 0.0
C75 C 0.43816 0.43794 0.84866 0.0
C76 C 0.41308 0.44575 0.8898 0.0
C77 C 0.42815 0.44 0.92134 0.0
N78 N 0.42915 0.44178 0.77832 0.0
N79 N 0.41432 0.4468 0.80374 0.0
C80 C 0.45619 0.43348 0.84525 0.0
H81 H 0.46227 0.4404 0.7923 0.0
H82 H 0.45747 0.41998 0.83229 0.0
H83 H 0.46257 0.43665 0.90639 0.0
C84 C 0.4075 0.4072 0.51523 0.0
N85 N 0.41872 0.41921 0.53196 0.0
N86 N 0.41909 0.42208 0.61537 0.0
C87 C 0.40844 0.41155 0.65465 0.0
C88 C 0.40051 0.40203 0.59253 0.0
C89 C 0.40356 0.401 0.42671 0.0
H90 H 0.40138 0.41173 0.38325 0.0
H91 H 0.4144 0.39401 0.40143 0.0
H92 H 0.39244 0.39285 0.42651 0.0
O93 O 0.4305 0.45467 0.46553 0.0
O94 O 0.42961 0.46102 0.60374 0.0
H95 H 0.39855 0.41832 0.77755 0.0
H96 H 0.40249 0.39649 0.76578 0.0
C97 C 0.40726 0.40907 0.75006 0.0
H98 H 0.41964 0.4106 0.78018 0.0
H99 H 0.40481 0.45032 0.76187 0.0
O100 O 0.43008 0.4258 0.33783 0.0
C101 C 0.42897 0.46537 0.52494 0.0
Co102 Co 0.8226 0.18481 0.71364 0.0
Co103 Co 0.81383 0.1843 0.91149 0.0
C104 C 0.82497 0.21556 0.82249 0.0
O105 O 0.8267 0.208 0.75091 0.0
O106 O 0.82006 0.20787 0.88969 0.0
C107 C 0.82401 0.1938 0.53914 0.0
O108 O 0.81711 0.20714 0.57227 0.0
C109 C 0.81916 0.18825 0.09842 0.0
C110 C 0.80092 0.17048 0.15169 0.0
C111 C 0.81315 0.18171 0.17524 0.0
N112 N 0.81084 0.18117 0.03276 0.0
N113 N 0.79988 0.17065 0.06515 0.0
C114 C 0.83338 0.2 0.08648 0.0
H115 H 0.84031 0.19683 0.02687 0.0
H116 H 0.84188 0.19969 0.14277 0.0
H117 H 0.82845 0.2128 0.07885 0.0
C118 C 0.8461 0.15853 0.77023 0.0
N119 N 0.83405 0.16974 0.7862 0.0
N120 N 0.83052 0.16957 0.86907 0.0
C121 C 0.84027 0.15824 0.90837 0.0
C122 C 0.85046 0.15091 0.8472 0.0
C123 C 0.85354 0.15564 0.68323 0.0
H124 H 0.85691 0.16774 0.65376 0.0
H125 H 0.86472 0.14759 0.6869 0.0
H126 H 0.84413 0.14969 0.64107 0.0
O127 O 0.79845 0.18067 0.71667 0.0
O128 O 0.79197 0.17994 0.85513 0.0
H129 H 0.82632 0.15127 0.01997 0.0
H130 H 0.84711 0.14297 0.01788 0.0
C131 C 0.83937 0.15396 0.00207 0.0
H132 H 0.84372 0.1647 0.04067 0.0
H133 H 0.79187 0.16339 0.02804 0.0
O134 O 0.82853 0.1822 0.58974 0.0
C135 C 0.78773 0.17903 0.77615 0.0
Co136 Co 0.06855 0.43051 0.03156 0.0
Co137 Co 0.0682 0.43785 0.83298 0.0
C138 C 0.03731 0.42742 0.92499 0.0
O139 O 0.04523 0.42633 0.99582 0.0
O140 O 0.04466 0.43173 0.85573 0.0
C141 C 0.05943 0.4301 0.20456 0.0
O142 O 0.04674 0.43789 0.16993 0.0
C143 C 0.06368 0.43383 0.64525 0.0
C144 C 0.08421 0.44934 0.59532 0.0
C145 C 0.07133 0.43904 0.56972 0.0
N146 N 0.07172 0.44074 0.71227 0.0
N147 N 0.08388 0.45009 0.68187 0.0
C148 C 0.04997 0.42139 0.65462 0.0
H149 H 0.0521 0.4136 0.71253 0.0
H150 H 0.04902 0.41336 0.59667 0.0
H151 H 0.03804 0.42808 0.66376 0.0
C152 C 0.09509 0.40696 0.97657 0.0
N153 N 0.08355 0.41867 0.95995 0.0
N154 N 0.08306 0.42143 0.87641 0.0
C155 C 0.09415 0.4114 0.83711 0.0
C156 C 0.10227 0.40201 0.89922 0.0
C157 C 0.09933 0.40101 0.06514 0.0
H158 H 0.10011 0.41176 0.10973 0.0
H159 H 0.08926 0.39273 0.08847 0.0
H160 H 0.11127 0.39412 0.06587 0.0
O161 O 0.07287 0.45466 0.02652 0.0
O162 O 0.0726 0.45989 0.88664 0.0
H163 H 0.10199 0.42132 0.716 0.0
H164 H 0.10359 0.39896 0.72305 0.0
C165 C 0.09601 0.40992 0.74145 0.0
H166 H 0.0836 0.40866 0.71147 0.0
H167 H 0.09216 0.45675 0.72042 0.0
O168 O 0.07085 0.4247 0.15522 0.0
C169 C 0.07409 0.46483 0.9642 0.0
Co170 Co 0.82049 0.81777 0.27906 0.0
Co171 Co 0.81363 0.81857 0.08095 0.0
C172 C 0.82337 0.78697 0.17402 0.0
O173 O 0.82486 0.79433 0.24639 0.0
O174 O 0.81904 0.79492 0.10661 0.0
C175 C 0.83186 0.81269 0.45784 0.0
O176 O 0.84159 0.80057 0.43215 0.0
C177 C 0.82028 0.8156 0.89298 0.0
C178 C 0.80096 0.83249 0.84255 0.0
C179 C 0.81376 0.82208 0.81698 0.0
N180 N 0.81163 0.82192 0.95972 0.0
N181 N 0.80014 0.83201 0.92886 0.0
C182 C 0.83418 0.80338 0.90226 0.0
H183 H 0.83437 0.79796 0.96762 0.0
H184 H 0.84621 0.80981 0.89223 0.0
H185 H 0.83303 0.7934 0.85324 0.0
C186 C 0.8451 0.84364 0.22912 0.0
N187 N 0.83293 0.83273 0.21033 0.0
N188 N 0.83003 0.83308 0.1269 0.0
C189 C 0.84027 0.84426 0.08999 0.0
C190 C 0.85021 0.85123 0.15331 0.0
C191 C 0.85201 0.8462 0.31752 0.0
H192 H 0.8554 0.834 0.34574 0.0
H193 H 0.86308 0.85443 0.31663 0.0
H194 H 0.84228 0.85178 0.35912 0.0
O195 O 0.79641 0.82198 0.26911 0.0
O196 O 0.79133 0.8234 0.12966 0.0
H197 H 0.84792 0.85981 0.98305 0.0
H198 H 0.84512 0.83809 0.95862 0.0
C199 C 0.84019 0.84868 0.99635 0.0
H200 H 0.82729 0.85119 0.97511 0.0
H201 H 0.79173 0.83862 0.9669 0.0
O202 O 0.82388 0.82127 0.40317 0.0
C203 C 0.78631 0.82406 0.20725 0.0
Co204 Co 0.43375 0.57014 0.52078 0.0
Co205 Co 0.43388 0.5644 0.32152 0.0
C206 C 0.46476 0.57468 0.41658 0.0
O207 O 0.45703 0.57517 0.48824 0.0
O208 O 0.4573 0.57069 0.34704 0.0
C209 C 0.43709 0.58343 0.69832 0.0
O210 O 0.44664 0.5955 0.67021 0.0
C211 C 0.43719 0.571 0.13415 0.0
C212 C 0.41777 0.5542 0.08348 0.0
C213 C 0.42931 0.56603 0.05873 0.0
N214 N 0.43024 0.56275 0.20046 0.0
N215 N 0.41876 0.55265 0.16948 0.0
C216 C 0.45168 0.58253 0.14323 0.0
H217 H 0.44742 0.59438 0.17233 0.0
H218 H 0.45767 0.58504 0.08022 0.0
H219 H 0.46102 0.57699 0.18708 0.0
C220 C 0.40728 0.59426 0.47255 0.0
N221 N 0.41858 0.58248 0.45303 0.0
N222 N 0.41881 0.58023 0.36901 0.0
C223 C 0.40774 0.59065 0.3324 0.0
C224 C 0.40012 0.59987 0.39662 0.0
C225 C 0.40411 0.6005 0.56177 0.0
H226 H 0.40087 0.58989 0.60422 0.0
H227 H 0.41566 0.60619 0.58734 0.0
H228 H 0.39397 0.60984 0.56313 0.0
O229 O 0.43001 0.54607 0.50838 0.0
O230 O 0.4299 0.5417 0.36802 0.0
H231 H 0.39421 0.6006 0.22299 0.0
H232 H 0.41573 0.59549 0.2035 0.0
C233 C 0.40428 0.59163 0.2378 0.0
H234 H 0.40052 0.57923 0.21387 0.0
H235 H 0.41143 0.54484 0.20737 0.0
O236 O 0.43063 0.57326 0.64553 0.0
C237 C 0.42881 0.53625 0.44471 0.0
Co238 Co 0.68322 0.1839 0.77353 0.0
Co239 Co 0.68843 0.18416 0.57421 0.0
C240 C 0.6783 0.21505 0.66892 0.0
O241 O 0.67829 0.20728 0.74061 0.0
O242 O 0.68189 0.20767 0.59843 0.0
C243 C 0.67146 0.1888 0.95125 0.0
O244 O 0.6616 0.20069 0.92383 0.0
C245 C 0.68426 0.18793 0.38535 0.0
C246 C 0.69501 0.16418 0.3406 0.0
C247 C 0.68693 0.17835 0.31225 0.0
N248 N 0.69 0.17952 0.45399 0.0
N249 N 0.69661 0.16545 0.42653 0.0
C250 C 0.67763 0.20524 0.39003 0.0
H251 H 0.68599 0.21281 0.43104 0.0
H252 H 0.66516 0.20502 0.42048 0.0
H253 H 0.67684 0.21109 0.32547 0.0
C254 C 0.65924 0.15717 0.72717 0.0
N255 N 0.67077 0.16869 0.70689 0.0
N256 N 0.67249 0.16929 0.6227 0.0
C257 C 0.66172 0.15849 0.58654 0.0
C258 C 0.65321 0.15021 0.6514 0.0
C259 C 0.65439 0.15286 0.81744 0.0
H260 H 0.66568 0.15179 0.85803 0.0
H261 H 0.64663 0.16303 0.8442 0.0
H262 H 0.64731 0.14104 0.82009 0.0
O263 O 0.70712 0.18001 0.76058 0.0
O264 O 0.71132 0.18022 0.62017 0.0
H265 H 0.66791 0.14976 0.46044 0.0
H266 H 0.64593 0.15168 0.47925 0.0
C267 C 0.65822 0.15743 0.49195 0.0
H268 H 0.65835 0.17003 0.46325 0.0
H269 H 0.70187 0.15651 0.4669 0.0
O270 O 0.68008 0.18056 0.89779 0.0
C271 C 0.71686 0.17892 0.69664 0.0
Co272 Co 0.93419 0.43154 0.03767 0.0
Co273 Co 0.93367 0.43854 0.83909 0.0
C274 C 0.96498 0.42809 0.93218 0.0
O275 O 0.95744 0.42684 0.00414 0.0
O276 O 0.95728 0.43258 0.86418 0.0
C277 C 0.93782 0.41869 0.21641 0.0
O278 O 0.9481 0.40711 0.18975 0.0
C279 C 0.93719 0.43207 0.65157 0.0
C280 C 0.91749 0.44846 0.60033 0.0
C281 C 0.92924 0.43679 0.57588 0.0
N282 N 0.93008 0.44026 0.71768 0.0
N283 N 0.91844 0.45013 0.68632 0.0
C284 C 0.95188 0.42082 0.66108 0.0
H285 H 0.96108 0.42656 0.70495 0.0
H286 H 0.94782 0.4089 0.69029 0.0
H287 H 0.95799 0.41839 0.59825 0.0
C288 C 0.90805 0.4073 0.98782 0.0
N289 N 0.91909 0.41937 0.96911 0.0
N290 N 0.91895 0.42217 0.88553 0.0
C291 C 0.90788 0.41181 0.84837 0.0
C292 C 0.90065 0.40207 0.91179 0.0
C293 C 0.90531 0.4005 0.07631 0.0
H294 H 0.91726 0.39567 0.1018 0.0
H295 H 0.89593 0.3904 0.07648 0.0
H296 H 0.9012 0.41068 0.11959 0.0
O297 O 0.93019 0.45548 0.02674 0.0
O298 O 0.9291 0.46109 0.88773 0.0
H299 H 0.90015 0.42394 0.73266 0.0
H300 H 0.89388 0.40252 0.73898 0.0
C301 C 0.90401 0.4114 0.75409 0.0
H302 H 0.91531 0.40775 0.71787 0.0
H303 H 0.91094 0.45783 0.72396 0.0
O304 O 0.93095 0.42836 0.16249 0.0
C305 C 0.92829 0.46581 0.96589 0.0
Co306 Co 0.32021 0.18352 0.77545 0.0
Co307 Co 0.31429 0.18393 0.57644 0.0
C308 C 0.32434 0.21477 0.67281 0.0
O309 O 0.32491 0.20694 0.74414 0.0
O310 O 0.32041 0.2074 0.60293 0.0
C311 C 0.33305 0.1872 0.95341 0.0
O312 O 0.34547 0.19632 0.92566 0.0
C313 C 0.32118 0.18702 0.38883 0.0
C314 C 0.30231 0.16972 0.33719 0.0
C315 C 0.31502 0.18033 0.31284 0.0
N316 N 0.31251 0.18055 0.45508 0.0
N317 N 0.3013 0.17022 0.42353 0.0
C318 C 0.3346 0.19975 0.39828 0.0
H319 H 0.33059 0.21152 0.36737 0.0
H320 H 0.33748 0.20194 0.4671 0.0
H321 H 0.34609 0.19555 0.36554 0.0
C322 C 0.34417 0.15691 0.72576 0.0
N323 N 0.3326 0.16847 0.70707 0.0
N324 N 0.3302 0.16879 0.6232 0.0
C325 C 0.3403 0.15753 0.58578 0.0
C326 C 0.34938 0.14951 0.64944 0.0
C327 C 0.34978 0.15288 0.81518 0.0
H328 H 0.33887 0.15217 0.85866 0.0
H329 H 0.35793 0.16304 0.8388 0.0
H330 H 0.35672 0.14097 0.81732 0.0
O331 O 0.2963 0.1794 0.76271 0.0
O332 O 0.2915 0.1796 0.62274 0.0
H333 H 0.33042 0.15115 0.46214 0.0
H334 H 0.35235 0.14673 0.47352 0.0
C335 C 0.34228 0.15555 0.49043 0.0
H336 H 0.3454 0.16774 0.46183 0.0
H337 H 0.29292 0.16347 0.46111 0.0
O338 O 0.32307 0.18055 0.90034 0.0
C339 C 0.28633 0.17811 0.69982 0.0
Co340 Co 0.56788 0.57192 0.52753 0.0
Co341 Co 0.56811 0.56317 0.33015 0.0
C342 C 0.53703 0.57467 0.4199 0.0
O343 O 0.54466 0.5763 0.49135 0.0
O344 O 0.54459 0.56966 0.35244 0.0
C345 C 0.55975 0.57365 0.70397 0.0
O346 O 0.54583 0.56731 0.67433 0.0
C347 C 0.56466 0.568 0.14219 0.0
C348 C 0.58352 0.55043 0.09294 0.0
C349 C 0.57213 0.56233 0.06705 0.0
N350 N 0.57151 0.55996 0.20939 0.0
N351 N 0.58264 0.54936 0.17931 0.0
C352 C 0.55217 0.58166 0.15089 0.0
H353 H 0.55379 0.58816 0.21338 0.0
H354 H 0.55331 0.59066 0.09705 0.0
H355 H 0.5395 0.5762 0.14944 0.0
C356 C 0.59405 0.59544 0.47026 0.0
N357 N 0.58297 0.58326 0.45474 0.0
N358 N 0.58296 0.57979 0.37182 0.0
C359 C 0.59403 0.58977 0.33195 0.0
C360 C 0.60136 0.60001 0.39286 0.0
C361 C 0.59694 0.60296 0.55707 0.0
H362 H 0.58486 0.60678 0.58534 0.0
H363 H 0.60536 0.61387 0.55351 0.0
H364 H 0.60243 0.59345 0.60025 0.0
O365 O 0.57182 0.54775 0.52486 0.0
O366 O 0.57233 0.5413 0.38644 0.0
H367 H 0.60832 0.59764 0.22076 0.0
H368 H 0.58665 0.5933 0.20103 0.0
C369 C 0.5978 0.58935 0.23757 0.0
H370 H 0.60101 0.57649 0.21818 0.0
H371 H 0.58993 0.54166 0.21801 0.0
O372 O 0.57098 0.57788 0.65059 0.0
C373 C 0.57331 0.53703 0.46531 0.0
Co374 Co 0.18203 0.81771 0.28382 0.0
Co375 Co 0.18797 0.81955 0.08449 0.0
C376 C 0.17872 0.78748 0.17231 0.0
O377 O 0.17755 0.79448 0.24583 0.0
O378 O 0.18264 0.79579 0.10542 0.0
C379 C 0.16783 0.81581 0.46296 0.0
O380 O 0.15354 0.81004 0.43499 0.0
C381 C 0.18066 0.81695 0.89798 0.0
C382 C 0.19755 0.8361 0.84548 0.0
C383 C 0.18553 0.82466 0.82211 0.0
N384 N 0.18922 0.82381 0.96351 0.0
N385 N 0.1993 0.83521 0.93153 0.0
C386 C 0.16899 0.80261 0.90797 0.0
H387 H 0.16299 0.80295 0.9723 0.0
H388 H 0.1594 0.80246 0.85692 0.0
H389 H 0.1762 0.79093 0.90239 0.0
C390 C 0.15802 0.84497 0.24084 0.0
N391 N 0.16949 0.83345 0.21942 0.0
N392 N 0.17172 0.83374 0.13537 0.0
C393 C 0.16148 0.84518 0.10059 0.0
C394 C 0.15263 0.85286 0.1662 0.0
C395 C 0.15279 0.84874 0.33118 0.0
H396 H 0.16368 0.84809 0.3748 0.0
H397 H 0.1436 0.8393 0.35226 0.0
H398 H 0.14701 0.86123 0.33586 0.0
O399 O 0.20596 0.82208 0.27137 0.0
O400 O 0.2106 0.82409 0.13158 0.0
H401 H 0.17063 0.85303 0.97769 0.0
H402 H 0.14851 0.85596 0.99118 0.0
C403 C 0.15915 0.84767 0.00575 0.0
H404 H 0.15671 0.83552 0.9749 0.0
H405 H 0.20735 0.84244 0.96862 0.0
O406 O 0.17926 0.81952 0.40997 0.0
C407 C 0.21586 0.82444 0.2089 0.0
Co408 Co 0.93411 0.57075 0.97599 0.0
Co409 Co 0.93365 0.56389 0.17422 0.0
C410 C 0.96505 0.57379 0.0802 0.0
O411 O 0.95756 0.57523 0.00818 0.0
O412 O 0.95723 0.56945 0.14801 0.0
C413 C 0.93904 0.58229 0.79739 0.0
O414 O 0.95097 0.59223 0.82338 0.0
C415 C 0.93668 0.57051 0.36223 0.0
C416 C 0.91999 0.55103 0.41281 0.0
C417 C 0.93029 0.56393 0.43826 0.0
N418 N 0.93041 0.56181 0.29552 0.0
N419 N 0.92045 0.55022 0.32648 0.0
C420 C 0.94879 0.58451 0.35295 0.0
H421 H 0.95431 0.58467 0.28777 0.0
H422 H 0.94223 0.59649 0.36242 0.0
H423 H 0.95871 0.58351 0.40235 0.0
C424 C 0.90777 0.59482 0.02664 0.0
N425 N 0.91908 0.58301 0.04525 0.0
N426 N 0.91894 0.58018 0.12877 0.0
C427 C 0.90753 0.59015 0.16594 0.0
C428 C 0.90015 0.59977 0.10265 0.0
C429 C 0.90467 0.60138 0.93799 0.0
H430 H 0.89935 0.59132 0.89759 0.0
H431 H 0.91665 0.60515 0.90845 0.0
H432 H 0.89602 0.61212 0.93887 0.0
O433 O 0.93008 0.54665 0.98587 0.0
O434 O 0.92895 0.54155 0.12539 0.0
H435 H 0.90076 0.57708 0.28074 0.0
H436 H 0.8921 0.5977 0.27356 0.0
C437 C 0.90322 0.59 0.2597 0.0
H438 H 0.91386 0.5949 0.29718 0.0
H439 H 0.91391 0.54175 0.28849 0.0
O440 O 0.93056 0.57414 0.85184 0.0
C441 C 0.9282 0.53653 0.04781 0.0
Co442 Co 0.18086 0.18343 0.7097 0.0
Co443 Co 0.18869 0.18317 0.90757 0.0
C444 C 0.17765 0.21429 0.81746 0.0
O445 O 0.17638 0.20667 0.74575 0.0
O446 O 0.1823 0.2067 0.88546 0.0
C447 C 0.17838 0.19179 0.53303 0.0
O448 O 0.18411 0.20603 0.56191 0.0
C449 C 0.18357 0.18652 0.09502 0.0
C450 C 0.20107 0.16764 0.14462 0.0
C451 C 0.18917 0.17905 0.1702 0.0
N452 N 0.19165 0.17964 0.02805 0.0
N453 N 0.20221 0.1685 0.05829 0.0
C454 C 0.16997 0.19907 0.08603 0.0
H455 H 0.16348 0.19742 0.02352 0.0
H456 H 0.16094 0.198 0.13982 0.0
H457 H 0.17548 0.21171 0.0873 0.0
C458 C 0.15731 0.15697 0.76401 0.0
N459 N 0.16922 0.16828 0.7811 0.0
N460 N 0.17228 0.16832 0.8644 0.0
C461 C 0.16232 0.15707 0.903 0.0
C462 C 0.15252 0.14953 0.84079 0.0
C463 C 0.15031 0.15389 0.67621 0.0
H464 H 0.14661 0.16589 0.64674 0.0
H465 H 0.13942 0.14544 0.67851 0.0
H466 H 0.16009 0.14834 0.63483 0.0
O467 O 0.20513 0.17945 0.7137 0.0
O468 O 0.21065 0.17892 0.85328 0.0
H469 H 0.15416 0.14269 0.01343 0.0
H470 H 0.15854 0.16433 0.03396 0.0
C471 C 0.16251 0.1532 0.99729 0.0
H472 H 0.17531 0.14993 0.01725 0.0
H473 H 0.20994 0.16121 0.01974 0.0
O474 O 0.17498 0.18037 0.5868 0.0
C475 C 0.21542 0.1779 0.77528 0.0
Co476 Co 0.56822 0.43227 0.46947 0.0
Co477 Co 0.5681 0.43809 0.66856 0.0
C478 C 0.5372 0.42778 0.57296 0.0
O479 O 0.54494 0.42718 0.5014 0.0
O480 O 0.54464 0.43187 0.64243 0.0
C481 C 0.56463 0.41927 0.292 0.0
O482 O 0.55469 0.40752 0.32018 0.0
C483 C 0.56464 0.43157 0.85603 0.0
C484 C 0.58429 0.44812 0.90658 0.0
C485 C 0.57259 0.43645 0.93144 0.0
N486 N 0.57171 0.43969 0.78966 0.0
N487 N 0.58333 0.44965 0.82059 0.0
C488 C 0.54999 0.42025 0.847 0.0
H489 H 0.5408 0.42583 0.80244 0.0
H490 H 0.55412 0.40827 0.81879 0.0
H491 H 0.54387 0.41797 0.90992 0.0
C492 C 0.59467 0.40816 0.51754 0.0
N493 N 0.58334 0.4199 0.53719 0.0
N494 N 0.58316 0.42218 0.62116 0.0
C495 C 0.5943 0.41181 0.65768 0.0
C496 C 0.60195 0.40262 0.59337 0.0
C497 C 0.59781 0.40193 0.42825 0.0
H498 H 0.60192 0.41242 0.38702 0.0
H499 H 0.58603 0.39708 0.40092 0.0
H500 H 0.60733 0.39195 0.42727 0.0
O501 O 0.57197 0.45632 0.48247 0.0
O502 O 0.57229 0.46083 0.62265 0.0
H503 H 0.60176 0.42338 0.77536 0.0
H504 H 0.60787 0.40195 0.76722 0.0
C505 C 0.59786 0.41096 0.7522 0.0
H506 H 0.58642 0.40729 0.78707 0.0
H507 H 0.59077 0.45735 0.78264 0.0
O508 O 0.57144 0.42921 0.34477 0.0
C509 C 0.57333 0.4662 0.54581 0.0
Co510 Co 0.3209 0.81774 0.22204 0.0
Co511 Co 0.31335 0.81923 0.42017 0.0
C512 C 0.323 0.78724 0.3289 0.0
O513 O 0.32501 0.79439 0.25633 0.0
O514 O 0.31847 0.79545 0.39516 0.0
C515 C 0.3344 0.81507 0.04241 0.0
O516 O 0.34713 0.80616 0.06824 0.0
C517 C 0.32117 0.81665 0.60694 0.0
C518 C 0.30215 0.83348 0.66108 0.0
C519 C 0.31551 0.82354 0.68375 0.0
N520 N 0.31176 0.82258 0.54201 0.0
N521 N 0.30039 0.83257 0.57512 0.0
C522 C 0.33475 0.80412 0.59546 0.0
H523 H 0.34659 0.81063 0.58161 0.0
H524 H 0.3363 0.79647 0.65437 0.0
H525 H 0.33206 0.79596 0.54001 0.0
C526 C 0.34545 0.84377 0.27197 0.0
N527 N 0.33328 0.83283 0.29059 0.0
N528 N 0.33001 0.83353 0.37367 0.0
C529 C 0.34 0.84498 0.41037 0.0
C530 C 0.35015 0.85174 0.34747 0.0
C531 C 0.35265 0.84612 0.18402 0.0
H532 H 0.35764 0.83408 0.16069 0.0
H533 H 0.36274 0.85552 0.18393 0.0
H534 H 0.34267 0.85 0.13901 0.0
O535 O 0.29694 0.82217 0.23227 0.0
O536 O 0.29104 0.82429 0.37072 0.0
H537 H 0.3464 0.8617 0.51472 0.0
H538 H 0.34459 0.84011 0.54351 0.0
C539 C 0.33928 0.85011 0.50298 0.0
H540 H 0.32619 0.85217 0.52233 0.0
H541 H 0.2915 0.83889 0.5388 0.0
O542 O 0.32405 0.82069 0.09682 0.0
C543 C 0.28651 0.82467 0.29216 0.0
Co544 Co 0.56819 0.07188 0.46748 0.0
Co545 Co 0.56825 0.06436 0.66598 0.0
C546 C 0.53718 0.07491 0.57468 0.0
O547 O 0.54493 0.07608 0.50339 0.0
O548 O 0.54468 0.0705 0.64337 0.0
C549 C 0.55901 0.07336 0.29351 0.0
O550 O 0.54566 0.06651 0.32682 0.0
C551 C 0.56424 0.06955 0.85284 0.0
C552 C 0.58269 0.05187 0.9051 0.0
C553 C 0.57107 0.06368 0.9292 0.0
N554 N 0.57153 0.06154 0.78683 0.0
N555 N 0.58246 0.05091 0.81859 0.0
C556 C 0.55195 0.08333 0.84167 0.0
H557 H 0.55491 0.09054 0.78268 0.0
H558 H 0.55187 0.09168 0.8986 0.0
H559 H 0.53937 0.07792 0.83326 0.0
C560 C 0.5944 0.09572 0.52187 0.0
N561 N 0.58312 0.0838 0.53901 0.0
N562 N 0.58304 0.08081 0.62241 0.0
C563 C 0.59428 0.09079 0.66096 0.0
C564 C 0.60183 0.10056 0.59865 0.0
C565 C 0.59749 0.10265 0.43391 0.0
H566 H 0.58546 0.10596 0.4035 0.0
H567 H 0.60563 0.11377 0.43622 0.0
H568 H 0.60341 0.09295 0.39338 0.0
O569 O 0.57248 0.04768 0.47253 0.0
O570 O 0.57264 0.04236 0.61235 0.0
H571 H 0.60889 0.09866 0.77117 0.0
H572 H 0.58721 0.09449 0.79227 0.0
C573 C 0.59826 0.09045 0.75511 0.0
H574 H 0.6014 0.07758 0.77459 0.0
H575 H 0.58994 0.04318 0.78105 0.0
O576 O 0.57072 0.07769 0.3438 0.0
C577 C 0.5739 0.03747 0.53463 0.0
Co578 Co 0.1822 0.31769 0.7179 0.0
Co579 Co 0.18776 0.31742 0.91717 0.0
C580 C 0.17766 0.28658 0.82145 0.0
O581 O 0.17724 0.29436 0.74994 0.0
O582 O 0.18153 0.294 0.89127 0.0
C583 C 0.16901 0.31419 0.54062 0.0
O584 O 0.1571 0.30446 0.56898 0.0
C585 C 0.18121 0.31407 0.1046 0.0
C586 C 0.19804 0.33348 0.15517 0.0
C587 C 0.18621 0.32194 0.18001 0.0
N588 N 0.18942 0.32103 0.03823 0.0
N589 N 0.19955 0.3325 0.06915 0.0
C590 C 0.16967 0.29959 0.09558 0.0
H591 H 0.15776 0.30389 0.0673 0.0
H592 H 0.16727 0.29352 0.15852 0.0
H593 H 0.17511 0.29031 0.05108 0.0
C594 C 0.15803 0.34414 0.7662 0.0
N595 N 0.16974 0.33277 0.78572 0.0
N596 N 0.17193 0.3325 0.86975 0.0
C597 C 0.16156 0.34362 0.90639 0.0
C598 C 0.15243 0.35135 0.84216 0.0
C599 C 0.15187 0.34738 0.67688 0.0
H600 H 0.16244 0.3513 0.63568 0.0
H601 H 0.14682 0.33569 0.64955 0.0
H602 H 0.14206 0.35706 0.6759 0.0
O603 O 0.20627 0.32154 0.73053 0.0
O604 O 0.21046 0.32149 0.87101 0.0
H605 H 0.17314 0.35087 0.02444 0.0
H606 H 0.1518 0.35726 0.01603 0.0
C607 C 0.16069 0.34714 0.00097 0.0
H608 H 0.15684 0.33573 0.03554 0.0
H609 H 0.20735 0.33983 0.0312 0.0
O610 O 0.17909 0.32084 0.59322 0.0
C611 C 0.21601 0.32269 0.79455 0.0
Co612 Co 0.93396 0.93174 0.97549 0.0
Co613 Co 0.93343 0.93838 0.17424 0.0
C614 C 0.96477 0.9282 0.08215 0.0
O615 O 0.95724 0.92711 0.01004 0.0
O616 O 0.95706 0.93252 0.15048 0.0
C617 C 0.93869 0.91972 0.7967 0.0
O618 O 0.95022 0.90937 0.82323 0.0
C619 C 0.9376 0.93355 0.36248 0.0
C620 C 0.9148 0.94574 0.4106 0.0
C621 C 0.92853 0.93669 0.43693 0.0
N622 N 0.92928 0.94002 0.29513 0.0
N623 N 0.91579 0.94745 0.32462 0.0
C624 C 0.95427 0.92546 0.35514 0.0
H625 H 0.96246 0.93326 0.31453 0.0
H626 H 0.95289 0.91322 0.32297 0.0
H627 H 0.96024 0.92384 0.41898 0.0
C628 C 0.90767 0.90756 0.02375 0.0
N629 N 0.9188 0.91949 0.04321 0.0
N630 N 0.91901 0.9218 0.12712 0.0
C631 C 0.9083 0.91103 0.16399 0.0
C632 C 0.90066 0.90174 0.09987 0.0
C633 C 0.90352 0.90243 0.93366 0.0
H634 H 0.90237 0.9136 0.89226 0.0
H635 H 0.91379 0.89471 0.90768 0.0
H636 H 0.89175 0.89525 0.93115 0.0
O637 O 0.9299 0.95558 0.9863 0.0
O638 O 0.92886 0.96099 0.12551 0.0
H639 H 0.89913 0.91895 0.28651 0.0
H640 H 0.90018 0.89669 0.27456 0.0
C641 C 0.9065 0.90858 0.25914 0.0
H642 H 0.91892 0.90846 0.28973 0.0
H643 H 0.90704 0.95336 0.28563 0.0
O644 O 0.93078 0.92851 0.85082 0.0
C645 C 0.92803 0.96582 0.04751 0.0
Co646 Co 0.31938 0.68406 0.22553 0.0
Co647 Co 0.31317 0.68307 0.42379 0.0
C648 C 0.32252 0.71477 0.33123 0.0
O649 O 0.3239 0.70745 0.25871 0.0
O650 O 0.31838 0.70674 0.39872 0.0
C651 C 0.33131 0.6885 0.0464 0.0
O652 O 0.34279 0.69899 0.07203 0.0
C653 C 0.31968 0.68623 0.61199 0.0
C654 C 0.30156 0.66796 0.6616 0.0
C655 C 0.31364 0.67916 0.68736 0.0
N656 N 0.31151 0.67943 0.54487 0.0
N657 N 0.30074 0.66852 0.57527 0.0
C658 C 0.3327 0.69943 0.60423 0.0
H659 H 0.33266 0.70505 0.53932 0.0
H660 H 0.34513 0.69386 0.61501 0.0
H661 H 0.33072 0.70918 0.65383 0.0
C662 C 0.34392 0.65782 0.27176 0.0
N663 N 0.332 0.66891 0.29208 0.0
N664 N 0.32949 0.66862 0.37582 0.0
C665 C 0.33985 0.65741 0.41164 0.0
C666 C 0.34936 0.65018 0.34703 0.0
C667 C 0.34943 0.65428 0.18156 0.0
H668 H 0.33841 0.65297 0.13925 0.0
H669 H 0.35685 0.66494 0.15749 0.0
H670 H 0.35702 0.64278 0.17799 0.0
O671 O 0.2954 0.67982 0.23754 0.0
O672 O 0.29063 0.67828 0.3772 0.0
H673 H 0.3294 0.64962 0.53173 0.0
H674 H 0.35146 0.64568 0.5226 0.0
C675 C 0.34134 0.65449 0.50655 0.0
H676 H 0.34402 0.66644 0.53897 0.0
H677 H 0.29279 0.66144 0.53687 0.0
O678 O 0.32226 0.68107 0.10106 0.0
C679 C 0.28543 0.6777 0.29992 0.0
Co680 Co 0.56869 0.93253 0.53273 0.0
Co681 Co 0.56815 0.93879 0.33358 0.0
C682 C 0.53739 0.92835 0.43032 0.0
O683 O 0.54527 0.92798 0.5016 0.0
O684 O 0.54464 0.93221 0.35979 0.0
C685 C 0.56533 0.91973 0.71094 0.0
O686 O 0.55495 0.90825 0.68402 0.0
C687 C 0.56479 0.93311 0.14537 0.0
C688 C 0.58543 0.94863 0.09694 0.0
C689 C 0.57323 0.93759 0.07082 0.0
N690 N 0.57204 0.94078 0.21259 0.0
N691 N 0.58423 0.95017 0.18292 0.0
C692 C 0.54932 0.92295 0.15284 0.0
H693 H 0.55199 0.91151 0.19033 0.0
H694 H 0.5441 0.91967 0.089 0.0
H695 H 0.53994 0.93026 0.18877 0.0
C696 C 0.59471 0.90824 0.48157 0.0
N697 N 0.58349 0.92016 0.46328 0.0
N698 N 0.58317 0.92264 0.37947 0.0
C699 C 0.59407 0.91217 0.3417 0.0
C700 C 0.60174 0.90276 0.40501 0.0
C701 C 0.59799 0.90183 0.57036 0.0
H702 H 0.60259 0.91215 0.61135 0.0
H703 H 0.58618 0.89733 0.59888 0.0
H704 H 0.60721 0.89157 0.57004 0.0
O705 O 0.57278 0.95641 0.52088 0.0
O706 O 0.57238 0.9615 0.38132 0.0
H707 H 0.6019 0.92363 0.22447 0.0
H708 H 0.60687 0.90192 0.23049 0.0
C709 C 0.59737 0.91138 0.2469 0.0
H710 H 0.58568 0.9084 0.21248 0.0
H711 H 0.59197 0.95739 0.22176 0.0
O712 O 0.57226 0.92938 0.65721 0.0
C713 C 0.57393 0.96653 0.45864 0.0
Co714 Co 0.32167 0.31794 0.78304 0.0
Co715 Co 0.31378 0.31816 0.58527 0.0
C716 C 0.32499 0.287 0.67654 0.0
O717 O 0.32618 0.2946 0.7485 0.0
O718 O 0.32039 0.29456 0.60812 0.0
C719 C 0.32795 0.31076 0.96248 0.0
O720 O 0.32959 0.2952 0.9385 0.0
C721 C 0.3147 0.31391 0.39475 0.0
C722 C 0.30639 0.33884 0.35417 0.0
C723 C 0.31241 0.32391 0.32236 0.0
N724 N 0.31079 0.3228 0.46536 0.0
N725 N 0.30543 0.33753 0.44025 0.0
C726 C 0.31926 0.29594 0.39744 0.0
H727 H 0.31243 0.28977 0.45049 0.0
H728 H 0.3328 0.29478 0.40962 0.0
H729 H 0.31607 0.28959 0.33622 0.0
C730 C 0.34555 0.34395 0.72981 0.0
N731 N 0.33338 0.33298 0.71223 0.0
N732 N 0.33065 0.33271 0.62866 0.0
C733 C 0.34144 0.34323 0.59017 0.0
C734 C 0.35107 0.3508 0.653 0.0
C735 C 0.3522 0.34716 0.8182 0.0
H736 H 0.35575 0.33519 0.84852 0.0
H737 H 0.36314 0.35557 0.8167 0.0
H738 H 0.34227 0.3528 0.85832 0.0
O739 O 0.29764 0.3216 0.77764 0.0
O740 O 0.29154 0.32224 0.63919 0.0
H741 H 0.33252 0.35454 0.47484 0.0
H742 H 0.35457 0.35193 0.47669 0.0
C743 C 0.34263 0.34605 0.49505 0.0
H744 H 0.34142 0.3341 0.46027 0.0
H745 H 0.3017 0.34693 0.48235 0.0
O746 O 0.32624 0.32202 0.90593 0.0
C747 C 0.28704 0.32301 0.71773 0.0
Co748 Co 0.93359 0.07069 0.03668 0.0
Co749 Co 0.93392 0.064 0.83805 0.0
C750 C 0.96477 0.0748 0.93092 0.0
O751 O 0.95704 0.07535 0.00275 0.0
O752 O 0.95736 0.07069 0.86135 0.0
C753 C 0.94086 0.07834 0.21561 0.0
O754 O 0.95593 0.08232 0.19057 0.0
C755 C 0.93818 0.06567 0.64791 0.0
C756 C 0.91381 0.05599 0.60589 0.0
C757 C 0.92854 0.06265 0.5752 0.0
N758 N 0.92935 0.06136 0.71803 0.0
N759 N 0.91492 0.05532 0.69218 0.0
C760 C 0.95578 0.07153 0.65126 0.0
H761 H 0.96261 0.06432 0.70064 0.0
H762 H 0.95597 0.08484 0.66985 0.0
H763 H 0.96213 0.06992 0.58842 0.0
C764 C 0.90682 0.09417 0.98467 0.0
N765 N 0.91839 0.08256 0.96684 0.0
N766 N 0.91912 0.08032 0.883 0.0
C767 C 0.90842 0.09088 0.84456 0.0
C768 C 0.9 0.09976 0.90762 0.0
C769 C 0.90228 0.0995 0.07395 0.0
H770 H 0.90114 0.08842 0.11606 0.0
H771 H 0.91237 0.10743 0.1002 0.0
H772 H 0.89043 0.10654 0.07492 0.0
O773 O 0.92972 0.04668 0.02919 0.0
O774 O 0.92981 0.04163 0.88948 0.0
H775 H 0.89956 0.0844 0.71911 0.0
H776 H 0.90246 0.10635 0.73483 0.0
C777 C 0.90765 0.09388 0.74943 0.0
H778 H 0.92026 0.093 0.7211 0.0
H779 H 0.90561 0.05118 0.73381 0.0
O780 O 0.92983 0.07482 0.16009 0.0
C781 C 0.9285 0.03657 0.96685 0.0
Co782 Co 0.18009 0.68431 0.27776 0.0
Co783 Co 0.18883 0.68329 0.07994 0.0
C784 C 0.17838 0.71499 0.1683 0.0
O785 O 0.17628 0.70766 0.24033 0.0
O786 O 0.18314 0.70696 0.10188 0.0
C787 C 0.18011 0.69303 0.45185 0.0
O788 O 0.18807 0.70568 0.41785 0.0
C789 C 0.18432 0.68738 0.89177 0.0
C790 C 0.20135 0.66817 0.84114 0.0
C791 C 0.19011 0.68027 0.81597 0.0
N792 N 0.19183 0.67983 0.95868 0.0
N793 N 0.20205 0.66843 0.92779 0.0
C794 C 0.17072 0.69993 0.90096 0.0
H795 H 0.1643 0.69841 0.96375 0.0
H796 H 0.16165 0.69875 0.84743 0.0
H797 H 0.17615 0.71256 0.89863 0.0
C798 C 0.15664 0.65773 0.22256 0.0
N799 N 0.16852 0.66909 0.206 0.0
N800 N 0.17198 0.66887 0.12308 0.0
C801 C 0.16225 0.65748 0.08412 0.0
C802 C 0.15231 0.64992 0.14586 0.0
C803 C 0.15007 0.65414 0.31075 0.0
H804 H 0.16058 0.65301 0.35666 0.0
H805 H 0.14223 0.6647 0.33214 0.0
H806 H 0.14262 0.64254 0.312 0.0
O807 O 0.20416 0.67985 0.27448 0.0
O808 O 0.21064 0.67861 0.13612 0.0
H809 H 0.17367 0.64941 0.96692 0.0
H810 H 0.15141 0.64631 0.96972 0.0
C811 C 0.16168 0.65473 0.98878 0.0
H812 H 0.15979 0.66677 0.95589 0.0
H813 H 0.20935 0.66065 0.96601 0.0
O814 O 0.17428 0.68194 0.40178 0.0
C815 C 0.21485 0.67783 0.21517 0.0
Co816 Co 0.43371 0.93182 0.53424 0.0
Co817 Co 0.43464 0.93764 0.33506 0.0
C818 C 0.46526 0.92769 0.43105 0.0
O819 O 0.45733 0.92756 0.50229 0.0
O820 O 0.45803 0.93118 0.36015 0.0
C821 C 0.4396 0.92085 0.71224 0.0
O822 O 0.45204 0.9117 0.68483 0.0
C823 C 0.43884 0.9332 0.14657 0.0
C824 C 0.41714 0.9473 0.09896 0.0
C825 C 0.43045 0.93771 0.07204 0.0
N826 N 0.43071 0.9397 0.21441 0.0
N827 N 0.41781 0.94818 0.18532 0.0
C828 C 0.45481 0.92384 0.1539 0.0
H829 H 0.46412 0.93199 0.18532 0.0
H830 H 0.45296 0.91282 0.19575 0.0
H831 H 0.45971 0.91994 0.09032 0.0
C832 C 0.40723 0.90786 0.48265 0.0
N833 N 0.41887 0.9194 0.46481 0.0
N834 N 0.41966 0.92155 0.38089 0.0
C835 C 0.40883 0.91113 0.3425 0.0
C836 C 0.40037 0.9023 0.40557 0.0
C837 C 0.4026 0.90263 0.57193 0.0
H838 H 0.40198 0.91369 0.61451 0.0
H839 H 0.41238 0.89425 0.59748 0.0
H840 H 0.39047 0.89606 0.57298 0.0
O841 O 0.42918 0.95566 0.5232 0.0
O842 O 0.43044 0.96034 0.38313 0.0
H843 H 0.40122 0.91906 0.2171 0.0
H844 H 0.4011 0.8968 0.23113 0.0
C845 C 0.4078 0.90844 0.24719 0.0
H846 H 0.42049 0.90768 0.21983 0.0
H847 H 0.40934 0.95439 0.22471 0.0
O848 O 0.4304 0.92843 0.65873 0.0
C849 C 0.42835 0.96555 0.45981 0.0
Co850 Co 0.81955 0.68377 0.2786 0.0
Co851 Co 0.81338 0.68313 0.07978 0.0
C852 C 0.82308 0.71456 0.17271 0.0
O853 O 0.8242 0.70713 0.24503 0.0
O854 O 0.81895 0.7067 0.10474 0.0
C855 C 0.83242 0.68755 0.45732 0.0
O856 O 0.8452 0.69625 0.43018 0.0
C857 C 0.82045 0.68629 0.8924 0.0
C858 C 0.80161 0.66906 0.83992 0.0
C859 C 0.8143 0.67973 0.81613 0.0
N860 N 0.81178 0.6797 0.95836 0.0
N861 N 0.80059 0.6694 0.92629 0.0
C862 C 0.83389 0.699 0.90204 0.0
H863 H 0.83587 0.70222 0.97057 0.0
H864 H 0.84572 0.6941 0.87572 0.0
H865 H 0.83061 0.7103 0.86473 0.0
C866 C 0.84358 0.657 0.2313 0.0
N867 N 0.83196 0.66845 0.21161 0.0
N868 N 0.82949 0.6684 0.12777 0.0
C869 C 0.83962 0.65705 0.09134 0.0
C870 C 0.84877 0.64931 0.15568 0.0
C871 C 0.84924 0.65333 0.32105 0.0
H872 H 0.83837 0.65293 0.36492 0.0
H873 H 0.85754 0.66348 0.34315 0.0
H874 H 0.85604 0.64134 0.32447 0.0
O875 O 0.7956 0.67956 0.26638 0.0
O876 O 0.79073 0.6786 0.1265 0.0
H877 H 0.82969 0.65013 0.96856 0.0
H878 H 0.8517 0.64601 0.97976 0.0
C879 C 0.84154 0.65475 0.99614 0.0
H880 H 0.84447 0.66688 0.96632 0.0
H881 H 0.79219 0.66262 0.96352 0.0
O882 O 0.82233 0.68121 0.40381 0.0
C883 C 0.78562 0.67768 0.20393 0.0
Co884 Co 0.06832 0.07077 0.03206 0.0
Co885 Co 0.0676 0.06382 0.83377 0.0
C886 C 0.03695 0.07456 0.92693 0.0
O887 O 0.04489 0.07519 0.99793 0.0
O888 O 0.04417 0.07047 0.85685 0.0
C889 C 0.06021 0.07173 0.20734 0.0
O890 O 0.04671 0.06467 0.17687 0.0
C891 C 0.06415 0.06759 0.64478 0.0
C892 C 0.08516 0.05213 0.60005 0.0
C893 C 0.07256 0.06247 0.57149 0.0
N894 N 0.07158 0.06074 0.71377 0.0
N895 N 0.08401 0.05139 0.68639 0.0
C896 C 0.05023 0.07985 0.64978 0.0
H897 H 0.05068 0.08667 0.71182 0.0
H898 H 0.05083 0.08879 0.59543 0.0
H899 H 0.03826 0.07305 0.64582 0.0
C900 C 0.09519 0.09395 0.97771 0.0
N901 N 0.08341 0.08249 0.96073 0.0
N902 N 0.08271 0.07999 0.87709 0.0
C903 C 0.09379 0.09004 0.83793 0.0
C904 C 0.10224 0.09907 0.90036 0.0
C905 C 0.09984 0.09939 0.06664 0.0
H906 H 0.10109 0.08835 0.10887 0.0
H907 H 0.08975 0.10728 0.09319 0.0
H908 H 0.11167 0.10648 0.067 0.0
O909 O 0.07238 0.04664 0.02668 0.0
O910 O 0.07159 0.04162 0.88677 0.0
H911 H 0.10127 0.08088 0.71453 0.0
H912 H 0.10255 0.10321 0.72468 0.0
C913 C 0.09522 0.09205 0.74233 0.0
H914 H 0.08266 0.09328 0.71401 0.0
H915 H 0.09198 0.0448 0.72696 0.0
O916 O 0.0713 0.07655 0.15472 0.0
C917 C 0.07322 0.03653 0.96393 0.0
Co918 Co 0.68131 0.31848 0.77681 0.0
Co919 Co 0.68832 0.31826 0.57851 0.0
C920 C 0.67792 0.28728 0.67028 0.0
O921 O 0.67718 0.29504 0.74183 0.0
O922 O 0.68194 0.29471 0.60072 0.0
C923 C 0.68046 0.31037 0.95242 0.0
O924 O 0.68765 0.29691 0.92231 0.0
C925 C 0.68446 0.3149 0.38965 0.0
C926 C 0.6999 0.33589 0.34466 0.0
C927 C 0.68957 0.32327 0.31626 0.0
N928 N 0.69131 0.32236 0.45855 0.0
N929 N 0.70064 0.3348 0.43103 0.0
C930 C 0.67221 0.30097 0.39476 0.0
H931 H 0.66544 0.30139 0.45696 0.0
H932 H 0.66323 0.30159 0.34061 0.0
H933 H 0.67903 0.28902 0.39043 0.0
C934 C 0.65773 0.34507 0.7237 0.0
N935 N 0.66938 0.33352 0.70609 0.0
N936 N 0.67198 0.33311 0.62246 0.0
C937 C 0.66186 0.34421 0.58398 0.0
C938 C 0.65261 0.3523 0.64683 0.0
C939 C 0.65212 0.34935 0.81284 0.0
H940 H 0.66312 0.35114 0.85483 0.0
H941 H 0.6448 0.33884 0.83935 0.0
H942 H 0.64443 0.3608 0.81374 0.0
O943 O 0.70542 0.32282 0.77162 0.0
O944 O 0.71046 0.32244 0.63167 0.0
H945 H 0.67136 0.35215 0.46213 0.0
H946 H 0.64902 0.35358 0.47103 0.0
C947 C 0.66009 0.34608 0.48847 0.0
H948 H 0.65883 0.33365 0.45855 0.0
H949 H 0.70725 0.34277 0.4715 0.0
O950 O 0.67551 0.32136 0.89952 0.0
C951 C 0.71552 0.32395 0.70895 0.0
Co952 Co 0.43406 0.07052 0.46568 0.0
Co953 Co 0.4337 0.06352 0.66437 0.0
C954 C 0.46488 0.07414 0.57062 0.0
O955 O 0.45728 0.07542 0.49886 0.0
O956 O 0.45726 0.06954 0.6387 0.0
C957 C 0.43794 0.08322 0.28717 0.0
O958 O 0.44869 0.09436 0.31394 0.0
C959 C 0.43747 0.06969 0.85201 0.0
C960 C 0.41744 0.05368 0.90307 0.0
C961 C 0.42941 0.06511 0.92765 0.0
N962 N 0.43019 0.06168 0.7858 0.0
N963 N 0.41837 0.05201 0.81707 0.0
C964 C 0.45241 0.08062 0.84258 0.0
H965 H 0.46146 0.07469 0.79858 0.0
H966 H 0.44861 0.09263 0.81354 0.0
H967 H 0.45857 0.08286 0.9054 0.0
C968 C 0.40764 0.09445 0.51669 0.0
N969 N 0.41888 0.08256 0.53501 0.0
N970 N 0.41895 0.07986 0.61868 0.0
C971 C 0.40784 0.09012 0.65628 0.0
C972 C 0.40032 0.09966 0.59306 0.0
C973 C 0.40452 0.10104 0.42811 0.0
H974 H 0.39988 0.09083 0.38653 0.0
H975 H 0.41641 0.10548 0.40012 0.0
H976 H 0.39538 0.11137 0.42866 0.0
O977 O 0.43045 0.04645 0.47577 0.0
O978 O 0.42903 0.04109 0.6152 0.0
H979 H 0.39996 0.07808 0.77191 0.0
H980 H 0.39428 0.09966 0.76667 0.0
C981 C 0.40414 0.09053 0.75074 0.0
H982 H 0.41559 0.09382 0.78657 0.0
H983 H 0.41071 0.04449 0.77934 0.0
O984 O 0.43066 0.07384 0.34103 0.0
C985 C 0.42848 0.03625 0.5372 0.0
Co986 Co 0.68076 0.6845 0.20705 0.0
Co987 Co 0.68724 0.68423 0.40545 0.0
C988 C 0.67731 0.7155 0.31224 0.0
O989 O 0.67621 0.70793 0.24027 0.0
O990 O 0.68151 0.70781 0.38075 0.0
C991 C 0.67017 0.69018 0.02781 0.0
O992 O 0.66123 0.70293 0.05298 0.0
C993 C 0.68284 0.68842 0.59428 0.0
C994 C 0.69707 0.66674 0.64115 0.0
C995 C 0.68745 0.67999 0.66867 0.0
N996 N 0.6893 0.68033 0.52612 0.0
N997 N 0.69788 0.66748 0.55482 0.0
C998 C 0.67304 0.70417 0.58752 0.0
H999 H 0.66054 0.70134 0.56121 0.0
H1000 H 0.67178 0.71046 0.65072 0.0
H1001 H 0.6793 0.71276 0.54228 0.0
C1002 C 0.65666 0.6581 0.2565 0.0
N1003 N 0.66844 0.66943 0.27549 0.0
N1004 N 0.6708 0.6697 0.35934 0.0
C1005 C 0.66031 0.65879 0.39664 0.0
C1006 C 0.65106 0.65098 0.33287 0.0
C1007 C 0.65153 0.65379 0.16662 0.0
H1008 H 0.66271 0.65258 0.12528 0.0
H1009 H 0.64382 0.66403 0.1402 0.0
H1010 H 0.64435 0.64202 0.16458 0.0
O1011 O 0.70475 0.68039 0.21703 0.0
O1012 O 0.70966 0.67945 0.35679 0.0
H1013 H 0.66918 0.64993 0.51799 0.0
H1014 H 0.64682 0.64985 0.50847 0.0
C1015 C 0.65831 0.65675 0.49194 0.0
H1016 H 0.65774 0.66913 0.52293 0.0
H1017 H 0.70412 0.65906 0.51517 0.0
O1018 O 0.67739 0.68106 0.08296 0.0
C1019 C 0.71476 0.67853 0.27938 0.0
Co1020 Co 0.06811 0.93091 0.97994 0.0
Co1021 Co 0.06802 0.93931 0.17752 0.0
C1022 C 0.03707 0.92804 0.08633 0.0
O1023 O 0.04487 0.92654 0.01529 0.0
O1024 O 0.04449 0.9329 0.15452 0.0
C1025 C 0.05992 0.92917 0.80378 0.0
O1026 O 0.04603 0.93552 0.83367 0.0
C1027 C 0.06449 0.93453 0.36546 0.0
C1028 C 0.0837 0.95175 0.41433 0.0
C1029 C 0.07212 0.94006 0.44039 0.0
N1030 N 0.07145 0.94244 0.29815 0.0
N1031 N 0.08278 0.95284 0.328 0.0
C1032 C 0.05174 0.9211 0.357 0.0
H1033 H 0.05332 0.91447 0.29484 0.0
H1034 H 0.05264 0.91216 0.41126 0.0
H1035 H 0.03919 0.92681 0.35778 0.0
C1036 C 0.09451 0.90761 0.03655 0.0
N1037 N 0.08313 0.91948 0.05258 0.0
N1038 N 0.08293 0.92273 0.13571 0.0
C1039 C 0.09413 0.91285 0.1753 0.0
C1040 C 0.10182 0.90298 0.11387 0.0
C1041 C 0.09789 0.90058 0.94907 0.0
H1042 H 0.086 0.89666 0.91904 0.0
H1043 H 0.10652 0.88984 0.95207 0.0
H1044 H 0.10335 0.91043 0.90776 0.0
O1045 O 0.07208 0.95506 0.98354 0.0
O1046 O 0.07229 0.96127 0.12226 0.0
H1047 H 0.10139 0.92592 0.28912 0.0
H1048 H 0.10809 0.90457 0.2869 0.0
C1049 C 0.09783 0.91316 0.26975 0.0
H1050 H 0.08653 0.90955 0.30605 0.0
H1051 H 0.09019 0.96039 0.28914 0.0
O1052 O 0.07121 0.925 0.85692 0.0
C1053 C 0.07344 0.96568 0.04368 0.0
Co1054 Co 0.82094 0.31898 0.72144 0.0
Co1055 Co 0.81315 0.31875 0.91925 0.0
C1056 C 0.82403 0.28785 0.82813 0.0
O1057 O 0.82524 0.29574 0.75725 0.0
O1058 O 0.81942 0.29518 0.89704 0.0
C1059 C 0.82148 0.31074 0.54614 0.0
O1060 O 0.81389 0.29757 0.57714 0.0
C1061 C 0.81679 0.31477 0.1079 0.0
C1062 C 0.80229 0.33633 0.15421 0.0
C1063 C 0.81214 0.32327 0.18188 0.0
N1064 N 0.81017 0.32263 0.03953 0.0
N1065 N 0.80137 0.33538 0.06786 0.0
C1066 C 0.82845 0.30035 0.10136 0.0
H1067 H 0.83603 0.30136 0.04187 0.0
H1068 H 0.83675 0.29969 0.15838 0.0
H1069 H 0.8211 0.2887 0.09761 0.0
C1070 C 0.84465 0.34515 0.77634 0.0
N1071 N 0.83264 0.33394 0.79297 0.0
N1072 N 0.82983 0.33349 0.87643 0.0
C1073 C 0.84023 0.34423 0.91583 0.0
C1074 C 0.84995 0.35201 0.85382 0.0
C1075 C 0.85036 0.34953 0.68747 0.0
H1076 H 0.83941 0.35112 0.64483 0.0
H1077 H 0.85793 0.33916 0.66134 0.0
H1078 H 0.85783 0.36112 0.68715 0.0
O1079 O 0.79689 0.32317 0.72572 0.0
O1080 O 0.79105 0.32306 0.86484 0.0
H1081 H 0.83057 0.35253 0.03667 0.0
H1082 H 0.85296 0.35325 0.02995 0.0
C1083 C 0.84174 0.34609 0.01146 0.0
H1084 H 0.8425 0.33365 0.04159 0.0
H1085 H 0.79508 0.3437 0.02792 0.0
O1086 O 0.82682 0.32166 0.59846 0.0
C1087 C 0.78644 0.32442 0.78665 0.0
C1088 C 0.06446 0.56376 0.66762 0.0
C1089 C 0.06694 0.58019 0.69592 0.0
C1090 C 0.06626 0.55945 0.58087 0.0
C1091 C 0.07068 0.57137 0.51901 0.0
H1092 H 0.06114 0.55408 0.71302 0.0
H1093 H 0.06434 0.54662 0.56215 0.0
S1094 S 0.0802 0.61575 0.56096 0.0
N1095 N 0.07465 0.60832 0.65594 0.0
N1096 N 0.07882 0.60004 0.49282 0.0
C1097 C 0.0734 0.58783 0.54627 0.0
C1098 C 0.0713 0.59229 0.63481 0.0
C1099 C 0.69362 0.82197 0.83354 0.0
C1100 C 0.68178 0.82 0.7679 0.0
C1101 C 0.68923 0.82038 0.92023 0.0
C1102 C 0.67281 0.81668 0.94498 0.0
H1103 H 0.70643 0.8248 0.8178 0.0
H1104 H 0.69889 0.82191 0.96824 0.0
S1105 S 0.63675 0.81193 0.79878 0.0
N1106 N 0.65259 0.81555 0.73376 0.0
N1107 N 0.64449 0.81179 0.89733 0.0
C1108 C 0.66079 0.81474 0.88025 0.0
C1109 C 0.66522 0.81662 0.79153 0.0
C1110 C 0.44294 0.42358 0.0372 0.0
C1111 C 0.43156 0.43611 0.0135 0.0
C1112 C 0.44607 0.41984 0.12403 0.0
C1113 C 0.43735 0.42791 0.19022 0.0
H1114 H 0.44932 0.41631 0.98892 0.0
H1115 H 0.4552 0.4104 0.13944 0.0
S1116 S 0.4055 0.46088 0.16395 0.0
N1117 N 0.41134 0.45635 0.06481 0.0
N1118 N 0.41648 0.44857 0.22704 0.0
C1119 C 0.42549 0.43997 0.16776 0.0
C1120 C 0.42271 0.44418 0.07974 0.0
C1121 C 0.82084 0.17211 0.32268 0.0
C1122 C 0.81819 0.18534 0.26506 0.0
C1123 C 0.82375 0.175 0.41052 0.0
C1124 C 0.82377 0.19123 0.44441 0.0
H1125 H 0.82031 0.15939 0.29993 0.0
H1126 H 0.8252 0.16437 0.45268 0.0
S1127 S 0.81801 0.23019 0.31972 0.0
N1128 N 0.81623 0.21526 0.24736 0.0
N1129 N 0.82173 0.22076 0.41219 0.0
C1130 C 0.82169 0.2046 0.38679 0.0
C1131 C 0.81888 0.20164 0.29719 0.0
C1132 C 0.0804 0.43022 0.4233 0.0
C1133 C 0.06744 0.43472 0.47938 0.0
C1134 C 0.07752 0.42779 0.33514 0.0
C1135 C 0.0616 0.43009 0.29948 0.0
H1136 H 0.09296 0.42888 0.44755 0.0
H1137 H 0.08802 0.4248 0.29423 0.0
S1138 S 0.02332 0.44134 0.41997 0.0
N1139 N 0.03806 0.44098 0.49393 0.0
N1140 N 0.03251 0.43631 0.32849 0.0
C1141 C 0.04841 0.43405 0.35562 0.0
C1142 C 0.05136 0.43641 0.44551 0.0
C1143 C 0.83511 0.8163 0.70125 0.0
C1144 C 0.81842 0.8187 0.72605 0.0
C1145 C 0.83949 0.81397 0.61438 0.0
C1146 C 0.82736 0.81442 0.54946 0.0
H1147 H 0.84498 0.81676 0.74833 0.0
H1148 H 0.85246 0.81234 0.5977 0.0
S1149 S 0.78185 0.81915 0.58001 0.0
N1150 N 0.78967 0.82034 0.67808 0.0
N1151 N 0.79794 0.81654 0.51551 0.0
C1152 C 0.81065 0.81659 0.57331 0.0
C1153 C 0.80618 0.81865 0.66136 0.0
C1154 C 0.43408 0.56312 0.81757 0.0
C1155 C 0.43566 0.57978 0.79128 0.0
C1156 C 0.43245 0.55892 0.9044 0.0
C1157 C 0.43228 0.57119 0.96866 0.0
H1158 H 0.43419 0.55315 0.77062 0.0
H1159 H 0.43127 0.54591 0.92135 0.0
S1160 S 0.43455 0.61675 0.93342 0.0
N1161 N 0.43639 0.6087 0.83595 0.0
N1162 N 0.43262 0.60083 -0.00013 0.0
C1163 C 0.43363 0.58795 0.94355 0.0
C1164 C 0.43553 0.59223 0.85466 0.0
C1165 C 0.69027 0.1802 0.07012 0.0
C1166 C 0.6747 0.18642 0.04413 0.0
C1167 C 0.69409 0.17793 0.15705 0.0
C1168 C 0.6825 0.18176 0.22163 0.0
H1169 H 0.69974 0.17721 0.02294 0.0
H1170 H 0.70627 0.17319 0.17385 0.0
S1171 S 0.63937 0.19672 0.18771 0.0
N1172 N 0.64731 0.1956 0.08973 0.0
N1173 N 0.65428 0.19068 0.2538 0.0
C1174 C 0.66673 0.18762 0.19687 0.0
C1175 C 0.6629 0.19015 0.10793 0.0
C1176 C 0.93377 0.4392 0.33413 0.0
C1177 C 0.93604 0.42255 0.30904 0.0
C1178 C 0.93195 0.44357 0.42071 0.0
C1179 C 0.93225 0.43148 0.48591 0.0
H1180 H 0.93351 0.44904 0.28646 0.0
H1181 H 0.93028 0.45658 0.4367 0.0
S1182 S 0.93616 0.38594 0.45365 0.0
N1183 N 0.93781 0.3938 0.35571 0.0
N1184 N 0.93359 0.40195 0.51896 0.0
C1185 C 0.93419 0.41472 0.46187 0.0
C1186 C 0.93633 0.41028 0.37329 0.0
C1187 C 0.34101 0.18439 0.10905 0.0
C1188 C 0.32875 0.18668 0.04573 0.0
C1189 C 0.33664 0.18274 0.19635 0.0
C1190 C 0.31992 0.18373 0.22282 0.0
H1191 H 0.35395 0.18321 0.09066 0.0
H1192 H 0.34632 0.17996 0.24246 0.0
S1193 S 0.28345 0.19162 0.08295 0.0
N1194 N 0.29939 0.19107 0.01608 0.0
N1195 N 0.29129 0.18834 0.17968 0.0
C1196 C 0.30769 0.18666 0.1603 0.0
C1197 C 0.31207 0.1881 0.07188 0.0
C1198 C 0.54991 0.57101 0.85638 0.0
C1199 C 0.56313 0.57329 0.79798 0.0
C1200 C 0.55284 0.56826 0.94435 0.0
C1201 C 0.5691 0.5675 0.97693 0.0
H1202 H 0.53718 0.57086 0.83363 0.0
H1203 H 0.54233 0.56594 0.98625 0.0
S1204 S 0.60803 0.57393 0.85356 0.0
N1205 N 0.59313 0.57569 0.78101 0.0
N1206 N 0.59855 0.57027 0.94594 0.0
C1207 C 0.5824 0.57037 0.92022 0.0
C1208 C 0.57944 0.5734 0.83091 0.0
C1209 C 0.19233 0.81771 0.67072 0.0
C1210 C 0.1802 0.8213 0.73288 0.0
C1211 C 0.18805 0.81568 0.58408 0.0
C1212 C 0.17147 0.81718 0.55612 0.0
H1213 H 0.20527 0.81659 0.68916 0.0
H1214 H 0.1979 0.81297 0.53853 0.0
S1215 S 0.13524 0.8278 0.69298 0.0
N1216 N 0.15109 0.82734 0.76056 0.0
N1217 N 0.14292 0.82301 0.59741 0.0
C1218 C 0.15917 0.82071 0.61777 0.0
C1219 C 0.16358 0.82295 0.70626 0.0
C1220 C 0.93772 0.58987 0.64075 0.0
C1221 C 0.93752 0.57774 0.70572 0.0
C1222 C 0.93556 0.58543 0.55384 0.0
C1223 C 0.93358 0.56867 0.52911 0.0
H1224 H 0.93902 0.60288 0.65742 0.0
H1225 H 0.93491 0.59526 0.50664 0.0
S1226 S 0.93398 0.53213 0.67518 0.0
N1227 N 0.93614 0.54828 0.7397 0.0
N1228 N 0.93265 0.5399 0.57707 0.0
C1229 C 0.93391 0.55645 0.59381 0.0
C1230 C 0.9358 0.56098 0.68187 0.0
C1231 C 0.18074 0.2015 0.38032 0.0
C1232 C 0.17854 0.18833 0.43909 0.0
C1233 C 0.18336 0.19848 0.29235 0.0
C1234 C 0.18403 0.18218 0.26016 0.0
H1235 H 0.18097 0.21425 0.40273 0.0
H1236 H 0.18568 0.20894 0.25014 0.0
S1237 S 0.17748 0.14339 0.38429 0.0
N1238 N 0.17592 0.15835 0.45663 0.0
N1239 N 0.1811 0.15278 0.29165 0.0
C1240 C 0.18114 0.16895 0.31714 0.0
C1241 C 0.17827 0.17199 0.40646 0.0
C1242 C 0.56972 0.44364 0.08583 0.0
C1243 C 0.56957 0.43136 0.0216 0.0
C1244 C 0.56806 0.43949 0.17272 0.0
C1245 C 0.56612 0.42288 0.19906 0.0
H1246 H 0.57119 0.45662 0.06884 0.0
H1247 H 0.56822 0.44946 0.21966 0.0
S1248 S 0.56629 0.38587 0.05709 0.0
N1249 N 0.56854 0.40173 0.99054 0.0
N1250 N 0.56469 0.39398 0.15454 0.0
C1251 C 0.56591 0.41042 0.13573 0.0
C1252 C 0.56785 0.41464 0.0468 0.0
C1253 C 0.31361 0.8172 0.92467 0.0
C1254 C 0.3304 0.81679 0.9499 0.0
C1255 C 0.30909 0.81907 0.83832 0.0
C1256 C 0.32115 0.8207 0.77344 0.0
H1257 H 0.30379 0.81596 0.97207 0.0
H1258 H 0.29599 0.81924 0.8223 0.0
S1259 S 0.36683 0.82213 0.80671 0.0
N1260 N 0.35916 0.81886 0.90397 0.0
N1261 N 0.35067 0.82318 0.74135 0.0
C1262 C 0.33802 0.82062 0.79774 0.0
C1263 C 0.34264 0.81843 0.88605 0.0
C1264 C 0.5805 0.07161 0.07631 0.0
C1265 C 0.56734 0.06846 0.0191 0.0
C1266 C 0.57761 0.0742 0.16434 0.0
C1267 C 0.56144 0.0734 0.19874 0.0
H1268 H 0.5932 0.07171 0.05309 0.0
H1269 H 0.58822 0.07608 0.20617 0.0
S1270 S 0.5226 0.06615 0.07494 0.0
N1271 N 0.53752 0.06518 0.00206 0.0
N1272 N 0.53197 0.07011 0.16733 0.0
C1273 C 0.54809 0.07085 0.14146 0.0
C1274 C 0.55106 0.06835 0.05167 0.0
C1275 C 0.19341 0.31882 0.33423 0.0
C1276 C 0.1811 0.31895 0.27015 0.0
C1277 C 0.18926 0.31721 0.42113 0.0
C1278 C 0.17261 0.31559 0.44764 0.0
H1279 H 0.20641 0.32004 0.31709 0.0
H1280 H 0.19924 0.31714 0.46795 0.0
S1281 S 0.13557 0.31657 0.30611 0.0
N1282 N 0.15145 0.31852 0.23941 0.0
N1283 N 0.14367 0.31477 0.40345 0.0
C1284 C 0.16013 0.31566 0.38447 0.0
C1285 C 0.16436 0.31756 0.29551 0.0
C1286 C 0.92918 0.94356 0.59261 0.0
C1287 C 0.93196 0.93185 0.52711 0.0
C1288 C 0.93136 0.9394 0.67924 0.0
C1289 C 0.93645 0.92336 0.70405 0.0
H1290 H 0.9253 0.95609 0.57679 0.0
H1291 H 0.92918 0.94895 0.72714 0.0
S1292 S 0.94374 0.88766 0.55804 0.0
N1293 N 0.93867 0.9031 0.49306 0.0
N1294 N 0.94348 0.89547 0.65646 0.0
C1295 C 0.93917 0.91145 0.63938 0.0
C1296 C 0.93671 0.91564 0.55076 0.0
C1297 C 0.33487 0.68469 0.80316 0.0
C1298 C 0.31816 0.68272 0.77791 0.0
C1299 C 0.33915 0.68697 0.89015 0.0
C1300 C 0.32688 0.68701 0.9545 0.0
H1301 H 0.34476 0.68389 0.75622 0.0
H1302 H 0.35214 0.68816 0.90737 0.0
S1303 S 0.28128 0.68381 0.92125 0.0
N1304 N 0.28929 0.68211 0.82378 0.0
N1305 N 0.29729 0.68604 0.98666 0.0
C1306 C 0.31013 0.68542 0.92976 0.0
C1307 C 0.30579 0.68331 0.84164 0.0
C1308 C 0.57114 0.9445 0.91561 0.0
C1309 C 0.57042 0.93241 0.98064 0.0
C1310 C 0.56952 0.94016 0.82889 0.0
C1311 C 0.56706 0.92354 0.80361 0.0
H1312 H 0.57297 0.95747 0.93187 0.0
H1313 H 0.57005 0.95 0.78128 0.0
S1314 S 0.56596 0.88693 0.94816 0.0
N1315 N 0.56853 0.90291 0.0137 0.0
N1316 N 0.56476 0.89481 0.85008 0.0
C1317 C 0.56642 0.91126 0.86778 0.0
C1318 C 0.56832 0.91568 0.95648 0.0
C1319 C 0.32915 0.30947 0.20662 0.0
C1320 C 0.31633 0.32054 0.23024 0.0
C1321 C 0.33292 0.30635 0.11984 0.0
C1322 C 0.32458 0.31478 0.0536 0.0
H1323 H 0.3366 0.30333 0.25496 0.0
H1324 H 0.34262 0.29749 0.10452 0.0
S1325 S 0.29077 0.34575 0.07978 0.0
N1326 N 0.29553 0.34016 0.17897 0.0
N1327 N 0.30332 0.33504 0.0167 0.0
C1328 C 0.3122 0.32633 0.076 0.0
C1329 C 0.30798 0.32909 0.16402 0.0
C1330 C 0.94096 0.08078 0.45967 0.0
C1331 C 0.93213 0.06635 0.4835 0.0
C1332 C 0.94388 0.08462 0.37275 0.0
C1333 C 0.93757 0.07447 0.30685 0.0
H1334 H 0.94536 0.08938 0.50816 0.0
H1335 H 0.95081 0.09575 0.35698 0.0
S1336 S 0.91406 0.03514 0.33446 0.0
N1337 N 0.91758 0.04168 0.43358 0.0
N1338 N 0.92252 0.0492 0.2707 0.0
C1339 C 0.92863 0.06011 0.32965 0.0
C1340 C 0.92598 0.05602 0.41782 0.0
C1341 C 0.17888 0.67435 0.5808 0.0
C1342 C 0.18042 0.69048 0.54657 0.0
C1343 C 0.18161 0.67125 0.66862 0.0
C1344 C 0.18564 0.68419 0.72578 0.0
H1345 H 0.17626 0.6639 0.53894 0.0
H1346 H 0.18085 0.65857 0.69176 0.0
S1347 S 0.19045 0.72873 0.67012 0.0
N1348 N 0.18562 0.71966 0.57801 0.0
N1349 N 0.19077 0.71374 0.7427 0.0
C1350 C 0.18664 0.70043 0.69327 0.0
C1351 C 0.18401 0.7036 0.60375 0.0
C1352 C 0.43741 0.91705 0.95598 0.0
C1353 C 0.43417 0.93354 0.9814 0.0
C1354 C 0.43954 0.91293 0.86861 0.0
C1355 C 0.43809 0.92513 0.80429 0.0
H1356 H 0.43784 0.90721 0.00353 0.0
H1357 H 0.44182 0.9001 0.85113 0.0
S1358 S 0.43144 0.97029 0.83861 0.0
N1359 N 0.43089 0.96221 0.93621 0.0
N1360 N 0.43452 0.95452 0.77247 0.0
C1361 C 0.43524 0.94169 0.82933 0.0
C1362 C 0.4333 0.94586 0.9178 0.0
C1363 C 0.83595 0.68261 0.7001 0.0
C1364 C 0.81921 0.68338 0.72639 0.0
C1365 C 0.84035 0.6845 0.61295 0.0
C1366 C 0.8281 0.68689 0.54965 0.0
H1367 H 0.84563 0.67985 0.74623 0.0
H1368 H 0.8533 0.68345 0.59465 0.0
S1369 S 0.78277 0.69167 0.58699 0.0
N1370 N 0.79059 0.68808 0.68346 0.0
N1371 N 0.79873 0.69134 0.52017 0.0
C1372 C 0.81141 0.6882 0.57578 0.0
C1373 C 0.80699 0.68646 0.66403 0.0
C1374 C 0.05322 0.06567 0.44685 0.0
C1375 C 0.06934 0.0669 0.48079 0.0
C1376 C 0.05028 0.06797 0.35867 0.0
C1377 C 0.06335 0.07172 0.30144 0.0
H1378 H 0.04291 0.0622 0.48795 0.0
H1379 H 0.03773 0.06632 0.33494 0.0
S1380 S 0.10765 0.07784 0.361 0.0
N1381 N 0.09835 0.07315 0.45261 0.0
N1382 N 0.09291 0.07769 0.28703 0.0
C1383 C 0.07943 0.07379 0.33572 0.0
C1384 C 0.08241 0.07125 0.42532 0.0
C1385 C 0.68427 0.30068 0.10411 0.0
C1386 C 0.68045 0.31364 0.04642 0.0
C1387 C 0.68653 0.30375 0.1922 0.0
C1388 C 0.68521 0.31991 0.22558 0.0
H1389 H 0.68599 0.2881 0.08081 0.0
H1390 H 0.69005 0.29351 0.23367 0.0
S1391 S 0.67411 0.358 0.10441 0.0
N1392 N 0.67435 0.34316 0.03096 0.0
N1393 N 0.67884 0.34885 0.19637 0.0
C1394 C 0.68081 0.33288 0.16964 0.0
C1395 C 0.6783 0.32976 0.08013 0.0
C1396 C 0.43348 0.06276 0.16964 0.0
C1397 C 0.43616 0.07936 0.19455 0.0
C1398 C 0.4317 0.05838 0.08306 0.0
C1399 C 0.43243 0.07041 0.01766 0.0
H1400 H 0.43289 0.05297 0.21748 0.0
H1401 H 0.42971 0.04541 0.06723 0.0
S1402 S 0.43753 0.11585 0.04939 0.0
N1403 N 0.43881 0.10801 0.14751 0.0
N1404 N 0.43461 0.09988 0.98423 0.0
C1405 C 0.43478 0.08713 0.04153 0.0
C1406 C 0.43689 0.09157 0.13012 0.0
C1407 C 0.6628 0.69064 0.8708 0.0
C1408 C 0.67458 0.68804 0.93621 0.0
C1409 C 0.66701 0.68821 0.78381 0.0
C1410 C 0.68323 0.68355 0.75961 0.0
H1411 H 0.65018 0.69412 0.88709 0.0
H1412 H 0.65738 0.68958 0.73561 0.0
S1413 S 0.71898 0.67678 0.9063 0.0
N1414 N 0.70333 0.6814 0.97075 0.0
N1415 N 0.71127 0.67729 0.80783 0.0
C1416 C 0.69517 0.68134 0.8245 0.0
C1417 C 0.69086 0.68354 0.91265 0.0
C1418 C 0.05284 0.93464 0.56365 0.0
C1419 C 0.06908 0.93495 0.5305 0.0
C1420 C 0.04996 0.932 0.65174 0.0
C1421 C 0.0632 0.9294 0.70966 0.0
H1422 H 0.04235 0.93723 0.52209 0.0
H1423 H 0.03727 0.93251 0.67492 0.0
S1424 S 0.10798 0.9274 0.65229 0.0
N1425 N 0.09847 0.93133 0.56028 0.0
N1426 N 0.09314 0.92611 0.72546 0.0
C1427 C 0.07945 0.9288 0.67611 0.0
C1428 C 0.08236 0.93171 0.58667 0.0
C1429 C 0.81708 0.30087 0.39498 0.0
C1430 C 0.82147 0.3138 0.45188 0.0
C1431 C 0.81478 0.30383 0.30675 0.0
C1432 C 0.81665 0.31987 0.27242 0.0
H1433 H 0.81493 0.28841 0.41903 0.0
H1434 H 0.81081 0.29366 0.26594 0.0
S1435 S 0.82939 0.35775 0.39119 0.0
N1436 N 0.82871 0.34308 0.46545 0.0
N1437 N 0.82418 0.34859 0.29993 0.0
C1438 C 0.82164 0.33277 0.32756 0.0
C1439 C 0.82417 0.32974 0.41716 0.0
C1440 C 0.12325 0.63917 0.15918 0.0
C1441 C 0.13973 0.63676 0.13191 0.0
C1442 C 0.11105 0.62707 0.14388 0.0
C1443 C 0.11494 0.61229 0.1001 0.0
H1444 H 0.11975 0.65054 0.19187 0.0
H1445 H 0.09849 0.62926 0.16638 0.0
S1446 S 0.15638 0.59951 0.0207 0.0
N1447 N 0.15947 0.61806 0.06347 0.0
N1448 N 0.13637 0.59553 0.03287 0.0
C1449 C 0.13134 0.60965 0.07318 0.0
C1450 C 0.1438 0.62185 0.08959 0.0
C1451 C 0.61114 0.8756 0.34395 0.0
C1452 C 0.61465 0.88994 0.39246 0.0
C1453 C 0.62347 0.86366 0.32795 0.0
C1454 C 0.63968 0.86573 0.35977 0.0
H1455 H 0.59877 0.87364 0.31829 0.0
H1456 H 0.62025 0.85265 0.2914 0.0
S1457 S 0.65533 0.90159 0.48599 0.0
N1458 N 0.63549 0.90583 0.46969 0.0
N1459 N 0.65876 0.88351 0.43879 0.0
C1460 C 0.64336 0.88012 0.40743 0.0
C1461 C 0.6308 0.8922 0.42411 0.0
C1462 C 0.37834 0.36035 0.59331 0.0
C1463 C 0.36381 0.36381 0.64032 0.0
C1464 C 0.39013 0.37283 0.57695 0.0
C1465 C 0.38772 0.38911 0.60731 0.0
H1466 H 0.38057 0.34793 0.56893 0.0
H1467 H 0.40126 0.36969 0.5412 0.0
S1468 S 0.3515 0.4045 0.73157 0.0
N1469 N 0.34754 0.38458 0.71597 0.0
N1470 N 0.3696 0.40807 0.68494 0.0
C1471 C 0.37324 0.39267 0.65442 0.0
C1472 C 0.3613 0.37999 0.67113 0.0
C1473 C 0.88851 0.12835 0.93154 0.0
C1474 C 0.88697 0.11252 0.89407 0.0
C1475 C 0.87665 0.14078 0.91586 0.0
C1476 C 0.86299 0.13779 0.86158 0.0
H1477 H 0.89908 0.13123 0.97216 0.0
H1478 H 0.87822 0.15285 0.94573 0.0
S1479 S 0.85267 0.09817 0.75283 0.0
N1480 N 0.87018 0.09428 0.80454 0.0
N1481 N 0.84816 0.1178 0.77343 0.0
C1482 C 0.86121 0.12201 0.82453 0.0
C1483 C 0.87315 0.10932 0.84121 0.0
C1484 C 0.12515 0.36076 0.90131 0.0
C1485 C 0.13958 0.36428 0.8536 0.0
C1486 C 0.11317 0.37309 0.91663 0.0
C1487 C 0.11531 0.38932 0.88503 0.0
H1488 H 0.12314 0.3484 0.92694 0.0
H1489 H 0.1021 0.36987 0.95268 0.0
S1490 S 0.15148 0.40498 0.76123 0.0
N1491 N 0.15566 0.38512 0.77749 0.0
N1492 N 0.13329 0.40841 0.80735 0.0
C1493 C 0.12981 0.393 0.83822 0.0
C1494 C 0.14191 0.38043 0.82214 0.0
C1495 C 0.87376 0.89193 0.16242 0.0
C1496 C 0.88791 0.88865 0.11178 0.0
C1497 C 0.86174 0.87964 0.17727 0.0
C1498 C 0.86342 0.86374 0.14118 0.0
H1499 H 0.87196 0.90413 0.19053 0.0
H1500 H 0.85095 0.88265 0.21601 0.0
S1501 S 0.89843 0.84854 0.00781 0.0
N1502 N 0.90324 0.86806 0.02931 0.0
N1503 N 0.88034 0.84512 0.05495 0.0
C1504 C 0.87748 0.86025 0.09088 0.0
C1505 C 0.88981 0.87269 0.07657 0.0
C1506 C 0.35888 0.62253 0.40142 0.0
C1507 C 0.36245 0.63741 0.35753 0.0
C1508 C 0.37123 0.61054 0.41548 0.0
C1509 C 0.38749 0.61299 0.38526 0.0
H1510 H 0.34643 0.62017 0.42508 0.0
H1511 H 0.36802 0.59919 0.44914 0.0
S1512 S 0.40335 0.6499 0.26887 0.0
N1513 N 0.38353 0.6541 0.28631 0.0
N1514 N 0.40665 0.63131 0.31075 0.0
C1515 C 0.39123 0.62775 0.34122 0.0
C1516 C 0.37871 0.64002 0.32762 0.0
C1517 C 0.61221 0.12693 0.66482 0.0
C1518 C 0.61505 0.11305 0.61172 0.0
C1519 C 0.6247 0.13881 0.67877 0.0
C1520 C 0.64044 0.13711 0.64046 0.0
H1521 H 0.60019 0.12866 0.69503 0.0
H1522 H 0.62194 0.14953 0.71851 0.0
S1523 S 0.65443 0.10229 0.50172 0.0
N1524 N 0.63486 0.09786 0.52407 0.0
N1525 N 0.65845 0.11999 0.5514 0.0
C1526 C 0.6435 0.12309 0.58882 0.0
C1527 C 0.63077 0.1111 0.5741 0.0
C1528 C 0.85968 0.37891 0.91691 0.0
C1529 C 0.86314 0.36455 0.86831 0.0
C1530 C 0.87201 0.39086 0.93262 0.0
C1531 C 0.88813 0.38887 0.89959 0.0
H1532 H 0.84732 0.38096 0.94241 0.0
H1533 H 0.86886 0.40186 0.96943 0.0
S1534 S 0.90381 0.35316 0.77291 0.0
N1535 N 0.88409 0.34866 0.79127 0.0
N1536 N 0.90713 0.37137 0.8189 0.0
C1537 C 0.89181 0.37454 0.85178 0.0
C1538 C 0.87932 0.36231 0.83644 0.0
C1539 C 0.3907 0.12678 0.65329 0.0
C1540 C 0.38728 0.11234 0.60553 0.0
C1541 C 0.37829 0.13867 0.66867 0.0
C1542 C 0.36207 0.1364 0.63719 0.0
H1543 H 0.40307 0.1289 0.67859 0.0
H1544 H 0.38145 0.14981 0.70429 0.0
S1545 S 0.3466 0.10003 0.5144 0.0
N1546 N 0.36651 0.09604 0.53013 0.0
N1547 N 0.34304 0.11819 0.56054 0.0
C1548 C 0.35845 0.12181 0.59104 0.0
C1549 C 0.37111 0.10983 0.57468 0.0
C1550 C 0.62985 0.61168 0.41147 0.0
C1551 C 0.61377 0.61319 0.37744 0.0
C1552 C 0.64194 0.62384 0.3952 0.0
C1553 C 0.63826 0.63796 0.34524 0.0
H1554 H 0.63313 0.60096 0.45009 0.0
H1555 H 0.65426 0.6222 0.42203 0.0
S1556 S 0.59761 0.64798 0.24569 0.0
N1557 N 0.5946 0.62987 0.29329 0.0
N1558 N 0.61717 0.65302 0.26487 0.0
C1559 C 0.62215 0.63965 0.31162 0.0
C1560 C 0.60991 0.62718 0.32738 0.0
C1561 C 0.12402 0.86416 0.19087 0.0
C1562 C 0.1401 0.86623 0.15708 0.0
C1563 C 0.11165 0.87617 0.17688 0.0
C1564 C 0.11498 0.89051 0.12817 0.0
H1565 H 0.1209 0.85303 0.22666 0.0
H1566 H 0.09935 0.87413 0.20323 0.0
S1567 S 0.15538 0.90246 0.0325 0.0
N1568 N 0.15898 0.88431 0.07855 0.0
N1569 N 0.13556 0.9066 0.05036 0.0
C1570 C 0.13105 0.89289 0.09576 0.0
C1571 C 0.14367 0.88082 0.11084 0.0
C1572 C 0.89018 0.62675 0.16275 0.0
C1573 C 0.88696 0.6123 0.11474 0.0
C1574 C 0.87768 0.63859 0.17708 0.0
C1575 C 0.86154 0.63622 0.14462 0.0
H1576 H 0.90248 0.62895 0.18875 0.0
H1577 H 0.88071 0.64978 0.2126 0.0
S1578 S 0.84654 0.59964 0.02185 0.0
N1579 N 0.86646 0.59582 0.03848 0.0
N1580 N 0.84277 0.61779 0.0676 0.0
C1581 C 0.8581 0.62156 0.09869 0.0
C1582 C 0.87087 0.60966 0.08309 0.0
C1583 C 0.1258 0.13996 0.90574 0.0
C1584 C 0.13978 0.13658 0.85438 0.0
C1585 C 0.11376 0.1277 0.92123 0.0
C1586 C 0.11542 0.11165 0.88641 0.0
H1587 H 0.12413 0.15219 0.93364 0.0
H1588 H 0.10298 0.13085 0.95977 0.0
S1589 S 0.15044 0.09634 0.75283 0.0
N1590 N 0.15498 0.11604 0.77147 0.0
N1591 N 0.13259 0.09283 0.8022 0.0
C1592 C 0.12954 0.10808 0.83632 0.0
C1593 C 0.14167 0.1206 0.81983 0.0
C1594 C 0.61144 0.37533 0.65203 0.0
C1595 C 0.6149 0.38978 0.60444 0.0
C1596 C 0.62376 0.36329 0.66626 0.0
C1597 C 0.63992 0.36539 0.63372 0.0
H1598 H 0.59912 0.37333 0.67828 0.0
H1599 H 0.62058 0.3522 0.70219 0.0
S1600 S 0.65543 0.40158 0.5096 0.0
N1601 N 0.63563 0.40582 0.52728 0.0
N1602 N 0.6589 0.38335 0.55516 0.0
C1603 C 0.64355 0.37991 0.58701 0.0
C1604 C 0.63099 0.39207 0.57201 0.0
C1605 C 0.38868 0.87381 0.42911 0.0
C1606 C 0.38721 0.88968 0.39212 0.0
C1607 C 0.37669 0.8615 0.41354 0.0
C1608 C 0.36299 0.86464 0.35979 0.0
H1609 H 0.39926 0.87083 0.46939 0.0
H1610 H 0.37817 0.84941 0.44336 0.0
S1611 S 0.35279 0.90445 0.25284 0.0
N1612 N 0.37042 0.90815 0.30386 0.0
N1613 N 0.34816 0.88483 0.27299 0.0
C1614 C 0.36127 0.88046 0.32329 0.0
C1615 C 0.37333 0.89304 0.3399 0.0
C1616 C 0.07442 0.4887 0.06832 0.0
C1617 C 0.07607 0.48286 0.98308 0.0
C1618 C 0.07453 0.50575 0.08727 0.0
C1619 C 0.07629 0.51771 0.02181 0.0
H1620 H 0.0725 0.48008 0.12095 0.0
H1621 H 0.07266 0.50955 0.1535 0.0
S1622 S 0.08307 0.50898 0.78912 0.0
N1623 N 0.08098 0.49047 0.83349 0.0
N1624 N 0.08123 0.52242 0.86885 0.0
C1625 C 0.07878 0.51203 0.93677 0.0
C1626 C 0.07866 0.49466 0.91749 0.0
C1627 C 0.74557 0.82436 0.33184 0.0
C1628 C 0.73352 0.82631 0.26703 0.0
C1629 C 0.76258 0.82424 0.31215 0.0
C1630 C 0.7683 0.82606 0.22676 0.0
H1631 H 0.74188 0.82237 0.39814 0.0
H1632 H 0.77127 0.8222 0.36436 0.0
S1633 S 0.74191 0.83347 0.03424 0.0
N1634 N 0.7286 0.83155 0.11445 0.0
N1635 N 0.76049 0.83125 0.07776 0.0
C1636 C 0.75642 0.82882 0.16183 0.0
C1637 C 0.73908 0.82896 0.18185 0.0
C1638 C 0.42497 0.51233 0.54645 0.0
C1639 C 0.42726 0.51809 0.46149 0.0
C1640 C 0.42506 0.49531 0.56596 0.0
C1641 C 0.42745 0.48327 0.50144 0.0
H1642 H 0.4234 0.52103 0.59906 0.0
H1643 H 0.42356 0.49163 0.63262 0.0
S1644 S 0.43345 0.49173 0.26775 0.0
N1645 N 0.43145 0.51028 0.31167 0.0
N1646 N 0.43167 0.47839 0.3479 0.0
C1647 C 0.42927 0.48883 0.41563 0.0
C1648 C 0.42915 0.50619 0.3958 0.0
C1649 C 0.75778 0.17644 0.81835 0.0
C1650 C 0.76985 0.17723 0.75294 0.0
C1651 C 0.74079 0.17642 0.79903 0.0
C1652 C 0.73502 0.1772 0.71335 0.0
H1653 H 0.76143 0.17626 0.88551 0.0
H1654 H 0.73211 0.1762 0.85239 0.0
S1655 S 0.76146 0.17794 0.51725 0.0
N1656 N 0.7748 0.17766 0.59797 0.0
N1657 N 0.74285 0.17766 0.56198 0.0
C1658 C 0.74693 0.17727 0.64693 0.0
C1659 C 0.76431 0.17728 0.66661 0.0
C1660 C 0.92777 0.49586 0.92253 0.0
C1661 C 0.9263 0.48374 0.98735 0.0
C1662 C 0.92778 0.51286 0.94254 0.0
C1663 C 0.92632 0.5185 0.02827 0.0
H1664 H 0.92946 0.49224 0.8559 0.0
H1665 H 0.92944 0.5216 0.89022 0.0
S1666 S 0.92025 0.49189 0.22123 0.0
N1667 N 0.92191 0.47866 0.14052 0.0
N1668 N 0.92201 0.51052 0.17779 0.0
C1669 C 0.92405 0.50654 0.09333 0.0
C1670 C 0.92402 0.48921 0.07298 0.0
C1671 C 0.23939 0.17979 0.6723 0.0
C1672 C 0.23341 0.17604 0.75542 0.0
C1673 C 0.25647 0.17979 0.65387 0.0
C1674 C 0.26828 0.17604 0.71777 0.0
H1675 H 0.23087 0.18333 0.62149 0.0
H1676 H 0.26042 0.18335 0.58976 0.0
S1677 S 0.25903 0.16297 0.94242 0.0
N1678 N 0.24064 0.1668 0.8998 0.0
N1679 N 0.27265 0.16676 0.86542 0.0
C1680 C 0.26243 0.1714 0.79997 0.0
C1681 C 0.24504 0.17142 0.81871 0.0
C1682 C 0.57521 0.49004 0.44245 0.0
C1683 C 0.57506 0.48432 0.5283 0.0
C1684 C 0.57522 0.50703 0.42293 0.0
C1685 C 0.57507 0.51914 0.48831 0.0
H1686 H 0.57491 0.48133 0.38925 0.0
H1687 H 0.5749 0.51064 0.35575 0.0
S1688 S 0.57619 0.51088 0.72403 0.0
N1689 N 0.5759 0.49225 0.67955 0.0
N1690 N 0.57594 0.52417 0.64313 0.0
C1691 C 0.57564 0.51364 0.57463 0.0
C1692 C 0.57562 0.49627 0.59452 0.0
C1693 C 0.25645 0.82593 0.33431 0.0
C1694 C 0.26863 0.8267 0.26953 0.0
C1695 C 0.23948 0.82581 0.31397 0.0
C1696 C 0.2339 0.82646 0.22787 0.0
H1697 H 0.25999 0.82486 0.40139 0.0
H1698 H 0.2307 0.82472 0.36656 0.0
S1699 S 0.2607 0.8305 0.0342 0.0
N1700 N 0.27387 0.82956 0.11553 0.0
N1701 N 0.24202 0.82927 0.07759 0.0
C1702 C 0.24592 0.82806 0.16256 0.0
C1703 C 0.26325 0.82819 0.18328 0.0
C1704 C 0.57339 0.99644 0.41252 0.0
C1705 C 0.57591 0.98456 0.47769 0.0
C1706 C 0.57335 0.01351 0.43104 0.0
C1707 C 0.57583 0.01944 0.51555 0.0
H1708 H 0.57086 0.99256 0.347 0.0
H1709 H 0.57082 0.02208 0.37885 0.0
S1710 S 0.58503 0.99358 0.70794 0.0
N1711 N 0.58247 0.98005 0.6292 0.0
N1712 N 0.58234 0.01203 0.66371 0.0
C1713 C 0.57918 0.00773 0.58061 0.0
C1714 C 0.57924 0.99035 0.56178 0.0
C1715 C 0.2401 0.3268 0.69402 0.0
C1716 C 0.23419 0.32434 0.77859 0.0
C1717 C 0.25716 0.32684 0.67534 0.0
C1718 C 0.26909 0.32442 0.74035 0.0
H1719 H 0.23148 0.3284 0.64108 0.0
H1720 H 0.26097 0.32847 0.60895 0.0
S1721 S 0.26023 0.31794 0.97328 0.0
N1722 N 0.24175 0.31992 0.92856 0.0
N1723 N 0.27371 0.31995 0.89388 0.0
C1724 C 0.26337 0.32243 0.82579 0.0
C1725 C 0.24599 0.3224 0.84476 0.0
C1726 C 0.92777 0.99585 0.09145 0.0
C1727 C 0.92615 0.98378 0.02648 0.0
C1728 C 0.92798 0.01285 0.07167 0.0
C1729 C 0.92659 0.01855 0.986 0.0
H1730 H 0.92944 0.99217 0.158 0.0
H1731 H 0.92974 0.02156 0.12412 0.0
S1732 S 0.92007 0.99212 0.79278 0.0
N1733 N 0.92161 0.97883 0.87326 0.0
N1734 N 0.9221 0.01071 0.83645 0.0
C1735 C 0.92416 0.00665 0.9208 0.0
C1736 C 0.92391 0.98932 0.94091 0.0
C1737 C 0.26188 0.676 0.19471 0.0
C1738 C 0.26739 0.67577 0.28094 0.0
C1739 C 0.24493 0.67601 0.17413 0.0
C1740 C 0.23268 0.67581 0.23878 0.0
H1741 H 0.27071 0.67664 0.14214 0.0
H1742 H 0.24146 0.6767 0.1068 0.0
S1743 S 0.2404 0.67344 0.47476 0.0
N1744 N 0.25913 0.67407 0.4315 0.0
N1745 N 0.2273 0.67406 0.39308 0.0
C1746 C 0.23798 0.67478 0.32532 0.0
C1747 C 0.2553 0.67477 0.34629 0.0
C1748 C 0.43258 0.01229 0.43669 0.0
C1749 C 0.42672 0.01833 0.51636 0.0
C1750 C 0.43241 0.99528 0.41739 0.0
C1751 C 0.42636 0.98359 0.47695 0.0
H1752 H 0.43789 0.02071 0.38968 0.0
H1753 H 0.43765 0.99123 0.35662 0.0
S1754 S 0.40689 0.99323 0.68816 0.0
N1755 N 0.41289 0.01147 0.65081 0.0
N1756 N 0.41249 0.97947 0.61473 0.0
C1757 C 0.41961 0.98954 0.55491 0.0
C1758 C 0.41982 0.00689 0.57458 0.0
C1759 C 0.73876 0.67967 0.17672 0.0
C1760 C 0.73275 0.67642 0.26038 0.0
C1761 C 0.75581 0.67935 0.15814 0.0
C1762 C 0.76759 0.67578 0.22242 0.0
H1763 H 0.7303 0.68304 0.12536 0.0
H1764 H 0.75977 0.68255 0.09354 0.0
S1765 S 0.75824 0.66386 0.44863 0.0
N1766 N 0.73988 0.66776 0.40581 0.0
N1767 N 0.7719 0.66713 0.37112 0.0
C1768 C 0.76171 0.67161 0.30527 0.0
C1769 C 0.74433 0.67194 0.32417 0.0
C1770 C 0.07455 0.99569 0.08709 0.0
C1771 C 0.07518 0.98361 0.02158 0.0
C1772 C 0.07447 0.0127 0.0678 0.0
C1773 C 0.07501 0.01844 0.98207 0.0
H1774 H 0.07365 0.99202 0.15406 0.0
H1775 H 0.07352 0.02139 0.12087 0.0
S1776 S 0.07846 0.992 0.78655 0.0
N1777 N 0.07761 0.97867 0.86716 0.0
N1778 N 0.07744 0.0106 0.83112 0.0
C1779 C 0.07637 0.00653 0.91594 0.0
C1780 C 0.07646 0.98916 0.93559 0.0
C1781 C 0.73943 0.32472 0.81254 0.0
C1782 C 0.73359 0.3259 0.72716 0.0
C1783 C 0.75647 0.32486 0.83137 0.0
C1784 C 0.76846 0.32621 0.76571 0.0
H1785 H 0.73081 0.32317 0.86552 0.0
H1786 H 0.76023 0.32341 0.89793 0.0
S1787 S 0.75974 0.3315 0.532 0.0
N1788 N 0.74122 0.32981 0.57678 0.0
N1789 N 0.77318 0.33011 0.61193 0.0
C1790 C 0.76279 0.32819 0.68029 0.0
C1791 C 0.7454 0.32802 0.66111 0.0
C1792 C 0.00987 0.57787 0.0056 0.0
C1793 C 0.0191 0.57537 0.0816 0.0
C1794 C 0.99245 0.57806 0.00644 0.0
C1795 C 0.98345 0.57575 0.08333 0.0
H1796 H 0.01609 0.57916 0.94408 0.0
H1797 H 0.98604 0.57947 0.94554 0.0
S1798 S 0.00163 0.57071 0.30196 0.0
N1799 N 0.01785 0.572 0.23733 0.0
N1800 N 0.9852 0.57234 0.23897 0.0
C1801 C 0.99252 0.57412 0.16058 0.0
C1802 C 0.01029 0.57393 0.1597 0.0
C1803 C 0.68019 0.74275 0.38908 0.0
C1804 C 0.67514 0.73387 0.31539 0.0
C1805 C 0.68024 0.76015 0.39062 0.0
C1806 C 0.67525 0.7695 0.3185 0.0
H1807 H 0.68481 0.73626 0.44527 0.0
H1808 H 0.68488 0.76626 0.44791 0.0
S1809 S 0.65883 0.75237 0.11305 0.0
N1810 N 0.66349 0.73583 0.17102 0.0
N1811 N 0.66359 0.76851 0.17383 0.0
C1812 C 0.6693 0.76081 0.24591 0.0
C1813 C 0.66925 0.74304 0.24436 0.0
C1814 C 0.49217 0.43004 0.64544 0.0
C1815 C 0.48324 0.425 0.57187 0.0
C1816 C 0.50958 0.43013 0.64658 0.0
C1817 C 0.51888 0.42521 0.57413 0.0
H1818 H 0.48573 0.43461 0.70181 0.0
H1819 H 0.51574 0.43478 0.70374 0.0
S1820 S 0.50166 0.40851 0.36956 0.0
N1821 N 0.48515 0.41315 0.42785 0.0
N1822 N 0.51783 0.41342 0.4298 0.0
C1823 C 0.51016 0.41916 0.50192 0.0
C1824 C 0.49239 0.41903 0.50085 0.0
C1825 C 0.82245 0.26017 0.90212 0.0
C1826 C 0.82665 0.26954 0.82865 0.0
C1827 C 0.8227 0.24275 0.90075 0.0
C1828 C 0.82716 0.23392 0.82587 0.0
H1829 H 0.81832 0.26629 0.96047 0.0
H1830 H 0.81874 0.2362 0.95815 0.0
S1831 S 0.84144 0.25251 0.61949 0.0
N1832 N 0.83706 0.26861 0.68131 0.0
N1833 N 0.83752 0.23596 0.6788 0.0
C1834 C 0.83237 0.24313 0.75351 0.0
C1835 C 0.83211 0.26088 0.75488 0.0
C1836 C 0.9922 0.43001 0.85389 0.0
C1837 C 0.98332 0.42562 0.92874 0.0
C1838 C 0.00961 0.42978 0.85201 0.0
C1839 C 0.01894 0.42519 0.92495 0.0
H1840 H 0.98572 0.43427 0.79693 0.0
H1841 H 0.01577 0.43387 0.7937 0.0
S1842 S 0.00176 0.41054 0.13388 0.0
N1843 N 0.98524 0.415 0.0753 0.0
N1844 N 0.0179 0.41459 0.07181 0.0
C1845 C 0.01023 0.41987 0.99875 0.0
C1846 C 0.99246 0.42009 0.00064 0.0
C1847 C 0.82767 0.75941 0.24621 0.0
C1848 C 0.82536 0.76858 0.16986 0.0
C1849 C 0.82761 0.74199 0.2459 0.0
C1850 C 0.82525 0.73293 0.16922 0.0
H1851 H 0.82899 0.76569 0.30754 0.0
H1852 H 0.82888 0.73562 0.30701 0.0
S1853 S 0.82061 0.7509 0.9499 0.0
N1854 N 0.82206 0.76717 0.01406 0.0
N1855 N 0.82199 0.73453 0.01346 0.0
C1856 C 0.82381 0.74192 0.09166 0.0
C1857 C 0.82385 0.75969 0.09198 0.0
C1858 C 0.49231 0.57261 0.34193 0.0
C1859 C 0.48308 0.57718 0.4153 0.0
C1860 C 0.50973 0.5726 0.34275 0.0
C1861 C 0.5187 0.57717 0.41697 0.0
H1862 H 0.48609 0.56832 0.28421 0.0
H1863 H 0.51616 0.56834 0.28554 0.0
S1864 S 0.5005 0.59257 0.62216 0.0
N1865 N 0.48427 0.58816 0.56135 0.0
N1866 N 0.51695 0.58816 0.56294 0.0
C1867 C 0.50964 0.58279 0.48906 0.0
C1868 C 0.49187 0.58279 0.48822 0.0
C1869 C 0.67859 0.24242 0.74563 0.0
C1870 C 0.67579 0.23337 0.66935 0.0
C1871 C 0.67852 0.25984 0.74596 0.0
C1872 C 0.67567 0.26896 0.66998 0.0
H1873 H 0.68157 0.23605 0.80513 0.0
H1874 H 0.68143 0.26617 0.80568 0.0
S1875 S 0.66465 0.25129 0.45671 0.0
N1876 N 0.66782 0.23491 0.51854 0.0
N1877 N 0.66792 0.26761 0.51887 0.0
C1878 C 0.67183 0.26009 0.5945 0.0
C1879 C 0.67182 0.24232 0.59427 0.0
C1880 C 0.32536 0.25945 0.75131 0.0
C1881 C 0.32728 0.26867 0.67485 0.0
C1882 C 0.32515 0.24204 0.75039 0.0
C1883 C 0.3268 0.23308 0.67292 0.0
H1884 H 0.32329 0.26571 0.81218 0.0
H1885 H 0.32298 0.23561 0.81065 0.0
S1886 S 0.33509 0.2512 0.45723 0.0
N1887 N 0.33314 0.26744 0.52141 0.0
N1888 N 0.33238 0.23475 0.51918 0.0
C1889 C 0.32973 0.2421 0.59678 0.0
C1890 C 0.33007 0.25986 0.59788 0.0
C1891 C 0.17174 0.74241 0.2376 0.0
C1892 C 0.17663 0.73341 0.16395 0.0
C1893 C 0.17184 0.75985 0.23862 0.0
C1894 C 0.17682 0.76909 0.16602 0.0
H1895 H 0.16823 0.73598 0.2961 0.0
H1896 H 0.16839 0.76609 0.2978 0.0
S1897 S 0.18981 0.75161 0.95467 0.0
N1898 N 0.18583 0.7352 0.01482 0.0
N1899 N 0.18602 0.76781 0.01671 0.0
C1900 C 0.1811 0.76026 0.09076 0.0
C1901 C 0.18101 0.7425 0.08973 0.0
C1902 C 0.17956 0.25899 0.89589 0.0
C1903 C 0.17518 0.26825 0.82232 0.0
C1904 C 0.17955 0.24157 0.89492 0.0
C1905 C 0.17517 0.23262 0.82033 0.0
H1906 H 0.1837 0.26519 0.95396 0.0
H1907 H 0.18366 0.23513 0.95236 0.0
S1908 S 0.16031 0.25088 0.6143 0.0
N1909 N 0.16459 0.26709 0.67551 0.0
N1910 N 0.16455 0.23441 0.67368 0.0
C1911 C 0.16975 0.24171 0.74795 0.0
C1912 C 0.16976 0.25947 0.74893 0.0
C1913 C 0.3286 0.74216 0.26074 0.0
C1914 C 0.32448 0.73316 0.33556 0.0
C1915 C 0.32871 0.75958 0.26021 0.0
C1916 C 0.32469 0.76882 0.33444 0.0
H1917 H 0.33133 0.73574 0.20106 0.0
H1918 H 0.33153 0.76581 0.20013 0.0
S1919 S 0.31437 0.7513 0.54959 0.0
N1920 N 0.31735 0.73489 0.4878 0.0
N1921 N 0.31747 0.76752 0.4867 0.0
C1922 C 0.32125 0.75998 0.41082 0.0
C1923 C 0.32117 0.74222 0.41141 0.0
C1924 C 0.50962 0.07222 0.64872 0.0
C1925 C 0.51882 0.07714 0.57591 0.0
C1926 C 0.4922 0.07197 0.64758 0.0
C1927 C 0.4832 0.07666 0.57366 0.0
H1928 H 0.51588 0.06786 0.70622 0.0
H1929 H 0.48582 0.06742 0.70426 0.0
S1930 S 0.50128 0.09277 0.36974 0.0
N1931 N 0.51753 0.08845 0.43054 0.0
N1932 N 0.48487 0.08799 0.42844 0.0
C1933 C 0.49222 0.08255 0.50207 0.0
C1934 C 0.50998 0.0828 0.50321 0.0
C1935 C 0.00948 0.93077 0.15998 0.0
C1936 C 0.01873 0.92566 0.08768 0.0
C1937 C 0.99207 0.93087 0.15881 0.0
C1938 C 0.98311 0.92583 0.08538 0.0
H1939 H 0.0157 0.93539 0.21707 0.0
H1940 H 0.98566 0.9356 0.21496 0.0
S1941 S 0.00131 0.90907 0.88319 0.0
N1942 N 0.01753 0.91378 0.94346 0.0
N1943 N 0.98485 0.91395 0.94141 0.0
C1944 C 0.99217 0.91975 0.0144 0.0
C1945 C 0.00994 0.91965 0.01554 0.0
C1946 C 0.51004 0.92998 0.50616 0.0
C1947 C 0.51911 0.92589 0.43155 0.0
C1948 C 0.49262 0.92978 0.50649 0.0
C1949 C 0.48357 0.92546 0.43223 0.0
H1950 H 0.5164 0.93409 0.56387 0.0
H1951 H 0.48624 0.93375 0.56439 0.0
S1952 S 0.50141 0.91052 0.22581 0.0
N1953 N 0.51775 0.91514 0.28549 0.0
N1954 N 0.48503 0.91474 0.28605 0.0
C1955 C 0.49249 0.92026 0.35909 0.0
C1956 C 0.51025 0.92049 0.35875 0.0
C1957 C 0.00972 0.07444 0.00485 0.0
C1958 C 0.01866 0.07702 0.92797 0.0
C1959 C 0.9923 0.07454 0.00589 0.0
C1960 C 0.98308 0.07727 0.93015 0.0
H1961 H 0.01619 0.07158 0.06423 0.0
H1962 H 0.98606 0.07172 0.06597 0.0
S1963 S 1.00049 0.08779 0.71552 0.0
N1964 N 0.01696 0.08447 0.77653 0.0
N1965 N 0.98426 0.08493 0.77882 0.0
C1966 C 0.99186 0.08101 0.85418 0.0
C1967 C 0.00962 0.08081 0.85299 0.0
loop_
_geom_bond_atom_site_label_1
_geom_bond_atom_site_label_2
_geom_bond_distance
_geom_bond_site_symmetry_2
_ccdc_geom_bond_type
Co0 O3 1.970 1_556 S
Co0 N17 1.989 1_556 S
Co0 O25 1.967 . S
Co0 O32 1.920 . S
Co1 O4 1.966 . S
Co1 N10 2.022 . S
Co1 N18 1.993 . S
Co1 O26 1.941 . S
C2 O3 1.258 . S
C2 O4 1.263 . S
O3 Co0 1.970 1_554 S
O3 C2 1.258 . S
O4 Co1 1.966 . S
O4 C2 1.263 . S
C5 O6 1.235 . S
C5 O32 1.289 . S
O6 C5 1.235 . S
C7 C9 1.400 . S
C7 N10 1.351 . S
C7 C12 1.501 . S
C8 C9 1.387 . S
C8 N11 1.341 . S
C9 C7 1.400 . S
C9 C8 1.387 . S
N10 Co1 2.022 . S
N10 C7 1.351 . S
N10 N11 1.365 . S
N11 C8 1.341 . S
N11 N10 1.365 . S
N11 H31 0.862 . S
C12 C7 1.501 . S
C12 H13 0.961 . S
C12 H14 0.961 . S
C12 H15 0.960 . S
H13 C12 0.961 . S
H14 C12 0.961 . S
H15 C12 0.960 . S
C16 N17 1.342 . S
C16 C20 1.401 . S
C16 C21 1.499 1_554 S
N17 Co0 1.989 1_554 S
N17 C16 1.342 . S
N17 N18 1.388 . S
N18 Co1 1.993 . S
N18 N17 1.388 . S
N18 C19 1.346 . S
C19 N18 1.346 . S
C19 C20 1.396 . S
C19 C29 1.510 . S
C20 C16 1.401 . S
C20 C19 1.396 . S
C21 C16 1.499 1_556 S
C21 H22 0.959 . S
C21 H23 0.960 . S
C21 H24 0.961 . S
H22 C21 0.959 . S
H23 C21 0.960 . S
H24 C21 0.961 . S
O25 Co0 1.967 . S
O25 C33 1.258 1_556 S
O26 Co1 1.941 . S
O26 C33 1.266 . S
H27 C29 0.959 . S
H28 C29 0.961 . S
C29 C19 1.510 . S
C29 H27 0.959 . S
C29 H28 0.961 . S
C29 H30 0.960 . S
H30 C29 0.960 . S
H31 N11 0.862 . S
O32 Co0 1.920 . S
O32 C5 1.289 . S
C33 O25 1.258 1_554 S
C33 O26 1.266 . S
Co34 O37 1.970 . S
Co34 N51 1.989 . S
Co34 O59 1.967 . S
Co34 O66 1.920 . S
Co35 O38 1.966 . S
Co35 N44 2.022 . S
Co35 N52 1.993 . S
Co35 O60 1.941 . S
C36 O37 1.258 . S
C36 O38 1.263 . S
O37 Co34 1.970 . S
O37 C36 1.258 . S
O38 Co35 1.966 . S
O38 C36 1.263 . S
C39 O40 1.235 . S
C39 O66 1.289 . S
O40 C39 1.235 . S
C41 C43 1.400 . S
C41 N44 1.351 . S
C41 C46 1.501 . S
C42 C43 1.387 . S
C42 N45 1.341 . S
C43 C41 1.400 . S
C43 C42 1.387 . S
N44 Co35 2.022 . S
N44 C41 1.351 . S
N44 N45 1.365 . S
N45 C42 1.341 . S
N45 N44 1.365 . S
N45 H65 0.862 . S
C46 C41 1.501 . S
C46 H47 0.961 . S
C46 H48 0.961 . S
C46 H49 0.960 . S
H47 C46 0.961 . S
H48 C46 0.961 . S
H49 C46 0.960 . S
C50 N51 1.342 . S
C50 C54 1.401 . S
C50 C55 1.499 . S
N51 Co34 1.989 . S
N51 C50 1.342 . S
N51 N52 1.388 . S
N52 Co35 1.993 . S
N52 N51 1.388 . S
N52 C53 1.346 . S
C53 N52 1.346 . S
C53 C54 1.396 . S
C53 C63 1.510 . S
C54 C50 1.401 . S
C54 C53 1.396 . S
C55 C50 1.499 . S
C55 H56 0.959 . S
C55 H57 0.960 . S
C55 H58 0.961 . S
H56 C55 0.959 . S
H57 C55 0.960 . S
H58 C55 0.961 . S
O59 Co34 1.967 . S
O59 C67 1.258 . S
O60 Co35 1.941 . S
O60 C67 1.266 . S
H61 C63 0.959 . S
H62 C63 0.961 . S
C63 C53 1.510 . S
C63 H61 0.959 . S
C63 H62 0.961 . S
C63 H64 0.960 . S
H64 C63 0.960 . S
H65 N45 0.862 . S
O66 Co34 1.920 . S
O66 C39 1.289 . S
C67 O59 1.258 . S
C67 O60 1.266 . S
Co68 O71 1.970 . S
Co68 N85 1.989 . S
Co68 O93 1.967 . S
Co68 O100 1.920 . S
Co69 O72 1.966 . S
Co69 N78 2.022 . S
Co69 N86 1.993 . S
Co69 O94 1.941 . S
C70 O71 1.258 . S
C70 O72 1.263 . S
O71 Co68 1.970 . S
O71 C70 1.258 . S
O72 Co69 1.966 . S
O72 C70 1.263 . S
C73 O74 1.235 . S
C73 O100 1.289 . S
O74 C73 1.235 . S
C75 C77 1.400 . S
C75 N78 1.351 . S
C75 C80 1.501 . S
C76 C77 1.387 . S
C76 N79 1.341 . S
C77 C75 1.400 . S
C77 C76 1.387 . S
N78 Co69 2.022 . S
N78 C75 1.351 . S
N78 N79 1.365 . S
N79 C76 1.341 . S
N79 N78 1.365 . S
N79 H99 0.862 . S
C80 C75 1.501 . S
C80 H81 0.961 . S
C80 H82 0.961 . S
C80 H83 0.960 . S
H81 C80 0.961 . S
H82 C80 0.961 . S
H83 C80 0.960 . S
C84 N85 1.342 . S
C84 C88 1.401 . S
C84 C89 1.499 . S
N85 Co68 1.989 . S
N85 C84 1.342 . S
N85 N86 1.388 . S
N86 Co69 1.993 . S
N86 N85 1.388 . S
N86 C87 1.346 . S
C87 N86 1.346 . S
C87 C88 1.396 . S
C87 C97 1.510 . S
C88 C84 1.401 . S
C88 C87 1.396 . S
C89 C84 1.499 . S
C89 H90 0.959 . S
C89 H91 0.960 . S
C89 H92 0.961 . S
H90 C89 0.959 . S
H91 C89 0.960 . S
H92 C89 0.961 . S
O93 Co68 1.967 . S
O93 C101 1.258 . S
O94 Co69 1.941 . S
O94 C101 1.266 . S
H95 C97 0.959 . S
H96 C97 0.961 . S
C97 C87 1.510 . S
C97 H95 0.959 . S
C97 H96 0.961 . S
C97 H98 0.960 . S
H98 C97 0.960 . S
H99 N79 0.862 . S
O100 Co68 1.920 . S
O100 C73 1.289 . S
C101 O93 1.258 . S
C101 O94 1.266 . S
Co102 O105 1.970 . S
Co102 N119 1.989 . S
Co102 O127 1.967 . S
Co102 O134 1.920 . S
Co103 O106 1.966 . S
Co103 N112 2.022 1_556 S
Co103 N120 1.993 . S
Co103 O128 1.941 . S
C104 O105 1.258 . S
C104 O106 1.263 . S
O105 Co102 1.970 . S
O105 C104 1.258 . S
O106 Co103 1.966 . S
O106 C104 1.263 . S
C107 O108 1.235 . S
C107 O134 1.289 . S
O108 C107 1.235 . S
C109 C111 1.400 . S
C109 N112 1.351 . S
C109 C114 1.501 . S
C110 C111 1.387 . S
C110 N113 1.341 . S
C111 C109 1.400 . S
C111 C110 1.387 . S
N112 Co103 2.022 1_554 S
N112 C109 1.351 . S
N112 N113 1.365 . S
N113 C110 1.341 . S
N113 N112 1.365 . S
N113 H133 0.862 . S
C114 C109 1.501 . S
C114 H115 0.961 . S
C114 H116 0.961 . S
C114 H117 0.960 . S
H115 C114 0.961 . S
H116 C114 0.961 . S
H117 C114 0.960 . S
C118 N119 1.342 . S
C118 C122 1.401 . S
C118 C123 1.499 . S
N119 Co102 1.989 . S
N119 C118 1.342 . S
N119 N120 1.388 . S
N120 Co103 1.993 . S
N120 N119 1.388 . S
N120 C121 1.346 . S
C121 N120 1.346 . S
C121 C122 1.396 . S
C121 C131 1.510 1_556 S
C122 C118 1.401 . S
C122 C121 1.396 . S
C123 C118 1.499 . S
C123 H124 0.959 . S
C123 H125 0.960 . S
C123 H126 0.961 . S
H124 C123 0.959 . S
H125 C123 0.960 . S
H126 C123 0.961 . S
O127 Co102 1.967 . S
O127 C135 1.258 . S
O128 Co103 1.941 . S
O128 C135 1.266 . S
H129 C131 0.959 . S
H130 C131 0.961 . S
C131 C121 1.510 1_554 S
C131 H129 0.959 . S
C131 H130 0.961 . S
C131 H132 0.960 . S
H132 C131 0.960 . S
H133 N113 0.862 . S
O134 Co102 1.920 . S
O134 C107 1.289 . S
C135 O127 1.258 . S
C135 O128 1.266 . S
Co136 O139 1.970 1_554 S
Co136 N153 1.989 1_554 S
Co136 O161 1.967 . S
Co136 O168 1.920 . S
Co137 O140 1.966 . S
Co137 N146 2.022 . S
Co137 N154 1.993 . S
Co137 O162 1.941 . S
C138 O139 1.258 . S
C138 O140 1.263 . S
O139 Co136 1.970 1_556 S
O139 C138 1.258 . S
O140 Co137 1.966 . S
O140 C138 1.263 . S
C141 O142 1.235 . S
C141 O168 1.289 . S
O142 C141 1.235 . S
C143 C145 1.400 . S
C143 N146 1.351 . S
C143 C148 1.501 . S
C144 C145 1.387 . S
C144 N147 1.341 . S
C145 C143 1.400 . S
C145 C144 1.387 . S
N146 Co137 2.022 . S
N146 C143 1.351 . S
N146 N147 1.365 . S
N147 C144 1.341 . S
N147 N146 1.365 . S
N147 H167 0.862 . S
C148 C143 1.501 . S
C148 H149 0.961 . S
C148 H150 0.961 . S
C148 H151 0.960 . S
H149 C148 0.961 . S
H150 C148 0.961 . S
H151 C148 0.960 . S
C152 N153 1.342 . S
C152 C156 1.401 . S
C152 C157 1.499 1_556 S
N153 Co136 1.989 1_556 S
N153 C152 1.342 . S
N153 N154 1.388 . S
N154 Co137 1.993 . S
N154 N153 1.388 . S
N154 C155 1.346 . S
C155 N154 1.346 . S
C155 C156 1.396 . S
C155 C165 1.510 . S
C156 C152 1.401 . S
C156 C155 1.396 . S
C157 C152 1.499 1_554 S
C157 H158 0.959 . S
C157 H159 0.960 . S
C157 H160 0.961 . S
H158 C157 0.959 . S
H159 C157 0.960 . S
H160 C157 0.961 . S
O161 Co136 1.967 . S
O161 C169 1.258 1_554 S
O162 Co137 1.941 . S
O162 C169 1.266 . S
H163 C165 0.959 . S
H164 C165 0.961 . S
C165 C155 1.510 . S
C165 H163 0.959 . S
C165 H164 0.961 . S
C165 H166 0.960 . S
H166 C165 0.960 . S
H167 N147 0.862 . S
O168 Co136 1.920 . S
O168 C141 1.289 . S
C169 O161 1.258 1_556 S
C169 O162 1.266 . S
Co170 O173 1.970 . S
Co170 N187 1.989 . S
Co170 O195 1.967 . S
Co170 O202 1.920 . S
Co171 O174 1.966 . S
Co171 N180 2.022 1_554 S
Co171 N188 1.993 . S
Co171 O196 1.941 . S
C172 O173 1.258 . S
C172 O174 1.263 . S
O173 Co170 1.970 . S
O173 C172 1.258 . S
O174 Co171 1.966 . S
O174 C172 1.263 . S
C175 O176 1.235 . S
C175 O202 1.289 . S
O176 C175 1.235 . S
C177 C179 1.400 . S
C177 N180 1.351 . S
C177 C182 1.501 . S
C178 C179 1.387 . S
C178 N181 1.341 . S
C179 C177 1.400 . S
C179 C178 1.387 . S
N180 Co171 2.022 1_556 S
N180 C177 1.351 . S
N180 N181 1.365 . S
N181 C178 1.341 . S
N181 N180 1.365 . S
N181 H201 0.862 . S
C182 C177 1.501 . S
C182 H183 0.961 . S
C182 H184 0.961 . S
C182 H185 0.960 . S
H183 C182 0.961 . S
H184 C182 0.961 . S
H185 C182 0.960 . S
C186 N187 1.342 . S
C186 C190 1.401 . S
C186 C191 1.499 . S
N187 Co170 1.989 . S
N187 C186 1.342 . S
N187 N188 1.388 . S
N188 Co171 1.993 . S
N188 N187 1.388 . S
N188 C189 1.346 . S
C189 N188 1.346 . S
C189 C190 1.396 . S
C189 C199 1.510 1_554 S
C190 C186 1.401 . S
C190 C189 1.396 . S
C191 C186 1.499 . S
C191 H192 0.959 . S
C191 H193 0.960 . S
C191 H194 0.961 . S
H192 C191 0.959 . S
H193 C191 0.960 . S
H194 C191 0.961 . S
O195 Co170 1.967 . S
O195 C203 1.258 . S
O196 Co171 1.941 . S
O196 C203 1.266 . S
H197 C199 0.959 . S
H198 C199 0.961 . S
C199 C189 1.510 1_556 S
C199 H197 0.959 . S
C199 H198 0.961 . S
C199 H200 0.960 . S
H200 C199 0.960 . S
H201 N181 0.862 . S
O202 Co170 1.920 . S
O202 C175 1.289 . S
C203 O195 1.258 . S
C203 O196 1.266 . S
Co204 O207 1.970 . S
Co204 N221 1.989 . S
Co204 O229 1.967 . S
Co204 O236 1.920 . S
Co205 O208 1.966 . S
Co205 N214 2.022 . S
Co205 N222 1.993 . S
Co205 O230 1.941 . S
C206 O207 1.258 . S
C206 O208 1.263 . S
O207 Co204 1.970 . S
O207 C206 1.258 . S
O208 Co205 1.966 . S
O208 C206 1.263 . S
C209 O210 1.235 . S
C209 O236 1.289 . S
O210 C209 1.235 . S
C211 C213 1.400 . S
C211 N214 1.351 . S
C211 C216 1.501 . S
C212 C213 1.387 . S
C212 N215 1.341 . S
C213 C211 1.400 . S
C213 C212 1.387 . S
N214 Co205 2.022 . S
N214 C211 1.351 . S
N214 N215 1.365 . S
N215 C212 1.341 . S
N215 N214 1.365 . S
N215 H235 0.862 . S
C216 C211 1.501 . S
C216 H217 0.961 . S
C216 H218 0.961 . S
C216 H219 0.960 . S
H217 C216 0.961 . S
H218 C216 0.961 . S
H219 C216 0.960 . S
C220 N221 1.342 . S
C220 C224 1.401 . S
C220 C225 1.499 . S
N221 Co204 1.989 . S
N221 C220 1.342 . S
N221 N222 1.388 . S
N222 Co205 1.993 . S
N222 N221 1.388 . S
N222 C223 1.346 . S
C223 N222 1.346 . S
C223 C224 1.396 . S
C223 C233 1.510 . S
C224 C220 1.401 . S
C224 C223 1.396 . S
C225 C220 1.499 . S
C225 H226 0.959 . S
C225 H227 0.960 . S
C225 H228 0.961 . S
H226 C225 0.959 . S
H227 C225 0.960 . S
H228 C225 0.961 . S
O229 Co204 1.967 . S
O229 C237 1.258 . S
O230 Co205 1.941 . S
O230 C237 1.266 . S
H231 C233 0.959 . S
H232 C233 0.961 . S
C233 C223 1.510 . S
C233 H231 0.959 . S
C233 H232 0.961 . S
C233 H234 0.960 . S
H234 C233 0.960 . S
H235 N215 0.862 . S
O236 Co204 1.920 . S
O236 C209 1.289 . S
C237 O229 1.258 . S
C237 O230 1.266 . S
Co238 O241 1.970 . S
Co238 N255 1.989 . S
Co238 O263 1.967 . S
Co238 O270 1.920 . S
Co239 O242 1.966 . S
Co239 N248 2.022 . S
Co239 N256 1.993 . S
Co239 O264 1.941 . S
C240 O241 1.258 . S
C240 O242 1.263 . S
O241 Co238 1.970 . S
O241 C240 1.258 . S
O242 Co239 1.966 . S
O242 C240 1.263 . S
C243 O244 1.235 . S
C243 O270 1.289 . S
O244 C243 1.235 . S
C245 C247 1.400 . S
C245 N248 1.351 . S
C245 C250 1.501 . S
C246 C247 1.387 . S
C246 N249 1.341 . S
C247 C245 1.400 . S
C247 C246 1.387 . S
N248 Co239 2.022 . S
N248 C245 1.351 . S
N248 N249 1.365 . S
N249 C246 1.341 . S
N249 N248 1.365 . S
N249 H269 0.862 . S
C250 C245 1.501 . S
C250 H251 0.961 . S
C250 H252 0.961 . S
C250 H253 0.960 . S
H251 C250 0.961 . S
H252 C250 0.961 . S
H253 C250 0.960 . S
C254 N255 1.342 . S
C254 C258 1.401 . S
C254 C259 1.499 . S
N255 Co238 1.989 . S
N255 C254 1.342 . S
N255 N256 1.388 . S
N256 Co239 1.993 . S
N256 N255 1.388 . S
N256 C257 1.346 . S
C257 N256 1.346 . S
C257 C258 1.396 . S
C257 C267 1.510 . S
C258 C254 1.401 . S
C258 C257 1.396 . S
C259 C254 1.499 . S
C259 H260 0.959 . S
C259 H261 0.960 . S
C259 H262 0.961 . S
H260 C259 0.959 . S
H261 C259 0.960 . S
H262 C259 0.961 . S
O263 Co238 1.967 . S
O263 C271 1.258 . S
O264 Co239 1.941 . S
O264 C271 1.266 . S
H265 C267 0.959 . S
H266 C267 0.961 . S
C267 C257 1.510 . S
C267 H265 0.959 . S
C267 H266 0.961 . S
C267 H268 0.960 . S
H268 C267 0.960 . S
H269 N249 0.862 . S
O270 Co238 1.920 . S
O270 C243 1.289 . S
C271 O263 1.258 . S
C271 O264 1.266 . S
Co272 O275 1.970 1_554 S
Co272 N289 1.989 1_554 S
Co272 O297 1.967 . S
Co272 O304 1.920 . S
Co273 O276 1.966 . S
Co273 N282 2.022 . S
Co273 N290 1.993 . S
Co273 O298 1.941 . S
C274 O275 1.258 . S
C274 O276 1.263 . S
O275 Co272 1.970 1_556 S
O275 C274 1.258 . S
O276 Co273 1.966 . S
O276 C274 1.263 . S
C277 O278 1.235 . S
C277 O304 1.289 . S
O278 C277 1.235 . S
C279 C281 1.400 . S
C279 N282 1.351 . S
C279 C284 1.501 . S
C280 C281 1.387 . S
C280 N283 1.341 . S
C281 C279 1.400 . S
C281 C280 1.387 . S
N282 Co273 2.022 . S
N282 C279 1.351 . S
N282 N283 1.365 . S
N283 C280 1.341 . S
N283 N282 1.365 . S
N283 H303 0.862 . S
C284 C279 1.501 . S
C284 H285 0.961 . S
C284 H286 0.961 . S
C284 H287 0.960 . S
H285 C284 0.961 . S
H286 C284 0.961 . S
H287 C284 0.960 . S
C288 N289 1.342 . S
C288 C292 1.401 . S
C288 C293 1.499 1_556 S
N289 Co272 1.989 1_556 S
N289 C288 1.342 . S
N289 N290 1.388 . S
N290 Co273 1.993 . S
N290 N289 1.388 . S
N290 C291 1.346 . S
C291 N290 1.346 . S
C291 C292 1.396 . S
C291 C301 1.510 . S
C292 C288 1.401 . S
C292 C291 1.396 . S
C293 C288 1.499 1_554 S
C293 H294 0.959 . S
C293 H295 0.960 . S
C293 H296 0.961 . S
H294 C293 0.959 . S
H295 C293 0.960 . S
H296 C293 0.961 . S
O297 Co272 1.967 . S
O297 C305 1.258 1_554 S
O298 Co273 1.941 . S
O298 C305 1.266 . S
H299 C301 0.959 . S
H300 C301 0.961 . S
C301 C291 1.510 . S
C301 H299 0.959 . S
C301 H300 0.961 . S
C301 H302 0.960 . S
H302 C301 0.960 . S
H303 N283 0.862 . S
O304 Co272 1.920 . S
O304 C277 1.289 . S
C305 O297 1.258 1_556 S
C305 O298 1.266 . S
Co306 O309 1.970 . S
Co306 N323 1.989 . S
Co306 O331 1.967 . S
Co306 O338 1.920 . S
Co307 O310 1.966 . S
Co307 N316 2.022 . S
Co307 N324 1.993 . S
Co307 O332 1.941 . S
C308 O309 1.258 . S
C308 O310 1.263 . S
O309 Co306 1.970 . S
O309 C308 1.258 . S
O310 Co307 1.966 . S
O310 C308 1.263 . S
C311 O312 1.235 . S
C311 O338 1.289 . S
O312 C311 1.235 . S
C313 C315 1.400 . S
C313 N316 1.351 . S
C313 C318 1.501 . S
C314 C315 1.387 . S
C314 N317 1.341 . S
C315 C313 1.400 . S
C315 C314 1.387 . S
N316 Co307 2.022 . S
N316 C313 1.351 . S
N316 N317 1.365 . S
N317 C314 1.341 . S
N317 N316 1.365 . S
N317 H337 0.862 . S
C318 C313 1.501 . S
C318 H319 0.961 . S
C318 H320 0.961 . S
C318 H321 0.960 . S
H319 C318 0.961 . S
H320 C318 0.961 . S
H321 C318 0.960 . S
C322 N323 1.342 . S
C322 C326 1.401 . S
C322 C327 1.499 . S
N323 Co306 1.989 . S
N323 C322 1.342 . S
N323 N324 1.388 . S
N324 Co307 1.993 . S
N324 N323 1.388 . S
N324 C325 1.346 . S
C325 N324 1.346 . S
C325 C326 1.396 . S
C325 C335 1.510 . S
C326 C322 1.401 . S
C326 C325 1.396 . S
C327 C322 1.499 . S
C327 H328 0.959 . S
C327 H329 0.960 . S
C327 H330 0.961 . S
H328 C327 0.959 . S
H329 C327 0.960 . S
H330 C327 0.961 . S
O331 Co306 1.967 . S
O331 C339 1.258 . S
O332 Co307 1.941 . S
O332 C339 1.266 . S
H333 C335 0.959 . S
H334 C335 0.961 . S
C335 C325 1.510 . S
C335 H333 0.959 . S
C335 H334 0.961 . S
C335 H336 0.960 . S
H336 C335 0.960 . S
H337 N317 0.862 . S
O338 Co306 1.920 . S
O338 C311 1.289 . S
C339 O331 1.258 . S
C339 O332 1.266 . S
Co340 O343 1.970 . S
Co340 N357 1.989 . S
Co340 O365 1.967 . S
Co340 O372 1.920 . S
Co341 O344 1.966 . S
Co341 N350 2.022 . S
Co341 N358 1.993 . S
Co341 O366 1.941 . S
C342 O343 1.258 . S
C342 O344 1.263 . S
O343 Co340 1.970 . S
O343 C342 1.258 . S
O344 Co341 1.966 . S
O344 C342 1.263 . S
C345 O346 1.235 . S
C345 O372 1.289 . S
O346 C345 1.235 . S
C347 C349 1.400 . S
C347 N350 1.351 . S
C347 C352 1.501 . S
C348 C349 1.387 . S
C348 N351 1.341 . S
C349 C347 1.400 . S
C349 C348 1.387 . S
N350 Co341 2.022 . S
N350 C347 1.351 . S
N350 N351 1.365 . S
N351 C348 1.341 . S
N351 N350 1.365 . S
N351 H371 0.862 . S
C352 C347 1.501 . S
C352 H353 0.961 . S
C352 H354 0.961 . S
C352 H355 0.960 . S
H353 C352 0.961 . S
H354 C352 0.961 . S
H355 C352 0.960 . S
C356 N357 1.342 . S
C356 C360 1.401 . S
C356 C361 1.499 . S
N357 Co340 1.989 . S
N357 C356 1.342 . S
N357 N358 1.388 . S
N358 Co341 1.993 . S
N358 N357 1.388 . S
N358 C359 1.346 . S
C359 N358 1.346 . S
C359 C360 1.396 . S
C359 C369 1.510 . S
C360 C356 1.401 . S
C360 C359 1.396 . S
C361 C356 1.499 . S
C361 H362 0.959 . S
C361 H363 0.960 . S
C361 H364 0.961 . S
H362 C361 0.959 . S
H363 C361 0.960 . S
H364 C361 0.961 . S
O365 Co340 1.967 . S
O365 C373 1.258 . S
O366 Co341 1.941 . S
O366 C373 1.266 . S
H367 C369 0.959 . S
H368 C369 0.961 . S
C369 C359 1.510 . S
C369 H367 0.959 . S
C369 H368 0.961 . S
C369 H370 0.960 . S
H370 C369 0.960 . S
H371 N351 0.862 . S
O372 Co340 1.920 . S
O372 C345 1.289 . S
C373 O365 1.258 . S
C373 O366 1.266 . S
Co374 O377 1.970 . S
Co374 N391 1.989 . S
Co374 O399 1.967 . S
Co374 O406 1.920 . S
Co375 O378 1.966 . S
Co375 N384 2.022 1_554 S
Co375 N392 1.993 . S
Co375 O400 1.941 . S
C376 O377 1.258 . S
C376 O378 1.263 . S
O377 Co374 1.970 . S
O377 C376 1.258 . S
O378 Co375 1.966 . S
O378 C376 1.263 . S
C379 O380 1.235 . S
C379 O406 1.289 . S
O380 C379 1.235 . S
C381 C383 1.400 . S
C381 N384 1.351 . S
C381 C386 1.501 . S
C382 C383 1.387 . S
C382 N385 1.341 . S
C383 C381 1.400 . S
C383 C382 1.387 . S
N384 Co375 2.022 1_556 S
N384 C381 1.351 . S
N384 N385 1.365 . S
N385 C382 1.341 . S
N385 N384 1.365 . S
N385 H405 0.862 . S
C386 C381 1.501 . S
C386 H387 0.961 . S
C386 H388 0.961 . S
C386 H389 0.960 . S
H387 C386 0.961 . S
H388 C386 0.961 . S
H389 C386 0.960 . S
C390 N391 1.342 . S
C390 C394 1.401 . S
C390 C395 1.499 . S
N391 Co374 1.989 . S
N391 C390 1.342 . S
N391 N392 1.388 . S
N392 Co375 1.993 . S
N392 N391 1.388 . S
N392 C393 1.346 . S
C393 N392 1.346 . S
C393 C394 1.396 . S
C393 C403 1.510 1_554 S
C394 C390 1.401 . S
C394 C393 1.396 . S
C395 C390 1.499 . S
C395 H396 0.959 . S
C395 H397 0.960 . S
C395 H398 0.961 . S
H396 C395 0.959 . S
H397 C395 0.960 . S
H398 C395 0.961 . S
O399 Co374 1.967 . S
O399 C407 1.258 . S
O400 Co375 1.941 . S
O400 C407 1.266 . S
H401 C403 0.959 . S
H402 C403 0.961 . S
C403 C393 1.510 1_556 S
C403 H401 0.959 . S
C403 H402 0.961 . S
C403 H404 0.960 . S
H404 C403 0.960 . S
H405 N385 0.862 . S
O406 Co374 1.920 . S
O406 C379 1.289 . S
C407 O399 1.258 . S
C407 O400 1.266 . S
Co408 O411 1.970 1_556 S
Co408 N425 1.989 1_556 S
Co408 O433 1.967 . S
Co408 O440 1.920 . S
Co409 O412 1.966 . S
Co409 N418 2.022 . S
Co409 N426 1.993 . S
Co409 O434 1.941 . S
C410 O411 1.258 . S
C410 O412 1.263 . S
O411 Co408 1.970 1_554 S
O411 C410 1.258 . S
O412 Co409 1.966 . S
O412 C410 1.263 . S
C413 O414 1.235 . S
C413 O440 1.289 . S
O414 C413 1.235 . S
C415 C417 1.400 . S
C415 N418 1.351 . S
C415 C420 1.501 . S
C416 C417 1.387 . S
C416 N419 1.341 . S
C417 C415 1.400 . S
C417 C416 1.387 . S
N418 Co409 2.022 . S
N418 C415 1.351 . S
N418 N419 1.365 . S
N419 C416 1.341 . S
N419 N418 1.365 . S
N419 H439 0.862 . S
C420 C415 1.501 . S
C420 H421 0.961 . S
C420 H422 0.961 . S
C420 H423 0.960 . S
H421 C420 0.961 . S
H422 C420 0.961 . S
H423 C420 0.960 . S
C424 N425 1.342 . S
C424 C428 1.401 . S
C424 C429 1.499 1_554 S
N425 Co408 1.989 1_554 S
N425 C424 1.342 . S
N425 N426 1.388 . S
N426 Co409 1.993 . S
N426 N425 1.388 . S
N426 C427 1.346 . S
C427 N426 1.346 . S
C427 C428 1.396 . S
C427 C437 1.510 . S
C428 C424 1.401 . S
C428 C427 1.396 . S
C429 C424 1.499 1_556 S
C429 H430 0.959 . S
C429 H431 0.960 . S
C429 H432 0.961 . S
H430 C429 0.959 . S
H431 C429 0.960 . S
H432 C429 0.961 . S
O433 Co408 1.967 . S
O433 C441 1.258 1_556 S
O434 Co409 1.941 . S
O434 C441 1.266 . S
H435 C437 0.959 . S
H436 C437 0.961 . S
C437 C427 1.510 . S
C437 H435 0.959 . S
C437 H436 0.961 . S
C437 H438 0.960 . S
H438 C437 0.960 . S
H439 N419 0.862 . S
O440 Co408 1.920 . S
O440 C413 1.289 . S
C441 O433 1.258 1_554 S
C441 O434 1.266 . S
Co442 O445 1.970 . S
Co442 N459 1.989 . S
Co442 O467 1.967 . S
Co442 O474 1.920 . S
Co443 O446 1.966 . S
Co443 N452 2.022 1_556 S
Co443 N460 1.993 . S
Co443 O468 1.941 . S
C444 O445 1.258 . S
C444 O446 1.263 . S
O445 Co442 1.970 . S
O445 C444 1.258 . S
O446 Co443 1.966 . S
O446 C444 1.263 . S
C447 O448 1.235 . S
C447 O474 1.289 . S
O448 C447 1.235 . S
C449 C451 1.400 . S
C449 N452 1.351 . S
C449 C454 1.501 . S
C450 C451 1.387 . S
C450 N453 1.341 . S
C451 C449 1.400 . S
C451 C450 1.387 . S
N452 Co443 2.022 1_554 S
N452 C449 1.351 . S
N452 N453 1.365 . S
N453 C450 1.341 . S
N453 N452 1.365 . S
N453 H473 0.862 . S
C454 C449 1.501 . S
C454 H455 0.961 . S
C454 H456 0.961 . S
C454 H457 0.960 . S
H455 C454 0.961 . S
H456 C454 0.961 . S
H457 C454 0.960 . S
C458 N459 1.342 . S
C458 C462 1.401 . S
C458 C463 1.499 . S
N459 Co442 1.989 . S
N459 C458 1.342 . S
N459 N460 1.388 . S
N460 Co443 1.993 . S
N460 N459 1.388 . S
N460 C461 1.346 . S
C461 N460 1.346 . S
C461 C462 1.396 . S
C461 C471 1.510 1_556 S
C462 C458 1.401 . S
C462 C461 1.396 . S
C463 C458 1.499 . S
C463 H464 0.959 . S
C463 H465 0.960 . S
C463 H466 0.961 . S
H464 C463 0.959 . S
H465 C463 0.960 . S
H466 C463 0.961 . S
O467 Co442 1.967 . S
O467 C475 1.258 . S
O468 Co443 1.941 . S
O468 C475 1.266 . S
H469 C471 0.959 . S
H470 C471 0.961 . S
C471 C461 1.510 1_554 S
C471 H469 0.959 . S
C471 H470 0.961 . S
C471 H472 0.960 . S
H472 C471 0.960 . S
H473 N453 0.862 . S
O474 Co442 1.920 . S
O474 C447 1.289 . S
C475 O467 1.258 . S
C475 O468 1.266 . S
Co476 O479 1.970 . S
Co476 N493 1.989 . S
Co476 O501 1.967 . S
Co476 O508 1.920 . S
Co477 O480 1.966 . S
Co477 N486 2.022 . S
Co477 N494 1.993 . S
Co477 O502 1.941 . S
C478 O479 1.258 . S
C478 O480 1.263 . S
O479 Co476 1.970 . S
O479 C478 1.258 . S
O480 Co477 1.966 . S
O480 C478 1.263 . S
C481 O482 1.235 . S
C481 O508 1.289 . S
O482 C481 1.235 . S
C483 C485 1.400 . S
C483 N486 1.351 . S
C483 C488 1.501 . S
C484 C485 1.387 . S
C484 N487 1.341 . S
C485 C483 1.400 . S
C485 C484 1.387 . S
N486 Co477 2.022 . S
N486 C483 1.351 . S
N486 N487 1.365 . S
N487 C484 1.341 . S
N487 N486 1.365 . S
N487 H507 0.862 . S
C488 C483 1.501 . S
C488 H489 0.961 . S
C488 H490 0.961 . S
C488 H491 0.960 . S
H489 C488 0.961 . S
H490 C488 0.961 . S
H491 C488 0.960 . S
C492 N493 1.342 . S
C492 C496 1.401 . S
C492 C497 1.499 . S
N493 Co476 1.989 . S
N493 C492 1.342 . S
N493 N494 1.388 . S
N494 Co477 1.993 . S
N494 N493 1.388 . S
N494 C495 1.346 . S
C495 N494 1.346 . S
C495 C496 1.396 . S
C495 C505 1.510 . S
C496 C492 1.401 . S
C496 C495 1.396 . S
C497 C492 1.499 . S
C497 H498 0.959 . S
C497 H499 0.960 . S
C497 H500 0.961 . S
H498 C497 0.959 . S
H499 C497 0.960 . S
H500 C497 0.961 . S
O501 Co476 1.967 . S
O501 C509 1.258 . S
O502 Co477 1.941 . S
O502 C509 1.266 . S
H503 C505 0.959 . S
H504 C505 0.961 . S
C505 C495 1.510 . S
C505 H503 0.959 . S
C505 H504 0.961 . S
C505 H506 0.960 . S
H506 C505 0.960 . S
H507 N487 0.862 . S
O508 Co476 1.920 . S
O508 C481 1.289 . S
C509 O501 1.258 . S
C509 O502 1.266 . S
Co510 O513 1.970 . S
Co510 N527 1.989 . S
Co510 O535 1.967 . S
Co510 O542 1.920 . S
Co511 O514 1.966 . S
Co511 N520 2.022 . S
Co511 N528 1.993 . S
Co511 O536 1.941 . S
C512 O513 1.258 . S
C512 O514 1.263 . S
O513 Co510 1.970 . S
O513 C512 1.258 . S
O514 Co511 1.966 . S
O514 C512 1.263 . S
C515 O516 1.235 . S
C515 O542 1.289 . S
O516 C515 1.235 . S
C517 C519 1.400 . S
C517 N520 1.351 . S
C517 C522 1.501 . S
C518 C519 1.387 . S
C518 N521 1.341 . S
C519 C517 1.400 . S
C519 C518 1.387 . S
N520 Co511 2.022 . S
N520 C517 1.351 . S
N520 N521 1.365 . S
N521 C518 1.341 . S
N521 N520 1.365 . S
N521 H541 0.862 . S
C522 C517 1.501 . S
C522 H523 0.961 . S
C522 H524 0.961 . S
C522 H525 0.960 . S
H523 C522 0.961 . S
H524 C522 0.961 . S
H525 C522 0.960 . S
C526 N527 1.342 . S
C526 C530 1.401 . S
C526 C531 1.499 . S
N527 Co510 1.989 . S
N527 C526 1.342 . S
N527 N528 1.388 . S
N528 Co511 1.993 . S
N528 N527 1.388 . S
N528 C529 1.346 . S
C529 N528 1.346 . S
C529 C530 1.396 . S
C529 C539 1.510 . S
C530 C526 1.401 . S
C530 C529 1.396 . S
C531 C526 1.499 . S
C531 H532 0.959 . S
C531 H533 0.960 . S
C531 H534 0.961 . S
H532 C531 0.959 . S
H533 C531 0.960 . S
H534 C531 0.961 . S
O535 Co510 1.967 . S
O535 C543 1.258 . S
O536 Co511 1.941 . S
O536 C543 1.266 . S
H537 C539 0.959 . S
H538 C539 0.961 . S
C539 C529 1.510 . S
C539 H537 0.959 . S
C539 H538 0.961 . S
C539 H540 0.960 . S
H540 C539 0.960 . S
H541 N521 0.862 . S
O542 Co510 1.920 . S
O542 C515 1.289 . S
C543 O535 1.258 . S
C543 O536 1.266 . S
Co544 O547 1.970 . S
Co544 N561 1.989 . S
Co544 O569 1.967 . S
Co544 O576 1.920 . S
Co545 O548 1.966 . S
Co545 N554 2.022 . S
Co545 N562 1.993 . S
Co545 O570 1.941 . S
C546 O547 1.258 . S
C546 O548 1.263 . S
O547 Co544 1.970 . S
O547 C546 1.258 . S
O548 Co545 1.966 . S
O548 C546 1.263 . S
C549 O550 1.235 . S
C549 O576 1.289 . S
O550 C549 1.235 . S
C551 C553 1.400 . S
C551 N554 1.351 . S
C551 C556 1.501 . S
C552 C553 1.387 . S
C552 N555 1.341 . S
C553 C551 1.400 . S
C553 C552 1.387 . S
N554 Co545 2.022 . S
N554 C551 1.351 . S
N554 N555 1.365 . S
N555 C552 1.341 . S
N555 N554 1.365 . S
N555 H575 0.862 . S
C556 C551 1.501 . S
C556 H557 0.961 . S
C556 H558 0.961 . S
C556 H559 0.960 . S
H557 C556 0.961 . S
H558 C556 0.961 . S
H559 C556 0.960 . S
C560 N561 1.342 . S
C560 C564 1.401 . S
C560 C565 1.499 . S
N561 Co544 1.989 . S
N561 C560 1.342 . S
N561 N562 1.388 . S
N562 Co545 1.993 . S
N562 N561 1.388 . S
N562 C563 1.346 . S
C563 N562 1.346 . S
C563 C564 1.396 . S
C563 C573 1.510 . S
C564 C560 1.401 . S
C564 C563 1.396 . S
C565 C560 1.499 . S
C565 H566 0.959 . S
C565 H567 0.960 . S
C565 H568 0.961 . S
H566 C565 0.959 . S
H567 C565 0.960 . S
H568 C565 0.961 . S
O569 Co544 1.967 . S
O569 C577 1.258 . S
O570 Co545 1.941 . S
O570 C577 1.266 . S
H571 C573 0.959 . S
H572 C573 0.961 . S
C573 C563 1.510 . S
C573 H571 0.959 . S
C573 H572 0.961 . S
C573 H574 0.960 . S
H574 C573 0.960 . S
H575 N555 0.862 . S
O576 Co544 1.920 . S
O576 C549 1.289 . S
C577 O569 1.258 . S
C577 O570 1.266 . S
Co578 O581 1.970 . S
Co578 N595 1.989 . S
Co578 O603 1.967 . S
Co578 O610 1.920 . S
Co579 O582 1.966 . S
Co579 N588 2.022 1_556 S
Co579 N596 1.993 . S
Co579 O604 1.941 . S
C580 O581 1.258 . S
C580 O582 1.263 . S
O581 Co578 1.970 . S
O581 C580 1.258 . S
O582 Co579 1.966 . S
O582 C580 1.263 . S
C583 O584 1.235 . S
C583 O610 1.289 . S
O584 C583 1.235 . S
C585 C587 1.400 . S
C585 N588 1.351 . S
C585 C590 1.501 . S
C586 C587 1.387 . S
C586 N589 1.341 . S
C587 C585 1.400 . S
C587 C586 1.387 . S
N588 Co579 2.022 1_554 S
N588 C585 1.351 . S
N588 N589 1.365 . S
N589 C586 1.341 . S
N589 N588 1.365 . S
N589 H609 0.862 . S
C590 C585 1.501 . S
C590 H591 0.961 . S
C590 H592 0.961 . S
C590 H593 0.960 . S
H591 C590 0.961 . S
H592 C590 0.961 . S
H593 C590 0.960 . S
C594 N595 1.342 . S
C594 C598 1.401 . S
C594 C599 1.499 . S
N595 Co578 1.989 . S
N595 C594 1.342 . S
N595 N596 1.388 . S
N596 Co579 1.993 . S
N596 N595 1.388 . S
N596 C597 1.346 . S
C597 N596 1.346 . S
C597 C598 1.396 . S
C597 C607 1.510 1_556 S
C598 C594 1.401 . S
C598 C597 1.396 . S
C599 C594 1.499 . S
C599 H600 0.959 . S
C599 H601 0.960 . S
C599 H602 0.961 . S
H600 C599 0.959 . S
H601 C599 0.960 . S
H602 C599 0.961 . S
O603 Co578 1.967 . S
O603 C611 1.258 . S
O604 Co579 1.941 . S
O604 C611 1.266 . S
H605 C607 0.959 . S
H606 C607 0.961 . S
C607 C597 1.510 1_554 S
C607 H605 0.959 . S
C607 H606 0.961 . S
C607 H608 0.960 . S
H608 C607 0.960 . S
H609 N589 0.862 . S
O610 Co578 1.920 . S
O610 C583 1.289 . S
C611 O603 1.258 . S
C611 O604 1.266 . S
Co612 O615 1.970 1_556 S
Co612 N629 1.989 1_556 S
Co612 O637 1.967 . S
Co612 O644 1.920 . S
Co613 O616 1.966 . S
Co613 N622 2.022 . S
Co613 N630 1.993 . S
Co613 O638 1.941 . S
C614 O615 1.258 . S
C614 O616 1.263 . S
O615 Co612 1.970 1_554 S
O615 C614 1.258 . S
O616 Co613 1.966 . S
O616 C614 1.263 . S
C617 O618 1.235 . S
C617 O644 1.289 . S
O618 C617 1.235 . S
C619 C621 1.400 . S
C619 N622 1.351 . S
C619 C624 1.501 . S
C620 C621 1.387 . S
C620 N623 1.341 . S
C621 C619 1.400 . S
C621 C620 1.387 . S
N622 Co613 2.022 . S
N622 C619 1.351 . S
N622 N623 1.365 . S
N623 C620 1.341 . S
N623 N622 1.365 . S
N623 H643 0.862 . S
C624 C619 1.501 . S
C624 H625 0.961 . S
C624 H626 0.961 . S
C624 H627 0.960 . S
H625 C624 0.961 . S
H626 C624 0.961 . S
H627 C624 0.960 . S
C628 N629 1.342 . S
C628 C632 1.401 . S
C628 C633 1.499 1_554 S
N629 Co612 1.989 1_554 S
N629 C628 1.342 . S
N629 N630 1.388 . S
N630 Co613 1.993 . S
N630 N629 1.388 . S
N630 C631 1.346 . S
C631 N630 1.346 . S
C631 C632 1.396 . S
C631 C641 1.510 . S
C632 C628 1.401 . S
C632 C631 1.396 . S
C633 C628 1.499 1_556 S
C633 H634 0.959 . S
C633 H635 0.960 . S
C633 H636 0.961 . S
H634 C633 0.959 . S
H635 C633 0.960 . S
H636 C633 0.961 . S
O637 Co612 1.967 . S
O637 C645 1.258 1_556 S
O638 Co613 1.941 . S
O638 C645 1.266 . S
H639 C641 0.959 . S
H640 C641 0.961 . S
C641 C631 1.510 . S
C641 H639 0.959 . S
C641 H640 0.961 . S
C641 H642 0.960 . S
H642 C641 0.960 . S
H643 N623 0.862 . S
O644 Co612 1.920 . S
O644 C617 1.289 . S
C645 O637 1.258 1_554 S
C645 O638 1.266 . S
Co646 O649 1.970 . S
Co646 N663 1.989 . S
Co646 O671 1.967 . S
Co646 O678 1.920 . S
Co647 O650 1.966 . S
Co647 N656 2.022 . S
Co647 N664 1.993 . S
Co647 O672 1.941 . S
C648 O649 1.258 . S
C648 O650 1.263 . S
O649 Co646 1.970 . S
O649 C648 1.258 . S
O650 Co647 1.966 . S
O650 C648 1.263 . S
C651 O652 1.235 . S
C651 O678 1.289 . S
O652 C651 1.235 . S
C653 C655 1.400 . S
C653 N656 1.351 . S
C653 C658 1.501 . S
C654 C655 1.387 . S
C654 N657 1.341 . S
C655 C653 1.400 . S
C655 C654 1.387 . S
N656 Co647 2.022 . S
N656 C653 1.351 . S
N656 N657 1.365 . S
N657 C654 1.341 . S
N657 N656 1.365 . S
N657 H677 0.862 . S
C658 C653 1.501 . S
C658 H659 0.961 . S
C658 H660 0.961 . S
C658 H661 0.960 . S
H659 C658 0.961 . S
H660 C658 0.961 . S
H661 C658 0.960 . S
C662 N663 1.342 . S
C662 C666 1.401 . S
C662 C667 1.499 . S
N663 Co646 1.989 . S
N663 C662 1.342 . S
N663 N664 1.388 . S
N664 Co647 1.993 . S
N664 N663 1.388 . S
N664 C665 1.346 . S
C665 N664 1.346 . S
C665 C666 1.396 . S
C665 C675 1.510 . S
C666 C662 1.401 . S
C666 C665 1.396 . S
C667 C662 1.499 . S
C667 H668 0.959 . S
C667 H669 0.960 . S
C667 H670 0.961 . S
H668 C667 0.959 . S
H669 C667 0.960 . S
H670 C667 0.961 . S
O671 Co646 1.967 . S
O671 C679 1.258 . S
O672 Co647 1.941 . S
O672 C679 1.266 . S
H673 C675 0.959 . S
H674 C675 0.961 . S
C675 C665 1.510 . S
C675 H673 0.959 . S
C675 H674 0.961 . S
C675 H676 0.960 . S
H676 C675 0.960 . S
H677 N657 0.862 . S
O678 Co646 1.920 . S
O678 C651 1.289 . S
C679 O671 1.258 . S
C679 O672 1.266 . S
Co680 O683 1.970 . S
Co680 N697 1.989 . S
Co680 O705 1.967 . S
Co680 O712 1.920 . S
Co681 O684 1.966 . S
Co681 N690 2.022 . S
Co681 N698 1.993 . S
Co681 O706 1.941 . S
C682 O683 1.258 . S
C682 O684 1.263 . S
O683 Co680 1.970 . S
O683 C682 1.258 . S
O684 Co681 1.966 . S
O684 C682 1.263 . S
C685 O686 1.235 . S
C685 O712 1.289 . S
O686 C685 1.235 . S
C687 C689 1.400 . S
C687 N690 1.351 . S
C687 C692 1.501 . S
C688 C689 1.387 . S
C688 N691 1.341 . S
C689 C687 1.400 . S
C689 C688 1.387 . S
N690 Co681 2.022 . S
N690 C687 1.351 . S
N690 N691 1.365 . S
N691 C688 1.341 . S
N691 N690 1.365 . S
N691 H711 0.862 . S
C692 C687 1.501 . S
C692 H693 0.961 . S
C692 H694 0.961 . S
C692 H695 0.960 . S
H693 C692 0.961 . S
H694 C692 0.961 . S
H695 C692 0.960 . S
C696 N697 1.342 . S
C696 C700 1.401 . S
C696 C701 1.499 . S
N697 Co680 1.989 . S
N697 C696 1.342 . S
N697 N698 1.388 . S
N698 Co681 1.993 . S
N698 N697 1.388 . S
N698 C699 1.346 . S
C699 N698 1.346 . S
C699 C700 1.396 . S
C699 C709 1.510 . S
C700 C696 1.401 . S
C700 C699 1.396 . S
C701 C696 1.499 . S
C701 H702 0.959 . S
C701 H703 0.960 . S
C701 H704 0.961 . S
H702 C701 0.959 . S
H703 C701 0.960 . S
H704 C701 0.961 . S
O705 Co680 1.967 . S
O705 C713 1.258 . S
O706 Co681 1.941 . S
O706 C713 1.266 . S
H707 C709 0.959 . S
H708 C709 0.961 . S
C709 C699 1.510 . S
C709 H707 0.959 . S
C709 H708 0.961 . S
C709 H710 0.960 . S
H710 C709 0.960 . S
H711 N691 0.862 . S
O712 Co680 1.920 . S
O712 C685 1.289 . S
C713 O705 1.258 . S
C713 O706 1.266 . S
Co714 O717 1.970 . S
Co714 N731 1.989 . S
Co714 O739 1.967 . S
Co714 O746 1.920 . S
Co715 O718 1.966 . S
Co715 N724 2.022 . S
Co715 N732 1.993 . S
Co715 O740 1.941 . S
C716 O717 1.258 . S
C716 O718 1.263 . S
O717 Co714 1.970 . S
O717 C716 1.258 . S
O718 Co715 1.966 . S
O718 C716 1.263 . S
C719 O720 1.235 . S
C719 O746 1.289 . S
O720 C719 1.235 . S
C721 C723 1.400 . S
C721 N724 1.351 . S
C721 C726 1.501 . S
C722 C723 1.387 . S
C722 N725 1.341 . S
C723 C721 1.400 . S
C723 C722 1.387 . S
N724 Co715 2.022 . S
N724 C721 1.351 . S
N724 N725 1.365 . S
N725 C722 1.341 . S
N725 N724 1.365 . S
N725 H745 0.862 . S
C726 C721 1.501 . S
C726 H727 0.961 . S
C726 H728 0.961 . S
C726 H729 0.960 . S
H727 C726 0.961 . S
H728 C726 0.961 . S
H729 C726 0.960 . S
C730 N731 1.342 . S
C730 C734 1.401 . S
C730 C735 1.499 . S
N731 Co714 1.989 . S
N731 C730 1.342 . S
N731 N732 1.388 . S
N732 Co715 1.993 . S
N732 N731 1.388 . S
N732 C733 1.346 . S
C733 N732 1.346 . S
C733 C734 1.396 . S
C733 C743 1.510 . S
C734 C730 1.401 . S
C734 C733 1.396 . S
C735 C730 1.499 . S
C735 H736 0.959 . S
C735 H737 0.960 . S
C735 H738 0.961 . S
H736 C735 0.959 . S
H737 C735 0.960 . S
H738 C735 0.961 . S
O739 Co714 1.967 . S
O739 C747 1.258 . S
O740 Co715 1.941 . S
O740 C747 1.266 . S
H741 C743 0.959 . S
H742 C743 0.961 . S
C743 C733 1.510 . S
C743 H741 0.959 . S
C743 H742 0.961 . S
C743 H744 0.960 . S
H744 C743 0.960 . S
H745 N725 0.862 . S
O746 Co714 1.920 . S
O746 C719 1.289 . S
C747 O739 1.258 . S
C747 O740 1.266 . S
Co748 O751 1.970 1_554 S
Co748 N765 1.989 1_554 S
Co748 O773 1.967 . S
Co748 O780 1.920 . S
Co749 O752 1.966 . S
Co749 N758 2.022 . S
Co749 N766 1.993 . S
Co749 O774 1.941 . S
C750 O751 1.258 . S
C750 O752 1.263 . S
O751 Co748 1.970 1_556 S
O751 C750 1.258 . S
O752 Co749 1.966 . S
O752 C750 1.263 . S
C753 O754 1.235 . S
C753 O780 1.289 . S
O754 C753 1.235 . S
C755 C757 1.400 . S
C755 N758 1.351 . S
C755 C760 1.501 . S
C756 C757 1.387 . S
C756 N759 1.341 . S
C757 C755 1.400 . S
C757 C756 1.387 . S
N758 Co749 2.022 . S
N758 C755 1.351 . S
N758 N759 1.365 . S
N759 C756 1.341 . S
N759 N758 1.365 . S
N759 H779 0.862 . S
C760 C755 1.501 . S
C760 H761 0.961 . S
C760 H762 0.961 . S
C760 H763 0.960 . S
H761 C760 0.961 . S
H762 C760 0.961 . S
H763 C760 0.960 . S
C764 N765 1.342 . S
C764 C768 1.401 . S
C764 C769 1.499 1_556 S
N765 Co748 1.989 1_556 S
N765 C764 1.342 . S
N765 N766 1.388 . S
N766 Co749 1.993 . S
N766 N765 1.388 . S
N766 C767 1.346 . S
C767 N766 1.346 . S
C767 C768 1.396 . S
C767 C777 1.510 . S
C768 C764 1.401 . S
C768 C767 1.396 . S
C769 C764 1.499 1_554 S
C769 H770 0.959 . S
C769 H771 0.960 . S
C769 H772 0.961 . S
H770 C769 0.959 . S
H771 C769 0.960 . S
H772 C769 0.961 . S
O773 Co748 1.967 . S
O773 C781 1.258 1_554 S
O774 Co749 1.941 . S
O774 C781 1.266 . S
H775 C777 0.959 . S
H776 C777 0.961 . S
C777 C767 1.510 . S
C777 H775 0.959 . S
C777 H776 0.961 . S
C777 H778 0.960 . S
H778 C777 0.960 . S
H779 N759 0.862 . S
O780 Co748 1.920 . S
O780 C753 1.289 . S
C781 O773 1.258 1_556 S
C781 O774 1.266 . S
Co782 O785 1.970 . S
Co782 N799 1.989 . S
Co782 O807 1.967 . S
Co782 O814 1.920 . S
Co783 O786 1.966 . S
Co783 N792 2.022 1_554 S
Co783 N800 1.993 . S
Co783 O808 1.941 . S
C784 O785 1.258 . S
C784 O786 1.263 . S
O785 Co782 1.970 . S
O785 C784 1.258 . S
O786 Co783 1.966 . S
O786 C784 1.263 . S
C787 O788 1.235 . S
C787 O814 1.289 . S
O788 C787 1.235 . S
C789 C791 1.400 . S
C789 N792 1.351 . S
C789 C794 1.501 . S
C790 C791 1.387 . S
C790 N793 1.341 . S
C791 C789 1.400 . S
C791 C790 1.387 . S
N792 Co783 2.022 1_556 S
N792 C789 1.351 . S
N792 N793 1.365 . S
N793 C790 1.341 . S
N793 N792 1.365 . S
N793 H813 0.862 . S
C794 C789 1.501 . S
C794 H795 0.961 . S
C794 H796 0.961 . S
C794 H797 0.960 . S
H795 C794 0.961 . S
H796 C794 0.961 . S
H797 C794 0.960 . S
C798 N799 1.342 . S
C798 C802 1.401 . S
C798 C803 1.499 . S
N799 Co782 1.989 . S
N799 C798 1.342 . S
N799 N800 1.388 . S
N800 Co783 1.993 . S
N800 N799 1.388 . S
N800 C801 1.346 . S
C801 N800 1.346 . S
C801 C802 1.396 . S
C801 C811 1.510 1_554 S
C802 C798 1.401 . S
C802 C801 1.396 . S
C803 C798 1.499 . S
C803 H804 0.959 . S
C803 H805 0.960 . S
C803 H806 0.961 . S
H804 C803 0.959 . S
H805 C803 0.960 . S
H806 C803 0.961 . S
O807 Co782 1.967 . S
O807 C815 1.258 . S
O808 Co783 1.941 . S
O808 C815 1.266 . S
H809 C811 0.959 . S
H810 C811 0.961 . S
C811 C801 1.510 1_556 S
C811 H809 0.959 . S
C811 H810 0.961 . S
C811 H812 0.960 . S
H812 C811 0.960 . S
H813 N793 0.862 . S
O814 Co782 1.920 . S
O814 C787 1.289 . S
C815 O807 1.258 . S
C815 O808 1.266 . S
Co816 O819 1.970 . S
Co816 N833 1.989 . S
Co816 O841 1.967 . S
Co816 O848 1.920 . S
Co817 O820 1.966 . S
Co817 N826 2.022 . S
Co817 N834 1.993 . S
Co817 O842 1.941 . S
C818 O819 1.258 . S
C818 O820 1.263 . S
O819 Co816 1.970 . S
O819 C818 1.258 . S
O820 Co817 1.966 . S
O820 C818 1.263 . S
C821 O822 1.235 . S
C821 O848 1.289 . S
O822 C821 1.235 . S
C823 C825 1.400 . S
C823 N826 1.351 . S
C823 C828 1.501 . S
C824 C825 1.387 . S
C824 N827 1.341 . S
C825 C823 1.400 . S
C825 C824 1.387 . S
N826 Co817 2.022 . S
N826 C823 1.351 . S
N826 N827 1.365 . S
N827 C824 1.341 . S
N827 N826 1.365 . S
N827 H847 0.862 . S
C828 C823 1.501 . S
C828 H829 0.961 . S
C828 H830 0.961 . S
C828 H831 0.960 . S
H829 C828 0.961 . S
H830 C828 0.961 . S
H831 C828 0.960 . S
C832 N833 1.342 . S
C832 C836 1.401 . S
C832 C837 1.499 . S
N833 Co816 1.989 . S
N833 C832 1.342 . S
N833 N834 1.388 . S
N834 Co817 1.993 . S
N834 N833 1.388 . S
N834 C835 1.346 . S
C835 N834 1.346 . S
C835 C836 1.396 . S
C835 C845 1.510 . S
C836 C832 1.401 . S
C836 C835 1.396 . S
C837 C832 1.499 . S
C837 H838 0.959 . S
C837 H839 0.960 . S
C837 H840 0.961 . S
H838 C837 0.959 . S
H839 C837 0.960 . S
H840 C837 0.961 . S
O841 Co816 1.967 . S
O841 C849 1.258 . S
O842 Co817 1.941 . S
O842 C849 1.266 . S
H843 C845 0.959 . S
H844 C845 0.961 . S
C845 C835 1.510 . S
C845 H843 0.959 . S
C845 H844 0.961 . S
C845 H846 0.960 . S
H846 C845 0.960 . S
H847 N827 0.862 . S
O848 Co816 1.920 . S
O848 C821 1.289 . S
C849 O841 1.258 . S
C849 O842 1.266 . S
Co850 O853 1.970 . S
Co850 N867 1.989 . S
Co850 O875 1.967 . S
Co850 O882 1.920 . S
Co851 O854 1.966 . S
Co851 N860 2.022 1_554 S
Co851 N868 1.993 . S
Co851 O876 1.941 . S
C852 O853 1.258 . S
C852 O854 1.263 . S
O853 Co850 1.970 . S
O853 C852 1.258 . S
O854 Co851 1.966 . S
O854 C852 1.263 . S
C855 O856 1.235 . S
C855 O882 1.289 . S
O856 C855 1.235 . S
C857 C859 1.400 . S
C857 N860 1.351 . S
C857 C862 1.501 . S
C858 C859 1.387 . S
C858 N861 1.341 . S
C859 C857 1.400 . S
C859 C858 1.387 . S
N860 Co851 2.022 1_556 S
N860 C857 1.351 . S
N860 N861 1.365 . S
N861 C858 1.341 . S
N861 N860 1.365 . S
N861 H881 0.862 . S
C862 C857 1.501 . S
C862 H863 0.961 . S
C862 H864 0.961 . S
C862 H865 0.960 . S
H863 C862 0.961 . S
H864 C862 0.961 . S
H865 C862 0.960 . S
C866 N867 1.342 . S
C866 C870 1.401 . S
C866 C871 1.499 . S
N867 Co850 1.989 . S
N867 C866 1.342 . S
N867 N868 1.388 . S
N868 Co851 1.993 . S
N868 N867 1.388 . S
N868 C869 1.346 . S
C869 N868 1.346 . S
C869 C870 1.396 . S
C869 C879 1.510 1_554 S
C870 C866 1.401 . S
C870 C869 1.396 . S
C871 C866 1.499 . S
C871 H872 0.959 . S
C871 H873 0.960 . S
C871 H874 0.961 . S
H872 C871 0.959 . S
H873 C871 0.960 . S
H874 C871 0.961 . S
O875 Co850 1.967 . S
O875 C883 1.258 . S
O876 Co851 1.941 . S
O876 C883 1.266 . S
H877 C879 0.959 . S
H878 C879 0.961 . S
C879 C869 1.510 1_556 S
C879 H877 0.959 . S
C879 H878 0.961 . S
C879 H880 0.960 . S
H880 C879 0.960 . S
H881 N861 0.862 . S
O882 Co850 1.920 . S
O882 C855 1.289 . S
C883 O875 1.258 . S
C883 O876 1.266 . S
Co884 O887 1.970 1_554 S
Co884 N901 1.989 1_554 S
Co884 O909 1.967 . S
Co884 O916 1.920 . S
Co885 O888 1.966 . S
Co885 N894 2.022 . S
Co885 N902 1.993 . S
Co885 O910 1.941 . S
C886 O887 1.258 . S
C886 O888 1.263 . S
O887 Co884 1.970 1_556 S
O887 C886 1.258 . S
O888 Co885 1.966 . S
O888 C886 1.263 . S
C889 O890 1.235 . S
C889 O916 1.289 . S
O890 C889 1.235 . S
C891 C893 1.400 . S
C891 N894 1.351 . S
C891 C896 1.501 . S
C892 C893 1.387 . S
C892 N895 1.341 . S
C893 C891 1.400 . S
C893 C892 1.387 . S
N894 Co885 2.022 . S
N894 C891 1.351 . S
N894 N895 1.365 . S
N895 C892 1.341 . S
N895 N894 1.365 . S
N895 H915 0.862 . S
C896 C891 1.501 . S
C896 H897 0.961 . S
C896 H898 0.961 . S
C896 H899 0.960 . S
H897 C896 0.961 . S
H898 C896 0.961 . S
H899 C896 0.960 . S
C900 N901 1.342 . S
C900 C904 1.401 . S
C900 C905 1.499 1_556 S
N901 Co884 1.989 1_556 S
N901 C900 1.342 . S
N901 N902 1.388 . S
N902 Co885 1.993 . S
N902 N901 1.388 . S
N902 C903 1.346 . S
C903 N902 1.346 . S
C903 C904 1.396 . S
C903 C913 1.510 . S
C904 C900 1.401 . S
C904 C903 1.396 . S
C905 C900 1.499 1_554 S
C905 H906 0.959 . S
C905 H907 0.960 . S
C905 H908 0.961 . S
H906 C905 0.959 . S
H907 C905 0.960 . S
H908 C905 0.961 . S
O909 Co884 1.967 . S
O909 C917 1.258 1_554 S
O910 Co885 1.941 . S
O910 C917 1.266 . S
H911 C913 0.959 . S
H912 C913 0.961 . S
C913 C903 1.510 . S
C913 H911 0.959 . S
C913 H912 0.961 . S
C913 H914 0.960 . S
H914 C913 0.960 . S
H915 N895 0.862 . S
O916 Co884 1.920 . S
O916 C889 1.289 . S
C917 O909 1.258 1_556 S
C917 O910 1.266 . S
Co918 O921 1.970 . S
Co918 N935 1.989 . S
Co918 O943 1.967 . S
Co918 O950 1.920 . S
Co919 O922 1.966 . S
Co919 N928 2.022 . S
Co919 N936 1.993 . S
Co919 O944 1.941 . S
C920 O921 1.258 . S
C920 O922 1.263 . S
O921 Co918 1.970 . S
O921 C920 1.258 . S
O922 Co919 1.966 . S
O922 C920 1.263 . S
C923 O924 1.235 . S
C923 O950 1.289 . S
O924 C923 1.235 . S
C925 C927 1.400 . S
C925 N928 1.351 . S
C925 C930 1.501 . S
C926 C927 1.387 . S
C926 N929 1.341 . S
C927 C925 1.400 . S
C927 C926 1.387 . S
N928 Co919 2.022 . S
N928 C925 1.351 . S
N928 N929 1.365 . S
N929 C926 1.341 . S
N929 N928 1.365 . S
N929 H949 0.862 . S
C930 C925 1.501 . S
C930 H931 0.961 . S
C930 H932 0.961 . S
C930 H933 0.960 . S
H931 C930 0.961 . S
H932 C930 0.961 . S
H933 C930 0.960 . S
C934 N935 1.342 . S
C934 C938 1.401 . S
C934 C939 1.499 . S
N935 Co918 1.989 . S
N935 C934 1.342 . S
N935 N936 1.388 . S
N936 Co919 1.993 . S
N936 N935 1.388 . S
N936 C937 1.346 . S
C937 N936 1.346 . S
C937 C938 1.396 . S
C937 C947 1.510 . S
C938 C934 1.401 . S
C938 C937 1.396 . S
C939 C934 1.499 . S
C939 H940 0.959 . S
C939 H941 0.960 . S
C939 H942 0.961 . S
H940 C939 0.959 . S
H941 C939 0.960 . S
H942 C939 0.961 . S
O943 Co918 1.967 . S
O943 C951 1.258 . S
O944 Co919 1.941 . S
O944 C951 1.266 . S
H945 C947 0.959 . S
H946 C947 0.961 . S
C947 C937 1.510 . S
C947 H945 0.959 . S
C947 H946 0.961 . S
C947 H948 0.960 . S
H948 C947 0.960 . S
H949 N929 0.862 . S
O950 Co918 1.920 . S
O950 C923 1.289 . S
C951 O943 1.258 . S
C951 O944 1.266 . S
Co952 O955 1.970 . S
Co952 N969 1.989 . S
Co952 O977 1.967 . S
Co952 O984 1.920 . S
Co953 O956 1.966 . S
Co953 N962 2.022 . S
Co953 N970 1.993 . S
Co953 O978 1.941 . S
C954 O955 1.258 . S
C954 O956 1.263 . S
O955 Co952 1.970 . S
O955 C954 1.258 . S
O956 Co953 1.966 . S
O956 C954 1.263 . S
C957 O958 1.235 . S
C957 O984 1.289 . S
O958 C957 1.235 . S
C959 C961 1.400 . S
C959 N962 1.351 . S
C959 C964 1.501 . S
C960 C961 1.387 . S
C960 N963 1.341 . S
C961 C959 1.400 . S
C961 C960 1.387 . S
N962 Co953 2.022 . S
N962 C959 1.351 . S
N962 N963 1.365 . S
N963 C960 1.341 . S
N963 N962 1.365 . S
N963 H983 0.862 . S
C964 C959 1.501 . S
C964 H965 0.961 . S
C964 H966 0.961 . S
C964 H967 0.960 . S
H965 C964 0.961 . S
H966 C964 0.961 . S
H967 C964 0.960 . S
C968 N969 1.342 . S
C968 C972 1.401 . S
C968 C973 1.499 . S
N969 Co952 1.989 . S
N969 C968 1.342 . S
N969 N970 1.388 . S
N970 Co953 1.993 . S
N970 N969 1.388 . S
N970 C971 1.346 . S
C971 N970 1.346 . S
C971 C972 1.396 . S
C971 C981 1.510 . S
C972 C968 1.401 . S
C972 C971 1.396 . S
C973 C968 1.499 . S
C973 H974 0.959 . S
C973 H975 0.960 . S
C973 H976 0.961 . S
H974 C973 0.959 . S
H975 C973 0.960 . S
H976 C973 0.961 . S
O977 Co952 1.967 . S
O977 C985 1.258 . S
O978 Co953 1.941 . S
O978 C985 1.266 . S
H979 C981 0.959 . S
H980 C981 0.961 . S
C981 C971 1.510 . S
C981 H979 0.959 . S
C981 H980 0.961 . S
C981 H982 0.960 . S
H982 C981 0.960 . S
H983 N963 0.862 . S
O984 Co952 1.920 . S
O984 C957 1.289 . S
C985 O977 1.258 . S
C985 O978 1.266 . S
Co986 O989 1.970 . S
Co986 N1003 1.989 . S
Co986 O1011 1.967 . S
Co986 O1018 1.920 . S
Co987 O990 1.966 . S
Co987 N996 2.022 . S
Co987 N1004 1.993 . S
Co987 O1012 1.941 . S
C988 O989 1.258 . S
C988 O990 1.263 . S
O989 Co986 1.970 . S
O989 C988 1.258 . S
O990 Co987 1.966 . S
O990 C988 1.263 . S
C991 O992 1.235 . S
C991 O1018 1.289 . S
O992 C991 1.235 . S
C993 C995 1.400 . S
C993 N996 1.351 . S
C993 C998 1.501 . S
C994 C995 1.387 . S
C994 N997 1.341 . S
C995 C993 1.400 . S
C995 C994 1.387 . S
N996 Co987 2.022 . S
N996 C993 1.351 . S
N996 N997 1.365 . S
N997 C994 1.341 . S
N997 N996 1.365 . S
N997 H1017 0.862 . S
C998 C993 1.501 . S
C998 H999 0.961 . S
C998 H1000 0.961 . S
C998 H1001 0.960 . S
H999 C998 0.961 . S
H1000 C998 0.961 . S
H1001 C998 0.960 . S
C1002 N1003 1.342 . S
C1002 C1006 1.401 . S
C1002 C1007 1.499 . S
N1003 Co986 1.989 . S
N1003 C1002 1.342 . S
N1003 N1004 1.388 . S
N1004 Co987 1.993 . S
N1004 N1003 1.388 . S
N1004 C1005 1.346 . S
C1005 N1004 1.346 . S
C1005 C1006 1.396 . S
C1005 C1015 1.510 . S
C1006 C1002 1.401 . S
C1006 C1005 1.396 . S
C1007 C1002 1.499 . S
C1007 H1008 0.959 . S
C1007 H1009 0.960 . S
C1007 H1010 0.961 . S
H1008 C1007 0.959 . S
H1009 C1007 0.960 . S
H1010 C1007 0.961 . S
O1011 Co986 1.967 . S
O1011 C1019 1.258 . S
O1012 Co987 1.941 . S
O1012 C1019 1.266 . S
H1013 C1015 0.959 . S
H1014 C1015 0.961 . S
C1015 C1005 1.510 . S
C1015 H1013 0.959 . S
C1015 H1014 0.961 . S
C1015 H1016 0.960 . S
H1016 C1015 0.960 . S
H1017 N997 0.862 . S
O1018 Co986 1.920 . S
O1018 C991 1.289 . S
C1019 O1011 1.258 . S
C1019 O1012 1.266 . S
Co1020 O1023 1.970 1_556 S
Co1020 N1037 1.989 1_556 S
Co1020 O1045 1.967 . S
Co1020 O1052 1.920 . S
Co1021 O1024 1.966 . S
Co1021 N1030 2.022 . S
Co1021 N1038 1.993 . S
Co1021 O1046 1.941 . S
C1022 O1023 1.258 . S
C1022 O1024 1.263 . S
O1023 Co1020 1.970 1_554 S
O1023 C1022 1.258 . S
O1024 Co1021 1.966 . S
O1024 C1022 1.263 . S
C1025 O1026 1.235 . S
C1025 O1052 1.289 . S
O1026 C1025 1.235 . S
C1027 C1029 1.400 . S
C1027 N1030 1.351 . S
C1027 C1032 1.501 . S
C1028 C1029 1.387 . S
C1028 N1031 1.341 . S
C1029 C1027 1.400 . S
C1029 C1028 1.387 . S
N1030 Co1021 2.022 . S
N1030 C1027 1.351 . S
N1030 N1031 1.365 . S
N1031 C1028 1.341 . S
N1031 N1030 1.365 . S
N1031 H1051 0.862 . S
C1032 C1027 1.501 . S
C1032 H1033 0.961 . S
C1032 H1034 0.961 . S
C1032 H1035 0.960 . S
H1033 C1032 0.961 . S
H1034 C1032 0.961 . S
H1035 C1032 0.960 . S
C1036 N1037 1.342 . S
C1036 C1040 1.401 . S
C1036 C1041 1.499 1_554 S
N1037 Co1020 1.989 1_554 S
N1037 C1036 1.342 . S
N1037 N1038 1.388 . S
N1038 Co1021 1.993 . S
N1038 N1037 1.388 . S
N1038 C1039 1.346 . S
C1039 N1038 1.346 . S
C1039 C1040 1.396 . S
C1039 C1049 1.510 . S
C1040 C1036 1.401 . S
C1040 C1039 1.396 . S
C1041 C1036 1.499 1_556 S
C1041 H1042 0.959 . S
C1041 H1043 0.960 . S
C1041 H1044 0.961 . S
H1042 C1041 0.959 . S
H1043 C1041 0.960 . S
H1044 C1041 0.961 . S
O1045 Co1020 1.967 . S
O1045 C1053 1.258 1_556 S
O1046 Co1021 1.941 . S
O1046 C1053 1.266 . S
H1047 C1049 0.959 . S
H1048 C1049 0.961 . S
C1049 C1039 1.510 . S
C1049 H1047 0.959 . S
C1049 H1048 0.961 . S
C1049 H1050 0.960 . S
H1050 C1049 0.960 . S
H1051 N1031 0.862 . S
O1052 Co1020 1.920 . S
O1052 C1025 1.289 . S
C1053 O1045 1.258 1_554 S
C1053 O1046 1.266 . S
Co1054 O1057 1.970 . S
Co1054 N1071 1.989 . S
Co1054 O1079 1.967 . S
Co1054 O1086 1.920 . S
Co1055 O1058 1.966 . S
Co1055 N1064 2.022 1_556 S
Co1055 N1072 1.993 . S
Co1055 O1080 1.941 . S
C1056 O1057 1.258 . S
C1056 O1058 1.263 . S
O1057 Co1054 1.970 . S
O1057 C1056 1.258 . S
O1058 Co1055 1.966 . S
O1058 C1056 1.263 . S
C1059 O1060 1.235 . S
C1059 O1086 1.289 . S
O1060 C1059 1.235 . S
C1061 C1063 1.400 . S
C1061 N1064 1.351 . S
C1061 C1066 1.501 . S
C1062 C1063 1.387 . S
C1062 N1065 1.341 . S
C1063 C1061 1.400 . S
C1063 C1062 1.387 . S
N1064 Co1055 2.022 1_554 S
N1064 C1061 1.351 . S
N1064 N1065 1.365 . S
N1065 C1062 1.341 . S
N1065 N1064 1.365 . S
N1065 H1085 0.862 . S
C1066 C1061 1.501 . S
C1066 H1067 0.961 . S
C1066 H1068 0.961 . S
C1066 H1069 0.960 . S
H1067 C1066 0.961 . S
H1068 C1066 0.961 . S
H1069 C1066 0.960 . S
C1070 N1071 1.342 . S
C1070 C1074 1.401 . S
C1070 C1075 1.499 . S
N1071 Co1054 1.989 . S
N1071 C1070 1.342 . S
N1071 N1072 1.388 . S
N1072 Co1055 1.993 . S
N1072 N1071 1.388 . S
N1072 C1073 1.346 . S
C1073 N1072 1.346 . S
C1073 C1074 1.396 . S
C1073 C1083 1.510 1_556 S
C1074 C1070 1.401 . S
C1074 C1073 1.396 . S
C1075 C1070 1.499 . S
C1075 H1076 0.959 . S
C1075 H1077 0.960 . S
C1075 H1078 0.961 . S
H1076 C1075 0.959 . S
H1077 C1075 0.960 . S
H1078 C1075 0.961 . S
O1079 Co1054 1.967 . S
O1079 C1087 1.258 . S
O1080 Co1055 1.941 . S
O1080 C1087 1.266 . S
H1081 C1083 0.959 . S
H1082 C1083 0.961 . S
C1083 C1073 1.510 1_554 S
C1083 H1081 0.959 . S
C1083 H1082 0.961 . S
C1083 H1084 0.960 . S
H1084 C1083 0.960 . S
H1085 N1065 0.862 . S
O1086 Co1054 1.920 . S
O1086 C1059 1.289 . S
C1087 O1079 1.258 . S
C1087 O1080 1.266 . S
C1088 C1089 1.369 . S
C1088 C1090 1.419 . S
C1088 H1092 0.930 . S
C1089 C1088 1.369 . S
C1089 C1098 1.429 . S
C1090 C1088 1.419 . S
C1090 C1091 1.363 . S
C1090 H1093 0.929 . S
C1091 C1090 1.363 . S
C1091 C1097 1.428 . S
H1092 C1088 0.930 . S
H1093 C1090 0.929 . S
S1094 N1095 1.613 . S
S1094 N1096 1.610 . S
N1095 S1094 1.613 . S
N1095 C1098 1.350 . S
N1096 S1094 1.610 . S
N1096 C1097 1.351 . S
C1097 C1091 1.428 . S
C1097 N1096 1.351 . S
C1097 C1098 1.434 . S
C1098 C1089 1.429 . S
C1098 N1095 1.350 . S
C1098 C1097 1.434 . S
C1099 C1100 1.369 . S
C1099 C1101 1.419 . S
C1099 H1103 0.930 . S
C1100 C1099 1.369 . S
C1100 C1109 1.429 . S
C1101 C1099 1.419 . S
C1101 C1102 1.363 . S
C1101 H1104 0.929 . S
C1102 C1101 1.363 . S
C1102 C1108 1.428 . S
H1103 C1099 0.930 . S
H1104 C1101 0.929 . S
S1105 N1106 1.613 . S
S1105 N1107 1.610 . S
N1106 S1105 1.613 . S
N1106 C1109 1.350 . S
N1107 S1105 1.610 . S
N1107 C1108 1.351 . S
C1108 C1102 1.428 . S
C1108 N1107 1.351 . S
C1108 C1109 1.434 . S
C1109 C1100 1.429 . S
C1109 N1106 1.350 . S
C1109 C1108 1.434 . S
C1110 C1111 1.369 . S
C1110 C1112 1.419 . S
C1110 H1114 0.930 . S
C1111 C1110 1.369 . S
C1111 C1120 1.429 . S
C1112 C1110 1.419 . S
C1112 C1113 1.363 . S
C1112 H1115 0.929 . S
C1113 C1112 1.363 . S
C1113 C1119 1.428 . S
H1114 C1110 0.930 . S
H1115 C1112 0.929 . S
S1116 N1117 1.613 . S
S1116 N1118 1.610 . S
N1117 S1116 1.613 . S
N1117 C1120 1.350 . S
N1118 S1116 1.610 . S
N1118 C1119 1.351 . S
C1119 C1113 1.428 . S
C1119 N1118 1.351 . S
C1119 C1120 1.434 . S
C1120 C1111 1.429 . S
C1120 N1117 1.350 . S
C1120 C1119 1.434 . S
C1121 C1122 1.369 . S
C1121 C1123 1.419 . S
C1121 H1125 0.930 . S
C1122 C1121 1.369 . S
C1122 C1131 1.429 . S
C1123 C1121 1.419 . S
C1123 C1124 1.363 . S
C1123 H1126 0.929 . S
C1124 C1123 1.363 . S
C1124 C1130 1.428 . S
H1125 C1121 0.930 . S
H1126 C1123 0.929 . S
S1127 N1128 1.613 . S
S1127 N1129 1.610 . S
N1128 S1127 1.613 . S
N1128 C1131 1.350 . S
N1129 S1127 1.610 . S
N1129 C1130 1.351 . S
C1130 C1124 1.428 . S
C1130 N1129 1.351 . S
C1130 C1131 1.434 . S
C1131 C1122 1.429 . S
C1131 N1128 1.350 . S
C1131 C1130 1.434 . S
C1132 C1133 1.369 . S
C1132 C1134 1.419 . S
C1132 H1136 0.930 . S
C1133 C1132 1.369 . S
C1133 C1142 1.429 . S
C1134 C1132 1.419 . S
C1134 C1135 1.363 . S
C1134 H1137 0.929 . S
C1135 C1134 1.363 . S
C1135 C1141 1.428 . S
H1136 C1132 0.930 . S
H1137 C1134 0.929 . S
S1138 N1139 1.613 . S
S1138 N1140 1.610 . S
N1139 S1138 1.613 . S
N1139 C1142 1.350 . S
N1140 S1138 1.610 . S
N1140 C1141 1.351 . S
C1141 C1135 1.428 . S
C1141 N1140 1.351 . S
C1141 C1142 1.434 . S
C1142 C1133 1.429 . S
C1142 N1139 1.350 . S
C1142 C1141 1.434 . S
C1143 C1144 1.369 . S
C1143 C1145 1.419 . S
C1143 H1147 0.930 . S
C1144 C1143 1.369 . S
C1144 C1153 1.429 . S
C1145 C1143 1.419 . S
C1145 C1146 1.363 . S
C1145 H1148 0.929 . S
C1146 C1145 1.363 . S
C1146 C1152 1.428 . S
H1147 C1143 0.930 . S
H1148 C1145 0.929 . S
S1149 N1150 1.613 . S
S1149 N1151 1.610 . S
N1150 S1149 1.613 . S
N1150 C1153 1.350 . S
N1151 S1149 1.610 . S
N1151 C1152 1.351 . S
C1152 C1146 1.428 . S
C1152 N1151 1.351 . S
C1152 C1153 1.434 . S
C1153 C1144 1.429 . S
C1153 N1150 1.350 . S
C1153 C1152 1.434 . S
C1154 C1155 1.369 . S
C1154 C1156 1.419 . S
C1154 H1158 0.930 . S
C1155 C1154 1.369 . S
C1155 C1164 1.429 . S
C1156 C1154 1.419 . S
C1156 C1157 1.363 . S
C1156 H1159 0.929 . S
C1157 C1156 1.363 . S
C1157 C1163 1.428 . S
H1158 C1154 0.930 . S
H1159 C1156 0.929 . S
S1160 N1161 1.613 . S
S1160 N1162 1.610 . S
N1161 S1160 1.613 . S
N1161 C1164 1.350 . S
N1162 S1160 1.610 . S
N1162 C1163 1.351 . S
C1163 C1157 1.428 . S
C1163 N1162 1.351 . S
C1163 C1164 1.434 . S
C1164 C1155 1.429 . S
C1164 N1161 1.350 . S
C1164 C1163 1.434 . S
C1165 C1166 1.369 . S
C1165 C1167 1.419 . S
C1165 H1169 0.930 . S
C1166 C1165 1.369 . S
C1166 C1175 1.429 . S
C1167 C1165 1.419 . S
C1167 C1168 1.363 . S
C1167 H1170 0.929 . S
C1168 C1167 1.363 . S
C1168 C1174 1.428 . S
H1169 C1165 0.930 . S
H1170 C1167 0.929 . S
S1171 N1172 1.613 . S
S1171 N1173 1.610 . S
N1172 S1171 1.613 . S
N1172 C1175 1.350 . S
N1173 S1171 1.610 . S
N1173 C1174 1.351 . S
C1174 C1168 1.428 . S
C1174 N1173 1.351 . S
C1174 C1175 1.434 . S
C1175 C1166 1.429 . S
C1175 N1172 1.350 . S
C1175 C1174 1.434 . S
C1176 C1177 1.369 . S
C1176 C1178 1.419 . S
C1176 H1180 0.930 . S
C1177 C1176 1.369 . S
C1177 C1186 1.429 . S
C1178 C1176 1.419 . S
C1178 C1179 1.363 . S
C1178 H1181 0.929 . S
C1179 C1178 1.363 . S
C1179 C1185 1.428 . S
H1180 C1176 0.930 . S
H1181 C1178 0.929 . S
S1182 N1183 1.613 . S
S1182 N1184 1.610 . S
N1183 S1182 1.613 . S
N1183 C1186 1.350 . S
N1184 S1182 1.610 . S
N1184 C1185 1.351 . S
C1185 C1179 1.428 . S
C1185 N1184 1.351 . S
C1185 C1186 1.434 . S
C1186 C1177 1.429 . S
C1186 N1183 1.350 . S
C1186 C1185 1.434 . S
C1187 C1188 1.369 . S
C1187 C1189 1.419 . S
C1187 H1191 0.930 . S
C1188 C1187 1.369 . S
C1188 C1197 1.429 . S
C1189 C1187 1.419 . S
C1189 C1190 1.363 . S
C1189 H1192 0.929 . S
C1190 C1189 1.363 . S
C1190 C1196 1.428 . S
H1191 C1187 0.930 . S
H1192 C1189 0.929 . S
S1193 N1194 1.613 . S
S1193 N1195 1.610 . S
N1194 S1193 1.613 . S
N1194 C1197 1.350 . S
N1195 S1193 1.610 . S
N1195 C1196 1.351 . S
C1196 C1190 1.428 . S
C1196 N1195 1.351 . S
C1196 C1197 1.434 . S
C1197 C1188 1.429 . S
C1197 N1194 1.350 . S
C1197 C1196 1.434 . S
C1198 C1199 1.369 . S
C1198 C1200 1.419 . S
C1198 H1202 0.930 . S
C1199 C1198 1.369 . S
C1199 C1208 1.429 . S
C1200 C1198 1.419 . S
C1200 C1201 1.363 . S
C1200 H1203 0.929 . S
C1201 C1200 1.363 . S
C1201 C1207 1.428 . S
H1202 C1198 0.930 . S
H1203 C1200 0.929 . S
S1204 N1205 1.613 . S
S1204 N1206 1.610 . S
N1205 S1204 1.613 . S
N1205 C1208 1.350 . S
N1206 S1204 1.610 . S
N1206 C1207 1.351 . S
C1207 C1201 1.428 . S
C1207 N1206 1.351 . S
C1207 C1208 1.434 . S
C1208 C1199 1.429 . S
C1208 N1205 1.350 . S
C1208 C1207 1.434 . S
C1209 C1210 1.369 . S
C1209 C1211 1.419 . S
C1209 H1213 0.930 . S
C1210 C1209 1.369 . S
C1210 C1219 1.429 . S
C1211 C1209 1.419 . S
C1211 C1212 1.363 . S
C1211 H1214 0.929 . S
C1212 C1211 1.363 . S
C1212 C1218 1.428 . S
H1213 C1209 0.930 . S
H1214 C1211 0.929 . S
S1215 N1216 1.613 . S
S1215 N1217 1.610 . S
N1216 S1215 1.613 . S
N1216 C1219 1.350 . S
N1217 S1215 1.610 . S
N1217 C1218 1.351 . S
C1218 C1212 1.428 . S
C1218 N1217 1.351 . S
C1218 C1219 1.434 . S
C1219 C1210 1.429 . S
C1219 N1216 1.350 . S
C1219 C1218 1.434 . S
C1220 C1221 1.369 . S
C1220 C1222 1.419 . S
C1220 H1224 0.930 . S
C1221 C1220 1.369 . S
C1221 C1230 1.429 . S
C1222 C1220 1.419 . S
C1222 C1223 1.363 . S
C1222 H1225 0.929 . S
C1223 C1222 1.363 . S
C1223 C1229 1.428 . S
H1224 C1220 0.930 . S
H1225 C1222 0.929 . S
S1226 N1227 1.613 . S
S1226 N1228 1.610 . S
N1227 S1226 1.613 . S
N1227 C1230 1.350 . S
N1228 S1226 1.610 . S
N1228 C1229 1.351 . S
C1229 C1223 1.428 . S
C1229 N1228 1.351 . S
C1229 C1230 1.434 . S
C1230 C1221 1.429 . S
C1230 N1227 1.350 . S
C1230 C1229 1.434 . S
C1231 C1232 1.369 . S
C1231 C1233 1.419 . S
C1231 H1235 0.930 . S
C1232 C1231 1.369 . S
C1232 C1241 1.429 . S
C1233 C1231 1.419 . S
C1233 C1234 1.363 . S
C1233 H1236 0.929 . S
C1234 C1233 1.363 . S
C1234 C1240 1.428 . S
H1235 C1231 0.930 . S
H1236 C1233 0.929 . S
S1237 N1238 1.613 . S
S1237 N1239 1.610 . S
N1238 S1237 1.613 . S
N1238 C1241 1.350 . S
N1239 S1237 1.610 . S
N1239 C1240 1.351 . S
C1240 C1234 1.428 . S
C1240 N1239 1.351 . S
C1240 C1241 1.434 . S
C1241 C1232 1.429 . S
C1241 N1238 1.350 . S
C1241 C1240 1.434 . S
C1242 C1243 1.369 . S
C1242 C1244 1.419 . S
C1242 H1246 0.930 . S
C1243 C1242 1.369 . S
C1243 C1252 1.429 . S
C1244 C1242 1.419 . S
C1244 C1245 1.363 . S
C1244 H1247 0.929 . S
C1245 C1244 1.363 . S
C1245 C1251 1.428 . S
H1246 C1242 0.930 . S
H1247 C1244 0.929 . S
S1248 N1249 1.613 . S
S1248 N1250 1.610 . S
N1249 S1248 1.613 . S
N1249 C1252 1.350 . S
N1250 S1248 1.610 . S
N1250 C1251 1.351 . S
C1251 C1245 1.428 . S
C1251 N1250 1.351 . S
C1251 C1252 1.434 . S
C1252 C1243 1.429 . S
C1252 N1249 1.350 . S
C1252 C1251 1.434 . S
C1253 C1254 1.369 . S
C1253 C1255 1.419 . S
C1253 H1257 0.930 . S
C1254 C1253 1.369 . S
C1254 C1263 1.429 . S
C1255 C1253 1.419 . S
C1255 C1256 1.363 . S
C1255 H1258 0.929 . S
C1256 C1255 1.363 . S
C1256 C1262 1.428 . S
H1257 C1253 0.930 . S
H1258 C1255 0.929 . S
S1259 N1260 1.613 . S
S1259 N1261 1.610 . S
N1260 S1259 1.613 . S
N1260 C1263 1.350 . S
N1261 S1259 1.610 . S
N1261 C1262 1.351 . S
C1262 C1256 1.428 . S
C1262 N1261 1.351 . S
C1262 C1263 1.434 . S
C1263 C1254 1.429 . S
C1263 N1260 1.350 . S
C1263 C1262 1.434 . S
C1264 C1265 1.369 . S
C1264 C1266 1.419 . S
C1264 H1268 0.930 . S
C1265 C1264 1.369 . S
C1265 C1274 1.429 . S
C1266 C1264 1.419 . S
C1266 C1267 1.363 . S
C1266 H1269 0.929 . S
C1267 C1266 1.363 . S
C1267 C1273 1.428 . S
H1268 C1264 0.930 . S
H1269 C1266 0.929 . S
S1270 N1271 1.613 . S
S1270 N1272 1.610 . S
N1271 S1270 1.613 . S
N1271 C1274 1.350 . S
N1272 S1270 1.610 . S
N1272 C1273 1.351 . S
C1273 C1267 1.428 . S
C1273 N1272 1.351 . S
C1273 C1274 1.434 . S
C1274 C1265 1.429 . S
C1274 N1271 1.350 . S
C1274 C1273 1.434 . S
C1275 C1276 1.369 . S
C1275 C1277 1.419 . S
C1275 H1279 0.930 . S
C1276 C1275 1.369 . S
C1276 C1285 1.429 . S
C1277 C1275 1.419 . S
C1277 C1278 1.363 . S
C1277 H1280 0.929 . S
C1278 C1277 1.363 . S
C1278 C1284 1.428 . S
H1279 C1275 0.930 . S
H1280 C1277 0.929 . S
S1281 N1282 1.613 . S
S1281 N1283 1.610 . S
N1282 S1281 1.613 . S
N1282 C1285 1.350 . S
N1283 S1281 1.610 . S
N1283 C1284 1.351 . S
C1284 C1278 1.428 . S
C1284 N1283 1.351 . S
C1284 C1285 1.434 . S
C1285 C1276 1.429 . S
C1285 N1282 1.350 . S
C1285 C1284 1.434 . S
C1286 C1287 1.369 . S
C1286 C1288 1.419 . S
C1286 H1290 0.930 . S
C1287 C1286 1.369 . S
C1287 C1296 1.429 . S
C1288 C1286 1.419 . S
C1288 C1289 1.363 . S
C1288 H1291 0.929 . S
C1289 C1288 1.363 . S
C1289 C1295 1.428 . S
H1290 C1286 0.930 . S
H1291 C1288 0.929 . S
S1292 N1293 1.613 . S
S1292 N1294 1.610 . S
N1293 S1292 1.613 . S
N1293 C1296 1.350 . S
N1294 S1292 1.610 . S
N1294 C1295 1.351 . S
C1295 C1289 1.428 . S
C1295 N1294 1.351 . S
C1295 C1296 1.434 . S
C1296 C1287 1.429 . S
C1296 N1293 1.350 . S
C1296 C1295 1.434 . S
C1297 C1298 1.369 . S
C1297 C1299 1.419 . S
C1297 H1301 0.930 . S
C1298 C1297 1.369 . S
C1298 C1307 1.429 . S
C1299 C1297 1.419 . S
C1299 C1300 1.363 . S
C1299 H1302 0.929 . S
C1300 C1299 1.363 . S
C1300 C1306 1.428 . S
H1301 C1297 0.930 . S
H1302 C1299 0.929 . S
S1303 N1304 1.613 . S
S1303 N1305 1.610 . S
N1304 S1303 1.613 . S
N1304 C1307 1.350 . S
N1305 S1303 1.610 . S
N1305 C1306 1.351 . S
C1306 C1300 1.428 . S
C1306 N1305 1.351 . S
C1306 C1307 1.434 . S
C1307 C1298 1.429 . S
C1307 N1304 1.350 . S
C1307 C1306 1.434 . S
C1308 C1309 1.369 . S
C1308 C1310 1.419 . S
C1308 H1312 0.930 . S
C1309 C1308 1.369 . S
C1309 C1318 1.429 . S
C1310 C1308 1.419 . S
C1310 C1311 1.363 . S
C1310 H1313 0.929 . S
C1311 C1310 1.363 . S
C1311 C1317 1.428 . S
H1312 C1308 0.930 . S
H1313 C1310 0.929 . S
S1314 N1315 1.613 . S
S1314 N1316 1.610 . S
N1315 S1314 1.613 . S
N1315 C1318 1.350 . S
N1316 S1314 1.610 . S
N1316 C1317 1.351 . S
C1317 C1311 1.428 . S
C1317 N1316 1.351 . S
C1317 C1318 1.434 . S
C1318 C1309 1.429 . S
C1318 N1315 1.350 . S
C1318 C1317 1.434 . S
C1319 C1320 1.369 . S
C1319 C1321 1.419 . S
C1319 H1323 0.930 . S
C1320 C1319 1.369 . S
C1320 C1329 1.429 . S
C1321 C1319 1.419 . S
C1321 C1322 1.363 . S
C1321 H1324 0.929 . S
C1322 C1321 1.363 . S
C1322 C1328 1.428 . S
H1323 C1319 0.930 . S
H1324 C1321 0.929 . S
S1325 N1326 1.613 . S
S1325 N1327 1.610 . S
N1326 S1325 1.613 . S
N1326 C1329 1.350 . S
N1327 S1325 1.610 . S
N1327 C1328 1.351 . S
C1328 C1322 1.428 . S
C1328 N1327 1.351 . S
C1328 C1329 1.434 . S
C1329 C1320 1.429 . S
C1329 N1326 1.350 . S
C1329 C1328 1.434 . S
C1330 C1331 1.369 . S
C1330 C1332 1.419 . S
C1330 H1334 0.930 . S
C1331 C1330 1.369 . S
C1331 C1340 1.429 . S
C1332 C1330 1.419 . S
C1332 C1333 1.363 . S
C1332 H1335 0.929 . S
C1333 C1332 1.363 . S
C1333 C1339 1.428 . S
H1334 C1330 0.930 . S
H1335 C1332 0.929 . S
S1336 N1337 1.613 . S
S1336 N1338 1.610 . S
N1337 S1336 1.613 . S
N1337 C1340 1.350 . S
N1338 S1336 1.610 . S
N1338 C1339 1.351 . S
C1339 C1333 1.428 . S
C1339 N1338 1.351 . S
C1339 C1340 1.434 . S
C1340 C1331 1.429 . S
C1340 N1337 1.350 . S
C1340 C1339 1.434 . S
C1341 C1342 1.369 . S
C1341 C1343 1.419 . S
C1341 H1345 0.930 . S
C1342 C1341 1.369 . S
C1342 C1351 1.429 . S
C1343 C1341 1.419 . S
C1343 C1344 1.363 . S
C1343 H1346 0.929 . S
C1344 C1343 1.363 . S
C1344 C1350 1.428 . S
H1345 C1341 0.930 . S
H1346 C1343 0.929 . S
S1347 N1348 1.613 . S
S1347 N1349 1.610 . S
N1348 S1347 1.613 . S
N1348 C1351 1.350 . S
N1349 S1347 1.610 . S
N1349 C1350 1.351 . S
C1350 C1344 1.428 . S
C1350 N1349 1.351 . S
C1350 C1351 1.434 . S
C1351 C1342 1.429 . S
C1351 N1348 1.350 . S
C1351 C1350 1.434 . S
C1352 C1353 1.369 . S
C1352 C1354 1.419 . S
C1352 H1356 0.930 . S
C1353 C1352 1.369 . S
C1353 C1362 1.429 . S
C1354 C1352 1.419 . S
C1354 C1355 1.363 . S
C1354 H1357 0.929 . S
C1355 C1354 1.363 . S
C1355 C1361 1.428 . S
H1356 C1352 0.930 . S
H1357 C1354 0.929 . S
S1358 N1359 1.613 . S
S1358 N1360 1.610 . S
N1359 S1358 1.613 . S
N1359 C1362 1.350 . S
N1360 S1358 1.610 . S
N1360 C1361 1.351 . S
C1361 C1355 1.428 . S
C1361 N1360 1.351 . S
C1361 C1362 1.434 . S
C1362 C1353 1.429 . S
C1362 N1359 1.350 . S
C1362 C1361 1.434 . S
C1363 C1364 1.369 . S
C1363 C1365 1.419 . S
C1363 H1367 0.930 . S
C1364 C1363 1.369 . S
C1364 C1373 1.429 . S
C1365 C1363 1.419 . S
C1365 C1366 1.363 . S
C1365 H1368 0.929 . S
C1366 C1365 1.363 . S
C1366 C1372 1.428 . S
H1367 C1363 0.930 . S
H1368 C1365 0.929 . S
S1369 N1370 1.613 . S
S1369 N1371 1.610 . S
N1370 S1369 1.613 . S
N1370 C1373 1.350 . S
N1371 S1369 1.610 . S
N1371 C1372 1.351 . S
C1372 C1366 1.428 . S
C1372 N1371 1.351 . S
C1372 C1373 1.434 . S
C1373 C1364 1.429 . S
C1373 N1370 1.350 . S
C1373 C1372 1.434 . S
C1374 C1375 1.369 . S
C1374 C1376 1.419 . S
C1374 H1378 0.930 . S
C1375 C1374 1.369 . S
C1375 C1384 1.429 . S
C1376 C1374 1.419 . S
C1376 C1377 1.363 . S
C1376 H1379 0.929 . S
C1377 C1376 1.363 . S
C1377 C1383 1.428 . S
H1378 C1374 0.930 . S
H1379 C1376 0.929 . S
S1380 N1381 1.613 . S
S1380 N1382 1.610 . S
N1381 S1380 1.613 . S
N1381 C1384 1.350 . S
N1382 S1380 1.610 . S
N1382 C1383 1.351 . S
C1383 C1377 1.428 . S
C1383 N1382 1.351 . S
C1383 C1384 1.434 . S
C1384 C1375 1.429 . S
C1384 N1381 1.350 . S
C1384 C1383 1.434 . S
C1385 C1386 1.369 . S
C1385 C1387 1.419 . S
C1385 H1389 0.930 . S
C1386 C1385 1.369 . S
C1386 C1395 1.429 . S
C1387 C1385 1.419 . S
C1387 C1388 1.363 . S
C1387 H1390 0.929 . S
C1388 C1387 1.363 . S
C1388 C1394 1.428 . S
H1389 C1385 0.930 . S
H1390 C1387 0.929 . S
S1391 N1392 1.613 . S
S1391 N1393 1.610 . S
N1392 S1391 1.613 . S
N1392 C1395 1.350 . S
N1393 S1391 1.610 . S
N1393 C1394 1.351 . S
C1394 C1388 1.428 . S
C1394 N1393 1.351 . S
C1394 C1395 1.434 . S
C1395 C1386 1.429 . S
C1395 N1392 1.350 . S
C1395 C1394 1.434 . S
C1396 C1397 1.369 . S
C1396 C1398 1.419 . S
C1396 H1400 0.930 . S
C1397 C1396 1.369 . S
C1397 C1406 1.429 . S
C1398 C1396 1.419 . S
C1398 C1399 1.363 . S
C1398 H1401 0.929 . S
C1399 C1398 1.363 . S
C1399 C1405 1.428 . S
H1400 C1396 0.930 . S
H1401 C1398 0.929 . S
S1402 N1403 1.613 . S
S1402 N1404 1.610 . S
N1403 S1402 1.613 . S
N1403 C1406 1.350 . S
N1404 S1402 1.610 . S
N1404 C1405 1.351 . S
C1405 C1399 1.428 . S
C1405 N1404 1.351 . S
C1405 C1406 1.434 . S
C1406 C1397 1.429 . S
C1406 N1403 1.350 . S
C1406 C1405 1.434 . S
C1407 C1408 1.369 . S
C1407 C1409 1.419 . S
C1407 H1411 0.930 . S
C1408 C1407 1.369 . S
C1408 C1417 1.429 . S
C1409 C1407 1.419 . S
C1409 C1410 1.363 . S
C1409 H1412 0.929 . S
C1410 C1409 1.363 . S
C1410 C1416 1.428 . S
H1411 C1407 0.930 . S
H1412 C1409 0.929 . S
S1413 N1414 1.613 . S
S1413 N1415 1.610 . S
N1414 S1413 1.613 . S
N1414 C1417 1.350 . S
N1415 S1413 1.610 . S
N1415 C1416 1.351 . S
C1416 C1410 1.428 . S
C1416 N1415 1.351 . S
C1416 C1417 1.434 . S
C1417 C1408 1.429 . S
C1417 N1414 1.350 . S
C1417 C1416 1.434 . S
C1418 C1419 1.369 . S
C1418 C1420 1.419 . S
C1418 H1422 0.930 . S
C1419 C1418 1.369 . S
C1419 C1428 1.429 . S
C1420 C1418 1.419 . S
C1420 C1421 1.363 . S
C1420 H1423 0.929 . S
C1421 C1420 1.363 . S
C1421 C1427 1.428 . S
H1422 C1418 0.930 . S
H1423 C1420 0.929 . S
S1424 N1425 1.613 . S
S1424 N1426 1.610 . S
N1425 S1424 1.613 . S
N1425 C1428 1.350 . S
N1426 S1424 1.610 . S
N1426 C1427 1.351 . S
C1427 C1421 1.428 . S
C1427 N1426 1.351 . S
C1427 C1428 1.434 . S
C1428 C1419 1.429 . S
C1428 N1425 1.350 . S
C1428 C1427 1.434 . S
C1429 C1430 1.369 . S
C1429 C1431 1.419 . S
C1429 H1433 0.930 . S
C1430 C1429 1.369 . S
C1430 C1439 1.429 . S
C1431 C1429 1.419 . S
C1431 C1432 1.363 . S
C1431 H1434 0.929 . S
C1432 C1431 1.363 . S
C1432 C1438 1.428 . S
H1433 C1429 0.930 . S
H1434 C1431 0.929 . S
S1435 N1436 1.613 . S
S1435 N1437 1.610 . S
N1436 S1435 1.613 . S
N1436 C1439 1.350 . S
N1437 S1435 1.610 . S
N1437 C1438 1.351 . S
C1438 C1432 1.428 . S
C1438 N1437 1.351 . S
C1438 C1439 1.434 . S
C1439 C1430 1.429 . S
C1439 N1436 1.350 . S
C1439 C1438 1.434 . S
C1440 C1441 1.369 . S
C1440 C1442 1.419 . S
C1440 H1444 0.930 . S
C1441 C1440 1.369 . S
C1441 C1450 1.429 . S
C1442 C1440 1.419 . S
C1442 C1443 1.363 . S
C1442 H1445 0.929 . S
C1443 C1442 1.363 . S
C1443 C1449 1.428 . S
H1444 C1440 0.930 . S
H1445 C1442 0.929 . S
S1446 N1447 1.613 . S
S1446 N1448 1.610 . S
N1447 S1446 1.613 . S
N1447 C1450 1.350 . S
N1448 S1446 1.610 . S
N1448 C1449 1.351 . S
C1449 C1443 1.428 . S
C1449 N1448 1.351 . S
C1449 C1450 1.434 . S
C1450 C1441 1.429 . S
C1450 N1447 1.350 . S
C1450 C1449 1.434 . S
C1451 C1452 1.369 . S
C1451 C1453 1.419 . S
C1451 H1455 0.930 . S
C1452 C1451 1.369 . S
C1452 C1461 1.429 . S
C1453 C1451 1.419 . S
C1453 C1454 1.363 . S
C1453 H1456 0.929 . S
C1454 C1453 1.363 . S
C1454 C1460 1.428 . S
H1455 C1451 0.930 . S
H1456 C1453 0.929 . S
S1457 N1458 1.613 . S
S1457 N1459 1.610 . S
N1458 S1457 1.613 . S
N1458 C1461 1.350 . S
N1459 S1457 1.610 . S
N1459 C1460 1.351 . S
C1460 C1454 1.428 . S
C1460 N1459 1.351 . S
C1460 C1461 1.434 . S
C1461 C1452 1.429 . S
C1461 N1458 1.350 . S
C1461 C1460 1.434 . S
C1462 C1463 1.369 . S
C1462 C1464 1.419 . S
C1462 H1466 0.930 . S
C1463 C1462 1.369 . S
C1463 C1472 1.429 . S
C1464 C1462 1.419 . S
C1464 C1465 1.363 . S
C1464 H1467 0.929 . S
C1465 C1464 1.363 . S
C1465 C1471 1.428 . S
H1466 C1462 0.930 . S
H1467 C1464 0.929 . S
S1468 N1469 1.613 . S
S1468 N1470 1.610 . S
N1469 S1468 1.613 . S
N1469 C1472 1.350 . S
N1470 S1468 1.610 . S
N1470 C1471 1.351 . S
C1471 C1465 1.428 . S
C1471 N1470 1.351 . S
C1471 C1472 1.434 . S
C1472 C1463 1.429 . S
C1472 N1469 1.350 . S
C1472 C1471 1.434 . S
C1473 C1474 1.369 . S
C1473 C1475 1.419 . S
C1473 H1477 0.930 . S
C1474 C1473 1.369 . S
C1474 C1483 1.429 . S
C1475 C1473 1.419 . S
C1475 C1476 1.363 . S
C1475 H1478 0.929 . S
C1476 C1475 1.363 . S
C1476 C1482 1.428 . S
H1477 C1473 0.930 . S
H1478 C1475 0.929 . S
S1479 N1480 1.613 . S
S1479 N1481 1.610 . S
N1480 S1479 1.613 . S
N1480 C1483 1.350 . S
N1481 S1479 1.610 . S
N1481 C1482 1.351 . S
C1482 C1476 1.428 . S
C1482 N1481 1.351 . S
C1482 C1483 1.434 . S
C1483 C1474 1.429 . S
C1483 N1480 1.350 . S
C1483 C1482 1.434 . S
C1484 C1485 1.369 . S
C1484 C1486 1.419 . S
C1484 H1488 0.930 . S
C1485 C1484 1.369 . S
C1485 C1494 1.429 . S
C1486 C1484 1.419 . S
C1486 C1487 1.363 . S
C1486 H1489 0.929 . S
C1487 C1486 1.363 . S
C1487 C1493 1.428 . S
H1488 C1484 0.930 . S
H1489 C1486 0.929 . S
S1490 N1491 1.613 . S
S1490 N1492 1.610 . S
N1491 S1490 1.613 . S
N1491 C1494 1.350 . S
N1492 S1490 1.610 . S
N1492 C1493 1.351 . S
C1493 C1487 1.428 . S
C1493 N1492 1.351 . S
C1493 C1494 1.434 . S
C1494 C1485 1.429 . S
C1494 N1491 1.350 . S
C1494 C1493 1.434 . S
C1495 C1496 1.369 . S
C1495 C1497 1.419 . S
C1495 H1499 0.930 . S
C1496 C1495 1.369 . S
C1496 C1505 1.429 . S
C1497 C1495 1.419 . S
C1497 C1498 1.363 . S
C1497 H1500 0.929 . S
C1498 C1497 1.363 . S
C1498 C1504 1.428 . S
H1499 C1495 0.930 . S
H1500 C1497 0.929 . S
S1501 N1502 1.613 . S
S1501 N1503 1.610 1_556 S
N1502 S1501 1.613 . S
N1502 C1505 1.350 1_556 S
N1503 S1501 1.610 1_554 S
N1503 C1504 1.351 . S
C1504 C1498 1.428 . S
C1504 N1503 1.351 . S
C1504 C1505 1.434 . S
C1505 C1496 1.429 . S
C1505 N1502 1.350 1_554 S
C1505 C1504 1.434 . S
C1506 C1507 1.369 . S
C1506 C1508 1.419 . S
C1506 H1510 0.930 . S
C1507 C1506 1.369 . S
C1507 C1516 1.429 . S
C1508 C1506 1.419 . S
C1508 C1509 1.363 . S
C1508 H1511 0.929 . S
C1509 C1508 1.363 . S
C1509 C1515 1.428 . S
H1510 C1506 0.930 . S
H1511 C1508 0.929 . S
S1512 N1513 1.613 . S
S1512 N1514 1.610 . S
N1513 S1512 1.613 . S
N1513 C1516 1.350 . S
N1514 S1512 1.610 . S
N1514 C1515 1.351 . S
C1515 C1509 1.428 . S
C1515 N1514 1.351 . S
C1515 C1516 1.434 . S
C1516 C1507 1.429 . S
C1516 N1513 1.350 . S
C1516 C1515 1.434 . S
C1517 C1518 1.369 . S
C1517 C1519 1.419 . S
C1517 H1521 0.930 . S
C1518 C1517 1.369 . S
C1518 C1527 1.429 . S
C1519 C1517 1.419 . S
C1519 C1520 1.363 . S
C1519 H1522 0.929 . S
C1520 C1519 1.363 . S
C1520 C1526 1.428 . S
H1521 C1517 0.930 . S
H1522 C1519 0.929 . S
S1523 N1524 1.613 . S
S1523 N1525 1.610 . S
N1524 S1523 1.613 . S
N1524 C1527 1.350 . S
N1525 S1523 1.610 . S
N1525 C1526 1.351 . S
C1526 C1520 1.428 . S
C1526 N1525 1.351 . S
C1526 C1527 1.434 . S
C1527 C1518 1.429 . S
C1527 N1524 1.350 . S
C1527 C1526 1.434 . S
C1528 C1529 1.369 . S
C1528 C1530 1.419 . S
C1528 H1532 0.930 . S
C1529 C1528 1.369 . S
C1529 C1538 1.429 . S
C1530 C1528 1.419 . S
C1530 C1531 1.363 . S
C1530 H1533 0.929 . S
C1531 C1530 1.363 . S
C1531 C1537 1.428 . S
H1532 C1528 0.930 . S
H1533 C1530 0.929 . S
S1534 N1535 1.613 . S
S1534 N1536 1.610 . S
N1535 S1534 1.613 . S
N1535 C1538 1.350 . S
N1536 S1534 1.610 . S
N1536 C1537 1.351 . S
C1537 C1531 1.428 . S
C1537 N1536 1.351 . S
C1537 C1538 1.434 . S
C1538 C1529 1.429 . S
C1538 N1535 1.350 . S
C1538 C1537 1.434 . S
C1539 C1540 1.369 . S
C1539 C1541 1.419 . S
C1539 H1543 0.930 . S
C1540 C1539 1.369 . S
C1540 C1549 1.429 . S
C1541 C1539 1.419 . S
C1541 C1542 1.363 . S
C1541 H1544 0.929 . S
C1542 C1541 1.363 . S
C1542 C1548 1.428 . S
H1543 C1539 0.930 . S
H1544 C1541 0.929 . S
S1545 N1546 1.613 . S
S1545 N1547 1.610 . S
N1546 S1545 1.613 . S
N1546 C1549 1.350 . S
N1547 S1545 1.610 . S
N1547 C1548 1.351 . S
C1548 C1542 1.428 . S
C1548 N1547 1.351 . S
C1548 C1549 1.434 . S
C1549 C1540 1.429 . S
C1549 N1546 1.350 . S
C1549 C1548 1.434 . S
C1550 C1551 1.369 . S
C1550 C1552 1.419 . S
C1550 H1554 0.930 . S
C1551 C1550 1.369 . S
C1551 C1560 1.429 . S
C1552 C1550 1.419 . S
C1552 C1553 1.363 . S
C1552 H1555 0.929 . S
C1553 C1552 1.363 . S
C1553 C1559 1.428 . S
H1554 C1550 0.930 . S
H1555 C1552 0.929 . S
S1556 N1557 1.613 . S
S1556 N1558 1.610 . S
N1557 S1556 1.613 . S
N1557 C1560 1.350 . S
N1558 S1556 1.610 . S
N1558 C1559 1.351 . S
C1559 C1553 1.428 . S
C1559 N1558 1.351 . S
C1559 C1560 1.434 . S
C1560 C1551 1.429 . S
C1560 N1557 1.350 . S
C1560 C1559 1.434 . S
C1561 C1562 1.369 . S
C1561 C1563 1.419 . S
C1561 H1565 0.930 . S
C1562 C1561 1.369 . S
C1562 C1571 1.429 . S
C1563 C1561 1.419 . S
C1563 C1564 1.363 . S
C1563 H1566 0.929 . S
C1564 C1563 1.363 . S
C1564 C1570 1.428 . S
H1565 C1561 0.930 . S
H1566 C1563 0.929 . S
S1567 N1568 1.613 1_556 S
S1567 N1569 1.610 1_556 S
N1568 S1567 1.613 1_554 S
N1568 C1571 1.350 . S
N1569 S1567 1.610 1_554 S
N1569 C1570 1.351 . S
C1570 C1564 1.428 . S
C1570 N1569 1.351 . S
C1570 C1571 1.434 . S
C1571 C1562 1.429 . S
C1571 N1568 1.350 . S
C1571 C1570 1.434 . S
C1572 C1573 1.369 . S
C1572 C1574 1.419 . S
C1572 H1576 0.930 . S
C1573 C1572 1.369 . S
C1573 C1582 1.429 . S
C1574 C1572 1.419 . S
C1574 C1575 1.363 . S
C1574 H1577 0.929 . S
C1575 C1574 1.363 . S
C1575 C1581 1.428 . S
H1576 C1572 0.930 . S
H1577 C1574 0.929 . S
S1578 N1579 1.613 . S
S1578 N1580 1.610 . S
N1579 S1578 1.613 . S
N1579 C1582 1.350 . S
N1580 S1578 1.610 . S
N1580 C1581 1.351 . S
C1581 C1575 1.428 . S
C1581 N1580 1.351 . S
C1581 C1582 1.434 . S
C1582 C1573 1.429 . S
C1582 N1579 1.350 . S
C1582 C1581 1.434 . S
C1583 C1584 1.369 . S
C1583 C1585 1.419 . S
C1583 H1587 0.930 . S
C1584 C1583 1.369 . S
C1584 C1593 1.429 . S
C1585 C1583 1.419 . S
C1585 C1586 1.363 . S
C1585 H1588 0.929 . S
C1586 C1585 1.363 . S
C1586 C1592 1.428 . S
H1587 C1583 0.930 . S
H1588 C1585 0.929 . S
S1589 N1590 1.613 . S
S1589 N1591 1.610 . S
N1590 S1589 1.613 . S
N1590 C1593 1.350 . S
N1591 S1589 1.610 . S
N1591 C1592 1.351 . S
C1592 C1586 1.428 . S
C1592 N1591 1.351 . S
C1592 C1593 1.434 . S
C1593 C1584 1.429 . S
C1593 N1590 1.350 . S
C1593 C1592 1.434 . S
C1594 C1595 1.369 . S
C1594 C1596 1.419 . S
C1594 H1598 0.930 . S
C1595 C1594 1.369 . S
C1595 C1604 1.429 . S
C1596 C1594 1.419 . S
C1596 C1597 1.363 . S
C1596 H1599 0.929 . S
C1597 C1596 1.363 . S
C1597 C1603 1.428 . S
H1598 C1594 0.930 . S
H1599 C1596 0.929 . S
S1600 N1601 1.613 . S
S1600 N1602 1.610 . S
N1601 S1600 1.613 . S
N1601 C1604 1.350 . S
N1602 S1600 1.610 . S
N1602 C1603 1.351 . S
C1603 C1597 1.428 . S
C1603 N1602 1.351 . S
C1603 C1604 1.434 . S
C1604 C1595 1.429 . S
C1604 N1601 1.350 . S
C1604 C1603 1.434 . S
C1605 C1606 1.369 . S
C1605 C1607 1.419 . S
C1605 H1609 0.930 . S
C1606 C1605 1.369 . S
C1606 C1615 1.429 . S
C1607 C1605 1.419 . S
C1607 C1608 1.363 . S
C1607 H1610 0.929 . S
C1608 C1607 1.363 . S
C1608 C1614 1.428 . S
H1609 C1605 0.930 . S
H1610 C1607 0.929 . S
S1611 N1612 1.613 . S
S1611 N1613 1.610 . S
N1612 S1611 1.613 . S
N1612 C1615 1.350 . S
N1613 S1611 1.610 . S
N1613 C1614 1.351 . S
C1614 C1608 1.428 . S
C1614 N1613 1.351 . S
C1614 C1615 1.434 . S
C1615 C1606 1.429 . S
C1615 N1612 1.350 . S
C1615 C1614 1.434 . S
C1616 C1617 1.369 1_554 S
C1616 C1618 1.419 . S
C1616 H1620 0.930 . S
C1617 C1616 1.369 1_556 S
C1617 C1626 1.429 . S
C1618 C1616 1.419 . S
C1618 C1619 1.363 . S
C1618 H1621 0.929 . S
C1619 C1618 1.363 . S
C1619 C1625 1.428 1_554 S
H1620 C1616 0.930 . S
H1621 C1618 0.929 . S
S1622 N1623 1.613 . S
S1622 N1624 1.610 . S
N1623 S1622 1.613 . S
N1623 C1626 1.350 . S
N1624 S1622 1.610 . S
N1624 C1625 1.351 . S
C1625 C1619 1.428 1_556 S
C1625 N1624 1.351 . S
C1625 C1626 1.434 . S
C1626 C1617 1.429 . S
C1626 N1623 1.350 . S
C1626 C1625 1.434 . S
C1627 C1628 1.369 . S
C1627 C1629 1.419 . S
C1627 H1631 0.930 . S
C1628 C1627 1.369 . S
C1628 C1637 1.429 . S
C1629 C1627 1.419 . S
C1629 C1630 1.363 . S
C1629 H1632 0.929 . S
C1630 C1629 1.363 . S
C1630 C1636 1.428 . S
H1631 C1627 0.930 . S
H1632 C1629 0.929 . S
S1633 N1634 1.613 . S
S1633 N1635 1.610 . S
N1634 S1633 1.613 . S
N1634 C1637 1.350 . S
N1635 S1633 1.610 . S
N1635 C1636 1.351 . S
C1636 C1630 1.428 . S
C1636 N1635 1.351 . S
C1636 C1637 1.434 . S
C1637 C1628 1.429 . S
C1637 N1634 1.350 . S
C1637 C1636 1.434 . S
C1638 C1639 1.369 . S
C1638 C1640 1.419 . S
C1638 H1642 0.930 . S
C1639 C1638 1.369 . S
C1639 C1648 1.429 . S
C1640 C1638 1.419 . S
C1640 C1641 1.363 . S
C1640 H1643 0.929 . S
C1641 C1640 1.363 . S
C1641 C1647 1.428 . S
H1642 C1638 0.930 . S
H1643 C1640 0.929 . S
S1644 N1645 1.613 . S
S1644 N1646 1.610 . S
N1645 S1644 1.613 . S
N1645 C1648 1.350 . S
N1646 S1644 1.610 . S
N1646 C1647 1.351 . S
C1647 C1641 1.428 . S
C1647 N1646 1.351 . S
C1647 C1648 1.434 . S
C1648 C1639 1.429 . S
C1648 N1645 1.350 . S
C1648 C1647 1.434 . S
C1649 C1650 1.369 . S
C1649 C1651 1.419 . S
C1649 H1653 0.930 . S
C1650 C1649 1.369 . S
C1650 C1659 1.429 . S
C1651 C1649 1.419 . S
C1651 C1652 1.363 . S
C1651 H1654 0.929 . S
C1652 C1651 1.363 . S
C1652 C1658 1.428 . S
H1653 C1649 0.930 . S
H1654 C1651 0.929 . S
S1655 N1656 1.613 . S
S1655 N1657 1.610 . S
N1656 S1655 1.613 . S
N1656 C1659 1.350 . S
N1657 S1655 1.610 . S
N1657 C1658 1.351 . S
C1658 C1652 1.428 . S
C1658 N1657 1.351 . S
C1658 C1659 1.434 . S
C1659 C1650 1.429 . S
C1659 N1656 1.350 . S
C1659 C1658 1.434 . S
C1660 C1661 1.369 . S
C1660 C1662 1.419 . S
C1660 H1664 0.930 . S
C1661 C1660 1.369 . S
C1661 C1670 1.429 1_556 S
C1662 C1660 1.419 . S
C1662 C1663 1.363 1_556 S
C1662 H1665 0.929 . S
C1663 C1662 1.363 1_554 S
C1663 C1669 1.428 . S
H1664 C1660 0.930 . S
H1665 C1662 0.929 . S
S1666 N1667 1.613 . S
S1666 N1668 1.610 . S
N1667 S1666 1.613 . S
N1667 C1670 1.350 . S
N1668 S1666 1.610 . S
N1668 C1669 1.351 . S
C1669 C1663 1.428 . S
C1669 N1668 1.351 . S
C1669 C1670 1.434 . S
C1670 C1661 1.429 1_554 S
C1670 N1667 1.350 . S
C1670 C1669 1.434 . S
C1671 C1672 1.369 . S
C1671 C1673 1.419 . S
C1671 H1675 0.930 . S
C1672 C1671 1.369 . S
C1672 C1681 1.429 . S
C1673 C1671 1.419 . S
C1673 C1674 1.363 . S
C1673 H1676 0.929 . S
C1674 C1673 1.363 . S
C1674 C1680 1.428 . S
H1675 C1671 0.930 . S
H1676 C1673 0.929 . S
S1677 N1678 1.613 . S
S1677 N1679 1.610 . S
N1678 S1677 1.613 . S
N1678 C1681 1.350 . S
N1679 S1677 1.610 . S
N1679 C1680 1.351 . S
C1680 C1674 1.428 . S
C1680 N1679 1.351 . S
C1680 C1681 1.434 . S
C1681 C1672 1.429 . S
C1681 N1678 1.350 . S
C1681 C1680 1.434 . S
C1682 C1683 1.369 . S
C1682 C1684 1.419 . S
C1682 H1686 0.930 . S
C1683 C1682 1.369 . S
C1683 C1692 1.429 . S
C1684 C1682 1.419 . S
C1684 C1685 1.363 . S
C1684 H1687 0.929 . S
C1685 C1684 1.363 . S
C1685 C1691 1.428 . S
H1686 C1682 0.930 . S
H1687 C1684 0.929 . S
S1688 N1689 1.613 . S
S1688 N1690 1.610 . S
N1689 S1688 1.613 . S
N1689 C1692 1.350 . S
N1690 S1688 1.610 . S
N1690 C1691 1.351 . S
C1691 C1685 1.428 . S
C1691 N1690 1.351 . S
C1691 C1692 1.434 . S
C1692 C1683 1.429 . S
C1692 N1689 1.350 . S
C1692 C1691 1.434 . S
C1693 C1694 1.369 . S
C1693 C1695 1.419 . S
C1693 H1697 0.930 . S
C1694 C1693 1.369 . S
C1694 C1703 1.429 . S
C1695 C1693 1.419 . S
C1695 C1696 1.363 . S
C1695 H1698 0.929 . S
C1696 C1695 1.363 . S
C1696 C1702 1.428 . S
H1697 C1693 0.930 . S
H1698 C1695 0.929 . S
S1699 N1700 1.613 . S
S1699 N1701 1.610 . S
N1700 S1699 1.613 . S
N1700 C1703 1.350 . S
N1701 S1699 1.610 . S
N1701 C1702 1.351 . S
C1702 C1696 1.428 . S
C1702 N1701 1.351 . S
C1702 C1703 1.434 . S
C1703 C1694 1.429 . S
C1703 N1700 1.350 . S
C1703 C1702 1.434 . S
C1704 C1705 1.369 . S
C1704 C1706 1.419 1_565 S
C1704 H1708 0.930 . S
C1705 C1704 1.369 . S
C1705 C1714 1.429 . S
C1706 C1704 1.419 1_545 S
C1706 C1707 1.363 . S
C1706 H1709 0.929 . S
C1707 C1706 1.363 . S
C1707 C1713 1.428 . S
H1708 C1704 0.930 . S
H1709 C1706 0.929 . S
S1710 N1711 1.613 . S
S1710 N1712 1.610 1_565 S
N1711 S1710 1.613 . S
N1711 C1714 1.350 . S
N1712 S1710 1.610 1_545 S
N1712 C1713 1.351 . S
C1713 C1707 1.428 . S
C1713 N1712 1.351 . S
C1713 C1714 1.434 1_545 S
C1714 C1705 1.429 . S
C1714 N1711 1.350 . S
C1714 C1713 1.434 1_565 S
C1715 C1716 1.369 . S
C1715 C1717 1.419 . S
C1715 H1719 0.930 . S
C1716 C1715 1.369 . S
C1716 C1725 1.429 . S
C1717 C1715 1.419 . S
C1717 C1718 1.363 . S
C1717 H1720 0.929 . S
C1718 C1717 1.363 . S
C1718 C1724 1.428 . S
H1719 C1715 0.930 . S
H1720 C1717 0.929 . S
S1721 N1722 1.613 . S
S1721 N1723 1.610 . S
N1722 S1721 1.613 . S
N1722 C1725 1.350 . S
N1723 S1721 1.610 . S
N1723 C1724 1.351 . S
C1724 C1718 1.428 . S
C1724 N1723 1.351 . S
C1724 C1725 1.434 . S
C1725 C1716 1.429 . S
C1725 N1722 1.350 . S
C1725 C1724 1.434 . S
C1726 C1727 1.369 . S
C1726 C1728 1.419 1_565 S
C1726 H1730 0.930 . S
C1727 C1726 1.369 . S
C1727 C1736 1.429 1_554 S
C1728 C1726 1.419 1_545 S
C1728 C1729 1.363 1_554 S
C1728 H1731 0.929 . S
C1729 C1728 1.363 1_556 S
C1729 C1735 1.428 . S
H1730 C1726 0.930 . S
H1731 C1728 0.929 . S
S1732 N1733 1.613 . S
S1732 N1734 1.610 1_565 S
N1733 S1732 1.613 . S
N1733 C1736 1.350 . S
N1734 S1732 1.610 1_545 S
N1734 C1735 1.351 . S
C1735 C1729 1.428 . S
C1735 N1734 1.351 . S
C1735 C1736 1.434 1_545 S
C1736 C1727 1.429 1_556 S
C1736 N1733 1.350 . S
C1736 C1735 1.434 1_565 S
C1737 C1738 1.369 . S
C1737 C1739 1.419 . S
C1737 H1741 0.930 . S
C1738 C1737 1.369 . S
C1738 C1747 1.429 . S
C1739 C1737 1.419 . S
C1739 C1740 1.363 . S
C1739 H1742 0.929 . S
C1740 C1739 1.363 . S
C1740 C1746 1.428 . S
H1741 C1737 0.930 . S
H1742 C1739 0.929 . S
S1743 N1744 1.613 . S
S1743 N1745 1.610 . S
N1744 S1743 1.613 . S
N1744 C1747 1.350 . S
N1745 S1743 1.610 . S
N1745 C1746 1.351 . S
C1746 C1740 1.428 . S
C1746 N1745 1.351 . S
C1746 C1747 1.434 . S
C1747 C1738 1.429 . S
C1747 N1744 1.350 . S
C1747 C1746 1.434 . S
C1748 C1749 1.369 . S
C1748 C1750 1.419 1_545 S
C1748 H1752 0.930 . S
C1749 C1748 1.369 . S
C1749 C1758 1.429 . S
C1750 C1748 1.419 1_565 S
C1750 C1751 1.363 . S
C1750 H1753 0.929 . S
C1751 C1750 1.363 . S
C1751 C1757 1.428 . S
H1752 C1748 0.930 . S
H1753 C1750 0.929 . S
S1754 N1755 1.613 1_565 S
S1754 N1756 1.610 . S
N1755 S1754 1.613 1_545 S
N1755 C1758 1.350 . S
N1756 S1754 1.610 . S
N1756 C1757 1.351 . S
C1757 C1751 1.428 . S
C1757 N1756 1.351 . S
C1757 C1758 1.434 1_565 S
C1758 C1749 1.429 . S
C1758 N1755 1.350 . S
C1758 C1757 1.434 1_545 S
C1759 C1760 1.369 . S
C1759 C1761 1.419 . S
C1759 H1763 0.930 . S
C1760 C1759 1.369 . S
C1760 C1769 1.429 . S
C1761 C1759 1.419 . S
C1761 C1762 1.363 . S
C1761 H1764 0.929 . S
C1762 C1761 1.363 . S
C1762 C1768 1.428 . S
H1763 C1759 0.930 . S
H1764 C1761 0.929 . S
S1765 N1766 1.613 . S
S1765 N1767 1.610 . S
N1766 S1765 1.613 . S
N1766 C1769 1.350 . S
N1767 S1765 1.610 . S
N1767 C1768 1.351 . S
C1768 C1762 1.428 . S
C1768 N1767 1.351 . S
C1768 C1769 1.434 . S
C1769 C1760 1.429 . S
C1769 N1766 1.350 . S
C1769 C1768 1.434 . S
C1770 C1771 1.369 . S
C1770 C1772 1.419 1_565 S
C1770 H1774 0.930 . S
C1771 C1770 1.369 . S
C1771 C1780 1.429 1_554 S
C1772 C1770 1.419 1_545 S
C1772 C1773 1.363 1_554 S
C1772 H1775 0.929 . S
C1773 C1772 1.363 1_556 S
C1773 C1779 1.428 . S
H1774 C1770 0.930 . S
H1775 C1772 0.929 . S
S1776 N1777 1.613 . S
S1776 N1778 1.610 1_565 S
N1777 S1776 1.613 . S
N1777 C1780 1.350 . S
N1778 S1776 1.610 1_545 S
N1778 C1779 1.351 . S
C1779 C1773 1.428 . S
C1779 N1778 1.351 . S
C1779 C1780 1.434 1_545 S
C1780 C1771 1.429 1_556 S
C1780 N1777 1.350 . S
C1780 C1779 1.434 1_565 S
C1781 C1782 1.369 . S
C1781 C1783 1.419 . S
C1781 H1785 0.930 . S
C1782 C1781 1.369 . S
C1782 C1791 1.429 . S
C1783 C1781 1.419 . S
C1783 C1784 1.363 . S
C1783 H1786 0.929 . S
C1784 C1783 1.363 . S
C1784 C1790 1.428 . S
H1785 C1781 0.930 . S
H1786 C1783 0.929 . S
S1787 N1788 1.613 . S
S1787 N1789 1.610 . S
N1788 S1787 1.613 . S
N1788 C1791 1.350 . S
N1789 S1787 1.610 . S
N1789 C1790 1.351 . S
C1790 C1784 1.428 . S
C1790 N1789 1.351 . S
C1790 C1791 1.434 . S
C1791 C1782 1.429 . S
C1791 N1788 1.350 . S
C1791 C1790 1.434 . S
C1792 C1793 1.369 . S
C1792 C1794 1.419 1_455 S
C1792 H1796 0.930 . S
C1793 C1792 1.369 . S
C1793 C1802 1.429 . S
C1794 C1792 1.419 1_655 S
C1794 C1795 1.363 . S
C1794 H1797 0.929 . S
C1795 C1794 1.363 . S
C1795 C1801 1.428 . S
H1796 C1792 0.930 . S
H1797 C1794 0.929 . S
S1798 N1799 1.619 1_655 S
S1798 N1800 1.605 . S
N1799 S1798 1.619 1_455 S
N1799 C1802 1.350 . S
N1800 S1798 1.605 . S
N1800 C1801 1.351 . S
C1801 C1795 1.428 . S
C1801 N1800 1.351 . S
C1801 C1802 1.434 1_655 S
C1802 C1793 1.429 . S
C1802 N1799 1.350 . S
C1802 C1801 1.434 1_455 S
C1803 C1804 1.369 . S
C1803 C1805 1.419 . S
C1803 H1807 0.930 . S
C1804 C1803 1.369 . S
C1804 C1813 1.429 . S
C1805 C1803 1.419 . S
C1805 C1806 1.363 . S
C1805 H1808 0.929 . S
C1806 C1805 1.363 . S
C1806 C1812 1.428 . S
H1807 C1803 0.930 . S
H1808 C1805 0.929 . S
S1809 N1810 1.613 . S
S1809 N1811 1.610 . S
N1810 S1809 1.613 . S
N1810 C1813 1.350 . S
N1811 S1809 1.610 . S
N1811 C1812 1.351 . S
C1812 C1806 1.428 . S
C1812 N1811 1.351 . S
C1812 C1813 1.434 . S
C1813 C1804 1.429 . S
C1813 N1810 1.350 . S
C1813 C1812 1.434 . S
C1814 C1815 1.369 . S
C1814 C1816 1.419 . S
C1814 H1818 0.930 . S
C1815 C1814 1.369 . S
C1815 C1824 1.429 . S
C1816 C1814 1.419 . S
C1816 C1817 1.363 . S
C1816 H1819 0.929 . S
C1817 C1816 1.363 . S
C1817 C1823 1.428 . S
H1818 C1814 0.930 . S
H1819 C1816 0.929 . S
S1820 N1821 1.613 . S
S1820 N1822 1.610 . S
N1821 S1820 1.613 . S
N1821 C1824 1.350 . S
N1822 S1820 1.610 . S
N1822 C1823 1.351 . S
C1823 C1817 1.428 . S
C1823 N1822 1.351 . S
C1823 C1824 1.434 . S
C1824 C1815 1.429 . S
C1824 N1821 1.350 . S
C1824 C1823 1.434 . S
C1825 C1826 1.369 . S
C1825 C1827 1.419 . S
C1825 H1829 0.930 . S
C1826 C1825 1.369 . S
C1826 C1835 1.429 . S
C1827 C1825 1.419 . S
C1827 C1828 1.363 . S
C1827 H1830 0.929 . S
C1828 C1827 1.363 . S
C1828 C1834 1.428 . S
H1829 C1825 0.930 . S
H1830 C1827 0.929 . S
S1831 N1832 1.613 . S
S1831 N1833 1.610 . S
N1832 S1831 1.613 . S
N1832 C1835 1.350 . S
N1833 S1831 1.610 . S
N1833 C1834 1.351 . S
C1834 C1828 1.428 . S
C1834 N1833 1.351 . S
C1834 C1835 1.434 . S
C1835 C1826 1.429 . S
C1835 N1832 1.350 . S
C1835 C1834 1.434 . S
C1836 C1837 1.369 . S
C1836 C1838 1.419 1_655 S
C1836 H1840 0.930 . S
C1837 C1836 1.369 . S
C1837 C1846 1.429 . S
C1838 C1836 1.419 1_455 S
C1838 C1839 1.363 . S
C1838 H1841 0.929 . S
C1839 C1838 1.363 . S
C1839 C1845 1.428 . S
H1840 C1836 0.930 . S
H1841 C1838 0.929 . S
S1842 N1843 1.619 1_455 S
S1842 N1844 1.605 . S
N1843 S1842 1.619 1_655 S
N1843 C1846 1.350 1_554 S
N1844 S1842 1.605 . S
N1844 C1845 1.351 1_554 S
C1845 C1839 1.428 . S
C1845 N1844 1.351 1_556 S
C1845 C1846 1.434 1_455 S
C1846 C1837 1.429 . S
C1846 N1843 1.350 1_556 S
C1846 C1845 1.434 1_655 S
C1847 C1848 1.369 . S
C1847 C1849 1.419 . S
C1847 H1851 0.930 . S
C1848 C1847 1.369 . S
C1848 C1857 1.429 . S
C1849 C1847 1.419 . S
C1849 C1850 1.363 . S
C1849 H1852 0.929 . S
C1850 C1849 1.363 . S
C1850 C1856 1.428 . S
H1851 C1847 0.930 . S
H1852 C1849 0.929 . S
S1853 N1854 1.613 1_556 S
S1853 N1855 1.610 1_556 S
N1854 S1853 1.613 1_554 S
N1854 C1857 1.350 . S
N1855 S1853 1.610 1_554 S
N1855 C1856 1.351 . S
C1856 C1850 1.428 . S
C1856 N1855 1.351 . S
C1856 C1857 1.434 . S
C1857 C1848 1.429 . S
C1857 N1854 1.350 . S
C1857 C1856 1.434 . S
C1858 C1859 1.369 . S
C1858 C1860 1.419 . S
C1858 H1862 0.930 . S
C1859 C1858 1.369 . S
C1859 C1868 1.429 . S
C1860 C1858 1.419 . S
C1860 C1861 1.363 . S
C1860 H1863 0.929 . S
C1861 C1860 1.363 . S
C1861 C1867 1.428 . S
H1862 C1858 0.930 . S
H1863 C1860 0.929 . S
S1864 N1865 1.613 . S
S1864 N1866 1.610 . S
N1865 S1864 1.613 . S
N1865 C1868 1.350 . S
N1866 S1864 1.610 . S
N1866 C1867 1.351 . S
C1867 C1861 1.428 . S
C1867 N1866 1.351 . S
C1867 C1868 1.434 . S
C1868 C1859 1.429 . S
C1868 N1865 1.350 . S
C1868 C1867 1.434 . S
C1869 C1870 1.369 . S
C1869 C1871 1.419 . S
C1869 H1873 0.930 . S
C1870 C1869 1.369 . S
C1870 C1879 1.429 . S
C1871 C1869 1.419 . S
C1871 C1872 1.363 . S
C1871 H1874 0.929 . S
C1872 C1871 1.363 . S
C1872 C1878 1.428 . S
H1873 C1869 0.930 . S
H1874 C1871 0.929 . S
S1875 N1876 1.613 . S
S1875 N1877 1.610 . S
N1876 S1875 1.613 . S
N1876 C1879 1.350 . S
N1877 S1875 1.610 . S
N1877 C1878 1.351 . S
C1878 C1872 1.428 . S
C1878 N1877 1.351 . S
C1878 C1879 1.434 . S
C1879 C1870 1.429 . S
C1879 N1876 1.350 . S
C1879 C1878 1.434 . S
C1880 C1881 1.369 . S
C1880 C1882 1.419 . S
C1880 H1884 0.930 . S
C1881 C1880 1.369 . S
C1881 C1890 1.429 . S
C1882 C1880 1.419 . S
C1882 C1883 1.363 . S
C1882 H1885 0.929 . S
C1883 C1882 1.363 . S
C1883 C1889 1.428 . S
H1884 C1880 0.930 . S
H1885 C1882 0.929 . S
S1886 N1887 1.613 . S
S1886 N1888 1.610 . S
N1887 S1886 1.613 . S
N1887 C1890 1.350 . S
N1888 S1886 1.610 . S
N1888 C1889 1.351 . S
C1889 C1883 1.428 . S
C1889 N1888 1.351 . S
C1889 C1890 1.434 . S
C1890 C1881 1.429 . S
C1890 N1887 1.350 . S
C1890 C1889 1.434 . S
C1891 C1892 1.369 . S
C1891 C1893 1.419 . S
C1891 H1895 0.930 . S
C1892 C1891 1.369 . S
C1892 C1901 1.429 . S
C1893 C1891 1.419 . S
C1893 C1894 1.363 . S
C1893 H1896 0.929 . S
C1894 C1893 1.363 . S
C1894 C1900 1.428 . S
H1895 C1891 0.930 . S
H1896 C1893 0.929 . S
S1897 N1898 1.613 . S
S1897 N1899 1.610 . S
N1898 S1897 1.613 . S
N1898 C1901 1.350 . S
N1899 S1897 1.610 . S
N1899 C1900 1.351 . S
C1900 C1894 1.428 . S
C1900 N1899 1.351 . S
C1900 C1901 1.434 . S
C1901 C1892 1.429 . S
C1901 N1898 1.350 . S
C1901 C1900 1.434 . S
C1902 C1903 1.369 . S
C1902 C1904 1.419 . S
C1902 H1906 0.930 . S
C1903 C1902 1.369 . S
C1903 C1912 1.429 . S
C1904 C1902 1.419 . S
C1904 C1905 1.363 . S
C1904 H1907 0.929 . S
C1905 C1904 1.363 . S
C1905 C1911 1.428 . S
H1906 C1902 0.930 . S
H1907 C1904 0.929 . S
S1908 N1909 1.613 . S
S1908 N1910 1.610 . S
N1909 S1908 1.613 . S
N1909 C1912 1.350 . S
N1910 S1908 1.610 . S
N1910 C1911 1.351 . S
C1911 C1905 1.428 . S
C1911 N1910 1.351 . S
C1911 C1912 1.434 . S
C1912 C1903 1.429 . S
C1912 N1909 1.350 . S
C1912 C1911 1.434 . S
C1913 C1914 1.369 . S
C1913 C1915 1.419 . S
C1913 H1917 0.930 . S
C1914 C1913 1.369 . S
C1914 C1923 1.429 . S
C1915 C1913 1.419 . S
C1915 C1916 1.363 . S
C1915 H1918 0.929 . S
C1916 C1915 1.363 . S
C1916 C1922 1.428 . S
H1917 C1913 0.930 . S
H1918 C1915 0.929 . S
S1919 N1920 1.613 . S
S1919 N1921 1.610 . S
N1920 S1919 1.613 . S
N1920 C1923 1.350 . S
N1921 S1919 1.610 . S
N1921 C1922 1.351 . S
C1922 C1916 1.428 . S
C1922 N1921 1.351 . S
C1922 C1923 1.434 . S
C1923 C1914 1.429 . S
C1923 N1920 1.350 . S
C1923 C1922 1.434 . S
C1924 C1925 1.369 . S
C1924 C1926 1.419 . S
C1924 H1928 0.930 . S
C1925 C1924 1.369 . S
C1925 C1934 1.429 . S
C1926 C1924 1.419 . S
C1926 C1927 1.363 . S
C1926 H1929 0.929 . S
C1927 C1926 1.363 . S
C1927 C1933 1.428 . S
H1928 C1924 0.930 . S
H1929 C1926 0.929 . S
S1930 N1931 1.613 . S
S1930 N1932 1.610 . S
N1931 S1930 1.613 . S
N1931 C1934 1.350 . S
N1932 S1930 1.610 . S
N1932 C1933 1.351 . S
C1933 C1927 1.428 . S
C1933 N1932 1.351 . S
C1933 C1934 1.434 . S
C1934 C1925 1.429 . S
C1934 N1931 1.350 . S
C1934 C1933 1.434 . S
C1935 C1936 1.369 . S
C1935 C1937 1.419 1_455 S
C1935 H1939 0.930 . S
C1936 C1935 1.369 . S
C1936 C1945 1.429 . S
C1937 C1935 1.419 1_655 S
C1937 C1938 1.363 . S
C1937 H1940 0.929 . S
C1938 C1937 1.363 . S
C1938 C1944 1.428 . S
H1939 C1935 0.930 . S
H1940 C1937 0.929 . S
S1941 N1942 1.619 1_655 S
S1941 N1943 1.605 . S
N1942 S1941 1.619 1_455 S
N1942 C1945 1.350 1_556 S
N1943 S1941 1.605 . S
N1943 C1944 1.351 1_556 S
C1944 C1938 1.428 . S
C1944 N1943 1.351 1_554 S
C1944 C1945 1.434 1_655 S
C1945 C1936 1.429 . S
C1945 N1942 1.350 1_554 S
C1945 C1944 1.434 1_455 S
C1946 C1947 1.369 . S
C1946 C1948 1.419 . S
C1946 H1950 0.930 . S
C1947 C1946 1.369 . S
C1947 C1956 1.429 . S
C1948 C1946 1.419 . S
C1948 C1949 1.363 . S
C1948 H1951 0.929 . S
C1949 C1948 1.363 . S
C1949 C1955 1.428 . S
H1950 C1946 0.930 . S
H1951 C1948 0.929 . S
S1952 N1953 1.613 . S
S1952 N1954 1.610 . S
N1953 S1952 1.613 . S
N1953 C1956 1.350 . S
N1954 S1952 1.610 . S
N1954 C1955 1.351 . S
C1955 C1949 1.428 . S
C1955 N1954 1.351 . S
C1955 C1956 1.434 . S
C1956 C1947 1.429 . S
C1956 N1953 1.350 . S
C1956 C1955 1.434 . S
C1957 C1958 1.369 . S
C1957 C1959 1.419 1_455 S
C1957 H1961 0.930 . S
C1958 C1957 1.369 . S
C1958 C1967 1.429 . S
C1959 C1957 1.419 1_655 S
C1959 C1960 1.363 . S
C1959 H1962 0.929 . S
C1960 C1959 1.363 . S
C1960 C1966 1.428 . S
H1961 C1957 0.930 . S
H1962 C1959 0.929 . S
S1963 N1964 1.619 1_655 S
S1963 N1965 1.605 . S
N1964 S1963 1.619 1_455 S
N1964 C1967 1.350 . S
N1965 S1963 1.605 . S
N1965 C1966 1.351 . S
C1966 C1960 1.428 . S
C1966 N1965 1.351 . S
C1966 C1967 1.434 1_655 S
C1967 C1958 1.429 . S
C1967 N1964 1.350 . S
C1967 C1966 1.434 1_455 S
C1089 C5 1.470 . S
C1091 C9 1.422 . S
C1100 C43 1.421 . S
C1102 C39 1.470 1_556 S
C1111 C77 1.415 1_554 S
C1113 C73 1.469 . S
C1122 C111 1.424 . S
C1124 C107 1.469 . S
C1133 C145 1.421 . S
C1135 C141 1.469 . S
C1144 C179 1.417 . S
C1146 C175 1.469 . S
C1155 C209 1.470 . S
C1157 C213 1.421 1_556 S
C1166 C243 1.469 1_554 S
C1168 C247 1.423 . S
C1177 C277 1.470 . S
C1179 C281 1.423 . S
C1188 C311 1.469 1_554 S
C1190 C315 1.420 . S
C1199 C345 1.470 . S
C1201 C349 1.416 1_556 S
C1210 C383 1.421 . S
C1212 C379 1.470 . S
C1221 C413 1.469 . S
C1223 C417 1.420 . S
C1232 C447 1.469 . S
C1234 C451 1.416 . S
C1243 C485 1.423 1_554 S
C1245 C481 1.470 . S
C1254 C515 1.470 1_556 S
C1256 C519 1.420 . S
C1265 C553 1.423 1_554 S
C1267 C549 1.469 . S
C1276 C587 1.418 . S
C1278 C583 1.470 . S
C1287 C621 1.424 . S
C1289 C617 1.470 . S
C1298 C655 1.420 . S
C1300 C651 1.469 1_556 S
C1309 C689 1.418 1_556 S
C1311 C685 1.470 . S
C1320 C723 1.417 . S
C1322 C719 1.469 1_554 S
C1331 C757 1.415 . S
C1333 C753 1.470 . S
C1342 C787 1.469 . S
C1344 C791 1.422 . S
C1353 C825 1.415 1_556 S
C1355 C821 1.470 . S
C1364 C859 1.415 . S
C1366 C855 1.470 . S
C1375 C893 1.417 . S
C1377 C889 1.470 . S
C1386 C923 1.470 1_554 S
C1388 C927 1.418 . S
C1397 C957 1.470 . S
C1399 C961 1.423 1_554 S
C1408 C991 1.469 1_556 S
C1410 C995 1.420 . S
C1419 C1029 1.421 . S
C1421 C1025 1.470 . S
C1430 C1059 1.470 . S
C1432 C1063 1.417 . S
C1441 C802 1.518 . S
C1443 C20 1.519 . S
C1452 C700 1.519 . S
C1454 C54 1.519 . S
C1463 C734 1.519 . S
C1465 C88 1.519 . S
C1474 C768 1.517 . S
C1476 C122 1.519 . S
C1485 C598 1.519 . S
C1487 C156 1.519 . S
C1496 C632 1.518 . S
C1498 C190 1.516 . S
C1507 C666 1.518 . S
C1509 C224 1.516 . S
C1518 C564 1.519 . S
C1520 C258 1.518 . S
C1529 C1074 1.516 . S
C1531 C292 1.516 . S
C1540 C972 1.519 . S
C1542 C326 1.518 . S
C1551 C360 1.516 . S
C1553 C1006 1.518 . S
C1562 C394 1.519 . S
C1564 C1040 1.519 . S
C1573 C428 1.519 . S
C1575 C870 1.518 . S
C1584 C462 1.518 . S
C1586 C904 1.517 . S
C1595 C496 1.519 . S
C1597 C938 1.518 . S
C1606 C836 1.518 . S
C1608 C530 1.519 . S
C1617 C169 1.294 . S
C1619 C33 1.291 . S
C1628 C67 1.290 . S
C1630 C203 1.292 . S
C1639 C237 1.294 . S
C1641 C101 1.291 . S
C1650 C135 1.291 . S
C1652 C271 1.291 . S
C1661 C305 1.291 . S
C1663 C441 1.293 . S
C1672 C475 1.294 . S
C1674 C339 1.291 . S
C1683 C509 1.291 . S
C1685 C373 1.290 . S
C1694 C543 1.294 . S
C1696 C407 1.294 . S
C1705 C713 1.291 . S
C1707 C577 1.294 . S
C1716 C611 1.294 . S
C1718 C747 1.291 . S
C1727 C645 1.292 . S
C1729 C781 1.294 . S
C1738 C679 1.294 . S
C1740 C815 1.293 . S
C1749 C985 1.295 . S
C1751 C849 1.292 . S
C1760 C1019 1.294 . S
C1762 C883 1.292 . S
C1771 C1053 1.290 . S
C1773 C917 1.293 . S
C1782 C951 1.293 . S
C1784 C1087 1.290 . S
C1793 C2 1.664 . S
C1795 C410 1.664 . S
C1804 C988 1.663 . S
C1806 C36 1.663 . S
C1815 C70 1.663 . S
C1817 C478 1.663 . S
C1826 C1056 1.663 . S
C1828 C104 1.664 . S
C1837 C274 1.663 . S
C1839 C138 1.663 . S
C1848 C172 1.664 . S
C1850 C852 1.664 . S
C1859 C206 1.664 . S
C1861 C342 1.664 . S
C1870 C240 1.664 . S
C1872 C920 1.664 . S
C1881 C716 1.664 . S
C1883 C308 1.664 . S
C1892 C784 1.664 . S
C1894 C376 1.664 . S
C1903 C580 1.663 . S
C1905 C444 1.663 . S
C1914 C648 1.664 . S
C1916 C512 1.664 . S
C1925 C546 1.664 . S
C1927 C954 1.664 . S
C1936 C1022 1.663 . S
C1938 C614 1.663 . S
C1947 C682 1.664 . S
C1949 C818 1.664 . S
C1958 C886 1.664 . S
C1960 C750 1.664 . S
