# Generated by pormake.
# Topology utm, (3)-cn, num edge types: 1
# Building blocks:
#     Node 0, Type 0, BuildingBlock: WUSLED_clean_sbu_0, # of connection points: 3
#     Node 1, Type 0, BuildingBlock: WUSLED_clean_sbu_0, # of connection points: 3
#     Node 2, Type 0, BuildingBlock: WUSLED_clean_sbu_0, # of connection points: 3
#     Node 3, Type 0, BuildingBlock: WUSLED_clean_sbu_0, # of connection points: 3
#     Node 4, Type 0, BuildingBlock: WUSLED_clean_sbu_0, # of connection points: 3
#     Node 5, Type 0, BuildingBlock: WUSLED_clean_sbu_0, # of connection points: 3
#     Node 6, Type 0, BuildingBlock: WUSLED_clean_sbu_0, # of connection points: 3
#     Node 7, Type 0, BuildingBlock: WUSLED_clean_sbu_0, # of connection points: 3
#     Node 8, Type 0, BuildingBlock: WUSLED_clean_sbu_0, # of connection points: 3
#     Node 9, Type 0, BuildingBlock: WUSLED_clean_sbu_0, # of connection points: 3
#     Node 10, Type 0, BuildingBlock: WUSLED_clean_sbu_0, # of connection points: 3
#     Node 11, Type 0, BuildingBlock: WUSLED_clean_sbu_0, # of connection points: 3
#     Node 12, Type 0, BuildingBlock: WUSLED_clean_sbu_0, # of connection points: 3
#     Node 13, Type 0, BuildingBlock: WUSLED_clean_sbu_0, # of connection points: 3
#     Node 14, Type 0, BuildingBlock: WUSLED_clean_sbu_0, # of connection points: 3
#     Node 15, Type 0, BuildingBlock: WUSLED_clean_sbu_0, # of connection points: 3
#     Node 16, Type 0, BuildingBlock: WUSLED_clean_sbu_0, # of connection points: 3
#     Node 17, Type 0, BuildingBlock: WUSLED_clean_sbu_0, # of connection points: 3
#     Node 18, Type 0, BuildingBlock: WUSLED_clean_sbu_0, # of connection points: 3
#     Node 19, Type 0, BuildingBlock: WUSLED_clean_sbu_0, # of connection points: 3
#     Node 20, Type 0, BuildingBlock: WUSLED_clean_sbu_0, # of connection points: 3
#     Node 21, Type 0, BuildingBlock: WUSLED_clean_sbu_0, # of connection points: 3
#     Node 22, Type 0, BuildingBlock: WUSLED_clean_sbu_0, # of connection points: 3
#     Node 23, Type 0, BuildingBlock: WUSLED_clean_sbu_0, # of connection points: 3
#     Node 24, Type 0, BuildingBlock: WUSLED_clean_sbu_0, # of connection points: 3
#     Node 25, Type 0, BuildingBlock: WUSLED_clean_sbu_0, # of connection points: 3
#     Node 26, Type 0, BuildingBlock: WUSLED_clean_sbu_0, # of connection points: 3
#     Node 27, Type 0, BuildingBlock: WUSLED_clean_sbu_0, # of connection points: 3
#     Node 28, Type 0, BuildingBlock: WUSLED_clean_sbu_0, # of connection points: 3
#     Node 29, Type 0, BuildingBlock: WUSLED_clean_sbu_0, # of connection points: 3
#     Node 30, Type 0, BuildingBlock: WUSLED_clean_sbu_0, # of connection points: 3
#     Node 31, Type 0, BuildingBlock: WUSLED_clean_sbu_0, # of connection points: 3
#     Edge 32, Type (0, 0), BuildingBlock: MIFKUJ_clean_linker_0, # of connection points: 2
#     Edge 33, Type (0, 0), BuildingBlock: MIFKUJ_clean_linker_0, # of connection points: 2
#     Edge 34, Type (0, 0), BuildingBlock: MIFKUJ_clean_linker_0, # of connection points: 2
#     Edge 35, Type (0, 0), BuildingBlock: MIFKUJ_clean_linker_0, # of connection points: 2
#     Edge 36, Type (0, 0), BuildingBlock: MIFKUJ_clean_linker_0, # of connection points: 2
#     Edge 37, Type (0, 0), BuildingBlock: MIFKUJ_clean_linker_0, # of connection points: 2
#     Edge 38, Type (0, 0), BuildingBlock: MIFKUJ_clean_linker_0, # of connection points: 2
#     Edge 39, Type (0, 0), BuildingBlock: MIFKUJ_clean_linker_0, # of connection points: 2
#     Edge 40, Type (0, 0), BuildingBlock: MIFKUJ_clean_linker_0, # of connection points: 2
#     Edge 41, Type (0, 0), BuildingBlock: MIFKUJ_clean_linker_0, # of connection points: 2
#     Edge 42, Type (0, 0), BuildingBlock: MIFKUJ_clean_linker_0, # of connection points: 2
#     Edge 43, Type (0, 0), BuildingBlock: MIFKUJ_clean_linker_0, # of connection points: 2
#     Edge 44, Type (0, 0), BuildingBlock: MIFKUJ_clean_linker_0, # of connection points: 2
#     Edge 45, Type (0, 0), BuildingBlock: MIFKUJ_clean_linker_0, # of connection points: 2
#     Edge 46, Type (0, 0), BuildingBlock: MIFKUJ_clean_linker_0, # of connection points: 2
#     Edge 47, Type (0, 0), BuildingBlock: MIFKUJ_clean_linker_0, # of connection points: 2
#     Edge 48, Type (0, 0), BuildingBlock: MIFKUJ_clean_linker_0, # of connection points: 2
#     Edge 49, Type (0, 0), BuildingBlock: MIFKUJ_clean_linker_0, # of connection points: 2
#     Edge 50, Type (0, 0), BuildingBlock: MIFKUJ_clean_linker_0, # of connection points: 2
#     Edge 51, Type (0, 0), BuildingBlock: MIFKUJ_clean_linker_0, # of connection points: 2
#     Edge 52, Type (0, 0), BuildingBlock: MIFKUJ_clean_linker_0, # of connection points: 2
#     Edge 53, Type (0, 0), BuildingBlock: MIFKUJ_clean_linker_0, # of connection points: 2
#     Edge 54, Type (0, 0), BuildingBlock: MIFKUJ_clean_linker_0, # of connection points: 2
#     Edge 55, Type (0, 0), BuildingBlock: MIFKUJ_clean_linker_0, # of connection points: 2
#     Edge 56, Type (0, 0), BuildingBlock: MIFKUJ_clean_linker_0, # of connection points: 2
#     Edge 57, Type (0, 0), BuildingBlock: MIFKUJ_clean_linker_0, # of connection points: 2
#     Edge 58, Type (0, 0), BuildingBlock: MIFKUJ_clean_linker_0, # of connection points: 2
#     Edge 59, Type (0, 0), BuildingBlock: MIFKUJ_clean_linker_0, # of connection points: 2
#     Edge 60, Type (0, 0), BuildingBlock: MIFKUJ_clean_linker_0, # of connection points: 2
#     Edge 61, Type (0, 0), BuildingBlock: MIFKUJ_clean_linker_0, # of connection points: 2
#     Edge 62, Type (0, 0), BuildingBlock: MIFKUJ_clean_linker_0, # of connection points: 2
#     Edge 63, Type (0, 0), BuildingBlock: MIFKUJ_clean_linker_0, # of connection points: 2
#     Edge 64, Type (0, 0), BuildingBlock: MIFKUJ_clean_linker_0, # of connection points: 2
#     Edge 65, Type (0, 0), BuildingBlock: MIFKUJ_clean_linker_0, # of connection points: 2
#     Edge 66, Type (0, 0), BuildingBlock: MIFKUJ_clean_linker_0, # of connection points: 2
#     Edge 67, Type (0, 0), BuildingBlock: MIFKUJ_clean_linker_0, # of connection points: 2
#     Edge 68, Type (0, 0), BuildingBlock: MIFKUJ_clean_linker_0, # of connection points: 2
#     Edge 69, Type (0, 0), BuildingBlock: MIFKUJ_clean_linker_0, # of connection points: 2
#     Edge 70, Type (0, 0), BuildingBlock: MIFKUJ_clean_linker_0, # of connection points: 2
#     Edge 71, Type (0, 0), BuildingBlock: MIFKUJ_clean_linker_0, # of connection points: 2
#     Edge 72, Type (0, 0), BuildingBlock: MIFKUJ_clean_linker_0, # of connection points: 2
#     Edge 73, Type (0, 0), BuildingBlock: MIFKUJ_clean_linker_0, # of connection points: 2
#     Edge 74, Type (0, 0), BuildingBlock: MIFKUJ_clean_linker_0, # of connection points: 2
#     Edge 75, Type (0, 0), BuildingBlock: MIFKUJ_clean_linker_0, # of connection points: 2
#     Edge 76, Type (0, 0), BuildingBlock: MIFKUJ_clean_linker_0, # of connection points: 2
#     Edge 77, Type (0, 0), BuildingBlock: MIFKUJ_clean_linker_0, # of connection points: 2
#     Edge 78, Type (0, 0), BuildingBlock: MIFKUJ_clean_linker_0, # of connection points: 2
#     Edge 79, Type (0, 0), BuildingBlock: MIFKUJ_clean_linker_0, # of connection points: 2
# Relax obj value: 0.006
# Max RMSD: 0.009
# Mean RMSD: 0.009
data_MOF--net-utm--node1-WUSLED_clean_sbu_0--edge1-MIFKUJ_clean_linker_0
_symmetry_space_group_name_H-M    P1
_symmetry_Int_Tables_number       1
_symmetry_cell_setting            triclinic
loop_
_symmetry_equiv_pos_as_xyz
'x, y, z'
_cell_length_a     121.45803
_cell_length_b     121.60986
_cell_length_c     95.292031
_cell_angle_alpha  89.986569
_cell_angle_beta   89.980279
_cell_angle_gamma 89.978654
loop_
_atom_site_label
_atom_site_type_symbol
_atom_site_fract_x
_atom_site_fract_y
_atom_site_fract_z
_atom_type_partial_charge
C0 C 0.19041 0.32559 0.15456 0.0
C1 C 0.19248 0.33446 0.14546 0.0
C2 C 0.1737 0.34111 0.14855 0.0
C3 C 0.18423 0.34217 0.14257 0.0
C4 C 0.17161 0.33216 0.15753 0.0
C5 C 0.1799 0.3245 0.16054 0.0
U6 U 0.21372 0.30696 0.14246 0.0
O7 O 0.22987 0.30324 0.15171 0.0
O8 O 0.21797 0.28992 0.1483 0.0
C9 C 0.22745 0.29282 0.15383 0.0
C10 C 0.19901 0.31733 0.1577 0.0
C11 C 0.23001 0.28825 0.16788 0.0
C12 C 0.23529 0.2905 0.1924 0.0
C13 C 0.23213 0.29506 0.1795 0.0
C14 C 0.23397 0.27225 0.18243 0.0
C15 C 0.23632 0.27903 0.194 0.0
C16 C 0.23089 0.27681 0.16952 0.0
C17 C 0.21972 0.30856 0.10229 0.0
C18 C 0.2332 0.29821 0.08879 0.0
C19 C 0.22154 0.3116 0.07722 0.0
C20 C 0.21651 0.31402 0.09001 0.0
C21 C 0.22991 0.30362 0.07639 0.0
C22 C 0.22812 0.30065 0.10166 0.0
C23 C 0.21401 0.31135 0.11543 0.0
O24 O 0.19733 0.30749 0.15241 0.0
O25 O 0.20927 0.32064 0.15644 0.0
O26 O 0.21969 0.31695 0.12475 0.0
O27 O 0.20788 0.3036 0.12102 0.0
H28 H 0.20046 0.33542 0.14055 0.0
H29 H 0.18605 0.34889 0.13547 0.0
H30 H 0.16361 0.33116 0.16238 0.0
H31 H 0.1781 0.31771 0.16754 0.0
H32 H 0.2369 0.29595 0.20115 0.0
H33 H 0.23149 0.30391 0.17861 0.0
H34 H 0.2348 0.2634 0.18322 0.0
H35 H 0.22937 0.27139 0.16071 0.0
H36 H 0.23959 0.292 0.0885 0.0
H37 H 0.21895 0.31609 0.06797 0.0
H38 H 0.21007 0.32019 0.09032 0.0
H39 H 0.23069 0.29636 0.11106 0.0
C40 C 0.93472 0.93836 0.40539 0.0
C41 C 0.92686 0.93972 0.39473 0.0
C42 C 0.91943 0.92143 0.39938 0.0
C43 C 0.91927 0.93138 0.39181 0.0
C44 C 0.92741 0.92009 0.40999 0.0
C45 C 0.93496 0.92848 0.41296 0.0
U46 U 0.9519 0.96249 0.39304 0.0
O47 O 0.95532 0.97857 0.40262 0.0
O48 O 0.96898 0.96738 0.39776 0.0
C49 C 0.96595 0.97669 0.40362 0.0
C50 C 0.94281 0.94709 0.40847 0.0
C51 C 0.97104 0.97929 0.41728 0.0
C52 C 0.97134 0.97844 0.4428 0.0
C53 C 0.96659 0.97542 0.42995 0.0
C54 C 0.98512 0.98907 0.4304 0.0
C55 C 0.98065 0.98535 0.44318 0.0
C56 C 0.98035 0.98607 0.41761 0.0
C57 C 0.94842 0.96965 0.35346 0.0
C58 C 0.9607 0.97864 0.33683 0.0
C59 C 0.94145 0.97614 0.33105 0.0
C60 C 0.9397 0.97112 0.34403 0.0
C61 C 0.95201 0.9798 0.32716 0.0
C62 C 0.95893 0.97359 0.34987 0.0
C63 C 0.94635 0.96335 0.36641 0.0
O64 O 0.95246 0.94591 0.40241 0.0
O65 O 0.93904 0.95722 0.40783 0.0
O66 O 0.94082 0.96841 0.37635 0.0
O67 O 0.95449 0.95729 0.3712 0.0
H68 H 0.92657 0.94725 0.38866 0.0
H69 H 0.91317 0.93281 0.38372 0.0
H70 H 0.92794 0.9125 0.41588 0.0
H71 H 0.94103 0.92723 0.42114 0.0
H72 H 0.96777 0.97532 0.45242 0.0
H73 H 0.9594 0.97014 0.42991 0.0
H74 H 0.99217 0.99452 0.43028 0.0
H75 H 0.98388 0.98918 0.40794 0.0
H76 H 0.96894 0.98133 0.33414 0.0
H77 H 0.93452 0.9771 0.324 0.0
H78 H 0.93152 0.96817 0.3466 0.0
H79 H 0.9658 0.97255 0.357 0.0
C80 C 0.32197 0.68566 0.65377 0.0
C81 C 0.32068 0.67816 0.64269 0.0
C82 C 0.33871 0.67024 0.64763 0.0
C83 C 0.32895 0.67049 0.6397 0.0
C84 C 0.34004 0.6779 0.65857 0.0
C85 C 0.33172 0.68551 0.66163 0.0
U86 U 0.29746 0.70278 0.6423 0.0
O87 O 0.28152 0.70595 0.65242 0.0
O88 O 0.29252 0.71976 0.64755 0.0
C89 C 0.2834 0.71655 0.65375 0.0
C90 C 0.31325 0.69369 0.65711 0.0
C91 C 0.28108 0.72141 0.66766 0.0
C92 C 0.27917 0.71992 0.69304 0.0
C93 C 0.28216 0.7153 0.68011 0.0
C94 C 0.27429 0.7369 0.68133 0.0
C95 C 0.27512 0.73075 0.6938 0.0
C96 C 0.27721 0.73226 0.66842 0.0
C97 C 0.28932 0.69954 0.60302 0.0
C98 C 0.27903 0.71165 0.58747 0.0
C99 C 0.28213 0.69266 0.58091 0.0
C100 C 0.28788 0.69095 0.5934 0.0
C101 C 0.27767 0.70305 0.57773 0.0
C102 C 0.28479 0.70991 0.60004 0.0
C103 C 0.29604 0.69745 0.61563 0.0
O104 O 0.31425 0.70335 0.65106 0.0
O105 O 0.30313 0.68986 0.65672 0.0
O106 O 0.29131 0.69177 0.62569 0.0
O107 O 0.30209 0.70564 0.62028 0.0
H108 H 0.31327 0.67821 0.63636 0.0
H109 H 0.32774 0.66481 0.63108 0.0
H110 H 0.34743 0.67787 0.66494 0.0
H111 H 0.33289 0.69126 0.67019 0.0
H112 H 0.28005 0.715 0.70246 0.0
H113 H 0.28518 0.70692 0.67982 0.0
H114 H 0.27108 0.74521 0.68149 0.0
H115 H 0.27627 0.73711 0.65895 0.0
H116 H 0.27561 0.71972 0.5854 0.0
H117 H 0.28141 0.6859 0.57358 0.0
H118 H 0.29139 0.68291 0.59545 0.0
H119 H 0.28578 0.71666 0.60734 0.0
C120 C 0.5745 0.07016 0.90469 0.0
C121 C 0.57766 0.07238 0.89081 0.0
C122 C 0.5899 0.08696 0.89886 0.0
C123 C 0.58527 0.08072 0.88791 0.0
C124 C 0.58668 0.08469 0.91276 0.0
C125 C 0.57904 0.07636 0.91563 0.0
U126 U 0.55745 0.04597 0.89228 0.0
O127 O 0.55444 0.02975 0.90171 0.0
O128 O 0.54053 0.0408 0.89751 0.0
C129 C 0.54384 0.03157 0.90334 0.0
C130 C 0.56663 0.06127 0.9078 0.0
C131 C 0.5391 0.02897 0.91727 0.0
C132 C 0.54101 0.02519 0.94227 0.0
C133 C 0.54566 0.02829 0.9294 0.0
C134 C 0.52314 0.02369 0.9312 0.0
C135 C 0.5297 0.02279 0.94332 0.0
C136 C 0.5278 0.02671 0.91833 0.0
C137 C 0.56047 0.03927 0.85253 0.0
C138 C 0.54949 0.02686 0.83819 0.0
C139 C 0.56635 0.03464 0.8289 0.0
C140 C 0.56801 0.04027 0.84148 0.0
C141 C 0.5571 0.02784 0.82708 0.0
C142 C 0.55119 0.03252 0.85086 0.0
C143 C 0.56256 0.04551 0.86548 0.0
O144 O 0.55686 0.06236 0.90204 0.0
O145 O 0.57062 0.05127 0.90664 0.0
O146 O 0.56833 0.04045 0.87519 0.0
O147 O 0.55431 0.05126 0.87057 0.0
H148 H 0.57428 0.06762 0.88222 0.0
H149 H 0.58767 0.08214 0.87712 0.0
H150 H 0.58998 0.08942 0.92142 0.0
H151 H 0.57669 0.07476 0.92641 0.0
H152 H 0.54627 0.02471 0.95143 0.0
H153 H 0.5544 0.03004 0.92892 0.0
H154 H 0.51444 0.02179 0.93158 0.0
H155 H 0.52259 0.02713 0.90912 0.0
H156 H 0.54233 0.02163 0.83717 0.0
H157 H 0.57226 0.03574 0.82051 0.0
H158 H 0.57519 0.0455 0.84255 0.0
H159 H 0.54529 0.03163 0.8593 0.0
C160 C 0.18964 0.68331 0.36143 0.0
C161 C 0.18836 0.67908 0.37504 0.0
C162 C 0.17281 0.66792 0.36732 0.0
C163 C 0.18004 0.67146 0.37796 0.0
C164 C 0.1741 0.67227 0.35371 0.0
C165 C 0.18245 0.67989 0.3508 0.0
U166 U 0.21304 0.70121 0.37417 0.0
O167 O 0.22963 0.70411 0.36552 0.0
O168 O 0.21822 0.71794 0.36839 0.0
C169 C 0.22774 0.71462 0.36335 0.0
C170 C 0.1985 0.6912 0.3583 0.0
C171 C 0.23088 0.71889 0.34938 0.0
C172 C 0.22622 0.72566 0.32607 0.0
C173 C 0.22299 0.72119 0.339 0.0
C174 C 0.24525 0.72534 0.33361 0.0
C175 C 0.2374 0.72783 0.32323 0.0
C176 C 0.24202 0.72095 0.34654 0.0
C177 C 0.21789 0.69988 0.41456 0.0
C178 C 0.23371 0.70611 0.42804 0.0
C179 C 0.21754 0.69917 0.44001 0.0
C180 C 0.2124 0.69745 0.42711 0.0
C181 C 0.22832 0.70336 0.44066 0.0
C182 C 0.22854 0.70435 0.41506 0.0
C183 C 0.21238 0.69715 0.40126 0.0
O184 O 0.19703 0.70115 0.36333 0.0
O185 O 0.20853 0.68747 0.36032 0.0
O186 O 0.21805 0.6912 0.39229 0.0
O187 O 0.20669 0.70506 0.39527 0.0
H188 H 0.19386 0.68163 0.38338 0.0
H189 H 0.1794 0.6682 0.3885 0.0
H190 H 0.1686 0.66986 0.34532 0.0
H191 H 0.18329 0.6831 0.34025 0.0
H192 H 0.21998 0.72735 0.31825 0.0
H193 H 0.21435 0.71961 0.34091 0.0
H194 H 0.2539 0.72702 0.33187 0.0
H195 H 0.24823 0.71926 0.35441 0.0
H196 H 0.24203 0.70932 0.4282 0.0
H197 H 0.21308 0.69716 0.44951 0.0
H198 H 0.20416 0.69403 0.42692 0.0
H199 H 0.2329 0.70628 0.40546 0.0
C200 C 0.57497 0.93887 0.61102 0.0
C201 C 0.57805 0.9366 0.62491 0.0
C202 C 0.59042 0.9221 0.61688 0.0
C203 C 0.58569 0.92829 0.62782 0.0
C204 C 0.58728 0.92443 0.60297 0.0
C205 C 0.57961 0.93274 0.60007 0.0
U206 U 0.55743 0.96241 0.62402 0.0
O207 O 0.55426 0.97887 0.61535 0.0
O208 O 0.54049 0.96752 0.61889 0.0
C209 C 0.54366 0.97704 0.61374 0.0
C210 C 0.56704 0.94772 0.60796 0.0
C211 C 0.53896 0.98009 0.60002 0.0
C212 C 0.53894 0.97951 0.57448 0.0
C213 C 0.54344 0.97621 0.58738 0.0
C214 C 0.52538 0.99049 0.58677 0.0
C215 C 0.52989 0.98676 0.57401 0.0
C216 C 0.52988 0.9872 0.59961 0.0
C217 C 0.55997 0.96755 0.66426 0.0
C218 C 0.55161 0.98217 0.67806 0.0
C219 C 0.56338 0.96871 0.6893 0.0
C220 C 0.56495 0.96347 0.67643 0.0
C221 C 0.55679 0.97819 0.69028 0.0
C222 C 0.55322 0.9769 0.6651 0.0
C223 C 0.56227 0.96195 0.6509 0.0
O224 O 0.55717 0.94636 0.61336 0.0
O225 O 0.57085 0.95775 0.60966 0.0
O226 O 0.56798 0.96753 0.64161 0.0
O227 O 0.55415 0.95628 0.64536 0.0
H228 H 0.5746 0.94131 0.63351 0.0
H229 H 0.58802 0.92683 0.63863 0.0
H230 H 0.59065 0.91975 0.59431 0.0
H231 H 0.57732 0.93438 0.58929 0.0
H232 H 0.54269 0.97655 0.56489 0.0
H233 H 0.55046 0.97071 0.58748 0.0
H234 H 0.51831 0.99591 0.58685 0.0
H235 H 0.52627 0.99024 0.60926 0.0
H236 H 0.54652 0.98948 0.67846 0.0
H237 H 0.56732 0.96529 0.69852 0.0
H238 H 0.57015 0.95623 0.67598 0.0
H239 H 0.54932 0.98017 0.65577 0.0
C240 C 0.32084 0.3243 0.86254 0.0
C241 C 0.3246 0.32573 0.87635 0.0
C242 C 0.33737 0.33995 0.86858 0.0
C243 C 0.33282 0.33345 0.87933 0.0
C244 C 0.33352 0.33852 0.85476 0.0
C245 C 0.32533 0.33075 0.85178 0.0
U246 U 0.29782 0.30568 0.87501 0.0
O247 O 0.28148 0.30212 0.86618 0.0
O248 O 0.29338 0.28872 0.86912 0.0
C249 C 0.28376 0.29168 0.86404 0.0
C250 C 0.31214 0.31623 0.85935 0.0
C251 C 0.28086 0.28715 0.85013 0.0
C252 C 0.27827 0.28907 0.82489 0.0
C253 C 0.2816 0.29347 0.83782 0.0
C254 C 0.27366 0.27192 0.83637 0.0
C255 C 0.27415 0.27825 0.82401 0.0
C256 C 0.27695 0.27633 0.84925 0.0
C257 C 0.29254 0.30657 0.91526 0.0
C258 C 0.27757 0.29792 0.92814 0.0
C259 C 0.29169 0.30798 0.94065 0.0
C260 C 0.29693 0.31033 0.92796 0.0
C261 C 0.28192 0.30178 0.94094 0.0
C262 C 0.28285 0.30029 0.91538 0.0
C263 C 0.29813 0.30965 0.90214 0.0
O264 O 0.31383 0.30626 0.86424 0.0
O265 O 0.30201 0.3197 0.86136 0.0
O266 O 0.29232 0.31543 0.89314 0.0
O267 O 0.30417 0.30201 0.89616 0.0
H268 H 0.32115 0.3209 0.88483 0.0
H269 H 0.33548 0.33445 0.8901 0.0
H270 H 0.33692 0.34331 0.84622 0.0
H271 H 0.32252 0.32977 0.84107 0.0
H272 H 0.27869 0.29423 0.81564 0.0
H273 H 0.28462 0.30185 0.83822 0.0
H274 H 0.27075 0.2635 0.8361 0.0
H275 H 0.27636 0.27129 0.85861 0.0
H276 H 0.27011 0.29304 0.92798 0.0
H277 H 0.29519 0.31127 0.95023 0.0
H278 H 0.30437 0.31524 0.92805 0.0
H279 H 0.27934 0.29731 0.90565 0.0
C280 C 0.93544 0.06964 0.11217 0.0
C281 C 0.92772 0.06827 0.12302 0.0
C282 C 0.91985 0.0863 0.11804 0.0
C283 C 0.91996 0.07649 0.12586 0.0
C284 C 0.92769 0.0877 0.10731 0.0
C285 C 0.93539 0.07943 0.10438 0.0
U286 U 0.95395 0.04646 0.12458 0.0
O287 O 0.95749 0.03019 0.11561 0.0
O288 O 0.97094 0.04197 0.11882 0.0
C289 C 0.96799 0.03237 0.11372 0.0
C290 C 0.94365 0.06103 0.10906 0.0
C291 C 0.97259 0.02944 0.09989 0.0
C292 C 0.97179 0.02925 0.07437 0.0
C293 C 0.96742 0.03256 0.08733 0.0
C294 C 0.98661 0.01985 0.08642 0.0
C295 C 0.9814 0.02276 0.07376 0.0
C296 C 0.98224 0.02315 0.09932 0.0
C297 C 0.95297 0.04039 0.16454 0.0
C298 C 0.95725 0.02353 0.17718 0.0
C299 C 0.95518 0.04066 0.18988 0.0
C300 C 0.95311 0.04615 0.17727 0.0
C301 C 0.95713 0.02926 0.19003 0.0
C302 C 0.95521 0.02906 0.16453 0.0
C303 C 0.94984 0.04634 0.15166 0.0
O304 O 0.95352 0.06271 0.11431 0.0
O305 O 0.94025 0.05083 0.11057 0.0
O306 O 0.94395 0.04087 0.14243 0.0
O307 O 0.95749 0.05251 0.14592 0.0
H308 H 0.92769 0.06085 0.12931 0.0
H309 H 0.91414 0.07522 0.13432 0.0
H310 H 0.92777 0.09512 0.10103 0.0
H311 H 0.9413 0.08067 0.09601 0.0
H312 H 0.96751 0.03157 0.06486 0.0
H313 H 0.95995 0.03742 0.08756 0.0
H314 H 0.99413 0.01505 0.08637 0.0
H315 H 0.98638 0.0207 0.10891 0.0
H316 H 0.95885 0.01477 0.17691 0.0
H317 H 0.95486 0.0453 0.19957 0.0
H318 H 0.95136 0.05488 0.1775 0.0
H319 H 0.95519 0.02445 0.1548 0.0
C320 C 0.82031 0.68535 0.86137 0.0
C321 C 0.82268 0.68232 0.87526 0.0
C322 C 0.83712 0.66992 0.86716 0.0
C323 C 0.83101 0.6747 0.87813 0.0
C324 C 0.83471 0.67301 0.85325 0.0
C325 C 0.82638 0.68066 0.85039 0.0
U326 U 0.79651 0.70264 0.87429 0.0
O327 O 0.7912 0.71946 0.86908 0.0
O328 O 0.78001 0.70558 0.86547 0.0
C329 C 0.78173 0.71618 0.86388 0.0
C330 C 0.81138 0.6932 0.85833 0.0
C331 C 0.77867 0.72081 0.85012 0.0
C332 C 0.78219 0.72392 0.82529 0.0
C333 C 0.78533 0.71938 0.83822 0.0
C334 C 0.7657 0.73131 0.83604 0.0
C335 C 0.77231 0.72994 0.82403 0.0
C336 C 0.76886 0.72679 0.84893 0.0
C337 C 0.79098 0.70017 0.91442 0.0
C338 C 0.77937 0.71163 0.92924 0.0
C339 C 0.78748 0.69497 0.9386 0.0
C340 C 0.79242 0.69289 0.92565 0.0
C341 C 0.78099 0.70441 0.94064 0.0
C342 C 0.78436 0.70953 0.91622 0.0
C343 C 0.79679 0.69783 0.90119 0.0
O344 O 0.80138 0.68929 0.85997 0.0
O345 O 0.81264 0.70305 0.86377 0.0
O346 O 0.80247 0.70595 0.89567 0.0
O347 O 0.79137 0.69202 0.89185 0.0
H348 H 0.81802 0.68581 0.88388 0.0
H349 H 0.83253 0.67241 0.88894 0.0
H350 H 0.83933 0.66959 0.84456 0.0
H351 H 0.82466 0.6829 0.83961 0.0
H352 H 0.78742 0.72261 0.81624 0.0
H353 H 0.79293 0.71474 0.83893 0.0
H354 H 0.75814 0.73602 0.83555 0.0
H355 H 0.76362 0.72802 0.85801 0.0
H356 H 0.77446 0.719 0.93047 0.0
H357 H 0.78871 0.68912 0.94703 0.0
H358 H 0.79746 0.6856 0.92443 0.0
H359 H 0.78315 0.71525 0.90764 0.0
C360 C 0.07417 0.07173 0.61183 0.0
C361 C 0.07586 0.07511 0.62575 0.0
C362 C 0.08965 0.08841 0.61807 0.0
C363 C 0.08349 0.08338 0.62883 0.0
C364 C 0.08792 0.08495 0.60413 0.0
C365 C 0.08025 0.0767 0.60106 0.0
U366 U 0.05699 0.04736 0.62355 0.0
O367 O 0.04004 0.04236 0.61829 0.0
O368 O 0.05389 0.03136 0.61357 0.0
C369 C 0.04325 0.03313 0.61238 0.0
C370 C 0.06628 0.06289 0.60851 0.0
C371 C 0.0383 0.03055 0.59864 0.0
C372 C 0.03815 0.03147 0.57312 0.0
C373 C 0.04284 0.03444 0.58603 0.0
C374 C 0.02428 0.02084 0.58533 0.0
C375 C 0.02882 0.02459 0.57261 0.0
C376 C 0.02897 0.02378 0.59818 0.0
C377 C 0.0595 0.03936 0.66291 0.0
C378 C 0.04702 0.03279 0.68111 0.0
C379 C 0.0665 0.02875 0.68264 0.0
C380 C 0.06829 0.0344 0.67008 0.0
C381 C 0.05587 0.02796 0.6884 0.0
C382 C 0.04881 0.03842 0.66847 0.0
C383 C 0.06192 0.04611 0.65035 0.0
O384 O 0.07024 0.05286 0.60941 0.0
O385 O 0.05648 0.0639 0.61422 0.0
O386 O 0.05394 0.05232 0.64541 0.0
O387 O 0.06779 0.04137 0.64047 0.0
H388 H 0.07128 0.07133 0.63423 0.0
H389 H 0.08448 0.08591 0.63965 0.0
H390 H 0.09262 0.08848 0.59559 0.0
H391 H 0.07912 0.07414 0.59026 0.0
H392 H 0.04179 0.03461 0.56355 0.0
H393 H 0.05003 0.0397 0.58617 0.0
H394 H 0.01721 0.01541 0.58537 0.0
H395 H 0.02538 0.02066 0.6078 0.0
H396 H 0.03872 0.03224 0.68519 0.0
H397 H 0.07353 0.02529 0.68807 0.0
H398 H 0.07662 0.03512 0.66612 0.0
H399 H 0.04186 0.04217 0.66321 0.0
C400 C 0.68883 0.32422 0.36141 0.0
C401 C 0.68512 0.3256 0.37525 0.0
C402 C 0.67214 0.33971 0.36761 0.0
C403 C 0.67684 0.33324 0.37831 0.0
C404 C 0.67591 0.33825 0.35374 0.0
C405 C 0.68417 0.33058 0.35069 0.0
U406 U 0.71223 0.30592 0.37364 0.0
O407 O 0.71733 0.28932 0.36724 0.0
O408 O 0.72879 0.30315 0.36481 0.0
C409 C 0.72688 0.29269 0.36234 0.0
C410 C 0.69773 0.31639 0.35816 0.0
C411 C 0.73012 0.28856 0.34835 0.0
C412 C 0.72566 0.2815 0.32511 0.0
C413 C 0.72231 0.28605 0.33795 0.0
C414 C 0.74465 0.2822 0.33276 0.0
C415 C 0.73687 0.27941 0.3224 0.0
C416 C 0.7413 0.28669 0.34557 0.0
C417 C 0.71759 0.30579 0.4139 0.0
C418 C 0.73415 0.30445 0.42821 0.0
C419 C 0.71632 0.30079 0.43856 0.0
C420 C 0.71129 0.30278 0.42561 0.0
C421 C 0.72779 0.30183 0.44011 0.0
C422 C 0.7291 0.30642 0.41522 0.0
C423 C 0.71183 0.30912 0.40091 0.0
O424 O 0.70775 0.32008 0.36041 0.0
O425 O 0.69625 0.30631 0.36278 0.0
O426 O 0.70592 0.30153 0.39462 0.0
O427 O 0.71726 0.31546 0.39213 0.0
H428 H 0.68865 0.32078 0.38369 0.0
H429 H 0.67406 0.33401 0.38907 0.0
H430 H 0.67262 0.34319 0.34526 0.0
H431 H 0.68699 0.32968 0.33996 0.0
H432 H 0.71942 0.27939 0.31745 0.0
H433 H 0.71362 0.28743 0.33983 0.0
H434 H 0.75336 0.28092 0.33097 0.0
H435 H 0.74746 0.28861 0.35342 0.0
H436 H 0.74299 0.3054 0.42904 0.0
H437 H 0.71118 0.29859 0.44742 0.0
H438 H 0.7024 0.30224 0.42485 0.0
H439 H 0.73418 0.30873 0.40635 0.0
C440 C 0.4364 0.93723 0.11303 0.0
C441 C 0.43191 0.93633 0.12655 0.0
C442 C 0.42118 0.92035 0.11933 0.0
C443 C 0.42437 0.92798 0.12967 0.0
C444 C 0.42583 0.92123 0.10583 0.0
C445 C 0.43335 0.92961 0.10271 0.0
U446 U 0.45304 0.96201 0.12448 0.0
O447 O 0.46961 0.96772 0.11867 0.0
O448 O 0.45526 0.97822 0.11451 0.0
C449 C 0.4659 0.97677 0.11275 0.0
C450 C 0.44405 0.94622 0.10958 0.0
C451 C 0.47028 0.97954 0.0987 0.0
C452 C 0.47904 0.97451 0.0766 0.0
C453 C 0.47451 0.97149 0.08959 0.0
C454 C 0.47497 0.99361 0.08154 0.0
C455 C 0.47936 0.98561 0.07244 0.0
C456 C 0.47051 0.9906 0.09452 0.0
C457 C 0.45052 0.96956 0.16405 0.0
C458 C 0.46283 0.97912 0.18012 0.0
C459 C 0.44352 0.97713 0.1859 0.0
C460 C 0.44178 0.9715 0.17333 0.0
C461 C 0.45407 0.98095 0.18952 0.0
C462 C 0.46107 0.97349 0.16746 0.0
C463 C 0.44837 0.96291 0.15139 0.0
O464 O 0.43986 0.95615 0.11054 0.0
O465 O 0.45391 0.94544 0.11519 0.0
O466 O 0.45665 0.9572 0.14625 0.0
O467 O 0.44223 0.9675 0.14167 0.0
H468 H 0.4342 0.94213 0.13467 0.0
H469 H 0.42108 0.92746 0.14022 0.0
H470 H 0.42347 0.91558 0.09758 0.0
H471 H 0.43671 0.93019 0.09221 0.0
H472 H 0.48224 0.96813 0.06979 0.0
H473 H 0.47438 0.96288 0.09252 0.0
H474 H 0.4752 1.00224 0.07876 0.0
H475 H 0.46735 0.99695 0.10139 0.0
H476 H 0.47103 0.98204 0.18253 0.0
H477 H 0.43662 0.97822 0.19297 0.0
H478 H 0.4336 0.96847 0.17096 0.0
H479 H 0.46795 0.97211 0.16045 0.0
C480 C 0.82174 0.32438 0.65249 0.0
C481 C 0.82054 0.33188 0.64137 0.0
C482 C 0.83855 0.33976 0.64648 0.0
C483 C 0.82883 0.33953 0.63845 0.0
C484 C 0.8398 0.3321 0.65744 0.0
C485 C 0.83145 0.32451 0.66044 0.0
U486 U 0.79804 0.30615 0.64083 0.0
O487 O 0.7931 0.28949 0.64722 0.0
O488 O 0.78169 0.3033 0.6502 0.0
C489 C 0.78368 0.29284 0.65255 0.0
C490 C 0.81296 0.31641 0.65584 0.0
C491 C 0.78075 0.28869 0.66667 0.0
C492 C 0.78558 0.28032 0.68908 0.0
C493 C 0.78874 0.28477 0.67611 0.0
C494 C 0.76646 0.28388 0.68351 0.0
C495 C 0.77439 0.27977 0.69291 0.0
C496 C 0.76962 0.28826 0.67054 0.0
C497 C 0.79169 0.3065 0.60092 0.0
C498 C 0.77475 0.30157 0.58883 0.0
C499 C 0.79151 0.30446 0.57555 0.0
C500 C 0.79717 0.3067 0.58799 0.0
C501 C 0.7802 0.30199 0.57578 0.0
C502 C 0.78045 0.30379 0.60131 0.0
C503 C 0.7978 0.30971 0.61362 0.0
O504 O 0.80282 0.32001 0.6543 0.0
O505 O 0.81441 0.30643 0.65087 0.0
O506 O 0.80381 0.30201 0.61953 0.0
O507 O 0.79252 0.3159 0.62272 0.0
H508 H 0.81317 0.33185 0.63496 0.0
H509 H 0.82769 0.34521 0.62982 0.0
H510 H 0.84715 0.33212 0.66388 0.0
H511 H 0.83255 0.31878 0.66903 0.0
H512 H 0.7919 0.27735 0.69614 0.0
H513 H 0.7974 0.28505 0.67344 0.0
H514 H 0.75778 0.28346 0.68602 0.0
H515 H 0.76331 0.29118 0.66341 0.0
H516 H 0.76607 0.29958 0.58939 0.0
H517 H 0.79594 0.30502 0.56572 0.0
H518 H 0.80583 0.30882 0.58747 0.0
H519 H 0.77607 0.30355 0.6112 0.0
C520 C 0.43636 0.07031 0.40537 0.0
C521 C 0.43594 0.07532 0.3921 0.0
C522 C 0.42063 0.08686 0.39967 0.0
C523 C 0.42819 0.08356 0.38931 0.0
C524 C 0.42105 0.08176 0.41293 0.0
C525 C 0.42886 0.07358 0.41575 0.0
U526 U 0.45456 0.0471 0.39242 0.0
O527 O 0.47148 0.04225 0.39803 0.0
O528 O 0.45785 0.03064 0.40104 0.0
C529 C 0.46839 0.03264 0.40295 0.0
C530 C 0.44436 0.06147 0.40835 0.0
C531 C 0.47294 0.02952 0.41673 0.0
C532 C 0.47279 0.0301 0.44227 0.0
C533 C 0.46838 0.0334 0.42933 0.0
C534 C 0.48643 0.01911 0.43012 0.0
C535 C 0.48185 0.02285 0.44283 0.0
C536 C 0.48201 0.02241 0.41724 0.0
C537 C 0.45319 0.04203 0.35213 0.0
C538 C 0.45863 0.02581 0.33887 0.0
C539 C 0.45284 0.0423 0.32666 0.0
C540 C 0.45129 0.0476 0.3395 0.0
C541 C 0.45634 0.03128 0.32617 0.0
C542 C 0.45704 0.03114 0.35178 0.0
C543 C 0.45039 0.04762 0.36536 0.0
O544 O 0.44071 0.05143 0.40631 0.0
O545 O 0.45434 0.06302 0.40338 0.0
O546 O 0.45822 0.05348 0.37126 0.0
O547 O 0.44452 0.04196 0.37442 0.0
H548 H 0.44156 0.07283 0.38387 0.0
H549 H 0.42799 0.08721 0.37894 0.0
H550 H 0.4154 0.08418 0.42117 0.0
H551 H 0.42902 0.06978 0.42603 0.0
H552 H 0.46899 0.03306 0.45183 0.0
H553 H 0.46137 0.03891 0.42915 0.0
H554 H 0.49351 0.0137 0.4301 0.0
H555 H 0.48569 0.01938 0.40762 0.0
H556 H 0.46129 0.01731 0.33885 0.0
H557 H 0.45119 0.04681 0.31709 0.0
H558 H 0.44834 0.05601 0.33957 0.0
H559 H 0.45856 0.0267 0.36144 0.0
C560 C 0.68922 0.68441 0.15395 0.0
C561 C 0.68728 0.68118 0.14003 0.0
C562 C 0.67265 0.66883 0.14773 0.0
C563 C 0.67907 0.67347 0.13695 0.0
C564 C 0.6746 0.67217 0.16167 0.0
C565 C 0.68282 0.67988 0.16473 0.0
U566 U 0.71245 0.70277 0.14163 0.0
O567 O 0.71741 0.71947 0.14786 0.0
O568 O 0.72899 0.70574 0.15036 0.0
C569 C 0.72701 0.71621 0.1527 0.0
C570 C 0.698 0.69234 0.15724 0.0
C571 C 0.73019 0.7204 0.16666 0.0
C572 C 0.72589 0.72519 0.19086 0.0
C573 C 0.72268 0.72081 0.17787 0.0
C574 C 0.74416 0.7286 0.18164 0.0
C575 C 0.73667 0.72917 0.1929 0.0
C576 C 0.74094 0.72427 0.16868 0.0
C577 C 0.71775 0.70243 0.10147 0.0
C578 C 0.73368 0.70967 0.08908 0.0
C579 C 0.71818 0.70248 0.076 0.0
C580 C 0.71275 0.70013 0.08856 0.0
C581 C 0.72876 0.7072 0.07606 0.0
C582 C 0.72821 0.70731 0.1017 0.0
C583 C 0.71198 0.69922 0.11443 0.0
O584 O 0.70807 0.68875 0.15511 0.0
O585 O 0.69643 0.70236 0.15245 0.0
O586 O 0.70612 0.7069 0.12061 0.0
O587 O 0.71759 0.6931 0.12328 0.0
H588 H 0.69213 0.68461 0.13155 0.0
H589 H 0.6777 0.67122 0.12609 0.0
H590 H 0.66991 0.66868 0.17025 0.0
H591 H 0.68424 0.68225 0.17554 0.0
H592 H 0.71995 0.72539 0.19934 0.0
H593 H 0.71435 0.71781 0.17655 0.0
H594 H 0.75246 0.73171 0.18275 0.0
H595 H 0.74684 0.72405 0.16015 0.0
H596 H 0.74177 0.71341 0.08952 0.0
H597 H 0.71421 0.70028 0.06622 0.0
H598 H 0.7047 0.69631 0.0882 0.0
H599 H 0.73219 0.70917 0.11159 0.0
C600 C 0.07413 0.93853 0.90428 0.0
C601 C 0.07964 0.93838 0.89133 0.0
C602 C 0.08973 0.92193 0.89832 0.0
C603 C 0.08739 0.93018 0.8884 0.0
C604 C 0.08409 0.92207 0.91123 0.0
C605 C 0.07637 0.93031 0.91418 0.0
U606 U 0.0558 0.96175 0.89179 0.0
O607 O 0.03882 0.96634 0.89748 0.0
O608 O 0.05233 0.97806 0.90071 0.0
C609 C 0.04181 0.97593 0.90257 0.0
C610 C 0.066 0.94719 0.90745 0.0
C611 C 0.03719 0.9789 0.91637 0.0
C612 C 0.03792 0.9791 0.9419 0.0
C613 C 0.04233 0.97578 0.92896 0.0
C614 C 0.02313 0.98849 0.92978 0.0
C615 C 0.0283 0.98558 0.94247 0.0
C616 C 0.02754 0.98519 0.9169 0.0
C617 C 0.05688 0.96755 0.85167 0.0
C618 C 0.05493 0.98427 0.83782 0.0
C619 C 0.05333 0.96648 0.8266 0.0
C620 C 0.05503 0.96132 0.83952 0.0
C621 C 0.05349 0.97802 0.82552 0.0
C622 C 0.05662 0.97909 0.85078 0.0
C623 C 0.05991 0.96174 0.86472 0.0
O624 O 0.06952 0.95733 0.90575 0.0
O625 O 0.05612 0.94557 0.90222 0.0
O626 O 0.05224 0.95562 0.87049 0.0
O627 O 0.06582 0.96722 0.87391 0.0
H628 H 0.07794 0.94461 0.8835 0.0
H629 H 0.09146 0.93024 0.87828 0.0
H630 H 0.08577 0.9159 0.91915 0.0
H631 H 0.07218 0.93028 0.92422 0.0
H632 H 0.04217 0.97677 0.95144 0.0
H633 H 0.0498 0.97091 0.92877 0.0
H634 H 0.01562 0.99329 0.92979 0.0
H635 H 0.02343 0.98763 0.9073 0.0
H636 H 0.05517 0.99317 0.83735 0.0
H637 H 0.05204 0.96141 0.8174 0.0
H638 H 0.05518 0.95242 0.83996 0.0
H639 H 0.05802 0.98409 0.86001 0.0
C640 C 0.68966 0.82473 0.65513 0.0
C641 C 0.68682 0.82693 0.64114 0.0
C642 C 0.67281 0.84 0.6488 0.0
C643 C 0.67846 0.83446 0.638 0.0
C644 C 0.6757 0.83773 0.66283 0.0
C645 C 0.68405 0.83016 0.66594 0.0
U646 U 0.71394 0.80771 0.64301 0.0
O647 O 0.7303 0.80501 0.65236 0.0
O648 O 0.71937 0.79098 0.64847 0.0
C649 C 0.72872 0.79439 0.6539 0.0
C650 C 0.69864 0.817 0.65845 0.0
C651 C 0.73168 0.78978 0.6677 0.0
C652 C 0.72801 0.7867 0.69251 0.0
C653 C 0.72494 0.79121 0.67953 0.0
C654 C 0.74458 0.77932 0.68193 0.0
C655 C 0.7379 0.78071 0.69387 0.0
C656 C 0.74149 0.78381 0.669 0.0
C657 C 0.72048 0.81006 0.60312 0.0
C658 C 0.72938 0.79748 0.58678 0.0
C659 C 0.72709 0.81665 0.58056 0.0
C660 C 0.72204 0.81863 0.59349 0.0
C661 C 0.73067 0.80603 0.57693 0.0
C662 C 0.72431 0.79948 0.59977 0.0
C663 C 0.71426 0.8124 0.61608 0.0
O664 O 0.69763 0.80711 0.65303 0.0
O665 O 0.70862 0.82105 0.65709 0.0
O666 O 0.71931 0.81837 0.62559 0.0
O667 O 0.70846 0.80429 0.62146 0.0
H668 H 0.69109 0.82283 0.63263 0.0
H669 H 0.67637 0.83587 0.6271 0.0
H670 H 0.67165 0.84194 0.67141 0.0
H671 H 0.68619 0.82862 0.67681 0.0
H672 H 0.72273 0.78801 0.70151 0.0
H673 H 0.71734 0.79583 0.67873 0.0
H674 H 0.75214 0.77463 0.6825 0.0
H675 H 0.74678 0.78259 0.65998 0.0
H676 H 0.73199 0.78919 0.5843 0.0
H677 H 0.72815 0.82347 0.57338 0.0
H678 H 0.71918 0.82686 0.59587 0.0
H679 H 0.7232 0.79272 0.60705 0.0
C680 C 0.43563 0.43852 0.90559 0.0
C681 C 0.43157 0.43721 0.89191 0.0
C682 C 0.4201 0.42187 0.89954 0.0
C683 C 0.42388 0.42898 0.88891 0.0
C684 C 0.42429 0.42318 0.91323 0.0
C685 C 0.43197 0.43144 0.91622 0.0
U686 U 0.45288 0.46231 0.89285 0.0
O687 O 0.45599 0.47869 0.90181 0.0
O688 O 0.46981 0.4675 0.89778 0.0
C689 C 0.46662 0.47694 0.90314 0.0
C690 C 0.44357 0.44733 0.90876 0.0
C691 C 0.47145 0.47989 0.91682 0.0
C692 C 0.47323 0.4774 0.94206 0.0
C693 C 0.46854 0.47433 0.92919 0.0
C694 C 0.48377 0.49157 0.93029 0.0
C695 C 0.48093 0.48606 0.94277 0.0
C696 C 0.47908 0.48851 0.91748 0.0
C697 C 0.44985 0.46799 0.85281 0.0
C698 C 0.4591 0.48199 0.83889 0.0
C699 C 0.44553 0.47009 0.8281 0.0
C700 C 0.44395 0.46475 0.84089 0.0
C701 C 0.45306 0.47883 0.82692 0.0
C702 C 0.45748 0.47662 0.85177 0.0
C703 C 0.44773 0.46216 0.86606 0.0
O704 O 0.45337 0.44609 0.90313 0.0
O705 O 0.4397 0.45737 0.9074 0.0
O706 O 0.44207 0.46757 0.87558 0.0
O707 O 0.45595 0.45649 0.87133 0.0
H708 H 0.43433 0.44259 0.88355 0.0
H709 H 0.42097 0.42812 0.87823 0.0
H710 H 0.42147 0.41794 0.92169 0.0
H711 H 0.435 0.43235 0.92685 0.0
H712 H 0.47093 0.47291 0.95142 0.0
H713 H 0.46267 0.46763 0.92888 0.0
H714 H 0.4895 0.49839 0.93044 0.0
H715 H 0.48138 0.49293 0.90805 0.0
H716 H 0.46492 0.48872 0.83834 0.0
H717 H 0.4409 0.46729 0.81906 0.0
H718 H 0.43807 0.45807 0.84149 0.0
H719 H 0.46211 0.47922 0.8609 0.0
C720 C 0.82042 0.18393 0.15375 0.0
C721 C 0.81907 0.17635 0.14276 0.0
C722 C 0.83706 0.16836 0.14773 0.0
C723 C 0.82728 0.1686 0.13984 0.0
C724 C 0.83844 0.17605 0.15863 0.0
C725 C 0.83017 0.18373 0.16163 0.0
U726 U 0.79741 0.20265 0.14134 0.0
O727 O 0.78117 0.20646 0.1503 0.0
O728 O 0.79319 0.21972 0.14707 0.0
C729 C 0.78358 0.21689 0.15229 0.0
C730 C 0.81186 0.19219 0.15687 0.0
C731 C 0.78079 0.22154 0.16618 0.0
C732 C 0.77766 0.21966 0.19132 0.0
C733 C 0.78098 0.21514 0.17845 0.0
C734 C 0.77419 0.2371 0.17986 0.0
C735 C 0.77411 0.23068 0.19217 0.0
C736 C 0.77747 0.23256 0.16703 0.0
C737 C 0.79168 0.20161 0.10116 0.0
C738 C 0.77507 0.20524 0.08762 0.0
C739 C 0.79271 0.20397 0.07588 0.0
C740 C 0.79785 0.2021 0.08876 0.0
C741 C 0.78123 0.20536 0.07509 0.0
C742 C 0.78025 0.20336 0.10056 0.0
C743 C 0.79735 0.19852 0.11427 0.0
O744 O 0.81365 0.20204 0.15166 0.0
O745 O 0.80162 0.18889 0.15532 0.0
O746 O 0.79167 0.19278 0.12346 0.0
O747 O 0.8036 0.20609 0.12003 0.0
H748 H 0.81168 0.17643 0.1364 0.0
H749 H 0.82604 0.16289 0.13126 0.0
H750 H 0.84584 0.17602 0.16496 0.0
H751 H 0.8314 0.18954 0.1701 0.0
H752 H 0.77762 0.21444 0.20052 0.0
H753 H 0.78353 0.20661 0.17807 0.0
H754 H 0.77174 0.24566 0.18013 0.0
H755 H 0.7773 0.23766 0.15771 0.0
H756 H 0.76621 0.20624 0.08738 0.0
H757 H 0.79773 0.20422 0.06649 0.0
H758 H 0.80668 0.20079 0.089 0.0
H759 H 0.7753 0.20303 0.11001 0.0
C760 C 0.07484 0.56906 0.40493 0.0
C761 C 0.07592 0.57313 0.39121 0.0
C762 C 0.0905 0.5856 0.39877 0.0
C763 C 0.08363 0.58134 0.38817 0.0
C764 C 0.08937 0.58145 0.41251 0.0
C765 C 0.08162 0.57327 0.41554 0.0
U766 U 0.05639 0.54599 0.39238 0.0
O767 O 0.05306 0.52956 0.40109 0.0
O768 O 0.03951 0.54129 0.39829 0.0
C769 C 0.04256 0.53165 0.40317 0.0
C770 C 0.06686 0.56028 0.40813 0.0
C771 C 0.03813 0.52863 0.41705 0.0
C772 C 0.03798 0.53004 0.44252 0.0
C773 C 0.04237 0.53313 0.42948 0.0
C774 C 0.02508 0.51797 0.43078 0.0
C775 C 0.02925 0.52242 0.44333 0.0
C776 C 0.02947 0.52104 0.4178 0.0
C777 C 0.05699 0.54097 0.35204 0.0
C778 C 0.05347 0.52451 0.33823 0.0
C779 C 0.05453 0.54226 0.32679 0.0
C780 C 0.05639 0.54728 0.33976 0.0
C781 C 0.05325 0.53079 0.32581 0.0
C782 C 0.05534 0.52955 0.35125 0.0
C783 C 0.06014 0.5465 0.36523 0.0
O784 O 0.05683 0.5619 0.40336 0.0
O785 O 0.07043 0.55022 0.40598 0.0
O786 O 0.06612 0.54079 0.37412 0.0
O787 O 0.05252 0.55249 0.37134 0.0
H788 H 0.07079 0.56996 0.38284 0.0
H789 H 0.08413 0.58442 0.37753 0.0
H790 H 0.09462 0.58438 0.42089 0.0
H791 H 0.08096 0.57016 0.42617 0.0
H792 H 0.04132 0.53371 0.45195 0.0
H793 H 0.04904 0.53904 0.4291 0.0
H794 H 0.0185 0.51196 0.43099 0.0
H795 H 0.02612 0.51745 0.40831 0.0
H796 H 0.05258 0.51565 0.33783 0.0
H797 H 0.0542 0.54738 0.3175 0.0
H798 H 0.05762 0.5561 0.34015 0.0
H799 H 0.05577 0.52451 0.3606 0.0
C800 C 0.68905 0.18451 0.86155 0.0
C801 C 0.68611 0.18244 0.87554 0.0
C802 C 0.67217 0.1693 0.8679 0.0
C803 C 0.67774 0.17492 0.87869 0.0
C804 C 0.67516 0.17145 0.85388 0.0
C805 C 0.68352 0.17899 0.85075 0.0
U806 U 0.71286 0.20244 0.87334 0.0
O807 O 0.72934 0.20494 0.86412 0.0
O808 O 0.71814 0.21896 0.8668 0.0
C809 C 0.72753 0.21542 0.86161 0.0
C810 C 0.69801 0.19222 0.85816 0.0
C811 C 0.73057 0.21941 0.84746 0.0
C812 C 0.72589 0.22766 0.82492 0.0
C813 C 0.72264 0.22327 0.83789 0.0
C814 C 0.74497 0.22414 0.83073 0.0
C815 C 0.7371 0.22821 0.82122 0.0
C816 C 0.74173 0.21982 0.8437 0.0
C817 C 0.71885 0.20257 0.91336 0.0
C818 C 0.73591 0.20531 0.9263 0.0
C819 C 0.71839 0.20662 0.93835 0.0
C820 C 0.71291 0.20445 0.92575 0.0
C821 C 0.72996 0.20692 0.93883 0.0
C822 C 0.7304 0.20319 0.91367 0.0
C823 C 0.71278 0.19927 0.90063 0.0
O824 O 0.69672 0.2023 0.86286 0.0
O825 O 0.708 0.18838 0.86021 0.0
O826 O 0.718 0.19284 0.89174 0.0
O827 O 0.70691 0.20695 0.89445 0.0
H828 H 0.69031 0.18663 0.88403 0.0
H829 H 0.67558 0.17359 0.88959 0.0
H830 H 0.67117 0.16717 0.84531 0.0
H831 H 0.68573 0.18044 0.83989 0.0
H832 H 0.71961 0.2306 0.81778 0.0
H833 H 0.71396 0.22301 0.84047 0.0
H834 H 0.75367 0.22454 0.82831 0.0
H835 H 0.74799 0.21694 0.85093 0.0
H836 H 0.74482 0.20563 0.92628 0.0
H837 H 0.71356 0.20768 0.9478 0.0
H838 H 0.704 0.20396 0.92576 0.0
H839 H 0.73517 0.20181 0.90422 0.0
C840 C 0.07479 0.43914 0.11203 0.0
C841 C 0.08118 0.43981 0.12427 0.0
C842 C 0.09043 0.42263 0.1183 0.0
C843 C 0.08896 0.43167 0.12735 0.0
C844 C 0.0839 0.42194 0.10613 0.0
C845 C 0.07617 0.43014 0.10302 0.0
U846 U 0.05617 0.46241 0.12385 0.0
O847 O 0.05261 0.47856 0.1145 0.0
O848 O 0.03918 0.46677 0.11785 0.0
C849 C 0.04213 0.47631 0.11257 0.0
C850 C 0.0666 0.44771 0.10868 0.0
C851 C 0.03751 0.47912 0.09869 0.0
C852 C 0.03895 0.48062 0.07327 0.0
C853 C 0.04338 0.47731 0.0862 0.0
C854 C 0.02268 0.48736 0.08516 0.0
C855 C 0.02858 0.4858 0.0726 0.0
C856 C 0.02711 0.48407 0.09804 0.0
C857 C 0.05675 0.46893 0.16375 0.0
C858 C 0.05388 0.48595 0.17669 0.0
C859 C 0.0528 0.46846 0.18876 0.0
C860 C 0.05498 0.463 0.17616 0.0
C861 C 0.05237 0.48001 0.18924 0.0
C862 C 0.05602 0.48046 0.16405 0.0
C863 C 0.06003 0.46287 0.15098 0.0
O864 O 0.05671 0.44608 0.11385 0.0
O865 O 0.07002 0.45791 0.11014 0.0
O866 O 0.06599 0.46824 0.14172 0.0
O867 O 0.05248 0.45657 0.14525 0.0
H868 H 0.08016 0.44664 0.13146 0.0
H869 H 0.09374 0.43237 0.13689 0.0
H870 H 0.08489 0.41515 0.09889 0.0
H871 H 0.07128 0.42946 0.09354 0.0
H872 H 0.04377 0.47936 0.06384 0.0
H873 H 0.05143 0.47348 0.08646 0.0
H874 H 0.01459 0.49111 0.08506 0.0
H875 H 0.02242 0.4855 0.10755 0.0
H876 H 0.05347 0.49485 0.17666 0.0
H877 H 0.05182 0.46363 0.19823 0.0
H878 H 0.05556 0.4541 0.17619 0.0
H879 H 0.05731 0.48523 0.15459 0.0
C880 C 0.81981 0.82423 0.3621 0.0
C881 C 0.81996 0.82976 0.37503 0.0
C882 C 0.83679 0.83939 0.36833 0.0
C883 C 0.82833 0.83729 0.37809 0.0
C884 C 0.83663 0.83373 0.35543 0.0
C885 C 0.82822 0.82623 0.35235 0.0
U886 U 0.79632 0.80601 0.37414 0.0
O887 O 0.77981 0.80322 0.36523 0.0
O888 O 0.79127 0.78939 0.36772 0.0
C889 C 0.78171 0.79274 0.36283 0.0
C890 C 0.81096 0.81637 0.35876 0.0
C891 C 0.77856 0.78864 0.34883 0.0
C892 C 0.78289 0.78393 0.32461 0.0
C893 C 0.78609 0.78824 0.33765 0.0
C894 C 0.7646 0.78055 0.33374 0.0
C895 C 0.7721 0.78 0.3225 0.0
C896 C 0.7678 0.78481 0.34674 0.0
C897 C 0.79073 0.80603 0.41426 0.0
C898 C 0.77393 0.80192 0.42714 0.0
C899 C 0.79132 0.80308 0.43948 0.0
C900 C 0.79668 0.80534 0.42683 0.0
C901 C 0.77985 0.80147 0.43984 0.0
C902 C 0.77932 0.80416 0.41445 0.0
C903 C 0.7966 0.80934 0.40139 0.0
O904 O 0.81244 0.80633 0.36353 0.0
O905 O 0.8009 0.82002 0.36076 0.0
O906 O 0.79116 0.81561 0.39254 0.0
O907 O 0.80251 0.8017 0.39518 0.0
H908 H 0.81355 0.8283 0.38272 0.0
H909 H 0.82808 0.84158 0.38804 0.0
H910 H 0.84308 0.83499 0.34775 0.0
H911 H 0.82828 0.82198 0.34236 0.0
H912 H 0.78885 0.78375 0.31615 0.0
H913 H 0.79443 0.7912 0.33902 0.0
H914 H 0.75628 0.77747 0.33258 0.0
H915 H 0.76188 0.78502 0.35524 0.0
H916 H 0.76511 0.8006 0.42703 0.0
H917 H 0.79613 0.80295 0.44904 0.0
H918 H 0.80548 0.80681 0.42692 0.0
H919 H 0.77457 0.80461 0.40485 0.0
C920 C 0.43638 0.57074 0.61258 0.0
C921 C 0.42854 0.56937 0.62328 0.0
C922 C 0.42096 0.58754 0.61843 0.0
C923 C 0.42087 0.57766 0.62612 0.0
C924 C 0.42893 0.58894 0.60787 0.0
C925 C 0.43655 0.5806 0.60494 0.0
U926 U 0.45355 0.54657 0.62486 0.0
O927 O 0.45683 0.53046 0.61529 0.0
O928 O 0.47058 0.54158 0.61996 0.0
C929 C 0.46745 0.53232 0.61406 0.0
C930 C 0.44448 0.56201 0.60948 0.0
C931 C 0.47236 0.5298 0.60026 0.0
C932 C 0.47161 0.52951 0.57473 0.0
C933 C 0.467 0.53252 0.58767 0.0
C934 C 0.48709 0.52126 0.58681 0.0
C935 C 0.48169 0.52379 0.57414 0.0
C936 C 0.48245 0.52422 0.59972 0.0
C937 C 0.44996 0.53948 0.66443 0.0
C938 C 0.46059 0.52663 0.67856 0.0
C939 C 0.44421 0.53515 0.68819 0.0
C940 C 0.44263 0.54083 0.67562 0.0
C941 C 0.45318 0.52795 0.68983 0.0
C942 C 0.45897 0.53234 0.66592 0.0
C943 C 0.448 0.54581 0.65151 0.0
O944 O 0.45413 0.56316 0.61553 0.0
O945 O 0.4407 0.55189 0.61011 0.0
O946 O 0.44244 0.54078 0.64157 0.0
O947 O 0.45628 0.55167 0.64673 0.0
H948 H 0.42835 0.56189 0.62944 0.0
H949 H 0.41494 0.57639 0.63446 0.0
H950 H 0.42917 0.59643 0.60171 0.0
H951 H 0.44257 0.58183 0.59669 0.0
H952 H 0.46731 0.5317 0.56518 0.0
H953 H 0.45922 0.53687 0.58784 0.0
H954 H 0.49477 0.51675 0.58679 0.0
H955 H 0.4867 0.52202 0.60931 0.0
H956 H 0.46753 0.52109 0.67946 0.0
H957 H 0.43846 0.53653 0.6967 0.0
H958 H 0.43567 0.54636 0.67469 0.0
H959 H 0.46472 0.53119 0.65735 0.0
C960 C 0.32148 0.1847 0.36347 0.0
C961 C 0.32183 0.17961 0.37668 0.0
C962 C 0.33815 0.16924 0.36977 0.0
C963 C 0.33006 0.17193 0.37979 0.0
C964 C 0.33782 0.17448 0.3566 0.0
C965 C 0.32955 0.18213 0.35348 0.0
U966 U 0.29801 0.20307 0.37528 0.0
O967 O 0.29308 0.21973 0.36883 0.0
O968 O 0.28158 0.20596 0.36614 0.0
C969 C 0.28359 0.21641 0.36368 0.0
C970 C 0.31272 0.19265 0.36005 0.0
C971 C 0.28058 0.2205 0.34957 0.0
C972 C 0.2854 0.22779 0.32654 0.0
C973 C 0.28857 0.22344 0.33957 0.0
C974 C 0.26625 0.22609 0.33321 0.0
C975 C 0.27419 0.22921 0.32322 0.0
C976 C 0.26942 0.22181 0.34623 0.0
C977 C 0.29232 0.20269 0.41545 0.0
C978 C 0.27654 0.21028 0.42783 0.0
C979 C 0.29169 0.20238 0.44092 0.0
C980 C 0.29713 0.20003 0.42836 0.0
C981 C 0.28129 0.20749 0.44085 0.0
C982 C 0.28202 0.20791 0.41521 0.0
C983 C 0.29814 0.19955 0.40251 0.0
O984 O 0.30262 0.18906 0.36193 0.0
O985 O 0.31422 0.20266 0.36489 0.0
O986 O 0.30403 0.20725 0.39642 0.0
O987 O 0.29262 0.19345 0.39357 0.0
H988 H 0.31571 0.18156 0.38458 0.0
H989 H 0.33016 0.16817 0.3901 0.0
H990 H 0.34385 0.17252 0.3486 0.0
H991 H 0.32941 0.18598 0.34323 0.0
H992 H 0.29173 0.22998 0.31904 0.0
H993 H 0.29725 0.22245 0.34185 0.0
H994 H 0.25755 0.2272 0.3311 0.0
H995 H 0.26311 0.21965 0.35379 0.0
H996 H 0.26859 0.21431 0.42738 0.0
H997 H 0.29554 0.19993 0.45068 0.0
H998 H 0.30506 0.19595 0.42873 0.0
H999 H 0.27818 0.21004 0.40532 0.0
C1000 C 0.57498 0.56958 0.11118 0.0
C1001 C 0.5771 0.57276 0.12508 0.0
C1002 C 0.59062 0.58617 0.11702 0.0
C1003 C 0.58482 0.58099 0.12798 0.0
C1004 C 0.58847 0.58293 0.1031 0.0
C1005 C 0.58071 0.57472 0.10022 0.0
U1006 U 0.55659 0.54655 0.12401 0.0
O1007 O 0.53968 0.54184 0.11827 0.0
O1008 O 0.55321 0.5301 0.11536 0.0
C1009 C 0.5427 0.53218 0.1134 0.0
C1010 C 0.56696 0.56083 0.10811 0.0
C1011 C 0.53817 0.52909 0.09961 0.0
C1012 C 0.53661 0.53155 0.07434 0.0
C1013 C 0.54117 0.53465 0.08728 0.0
C1014 C 0.52606 0.51732 0.08597 0.0
C1015 C 0.52896 0.52286 0.07353 0.0
C1016 C 0.53061 0.52041 0.09885 0.0
C1017 C 0.5574 0.54146 0.1643 0.0
C1018 C 0.55379 0.52495 0.17802 0.0
C1019 C 0.55502 0.54264 0.18958 0.0
C1020 C 0.55689 0.5477 0.17664 0.0
C1021 C 0.55365 0.53118 0.19048 0.0
C1022 C 0.55566 0.53005 0.16503 0.0
C1023 C 0.56049 0.54702 0.15113 0.0
O1024 O 0.57053 0.55076 0.11023 0.0
O1025 O 0.55699 0.56247 0.11305 0.0
O1026 O 0.55284 0.55303 0.14509 0.0
O1027 O 0.56644 0.54134 0.14217 0.0
H1028 H 0.57282 0.56882 0.1337 0.0
H1029 H 0.58638 0.58317 0.13881 0.0
H1030 H 0.59269 0.58682 0.09441 0.0
H1031 H 0.57918 0.57236 0.08943 0.0
H1032 H 0.53896 0.53605 0.06501 0.0
H1033 H 0.54698 0.5414 0.08768 0.0
H1034 H 0.52035 0.51048 0.08575 0.0
H1035 H 0.52823 0.516 0.10825 0.0
H1036 H 0.55282 0.5161 0.17835 0.0
H1037 H 0.55475 0.54771 0.19891 0.0
H1038 H 0.55818 0.55652 0.1763 0.0
H1039 H 0.55601 0.52505 0.15563 0.0
C1040 C 0.18883 0.82399 0.8625 0.0
C1041 C 0.18364 0.82413 0.87568 0.0
C1042 C 0.17222 0.83962 0.86843 0.0
C1043 C 0.17537 0.83182 0.87858 0.0
C1044 C 0.17749 0.83948 0.85527 0.0
C1045 C 0.18569 0.83172 0.85233 0.0
U1046 U 0.21293 0.80651 0.87463 0.0
O1047 O 0.21785 0.78956 0.86925 0.0
O1048 O 0.22908 0.80332 0.86504 0.0
C1049 C 0.22714 0.79275 0.86344 0.0
C1050 C 0.1977 0.81606 0.85936 0.0
C1051 C 0.22968 0.78802 0.84952 0.0
C1052 C 0.2317 0.78963 0.82417 0.0
C1053 C 0.22866 0.79419 0.83712 0.0
C1054 C 0.23653 0.77259 0.83578 0.0
C1055 C 0.23573 0.77879 0.82335 0.0
C1056 C 0.23355 0.77717 0.84871 0.0
C1057 C 0.21978 0.80911 0.91447 0.0
C1058 C 0.22932 0.79676 0.93051 0.0
C1059 C 0.2258 0.81563 0.93731 0.0
C1060 C 0.22074 0.81755 0.92439 0.0
C1061 C 0.23 0.80517 0.94064 0.0
C1062 C 0.22422 0.79871 0.91752 0.0
C1063 C 0.21359 0.81138 0.90149 0.0
O1064 O 0.20776 0.81992 0.86053 0.0
O1065 O 0.19654 0.8062 0.86484 0.0
O1066 O 0.20761 0.80333 0.89632 0.0
O1067 O 0.21873 0.81714 0.89183 0.0
H1068 H 0.18602 0.81833 0.88376 0.0
H1069 H 0.17158 0.8318 0.88887 0.0
H1070 H 0.17519 0.84531 0.84719 0.0
H1071 H 0.18962 0.83178 0.84213 0.0
H1072 H 0.23085 0.79459 0.81478 0.0
H1073 H 0.22562 0.80256 0.83745 0.0
H1074 H 0.23971 0.76428 0.83558 0.0
H1075 H 0.23443 0.77227 0.85815 0.0
H1076 H 0.23244 0.78861 0.93277 0.0
H1077 H 0.22638 0.82235 0.94473 0.0
H1078 H 0.2174 0.82564 0.92223 0.0
H1079 H 0.22358 0.79206 0.91 0.0
C1080 C 0.93677 0.43894 0.61272 0.0
C1081 C 0.92897 0.44029 0.62348 0.0
C1082 C 0.92116 0.42227 0.61834 0.0
C1083 C 0.9212 0.43206 0.6262 0.0
C1084 C 0.92908 0.4209 0.6077 0.0
C1085 C 0.93679 0.42918 0.60489 0.0
U1086 U 0.95502 0.46215 0.62555 0.0
O1087 O 0.9721 0.46666 0.62025 0.0
O1088 O 0.95869 0.47842 0.6166 0.0
C1089 C 0.96922 0.47623 0.61499 0.0
C1090 C 0.94502 0.44756 0.60978 0.0
C1091 C 0.97396 0.47901 0.6012 0.0
C1092 C 0.97431 0.47753 0.57573 0.0
C1093 C 0.96978 0.47452 0.58872 0.0
C1094 C 0.98727 0.48947 0.58759 0.0
C1095 C 0.98312 0.48506 0.575 0.0
C1096 C 0.98273 0.48647 0.60053 0.0
C1097 C 0.95315 0.46805 0.66551 0.0
C1098 C 0.96175 0.48315 0.67814 0.0
C1099 C 0.95144 0.4693 0.69084 0.0
C1100 C 0.9492 0.46389 0.67825 0.0
C1101 C 0.95773 0.47902 0.69098 0.0
C1102 C 0.95949 0.47769 0.66549 0.0
C1103 C 0.95033 0.4622 0.65249 0.0
O1104 O 0.94157 0.45776 0.61117 0.0
O1105 O 0.9548 0.4459 0.61528 0.0
O1106 O 0.95815 0.45611 0.64697 0.0
O1107 O 0.94472 0.46781 0.64312 0.0
H1108 H 0.92889 0.44769 0.6298 0.0
H1109 H 0.91532 0.4333 0.6346 0.0
H1110 H 0.92922 0.41348 0.6014 0.0
H1111 H 0.94277 0.42796 0.5966 0.0
H1112 H 0.97098 0.47389 0.56627 0.0
H1113 H 0.96302 0.46872 0.58903 0.0
H1114 H 0.99391 0.49541 0.58746 0.0
H1115 H 0.98603 0.49006 0.61005 0.0
H1116 H 0.96669 0.49056 0.67787 0.0
H1117 H 0.94803 0.46598 0.70045 0.0
H1118 H 0.94425 0.45647 0.67845 0.0
H1119 H 0.96263 0.481 0.65572 0.0
C1120 C 0.32138 0.82298 0.15467 0.0
C1121 C 0.32585 0.8238 0.14112 0.0
C1122 C 0.33816 0.83843 0.14888 0.0
C1123 C 0.3342 0.83141 0.13827 0.0
C1124 C 0.33362 0.83758 0.16243 0.0
C1125 C 0.32531 0.82991 0.16529 0.0
U1126 U 0.29788 0.80479 0.14228 0.0
O1127 O 0.29272 0.7882 0.14871 0.0
O1128 O 0.28133 0.8021 0.15119 0.0
C1129 C 0.28322 0.79163 0.1537 0.0
C1130 C 0.31243 0.81516 0.15775 0.0
C1131 C 0.28011 0.78761 0.16779 0.0
C1132 C 0.28483 0.78099 0.19116 0.0
C1133 C 0.28803 0.78534 0.17815 0.0
C1134 C 0.26577 0.78139 0.18376 0.0
C1135 C 0.27366 0.77891 0.1941 0.0
C1136 C 0.26897 0.78567 0.17075 0.0
C1137 C 0.29233 0.80478 0.10218 0.0
C1138 C 0.27556 0.79983 0.08974 0.0
C1139 C 0.29245 0.80289 0.07679 0.0
C1140 C 0.29797 0.80506 0.08935 0.0
C1141 C 0.28114 0.80039 0.07679 0.0
C1142 C 0.28112 0.80199 0.10234 0.0
C1143 C 0.29824 0.80806 0.11501 0.0
O1144 O 0.30243 0.81891 0.15552 0.0
O1145 O 0.31388 0.80509 0.15309 0.0
O1146 O 0.30408 0.80039 0.12126 0.0
O1147 O 0.29282 0.81437 0.12383 0.0
H1148 H 0.32284 0.81859 0.13273 0.0
H1149 H 0.33742 0.83195 0.12769 0.0
H1150 H 0.33655 0.84277 0.17086 0.0
H1151 H 0.32194 0.82943 0.17579 0.0
H1152 H 0.2911 0.7793 0.19895 0.0
H1153 H 0.29668 0.78682 0.17615 0.0
H1154 H 0.25712 0.77978 0.18558 0.0
H1155 H 0.26274 0.78733 0.16291 0.0
H1156 H 0.26689 0.79781 0.09013 0.0
H1157 H 0.29698 0.80356 0.06704 0.0
H1158 H 0.30661 0.80725 0.08901 0.0
H1159 H 0.27662 0.80168 0.11215 0.0
C1160 C 0.93535 0.57125 0.90446 0.0
C1161 C 0.93291 0.57403 0.89052 0.0
C1162 C 0.91966 0.58778 0.89844 0.0
C1163 C 0.92517 0.58223 0.88753 0.0
C1164 C 0.92217 0.58495 0.91242 0.0
C1165 C 0.92995 0.57676 0.91539 0.0
U1166 U 0.95331 0.54793 0.8917 0.0
O1167 O 0.97034 0.54318 0.89698 0.0
O1168 O 0.95677 0.53157 0.9005 0.0
C1169 C 0.96732 0.53363 0.90219 0.0
C1170 C 0.94338 0.5625 0.9076 0.0
C1171 C 0.97208 0.53067 0.91594 0.0
C1172 C 0.97097 0.52918 0.94139 0.0
C1173 C 0.96641 0.53255 0.92856 0.0
C1174 C 0.987 0.52224 0.92914 0.0
C1175 C 0.98129 0.52389 0.94184 0.0
C1176 C 0.98243 0.52558 0.91636 0.0
C1177 C 0.95129 0.54253 0.85154 0.0
C1178 C 0.96193 0.52951 0.83768 0.0
C1179 C 0.94754 0.54029 0.82669 0.0
C1180 C 0.94526 0.5453 0.83954 0.0
C1181 C 0.95594 0.53237 0.82555 0.0
C1182 C 0.95963 0.53457 0.8506 0.0
C1183 C 0.94866 0.54818 0.86476 0.0
O1184 O 0.93972 0.55242 0.90589 0.0
O1185 O 0.95326 0.564 0.90231 0.0
O1186 O 0.95657 0.55408 0.87039 0.0
O1187 O 0.94299 0.54252 0.87402 0.0
H1188 H 0.93699 0.56985 0.88193 0.0
H1189 H 0.92358 0.58428 0.87666 0.0
H1190 H 0.918 0.58894 0.92108 0.0
H1191 H 0.93168 0.57468 0.92622 0.0
H1192 H 0.96629 0.53051 0.95092 0.0
H1193 H 0.95841 0.53649 0.92849 0.0
H1194 H 0.99504 0.51841 0.92907 0.0
H1195 H 0.98696 0.52411 0.90675 0.0
H1196 H 0.96849 0.52349 0.83714 0.0
H1197 H 0.9426 0.54254 0.81767 0.0
H1198 H 0.93875 0.55139 0.8401 0.0
H1199 H 0.96437 0.53233 0.85979 0.0
C1200 C 0.1891 0.18584 0.65481 0.0
C1201 C 0.18757 0.18196 0.64109 0.0
C1202 C 0.17231 0.17043 0.64887 0.0
C1203 C 0.17926 0.17433 0.63814 0.0
C1204 C 0.17389 0.17439 0.66262 0.0
C1205 C 0.1822 0.18202 0.66555 0.0
U1206 U 0.21274 0.20357 0.64226 0.0
O1207 O 0.21749 0.22057 0.64759 0.0
O1208 O 0.22901 0.20697 0.65139 0.0
C1209 C 0.22694 0.21751 0.65309 0.0
C1210 C 0.19786 0.19384 0.65795 0.0
C1211 C 0.22968 0.22225 0.66694 0.0
C1212 C 0.23209 0.22065 0.69225 0.0
C1213 C 0.22885 0.21609 0.67938 0.0
C1214 C 0.23676 0.23767 0.68048 0.0
C1215 C 0.2362 0.23148 0.69295 0.0
C1216 C 0.23356 0.23309 0.66764 0.0
C1217 C 0.21863 0.20124 0.60216 0.0
C1218 C 0.23118 0.21217 0.58796 0.0
C1219 C 0.2214 0.19685 0.57756 0.0
C1220 C 0.21637 0.19468 0.59044 0.0
C1221 C 0.22879 0.20567 0.57609 0.0
C1222 C 0.22611 0.20999 0.60091 0.0
C1223 C 0.21283 0.19879 0.61536 0.0
O1224 O 0.20796 0.19012 0.65647 0.0
O1225 O 0.19647 0.20365 0.65245 0.0
O1226 O 0.20691 0.20677 0.62079 0.0
O1227 O 0.21835 0.19314 0.62478 0.0
H1228 H 0.19284 0.1848 0.63266 0.0
H1229 H 0.17839 0.17137 0.62748 0.0
H1230 H 0.1686 0.17168 0.6711 0.0
H1231 H 0.18324 0.18496 0.6762 0.0
H1232 H 0.23162 0.2156 0.70158 0.0
H1233 H 0.22585 0.2077 0.67912 0.0
H1234 H 0.23966 0.24609 0.68061 0.0
H1235 H 0.23422 0.23801 0.65819 0.0
H1236 H 0.23681 0.21905 0.58717 0.0
H1237 H 0.21954 0.19153 0.56876 0.0
H1238 H 0.21066 0.18786 0.59124 0.0
H1239 H 0.22794 0.21514 0.60987 0.0
C1240 C 0.57422 0.43881 0.40433 0.0
C1241 C 0.5782 0.43739 0.39063 0.0
C1242 C 0.58982 0.4222 0.3984 0.0
C1243 C 0.58593 0.42917 0.38769 0.0
C1244 C 0.58575 0.42365 0.41211 0.0
C1245 C 0.57802 0.43189 0.41504 0.0
U1246 U 0.55589 0.46219 0.3921 0.0
O1247 O 0.53893 0.46672 0.398 0.0
O1248 O 0.55246 0.47839 0.40139 0.0
C1249 C 0.54196 0.47623 0.40331 0.0
C1250 C 0.56615 0.4475 0.40752 0.0
C1251 C 0.5374 0.47894 0.41724 0.0
C1252 C 0.5386 0.47939 0.44274 0.0
C1253 C 0.54301 0.47635 0.42969 0.0
C1254 C 0.52286 0.48746 0.43103 0.0
C1255 C 0.52847 0.48501 0.44356 0.0
C1256 C 0.52729 0.48446 0.41803 0.0
C1257 C 0.5566 0.4686 0.35221 0.0
C1258 C 0.55379 0.48566 0.33931 0.0
C1259 C 0.5528 0.4682 0.32715 0.0
C1260 C 0.55491 0.4627 0.33975 0.0
C1261 C 0.55237 0.47975 0.32672 0.0
C1262 C 0.55586 0.48013 0.35195 0.0
C1263 C 0.55981 0.46252 0.36498 0.0
O1264 O 0.56972 0.45762 0.40582 0.0
O1265 O 0.55625 0.44595 0.4023 0.0
O1266 O 0.5522 0.4563 0.37073 0.0
O1267 O 0.56581 0.46786 0.37423 0.0
H1268 H 0.57537 0.44269 0.38223 0.0
H1269 H 0.58899 0.42839 0.37705 0.0
H1270 H 0.58844 0.41835 0.42058 0.0
H1271 H 0.575 0.43284 0.42567 0.0
H1272 H 0.54309 0.47727 0.45218 0.0
H1273 H 0.55082 0.47204 0.42932 0.0
H1274 H 0.51514 0.4919 0.43123 0.0
H1275 H 0.52284 0.48656 0.40854 0.0
H1276 H 0.55338 0.49455 0.33937 0.0
H1277 H 0.55187 0.4634 0.31766 0.0
H1278 H 0.5555 0.45381 0.3397 0.0
H1279 H 0.55709 0.48489 0.36143 0.0
H1280 H 0.28331 0.24676 0.30932 0.0
H1281 H 0.27718 0.25517 0.28732 0.0
H1282 H 0.25099 0.23135 0.2843 0.0
H1283 H 0.25723 0.22275 0.30611 0.0
H1284 H 0.26093 0.23445 0.25912 0.0
H1285 H 0.24584 0.25736 0.29551 0.0
H1286 H 0.24654 0.26902 0.31666 0.0
H1287 H 0.26826 0.29147 0.2956 0.0
H1288 H 0.26782 0.27985 0.27438 0.0
H1289 H 0.22828 0.26078 0.20746 0.0
H1290 H 0.23491 0.25243 0.22923 0.0
H1291 H 0.25957 0.27778 0.23294 0.0
H1292 H 0.2529 0.28623 0.21124 0.0
H1293 H 0.25077 0.27395 0.25772 0.0
H1294 H 0.26588 0.25136 0.22133 0.0
H1295 H 0.26547 0.23976 0.20012 0.0
H1296 H 0.2442 0.21678 0.221 0.0
H1297 H 0.24437 0.22833 0.24228 0.0
C1298 C 0.27632 0.24323 0.3039 0.0
C1299 C 0.27074 0.2341 0.30954 0.0
C1300 C 0.27276 0.24811 0.29138 0.0
C1301 C 0.26353 0.24398 0.28422 0.0
C1302 C 0.2581 0.23472 0.28964 0.0
C1303 C 0.26163 0.22986 0.30218 0.0
C1304 C 0.25946 0.24936 0.27115 0.0
C1305 C 0.25858 0.24306 0.25886 0.0
C1306 C 0.25664 0.26066 0.27068 0.0
C1307 C 0.25689 0.26767 0.28341 0.0
C1308 C 0.25084 0.26473 0.29543 0.0
C1309 C 0.25118 0.27134 0.30742 0.0
C1310 C 0.25746 0.28096 0.30749 0.0
C1311 C 0.26341 0.28401 0.29554 0.0
C1312 C 0.26311 0.27742 0.28353 0.0
C1313 C 0.23515 0.26455 0.21288 0.0
C1314 C 0.24009 0.27415 0.20755 0.0
C1315 C 0.23895 0.25976 0.22533 0.0
C1316 C 0.24788 0.26435 0.23266 0.0
C1317 C 0.25268 0.27406 0.2275 0.0
C1318 C 0.24883 0.2789 0.2151 0.0
C1319 C 0.25221 0.25904 0.24566 0.0
C1320 C 0.25313 0.26535 0.25795 0.0
C1321 C 0.25512 0.24775 0.24611 0.0
C1322 C 0.25505 0.24076 0.23335 0.0
C1323 C 0.26105 0.24387 0.22136 0.0
C1324 C 0.26087 0.2373 0.20933 0.0
C1325 C 0.25479 0.22755 0.2092 0.0
C1326 C 0.2489 0.22434 0.22111 0.0
C1327 C 0.24904 0.23089 0.23316 0.0
H1328 H 0.25466 0.22247 0.19987 0.0
H1329 H 0.25771 0.28607 0.31678 0.0
H1330 H 1.00255 0.98733 0.44985 0.0
H1331 H 0.01061 0.99403 0.47172 0.0
H1332 H 0.97815 0.99787 0.48939 0.0
H1333 H 0.96999 0.99151 0.46735 0.0
H1334 H 0.99058 0.01557 0.4948 0.0
H1335 H 0.99499 0.97656 0.49924 0.0
H1336 H 1.00077 0.95798 0.49196 0.0
H1337 H 0.03446 0.96859 0.49036 0.0
H1338 H 0.02887 0.98728 0.49746 0.0
H1339 H 0.00694 0.02272 0.56582 0.0
H1340 H 0.99892 0.0161 0.5439 0.0
H1341 H 0.03143 0.01222 0.52635 0.0
H1342 H 0.03954 0.01851 0.54845 0.0
H1343 H 0.01901 0.99456 0.52085 0.0
H1344 H 0.01458 0.03358 0.51647 0.0
H1345 H 0.00878 0.05215 0.52378 0.0
H1346 H 0.97509 0.04152 0.52528 0.0
H1347 H 0.9807 0.02283 0.51816 0.0
C1348 C 0.9971 0.98964 0.45836 0.0
C1349 C 0.9856 0.98888 0.4568 0.0
C1350 C 1.00174 0.99338 0.47092 0.0
C1351 C 0.995 0.99637 0.48228 0.0
C1352 C 0.98352 0.99559 0.4808 0.0
C1353 C 0.97887 0.99185 0.46822 0.0
C1354 C 0.99993 1.00053 0.49559 0.0
C1355 C 0.99668 0.0109 0.5006 0.0
C1356 C 0.00811 0.99459 0.503 0.0
C1357 C 0.0115 0.98335 0.49875 0.0
C1358 C 1.00362 0.97495 0.49722 0.0
C1359 C 0.00687 0.9644 0.49315 0.0
C1360 C 0.01797 0.96211 0.49066 0.0
C1361 C 0.02586 0.97037 0.49228 0.0
C1362 C 0.02266 0.98095 0.49634 0.0
C1363 C 0.01241 0.02042 0.55733 0.0
C1364 C 0.02391 0.02114 0.55894 0.0
C1365 C 0.00779 0.01673 0.54473 0.0
C1366 C 0.01456 0.01375 0.53339 0.0
C1367 C 0.02603 0.0145 0.53493 0.0
C1368 C 0.03066 0.0182 0.54754 0.0
C1369 C 0.00965 0.0096 0.52006 0.0
C1370 C 0.01291 0.99924 0.51504 0.0
C1371 C 1.00148 0.01554 0.51264 0.0
C1372 C 0.99808 0.02678 0.51691 0.0
C1373 C 0.00594 0.03517 0.51847 0.0
C1374 C 1.00269 0.04573 0.52256 0.0
C1375 C 0.99158 0.048 0.52503 0.0
C1376 C 0.9837 0.03974 0.52338 0.0
C1377 C 0.98691 0.02917 0.51931 0.0
H1378 H 0.98908 0.05618 0.52819 0.0
H1379 H 0.02047 0.95393 0.48751 0.0
H1380 H 0.23197 0.758 0.81326 0.0
H1381 H 0.23861 0.74992 0.79134 0.0
H1382 H 0.25436 0.78056 0.78059 0.0
H1383 H 0.24769 0.78872 0.80247 0.0
H1384 H 0.24452 0.77207 0.75816 0.0
H1385 H 0.2691 0.75837 0.79358 0.0
H1386 H 0.27401 0.74915 0.81577 0.0
H1387 H 0.25882 0.71934 0.80136 0.0
H1388 H 0.25368 0.72843 0.77915 0.0
H1389 H 0.27879 0.75158 0.70381 0.0
H1390 H 0.27212 0.75969 0.7257 0.0
H1391 H 0.25645 0.72901 0.73653 0.0
H1392 H 0.26317 0.72083 0.71469 0.0
H1393 H 0.26624 0.73751 0.75892 0.0
H1394 H 0.24165 0.75118 0.72353 0.0
H1395 H 0.23669 0.76036 0.70134 0.0
H1396 H 0.25184 0.79021 0.71568 0.0
H1397 H 0.25702 0.78116 0.73789 0.0
C1398 C 0.23688 0.76301 0.80626 0.0
C1399 C 0.23934 0.774 0.80969 0.0
C1400 C 0.24069 0.75838 0.79372 0.0
C1401 C 0.24715 0.76456 0.78438 0.0
C1402 C 0.24941 0.77561 0.78761 0.0
C1403 C 0.24555 0.78027 0.80012 0.0
C1404 C 0.25161 0.75952 0.77129 0.0
C1405 C 0.2494 0.7646 0.75836 0.0
C1406 C 0.25777 0.74961 0.77145 0.0
C1407 C 0.26092 0.74411 0.78476 0.0
C1408 C 0.26674 0.74987 0.79519 0.0
C1409 C 0.26957 0.74466 0.80776 0.0
C1410 C 0.2667 0.73367 0.80999 0.0
C1411 C 0.26102 0.72786 0.79963 0.0
C1412 C 0.25816 0.73303 0.78704 0.0
C1413 C 0.27389 0.74657 0.71082 0.0
C1414 C 0.27147 0.73557 0.70744 0.0
C1415 C 0.27007 0.75122 0.72335 0.0
C1416 C 0.26362 0.74502 0.73271 0.0
C1417 C 0.2614 0.73397 0.7295 0.0
C1418 C 0.26528 0.72929 0.71701 0.0
C1419 C 0.25915 0.75007 0.74579 0.0
C1420 C 0.26136 0.74499 0.75873 0.0
C1421 C 0.25299 0.75997 0.74563 0.0
C1422 C 0.24982 0.76545 0.73232 0.0
C1423 C 0.24399 0.75968 0.72191 0.0
C1424 C 0.24113 0.76486 0.70934 0.0
C1425 C 0.24397 0.77586 0.70709 0.0
C1426 C 0.24965 0.7817 0.71743 0.0
C1427 C 0.25255 0.77654 0.73002 0.0
H1428 H 0.24175 0.77986 0.69735 0.0
H1429 H 0.2689 0.72966 0.81973 0.0
H1430 H 0.53815 0.00815 0.96237 0.0
H1431 H 0.52978 1.00179 0.98429 0.0
H1432 H 0.50166 0.02262 0.97678 0.0
H1433 H 0.51007 0.02917 0.95498 0.0
H1434 H 0.5085 0.02372 1.00405 0.0
H1435 H 0.50011 0.99539 0.97054 0.0
H1436 H 0.50442 0.98151 0.95249 0.0
H1437 H 0.52477 0.96407 0.98187 0.0
H1438 H 0.52071 0.97795 1.00004 0.0
H1439 H 0.47168 1.00076 0.05352 0.0
H1440 H 0.48037 0.00687 0.03175 0.0
H1441 H 0.50717 0.98422 0.03868 0.0
H1442 H 0.49845 0.97802 0.06046 0.0
H1443 H 0.50137 0.98401 0.01183 0.0
H1444 H 0.50983 0.01203 0.0454 0.0
H1445 H 0.50583 0.02589 0.06358 0.0
H1446 H 0.48584 0.04392 0.03439 0.0
H1447 H 0.4896 0.03008 0.01608 0.0
C1448 C 0.53024 0.01147 0.96545 0.0
C1449 C 0.52477 0.01916 0.95688 0.0
C1450 C 0.52541 0.00775 0.97793 0.0
C1451 C 0.51502 0.01163 0.98212 0.0
C1452 C 0.50965 0.01947 0.97375 0.0
C1453 C 0.51444 0.02315 0.96123 0.0
C1454 C 0.50972 0.00748 0.99519 0.0
C1455 C 0.50681 0.01505 1.00568 0.0
C1456 C 0.50778 0.99614 0.9975 0.0
C1457 C 0.5102 0.98777 0.9866 0.0
C1458 C 0.50558 0.98865 0.97311 0.0
C1459 C 0.50796 0.98077 0.96287 0.0
C1460 C 0.51489 0.97193 0.96602 0.0
C1461 C 0.51942 0.97093 0.97943 0.0
C1462 C 0.51707 0.9788 0.98971 0.0
C1463 C 0.47944 0.9971 0.05045 0.0
C1464 C 0.4844 0.98895 0.05881 0.0
C1465 C 0.48442 1.00061 0.03798 0.0
C1466 C 0.49454 0.99616 0.03365 0.0
C1467 C 0.49937 0.98781 0.04179 0.0
C1468 C 0.49436 0.98425 0.05423 0.0
C1469 C 0.5001 1.00025 0.0207 0.0
C1470 C 0.50307 0.99268 0.01024 0.0
C1471 C 0.50215 0.01159 0.01844 0.0
C1472 C 0.49992 0.01996 0.02941 0.0
C1473 C 0.50452 0.01891 0.04289 0.0
C1474 C 0.5023 0.02677 0.05321 0.0
C1475 C 0.49556 0.03577 0.05015 0.0
C1476 C 0.49105 0.03694 0.03675 0.0
C1477 C 0.49323 0.0291 0.02639 0.0
H1478 H 0.49386 0.04184 0.05816 0.0
H1479 H 0.51672 0.96584 0.95807 0.0
H1480 H 0.22756 0.74467 0.30877 0.0
H1481 H 0.23366 0.75326 0.2869 0.0
H1482 H 0.26124 0.73095 0.28505 0.0
H1483 H 0.25521 0.72238 0.30697 0.0
H1484 H 0.26785 0.75114 0.27928 0.0
H1485 H 0.23831 0.72805 0.26346 0.0
H1486 H 0.2194 0.72067 0.26318 0.0
H1487 H 0.20674 0.75277 0.25358 0.0
H1488 H 0.22557 0.76037 0.25399 0.0
H1489 H 0.2835 0.76208 0.20859 0.0
H1490 H 0.27742 0.75354 0.2305 0.0
H1491 H 0.24991 0.77593 0.2324 0.0
H1492 H 0.25591 0.78446 0.21045 0.0
H1493 H 0.24326 0.75571 0.23815 0.0
H1494 H 0.27283 0.77879 0.25394 0.0
H1495 H 0.29175 0.78613 0.2542 0.0
H1496 H 0.30438 0.75402 0.26381 0.0
H1497 H 0.28554 0.74645 0.26343 0.0
C1498 C 0.23485 0.7415 0.30362 0.0
C1499 C 0.24088 0.73281 0.30963 0.0
C1500 C 0.23834 0.74643 0.29111 0.0
C1501 C 0.24787 0.7427 0.2842 0.0
C1502 C 0.25389 0.73401 0.29017 0.0
C1503 C 0.25043 0.72912 0.30272 0.0
C1504 C 0.25169 0.74797 0.27093 0.0
C1505 C 0.26251 0.752 0.27022 0.0
C1506 C 0.24467 0.74935 0.25918 0.0
C1507 C 0.23334 0.7448 0.25889 0.0
C1508 C 0.23149 0.73355 0.2614 0.0
C1509 C 0.22079 0.72933 0.26119 0.0
C1510 C 0.21187 0.73625 0.2584 0.0
C1511 C 0.21365 0.74742 0.25576 0.0
C1512 C 0.22433 0.75168 0.25596 0.0
C1513 C 0.27623 0.76528 0.21376 0.0
C1514 C 0.27021 0.77398 0.20775 0.0
C1515 C 0.27275 0.76038 0.2263 0.0
C1516 C 0.26325 0.76414 0.23322 0.0
C1517 C 0.25724 0.77284 0.22726 0.0
C1518 C 0.26068 0.77771 0.21469 0.0
C1519 C 0.25943 0.75888 0.2465 0.0
C1520 C 0.2486 0.75485 0.24721 0.0
C1521 C 0.26645 0.75749 0.25824 0.0
C1522 C 0.27778 0.76203 0.25852 0.0
C1523 C 0.27965 0.77328 0.25601 0.0
C1524 C 0.29036 0.77748 0.25619 0.0
C1525 C 0.29926 0.77054 0.25899 0.0
C1526 C 0.29747 0.75938 0.26163 0.0
C1527 C 0.28678 0.75513 0.26145 0.0
H1528 H 0.30755 0.77381 0.25913 0.0
H1529 H 0.20359 0.73297 0.25825 0.0
H1530 H 0.52657 0.97469 0.54998 0.0
H1531 H 0.51856 0.98086 0.52778 0.0
H1532 H 0.51439 0.01343 0.54486 0.0
H1533 H 0.52246 0.00736 0.56702 0.0
H1534 H 0.49621 0.00713 0.53124 0.0
H1535 H 0.53492 0.00769 0.52132 0.0
H1536 H 0.55371 1.00009 0.51983 0.0
H1537 H 0.54249 0.97537 0.49103 0.0
H1538 H 0.52359 0.98273 0.4925 0.0
H1539 H 0.48508 0.03496 0.46685 0.0
H1540 H 0.49307 0.02883 0.48909 0.0
H1541 H 0.49728 0.99623 0.47211 0.0
H1542 H 0.48924 1.00226 0.44991 0.0
H1543 H 0.51546 1.00259 0.48569 0.0
H1544 H 0.47674 1.00202 0.49564 0.0
H1545 H 0.45796 0.00964 0.49713 0.0
H1546 H 0.46921 0.03439 0.52586 0.0
H1547 H 0.4881 0.02701 0.52439 0.0
C1548 C 0.52407 0.9832 0.54898 0.0
C1549 C 0.52517 0.99051 0.56034 0.0
C1550 C 0.51946 0.98672 0.53626 0.0
C1551 C 0.51593 0.99765 0.53458 0.0
C1552 C 0.51701 0.00495 0.5459 0.0
C1553 C 0.5216 1.00145 0.5586 0.0
C1554 C 0.511 1.00146 0.52109 0.0
C1555 C 0.50049 0.00627 0.5213 0.0
C1556 C 0.51646 1.00013 0.50806 0.0
C1557 C 0.52782 0.99569 0.50714 0.0
C1558 C 0.53644 1.00058 0.51476 0.0
C1559 C 0.54711 0.99632 0.5139 0.0
C1560 C 0.54928 0.98723 0.50537 0.0
C1561 C 0.54079 0.9824 0.49765 0.0
C1562 C 0.5301 0.98661 0.49849 0.0
C1563 C 0.48758 0.02645 0.46789 0.0
C1564 C 0.4865 0.01912 0.45654 0.0
C1565 C 0.49218 0.02296 0.48062 0.0
C1566 C 0.49572 0.01204 0.48234 0.0
C1567 C 0.49466 0.00471 0.47104 0.0
C1568 C 0.49008 0.00819 0.45832 0.0
C1569 C 0.50066 0.00825 0.49583 0.0
C1570 C 0.51118 1.00345 0.49562 0.0
C1571 C 0.49521 0.00959 0.50887 0.0
C1572 C 0.48386 0.01403 0.50979 0.0
C1573 C 0.47523 0.00915 0.50218 0.0
C1574 C 0.46456 0.01341 0.50304 0.0
C1575 C 0.4624 0.02251 0.51155 0.0
C1576 C 0.4709 0.02735 0.51926 0.0
C1577 C 0.48159 0.02313 0.51843 0.0
H1578 H 0.45413 0.0258 0.51221 0.0
H1579 H 0.55755 0.98395 0.50472 0.0
H1580 H 0.25621 0.26504 0.81932 0.0
H1581 H 0.24999 0.25711 0.79717 0.0
H1582 H 0.27672 0.27311 0.77549 0.0
H1583 H 0.28311 0.28098 0.79769 0.0
H1584 H 0.25758 0.27515 0.76111 0.0
H1585 H 0.27779 0.24577 0.78249 0.0
H1586 H 0.28281 0.2328 0.80132 0.0
H1587 H 0.25019 0.21923 0.80059 0.0
H1588 H 0.24491 0.23223 0.78188 0.0
H1589 H 0.25408 0.24481 0.69755 0.0
H1590 H 0.26026 0.25285 0.71964 0.0
H1591 H 0.23352 0.23694 0.7414 0.0
H1592 H 0.22715 0.22897 0.71926 0.0
H1593 H 0.2527 0.23486 0.75573 0.0
H1594 H 0.2325 0.26426 0.73434 0.0
H1595 H 0.22749 0.27722 0.71549 0.0
H1596 H 0.26013 0.29076 0.71622 0.0
H1597 H 0.26539 0.27776 0.73495 0.0
C1598 C 0.26087 0.26679 0.80989 0.0
C1599 C 0.27024 0.2736 0.81037 0.0
C1600 C 0.25727 0.26226 0.7972 0.0
C1601 C 0.26296 0.26439 0.78466 0.0
C1602 C 0.27219 0.27134 0.78502 0.0
C1603 C 0.27582 0.27587 0.79774 0.0
C1604 C 0.25923 0.25939 0.77119 0.0
C1605 C 0.25666 0.26633 0.75987 0.0
C1606 C 0.25777 0.24789 0.76964 0.0
C1607 C 0.26092 0.24005 0.78088 0.0
C1608 C 0.27165 0.24008 0.78642 0.0
C1609 C 0.27455 0.23271 0.79706 0.0
C1610 C 0.26682 0.22522 0.80217 0.0
C1611 C 0.25617 0.22505 0.79663 0.0
C1612 C 0.25322 0.23241 0.786 0.0
C1613 C 0.2494 0.24311 0.70698 0.0
C1614 C 0.24004 0.23628 0.70654 0.0
C1615 C 0.25299 0.2477 0.71964 0.0
C1616 C 0.24729 0.24562 0.73219 0.0
C1617 C 0.23805 0.23868 0.73186 0.0
C1618 C 0.23444 0.23409 0.71918 0.0
C1619 C 0.25104 0.25062 0.74565 0.0
C1620 C 0.25361 0.24369 0.75696 0.0
C1621 C 0.2525 0.26212 0.74719 0.0
C1622 C 0.24937 0.26996 0.73595 0.0
C1623 C 0.23864 0.26994 0.7304 0.0
C1624 C 0.23575 0.2773 0.71975 0.0
C1625 C 0.2435 0.28479 0.71463 0.0
C1626 C 0.25414 0.28494 0.72018 0.0
C1627 C 0.25708 0.27759 0.73082 0.0
H1628 H 0.24124 0.29049 0.70639 0.0
H1629 H 0.26908 0.21952 0.81041 0.0
H1630 H 0.01943 0.00573 0.94871 0.0
H1631 H 0.01144 0.01188 0.97086 0.0
H1632 H 0.01902 0.9805 0.98962 0.0
H1633 H 0.02669 0.97413 0.96728 0.0
H1634 H 0.99865 0.98692 0.99659 0.0
H1635 H 0.03444 1.00354 0.99685 0.0
H1636 H 0.04978 0.01458 0.98742 0.0
H1637 H 0.02891 0.04307 0.98595 0.0
H1638 H 0.01339 0.03216 0.99519 0.0
H1639 H 0.99023 1.0026 0.06748 0.0
H1640 H 0.99816 0.99644 0.0453 0.0
H1641 H 0.99057 0.02783 0.02657 0.0
H1642 H 0.98296 0.03421 0.04893 0.0
H1643 H 0.01094 0.0214 0.01957 0.0
H1644 H 0.97515 0.00479 0.01934 0.0
H1645 H 0.95981 0.99374 0.02875 0.0
H1646 H 0.98067 0.96525 0.03018 0.0
H1647 H 0.99619 0.97616 0.02094 0.0
C1648 C 0.01933 1.00008 0.95749 0.0
C1649 C 0.02371 0.98941 0.95616 0.0
C1650 C 0.01485 1.00366 0.97022 0.0
C1651 C 0.01473 0.99671 0.98199 0.0
C1652 C 0.01905 0.98604 0.98071 0.0
C1653 C 0.02353 0.98243 0.96795 0.0
C1654 C 0.00996 1.00053 0.99556 0.0
C1655 C 1.00145 0.99438 1.00172 0.0
C1656 C 0.0134 0.01041 1.0021 0.0
C1657 C 0.02273 0.01701 0.99659 0.0
C1658 C 0.03309 0.01214 0.99441 0.0
C1659 C 0.04183 0.01838 0.98912 0.0
C1660 C 0.04031 0.02951 0.98606 0.0
C1661 C 0.03007 0.03444 0.98831 0.0
C1662 C 0.0213 0.02824 0.99359 0.0
C1663 C 0.99032 0.00824 0.05869 0.0
C1664 C 0.98596 0.01892 0.06004 0.0
C1665 C 0.99476 0.00466 0.04595 0.0
C1666 C 0.99486 0.01161 0.03418 0.0
C1667 C 0.99055 0.02229 0.03548 0.0
C1668 C 0.98611 0.02589 0.04825 0.0
C1669 C 0.99963 0.00779 0.02061 0.0
C1670 C 0.00813 0.01395 0.01445 0.0
C1671 C 0.99619 0.99791 0.01406 0.0
C1672 C 0.98686 0.99132 0.01958 0.0
C1673 C 0.97649 0.99618 0.02176 0.0
C1674 C 0.96776 0.98995 0.02705 0.0
C1675 C 0.96927 0.97881 0.03009 0.0
C1676 C 0.97951 0.97388 0.02783 0.0
C1677 C 0.98828 0.98008 0.02256 0.0
H1678 H 0.9625 0.97399 0.03418 0.0
H1679 H 0.04708 0.03433 0.98196 0.0
H1680 H 0.75855 0.78012 0.70548 0.0
H1681 H 0.76426 0.77148 0.72743 0.0
H1682 H 0.73072 0.76171 0.73549 0.0
H1683 H 0.72493 0.77033 0.71346 0.0
H1684 H 0.74025 0.76943 0.75897 0.0
H1685 H 0.74977 0.74321 0.72338 0.0
H1686 H 0.75844 0.73682 0.70145 0.0
H1687 H 0.79033 0.74529 0.7176 0.0
H1688 H 0.78183 0.75187 0.73957 0.0
H1689 H 0.75161 0.7306 0.81258 0.0
H1690 H 0.74584 0.73926 0.79065 0.0
H1691 H 0.77937 0.74896 0.78241 0.0
H1692 H 0.78522 0.74033 0.8044 0.0
H1693 H 0.76982 0.74126 0.75902 0.0
H1694 H 0.76031 0.7675 0.79458 0.0
H1695 H 0.75166 0.77391 0.81651 0.0
H1696 H 0.71976 0.76543 0.80041 0.0
H1697 H 0.72824 0.75882 0.77844 0.0
C1698 C 0.75238 0.77608 0.71186 0.0
C1699 C 0.74128 0.77585 0.70761 0.0
C1700 C 0.75567 0.77114 0.72444 0.0
C1701 C 0.74796 0.76578 0.73304 0.0
C1702 C 0.73683 0.76577 0.72903 0.0
C1703 C 0.73352 0.77074 0.71644 0.0
C1704 C 0.75154 0.76015 0.74618 0.0
C1705 C 0.74661 0.76316 0.75894 0.0
C1706 C 0.76002 0.75214 0.74624 0.0
C1707 C 0.76515 0.74813 0.73307 0.0
C1708 C 0.75863 0.74379 0.72222 0.0
C1709 C 0.76351 0.74012 0.70978 0.0
C1710 C 0.77493 0.74067 0.70812 0.0
C1711 C 0.78149 0.74487 0.7189 0.0
C1712 C 0.77664 0.74857 0.73135 0.0
C1713 C 0.75777 0.73464 0.80616 0.0
C1714 C 0.76888 0.73483 0.81034 0.0
C1715 C 0.75444 0.73959 0.7936 0.0
C1716 C 0.76213 0.74493 0.78495 0.0
C1717 C 0.77327 0.74491 0.78891 0.0
C1718 C 0.77662 0.73994 0.80147 0.0
C1719 C 0.75853 0.75054 0.77181 0.0
C1720 C 0.76346 0.74752 0.75904 0.0
C1721 C 0.75005 0.75855 0.77175 0.0
C1722 C 0.74493 0.76257 0.78492 0.0
C1723 C 0.75146 0.76692 0.79576 0.0
C1724 C 0.74659 0.77061 0.80819 0.0
C1725 C 0.73517 0.77005 0.80987 0.0
C1726 C 0.7286 0.76584 0.7991 0.0
C1727 C 0.73344 0.76213 0.78665 0.0
H1728 H 0.73141 0.77291 0.8195 0.0
H1729 H 0.77869 0.73783 0.69848 0.0
H1730 H 0.72897 0.28304 0.29573 0.0
H1731 H 0.73504 0.27446 0.27383 0.0
H1732 H 0.75907 0.25545 0.29666 0.0
H1733 H 0.75297 0.26385 0.31859 0.0
H1734 H 0.76799 0.26434 0.27337 0.0
H1735 H 0.73551 0.24364 0.28463 0.0
H1736 H 0.71593 0.24102 0.29062 0.0
H1737 H 0.7064 0.25636 0.25189 0.0
H1738 H 0.72593 0.25921 0.24576 0.0
H1739 H 0.78235 0.22727 0.21873 0.0
H1740 H 0.77582 0.23516 0.24081 0.0
H1741 H 0.75068 0.25306 0.21845 0.0
H1742 H 0.75684 0.24485 0.19643 0.0
H1743 H 0.74232 0.24467 0.24162 0.0
H1744 H 0.77462 0.26562 0.23038 0.0
H1745 H 0.79415 0.26846 0.22432 0.0
H1746 H 0.80396 0.25299 0.26285 0.0
H1747 H 0.78448 0.24992 0.26906 0.0
C1748 C 0.73547 0.27695 0.29613 0.0
C1749 C 0.74048 0.27417 0.30897 0.0
C1750 C 0.73895 0.27206 0.28358 0.0
C1751 C 0.74747 0.26424 0.28358 0.0
C1752 C 0.75251 0.26148 0.29636 0.0
C1753 C 0.74903 0.26635 0.3089 0.0
C1754 C 0.75125 0.25902 0.27028 0.0
C1755 C 0.7624 0.25991 0.26652 0.0
C1756 C 0.74393 0.25346 0.26115 0.0
C1757 C 0.73218 0.25174 0.2648 0.0
C1758 C 0.72924 0.24654 0.27745 0.0
C1759 C 0.71815 0.245 0.28086 0.0
C1760 C 0.70993 0.24855 0.27166 0.0
C1761 C 0.71278 0.25363 0.25901 0.0
C1762 C 0.72386 0.2552 0.25556 0.0
C1763 C 0.77536 0.2328 0.2185 0.0
C1764 C 0.77018 0.23546 0.20573 0.0
C1765 C 0.7717 0.2374 0.23115 0.0
C1766 C 0.76285 0.24485 0.23131 0.0
C1767 C 0.75756 0.24739 0.21862 0.0
C1768 C 0.76118 0.24276 0.20599 0.0
C1769 C 0.75906 0.25 0.24468 0.0
C1770 C 0.74791 0.2491 0.24846 0.0
C1771 C 0.76637 0.25558 0.25381 0.0
C1772 C 0.77809 0.25744 0.25011 0.0
C1773 C 0.78095 0.26275 0.23751 0.0
C1774 C 0.79201 0.26441 0.23406 0.0
C1775 C 0.80029 0.26088 0.24317 0.0
C1776 C 0.79753 0.2557 0.25578 0.0
C1777 C 0.78648 0.25401 0.25928 0.0
H1778 H 0.80885 0.26218 0.24048 0.0
H1779 H 0.70135 0.24735 0.27432 0.0
H1780 H 0.72932 0.24702 0.80884 0.0
H1781 H 0.73561 0.25565 0.78709 0.0
H1782 H 0.75922 0.22955 0.78123 0.0
H1783 H 0.75301 0.22092 0.80303 0.0
H1784 H 0.76861 0.24874 0.77626 0.0
H1785 H 0.73511 0.23126 0.76157 0.0
H1786 H 0.7153 0.22687 0.76251 0.0
H1787 H 0.70735 0.26094 0.7564 0.0
H1788 H 0.72712 0.26556 0.75561 0.0
H1789 H 0.78225 0.26095 0.70522 0.0
H1790 H 0.77604 0.25228 0.72698 0.0
H1791 H 0.75244 0.27837 0.73304 0.0
H1792 H 0.75857 0.28704 0.71124 0.0
H1793 H 0.74305 0.25913 0.73789 0.0
H1794 H 0.77656 0.27661 0.75261 0.0
H1795 H 0.79637 0.28099 0.75167 0.0
H1796 H 0.80431 0.24691 0.75771 0.0
H1797 H 0.78454 0.2423 0.75849 0.0
C1798 C 0.73576 0.24304 0.80283 0.0
C1799 C 0.74064 0.23325 0.80768 0.0
C1800 C 0.73936 0.24799 0.79039 0.0
C1801 C 0.74783 0.2432 0.78239 0.0
C1802 C 0.7527 0.23342 0.7872 0.0
C1803 C 0.74914 0.2285 0.79969 0.0
C1804 C 0.75177 0.2485 0.76919 0.0
C1805 C 0.76304 0.25087 0.76779 0.0
C1806 C 0.74449 0.25154 0.75824 0.0
C1807 C 0.7326 0.24877 0.75866 0.0
C1808 C 0.72914 0.23783 0.76053 0.0
C1809 C 0.71792 0.2353 0.76102 0.0
C1810 C 0.71007 0.24362 0.75955 0.0
C1811 C 0.71343 0.2545 0.75755 0.0
C1812 C 0.72464 0.25708 0.75707 0.0
C1813 C 0.77584 0.26492 0.71128 0.0
C1814 C 0.77093 0.27471 0.70648 0.0
C1815 C 0.77228 0.25995 0.72373 0.0
C1816 C 0.76382 0.26471 0.73177 0.0
C1817 C 0.75894 0.27451 0.72703 0.0
C1818 C 0.76246 0.27945 0.71454 0.0
C1819 C 0.7599 0.25938 0.74496 0.0
C1820 C 0.74863 0.257 0.74636 0.0
C1821 C 0.76718 0.25633 0.7559 0.0
C1822 C 0.77907 0.2591 0.75547 0.0
C1823 C 0.78253 0.27004 0.75363 0.0
C1824 C 0.79375 0.27257 0.75314 0.0
C1825 C 0.8016 0.26423 0.75459 0.0
C1826 C 0.79823 0.25336 0.75657 0.0
C1827 C 0.78702 0.25078 0.75705 0.0
H1828 H 0.81028 0.26621 0.75422 0.0
H1829 H 0.70139 0.24165 0.75993 0.0
H1830 H 0.78382 0.7661 0.3054 0.0
H1831 H 0.77786 0.75764 0.28339 0.0
H1832 H 0.74666 0.77441 0.28655 0.0
H1833 H 0.75256 0.78289 0.30855 0.0
H1834 H 0.74353 0.75349 0.27965 0.0
H1835 H 0.76673 0.78266 0.26309 0.0
H1836 H 0.78376 0.79364 0.26151 0.0
H1837 H 0.80154 0.76521 0.24731 0.0
H1838 H 0.78465 0.75403 0.24899 0.0
H1839 H 0.72496 0.74311 0.20994 0.0
H1840 H 0.73092 0.75164 0.23191 0.0
H1841 H 0.76215 0.73492 0.22877 0.0
H1842 H 0.75624 0.72638 0.20681 0.0
H1843 H 0.76525 0.75584 0.23566 0.0
H1844 H 0.74205 0.72666 0.25225 0.0
H1845 H 0.72502 0.71569 0.25384 0.0
H1846 H 0.70723 0.74413 0.26799 0.0
H1847 H 0.72413 0.75531 0.2663 0.0
C1848 C 0.77574 0.76811 0.30132 0.0
C1849 C 0.76868 0.77519 0.30877 0.0
C1850 C 0.77233 0.76324 0.28873 0.0
C1851 C 0.76182 0.76544 0.28321 0.0
C1852 C 0.75478 0.77254 0.29059 0.0
C1853 C 0.75817 0.77738 0.3032 0.0
C1854 C 0.75807 0.76017 0.26991 0.0
C1855 C 0.74821 0.75414 0.26998 0.0
C1856 C 0.76428 0.76077 0.25735 0.0
C1857 C 0.77445 0.76749 0.2563 0.0
C1858 C 0.77429 0.77873 0.25973 0.0
C1859 C 0.78392 0.78499 0.2588 0.0
C1860 C 0.79373 0.78012 0.25435 0.0
C1861 C 0.79394 0.76897 0.25078 0.0
C1862 C 0.78434 0.76267 0.25171 0.0
C1863 C 0.73304 0.74113 0.21401 0.0
C1864 C 0.74011 0.73404 0.20659 0.0
C1865 C 0.73645 0.74603 0.22658 0.0
C1866 C 0.74697 0.74387 0.2321 0.0
C1867 C 0.75402 0.73676 0.22473 0.0
C1868 C 0.75063 0.7319 0.21215 0.0
C1869 C 0.75071 0.74915 0.24539 0.0
C1870 C 0.76057 0.75519 0.24532 0.0
C1871 C 0.7445 0.74856 0.25796 0.0
C1872 C 0.73433 0.74185 0.25901 0.0
C1873 C 0.73449 0.7306 0.25559 0.0
C1874 C 0.72486 0.72434 0.25653 0.0
C1875 C 0.71504 0.72922 0.26098 0.0
C1876 C 0.71484 0.74037 0.26453 0.0
C1877 C 0.72444 0.74666 0.26359 0.0
H1878 H 0.7076 0.72436 0.2617 0.0
H1879 H 0.80117 0.78498 0.25363 0.0
H1880 H 0.50757 0.51696 0.06823 0.0
H1881 H 0.4996 0.51069 0.04611 0.0
H1882 H 0.53097 0.51496 0.02562 0.0
H1883 H 0.53905 0.5212 0.04778 0.0
H1884 H 0.51444 0.52256 0.00942 0.0
H1885 H 0.52185 0.48941 0.035 0.0
H1886 H 0.5211 0.47687 0.05531 0.0
H1887 H 0.48583 0.47587 0.05247 0.0
H1888 H 0.48637 0.48854 0.03225 0.0
H1889 H 0.50233 0.49199 0.94794 0.0
H1890 H 0.51038 0.49829 0.97001 0.0
H1891 H 0.47908 0.49402 0.99067 0.0
H1892 H 0.47093 0.48777 0.96857 0.0
H1893 H 0.49562 0.48641 1.00677 0.0
H1894 H 0.48819 0.51956 0.98124 0.0
H1895 H 0.48892 0.53213 0.96094 0.0
H1896 H 0.5242 0.53311 0.96371 0.0
H1897 H 0.52368 0.52042 0.98391 0.0
C1898 C 0.51282 0.51649 0.05905 0.0
C1899 C 0.524 0.5195 0.05985 0.0
C1900 C 0.50823 0.51292 0.04639 0.0
C1901 C 0.51471 0.51218 0.03422 0.0
C1902 C 0.5258 0.51543 0.03487 0.0
C1903 C 0.5304 0.51904 0.04755 0.0
C1904 C 0.50992 0.50797 0.02086 0.0
C1905 C 0.51047 0.51458 0.0088 0.0
C1906 C 0.50449 0.49767 0.02008 0.0
C1907 C 0.50415 0.49001 0.03219 0.0
C1908 C 0.51393 0.48659 0.03877 0.0
C1909 C 0.51354 0.47945 0.05026 0.0
C1910 C 0.50342 0.4756 0.0552 0.0
C1911 C 0.49366 0.47887 0.04864 0.0
C1912 C 0.49401 0.48602 0.03716 0.0
C1913 C 0.49712 0.49246 0.95714 0.0
C1914 C 0.48594 0.48944 0.95642 0.0
C1915 C 0.50175 0.49605 0.96978 0.0
C1916 C 0.49531 0.49679 0.98199 0.0
C1917 C 0.48422 0.49354 0.9814 0.0
C1918 C 0.47958 0.48993 0.96875 0.0
C1919 C 0.50014 0.50099 0.99533 0.0
C1920 C 0.4996 0.49438 1.00739 0.0
C1921 C 0.50557 0.51129 0.9961 0.0
C1922 C 0.5059 0.51896 0.984 0.0
C1923 C 0.49611 0.52239 0.97745 0.0
C1924 C 0.49648 0.52955 0.96598 0.0
C1925 C 0.5066 0.53339 0.96102 0.0
C1926 C 0.51636 0.53011 0.96755 0.0
C1927 C 0.51604 0.52295 0.97902 0.0
H1928 H 0.50687 0.53893 0.95213 0.0
H1929 H 0.50314 0.47007 0.0641 0.0
H1930 H 0.04023 0.51803 0.46792 0.0
H1931 H 0.03244 0.51187 0.49027 0.0
H1932 H 0.99987 0.51266 0.4723 0.0
H1933 H 0.00754 0.51914 0.45008 0.0
H1934 H 0.99964 0.52105 0.49823 0.0
H1935 H 0.01387 0.48838 0.4765 0.0
H1936 H 0.02799 0.47677 0.46526 0.0
H1937 H 0.04808 0.47883 0.50224 0.0
H1938 H 0.03413 0.49059 0.51363 0.0
H1939 H 0.97223 0.48955 0.55038 0.0
H1940 H 0.98009 0.49574 0.5281 0.0
H1941 H 0.01261 0.49482 0.5462 0.0
H1942 H 1.00486 0.48829 0.56836 0.0
H1943 H 0.01291 0.48653 0.52025 0.0
H1944 H 0.99866 0.51916 0.54201 0.0
H1945 H 0.98454 0.53078 0.55324 0.0
H1946 H 0.9645 0.5288 0.51621 0.0
H1947 H 0.97844 0.51704 0.50482 0.0
C1948 C 0.03139 0.51702 0.46876 0.0
C1949 C 0.02453 0.51903 0.45714 0.0
C1950 C 0.02696 0.51339 0.48152 0.0
C1951 C 0.01557 0.51164 0.48294 0.0
C1952 C 0.00868 0.51389 0.47147 0.0
C1953 C 0.0131 0.51751 0.45871 0.0
C1954 C 0.01083 0.50739 0.49631 0.0
C1955 C 1.00245 0.51343 0.50294 0.0
C1956 C 0.01463 0.49756 0.50267 0.0
C1957 C 0.02301 0.49046 0.49586 0.0
C1958 C 0.02133 0.48643 0.48219 0.0
C1959 C 0.0293 0.47981 0.4758 0.0
C1960 C 0.03894 0.47709 0.48302 0.0
C1961 C 0.04061 0.48096 0.49665 0.0
C1962 C 0.03268 0.4876 0.50309 0.0
C1963 C 0.98107 0.49053 0.54958 0.0
C1964 C 0.98789 0.48847 0.56123 0.0
C1965 C 0.98554 0.49418 0.53686 0.0
C1966 C 0.99694 0.49592 0.5355 0.0
C1967 C 1.00379 0.49361 0.54699 0.0
C1968 C 0.99933 0.48996 0.55971 0.0
C1969 C 1.00172 0.50019 0.52216 0.0
C1970 C 0.0101 0.49416 0.51554 0.0
C1971 C 0.99792 0.51002 0.51581 0.0
C1972 C 0.98955 0.51713 0.52261 0.0
C1973 C 0.9912 0.52113 0.5363 0.0
C1974 C 0.98324 0.52776 0.54269 0.0
C1975 C 0.97362 0.53051 0.53545 0.0
C1976 C 0.97195 0.52666 0.5218 0.0
C1977 C 0.97989 0.52002 0.51537 0.0
H1978 H 0.96746 0.53564 0.54042 0.0
H1979 H 0.04509 0.47196 0.47805 0.0
H1980 H 0.98078 0.53404 0.96765 0.0
H1981 H 0.98871 0.52752 0.98972 0.0
H1982 H 1.00085 0.4985 0.9688 0.0
H1983 H 0.99257 0.50473 0.94685 0.0
H1984 H 0.99234 0.49311 0.9934 0.0
H1985 H 0.01794 0.52039 0.97719 0.0
H1986 H 0.02374 0.53869 0.96887 0.0
H1987 H 0.0124 0.55321 1.00733 0.0
H1988 H 0.00639 0.535 0.0158 0.0
H1989 H 0.02942 0.47568 0.04679 0.0
H1990 H 0.02164 0.48217 0.0246 0.0
H1991 H 0.00922 0.51114 0.04535 0.0
H1992 H 0.01732 0.50493 0.06742 0.0
H1993 H 0.01796 0.51652 0.02078 0.0
H1994 H 0.9923 0.48925 0.03694 0.0
H1995 H 0.98651 0.47094 0.04525 0.0
H1996 H 0.998 0.45641 1.00688 0.0
H1997 H 1.004 0.47462 0.99841 0.0
C1998 C 0.98504 0.52622 0.96775 0.0
C1999 C 0.98607 0.51996 0.95539 0.0
C2000 C 0.98968 0.52255 0.98037 0.0
C2001 C 0.99554 0.51258 0.98092 0.0
C2002 C 0.99643 0.50624 0.96866 0.0
C2003 C 0.99177 0.50988 0.95606 0.0
C2004 C 1.00069 0.50872 0.99425 0.0
C2005 C 0.99806 0.49818 0.99928 0.0
C2006 C 0.00798 0.51539 1.00213 0.0
C2007 C 0.01161 0.52635 0.99707 0.0
C2008 C 0.0166 0.52749 0.98383 0.0
C2009 C 0.01994 0.53785 0.97909 0.0
C2010 C 0.01841 0.54711 0.98755 0.0
C2011 C 0.01356 0.54603 1.00078 0.0
C2012 C 0.0102 0.53569 1.00556 0.0
C2013 C 0.02513 0.48348 0.04662 0.0
C2014 C 0.02395 0.48973 0.05896 0.0
C2015 C 0.02058 0.48714 0.03393 0.0
C2016 C 0.01469 0.49708 0.03331 0.0
C2017 C 0.01367 0.50342 0.04555 0.0
C2018 C 0.01822 0.49979 0.05822 0.0
C2019 C 0.0096 0.50092 0.01993 0.0
C2020 C 0.01225 0.51145 0.01489 0.0
C2021 C 1.00233 0.49424 0.01204 0.0
C2022 C 0.9987 0.48328 0.0171 0.0
C2023 C 0.99367 0.48214 0.03032 0.0
C2024 C 0.99033 0.47178 0.03505 0.0
C2025 C 0.99191 0.46251 0.02662 0.0
C2026 C 0.9968 0.46359 0.01341 0.0
C2027 C 1.00016 0.47393 0.00863 0.0
H2028 H 0.98932 0.4545 0.0303 0.0
H2029 H 0.02101 0.55512 0.98387 0.0
H2030 H 0.50697 0.48411 0.45227 0.0
H2031 H 0.49918 0.4907 0.47437 0.0
H2032 H 0.53154 0.5004 0.48827 0.0
H2033 H 0.5394 0.49382 0.46614 0.0
H2034 H 0.52041 0.49067 0.50916 0.0
H2035 H 0.51296 0.51939 0.47592 0.0
H2036 H 0.50589 0.52725 0.45383 0.0
H2037 H 0.47318 0.51681 0.46454 0.0
H2038 H 0.48008 0.50874 0.48661 0.0
H2039 H 0.50331 0.52446 0.56583 0.0
H2040 H 0.51125 0.51788 0.5438 0.0
H2041 H 0.47894 0.50844 0.52941 0.0
H2042 H 0.47094 0.51504 0.55142 0.0
H2043 H 0.49014 0.51808 0.50876 0.0
H2044 H 0.49753 0.4893 0.54191 0.0
H2045 H 0.50455 0.48136 0.56397 0.0
H2046 H 0.53729 0.49182 0.55344 0.0
H2047 H 0.53043 0.49997 0.53139 0.0
C2048 C 0.51244 0.48769 0.45999 0.0
C2049 C 0.52381 0.4885 0.45736 0.0
C2050 C 0.50797 0.49146 0.47264 0.0
C2051 C 0.51474 0.49622 0.48293 0.0
C2052 C 0.52614 0.49678 0.4805 0.0
C2053 C 0.53063 0.49298 0.46785 0.0
C2054 C 0.50993 0.50068 0.49615 0.0
C2055 C 0.51389 0.49678 0.50907 0.0
C2056 C 0.50124 0.50847 0.49607 0.0
C2057 C 0.49706 0.51337 0.48285 0.0
C2058 C 0.50427 0.5187 0.47352 0.0
C2059 C 0.50029 0.5232 0.46101 0.0
C2060 C 0.48909 0.5225 0.45777 0.0
C2061 C 0.48185 0.51733 0.46705 0.0
C2062 C 0.48579 0.5128 0.47957 0.0
C2063 C 0.49789 0.52094 0.55801 0.0
C2064 C 0.48648 0.52023 0.56045 0.0
C2065 C 0.50245 0.51717 0.5454 0.0
C2066 C 0.49573 0.51249 0.53499 0.0
C2067 C 0.48431 0.512 0.53726 0.0
C2068 C 0.47974 0.51581 0.54985 0.0
C2069 C 0.50061 0.50807 0.52178 0.0
C2070 C 0.49665 0.51198 0.50886 0.0
C2071 C 0.50929 0.50028 0.52185 0.0
C2072 C 0.51345 0.49534 0.53506 0.0
C2073 C 0.50621 0.48998 0.54434 0.0
C2074 C 0.51016 0.48543 0.55684 0.0
C2075 C 0.52135 0.48611 0.56012 0.0
C2076 C 0.52862 0.49132 0.55089 0.0
C2077 C 0.52471 0.49589 0.53839 0.0
H2078 H 0.5244 0.48258 0.5698 0.0
H2079 H 0.48603 0.52599 0.44808 0.0
H2080 H 0.11151 0.42555 0.12774 0.0
H2081 H 0.12531 0.41144 0.13284 0.0
H2082 H 0.1022 0.38617 0.12107 0.0
H2083 H 0.08828 0.40025 0.11614 0.0
H2084 H 0.11339 0.3811 0.14549 0.0
H2085 H 0.12216 0.39316 0.09882 0.0
H2086 H 0.12638 0.40682 0.08047 0.0
H2087 H 0.15513 0.417 0.10323 0.0
H2088 H 0.15099 0.4035 0.12183 0.0
H2089 H 0.1521 0.33728 0.14186 0.0
H2090 H 0.13778 0.35083 0.13661 0.0
H2091 H 0.16114 0.37706 0.1432 0.0
H2092 H 0.17553 0.36353 0.14815 0.0
H2093 H 0.14946 0.38144 0.12104 0.0
H2094 H 0.14077 0.36991 0.16793 0.0
H2095 H 0.1366 0.35661 0.18672 0.0
H2096 H 0.1079 0.34585 0.16431 0.0
H2097 H 0.11198 0.359 0.14527 0.0
C2098 C 0.10933 0.41699 0.12634 0.0
C2099 C 0.0988 0.41403 0.1215 0.0
C2100 C 0.11725 0.40893 0.12916 0.0
C2101 C 0.11482 0.39775 0.12721 0.0
C2102 C 0.10427 0.39475 0.1226 0.0
C2103 C 0.09635 0.40281 0.11969 0.0
C2104 C 0.12333 0.3892 0.12991 0.0
C2105 C 0.12123 0.38107 0.14002 0.0
C2106 C 0.13365 0.38932 0.123 0.0
C2107 C 0.1362 0.39739 0.11178 0.0
C2108 C 0.12933 0.39837 0.09997 0.0
C2109 C 0.13172 0.40607 0.08951 0.0
C2110 C 0.141 0.41279 0.0907 0.0
C2111 C 0.14793 0.4118 0.10233 0.0
C2112 C 0.14558 0.40412 0.11283 0.0
C2113 C 0.15416 0.34594 0.14228 0.0
C2114 C 0.16494 0.34933 0.14547 0.0
C2115 C 0.14596 0.35369 0.1393 0.0
C2116 C 0.14831 0.36501 0.1397 0.0
C2117 C 0.1591 0.36839 0.1428 0.0
C2118 C 0.16732 0.36065 0.14562 0.0
C2119 C 0.13959 0.37334 0.13674 0.0
C2120 C 0.14164 0.38143 0.12655 0.0
C2121 C 0.12925 0.37323 0.14365 0.0
C2122 C 0.12674 0.36536 0.15511 0.0
C2123 C 0.13361 0.36466 0.16696 0.0
C2124 C 0.13126 0.35715 0.17766 0.0
C2125 C 0.12201 0.35037 0.17669 0.0
C2126 C 0.11507 0.3511 0.16503 0.0
C2127 C 0.11739 0.35858 0.15429 0.0
H2128 H 0.1202 0.34456 0.18499 0.0
H2129 H 0.14283 0.41876 0.0826 0.0
H2130 H 0.8472 0.843 0.39351 0.0
H2131 H 0.86138 0.85662 0.39886 0.0
H2132 H 0.86088 0.86766 0.35587 0.0
H2133 H 0.84654 0.85421 0.35046 0.0
H2134 H 0.88195 0.86522 0.36584 0.0
H2135 H 0.84829 0.88251 0.38091 0.0
H2136 H 0.83085 0.88377 0.39407 0.0
H2137 H 0.84844 0.88058 0.43294 0.0
H2138 H 0.86598 0.87914 0.41999 0.0
H2139 H 0.91122 0.91518 0.3737 0.0
H2140 H 0.8975 0.90109 0.36871 0.0
H2141 H 0.89583 0.89298 0.41273 0.0
H2142 H 0.9091 0.9075 0.41793 0.0
H2143 H 0.876 0.89355 0.40252 0.0
H2144 H 0.90961 0.87645 0.38806 0.0
H2145 H 0.9272 0.87475 0.37532 0.0
H2146 H 0.91012 0.87699 0.33598 0.0
H2147 H 0.89243 0.87885 0.34849 0.0
C2148 C 0.85001 0.84839 0.3852 0.0
C2149 C 0.84565 0.84751 0.37155 0.0
C2150 C 0.85816 0.85615 0.38828 0.0
C2151 C 0.86213 0.86323 0.3778 0.0
C2152 C 0.85796 0.86227 0.36412 0.0
C2153 C 0.84978 0.85453 0.36104 0.0
C2154 C 0.8706 0.87169 0.3811 0.0
C2155 C 0.88061 0.87151 0.37374 0.0
C2156 C 0.86897 0.87969 0.39168 0.0
C2157 C 0.85843 0.8806 0.39948 0.0
C2158 C 0.84843 0.88198 0.39226 0.0
C2159 C 0.83853 0.88275 0.39968 0.0
C2160 C 0.83853 0.88222 0.41433 0.0
C2161 C 0.84845 0.88096 0.42159 0.0
C2162 C 0.85837 0.88018 0.41422 0.0
C2163 C 0.90787 0.91049 0.38237 0.0
C2164 C 0.91131 0.91253 0.39624 0.0
C2165 C 0.90012 0.90231 0.37946 0.0
C2166 C 0.89572 0.89582 0.3903 0.0
C2167 C 0.89912 0.89783 0.40416 0.0
C2168 C 0.90681 0.90608 0.4071 0.0
C2169 C 0.8874 0.88713 0.38724 0.0
C2170 C 0.87739 0.88726 0.39464 0.0
C2171 C 0.88907 0.87902 0.37677 0.0
C2172 C 0.8997 0.8779 0.36922 0.0
C2173 C 0.90961 0.87667 0.37669 0.0
C2174 C 0.9196 0.87566 0.36952 0.0
C2175 C 0.91978 0.87579 0.35486 0.0
C2176 C 0.90997 0.87691 0.34734 0.0
C2177 C 0.89995 0.87793 0.35447 0.0
H2178 H 0.92752 0.87501 0.34932 0.0
H2179 H 0.83086 0.88282 0.42006 0.0
H2180 H 0.36104 0.67339 0.64616 0.0
H2181 H 0.37529 0.65964 0.64125 0.0
H2182 H 0.35032 0.63464 0.63724 0.0
H2183 H 0.33606 0.64831 0.64228 0.0
H2184 H 0.36784 0.62791 0.65356 0.0
H2185 H 0.36218 0.64501 0.60849 0.0
H2186 H 0.36109 0.66057 0.59196 0.0
H2187 H 0.39478 0.66882 0.60064 0.0
H2188 H 0.39602 0.65338 0.61738 0.0
H2189 H 0.39882 0.58515 0.62264 0.0
H2190 H 0.38527 0.59946 0.62773 0.0
H2191 H 0.41087 0.62403 0.62624 0.0
H2192 H 0.42444 0.60973 0.62087 0.0
H2193 H 0.39346 0.63146 0.61326 0.0
H2194 H 0.39961 0.61464 0.65787 0.0
H2195 H 0.40107 0.59947 0.67494 0.0
H2196 H 0.36712 0.59123 0.6681 0.0
H2197 H 0.36549 0.60627 0.65084 0.0
C2198 C 0.3586 0.66495 0.6443 0.0
C2199 C 0.34741 0.66195 0.64458 0.0
C2200 C 0.36674 0.65713 0.6414 0.0
C2201 C 0.36387 0.64613 0.63878 0.0
C2202 C 0.35273 0.64308 0.6392 0.0
C2203 C 0.34458 0.65092 0.64198 0.0
C2204 C 0.37246 0.63775 0.63574 0.0
C2205 C 0.37336 0.62861 0.64465 0.0
C2206 C 0.37989 0.63884 0.62437 0.0
C2207 C 0.37915 0.64811 0.6143 0.0
C2208 C 0.36932 0.6502 0.60697 0.0
C2209 C 0.36869 0.65898 0.59754 0.0
C2210 C 0.37785 0.6657 0.59528 0.0
C2211 C 0.38768 0.66362 0.60242 0.0
C2212 C 0.38836 0.65485 0.61187 0.0
C2213 C 0.40158 0.59359 0.62349 0.0
C2214 C 0.41272 0.59629 0.62143 0.0
C2215 C 0.39382 0.60177 0.62642 0.0
C2216 C 0.39705 0.61283 0.62762 0.0
C2217 C 0.40816 0.61557 0.62539 0.0
C2218 C 0.41591 0.60739 0.62231 0.0
C2219 C 0.38882 0.62153 0.63104 0.0
C2220 C 0.38798 0.63075 0.62221 0.0
C2221 C 0.38151 0.62057 0.64258 0.0
C2222 C 0.38246 0.61152 0.65296 0.0
C2223 C 0.39248 0.60954 0.65993 0.0
C2224 C 0.39333 0.60097 0.66965 0.0
C2225 C 0.3842 0.59437 0.67257 0.0
C2226 C 0.37419 0.59634 0.66581 0.0
C2227 C 0.37329 0.60489 0.65606 0.0
H2228 H 0.38488 0.58774 0.68011 0.0
H2229 H 0.37734 0.67249 0.58797 0.0
H2230 H 0.58955 0.10215 0.87757 0.0
H2231 H 0.60322 0.11633 0.87236 0.0
H2232 H 0.62252 0.10586 0.90793 0.0
H2233 H 0.60888 0.09167 0.91321 0.0
H2234 H 0.62145 0.12773 0.90695 0.0
H2235 H 0.62976 0.09897 0.87407 0.0
H2236 H 0.62577 0.08561 0.85529 0.0
H2237 H 0.61645 0.11192 0.82768 0.0
H2238 H 0.62024 0.12544 0.84636 0.0
H2239 H 0.6718 0.15415 0.88925 0.0
H2240 H 0.65745 0.14071 0.89461 0.0
H2241 H 0.63837 0.15231 0.85944 0.0
H2242 H 0.65262 0.16587 0.85409 0.0
H2243 H 0.63906 0.13016 0.86007 0.0
H2244 H 0.63112 0.15895 0.89285 0.0
H2245 H 0.63516 0.1723 0.91162 0.0
H2246 H 0.64386 0.14592 0.93945 0.0
H2247 H 0.64002 0.13241 0.92077 0.0
C2248 C 0.59675 0.1028 0.88423 0.0
C2249 C 0.59813 0.09573 0.89579 0.0
C2250 C 0.60456 0.11093 0.88124 0.0
C2251 C 0.61399 0.11209 0.88965 0.0
C2252 C 0.61532 0.10514 0.9013 0.0
C2253 C 0.60749 0.09704 0.90433 0.0
C2254 C 0.62246 0.12056 0.88633 0.0
C2255 C 0.6254 0.12817 0.89676 0.0
C2256 C 0.62744 0.12132 0.87292 0.0
C2257 C 0.62518 0.11321 0.86166 0.0
C2258 C 0.62677 0.1019 0.86403 0.0
C2259 C 0.62456 0.0943 0.85339 0.0
C2260 C 0.62083 0.09791 0.84031 0.0
C2261 C 0.61933 0.10913 0.83782 0.0
C2262 C 0.62151 0.11677 0.84843 0.0
C2263 C 0.66449 0.15396 0.88275 0.0
C2264 C 0.66338 0.16114 0.87125 0.0
C2265 C 0.6563 0.14624 0.88582 0.0
C2266 C 0.64677 0.14556 0.87751 0.0
C2267 C 0.64565 0.15266 0.86599 0.0
C2268 C 0.65384 0.16039 0.86291 0.0
C2269 C 0.63807 0.13731 0.88071 0.0
C2270 C 0.63509 0.12974 0.87026 0.0
C2271 C 0.63307 0.13657 0.8941 0.0
C2272 C 0.63539 0.14468 0.90536 0.0
C2273 C 0.63398 0.156 0.90293 0.0
C2274 C 0.63622 0.1636 0.91356 0.0
C2275 C 0.6398 0.15996 0.92671 0.0
C2276 C 0.64111 0.14872 0.92926 0.0
C2277 C 0.6389 0.14109 0.91865 0.0
H2278 H 0.64152 0.16586 0.93493 0.0
H2279 H 0.61913 0.09201 0.83209 0.0
H2280 H 0.1034 0.58747 0.37521 0.0
H2281 H 0.11696 0.60165 0.36979 0.0
H2282 H 0.11049 0.61727 0.40959 0.0
H2283 H 0.09652 0.60339 0.41481 0.0
H2284 H 0.11218 0.63231 0.38963 0.0
H2285 H 0.13371 0.6012 0.40399 0.0
H2286 H 0.13989 0.58188 0.40358 0.0
H2287 H 0.14997 0.58546 0.36063 0.0
H2288 H 0.14372 0.60476 0.36072 0.0
H2289 H 0.15976 0.66638 0.39079 0.0
H2290 H 0.14576 0.65255 0.39604 0.0
H2291 H 0.15172 0.63712 0.356 0.0
H2292 H 0.16603 0.65067 0.3509 0.0
H2293 H 0.15027 0.62204 0.37616 0.0
H2294 H 0.12878 0.65326 0.36193 0.0
H2295 H 0.12265 0.67259 0.3625 0.0
H2296 H 0.11257 0.66883 0.40543 0.0
H2297 H 0.11879 0.64951 0.40518 0.0
C2298 C 0.10474 0.59398 0.38276 0.0
C2299 C 0.09884 0.59424 0.39548 0.0
C2300 C 0.11261 0.60203 0.37971 0.0
C2301 C 0.11489 0.61046 0.38937 0.0
C2302 C 0.10893 0.61083 0.40199 0.0
C2303 C 0.10101 0.60281 0.40503 0.0
C2304 C 0.12345 0.61889 0.38629 0.0
C2305 C 0.12055 0.63006 0.38687 0.0
C2306 C 0.13433 0.61599 0.38238 0.0
C2307 C 0.13815 0.6044 0.38233 0.0
C2308 C 0.13718 0.59784 0.39443 0.0
C2309 C 0.1407 0.5869 0.39426 0.0
C2310 C 0.1453 0.58244 0.38208 0.0
C2311 C 0.1464 0.58892 0.37005 0.0
C2312 C 0.14288 0.59987 0.37016 0.0
C2313 C 0.15816 0.66 0.38313 0.0
C2314 C 0.16404 0.65967 0.3704 0.0
C2315 C 0.15006 0.65216 0.38609 0.0
C2316 C 0.14757 0.64386 0.37635 0.0
C2317 C 0.15345 0.64347 0.36367 0.0
C2318 C 0.16157 0.65129 0.36071 0.0
C2319 C 0.13899 0.63545 0.37947 0.0
C2320 C 0.1419 0.62429 0.37891 0.0
C2321 C 0.12813 0.63837 0.38342 0.0
C2322 C 0.12435 0.64997 0.38358 0.0
C2323 C 0.12533 0.65658 0.37153 0.0
C2324 C 0.12183 0.66753 0.37179 0.0
C2325 C 0.11725 0.67194 0.384 0.0
C2326 C 0.11614 0.66541 0.39598 0.0
C2327 C 0.11964 0.65445 0.39578 0.0
H2328 H 0.11454 0.68042 0.38418 0.0
H2329 H 0.14802 0.57396 0.38197 0.0
H2330 H 0.59 0.90691 0.63816 0.0
H2331 H 0.6037 0.89279 0.64355 0.0
H2332 H 0.62315 0.90324 0.6081 0.0
H2333 H 0.60948 0.91738 0.60265 0.0
H2334 H 0.62218 0.88133 0.60922 0.0
H2335 H 0.63018 0.91028 0.64192 0.0
H2336 H 0.62604 0.92374 0.66055 0.0
H2337 H 0.61668 0.89755 0.68832 0.0
H2338 H 0.62062 0.88394 0.66979 0.0
H2339 H 0.67254 0.85522 0.62752 0.0
H2340 H 0.65818 0.8686 0.62202 0.0
H2341 H 0.63892 0.85698 0.65702 0.0
H2342 H 0.65319 0.84344 0.66251 0.0
H2343 H 0.63953 0.87919 0.65627 0.0
H2344 H 0.63188 0.85021 0.62369 0.0
H2345 H 0.63608 0.83677 0.60507 0.0
H2346 H 0.64485 0.86302 0.57708 0.0
H2347 H 0.64085 0.87662 0.5956 0.0
C2348 C 0.59723 0.90626 0.63157 0.0
C2349 C 0.59865 0.91333 0.62001 0.0
C2350 C 0.60506 0.89817 0.63465 0.0
C2351 C 0.61454 0.89702 0.62634 0.0
C2352 C 0.6159 0.90395 0.61467 0.0
C2353 C 0.60806 0.91202 0.61154 0.0
C2354 C 0.62304 0.88861 0.62979 0.0
C2355 C 0.62608 0.88096 0.61946 0.0
C2356 C 0.62795 0.88793 0.64325 0.0
C2357 C 0.62559 0.8961 0.65442 0.0
C2358 C 0.62716 0.9074 0.65196 0.0
C2359 C 0.62486 0.91505 0.66251 0.0
C2360 C 0.62107 0.9115 0.6756 0.0
C2361 C 0.6196 0.90029 0.67817 0.0
C2362 C 0.62187 0.8926 0.66766 0.0
C2363 C 0.6652 0.85539 0.63396 0.0
C2364 C 0.66403 0.84819 0.64544 0.0
C2365 C 0.657 0.86308 0.63081 0.0
C2366 C 0.64741 0.86374 0.63902 0.0
C2367 C 0.64625 0.85664 0.65055 0.0
C2368 C 0.65444 0.84892 0.6537 0.0
C2369 C 0.63869 0.87194 0.63569 0.0
C2370 C 0.63562 0.87955 0.64605 0.0
C2371 C 0.63376 0.87259 0.62225 0.0
C2372 C 0.63617 0.86443 0.61109 0.0
C2373 C 0.6348 0.85312 0.6136 0.0
C2374 C 0.63712 0.84547 0.60306 0.0
C2375 C 0.64076 0.84904 0.58991 0.0
C2376 C 0.64205 0.86027 0.58727 0.0
C2377 C 0.63974 0.86795 0.59779 0.0
H2378 H 0.64255 0.84311 0.58176 0.0
H2379 H 0.61931 0.91744 0.68375 0.0
H2380 H 0.33919 0.36099 0.85853 0.0
H2381 H 0.35347 0.37453 0.86378 0.0
H2382 H 0.36955 0.35122 0.89107 0.0
H2383 H 0.35523 0.33766 0.88594 0.0
H2384 H 0.36912 0.37079 0.90308 0.0
H2385 H 0.3796 0.35717 0.85788 0.0
H2386 H 0.37694 0.35233 0.83298 0.0
H2387 H 0.36973 0.38606 0.8233 0.0
H2388 H 0.37219 0.39108 0.84819 0.0
H2389 H 0.41944 0.40058 0.90912 0.0
H2390 H 0.40567 0.38648 0.90393 0.0
H2391 H 0.38818 0.40939 0.87753 0.0
H2392 H 0.40188 0.42354 0.8827 0.0
H2393 H 0.38972 0.38965 0.8651 0.0
H2394 H 0.37903 0.40305 0.91066 0.0
H2395 H 0.38194 0.4077 0.93557 0.0
H2396 H 0.38995 0.37403 0.94454 0.0
H2397 H 0.38723 0.36921 0.91962 0.0
C2398 C 0.34582 0.3587 0.86556 0.0
C2399 C 0.34609 0.34821 0.87176 0.0
C2400 C 0.35399 0.36647 0.86856 0.0
C2401 C 0.3627 0.36387 0.87769 0.0
C2402 C 0.36292 0.35343 0.884 0.0
C2403 C 0.35472 0.34569 0.88108 0.0
C2404 C 0.3715 0.37206 0.88073 0.0
C2405 C 0.37373 0.37479 0.89477 0.0
C2406 C 0.37741 0.37746 0.86991 0.0
C2407 C 0.37598 0.37448 0.85492 0.0
C2408 C 0.37737 0.36354 0.85046 0.0
C2409 C 0.37591 0.36077 0.83634 0.0
C2410 C 0.37314 0.36888 0.82657 0.0
C2411 C 0.37186 0.37979 0.83089 0.0
C2412 C 0.3733 0.3826 0.84499 0.0
C2413 C 0.41261 0.40266 0.90231 0.0
C2414 C 0.41176 0.41322 0.89636 0.0
C2415 C 0.40475 0.39457 0.89932 0.0
C2416 C 0.39581 0.39689 0.89044 0.0
C2417 C 0.39501 0.40739 0.88438 0.0
C2418 C 0.40287 0.41547 0.88733 0.0
C2419 C 0.38729 0.38841 0.88743 0.0
C2420 C 0.38512 0.38562 0.8734 0.0
C2421 C 0.38148 0.38293 0.89826 0.0
C2422 C 0.38303 0.38579 0.91326 0.0
C2423 C 0.38149 0.39666 0.91793 0.0
C2424 C 0.38309 0.39932 0.93205 0.0
C2425 C 0.38615 0.39117 0.94162 0.0
C2426 C 0.38759 0.38033 0.9371 0.0
C2427 C 0.386 0.37763 0.92299 0.0
H2428 H 0.3874 0.39325 0.95255 0.0
H2429 H 0.37201 0.36672 0.81565 0.0
H2430 H 0.89779 0.0837 0.12277 0.0
H2431 H 0.8841 0.09798 0.12765 0.0
H2432 H 0.90934 0.12281 0.12486 0.0
H2433 H 0.92312 0.10854 0.12009 0.0
H2434 H 0.89548 0.12569 0.14792 0.0
H2435 H 0.89221 0.11977 0.09831 0.0
H2436 H 0.88984 0.10869 0.07686 0.0
H2437 H 0.85823 0.09777 0.09147 0.0
H2438 H 0.86049 0.10867 0.11312 0.0
H2439 H 0.85932 0.17167 0.14583 0.0
H2440 H 0.8736 0.15808 0.1406 0.0
H2441 H 0.84882 0.13279 0.1375 0.0
H2442 H 0.8345 0.14639 0.14247 0.0
H2443 H 0.86291 0.13042 0.11709 0.0
H2444 H 0.86608 0.13568 0.16682 0.0
H2445 H 0.86831 0.14632 0.18866 0.0
H2446 H 0.89979 0.15793 0.17448 0.0
H2447 H 0.89768 0.14747 0.15246 0.0
C2448 C 0.90044 0.0922 0.12328 0.0
C2449 C 0.91154 0.09499 0.12102 0.0
C2450 C 0.8926 0.10035 0.12598 0.0
C2451 C 0.89568 0.11147 0.12651 0.0
C2452 C 0.90678 0.11428 0.12446 0.0
C2453 C 0.91462 0.10613 0.12164 0.0
C2454 C 0.88731 0.12014 0.12919 0.0
C2455 C 0.88843 0.12684 0.14108 0.0
C2456 C 0.87798 0.12146 0.12044 0.0
C2457 C 0.87657 0.11495 0.10739 0.0
C2458 C 0.88479 0.11494 0.097 0.0
C2459 C 0.88346 0.1087 0.0848 0.0
C2460 C 0.8739 0.10251 0.08282 0.0
C2461 C 0.86564 0.10256 0.09303 0.0
C2462 C 0.86693 0.10878 0.10526 0.0
C2463 C 0.85693 0.16319 0.14413 0.0
C2464 C 0.84578 0.1601 0.14461 0.0
C2465 C 0.86511 0.15542 0.14115 0.0
C2466 C 0.86233 0.14434 0.13884 0.0
C2467 C 0.85119 0.14127 0.13922 0.0
C2468 C 0.843 0.14906 0.14206 0.0
C2469 C 0.871 0.13596 0.13592 0.0
C2470 C 0.86995 0.1293 0.12395 0.0
C2471 C 0.88035 0.13463 0.14467 0.0
C2472 C 0.88167 0.14088 0.15793 0.0
C2473 C 0.87345 0.14056 0.16832 0.0
C2474 C 0.87469 0.14655 0.18074 0.0
C2475 C 0.88417 0.15282 0.18294 0.0
C2476 C 0.89244 0.15309 0.17275 0.0
C2477 C 0.89123 0.14712 0.1603 0.0
H2478 H 0.88512 0.15746 0.19256 0.0
H2479 H 0.87288 0.09768 0.07336 0.0
H2480 H 0.85243 0.67025 0.88833 0.0
H2481 H 0.86649 0.65646 0.89362 0.0
H2482 H 0.85588 0.6372 0.85811 0.0
H2483 H 0.84159 0.6508 0.853 0.0
H2484 H 0.85899 0.62442 0.88083 0.0
H2485 H 0.87946 0.65247 0.85679 0.0
H2486 H 0.88613 0.67131 0.85241 0.0
H2487 H 0.90104 0.67206 0.89325 0.0
H2488 H 0.89432 0.65327 0.89795 0.0
H2489 H 0.90419 0.58779 0.87744 0.0
H2490 H 0.89055 0.60193 0.87212 0.0
H2491 H 0.90212 0.62128 0.90705 0.0
H2492 H 0.91612 0.60737 0.9121 0.0
H2493 H 0.89853 0.63412 0.88487 0.0
H2494 H 0.87815 0.60621 0.90904 0.0
H2495 H 0.87145 0.58742 0.91368 0.0
H2496 H 0.8563 0.58646 0.87299 0.0
H2497 H 0.86304 0.6052 0.86803 0.0
C2498 C 0.85304 0.66305 0.88169 0.0
C2499 C 0.84588 0.66165 0.87022 0.0
C2500 C 0.86116 0.65521 0.88465 0.0
C2501 C 0.86233 0.64583 0.87618 0.0
C2502 C 0.85516 0.64438 0.86477 0.0
C2503 C 0.84705 0.65222 0.86179 0.0
C2504 C 0.87093 0.63745 0.87932 0.0
C2505 C 0.86765 0.62651 0.88152 0.0
C2506 C 0.88221 0.64022 0.8806 0.0
C2507 C 0.88629 0.6515 0.87777 0.0
C2508 C 0.88408 0.65668 0.86488 0.0
C2509 C 0.88789 0.66735 0.86233 0.0
C2510 C 0.89398 0.67289 0.87256 0.0
C2511 C 0.8963 0.66776 0.88534 0.0
C2512 C 0.89251 0.6571 0.88795 0.0
C2513 C 0.90394 0.5951 0.88392 0.0
C2514 C 0.91128 0.5964 0.89523 0.0
C2515 C 0.89604 0.60314 0.88095 0.0
C2516 C 0.89518 0.61262 0.8893 0.0
C2517 C 0.90257 0.61402 0.90049 0.0
C2518 C 0.91051 0.606 0.90345 0.0
C2519 C 0.8866 0.62107 0.88633 0.0
C2520 C 0.88987 0.63202 0.88418 0.0
C2521 C 0.87531 0.61832 0.88514 0.0
C2522 C 0.87119 0.60707 0.88812 0.0
C2523 C 0.87346 0.60196 0.90104 0.0
C2524 C 0.86964 0.59133 0.90373 0.0
C2525 C 0.86347 0.58574 0.89362 0.0
C2526 C 0.86109 0.59079 0.88081 0.0
C2527 C 0.8649 0.60143 0.87806 0.0
H2528 H 0.86053 0.5775 0.89572 0.0
H2529 H 0.89692 0.68114 0.87056 0.0
H2530 H 0.09426 0.10718 0.60311 0.0
H2531 H 0.10805 0.12123 0.60831 0.0
H2532 H 0.11739 0.10369 0.64579 0.0
H2533 H 0.10377 0.08948 0.64055 0.0
H2534 H 0.11536 0.12585 0.65051 0.0
H2535 H 0.13331 0.10228 0.61706 0.0
H2536 H 0.13509 0.09223 0.5947 0.0
H2537 H 0.13326 0.12266 0.57193 0.0
H2538 H 0.13131 0.13287 0.59417 0.0
H2539 H 0.16615 0.15254 0.66456 0.0
H2540 H 0.15178 0.13909 0.65936 0.0
H2541 H 0.14422 0.15616 0.62088 0.0
H2542 H 0.15855 0.16969 0.62604 0.0
H2543 H 0.14505 0.1345 0.61648 0.0
H2544 H 0.12737 0.15821 0.64955 0.0
H2545 H 0.12531 0.16847 0.6717 0.0
H2546 H 0.12625 0.13823 0.69494 0.0
H2547 H 0.12847 0.12779 0.67293 0.0
C2548 C 0.09932 0.10623 0.61239 0.0
C2549 C 0.09791 0.09713 0.62137 0.0
C2550 C 0.10718 0.11431 0.61538 0.0
C2551 C 0.11383 0.11348 0.62738 0.0
C2552 C 0.11233 0.10453 0.63649 0.0
C2553 C 0.1045 0.09642 0.63349 0.0
C2554 C 0.1224 0.12189 0.6304 0.0
C2555 C 0.12193 0.12765 0.64315 0.0
C2556 C 0.13081 0.12445 0.62064 0.0
C2557 C 0.13205 0.11833 0.60727 0.0
C2558 C 0.1332 0.10682 0.60728 0.0
C2559 C 0.13425 0.1011 0.59463 0.0
C2560 C 0.13425 0.1068 0.5819 0.0
C2561 C 0.13324 0.11825 0.5818 0.0
C2562 C 0.13217 0.12401 0.59442 0.0
C2563 C 0.16135 0.15352 0.65506 0.0
C2564 C 0.1635 0.16224 0.64575 0.0
C2565 C 0.15314 0.1458 0.65209 0.0
C2566 C 0.14682 0.14666 0.63979 0.0
C2567 C 0.14899 0.1553 0.63042 0.0
C2568 C 0.15722 0.16302 0.63337 0.0
C2569 C 0.13805 0.13846 0.63663 0.0
C2570 C 0.13847 0.13274 0.62384 0.0
C2571 C 0.12956 0.13598 0.64633 0.0
C2572 C 0.1282 0.14222 0.65959 0.0
C2573 C 0.12722 0.15375 0.65939 0.0
C2574 C 0.12601 0.1596 0.67192 0.0
C2575 C 0.12568 0.15401 0.68473 0.0
C2576 C 0.12653 0.14255 0.68502 0.0
C2577 C 0.12775 0.13666 0.67251 0.0
H2578 H 0.12474 0.15855 0.69442 0.0
H2579 H 0.13507 0.10235 0.57212 0.0
H2580 H 0.6076 0.41605 0.41434 0.0
H2581 H 0.62126 0.40185 0.40919 0.0
H2582 H 0.60482 0.39465 0.37015 0.0
H2583 H 0.5909 0.40859 0.37545 0.0
H2584 H 0.61065 0.37602 0.38342 0.0
H2585 H 0.62854 0.40981 0.37081 0.0
H2586 H 0.63523 0.42872 0.37459 0.0
H2587 H 0.65557 0.41756 0.40857 0.0
H2588 H 0.64889 0.39859 0.40512 0.0
H2589 H 0.65373 0.3449 0.35221 0.0
H2590 H 0.63975 0.35876 0.35743 0.0
H2591 H 0.6566 0.36692 0.39588 0.0
H2592 H 0.67087 0.35342 0.39043 0.0
H2593 H 0.65047 0.38506 0.38283 0.0
H2594 H 0.63265 0.35129 0.39555 0.0
H2595 H 0.62592 0.33237 0.39196 0.0
H2596 H 0.60544 0.34341 0.35804 0.0
H2597 H 0.61216 0.36238 0.36131 0.0
C2598 C 0.60681 0.41138 0.40472 0.0
C2599 C 0.59815 0.41351 0.39529 0.0
C2600 C 0.6147 0.40333 0.40172 0.0
C2601 C 0.61416 0.39727 0.38919 0.0
C2602 C 0.60544 0.39925 0.37986 0.0
C2603 C 0.59754 0.4073 0.38284 0.0
C2604 C 0.62269 0.38887 0.38583 0.0
C2605 C 0.61935 0.37802 0.38311 0.0
C2606 C 0.63407 0.39141 0.38573 0.0
C2607 C 0.63813 0.4028 0.38779 0.0
C2608 C 0.63438 0.4114 0.37916 0.0
C2609 C 0.63818 0.42213 0.38123 0.0
C2610 C 0.6458 0.42435 0.39184 0.0
C2611 C 0.64966 0.41583 0.40037 0.0
C2612 C 0.64587 0.40509 0.39835 0.0
C2613 C 0.65453 0.3497 0.36172 0.0
C2614 C 0.66345 0.348 0.3709 0.0
C2615 C 0.64645 0.35755 0.36478 0.0
C2616 C 0.64702 0.3638 0.37715 0.0
C2617 C 0.65594 0.36217 0.3863 0.0
C2618 C 0.66405 0.35436 0.38323 0.0
C2619 C 0.63845 0.37218 0.38046 0.0
C2620 C 0.64178 0.38304 0.38315 0.0
C2621 C 0.62706 0.36964 0.38056 0.0
C2622 C 0.62299 0.35824 0.37859 0.0
C2623 C 0.62678 0.34967 0.38725 0.0
C2624 C 0.62295 0.33894 0.38529 0.0
C2625 C 0.61528 0.33669 0.37476 0.0
C2626 C 0.61139 0.34517 0.36619 0.0
C2627 C 0.6152 0.35591 0.3681 0.0
H2628 H 0.61233 0.32837 0.37325 0.0
H2629 H 0.64873 0.43266 0.39342 0.0
H2630 H 0.40221 0.92226 0.13471 0.0
H2631 H 0.38862 0.90802 0.13987 0.0
H2632 H 0.40774 0.88448 0.11634 0.0
H2633 H 0.4214 0.8987 0.11115 0.0
H2634 H 0.38642 0.88278 0.1099 0.0
H2635 H 0.40738 0.88422 0.15245 0.0
H2636 H 0.41605 0.89303 0.17297 0.0
H2637 H 0.38438 0.90392 0.1874 0.0
H2638 H 0.37553 0.89531 0.16686 0.0
H2639 H 0.35698 0.8356 0.13338 0.0
H2640 H 0.37133 0.84915 0.12838 0.0
H2641 H 0.35351 0.87344 0.15233 0.0
H2642 H 0.33919 0.85989 0.15747 0.0
H2643 H 0.37464 0.87435 0.15857 0.0
H2644 H 0.35374 0.8733 0.11571 0.0
H2645 H 0.34508 0.86453 0.09515 0.0
H2646 H 0.37666 0.85293 0.08129 0.0
H2647 H 0.38549 0.8615 0.10188 0.0
C2648 C 0.4036 0.91402 0.13076 0.0
C2649 C 0.41294 0.91163 0.12256 0.0
C2650 C 0.3958 0.90588 0.13371 0.0
C2651 C 0.3972 0.89512 0.12864 0.0
C2652 C 0.40647 0.89272 0.12037 0.0
C2653 C 0.41426 0.90087 0.11738 0.0
C2654 C 0.38891 0.88645 0.13178 0.0
C2655 C 0.38397 0.88083 0.12056 0.0
C2656 C 0.38551 0.88404 0.14566 0.0
C2657 C 0.3908 0.88921 0.15804 0.0
C2658 C 0.40227 0.88857 0.15994 0.0
C2659 C 0.40721 0.89351 0.17159 0.0
C2660 C 0.40077 0.89905 0.18146 0.0
C2661 C 0.38936 0.89964 0.17973 0.0
C2662 C 0.38438 0.89472 0.1681 0.0
C2663 C 0.35607 0.84385 0.13749 0.0
C2664 C 0.34692 0.84666 0.1458 0.0
C2665 C 0.36429 0.8516 0.13462 0.0
C2666 C 0.36346 0.86238 0.13983 0.0
C2667 C 0.35436 0.86518 0.14821 0.0
C2668 C 0.34619 0.85742 0.15116 0.0
C2669 C 0.37209 0.87073 0.13669 0.0
C2670 C 0.37711 0.87629 0.14791 0.0
C2671 C 0.37556 0.87308 0.1228 0.0
C2672 C 0.37026 0.86795 0.11041 0.0
C2673 C 0.35883 0.8688 0.10833 0.0
C2674 C 0.35389 0.86388 0.09667 0.0
C2675 C 0.36031 0.85815 0.08694 0.0
C2676 C 0.37169 0.85735 0.08884 0.0
C2677 C 0.37667 0.86225 0.1005 0.0
H2678 H 0.35648 0.85435 0.07792 0.0
H2679 H 0.40461 0.90287 0.19047 0.0
H2680 H 0.89906 0.4248 0.62275 0.0
H2681 H 0.88542 0.41054 0.62766 0.0
H2682 H 0.91083 0.38578 0.62557 0.0
H2683 H 0.92448 0.40003 0.62038 0.0
H2684 H 0.89337 0.37863 0.61257 0.0
H2685 H 0.8997 0.3949 0.65744 0.0
H2686 H 0.90129 0.40985 0.67479 0.0
H2687 H 0.86737 0.41841 0.66821 0.0
H2688 H 0.86562 0.40359 0.65068 0.0
H2689 H 0.86087 0.33655 0.64507 0.0
H2690 H 0.87516 0.35029 0.64032 0.0
H2691 H 0.85025 0.37538 0.63645 0.0
H2692 H 0.83594 0.36172 0.64129 0.0
H2693 H 0.86784 0.38189 0.653 0.0
H2694 H 0.86202 0.36529 0.60767 0.0
H2695 H 0.86084 0.34989 0.59091 0.0
H2696 H 0.8945 0.34138 0.59939 0.0
H2697 H 0.89584 0.35664 0.61636 0.0
C2698 C 0.90175 0.41632 0.62343 0.0
C2699 C 0.91286 0.41355 0.62125 0.0
C2700 C 0.89395 0.40817 0.62626 0.0
C2701 C 0.8971 0.39707 0.62723 0.0
C2702 C 0.90818 0.39427 0.6249 0.0
C2703 C 0.91597 0.40242 0.62191 0.0
C2704 C 0.88881 0.3884 0.63052 0.0
C2705 C 0.88791 0.37928 0.62154 0.0
C2706 C 0.88154 0.38927 0.64211 0.0
C2707 C 0.88256 0.39819 0.65265 0.0
C2708 C 0.8926 0.40002 0.65962 0.0
C2709 C 0.89353 0.40847 0.66949 0.0
C2710 C 0.88444 0.41509 0.67257 0.0
C2711 C 0.87441 0.41327 0.6658 0.0
C2712 C 0.87344 0.40485 0.6559 0.0
C2713 C 0.85845 0.34501 0.64326 0.0
C2714 C 0.84727 0.34804 0.64352 0.0
C2715 C 0.86661 0.35283 0.64046 0.0
C2716 C 0.86377 0.36385 0.63794 0.0
C2717 C 0.85263 0.36692 0.63834 0.0
C2718 C 0.84446 0.35909 0.64101 0.0
C2719 C 0.87239 0.37222 0.635 0.0
C2720 C 0.87334 0.38126 0.64407 0.0
C2721 C 0.87979 0.37121 0.6236 0.0
C2722 C 0.87899 0.36203 0.6134 0.0
C2723 C 0.86914 0.36007 0.60606 0.0
C2724 C 0.86845 0.35138 0.5965 0.0
C2725 C 0.87758 0.34464 0.59412 0.0
C2726 C 0.88743 0.34659 0.60126 0.0
C2727 C 0.88816 0.35527 0.61084 0.0
H2728 H 0.87703 0.33791 0.58671 0.0
H2729 H 0.88518 0.42163 0.68023 0.0
H2730 H 0.39873 0.08689 0.40658 0.0
H2731 H 0.38498 0.10103 0.4014 0.0
H2732 H 0.40977 0.12046 0.38052 0.0
H2733 H 0.4236 0.1064 0.38586 0.0
H2734 H 0.39683 0.13299 0.39786 0.0
H2735 H 0.39154 0.10643 0.36143 0.0
H2736 H 0.38839 0.088 0.35144 0.0
H2737 H 0.35754 0.08578 0.37328 0.0
H2738 H 0.36058 0.10415 0.38358 0.0
H2739 H 0.36018 0.17006 0.36345 0.0
H2740 H 0.37428 0.15624 0.36853 0.0
H2741 H 0.34988 0.13586 0.38864 0.0
H2742 H 0.33569 0.14952 0.38332 0.0
H2743 H 0.36284 0.1239 0.37141 0.0
H2744 H 0.36822 0.15044 0.40799 0.0
H2745 H 0.3714 0.16887 0.41798 0.0
H2746 H 0.4021 0.17115 0.39582 0.0
H2747 H 0.39903 0.15279 0.38554 0.0
C2748 C 0.40128 0.09421 0.40098 0.0
C2749 C 0.41227 0.09551 0.39661 0.0
C2750 C 0.39339 0.10225 0.39793 0.0
C2751 C 0.39632 0.11177 0.39046 0.0
C2752 C 0.40731 0.11317 0.38626 0.0
C2753 C 0.41519 0.10509 0.38923 0.0
C2754 C 0.3879 0.12026 0.38705 0.0
C2755 C 0.38947 0.13104 0.39191 0.0
C2756 C 0.37819 0.11767 0.37954 0.0
C2757 C 0.37634 0.10662 0.37339 0.0
C2758 C 0.38413 0.10197 0.36421 0.0
C2759 C 0.38236 0.09154 0.35847 0.0
C2760 C 0.37279 0.08571 0.36176 0.0
C2761 C 0.36496 0.0903 0.37077 0.0
C2762 C 0.3667 0.10072 0.37655 0.0
C2763 C 0.3578 0.16261 0.36889 0.0
C2764 C 0.3468 0.16092 0.373 0.0
C2765 C 0.36589 0.15475 0.37189 0.0
C2766 C 0.36317 0.14504 0.37909 0.0
C2767 C 0.35219 0.14329 0.38312 0.0
C2768 C 0.3441 0.15116 0.38016 0.0
C2769 C 0.37173 0.13664 0.38228 0.0
C2770 C 0.3702 0.12586 0.37736 0.0
C2771 C 0.38148 0.13924 0.38973 0.0
C2772 C 0.38334 0.15029 0.39587 0.0
C2773 C 0.3756 0.15492 0.40515 0.0
C2774 C 0.3774 0.16534 0.41088 0.0
C2775 C 0.38693 0.17119 0.40751 0.0
C2776 C 0.39471 0.16662 0.39841 0.0
C2777 C 0.39295 0.1562 0.39263 0.0
H2778 H 0.38831 0.17926 0.41197 0.0
H2779 H 0.37143 0.07764 0.35729 0.0
H2780 H 0.61092 0.58903 0.10496 0.0
H2781 H 0.6246 0.6032 0.11018 0.0
H2782 H 0.60299 0.61702 0.14148 0.0
H2783 H 0.58915 0.60301 0.13608 0.0
H2784 H 0.61224 0.63295 0.12544 0.0
H2785 H 0.62482 0.60148 0.15117 0.0
H2786 H 0.6304 0.58216 0.15445 0.0
H2787 H 0.65675 0.58646 0.12491 0.0
H2788 H 0.65123 0.60579 0.1213 0.0
H2789 H 0.652 0.66683 0.15923 0.0
H2790 H 0.63803 0.65293 0.15405 0.0
H2791 H 0.65964 0.63819 0.12344 0.0
H2792 H 0.67379 0.65182 0.1289 0.0
H2793 H 0.65026 0.62274 0.13933 0.0
H2794 H 0.63767 0.65419 0.1135 0.0
H2795 H 0.63207 0.6735 0.11013 0.0
H2796 H 0.60577 0.66927 0.13976 0.0
H2797 H 0.6113 0.64996 0.14345 0.0
C2798 C 0.60903 0.59514 0.11287 0.0
C2799 C 0.59894 0.59486 0.12012 0.0
C2800 C 0.6169 0.60318 0.11593 0.0
C2801 C 0.61488 0.61111 0.12634 0.0
C2802 C 0.60476 0.61096 0.13345 0.0
C2803 C 0.59689 0.60289 0.13043 0.0
C2804 C 0.62333 0.61956 0.12979 0.0
C2805 C 0.62051 0.63072 0.12866 0.0
C2806 C 0.63419 0.61667 0.1337 0.0
C2807 C 0.63754 0.60505 0.13586 0.0
C2808 C 0.63174 0.59829 0.14528 0.0
C2809 C 0.63491 0.58734 0.14722 0.0
C2810 C 0.6439 0.58308 0.13986 0.0
C2811 C 0.64977 0.58977 0.13058 0.0
C2812 C 0.64663 0.60072 0.12859 0.0
C2813 C 0.65382 0.66058 0.15147 0.0
C2814 C 0.66403 0.66048 0.14446 0.0
C2815 C 0.64578 0.6527 0.14841 0.0
C2816 C 0.64772 0.64457 0.13823 0.0
C2817 C 0.65792 0.64439 0.1313 0.0
C2818 C 0.66597 0.65227 0.13435 0.0
C2819 C 0.6392 0.63616 0.13493 0.0
C2820 C 0.64199 0.62499 0.1361 0.0
C2821 C 0.62832 0.63905 0.13105 0.0
C2822 C 0.62497 0.65066 0.12885 0.0
C2823 C 0.63075 0.6574 0.11938 0.0
C2824 C 0.62758 0.66834 0.1174 0.0
C2825 C 0.61859 0.67262 0.12475 0.0
C2826 C 0.61274 0.66595 0.13408 0.0
C2827 C 0.61588 0.65501 0.13612 0.0
H2828 H 0.61615 0.68109 0.1232 0.0
H2829 H 0.64634 0.5746 0.14138 0.0
H2830 H 0.17245 0.86164 0.86249 0.0
H2831 H 0.15827 0.87531 0.86784 0.0
H2832 H 0.13828 0.85014 0.88701 0.0
H2833 H 0.1524 0.83639 0.88154 0.0
H2834 H 0.12619 0.86364 0.86967 0.0
H2835 H 0.15187 0.86765 0.90738 0.0
H2836 H 0.17008 0.87033 0.91828 0.0
H2837 H 0.17313 0.90171 0.89799 0.0
H2838 H 0.155 0.89915 0.8868 0.0
H2839 H 0.08852 0.89982 0.90387 0.0
H2840 H 0.10235 0.88569 0.89893 0.0
H2841 H 0.12358 0.91026 0.88067 0.0
H2842 H 0.1099 0.92446 0.88585 0.0
H2843 H 0.1349 0.89676 0.89796 0.0
H2844 H 0.10931 0.89264 0.85999 0.0
H2845 H 0.09112 0.88993 0.84905 0.0
H2846 H 0.08789 0.85875 0.8698 0.0
H2847 H 0.10601 0.86135 0.88104 0.0
C2848 C 0.16501 0.859 0.86776 0.0
C2849 C 0.16356 0.84793 0.87161 0.0
C2850 C 0.15694 0.86684 0.87091 0.0
C2851 C 0.14725 0.86377 0.87793 0.0
C2852 C 0.14571 0.8527 0.88162 0.0
C2853 C 0.15381 0.84487 0.87857 0.0
C2854 C 0.13873 0.87213 0.8814 0.0
C2855 C 0.12805 0.87081 0.87602 0.0
C2856 C 0.1412 0.8816 0.88945 0.0
C2857 C 0.15212 0.88316 0.89613 0.0
C2858 C 0.15647 0.87508 0.90514 0.0
C2859 C 0.16677 0.87658 0.91139 0.0
C2860 C 0.17277 0.88617 0.9088 0.0
C2861 C 0.16848 0.89428 0.89997 0.0
C2862 C 0.15819 0.89281 0.89368 0.0
C2863 C 0.09616 0.90223 0.89888 0.0
C2864 C 0.09809 0.91328 0.89523 0.0
C2865 C 0.10402 0.89413 0.89595 0.0
C2866 C 0.11397 0.89689 0.8893 0.0
C2867 C 0.11595 0.90792 0.88576 0.0
C2868 C 0.10809 0.91602 0.88864 0.0
C2869 C 0.12237 0.88832 0.88616 0.0
C2870 C 0.13303 0.8896 0.89162 0.0
C2871 C 0.11987 0.87881 0.87819 0.0
C2872 C 0.10896 0.87724 0.87148 0.0
C2873 C 0.10468 0.88525 0.86233 0.0
C2874 C 0.09439 0.88372 0.85605 0.0
C2875 C 0.08834 0.87419 0.85876 0.0
C2876 C 0.09258 0.86614 0.86773 0.0
C2877 C 0.10286 0.86763 0.87405 0.0
H2878 H 0.08038 0.87302 0.85388 0.0
H2879 H 0.18074 0.88732 0.91365 0.0
H2880 H 0.29117 0.29681 0.96643 0.0
H2881 H 0.282 0.29533 0.98913 0.0
H2882 H 0.25053 0.30026 0.9691 0.0
H2883 H 0.25972 0.30224 0.94639 0.0
H2884 H 0.25214 0.31297 0.99124 0.0
H2885 H 0.25862 0.27481 0.98256 0.0
H2886 H 0.2695 0.25835 0.97659 0.0
H2887 H 0.28998 0.26357 0.01269 0.0
H2888 H 0.27931 0.28016 0.01878 0.0
H2889 H 0.21984 0.30146 0.05086 0.0
H2890 H 0.2285 0.29935 0.0279 0.0
H2891 H 0.26045 0.29795 0.04751 0.0
H2892 H 0.25183 0.3002 0.07062 0.0
H2893 H 0.25828 0.28291 0.02558 0.0
H2894 H 0.25207 0.32148 0.03352 0.0
H2895 H 0.24097 0.33781 0.03948 0.0
H2896 H 0.21971 0.3315 1.00441 0.0
H2897 H 0.23059 0.31503 0.99835 0.0
C2898 C 0.28229 0.29759 0.96683 0.0
C2899 C 0.2762 0.29972 0.95455 0.0
C2900 C 0.27704 0.2966 0.97982 0.0
C2901 C 0.26555 0.29759 0.98086 0.0
C2902 C 0.25941 0.29945 0.96858 0.0
C2903 C 0.26467 0.30048 0.95557 0.0
C2904 C 0.26002 0.29734 0.99482 0.0
C2905 C 0.25334 0.30629 0.99862 0.0
C2906 C 0.2618 0.28878 1.00466 0.0
C2907 C 0.26822 0.27879 1.00105 0.0
C2908 C 0.2655 0.2725 0.98916 0.0
C2909 C 0.27162 0.26314 0.98577 0.0
C2910 C 0.28044 0.25993 0.99424 0.0
C2911 C 0.28315 0.26607 1.00614 0.0
C2912 C 0.27706 0.27545 0.00957 0.0
C2913 C 0.22871 0.30072 0.05032 0.0
C2914 C 0.23515 0.30117 0.06259 0.0
C2915 C 0.23365 0.29946 0.03718 0.0
C2916 C 0.24513 0.29867 0.03596 0.0
C2917 C 0.25157 0.29858 0.04821 0.0
C2918 C 0.24663 0.29984 0.06141 0.0
C2919 C 0.2504 0.2985 0.02188 0.0
C2920 C 0.25705 0.28953 0.01811 0.0
C2921 C 0.24858 0.30701 0.01201 0.0
C2922 C 0.24208 0.31696 0.01556 0.0
C2923 C 0.24498 0.32353 0.02714 0.0
C2924 C 0.23873 0.33282 0.03053 0.0
C2925 C 0.22962 0.33567 0.02235 0.0
C2926 C 0.22676 0.32926 0.01074 0.0
C2927 C 0.23297 0.31996 1.00732 0.0
H2928 H 0.2248 0.34286 0.02499 0.0
H2929 H 0.28517 0.25267 0.99159 0.0
H2930 H 0.94833 0.0094 0.19766 0.0
H2931 H 0.94898 1.00057 0.22068 0.0
H2932 H 0.96908 0.02706 0.23644 0.0
H2933 H 0.96875 0.03579 0.21329 0.0
H2934 H 0.97589 0.00728 0.24672 0.0
H2935 H 0.94183 0.02698 0.2426 0.0
H2936 H 0.92428 0.03228 0.2315 0.0
H2937 H 0.91276 0.99899 0.23471 0.0
H2938 H 0.93032 0.99346 0.24564 0.0
H2939 H 0.96454 0.99773 0.31977 0.0
H2940 H 0.96685 0.00571 0.29632 0.0
H2941 H 0.94604 0.98041 0.27895 0.0
H2942 H 0.94373 0.97241 0.30224 0.0
H2943 H 0.93994 1.00006 0.26967 0.0
H2944 H 0.97411 0.98039 0.27405 0.0
H2945 H 0.9917 0.97524 0.28518 0.0
H2946 H 1.00301 0.00858 0.28178 0.0
H2947 H 0.98542 0.01397 0.2708 0.0
C2948 C 0.95308 0.01325 0.20593 0.0
C2949 C 0.95842 0.02336 0.20364 0.0
C2950 C 0.95336 0.00824 0.21913 0.0
C2951 C 0.95892 0.01325 0.23036 0.0
C2952 C 0.96468 0.02307 0.22796 0.0
C2953 C 0.9644 0.0281 0.21475 0.0
C2954 C 0.95827 0.00852 0.24473 0.0
C2955 C 0.96804 0.00581 0.25182 0.0
C2956 C 0.94803 0.00647 0.25132 0.0
C2957 C 0.93744 0.00979 0.24481 0.0
C2958 C 0.93559 0.02077 0.24084 0.0
C2959 C 0.92563 0.02382 0.23459 0.0
C2960 C 0.91742 0.01597 0.23237 0.0
C2961 C 0.91914 0.00506 0.23642 0.0
C2962 C 0.92909 1.00197 0.24265 0.0
C2963 C 0.96057 0.9938 0.31092 0.0
C2964 C 0.95388 0.98448 0.31291 0.0
C2965 C 0.9619 0.99837 0.29752 0.0
C2966 C 0.95665 0.99364 0.28584 0.0
C2967 C 0.95012 0.98424 0.2878 0.0
C2968 C 0.94877 0.97971 0.30115 0.0
C2969 C 0.95755 0.99865 0.27164 0.0
C2970 C 0.94781 1.00149 0.26459 0.0
C2971 C 0.96782 1.00082 0.26514 0.0
C2972 C 0.9784 0.9976 0.27174 0.0
C2973 C 0.98031 0.98664 0.27578 0.0
C2974 C 0.99029 0.98368 0.28204 0.0
C2975 C 0.99845 0.99158 0.28422 0.0
C2976 C 0.99667 1.00247 0.28011 0.0
C2977 C 0.9867 0.00548 0.27386 0.0
H2978 H 0.00617 0.98927 0.28907 0.0
H2979 H 0.90972 0.01835 0.22753 0.0
H2980 H 0.22833 0.68869 0.4623 0.0
H2981 H 0.23656 0.69075 0.48548 0.0
H2982 H 0.24929 0.72254 0.47368 0.0
H2983 H 0.24103 0.72051 0.45029 0.0
H2984 H 0.2644 0.71077 0.48837 0.0
H2985 H 0.22676 0.7208 0.49461 0.0
H2986 H 0.20664 0.71872 0.49255 0.0
H2987 H 0.20799 0.68902 0.51685 0.0
H2988 H 0.22816 0.69083 0.51889 0.0
H2989 H 0.2791 0.72079 0.55995 0.0
H2990 H 0.27045 0.72299 0.53689 0.0
H2991 H 0.2548 0.69136 0.54153 0.0
H2992 H 0.26309 0.68929 0.5647 0.0
H2993 H 0.24084 0.70582 0.53045 0.0
H2994 H 0.27862 0.69489 0.52201 0.0
H2995 H 0.29879 0.6968 0.52381 0.0
H2996 H 0.29709 0.72832 0.5036 0.0
H2997 H 0.27688 0.72666 0.50185 0.0
C2998 C 0.23282 0.69616 0.46464 0.0
C2999 C 0.23389 0.7045 0.4545 0.0
C3000 C 0.23753 0.69733 0.47791 0.0
C3001 C 0.24335 0.7069 0.48144 0.0
C3002 C 0.24477 0.71511 0.47121 0.0
C3003 C 0.24008 0.71393 0.45785 0.0
C3004 C 0.24787 0.70824 0.49585 0.0
C3005 C 0.25922 0.7099 0.49758 0.0
C3006 C 0.24114 0.70698 0.50789 0.0
C3007 C 0.22899 0.70592 0.50682 0.0
C3008 C 0.22278 0.71379 0.49944 0.0
C3009 C 0.21136 0.71266 0.49828 0.0
C3010 C 0.20604 0.70374 0.50454 0.0
C3011 C 0.21213 0.69593 0.51201 0.0
C3012 C 0.22355 0.69701 0.51318 0.0
C3013 C 0.27368 0.71439 0.55615 0.0
C3014 C 0.27186 0.70482 0.56414 0.0
C3015 C 0.26882 0.7156 0.5429 0.0
C3016 C 0.2621 0.70726 0.53736 0.0
C3017 C 0.25999 0.69788 0.54553 0.0
C3018 C 0.26482 0.69667 0.55874 0.0
C3019 C 0.25742 0.70807 0.52297 0.0
C3020 C 0.24601 0.70683 0.52125 0.0
C3021 C 0.2641 0.70973 0.51096 0.0
C3022 C 0.27624 0.71071 0.51195 0.0
C3023 C 0.28254 0.70227 0.51805 0.0
C3024 C 0.29398 0.7033 0.51904 0.0
C3025 C 0.29921 0.71269 0.51386 0.0
C3026 C 0.29302 0.72106 0.50764 0.0
C3027 C 0.28158 0.72008 0.50663 0.0
H3028 H 0.30807 0.71347 0.51464 0.0
H3029 H 0.1972 0.70288 0.50363 0.0
H3030 H 0.53801 0.98677 0.7022 0.0
H3031 H 0.53606 0.99499 0.7256 0.0
H3032 H 0.57085 0.9906 0.73277 0.0
H3033 H 0.57284 0.98246 0.70953 0.0
H3034 H 0.55914 0.9833 0.75464 0.0
H3035 H 0.55954 0.01597 0.72555 0.0
H3036 H 0.55287 0.02806 0.70657 0.0
H3037 H 0.52114 0.02992 0.7263 0.0
H3038 H 0.52758 0.01772 0.74531 0.0
H3039 H 0.57268 0.01718 0.81149 0.0
H3040 H 0.5705 0.00846 0.78865 0.0
H3041 H 0.53577 0.01588 0.78924 0.0
H3042 H 0.53798 0.02501 0.81204 0.0
H3043 H 0.54464 0.02071 0.76405 0.0
H3044 H 0.5447 0.9896 0.79435 0.0
H3045 H 0.55125 0.97757 0.81343 0.0
H3046 H 0.58175 0.97253 0.79156 0.0
H3047 H 0.57545 0.98465 0.77243 0.0
C3048 C 0.54525 0.98769 0.70871 0.0
C3049 C 0.55556 0.98387 0.70404 0.0
C3050 C 0.54413 0.99238 0.72209 0.0
C3051 C 0.55332 0.99341 0.73097 0.0
C3052 C 0.56363 0.9898 0.72618 0.0
C3053 C 0.56475 0.98512 0.71288 0.0
C3054 C 0.55229 0.99794 0.74541 0.0
C3055 C 0.55605 0.99151 0.75668 0.0
C3056 C 0.54786 0.0085 0.74817 0.0
C3057 C 0.544 0.01583 0.73675 0.0
C3058 C 0.55111 0.01888 0.72577 0.0
C3059 C 0.54738 0.02576 0.71503 0.0
C3060 C 0.53658 0.02972 0.71521 0.0
C3061 C 0.52949 0.02683 0.72616 0.0
C3062 C 0.53318 0.01993 0.73692 0.0
C3063 C 0.56457 0.017 0.80678 0.0
C3064 C 0.55551 0.02184 0.8136 0.0
C3065 C 0.56331 0.0119 0.79375 0.0
C3066 C 0.55295 0.0114 0.78727 0.0
C3067 C 0.54385 0.01614 0.79407 0.0
C3068 C 0.5451 0.02126 0.80715 0.0
C3069 C 0.55181 0.00618 0.77321 0.0
C3070 C 0.54761 0.01244 0.76204 0.0
C3071 C 0.5558 0.99544 0.77052 0.0
C3072 C 0.55962 0.98811 0.78199 0.0
C3073 C 0.55283 0.98599 0.79365 0.0
C3074 C 0.5565 0.97914 0.80447 0.0
C3075 C 0.56691 0.9743 0.80372 0.0
C3076 C 0.57368 0.97628 0.79213 0.0
C3077 C 0.57006 0.98313 0.78129 0.0
H3078 H 0.56974 0.969 0.81211 0.0
H3079 H 0.53371 0.03506 0.70688 0.0
H3080 H 0.76018 0.71197 0.9467 0.0
H3081 H 0.75177 0.71428 0.9699 0.0
H3082 H 0.78213 0.70406 0.98945 0.0
H3083 H 0.79057 0.70183 0.96638 0.0
H3084 H 0.765 0.69308 1.00008 0.0
H3085 H 0.77361 0.73087 0.99038 0.0
H3086 H 0.77347 0.74806 0.97666 0.0
H3087 H 0.73818 0.74914 0.97898 0.0
H3088 H 0.7381 0.73186 0.99256 0.0
H3089 H 0.75062 0.70367 0.07035 0.0
H3090 H 0.75994 0.7051 0.04769 0.0
H3091 H 0.72967 0.71584 0.02843 0.0
H3092 H 0.72039 0.71487 0.05116 0.0
H3093 H 0.74677 0.7269 0.01766 0.0
H3094 H 0.73795 0.68904 0.02638 0.0
H3095 H 0.73773 0.6717 0.0398 0.0
H3096 H 0.77306 0.67056 0.03878 0.0
H3097 H 0.77349 0.68799 0.02551 0.0
C3098 C 0.76511 0.71039 0.95594 0.0
C3099 C 0.77602 0.70663 0.95466 0.0
C3100 C 0.7603 0.71171 0.96921 0.0
C3101 C 0.76633 0.70936 0.98144 0.0
C3102 C 0.77729 0.70586 0.98017 0.0
C3103 C 0.78209 0.70454 0.96696 0.0
C3104 C 0.7611 0.71 0.99555 0.0
C3105 C 0.76117 0.70054 1.004 0.0
C3106 C 0.75582 0.71962 1.00052 0.0
C3107 C 0.75585 0.73001 0.99237 0.0
C3108 C 0.76581 0.73472 0.98787 0.0
C3109 C 0.76577 0.74449 0.98013 0.0
C3110 C 0.75582 0.74967 0.97692 0.0
C3111 C 0.74588 0.74511 0.98146 0.0
C3112 C 0.74588 0.73533 0.98919 0.0
C3113 C 0.74599 0.70656 0.06137 0.0
C3114 C 0.73471 0.70905 0.06258 0.0
C3115 C 0.75131 0.70726 0.04837 0.0
C3116 C 0.74546 0.71037 0.03628 0.0
C3117 C 0.73434 0.71335 0.03757 0.0
C3118 C 0.72902 0.71269 0.05057 0.0
C3119 C 0.75077 0.71001 0.02221 0.0
C3120 C 0.75067 0.71947 0.01375 0.0
C3121 C 0.75598 0.70037 0.01715 0.0
C3122 C 0.75575 0.68987 0.02508 0.0
C3123 C 0.74567 0.68513 0.02911 0.0
C3124 C 0.74551 0.67528 0.03668 0.0
C3125 C 0.75538 0.67005 0.04018 0.0
C3126 C 0.76543 0.67464 0.03608 0.0
C3127 C 0.76563 0.6845 0.02853 0.0
H3128 H 0.75524 0.66242 0.04603 0.0
H3129 H 0.7558 0.75724 0.97093 0.0
H3130 H 0.06338 0.97156 0.80113 0.0
H3131 H 0.06259 0.98041 0.7782 0.0
H3132 H 0.04158 0.00574 0.79512 0.0
H3133 H 0.04208 0.99672 0.81815 0.0
H3134 H 0.03456 0.99871 0.76912 0.0
H3135 H 0.06817 0.0112 0.7897 0.0
H3136 H 0.08608 0.00933 0.80166 0.0
H3137 H 0.0984 0.99004 0.76734 0.0
H3138 H 0.08051 0.99165 0.75526 0.0
H3139 H 0.04293 0.0348 0.71033 0.0
H3140 H 0.04135 0.02652 0.73365 0.0
H3141 H 0.06352 1.00059 0.72115 0.0
H3142 H 0.06512 0.0088 0.69783 0.0
H3143 H 0.06955 0.00905 0.74571 0.0
H3144 H 0.03566 0.99612 0.72546 0.0
H3145 H 0.01771 0.99796 0.71361 0.0
H3146 H 0.00589 0.01825 0.74727 0.0
H3147 H 0.02383 0.01665 0.75924 0.0
C3148 C 0.05846 0.97893 0.79997 0.0
C3149 C 0.05277 0.98341 0.8115 0.0
C3150 C 0.05811 0.98405 0.78687 0.0
C3151 C 0.05213 0.99381 0.78497 0.0
C3152 C 0.04627 0.99823 0.79636 0.0
C3153 C 0.04664 0.99311 0.80953 0.0
C3154 C 0.0522 0.99942 0.7711 0.0
C3155 C 0.04219 1.00114 0.76407 0.0
C3156 C 0.06217 1.00242 0.76443 0.0
C3157 C 0.07297 1.00147 0.77163 0.0
C3158 C 0.07467 0.00649 0.78475 0.0
C3159 C 0.08482 0.00549 0.79155 0.0
C3160 C 0.09336 0.99955 0.78528 0.0
C3161 C 0.09177 0.99462 0.77219 0.0
C3162 C 0.08163 0.99559 0.76536 0.0
C3163 C 0.04731 0.02722 0.71246 0.0
C3164 C 0.05418 0.02248 0.70221 0.0
C3165 C 0.04641 0.02251 0.72582 0.0
C3166 C 0.05229 0.0129 0.72916 0.0
C3167 C 0.05896 0.00803 0.71885 0.0
C3168 C 0.05988 0.01275 0.70553 0.0
C3169 C 0.05192 0.00817 0.74356 0.0
C3170 C 0.0619 0.00666 0.75074 0.0
C3171 C 0.04192 0.00539 0.75035 0.0
C3172 C 0.03113 0.00636 0.74317 0.0
C3173 C 0.02927 1.00105 0.73027 0.0
C3174 C 0.01909 1.00203 0.72355 0.0
C3175 C 0.01067 0.00824 0.72966 0.0
C3176 C 0.01242 0.01346 0.74253 0.0
C3177 C 0.02259 0.01251 0.7493 0.0
H3178 H 1.0028 0.00899 0.72444 0.0
H3179 H 0.10122 0.99879 0.79056 0.0
H3180 H 0.71998 0.30955 0.46517 0.0
H3181 H 0.72859 0.30834 0.48823 0.0
H3182 H 0.75613 0.29095 0.47022 0.0
H3183 H 0.74737 0.29182 0.44706 0.0
H3184 H 0.7498 0.28194 0.49527 0.0
H3185 H 0.75838 0.3179 0.47783 0.0
H3186 H 0.75434 0.33609 0.46763 0.0
H3187 H 0.73394 0.34396 0.50305 0.0
H3188 H 0.73774 0.32574 0.51336 0.0
H3189 H 0.78693 0.2908 0.55228 0.0
H3190 H 0.77766 0.28973 0.52956 0.0
H3191 H 0.75033 0.30827 0.54617 0.0
H3192 H 0.75972 0.30971 0.56879 0.0
H3193 H 0.75672 0.31643 0.52162 0.0
H3194 H 0.7483 0.28048 0.53925 0.0
H3195 H 0.75234 0.26226 0.54937 0.0
H3196 H 0.7725 0.25435 0.51375 0.0
H3197 H 0.7687 0.27259 0.50349 0.0
C3198 C 0.72779 0.30531 0.4661 0.0
C3199 C 0.73297 0.30077 0.45422 0.0
C3200 C 0.73276 0.30472 0.4793 0.0
C3201 C 0.74307 0.29968 0.48094 0.0
C3202 C 0.74818 0.29493 0.46919 0.0
C3203 C 0.74321 0.29551 0.45595 0.0
C3204 C 0.74857 0.2996 0.49489 0.0
C3205 C 0.75145 0.28948 0.50097 0.0
C3206 C 0.75052 0.30943 0.50245 0.0
C3207 C 0.74826 0.32041 0.4963 0.0
C3208 C 0.75297 0.32347 0.48339 0.0
C3209 C 0.75073 0.3338 0.4776 0.0
C3210 C 0.74387 0.34117 0.48467 0.0
C3211 C 0.73925 0.33824 0.49757 0.0
C3212 C 0.74145 0.32792 0.5034 0.0
C3213 C 0.77894 0.29464 0.55111 0.0
C3214 C 0.77409 0.30038 0.56237 0.0
C3215 C 0.77359 0.29393 0.53814 0.0
C3216 C 0.76325 0.29886 0.53616 0.0
C3217 C 0.75829 0.30439 0.54745 0.0
C3218 C 0.76363 0.30511 0.56043 0.0
C3219 C 0.75787 0.29876 0.52212 0.0
C3220 C 0.75505 0.30887 0.51598 0.0
C3221 C 0.756 0.28892 0.51453 0.0
C3222 C 0.7583 0.27795 0.52067 0.0
C3223 C 0.75367 0.27489 0.53363 0.0
C3224 C 0.7559 0.26455 0.53938 0.0
C3225 C 0.7627 0.25716 0.53223 0.0
C3226 C 0.76725 0.26009 0.51929 0.0
C3227 C 0.76505 0.27042 0.51349 0.0
H3228 H 0.76441 0.24916 0.5367 0.0
H3229 H 0.74215 0.34916 0.48017 0.0
H3230 H 0.47253 0.01724 0.31677 0.0
H3231 H 0.47354 0.00796 0.29392 0.0
H3232 H 0.44282 0.02301 0.28178 0.0
H3233 H 0.44166 0.03208 0.30455 0.0
H3234 H 0.44319 1.00146 0.27517 0.0
H3235 H 0.46733 0.03277 0.26977 0.0
H3236 H 0.48315 0.04455 0.27587 0.0
H3237 H 0.50519 0.01741 0.26937 0.0
H3238 H 0.48948 0.00542 0.26342 0.0
H3239 H 0.44089 0.99627 0.20218 0.0
H3240 H 0.44275 1.00406 0.22566 0.0
H3241 H 0.4731 0.98624 0.23153 0.0
H3242 H 0.47124 0.97829 0.208 0.0
H3243 H 0.47424 0.00739 0.24216 0.0
H3244 H 0.45034 0.97641 0.24597 0.0
H3245 H 0.43461 0.96459 0.2397 0.0
H3246 H 0.41221 0.99083 0.24941 0.0
H3247 H 0.42783 1.00288 0.25554 0.0
C3248 C 0.46597 0.01851 0.30924 0.0
C3249 C 0.45706 0.02547 0.31244 0.0
C3250 C 0.46659 0.01327 0.29616 0.0
C3251 C 0.4583 0.01487 0.28607 0.0
C3252 C 0.44933 0.02167 0.28936 0.0
C3253 C 0.44873 0.02693 0.30235 0.0
C3254 C 0.45881 0.00947 0.27208 0.0
C3255 C 0.44994 1.00284 0.26792 0.0
C3256 C 0.46778 0.01097 0.26277 0.0
C3257 C 0.47722 0.01817 0.26632 0.0
C3258 C 0.47554 0.02929 0.26977 0.0
C3259 C 0.48449 0.03601 0.27317 0.0
C3260 C 0.49516 0.03172 0.27305 0.0
C3261 C 0.49692 0.02071 0.26949 0.0
C3262 C 0.488 0.01395 0.26609 0.0
C3263 C 0.44797 0.99399 0.20845 0.0
C3264 C 0.45584 0.98654 0.20325 0.0
C3265 C 0.44903 0.99847 0.22187 0.0
C3266 C 0.45797 0.99558 0.23045 0.0
C3267 C 0.46612 0.98855 0.2251 0.0
C3268 C 0.46506 0.98405 0.21163 0.0
C3269 C 0.45848 0.99962 0.24517 0.0
C3270 C 0.46754 0.00595 0.24947 0.0
C3271 C 0.4497 0.99782 0.25467 0.0
C3272 C 0.44027 0.99058 0.25111 0.0
C3273 C 0.44207 0.97969 0.24668 0.0
C3274 C 0.43317 0.97294 0.24316 0.0
C3275 C 0.42242 0.97697 0.24413 0.0
C3276 C 0.42055 0.98773 0.24866 0.0
C3277 C 0.42942 0.99452 0.25216 0.0
H3278 H 0.41554 0.97173 0.24141 0.0
H3279 H 0.50208 0.03694 0.27569 0.0
H3280 H 0.74838 0.79299 0.57003 0.0
H3281 H 0.75643 0.7901 0.54674 0.0
H3282 H 0.73201 0.81159 0.52863 0.0
H3283 H 0.72372 0.81421 0.55171 0.0
H3284 H 0.73507 0.79402 0.51234 0.0
H3285 H 0.75831 0.8205 0.53564 0.0
H3286 H 0.77033 0.82733 0.55459 0.0
H3287 H 0.7927 0.80053 0.5476 0.0
H3288 H 0.78073 0.79347 0.52871 0.0
H3289 H 0.76036 0.81055 0.44853 0.0
H3290 H 0.75175 0.80913 0.47163 0.0
H3291 H 0.77782 0.78758 0.48538 0.0
H3292 H 0.78647 0.78893 0.46225 0.0
H3293 H 0.7743 0.80339 0.50417 0.0
H3294 H 0.75173 0.77778 0.47938 0.0
H3295 H 0.73976 0.77119 0.46027 0.0
H3296 H 0.71613 0.79637 0.46985 0.0
H3297 H 0.72804 0.80322 0.4889 0.0
C3298 C 0.74465 0.79699 0.56107 0.0
C3299 C 0.73546 0.80392 0.56278 0.0
C3300 C 0.74932 0.79541 0.54777 0.0
C3301 C 0.74492 0.80074 0.53594 0.0
C3302 C 0.73558 0.80742 0.53759 0.0
C3303 C 0.73092 0.809 0.55084 0.0
C3304 C 0.75013 0.79963 0.52187 0.0
C3305 C 0.74363 0.79615 0.51053 0.0
C3306 C 0.76137 0.80214 0.51955 0.0
C3307 C 0.76857 0.80639 0.53088 0.0
C3308 C 0.76575 0.81602 0.53822 0.0
C3309 C 0.77256 0.81994 0.54894 0.0
C3310 C 0.78225 0.81435 0.55233 0.0
C3311 C 0.78517 0.80484 0.54498 0.0
C3312 C 0.77839 0.80088 0.53427 0.0
C3313 C 0.76416 0.80533 0.45637 0.0
C3314 C 0.77412 0.79986 0.45352 0.0
C3315 C 0.75923 0.80453 0.4696 0.0
C3316 C 0.76409 0.79818 0.48024 0.0
C3317 C 0.77393 0.79255 0.47736 0.0
C3318 C 0.77887 0.79335 0.46413 0.0
C3319 C 0.75922 0.79789 0.49458 0.0
C3320 C 0.76577 0.80113 0.50598 0.0
C3321 C 0.74803 0.79517 0.49694 0.0
C3322 C 0.74083 0.79107 0.4855 0.0
C3323 C 0.74403 0.78197 0.47734 0.0
C3324 C 0.73724 0.77818 0.46653 0.0
C3325 C 0.7272 0.78338 0.46382 0.0
C3326 C 0.72392 0.79236 0.47195 0.0
C3327 C 0.73068 0.79619 0.48277 0.0
H3328 H 0.72196 0.78043 0.45545 0.0
H3329 H 0.78751 0.8174 0.56062 0.0
H3330 H 0.43697 0.485 0.80854 0.0
H3331 H 0.43915 0.49284 0.78515 0.0
H3332 H 0.47438 0.49361 0.79071 0.0
H3333 H 0.47226 0.48562 0.81424 0.0
H3334 H 0.46632 0.51252 0.77778 0.0
H3335 H 0.46367 0.47368 0.77141 0.0
H3336 H 0.45572 0.45521 0.77469 0.0
H3337 H 0.42555 0.46589 0.75554 0.0
H3338 H 0.43327 0.48448 0.75234 0.0
H3339 H 0.47239 0.52419 0.70438 0.0
H3340 H 0.47448 0.51522 0.72728 0.0
H3341 H 0.43945 0.50951 0.72884 0.0
H3342 H 0.43737 0.51806 0.70585 0.0
H3343 H 0.45015 0.49195 0.73782 0.0
H3344 H 0.45202 0.53113 0.74658 0.0
H3345 H 0.45964 0.5498 0.74374 0.0
H3346 H 0.49109 0.53854 0.7585 0.0
H3347 H 0.48368 0.51977 0.76125 0.0
C3348 C 0.4452 0.48679 0.8048 0.0
C3349 C 0.45446 0.48452 0.81319 0.0
C3350 C 0.44643 0.4913 0.79143 0.0
C3351 C 0.45694 0.49362 0.78607 0.0
C3352 C 0.46619 0.49183 0.79461 0.0
C3353 C 0.46497 0.4873 0.80806 0.0
C3354 C 0.45814 0.49764 0.77141 0.0
C3355 C 0.46298 0.50794 0.76899 0.0
C3356 C 0.45367 0.49171 0.75997 0.0
C3357 C 0.44903 0.4805 0.76172 0.0
C3358 C 0.45532 0.47211 0.76798 0.0
C3359 C 0.45085 0.46161 0.76981 0.0
C3360 C 0.44013 0.45938 0.76535 0.0
C3361 C 0.43386 0.46763 0.759 0.0
C3362 C 0.43828 0.47815 0.75716 0.0
C3363 C 0.46516 0.52088 0.70952 0.0
C3364 C 0.4547 0.52194 0.70333 0.0
C3365 C 0.46636 0.51585 0.72267 0.0
C3366 C 0.4571 0.51184 0.7299 0.0
C3367 C 0.44671 0.51259 0.72352 0.0
C3368 C 0.44552 0.51757 0.71041 0.0
C3369 C 0.45806 0.50699 0.7442 0.0
C3370 C 0.45363 0.49649 0.74656 0.0
C3371 C 0.46289 0.51275 0.75557 0.0
C3372 C 0.46734 0.52403 0.75396 0.0
C3373 C 0.46058 0.53262 0.74911 0.0
C3374 C 0.46486 0.54322 0.74754 0.0
C3375 C 0.47585 0.54535 0.75089 0.0
C3376 C 0.48258 0.53688 0.75587 0.0
C3377 C 0.47835 0.52626 0.75745 0.0
H3378 H 0.47915 0.55356 0.74967 0.0
H3379 H 0.43669 0.45125 0.76678 0.0
H3380 H 0.76435 0.21927 0.06758 0.0
H3381 H 0.75557 0.22102 0.04453 0.0
H3382 H 0.77691 0.19571 0.02818 0.0
H3383 H 0.78568 0.19393 0.05109 0.0
H3384 H 0.77572 0.21243 0.01028 0.0
H3385 H 0.74975 0.19066 0.0367 0.0
H3386 H 0.73726 0.18666 0.05647 0.0
H3387 H 0.71827 0.21547 0.04679 0.0
H3388 H 0.73073 0.21972 0.02707 0.0
H3389 H 0.74806 0.19582 0.94843 0.0
H3390 H 0.75681 0.19724 0.97143 0.0
H3391 H 0.73364 0.22247 0.98333 0.0
H3392 H 0.72482 0.22107 0.9603 0.0
H3393 H 0.73551 0.20761 1.00364 0.0
H3394 H 0.76075 0.22866 0.97611 0.0
H3395 H 0.77317 0.23254 0.95624 0.0
H3396 H 0.79355 0.20517 0.9679 0.0
H3397 H 0.78117 0.20103 0.98773 0.0
C3398 C 0.76711 0.21403 0.05909 0.0
C3399 C 0.77575 0.20649 0.06118 0.0
C3400 C 0.7621 0.21504 0.04591 0.0
C3401 C 0.76554 0.20845 0.03461 0.0
C3402 C 0.77416 0.20094 0.03669 0.0
C3403 C 0.77918 0.19995 0.04981 0.0
C3404 C 0.76024 0.20932 0.02057 0.0
C3405 C 0.76694 0.21128 0.00881 0.0
C3406 C 0.74874 0.20813 0.01867 0.0
C3407 C 0.74124 0.20558 0.03051 0.0
C3408 C 0.74296 0.19619 0.03886 0.0
C3409 C 0.73588 0.19387 0.05005 0.0
C3410 C 0.727 0.20082 0.05291 0.0
C3411 C 0.72516 0.2101 0.04457 0.0
C3412 C 0.73223 0.21247 0.03339 0.0
C3413 C 0.74494 0.20181 0.95584 0.0
C3414 C 0.73575 0.20835 0.95249 0.0
C3415 C 0.74994 0.20261 0.96901 0.0
C3416 C 0.74595 0.21004 0.9791 0.0
C3417 C 0.73685 0.21666 0.97574 0.0
C3418 C 0.73182 0.21584 0.96257 0.0
C3419 C 0.75102 0.21056 0.99331 0.0
C3420 C 0.74428 0.20887 1.0051 0.0
C3421 C 0.76249 0.21199 0.99524 0.0
C3422 C 0.76997 0.21448 0.98334 0.0
C3423 C 0.76783 0.22342 0.97438 0.0
C3424 C 0.77487 0.22568 0.96313 0.0
C3425 C 0.78413 0.2191 0.96079 0.0
C3426 C 0.78637 0.21026 0.96972 0.0
C3427 C 0.77935 0.20796 0.98097 0.0
H3428 H 0.78957 0.22086 0.95208 0.0
H3429 H 0.72152 0.19901 0.06157 0.0
H3430 H 0.03955 0.51383 0.31807 0.0
H3431 H 0.03795 0.5052 0.29492 0.0
H3432 H 0.06295 0.527 0.27881 0.0
H3433 H 0.06459 0.53563 0.30182 0.0
H3434 H 0.0463 0.52559 0.26081 0.0
H3435 H 0.06847 0.49992 0.28713 0.0
H3436 H 0.07268 0.48746 0.30684 0.0
H3437 H 0.04417 0.46805 0.29706 0.0
H3438 H 0.03971 0.48049 0.27739 0.0
H3439 H 0.06326 0.49824 0.1988 0.0
H3440 H 0.06176 0.50695 0.2218 0.0
H3441 H 0.03682 0.48351 0.23377 0.0
H3442 H 0.03829 0.47473 0.21074 0.0
H3443 H 0.05173 0.48552 0.254 0.0
H3444 H 0.03028 0.51052 0.22659 0.0
H3445 H 0.02622 0.52292 0.20678 0.0
H3446 H 0.05336 0.54359 0.21849 0.0
H3447 H 0.05768 0.53123 0.23827 0.0
C3448 C 0.04475 0.51674 0.30961 0.0
C3449 C 0.05217 0.52545 0.31181 0.0
C3450 C 0.04382 0.5118 0.29638 0.0
C3451 C 0.05038 0.51541 0.28512 0.0
C3452 C 0.05775 0.52412 0.28729 0.0
C3453 C 0.05866 0.52906 0.30047 0.0
C3454 C 0.04964 0.51015 0.27104 0.0
C3455 C 0.04759 0.51684 0.25931 0.0
C3456 C 0.05101 0.49869 0.26909 0.0
C3457 C 0.05369 0.49121 0.2809 0.0
C3458 C 0.06305 0.49305 0.28926 0.0
C3459 C 0.06549 0.48598 0.3004 0.0
C3460 C 0.05868 0.47699 0.30322 0.0
C3461 C 0.04943 0.47503 0.29488 0.0
C3462 C 0.04694 0.48208 0.28373 0.0
C3463 C 0.05731 0.49505 0.20622 0.0
C3464 C 0.05088 0.48579 0.20289 0.0
C3465 C 0.05647 0.50004 0.2194 0.0
C3466 C 0.0491 0.49596 0.22951 0.0
C3467 C 0.04258 0.48679 0.22617 0.0
C3468 C 0.04344 0.48177 0.213 0.0
C3469 C 0.04854 0.50099 0.24374 0.0
C3470 C 0.05034 0.49426 0.2555 0.0
C3471 C 0.04695 0.51242 0.24572 0.0
C3472 C 0.04436 0.51989 0.23385 0.0
C3473 C 0.03544 0.51766 0.22488 0.0
C3474 C 0.03308 0.52469 0.21367 0.0
C3475 C 0.03955 0.53402 0.21136 0.0
C3476 C 0.04837 0.53635 0.22029 0.0
C3477 C 0.05076 0.52934 0.23151 0.0
H3478 H 0.03771 0.53946 0.20267 0.0
H3479 H 0.06058 0.47153 0.31186 0.0
H3480 H 0.21894 0.20519 0.5503 0.0
H3481 H 0.2276 0.20718 0.52733 0.0
H3482 H 0.25888 0.21339 0.5472 0.0
H3483 H 0.25026 0.21131 0.57034 0.0
H3484 H 0.25529 0.22695 0.52417 0.0
H3485 H 0.25355 0.18836 0.53481 0.0
H3486 H 0.24443 0.17111 0.54185 0.0
H3487 H 0.22295 0.1733 0.50618 0.0
H3488 H 0.23185 0.19067 0.49904 0.0
H3489 H 0.28988 0.21451 0.46593 0.0
H3490 H 0.28056 0.21585 0.48855 0.0
H3491 H 0.2499 0.20659 0.46901 0.0
H3492 H 0.25929 0.20476 0.44643 0.0
H3493 H 0.25299 0.195 0.49193 0.0
H3494 H 0.25502 0.23329 0.48072 0.0
H3495 H 0.26397 0.25064 0.47371 0.0
H3496 H 0.2847 0.24921 0.51015 0.0
H3497 H 0.27598 0.23177 0.51728 0.0
C3498 C 0.22767 0.20696 0.54982 0.0
C3499 C 0.23394 0.20793 0.56218 0.0
C3500 C 0.2326 0.20814 0.53666 0.0
C3501 C 0.24392 0.21026 0.53553 0.0
C3502 C 0.25013 0.21173 0.54783 0.0
C3503 C 0.24519 0.21056 0.56104 0.0
C3504 C 0.24932 0.21042 0.52152 0.0
C3505 C 0.25491 0.21993 0.51717 0.0
C3506 C 0.2486 0.20135 0.51226 0.0
C3507 C 0.2433 0.19086 0.51647 0.0
C3508 C 0.24683 0.1852 0.52853 0.0
C3509 C 0.24171 0.1754 0.53253 0.0
C3510 C 0.23309 0.17113 0.52449 0.0
C3511 C 0.22961 0.17663 0.51241 0.0
C3512 C 0.2347 0.18645 0.50837 0.0
C3513 C 0.28115 0.21275 0.46642 0.0
C3514 C 0.27536 0.20946 0.45433 0.0
C3515 C 0.2758 0.21366 0.47936 0.0
C3516 C 0.26449 0.21141 0.48051 0.0
C3517 C 0.25863 0.20839 0.4684 0.0
C3518 C 0.26399 0.20744 0.45545 0.0
C3519 C 0.25894 0.21157 0.49446 0.0
C3520 C 0.25334 0.20207 0.49885 0.0
C3521 C 0.25965 0.22067 0.50372 0.0
C3522 C 0.26491 0.23116 0.49946 0.0
C3523 C 0.26154 0.23662 0.48718 0.0
C3524 C 0.26657 0.24649 0.48319 0.0
C3525 C 0.27492 0.25101 0.49146 0.0
C3526 C 0.27824 0.24569 0.50375 0.0
C3527 C 0.27325 0.23582 0.50778 0.0
H3528 H 0.27879 0.25864 0.48836 0.0
H3529 H 0.22914 0.16353 0.5276 0.0
H3530 H 0.56332 0.498 0.31732 0.0
H3531 H 0.56191 0.50681 0.29436 0.0
H3532 H 0.537 0.48343 0.28211 0.0
H3533 H 0.53839 0.47455 0.3051 0.0
H3534 H 0.55191 0.48555 0.26195 0.0
H3535 H 0.53048 0.51045 0.2895 0.0
H3536 H 0.52641 0.52276 0.3094 0.0
H3537 H 0.55362 0.54342 0.29793 0.0
H3538 H 0.55795 0.53116 0.27807 0.0
H3539 H 0.53985 0.51426 0.19811 0.0
H3540 H 0.5382 0.50551 0.2212 0.0
H3541 H 0.56332 0.5271 0.23745 0.0
H3542 H 0.56501 0.53583 0.21451 0.0
H3543 H 0.54661 0.52567 0.25545 0.0
H3544 H 0.56873 0.50008 0.22894 0.0
H3545 H 0.57291 0.48771 0.20913 0.0
H3546 H 0.54433 0.46834 0.21873 0.0
H3547 H 0.5399 0.48068 0.2385 0.0
C3548 C 0.5574 0.49484 0.30985 0.0
C3549 C 0.55095 0.48557 0.31308 0.0
C3550 C 0.55661 0.49989 0.29669 0.0
C3551 C 0.54927 0.49586 0.28652 0.0
C3552 C 0.54273 0.48668 0.28977 0.0
C3553 C 0.54355 0.4816 0.30291 0.0
C3554 C 0.54875 0.50097 0.27233 0.0
C3555 C 0.55055 0.4943 0.26052 0.0
C3556 C 0.54719 0.51242 0.27044 0.0
C3557 C 0.54459 0.51983 0.28236 0.0
C3558 C 0.53565 0.51758 0.29128 0.0
C3559 C 0.53328 0.52455 0.30255 0.0
C3560 C 0.53977 0.53385 0.30495 0.0
C3561 C 0.54861 0.53621 0.29607 0.0
C3562 C 0.55102 0.52926 0.28479 0.0
C3563 C 0.54507 0.51709 0.20659 0.0
C3564 C 0.55254 0.52577 0.20445 0.0
C3565 C 0.54411 0.51209 0.21978 0.0
C3566 C 0.55069 0.5156 0.23107 0.0
C3567 C 0.55811 0.52429 0.22895 0.0
C3568 C 0.55904 0.52929 0.21581 0.0
C3569 C 0.54992 0.51028 0.2451 0.0
C3570 C 0.54787 0.51691 0.25688 0.0
C3571 C 0.55125 0.4988 0.24696 0.0
C3572 C 0.55392 0.49137 0.2351 0.0
C3573 C 0.56329 0.49323 0.22676 0.0
C3574 C 0.56571 0.48622 0.21555 0.0
C3575 C 0.55887 0.47727 0.21265 0.0
C3576 C 0.54961 0.47529 0.22098 0.0
C3577 C 0.54714 0.48229 0.23219 0.0
H3578 H 0.56077 0.47185 0.20397 0.0
H3579 H 0.53792 0.53924 0.31367 0.0
H3580 H 0.24869 0.7935 0.94734 0.0
H3581 H 0.257 0.79115 0.9706 0.0
H3582 H 0.23053 0.80985 0.98908 0.0
H3583 H 0.2222 0.8122 0.96599 0.0
H3584 H 0.24988 0.81707 0.99819 0.0
H3585 H 0.23247 0.78179 0.99307 0.0
H3586 H 0.2284 0.76413 0.98145 0.0
H3587 H 0.26251 0.75505 0.98395 0.0
H3588 H 0.26681 0.77273 0.99541 0.0
H3589 H 0.26069 0.80815 0.06973 0.0
H3590 H 0.25163 0.80733 0.04687 0.0
H3591 H 0.2791 0.78909 0.0301 0.0
H3592 H 0.28807 0.78955 0.05308 0.0
H3593 H 0.25974 0.78131 0.0199 0.0
H3594 H 0.27723 0.81645 0.0247 0.0
H3595 H 0.28151 0.8341 0.0362 0.0
H3596 H 0.24747 0.84348 0.03394 0.0
H3597 H 0.24295 0.82581 0.02261 0.0
C3598 C 0.24457 0.79698 0.95639 0.0
C3599 C 0.23483 0.80312 0.95478 0.0
C3600 C 0.24933 0.79563 0.96968 0.0
C3601 C 0.24438 0.8003 0.98162 0.0
C3602 C 0.23455 0.80623 0.98004 0.0
C3603 C 0.22982 0.8076 0.9668 0.0
C3604 C 0.24962 0.79947 0.9957 0.0
C3605 C 0.25189 0.80923 1.003 0.0
C3606 C 0.25255 0.78927 1.00184 0.0
C3607 C 0.24998 0.77863 0.99496 0.0
C3608 C 0.23912 0.77607 0.99103 0.0
C3609 C 0.23677 0.76605 0.9845 0.0
C3610 C 0.2452 0.75849 0.98193 0.0
C3611 C 0.25599 0.76093 0.98593 0.0
C3612 C 0.25839 0.77094 0.99245 0.0
C3613 C 0.26472 0.80376 0.06128 0.0
C3614 C 0.27516 0.79899 0.06324 0.0
C3615 C 0.25957 0.80339 0.04816 0.0
C3616 C 0.26477 0.79832 0.03669 0.0
C3617 C 0.27496 0.79311 0.03876 0.0
C3618 C 0.28011 0.79346 0.05188 0.0
C3619 C 0.25983 0.79891 0.02242 0.0
C3620 C 0.25769 0.78913 0.01507 0.0
C3621 C 0.25704 0.8091 0.01618 0.0
C3622 C 0.25974 0.81976 0.02293 0.0
C3623 C 0.27064 0.82224 0.02675 0.0
C3624 C 0.27311 0.83226 0.03322 0.0
C3625 C 0.26476 0.8399 0.03583 0.0
C3626 C 0.25393 0.83755 0.03193 0.0
C3627 C 0.25141 0.82754 0.02548 0.0
H3628 H 0.2667 0.84765 0.04084 0.0
H3629 H 0.24336 0.75074 0.97687 0.0
H3630 H 0.96045 0.51066 0.81992 0.0
H3631 H 0.96277 0.50201 0.7969 0.0
H3632 H 0.95883 0.53357 0.77686 0.0
H3633 H 0.95662 0.54227 0.79977 0.0
H3634 H 0.94574 0.5184 0.76509 0.0
H3635 H 0.98383 0.52088 0.77806 0.0
H3636 H 1.00003 0.5181 0.79322 0.0
H3637 H 0.99561 0.48312 0.79091 0.0
H3638 H 0.97928 0.4857 0.77588 0.0
H3639 H 0.95733 0.50126 0.69592 0.0
H3640 H 0.95906 0.5107 0.71847 0.0
H3641 H 0.96391 0.47954 0.73922 0.0
H3642 H 0.96263 0.47009 0.71666 0.0
H3643 H 0.97702 0.49478 0.75049 0.0
H3644 H 0.93866 0.49208 0.7388 0.0
H3645 H 0.92218 0.4945 0.72399 0.0
H3646 H 0.92681 0.5295 0.72447 0.0
H3647 H 0.94341 0.52728 0.73913 0.0
C3648 C 0.96028 0.51579 0.81063 0.0
C3649 C 0.95826 0.52715 0.81171 0.0
C3650 C 0.96159 0.51083 0.79746 0.0
C3651 C 0.96098 0.51714 0.78513 0.0
C3652 C 0.95926 0.52852 0.78621 0.0
C3653 C 0.95796 0.53347 0.79933 0.0
C3654 C 0.96154 0.51186 0.77106 0.0
C3655 C 0.95267 0.51338 0.76182 0.0
C3656 C 0.97043 0.50506 0.76693 0.0
C3657 C 0.98026 0.50349 0.77595 0.0
C3658 C 0.98625 0.5126 0.78088 0.0
C3659 C 0.99547 0.51106 0.78943 0.0
C3660 C 0.99883 0.50044 0.79306 0.0
C3661 C 0.99299 0.49134 0.7881 0.0
C3662 C 0.98376 0.49284 0.77956 0.0
C3663 C 0.95898 0.49642 0.70523 0.0
C3664 C 0.95972 0.48489 0.70447 0.0
C3665 C 0.95986 0.50183 0.71815 0.0
C3666 C 0.96141 0.49582 0.7306 0.0
C3667 C 0.96264 0.48436 0.72979 0.0
C3668 C 0.9618 0.47896 0.71689 0.0
C3669 C 0.96124 0.50138 0.74451 0.0
C3670 C 0.97014 0.49986 0.75374 0.0
C3671 C 0.95234 0.50815 0.74871 0.0
C3672 C 0.94234 0.50951 0.73993 0.0
C3673 C 0.93621 0.50029 0.73565 0.0
C3674 C 0.92684 0.50162 0.72731 0.0
C3675 C 0.92347 0.51214 0.72326 0.0
C3676 C 0.92945 0.52135 0.72759 0.0
C3677 C 0.93883 0.52006 0.73592 0.0
H3678 H 0.91621 0.51316 0.7168 0.0
H3679 H 0.00598 0.49927 0.79968 0.0
loop_
_geom_bond_atom_site_label_1
_geom_bond_atom_site_label_2
_geom_bond_distance
_geom_bond_site_symmetry_2
_ccdc_geom_bond_type
C0 C1 1.264 . S
C0 C5 1.479 . S
C0 C10 1.465 . S
C1 C0 1.264 . S
C1 C3 1.339 . S
C1 H28 0.931 . S
C2 C3 1.395 . S
C2 C4 1.320 . S
C3 C1 1.339 . S
C3 C2 1.395 . S
C3 H29 0.929 . S
C4 C2 1.320 . S
C4 C5 1.405 . S
C4 H30 0.930 . S
C5 C0 1.479 . S
C5 C4 1.405 . S
C5 H31 0.931 . S
U6 O7 2.454 . S
U6 O8 2.458 . S
U6 C9 2.984 . S
U6 C10 2.847 . S
U6 C23 2.882 . S
U6 O24 2.441 . S
U6 O25 2.420 . S
U6 O26 2.455 . S
U6 O27 2.449 . S
O7 U6 2.454 . S
O7 C9 1.353 . S
O8 U6 2.458 . S
O8 C9 1.286 . S
C9 U6 2.984 . S
C9 O7 1.353 . S
C9 O8 1.286 . S
C9 C11 1.363 . S
C10 C0 1.465 . S
C10 U6 2.847 . S
C10 O24 1.249 . S
C10 O25 1.202 . S
C11 C9 1.363 . S
C11 C13 1.408 . S
C11 C16 1.342 . S
C12 C13 1.310 . S
C12 C15 1.461 . S
C12 H32 0.932 . S
C13 C11 1.408 . S
C13 C12 1.310 . S
C13 H33 0.930 . S
C14 C15 1.474 . S
C14 C16 1.285 . S
C14 H34 0.929 . S
C15 C12 1.461 . S
C15 C14 1.474 . S
C16 C11 1.342 . S
C16 C14 1.285 . S
C16 H35 0.930 . S
C17 C20 1.424 . S
C17 C22 1.245 . S
C17 C23 1.428 . S
C18 C21 1.260 . S
C18 C22 1.477 . S
C18 H36 0.932 . S
C19 C20 1.384 . S
C19 C21 1.479 . S
C19 H37 0.929 . S
C20 C17 1.424 . S
C20 C19 1.384 . S
C20 H38 0.928 . S
C21 C18 1.260 . S
C21 C19 1.479 . S
C22 C17 1.245 . S
C22 C18 1.477 . S
C22 H39 0.932 . S
C23 U6 2.882 . S
C23 C17 1.428 . S
C23 O26 1.301 . S
C23 O27 1.282 . S
O24 U6 2.441 . S
O24 C10 1.249 . S
O25 U6 2.420 . S
O25 C10 1.202 . S
O26 U6 2.455 . S
O26 C23 1.301 . S
O27 U6 2.449 . S
O27 C23 1.282 . S
H28 C1 0.931 . S
H29 C3 0.929 . S
H30 C4 0.930 . S
H31 C5 0.931 . S
H32 C12 0.932 . S
H33 C13 0.930 . S
H34 C14 0.929 . S
H35 C16 0.930 . S
H36 C18 0.932 . S
H37 C19 0.929 . S
H38 C20 0.928 . S
H39 C22 0.932 . S
C40 C41 1.264 . S
C40 C45 1.479 . S
C40 C50 1.465 . S
C41 C40 1.264 . S
C41 C43 1.339 . S
C41 H68 0.931 . S
C42 C43 1.395 . S
C42 C44 1.320 . S
C43 C41 1.339 . S
C43 C42 1.395 . S
C43 H69 0.929 . S
C44 C42 1.320 . S
C44 C45 1.405 . S
C44 H70 0.930 . S
C45 C40 1.479 . S
C45 C44 1.405 . S
C45 H71 0.931 . S
U46 O47 2.454 . S
U46 O48 2.458 . S
U46 C49 2.984 . S
U46 C50 2.847 . S
U46 C63 2.882 . S
U46 O64 2.441 . S
U46 O65 2.420 . S
U46 O66 2.455 . S
U46 O67 2.449 . S
O47 U46 2.454 . S
O47 C49 1.353 . S
O48 U46 2.458 . S
O48 C49 1.286 . S
C49 U46 2.984 . S
C49 O47 1.353 . S
C49 O48 1.286 . S
C49 C51 1.363 . S
C50 C40 1.465 . S
C50 U46 2.847 . S
C50 O64 1.249 . S
C50 O65 1.202 . S
C51 C49 1.363 . S
C51 C53 1.408 . S
C51 C56 1.342 . S
C52 C53 1.310 . S
C52 C55 1.461 . S
C52 H72 0.932 . S
C53 C51 1.408 . S
C53 C52 1.310 . S
C53 H73 0.930 . S
C54 C55 1.474 . S
C54 C56 1.285 . S
C54 H74 0.929 1_655 S
C55 C52 1.461 . S
C55 C54 1.474 . S
C56 C51 1.342 . S
C56 C54 1.285 . S
C56 H75 0.930 . S
C57 C60 1.424 . S
C57 C62 1.245 . S
C57 C63 1.428 . S
C58 C61 1.260 . S
C58 C62 1.477 . S
C58 H76 0.932 . S
C59 C60 1.384 . S
C59 C61 1.479 . S
C59 H77 0.929 . S
C60 C57 1.424 . S
C60 C59 1.384 . S
C60 H78 0.928 . S
C61 C58 1.260 . S
C61 C59 1.479 . S
C62 C57 1.245 . S
C62 C58 1.477 . S
C62 H79 0.932 . S
C63 U46 2.882 . S
C63 C57 1.428 . S
C63 O66 1.301 . S
C63 O67 1.282 . S
O64 U46 2.441 . S
O64 C50 1.249 . S
O65 U46 2.420 . S
O65 C50 1.202 . S
O66 U46 2.455 . S
O66 C63 1.301 . S
O67 U46 2.449 . S
O67 C63 1.282 . S
H68 C41 0.931 . S
H69 C43 0.929 . S
H70 C44 0.930 . S
H71 C45 0.931 . S
H72 C52 0.932 . S
H73 C53 0.930 . S
H74 C54 0.929 1_455 S
H75 C56 0.930 . S
H76 C58 0.932 . S
H77 C59 0.929 . S
H78 C60 0.928 . S
H79 C62 0.932 . S
C80 C81 1.264 . S
C80 C85 1.479 . S
C80 C90 1.465 . S
C81 C80 1.264 . S
C81 C83 1.339 . S
C81 H108 0.931 . S
C82 C83 1.395 . S
C82 C84 1.320 . S
C83 C81 1.339 . S
C83 C82 1.395 . S
C83 H109 0.929 . S
C84 C82 1.320 . S
C84 C85 1.405 . S
C84 H110 0.930 . S
C85 C80 1.479 . S
C85 C84 1.405 . S
C85 H111 0.931 . S
U86 O87 2.454 . S
U86 O88 2.458 . S
U86 C89 2.984 . S
U86 C90 2.847 . S
U86 C103 2.882 . S
U86 O104 2.441 . S
U86 O105 2.420 . S
U86 O106 2.455 . S
U86 O107 2.449 . S
O87 U86 2.454 . S
O87 C89 1.353 . S
O88 U86 2.458 . S
O88 C89 1.286 . S
C89 U86 2.984 . S
C89 O87 1.353 . S
C89 O88 1.286 . S
C89 C91 1.363 . S
C90 C80 1.465 . S
C90 U86 2.847 . S
C90 O104 1.249 . S
C90 O105 1.202 . S
C91 C89 1.363 . S
C91 C93 1.408 . S
C91 C96 1.342 . S
C92 C93 1.310 . S
C92 C95 1.461 . S
C92 H112 0.932 . S
C93 C91 1.408 . S
C93 C92 1.310 . S
C93 H113 0.930 . S
C94 C95 1.474 . S
C94 C96 1.285 . S
C94 H114 0.929 . S
C95 C92 1.461 . S
C95 C94 1.474 . S
C96 C91 1.342 . S
C96 C94 1.285 . S
C96 H115 0.930 . S
C97 C100 1.424 . S
C97 C102 1.245 . S
C97 C103 1.428 . S
C98 C101 1.260 . S
C98 C102 1.477 . S
C98 H116 0.932 . S
C99 C100 1.384 . S
C99 C101 1.479 . S
C99 H117 0.929 . S
C100 C97 1.424 . S
C100 C99 1.384 . S
C100 H118 0.928 . S
C101 C98 1.260 . S
C101 C99 1.479 . S
C102 C97 1.245 . S
C102 C98 1.477 . S
C102 H119 0.932 . S
C103 U86 2.882 . S
C103 C97 1.428 . S
C103 O106 1.301 . S
C103 O107 1.282 . S
O104 U86 2.441 . S
O104 C90 1.249 . S
O105 U86 2.420 . S
O105 C90 1.202 . S
O106 U86 2.455 . S
O106 C103 1.301 . S
O107 U86 2.449 . S
O107 C103 1.282 . S
H108 C81 0.931 . S
H109 C83 0.929 . S
H110 C84 0.930 . S
H111 C85 0.931 . S
H112 C92 0.932 . S
H113 C93 0.930 . S
H114 C94 0.929 . S
H115 C96 0.930 . S
H116 C98 0.932 . S
H117 C99 0.929 . S
H118 C100 0.928 . S
H119 C102 0.932 . S
C120 C121 1.264 . S
C120 C125 1.479 . S
C120 C130 1.465 . S
C121 C120 1.264 . S
C121 C123 1.339 . S
C121 H148 0.931 . S
C122 C123 1.395 . S
C122 C124 1.320 . S
C123 C121 1.339 . S
C123 C122 1.395 . S
C123 H149 0.929 . S
C124 C122 1.320 . S
C124 C125 1.405 . S
C124 H150 0.930 . S
C125 C120 1.479 . S
C125 C124 1.405 . S
C125 H151 0.931 . S
U126 O127 2.454 . S
U126 O128 2.458 . S
U126 C129 2.984 . S
U126 C130 2.847 . S
U126 C143 2.882 . S
U126 O144 2.441 . S
U126 O145 2.420 . S
U126 O146 2.455 . S
U126 O147 2.449 . S
O127 U126 2.454 . S
O127 C129 1.353 . S
O128 U126 2.458 . S
O128 C129 1.286 . S
C129 U126 2.984 . S
C129 O127 1.353 . S
C129 O128 1.286 . S
C129 C131 1.363 . S
C130 C120 1.465 . S
C130 U126 2.847 . S
C130 O144 1.249 . S
C130 O145 1.202 . S
C131 C129 1.363 . S
C131 C133 1.408 . S
C131 C136 1.342 . S
C132 C133 1.310 . S
C132 C135 1.461 . S
C132 H152 0.932 . S
C133 C131 1.408 . S
C133 C132 1.310 . S
C133 H153 0.930 . S
C134 C135 1.474 . S
C134 C136 1.285 . S
C134 H154 0.929 . S
C135 C132 1.461 . S
C135 C134 1.474 . S
C136 C131 1.342 . S
C136 C134 1.285 . S
C136 H155 0.930 . S
C137 C140 1.424 . S
C137 C142 1.245 . S
C137 C143 1.428 . S
C138 C141 1.260 . S
C138 C142 1.477 . S
C138 H156 0.932 . S
C139 C140 1.384 . S
C139 C141 1.479 . S
C139 H157 0.929 . S
C140 C137 1.424 . S
C140 C139 1.384 . S
C140 H158 0.928 . S
C141 C138 1.260 . S
C141 C139 1.479 . S
C142 C137 1.245 . S
C142 C138 1.477 . S
C142 H159 0.932 . S
C143 U126 2.882 . S
C143 C137 1.428 . S
C143 O146 1.301 . S
C143 O147 1.282 . S
O144 U126 2.441 . S
O144 C130 1.249 . S
O145 U126 2.420 . S
O145 C130 1.202 . S
O146 U126 2.455 . S
O146 C143 1.301 . S
O147 U126 2.449 . S
O147 C143 1.282 . S
H148 C121 0.931 . S
H149 C123 0.929 . S
H150 C124 0.930 . S
H151 C125 0.931 . S
H152 C132 0.932 . S
H153 C133 0.930 . S
H154 C134 0.929 . S
H155 C136 0.930 . S
H156 C138 0.932 . S
H157 C139 0.929 . S
H158 C140 0.928 . S
H159 C142 0.932 . S
C160 C161 1.264 . S
C160 C165 1.479 . S
C160 C170 1.465 . S
C161 C160 1.264 . S
C161 C163 1.339 . S
C161 H188 0.931 . S
C162 C163 1.395 . S
C162 C164 1.320 . S
C163 C161 1.339 . S
C163 C162 1.395 . S
C163 H189 0.929 . S
C164 C162 1.320 . S
C164 C165 1.405 . S
C164 H190 0.930 . S
C165 C160 1.479 . S
C165 C164 1.405 . S
C165 H191 0.931 . S
U166 O167 2.454 . S
U166 O168 2.458 . S
U166 C169 2.984 . S
U166 C170 2.847 . S
U166 C183 2.882 . S
U166 O184 2.441 . S
U166 O185 2.420 . S
U166 O186 2.455 . S
U166 O187 2.449 . S
O167 U166 2.454 . S
O167 C169 1.353 . S
O168 U166 2.458 . S
O168 C169 1.286 . S
C169 U166 2.984 . S
C169 O167 1.353 . S
C169 O168 1.286 . S
C169 C171 1.363 . S
C170 C160 1.465 . S
C170 U166 2.847 . S
C170 O184 1.249 . S
C170 O185 1.202 . S
C171 C169 1.363 . S
C171 C173 1.408 . S
C171 C176 1.342 . S
C172 C173 1.310 . S
C172 C175 1.461 . S
C172 H192 0.932 . S
C173 C171 1.408 . S
C173 C172 1.310 . S
C173 H193 0.930 . S
C174 C175 1.474 . S
C174 C176 1.285 . S
C174 H194 0.929 . S
C175 C172 1.461 . S
C175 C174 1.474 . S
C176 C171 1.342 . S
C176 C174 1.285 . S
C176 H195 0.930 . S
C177 C180 1.424 . S
C177 C182 1.245 . S
C177 C183 1.428 . S
C178 C181 1.260 . S
C178 C182 1.477 . S
C178 H196 0.932 . S
C179 C180 1.384 . S
C179 C181 1.479 . S
C179 H197 0.929 . S
C180 C177 1.424 . S
C180 C179 1.384 . S
C180 H198 0.928 . S
C181 C178 1.260 . S
C181 C179 1.479 . S
C182 C177 1.245 . S
C182 C178 1.477 . S
C182 H199 0.932 . S
C183 U166 2.882 . S
C183 C177 1.428 . S
C183 O186 1.301 . S
C183 O187 1.282 . S
O184 U166 2.441 . S
O184 C170 1.249 . S
O185 U166 2.420 . S
O185 C170 1.202 . S
O186 U166 2.455 . S
O186 C183 1.301 . S
O187 U166 2.449 . S
O187 C183 1.282 . S
H188 C161 0.931 . S
H189 C163 0.929 . S
H190 C164 0.930 . S
H191 C165 0.931 . S
H192 C172 0.932 . S
H193 C173 0.930 . S
H194 C174 0.929 . S
H195 C176 0.930 . S
H196 C178 0.932 . S
H197 C179 0.929 . S
H198 C180 0.928 . S
H199 C182 0.932 . S
C200 C201 1.264 . S
C200 C205 1.479 . S
C200 C210 1.465 . S
C201 C200 1.264 . S
C201 C203 1.339 . S
C201 H228 0.931 . S
C202 C203 1.395 . S
C202 C204 1.320 . S
C203 C201 1.339 . S
C203 C202 1.395 . S
C203 H229 0.929 . S
C204 C202 1.320 . S
C204 C205 1.405 . S
C204 H230 0.930 . S
C205 C200 1.479 . S
C205 C204 1.405 . S
C205 H231 0.931 . S
U206 O207 2.454 . S
U206 O208 2.458 . S
U206 C209 2.984 . S
U206 C210 2.847 . S
U206 C223 2.882 . S
U206 O224 2.441 . S
U206 O225 2.420 . S
U206 O226 2.455 . S
U206 O227 2.449 . S
O207 U206 2.454 . S
O207 C209 1.353 . S
O208 U206 2.458 . S
O208 C209 1.286 . S
C209 U206 2.984 . S
C209 O207 1.353 . S
C209 O208 1.286 . S
C209 C211 1.363 . S
C210 C200 1.465 . S
C210 U206 2.847 . S
C210 O224 1.249 . S
C210 O225 1.202 . S
C211 C209 1.363 . S
C211 C213 1.408 . S
C211 C216 1.342 . S
C212 C213 1.310 . S
C212 C215 1.461 . S
C212 H232 0.932 . S
C213 C211 1.408 . S
C213 C212 1.310 . S
C213 H233 0.930 . S
C214 C215 1.474 . S
C214 C216 1.285 . S
C214 H234 0.929 . S
C215 C212 1.461 . S
C215 C214 1.474 . S
C216 C211 1.342 . S
C216 C214 1.285 . S
C216 H235 0.930 . S
C217 C220 1.424 . S
C217 C222 1.245 . S
C217 C223 1.428 . S
C218 C221 1.260 . S
C218 C222 1.477 . S
C218 H236 0.932 . S
C219 C220 1.384 . S
C219 C221 1.479 . S
C219 H237 0.929 . S
C220 C217 1.424 . S
C220 C219 1.384 . S
C220 H238 0.928 . S
C221 C218 1.260 . S
C221 C219 1.479 . S
C222 C217 1.245 . S
C222 C218 1.477 . S
C222 H239 0.932 . S
C223 U206 2.882 . S
C223 C217 1.428 . S
C223 O226 1.301 . S
C223 O227 1.282 . S
O224 U206 2.441 . S
O224 C210 1.249 . S
O225 U206 2.420 . S
O225 C210 1.202 . S
O226 U206 2.455 . S
O226 C223 1.301 . S
O227 U206 2.449 . S
O227 C223 1.282 . S
H228 C201 0.931 . S
H229 C203 0.929 . S
H230 C204 0.930 . S
H231 C205 0.931 . S
H232 C212 0.932 . S
H233 C213 0.930 . S
H234 C214 0.929 . S
H235 C216 0.930 . S
H236 C218 0.932 . S
H237 C219 0.929 . S
H238 C220 0.928 . S
H239 C222 0.932 . S
C240 C241 1.264 . S
C240 C245 1.479 . S
C240 C250 1.465 . S
C241 C240 1.264 . S
C241 C243 1.339 . S
C241 H268 0.931 . S
C242 C243 1.395 . S
C242 C244 1.320 . S
C243 C241 1.339 . S
C243 C242 1.395 . S
C243 H269 0.929 . S
C244 C242 1.320 . S
C244 C245 1.405 . S
C244 H270 0.930 . S
C245 C240 1.479 . S
C245 C244 1.405 . S
C245 H271 0.931 . S
U246 O247 2.454 . S
U246 O248 2.458 . S
U246 C249 2.984 . S
U246 C250 2.847 . S
U246 C263 2.882 . S
U246 O264 2.441 . S
U246 O265 2.420 . S
U246 O266 2.455 . S
U246 O267 2.449 . S
O247 U246 2.454 . S
O247 C249 1.353 . S
O248 U246 2.458 . S
O248 C249 1.286 . S
C249 U246 2.984 . S
C249 O247 1.353 . S
C249 O248 1.286 . S
C249 C251 1.363 . S
C250 C240 1.465 . S
C250 U246 2.847 . S
C250 O264 1.249 . S
C250 O265 1.202 . S
C251 C249 1.363 . S
C251 C253 1.408 . S
C251 C256 1.342 . S
C252 C253 1.310 . S
C252 C255 1.461 . S
C252 H272 0.932 . S
C253 C251 1.408 . S
C253 C252 1.310 . S
C253 H273 0.930 . S
C254 C255 1.474 . S
C254 C256 1.285 . S
C254 H274 0.929 . S
C255 C252 1.461 . S
C255 C254 1.474 . S
C256 C251 1.342 . S
C256 C254 1.285 . S
C256 H275 0.930 . S
C257 C260 1.424 . S
C257 C262 1.245 . S
C257 C263 1.428 . S
C258 C261 1.260 . S
C258 C262 1.477 . S
C258 H276 0.932 . S
C259 C260 1.384 . S
C259 C261 1.479 . S
C259 H277 0.929 . S
C260 C257 1.424 . S
C260 C259 1.384 . S
C260 H278 0.928 . S
C261 C258 1.260 . S
C261 C259 1.479 . S
C262 C257 1.245 . S
C262 C258 1.477 . S
C262 H279 0.932 . S
C263 U246 2.882 . S
C263 C257 1.428 . S
C263 O266 1.301 . S
C263 O267 1.282 . S
O264 U246 2.441 . S
O264 C250 1.249 . S
O265 U246 2.420 . S
O265 C250 1.202 . S
O266 U246 2.455 . S
O266 C263 1.301 . S
O267 U246 2.449 . S
O267 C263 1.282 . S
H268 C241 0.931 . S
H269 C243 0.929 . S
H270 C244 0.930 . S
H271 C245 0.931 . S
H272 C252 0.932 . S
H273 C253 0.930 . S
H274 C254 0.929 . S
H275 C256 0.930 . S
H276 C258 0.932 . S
H277 C259 0.929 . S
H278 C260 0.928 . S
H279 C262 0.932 . S
C280 C281 1.264 . S
C280 C285 1.479 . S
C280 C290 1.465 . S
C281 C280 1.264 . S
C281 C283 1.339 . S
C281 H308 0.931 . S
C282 C283 1.395 . S
C282 C284 1.320 . S
C283 C281 1.339 . S
C283 C282 1.395 . S
C283 H309 0.929 . S
C284 C282 1.320 . S
C284 C285 1.405 . S
C284 H310 0.930 . S
C285 C280 1.479 . S
C285 C284 1.405 . S
C285 H311 0.931 . S
U286 O287 2.454 . S
U286 O288 2.458 . S
U286 C289 2.984 . S
U286 C290 2.847 . S
U286 C303 2.882 . S
U286 O304 2.441 . S
U286 O305 2.420 . S
U286 O306 2.455 . S
U286 O307 2.449 . S
O287 U286 2.454 . S
O287 C289 1.353 . S
O288 U286 2.458 . S
O288 C289 1.286 . S
C289 U286 2.984 . S
C289 O287 1.353 . S
C289 O288 1.286 . S
C289 C291 1.363 . S
C290 C280 1.465 . S
C290 U286 2.847 . S
C290 O304 1.249 . S
C290 O305 1.202 . S
C291 C289 1.363 . S
C291 C293 1.408 . S
C291 C296 1.342 . S
C292 C293 1.310 . S
C292 C295 1.461 . S
C292 H312 0.932 . S
C293 C291 1.408 . S
C293 C292 1.310 . S
C293 H313 0.930 . S
C294 C295 1.474 . S
C294 C296 1.285 . S
C294 H314 0.929 1_655 S
C295 C292 1.461 . S
C295 C294 1.474 . S
C296 C291 1.342 . S
C296 C294 1.285 . S
C296 H315 0.930 . S
C297 C300 1.424 . S
C297 C302 1.245 . S
C297 C303 1.428 . S
C298 C301 1.260 . S
C298 C302 1.477 . S
C298 H316 0.932 . S
C299 C300 1.384 . S
C299 C301 1.479 . S
C299 H317 0.929 . S
C300 C297 1.424 . S
C300 C299 1.384 . S
C300 H318 0.928 . S
C301 C298 1.260 . S
C301 C299 1.479 . S
C302 C297 1.245 . S
C302 C298 1.477 . S
C302 H319 0.932 . S
C303 U286 2.882 . S
C303 C297 1.428 . S
C303 O306 1.301 . S
C303 O307 1.282 . S
O304 U286 2.441 . S
O304 C290 1.249 . S
O305 U286 2.420 . S
O305 C290 1.202 . S
O306 U286 2.455 . S
O306 C303 1.301 . S
O307 U286 2.449 . S
O307 C303 1.282 . S
H308 C281 0.931 . S
H309 C283 0.929 . S
H310 C284 0.930 . S
H311 C285 0.931 . S
H312 C292 0.932 . S
H313 C293 0.930 . S
H314 C294 0.929 1_455 S
H315 C296 0.930 . S
H316 C298 0.932 . S
H317 C299 0.929 . S
H318 C300 0.928 . S
H319 C302 0.932 . S
C320 C321 1.264 . S
C320 C325 1.479 . S
C320 C330 1.465 . S
C321 C320 1.264 . S
C321 C323 1.339 . S
C321 H348 0.931 . S
C322 C323 1.395 . S
C322 C324 1.320 . S
C323 C321 1.339 . S
C323 C322 1.395 . S
C323 H349 0.929 . S
C324 C322 1.320 . S
C324 C325 1.405 . S
C324 H350 0.930 . S
C325 C320 1.479 . S
C325 C324 1.405 . S
C325 H351 0.931 . S
U326 O327 2.454 . S
U326 O328 2.458 . S
U326 C329 2.984 . S
U326 C330 2.847 . S
U326 C343 2.882 . S
U326 O344 2.441 . S
U326 O345 2.420 . S
U326 O346 2.455 . S
U326 O347 2.449 . S
O327 U326 2.454 . S
O327 C329 1.353 . S
O328 U326 2.458 . S
O328 C329 1.286 . S
C329 U326 2.984 . S
C329 O327 1.353 . S
C329 O328 1.286 . S
C329 C331 1.363 . S
C330 C320 1.465 . S
C330 U326 2.847 . S
C330 O344 1.249 . S
C330 O345 1.202 . S
C331 C329 1.363 . S
C331 C333 1.408 . S
C331 C336 1.342 . S
C332 C333 1.310 . S
C332 C335 1.461 . S
C332 H352 0.932 . S
C333 C331 1.408 . S
C333 C332 1.310 . S
C333 H353 0.930 . S
C334 C335 1.474 . S
C334 C336 1.285 . S
C334 H354 0.929 . S
C335 C332 1.461 . S
C335 C334 1.474 . S
C336 C331 1.342 . S
C336 C334 1.285 . S
C336 H355 0.930 . S
C337 C340 1.424 . S
C337 C342 1.245 . S
C337 C343 1.428 . S
C338 C341 1.260 . S
C338 C342 1.477 . S
C338 H356 0.932 . S
C339 C340 1.384 . S
C339 C341 1.479 . S
C339 H357 0.929 . S
C340 C337 1.424 . S
C340 C339 1.384 . S
C340 H358 0.928 . S
C341 C338 1.260 . S
C341 C339 1.479 . S
C342 C337 1.245 . S
C342 C338 1.477 . S
C342 H359 0.932 . S
C343 U326 2.882 . S
C343 C337 1.428 . S
C343 O346 1.301 . S
C343 O347 1.282 . S
O344 U326 2.441 . S
O344 C330 1.249 . S
O345 U326 2.420 . S
O345 C330 1.202 . S
O346 U326 2.455 . S
O346 C343 1.301 . S
O347 U326 2.449 . S
O347 C343 1.282 . S
H348 C321 0.931 . S
H349 C323 0.929 . S
H350 C324 0.930 . S
H351 C325 0.931 . S
H352 C332 0.932 . S
H353 C333 0.930 . S
H354 C334 0.929 . S
H355 C336 0.930 . S
H356 C338 0.932 . S
H357 C339 0.929 . S
H358 C340 0.928 . S
H359 C342 0.932 . S
C360 C361 1.264 . S
C360 C365 1.479 . S
C360 C370 1.465 . S
C361 C360 1.264 . S
C361 C363 1.339 . S
C361 H388 0.931 . S
C362 C363 1.395 . S
C362 C364 1.320 . S
C363 C361 1.339 . S
C363 C362 1.395 . S
C363 H389 0.929 . S
C364 C362 1.320 . S
C364 C365 1.405 . S
C364 H390 0.930 . S
C365 C360 1.479 . S
C365 C364 1.405 . S
C365 H391 0.931 . S
U366 O367 2.454 . S
U366 O368 2.458 . S
U366 C369 2.984 . S
U366 C370 2.847 . S
U366 C383 2.882 . S
U366 O384 2.441 . S
U366 O385 2.420 . S
U366 O386 2.455 . S
U366 O387 2.449 . S
O367 U366 2.454 . S
O367 C369 1.353 . S
O368 U366 2.458 . S
O368 C369 1.286 . S
C369 U366 2.984 . S
C369 O367 1.353 . S
C369 O368 1.286 . S
C369 C371 1.363 . S
C370 C360 1.465 . S
C370 U366 2.847 . S
C370 O384 1.249 . S
C370 O385 1.202 . S
C371 C369 1.363 . S
C371 C373 1.408 . S
C371 C376 1.342 . S
C372 C373 1.310 . S
C372 C375 1.461 . S
C372 H392 0.932 . S
C373 C371 1.408 . S
C373 C372 1.310 . S
C373 H393 0.930 . S
C374 C375 1.474 . S
C374 C376 1.285 . S
C374 H394 0.929 1_455 S
C375 C372 1.461 . S
C375 C374 1.474 . S
C376 C371 1.342 . S
C376 C374 1.285 . S
C376 H395 0.930 . S
C377 C380 1.424 . S
C377 C382 1.245 . S
C377 C383 1.428 . S
C378 C381 1.260 . S
C378 C382 1.477 . S
C378 H396 0.932 . S
C379 C380 1.384 . S
C379 C381 1.479 . S
C379 H397 0.929 . S
C380 C377 1.424 . S
C380 C379 1.384 . S
C380 H398 0.928 . S
C381 C378 1.260 . S
C381 C379 1.479 . S
C382 C377 1.245 . S
C382 C378 1.477 . S
C382 H399 0.932 . S
C383 U366 2.882 . S
C383 C377 1.428 . S
C383 O386 1.301 . S
C383 O387 1.282 . S
O384 U366 2.441 . S
O384 C370 1.249 . S
O385 U366 2.420 . S
O385 C370 1.202 . S
O386 U366 2.455 . S
O386 C383 1.301 . S
O387 U366 2.449 . S
O387 C383 1.282 . S
H388 C361 0.931 . S
H389 C363 0.929 . S
H390 C364 0.930 . S
H391 C365 0.931 . S
H392 C372 0.932 . S
H393 C373 0.930 . S
H394 C374 0.929 1_655 S
H395 C376 0.930 . S
H396 C378 0.932 . S
H397 C379 0.929 . S
H398 C380 0.928 . S
H399 C382 0.932 . S
C400 C401 1.264 . S
C400 C405 1.479 . S
C400 C410 1.465 . S
C401 C400 1.264 . S
C401 C403 1.339 . S
C401 H428 0.931 . S
C402 C403 1.395 . S
C402 C404 1.320 . S
C403 C401 1.339 . S
C403 C402 1.395 . S
C403 H429 0.929 . S
C404 C402 1.320 . S
C404 C405 1.405 . S
C404 H430 0.930 . S
C405 C400 1.479 . S
C405 C404 1.405 . S
C405 H431 0.931 . S
U406 O407 2.454 . S
U406 O408 2.458 . S
U406 C409 2.984 . S
U406 C410 2.847 . S
U406 C423 2.882 . S
U406 O424 2.441 . S
U406 O425 2.420 . S
U406 O426 2.455 . S
U406 O427 2.449 . S
O407 U406 2.454 . S
O407 C409 1.353 . S
O408 U406 2.458 . S
O408 C409 1.286 . S
C409 U406 2.984 . S
C409 O407 1.353 . S
C409 O408 1.286 . S
C409 C411 1.363 . S
C410 C400 1.465 . S
C410 U406 2.847 . S
C410 O424 1.249 . S
C410 O425 1.202 . S
C411 C409 1.363 . S
C411 C413 1.408 . S
C411 C416 1.342 . S
C412 C413 1.310 . S
C412 C415 1.461 . S
C412 H432 0.932 . S
C413 C411 1.408 . S
C413 C412 1.310 . S
C413 H433 0.930 . S
C414 C415 1.474 . S
C414 C416 1.285 . S
C414 H434 0.929 . S
C415 C412 1.461 . S
C415 C414 1.474 . S
C416 C411 1.342 . S
C416 C414 1.285 . S
C416 H435 0.930 . S
C417 C420 1.424 . S
C417 C422 1.245 . S
C417 C423 1.428 . S
C418 C421 1.260 . S
C418 C422 1.477 . S
C418 H436 0.932 . S
C419 C420 1.384 . S
C419 C421 1.479 . S
C419 H437 0.929 . S
C420 C417 1.424 . S
C420 C419 1.384 . S
C420 H438 0.928 . S
C421 C418 1.260 . S
C421 C419 1.479 . S
C422 C417 1.245 . S
C422 C418 1.477 . S
C422 H439 0.932 . S
C423 U406 2.882 . S
C423 C417 1.428 . S
C423 O426 1.301 . S
C423 O427 1.282 . S
O424 U406 2.441 . S
O424 C410 1.249 . S
O425 U406 2.420 . S
O425 C410 1.202 . S
O426 U406 2.455 . S
O426 C423 1.301 . S
O427 U406 2.449 . S
O427 C423 1.282 . S
H428 C401 0.931 . S
H429 C403 0.929 . S
H430 C404 0.930 . S
H431 C405 0.931 . S
H432 C412 0.932 . S
H433 C413 0.930 . S
H434 C414 0.929 . S
H435 C416 0.930 . S
H436 C418 0.932 . S
H437 C419 0.929 . S
H438 C420 0.928 . S
H439 C422 0.932 . S
C440 C441 1.264 . S
C440 C445 1.479 . S
C440 C450 1.465 . S
C441 C440 1.264 . S
C441 C443 1.339 . S
C441 H468 0.931 . S
C442 C443 1.395 . S
C442 C444 1.320 . S
C443 C441 1.339 . S
C443 C442 1.395 . S
C443 H469 0.929 . S
C444 C442 1.320 . S
C444 C445 1.405 . S
C444 H470 0.930 . S
C445 C440 1.479 . S
C445 C444 1.405 . S
C445 H471 0.931 . S
U446 O447 2.454 . S
U446 O448 2.458 . S
U446 C449 2.984 . S
U446 C450 2.847 . S
U446 C463 2.882 . S
U446 O464 2.441 . S
U446 O465 2.420 . S
U446 O466 2.455 . S
U446 O467 2.449 . S
O447 U446 2.454 . S
O447 C449 1.353 . S
O448 U446 2.458 . S
O448 C449 1.286 . S
C449 U446 2.984 . S
C449 O447 1.353 . S
C449 O448 1.286 . S
C449 C451 1.363 . S
C450 C440 1.465 . S
C450 U446 2.847 . S
C450 O464 1.249 . S
C450 O465 1.202 . S
C451 C449 1.363 . S
C451 C453 1.408 . S
C451 C456 1.342 . S
C452 C453 1.310 . S
C452 C455 1.461 . S
C452 H472 0.932 . S
C453 C451 1.408 . S
C453 C452 1.310 . S
C453 H473 0.930 . S
C454 C455 1.474 . S
C454 C456 1.285 . S
C454 H474 0.929 . S
C455 C452 1.461 . S
C455 C454 1.474 . S
C456 C451 1.342 . S
C456 C454 1.285 . S
C456 H475 0.930 . S
C457 C460 1.424 . S
C457 C462 1.245 . S
C457 C463 1.428 . S
C458 C461 1.260 . S
C458 C462 1.477 . S
C458 H476 0.932 . S
C459 C460 1.384 . S
C459 C461 1.479 . S
C459 H477 0.929 . S
C460 C457 1.424 . S
C460 C459 1.384 . S
C460 H478 0.928 . S
C461 C458 1.260 . S
C461 C459 1.479 . S
C462 C457 1.245 . S
C462 C458 1.477 . S
C462 H479 0.932 . S
C463 U446 2.882 . S
C463 C457 1.428 . S
C463 O466 1.301 . S
C463 O467 1.282 . S
O464 U446 2.441 . S
O464 C450 1.249 . S
O465 U446 2.420 . S
O465 C450 1.202 . S
O466 U446 2.455 . S
O466 C463 1.301 . S
O467 U446 2.449 . S
O467 C463 1.282 . S
H468 C441 0.931 . S
H469 C443 0.929 . S
H470 C444 0.930 . S
H471 C445 0.931 . S
H472 C452 0.932 . S
H473 C453 0.930 . S
H474 C454 0.929 . S
H475 C456 0.930 . S
H476 C458 0.932 . S
H477 C459 0.929 . S
H478 C460 0.928 . S
H479 C462 0.932 . S
C480 C481 1.264 . S
C480 C485 1.479 . S
C480 C490 1.465 . S
C481 C480 1.264 . S
C481 C483 1.339 . S
C481 H508 0.931 . S
C482 C483 1.395 . S
C482 C484 1.320 . S
C483 C481 1.339 . S
C483 C482 1.395 . S
C483 H509 0.929 . S
C484 C482 1.320 . S
C484 C485 1.405 . S
C484 H510 0.930 . S
C485 C480 1.479 . S
C485 C484 1.405 . S
C485 H511 0.931 . S
U486 O487 2.454 . S
U486 O488 2.458 . S
U486 C489 2.984 . S
U486 C490 2.847 . S
U486 C503 2.882 . S
U486 O504 2.441 . S
U486 O505 2.420 . S
U486 O506 2.455 . S
U486 O507 2.449 . S
O487 U486 2.454 . S
O487 C489 1.353 . S
O488 U486 2.458 . S
O488 C489 1.286 . S
C489 U486 2.984 . S
C489 O487 1.353 . S
C489 O488 1.286 . S
C489 C491 1.363 . S
C490 C480 1.465 . S
C490 U486 2.847 . S
C490 O504 1.249 . S
C490 O505 1.202 . S
C491 C489 1.363 . S
C491 C493 1.408 . S
C491 C496 1.342 . S
C492 C493 1.310 . S
C492 C495 1.461 . S
C492 H512 0.932 . S
C493 C491 1.408 . S
C493 C492 1.310 . S
C493 H513 0.930 . S
C494 C495 1.474 . S
C494 C496 1.285 . S
C494 H514 0.929 . S
C495 C492 1.461 . S
C495 C494 1.474 . S
C496 C491 1.342 . S
C496 C494 1.285 . S
C496 H515 0.930 . S
C497 C500 1.424 . S
C497 C502 1.245 . S
C497 C503 1.428 . S
C498 C501 1.260 . S
C498 C502 1.477 . S
C498 H516 0.932 . S
C499 C500 1.384 . S
C499 C501 1.479 . S
C499 H517 0.929 . S
C500 C497 1.424 . S
C500 C499 1.384 . S
C500 H518 0.928 . S
C501 C498 1.260 . S
C501 C499 1.479 . S
C502 C497 1.245 . S
C502 C498 1.477 . S
C502 H519 0.932 . S
C503 U486 2.882 . S
C503 C497 1.428 . S
C503 O506 1.301 . S
C503 O507 1.282 . S
O504 U486 2.441 . S
O504 C490 1.249 . S
O505 U486 2.420 . S
O505 C490 1.202 . S
O506 U486 2.455 . S
O506 C503 1.301 . S
O507 U486 2.449 . S
O507 C503 1.282 . S
H508 C481 0.931 . S
H509 C483 0.929 . S
H510 C484 0.930 . S
H511 C485 0.931 . S
H512 C492 0.932 . S
H513 C493 0.930 . S
H514 C494 0.929 . S
H515 C496 0.930 . S
H516 C498 0.932 . S
H517 C499 0.929 . S
H518 C500 0.928 . S
H519 C502 0.932 . S
C520 C521 1.264 . S
C520 C525 1.479 . S
C520 C530 1.465 . S
C521 C520 1.264 . S
C521 C523 1.339 . S
C521 H548 0.931 . S
C522 C523 1.395 . S
C522 C524 1.320 . S
C523 C521 1.339 . S
C523 C522 1.395 . S
C523 H549 0.929 . S
C524 C522 1.320 . S
C524 C525 1.405 . S
C524 H550 0.930 . S
C525 C520 1.479 . S
C525 C524 1.405 . S
C525 H551 0.931 . S
U526 O527 2.454 . S
U526 O528 2.458 . S
U526 C529 2.984 . S
U526 C530 2.847 . S
U526 C543 2.882 . S
U526 O544 2.441 . S
U526 O545 2.420 . S
U526 O546 2.455 . S
U526 O547 2.449 . S
O527 U526 2.454 . S
O527 C529 1.353 . S
O528 U526 2.458 . S
O528 C529 1.286 . S
C529 U526 2.984 . S
C529 O527 1.353 . S
C529 O528 1.286 . S
C529 C531 1.363 . S
C530 C520 1.465 . S
C530 U526 2.847 . S
C530 O544 1.249 . S
C530 O545 1.202 . S
C531 C529 1.363 . S
C531 C533 1.408 . S
C531 C536 1.342 . S
C532 C533 1.310 . S
C532 C535 1.461 . S
C532 H552 0.932 . S
C533 C531 1.408 . S
C533 C532 1.310 . S
C533 H553 0.930 . S
C534 C535 1.474 . S
C534 C536 1.285 . S
C534 H554 0.929 . S
C535 C532 1.461 . S
C535 C534 1.474 . S
C536 C531 1.342 . S
C536 C534 1.285 . S
C536 H555 0.930 . S
C537 C540 1.424 . S
C537 C542 1.245 . S
C537 C543 1.428 . S
C538 C541 1.260 . S
C538 C542 1.477 . S
C538 H556 0.932 . S
C539 C540 1.384 . S
C539 C541 1.479 . S
C539 H557 0.929 . S
C540 C537 1.424 . S
C540 C539 1.384 . S
C540 H558 0.928 . S
C541 C538 1.260 . S
C541 C539 1.479 . S
C542 C537 1.245 . S
C542 C538 1.477 . S
C542 H559 0.932 . S
C543 U526 2.882 . S
C543 C537 1.428 . S
C543 O546 1.301 . S
C543 O547 1.282 . S
O544 U526 2.441 . S
O544 C530 1.249 . S
O545 U526 2.420 . S
O545 C530 1.202 . S
O546 U526 2.455 . S
O546 C543 1.301 . S
O547 U526 2.449 . S
O547 C543 1.282 . S
H548 C521 0.931 . S
H549 C523 0.929 . S
H550 C524 0.930 . S
H551 C525 0.931 . S
H552 C532 0.932 . S
H553 C533 0.930 . S
H554 C534 0.929 . S
H555 C536 0.930 . S
H556 C538 0.932 . S
H557 C539 0.929 . S
H558 C540 0.928 . S
H559 C542 0.932 . S
C560 C561 1.264 . S
C560 C565 1.479 . S
C560 C570 1.465 . S
C561 C560 1.264 . S
C561 C563 1.339 . S
C561 H588 0.931 . S
C562 C563 1.395 . S
C562 C564 1.320 . S
C563 C561 1.339 . S
C563 C562 1.395 . S
C563 H589 0.929 . S
C564 C562 1.320 . S
C564 C565 1.405 . S
C564 H590 0.930 . S
C565 C560 1.479 . S
C565 C564 1.405 . S
C565 H591 0.931 . S
U566 O567 2.454 . S
U566 O568 2.458 . S
U566 C569 2.984 . S
U566 C570 2.847 . S
U566 C583 2.882 . S
U566 O584 2.441 . S
U566 O585 2.420 . S
U566 O586 2.455 . S
U566 O587 2.449 . S
O567 U566 2.454 . S
O567 C569 1.353 . S
O568 U566 2.458 . S
O568 C569 1.286 . S
C569 U566 2.984 . S
C569 O567 1.353 . S
C569 O568 1.286 . S
C569 C571 1.363 . S
C570 C560 1.465 . S
C570 U566 2.847 . S
C570 O584 1.249 . S
C570 O585 1.202 . S
C571 C569 1.363 . S
C571 C573 1.408 . S
C571 C576 1.342 . S
C572 C573 1.310 . S
C572 C575 1.461 . S
C572 H592 0.932 . S
C573 C571 1.408 . S
C573 C572 1.310 . S
C573 H593 0.930 . S
C574 C575 1.474 . S
C574 C576 1.285 . S
C574 H594 0.929 . S
C575 C572 1.461 . S
C575 C574 1.474 . S
C576 C571 1.342 . S
C576 C574 1.285 . S
C576 H595 0.930 . S
C577 C580 1.424 . S
C577 C582 1.245 . S
C577 C583 1.428 . S
C578 C581 1.260 . S
C578 C582 1.477 . S
C578 H596 0.932 . S
C579 C580 1.384 . S
C579 C581 1.479 . S
C579 H597 0.929 . S
C580 C577 1.424 . S
C580 C579 1.384 . S
C580 H598 0.928 . S
C581 C578 1.260 . S
C581 C579 1.479 . S
C582 C577 1.245 . S
C582 C578 1.477 . S
C582 H599 0.932 . S
C583 U566 2.882 . S
C583 C577 1.428 . S
C583 O586 1.301 . S
C583 O587 1.282 . S
O584 U566 2.441 . S
O584 C570 1.249 . S
O585 U566 2.420 . S
O585 C570 1.202 . S
O586 U566 2.455 . S
O586 C583 1.301 . S
O587 U566 2.449 . S
O587 C583 1.282 . S
H588 C561 0.931 . S
H589 C563 0.929 . S
H590 C564 0.930 . S
H591 C565 0.931 . S
H592 C572 0.932 . S
H593 C573 0.930 . S
H594 C574 0.929 . S
H595 C576 0.930 . S
H596 C578 0.932 . S
H597 C579 0.929 . S
H598 C580 0.928 . S
H599 C582 0.932 . S
C600 C601 1.264 . S
C600 C605 1.479 . S
C600 C610 1.465 . S
C601 C600 1.264 . S
C601 C603 1.339 . S
C601 H628 0.931 . S
C602 C603 1.395 . S
C602 C604 1.320 . S
C603 C601 1.339 . S
C603 C602 1.395 . S
C603 H629 0.929 . S
C604 C602 1.320 . S
C604 C605 1.405 . S
C604 H630 0.930 . S
C605 C600 1.479 . S
C605 C604 1.405 . S
C605 H631 0.931 . S
U606 O607 2.454 . S
U606 O608 2.458 . S
U606 C609 2.984 . S
U606 C610 2.847 . S
U606 C623 2.882 . S
U606 O624 2.441 . S
U606 O625 2.420 . S
U606 O626 2.455 . S
U606 O627 2.449 . S
O607 U606 2.454 . S
O607 C609 1.353 . S
O608 U606 2.458 . S
O608 C609 1.286 . S
C609 U606 2.984 . S
C609 O607 1.353 . S
C609 O608 1.286 . S
C609 C611 1.363 . S
C610 C600 1.465 . S
C610 U606 2.847 . S
C610 O624 1.249 . S
C610 O625 1.202 . S
C611 C609 1.363 . S
C611 C613 1.408 . S
C611 C616 1.342 . S
C612 C613 1.310 . S
C612 C615 1.461 . S
C612 H632 0.932 . S
C613 C611 1.408 . S
C613 C612 1.310 . S
C613 H633 0.930 . S
C614 C615 1.474 . S
C614 C616 1.285 . S
C614 H634 0.929 1_455 S
C615 C612 1.461 . S
C615 C614 1.474 . S
C616 C611 1.342 . S
C616 C614 1.285 . S
C616 H635 0.930 . S
C617 C620 1.424 . S
C617 C622 1.245 . S
C617 C623 1.428 . S
C618 C621 1.260 . S
C618 C622 1.477 . S
C618 H636 0.932 . S
C619 C620 1.384 . S
C619 C621 1.479 . S
C619 H637 0.929 . S
C620 C617 1.424 . S
C620 C619 1.384 . S
C620 H638 0.928 . S
C621 C618 1.260 . S
C621 C619 1.479 . S
C622 C617 1.245 . S
C622 C618 1.477 . S
C622 H639 0.932 . S
C623 U606 2.882 . S
C623 C617 1.428 . S
C623 O626 1.301 . S
C623 O627 1.282 . S
O624 U606 2.441 . S
O624 C610 1.249 . S
O625 U606 2.420 . S
O625 C610 1.202 . S
O626 U606 2.455 . S
O626 C623 1.301 . S
O627 U606 2.449 . S
O627 C623 1.282 . S
H628 C601 0.931 . S
H629 C603 0.929 . S
H630 C604 0.930 . S
H631 C605 0.931 . S
H632 C612 0.932 . S
H633 C613 0.930 . S
H634 C614 0.929 1_655 S
H635 C616 0.930 . S
H636 C618 0.932 . S
H637 C619 0.929 . S
H638 C620 0.928 . S
H639 C622 0.932 . S
C640 C641 1.264 . S
C640 C645 1.479 . S
C640 C650 1.465 . S
C641 C640 1.264 . S
C641 C643 1.339 . S
C641 H668 0.931 . S
C642 C643 1.395 . S
C642 C644 1.320 . S
C643 C641 1.339 . S
C643 C642 1.395 . S
C643 H669 0.929 . S
C644 C642 1.320 . S
C644 C645 1.405 . S
C644 H670 0.930 . S
C645 C640 1.479 . S
C645 C644 1.405 . S
C645 H671 0.931 . S
U646 O647 2.454 . S
U646 O648 2.458 . S
U646 C649 2.984 . S
U646 C650 2.847 . S
U646 C663 2.882 . S
U646 O664 2.441 . S
U646 O665 2.420 . S
U646 O666 2.455 . S
U646 O667 2.449 . S
O647 U646 2.454 . S
O647 C649 1.353 . S
O648 U646 2.458 . S
O648 C649 1.286 . S
C649 U646 2.984 . S
C649 O647 1.353 . S
C649 O648 1.286 . S
C649 C651 1.363 . S
C650 C640 1.465 . S
C650 U646 2.847 . S
C650 O664 1.249 . S
C650 O665 1.202 . S
C651 C649 1.363 . S
C651 C653 1.408 . S
C651 C656 1.342 . S
C652 C653 1.310 . S
C652 C655 1.461 . S
C652 H672 0.932 . S
C653 C651 1.408 . S
C653 C652 1.310 . S
C653 H673 0.930 . S
C654 C655 1.474 . S
C654 C656 1.285 . S
C654 H674 0.929 . S
C655 C652 1.461 . S
C655 C654 1.474 . S
C656 C651 1.342 . S
C656 C654 1.285 . S
C656 H675 0.930 . S
C657 C660 1.424 . S
C657 C662 1.245 . S
C657 C663 1.428 . S
C658 C661 1.260 . S
C658 C662 1.477 . S
C658 H676 0.932 . S
C659 C660 1.384 . S
C659 C661 1.479 . S
C659 H677 0.929 . S
C660 C657 1.424 . S
C660 C659 1.384 . S
C660 H678 0.928 . S
C661 C658 1.260 . S
C661 C659 1.479 . S
C662 C657 1.245 . S
C662 C658 1.477 . S
C662 H679 0.932 . S
C663 U646 2.882 . S
C663 C657 1.428 . S
C663 O666 1.301 . S
C663 O667 1.282 . S
O664 U646 2.441 . S
O664 C650 1.249 . S
O665 U646 2.420 . S
O665 C650 1.202 . S
O666 U646 2.455 . S
O666 C663 1.301 . S
O667 U646 2.449 . S
O667 C663 1.282 . S
H668 C641 0.931 . S
H669 C643 0.929 . S
H670 C644 0.930 . S
H671 C645 0.931 . S
H672 C652 0.932 . S
H673 C653 0.930 . S
H674 C654 0.929 . S
H675 C656 0.930 . S
H676 C658 0.932 . S
H677 C659 0.929 . S
H678 C660 0.928 . S
H679 C662 0.932 . S
C680 C681 1.264 . S
C680 C685 1.479 . S
C680 C690 1.465 . S
C681 C680 1.264 . S
C681 C683 1.339 . S
C681 H708 0.931 . S
C682 C683 1.395 . S
C682 C684 1.320 . S
C683 C681 1.339 . S
C683 C682 1.395 . S
C683 H709 0.929 . S
C684 C682 1.320 . S
C684 C685 1.405 . S
C684 H710 0.930 . S
C685 C680 1.479 . S
C685 C684 1.405 . S
C685 H711 0.931 . S
U686 O687 2.454 . S
U686 O688 2.458 . S
U686 C689 2.984 . S
U686 C690 2.847 . S
U686 C703 2.882 . S
U686 O704 2.441 . S
U686 O705 2.420 . S
U686 O706 2.455 . S
U686 O707 2.449 . S
O687 U686 2.454 . S
O687 C689 1.353 . S
O688 U686 2.458 . S
O688 C689 1.286 . S
C689 U686 2.984 . S
C689 O687 1.353 . S
C689 O688 1.286 . S
C689 C691 1.363 . S
C690 C680 1.465 . S
C690 U686 2.847 . S
C690 O704 1.249 . S
C690 O705 1.202 . S
C691 C689 1.363 . S
C691 C693 1.408 . S
C691 C696 1.342 . S
C692 C693 1.310 . S
C692 C695 1.461 . S
C692 H712 0.932 . S
C693 C691 1.408 . S
C693 C692 1.310 . S
C693 H713 0.930 . S
C694 C695 1.474 . S
C694 C696 1.285 . S
C694 H714 0.929 . S
C695 C692 1.461 . S
C695 C694 1.474 . S
C696 C691 1.342 . S
C696 C694 1.285 . S
C696 H715 0.930 . S
C697 C700 1.424 . S
C697 C702 1.245 . S
C697 C703 1.428 . S
C698 C701 1.260 . S
C698 C702 1.477 . S
C698 H716 0.932 . S
C699 C700 1.384 . S
C699 C701 1.479 . S
C699 H717 0.929 . S
C700 C697 1.424 . S
C700 C699 1.384 . S
C700 H718 0.928 . S
C701 C698 1.260 . S
C701 C699 1.479 . S
C702 C697 1.245 . S
C702 C698 1.477 . S
C702 H719 0.932 . S
C703 U686 2.882 . S
C703 C697 1.428 . S
C703 O706 1.301 . S
C703 O707 1.282 . S
O704 U686 2.441 . S
O704 C690 1.249 . S
O705 U686 2.420 . S
O705 C690 1.202 . S
O706 U686 2.455 . S
O706 C703 1.301 . S
O707 U686 2.449 . S
O707 C703 1.282 . S
H708 C681 0.931 . S
H709 C683 0.929 . S
H710 C684 0.930 . S
H711 C685 0.931 . S
H712 C692 0.932 . S
H713 C693 0.930 . S
H714 C694 0.929 . S
H715 C696 0.930 . S
H716 C698 0.932 . S
H717 C699 0.929 . S
H718 C700 0.928 . S
H719 C702 0.932 . S
C720 C721 1.264 . S
C720 C725 1.479 . S
C720 C730 1.465 . S
C721 C720 1.264 . S
C721 C723 1.339 . S
C721 H748 0.931 . S
C722 C723 1.395 . S
C722 C724 1.320 . S
C723 C721 1.339 . S
C723 C722 1.395 . S
C723 H749 0.929 . S
C724 C722 1.320 . S
C724 C725 1.405 . S
C724 H750 0.930 . S
C725 C720 1.479 . S
C725 C724 1.405 . S
C725 H751 0.931 . S
U726 O727 2.454 . S
U726 O728 2.458 . S
U726 C729 2.984 . S
U726 C730 2.847 . S
U726 C743 2.882 . S
U726 O744 2.441 . S
U726 O745 2.420 . S
U726 O746 2.455 . S
U726 O747 2.449 . S
O727 U726 2.454 . S
O727 C729 1.353 . S
O728 U726 2.458 . S
O728 C729 1.286 . S
C729 U726 2.984 . S
C729 O727 1.353 . S
C729 O728 1.286 . S
C729 C731 1.363 . S
C730 C720 1.465 . S
C730 U726 2.847 . S
C730 O744 1.249 . S
C730 O745 1.202 . S
C731 C729 1.363 . S
C731 C733 1.408 . S
C731 C736 1.342 . S
C732 C733 1.310 . S
C732 C735 1.461 . S
C732 H752 0.932 . S
C733 C731 1.408 . S
C733 C732 1.310 . S
C733 H753 0.930 . S
C734 C735 1.474 . S
C734 C736 1.285 . S
C734 H754 0.929 . S
C735 C732 1.461 . S
C735 C734 1.474 . S
C736 C731 1.342 . S
C736 C734 1.285 . S
C736 H755 0.930 . S
C737 C740 1.424 . S
C737 C742 1.245 . S
C737 C743 1.428 . S
C738 C741 1.260 . S
C738 C742 1.477 . S
C738 H756 0.932 . S
C739 C740 1.384 . S
C739 C741 1.479 . S
C739 H757 0.929 . S
C740 C737 1.424 . S
C740 C739 1.384 . S
C740 H758 0.928 . S
C741 C738 1.260 . S
C741 C739 1.479 . S
C742 C737 1.245 . S
C742 C738 1.477 . S
C742 H759 0.932 . S
C743 U726 2.882 . S
C743 C737 1.428 . S
C743 O746 1.301 . S
C743 O747 1.282 . S
O744 U726 2.441 . S
O744 C730 1.249 . S
O745 U726 2.420 . S
O745 C730 1.202 . S
O746 U726 2.455 . S
O746 C743 1.301 . S
O747 U726 2.449 . S
O747 C743 1.282 . S
H748 C721 0.931 . S
H749 C723 0.929 . S
H750 C724 0.930 . S
H751 C725 0.931 . S
H752 C732 0.932 . S
H753 C733 0.930 . S
H754 C734 0.929 . S
H755 C736 0.930 . S
H756 C738 0.932 . S
H757 C739 0.929 . S
H758 C740 0.928 . S
H759 C742 0.932 . S
C760 C761 1.264 . S
C760 C765 1.479 . S
C760 C770 1.465 . S
C761 C760 1.264 . S
C761 C763 1.339 . S
C761 H788 0.931 . S
C762 C763 1.395 . S
C762 C764 1.320 . S
C763 C761 1.339 . S
C763 C762 1.395 . S
C763 H789 0.929 . S
C764 C762 1.320 . S
C764 C765 1.405 . S
C764 H790 0.930 . S
C765 C760 1.479 . S
C765 C764 1.405 . S
C765 H791 0.931 . S
U766 O767 2.454 . S
U766 O768 2.458 . S
U766 C769 2.984 . S
U766 C770 2.847 . S
U766 C783 2.882 . S
U766 O784 2.441 . S
U766 O785 2.420 . S
U766 O786 2.455 . S
U766 O787 2.449 . S
O767 U766 2.454 . S
O767 C769 1.353 . S
O768 U766 2.458 . S
O768 C769 1.286 . S
C769 U766 2.984 . S
C769 O767 1.353 . S
C769 O768 1.286 . S
C769 C771 1.363 . S
C770 C760 1.465 . S
C770 U766 2.847 . S
C770 O784 1.249 . S
C770 O785 1.202 . S
C771 C769 1.363 . S
C771 C773 1.408 . S
C771 C776 1.342 . S
C772 C773 1.310 . S
C772 C775 1.461 . S
C772 H792 0.932 . S
C773 C771 1.408 . S
C773 C772 1.310 . S
C773 H793 0.930 . S
C774 C775 1.474 . S
C774 C776 1.285 . S
C774 H794 0.929 1_455 S
C775 C772 1.461 . S
C775 C774 1.474 . S
C776 C771 1.342 . S
C776 C774 1.285 . S
C776 H795 0.930 . S
C777 C780 1.424 . S
C777 C782 1.245 . S
C777 C783 1.428 . S
C778 C781 1.260 . S
C778 C782 1.477 . S
C778 H796 0.932 . S
C779 C780 1.384 . S
C779 C781 1.479 . S
C779 H797 0.929 . S
C780 C777 1.424 . S
C780 C779 1.384 . S
C780 H798 0.928 . S
C781 C778 1.260 . S
C781 C779 1.479 . S
C782 C777 1.245 . S
C782 C778 1.477 . S
C782 H799 0.932 . S
C783 U766 2.882 . S
C783 C777 1.428 . S
C783 O786 1.301 . S
C783 O787 1.282 . S
O784 U766 2.441 . S
O784 C770 1.249 . S
O785 U766 2.420 . S
O785 C770 1.202 . S
O786 U766 2.455 . S
O786 C783 1.301 . S
O787 U766 2.449 . S
O787 C783 1.282 . S
H788 C761 0.931 . S
H789 C763 0.929 . S
H790 C764 0.930 . S
H791 C765 0.931 . S
H792 C772 0.932 . S
H793 C773 0.930 . S
H794 C774 0.929 1_655 S
H795 C776 0.930 . S
H796 C778 0.932 . S
H797 C779 0.929 . S
H798 C780 0.928 . S
H799 C782 0.932 . S
C800 C801 1.264 . S
C800 C805 1.479 . S
C800 C810 1.465 . S
C801 C800 1.264 . S
C801 C803 1.339 . S
C801 H828 0.931 . S
C802 C803 1.395 . S
C802 C804 1.320 . S
C803 C801 1.339 . S
C803 C802 1.395 . S
C803 H829 0.929 . S
C804 C802 1.320 . S
C804 C805 1.405 . S
C804 H830 0.930 . S
C805 C800 1.479 . S
C805 C804 1.405 . S
C805 H831 0.931 . S
U806 O807 2.454 . S
U806 O808 2.458 . S
U806 C809 2.984 . S
U806 C810 2.847 . S
U806 C823 2.882 . S
U806 O824 2.441 . S
U806 O825 2.420 . S
U806 O826 2.455 . S
U806 O827 2.449 . S
O807 U806 2.454 . S
O807 C809 1.353 . S
O808 U806 2.458 . S
O808 C809 1.286 . S
C809 U806 2.984 . S
C809 O807 1.353 . S
C809 O808 1.286 . S
C809 C811 1.363 . S
C810 C800 1.465 . S
C810 U806 2.847 . S
C810 O824 1.249 . S
C810 O825 1.202 . S
C811 C809 1.363 . S
C811 C813 1.408 . S
C811 C816 1.342 . S
C812 C813 1.310 . S
C812 C815 1.461 . S
C812 H832 0.932 . S
C813 C811 1.408 . S
C813 C812 1.310 . S
C813 H833 0.930 . S
C814 C815 1.474 . S
C814 C816 1.285 . S
C814 H834 0.929 . S
C815 C812 1.461 . S
C815 C814 1.474 . S
C816 C811 1.342 . S
C816 C814 1.285 . S
C816 H835 0.930 . S
C817 C820 1.424 . S
C817 C822 1.245 . S
C817 C823 1.428 . S
C818 C821 1.260 . S
C818 C822 1.477 . S
C818 H836 0.932 . S
C819 C820 1.384 . S
C819 C821 1.479 . S
C819 H837 0.929 . S
C820 C817 1.424 . S
C820 C819 1.384 . S
C820 H838 0.928 . S
C821 C818 1.260 . S
C821 C819 1.479 . S
C822 C817 1.245 . S
C822 C818 1.477 . S
C822 H839 0.932 . S
C823 U806 2.882 . S
C823 C817 1.428 . S
C823 O826 1.301 . S
C823 O827 1.282 . S
O824 U806 2.441 . S
O824 C810 1.249 . S
O825 U806 2.420 . S
O825 C810 1.202 . S
O826 U806 2.455 . S
O826 C823 1.301 . S
O827 U806 2.449 . S
O827 C823 1.282 . S
H828 C801 0.931 . S
H829 C803 0.929 . S
H830 C804 0.930 . S
H831 C805 0.931 . S
H832 C812 0.932 . S
H833 C813 0.930 . S
H834 C814 0.929 . S
H835 C816 0.930 . S
H836 C818 0.932 . S
H837 C819 0.929 . S
H838 C820 0.928 . S
H839 C822 0.932 . S
C840 C841 1.264 . S
C840 C845 1.479 . S
C840 C850 1.465 . S
C841 C840 1.264 . S
C841 C843 1.339 . S
C841 H868 0.931 . S
C842 C843 1.395 . S
C842 C844 1.320 . S
C843 C841 1.339 . S
C843 C842 1.395 . S
C843 H869 0.929 . S
C844 C842 1.320 . S
C844 C845 1.405 . S
C844 H870 0.930 . S
C845 C840 1.479 . S
C845 C844 1.405 . S
C845 H871 0.931 . S
U846 O847 2.454 . S
U846 O848 2.458 . S
U846 C849 2.984 . S
U846 C850 2.847 . S
U846 C863 2.882 . S
U846 O864 2.441 . S
U846 O865 2.420 . S
U846 O866 2.455 . S
U846 O867 2.449 . S
O847 U846 2.454 . S
O847 C849 1.353 . S
O848 U846 2.458 . S
O848 C849 1.286 . S
C849 U846 2.984 . S
C849 O847 1.353 . S
C849 O848 1.286 . S
C849 C851 1.363 . S
C850 C840 1.465 . S
C850 U846 2.847 . S
C850 O864 1.249 . S
C850 O865 1.202 . S
C851 C849 1.363 . S
C851 C853 1.408 . S
C851 C856 1.342 . S
C852 C853 1.310 . S
C852 C855 1.461 . S
C852 H872 0.932 . S
C853 C851 1.408 . S
C853 C852 1.310 . S
C853 H873 0.930 . S
C854 C855 1.474 . S
C854 C856 1.285 . S
C854 H874 0.929 1_455 S
C855 C852 1.461 . S
C855 C854 1.474 . S
C856 C851 1.342 . S
C856 C854 1.285 . S
C856 H875 0.930 . S
C857 C860 1.424 . S
C857 C862 1.245 . S
C857 C863 1.428 . S
C858 C861 1.260 . S
C858 C862 1.477 . S
C858 H876 0.932 . S
C859 C860 1.384 . S
C859 C861 1.479 . S
C859 H877 0.929 . S
C860 C857 1.424 . S
C860 C859 1.384 . S
C860 H878 0.928 . S
C861 C858 1.260 . S
C861 C859 1.479 . S
C862 C857 1.245 . S
C862 C858 1.477 . S
C862 H879 0.932 . S
C863 U846 2.882 . S
C863 C857 1.428 . S
C863 O866 1.301 . S
C863 O867 1.282 . S
O864 U846 2.441 . S
O864 C850 1.249 . S
O865 U846 2.420 . S
O865 C850 1.202 . S
O866 U846 2.455 . S
O866 C863 1.301 . S
O867 U846 2.449 . S
O867 C863 1.282 . S
H868 C841 0.931 . S
H869 C843 0.929 . S
H870 C844 0.930 . S
H871 C845 0.931 . S
H872 C852 0.932 . S
H873 C853 0.930 . S
H874 C854 0.929 1_655 S
H875 C856 0.930 . S
H876 C858 0.932 . S
H877 C859 0.929 . S
H878 C860 0.928 . S
H879 C862 0.932 . S
C880 C881 1.264 . S
C880 C885 1.479 . S
C880 C890 1.465 . S
C881 C880 1.264 . S
C881 C883 1.339 . S
C881 H908 0.931 . S
C882 C883 1.395 . S
C882 C884 1.320 . S
C883 C881 1.339 . S
C883 C882 1.395 . S
C883 H909 0.929 . S
C884 C882 1.320 . S
C884 C885 1.405 . S
C884 H910 0.930 . S
C885 C880 1.479 . S
C885 C884 1.405 . S
C885 H911 0.931 . S
U886 O887 2.454 . S
U886 O888 2.458 . S
U886 C889 2.984 . S
U886 C890 2.847 . S
U886 C903 2.882 . S
U886 O904 2.441 . S
U886 O905 2.420 . S
U886 O906 2.455 . S
U886 O907 2.449 . S
O887 U886 2.454 . S
O887 C889 1.353 . S
O888 U886 2.458 . S
O888 C889 1.286 . S
C889 U886 2.984 . S
C889 O887 1.353 . S
C889 O888 1.286 . S
C889 C891 1.363 . S
C890 C880 1.465 . S
C890 U886 2.847 . S
C890 O904 1.249 . S
C890 O905 1.202 . S
C891 C889 1.363 . S
C891 C893 1.408 . S
C891 C896 1.342 . S
C892 C893 1.310 . S
C892 C895 1.461 . S
C892 H912 0.932 . S
C893 C891 1.408 . S
C893 C892 1.310 . S
C893 H913 0.930 . S
C894 C895 1.474 . S
C894 C896 1.285 . S
C894 H914 0.929 . S
C895 C892 1.461 . S
C895 C894 1.474 . S
C896 C891 1.342 . S
C896 C894 1.285 . S
C896 H915 0.930 . S
C897 C900 1.424 . S
C897 C902 1.245 . S
C897 C903 1.428 . S
C898 C901 1.260 . S
C898 C902 1.477 . S
C898 H916 0.932 . S
C899 C900 1.384 . S
C899 C901 1.479 . S
C899 H917 0.929 . S
C900 C897 1.424 . S
C900 C899 1.384 . S
C900 H918 0.928 . S
C901 C898 1.260 . S
C901 C899 1.479 . S
C902 C897 1.245 . S
C902 C898 1.477 . S
C902 H919 0.932 . S
C903 U886 2.882 . S
C903 C897 1.428 . S
C903 O906 1.301 . S
C903 O907 1.282 . S
O904 U886 2.441 . S
O904 C890 1.249 . S
O905 U886 2.420 . S
O905 C890 1.202 . S
O906 U886 2.455 . S
O906 C903 1.301 . S
O907 U886 2.449 . S
O907 C903 1.282 . S
H908 C881 0.931 . S
H909 C883 0.929 . S
H910 C884 0.930 . S
H911 C885 0.931 . S
H912 C892 0.932 . S
H913 C893 0.930 . S
H914 C894 0.929 . S
H915 C896 0.930 . S
H916 C898 0.932 . S
H917 C899 0.929 . S
H918 C900 0.928 . S
H919 C902 0.932 . S
C920 C921 1.264 . S
C920 C925 1.479 . S
C920 C930 1.465 . S
C921 C920 1.264 . S
C921 C923 1.339 . S
C921 H948 0.931 . S
C922 C923 1.395 . S
C922 C924 1.320 . S
C923 C921 1.339 . S
C923 C922 1.395 . S
C923 H949 0.929 . S
C924 C922 1.320 . S
C924 C925 1.405 . S
C924 H950 0.930 . S
C925 C920 1.479 . S
C925 C924 1.405 . S
C925 H951 0.931 . S
U926 O927 2.454 . S
U926 O928 2.458 . S
U926 C929 2.984 . S
U926 C930 2.847 . S
U926 C943 2.882 . S
U926 O944 2.441 . S
U926 O945 2.420 . S
U926 O946 2.455 . S
U926 O947 2.449 . S
O927 U926 2.454 . S
O927 C929 1.353 . S
O928 U926 2.458 . S
O928 C929 1.286 . S
C929 U926 2.984 . S
C929 O927 1.353 . S
C929 O928 1.286 . S
C929 C931 1.363 . S
C930 C920 1.465 . S
C930 U926 2.847 . S
C930 O944 1.249 . S
C930 O945 1.202 . S
C931 C929 1.363 . S
C931 C933 1.408 . S
C931 C936 1.342 . S
C932 C933 1.310 . S
C932 C935 1.461 . S
C932 H952 0.932 . S
C933 C931 1.408 . S
C933 C932 1.310 . S
C933 H953 0.930 . S
C934 C935 1.474 . S
C934 C936 1.285 . S
C934 H954 0.929 . S
C935 C932 1.461 . S
C935 C934 1.474 . S
C936 C931 1.342 . S
C936 C934 1.285 . S
C936 H955 0.930 . S
C937 C940 1.424 . S
C937 C942 1.245 . S
C937 C943 1.428 . S
C938 C941 1.260 . S
C938 C942 1.477 . S
C938 H956 0.932 . S
C939 C940 1.384 . S
C939 C941 1.479 . S
C939 H957 0.929 . S
C940 C937 1.424 . S
C940 C939 1.384 . S
C940 H958 0.928 . S
C941 C938 1.260 . S
C941 C939 1.479 . S
C942 C937 1.245 . S
C942 C938 1.477 . S
C942 H959 0.932 . S
C943 U926 2.882 . S
C943 C937 1.428 . S
C943 O946 1.301 . S
C943 O947 1.282 . S
O944 U926 2.441 . S
O944 C930 1.249 . S
O945 U926 2.420 . S
O945 C930 1.202 . S
O946 U926 2.455 . S
O946 C943 1.301 . S
O947 U926 2.449 . S
O947 C943 1.282 . S
H948 C921 0.931 . S
H949 C923 0.929 . S
H950 C924 0.930 . S
H951 C925 0.931 . S
H952 C932 0.932 . S
H953 C933 0.930 . S
H954 C934 0.929 . S
H955 C936 0.930 . S
H956 C938 0.932 . S
H957 C939 0.929 . S
H958 C940 0.928 . S
H959 C942 0.932 . S
C960 C961 1.264 . S
C960 C965 1.479 . S
C960 C970 1.465 . S
C961 C960 1.264 . S
C961 C963 1.339 . S
C961 H988 0.931 . S
C962 C963 1.395 . S
C962 C964 1.320 . S
C963 C961 1.339 . S
C963 C962 1.395 . S
C963 H989 0.929 . S
C964 C962 1.320 . S
C964 C965 1.405 . S
C964 H990 0.930 . S
C965 C960 1.479 . S
C965 C964 1.405 . S
C965 H991 0.931 . S
U966 O967 2.454 . S
U966 O968 2.458 . S
U966 C969 2.984 . S
U966 C970 2.847 . S
U966 C983 2.882 . S
U966 O984 2.441 . S
U966 O985 2.420 . S
U966 O986 2.455 . S
U966 O987 2.449 . S
O967 U966 2.454 . S
O967 C969 1.353 . S
O968 U966 2.458 . S
O968 C969 1.286 . S
C969 U966 2.984 . S
C969 O967 1.353 . S
C969 O968 1.286 . S
C969 C971 1.363 . S
C970 C960 1.465 . S
C970 U966 2.847 . S
C970 O984 1.249 . S
C970 O985 1.202 . S
C971 C969 1.363 . S
C971 C973 1.408 . S
C971 C976 1.342 . S
C972 C973 1.310 . S
C972 C975 1.461 . S
C972 H992 0.932 . S
C973 C971 1.408 . S
C973 C972 1.310 . S
C973 H993 0.930 . S
C974 C975 1.474 . S
C974 C976 1.285 . S
C974 H994 0.929 . S
C975 C972 1.461 . S
C975 C974 1.474 . S
C976 C971 1.342 . S
C976 C974 1.285 . S
C976 H995 0.930 . S
C977 C980 1.424 . S
C977 C982 1.245 . S
C977 C983 1.428 . S
C978 C981 1.260 . S
C978 C982 1.477 . S
C978 H996 0.932 . S
C979 C980 1.384 . S
C979 C981 1.479 . S
C979 H997 0.929 . S
C980 C977 1.424 . S
C980 C979 1.384 . S
C980 H998 0.928 . S
C981 C978 1.260 . S
C981 C979 1.479 . S
C982 C977 1.245 . S
C982 C978 1.477 . S
C982 H999 0.932 . S
C983 U966 2.882 . S
C983 C977 1.428 . S
C983 O986 1.301 . S
C983 O987 1.282 . S
O984 U966 2.441 . S
O984 C970 1.249 . S
O985 U966 2.420 . S
O985 C970 1.202 . S
O986 U966 2.455 . S
O986 C983 1.301 . S
O987 U966 2.449 . S
O987 C983 1.282 . S
H988 C961 0.931 . S
H989 C963 0.929 . S
H990 C964 0.930 . S
H991 C965 0.931 . S
H992 C972 0.932 . S
H993 C973 0.930 . S
H994 C974 0.929 . S
H995 C976 0.930 . S
H996 C978 0.932 . S
H997 C979 0.929 . S
H998 C980 0.928 . S
H999 C982 0.932 . S
C1000 C1001 1.264 . S
C1000 C1005 1.479 . S
C1000 C1010 1.465 . S
C1001 C1000 1.264 . S
C1001 C1003 1.339 . S
C1001 H1028 0.931 . S
C1002 C1003 1.395 . S
C1002 C1004 1.320 . S
C1003 C1001 1.339 . S
C1003 C1002 1.395 . S
C1003 H1029 0.929 . S
C1004 C1002 1.320 . S
C1004 C1005 1.405 . S
C1004 H1030 0.930 . S
C1005 C1000 1.479 . S
C1005 C1004 1.405 . S
C1005 H1031 0.931 . S
U1006 O1007 2.454 . S
U1006 O1008 2.458 . S
U1006 C1009 2.984 . S
U1006 C1010 2.847 . S
U1006 C1023 2.882 . S
U1006 O1024 2.441 . S
U1006 O1025 2.420 . S
U1006 O1026 2.455 . S
U1006 O1027 2.449 . S
O1007 U1006 2.454 . S
O1007 C1009 1.353 . S
O1008 U1006 2.458 . S
O1008 C1009 1.286 . S
C1009 U1006 2.984 . S
C1009 O1007 1.353 . S
C1009 O1008 1.286 . S
C1009 C1011 1.363 . S
C1010 C1000 1.465 . S
C1010 U1006 2.847 . S
C1010 O1024 1.249 . S
C1010 O1025 1.202 . S
C1011 C1009 1.363 . S
C1011 C1013 1.408 . S
C1011 C1016 1.342 . S
C1012 C1013 1.310 . S
C1012 C1015 1.461 . S
C1012 H1032 0.932 . S
C1013 C1011 1.408 . S
C1013 C1012 1.310 . S
C1013 H1033 0.930 . S
C1014 C1015 1.474 . S
C1014 C1016 1.285 . S
C1014 H1034 0.929 . S
C1015 C1012 1.461 . S
C1015 C1014 1.474 . S
C1016 C1011 1.342 . S
C1016 C1014 1.285 . S
C1016 H1035 0.930 . S
C1017 C1020 1.424 . S
C1017 C1022 1.245 . S
C1017 C1023 1.428 . S
C1018 C1021 1.260 . S
C1018 C1022 1.477 . S
C1018 H1036 0.932 . S
C1019 C1020 1.384 . S
C1019 C1021 1.479 . S
C1019 H1037 0.929 . S
C1020 C1017 1.424 . S
C1020 C1019 1.384 . S
C1020 H1038 0.928 . S
C1021 C1018 1.260 . S
C1021 C1019 1.479 . S
C1022 C1017 1.245 . S
C1022 C1018 1.477 . S
C1022 H1039 0.932 . S
C1023 U1006 2.882 . S
C1023 C1017 1.428 . S
C1023 O1026 1.301 . S
C1023 O1027 1.282 . S
O1024 U1006 2.441 . S
O1024 C1010 1.249 . S
O1025 U1006 2.420 . S
O1025 C1010 1.202 . S
O1026 U1006 2.455 . S
O1026 C1023 1.301 . S
O1027 U1006 2.449 . S
O1027 C1023 1.282 . S
H1028 C1001 0.931 . S
H1029 C1003 0.929 . S
H1030 C1004 0.930 . S
H1031 C1005 0.931 . S
H1032 C1012 0.932 . S
H1033 C1013 0.930 . S
H1034 C1014 0.929 . S
H1035 C1016 0.930 . S
H1036 C1018 0.932 . S
H1037 C1019 0.929 . S
H1038 C1020 0.928 . S
H1039 C1022 0.932 . S
C1040 C1041 1.264 . S
C1040 C1045 1.479 . S
C1040 C1050 1.465 . S
C1041 C1040 1.264 . S
C1041 C1043 1.339 . S
C1041 H1068 0.931 . S
C1042 C1043 1.395 . S
C1042 C1044 1.320 . S
C1043 C1041 1.339 . S
C1043 C1042 1.395 . S
C1043 H1069 0.929 . S
C1044 C1042 1.320 . S
C1044 C1045 1.405 . S
C1044 H1070 0.930 . S
C1045 C1040 1.479 . S
C1045 C1044 1.405 . S
C1045 H1071 0.931 . S
U1046 O1047 2.454 . S
U1046 O1048 2.458 . S
U1046 C1049 2.984 . S
U1046 C1050 2.847 . S
U1046 C1063 2.882 . S
U1046 O1064 2.441 . S
U1046 O1065 2.420 . S
U1046 O1066 2.455 . S
U1046 O1067 2.449 . S
O1047 U1046 2.454 . S
O1047 C1049 1.353 . S
O1048 U1046 2.458 . S
O1048 C1049 1.286 . S
C1049 U1046 2.984 . S
C1049 O1047 1.353 . S
C1049 O1048 1.286 . S
C1049 C1051 1.363 . S
C1050 C1040 1.465 . S
C1050 U1046 2.847 . S
C1050 O1064 1.249 . S
C1050 O1065 1.202 . S
C1051 C1049 1.363 . S
C1051 C1053 1.408 . S
C1051 C1056 1.342 . S
C1052 C1053 1.310 . S
C1052 C1055 1.461 . S
C1052 H1072 0.932 . S
C1053 C1051 1.408 . S
C1053 C1052 1.310 . S
C1053 H1073 0.930 . S
C1054 C1055 1.474 . S
C1054 C1056 1.285 . S
C1054 H1074 0.929 . S
C1055 C1052 1.461 . S
C1055 C1054 1.474 . S
C1056 C1051 1.342 . S
C1056 C1054 1.285 . S
C1056 H1075 0.930 . S
C1057 C1060 1.424 . S
C1057 C1062 1.245 . S
C1057 C1063 1.428 . S
C1058 C1061 1.260 . S
C1058 C1062 1.477 . S
C1058 H1076 0.932 . S
C1059 C1060 1.384 . S
C1059 C1061 1.479 . S
C1059 H1077 0.929 . S
C1060 C1057 1.424 . S
C1060 C1059 1.384 . S
C1060 H1078 0.928 . S
C1061 C1058 1.260 . S
C1061 C1059 1.479 . S
C1062 C1057 1.245 . S
C1062 C1058 1.477 . S
C1062 H1079 0.932 . S
C1063 U1046 2.882 . S
C1063 C1057 1.428 . S
C1063 O1066 1.301 . S
C1063 O1067 1.282 . S
O1064 U1046 2.441 . S
O1064 C1050 1.249 . S
O1065 U1046 2.420 . S
O1065 C1050 1.202 . S
O1066 U1046 2.455 . S
O1066 C1063 1.301 . S
O1067 U1046 2.449 . S
O1067 C1063 1.282 . S
H1068 C1041 0.931 . S
H1069 C1043 0.929 . S
H1070 C1044 0.930 . S
H1071 C1045 0.931 . S
H1072 C1052 0.932 . S
H1073 C1053 0.930 . S
H1074 C1054 0.929 . S
H1075 C1056 0.930 . S
H1076 C1058 0.932 . S
H1077 C1059 0.929 . S
H1078 C1060 0.928 . S
H1079 C1062 0.932 . S
C1080 C1081 1.264 . S
C1080 C1085 1.479 . S
C1080 C1090 1.465 . S
C1081 C1080 1.264 . S
C1081 C1083 1.339 . S
C1081 H1108 0.931 . S
C1082 C1083 1.395 . S
C1082 C1084 1.320 . S
C1083 C1081 1.339 . S
C1083 C1082 1.395 . S
C1083 H1109 0.929 . S
C1084 C1082 1.320 . S
C1084 C1085 1.405 . S
C1084 H1110 0.930 . S
C1085 C1080 1.479 . S
C1085 C1084 1.405 . S
C1085 H1111 0.931 . S
U1086 O1087 2.454 . S
U1086 O1088 2.458 . S
U1086 C1089 2.984 . S
U1086 C1090 2.847 . S
U1086 C1103 2.882 . S
U1086 O1104 2.441 . S
U1086 O1105 2.420 . S
U1086 O1106 2.455 . S
U1086 O1107 2.449 . S
O1087 U1086 2.454 . S
O1087 C1089 1.353 . S
O1088 U1086 2.458 . S
O1088 C1089 1.286 . S
C1089 U1086 2.984 . S
C1089 O1087 1.353 . S
C1089 O1088 1.286 . S
C1089 C1091 1.363 . S
C1090 C1080 1.465 . S
C1090 U1086 2.847 . S
C1090 O1104 1.249 . S
C1090 O1105 1.202 . S
C1091 C1089 1.363 . S
C1091 C1093 1.408 . S
C1091 C1096 1.342 . S
C1092 C1093 1.310 . S
C1092 C1095 1.461 . S
C1092 H1112 0.932 . S
C1093 C1091 1.408 . S
C1093 C1092 1.310 . S
C1093 H1113 0.930 . S
C1094 C1095 1.474 . S
C1094 C1096 1.285 . S
C1094 H1114 0.929 1_655 S
C1095 C1092 1.461 . S
C1095 C1094 1.474 . S
C1096 C1091 1.342 . S
C1096 C1094 1.285 . S
C1096 H1115 0.930 . S
C1097 C1100 1.424 . S
C1097 C1102 1.245 . S
C1097 C1103 1.428 . S
C1098 C1101 1.260 . S
C1098 C1102 1.477 . S
C1098 H1116 0.932 . S
C1099 C1100 1.384 . S
C1099 C1101 1.479 . S
C1099 H1117 0.929 . S
C1100 C1097 1.424 . S
C1100 C1099 1.384 . S
C1100 H1118 0.928 . S
C1101 C1098 1.260 . S
C1101 C1099 1.479 . S
C1102 C1097 1.245 . S
C1102 C1098 1.477 . S
C1102 H1119 0.932 . S
C1103 U1086 2.882 . S
C1103 C1097 1.428 . S
C1103 O1106 1.301 . S
C1103 O1107 1.282 . S
O1104 U1086 2.441 . S
O1104 C1090 1.249 . S
O1105 U1086 2.420 . S
O1105 C1090 1.202 . S
O1106 U1086 2.455 . S
O1106 C1103 1.301 . S
O1107 U1086 2.449 . S
O1107 C1103 1.282 . S
H1108 C1081 0.931 . S
H1109 C1083 0.929 . S
H1110 C1084 0.930 . S
H1111 C1085 0.931 . S
H1112 C1092 0.932 . S
H1113 C1093 0.930 . S
H1114 C1094 0.929 1_455 S
H1115 C1096 0.930 . S
H1116 C1098 0.932 . S
H1117 C1099 0.929 . S
H1118 C1100 0.928 . S
H1119 C1102 0.932 . S
C1120 C1121 1.264 . S
C1120 C1125 1.479 . S
C1120 C1130 1.465 . S
C1121 C1120 1.264 . S
C1121 C1123 1.339 . S
C1121 H1148 0.931 . S
C1122 C1123 1.395 . S
C1122 C1124 1.320 . S
C1123 C1121 1.339 . S
C1123 C1122 1.395 . S
C1123 H1149 0.929 . S
C1124 C1122 1.320 . S
C1124 C1125 1.405 . S
C1124 H1150 0.930 . S
C1125 C1120 1.479 . S
C1125 C1124 1.405 . S
C1125 H1151 0.931 . S
U1126 O1127 2.454 . S
U1126 O1128 2.458 . S
U1126 C1129 2.984 . S
U1126 C1130 2.847 . S
U1126 C1143 2.882 . S
U1126 O1144 2.441 . S
U1126 O1145 2.420 . S
U1126 O1146 2.455 . S
U1126 O1147 2.449 . S
O1127 U1126 2.454 . S
O1127 C1129 1.353 . S
O1128 U1126 2.458 . S
O1128 C1129 1.286 . S
C1129 U1126 2.984 . S
C1129 O1127 1.353 . S
C1129 O1128 1.286 . S
C1129 C1131 1.363 . S
C1130 C1120 1.465 . S
C1130 U1126 2.847 . S
C1130 O1144 1.249 . S
C1130 O1145 1.202 . S
C1131 C1129 1.363 . S
C1131 C1133 1.408 . S
C1131 C1136 1.342 . S
C1132 C1133 1.310 . S
C1132 C1135 1.461 . S
C1132 H1152 0.932 . S
C1133 C1131 1.408 . S
C1133 C1132 1.310 . S
C1133 H1153 0.930 . S
C1134 C1135 1.474 . S
C1134 C1136 1.285 . S
C1134 H1154 0.929 . S
C1135 C1132 1.461 . S
C1135 C1134 1.474 . S
C1136 C1131 1.342 . S
C1136 C1134 1.285 . S
C1136 H1155 0.930 . S
C1137 C1140 1.424 . S
C1137 C1142 1.245 . S
C1137 C1143 1.428 . S
C1138 C1141 1.260 . S
C1138 C1142 1.477 . S
C1138 H1156 0.932 . S
C1139 C1140 1.384 . S
C1139 C1141 1.479 . S
C1139 H1157 0.929 . S
C1140 C1137 1.424 . S
C1140 C1139 1.384 . S
C1140 H1158 0.928 . S
C1141 C1138 1.260 . S
C1141 C1139 1.479 . S
C1142 C1137 1.245 . S
C1142 C1138 1.477 . S
C1142 H1159 0.932 . S
C1143 U1126 2.882 . S
C1143 C1137 1.428 . S
C1143 O1146 1.301 . S
C1143 O1147 1.282 . S
O1144 U1126 2.441 . S
O1144 C1130 1.249 . S
O1145 U1126 2.420 . S
O1145 C1130 1.202 . S
O1146 U1126 2.455 . S
O1146 C1143 1.301 . S
O1147 U1126 2.449 . S
O1147 C1143 1.282 . S
H1148 C1121 0.931 . S
H1149 C1123 0.929 . S
H1150 C1124 0.930 . S
H1151 C1125 0.931 . S
H1152 C1132 0.932 . S
H1153 C1133 0.930 . S
H1154 C1134 0.929 . S
H1155 C1136 0.930 . S
H1156 C1138 0.932 . S
H1157 C1139 0.929 . S
H1158 C1140 0.928 . S
H1159 C1142 0.932 . S
C1160 C1161 1.264 . S
C1160 C1165 1.479 . S
C1160 C1170 1.465 . S
C1161 C1160 1.264 . S
C1161 C1163 1.339 . S
C1161 H1188 0.931 . S
C1162 C1163 1.395 . S
C1162 C1164 1.320 . S
C1163 C1161 1.339 . S
C1163 C1162 1.395 . S
C1163 H1189 0.929 . S
C1164 C1162 1.320 . S
C1164 C1165 1.405 . S
C1164 H1190 0.930 . S
C1165 C1160 1.479 . S
C1165 C1164 1.405 . S
C1165 H1191 0.931 . S
U1166 O1167 2.454 . S
U1166 O1168 2.458 . S
U1166 C1169 2.984 . S
U1166 C1170 2.847 . S
U1166 C1183 2.882 . S
U1166 O1184 2.441 . S
U1166 O1185 2.420 . S
U1166 O1186 2.455 . S
U1166 O1187 2.449 . S
O1167 U1166 2.454 . S
O1167 C1169 1.353 . S
O1168 U1166 2.458 . S
O1168 C1169 1.286 . S
C1169 U1166 2.984 . S
C1169 O1167 1.353 . S
C1169 O1168 1.286 . S
C1169 C1171 1.363 . S
C1170 C1160 1.465 . S
C1170 U1166 2.847 . S
C1170 O1184 1.249 . S
C1170 O1185 1.202 . S
C1171 C1169 1.363 . S
C1171 C1173 1.408 . S
C1171 C1176 1.342 . S
C1172 C1173 1.310 . S
C1172 C1175 1.461 . S
C1172 H1192 0.932 . S
C1173 C1171 1.408 . S
C1173 C1172 1.310 . S
C1173 H1193 0.930 . S
C1174 C1175 1.474 . S
C1174 C1176 1.285 . S
C1174 H1194 0.929 1_655 S
C1175 C1172 1.461 . S
C1175 C1174 1.474 . S
C1176 C1171 1.342 . S
C1176 C1174 1.285 . S
C1176 H1195 0.930 . S
C1177 C1180 1.424 . S
C1177 C1182 1.245 . S
C1177 C1183 1.428 . S
C1178 C1181 1.260 . S
C1178 C1182 1.477 . S
C1178 H1196 0.932 . S
C1179 C1180 1.384 . S
C1179 C1181 1.479 . S
C1179 H1197 0.929 . S
C1180 C1177 1.424 . S
C1180 C1179 1.384 . S
C1180 H1198 0.928 . S
C1181 C1178 1.260 . S
C1181 C1179 1.479 . S
C1182 C1177 1.245 . S
C1182 C1178 1.477 . S
C1182 H1199 0.932 . S
C1183 U1166 2.882 . S
C1183 C1177 1.428 . S
C1183 O1186 1.301 . S
C1183 O1187 1.282 . S
O1184 U1166 2.441 . S
O1184 C1170 1.249 . S
O1185 U1166 2.420 . S
O1185 C1170 1.202 . S
O1186 U1166 2.455 . S
O1186 C1183 1.301 . S
O1187 U1166 2.449 . S
O1187 C1183 1.282 . S
H1188 C1161 0.931 . S
H1189 C1163 0.929 . S
H1190 C1164 0.930 . S
H1191 C1165 0.931 . S
H1192 C1172 0.932 . S
H1193 C1173 0.930 . S
H1194 C1174 0.929 1_455 S
H1195 C1176 0.930 . S
H1196 C1178 0.932 . S
H1197 C1179 0.929 . S
H1198 C1180 0.928 . S
H1199 C1182 0.932 . S
C1200 C1201 1.264 . S
C1200 C1205 1.479 . S
C1200 C1210 1.465 . S
C1201 C1200 1.264 . S
C1201 C1203 1.339 . S
C1201 H1228 0.931 . S
C1202 C1203 1.395 . S
C1202 C1204 1.320 . S
C1203 C1201 1.339 . S
C1203 C1202 1.395 . S
C1203 H1229 0.929 . S
C1204 C1202 1.320 . S
C1204 C1205 1.405 . S
C1204 H1230 0.930 . S
C1205 C1200 1.479 . S
C1205 C1204 1.405 . S
C1205 H1231 0.931 . S
U1206 O1207 2.454 . S
U1206 O1208 2.458 . S
U1206 C1209 2.984 . S
U1206 C1210 2.847 . S
U1206 C1223 2.882 . S
U1206 O1224 2.441 . S
U1206 O1225 2.420 . S
U1206 O1226 2.455 . S
U1206 O1227 2.449 . S
O1207 U1206 2.454 . S
O1207 C1209 1.353 . S
O1208 U1206 2.458 . S
O1208 C1209 1.286 . S
C1209 U1206 2.984 . S
C1209 O1207 1.353 . S
C1209 O1208 1.286 . S
C1209 C1211 1.363 . S
C1210 C1200 1.465 . S
C1210 U1206 2.847 . S
C1210 O1224 1.249 . S
C1210 O1225 1.202 . S
C1211 C1209 1.363 . S
C1211 C1213 1.408 . S
C1211 C1216 1.342 . S
C1212 C1213 1.310 . S
C1212 C1215 1.461 . S
C1212 H1232 0.932 . S
C1213 C1211 1.408 . S
C1213 C1212 1.310 . S
C1213 H1233 0.930 . S
C1214 C1215 1.474 . S
C1214 C1216 1.285 . S
C1214 H1234 0.929 . S
C1215 C1212 1.461 . S
C1215 C1214 1.474 . S
C1216 C1211 1.342 . S
C1216 C1214 1.285 . S
C1216 H1235 0.930 . S
C1217 C1220 1.424 . S
C1217 C1222 1.245 . S
C1217 C1223 1.428 . S
C1218 C1221 1.260 . S
C1218 C1222 1.477 . S
C1218 H1236 0.932 . S
C1219 C1220 1.384 . S
C1219 C1221 1.479 . S
C1219 H1237 0.929 . S
C1220 C1217 1.424 . S
C1220 C1219 1.384 . S
C1220 H1238 0.928 . S
C1221 C1218 1.260 . S
C1221 C1219 1.479 . S
C1222 C1217 1.245 . S
C1222 C1218 1.477 . S
C1222 H1239 0.932 . S
C1223 U1206 2.882 . S
C1223 C1217 1.428 . S
C1223 O1226 1.301 . S
C1223 O1227 1.282 . S
O1224 U1206 2.441 . S
O1224 C1210 1.249 . S
O1225 U1206 2.420 . S
O1225 C1210 1.202 . S
O1226 U1206 2.455 . S
O1226 C1223 1.301 . S
O1227 U1206 2.449 . S
O1227 C1223 1.282 . S
H1228 C1201 0.931 . S
H1229 C1203 0.929 . S
H1230 C1204 0.930 . S
H1231 C1205 0.931 . S
H1232 C1212 0.932 . S
H1233 C1213 0.930 . S
H1234 C1214 0.929 . S
H1235 C1216 0.930 . S
H1236 C1218 0.932 . S
H1237 C1219 0.929 . S
H1238 C1220 0.928 . S
H1239 C1222 0.932 . S
C1240 C1241 1.264 . S
C1240 C1245 1.479 . S
C1240 C1250 1.465 . S
C1241 C1240 1.264 . S
C1241 C1243 1.339 . S
C1241 H1268 0.931 . S
C1242 C1243 1.395 . S
C1242 C1244 1.320 . S
C1243 C1241 1.339 . S
C1243 C1242 1.395 . S
C1243 H1269 0.929 . S
C1244 C1242 1.320 . S
C1244 C1245 1.405 . S
C1244 H1270 0.930 . S
C1245 C1240 1.479 . S
C1245 C1244 1.405 . S
C1245 H1271 0.931 . S
U1246 O1247 2.454 . S
U1246 O1248 2.458 . S
U1246 C1249 2.984 . S
U1246 C1250 2.847 . S
U1246 C1263 2.882 . S
U1246 O1264 2.441 . S
U1246 O1265 2.420 . S
U1246 O1266 2.455 . S
U1246 O1267 2.449 . S
O1247 U1246 2.454 . S
O1247 C1249 1.353 . S
O1248 U1246 2.458 . S
O1248 C1249 1.286 . S
C1249 U1246 2.984 . S
C1249 O1247 1.353 . S
C1249 O1248 1.286 . S
C1249 C1251 1.363 . S
C1250 C1240 1.465 . S
C1250 U1246 2.847 . S
C1250 O1264 1.249 . S
C1250 O1265 1.202 . S
C1251 C1249 1.363 . S
C1251 C1253 1.408 . S
C1251 C1256 1.342 . S
C1252 C1253 1.310 . S
C1252 C1255 1.461 . S
C1252 H1272 0.932 . S
C1253 C1251 1.408 . S
C1253 C1252 1.310 . S
C1253 H1273 0.930 . S
C1254 C1255 1.474 . S
C1254 C1256 1.285 . S
C1254 H1274 0.929 . S
C1255 C1252 1.461 . S
C1255 C1254 1.474 . S
C1256 C1251 1.342 . S
C1256 C1254 1.285 . S
C1256 H1275 0.930 . S
C1257 C1260 1.424 . S
C1257 C1262 1.245 . S
C1257 C1263 1.428 . S
C1258 C1261 1.260 . S
C1258 C1262 1.477 . S
C1258 H1276 0.932 . S
C1259 C1260 1.384 . S
C1259 C1261 1.479 . S
C1259 H1277 0.929 . S
C1260 C1257 1.424 . S
C1260 C1259 1.384 . S
C1260 H1278 0.928 . S
C1261 C1258 1.260 . S
C1261 C1259 1.479 . S
C1262 C1257 1.245 . S
C1262 C1258 1.477 . S
C1262 H1279 0.932 . S
C1263 U1246 2.882 . S
C1263 C1257 1.428 . S
C1263 O1266 1.301 . S
C1263 O1267 1.282 . S
O1264 U1246 2.441 . S
O1264 C1250 1.249 . S
O1265 U1246 2.420 . S
O1265 C1250 1.202 . S
O1266 U1246 2.455 . S
O1266 C1263 1.301 . S
O1267 U1246 2.449 . S
O1267 C1263 1.282 . S
H1268 C1241 0.931 . S
H1269 C1243 0.929 . S
H1270 C1244 0.930 . S
H1271 C1245 0.931 . S
H1272 C1252 0.932 . S
H1273 C1253 0.930 . S
H1274 C1254 0.929 . S
H1275 C1256 0.930 . S
H1276 C1258 0.932 . S
H1277 C1259 0.929 . S
H1278 C1260 0.928 . S
H1279 C1262 0.932 . S
H1280 C1298 0.951 . S
H1281 C1300 0.951 . S
H1282 C1302 0.950 . S
H1283 C1303 0.950 . S
H1284 C1305 0.950 . S
H1285 C1308 0.950 . S
H1286 C1309 0.950 . S
H1287 C1311 0.950 . S
H1288 C1312 0.950 . S
H1289 C1313 0.951 . S
H1290 C1315 0.951 . S
H1291 C1317 0.950 . S
H1292 C1318 0.950 . S
H1293 C1320 0.950 . S
H1294 C1323 0.950 . S
H1295 C1324 0.950 . S
H1296 C1326 0.950 . S
H1297 C1327 0.950 . S
C1298 H1280 0.951 . S
C1298 C1299 1.366 . S
C1298 C1300 1.388 . S
C1299 C1298 1.366 . S
C1299 C1303 1.385 . S
C1300 H1281 0.951 . S
C1300 C1298 1.388 . S
C1300 C1301 1.366 . S
C1301 C1300 1.366 . S
C1301 C1302 1.414 . S
C1301 C1304 1.499 . S
C1302 H1282 0.950 . S
C1302 C1301 1.414 . S
C1302 C1303 1.374 . S
C1303 H1283 0.950 . S
C1303 C1299 1.385 . S
C1303 C1302 1.374 . S
C1304 C1301 1.499 . S
C1304 C1305 1.373 . S
C1304 C1306 1.389 . S
C1305 H1284 0.950 . S
C1305 C1304 1.373 . S
C1305 C1321 1.377 . S
C1306 C1304 1.389 . S
C1306 C1307 1.524 . S
C1306 C1320 1.377 . S
C1307 C1306 1.524 . S
C1307 C1308 1.397 . S
C1307 C1312 1.363 . S
C1308 H1285 0.950 . S
C1308 C1307 1.397 . S
C1308 C1309 1.334 . S
C1309 H1286 0.950 . S
C1309 C1308 1.334 . S
C1309 C1310 1.287 . S
C1310 C1309 1.287 . S
C1310 C1311 1.524 . S
C1310 H1329 0.913 . S
C1311 H1287 0.950 . S
C1311 C1310 1.524 . S
C1311 C1312 1.415 . S
C1312 H1288 0.950 . S
C1312 C1307 1.363 . S
C1312 C1311 1.415 . S
C1313 H1289 0.951 . S
C1313 C1314 1.366 . S
C1313 C1315 1.388 . S
C1314 C1313 1.366 . S
C1314 C1318 1.385 . S
C1315 H1290 0.951 . S
C1315 C1313 1.388 . S
C1315 C1316 1.366 . S
C1316 C1315 1.366 . S
C1316 C1317 1.414 . S
C1316 C1319 1.499 . S
C1317 H1291 0.950 . S
C1317 C1316 1.414 . S
C1317 C1318 1.374 . S
C1318 H1292 0.950 . S
C1318 C1314 1.385 . S
C1318 C1317 1.374 . S
C1319 C1316 1.499 . S
C1319 C1320 1.373 . S
C1319 C1321 1.389 . S
C1320 H1293 0.950 . S
C1320 C1306 1.377 . S
C1320 C1319 1.373 . S
C1321 C1305 1.377 . S
C1321 C1319 1.389 . S
C1321 C1322 1.524 . S
C1322 C1321 1.524 . S
C1322 C1323 1.397 . S
C1322 C1327 1.363 . S
C1323 H1294 0.950 . S
C1323 C1322 1.397 . S
C1323 C1324 1.334 . S
C1324 H1295 0.950 . S
C1324 C1323 1.334 . S
C1324 C1325 1.287 . S
C1325 C1324 1.287 . S
C1325 C1326 1.524 . S
C1325 H1328 0.999 . S
C1326 H1296 0.950 . S
C1326 C1325 1.524 . S
C1326 C1327 1.415 . S
C1327 H1297 0.950 . S
C1327 C1322 1.363 . S
C1327 C1326 1.415 . S
H1328 C1325 0.999 . S
H1329 C1310 0.913 . S
H1330 C1348 0.951 . S
H1331 C1350 0.951 . S
H1332 C1352 0.950 . S
H1333 C1353 0.950 . S
H1334 C1355 0.950 . S
H1335 C1358 0.950 . S
H1336 C1359 0.950 . S
H1337 C1361 0.950 . S
H1338 C1362 0.950 . S
H1339 C1363 0.951 . S
H1340 C1365 0.951 . S
H1341 C1367 0.950 . S
H1342 C1368 0.950 . S
H1343 C1370 0.950 . S
H1344 C1373 0.950 . S
H1345 C1374 0.950 . S
H1346 C1376 0.950 . S
H1347 C1377 0.950 . S
C1348 H1330 0.951 . S
C1348 C1349 1.327 1_455 S
C1348 C1350 1.388 . S
C1349 C1348 1.327 1_655 S
C1349 C1353 1.424 . S
C1350 H1331 0.951 . S
C1350 C1348 1.388 . S
C1350 C1351 1.367 1_455 S
C1351 C1350 1.367 1_655 S
C1351 C1352 1.412 . S
C1351 C1354 1.498 . S
C1352 H1332 0.950 . S
C1352 C1351 1.412 . S
C1352 C1353 1.374 . S
C1353 H1333 0.950 . S
C1353 C1349 1.424 . S
C1353 C1352 1.374 . S
C1354 C1351 1.498 . S
C1354 C1355 1.388 1_565 S
C1354 C1356 1.375 1_655 S
C1355 H1334 0.950 . S
C1355 C1354 1.388 1_545 S
C1355 C1371 1.376 . S
C1356 C1354 1.375 1_455 S
C1356 C1357 1.524 . S
C1356 C1370 1.376 . S
C1357 C1356 1.524 . S
C1357 C1358 1.397 . S
C1357 C1362 1.363 . S
C1358 H1335 0.950 . S
C1358 C1357 1.397 . S
C1358 C1359 1.334 . S
C1359 H1336 0.950 . S
C1359 C1358 1.334 . S
C1359 C1360 1.287 . S
C1360 C1359 1.287 . S
C1360 C1361 1.524 . S
C1360 H1379 0.913 . S
C1361 H1337 0.950 . S
C1361 C1360 1.524 . S
C1361 C1362 1.415 . S
C1362 H1338 0.950 . S
C1362 C1357 1.363 . S
C1362 C1361 1.415 . S
C1363 H1339 0.951 . S
C1363 C1364 1.327 1_655 S
C1363 C1365 1.388 . S
C1364 C1363 1.327 1_455 S
C1364 C1368 1.424 . S
C1365 H1340 0.951 . S
C1365 C1363 1.388 . S
C1365 C1366 1.367 1_655 S
C1366 C1365 1.367 1_455 S
C1366 C1367 1.412 . S
C1366 C1369 1.498 . S
C1367 H1341 0.950 . S
C1367 C1366 1.412 . S
C1367 C1368 1.374 . S
C1368 H1342 0.950 . S
C1368 C1364 1.424 . S
C1368 C1367 1.374 . S
C1369 C1366 1.498 . S
C1369 C1370 1.388 1_545 S
C1369 C1371 1.375 1_455 S
C1370 H1343 0.950 . S
C1370 C1356 1.376 . S
C1370 C1369 1.388 1_565 S
C1371 C1355 1.376 . S
C1371 C1369 1.375 1_655 S
C1371 C1372 1.524 . S
C1372 C1371 1.524 . S
C1372 C1373 1.397 . S
C1372 C1377 1.363 . S
C1373 H1344 0.950 . S
C1373 C1372 1.397 . S
C1373 C1374 1.334 . S
C1374 H1345 0.950 . S
C1374 C1373 1.334 . S
C1374 C1375 1.287 . S
C1375 C1374 1.287 . S
C1375 C1376 1.524 . S
C1375 H1378 0.999 . S
C1376 H1346 0.950 . S
C1376 C1375 1.524 . S
C1376 C1377 1.415 . S
C1377 H1347 0.950 . S
C1377 C1372 1.363 . S
C1377 C1376 1.415 . S
H1378 C1375 0.999 . S
H1379 C1360 0.913 . S
H1380 C1398 0.951 . S
H1381 C1400 0.951 . S
H1382 C1402 0.950 . S
H1383 C1403 0.950 . S
H1384 C1405 0.950 . S
H1385 C1408 0.950 . S
H1386 C1409 0.950 . S
H1387 C1411 0.950 . S
H1388 C1412 0.950 . S
H1389 C1413 0.951 . S
H1390 C1415 0.951 . S
H1391 C1417 0.950 . S
H1392 C1418 0.950 . S
H1393 C1420 0.950 . S
H1394 C1423 0.950 . S
H1395 C1424 0.950 . S
H1396 C1426 0.950 . S
H1397 C1427 0.950 . S
C1398 H1380 0.951 . S
C1398 C1399 1.366 . S
C1398 C1400 1.388 . S
C1399 C1398 1.366 . S
C1399 C1403 1.385 . S
C1400 H1381 0.951 . S
C1400 C1398 1.388 . S
C1400 C1401 1.366 . S
C1401 C1400 1.366 . S
C1401 C1402 1.414 . S
C1401 C1404 1.499 . S
C1402 H1382 0.950 . S
C1402 C1401 1.414 . S
C1402 C1403 1.374 . S
C1403 H1383 0.950 . S
C1403 C1399 1.385 . S
C1403 C1402 1.374 . S
C1404 C1401 1.499 . S
C1404 C1405 1.373 . S
C1404 C1406 1.389 . S
C1405 H1384 0.950 . S
C1405 C1404 1.373 . S
C1405 C1421 1.377 . S
C1406 C1404 1.389 . S
C1406 C1407 1.524 . S
C1406 C1420 1.377 . S
C1407 C1406 1.524 . S
C1407 C1408 1.397 . S
C1407 C1412 1.363 . S
C1408 H1385 0.950 . S
C1408 C1407 1.397 . S
C1408 C1409 1.334 . S
C1409 H1386 0.950 . S
C1409 C1408 1.334 . S
C1409 C1410 1.287 . S
C1410 C1409 1.287 . S
C1410 C1411 1.524 . S
C1410 H1429 0.913 . S
C1411 H1387 0.950 . S
C1411 C1410 1.524 . S
C1411 C1412 1.415 . S
C1412 H1388 0.950 . S
C1412 C1407 1.363 . S
C1412 C1411 1.415 . S
C1413 H1389 0.951 . S
C1413 C1414 1.366 . S
C1413 C1415 1.388 . S
C1414 C1413 1.366 . S
C1414 C1418 1.385 . S
C1415 H1390 0.951 . S
C1415 C1413 1.388 . S
C1415 C1416 1.366 . S
C1416 C1415 1.366 . S
C1416 C1417 1.414 . S
C1416 C1419 1.499 . S
C1417 H1391 0.950 . S
C1417 C1416 1.414 . S
C1417 C1418 1.374 . S
C1418 H1392 0.950 . S
C1418 C1414 1.385 . S
C1418 C1417 1.374 . S
C1419 C1416 1.499 . S
C1419 C1420 1.373 . S
C1419 C1421 1.389 . S
C1420 H1393 0.950 . S
C1420 C1406 1.377 . S
C1420 C1419 1.373 . S
C1421 C1405 1.377 . S
C1421 C1419 1.389 . S
C1421 C1422 1.524 . S
C1422 C1421 1.524 . S
C1422 C1423 1.397 . S
C1422 C1427 1.363 . S
C1423 H1394 0.950 . S
C1423 C1422 1.397 . S
C1423 C1424 1.334 . S
C1424 H1395 0.950 . S
C1424 C1423 1.334 . S
C1424 C1425 1.287 . S
C1425 C1424 1.287 . S
C1425 C1426 1.524 . S
C1425 H1428 0.999 . S
C1426 H1396 0.950 . S
C1426 C1425 1.524 . S
C1426 C1427 1.415 . S
C1427 H1397 0.950 . S
C1427 C1422 1.363 . S
C1427 C1426 1.415 . S
H1428 C1425 0.999 . S
H1429 C1410 0.913 . S
H1430 C1448 0.951 . S
H1431 C1450 0.951 . S
H1432 C1452 0.950 . S
H1433 C1453 0.950 . S
H1434 C1455 0.959 . S
H1435 C1458 0.950 . S
H1436 C1459 0.950 . S
H1437 C1461 0.950 . S
H1438 C1462 0.950 . S
H1439 C1463 0.951 . S
H1440 C1465 0.951 . S
H1441 C1467 0.950 . S
H1442 C1468 0.950 . S
H1443 C1470 0.959 . S
H1444 C1473 0.950 . S
H1445 C1474 0.950 . S
H1446 C1476 0.950 . S
H1447 C1477 0.950 . S
C1448 H1430 0.951 . S
C1448 C1449 1.366 . S
C1448 C1450 1.388 . S
C1449 C1448 1.366 . S
C1449 C1453 1.385 . S
C1450 H1431 0.951 . S
C1450 C1448 1.388 . S
C1450 C1451 1.366 . S
C1451 C1450 1.366 . S
C1451 C1452 1.414 . S
C1451 C1454 1.499 . S
C1452 H1432 0.950 . S
C1452 C1451 1.414 . S
C1452 C1453 1.374 . S
C1453 H1433 0.950 . S
C1453 C1449 1.385 . S
C1453 C1452 1.374 . S
C1454 C1451 1.499 . S
C1454 C1455 1.308 1_556 S
C1454 C1456 1.389 1_545 S
C1455 H1434 0.959 . S
C1455 C1454 1.308 1_554 S
C1455 C1471 1.438 . S
C1456 C1454 1.389 1_565 S
C1456 C1457 1.524 . S
C1456 C1470 1.438 . S
C1457 C1456 1.524 . S
C1457 C1458 1.397 . S
C1457 C1462 1.363 . S
C1458 H1435 0.950 . S
C1458 C1457 1.397 . S
C1458 C1459 1.334 . S
C1459 H1436 0.950 . S
C1459 C1458 1.334 . S
C1459 C1460 1.287 . S
C1460 C1459 1.287 . S
C1460 C1461 1.524 . S
C1460 H1479 0.913 . S
C1461 H1437 0.950 . S
C1461 C1460 1.524 . S
C1461 C1462 1.415 . S
C1462 H1438 0.950 . S
C1462 C1457 1.363 . S
C1462 C1461 1.415 . S
C1463 H1439 0.951 . S
C1463 C1464 1.366 . S
C1463 C1465 1.388 . S
C1464 C1463 1.366 . S
C1464 C1468 1.385 . S
C1465 H1440 0.951 . S
C1465 C1463 1.388 . S
C1465 C1466 1.366 . S
C1466 C1465 1.366 . S
C1466 C1467 1.414 . S
C1466 C1469 1.499 . S
C1467 H1441 0.950 . S
C1467 C1466 1.414 . S
C1467 C1468 1.374 . S
C1468 H1442 0.950 . S
C1468 C1464 1.385 . S
C1468 C1467 1.374 . S
C1469 C1466 1.499 . S
C1469 C1470 1.308 1_554 S
C1469 C1471 1.389 1_565 S
C1470 H1443 0.959 . S
C1470 C1456 1.438 . S
C1470 C1469 1.308 1_556 S
C1471 C1455 1.438 . S
C1471 C1469 1.389 1_545 S
C1471 C1472 1.524 . S
C1472 C1471 1.524 . S
C1472 C1473 1.397 . S
C1472 C1477 1.363 . S
C1473 H1444 0.950 . S
C1473 C1472 1.397 . S
C1473 C1474 1.334 . S
C1474 H1445 0.950 . S
C1474 C1473 1.334 . S
C1474 C1475 1.287 . S
C1475 C1474 1.287 . S
C1475 C1476 1.524 . S
C1475 H1478 0.999 . S
C1476 H1446 0.950 . S
C1476 C1475 1.524 . S
C1476 C1477 1.415 . S
C1477 H1447 0.950 . S
C1477 C1472 1.363 . S
C1477 C1476 1.415 . S
H1478 C1475 0.999 . S
H1479 C1460 0.913 . S
H1480 C1498 0.951 . S
H1481 C1500 0.951 . S
H1482 C1502 0.950 . S
H1483 C1503 0.950 . S
H1484 C1505 0.950 . S
H1485 C1508 0.950 . S
H1486 C1509 0.950 . S
H1487 C1511 0.950 . S
H1488 C1512 0.950 . S
H1489 C1513 0.951 . S
H1490 C1515 0.951 . S
H1491 C1517 0.950 . S
H1492 C1518 0.950 . S
H1493 C1520 0.950 . S
H1494 C1523 0.950 . S
H1495 C1524 0.950 . S
H1496 C1526 0.950 . S
H1497 C1527 0.950 . S
C1498 H1480 0.951 . S
C1498 C1499 1.366 . S
C1498 C1500 1.388 . S
C1499 C1498 1.366 . S
C1499 C1503 1.385 . S
C1500 H1481 0.951 . S
C1500 C1498 1.388 . S
C1500 C1501 1.366 . S
C1501 C1500 1.366 . S
C1501 C1502 1.414 . S
C1501 C1504 1.499 . S
C1502 H1482 0.950 . S
C1502 C1501 1.414 . S
C1502 C1503 1.374 . S
C1503 H1483 0.950 . S
C1503 C1499 1.385 . S
C1503 C1502 1.374 . S
C1504 C1501 1.499 . S
C1504 C1505 1.373 . S
C1504 C1506 1.389 . S
C1505 H1484 0.950 . S
C1505 C1504 1.373 . S
C1505 C1521 1.377 . S
C1506 C1504 1.389 . S
C1506 C1507 1.524 . S
C1506 C1520 1.377 . S
C1507 C1506 1.524 . S
C1507 C1508 1.397 . S
C1507 C1512 1.363 . S
C1508 H1485 0.950 . S
C1508 C1507 1.397 . S
C1508 C1509 1.334 . S
C1509 H1486 0.950 . S
C1509 C1508 1.334 . S
C1509 C1510 1.287 . S
C1510 C1509 1.287 . S
C1510 C1511 1.524 . S
C1510 H1529 0.913 . S
C1511 H1487 0.950 . S
C1511 C1510 1.524 . S
C1511 C1512 1.415 . S
C1512 H1488 0.950 . S
C1512 C1507 1.363 . S
C1512 C1511 1.415 . S
C1513 H1489 0.951 . S
C1513 C1514 1.366 . S
C1513 C1515 1.388 . S
C1514 C1513 1.366 . S
C1514 C1518 1.385 . S
C1515 H1490 0.951 . S
C1515 C1513 1.388 . S
C1515 C1516 1.366 . S
C1516 C1515 1.366 . S
C1516 C1517 1.414 . S
C1516 C1519 1.499 . S
C1517 H1491 0.950 . S
C1517 C1516 1.414 . S
C1517 C1518 1.374 . S
C1518 H1492 0.950 . S
C1518 C1514 1.385 . S
C1518 C1517 1.374 . S
C1519 C1516 1.499 . S
C1519 C1520 1.373 . S
C1519 C1521 1.389 . S
C1520 H1493 0.950 . S
C1520 C1506 1.377 . S
C1520 C1519 1.373 . S
C1521 C1505 1.377 . S
C1521 C1519 1.389 . S
C1521 C1522 1.524 . S
C1522 C1521 1.524 . S
C1522 C1523 1.397 . S
C1522 C1527 1.363 . S
C1523 H1494 0.950 . S
C1523 C1522 1.397 . S
C1523 C1524 1.334 . S
C1524 H1495 0.950 . S
C1524 C1523 1.334 . S
C1524 C1525 1.287 . S
C1525 C1524 1.287 . S
C1525 C1526 1.524 . S
C1525 H1528 0.999 . S
C1526 H1496 0.950 . S
C1526 C1525 1.524 . S
C1526 C1527 1.415 . S
C1527 H1497 0.950 . S
C1527 C1522 1.363 . S
C1527 C1526 1.415 . S
H1528 C1525 0.999 . S
H1529 C1510 0.913 . S
H1530 C1548 0.951 . S
H1531 C1550 0.951 . S
H1532 C1552 0.950 . S
H1533 C1553 0.950 . S
H1534 C1555 0.950 . S
H1535 C1558 0.950 . S
H1536 C1559 0.950 . S
H1537 C1561 0.950 . S
H1538 C1562 0.950 . S
H1539 C1563 0.951 . S
H1540 C1565 0.951 . S
H1541 C1567 0.950 . S
H1542 C1568 0.950 . S
H1543 C1570 0.950 . S
H1544 C1573 0.950 . S
H1545 C1574 0.950 . S
H1546 C1576 0.950 . S
H1547 C1577 0.950 . S
C1548 H1530 0.951 . S
C1548 C1549 1.366 . S
C1548 C1550 1.388 . S
C1549 C1548 1.366 . S
C1549 C1553 1.385 . S
C1550 H1531 0.951 . S
C1550 C1548 1.388 . S
C1550 C1551 1.366 . S
C1551 C1550 1.366 . S
C1551 C1552 1.414 . S
C1551 C1554 1.499 . S
C1552 H1532 0.950 . S
C1552 C1551 1.414 . S
C1552 C1553 1.374 . S
C1553 H1533 0.950 . S
C1553 C1549 1.385 . S
C1553 C1552 1.374 . S
C1554 C1551 1.499 . S
C1554 C1555 1.373 1_565 S
C1554 C1556 1.389 . S
C1555 H1534 0.950 . S
C1555 C1554 1.373 1_545 S
C1555 C1571 1.377 . S
C1556 C1554 1.389 . S
C1556 C1557 1.524 . S
C1556 C1570 1.377 . S
C1557 C1556 1.524 . S
C1557 C1558 1.397 . S
C1557 C1562 1.363 . S
C1558 H1535 0.950 . S
C1558 C1557 1.397 . S
C1558 C1559 1.334 . S
C1559 H1536 0.950 . S
C1559 C1558 1.334 . S
C1559 C1560 1.287 . S
C1560 C1559 1.287 . S
C1560 C1561 1.524 . S
C1560 H1579 0.913 . S
C1561 H1537 0.950 . S
C1561 C1560 1.524 . S
C1561 C1562 1.415 . S
C1562 H1538 0.950 . S
C1562 C1557 1.363 . S
C1562 C1561 1.415 . S
C1563 H1539 0.951 . S
C1563 C1564 1.366 . S
C1563 C1565 1.388 . S
C1564 C1563 1.366 . S
C1564 C1568 1.385 . S
C1565 H1540 0.951 . S
C1565 C1563 1.388 . S
C1565 C1566 1.366 . S
C1566 C1565 1.366 . S
C1566 C1567 1.414 . S
C1566 C1569 1.499 . S
C1567 H1541 0.950 . S
C1567 C1566 1.414 . S
C1567 C1568 1.374 . S
C1568 H1542 0.950 . S
C1568 C1564 1.385 . S
C1568 C1567 1.374 . S
C1569 C1566 1.499 . S
C1569 C1570 1.373 1_545 S
C1569 C1571 1.389 . S
C1570 H1543 0.950 . S
C1570 C1556 1.377 . S
C1570 C1569 1.373 1_565 S
C1571 C1555 1.377 . S
C1571 C1569 1.389 . S
C1571 C1572 1.524 . S
C1572 C1571 1.524 . S
C1572 C1573 1.397 . S
C1572 C1577 1.363 . S
C1573 H1544 0.950 . S
C1573 C1572 1.397 . S
C1573 C1574 1.334 . S
C1574 H1545 0.950 . S
C1574 C1573 1.334 . S
C1574 C1575 1.287 . S
C1575 C1574 1.287 . S
C1575 C1576 1.524 . S
C1575 H1578 0.999 . S
C1576 H1546 0.950 . S
C1576 C1575 1.524 . S
C1576 C1577 1.415 . S
C1577 H1547 0.950 . S
C1577 C1572 1.363 . S
C1577 C1576 1.415 . S
H1578 C1575 0.999 . S
H1579 C1560 0.913 . S
H1580 C1598 0.951 . S
H1581 C1600 0.951 . S
H1582 C1602 0.950 . S
H1583 C1603 0.950 . S
H1584 C1605 0.950 . S
H1585 C1608 0.950 . S
H1586 C1609 0.950 . S
H1587 C1611 0.950 . S
H1588 C1612 0.950 . S
H1589 C1613 0.951 . S
H1590 C1615 0.951 . S
H1591 C1617 0.950 . S
H1592 C1618 0.950 . S
H1593 C1620 0.950 . S
H1594 C1623 0.950 . S
H1595 C1624 0.950 . S
H1596 C1626 0.950 . S
H1597 C1627 0.950 . S
C1598 H1580 0.951 . S
C1598 C1599 1.366 . S
C1598 C1600 1.388 . S
C1599 C1598 1.366 . S
C1599 C1603 1.385 . S
C1600 H1581 0.951 . S
C1600 C1598 1.388 . S
C1600 C1601 1.366 . S
C1601 C1600 1.366 . S
C1601 C1602 1.414 . S
C1601 C1604 1.499 . S
C1602 H1582 0.950 . S
C1602 C1601 1.414 . S
C1602 C1603 1.374 . S
C1603 H1583 0.950 . S
C1603 C1599 1.385 . S
C1603 C1602 1.374 . S
C1604 C1601 1.499 . S
C1604 C1605 1.373 . S
C1604 C1606 1.389 . S
C1605 H1584 0.950 . S
C1605 C1604 1.373 . S
C1605 C1621 1.377 . S
C1606 C1604 1.389 . S
C1606 C1607 1.524 . S
C1606 C1620 1.377 . S
C1607 C1606 1.524 . S
C1607 C1608 1.397 . S
C1607 C1612 1.363 . S
C1608 H1585 0.950 . S
C1608 C1607 1.397 . S
C1608 C1609 1.334 . S
C1609 H1586 0.950 . S
C1609 C1608 1.334 . S
C1609 C1610 1.287 . S
C1610 C1609 1.287 . S
C1610 C1611 1.524 . S
C1610 H1629 0.913 . S
C1611 H1587 0.950 . S
C1611 C1610 1.524 . S
C1611 C1612 1.415 . S
C1612 H1588 0.950 . S
C1612 C1607 1.363 . S
C1612 C1611 1.415 . S
C1613 H1589 0.951 . S
C1613 C1614 1.366 . S
C1613 C1615 1.388 . S
C1614 C1613 1.366 . S
C1614 C1618 1.385 . S
C1615 H1590 0.951 . S
C1615 C1613 1.388 . S
C1615 C1616 1.366 . S
C1616 C1615 1.366 . S
C1616 C1617 1.414 . S
C1616 C1619 1.499 . S
C1617 H1591 0.950 . S
C1617 C1616 1.414 . S
C1617 C1618 1.374 . S
C1618 H1592 0.950 . S
C1618 C1614 1.385 . S
C1618 C1617 1.374 . S
C1619 C1616 1.499 . S
C1619 C1620 1.373 . S
C1619 C1621 1.389 . S
C1620 H1593 0.950 . S
C1620 C1606 1.377 . S
C1620 C1619 1.373 . S
C1621 C1605 1.377 . S
C1621 C1619 1.389 . S
C1621 C1622 1.524 . S
C1622 C1621 1.524 . S
C1622 C1623 1.397 . S
C1622 C1627 1.363 . S
C1623 H1594 0.950 . S
C1623 C1622 1.397 . S
C1623 C1624 1.334 . S
C1624 H1595 0.950 . S
C1624 C1623 1.334 . S
C1624 C1625 1.287 . S
C1625 C1624 1.287 . S
C1625 C1626 1.524 . S
C1625 H1628 0.999 . S
C1626 H1596 0.950 . S
C1626 C1625 1.524 . S
C1626 C1627 1.415 . S
C1627 H1597 0.950 . S
C1627 C1622 1.363 . S
C1627 C1626 1.415 . S
H1628 C1625 0.999 . S
H1629 C1610 0.913 . S
H1630 C1648 0.961 . S
H1631 C1650 0.951 . S
H1632 C1652 0.949 1_655 S
H1633 C1653 0.950 1_655 S
H1634 C1655 0.950 . S
H1635 C1658 0.950 . S
H1636 C1659 0.950 . S
H1637 C1661 0.950 . S
H1638 C1662 0.950 . S
H1639 C1663 0.961 . S
H1640 C1665 0.951 . S
H1641 C1667 0.949 1_455 S
H1642 C1668 0.950 1_455 S
H1643 C1670 0.950 . S
H1644 C1673 0.950 . S
H1645 C1674 0.950 . S
H1646 C1676 0.950 . S
H1647 C1677 0.950 . S
C1648 H1630 0.961 . S
C1648 C1649 1.364 . S
C1648 C1650 1.393 . S
C1649 C1648 1.364 . S
C1649 C1653 1.384 . S
C1650 H1631 0.951 . S
C1650 C1648 1.393 . S
C1650 C1651 1.371 . S
C1651 C1650 1.371 . S
C1651 C1652 1.411 . S
C1651 C1654 1.499 . S
C1652 H1632 0.949 1_455 S
C1652 C1651 1.411 . S
C1652 C1653 1.374 . S
C1653 H1633 0.950 1_455 S
C1653 C1649 1.384 . S
C1653 C1652 1.374 . S
C1654 C1651 1.499 . S
C1654 C1655 1.319 1_455 S
C1654 C1656 1.440 1_565 S
C1655 H1634 0.950 . S
C1655 C1654 1.319 1_655 S
C1655 C1671 1.377 1_556 S
C1656 C1654 1.440 1_545 S
C1656 C1657 1.524 . S
C1656 C1670 1.377 1_556 S
C1657 C1656 1.524 . S
C1657 C1658 1.397 1_545 S
C1657 C1662 1.363 . S
C1658 H1635 0.950 . S
C1658 C1657 1.397 1_565 S
C1658 C1659 1.334 . S
C1659 H1636 0.950 . S
C1659 C1658 1.334 . S
C1659 C1660 1.287 1_565 S
C1660 C1659 1.287 1_545 S
C1660 C1661 1.524 . S
C1660 H1679 0.913 . S
C1661 H1637 0.950 . S
C1661 C1660 1.524 . S
C1661 C1662 1.415 . S
C1662 H1638 0.950 . S
C1662 C1657 1.363 . S
C1662 C1661 1.415 . S
C1663 H1639 0.961 . S
C1663 C1664 1.364 . S
C1663 C1665 1.393 . S
C1664 C1663 1.364 . S
C1664 C1668 1.384 . S
C1665 H1640 0.951 . S
C1665 C1663 1.393 . S
C1665 C1666 1.371 . S
C1666 C1665 1.371 . S
C1666 C1667 1.411 . S
C1666 C1669 1.499 . S
C1667 H1641 0.949 1_655 S
C1667 C1666 1.411 . S
C1667 C1668 1.374 . S
C1668 H1642 0.950 1_655 S
C1668 C1664 1.384 . S
C1668 C1667 1.374 . S
C1669 C1666 1.499 . S
C1669 C1670 1.319 1_655 S
C1669 C1671 1.440 1_545 S
C1670 H1643 0.950 . S
C1670 C1656 1.377 1_554 S
C1670 C1669 1.319 1_455 S
C1671 C1655 1.377 1_554 S
C1671 C1669 1.440 1_565 S
C1671 C1672 1.524 . S
C1672 C1671 1.524 . S
C1672 C1673 1.397 1_565 S
C1672 C1677 1.363 . S
C1673 H1644 0.950 . S
C1673 C1672 1.397 1_545 S
C1673 C1674 1.334 . S
C1674 H1645 0.950 . S
C1674 C1673 1.334 . S
C1674 C1675 1.287 1_545 S
C1675 C1674 1.287 1_565 S
C1675 C1676 1.524 . S
C1675 H1678 0.999 . S
C1676 H1646 0.950 . S
C1676 C1675 1.524 . S
C1676 C1677 1.415 . S
C1677 H1647 0.950 . S
C1677 C1672 1.363 . S
C1677 C1676 1.415 . S
H1678 C1675 0.999 . S
H1679 C1660 0.913 . S
H1680 C1698 0.951 . S
H1681 C1700 0.951 . S
H1682 C1702 0.950 . S
H1683 C1703 0.950 . S
H1684 C1705 0.950 . S
H1685 C1708 0.950 . S
H1686 C1709 0.950 . S
H1687 C1711 0.950 . S
H1688 C1712 0.950 . S
H1689 C1713 0.951 . S
H1690 C1715 0.951 . S
H1691 C1717 0.950 . S
H1692 C1718 0.950 . S
H1693 C1720 0.950 . S
H1694 C1723 0.950 . S
H1695 C1724 0.950 . S
H1696 C1726 0.950 . S
H1697 C1727 0.950 . S
C1698 H1680 0.951 . S
C1698 C1699 1.366 . S
C1698 C1700 1.388 . S
C1699 C1698 1.366 . S
C1699 C1703 1.385 . S
C1700 H1681 0.951 . S
C1700 C1698 1.388 . S
C1700 C1701 1.366 . S
C1701 C1700 1.366 . S
C1701 C1702 1.414 . S
C1701 C1704 1.499 . S
C1702 H1682 0.950 . S
C1702 C1701 1.414 . S
C1702 C1703 1.374 . S
C1703 H1683 0.950 . S
C1703 C1699 1.385 . S
C1703 C1702 1.374 . S
C1704 C1701 1.499 . S
C1704 C1705 1.373 . S
C1704 C1706 1.389 . S
C1705 H1684 0.950 . S
C1705 C1704 1.373 . S
C1705 C1721 1.377 . S
C1706 C1704 1.389 . S
C1706 C1707 1.524 . S
C1706 C1720 1.377 . S
C1707 C1706 1.524 . S
C1707 C1708 1.397 . S
C1707 C1712 1.363 . S
C1708 H1685 0.950 . S
C1708 C1707 1.397 . S
C1708 C1709 1.334 . S
C1709 H1686 0.950 . S
C1709 C1708 1.334 . S
C1709 C1710 1.287 . S
C1710 C1709 1.287 . S
C1710 C1711 1.524 . S
C1710 H1729 0.913 . S
C1711 H1687 0.950 . S
C1711 C1710 1.524 . S
C1711 C1712 1.415 . S
C1712 H1688 0.950 . S
C1712 C1707 1.363 . S
C1712 C1711 1.415 . S
C1713 H1689 0.951 . S
C1713 C1714 1.366 . S
C1713 C1715 1.388 . S
C1714 C1713 1.366 . S
C1714 C1718 1.385 . S
C1715 H1690 0.951 . S
C1715 C1713 1.388 . S
C1715 C1716 1.366 . S
C1716 C1715 1.366 . S
C1716 C1717 1.414 . S
C1716 C1719 1.499 . S
C1717 H1691 0.950 . S
C1717 C1716 1.414 . S
C1717 C1718 1.374 . S
C1718 H1692 0.950 . S
C1718 C1714 1.385 . S
C1718 C1717 1.374 . S
C1719 C1716 1.499 . S
C1719 C1720 1.373 . S
C1719 C1721 1.389 . S
C1720 H1693 0.950 . S
C1720 C1706 1.377 . S
C1720 C1719 1.373 . S
C1721 C1705 1.377 . S
C1721 C1719 1.389 . S
C1721 C1722 1.524 . S
C1722 C1721 1.524 . S
C1722 C1723 1.397 . S
C1722 C1727 1.363 . S
C1723 H1694 0.950 . S
C1723 C1722 1.397 . S
C1723 C1724 1.334 . S
C1724 H1695 0.950 . S
C1724 C1723 1.334 . S
C1724 C1725 1.287 . S
C1725 C1724 1.287 . S
C1725 C1726 1.524 . S
C1725 H1728 0.999 . S
C1726 H1696 0.950 . S
C1726 C1725 1.524 . S
C1726 C1727 1.415 . S
C1727 H1697 0.950 . S
C1727 C1722 1.363 . S
C1727 C1726 1.415 . S
H1728 C1725 0.999 . S
H1729 C1710 0.913 . S
H1730 C1748 0.951 . S
H1731 C1750 0.951 . S
H1732 C1752 0.950 . S
H1733 C1753 0.950 . S
H1734 C1755 0.950 . S
H1735 C1758 0.950 . S
H1736 C1759 0.950 . S
H1737 C1761 0.950 . S
H1738 C1762 0.950 . S
H1739 C1763 0.951 . S
H1740 C1765 0.951 . S
H1741 C1767 0.950 . S
H1742 C1768 0.950 . S
H1743 C1770 0.950 . S
H1744 C1773 0.950 . S
H1745 C1774 0.950 . S
H1746 C1776 0.950 . S
H1747 C1777 0.950 . S
C1748 H1730 0.951 . S
C1748 C1749 1.366 . S
C1748 C1750 1.388 . S
C1749 C1748 1.366 . S
C1749 C1753 1.385 . S
C1750 H1731 0.951 . S
C1750 C1748 1.388 . S
C1750 C1751 1.366 . S
C1751 C1750 1.366 . S
C1751 C1752 1.414 . S
C1751 C1754 1.499 . S
C1752 H1732 0.950 . S
C1752 C1751 1.414 . S
C1752 C1753 1.374 . S
C1753 H1733 0.950 . S
C1753 C1749 1.385 . S
C1753 C1752 1.374 . S
C1754 C1751 1.499 . S
C1754 C1755 1.373 . S
C1754 C1756 1.389 . S
C1755 H1734 0.950 . S
C1755 C1754 1.373 . S
C1755 C1771 1.377 . S
C1756 C1754 1.389 . S
C1756 C1757 1.524 . S
C1756 C1770 1.377 . S
C1757 C1756 1.524 . S
C1757 C1758 1.397 . S
C1757 C1762 1.363 . S
C1758 H1735 0.950 . S
C1758 C1757 1.397 . S
C1758 C1759 1.334 . S
C1759 H1736 0.950 . S
C1759 C1758 1.334 . S
C1759 C1760 1.287 . S
C1760 C1759 1.287 . S
C1760 C1761 1.524 . S
C1760 H1779 0.913 . S
C1761 H1737 0.950 . S
C1761 C1760 1.524 . S
C1761 C1762 1.415 . S
C1762 H1738 0.950 . S
C1762 C1757 1.363 . S
C1762 C1761 1.415 . S
C1763 H1739 0.951 . S
C1763 C1764 1.366 . S
C1763 C1765 1.388 . S
C1764 C1763 1.366 . S
C1764 C1768 1.385 . S
C1765 H1740 0.951 . S
C1765 C1763 1.388 . S
C1765 C1766 1.366 . S
C1766 C1765 1.366 . S
C1766 C1767 1.414 . S
C1766 C1769 1.499 . S
C1767 H1741 0.950 . S
C1767 C1766 1.414 . S
C1767 C1768 1.374 . S
C1768 H1742 0.950 . S
C1768 C1764 1.385 . S
C1768 C1767 1.374 . S
C1769 C1766 1.499 . S
C1769 C1770 1.373 . S
C1769 C1771 1.389 . S
C1770 H1743 0.950 . S
C1770 C1756 1.377 . S
C1770 C1769 1.373 . S
C1771 C1755 1.377 . S
C1771 C1769 1.389 . S
C1771 C1772 1.524 . S
C1772 C1771 1.524 . S
C1772 C1773 1.397 . S
C1772 C1777 1.363 . S
C1773 H1744 0.950 . S
C1773 C1772 1.397 . S
C1773 C1774 1.334 . S
C1774 H1745 0.950 . S
C1774 C1773 1.334 . S
C1774 C1775 1.287 . S
C1775 C1774 1.287 . S
C1775 C1776 1.524 . S
C1775 H1778 0.999 . S
C1776 H1746 0.950 . S
C1776 C1775 1.524 . S
C1776 C1777 1.415 . S
C1777 H1747 0.950 . S
C1777 C1772 1.363 . S
C1777 C1776 1.415 . S
H1778 C1775 0.999 . S
H1779 C1760 0.913 . S
H1780 C1798 0.951 . S
H1781 C1800 0.951 . S
H1782 C1802 0.950 . S
H1783 C1803 0.950 . S
H1784 C1805 0.950 . S
H1785 C1808 0.950 . S
H1786 C1809 0.950 . S
H1787 C1811 0.950 . S
H1788 C1812 0.950 . S
H1789 C1813 0.951 . S
H1790 C1815 0.951 . S
H1791 C1817 0.950 . S
H1792 C1818 0.950 . S
H1793 C1820 0.950 . S
H1794 C1823 0.950 . S
H1795 C1824 0.950 . S
H1796 C1826 0.950 . S
H1797 C1827 0.950 . S
C1798 H1780 0.951 . S
C1798 C1799 1.366 . S
C1798 C1800 1.388 . S
C1799 C1798 1.366 . S
C1799 C1803 1.385 . S
C1800 H1781 0.951 . S
C1800 C1798 1.388 . S
C1800 C1801 1.366 . S
C1801 C1800 1.366 . S
C1801 C1802 1.414 . S
C1801 C1804 1.499 . S
C1802 H1782 0.950 . S
C1802 C1801 1.414 . S
C1802 C1803 1.374 . S
C1803 H1783 0.950 . S
C1803 C1799 1.385 . S
C1803 C1802 1.374 . S
C1804 C1801 1.499 . S
C1804 C1805 1.373 . S
C1804 C1806 1.389 . S
C1805 H1784 0.950 . S
C1805 C1804 1.373 . S
C1805 C1821 1.377 . S
C1806 C1804 1.389 . S
C1806 C1807 1.524 . S
C1806 C1820 1.377 . S
C1807 C1806 1.524 . S
C1807 C1808 1.397 . S
C1807 C1812 1.363 . S
C1808 H1785 0.950 . S
C1808 C1807 1.397 . S
C1808 C1809 1.334 . S
C1809 H1786 0.950 . S
C1809 C1808 1.334 . S
C1809 C1810 1.287 . S
C1810 C1809 1.287 . S
C1810 C1811 1.524 . S
C1810 H1829 0.913 . S
C1811 H1787 0.950 . S
C1811 C1810 1.524 . S
C1811 C1812 1.415 . S
C1812 H1788 0.950 . S
C1812 C1807 1.363 . S
C1812 C1811 1.415 . S
C1813 H1789 0.951 . S
C1813 C1814 1.366 . S
C1813 C1815 1.388 . S
C1814 C1813 1.366 . S
C1814 C1818 1.385 . S
C1815 H1790 0.951 . S
C1815 C1813 1.388 . S
C1815 C1816 1.366 . S
C1816 C1815 1.366 . S
C1816 C1817 1.414 . S
C1816 C1819 1.499 . S
C1817 H1791 0.950 . S
C1817 C1816 1.414 . S
C1817 C1818 1.374 . S
C1818 H1792 0.950 . S
C1818 C1814 1.385 . S
C1818 C1817 1.374 . S
C1819 C1816 1.499 . S
C1819 C1820 1.373 . S
C1819 C1821 1.389 . S
C1820 H1793 0.950 . S
C1820 C1806 1.377 . S
C1820 C1819 1.373 . S
C1821 C1805 1.377 . S
C1821 C1819 1.389 . S
C1821 C1822 1.524 . S
C1822 C1821 1.524 . S
C1822 C1823 1.397 . S
C1822 C1827 1.363 . S
C1823 H1794 0.950 . S
C1823 C1822 1.397 . S
C1823 C1824 1.334 . S
C1824 H1795 0.950 . S
C1824 C1823 1.334 . S
C1824 C1825 1.287 . S
C1825 C1824 1.287 . S
C1825 C1826 1.524 . S
C1825 H1828 0.999 . S
C1826 H1796 0.950 . S
C1826 C1825 1.524 . S
C1826 C1827 1.415 . S
C1827 H1797 0.950 . S
C1827 C1822 1.363 . S
C1827 C1826 1.415 . S
H1828 C1825 0.999 . S
H1829 C1810 0.913 . S
H1830 C1848 0.951 . S
H1831 C1850 0.951 . S
H1832 C1852 0.950 . S
H1833 C1853 0.950 . S
H1834 C1855 0.950 . S
H1835 C1858 0.950 . S
H1836 C1859 0.950 . S
H1837 C1861 0.950 . S
H1838 C1862 0.950 . S
H1839 C1863 0.951 . S
H1840 C1865 0.951 . S
H1841 C1867 0.950 . S
H1842 C1868 0.950 . S
H1843 C1870 0.950 . S
H1844 C1873 0.950 . S
H1845 C1874 0.950 . S
H1846 C1876 0.950 . S
H1847 C1877 0.950 . S
C1848 H1830 0.951 . S
C1848 C1849 1.366 . S
C1848 C1850 1.388 . S
C1849 C1848 1.366 . S
C1849 C1853 1.385 . S
C1850 H1831 0.951 . S
C1850 C1848 1.388 . S
C1850 C1851 1.366 . S
C1851 C1850 1.366 . S
C1851 C1852 1.414 . S
C1851 C1854 1.499 . S
C1852 H1832 0.950 . S
C1852 C1851 1.414 . S
C1852 C1853 1.374 . S
C1853 H1833 0.950 . S
C1853 C1849 1.385 . S
C1853 C1852 1.374 . S
C1854 C1851 1.499 . S
C1854 C1855 1.373 . S
C1854 C1856 1.389 . S
C1855 H1834 0.950 . S
C1855 C1854 1.373 . S
C1855 C1871 1.377 . S
C1856 C1854 1.389 . S
C1856 C1857 1.524 . S
C1856 C1870 1.377 . S
C1857 C1856 1.524 . S
C1857 C1858 1.397 . S
C1857 C1862 1.363 . S
C1858 H1835 0.950 . S
C1858 C1857 1.397 . S
C1858 C1859 1.334 . S
C1859 H1836 0.950 . S
C1859 C1858 1.334 . S
C1859 C1860 1.287 . S
C1860 C1859 1.287 . S
C1860 C1861 1.524 . S
C1860 H1879 0.913 . S
C1861 H1837 0.950 . S
C1861 C1860 1.524 . S
C1861 C1862 1.415 . S
C1862 H1838 0.950 . S
C1862 C1857 1.363 . S
C1862 C1861 1.415 . S
C1863 H1839 0.951 . S
C1863 C1864 1.366 . S
C1863 C1865 1.388 . S
C1864 C1863 1.366 . S
C1864 C1868 1.385 . S
C1865 H1840 0.951 . S
C1865 C1863 1.388 . S
C1865 C1866 1.366 . S
C1866 C1865 1.366 . S
C1866 C1867 1.414 . S
C1866 C1869 1.499 . S
C1867 H1841 0.950 . S
C1867 C1866 1.414 . S
C1867 C1868 1.374 . S
C1868 H1842 0.950 . S
C1868 C1864 1.385 . S
C1868 C1867 1.374 . S
C1869 C1866 1.499 . S
C1869 C1870 1.373 . S
C1869 C1871 1.389 . S
C1870 H1843 0.950 . S
C1870 C1856 1.377 . S
C1870 C1869 1.373 . S
C1871 C1855 1.377 . S
C1871 C1869 1.389 . S
C1871 C1872 1.524 . S
C1872 C1871 1.524 . S
C1872 C1873 1.397 . S
C1872 C1877 1.363 . S
C1873 H1844 0.950 . S
C1873 C1872 1.397 . S
C1873 C1874 1.334 . S
C1874 H1845 0.950 . S
C1874 C1873 1.334 . S
C1874 C1875 1.287 . S
C1875 C1874 1.287 . S
C1875 C1876 1.524 . S
C1875 H1878 0.999 . S
C1876 H1846 0.950 . S
C1876 C1875 1.524 . S
C1876 C1877 1.415 . S
C1877 H1847 0.950 . S
C1877 C1872 1.363 . S
C1877 C1876 1.415 . S
H1878 C1875 0.999 . S
H1879 C1860 0.913 . S
H1880 C1898 0.951 . S
H1881 C1900 0.951 . S
H1882 C1902 0.950 . S
H1883 C1903 0.950 . S
H1884 C1905 0.950 . S
H1885 C1908 0.950 . S
H1886 C1909 0.950 . S
H1887 C1911 0.950 . S
H1888 C1912 0.950 . S
H1889 C1913 0.951 . S
H1890 C1915 0.951 . S
H1891 C1917 0.950 . S
H1892 C1918 0.950 . S
H1893 C1920 0.950 . S
H1894 C1923 0.950 . S
H1895 C1924 0.950 . S
H1896 C1926 0.950 . S
H1897 C1927 0.950 . S
C1898 H1880 0.951 . S
C1898 C1899 1.366 . S
C1898 C1900 1.388 . S
C1899 C1898 1.366 . S
C1899 C1903 1.385 . S
C1900 H1881 0.951 . S
C1900 C1898 1.388 . S
C1900 C1901 1.366 . S
C1901 C1900 1.366 . S
C1901 C1902 1.414 . S
C1901 C1904 1.499 . S
C1902 H1882 0.950 . S
C1902 C1901 1.414 . S
C1902 C1903 1.374 . S
C1903 H1883 0.950 . S
C1903 C1899 1.385 . S
C1903 C1902 1.374 . S
C1904 C1901 1.499 . S
C1904 C1905 1.373 1_554 S
C1904 C1906 1.389 . S
C1905 H1884 0.950 . S
C1905 C1904 1.373 1_556 S
C1905 C1921 1.377 . S
C1906 C1904 1.389 . S
C1906 C1907 1.524 . S
C1906 C1920 1.377 . S
C1907 C1906 1.524 . S
C1907 C1908 1.397 . S
C1907 C1912 1.363 . S
C1908 H1885 0.950 . S
C1908 C1907 1.397 . S
C1908 C1909 1.334 . S
C1909 H1886 0.950 . S
C1909 C1908 1.334 . S
C1909 C1910 1.287 . S
C1910 C1909 1.287 . S
C1910 C1911 1.524 . S
C1910 H1929 0.913 . S
C1911 H1887 0.950 . S
C1911 C1910 1.524 . S
C1911 C1912 1.415 . S
C1912 H1888 0.950 . S
C1912 C1907 1.363 . S
C1912 C1911 1.415 . S
C1913 H1889 0.951 . S
C1913 C1914 1.366 . S
C1913 C1915 1.388 . S
C1914 C1913 1.366 . S
C1914 C1918 1.385 . S
C1915 H1890 0.951 . S
C1915 C1913 1.388 . S
C1915 C1916 1.366 . S
C1916 C1915 1.366 . S
C1916 C1917 1.414 . S
C1916 C1919 1.499 . S
C1917 H1891 0.950 . S
C1917 C1916 1.414 . S
C1917 C1918 1.374 . S
C1918 H1892 0.950 . S
C1918 C1914 1.385 . S
C1918 C1917 1.374 . S
C1919 C1916 1.499 . S
C1919 C1920 1.373 1_556 S
C1919 C1921 1.389 . S
C1920 H1893 0.950 . S
C1920 C1906 1.377 . S
C1920 C1919 1.373 1_554 S
C1921 C1905 1.377 . S
C1921 C1919 1.389 . S
C1921 C1922 1.524 . S
C1922 C1921 1.524 . S
C1922 C1923 1.397 . S
C1922 C1927 1.363 . S
C1923 H1894 0.950 . S
C1923 C1922 1.397 . S
C1923 C1924 1.334 . S
C1924 H1895 0.950 . S
C1924 C1923 1.334 . S
C1924 C1925 1.287 . S
C1925 C1924 1.287 . S
C1925 C1926 1.524 . S
C1925 H1928 0.999 . S
C1926 H1896 0.950 . S
C1926 C1925 1.524 . S
C1926 C1927 1.415 . S
C1927 H1897 0.950 . S
C1927 C1922 1.363 . S
C1927 C1926 1.415 . S
H1928 C1925 0.999 . S
H1929 C1910 0.913 . S
H1930 C1948 0.951 . S
H1931 C1950 0.951 . S
H1932 C1952 0.950 . S
H1933 C1953 0.950 . S
H1934 C1955 0.950 . S
H1935 C1958 0.950 . S
H1936 C1959 0.950 . S
H1937 C1961 0.950 . S
H1938 C1962 0.950 . S
H1939 C1963 0.951 . S
H1940 C1965 0.951 . S
H1941 C1967 0.950 . S
H1942 C1968 0.950 . S
H1943 C1970 0.950 . S
H1944 C1973 0.950 . S
H1945 C1974 0.950 . S
H1946 C1976 0.950 . S
H1947 C1977 0.950 . S
C1948 H1930 0.951 . S
C1948 C1949 1.401 . S
C1948 C1950 1.388 . S
C1949 C1948 1.401 . S
C1949 C1953 1.349 1_455 S
C1950 H1931 0.951 . S
C1950 C1948 1.388 . S
C1950 C1951 1.400 . S
C1951 C1950 1.400 . S
C1951 C1952 1.379 1_455 S
C1951 C1954 1.498 . S
C1952 H1932 0.950 . S
C1952 C1951 1.379 1_655 S
C1952 C1953 1.374 . S
C1953 H1933 0.950 . S
C1953 C1949 1.349 1_655 S
C1953 C1952 1.374 . S
C1954 C1951 1.498 . S
C1954 C1955 1.378 1_455 S
C1954 C1956 1.385 . S
C1955 H1934 0.950 . S
C1955 C1954 1.378 1_655 S
C1955 C1971 1.377 . S
C1956 C1954 1.385 . S
C1956 C1957 1.524 . S
C1956 C1970 1.377 . S
C1957 C1956 1.524 . S
C1957 C1958 1.397 . S
C1957 C1962 1.363 . S
C1958 H1935 0.950 . S
C1958 C1957 1.397 . S
C1958 C1959 1.334 . S
C1959 H1936 0.950 . S
C1959 C1958 1.334 . S
C1959 C1960 1.287 . S
C1960 C1959 1.287 . S
C1960 C1961 1.524 . S
C1960 H1979 0.913 . S
C1961 H1937 0.950 . S
C1961 C1960 1.524 . S
C1961 C1962 1.415 . S
C1962 H1938 0.950 . S
C1962 C1957 1.363 . S
C1962 C1961 1.415 . S
C1963 H1939 0.951 . S
C1963 C1964 1.401 . S
C1963 C1965 1.388 . S
C1964 C1963 1.401 . S
C1964 C1968 1.349 1_655 S
C1965 H1940 0.951 . S
C1965 C1963 1.388 . S
C1965 C1966 1.400 . S
C1966 C1965 1.400 . S
C1966 C1967 1.379 1_655 S
C1966 C1969 1.498 . S
C1967 H1941 0.950 . S
C1967 C1966 1.379 1_455 S
C1967 C1968 1.374 . S
C1968 H1942 0.950 . S
C1968 C1964 1.349 1_455 S
C1968 C1967 1.374 . S
C1969 C1966 1.498 . S
C1969 C1970 1.378 1_655 S
C1969 C1971 1.385 . S
C1970 H1943 0.950 . S
C1970 C1956 1.377 . S
C1970 C1969 1.378 1_455 S
C1971 C1955 1.377 . S
C1971 C1969 1.385 . S
C1971 C1972 1.524 . S
C1972 C1971 1.524 . S
C1972 C1973 1.397 . S
C1972 C1977 1.363 . S
C1973 H1944 0.950 . S
C1973 C1972 1.397 . S
C1973 C1974 1.334 . S
C1974 H1945 0.950 . S
C1974 C1973 1.334 . S
C1974 C1975 1.287 . S
C1975 C1974 1.287 . S
C1975 C1976 1.524 . S
C1975 H1978 0.999 . S
C1976 H1946 0.950 . S
C1976 C1975 1.524 . S
C1976 C1977 1.415 . S
C1977 H1947 0.950 . S
C1977 C1972 1.363 . S
C1977 C1976 1.415 . S
H1978 C1975 0.999 . S
H1979 C1960 0.913 . S
H1980 C1998 0.951 . S
H1981 C2000 0.951 . S
H1982 C2002 0.950 . S
H1983 C2003 0.968 . S
H1984 C2005 0.950 . S
H1985 C2008 0.950 . S
H1986 C2009 0.950 . S
H1987 C2011 0.950 . S
H1988 C2012 0.950 . S
H1989 C2013 0.951 . S
H1990 C2015 0.951 . S
H1991 C2017 0.950 . S
H1992 C2018 0.968 . S
H1993 C2020 0.950 . S
H1994 C2023 0.950 . S
H1995 C2024 0.950 . S
H1996 C2026 0.950 . S
H1997 C2027 0.950 . S
C1998 H1980 0.951 . S
C1998 C1999 1.371 . S
C1998 C2000 1.388 . S
C1999 C1998 1.371 . S
C1999 C2003 1.373 1_655 S
C2000 H1981 0.951 . S
C2000 C1998 1.388 . S
C2000 C2001 1.362 1_655 S
C2001 C2000 1.362 1_455 S
C2001 C2002 1.417 . S
C2001 C2004 1.498 . S
C2002 H1982 0.950 . S
C2002 C2001 1.417 . S
C2002 C2003 1.381 . S
C2003 H1983 0.968 . S
C2003 C1999 1.373 1_455 S
C2003 C2002 1.381 . S
C2004 C2001 1.498 . S
C2004 C2005 1.341 1_455 S
C2004 C2006 1.418 . S
C2005 H1984 0.950 . S
C2005 C2004 1.341 1_655 S
C2005 C2021 1.379 1_556 S
C2006 C2004 1.418 . S
C2006 C2007 1.524 1_556 S
C2006 C2020 1.379 1_556 S
C2007 C2006 1.524 1_554 S
C2007 C2008 1.373 1_554 S
C2007 C2012 1.389 . S
C2008 H1985 0.950 . S
C2008 C2007 1.373 1_556 S
C2008 C2009 1.334 . S
C2009 H1986 0.950 . S
C2009 C2008 1.334 . S
C2009 C2010 1.293 1_556 S
C2010 C2009 1.293 1_554 S
C2010 C2011 1.518 . S
C2010 H2029 0.913 1_554 S
C2011 H1987 0.950 . S
C2011 C2010 1.518 . S
C2011 C2012 1.415 . S
C2012 H1988 0.950 . S
C2012 C2007 1.389 . S
C2012 C2011 1.415 . S
C2013 H1989 0.951 . S
C2013 C2014 1.371 . S
C2013 C2015 1.388 . S
C2014 C2013 1.371 . S
C2014 C2018 1.373 1_455 S
C2015 H1990 0.951 . S
C2015 C2013 1.388 . S
C2015 C2016 1.362 1_455 S
C2016 C2015 1.362 1_655 S
C2016 C2017 1.417 . S
C2016 C2019 1.498 . S
C2017 H1991 0.950 . S
C2017 C2016 1.417 . S
C2017 C2018 1.381 . S
C2018 H1992 0.968 . S
C2018 C2014 1.373 1_655 S
C2018 C2017 1.381 . S
C2019 C2016 1.498 . S
C2019 C2020 1.341 1_655 S
C2019 C2021 1.418 . S
C2020 H1993 0.950 . S
C2020 C2006 1.379 1_554 S
C2020 C2019 1.341 1_455 S
C2021 C2005 1.379 1_554 S
C2021 C2019 1.418 . S
C2021 C2022 1.524 1_554 S
C2022 C2021 1.524 1_556 S
C2022 C2023 1.373 1_556 S
C2022 C2027 1.389 . S
C2023 H1994 0.950 . S
C2023 C2022 1.373 1_554 S
C2023 C2024 1.334 . S
C2024 H1995 0.950 . S
C2024 C2023 1.334 . S
C2024 C2025 1.293 1_554 S
C2025 C2024 1.293 1_556 S
C2025 C2026 1.518 . S
C2025 H2028 0.999 . S
C2026 H1996 0.950 . S
C2026 C2025 1.518 . S
C2026 C2027 1.415 . S
C2027 H1997 0.950 . S
C2027 C2022 1.389 . S
C2027 C2026 1.415 . S
H2028 C2025 0.999 . S
H2029 C2010 0.913 1_556 S
H2030 C2048 0.951 . S
H2031 C2050 0.951 . S
H2032 C2052 0.950 . S
H2033 C2053 0.950 . S
H2034 C2055 0.950 . S
H2035 C2058 0.950 . S
H2036 C2059 0.950 . S
H2037 C2061 0.950 . S
H2038 C2062 0.950 . S
H2039 C2063 0.951 . S
H2040 C2065 0.951 . S
H2041 C2067 0.950 . S
H2042 C2068 0.950 . S
H2043 C2070 0.950 . S
H2044 C2073 0.950 . S
H2045 C2074 0.950 . S
H2046 C2076 0.950 . S
H2047 C2077 0.950 . S
C2048 H2030 0.951 . S
C2048 C2049 1.366 . S
C2048 C2050 1.388 . S
C2049 C2048 1.366 . S
C2049 C2053 1.385 . S
C2050 H2031 0.951 . S
C2050 C2048 1.388 . S
C2050 C2051 1.366 . S
C2051 C2050 1.366 . S
C2051 C2052 1.414 . S
C2051 C2054 1.499 . S
C2052 H2032 0.950 . S
C2052 C2051 1.414 . S
C2052 C2053 1.374 . S
C2053 H2033 0.950 . S
C2053 C2049 1.385 . S
C2053 C2052 1.374 . S
C2054 C2051 1.499 . S
C2054 C2055 1.373 . S
C2054 C2056 1.389 . S
C2055 H2034 0.950 . S
C2055 C2054 1.373 . S
C2055 C2071 1.377 . S
C2056 C2054 1.389 . S
C2056 C2057 1.524 . S
C2056 C2070 1.377 . S
C2057 C2056 1.524 . S
C2057 C2058 1.397 . S
C2057 C2062 1.363 . S
C2058 H2035 0.950 . S
C2058 C2057 1.397 . S
C2058 C2059 1.334 . S
C2059 H2036 0.950 . S
C2059 C2058 1.334 . S
C2059 C2060 1.287 . S
C2060 C2059 1.287 . S
C2060 C2061 1.524 . S
C2060 H2079 0.913 . S
C2061 H2037 0.950 . S
C2061 C2060 1.524 . S
C2061 C2062 1.415 . S
C2062 H2038 0.950 . S
C2062 C2057 1.363 . S
C2062 C2061 1.415 . S
C2063 H2039 0.951 . S
C2063 C2064 1.366 . S
C2063 C2065 1.388 . S
C2064 C2063 1.366 . S
C2064 C2068 1.385 . S
C2065 H2040 0.951 . S
C2065 C2063 1.388 . S
C2065 C2066 1.366 . S
C2066 C2065 1.366 . S
C2066 C2067 1.414 . S
C2066 C2069 1.499 . S
C2067 H2041 0.950 . S
C2067 C2066 1.414 . S
C2067 C2068 1.374 . S
C2068 H2042 0.950 . S
C2068 C2064 1.385 . S
C2068 C2067 1.374 . S
C2069 C2066 1.499 . S
C2069 C2070 1.373 . S
C2069 C2071 1.389 . S
C2070 H2043 0.950 . S
C2070 C2056 1.377 . S
C2070 C2069 1.373 . S
C2071 C2055 1.377 . S
C2071 C2069 1.389 . S
C2071 C2072 1.524 . S
C2072 C2071 1.524 . S
C2072 C2073 1.397 . S
C2072 C2077 1.363 . S
C2073 H2044 0.950 . S
C2073 C2072 1.397 . S
C2073 C2074 1.334 . S
C2074 H2045 0.950 . S
C2074 C2073 1.334 . S
C2074 C2075 1.287 . S
C2075 C2074 1.287 . S
C2075 C2076 1.524 . S
C2075 H2078 0.999 . S
C2076 H2046 0.950 . S
C2076 C2075 1.524 . S
C2076 C2077 1.415 . S
C2077 H2047 0.950 . S
C2077 C2072 1.363 . S
C2077 C2076 1.415 . S
H2078 C2075 0.999 . S
H2079 C2060 0.913 . S
H2080 C2098 0.951 . S
H2081 C2100 0.951 . S
H2082 C2102 0.950 . S
H2083 C2103 0.950 . S
H2084 C2105 0.950 . S
H2085 C2108 0.950 . S
H2086 C2109 0.950 . S
H2087 C2111 0.950 . S
H2088 C2112 0.950 . S
H2089 C2113 0.951 . S
H2090 C2115 0.951 . S
H2091 C2117 0.950 . S
H2092 C2118 0.950 . S
H2093 C2120 0.950 . S
H2094 C2123 0.950 . S
H2095 C2124 0.950 . S
H2096 C2126 0.950 . S
H2097 C2127 0.950 . S
C2098 H2080 0.951 . S
C2098 C2099 1.366 . S
C2098 C2100 1.388 . S
C2099 C2098 1.366 . S
C2099 C2103 1.385 . S
C2100 H2081 0.951 . S
C2100 C2098 1.388 . S
C2100 C2101 1.366 . S
C2101 C2100 1.366 . S
C2101 C2102 1.414 . S
C2101 C2104 1.499 . S
C2102 H2082 0.950 . S
C2102 C2101 1.414 . S
C2102 C2103 1.374 . S
C2103 H2083 0.950 . S
C2103 C2099 1.385 . S
C2103 C2102 1.374 . S
C2104 C2101 1.499 . S
C2104 C2105 1.373 . S
C2104 C2106 1.389 . S
C2105 H2084 0.950 . S
C2105 C2104 1.373 . S
C2105 C2121 1.377 . S
C2106 C2104 1.389 . S
C2106 C2107 1.524 . S
C2106 C2120 1.377 . S
C2107 C2106 1.524 . S
C2107 C2108 1.397 . S
C2107 C2112 1.363 . S
C2108 H2085 0.950 . S
C2108 C2107 1.397 . S
C2108 C2109 1.334 . S
C2109 H2086 0.950 . S
C2109 C2108 1.334 . S
C2109 C2110 1.287 . S
C2110 C2109 1.287 . S
C2110 C2111 1.524 . S
C2110 H2129 0.913 . S
C2111 H2087 0.950 . S
C2111 C2110 1.524 . S
C2111 C2112 1.415 . S
C2112 H2088 0.950 . S
C2112 C2107 1.363 . S
C2112 C2111 1.415 . S
C2113 H2089 0.951 . S
C2113 C2114 1.366 . S
C2113 C2115 1.388 . S
C2114 C2113 1.366 . S
C2114 C2118 1.385 . S
C2115 H2090 0.951 . S
C2115 C2113 1.388 . S
C2115 C2116 1.366 . S
C2116 C2115 1.366 . S
C2116 C2117 1.414 . S
C2116 C2119 1.499 . S
C2117 H2091 0.950 . S
C2117 C2116 1.414 . S
C2117 C2118 1.374 . S
C2118 H2092 0.950 . S
C2118 C2114 1.385 . S
C2118 C2117 1.374 . S
C2119 C2116 1.499 . S
C2119 C2120 1.373 . S
C2119 C2121 1.389 . S
C2120 H2093 0.950 . S
C2120 C2106 1.377 . S
C2120 C2119 1.373 . S
C2121 C2105 1.377 . S
C2121 C2119 1.389 . S
C2121 C2122 1.524 . S
C2122 C2121 1.524 . S
C2122 C2123 1.397 . S
C2122 C2127 1.363 . S
C2123 H2094 0.950 . S
C2123 C2122 1.397 . S
C2123 C2124 1.334 . S
C2124 H2095 0.950 . S
C2124 C2123 1.334 . S
C2124 C2125 1.287 . S
C2125 C2124 1.287 . S
C2125 C2126 1.524 . S
C2125 H2128 0.999 . S
C2126 H2096 0.950 . S
C2126 C2125 1.524 . S
C2126 C2127 1.415 . S
C2127 H2097 0.950 . S
C2127 C2122 1.363 . S
C2127 C2126 1.415 . S
H2128 C2125 0.999 . S
H2129 C2110 0.913 . S
H2130 C2148 0.951 . S
H2131 C2150 0.951 . S
H2132 C2152 0.950 . S
H2133 C2153 0.950 . S
H2134 C2155 0.950 . S
H2135 C2158 0.950 . S
H2136 C2159 0.950 . S
H2137 C2161 0.950 . S
H2138 C2162 0.950 . S
H2139 C2163 0.951 . S
H2140 C2165 0.951 . S
H2141 C2167 0.950 . S
H2142 C2168 0.950 . S
H2143 C2170 0.950 . S
H2144 C2173 0.950 . S
H2145 C2174 0.950 . S
H2146 C2176 0.950 . S
H2147 C2177 0.950 . S
C2148 H2130 0.951 . S
C2148 C2149 1.366 . S
C2148 C2150 1.388 . S
C2149 C2148 1.366 . S
C2149 C2153 1.385 . S
C2150 H2131 0.951 . S
C2150 C2148 1.388 . S
C2150 C2151 1.366 . S
C2151 C2150 1.366 . S
C2151 C2152 1.414 . S
C2151 C2154 1.499 . S
C2152 H2132 0.950 . S
C2152 C2151 1.414 . S
C2152 C2153 1.374 . S
C2153 H2133 0.950 . S
C2153 C2149 1.385 . S
C2153 C2152 1.374 . S
C2154 C2151 1.499 . S
C2154 C2155 1.373 . S
C2154 C2156 1.389 . S
C2155 H2134 0.950 . S
C2155 C2154 1.373 . S
C2155 C2171 1.377 . S
C2156 C2154 1.389 . S
C2156 C2157 1.524 . S
C2156 C2170 1.377 . S
C2157 C2156 1.524 . S
C2157 C2158 1.397 . S
C2157 C2162 1.363 . S
C2158 H2135 0.950 . S
C2158 C2157 1.397 . S
C2158 C2159 1.334 . S
C2159 H2136 0.950 . S
C2159 C2158 1.334 . S
C2159 C2160 1.287 . S
C2160 C2159 1.287 . S
C2160 C2161 1.524 . S
C2160 H2179 0.913 . S
C2161 H2137 0.950 . S
C2161 C2160 1.524 . S
C2161 C2162 1.415 . S
C2162 H2138 0.950 . S
C2162 C2157 1.363 . S
C2162 C2161 1.415 . S
C2163 H2139 0.951 . S
C2163 C2164 1.366 . S
C2163 C2165 1.388 . S
C2164 C2163 1.366 . S
C2164 C2168 1.385 . S
C2165 H2140 0.951 . S
C2165 C2163 1.388 . S
C2165 C2166 1.366 . S
C2166 C2165 1.366 . S
C2166 C2167 1.414 . S
C2166 C2169 1.499 . S
C2167 H2141 0.950 . S
C2167 C2166 1.414 . S
C2167 C2168 1.374 . S
C2168 H2142 0.950 . S
C2168 C2164 1.385 . S
C2168 C2167 1.374 . S
C2169 C2166 1.499 . S
C2169 C2170 1.373 . S
C2169 C2171 1.389 . S
C2170 H2143 0.950 . S
C2170 C2156 1.377 . S
C2170 C2169 1.373 . S
C2171 C2155 1.377 . S
C2171 C2169 1.389 . S
C2171 C2172 1.524 . S
C2172 C2171 1.524 . S
C2172 C2173 1.397 . S
C2172 C2177 1.363 . S
C2173 H2144 0.950 . S
C2173 C2172 1.397 . S
C2173 C2174 1.334 . S
C2174 H2145 0.950 . S
C2174 C2173 1.334 . S
C2174 C2175 1.287 . S
C2175 C2174 1.287 . S
C2175 C2176 1.524 . S
C2175 H2178 0.999 . S
C2176 H2146 0.950 . S
C2176 C2175 1.524 . S
C2176 C2177 1.415 . S
C2177 H2147 0.950 . S
C2177 C2172 1.363 . S
C2177 C2176 1.415 . S
H2178 C2175 0.999 . S
H2179 C2160 0.913 . S
H2180 C2198 0.951 . S
H2181 C2200 0.951 . S
H2182 C2202 0.950 . S
H2183 C2203 0.950 . S
H2184 C2205 0.950 . S
H2185 C2208 0.950 . S
H2186 C2209 0.950 . S
H2187 C2211 0.950 . S
H2188 C2212 0.950 . S
H2189 C2213 0.951 . S
H2190 C2215 0.951 . S
H2191 C2217 0.950 . S
H2192 C2218 0.950 . S
H2193 C2220 0.950 . S
H2194 C2223 0.950 . S
H2195 C2224 0.950 . S
H2196 C2226 0.950 . S
H2197 C2227 0.950 . S
C2198 H2180 0.951 . S
C2198 C2199 1.366 . S
C2198 C2200 1.388 . S
C2199 C2198 1.366 . S
C2199 C2203 1.385 . S
C2200 H2181 0.951 . S
C2200 C2198 1.388 . S
C2200 C2201 1.366 . S
C2201 C2200 1.366 . S
C2201 C2202 1.414 . S
C2201 C2204 1.499 . S
C2202 H2182 0.950 . S
C2202 C2201 1.414 . S
C2202 C2203 1.374 . S
C2203 H2183 0.950 . S
C2203 C2199 1.385 . S
C2203 C2202 1.374 . S
C2204 C2201 1.499 . S
C2204 C2205 1.373 . S
C2204 C2206 1.389 . S
C2205 H2184 0.950 . S
C2205 C2204 1.373 . S
C2205 C2221 1.377 . S
C2206 C2204 1.389 . S
C2206 C2207 1.524 . S
C2206 C2220 1.377 . S
C2207 C2206 1.524 . S
C2207 C2208 1.397 . S
C2207 C2212 1.363 . S
C2208 H2185 0.950 . S
C2208 C2207 1.397 . S
C2208 C2209 1.334 . S
C2209 H2186 0.950 . S
C2209 C2208 1.334 . S
C2209 C2210 1.287 . S
C2210 C2209 1.287 . S
C2210 C2211 1.524 . S
C2210 H2229 0.913 . S
C2211 H2187 0.950 . S
C2211 C2210 1.524 . S
C2211 C2212 1.415 . S
C2212 H2188 0.950 . S
C2212 C2207 1.363 . S
C2212 C2211 1.415 . S
C2213 H2189 0.951 . S
C2213 C2214 1.366 . S
C2213 C2215 1.388 . S
C2214 C2213 1.366 . S
C2214 C2218 1.385 . S
C2215 H2190 0.951 . S
C2215 C2213 1.388 . S
C2215 C2216 1.366 . S
C2216 C2215 1.366 . S
C2216 C2217 1.414 . S
C2216 C2219 1.499 . S
C2217 H2191 0.950 . S
C2217 C2216 1.414 . S
C2217 C2218 1.374 . S
C2218 H2192 0.950 . S
C2218 C2214 1.385 . S
C2218 C2217 1.374 . S
C2219 C2216 1.499 . S
C2219 C2220 1.373 . S
C2219 C2221 1.389 . S
C2220 H2193 0.950 . S
C2220 C2206 1.377 . S
C2220 C2219 1.373 . S
C2221 C2205 1.377 . S
C2221 C2219 1.389 . S
C2221 C2222 1.524 . S
C2222 C2221 1.524 . S
C2222 C2223 1.397 . S
C2222 C2227 1.363 . S
C2223 H2194 0.950 . S
C2223 C2222 1.397 . S
C2223 C2224 1.334 . S
C2224 H2195 0.950 . S
C2224 C2223 1.334 . S
C2224 C2225 1.287 . S
C2225 C2224 1.287 . S
C2225 C2226 1.524 . S
C2225 H2228 0.999 . S
C2226 H2196 0.950 . S
C2226 C2225 1.524 . S
C2226 C2227 1.415 . S
C2227 H2197 0.950 . S
C2227 C2222 1.363 . S
C2227 C2226 1.415 . S
H2228 C2225 0.999 . S
H2229 C2210 0.913 . S
H2230 C2248 0.951 . S
H2231 C2250 0.951 . S
H2232 C2252 0.950 . S
H2233 C2253 0.950 . S
H2234 C2255 0.950 . S
H2235 C2258 0.950 . S
H2236 C2259 0.950 . S
H2237 C2261 0.950 . S
H2238 C2262 0.950 . S
H2239 C2263 0.951 . S
H2240 C2265 0.951 . S
H2241 C2267 0.950 . S
H2242 C2268 0.950 . S
H2243 C2270 0.950 . S
H2244 C2273 0.950 . S
H2245 C2274 0.950 . S
H2246 C2276 0.950 . S
H2247 C2277 0.950 . S
C2248 H2230 0.951 . S
C2248 C2249 1.366 . S
C2248 C2250 1.388 . S
C2249 C2248 1.366 . S
C2249 C2253 1.385 . S
C2250 H2231 0.951 . S
C2250 C2248 1.388 . S
C2250 C2251 1.366 . S
C2251 C2250 1.366 . S
C2251 C2252 1.414 . S
C2251 C2254 1.499 . S
C2252 H2232 0.950 . S
C2252 C2251 1.414 . S
C2252 C2253 1.374 . S
C2253 H2233 0.950 . S
C2253 C2249 1.385 . S
C2253 C2252 1.374 . S
C2254 C2251 1.499 . S
C2254 C2255 1.373 . S
C2254 C2256 1.389 . S
C2255 H2234 0.950 . S
C2255 C2254 1.373 . S
C2255 C2271 1.377 . S
C2256 C2254 1.389 . S
C2256 C2257 1.524 . S
C2256 C2270 1.377 . S
C2257 C2256 1.524 . S
C2257 C2258 1.397 . S
C2257 C2262 1.363 . S
C2258 H2235 0.950 . S
C2258 C2257 1.397 . S
C2258 C2259 1.334 . S
C2259 H2236 0.950 . S
C2259 C2258 1.334 . S
C2259 C2260 1.287 . S
C2260 C2259 1.287 . S
C2260 C2261 1.524 . S
C2260 H2279 0.913 . S
C2261 H2237 0.950 . S
C2261 C2260 1.524 . S
C2261 C2262 1.415 . S
C2262 H2238 0.950 . S
C2262 C2257 1.363 . S
C2262 C2261 1.415 . S
C2263 H2239 0.951 . S
C2263 C2264 1.366 . S
C2263 C2265 1.388 . S
C2264 C2263 1.366 . S
C2264 C2268 1.385 . S
C2265 H2240 0.951 . S
C2265 C2263 1.388 . S
C2265 C2266 1.366 . S
C2266 C2265 1.366 . S
C2266 C2267 1.414 . S
C2266 C2269 1.499 . S
C2267 H2241 0.950 . S
C2267 C2266 1.414 . S
C2267 C2268 1.374 . S
C2268 H2242 0.950 . S
C2268 C2264 1.385 . S
C2268 C2267 1.374 . S
C2269 C2266 1.499 . S
C2269 C2270 1.373 . S
C2269 C2271 1.389 . S
C2270 H2243 0.950 . S
C2270 C2256 1.377 . S
C2270 C2269 1.373 . S
C2271 C2255 1.377 . S
C2271 C2269 1.389 . S
C2271 C2272 1.524 . S
C2272 C2271 1.524 . S
C2272 C2273 1.397 . S
C2272 C2277 1.363 . S
C2273 H2244 0.950 . S
C2273 C2272 1.397 . S
C2273 C2274 1.334 . S
C2274 H2245 0.950 . S
C2274 C2273 1.334 . S
C2274 C2275 1.287 . S
C2275 C2274 1.287 . S
C2275 C2276 1.524 . S
C2275 H2278 0.999 . S
C2276 H2246 0.950 . S
C2276 C2275 1.524 . S
C2276 C2277 1.415 . S
C2277 H2247 0.950 . S
C2277 C2272 1.363 . S
C2277 C2276 1.415 . S
H2278 C2275 0.999 . S
H2279 C2260 0.913 . S
H2280 C2298 0.951 . S
H2281 C2300 0.951 . S
H2282 C2302 0.950 . S
H2283 C2303 0.950 . S
H2284 C2305 0.950 . S
H2285 C2308 0.950 . S
H2286 C2309 0.950 . S
H2287 C2311 0.950 . S
H2288 C2312 0.950 . S
H2289 C2313 0.951 . S
H2290 C2315 0.951 . S
H2291 C2317 0.950 . S
H2292 C2318 0.950 . S
H2293 C2320 0.950 . S
H2294 C2323 0.950 . S
H2295 C2324 0.950 . S
H2296 C2326 0.950 . S
H2297 C2327 0.950 . S
C2298 H2280 0.951 . S
C2298 C2299 1.366 . S
C2298 C2300 1.388 . S
C2299 C2298 1.366 . S
C2299 C2303 1.385 . S
C2300 H2281 0.951 . S
C2300 C2298 1.388 . S
C2300 C2301 1.366 . S
C2301 C2300 1.366 . S
C2301 C2302 1.414 . S
C2301 C2304 1.499 . S
C2302 H2282 0.950 . S
C2302 C2301 1.414 . S
C2302 C2303 1.374 . S
C2303 H2283 0.950 . S
C2303 C2299 1.385 . S
C2303 C2302 1.374 . S
C2304 C2301 1.499 . S
C2304 C2305 1.373 . S
C2304 C2306 1.389 . S
C2305 H2284 0.950 . S
C2305 C2304 1.373 . S
C2305 C2321 1.377 . S
C2306 C2304 1.389 . S
C2306 C2307 1.524 . S
C2306 C2320 1.377 . S
C2307 C2306 1.524 . S
C2307 C2308 1.397 . S
C2307 C2312 1.363 . S
C2308 H2285 0.950 . S
C2308 C2307 1.397 . S
C2308 C2309 1.334 . S
C2309 H2286 0.950 . S
C2309 C2308 1.334 . S
C2309 C2310 1.287 . S
C2310 C2309 1.287 . S
C2310 C2311 1.524 . S
C2310 H2329 0.913 . S
C2311 H2287 0.950 . S
C2311 C2310 1.524 . S
C2311 C2312 1.415 . S
C2312 H2288 0.950 . S
C2312 C2307 1.363 . S
C2312 C2311 1.415 . S
C2313 H2289 0.951 . S
C2313 C2314 1.366 . S
C2313 C2315 1.388 . S
C2314 C2313 1.366 . S
C2314 C2318 1.385 . S
C2315 H2290 0.951 . S
C2315 C2313 1.388 . S
C2315 C2316 1.366 . S
C2316 C2315 1.366 . S
C2316 C2317 1.414 . S
C2316 C2319 1.499 . S
C2317 H2291 0.950 . S
C2317 C2316 1.414 . S
C2317 C2318 1.374 . S
C2318 H2292 0.950 . S
C2318 C2314 1.385 . S
C2318 C2317 1.374 . S
C2319 C2316 1.499 . S
C2319 C2320 1.373 . S
C2319 C2321 1.389 . S
C2320 H2293 0.950 . S
C2320 C2306 1.377 . S
C2320 C2319 1.373 . S
C2321 C2305 1.377 . S
C2321 C2319 1.389 . S
C2321 C2322 1.524 . S
C2322 C2321 1.524 . S
C2322 C2323 1.397 . S
C2322 C2327 1.363 . S
C2323 H2294 0.950 . S
C2323 C2322 1.397 . S
C2323 C2324 1.334 . S
C2324 H2295 0.950 . S
C2324 C2323 1.334 . S
C2324 C2325 1.287 . S
C2325 C2324 1.287 . S
C2325 C2326 1.524 . S
C2325 H2328 0.999 . S
C2326 H2296 0.950 . S
C2326 C2325 1.524 . S
C2326 C2327 1.415 . S
C2327 H2297 0.950 . S
C2327 C2322 1.363 . S
C2327 C2326 1.415 . S
H2328 C2325 0.999 . S
H2329 C2310 0.913 . S
H2330 C2348 0.951 . S
H2331 C2350 0.951 . S
H2332 C2352 0.950 . S
H2333 C2353 0.950 . S
H2334 C2355 0.950 . S
H2335 C2358 0.950 . S
H2336 C2359 0.950 . S
H2337 C2361 0.950 . S
H2338 C2362 0.950 . S
H2339 C2363 0.951 . S
H2340 C2365 0.951 . S
H2341 C2367 0.950 . S
H2342 C2368 0.950 . S
H2343 C2370 0.950 . S
H2344 C2373 0.950 . S
H2345 C2374 0.950 . S
H2346 C2376 0.950 . S
H2347 C2377 0.950 . S
C2348 H2330 0.951 . S
C2348 C2349 1.366 . S
C2348 C2350 1.388 . S
C2349 C2348 1.366 . S
C2349 C2353 1.385 . S
C2350 H2331 0.951 . S
C2350 C2348 1.388 . S
C2350 C2351 1.366 . S
C2351 C2350 1.366 . S
C2351 C2352 1.414 . S
C2351 C2354 1.499 . S
C2352 H2332 0.950 . S
C2352 C2351 1.414 . S
C2352 C2353 1.374 . S
C2353 H2333 0.950 . S
C2353 C2349 1.385 . S
C2353 C2352 1.374 . S
C2354 C2351 1.499 . S
C2354 C2355 1.373 . S
C2354 C2356 1.389 . S
C2355 H2334 0.950 . S
C2355 C2354 1.373 . S
C2355 C2371 1.377 . S
C2356 C2354 1.389 . S
C2356 C2357 1.524 . S
C2356 C2370 1.377 . S
C2357 C2356 1.524 . S
C2357 C2358 1.397 . S
C2357 C2362 1.363 . S
C2358 H2335 0.950 . S
C2358 C2357 1.397 . S
C2358 C2359 1.334 . S
C2359 H2336 0.950 . S
C2359 C2358 1.334 . S
C2359 C2360 1.287 . S
C2360 C2359 1.287 . S
C2360 C2361 1.524 . S
C2360 H2379 0.913 . S
C2361 H2337 0.950 . S
C2361 C2360 1.524 . S
C2361 C2362 1.415 . S
C2362 H2338 0.950 . S
C2362 C2357 1.363 . S
C2362 C2361 1.415 . S
C2363 H2339 0.951 . S
C2363 C2364 1.366 . S
C2363 C2365 1.388 . S
C2364 C2363 1.366 . S
C2364 C2368 1.385 . S
C2365 H2340 0.951 . S
C2365 C2363 1.388 . S
C2365 C2366 1.366 . S
C2366 C2365 1.366 . S
C2366 C2367 1.414 . S
C2366 C2369 1.499 . S
C2367 H2341 0.950 . S
C2367 C2366 1.414 . S
C2367 C2368 1.374 . S
C2368 H2342 0.950 . S
C2368 C2364 1.385 . S
C2368 C2367 1.374 . S
C2369 C2366 1.499 . S
C2369 C2370 1.373 . S
C2369 C2371 1.389 . S
C2370 H2343 0.950 . S
C2370 C2356 1.377 . S
C2370 C2369 1.373 . S
C2371 C2355 1.377 . S
C2371 C2369 1.389 . S
C2371 C2372 1.524 . S
C2372 C2371 1.524 . S
C2372 C2373 1.397 . S
C2372 C2377 1.363 . S
C2373 H2344 0.950 . S
C2373 C2372 1.397 . S
C2373 C2374 1.334 . S
C2374 H2345 0.950 . S
C2374 C2373 1.334 . S
C2374 C2375 1.287 . S
C2375 C2374 1.287 . S
C2375 C2376 1.524 . S
C2375 H2378 0.999 . S
C2376 H2346 0.950 . S
C2376 C2375 1.524 . S
C2376 C2377 1.415 . S
C2377 H2347 0.950 . S
C2377 C2372 1.363 . S
C2377 C2376 1.415 . S
H2378 C2375 0.999 . S
H2379 C2360 0.913 . S
H2380 C2398 0.951 . S
H2381 C2400 0.951 . S
H2382 C2402 0.950 . S
H2383 C2403 0.950 . S
H2384 C2405 0.950 . S
H2385 C2408 0.950 . S
H2386 C2409 0.950 . S
H2387 C2411 0.950 . S
H2388 C2412 0.950 . S
H2389 C2413 0.951 . S
H2390 C2415 0.951 . S
H2391 C2417 0.950 . S
H2392 C2418 0.950 . S
H2393 C2420 0.950 . S
H2394 C2423 0.950 . S
H2395 C2424 0.950 . S
H2396 C2426 0.950 . S
H2397 C2427 0.950 . S
C2398 H2380 0.951 . S
C2398 C2399 1.366 . S
C2398 C2400 1.388 . S
C2399 C2398 1.366 . S
C2399 C2403 1.385 . S
C2400 H2381 0.951 . S
C2400 C2398 1.388 . S
C2400 C2401 1.366 . S
C2401 C2400 1.366 . S
C2401 C2402 1.414 . S
C2401 C2404 1.499 . S
C2402 H2382 0.950 . S
C2402 C2401 1.414 . S
C2402 C2403 1.374 . S
C2403 H2383 0.950 . S
C2403 C2399 1.385 . S
C2403 C2402 1.374 . S
C2404 C2401 1.499 . S
C2404 C2405 1.373 . S
C2404 C2406 1.389 . S
C2405 H2384 0.950 . S
C2405 C2404 1.373 . S
C2405 C2421 1.377 . S
C2406 C2404 1.389 . S
C2406 C2407 1.524 . S
C2406 C2420 1.377 . S
C2407 C2406 1.524 . S
C2407 C2408 1.397 . S
C2407 C2412 1.363 . S
C2408 H2385 0.950 . S
C2408 C2407 1.397 . S
C2408 C2409 1.334 . S
C2409 H2386 0.950 . S
C2409 C2408 1.334 . S
C2409 C2410 1.287 . S
C2410 C2409 1.287 . S
C2410 C2411 1.524 . S
C2410 H2429 0.913 . S
C2411 H2387 0.950 . S
C2411 C2410 1.524 . S
C2411 C2412 1.415 . S
C2412 H2388 0.950 . S
C2412 C2407 1.363 . S
C2412 C2411 1.415 . S
C2413 H2389 0.951 . S
C2413 C2414 1.366 . S
C2413 C2415 1.388 . S
C2414 C2413 1.366 . S
C2414 C2418 1.385 . S
C2415 H2390 0.951 . S
C2415 C2413 1.388 . S
C2415 C2416 1.366 . S
C2416 C2415 1.366 . S
C2416 C2417 1.414 . S
C2416 C2419 1.499 . S
C2417 H2391 0.950 . S
C2417 C2416 1.414 . S
C2417 C2418 1.374 . S
C2418 H2392 0.950 . S
C2418 C2414 1.385 . S
C2418 C2417 1.374 . S
C2419 C2416 1.499 . S
C2419 C2420 1.373 . S
C2419 C2421 1.389 . S
C2420 H2393 0.950 . S
C2420 C2406 1.377 . S
C2420 C2419 1.373 . S
C2421 C2405 1.377 . S
C2421 C2419 1.389 . S
C2421 C2422 1.524 . S
C2422 C2421 1.524 . S
C2422 C2423 1.397 . S
C2422 C2427 1.363 . S
C2423 H2394 0.950 . S
C2423 C2422 1.397 . S
C2423 C2424 1.334 . S
C2424 H2395 0.950 . S
C2424 C2423 1.334 . S
C2424 C2425 1.287 . S
C2425 C2424 1.287 . S
C2425 C2426 1.524 . S
C2425 H2428 0.999 . S
C2426 H2396 0.950 . S
C2426 C2425 1.524 . S
C2426 C2427 1.415 . S
C2427 H2397 0.950 . S
C2427 C2422 1.363 . S
C2427 C2426 1.415 . S
H2428 C2425 0.999 . S
H2429 C2410 0.913 . S
H2430 C2448 0.951 . S
H2431 C2450 0.951 . S
H2432 C2452 0.950 . S
H2433 C2453 0.950 . S
H2434 C2455 0.950 . S
H2435 C2458 0.950 . S
H2436 C2459 0.950 . S
H2437 C2461 0.950 . S
H2438 C2462 0.950 . S
H2439 C2463 0.951 . S
H2440 C2465 0.951 . S
H2441 C2467 0.950 . S
H2442 C2468 0.950 . S
H2443 C2470 0.950 . S
H2444 C2473 0.950 . S
H2445 C2474 0.950 . S
H2446 C2476 0.950 . S
H2447 C2477 0.950 . S
C2448 H2430 0.951 . S
C2448 C2449 1.366 . S
C2448 C2450 1.388 . S
C2449 C2448 1.366 . S
C2449 C2453 1.385 . S
C2450 H2431 0.951 . S
C2450 C2448 1.388 . S
C2450 C2451 1.366 . S
C2451 C2450 1.366 . S
C2451 C2452 1.414 . S
C2451 C2454 1.499 . S
C2452 H2432 0.950 . S
C2452 C2451 1.414 . S
C2452 C2453 1.374 . S
C2453 H2433 0.950 . S
C2453 C2449 1.385 . S
C2453 C2452 1.374 . S
C2454 C2451 1.499 . S
C2454 C2455 1.373 . S
C2454 C2456 1.389 . S
C2455 H2434 0.950 . S
C2455 C2454 1.373 . S
C2455 C2471 1.377 . S
C2456 C2454 1.389 . S
C2456 C2457 1.524 . S
C2456 C2470 1.377 . S
C2457 C2456 1.524 . S
C2457 C2458 1.397 . S
C2457 C2462 1.363 . S
C2458 H2435 0.950 . S
C2458 C2457 1.397 . S
C2458 C2459 1.334 . S
C2459 H2436 0.950 . S
C2459 C2458 1.334 . S
C2459 C2460 1.287 . S
C2460 C2459 1.287 . S
C2460 C2461 1.524 . S
C2460 H2479 0.913 . S
C2461 H2437 0.950 . S
C2461 C2460 1.524 . S
C2461 C2462 1.415 . S
C2462 H2438 0.950 . S
C2462 C2457 1.363 . S
C2462 C2461 1.415 . S
C2463 H2439 0.951 . S
C2463 C2464 1.366 . S
C2463 C2465 1.388 . S
C2464 C2463 1.366 . S
C2464 C2468 1.385 . S
C2465 H2440 0.951 . S
C2465 C2463 1.388 . S
C2465 C2466 1.366 . S
C2466 C2465 1.366 . S
C2466 C2467 1.414 . S
C2466 C2469 1.499 . S
C2467 H2441 0.950 . S
C2467 C2466 1.414 . S
C2467 C2468 1.374 . S
C2468 H2442 0.950 . S
C2468 C2464 1.385 . S
C2468 C2467 1.374 . S
C2469 C2466 1.499 . S
C2469 C2470 1.373 . S
C2469 C2471 1.389 . S
C2470 H2443 0.950 . S
C2470 C2456 1.377 . S
C2470 C2469 1.373 . S
C2471 C2455 1.377 . S
C2471 C2469 1.389 . S
C2471 C2472 1.524 . S
C2472 C2471 1.524 . S
C2472 C2473 1.397 . S
C2472 C2477 1.363 . S
C2473 H2444 0.950 . S
C2473 C2472 1.397 . S
C2473 C2474 1.334 . S
C2474 H2445 0.950 . S
C2474 C2473 1.334 . S
C2474 C2475 1.287 . S
C2475 C2474 1.287 . S
C2475 C2476 1.524 . S
C2475 H2478 0.999 . S
C2476 H2446 0.950 . S
C2476 C2475 1.524 . S
C2476 C2477 1.415 . S
C2477 H2447 0.950 . S
C2477 C2472 1.363 . S
C2477 C2476 1.415 . S
H2478 C2475 0.999 . S
H2479 C2460 0.913 . S
H2480 C2498 0.951 . S
H2481 C2500 0.951 . S
H2482 C2502 0.950 . S
H2483 C2503 0.950 . S
H2484 C2505 0.950 . S
H2485 C2508 0.950 . S
H2486 C2509 0.950 . S
H2487 C2511 0.950 . S
H2488 C2512 0.950 . S
H2489 C2513 0.951 . S
H2490 C2515 0.951 . S
H2491 C2517 0.950 . S
H2492 C2518 0.950 . S
H2493 C2520 0.950 . S
H2494 C2523 0.950 . S
H2495 C2524 0.950 . S
H2496 C2526 0.950 . S
H2497 C2527 0.950 . S
C2498 H2480 0.951 . S
C2498 C2499 1.366 . S
C2498 C2500 1.388 . S
C2499 C2498 1.366 . S
C2499 C2503 1.385 . S
C2500 H2481 0.951 . S
C2500 C2498 1.388 . S
C2500 C2501 1.366 . S
C2501 C2500 1.366 . S
C2501 C2502 1.414 . S
C2501 C2504 1.499 . S
C2502 H2482 0.950 . S
C2502 C2501 1.414 . S
C2502 C2503 1.374 . S
C2503 H2483 0.950 . S
C2503 C2499 1.385 . S
C2503 C2502 1.374 . S
C2504 C2501 1.499 . S
C2504 C2505 1.373 . S
C2504 C2506 1.389 . S
C2505 H2484 0.950 . S
C2505 C2504 1.373 . S
C2505 C2521 1.377 . S
C2506 C2504 1.389 . S
C2506 C2507 1.524 . S
C2506 C2520 1.377 . S
C2507 C2506 1.524 . S
C2507 C2508 1.397 . S
C2507 C2512 1.363 . S
C2508 H2485 0.950 . S
C2508 C2507 1.397 . S
C2508 C2509 1.334 . S
C2509 H2486 0.950 . S
C2509 C2508 1.334 . S
C2509 C2510 1.287 . S
C2510 C2509 1.287 . S
C2510 C2511 1.524 . S
C2510 H2529 0.913 . S
C2511 H2487 0.950 . S
C2511 C2510 1.524 . S
C2511 C2512 1.415 . S
C2512 H2488 0.950 . S
C2512 C2507 1.363 . S
C2512 C2511 1.415 . S
C2513 H2489 0.951 . S
C2513 C2514 1.366 . S
C2513 C2515 1.388 . S
C2514 C2513 1.366 . S
C2514 C2518 1.385 . S
C2515 H2490 0.951 . S
C2515 C2513 1.388 . S
C2515 C2516 1.366 . S
C2516 C2515 1.366 . S
C2516 C2517 1.414 . S
C2516 C2519 1.499 . S
C2517 H2491 0.950 . S
C2517 C2516 1.414 . S
C2517 C2518 1.374 . S
C2518 H2492 0.950 . S
C2518 C2514 1.385 . S
C2518 C2517 1.374 . S
C2519 C2516 1.499 . S
C2519 C2520 1.373 . S
C2519 C2521 1.389 . S
C2520 H2493 0.950 . S
C2520 C2506 1.377 . S
C2520 C2519 1.373 . S
C2521 C2505 1.377 . S
C2521 C2519 1.389 . S
C2521 C2522 1.524 . S
C2522 C2521 1.524 . S
C2522 C2523 1.397 . S
C2522 C2527 1.363 . S
C2523 H2494 0.950 . S
C2523 C2522 1.397 . S
C2523 C2524 1.334 . S
C2524 H2495 0.950 . S
C2524 C2523 1.334 . S
C2524 C2525 1.287 . S
C2525 C2524 1.287 . S
C2525 C2526 1.524 . S
C2525 H2528 0.999 . S
C2526 H2496 0.950 . S
C2526 C2525 1.524 . S
C2526 C2527 1.415 . S
C2527 H2497 0.950 . S
C2527 C2522 1.363 . S
C2527 C2526 1.415 . S
H2528 C2525 0.999 . S
H2529 C2510 0.913 . S
H2530 C2548 0.951 . S
H2531 C2550 0.951 . S
H2532 C2552 0.950 . S
H2533 C2553 0.950 . S
H2534 C2555 0.950 . S
H2535 C2558 0.950 . S
H2536 C2559 0.950 . S
H2537 C2561 0.950 . S
H2538 C2562 0.950 . S
H2539 C2563 0.951 . S
H2540 C2565 0.951 . S
H2541 C2567 0.950 . S
H2542 C2568 0.950 . S
H2543 C2570 0.950 . S
H2544 C2573 0.950 . S
H2545 C2574 0.950 . S
H2546 C2576 0.950 . S
H2547 C2577 0.950 . S
C2548 H2530 0.951 . S
C2548 C2549 1.366 . S
C2548 C2550 1.388 . S
C2549 C2548 1.366 . S
C2549 C2553 1.385 . S
C2550 H2531 0.951 . S
C2550 C2548 1.388 . S
C2550 C2551 1.366 . S
C2551 C2550 1.366 . S
C2551 C2552 1.414 . S
C2551 C2554 1.499 . S
C2552 H2532 0.950 . S
C2552 C2551 1.414 . S
C2552 C2553 1.374 . S
C2553 H2533 0.950 . S
C2553 C2549 1.385 . S
C2553 C2552 1.374 . S
C2554 C2551 1.499 . S
C2554 C2555 1.373 . S
C2554 C2556 1.389 . S
C2555 H2534 0.950 . S
C2555 C2554 1.373 . S
C2555 C2571 1.377 . S
C2556 C2554 1.389 . S
C2556 C2557 1.524 . S
C2556 C2570 1.377 . S
C2557 C2556 1.524 . S
C2557 C2558 1.397 . S
C2557 C2562 1.363 . S
C2558 H2535 0.950 . S
C2558 C2557 1.397 . S
C2558 C2559 1.334 . S
C2559 H2536 0.950 . S
C2559 C2558 1.334 . S
C2559 C2560 1.287 . S
C2560 C2559 1.287 . S
C2560 C2561 1.524 . S
C2560 H2579 0.913 . S
C2561 H2537 0.950 . S
C2561 C2560 1.524 . S
C2561 C2562 1.415 . S
C2562 H2538 0.950 . S
C2562 C2557 1.363 . S
C2562 C2561 1.415 . S
C2563 H2539 0.951 . S
C2563 C2564 1.366 . S
C2563 C2565 1.388 . S
C2564 C2563 1.366 . S
C2564 C2568 1.385 . S
C2565 H2540 0.951 . S
C2565 C2563 1.388 . S
C2565 C2566 1.366 . S
C2566 C2565 1.366 . S
C2566 C2567 1.414 . S
C2566 C2569 1.499 . S
C2567 H2541 0.950 . S
C2567 C2566 1.414 . S
C2567 C2568 1.374 . S
C2568 H2542 0.950 . S
C2568 C2564 1.385 . S
C2568 C2567 1.374 . S
C2569 C2566 1.499 . S
C2569 C2570 1.373 . S
C2569 C2571 1.389 . S
C2570 H2543 0.950 . S
C2570 C2556 1.377 . S
C2570 C2569 1.373 . S
C2571 C2555 1.377 . S
C2571 C2569 1.389 . S
C2571 C2572 1.524 . S
C2572 C2571 1.524 . S
C2572 C2573 1.397 . S
C2572 C2577 1.363 . S
C2573 H2544 0.950 . S
C2573 C2572 1.397 . S
C2573 C2574 1.334 . S
C2574 H2545 0.950 . S
C2574 C2573 1.334 . S
C2574 C2575 1.287 . S
C2575 C2574 1.287 . S
C2575 C2576 1.524 . S
C2575 H2578 0.999 . S
C2576 H2546 0.950 . S
C2576 C2575 1.524 . S
C2576 C2577 1.415 . S
C2577 H2547 0.950 . S
C2577 C2572 1.363 . S
C2577 C2576 1.415 . S
H2578 C2575 0.999 . S
H2579 C2560 0.913 . S
H2580 C2598 0.951 . S
H2581 C2600 0.951 . S
H2582 C2602 0.950 . S
H2583 C2603 0.950 . S
H2584 C2605 0.950 . S
H2585 C2608 0.950 . S
H2586 C2609 0.950 . S
H2587 C2611 0.950 . S
H2588 C2612 0.950 . S
H2589 C2613 0.951 . S
H2590 C2615 0.951 . S
H2591 C2617 0.950 . S
H2592 C2618 0.950 . S
H2593 C2620 0.950 . S
H2594 C2623 0.950 . S
H2595 C2624 0.950 . S
H2596 C2626 0.950 . S
H2597 C2627 0.950 . S
C2598 H2580 0.951 . S
C2598 C2599 1.366 . S
C2598 C2600 1.388 . S
C2599 C2598 1.366 . S
C2599 C2603 1.385 . S
C2600 H2581 0.951 . S
C2600 C2598 1.388 . S
C2600 C2601 1.366 . S
C2601 C2600 1.366 . S
C2601 C2602 1.414 . S
C2601 C2604 1.499 . S
C2602 H2582 0.950 . S
C2602 C2601 1.414 . S
C2602 C2603 1.374 . S
C2603 H2583 0.950 . S
C2603 C2599 1.385 . S
C2603 C2602 1.374 . S
C2604 C2601 1.499 . S
C2604 C2605 1.373 . S
C2604 C2606 1.389 . S
C2605 H2584 0.950 . S
C2605 C2604 1.373 . S
C2605 C2621 1.377 . S
C2606 C2604 1.389 . S
C2606 C2607 1.524 . S
C2606 C2620 1.377 . S
C2607 C2606 1.524 . S
C2607 C2608 1.397 . S
C2607 C2612 1.363 . S
C2608 H2585 0.950 . S
C2608 C2607 1.397 . S
C2608 C2609 1.334 . S
C2609 H2586 0.950 . S
C2609 C2608 1.334 . S
C2609 C2610 1.287 . S
C2610 C2609 1.287 . S
C2610 C2611 1.524 . S
C2610 H2629 0.913 . S
C2611 H2587 0.950 . S
C2611 C2610 1.524 . S
C2611 C2612 1.415 . S
C2612 H2588 0.950 . S
C2612 C2607 1.363 . S
C2612 C2611 1.415 . S
C2613 H2589 0.951 . S
C2613 C2614 1.366 . S
C2613 C2615 1.388 . S
C2614 C2613 1.366 . S
C2614 C2618 1.385 . S
C2615 H2590 0.951 . S
C2615 C2613 1.388 . S
C2615 C2616 1.366 . S
C2616 C2615 1.366 . S
C2616 C2617 1.414 . S
C2616 C2619 1.499 . S
C2617 H2591 0.950 . S
C2617 C2616 1.414 . S
C2617 C2618 1.374 . S
C2618 H2592 0.950 . S
C2618 C2614 1.385 . S
C2618 C2617 1.374 . S
C2619 C2616 1.499 . S
C2619 C2620 1.373 . S
C2619 C2621 1.389 . S
C2620 H2593 0.950 . S
C2620 C2606 1.377 . S
C2620 C2619 1.373 . S
C2621 C2605 1.377 . S
C2621 C2619 1.389 . S
C2621 C2622 1.524 . S
C2622 C2621 1.524 . S
C2622 C2623 1.397 . S
C2622 C2627 1.363 . S
C2623 H2594 0.950 . S
C2623 C2622 1.397 . S
C2623 C2624 1.334 . S
C2624 H2595 0.950 . S
C2624 C2623 1.334 . S
C2624 C2625 1.287 . S
C2625 C2624 1.287 . S
C2625 C2626 1.524 . S
C2625 H2628 0.999 . S
C2626 H2596 0.950 . S
C2626 C2625 1.524 . S
C2626 C2627 1.415 . S
C2627 H2597 0.950 . S
C2627 C2622 1.363 . S
C2627 C2626 1.415 . S
H2628 C2625 0.999 . S
H2629 C2610 0.913 . S
H2630 C2648 0.951 . S
H2631 C2650 0.951 . S
H2632 C2652 0.950 . S
H2633 C2653 0.950 . S
H2634 C2655 0.950 . S
H2635 C2658 0.950 . S
H2636 C2659 0.950 . S
H2637 C2661 0.950 . S
H2638 C2662 0.950 . S
H2639 C2663 0.951 . S
H2640 C2665 0.951 . S
H2641 C2667 0.950 . S
H2642 C2668 0.950 . S
H2643 C2670 0.950 . S
H2644 C2673 0.950 . S
H2645 C2674 0.950 . S
H2646 C2676 0.950 . S
H2647 C2677 0.950 . S
C2648 H2630 0.951 . S
C2648 C2649 1.366 . S
C2648 C2650 1.388 . S
C2649 C2648 1.366 . S
C2649 C2653 1.385 . S
C2650 H2631 0.951 . S
C2650 C2648 1.388 . S
C2650 C2651 1.366 . S
C2651 C2650 1.366 . S
C2651 C2652 1.414 . S
C2651 C2654 1.499 . S
C2652 H2632 0.950 . S
C2652 C2651 1.414 . S
C2652 C2653 1.374 . S
C2653 H2633 0.950 . S
C2653 C2649 1.385 . S
C2653 C2652 1.374 . S
C2654 C2651 1.499 . S
C2654 C2655 1.373 . S
C2654 C2656 1.389 . S
C2655 H2634 0.950 . S
C2655 C2654 1.373 . S
C2655 C2671 1.377 . S
C2656 C2654 1.389 . S
C2656 C2657 1.524 . S
C2656 C2670 1.377 . S
C2657 C2656 1.524 . S
C2657 C2658 1.397 . S
C2657 C2662 1.363 . S
C2658 H2635 0.950 . S
C2658 C2657 1.397 . S
C2658 C2659 1.334 . S
C2659 H2636 0.950 . S
C2659 C2658 1.334 . S
C2659 C2660 1.287 . S
C2660 C2659 1.287 . S
C2660 C2661 1.524 . S
C2660 H2679 0.913 . S
C2661 H2637 0.950 . S
C2661 C2660 1.524 . S
C2661 C2662 1.415 . S
C2662 H2638 0.950 . S
C2662 C2657 1.363 . S
C2662 C2661 1.415 . S
C2663 H2639 0.951 . S
C2663 C2664 1.366 . S
C2663 C2665 1.388 . S
C2664 C2663 1.366 . S
C2664 C2668 1.385 . S
C2665 H2640 0.951 . S
C2665 C2663 1.388 . S
C2665 C2666 1.366 . S
C2666 C2665 1.366 . S
C2666 C2667 1.414 . S
C2666 C2669 1.499 . S
C2667 H2641 0.950 . S
C2667 C2666 1.414 . S
C2667 C2668 1.374 . S
C2668 H2642 0.950 . S
C2668 C2664 1.385 . S
C2668 C2667 1.374 . S
C2669 C2666 1.499 . S
C2669 C2670 1.373 . S
C2669 C2671 1.389 . S
C2670 H2643 0.950 . S
C2670 C2656 1.377 . S
C2670 C2669 1.373 . S
C2671 C2655 1.377 . S
C2671 C2669 1.389 . S
C2671 C2672 1.524 . S
C2672 C2671 1.524 . S
C2672 C2673 1.397 . S
C2672 C2677 1.363 . S
C2673 H2644 0.950 . S
C2673 C2672 1.397 . S
C2673 C2674 1.334 . S
C2674 H2645 0.950 . S
C2674 C2673 1.334 . S
C2674 C2675 1.287 . S
C2675 C2674 1.287 . S
C2675 C2676 1.524 . S
C2675 H2678 0.999 . S
C2676 H2646 0.950 . S
C2676 C2675 1.524 . S
C2676 C2677 1.415 . S
C2677 H2647 0.950 . S
C2677 C2672 1.363 . S
C2677 C2676 1.415 . S
H2678 C2675 0.999 . S
H2679 C2660 0.913 . S
H2680 C2698 0.951 . S
H2681 C2700 0.951 . S
H2682 C2702 0.950 . S
H2683 C2703 0.950 . S
H2684 C2705 0.950 . S
H2685 C2708 0.950 . S
H2686 C2709 0.950 . S
H2687 C2711 0.950 . S
H2688 C2712 0.950 . S
H2689 C2713 0.951 . S
H2690 C2715 0.951 . S
H2691 C2717 0.950 . S
H2692 C2718 0.950 . S
H2693 C2720 0.950 . S
H2694 C2723 0.950 . S
H2695 C2724 0.950 . S
H2696 C2726 0.950 . S
H2697 C2727 0.950 . S
C2698 H2680 0.951 . S
C2698 C2699 1.366 . S
C2698 C2700 1.388 . S
C2699 C2698 1.366 . S
C2699 C2703 1.385 . S
C2700 H2681 0.951 . S
C2700 C2698 1.388 . S
C2700 C2701 1.366 . S
C2701 C2700 1.366 . S
C2701 C2702 1.414 . S
C2701 C2704 1.499 . S
C2702 H2682 0.950 . S
C2702 C2701 1.414 . S
C2702 C2703 1.374 . S
C2703 H2683 0.950 . S
C2703 C2699 1.385 . S
C2703 C2702 1.374 . S
C2704 C2701 1.499 . S
C2704 C2705 1.373 . S
C2704 C2706 1.389 . S
C2705 H2684 0.950 . S
C2705 C2704 1.373 . S
C2705 C2721 1.377 . S
C2706 C2704 1.389 . S
C2706 C2707 1.524 . S
C2706 C2720 1.377 . S
C2707 C2706 1.524 . S
C2707 C2708 1.397 . S
C2707 C2712 1.363 . S
C2708 H2685 0.950 . S
C2708 C2707 1.397 . S
C2708 C2709 1.334 . S
C2709 H2686 0.950 . S
C2709 C2708 1.334 . S
C2709 C2710 1.287 . S
C2710 C2709 1.287 . S
C2710 C2711 1.524 . S
C2710 H2729 0.913 . S
C2711 H2687 0.950 . S
C2711 C2710 1.524 . S
C2711 C2712 1.415 . S
C2712 H2688 0.950 . S
C2712 C2707 1.363 . S
C2712 C2711 1.415 . S
C2713 H2689 0.951 . S
C2713 C2714 1.366 . S
C2713 C2715 1.388 . S
C2714 C2713 1.366 . S
C2714 C2718 1.385 . S
C2715 H2690 0.951 . S
C2715 C2713 1.388 . S
C2715 C2716 1.366 . S
C2716 C2715 1.366 . S
C2716 C2717 1.414 . S
C2716 C2719 1.499 . S
C2717 H2691 0.950 . S
C2717 C2716 1.414 . S
C2717 C2718 1.374 . S
C2718 H2692 0.950 . S
C2718 C2714 1.385 . S
C2718 C2717 1.374 . S
C2719 C2716 1.499 . S
C2719 C2720 1.373 . S
C2719 C2721 1.389 . S
C2720 H2693 0.950 . S
C2720 C2706 1.377 . S
C2720 C2719 1.373 . S
C2721 C2705 1.377 . S
C2721 C2719 1.389 . S
C2721 C2722 1.524 . S
C2722 C2721 1.524 . S
C2722 C2723 1.397 . S
C2722 C2727 1.363 . S
C2723 H2694 0.950 . S
C2723 C2722 1.397 . S
C2723 C2724 1.334 . S
C2724 H2695 0.950 . S
C2724 C2723 1.334 . S
C2724 C2725 1.287 . S
C2725 C2724 1.287 . S
C2725 C2726 1.524 . S
C2725 H2728 0.999 . S
C2726 H2696 0.950 . S
C2726 C2725 1.524 . S
C2726 C2727 1.415 . S
C2727 H2697 0.950 . S
C2727 C2722 1.363 . S
C2727 C2726 1.415 . S
H2728 C2725 0.999 . S
H2729 C2710 0.913 . S
H2730 C2748 0.951 . S
H2731 C2750 0.951 . S
H2732 C2752 0.950 . S
H2733 C2753 0.950 . S
H2734 C2755 0.950 . S
H2735 C2758 0.950 . S
H2736 C2759 0.950 . S
H2737 C2761 0.950 . S
H2738 C2762 0.950 . S
H2739 C2763 0.951 . S
H2740 C2765 0.951 . S
H2741 C2767 0.950 . S
H2742 C2768 0.950 . S
H2743 C2770 0.950 . S
H2744 C2773 0.950 . S
H2745 C2774 0.950 . S
H2746 C2776 0.950 . S
H2747 C2777 0.950 . S
C2748 H2730 0.951 . S
C2748 C2749 1.366 . S
C2748 C2750 1.388 . S
C2749 C2748 1.366 . S
C2749 C2753 1.385 . S
C2750 H2731 0.951 . S
C2750 C2748 1.388 . S
C2750 C2751 1.366 . S
C2751 C2750 1.366 . S
C2751 C2752 1.414 . S
C2751 C2754 1.499 . S
C2752 H2732 0.950 . S
C2752 C2751 1.414 . S
C2752 C2753 1.374 . S
C2753 H2733 0.950 . S
C2753 C2749 1.385 . S
C2753 C2752 1.374 . S
C2754 C2751 1.499 . S
C2754 C2755 1.373 . S
C2754 C2756 1.389 . S
C2755 H2734 0.950 . S
C2755 C2754 1.373 . S
C2755 C2771 1.377 . S
C2756 C2754 1.389 . S
C2756 C2757 1.524 . S
C2756 C2770 1.377 . S
C2757 C2756 1.524 . S
C2757 C2758 1.397 . S
C2757 C2762 1.363 . S
C2758 H2735 0.950 . S
C2758 C2757 1.397 . S
C2758 C2759 1.334 . S
C2759 H2736 0.950 . S
C2759 C2758 1.334 . S
C2759 C2760 1.287 . S
C2760 C2759 1.287 . S
C2760 C2761 1.524 . S
C2760 H2779 0.913 . S
C2761 H2737 0.950 . S
C2761 C2760 1.524 . S
C2761 C2762 1.415 . S
C2762 H2738 0.950 . S
C2762 C2757 1.363 . S
C2762 C2761 1.415 . S
C2763 H2739 0.951 . S
C2763 C2764 1.366 . S
C2763 C2765 1.388 . S
C2764 C2763 1.366 . S
C2764 C2768 1.385 . S
C2765 H2740 0.951 . S
C2765 C2763 1.388 . S
C2765 C2766 1.366 . S
C2766 C2765 1.366 . S
C2766 C2767 1.414 . S
C2766 C2769 1.499 . S
C2767 H2741 0.950 . S
C2767 C2766 1.414 . S
C2767 C2768 1.374 . S
C2768 H2742 0.950 . S
C2768 C2764 1.385 . S
C2768 C2767 1.374 . S
C2769 C2766 1.499 . S
C2769 C2770 1.373 . S
C2769 C2771 1.389 . S
C2770 H2743 0.950 . S
C2770 C2756 1.377 . S
C2770 C2769 1.373 . S
C2771 C2755 1.377 . S
C2771 C2769 1.389 . S
C2771 C2772 1.524 . S
C2772 C2771 1.524 . S
C2772 C2773 1.397 . S
C2772 C2777 1.363 . S
C2773 H2744 0.950 . S
C2773 C2772 1.397 . S
C2773 C2774 1.334 . S
C2774 H2745 0.950 . S
C2774 C2773 1.334 . S
C2774 C2775 1.287 . S
C2775 C2774 1.287 . S
C2775 C2776 1.524 . S
C2775 H2778 0.999 . S
C2776 H2746 0.950 . S
C2776 C2775 1.524 . S
C2776 C2777 1.415 . S
C2777 H2747 0.950 . S
C2777 C2772 1.363 . S
C2777 C2776 1.415 . S
H2778 C2775 0.999 . S
H2779 C2760 0.913 . S
H2780 C2798 0.951 . S
H2781 C2800 0.951 . S
H2782 C2802 0.950 . S
H2783 C2803 0.950 . S
H2784 C2805 0.950 . S
H2785 C2808 0.950 . S
H2786 C2809 0.950 . S
H2787 C2811 0.950 . S
H2788 C2812 0.950 . S
H2789 C2813 0.951 . S
H2790 C2815 0.951 . S
H2791 C2817 0.950 . S
H2792 C2818 0.950 . S
H2793 C2820 0.950 . S
H2794 C2823 0.950 . S
H2795 C2824 0.950 . S
H2796 C2826 0.950 . S
H2797 C2827 0.950 . S
C2798 H2780 0.951 . S
C2798 C2799 1.366 . S
C2798 C2800 1.388 . S
C2799 C2798 1.366 . S
C2799 C2803 1.385 . S
C2800 H2781 0.951 . S
C2800 C2798 1.388 . S
C2800 C2801 1.366 . S
C2801 C2800 1.366 . S
C2801 C2802 1.414 . S
C2801 C2804 1.499 . S
C2802 H2782 0.950 . S
C2802 C2801 1.414 . S
C2802 C2803 1.374 . S
C2803 H2783 0.950 . S
C2803 C2799 1.385 . S
C2803 C2802 1.374 . S
C2804 C2801 1.499 . S
C2804 C2805 1.373 . S
C2804 C2806 1.389 . S
C2805 H2784 0.950 . S
C2805 C2804 1.373 . S
C2805 C2821 1.377 . S
C2806 C2804 1.389 . S
C2806 C2807 1.524 . S
C2806 C2820 1.377 . S
C2807 C2806 1.524 . S
C2807 C2808 1.397 . S
C2807 C2812 1.363 . S
C2808 H2785 0.950 . S
C2808 C2807 1.397 . S
C2808 C2809 1.334 . S
C2809 H2786 0.950 . S
C2809 C2808 1.334 . S
C2809 C2810 1.287 . S
C2810 C2809 1.287 . S
C2810 C2811 1.524 . S
C2810 H2829 0.913 . S
C2811 H2787 0.950 . S
C2811 C2810 1.524 . S
C2811 C2812 1.415 . S
C2812 H2788 0.950 . S
C2812 C2807 1.363 . S
C2812 C2811 1.415 . S
C2813 H2789 0.951 . S
C2813 C2814 1.366 . S
C2813 C2815 1.388 . S
C2814 C2813 1.366 . S
C2814 C2818 1.385 . S
C2815 H2790 0.951 . S
C2815 C2813 1.388 . S
C2815 C2816 1.366 . S
C2816 C2815 1.366 . S
C2816 C2817 1.414 . S
C2816 C2819 1.499 . S
C2817 H2791 0.950 . S
C2817 C2816 1.414 . S
C2817 C2818 1.374 . S
C2818 H2792 0.950 . S
C2818 C2814 1.385 . S
C2818 C2817 1.374 . S
C2819 C2816 1.499 . S
C2819 C2820 1.373 . S
C2819 C2821 1.389 . S
C2820 H2793 0.950 . S
C2820 C2806 1.377 . S
C2820 C2819 1.373 . S
C2821 C2805 1.377 . S
C2821 C2819 1.389 . S
C2821 C2822 1.524 . S
C2822 C2821 1.524 . S
C2822 C2823 1.397 . S
C2822 C2827 1.363 . S
C2823 H2794 0.950 . S
C2823 C2822 1.397 . S
C2823 C2824 1.334 . S
C2824 H2795 0.950 . S
C2824 C2823 1.334 . S
C2824 C2825 1.287 . S
C2825 C2824 1.287 . S
C2825 C2826 1.524 . S
C2825 H2828 0.999 . S
C2826 H2796 0.950 . S
C2826 C2825 1.524 . S
C2826 C2827 1.415 . S
C2827 H2797 0.950 . S
C2827 C2822 1.363 . S
C2827 C2826 1.415 . S
H2828 C2825 0.999 . S
H2829 C2810 0.913 . S
H2830 C2848 0.951 . S
H2831 C2850 0.951 . S
H2832 C2852 0.950 . S
H2833 C2853 0.950 . S
H2834 C2855 0.950 . S
H2835 C2858 0.950 . S
H2836 C2859 0.950 . S
H2837 C2861 0.950 . S
H2838 C2862 0.950 . S
H2839 C2863 0.951 . S
H2840 C2865 0.951 . S
H2841 C2867 0.950 . S
H2842 C2868 0.950 . S
H2843 C2870 0.950 . S
H2844 C2873 0.950 . S
H2845 C2874 0.950 . S
H2846 C2876 0.950 . S
H2847 C2877 0.950 . S
C2848 H2830 0.951 . S
C2848 C2849 1.366 . S
C2848 C2850 1.388 . S
C2849 C2848 1.366 . S
C2849 C2853 1.385 . S
C2850 H2831 0.951 . S
C2850 C2848 1.388 . S
C2850 C2851 1.366 . S
C2851 C2850 1.366 . S
C2851 C2852 1.414 . S
C2851 C2854 1.499 . S
C2852 H2832 0.950 . S
C2852 C2851 1.414 . S
C2852 C2853 1.374 . S
C2853 H2833 0.950 . S
C2853 C2849 1.385 . S
C2853 C2852 1.374 . S
C2854 C2851 1.499 . S
C2854 C2855 1.373 . S
C2854 C2856 1.389 . S
C2855 H2834 0.950 . S
C2855 C2854 1.373 . S
C2855 C2871 1.377 . S
C2856 C2854 1.389 . S
C2856 C2857 1.524 . S
C2856 C2870 1.377 . S
C2857 C2856 1.524 . S
C2857 C2858 1.397 . S
C2857 C2862 1.363 . S
C2858 H2835 0.950 . S
C2858 C2857 1.397 . S
C2858 C2859 1.334 . S
C2859 H2836 0.950 . S
C2859 C2858 1.334 . S
C2859 C2860 1.287 . S
C2860 C2859 1.287 . S
C2860 C2861 1.524 . S
C2860 H2879 0.913 . S
C2861 H2837 0.950 . S
C2861 C2860 1.524 . S
C2861 C2862 1.415 . S
C2862 H2838 0.950 . S
C2862 C2857 1.363 . S
C2862 C2861 1.415 . S
C2863 H2839 0.951 . S
C2863 C2864 1.366 . S
C2863 C2865 1.388 . S
C2864 C2863 1.366 . S
C2864 C2868 1.385 . S
C2865 H2840 0.951 . S
C2865 C2863 1.388 . S
C2865 C2866 1.366 . S
C2866 C2865 1.366 . S
C2866 C2867 1.414 . S
C2866 C2869 1.499 . S
C2867 H2841 0.950 . S
C2867 C2866 1.414 . S
C2867 C2868 1.374 . S
C2868 H2842 0.950 . S
C2868 C2864 1.385 . S
C2868 C2867 1.374 . S
C2869 C2866 1.499 . S
C2869 C2870 1.373 . S
C2869 C2871 1.389 . S
C2870 H2843 0.950 . S
C2870 C2856 1.377 . S
C2870 C2869 1.373 . S
C2871 C2855 1.377 . S
C2871 C2869 1.389 . S
C2871 C2872 1.524 . S
C2872 C2871 1.524 . S
C2872 C2873 1.397 . S
C2872 C2877 1.363 . S
C2873 H2844 0.950 . S
C2873 C2872 1.397 . S
C2873 C2874 1.334 . S
C2874 H2845 0.950 . S
C2874 C2873 1.334 . S
C2874 C2875 1.287 . S
C2875 C2874 1.287 . S
C2875 C2876 1.524 . S
C2875 H2878 0.999 . S
C2876 H2846 0.950 . S
C2876 C2875 1.524 . S
C2876 C2877 1.415 . S
C2877 H2847 0.950 . S
C2877 C2872 1.363 . S
C2877 C2876 1.415 . S
H2878 C2875 0.999 . S
H2879 C2860 0.913 . S
H2880 C2898 0.951 . S
H2881 C2900 0.951 . S
H2882 C2902 0.950 . S
H2883 C2903 0.950 . S
H2884 C2905 0.950 . S
H2885 C2908 0.950 . S
H2886 C2909 0.950 . S
H2887 C2911 0.950 . S
H2888 C2912 0.950 . S
H2889 C2913 0.951 . S
H2890 C2915 0.951 . S
H2891 C2917 0.950 . S
H2892 C2918 0.950 . S
H2893 C2920 0.950 . S
H2894 C2923 0.950 . S
H2895 C2924 0.950 . S
H2896 C2926 0.950 . S
H2897 C2927 0.950 . S
C2898 H2880 0.951 . S
C2898 C2899 1.366 . S
C2898 C2900 1.388 . S
C2899 C2898 1.366 . S
C2899 C2903 1.385 . S
C2900 H2881 0.951 . S
C2900 C2898 1.388 . S
C2900 C2901 1.366 . S
C2901 C2900 1.366 . S
C2901 C2902 1.414 . S
C2901 C2904 1.499 . S
C2902 H2882 0.950 . S
C2902 C2901 1.414 . S
C2902 C2903 1.374 . S
C2903 H2883 0.950 . S
C2903 C2899 1.385 . S
C2903 C2902 1.374 . S
C2904 C2901 1.499 . S
C2904 C2905 1.373 . S
C2904 C2906 1.389 . S
C2905 H2884 0.950 . S
C2905 C2904 1.373 . S
C2905 C2921 1.377 1_556 S
C2906 C2904 1.389 . S
C2906 C2907 1.524 . S
C2906 C2920 1.377 1_556 S
C2907 C2906 1.524 . S
C2907 C2908 1.397 . S
C2907 C2912 1.363 1_556 S
C2908 H2885 0.950 . S
C2908 C2907 1.397 . S
C2908 C2909 1.334 . S
C2909 H2886 0.950 . S
C2909 C2908 1.334 . S
C2909 C2910 1.287 . S
C2910 C2909 1.287 . S
C2910 C2911 1.524 1_556 S
C2910 H2929 0.913 . S
C2911 H2887 0.950 . S
C2911 C2910 1.524 1_554 S
C2911 C2912 1.415 . S
C2912 H2888 0.950 . S
C2912 C2907 1.363 1_554 S
C2912 C2911 1.415 . S
C2913 H2889 0.951 . S
C2913 C2914 1.366 . S
C2913 C2915 1.388 . S
C2914 C2913 1.366 . S
C2914 C2918 1.385 . S
C2915 H2890 0.951 . S
C2915 C2913 1.388 . S
C2915 C2916 1.366 . S
C2916 C2915 1.366 . S
C2916 C2917 1.414 . S
C2916 C2919 1.499 . S
C2917 H2891 0.950 . S
C2917 C2916 1.414 . S
C2917 C2918 1.374 . S
C2918 H2892 0.950 . S
C2918 C2914 1.385 . S
C2918 C2917 1.374 . S
C2919 C2916 1.499 . S
C2919 C2920 1.373 . S
C2919 C2921 1.389 . S
C2920 H2893 0.950 . S
C2920 C2906 1.377 1_554 S
C2920 C2919 1.373 . S
C2921 C2905 1.377 1_554 S
C2921 C2919 1.389 . S
C2921 C2922 1.524 . S
C2922 C2921 1.524 . S
C2922 C2923 1.397 . S
C2922 C2927 1.363 1_554 S
C2923 H2894 0.950 . S
C2923 C2922 1.397 . S
C2923 C2924 1.334 . S
C2924 H2895 0.950 . S
C2924 C2923 1.334 . S
C2924 C2925 1.287 . S
C2925 C2924 1.287 . S
C2925 C2926 1.524 1_554 S
C2925 H2928 0.999 . S
C2926 H2896 0.950 . S
C2926 C2925 1.524 1_556 S
C2926 C2927 1.415 . S
C2927 H2897 0.950 . S
C2927 C2922 1.363 1_556 S
C2927 C2926 1.415 . S
H2928 C2925 0.999 . S
H2929 C2910 0.913 . S
H2930 C2948 0.951 . S
H2931 C2950 0.951 . S
H2932 C2952 0.950 . S
H2933 C2953 0.950 . S
H2934 C2955 0.950 1_455 S
H2935 C2958 0.950 . S
H2936 C2959 0.950 . S
H2937 C2961 0.950 . S
H2938 C2962 0.950 . S
H2939 C2963 0.951 . S
H2940 C2965 0.951 . S
H2941 C2967 0.950 . S
H2942 C2968 0.950 . S
H2943 C2970 0.950 . S
H2944 C2973 0.950 . S
H2945 C2974 0.950 . S
H2946 C2976 0.950 . S
H2947 C2977 0.950 . S
C2948 H2930 0.951 . S
C2948 C2949 1.366 . S
C2948 C2950 1.388 . S
C2949 C2948 1.366 . S
C2949 C2953 1.385 . S
C2950 H2931 0.951 . S
C2950 C2948 1.388 . S
C2950 C2951 1.366 . S
C2951 C2950 1.366 . S
C2951 C2952 1.414 . S
C2951 C2954 1.499 . S
C2952 H2932 0.950 . S
C2952 C2951 1.414 . S
C2952 C2953 1.374 . S
C2953 H2933 0.950 . S
C2953 C2949 1.385 . S
C2953 C2952 1.374 . S
C2954 C2951 1.499 . S
C2954 C2955 1.373 . S
C2954 C2956 1.389 . S
C2955 H2934 0.950 1_655 S
C2955 C2954 1.373 . S
C2955 C2971 1.377 1_545 S
C2956 C2954 1.389 . S
C2956 C2957 1.524 . S
C2956 C2970 1.377 1_545 S
C2957 C2956 1.524 . S
C2957 C2958 1.397 . S
C2957 C2962 1.363 1_545 S
C2958 H2935 0.950 . S
C2958 C2957 1.397 . S
C2958 C2959 1.334 . S
C2959 H2936 0.950 . S
C2959 C2958 1.334 . S
C2959 C2960 1.287 . S
C2960 C2959 1.287 . S
C2960 C2961 1.524 1_545 S
C2960 H2979 0.913 . S
C2961 H2937 0.950 . S
C2961 C2960 1.524 1_565 S
C2961 C2962 1.415 . S
C2962 H2938 0.950 . S
C2962 C2957 1.363 1_565 S
C2962 C2961 1.415 . S
C2963 H2939 0.951 . S
C2963 C2964 1.366 . S
C2963 C2965 1.388 . S
C2964 C2963 1.366 . S
C2964 C2968 1.385 . S
C2965 H2940 0.951 . S
C2965 C2963 1.388 . S
C2965 C2966 1.366 . S
C2966 C2965 1.366 . S
C2966 C2967 1.414 . S
C2966 C2969 1.499 . S
C2967 H2941 0.950 . S
C2967 C2966 1.414 . S
C2967 C2968 1.374 . S
C2968 H2942 0.950 . S
C2968 C2964 1.385 . S
C2968 C2967 1.374 . S
C2969 C2966 1.499 . S
C2969 C2970 1.373 . S
C2969 C2971 1.389 . S
C2970 H2943 0.950 . S
C2970 C2956 1.377 1_565 S
C2970 C2969 1.373 . S
C2971 C2955 1.377 1_565 S
C2971 C2969 1.389 . S
C2971 C2972 1.524 1_655 S
C2972 C2971 1.524 1_455 S
C2972 C2973 1.397 . S
C2972 C2977 1.363 1_565 S
C2973 H2944 0.950 . S
C2973 C2972 1.397 . S
C2973 C2974 1.334 . S
C2974 H2945 0.950 . S
C2974 C2973 1.334 . S
C2974 C2975 1.287 . S
C2975 C2974 1.287 . S
C2975 C2976 1.524 1_565 S
C2975 H2978 0.999 . S
C2976 H2946 0.950 . S
C2976 C2975 1.524 1_545 S
C2976 C2977 1.415 . S
C2977 H2947 0.950 . S
C2977 C2972 1.363 1_545 S
C2977 C2976 1.415 . S
H2978 C2975 0.999 . S
H2979 C2960 0.913 . S
H2980 C2998 0.951 . S
H2981 C3000 0.951 . S
H2982 C3002 0.950 . S
H2983 C3003 0.950 . S
H2984 C3005 0.950 . S
H2985 C3008 0.950 . S
H2986 C3009 0.950 . S
H2987 C3011 0.950 . S
H2988 C3012 0.950 . S
H2989 C3013 0.951 . S
H2990 C3015 0.951 . S
H2991 C3017 0.950 . S
H2992 C3018 0.950 . S
H2993 C3020 0.950 . S
H2994 C3023 0.950 . S
H2995 C3024 0.950 . S
H2996 C3026 0.950 . S
H2997 C3027 0.950 . S
C2998 H2980 0.951 . S
C2998 C2999 1.366 . S
C2998 C3000 1.388 . S
C2999 C2998 1.366 . S
C2999 C3003 1.385 . S
C3000 H2981 0.951 . S
C3000 C2998 1.388 . S
C3000 C3001 1.366 . S
C3001 C3000 1.366 . S
C3001 C3002 1.414 . S
C3001 C3004 1.499 . S
C3002 H2982 0.950 . S
C3002 C3001 1.414 . S
C3002 C3003 1.374 . S
C3003 H2983 0.950 . S
C3003 C2999 1.385 . S
C3003 C3002 1.374 . S
C3004 C3001 1.499 . S
C3004 C3005 1.373 . S
C3004 C3006 1.389 . S
C3005 H2984 0.950 . S
C3005 C3004 1.373 . S
C3005 C3021 1.377 . S
C3006 C3004 1.389 . S
C3006 C3007 1.524 . S
C3006 C3020 1.377 . S
C3007 C3006 1.524 . S
C3007 C3008 1.397 . S
C3007 C3012 1.363 . S
C3008 H2985 0.950 . S
C3008 C3007 1.397 . S
C3008 C3009 1.334 . S
C3009 H2986 0.950 . S
C3009 C3008 1.334 . S
C3009 C3010 1.287 . S
C3010 C3009 1.287 . S
C3010 C3011 1.524 . S
C3010 H3029 0.913 . S
C3011 H2987 0.950 . S
C3011 C3010 1.524 . S
C3011 C3012 1.415 . S
C3012 H2988 0.950 . S
C3012 C3007 1.363 . S
C3012 C3011 1.415 . S
C3013 H2989 0.951 . S
C3013 C3014 1.366 . S
C3013 C3015 1.388 . S
C3014 C3013 1.366 . S
C3014 C3018 1.385 . S
C3015 H2990 0.951 . S
C3015 C3013 1.388 . S
C3015 C3016 1.366 . S
C3016 C3015 1.366 . S
C3016 C3017 1.414 . S
C3016 C3019 1.499 . S
C3017 H2991 0.950 . S
C3017 C3016 1.414 . S
C3017 C3018 1.374 . S
C3018 H2992 0.950 . S
C3018 C3014 1.385 . S
C3018 C3017 1.374 . S
C3019 C3016 1.499 . S
C3019 C3020 1.373 . S
C3019 C3021 1.389 . S
C3020 H2993 0.950 . S
C3020 C3006 1.377 . S
C3020 C3019 1.373 . S
C3021 C3005 1.377 . S
C3021 C3019 1.389 . S
C3021 C3022 1.524 . S
C3022 C3021 1.524 . S
C3022 C3023 1.397 . S
C3022 C3027 1.363 . S
C3023 H2994 0.950 . S
C3023 C3022 1.397 . S
C3023 C3024 1.334 . S
C3024 H2995 0.950 . S
C3024 C3023 1.334 . S
C3024 C3025 1.287 . S
C3025 C3024 1.287 . S
C3025 C3026 1.524 . S
C3025 H3028 0.999 . S
C3026 H2996 0.950 . S
C3026 C3025 1.524 . S
C3026 C3027 1.415 . S
C3027 H2997 0.950 . S
C3027 C3022 1.363 . S
C3027 C3026 1.415 . S
H3028 C3025 0.999 . S
H3029 C3010 0.913 . S
H3030 C3048 0.951 . S
H3031 C3050 0.951 . S
H3032 C3052 0.950 . S
H3033 C3053 0.950 . S
H3034 C3055 0.950 . S
H3035 C3058 0.950 . S
H3036 C3059 0.950 . S
H3037 C3061 0.950 . S
H3038 C3062 0.950 . S
H3039 C3063 0.951 . S
H3040 C3065 0.951 . S
H3041 C3067 0.950 . S
H3042 C3068 0.950 . S
H3043 C3070 0.950 . S
H3044 C3073 0.950 . S
H3045 C3074 0.950 . S
H3046 C3076 0.950 . S
H3047 C3077 0.950 . S
C3048 H3030 0.951 . S
C3048 C3049 1.366 . S
C3048 C3050 1.388 . S
C3049 C3048 1.366 . S
C3049 C3053 1.385 . S
C3050 H3031 0.951 . S
C3050 C3048 1.388 . S
C3050 C3051 1.366 . S
C3051 C3050 1.366 . S
C3051 C3052 1.414 . S
C3051 C3054 1.499 . S
C3052 H3032 0.950 . S
C3052 C3051 1.414 . S
C3052 C3053 1.374 . S
C3053 H3033 0.950 . S
C3053 C3049 1.385 . S
C3053 C3052 1.374 . S
C3054 C3051 1.499 . S
C3054 C3055 1.373 . S
C3054 C3056 1.389 1_565 S
C3055 H3034 0.950 . S
C3055 C3054 1.373 . S
C3055 C3071 1.377 . S
C3056 C3054 1.389 1_545 S
C3056 C3057 1.524 . S
C3056 C3070 1.377 . S
C3057 C3056 1.524 . S
C3057 C3058 1.397 . S
C3057 C3062 1.363 . S
C3058 H3035 0.950 . S
C3058 C3057 1.397 . S
C3058 C3059 1.334 . S
C3059 H3036 0.950 . S
C3059 C3058 1.334 . S
C3059 C3060 1.287 . S
C3060 C3059 1.287 . S
C3060 C3061 1.524 . S
C3060 H3079 0.913 . S
C3061 H3037 0.950 . S
C3061 C3060 1.524 . S
C3061 C3062 1.415 . S
C3062 H3038 0.950 . S
C3062 C3057 1.363 . S
C3062 C3061 1.415 . S
C3063 H3039 0.951 . S
C3063 C3064 1.366 . S
C3063 C3065 1.388 . S
C3064 C3063 1.366 . S
C3064 C3068 1.385 . S
C3065 H3040 0.951 . S
C3065 C3063 1.388 . S
C3065 C3066 1.366 . S
C3066 C3065 1.366 . S
C3066 C3067 1.414 . S
C3066 C3069 1.499 . S
C3067 H3041 0.950 . S
C3067 C3066 1.414 . S
C3067 C3068 1.374 . S
C3068 H3042 0.950 . S
C3068 C3064 1.385 . S
C3068 C3067 1.374 . S
C3069 C3066 1.499 . S
C3069 C3070 1.373 . S
C3069 C3071 1.389 1_545 S
C3070 H3043 0.950 . S
C3070 C3056 1.377 . S
C3070 C3069 1.373 . S
C3071 C3055 1.377 . S
C3071 C3069 1.389 1_565 S
C3071 C3072 1.524 . S
C3072 C3071 1.524 . S
C3072 C3073 1.397 . S
C3072 C3077 1.363 . S
C3073 H3044 0.950 . S
C3073 C3072 1.397 . S
C3073 C3074 1.334 . S
C3074 H3045 0.950 . S
C3074 C3073 1.334 . S
C3074 C3075 1.287 . S
C3075 C3074 1.287 . S
C3075 C3076 1.524 . S
C3075 H3078 0.999 . S
C3076 H3046 0.950 . S
C3076 C3075 1.524 . S
C3076 C3077 1.415 . S
C3077 H3047 0.950 . S
C3077 C3072 1.363 . S
C3077 C3076 1.415 . S
H3078 C3075 0.999 . S
H3079 C3060 0.913 . S
H3080 C3098 0.951 . S
H3081 C3100 0.951 . S
H3082 C3102 0.950 . S
H3083 C3103 0.950 . S
H3084 C3105 0.950 . S
H3085 C3108 0.950 . S
H3086 C3109 0.950 . S
H3087 C3111 0.950 . S
H3088 C3112 0.950 . S
H3089 C3113 0.951 . S
H3090 C3115 0.951 . S
H3091 C3117 0.950 . S
H3092 C3118 0.950 . S
H3093 C3120 0.950 . S
H3094 C3123 0.950 . S
H3095 C3124 0.950 . S
H3096 C3126 0.950 . S
H3097 C3127 0.950 . S
C3098 H3080 0.951 . S
C3098 C3099 1.366 . S
C3098 C3100 1.388 . S
C3099 C3098 1.366 . S
C3099 C3103 1.385 . S
C3100 H3081 0.951 . S
C3100 C3098 1.388 . S
C3100 C3101 1.366 . S
C3101 C3100 1.366 . S
C3101 C3102 1.414 . S
C3101 C3104 1.499 . S
C3102 H3082 0.950 . S
C3102 C3101 1.414 . S
C3102 C3103 1.374 . S
C3103 H3083 0.950 . S
C3103 C3099 1.385 . S
C3103 C3102 1.374 . S
C3104 C3101 1.499 . S
C3104 C3105 1.373 . S
C3104 C3106 1.389 . S
C3105 H3084 0.950 . S
C3105 C3104 1.373 . S
C3105 C3121 1.377 1_556 S
C3106 C3104 1.389 . S
C3106 C3107 1.524 . S
C3106 C3120 1.377 1_556 S
C3107 C3106 1.524 . S
C3107 C3108 1.397 . S
C3107 C3112 1.363 . S
C3108 H3085 0.950 . S
C3108 C3107 1.397 . S
C3108 C3109 1.334 . S
C3109 H3086 0.950 . S
C3109 C3108 1.334 . S
C3109 C3110 1.287 . S
C3110 C3109 1.287 . S
C3110 C3111 1.524 . S
C3110 H3129 0.913 . S
C3111 H3087 0.950 . S
C3111 C3110 1.524 . S
C3111 C3112 1.415 . S
C3112 H3088 0.950 . S
C3112 C3107 1.363 . S
C3112 C3111 1.415 . S
C3113 H3089 0.951 . S
C3113 C3114 1.366 . S
C3113 C3115 1.388 . S
C3114 C3113 1.366 . S
C3114 C3118 1.385 . S
C3115 H3090 0.951 . S
C3115 C3113 1.388 . S
C3115 C3116 1.366 . S
C3116 C3115 1.366 . S
C3116 C3117 1.414 . S
C3116 C3119 1.499 . S
C3117 H3091 0.950 . S
C3117 C3116 1.414 . S
C3117 C3118 1.374 . S
C3118 H3092 0.950 . S
C3118 C3114 1.385 . S
C3118 C3117 1.374 . S
C3119 C3116 1.499 . S
C3119 C3120 1.373 . S
C3119 C3121 1.389 . S
C3120 H3093 0.950 . S
C3120 C3106 1.377 1_554 S
C3120 C3119 1.373 . S
C3121 C3105 1.377 1_554 S
C3121 C3119 1.389 . S
C3121 C3122 1.524 . S
C3122 C3121 1.524 . S
C3122 C3123 1.397 . S
C3122 C3127 1.363 . S
C3123 H3094 0.950 . S
C3123 C3122 1.397 . S
C3123 C3124 1.334 . S
C3124 H3095 0.950 . S
C3124 C3123 1.334 . S
C3124 C3125 1.287 . S
C3125 C3124 1.287 . S
C3125 C3126 1.524 . S
C3125 H3128 0.999 . S
C3126 H3096 0.950 . S
C3126 C3125 1.524 . S
C3126 C3127 1.415 . S
C3127 H3097 0.950 . S
C3127 C3122 1.363 . S
C3127 C3126 1.415 . S
H3128 C3125 0.999 . S
H3129 C3110 0.913 . S
H3130 C3148 0.951 . S
H3131 C3150 0.951 . S
H3132 C3152 0.950 1_655 S
H3133 C3153 0.877 1_655 S
H3134 C3155 0.950 1_655 S
H3135 C3158 0.950 . S
H3136 C3159 0.950 . S
H3137 C3161 0.939 1_565 S
H3138 C3162 0.974 . S
H3139 C3163 0.888 1_655 S
H3140 C3165 0.873 1_655 S
H3141 C3167 0.950 . S
H3142 C3168 0.950 . S
H3143 C3170 0.950 . S
H3144 C3173 0.950 1_455 S
H3145 C3174 0.950 . S
H3146 C3176 0.939 1_545 S
H3147 C3177 0.974 . S
C3148 H3130 0.951 . S
C3148 C3149 1.366 . S
C3148 C3150 1.388 . S
C3149 C3148 1.366 . S
C3149 C3153 1.385 . S
C3150 H3131 0.951 . S
C3150 C3148 1.388 . S
C3150 C3151 1.366 . S
C3151 C3150 1.366 . S
C3151 C3152 1.414 . S
C3151 C3154 1.499 . S
C3152 H3132 0.950 1_455 S
C3152 C3151 1.414 . S
C3152 C3153 1.374 . S
C3153 H3133 0.877 1_455 S
C3153 C3149 1.385 . S
C3153 C3152 1.374 . S
C3154 C3151 1.499 . S
C3154 C3155 1.373 . S
C3154 C3156 1.403 . S
C3155 H3134 0.950 1_455 S
C3155 C3154 1.373 . S
C3155 C3171 1.362 1_565 S
C3156 C3154 1.403 . S
C3156 C3157 1.521 1_565 S
C3156 C3170 1.362 1_565 S
C3157 C3156 1.521 1_545 S
C3157 C3158 1.412 . S
C3157 C3162 1.353 1_545 S
C3158 H3135 0.950 . S
C3158 C3157 1.412 . S
C3158 C3159 1.334 . S
C3159 H3136 0.950 . S
C3159 C3158 1.334 . S
C3159 C3160 1.287 . S
C3160 C3159 1.287 . S
C3160 C3161 1.537 . S
C3160 H3179 0.913 . S
C3161 H3137 0.939 1_545 S
C3161 C3160 1.537 . S
C3161 C3162 1.407 1_545 S
C3162 H3138 0.974 . S
C3162 C3157 1.353 1_565 S
C3162 C3161 1.407 1_565 S
C3163 H3139 0.888 1_455 S
C3163 C3164 1.366 . S
C3163 C3165 1.388 . S
C3164 C3163 1.366 . S
C3164 C3168 1.385 . S
C3165 H3140 0.873 1_455 S
C3165 C3163 1.388 . S
C3165 C3166 1.366 . S
C3166 C3165 1.366 . S
C3166 C3167 1.414 . S
C3166 C3169 1.499 . S
C3167 H3141 0.950 . S
C3167 C3166 1.414 . S
C3167 C3168 1.374 . S
C3168 H3142 0.950 . S
C3168 C3164 1.385 . S
C3168 C3167 1.374 . S
C3169 C3166 1.499 . S
C3169 C3170 1.373 . S
C3169 C3171 1.403 . S
C3170 H3143 0.950 . S
C3170 C3156 1.362 1_545 S
C3170 C3169 1.373 . S
C3171 C3155 1.362 1_545 S
C3171 C3169 1.403 . S
C3171 C3172 1.521 1_445 S
C3172 C3171 1.521 1_665 S
C3172 C3173 1.412 . S
C3172 C3177 1.353 1_565 S
C3173 H3144 0.950 1_655 S
C3173 C3172 1.412 . S
C3173 C3174 1.334 . S
C3174 H3145 0.950 . S
C3174 C3173 1.334 . S
C3174 C3175 1.287 . S
C3175 C3174 1.287 . S
C3175 C3176 1.537 . S
C3175 H3178 0.999 . S
C3176 H3146 0.939 1_565 S
C3176 C3175 1.537 . S
C3176 C3177 1.407 1_565 S
C3177 H3147 0.974 . S
C3177 C3172 1.353 1_545 S
C3177 C3176 1.407 1_545 S
H3178 C3175 0.999 . S
H3179 C3160 0.913 . S
H3180 C3198 0.951 . S
H3181 C3200 0.951 . S
H3182 C3202 0.950 . S
H3183 C3203 0.950 . S
H3184 C3205 0.950 . S
H3185 C3208 0.950 . S
H3186 C3209 0.950 . S
H3187 C3211 0.950 . S
H3188 C3212 0.950 . S
H3189 C3213 0.951 . S
H3190 C3215 0.951 . S
H3191 C3217 0.950 . S
H3192 C3218 0.950 . S
H3193 C3220 0.950 . S
H3194 C3223 0.950 . S
H3195 C3224 0.950 . S
H3196 C3226 0.950 . S
H3197 C3227 0.950 . S
C3198 H3180 0.951 . S
C3198 C3199 1.366 . S
C3198 C3200 1.388 . S
C3199 C3198 1.366 . S
C3199 C3203 1.385 . S
C3200 H3181 0.951 . S
C3200 C3198 1.388 . S
C3200 C3201 1.366 . S
C3201 C3200 1.366 . S
C3201 C3202 1.414 . S
C3201 C3204 1.499 . S
C3202 H3182 0.950 . S
C3202 C3201 1.414 . S
C3202 C3203 1.374 . S
C3203 H3183 0.950 . S
C3203 C3199 1.385 . S
C3203 C3202 1.374 . S
C3204 C3201 1.499 . S
C3204 C3205 1.373 . S
C3204 C3206 1.389 . S
C3205 H3184 0.950 . S
C3205 C3204 1.373 . S
C3205 C3221 1.377 . S
C3206 C3204 1.389 . S
C3206 C3207 1.524 . S
C3206 C3220 1.377 . S
C3207 C3206 1.524 . S
C3207 C3208 1.397 . S
C3207 C3212 1.363 . S
C3208 H3185 0.950 . S
C3208 C3207 1.397 . S
C3208 C3209 1.334 . S
C3209 H3186 0.950 . S
C3209 C3208 1.334 . S
C3209 C3210 1.287 . S
C3210 C3209 1.287 . S
C3210 C3211 1.524 . S
C3210 H3229 0.913 . S
C3211 H3187 0.950 . S
C3211 C3210 1.524 . S
C3211 C3212 1.415 . S
C3212 H3188 0.950 . S
C3212 C3207 1.363 . S
C3212 C3211 1.415 . S
C3213 H3189 0.951 . S
C3213 C3214 1.366 . S
C3213 C3215 1.388 . S
C3214 C3213 1.366 . S
C3214 C3218 1.385 . S
C3215 H3190 0.951 . S
C3215 C3213 1.388 . S
C3215 C3216 1.366 . S
C3216 C3215 1.366 . S
C3216 C3217 1.414 . S
C3216 C3219 1.499 . S
C3217 H3191 0.950 . S
C3217 C3216 1.414 . S
C3217 C3218 1.374 . S
C3218 H3192 0.950 . S
C3218 C3214 1.385 . S
C3218 C3217 1.374 . S
C3219 C3216 1.499 . S
C3219 C3220 1.373 . S
C3219 C3221 1.389 . S
C3220 H3193 0.950 . S
C3220 C3206 1.377 . S
C3220 C3219 1.373 . S
C3221 C3205 1.377 . S
C3221 C3219 1.389 . S
C3221 C3222 1.524 . S
C3222 C3221 1.524 . S
C3222 C3223 1.397 . S
C3222 C3227 1.363 . S
C3223 H3194 0.950 . S
C3223 C3222 1.397 . S
C3223 C3224 1.334 . S
C3224 H3195 0.950 . S
C3224 C3223 1.334 . S
C3224 C3225 1.287 . S
C3225 C3224 1.287 . S
C3225 C3226 1.524 . S
C3225 H3228 0.999 . S
C3226 H3196 0.950 . S
C3226 C3225 1.524 . S
C3226 C3227 1.415 . S
C3227 H3197 0.950 . S
C3227 C3222 1.363 . S
C3227 C3226 1.415 . S
H3228 C3225 0.999 . S
H3229 C3210 0.913 . S
H3230 C3248 0.951 . S
H3231 C3250 0.951 . S
H3232 C3252 0.950 . S
H3233 C3253 0.950 . S
H3234 C3255 0.949 . S
H3235 C3258 0.950 . S
H3236 C3259 0.950 . S
H3237 C3261 0.950 . S
H3238 C3262 0.950 . S
H3239 C3263 0.951 . S
H3240 C3265 0.951 . S
H3241 C3267 0.950 . S
H3242 C3268 0.950 . S
H3243 C3270 0.949 . S
H3244 C3273 0.950 . S
H3245 C3274 0.950 . S
H3246 C3276 0.950 . S
H3247 C3277 0.950 . S
C3248 H3230 0.951 . S
C3248 C3249 1.366 . S
C3248 C3250 1.388 . S
C3249 C3248 1.366 . S
C3249 C3253 1.385 . S
C3250 H3231 0.951 . S
C3250 C3248 1.388 . S
C3250 C3251 1.366 . S
C3251 C3250 1.366 . S
C3251 C3252 1.414 . S
C3251 C3254 1.499 . S
C3252 H3232 0.950 . S
C3252 C3251 1.414 . S
C3252 C3253 1.374 . S
C3253 H3233 0.950 . S
C3253 C3249 1.385 . S
C3253 C3252 1.374 . S
C3254 C3251 1.499 . S
C3254 C3255 1.342 1_545 S
C3254 C3256 1.389 . S
C3255 H3234 0.949 . S
C3255 C3254 1.342 1_565 S
C3255 C3271 1.406 . S
C3256 C3254 1.389 . S
C3256 C3257 1.524 . S
C3256 C3270 1.406 . S
C3257 C3256 1.524 . S
C3257 C3258 1.397 . S
C3257 C3262 1.363 . S
C3258 H3235 0.950 . S
C3258 C3257 1.397 . S
C3258 C3259 1.334 . S
C3259 H3236 0.950 . S
C3259 C3258 1.334 . S
C3259 C3260 1.287 . S
C3260 C3259 1.287 . S
C3260 C3261 1.524 . S
C3260 H3279 0.913 . S
C3261 H3237 0.950 . S
C3261 C3260 1.524 . S
C3261 C3262 1.415 . S
C3262 H3238 0.950 . S
C3262 C3257 1.363 . S
C3262 C3261 1.415 . S
C3263 H3239 0.951 . S
C3263 C3264 1.366 . S
C3263 C3265 1.388 . S
C3264 C3263 1.366 . S
C3264 C3268 1.385 . S
C3265 H3240 0.951 . S
C3265 C3263 1.388 . S
C3265 C3266 1.366 . S
C3266 C3265 1.366 . S
C3266 C3267 1.414 . S
C3266 C3269 1.499 . S
C3267 H3241 0.950 . S
C3267 C3266 1.414 . S
C3267 C3268 1.374 . S
C3268 H3242 0.950 . S
C3268 C3264 1.385 . S
C3268 C3267 1.374 . S
C3269 C3266 1.499 . S
C3269 C3270 1.342 1_565 S
C3269 C3271 1.389 . S
C3270 H3243 0.949 . S
C3270 C3256 1.406 . S
C3270 C3269 1.342 1_545 S
C3271 C3255 1.406 . S
C3271 C3269 1.389 . S
C3271 C3272 1.524 . S
C3272 C3271 1.524 . S
C3272 C3273 1.397 . S
C3272 C3277 1.363 . S
C3273 H3244 0.950 . S
C3273 C3272 1.397 . S
C3273 C3274 1.334 . S
C3274 H3245 0.950 . S
C3274 C3273 1.334 . S
C3274 C3275 1.287 . S
C3275 C3274 1.287 . S
C3275 C3276 1.524 . S
C3275 H3278 0.999 . S
C3276 H3246 0.950 . S
C3276 C3275 1.524 . S
C3276 C3277 1.415 . S
C3277 H3247 0.950 . S
C3277 C3272 1.363 . S
C3277 C3276 1.415 . S
H3278 C3275 0.999 . S
H3279 C3260 0.913 . S
H3280 C3298 0.951 . S
H3281 C3300 0.951 . S
H3282 C3302 0.950 . S
H3283 C3303 0.950 . S
H3284 C3305 0.950 . S
H3285 C3308 0.950 . S
H3286 C3309 0.950 . S
H3287 C3311 0.950 . S
H3288 C3312 0.950 . S
H3289 C3313 0.951 . S
H3290 C3315 0.951 . S
H3291 C3317 0.950 . S
H3292 C3318 0.950 . S
H3293 C3320 0.950 . S
H3294 C3323 0.950 . S
H3295 C3324 0.950 . S
H3296 C3326 0.950 . S
H3297 C3327 0.950 . S
C3298 H3280 0.951 . S
C3298 C3299 1.366 . S
C3298 C3300 1.388 . S
C3299 C3298 1.366 . S
C3299 C3303 1.385 . S
C3300 H3281 0.951 . S
C3300 C3298 1.388 . S
C3300 C3301 1.366 . S
C3301 C3300 1.366 . S
C3301 C3302 1.414 . S
C3301 C3304 1.499 . S
C3302 H3282 0.950 . S
C3302 C3301 1.414 . S
C3302 C3303 1.374 . S
C3303 H3283 0.950 . S
C3303 C3299 1.385 . S
C3303 C3302 1.374 . S
C3304 C3301 1.499 . S
C3304 C3305 1.373 . S
C3304 C3306 1.389 . S
C3305 H3284 0.950 . S
C3305 C3304 1.373 . S
C3305 C3321 1.377 . S
C3306 C3304 1.389 . S
C3306 C3307 1.524 . S
C3306 C3320 1.377 . S
C3307 C3306 1.524 . S
C3307 C3308 1.397 . S
C3307 C3312 1.363 . S
C3308 H3285 0.950 . S
C3308 C3307 1.397 . S
C3308 C3309 1.334 . S
C3309 H3286 0.950 . S
C3309 C3308 1.334 . S
C3309 C3310 1.287 . S
C3310 C3309 1.287 . S
C3310 C3311 1.524 . S
C3310 H3329 0.913 . S
C3311 H3287 0.950 . S
C3311 C3310 1.524 . S
C3311 C3312 1.415 . S
C3312 H3288 0.950 . S
C3312 C3307 1.363 . S
C3312 C3311 1.415 . S
C3313 H3289 0.951 . S
C3313 C3314 1.366 . S
C3313 C3315 1.388 . S
C3314 C3313 1.366 . S
C3314 C3318 1.385 . S
C3315 H3290 0.951 . S
C3315 C3313 1.388 . S
C3315 C3316 1.366 . S
C3316 C3315 1.366 . S
C3316 C3317 1.414 . S
C3316 C3319 1.499 . S
C3317 H3291 0.950 . S
C3317 C3316 1.414 . S
C3317 C3318 1.374 . S
C3318 H3292 0.950 . S
C3318 C3314 1.385 . S
C3318 C3317 1.374 . S
C3319 C3316 1.499 . S
C3319 C3320 1.373 . S
C3319 C3321 1.389 . S
C3320 H3293 0.950 . S
C3320 C3306 1.377 . S
C3320 C3319 1.373 . S
C3321 C3305 1.377 . S
C3321 C3319 1.389 . S
C3321 C3322 1.524 . S
C3322 C3321 1.524 . S
C3322 C3323 1.397 . S
C3322 C3327 1.363 . S
C3323 H3294 0.950 . S
C3323 C3322 1.397 . S
C3323 C3324 1.334 . S
C3324 H3295 0.950 . S
C3324 C3323 1.334 . S
C3324 C3325 1.287 . S
C3325 C3324 1.287 . S
C3325 C3326 1.524 . S
C3325 H3328 0.999 . S
C3326 H3296 0.950 . S
C3326 C3325 1.524 . S
C3326 C3327 1.415 . S
C3327 H3297 0.950 . S
C3327 C3322 1.363 . S
C3327 C3326 1.415 . S
H3328 C3325 0.999 . S
H3329 C3310 0.913 . S
H3330 C3348 0.951 . S
H3331 C3350 0.951 . S
H3332 C3352 0.950 . S
H3333 C3353 0.950 . S
H3334 C3355 0.950 . S
H3335 C3358 0.950 . S
H3336 C3359 0.950 . S
H3337 C3361 0.950 . S
H3338 C3362 0.950 . S
H3339 C3363 0.951 . S
H3340 C3365 0.951 . S
H3341 C3367 0.950 . S
H3342 C3368 0.950 . S
H3343 C3370 0.950 . S
H3344 C3373 0.950 . S
H3345 C3374 0.950 . S
H3346 C3376 0.950 . S
H3347 C3377 0.950 . S
C3348 H3330 0.951 . S
C3348 C3349 1.366 . S
C3348 C3350 1.388 . S
C3349 C3348 1.366 . S
C3349 C3353 1.385 . S
C3350 H3331 0.951 . S
C3350 C3348 1.388 . S
C3350 C3351 1.366 . S
C3351 C3350 1.366 . S
C3351 C3352 1.414 . S
C3351 C3354 1.499 . S
C3352 H3332 0.950 . S
C3352 C3351 1.414 . S
C3352 C3353 1.374 . S
C3353 H3333 0.950 . S
C3353 C3349 1.385 . S
C3353 C3352 1.374 . S
C3354 C3351 1.499 . S
C3354 C3355 1.373 . S
C3354 C3356 1.389 . S
C3355 H3334 0.950 . S
C3355 C3354 1.373 . S
C3355 C3371 1.377 . S
C3356 C3354 1.389 . S
C3356 C3357 1.524 . S
C3356 C3370 1.377 . S
C3357 C3356 1.524 . S
C3357 C3358 1.397 . S
C3357 C3362 1.363 . S
C3358 H3335 0.950 . S
C3358 C3357 1.397 . S
C3358 C3359 1.334 . S
C3359 H3336 0.950 . S
C3359 C3358 1.334 . S
C3359 C3360 1.287 . S
C3360 C3359 1.287 . S
C3360 C3361 1.524 . S
C3360 H3379 0.913 . S
C3361 H3337 0.950 . S
C3361 C3360 1.524 . S
C3361 C3362 1.415 . S
C3362 H3338 0.950 . S
C3362 C3357 1.363 . S
C3362 C3361 1.415 . S
C3363 H3339 0.951 . S
C3363 C3364 1.366 . S
C3363 C3365 1.388 . S
C3364 C3363 1.366 . S
C3364 C3368 1.385 . S
C3365 H3340 0.951 . S
C3365 C3363 1.388 . S
C3365 C3366 1.366 . S
C3366 C3365 1.366 . S
C3366 C3367 1.414 . S
C3366 C3369 1.499 . S
C3367 H3341 0.950 . S
C3367 C3366 1.414 . S
C3367 C3368 1.374 . S
C3368 H3342 0.950 . S
C3368 C3364 1.385 . S
C3368 C3367 1.374 . S
C3369 C3366 1.499 . S
C3369 C3370 1.373 . S
C3369 C3371 1.389 . S
C3370 H3343 0.950 . S
C3370 C3356 1.377 . S
C3370 C3369 1.373 . S
C3371 C3355 1.377 . S
C3371 C3369 1.389 . S
C3371 C3372 1.524 . S
C3372 C3371 1.524 . S
C3372 C3373 1.397 . S
C3372 C3377 1.363 . S
C3373 H3344 0.950 . S
C3373 C3372 1.397 . S
C3373 C3374 1.334 . S
C3374 H3345 0.950 . S
C3374 C3373 1.334 . S
C3374 C3375 1.287 . S
C3375 C3374 1.287 . S
C3375 C3376 1.524 . S
C3375 H3378 0.999 . S
C3376 H3346 0.950 . S
C3376 C3375 1.524 . S
C3376 C3377 1.415 . S
C3377 H3347 0.950 . S
C3377 C3372 1.363 . S
C3377 C3376 1.415 . S
H3378 C3375 0.999 . S
H3379 C3360 0.913 . S
H3380 C3398 0.951 . S
H3381 C3400 0.951 . S
H3382 C3402 0.950 . S
H3383 C3403 0.950 . S
H3384 C3405 0.950 . S
H3385 C3408 0.950 . S
H3386 C3409 0.950 . S
H3387 C3411 0.950 . S
H3388 C3412 0.950 . S
H3389 C3413 0.951 . S
H3390 C3415 0.951 . S
H3391 C3417 0.950 . S
H3392 C3418 0.950 . S
H3393 C3420 0.950 . S
H3394 C3423 0.950 . S
H3395 C3424 0.950 . S
H3396 C3426 0.950 . S
H3397 C3427 0.950 . S
C3398 H3380 0.951 . S
C3398 C3399 1.366 . S
C3398 C3400 1.388 . S
C3399 C3398 1.366 . S
C3399 C3403 1.385 . S
C3400 H3381 0.951 . S
C3400 C3398 1.388 . S
C3400 C3401 1.366 . S
C3401 C3400 1.366 . S
C3401 C3402 1.414 . S
C3401 C3404 1.499 . S
C3402 H3382 0.950 . S
C3402 C3401 1.414 . S
C3402 C3403 1.374 . S
C3403 H3383 0.950 . S
C3403 C3399 1.385 . S
C3403 C3402 1.374 . S
C3404 C3401 1.499 . S
C3404 C3405 1.373 1_554 S
C3404 C3406 1.389 . S
C3405 H3384 0.950 . S
C3405 C3404 1.373 1_556 S
C3405 C3421 1.377 . S
C3406 C3404 1.389 . S
C3406 C3407 1.524 . S
C3406 C3420 1.377 . S
C3407 C3406 1.524 . S
C3407 C3408 1.397 . S
C3407 C3412 1.363 . S
C3408 H3385 0.950 . S
C3408 C3407 1.397 . S
C3408 C3409 1.334 . S
C3409 H3386 0.950 . S
C3409 C3408 1.334 . S
C3409 C3410 1.287 . S
C3410 C3409 1.287 . S
C3410 C3411 1.524 . S
C3410 H3429 0.913 . S
C3411 H3387 0.950 . S
C3411 C3410 1.524 . S
C3411 C3412 1.415 . S
C3412 H3388 0.950 . S
C3412 C3407 1.363 . S
C3412 C3411 1.415 . S
C3413 H3389 0.951 . S
C3413 C3414 1.366 . S
C3413 C3415 1.388 . S
C3414 C3413 1.366 . S
C3414 C3418 1.385 . S
C3415 H3390 0.951 . S
C3415 C3413 1.388 . S
C3415 C3416 1.366 . S
C3416 C3415 1.366 . S
C3416 C3417 1.414 . S
C3416 C3419 1.499 . S
C3417 H3391 0.950 . S
C3417 C3416 1.414 . S
C3417 C3418 1.374 . S
C3418 H3392 0.950 . S
C3418 C3414 1.385 . S
C3418 C3417 1.374 . S
C3419 C3416 1.499 . S
C3419 C3420 1.373 1_556 S
C3419 C3421 1.389 . S
C3420 H3393 0.950 . S
C3420 C3406 1.377 . S
C3420 C3419 1.373 1_554 S
C3421 C3405 1.377 . S
C3421 C3419 1.389 . S
C3421 C3422 1.524 . S
C3422 C3421 1.524 . S
C3422 C3423 1.397 . S
C3422 C3427 1.363 . S
C3423 H3394 0.950 . S
C3423 C3422 1.397 . S
C3423 C3424 1.334 . S
C3424 H3395 0.950 . S
C3424 C3423 1.334 . S
C3424 C3425 1.287 . S
C3425 C3424 1.287 . S
C3425 C3426 1.524 . S
C3425 H3428 0.999 . S
C3426 H3396 0.950 . S
C3426 C3425 1.524 . S
C3426 C3427 1.415 . S
C3427 H3397 0.950 . S
C3427 C3422 1.363 . S
C3427 C3426 1.415 . S
H3428 C3425 0.999 . S
H3429 C3410 0.913 . S
H3430 C3448 0.901 1_655 S
H3431 C3450 0.923 1_655 S
H3432 C3452 0.950 . S
H3433 C3453 0.950 . S
H3434 C3455 0.950 . S
H3435 C3458 0.950 . S
H3436 C3459 0.950 . S
H3437 C3461 0.950 1_655 S
H3438 C3462 0.950 1_655 S
H3439 C3463 0.951 . S
H3440 C3465 0.951 . S
H3441 C3467 0.950 1_655 S
H3442 C3468 0.885 1_655 S
H3443 C3470 0.950 . S
H3444 C3473 0.950 . S
H3445 C3474 1.030 . S
H3446 C3476 0.950 . S
H3447 C3477 0.950 . S
C3448 H3430 0.901 1_455 S
C3448 C3449 1.366 . S
C3448 C3450 1.388 . S
C3449 C3448 1.366 . S
C3449 C3453 1.385 . S
C3450 H3431 0.923 1_455 S
C3450 C3448 1.388 . S
C3450 C3451 1.366 . S
C3451 C3450 1.366 . S
C3451 C3452 1.414 . S
C3451 C3454 1.499 . S
C3452 H3432 0.950 . S
C3452 C3451 1.414 . S
C3452 C3453 1.374 . S
C3453 H3433 0.950 . S
C3453 C3449 1.385 . S
C3453 C3452 1.374 . S
C3454 C3451 1.499 . S
C3454 C3455 1.373 . S
C3454 C3456 1.389 . S
C3455 H3434 0.950 . S
C3455 C3454 1.373 . S
C3455 C3471 1.377 . S
C3456 C3454 1.389 . S
C3456 C3457 1.524 . S
C3456 C3470 1.377 . S
C3457 C3456 1.524 . S
C3457 C3458 1.397 . S
C3457 C3462 1.363 . S
C3458 H3435 0.950 . S
C3458 C3457 1.397 . S
C3458 C3459 1.334 . S
C3459 H3436 0.950 . S
C3459 C3458 1.334 . S
C3459 C3460 1.287 . S
C3460 C3459 1.287 . S
C3460 C3461 1.524 . S
C3460 H3479 0.913 . S
C3461 H3437 0.950 1_455 S
C3461 C3460 1.524 . S
C3461 C3462 1.415 . S
C3462 H3438 0.950 1_455 S
C3462 C3457 1.363 . S
C3462 C3461 1.415 . S
C3463 H3439 0.951 . S
C3463 C3464 1.366 . S
C3463 C3465 1.388 . S
C3464 C3463 1.366 . S
C3464 C3468 1.385 . S
C3465 H3440 0.951 . S
C3465 C3463 1.388 . S
C3465 C3466 1.366 . S
C3466 C3465 1.366 . S
C3466 C3467 1.414 . S
C3466 C3469 1.499 . S
C3467 H3441 0.950 1_455 S
C3467 C3466 1.414 . S
C3467 C3468 1.374 . S
C3468 H3442 0.885 1_455 S
C3468 C3464 1.385 . S
C3468 C3467 1.374 . S
C3469 C3466 1.499 . S
C3469 C3470 1.373 . S
C3469 C3471 1.389 . S
C3470 H3443 0.950 . S
C3470 C3456 1.377 . S
C3470 C3469 1.373 . S
C3471 C3455 1.377 . S
C3471 C3469 1.389 . S
C3471 C3472 1.524 . S
C3472 C3471 1.524 . S
C3472 C3473 1.397 . S
C3472 C3477 1.363 . S
C3473 H3444 0.950 . S
C3473 C3472 1.397 . S
C3473 C3474 1.334 . S
C3474 H3445 1.030 . S
C3474 C3473 1.334 . S
C3474 C3475 1.287 . S
C3475 C3474 1.287 . S
C3475 C3476 1.524 . S
C3475 H3478 0.999 . S
C3476 H3446 0.950 . S
C3476 C3475 1.524 . S
C3476 C3477 1.415 . S
C3477 H3447 0.950 . S
C3477 C3472 1.363 . S
C3477 C3476 1.415 . S
H3478 C3475 0.999 . S
H3479 C3460 0.913 . S
H3480 C3498 0.951 . S
H3481 C3500 0.951 . S
H3482 C3502 0.950 . S
H3483 C3503 0.950 . S
H3484 C3505 0.950 . S
H3485 C3508 0.950 . S
H3486 C3509 0.950 . S
H3487 C3511 0.950 . S
H3488 C3512 0.950 . S
H3489 C3513 0.951 . S
H3490 C3515 0.951 . S
H3491 C3517 0.950 . S
H3492 C3518 0.950 . S
H3493 C3520 0.950 . S
H3494 C3523 0.950 . S
H3495 C3524 0.950 . S
H3496 C3526 0.950 . S
H3497 C3527 0.950 . S
C3498 H3480 0.951 . S
C3498 C3499 1.366 . S
C3498 C3500 1.388 . S
C3499 C3498 1.366 . S
C3499 C3503 1.385 . S
C3500 H3481 0.951 . S
C3500 C3498 1.388 . S
C3500 C3501 1.366 . S
C3501 C3500 1.366 . S
C3501 C3502 1.414 . S
C3501 C3504 1.499 . S
C3502 H3482 0.950 . S
C3502 C3501 1.414 . S
C3502 C3503 1.374 . S
C3503 H3483 0.950 . S
C3503 C3499 1.385 . S
C3503 C3502 1.374 . S
C3504 C3501 1.499 . S
C3504 C3505 1.373 . S
C3504 C3506 1.389 . S
C3505 H3484 0.950 . S
C3505 C3504 1.373 . S
C3505 C3521 1.377 . S
C3506 C3504 1.389 . S
C3506 C3507 1.524 . S
C3506 C3520 1.377 . S
C3507 C3506 1.524 . S
C3507 C3508 1.397 . S
C3507 C3512 1.363 . S
C3508 H3485 0.950 . S
C3508 C3507 1.397 . S
C3508 C3509 1.334 . S
C3509 H3486 0.950 . S
C3509 C3508 1.334 . S
C3509 C3510 1.287 . S
C3510 C3509 1.287 . S
C3510 C3511 1.524 . S
C3510 H3529 0.913 . S
C3511 H3487 0.950 . S
C3511 C3510 1.524 . S
C3511 C3512 1.415 . S
C3512 H3488 0.950 . S
C3512 C3507 1.363 . S
C3512 C3511 1.415 . S
C3513 H3489 0.951 . S
C3513 C3514 1.366 . S
C3513 C3515 1.388 . S
C3514 C3513 1.366 . S
C3514 C3518 1.385 . S
C3515 H3490 0.951 . S
C3515 C3513 1.388 . S
C3515 C3516 1.366 . S
C3516 C3515 1.366 . S
C3516 C3517 1.414 . S
C3516 C3519 1.499 . S
C3517 H3491 0.950 . S
C3517 C3516 1.414 . S
C3517 C3518 1.374 . S
C3518 H3492 0.950 . S
C3518 C3514 1.385 . S
C3518 C3517 1.374 . S
C3519 C3516 1.499 . S
C3519 C3520 1.373 . S
C3519 C3521 1.389 . S
C3520 H3493 0.950 . S
C3520 C3506 1.377 . S
C3520 C3519 1.373 . S
C3521 C3505 1.377 . S
C3521 C3519 1.389 . S
C3521 C3522 1.524 . S
C3522 C3521 1.524 . S
C3522 C3523 1.397 . S
C3522 C3527 1.363 . S
C3523 H3494 0.950 . S
C3523 C3522 1.397 . S
C3523 C3524 1.334 . S
C3524 H3495 0.950 . S
C3524 C3523 1.334 . S
C3524 C3525 1.287 . S
C3525 C3524 1.287 . S
C3525 C3526 1.524 . S
C3525 H3528 0.999 . S
C3526 H3496 0.950 . S
C3526 C3525 1.524 . S
C3526 C3527 1.415 . S
C3527 H3497 0.950 . S
C3527 C3522 1.363 . S
C3527 C3526 1.415 . S
H3528 C3525 0.999 . S
H3529 C3510 0.913 . S
H3530 C3548 0.951 . S
H3531 C3550 0.951 . S
H3532 C3552 0.950 . S
H3533 C3553 0.950 . S
H3534 C3555 0.950 . S
H3535 C3558 0.950 . S
H3536 C3559 0.950 . S
H3537 C3561 0.950 . S
H3538 C3562 0.950 . S
H3539 C3563 0.951 . S
H3540 C3565 0.951 . S
H3541 C3567 0.950 . S
H3542 C3568 0.950 . S
H3543 C3570 0.950 . S
H3544 C3573 0.950 . S
H3545 C3574 0.950 . S
H3546 C3576 0.950 . S
H3547 C3577 0.950 . S
C3548 H3530 0.951 . S
C3548 C3549 1.366 . S
C3548 C3550 1.388 . S
C3549 C3548 1.366 . S
C3549 C3553 1.385 . S
C3550 H3531 0.951 . S
C3550 C3548 1.388 . S
C3550 C3551 1.366 . S
C3551 C3550 1.366 . S
C3551 C3552 1.414 . S
C3551 C3554 1.499 . S
C3552 H3532 0.950 . S
C3552 C3551 1.414 . S
C3552 C3553 1.374 . S
C3553 H3533 0.950 . S
C3553 C3549 1.385 . S
C3553 C3552 1.374 . S
C3554 C3551 1.499 . S
C3554 C3555 1.373 . S
C3554 C3556 1.389 . S
C3555 H3534 0.950 . S
C3555 C3554 1.373 . S
C3555 C3571 1.377 . S
C3556 C3554 1.389 . S
C3556 C3557 1.524 . S
C3556 C3570 1.377 . S
C3557 C3556 1.524 . S
C3557 C3558 1.397 . S
C3557 C3562 1.363 . S
C3558 H3535 0.950 . S
C3558 C3557 1.397 . S
C3558 C3559 1.334 . S
C3559 H3536 0.950 . S
C3559 C3558 1.334 . S
C3559 C3560 1.287 . S
C3560 C3559 1.287 . S
C3560 C3561 1.524 . S
C3560 H3579 0.913 . S
C3561 H3537 0.950 . S
C3561 C3560 1.524 . S
C3561 C3562 1.415 . S
C3562 H3538 0.950 . S
C3562 C3557 1.363 . S
C3562 C3561 1.415 . S
C3563 H3539 0.951 . S
C3563 C3564 1.366 . S
C3563 C3565 1.388 . S
C3564 C3563 1.366 . S
C3564 C3568 1.385 . S
C3565 H3540 0.951 . S
C3565 C3563 1.388 . S
C3565 C3566 1.366 . S
C3566 C3565 1.366 . S
C3566 C3567 1.414 . S
C3566 C3569 1.499 . S
C3567 H3541 0.950 . S
C3567 C3566 1.414 . S
C3567 C3568 1.374 . S
C3568 H3542 0.950 . S
C3568 C3564 1.385 . S
C3568 C3567 1.374 . S
C3569 C3566 1.499 . S
C3569 C3570 1.373 . S
C3569 C3571 1.389 . S
C3570 H3543 0.950 . S
C3570 C3556 1.377 . S
C3570 C3569 1.373 . S
C3571 C3555 1.377 . S
C3571 C3569 1.389 . S
C3571 C3572 1.524 . S
C3572 C3571 1.524 . S
C3572 C3573 1.397 . S
C3572 C3577 1.363 . S
C3573 H3544 0.950 . S
C3573 C3572 1.397 . S
C3573 C3574 1.334 . S
C3574 H3545 0.950 . S
C3574 C3573 1.334 . S
C3574 C3575 1.287 . S
C3575 C3574 1.287 . S
C3575 C3576 1.524 . S
C3575 H3578 0.999 . S
C3576 H3546 0.950 . S
C3576 C3575 1.524 . S
C3576 C3577 1.415 . S
C3577 H3547 0.950 . S
C3577 C3572 1.363 . S
C3577 C3576 1.415 . S
H3578 C3575 0.999 . S
H3579 C3560 0.913 . S
H3580 C3598 0.951 . S
H3581 C3600 0.951 . S
H3582 C3602 0.950 . S
H3583 C3603 0.950 . S
H3584 C3605 0.950 . S
H3585 C3608 0.950 . S
H3586 C3609 0.950 . S
H3587 C3611 0.950 . S
H3588 C3612 0.950 . S
H3589 C3613 0.951 . S
H3590 C3615 0.951 . S
H3591 C3617 0.950 . S
H3592 C3618 0.950 . S
H3593 C3620 0.950 . S
H3594 C3623 0.950 . S
H3595 C3624 0.950 . S
H3596 C3626 0.950 . S
H3597 C3627 0.950 . S
C3598 H3580 0.951 . S
C3598 C3599 1.366 . S
C3598 C3600 1.388 . S
C3599 C3598 1.366 . S
C3599 C3603 1.385 . S
C3600 H3581 0.951 . S
C3600 C3598 1.388 . S
C3600 C3601 1.366 . S
C3601 C3600 1.366 . S
C3601 C3602 1.414 . S
C3601 C3604 1.499 . S
C3602 H3582 0.950 . S
C3602 C3601 1.414 . S
C3602 C3603 1.374 . S
C3603 H3583 0.950 . S
C3603 C3599 1.385 . S
C3603 C3602 1.374 . S
C3604 C3601 1.499 . S
C3604 C3605 1.373 . S
C3604 C3606 1.389 . S
C3605 H3584 0.950 . S
C3605 C3604 1.373 . S
C3605 C3621 1.377 1_556 S
C3606 C3604 1.389 . S
C3606 C3607 1.524 . S
C3606 C3620 1.377 1_556 S
C3607 C3606 1.524 . S
C3607 C3608 1.397 . S
C3607 C3612 1.363 . S
C3608 H3585 0.950 . S
C3608 C3607 1.397 . S
C3608 C3609 1.334 . S
C3609 H3586 0.950 . S
C3609 C3608 1.334 . S
C3609 C3610 1.287 . S
C3610 C3609 1.287 . S
C3610 C3611 1.524 . S
C3610 H3629 0.913 . S
C3611 H3587 0.950 . S
C3611 C3610 1.524 . S
C3611 C3612 1.415 . S
C3612 H3588 0.950 . S
C3612 C3607 1.363 . S
C3612 C3611 1.415 . S
C3613 H3589 0.951 . S
C3613 C3614 1.366 . S
C3613 C3615 1.388 . S
C3614 C3613 1.366 . S
C3614 C3618 1.385 . S
C3615 H3590 0.951 . S
C3615 C3613 1.388 . S
C3615 C3616 1.366 . S
C3616 C3615 1.366 . S
C3616 C3617 1.414 . S
C3616 C3619 1.499 . S
C3617 H3591 0.950 . S
C3617 C3616 1.414 . S
C3617 C3618 1.374 . S
C3618 H3592 0.950 . S
C3618 C3614 1.385 . S
C3618 C3617 1.374 . S
C3619 C3616 1.499 . S
C3619 C3620 1.373 . S
C3619 C3621 1.389 . S
C3620 H3593 0.950 . S
C3620 C3606 1.377 1_554 S
C3620 C3619 1.373 . S
C3621 C3605 1.377 1_554 S
C3621 C3619 1.389 . S
C3621 C3622 1.524 . S
C3622 C3621 1.524 . S
C3622 C3623 1.397 . S
C3622 C3627 1.363 . S
C3623 H3594 0.950 . S
C3623 C3622 1.397 . S
C3623 C3624 1.334 . S
C3624 H3595 0.950 . S
C3624 C3623 1.334 . S
C3624 C3625 1.287 . S
C3625 C3624 1.287 . S
C3625 C3626 1.524 . S
C3625 H3628 0.999 . S
C3626 H3596 0.950 . S
C3626 C3625 1.524 . S
C3626 C3627 1.415 . S
C3627 H3597 0.950 . S
C3627 C3622 1.363 . S
C3627 C3626 1.415 . S
H3628 C3625 0.999 . S
H3629 C3610 0.913 . S
H3630 C3648 0.951 . S
H3631 C3650 0.951 . S
H3632 C3652 0.950 . S
H3633 C3653 0.950 . S
H3634 C3655 0.950 . S
H3635 C3658 0.950 . S
H3636 C3659 0.950 . S
H3637 C3661 0.950 . S
H3638 C3662 0.950 . S
H3639 C3663 0.951 . S
H3640 C3665 0.951 . S
H3641 C3667 0.950 . S
H3642 C3668 0.950 . S
H3643 C3670 1.021 . S
H3644 C3673 0.950 . S
H3645 C3674 0.950 . S
H3646 C3676 0.950 . S
H3647 C3677 0.950 . S
C3648 H3630 0.951 . S
C3648 C3649 1.366 . S
C3648 C3650 1.388 . S
C3649 C3648 1.366 . S
C3649 C3653 1.385 . S
C3650 H3631 0.951 . S
C3650 C3648 1.388 . S
C3650 C3651 1.366 . S
C3651 C3650 1.366 . S
C3651 C3652 1.414 . S
C3651 C3654 1.499 . S
C3652 H3632 0.950 . S
C3652 C3651 1.414 . S
C3652 C3653 1.374 . S
C3653 H3633 0.950 . S
C3653 C3649 1.385 . S
C3653 C3652 1.374 . S
C3654 C3651 1.499 . S
C3654 C3655 1.373 . S
C3654 C3656 1.389 . S
C3655 H3634 0.950 . S
C3655 C3654 1.373 . S
C3655 C3671 1.377 . S
C3656 C3654 1.389 . S
C3656 C3657 1.524 1_655 S
C3656 C3670 1.377 . S
C3657 C3656 1.524 1_455 S
C3657 C3658 1.397 . S
C3657 C3662 1.363 . S
C3658 H3635 0.950 . S
C3658 C3657 1.397 . S
C3658 C3659 1.334 . S
C3659 H3636 0.950 . S
C3659 C3658 1.334 . S
C3659 C3660 1.287 . S
C3660 C3659 1.287 . S
C3660 C3661 1.524 . S
C3660 H3679 0.913 . S
C3661 H3637 0.950 . S
C3661 C3660 1.524 . S
C3661 C3662 1.415 . S
C3662 H3638 0.950 . S
C3662 C3657 1.363 . S
C3662 C3661 1.415 . S
C3663 H3639 0.951 . S
C3663 C3664 1.366 . S
C3663 C3665 1.388 . S
C3664 C3663 1.366 . S
C3664 C3668 1.385 . S
C3665 H3640 0.951 . S
C3665 C3663 1.388 . S
C3665 C3666 1.366 . S
C3666 C3665 1.366 . S
C3666 C3667 1.414 . S
C3666 C3669 1.499 . S
C3667 H3641 0.950 . S
C3667 C3666 1.414 . S
C3667 C3668 1.374 . S
C3668 H3642 0.950 . S
C3668 C3664 1.385 . S
C3668 C3667 1.374 . S
C3669 C3666 1.499 . S
C3669 C3670 1.373 . S
C3669 C3671 1.389 . S
C3670 H3643 1.021 . S
C3670 C3656 1.377 . S
C3670 C3669 1.373 . S
C3671 C3655 1.377 . S
C3671 C3669 1.389 . S
C3671 C3672 1.524 . S
C3672 C3671 1.524 . S
C3672 C3673 1.397 . S
C3672 C3677 1.363 . S
C3673 H3644 0.950 . S
C3673 C3672 1.397 . S
C3673 C3674 1.334 . S
C3674 H3645 0.950 . S
C3674 C3673 1.334 . S
C3674 C3675 1.287 . S
C3675 C3674 1.287 . S
C3675 C3676 1.524 . S
C3675 H3678 0.999 . S
C3676 H3646 0.950 . S
C3676 C3675 1.524 . S
C3676 C3677 1.415 . S
C3677 H3647 0.950 . S
C3677 C3672 1.363 . S
C3677 C3676 1.415 . S
H3678 C3675 0.999 . S
H3679 C3660 0.913 . S
C1299 C975 2.027 . S
C1314 C15 2.019 . S
C1349 C55 2.026 . S
C1364 C375 2.034 . S
C1399 C1055 2.027 . S
C1414 C95 2.019 . S
C1449 C135 2.019 . S
C1464 C455 2.027 . S
C1499 C175 2.019 . S
C1514 C1135 2.027 . S
C1549 C215 2.019 . S
C1564 C535 2.027 . S
C1599 C255 2.018 . S
C1614 C1215 2.027 . S
C1649 C615 2.034 . S
C1664 C295 2.026 . S
C1699 C655 2.019 . S
C1714 C335 2.027 . S
C1749 C415 2.027 . S
C1764 C735 2.018 . S
C1799 C815 2.019 . S
C1814 C495 2.027 . S
C1849 C895 2.019 . S
C1864 C575 2.027 . S
C1899 C1015 2.028 . S
C1914 C695 2.019 . S
C1949 C775 2.027 . S
C1964 C1095 2.034 . S
C1999 C1175 2.034 . S
C2014 C855 2.026 . S
C2049 C1255 2.027 . S
C2064 C935 2.019 . S
C2099 C842 1.764 . S
C2114 C2 1.764 . S
C2149 C882 1.764 . S
C2164 C42 1.763 . S
C2199 C82 1.764 . S
C2214 C922 1.764 . S
C2249 C122 1.764 . S
C2264 C802 1.764 . S
C2299 C762 1.764 . S
C2314 C162 1.763 . S
C2349 C202 1.764 . S
C2364 C642 1.764 . S
C2399 C242 1.764 . S
C2414 C682 1.764 . S
C2449 C282 1.764 . S
C2464 C722 1.764 . S
C2499 C322 1.803 . S
C2514 C1162 1.803 . S
C2549 C362 1.803 . S
C2564 C1202 1.803 . S
C2599 C1242 1.803 . S
C2614 C402 1.803 . S
C2649 C442 1.803 . S
C2664 C1122 1.803 . S
C2699 C1082 1.803 . S
C2714 C482 1.803 . S
C2749 C522 1.803 . S
C2764 C962 1.803 . S
C2799 C1002 1.803 . S
C2814 C562 1.803 . S
C2849 C1042 1.803 . S
C2864 C602 1.803 . S
C2899 C261 1.660 . S
C2914 C21 1.661 . S
C2949 C301 1.661 . S
C2964 C61 1.660 . S
C2999 C181 1.660 . S
C3014 C101 1.660 . S
C3049 C221 1.660 . S
C3064 C141 1.661 . S
C3099 C341 1.713 . S
C3114 C581 1.713 . S
C3149 C621 1.713 . S
C3164 C381 1.713 . S
C3199 C421 1.713 . S
C3214 C501 1.713 . S
C3249 C541 1.713 . S
C3264 C461 1.713 . S
C3299 C661 1.661 . S
C3314 C901 1.660 . S
C3349 C701 1.660 . S
C3364 C941 1.660 . S
C3399 C741 1.661 . S
C3414 C821 1.660 . S
C3449 C781 1.661 . S
C3464 C861 1.660 . S
C3499 C1221 1.713 . S
C3514 C981 1.713 . S
C3549 C1261 1.713 . S
C3564 C1021 1.713 . S
C3599 C1061 1.713 . S
C3614 C1141 1.713 . S
C3649 C1181 1.713 . S
C3664 C1101 1.713 . S
