# Generated by pormake.
# Topology wju, (5)-cn, num edge types: 1
# Building blocks:
#     Node 0, Type 0, BuildingBlock: XOMCOT_clean_sbu_0, # of connection points: 5
#     Node 1, Type 0, BuildingBlock: XOMCOT_clean_sbu_0, # of connection points: 5
#     Node 2, Type 0, BuildingBlock: XOMCOT_clean_sbu_0, # of connection points: 5
#     Node 3, Type 0, BuildingBlock: XOMCOT_clean_sbu_0, # of connection points: 5
#     Node 4, Type 0, BuildingBlock: XOMCOT_clean_sbu_0, # of connection points: 5
#     Node 5, Type 0, BuildingBlock: XOMCOT_clean_sbu_0, # of connection points: 5
#     Node 6, Type 0, BuildingBlock: XOMCOT_clean_sbu_0, # of connection points: 5
#     Node 7, Type 0, BuildingBlock: XOMCOT_clean_sbu_0, # of connection points: 5
#     Node 8, Type 0, BuildingBlock: XOMCOT_clean_sbu_0, # of connection points: 5
#     Node 9, Type 0, BuildingBlock: XOMCOT_clean_sbu_0, # of connection points: 5
#     Node 10, Type 0, BuildingBlock: XOMCOT_clean_sbu_0, # of connection points: 5
#     Node 11, Type 0, BuildingBlock: XOMCOT_clean_sbu_0, # of connection points: 5
#     Edge 12, Type (0, 0), BuildingBlock: ZUJKAS_clean_linker_0, # of connection points: 2
#     Edge 13, Type (0, 0), BuildingBlock: ZUJKAS_clean_linker_0, # of connection points: 2
#     Edge 14, Type (0, 0), BuildingBlock: ZUJKAS_clean_linker_0, # of connection points: 2
#     Edge 15, Type (0, 0), BuildingBlock: ZUJKAS_clean_linker_0, # of connection points: 2
#     Edge 16, Type (0, 0), BuildingBlock: ZUJKAS_clean_linker_0, # of connection points: 2
#     Edge 17, Type (0, 0), BuildingBlock: ZUJKAS_clean_linker_0, # of connection points: 2
#     Edge 18, Type (0, 0), BuildingBlock: ZUJKAS_clean_linker_0, # of connection points: 2
#     Edge 19, Type (0, 0), BuildingBlock: ZUJKAS_clean_linker_0, # of connection points: 2
#     Edge 20, Type (0, 0), BuildingBlock: ZUJKAS_clean_linker_0, # of connection points: 2
#     Edge 21, Type (0, 0), BuildingBlock: ZUJKAS_clean_linker_0, # of connection points: 2
#     Edge 22, Type (0, 0), BuildingBlock: ZUJKAS_clean_linker_0, # of connection points: 2
#     Edge 23, Type (0, 0), BuildingBlock: ZUJKAS_clean_linker_0, # of connection points: 2
#     Edge 24, Type (0, 0), BuildingBlock: ZUJKAS_clean_linker_0, # of connection points: 2
#     Edge 25, Type (0, 0), BuildingBlock: ZUJKAS_clean_linker_0, # of connection points: 2
#     Edge 26, Type (0, 0), BuildingBlock: ZUJKAS_clean_linker_0, # of connection points: 2
#     Edge 27, Type (0, 0), BuildingBlock: ZUJKAS_clean_linker_0, # of connection points: 2
#     Edge 28, Type (0, 0), BuildingBlock: ZUJKAS_clean_linker_0, # of connection points: 2
#     Edge 29, Type (0, 0), BuildingBlock: ZUJKAS_clean_linker_0, # of connection points: 2
#     Edge 30, Type (0, 0), BuildingBlock: ZUJKAS_clean_linker_0, # of connection points: 2
#     Edge 31, Type (0, 0), BuildingBlock: ZUJKAS_clean_linker_0, # of connection points: 2
#     Edge 32, Type (0, 0), BuildingBlock: ZUJKAS_clean_linker_0, # of connection points: 2
#     Edge 33, Type (0, 0), BuildingBlock: ZUJKAS_clean_linker_0, # of connection points: 2
#     Edge 34, Type (0, 0), BuildingBlock: ZUJKAS_clean_linker_0, # of connection points: 2
#     Edge 35, Type (0, 0), BuildingBlock: ZUJKAS_clean_linker_0, # of connection points: 2
#     Edge 36, Type (0, 0), BuildingBlock: ZUJKAS_clean_linker_0, # of connection points: 2
#     Edge 37, Type (0, 0), BuildingBlock: ZUJKAS_clean_linker_0, # of connection points: 2
#     Edge 38, Type (0, 0), BuildingBlock: ZUJKAS_clean_linker_0, # of connection points: 2
#     Edge 39, Type (0, 0), BuildingBlock: ZUJKAS_clean_linker_0, # of connection points: 2
#     Edge 40, Type (0, 0), BuildingBlock: ZUJKAS_clean_linker_0, # of connection points: 2
#     Edge 41, Type (0, 0), BuildingBlock: ZUJKAS_clean_linker_0, # of connection points: 2
# Relax obj value: 0.107
# Max RMSD: 0.150
# Mean RMSD: 0.150
data_MOF--net-wju--node1-XOMCOT_clean_sbu_0--edge1-ZUJKAS_clean_linker_0
_symmetry_space_group_name_H-M    P1
_symmetry_Int_Tables_number       1
_symmetry_cell_setting            triclinic
loop_
_symmetry_equiv_pos_as_xyz
'x, y, z'
_cell_length_a     35.487932
_cell_length_b     35.501652
_cell_length_c     127.90146
_cell_angle_alpha  89.891797
_cell_angle_beta   89.872082
_cell_angle_gamma 119.95305
loop_
_atom_site_label
_atom_site_type_symbol
_atom_site_fract_x
_atom_site_fract_y
_atom_site_fract_z
_atom_type_partial_charge
Co0 Co 0.32788 0.12127 0.09762 0.0
C1 C 0.33508 0.13524 0.12066 0.0
C2 C 0.2763 0.07777 0.11607 0.0
C3 C 0.27714 0.08025 0.12678 0.0
N4 N 0.31246 0.11217 0.11224 0.0
N5 N 0.31413 0.11623 0.12969 0.0
H6 H 0.36653 0.16453 0.12019 0.0
H7 H 0.2513 0.05221 0.11139 0.0
C8 C 0.24725 0.11165 0.08733 0.0
O9 O 0.27144 0.14519 0.08128 0.0
N10 N 0.34223 0.1283 0.08279 0.0
C11 C 0.37769 0.15941 0.07777 0.0
C12 C 0.37496 0.14883 0.06734 0.0
C13 C 0.31926 0.09864 0.07536 0.0
N14 N 0.33813 0.11062 0.06582 0.0
C15 C 0.38511 0.21234 0.09865 0.0
C16 C 0.32459 0.23902 0.10068 0.0
C17 C 0.36853 0.27019 0.09914 0.0
C18 C 0.39892 0.2563 0.09858 0.0
C19 C 0.31199 0.19462 0.10071 0.0
N20 N 0.34197 0.18179 0.09888 0.0
H21 H 0.40983 0.20331 0.09824 0.0
H22 H 0.27832 0.17094 0.10214 0.0
H23 H 0.4048 0.18716 0.08129 0.0
H24 H 0.28921 0.06882 0.07695 0.0
O25 O 0.38429 0.12994 0.10086 0.0
O26 O 0.32717 0.06597 0.09727 0.0
O27 O 0.26479 0.09929 0.09423 0.0
C28 C 0.36832 0.08859 0.09963 0.0
H29 H 0.25218 0.05734 0.13202 0.0
H30 H 0.39911 0.16722 0.06142 0.0
H31 H 0.30031 0.24875 0.10162 0.0
H32 H 0.43344 0.27941 0.09797 0.0
Co33 Co 0.19191 0.31755 0.43065 0.0
C34 C 0.1877 0.32664 0.45386 0.0
C35 C 0.19611 0.27313 0.4492 0.0
C36 C 0.19311 0.27287 0.45989 0.0
N37 N 0.19245 0.30651 0.44541 0.0
N38 N 0.1876 0.30628 0.46283 0.0
H39 H 0.18317 0.35457 0.45344 0.0
H40 H 0.20017 0.25017 0.44447 0.0
C41 C 0.11721 0.23424 0.42236 0.0
O42 O 0.10761 0.25661 0.41579 0.0
N43 N 0.19198 0.32689 0.41558 0.0
C44 C 0.17565 0.3477 0.40994 0.0
C45 C 0.18194 0.34373 0.39947 0.0
C46 C 0.20782 0.31056 0.40836 0.0
N47 N 0.20219 0.3204 0.39849 0.0
C48 C 0.16131 0.37729 0.4322 0.0
C49 C 0.07673 0.32079 0.43833 0.0
C50 C 0.09009 0.36482 0.43666 0.0
C51 C 0.13314 0.39311 0.43378 0.0
C52 C 0.10631 0.30593 0.43653 0.0
N53 N 0.14761 0.33396 0.43305 0.0
H54 H 0.19396 0.40021 0.42974 0.0
H55 H 0.09609 0.27226 0.43806 0.0
H56 H 0.15893 0.36367 0.41292 0.0
H57 H 0.22198 0.2906 0.41028 0.0
O58 O 0.24188 0.37435 0.43222 0.0
O59 O 0.24545 0.3151 0.42904 0.0
O60 O 0.1484 0.25378 0.42884 0.0
C61 C 0.26583 0.35697 0.43056 0.0
H62 H 0.19489 0.24978 0.46512 0.0
H63 H 0.17224 0.35699 0.39307 0.0
H64 H 0.04385 0.29817 0.44086 0.0
H65 H 0.14507 0.42754 0.43269 0.0
Co66 Co 0.88814 0.20415 0.76521 0.0
C67 C 0.87396 0.20105 0.78829 0.0
C68 C 0.93609 0.20894 0.784 0.0
C69 C 0.93365 0.20929 0.79471 0.0
N70 N 0.89884 0.20387 0.77998 0.0
N71 N 0.89467 0.20436 0.79741 0.0
H72 H 0.84189 0.19739 0.7877 0.0
H73 H 0.96332 0.21243 0.77942 0.0
C74 C 0.89618 0.12939 0.75666 0.0
O75 O 0.86399 0.12022 0.7502 0.0
N76 N 0.87962 0.20557 0.75019 0.0
C77 C 0.84702 0.20628 0.74493 0.0
C78 C 0.85758 0.21294 0.73448 0.0
C79 C 0.90981 0.21254 0.74281 0.0
N80 N 0.89708 0.21695 0.73315 0.0
C81 C 0.79764 0.1738 0.76698 0.0
C82 C 0.76887 0.08795 0.77189 0.0
C83 C 0.73839 0.10175 0.77049 0.0
C84 C 0.75351 0.14542 0.76825 0.0
C85 C 0.81345 0.11779 0.77039 0.0
N86 N 0.82714 0.1598 0.76742 0.0
H87 H 0.80765 0.20732 0.76546 0.0
H88 H 0.83661 0.10709 0.77177 0.0
H89 H 0.81806 0.20384 0.74827 0.0
H90 H 0.94115 0.21583 0.74455 0.0
O91 O 0.88184 0.25442 0.76696 0.0
O92 O 0.94434 0.25729 0.76366 0.0
O93 O 0.90813 0.16037 0.76322 0.0
C94 C 0.92321 0.27804 0.76528 0.0
H95 H 0.95843 0.21228 0.80011 0.0
H96 H 0.83782 0.2152 0.72835 0.0
H97 H 0.75837 0.05459 0.77401 0.0
H98 H 0.73122 0.15782 0.76755 0.0
Co99 Co 0.69812 0.88565 0.09909 0.0
C100 C 0.69301 0.87963 0.12248 0.0
C101 C 0.75449 0.93036 0.1168 0.0
C102 C 0.75526 0.93111 0.12754 0.0
N103 N 0.71569 0.89783 0.1136 0.0
N104 N 0.71659 0.89919 0.13112 0.0
H105 H 0.65967 0.85369 0.12272 0.0
H106 H 0.78035 0.9526 0.11168 0.0
C107 C 0.77877 0.8971 0.08749 0.0
O108 O 0.75575 0.87234 0.07969 0.0
N109 N 0.68113 0.87516 0.08453 0.0
C110 C 0.64809 0.83939 0.08017 0.0
C111 C 0.64647 0.84736 0.06966 0.0
C112 C 0.6984 0.90458 0.07671 0.0
N113 N 0.67837 0.88826 0.06751 0.0
C114 C 0.63814 0.79998 0.10584 0.0
C115 C 0.67699 0.75679 0.09718 0.0
C116 C 0.63429 0.73265 0.10102 0.0
C117 C 0.61613 0.75497 0.10592 0.0
C118 C 0.69866 0.80248 0.09749 0.0
N119 N 0.67821 0.82371 0.10127 0.0
H120 H 0.62113 0.8152 0.10908 0.0
H121 H 0.73101 0.81992 0.09439 0.0
H122 H 0.62638 0.80971 0.08429 0.0
H123 H 0.72526 0.9373 0.07776 0.0
O124 O 0.64417 0.88307 0.10224 0.0
O125 O 0.70426 0.94339 0.09785 0.0
O126 O 0.76023 0.90211 0.09554 0.0
C127 C 0.66333 0.92442 0.10051 0.0
H128 H 0.78242 0.95327 0.13234 0.0
H129 H 0.62394 0.82462 0.06402 0.0
H130 H 0.69276 0.74074 0.09354 0.0
H131 H 0.58401 0.7378 0.10941 0.0
Co132 Co 0.80249 0.68163 0.43278 0.0
C133 C 0.80352 0.67149 0.4559 0.0
C134 C 0.79425 0.72452 0.45128 0.0
C135 C 0.79345 0.72225 0.46201 0.0
N136 N 0.80052 0.69277 0.44746 0.0
N137 N 0.79929 0.68896 0.46491 0.0
H138 H 0.80821 0.64367 0.45548 0.0
H139 H 0.79053 0.74775 0.44656 0.0
C140 C 0.87705 0.76465 0.42422 0.0
O141 O 0.88715 0.74177 0.41794 0.0
N142 N 0.80338 0.67144 0.41787 0.0
C143 C 0.80625 0.63963 0.4128 0.0
C144 C 0.80017 0.64271 0.40227 0.0
C145 C 0.79517 0.69304 0.41031 0.0
N146 N 0.7932 0.67629 0.40073 0.0
C147 C 0.8336 0.62257 0.43575 0.0
C148 C 0.91833 0.68105 0.44119 0.0
C149 C 0.90432 0.63648 0.44108 0.0
C150 C 0.86144 0.60729 0.43838 0.0
C151 C 0.88876 0.69516 0.43867 0.0
N152 N 0.84723 0.66603 0.4356 0.0
H153 H 0.80068 0.59868 0.43382 0.0
H154 H 0.89919 0.72918 0.43948 0.0
H155 H 0.81105 0.61483 0.41633 0.0
H156 H 0.78929 0.71962 0.41188 0.0
O157 O 0.75252 0.62475 0.43443 0.0
O158 O 0.74904 0.6837 0.4307 0.0
O159 O 0.84573 0.74552 0.43075 0.0
C160 C 0.72863 0.64191 0.43241 0.0
H161 H 0.78976 0.74402 0.46728 0.0
H162 H 0.8004 0.6215 0.39623 0.0
H163 H 0.95127 0.70446 0.44345 0.0
H164 H 0.84945 0.57259 0.43824 0.0
Co165 Co 0.1351 0.81479 0.76467 0.0
C166 C 0.14525 0.81583 0.78788 0.0
C167 C 0.08476 0.81026 0.78298 0.0
C168 C 0.08632 0.81174 0.7937 0.0
N169 N 0.1217 0.81314 0.77933 0.0
N170 N 0.12435 0.81541 0.79678 0.0
H171 H 0.17724 0.81913 0.78759 0.0
H172 H 0.0586 0.80764 0.77815 0.0
C173 C 0.12595 0.88898 0.75605 0.0
O174 O 0.15847 0.89893 0.74961 0.0
N175 N 0.14633 0.81572 0.74972 0.0
C176 C 0.18378 0.82887 0.7444 0.0
C177 C 0.17478 0.8231 0.73387 0.0
C178 C 0.11527 0.80224 0.74229 0.0
N179 N 0.13162 0.80629 0.73254 0.0
C180 C 0.22517 0.84595 0.76741 0.0
C181 C 0.25074 0.92978 0.77359 0.0
C182 C 0.28136 0.91578 0.77336 0.0
C183 C 0.26805 0.87341 0.77025 0.0
C184 C 0.20731 0.9006 0.77083 0.0
N185 N 0.19524 0.85949 0.76748 0.0
H186 H 0.21649 0.81362 0.76495 0.0
H187 H 0.18354 0.91087 0.77169 0.0
H188 H 0.21581 0.84247 0.74769 0.0
H189 H 0.08122 0.78956 0.74406 0.0
O190 O 0.14242 0.76508 0.76637 0.0
O191 O 0.07973 0.76107 0.76273 0.0
O192 O 0.11426 0.85787 0.76261 0.0
C193 C 0.10139 0.74093 0.76443 0.0
H194 H 0.06126 0.81008 0.79884 0.0
H195 H 0.19852 0.83153 0.72768 0.0
H196 H 0.26 0.96234 0.77613 0.0
H197 H 0.29088 0.86156 0.76994 0.0
Co198 Co 0.884 0.68578 0.60444 0.0
C199 C 0.87077 0.67483 0.58137 0.0
C200 C 0.93211 0.72985 0.58568 0.0
C201 C 0.93049 0.72673 0.57498 0.0
N202 N 0.89487 0.69735 0.58968 0.0
N203 N 0.89202 0.69223 0.57228 0.0
H204 H 0.83907 0.64591 0.58193 0.0
H205 H 0.95893 0.75378 0.59028 0.0
C206 C 0.89105 0.76779 0.61326 0.0
O207 O 0.8597 0.74457 0.61994 0.0
N208 N 0.8754 0.6756 0.61948 0.0
C209 C 0.8392 0.65017 0.62515 0.0
C210 C 0.84994 0.65453 0.63559 0.0
C211 C 0.9075 0.69479 0.62662 0.0
N212 N 0.8929 0.68254 0.63649 0.0
C213 C 0.79415 0.62416 0.60275 0.0
C214 C 0.76334 0.67976 0.598 0.0
C215 C 0.73366 0.63524 0.59936 0.0
C216 C 0.74986 0.60743 0.60149 0.0
C217 C 0.80812 0.69547 0.59942 0.0
N218 N 0.82277 0.66784 0.60227 0.0
H219 H 0.80493 0.60149 0.60462 0.0
H220 H 0.83065 0.72957 0.59813 0.0
H221 H 0.80688 0.62996 0.62219 0.0
H222 H 0.94083 0.71816 0.62462 0.0
O223 O 0.87923 0.62989 0.60251 0.0
O224 O 0.94087 0.69026 0.60591 0.0
O225 O 0.90264 0.74908 0.60649 0.0
C226 C 0.9207 0.64865 0.60407 0.0
H227 H 0.95557 0.74832 0.56957 0.0
H228 H 0.82782 0.63794 0.64201 0.0
H229 H 0.75205 0.70215 0.59604 0.0
H230 H 0.72826 0.57267 0.60227 0.0
Co231 Co 0.19476 0.87549 0.93679 0.0
C232 C 0.19822 0.86629 0.91371 0.0
C233 C 0.19792 0.92438 0.91826 0.0
C234 C 0.20005 0.92362 0.90755 0.0
N235 N 0.19663 0.88849 0.92211 0.0
N236 N 0.20037 0.88719 0.90467 0.0
H237 H 0.19832 0.83592 0.91423 0.0
H238 H 0.19737 0.94945 0.92294 0.0
C239 C 0.11954 0.8832 0.9453 0.0
O240 O 0.11007 0.85087 0.95177 0.0
N241 N 0.19377 0.86448 0.95173 0.0
C242 C 0.1857 0.82816 0.95698 0.0
C243 C 0.19148 0.83728 0.9675 0.0
C244 C 0.20459 0.8951 0.95918 0.0
N245 N 0.20345 0.87944 0.96888 0.0
C246 C 0.16528 0.78576 0.93389 0.0
C247 C 0.08063 0.7585 0.9281 0.0
C248 C 0.09543 0.72852 0.92822 0.0
C249 C 0.13825 0.74271 0.93111 0.0
C250 C 0.10938 0.80212 0.93077 0.0
N251 N 0.15089 0.81502 0.93396 0.0
H252 H 0.19804 0.79513 0.9361 0.0
H253 H 0.09839 0.82533 0.92997 0.0
H254 H 0.17687 0.79711 0.9536 0.0
H255 H 0.21294 0.92825 0.95748 0.0
O256 O 0.24532 0.86947 0.93524 0.0
O257 O 0.24767 0.93144 0.9388 0.0
O258 O 0.15069 0.8952 0.93873 0.0
C259 C 0.26867 0.91059 0.93717 0.0
H260 H 0.2005 0.94776 0.90229 0.0
H261 H 0.18828 0.81477 0.97362 0.0
H262 H 0.04771 0.74858 0.92571 0.0
H263 H 0.15079 0.72044 0.93131 0.0
Co264 Co 0.32428 0.20245 0.26953 0.0
C265 C 0.33012 0.19576 0.24636 0.0
C266 C 0.27286 0.19689 0.25139 0.0
C267 C 0.27182 0.19324 0.2407 0.0
N268 N 0.30911 0.19816 0.25494 0.0
N269 N 0.30766 0.19237 0.23752 0.0
H270 H 0.36062 0.1958 0.24658 0.0
H271 H 0.24883 0.19861 0.25626 0.0
C272 C 0.24421 0.12883 0.27984 0.0
O273 O 0.26855 0.12273 0.28658 0.0
N274 N 0.3381 0.20744 0.28436 0.0
C275 C 0.36879 0.20307 0.28954 0.0
C276 C 0.36629 0.2105 0.30001 0.0
C277 C 0.31785 0.218 0.29178 0.0
N278 N 0.3342 0.21991 0.30143 0.0
C279 C 0.38711 0.17584 0.26697 0.0
C280 C 0.3321 0.08741 0.26507 0.0
C281 C 0.3772 0.10385 0.26552 0.0
C282 C 0.40459 0.14871 0.26617 0.0
C283 C 0.31566 0.11612 0.26599 0.0
N284 N 0.3432 0.15968 0.2675 0.0
H285 H 0.40968 0.21009 0.26771 0.0
H286 H 0.28103 0.10312 0.26546 0.0
H287 H 0.39176 0.19513 0.28618 0.0
H288 H 0.2917 0.22436 0.29008 0.0
O289 O 0.37899 0.25395 0.26662 0.0
O290 O 0.31859 0.25425 0.27072 0.0
O291 O 0.26174 0.15732 0.2726 0.0
C292 C 0.35977 0.27616 0.26833 0.0
H293 H 0.24677 0.19189 0.23564 0.0
H294 H 0.38636 0.20853 0.30609 0.0
H295 H 0.3099 0.05286 0.26424 0.0
H296 H 0.43963 0.16289 0.26618 0.0
Co297 Co 0.12337 0.31771 0.60298 0.0
C298 C 0.131 0.32666 0.57983 0.0
C299 C 0.07495 0.26733 0.58488 0.0
C300 C 0.0752 0.26872 0.57414 0.0
N301 N 0.10993 0.30347 0.58843 0.0
N302 N 0.11036 0.30605 0.57095 0.0
H303 H 0.1603 0.35811 0.58008 0.0
H304 H 0.05079 0.24177 0.58978 0.0
C305 C 0.1186 0.23708 0.61247 0.0
O306 O 0.15039 0.26095 0.61893 0.0
N307 N 0.13512 0.33111 0.61775 0.0
C308 C 0.16907 0.36523 0.6224 0.0
C309 C 0.16118 0.36323 0.633 0.0
C310 C 0.10687 0.30934 0.62559 0.0
N311 N 0.12209 0.32803 0.63499 0.0
C312 C 0.21206 0.38021 0.59914 0.0
C313 C 0.24405 0.3246 0.59576 0.0
C314 C 0.27246 0.36964 0.59514 0.0
C315 C 0.25575 0.39732 0.59675 0.0
C316 C 0.19972 0.30854 0.59796 0.0
N317 N 0.18448 0.33639 0.60005 0.0
H318 H 0.20091 0.40299 0.60039 0.0
H319 H 0.17802 0.27391 0.59778 0.0
H320 H 0.19728 0.39068 0.61851 0.0
H321 H 0.07528 0.28091 0.62437 0.0
O322 O 0.12617 0.37253 0.60063 0.0
O323 O 0.06628 0.31199 0.60512 0.0
O324 O 0.10636 0.25505 0.60565 0.0
C325 C 0.08508 0.35319 0.6028 0.0
H326 H 0.05156 0.2437 0.56909 0.0
H327 H 0.18257 0.3861 0.63878 0.0
H328 H 0.25581 0.30216 0.59436 0.0
H329 H 0.27662 0.43232 0.59637 0.0
Co330 Co 0.80554 0.12293 0.93719 0.0
C331 C 0.80826 0.13652 0.91407 0.0
C332 C 0.79866 0.07385 0.91849 0.0
C333 C 0.79723 0.07559 0.90778 0.0
N334 N 0.80537 0.11183 0.92243 0.0
N335 N 0.80325 0.11488 0.90501 0.0
H336 H 0.81279 0.16895 0.91458 0.0
H337 H 0.79439 0.04647 0.92312 0.0
C338 C 0.87923 0.11314 0.94576 0.0
O339 O 0.88869 0.14518 0.95228 0.0
N340 N 0.80445 0.13175 0.9522 0.0
C341 C 0.80504 0.16501 0.95746 0.0
C342 C 0.79682 0.15403 0.96786 0.0
C343 C 0.7954 0.10088 0.95955 0.0
N344 N 0.79065 0.11368 0.96917 0.0
C345 C 0.83749 0.21365 0.93533 0.0
C346 C 0.92303 0.24081 0.93039 0.0
C347 C 0.91 0.27189 0.93174 0.0
C348 C 0.86649 0.2576 0.93401 0.0
C349 C 0.89258 0.19644 0.93195 0.0
N350 N 0.85073 0.18355 0.93491 0.0
H351 H 0.80415 0.2043 0.93689 0.0
H352 H 0.90268 0.1728 0.9306 0.0
H353 H 0.8092 0.19468 0.95414 0.0
H354 H 0.79047 0.06892 0.95779 0.0
O355 O 0.75596 0.13043 0.93547 0.0
O356 O 0.7517 0.06734 0.93879 0.0
O357 O 0.84844 0.10183 0.93917 0.0
C358 C 0.73168 0.08919 0.93718 0.0
H359 H 0.79239 0.05001 0.90241 0.0
H360 H 0.79471 0.17396 0.97397 0.0
H361 H 0.95625 0.25069 0.92826 0.0
H362 H 0.85472 0.2804 0.9347 0.0
Co363 Co 0.69435 0.8093 0.2711 0.0
C364 C 0.69198 0.81757 0.24791 0.0
C365 C 0.74578 0.81101 0.25326 0.0
C366 C 0.74826 0.81513 0.24257 0.0
N367 N 0.71074 0.81274 0.25661 0.0
N368 N 0.7146 0.81948 0.23919 0.0
H369 H 0.66298 0.82036 0.24798 0.0
H370 H 0.76804 0.80701 0.25827 0.0
C371 C 0.77463 0.88332 0.28117 0.0
O372 O 0.75048 0.89092 0.28767 0.0
N373 N 0.67922 0.80506 0.28583 0.0
C374 C 0.64402 0.80294 0.29048 0.0
C375 C 0.64492 0.79495 0.301 0.0
C376 C 0.70054 0.79767 0.29358 0.0
N377 N 0.68052 0.79171 0.30293 0.0
C378 C 0.63283 0.83704 0.2677 0.0
C379 C 0.68922 0.92466 0.26464 0.0
C380 C 0.64424 0.90848 0.26395 0.0
C381 C 0.61619 0.86412 0.26545 0.0
C382 C 0.70483 0.8959 0.26673 0.0
N383 N 0.67655 0.85271 0.2686 0.0
H384 H 0.60972 0.80307 0.26875 0.0
H385 H 0.73944 0.90847 0.26657 0.0
H386 H 0.61845 0.80551 0.28663 0.0
H387 H 0.72948 0.79535 0.29232 0.0
O388 O 0.6395 0.75826 0.26816 0.0
O389 O 0.69888 0.75695 0.27274 0.0
O390 O 0.7569 0.8538 0.27422 0.0
C391 C 0.65797 0.73555 0.27015 0.0
H392 H 0.77279 0.81445 0.23767 0.0
H393 H 0.62095 0.79139 0.30675 0.0
H394 H 0.71197 0.95884 0.26332 0.0
H395 H 0.58123 0.8503 0.26501 0.0
H396 H 0.28439 0.02364 0.06322 0.0
H397 H 0.25992 0.98452 0.04665 0.0
H398 H 0.33261 0.10514 0.02974 0.0
H399 H 0.35686 0.14456 0.04622 0.0
H400 H 0.21344 0.99599 0.03002 0.0
H401 H 0.37612 0.02709 1.01715 0.0
H402 H 0.3647 0.03499 0.03047 0.0
H403 H 0.37396 0.07496 0.02064 0.0
C404 C 0.29495 0.04196 0.05599 0.0
C405 C 0.32294 0.08731 0.05609 0.0
C406 C 0.28106 0.01949 0.04653 0.0
C407 C 0.29504 0.04184 0.03697 0.0
C408 C 0.32224 0.08712 0.03703 0.0
H409 H 0.25615 0.96641 0.97163 0.0
H410 H 0.27597 0.00584 0.98818 0.0
C411 C 0.33613 0.10961 0.04647 0.0
C412 C 0.28094 0.01791 0.02694 0.0
H413 H 0.31913 0.99462 1.00478 0.0
C414 C 0.23647 0.99548 0.02451 0.0
C415 C 0.31111 0.01744 0.01977 0.0
C416 C 0.35911 0.03956 0.02214 0.0
C417 C 0.22141 0.97324 1.01499 0.0
C418 C 0.25159 0.97275 1.00782 0.0
C419 C 0.29606 0.99515 1.01027 0.0
C420 C 0.23781 0.94885 0.99777 0.0
C421 C 0.17344 0.95134 1.01261 0.0
C422 C 0.20989 0.90365 0.99765 0.0
C423 C 0.19819 0.88103 0.98819 0.0
C424 C 0.21445 0.90306 0.97863 0.0
C425 C 0.24243 0.9484 0.97879 0.0
C426 C 0.25407 0.971 0.98826 0.0
H427 H 0.15677 0.96465 1.01744 0.0
H428 H 0.16786 0.9551 1.00422 0.0
H429 H 0.15824 0.91609 1.01436 0.0
H430 H 0.19759 0.88574 1.0049 0.0
H431 H 0.17634 0.84625 0.98838 0.0
H432 H 0.16167 0.30533 0.37979 0.0
H433 H 0.18331 0.28606 0.3634 0.0
H434 H 0.29256 0.28906 0.37892 0.0
H435 H 0.27065 0.3078 0.39538 0.0
H436 H 0.25698 0.33112 0.35221 0.0
H437 H 0.24014 0.17335 0.36429 0.0
H438 H 0.21876 0.20099 0.372 0.0
H439 H 0.27561 0.21751 0.37262 0.0
C440 C 0.19029 0.30187 0.37971 0.0
C441 C 0.21441 0.30799 0.38889 0.0
C442 C 0.20254 0.2907 0.37035 0.0
C443 C 0.23918 0.28544 0.36994 0.0
C444 C 0.2635 0.29177 0.37908 0.0
H445 H 0.38039 0.24789 0.3195 0.0
H446 H 0.35648 0.26329 0.33604 0.0
C447 C 0.25103 0.3026 0.38849 0.0
C448 C 0.25272 0.27498 0.35986 0.0
H449 H 0.27533 0.20232 0.34796 0.0
C450 C 0.2607 0.30279 0.35128 0.0
C451 C 0.25753 0.23796 0.35862 0.0
C452 C 0.24716 0.20549 0.36734 0.0
C453 C 0.27401 0.295 0.34156 0.0
C454 C 0.2793 0.25835 0.34039 0.0
C455 C 0.27135 0.23049 0.34893 0.0
C456 C 0.29331 0.24855 0.33033 0.0
C457 C 0.28309 0.32635 0.33266 0.0
C458 C 0.26548 0.23474 0.32167 0.0
C459 C 0.2788 0.22535 0.3122 0.0
C460 C 0.32034 0.22971 0.3112 0.0
C461 C 0.34804 0.24355 0.31995 0.0
C462 C 0.33454 0.25263 0.32943 0.0
H463 H 0.28466 0.35688 0.33532 0.0
H464 H 0.31425 0.33459 0.32874 0.0
H465 H 0.2568 0.31084 0.32678 0.0
H466 H 0.23328 0.23088 0.32227 0.0
H467 H 0.25622 0.2141 0.30574 0.0
H468 H 0.89362 0.26297 0.71666 0.0
H469 H 0.93279 0.2772 0.70011 0.0
H470 H 0.99462 0.20633 0.71102 0.0
H471 H 0.95562 0.19234 0.72773 0.0
H472 H 0.05204 0.28141 0.70133 0.0
H473 H 0.9064 0.19261 0.67648 0.0
H474 H 0.90395 0.23322 0.68429 0.0
H475 H 0.90404 0.18777 0.69055 0.0
C476 C 0.91518 0.24999 0.71552 0.0
C477 C 0.92113 0.22609 0.72348 0.0
C478 C 0.93752 0.25808 0.70603 0.0
C479 C 0.96586 0.24194 0.70421 0.0
C480 C 0.97263 0.21882 0.71221 0.0
H481 H 0.06499 0.2456 0.64116 0.0
H482 H 0.02858 0.22231 0.65817 0.0
C483 C 0.95048 0.21097 0.72177 0.0
C484 C 0.98906 0.25022 0.69402 0.0
H485 H 0.97279 0.24123 0.66762 0.0
C486 C 0.03472 0.27225 0.69396 0.0
C487 C 0.9665 0.23757 0.6844 0.0
C488 C 0.91752 0.21107 0.68391 0.0
C489 C 0.05839 0.2834 0.68454 0.0
C490 C 0.03582 0.27314 0.67491 0.0
C491 C 0.99016 0.24966 0.67498 0.0
C492 C 0.0588 0.28715 0.66467 0.0
C493 C 0.10736 0.30576 0.68502 0.0
C494 C 0.08746 0.33137 0.66259 0.0
C495 C 0.10837 0.34469 0.6529 0.0
C496 C 0.10059 0.31416 0.645 0.0
C497 C 0.07141 0.26994 0.64704 0.0
C498 C 0.05074 0.25658 0.65678 0.0
H499 H 0.11848 0.29867 0.6925 0.0
H500 H 0.1208 0.29564 0.67845 0.0
H501 H 0.12097 0.34145 0.68452 0.0
H502 H 0.09321 0.35573 0.66842 0.0
H503 H 0.12997 0.37904 0.65152 0.0
H504 H 0.8123 0.05368 0.97516 0.0
H505 H 0.79317 0.01308 0.99171 0.0
H506 H 0.72134 0.07591 1.00119 0.0
H507 H 0.74114 0.11701 0.98483 0.0
H508 H 0.77154 0.07701 1.01658 0.0
H509 H 0.68008 0.90975 1.00075 0.0
H510 H 0.7345 0.94024 0.99572 0.0
H511 H 0.6957 0.95727 0.99276 0.0
C512 C 0.79209 0.05842 0.98075 0.0
C513 C 0.77833 0.0886 0.97871 0.0
C514 C 0.781 0.03509 0.99018 0.0
C515 C 0.75524 0.04092 0.99766 0.0
C516 C 0.74126 0.07083 0.99557 0.0
H517 H 0.62383 0.87637 0.05145 0.0
H518 H 0.64307 0.91367 0.03449 0.0
C519 C 0.75272 0.09444 0.98622 0.0
C520 C 0.74409 0.01734 1.00784 0.0
H521 H 0.69566 0.91614 0.01894 0.0
C522 C 0.75485 0.04181 1.01708 0.0
C523 C 0.72178 0.97139 1.00852 0.0
C524 C 0.70693 0.94307 0.99891 0.0
C525 C 0.74414 0.02176 0.02696 0.0
C526 C 0.72317 0.97586 0.02766 0.0
C527 C 0.71212 0.95132 0.01842 0.0
C528 C 0.71177 0.95272 0.03789 0.0
C529 C 0.75439 0.05 0.03653 0.0
C530 C 0.744 0.96171 0.04539 0.0
C531 C 0.73299 0.94073 0.05511 0.0
C532 C 0.6896 0.90975 0.05747 0.0
C533 C 0.65752 0.89995 0.04985 0.0
C534 C 0.66849 0.92129 0.04017 0.0
H535 H 0.75828 0.08227 0.03458 0.0
H536 H 0.72847 0.03427 0.04255 0.0
H537 H 0.78546 0.05556 0.03995 0.0
H538 H 0.77778 0.98486 0.04372 0.0
H539 H 0.75857 0.94826 0.06072 0.0
H540 H 0.76252 0.81826 0.30951 0.0
H541 H 0.78416 0.80135 0.32625 0.0
H542 H 0.64933 0.7258 0.33541 0.0
H543 H 0.62765 0.74316 0.31877 0.0
H544 H 0.69824 0.77694 0.3511 0.0
H545 H 0.77614 0.68805 0.33463 0.0
H546 H 0.79886 0.74247 0.3297 0.0
H547 H 0.74324 0.70293 0.32684 0.0
C548 C 0.73752 0.79776 0.31506 0.0
C549 C 0.69337 0.78189 0.31279 0.0
C550 C 0.7499 0.78803 0.32462 0.0
C551 C 0.71834 0.76164 0.33203 0.0
C552 C 0.67428 0.74615 0.32982 0.0
H553 H 0.75064 0.62523 0.38421 0.0
H554 H 0.7332 0.64774 0.36771 0.0
C555 C 0.66192 0.7562 0.32031 0.0
C556 C 0.73101 0.75047 0.34215 0.0
H557 H 0.78472 0.70237 0.35283 0.0
C558 C 0.71713 0.7606 0.35148 0.0
C559 C 0.75518 0.72864 0.34264 0.0
C560 C 0.76888 0.71447 0.33292 0.0
C561 C 0.72675 0.74959 0.36128 0.0
C562 C 0.75195 0.72883 0.36179 0.0
C563 C 0.76579 0.71866 0.35245 0.0
C564 C 0.76284 0.7157 0.37188 0.0
C565 C 0.70867 0.75913 0.37097 0.0
C566 C 0.78572 0.74643 0.37971 0.0
C567 C 0.79547 0.73352 0.3892 0.0
C568 C 0.7832 0.68975 0.39097 0.0
C569 C 0.76094 0.65923 0.38305 0.0
C570 C 0.75083 0.67205 0.37362 0.0
H571 H 0.68065 0.76375 0.36913 0.0
H572 H 0.69798 0.73249 0.37681 0.0
H573 H 0.73433 0.78957 0.37458 0.0
H574 H 0.79637 0.78047 0.37846 0.0
H575 H 0.81326 0.75786 0.39508 0.0
H576 H 0.15747 0.78976 0.7139 0.0
H577 H 0.11805 0.77158 0.6974 0.0
H578 H 0.01171 0.77644 0.71242 0.0
H579 H 0.0517 0.79674 0.72884 0.0
H580 H 0.04064 0.70201 0.69242 0.0
H581 H 0.03174 0.85241 0.68716 0.0
H582 H 0.06665 0.84803 0.69673 0.0
H583 H 0.0096 0.82574 0.69942 0.0
C584 C 0.12606 0.78776 0.7137 0.0
C585 C 0.10808 0.7951 0.72276 0.0
C586 C 0.10338 0.77699 0.70424 0.0
C587 C 0.06222 0.77334 0.70361 0.0
C588 C 0.04385 0.78004 0.71265 0.0
H589 H 0.8645 0.68961 0.65567 0.0
H590 H 0.90646 0.7116 0.6719 0.0
C591 C 0.06661 0.79108 0.7221 0.0
C592 C 0.03804 0.7612 0.69357 0.0
H593 H 0.98827 0.79363 0.67574 0.0
C594 C 0.02947 0.72221 0.68874 0.0
C595 C 0.0235 0.7876 0.68875 0.0
C596 C 0.03368 0.83098 0.69322 0.0
C597 C 0.00607 0.70852 0.67935 0.0
C598 C 0.99111 0.73464 0.67462 0.0
C599 C 0.99971 0.77364 0.67941 0.0
C600 C 0.9661 0.72176 0.66474 0.0
C601 C 0.99671 0.66579 0.67463 0.0
C602 C 0.98593 0.7207 0.65533 0.0
C603 C 0.96206 0.7082 0.64604 0.0
C604 C 0.91786 0.69638 0.64601 0.0
C605 C 0.89827 0.69791 0.65546 0.0
C606 C 0.92225 0.71071 0.66472 0.0
H607 H 1.00319 0.64569 0.68022 0.0
H608 H 0.96231 0.64689 0.67206 0.0
H609 H 0.01772 0.67215 0.66765 0.0
H610 H 0.0199 0.72955 0.65518 0.0
H611 H 0.97799 0.70704 0.63892 0.0
H612 H 0.58634 0.89475 0.11031 0.0
H613 H 0.53911 0.92599 0.11028 0.0
H614 H 0.63484 0.03604 0.09257 0.0
H615 H 0.68275 0.00425 0.09245 0.0
H616 H 0.55302 0.0054 0.11775 0.0
H617 H 0.52215 0.98743 0.07489 0.0
H618 H 0.5466 0.96054 0.08174 0.0
H619 H 0.5782 0.01755 0.07883 0.0
C620 C 0.59762 0.92574 0.10644 0.0
C621 C 0.6381 0.94697 0.1013 0.0
C622 C 0.57055 0.94355 0.10645 0.0
C623 C 0.5832 0.98291 0.1013 0.0
C624 C 0.62429 0.00521 0.09645 0.0
H625 H 0.4508 0.12917 0.10685 0.0
H626 H 0.50152 0.10205 0.10732 0.0
C627 C 0.65172 0.98732 0.09647 0.0
C628 C 0.55241 0.99948 0.10099 0.0
H629 H 0.48678 0.0172 0.08467 0.0
C630 C 0.5387 0.00825 0.11051 0.0
C631 C 0.53317 1.00214 0.09155 0.0
C632 C 0.54539 0.99113 0.08116 0.0
C633 C 0.5063 0.01979 0.11087 0.0
C634 C 0.48766 0.02329 0.10142 0.0
C635 C 0.50117 0.01435 0.09189 0.0
C636 C 0.45583 0.03854 0.10127 0.0
C637 C 0.49176 0.02743 0.12136 0.0
C638 C 0.41331 0.01184 0.09757 0.0
C639 C 0.38392 0.02733 0.09726 0.0
C640 C 0.39703 0.06984 0.10055 0.0
C641 C 0.43959 0.09619 0.10428 0.0
C642 C 0.46868 0.08075 0.10461 0.0
H643 H 0.50021 0.01197 0.12781 0.0
H644 H 0.50829 0.06289 0.12288 0.0
H645 H 0.45611 0.0146 0.1215 0.0
H646 H 0.40299 0.97916 0.09491 0.0
H647 H 0.35144 0.0065 0.09428 0.0
H648 H 0.31189 0.4449 0.43075 0.0
H649 H 0.39036 0.49212 0.4304 0.0
H650 H 0.40724 0.37995 0.42953 0.0
H651 H 0.32782 0.33195 0.42962 0.0
H652 H 0.44918 0.49798 0.44456 0.0
H653 H 0.48548 0.45364 0.40571 0.0
H654 H 0.43091 0.438 0.40983 0.0
H655 H 0.45656 0.40848 0.41447 0.0
C656 C 0.33215 0.43007 0.43044 0.0
C657 C 0.31366 0.38462 0.43021 0.0
C658 C 0.37708 0.45722 0.43024 0.0
C659 C 0.40469 0.43966 0.42983 0.0
C660 C 0.38648 0.39422 0.42963 0.0
H661 H 0.68225 0.55405 0.43385 0.0
H662 H 0.60369 0.50684 0.43303 0.0
C663 C 0.3412 0.36684 0.42975 0.0
C664 C 0.45242 0.46943 0.42997 0.0
H665 H 0.54598 0.50114 0.41613 0.0
C666 C 0.47032 0.49878 0.43832 0.0
C667 C 0.47988 0.47056 0.4218 0.0
C668 C 0.46229 0.44129 0.41239 0.0
C669 C 0.515 0.52884 0.43878 0.0
C670 C 0.54241 0.52976 0.43065 0.0
C671 C 0.52467 0.50041 0.42231 0.0
C672 C 0.59002 0.55926 0.43096 0.0
C673 C 0.53279 0.55879 0.44807 0.0
C674 C 0.60836 0.60453 0.43 0.0
C675 C 0.65358 0.63187 0.43044 0.0
C676 C 0.68086 0.61418 0.43188 0.0
C677 C 0.66217 0.5688 0.43278 0.0
C678 C 0.61726 0.54166 0.43228 0.0
H679 H 0.50854 0.54907 0.45449 0.0
H680 H 0.5623 0.55928 0.45112 0.0
H681 H 0.54225 0.59236 0.4456 0.0
H682 H 0.58771 0.61861 0.42888 0.0
H683 H 0.66709 0.66667 0.42969 0.0
H684 H 0.144 0.6955 0.76485 0.0
H685 H 0.1135 0.61714 0.76435 0.0
H686 H 0.98412 0.59925 0.76287 0.0
H687 H 0.01478 0.67852 0.7631 0.0
H688 H 0.05977 0.5569 0.77816 0.0
H689 H 0.98247 0.52328 0.73902 0.0
H690 H 0.02053 0.5776 0.74336 0.0
H691 H 0.96489 0.55114 0.74772 0.0
C692 C 0.109 0.67503 0.76437 0.0
C693 C 0.08172 0.69319 0.76401 0.0
C694 C 0.09165 0.63017 0.76409 0.0
C695 C 0.04661 0.60231 0.76346 0.0
C696 C 0.01907 0.6202 0.76313 0.0
H697 H 0.88265 0.32529 0.76685 0.0
H698 H 0.91483 0.40396 0.76625 0.0
C699 C 0.03655 0.66541 0.76333 0.0
C700 C 0.02902 0.55463 0.76349 0.0
H701 H 0.9682 0.462 0.74942 0.0
C702 C 0.03993 0.53619 0.77185 0.0
C703 C 1.00336 0.52772 0.75521 0.0
C704 C 0.99241 0.5459 0.74577 0.0
C705 C 0.02526 0.49147 0.77225 0.0
C706 C 0.99927 0.46459 0.76404 0.0
C707 C 0.98837 0.4829 0.75567 0.0
C708 C 0.98077 0.41692 0.76433 0.0
C709 C 0.03674 0.47304 0.78156 0.0
C710 C 0.00734 0.39814 0.7634 0.0
C711 C 0.98898 0.35283 0.76371 0.0
C712 C 0.94386 0.3259 0.76499 0.0
C713 C 0.91756 0.34506 0.7659 0.0
C714 C 0.93582 0.39005 0.76552 0.0
H715 H 0.05122 0.49701 0.788 0.0
H716 H 0.00741 0.44365 0.78458 0.0
H717 H 0.06064 0.46323 0.77913 0.0
H718 H 0.04216 0.4185 0.76237 0.0
H719 H 0.00997 0.33895 0.76296 0.0
H720 H 0.0232 0.3475 0.61652 0.0
H721 H 0.99492 0.39796 0.6178 0.0
H722 H 0.06752 0.46497 0.59011 0.0
H723 H 0.09749 0.41639 0.58922 0.0
H724 H 0.08014 0.52125 0.60437 0.0
H725 H 0.90269 0.4061 0.60222 0.0
H726 H 0.92829 0.39469 0.61286 0.0
H727 H 0.94226 0.38959 0.5996 0.0
C728 C 0.03227 0.37254 0.61063 0.0
C729 C 0.06222 0.37812 0.60275 0.0
C730 C 0.0161 0.40131 0.61134 0.0
C731 C 0.02873 0.43514 0.60399 0.0
C732 C 0.05743 0.43938 0.5959 0.0
H733 H 0.90291 0.58236 0.59108 0.0
H734 H 0.93238 0.53332 0.59153 0.0
C735 C 0.07433 0.41147 0.59536 0.0
C736 C 0.01423 0.46772 0.60489 0.0
H737 H 0.92455 0.47937 0.60604 0.0
C738 C 0.04606 0.51206 0.6047 0.0
C739 C 0.96981 0.45582 0.60529 0.0
C740 C 0.93378 0.40899 0.6049 0.0
C741 C 0.03479 0.54475 0.6046 0.0
C742 C 0.9904 0.53287 0.60515 0.0
C743 C 0.95861 0.48855 0.60564 0.0
C744 C 0.97567 0.56535 0.60453 0.0
C745 C 0.07056 0.59146 0.60343 0.0
C746 C 0.99084 0.60046 0.61154 0.0
C747 C 0.97488 0.62946 0.61106 0.0
C748 C 0.94263 0.62284 0.60379 0.0
C749 C 0.92783 0.58808 0.59675 0.0
C750 C 0.94448 0.55992 0.59705 0.0
H751 H 0.10066 0.59387 0.60011 0.0
H752 H 0.06034 0.61 0.59831 0.0
H753 H 0.07868 0.60704 0.61124 0.0
H754 H 0.01403 0.60477 0.61756 0.0
H755 H 0.9861 0.65564 0.61668 0.0
H756 H 0.6862 0.13173 0.93647 0.0
H757 H 0.60783 0.10128 0.93717 0.0
H758 H 0.58995 0.97203 0.9392 0.0
H759 H 0.66924 1.00264 0.93876 0.0
H760 H 0.54681 0.04652 0.92371 0.0
H761 H 0.5154 0.9723 0.96331 0.0
H762 H 0.56947 0.01011 0.95866 0.0
H763 H 0.5429 0.9542 0.95463 0.0
C764 C 0.66574 0.09677 0.9371 0.0
C765 C 0.68391 0.06952 0.93757 0.0
C766 C 0.62087 0.07945 0.9375 0.0
C767 C 0.59303 0.03448 0.93836 0.0
C768 C 0.61091 0.00695 0.93876 0.0
H769 H 0.31614 0.87015 0.93604 0.0
H770 H 0.39486 0.90258 0.9366 0.0
C771 C 0.65612 0.02439 0.93843 0.0
C772 C 0.54535 0.01693 0.93854 0.0
H773 H 0.45352 0.95727 0.95314 0.0
C774 C 0.52644 0.02719 0.93017 0.0
C775 C 0.51892 0.99197 0.94702 0.0
C776 C 0.53767 0.98178 0.95647 0.0
C777 C 0.4817 0.0125 0.92996 0.0
C778 C 0.45528 0.98717 0.93836 0.0
C779 C 0.47407 0.97695 0.94674 0.0
C780 C 0.40757 0.96848 0.93825 0.0
C781 C 0.46273 0.02321 0.92063 0.0
C782 C 0.38864 0.99494 0.93908 0.0
C783 C 0.3433 0.97643 0.93879 0.0
C784 C 0.31652 0.93129 0.93763 0.0
C785 C 0.33581 0.90509 0.93689 0.0
C786 C 0.38083 0.92348 0.93724 0.0
H787 H 0.48639 0.03736 0.91408 0.0
H788 H 0.43328 0.99361 0.91781 0.0
H789 H 0.45283 0.04712 0.92297 0.0
H790 H 0.4089 0.02979 0.93996 0.0
H791 H 0.3293 0.99735 0.93942 0.0
H792 H 0.35249 0.33412 0.28105 0.0
H793 H 0.40334 0.41273 0.28202 0.0
H794 H 0.47446 0.40376 0.25561 0.0
H795 H 0.42534 0.32531 0.25505 0.0
H796 H 0.52861 0.44834 0.27012 0.0
H797 H 0.41571 0.51238 0.26525 0.0
H798 H 0.40179 0.47613 0.27619 0.0
H799 H 0.39893 0.45599 0.26313 0.0
C800 C 0.37849 0.3493 0.27534 0.0
C801 C 0.385 0.32395 0.26794 0.0
C802 C 0.40752 0.39419 0.27587 0.0
C803 C 0.44263 0.41444 0.26881 0.0
C804 C 0.44786 0.38904 0.26118 0.0
H805 H 0.59534 0.6883 0.25619 0.0
H806 H 0.54595 0.60988 0.25617 0.0
C807 C 0.41962 0.34426 0.26081 0.0
C808 C 0.47553 0.46147 0.26962 0.0
H809 H 0.48825 0.56329 0.26993 0.0
C810 C 0.51975 0.47349 0.27003 0.0
C811 C 0.46413 0.49439 0.26946 0.0
C812 C 0.41761 0.48416 0.26838 0.0
C813 C 0.55282 0.51729 0.27006 0.0
C814 C 0.54138 0.55019 0.27011 0.0
C815 C 0.49713 0.53814 0.26993 0.0
C816 C 0.57442 0.59731 0.26975 0.0
C817 C 0.59954 0.52765 0.2696 0.0
C818 C 0.60777 0.61654 0.27724 0.0
C819 C 0.63701 0.66146 0.27705 0.0
C820 C 0.63242 0.68782 0.26956 0.0
C821 C 0.59953 0.66855 0.26203 0.0
C822 C 0.57114 0.62379 0.26206 0.0
H823 H 0.60228 0.49989 0.2665 0.0
H824 H 0.61956 0.55657 0.26462 0.0
H825 H 0.61327 0.53451 0.27761 0.0
H826 H 0.61039 0.59713 0.28342 0.0
H827 H 0.66167 0.67581 0.28305 0.0
H828 H 0.25117 0.14976 0.22195 0.0
H829 H 0.26806 0.14659 0.20362 0.0
H830 H 0.40516 0.22197 0.21034 0.0
H831 H 0.38826 0.22531 0.22887 0.0
H832 H 0.31366 0.21772 0.19021 0.0
H833 H 0.39396 0.1177 0.19348 0.0
H834 H 0.36143 0.121 0.20393 0.0
H835 H 0.41509 0.16564 0.20146 0.0
C836 C 0.28495 0.16578 0.21956 0.0
C837 C 0.31837 0.18813 0.22686 0.0
C838 C 0.29457 0.16381 0.20907 0.0
C839 C 0.33783 0.184 0.2056 0.0
C840 C 0.37152 0.20571 0.21287 0.0
H841 H 0.36542 0.19908 0.13659 0.0
H842 H 0.38162 0.22262 0.15489 0.0
C843 C 0.36185 0.20757 0.22345 0.0
C844 C 0.34665 0.1828 0.19428 0.0
H845 H 0.38332 0.13652 0.17656 0.0
C846 C 0.3295 0.20057 0.1872 0.0
C847 C 0.36719 0.16028 0.19041 0.0
C848 C 0.38531 0.13975 0.19767 0.0
C849 C 0.3304 0.19463 0.17637 0.0
C850 C 0.3498 0.17097 0.17249 0.0
C851 C 0.36874 0.1549 0.17955 0.0
C852 C 0.34545 0.1576 0.16135 0.0
C853 C 0.30815 0.21139 0.16924 0.0
C854 C 0.32148 0.11328 0.15889 0.0
C855 C 0.3126 0.09983 0.14851 0.0
C856 C 0.32745 0.13039 0.1403 0.0
C857 C 0.35342 0.17476 0.14273 0.0
C858 C 0.36238 0.18825 0.15318 0.0
H859 H 0.28809 0.22201 0.17365 0.0
H860 H 0.33307 0.23971 0.16475 0.0
H861 H 0.28689 0.18599 0.16358 0.0
H862 H 0.30829 0.089 0.16505 0.0
H863 H 0.29346 0.06538 0.14693 0.0
H864 H 0.14707 0.24853 0.47838 0.0
H865 H 0.14158 0.26406 0.49667 0.0
H866 H 0.20829 0.40143 0.48982 0.0
H867 H 0.21378 0.38582 0.4713 0.0
H868 H 0.21178 0.31304 0.50983 0.0
H869 H 0.10151 0.38201 0.50711 0.0
H870 H 0.1073 0.35144 0.49658 0.0
H871 H 0.14941 0.4063 0.49899 0.0
C872 C 0.16058 0.28208 0.48074 0.0
C873 C 0.18128 0.31599 0.47342 0.0
C874 C 0.15729 0.29091 0.4912 0.0
C875 C 0.17453 0.33387 0.49463 0.0
C876 C 0.19431 0.36799 0.48732 0.0
H877 H 0.19192 0.36047 0.56346 0.0
H878 H 0.21346 0.37758 0.54507 0.0
C879 C 0.19743 0.35907 0.47676 0.0
C880 C 0.17283 0.34196 0.50596 0.0
H881 H 0.12245 0.37304 0.52394 0.0
C882 C 0.19279 0.32675 0.51294 0.0
C883 C 0.14789 0.35971 0.50997 0.0
C884 C 0.12498 0.37562 0.50282 0.0
C885 C 0.1868 0.32681 0.52379 0.0
C886 C 0.1609 0.34351 0.52781 0.0
C887 C 0.1425 0.36052 0.52085 0.0
C888 C 0.14821 0.33856 0.53902 0.0
C889 C 0.20607 0.3065 0.53078 0.0
C890 C 0.10425 0.31271 0.54177 0.0
C891 C 0.09183 0.30339 0.55224 0.0
C892 C 0.12311 0.3196 0.56024 0.0
C893 C 0.16699 0.34736 0.55752 0.0
C894 C 0.1794 0.35686 0.54699 0.0
H895 H 0.21781 0.2876 0.52628 0.0
H896 H 0.23415 0.33249 0.53506 0.0
H897 H 0.18179 0.28454 0.53663 0.0
H898 H 0.07955 0.29846 0.53577 0.0
H899 H 0.05767 0.28284 0.55404 0.0
H900 H 0.94209 0.24778 0.81425 0.0
H901 H 0.91787 0.23678 0.83249 0.0
H902 H 0.78771 0.14389 0.82281 0.0
H903 H 0.81187 0.15481 0.80445 0.0
H904 H 0.83598 0.23744 0.84273 0.0
H905 H 0.84086 0.08288 0.84328 0.0
H906 H 0.87278 0.12596 0.83409 0.0
H907 H 0.81508 0.09353 0.83245 0.0
C908 C 0.90821 0.22533 0.81599 0.0
C909 C 0.87894 0.20181 0.80794 0.0
C910 C 0.89439 0.21934 0.8264 0.0
C911 C 0.85111 0.18947 0.82898 0.0
C912 C 0.82126 0.16718 0.82095 0.0
H913 H 0.75063 0.06814 0.88928 0.0
H914 H 0.75778 0.08888 0.87084 0.0
C915 C 0.83502 0.17351 0.81049 0.0
C916 C 0.83853 0.17893 0.8401 0.0
H917 H 0.82395 0.1049 0.85899 0.0
C918 C 0.83292 0.20832 0.84631 0.0
C919 C 0.83477 0.14102 0.8447 0.0
C920 C 0.84129 0.10891 0.83836 0.0
C921 C 0.82336 0.20058 0.85706 0.0
C922 C 0.82062 0.16307 0.86174 0.0
C923 C 0.82591 0.1336 0.85544 0.0
C924 C 0.8128 0.15344 0.87313 0.0
C925 C 0.81567 0.23231 0.86322 0.0
C926 C 0.84065 0.18312 0.88066 0.0
C927 C 0.83605 0.17143 0.89127 0.0
C928 C 0.80423 0.12955 0.89447 0.0
C929 C 0.77564 0.10049 0.88699 0.0
C930 C 0.77972 0.11235 0.87646 0.0
H931 H 0.80509 0.25054 0.85808 0.0
H932 H 0.79069 0.21552 0.8694 0.0
H933 H 0.84649 0.2563 0.86702 0.0
H934 H 0.86714 0.21459 0.87831 0.0
H935 H 0.85878 0.19416 0.89688 0.0
H936 H 0.65813 0.81999 0.139 0.0
H937 H 0.6414 0.80031 0.15748 0.0
H938 H 0.731 0.93288 0.16621 0.0
H939 H 0.74674 0.95298 0.14783 0.0
H940 H 0.69943 0.80571 0.17195 0.0
H941 H 0.62807 0.90506 0.18492 0.0
H942 H 0.63332 0.8953 0.17128 0.0
H943 H 0.67888 0.93739 0.17826 0.0
C944 C 0.67346 0.84515 0.14484 0.0
C945 C 0.70394 0.88805 0.14192 0.0
C946 C 0.664 0.83381 0.15541 0.0
C947 C 0.68446 0.86523 0.16324 0.0
C948 C 0.71405 0.90824 0.16032 0.0
H949 H 0.77326 0.85534 0.22348 0.0
H950 H 0.75873 0.86145 0.20516 0.0
C951 C 0.72354 0.91957 0.14979 0.0
C952 C 0.6786 0.85255 0.17445 0.0
H953 H 0.65933 0.88151 0.19849 0.0
C954 C 0.68984 0.82169 0.17773 0.0
C955 C 0.66553 0.87292 0.182 0.0
C956 C 0.65032 0.90417 0.17892 0.0
C957 C 0.69101 0.81271 0.18837 0.0
C958 C 0.68129 0.83563 0.19594 0.0
C959 C 0.66734 0.86441 0.19267 0.0
C960 C 0.68925 0.83283 0.20721 0.0
C961 C 0.70376 0.77954 0.19144 0.0
C962 C 0.6551 0.81599 0.21453 0.0
C963 C 0.6633 0.81221 0.22509 0.0
C964 C 0.70584 0.82543 0.22848 0.0
C965 C 0.73999 0.8437 0.22113 0.0
C966 C 0.73178 0.84736 0.21064 0.0
H967 H 0.69779 0.75629 0.18499 0.0
H968 H 0.73901 0.7965 0.19327 0.0
H969 H 0.68556 0.761 0.19848 0.0
H970 H 0.62206 0.80494 0.21203 0.0
H971 H 0.63628 0.79796 0.23053 0.0
H972 H 0.7568 0.69458 0.48185 0.0
H973 H 0.76852 0.68251 0.50012 0.0
H974 H 0.8607 0.64408 0.49034 0.0
H975 H 0.8492 0.65625 0.47198 0.0
H976 H 0.77059 0.59795 0.51029 0.0
H977 H 0.91956 0.76195 0.51059 0.0
H978 H 0.87487 0.7496 0.50189 0.0
H979 H 0.90896 0.72658 0.49954 0.0
C980 C 0.77927 0.68318 0.48358 0.0
C981 C 0.80241 0.67677 0.4755 0.0
C982 C 0.78565 0.67598 0.494 0.0
C983 C 0.81544 0.66246 0.49654 0.0
C984 C 0.83739 0.65431 0.4885 0.0
H985 H 0.9404 0.68988 0.55636 0.0
H986 H 0.91948 0.67554 0.53797 0.0
C987 C 0.83074 0.66118 0.47803 0.0
C988 C 0.82646 0.66107 0.50762 0.0
H989 H 0.89896 0.72322 0.52637 0.0
C990 C 0.7988 0.62507 0.51383 0.0
C991 C 0.86322 0.69657 0.51216 0.0
C992 C 0.89353 0.73608 0.50577 0.0
C993 C 0.80714 0.62365 0.52454 0.0
C994 C 0.84343 0.65974 0.52916 0.0
C995 C 0.87119 0.6955 0.52286 0.0
C996 C 0.85349 0.66191 0.54051 0.0
C997 C 0.77739 0.58331 0.53073 0.0
C998 C 0.82311 0.65803 0.54815 0.0
C999 C 0.83496 0.66561 0.55872 0.0
C1000 C 0.87762 0.67816 0.56176 0.0
C1001 C 0.90744 0.68063 0.55418 0.0
C1002 C 0.89547 0.6724 0.54368 0.0
H1003 H 0.76048 0.55443 0.52558 0.0
H1004 H 0.79557 0.57652 0.53679 0.0
H1005 H 0.75217 0.58803 0.53467 0.0
H1006 H 0.79088 0.65108 0.5459 0.0
H1007 H 0.8116 0.66402 0.56442 0.0
H1008 H 0.23373 0.93897 0.88764 0.0
H1009 H 0.22671 0.91626 0.86948 0.0
H1010 H 0.16421 0.78205 0.87926 0.0
H1011 H 0.16926 0.80459 0.89756 0.0
H1012 H 0.25401 0.87016 0.85786 0.0
H1013 H 0.07323 0.78292 0.86037 0.0
H1014 H 0.10723 0.81779 0.87068 0.0
H1015 H 0.0999 0.76422 0.86914 0.0
C1016 C 0.21826 0.90457 0.88597 0.0
C1017 C 0.20112 0.87358 0.89407 0.0
C1018 C 0.21474 0.89164 0.87556 0.0
C1019 C 0.19418 0.84742 0.87298 0.0
C1020 C 0.17938 0.81635 0.88106 0.0
H1021 H 0.17495 0.78554 0.80513 0.0
H1022 H 0.19479 0.78827 0.82366 0.0
C1023 C 0.18267 0.8293 0.89153 0.0
C1024 C 0.18589 0.83462 0.86179 0.0
H1025 H 0.10407 0.78765 0.8439 0.0
C1026 C 0.22126 0.85157 0.8548 0.0
C1027 C 0.14309 0.81064 0.85782 0.0
C1028 C 0.10359 0.79307 0.86485 0.0
C1029 C 0.21493 0.84686 0.84392 0.0
C1030 C 0.1721 0.82393 0.83996 0.0
C1031 C 0.13688 0.80516 0.84698 0.0
C1032 C 0.16247 0.82326 0.82865 0.0
C1033 C 0.25392 0.86856 0.83675 0.0
C1034 C 0.13779 0.84191 0.82532 0.0
C1035 C 0.12628 0.8401 0.81485 0.0
C1036 C 0.13916 0.81958 0.80742 0.0
C1037 C 0.16488 0.80183 0.81068 0.0
C1038 C 0.17622 0.80339 0.82124 0.0
H1039 H 0.28405 0.89127 0.84102 0.0
H1040 H 0.25913 0.84336 0.833 0.0
H1041 H 0.2484 0.88686 0.83046 0.0
H1042 H 0.12713 0.85772 0.83087 0.0
H1043 H 0.10715 0.85476 0.81256 0.0
H1044 H 0.65717 0.66923 0.10307 0.0
H1045 H 0.6089 0.59019 0.10157 0.0
H1046 H 0.50117 0.61006 0.09462 0.0
H1047 H 0.54911 0.68815 0.09547 0.0
H1048 H 0.53853 0.53772 0.11315 0.0
H1049 H 0.48788 0.52753 0.07194 0.0
H1050 H 0.53266 0.57617 0.07734 0.0
H1051 H 0.47753 0.5646 0.07918 0.0
C1052 C 0.6234 0.65666 0.10101 0.0
C1053 C 0.60693 0.68496 0.0995 0.0
C1054 C 0.5958 0.61157 0.10023 0.0
C1055 C 0.55148 0.59423 0.09786 0.0
C1056 C 0.53532 0.62256 0.09623 0.0
H1057 H 0.3541 0.32361 0.11207 0.0
H1058 H 0.39391 0.40365 0.11171 0.0
C1059 C 0.56277 0.6673 0.09689 0.0
C1060 C 0.52133 0.54659 0.09758 0.0
H1061 H 0.44353 0.46552 0.08267 0.0
C1062 C 0.51798 0.52181 0.10646 0.0
C1063 C 0.49467 0.52586 0.08882 0.0
C1064 C 0.49868 0.54988 0.07875 0.0
C1065 C 0.48856 0.4769 0.10685 0.0
C1066 C 0.46069 0.45649 0.09825 0.0
C1067 C 0.46421 0.48131 0.08935 0.0
C1068 C 0.43123 0.40872 0.09781 0.0
C1069 C 0.48869 0.45164 0.11635 0.0
C1070 C 0.43663 0.38525 0.08972 0.0
C1071 C 0.41335 0.34004 0.08979 0.0
C1072 C 0.38438 0.31722 0.09799 0.0
C1073 C 0.37633 0.34052 0.10568 0.0
C1074 C 0.39954 0.38612 0.10556 0.0
H1075 H 0.51884 0.47008 0.12102 0.0
H1076 H 0.46066 0.44489 0.12144 0.0
H1077 H 0.48571 0.42011 0.11406 0.0
H1078 H 0.46048 0.40186 0.0836 0.0
H1079 H 0.41971 0.32276 0.08369 0.0
H1080 H 0.07398 0.41027 0.42215 0.0
H1081 H 0.04028 0.45483 0.42492 0.0
H1082 H 0.00673 0.406 0.45649 0.0
H1083 H 0.04177 0.36185 0.45378 0.0
H1084 H 0.95989 0.43909 0.4303 0.0
H1085 H 0.07946 0.53671 0.46107 0.0
H1086 H 0.08563 0.49856 0.45298 0.0
H1087 H 0.0476 0.4794 0.46368 0.0
C1088 C 0.0587 0.40844 0.42962 0.0
C1089 C 0.06068 0.38292 0.43778 0.0
C1090 C 0.03954 0.43398 0.43121 0.0
C1091 C 0.02195 0.43464 0.44099 0.0
C1092 C 0.02109 0.4068 0.44896 0.0
H1093 H 0.89662 0.58369 0.45726 0.0
H1094 H 0.92909 0.53689 0.45832 0.0
C1095 C 0.04044 0.38111 0.44737 0.0
C1096 C 0.0065 0.46605 0.44278 0.0
H1097 H 0.02766 0.55713 0.45654 0.0
C1098 C 0.97456 0.46471 0.43608 0.0
C1099 C 0.02597 0.49979 0.45027 0.0
C1100 C 0.06183 0.50414 0.45737 0.0
C1101 C 0.96185 0.49627 0.4366 0.0
C1102 C 0.9817 0.53019 0.44398 0.0
C1103 C 0.01283 0.53114 0.45086 0.0
C1104 C 0.96961 0.56442 0.44462 0.0
C1105 C 0.92742 0.49341 0.42921 0.0
C1106 C 0.98334 0.59672 0.43686 0.0
C1107 C 0.96526 0.62385 0.43632 0.0
C1108 C 0.9331 0.61873 0.44351 0.0
C1109 C 0.9218 0.58852 0.45172 0.0
C1110 C 0.94011 0.5617 0.4523 0.0
H1111 H 0.91113 0.46205 0.42493 0.0
H1112 H 0.90242 0.49724 0.43356 0.0
H1113 H 0.94261 0.52023 0.42341 0.0
H1114 H 0.00607 0.59917 0.43086 0.0
H1115 H 0.97382 0.64636 0.42983 0.0
H1116 H 0.32386 0.90563 0.78971 0.0
H1117 H 0.40277 0.93914 0.79172 0.0
H1118 H 0.42176 0.01911 0.76456 0.0
H1119 H 0.34278 0.98639 0.76276 0.0
H1120 H 0.45293 0.93011 0.77763 0.0
H1121 H 0.51499 0.10574 0.7834 0.0
H1122 H 0.45818 0.06567 0.78493 0.0
H1123 H 0.48074 0.08547 0.77213 0.0
C1124 C 0.34506 0.93168 0.78445 0.0
C1125 C 0.32751 0.94404 0.77618 0.0
C1126 C 0.39006 0.95051 0.78554 0.0
C1127 C 0.41835 0.98185 0.77833 0.0
C1128 C 0.40077 0.99579 0.77037 0.0
H1129 H 0.67756 0.08929 0.75613 0.0
H1130 H 0.59916 0.05586 0.75891 0.0
C1131 C 0.35566 0.97721 0.76934 0.0
C1132 C 0.46553 0.99609 0.77842 0.0
H1133 H 0.56697 0.08574 0.77742 0.0
C1134 C 0.47788 0.96414 0.77778 0.0
C1135 C 0.49815 0.04046 0.7786 0.0
C1136 C 0.48737 0.07625 0.77991 0.0
C1137 C 0.52178 0.97546 0.77687 0.0
C1138 C 0.55408 0.01977 0.77662 0.0
C1139 C 0.54196 0.0517 0.77757 0.0
C1140 C 0.60043 0.03402 0.77463 0.0
C1141 C 0.53341 0.94021 0.77577 0.0
C1142 C 0.62686 0.03138 0.78243 0.0
C1143 C 0.67189 0.05042 0.78084 0.0
C1144 C 0.69079 0.0724 0.77144 0.0
C1145 C 0.66373 0.07253 0.76344 0.0
C1146 C 0.61905 0.05367 0.76504 0.0
H1147 H 0.50418 0.90731 0.7753 0.0
H1148 H 0.55354 0.94599 0.76864 0.0
H1149 H 0.5531 0.94104 0.78259 0.0
H1150 H 0.613 0.01649 0.78991 0.0
H1151 H 0.69215 0.05041 0.78716 0.0
H1152 H 0.67369 0.58231 0.61353 0.0
H1153 H 0.59514 0.53918 0.61127 0.0
H1154 H 0.60631 0.60171 0.58155 0.0
H1155 H 0.68583 0.6444 0.58368 0.0
H1156 H 0.53106 0.55831 0.60865 0.0
H1157 H 0.54464 0.47383 0.57349 0.0
H1158 H 0.59073 0.5077 0.58164 0.0
H1159 H 0.57091 0.53199 0.57243 0.0
C1160 C 0.65937 0.58722 0.60655 0.0
C1161 C 0.68584 0.6163 0.59871 0.0
C1162 C 0.61446 0.56256 0.60527 0.0
C1163 C 0.59489 0.56636 0.59613 0.0
C1164 C 0.62087 0.59744 0.58856 0.0
H1165 H 0.32057 0.42775 0.57997 0.0
H1166 H 0.39994 0.47363 0.57945 0.0
C1167 C 0.66614 0.62225 0.58983 0.0
C1168 C 0.54754 0.53651 0.59457 0.0
H1169 H 0.47371 0.45339 0.57929 0.0
C1170 C 0.51856 0.5355 0.60221 0.0
C1171 C 0.53124 0.50649 0.58619 0.0
C1172 C 0.56093 0.50461 0.578 0.0
C1173 C 0.4739 0.50527 0.60173 0.0
C1174 C 0.45776 0.47499 0.59345 0.0
C1175 C 0.48639 0.47647 0.58568 0.0
C1176 C 0.41088 0.44241 0.59269 0.0
C1177 C 0.44414 0.50598 0.61008 0.0
C1178 C 0.39103 0.40837 0.6 0.0
C1179 C 0.34571 0.38178 0.60024 0.0
C1180 C 0.31975 0.38919 0.59322 0.0
C1181 C 0.33997 0.42139 0.58546 0.0
C1182 C 0.38519 0.44765 0.58517 0.0
H1183 H 0.46036 0.536 0.61488 0.0
H1184 H 0.41446 0.50347 0.60652 0.0
H1185 H 0.43379 0.4776 0.61536 0.0
H1186 H 0.41047 0.40371 0.60583 0.0
H1187 H 0.33086 0.35751 0.60636 0.0
H1188 H 0.10581 0.6856 0.912 0.0
H1189 H 0.07266 0.60669 0.91014 0.0
H1190 H 0.993 0.58818 0.93734 0.0
H1191 H 0.02531 0.66714 0.93899 0.0
H1192 H 0.08213 0.55703 0.92424 0.0
H1193 H 0.9062 0.49434 0.9187 0.0
H1194 H 0.94609 0.55114 0.9171 0.0
H1195 H 0.92661 0.5288 0.92994 0.0
C1196 C 0.07993 0.66448 0.91731 0.0
C1197 C 0.06754 0.68218 0.92554 0.0
C1198 C 0.0613 0.61949 0.9163 0.0
C1199 C 0.03013 0.59134 0.92356 0.0
C1200 C 0.01618 0.60904 0.93149 0.0
H1201 H 0.92496 0.33313 0.9462 0.0
H1202 H 0.95869 0.41151 0.94333 0.0
C1203 C 0.03455 0.65415 0.93243 0.0
C1204 C 0.01603 0.54422 0.92354 0.0
H1205 H 0.92657 0.44268 0.92472 0.0
C1206 C 0.0481 0.53202 0.92415 0.0
C1207 C 0.97167 0.51149 0.92343 0.0
C1208 C 0.93571 0.52208 0.92215 0.0
C1209 C 0.03693 0.48819 0.92509 0.0
C1210 C 0.99266 0.45582 0.92542 0.0
C1211 C 0.96059 0.46776 0.9245 0.0
C1212 C 0.97861 0.40957 0.92745 0.0
C1213 C 0.07231 0.47669 0.92614 0.0
C1214 C 0.98013 0.38281 0.91957 0.0
C1215 C 0.96095 0.33782 0.92122 0.0
C1216 C 0.93997 0.31931 0.93074 0.0
C1217 C 0.94104 0.34669 0.9388 0.0
C1218 C 0.96005 0.39135 0.93716 0.0
H1219 H 0.10525 0.50595 0.92639 0.0
H1220 H 0.06712 0.45729 0.93337 0.0
H1221 H 0.07088 0.4563 0.91942 0.0
H1222 H 0.99419 0.39638 0.91201 0.0
H1223 H 0.95997 0.31729 0.91485 0.0
H1224 H 0.58746 0.89867 0.24857 0.0
H1225 H 0.543 0.93348 0.24741 0.0
H1226 H 0.61049 0.01358 0.27395 0.0
H1227 H 0.65565 0.97923 0.27498 0.0
H1228 H 0.48716 0.92752 0.26257 0.0
H1229 H 0.60481 0.10108 0.25468 0.0
H1230 H 0.6185 0.05886 0.25296 0.0
H1231 H 0.61934 0.08008 0.26578 0.0
C1232 C 0.59364 0.92466 0.25396 0.0
C1233 C 0.62509 0.93648 0.26184 0.0
C1234 C 0.56807 0.94433 0.25333 0.0
C1235 C 0.57338 0.97624 0.26057 0.0
C1236 C 0.6063 0.98965 0.26814 0.0
H1237 H 0.43444 0.1046 0.27956 0.0
H1238 H 0.47883 0.06998 0.278 0.0
C1239 C 0.63218 0.97011 0.26873 0.0
C1240 C 0.54185 0.99229 0.26078 0.0
H1241 H 0.53405 0.08433 0.26049 0.0
C1242 C 0.49737 0.96179 0.262 0.0
C1243 C 0.55512 0.03696 0.26003 0.0
C1244 C 0.60199 0.07111 0.25818 0.0
C1245 C 0.46604 0.97486 0.26282 0.0
C1246 C 0.47949 0.01957 0.26231 0.0
C1247 C 0.52382 0.05001 0.26091 0.0
C1248 C 0.44861 0.03593 0.26371 0.0
C1249 C 0.41902 0.94094 0.26457 0.0
C1250 C 0.41589 0.02724 0.25634 0.0
C1251 C 0.39018 0.04694 0.25725 0.0
C1252 C 0.3972 0.0758 0.26549 0.0
C1253 C 0.4285 0.08262 0.2731 0.0
C1254 C 0.45397 0.06301 0.27221 0.0
H1255 H 0.41514 0.90885 0.26671 0.0
H1256 H 0.40449 0.95129 0.27084 0.0
H1257 H 0.40048 0.93694 0.25728 0.0
H1258 H 0.41152 0.00677 0.24966 0.0
H1259 H 0.36664 0.04158 0.25122 0.0
H1260 H 0.19688 0.14119 0.07828 0.0
H1261 H 0.1173 0.10515 0.07808 0.0
H1262 H 0.10974 0.99469 0.09419 0.0
H1263 H 0.18899 0.03114 0.09478 0.0
H1264 H 0.0556 0.0319 0.0698 0.0
H1265 H 0.03485 0.0202 0.11278 0.0
H1266 H 0.08733 0.05185 0.10664 0.0
H1267 H 0.06377 0.99397 0.10825 0.0
C1268 C 0.17821 0.10924 0.08179 0.0
C1269 C 0.19922 0.08924 0.08665 0.0
C1270 C 0.13273 0.08866 0.08167 0.0
C1271 C 0.10743 0.0476 0.08634 0.0
C1272 C 0.12844 0.02693 0.09084 0.0
H1273 H 0.82941 0.87583 0.07547 0.0
H1274 H 0.90891 0.91206 0.075 0.0
C1275 C 0.17381 0.04772 0.09111 0.0
C1276 C 0.05914 0.02629 0.08649 0.0
H1277 H 0.97076 0.9787 0.10272 0.0
C1278 C 0.03705 0.02049 0.077 0.0
C1279 C 0.03487 0.01205 0.09591 0.0
C1280 C 0.05645 0.02025 0.10647 0.0
C1281 C 0.99144 1.00029 0.07665 0.0
C1282 C 0.96709 0.98414 0.08602 0.0
C1283 C 0.98927 0.99051 0.09551 0.0
C1284 C 0.91871 0.96167 0.08625 0.0
C1285 C 0.97004 0.99754 0.06628 0.0
C1286 C 0.89753 0.97635 0.093 0.0
C1287 C 0.85216 0.95506 0.09347 0.0
C1288 C 0.82685 0.91875 0.08713 0.0
C1289 C 0.84799 0.90395 0.08039 0.0
C1290 C 0.89348 0.92488 0.08004 0.0
H1291 H 0.99294 0.02267 0.06071 0.0
H1292 H 0.95937 0.96525 0.06275 0.0
H1293 H 0.94114 1.00157 0.06724 0.0
H1294 H 0.91617 0.00456 0.09789 0.0
H1295 H 0.83694 0.96756 0.09868 0.0
H1296 H 0.12053 0.17825 0.43658 0.0
H1297 H 0.07976 0.09887 0.43642 0.0
H1298 H 0.01604 0.10112 0.40795 0.0
H1299 H 0.05601 0.18072 0.40818 0.0
H1300 H 0.95903 0.04223 0.42162 0.0
H1301 H 0.1021 0.01977 0.41808 0.0
H1302 H 0.10528 0.05186 0.42922 0.0
H1303 H 0.10575 0.0719 0.41625 0.0
C1304 C 0.09791 0.16194 0.43026 0.0
C1305 C 0.09175 0.18596 0.42236 0.0
C1306 C 0.07481 0.11645 0.43015 0.0
C1307 C 0.04548 0.09389 0.42205 0.0
C1308 C 0.03871 0.11776 0.41424 0.0
H1309 H 0.93857 0.8168 0.40982 0.0
H1310 H 0.97827 0.89631 0.40896 0.0
C1311 C 0.06159 0.1633 0.41439 0.0
C1312 C 0.02124 0.04546 0.42186 0.0
H1313 H 0.03461 0.95653 0.42232 0.0
C1314 C 0.97558 0.02351 0.42172 0.0
C1315 C 0.04275 0.0209 0.4218 0.0
C1316 C 0.09166 0.04228 0.42123 0.0
C1317 C 0.95089 0.97784 0.42177 0.0
C1318 C 0.97239 0.95331 0.42223 0.0
C1319 C 0.01806 0.97525 0.42211 0.0
C1320 C 0.94816 0.90491 0.42279 0.0
C1321 C 0.902 0.95638 0.42115 0.0
C1322 C 0.9185 0.88315 0.43095 0.0
C1323 C 0.89555 0.83768 0.43143 0.0
C1324 C 0.90222 0.81292 0.42384 0.0
C1325 C 0.93263 0.8348 0.4158 0.0
C1326 C 0.95536 0.8803 0.41529 0.0
H1327 H 0.89168 0.97853 0.4177 0.0
H1328 H 0.88811 0.92625 0.4164 0.0
H1329 H 0.88808 0.94765 0.42915 0.0
H1330 H 0.9132 0.90133 0.437 0.0
H1331 H 0.87269 0.82197 0.43778 0.0
H1332 H 0.95644 0.13232 0.77046 0.0
H1333 H 0.99508 0.09154 0.76981 0.0
H1334 H 0.9272 0.02848 0.74152 0.0
H1335 H 0.88758 0.06849 0.74223 0.0
H1336 H 0.93009 0.97115 0.75491 0.0
H1337 H 0.0952 0.11414 0.75083 0.0
H1338 H 0.06708 0.11718 0.76218 0.0
H1339 H 0.0466 0.11784 0.74936 0.0
C1340 C 0.94971 0.10984 0.76408 0.0
C1341 C 0.91898 0.10387 0.75637 0.0
C1342 C 0.97212 0.08674 0.76368 0.0
C1343 C 0.96482 0.05758 0.7555 0.0
C1344 C 0.93365 0.051 0.74788 0.0
H1345 H 0.13435 0.95046 0.74176 0.0
H1346 H 0.09444 0.9902 0.74124 0.0
C1347 C 0.91098 0.07391 0.7483 0.0
C1348 C 0.98902 0.03332 0.75501 0.0
H1349 H 0.09131 0.04658 0.75481 0.0
C1350 C 0.96534 0.98767 0.75483 0.0
C1351 C 0.03505 0.05478 0.75471 0.0
C1352 C 0.06249 0.10367 0.75417 0.0
C1353 C 0.98635 0.96296 0.75463 0.0
C1354 C 0.03238 0.98441 0.75487 0.0
C1355 C 0.05605 0.03006 0.75477 0.0
C1356 C 0.0566 0.96015 0.75521 0.0
C1357 C 0.95892 0.9141 0.75401 0.0
C1358 C 0.04924 0.93049 0.76332 0.0
C1359 C 0.07181 0.90754 0.7636 0.0
C1360 C 0.10276 0.91414 0.75585 0.0
C1361 C 0.11077 0.94454 0.74785 0.0
C1362 C 0.08795 0.9673 0.74754 0.0
H1363 H 0.92625 0.90384 0.75072 0.0
H1364 H 0.97487 0.90023 0.74911 0.0
H1365 H 0.95423 0.90012 0.76199 0.0
H1366 H 0.02614 0.92523 0.76949 0.0
H1367 H 0.06507 0.88472 0.76994 0.0
H1368 H 0.95143 0.82541 0.59944 0.0
H1369 H 0.99013 0.90471 0.60016 0.0
H1370 H 0.92154 0.89925 0.62851 0.0
H1371 H 0.88192 0.81969 0.62774 0.0
H1372 H 0.92478 0.95978 0.61499 0.0
H1373 H 0.08966 0.9815 0.61932 0.0
H1374 H 0.06194 0.95028 0.608 0.0
H1375 H 0.04094 0.92932 0.62083 0.0
C1376 C 0.94452 0.84098 0.60585 0.0
C1377 C 0.91363 0.81606 0.61356 0.0
C1378 C 0.96698 0.88642 0.60629 0.0
C1379 C 0.95951 0.90804 0.61451 0.0
C1380 C 0.92813 0.88332 0.62213 0.0
H1381 H 0.12748 0.18603 0.62732 0.0
H1382 H 0.08834 0.10643 0.62837 0.0
C1383 C 0.90546 0.8378 0.62167 0.0
C1384 C 0.9837 0.95642 0.61502 0.0
H1385 H 0.08602 0.04522 0.61513 0.0
C1386 C 0.96003 0.97843 0.61509 0.0
C1387 C 0.02972 0.98087 0.61534 0.0
C1388 C 0.05707 0.9593 0.61598 0.0
C1389 C 0.98106 0.0241 0.61516 0.0
C1390 C 0.0271 0.04855 0.61492 0.0
C1391 C 0.05077 0.02655 0.61518 0.0
C1392 C 0.05123 0.0969 0.61424 0.0
C1393 C 0.95366 0.04566 0.6156 0.0
C1394 C 0.04412 0.11809 0.60584 0.0
C1395 C 0.06627 0.16349 0.60525 0.0
C1396 C 0.09651 0.18885 0.61297 0.0
C1397 C 0.10443 0.16756 0.62124 0.0
C1398 C 0.08204 0.12204 0.62186 0.0
H1399 H 0.9209 0.02352 0.61893 0.0
H1400 H 0.96953 0.07574 0.62037 0.0
H1401 H 0.94918 0.0545 0.60756 0.0
H1402 H 0.02144 0.09948 0.59971 0.0
H1403 H 0.05961 0.17867 0.5987 0.0
H1404 H 0.87554 0.05289 0.93184 0.0
H1405 H 0.91608 0.01398 0.93228 0.0
H1406 H 0.97998 0.08109 0.96057 0.0
H1407 H 0.94022 0.12099 0.96007 0.0
H1408 H 0.03691 0.07844 0.947 0.0
H1409 H 0.89383 0.91338 0.95103 0.0
H1410 H 0.89056 0.94181 0.93977 0.0
H1411 H 0.89025 0.96197 0.95265 0.0
C1412 C 0.89814 0.05938 0.93818 0.0
C1413 C 0.90443 0.08999 0.94595 0.0
C1414 C 0.92111 0.03682 0.93846 0.0
C1415 C 0.95045 0.04384 0.94658 0.0
C1416 C 0.95731 0.07486 0.95426 0.0
H1417 H 0.05797 0.87422 0.95965 0.0
H1418 H 0.01801 0.91389 0.9603 0.0
C1419 C 0.93454 0.09767 0.95396 0.0
C1420 C 0.97468 0.01958 0.94692 0.0
H1421 H 0.96128 0.91728 0.94687 0.0
C1422 C 0.02035 0.0432 0.94703 0.0
C1423 C 0.95316 0.97355 0.94715 0.0
C1424 C 0.90426 0.94617 0.94775 0.0
C1425 C 0.04503 0.02215 0.9471 0.0
C1426 C 0.02351 0.97614 0.9468 0.0
C1427 C 0.97784 0.95252 0.94696 0.0
C1428 C 0.04774 0.9519 0.94634 0.0
C1429 C 0.09392 0.04951 0.94766 0.0
C1430 C 0.07725 0.95939 0.93818 0.0
C1431 C 0.10032 0.93695 0.93781 0.0
C1432 C 0.094 0.90601 0.94554 0.0
C1433 C 0.06368 0.8978 0.95357 0.0
C1434 C 0.0408 0.92049 0.95396 0.0
H1435 H 0.10431 0.08212 0.95099 0.0
H1436 H 0.10788 0.03346 0.95248 0.0
H1437 H 0.10772 0.0543 0.93965 0.0
H1438 H 0.08235 0.98254 0.93204 0.0
H1439 H 0.12308 0.94385 0.93145 0.0
H1440 H 0.18454 0.12792 0.26616 0.0
H1441 H 0.10538 0.08671 0.2675 0.0
H1442 H 0.11473 0.02976 0.29649 0.0
H1443 H 0.19426 0.07045 0.29512 0.0
H1444 H 0.05318 0.96936 0.28361 0.0
H1445 H 0.02924 0.11156 0.2866 0.0
H1446 H 0.0599 0.11371 0.27522 0.0
H1447 H 0.0819 0.116 0.28802 0.0
C1448 C 0.1699 0.10671 0.27285 0.0
C1449 C 0.19594 0.10272 0.28056 0.0
C1450 C 0.1245 0.08336 0.27364 0.0
C1451 C 0.10397 0.05579 0.28221 0.0
C1452 C 0.12979 0.05109 0.28984 0.0
H1453 H 0.82537 0.94442 0.29578 0.0
H1454 H 0.90502 0.9854 0.29672 0.0
C1455 C 0.1753 0.07436 0.28904 0.0
C1456 C 0.05558 0.03114 0.28305 0.0
H1457 H 0.9658 0.04322 0.28304 0.0
C1458 C 0.03411 0.98555 0.28356 0.0
C1459 C 0.03057 0.05218 0.28318 0.0
C1460 C 0.05157 0.10106 0.28334 0.0
C1461 C 0.98844 0.96046 0.28385 0.0
C1462 C 0.9634 0.98142 0.2834 0.0
C1463 C 0.98488 0.02705 0.28325 0.0
C1464 C 0.91497 0.95659 0.28285 0.0
C1465 C 0.9675 0.91168 0.28472 0.0
C1466 C 0.89396 0.92733 0.27464 0.0
C1467 C 0.84855 0.90383 0.2741 0.0
C1468 C 0.82292 0.90933 0.2817 0.0
C1469 C 0.84402 0.93931 0.28981 0.0
C1470 C 0.88958 0.96276 0.29036 0.0
H1471 H 0.99009 0.90194 0.28817 0.0
H1472 H 0.93752 0.89779 0.28958 0.0
H1473 H 0.95856 0.89726 0.27679 0.0
H1474 H 0.91273 0.92281 0.2686 0.0
H1475 H 0.83356 0.88136 0.26769 0.0
loop_
_geom_bond_atom_site_label_1
_geom_bond_atom_site_label_2
_geom_bond_distance
_geom_bond_site_symmetry_2
_ccdc_geom_bond_type
Co0 N4 2.148 . S
Co0 N10 2.128 . S
Co0 N20 2.194 . S
Co0 O25 2.351 . S
Co0 O26 2.155 . S
Co0 O27 2.096 . S
C1 N4 1.301 . S
C1 N5 1.328 . S
C1 H6 0.930 . S
C2 C3 1.333 . S
C2 N4 1.317 . S
C2 H7 0.930 . S
C3 C2 1.333 . S
C3 N5 1.350 . S
C3 H29 0.931 . S
N4 Co0 2.148 . S
N4 C1 1.301 . S
N4 C2 1.317 . S
N5 C1 1.328 . S
N5 C3 1.350 . S
H6 C1 0.930 . S
H7 C2 0.930 . S
C8 O9 1.224 . S
C8 O27 1.247 . S
O9 C8 1.224 . S
N10 Co0 2.128 . S
N10 C11 1.355 . S
N10 C13 1.311 . S
C11 N10 1.355 . S
C11 C12 1.363 . S
C11 H23 0.929 . S
C12 C11 1.363 . S
C12 N14 1.375 . S
C12 H30 0.931 . S
C13 N10 1.311 . S
C13 N14 1.347 . S
C13 H24 0.929 . S
N14 C12 1.375 . S
N14 C13 1.347 . S
C15 C18 1.365 . S
C15 N20 1.328 . S
C15 H21 0.929 . S
C16 C17 1.362 . S
C16 C19 1.378 . S
C16 H31 0.929 . S
C17 C16 1.362 . S
C17 C18 1.366 . S
C18 C15 1.365 . S
C18 C17 1.366 . S
C18 H32 0.930 . S
C19 C16 1.378 . S
C19 N20 1.315 . S
C19 H22 0.930 . S
N20 Co0 2.194 . S
N20 C15 1.328 . S
N20 C19 1.315 . S
H21 C15 0.929 . S
H22 C19 0.930 . S
H23 C11 0.929 . S
H24 C13 0.929 . S
O25 Co0 2.351 . S
O25 C28 1.244 . S
O26 Co0 2.155 . S
O26 C28 1.240 . S
O27 Co0 2.096 . S
O27 C8 1.247 . S
C28 O25 1.244 . S
C28 O26 1.240 . S
H29 C3 0.931 . S
H30 C12 0.931 . S
H31 C16 0.929 . S
H32 C18 0.930 . S
Co33 N37 2.148 . S
Co33 N43 2.128 . S
Co33 N53 2.194 . S
Co33 O58 2.351 . S
Co33 O59 2.155 . S
Co33 O60 2.096 . S
C34 N37 1.301 . S
C34 N38 1.328 . S
C34 H39 0.930 . S
C35 C36 1.333 . S
C35 N37 1.317 . S
C35 H40 0.930 . S
C36 C35 1.333 . S
C36 N38 1.350 . S
C36 H62 0.931 . S
N37 Co33 2.148 . S
N37 C34 1.301 . S
N37 C35 1.317 . S
N38 C34 1.328 . S
N38 C36 1.350 . S
H39 C34 0.930 . S
H40 C35 0.930 . S
C41 O42 1.224 . S
C41 O60 1.247 . S
O42 C41 1.224 . S
N43 Co33 2.128 . S
N43 C44 1.355 . S
N43 C46 1.311 . S
C44 N43 1.355 . S
C44 C45 1.363 . S
C44 H56 0.929 . S
C45 C44 1.363 . S
C45 N47 1.375 . S
C45 H63 0.931 . S
C46 N43 1.311 . S
C46 N47 1.347 . S
C46 H57 0.929 . S
N47 C45 1.375 . S
N47 C46 1.347 . S
C48 C51 1.365 . S
C48 N53 1.328 . S
C48 H54 0.929 . S
C49 C50 1.362 . S
C49 C52 1.378 . S
C49 H64 0.929 . S
C50 C49 1.362 . S
C50 C51 1.366 . S
C51 C48 1.365 . S
C51 C50 1.366 . S
C51 H65 0.930 . S
C52 C49 1.378 . S
C52 N53 1.315 . S
C52 H55 0.930 . S
N53 Co33 2.194 . S
N53 C48 1.328 . S
N53 C52 1.315 . S
H54 C48 0.929 . S
H55 C52 0.930 . S
H56 C44 0.929 . S
H57 C46 0.929 . S
O58 Co33 2.351 . S
O58 C61 1.244 . S
O59 Co33 2.155 . S
O59 C61 1.240 . S
O60 Co33 2.096 . S
O60 C41 1.247 . S
C61 O58 1.244 . S
C61 O59 1.240 . S
H62 C36 0.931 . S
H63 C45 0.931 . S
H64 C49 0.929 . S
H65 C51 0.930 . S
Co66 N70 2.148 . S
Co66 N76 2.128 . S
Co66 N86 2.194 . S
Co66 O91 2.351 . S
Co66 O92 2.155 . S
Co66 O93 2.096 . S
C67 N70 1.301 . S
C67 N71 1.328 . S
C67 H72 0.930 . S
C68 C69 1.333 . S
C68 N70 1.317 . S
C68 H73 0.930 . S
C69 C68 1.333 . S
C69 N71 1.350 . S
C69 H95 0.931 . S
N70 Co66 2.148 . S
N70 C67 1.301 . S
N70 C68 1.317 . S
N71 C67 1.328 . S
N71 C69 1.350 . S
H72 C67 0.930 . S
H73 C68 0.930 . S
C74 O75 1.224 . S
C74 O93 1.247 . S
O75 C74 1.224 . S
N76 Co66 2.128 . S
N76 C77 1.355 . S
N76 C79 1.311 . S
C77 N76 1.355 . S
C77 C78 1.363 . S
C77 H89 0.929 . S
C78 C77 1.363 . S
C78 N80 1.375 . S
C78 H96 0.931 . S
C79 N76 1.311 . S
C79 N80 1.347 . S
C79 H90 0.929 . S
N80 C78 1.375 . S
N80 C79 1.347 . S
C81 C84 1.365 . S
C81 N86 1.328 . S
C81 H87 0.929 . S
C82 C83 1.362 . S
C82 C85 1.378 . S
C82 H97 0.929 . S
C83 C82 1.362 . S
C83 C84 1.366 . S
C84 C81 1.365 . S
C84 C83 1.366 . S
C84 H98 0.930 . S
C85 C82 1.378 . S
C85 N86 1.315 . S
C85 H88 0.930 . S
N86 Co66 2.194 . S
N86 C81 1.328 . S
N86 C85 1.315 . S
H87 C81 0.929 . S
H88 C85 0.930 . S
H89 C77 0.929 . S
H90 C79 0.929 . S
O91 Co66 2.351 . S
O91 C94 1.244 . S
O92 Co66 2.155 . S
O92 C94 1.240 . S
O93 Co66 2.096 . S
O93 C74 1.247 . S
C94 O91 1.244 . S
C94 O92 1.240 . S
H95 C69 0.931 . S
H96 C78 0.931 . S
H97 C82 0.929 . S
H98 C84 0.930 . S
Co99 N103 2.148 . S
Co99 N109 2.128 . S
Co99 N119 2.194 . S
Co99 O124 2.351 . S
Co99 O125 2.155 . S
Co99 O126 2.096 . S
C100 N103 1.301 . S
C100 N104 1.328 . S
C100 H105 0.930 . S
C101 C102 1.333 . S
C101 N103 1.317 . S
C101 H106 0.930 . S
C102 C101 1.333 . S
C102 N104 1.350 . S
C102 H128 0.931 . S
N103 Co99 2.148 . S
N103 C100 1.301 . S
N103 C101 1.317 . S
N104 C100 1.328 . S
N104 C102 1.350 . S
H105 C100 0.930 . S
H106 C101 0.930 . S
C107 O108 1.224 . S
C107 O126 1.247 . S
O108 C107 1.224 . S
N109 Co99 2.128 . S
N109 C110 1.355 . S
N109 C112 1.311 . S
C110 N109 1.355 . S
C110 C111 1.363 . S
C110 H122 0.929 . S
C111 C110 1.363 . S
C111 N113 1.375 . S
C111 H129 0.931 . S
C112 N109 1.311 . S
C112 N113 1.347 . S
C112 H123 0.929 . S
N113 C111 1.375 . S
N113 C112 1.347 . S
C114 C117 1.365 . S
C114 N119 1.328 . S
C114 H120 0.929 . S
C115 C116 1.362 . S
C115 C118 1.378 . S
C115 H130 0.929 . S
C116 C115 1.362 . S
C116 C117 1.366 . S
C117 C114 1.365 . S
C117 C116 1.366 . S
C117 H131 0.930 . S
C118 C115 1.378 . S
C118 N119 1.315 . S
C118 H121 0.930 . S
N119 Co99 2.194 . S
N119 C114 1.328 . S
N119 C118 1.315 . S
H120 C114 0.929 . S
H121 C118 0.930 . S
H122 C110 0.929 . S
H123 C112 0.929 . S
O124 Co99 2.351 . S
O124 C127 1.244 . S
O125 Co99 2.155 . S
O125 C127 1.240 . S
O126 Co99 2.096 . S
O126 C107 1.247 . S
C127 O124 1.244 . S
C127 O125 1.240 . S
H128 C102 0.931 . S
H129 C111 0.931 . S
H130 C115 0.929 . S
H131 C117 0.930 . S
Co132 N136 2.148 . S
Co132 N142 2.128 . S
Co132 N152 2.194 . S
Co132 O157 2.351 . S
Co132 O158 2.155 . S
Co132 O159 2.096 . S
C133 N136 1.301 . S
C133 N137 1.328 . S
C133 H138 0.930 . S
C134 C135 1.333 . S
C134 N136 1.317 . S
C134 H139 0.930 . S
C135 C134 1.333 . S
C135 N137 1.350 . S
C135 H161 0.931 . S
N136 Co132 2.148 . S
N136 C133 1.301 . S
N136 C134 1.317 . S
N137 C133 1.328 . S
N137 C135 1.350 . S
H138 C133 0.930 . S
H139 C134 0.930 . S
C140 O141 1.224 . S
C140 O159 1.247 . S
O141 C140 1.224 . S
N142 Co132 2.128 . S
N142 C143 1.355 . S
N142 C145 1.311 . S
C143 N142 1.355 . S
C143 C144 1.363 . S
C143 H155 0.929 . S
C144 C143 1.363 . S
C144 N146 1.375 . S
C144 H162 0.931 . S
C145 N142 1.311 . S
C145 N146 1.347 . S
C145 H156 0.929 . S
N146 C144 1.375 . S
N146 C145 1.347 . S
C147 C150 1.365 . S
C147 N152 1.328 . S
C147 H153 0.929 . S
C148 C149 1.362 . S
C148 C151 1.378 . S
C148 H163 0.929 . S
C149 C148 1.362 . S
C149 C150 1.366 . S
C150 C147 1.365 . S
C150 C149 1.366 . S
C150 H164 0.930 . S
C151 C148 1.378 . S
C151 N152 1.315 . S
C151 H154 0.930 . S
N152 Co132 2.194 . S
N152 C147 1.328 . S
N152 C151 1.315 . S
H153 C147 0.929 . S
H154 C151 0.930 . S
H155 C143 0.929 . S
H156 C145 0.929 . S
O157 Co132 2.351 . S
O157 C160 1.244 . S
O158 Co132 2.155 . S
O158 C160 1.240 . S
O159 Co132 2.096 . S
O159 C140 1.247 . S
C160 O157 1.244 . S
C160 O158 1.240 . S
H161 C135 0.931 . S
H162 C144 0.931 . S
H163 C148 0.929 . S
H164 C150 0.930 . S
Co165 N169 2.148 . S
Co165 N175 2.128 . S
Co165 N185 2.194 . S
Co165 O190 2.351 . S
Co165 O191 2.155 . S
Co165 O192 2.096 . S
C166 N169 1.301 . S
C166 N170 1.328 . S
C166 H171 0.930 . S
C167 C168 1.333 . S
C167 N169 1.317 . S
C167 H172 0.930 . S
C168 C167 1.333 . S
C168 N170 1.350 . S
C168 H194 0.931 . S
N169 Co165 2.148 . S
N169 C166 1.301 . S
N169 C167 1.317 . S
N170 C166 1.328 . S
N170 C168 1.350 . S
H171 C166 0.930 . S
H172 C167 0.930 . S
C173 O174 1.224 . S
C173 O192 1.247 . S
O174 C173 1.224 . S
N175 Co165 2.128 . S
N175 C176 1.355 . S
N175 C178 1.311 . S
C176 N175 1.355 . S
C176 C177 1.363 . S
C176 H188 0.929 . S
C177 C176 1.363 . S
C177 N179 1.375 . S
C177 H195 0.931 . S
C178 N175 1.311 . S
C178 N179 1.347 . S
C178 H189 0.929 . S
N179 C177 1.375 . S
N179 C178 1.347 . S
C180 C183 1.365 . S
C180 N185 1.328 . S
C180 H186 0.929 . S
C181 C182 1.362 . S
C181 C184 1.378 . S
C181 H196 0.929 . S
C182 C181 1.362 . S
C182 C183 1.366 . S
C183 C180 1.365 . S
C183 C182 1.366 . S
C183 H197 0.930 . S
C184 C181 1.378 . S
C184 N185 1.315 . S
C184 H187 0.930 . S
N185 Co165 2.194 . S
N185 C180 1.328 . S
N185 C184 1.315 . S
H186 C180 0.929 . S
H187 C184 0.930 . S
H188 C176 0.929 . S
H189 C178 0.929 . S
O190 Co165 2.351 . S
O190 C193 1.244 . S
O191 Co165 2.155 . S
O191 C193 1.240 . S
O192 Co165 2.096 . S
O192 C173 1.247 . S
C193 O190 1.244 . S
C193 O191 1.240 . S
H194 C168 0.931 . S
H195 C177 0.931 . S
H196 C181 0.929 . S
H197 C183 0.930 . S
Co198 N202 2.148 . S
Co198 N208 2.128 . S
Co198 N218 2.194 . S
Co198 O223 2.351 . S
Co198 O224 2.155 . S
Co198 O225 2.096 . S
C199 N202 1.301 . S
C199 N203 1.328 . S
C199 H204 0.930 . S
C200 C201 1.333 . S
C200 N202 1.317 . S
C200 H205 0.930 . S
C201 C200 1.333 . S
C201 N203 1.350 . S
C201 H227 0.931 . S
N202 Co198 2.148 . S
N202 C199 1.301 . S
N202 C200 1.317 . S
N203 C199 1.328 . S
N203 C201 1.350 . S
H204 C199 0.930 . S
H205 C200 0.930 . S
C206 O207 1.224 . S
C206 O225 1.247 . S
O207 C206 1.224 . S
N208 Co198 2.128 . S
N208 C209 1.355 . S
N208 C211 1.311 . S
C209 N208 1.355 . S
C209 C210 1.363 . S
C209 H221 0.929 . S
C210 C209 1.363 . S
C210 N212 1.375 . S
C210 H228 0.931 . S
C211 N208 1.311 . S
C211 N212 1.347 . S
C211 H222 0.929 . S
N212 C210 1.375 . S
N212 C211 1.347 . S
C213 C216 1.365 . S
C213 N218 1.328 . S
C213 H219 0.929 . S
C214 C215 1.362 . S
C214 C217 1.378 . S
C214 H229 0.929 . S
C215 C214 1.362 . S
C215 C216 1.366 . S
C216 C213 1.365 . S
C216 C215 1.366 . S
C216 H230 0.930 . S
C217 C214 1.378 . S
C217 N218 1.315 . S
C217 H220 0.930 . S
N218 Co198 2.194 . S
N218 C213 1.328 . S
N218 C217 1.315 . S
H219 C213 0.929 . S
H220 C217 0.930 . S
H221 C209 0.929 . S
H222 C211 0.929 . S
O223 Co198 2.351 . S
O223 C226 1.244 . S
O224 Co198 2.155 . S
O224 C226 1.240 . S
O225 Co198 2.096 . S
O225 C206 1.247 . S
C226 O223 1.244 . S
C226 O224 1.240 . S
H227 C201 0.931 . S
H228 C210 0.931 . S
H229 C214 0.929 . S
H230 C216 0.930 . S
Co231 N235 2.148 . S
Co231 N241 2.128 . S
Co231 N251 2.194 . S
Co231 O256 2.351 . S
Co231 O257 2.155 . S
Co231 O258 2.096 . S
C232 N235 1.301 . S
C232 N236 1.328 . S
C232 H237 0.930 . S
C233 C234 1.333 . S
C233 N235 1.317 . S
C233 H238 0.930 . S
C234 C233 1.333 . S
C234 N236 1.350 . S
C234 H260 0.931 . S
N235 Co231 2.148 . S
N235 C232 1.301 . S
N235 C233 1.317 . S
N236 C232 1.328 . S
N236 C234 1.350 . S
H237 C232 0.930 . S
H238 C233 0.930 . S
C239 O240 1.224 . S
C239 O258 1.247 . S
O240 C239 1.224 . S
N241 Co231 2.128 . S
N241 C242 1.355 . S
N241 C244 1.311 . S
C242 N241 1.355 . S
C242 C243 1.363 . S
C242 H254 0.929 . S
C243 C242 1.363 . S
C243 N245 1.375 . S
C243 H261 0.931 . S
C244 N241 1.311 . S
C244 N245 1.347 . S
C244 H255 0.929 . S
N245 C243 1.375 . S
N245 C244 1.347 . S
C246 C249 1.365 . S
C246 N251 1.328 . S
C246 H252 0.929 . S
C247 C248 1.362 . S
C247 C250 1.378 . S
C247 H262 0.929 . S
C248 C247 1.362 . S
C248 C249 1.366 . S
C249 C246 1.365 . S
C249 C248 1.366 . S
C249 H263 0.930 . S
C250 C247 1.378 . S
C250 N251 1.315 . S
C250 H253 0.930 . S
N251 Co231 2.194 . S
N251 C246 1.328 . S
N251 C250 1.315 . S
H252 C246 0.929 . S
H253 C250 0.930 . S
H254 C242 0.929 . S
H255 C244 0.929 . S
O256 Co231 2.351 . S
O256 C259 1.244 . S
O257 Co231 2.155 . S
O257 C259 1.240 . S
O258 Co231 2.096 . S
O258 C239 1.247 . S
C259 O256 1.244 . S
C259 O257 1.240 . S
H260 C234 0.931 . S
H261 C243 0.931 . S
H262 C247 0.929 . S
H263 C249 0.930 . S
Co264 N268 2.148 . S
Co264 N274 2.128 . S
Co264 N284 2.194 . S
Co264 O289 2.351 . S
Co264 O290 2.155 . S
Co264 O291 2.096 . S
C265 N268 1.301 . S
C265 N269 1.328 . S
C265 H270 0.930 . S
C266 C267 1.333 . S
C266 N268 1.317 . S
C266 H271 0.930 . S
C267 C266 1.333 . S
C267 N269 1.350 . S
C267 H293 0.931 . S
N268 Co264 2.148 . S
N268 C265 1.301 . S
N268 C266 1.317 . S
N269 C265 1.328 . S
N269 C267 1.350 . S
H270 C265 0.930 . S
H271 C266 0.930 . S
C272 O273 1.224 . S
C272 O291 1.247 . S
O273 C272 1.224 . S
N274 Co264 2.128 . S
N274 C275 1.355 . S
N274 C277 1.311 . S
C275 N274 1.355 . S
C275 C276 1.363 . S
C275 H287 0.929 . S
C276 C275 1.363 . S
C276 N278 1.375 . S
C276 H294 0.931 . S
C277 N274 1.311 . S
C277 N278 1.347 . S
C277 H288 0.929 . S
N278 C276 1.375 . S
N278 C277 1.347 . S
C279 C282 1.365 . S
C279 N284 1.328 . S
C279 H285 0.929 . S
C280 C281 1.362 . S
C280 C283 1.378 . S
C280 H295 0.929 . S
C281 C280 1.362 . S
C281 C282 1.366 . S
C282 C279 1.365 . S
C282 C281 1.366 . S
C282 H296 0.930 . S
C283 C280 1.378 . S
C283 N284 1.315 . S
C283 H286 0.930 . S
N284 Co264 2.194 . S
N284 C279 1.328 . S
N284 C283 1.315 . S
H285 C279 0.929 . S
H286 C283 0.930 . S
H287 C275 0.929 . S
H288 C277 0.929 . S
O289 Co264 2.351 . S
O289 C292 1.244 . S
O290 Co264 2.155 . S
O290 C292 1.240 . S
O291 Co264 2.096 . S
O291 C272 1.247 . S
C292 O289 1.244 . S
C292 O290 1.240 . S
H293 C267 0.931 . S
H294 C276 0.931 . S
H295 C280 0.929 . S
H296 C282 0.930 . S
Co297 N301 2.148 . S
Co297 N307 2.128 . S
Co297 N317 2.194 . S
Co297 O322 2.351 . S
Co297 O323 2.155 . S
Co297 O324 2.096 . S
C298 N301 1.301 . S
C298 N302 1.328 . S
C298 H303 0.930 . S
C299 C300 1.333 . S
C299 N301 1.317 . S
C299 H304 0.930 . S
C300 C299 1.333 . S
C300 N302 1.350 . S
C300 H326 0.931 . S
N301 Co297 2.148 . S
N301 C298 1.301 . S
N301 C299 1.317 . S
N302 C298 1.328 . S
N302 C300 1.350 . S
H303 C298 0.930 . S
H304 C299 0.930 . S
C305 O306 1.224 . S
C305 O324 1.247 . S
O306 C305 1.224 . S
N307 Co297 2.128 . S
N307 C308 1.355 . S
N307 C310 1.311 . S
C308 N307 1.355 . S
C308 C309 1.363 . S
C308 H320 0.929 . S
C309 C308 1.363 . S
C309 N311 1.375 . S
C309 H327 0.931 . S
C310 N307 1.311 . S
C310 N311 1.347 . S
C310 H321 0.929 . S
N311 C309 1.375 . S
N311 C310 1.347 . S
C312 C315 1.365 . S
C312 N317 1.328 . S
C312 H318 0.929 . S
C313 C314 1.362 . S
C313 C316 1.378 . S
C313 H328 0.929 . S
C314 C313 1.362 . S
C314 C315 1.366 . S
C315 C312 1.365 . S
C315 C314 1.366 . S
C315 H329 0.930 . S
C316 C313 1.378 . S
C316 N317 1.315 . S
C316 H319 0.930 . S
N317 Co297 2.194 . S
N317 C312 1.328 . S
N317 C316 1.315 . S
H318 C312 0.929 . S
H319 C316 0.930 . S
H320 C308 0.929 . S
H321 C310 0.929 . S
O322 Co297 2.351 . S
O322 C325 1.244 . S
O323 Co297 2.155 . S
O323 C325 1.240 . S
O324 Co297 2.096 . S
O324 C305 1.247 . S
C325 O322 1.244 . S
C325 O323 1.240 . S
H326 C300 0.931 . S
H327 C309 0.931 . S
H328 C313 0.929 . S
H329 C315 0.930 . S
Co330 N334 2.148 . S
Co330 N340 2.128 . S
Co330 N350 2.194 . S
Co330 O355 2.351 . S
Co330 O356 2.155 . S
Co330 O357 2.096 . S
C331 N334 1.301 . S
C331 N335 1.328 . S
C331 H336 0.930 . S
C332 C333 1.333 . S
C332 N334 1.317 . S
C332 H337 0.930 . S
C333 C332 1.333 . S
C333 N335 1.350 . S
C333 H359 0.931 . S
N334 Co330 2.148 . S
N334 C331 1.301 . S
N334 C332 1.317 . S
N335 C331 1.328 . S
N335 C333 1.350 . S
H336 C331 0.930 . S
H337 C332 0.930 . S
C338 O339 1.224 . S
C338 O357 1.247 . S
O339 C338 1.224 . S
N340 Co330 2.128 . S
N340 C341 1.355 . S
N340 C343 1.311 . S
C341 N340 1.355 . S
C341 C342 1.363 . S
C341 H353 0.929 . S
C342 C341 1.363 . S
C342 N344 1.375 . S
C342 H360 0.931 . S
C343 N340 1.311 . S
C343 N344 1.347 . S
C343 H354 0.929 . S
N344 C342 1.375 . S
N344 C343 1.347 . S
C345 C348 1.365 . S
C345 N350 1.328 . S
C345 H351 0.929 . S
C346 C347 1.362 . S
C346 C349 1.378 . S
C346 H361 0.929 . S
C347 C346 1.362 . S
C347 C348 1.366 . S
C348 C345 1.365 . S
C348 C347 1.366 . S
C348 H362 0.930 . S
C349 C346 1.378 . S
C349 N350 1.315 . S
C349 H352 0.930 . S
N350 Co330 2.194 . S
N350 C345 1.328 . S
N350 C349 1.315 . S
H351 C345 0.929 . S
H352 C349 0.930 . S
H353 C341 0.929 . S
H354 C343 0.929 . S
O355 Co330 2.351 . S
O355 C358 1.244 . S
O356 Co330 2.155 . S
O356 C358 1.240 . S
O357 Co330 2.096 . S
O357 C338 1.247 . S
C358 O355 1.244 . S
C358 O356 1.240 . S
H359 C333 0.931 . S
H360 C342 0.931 . S
H361 C346 0.929 . S
H362 C348 0.930 . S
Co363 N367 2.148 . S
Co363 N373 2.128 . S
Co363 N383 2.194 . S
Co363 O388 2.351 . S
Co363 O389 2.155 . S
Co363 O390 2.096 . S
C364 N367 1.301 . S
C364 N368 1.328 . S
C364 H369 0.930 . S
C365 C366 1.333 . S
C365 N367 1.317 . S
C365 H370 0.930 . S
C366 C365 1.333 . S
C366 N368 1.350 . S
C366 H392 0.931 . S
N367 Co363 2.148 . S
N367 C364 1.301 . S
N367 C365 1.317 . S
N368 C364 1.328 . S
N368 C366 1.350 . S
H369 C364 0.930 . S
H370 C365 0.930 . S
C371 O372 1.224 . S
C371 O390 1.247 . S
O372 C371 1.224 . S
N373 Co363 2.128 . S
N373 C374 1.355 . S
N373 C376 1.311 . S
C374 N373 1.355 . S
C374 C375 1.363 . S
C374 H386 0.929 . S
C375 C374 1.363 . S
C375 N377 1.375 . S
C375 H393 0.931 . S
C376 N373 1.311 . S
C376 N377 1.347 . S
C376 H387 0.929 . S
N377 C375 1.375 . S
N377 C376 1.347 . S
C378 C381 1.365 . S
C378 N383 1.328 . S
C378 H384 0.929 . S
C379 C380 1.362 . S
C379 C382 1.378 . S
C379 H394 0.929 . S
C380 C379 1.362 . S
C380 C381 1.366 . S
C381 C378 1.365 . S
C381 C380 1.366 . S
C381 H395 0.930 . S
C382 C379 1.378 . S
C382 N383 1.315 . S
C382 H385 0.930 . S
N383 Co363 2.194 . S
N383 C378 1.328 . S
N383 C382 1.315 . S
H384 C378 0.929 . S
H385 C382 0.930 . S
H386 C374 0.929 . S
H387 C376 0.929 . S
O388 Co363 2.351 . S
O388 C391 1.244 . S
O389 Co363 2.155 . S
O389 C391 1.240 . S
O390 Co363 2.096 . S
O390 C371 1.247 . S
C391 O388 1.244 . S
C391 O389 1.240 . S
H392 C366 0.931 . S
H393 C375 0.931 . S
H394 C379 0.929 . S
H395 C381 0.930 . S
H396 C404 0.929 . S
H397 C406 0.930 . S
H398 C408 0.930 . S
H399 C411 0.929 . S
H400 C414 0.930 . S
H401 C416 0.964 . S
H402 C416 0.957 1_554 S
H403 C416 0.959 1_554 S
C404 H396 0.929 . S
C404 C405 1.377 . S
C404 C406 1.384 . S
C405 C404 1.377 . S
C405 C411 1.390 . S
C406 H397 0.930 . S
C406 C404 1.384 . S
C406 C407 1.372 . S
C407 C406 1.372 . S
C407 C408 1.400 . S
C407 C412 1.490 . S
C408 H398 0.930 . S
C408 C407 1.400 . S
C408 C411 1.386 . S
H409 C425 0.930 . S
H410 C426 0.931 . S
C411 H399 0.929 . S
C411 C405 1.390 . S
C411 C408 1.386 . S
C412 C407 1.490 . S
C412 C414 1.395 1_545 S
C412 C415 1.442 . S
H413 C419 0.930 . S
C414 H400 0.930 . S
C414 C412 1.395 1_565 S
C414 C417 1.464 . S
C415 C412 1.442 . S
C415 C416 1.522 1_554 S
C415 C419 1.362 1_554 S
C416 H401 0.964 . S
C416 H402 0.957 1_556 S
C416 H403 0.959 1_556 S
C416 C415 1.522 1_556 S
C417 C414 1.464 . S
C417 C418 1.331 1_554 S
C417 C421 1.500 . S
C418 C417 1.331 1_556 S
C418 C419 1.385 1_565 S
C418 C420 1.478 . S
C419 H413 0.930 . S
C419 C415 1.362 1_556 S
C419 C418 1.385 1_545 S
C420 C418 1.478 . S
C420 C422 1.381 . S
C420 C426 1.383 . S
C421 C417 1.500 . S
C421 H427 0.959 . S
C421 H428 0.961 1_554 S
C421 H429 0.932 1_554 S
C422 C420 1.381 . S
C422 C423 1.394 . S
C422 H430 0.930 . S
C423 C422 1.394 . S
C423 C424 1.383 . S
C423 H431 0.929 . S
C424 C423 1.383 . S
C424 C425 1.377 . S
C425 H409 0.930 . S
C425 C424 1.377 . S
C425 C426 1.379 . S
C426 H410 0.931 . S
C426 C420 1.383 . S
C426 C425 1.379 . S
H427 C421 0.959 . S
H428 C421 0.961 1_556 S
H429 C421 0.932 1_556 S
H430 C422 0.930 . S
H431 C423 0.929 . S
H432 C440 0.929 . S
H433 C442 0.930 . S
H434 C444 0.930 . S
H435 C447 0.929 . S
H436 C450 0.930 . S
H437 C452 0.960 . S
H438 C452 0.960 . S
H439 C452 0.960 . S
C440 H432 0.929 . S
C440 C441 1.377 . S
C440 C442 1.384 . S
C441 C440 1.377 . S
C441 C447 1.390 . S
C442 H433 0.930 . S
C442 C440 1.384 . S
C442 C443 1.372 . S
C443 C442 1.372 . S
C443 C444 1.400 . S
C443 C448 1.490 . S
C444 H434 0.930 . S
C444 C443 1.400 . S
C444 C447 1.386 . S
H445 C461 0.930 . S
H446 C462 0.931 . S
C447 H435 0.929 . S
C447 C441 1.390 . S
C447 C444 1.386 . S
C448 C443 1.490 . S
C448 C450 1.395 . S
C448 C451 1.403 . S
H449 C455 0.930 . S
C450 H436 0.930 . S
C450 C448 1.395 . S
C450 C453 1.403 . S
C451 C448 1.403 . S
C451 C452 1.524 . S
C451 C455 1.400 . S
C452 H437 0.960 . S
C452 H438 0.960 . S
C452 H439 0.960 . S
C452 C451 1.524 . S
C453 C450 1.403 . S
C453 C454 1.392 . S
C453 C457 1.495 . S
C454 C453 1.392 . S
C454 C455 1.385 . S
C454 C456 1.478 . S
C455 H449 0.930 . S
C455 C451 1.400 . S
C455 C454 1.385 . S
C456 C454 1.478 . S
C456 C458 1.381 . S
C456 C462 1.383 . S
C457 C453 1.495 . S
C457 H463 0.959 . S
C457 H464 0.961 . S
C457 H465 0.960 . S
C458 C456 1.381 . S
C458 C459 1.394 . S
C458 H466 0.930 . S
C459 C458 1.394 . S
C459 C460 1.383 . S
C459 H467 0.929 . S
C460 C459 1.383 . S
C460 C461 1.377 . S
C461 H445 0.930 . S
C461 C460 1.377 . S
C461 C462 1.379 . S
C462 H446 0.931 . S
C462 C456 1.383 . S
C462 C461 1.379 . S
H463 C457 0.959 . S
H464 C457 0.961 . S
H465 C457 0.960 . S
H466 C458 0.930 . S
H467 C459 0.929 . S
H468 C476 0.929 . S
H469 C478 0.930 . S
H470 C480 0.930 . S
H471 C483 0.929 . S
H472 C486 0.930 . S
H473 C488 0.960 . S
H474 C488 0.960 . S
H475 C488 0.960 . S
C476 H468 0.929 . S
C476 C477 1.377 . S
C476 C478 1.384 . S
C477 C476 1.377 . S
C477 C483 1.390 . S
C478 H469 0.930 . S
C478 C476 1.384 . S
C478 C479 1.372 . S
C479 C478 1.372 . S
C479 C480 1.400 . S
C479 C484 1.490 . S
C480 H470 0.930 . S
C480 C479 1.400 . S
C480 C483 1.386 . S
H481 C497 0.930 . S
H482 C498 0.931 . S
C483 H471 0.929 . S
C483 C477 1.390 . S
C483 C480 1.386 . S
C484 C479 1.490 . S
C484 C486 1.395 1_655 S
C484 C487 1.403 . S
H485 C491 0.930 . S
C486 H472 0.930 . S
C486 C484 1.395 1_455 S
C486 C489 1.403 . S
C487 C484 1.403 . S
C487 C488 1.524 . S
C487 C491 1.400 . S
C488 H473 0.960 . S
C488 H474 0.960 . S
C488 H475 0.960 . S
C488 C487 1.524 . S
C489 C486 1.403 . S
C489 C490 1.392 . S
C489 C493 1.495 . S
C490 C489 1.392 . S
C490 C491 1.385 1_455 S
C490 C492 1.478 . S
C491 H485 0.930 . S
C491 C487 1.400 . S
C491 C490 1.385 1_655 S
C492 C490 1.478 . S
C492 C494 1.381 . S
C492 C498 1.383 . S
C493 C489 1.495 . S
C493 H499 0.959 . S
C493 H500 0.961 . S
C493 H501 0.960 . S
C494 C492 1.381 . S
C494 C495 1.394 . S
C494 H502 0.930 . S
C495 C494 1.394 . S
C495 C496 1.383 . S
C495 H503 0.929 . S
C496 C495 1.383 . S
C496 C497 1.377 . S
C497 H481 0.930 . S
C497 C496 1.377 . S
C497 C498 1.379 . S
C498 H482 0.931 . S
C498 C492 1.383 . S
C498 C497 1.379 . S
H499 C493 0.959 . S
H500 C493 0.961 . S
H501 C493 0.960 . S
H502 C494 0.930 . S
H503 C495 0.929 . S
H504 C512 0.929 . S
H505 C514 0.930 . S
H506 C516 0.930 . S
H507 C519 0.929 . S
H508 C522 0.930 . S
H509 C524 0.960 . S
H510 C524 0.960 . S
H511 C524 0.960 . S
C512 H504 0.929 . S
C512 C513 1.377 . S
C512 C514 1.384 . S
C513 C512 1.377 . S
C513 C519 1.390 . S
C514 H505 0.930 . S
C514 C512 1.384 . S
C514 C515 1.372 . S
C515 C514 1.372 . S
C515 C516 1.400 . S
C515 C520 1.490 . S
C516 H506 0.930 . S
C516 C515 1.400 . S
C516 C519 1.386 . S
H517 C533 0.930 . S
H518 C534 0.931 . S
C519 H507 0.929 . S
C519 C513 1.390 . S
C519 C516 1.386 . S
C520 C515 1.490 . S
C520 C522 1.395 . S
C520 C523 1.403 1_545 S
H521 C527 0.930 . S
C522 H508 0.930 . S
C522 C520 1.395 . S
C522 C525 1.403 1_556 S
C523 C520 1.403 1_565 S
C523 C524 1.524 . S
C523 C527 1.400 1_556 S
C524 H509 0.960 . S
C524 H510 0.960 . S
C524 H511 0.960 . S
C524 C523 1.524 . S
C525 C522 1.403 1_554 S
C525 C526 1.392 1_545 S
C525 C529 1.495 . S
C526 C525 1.392 1_565 S
C526 C527 1.385 . S
C526 C528 1.478 . S
C527 H521 0.930 . S
C527 C523 1.400 1_554 S
C527 C526 1.385 . S
C528 C526 1.478 . S
C528 C530 1.381 . S
C528 C534 1.383 . S
C529 C525 1.495 . S
C529 H535 0.959 . S
C529 H536 0.961 . S
C529 H537 0.960 . S
C530 C528 1.381 . S
C530 C531 1.394 . S
C530 H538 0.930 . S
C531 C530 1.394 . S
C531 C532 1.383 . S
C531 H539 0.929 . S
C532 C531 1.383 . S
C532 C533 1.377 . S
C533 H517 0.930 . S
C533 C532 1.377 . S
C533 C534 1.379 . S
C534 H518 0.931 . S
C534 C528 1.383 . S
C534 C533 1.379 . S
H535 C529 0.959 . S
H536 C529 0.961 . S
H537 C529 0.960 . S
H538 C530 0.930 . S
H539 C531 0.929 . S
H540 C548 0.929 . S
H541 C550 0.930 . S
H542 C552 0.930 . S
H543 C555 0.929 . S
H544 C558 0.930 . S
H545 C560 0.960 . S
H546 C560 0.960 . S
H547 C560 0.960 . S
C548 H540 0.929 . S
C548 C549 1.377 . S
C548 C550 1.384 . S
C549 C548 1.377 . S
C549 C555 1.390 . S
C550 H541 0.930 . S
C550 C548 1.384 . S
C550 C551 1.372 . S
C551 C550 1.372 . S
C551 C552 1.400 . S
C551 C556 1.490 . S
C552 H542 0.930 . S
C552 C551 1.400 . S
C552 C555 1.386 . S
H553 C569 0.930 . S
H554 C570 0.931 . S
C555 H543 0.929 . S
C555 C549 1.390 . S
C555 C552 1.386 . S
C556 C551 1.490 . S
C556 C558 1.395 . S
C556 C559 1.403 . S
H557 C563 0.930 . S
C558 H544 0.930 . S
C558 C556 1.395 . S
C558 C561 1.403 . S
C559 C556 1.403 . S
C559 C560 1.524 . S
C559 C563 1.400 . S
C560 H545 0.960 . S
C560 H546 0.960 . S
C560 H547 0.960 . S
C560 C559 1.524 . S
C561 C558 1.403 . S
C561 C562 1.392 . S
C561 C565 1.495 . S
C562 C561 1.392 . S
C562 C563 1.385 . S
C562 C564 1.478 . S
C563 H557 0.930 . S
C563 C559 1.400 . S
C563 C562 1.385 . S
C564 C562 1.478 . S
C564 C566 1.381 . S
C564 C570 1.383 . S
C565 C561 1.495 . S
C565 H571 0.959 . S
C565 H572 0.961 . S
C565 H573 0.960 . S
C566 C564 1.381 . S
C566 C567 1.394 . S
C566 H574 0.930 . S
C567 C566 1.394 . S
C567 C568 1.383 . S
C567 H575 0.929 . S
C568 C567 1.383 . S
C568 C569 1.377 . S
C569 H553 0.930 . S
C569 C568 1.377 . S
C569 C570 1.379 . S
C570 H554 0.931 . S
C570 C564 1.383 . S
C570 C569 1.379 . S
H571 C565 0.959 . S
H572 C565 0.961 . S
H573 C565 0.960 . S
H574 C566 0.930 . S
H575 C567 0.929 . S
H576 C584 0.929 . S
H577 C586 0.930 . S
H578 C588 0.930 . S
H579 C591 0.929 . S
H580 C594 0.930 . S
H581 C596 0.960 . S
H582 C596 0.960 . S
H583 C596 0.960 . S
C584 H576 0.929 . S
C584 C585 1.377 . S
C584 C586 1.384 . S
C585 C584 1.377 . S
C585 C591 1.390 . S
C586 H577 0.930 . S
C586 C584 1.384 . S
C586 C587 1.372 . S
C587 C586 1.372 . S
C587 C588 1.400 . S
C587 C592 1.490 . S
C588 H578 0.930 . S
C588 C587 1.400 . S
C588 C591 1.386 . S
H589 C605 0.930 . S
H590 C606 0.931 . S
C591 H579 0.929 . S
C591 C585 1.390 . S
C591 C588 1.386 . S
C592 C587 1.490 . S
C592 C594 1.395 . S
C592 C595 1.403 . S
H593 C599 0.930 . S
C594 H580 0.930 . S
C594 C592 1.395 . S
C594 C597 1.403 1_455 S
C595 C592 1.403 . S
C595 C596 1.524 . S
C595 C599 1.400 1_455 S
C596 H581 0.960 . S
C596 H582 0.960 . S
C596 H583 0.960 . S
C596 C595 1.524 . S
C597 C594 1.403 1_655 S
C597 C598 1.392 . S
C597 C601 1.495 . S
C598 C597 1.392 . S
C598 C599 1.385 . S
C598 C600 1.478 . S
C599 H593 0.930 . S
C599 C595 1.400 1_655 S
C599 C598 1.385 . S
C600 C598 1.478 . S
C600 C602 1.381 . S
C600 C606 1.383 . S
C601 C597 1.495 . S
C601 H607 0.959 . S
C601 H608 0.961 . S
C601 H609 0.960 . S
C602 C600 1.381 . S
C602 C603 1.394 . S
C602 H610 0.930 . S
C603 C602 1.394 . S
C603 C604 1.383 . S
C603 H611 0.929 . S
C604 C603 1.383 . S
C604 C605 1.377 . S
C605 H589 0.930 . S
C605 C604 1.377 . S
C605 C606 1.379 . S
C606 H590 0.931 . S
C606 C600 1.383 . S
C606 C605 1.379 . S
H607 C601 0.959 . S
H608 C601 0.961 . S
H609 C601 0.960 . S
H610 C602 0.930 . S
H611 C603 0.929 . S
H612 C620 0.929 . S
H613 C622 0.930 . S
H614 C624 0.930 1_545 S
H615 C627 0.929 . S
H616 C630 0.930 . S
H617 C632 0.960 . S
H618 C632 0.960 . S
H619 C632 0.960 . S
C620 H612 0.929 . S
C620 C621 1.377 . S
C620 C622 1.384 . S
C621 C620 1.377 . S
C621 C627 1.390 . S
C622 H613 0.930 . S
C622 C620 1.384 . S
C622 C623 1.372 . S
C623 C622 1.372 . S
C623 C624 1.400 . S
C623 C628 1.490 . S
C624 H614 0.930 1_565 S
C624 C623 1.400 . S
C624 C627 1.386 . S
H625 C641 0.930 . S
H626 C642 0.931 . S
C627 H615 0.929 . S
C627 C621 1.390 . S
C627 C624 1.386 . S
C628 C623 1.490 . S
C628 C630 1.395 . S
C628 C631 1.403 . S
H629 C635 0.930 . S
C630 H616 0.930 . S
C630 C628 1.395 . S
C630 C633 1.403 1_565 S
C631 C628 1.403 . S
C631 C632 1.524 . S
C631 C635 1.400 1_565 S
C632 H617 0.960 . S
C632 H618 0.960 . S
C632 H619 0.960 . S
C632 C631 1.524 . S
C633 C630 1.403 1_545 S
C633 C634 1.392 . S
C633 C637 1.495 . S
C634 C633 1.392 . S
C634 C635 1.385 . S
C634 C636 1.478 . S
C635 H629 0.930 . S
C635 C631 1.400 1_545 S
C635 C634 1.385 . S
C636 C634 1.478 . S
C636 C638 1.381 . S
C636 C642 1.383 . S
C637 C633 1.495 . S
C637 H643 0.959 . S
C637 H644 0.961 . S
C637 H645 0.960 . S
C638 C636 1.381 . S
C638 C639 1.394 . S
C638 H646 0.930 1_545 S
C639 C638 1.394 . S
C639 C640 1.383 . S
C639 H647 0.929 . S
C640 C639 1.383 . S
C640 C641 1.377 . S
C641 H625 0.930 . S
C641 C640 1.377 . S
C641 C642 1.379 . S
C642 H626 0.931 . S
C642 C636 1.383 . S
C642 C641 1.379 . S
H643 C637 0.959 . S
H644 C637 0.961 . S
H645 C637 0.960 . S
H646 C638 0.930 1_565 S
H647 C639 0.929 . S
H648 C656 0.929 . S
H649 C658 0.930 . S
H650 C660 0.930 . S
H651 C663 0.929 . S
H652 C666 0.930 . S
H653 C668 0.960 . S
H654 C668 0.960 . S
H655 C668 0.960 . S
C656 H648 0.929 . S
C656 C657 1.377 . S
C656 C658 1.384 . S
C657 C656 1.377 . S
C657 C663 1.390 . S
C658 H649 0.930 . S
C658 C656 1.384 . S
C658 C659 1.372 . S
C659 C658 1.372 . S
C659 C660 1.400 . S
C659 C664 1.490 . S
C660 H650 0.930 . S
C660 C659 1.400 . S
C660 C663 1.386 . S
H661 C677 0.930 . S
H662 C678 0.931 . S
C663 H651 0.929 . S
C663 C657 1.390 . S
C663 C660 1.386 . S
C664 C659 1.490 . S
C664 C666 1.395 . S
C664 C667 1.403 . S
H665 C671 0.930 . S
C666 H652 0.930 . S
C666 C664 1.395 . S
C666 C669 1.403 . S
C667 C664 1.403 . S
C667 C668 1.524 . S
C667 C671 1.400 . S
C668 H653 0.960 . S
C668 H654 0.960 . S
C668 H655 0.960 . S
C668 C667 1.524 . S
C669 C666 1.403 . S
C669 C670 1.392 . S
C669 C673 1.495 . S
C670 C669 1.392 . S
C670 C671 1.385 . S
C670 C672 1.478 . S
C671 H665 0.930 . S
C671 C667 1.400 . S
C671 C670 1.385 . S
C672 C670 1.478 . S
C672 C674 1.381 . S
C672 C678 1.383 . S
C673 C669 1.495 . S
C673 H679 0.959 . S
C673 H680 0.961 . S
C673 H681 0.960 . S
C674 C672 1.381 . S
C674 C675 1.394 . S
C674 H682 0.930 . S
C675 C674 1.394 . S
C675 C676 1.383 . S
C675 H683 0.929 . S
C676 C675 1.383 . S
C676 C677 1.377 . S
C677 H661 0.930 . S
C677 C676 1.377 . S
C677 C678 1.379 . S
C678 H662 0.931 . S
C678 C672 1.383 . S
C678 C677 1.379 . S
H679 C673 0.959 . S
H680 C673 0.961 . S
H681 C673 0.960 . S
H682 C674 0.930 . S
H683 C675 0.929 . S
H684 C692 0.929 . S
H685 C694 0.930 . S
H686 C696 0.930 . S
H687 C699 0.929 . S
H688 C702 0.930 . S
H689 C704 0.960 . S
H690 C704 0.960 . S
H691 C704 0.960 . S
C692 H684 0.929 . S
C692 C693 1.377 . S
C692 C694 1.384 . S
C693 C692 1.377 . S
C693 C699 1.390 . S
C694 H685 0.930 . S
C694 C692 1.384 . S
C694 C695 1.372 . S
C695 C694 1.372 . S
C695 C696 1.400 . S
C695 C700 1.490 . S
C696 H686 0.930 . S
C696 C695 1.400 . S
C696 C699 1.386 . S
H697 C713 0.930 . S
H698 C714 0.931 . S
C699 H687 0.929 . S
C699 C693 1.390 . S
C699 C696 1.386 . S
C700 C695 1.490 . S
C700 C702 1.395 . S
C700 C703 1.403 1_455 S
H701 C707 0.930 . S
C702 H688 0.930 . S
C702 C700 1.395 . S
C702 C705 1.403 . S
C703 C700 1.403 1_655 S
C703 C704 1.524 . S
C703 C707 1.400 . S
C704 H689 0.960 . S
C704 H690 0.960 . S
C704 H691 0.960 . S
C704 C703 1.524 . S
C705 C702 1.403 . S
C705 C706 1.392 1_455 S
C705 C709 1.495 . S
C706 C705 1.392 1_655 S
C706 C707 1.385 . S
C706 C708 1.478 . S
C707 H701 0.930 . S
C707 C703 1.400 . S
C707 C706 1.385 . S
C708 C706 1.478 . S
C708 C710 1.381 . S
C708 C714 1.383 . S
C709 C705 1.495 . S
C709 H715 0.959 . S
C709 H716 0.961 . S
C709 H717 0.960 . S
C710 C708 1.381 . S
C710 C711 1.394 . S
C710 H718 0.930 . S
C711 C710 1.394 . S
C711 C712 1.383 . S
C711 H719 0.929 . S
C712 C711 1.383 . S
C712 C713 1.377 . S
C713 H697 0.930 . S
C713 C712 1.377 . S
C713 C714 1.379 . S
C714 H698 0.931 . S
C714 C708 1.383 . S
C714 C713 1.379 . S
H715 C709 0.959 . S
H716 C709 0.961 . S
H717 C709 0.960 . S
H718 C710 0.930 . S
H719 C711 0.929 . S
H720 C728 0.929 . S
H721 C730 0.930 . S
H722 C732 0.930 . S
H723 C735 0.929 . S
H724 C738 0.930 . S
H725 C740 0.960 . S
H726 C740 0.960 . S
H727 C740 0.960 . S
C728 H720 0.929 . S
C728 C729 1.377 . S
C728 C730 1.384 . S
C729 C728 1.377 . S
C729 C735 1.390 . S
C730 H721 0.930 . S
C730 C728 1.384 . S
C730 C731 1.372 . S
C731 C730 1.372 . S
C731 C732 1.400 . S
C731 C736 1.490 . S
C732 H722 0.930 . S
C732 C731 1.400 . S
C732 C735 1.386 . S
H733 C749 0.930 . S
H734 C750 0.931 . S
C735 H723 0.929 . S
C735 C729 1.390 . S
C735 C732 1.386 . S
C736 C731 1.490 . S
C736 C738 1.395 . S
C736 C739 1.403 1_455 S
H737 C743 0.930 . S
C738 H724 0.930 . S
C738 C736 1.395 . S
C738 C741 1.403 . S
C739 C736 1.403 1_655 S
C739 C740 1.524 . S
C739 C743 1.400 . S
C740 H725 0.960 . S
C740 H726 0.960 . S
C740 H727 0.960 . S
C740 C739 1.524 . S
C741 C738 1.403 . S
C741 C742 1.392 1_455 S
C741 C745 1.495 . S
C742 C741 1.392 1_655 S
C742 C743 1.385 . S
C742 C744 1.478 . S
C743 H737 0.930 . S
C743 C739 1.400 . S
C743 C742 1.385 . S
C744 C742 1.478 . S
C744 C746 1.381 . S
C744 C750 1.383 . S
C745 C741 1.495 . S
C745 H751 0.959 . S
C745 H752 0.961 . S
C745 H753 0.960 . S
C746 C744 1.381 . S
C746 C747 1.394 . S
C746 H754 0.930 . S
C747 C746 1.394 . S
C747 C748 1.383 . S
C747 H755 0.929 . S
C748 C747 1.383 . S
C748 C749 1.377 . S
C749 H733 0.930 . S
C749 C748 1.377 . S
C749 C750 1.379 . S
C750 H734 0.931 . S
C750 C744 1.383 . S
C750 C749 1.379 . S
H751 C745 0.959 . S
H752 C745 0.961 . S
H753 C745 0.960 . S
H754 C746 0.930 . S
H755 C747 0.929 . S
H756 C764 0.929 . S
H757 C766 0.930 . S
H758 C768 0.924 1_565 S
H759 C771 0.929 . S
H760 C774 0.930 . S
H761 C776 0.960 . S
H762 C776 0.960 . S
H763 C776 0.960 . S
C764 H756 0.929 . S
C764 C765 1.377 . S
C764 C766 1.384 . S
C765 C764 1.377 . S
C765 C771 1.390 . S
C766 H757 0.930 . S
C766 C764 1.384 . S
C766 C767 1.372 . S
C767 C766 1.372 . S
C767 C768 1.400 . S
C767 C772 1.490 . S
C768 H758 0.924 1_545 S
C768 C767 1.400 . S
C768 C771 1.386 . S
H769 C785 0.930 . S
H770 C786 0.931 . S
C771 H759 0.929 . S
C771 C765 1.390 . S
C771 C768 1.386 . S
C772 C767 1.490 . S
C772 C774 1.395 . S
C772 C775 1.403 1_545 S
H773 C779 0.930 . S
C774 H760 0.930 . S
C774 C772 1.395 . S
C774 C777 1.403 . S
C775 C772 1.403 1_565 S
C775 C776 1.524 . S
C775 C779 1.400 . S
C776 H761 0.960 . S
C776 H762 0.960 . S
C776 H763 0.960 . S
C776 C775 1.524 . S
C777 C774 1.403 . S
C777 C778 1.392 1_545 S
C777 C781 1.495 . S
C778 C777 1.392 1_565 S
C778 C779 1.385 . S
C778 C780 1.478 . S
C779 H773 0.930 . S
C779 C775 1.400 . S
C779 C778 1.385 . S
C780 C778 1.478 . S
C780 C782 1.381 . S
C780 C786 1.383 . S
C781 C777 1.495 . S
C781 H787 0.959 . S
C781 H788 0.961 . S
C781 H789 0.960 . S
C782 C780 1.381 . S
C782 C783 1.394 . S
C782 H790 0.930 1_565 S
C783 C782 1.394 . S
C783 C784 1.383 . S
C783 H791 0.929 . S
C784 C783 1.383 . S
C784 C785 1.377 . S
C785 H769 0.930 . S
C785 C784 1.377 . S
C785 C786 1.379 . S
C786 H770 0.931 . S
C786 C780 1.383 . S
C786 C785 1.379 . S
H787 C781 0.959 . S
H788 C781 0.961 . S
H789 C781 0.960 . S
H790 C782 0.930 1_545 S
H791 C783 0.929 . S
H792 C800 0.929 . S
H793 C802 0.930 . S
H794 C804 0.930 . S
H795 C807 0.929 . S
H796 C810 0.930 . S
H797 C812 0.960 . S
H798 C812 0.960 . S
H799 C812 0.960 . S
C800 H792 0.929 . S
C800 C801 1.377 . S
C800 C802 1.384 . S
C801 C800 1.377 . S
C801 C807 1.390 . S
C802 H793 0.930 . S
C802 C800 1.384 . S
C802 C803 1.372 . S
C803 C802 1.372 . S
C803 C804 1.400 . S
C803 C808 1.490 . S
C804 H794 0.930 . S
C804 C803 1.400 . S
C804 C807 1.386 . S
H805 C821 0.930 . S
H806 C822 0.931 . S
C807 H795 0.929 . S
C807 C801 1.390 . S
C807 C804 1.386 . S
C808 C803 1.490 . S
C808 C810 1.395 . S
C808 C811 1.403 . S
H809 C815 0.930 . S
C810 H796 0.930 . S
C810 C808 1.395 . S
C810 C813 1.403 . S
C811 C808 1.403 . S
C811 C812 1.524 . S
C811 C815 1.400 . S
C812 H797 0.960 . S
C812 H798 0.960 . S
C812 H799 0.960 . S
C812 C811 1.524 . S
C813 C810 1.403 . S
C813 C814 1.392 . S
C813 C817 1.495 . S
C814 C813 1.392 . S
C814 C815 1.385 . S
C814 C816 1.478 . S
C815 H809 0.930 . S
C815 C811 1.400 . S
C815 C814 1.385 . S
C816 C814 1.478 . S
C816 C818 1.381 . S
C816 C822 1.383 . S
C817 C813 1.495 . S
C817 H823 0.959 . S
C817 H824 0.961 . S
C817 H825 0.960 . S
C818 C816 1.381 . S
C818 C819 1.394 . S
C818 H826 0.930 . S
C819 C818 1.394 . S
C819 C820 1.383 . S
C819 H827 0.929 . S
C820 C819 1.383 . S
C820 C821 1.377 . S
C821 H805 0.930 . S
C821 C820 1.377 . S
C821 C822 1.379 . S
C822 H806 0.931 . S
C822 C816 1.383 . S
C822 C821 1.379 . S
H823 C817 0.959 . S
H824 C817 0.961 . S
H825 C817 0.960 . S
H826 C818 0.930 . S
H827 C819 0.929 . S
H828 C836 0.929 . S
H829 C838 0.930 . S
H830 C840 0.930 . S
H831 C843 0.929 . S
H832 C846 0.930 . S
H833 C848 0.960 . S
H834 C848 0.960 . S
H835 C848 0.960 . S
C836 H828 0.929 . S
C836 C837 1.377 . S
C836 C838 1.384 . S
C837 C836 1.377 . S
C837 C843 1.390 . S
C838 H829 0.930 . S
C838 C836 1.384 . S
C838 C839 1.372 . S
C839 C838 1.372 . S
C839 C840 1.400 . S
C839 C844 1.490 . S
C840 H830 0.930 . S
C840 C839 1.400 . S
C840 C843 1.386 . S
H841 C857 0.930 . S
H842 C858 0.931 . S
C843 H831 0.929 . S
C843 C837 1.390 . S
C843 C840 1.386 . S
C844 C839 1.490 . S
C844 C846 1.395 . S
C844 C847 1.403 . S
H845 C851 0.930 . S
C846 H832 0.930 . S
C846 C844 1.395 . S
C846 C849 1.403 . S
C847 C844 1.403 . S
C847 C848 1.524 . S
C847 C851 1.400 . S
C848 H833 0.960 . S
C848 H834 0.960 . S
C848 H835 0.960 . S
C848 C847 1.524 . S
C849 C846 1.403 . S
C849 C850 1.392 . S
C849 C853 1.495 . S
C850 C849 1.392 . S
C850 C851 1.385 . S
C850 C852 1.478 . S
C851 H845 0.930 . S
C851 C847 1.400 . S
C851 C850 1.385 . S
C852 C850 1.478 . S
C852 C854 1.381 . S
C852 C858 1.383 . S
C853 C849 1.495 . S
C853 H859 0.959 . S
C853 H860 0.961 . S
C853 H861 0.960 . S
C854 C852 1.381 . S
C854 C855 1.394 . S
C854 H862 0.930 . S
C855 C854 1.394 . S
C855 C856 1.383 . S
C855 H863 0.929 . S
C856 C855 1.383 . S
C856 C857 1.377 . S
C857 H841 0.930 . S
C857 C856 1.377 . S
C857 C858 1.379 . S
C858 H842 0.931 . S
C858 C852 1.383 . S
C858 C857 1.379 . S
H859 C853 0.959 . S
H860 C853 0.961 . S
H861 C853 0.960 . S
H862 C854 0.930 . S
H863 C855 0.929 . S
H864 C872 0.929 . S
H865 C874 0.930 . S
H866 C876 0.930 . S
H867 C879 0.929 . S
H868 C882 0.930 . S
H869 C884 0.960 . S
H870 C884 0.960 . S
H871 C884 0.960 . S
C872 H864 0.929 . S
C872 C873 1.377 . S
C872 C874 1.384 . S
C873 C872 1.377 . S
C873 C879 1.390 . S
C874 H865 0.930 . S
C874 C872 1.384 . S
C874 C875 1.372 . S
C875 C874 1.372 . S
C875 C876 1.400 . S
C875 C880 1.490 . S
C876 H866 0.930 . S
C876 C875 1.400 . S
C876 C879 1.386 . S
H877 C893 0.930 . S
H878 C894 0.931 . S
C879 H867 0.929 . S
C879 C873 1.390 . S
C879 C876 1.386 . S
C880 C875 1.490 . S
C880 C882 1.395 . S
C880 C883 1.403 . S
H881 C887 0.930 . S
C882 H868 0.930 . S
C882 C880 1.395 . S
C882 C885 1.403 . S
C883 C880 1.403 . S
C883 C884 1.524 . S
C883 C887 1.400 . S
C884 H869 0.960 . S
C884 H870 0.960 . S
C884 H871 0.960 . S
C884 C883 1.524 . S
C885 C882 1.403 . S
C885 C886 1.392 . S
C885 C889 1.495 . S
C886 C885 1.392 . S
C886 C887 1.385 . S
C886 C888 1.478 . S
C887 H881 0.930 . S
C887 C883 1.400 . S
C887 C886 1.385 . S
C888 C886 1.478 . S
C888 C890 1.381 . S
C888 C894 1.383 . S
C889 C885 1.495 . S
C889 H895 0.959 . S
C889 H896 0.961 . S
C889 H897 0.960 . S
C890 C888 1.381 . S
C890 C891 1.394 . S
C890 H898 0.930 . S
C891 C890 1.394 . S
C891 C892 1.383 . S
C891 H899 0.929 . S
C892 C891 1.383 . S
C892 C893 1.377 . S
C893 H877 0.930 . S
C893 C892 1.377 . S
C893 C894 1.379 . S
C894 H878 0.931 . S
C894 C888 1.383 . S
C894 C893 1.379 . S
H895 C889 0.959 . S
H896 C889 0.961 . S
H897 C889 0.960 . S
H898 C890 0.930 . S
H899 C891 0.929 . S
H900 C908 0.929 . S
H901 C910 0.930 . S
H902 C912 0.930 . S
H903 C915 0.929 . S
H904 C918 0.930 . S
H905 C920 0.960 . S
H906 C920 0.960 . S
H907 C920 0.960 . S
C908 H900 0.929 . S
C908 C909 1.377 . S
C908 C910 1.384 . S
C909 C908 1.377 . S
C909 C915 1.390 . S
C910 H901 0.930 . S
C910 C908 1.384 . S
C910 C911 1.372 . S
C911 C910 1.372 . S
C911 C912 1.400 . S
C911 C916 1.490 . S
C912 H902 0.930 . S
C912 C911 1.400 . S
C912 C915 1.386 . S
H913 C929 0.930 . S
H914 C930 0.931 . S
C915 H903 0.929 . S
C915 C909 1.390 . S
C915 C912 1.386 . S
C916 C911 1.490 . S
C916 C918 1.395 . S
C916 C919 1.403 . S
H917 C923 0.930 . S
C918 H904 0.930 . S
C918 C916 1.395 . S
C918 C921 1.403 . S
C919 C916 1.403 . S
C919 C920 1.524 . S
C919 C923 1.400 . S
C920 H905 0.960 . S
C920 H906 0.960 . S
C920 H907 0.960 . S
C920 C919 1.524 . S
C921 C918 1.403 . S
C921 C922 1.392 . S
C921 C925 1.495 . S
C922 C921 1.392 . S
C922 C923 1.385 . S
C922 C924 1.478 . S
C923 H917 0.930 . S
C923 C919 1.400 . S
C923 C922 1.385 . S
C924 C922 1.478 . S
C924 C926 1.381 . S
C924 C930 1.383 . S
C925 C921 1.495 . S
C925 H931 0.959 . S
C925 H932 0.961 . S
C925 H933 0.960 . S
C926 C924 1.381 . S
C926 C927 1.394 . S
C926 H934 0.930 . S
C927 C926 1.394 . S
C927 C928 1.383 . S
C927 H935 0.929 . S
C928 C927 1.383 . S
C928 C929 1.377 . S
C929 H913 0.930 . S
C929 C928 1.377 . S
C929 C930 1.379 . S
C930 H914 0.931 . S
C930 C924 1.383 . S
C930 C929 1.379 . S
H931 C925 0.959 . S
H932 C925 0.961 . S
H933 C925 0.960 . S
H934 C926 0.930 . S
H935 C927 0.929 . S
H936 C944 0.929 . S
H937 C946 0.930 . S
H938 C948 0.930 . S
H939 C951 0.929 . S
H940 C954 0.930 . S
H941 C956 0.960 . S
H942 C956 0.960 . S
H943 C956 0.960 . S
C944 H936 0.929 . S
C944 C945 1.377 . S
C944 C946 1.384 . S
C945 C944 1.377 . S
C945 C951 1.390 . S
C946 H937 0.930 . S
C946 C944 1.384 . S
C946 C947 1.372 . S
C947 C946 1.372 . S
C947 C948 1.400 . S
C947 C952 1.490 . S
C948 H938 0.930 . S
C948 C947 1.400 . S
C948 C951 1.386 . S
H949 C965 0.930 . S
H950 C966 0.931 . S
C951 H939 0.929 . S
C951 C945 1.390 . S
C951 C948 1.386 . S
C952 C947 1.490 . S
C952 C954 1.395 . S
C952 C955 1.403 . S
H953 C959 0.930 . S
C954 H940 0.930 . S
C954 C952 1.395 . S
C954 C957 1.403 . S
C955 C952 1.403 . S
C955 C956 1.524 . S
C955 C959 1.400 . S
C956 H941 0.960 . S
C956 H942 0.960 . S
C956 H943 0.960 . S
C956 C955 1.524 . S
C957 C954 1.403 . S
C957 C958 1.392 . S
C957 C961 1.495 . S
C958 C957 1.392 . S
C958 C959 1.385 . S
C958 C960 1.478 . S
C959 H953 0.930 . S
C959 C955 1.400 . S
C959 C958 1.385 . S
C960 C958 1.478 . S
C960 C962 1.381 . S
C960 C966 1.383 . S
C961 C957 1.495 . S
C961 H967 0.959 . S
C961 H968 0.961 . S
C961 H969 0.960 . S
C962 C960 1.381 . S
C962 C963 1.394 . S
C962 H970 0.930 . S
C963 C962 1.394 . S
C963 C964 1.383 . S
C963 H971 0.929 . S
C964 C963 1.383 . S
C964 C965 1.377 . S
C965 H949 0.930 . S
C965 C964 1.377 . S
C965 C966 1.379 . S
C966 H950 0.931 . S
C966 C960 1.383 . S
C966 C965 1.379 . S
H967 C961 0.959 . S
H968 C961 0.961 . S
H969 C961 0.960 . S
H970 C962 0.930 . S
H971 C963 0.929 . S
H972 C980 0.929 . S
H973 C982 0.930 . S
H974 C984 0.930 . S
H975 C987 0.929 . S
H976 C990 0.930 . S
H977 C992 0.960 . S
H978 C992 0.960 . S
H979 C992 0.960 . S
C980 H972 0.929 . S
C980 C981 1.377 . S
C980 C982 1.384 . S
C981 C980 1.377 . S
C981 C987 1.390 . S
C982 H973 0.930 . S
C982 C980 1.384 . S
C982 C983 1.372 . S
C983 C982 1.372 . S
C983 C984 1.400 . S
C983 C988 1.490 . S
C984 H974 0.930 . S
C984 C983 1.400 . S
C984 C987 1.386 . S
H985 C1001 0.930 . S
H986 C1002 0.931 . S
C987 H975 0.929 . S
C987 C981 1.390 . S
C987 C984 1.386 . S
C988 C983 1.490 . S
C988 C990 1.395 . S
C988 C991 1.403 . S
H989 C995 0.930 . S
C990 H976 0.930 . S
C990 C988 1.395 . S
C990 C993 1.403 . S
C991 C988 1.403 . S
C991 C992 1.524 . S
C991 C995 1.400 . S
C992 H977 0.960 . S
C992 H978 0.960 . S
C992 H979 0.960 . S
C992 C991 1.524 . S
C993 C990 1.403 . S
C993 C994 1.392 . S
C993 C997 1.495 . S
C994 C993 1.392 . S
C994 C995 1.385 . S
C994 C996 1.478 . S
C995 H989 0.930 . S
C995 C991 1.400 . S
C995 C994 1.385 . S
C996 C994 1.478 . S
C996 C998 1.381 . S
C996 C1002 1.383 . S
C997 C993 1.495 . S
C997 H1003 0.959 . S
C997 H1004 0.961 . S
C997 H1005 0.960 . S
C998 C996 1.381 . S
C998 C999 1.394 . S
C998 H1006 0.930 . S
C999 C998 1.394 . S
C999 C1000 1.383 . S
C999 H1007 0.929 . S
C1000 C999 1.383 . S
C1000 C1001 1.377 . S
C1001 H985 0.930 . S
C1001 C1000 1.377 . S
C1001 C1002 1.379 . S
C1002 H986 0.931 . S
C1002 C996 1.383 . S
C1002 C1001 1.379 . S
H1003 C997 0.959 . S
H1004 C997 0.961 . S
H1005 C997 0.960 . S
H1006 C998 0.930 . S
H1007 C999 0.929 . S
H1008 C1016 0.929 . S
H1009 C1018 0.930 . S
H1010 C1020 0.930 . S
H1011 C1023 0.929 . S
H1012 C1026 0.930 . S
H1013 C1028 0.960 . S
H1014 C1028 0.960 . S
H1015 C1028 0.960 . S
C1016 H1008 0.929 . S
C1016 C1017 1.377 . S
C1016 C1018 1.384 . S
C1017 C1016 1.377 . S
C1017 C1023 1.390 . S
C1018 H1009 0.930 . S
C1018 C1016 1.384 . S
C1018 C1019 1.372 . S
C1019 C1018 1.372 . S
C1019 C1020 1.400 . S
C1019 C1024 1.490 . S
C1020 H1010 0.930 . S
C1020 C1019 1.400 . S
C1020 C1023 1.386 . S
H1021 C1037 0.930 . S
H1022 C1038 0.931 . S
C1023 H1011 0.929 . S
C1023 C1017 1.390 . S
C1023 C1020 1.386 . S
C1024 C1019 1.490 . S
C1024 C1026 1.395 . S
C1024 C1027 1.403 . S
H1025 C1031 0.930 . S
C1026 H1012 0.930 . S
C1026 C1024 1.395 . S
C1026 C1029 1.403 . S
C1027 C1024 1.403 . S
C1027 C1028 1.524 . S
C1027 C1031 1.400 . S
C1028 H1013 0.960 . S
C1028 H1014 0.960 . S
C1028 H1015 0.960 . S
C1028 C1027 1.524 . S
C1029 C1026 1.403 . S
C1029 C1030 1.392 . S
C1029 C1033 1.495 . S
C1030 C1029 1.392 . S
C1030 C1031 1.385 . S
C1030 C1032 1.478 . S
C1031 H1025 0.930 . S
C1031 C1027 1.400 . S
C1031 C1030 1.385 . S
C1032 C1030 1.478 . S
C1032 C1034 1.381 . S
C1032 C1038 1.383 . S
C1033 C1029 1.495 . S
C1033 H1039 0.959 . S
C1033 H1040 0.961 . S
C1033 H1041 0.960 . S
C1034 C1032 1.381 . S
C1034 C1035 1.394 . S
C1034 H1042 0.930 . S
C1035 C1034 1.394 . S
C1035 C1036 1.383 . S
C1035 H1043 0.929 . S
C1036 C1035 1.383 . S
C1036 C1037 1.377 . S
C1037 H1021 0.930 . S
C1037 C1036 1.377 . S
C1037 C1038 1.379 . S
C1038 H1022 0.931 . S
C1038 C1032 1.383 . S
C1038 C1037 1.379 . S
H1039 C1033 0.959 . S
H1040 C1033 0.961 . S
H1041 C1033 0.960 . S
H1042 C1034 0.930 . S
H1043 C1035 0.929 . S
H1044 C1052 0.929 . S
H1045 C1054 0.930 . S
H1046 C1056 0.930 . S
H1047 C1059 0.929 . S
H1048 C1062 0.930 . S
H1049 C1064 0.960 . S
H1050 C1064 0.960 . S
H1051 C1064 0.960 . S
C1052 H1044 0.929 . S
C1052 C1053 1.377 . S
C1052 C1054 1.384 . S
C1053 C1052 1.377 . S
C1053 C1059 1.390 . S
C1054 H1045 0.930 . S
C1054 C1052 1.384 . S
C1054 C1055 1.372 . S
C1055 C1054 1.372 . S
C1055 C1056 1.400 . S
C1055 C1060 1.490 . S
C1056 H1046 0.930 . S
C1056 C1055 1.400 . S
C1056 C1059 1.386 . S
H1057 C1073 0.930 . S
H1058 C1074 0.931 . S
C1059 H1047 0.929 . S
C1059 C1053 1.390 . S
C1059 C1056 1.386 . S
C1060 C1055 1.490 . S
C1060 C1062 1.395 . S
C1060 C1063 1.403 . S
H1061 C1067 0.930 . S
C1062 H1048 0.930 . S
C1062 C1060 1.395 . S
C1062 C1065 1.403 . S
C1063 C1060 1.403 . S
C1063 C1064 1.524 . S
C1063 C1067 1.400 . S
C1064 H1049 0.960 . S
C1064 H1050 0.960 . S
C1064 H1051 0.960 . S
C1064 C1063 1.524 . S
C1065 C1062 1.403 . S
C1065 C1066 1.392 . S
C1065 C1069 1.495 . S
C1066 C1065 1.392 . S
C1066 C1067 1.385 . S
C1066 C1068 1.478 . S
C1067 H1061 0.930 . S
C1067 C1063 1.400 . S
C1067 C1066 1.385 . S
C1068 C1066 1.478 . S
C1068 C1070 1.381 . S
C1068 C1074 1.383 . S
C1069 C1065 1.495 . S
C1069 H1075 0.959 . S
C1069 H1076 0.961 . S
C1069 H1077 0.960 . S
C1070 C1068 1.381 . S
C1070 C1071 1.394 . S
C1070 H1078 0.930 . S
C1071 C1070 1.394 . S
C1071 C1072 1.383 . S
C1071 H1079 0.929 . S
C1072 C1071 1.383 . S
C1072 C1073 1.377 . S
C1073 H1057 0.930 . S
C1073 C1072 1.377 . S
C1073 C1074 1.379 . S
C1074 H1058 0.931 . S
C1074 C1068 1.383 . S
C1074 C1073 1.379 . S
H1075 C1069 0.959 . S
H1076 C1069 0.961 . S
H1077 C1069 0.960 . S
H1078 C1070 0.930 . S
H1079 C1071 0.929 . S
H1080 C1088 0.929 . S
H1081 C1090 0.930 . S
H1082 C1092 0.930 . S
H1083 C1095 0.929 . S
H1084 C1098 0.930 . S
H1085 C1100 0.960 . S
H1086 C1100 0.960 . S
H1087 C1100 0.960 . S
C1088 H1080 0.929 . S
C1088 C1089 1.377 . S
C1088 C1090 1.384 . S
C1089 C1088 1.377 . S
C1089 C1095 1.390 . S
C1090 H1081 0.930 . S
C1090 C1088 1.384 . S
C1090 C1091 1.372 . S
C1091 C1090 1.372 . S
C1091 C1092 1.400 . S
C1091 C1096 1.490 . S
C1092 H1082 0.930 . S
C1092 C1091 1.400 . S
C1092 C1095 1.386 . S
H1093 C1109 0.930 . S
H1094 C1110 0.931 . S
C1095 H1083 0.929 . S
C1095 C1089 1.390 . S
C1095 C1092 1.386 . S
C1096 C1091 1.490 . S
C1096 C1098 1.395 . S
C1096 C1099 1.403 . S
H1097 C1103 0.930 . S
C1098 H1084 0.930 . S
C1098 C1096 1.395 . S
C1098 C1101 1.403 1_455 S
C1099 C1096 1.403 . S
C1099 C1100 1.524 . S
C1099 C1103 1.400 1_455 S
C1100 H1085 0.960 . S
C1100 H1086 0.960 . S
C1100 H1087 0.960 . S
C1100 C1099 1.524 . S
C1101 C1098 1.403 1_655 S
C1101 C1102 1.392 . S
C1101 C1105 1.495 . S
C1102 C1101 1.392 . S
C1102 C1103 1.385 . S
C1102 C1104 1.478 . S
C1103 H1097 0.930 . S
C1103 C1099 1.400 1_655 S
C1103 C1102 1.385 . S
C1104 C1102 1.478 . S
C1104 C1106 1.381 . S
C1104 C1110 1.383 . S
C1105 C1101 1.495 . S
C1105 H1111 0.959 . S
C1105 H1112 0.961 . S
C1105 H1113 0.960 . S
C1106 C1104 1.381 . S
C1106 C1107 1.394 . S
C1106 H1114 0.930 . S
C1107 C1106 1.394 . S
C1107 C1108 1.383 . S
C1107 H1115 0.929 . S
C1108 C1107 1.383 . S
C1108 C1109 1.377 . S
C1109 H1093 0.930 . S
C1109 C1108 1.377 . S
C1109 C1110 1.379 . S
C1110 H1094 0.931 . S
C1110 C1104 1.383 . S
C1110 C1109 1.379 . S
H1111 C1105 0.959 . S
H1112 C1105 0.961 . S
H1113 C1105 0.960 . S
H1114 C1106 0.930 . S
H1115 C1107 0.929 . S
H1116 C1124 0.929 . S
H1117 C1126 0.930 . S
H1118 C1128 0.930 . S
H1119 C1131 0.929 . S
H1120 C1134 0.930 . S
H1121 C1136 0.960 . S
H1122 C1136 0.960 . S
H1123 C1136 0.960 . S
C1124 H1116 0.929 . S
C1124 C1125 1.377 . S
C1124 C1126 1.384 . S
C1125 C1124 1.377 . S
C1125 C1131 1.390 . S
C1126 H1117 0.930 . S
C1126 C1124 1.384 . S
C1126 C1127 1.372 . S
C1127 C1126 1.372 . S
C1127 C1128 1.400 . S
C1127 C1132 1.490 . S
C1128 H1118 0.930 . S
C1128 C1127 1.400 . S
C1128 C1131 1.386 . S
H1129 C1145 0.930 . S
H1130 C1146 0.931 . S
C1131 H1119 0.929 . S
C1131 C1125 1.390 . S
C1131 C1128 1.386 . S
C1132 C1127 1.490 . S
C1132 C1134 1.395 . S
C1132 C1135 1.403 1_565 S
H1133 C1139 0.930 . S
C1134 H1120 0.930 . S
C1134 C1132 1.395 . S
C1134 C1137 1.403 . S
C1135 C1132 1.403 1_545 S
C1135 C1136 1.524 . S
C1135 C1139 1.400 . S
C1136 H1121 0.960 . S
C1136 H1122 0.960 . S
C1136 H1123 0.960 . S
C1136 C1135 1.524 . S
C1137 C1134 1.403 . S
C1137 C1138 1.392 1_565 S
C1137 C1141 1.495 . S
C1138 C1137 1.392 1_545 S
C1138 C1139 1.385 . S
C1138 C1140 1.478 . S
C1139 H1133 0.930 . S
C1139 C1135 1.400 . S
C1139 C1138 1.385 . S
C1140 C1138 1.478 . S
C1140 C1142 1.381 . S
C1140 C1146 1.383 . S
C1141 C1137 1.495 . S
C1141 H1147 0.959 . S
C1141 H1148 0.961 . S
C1141 H1149 0.960 . S
C1142 C1140 1.381 . S
C1142 C1143 1.394 . S
C1142 H1150 0.930 . S
C1143 C1142 1.394 . S
C1143 C1144 1.383 . S
C1143 H1151 0.929 . S
C1144 C1143 1.383 . S
C1144 C1145 1.377 . S
C1145 H1129 0.930 . S
C1145 C1144 1.377 . S
C1145 C1146 1.379 . S
C1146 H1130 0.931 . S
C1146 C1140 1.383 . S
C1146 C1145 1.379 . S
H1147 C1141 0.959 . S
H1148 C1141 0.961 . S
H1149 C1141 0.960 . S
H1150 C1142 0.930 . S
H1151 C1143 0.929 . S
H1152 C1160 0.929 . S
H1153 C1162 0.930 . S
H1154 C1164 0.930 . S
H1155 C1167 0.929 . S
H1156 C1170 0.930 . S
H1157 C1172 0.960 . S
H1158 C1172 0.960 . S
H1159 C1172 0.960 . S
C1160 H1152 0.929 . S
C1160 C1161 1.377 . S
C1160 C1162 1.384 . S
C1161 C1160 1.377 . S
C1161 C1167 1.390 . S
C1162 H1153 0.930 . S
C1162 C1160 1.384 . S
C1162 C1163 1.372 . S
C1163 C1162 1.372 . S
C1163 C1164 1.400 . S
C1163 C1168 1.490 . S
C1164 H1154 0.930 . S
C1164 C1163 1.400 . S
C1164 C1167 1.386 . S
H1165 C1181 0.930 . S
H1166 C1182 0.931 . S
C1167 H1155 0.929 . S
C1167 C1161 1.390 . S
C1167 C1164 1.386 . S
C1168 C1163 1.490 . S
C1168 C1170 1.395 . S
C1168 C1171 1.403 . S
H1169 C1175 0.930 . S
C1170 H1156 0.930 . S
C1170 C1168 1.395 . S
C1170 C1173 1.403 . S
C1171 C1168 1.403 . S
C1171 C1172 1.524 . S
C1171 C1175 1.400 . S
C1172 H1157 0.960 . S
C1172 H1158 0.960 . S
C1172 H1159 0.960 . S
C1172 C1171 1.524 . S
C1173 C1170 1.403 . S
C1173 C1174 1.392 . S
C1173 C1177 1.495 . S
C1174 C1173 1.392 . S
C1174 C1175 1.385 . S
C1174 C1176 1.478 . S
C1175 H1169 0.930 . S
C1175 C1171 1.400 . S
C1175 C1174 1.385 . S
C1176 C1174 1.478 . S
C1176 C1178 1.381 . S
C1176 C1182 1.383 . S
C1177 C1173 1.495 . S
C1177 H1183 0.959 . S
C1177 H1184 0.961 . S
C1177 H1185 0.960 . S
C1178 C1176 1.381 . S
C1178 C1179 1.394 . S
C1178 H1186 0.930 . S
C1179 C1178 1.394 . S
C1179 C1180 1.383 . S
C1179 H1187 0.929 . S
C1180 C1179 1.383 . S
C1180 C1181 1.377 . S
C1181 H1165 0.930 . S
C1181 C1180 1.377 . S
C1181 C1182 1.379 . S
C1182 H1166 0.931 . S
C1182 C1176 1.383 . S
C1182 C1181 1.379 . S
H1183 C1177 0.959 . S
H1184 C1177 0.961 . S
H1185 C1177 0.960 . S
H1186 C1178 0.930 . S
H1187 C1179 0.929 . S
H1188 C1196 0.929 . S
H1189 C1198 0.930 . S
H1190 C1200 0.930 . S
H1191 C1203 0.929 . S
H1192 C1206 0.930 . S
H1193 C1208 0.960 . S
H1194 C1208 0.960 . S
H1195 C1208 0.960 . S
C1196 H1188 0.929 . S
C1196 C1197 1.377 . S
C1196 C1198 1.384 . S
C1197 C1196 1.377 . S
C1197 C1203 1.390 . S
C1198 H1189 0.930 . S
C1198 C1196 1.384 . S
C1198 C1199 1.372 . S
C1199 C1198 1.372 . S
C1199 C1200 1.400 . S
C1199 C1204 1.490 . S
C1200 H1190 0.930 . S
C1200 C1199 1.400 . S
C1200 C1203 1.386 . S
H1201 C1217 0.930 . S
H1202 C1218 0.931 . S
C1203 H1191 0.929 . S
C1203 C1197 1.390 . S
C1203 C1200 1.386 . S
C1204 C1199 1.490 . S
C1204 C1206 1.395 . S
C1204 C1207 1.403 1_455 S
H1205 C1211 0.930 . S
C1206 H1192 0.930 . S
C1206 C1204 1.395 . S
C1206 C1209 1.403 . S
C1207 C1204 1.403 1_655 S
C1207 C1208 1.524 . S
C1207 C1211 1.400 . S
C1208 H1193 0.960 . S
C1208 H1194 0.960 . S
C1208 H1195 0.960 . S
C1208 C1207 1.524 . S
C1209 C1206 1.403 . S
C1209 C1210 1.392 1_455 S
C1209 C1213 1.495 . S
C1210 C1209 1.392 1_655 S
C1210 C1211 1.385 . S
C1210 C1212 1.478 . S
C1211 H1205 0.930 . S
C1211 C1207 1.400 . S
C1211 C1210 1.385 . S
C1212 C1210 1.478 . S
C1212 C1214 1.381 . S
C1212 C1218 1.383 . S
C1213 C1209 1.495 . S
C1213 H1219 0.959 . S
C1213 H1220 0.961 . S
C1213 H1221 0.960 . S
C1214 C1212 1.381 . S
C1214 C1215 1.394 . S
C1214 H1222 0.930 . S
C1215 C1214 1.394 . S
C1215 C1216 1.383 . S
C1215 H1223 0.929 . S
C1216 C1215 1.383 . S
C1216 C1217 1.377 . S
C1217 H1201 0.930 . S
C1217 C1216 1.377 . S
C1217 C1218 1.379 . S
C1218 H1202 0.931 . S
C1218 C1212 1.383 . S
C1218 C1217 1.379 . S
H1219 C1213 0.959 . S
H1220 C1213 0.961 . S
H1221 C1213 0.960 . S
H1222 C1214 0.930 . S
H1223 C1215 0.929 . S
H1224 C1232 0.929 . S
H1225 C1234 0.930 . S
H1226 C1236 0.930 1_545 S
H1227 C1239 0.929 . S
H1228 C1242 0.930 . S
H1229 C1244 0.960 . S
H1230 C1244 0.960 . S
H1231 C1244 0.960 . S
C1232 H1224 0.929 . S
C1232 C1233 1.377 . S
C1232 C1234 1.384 . S
C1233 C1232 1.377 . S
C1233 C1239 1.390 . S
C1234 H1225 0.930 . S
C1234 C1232 1.384 . S
C1234 C1235 1.372 . S
C1235 C1234 1.372 . S
C1235 C1236 1.400 . S
C1235 C1240 1.490 . S
C1236 H1226 0.930 1_565 S
C1236 C1235 1.400 . S
C1236 C1239 1.386 . S
H1237 C1253 0.930 . S
H1238 C1254 0.931 . S
C1239 H1227 0.929 . S
C1239 C1233 1.390 . S
C1239 C1236 1.386 . S
C1240 C1235 1.490 . S
C1240 C1242 1.395 . S
C1240 C1243 1.403 1_565 S
H1241 C1247 0.930 . S
C1242 H1228 0.930 . S
C1242 C1240 1.395 . S
C1242 C1245 1.403 . S
C1243 C1240 1.403 1_545 S
C1243 C1244 1.524 . S
C1243 C1247 1.400 . S
C1244 H1229 0.960 . S
C1244 H1230 0.960 . S
C1244 H1231 0.960 . S
C1244 C1243 1.524 . S
C1245 C1242 1.403 . S
C1245 C1246 1.392 1_565 S
C1245 C1249 1.495 . S
C1246 C1245 1.392 1_545 S
C1246 C1247 1.385 . S
C1246 C1248 1.478 . S
C1247 H1241 0.930 . S
C1247 C1243 1.400 . S
C1247 C1246 1.385 . S
C1248 C1246 1.478 . S
C1248 C1250 1.381 . S
C1248 C1254 1.383 . S
C1249 C1245 1.495 . S
C1249 H1255 0.959 . S
C1249 H1256 0.961 . S
C1249 H1257 0.960 . S
C1250 C1248 1.381 . S
C1250 C1251 1.394 . S
C1250 H1258 0.930 1_545 S
C1251 C1250 1.394 . S
C1251 C1252 1.383 . S
C1251 H1259 0.929 . S
C1252 C1251 1.383 . S
C1252 C1253 1.377 . S
C1253 H1237 0.930 . S
C1253 C1252 1.377 . S
C1253 C1254 1.379 . S
C1254 H1238 0.931 . S
C1254 C1248 1.383 . S
C1254 C1253 1.379 . S
H1255 C1249 0.959 . S
H1256 C1249 0.961 . S
H1257 C1249 0.960 . S
H1258 C1250 0.930 1_565 S
H1259 C1251 0.929 . S
H1260 C1268 0.929 . S
H1261 C1270 0.930 . S
H1262 C1272 0.930 1_565 S
H1263 C1275 0.929 . S
H1264 C1278 0.930 . S
H1265 C1280 0.960 1_565 S
H1266 C1280 0.960 . S
H1267 C1280 0.960 1_565 S
C1268 H1260 0.929 . S
C1268 C1269 1.377 . S
C1268 C1270 1.384 . S
C1269 C1268 1.377 . S
C1269 C1275 1.390 . S
C1270 H1261 0.930 . S
C1270 C1268 1.384 . S
C1270 C1271 1.372 . S
C1271 C1270 1.372 . S
C1271 C1272 1.400 . S
C1271 C1276 1.490 . S
C1272 H1262 0.930 1_545 S
C1272 C1271 1.400 . S
C1272 C1275 1.386 . S
H1273 C1289 0.930 . S
H1274 C1290 0.931 . S
C1275 H1263 0.929 . S
C1275 C1269 1.390 . S
C1275 C1272 1.386 . S
C1276 C1271 1.490 . S
C1276 C1278 1.395 . S
C1276 C1279 1.403 . S
H1277 C1283 0.930 . S
C1278 H1264 0.930 . S
C1278 C1276 1.395 . S
C1278 C1281 1.405 1_445 S
C1279 C1276 1.403 . S
C1279 C1280 1.524 . S
C1279 C1283 1.400 1_445 S
C1280 H1265 0.960 1_545 S
C1280 H1266 0.960 . S
C1280 H1267 0.960 1_545 S
C1280 C1279 1.524 . S
C1281 C1278 1.405 1_665 S
C1281 C1282 1.394 . S
C1281 C1285 1.492 . S
C1282 C1281 1.394 . S
C1282 C1283 1.385 . S
C1282 C1284 1.478 . S
C1283 H1277 0.930 . S
C1283 C1279 1.400 1_665 S
C1283 C1282 1.385 . S
C1284 C1282 1.478 . S
C1284 C1286 1.381 . S
C1284 C1290 1.383 . S
C1285 C1281 1.492 . S
C1285 H1291 0.959 1_565 S
C1285 H1292 0.961 . S
C1285 H1293 0.960 1_565 S
C1286 C1284 1.381 . S
C1286 C1287 1.394 . S
C1286 H1294 0.930 1_565 S
C1287 C1286 1.394 . S
C1287 C1288 1.383 . S
C1287 H1295 0.929 . S
C1288 C1287 1.383 . S
C1288 C1289 1.377 . S
C1289 H1273 0.930 . S
C1289 C1288 1.377 . S
C1289 C1290 1.379 . S
C1290 H1274 0.931 . S
C1290 C1284 1.383 . S
C1290 C1289 1.379 . S
H1291 C1285 0.959 1_545 S
H1292 C1285 0.961 . S
H1293 C1285 0.960 1_545 S
H1294 C1286 0.930 1_545 S
H1295 C1287 0.929 . S
H1296 C1304 0.929 . S
H1297 C1306 0.930 . S
H1298 C1308 0.930 . S
H1299 C1311 0.929 . S
H1300 C1314 0.930 . S
H1301 C1316 0.960 . S
H1302 C1316 0.960 . S
H1303 C1316 0.960 . S
C1304 H1296 0.929 . S
C1304 C1305 1.377 . S
C1304 C1306 1.384 . S
C1305 C1304 1.377 . S
C1305 C1311 1.390 . S
C1306 H1297 0.930 . S
C1306 C1304 1.384 . S
C1306 C1307 1.372 . S
C1307 C1306 1.372 . S
C1307 C1308 1.400 . S
C1307 C1312 1.490 . S
C1308 H1298 0.930 . S
C1308 C1307 1.400 . S
C1308 C1311 1.386 . S
H1309 C1325 0.930 . S
H1310 C1326 0.931 . S
C1311 H1299 0.929 . S
C1311 C1305 1.390 . S
C1311 C1308 1.386 . S
C1312 C1307 1.490 . S
C1312 C1314 1.395 1_455 S
C1312 C1315 1.403 . S
H1313 C1319 0.930 . S
C1314 H1300 0.930 . S
C1314 C1312 1.395 1_655 S
C1314 C1317 1.403 1_545 S
C1315 C1312 1.403 . S
C1315 C1316 1.524 . S
C1315 C1319 1.400 1_545 S
C1316 H1301 0.960 . S
C1316 H1302 0.960 . S
C1316 H1303 0.960 . S
C1316 C1315 1.524 . S
C1317 C1314 1.403 1_565 S
C1317 C1318 1.392 . S
C1317 C1321 1.495 . S
C1318 C1317 1.392 . S
C1318 C1319 1.385 1_655 S
C1318 C1320 1.478 . S
C1319 H1313 0.930 . S
C1319 C1315 1.400 1_565 S
C1319 C1318 1.385 1_455 S
C1320 C1318 1.478 . S
C1320 C1322 1.381 . S
C1320 C1326 1.383 . S
C1321 C1317 1.495 . S
C1321 H1327 0.959 . S
C1321 H1328 0.961 . S
C1321 H1329 0.960 . S
C1322 C1320 1.381 . S
C1322 C1323 1.394 . S
C1322 H1330 0.930 . S
C1323 C1322 1.394 . S
C1323 C1324 1.383 . S
C1323 H1331 0.929 . S
C1324 C1323 1.383 . S
C1324 C1325 1.377 . S
C1325 H1309 0.930 . S
C1325 C1324 1.377 . S
C1325 C1326 1.379 . S
C1326 H1310 0.931 . S
C1326 C1320 1.383 . S
C1326 C1325 1.379 . S
H1327 C1321 0.959 . S
H1328 C1321 0.961 . S
H1329 C1321 0.960 . S
H1330 C1322 0.930 . S
H1331 C1323 0.929 . S
H1332 C1340 0.929 . S
H1333 C1342 0.930 . S
H1334 C1344 0.930 . S
H1335 C1347 0.929 . S
H1336 C1350 0.930 . S
H1337 C1352 0.960 . S
H1338 C1352 0.960 . S
H1339 C1352 0.960 . S
C1340 H1332 0.929 . S
C1340 C1341 1.377 . S
C1340 C1342 1.384 . S
C1341 C1340 1.377 . S
C1341 C1347 1.390 . S
C1342 H1333 0.930 . S
C1342 C1340 1.384 . S
C1342 C1343 1.372 . S
C1343 C1342 1.372 . S
C1343 C1344 1.400 . S
C1343 C1348 1.490 . S
C1344 H1334 0.930 . S
C1344 C1343 1.400 . S
C1344 C1347 1.386 . S
H1345 C1361 0.930 . S
H1346 C1362 0.931 . S
C1347 H1335 0.929 . S
C1347 C1341 1.390 . S
C1347 C1344 1.386 . S
C1348 C1343 1.490 . S
C1348 C1350 1.395 1_545 S
C1348 C1351 1.403 1_655 S
H1349 C1355 0.930 . S
C1350 H1336 0.930 . S
C1350 C1348 1.395 1_565 S
C1350 C1353 1.403 . S
C1351 C1348 1.403 1_455 S
C1351 C1352 1.524 . S
C1351 C1355 1.400 . S
C1352 H1337 0.960 . S
C1352 H1338 0.960 . S
C1352 H1339 0.960 . S
C1352 C1351 1.524 . S
C1353 C1350 1.403 . S
C1353 C1354 1.392 1_655 S
C1353 C1357 1.495 . S
C1354 C1353 1.392 1_455 S
C1354 C1355 1.385 1_565 S
C1354 C1356 1.478 . S
C1355 H1349 0.930 . S
C1355 C1351 1.400 . S
C1355 C1354 1.385 1_545 S
C1356 C1354 1.478 . S
C1356 C1358 1.381 . S
C1356 C1362 1.383 . S
C1357 C1353 1.495 . S
C1357 H1363 0.959 . S
C1357 H1364 0.961 . S
C1357 H1365 0.960 . S
C1358 C1356 1.381 . S
C1358 C1359 1.394 . S
C1358 H1366 0.930 . S
C1359 C1358 1.394 . S
C1359 C1360 1.383 . S
C1359 H1367 0.929 . S
C1360 C1359 1.383 . S
C1360 C1361 1.377 . S
C1361 H1345 0.930 . S
C1361 C1360 1.377 . S
C1361 C1362 1.379 . S
C1362 H1346 0.931 . S
C1362 C1356 1.383 . S
C1362 C1361 1.379 . S
H1363 C1357 0.959 . S
H1364 C1357 0.961 . S
H1365 C1357 0.960 . S
H1366 C1358 0.930 . S
H1367 C1359 0.929 . S
H1368 C1376 0.929 . S
H1369 C1378 0.930 . S
H1370 C1380 0.930 . S
H1371 C1383 0.929 . S
H1372 C1386 0.930 . S
H1373 C1388 0.960 . S
H1374 C1388 0.960 . S
H1375 C1388 0.960 . S
C1376 H1368 0.929 . S
C1376 C1377 1.377 . S
C1376 C1378 1.384 . S
C1377 C1376 1.377 . S
C1377 C1383 1.390 . S
C1378 H1369 0.930 . S
C1378 C1376 1.384 . S
C1378 C1379 1.372 . S
C1379 C1378 1.372 . S
C1379 C1380 1.400 . S
C1379 C1384 1.490 . S
C1380 H1370 0.930 . S
C1380 C1379 1.400 . S
C1380 C1383 1.386 . S
H1381 C1397 0.930 . S
H1382 C1398 0.931 . S
C1383 H1371 0.929 . S
C1383 C1377 1.390 . S
C1383 C1380 1.386 . S
C1384 C1379 1.490 . S
C1384 C1386 1.395 . S
C1384 C1387 1.403 1_655 S
H1385 C1391 0.930 . S
C1386 H1372 0.930 . S
C1386 C1384 1.395 . S
C1386 C1389 1.403 1_565 S
C1387 C1384 1.403 1_455 S
C1387 C1388 1.524 . S
C1387 C1391 1.400 1_565 S
C1388 H1373 0.960 . S
C1388 H1374 0.960 . S
C1388 H1375 0.960 . S
C1388 C1387 1.524 . S
C1389 C1386 1.403 1_545 S
C1389 C1390 1.392 1_655 S
C1389 C1393 1.495 . S
C1390 C1389 1.392 1_455 S
C1390 C1391 1.385 . S
C1390 C1392 1.478 . S
C1391 H1385 0.930 . S
C1391 C1387 1.400 1_545 S
C1391 C1390 1.385 . S
C1392 C1390 1.478 . S
C1392 C1394 1.381 . S
C1392 C1398 1.383 . S
C1393 C1389 1.495 . S
C1393 H1399 0.959 . S
C1393 H1400 0.961 . S
C1393 H1401 0.960 . S
C1394 C1392 1.381 . S
C1394 C1395 1.394 . S
C1394 H1402 0.930 . S
C1395 C1394 1.394 . S
C1395 C1396 1.383 . S
C1395 H1403 0.929 . S
C1396 C1395 1.383 . S
C1396 C1397 1.377 . S
C1397 H1381 0.930 . S
C1397 C1396 1.377 . S
C1397 C1398 1.379 . S
C1398 H1382 0.931 . S
C1398 C1392 1.383 . S
C1398 C1397 1.379 . S
H1399 C1393 0.959 . S
H1400 C1393 0.961 . S
H1401 C1393 0.960 . S
H1402 C1394 0.930 . S
H1403 C1395 0.929 . S
H1404 C1412 0.929 . S
H1405 C1414 0.930 . S
H1406 C1416 0.930 . S
H1407 C1419 0.929 . S
H1408 C1422 0.930 . S
H1409 C1424 0.960 . S
H1410 C1424 0.960 . S
H1411 C1424 0.960 . S
C1412 H1404 0.929 . S
C1412 C1413 1.377 . S
C1412 C1414 1.384 . S
C1413 C1412 1.377 . S
C1413 C1419 1.390 . S
C1414 H1405 0.930 . S
C1414 C1412 1.384 . S
C1414 C1415 1.372 . S
C1415 C1414 1.372 . S
C1415 C1416 1.400 . S
C1415 C1420 1.490 . S
C1416 H1406 0.930 . S
C1416 C1415 1.400 . S
C1416 C1419 1.386 . S
H1417 C1433 0.930 . S
H1418 C1434 0.931 . S
C1419 H1407 0.929 . S
C1419 C1413 1.390 . S
C1419 C1416 1.386 . S
C1420 C1415 1.490 . S
C1420 C1422 1.395 1_655 S
C1420 C1423 1.403 1_545 S
H1421 C1427 0.930 . S
C1422 H1408 0.930 . S
C1422 C1420 1.395 1_455 S
C1422 C1425 1.403 . S
C1423 C1420 1.403 1_565 S
C1423 C1424 1.524 . S
C1423 C1427 1.400 . S
C1424 H1409 0.960 . S
C1424 H1410 0.960 . S
C1424 H1411 0.960 . S
C1424 C1423 1.524 . S
C1425 C1422 1.403 . S
C1425 C1426 1.392 1_545 S
C1425 C1429 1.495 . S
C1426 C1425 1.392 1_565 S
C1426 C1427 1.385 1_455 S
C1426 C1428 1.478 . S
C1427 H1421 0.930 . S
C1427 C1423 1.400 . S
C1427 C1426 1.385 1_655 S
C1428 C1426 1.478 . S
C1428 C1430 1.381 . S
C1428 C1434 1.383 . S
C1429 C1425 1.495 . S
C1429 H1435 0.959 . S
C1429 H1436 0.961 . S
C1429 H1437 0.960 . S
C1430 C1428 1.381 . S
C1430 C1431 1.394 . S
C1430 H1438 0.930 . S
C1431 C1430 1.394 . S
C1431 C1432 1.383 . S
C1431 H1439 0.929 . S
C1432 C1431 1.383 . S
C1432 C1433 1.377 . S
C1433 H1417 0.930 . S
C1433 C1432 1.377 . S
C1433 C1434 1.379 . S
C1434 H1418 0.931 . S
C1434 C1428 1.383 . S
C1434 C1433 1.379 . S
H1435 C1429 0.959 . S
H1436 C1429 0.961 . S
H1437 C1429 0.960 . S
H1438 C1430 0.930 . S
H1439 C1431 0.929 . S
H1440 C1448 0.929 . S
H1441 C1450 0.930 . S
H1442 C1452 0.930 . S
H1443 C1455 0.929 . S
H1444 C1458 0.930 . S
H1445 C1460 0.960 . S
H1446 C1460 0.960 . S
H1447 C1460 0.960 . S
C1448 H1440 0.929 . S
C1448 C1449 1.377 . S
C1448 C1450 1.384 . S
C1449 C1448 1.377 . S
C1449 C1455 1.390 . S
C1450 H1441 0.930 . S
C1450 C1448 1.384 . S
C1450 C1451 1.372 . S
C1451 C1450 1.372 . S
C1451 C1452 1.400 . S
C1451 C1456 1.490 . S
C1452 H1442 0.930 . S
C1452 C1451 1.400 . S
C1452 C1455 1.386 . S
H1453 C1469 0.930 . S
H1454 C1470 0.931 . S
C1455 H1443 0.929 . S
C1455 C1449 1.390 . S
C1455 C1452 1.386 . S
C1456 C1451 1.490 . S
C1456 C1458 1.395 1_545 S
C1456 C1459 1.403 . S
H1457 C1463 0.930 . S
C1458 H1444 0.930 . S
C1458 C1456 1.395 1_565 S
C1458 C1461 1.403 1_455 S
C1459 C1456 1.403 . S
C1459 C1460 1.524 . S
C1459 C1463 1.400 1_455 S
C1460 H1445 0.960 . S
C1460 H1446 0.960 . S
C1460 H1447 0.960 . S
C1460 C1459 1.524 . S
C1461 C1458 1.403 1_655 S
C1461 C1462 1.392 . S
C1461 C1465 1.495 . S
C1462 C1461 1.392 . S
C1462 C1463 1.385 1_565 S
C1462 C1464 1.478 . S
C1463 H1457 0.930 . S
C1463 C1459 1.400 1_655 S
C1463 C1462 1.385 1_545 S
C1464 C1462 1.478 . S
C1464 C1466 1.381 . S
C1464 C1470 1.383 . S
C1465 C1461 1.495 . S
C1465 H1471 0.959 . S
C1465 H1472 0.961 . S
C1465 H1473 0.960 . S
C1466 C1464 1.381 . S
C1466 C1467 1.394 . S
C1466 H1474 0.930 . S
C1467 C1466 1.394 . S
C1467 C1468 1.383 . S
C1467 H1475 0.929 . S
C1468 C1467 1.383 . S
C1468 C1469 1.377 . S
C1469 H1453 0.930 . S
C1469 C1468 1.377 . S
C1469 C1470 1.379 . S
C1470 H1454 0.931 . S
C1470 C1464 1.383 . S
C1470 C1469 1.379 . S
H1471 C1465 0.959 . S
H1472 C1465 0.961 . S
H1473 C1465 0.960 . S
H1474 C1466 0.930 . S
H1475 C1467 0.929 . S
C405 N14 1.665 . S
C424 N245 1.680 . S
C441 N47 1.672 . S
C460 N278 1.660 . S
C477 N80 1.667 . S
C496 N311 1.664 . S
C513 N344 1.669 . S
C532 N113 1.673 . S
C549 N377 1.669 . S
C568 N146 1.672 . S
C585 N179 1.671 . S
C604 N212 1.647 . S
C621 C127 1.609 . S
C640 C28 1.615 . S
C657 C61 1.608 . S
C676 C160 1.610 . S
C693 C193 1.609 . S
C712 C94 1.606 . S
C729 C325 1.609 . S
C748 C226 1.605 . S
C765 C358 1.608 . S
C784 C259 1.611 . S
C801 C292 1.609 . S
C820 C391 1.603 . S
C837 N269 1.558 . S
C856 N5 1.534 . S
C873 N38 1.558 . S
C892 N302 1.534 . S
C909 N71 1.554 . S
C928 N335 1.575 . S
C945 N104 1.563 . S
C964 N368 1.565 . S
C981 N137 1.554 . S
C1000 N203 1.568 . S
C1017 N236 1.554 . S
C1036 N170 1.556 . S
C1053 C116 1.032 . S
C1072 C17 1.010 . S
C1089 C50 1.027 . S
C1108 C149 1.041 . S
C1125 C182 1.025 . S
C1144 C83 1.039 . S
C1161 C215 1.029 . S
C1180 C314 1.031 . S
C1197 C248 1.026 . S
C1216 C347 1.034 . S
C1233 C380 1.025 . S
C1252 C281 1.041 . S
C1269 C8 1.207 . S
C1288 C107 1.208 . S
C1305 C41 1.209 . S
C1324 C140 1.215 . S
C1341 C74 1.209 . S
C1360 C173 1.215 . S
C1377 C206 1.209 . S
C1396 C305 1.216 . S
C1413 C338 1.208 . S
C1432 C239 1.215 . S
C1449 C272 1.210 . S
C1468 C371 1.213 . S
