# Generated by pormake.
# Topology unh, (4)-cn, num edge types: 1
# Building blocks:
#     Node 0, Type 0, BuildingBlock: QUQFOY_clean_sbu_1, # of connection points: 4
#     Node 1, Type 0, BuildingBlock: QUQFOY_clean_sbu_1, # of connection points: 4
#     Node 2, Type 0, BuildingBlock: QUQFOY_clean_sbu_1, # of connection points: 4
#     Node 3, Type 0, BuildingBlock: QUQFOY_clean_sbu_1, # of connection points: 4
#     Node 4, Type 0, BuildingBlock: QUQFOY_clean_sbu_1, # of connection points: 4
#     Node 5, Type 0, BuildingBlock: QUQFOY_clean_sbu_1, # of connection points: 4
#     Edge 6, Type (0, 0), BuildingBlock: XUDNAN_clean_linker_2, # of connection points: 2
#     Edge 7, Type (0, 0), BuildingBlock: XUDNAN_clean_linker_2, # of connection points: 2
#     Edge 8, Type (0, 0), BuildingBlock: XUDNAN_clean_linker_2, # of connection points: 2
#     Edge 9, Type (0, 0), BuildingBlock: XUDNAN_clean_linker_2, # of connection points: 2
#     Edge 10, Type (0, 0), BuildingBlock: XUDNAN_clean_linker_2, # of connection points: 2
#     Edge 11, Type (0, 0), BuildingBlock: XUDNAN_clean_linker_2, # of connection points: 2
#     Edge 12, Type (0, 0), BuildingBlock: XUDNAN_clean_linker_2, # of connection points: 2
#     Edge 13, Type (0, 0), BuildingBlock: XUDNAN_clean_linker_2, # of connection points: 2
#     Edge 14, Type (0, 0), BuildingBlock: XUDNAN_clean_linker_2, # of connection points: 2
#     Edge 15, Type (0, 0), BuildingBlock: XUDNAN_clean_linker_2, # of connection points: 2
#     Edge 16, Type (0, 0), BuildingBlock: XUDNAN_clean_linker_2, # of connection points: 2
#     Edge 17, Type (0, 0), BuildingBlock: XUDNAN_clean_linker_2, # of connection points: 2
# Relax obj value: 0.055
# Max RMSD: 0.146
# Mean RMSD: 0.146
data_MOF--net-unh--node1-QUQFOY_clean_sbu_1--edge1-XUDNAN_clean_linker_2
_symmetry_space_group_name_H-M    P1
_symmetry_Int_Tables_number       1
_symmetry_cell_setting            triclinic
loop_
_symmetry_equiv_pos_as_xyz
'x, y, z'
_cell_length_a     43.836707
_cell_length_b     43.849104
_cell_length_c     22.749763
_cell_angle_alpha  89.991688
_cell_angle_beta   89.995717
_cell_angle_gamma 120.01801
loop_
_atom_site_label
_atom_site_type_symbol
_atom_site_fract_x
_atom_site_fract_y
_atom_site_fract_z
_atom_type_partial_charge
O0 O 0.08633 0.56144 0.00625 0.0
Cd1 Cd 0.11735 0.59596 0.07185 0.0
Cd2 Cd 0.15706 0.56784 0.04665 0.0
O3 O 0.11362 0.53076 1.00117 0.0
O4 O 0.08602 0.60759 0.11873 0.0
O5 O 0.10921 0.57664 0.15398 0.0
C6 C 0.089 0.5899 0.16147 0.0
C7 C 0.18552 0.55274 0.11759 0.0
C8 C 0.08822 0.53532 0.98623 0.0
C9 C 0.18601 0.64387 0.01602 0.0
O10 O 0.18714 0.61594 0.00632 0.0
O11 O 0.16163 0.64294 0.04758 0.0
O12 O 0.19043 0.55028 0.06227 0.0
O13 O 0.16333 0.56252 0.13276 0.0
O14 O 0.5293 0.07734 0.18314 0.0
Cd15 Cd 0.52199 0.10797 0.24441 0.0
Cd16 Cd 0.59166 0.15192 0.22078 0.0
O17 O 0.58733 0.10866 0.17702 0.0
O18 O 0.48476 0.07572 0.30135 0.0
O19 O 0.54097 0.11026 0.32456 0.0
C20 C 0.50963 0.08645 0.34 0.0
C21 C 0.63759 0.18438 0.28684 0.0
C22 C 0.55831 0.08134 0.1637 0.0
C23 C 0.53922 0.17483 0.18591 0.0
O24 O 0.56988 0.17882 0.18079 0.0
O25 O 0.51541 0.14904 0.2148 0.0
O26 O 0.64264 0.18841 0.23085 0.0
O27 O 0.6068 0.16114 0.30538 0.0
O28 O 0.44217 0.51946 0.36486 0.0
Cd29 Cd 0.41164 0.52628 0.42683 0.0
Cd30 Cd 0.44644 0.59138 0.38349 0.0
O31 O 0.47851 0.57535 0.34435 0.0
O32 O 0.39452 0.48386 0.47811 0.0
O33 O 0.43185 0.53791 0.50836 0.0
C34 C 0.41507 0.50445 0.51863 0.0
C35 C 0.4667 0.63746 0.45038 0.0
C36 C 0.46959 0.5431 0.3391 0.0
C37 C 0.36948 0.55119 0.3602 0.0
O38 O 0.39895 0.57654 0.34323 0.0
O39 O 0.36823 0.52965 0.39899 0.0
O40 O 0.47332 0.64353 0.39496 0.0
O41 O 0.4495 0.60516 0.46809 0.0
O42 O 0.92501 0.45571 0.50685 0.0
Cd43 Cd 0.89307 0.42258 0.57287 0.0
Cd44 Cd 0.85472 0.45217 0.54829 0.0
O45 O 0.8998 0.48831 0.50491 0.0
O46 O 0.92298 0.40928 0.62001 0.0
O47 O 0.9022 0.44252 0.65458 0.0
C48 C 0.92125 0.42796 0.66232 0.0
C49 C 0.82773 0.47038 0.61709 0.0
C50 C 0.92433 0.48276 0.48853 0.0
C51 C 0.82325 0.37633 0.51758 0.0
O52 O 0.82297 0.40464 0.50678 0.0
O53 O 0.84739 0.37687 0.54933 0.0
O54 O 0.82638 0.47574 0.56166 0.0
O55 O 0.845 0.45519 0.6339 0.0
O56 O 0.48943 0.92642 0.69552 0.0
Cd57 Cd 0.48986 0.89069 0.75346 0.0
Cd58 Cd 0.42282 0.85251 0.71415 0.0
O59 O 0.43411 0.89716 0.66575 0.0
O60 O 0.53195 0.91945 0.80378 0.0
O61 O 0.47728 0.89404 0.83725 0.0
C62 C 0.51058 0.91441 0.84647 0.0
C63 C 0.37607 0.82654 0.7801 0.0
C64 C 0.46439 0.92477 0.66493 0.0
C65 C 0.47149 0.8237 0.69098 0.0
O66 O 0.44121 0.82031 0.68354 0.0
O67 O 0.49517 0.84981 0.71937 0.0
O68 O 0.37105 0.82101 0.72428 0.0
O69 O 0.40756 0.84814 0.7984 0.0
O70 O 0.55648 0.47954 0.85496 0.0
Cd71 Cd 0.59384 0.48627 0.91602 0.0
Cd72 Cd 0.57037 0.41667 0.89194 0.0
O73 O 0.53453 0.42254 0.84001 0.0
O74 O 0.59751 0.52127 0.9763 0.0
O75 O 0.57677 0.46462 0.99449 0.0
C76 C 0.58335 0.49518 0.01276 0.0
C77 C 0.55032 0.36761 0.95382 0.0
C78 C 0.53427 0.45101 0.83005 0.0
C79 C 0.647 0.47131 0.86415 0.0
O80 O 0.62228 0.43932 0.86363 0.0
O81 O 0.64175 0.49528 0.8847 0.0
O82 O 0.55443 0.36518 0.89823 0.0
O83 O 0.55679 0.39767 0.97424 0.0
H84 H 0.03456 0.54122 0.93536 0.0
H85 H 0.08207 0.4749 0.93921 0.0
H86 H 0.04033 0.43679 0.863 0.0
H87 H 0.94325 0.47029 0.90874 0.0
H88 H 0.93407 0.49723 0.86027 0.0
H89 H 0.96535 0.51732 0.91926 0.0
H90 H 0.01287 0.55838 0.84454 0.0
H91 H 0.9818 0.53847 0.78544 0.0
H92 H 0.02334 0.53936 0.78298 0.0
H93 H 0.99713 0.40898 0.7806 0.0
H94 H 0.95591 0.39377 0.69736 0.0
H95 H 0.93607 0.4778 0.7475 0.0
C96 C 0.03584 0.51835 0.92097 0.0
C97 C 0.06157 0.51103 0.94352 0.0
C98 C 0.06259 0.48106 0.92279 0.0
C99 C 0.0389 0.45917 0.8796 0.0
C100 C 0.01423 0.46745 0.85775 0.0
C101 C 0.01244 0.49625 0.87785 0.0
C102 C 0.98494 0.50061 0.84449 0.0
C103 C 0.95513 0.49608 0.88566 0.0
C104 C 1.00175 0.53631 0.81247 0.0
C105 C 0.97214 0.47028 0.80151 0.0
C106 C 0.98915 0.45128 0.81027 0.0
C107 C 0.9833 0.42335 0.7738 0.0
C108 C 0.95986 0.41494 0.72658 0.0
C109 C 0.94258 0.43442 0.71617 0.0
C110 C 0.94842 0.46204 0.75487 0.0
H111 H 0.47258 0.92519 0.93122 0.0
H112 H 0.57875 0.9506 0.88483 0.0
H113 H 0.60216 0.99198 0.96829 0.0
H114 H 0.49296 0.01007 0.96266 0.0
H115 H 0.46285 0.99931 0.02337 0.0
H116 H 0.45368 0.96738 0.96651 0.0
H117 H 0.44969 0.92228 0.04413 0.0
H118 H 0.4585 0.954 0.10149 0.0
H119 H 0.48586 0.9343 0.09413 0.0
H120 H 0.61465 0.03594 0.04829 0.0
H121 H 0.61514 0.07816 0.12059 0.0
H122 H 0.50085 0.02449 0.11448 0.0
C123 C 0.50063 0.93858 0.9398 0.0
C124 C 0.52383 0.93443 0.90188 0.0
C125 C 0.56048 0.95319 0.91356 0.0
C126 C 0.57402 0.97674 0.96092 0.0
C127 C 0.55058 0.98116 0.99629 0.0
C128 C 0.51461 0.96238 0.98665 0.0
C129 C 0.49542 0.97436 0.02765 0.0
C130 C 0.47505 0.98863 0.99296 0.0
C131 C 0.47092 0.94445 0.06933 0.0
C132 C 0.52628 0.0035 0.06055 0.0
C133 C 0.55783 0.00675 0.04228 0.0
C134 C 0.59007 0.03329 0.06366 0.0
C135 C 0.59008 0.05724 0.10456 0.0
C136 C 0.55805 0.05461 0.1235 0.0
C137 C 0.52579 0.02703 0.10153 0.0
H138 H 0.51448 0.58043 0.24879 0.0
H139 H 0.47059 0.48146 0.34367 0.0
H140 H 0.5013 0.46148 0.27667 0.0
H141 H 0.50304 0.54375 0.10908 0.0
H142 H 0.54301 0.57909 0.07814 0.0
H143 H 0.52177 0.58774 0.13826 0.0
H144 H 0.57953 0.61387 0.19875 0.0
H145 H 0.60099 0.60527 0.13867 0.0
H146 H 0.60038 0.58788 0.21074 0.0
H147 H 0.53178 0.44989 0.1948 0.0
H148 H 0.55813 0.44646 0.10107 0.0
H149 H 0.58173 0.55251 0.05766 0.0
C150 C 0.51203 0.55491 0.25626 0.0
C151 C 0.49036 0.53258 0.30169 0.0
C152 C 0.48709 0.499 0.30919 0.0
C153 C 0.50459 0.4875 0.27157 0.0
C154 C 0.52523 0.50985 0.22657 0.0
C155 C 0.52904 0.54284 0.21864 0.0
C156 C 0.55007 0.56028 0.16358 0.0
C157 C 0.52816 0.56815 0.11969 0.0
C158 C 0.58481 0.59382 0.17887 0.0
C159 C 0.55666 0.53156 0.14103 0.0
C160 C 0.54255 0.50293 0.17854 0.0
C161 C 0.54336 0.47231 0.16544 0.0
C162 C 0.55836 0.47062 0.11203 0.0
C163 C 0.57218 0.49929 0.07218 0.0
C164 C 0.5719 0.53038 0.0876 0.0
H165 H 0.97688 0.47582 0.43516 0.0
H166 H 0.93179 0.54419 0.44415 0.0
H167 H 0.97311 0.58217 0.36749 0.0
H168 H 0.06865 0.54582 0.40687 0.0
H169 H 0.07664 0.51868 0.35687 0.0
H170 H 0.04588 0.4987 0.4166 0.0
H171 H 0.99726 0.45868 0.34262 0.0
H172 H 0.02779 0.47852 0.28277 0.0
H173 H 0.98666 0.47849 0.2824 0.0
H174 H 0.01505 0.60945 0.28369 0.0
H175 H 0.05525 0.62447 0.19896 0.0
H176 H 0.0741 0.53926 0.24514 0.0
C177 C 0.97609 0.49912 0.42181 0.0
C178 C 0.95109 0.50702 0.4459 0.0
C179 C 0.95069 0.53755 0.42654 0.0
C180 C 0.97414 0.55938 0.38308 0.0
C181 C 0.99802 0.55051 0.3596 0.0
C182 C 0.99933 0.52123 0.37846 0.0
C183 C 0.02611 0.51645 0.34353 0.0
C184 C 0.0561 0.52014 0.38335 0.0
C185 C 0.00839 0.48094 0.3109 0.0
C186 C 0.03897 0.54711 0.30113 0.0
C187 C 0.0226 0.56656 0.31147 0.0
C188 C 0.02844 0.59476 0.27569 0.0
C189 C 0.05126 0.60305 0.2276 0.0
C190 C 0.06803 0.58324 0.21577 0.0
C191 C 0.06218 0.55529 0.2537 0.0
H192 H 0.45529 0.02215 0.37509 0.0
H193 H 0.5508 0.11375 0.43715 0.0
H194 H 0.54499 0.08414 0.53202 0.0
H195 H 0.40844 0.99606 0.51996 0.0
H196 H 0.39028 0.94979 0.50503 0.0
H197 H 0.39861 0.98009 0.44542 0.0
H198 H 0.43717 0.95856 0.39407 0.0
H199 H 0.42917 0.92843 0.45353 0.0
H200 H 0.47374 0.96028 0.4333 0.0
H201 H 0.53345 0.04293 0.61421 0.0
H202 H 0.51694 0.9924 0.67973 0.0
H203 H 0.42882 0.92629 0.56573 0.0
C204 C 0.47433 0.03634 0.40936 0.0
C205 C 0.5033 0.0704 0.39908 0.0
C206 C 0.5283 0.08775 0.44427 0.0
C207 C 0.52516 0.07119 0.49836 0.0
C208 C 0.49687 0.03726 0.5066 0.0
C209 C 0.47176 0.01999 0.46357 0.0
C210 C 0.44595 0.98236 0.48173 0.0
C211 C 0.4086 0.97676 0.48845 0.0
C212 C 0.44657 0.95586 0.43807 0.0
C213 C 0.46119 0.98088 0.54083 0.0
C214 C 0.49028 0.01304 0.55447 0.0
C215 C 0.51041 0.01778 0.60452 0.0
C216 C 0.50089 0.98882 0.64131 0.0
C217 C 0.4715 0.95542 0.62798 0.0
C218 C 0.45104 0.95162 0.57756 0.0
H219 H 0.53416 0.50874 0.78445 0.0
H220 H 0.47668 0.39442 0.78001 0.0
H221 H 0.43542 0.39581 0.70738 0.0
H222 H 0.45819 0.52172 0.7659 0.0
H223 H 0.48233 0.55972 0.71942 0.0
H224 H 0.50506 0.54964 0.77535 0.0
H225 H 0.54764 0.54918 0.69673 0.0
H226 H 0.52518 0.55941 0.64074 0.0
H227 H 0.5298 0.52099 0.63338 0.0
H228 H 0.40296 0.40985 0.63043 0.0
H229 H 0.38416 0.43515 0.55103 0.0
H230 H 0.46351 0.54033 0.60525 0.0
C231 C 0.51258 0.48392 0.769 0.0
C232 C 0.50854 0.45143 0.78826 0.0
C233 C 0.48028 0.41962 0.76604 0.0
C234 C 0.4566 0.42016 0.72501 0.0
C235 C 0.46155 0.45269 0.7067 0.0
C236 C 0.48892 0.48399 0.72788 0.0
C237 C 0.49013 0.51543 0.69795 0.0
C238 C 0.48352 0.53795 0.74231 0.0
C239 C 0.52526 0.53753 0.66526 0.0
C240 C 0.45962 0.49696 0.65558 0.0
C241 C 0.44314 0.46078 0.6619 0.0
C242 C 0.41543 0.43813 0.62551 0.0
C243 C 0.4049 0.45279 0.58056 0.0
C244 C 0.42222 0.48975 0.57206 0.0
C245 C 0.44939 0.51202 0.61106 0.0
H246 H 0.25237 0.56483 0.10543 0.0
H247 H 0.16653 0.52877 0.23044 0.0
H248 H 0.20333 0.52153 0.30578 0.0
H249 H 0.28799 0.50988 0.15285 0.0
H250 H 0.33305 0.54432 0.1429 0.0
H251 H 0.29879 0.54343 0.09794 0.0
H252 H 0.31761 0.60708 0.13062 0.0
H253 H 0.35184 0.60813 0.17577 0.0
H254 H 0.31947 0.61699 0.20789 0.0
H255 H 0.25012 0.51792 0.36697 0.0
H256 H 0.30443 0.52381 0.41161 0.0
H257 H 0.36061 0.56767 0.24843 0.0
C258 C 0.24112 0.55483 0.14838 0.0
C259 C 0.20647 0.54674 0.16204 0.0
C260 C 0.19297 0.53479 0.21916 0.0
C261 C 0.21364 0.53054 0.26206 0.0
C262 C 0.2479 0.53903 0.24728 0.0
C263 C 0.26164 0.55134 0.19197 0.0
C264 C 0.29998 0.56123 0.18834 0.0
C265 C 0.30525 0.53834 0.14282 0.0
C266 C 0.32361 0.6007 0.17488 0.0
C267 C 0.30574 0.55255 0.25022 0.0
C268 C 0.27529 0.53921 0.28336 0.0
C269 C 0.27415 0.52855 0.34151 0.0
C270 C 0.30503 0.53191 0.36644 0.0
C271 C 0.33668 0.54651 0.3336 0.0
C272 C 0.33687 0.55686 0.27479 0.0
H273 H 0.68708 0.25347 0.27251 0.0
H274 H 0.64998 0.16677 0.3959 0.0
H275 H 0.69542 0.2059 0.46751 0.0
H276 H 0.78026 0.29721 0.30854 0.0
H277 H 0.78595 0.34073 0.30217 0.0
H278 H 0.7528 0.30507 0.25906 0.0
H279 H 0.70512 0.31735 0.30155 0.0
H280 H 0.73808 0.35294 0.34492 0.0
H281 H 0.69985 0.31766 0.38011 0.0
H282 H 0.74585 0.25482 0.52476 0.0
H283 H 0.79289 0.3108 0.56719 0.0
H284 H 0.79218 0.36639 0.41003 0.0
C285 C 0.68897 0.24264 0.31425 0.0
C286 C 0.6656 0.20705 0.32852 0.0
C287 C 0.66798 0.19395 0.38415 0.0
C288 C 0.69369 0.21594 0.42492 0.0
C289 C 0.71624 0.25107 0.4097 0.0
C290 C 0.71377 0.26444 0.35597 0.0
C291 C 0.73919 0.30368 0.35208 0.0
C292 C 0.76615 0.31216 0.30252 0.0
C293 C 0.71937 0.3241 0.34422 0.0
C294 C 0.75643 0.31036 0.41194 0.0
C295 C 0.74332 0.2796 0.44417 0.0
C296 C 0.75609 0.2791 0.5001 0.0
C297 C 0.78279 0.31092 0.52378 0.0
C298 C 0.79575 0.34281 0.49208 0.0
C299 C 0.78232 0.34241 0.43552 0.0
H300 H 0.42565 0.75442 0.66598 0.0
H301 H 0.53543 0.83568 0.65135 0.0
H302 H 0.54755 0.79509 0.59361 0.0
H303 H 0.44268 0.67991 0.67996 0.0
H304 H 0.40383 0.65069 0.63848 0.0
H305 H 0.40458 0.68538 0.68205 0.0
H306 H 0.38807 0.70885 0.58999 0.0
H307 H 0.38746 0.67443 0.54612 0.0
H308 H 0.41517 0.71983 0.52508 0.0
H309 H 0.54534 0.74873 0.52502 0.0
H310 H 0.53053 0.69732 0.4611 0.0
H311 H 0.42395 0.64425 0.52912 0.0
C312 C 0.45236 0.76344 0.65146 0.0
C313 C 0.47962 0.79818 0.66294 0.0
C314 C 0.51424 0.80907 0.64333 0.0
C315 C 0.52133 0.78625 0.61038 0.0
C316 C 0.49368 0.75237 0.59874 0.0
C317 C 0.46005 0.74073 0.6198 0.0
C318 C 0.43485 0.70333 0.60028 0.0
C319 C 0.42066 0.67835 0.65336 0.0
C320 C 0.40462 0.70153 0.56316 0.0
C321 C 0.45928 0.69611 0.56334 0.0
C322 C 0.49307 0.72482 0.56261 0.0
C323 C 0.51927 0.72573 0.52657 0.0
C324 C 0.51067 0.69657 0.49038 0.0
C325 C 0.47646 0.66675 0.49161 0.0
C326 C 0.45063 0.66638 0.52904 0.0
H327 H 0.67546 0.42883 0.84608 0.0
H328 H 0.69466 0.53474 0.81625 0.0
H329 H 0.74693 0.54803 0.75647 0.0
H330 H 0.77032 0.45395 0.85437 0.0
H331 H 0.76226 0.41403 0.81815 0.0
H332 H 0.7285 0.4141 0.86331 0.0
H333 H 0.68495 0.39003 0.77576 0.0
H334 H 0.71854 0.39009 0.73028 0.0
H335 H 0.69681 0.41373 0.70707 0.0
H336 H 0.79062 0.54634 0.68702 0.0
H337 H 0.82711 0.53201 0.62215 0.0
H338 H 0.7835 0.42944 0.70418 0.0
C339 C 0.69112 0.45506 0.82801 0.0
C340 C 0.681 0.48077 0.83577 0.0
C341 C 0.70208 0.51474 0.81129 0.0
C342 C 0.73176 0.5225 0.77713 0.0
C343 C 0.7405 0.49627 0.76906 0.0
C344 C 0.72125 0.46347 0.79486 0.0
C345 C 0.7355 0.43956 0.77765 0.0
C346 C 0.75001 0.42985 0.83159 0.0
C347 C 0.70727 0.40641 0.74579 0.0
C348 C 0.76489 0.46356 0.73629 0.0
C349 C 0.76726 0.49614 0.73179 0.0
C350 C 0.78976 0.52134 0.69146 0.0
C351 C 0.81026 0.51299 0.65472 0.0
C352 C 0.80859 0.48004 0.65942 0.0
C353 C 0.78602 0.45526 0.70127 0.0
H354 H 0.32236 0.75943 0.76728 0.0
H355 H 0.36567 0.8476 0.88821 0.0
H356 H 0.31858 0.81171 0.96011 0.0
H357 H 0.22929 0.72216 0.80328 0.0
H358 H 0.22051 0.67746 0.7981 0.0
H359 H 0.25487 0.71149 0.75414 0.0
H360 H 0.29987 0.69552 0.79713 0.0
H361 H 0.26572 0.66154 0.84126 0.0
H362 H 0.3052 0.69549 0.87571 0.0
H363 H 0.2662 0.76502 0.01891 0.0
H364 H 0.21809 0.7103 0.06349 0.0
H365 H 0.21423 0.65208 0.90705 0.0
C366 C 0.32145 0.77142 0.80839 0.0
C367 C 0.34708 0.80643 0.82193 0.0
C368 C 0.34592 0.82088 0.87695 0.0
C369 C 0.31926 0.80073 0.91785 0.0
C370 C 0.29449 0.76605 0.90334 0.0
C371 C 0.29573 0.75143 0.85015 0.0
C372 C 0.26838 0.71272 0.84715 0.0
C373 C 0.24168 0.70555 0.79774 0.0
C374 C 0.28585 0.69 0.83991 0.0
C375 C 0.25158 0.70768 0.90704 0.0
C376 C 0.26639 0.73882 0.93847 0.0
C377 C 0.25456 0.74049 0.99473 0.0
C378 C 0.22724 0.7094 0.01964 0.0
C379 C 0.21284 0.67711 0.9888 0.0
C380 C 0.22509 0.67642 0.93177 0.0
H381 H 0.56792 0.3166 0.94239 0.0
H382 H 0.51202 0.35172 0.05559 0.0
H383 H 0.49825 0.3025 0.12418 0.0
H384 H 0.51335 0.22185 0.96693 0.0
H385 H 0.5507 0.21516 0.96806 0.0
H386 H 0.55224 0.25035 0.92489 0.0
H387 H 0.60922 0.29537 0.97905 0.0
H388 H 0.60787 0.26036 0.0223 0.0
H389 H 0.60923 0.29767 0.05817 0.0
H390 H 0.49146 0.24925 0.18101 0.0
H391 H 0.49846 0.20165 0.22663 0.0
H392 H 0.5638 0.20613 0.08014 0.0
C393 C 0.55215 0.31345 0.98101 0.0
C394 C 0.5404 0.3374 0.99334 0.0
C395 C 0.52091 0.3333 0.04526 0.0
C396 C 0.51289 0.30541 0.08425 0.0
C397 C 0.52513 0.28232 0.07107 0.0
C398 C 0.54477 0.28642 0.02103 0.0
C399 C 0.55791 0.26044 0.01969 0.0
C400 C 0.54263 0.23547 0.96675 0.0
C401 C 0.59845 0.27961 0.01984 0.0
C402 C 0.54282 0.24117 0.07691 0.0
C403 C 0.52333 0.25356 0.10544 0.0
C404 C 0.50673 0.23943 0.15907 0.0
C405 C 0.5107 0.21238 0.18455 0.0
C406 C 0.5318 0.20053 0.15696 0.0
C407 C 0.54771 0.21494 0.1023 0.0
loop_
_geom_bond_atom_site_label_1
_geom_bond_atom_site_label_2
_geom_bond_distance
_geom_bond_site_symmetry_2
_ccdc_geom_bond_type
O0 Cd1 2.223 . S
O0 C8 1.315 . S
Cd1 O0 2.223 . S
Cd1 O4 2.297 . S
Cd1 O5 2.439 . S
Cd1 O11 2.240 . S
Cd2 O3 2.240 . S
Cd2 O10 2.223 1_554 S
Cd2 O12 2.297 . S
Cd2 O13 2.439 . S
O3 Cd2 2.240 . S
O3 C8 1.279 . S
O4 Cd1 2.297 . S
O4 C6 1.247 . S
O5 Cd1 2.439 . S
O5 C6 1.208 . S
C6 O4 1.247 . S
C6 O5 1.208 . S
C7 O12 1.247 . S
C7 O13 1.208 . S
C8 O0 1.315 . S
C8 O3 1.279 . S
C9 O10 1.315 1_554 S
C9 O11 1.279 . S
O10 Cd2 2.223 1_556 S
O10 C9 1.315 1_556 S
O11 Cd1 2.240 . S
O11 C9 1.279 . S
O12 Cd2 2.297 . S
O12 C7 1.247 . S
O13 Cd2 2.439 . S
O13 C7 1.208 . S
O14 Cd15 2.223 . S
O14 C22 1.315 . S
Cd15 O14 2.223 . S
Cd15 O18 2.297 . S
Cd15 O19 2.439 . S
Cd15 O25 2.240 . S
Cd16 O17 2.240 . S
Cd16 O24 2.223 . S
Cd16 O26 2.297 . S
Cd16 O27 2.439 . S
O17 Cd16 2.240 . S
O17 C22 1.279 . S
O18 Cd15 2.297 . S
O18 C20 1.247 . S
O19 Cd15 2.439 . S
O19 C20 1.208 . S
C20 O18 1.247 . S
C20 O19 1.208 . S
C21 O26 1.247 . S
C21 O27 1.208 . S
C22 O14 1.315 . S
C22 O17 1.279 . S
C23 O24 1.315 . S
C23 O25 1.279 . S
O24 Cd16 2.223 . S
O24 C23 1.315 . S
O25 Cd15 2.240 . S
O25 C23 1.279 . S
O26 Cd16 2.297 . S
O26 C21 1.247 . S
O27 Cd16 2.439 . S
O27 C21 1.208 . S
O28 Cd29 2.223 . S
O28 C36 1.315 . S
Cd29 O28 2.223 . S
Cd29 O32 2.297 . S
Cd29 O33 2.439 . S
Cd29 O39 2.240 . S
Cd30 O31 2.240 . S
Cd30 O38 2.223 . S
Cd30 O40 2.297 . S
Cd30 O41 2.439 . S
O31 Cd30 2.240 . S
O31 C36 1.279 . S
O32 Cd29 2.297 . S
O32 C34 1.247 . S
O33 Cd29 2.439 . S
O33 C34 1.208 . S
C34 O32 1.247 . S
C34 O33 1.208 . S
C35 O40 1.247 . S
C35 O41 1.208 . S
C36 O28 1.315 . S
C36 O31 1.279 . S
C37 O38 1.315 . S
C37 O39 1.279 . S
O38 Cd30 2.223 . S
O38 C37 1.315 . S
O39 Cd29 2.240 . S
O39 C37 1.279 . S
O40 Cd30 2.297 . S
O40 C35 1.247 . S
O41 Cd30 2.439 . S
O41 C35 1.208 . S
O42 Cd43 2.223 . S
O42 C50 1.315 . S
Cd43 O42 2.223 . S
Cd43 O46 2.297 . S
Cd43 O47 2.439 . S
Cd43 O53 2.240 . S
Cd44 O45 2.240 . S
Cd44 O52 2.223 . S
Cd44 O54 2.297 . S
Cd44 O55 2.439 . S
O45 Cd44 2.240 . S
O45 C50 1.279 . S
O46 Cd43 2.297 . S
O46 C48 1.247 . S
O47 Cd43 2.439 . S
O47 C48 1.208 . S
C48 O46 1.247 . S
C48 O47 1.208 . S
C49 O54 1.247 . S
C49 O55 1.208 . S
C50 O42 1.315 . S
C50 O45 1.279 . S
C51 O52 1.315 . S
C51 O53 1.279 . S
O52 Cd44 2.223 . S
O52 C51 1.315 . S
O53 Cd43 2.240 . S
O53 C51 1.279 . S
O54 Cd44 2.297 . S
O54 C49 1.247 . S
O55 Cd44 2.439 . S
O55 C49 1.208 . S
O56 Cd57 2.223 . S
O56 C64 1.315 . S
Cd57 O56 2.223 . S
Cd57 O60 2.297 . S
Cd57 O61 2.439 . S
Cd57 O67 2.240 . S
Cd58 O59 2.240 . S
Cd58 O66 2.223 . S
Cd58 O68 2.297 . S
Cd58 O69 2.439 . S
O59 Cd58 2.240 . S
O59 C64 1.279 . S
O60 Cd57 2.297 . S
O60 C62 1.247 . S
O61 Cd57 2.439 . S
O61 C62 1.208 . S
C62 O60 1.247 . S
C62 O61 1.208 . S
C63 O68 1.247 . S
C63 O69 1.208 . S
C64 O56 1.315 . S
C64 O59 1.279 . S
C65 O66 1.315 . S
C65 O67 1.279 . S
O66 Cd58 2.223 . S
O66 C65 1.315 . S
O67 Cd57 2.240 . S
O67 C65 1.279 . S
O68 Cd58 2.297 . S
O68 C63 1.247 . S
O69 Cd58 2.439 . S
O69 C63 1.208 . S
O70 Cd71 2.223 . S
O70 C78 1.315 . S
Cd71 O70 2.223 . S
Cd71 O74 2.297 . S
Cd71 O75 2.439 1_556 S
Cd71 O81 2.240 . S
Cd72 O73 2.240 . S
Cd72 O80 2.223 . S
Cd72 O82 2.297 . S
Cd72 O83 2.439 . S
O73 Cd72 2.240 . S
O73 C78 1.279 . S
O74 Cd71 2.297 . S
O74 C76 1.247 1_556 S
O75 Cd71 2.439 1_554 S
O75 C76 1.208 . S
C76 O74 1.247 1_554 S
C76 O75 1.208 . S
C77 O82 1.247 . S
C77 O83 1.208 . S
C78 O70 1.315 . S
C78 O73 1.279 . S
C79 O80 1.315 . S
C79 O81 1.279 . S
O80 Cd72 2.223 . S
O80 C79 1.315 . S
O81 Cd71 2.240 . S
O81 C79 1.279 . S
O82 Cd72 2.297 . S
O82 C77 1.247 . S
O83 Cd72 2.439 . S
O83 C77 1.208 . S
H84 C96 0.930 . S
H85 C98 0.930 . S
H86 C99 0.930 . S
H87 C103 0.959 . S
H88 C103 0.959 . S
H89 C103 0.961 1_455 S
H90 C104 0.960 . S
H91 C104 0.961 . S
H92 C104 0.959 . S
H93 C107 0.929 . S
H94 C108 0.931 . S
H95 C110 0.930 . S
C96 H84 0.930 . S
C96 C97 1.399 . S
C96 C101 1.399 . S
C97 C96 1.399 . S
C97 C98 1.376 . S
C98 H85 0.930 . S
C98 C97 1.376 . S
C98 C99 1.388 . S
C99 H86 0.930 . S
C99 C98 1.388 . S
C99 C100 1.390 . S
C100 C99 1.390 . S
C100 C101 1.394 . S
C100 C106 1.465 . S
C101 C96 1.399 . S
C101 C100 1.394 . S
C101 C102 1.516 . S
C102 C101 1.516 . S
C102 C103 1.502 1_455 S
C102 C104 1.561 . S
C102 C105 1.526 1_455 S
C103 H87 0.959 . S
C103 H88 0.959 . S
C103 H89 0.961 1_655 S
C103 C102 1.502 1_655 S
C104 H90 0.960 . S
C104 H91 0.961 . S
C104 H92 0.959 . S
C104 C102 1.561 . S
C105 C102 1.526 1_655 S
C105 C106 1.396 1_655 S
C105 C110 1.390 . S
C106 C100 1.465 . S
C106 C105 1.396 1_455 S
C106 C107 1.399 1_455 S
C107 H93 0.929 . S
C107 C106 1.399 1_655 S
C107 C108 1.385 . S
C108 H94 0.931 . S
C108 C107 1.385 . S
C108 C109 1.389 . S
C109 C108 1.389 . S
C109 C110 1.387 . S
C110 H95 0.930 . S
C110 C105 1.390 . S
C110 C109 1.387 . S
H111 C123 0.930 1_545 S
H112 C125 0.930 . S
H113 C126 0.930 1_554 S
H114 C130 0.959 . S
H115 C130 0.959 . S
H116 C130 0.961 . S
H117 C131 0.960 . S
H118 C131 0.961 1_554 S
H119 C131 0.959 1_554 S
H120 C134 0.929 1_565 S
H121 C135 0.931 . S
H122 C137 0.930 . S
C123 H111 0.930 1_565 S
C123 C124 1.399 . S
C123 C128 1.399 1_565 S
C124 C123 1.399 . S
C124 C125 1.376 . S
C125 H112 0.930 . S
C125 C124 1.376 . S
C125 C126 1.388 . S
C126 H113 0.930 1_556 S
C126 C125 1.388 . S
C126 C127 1.391 . S
C127 C126 1.391 . S
C127 C128 1.398 1_565 S
C127 C133 1.460 1_566 S
C128 C123 1.399 1_545 S
C128 C127 1.398 1_545 S
C128 C129 1.516 . S
C129 C128 1.516 . S
C129 C130 1.502 . S
C129 C131 1.561 . S
C129 C132 1.526 1_556 S
C130 H114 0.959 . S
C130 H115 0.959 . S
C130 H116 0.961 . S
C130 C129 1.502 . S
C131 H117 0.960 . S
C131 H118 0.961 1_556 S
C131 H119 0.959 1_556 S
C131 C129 1.561 . S
C132 C129 1.526 1_554 S
C132 C133 1.396 . S
C132 C137 1.390 . S
C133 C127 1.460 1_544 S
C133 C132 1.396 . S
C133 C134 1.399 . S
C134 H120 0.929 1_545 S
C134 C133 1.399 . S
C134 C135 1.385 . S
C135 H121 0.931 . S
C135 C134 1.385 . S
C135 C136 1.389 . S
C136 C135 1.389 . S
C136 C137 1.387 . S
C137 H122 0.930 . S
C137 C132 1.390 . S
C137 C136 1.387 . S
H138 C150 0.930 . S
H139 C152 0.930 . S
H140 C153 0.930 . S
H141 C157 0.959 . S
H142 C157 0.959 . S
H143 C157 0.961 . S
H144 C158 0.960 . S
H145 C158 0.961 . S
H146 C158 0.959 . S
H147 C161 0.929 . S
H148 C162 0.931 . S
H149 C164 0.930 . S
C150 H138 0.930 . S
C150 C151 1.399 . S
C150 C155 1.399 . S
C151 C150 1.399 . S
C151 C152 1.376 . S
C152 H139 0.930 . S
C152 C151 1.376 . S
C152 C153 1.388 . S
C153 H140 0.930 . S
C153 C152 1.388 . S
C153 C154 1.390 . S
C154 C153 1.390 . S
C154 C155 1.394 . S
C154 C160 1.465 . S
C155 C150 1.399 . S
C155 C154 1.394 . S
C155 C156 1.516 . S
C156 C155 1.516 . S
C156 C157 1.502 . S
C156 C158 1.561 . S
C156 C159 1.526 . S
C157 H141 0.959 . S
C157 H142 0.959 . S
C157 H143 0.961 . S
C157 C156 1.502 . S
C158 H144 0.960 . S
C158 H145 0.961 . S
C158 H146 0.959 . S
C158 C156 1.561 . S
C159 C156 1.526 . S
C159 C160 1.396 . S
C159 C164 1.390 . S
C160 C154 1.465 . S
C160 C159 1.396 . S
C160 C161 1.399 . S
C161 H147 0.929 . S
C161 C160 1.399 . S
C161 C162 1.385 . S
C162 H148 0.931 . S
C162 C161 1.385 . S
C162 C163 1.389 . S
C163 C162 1.389 . S
C163 C164 1.387 . S
C164 H149 0.930 . S
C164 C159 1.390 . S
C164 C163 1.387 . S
H165 C177 0.930 . S
H166 C179 0.930 . S
H167 C180 0.930 1_455 S
H168 C184 0.959 . S
H169 C184 0.959 . S
H170 C184 0.961 . S
H171 C185 0.960 . S
H172 C185 0.961 . S
H173 C185 0.959 . S
H174 C188 0.929 . S
H175 C189 0.931 . S
H176 C191 0.930 . S
C177 H165 0.930 . S
C177 C178 1.399 . S
C177 C182 1.399 . S
C178 C177 1.399 . S
C178 C179 1.376 . S
C179 H166 0.930 . S
C179 C178 1.376 . S
C179 C180 1.388 . S
C180 H167 0.930 1_655 S
C180 C179 1.388 . S
C180 C181 1.390 . S
C181 C180 1.390 . S
C181 C182 1.394 . S
C181 C187 1.465 1_655 S
C182 C177 1.399 . S
C182 C181 1.394 . S
C182 C183 1.516 . S
C183 C182 1.516 . S
C183 C184 1.502 . S
C183 C185 1.561 . S
C183 C186 1.526 . S
C184 H168 0.959 . S
C184 H169 0.959 . S
C184 H170 0.961 . S
C184 C183 1.502 . S
C185 H171 0.960 . S
C185 H172 0.961 . S
C185 H173 0.959 . S
C185 C183 1.561 . S
C186 C183 1.526 . S
C186 C187 1.396 1_655 S
C186 C191 1.390 1_655 S
C187 C181 1.465 1_455 S
C187 C186 1.396 1_455 S
C187 C188 1.399 . S
C188 H174 0.929 . S
C188 C187 1.399 . S
C188 C189 1.385 . S
C189 H175 0.931 . S
C189 C188 1.385 . S
C189 C190 1.389 . S
C190 C189 1.389 . S
C190 C191 1.387 . S
C191 H176 0.930 . S
C191 C186 1.390 1_455 S
C191 C190 1.387 . S
H192 C204 0.930 1_565 S
H193 C206 0.930 . S
H194 C207 0.930 . S
H195 C211 0.959 . S
H196 C211 0.959 . S
H197 C211 0.961 . S
H198 C212 0.960 . S
H199 C212 0.961 . S
H200 C212 0.959 . S
H201 C215 0.929 1_545 S
H202 C216 0.931 . S
H203 C218 0.930 . S
C204 H192 0.930 1_545 S
C204 C205 1.399 . S
C204 C209 1.399 1_545 S
C205 C204 1.399 . S
C205 C206 1.376 . S
C206 H193 0.930 . S
C206 C205 1.376 . S
C206 C207 1.388 . S
C207 H194 0.930 . S
C207 C206 1.388 . S
C207 C208 1.390 . S
C208 C207 1.390 . S
C208 C209 1.394 1_545 S
C208 C214 1.465 1_545 S
C209 C204 1.399 1_565 S
C209 C208 1.394 1_565 S
C209 C210 1.516 . S
C210 C209 1.516 . S
C210 C211 1.502 . S
C210 C212 1.561 . S
C210 C213 1.526 . S
C211 H195 0.959 . S
C211 H196 0.959 . S
C211 H197 0.961 . S
C211 C210 1.502 . S
C212 H198 0.960 . S
C212 H199 0.961 . S
C212 H200 0.959 . S
C212 C210 1.561 . S
C213 C210 1.526 . S
C213 C214 1.396 . S
C213 C218 1.390 . S
C214 C208 1.465 1_565 S
C214 C213 1.396 . S
C214 C215 1.399 . S
C215 H201 0.929 1_565 S
C215 C214 1.399 . S
C215 C216 1.385 . S
C216 H202 0.931 . S
C216 C215 1.385 . S
C216 C217 1.389 . S
C217 C216 1.389 . S
C217 C218 1.387 . S
C218 H203 0.930 . S
C218 C213 1.390 . S
C218 C217 1.387 . S
H219 C231 0.930 . S
H220 C233 0.930 . S
H221 C234 0.930 . S
H222 C238 0.959 . S
H223 C238 0.959 . S
H224 C238 0.961 . S
H225 C239 0.960 . S
H226 C239 0.961 . S
H227 C239 0.959 . S
H228 C242 0.929 . S
H229 C243 0.931 . S
H230 C245 0.930 . S
C231 H219 0.930 . S
C231 C232 1.399 . S
C231 C236 1.399 . S
C232 C231 1.399 . S
C232 C233 1.376 . S
C233 H220 0.930 . S
C233 C232 1.376 . S
C233 C234 1.388 . S
C234 H221 0.930 . S
C234 C233 1.388 . S
C234 C235 1.390 . S
C235 C234 1.390 . S
C235 C236 1.394 . S
C235 C241 1.465 . S
C236 C231 1.399 . S
C236 C235 1.394 . S
C236 C237 1.516 . S
C237 C236 1.516 . S
C237 C238 1.502 . S
C237 C239 1.561 . S
C237 C240 1.526 . S
C238 H222 0.959 . S
C238 H223 0.959 . S
C238 H224 0.961 . S
C238 C237 1.502 . S
C239 H225 0.960 . S
C239 H226 0.961 . S
C239 H227 0.959 . S
C239 C237 1.561 . S
C240 C237 1.526 . S
C240 C241 1.396 . S
C240 C245 1.390 . S
C241 C235 1.465 . S
C241 C240 1.396 . S
C241 C242 1.399 . S
C242 H228 0.929 . S
C242 C241 1.399 . S
C242 C243 1.385 . S
C243 H229 0.931 . S
C243 C242 1.385 . S
C243 C244 1.389 . S
C244 C243 1.389 . S
C244 C245 1.387 . S
C245 H230 0.930 . S
C245 C240 1.390 . S
C245 C244 1.387 . S
H246 C258 0.930 . S
H247 C260 0.930 . S
H248 C261 0.930 . S
H249 C265 0.959 . S
H250 C265 0.959 . S
H251 C265 0.961 . S
H252 C266 0.960 . S
H253 C266 0.961 . S
H254 C266 0.959 . S
H255 C269 0.929 . S
H256 C270 0.931 . S
H257 C272 0.930 . S
C258 H246 0.930 . S
C258 C259 1.399 . S
C258 C263 1.399 . S
C259 C258 1.399 . S
C259 C260 1.376 . S
C260 H247 0.930 . S
C260 C259 1.376 . S
C260 C261 1.388 . S
C261 H248 0.930 . S
C261 C260 1.388 . S
C261 C262 1.390 . S
C262 C261 1.390 . S
C262 C263 1.394 . S
C262 C268 1.465 . S
C263 C258 1.399 . S
C263 C262 1.394 . S
C263 C264 1.516 . S
C264 C263 1.516 . S
C264 C265 1.502 . S
C264 C266 1.561 . S
C264 C267 1.526 . S
C265 H249 0.959 . S
C265 H250 0.959 . S
C265 H251 0.961 . S
C265 C264 1.502 . S
C266 H252 0.960 . S
C266 H253 0.961 . S
C266 H254 0.959 . S
C266 C264 1.561 . S
C267 C264 1.526 . S
C267 C268 1.396 . S
C267 C272 1.390 . S
C268 C262 1.465 . S
C268 C267 1.396 . S
C268 C269 1.399 . S
C269 H255 0.929 . S
C269 C268 1.399 . S
C269 C270 1.385 . S
C270 H256 0.931 . S
C270 C269 1.385 . S
C270 C271 1.389 . S
C271 C270 1.389 . S
C271 C272 1.387 . S
C272 H257 0.930 . S
C272 C267 1.390 . S
C272 C271 1.387 . S
H273 C285 0.930 . S
H274 C287 0.930 . S
H275 C288 0.930 . S
H276 C292 0.959 . S
H277 C292 0.959 . S
H278 C292 0.961 . S
H279 C293 0.960 . S
H280 C293 0.961 . S
H281 C293 0.959 . S
H282 C296 0.929 . S
H283 C297 0.931 . S
H284 C299 0.930 . S
C285 H273 0.930 . S
C285 C286 1.399 . S
C285 C290 1.399 . S
C286 C285 1.399 . S
C286 C287 1.376 . S
C287 H274 0.930 . S
C287 C286 1.376 . S
C287 C288 1.388 . S
C288 H275 0.930 . S
C288 C287 1.388 . S
C288 C289 1.390 . S
C289 C288 1.390 . S
C289 C290 1.394 . S
C289 C295 1.465 . S
C290 C285 1.399 . S
C290 C289 1.394 . S
C290 C291 1.516 . S
C291 C290 1.516 . S
C291 C292 1.502 . S
C291 C293 1.561 . S
C291 C294 1.526 . S
C292 H276 0.959 . S
C292 H277 0.959 . S
C292 H278 0.961 . S
C292 C291 1.502 . S
C293 H279 0.960 . S
C293 H280 0.961 . S
C293 H281 0.959 . S
C293 C291 1.561 . S
C294 C291 1.526 . S
C294 C295 1.396 . S
C294 C299 1.390 . S
C295 C289 1.465 . S
C295 C294 1.396 . S
C295 C296 1.399 . S
C296 H282 0.929 . S
C296 C295 1.399 . S
C296 C297 1.385 . S
C297 H283 0.931 . S
C297 C296 1.385 . S
C297 C298 1.389 . S
C298 C297 1.389 . S
C298 C299 1.387 . S
C299 H284 0.930 . S
C299 C294 1.390 . S
C299 C298 1.387 . S
H300 C312 0.930 . S
H301 C314 0.930 . S
H302 C315 0.930 . S
H303 C319 0.959 . S
H304 C319 0.959 . S
H305 C319 0.961 . S
H306 C320 0.960 . S
H307 C320 0.961 . S
H308 C320 0.959 . S
H309 C323 0.929 . S
H310 C324 0.931 . S
H311 C326 0.930 . S
C312 H300 0.930 . S
C312 C313 1.399 . S
C312 C317 1.399 . S
C313 C312 1.399 . S
C313 C314 1.376 . S
C314 H301 0.930 . S
C314 C313 1.376 . S
C314 C315 1.388 . S
C315 H302 0.930 . S
C315 C314 1.388 . S
C315 C316 1.390 . S
C316 C315 1.390 . S
C316 C317 1.394 . S
C316 C322 1.465 . S
C317 C312 1.399 . S
C317 C316 1.394 . S
C317 C318 1.516 . S
C318 C317 1.516 . S
C318 C319 1.502 . S
C318 C320 1.561 . S
C318 C321 1.526 . S
C319 H303 0.959 . S
C319 H304 0.959 . S
C319 H305 0.961 . S
C319 C318 1.502 . S
C320 H306 0.960 . S
C320 H307 0.961 . S
C320 H308 0.959 . S
C320 C318 1.561 . S
C321 C318 1.526 . S
C321 C322 1.396 . S
C321 C326 1.390 . S
C322 C316 1.465 . S
C322 C321 1.396 . S
C322 C323 1.399 . S
C323 H309 0.929 . S
C323 C322 1.399 . S
C323 C324 1.385 . S
C324 H310 0.931 . S
C324 C323 1.385 . S
C324 C325 1.389 . S
C325 C324 1.389 . S
C325 C326 1.387 . S
C326 H311 0.930 . S
C326 C321 1.390 . S
C326 C325 1.387 . S
H327 C339 0.930 . S
H328 C341 0.930 . S
H329 C342 0.930 . S
H330 C346 0.959 . S
H331 C346 0.959 . S
H332 C346 0.961 . S
H333 C347 0.960 . S
H334 C347 0.961 . S
H335 C347 0.959 . S
H336 C350 0.929 . S
H337 C351 0.931 . S
H338 C353 0.930 . S
C339 H327 0.930 . S
C339 C340 1.399 . S
C339 C344 1.399 . S
C340 C339 1.399 . S
C340 C341 1.376 . S
C341 H328 0.930 . S
C341 C340 1.376 . S
C341 C342 1.388 . S
C342 H329 0.930 . S
C342 C341 1.388 . S
C342 C343 1.390 . S
C343 C342 1.390 . S
C343 C344 1.394 . S
C343 C349 1.465 . S
C344 C339 1.399 . S
C344 C343 1.394 . S
C344 C345 1.516 . S
C345 C344 1.516 . S
C345 C346 1.502 . S
C345 C347 1.561 . S
C345 C348 1.526 . S
C346 H330 0.959 . S
C346 H331 0.959 . S
C346 H332 0.961 . S
C346 C345 1.502 . S
C347 H333 0.960 . S
C347 H334 0.961 . S
C347 H335 0.959 . S
C347 C345 1.561 . S
C348 C345 1.526 . S
C348 C349 1.396 . S
C348 C353 1.390 . S
C349 C343 1.465 . S
C349 C348 1.396 . S
C349 C350 1.399 . S
C350 H336 0.929 . S
C350 C349 1.399 . S
C350 C351 1.385 . S
C351 H337 0.931 . S
C351 C350 1.385 . S
C351 C352 1.389 . S
C352 C351 1.389 . S
C352 C353 1.387 . S
C353 H338 0.930 . S
C353 C348 1.390 . S
C353 C352 1.387 . S
H354 C366 0.930 . S
H355 C368 0.930 . S
H356 C369 0.930 . S
H357 C373 0.959 . S
H358 C373 0.959 . S
H359 C373 0.961 . S
H360 C374 0.960 . S
H361 C374 0.961 . S
H362 C374 0.959 . S
H363 C377 0.929 . S
H364 C378 0.931 . S
H365 C380 0.930 . S
C366 H354 0.930 . S
C366 C367 1.399 . S
C366 C371 1.399 . S
C367 C366 1.399 . S
C367 C368 1.376 . S
C368 H355 0.930 . S
C368 C367 1.376 . S
C368 C369 1.388 . S
C369 H356 0.930 . S
C369 C368 1.388 . S
C369 C370 1.390 . S
C370 C369 1.390 . S
C370 C371 1.394 . S
C370 C376 1.465 . S
C371 C366 1.399 . S
C371 C370 1.394 . S
C371 C372 1.516 . S
C372 C371 1.516 . S
C372 C373 1.502 . S
C372 C374 1.561 . S
C372 C375 1.526 . S
C373 H357 0.959 . S
C373 H358 0.959 . S
C373 H359 0.961 . S
C373 C372 1.502 . S
C374 H360 0.960 . S
C374 H361 0.961 . S
C374 H362 0.959 . S
C374 C372 1.561 . S
C375 C372 1.526 . S
C375 C376 1.396 . S
C375 C380 1.390 . S
C376 C370 1.465 . S
C376 C375 1.396 . S
C376 C377 1.399 1_556 S
C377 H363 0.929 . S
C377 C376 1.399 1_554 S
C377 C378 1.385 . S
C378 H364 0.931 . S
C378 C377 1.385 . S
C378 C379 1.389 1_554 S
C379 C378 1.389 1_556 S
C379 C380 1.387 . S
C380 H365 0.930 . S
C380 C375 1.390 . S
C380 C379 1.387 . S
H381 C393 0.930 . S
H382 C395 0.930 . S
H383 C396 0.930 . S
H384 C400 0.959 . S
H385 C400 0.959 . S
H386 C400 0.961 . S
H387 C401 0.960 . S
H388 C401 0.961 . S
H389 C401 0.959 1_554 S
H390 C404 0.929 . S
H391 C405 0.931 . S
H392 C407 0.930 . S
C393 H381 0.930 . S
C393 C394 1.399 1_556 S
C393 C398 1.399 1_556 S
C394 C393 1.399 1_554 S
C394 C395 1.376 . S
C395 H382 0.930 . S
C395 C394 1.376 . S
C395 C396 1.388 . S
C396 H383 0.930 . S
C396 C395 1.388 . S
C396 C397 1.390 . S
C397 C396 1.390 . S
C397 C398 1.394 . S
C397 C403 1.465 . S
C398 C393 1.399 1_554 S
C398 C397 1.394 . S
C398 C399 1.516 . S
C399 C398 1.516 . S
C399 C400 1.502 1_554 S
C399 C401 1.561 1_554 S
C399 C402 1.526 . S
C400 H384 0.959 . S
C400 H385 0.959 . S
C400 H386 0.961 . S
C400 C399 1.502 1_556 S
C401 H387 0.960 . S
C401 H388 0.961 . S
C401 H389 0.959 1_556 S
C401 C399 1.561 1_556 S
C402 C399 1.526 . S
C402 C403 1.396 . S
C402 C407 1.390 . S
C403 C397 1.465 . S
C403 C402 1.396 . S
C403 C404 1.399 . S
C404 H390 0.929 . S
C404 C403 1.399 . S
C404 C405 1.385 . S
C405 H391 0.931 . S
C405 C404 1.385 . S
C405 C406 1.389 . S
C406 C405 1.389 . S
C406 C407 1.387 . S
C407 H392 0.930 . S
C407 C402 1.390 . S
C407 C406 1.387 . S
C97 C8 1.473 1_556 S
C109 C48 1.436 . S
C124 C62 1.465 . S
C136 C22 1.428 . S
C151 C36 1.403 . S
C163 C76 1.483 . S
C178 C50 1.460 . S
C190 C6 1.443 . S
C205 C20 1.486 . S
C217 C64 1.399 . S
C232 C78 1.453 . S
C244 C34 1.452 . S
C259 C7 1.391 . S
C271 C37 1.384 . S
C286 C21 1.380 . S
C298 C51 1.371 . S
C313 C65 1.395 . S
C325 C35 1.391 . S
C340 C79 1.379 . S
C352 C49 1.374 . S
C367 C63 1.383 . S
C379 C9 1.374 1_556 S
C394 C77 1.387 1_554 S
C406 C23 1.379 . S
