# Generated by pormake.
# Topology uks, (4)-cn, num edge types: 1
# Building blocks:
#     Node 0, Type 0, BuildingBlock: KOZSID_clean_sbu_0, # of connection points: 4
#     Node 1, Type 0, BuildingBlock: KOZSID_clean_sbu_0, # of connection points: 4
#     Node 2, Type 0, BuildingBlock: KOZSID_clean_sbu_0, # of connection points: 4
#     Node 3, Type 0, BuildingBlock: KOZSID_clean_sbu_0, # of connection points: 4
#     Node 4, Type 0, BuildingBlock: KOZSID_clean_sbu_0, # of connection points: 4
#     Node 5, Type 0, BuildingBlock: KOZSID_clean_sbu_0, # of connection points: 4
#     Node 6, Type 0, BuildingBlock: KOZSID_clean_sbu_0, # of connection points: 4
#     Node 7, Type 0, BuildingBlock: KOZSID_clean_sbu_0, # of connection points: 4
#     Node 8, Type 0, BuildingBlock: KOZSID_clean_sbu_0, # of connection points: 4
#     Node 9, Type 0, BuildingBlock: KOZSID_clean_sbu_0, # of connection points: 4
#     Node 10, Type 0, BuildingBlock: KOZSID_clean_sbu_0, # of connection points: 4
#     Node 11, Type 0, BuildingBlock: KOZSID_clean_sbu_0, # of connection points: 4
#     Node 12, Type 0, BuildingBlock: KOZSID_clean_sbu_0, # of connection points: 4
#     Node 13, Type 0, BuildingBlock: KOZSID_clean_sbu_0, # of connection points: 4
#     Node 14, Type 0, BuildingBlock: KOZSID_clean_sbu_0, # of connection points: 4
#     Node 15, Type 0, BuildingBlock: KOZSID_clean_sbu_0, # of connection points: 4
#     Node 16, Type 0, BuildingBlock: KOZSID_clean_sbu_0, # of connection points: 4
#     Node 17, Type 0, BuildingBlock: KOZSID_clean_sbu_0, # of connection points: 4
#     Node 18, Type 0, BuildingBlock: KOZSID_clean_sbu_0, # of connection points: 4
#     Node 19, Type 0, BuildingBlock: KOZSID_clean_sbu_0, # of connection points: 4
#     Node 20, Type 0, BuildingBlock: KOZSID_clean_sbu_0, # of connection points: 4
#     Node 21, Type 0, BuildingBlock: KOZSID_clean_sbu_0, # of connection points: 4
#     Node 22, Type 0, BuildingBlock: KOZSID_clean_sbu_0, # of connection points: 4
#     Node 23, Type 0, BuildingBlock: KOZSID_clean_sbu_0, # of connection points: 4
#     Edge 24, Type (0, 0), BuildingBlock: EZIPEK_clean_linker_0, # of connection points: 2
#     Edge 25, Type (0, 0), BuildingBlock: EZIPEK_clean_linker_0, # of connection points: 2
#     Edge 26, Type (0, 0), BuildingBlock: EZIPEK_clean_linker_0, # of connection points: 2
#     Edge 27, Type (0, 0), BuildingBlock: EZIPEK_clean_linker_0, # of connection points: 2
#     Edge 28, Type (0, 0), BuildingBlock: EZIPEK_clean_linker_0, # of connection points: 2
#     Edge 29, Type (0, 0), BuildingBlock: EZIPEK_clean_linker_0, # of connection points: 2
#     Edge 30, Type (0, 0), BuildingBlock: EZIPEK_clean_linker_0, # of connection points: 2
#     Edge 31, Type (0, 0), BuildingBlock: EZIPEK_clean_linker_0, # of connection points: 2
#     Edge 32, Type (0, 0), BuildingBlock: EZIPEK_clean_linker_0, # of connection points: 2
#     Edge 33, Type (0, 0), BuildingBlock: EZIPEK_clean_linker_0, # of connection points: 2
#     Edge 34, Type (0, 0), BuildingBlock: EZIPEK_clean_linker_0, # of connection points: 2
#     Edge 35, Type (0, 0), BuildingBlock: EZIPEK_clean_linker_0, # of connection points: 2
#     Edge 36, Type (0, 0), BuildingBlock: EZIPEK_clean_linker_0, # of connection points: 2
#     Edge 37, Type (0, 0), BuildingBlock: EZIPEK_clean_linker_0, # of connection points: 2
#     Edge 38, Type (0, 0), BuildingBlock: EZIPEK_clean_linker_0, # of connection points: 2
#     Edge 39, Type (0, 0), BuildingBlock: EZIPEK_clean_linker_0, # of connection points: 2
#     Edge 40, Type (0, 0), BuildingBlock: EZIPEK_clean_linker_0, # of connection points: 2
#     Edge 41, Type (0, 0), BuildingBlock: EZIPEK_clean_linker_0, # of connection points: 2
#     Edge 42, Type (0, 0), BuildingBlock: EZIPEK_clean_linker_0, # of connection points: 2
#     Edge 43, Type (0, 0), BuildingBlock: EZIPEK_clean_linker_0, # of connection points: 2
#     Edge 44, Type (0, 0), BuildingBlock: EZIPEK_clean_linker_0, # of connection points: 2
#     Edge 45, Type (0, 0), BuildingBlock: EZIPEK_clean_linker_0, # of connection points: 2
#     Edge 46, Type (0, 0), BuildingBlock: EZIPEK_clean_linker_0, # of connection points: 2
#     Edge 47, Type (0, 0), BuildingBlock: EZIPEK_clean_linker_0, # of connection points: 2
#     Edge 48, Type (0, 0), BuildingBlock: EZIPEK_clean_linker_0, # of connection points: 2
#     Edge 49, Type (0, 0), BuildingBlock: EZIPEK_clean_linker_0, # of connection points: 2
#     Edge 50, Type (0, 0), BuildingBlock: EZIPEK_clean_linker_0, # of connection points: 2
#     Edge 51, Type (0, 0), BuildingBlock: EZIPEK_clean_linker_0, # of connection points: 2
#     Edge 52, Type (0, 0), BuildingBlock: EZIPEK_clean_linker_0, # of connection points: 2
#     Edge 53, Type (0, 0), BuildingBlock: EZIPEK_clean_linker_0, # of connection points: 2
#     Edge 54, Type (0, 0), BuildingBlock: EZIPEK_clean_linker_0, # of connection points: 2
#     Edge 55, Type (0, 0), BuildingBlock: EZIPEK_clean_linker_0, # of connection points: 2
#     Edge 56, Type (0, 0), BuildingBlock: EZIPEK_clean_linker_0, # of connection points: 2
#     Edge 57, Type (0, 0), BuildingBlock: EZIPEK_clean_linker_0, # of connection points: 2
#     Edge 58, Type (0, 0), BuildingBlock: EZIPEK_clean_linker_0, # of connection points: 2
#     Edge 59, Type (0, 0), BuildingBlock: EZIPEK_clean_linker_0, # of connection points: 2
#     Edge 60, Type (0, 0), BuildingBlock: EZIPEK_clean_linker_0, # of connection points: 2
#     Edge 61, Type (0, 0), BuildingBlock: EZIPEK_clean_linker_0, # of connection points: 2
#     Edge 62, Type (0, 0), BuildingBlock: EZIPEK_clean_linker_0, # of connection points: 2
#     Edge 63, Type (0, 0), BuildingBlock: EZIPEK_clean_linker_0, # of connection points: 2
#     Edge 64, Type (0, 0), BuildingBlock: EZIPEK_clean_linker_0, # of connection points: 2
#     Edge 65, Type (0, 0), BuildingBlock: EZIPEK_clean_linker_0, # of connection points: 2
#     Edge 66, Type (0, 0), BuildingBlock: EZIPEK_clean_linker_0, # of connection points: 2
#     Edge 67, Type (0, 0), BuildingBlock: EZIPEK_clean_linker_0, # of connection points: 2
#     Edge 68, Type (0, 0), BuildingBlock: EZIPEK_clean_linker_0, # of connection points: 2
#     Edge 69, Type (0, 0), BuildingBlock: EZIPEK_clean_linker_0, # of connection points: 2
#     Edge 70, Type (0, 0), BuildingBlock: EZIPEK_clean_linker_0, # of connection points: 2
#     Edge 71, Type (0, 0), BuildingBlock: EZIPEK_clean_linker_0, # of connection points: 2
# Relax obj value: 0.069
# Max RMSD: 0.079
# Mean RMSD: 0.061
data_MOF--net-uks--node1-KOZSID_clean_sbu_0--edge1-EZIPEK_clean_linker_0
_symmetry_space_group_name_H-M    P1
_symmetry_Int_Tables_number       1
_symmetry_cell_setting            triclinic
loop_
_symmetry_equiv_pos_as_xyz
'x, y, z'
_cell_length_a     46.978631
_cell_length_b     57.7322
_cell_length_c     49.620879
_cell_angle_alpha  88.929049
_cell_angle_beta   91.248752
_cell_angle_gamma 90.13217
loop_
_atom_site_label
_atom_site_type_symbol
_atom_site_fract_x
_atom_site_fract_y
_atom_site_fract_z
_atom_type_partial_charge
C0 C 0.06231 0.38518 0.70818 0.0
C1 C 0.04187 0.3863 0.72793 0.0
C2 C 0.05357 0.39861 0.74873 0.0
C3 C 0.08087 0.4036 0.74125 0.0
N4 N 0.08724 0.3949 0.71712 0.0
Co5 Co 0.12637 0.3927 0.70242 0.0
N6 N 0.14521 0.40089 0.73749 0.0
C7 C 0.13206 0.41052 0.75834 0.0
C8 C 0.15002 0.41449 0.77996 0.0
C9 C 0.17625 0.40715 0.7722 0.0
C10 C 0.17289 0.39912 0.74614 0.0
N11 N 0.1655 0.38995 0.68779 0.0
C12 C 0.19151 0.38885 0.70055 0.0
C13 C 0.21312 0.3877 0.68201 0.0
C14 C 0.2003 0.38843 0.65691 0.0
C15 C 0.17165 0.38994 0.66144 0.0
N16 N 0.10756 0.38508 0.66726 0.0
C17 C 0.12021 0.38702 0.64323 0.0
C18 C 0.10171 0.38418 0.62179 0.0
C19 C 0.07568 0.3803 0.63295 0.0
C20 C 0.07976 0.38053 0.66077 0.0
N21 N 0.12557 0.42579 0.69164 0.0
C22 C 0.12783 0.47149 0.67102 0.0
C23 C 0.10291 0.45823 0.66835 0.0
C24 C 0.10213 0.43551 0.67903 0.0
C25 C 0.15115 0.46169 0.68494 0.0
C26 C 0.14955 0.43898 0.69506 0.0
N27 N 0.12733 0.3598 0.71295 0.0
C28 C 0.13594 0.31986 0.7023 0.0
C29 C 0.12863 0.3129 0.72844 0.0
C30 C 0.12067 0.32976 0.74661 0.0
C31 C 0.12015 0.35304 0.7385 0.0
C32 C 0.1352 0.34343 0.69497 0.0
H33 H 0.11389 0.36551 0.75302 0.0
H34 H 0.14101 0.34842 0.67478 0.0
H35 H 0.08276 0.42566 0.67651 0.0
H36 H 0.16808 0.4319 0.70507 0.0
C37 C 0.10237 0.41154 0.7587 0.0
C38 C 0.05648 0.37721 0.68023 0.0
C39 C 0.19686 0.39162 0.72972 0.0
C40 C 0.14981 0.38947 0.64181 0.0
H41 H 0.02061 0.37913 0.72752 0.0
H42 H 0.04387 0.40218 0.7678 0.0
H43 H 0.14451 0.42108 0.79944 0.0
H44 H 0.19566 0.40775 0.78433 0.0
H45 H 0.23581 0.3871 0.6862 0.0
H46 H 0.21066 0.38777 0.63767 0.0
H47 H 0.10658 0.38467 0.60057 0.0
H48 H 0.05593 0.37781 0.62175 0.0
H49 H 0.08434 0.4653 0.65785 0.0
H50 H 0.17073 0.47142 0.68757 0.0
H51 H 0.14217 0.3072 0.68773 0.0
H52 H 0.11487 0.32494 0.76697 0.0
C53 C 0.57614 0.61638 0.16894 0.0
C54 C 0.57268 0.62455 0.14259 0.0
C55 C 0.59924 0.62978 0.13363 0.0
C56 C 0.61731 0.62444 0.15489 0.0
N57 N 0.60387 0.61605 0.17684 0.0
Co58 Co 0.62198 0.60499 0.21158 0.0
N59 N 0.66026 0.61527 0.19972 0.0
C60 C 0.66604 0.62819 0.17755 0.0
C61 C 0.6925 0.63815 0.17839 0.0
C62 C 0.7044 0.63077 0.20237 0.0
C63 C 0.68485 0.61582 0.21427 0.0
N64 N 0.64055 0.59211 0.24528 0.0
C65 C 0.66845 0.5871 0.24966 0.0
C66 C 0.67214 0.57106 0.27066 0.0
C67 C 0.6459 0.56718 0.28113 0.0
C68 C 0.62759 0.5802 0.26526 0.0
N69 N 0.58321 0.5963 0.2244 0.0
C70 C 0.57668 0.58721 0.24879 0.0
C71 C 0.548 0.58475 0.25258 0.0
C72 C 0.53543 0.59321 0.22938 0.0
C73 C 0.55732 0.60021 0.21276 0.0
N74 N 0.62725 0.57391 0.19531 0.0
C75 C 0.64053 0.5293 0.17631 0.0
C76 C 0.62296 0.53205 0.19837 0.0
C77 C 0.61633 0.55426 0.20723 0.0
C78 C 0.65033 0.54934 0.16315 0.0
C79 C 0.64363 0.5713 0.17298 0.0
N80 N 0.6174 0.63625 0.22795 0.0
C81 C 0.614 0.66088 0.26701 0.0
C82 C 0.61692 0.68098 0.25096 0.0
C83 C 0.619 0.6782 0.22319 0.0
C84 C 0.61881 0.65603 0.21222 0.0
C85 C 0.61444 0.63883 0.25521 0.0
H86 H 0.62022 0.65545 0.19085 0.0
H87 H 0.61269 0.62407 0.26848 0.0
H88 H 0.60279 0.55506 0.22415 0.0
H89 H 0.65238 0.58595 0.16254 0.0
C90 C 0.64599 0.63077 0.15654 0.0
C91 C 0.55244 0.61119 0.18646 0.0
C92 C 0.69183 0.59939 0.23642 0.0
C93 C 0.59799 0.5795 0.26672 0.0
H94 H 0.55291 0.62729 0.13138 0.0
H95 H 0.60456 0.63769 0.11444 0.0
H96 H 0.70199 0.64946 0.16342 0.0
H97 H 0.72554 0.63523 0.20963 0.0
H98 H 0.69179 0.56334 0.27814 0.0
H99 H 0.64067 0.55555 0.29766 0.0
H100 H 0.5375 0.57752 0.27004 0.0
H101 H 0.51276 0.59422 0.22516 0.0
H102 H 0.6146 0.51703 0.20898 0.0
H103 H 0.66375 0.54803 0.14577 0.0
H104 H 0.61191 0.66218 0.28862 0.0
H105 H 0.62091 0.69319 0.20989 0.0
C106 C 0.44719 0.14733 0.70092 0.0
C107 C 0.47052 0.14227 0.71755 0.0
C108 C 0.46017 0.13212 0.74046 0.0
C109 C 0.43117 0.13152 0.7366 0.0
N110 N 0.42236 0.14021 0.71234 0.0
Co111 Co 0.38163 0.14462 0.69982 0.0
N112 N 0.36617 0.13422 0.73556 0.0
C113 C 0.38166 0.12574 0.7568 0.0
C114 C 0.36564 0.12052 0.77889 0.0
C115 C 0.33829 0.12605 0.77137 0.0
C116 C 0.33908 0.13433 0.74497 0.0
N117 N 0.34104 0.14992 0.68748 0.0
C118 C 0.31624 0.14864 0.70123 0.0
C119 C 0.29299 0.1543 0.6847 0.0
C120 C 0.30338 0.15958 0.65983 0.0
C121 C 0.3323 0.15685 0.66248 0.0
N122 N 0.39719 0.15506 0.66411 0.0
C123 C 0.38168 0.16038 0.64159 0.0
C124 C 0.39779 0.16826 0.62058 0.0
C125 C 0.4252 0.16837 0.63036 0.0
C126 C 0.42433 0.16051 0.6569 0.0
N127 N 0.37929 0.1117 0.6873 0.0
C128 C 0.36782 0.06487 0.67446 0.0
C129 C 0.35854 0.08295 0.65744 0.0
C130 C 0.36464 0.106 0.66406 0.0
C131 C 0.38434 0.07045 0.69709 0.0
C132 C 0.39001 0.09371 0.70292 0.0
N133 N 0.38344 0.17683 0.7125 0.0
C134 C 0.37483 0.21773 0.70532 0.0
C135 C 0.38418 0.2222 0.73159 0.0
C136 C 0.39353 0.20382 0.74803 0.0
C137 C 0.39314 0.18142 0.73809 0.0
C138 C 0.37455 0.19497 0.69623 0.0
H139 H 0.40062 0.16804 0.7515 0.0
H140 H 0.36693 0.19235 0.67608 0.0
H141 H 0.35673 0.11884 0.65026 0.0
H142 H 0.40267 0.09654 0.7205 0.0
C143 C 0.41148 0.12505 0.75622 0.0
C144 C 0.44974 0.15944 0.67472 0.0
C145 C 0.3135 0.14222 0.72984 0.0
C146 C 0.35192 0.16121 0.64215 0.0
H147 H 0.49266 0.14607 0.71375 0.0
H148 H 0.47228 0.12671 0.75828 0.0
H149 H 0.37307 0.11411 0.79843 0.0
H150 H 0.31989 0.12446 0.78402 0.0
H151 H 0.27081 0.15469 0.69011 0.0
H152 H 0.29132 0.16504 0.642 0.0
H153 H 0.39032 0.17443 0.60095 0.0
H154 H 0.44363 0.1743 0.61947 0.0
H155 H 0.34605 0.07932 0.63938 0.0
H156 H 0.39242 0.0569 0.71056 0.0
H157 H 0.36754 0.2317 0.69204 0.0
H158 H 0.40104 0.20677 0.76848 0.0
C159 C 0.88345 0.868 0.15221 0.0
C160 C 0.87479 0.85948 0.12742 0.0
C161 C 0.84576 0.86079 0.12647 0.0
C162 C 0.83849 0.86983 0.15075 0.0
N163 N 0.86112 0.87494 0.16685 0.0
Co164 Co 0.86046 0.88507 0.20526 0.0
N165 N 0.81813 0.8831 0.2056 0.0
C166 C 0.80032 0.87968 0.18427 0.0
C167 C 0.77211 0.88119 0.19043 0.0
C168 C 0.77201 0.88568 0.21734 0.0
C169 C 0.80022 0.88634 0.22608 0.0
N170 N 0.8601 0.89373 0.24415 0.0
C171 C 0.83832 0.89356 0.26154 0.0
C172 C 0.84731 0.89902 0.28745 0.0
C173 C 0.876 0.90275 0.2864 0.0
C174 C 0.88277 0.89918 0.26004 0.0
N175 N 0.90276 0.88823 0.20437 0.0
C176 C 0.92013 0.89695 0.22373 0.0
C177 C 0.94835 0.89671 0.21721 0.0
C178 C 0.949 0.8869 0.19239 0.0
C179 C 0.92102 0.88165 0.18529 0.0
N180 N 0.85649 0.91884 0.19372 0.0
C181 C 0.84553 0.96653 0.1804 0.0
C182 C 0.8621 0.96005 0.20307 0.0
C183 C 0.86723 0.93646 0.2093 0.0
C184 C 0.83543 0.94869 0.16403 0.0
C185 C 0.84131 0.92534 0.17079 0.0
N186 N 0.86392 0.85162 0.21696 0.0
C187 C 0.88939 0.82045 0.24083 0.0
C188 C 0.86849 0.80407 0.23378 0.0
C189 C 0.8453 0.81218 0.218 0.0
C190 C 0.84368 0.83561 0.20952 0.0
C191 C 0.88647 0.84392 0.23277 0.0
H192 H 0.82576 0.84047 0.19696 0.0
H193 H 0.90277 0.85561 0.2395 0.0
H194 H 0.87977 0.93303 0.22703 0.0
H195 H 0.83304 0.91292 0.15712 0.0
C196 C 0.81073 0.87286 0.15951 0.0
C197 C 0.91301 0.86852 0.16152 0.0
C198 C 0.80896 0.88823 0.25427 0.0
C199 C 0.90998 0.90108 0.24944 0.0
H200 H 0.88809 0.85266 0.11191 0.0
H201 H 0.83161 0.85516 0.11037 0.0
H202 H 0.75381 0.87874 0.17714 0.0
H203 H 0.75338 0.88798 0.22929 0.0
H204 H 0.83441 0.90019 0.30518 0.0
H205 H 0.89023 0.90736 0.30289 0.0
H206 H 0.96644 0.90166 0.22972 0.0
H207 H 0.96797 0.88305 0.18133 0.0
H208 H 0.87083 0.97319 0.2162 0.0
H209 H 0.82287 0.95276 0.146 0.0
H210 H 0.90782 0.81521 0.25292 0.0
H211 H 0.82846 0.80038 0.21201 0.0
C212 C 0.0665 0.14468 0.80485 0.0
C213 C 0.0437 0.13616 0.78981 0.0
C214 C 0.05491 0.12213 0.77072 0.0
C215 C 0.08388 0.12281 0.77512 0.0
N216 N 0.09163 0.13645 0.79571 0.0
Co217 Co 0.13158 0.14196 0.80848 0.0
N218 N 0.14806 0.13029 0.77458 0.0
C219 C 0.13387 0.11764 0.75612 0.0
C220 C 0.15024 0.11207 0.73461 0.0
C221 C 0.1765 0.12155 0.73996 0.0
C222 C 0.17482 0.13231 0.76465 0.0
N223 N 0.1715 0.14751 0.82134 0.0
C224 C 0.19648 0.14774 0.80782 0.0
C225 C 0.21937 0.15146 0.82536 0.0
C226 C 0.20841 0.15344 0.85062 0.0
C227 C 0.17951 0.1508 0.84721 0.0
N228 N 0.11497 0.15361 0.84229 0.0
C229 C 0.12933 0.15616 0.8658 0.0
C230 C 0.11262 0.16452 0.88581 0.0
C231 C 0.08603 0.1673 0.8742 0.0
C232 C 0.08794 0.16044 0.84767 0.0
N233 N 0.13324 0.11028 0.82433 0.0
C234 C 0.13689 0.06513 0.84685 0.0
C235 C 0.11259 0.07878 0.85026 0.0
C236 C 0.11116 0.10125 0.83879 0.0
C237 C 0.15924 0.07459 0.83208 0.0
C238 C 0.15702 0.09703 0.82109 0.0
N239 N 0.13018 0.17333 0.79274 0.0
C240 C 0.13943 0.21424 0.79636 0.0
C241 C 0.12934 0.21809 0.76992 0.0
C242 C 0.11958 0.19915 0.75513 0.0
C243 C 0.12006 0.17695 0.76694 0.0
C244 C 0.13973 0.19176 0.80736 0.0
H245 H 0.11234 0.1627 0.75512 0.0
H246 H 0.14779 0.18929 0.82769 0.0
H247 H 0.09221 0.11132 0.84164 0.0
H248 H 0.1747 0.10364 0.80998 0.0
C249 C 0.10442 0.11419 0.75791 0.0
C250 C 0.06324 0.15907 0.82885 0.0
C251 C 0.19972 0.14223 0.7791 0.0
C252 C 0.15906 0.15406 0.86695 0.0
H253 H 0.02131 0.13962 0.79248 0.0
H254 H 0.04336 0.11319 0.75491 0.0
H255 H 0.14369 0.10275 0.71678 0.0
H256 H 0.1949 0.12033 0.72733 0.0
H257 H 0.24169 0.15222 0.82048 0.0
H258 H 0.22011 0.15684 0.86916 0.0
H259 H 0.11919 0.16886 0.90614 0.0
H260 H 0.06733 0.1735 0.88416 0.0
H261 H 0.09484 0.07209 0.86161 0.0
H262 H 0.17839 0.06464 0.82901 0.0
H263 H 0.14712 0.22853 0.80836 0.0
H264 H 0.1116 0.20154 0.73463 0.0
C265 C 0.89994 0.64248 0.35627 0.0
C266 C 0.8957 0.65024 0.38214 0.0
C267 C 0.86697 0.65004 0.38579 0.0
C268 C 0.85539 0.64224 0.362 0.0
N269 N 0.87508 0.63715 0.34354 0.0
Co270 Co 0.86796 0.62604 0.30602 0.0
N271 N 0.82624 0.63062 0.30926 0.0
C272 C 0.81242 0.63976 0.33013 0.0
C273 C 0.78487 0.64585 0.32383 0.0
C274 C 0.78084 0.63961 0.29759 0.0
C275 C 0.80596 0.62922 0.28975 0.0
N276 N 0.86057 0.61394 0.26891 0.0
C277 C 0.83558 0.60636 0.25799 0.0
C278 C 0.84004 0.59259 0.23584 0.0
C279 C 0.86863 0.59268 0.23165 0.0
C280 C 0.88014 0.60565 0.25201 0.0
N281 N 0.91008 0.62258 0.30237 0.0
C282 C 0.92405 0.6149 0.28077 0.0
C283 C 0.95311 0.61603 0.28355 0.0
C284 C 0.95799 0.62559 0.30816 0.0
C285 C 0.93148 0.62969 0.31891 0.0
N286 N 0.86453 0.59306 0.32036 0.0
C287 C 0.85554 0.54565 0.33605 0.0
C288 C 0.87633 0.55199 0.31755 0.0
C289 C 0.88056 0.57545 0.31023 0.0
C290 C 0.83991 0.56362 0.34721 0.0
C291 C 0.84471 0.58693 0.33923 0.0
N292 N 0.87084 0.65891 0.29154 0.0
C293 C 0.88773 0.68773 0.2589 0.0
C294 C 0.87283 0.70573 0.27114 0.0
C295 C 0.85724 0.69956 0.29392 0.0
C296 C 0.85724 0.67667 0.30404 0.0
C297 C 0.88596 0.66462 0.26894 0.0
H298 H 0.84615 0.67386 0.32228 0.0
H299 H 0.89702 0.65157 0.25822 0.0
H300 H 0.89673 0.57878 0.29595 0.0
H301 H 0.83167 0.59967 0.34822 0.0
C302 C 0.82654 0.64373 0.3547 0.0
C303 C 0.92766 0.64202 0.34384 0.0
C304 C 0.80748 0.613 0.26745 0.0
C305 C 0.90919 0.60715 0.25806 0.0
H306 H 0.91165 0.65624 0.39646 0.0
H307 H 0.85579 0.65627 0.40306 0.0
H308 H 0.76955 0.65382 0.33672 0.0
H309 H 0.76101 0.641 0.28617 0.0
H310 H 0.82443 0.58326 0.22395 0.0
H311 H 0.87984 0.58325 0.21651 0.0
H312 H 0.96883 0.61108 0.26912 0.0
H313 H 0.97865 0.62975 0.3169 0.0
H314 H 0.88916 0.53879 0.30848 0.0
H315 H 0.82364 0.55966 0.36174 0.0
H316 H 0.9004 0.69141 0.24135 0.0
H317 H 0.84541 0.7126 0.30438 0.0
C318 C 0.44727 0.39017 0.80951 0.0
C319 C 0.47 0.39688 0.79379 0.0
C320 C 0.45869 0.40744 0.77113 0.0
C321 C 0.42976 0.40674 0.77426 0.0
N322 N 0.4219 0.39678 0.79784 0.0
Co323 Co 0.38172 0.39112 0.80958 0.0
N324 N 0.365 0.4017 0.77377 0.0
C325 C 0.37969 0.41033 0.75269 0.0
C326 C 0.36293 0.41512 0.73031 0.0
C327 C 0.33595 0.40901 0.73741 0.0
C328 C 0.3377 0.40087 0.76387 0.0
N329 N 0.34163 0.38516 0.82134 0.0
C330 C 0.3164 0.38624 0.80729 0.0
C331 C 0.29369 0.38045 0.82352 0.0
C332 C 0.3049 0.37528 0.84853 0.0
C333 C 0.33372 0.37825 0.84626 0.0
N334 N 0.39861 0.37987 0.84509 0.0
C335 C 0.38386 0.37324 0.86705 0.0
C336 C 0.40058 0.3639 0.88743 0.0
C337 C 0.42758 0.36414 0.87782 0.0
C338 C 0.42596 0.37388 0.85205 0.0
N339 N 0.37913 0.42373 0.82309 0.0
C340 C 0.36756 0.46987 0.83842 0.0
C341 C 0.36196 0.45113 0.85571 0.0
C342 C 0.36807 0.42844 0.84782 0.0
C343 C 0.3804 0.4653 0.81404 0.0
C344 C 0.38615 0.4424 0.80697 0.0
N345 N 0.38375 0.35923 0.796 0.0
C346 C 0.37412 0.3183 0.80115 0.0
C347 C 0.38441 0.31433 0.7755 0.0
C348 C 0.39479 0.33297 0.76042 0.0
C349 C 0.39442 0.35514 0.77105 0.0
C350 C 0.37391 0.34081 0.81096 0.0
H351 H 0.40268 0.36876 0.7587 0.0
H352 H 0.36553 0.34302 0.83057 0.0
H353 H 0.36316 0.41507 0.86196 0.0
H354 H 0.39582 0.44041 0.78807 0.0
C355 C 0.40944 0.41236 0.75407 0.0
C356 C 0.45089 0.37652 0.83471 0.0
C357 C 0.31279 0.39246 0.77861 0.0
C358 C 0.35406 0.37291 0.86641 0.0
H359 H 0.4924 0.39373 0.79787 0.0
H360 H 0.47016 0.41381 0.75381 0.0
H361 H 0.36964 0.42175 0.71091 0.0
H362 H 0.31714 0.41018 0.72448 0.0
H363 H 0.27136 0.37974 0.81776 0.0
H364 H 0.29345 0.36946 0.86612 0.0
H365 H 0.39373 0.35655 0.90645 0.0
H366 H 0.44618 0.35723 0.88835 0.0
H367 H 0.3524 0.45395 0.87504 0.0
H368 H 0.38554 0.47936 0.80021 0.0
H369 H 0.36604 0.30412 0.81341 0.0
H370 H 0.40308 0.33041 0.74049 0.0
C371 C 0.58414 0.85352 0.35301 0.0
C372 C 0.57577 0.84402 0.37755 0.0
C373 C 0.59902 0.83286 0.38863 0.0
C374 C 0.62019 0.83604 0.37032 0.0
N375 N 0.61186 0.84879 0.34854 0.0
Co376 Co 0.63528 0.85592 0.31654 0.0
N377 N 0.67095 0.84731 0.33638 0.0
C378 C 0.67306 0.835 0.35962 0.0
C379 C 0.70068 0.83253 0.36888 0.0
C380 C 0.71694 0.84392 0.35019 0.0
C381 C 0.69821 0.85258 0.33052 0.0
N382 N 0.65843 0.86284 0.28447 0.0
C383 C 0.68682 0.86575 0.28271 0.0
C384 C 0.69466 0.86897 0.25611 0.0
C385 C 0.67019 0.86822 0.2407 0.0
C386 C 0.64889 0.86443 0.25871 0.0
N387 N 0.59968 0.86468 0.29653 0.0
C388 C 0.59651 0.86757 0.26961 0.0
C389 C 0.56989 0.87511 0.26175 0.0
C390 C 0.55519 0.87677 0.28511 0.0
C391 C 0.57367 0.86979 0.30592 0.0
N392 N 0.64003 0.8883 0.32852 0.0
C393 C 0.65011 0.93418 0.34563 0.0
C394 C 0.64376 0.92943 0.3185 0.0
C395 C 0.6386 0.90651 0.31042 0.0
C396 C 0.65068 0.91545 0.36403 0.0
C397 C 0.64587 0.89279 0.3551 0.0
N398 N 0.63104 0.82336 0.30477 0.0
C399 C 0.60295 0.78828 0.3008 0.0
C400 C 0.62545 0.7767 0.28878 0.0
C401 C 0.65092 0.78898 0.28518 0.0
C402 C 0.65341 0.81202 0.29362 0.0
C403 C 0.6061 0.8115 0.30834 0.0
H404 H 0.67363 0.82054 0.29123 0.0
H405 H 0.58841 0.81968 0.31749 0.0
H406 H 0.63383 0.90352 0.28942 0.0
H407 H 0.64729 0.87885 0.36979 0.0
C408 C 0.6487 0.82959 0.37417 0.0
C409 C 0.56437 0.8645 0.33332 0.0
C410 C 0.70698 0.864 0.30549 0.0
C411 C 0.61983 0.86619 0.25281 0.0
H412 H 0.55488 0.84458 0.38627 0.0
H413 H 0.60038 0.82375 0.40787 0.0
H414 H 0.70805 0.82423 0.38747 0.0
H415 H 0.73991 0.84544 0.35076 0.0
H416 H 0.71584 0.87126 0.24862 0.0
H417 H 0.66813 0.87088 0.21909 0.0
H418 H 0.56225 0.87936 0.24152 0.0
H419 H 0.53304 0.88161 0.28656 0.0
H420 H 0.64296 0.94336 0.30358 0.0
H421 H 0.6554 0.91829 0.38518 0.0
H422 H 0.58294 0.77946 0.30422 0.0
H423 H 0.66897 0.78071 0.27617 0.0
C424 C 0.65528 0.12276 0.42195 0.0
C425 C 0.62614 0.12645 0.42032 0.0
C426 C 0.61794 0.12247 0.39405 0.0
C427 C 0.64249 0.11659 0.38125 0.0
N428 N 0.66549 0.11671 0.39787 0.0
Co429 Co 0.70501 0.10924 0.38825 0.0
N430 N 0.69642 0.11505 0.34965 0.0
C431 C 0.67039 0.11539 0.33775 0.0
C432 C 0.67136 0.11932 0.31041 0.0
C433 C 0.69976 0.1214 0.30487 0.0
C434 C 0.71456 0.11863 0.32928 0.0
N435 N 0.74447 0.10133 0.37885 0.0
C436 C 0.75882 0.10697 0.35642 0.0
C437 C 0.78674 0.09914 0.35835 0.0
C438 C 0.78957 0.08773 0.38275 0.0
C439 C 0.76342 0.08942 0.39439 0.0
N440 N 0.71342 0.10348 0.427 0.0
C441 C 0.73538 0.09123 0.43768 0.0
C442 C 0.73592 0.09105 0.46536 0.0
C443 C 0.71284 0.10392 0.47244 0.0
C444 C 0.69935 0.11108 0.44855 0.0
N445 N 0.69392 0.07634 0.38386 0.0
C446 C 0.67743 0.02993 0.37497 0.0
C447 C 0.66836 0.04176 0.39775 0.0
C448 C 0.67686 0.06493 0.40184 0.0
C449 C 0.695 0.04179 0.35699 0.0
C450 C 0.70289 0.06478 0.36175 0.0
N451 N 0.71632 0.14223 0.39181 0.0
C452 C 0.75271 0.17104 0.40087 0.0
C453 C 0.73502 0.1891 0.39116 0.0
C454 C 0.70734 0.18298 0.38249 0.0
C455 C 0.69879 0.15958 0.3822 0.0
C456 C 0.74274 0.14804 0.40181 0.0
H457 H 0.67797 0.15557 0.37396 0.0
H458 H 0.75683 0.13486 0.41002 0.0
H459 H 0.66951 0.07365 0.41945 0.0
H460 H 0.71614 0.07328 0.34726 0.0
C461 C 0.64581 0.11528 0.35331 0.0
C462 C 0.6726 0.12405 0.4467 0.0
C463 C 0.74568 0.11736 0.33208 0.0
C464 C 0.75775 0.08441 0.42146 0.0
H465 H 0.61237 0.1315 0.43639 0.0
H466 H 0.59687 0.12467 0.38513 0.0
H467 H 0.65358 0.1211 0.29629 0.0
H468 H 0.70855 0.12427 0.2851 0.0
H469 H 0.80316 0.10113 0.34353 0.0
H470 H 0.80876 0.08008 0.39144 0.0
H471 H 0.752 0.08354 0.4788 0.0
H472 H 0.70682 0.10764 0.49282 0.0
H473 H 0.65485 0.03315 0.41225 0.0
H474 H 0.70256 0.03332 0.33922 0.0
H475 H 0.77425 0.17467 0.40782 0.0
H476 H 0.69261 0.19617 0.37514 0.0
C477 C 0.94353 0.20585 0.88168 0.0
C478 C 0.96525 0.21262 0.8992 0.0
C479 C 0.95268 0.22433 0.91959 0.0
C480 C 0.92403 0.2241 0.91345 0.0
N481 N 0.91771 0.21313 0.89039 0.0
Co482 Co 0.87849 0.20885 0.87492 0.0
N483 N 0.86158 0.23274 0.89859 0.0
C484 C 0.87432 0.24115 0.92095 0.0
C485 C 0.858 0.25715 0.93366 0.0
C486 C 0.83324 0.25878 0.91859 0.0
C487 C 0.83574 0.24359 0.89745 0.0
N488 N 0.83928 0.20488 0.85912 0.0
C489 C 0.81531 0.21811 0.86101 0.0
C490 C 0.79264 0.20821 0.84699 0.0
C491 C 0.80256 0.18813 0.83627 0.0
C492 C 0.83069 0.18679 0.84425 0.0
N493 N 0.89519 0.18458 0.85177 0.0
C494 C 0.88003 0.16849 0.83835 0.0
C495 C 0.89679 0.15363 0.82437 0.0
C496 C 0.92427 0.16062 0.8295 0.0
C497 C 0.9228 0.17944 0.84639 0.0
N498 N 0.87069 0.18509 0.90224 0.0
C499 C 0.8603 0.15319 0.94356 0.0
C500 C 0.83966 0.16944 0.93576 0.0
C501 C 0.8452 0.18511 0.91495 0.0
C502 C 0.88573 0.15232 0.92956 0.0
C503 C 0.89062 0.16865 0.90908 0.0
N504 N 0.88612 0.23246 0.84771 0.0
C505 C 0.88375 0.24477 0.8014 0.0
C506 C 0.88746 0.26771 0.80916 0.0
C507 C 0.89284 0.27259 0.83623 0.0
C508 C 0.89316 0.25447 0.85513 0.0
C509 C 0.88224 0.22748 0.82109 0.0
H510 H 0.89765 0.25852 0.87587 0.0
H511 H 0.87645 0.21039 0.81473 0.0
H512 H 0.82906 0.19755 0.90958 0.0
H513 H 0.91068 0.16826 0.89917 0.0
C514 C 0.90295 0.23614 0.92696 0.0
C515 C 0.94813 0.19068 0.85852 0.0
C516 C 0.81219 0.23859 0.87817 0.0
C517 C 0.85033 0.17025 0.83603 0.0
H518 H 0.98777 0.2091 0.89764 0.0
H519 H 0.96326 0.23244 0.93656 0.0
H520 H 0.86371 0.26697 0.95135 0.0
H521 H 0.81525 0.26968 0.92288 0.0
H522 H 0.77102 0.21458 0.84526 0.0
H523 H 0.79073 0.1761 0.82383 0.0
H524 H 0.88985 0.1398 0.81133 0.0
H525 H 0.94323 0.15264 0.8219 0.0
H526 H 0.81967 0.1704 0.94617 0.0
H527 H 0.90206 0.1398 0.93518 0.0
H528 H 0.87946 0.24058 0.7805 0.0
H529 H 0.89599 0.29025 0.84271 0.0
C530 C 0.85098 0.35962 0.42267 0.0
C531 C 0.87235 0.34412 0.43058 0.0
C532 C 0.88208 0.33446 0.40757 0.0
C533 C 0.86514 0.34365 0.38727 0.0
N534 N 0.84533 0.35831 0.39609 0.0
Co535 Co 0.80959 0.36617 0.37659 0.0
N536 N 0.82753 0.36029 0.3415 0.0
C537 C 0.85264 0.34964 0.33779 0.0
C538 C 0.85961 0.34824 0.31119 0.0
C539 C 0.83731 0.35832 0.29722 0.0
C540 C 0.8178 0.36504 0.31622 0.0
N541 N 0.77316 0.37261 0.35708 0.0
C542 C 0.76768 0.3751 0.33036 0.0
C543 C 0.73878 0.37833 0.3251 0.0
C544 C 0.72568 0.37735 0.34947 0.0
C545 C 0.74724 0.37366 0.36814 0.0
N546 N 0.79258 0.37345 0.41186 0.0
C547 C 0.76462 0.37379 0.41715 0.0
C548 C 0.75936 0.37582 0.44404 0.0
C549 C 0.7857 0.37708 0.4564 0.0
C550 C 0.80571 0.3768 0.43613 0.0
N551 N 0.82071 0.3994 0.37265 0.0
C552 C 0.83395 0.44682 0.36227 0.0
C553 C 0.8069 0.43995 0.37081 0.0
C554 C 0.8008 0.41641 0.37595 0.0
C555 C 0.85454 0.42936 0.35983 0.0
C556 C 0.84756 0.40587 0.36515 0.0
N557 N 0.79789 0.33253 0.38044 0.0
C558 C 0.77798 0.30064 0.40695 0.0
C559 C 0.77808 0.28568 0.38497 0.0
C560 C 0.78944 0.29458 0.361 0.0
C561 C 0.79837 0.31781 0.35898 0.0
C562 C 0.78906 0.32328 0.40464 0.0
H563 H 0.80572 0.32333 0.33966 0.0
H564 H 0.79041 0.3329 0.4229 0.0
H565 H 0.77963 0.41199 0.3822 0.0
H566 H 0.86376 0.3929 0.3627 0.0
C567 C 0.86843 0.34056 0.35969 0.0
C568 C 0.83692 0.37616 0.4401 0.0
C569 C 0.78853 0.37175 0.30936 0.0
C570 C 0.74432 0.37329 0.39615 0.0
H571 H 0.8803 0.34022 0.45074 0.0
H572 H 0.8994 0.32227 0.40587 0.0
H573 H 0.87824 0.34027 0.3029 0.0
H574 H 0.83489 0.35931 0.27549 0.0
H575 H 0.7282 0.38048 0.30561 0.0
H576 H 0.70319 0.3793 0.35313 0.0
H577 H 0.73888 0.37588 0.45363 0.0
H578 H 0.78931 0.37674 0.47796 0.0
H579 H 0.79036 0.45275 0.37318 0.0
H580 H 0.87579 0.4338 0.35345 0.0
H581 H 0.7699 0.29473 0.42617 0.0
H582 H 0.79078 0.28375 0.34349 0.0
C583 C 0.56512 0.31123 0.87543 0.0
C584 C 0.54162 0.29694 0.87874 0.0
C585 C 0.55173 0.2759 0.88789 0.0
C586 C 0.58075 0.27847 0.88982 0.0
N587 N 0.58965 0.29975 0.88233 0.0
Co588 Co 0.6301 0.31051 0.88354 0.0
N589 N 0.64551 0.27823 0.88618 0.0
C590 C 0.63005 0.25925 0.89235 0.0
C591 C 0.64559 0.23917 0.89211 0.0
C592 C 0.67267 0.24587 0.88582 0.0
C593 C 0.67236 0.26984 0.88293 0.0
N594 N 0.67063 0.32128 0.88468 0.0
C595 C 0.69564 0.30941 0.88272 0.0
C596 C 0.71877 0.32408 0.88652 0.0
C597 C 0.70802 0.34566 0.89112 0.0
C598 C 0.67898 0.34308 0.89002 0.0
N599 N 0.6146 0.34271 0.88097 0.0
C600 C 0.62954 0.36207 0.88629 0.0
C601 C 0.61422 0.38195 0.88119 0.0
C602 C 0.5879 0.37468 0.87231 0.0
C603 C 0.58837 0.35064 0.87283 0.0
N604 N 0.629 0.31158 0.92272 0.0
C605 C 0.63016 0.3172 0.97827 0.0
C606 C 0.60566 0.32282 0.96307 0.0
C607 C 0.60571 0.32026 0.93517 0.0
C608 C 0.6533 0.30742 0.96552 0.0
C609 C 0.65212 0.30447 0.93782 0.0
N610 N 0.63102 0.30968 0.84462 0.0
C611 C 0.6385 0.32905 0.80213 0.0
C612 C 0.62809 0.30963 0.78882 0.0
C613 C 0.61936 0.29024 0.80374 0.0
C614 C 0.6208 0.29067 0.83165 0.0
C615 C 0.64033 0.32852 0.83017 0.0
H616 H 0.61323 0.27578 0.8427 0.0
H617 H 0.64879 0.34351 0.84011 0.0
H618 H 0.58723 0.32594 0.92366 0.0
H619 H 0.67035 0.29715 0.92857 0.0
C620 C 0.60045 0.26064 0.89466 0.0
C621 C 0.56296 0.33599 0.86757 0.0
C622 C 0.69853 0.284 0.88018 0.0
C623 C 0.65899 0.36098 0.89111 0.0
H624 H 0.51946 0.30132 0.87512 0.0
H625 H 0.53941 0.2604 0.89191 0.0
H626 H 0.63799 0.22165 0.89544 0.0
H627 H 0.6907 0.2344 0.88417 0.0
H628 H 0.74112 0.31957 0.88661 0.0
H629 H 0.72 0.36141 0.89457 0.0
H630 H 0.62168 0.39965 0.88253 0.0
H631 H 0.57038 0.38588 0.86628 0.0
H632 H 0.58732 0.33029 0.9725 0.0
H633 H 0.67248 0.30268 0.97682 0.0
H634 H 0.64532 0.3443 0.79096 0.0
H635 H 0.61112 0.27497 0.79383 0.0
C636 C 0.65023 0.3402 0.11033 0.0
C637 C 0.62131 0.3357 0.11223 0.0
C638 C 0.61456 0.33891 0.13858 0.0
C639 C 0.63966 0.34516 0.15114 0.0
N640 N 0.66183 0.34603 0.13441 0.0
Co641 Co 0.70165 0.3548 0.14395 0.0
N642 N 0.6947 0.34989 0.18306 0.0
C643 C 0.66905 0.34798 0.19458 0.0
C644 C 0.67062 0.34617 0.22213 0.0
C645 C 0.699 0.34745 0.22851 0.0
C646 C 0.71326 0.3499 0.20431 0.0
N647 N 0.74147 0.36399 0.1533 0.0
C648 C 0.75625 0.36169 0.17685 0.0
C649 C 0.78408 0.36949 0.17441 0.0
C650 C 0.78646 0.37784 0.1486 0.0
C651 C 0.76019 0.37439 0.13676 0.0
N652 N 0.70848 0.3595 0.10484 0.0
C653 C 0.73037 0.37101 0.09368 0.0
C654 C 0.72962 0.37079 0.06604 0.0
C655 C 0.70571 0.35845 0.05933 0.0
C656 C 0.69308 0.35197 0.0834 0.0
N657 N 0.68959 0.3876 0.14665 0.0
C658 C 0.67271 0.43426 0.1517 0.0
C659 C 0.66634 0.42199 0.12813 0.0
C660 C 0.67461 0.39864 0.12618 0.0
C661 C 0.68758 0.42264 0.17253 0.0
C662 C 0.69595 0.39965 0.16951 0.0
N663 N 0.71378 0.32199 0.14148 0.0
C664 C 0.74788 0.29336 0.12753 0.0
C665 C 0.73228 0.27535 0.13959 0.0
C666 C 0.70702 0.28123 0.15238 0.0
C667 C 0.69821 0.30452 0.15313 0.0
C668 C 0.7383 0.31639 0.12862 0.0
H669 H 0.67878 0.30837 0.16329 0.0
H670 H 0.75091 0.32967 0.1191 0.0
H671 H 0.6688 0.38957 0.10812 0.0
H672 H 0.70736 0.39169 0.18601 0.0
C673 C 0.64412 0.34665 0.1789 0.0
C674 C 0.66558 0.34015 0.08511 0.0
C675 C 0.74357 0.35588 0.20269 0.0
C676 C 0.75356 0.37802 0.1095 0.0
H677 H 0.60665 0.33072 0.09622 0.0
H678 H 0.59405 0.33619 0.14766 0.0
H679 H 0.65321 0.34438 0.23595 0.0
H680 H 0.70791 0.34764 0.24878 0.0
H681 H 0.80053 0.37004 0.19 0.0
H682 H 0.80521 0.38523 0.13948 0.0
H683 H 0.74526 0.37783 0.05242 0.0
H684 H 0.69846 0.35468 0.03903 0.0
H685 H 0.65482 0.43031 0.11149 0.0
H686 H 0.69291 0.43138 0.19111 0.0
H687 H 0.76742 0.28963 0.11728 0.0
H688 H 0.69419 0.26789 0.16182 0.0
C689 C 0.56414 0.21315 0.61636 0.0
C690 C 0.5414 0.22055 0.60016 0.0
C691 C 0.55259 0.23383 0.57971 0.0
C692 C 0.58152 0.23383 0.58444 0.0
N693 N 0.58925 0.22157 0.60672 0.0
Co694 Co 0.62936 0.21699 0.61994 0.0
N695 N 0.64437 0.24307 0.59732 0.0
C696 C 0.63023 0.25311 0.57631 0.0
C697 C 0.64502 0.27121 0.56491 0.0
C698 C 0.67016 0.2725 0.57944 0.0
C699 C 0.66958 0.2549 0.59886 0.0
N700 N 0.66942 0.21241 0.63341 0.0
C701 C 0.69293 0.22622 0.6314 0.0
C702 C 0.71669 0.21532 0.64283 0.0
C703 C 0.70784 0.19408 0.65221 0.0
C704 C 0.67927 0.19307 0.64596 0.0
N705 N 0.61455 0.19081 0.64252 0.0
C706 C 0.63069 0.17402 0.65418 0.0
C707 C 0.61512 0.15793 0.6683 0.0
C708 C 0.58734 0.16485 0.66518 0.0
C709 C 0.58744 0.18481 0.64918 0.0
N710 N 0.63601 0.19573 0.59059 0.0
C711 C 0.64343 0.16941 0.54474 0.0
C712 C 0.61808 0.16792 0.55892 0.0
C713 C 0.61505 0.18089 0.58214 0.0
C714 C 0.66535 0.18358 0.55445 0.0
C715 C 0.66109 0.1968 0.57716 0.0
N716 N 0.62277 0.23847 0.64859 0.0
C717 C 0.63027 0.24969 0.69431 0.0
C718 C 0.61898 0.27155 0.68798 0.0
C719 C 0.60874 0.27644 0.66199 0.0
C720 C 0.61058 0.2595 0.64259 0.0
C721 C 0.63195 0.23331 0.67425 0.0
H722 H 0.6029 0.26373 0.62255 0.0
H723 H 0.64137 0.21675 0.67926 0.0
H724 H 0.59541 0.17945 0.59275 0.0
H725 H 0.67785 0.20841 0.58327 0.0
C726 C 0.60156 0.24759 0.57093 0.0
C727 C 0.56123 0.19635 0.63902 0.0
C728 C 0.69429 0.2487 0.61671 0.0
C729 C 0.66042 0.17574 0.65445 0.0
H730 H 0.5191 0.21644 0.60265 0.0
H731 H 0.54092 0.24287 0.5637 0.0
H732 H 0.63796 0.28267 0.54862 0.0
H733 H 0.68709 0.28483 0.57589 0.0
H734 H 0.73828 0.22187 0.64389 0.0
H735 H 0.72063 0.18112 0.66283 0.0
H736 H 0.62305 0.14325 0.68008 0.0
H737 H 0.56906 0.15601 0.67345 0.0
H738 H 0.6007 0.15708 0.5519 0.0
H739 H 0.68524 0.18511 0.54389 0.0
H740 H 0.63833 0.24556 0.71446 0.0
H741 H 0.59991 0.29327 0.65668 0.0
C742 C 0.78695 0.06856 0.14245 0.0
C743 C 0.76658 0.0514 0.13872 0.0
C744 C 0.74302 0.06199 0.1274 0.0
C745 C 0.75022 0.08496 0.12477 0.0
N746 N 0.77676 0.08961 0.134 0.0
Co747 Co 0.79541 0.12069 0.13256 0.0
N748 N 0.7585 0.13711 0.12609 0.0
C749 C 0.73398 0.12711 0.11789 0.0
C750 C 0.71183 0.14252 0.11526 0.0
C751 C 0.72313 0.1636 0.12204 0.0
C752 C 0.75169 0.1599 0.12837 0.0
N753 N 0.81401 0.15176 0.13094 0.0
C754 C 0.80269 0.17339 0.13251 0.0
C755 C 0.82363 0.1902 0.1298 0.0
C756 C 0.84879 0.17871 0.12631 0.0
C757 C 0.8419 0.15557 0.12704 0.0
N758 N 0.83235 0.10425 0.13912 0.0
C759 C 0.85825 0.11347 0.13482 0.0
C760 C 0.88004 0.09834 0.141 0.0
C761 C 0.86708 0.07823 0.1494 0.0
C762 C 0.83795 0.0821 0.14769 0.0
N763 N 0.79998 0.11779 0.09384 0.0
C764 C 0.81833 0.11759 0.04111 0.0
C765 C 0.82072 0.09759 0.0572 0.0
C766 C 0.81106 0.098 0.08357 0.0
C767 C 0.80426 0.13687 0.05085 0.0
C768 C 0.79512 0.13658 0.07728 0.0
N769 N 0.79129 0.12383 0.171 0.0
C770 C 0.81144 0.13363 0.21418 0.0
C771 C 0.78578 0.12784 0.22611 0.0
C772 C 0.76273 0.12053 0.21017 0.0
C773 C 0.76593 0.11863 0.18256 0.0
C774 C 0.81375 0.1315 0.18644 0.0
H775 H 0.74807 0.11265 0.17062 0.0
H776 H 0.83384 0.13573 0.17759 0.0
H777 H 0.81415 0.08282 0.0961 0.0
H778 H 0.78584 0.15211 0.08479 0.0
C779 C 0.73169 0.10296 0.11697 0.0
C780 C 0.81645 0.06367 0.15162 0.0
C781 C 0.77209 0.17869 0.13419 0.0
C782 C 0.86124 0.13711 0.12843 0.0
H783 H 0.7687 0.03307 0.14325 0.0
H784 H 0.72285 0.05395 0.1222 0.0
H785 H 0.68985 0.13878 0.10993 0.0
H786 H 0.71173 0.17986 0.12204 0.0
H787 H 0.82092 0.2088 0.13003 0.0
H788 H 0.86973 0.18633 0.12435 0.0
H789 H 0.90268 0.10168 0.14012 0.0
H790 H 0.87784 0.06237 0.1555 0.0
H791 H 0.83145 0.08238 0.05003 0.0
H792 H 0.80202 0.15257 0.03867 0.0
H793 H 0.82967 0.13903 0.22626 0.0
H794 H 0.7427 0.1157 0.21915 0.0
C795 C 0.93739 0.31875 0.63795 0.0
C796 C 0.95807 0.30188 0.64264 0.0
C797 C 0.94892 0.28237 0.62981 0.0
C798 C 0.9227 0.28789 0.61891 0.0
N799 N 0.9145 0.3096 0.62448 0.0
Co800 Co 0.87516 0.32206 0.61906 0.0
N801 N 0.85861 0.29086 0.61142 0.0
C802 C 0.87366 0.27202 0.60495 0.0
C803 C 0.857 0.25276 0.60107 0.0
C804 C 0.82968 0.25986 0.60522 0.0
C805 C 0.83112 0.2832 0.61134 0.0
N806 N 0.83559 0.33425 0.6143 0.0
C807 C 0.80992 0.32307 0.61409 0.0
C808 C 0.78784 0.33864 0.60955 0.0
C809 C 0.80006 0.36017 0.60668 0.0
C810 C 0.82888 0.35662 0.60963 0.0
N811 N 0.89176 0.35334 0.62622 0.0
C812 C 0.87889 0.37343 0.61905 0.0
C813 C 0.89622 0.39236 0.62224 0.0
C814 C 0.92171 0.3837 0.63185 0.0
C815 C 0.91849 0.35982 0.63455 0.0
N816 N 0.88179 0.32741 0.58074 0.0
C817 C 0.88051 0.35331 0.53299 0.0
C818 C 0.90423 0.35423 0.5504 0.0
C819 C 0.90518 0.33997 0.57336 0.0
C820 C 0.85926 0.3368 0.5382 0.0
C821 C 0.86015 0.32413 0.5624 0.0
N822 N 0.86872 0.3177 0.65713 0.0
C823 C 0.86046 0.33494 0.69986 0.0
C824 C 0.86911 0.31443 0.71271 0.0
C825 C 0.87604 0.29523 0.6975 0.0
C826 C 0.87577 0.29723 0.66964 0.0
C827 C 0.85987 0.33605 0.67185 0.0
H828 H 0.88236 0.28254 0.65835 0.0
H829 H 0.85338 0.35207 0.66216 0.0
H830 H 0.92344 0.34133 0.58671 0.0
H831 H 0.84204 0.31352 0.5674 0.0
C832 C 0.90321 0.27183 0.6086 0.0
C833 C 0.94194 0.34382 0.64309 0.0
C834 C 0.80582 0.29767 0.61549 0.0
C835 C 0.84999 0.3738 0.61123 0.0
H836 H 0.97801 0.30349 0.65373 0.0
H837 H 0.95949 0.26572 0.62977 0.0
H838 H 0.86399 0.23531 0.59718 0.0
H839 H 0.8109 0.24902 0.60405 0.0
H840 H 0.76532 0.33475 0.60799 0.0
H841 H 0.78916 0.3765 0.60336 0.0
H842 H 0.89101 0.41034 0.61804 0.0
H843 H 0.94064 0.39387 0.63579 0.0
H844 H 0.92114 0.36668 0.54715 0.0
H845 H 0.84084 0.33526 0.52482 0.0
H846 H 0.85468 0.34993 0.71133 0.0
H847 H 0.88254 0.27904 0.70718 0.0
C848 C 0.38896 0.70583 0.0548 0.0
C849 C 0.40602 0.71421 0.03436 0.0
C850 C 0.42561 0.72869 0.04606 0.0
C851 C 0.41955 0.72846 0.073 0.0
N852 N 0.39745 0.71449 0.07932 0.0
Co853 Co 0.38127 0.71054 0.11658 0.0
N854 N 0.40843 0.73347 0.1337 0.0
C855 C 0.42984 0.74435 0.12075 0.0
C856 C 0.44423 0.75999 0.13648 0.0
C857 C 0.4313 0.75913 0.16092 0.0
C858 C 0.40968 0.74281 0.15905 0.0
N859 N 0.36436 0.7071 0.15364 0.0
C860 C 0.37012 0.71802 0.17752 0.0
C861 C 0.35308 0.70941 0.1979 0.0
C862 C 0.3356 0.69315 0.18665 0.0
C863 C 0.34293 0.69248 0.1601 0.0
N864 N 0.35413 0.68749 0.09972 0.0
C865 C 0.33465 0.67482 0.11321 0.0
C866 C 0.31864 0.66059 0.09703 0.0
C867 C 0.32832 0.6644 0.07156 0.0
C868 C 0.34981 0.68082 0.07353 0.0
N869 N 0.4087 0.68519 0.12541 0.0
C870 C 0.45022 0.65428 0.14554 0.0
C871 C 0.42175 0.65101 0.15182 0.0
C872 C 0.40133 0.66646 0.14125 0.0
C873 C 0.45741 0.67192 0.12753 0.0
C874 C 0.43645 0.68697 0.11765 0.0
N875 N 0.35468 0.7359 0.10808 0.0
C876 C 0.30857 0.75275 0.11303 0.0
C877 C 0.31946 0.77443 0.10588 0.0
C878 C 0.34732 0.7764 0.09757 0.0
C879 C 0.36447 0.75684 0.09853 0.0
C880 C 0.32651 0.73368 0.11384 0.0
H881 H 0.38582 0.75936 0.09258 0.0
H882 H 0.31756 0.71756 0.12027 0.0
H883 H 0.37998 0.6632 0.14684 0.0
H884 H 0.44361 0.70026 0.10448 0.0
C885 C 0.43374 0.74142 0.09297 0.0
C886 C 0.36502 0.68963 0.04969 0.0
C887 C 0.39097 0.73694 0.18208 0.0
C888 C 0.3304 0.67809 0.14073 0.0
H889 H 0.40432 0.71032 0.01313 0.0
H890 H 0.44212 0.73846 0.03604 0.0
H891 H 0.46148 0.77132 0.13057 0.0
H892 H 0.43695 0.76959 0.17809 0.0
H893 H 0.35311 0.71447 0.21879 0.0
H894 H 0.31939 0.68301 0.19666 0.0
H895 H 0.30144 0.64921 0.10296 0.0
H896 H 0.3202 0.65624 0.05349 0.0
H897 H 0.41548 0.63716 0.16549 0.0
H898 H 0.47936 0.67466 0.12196 0.0
H899 H 0.28669 0.7508 0.11922 0.0
H900 H 0.35609 0.79305 0.09159 0.0
C901 C 0.424 0.86225 0.36449 0.0
C902 C 0.42143 0.88439 0.35346 0.0
C903 C 0.39313 0.88777 0.34808 0.0
C904 C 0.38021 0.86753 0.35606 0.0
N905 N 0.39847 0.85147 0.36644 0.0
Co906 Co 0.38914 0.8194 0.37996 0.0
N907 N 0.34836 0.82348 0.36914 0.0
C908 C 0.33606 0.84215 0.3569 0.0
C909 C 0.30767 0.83927 0.35103 0.0
C910 C 0.3015 0.81743 0.36008 0.0
C911 C 0.32664 0.80835 0.37108 0.0
N912 N 0.38024 0.78759 0.39402 0.0
C913 C 0.35521 0.77623 0.39436 0.0
C914 C 0.35773 0.75436 0.40629 0.0
C915 C 0.38564 0.75181 0.41378 0.0
C916 C 0.3983 0.7722 0.40607 0.0
N917 N 0.4303 0.81541 0.39029 0.0
C918 C 0.44279 0.79681 0.40249 0.0
C919 C 0.47154 0.79924 0.40684 0.0
C920 C 0.47793 0.82058 0.39645 0.0
C921 C 0.45256 0.82988 0.38634 0.0
N922 N 0.38075 0.83222 0.41733 0.0
C923 C 0.36401 0.84747 0.47022 0.0
C924 C 0.38318 0.82909 0.4669 0.0
C925 C 0.39119 0.82192 0.44081 0.0
C926 C 0.35397 0.85827 0.44621 0.0
C927 C 0.36246 0.85058 0.42051 0.0
N928 N 0.396 0.80599 0.34259 0.0
C929 C 0.40708 0.77291 0.31401 0.0
C930 C 0.39701 0.78412 0.29015 0.0
C931 C 0.38757 0.80704 0.29343 0.0
C932 C 0.38704 0.81737 0.31926 0.0
C933 C 0.40681 0.78404 0.33943 0.0
H934 H 0.37881 0.83462 0.31993 0.0
H935 H 0.41502 0.77433 0.35648 0.0
H936 H 0.40572 0.80773 0.44016 0.0
H937 H 0.35356 0.85966 0.40338 0.0
C938 C 0.35158 0.86225 0.35164 0.0
C939 C 0.45125 0.8516 0.37113 0.0
C940 C 0.32861 0.78566 0.38403 0.0
C941 C 0.42711 0.7772 0.4093 0.0
H942 H 0.43837 0.89656 0.34917 0.0
H943 H 0.38327 0.90284 0.33856 0.0
H944 H 0.29317 0.8516 0.34145 0.0
H945 H 0.2808 0.8092 0.35894 0.0
H946 H 0.34111 0.74161 0.40925 0.0
H947 H 0.39552 0.73688 0.42359 0.0
H948 H 0.48616 0.78681 0.41605 0.0
H949 H 0.49896 0.82825 0.39574 0.0
H950 H 0.39194 0.82007 0.48451 0.0
H951 H 0.33927 0.87263 0.44722 0.0
H952 H 0.41496 0.75533 0.31315 0.0
H953 H 0.37988 0.81694 0.27601 0.0
C954 C 0.19495 0.88892 0.95214 0.0
C955 C 0.21207 0.89678 0.97316 0.0
C956 C 0.23383 0.90918 0.96176 0.0
C957 C 0.22891 0.90835 0.93439 0.0
N958 N 0.20545 0.89615 0.92775 0.0
Co959 Co 0.19166 0.89108 0.88978 0.0
N960 N 0.22867 0.90053 0.87329 0.0
C961 C 0.2496 0.91182 0.88658 0.0
C962 C 0.27274 0.91645 0.87091 0.0
C963 C 0.26589 0.90785 0.84599 0.0
C964 C 0.23874 0.89851 0.84765 0.0
N965 N 0.17773 0.88582 0.85185 0.0
C966 C 0.19166 0.88524 0.8278 0.0
C967 C 0.17246 0.88206 0.80657 0.0
C968 C 0.14587 0.88084 0.81744 0.0
C969 C 0.15011 0.88338 0.8447 0.0
N970 N 0.15485 0.88147 0.90648 0.0
C971 C 0.13001 0.87947 0.89273 0.0
C972 C 0.10817 0.87185 0.90861 0.0
C973 C 0.11988 0.86895 0.93404 0.0
C974 C 0.14835 0.8751 0.93248 0.0
N975 N 0.17842 0.92356 0.88674 0.0
C976 C 0.16012 0.96986 0.88029 0.0
C977 C 0.15483 0.95723 0.90416 0.0
C978 C 0.16422 0.93408 0.907 0.0
C979 C 0.17459 0.95884 0.85992 0.0
C980 C 0.18345 0.93592 0.86351 0.0
N981 N 0.20483 0.85913 0.89229 0.0
C982 C 0.1975 0.81891 0.88263 0.0
C983 C 0.2253 0.81395 0.89139 0.0
C984 C 0.24242 0.83174 0.90146 0.0
C985 C 0.23173 0.85425 0.90182 0.0
C986 C 0.18766 0.84163 0.88328 0.0
H987 H 0.24546 0.86775 0.90923 0.0
H988 H 0.16637 0.84509 0.87591 0.0
H989 H 0.15994 0.9247 0.92551 0.0
H990 H 0.19435 0.92825 0.84721 0.0
C991 C 0.24796 0.91539 0.91442 0.0
C992 C 0.16795 0.87601 0.95647 0.0
C993 C 0.22239 0.89012 0.82369 0.0
C994 C 0.12929 0.88111 0.86446 0.0
H995 H 0.20906 0.89389 0.99453 0.0
H996 H 0.2517 0.91714 0.97219 0.0
H997 H 0.29249 0.92474 0.87697 0.0
H998 H 0.27913 0.90883 0.82844 0.0
H999 H 0.17713 0.88124 0.78535 0.0
H1000 H 0.12586 0.87813 0.80673 0.0
H1001 H 0.08653 0.86793 0.90226 0.0
H1002 H 0.1087 0.86302 0.95171 0.0
H1003 H 0.14358 0.96517 0.9204 0.0
H1004 H 0.17904 0.96794 0.84118 0.0
H1005 H 0.18378 0.8054 0.87479 0.0
H1006 H 0.26405 0.82832 0.90843 0.0
C1007 C 0.11681 0.72054 0.44454 0.0
C1008 C 0.10869 0.7346 0.46536 0.0
C1009 C 0.10182 0.7557 0.45403 0.0
C1010 C 0.10582 0.75344 0.4269 0.0
N1011 N 0.11423 0.73209 0.42003 0.0
Co1012 Co 0.12293 0.72296 0.38196 0.0
N1013 N 0.10886 0.75309 0.36489 0.0
C1014 C 0.10125 0.7717 0.37899 0.0
C1015 C 0.0934 0.7904 0.36306 0.0
C1016 C 0.09659 0.78346 0.33708 0.0
C1017 C 0.1062 0.76077 0.33842 0.0
N1018 N 0.13242 0.71413 0.34392 0.0
C1019 C 0.12828 0.72511 0.31922 0.0
C1020 C 0.13968 0.71224 0.29877 0.0
C1021 C 0.152 0.6931 0.31073 0.0
C1022 C 0.14737 0.69512 0.33778 0.0
N1023 N 0.13668 0.69266 0.39891 0.0
C1024 C 0.1508 0.67635 0.38549 0.0
C1025 C 0.15946 0.65793 0.40145 0.0
C1026 C 0.15088 0.66294 0.42686 0.0
C1027 C 0.13726 0.68422 0.42515 0.0
N1028 N 0.08484 0.70971 0.37759 0.0
C1029 C 0.03074 0.69035 0.37153 0.0
C1030 C 0.05464 0.67848 0.36305 0.0
C1031 C 0.08147 0.68843 0.3663 0.0
C1032 C 0.03417 0.71198 0.38327 0.0
C1033 C 0.06143 0.7214 0.38601 0.0
N1034 N 0.16095 0.73598 0.38641 0.0
C1035 C 0.20556 0.73664 0.41075 0.0
C1036 C 0.21668 0.75095 0.39088 0.0
C1037 C 0.19965 0.75843 0.36915 0.0
C1038 C 0.17174 0.75069 0.36732 0.0
C1039 C 0.17756 0.72958 0.40821 0.0
H1040 H 0.15931 0.75628 0.35023 0.0
H1041 H 0.16993 0.71848 0.42362 0.0
H1042 H 0.09934 0.6788 0.35956 0.0
H1043 H 0.06336 0.73814 0.39485 0.0
C1044 C 0.10087 0.77066 0.40716 0.0
C1045 C 0.12944 0.69719 0.44964 0.0
C1046 C 0.11579 0.74849 0.31407 0.0
C1047 C 0.15537 0.67894 0.35785 0.0
H1048 H 0.10866 0.73027 0.48667 0.0
H1049 H 0.0949 0.77095 0.46441 0.0
H1050 H 0.08643 0.80721 0.36958 0.0
H1051 H 0.09316 0.79416 0.31917 0.0
H1052 H 0.1397 0.71655 0.27746 0.0
H1053 H 0.16303 0.67931 0.30083 0.0
H1054 H 0.17125 0.64286 0.39546 0.0
H1055 H 0.15542 0.65258 0.44482 0.0
H1056 H 0.05254 0.66167 0.35383 0.0
H1057 H 0.01592 0.72157 0.38995 0.0
H1058 H 0.21854 0.73069 0.42783 0.0
H1059 H 0.20807 0.76966 0.35348 0.0
C1060 C 0.30202 0.64486 0.93495 0.0
C1061 C 0.28411 0.63907 0.95586 0.0
C1062 C 0.2604 0.62912 0.94445 0.0
C1063 C 0.26501 0.62936 0.91723 0.0
N1064 N 0.2905 0.63841 0.91053 0.0
Co1065 Co 0.30371 0.64414 0.87252 0.0
N1066 N 0.2667 0.63349 0.85542 0.0
C1067 C 0.24477 0.62394 0.86891 0.0
C1068 C 0.222 0.61832 0.85251 0.0
C1069 C 0.22979 0.62464 0.827 0.0
C1070 C 0.25702 0.63382 0.82912 0.0
N1071 N 0.31648 0.65107 0.83463 0.0
C1072 C 0.30228 0.65031 0.8102 0.0
C1073 C 0.31969 0.65742 0.7894 0.0
C1074 C 0.34547 0.66302 0.80087 0.0
C1075 C 0.34252 0.65907 0.82801 0.0
N1076 N 0.34081 0.65455 0.88966 0.0
C1077 C 0.36444 0.66053 0.87613 0.0
C1078 C 0.38639 0.66786 0.89259 0.0
C1079 C 0.37608 0.66682 0.91816 0.0
C1080 C 0.34826 0.65895 0.91597 0.0
N1081 N 0.31863 0.61154 0.87042 0.0
C1082 C 0.3361 0.56515 0.86235 0.0
C1083 C 0.35192 0.58381 0.85246 0.0
C1084 C 0.34299 0.60662 0.85679 0.0
C1085 C 0.31207 0.57002 0.87724 0.0
C1086 C 0.30392 0.59307 0.88115 0.0
N1087 N 0.28886 0.676 0.87444 0.0
C1088 C 0.29627 0.71735 0.87182 0.0
C1089 C 0.26847 0.72115 0.87991 0.0
C1090 C 0.25084 0.70219 0.88479 0.0
C1091 C 0.26143 0.67986 0.88202 0.0
C1092 C 0.30595 0.69471 0.86903 0.0
H1093 H 0.24714 0.66598 0.88629 0.0
H1094 H 0.32734 0.69269 0.86267 0.0
H1095 H 0.35604 0.61988 0.84852 0.0
H1096 H 0.2854 0.59534 0.89267 0.0
C1097 C 0.24513 0.6228 0.89721 0.0
C1098 C 0.32958 0.65677 0.93947 0.0
C1099 C 0.27253 0.64278 0.80545 0.0
C1100 C 0.36368 0.66267 0.84791 0.0
H1101 H 0.28763 0.64216 0.97712 0.0
H1102 H 0.24159 0.62313 0.95473 0.0
H1103 H 0.20175 0.61111 0.85849 0.0
H1104 H 0.21674 0.62296 0.80889 0.0
H1105 H 0.31428 0.65845 0.7681 0.0
H1106 H 0.36414 0.66934 0.79063 0.0
H1107 H 0.40696 0.67441 0.88659 0.0
H1108 H 0.38743 0.67197 0.93631 0.0
H1109 H 0.37091 0.58079 0.84104 0.0
H1110 H 0.29937 0.55604 0.88556 0.0
H1111 H 0.31038 0.73179 0.86766 0.0
H1112 H 0.22907 0.70463 0.89092 0.0
C1113 C 0.12441 0.81795 0.07252 0.0
C1114 C 0.12083 0.80257 0.05156 0.0
C1115 C 0.11422 0.78156 0.06292 0.0
C1116 C 0.11377 0.78516 0.09014 0.0
N1117 N 0.1193 0.80729 0.09697 0.0
Co1118 Co 0.11996 0.81913 0.13511 0.0
N1119 N 0.11395 0.78739 0.15208 0.0
C1120 C 0.11043 0.76762 0.13824 0.0
C1121 C 0.10721 0.7483 0.1544 0.0
C1122 C 0.10888 0.75609 0.18023 0.0
C1123 C 0.113 0.77984 0.17851 0.0
N1124 N 0.12048 0.83088 0.1733 0.0
C1125 C 0.11877 0.81959 0.19793 0.0
C1126 C 0.12013 0.83516 0.21882 0.0
C1127 C 0.1229 0.85678 0.20732 0.0
C1128 C 0.12302 0.8534 0.18001 0.0
N1129 N 0.12693 0.85071 0.11801 0.0
C1130 C 0.12984 0.87058 0.13185 0.0
C1131 C 0.13743 0.88921 0.11599 0.0
C1132 C 0.13986 0.88078 0.09054 0.0
C1133 C 0.13335 0.85735 0.09198 0.0
N1134 N 0.07805 0.82409 0.13279 0.0
C1135 C 0.01884 0.83127 0.13292 0.0
C1136 C 0.03763 0.84864 0.14072 0.0
C1137 C 0.06679 0.84482 0.14024 0.0
C1138 C 0.02993 0.81043 0.12403 0.0
C1139 C 0.05949 0.80715 0.12437 0.0
N1140 N 0.16138 0.81473 0.13733 0.0
C1141 C 0.20777 0.83194 0.14342 0.0
C1142 C 0.21996 0.81339 0.13069 0.0
C1143 C 0.20291 0.79479 0.12276 0.0
C1144 C 0.17367 0.79577 0.12637 0.0
C1145 C 0.17862 0.83194 0.14718 0.0
H1146 H 0.16129 0.78146 0.11941 0.0
H1147 H 0.17052 0.84644 0.15729 0.0
H1148 H 0.07962 0.85895 0.14625 0.0
H1149 H 0.0667 0.79074 0.11797 0.0
C1150 C 0.11037 0.76783 0.10998 0.0
C1151 C 0.13382 0.84224 0.06792 0.0
C1152 C 0.11584 0.79424 0.2028 0.0
C1153 C 0.12755 0.8707 0.16013 0.0
H1154 H 0.12341 0.80605 0.03025 0.0
H1155 H 0.1109 0.7654 0.05259 0.0
H1156 H 0.10411 0.7306 0.14814 0.0
H1157 H 0.10728 0.74547 0.19835 0.0
H1158 H 0.11942 0.83123 0.24021 0.0
H1159 H 0.12513 0.87303 0.21771 0.0
H1160 H 0.14167 0.90674 0.12234 0.0
H1161 H 0.14619 0.89072 0.07298 0.0
H1162 H 0.02976 0.86517 0.14739 0.0
H1163 H 0.01587 0.79664 0.1175 0.0
H1164 H 0.22064 0.84643 0.15014 0.0
H1165 H 0.21206 0.77992 0.11315 0.0
C1166 C 0.18878 0.6461 0.56531 0.0
C1167 C 0.20504 0.63818 0.54444 0.0
C1168 C 0.22663 0.62515 0.55603 0.0
C1169 C 0.22244 0.62573 0.58335 0.0
N1170 N 0.1996 0.63833 0.58974 0.0
Co1171 Co 0.18699 0.6435 0.62744 0.0
N1172 N 0.22419 0.63345 0.64442 0.0
C1173 C 0.2444 0.6218 0.63145 0.0
C1174 C 0.26788 0.61688 0.64749 0.0
C1175 C 0.26202 0.62565 0.67227 0.0
C1176 C 0.23507 0.63539 0.67019 0.0
N1177 N 0.17421 0.64884 0.6651 0.0
C1178 C 0.18884 0.6492 0.68934 0.0
C1179 C 0.17031 0.65244 0.71031 0.0
C1180 C 0.14342 0.65391 0.69905 0.0
C1181 C 0.14681 0.65146 0.67183 0.0
N1182 N 0.14998 0.65366 0.61027 0.0
C1183 C 0.12546 0.65562 0.62351 0.0
C1184 C 0.10329 0.66326 0.60716 0.0
C1185 C 0.1145 0.66626 0.58198 0.0
C1186 C 0.143 0.66024 0.58424 0.0
N1187 N 0.17293 0.61129 0.63014 0.0
C1188 C 0.15287 0.56557 0.63636 0.0
C1189 C 0.14723 0.57832 0.61246 0.0
C1190 C 0.15756 0.60118 0.6097 0.0
C1191 C 0.16868 0.57612 0.65684 0.0
C1192 C 0.17838 0.59878 0.65337 0.0
N1193 N 0.20096 0.67519 0.62524 0.0
C1194 C 0.19492 0.7155 0.6346 0.0
C1195 C 0.22263 0.72002 0.62634 0.0
C1196 C 0.23904 0.70198 0.61666 0.0
C1197 C 0.22773 0.67965 0.61617 0.0
C1198 C 0.18446 0.69293 0.63388 0.0
H1199 H 0.2409 0.66594 0.60903 0.0
H1200 H 0.16327 0.68976 0.64089 0.0
H1201 H 0.15301 0.61069 0.59118 0.0
H1202 H 0.19019 0.60616 0.66978 0.0
C1203 C 0.24186 0.61827 0.60357 0.0
C1204 C 0.16221 0.65964 0.56086 0.0
C1205 C 0.21958 0.64401 0.69384 0.0
C1206 C 0.12541 0.65387 0.65177 0.0
H1207 H 0.2016 0.64147 0.52307 0.0
H1208 H 0.24397 0.61702 0.54579 0.0
H1209 H 0.28722 0.6083 0.64174 0.0
H1210 H 0.27577 0.62452 0.69002 0.0
H1211 H 0.17561 0.65309 0.73162 0.0
H1212 H 0.12376 0.65668 0.70949 0.0
H1213 H 0.08178 0.6671 0.61302 0.0
H1214 H 0.10301 0.67213 0.564 0.0
H1215 H 0.13497 0.5707 0.59614 0.0
H1216 H 0.17344 0.56688 0.67561 0.0
H1217 H 0.18176 0.72923 0.64215 0.0
H1218 H 0.26058 0.70507 0.61009 0.0
C1219 C 0.29927 0.88922 0.5836 0.0
C1220 C 0.28083 0.89486 0.56233 0.0
C1221 C 0.25714 0.90432 0.57329 0.0
C1222 C 0.26229 0.90398 0.60062 0.0
N1223 N 0.28807 0.89525 0.60784 0.0
Co1224 Co 0.3022 0.88971 0.64617 0.0
N1225 N 0.26546 0.90004 0.66254 0.0
C1226 C 0.24302 0.90916 0.64855 0.0
C1227 C 0.22054 0.91455 0.66446 0.0
C1228 C 0.22905 0.90851 0.69018 0.0
C1229 C 0.25639 0.89971 0.68867 0.0
N1230 N 0.31592 0.8831 0.6844 0.0
C1231 C 0.30229 0.88382 0.70857 0.0
C1232 C 0.32027 0.87695 0.72974 0.0
C1233 C 0.34582 0.87153 0.71879 0.0
C1234 C 0.34218 0.87535 0.69157 0.0
N1235 N 0.339 0.87955 0.62979 0.0
C1236 C 0.36291 0.8736 0.64385 0.0
C1237 C 0.3846 0.86652 0.62787 0.0
C1238 C 0.37386 0.86776 0.60204 0.0
C1239 C 0.34606 0.87548 0.60359 0.0
N1240 N 0.31692 0.92238 0.64829 0.0
C1241 C 0.33512 0.96884 0.65515 0.0
C1242 C 0.35143 0.95035 0.66526 0.0
C1243 C 0.34208 0.92748 0.66157 0.0
C1244 C 0.31007 0.96378 0.64086 0.0
C1245 C 0.30155 0.9407 0.63756 0.0
N1246 N 0.28759 0.85772 0.64413 0.0
C1247 C 0.29535 0.81646 0.64734 0.0
C1248 C 0.26747 0.8124 0.63846 0.0
C1249 C 0.24964 0.83117 0.63286 0.0
C1250 C 0.26009 0.85358 0.63578 0.0
C1251 C 0.30489 0.83919 0.6502 0.0
H1252 H 0.24562 0.86729 0.63098 0.0
H1253 H 0.32635 0.84141 0.65716 0.0
H1254 H 0.35552 0.91432 0.66996 0.0
H1255 H 0.28226 0.93827 0.62645 0.0
C1256 C 0.24274 0.91024 0.62023 0.0
C1257 C 0.32706 0.87791 0.57955 0.0
C1258 C 0.27255 0.89106 0.71276 0.0
C1259 C 0.36283 0.87165 0.67208 0.0
H1260 H 0.28401 0.89203 0.54111 0.0
H1261 H 0.23804 0.91013 0.56262 0.0
H1262 H 0.20004 0.92144 0.65803 0.0
H1263 H 0.21641 0.9101 0.70802 0.0
H1264 H 0.31536 0.87592 0.75094 0.0
H1265 H 0.36476 0.86536 0.72943 0.0
H1266 H 0.40535 0.86015 0.63433 0.0
H1267 H 0.38495 0.86289 0.58411 0.0
H1268 H 0.37115 0.95354 0.67631 0.0
H1269 H 0.29692 0.97765 0.63249 0.0
H1270 H 0.30961 0.80215 0.65204 0.0
H1271 H 0.2278 0.8285 0.6261 0.0
C1272 C 0.1029 0.2538 0.75344 0.0
C1273 C 0.12911 0.24195 0.75779 0.0
C1274 C 0.15523 0.27671 0.74304 0.0
C1275 C 0.12897 0.28801 0.73704 0.0
N1276 N 0.07793 0.28596 0.73149 0.0
N1277 N 0.17987 0.24037 0.75182 0.0
C1278 C 0.10282 0.27611 0.74072 0.0
C1279 C 0.1552 0.25291 0.75113 0.0
N1280 N 0.07818 0.24414 0.76244 0.0
N1281 N 0.18014 0.28896 0.74203 0.0
H1282 H 0.18063 0.22289 0.75749 0.0
H1283 H 0.19906 0.24666 0.74452 0.0
H1284 H 0.18109 0.30634 0.73601 0.0
H1285 H 0.1996 0.28245 0.74914 0.0
H1286 H 0.05891 0.25301 0.76266 0.0
H1287 H 0.07732 0.22785 0.77179 0.0
H1288 H 0.05853 0.27721 0.73101 0.0
H1289 H 0.07708 0.30224 0.72202 0.0
C1290 C 0.73188 0.59713 0.27209 0.0
C1291 C 0.72238 0.59564 0.24482 0.0
C1292 C 0.77082 0.60226 0.23078 0.0
C1293 C 0.7805 0.6015 0.25808 0.0
N1294 N 0.77044 0.58653 0.30273 0.0
N1295 N 0.7364 0.58567 0.19981 0.0
C1296 C 0.76111 0.59396 0.27787 0.0
C1297 C 0.74328 0.59365 0.22478 0.0
N1298 N 0.71453 0.6045 0.29185 0.0
N1299 N 0.78558 0.61367 0.21125 0.0
H1300 H 0.71619 0.57907 0.19518 0.0
H1301 H 0.75167 0.58384 0.18503 0.0
H1302 H 0.80392 0.62326 0.21544 0.0
H1303 H 0.77754 0.61562 0.19156 0.0
H1304 H 0.72203 0.60702 0.31154 0.0
H1305 H 0.69405 0.61076 0.28786 0.0
H1306 H 0.75639 0.58084 0.31747 0.0
H1307 H 0.79207 0.58415 0.30716 0.0
C1308 C 0.41038 0.27893 0.76093 0.0
C1309 C 0.38426 0.2907 0.76428 0.0
C1310 C 0.35792 0.2569 0.74792 0.0
C1311 C 0.38412 0.24606 0.74215 0.0
N1312 N 0.43519 0.24826 0.73854 0.0
N1313 N 0.33342 0.2928 0.75646 0.0
C1314 C 0.41036 0.25752 0.74732 0.0
C1315 C 0.35805 0.28023 0.7565 0.0
N1316 N 0.43508 0.28781 0.77158 0.0
N1317 N 0.33302 0.24465 0.74617 0.0
H1318 H 0.33265 0.31 0.76246 0.0
H1319 H 0.31421 0.28688 0.74826 0.0
H1320 H 0.33201 0.22747 0.7401 0.0
H1321 H 0.3137 0.25085 0.75297 0.0
H1322 H 0.45429 0.27883 0.77224 0.0
H1323 H 0.43586 0.30333 0.782 0.0
H1324 H 0.4546 0.25701 0.73919 0.0
H1325 H 0.43598 0.23265 0.72834 0.0
C1326 C 0.75581 0.85208 0.29144 0.0
C1327 C 0.73734 0.86959 0.30051 0.0
C1328 C 0.77027 0.89977 0.28537 0.0
C1329 C 0.78796 0.88227 0.27525 0.0
N1330 N 0.80259 0.84237 0.27525 0.0
N1331 N 0.72925 0.90924 0.31204 0.0
C1332 C 0.78247 0.85858 0.28078 0.0
C1333 C 0.74558 0.8932 0.29969 0.0
N1334 N 0.74695 0.82951 0.29104 0.0
N1335 N 0.77625 0.92253 0.27984 0.0
H1336 H 0.7108 0.90469 0.32224 0.0
H1337 H 0.73498 0.92656 0.31402 0.0
H1338 H 0.79469 0.92778 0.27007 0.0
H1339 H 0.76257 0.93612 0.28385 0.0
H1340 H 0.75795 0.81644 0.28156 0.0
H1341 H 0.72757 0.82399 0.29874 0.0
H1342 H 0.80096 0.82497 0.28092 0.0
H1343 H 0.82225 0.84678 0.2672 0.0
C1344 C 0.7842 0.10424 0.26782 0.0
C1345 C 0.78352 0.12647 0.25555 0.0
C1346 C 0.76755 0.1432 0.29737 0.0
C1347 C 0.76263 0.12045 0.30747 0.0
N1348 N 0.76346 0.07893 0.30107 0.0
N1349 N 0.77518 0.16753 0.25776 0.0
C1350 C 0.77059 0.1008 0.29259 0.0
C1351 C 0.77585 0.14622 0.2702 0.0
N1352 N 0.79751 0.08641 0.2555 0.0
N1353 N 0.76395 0.16172 0.31371 0.0
H1354 H 0.78198 0.17027 0.23807 0.0
H1355 H 0.76667 0.1822 0.2664 0.0
H1356 H 0.75777 0.15983 0.33371 0.0
H1357 H 0.76937 0.17863 0.30824 0.0
H1358 H 0.80087 0.07024 0.2647 0.0
H1359 H 0.80784 0.08859 0.23722 0.0
H1360 H 0.7657 0.06437 0.28921 0.0
H1361 H 0.75327 0.07537 0.31906 0.0
C1362 C 0.89983 0.31184 0.75368 0.0
C1363 C 0.87204 0.31245 0.74212 0.0
C1364 C 0.85338 0.2892 0.77881 0.0
C1365 C 0.88169 0.28638 0.78916 0.0
N1366 N 0.93089 0.29861 0.79056 0.0
N1367 N 0.82154 0.30949 0.74737 0.0
C1368 C 0.90459 0.29927 0.77821 0.0
C1369 C 0.84847 0.30401 0.75627 0.0
N1370 N 0.92168 0.32199 0.74002 0.0
N1371 N 0.8316 0.27635 0.78922 0.0
H1372 H 0.8177 0.32009 0.73044 0.0
H1373 H 0.8033 0.30552 0.75808 0.0
H1374 H 0.83427 0.26512 0.8057 0.0
H1375 H 0.81128 0.27553 0.78051 0.0
H1376 H 0.94309 0.32025 0.74542 0.0
H1377 H 0.91813 0.33207 0.72258 0.0
H1378 H 0.94795 0.30894 0.78477 0.0
H1379 H 0.93542 0.2885 0.80772 0.0
C1380 C 0.77086 0.34533 0.27318 0.0
C1381 C 0.77807 0.36804 0.2814 0.0
C1382 C 0.76482 0.38344 0.23688 0.0
C1383 C 0.75964 0.36036 0.2282 0.0
N1384 N 0.76525 0.3193 0.23583 0.0
N1385 N 0.78706 0.40813 0.2703 0.0
C1386 C 0.7655 0.34128 0.2456 0.0
C1387 C 0.77676 0.38693 0.26295 0.0
N1388 N 0.76739 0.32796 0.29185 0.0
N1389 N 0.75737 0.40202 0.22084 0.0
H1390 H 0.79512 0.41142 0.28961 0.0
H1391 H 0.78959 0.42192 0.25672 0.0
H1392 H 0.75031 0.4006 0.20099 0.0
H1393 H 0.75694 0.41895 0.22771 0.0
H1394 H 0.75986 0.31153 0.28704 0.0
H1395 H 0.76848 0.33085 0.31245 0.0
H1396 H 0.77176 0.30488 0.2473 0.0
H1397 H 0.76125 0.31585 0.21552 0.0
C1398 C 0.59487 0.2942 0.72334 0.0
C1399 C 0.61956 0.28943 0.70865 0.0
C1400 C 0.65006 0.30577 0.74366 0.0
C1401 C 0.62556 0.30901 0.75926 0.0
N1402 N 0.57504 0.31514 0.76039 0.0
N1403 N 0.66809 0.29918 0.69912 0.0
C1404 C 0.59799 0.3064 0.74766 0.0
C1405 C 0.64634 0.29832 0.71687 0.0
N1406 N 0.56898 0.2858 0.71507 0.0
N1407 N 0.67672 0.30795 0.75489 0.0
H1408 H 0.66523 0.29422 0.67912 0.0
H1409 H 0.68752 0.3072 0.70336 0.0
H1410 H 0.68044 0.31337 0.77456 0.0
H1411 H 0.69511 0.30301 0.74515 0.0
H1412 H 0.55085 0.28652 0.72675 0.0
H1413 H 0.56596 0.277 0.69707 0.0
H1414 H 0.55447 0.31512 0.75211 0.0
H1415 H 0.57743 0.32463 0.778 0.0
C1416 C 0.28298 0.80262 0.08957 0.0
C1417 C 0.30199 0.79491 0.11016 0.0
C1418 C 0.27099 0.80838 0.14495 0.0
C1419 C 0.25035 0.8134 0.12449 0.0
N1420 N 0.24077 0.82519 0.07847 0.0
N1421 N 0.32058 0.79983 0.15509 0.0
C1422 C 0.2579 0.81406 0.09705 0.0
C1423 C 0.2983 0.80141 0.1371 0.0
N1424 N 0.28795 0.79752 0.06335 0.0
N1425 N 0.26394 0.80827 0.17151 0.0
H1426 H 0.34069 0.79434 0.14934 0.0
H1427 H 0.31981 0.80631 0.17451 0.0
H1428 H 0.24397 0.81322 0.17808 0.0
H1429 H 0.27746 0.80206 0.18691 0.0
H1430 H 0.27312 0.80036 0.04773 0.0
H1431 H 0.3068 0.78967 0.05756 0.0
H1432 H 0.24629 0.8277 0.05841 0.0
H1433 H 0.22252 0.83402 0.0841 0.0
C1434 C 0.2853 0.7803 0.41068 0.0
C1435 C 0.3022 0.77308 0.38918 0.0
C1436 C 0.26528 0.74677 0.37374 0.0
C1437 C 0.2467 0.75714 0.39208 0.0
N1438 N 0.23761 0.7845 0.42714 0.0
N1439 N 0.30926 0.75036 0.34958 0.0
C1440 C 0.25635 0.77388 0.41067 0.0
C1441 C 0.29266 0.75631 0.37067 0.0
N1442 N 0.29697 0.79345 0.43075 0.0
N1443 N 0.25675 0.72776 0.35961 0.0
H1444 H 0.32993 0.75661 0.34719 0.0
H1445 H 0.30199 0.74033 0.33361 0.0
H1446 H 0.23667 0.72023 0.36158 0.0
H1447 H 0.27036 0.71821 0.34784 0.0
H1448 H 0.28634 0.79747 0.44825 0.0
H1449 H 0.31828 0.79863 0.43103 0.0
H1450 H 0.24297 0.79865 0.43894 0.0
H1451 H 0.21602 0.7803 0.42762 0.0
C1452 C 0.24414 0.78245 0.86282 0.0
C1453 C 0.23688 0.79031 0.8887 0.0
C1454 C 0.25299 0.75359 0.90916 0.0
C1455 C 0.25765 0.74499 0.883 0.0
N1456 N 0.25301 0.74956 0.83466 0.0
N1457 N 0.23038 0.78264 0.93611 0.0
C1458 C 0.25195 0.75896 0.85971 0.0
C1459 C 0.24022 0.77568 0.91182 0.0
N1460 N 0.24441 0.79765 0.84136 0.0
N1461 N 0.26152 0.74091 0.93143 0.0
H1462 H 0.22109 0.7988 0.93884 0.0
H1463 H 0.22936 0.77177 0.95304 0.0
H1464 H 0.27065 0.72453 0.93028 0.0
H1465 H 0.26164 0.74731 0.95091 0.0
H1466 H 0.25243 0.79356 0.82264 0.0
H1467 H 0.23898 0.81506 0.84294 0.0
H1468 H 0.24605 0.75821 0.81713 0.0
H1469 H 0.2585 0.73233 0.83152 0.0
C1470 C 0.24267 0.75134 0.65526 0.0
C1471 C 0.23494 0.74346 0.6292 0.0
C1472 C 0.25187 0.77977 0.60899 0.0
C1473 C 0.25674 0.78851 0.63525 0.0
N1474 N 0.25244 0.78429 0.68348 0.0
N1475 N 0.22835 0.75089 0.58148 0.0
C1476 C 0.25098 0.77475 0.65845 0.0
C1477 C 0.23852 0.75785 0.60606 0.0
N1478 N 0.24289 0.73625 0.67682 0.0
N1479 N 0.2607 0.79215 0.58694 0.0
H1480 H 0.21859 0.73485 0.57857 0.0
H1481 H 0.22752 0.76165 0.56441 0.0
H1482 H 0.27042 0.80836 0.58833 0.0
H1483 H 0.26056 0.78561 0.56753 0.0
H1484 H 0.25119 0.74036 0.69577 0.0
H1485 H 0.23717 0.71887 0.67516 0.0
H1486 H 0.24542 0.77581 0.70082 0.0
H1487 H 0.25836 0.80146 0.68669 0.0
C1488 C 0.87421 0.77276 0.27089 0.0
C1489 C 0.87064 0.77878 0.24307 0.0
C1490 C 0.86622 0.73691 0.23356 0.0
C1491 C 0.87341 0.73087 0.26088 0.0
N1492 N 0.89207 0.74441 0.30357 0.0
N1493 N 0.87081 0.76534 0.19728 0.0
C1494 C 0.87976 0.74923 0.27893 0.0
C1495 C 0.86891 0.76047 0.22421 0.0
N1496 N 0.87093 0.78921 0.29 0.0
N1497 N 0.85534 0.72055 0.21669 0.0
H1498 H 0.87415 0.78206 0.18965 0.0
H1499 H 0.8723 0.7525 0.18289 0.0
H1500 H 0.85136 0.70353 0.2229 0.0
H1501 H 0.84729 0.72456 0.19743 0.0
H1502 H 0.87067 0.78524 0.31057 0.0
H1503 H 0.8652 0.80627 0.28528 0.0
H1504 H 0.89949 0.75728 0.31641 0.0
H1505 H 0.89779 0.72771 0.30982 0.0
C1506 C 0.2416 0.37059 0.74743 0.0
C1507 C 0.2272 0.39178 0.74135 0.0
C1508 C 0.26811 0.41322 0.76096 0.0
C1509 C 0.28333 0.39219 0.76525 0.0
N1510 N 0.28624 0.35104 0.75904 0.0
N1511 N 0.2296 0.43342 0.73733 0.0
C1512 C 0.27051 0.37091 0.75743 0.0
C1513 C 0.24135 0.41313 0.74666 0.0
N1514 N 0.22733 0.35012 0.74433 0.0
N1515 N 0.2788 0.43329 0.77133 0.0
H1516 H 0.21023 0.43412 0.72681 0.0
H1517 H 0.24021 0.44927 0.73784 0.0
H1518 H 0.29831 0.43414 0.78173 0.0
H1519 H 0.26731 0.44868 0.77166 0.0
H1520 H 0.23528 0.33418 0.75107 0.0
H1521 H 0.20651 0.34923 0.73665 0.0
H1522 H 0.27944 0.33534 0.75115 0.0
H1523 H 0.30718 0.35064 0.76649 0.0
C1524 C 0.60144 0.74553 0.26048 0.0
C1525 C 0.62242 0.75183 0.28015 0.0
C1526 C 0.64056 0.71172 0.2803 0.0
C1527 C 0.61789 0.70497 0.26261 0.0
N1528 N 0.5728 0.71473 0.24123 0.0
N1529 N 0.65749 0.73914 0.31346 0.0
C1530 C 0.59712 0.72169 0.25436 0.0
C1531 C 0.64066 0.73437 0.29145 0.0
N1532 N 0.58649 0.76234 0.2466 0.0
N1533 N 0.66278 0.69697 0.28553 0.0
H1534 H 0.65758 0.7552 0.32274 0.0
H1535 H 0.66907 0.72648 0.32416 0.0
H1536 H 0.66402 0.68052 0.27735 0.0
H1537 H 0.68128 0.70193 0.29589 0.0
H1538 H 0.57308 0.75885 0.23017 0.0
H1539 H 0.58966 0.77999 0.24964 0.0
H1540 H 0.55568 0.72576 0.23704 0.0
H1541 H 0.5685 0.69741 0.23708 0.0
C1542 C 0.26996 0.12106 0.74824 0.0
C1543 C 0.2844 0.14226 0.7429 0.0
C1544 C 0.24261 0.1635 0.75931 0.0
C1545 C 0.2292 0.14224 0.76669 0.0
N1546 N 0.23345 0.1009 0.77336 0.0
N1547 N 0.28622 0.1837 0.7472 0.0
C1548 C 0.24389 0.12106 0.76264 0.0
C1549 C 0.27117 0.1635 0.74956 0.0
N1550 N 0.28072 0.10085 0.73882 0.0
N1551 N 0.22774 0.18372 0.76099 0.0
H1552 H 0.30693 0.18435 0.74003 0.0
H1553 H 0.27916 0.19949 0.75431 0.0
H1554 H 0.20711 0.1844 0.7683 0.0
H1555 H 0.23491 0.19953 0.75327 0.0
H1556 H 0.26967 0.0852 0.73938 0.0
H1557 H 0.29966 0.10009 0.72828 0.0
H1558 H 0.24466 0.08535 0.7737 0.0
H1559 H 0.2147 0.10014 0.78415 0.0
C1560 C 0.25065 0.86964 0.75394 0.0
C1561 C 0.25952 0.89079 0.74129 0.0
C1562 C 0.2417 0.91166 0.78116 0.0
C1563 C 0.23521 0.89039 0.79497 0.0
N1564 N 0.23666 0.84878 0.79486 0.0
N1565 N 0.26738 0.93175 0.74545 0.0
C1566 C 0.24056 0.86931 0.78132 0.0
C1567 C 0.25608 0.91171 0.75571 0.0
N1568 N 0.2511 0.84977 0.73942 0.0
N1569 N 0.23311 0.93204 0.79185 0.0
H1570 H 0.2777 0.93256 0.72705 0.0
H1571 H 0.26869 0.94707 0.75614 0.0
H1572 H 0.2226 0.93282 0.81006 0.0
H1573 H 0.23409 0.94792 0.78161 0.0
H1574 H 0.24216 0.83419 0.74592 0.0
H1575 H 0.25853 0.84929 0.71977 0.0
H1576 H 0.24305 0.83283 0.78769 0.0
H1577 H 0.2288 0.84788 0.81434 0.0
C1578 C 0.08987 0.76502 0.27061 0.0
C1579 C 0.11585 0.76052 0.28538 0.0
C1580 C 0.14177 0.77716 0.24562 0.0
C1581 C 0.11578 0.78309 0.23178 0.0
N1582 N 0.06479 0.78503 0.23323 0.0
N1583 N 0.16677 0.76577 0.2873 0.0
C1584 C 0.0898 0.77766 0.245 0.0
C1585 C 0.1418 0.76756 0.27284 0.0
N1586 N 0.06507 0.7564 0.28063 0.0
N1587 N 0.16674 0.78007 0.23234 0.0
H1588 H 0.16807 0.75827 0.30647 0.0
H1589 H 0.18585 0.77316 0.28117 0.0
H1590 H 0.16771 0.78754 0.21307 0.0
H1591 H 0.18619 0.77356 0.23944 0.0
H1592 H 0.04576 0.75658 0.26995 0.0
H1593 H 0.06422 0.7473 0.29896 0.0
H1594 H 0.04526 0.78417 0.2427 0.0
H1595 H 0.0639 0.7937 0.21459 0.0
C1596 C 0.25492 0.62223 0.7622 0.0
C1597 C 0.25882 0.64311 0.77673 0.0
C1598 C 0.23906 0.6647 0.73646 0.0
C1599 C 0.23319 0.64365 0.7227 0.0
N1600 N 0.23065 0.602 0.72573 0.0
N1601 N 0.25062 0.68413 0.77863 0.0
C1602 C 0.23981 0.62234 0.73656 0.0
C1603 C 0.24977 0.66431 0.76402 0.0
N1604 N 0.26644 0.60217 0.77256 0.0
N1605 N 0.23505 0.68526 0.72287 0.0
H1606 H 0.25846 0.68456 0.79845 0.0
H1607 H 0.2416 0.69972 0.77198 0.0
H1608 H 0.22676 0.68621 0.70322 0.0
H1609 H 0.24178 0.70118 0.73021 0.0
H1610 H 0.26735 0.58687 0.76182 0.0
H1611 H 0.27734 0.60132 0.79109 0.0
H1612 H 0.23179 0.58612 0.73599 0.0
H1613 H 0.21953 0.60126 0.7074 0.0
C1614 C 0.36961 0.77037 0.24709 0.0
C1615 C 0.39572 0.772 0.26234 0.0
C1616 C 0.41803 0.74838 0.22662 0.0
C1617 C 0.39299 0.74951 0.20974 0.0
N1618 N 0.34604 0.76562 0.20332 0.0
N1619 N 0.44649 0.76586 0.26248 0.0
C1620 C 0.3692 0.76177 0.21988 0.0
C1621 C 0.42036 0.76186 0.2509 0.0
N1622 N 0.34465 0.77585 0.25905 0.0
N1623 N 0.43942 0.73368 0.22012 0.0
H1624 H 0.44938 0.7762 0.27933 0.0
H1625 H 0.46545 0.76098 0.2537 0.0
H1626 H 0.43833 0.72323 0.2032 0.0
H1627 H 0.45687 0.7302 0.23287 0.0
H1628 H 0.32472 0.77273 0.25024 0.0
H1629 H 0.34368 0.78105 0.27901 0.0
H1630 H 0.32906 0.77608 0.20851 0.0
H1631 H 0.34497 0.76006 0.18345 0.0
C1632 C 0.74669 0.27643 0.85821 0.0
C1633 C 0.72813 0.27271 0.88019 0.0
C1634 C 0.76409 0.2459 0.90064 0.0
C1635 C 0.78346 0.25107 0.8797 0.0
N1636 N 0.79564 0.27711 0.8435 0.0
N1637 N 0.72384 0.25887 0.92614 0.0
C1638 C 0.7754 0.26801 0.85987 0.0
C1639 C 0.73824 0.2589 0.90255 0.0
N1640 N 0.73687 0.28771 0.83545 0.0
N1641 N 0.77004 0.22832 0.91862 0.0
H1642 H 0.70551 0.26863 0.9287 0.0
H1643 H 0.73166 0.25107 0.9439 0.0
H1644 H 0.78875 0.21872 0.91822 0.0
H1645 H 0.75538 0.2221 0.93248 0.0
H1646 H 0.74855 0.28896 0.81786 0.0
H1647 H 0.71612 0.29401 0.83339 0.0
H1648 H 0.7918 0.29099 0.83021 0.0
H1649 H 0.81704 0.27262 0.84592 0.0
C1650 C 0.7612 0.28367 0.64003 0.0
C1651 C 0.77609 0.28673 0.61555 0.0
C1652 C 0.73889 0.26351 0.59235 0.0
C1653 C 0.72243 0.26231 0.61613 0.0
N1654 N 0.71716 0.2732 0.66234 0.0
N1655 N 0.77569 0.28349 0.56724 0.0
C1656 C 0.73344 0.27302 0.63988 0.0
C1657 C 0.76377 0.2779 0.59137 0.0
N1658 N 0.77401 0.29032 0.66365 0.0
N1659 N 0.73175 0.24985 0.57105 0.0
H1660 H 0.79377 0.29391 0.56572 0.0
H1661 H 0.76613 0.27963 0.54872 0.0
H1662 H 0.71452 0.23845 0.57126 0.0
H1663 H 0.74454 0.2481 0.55432 0.0
H1664 H 0.76614 0.28629 0.68261 0.0
H1665 H 0.79377 0.29862 0.6644 0.0
H1666 H 0.72247 0.28243 0.67954 0.0
H1667 H 0.69721 0.26529 0.66315 0.0
C1668 C 0.74164 0.23875 0.11343 0.0
C1669 C 0.74224 0.25047 0.1384 0.0
C1670 C 0.76043 0.21467 0.16095 0.0
C1671 C 0.76203 0.20366 0.13564 0.0
N1672 N 0.75893 0.20684 0.08717 0.0
N1673 N 0.7565 0.25065 0.18535 0.0
C1674 C 0.75402 0.21621 0.11171 0.0
C1675 C 0.75277 0.23867 0.16203 0.0
N1676 N 0.7282 0.24878 0.09147 0.0
N1677 N 0.7657 0.20202 0.18407 0.0
H1678 H 0.75133 0.26813 0.18691 0.0
H1679 H 0.76688 0.24388 0.20248 0.0
H1680 H 0.77194 0.18468 0.18401 0.0
H1681 H 0.76189 0.20811 0.20327 0.0
H1682 H 0.72421 0.24015 0.07354 0.0
H1683 H 0.71864 0.26506 0.09194 0.0
H1684 H 0.75662 0.21605 0.06901 0.0
H1685 H 0.7677 0.19044 0.08504 0.0
C1686 C 0.74796 0.25215 0.36647 0.0
C1687 C 0.76661 0.26099 0.38689 0.0
C1688 C 0.75983 0.22425 0.41228 0.0
C1689 C 0.74553 0.21407 0.3898 0.0
N1690 N 0.73367 0.218 0.34218 0.0
N1691 N 0.79627 0.25146 0.42604 0.0
C1692 C 0.74179 0.22792 0.3659 0.0
C1693 C 0.77427 0.2459 0.40893 0.0
N1694 N 0.73498 0.26684 0.34818 0.0
N1695 N 0.7588 0.2139 0.43719 0.0
H1696 H 0.80908 0.26602 0.42312 0.0
H1697 H 0.8039 0.24007 0.44107 0.0
H1698 H 0.74676 0.19905 0.44104 0.0
H1699 H 0.76703 0.2217 0.45448 0.0
H1700 H 0.71957 0.26125 0.3343 0.0
H1701 H 0.73692 0.2848 0.34906 0.0
H1702 H 0.73301 0.22722 0.32391 0.0
H1703 H 0.73103 0.20018 0.34017 0.0
C1704 C 0.15642 0.52233 0.62932 0.0
C1705 C 0.14232 0.54132 0.64094 0.0
C1706 C 0.11655 0.51442 0.67083 0.0
C1707 C 0.13028 0.49538 0.65892 0.0
N1708 N 0.15777 0.48079 0.62252 0.0
N1709 N 0.10415 0.55523 0.66781 0.0
C1710 C 0.14844 0.49924 0.63673 0.0
C1711 C 0.12075 0.53723 0.66008 0.0
N1712 N 0.17842 0.5263 0.61226 0.0
N1713 N 0.1007 0.51089 0.69333 0.0
H1714 H 0.10666 0.57207 0.66019 0.0
H1715 H 0.08629 0.55314 0.67969 0.0
H1716 H 0.09703 0.49452 0.70177 0.0
H1717 H 0.09292 0.5243 0.70481 0.0
H1718 H 0.19181 0.5133 0.60573 0.0
H1719 H 0.18459 0.54287 0.606 0.0
H1720 H 0.16875 0.48248 0.60459 0.0
H1721 H 0.15218 0.46372 0.62731 0.0
C1722 C 0.48912 0.65189 0.18022 0.0
C1723 C 0.47318 0.64097 0.15944 0.0
C1724 C 0.5057 0.60792 0.16141 0.0
C1725 C 0.52381 0.62049 0.17908 0.0
N1726 N 0.53431 0.65493 0.20431 0.0
N1727 N 0.46616 0.60926 0.12911 0.0
C1728 C 0.51583 0.64253 0.18848 0.0
C1729 C 0.4812 0.61898 0.14992 0.0
N1730 N 0.47852 0.67115 0.19211 0.0
N1731 N 0.51203 0.58547 0.15569 0.0
H1732 H 0.44769 0.61667 0.12074 0.0
H1733 H 0.47278 0.59459 0.11912 0.0
H1734 H 0.5301 0.57707 0.16358 0.0
H1735 H 0.49839 0.57461 0.14495 0.0
H1736 H 0.48776 0.67863 0.20912 0.0
H1737 H 0.45895 0.67848 0.18647 0.0
H1738 H 0.5312 0.67222 0.20904 0.0
H1739 H 0.55385 0.64846 0.21136 0.0
C1740 C 0.33062 1.00595 0.68083 0.0
C1741 C 0.34375 0.99342 0.6601 0.0
C1742 C 0.37408 0.02722 0.64993 0.0
C1743 C 0.35943 0.04027 0.66924 0.0
N1744 N 0.32091 0.04334 0.70028 0.0
N1745 N 0.37518 0.99283 0.62242 0.0
C1746 C 0.3369 0.02996 0.68393 0.0
C1747 C 0.36475 1.00427 0.64396 0.0
N1748 N 0.31273 0.99469 0.6981 0.0
N1749 N 0.39745 0.03655 0.63784 0.0
H1750 H 0.36918 0.97595 0.61771 0.0
H1751 H 0.38811 1.00058 0.60804 0.0
H1752 H 0.40461 0.05335 0.64143 0.0
H1753 H 0.41101 0.02716 0.62586 0.0
H1754 H 0.30497 1.00206 0.71545 0.0
H1755 H 0.30737 0.97723 0.69631 0.0
H1756 H 0.30224 0.03761 0.70918 0.0
H1757 H 0.32498 0.06088 0.70329 0.0
C1758 C 0.97197 0.8253 0.15572 0.0
C1759 C 0.98781 0.83561 0.13458 0.0
C1760 C 0.95045 0.86453 0.1264 0.0
C1761 C 0.93523 0.85474 0.14816 0.0
N1762 N 0.92625 0.82196 0.17734 0.0
N1763 N 0.98862 0.86001 0.09476 0.0
C1764 C 0.94421 0.83367 0.1606 0.0
C1765 C 0.97568 0.85349 0.1181 0.0
N1766 N 0.9841 0.80878 0.17234 0.0
N1767 N 0.94168 0.88502 0.1148 0.0
H1768 H 0.00707 0.85197 0.08827 0.0
H1769 H 0.97972 0.87168 0.08072 0.0
H1770 H 0.92291 0.89324 0.12008 0.0
H1771 H 0.95371 0.89446 0.10105 0.0
H1772 H 0.97478 0.80275 0.19 0.0
H1773 H 0.00438 0.80211 0.16954 0.0
H1774 H 0.9306 0.80554 0.18543 0.0
H1775 H 0.90564 0.82773 0.18079 0.0
C1776 C 0.12815 0.99932 0.85686 0.0
C1777 C 0.15063 0.99448 0.87573 0.0
C1778 C 0.15893 0.03641 0.88024 0.0
C1779 C 0.13941 0.04098 0.8585 0.0
N1780 N 0.10711 0.0265 0.8243 0.0
N1781 N 0.18916 1.00833 0.904 0.0
C1782 C 0.12421 0.02236 0.84651 0.0
C1783 C 0.16631 0.01304 0.88729 0.0
N1784 N 0.11036 0.9818 0.84904 0.0
N1785 N 0.1701 0.05448 0.89443 0.0
H1786 H 0.19492 0.99155 0.91001 0.0
H1787 H 0.20356 0.0209 0.91047 0.0
H1788 H 0.16505 0.07172 0.88987 0.0
H1789 H 0.18221 0.05236 0.91212 0.0
H1790 H 0.09189 0.98444 0.83743 0.0
H1791 H 0.11266 0.96481 0.85631 0.0
H1792 H 0.09813 0.01342 0.81271 0.0
H1793 H 0.10356 0.04305 0.81615 0.0
C1794 C 0.96955 0.64778 0.37545 0.0
C1795 C 0.95148 0.65648 0.3544 0.0
C1796 C 0.98442 0.68849 0.34573 0.0
C1797 C 0.00215 0.68015 0.36727 0.0
N1798 N 0.00901 0.65529 0.40642 0.0
N1799 N 0.93796 0.68749 0.32363 0.0
C1800 C 0.99383 0.66087 0.3834 0.0
C1801 C 0.95769 0.67771 0.34095 0.0
N1802 N 0.96415 0.62658 0.38698 0.0
N1803 N 0.99375 0.70588 0.32902 0.0
H1804 H 0.91807 0.68003 0.31986 0.0
H1805 H 0.94021 0.70389 0.31487 0.0
H1806 H 0.01319 0.71435 0.33188 0.0
H1807 H 0.98329 0.71081 0.31111 0.0
H1808 H 0.97831 0.61807 0.40019 0.0
H1809 H 0.9462 0.61675 0.382 0.0
H1810 H 0.0025 0.6428 0.42039 0.0
H1811 H 0.02691 0.66461 0.41277 0.0
C1812 C 0.36694 0.52971 0.8711 0.0
C1813 C 0.34414 0.54063 0.85651 0.0
C1814 C 0.3349 0.50438 0.83235 0.0
C1815 C 0.35921 0.49412 0.84522 0.0
N1816 N 0.40073 0.49789 0.87416 0.0
N1817 N 0.30905 0.53961 0.82037 0.0
C1818 C 0.37586 0.50703 0.86391 0.0
C1819 C 0.32882 0.52827 0.83635 0.0
N1820 N 0.37956 0.5408 0.89234 0.0
N1821 N 0.31709 0.49107 0.81688 0.0
H1822 H 0.30387 0.557 0.82275 0.0
H1823 H 0.29947 0.5324 0.80337 0.0
H1824 H 0.32083 0.47359 0.81339 0.0
H1825 H 0.2974 0.49675 0.80936 0.0
H1826 H 0.39411 0.53291 0.90568 0.0
H1827 H 0.37381 0.55744 0.89797 0.0
H1828 H 0.41549 0.5073 0.88547 0.0
H1829 H 0.40775 0.48131 0.86962 0.0
C1830 C 0.48604 0.84688 0.33476 0.0
C1831 C 0.47735 0.85945 0.35728 0.0
C1832 C 0.52282 0.88015 0.35823 0.0
C1833 C 0.53331 0.86446 0.33918 0.0
N1834 N 0.5253 0.83118 0.3108 0.0
N1835 N 0.48685 0.88777 0.3913 0.0
C1836 C 0.51496 0.84752 0.32755 0.0
C1837 C 0.49541 0.87631 0.36906 0.0
N1838 N 0.46658 0.83414 0.32044 0.0
N1839 N 0.53917 0.89858 0.36596 0.0
H1840 H 0.46656 0.88573 0.39916 0.0
H1841 H 0.50025 0.8983 0.40274 0.0
H1842 H 0.5594 0.90171 0.35837 0.0
H1843 H 0.53181 0.91176 0.37802 0.0
H1844 H 0.47102 0.8264 0.30221 0.0
H1845 H 0.44516 0.83327 0.32538 0.0
H1846 H 0.51374 0.81663 0.30495 0.0
H1847 H 0.546 0.83117 0.30398 0.0
C1848 C 0.64702 0.13294 0.51775 0.0
C1849 C 0.64675 0.15749 0.51876 0.0
C1850 C 0.66197 0.16018 0.47199 0.0
C1851 C 0.66136 0.13569 0.47074 0.0
N1852 N 0.64516 0.09925 0.48935 0.0
N1853 N 0.6453 0.19417 0.4946 0.0
C1854 C 0.65105 0.12223 0.49262 0.0
C1855 C 0.65147 0.17104 0.49512 0.0
N1856 N 0.64514 0.11985 0.54087 0.0
N1857 N 0.67355 0.17304 0.45159 0.0
H1858 H 0.63666 0.20257 0.51096 0.0
H1859 H 0.64589 0.20444 0.47713 0.0
H1860 H 0.68128 0.16568 0.43423 0.0
H1861 H 0.67751 0.19076 0.45286 0.0
H1862 H 0.64826 0.10198 0.54149 0.0
H1863 H 0.64299 0.12698 0.55985 0.0
H1864 H 0.63511 0.08909 0.50389 0.0
H1865 H 0.64792 0.09094 0.47109 0.0
C1866 C 0.85972 0.13296 0.01648 0.0
C1867 C 0.834 0.12015 0.01581 0.0
C1868 C 0.83344 0.12157 0.96661 0.0
C1869 C 0.85539 0.13844 0.96766 0.0
N1870 N 0.88911 0.16116 0.99361 0.0
N1871 N 0.79648 0.10111 0.99094 0.0
C1872 C 0.86899 0.14402 0.99253 0.0
C1873 C 0.82114 0.11369 0.99102 0.0
N1874 N 0.87483 0.1349 0.04019 0.0
N1875 N 0.82433 0.1134 0.94223 0.0
H1876 H 0.7876 0.0945 0.00859 0.0
H1877 H 0.78419 0.09808 0.97364 0.0
H1878 H 0.83327 0.11895 0.92414 0.0
H1879 H 0.80991 0.09982 0.94008 0.0
H1880 H 0.89508 0.14224 0.04151 0.0
H1881 H 0.86828 0.12712 0.05818 0.0
H1882 H 0.89703 0.16794 0.01158 0.0
H1883 H 0.89661 0.16987 0.97661 0.0
C1884 C 0.89394 0.37294 0.48872 0.0
C1885 C 0.87566 0.3709 0.51114 0.0
C1886 C 0.84038 0.39448 0.48629 0.0
C1887 C 0.85361 0.3877 0.46268 0.0
N1888 N 0.90052 0.38863 0.44403 0.0
N1889 N 0.83564 0.38712 0.53422 0.0
C1890 C 0.88321 0.38404 0.46506 0.0
C1891 C 0.85035 0.38452 0.51109 0.0
N1892 N 0.92011 0.36279 0.48868 0.0
N1893 N 0.82053 0.41162 0.48493 0.0
H1894 H 0.8436 0.3812 0.55288 0.0
H1895 H 0.81559 0.39477 0.53462 0.0
H1896 H 0.81485 0.41946 0.46644 0.0
H1897 H 0.81159 0.41882 0.50187 0.0
H1898 H 0.93311 0.36382 0.47188 0.0
H1899 H 0.9283 0.3528 0.50466 0.0
H1900 H 0.89304 0.39644 0.42615 0.0
H1901 H 0.89304 0.39644 0.42615 0.0
C1902 C 0.63816 0.30465 0.0263 0.0
C1903 C 0.63291 0.3228 0.00717 0.0
C1904 C 0.63925 0.35125 0.04257 0.0
C1905 C 0.65039 0.33357 0.05986 0.0
N1906 N 0.66093 0.29332 0.06885 0.0
N1907 N 0.63214 0.36393 0.99638 0.0
C1908 C 0.64965 0.31013 0.05208 0.0
C1909 C 0.63392 0.3463 0.01513 0.0
N1910 N 0.63198 0.28228 0.01975 0.0
N1911 N 0.63436 0.37283 0.05228 0.0
H1912 H 0.62949 0.36133 0.97577 0.0
H1913 H 0.63602 0.3812 1.00102 0.0
H1914 H 0.6381 0.37693 0.07242 0.0
H1915 H 0.6239 0.3858 0.04107 0.0
H1916 H 0.63313 0.26849 0.03357 0.0
H1917 H 0.62307 0.27789 1.00108 0.0
H1918 H 0.664 0.27628 0.06301 0.0
H1919 H 0.66881 0.29673 0.0882 0.0
C1920 C 0.86307 0.50966 0.36622 0.0
C1921 C 0.84989 0.52034 0.34307 0.0
C1922 C 0.82877 0.48239 0.33116 0.0
C1923 C 0.84015 0.4721 0.35539 0.0
N1924 N 0.86499 0.4769 0.39787 0.0
N1925 N 0.81695 0.51753 0.30542 0.0
C1926 C 0.85652 0.48603 0.37339 0.0
C1927 C 0.83183 0.50683 0.3261 0.0
N1928 N 0.88245 0.522 0.38109 0.0
N1929 N 0.8158 0.46858 0.31245 0.0
H1930 H 0.81897 0.53515 0.30082 0.0
H1931 H 0.80099 0.50943 0.29416 0.0
H1932 H 0.81317 0.45077 0.31537 0.0
H1933 H 0.80979 0.47431 0.29315 0.0
H1934 H 0.89532 0.51469 0.39632 0.0
H1935 H 0.8872 0.53934 0.3769 0.0
H1936 H 0.87414 0.48665 0.41323 0.0
H1937 H 0.86091 0.45977 0.40368 0.0
C1938 C 0.4919 0.34793 0.8281 0.0
C1939 C 0.47988 0.36621 0.843 0.0
C1940 C 0.52007 0.36244 0.87579 0.0
C1941 C 0.53408 0.34644 0.85909 0.0
N1942 N 0.53417 0.32602 0.8172 0.0
N1943 N 0.48658 0.39423 0.87798 0.0
C1944 C 0.52017 0.3398 0.8346 0.0
C1945 C 0.49525 0.37448 0.8659 0.0
N1946 N 0.47596 0.33775 0.80822 0.0
N1947 N 0.52964 0.36545 0.90167 0.0
H1948 H 0.46891 0.40372 0.87112 0.0
H1949 H 0.49851 0.40229 0.8931 0.0
H1950 H 0.54686 0.35627 0.91006 0.0
H1951 H 0.51869 0.37521 0.91553 0.0
H1952 H 0.4822 0.32282 0.79851 0.0
H1953 H 0.4553 0.34302 0.80305 0.0
H1954 H 0.52651 0.32244 0.79787 0.0
H1955 H 0.55459 0.31964 0.82127 0.0
C1956 C 0.68992 0.98733 0.37394 0.0
C1957 C 0.66934 1.0051 0.36977 0.0
C1958 C 0.63494 0.97582 0.35347 0.0
C1959 C 0.65655 0.95856 0.35466 0.0
N1960 N 0.70593 0.94879 0.36302 0.0
N1961 N 0.62315 0.01682 0.35255 0.0
C1962 C 0.68437 0.96456 0.36423 0.0
C1963 C 0.64204 0.99947 0.35879 0.0
N1964 N 0.71466 0.99212 0.38778 0.0
N1965 N 0.60736 0.96949 0.34818 0.0
H1966 H 0.62733 0.03419 0.35656 0.0
H1967 H 0.60427 0.01426 0.34161 0.0
H1968 H 0.60129 0.95242 0.34458 0.0
H1969 H 0.59018 0.9807 0.3498 0.0
H1970 H 0.72921 0.97947 0.39413 0.0
H1971 H 0.71946 1.00852 0.39512 0.0
H1972 H 0.72727 0.95291 0.36646 0.0
H1973 H 0.70285 0.93193 0.35647 0.0
C1974 C 0.02319 0.18916 0.82714 0.0
C1975 C 0.03384 0.16744 0.83691 0.0
C1976 C 0.9898 0.16208 0.8629 0.0
C1977 C 0.9781 0.18286 0.8514 0.0
N1978 N 0.98261 0.21506 0.82033 0.0
N1979 N 0.02544 0.13168 0.8612 0.0
C1980 C 0.9946 0.19609 0.83291 0.0
C1981 C 0.01658 0.15351 0.85401 0.0
N1982 N 0.04075 0.20344 0.81279 0.0
N1983 N 0.97562 0.15078 0.88299 0.0
H1984 H 0.04502 0.12499 0.85568 0.0
H1985 H 0.01259 0.11953 0.87085 0.0
H1986 H 0.95599 0.15627 0.88978 0.0
H1987 H 0.98427 0.13715 0.89447 0.0
H1988 H 0.03574 0.22049 0.80744 0.0
H1989 H 0.0614 0.19875 0.80785 0.0
H1990 H 0.99198 0.22412 0.8045 0.0
H1991 H 0.96219 0.22089 0.82453 0.0
C1992 C 0.8171 0.02929 0.18483 0.0
C1993 C 0.82505 0.03895 0.1595 0.0
C1994 C 0.84935 1.0022 0.14955 0.0
C1995 C 0.83897 0.99175 0.17361 0.0
N1996 N 0.80864 0.99457 0.21201 0.0
N1997 N 0.84389 0.03255 0.11542 0.0
C1998 C 0.82175 1.00514 0.19074 0.0
C1999 C 0.83982 0.0248 0.14122 0.0
N2000 N 0.80537 0.0433 0.20348 0.0
N2001 N 0.86922 0.99088 0.13503 0.0
H2002 H 0.83723 0.04881 0.10844 0.0
H2003 H 0.85154 0.0221 0.10032 0.0
H2004 H 0.87718 0.97461 0.14067 0.0
H2005 H 0.87987 0.99857 0.11897 0.0
H2006 H 0.80194 0.0381 0.22335 0.0
H2007 H 0.80116 0.06081 0.19966 0.0
H2008 H 0.79344 1.00268 0.22351 0.0
H2009 H 0.811 0.977 0.21672 0.0
C2010 C 0.02363 0.34949 0.65358 0.0
C2011 C 0.02682 0.36902 0.6705 0.0
C2012 C 0.97437 0.37025 0.67228 0.0
C2013 C 0.97134 0.35315 0.65208 0.0
N2014 N 0.99618 0.3352 0.61568 0.0
N2015 N 0.00259 0.40357 0.68468 0.0
C2016 C 0.99691 0.3454 0.64024 0.0
C2017 C 0.0014 0.38117 0.67656 0.0
N2018 N 0.04567 0.33455 0.65031 0.0
N2019 N 0.95194 0.376 0.68775 0.0
H2020 H 0.02162 0.41291 0.68538 0.0
H2021 H 0.98426 0.4133 0.68766 0.0
H2022 H 0.93234 0.36752 0.68641 0.0
H2023 H 0.95407 0.38754 0.70361 0.0
H2024 H 0.04336 0.31948 0.63917 0.0
H2025 H 0.06495 0.336 0.66098 0.0
H2026 H 0.0147 0.3306 0.60585 0.0
H2027 H 0.97744 0.33386 0.60414 0.0
C2028 C 0.6857 0.47616 0.15985 0.0
C2029 C 0.6643 0.45919 0.15503 0.0
C2030 C 0.62784 0.4895 0.15879 0.0
C2031 C 0.64898 0.5055 0.16761 0.0
N2032 N 0.69794 0.51234 0.18119 0.0
N2033 N 0.61433 0.44919 0.15451 0.0
C2034 C 0.67794 0.4984 0.16929 0.0
C2035 C 0.63515 0.46573 0.15559 0.0
N2036 N 0.7135 0.47123 0.15482 0.0
N2037 N 0.60087 0.4971 0.15283 0.0
H2038 H 0.61863 0.43157 0.15289 0.0
H2039 H 0.59296 0.45272 0.15777 0.0
H2040 H 0.59489 0.51441 0.15435 0.0
H2041 H 0.58533 0.48673 0.1438 0.0
H2042 H 0.72964 0.48363 0.15549 0.0
H2043 H 0.71993 0.4554 0.1472 0.0
H2044 H 0.71871 0.50695 0.18554 0.0
H2045 H 0.69317 0.52842 0.18916 0.0
C2046 C 0.49522 0.15642 0.64736 0.0
C2047 C 0.47838 0.16908 0.66544 0.0
C2048 C 0.51612 0.19925 0.66706 0.0
C2049 C 0.53199 0.18735 0.64751 0.0
N2050 N 0.53402 0.15642 0.61571 0.0
N2051 N 0.4711 0.20412 0.68984 0.0
C2052 C 0.52071 0.16645 0.63672 0.0
C2053 C 0.48842 0.19095 0.67454 0.0
N2054 N 0.48726 0.13439 0.6409 0.0
N2055 N 0.52789 0.21824 0.67904 0.0
H2056 H 0.45111 0.19848 0.69603 0.0
H2057 H 0.47551 0.22121 0.69476 0.0
H2058 H 0.54758 0.22508 0.67361 0.0
H2059 H 0.51918 0.22629 0.69553 0.0
H2060 H 0.50005 0.12315 0.63037 0.0
H2061 H 0.46874 0.1266 0.64799 0.0
H2062 H 0.52541 0.14274 0.60485 0.0
H2063 H 0.55268 0.16305 0.6076 0.0
C2064 C 0.33678 0.8409 0.51472 0.0
C2065 C 0.35453 0.85529 0.49836 0.0
C2066 C 0.35234 0.88522 0.53411 0.0
C2067 C 0.33649 0.87012 0.55128 0.0
N2068 N 0.31703 0.8321 0.5589 0.0
N2069 N 0.38262 0.8901 0.49504 0.0
C2070 C 0.32974 0.84754 0.54176 0.0
C2071 C 0.3631 0.87721 0.50881 0.0
N2072 N 0.32554 0.82118 0.50398 0.0
N2073 N 0.35674 0.90756 0.54179 0.0
H2074 H 0.39104 0.8849 0.47685 0.0
H2075 H 0.39232 0.9049 0.50265 0.0
H2076 H 0.35 0.91378 0.5602 0.0
H2077 H 0.36508 0.92038 0.52921 0.0
H2078 H 0.31002 0.81117 0.51332 0.0
H2079 H 0.32993 0.81583 0.48455 0.0
H2080 H 0.3144 0.8146 0.55476 0.0
H2081 H 0.31103 0.83643 0.57829 0.0
C2082 C 0.12729 0.86905 0.02497 0.0
C2083 C 0.14281 0.85122 0.03924 0.0
C2084 C 0.1728 0.84798 0.99814 0.0
C2085 C 0.15913 0.86741 0.9852 0.0
N2086 N 0.12685 0.89929 0.99 0.0
N2087 N 0.18346 0.82588 0.03955 0.0
C2088 C 0.1374 0.87871 0.99976 0.0
C2089 C 0.16644 0.84134 0.02573 0.0
N2090 N 0.10193 0.87619 0.03481 0.0
N2091 N 0.19149 0.83531 0.98373 0.0
H2092 H 0.1799 0.82084 0.05948 0.0
H2093 H 0.20232 0.81942 0.0321 0.0
H2094 H 0.19684 0.83967 0.96398 0.0
H2095 H 0.19984 0.81947 0.99039 0.0
H2096 H 0.08809 0.88726 0.02415 0.0
H2097 H 0.09343 0.86926 0.05246 0.0
H2098 H 0.11329 0.90969 1.00086 0.0
H2099 H 0.1338 0.90701 0.97213 0.0
C2100 C 0.1644 0.69097 0.52287 0.0
C2101 C 0.15328 0.66946 0.53249 0.0
C2102 C 0.12421 0.66754 0.48966 0.0
C2103 C 0.13731 0.68798 0.47883 0.0
N2104 N 0.17316 0.71755 0.48538 0.0
N2105 N 0.12534 0.63561 0.52269 0.0
C2106 C 0.15824 0.69923 0.49563 0.0
C2107 C 0.13394 0.65735 0.51515 0.0
N2108 N 0.1804 0.70408 0.54019 0.0
N2109 N 0.10156 0.65818 0.47598 0.0
H2110 H 0.1316 0.62781 0.541 0.0
H2111 H 0.11398 0.62462 0.50998 0.0
H2112 H 0.09377 0.66507 0.45769 0.0
H2113 H 0.08895 0.64492 0.48379 0.0
H2114 H 0.18631 0.72114 0.53604 0.0
H2115 H 0.18584 0.69855 0.55977 0.0
H2116 H 0.19126 0.72443 0.49473 0.0
H2117 H 0.1686 0.7251 0.46666 0.0
C2118 C 0.33923 0.6955 1.00325 0.0
C2119 C 0.35672 0.6815 0.02088 0.0
C2120 C 0.35525 0.65083 0.98595 0.0
C2121 C 0.33914 0.66536 0.96774 0.0
N2122 N 0.31941 0.70302 0.95801 0.0
N2123 N 0.38467 0.64691 0.02701 0.0
C2124 C 0.3322 0.68812 0.9762 0.0
C2125 C 0.3656 0.65945 0.01157 0.0
N2126 N 0.3285 0.71569 0.01271 0.0
N2127 N 0.36019 0.62844 0.97899 0.0
H2128 H 0.39232 0.65247 0.04571 0.0
H2129 H 0.3946 0.63198 0.02055 0.0
H2130 H 0.35373 0.62181 0.96041 0.0
H2131 H 0.36884 0.61597 0.99216 0.0
H2132 H 0.31307 0.72553 1.00244 0.0
H2133 H 0.33357 0.72182 0.03187 0.0
H2134 H 0.31661 0.7206 0.96142 0.0
H2135 H 0.31346 0.69816 0.93854 0.0
loop_
_geom_bond_atom_site_label_1
_geom_bond_atom_site_label_2
_geom_bond_distance
_geom_bond_site_symmetry_2
_ccdc_geom_bond_type
C0 C1 1.443 . S
C0 N4 1.376 . S
C0 C38 1.389 . S
C1 C0 1.443 . S
C1 C2 1.340 . S
C1 H41 0.951 . S
C2 C1 1.340 . S
C2 C3 1.439 . S
C2 H42 0.950 . S
C3 C2 1.439 . S
C3 N4 1.374 . S
C3 C37 1.395 . S
N4 C0 1.376 . S
N4 C3 1.374 . S
N4 Co5 2.008 . S
Co5 N4 2.008 . S
Co5 N6 1.995 . S
Co5 N11 2.008 . S
Co5 N16 1.995 . S
Co5 N21 2.282 . S
Co5 N27 2.282 . S
N6 Co5 1.995 . S
N6 C7 1.376 . S
N6 C10 1.383 . S
C7 N6 1.376 . S
C7 C8 1.446 . S
C7 C37 1.391 . S
C8 C7 1.446 . S
C8 C9 1.339 . S
C8 H43 0.949 . S
C9 C8 1.339 . S
C9 C10 1.439 . S
C9 H44 0.950 . S
C10 N6 1.383 . S
C10 C9 1.439 . S
C10 C39 1.392 . S
N11 Co5 2.008 . S
N11 C12 1.376 . S
N11 C15 1.374 . S
C12 N11 1.376 . S
C12 C13 1.443 . S
C12 C39 1.389 . S
C13 C12 1.443 . S
C13 C14 1.340 . S
C13 H45 0.951 . S
C14 C13 1.340 . S
C14 C15 1.439 . S
C14 H46 0.950 . S
C15 N11 1.374 . S
C15 C14 1.439 . S
C15 C40 1.395 . S
N16 Co5 1.995 . S
N16 C17 1.376 . S
N16 C20 1.383 . S
C17 N16 1.376 . S
C17 C18 1.446 . S
C17 C40 1.391 . S
C18 C17 1.446 . S
C18 C19 1.339 . S
C18 H47 0.949 . S
C19 C18 1.339 . S
C19 C20 1.439 . S
C19 H48 0.950 . S
C20 N16 1.383 . S
C20 C19 1.439 . S
C20 C38 1.392 . S
N21 Co5 2.282 . S
N21 C24 1.332 . S
N21 C26 1.332 . S
C22 C23 1.386 . S
C22 C25 1.388 . S
C23 C22 1.386 . S
C23 C24 1.382 . S
C23 H49 0.950 . S
C24 N21 1.332 . S
C24 C23 1.382 . S
C24 H35 0.952 . S
C25 C22 1.388 . S
C25 C26 1.382 . S
C25 H50 0.950 . S
C26 N21 1.332 . S
C26 C25 1.382 . S
C26 H36 0.948 . S
N27 Co5 2.282 . S
N27 C31 1.332 . S
N27 C32 1.332 . S
C28 C29 1.388 . S
C28 C32 1.382 . S
C28 H51 0.950 . S
C29 C28 1.388 . S
C29 C30 1.386 . S
C30 C29 1.386 . S
C30 C31 1.382 . S
C30 H52 0.950 . S
C31 N27 1.332 . S
C31 C30 1.382 . S
C31 H33 0.952 . S
C32 N27 1.332 . S
C32 C28 1.382 . S
C32 H34 0.948 . S
H33 C31 0.952 . S
H34 C32 0.948 . S
H35 C24 0.952 . S
H36 C26 0.948 . S
C37 C3 1.395 . S
C37 C7 1.391 . S
C38 C0 1.389 . S
C38 C20 1.392 . S
C39 C10 1.392 . S
C39 C12 1.389 . S
C40 C15 1.395 . S
C40 C17 1.391 . S
H41 C1 0.951 . S
H42 C2 0.950 . S
H43 C8 0.949 . S
H44 C9 0.950 . S
H45 C13 0.951 . S
H46 C14 0.950 . S
H47 C18 0.949 . S
H48 C19 0.950 . S
H49 C23 0.950 . S
H50 C25 0.950 . S
H51 C28 0.950 . S
H52 C30 0.950 . S
C53 C54 1.443 . S
C53 N57 1.376 . S
C53 C91 1.389 . S
C54 C53 1.443 . S
C54 C55 1.340 . S
C54 H94 0.951 . S
C55 C54 1.340 . S
C55 C56 1.439 . S
C55 H95 0.950 . S
C56 C55 1.439 . S
C56 N57 1.374 . S
C56 C90 1.395 . S
N57 C53 1.376 . S
N57 C56 1.374 . S
N57 Co58 2.008 . S
Co58 N57 2.008 . S
Co58 N59 1.995 . S
Co58 N64 2.008 . S
Co58 N69 1.995 . S
Co58 N74 2.282 . S
Co58 N80 2.282 . S
N59 Co58 1.995 . S
N59 C60 1.376 . S
N59 C63 1.383 . S
C60 N59 1.376 . S
C60 C61 1.446 . S
C60 C90 1.391 . S
C61 C60 1.446 . S
C61 C62 1.339 . S
C61 H96 0.949 . S
C62 C61 1.339 . S
C62 C63 1.439 . S
C62 H97 0.950 . S
C63 N59 1.383 . S
C63 C62 1.439 . S
C63 C92 1.392 . S
N64 Co58 2.008 . S
N64 C65 1.376 . S
N64 C68 1.374 . S
C65 N64 1.376 . S
C65 C66 1.443 . S
C65 C92 1.389 . S
C66 C65 1.443 . S
C66 C67 1.340 . S
C66 H98 0.951 . S
C67 C66 1.340 . S
C67 C68 1.439 . S
C67 H99 0.950 . S
C68 N64 1.374 . S
C68 C67 1.439 . S
C68 C93 1.395 . S
N69 Co58 1.995 . S
N69 C70 1.376 . S
N69 C73 1.383 . S
C70 N69 1.376 . S
C70 C71 1.446 . S
C70 C93 1.391 . S
C71 C70 1.446 . S
C71 C72 1.339 . S
C71 H100 0.949 . S
C72 C71 1.339 . S
C72 C73 1.439 . S
C72 H101 0.950 . S
C73 N69 1.383 . S
C73 C72 1.439 . S
C73 C91 1.392 . S
N74 Co58 2.282 . S
N74 C77 1.332 . S
N74 C79 1.332 . S
C75 C76 1.386 . S
C75 C78 1.388 . S
C76 C75 1.386 . S
C76 C77 1.382 . S
C76 H102 0.950 . S
C77 N74 1.332 . S
C77 C76 1.382 . S
C77 H88 0.952 . S
C78 C75 1.388 . S
C78 C79 1.382 . S
C78 H103 0.950 . S
C79 N74 1.332 . S
C79 C78 1.382 . S
C79 H89 0.948 . S
N80 Co58 2.282 . S
N80 C84 1.332 . S
N80 C85 1.332 . S
C81 C82 1.388 . S
C81 C85 1.382 . S
C81 H104 0.950 . S
C82 C81 1.388 . S
C82 C83 1.386 . S
C83 C82 1.386 . S
C83 C84 1.382 . S
C83 H105 0.950 . S
C84 N80 1.332 . S
C84 C83 1.382 . S
C84 H86 0.952 . S
C85 N80 1.332 . S
C85 C81 1.382 . S
C85 H87 0.948 . S
H86 C84 0.952 . S
H87 C85 0.948 . S
H88 C77 0.952 . S
H89 C79 0.948 . S
C90 C56 1.395 . S
C90 C60 1.391 . S
C91 C53 1.389 . S
C91 C73 1.392 . S
C92 C63 1.392 . S
C92 C65 1.389 . S
C93 C68 1.395 . S
C93 C70 1.391 . S
H94 C54 0.951 . S
H95 C55 0.950 . S
H96 C61 0.949 . S
H97 C62 0.950 . S
H98 C66 0.951 . S
H99 C67 0.950 . S
H100 C71 0.949 . S
H101 C72 0.950 . S
H102 C76 0.950 . S
H103 C78 0.950 . S
H104 C81 0.950 . S
H105 C83 0.950 . S
C106 C107 1.443 . S
C106 N110 1.376 . S
C106 C144 1.389 . S
C107 C106 1.443 . S
C107 C108 1.340 . S
C107 H147 0.951 . S
C108 C107 1.340 . S
C108 C109 1.439 . S
C108 H148 0.950 . S
C109 C108 1.439 . S
C109 N110 1.374 . S
C109 C143 1.395 . S
N110 C106 1.376 . S
N110 C109 1.374 . S
N110 Co111 2.008 . S
Co111 N110 2.008 . S
Co111 N112 1.995 . S
Co111 N117 2.008 . S
Co111 N122 1.995 . S
Co111 N127 2.282 . S
Co111 N133 2.282 . S
N112 Co111 1.995 . S
N112 C113 1.376 . S
N112 C116 1.383 . S
C113 N112 1.376 . S
C113 C114 1.446 . S
C113 C143 1.391 . S
C114 C113 1.446 . S
C114 C115 1.339 . S
C114 H149 0.949 . S
C115 C114 1.339 . S
C115 C116 1.439 . S
C115 H150 0.950 . S
C116 N112 1.383 . S
C116 C115 1.439 . S
C116 C145 1.392 . S
N117 Co111 2.008 . S
N117 C118 1.376 . S
N117 C121 1.374 . S
C118 N117 1.376 . S
C118 C119 1.443 . S
C118 C145 1.389 . S
C119 C118 1.443 . S
C119 C120 1.340 . S
C119 H151 0.951 . S
C120 C119 1.340 . S
C120 C121 1.439 . S
C120 H152 0.950 . S
C121 N117 1.374 . S
C121 C120 1.439 . S
C121 C146 1.395 . S
N122 Co111 1.995 . S
N122 C123 1.376 . S
N122 C126 1.383 . S
C123 N122 1.376 . S
C123 C124 1.446 . S
C123 C146 1.391 . S
C124 C123 1.446 . S
C124 C125 1.339 . S
C124 H153 0.949 . S
C125 C124 1.339 . S
C125 C126 1.439 . S
C125 H154 0.950 . S
C126 N122 1.383 . S
C126 C125 1.439 . S
C126 C144 1.392 . S
N127 Co111 2.282 . S
N127 C130 1.332 . S
N127 C132 1.332 . S
C128 C129 1.386 . S
C128 C131 1.388 . S
C129 C128 1.386 . S
C129 C130 1.382 . S
C129 H155 0.950 . S
C130 N127 1.332 . S
C130 C129 1.382 . S
C130 H141 0.952 . S
C131 C128 1.388 . S
C131 C132 1.382 . S
C131 H156 0.950 . S
C132 N127 1.332 . S
C132 C131 1.382 . S
C132 H142 0.948 . S
N133 Co111 2.282 . S
N133 C137 1.332 . S
N133 C138 1.332 . S
C134 C135 1.388 . S
C134 C138 1.382 . S
C134 H157 0.950 . S
C135 C134 1.388 . S
C135 C136 1.386 . S
C136 C135 1.386 . S
C136 C137 1.382 . S
C136 H158 0.950 . S
C137 N133 1.332 . S
C137 C136 1.382 . S
C137 H139 0.952 . S
C138 N133 1.332 . S
C138 C134 1.382 . S
C138 H140 0.948 . S
H139 C137 0.952 . S
H140 C138 0.948 . S
H141 C130 0.952 . S
H142 C132 0.948 . S
C143 C109 1.395 . S
C143 C113 1.391 . S
C144 C106 1.389 . S
C144 C126 1.392 . S
C145 C116 1.392 . S
C145 C118 1.389 . S
C146 C121 1.395 . S
C146 C123 1.391 . S
H147 C107 0.951 . S
H148 C108 0.950 . S
H149 C114 0.949 . S
H150 C115 0.950 . S
H151 C119 0.951 . S
H152 C120 0.950 . S
H153 C124 0.949 . S
H154 C125 0.950 . S
H155 C129 0.950 . S
H156 C131 0.950 . S
H157 C134 0.950 . S
H158 C136 0.950 . S
C159 C160 1.443 . S
C159 N163 1.376 . S
C159 C197 1.389 . S
C160 C159 1.443 . S
C160 C161 1.340 . S
C160 H200 0.951 . S
C161 C160 1.340 . S
C161 C162 1.439 . S
C161 H201 0.950 . S
C162 C161 1.439 . S
C162 N163 1.374 . S
C162 C196 1.395 . S
N163 C159 1.376 . S
N163 C162 1.374 . S
N163 Co164 2.008 . S
Co164 N163 2.008 . S
Co164 N165 1.995 . S
Co164 N170 2.008 . S
Co164 N175 1.995 . S
Co164 N180 2.282 . S
Co164 N186 2.282 . S
N165 Co164 1.995 . S
N165 C166 1.376 . S
N165 C169 1.383 . S
C166 N165 1.376 . S
C166 C167 1.446 . S
C166 C196 1.391 . S
C167 C166 1.446 . S
C167 C168 1.339 . S
C167 H202 0.949 . S
C168 C167 1.339 . S
C168 C169 1.439 . S
C168 H203 0.950 . S
C169 N165 1.383 . S
C169 C168 1.439 . S
C169 C198 1.392 . S
N170 Co164 2.008 . S
N170 C171 1.376 . S
N170 C174 1.374 . S
C171 N170 1.376 . S
C171 C172 1.443 . S
C171 C198 1.389 . S
C172 C171 1.443 . S
C172 C173 1.340 . S
C172 H204 0.951 . S
C173 C172 1.340 . S
C173 C174 1.439 . S
C173 H205 0.950 . S
C174 N170 1.374 . S
C174 C173 1.439 . S
C174 C199 1.395 . S
N175 Co164 1.995 . S
N175 C176 1.376 . S
N175 C179 1.383 . S
C176 N175 1.376 . S
C176 C177 1.446 . S
C176 C199 1.391 . S
C177 C176 1.446 . S
C177 C178 1.339 . S
C177 H206 0.949 . S
C178 C177 1.339 . S
C178 C179 1.439 . S
C178 H207 0.950 . S
C179 N175 1.383 . S
C179 C178 1.439 . S
C179 C197 1.392 . S
N180 Co164 2.282 . S
N180 C183 1.332 . S
N180 C185 1.332 . S
C181 C182 1.386 . S
C181 C184 1.388 . S
C182 C181 1.386 . S
C182 C183 1.382 . S
C182 H208 0.950 . S
C183 N180 1.332 . S
C183 C182 1.382 . S
C183 H194 0.952 . S
C184 C181 1.388 . S
C184 C185 1.382 . S
C184 H209 0.950 . S
C185 N180 1.332 . S
C185 C184 1.382 . S
C185 H195 0.948 . S
N186 Co164 2.282 . S
N186 C190 1.332 . S
N186 C191 1.332 . S
C187 C188 1.388 . S
C187 C191 1.382 . S
C187 H210 0.950 . S
C188 C187 1.388 . S
C188 C189 1.386 . S
C189 C188 1.386 . S
C189 C190 1.382 . S
C189 H211 0.950 . S
C190 N186 1.332 . S
C190 C189 1.382 . S
C190 H192 0.952 . S
C191 N186 1.332 . S
C191 C187 1.382 . S
C191 H193 0.948 . S
H192 C190 0.952 . S
H193 C191 0.948 . S
H194 C183 0.952 . S
H195 C185 0.948 . S
C196 C162 1.395 . S
C196 C166 1.391 . S
C197 C159 1.389 . S
C197 C179 1.392 . S
C198 C169 1.392 . S
C198 C171 1.389 . S
C199 C174 1.395 . S
C199 C176 1.391 . S
H200 C160 0.951 . S
H201 C161 0.950 . S
H202 C167 0.949 . S
H203 C168 0.950 . S
H204 C172 0.951 . S
H205 C173 0.950 . S
H206 C177 0.949 . S
H207 C178 0.950 . S
H208 C182 0.950 . S
H209 C184 0.950 . S
H210 C187 0.950 . S
H211 C189 0.950 . S
C212 C213 1.443 . S
C212 N216 1.376 . S
C212 C250 1.389 . S
C213 C212 1.443 . S
C213 C214 1.340 . S
C213 H253 0.951 . S
C214 C213 1.340 . S
C214 C215 1.439 . S
C214 H254 0.950 . S
C215 C214 1.439 . S
C215 N216 1.374 . S
C215 C249 1.395 . S
N216 C212 1.376 . S
N216 C215 1.374 . S
N216 Co217 2.008 . S
Co217 N216 2.008 . S
Co217 N218 1.995 . S
Co217 N223 2.008 . S
Co217 N228 1.995 . S
Co217 N233 2.282 . S
Co217 N239 2.282 . S
N218 Co217 1.995 . S
N218 C219 1.376 . S
N218 C222 1.383 . S
C219 N218 1.376 . S
C219 C220 1.446 . S
C219 C249 1.391 . S
C220 C219 1.446 . S
C220 C221 1.339 . S
C220 H255 0.949 . S
C221 C220 1.339 . S
C221 C222 1.439 . S
C221 H256 0.950 . S
C222 N218 1.383 . S
C222 C221 1.439 . S
C222 C251 1.392 . S
N223 Co217 2.008 . S
N223 C224 1.376 . S
N223 C227 1.374 . S
C224 N223 1.376 . S
C224 C225 1.443 . S
C224 C251 1.389 . S
C225 C224 1.443 . S
C225 C226 1.340 . S
C225 H257 0.951 . S
C226 C225 1.340 . S
C226 C227 1.439 . S
C226 H258 0.950 . S
C227 N223 1.374 . S
C227 C226 1.439 . S
C227 C252 1.395 . S
N228 Co217 1.995 . S
N228 C229 1.376 . S
N228 C232 1.383 . S
C229 N228 1.376 . S
C229 C230 1.446 . S
C229 C252 1.391 . S
C230 C229 1.446 . S
C230 C231 1.339 . S
C230 H259 0.949 . S
C231 C230 1.339 . S
C231 C232 1.439 . S
C231 H260 0.950 . S
C232 N228 1.383 . S
C232 C231 1.439 . S
C232 C250 1.392 . S
N233 Co217 2.282 . S
N233 C236 1.332 . S
N233 C238 1.332 . S
C234 C235 1.386 . S
C234 C237 1.388 . S
C235 C234 1.386 . S
C235 C236 1.382 . S
C235 H261 0.950 . S
C236 N233 1.332 . S
C236 C235 1.382 . S
C236 H247 0.952 . S
C237 C234 1.388 . S
C237 C238 1.382 . S
C237 H262 0.950 . S
C238 N233 1.332 . S
C238 C237 1.382 . S
C238 H248 0.948 . S
N239 Co217 2.282 . S
N239 C243 1.332 . S
N239 C244 1.332 . S
C240 C241 1.388 . S
C240 C244 1.382 . S
C240 H263 0.950 . S
C241 C240 1.388 . S
C241 C242 1.386 . S
C242 C241 1.386 . S
C242 C243 1.382 . S
C242 H264 0.950 . S
C243 N239 1.332 . S
C243 C242 1.382 . S
C243 H245 0.952 . S
C244 N239 1.332 . S
C244 C240 1.382 . S
C244 H246 0.948 . S
H245 C243 0.952 . S
H246 C244 0.948 . S
H247 C236 0.952 . S
H248 C238 0.948 . S
C249 C215 1.395 . S
C249 C219 1.391 . S
C250 C212 1.389 . S
C250 C232 1.392 . S
C251 C222 1.392 . S
C251 C224 1.389 . S
C252 C227 1.395 . S
C252 C229 1.391 . S
H253 C213 0.951 . S
H254 C214 0.950 . S
H255 C220 0.949 . S
H256 C221 0.950 . S
H257 C225 0.951 . S
H258 C226 0.950 . S
H259 C230 0.949 . S
H260 C231 0.950 . S
H261 C235 0.950 . S
H262 C237 0.950 . S
H263 C240 0.950 . S
H264 C242 0.950 . S
C265 C266 1.443 . S
C265 N269 1.376 . S
C265 C303 1.389 . S
C266 C265 1.443 . S
C266 C267 1.340 . S
C266 H306 0.951 . S
C267 C266 1.340 . S
C267 C268 1.439 . S
C267 H307 0.950 . S
C268 C267 1.439 . S
C268 N269 1.374 . S
C268 C302 1.395 . S
N269 C265 1.376 . S
N269 C268 1.374 . S
N269 Co270 2.008 . S
Co270 N269 2.008 . S
Co270 N271 1.995 . S
Co270 N276 2.008 . S
Co270 N281 1.995 . S
Co270 N286 2.282 . S
Co270 N292 2.282 . S
N271 Co270 1.995 . S
N271 C272 1.376 . S
N271 C275 1.383 . S
C272 N271 1.376 . S
C272 C273 1.446 . S
C272 C302 1.391 . S
C273 C272 1.446 . S
C273 C274 1.339 . S
C273 H308 0.949 . S
C274 C273 1.339 . S
C274 C275 1.439 . S
C274 H309 0.950 . S
C275 N271 1.383 . S
C275 C274 1.439 . S
C275 C304 1.392 . S
N276 Co270 2.008 . S
N276 C277 1.376 . S
N276 C280 1.374 . S
C277 N276 1.376 . S
C277 C278 1.443 . S
C277 C304 1.389 . S
C278 C277 1.443 . S
C278 C279 1.340 . S
C278 H310 0.951 . S
C279 C278 1.340 . S
C279 C280 1.439 . S
C279 H311 0.950 . S
C280 N276 1.374 . S
C280 C279 1.439 . S
C280 C305 1.395 . S
N281 Co270 1.995 . S
N281 C282 1.376 . S
N281 C285 1.383 . S
C282 N281 1.376 . S
C282 C283 1.446 . S
C282 C305 1.391 . S
C283 C282 1.446 . S
C283 C284 1.339 . S
C283 H312 0.949 . S
C284 C283 1.339 . S
C284 C285 1.439 . S
C284 H313 0.950 . S
C285 N281 1.383 . S
C285 C284 1.439 . S
C285 C303 1.392 . S
N286 Co270 2.282 . S
N286 C289 1.332 . S
N286 C291 1.332 . S
C287 C288 1.386 . S
C287 C290 1.388 . S
C288 C287 1.386 . S
C288 C289 1.382 . S
C288 H314 0.950 . S
C289 N286 1.332 . S
C289 C288 1.382 . S
C289 H300 0.952 . S
C290 C287 1.388 . S
C290 C291 1.382 . S
C290 H315 0.950 . S
C291 N286 1.332 . S
C291 C290 1.382 . S
C291 H301 0.948 . S
N292 Co270 2.282 . S
N292 C296 1.332 . S
N292 C297 1.332 . S
C293 C294 1.388 . S
C293 C297 1.382 . S
C293 H316 0.950 . S
C294 C293 1.388 . S
C294 C295 1.386 . S
C295 C294 1.386 . S
C295 C296 1.382 . S
C295 H317 0.950 . S
C296 N292 1.332 . S
C296 C295 1.382 . S
C296 H298 0.952 . S
C297 N292 1.332 . S
C297 C293 1.382 . S
C297 H299 0.948 . S
H298 C296 0.952 . S
H299 C297 0.948 . S
H300 C289 0.952 . S
H301 C291 0.948 . S
C302 C268 1.395 . S
C302 C272 1.391 . S
C303 C265 1.389 . S
C303 C285 1.392 . S
C304 C275 1.392 . S
C304 C277 1.389 . S
C305 C280 1.395 . S
C305 C282 1.391 . S
H306 C266 0.951 . S
H307 C267 0.950 . S
H308 C273 0.949 . S
H309 C274 0.950 . S
H310 C278 0.951 . S
H311 C279 0.950 . S
H312 C283 0.949 . S
H313 C284 0.950 . S
H314 C288 0.950 . S
H315 C290 0.950 . S
H316 C293 0.950 . S
H317 C295 0.950 . S
C318 C319 1.443 . S
C318 N322 1.376 . S
C318 C356 1.389 . S
C319 C318 1.443 . S
C319 C320 1.340 . S
C319 H359 0.951 . S
C320 C319 1.340 . S
C320 C321 1.439 . S
C320 H360 0.950 . S
C321 C320 1.439 . S
C321 N322 1.374 . S
C321 C355 1.395 . S
N322 C318 1.376 . S
N322 C321 1.374 . S
N322 Co323 2.008 . S
Co323 N322 2.008 . S
Co323 N324 1.995 . S
Co323 N329 2.008 . S
Co323 N334 1.995 . S
Co323 N339 2.282 . S
Co323 N345 2.282 . S
N324 Co323 1.995 . S
N324 C325 1.376 . S
N324 C328 1.383 . S
C325 N324 1.376 . S
C325 C326 1.446 . S
C325 C355 1.391 . S
C326 C325 1.446 . S
C326 C327 1.339 . S
C326 H361 0.949 . S
C327 C326 1.339 . S
C327 C328 1.439 . S
C327 H362 0.950 . S
C328 N324 1.383 . S
C328 C327 1.439 . S
C328 C357 1.392 . S
N329 Co323 2.008 . S
N329 C330 1.376 . S
N329 C333 1.374 . S
C330 N329 1.376 . S
C330 C331 1.443 . S
C330 C357 1.389 . S
C331 C330 1.443 . S
C331 C332 1.340 . S
C331 H363 0.951 . S
C332 C331 1.340 . S
C332 C333 1.439 . S
C332 H364 0.950 . S
C333 N329 1.374 . S
C333 C332 1.439 . S
C333 C358 1.395 . S
N334 Co323 1.995 . S
N334 C335 1.376 . S
N334 C338 1.383 . S
C335 N334 1.376 . S
C335 C336 1.446 . S
C335 C358 1.391 . S
C336 C335 1.446 . S
C336 C337 1.339 . S
C336 H365 0.949 . S
C337 C336 1.339 . S
C337 C338 1.439 . S
C337 H366 0.950 . S
C338 N334 1.383 . S
C338 C337 1.439 . S
C338 C356 1.392 . S
N339 Co323 2.282 . S
N339 C342 1.332 . S
N339 C344 1.332 . S
C340 C341 1.386 . S
C340 C343 1.388 . S
C341 C340 1.386 . S
C341 C342 1.382 . S
C341 H367 0.950 . S
C342 N339 1.332 . S
C342 C341 1.382 . S
C342 H353 0.952 . S
C343 C340 1.388 . S
C343 C344 1.382 . S
C343 H368 0.950 . S
C344 N339 1.332 . S
C344 C343 1.382 . S
C344 H354 0.948 . S
N345 Co323 2.282 . S
N345 C349 1.332 . S
N345 C350 1.332 . S
C346 C347 1.388 . S
C346 C350 1.382 . S
C346 H369 0.950 . S
C347 C346 1.388 . S
C347 C348 1.386 . S
C348 C347 1.386 . S
C348 C349 1.382 . S
C348 H370 0.950 . S
C349 N345 1.332 . S
C349 C348 1.382 . S
C349 H351 0.952 . S
C350 N345 1.332 . S
C350 C346 1.382 . S
C350 H352 0.948 . S
H351 C349 0.952 . S
H352 C350 0.948 . S
H353 C342 0.952 . S
H354 C344 0.948 . S
C355 C321 1.395 . S
C355 C325 1.391 . S
C356 C318 1.389 . S
C356 C338 1.392 . S
C357 C328 1.392 . S
C357 C330 1.389 . S
C358 C333 1.395 . S
C358 C335 1.391 . S
H359 C319 0.951 . S
H360 C320 0.950 . S
H361 C326 0.949 . S
H362 C327 0.950 . S
H363 C331 0.951 . S
H364 C332 0.950 . S
H365 C336 0.949 . S
H366 C337 0.950 . S
H367 C341 0.950 . S
H368 C343 0.950 . S
H369 C346 0.950 . S
H370 C348 0.950 . S
C371 C372 1.443 . S
C371 N375 1.376 . S
C371 C409 1.389 . S
C372 C371 1.443 . S
C372 C373 1.340 . S
C372 H412 0.951 . S
C373 C372 1.340 . S
C373 C374 1.439 . S
C373 H413 0.950 . S
C374 C373 1.439 . S
C374 N375 1.374 . S
C374 C408 1.395 . S
N375 C371 1.376 . S
N375 C374 1.374 . S
N375 Co376 2.008 . S
Co376 N375 2.008 . S
Co376 N377 1.995 . S
Co376 N382 2.008 . S
Co376 N387 1.995 . S
Co376 N392 2.282 . S
Co376 N398 2.282 . S
N377 Co376 1.995 . S
N377 C378 1.376 . S
N377 C381 1.383 . S
C378 N377 1.376 . S
C378 C379 1.446 . S
C378 C408 1.391 . S
C379 C378 1.446 . S
C379 C380 1.339 . S
C379 H414 0.949 . S
C380 C379 1.339 . S
C380 C381 1.439 . S
C380 H415 0.950 . S
C381 N377 1.383 . S
C381 C380 1.439 . S
C381 C410 1.392 . S
N382 Co376 2.008 . S
N382 C383 1.376 . S
N382 C386 1.374 . S
C383 N382 1.376 . S
C383 C384 1.443 . S
C383 C410 1.389 . S
C384 C383 1.443 . S
C384 C385 1.340 . S
C384 H416 0.951 . S
C385 C384 1.340 . S
C385 C386 1.439 . S
C385 H417 0.950 . S
C386 N382 1.374 . S
C386 C385 1.439 . S
C386 C411 1.395 . S
N387 Co376 1.995 . S
N387 C388 1.376 . S
N387 C391 1.383 . S
C388 N387 1.376 . S
C388 C389 1.446 . S
C388 C411 1.391 . S
C389 C388 1.446 . S
C389 C390 1.339 . S
C389 H418 0.949 . S
C390 C389 1.339 . S
C390 C391 1.439 . S
C390 H419 0.950 . S
C391 N387 1.383 . S
C391 C390 1.439 . S
C391 C409 1.392 . S
N392 Co376 2.282 . S
N392 C395 1.332 . S
N392 C397 1.332 . S
C393 C394 1.386 . S
C393 C396 1.388 . S
C394 C393 1.386 . S
C394 C395 1.382 . S
C394 H420 0.950 . S
C395 N392 1.332 . S
C395 C394 1.382 . S
C395 H406 0.952 . S
C396 C393 1.388 . S
C396 C397 1.382 . S
C396 H421 0.950 . S
C397 N392 1.332 . S
C397 C396 1.382 . S
C397 H407 0.948 . S
N398 Co376 2.282 . S
N398 C402 1.332 . S
N398 C403 1.332 . S
C399 C400 1.388 . S
C399 C403 1.382 . S
C399 H422 0.950 . S
C400 C399 1.388 . S
C400 C401 1.386 . S
C401 C400 1.386 . S
C401 C402 1.382 . S
C401 H423 0.950 . S
C402 N398 1.332 . S
C402 C401 1.382 . S
C402 H404 0.952 . S
C403 N398 1.332 . S
C403 C399 1.382 . S
C403 H405 0.948 . S
H404 C402 0.952 . S
H405 C403 0.948 . S
H406 C395 0.952 . S
H407 C397 0.948 . S
C408 C374 1.395 . S
C408 C378 1.391 . S
C409 C371 1.389 . S
C409 C391 1.392 . S
C410 C381 1.392 . S
C410 C383 1.389 . S
C411 C386 1.395 . S
C411 C388 1.391 . S
H412 C372 0.951 . S
H413 C373 0.950 . S
H414 C379 0.949 . S
H415 C380 0.950 . S
H416 C384 0.951 . S
H417 C385 0.950 . S
H418 C389 0.949 . S
H419 C390 0.950 . S
H420 C394 0.950 . S
H421 C396 0.950 . S
H422 C399 0.950 . S
H423 C401 0.950 . S
C424 C425 1.443 . S
C424 N428 1.376 . S
C424 C462 1.389 . S
C425 C424 1.443 . S
C425 C426 1.340 . S
C425 H465 0.951 . S
C426 C425 1.340 . S
C426 C427 1.439 . S
C426 H466 0.950 . S
C427 C426 1.439 . S
C427 N428 1.374 . S
C427 C461 1.395 . S
N428 C424 1.376 . S
N428 C427 1.374 . S
N428 Co429 2.008 . S
Co429 N428 2.008 . S
Co429 N430 1.995 . S
Co429 N435 2.008 . S
Co429 N440 1.995 . S
Co429 N445 2.282 . S
Co429 N451 2.282 . S
N430 Co429 1.995 . S
N430 C431 1.376 . S
N430 C434 1.383 . S
C431 N430 1.376 . S
C431 C432 1.446 . S
C431 C461 1.391 . S
C432 C431 1.446 . S
C432 C433 1.339 . S
C432 H467 0.949 . S
C433 C432 1.339 . S
C433 C434 1.439 . S
C433 H468 0.950 . S
C434 N430 1.383 . S
C434 C433 1.439 . S
C434 C463 1.392 . S
N435 Co429 2.008 . S
N435 C436 1.376 . S
N435 C439 1.374 . S
C436 N435 1.376 . S
C436 C437 1.443 . S
C436 C463 1.389 . S
C437 C436 1.443 . S
C437 C438 1.340 . S
C437 H469 0.951 . S
C438 C437 1.340 . S
C438 C439 1.439 . S
C438 H470 0.950 . S
C439 N435 1.374 . S
C439 C438 1.439 . S
C439 C464 1.395 . S
N440 Co429 1.995 . S
N440 C441 1.376 . S
N440 C444 1.383 . S
C441 N440 1.376 . S
C441 C442 1.446 . S
C441 C464 1.391 . S
C442 C441 1.446 . S
C442 C443 1.339 . S
C442 H471 0.949 . S
C443 C442 1.339 . S
C443 C444 1.439 . S
C443 H472 0.950 . S
C444 N440 1.383 . S
C444 C443 1.439 . S
C444 C462 1.392 . S
N445 Co429 2.282 . S
N445 C448 1.332 . S
N445 C450 1.332 . S
C446 C447 1.386 . S
C446 C449 1.388 . S
C447 C446 1.386 . S
C447 C448 1.382 . S
C447 H473 0.950 . S
C448 N445 1.332 . S
C448 C447 1.382 . S
C448 H459 0.952 . S
C449 C446 1.388 . S
C449 C450 1.382 . S
C449 H474 0.950 . S
C450 N445 1.332 . S
C450 C449 1.382 . S
C450 H460 0.948 . S
N451 Co429 2.282 . S
N451 C455 1.332 . S
N451 C456 1.332 . S
C452 C453 1.388 . S
C452 C456 1.382 . S
C452 H475 0.950 . S
C453 C452 1.388 . S
C453 C454 1.386 . S
C454 C453 1.386 . S
C454 C455 1.382 . S
C454 H476 0.950 . S
C455 N451 1.332 . S
C455 C454 1.382 . S
C455 H457 0.952 . S
C456 N451 1.332 . S
C456 C452 1.382 . S
C456 H458 0.948 . S
H457 C455 0.952 . S
H458 C456 0.948 . S
H459 C448 0.952 . S
H460 C450 0.948 . S
C461 C427 1.395 . S
C461 C431 1.391 . S
C462 C424 1.389 . S
C462 C444 1.392 . S
C463 C434 1.392 . S
C463 C436 1.389 . S
C464 C439 1.395 . S
C464 C441 1.391 . S
H465 C425 0.951 . S
H466 C426 0.950 . S
H467 C432 0.949 . S
H468 C433 0.950 . S
H469 C437 0.951 . S
H470 C438 0.950 . S
H471 C442 0.949 . S
H472 C443 0.950 . S
H473 C447 0.950 . S
H474 C449 0.950 . S
H475 C452 0.950 . S
H476 C454 0.950 . S
C477 C478 1.443 . S
C477 N481 1.376 . S
C477 C515 1.389 . S
C478 C477 1.443 . S
C478 C479 1.340 . S
C478 H518 0.951 1_655 S
C479 C478 1.340 . S
C479 C480 1.439 . S
C479 H519 0.950 . S
C480 C479 1.439 . S
C480 N481 1.374 . S
C480 C514 1.395 . S
N481 C477 1.376 . S
N481 C480 1.374 . S
N481 Co482 2.008 . S
Co482 N481 2.008 . S
Co482 N483 1.995 . S
Co482 N488 2.008 . S
Co482 N493 1.995 . S
Co482 N498 2.282 . S
Co482 N504 2.282 . S
N483 Co482 1.995 . S
N483 C484 1.376 . S
N483 C487 1.383 . S
C484 N483 1.376 . S
C484 C485 1.446 . S
C484 C514 1.391 . S
C485 C484 1.446 . S
C485 C486 1.339 . S
C485 H520 0.949 . S
C486 C485 1.339 . S
C486 C487 1.439 . S
C486 H521 0.950 . S
C487 N483 1.383 . S
C487 C486 1.439 . S
C487 C516 1.392 . S
N488 Co482 2.008 . S
N488 C489 1.376 . S
N488 C492 1.374 . S
C489 N488 1.376 . S
C489 C490 1.443 . S
C489 C516 1.389 . S
C490 C489 1.443 . S
C490 C491 1.340 . S
C490 H522 0.951 . S
C491 C490 1.340 . S
C491 C492 1.439 . S
C491 H523 0.950 . S
C492 N488 1.374 . S
C492 C491 1.439 . S
C492 C517 1.395 . S
N493 Co482 1.995 . S
N493 C494 1.376 . S
N493 C497 1.383 . S
C494 N493 1.376 . S
C494 C495 1.446 . S
C494 C517 1.391 . S
C495 C494 1.446 . S
C495 C496 1.339 . S
C495 H524 0.949 . S
C496 C495 1.339 . S
C496 C497 1.439 . S
C496 H525 0.950 . S
C497 N493 1.383 . S
C497 C496 1.439 . S
C497 C515 1.392 . S
N498 Co482 2.282 . S
N498 C501 1.332 . S
N498 C503 1.332 . S
C499 C500 1.386 . S
C499 C502 1.388 . S
C500 C499 1.386 . S
C500 C501 1.382 . S
C500 H526 0.950 . S
C501 N498 1.332 . S
C501 C500 1.382 . S
C501 H512 0.952 . S
C502 C499 1.388 . S
C502 C503 1.382 . S
C502 H527 0.950 . S
C503 N498 1.332 . S
C503 C502 1.382 . S
C503 H513 0.948 . S
N504 Co482 2.282 . S
N504 C508 1.332 . S
N504 C509 1.332 . S
C505 C506 1.388 . S
C505 C509 1.382 . S
C505 H528 0.950 . S
C506 C505 1.388 . S
C506 C507 1.386 . S
C507 C506 1.386 . S
C507 C508 1.382 . S
C507 H529 0.950 . S
C508 N504 1.332 . S
C508 C507 1.382 . S
C508 H510 0.952 . S
C509 N504 1.332 . S
C509 C505 1.382 . S
C509 H511 0.948 . S
H510 C508 0.952 . S
H511 C509 0.948 . S
H512 C501 0.952 . S
H513 C503 0.948 . S
C514 C480 1.395 . S
C514 C484 1.391 . S
C515 C477 1.389 . S
C515 C497 1.392 . S
C516 C487 1.392 . S
C516 C489 1.389 . S
C517 C492 1.395 . S
C517 C494 1.391 . S
H518 C478 0.951 1_455 S
H519 C479 0.950 . S
H520 C485 0.949 . S
H521 C486 0.950 . S
H522 C490 0.951 . S
H523 C491 0.950 . S
H524 C495 0.949 . S
H525 C496 0.950 . S
H526 C500 0.950 . S
H527 C502 0.950 . S
H528 C505 0.950 . S
H529 C507 0.950 . S
C530 C531 1.443 . S
C530 N534 1.376 . S
C530 C568 1.389 . S
C531 C530 1.443 . S
C531 C532 1.340 . S
C531 H571 0.951 . S
C532 C531 1.340 . S
C532 C533 1.439 . S
C532 H572 0.950 . S
C533 C532 1.439 . S
C533 N534 1.374 . S
C533 C567 1.395 . S
N534 C530 1.376 . S
N534 C533 1.374 . S
N534 Co535 2.008 . S
Co535 N534 2.008 . S
Co535 N536 1.995 . S
Co535 N541 2.008 . S
Co535 N546 1.995 . S
Co535 N551 2.282 . S
Co535 N557 2.282 . S
N536 Co535 1.995 . S
N536 C537 1.376 . S
N536 C540 1.383 . S
C537 N536 1.376 . S
C537 C538 1.446 . S
C537 C567 1.391 . S
C538 C537 1.446 . S
C538 C539 1.339 . S
C538 H573 0.949 . S
C539 C538 1.339 . S
C539 C540 1.439 . S
C539 H574 0.950 . S
C540 N536 1.383 . S
C540 C539 1.439 . S
C540 C569 1.392 . S
N541 Co535 2.008 . S
N541 C542 1.376 . S
N541 C545 1.374 . S
C542 N541 1.376 . S
C542 C543 1.443 . S
C542 C569 1.389 . S
C543 C542 1.443 . S
C543 C544 1.340 . S
C543 H575 0.951 . S
C544 C543 1.340 . S
C544 C545 1.439 . S
C544 H576 0.950 . S
C545 N541 1.374 . S
C545 C544 1.439 . S
C545 C570 1.395 . S
N546 Co535 1.995 . S
N546 C547 1.376 . S
N546 C550 1.383 . S
C547 N546 1.376 . S
C547 C548 1.446 . S
C547 C570 1.391 . S
C548 C547 1.446 . S
C548 C549 1.339 . S
C548 H577 0.949 . S
C549 C548 1.339 . S
C549 C550 1.439 . S
C549 H578 0.950 . S
C550 N546 1.383 . S
C550 C549 1.439 . S
C550 C568 1.392 . S
N551 Co535 2.282 . S
N551 C554 1.332 . S
N551 C556 1.332 . S
C552 C553 1.386 . S
C552 C555 1.388 . S
C553 C552 1.386 . S
C553 C554 1.382 . S
C553 H579 0.950 . S
C554 N551 1.332 . S
C554 C553 1.382 . S
C554 H565 0.952 . S
C555 C552 1.388 . S
C555 C556 1.382 . S
C555 H580 0.950 . S
C556 N551 1.332 . S
C556 C555 1.382 . S
C556 H566 0.948 . S
N557 Co535 2.282 . S
N557 C561 1.332 . S
N557 C562 1.332 . S
C558 C559 1.388 . S
C558 C562 1.382 . S
C558 H581 0.950 . S
C559 C558 1.388 . S
C559 C560 1.386 . S
C560 C559 1.386 . S
C560 C561 1.382 . S
C560 H582 0.950 . S
C561 N557 1.332 . S
C561 C560 1.382 . S
C561 H563 0.952 . S
C562 N557 1.332 . S
C562 C558 1.382 . S
C562 H564 0.948 . S
H563 C561 0.952 . S
H564 C562 0.948 . S
H565 C554 0.952 . S
H566 C556 0.948 . S
C567 C533 1.395 . S
C567 C537 1.391 . S
C568 C530 1.389 . S
C568 C550 1.392 . S
C569 C540 1.392 . S
C569 C542 1.389 . S
C570 C545 1.395 . S
C570 C547 1.391 . S
H571 C531 0.951 . S
H572 C532 0.950 . S
H573 C538 0.949 . S
H574 C539 0.950 . S
H575 C543 0.951 . S
H576 C544 0.950 . S
H577 C548 0.949 . S
H578 C549 0.950 . S
H579 C553 0.950 . S
H580 C555 0.950 . S
H581 C558 0.950 . S
H582 C560 0.950 . S
C583 C584 1.443 . S
C583 N587 1.376 . S
C583 C621 1.389 . S
C584 C583 1.443 . S
C584 C585 1.340 . S
C584 H624 0.951 . S
C585 C584 1.340 . S
C585 C586 1.439 . S
C585 H625 0.950 . S
C586 C585 1.439 . S
C586 N587 1.374 . S
C586 C620 1.395 . S
N587 C583 1.376 . S
N587 C586 1.374 . S
N587 Co588 2.008 . S
Co588 N587 2.008 . S
Co588 N589 1.995 . S
Co588 N594 2.008 . S
Co588 N599 1.995 . S
Co588 N604 2.282 . S
Co588 N610 2.282 . S
N589 Co588 1.995 . S
N589 C590 1.376 . S
N589 C593 1.383 . S
C590 N589 1.376 . S
C590 C591 1.446 . S
C590 C620 1.391 . S
C591 C590 1.446 . S
C591 C592 1.339 . S
C591 H626 0.949 . S
C592 C591 1.339 . S
C592 C593 1.439 . S
C592 H627 0.950 . S
C593 N589 1.383 . S
C593 C592 1.439 . S
C593 C622 1.392 . S
N594 Co588 2.008 . S
N594 C595 1.376 . S
N594 C598 1.374 . S
C595 N594 1.376 . S
C595 C596 1.443 . S
C595 C622 1.389 . S
C596 C595 1.443 . S
C596 C597 1.340 . S
C596 H628 0.951 . S
C597 C596 1.340 . S
C597 C598 1.439 . S
C597 H629 0.950 . S
C598 N594 1.374 . S
C598 C597 1.439 . S
C598 C623 1.395 . S
N599 Co588 1.995 . S
N599 C600 1.376 . S
N599 C603 1.383 . S
C600 N599 1.376 . S
C600 C601 1.446 . S
C600 C623 1.391 . S
C601 C600 1.446 . S
C601 C602 1.339 . S
C601 H630 0.949 . S
C602 C601 1.339 . S
C602 C603 1.439 . S
C602 H631 0.950 . S
C603 N599 1.383 . S
C603 C602 1.439 . S
C603 C621 1.392 . S
N604 Co588 2.282 . S
N604 C607 1.332 . S
N604 C609 1.332 . S
C605 C606 1.386 . S
C605 C608 1.388 . S
C606 C605 1.386 . S
C606 C607 1.382 . S
C606 H632 0.950 . S
C607 N604 1.332 . S
C607 C606 1.382 . S
C607 H618 0.952 . S
C608 C605 1.388 . S
C608 C609 1.382 . S
C608 H633 0.978 . S
C609 N604 1.332 . S
C609 C608 1.382 . S
C609 H619 0.948 . S
N610 Co588 2.282 . S
N610 C614 1.332 . S
N610 C615 1.332 . S
C611 C612 1.388 . S
C611 C615 1.382 . S
C611 H634 0.950 . S
C612 C611 1.388 . S
C612 C613 1.386 . S
C613 C612 1.386 . S
C613 C614 1.382 . S
C613 H635 0.950 . S
C614 N610 1.332 . S
C614 C613 1.382 . S
C614 H616 0.952 . S
C615 N610 1.332 . S
C615 C611 1.382 . S
C615 H617 0.948 . S
H616 C614 0.952 . S
H617 C615 0.948 . S
H618 C607 0.952 . S
H619 C609 0.948 . S
C620 C586 1.395 . S
C620 C590 1.391 . S
C621 C583 1.389 . S
C621 C603 1.392 . S
C622 C593 1.392 . S
C622 C595 1.389 . S
C623 C598 1.395 . S
C623 C600 1.391 . S
H624 C584 0.951 . S
H625 C585 0.950 . S
H626 C591 0.949 . S
H627 C592 0.950 . S
H628 C596 0.951 . S
H629 C597 0.950 . S
H630 C601 0.949 . S
H631 C602 0.950 . S
H632 C606 0.950 . S
H633 C608 0.978 . S
H634 C611 0.950 . S
H635 C613 0.950 . S
C636 C637 1.443 . S
C636 N640 1.376 . S
C636 C674 1.389 . S
C637 C636 1.443 . S
C637 C638 1.340 . S
C637 H677 0.951 . S
C638 C637 1.340 . S
C638 C639 1.439 . S
C638 H678 0.950 . S
C639 C638 1.439 . S
C639 N640 1.374 . S
C639 C673 1.395 . S
N640 C636 1.376 . S
N640 C639 1.374 . S
N640 Co641 2.008 . S
Co641 N640 2.008 . S
Co641 N642 1.995 . S
Co641 N647 2.008 . S
Co641 N652 1.995 . S
Co641 N657 2.282 . S
Co641 N663 2.282 . S
N642 Co641 1.995 . S
N642 C643 1.376 . S
N642 C646 1.383 . S
C643 N642 1.376 . S
C643 C644 1.446 . S
C643 C673 1.391 . S
C644 C643 1.446 . S
C644 C645 1.339 . S
C644 H679 0.949 . S
C645 C644 1.339 . S
C645 C646 1.439 . S
C645 H680 0.950 . S
C646 N642 1.383 . S
C646 C645 1.439 . S
C646 C675 1.392 . S
N647 Co641 2.008 . S
N647 C648 1.376 . S
N647 C651 1.374 . S
C648 N647 1.376 . S
C648 C649 1.443 . S
C648 C675 1.389 . S
C649 C648 1.443 . S
C649 C650 1.340 . S
C649 H681 0.951 . S
C650 C649 1.340 . S
C650 C651 1.439 . S
C650 H682 0.950 . S
C651 N647 1.374 . S
C651 C650 1.439 . S
C651 C676 1.395 . S
N652 Co641 1.995 . S
N652 C653 1.376 . S
N652 C656 1.383 . S
C653 N652 1.376 . S
C653 C654 1.446 . S
C653 C676 1.391 . S
C654 C653 1.446 . S
C654 C655 1.339 . S
C654 H683 0.949 . S
C655 C654 1.339 . S
C655 C656 1.439 . S
C655 H684 0.950 . S
C656 N652 1.383 . S
C656 C655 1.439 . S
C656 C674 1.392 . S
N657 Co641 2.282 . S
N657 C660 1.332 . S
N657 C662 1.332 . S
C658 C659 1.386 . S
C658 C661 1.388 . S
C659 C658 1.386 . S
C659 C660 1.382 . S
C659 H685 0.950 . S
C660 N657 1.332 . S
C660 C659 1.382 . S
C660 H671 0.952 . S
C661 C658 1.388 . S
C661 C662 1.382 . S
C661 H686 0.950 . S
C662 N657 1.332 . S
C662 C661 1.382 . S
C662 H672 0.948 . S
N663 Co641 2.282 . S
N663 C667 1.332 . S
N663 C668 1.332 . S
C664 C665 1.388 . S
C664 C668 1.382 . S
C664 H687 0.950 . S
C665 C664 1.388 . S
C665 C666 1.386 . S
C666 C665 1.386 . S
C666 C667 1.382 . S
C666 H688 0.950 . S
C667 N663 1.332 . S
C667 C666 1.382 . S
C667 H669 0.952 . S
C668 N663 1.332 . S
C668 C664 1.382 . S
C668 H670 0.948 . S
H669 C667 0.952 . S
H670 C668 0.948 . S
H671 C660 0.952 . S
H672 C662 0.948 . S
C673 C639 1.395 . S
C673 C643 1.391 . S
C674 C636 1.389 . S
C674 C656 1.392 . S
C675 C646 1.392 . S
C675 C648 1.389 . S
C676 C651 1.395 . S
C676 C653 1.391 . S
H677 C637 0.951 . S
H678 C638 0.950 . S
H679 C644 0.949 . S
H680 C645 0.950 . S
H681 C649 0.951 . S
H682 C650 0.950 . S
H683 C654 0.949 . S
H684 C655 0.950 . S
H685 C659 0.950 . S
H686 C661 0.950 . S
H687 C664 0.950 . S
H688 C666 0.950 . S
C689 C690 1.443 . S
C689 N693 1.376 . S
C689 C727 1.389 . S
C690 C689 1.443 . S
C690 C691 1.340 . S
C690 H730 0.951 . S
C691 C690 1.340 . S
C691 C692 1.439 . S
C691 H731 0.950 . S
C692 C691 1.439 . S
C692 N693 1.374 . S
C692 C726 1.395 . S
N693 C689 1.376 . S
N693 C692 1.374 . S
N693 Co694 2.008 . S
Co694 N693 2.008 . S
Co694 N695 1.995 . S
Co694 N700 2.008 . S
Co694 N705 1.995 . S
Co694 N710 2.282 . S
Co694 N716 2.282 . S
N695 Co694 1.995 . S
N695 C696 1.376 . S
N695 C699 1.383 . S
C696 N695 1.376 . S
C696 C697 1.446 . S
C696 C726 1.391 . S
C697 C696 1.446 . S
C697 C698 1.339 . S
C697 H732 0.949 . S
C698 C697 1.339 . S
C698 C699 1.439 . S
C698 H733 0.950 . S
C699 N695 1.383 . S
C699 C698 1.439 . S
C699 C728 1.392 . S
N700 Co694 2.008 . S
N700 C701 1.376 . S
N700 C704 1.374 . S
C701 N700 1.376 . S
C701 C702 1.443 . S
C701 C728 1.389 . S
C702 C701 1.443 . S
C702 C703 1.340 . S
C702 H734 0.951 . S
C703 C702 1.340 . S
C703 C704 1.439 . S
C703 H735 0.950 . S
C704 N700 1.374 . S
C704 C703 1.439 . S
C704 C729 1.395 . S
N705 Co694 1.995 . S
N705 C706 1.376 . S
N705 C709 1.383 . S
C706 N705 1.376 . S
C706 C707 1.446 . S
C706 C729 1.391 . S
C707 C706 1.446 . S
C707 C708 1.339 . S
C707 H736 0.949 . S
C708 C707 1.339 . S
C708 C709 1.439 . S
C708 H737 0.950 . S
C709 N705 1.383 . S
C709 C708 1.439 . S
C709 C727 1.392 . S
N710 Co694 2.282 . S
N710 C713 1.332 . S
N710 C715 1.332 . S
C711 C712 1.386 . S
C711 C714 1.388 . S
C712 C711 1.386 . S
C712 C713 1.382 . S
C712 H738 0.950 . S
C713 N710 1.332 . S
C713 C712 1.382 . S
C713 H724 0.952 . S
C714 C711 1.388 . S
C714 C715 1.382 . S
C714 H739 0.950 . S
C715 N710 1.332 . S
C715 C714 1.382 . S
C715 H725 0.948 . S
N716 Co694 2.282 . S
N716 C720 1.332 . S
N716 C721 1.332 . S
C717 C718 1.388 . S
C717 C721 1.382 . S
C717 H740 0.950 . S
C718 C717 1.388 . S
C718 C719 1.386 . S
C719 C718 1.386 . S
C719 C720 1.382 . S
C719 H741 0.950 . S
C720 N716 1.332 . S
C720 C719 1.382 . S
C720 H722 0.952 . S
C721 N716 1.332 . S
C721 C717 1.382 . S
C721 H723 0.948 . S
H722 C720 0.952 . S
H723 C721 0.948 . S
H724 C713 0.952 . S
H725 C715 0.948 . S
C726 C692 1.395 . S
C726 C696 1.391 . S
C727 C689 1.389 . S
C727 C709 1.392 . S
C728 C699 1.392 . S
C728 C701 1.389 . S
C729 C704 1.395 . S
C729 C706 1.391 . S
H730 C690 0.951 . S
H731 C691 0.950 . S
H732 C697 0.949 . S
H733 C698 0.950 . S
H734 C702 0.951 . S
H735 C703 0.950 . S
H736 C707 0.949 . S
H737 C708 0.950 . S
H738 C712 0.950 . S
H739 C714 0.950 . S
H740 C717 0.950 . S
H741 C719 0.950 . S
C742 C743 1.443 . S
C742 N746 1.376 . S
C742 C780 1.389 . S
C743 C742 1.443 . S
C743 C744 1.340 . S
C743 H783 0.951 . S
C744 C743 1.340 . S
C744 C745 1.439 . S
C744 H784 0.950 . S
C745 C744 1.439 . S
C745 N746 1.374 . S
C745 C779 1.395 . S
N746 C742 1.376 . S
N746 C745 1.374 . S
N746 Co747 2.008 . S
Co747 N746 2.008 . S
Co747 N748 1.995 . S
Co747 N753 2.008 . S
Co747 N758 1.995 . S
Co747 N763 2.282 . S
Co747 N769 2.282 . S
N748 Co747 1.995 . S
N748 C749 1.376 . S
N748 C752 1.383 . S
C749 N748 1.376 . S
C749 C750 1.446 . S
C749 C779 1.391 . S
C750 C749 1.446 . S
C750 C751 1.339 . S
C750 H785 0.949 . S
C751 C750 1.339 . S
C751 C752 1.439 . S
C751 H786 0.950 . S
C752 N748 1.383 . S
C752 C751 1.439 . S
C752 C781 1.392 . S
N753 Co747 2.008 . S
N753 C754 1.376 . S
N753 C757 1.374 . S
C754 N753 1.376 . S
C754 C755 1.443 . S
C754 C781 1.389 . S
C755 C754 1.443 . S
C755 C756 1.340 . S
C755 H787 0.951 . S
C756 C755 1.340 . S
C756 C757 1.439 . S
C756 H788 0.950 . S
C757 N753 1.374 . S
C757 C756 1.439 . S
C757 C782 1.395 . S
N758 Co747 1.995 . S
N758 C759 1.376 . S
N758 C762 1.383 . S
C759 N758 1.376 . S
C759 C760 1.446 . S
C759 C782 1.391 . S
C760 C759 1.446 . S
C760 C761 1.339 . S
C760 H789 0.949 . S
C761 C760 1.339 . S
C761 C762 1.439 . S
C761 H790 0.950 . S
C762 N758 1.383 . S
C762 C761 1.439 . S
C762 C780 1.392 . S
N763 Co747 2.282 . S
N763 C766 1.332 . S
N763 C768 1.332 . S
C764 C765 1.386 . S
C764 C767 1.388 . S
C765 C764 1.386 . S
C765 C766 1.382 . S
C765 H791 0.950 . S
C766 N763 1.332 . S
C766 C765 1.382 . S
C766 H777 0.952 . S
C767 C764 1.388 . S
C767 C768 1.382 . S
C767 H792 0.950 . S
C768 N763 1.332 . S
C768 C767 1.382 . S
C768 H778 0.948 . S
N769 Co747 2.282 . S
N769 C773 1.332 . S
N769 C774 1.332 . S
C770 C771 1.388 . S
C770 C774 1.382 . S
C770 H793 0.950 . S
C771 C770 1.388 . S
C771 C772 1.386 . S
C772 C771 1.386 . S
C772 C773 1.382 . S
C772 H794 0.950 . S
C773 N769 1.332 . S
C773 C772 1.382 . S
C773 H775 0.952 . S
C774 N769 1.332 . S
C774 C770 1.382 . S
C774 H776 0.948 . S
H775 C773 0.952 . S
H776 C774 0.948 . S
H777 C766 0.952 . S
H778 C768 0.948 . S
C779 C745 1.395 . S
C779 C749 1.391 . S
C780 C742 1.389 . S
C780 C762 1.392 . S
C781 C752 1.392 . S
C781 C754 1.389 . S
C782 C757 1.395 . S
C782 C759 1.391 . S
H783 C743 0.951 . S
H784 C744 0.950 . S
H785 C750 0.949 . S
H786 C751 0.950 . S
H787 C755 0.951 . S
H788 C756 0.950 . S
H789 C760 0.949 . S
H790 C761 0.950 . S
H791 C765 0.950 . S
H792 C767 0.950 . S
H793 C770 0.950 . S
H794 C772 0.950 . S
C795 C796 1.443 . S
C795 N799 1.376 . S
C795 C833 1.389 . S
C796 C795 1.443 . S
C796 C797 1.340 . S
C796 H836 0.951 . S
C797 C796 1.340 . S
C797 C798 1.439 . S
C797 H837 0.950 . S
C798 C797 1.439 . S
C798 N799 1.374 . S
C798 C832 1.395 . S
N799 C795 1.376 . S
N799 C798 1.374 . S
N799 Co800 2.008 . S
Co800 N799 2.008 . S
Co800 N801 1.995 . S
Co800 N806 2.008 . S
Co800 N811 1.995 . S
Co800 N816 2.282 . S
Co800 N822 2.282 . S
N801 Co800 1.995 . S
N801 C802 1.376 . S
N801 C805 1.383 . S
C802 N801 1.376 . S
C802 C803 1.446 . S
C802 C832 1.391 . S
C803 C802 1.446 . S
C803 C804 1.339 . S
C803 H838 0.949 . S
C804 C803 1.339 . S
C804 C805 1.439 . S
C804 H839 0.950 . S
C805 N801 1.383 . S
C805 C804 1.439 . S
C805 C834 1.392 . S
N806 Co800 2.008 . S
N806 C807 1.376 . S
N806 C810 1.374 . S
C807 N806 1.376 . S
C807 C808 1.443 . S
C807 C834 1.389 . S
C808 C807 1.443 . S
C808 C809 1.340 . S
C808 H840 0.951 . S
C809 C808 1.340 . S
C809 C810 1.439 . S
C809 H841 0.950 . S
C810 N806 1.374 . S
C810 C809 1.439 . S
C810 C835 1.395 . S
N811 Co800 1.995 . S
N811 C812 1.376 . S
N811 C815 1.383 . S
C812 N811 1.376 . S
C812 C813 1.446 . S
C812 C835 1.391 . S
C813 C812 1.446 . S
C813 C814 1.339 . S
C813 H842 0.949 . S
C814 C813 1.339 . S
C814 C815 1.439 . S
C814 H843 0.950 . S
C815 N811 1.383 . S
C815 C814 1.439 . S
C815 C833 1.392 . S
N816 Co800 2.282 . S
N816 C819 1.332 . S
N816 C821 1.332 . S
C817 C818 1.386 . S
C817 C820 1.388 . S
C818 C817 1.386 . S
C818 C819 1.382 . S
C818 H844 0.950 . S
C819 N816 1.332 . S
C819 C818 1.382 . S
C819 H830 0.952 . S
C820 C817 1.388 . S
C820 C821 1.382 . S
C820 H845 0.950 . S
C821 N816 1.332 . S
C821 C820 1.382 . S
C821 H831 0.948 . S
N822 Co800 2.282 . S
N822 C826 1.332 . S
N822 C827 1.332 . S
C823 C824 1.388 . S
C823 C827 1.382 . S
C823 H846 0.950 . S
C824 C823 1.388 . S
C824 C825 1.386 . S
C825 C824 1.386 . S
C825 C826 1.382 . S
C825 H847 0.950 . S
C826 N822 1.332 . S
C826 C825 1.382 . S
C826 H828 0.952 . S
C827 N822 1.332 . S
C827 C823 1.382 . S
C827 H829 0.948 . S
H828 C826 0.952 . S
H829 C827 0.948 . S
H830 C819 0.952 . S
H831 C821 0.948 . S
C832 C798 1.395 . S
C832 C802 1.391 . S
C833 C795 1.389 . S
C833 C815 1.392 . S
C834 C805 1.392 . S
C834 C807 1.389 . S
C835 C810 1.395 . S
C835 C812 1.391 . S
H836 C796 0.951 . S
H837 C797 0.950 . S
H838 C803 0.949 . S
H839 C804 0.950 . S
H840 C808 0.951 . S
H841 C809 0.950 . S
H842 C813 0.949 . S
H843 C814 0.950 . S
H844 C818 0.950 . S
H845 C820 0.950 . S
H846 C823 0.950 . S
H847 C825 0.950 . S
C848 C849 1.443 . S
C848 N852 1.376 . S
C848 C886 1.389 . S
C849 C848 1.443 . S
C849 C850 1.340 . S
C849 H889 0.978 . S
C850 C849 1.340 . S
C850 C851 1.439 . S
C850 H890 0.950 . S
C851 C850 1.439 . S
C851 N852 1.374 . S
C851 C885 1.395 . S
N852 C848 1.376 . S
N852 C851 1.374 . S
N852 Co853 2.008 . S
Co853 N852 2.008 . S
Co853 N854 1.995 . S
Co853 N859 2.008 . S
Co853 N864 1.995 . S
Co853 N869 2.282 . S
Co853 N875 2.282 . S
N854 Co853 1.995 . S
N854 C855 1.376 . S
N854 C858 1.383 . S
C855 N854 1.376 . S
C855 C856 1.446 . S
C855 C885 1.391 . S
C856 C855 1.446 . S
C856 C857 1.339 . S
C856 H891 0.949 . S
C857 C856 1.339 . S
C857 C858 1.439 . S
C857 H892 0.950 . S
C858 N854 1.383 . S
C858 C857 1.439 . S
C858 C887 1.392 . S
N859 Co853 2.008 . S
N859 C860 1.376 . S
N859 C863 1.374 . S
C860 N859 1.376 . S
C860 C861 1.443 . S
C860 C887 1.389 . S
C861 C860 1.443 . S
C861 C862 1.340 . S
C861 H893 0.951 . S
C862 C861 1.340 . S
C862 C863 1.439 . S
C862 H894 0.950 . S
C863 N859 1.374 . S
C863 C862 1.439 . S
C863 C888 1.395 . S
N864 Co853 1.995 . S
N864 C865 1.376 . S
N864 C868 1.383 . S
C865 N864 1.376 . S
C865 C866 1.446 . S
C865 C888 1.391 . S
C866 C865 1.446 . S
C866 C867 1.339 . S
C866 H895 0.949 . S
C867 C866 1.339 . S
C867 C868 1.439 . S
C867 H896 0.950 . S
C868 N864 1.383 . S
C868 C867 1.439 . S
C868 C886 1.392 . S
N869 Co853 2.282 . S
N869 C872 1.332 . S
N869 C874 1.332 . S
C870 C871 1.386 . S
C870 C873 1.388 . S
C871 C870 1.386 . S
C871 C872 1.382 . S
C871 H897 0.950 . S
C872 N869 1.332 . S
C872 C871 1.382 . S
C872 H883 0.952 . S
C873 C870 1.388 . S
C873 C874 1.382 . S
C873 H898 0.950 . S
C874 N869 1.332 . S
C874 C873 1.382 . S
C874 H884 0.948 . S
N875 Co853 2.282 . S
N875 C879 1.332 . S
N875 C880 1.332 . S
C876 C877 1.388 . S
C876 C880 1.382 . S
C876 H899 0.950 . S
C877 C876 1.388 . S
C877 C878 1.386 . S
C878 C877 1.386 . S
C878 C879 1.382 . S
C878 H900 0.950 . S
C879 N875 1.332 . S
C879 C878 1.382 . S
C879 H881 0.952 . S
C880 N875 1.332 . S
C880 C876 1.382 . S
C880 H882 0.948 . S
H881 C879 0.952 . S
H882 C880 0.948 . S
H883 C872 0.952 . S
H884 C874 0.948 . S
C885 C851 1.395 . S
C885 C855 1.391 . S
C886 C848 1.389 . S
C886 C868 1.392 . S
C887 C858 1.392 . S
C887 C860 1.389 . S
C888 C863 1.395 . S
C888 C865 1.391 . S
H889 C849 0.978 . S
H890 C850 0.950 . S
H891 C856 0.949 . S
H892 C857 0.950 . S
H893 C861 0.951 . S
H894 C862 0.950 . S
H895 C866 0.949 . S
H896 C867 0.950 . S
H897 C871 0.950 . S
H898 C873 0.950 . S
H899 C876 0.950 . S
H900 C878 0.950 . S
C901 C902 1.443 . S
C901 N905 1.376 . S
C901 C939 1.389 . S
C902 C901 1.443 . S
C902 C903 1.340 . S
C902 H942 0.951 . S
C903 C902 1.340 . S
C903 C904 1.439 . S
C903 H943 0.950 . S
C904 C903 1.439 . S
C904 N905 1.374 . S
C904 C938 1.395 . S
N905 C901 1.376 . S
N905 C904 1.374 . S
N905 Co906 2.008 . S
Co906 N905 2.008 . S
Co906 N907 1.995 . S
Co906 N912 2.008 . S
Co906 N917 1.995 . S
Co906 N922 2.282 . S
Co906 N928 2.282 . S
N907 Co906 1.995 . S
N907 C908 1.376 . S
N907 C911 1.383 . S
C908 N907 1.376 . S
C908 C909 1.446 . S
C908 C938 1.391 . S
C909 C908 1.446 . S
C909 C910 1.339 . S
C909 H944 0.949 . S
C910 C909 1.339 . S
C910 C911 1.439 . S
C910 H945 0.950 . S
C911 N907 1.383 . S
C911 C910 1.439 . S
C911 C940 1.392 . S
N912 Co906 2.008 . S
N912 C913 1.376 . S
N912 C916 1.374 . S
C913 N912 1.376 . S
C913 C914 1.443 . S
C913 C940 1.389 . S
C914 C913 1.443 . S
C914 C915 1.340 . S
C914 H946 0.951 . S
C915 C914 1.340 . S
C915 C916 1.439 . S
C915 H947 0.950 . S
C916 N912 1.374 . S
C916 C915 1.439 . S
C916 C941 1.395 . S
N917 Co906 1.995 . S
N917 C918 1.376 . S
N917 C921 1.383 . S
C918 N917 1.376 . S
C918 C919 1.446 . S
C918 C941 1.391 . S
C919 C918 1.446 . S
C919 C920 1.339 . S
C919 H948 0.949 . S
C920 C919 1.339 . S
C920 C921 1.439 . S
C920 H949 0.950 . S
C921 N917 1.383 . S
C921 C920 1.439 . S
C921 C939 1.392 . S
N922 Co906 2.282 . S
N922 C925 1.332 . S
N922 C927 1.332 . S
C923 C924 1.386 . S
C923 C926 1.388 . S
C924 C923 1.386 . S
C924 C925 1.382 . S
C924 H950 0.950 . S
C925 N922 1.332 . S
C925 C924 1.382 . S
C925 H936 0.952 . S
C926 C923 1.388 . S
C926 C927 1.382 . S
C926 H951 0.950 . S
C927 N922 1.332 . S
C927 C926 1.382 . S
C927 H937 0.948 . S
N928 Co906 2.282 . S
N928 C932 1.332 . S
N928 C933 1.332 . S
C929 C930 1.388 . S
C929 C933 1.382 . S
C929 H952 0.950 . S
C930 C929 1.388 . S
C930 C931 1.386 . S
C931 C930 1.386 . S
C931 C932 1.382 . S
C931 H953 0.950 . S
C932 N928 1.332 . S
C932 C931 1.382 . S
C932 H934 0.952 . S
C933 N928 1.332 . S
C933 C929 1.382 . S
C933 H935 0.948 . S
H934 C932 0.952 . S
H935 C933 0.948 . S
H936 C925 0.952 . S
H937 C927 0.948 . S
C938 C904 1.395 . S
C938 C908 1.391 . S
C939 C901 1.389 . S
C939 C921 1.392 . S
C940 C911 1.392 . S
C940 C913 1.389 . S
C941 C916 1.395 . S
C941 C918 1.391 . S
H942 C902 0.951 . S
H943 C903 0.950 . S
H944 C909 0.949 . S
H945 C910 0.950 . S
H946 C914 0.951 . S
H947 C915 0.950 . S
H948 C919 0.949 . S
H949 C920 0.950 . S
H950 C924 0.950 . S
H951 C926 0.950 . S
H952 C929 0.950 . S
H953 C931 0.950 . S
C954 C955 1.443 . S
C954 N958 1.376 . S
C954 C992 1.389 . S
C955 C954 1.443 . S
C955 C956 1.340 . S
C955 H995 0.951 . S
C956 C955 1.340 . S
C956 C957 1.439 . S
C956 H996 0.950 . S
C957 C956 1.439 . S
C957 N958 1.374 . S
C957 C991 1.395 . S
N958 C954 1.376 . S
N958 C957 1.374 . S
N958 Co959 2.008 . S
Co959 N958 2.008 . S
Co959 N960 1.995 . S
Co959 N965 2.008 . S
Co959 N970 1.995 . S
Co959 N975 2.282 . S
Co959 N981 2.282 . S
N960 Co959 1.995 . S
N960 C961 1.376 . S
N960 C964 1.383 . S
C961 N960 1.376 . S
C961 C962 1.446 . S
C961 C991 1.391 . S
C962 C961 1.446 . S
C962 C963 1.339 . S
C962 H997 0.949 . S
C963 C962 1.339 . S
C963 C964 1.439 . S
C963 H998 0.950 . S
C964 N960 1.383 . S
C964 C963 1.439 . S
C964 C993 1.392 . S
N965 Co959 2.008 . S
N965 C966 1.376 . S
N965 C969 1.374 . S
C966 N965 1.376 . S
C966 C967 1.443 . S
C966 C993 1.389 . S
C967 C966 1.443 . S
C967 C968 1.340 . S
C967 H999 0.951 . S
C968 C967 1.340 . S
C968 C969 1.439 . S
C968 H1000 0.950 . S
C969 N965 1.374 . S
C969 C968 1.439 . S
C969 C994 1.395 . S
N970 Co959 1.995 . S
N970 C971 1.376 . S
N970 C974 1.383 . S
C971 N970 1.376 . S
C971 C972 1.446 . S
C971 C994 1.391 . S
C972 C971 1.446 . S
C972 C973 1.339 . S
C972 H1001 0.949 . S
C973 C972 1.339 . S
C973 C974 1.439 . S
C973 H1002 0.950 . S
C974 N970 1.383 . S
C974 C973 1.439 . S
C974 C992 1.392 . S
N975 Co959 2.282 . S
N975 C978 1.332 . S
N975 C980 1.332 . S
C976 C977 1.386 . S
C976 C979 1.388 . S
C977 C976 1.386 . S
C977 C978 1.382 . S
C977 H1003 0.950 . S
C978 N975 1.332 . S
C978 C977 1.382 . S
C978 H989 0.952 . S
C979 C976 1.388 . S
C979 C980 1.382 . S
C979 H1004 0.950 . S
C980 N975 1.332 . S
C980 C979 1.382 . S
C980 H990 0.948 . S
N981 Co959 2.282 . S
N981 C985 1.332 . S
N981 C986 1.332 . S
C982 C983 1.388 . S
C982 C986 1.382 . S
C982 H1005 0.950 . S
C983 C982 1.388 . S
C983 C984 1.386 . S
C984 C983 1.386 . S
C984 C985 1.382 . S
C984 H1006 0.950 . S
C985 N981 1.332 . S
C985 C984 1.382 . S
C985 H987 0.952 . S
C986 N981 1.332 . S
C986 C982 1.382 . S
C986 H988 0.948 . S
H987 C985 0.952 . S
H988 C986 0.948 . S
H989 C978 0.952 . S
H990 C980 0.948 . S
C991 C957 1.395 . S
C991 C961 1.391 . S
C992 C954 1.389 . S
C992 C974 1.392 . S
C993 C964 1.392 . S
C993 C966 1.389 . S
C994 C969 1.395 . S
C994 C971 1.391 . S
H995 C955 0.951 . S
H996 C956 0.950 . S
H997 C962 0.949 . S
H998 C963 0.950 . S
H999 C967 0.951 . S
H1000 C968 0.950 . S
H1001 C972 0.949 . S
H1002 C973 0.950 . S
H1003 C977 0.950 . S
H1004 C979 0.950 . S
H1005 C982 0.950 . S
H1006 C984 0.950 . S
C1007 C1008 1.443 . S
C1007 N1011 1.376 . S
C1007 C1045 1.389 . S
C1008 C1007 1.443 . S
C1008 C1009 1.340 . S
C1008 H1048 0.951 . S
C1009 C1008 1.340 . S
C1009 C1010 1.439 . S
C1009 H1049 0.950 . S
C1010 C1009 1.439 . S
C1010 N1011 1.374 . S
C1010 C1044 1.395 . S
N1011 C1007 1.376 . S
N1011 C1010 1.374 . S
N1011 Co1012 2.008 . S
Co1012 N1011 2.008 . S
Co1012 N1013 1.995 . S
Co1012 N1018 2.008 . S
Co1012 N1023 1.995 . S
Co1012 N1028 2.282 . S
Co1012 N1034 2.282 . S
N1013 Co1012 1.995 . S
N1013 C1014 1.376 . S
N1013 C1017 1.383 . S
C1014 N1013 1.376 . S
C1014 C1015 1.446 . S
C1014 C1044 1.391 . S
C1015 C1014 1.446 . S
C1015 C1016 1.339 . S
C1015 H1050 0.949 . S
C1016 C1015 1.339 . S
C1016 C1017 1.439 . S
C1016 H1051 0.950 . S
C1017 N1013 1.383 . S
C1017 C1016 1.439 . S
C1017 C1046 1.392 . S
N1018 Co1012 2.008 . S
N1018 C1019 1.376 . S
N1018 C1022 1.374 . S
C1019 N1018 1.376 . S
C1019 C1020 1.443 . S
C1019 C1046 1.389 . S
C1020 C1019 1.443 . S
C1020 C1021 1.340 . S
C1020 H1052 0.951 . S
C1021 C1020 1.340 . S
C1021 C1022 1.439 . S
C1021 H1053 0.950 . S
C1022 N1018 1.374 . S
C1022 C1021 1.439 . S
C1022 C1047 1.395 . S
N1023 Co1012 1.995 . S
N1023 C1024 1.376 . S
N1023 C1027 1.383 . S
C1024 N1023 1.376 . S
C1024 C1025 1.446 . S
C1024 C1047 1.391 . S
C1025 C1024 1.446 . S
C1025 C1026 1.339 . S
C1025 H1054 0.949 . S
C1026 C1025 1.339 . S
C1026 C1027 1.439 . S
C1026 H1055 0.950 . S
C1027 N1023 1.383 . S
C1027 C1026 1.439 . S
C1027 C1045 1.392 . S
N1028 Co1012 2.282 . S
N1028 C1031 1.332 . S
N1028 C1033 1.332 . S
C1029 C1030 1.386 . S
C1029 C1032 1.388 . S
C1030 C1029 1.386 . S
C1030 C1031 1.382 . S
C1030 H1056 0.950 . S
C1031 N1028 1.332 . S
C1031 C1030 1.382 . S
C1031 H1042 0.952 . S
C1032 C1029 1.388 . S
C1032 C1033 1.382 . S
C1032 H1057 0.950 . S
C1033 N1028 1.332 . S
C1033 C1032 1.382 . S
C1033 H1043 0.948 . S
N1034 Co1012 2.282 . S
N1034 C1038 1.332 . S
N1034 C1039 1.332 . S
C1035 C1036 1.388 . S
C1035 C1039 1.382 . S
C1035 H1058 0.950 . S
C1036 C1035 1.388 . S
C1036 C1037 1.386 . S
C1037 C1036 1.386 . S
C1037 C1038 1.382 . S
C1037 H1059 0.950 . S
C1038 N1034 1.332 . S
C1038 C1037 1.382 . S
C1038 H1040 0.952 . S
C1039 N1034 1.332 . S
C1039 C1035 1.382 . S
C1039 H1041 0.948 . S
H1040 C1038 0.952 . S
H1041 C1039 0.948 . S
H1042 C1031 0.952 . S
H1043 C1033 0.948 . S
C1044 C1010 1.395 . S
C1044 C1014 1.391 . S
C1045 C1007 1.389 . S
C1045 C1027 1.392 . S
C1046 C1017 1.392 . S
C1046 C1019 1.389 . S
C1047 C1022 1.395 . S
C1047 C1024 1.391 . S
H1048 C1008 0.951 . S
H1049 C1009 0.950 . S
H1050 C1015 0.949 . S
H1051 C1016 0.950 . S
H1052 C1020 0.951 . S
H1053 C1021 0.950 . S
H1054 C1025 0.949 . S
H1055 C1026 0.950 . S
H1056 C1030 0.950 . S
H1057 C1032 0.950 . S
H1058 C1035 0.950 . S
H1059 C1037 0.950 . S
C1060 C1061 1.443 . S
C1060 N1064 1.376 . S
C1060 C1098 1.389 . S
C1061 C1060 1.443 . S
C1061 C1062 1.340 . S
C1061 H1101 0.951 . S
C1062 C1061 1.340 . S
C1062 C1063 1.439 . S
C1062 H1102 0.950 . S
C1063 C1062 1.439 . S
C1063 N1064 1.374 . S
C1063 C1097 1.395 . S
N1064 C1060 1.376 . S
N1064 C1063 1.374 . S
N1064 Co1065 2.008 . S
Co1065 N1064 2.008 . S
Co1065 N1066 1.995 . S
Co1065 N1071 2.008 . S
Co1065 N1076 1.995 . S
Co1065 N1081 2.282 . S
Co1065 N1087 2.282 . S
N1066 Co1065 1.995 . S
N1066 C1067 1.376 . S
N1066 C1070 1.383 . S
C1067 N1066 1.376 . S
C1067 C1068 1.446 . S
C1067 C1097 1.391 . S
C1068 C1067 1.446 . S
C1068 C1069 1.339 . S
C1068 H1103 0.949 . S
C1069 C1068 1.339 . S
C1069 C1070 1.439 . S
C1069 H1104 0.950 . S
C1070 N1066 1.383 . S
C1070 C1069 1.439 . S
C1070 C1099 1.392 . S
N1071 Co1065 2.008 . S
N1071 C1072 1.376 . S
N1071 C1075 1.374 . S
C1072 N1071 1.376 . S
C1072 C1073 1.443 . S
C1072 C1099 1.389 . S
C1073 C1072 1.443 . S
C1073 C1074 1.340 . S
C1073 H1105 0.951 . S
C1074 C1073 1.340 . S
C1074 C1075 1.439 . S
C1074 H1106 0.950 . S
C1075 N1071 1.374 . S
C1075 C1074 1.439 . S
C1075 C1100 1.395 . S
N1076 Co1065 1.995 . S
N1076 C1077 1.376 . S
N1076 C1080 1.383 . S
C1077 N1076 1.376 . S
C1077 C1078 1.446 . S
C1077 C1100 1.391 . S
C1078 C1077 1.446 . S
C1078 C1079 1.339 . S
C1078 H1107 0.949 . S
C1079 C1078 1.339 . S
C1079 C1080 1.439 . S
C1079 H1108 0.950 . S
C1080 N1076 1.383 . S
C1080 C1079 1.439 . S
C1080 C1098 1.392 . S
N1081 Co1065 2.282 . S
N1081 C1084 1.332 . S
N1081 C1086 1.332 . S
C1082 C1083 1.386 . S
C1082 C1085 1.388 . S
C1083 C1082 1.386 . S
C1083 C1084 1.382 . S
C1083 H1109 0.950 . S
C1084 N1081 1.332 . S
C1084 C1083 1.382 . S
C1084 H1095 0.952 . S
C1085 C1082 1.388 . S
C1085 C1086 1.382 . S
C1085 H1110 0.950 . S
C1086 N1081 1.332 . S
C1086 C1085 1.382 . S
C1086 H1096 0.948 . S
N1087 Co1065 2.282 . S
N1087 C1091 1.332 . S
N1087 C1092 1.332 . S
C1088 C1089 1.388 . S
C1088 C1092 1.382 . S
C1088 H1111 0.950 . S
C1089 C1088 1.388 . S
C1089 C1090 1.386 . S
C1090 C1089 1.386 . S
C1090 C1091 1.382 . S
C1090 H1112 0.950 . S
C1091 N1087 1.332 . S
C1091 C1090 1.382 . S
C1091 H1093 0.952 . S
C1092 N1087 1.332 . S
C1092 C1088 1.382 . S
C1092 H1094 0.948 . S
H1093 C1091 0.952 . S
H1094 C1092 0.948 . S
H1095 C1084 0.952 . S
H1096 C1086 0.948 . S
C1097 C1063 1.395 . S
C1097 C1067 1.391 . S
C1098 C1060 1.389 . S
C1098 C1080 1.392 . S
C1099 C1070 1.392 . S
C1099 C1072 1.389 . S
C1100 C1075 1.395 . S
C1100 C1077 1.391 . S
H1101 C1061 0.951 . S
H1102 C1062 0.950 . S
H1103 C1068 0.949 . S
H1104 C1069 0.950 . S
H1105 C1073 0.951 . S
H1106 C1074 0.950 . S
H1107 C1078 0.949 . S
H1108 C1079 0.950 . S
H1109 C1083 0.950 . S
H1110 C1085 0.950 . S
H1111 C1088 0.950 . S
H1112 C1090 0.950 . S
C1113 C1114 1.443 . S
C1113 N1117 1.376 . S
C1113 C1151 1.389 . S
C1114 C1113 1.443 . S
C1114 C1115 1.340 . S
C1114 H1154 0.951 . S
C1115 C1114 1.340 . S
C1115 C1116 1.439 . S
C1115 H1155 0.950 . S
C1116 C1115 1.439 . S
C1116 N1117 1.374 . S
C1116 C1150 1.395 . S
N1117 C1113 1.376 . S
N1117 C1116 1.374 . S
N1117 Co1118 2.008 . S
Co1118 N1117 2.008 . S
Co1118 N1119 1.995 . S
Co1118 N1124 2.008 . S
Co1118 N1129 1.995 . S
Co1118 N1134 2.282 . S
Co1118 N1140 2.282 . S
N1119 Co1118 1.995 . S
N1119 C1120 1.376 . S
N1119 C1123 1.383 . S
C1120 N1119 1.376 . S
C1120 C1121 1.446 . S
C1120 C1150 1.391 . S
C1121 C1120 1.446 . S
C1121 C1122 1.339 . S
C1121 H1156 0.949 . S
C1122 C1121 1.339 . S
C1122 C1123 1.439 . S
C1122 H1157 0.950 . S
C1123 N1119 1.383 . S
C1123 C1122 1.439 . S
C1123 C1152 1.392 . S
N1124 Co1118 2.008 . S
N1124 C1125 1.376 . S
N1124 C1128 1.374 . S
C1125 N1124 1.376 . S
C1125 C1126 1.443 . S
C1125 C1152 1.389 . S
C1126 C1125 1.443 . S
C1126 C1127 1.340 . S
C1126 H1158 0.951 . S
C1127 C1126 1.340 . S
C1127 C1128 1.439 . S
C1127 H1159 0.950 . S
C1128 N1124 1.374 . S
C1128 C1127 1.439 . S
C1128 C1153 1.395 . S
N1129 Co1118 1.995 . S
N1129 C1130 1.376 . S
N1129 C1133 1.383 . S
C1130 N1129 1.376 . S
C1130 C1131 1.446 . S
C1130 C1153 1.391 . S
C1131 C1130 1.446 . S
C1131 C1132 1.339 . S
C1131 H1160 0.949 . S
C1132 C1131 1.339 . S
C1132 C1133 1.439 . S
C1132 H1161 0.950 . S
C1133 N1129 1.383 . S
C1133 C1132 1.439 . S
C1133 C1151 1.392 . S
N1134 Co1118 2.282 . S
N1134 C1137 1.332 . S
N1134 C1139 1.332 . S
C1135 C1136 1.386 . S
C1135 C1138 1.388 . S
C1136 C1135 1.386 . S
C1136 C1137 1.382 . S
C1136 H1162 0.950 . S
C1137 N1134 1.332 . S
C1137 C1136 1.382 . S
C1137 H1148 0.952 . S
C1138 C1135 1.388 . S
C1138 C1139 1.382 . S
C1138 H1163 0.950 1_455 S
C1139 N1134 1.332 . S
C1139 C1138 1.382 . S
C1139 H1149 0.948 . S
N1140 Co1118 2.282 . S
N1140 C1144 1.332 . S
N1140 C1145 1.332 . S
C1141 C1142 1.388 . S
C1141 C1145 1.382 . S
C1141 H1164 0.950 . S
C1142 C1141 1.388 . S
C1142 C1143 1.386 . S
C1143 C1142 1.386 . S
C1143 C1144 1.382 . S
C1143 H1165 0.950 . S
C1144 N1140 1.332 . S
C1144 C1143 1.382 . S
C1144 H1146 0.952 . S
C1145 N1140 1.332 . S
C1145 C1141 1.382 . S
C1145 H1147 0.948 . S
H1146 C1144 0.952 . S
H1147 C1145 0.948 . S
H1148 C1137 0.952 . S
H1149 C1139 0.948 . S
C1150 C1116 1.395 . S
C1150 C1120 1.391 . S
C1151 C1113 1.389 . S
C1151 C1133 1.392 . S
C1152 C1123 1.392 . S
C1152 C1125 1.389 . S
C1153 C1128 1.395 . S
C1153 C1130 1.391 . S
H1154 C1114 0.951 . S
H1155 C1115 0.950 . S
H1156 C1121 0.949 . S
H1157 C1122 0.950 . S
H1158 C1126 0.951 . S
H1159 C1127 0.950 . S
H1160 C1131 0.949 . S
H1161 C1132 0.950 . S
H1162 C1136 0.950 . S
H1163 C1138 0.950 1_655 S
H1164 C1141 0.950 . S
H1165 C1143 0.950 . S
C1166 C1167 1.443 . S
C1166 N1170 1.376 . S
C1166 C1204 1.389 . S
C1167 C1166 1.443 . S
C1167 C1168 1.340 . S
C1167 H1207 0.951 . S
C1168 C1167 1.340 . S
C1168 C1169 1.439 . S
C1168 H1208 0.950 . S
C1169 C1168 1.439 . S
C1169 N1170 1.374 . S
C1169 C1203 1.395 . S
N1170 C1166 1.376 . S
N1170 C1169 1.374 . S
N1170 Co1171 2.008 . S
Co1171 N1170 2.008 . S
Co1171 N1172 1.995 . S
Co1171 N1177 2.008 . S
Co1171 N1182 1.995 . S
Co1171 N1187 2.282 . S
Co1171 N1193 2.282 . S
N1172 Co1171 1.995 . S
N1172 C1173 1.376 . S
N1172 C1176 1.383 . S
C1173 N1172 1.376 . S
C1173 C1174 1.446 . S
C1173 C1203 1.391 . S
C1174 C1173 1.446 . S
C1174 C1175 1.339 . S
C1174 H1209 0.949 . S
C1175 C1174 1.339 . S
C1175 C1176 1.439 . S
C1175 H1210 0.950 . S
C1176 N1172 1.383 . S
C1176 C1175 1.439 . S
C1176 C1205 1.392 . S
N1177 Co1171 2.008 . S
N1177 C1178 1.376 . S
N1177 C1181 1.374 . S
C1178 N1177 1.376 . S
C1178 C1179 1.443 . S
C1178 C1205 1.389 . S
C1179 C1178 1.443 . S
C1179 C1180 1.340 . S
C1179 H1211 0.951 . S
C1180 C1179 1.340 . S
C1180 C1181 1.439 . S
C1180 H1212 0.950 . S
C1181 N1177 1.374 . S
C1181 C1180 1.439 . S
C1181 C1206 1.395 . S
N1182 Co1171 1.995 . S
N1182 C1183 1.376 . S
N1182 C1186 1.383 . S
C1183 N1182 1.376 . S
C1183 C1184 1.446 . S
C1183 C1206 1.391 . S
C1184 C1183 1.446 . S
C1184 C1185 1.339 . S
C1184 H1213 0.949 . S
C1185 C1184 1.339 . S
C1185 C1186 1.439 . S
C1185 H1214 0.950 . S
C1186 N1182 1.383 . S
C1186 C1185 1.439 . S
C1186 C1204 1.392 . S
N1187 Co1171 2.282 . S
N1187 C1190 1.332 . S
N1187 C1192 1.332 . S
C1188 C1189 1.386 . S
C1188 C1191 1.388 . S
C1189 C1188 1.386 . S
C1189 C1190 1.382 . S
C1189 H1215 0.950 . S
C1190 N1187 1.332 . S
C1190 C1189 1.382 . S
C1190 H1201 0.952 . S
C1191 C1188 1.388 . S
C1191 C1192 1.382 . S
C1191 H1216 0.950 . S
C1192 N1187 1.332 . S
C1192 C1191 1.382 . S
C1192 H1202 0.948 . S
N1193 Co1171 2.282 . S
N1193 C1197 1.332 . S
N1193 C1198 1.332 . S
C1194 C1195 1.388 . S
C1194 C1198 1.382 . S
C1194 H1217 0.950 . S
C1195 C1194 1.388 . S
C1195 C1196 1.386 . S
C1196 C1195 1.386 . S
C1196 C1197 1.382 . S
C1196 H1218 0.950 . S
C1197 N1193 1.332 . S
C1197 C1196 1.382 . S
C1197 H1199 0.952 . S
C1198 N1193 1.332 . S
C1198 C1194 1.382 . S
C1198 H1200 0.948 . S
H1199 C1197 0.952 . S
H1200 C1198 0.948 . S
H1201 C1190 0.952 . S
H1202 C1192 0.948 . S
C1203 C1169 1.395 . S
C1203 C1173 1.391 . S
C1204 C1166 1.389 . S
C1204 C1186 1.392 . S
C1205 C1176 1.392 . S
C1205 C1178 1.389 . S
C1206 C1181 1.395 . S
C1206 C1183 1.391 . S
H1207 C1167 0.951 . S
H1208 C1168 0.950 . S
H1209 C1174 0.949 . S
H1210 C1175 0.950 . S
H1211 C1179 0.951 . S
H1212 C1180 0.950 . S
H1213 C1184 0.949 . S
H1214 C1185 0.950 . S
H1215 C1189 0.950 . S
H1216 C1191 0.950 . S
H1217 C1194 0.950 . S
H1218 C1196 0.950 . S
C1219 C1220 1.443 . S
C1219 N1223 1.376 . S
C1219 C1257 1.389 . S
C1220 C1219 1.443 . S
C1220 C1221 1.340 . S
C1220 H1260 0.951 . S
C1221 C1220 1.340 . S
C1221 C1222 1.439 . S
C1221 H1261 0.950 . S
C1222 C1221 1.439 . S
C1222 N1223 1.374 . S
C1222 C1256 1.395 . S
N1223 C1219 1.376 . S
N1223 C1222 1.374 . S
N1223 Co1224 2.008 . S
Co1224 N1223 2.008 . S
Co1224 N1225 1.995 . S
Co1224 N1230 2.008 . S
Co1224 N1235 1.995 . S
Co1224 N1240 2.282 . S
Co1224 N1246 2.282 . S
N1225 Co1224 1.995 . S
N1225 C1226 1.376 . S
N1225 C1229 1.383 . S
C1226 N1225 1.376 . S
C1226 C1227 1.446 . S
C1226 C1256 1.391 . S
C1227 C1226 1.446 . S
C1227 C1228 1.339 . S
C1227 H1262 0.949 . S
C1228 C1227 1.339 . S
C1228 C1229 1.439 . S
C1228 H1263 0.950 . S
C1229 N1225 1.383 . S
C1229 C1228 1.439 . S
C1229 C1258 1.392 . S
N1230 Co1224 2.008 . S
N1230 C1231 1.376 . S
N1230 C1234 1.374 . S
C1231 N1230 1.376 . S
C1231 C1232 1.443 . S
C1231 C1258 1.389 . S
C1232 C1231 1.443 . S
C1232 C1233 1.340 . S
C1232 H1264 0.951 . S
C1233 C1232 1.340 . S
C1233 C1234 1.439 . S
C1233 H1265 0.950 . S
C1234 N1230 1.374 . S
C1234 C1233 1.439 . S
C1234 C1259 1.395 . S
N1235 Co1224 1.995 . S
N1235 C1236 1.376 . S
N1235 C1239 1.383 . S
C1236 N1235 1.376 . S
C1236 C1237 1.446 . S
C1236 C1259 1.391 . S
C1237 C1236 1.446 . S
C1237 C1238 1.339 . S
C1237 H1266 0.949 . S
C1238 C1237 1.339 . S
C1238 C1239 1.439 . S
C1238 H1267 0.950 . S
C1239 N1235 1.383 . S
C1239 C1238 1.439 . S
C1239 C1257 1.392 . S
N1240 Co1224 2.282 . S
N1240 C1243 1.332 . S
N1240 C1245 1.332 . S
C1241 C1242 1.386 . S
C1241 C1244 1.388 . S
C1242 C1241 1.386 . S
C1242 C1243 1.382 . S
C1242 H1268 0.950 . S
C1243 N1240 1.332 . S
C1243 C1242 1.382 . S
C1243 H1254 0.952 . S
C1244 C1241 1.388 . S
C1244 C1245 1.382 . S
C1244 H1269 0.950 . S
C1245 N1240 1.332 . S
C1245 C1244 1.382 . S
C1245 H1255 0.948 . S
N1246 Co1224 2.282 . S
N1246 C1250 1.332 . S
N1246 C1251 1.332 . S
C1247 C1248 1.388 . S
C1247 C1251 1.382 . S
C1247 H1270 0.950 . S
C1248 C1247 1.388 . S
C1248 C1249 1.386 . S
C1249 C1248 1.386 . S
C1249 C1250 1.382 . S
C1249 H1271 0.950 . S
C1250 N1246 1.332 . S
C1250 C1249 1.382 . S
C1250 H1252 0.952 . S
C1251 N1246 1.332 . S
C1251 C1247 1.382 . S
C1251 H1253 0.948 . S
H1252 C1250 0.952 . S
H1253 C1251 0.948 . S
H1254 C1243 0.952 . S
H1255 C1245 0.948 . S
C1256 C1222 1.395 . S
C1256 C1226 1.391 . S
C1257 C1219 1.389 . S
C1257 C1239 1.392 . S
C1258 C1229 1.392 . S
C1258 C1231 1.389 . S
C1259 C1234 1.395 . S
C1259 C1236 1.391 . S
H1260 C1220 0.951 . S
H1261 C1221 0.950 . S
H1262 C1227 0.949 . S
H1263 C1228 0.950 . S
H1264 C1232 0.951 . S
H1265 C1233 0.950 . S
H1266 C1237 0.949 . S
H1267 C1238 0.950 . S
H1268 C1242 0.950 . S
H1269 C1244 0.950 . S
H1270 C1247 0.950 . S
H1271 C1249 0.950 . S
C1272 C1273 1.363 . S
C1272 C1278 1.379 . S
C1272 N1280 1.356 . S
C1273 C1272 1.363 . S
C1273 C1279 1.363 . S
C1274 C1275 1.363 . S
C1274 C1279 1.379 . S
C1274 N1281 1.356 . S
C1275 C1274 1.363 . S
C1275 C1278 1.363 . S
N1276 C1278 1.356 . S
N1276 H1288 0.984 . S
N1276 H1289 0.985 . S
N1277 C1279 1.356 . S
N1277 H1282 0.984 . S
N1277 H1283 0.985 . S
C1278 C1272 1.379 . S
C1278 C1275 1.363 . S
C1278 N1276 1.356 . S
C1279 C1273 1.363 . S
C1279 C1274 1.379 . S
C1279 N1277 1.356 . S
N1280 C1272 1.356 . S
N1280 H1286 0.984 . S
N1280 H1287 0.984 . S
N1281 C1274 1.356 . S
N1281 H1284 0.984 . S
N1281 H1285 0.985 . S
H1282 N1277 0.984 . S
H1283 N1277 0.985 . S
H1284 N1281 0.984 . S
H1285 N1281 0.985 . S
H1286 N1280 0.984 . S
H1287 N1280 0.984 . S
H1288 N1276 0.984 . S
H1289 N1276 0.985 . S
C1290 C1291 1.363 . S
C1290 C1296 1.379 . S
C1290 N1298 1.356 . S
C1291 C1290 1.363 . S
C1291 C1297 1.363 . S
C1292 C1293 1.363 . S
C1292 C1297 1.379 . S
C1292 N1299 1.356 . S
C1293 C1292 1.363 . S
C1293 C1296 1.363 . S
N1294 C1296 1.356 . S
N1294 H1306 0.984 . S
N1294 H1307 0.985 . S
N1295 C1297 1.356 . S
N1295 H1300 0.984 . S
N1295 H1301 0.985 . S
C1296 C1290 1.379 . S
C1296 C1293 1.363 . S
C1296 N1294 1.356 . S
C1297 C1291 1.363 . S
C1297 C1292 1.379 . S
C1297 N1295 1.356 . S
N1298 C1290 1.356 . S
N1298 H1304 0.984 . S
N1298 H1305 0.984 . S
N1299 C1292 1.356 . S
N1299 H1302 0.984 . S
N1299 H1303 0.985 . S
H1300 N1295 0.984 . S
H1301 N1295 0.985 . S
H1302 N1299 0.984 . S
H1303 N1299 0.985 . S
H1304 N1298 0.984 . S
H1305 N1298 0.984 . S
H1306 N1294 0.984 . S
H1307 N1294 0.985 . S
C1308 C1309 1.363 . S
C1308 C1314 1.379 . S
C1308 N1316 1.356 . S
C1309 C1308 1.363 . S
C1309 C1315 1.363 . S
C1310 C1311 1.363 . S
C1310 C1315 1.379 . S
C1310 N1317 1.356 . S
C1311 C1310 1.363 . S
C1311 C1314 1.363 . S
N1312 C1314 1.356 . S
N1312 H1324 0.984 . S
N1312 H1325 0.985 . S
N1313 C1315 1.356 . S
N1313 H1318 0.984 . S
N1313 H1319 0.985 . S
C1314 C1308 1.379 . S
C1314 C1311 1.363 . S
C1314 N1312 1.356 . S
C1315 C1309 1.363 . S
C1315 C1310 1.379 . S
C1315 N1313 1.356 . S
N1316 C1308 1.356 . S
N1316 H1322 0.984 . S
N1316 H1323 0.984 . S
N1317 C1310 1.356 . S
N1317 H1320 0.984 . S
N1317 H1321 0.985 . S
H1318 N1313 0.984 . S
H1319 N1313 0.985 . S
H1320 N1317 0.984 . S
H1321 N1317 0.985 . S
H1322 N1316 0.984 . S
H1323 N1316 0.984 . S
H1324 N1312 0.984 . S
H1325 N1312 0.985 . S
C1326 C1327 1.363 . S
C1326 C1332 1.379 . S
C1326 N1334 1.356 . S
C1327 C1326 1.363 . S
C1327 C1333 1.363 . S
C1328 C1329 1.363 . S
C1328 C1333 1.379 . S
C1328 N1335 1.356 . S
C1329 C1328 1.363 . S
C1329 C1332 1.363 . S
N1330 C1332 1.356 . S
N1330 H1342 0.984 . S
N1330 H1343 0.985 . S
N1331 C1333 1.356 . S
N1331 H1336 0.984 . S
N1331 H1337 0.985 . S
C1332 C1326 1.379 . S
C1332 C1329 1.363 . S
C1332 N1330 1.356 . S
C1333 C1327 1.363 . S
C1333 C1328 1.379 . S
C1333 N1331 1.356 . S
N1334 C1326 1.356 . S
N1334 H1340 0.984 . S
N1334 H1341 0.984 . S
N1335 C1328 1.356 . S
N1335 H1338 0.984 . S
N1335 H1339 0.985 . S
H1336 N1331 0.984 . S
H1337 N1331 0.985 . S
H1338 N1335 0.984 . S
H1339 N1335 0.985 . S
H1340 N1334 0.984 . S
H1341 N1334 0.984 . S
H1342 N1330 0.984 . S
H1343 N1330 0.985 . S
C1344 C1345 1.363 . S
C1344 C1350 1.379 . S
C1344 N1352 1.356 . S
C1345 C1344 1.363 . S
C1345 C1351 1.363 . S
C1346 C1347 1.363 . S
C1346 C1351 1.379 . S
C1346 N1353 1.356 . S
C1347 C1346 1.363 . S
C1347 C1350 1.363 . S
N1348 C1350 1.356 . S
N1348 H1360 0.984 . S
N1348 H1361 0.985 . S
N1349 C1351 1.356 . S
N1349 H1354 0.984 . S
N1349 H1355 0.985 . S
C1350 C1344 1.379 . S
C1350 C1347 1.363 . S
C1350 N1348 1.356 . S
C1351 C1345 1.363 . S
C1351 C1346 1.379 . S
C1351 N1349 1.356 . S
N1352 C1344 1.356 . S
N1352 H1358 0.984 . S
N1352 H1359 0.984 . S
N1353 C1346 1.356 . S
N1353 H1356 0.984 . S
N1353 H1357 0.985 . S
H1354 N1349 0.984 . S
H1355 N1349 0.985 . S
H1356 N1353 0.984 . S
H1357 N1353 0.985 . S
H1358 N1352 0.984 . S
H1359 N1352 0.984 . S
H1360 N1348 0.984 . S
H1361 N1348 0.985 . S
C1362 C1363 1.363 . S
C1362 C1368 1.379 . S
C1362 N1370 1.356 . S
C1363 C1362 1.363 . S
C1363 C1369 1.363 . S
C1364 C1365 1.363 . S
C1364 C1369 1.379 . S
C1364 N1371 1.356 . S
C1365 C1364 1.363 . S
C1365 C1368 1.363 . S
N1366 C1368 1.356 . S
N1366 H1378 0.984 . S
N1366 H1379 0.985 . S
N1367 C1369 1.356 . S
N1367 H1372 0.984 . S
N1367 H1373 0.985 . S
C1368 C1362 1.379 . S
C1368 C1365 1.363 . S
C1368 N1366 1.356 . S
C1369 C1363 1.363 . S
C1369 C1364 1.379 . S
C1369 N1367 1.356 . S
N1370 C1362 1.356 . S
N1370 H1376 0.984 . S
N1370 H1377 0.984 . S
N1371 C1364 1.356 . S
N1371 H1374 0.984 . S
N1371 H1375 0.985 . S
H1372 N1367 0.984 . S
H1373 N1367 0.985 . S
H1374 N1371 0.984 . S
H1375 N1371 0.985 . S
H1376 N1370 0.984 . S
H1377 N1370 0.984 . S
H1378 N1366 0.984 . S
H1379 N1366 0.985 . S
C1380 C1381 1.363 . S
C1380 C1386 1.379 . S
C1380 N1388 1.356 . S
C1381 C1380 1.363 . S
C1381 C1387 1.363 . S
C1382 C1383 1.363 . S
C1382 C1387 1.379 . S
C1382 N1389 1.356 . S
C1383 C1382 1.363 . S
C1383 C1386 1.363 . S
N1384 C1386 1.356 . S
N1384 H1396 0.984 . S
N1384 H1397 0.985 . S
N1385 C1387 1.356 . S
N1385 H1390 0.984 . S
N1385 H1391 0.985 . S
C1386 C1380 1.379 . S
C1386 C1383 1.363 . S
C1386 N1384 1.356 . S
C1387 C1381 1.363 . S
C1387 C1382 1.379 . S
C1387 N1385 1.356 . S
N1388 C1380 1.356 . S
N1388 H1394 0.984 . S
N1388 H1395 0.984 . S
N1389 C1382 1.356 . S
N1389 H1392 0.984 . S
N1389 H1393 0.985 . S
H1390 N1385 0.984 . S
H1391 N1385 0.985 . S
H1392 N1389 0.984 . S
H1393 N1389 0.985 . S
H1394 N1388 0.984 . S
H1395 N1388 0.984 . S
H1396 N1384 0.984 . S
H1397 N1384 0.985 . S
C1398 C1399 1.363 . S
C1398 C1404 1.379 . S
C1398 N1406 1.356 . S
C1399 C1398 1.363 . S
C1399 C1405 1.363 . S
C1400 C1401 1.363 . S
C1400 C1405 1.379 . S
C1400 N1407 1.356 . S
C1401 C1400 1.363 . S
C1401 C1404 1.363 . S
N1402 C1404 1.356 . S
N1402 H1414 0.984 . S
N1402 H1415 0.985 . S
N1403 C1405 1.356 . S
N1403 H1408 0.984 . S
N1403 H1409 0.985 . S
C1404 C1398 1.379 . S
C1404 C1401 1.363 . S
C1404 N1402 1.356 . S
C1405 C1399 1.363 . S
C1405 C1400 1.379 . S
C1405 N1403 1.356 . S
N1406 C1398 1.356 . S
N1406 H1412 0.984 . S
N1406 H1413 0.984 . S
N1407 C1400 1.356 . S
N1407 H1410 0.984 . S
N1407 H1411 0.985 . S
H1408 N1403 0.984 . S
H1409 N1403 0.985 . S
H1410 N1407 0.984 . S
H1411 N1407 0.985 . S
H1412 N1406 0.984 . S
H1413 N1406 0.984 . S
H1414 N1402 0.984 . S
H1415 N1402 0.985 . S
C1416 C1417 1.363 . S
C1416 C1422 1.379 . S
C1416 N1424 1.356 . S
C1417 C1416 1.363 . S
C1417 C1423 1.363 . S
C1418 C1419 1.363 . S
C1418 C1423 1.379 . S
C1418 N1425 1.356 . S
C1419 C1418 1.363 . S
C1419 C1422 1.363 . S
N1420 C1422 1.356 . S
N1420 H1432 0.984 . S
N1420 H1433 0.985 . S
N1421 C1423 1.356 . S
N1421 H1426 0.984 . S
N1421 H1427 0.985 . S
C1422 C1416 1.379 . S
C1422 C1419 1.363 . S
C1422 N1420 1.356 . S
C1423 C1417 1.363 . S
C1423 C1418 1.379 . S
C1423 N1421 1.356 . S
N1424 C1416 1.356 . S
N1424 H1430 0.984 . S
N1424 H1431 0.984 . S
N1425 C1418 1.356 . S
N1425 H1428 0.984 . S
N1425 H1429 0.985 . S
H1426 N1421 0.984 . S
H1427 N1421 0.985 . S
H1428 N1425 0.984 . S
H1429 N1425 0.985 . S
H1430 N1424 0.984 . S
H1431 N1424 0.984 . S
H1432 N1420 0.984 . S
H1433 N1420 0.985 . S
C1434 C1435 1.363 . S
C1434 C1440 1.379 . S
C1434 N1442 1.356 . S
C1435 C1434 1.363 . S
C1435 C1441 1.363 . S
C1436 C1437 1.363 . S
C1436 C1441 1.379 . S
C1436 N1443 1.356 . S
C1437 C1436 1.363 . S
C1437 C1440 1.363 . S
N1438 C1440 1.356 . S
N1438 H1450 0.984 . S
N1438 H1451 0.985 . S
N1439 C1441 1.356 . S
N1439 H1444 0.984 . S
N1439 H1445 0.985 . S
C1440 C1434 1.379 . S
C1440 C1437 1.363 . S
C1440 N1438 1.356 . S
C1441 C1435 1.363 . S
C1441 C1436 1.379 . S
C1441 N1439 1.356 . S
N1442 C1434 1.356 . S
N1442 H1448 0.984 . S
N1442 H1449 0.984 . S
N1443 C1436 1.356 . S
N1443 H1446 0.984 . S
N1443 H1447 0.985 . S
H1444 N1439 0.984 . S
H1445 N1439 0.985 . S
H1446 N1443 0.984 . S
H1447 N1443 0.985 . S
H1448 N1442 0.984 . S
H1449 N1442 0.984 . S
H1450 N1438 0.984 . S
H1451 N1438 0.985 . S
C1452 C1453 1.363 . S
C1452 C1458 1.379 . S
C1452 N1460 1.356 . S
C1453 C1452 1.363 . S
C1453 C1459 1.363 . S
C1454 C1455 1.363 . S
C1454 C1459 1.379 . S
C1454 N1461 1.356 . S
C1455 C1454 1.363 . S
C1455 C1458 1.363 . S
N1456 C1458 1.356 . S
N1456 H1468 0.984 . S
N1456 H1469 0.985 . S
N1457 C1459 1.356 . S
N1457 H1462 0.984 . S
N1457 H1463 0.985 . S
C1458 C1452 1.379 . S
C1458 C1455 1.363 . S
C1458 N1456 1.356 . S
C1459 C1453 1.363 . S
C1459 C1454 1.379 . S
C1459 N1457 1.356 . S
N1460 C1452 1.356 . S
N1460 H1466 0.984 . S
N1460 H1467 0.984 . S
N1461 C1454 1.356 . S
N1461 H1464 0.984 . S
N1461 H1465 0.985 . S
H1462 N1457 0.984 . S
H1463 N1457 0.985 . S
H1464 N1461 0.984 . S
H1465 N1461 0.985 . S
H1466 N1460 0.984 . S
H1467 N1460 0.984 . S
H1468 N1456 0.984 . S
H1469 N1456 0.985 . S
C1470 C1471 1.363 . S
C1470 C1476 1.379 . S
C1470 N1478 1.356 . S
C1471 C1470 1.363 . S
C1471 C1477 1.363 . S
C1472 C1473 1.363 . S
C1472 C1477 1.379 . S
C1472 N1479 1.356 . S
C1473 C1472 1.363 . S
C1473 C1476 1.363 . S
N1474 C1476 1.356 . S
N1474 H1486 0.984 . S
N1474 H1487 0.985 . S
N1475 C1477 1.356 . S
N1475 H1480 0.984 . S
N1475 H1481 0.985 . S
C1476 C1470 1.379 . S
C1476 C1473 1.363 . S
C1476 N1474 1.356 . S
C1477 C1471 1.363 . S
C1477 C1472 1.379 . S
C1477 N1475 1.356 . S
N1478 C1470 1.356 . S
N1478 H1484 0.984 . S
N1478 H1485 0.984 . S
N1479 C1472 1.356 . S
N1479 H1482 0.984 . S
N1479 H1483 0.985 . S
H1480 N1475 0.984 . S
H1481 N1475 0.985 . S
H1482 N1479 0.984 . S
H1483 N1479 0.985 . S
H1484 N1478 0.984 . S
H1485 N1478 0.984 . S
H1486 N1474 0.984 . S
H1487 N1474 0.985 . S
C1488 C1489 1.363 . S
C1488 C1494 1.379 . S
C1488 N1496 1.356 . S
C1489 C1488 1.363 . S
C1489 C1495 1.363 . S
C1490 C1491 1.363 . S
C1490 C1495 1.379 . S
C1490 N1497 1.356 . S
C1491 C1490 1.363 . S
C1491 C1494 1.363 . S
N1492 C1494 1.356 . S
N1492 H1504 0.984 . S
N1492 H1505 0.985 . S
N1493 C1495 1.356 . S
N1493 H1498 0.984 . S
N1493 H1499 0.985 . S
C1494 C1488 1.379 . S
C1494 C1491 1.363 . S
C1494 N1492 1.356 . S
C1495 C1489 1.363 . S
C1495 C1490 1.379 . S
C1495 N1493 1.356 . S
N1496 C1488 1.356 . S
N1496 H1502 0.984 . S
N1496 H1503 0.984 . S
N1497 C1490 1.356 . S
N1497 H1500 0.984 . S
N1497 H1501 0.985 . S
H1498 N1493 0.984 . S
H1499 N1493 0.985 . S
H1500 N1497 0.984 . S
H1501 N1497 0.985 . S
H1502 N1496 0.984 . S
H1503 N1496 0.984 . S
H1504 N1492 0.984 . S
H1505 N1492 0.985 . S
C1506 C1507 1.363 . S
C1506 C1512 1.379 . S
C1506 N1514 1.356 . S
C1507 C1506 1.363 . S
C1507 C1513 1.363 . S
C1508 C1509 1.363 . S
C1508 C1513 1.379 . S
C1508 N1515 1.356 . S
C1509 C1508 1.363 . S
C1509 C1512 1.363 . S
N1510 C1512 1.356 . S
N1510 H1522 0.984 . S
N1510 H1523 0.985 . S
N1511 C1513 1.356 . S
N1511 H1516 0.984 . S
N1511 H1517 0.985 . S
C1512 C1506 1.379 . S
C1512 C1509 1.363 . S
C1512 N1510 1.356 . S
C1513 C1507 1.363 . S
C1513 C1508 1.379 . S
C1513 N1511 1.356 . S
N1514 C1506 1.356 . S
N1514 H1520 0.984 . S
N1514 H1521 0.984 . S
N1515 C1508 1.356 . S
N1515 H1518 0.984 . S
N1515 H1519 0.985 . S
H1516 N1511 0.984 . S
H1517 N1511 0.985 . S
H1518 N1515 0.984 . S
H1519 N1515 0.985 . S
H1520 N1514 0.984 . S
H1521 N1514 0.984 . S
H1522 N1510 0.984 . S
H1523 N1510 0.985 . S
C1524 C1525 1.363 . S
C1524 C1530 1.379 . S
C1524 N1532 1.356 . S
C1525 C1524 1.363 . S
C1525 C1531 1.363 . S
C1526 C1527 1.363 . S
C1526 C1531 1.379 . S
C1526 N1533 1.356 . S
C1527 C1526 1.363 . S
C1527 C1530 1.363 . S
N1528 C1530 1.356 . S
N1528 H1540 0.984 . S
N1528 H1541 0.985 . S
N1529 C1531 1.356 . S
N1529 H1534 0.984 . S
N1529 H1535 0.985 . S
C1530 C1524 1.379 . S
C1530 C1527 1.363 . S
C1530 N1528 1.356 . S
C1531 C1525 1.363 . S
C1531 C1526 1.379 . S
C1531 N1529 1.356 . S
N1532 C1524 1.356 . S
N1532 H1538 0.984 . S
N1532 H1539 0.984 . S
N1533 C1526 1.356 . S
N1533 H1536 0.984 . S
N1533 H1537 0.985 . S
H1534 N1529 0.984 . S
H1535 N1529 0.985 . S
H1536 N1533 0.984 . S
H1537 N1533 0.985 . S
H1538 N1532 0.984 . S
H1539 N1532 0.984 . S
H1540 N1528 0.984 . S
H1541 N1528 0.985 . S
C1542 C1543 1.363 . S
C1542 C1548 1.379 . S
C1542 N1550 1.356 . S
C1543 C1542 1.363 . S
C1543 C1549 1.363 . S
C1544 C1545 1.363 . S
C1544 C1549 1.379 . S
C1544 N1551 1.356 . S
C1545 C1544 1.363 . S
C1545 C1548 1.363 . S
N1546 C1548 1.356 . S
N1546 H1558 0.984 . S
N1546 H1559 0.985 . S
N1547 C1549 1.356 . S
N1547 H1552 0.984 . S
N1547 H1553 0.985 . S
C1548 C1542 1.379 . S
C1548 C1545 1.363 . S
C1548 N1546 1.356 . S
C1549 C1543 1.363 . S
C1549 C1544 1.379 . S
C1549 N1547 1.356 . S
N1550 C1542 1.356 . S
N1550 H1556 0.984 . S
N1550 H1557 0.984 . S
N1551 C1544 1.356 . S
N1551 H1554 0.984 . S
N1551 H1555 0.985 . S
H1552 N1547 0.984 . S
H1553 N1547 0.985 . S
H1554 N1551 0.984 . S
H1555 N1551 0.985 . S
H1556 N1550 0.984 . S
H1557 N1550 0.984 . S
H1558 N1546 0.984 . S
H1559 N1546 0.985 . S
C1560 C1561 1.363 . S
C1560 C1566 1.379 . S
C1560 N1568 1.356 . S
C1561 C1560 1.363 . S
C1561 C1567 1.363 . S
C1562 C1563 1.363 . S
C1562 C1567 1.379 . S
C1562 N1569 1.356 . S
C1563 C1562 1.363 . S
C1563 C1566 1.363 . S
N1564 C1566 1.356 . S
N1564 H1576 0.984 . S
N1564 H1577 0.985 . S
N1565 C1567 1.356 . S
N1565 H1570 0.984 . S
N1565 H1571 0.985 . S
C1566 C1560 1.379 . S
C1566 C1563 1.363 . S
C1566 N1564 1.356 . S
C1567 C1561 1.363 . S
C1567 C1562 1.379 . S
C1567 N1565 1.356 . S
N1568 C1560 1.356 . S
N1568 H1574 0.984 . S
N1568 H1575 0.984 . S
N1569 C1562 1.356 . S
N1569 H1572 0.984 . S
N1569 H1573 0.985 . S
H1570 N1565 0.984 . S
H1571 N1565 0.985 . S
H1572 N1569 0.984 . S
H1573 N1569 0.985 . S
H1574 N1568 0.984 . S
H1575 N1568 0.984 . S
H1576 N1564 0.984 . S
H1577 N1564 0.985 . S
C1578 C1579 1.363 . S
C1578 C1584 1.379 . S
C1578 N1586 1.356 . S
C1579 C1578 1.363 . S
C1579 C1585 1.363 . S
C1580 C1581 1.363 . S
C1580 C1585 1.379 . S
C1580 N1587 1.356 . S
C1581 C1580 1.363 . S
C1581 C1584 1.363 . S
N1582 C1584 1.356 . S
N1582 H1594 0.984 . S
N1582 H1595 0.985 . S
N1583 C1585 1.356 . S
N1583 H1588 0.984 . S
N1583 H1589 0.985 . S
C1584 C1578 1.379 . S
C1584 C1581 1.363 . S
C1584 N1582 1.356 . S
C1585 C1579 1.363 . S
C1585 C1580 1.379 . S
C1585 N1583 1.356 . S
N1586 C1578 1.356 . S
N1586 H1592 0.984 . S
N1586 H1593 0.984 . S
N1587 C1580 1.356 . S
N1587 H1590 0.984 . S
N1587 H1591 0.985 . S
H1588 N1583 0.984 . S
H1589 N1583 0.985 . S
H1590 N1587 0.984 . S
H1591 N1587 0.985 . S
H1592 N1586 0.984 . S
H1593 N1586 0.984 . S
H1594 N1582 0.984 . S
H1595 N1582 0.985 . S
C1596 C1597 1.363 . S
C1596 C1602 1.379 . S
C1596 N1604 1.356 . S
C1597 C1596 1.363 . S
C1597 C1603 1.363 . S
C1598 C1599 1.363 . S
C1598 C1603 1.379 . S
C1598 N1605 1.356 . S
C1599 C1598 1.363 . S
C1599 C1602 1.363 . S
N1600 C1602 1.356 . S
N1600 H1612 0.984 . S
N1600 H1613 0.985 . S
N1601 C1603 1.356 . S
N1601 H1606 0.984 . S
N1601 H1607 0.985 . S
C1602 C1596 1.379 . S
C1602 C1599 1.363 . S
C1602 N1600 1.356 . S
C1603 C1597 1.363 . S
C1603 C1598 1.379 . S
C1603 N1601 1.356 . S
N1604 C1596 1.356 . S
N1604 H1610 0.984 . S
N1604 H1611 0.984 . S
N1605 C1598 1.356 . S
N1605 H1608 0.984 . S
N1605 H1609 0.985 . S
H1606 N1601 0.984 . S
H1607 N1601 0.985 . S
H1608 N1605 0.984 . S
H1609 N1605 0.985 . S
H1610 N1604 0.984 . S
H1611 N1604 0.984 . S
H1612 N1600 0.984 . S
H1613 N1600 0.985 . S
C1614 C1615 1.363 . S
C1614 C1620 1.379 . S
C1614 N1622 1.356 . S
C1615 C1614 1.363 . S
C1615 C1621 1.363 . S
C1616 C1617 1.363 . S
C1616 C1621 1.379 . S
C1616 N1623 1.356 . S
C1617 C1616 1.363 . S
C1617 C1620 1.363 . S
N1618 C1620 1.356 . S
N1618 H1630 0.984 . S
N1618 H1631 0.985 . S
N1619 C1621 1.356 . S
N1619 H1624 0.984 . S
N1619 H1625 0.985 . S
C1620 C1614 1.379 . S
C1620 C1617 1.363 . S
C1620 N1618 1.356 . S
C1621 C1615 1.363 . S
C1621 C1616 1.379 . S
C1621 N1619 1.356 . S
N1622 C1614 1.356 . S
N1622 H1628 0.984 . S
N1622 H1629 0.984 . S
N1623 C1616 1.356 . S
N1623 H1626 0.984 . S
N1623 H1627 0.985 . S
H1624 N1619 0.984 . S
H1625 N1619 0.985 . S
H1626 N1623 0.984 . S
H1627 N1623 0.985 . S
H1628 N1622 0.984 . S
H1629 N1622 0.984 . S
H1630 N1618 0.984 . S
H1631 N1618 0.985 . S
C1632 C1633 1.363 . S
C1632 C1638 1.379 . S
C1632 N1640 1.356 . S
C1633 C1632 1.363 . S
C1633 C1639 1.363 . S
C1634 C1635 1.363 . S
C1634 C1639 1.379 . S
C1634 N1641 1.356 . S
C1635 C1634 1.363 . S
C1635 C1638 1.363 . S
N1636 C1638 1.356 . S
N1636 H1648 0.984 . S
N1636 H1649 0.985 . S
N1637 C1639 1.356 . S
N1637 H1642 0.984 . S
N1637 H1643 0.985 . S
C1638 C1632 1.379 . S
C1638 C1635 1.363 . S
C1638 N1636 1.356 . S
C1639 C1633 1.363 . S
C1639 C1634 1.379 . S
C1639 N1637 1.356 . S
N1640 C1632 1.356 . S
N1640 H1646 0.984 . S
N1640 H1647 0.984 . S
N1641 C1634 1.356 . S
N1641 H1644 0.984 . S
N1641 H1645 0.985 . S
H1642 N1637 0.984 . S
H1643 N1637 0.985 . S
H1644 N1641 0.984 . S
H1645 N1641 0.985 . S
H1646 N1640 0.984 . S
H1647 N1640 0.984 . S
H1648 N1636 0.984 . S
H1649 N1636 0.985 . S
C1650 C1651 1.363 . S
C1650 C1656 1.379 . S
C1650 N1658 1.356 . S
C1651 C1650 1.363 . S
C1651 C1657 1.363 . S
C1652 C1653 1.363 . S
C1652 C1657 1.379 . S
C1652 N1659 1.356 . S
C1653 C1652 1.363 . S
C1653 C1656 1.363 . S
N1654 C1656 1.356 . S
N1654 H1666 0.984 . S
N1654 H1667 0.985 . S
N1655 C1657 1.356 . S
N1655 H1660 0.984 . S
N1655 H1661 0.985 . S
C1656 C1650 1.379 . S
C1656 C1653 1.363 . S
C1656 N1654 1.356 . S
C1657 C1651 1.363 . S
C1657 C1652 1.379 . S
C1657 N1655 1.356 . S
N1658 C1650 1.356 . S
N1658 H1664 0.984 . S
N1658 H1665 0.984 . S
N1659 C1652 1.356 . S
N1659 H1662 0.984 . S
N1659 H1663 0.985 . S
H1660 N1655 0.984 . S
H1661 N1655 0.985 . S
H1662 N1659 0.984 . S
H1663 N1659 0.985 . S
H1664 N1658 0.984 . S
H1665 N1658 0.984 . S
H1666 N1654 0.984 . S
H1667 N1654 0.985 . S
C1668 C1669 1.363 . S
C1668 C1674 1.379 . S
C1668 N1676 1.356 . S
C1669 C1668 1.363 . S
C1669 C1675 1.363 . S
C1670 C1671 1.363 . S
C1670 C1675 1.379 . S
C1670 N1677 1.356 . S
C1671 C1670 1.363 . S
C1671 C1674 1.363 . S
N1672 C1674 1.356 . S
N1672 H1684 0.984 . S
N1672 H1685 0.985 . S
N1673 C1675 1.356 . S
N1673 H1678 0.984 . S
N1673 H1679 0.985 . S
C1674 C1668 1.379 . S
C1674 C1671 1.363 . S
C1674 N1672 1.356 . S
C1675 C1669 1.363 . S
C1675 C1670 1.379 . S
C1675 N1673 1.356 . S
N1676 C1668 1.356 . S
N1676 H1682 0.984 . S
N1676 H1683 0.984 . S
N1677 C1670 1.356 . S
N1677 H1680 0.984 . S
N1677 H1681 0.985 . S
H1678 N1673 0.984 . S
H1679 N1673 0.985 . S
H1680 N1677 0.984 . S
H1681 N1677 0.985 . S
H1682 N1676 0.984 . S
H1683 N1676 0.984 . S
H1684 N1672 0.984 . S
H1685 N1672 0.985 . S
C1686 C1687 1.363 . S
C1686 C1692 1.379 . S
C1686 N1694 1.356 . S
C1687 C1686 1.363 . S
C1687 C1693 1.363 . S
C1688 C1689 1.363 . S
C1688 C1693 1.379 . S
C1688 N1695 1.356 . S
C1689 C1688 1.363 . S
C1689 C1692 1.363 . S
N1690 C1692 1.356 . S
N1690 H1702 0.984 . S
N1690 H1703 0.985 . S
N1691 C1693 1.356 . S
N1691 H1696 0.984 . S
N1691 H1697 0.985 . S
C1692 C1686 1.379 . S
C1692 C1689 1.363 . S
C1692 N1690 1.356 . S
C1693 C1687 1.363 . S
C1693 C1688 1.379 . S
C1693 N1691 1.356 . S
N1694 C1686 1.356 . S
N1694 H1700 0.984 . S
N1694 H1701 0.984 . S
N1695 C1688 1.356 . S
N1695 H1698 0.984 . S
N1695 H1699 0.985 . S
H1696 N1691 0.984 . S
H1697 N1691 0.985 . S
H1698 N1695 0.984 . S
H1699 N1695 0.985 . S
H1700 N1694 0.984 . S
H1701 N1694 0.984 . S
H1702 N1690 0.984 . S
H1703 N1690 0.985 . S
C1704 C1705 1.363 . S
C1704 C1710 1.379 . S
C1704 N1712 1.356 . S
C1705 C1704 1.363 . S
C1705 C1711 1.363 . S
C1706 C1707 1.363 . S
C1706 C1711 1.379 . S
C1706 N1713 1.356 . S
C1707 C1706 1.363 . S
C1707 C1710 1.363 . S
N1708 C1710 1.356 . S
N1708 H1720 0.984 . S
N1708 H1721 0.985 . S
N1709 C1711 1.356 . S
N1709 H1714 0.984 . S
N1709 H1715 0.985 . S
C1710 C1704 1.379 . S
C1710 C1707 1.363 . S
C1710 N1708 1.356 . S
C1711 C1705 1.363 . S
C1711 C1706 1.379 . S
C1711 N1709 1.356 . S
N1712 C1704 1.356 . S
N1712 H1718 0.984 . S
N1712 H1719 0.984 . S
N1713 C1706 1.356 . S
N1713 H1716 0.984 . S
N1713 H1717 0.985 . S
H1714 N1709 0.984 . S
H1715 N1709 0.985 . S
H1716 N1713 0.984 . S
H1717 N1713 0.985 . S
H1718 N1712 0.984 . S
H1719 N1712 0.984 . S
H1720 N1708 0.984 . S
H1721 N1708 0.985 . S
C1722 C1723 1.363 . S
C1722 C1728 1.379 . S
C1722 N1730 1.356 . S
C1723 C1722 1.363 . S
C1723 C1729 1.363 . S
C1724 C1725 1.363 . S
C1724 C1729 1.379 . S
C1724 N1731 1.356 . S
C1725 C1724 1.363 . S
C1725 C1728 1.363 . S
N1726 C1728 1.356 . S
N1726 H1738 0.984 . S
N1726 H1739 0.985 . S
N1727 C1729 1.356 . S
N1727 H1732 0.984 . S
N1727 H1733 0.985 . S
C1728 C1722 1.379 . S
C1728 C1725 1.363 . S
C1728 N1726 1.356 . S
C1729 C1723 1.363 . S
C1729 C1724 1.379 . S
C1729 N1727 1.356 . S
N1730 C1722 1.356 . S
N1730 H1736 0.984 . S
N1730 H1737 0.984 . S
N1731 C1724 1.356 . S
N1731 H1734 0.984 . S
N1731 H1735 0.985 . S
H1732 N1727 0.984 . S
H1733 N1727 0.985 . S
H1734 N1731 0.984 . S
H1735 N1731 0.985 . S
H1736 N1730 0.984 . S
H1737 N1730 0.984 . S
H1738 N1726 0.984 . S
H1739 N1726 0.985 . S
C1740 C1741 1.363 . S
C1740 C1746 1.379 1_565 S
C1740 N1748 1.356 . S
C1741 C1740 1.363 . S
C1741 C1747 1.363 1_565 S
C1742 C1743 1.363 . S
C1742 C1747 1.379 . S
C1742 N1749 1.356 . S
C1743 C1742 1.363 . S
C1743 C1746 1.363 . S
N1744 C1746 1.356 . S
N1744 H1756 0.984 . S
N1744 H1757 0.985 . S
N1745 C1747 1.356 1_565 S
N1745 H1750 0.984 . S
N1745 H1751 0.985 1_565 S
C1746 C1740 1.379 1_545 S
C1746 C1743 1.363 . S
C1746 N1744 1.356 . S
C1747 C1741 1.363 1_545 S
C1747 C1742 1.379 . S
C1747 N1745 1.356 1_545 S
N1748 C1740 1.356 . S
N1748 H1754 0.984 . S
N1748 H1755 0.984 . S
N1749 C1742 1.356 . S
N1749 H1752 0.984 . S
N1749 H1753 0.985 . S
H1750 N1745 0.984 . S
H1751 N1745 0.985 1_545 S
H1752 N1749 0.984 . S
H1753 N1749 0.985 . S
H1754 N1748 0.984 . S
H1755 N1748 0.984 . S
H1756 N1744 0.984 . S
H1757 N1744 0.985 . S
C1758 C1759 1.363 . S
C1758 C1764 1.379 . S
C1758 N1766 1.356 . S
C1759 C1758 1.363 . S
C1759 C1765 1.363 . S
C1760 C1761 1.363 . S
C1760 C1765 1.379 . S
C1760 N1767 1.356 . S
C1761 C1760 1.363 . S
C1761 C1764 1.363 . S
N1762 C1764 1.356 . S
N1762 H1774 0.984 . S
N1762 H1775 0.985 . S
N1763 C1765 1.356 1_455 S
N1763 H1768 0.984 . S
N1763 H1769 0.985 . S
C1764 C1758 1.379 . S
C1764 C1761 1.363 . S
C1764 N1762 1.356 . S
C1765 C1759 1.363 . S
C1765 C1760 1.379 . S
C1765 N1763 1.356 1_655 S
N1766 C1758 1.356 . S
N1766 H1772 0.984 . S
N1766 H1773 0.984 . S
N1767 C1760 1.356 . S
N1767 H1770 0.984 . S
N1767 H1771 0.985 . S
H1768 N1763 0.984 . S
H1769 N1763 0.985 . S
H1770 N1767 0.984 . S
H1771 N1767 0.985 . S
H1772 N1766 0.984 . S
H1773 N1766 0.984 . S
H1774 N1762 0.984 . S
H1775 N1762 0.985 . S
C1776 C1777 1.363 . S
C1776 C1782 1.379 . S
C1776 N1784 1.356 . S
C1777 C1776 1.363 . S
C1777 C1783 1.363 1_565 S
C1778 C1779 1.363 . S
C1778 C1783 1.379 . S
C1778 N1785 1.356 . S
C1779 C1778 1.363 . S
C1779 C1782 1.363 1_545 S
N1780 C1782 1.356 . S
N1780 H1792 0.984 . S
N1780 H1793 0.985 1_565 S
N1781 C1783 1.356 . S
N1781 H1786 0.984 1_545 S
N1781 H1787 0.985 . S
C1782 C1776 1.379 . S
C1782 C1779 1.363 1_565 S
C1782 N1780 1.356 . S
C1783 C1777 1.363 1_545 S
C1783 C1778 1.379 . S
C1783 N1781 1.356 . S
N1784 C1776 1.356 . S
N1784 H1790 0.984 . S
N1784 H1791 0.984 . S
N1785 C1778 1.356 . S
N1785 H1788 0.984 . S
N1785 H1789 0.985 . S
H1786 N1781 0.984 1_565 S
H1787 N1781 0.985 . S
H1788 N1785 0.984 . S
H1789 N1785 0.985 . S
H1790 N1784 0.984 . S
H1791 N1784 0.984 . S
H1792 N1780 0.984 . S
H1793 N1780 0.985 1_545 S
C1794 C1795 1.363 . S
C1794 C1800 1.379 . S
C1794 N1802 1.356 . S
C1795 C1794 1.363 . S
C1795 C1801 1.363 . S
C1796 C1797 1.363 . S
C1796 C1801 1.379 . S
C1796 N1803 1.356 . S
C1797 C1796 1.363 . S
C1797 C1800 1.363 . S
N1798 C1800 1.356 1_455 S
N1798 H1810 0.984 . S
N1798 H1811 0.985 . S
N1799 C1801 1.356 . S
N1799 H1804 0.984 . S
N1799 H1805 0.985 . S
C1800 C1794 1.379 . S
C1800 C1797 1.363 . S
C1800 N1798 1.356 1_655 S
C1801 C1795 1.363 . S
C1801 C1796 1.379 . S
C1801 N1799 1.356 . S
N1802 C1794 1.356 . S
N1802 H1808 0.984 . S
N1802 H1809 0.984 . S
N1803 C1796 1.356 . S
N1803 H1806 0.984 . S
N1803 H1807 0.985 . S
H1804 N1799 0.984 . S
H1805 N1799 0.985 . S
H1806 N1803 0.984 . S
H1807 N1803 0.985 . S
H1808 N1802 0.984 . S
H1809 N1802 0.984 . S
H1810 N1798 0.984 . S
H1811 N1798 0.985 . S
C1812 C1813 1.363 . S
C1812 C1818 1.379 . S
C1812 N1820 1.356 . S
C1813 C1812 1.363 . S
C1813 C1819 1.363 . S
C1814 C1815 1.363 . S
C1814 C1819 1.379 . S
C1814 N1821 1.356 . S
C1815 C1814 1.363 . S
C1815 C1818 1.363 . S
N1816 C1818 1.356 . S
N1816 H1828 0.984 . S
N1816 H1829 0.985 . S
N1817 C1819 1.356 . S
N1817 H1822 0.984 . S
N1817 H1823 0.985 . S
C1818 C1812 1.379 . S
C1818 C1815 1.363 . S
C1818 N1816 1.356 . S
C1819 C1813 1.363 . S
C1819 C1814 1.379 . S
C1819 N1817 1.356 . S
N1820 C1812 1.356 . S
N1820 H1826 0.984 . S
N1820 H1827 0.984 . S
N1821 C1814 1.356 . S
N1821 H1824 0.984 . S
N1821 H1825 0.985 . S
H1822 N1817 0.984 . S
H1823 N1817 0.985 . S
H1824 N1821 0.984 . S
H1825 N1821 0.985 . S
H1826 N1820 0.984 . S
H1827 N1820 0.984 . S
H1828 N1816 0.984 . S
H1829 N1816 0.985 . S
C1830 C1831 1.363 . S
C1830 C1836 1.379 . S
C1830 N1838 1.356 . S
C1831 C1830 1.363 . S
C1831 C1837 1.363 . S
C1832 C1833 1.363 . S
C1832 C1837 1.379 . S
C1832 N1839 1.356 . S
C1833 C1832 1.363 . S
C1833 C1836 1.363 . S
N1834 C1836 1.356 . S
N1834 H1846 0.984 . S
N1834 H1847 0.985 . S
N1835 C1837 1.356 . S
N1835 H1840 0.984 . S
N1835 H1841 0.985 . S
C1836 C1830 1.379 . S
C1836 C1833 1.363 . S
C1836 N1834 1.356 . S
C1837 C1831 1.363 . S
C1837 C1832 1.379 . S
C1837 N1835 1.356 . S
N1838 C1830 1.356 . S
N1838 H1844 0.984 . S
N1838 H1845 0.984 . S
N1839 C1832 1.356 . S
N1839 H1842 0.984 . S
N1839 H1843 0.985 . S
H1840 N1835 0.984 . S
H1841 N1835 0.985 . S
H1842 N1839 0.984 . S
H1843 N1839 0.985 . S
H1844 N1838 0.984 . S
H1845 N1838 0.984 . S
H1846 N1834 0.984 . S
H1847 N1834 0.985 . S
C1848 C1849 1.363 . S
C1848 C1854 1.379 . S
C1848 N1856 1.356 . S
C1849 C1848 1.363 . S
C1849 C1855 1.363 . S
C1850 C1851 1.363 . S
C1850 C1855 1.379 . S
C1850 N1857 1.356 . S
C1851 C1850 1.363 . S
C1851 C1854 1.363 . S
N1852 C1854 1.356 . S
N1852 H1864 0.984 . S
N1852 H1865 0.985 . S
N1853 C1855 1.356 . S
N1853 H1858 0.984 . S
N1853 H1859 0.985 . S
C1854 C1848 1.379 . S
C1854 C1851 1.363 . S
C1854 N1852 1.356 . S
C1855 C1849 1.363 . S
C1855 C1850 1.379 . S
C1855 N1853 1.356 . S
N1856 C1848 1.356 . S
N1856 H1862 0.984 . S
N1856 H1863 0.984 . S
N1857 C1850 1.356 . S
N1857 H1860 0.984 . S
N1857 H1861 0.985 . S
H1858 N1853 0.984 . S
H1859 N1853 0.985 . S
H1860 N1857 0.984 . S
H1861 N1857 0.985 . S
H1862 N1856 0.984 . S
H1863 N1856 0.984 . S
H1864 N1852 0.984 . S
H1865 N1852 0.985 . S
C1866 C1867 1.363 . S
C1866 C1872 1.379 . S
C1866 N1874 1.356 . S
C1867 C1866 1.363 . S
C1867 C1873 1.363 . S
C1868 C1869 1.363 . S
C1868 C1873 1.379 . S
C1868 N1875 1.356 1_554 S
C1869 C1868 1.363 . S
C1869 C1872 1.363 . S
N1870 C1872 1.356 . S
N1870 H1882 0.984 . S
N1870 H1883 0.985 . S
N1871 C1873 1.356 . S
N1871 H1876 0.984 . S
N1871 H1877 0.985 . S
C1872 C1866 1.379 . S
C1872 C1869 1.363 . S
C1872 N1870 1.356 . S
C1873 C1867 1.363 . S
C1873 C1868 1.379 . S
C1873 N1871 1.356 . S
N1874 C1866 1.356 . S
N1874 H1880 0.984 . S
N1874 H1881 0.984 . S
N1875 C1868 1.356 1_556 S
N1875 H1878 0.984 . S
N1875 H1879 0.985 . S
H1876 N1871 0.984 . S
H1877 N1871 0.985 . S
H1878 N1875 0.984 . S
H1879 N1875 0.985 . S
H1880 N1874 0.984 . S
H1881 N1874 0.984 . S
H1882 N1870 0.984 . S
H1883 N1870 0.985 . S
C1884 C1885 1.363 . S
C1884 C1890 1.379 . S
C1884 N1892 1.356 . S
C1885 C1884 1.363 . S
C1885 C1891 1.363 . S
C1886 C1887 1.363 . S
C1886 C1891 1.379 . S
C1886 N1893 1.356 . S
C1887 C1886 1.363 . S
C1887 C1890 1.363 . S
N1888 C1890 1.356 . S
N1888 H1900 0.984 . S
N1888 H1901 0.985 . S
N1889 C1891 1.356 . S
N1889 H1894 0.984 . S
N1889 H1895 0.985 . S
C1890 C1884 1.379 . S
C1890 C1887 1.363 . S
C1890 N1888 1.356 . S
C1891 C1885 1.363 . S
C1891 C1886 1.379 . S
C1891 N1889 1.356 . S
N1892 C1884 1.356 . S
N1892 H1898 0.984 . S
N1892 H1899 0.984 . S
N1893 C1886 1.356 . S
N1893 H1896 0.984 . S
N1893 H1897 0.985 . S
H1894 N1889 0.984 . S
H1895 N1889 0.985 . S
H1896 N1893 0.984 . S
H1897 N1893 0.985 . S
H1898 N1892 0.984 . S
H1899 N1892 0.984 . S
H1900 N1888 0.984 . S
H1901 N1888 0.985 . S
C1902 C1903 1.363 . S
C1902 C1908 1.379 . S
C1902 N1910 1.356 . S
C1903 C1902 1.363 . S
C1903 C1909 1.363 . S
C1904 C1905 1.363 . S
C1904 C1909 1.379 . S
C1904 N1911 1.356 . S
C1905 C1904 1.363 . S
C1905 C1908 1.363 . S
N1906 C1908 1.356 . S
N1906 H1918 0.984 . S
N1906 H1919 0.985 . S
N1907 C1909 1.356 1_556 S
N1907 H1912 0.984 . S
N1907 H1913 0.985 . S
C1908 C1902 1.379 . S
C1908 C1905 1.363 . S
C1908 N1906 1.356 . S
C1909 C1903 1.363 . S
C1909 C1904 1.379 . S
C1909 N1907 1.356 1_554 S
N1910 C1902 1.356 . S
N1910 H1916 0.984 . S
N1910 H1917 0.984 . S
N1911 C1904 1.356 . S
N1911 H1914 0.984 . S
N1911 H1915 0.985 1_554 S
H1912 N1907 0.984 . S
H1913 N1907 0.985 . S
H1914 N1911 0.984 . S
H1915 N1911 0.985 1_556 S
H1916 N1910 0.984 . S
H1917 N1910 0.984 . S
H1918 N1906 0.984 . S
H1919 N1906 0.985 . S
C1920 C1921 1.363 . S
C1920 C1926 1.379 . S
C1920 N1928 1.356 . S
C1921 C1920 1.363 . S
C1921 C1927 1.363 . S
C1922 C1923 1.363 . S
C1922 C1927 1.379 . S
C1922 N1929 1.356 . S
C1923 C1922 1.363 . S
C1923 C1926 1.363 . S
N1924 C1926 1.356 . S
N1924 H1936 0.984 . S
N1924 H1937 0.985 . S
N1925 C1927 1.356 . S
N1925 H1930 0.984 . S
N1925 H1931 0.985 . S
C1926 C1920 1.379 . S
C1926 C1923 1.363 . S
C1926 N1924 1.356 . S
C1927 C1921 1.363 . S
C1927 C1922 1.379 . S
C1927 N1925 1.356 . S
N1928 C1920 1.356 . S
N1928 H1934 0.984 . S
N1928 H1935 0.984 . S
N1929 C1922 1.356 . S
N1929 H1932 0.984 . S
N1929 H1933 0.985 . S
H1930 N1925 0.984 . S
H1931 N1925 0.985 . S
H1932 N1929 0.984 . S
H1933 N1929 0.985 . S
H1934 N1928 0.984 . S
H1935 N1928 0.984 . S
H1936 N1924 0.984 . S
H1937 N1924 0.985 . S
C1938 C1939 1.363 . S
C1938 C1944 1.379 . S
C1938 N1946 1.356 . S
C1939 C1938 1.363 . S
C1939 C1945 1.363 . S
C1940 C1941 1.363 . S
C1940 C1945 1.379 . S
C1940 N1947 1.356 . S
C1941 C1940 1.363 . S
C1941 C1944 1.363 . S
N1942 C1944 1.356 . S
N1942 H1954 0.984 . S
N1942 H1955 0.985 . S
N1943 C1945 1.356 . S
N1943 H1948 0.984 . S
N1943 H1949 0.985 . S
C1944 C1938 1.379 . S
C1944 C1941 1.363 . S
C1944 N1942 1.356 . S
C1945 C1939 1.363 . S
C1945 C1940 1.379 . S
C1945 N1943 1.356 . S
N1946 C1938 1.356 . S
N1946 H1952 0.984 . S
N1946 H1953 0.984 . S
N1947 C1940 1.356 . S
N1947 H1950 0.984 . S
N1947 H1951 0.985 . S
H1948 N1943 0.984 . S
H1949 N1943 0.985 . S
H1950 N1947 0.984 . S
H1951 N1947 0.985 . S
H1952 N1946 0.984 . S
H1953 N1946 0.984 . S
H1954 N1942 0.984 . S
H1955 N1942 0.985 . S
C1956 C1957 1.363 1_565 S
C1956 C1962 1.379 . S
C1956 N1964 1.356 . S
C1957 C1956 1.363 1_545 S
C1957 C1963 1.363 . S
C1958 C1959 1.328 1_545 S
C1958 C1963 1.398 . S
C1958 N1965 1.362 . S
C1959 C1958 1.328 1_565 S
C1959 C1962 1.363 . S
N1960 C1962 1.356 . S
N1960 H1972 0.984 . S
N1960 H1973 0.985 . S
N1961 C1963 1.356 . S
N1961 H1966 0.984 . S
N1961 H1967 0.985 . S
C1962 C1956 1.379 . S
C1962 C1959 1.363 . S
C1962 N1960 1.356 . S
C1963 C1957 1.363 . S
C1963 C1958 1.398 . S
C1963 N1961 1.356 . S
N1964 C1956 1.356 . S
N1964 H1970 0.984 . S
N1964 H1971 0.984 . S
N1965 C1958 1.362 . S
N1965 H1968 0.984 1_545 S
N1965 H1969 0.985 . S
H1966 N1961 0.984 . S
H1967 N1961 0.985 . S
H1968 N1965 0.984 1_565 S
H1969 N1965 0.985 . S
H1970 N1964 0.984 . S
H1971 N1964 0.984 . S
H1972 N1960 0.984 . S
H1973 N1960 0.985 . S
C1974 C1975 1.363 . S
C1974 C1980 1.379 . S
C1974 N1982 1.356 . S
C1975 C1974 1.363 . S
C1975 C1981 1.363 . S
C1976 C1977 1.363 . S
C1976 C1981 1.379 1_655 S
C1976 N1983 1.356 . S
C1977 C1976 1.363 . S
C1977 C1980 1.363 1_655 S
N1978 C1980 1.356 . S
N1978 H1990 0.984 . S
N1978 H1991 0.985 1_455 S
N1979 C1981 1.356 . S
N1979 H1984 0.984 . S
N1979 H1985 0.985 1_455 S
C1980 C1974 1.379 . S
C1980 C1977 1.363 1_455 S
C1980 N1978 1.356 . S
C1981 C1975 1.363 . S
C1981 C1976 1.379 1_455 S
C1981 N1979 1.356 . S
N1982 C1974 1.356 . S
N1982 H1988 0.984 . S
N1982 H1989 0.984 . S
N1983 C1976 1.356 . S
N1983 H1986 0.984 . S
N1983 H1987 0.985 . S
H1984 N1979 0.984 . S
H1985 N1979 0.985 1_655 S
H1986 N1983 0.984 . S
H1987 N1983 0.985 . S
H1988 N1982 0.984 . S
H1989 N1982 0.984 . S
H1990 N1978 0.984 . S
H1991 N1978 0.985 1_655 S
C1992 C1993 1.363 . S
C1992 C1998 1.379 . S
C1992 N2000 1.356 . S
C1993 C1992 1.363 . S
C1993 C1999 1.363 . S
C1994 C1995 1.363 . S
C1994 C1999 1.379 1_565 S
C1994 N2001 1.356 . S
C1995 C1994 1.363 . S
C1995 C1998 1.363 1_565 S
N1996 C1998 1.356 . S
N1996 H2008 0.984 . S
N1996 H2009 0.985 . S
N1997 C1999 1.356 . S
N1997 H2002 0.984 . S
N1997 H2003 0.985 1_545 S
C1998 C1992 1.379 . S
C1998 C1995 1.363 1_545 S
C1998 N1996 1.356 . S
C1999 C1993 1.363 . S
C1999 C1994 1.379 1_545 S
C1999 N1997 1.356 . S
N2000 C1992 1.356 . S
N2000 H2006 0.984 . S
N2000 H2007 0.984 . S
N2001 C1994 1.356 . S
N2001 H2004 0.984 . S
N2001 H2005 0.985 . S
H2002 N1997 0.984 . S
H2003 N1997 0.985 1_565 S
H2004 N2001 0.984 . S
H2005 N2001 0.985 . S
H2006 N2000 0.984 . S
H2007 N2000 0.984 . S
H2008 N1996 0.984 . S
H2009 N1996 0.985 . S
C2010 C2011 1.363 . S
C2010 C2016 1.379 . S
C2010 N2018 1.356 . S
C2011 C2010 1.363 . S
C2011 C2017 1.363 1_455 S
C2012 C2013 1.363 . S
C2012 C2017 1.379 . S
C2012 N2019 1.356 . S
C2013 C2012 1.363 . S
C2013 C2016 1.363 1_655 S
N2014 C2016 1.356 . S
N2014 H2026 0.984 . S
N2014 H2027 0.985 . S
N2015 C2017 1.356 . S
N2015 H2020 0.984 1_655 S
N2015 H2021 0.985 . S
C2016 C2010 1.379 . S
C2016 C2013 1.363 1_455 S
C2016 N2014 1.356 . S
C2017 C2011 1.363 1_655 S
C2017 C2012 1.379 . S
C2017 N2015 1.356 . S
N2018 C2010 1.356 . S
N2018 H2024 0.984 . S
N2018 H2025 0.984 . S
N2019 C2012 1.356 . S
N2019 H2022 0.984 . S
N2019 H2023 0.985 . S
H2020 N2015 0.984 1_455 S
H2021 N2015 0.985 . S
H2022 N2019 0.984 . S
H2023 N2019 0.985 . S
H2024 N2018 0.984 . S
H2025 N2018 0.984 . S
H2026 N2014 0.984 . S
H2027 N2014 0.985 . S
C2028 C2029 1.363 . S
C2028 C2034 1.379 . S
C2028 N2036 1.356 . S
C2029 C2028 1.363 . S
C2029 C2035 1.363 . S
C2030 C2031 1.363 . S
C2030 C2035 1.379 . S
C2030 N2037 1.356 . S
C2031 C2030 1.363 . S
C2031 C2034 1.363 . S
N2032 C2034 1.356 . S
N2032 H2044 0.984 . S
N2032 H2045 0.985 . S
N2033 C2035 1.356 . S
N2033 H2038 0.984 . S
N2033 H2039 0.985 . S
C2034 C2028 1.379 . S
C2034 C2031 1.363 . S
C2034 N2032 1.356 . S
C2035 C2029 1.363 . S
C2035 C2030 1.379 . S
C2035 N2033 1.356 . S
N2036 C2028 1.356 . S
N2036 H2042 0.984 . S
N2036 H2043 0.984 . S
N2037 C2030 1.356 . S
N2037 H2040 0.984 . S
N2037 H2041 0.985 . S
H2038 N2033 0.984 . S
H2039 N2033 0.985 . S
H2040 N2037 0.984 . S
H2041 N2037 0.985 . S
H2042 N2036 0.984 . S
H2043 N2036 0.984 . S
H2044 N2032 0.984 . S
H2045 N2032 0.985 . S
C2046 C2047 1.363 . S
C2046 C2052 1.379 . S
C2046 N2054 1.356 . S
C2047 C2046 1.363 . S
C2047 C2053 1.363 . S
C2048 C2049 1.363 . S
C2048 C2053 1.379 . S
C2048 N2055 1.356 . S
C2049 C2048 1.363 . S
C2049 C2052 1.363 . S
N2050 C2052 1.356 . S
N2050 H2062 0.984 . S
N2050 H2063 0.985 . S
N2051 C2053 1.356 . S
N2051 H2056 0.984 . S
N2051 H2057 0.985 . S
C2052 C2046 1.379 . S
C2052 C2049 1.363 . S
C2052 N2050 1.356 . S
C2053 C2047 1.363 . S
C2053 C2048 1.379 . S
C2053 N2051 1.356 . S
N2054 C2046 1.356 . S
N2054 H2060 0.984 . S
N2054 H2061 0.984 . S
N2055 C2048 1.356 . S
N2055 H2058 0.984 . S
N2055 H2059 0.985 . S
H2056 N2051 0.984 . S
H2057 N2051 0.985 . S
H2058 N2055 0.984 . S
H2059 N2055 0.985 . S
H2060 N2054 0.984 . S
H2061 N2054 0.984 . S
H2062 N2050 0.984 . S
H2063 N2050 0.985 . S
C2064 C2065 1.363 . S
C2064 C2070 1.379 . S
C2064 N2072 1.356 . S
C2065 C2064 1.363 . S
C2065 C2071 1.363 . S
C2066 C2067 1.363 . S
C2066 C2071 1.379 . S
C2066 N2073 1.356 . S
C2067 C2066 1.363 . S
C2067 C2070 1.363 . S
N2068 C2070 1.356 . S
N2068 H2080 0.984 . S
N2068 H2081 0.985 . S
N2069 C2071 1.356 . S
N2069 H2074 0.984 . S
N2069 H2075 0.985 . S
C2070 C2064 1.379 . S
C2070 C2067 1.363 . S
C2070 N2068 1.356 . S
C2071 C2065 1.363 . S
C2071 C2066 1.379 . S
C2071 N2069 1.356 . S
N2072 C2064 1.356 . S
N2072 H2078 0.984 . S
N2072 H2079 0.984 . S
N2073 C2066 1.356 . S
N2073 H2076 0.984 . S
N2073 H2077 0.985 . S
H2074 N2069 0.984 . S
H2075 N2069 0.985 . S
H2076 N2073 0.984 . S
H2077 N2073 0.985 . S
H2078 N2072 0.984 . S
H2079 N2072 0.984 . S
H2080 N2068 0.984 . S
H2081 N2068 0.985 . S
C2082 C2083 1.363 . S
C2082 C2088 1.379 1_554 S
C2082 N2090 1.356 . S
C2083 C2082 1.363 . S
C2083 C2089 1.363 . S
C2084 C2085 1.363 . S
C2084 C2089 1.379 1_556 S
C2084 N2091 1.356 . S
C2085 C2084 1.363 . S
C2085 C2088 1.363 . S
N2086 C2088 1.356 . S
N2086 H2098 0.984 . S
N2086 H2099 0.985 . S
N2087 C2089 1.356 . S
N2087 H2092 0.984 . S
N2087 H2093 0.985 . S
C2088 C2082 1.379 1_556 S
C2088 C2085 1.363 . S
C2088 N2086 1.356 . S
C2089 C2083 1.363 . S
C2089 C2084 1.379 1_554 S
C2089 N2087 1.356 . S
N2090 C2082 1.356 . S
N2090 H2096 0.984 . S
N2090 H2097 0.984 . S
N2091 C2084 1.356 . S
N2091 H2094 0.984 . S
N2091 H2095 0.985 . S
H2092 N2087 0.984 . S
H2093 N2087 0.985 . S
H2094 N2091 0.984 . S
H2095 N2091 0.985 . S
H2096 N2090 0.984 . S
H2097 N2090 0.984 . S
H2098 N2086 0.984 . S
H2099 N2086 0.985 . S
C2100 C2101 1.363 . S
C2100 C2106 1.379 . S
C2100 N2108 1.356 . S
C2101 C2100 1.363 . S
C2101 C2107 1.363 . S
C2102 C2103 1.363 . S
C2102 C2107 1.379 . S
C2102 N2109 1.356 . S
C2103 C2102 1.363 . S
C2103 C2106 1.363 . S
N2104 C2106 1.356 . S
N2104 H2116 0.984 . S
N2104 H2117 0.985 . S
N2105 C2107 1.356 . S
N2105 H2110 0.984 . S
N2105 H2111 0.985 . S
C2106 C2100 1.379 . S
C2106 C2103 1.363 . S
C2106 N2104 1.356 . S
C2107 C2101 1.363 . S
C2107 C2102 1.379 . S
C2107 N2105 1.356 . S
N2108 C2100 1.356 . S
N2108 H2114 0.984 . S
N2108 H2115 0.984 . S
N2109 C2102 1.356 . S
N2109 H2112 0.984 . S
N2109 H2113 0.985 . S
H2110 N2105 0.984 . S
H2111 N2105 0.985 . S
H2112 N2109 0.984 . S
H2113 N2109 0.985 . S
H2114 N2108 0.984 . S
H2115 N2108 0.984 . S
H2116 N2104 0.984 . S
H2117 N2104 0.985 . S
C2118 C2119 1.363 1_556 S
C2118 C2124 1.379 . S
C2118 N2126 1.356 . S
C2119 C2118 1.363 1_554 S
C2119 C2125 1.363 . S
C2120 C2121 1.363 . S
C2120 C2125 1.379 1_556 S
C2120 N2127 1.356 . S
C2121 C2120 1.363 . S
C2121 C2124 1.363 . S
N2122 C2124 1.356 . S
N2122 H2134 0.984 . S
N2122 H2135 0.985 . S
N2123 C2125 1.356 . S
N2123 H2128 0.984 . S
N2123 H2129 0.985 . S
C2124 C2118 1.379 . S
C2124 C2121 1.363 . S
C2124 N2122 1.356 . S
C2125 C2119 1.363 . S
C2125 C2120 1.379 1_554 S
C2125 N2123 1.356 . S
N2126 C2118 1.356 . S
N2126 H2132 0.984 . S
N2126 H2133 0.984 1_556 S
N2127 C2120 1.356 . S
N2127 H2130 0.984 . S
N2127 H2131 0.997 . S
H2128 N2123 0.984 . S
H2129 N2123 0.985 . S
H2130 N2127 0.984 . S
H2131 N2127 0.997 . S
H2132 N2126 0.984 . S
H2133 N2126 0.984 1_554 S
H2134 N2122 0.984 . S
H2135 N2122 0.985 . S
C1273 C241 1.408 . S
C1275 C29 1.409 . S
C1291 C92 1.511 . S
C1293 C304 1.531 . S
C1309 C347 1.524 . S
C1311 C135 1.524 . S
C1327 C410 1.582 . S
C1329 C198 1.562 . S
C1345 C771 1.345 . S
C1347 C463 1.374 . S
C1363 C824 1.340 . S
C1365 C506 1.325 . S
C1381 C569 1.484 . S
C1383 C675 1.508 . S
C1399 C718 1.316 . S
C1401 C612 1.332 . S
C1417 C877 1.268 . S
C1419 C1142 1.291 . S
C1435 C940 1.618 . S
C1437 C1036 1.592 . S
C1453 C983 1.484 . S
C1455 C1089 1.489 . S
C1471 C1195 1.398 . S
C1473 C1248 1.404 . S
C1489 C188 1.736 . S
C1491 C294 1.721 . S
C1507 C39 2.049 . S
C1509 C357 2.048 . S
C1525 C400 1.723 . S
C1527 C82 1.743 . S
C1543 C145 2.096 . S
C1545 C251 2.097 . S
C1561 C1258 2.143 . S
C1563 C993 2.155 . S
C1579 C1046 2.357 . S
C1581 C1152 2.334 . S
C1597 C1099 2.163 . S
C1599 C1205 2.174 . S
C1615 C930 2.009 . S
C1617 C887 2.027 . S
C1633 C622 2.129 . S
C1635 C516 2.137 . S
C1651 C834 2.208 . S
C1653 C728 2.211 . S
C1669 C665 1.990 . S
C1671 C781 1.996 . S
C1687 C559 1.651 . S
C1689 C453 1.628 . S
C1705 C1188 1.650 . S
C1707 C22 1.657 . S
C1723 C870 1.603 . S
C1725 C91 1.579 . S
C1741 C1241 1.741 . S
C1743 C128 1.738 . S
C1759 C1135 1.561 1_655 S
C1761 C197 1.544 . S
C1777 C976 1.643 . S
C1779 C234 1.647 . S
C1795 C303 1.623 . S
C1797 C1029 1.634 1_655 S
C1813 C1082 1.777 . S
C1815 C340 1.771 . S
C1831 C939 1.532 . S
C1833 C409 1.545 . S
C1849 C711 1.578 . S
C1851 C462 1.558 . S
C1867 C764 1.641 . S
C1869 C499 1.644 1_554 S
C1885 C817 1.402 . S
C1887 C568 1.383 . S
C1903 C605 1.414 1_554 S
C1905 C674 1.406 . S
C1921 C287 1.785 . S
C1923 C552 1.803 . S
C1939 C356 2.048 . S
C1941 C621 2.048 . S
C1957 C446 1.844 . S
C1959 C393 1.850 . S
C1975 C250 2.005 . S
C1977 C515 2.011 . S
C1993 C780 1.818 . S
C1995 C181 1.814 . S
C2011 C38 1.986 . S
C2013 C833 1.986 . S
C2029 C658 1.760 . S
C2031 C75 1.772 . S
C2047 C144 2.055 . S
C2049 C727 2.064 . S
C2065 C923 2.093 . S
C2067 C1257 2.099 . S
C2083 C1151 2.128 . S
C2085 C992 2.132 . S
C2101 C1204 2.152 . S
C2103 C1045 2.160 . S
C2119 C886 2.133 . S
C2121 C1098 2.124 . S
