# Generated by pormake.
# Topology fcs, (5)-cn, num edge types: 1
# Building blocks:
#     Node 0, Type 0, BuildingBlock: BEQFEK_clean_sbu_0, # of connection points: 5
#     Node 1, Type 0, BuildingBlock: BEQFEK_clean_sbu_0, # of connection points: 5
#     Node 2, Type 0, BuildingBlock: BEQFEK_clean_sbu_0, # of connection points: 5
#     Node 3, Type 0, BuildingBlock: BEQFEK_clean_sbu_0, # of connection points: 5
#     Node 4, Type 0, BuildingBlock: BEQFEK_clean_sbu_0, # of connection points: 5
#     Node 5, Type 0, BuildingBlock: BEQFEK_clean_sbu_0, # of connection points: 5
#     Node 6, Type 0, BuildingBlock: BEQFEK_clean_sbu_0, # of connection points: 5
#     Node 7, Type 0, BuildingBlock: BEQFEK_clean_sbu_0, # of connection points: 5
#     Node 8, Type 0, BuildingBlock: BEQFEK_clean_sbu_0, # of connection points: 5
#     Node 9, Type 0, BuildingBlock: BEQFEK_clean_sbu_0, # of connection points: 5
#     Node 10, Type 0, BuildingBlock: BEQFEK_clean_sbu_0, # of connection points: 5
#     Node 11, Type 0, BuildingBlock: BEQFEK_clean_sbu_0, # of connection points: 5
#     Node 12, Type 0, BuildingBlock: BEQFEK_clean_sbu_0, # of connection points: 5
#     Node 13, Type 0, BuildingBlock: BEQFEK_clean_sbu_0, # of connection points: 5
#     Node 14, Type 0, BuildingBlock: BEQFEK_clean_sbu_0, # of connection points: 5
#     Node 15, Type 0, BuildingBlock: BEQFEK_clean_sbu_0, # of connection points: 5
#     Node 16, Type 0, BuildingBlock: BEQFEK_clean_sbu_0, # of connection points: 5
#     Node 17, Type 0, BuildingBlock: BEQFEK_clean_sbu_0, # of connection points: 5
#     Node 18, Type 0, BuildingBlock: BEQFEK_clean_sbu_0, # of connection points: 5
#     Node 19, Type 0, BuildingBlock: BEQFEK_clean_sbu_0, # of connection points: 5
#     Node 20, Type 0, BuildingBlock: BEQFEK_clean_sbu_0, # of connection points: 5
#     Node 21, Type 0, BuildingBlock: BEQFEK_clean_sbu_0, # of connection points: 5
#     Node 22, Type 0, BuildingBlock: BEQFEK_clean_sbu_0, # of connection points: 5
#     Node 23, Type 0, BuildingBlock: BEQFEK_clean_sbu_0, # of connection points: 5
#     Node 24, Type 0, BuildingBlock: BEQFEK_clean_sbu_0, # of connection points: 5
#     Node 25, Type 0, BuildingBlock: BEQFEK_clean_sbu_0, # of connection points: 5
#     Node 26, Type 0, BuildingBlock: BEQFEK_clean_sbu_0, # of connection points: 5
#     Node 27, Type 0, BuildingBlock: BEQFEK_clean_sbu_0, # of connection points: 5
#     Node 28, Type 0, BuildingBlock: BEQFEK_clean_sbu_0, # of connection points: 5
#     Node 29, Type 0, BuildingBlock: BEQFEK_clean_sbu_0, # of connection points: 5
#     Node 30, Type 0, BuildingBlock: BEQFEK_clean_sbu_0, # of connection points: 5
#     Node 31, Type 0, BuildingBlock: BEQFEK_clean_sbu_0, # of connection points: 5
#     Node 32, Type 0, BuildingBlock: BEQFEK_clean_sbu_0, # of connection points: 5
#     Node 33, Type 0, BuildingBlock: BEQFEK_clean_sbu_0, # of connection points: 5
#     Node 34, Type 0, BuildingBlock: BEQFEK_clean_sbu_0, # of connection points: 5
#     Node 35, Type 0, BuildingBlock: BEQFEK_clean_sbu_0, # of connection points: 5
#     Node 36, Type 0, BuildingBlock: BEQFEK_clean_sbu_0, # of connection points: 5
#     Node 37, Type 0, BuildingBlock: BEQFEK_clean_sbu_0, # of connection points: 5
#     Node 38, Type 0, BuildingBlock: BEQFEK_clean_sbu_0, # of connection points: 5
#     Node 39, Type 0, BuildingBlock: BEQFEK_clean_sbu_0, # of connection points: 5
#     Node 40, Type 0, BuildingBlock: BEQFEK_clean_sbu_0, # of connection points: 5
#     Node 41, Type 0, BuildingBlock: BEQFEK_clean_sbu_0, # of connection points: 5
#     Node 42, Type 0, BuildingBlock: BEQFEK_clean_sbu_0, # of connection points: 5
#     Node 43, Type 0, BuildingBlock: BEQFEK_clean_sbu_0, # of connection points: 5
#     Node 44, Type 0, BuildingBlock: BEQFEK_clean_sbu_0, # of connection points: 5
#     Node 45, Type 0, BuildingBlock: BEQFEK_clean_sbu_0, # of connection points: 5
#     Node 46, Type 0, BuildingBlock: BEQFEK_clean_sbu_0, # of connection points: 5
#     Node 47, Type 0, BuildingBlock: BEQFEK_clean_sbu_0, # of connection points: 5
#     Edge 48, Type (0, 0), BuildingBlock: KIFKEQ_clean_linker_1, # of connection points: 2
#     Edge 49, Type (0, 0), BuildingBlock: KIFKEQ_clean_linker_1, # of connection points: 2
#     Edge 50, Type (0, 0), BuildingBlock: KIFKEQ_clean_linker_1, # of connection points: 2
#     Edge 51, Type (0, 0), BuildingBlock: KIFKEQ_clean_linker_1, # of connection points: 2
#     Edge 52, Type (0, 0), BuildingBlock: KIFKEQ_clean_linker_1, # of connection points: 2
#     Edge 53, Type (0, 0), BuildingBlock: KIFKEQ_clean_linker_1, # of connection points: 2
#     Edge 54, Type (0, 0), BuildingBlock: KIFKEQ_clean_linker_1, # of connection points: 2
#     Edge 55, Type (0, 0), BuildingBlock: KIFKEQ_clean_linker_1, # of connection points: 2
#     Edge 56, Type (0, 0), BuildingBlock: KIFKEQ_clean_linker_1, # of connection points: 2
#     Edge 57, Type (0, 0), BuildingBlock: KIFKEQ_clean_linker_1, # of connection points: 2
#     Edge 58, Type (0, 0), BuildingBlock: KIFKEQ_clean_linker_1, # of connection points: 2
#     Edge 59, Type (0, 0), BuildingBlock: KIFKEQ_clean_linker_1, # of connection points: 2
#     Edge 60, Type (0, 0), BuildingBlock: KIFKEQ_clean_linker_1, # of connection points: 2
#     Edge 61, Type (0, 0), BuildingBlock: KIFKEQ_clean_linker_1, # of connection points: 2
#     Edge 62, Type (0, 0), BuildingBlock: KIFKEQ_clean_linker_1, # of connection points: 2
#     Edge 63, Type (0, 0), BuildingBlock: KIFKEQ_clean_linker_1, # of connection points: 2
#     Edge 64, Type (0, 0), BuildingBlock: KIFKEQ_clean_linker_1, # of connection points: 2
#     Edge 65, Type (0, 0), BuildingBlock: KIFKEQ_clean_linker_1, # of connection points: 2
#     Edge 66, Type (0, 0), BuildingBlock: KIFKEQ_clean_linker_1, # of connection points: 2
#     Edge 67, Type (0, 0), BuildingBlock: KIFKEQ_clean_linker_1, # of connection points: 2
#     Edge 68, Type (0, 0), BuildingBlock: KIFKEQ_clean_linker_1, # of connection points: 2
#     Edge 69, Type (0, 0), BuildingBlock: KIFKEQ_clean_linker_1, # of connection points: 2
#     Edge 70, Type (0, 0), BuildingBlock: KIFKEQ_clean_linker_1, # of connection points: 2
#     Edge 71, Type (0, 0), BuildingBlock: KIFKEQ_clean_linker_1, # of connection points: 2
#     Edge 72, Type (0, 0), BuildingBlock: KIFKEQ_clean_linker_1, # of connection points: 2
#     Edge 73, Type (0, 0), BuildingBlock: KIFKEQ_clean_linker_1, # of connection points: 2
#     Edge 74, Type (0, 0), BuildingBlock: KIFKEQ_clean_linker_1, # of connection points: 2
#     Edge 75, Type (0, 0), BuildingBlock: KIFKEQ_clean_linker_1, # of connection points: 2
#     Edge 76, Type (0, 0), BuildingBlock: KIFKEQ_clean_linker_1, # of connection points: 2
#     Edge 77, Type (0, 0), BuildingBlock: KIFKEQ_clean_linker_1, # of connection points: 2
#     Edge 78, Type (0, 0), BuildingBlock: KIFKEQ_clean_linker_1, # of connection points: 2
#     Edge 79, Type (0, 0), BuildingBlock: KIFKEQ_clean_linker_1, # of connection points: 2
#     Edge 80, Type (0, 0), BuildingBlock: KIFKEQ_clean_linker_1, # of connection points: 2
#     Edge 81, Type (0, 0), BuildingBlock: KIFKEQ_clean_linker_1, # of connection points: 2
#     Edge 82, Type (0, 0), BuildingBlock: KIFKEQ_clean_linker_1, # of connection points: 2
#     Edge 83, Type (0, 0), BuildingBlock: KIFKEQ_clean_linker_1, # of connection points: 2
#     Edge 84, Type (0, 0), BuildingBlock: KIFKEQ_clean_linker_1, # of connection points: 2
#     Edge 85, Type (0, 0), BuildingBlock: KIFKEQ_clean_linker_1, # of connection points: 2
#     Edge 86, Type (0, 0), BuildingBlock: KIFKEQ_clean_linker_1, # of connection points: 2
#     Edge 87, Type (0, 0), BuildingBlock: KIFKEQ_clean_linker_1, # of connection points: 2
#     Edge 88, Type (0, 0), BuildingBlock: KIFKEQ_clean_linker_1, # of connection points: 2
#     Edge 89, Type (0, 0), BuildingBlock: KIFKEQ_clean_linker_1, # of connection points: 2
#     Edge 90, Type (0, 0), BuildingBlock: KIFKEQ_clean_linker_1, # of connection points: 2
#     Edge 91, Type (0, 0), BuildingBlock: KIFKEQ_clean_linker_1, # of connection points: 2
#     Edge 92, Type (0, 0), BuildingBlock: KIFKEQ_clean_linker_1, # of connection points: 2
#     Edge 93, Type (0, 0), BuildingBlock: KIFKEQ_clean_linker_1, # of connection points: 2
#     Edge 94, Type (0, 0), BuildingBlock: KIFKEQ_clean_linker_1, # of connection points: 2
#     Edge 95, Type (0, 0), BuildingBlock: KIFKEQ_clean_linker_1, # of connection points: 2
#     Edge 96, Type (0, 0), BuildingBlock: KIFKEQ_clean_linker_1, # of connection points: 2
#     Edge 97, Type (0, 0), BuildingBlock: KIFKEQ_clean_linker_1, # of connection points: 2
#     Edge 98, Type (0, 0), BuildingBlock: KIFKEQ_clean_linker_1, # of connection points: 2
#     Edge 99, Type (0, 0), BuildingBlock: KIFKEQ_clean_linker_1, # of connection points: 2
#     Edge 100, Type (0, 0), BuildingBlock: KIFKEQ_clean_linker_1, # of connection points: 2
#     Edge 101, Type (0, 0), BuildingBlock: KIFKEQ_clean_linker_1, # of connection points: 2
#     Edge 102, Type (0, 0), BuildingBlock: KIFKEQ_clean_linker_1, # of connection points: 2
#     Edge 103, Type (0, 0), BuildingBlock: KIFKEQ_clean_linker_1, # of connection points: 2
#     Edge 104, Type (0, 0), BuildingBlock: KIFKEQ_clean_linker_1, # of connection points: 2
#     Edge 105, Type (0, 0), BuildingBlock: KIFKEQ_clean_linker_1, # of connection points: 2
#     Edge 106, Type (0, 0), BuildingBlock: KIFKEQ_clean_linker_1, # of connection points: 2
#     Edge 107, Type (0, 0), BuildingBlock: KIFKEQ_clean_linker_1, # of connection points: 2
#     Edge 108, Type (0, 0), BuildingBlock: KIFKEQ_clean_linker_1, # of connection points: 2
#     Edge 109, Type (0, 0), BuildingBlock: KIFKEQ_clean_linker_1, # of connection points: 2
#     Edge 110, Type (0, 0), BuildingBlock: KIFKEQ_clean_linker_1, # of connection points: 2
#     Edge 111, Type (0, 0), BuildingBlock: KIFKEQ_clean_linker_1, # of connection points: 2
#     Edge 112, Type (0, 0), BuildingBlock: KIFKEQ_clean_linker_1, # of connection points: 2
#     Edge 113, Type (0, 0), BuildingBlock: KIFKEQ_clean_linker_1, # of connection points: 2
#     Edge 114, Type (0, 0), BuildingBlock: KIFKEQ_clean_linker_1, # of connection points: 2
#     Edge 115, Type (0, 0), BuildingBlock: KIFKEQ_clean_linker_1, # of connection points: 2
#     Edge 116, Type (0, 0), BuildingBlock: KIFKEQ_clean_linker_1, # of connection points: 2
#     Edge 117, Type (0, 0), BuildingBlock: KIFKEQ_clean_linker_1, # of connection points: 2
#     Edge 118, Type (0, 0), BuildingBlock: KIFKEQ_clean_linker_1, # of connection points: 2
#     Edge 119, Type (0, 0), BuildingBlock: KIFKEQ_clean_linker_1, # of connection points: 2
#     Edge 120, Type (0, 0), BuildingBlock: KIFKEQ_clean_linker_1, # of connection points: 2
#     Edge 121, Type (0, 0), BuildingBlock: KIFKEQ_clean_linker_1, # of connection points: 2
#     Edge 122, Type (0, 0), BuildingBlock: KIFKEQ_clean_linker_1, # of connection points: 2
#     Edge 123, Type (0, 0), BuildingBlock: KIFKEQ_clean_linker_1, # of connection points: 2
#     Edge 124, Type (0, 0), BuildingBlock: KIFKEQ_clean_linker_1, # of connection points: 2
#     Edge 125, Type (0, 0), BuildingBlock: KIFKEQ_clean_linker_1, # of connection points: 2
#     Edge 126, Type (0, 0), BuildingBlock: KIFKEQ_clean_linker_1, # of connection points: 2
#     Edge 127, Type (0, 0), BuildingBlock: KIFKEQ_clean_linker_1, # of connection points: 2
#     Edge 128, Type (0, 0), BuildingBlock: KIFKEQ_clean_linker_1, # of connection points: 2
#     Edge 129, Type (0, 0), BuildingBlock: KIFKEQ_clean_linker_1, # of connection points: 2
#     Edge 130, Type (0, 0), BuildingBlock: KIFKEQ_clean_linker_1, # of connection points: 2
#     Edge 131, Type (0, 0), BuildingBlock: KIFKEQ_clean_linker_1, # of connection points: 2
#     Edge 132, Type (0, 0), BuildingBlock: KIFKEQ_clean_linker_1, # of connection points: 2
#     Edge 133, Type (0, 0), BuildingBlock: KIFKEQ_clean_linker_1, # of connection points: 2
#     Edge 134, Type (0, 0), BuildingBlock: KIFKEQ_clean_linker_1, # of connection points: 2
#     Edge 135, Type (0, 0), BuildingBlock: KIFKEQ_clean_linker_1, # of connection points: 2
#     Edge 136, Type (0, 0), BuildingBlock: KIFKEQ_clean_linker_1, # of connection points: 2
#     Edge 137, Type (0, 0), BuildingBlock: KIFKEQ_clean_linker_1, # of connection points: 2
#     Edge 138, Type (0, 0), BuildingBlock: KIFKEQ_clean_linker_1, # of connection points: 2
#     Edge 139, Type (0, 0), BuildingBlock: KIFKEQ_clean_linker_1, # of connection points: 2
#     Edge 140, Type (0, 0), BuildingBlock: KIFKEQ_clean_linker_1, # of connection points: 2
#     Edge 141, Type (0, 0), BuildingBlock: KIFKEQ_clean_linker_1, # of connection points: 2
#     Edge 142, Type (0, 0), BuildingBlock: KIFKEQ_clean_linker_1, # of connection points: 2
#     Edge 143, Type (0, 0), BuildingBlock: KIFKEQ_clean_linker_1, # of connection points: 2
#     Edge 144, Type (0, 0), BuildingBlock: KIFKEQ_clean_linker_1, # of connection points: 2
#     Edge 145, Type (0, 0), BuildingBlock: KIFKEQ_clean_linker_1, # of connection points: 2
#     Edge 146, Type (0, 0), BuildingBlock: KIFKEQ_clean_linker_1, # of connection points: 2
#     Edge 147, Type (0, 0), BuildingBlock: KIFKEQ_clean_linker_1, # of connection points: 2
#     Edge 148, Type (0, 0), BuildingBlock: KIFKEQ_clean_linker_1, # of connection points: 2
#     Edge 149, Type (0, 0), BuildingBlock: KIFKEQ_clean_linker_1, # of connection points: 2
#     Edge 150, Type (0, 0), BuildingBlock: KIFKEQ_clean_linker_1, # of connection points: 2
#     Edge 151, Type (0, 0), BuildingBlock: KIFKEQ_clean_linker_1, # of connection points: 2
#     Edge 152, Type (0, 0), BuildingBlock: KIFKEQ_clean_linker_1, # of connection points: 2
#     Edge 153, Type (0, 0), BuildingBlock: KIFKEQ_clean_linker_1, # of connection points: 2
#     Edge 154, Type (0, 0), BuildingBlock: KIFKEQ_clean_linker_1, # of connection points: 2
#     Edge 155, Type (0, 0), BuildingBlock: KIFKEQ_clean_linker_1, # of connection points: 2
#     Edge 156, Type (0, 0), BuildingBlock: KIFKEQ_clean_linker_1, # of connection points: 2
#     Edge 157, Type (0, 0), BuildingBlock: KIFKEQ_clean_linker_1, # of connection points: 2
#     Edge 158, Type (0, 0), BuildingBlock: KIFKEQ_clean_linker_1, # of connection points: 2
#     Edge 159, Type (0, 0), BuildingBlock: KIFKEQ_clean_linker_1, # of connection points: 2
#     Edge 160, Type (0, 0), BuildingBlock: KIFKEQ_clean_linker_1, # of connection points: 2
#     Edge 161, Type (0, 0), BuildingBlock: KIFKEQ_clean_linker_1, # of connection points: 2
#     Edge 162, Type (0, 0), BuildingBlock: KIFKEQ_clean_linker_1, # of connection points: 2
#     Edge 163, Type (0, 0), BuildingBlock: KIFKEQ_clean_linker_1, # of connection points: 2
#     Edge 164, Type (0, 0), BuildingBlock: KIFKEQ_clean_linker_1, # of connection points: 2
#     Edge 165, Type (0, 0), BuildingBlock: KIFKEQ_clean_linker_1, # of connection points: 2
#     Edge 166, Type (0, 0), BuildingBlock: KIFKEQ_clean_linker_1, # of connection points: 2
#     Edge 167, Type (0, 0), BuildingBlock: KIFKEQ_clean_linker_1, # of connection points: 2
# Relax obj value: 0.298
# Max RMSD: 0.231
# Mean RMSD: 0.231
data_MOF--net-fcs--node1-BEQFEK_clean_sbu_0--edge1-KIFKEQ_clean_linker_1
_symmetry_space_group_name_H-M    P1
_symmetry_Int_Tables_number       1
_symmetry_cell_setting            triclinic
loop_
_symmetry_equiv_pos_as_xyz
'x, y, z'
_cell_length_a     61.541989
_cell_length_b     61.524283
_cell_length_c     61.516089
_cell_angle_alpha  89.964244
_cell_angle_beta   90.009081
_cell_angle_gamma 90.085372
loop_
_atom_site_label
_atom_site_type_symbol
_atom_site_fract_x
_atom_site_fract_y
_atom_site_fract_z
_atom_type_partial_charge
Co0 Co 0.14994 0.12521 0.29726 0.0
Co1 Co 0.10203 0.12031 0.31374 0.0
C2 C 0.13426 0.14247 0.34094 0.0
O3 O 0.14861 0.13929 0.32632 0.0
O4 O 0.1151 0.13468 0.33918 0.0
C5 C 0.19505 0.11035 0.29018 0.0
O6 O 0.19161 0.09424 0.30378 0.0
C7 C 0.05889 0.11225 0.33447 0.0
C8 C 0.04035 0.10208 0.30537 0.0
C9 C 0.03847 0.10539 0.32752 0.0
N10 N 0.07218 0.1128 0.31712 0.0
N11 N 0.06092 0.10684 0.29982 0.0
C12 C 0.06595 0.1174 0.35715 0.0
H13 H 0.083 0.11212 0.35965 0.0
H14 H 0.05522 0.10939 0.36925 0.0
H15 H 0.06526 0.13525 0.3596 0.0
C16 C 0.14169 0.07948 0.28476 0.0
N17 N 0.13659 0.0977 0.29575 0.0
N18 N 0.11763 0.09505 0.30519 0.0
C19 C 0.11091 0.07442 0.30202 0.0
C20 C 0.12576 0.06396 0.28867 0.0
C21 C 0.15847 0.07855 0.26714 0.0
H22 H 0.16315 0.09511 0.26182 0.0
H23 H 0.17296 0.06975 0.27319 0.0
H24 H 0.15217 0.06954 0.25283 0.0
O25 O 0.13512 0.14494 0.27759 0.0
O26 O 0.10158 0.14325 0.29059 0.0
H27 H 0.07695 0.06694 0.30052 0.0
H28 H 0.09302 0.04706 0.3145 0.0
C29 C 0.09082 0.06476 0.31178 0.0
H30 H 0.08699 0.07281 0.32744 0.0
H31 H 0.06738 0.10591 0.28416 0.0
O32 O 0.18019 0.12426 0.28678 0.0
C33 C 0.11551 0.15128 0.27754 0.0
Co34 Co 0.37257 0.59808 0.94566 0.0
Co35 Co 0.37184 0.6462 0.92936 0.0
C36 C 0.39355 0.61107 0.90366 0.0
O37 O 0.38855 0.59649 0.91763 0.0
O38 O 0.38709 0.63073 0.9056 0.0
C39 C 0.36774 0.55005 0.9561 0.0
O40 O 0.37233 0.54318 0.93642 0.0
C41 C 0.36346 0.68725 0.90531 0.0
C42 C 0.35907 0.70933 0.93335 0.0
C43 C 0.35842 0.70856 0.91089 0.0
N44 N 0.36667 0.67601 0.92378 0.0
N45 N 0.36423 0.68937 0.9404 0.0
C46 C 0.36364 0.67726 0.88315 0.0
H47 H 0.35918 0.6598 0.88417 0.0
H48 H 0.35228 0.68589 0.87211 0.0
H49 H 0.38029 0.67843 0.87634 0.0
C50 C 0.32565 0.60615 0.94961 0.0
N51 N 0.34566 0.61229 0.94319 0.0
N52 N 0.34511 0.63261 0.9367 0.0
C53 C 0.32458 0.64002 0.93869 0.0
C54 C 0.31165 0.62359 0.94714 0.0
C55 C 0.32095 0.58517 0.96102 0.0
H56 H 0.32646 0.57142 0.9508 0.0
H57 H 0.30347 0.58301 0.96467 0.0
H58 H 0.33008 0.58487 0.97653 0.0
O59 O 0.39216 0.61303 0.96593 0.0
O60 O 0.39314 0.64672 0.95346 0.0
H61 H 0.32366 0.67385 0.94637 0.0
H62 H 0.29944 0.66387 0.93325 0.0
C63 C 0.31743 0.66269 0.93367 0.0
H64 H 0.324 0.66778 0.9177 0.0
H65 H 0.36558 0.68467 0.95664 0.0
O66 O 0.3678 0.5702 0.96035 0.0
C67 C 0.39964 0.63225 0.96664 0.0
Co68 Co 0.84333 0.3728 0.30517 0.0
Co69 Co 0.89338 0.37382 0.31572 0.0
C70 C 0.8598 0.35299 0.34561 0.0
O71 O 0.84345 0.35923 0.33437 0.0
O72 O 0.87927 0.35821 0.34041 0.0
C73 C 0.79458 0.3783 0.29381 0.0
O74 O 0.78636 0.37687 0.31346 0.0
C75 C 0.93734 0.38178 0.33538 0.0
C76 C 0.957 0.37866 0.30542 0.0
C77 C 0.95848 0.3823 0.32751 0.0
N78 N 0.92392 0.37803 0.3185 0.0
N79 N 0.93585 0.37634 0.30071 0.0
C80 C 0.93013 0.38391 0.35848 0.0
H81 H 0.91449 0.37529 0.36102 0.0
H82 H 0.92769 0.40138 0.36222 0.0
H83 H 0.9427 0.37745 0.36969 0.0
C84 C 0.85259 0.41892 0.29572 0.0
N85 N 0.85866 0.39951 0.30383 0.0
N86 N 0.87944 0.40016 0.30865 0.0
C87 C 0.88723 0.4201 0.30401 0.0
C88 C 0.87057 0.43261 0.29537 0.0
C89 C 0.83098 0.42279 0.28521 0.0
H90 H 0.82933 0.41171 0.27114 0.0
H91 H 0.81787 0.41908 0.297 0.0
H92 H 0.82892 0.43962 0.27928 0.0
O93 O 0.85631 0.35034 0.28679 0.0
O94 O 0.89182 0.35298 0.29157 0.0
H95 H 0.92046 0.41873 0.29405 0.0
H96 H 0.91241 0.44463 0.30529 0.0
C97 C 0.91047 0.42674 0.30671 0.0
H98 H 0.91642 0.42146 0.32287 0.0
H99 H 0.92953 0.3734 0.28525 0.0
O100 O 0.81492 0.37671 0.29091 0.0
C101 C 0.8755 0.34418 0.28262 0.0
Co102 Co 0.62245 0.89693 0.94368 0.0
Co103 Co 0.62207 0.84828 0.92851 0.0
C104 C 0.60091 0.88302 0.90212 0.0
O105 O 0.60626 0.89779 0.91575 0.0
O106 O 0.60716 0.86331 0.90431 0.0
C107 C 0.6185 0.94327 0.95739 0.0
O108 O 0.60103 0.94587 0.9454 0.0
C109 C 0.62926 0.8053 0.90707 0.0
C110 C 0.63345 0.78538 0.93676 0.0
C111 C 0.63407 0.78446 0.91434 0.0
N112 N 0.62634 0.81802 0.92462 0.0
N113 N 0.62858 0.8059 0.94221 0.0
C114 C 0.62889 0.81334 0.88414 0.0
H115 H 0.63358 0.83076 0.88356 0.0
H116 H 0.63994 0.80357 0.87377 0.0
H117 H 0.61213 0.81178 0.87767 0.0
C118 C 0.66899 0.88735 0.94836 0.0
N119 N 0.64896 0.88182 0.94154 0.0
N120 N 0.64907 0.86139 0.93536 0.0
C121 C 0.66933 0.85339 0.93796 0.0
C122 C 0.68247 0.86947 0.94663 0.0
C123 C 0.67461 0.90845 0.95905 0.0
H124 H 0.66864 0.92217 0.94901 0.0
H125 H 0.69243 0.91016 0.96129 0.0
H126 H 0.66663 0.90907 0.97518 0.0
O127 O 0.60248 0.88325 0.96465 0.0
O128 O 0.60093 0.84944 0.9526 0.0
H129 H 0.66909 0.82023 0.94819 0.0
H130 H 0.69359 0.82832 0.93444 0.0
C131 C 0.67566 0.83017 0.93467 0.0
H132 H 0.66897 0.82415 0.91908 0.0
H133 H 0.62737 0.81184 0.95805 0.0
O134 O 0.62861 0.92533 0.95697 0.0
C135 C 0.59461 0.86418 0.96555 0.0
Co136 Co 0.14823 0.87066 0.19179 0.0
Co137 Co 0.09883 0.87043 0.17894 0.0
C138 C 0.13276 0.84838 0.15146 0.0
O139 O 0.14834 0.85411 0.16399 0.0
O140 O 0.11319 0.85451 0.15486 0.0
C141 C 0.19723 0.87629 0.204 0.0
O142 O 0.20688 0.8722 0.18541 0.0
C143 C 0.05557 0.87841 0.15818 0.0
C144 C 0.03475 0.87419 0.18721 0.0
C145 C 0.03418 0.87865 0.16525 0.0
N146 N 0.06832 0.87405 0.1754 0.0
N147 N 0.05571 0.87167 0.19265 0.0
C148 C 0.06362 0.88168 0.1355 0.0
H149 H 0.08159 0.88329 0.1353 0.0
H150 H 0.05601 0.89639 0.12835 0.0
H151 H 0.05874 0.86754 0.12541 0.0
C152 C 0.13901 0.91736 0.19663 0.0
N153 N 0.13312 0.89732 0.19008 0.0
N154 N 0.1124 0.89738 0.18492 0.0
C155 C 0.10444 0.91754 0.18791 0.0
C156 C 0.12095 0.93086 0.19567 0.0
C157 C 0.16053 0.92225 0.20693 0.0
H158 H 0.17375 0.91724 0.19577 0.0
H159 H 0.16262 0.93965 0.21095 0.0
H160 H 0.16202 0.91271 0.22214 0.0
O161 O 0.13497 0.85117 0.21325 0.0
O162 O 0.10038 0.85039 0.20385 0.0
H163 H 0.07099 0.91533 0.19702 0.0
H164 H 0.07876 0.94149 0.18598 0.0
C165 C 0.08114 0.92366 0.18466 0.0
H166 H 0.07574 0.91826 0.16835 0.0
H167 H 0.06143 0.86821 0.20824 0.0
O168 O 0.17668 0.87556 0.20543 0.0
C169 C 0.11582 0.84406 0.21593 0.0
Co170 Co 0.12231 0.59136 0.05326 0.0
Co171 Co 0.12225 0.64211 0.06051 0.0
C172 C 0.09963 0.61154 0.09093 0.0
O173 O 0.1061 0.59482 0.08064 0.0
O174 O 0.1053 0.6307 0.08537 0.0
C175 C 0.13064 0.53998 0.0445 0.0
O176 O 0.13252 0.52685 0.06125 0.0
C177 C 0.13023 0.68521 0.08057 0.0
C178 C 0.13323 0.70572 0.0512 0.0
C179 C 0.13446 0.70631 0.07365 0.0
N180 N 0.1269 0.67272 0.06292 0.0
N181 N 0.12851 0.68516 0.04547 0.0
C182 C 0.13075 0.67668 0.10333 0.0
H183 H 0.13605 0.65944 0.1034 0.0
H184 H 0.14176 0.68659 0.11364 0.0
H185 H 0.11413 0.67745 0.11027 0.0
C186 C 0.16859 0.60011 0.04607 0.0
N187 N 0.14889 0.60652 0.053 0.0
N188 N 0.14914 0.62764 0.05623 0.0
C189 C 0.16919 0.63524 0.05159 0.0
C190 C 0.18205 0.6181 0.04473 0.0
C191 C 0.17354 0.5778 0.03781 0.0
H192 H 0.16985 0.56573 0.05069 0.0
H193 H 0.19086 0.5762 0.03306 0.0
H194 H 0.16309 0.57427 0.02355 0.0
O195 O 0.10231 0.60213 0.03058 0.0
O196 O 0.10234 0.63789 0.03549 0.0
H197 H 0.16681 0.66623 0.03615 0.0
H198 H 0.19291 0.661 0.04834 0.0
C199 C 0.17511 0.65879 0.0503 0.0
H200 H 0.16985 0.6672 0.06531 0.0
H201 H 0.12679 0.67949 0.02958 0.0
O202 O 0.12739 0.56007 0.04788 0.0
C203 C 0.09532 0.62101 0.02576 0.0
Co204 Co 0.84309 0.62541 0.19461 0.0
Co205 Co 0.88945 0.62075 0.17503 0.0
C206 C 0.85612 0.64396 0.15045 0.0
O207 O 0.84287 0.64095 0.16617 0.0
O208 O 0.87502 0.63534 0.15033 0.0
C209 C 0.79665 0.61477 0.20595 0.0
O210 O 0.79334 0.60291 0.18851 0.0
C211 C 0.93194 0.61198 0.15344 0.0
C212 C 0.95119 0.60364 0.18268 0.0
C213 C 0.95255 0.60576 0.16036 0.0
N214 N 0.91906 0.61337 0.17102 0.0
N215 N 0.93071 0.60842 0.18838 0.0
C216 C 0.92423 0.61562 0.13068 0.0
H217 H 0.90686 0.61095 0.12921 0.0
H218 H 0.93414 0.60616 0.11895 0.0
H219 H 0.92567 0.63315 0.1267 0.0
C220 C 0.85018 0.57883 0.20376 0.0
N221 N 0.8556 0.59762 0.19388 0.0
N222 N 0.87442 0.59528 0.18412 0.0
C223 C 0.88096 0.57449 0.18633 0.0
C224 C 0.866 0.56343 0.19914 0.0
C225 C 0.83264 0.57695 0.22057 0.0
H226 H 0.8305 0.59266 0.22908 0.0
H227 H 0.81718 0.57239 0.2125 0.0
H228 H 0.83652 0.56441 0.23291 0.0
O229 O 0.85938 0.64384 0.2143 0.0
O230 O 0.8913 0.64376 0.19782 0.0
H231 H 0.91508 0.56795 0.1876 0.0
H232 H 0.8994 0.54748 0.17391 0.0
C233 C 0.90117 0.56525 0.17648 0.0
H234 H 0.90464 0.57328 0.16071 0.0
H235 H 0.92457 0.60826 0.20419 0.0
O236 O 0.81465 0.62444 0.20865 0.0
C237 C 0.87864 0.65084 0.2125 0.0
Co238 Co 0.87347 0.90164 0.04921 0.0
Co239 Co 0.87537 0.85206 0.06238 0.0
C240 C 0.89091 0.88704 0.0923 0.0
O241 O 0.88547 0.90201 0.079 0.0
O242 O 0.88683 0.86701 0.08855 0.0
C243 C 0.85651 0.94674 0.04011 0.0
O244 O 0.84104 0.94507 0.05472 0.0
C245 C 0.8674 0.80797 0.0818 0.0
C246 C 0.87722 0.78784 0.05369 0.0
C247 C 0.86963 0.78663 0.07478 0.0
N248 N 0.87336 0.82122 0.06539 0.0
N249 N 0.8791 0.80899 0.04869 0.0
C250 C 0.86064 0.81555 0.10386 0.0
H251 H 0.86313 0.83334 0.10554 0.0
H252 H 0.8432 0.81174 0.1064 0.0
H253 H 0.87004 0.80675 0.1165 0.0
C254 C 0.82887 0.8879 0.0362 0.0
N255 N 0.84817 0.88419 0.0459 0.0
N256 N 0.84871 0.86383 0.05253 0.0
C257 C 0.82955 0.85424 0.0479 0.0
C258 C 0.81641 0.8692 0.0375 0.0
C259 C 0.82373 0.90745 0.02265 0.0
H260 H 0.83874 0.91416 0.01533 0.0
H261 H 0.81585 0.91989 0.03299 0.0
H262 H 0.81227 0.90334 0.00934 0.0
O263 O 0.89742 0.89039 0.03176 0.0
O264 O 0.8987 0.85551 0.04047 0.0
H265 H 0.83414 0.82029 0.04226 0.0
H266 H 0.8067 0.82752 0.0498 0.0
C267 C 0.82415 0.83103 0.05271 0.0
H268 H 0.82801 0.82745 0.06993 0.0
H269 H 0.88441 0.81511 0.03379 0.0
O270 O 0.86978 0.93123 0.03725 0.0
C271 C 0.90608 0.87177 0.03012 0.0
Co272 Co 0.29465 0.1493 0.12436 0.0
Co273 Co 0.3127 0.10167 0.12197 0.0
C274 C 0.33678 0.13404 0.1462 0.0
O275 O 0.32162 0.14744 0.14178 0.0
O276 O 0.33737 0.11507 0.13778 0.0
C277 C 0.28928 0.19501 0.10918 0.0
O278 O 0.30379 0.19199 0.09382 0.0
C279 C 0.3315 0.05722 0.11413 0.0
C280 C 0.30061 0.039 0.11116 0.0
C281 C 0.32292 0.0365 0.11079 0.0
N282 N 0.31485 0.07124 0.11627 0.0
N283 N 0.29653 0.06017 0.11438 0.0
C284 C 0.3549 0.06343 0.11635 0.0
H285 H 0.35655 0.07868 0.12579 0.0
H286 H 0.36183 0.06617 0.09992 0.0
H287 H 0.36421 0.05021 0.12434 0.0
C288 C 0.28746 0.14074 0.07775 0.0
N289 N 0.29637 0.13571 0.09708 0.0
N290 N 0.3056 0.1165 0.09576 0.0
C291 C 0.30394 0.10926 0.07515 0.0
C292 C 0.29234 0.12436 0.06309 0.0
C293 C 0.27054 0.15797 0.07462 0.0
H294 H 0.26362 0.16308 0.09042 0.0
H295 H 0.2779 0.17213 0.06623 0.0
H296 H 0.25709 0.15189 0.06423 0.0
O297 O 0.27284 0.13485 0.14208 0.0
O298 O 0.28866 0.10263 0.14365 0.0
H299 H 0.30054 0.07488 0.07159 0.0
H300 H 0.3146 0.08796 0.04946 0.0
C301 C 0.31235 0.08784 0.06737 0.0
H302 H 0.32806 0.08416 0.07538 0.0
H303 H 0.28111 0.06713 0.11544 0.0
O304 O 0.2848 0.17975 0.12237 0.0
C305 C 0.27403 0.1158 0.14988 0.0
Co306 Co 0.40205 0.43905 0.12107 0.0
Co307 Co 0.35178 0.42883 0.12152 0.0
C308 C 0.38423 0.39802 0.10211 0.0
O309 O 0.40043 0.4097 0.10781 0.0
O310 O 0.36479 0.40314 0.10726 0.0
C311 C 0.44835 0.4467 0.13569 0.0
O312 O 0.44721 0.43194 0.15107 0.0
C313 C 0.30739 0.41025 0.12931 0.0
C314 C 0.28806 0.44015 0.12437 0.0
C315 C 0.2863 0.41825 0.12898 0.0
N316 N 0.32105 0.42687 0.12517 0.0
N317 N 0.30931 0.44464 0.12237 0.0
C318 C 0.31437 0.3872 0.13252 0.0
H319 H 0.32917 0.38378 0.12284 0.0
H320 H 0.31835 0.38465 0.14992 0.0
H321 H 0.30118 0.37576 0.12793 0.0
C322 C 0.39131 0.45122 0.16688 0.0
N323 N 0.38627 0.44203 0.1476 0.0
N324 N 0.36562 0.43635 0.14792 0.0
C325 C 0.35718 0.44103 0.16757 0.0
C326 C 0.37316 0.45053 0.18017 0.0
C327 C 0.41148 0.46414 0.17123 0.0
H328 H 0.41748 0.47167 0.15603 0.0
H329 H 0.42405 0.45325 0.17811 0.0
H330 H 0.40845 0.47721 0.18328 0.0
O331 O 0.39012 0.45812 0.09863 0.0
O332 O 0.35469 0.45217 0.09978 0.0
H333 H 0.32381 0.4502 0.16511 0.0
H334 H 0.33148 0.43993 0.1915 0.0
C335 C 0.33387 0.43798 0.17372 0.0
H336 H 0.3284 0.42154 0.16881 0.0
H337 H 0.31584 0.4599 0.11884 0.0
O338 O 0.43219 0.45003 0.12331 0.0
C339 C 0.37107 0.4617 0.09165 0.0
Co340 Co 0.69153 0.33896 0.12611 0.0
Co341 Co 0.67917 0.38846 0.12209 0.0
C342 C 0.64904 0.35625 0.14256 0.0
O343 O 0.66146 0.34025 0.138 0.0
O344 O 0.65361 0.3756 0.13657 0.0
C345 C 0.70002 0.29382 0.11106 0.0
O346 O 0.68542 0.29628 0.09567 0.0
C347 C 0.65803 0.43115 0.1141 0.0
C348 C 0.68675 0.45088 0.10517 0.0
C349 C 0.66447 0.45187 0.10776 0.0
N350 N 0.67577 0.41846 0.11503 0.0
N351 N 0.69286 0.43042 0.1098 0.0
C352 C 0.63544 0.42329 0.11846 0.0
H353 H 0.6335 0.40643 0.11234 0.0
H354 H 0.62323 0.43405 0.1107 0.0
H355 H 0.63263 0.4231 0.13627 0.0
C356 C 0.70644 0.34808 0.08089 0.0
N357 N 0.69543 0.35336 0.0991 0.0
N358 N 0.68733 0.37297 0.09678 0.0
C359 C 0.69138 0.38005 0.07645 0.0
C360 C 0.70396 0.36471 0.06583 0.0
C361 C 0.72264 0.32998 0.07952 0.0
H362 H 0.72828 0.32525 0.09594 0.0
H363 H 0.7151 0.31584 0.07127 0.0
H364 H 0.73702 0.33496 0.06983 0.0
O365 O 0.70887 0.35283 0.14864 0.0
O366 O 0.70225 0.38807 0.14491 0.0
H367 H 0.69485 0.41413 0.07027 0.0
H368 H 0.681 0.39946 0.04923 0.0
C369 C 0.68305 0.40091 0.0671 0.0
H370 H 0.66722 0.40519 0.07457 0.0
H371 H 0.70874 0.42453 0.10928 0.0
O372 O 0.70299 0.30892 0.12484 0.0
C373 C 0.71164 0.37239 0.15458 0.0
Co374 Co 0.59291 0.05285 0.12038 0.0
Co375 Co 0.64172 0.06732 0.12148 0.0
C376 C 0.60938 0.09539 0.10082 0.0
O377 O 0.59463 0.08134 0.10495 0.0
O378 O 0.62871 0.09321 0.10804 0.0
C379 C 0.54659 0.04564 0.13521 0.0
O380 O 0.54801 0.05958 0.15131 0.0
C381 C 0.6854 0.08616 0.13092 0.0
C382 C 0.70508 0.05622 0.12837 0.0
C383 C 0.70658 0.07824 0.13284 0.0
N384 N 0.67228 0.06945 0.12571 0.0
N385 N 0.68419 0.05169 0.12412 0.0
C386 C 0.67723 0.10859 0.13548 0.0
H387 H 0.6596 0.10815 0.13928 0.0
H388 H 0.68626 0.11596 0.14925 0.0
H389 H 0.67957 0.11885 0.12083 0.0
C390 C 0.60312 0.04202 0.16628 0.0
N391 N 0.60782 0.05181 0.14722 0.0
N392 N 0.62792 0.05911 0.1479 0.0
C393 C 0.63624 0.05511 0.16778 0.0
C394 C 0.62086 0.04411 0.17997 0.0
C395 C 0.58425 0.027 0.16977 0.0
H396 H 0.57857 0.02022 0.15409 0.0
H397 H 0.57086 0.03604 0.17771 0.0
H398 H 0.58874 0.01331 0.18063 0.0
O399 O 0.6057 0.03181 0.10044 0.0
O400 O 0.63926 0.04469 0.09867 0.0
H401 H 0.67034 0.04873 0.16681 0.0
H402 H 0.66084 0.05905 0.19252 0.0
C403 C 0.65898 0.0603 0.17462 0.0
H404 H 0.66321 0.07702 0.16944 0.0
H405 H 0.67796 0.03635 0.12046 0.0
O406 O 0.56266 0.04262 0.12263 0.0
C407 C 0.6246 0.03164 0.09226 0.0
Co408 Co 0.2999 0.84142 0.37075 0.0
Co409 Co 0.31685 0.88945 0.37182 0.0
C410 C 0.3415 0.8564 0.34844 0.0
O411 O 0.3267 0.84253 0.35294 0.0
O412 O 0.34154 0.87554 0.35651 0.0
C413 C 0.28798 0.79173 0.37834 0.0
O414 O 0.30624 0.78099 0.38082 0.0
C415 C 0.33529 0.93407 0.3798 0.0
C416 C 0.30457 0.95261 0.37773 0.0
C417 C 0.32666 0.95491 0.38089 0.0
N418 N 0.31886 0.92006 0.37617 0.0
N419 N 0.30061 0.93133 0.3751 0.0
C420 C 0.35868 0.92772 0.3813 0.0
H421 H 0.36128 0.91141 0.37408 0.0
H422 H 0.36353 0.92717 0.39866 0.0
H423 H 0.36903 0.93997 0.37301 0.0
C424 C 0.29402 0.85002 0.41713 0.0
N425 N 0.30225 0.85553 0.39763 0.0
N426 N 0.30972 0.87551 0.39841 0.0
C427 C 0.30697 0.88323 0.41872 0.0
C428 C 0.2967 0.86744 0.43122 0.0
C429 C 0.28027 0.8302 0.42069 0.0
H430 H 0.26793 0.82906 0.4076 0.0
H431 H 0.29072 0.81555 0.41984 0.0
H432 H 0.27174 0.83034 0.43652 0.0
O433 O 0.27777 0.85525 0.35276 0.0
O434 O 0.29306 0.88767 0.35019 0.0
H435 H 0.30045 0.91734 0.41895 0.0
H436 H 0.31266 0.90726 0.44367 0.0
C437 C 0.31258 0.90584 0.42568 0.0
H438 H 0.32882 0.91032 0.41929 0.0
H439 H 0.28533 0.92444 0.37245 0.0
O440 O 0.28826 0.81207 0.37504 0.0
C441 C 0.27863 0.87409 0.34442 0.0
Co442 Co 0.09401 0.44539 0.87289 0.0
Co443 Co 0.14252 0.4303 0.87274 0.0
C444 C 0.10782 0.40432 0.89518 0.0
O445 O 0.09293 0.41781 0.88984 0.0
O446 O 0.12749 0.40663 0.8888 0.0
C447 C 0.04648 0.45761 0.87342 0.0
O448 O 0.04091 0.44143 0.88621 0.0
C449 C 0.18464 0.40766 0.86514 0.0
C450 C 0.20534 0.43661 0.85963 0.0
C451 C 0.20557 0.41416 0.85966 0.0
N452 N 0.17253 0.42564 0.86781 0.0
N453 N 0.1851 0.44281 0.86476 0.0
C454 C 0.17591 0.38501 0.86634 0.0
H455 H 0.1584 0.38482 0.86199 0.0
H456 H 0.18514 0.37402 0.85541 0.0
H457 H 0.17756 0.37897 0.88326 0.0
C458 C 0.10242 0.44809 0.82579 0.0
N459 N 0.10842 0.44224 0.84602 0.0
N460 N 0.12889 0.43626 0.84579 0.0
C461 C 0.13651 0.43814 0.8253 0.0
C462 C 0.1201 0.44596 0.81206 0.0
C463 C 0.0813 0.45878 0.82035 0.0
H464 H 0.06767 0.44935 0.82746 0.0
H465 H 0.07888 0.46006 0.80253 0.0
H466 H 0.08124 0.47535 0.82739 0.0
O467 O 0.10842 0.46676 0.89186 0.0
O468 O 0.14244 0.45548 0.89263 0.0
H469 H 0.1698 0.44795 0.8246 0.0
H470 H 0.161 0.43378 0.80057 0.0
C471 C 0.15955 0.43443 0.81855 0.0
H472 H 0.16549 0.41891 0.82545 0.0
H473 H 0.17966 0.45884 0.86563 0.0
O474 O 0.06606 0.45968 0.86736 0.0
C475 C 0.12773 0.46848 0.89888 0.0
Co476 Co 0.6923 0.65014 0.37073 0.0
Co477 Co 0.67356 0.60263 0.37184 0.0
C478 C 0.64882 0.63865 0.35108 0.0
O479 O 0.66385 0.65237 0.35548 0.0
O480 O 0.64949 0.61897 0.35788 0.0
C481 C 0.70789 0.69784 0.3771 0.0
O482 O 0.68922 0.70815 0.37674 0.0
C483 C 0.65184 0.55948 0.37893 0.0
C484 C 0.68149 0.53912 0.37919 0.0
C485 C 0.65919 0.5383 0.38103 0.0
N486 N 0.66927 0.5724 0.37611 0.0
N487 N 0.68685 0.56005 0.37627 0.0
C488 C 0.62887 0.56721 0.37963 0.0
H489 H 0.62826 0.58517 0.38123 0.0
H490 H 0.62019 0.55941 0.39341 0.0
H491 H 0.62052 0.5623 0.3644 0.0
C492 C 0.69851 0.64066 0.41733 0.0
N493 N 0.6907 0.63537 0.39757 0.0
N494 N 0.68295 0.61548 0.39817 0.0
C495 C 0.68544 0.6075 0.41844 0.0
C496 C 0.6955 0.62312 0.43121 0.0
C497 C 0.7111 0.661 0.42187 0.0
H498 H 0.72538 0.66173 0.4109 0.0
H499 H 0.7007 0.67531 0.41846 0.0
H500 H 0.7169 0.66186 0.4389 0.0
O501 O 0.71106 0.63501 0.35 0.0
O502 O 0.69622 0.60229 0.34942 0.0
H503 H 0.69087 0.57322 0.41883 0.0
H504 H 0.67873 0.58365 0.44337 0.0
C505 C 0.67902 0.58509 0.42538 0.0
H506 H 0.6627 0.58111 0.41886 0.0
H507 H 0.70263 0.56599 0.37441 0.0
O508 O 0.70851 0.67737 0.37485 0.0
C509 C 0.71004 0.61587 0.34254 0.0
Co510 Co 0.89754 0.04619 0.87097 0.0
Co511 Co 0.84911 0.06128 0.87058 0.0
C512 C 0.88396 0.08723 0.8928 0.0
O513 O 0.89896 0.074 0.88721 0.0
O514 O 0.86427 0.0847 0.8866 0.0
C515 C 0.9453 0.03327 0.87041 0.0
O516 O 0.9521 0.04924 0.88284 0.0
C517 C 0.80764 0.08455 0.86331 0.0
C518 C 0.78609 0.05622 0.85779 0.0
C519 C 0.78651 0.07867 0.85803 0.0
N520 N 0.81925 0.06625 0.8657 0.0
N521 N 0.80622 0.04944 0.86263 0.0
C522 C 0.81702 0.10694 0.86469 0.0
H523 H 0.83431 0.10677 0.85958 0.0
H524 H 0.80765 0.11847 0.85446 0.0
H525 H 0.81631 0.11252 0.88183 0.0
C526 C 0.889 0.04315 0.82383 0.0
N527 N 0.88309 0.04907 0.84406 0.0
N528 N 0.86267 0.05519 0.8438 0.0
C529 C 0.85502 0.05337 0.82335 0.0
C530 C 0.87131 0.04535 0.81013 0.0
C531 C 0.91012 0.03252 0.81827 0.0
H532 H 0.92376 0.04193 0.82537 0.0
H533 H 0.91241 0.0314 0.80041 0.0
H534 H 0.91026 0.0159 0.8252 0.0
O535 O 0.88302 0.02556 0.89084 0.0
O536 O 0.8489 0.03654 0.89073 0.0
H537 H 0.82174 0.04347 0.82282 0.0
H538 H 0.83042 0.05753 0.79867 0.0
C539 C 0.83194 0.05699 0.81665 0.0
H540 H 0.82599 0.07254 0.82344 0.0
H541 H 0.81124 0.03326 0.86336 0.0
O542 O 0.92537 0.03176 0.86543 0.0
C543 C 0.86364 0.02399 0.89773 0.0
Co544 Co 0.12463 0.29618 0.14964 0.0
Co545 Co 0.12124 0.314 0.10181 0.0
C546 C 0.14403 0.33954 0.13455 0.0
O547 O 0.14038 0.32434 0.14821 0.0
O548 O 0.13594 0.3392 0.11542 0.0
C549 C 0.10879 0.28951 0.1948 0.0
O550 O 0.09297 0.30337 0.19124 0.0
C551 C 0.11375 0.33297 0.05712 0.0
C552 C 0.10577 0.30232 0.04012 0.0
C553 C 0.10798 0.32447 0.03684 0.0
N554 N 0.11461 0.31646 0.07152 0.0
N555 N 0.10989 0.29828 0.06113 0.0
C556 C 0.11963 0.35592 0.06257 0.0
H557 H 0.12979 0.35651 0.07744 0.0
H558 H 0.10455 0.36528 0.06564 0.0
H559 H 0.12852 0.36363 0.04888 0.0
C560 C 0.07859 0.28607 0.14071 0.0
N561 N 0.09735 0.29627 0.13588 0.0
N562 N 0.09545 0.30579 0.11684 0.0
C563 C 0.07488 0.30323 0.10969 0.0
C564 C 0.06361 0.29051 0.12449 0.0
C565 C 0.07649 0.26851 0.15748 0.0
H566 H 0.09267 0.26253 0.16257 0.0
H567 H 0.06751 0.27488 0.17172 0.0
H568 H 0.06706 0.25457 0.15095 0.0
O569 O 0.14353 0.27562 0.13501 0.0
O570 O 0.14374 0.29056 0.10224 0.0
H571 H 0.06888 0.3005 0.07555 0.0
H572 H 0.04843 0.3152 0.0902 0.0
C573 C 0.06619 0.31231 0.08887 0.0
H574 H 0.07454 0.32777 0.08482 0.0
H575 H 0.10946 0.28299 0.06849 0.0
O576 O 0.12275 0.28581 0.18003 0.0
C577 C 0.15077 0.27652 0.11572 0.0
Co578 Co 0.12075 0.68884 0.34348 0.0
Co579 Co 0.11841 0.67681 0.393 0.0
C580 C 0.14252 0.64904 0.36105 0.0
O581 O 0.13725 0.66126 0.3451 0.0
O582 O 0.13549 0.65255 0.38031 0.0
C583 C 0.11491 0.70115 0.29364 0.0
O584 O 0.11264 0.68295 0.28271 0.0
C585 C 0.11065 0.65671 0.43655 0.0
C586 C 0.10384 0.68664 0.45527 0.0
C587 C 0.10498 0.66428 0.45709 0.0
N588 N 0.11247 0.67395 0.4232 0.0
N589 N 0.1086 0.69173 0.4346 0.0
C590 C 0.1133 0.63365 0.42941 0.0
H591 H 0.1087 0.63196 0.41204 0.0
H592 H 0.10332 0.62258 0.43959 0.0
H593 H 0.13063 0.62897 0.43109 0.0
C594 C 0.07398 0.69505 0.35029 0.0
N595 N 0.09338 0.68753 0.35702 0.0
N596 N 0.09213 0.68226 0.37769 0.0
C597 C 0.07165 0.68593 0.38457 0.0
C598 C 0.05961 0.69449 0.36759 0.0
C599 C 0.07032 0.70611 0.32892 0.0
H600 H 0.08119 0.72046 0.32766 0.0
H601 H 0.07437 0.69471 0.31558 0.0
H602 H 0.05321 0.71145 0.32701 0.0
O603 O 0.13927 0.71076 0.35726 0.0
O604 O 0.13839 0.7019 0.39207 0.0
H605 H 0.06959 0.69831 0.41692 0.0
H606 H 0.04606 0.68327 0.40834 0.0
C607 C 0.06408 0.68392 0.40758 0.0
H608 H 0.07079 0.66898 0.41505 0.0
H609 H 0.10892 0.70741 0.42813 0.0
O610 O 0.1175 0.70072 0.31408 0.0
C611 C 0.14541 0.71377 0.37671 0.0
Co612 Co 0.93723 0.62651 0.90173 0.0
Co613 Co 0.92806 0.62201 0.85138 0.0
C614 C 0.89844 0.60279 0.88567 0.0
O615 O 0.90944 0.61015 0.90169 0.0
O616 O 0.90355 0.6071 0.86599 0.0
C617 C 0.95435 0.6189 0.94367 0.0
O618 O 0.94797 0.59897 0.93937 0.0
C619 C 0.90826 0.62795 0.80745 0.0
C620 C 0.93589 0.61739 0.78704 0.0
C621 C 0.91477 0.62482 0.78609 0.0
N622 N 0.92497 0.62261 0.82052 0.0
N623 N 0.9414 0.61639 0.80814 0.0
C624 C 0.88644 0.63509 0.81529 0.0
H625 H 0.88712 0.63945 0.83279 0.0
H626 H 0.88069 0.64915 0.80555 0.0
H627 H 0.87465 0.62161 0.81301 0.0
C628 C 0.9425 0.67223 0.88846 0.0
N629 N 0.93644 0.6517 0.88396 0.0
N630 N 0.93326 0.64985 0.86291 0.0
C631 C 0.93753 0.66906 0.85332 0.0
C632 C 0.9436 0.68388 0.86918 0.0
C633 C 0.95065 0.67946 0.91022 0.0
H634 H 0.93915 0.67417 0.92306 0.0
H635 H 0.95262 0.69736 0.91101 0.0
H636 H 0.96661 0.67173 0.91336 0.0
O637 O 0.95874 0.60519 0.89139 0.0
O638 O 0.953 0.60281 0.856 0.0
H639 H 0.94996 0.66097 0.82187 0.0
H640 H 0.94297 0.6894 0.82506 0.0
C641 C 0.93824 0.67249 0.82925 0.0
H642 H 0.92197 0.66914 0.82231 0.0
H643 H 0.95644 0.61137 0.81411 0.0
O644 O 0.94872 0.63408 0.93087 0.0
C645 C 0.96314 0.59701 0.87298 0.0
Co646 Co 0.87576 0.80165 0.34423 0.0
Co647 Co 0.87578 0.81528 0.3935 0.0
C648 C 0.85254 0.84142 0.35918 0.0
O649 O 0.85854 0.82889 0.34371 0.0
O650 O 0.85902 0.83858 0.37876 0.0
C651 C 0.87303 0.78705 0.29738 0.0
O652 O 0.85615 0.79935 0.29306 0.0
C653 C 0.88248 0.83743 0.43622 0.0
C654 C 0.88844 0.80832 0.45652 0.0
C655 C 0.88781 0.83074 0.45714 0.0
N656 N 0.88046 0.81959 0.42374 0.0
N657 N 0.88375 0.80232 0.43609 0.0
C658 C 0.88048 0.86019 0.42798 0.0
H659 H 0.88467 0.86089 0.41044 0.0
H660 H 0.89112 0.87134 0.43739 0.0
H661 H 0.8634 0.86561 0.42993 0.0
C662 C 0.92271 0.79913 0.35273 0.0
N663 N 0.90252 0.80485 0.35889 0.0
N664 N 0.90271 0.80977 0.37967 0.0
C665 C 0.92308 0.80708 0.38733 0.0
C666 C 0.93632 0.7999 0.37061 0.0
C667 C 0.92826 0.78962 0.33106 0.0
H668 H 0.9209 0.79952 0.31792 0.0
H669 H 0.94611 0.78897 0.32858 0.0
H670 H 0.92172 0.77287 0.33021 0.0
O671 O 0.85665 0.78008 0.35829 0.0
O672 O 0.85609 0.79015 0.39277 0.0
H673 H 0.92311 0.79456 0.4197 0.0
H674 H 0.94752 0.80896 0.41241 0.0
C675 C 0.92956 0.80877 0.41069 0.0
H676 H 0.92288 0.82387 0.41783 0.0
H677 H 0.88328 0.78635 0.43038 0.0
O678 O 0.8818 0.78778 0.31603 0.0
C679 C 0.84964 0.77782 0.37757 0.0
Co680 Co 0.54729 0.37417 0.39958 0.0
Co681 Co 0.5634 0.3715 0.35126 0.0
C682 C 0.59055 0.39252 0.38446 0.0
O683 O 0.57601 0.38855 0.39871 0.0
O684 O 0.58887 0.38553 0.36498 0.0
C685 C 0.54079 0.36039 0.44574 0.0
O686 O 0.55617 0.34569 0.44419 0.0
C687 C 0.58385 0.36367 0.30776 0.0
C688 C 0.55399 0.35682 0.28891 0.0
C689 C 0.57635 0.35794 0.2872 0.0
N690 N 0.56655 0.36557 0.32102 0.0
N691 N 0.54882 0.36168 0.30953 0.0
C692 C 0.6069 0.36619 0.31502 0.0
H693 H 0.60856 0.36116 0.33227 0.0
H694 H 0.61799 0.35648 0.30463 0.0
H695 H 0.61159 0.38357 0.31378 0.0
C696 C 0.53652 0.32822 0.39056 0.0
N697 N 0.54651 0.34704 0.38548 0.0
N698 N 0.55488 0.34544 0.36586 0.0
C699 C 0.55155 0.32505 0.35846 0.0
C700 C 0.53962 0.31364 0.37373 0.0
C701 C 0.52176 0.32513 0.40969 0.0
H702 H 0.51387 0.34068 0.41411 0.0
H703 H 0.53143 0.31911 0.42363 0.0
H704 H 0.50901 0.31282 0.40643 0.0
O705 O 0.52734 0.39424 0.38537 0.0
O706 O 0.54034 0.39429 0.35182 0.0
H707 H 0.5447 0.3211 0.32467 0.0
H708 H 0.55957 0.29903 0.33652 0.0
C709 C 0.55773 0.31698 0.3364 0.0
H710 H 0.57323 0.32448 0.33111 0.0
H711 H 0.53313 0.362 0.31594 0.0
O712 O 0.53637 0.37252 0.42963 0.0
C713 C 0.52726 0.40155 0.36608 0.0
Co714 Co 0.3678 0.69651 0.65143 0.0
Co715 Co 0.37145 0.67623 0.60475 0.0
C716 C 0.34906 0.65208 0.63886 0.0
O717 O 0.35266 0.66799 0.6517 0.0
O718 O 0.357 0.65162 0.61966 0.0
C719 C 0.38162 0.70645 0.69675 0.0
O720 O 0.39687 0.69158 0.69565 0.0
C721 C 0.37897 0.65472 0.56148 0.0
C722 C 0.38803 0.68406 0.5427 0.0
C723 C 0.38552 0.66181 0.54099 0.0
N724 N 0.37797 0.67213 0.5747 0.0
N725 N 0.38318 0.68955 0.56323 0.0
C726 C 0.37464 0.6319 0.56862 0.0
H727 H 0.37891 0.62992 0.58604 0.0
H728 H 0.38394 0.62018 0.55857 0.0
H729 H 0.35705 0.6284 0.56673 0.0
C730 C 0.41363 0.70719 0.64197 0.0
N731 N 0.39519 0.69611 0.63786 0.0
N732 N 0.39726 0.68573 0.61929 0.0
C733 C 0.41769 0.6887 0.61186 0.0
C734 C 0.42853 0.70268 0.62574 0.0
C735 C 0.41594 0.7242 0.65925 0.0
H736 H 0.39996 0.73151 0.66309 0.0
H737 H 0.42281 0.71657 0.67404 0.0
H738 H 0.42732 0.73727 0.65434 0.0
O739 O 0.34879 0.71596 0.63551 0.0
O740 O 0.3486 0.69918 0.60367 0.0
H741 H 0.4239 0.69248 0.57789 0.0
H742 H 0.4441 0.67723 0.59215 0.0
C743 C 0.42636 0.68018 0.59082 0.0
H744 H 0.41813 0.66478 0.58636 0.0
H745 H 0.3837 0.70526 0.56959 0.0
O746 O 0.36886 0.70934 0.6808 0.0
C747 C 0.34157 0.71391 0.61633 0.0
Co748 Co 0.9486 0.37777 0.59497 0.0
Co749 Co 0.92828 0.37386 0.64139 0.0
C750 C 0.90489 0.39769 0.60784 0.0
O751 O 0.92072 0.39402 0.59495 0.0
O752 O 0.9042 0.38942 0.62689 0.0
C753 C 0.95702 0.36443 0.54941 0.0
O754 O 0.94198 0.34935 0.55097 0.0
C755 C 0.90556 0.36525 0.68345 0.0
C756 C 0.93394 0.35523 0.70314 0.0
C757 C 0.91169 0.35809 0.70402 0.0
N758 N 0.9235 0.36641 0.67102 0.0
N759 N 0.94035 0.36052 0.68296 0.0
C760 C 0.88312 0.36974 0.67529 0.0
H761 H 0.88194 0.36558 0.65778 0.0
H762 H 0.87087 0.36038 0.68468 0.0
H763 H 0.87964 0.38734 0.67709 0.0
C764 C 0.95502 0.33053 0.60219 0.0
N765 N 0.94651 0.34996 0.60756 0.0
N766 N 0.93621 0.34812 0.6262 0.0
C767 C 0.93672 0.32713 0.63256 0.0
C768 C 0.94871 0.3154 0.61762 0.0
C769 C 0.97242 0.32727 0.58549 0.0
H770 H 0.98017 0.34292 0.58112 0.0
H771 H 0.96522 0.31957 0.57087 0.0
H772 H 0.98514 0.31611 0.59172 0.0
O773 O 0.96895 0.39554 0.61137 0.0
O774 O 0.95218 0.3958 0.64319 0.0
H775 H 0.93795 0.32017 0.66657 0.0
H776 H 0.92278 0.30078 0.65093 0.0
C777 C 0.92649 0.31835 0.6528 0.0
H778 H 0.9113 0.32727 0.65648 0.0
H779 H 0.95628 0.35987 0.67718 0.0
O780 O 0.96085 0.37692 0.56538 0.0
C781 C 0.96721 0.40253 0.63068 0.0
Co782 Co 0.0532 0.12152 0.59138 0.0
Co783 Co 0.06018 0.12451 0.64196 0.0
C784 C 0.09161 0.10213 0.6111 0.0
O785 O 0.0826 0.10891 0.5937 0.0
O786 O 0.0846 0.10744 0.62989 0.0
C787 C 0.04645 0.13117 0.54342 0.0
O788 O 0.06376 0.14356 0.54175 0.0
C789 C 0.08126 0.13318 0.6846 0.0
C790 C 0.05208 0.13745 0.70513 0.0
C791 C 0.07455 0.13778 0.70569 0.0
N792 N 0.06346 0.13047 0.67218 0.0
N793 N 0.04614 0.13289 0.68463 0.0
C794 C 0.10399 0.13227 0.67608 0.0
H795 H 0.10437 0.13755 0.65883 0.0
H796 H 0.11498 0.14264 0.68597 0.0
H797 H 0.10985 0.11524 0.67687 0.0
C798 C 0.04112 0.16769 0.59851 0.0
N799 N 0.05002 0.14886 0.60531 0.0
N800 N 0.05416 0.15036 0.62625 0.0
C801 C 0.04873 0.17043 0.63318 0.0
C802 C 0.03995 0.18189 0.61593 0.0
C803 C 0.03176 0.17135 0.57635 0.0
H804 H 0.0452 0.17205 0.56444 0.0
H805 H 0.02278 0.18692 0.57525 0.0
H806 H 0.02072 0.15777 0.57206 0.0
O807 O 0.03441 0.09949 0.60488 0.0
O808 O 0.0357 0.10378 0.64056 0.0
H809 H 0.03499 0.17021 0.66504 0.0
H810 H 0.04775 0.19548 0.65782 0.0
C811 C 0.04901 0.17756 0.65642 0.0
H812 H 0.06429 0.17225 0.6643 0.0
H813 H 0.03018 0.13155 0.67904 0.0
O814 O 0.04173 0.12217 0.56138 0.0
C815 C 0.02849 0.09396 0.62388 0.0
Co816 Co 0.65046 0.62218 0.80371 0.0
Co817 Co 0.60111 0.6188 0.81621 0.0
C818 C 0.63351 0.63872 0.84624 0.0
O819 O 0.64922 0.63412 0.83351 0.0
O820 O 0.61403 0.6329 0.842 0.0
C821 C 0.6969 0.60956 0.79502 0.0
O822 O 0.69631 0.5933 0.80885 0.0
C823 C 0.55774 0.61131 0.83654 0.0
C824 C 0.5391 0.60179 0.80729 0.0
C825 C 0.53731 0.60469 0.82949 0.0
N826 N 0.57103 0.61203 0.8192 0.0
N827 N 0.5597 0.60653 0.8018 0.0
C828 C 0.56479 0.61608 0.85931 0.0
H829 H 0.58159 0.6101 0.86192 0.0
H830 H 0.55364 0.60848 0.8713 0.0
H831 H 0.56483 0.63394 0.86181 0.0
C832 C 0.64181 0.57682 0.78992 0.0
N833 N 0.6362 0.59529 0.80024 0.0
N834 N 0.61635 0.59325 0.80787 0.0
C835 C 0.60931 0.57284 0.80403 0.0
C836 C 0.62505 0.56191 0.79225 0.0
C837 C 0.66063 0.57492 0.7746 0.0
H838 H 0.66548 0.59114 0.76845 0.0
H839 H 0.67451 0.56724 0.78313 0.0
H840 H 0.65642 0.56455 0.76046 0.0
O841 O 0.63683 0.64429 0.78583 0.0
O842 O 0.60175 0.64187 0.79334 0.0
H843 H 0.57542 0.56658 0.79938 0.0
H844 H 0.58949 0.54586 0.81425 0.0
C845 C 0.58814 0.56369 0.81178 0.0
H846 H 0.58326 0.57146 0.82727 0.0
H847 H 0.56615 0.60579 0.78613 0.0
O848 O 0.68036 0.62161 0.79249 0.0
C849 C 0.61748 0.65087 0.78335 0.0
Co850 Co 0.87766 0.09565 0.44648 0.0
Co851 Co 0.87339 0.14407 0.43087 0.0
C852 C 0.89527 0.1118 0.40313 0.0
O853 O 0.89181 0.09709 0.41739 0.0
O854 O 0.8878 0.13102 0.40538 0.0
C855 C 0.8645 0.04956 0.45343 0.0
O856 O 0.84926 0.05147 0.43861 0.0
C857 C 0.86364 0.18689 0.41001 0.0
C858 C 0.85745 0.20626 0.43964 0.0
C859 C 0.85778 0.20752 0.4172 0.0
N860 N 0.86642 0.17408 0.42754 0.0
N861 N 0.86283 0.18585 0.44513 0.0
C862 C 0.86536 0.17906 0.38707 0.0
H863 H 0.86066 0.16166 0.3861 0.0
H864 H 0.85492 0.18888 0.37611 0.0
H865 H 0.88248 0.18056 0.38163 0.0
C866 C 0.83139 0.10346 0.45777 0.0
N867 N 0.85006 0.10903 0.44771 0.0
N868 N 0.84787 0.12858 0.43931 0.0
C869 C 0.82726 0.13535 0.44252 0.0
C870 C 0.81629 0.11975 0.4544 0.0
C871 C 0.82893 0.08474 0.47313 0.0
H872 H 0.84485 0.08017 0.48015 0.0
H873 H 0.82187 0.07076 0.46424 0.0
H874 H 0.81761 0.08871 0.48658 0.0
O875 O 0.89743 0.11037 0.46634 0.0
O876 O 0.89629 0.14414 0.45388 0.0
H877 H 0.82274 0.16916 0.44884 0.0
H878 H 0.80054 0.15653 0.43473 0.0
C879 C 0.81852 0.1571 0.43614 0.0
H880 H 0.82554 0.16227 0.42038 0.0
H881 H 0.86382 0.17981 0.46095 0.0
O882 O 0.877 0.06549 0.45748 0.0
C883 C 0.90407 0.1299 0.46671 0.0
Co884 Co 0.34593 0.87611 0.79464 0.0
Co885 Co 0.39366 0.87423 0.81259 0.0
C886 C 0.3577 0.851 0.83484 0.0
O887 O 0.34409 0.85725 0.82048 0.0
O888 O 0.37744 0.85756 0.83508 0.0
C889 C 0.29895 0.87523 0.78301 0.0
O890 O 0.29517 0.86035 0.79787 0.0
C891 C 0.43586 0.88044 0.83593 0.0
C892 C 0.45714 0.8847 0.80723 0.0
C893 C 0.45705 0.88507 0.82967 0.0
N894 N 0.42388 0.87787 0.81781 0.0
N895 N 0.43681 0.88014 0.8008 0.0
C896 C 0.42686 0.88005 0.85848 0.0
H897 H 0.40909 0.88313 0.85821 0.0
H898 H 0.43519 0.89232 0.86878 0.0
H899 H 0.42974 0.86378 0.86569 0.0
C900 C 0.3557 0.92264 0.7942 0.0
N901 N 0.36084 0.9022 0.79995 0.0
N902 N 0.38106 0.9017 0.80674 0.0
C903 C 0.38944 0.92193 0.80526 0.0
C904 C 0.37373 0.93577 0.79704 0.0
C905 C 0.33519 0.92883 0.78269 0.0
H906 H 0.32098 0.92276 0.79198 0.0
H907 H 0.33381 0.94672 0.78084 0.0
H908 H 0.33508 0.92122 0.76636 0.0
O909 O 0.36049 0.85786 0.7728 0.0
O910 O 0.39318 0.85466 0.78729 0.0
H911 H 0.42265 0.92079 0.7953 0.0
H912 H 0.41517 0.94552 0.809 0.0
C913 C 0.41281 0.92763 0.80873 0.0
H914 H 0.4185 0.92075 0.82436 0.0
H915 H 0.43157 0.87921 0.7847 0.0
O916 O 0.31794 0.88295 0.78087 0.0
C917 C 0.37933 0.84945 0.77293 0.0
Co918 Co 0.12517 0.39941 0.44337 0.0
Co919 Co 0.12136 0.351 0.42773 0.0
C920 C 0.10207 0.38741 0.40221 0.0
O921 O 0.10812 0.40145 0.41624 0.0
O922 O 0.10741 0.36737 0.40359 0.0
C923 C 0.12235 0.44485 0.45773 0.0
O924 O 0.10356 0.44627 0.44769 0.0
C925 C 0.12766 0.30815 0.40593 0.0
C926 C 0.12142 0.28654 0.43403 0.0
C927 C 0.1271 0.28657 0.41235 0.0
N928 N 0.12268 0.32046 0.4233 0.0
N929 N 0.11891 0.30737 0.43995 0.0
C930 C 0.13318 0.31689 0.38396 0.0
H931 H 0.1367 0.33457 0.38485 0.0
H932 H 0.14737 0.30805 0.37719 0.0
H933 H 0.11921 0.31418 0.37288 0.0
C934 C 0.17081 0.38662 0.44755 0.0
N935 N 0.15056 0.38251 0.44045 0.0
N936 N 0.1491 0.36192 0.43502 0.0
C937 C 0.16834 0.35218 0.439 0.0
C938 C 0.18263 0.36752 0.44729 0.0
C939 C 0.17792 0.40766 0.45747 0.0
H940 H 0.17284 0.4214 0.44698 0.0
H941 H 0.19583 0.4082 0.45957 0.0
H942 H 0.17014 0.40939 0.47362 0.0
O943 O 0.1049 0.38696 0.46493 0.0
O944 O 0.1009 0.35367 0.45205 0.0
H945 H 0.16097 0.31999 0.4498 0.0
H946 H 0.18905 0.32395 0.44216 0.0
C947 C 0.172 0.32818 0.43813 0.0
H948 H 0.16823 0.32216 0.42157 0.0
H949 H 0.11489 0.31271 0.45553 0.0
O950 O 0.13342 0.42757 0.4561 0.0
C951 C 0.09581 0.36841 0.4655 0.0
Co952 Co 0.6483 0.36559 0.69643 0.0
Co953 Co 0.60016 0.36878 0.6802 0.0
C954 C 0.63266 0.3471 0.65312 0.0
O955 O 0.64704 0.35071 0.66767 0.0
O956 O 0.61341 0.35467 0.65478 0.0
C957 C 0.69469 0.379 0.70474 0.0
O958 O 0.69403 0.39462 0.6902 0.0
C959 C 0.55659 0.37768 0.66057 0.0
C960 C 0.53708 0.37804 0.69081 0.0
C961 C 0.53559 0.38001 0.66851 0.0
N962 N 0.56992 0.37456 0.67762 0.0
N963 N 0.55813 0.37495 0.69557 0.0
C964 C 0.56375 0.3771 0.63735 0.0
H965 H 0.57298 0.36192 0.63433 0.0
H966 H 0.57494 0.39092 0.63424 0.0
H967 H 0.54973 0.37803 0.62605 0.0
C968 C 0.64 0.41207 0.706 0.0
N969 N 0.63456 0.39295 0.69682 0.0
N970 N 0.61499 0.39456 0.68838 0.0
C971 C 0.60789 0.41512 0.6908 0.0
C972 C 0.62345 0.42685 0.70212 0.0
C973 C 0.65816 0.41488 0.72199 0.0
H974 H 0.66285 0.39904 0.72912 0.0
H975 H 0.67233 0.42234 0.71371 0.0
H976 H 0.65328 0.42588 0.73542 0.0
O977 O 0.63393 0.34604 0.71684 0.0
O978 O 0.60074 0.34596 0.70308 0.0
H979 H 0.5735 0.41815 0.69452 0.0
H980 H 0.5863 0.44123 0.68171 0.0
C981 C 0.58636 0.42323 0.68295 0.0
H982 H 0.58267 0.41616 0.66681 0.0
H983 H 0.56448 0.3728 0.71115 0.0
O984 O 0.67824 0.36686 0.7077 0.0
C985 C 0.61465 0.33878 0.71654 0.0
Co986 Co 0.6182 0.09339 0.54478 0.0
Co987 Co 0.62297 0.13947 0.56563 0.0
C988 C 0.59825 0.10659 0.58859 0.0
O989 O 0.60152 0.09391 0.5725 0.0
O990 O 0.60737 0.12521 0.58983 0.0
C991 C 0.63154 0.04801 0.53599 0.0
O992 O 0.64689 0.04979 0.55071 0.0
C993 C 0.6316 0.18202 0.58772 0.0
C994 C 0.64178 0.20095 0.55885 0.0
C995 C 0.63882 0.20243 0.58107 0.0
N996 N 0.63057 0.16911 0.5701 0.0
N997 N 0.63654 0.18062 0.55297 0.0
C998 C 0.62674 0.17456 0.61034 0.0
H999 H 0.63078 0.15707 0.61211 0.0
H1000 H 0.63596 0.18429 0.62242 0.0
H1001 H 0.60911 0.17655 0.61352 0.0
C1002 C 0.66507 0.10083 0.53664 0.0
N1003 N 0.64617 0.10571 0.54656 0.0
N1004 N 0.6485 0.12405 0.55727 0.0
C1005 C 0.66942 0.13051 0.55575 0.0
C1006 C 0.68047 0.11612 0.54255 0.0
C1007 C 0.66744 0.08448 0.51877 0.0
H1008 H 0.65142 0.08041 0.51162 0.0
H1009 H 0.67518 0.06963 0.52539 0.0
H1010 H 0.67819 0.09073 0.5057 0.0
O1011 O 0.60089 0.11003 0.52438 0.0
O1012 O 0.60082 0.14145 0.54189 0.0
H1013 H 0.67686 0.16433 0.55306 0.0
H1014 H 0.69612 0.14903 0.5686 0.0
C1015 C 0.67853 0.15102 0.56509 0.0
H1016 H 0.6699 0.15539 0.58028 0.0
H1017 H 0.63721 0.17445 0.53718 0.0
O1018 O 0.61869 0.06377 0.53255 0.0
C1019 C 0.59402 0.12933 0.52657 0.0
Co1020 Co 0.34276 0.12381 0.69605 0.0
Co1021 Co 0.39046 0.12336 0.67803 0.0
C1022 C 0.35674 0.14552 0.65353 0.0
O1023 O 0.34339 0.14084 0.6687 0.0
O1024 O 0.37611 0.13809 0.65337 0.0
C1025 C 0.29745 0.10745 0.70252 0.0
O1026 O 0.3002 0.09225 0.6878 0.0
C1027 C 0.43454 0.11558 0.65831 0.0
C1028 C 0.45412 0.11843 0.68834 0.0
C1029 C 0.45567 0.11482 0.66625 0.0
N1030 N 0.42108 0.11942 0.67515 0.0
N1031 N 0.43298 0.12097 0.69298 0.0
C1032 C 0.4274 0.11352 0.63518 0.0
H1033 H 0.41082 0.12023 0.63301 0.0
H1034 H 0.42719 0.09608 0.6306 0.0
H1035 H 0.43904 0.122 0.62429 0.0
C1036 C 0.35335 0.07752 0.70353 0.0
N1037 N 0.35746 0.097 0.69437 0.0
N1038 N 0.37693 0.0966 0.68555 0.0
C1039 C 0.38534 0.07653 0.68796 0.0
C1040 C 0.37069 0.06385 0.69936 0.0
C1041 C 0.33579 0.07343 0.71992 0.0
H1042 H 0.33027 0.08888 0.72731 0.0
H1043 H 0.32195 0.06519 0.71185 0.0
H1044 H 0.34155 0.06252 0.73308 0.0
O1045 O 0.35674 0.14233 0.71766 0.0
O1046 O 0.38894 0.145 0.70195 0.0
H1047 H 0.41959 0.07737 0.69353 0.0
H1048 H 0.40989 0.05224 0.682 0.0
C1049 C 0.40795 0.07018 0.6818 0.0
H1050 H 0.41171 0.07639 0.66531 0.0
H1051 H 0.42662 0.12386 0.70843 0.0
O1052 O 0.31266 0.12079 0.70665 0.0
C1053 C 0.37556 0.15071 0.71658 0.0
Co1054 Co 0.37418 0.39947 0.5458 0.0
Co1055 Co 0.37257 0.35212 0.56421 0.0
C1056 C 0.39415 0.3857 0.58929 0.0
O1057 O 0.39032 0.39897 0.57381 0.0
O1058 O 0.38644 0.36642 0.58931 0.0
C1059 C 0.35811 0.44454 0.53881 0.0
O1060 O 0.34255 0.44149 0.5531 0.0
C1061 C 0.36354 0.30897 0.58469 0.0
C1062 C 0.36322 0.28893 0.55484 0.0
C1063 C 0.36043 0.28779 0.57714 0.0
N1064 N 0.36781 0.32179 0.56747 0.0
N1065 N 0.36769 0.30965 0.54978 0.0
C1066 C 0.36096 0.31742 0.60733 0.0
H1067 H 0.35744 0.33511 0.60705 0.0
H1068 H 0.3477 0.30866 0.6159 0.0
H1069 H 0.37635 0.31491 0.61639 0.0
C1070 C 0.32788 0.38916 0.53693 0.0
N1071 N 0.34712 0.38499 0.54653 0.0
N1072 N 0.34621 0.36573 0.55579 0.0
C1073 C 0.32602 0.3576 0.55337 0.0
C1074 C 0.31383 0.3721 0.54128 0.0
C1075 C 0.32434 0.40649 0.52017 0.0
H1076 H 0.34002 0.41212 0.51336 0.0
H1077 H 0.3156 0.42031 0.5277 0.0
H1078 H 0.31408 0.40032 0.50667 0.0
O1079 O 0.39329 0.38518 0.525 0.0
O1080 O 0.39494 0.35297 0.54089 0.0
H1081 H 0.32482 0.32302 0.5503 0.0
H1082 H 0.30071 0.33482 0.56193 0.0
C1083 C 0.31872 0.33583 0.56139 0.0
H1084 H 0.32528 0.3329 0.5779 0.0
H1085 H 0.37031 0.31563 0.53412 0.0
O1086 O 0.37172 0.42952 0.53498 0.0
C1087 C 0.40131 0.36624 0.52638 0.0
Co1088 Co 0.80097 0.6515 0.62479 0.0
Co1089 Co 0.81108 0.60139 0.62411 0.0
C1090 C 0.84284 0.63472 0.6415 0.0
O1091 O 0.83096 0.6508 0.63601 0.0
O1092 O 0.83748 0.61514 0.63702 0.0
C1093 C 0.79256 0.69858 0.61286 0.0
O1094 O 0.80908 0.69991 0.59942 0.0
C1095 C 0.83095 0.5587 0.61295 0.0
C1096 C 0.80277 0.53727 0.61924 0.0
C1097 C 0.82415 0.53705 0.61222 0.0
N1098 N 0.81421 0.57088 0.61997 0.0
N1099 N 0.79752 0.55791 0.62378 0.0
C1100 C 0.85218 0.56812 0.60575 0.0
H1101 H 0.85019 0.58554 0.60149 0.0
H1102 H 0.85865 0.55905 0.59157 0.0
H1103 H 0.86404 0.56697 0.61929 0.0
C1104 C 0.78651 0.64115 0.57988 0.0
N1105 N 0.79662 0.63579 0.59857 0.0
N1106 N 0.80153 0.61497 0.59804 0.0
C1107 C 0.79514 0.60662 0.57878 0.0
C1108 C 0.78531 0.62291 0.56675 0.0
C1109 C 0.7765 0.66282 0.5753 0.0
H1110 H 0.78962 0.67493 0.57304 0.0
H1111 H 0.76653 0.66267 0.56028 0.0
H1112 H 0.76622 0.66784 0.58921 0.0
O1113 O 0.78394 0.63905 0.64858 0.0
O1114 O 0.78894 0.60347 0.64732 0.0
H1115 H 0.78509 0.57381 0.58409 0.0
H1116 H 0.79076 0.58011 0.55603 0.0
C1117 C 0.79595 0.58302 0.57305 0.0
H1118 H 0.81276 0.57693 0.57517 0.0
H1119 H 0.78238 0.56324 0.62921 0.0
O1120 O 0.78874 0.68105 0.62305 0.0
C1121 C 0.78045 0.62012 0.65601 0.0
Co1122 Co 0.89657 0.94423 0.62301 0.0
Co1123 Co 0.84743 0.93032 0.61971 0.0
C1124 C 0.88358 0.90312 0.60102 0.0
O1125 O 0.89852 0.91618 0.60726 0.0
O1126 O 0.8636 0.9062 0.60586 0.0
C1127 C 0.94418 0.95539 0.62571 0.0
O1128 O 0.9497 0.93898 0.61323 0.0
C1129 C 0.80473 0.90838 0.62744 0.0
C1130 C 0.78289 0.93512 0.61747 0.0
C1131 C 0.78301 0.91404 0.62517 0.0
N1132 N 0.81689 0.92555 0.62135 0.0
N1133 N 0.80367 0.94144 0.61554 0.0
C1134 C 0.81374 0.88688 0.6342 0.0
H1135 H 0.83175 0.88749 0.63493 0.0
H1136 H 0.80716 0.88229 0.65035 0.0
H1137 H 0.80854 0.87426 0.62241 0.0
C1138 C 0.88428 0.94817 0.66902 0.0
N1139 N 0.87965 0.94211 0.64853 0.0
N1140 N 0.85883 0.93754 0.64715 0.0
C1141 C 0.84947 0.94116 0.6666 0.0
C1142 C 0.86531 0.94801 0.68107 0.0
C1143 C 0.90574 0.95714 0.67613 0.0
H1144 H 0.91907 0.94672 0.66996 0.0
H1145 H 0.90688 0.95811 0.6941 0.0
H1146 H 0.90768 0.97372 0.66933 0.0
O1147 O 0.88423 0.96485 0.60162 0.0
O1148 O 0.85001 0.95432 0.59892 0.0
H1149 H 0.81708 0.95123 0.65906 0.0
H1150 H 0.82153 0.94532 0.68758 0.0
C1151 C 0.82553 0.94037 0.6707 0.0
H1152 H 0.81961 0.92356 0.66804 0.0
H1153 H 0.80883 0.95668 0.61019 0.0
O1154 O 0.92439 0.95826 0.63066 0.0
C1155 C 0.86555 0.96649 0.593 0.0
Co1156 Co 0.18883 0.84274 0.61728 0.0
Co1157 Co 0.18034 0.89293 0.61755 0.0
C1158 C 0.1515 0.85958 0.6407 0.0
O1159 O 0.16078 0.84276 0.63285 0.0
O1160 O 0.15752 0.87887 0.63575 0.0
C1161 C 0.20221 0.79454 0.61673 0.0
O1162 O 0.18625 0.78685 0.62866 0.0
C1163 C 0.15836 0.93547 0.61189 0.0
C1164 C 0.18706 0.95625 0.60556 0.0
C1165 C 0.16466 0.95655 0.6069 0.0
N1166 N 0.17633 0.92317 0.61311 0.0
N1167 N 0.19339 0.93576 0.60955 0.0
C1168 C 0.13576 0.92693 0.61455 0.0
H1169 H 0.13498 0.90964 0.60942 0.0
H1170 H 0.12405 0.93679 0.60501 0.0
H1171 H 0.13118 0.92782 0.63197 0.0
C1172 C 0.19398 0.85159 0.57049 0.0
N1173 N 0.18795 0.85788 0.59057 0.0
N1174 N 0.18446 0.87892 0.59054 0.0
C1175 C 0.1881 0.88665 0.57036 0.0
C1176 C 0.19485 0.86973 0.55712 0.0
C1177 C 0.20206 0.8293 0.56513 0.0
H1178 H 0.19161 0.8169 0.57301 0.0
H1179 H 0.20215 0.82632 0.54738 0.0
H1180 H 0.21889 0.82756 0.57128 0.0
O1181 O 0.20897 0.85584 0.63841 0.0
O1182 O 0.2063 0.89154 0.63605 0.0
H1183 H 0.20148 0.91871 0.57061 0.0
H1184 H 0.18705 0.91196 0.54607 0.0
C1185 C 0.18709 0.91011 0.56403 0.0
H1186 H 0.17216 0.9176 0.57069 0.0
H1187 H 0.20942 0.93024 0.60953 0.0
O1188 O 0.20307 0.81464 0.61225 0.0
C1189 C 0.21474 0.87471 0.64444 0.0
Co1190 Co 0.09263 0.55106 0.62072 0.0
Co1191 Co 0.14144 0.566 0.62383 0.0
C1192 C 0.10903 0.59413 0.60274 0.0
O1193 O 0.09421 0.58001 0.60633 0.0
O1194 O 0.12829 0.5918 0.61013 0.0
C1195 C 0.04608 0.54338 0.63376 0.0
O1196 O 0.04655 0.55899 0.6483 0.0
C1197 C 0.18509 0.58496 0.63441 0.0
C1198 C 0.20458 0.55488 0.6322 0.0
C1199 C 0.20622 0.57689 0.63659 0.0
N1200 N 0.17189 0.56832 0.62908 0.0
N1201 N 0.18372 0.55048 0.62773 0.0
C1202 C 0.17707 0.60749 0.63866 0.0
H1203 H 0.15939 0.60724 0.64223 0.0
H1204 H 0.18601 0.61491 0.65247 0.0
H1205 H 0.1797 0.6176 0.62394 0.0
C1206 C 0.10138 0.5396 0.66667 0.0
N1207 N 0.10672 0.54974 0.64798 0.0
N1208 N 0.12674 0.55715 0.64958 0.0
C1209 C 0.13431 0.55281 0.66969 0.0
C1210 C 0.11853 0.54155 0.68108 0.0
C1211 C 0.08193 0.5252 0.66953 0.0
H1212 H 0.07779 0.51712 0.65398 0.0
H1213 H 0.06801 0.53517 0.67501 0.0
H1214 H 0.08474 0.51258 0.68209 0.0
O1215 O 0.10657 0.5309 0.60062 0.0
O1216 O 0.14023 0.54359 0.60075 0.0
H1217 H 0.16813 0.54512 0.66934 0.0
H1218 H 0.15845 0.55523 0.69505 0.0
C1219 C 0.15706 0.55697 0.67714 0.0
H1220 H 0.16207 0.57362 0.67241 0.0
H1221 H 0.17745 0.53517 0.62398 0.0
O1222 O 0.06266 0.53968 0.62205 0.0
C1223 C 0.12586 0.53074 0.59339 0.0
Co1224 Co 0.80308 0.34444 0.87396 0.0
Co1225 Co 0.81063 0.39492 0.87198 0.0
C1226 C 0.84007 0.36099 0.85018 0.0
O1227 O 0.83131 0.34428 0.85889 0.0
O1228 O 0.83359 0.38031 0.85431 0.0
C1229 C 0.7895 0.29788 0.87069 0.0
O1230 O 0.80254 0.29484 0.85407 0.0
C1231 C 0.83269 0.43754 0.87871 0.0
C1232 C 0.80367 0.45835 0.88273 0.0
C1233 C 0.8261 0.45859 0.88343 0.0
N1234 N 0.81478 0.42532 0.87573 0.0
N1235 N 0.79757 0.43797 0.87786 0.0
C1236 C 0.85535 0.42884 0.87863 0.0
H1237 H 0.85526 0.41112 0.88203 0.0
H1238 H 0.8655 0.4375 0.89078 0.0
H1239 H 0.86258 0.43152 0.86232 0.0
C1240 C 0.79867 0.35436 0.9204 0.0
N1241 N 0.80369 0.36049 0.9 0.0
N1242 N 0.8064 0.38165 0.89941 0.0
C1243 C 0.80305 0.3897 0.91952 0.0
C1244 C 0.79766 0.37274 0.93342 0.0
C1245 C 0.79174 0.3318 0.92637 0.0
H1246 H 0.80265 0.3198 0.91855 0.0
H1247 H 0.79197 0.329 0.94412 0.0
H1248 H 0.77494 0.32913 0.92046 0.0
O1249 O 0.78366 0.35679 0.85176 0.0
O1250 O 0.78482 0.39268 0.85311 0.0
H1251 H 0.78952 0.42161 0.91771 0.0
H1252 H 0.80296 0.41574 0.94312 0.0
C1253 C 0.80361 0.41332 0.92525 0.0
H1254 H 0.81877 0.42074 0.91897 0.0
H1255 H 0.78156 0.43249 0.87665 0.0
O1256 O 0.78934 0.31613 0.88027 0.0
C1257 C 0.77751 0.37524 0.84485 0.0
Co1258 Co 0.59592 0.94446 0.36859 0.0
Co1259 Co 0.64425 0.92822 0.36985 0.0
C1260 C 0.60841 0.9036 0.39168 0.0
O1261 O 0.59422 0.91767 0.38611 0.0
O1262 O 0.6282 0.90464 0.38535 0.0
C1263 C 0.5481 0.95694 0.36638 0.0
O1264 O 0.54103 0.94041 0.37792 0.0
C1265 C 0.68636 0.90554 0.36148 0.0
C1266 C 0.70799 0.93432 0.36119 0.0
C1267 C 0.70773 0.91209 0.35803 0.0
N1268 N 0.67452 0.92332 0.3661 0.0
N1269 N 0.68765 0.94034 0.36615 0.0
C1270 C 0.67702 0.88328 0.35875 0.0
H1271 H 0.65947 0.8843 0.35468 0.0
H1272 H 0.68589 0.87423 0.34591 0.0
H1273 H 0.67872 0.87425 0.37428 0.0
C1274 C 0.60566 0.94711 0.32208 0.0
N1275 N 0.61103 0.94072 0.34228 0.0
N1276 N 0.63162 0.93513 0.34261 0.0
C1277 C 0.64005 0.93827 0.32258 0.0
C1278 C 0.62392 0.9462 0.30902 0.0
C1279 C 0.58435 0.95706 0.31601 0.0
H1280 H 0.57084 0.94721 0.32275 0.0
H1281 H 0.58252 0.95811 0.29808 0.0
H1282 H 0.58352 0.97368 0.32285 0.0
O1283 O 0.61014 0.96565 0.38781 0.0
O1284 O 0.64354 0.95281 0.39034 0.0
H1285 H 0.67266 0.94962 0.32614 0.0
H1286 H 0.66651 0.93914 0.29946 0.0
C1287 C 0.66368 0.93686 0.31714 0.0
H1288 H 0.67002 0.92074 0.32203 0.0
H1289 H 0.68256 0.95627 0.36896 0.0
O1290 O 0.5682 0.9589 0.36232 0.0
C1291 C 0.62906 0.96631 0.396 0.0
Co1292 Co 0.19452 0.14843 0.86659 0.0
Co1293 Co 0.17925 0.09994 0.8712 0.0
C1294 C 0.15179 0.13154 0.84813 0.0
O1295 O 0.16573 0.14649 0.85184 0.0
O1296 O 0.15409 0.1124 0.85582 0.0
C1297 C 0.2009 0.19398 0.88121 0.0
O1298 O 0.18667 0.19082 0.89681 0.0
C1299 C 0.15897 0.05682 0.88046 0.0
C1300 C 0.18868 0.03813 0.88814 0.0
C1301 C 0.16633 0.03635 0.88665 0.0
N1302 N 0.1763 0.07003 0.87852 0.0
N1303 N 0.19395 0.05869 0.88304 0.0
C1304 C 0.13599 0.06412 0.87752 0.0
H1305 H 0.13439 0.08147 0.88218 0.0
H1306 H 0.12472 0.05402 0.88735 0.0
H1307 H 0.13151 0.06258 0.86011 0.0
C1308 C 0.20567 0.14071 0.91286 0.0
N1309 N 0.19551 0.13517 0.89426 0.0
N1310 N 0.1868 0.11579 0.89661 0.0
C1311 C 0.18976 0.1091 0.91727 0.0
C1312 C 0.20201 0.12456 0.92816 0.0
C1313 C 0.22252 0.15824 0.91454 0.0
H1314 H 0.22849 0.16299 0.89823 0.0
H1315 H 0.21545 0.1725 0.92293 0.0
H1316 H 0.2366 0.15264 0.92432 0.0
O1317 O 0.21491 0.13384 0.8473 0.0
O1318 O 0.20296 0.09991 0.84914 0.0
H1319 H 0.1934 0.07506 0.92325 0.0
H1320 H 0.17923 0.08946 0.94428 0.0
C1321 C 0.18147 0.08814 0.92642 0.0
H1322 H 0.16576 0.08377 0.91874 0.0
H1323 H 0.20966 0.0651 0.88279 0.0
O1324 O 0.20479 0.17889 0.86768 0.0
C1325 C 0.21573 0.11414 0.84123 0.0
Co1326 Co 0.40033 0.54881 0.37553 0.0
Co1327 Co 0.35187 0.5643 0.37128 0.0
C1328 C 0.38371 0.59115 0.39497 0.0
O1329 O 0.3986 0.57726 0.39099 0.0
O1330 O 0.36463 0.58912 0.38706 0.0
C1331 C 0.4465 0.54168 0.36214 0.0
O1332 O 0.44486 0.55664 0.347 0.0
C1333 C 0.30889 0.58506 0.36249 0.0
C1334 C 0.28963 0.55545 0.35564 0.0
C1335 C 0.28821 0.57785 0.35676 0.0
N1336 N 0.32187 0.56759 0.36447 0.0
N1337 N 0.31018 0.55001 0.36049 0.0
C1338 C 0.31656 0.60799 0.36496 0.0
H1339 H 0.33392 0.60929 0.36023 0.0
H1340 H 0.3066 0.6192 0.35494 0.0
H1341 H 0.31511 0.61283 0.38228 0.0
C1342 C 0.39246 0.5384 0.32908 0.0
N1343 N 0.38704 0.54845 0.34778 0.0
N1344 N 0.36755 0.55695 0.34563 0.0
C1345 C 0.36069 0.55386 0.32503 0.0
C1346 C 0.37611 0.54185 0.31399 0.0
C1347 C 0.41099 0.52282 0.32666 0.0
H1348 H 0.41523 0.51552 0.34256 0.0
H1349 H 0.42519 0.53163 0.31995 0.0
H1350 H 0.40707 0.50958 0.31509 0.0
O1351 O 0.38548 0.52819 0.39449 0.0
O1352 O 0.35167 0.54034 0.39298 0.0
H1353 H 0.32698 0.54696 0.32046 0.0
H1354 H 0.33924 0.56181 0.29855 0.0
C1355 C 0.33879 0.56 0.31651 0.0
H1356 H 0.33337 0.5755 0.32386 0.0
H1357 H 0.31634 0.53422 0.36091 0.0
O1358 O 0.43052 0.5378 0.37464 0.0
C1359 C 0.36581 0.52739 0.40065 0.0
Co1360 Co 0.61973 0.79457 0.64707 0.0
Co1361 Co 0.6222 0.81218 0.59917 0.0
C1362 C 0.64161 0.83713 0.63551 0.0
O1363 O 0.63646 0.8223 0.64918 0.0
O1364 O 0.63562 0.83637 0.6156 0.0
C1365 C 0.61529 0.78574 0.69495 0.0
O1366 O 0.62577 0.80364 0.70009 0.0
C1367 C 0.61677 0.83321 0.5554 0.0
C1368 C 0.61947 0.80354 0.53526 0.0
C1369 C 0.6163 0.82574 0.53405 0.0
N1370 N 0.61994 0.81601 0.56856 0.0
N1371 N 0.62152 0.79842 0.55634 0.0
C1372 C 0.61501 0.85617 0.56314 0.0
H1373 H 0.62294 0.85803 0.57923 0.0
H1374 H 0.5976 0.86046 0.56487 0.0
H1375 H 0.62249 0.86747 0.5512 0.0
C1376 C 0.57346 0.79129 0.6353 0.0
N1377 N 0.59393 0.79754 0.63078 0.0
N1378 N 0.59485 0.80448 0.61061 0.0
C1379 C 0.57493 0.80278 0.60162 0.0
C1380 C 0.56078 0.79432 0.61695 0.0
C1381 C 0.56697 0.77966 0.65566 0.0
H1382 H 0.57159 0.78957 0.66999 0.0
H1383 H 0.54928 0.77635 0.65628 0.0
H1384 H 0.57581 0.76399 0.65645 0.0
O1385 O 0.64009 0.7737 0.63383 0.0
O1386 O 0.64372 0.78865 0.60137 0.0
H1387 H 0.5778 0.79583 0.56773 0.0
H1388 H 0.55193 0.8073 0.57545 0.0
C1389 C 0.56971 0.80784 0.57843 0.0
H1390 H 0.5759 0.82425 0.57431 0.0
H1391 H 0.62387 0.78278 0.56246 0.0
O1392 O 0.61219 0.78098 0.67513 0.0
C1393 C 0.64928 0.77456 0.61536 0.0
Co1394 Co 0.62159 0.18913 0.8417 0.0
Co1395 Co 0.62033 0.1824 0.89238 0.0
C1396 C 0.64172 0.15103 0.86067 0.0
O1397 O 0.63418 0.15992 0.84356 0.0
O1398 O 0.63724 0.15811 0.87967 0.0
C1399 C 0.61182 0.19638 0.79357 0.0
O1400 O 0.60011 0.17872 0.79093 0.0
C1401 C 0.61282 0.16155 0.9355 0.0
C1402 C 0.6077 0.19097 0.9555 0.0
C1403 C 0.60789 0.16854 0.95639 0.0
N1404 N 0.61511 0.1792 0.92276 0.0
N1405 N 0.61229 0.19667 0.93492 0.0
C1406 C 0.61445 0.13866 0.92757 0.0
H1407 H 0.60951 0.13772 0.91023 0.0
H1408 H 0.60421 0.12766 0.93758 0.0
H1409 H 0.63159 0.13325 0.92885 0.0
C1410 C 0.57542 0.1995 0.84971 0.0
N1411 N 0.59474 0.19169 0.85631 0.0
N1412 N 0.59395 0.18801 0.87738 0.0
C1413 C 0.57386 0.19287 0.88466 0.0
C1414 C 0.56164 0.20061 0.86744 0.0
C1415 C 0.57081 0.20789 0.82735 0.0
H1416 H 0.57137 0.19416 0.81578 0.0
H1417 H 0.55447 0.21539 0.82618 0.0
H1418 H 0.5833 0.22004 0.82269 0.0
O1419 O 0.6438 0.20812 0.85456 0.0
O1420 O 0.64078 0.20711 0.89035 0.0
H1421 H 0.57447 0.20733 0.91618 0.0
H1422 H 0.54933 0.1939 0.90981 0.0
C1423 C 0.56723 0.19297 0.90805 0.0
H1424 H 0.57303 0.17798 0.91616 0.0
H1425 H 0.6132 0.21257 0.92905 0.0
O1426 O 0.62013 0.20084 0.81191 0.0
C1427 C 0.64993 0.21429 0.87327 0.0
Co1428 Co 0.44513 0.11962 0.40146 0.0
Co1429 Co 0.42512 0.12223 0.35476 0.0
C1430 C 0.40162 0.09904 0.38823 0.0
O1431 O 0.41755 0.10272 0.40102 0.0
O1432 O 0.40056 0.1076 0.36934 0.0
C1433 C 0.45394 0.13364 0.44719 0.0
O1434 O 0.43858 0.14841 0.44629 0.0
C1435 C 0.40421 0.13038 0.31152 0.0
C1436 C 0.43412 0.13367 0.29183 0.0
C1437 C 0.41169 0.13423 0.29042 0.0
N1438 N 0.42158 0.12772 0.32453 0.0
N1439 N 0.43932 0.12965 0.3126 0.0
C1440 C 0.38132 0.13056 0.31964 0.0
H1441 H 0.38097 0.13466 0.33721 0.0
H1442 H 0.37139 0.14242 0.31036 0.0
H1443 H 0.37416 0.11412 0.31758 0.0
C1444 C 0.4526 0.16635 0.39261 0.0
N1445 N 0.44328 0.14706 0.388 0.0
N1446 N 0.43367 0.14834 0.36894 0.0
C1447 C 0.43572 0.1688 0.36134 0.0
C1448 C 0.44778 0.18078 0.37604 0.0
C1449 C 0.46938 0.16978 0.40993 0.0
H1450 H 0.47738 0.15423 0.41416 0.0
H1451 H 0.46148 0.1767 0.42456 0.0
H1452 H 0.48199 0.18152 0.40454 0.0
O1453 O 0.46595 0.10164 0.38589 0.0
O1454 O 0.44836 0.09989 0.35457 0.0
H1455 H 0.4398 0.17159 0.32698 0.0
H1456 H 0.42649 0.19445 0.33935 0.0
C1457 C 0.42794 0.17646 0.33963 0.0
H1458 H 0.41193 0.1691 0.33587 0.0
H1459 H 0.45507 0.12842 0.31876 0.0
O1460 O 0.45734 0.12127 0.43103 0.0
C1461 C 0.46361 0.0937 0.36702 0.0
Co1462 Co 0.36616 0.29693 0.84548 0.0
Co1463 Co 0.36991 0.31244 0.89396 0.0
C1464 C 0.34821 0.33996 0.8614 0.0
O1465 O 0.35187 0.32581 0.84667 0.0
O1466 O 0.35539 0.33766 0.88074 0.0
C1467 C 0.37913 0.28964 0.79925 0.0
O1468 O 0.39404 0.30488 0.80046 0.0
C1469 C 0.37974 0.3333 0.93672 0.0
C1470 C 0.38631 0.30365 0.95599 0.0
C1471 C 0.38586 0.32608 0.95729 0.0
N1472 N 0.37694 0.31579 0.92391 0.0
N1473 N 0.38076 0.29819 0.93561 0.0
C1474 C 0.37793 0.35624 0.9289 0.0
H1475 H 0.38229 0.35722 0.91142 0.0
H1476 H 0.38858 0.36718 0.93854 0.0
H1477 H 0.36085 0.36171 0.93071 0.0
C1478 C 0.41285 0.28769 0.85305 0.0
N1479 N 0.39366 0.29642 0.8589 0.0
N1480 N 0.39548 0.30468 0.87854 0.0
C1481 C 0.41623 0.30263 0.88522 0.0
C1482 C 0.4278 0.29169 0.86939 0.0
C1483 C 0.41585 0.27219 0.83452 0.0
H1484 H 0.40017 0.26463 0.82994 0.0
H1485 H 0.42279 0.28104 0.82043 0.0
H1486 H 0.42741 0.25908 0.83893 0.0
O1487 O 0.34654 0.27691 0.86023 0.0
O1488 O 0.3474 0.28909 0.89407 0.0
H1489 H 0.42123 0.29847 0.91935 0.0
H1490 H 0.44281 0.3127 0.90573 0.0
C1491 C 0.42491 0.31056 0.9065 0.0
H1492 H 0.41729 0.32628 0.91081 0.0
H1493 H 0.37986 0.28239 0.92953 0.0
O1494 O 0.36704 0.28567 0.8155 0.0
C1495 C 0.33984 0.27627 0.87972 0.0
Co1496 Co 0.05246 0.87224 0.89958 0.0
Co1497 Co 0.06728 0.86738 0.85118 0.0
C1498 C 0.09488 0.89083 0.88242 0.0
O1499 O 0.08102 0.88724 0.89746 0.0
O1500 O 0.09255 0.88283 0.86342 0.0
C1501 C 0.04483 0.86129 0.94674 0.0
O1502 O 0.0593 0.84561 0.94691 0.0
C1503 C 0.08741 0.85953 0.80799 0.0
C1504 C 0.05814 0.85031 0.78923 0.0
C1505 C 0.08034 0.85322 0.78748 0.0
N1506 N 0.07009 0.86015 0.82127 0.0
N1507 N 0.05267 0.85476 0.80989 0.0
C1508 C 0.11016 0.86426 0.81512 0.0
H1509 H 0.11261 0.85853 0.83205 0.0
H1510 H 0.12214 0.85638 0.80418 0.0
H1511 H 0.11285 0.8821 0.81483 0.0
C1512 C 0.04138 0.82597 0.89282 0.0
N1513 N 0.05167 0.84441 0.88694 0.0
N1514 N 0.05972 0.84196 0.86729 0.0
C1515 C 0.05606 0.82135 0.86076 0.0
C1516 C 0.04411 0.8107 0.87654 0.0
C1517 C 0.0258 0.82427 0.91147 0.0
H1518 H 0.01845 0.84032 0.91499 0.0
H1519 H 0.03463 0.81842 0.92603 0.0
H1520 H 0.01264 0.81241 0.90803 0.0
O1521 O 0.03178 0.89101 0.88484 0.0
O1522 O 0.04393 0.88964 0.85098 0.0
H1523 H 0.0482 0.81543 0.82746 0.0
H1524 H 0.064 0.79446 0.83996 0.0
C1525 C 0.06174 0.81233 0.83892 0.0
H1526 H 0.07688 0.81988 0.83273 0.0
H1527 H 0.03699 0.85411 0.81631 0.0
O1528 O 0.04165 0.87232 0.9296 0.0
C1529 C 0.03108 0.89725 0.86522 0.0
Co1530 Co 0.86677 0.20039 0.14399 0.0
Co1531 Co 0.87051 0.17811 0.09865 0.0
C1532 C 0.84763 0.15584 0.13422 0.0
O1533 O 0.85126 0.17219 0.14651 0.0
O1534 O 0.85544 0.15468 0.11498 0.0
C1535 C 0.87619 0.21174 0.19033 0.0
O1536 O 0.88265 0.19196 0.19507 0.0
C1537 C 0.87981 0.1538 0.05747 0.0
C1538 C 0.89022 0.18186 0.03745 0.0
C1539 C 0.88765 0.15956 0.03704 0.0
N1540 N 0.87815 0.17203 0.06942 0.0
N1541 N 0.88423 0.18866 0.05726 0.0
C1542 C 0.87511 0.1315 0.0659 0.0
H1543 H 0.8785 0.13071 0.08361 0.0
H1544 H 0.88491 0.11915 0.05716 0.0
H1545 H 0.85763 0.12782 0.06339 0.0
C1546 C 0.91366 0.20635 0.13726 0.0
N1547 N 0.89432 0.19786 0.13154 0.0
N1548 N 0.89633 0.1874 0.11306 0.0
C1549 C 0.91739 0.18805 0.10693 0.0
C1550 C 0.92897 0.20024 0.12194 0.0
C1551 C 0.91656 0.22288 0.1549 0.0
H1552 H 0.9023 0.23381 0.15535 0.0
H1553 H 0.91801 0.21442 0.17076 0.0
H1554 H 0.93127 0.23299 0.15241 0.0
O1555 O 0.84834 0.21913 0.12656 0.0
O1556 O 0.848 0.20135 0.09536 0.0
H1557 H 0.92479 0.18823 0.07299 0.0
H1558 H 0.94409 0.17381 0.0894 0.0
C1559 C 0.92653 0.17726 0.08717 0.0
H1560 H 0.91779 0.16184 0.08388 0.0
H1561 H 0.88462 0.20473 0.06268 0.0
O1562 O 0.86908 0.21613 0.17149 0.0
C1563 C 0.84118 0.21667 0.10741 0.0
Co1564 Co 0.44413 0.87648 0.09179 0.0
Co1565 Co 0.43205 0.87469 0.14149 0.0
C1566 C 0.40209 0.89405 0.10816 0.0
O1567 O 0.41442 0.88864 0.09238 0.0
O1568 O 0.40654 0.88907 0.12782 0.0
C1569 C 0.45321 0.86356 0.04551 0.0
O1570 O 0.43758 0.84901 0.04554 0.0
C1571 C 0.41128 0.86595 0.18437 0.0
C1572 C 0.44084 0.86309 0.20464 0.0
C1573 C 0.4184 0.86192 0.2055 0.0
N1574 N 0.42883 0.86925 0.17176 0.0
N1575 N 0.44637 0.86765 0.18404 0.0
C1576 C 0.38854 0.86524 0.17584 0.0
H1577 H 0.38856 0.86066 0.15838 0.0
H1578 H 0.37852 0.85352 0.18524 0.0
H1579 H 0.3812 0.88164 0.17732 0.0
C1580 C 0.45608 0.83047 0.10134 0.0
N1581 N 0.44714 0.84972 0.10685 0.0
N1582 N 0.44047 0.84867 0.12715 0.0
C1583 C 0.44408 0.82844 0.13482 0.0
C1584 C 0.45417 0.81634 0.11878 0.0
C1585 C 0.46936 0.82665 0.08131 0.0
H1586 H 0.47743 0.84189 0.07615 0.0
H1587 H 0.45863 0.82065 0.06815 0.0
H1588 H 0.48205 0.81419 0.08419 0.0
O1589 O 0.46133 0.89946 0.10522 0.0
O1590 O 0.45496 0.89742 0.14057 0.0
H1591 H 0.45054 0.82644 0.16888 0.0
H1592 H 0.43748 0.80271 0.15779 0.0
C1593 C 0.43815 0.82073 0.15711 0.0
H1594 H 0.42209 0.82733 0.16182 0.0
H1595 H 0.46221 0.86936 0.17822 0.0
O1596 O 0.45655 0.87521 0.06221 0.0
C1597 C 0.46418 0.9064 0.12442 0.0
Co1598 Co 0.54756 0.61606 0.09407 0.0
Co1599 Co 0.55943 0.61939 0.14387 0.0
C1600 C 0.58805 0.59621 0.11184 0.0
O1601 O 0.57614 0.60122 0.09561 0.0
O1602 O 0.58392 0.60297 0.13102 0.0
C1603 C 0.5405 0.62607 0.04626 0.0
O1604 O 0.55848 0.63743 0.04433 0.0
C1605 C 0.58048 0.63006 0.18641 0.0
C1606 C 0.55186 0.62674 0.20791 0.0
C1607 C 0.57382 0.63131 0.20792 0.0
N1608 N 0.56304 0.62508 0.17416 0.0
N1609 N 0.54602 0.62327 0.18716 0.0
C1610 C 0.60306 0.63247 0.17785 0.0
H1611 H 0.6028 0.6352 0.16001 0.0
H1612 H 0.61144 0.64614 0.18614 0.0
H1613 H 0.61228 0.61738 0.18135 0.0
C1614 C 0.5383 0.66282 0.10137 0.0
N1615 N 0.54677 0.64368 0.10784 0.0
N1616 N 0.55223 0.64516 0.12848 0.0
C1617 C 0.54778 0.6654 0.13562 0.0
C1618 C 0.53863 0.67716 0.11873 0.0
C1619 C 0.52825 0.66682 0.07958 0.0
H1620 H 0.54121 0.66686 0.06714 0.0
H1621 H 0.51993 0.68277 0.07872 0.0
H1622 H 0.51646 0.65372 0.07578 0.0
O1623 O 0.52732 0.59573 0.10832 0.0
O1624 O 0.53551 0.59806 0.14325 0.0
H1625 H 0.53735 0.66326 0.16866 0.0
H1626 H 0.54632 0.69003 0.16075 0.0
C1627 C 0.54942 0.67238 0.15885 0.0
H1628 H 0.56588 0.66862 0.16512 0.0
H1629 H 0.53039 0.61936 0.18188 0.0
O1630 O 0.53553 0.61734 0.0643 0.0
C1631 C 0.52456 0.58972 0.12788 0.0
H1632 H 0.1423 0.27117 0.21633 0.0
H1633 H 0.07227 0.27115 0.21244 0.0
H1634 H 0.14117 0.23772 0.23742 0.0
H1635 H 0.07111 0.23701 0.23294 0.0
H1636 H 0.08255 0.18053 0.28403 0.0
H1637 H 0.07909 0.21639 0.26706 0.0
H1638 H 0.13278 0.20124 0.22447 0.0
H1639 H 0.13652 0.16589 0.2416 0.0
C1640 C 0.12663 0.26424 0.22046 0.0
C1641 C 0.10741 0.27357 0.2126 0.0
C1642 C 0.12597 0.24494 0.23226 0.0
C1643 C 0.10609 0.23434 0.23614 0.0
C1644 C 0.08668 0.24472 0.23003 0.0
C1645 C 0.08734 0.26431 0.21841 0.0
C1646 C 0.09328 0.18473 0.27072 0.0
C1647 C 0.11 0.17053 0.26432 0.0
C1648 C 0.09136 0.2053 0.2611 0.0
C1649 C 0.10611 0.21188 0.24493 0.0
C1650 C 0.12167 0.19695 0.23744 0.0
C1651 C 0.12366 0.17658 0.24708 0.0
H1652 H 0.52771 0.66186 0.02324 0.0
H1653 H 0.51313 0.59411 0.03405 0.0
H1654 H 0.49275 0.66641 0.00477 0.0
H1655 H 0.47886 0.59821 0.01485 0.0
H1656 H 0.40973 0.61377 0.0055 0.0
H1657 H 0.44504 0.61396 0.02333 0.0
H1658 H 0.46946 0.65844 0.97463 0.0
H1659 H 0.43369 0.65907 0.95752 0.0
C1660 C 0.51738 0.64778 0.0209 0.0
C1661 C 0.52302 0.62763 0.03002 0.0
C1662 C 0.49728 0.65039 0.01049 0.0
C1663 C 0.48266 0.63282 0.0089 0.0
C1664 C 0.48929 0.61231 0.01651 0.0
C1665 C 0.5091 0.60981 0.02715 0.0
C1666 C 0.42251 0.62402 -0.00102 0.0
C1667 C 0.41902 0.63632 0.98012 0.0
C1668 C 0.44285 0.62389 0.00896 0.0
C1669 C 0.46035 0.63565 -1e-05 0.0
C1670 C 0.45642 0.64915 0.98196 0.0
C1671 C 0.43588 0.64959 0.9722 0.0
H1672 H 0.90771 0.33502 0.25347 0.0
H1673 H 0.85061 0.30818 0.2843 0.0
H1674 H 0.9122 0.30111 0.23278 0.0
H1675 H 0.85554 0.27427 0.26433 0.0
H1676 H 0.88253 0.21065 0.23464 0.0
H1677 H 0.88633 0.2422 0.25897 0.0
H1678 H 0.8828 0.28528 0.20371 0.0
H1679 H 0.87834 0.25442 0.17972 0.0
C1680 C 0.89628 0.32182 0.25588 0.0
C1681 C 0.87855 0.32424 0.26998 0.0
C1682 C 0.89895 0.30248 0.24429 0.0
C1683 C 0.88433 0.28516 0.24728 0.0
C1684 C 0.86714 0.28734 0.26203 0.0
C1685 C 0.86413 0.30681 0.27311 0.0
C1686 C 0.88273 0.22686 0.22777 0.0
C1687 C 0.87986 0.23005 0.20535 0.0
C1688 C 0.88499 0.2448 0.2416 0.0
C1689 C 0.88502 0.266 0.23303 0.0
C1690 C 0.88314 0.26906 0.2106 0.0
C1691 C 0.88037 0.25133 0.19694 0.0
H1692 H 0.58243 0.88571 0.00231 0.0
H1693 H 0.56241 0.83453 0.95863 0.0
H1694 H 0.54721 0.88407 0.02026 0.0
H1695 H 0.52677 0.83362 0.97578 0.0
H1696 H 0.46978 0.82782 0.025 0.0
H1697 H 0.5049 0.82566 0.00658 0.0
H1698 H 0.51173 0.89545 0.01173 0.0
H1699 H 0.47727 0.8973 0.03093 0.0
C1700 C 0.57055 0.87396 -0.00329 0.0
C1701 C 0.57514 0.86034 0.97904 0.0
C1702 C 0.55024 0.8732 0.00677 0.0
C1703 C 0.53387 0.85914 -0.00093 0.0
C1704 C 0.53893 0.84464 0.98217 0.0
C1705 C 0.55941 0.84513 0.97236 0.0
C1706 C 0.47858 0.84271 0.02163 0.0
C1707 C 0.47088 0.86273 0.02938 0.0
C1708 C 0.49879 0.84149 0.01121 0.0
C1709 C 0.51148 0.86032 0.00819 0.0
C1710 C 0.50283 0.8805 0.01448 0.0
C1711 C 0.48288 0.88166 0.02513 0.0
H1712 H 0.0818 0.81552 0.2163 0.0
H1713 H 0.14229 0.83051 0.24878 0.0
H1714 H 0.07974 0.78111 0.23602 0.0
H1715 H 0.14017 0.79619 0.26842 0.0
H1716 H 0.12059 0.7407 0.31249 0.0
H1717 H 0.11787 0.77631 0.29582 0.0
H1718 H 0.10252 0.7465 0.23417 0.0
H1719 H 0.10503 0.71043 0.25095 0.0
C1720 C 0.0944 0.81171 0.22799 0.0
C1721 C 0.1123 0.82565 0.23089 0.0
C1722 C 0.09332 0.79191 0.23906 0.0
C1723 C 0.10994 0.78589 0.25348 0.0
C1724 C 0.12711 0.80044 0.2574 0.0
C1725 C 0.12833 0.82009 0.24616 0.0
C1726 C 0.11658 0.74159 0.29536 0.0
C1727 C 0.11317 0.72264 0.28298 0.0
C1728 C 0.11506 0.76206 0.28585 0.0
C1729 C 0.11002 0.76415 0.26375 0.0
C1730 C 0.10622 0.7453 0.25135 0.0
C1731 C 0.10785 0.72469 0.26087 0.0
H1732 H 0.98181 0.65391 0.94609 0.0
H1733 H 0.96842 0.59164 0.97571 0.0
H1734 H 0.01632 0.65576 0.96534 0.0
H1735 H 0.00258 0.59385 0.99562 0.0
H1736 H 0.07515 0.5886 0.00305 0.0
H1737 H 0.04 0.59007 0.98519 0.0
H1738 H 0.03559 0.65871 -0.00067 0.0
H1739 H 0.0711 0.65738 0.01685 0.0
C1740 C 0.98593 0.64088 0.95717 0.0
C1741 C 0.9725 0.62245 0.9591 0.0
C1742 C 0.00578 0.64194 0.96822 0.0
C1743 C 0.01251 0.6247 0.98161 0.0
C1744 C -0.00176 0.6071 0.98486 0.0
C1745 C 0.97852 0.60593 0.97365 0.0
C1746 C 0.06691 0.60411 0.00206 0.0
C1747 C 0.07599 0.62284 0.01147 0.0
C1748 C 0.04656 0.60489 0.99207 0.0
C1749 C 0.0347 0.6244 0.99126 0.0
C1750 C 0.04424 0.6434 -0.00031 0.0
C1751 C 0.06466 0.64263 0.00968 0.0
H1752 H 0.86068 0.77993 0.25488 0.0
H1753 H 0.8994 0.75292 0.30696 0.0
H1754 H 0.86739 0.74698 0.23332 0.0
H1755 H 0.9058 0.7205 0.2856 0.0
H1756 H 0.86916 0.65852 0.25479 0.0
H1757 H 0.87235 0.69322 0.2739 0.0
H1758 H 0.90295 0.72174 0.21756 0.0
H1759 H 0.90043 0.68668 0.19859 0.0
C1760 C 0.87096 0.76729 0.26153 0.0
C1761 C 0.87944 0.76911 0.28267 0.0
C1762 C 0.87487 0.74855 0.24918 0.0
C1763 C 0.88707 0.73134 0.25795 0.0
C1764 C 0.89639 0.73361 0.27855 0.0
C1765 C 0.89274 0.7523 0.29071 0.0
C1766 C 0.87717 0.67202 0.24677 0.0
C1767 C 0.88476 0.66997 0.22539 0.0
C1768 C 0.8789 0.69183 0.25761 0.0
C1769 C 0.88774 0.71004 0.24704 0.0
C1770 C 0.89603 0.70786 0.22592 0.0
C1771 C 0.89482 0.68782 0.21525 0.0
H1772 H 0.02144 0.89701 0.95617 0.0
H1773 H 0.03061 0.83018 0.97555 0.0
H1774 H 0.98862 0.8989 0.97751 0.0
H1775 H -0.0021 0.83231 -0.00184 0.0
H1776 H 0.92347 0.83619 0.00976 0.0
H1777 H 0.95944 0.8335 0.99294 0.0
H1778 H 0.97277 0.90006 0.01139 0.0
H1779 H 0.93664 0.90303 0.02665 0.0
C1780 C 0.01674 0.88288 0.9656 0.0
C1781 C 0.02851 0.86343 0.96411 0.0
C1782 C -0.0021 0.88397 0.97798 0.0
C1783 C 0.99043 0.8657 0.9895 0.0
C1784 C 0.00299 0.84657 0.98917 0.0
C1785 C 0.02192 0.84544 0.97655 0.0
C1786 C 0.9341 0.85025 0.00987 0.0
C1787 C 0.92714 0.86996 0.01896 0.0
C1788 C 0.9548 0.84865 0.00057 0.0
C1789 C 0.96904 0.86661 0.0007 0.0
C1790 C 0.96211 0.88607 0.01043 0.0
C1791 C 0.94134 0.88781 0.01915 0.0
H1792 H 0.28124 0.08354 0.17965 0.0
H1793 H 0.23788 0.13667 0.16451 0.0
H1794 H 0.26528 0.08079 0.21588 0.0
H1795 H 0.22163 0.13352 0.20037 0.0
H1796 H 0.21512 0.14412 0.27053 0.0
H1797 H 0.23495 0.14287 0.23634 0.0
H1798 H 0.23259 0.07268 0.23756 0.0
H1799 H 0.21341 0.07399 0.27237 0.0
C1800 C 0.2679 0.09423 0.18382 0.0
C1801 C 0.261 0.11054 0.16933 0.0
C1802 C 0.25885 0.0927 0.20462 0.0
C1803 C 0.24269 0.10738 0.21119 0.0
C1804 C 0.23462 0.12248 0.19604 0.0
C1805 C 0.24373 0.1241 0.17538 0.0
C1806 C 0.21947 0.12843 0.26383 0.0
C1807 C 0.21251 0.10918 0.27389 0.0
C1808 C 0.23051 0.12769 0.24411 0.0
C1809 C 0.23456 0.10769 0.23387 0.0
C1810 C 0.22949 0.08834 0.24496 0.0
C1811 C 0.21863 0.08909 0.26495 0.0
H1812 H 0.37515 0.50597 0.95772 0.0
H1813 H 0.35103 0.5599 0.99574 0.0
H1814 H 0.37289 0.48268 0.99008 0.0
H1815 H 0.3484 0.53671 0.0274 0.0
H1816 H 0.33458 0.48276 0.07746 0.0
H1817 H 0.32983 0.50168 0.04265 0.0
H1818 H 0.3963 0.48717 0.02566 0.0
H1819 H 0.40123 0.46875 0.06034 0.0
C1820 C 0.36894 0.51272 0.97274 0.0
C1821 C 0.36348 0.53482 0.97418 0.0
C1822 C 0.36766 0.49945 0.99119 0.0
C1823 C 0.36054 0.50803 0.01114 0.0
C1824 C 0.35374 0.52968 0.01217 0.0
C1825 C 0.35535 0.54296 0.99396 0.0
C1826 C 0.34816 0.48377 0.0663 0.0
C1827 C 0.36834 0.47457 0.07168 0.0
C1828 C 0.3454 0.49439 0.04641 0.0
C1829 C 0.36262 0.49548 0.03144 0.0
C1830 C 0.38269 0.48617 0.03678 0.0
C1831 C 0.38559 0.47598 0.05678 0.0
H1832 H 0.73648 0.40761 0.16651 0.0
H1833 H 0.71155 0.34611 0.18962 0.0
H1834 H 0.75474 0.41314 0.20172 0.0
H1835 H 0.72908 0.35193 0.22459 0.0
H1836 H 0.74987 0.37757 0.29097 0.0
H1837 H 0.72795 0.37989 0.25766 0.0
H1838 H 0.78621 0.38929 0.2198 0.0
H1839 H 0.80801 0.38628 0.25241 0.0
C1840 C 0.73484 0.39541 0.17912 0.0
C1841 C 0.72301 0.37628 0.17528 0.0
C1842 C 0.74511 0.39861 0.1992 0.0
C1843 C 0.74303 0.38304 0.21585 0.0
C1844 C 0.73066 0.36429 0.21213 0.0
C1845 C 0.72094 0.36084 0.192 0.0
C1846 C 0.75793 0.38039 0.27558 0.0
C1847 C 0.7807 0.38168 0.27442 0.0
C1848 C 0.74542 0.38178 0.25659 0.0
C1849 C 0.75548 0.38493 0.23628 0.0
C1850 C 0.77806 0.38723 0.23529 0.0
C1851 C 0.79053 0.38541 0.25407 0.0
H1852 H 0.64658 0.937 0.99099 0.0
H1853 H 0.60249 0.98454 0.96389 0.0
H1854 H 0.65125 0.95936 0.02311 0.0
H1855 H 0.60767 0.00721 0.99641 0.0
H1856 H 0.64757 0.04306 0.05637 0.0
H1857 H 0.64885 0.02361 0.02154 0.0
H1858 H 0.61121 0.97136 0.04938 0.0
H1859 H 0.6092 0.99106 0.08396 0.0
C1860 C 0.63833 0.95247 0.99152 0.0
C1861 C 0.62401 0.95889 0.97484 0.0
C1862 C 0.64101 0.96521 0.01001 0.0
C1863 C 0.62978 0.9848 0.01205 0.0
C1864 C 0.61653 0.99208 0.99495 0.0
C1865 C 0.61356 0.97913 0.97646 0.0
C1866 C 0.63992 0.02723 0.05512 0.0
C1867 C 0.6284 0.01839 0.07279 0.0
C1868 C 0.64049 0.01631 0.03522 0.0
C1869 C 0.63 0.99622 0.033 0.0
C1870 C 0.61931 0.98694 0.05088 0.0
C1871 C 0.61826 -0.00191 0.07059 0.0
H1872 H 0.28727 0.90272 0.31175 0.0
H1873 H 0.23989 0.85557 0.33352 0.0
H1874 H 0.26797 0.90617 0.27716 0.0
H1875 H 0.22052 0.85929 0.2991 0.0
H1876 H 0.18077 0.88552 0.24392 0.0
H1877 H 0.19998 0.88862 0.2781 0.0
H1878 H 0.26099 0.87881 0.24499 0.0
H1879 H 0.24167 0.87583 0.21017 0.0
C1880 C 0.27246 0.89349 0.30935 0.0
C1881 C 0.265 0.87891 0.32534 0.0
C1882 C 0.26161 0.8953 0.28948 0.0
C1883 C 0.24289 0.88291 0.28549 0.0
C1884 C 0.23489 0.8691 0.30185 0.0
C1885 C 0.24593 0.86698 0.32153 0.0
C1886 C 0.19831 0.88429 0.24368 0.0
C1887 C 0.20968 0.88024 0.22422 0.0
C1888 C 0.20927 0.886 0.26337 0.0
C1889 C 0.23187 0.88374 0.26417 0.0
C1890 C 0.2435 0.8807 0.24471 0.0
C1891 C 0.23246 0.8789 0.22485 0.0
H1892 H 0.10282 0.50243 0.91289 0.0
H1893 H 0.16231 0.46782 0.92675 0.0
H1894 H 0.10614 0.52178 0.9473 0.0
H1895 H 0.16559 0.48724 0.96115 0.0
H1896 H 0.14102 0.49871 0.03196 0.0
H1897 H 0.14351 0.48444 0.99512 0.0
H1898 H 0.12808 0.54785 0.96929 0.0
H1899 H 0.12532 0.56217 0.00623 0.0
C1900 C 0.11686 0.49932 0.92304 0.0
C1901 C 0.13218 0.48345 0.91717 0.0
C1902 C 0.11879 0.51045 0.94273 0.0
C1903 C 0.13598 0.50581 0.95704 0.0
C1904 C 0.15201 0.49092 0.95057 0.0
C1905 C 0.15022 0.47995 0.93077 0.0
C1906 C 0.13826 0.50967 0.01845 0.0
C1907 C 0.13286 0.53155 0.02206 0.0
C1908 C 0.13989 0.50152 -0.00267 0.0
C1909 C 0.13607 0.51506 0.97931 0.0
C1910 C 0.13098 0.53702 0.98288 0.0
C1911 C 0.12944 0.54521 0.00403 0.0
H1912 H 0.75598 0.59591 0.209 0.0
H1913 H 0.80493 0.62982 0.2465 0.0
H1914 H 0.73399 0.59182 0.24214 0.0
H1915 H 0.78337 0.6256 0.2789 0.0
H1916 H 0.75109 0.60021 0.3379 0.0
H1917 H 0.77101 0.59604 0.30357 0.0
H1918 H 0.71433 0.61742 0.26803 0.0
H1919 H 0.69447 0.62109 0.3023 0.0
C1920 C 0.76199 0.60252 0.22417 0.0
C1921 C 0.78214 0.61326 0.22503 0.0
C1922 C 0.7495 0.6001 0.24309 0.0
C1923 C 0.75722 0.60806 0.2631 0.0
C1924 C 0.77724 0.61885 0.26382 0.0
C1925 C 0.78946 0.62152 0.24508 0.0
C1926 C 0.74295 0.6036 0.32265 0.0
C1927 C 0.72151 0.61105 0.32242 0.0
C1928 C 0.75422 0.60126 0.3031 0.0
C1929 C 0.74419 0.60655 0.2832 0.0
C1930 C 0.72234 0.61299 0.28308 0.0
C1931 C 0.71109 0.61525 0.3026 0.0
H1932 H 0.82044 0.96104 0.01869 0.0
H1933 H 0.89018 0.96761 0.02126 0.0
H1934 H 0.82008 0.97872 0.98307 0.0
H1935 H 0.88989 0.98618 0.98632 0.0
H1936 H 0.88866 0.99135 0.9144 0.0
H1937 H 0.88511 0.97446 0.94998 0.0
H1938 H 0.8258 0.01029 0.96121 0.0
H1939 H 0.82887 0.02647 0.92524 0.0
C1940 C 0.83557 0.9671 0.01202 0.0
C1941 C 0.85535 0.96301 0.02262 0.0
C1942 C 0.83542 0.97707 0.99154 0.0
C1943 C 0.85504 0.9833 0.98152 0.0
C1944 C 0.87456 0.98087 0.99316 0.0
C1945 C 0.87473 0.97062 0.01336 0.0
C1946 C 0.87462 0.99526 0.92427 0.0
C1947 C 0.85917 0.01038 0.91705 0.0
C1948 C 0.87273 0.98584 0.94482 0.0
C1949 C 0.85552 0.99154 0.95877 0.0
C1950 C 0.8393 0.00558 0.95097 0.0
C1951 C 0.84105 0.01481 0.93028 0.0
H1952 H 0.27091 0.21623 0.14279 0.0
H1953 H 0.27131 0.21296 0.07272 0.0
H1954 H 0.2373 0.23698 0.14171 0.0
H1955 H 0.23706 0.23318 0.07157 0.0
H1956 H 0.18027 0.28353 0.08308 0.0
H1957 H 0.21625 0.26699 0.07979 0.0
H1958 H 0.20094 0.22369 0.13295 0.0
H1959 H 0.1654 0.2404 0.13655 0.0
C1960 C 0.26406 0.22049 0.12713 0.0
C1961 C 0.27354 0.21291 0.10787 0.0
C1962 C 0.24466 0.23207 0.12649 0.0
C1963 C 0.23416 0.236 0.10659 0.0
C1964 C 0.2447 0.23022 0.08715 0.0
C1965 C 0.26437 0.21879 0.0878 0.0
C1966 C 0.18445 0.27016 0.09374 0.0
C1967 C 0.17013 0.26345 0.11029 0.0
C1968 C 0.20509 0.26078 0.09191 0.0
C1969 C 0.21164 0.24454 0.10656 0.0
C1970 C 0.19663 0.23673 0.12193 0.0
C1971 C 0.17616 0.24612 0.12383 0.0
H1972 H 0.27893 0.74892 0.38814 0.0
H1973 H 0.24835 0.81052 0.37356 0.0
H1974 H 0.24291 0.73199 0.39078 0.0
H1975 H 0.21287 0.79374 0.3765 0.0
H1976 H 0.15891 0.74728 0.35111 0.0
H1977 H 0.19322 0.76687 0.35371 0.0
H1978 H 0.20815 0.7331 0.41344 0.0
H1979 H 0.17372 0.71341 0.41089 0.0
C1980 C 0.26462 0.75884 0.38561 0.0
C1981 C 0.26656 0.78099 0.38046 0.0
C1982 C 0.24404 0.74922 0.38732 0.0
C1983 C 0.22515 0.7616 0.38379 0.0
C1984 C 0.22714 0.78378 0.37907 0.0
C1985 C 0.24755 0.79335 0.37742 0.0
C1986 C 0.16928 0.74437 0.36505 0.0
C1987 C 0.16367 0.72877 0.38074 0.0
C1988 C 0.18893 0.75557 0.36654 0.0
C1989 C 0.20343 0.75127 0.38365 0.0
C1990 C 0.19737 0.73647 0.39994 0.0
C1991 C 0.17756 0.72543 0.39859 0.0
H1992 H 0.00587 0.46489 0.8906 0.0
H1993 H 0.05381 0.49255 0.84725 0.0
H1994 H 0.98529 0.4989 0.88892 0.0
H1995 H 0.03356 0.52618 0.84586 0.0
H1996 H 0.98119 0.57873 0.83678 0.0
H1997 H -0.00092 0.54341 0.83434 0.0
H1998 H 0.99407 0.53598 0.90398 0.0
H1999 H 0.97619 0.57117 0.9065 0.0
C2000 C 0.01182 0.47799 0.88044 0.0
C2001 C 0.03164 0.47606 0.86931 0.0
C2002 C 0.00016 0.49749 0.87962 0.0
C2003 C 0.00808 0.51526 0.86756 0.0
C2004 C 0.02704 0.51277 0.85525 0.0
C2005 C 0.03867 0.49341 0.85611 0.0
C2006 C 0.98419 0.56968 0.85159 0.0
C2007 C 0.97731 0.57774 0.87182 0.0
C2008 C 0.99431 0.54944 0.85017 0.0
C2009 C -0.00247 0.5368 0.86893 0.0
C2010 C 0.99132 0.54518 0.88921 0.0
C2011 C 0.98143 0.5655 0.89068 0.0
H2012 H 0.71527 0.74191 0.3814 0.0
H2013 H 0.74805 0.67976 0.37988 0.0
H2014 H 0.75068 0.76014 0.38451 0.0
H2015 H 0.78286 0.69789 0.38299 0.0
H2016 H 0.8376 0.7422 0.35408 0.0
H2017 H 0.80312 0.72262 0.35639 0.0
H2018 H 0.78408 0.76224 0.41104 0.0
H2019 H 0.81871 0.78166 0.40901 0.0
C2020 C 0.7299 0.73216 0.38189 0.0
C2021 C 0.72879 0.70942 0.38016 0.0
C2022 C 0.75011 0.74256 0.38379 0.0
C2023 C 0.76943 0.73035 0.38383 0.0
C2024 C 0.76823 0.70766 0.38272 0.0
C2025 C 0.7482 0.69733 0.38096 0.0
C2026 C 0.82626 0.7464 0.36688 0.0
C2027 C 0.83087 0.76337 0.38139 0.0
C2028 C 0.80653 0.73526 0.36817 0.0
C2029 C 0.79092 0.74113 0.38376 0.0
C2030 C 0.79579 0.75759 0.39875 0.0
C2031 C 0.81571 0.76847 0.39773 0.0
H2032 H 0.46488 0.52073 0.39604 0.0
H2033 H 0.46555 0.52419 0.32599 0.0
H2034 H 0.48508 0.4868 0.3947 0.0
H2035 H 0.48498 0.48955 0.32448 0.0
H2036 H 0.53402 0.43219 0.33448 0.0
H2037 H 0.51725 0.46812 0.3323 0.0
H2038 H 0.47413 0.45082 0.38502 0.0
H2039 H 0.4913 0.4154 0.38764 0.0
C2040 C 0.46978 0.5144 0.38036 0.0
C2041 C 0.4636 0.52498 0.36115 0.0
C2042 C 0.48103 0.49479 0.37953 0.0
C2043 C 0.48597 0.48506 0.35945 0.0
C2044 C 0.48131 0.49653 0.34021 0.0
C2045 C 0.4703 0.51644 0.34106 0.0
C2046 C 0.52066 0.43595 0.3453 0.0
C2047 C 0.51413 0.42108 0.36141 0.0
C2048 C 0.51112 0.45657 0.3441 0.0
C2049 C 0.4948 0.46259 0.35891 0.0
C2050 C 0.48722 0.44703 0.37389 0.0
C2051 C 0.49686 0.4266 0.37522 0.0
H2052 H 0.33203 0.75519 0.6284 0.0
H2053 H 0.30741 0.70078 0.59147 0.0
H2054 H 0.29723 0.77372 0.6242 0.0
H2055 H 0.27227 0.71921 0.58771 0.0
H2056 H 0.20899 0.7508 0.62415 0.0
H2057 H 0.24321 0.73087 0.61914 0.0
H2058 H 0.27295 0.78845 0.59228 0.0
H2059 H 0.23942 0.80827 0.59724 0.0
C2060 C 0.3193 0.74743 0.61901 0.0
C2061 C 0.32237 0.72667 0.61015 0.0
C2062 C 0.29941 0.75797 0.61665 0.0
C2063 C 0.28213 0.74774 0.60577 0.0
C2064 C 0.28538 0.7273 0.59625 0.0
C2065 C 0.3055 0.71693 0.59819 0.0
C2066 C 0.2227 0.75904 0.61679 0.0
C2067 C 0.22141 0.78115 0.6112 0.0
C2068 C 0.24219 0.74763 0.61383 0.0
C2069 C 0.26062 0.75827 0.60543 0.0
C2070 C 0.25898 0.77997 0.59887 0.0
C2071 C 0.23964 0.79125 0.60166 0.0
H2072 H 0.02376 0.52843 0.66934 0.0
H2073 H 0.0323 0.51842 0.60042 0.0
H2074 H 0.00502 0.49333 0.67207 0.0
H2075 H 0.0133 0.48386 0.60297 0.0
H2076 H 0.00717 0.41372 0.61557 0.0
H2077 H 0.02441 0.44923 0.61837 0.0
H2078 H 0.97326 0.47078 0.66133 0.0
H2079 H 0.95632 0.43488 0.65904 0.0
C2080 C 0.02094 0.5191 0.65468 0.0
C2081 C 0.02958 0.52602 0.63468 0.0
C2082 C 0.0104 0.49893 0.65627 0.0
C2083 C 0.00833 0.48553 0.63786 0.0
C2084 C 0.01532 0.49346 0.6176 0.0
C2085 C 0.02591 0.5134 0.61605 0.0
C2086 C -9e-05 0.42585 0.62605 0.0
C2087 C 0.98032 0.42162 0.63689 0.0
C2088 C 0.00961 0.44628 0.62746 0.0
C2089 C -0.00023 0.46302 0.63949 0.0
C2090 C 0.98114 0.45826 0.65182 0.0
C2091 C 0.97152 0.43766 0.65059 0.0
H2092 H 0.01822 0.06466 0.5924 0.0
H2093 H 0.0108 0.07688 0.66123 0.0
H2094 H 0.00109 0.02944 0.59672 0.0
H2095 H 0.9935 0.04126 0.6655 0.0
H2096 H 0.93736 0.99069 0.65159 0.0
H2097 H 0.95922 0.02339 0.65379 0.0
H2098 H 0.00825 0.99342 0.61359 0.0
H2099 H 0.98609 0.96048 0.61107 0.0
C2100 C 0.01276 0.05994 0.60846 0.0
C2101 C 0.01577 0.0737 0.62646 0.0
C2102 C 0.00325 0.03955 0.61097 0.0
C2103 C -0.00369 0.03242 0.6315 0.0
C2104 C -0.00119 0.04631 0.64948 0.0
C2105 C 0.00858 0.06673 0.64702 0.0
C2106 C 0.953 0.99077 0.64358 0.0
C2107 C 0.95976 0.97306 0.63077 0.0
C2108 C 0.96559 0.00957 0.64496 0.0
C2109 C 0.98523 0.01111 0.63354 0.0
C2110 C 0.9929 0.9928 0.62219 0.0
C2111 C 0.98029 0.9739 0.62085 0.0
H2112 H 0.57893 0.66863 0.76906 0.0
H2113 H 0.64835 0.67965 0.77056 0.0
H2114 H 0.57405 0.70397 0.75109 0.0
H2115 H 0.6434 0.71454 0.75308 0.0
H2116 H 0.62985 0.78296 0.73704 0.0
H2117 H 0.6267 0.75141 0.76108 0.0
H2118 H 0.58543 0.71952 0.71413 0.0
H2119 H 0.58845 0.75081 0.69026 0.0
C2120 C 0.59309 0.6785 0.76553 0.0
C2121 C 0.61402 0.67123 0.77107 0.0
C2122 C 0.59029 0.69872 0.7554 0.0
C2123 C 0.60833 0.71212 0.75111 0.0
C2124 C 0.62916 0.70479 0.75665 0.0
C2125 C 0.63199 0.68458 0.76636 0.0
C2126 C 0.61966 0.76947 0.73211 0.0
C2127 C 0.60979 0.76921 0.71154 0.0
C2128 C 0.61792 0.7514 0.74582 0.0
C2129 C 0.60609 0.73293 0.73926 0.0
C2130 C 0.5946 0.73353 0.71961 0.0
C2131 C 0.59649 0.75145 0.70587 0.0
H2132 H 0.9167 0.11082 0.50446 0.0
H2133 H 0.93595 0.1594 0.45755 0.0
H2134 H 0.95244 0.11278 0.52121 0.0
H2135 H 0.97219 0.16072 0.47371 0.0
H2136 H 0.03083 0.16674 0.52199 0.0
H2137 H 0.99539 0.16932 0.50406 0.0
H2138 H 0.98715 0.09984 0.51093 0.0
H2139 H 0.02189 0.09762 0.52964 0.0
C2140 C 0.92853 0.12215 0.49794 0.0
C2141 C 0.92362 0.13484 0.47965 0.0
C2142 C 0.94912 0.12307 0.50731 0.0
C2143 C 0.96546 0.13637 0.49834 0.0
C2144 C 0.96006 0.15023 0.48097 0.0
C2145 C 0.93926 0.14955 0.47177 0.0
C2146 C 0.02167 0.15199 0.519 0.0
C2147 C 0.02901 0.13196 0.5271 0.0
C2148 C 0.00129 0.15347 0.50891 0.0
C2149 C 0.98812 0.13488 0.50663 0.0
C2150 C -0.00352 0.11462 0.51313 0.0
C2151 C 0.01656 0.11323 0.52347 0.0
H2152 H 0.3479 0.72802 0.71471 0.0
H2153 H 0.41795 0.72541 0.71381 0.0
H2154 H 0.34937 0.76304 0.73301 0.0
H2155 H 0.41959 0.76112 0.73103 0.0
H2156 H 0.41204 0.81982 0.77735 0.0
H2157 H 0.41346 0.78367 0.76156 0.0
H2158 H 0.3575 0.79886 0.72189 0.0
H2159 H 0.35547 0.83467 0.73844 0.0
C2160 C 0.36362 0.73483 0.71884 0.0
C2161 C 0.38279 0.72411 0.71283 0.0
C2162 C 0.36451 0.75508 0.72893 0.0
C2163 C 0.3846 0.7653 0.73281 0.0
C2164 C 0.40383 0.7538 0.72823 0.0
C2165 C 0.40292 0.73327 0.71847 0.0
C2166 C 0.40028 0.81562 0.76494 0.0
C2167 C 0.38346 0.83007 0.75934 0.0
C2168 C 0.40108 0.7948 0.75591 0.0
C2169 C 0.38524 0.78808 0.74089 0.0
C2170 C 0.36949 0.80319 0.73402 0.0
C2171 C 0.36852 0.82389 0.74324 0.0
H2172 H 0.97656 0.3284 0.53276 0.0
H2173 H 0.97584 0.3984 0.52896 0.0
H2174 H 0.0111 0.3277 0.51332 0.0
H2175 H 0.00956 0.39783 0.50831 0.0
H2176 H 0.08115 0.39444 0.49842 0.0
H2177 H 0.04629 0.39207 0.51688 0.0
H2178 H 0.03127 0.33331 0.48133 0.0
H2179 H 0.06653 0.33509 0.46374 0.0
C2180 C 0.98339 0.34357 0.52698 0.0
C2181 C 0.97369 0.36347 0.53237 0.0
C2182 C 0.00325 0.34321 0.51592 0.0
C2183 C 0.01347 0.36276 0.50975 0.0
C2184 C 0.00262 0.38251 0.51353 0.0
C2185 C 0.98309 0.38286 0.52498 0.0
C2186 C 0.07057 0.3808 0.49486 0.0
C2187 C 0.07656 0.36507 0.47949 0.0
C2188 C 0.05042 0.37959 0.50519 0.0
C2189 C 0.03565 0.36282 0.50015 0.0
C2190 C 0.04216 0.34646 0.48564 0.0
C2191 C 0.06244 0.3475 0.47553 0.0
H2192 H 0.64552 0.22177 0.78201 0.0
H2193 H 0.57709 0.21172 0.7706 0.0
H2194 H 0.64377 0.25656 0.76338 0.0
H2195 H 0.57492 0.24722 0.75267 0.0
H2196 H 0.58638 0.30625 0.7063 0.0
H2197 H 0.58478 0.27022 0.72278 0.0
H2198 H 0.62999 0.29119 0.77237 0.0
H2199 H 0.63237 0.32677 0.7552 0.0
C2200 C 0.63018 0.22689 0.77505 0.0
C2201 C 0.61149 0.21409 0.77754 0.0
C2202 C 0.62904 0.24701 0.76475 0.0
C2203 C 0.60905 0.25503 0.75712 0.0
C2204 C 0.59057 0.24156 0.75839 0.0
C2205 C 0.59181 0.22116 0.76846 0.0
C2206 C 0.59559 0.30326 0.72101 0.0
C2207 C 0.60967 0.31919 0.72939 0.0
C2208 C 0.59472 0.28257 0.73042 0.0
C2209 C 0.60772 0.27759 0.74854 0.0
C2210 C 0.62038 0.2942 0.75792 0.0
C2211 C 0.62154 0.31469 0.7483 0.0
H2212 H 0.58298 0.11522 0.48627 0.0
H2213 H 0.56184 0.15767 0.53799 0.0
H2214 H 0.54756 0.11853 0.469 0.0
H2215 H 0.52603 0.16056 0.52091 0.0
H2216 H 0.46906 0.16943 0.46908 0.0
H2217 H 0.50396 0.17205 0.48822 0.0
H2218 H 0.51277 0.10278 0.48095 0.0
H2219 H 0.4784 0.10028 0.46167 0.0
C2220 C 0.57088 0.12561 0.4937 0.0
C2221 C 0.57506 0.13598 0.51356 0.0
C2222 C 0.55053 0.12733 0.48396 0.0
C2223 C 0.53383 0.13924 0.49401 0.0
C2224 C 0.53855 0.15115 0.5129 0.0
C2225 C 0.55908 0.14958 0.52259 0.0
C2226 C 0.4782 0.15472 0.4722 0.0
C2227 C 0.47119 0.13467 0.46377 0.0
C2228 C 0.49823 0.15625 0.48297 0.0
C2229 C 0.51138 0.13773 0.48542 0.0
C2230 C 0.50334 0.11746 0.47864 0.0
C2231 C 0.48352 0.11596 0.46787 0.0
H2232 H 0.34523 0.26705 0.783 0.0
H2233 H 0.4149 0.27364 0.77827 0.0
H2234 H 0.34689 0.2331 0.76287 0.0
H2235 H 0.41675 0.23907 0.75864 0.0
H2236 H 0.40528 0.18271 0.70856 0.0
H2237 H 0.40738 0.21812 0.72626 0.0
H2238 H 0.35911 0.19736 0.77292 0.0
H2239 H 0.35645 0.16233 0.75478 0.0
C2240 C 0.36086 0.26141 0.77721 0.0
C2241 C 0.37992 0.27288 0.78222 0.0
C2242 C 0.36188 0.24179 0.766 0.0
C2243 C 0.38202 0.23303 0.75982 0.0
C2244 C 0.40099 0.24534 0.76332 0.0
C2245 C 0.39994 0.2652 0.77439 0.0
C2246 C 0.39545 0.18557 0.72288 0.0
C2247 C 0.38045 0.16987 0.73013 0.0
C2248 C 0.39662 0.2059 0.73297 0.0
C2249 C 0.38296 0.21077 0.75059 0.0
C2250 C 0.3693 0.19438 0.75888 0.0
C2251 C 0.36793 0.17421 0.74866 0.0
H2252 H 0.41503 0.38623 0.48933 0.0
H2253 H 0.43171 0.33481 0.53421 0.0
H2254 H 0.45047 0.38284 0.47224 0.0
H2255 H 0.46756 0.33187 0.51744 0.0
H2256 H 0.52344 0.32428 0.46502 0.0
H2257 H 0.48876 0.32296 0.48455 0.0
H2258 H 0.48648 0.39317 0.48447 0.0
H2259 H 0.52051 0.39435 0.4644 0.0
C2260 C 0.42618 0.37402 0.49538 0.0
C2261 C 0.42069 0.36101 0.51329 0.0
C2262 C 0.44658 0.37224 0.48576 0.0
C2263 C 0.46206 0.35758 0.49399 0.0
C2264 C 0.45604 0.34343 0.51087 0.0
C2265 C 0.43548 0.34508 0.52041 0.0
C2266 C 0.51581 0.33938 0.46985 0.0
C2267 C 0.52447 0.35943 0.46314 0.0
C2268 C 0.4959 0.33863 0.48086 0.0
C2269 C 0.48457 0.35795 0.48539 0.0
C2270 C 0.49444 0.37798 0.48051 0.0
C2271 C 0.51408 0.3787 0.46935 0.0
H2272 H 0.72397 0.57751 0.77971 0.0
H2273 H 0.70766 0.64533 0.77209 0.0
H2274 H 0.74638 0.57939 0.74681 0.0
H2275 H 0.72883 0.64703 0.73912 0.0
H2276 H 0.77866 0.65035 0.68772 0.0
H2277 H 0.76306 0.64698 0.72364 0.0
H2278 H 0.74111 0.58197 0.70818 0.0
H2279 H 0.75817 0.58498 0.67231 0.0
C2280 C 0.7256 0.5929 0.77131 0.0
C2281 C 0.7141 0.61128 0.77843 0.0
C2282 C 0.7381 0.59391 0.75228 0.0
C2283 C 0.73928 0.6133 0.74015 0.0
C2284 C 0.72864 0.63187 0.74808 0.0
C2285 C 0.71636 0.6309 0.767 0.0
C2286 C 0.77035 0.63538 0.69188 0.0
C2287 C 0.76925 0.61806 0.67708 0.0
C2288 C 0.76141 0.63342 0.71255 0.0
C2289 C 0.75059 0.61429 0.71881 0.0
C2290 C 0.74957 0.59684 0.70402 0.0
C2291 C 0.75904 0.59864 0.68338 0.0
H2292 H 0.89843 0.0299 0.47317 0.0
H2293 H 0.82838 0.03144 0.47169 0.0
H2294 H 0.89737 0.0091 0.50681 0.0
H2295 H 0.82713 0.01192 0.50616 0.0
H2296 H 0.83342 0.96367 0.56261 0.0
H2297 H 0.83266 0.98062 0.52696 0.0
H2298 H 0.8905 0.01718 0.54326 0.0
H2299 H 0.89189 -0.00074 0.57848 0.0
C2300 C 0.88279 0.02539 0.47991 0.0
C2301 C 0.86351 0.03227 0.46993 0.0
C2302 C 0.88214 0.01386 0.49941 0.0
C2303 C 0.86218 0.00945 0.50967 0.0
C2304 C 0.84281 0.01501 0.49881 0.0
C2305 C 0.84349 0.02614 0.47897 0.0
C2306 C 0.84582 0.97556 0.5587 0.0
C2307 C 0.86284 0.98001 0.57332 0.0
C2308 C 0.84538 0.98529 0.53819 0.0
C2309 C 0.86178 -5e-05 0.53194 0.0
C2310 C 0.87802 0.00538 0.54715 0.0
C2311 C 0.87867 0.99537 0.56752 0.0
H2312 H 0.22945 0.9121 0.66388 0.0
H2313 H 0.22989 0.84207 0.67025 0.0
H2314 H 0.24656 0.91531 0.69958 0.0
H2315 H 0.24702 0.84536 0.70561 0.0
H2316 H 0.25956 0.8555 0.77577 0.0
H2317 H 0.23783 0.85776 0.74257 0.0
H2318 H 0.28114 0.90708 0.7175 0.0
H2319 H 0.30237 0.90529 0.75063 0.0
C2320 C 0.23347 0.89741 0.67271 0.0
C2321 C 0.22832 0.87684 0.66416 0.0
C2322 C 0.24314 0.89926 0.6932 0.0
C2323 C 0.2477 0.88059 0.70558 0.0
C2324 C 0.24317 0.86006 0.69672 0.0
C2325 C 0.23367 0.85819 0.67625 0.0
C2326 C 0.26411 0.86718 0.7634 0.0
C2327 C 0.28298 0.87983 0.76565 0.0
C2328 C 0.2518 0.86836 0.74433 0.0
C2329 C 0.25814 0.88221 0.72723 0.0
C2330 C 0.27586 0.89621 0.73032 0.0
C2331 C 0.2881 0.89508 0.74934 0.0
H2332 H 0.15307 0.54108 0.5601 0.0
H2333 H 0.10855 0.49155 0.58259 0.0
H2334 H 0.15596 0.52243 0.52493 0.0
H2335 H 0.11196 0.47276 0.54765 0.0
H2336 H 0.15326 0.44002 0.48911 0.0
H2337 H 0.15797 0.46186 0.5217 0.0
H2338 H 0.10977 0.50704 0.4986 0.0
H2339 H 0.10454 0.48494 0.46578 0.0
C2340 C 0.1444 0.52592 0.55772 0.0
C2341 C 0.13062 0.51765 0.574 0.0
C2342 C 0.14593 0.51546 0.53762 0.0
C2343 C 0.13403 0.49643 0.53382 0.0
C2344 C 0.12114 0.48756 0.55039 0.0
C2345 C 0.11928 0.4982 0.5703 0.0
C2346 C 0.14402 0.45487 0.49054 0.0
C2347 C 0.12831 0.4606 0.47489 0.0
C2348 C 0.14679 0.46732 0.50924 0.0
C2349 C 0.13422 0.48593 0.51243 0.0
C2350 C 0.11965 0.49268 0.49624 0.0
C2351 C 0.11666 0.48005 0.47756 0.0
H2352 H 0.77665 0.34417 0.81387 0.0
H2353 H 0.75293 0.40868 0.82805 0.0
H2354 H 0.76117 0.34613 0.77787 0.0
H2355 H 0.73601 0.41018 0.79198 0.0
H2356 H 0.72016 0.41252 0.71981 0.0
H2357 H 0.74193 0.41234 0.75321 0.0
H2358 H 0.72714 0.34413 0.76194 0.0
H2359 H 0.70654 0.34421 0.72854 0.0
C2360 C 0.76756 0.3586 0.8095 0.0
C2361 C 0.76556 0.37609 0.82404 0.0
C2362 C 0.75872 0.35975 0.78873 0.0
C2363 C 0.7471 0.3782 0.78201 0.0
C2364 C 0.74507 0.3958 0.79652 0.0
C2365 C 0.75442 0.39483 0.81729 0.0
C2366 C 0.72228 0.39738 0.72855 0.0
C2367 C 0.71171 0.37836 0.7216 0.0
C2368 C 0.73439 0.39735 0.74788 0.0
C2369 C 0.73613 0.37828 0.76045 0.0
C2370 C 0.72647 0.35908 0.75267 0.0
C2371 C 0.71455 0.35911 0.73348 0.0
H2372 H 0.5977 0.02878 0.51562 0.0
H2373 H 0.66776 0.03043 0.51749 0.0
H2374 H 0.59893 0.00871 0.48157 0.0
H2375 H 0.66916 0.01148 0.48268 0.0
H2376 H 0.66165 0.96285 0.42595 0.0
H2377 H 0.66307 0.97988 0.46159 0.0
H2378 H 0.60657 0.01827 0.44526 0.0
H2379 H 0.60459 0.00052 0.41004 0.0
C2380 C 0.61338 0.02446 0.50887 0.0
C2381 C 0.63261 0.03117 0.51907 0.0
C2382 C 0.61412 0.01333 0.48917 0.0
C2383 C 0.63414 0.00913 0.47897 0.0
C2384 C 0.65345 0.01448 0.49001 0.0
C2385 C 0.65269 0.02526 0.51002 0.0
C2386 C 0.64976 0.97522 0.42982 0.0
C2387 C 0.63286 0.98018 0.41524 0.0
C2388 C 0.65055 0.98496 0.45032 0.0
C2389 C 0.6346 4e-05 0.45657 0.0
C2390 C 0.61867 0.00613 0.44133 0.0
C2391 C 0.61771 0.99621 0.42097 0.0
H2392 H 0.25117 0.13603 0.8265 0.0
H2393 H 0.21041 0.0805 0.81261 0.0
H2394 H 0.26847 0.13221 0.79121 0.0
H2395 H 0.22741 0.07702 0.77685 0.0
H2396 H 0.28082 0.07086 0.72147 0.0
H2397 H 0.26103 0.06972 0.75602 0.0
H2398 H 0.25553 0.13973 0.75476 0.0
H2399 H 0.27588 0.14081 0.72087 0.0
C2400 C 0.24612 0.12282 0.816 0.0
C2401 C 0.22927 0.10874 0.82221 0.0
C2402 C 0.25583 0.12077 0.79567 0.0
C2403 C 0.24877 0.10476 0.78096 0.0
C2404 C 0.23305 0.08963 0.78776 0.0
C2405 C 0.22341 0.09157 0.80828 0.0
C2406 C 0.27471 0.08588 0.72828 0.0
C2407 C 0.27994 0.10595 0.71869 0.0
C2408 C 0.26354 0.08525 0.74812 0.0
C2409 C 0.25738 0.10469 0.75844 0.0
C2410 C 0.26075 0.12453 0.7476 0.0
C2411 C 0.27208 0.12516 0.72803 0.0
H2412 H 0.39173 0.46615 0.52079 0.0
H2413 H 0.32177 0.46139 0.51967 0.0
H2414 H 0.391 0.48681 0.48706 0.0
H2415 H 0.32099 0.48145 0.48528 0.0
H2416 H 0.3321 0.53239 0.42919 0.0
H2417 H 0.32849 0.51514 0.46482 0.0
H2418 H 0.38377 0.47439 0.45044 0.0
H2419 H 0.38774 0.49196 0.41528 0.0
C2420 C 0.37615 0.47003 0.51354 0.0
C2421 C 0.35684 0.46213 0.52269 0.0
C2422 C 0.37573 0.48154 0.49407 0.0
C2423 C 0.35599 0.48506 0.48313 0.0
C2424 C 0.33646 0.47884 0.49326 0.0
C2425 C 0.33688 0.4675 0.51301 0.0
C2426 C 0.34317 0.51941 0.43349 0.0
C2427 C 0.3604 0.5137 0.41958 0.0
C2428 C 0.34115 0.50962 0.45393 0.0
C2429 C 0.35625 0.4939 0.46069 0.0
C2430 C 0.37235 0.48702 0.44602 0.0
C2431 C 0.37448 0.49689 0.42575 0.0
H2432 H 0.76924 0.71283 0.64706 0.0
H2433 H 0.77515 0.71883 0.57745 0.0
H2434 H 0.73432 0.73125 0.64585 0.0
H2435 H 0.73957 0.73642 0.57592 0.0
H2436 H 0.68103 0.78251 0.58549 0.0
H2437 H 0.71713 0.76659 0.58424 0.0
H2438 H 0.69884 0.7216 0.6351 0.0
H2439 H 0.66305 0.73831 0.63707 0.0
C2440 C 0.76318 0.71856 0.63153 0.0
C2441 C 0.77486 0.71458 0.61238 0.0
C2442 C 0.74299 0.72872 0.63075 0.0
C2443 C 0.73377 0.73472 0.61072 0.0
C2444 C 0.74614 0.732 0.59164 0.0
C2445 C 0.7666 0.7221 0.59249 0.0
C2446 C 0.68458 0.76897 0.59617 0.0
C2447 C 0.66924 0.7618 0.61156 0.0
C2448 C 0.70534 0.75985 0.59545 0.0
C2449 C 0.71113 0.74316 0.60992 0.0
C2450 C 0.69522 0.73497 0.62423 0.0
C2451 C 0.67458 0.74432 0.62519 0.0
H2452 H 0.67635 0.22707 0.84015 0.0
H2453 H 0.66971 0.23024 0.91008 0.0
H2454 H 0.71168 0.24428 0.84262 0.0
H2455 H 0.70547 0.24752 0.91248 0.0
H2456 H 0.75626 0.30307 0.89961 0.0
H2457 H 0.72322 0.28184 0.9023 0.0
H2458 H 0.74863 0.23624 0.85544 0.0
H2459 H 0.78185 0.25788 0.85235 0.0
C2460 C 0.68232 0.2316 0.85608 0.0
C2461 C 0.6701 0.22731 0.87494 0.0
C2462 C 0.70278 0.24118 0.85749 0.0
C2463 C 0.71157 0.24687 0.87776 0.0
C2464 C 0.69915 0.24321 0.89663 0.0
C2465 C 0.67864 0.23343 0.89524 0.0
C2466 C 0.75514 0.28828 0.8902 0.0
C2467 C 0.77165 0.2824 0.87547 0.0
C2468 C 0.73612 0.27605 0.89182 0.0
C2469 C 0.73315 0.25759 0.87881 0.0
C2470 C 0.75029 0.25072 0.86531 0.0
C2471 C 0.76937 0.26302 0.86363 0.0
H2472 H 0.55951 0.99377 0.34476 0.0
H2473 H 0.50447 0.96227 0.37522 0.0
H2474 H 0.53846 0.02664 0.3402 0.0
H2475 H 0.48326 0.99573 0.37046 0.0
H2476 H 0.45076 0.05924 0.34251 0.0
H2477 H 0.46984 0.02454 0.33824 0.0
H2478 H 0.52437 0.05032 0.3741 0.0
H2479 H 0.50516 0.08473 0.37892 0.0
C2480 C 0.54276 0.9936 0.35006 0.0
C2481 C 0.53376 0.97536 0.3606 0.0
C2482 C 0.53076 0.01254 0.34744 0.0
C2483 C 0.50942 0.01366 0.35513 0.0
C2484 C 0.49975 0.9951 0.36433 0.0
C2485 C 0.51188 0.97604 0.36712 0.0
C2486 C 0.46703 0.05761 0.34905 0.0
C2487 C 0.4766 0.07462 0.36099 0.0
C2488 C 0.47777 0.03775 0.34678 0.0
C2489 C 0.49842 0.03489 0.35593 0.0
C2490 C 0.50844 0.05226 0.36686 0.0
C2491 C 0.49752 0.07189 0.36958 0.0
H2492 H 0.21727 0.21309 0.91795 0.0
H2493 H 0.22188 0.21355 0.84793 0.0
H2494 H 0.25162 0.23304 0.92033 0.0
H2495 H 0.25554 0.23417 0.85019 0.0
H2496 H 0.32676 0.23977 0.85868 0.0
H2497 H 0.29134 0.22241 0.86087 0.0
H2498 H 0.27304 0.26599 0.91278 0.0
H2499 H 0.30896 0.28301 0.911 0.0
C2500 C 0.2252 0.21816 0.90307 0.0
C2501 C 0.21714 0.21153 0.88274 0.0
C2502 C 0.24493 0.22948 0.90444 0.0
C2503 C 0.25666 0.23451 0.88546 0.0
C2504 C 0.24732 0.22981 0.86514 0.0
C2505 C 0.22787 0.21829 0.86381 0.0
C2506 C 0.31535 0.24536 0.87086 0.0
C2507 C 0.32054 0.26286 0.88452 0.0
C2508 C 0.29494 0.23562 0.87194 0.0
C2509 C 0.27911 0.24333 0.8865 0.0
C2510 C 0.28482 0.2598 0.90127 0.0
C2511 C 0.30542 0.26946 0.90033 0.0
H2512 H 0.99038 0.9056 0.87976 0.0
H2513 H 0.04211 0.93196 0.84027 0.0
H2514 H 0.97076 0.94003 0.87688 0.0
H2515 H 0.02272 0.96676 0.83803 0.0
H2516 H 0.98889 0.02771 0.87943 0.0
H2517 H 0.01032 0.99454 0.87348 0.0
H2518 H 0.95521 0.9643 0.84245 0.0
H2519 H 0.93395 -0.00316 0.84817 0.0
C2520 C -0.00271 0.91864 0.87012 0.0
C2521 C 0.01755 0.91616 0.86003 0.0
C2522 C 0.98618 0.93829 0.86857 0.0
C2523 C 0.99543 0.95592 0.85738 0.0
C2524 C 0.01541 0.95333 0.84678 0.0
C2525 C 0.02629 0.93342 0.84785 0.0
C2526 C 0.98154 0.01416 0.87094 0.0
C2527 C 0.95966 0.01495 0.86441 0.0
C2528 C 0.99379 0.99528 0.86746 0.0
C2529 C 0.98423 0.97703 0.85759 0.0
C2530 C 0.96283 0.97822 0.85012 0.0
C2531 C 0.95072 -0.00303 0.85339 0.0
H2532 H 0.80752 0.20402 0.08125 0.0
H2533 H 0.83084 0.25748 0.12032 0.0
H2534 H 0.77134 0.22061 0.08015 0.0
H2535 H 0.79504 0.27417 0.11886 0.0
H2536 H 0.72724 0.27981 0.14269 0.0
H2537 H 0.76169 0.26127 0.13776 0.0
H2538 H 0.74793 0.25331 0.0694 0.0
H2539 H 0.71302 0.27184 0.07438 0.0
C2540 C 0.80513 0.21969 0.08889 0.0
C2541 C 0.82188 0.22937 0.1011 0.0
C2542 C 0.7844 0.22909 0.08838 0.0
C2543 C 0.78025 0.2483 0.1 0.0
C2544 C 0.79761 0.25898 0.11034 0.0
C2545 C 0.81817 0.24957 0.11098 0.0
C2546 C 0.73128 0.27368 0.12668 0.0
C2547 C 0.71753 0.27753 0.10889 0.0
C2548 C 0.75115 0.26329 0.1238 0.0
C2549 C 0.7578 0.25652 0.10305 0.0
C2550 C 0.74329 0.2586 0.08553 0.0
C2551 C 0.72325 0.26905 0.08843 0.0
H2552 H 0.4882 0.92154 0.15903 0.0
H2553 H 0.46238 0.93985 0.09639 0.0
H2554 H 0.50453 0.95779 0.1627 0.0
H2555 H 0.47714 0.97603 0.10056 0.0
H2556 H 0.53263 0.02455 0.09953 0.0
H2557 H 0.51122 0.99169 0.09823 0.0
H2558 H 0.49936 -0.00362 0.16738 0.0
H2559 H 0.52197 0.02924 0.16873 0.0
C2560 C 0.486 0.93334 0.14614 0.0
C2561 C 0.47468 0.92774 0.12715 0.0
C2562 C 0.49504 0.95417 0.14834 0.0
C2563 C 0.49237 0.96982 0.13179 0.0
C2564 C 0.48014 0.96428 0.11332 0.0
C2565 C 0.47171 0.94347 0.1109 0.0
C2566 C 0.52506 0.01887 0.11439 0.0
C2567 C 0.52898 0.02942 0.13421 0.0
C2568 C 0.51266 -1e-05 0.11367 0.0
C2569 C 0.50359 0.99122 0.13274 0.0
C2570 C 0.50639 0.00252 0.15245 0.0
C2571 C 0.51899 0.02153 0.15318 0.0
H2572 H 0.46371 0.468 0.17136 0.0
H2573 H 0.46849 0.46544 0.10147 0.0
H2574 H 0.48128 0.50361 0.1713 0.0
H2575 H 0.4872 0.50032 0.10131 0.0
H2576 H 0.49267 0.57236 0.10242 0.0
H2577 H 0.47628 0.53654 0.10585 0.0
H2578 H 0.51201 0.52586 0.16544 0.0
H2579 H 0.52755 0.56214 0.1625 0.0
C2580 C 0.4694 0.47466 0.15608 0.0
C2581 C 0.4648 0.46405 0.13641 0.0
C2582 C 0.47934 0.49515 0.15599 0.0
C2583 C 0.48514 0.50518 0.13623 0.0
C2584 C 0.48223 0.49352 0.11677 0.0
C2585 C 0.47193 0.47332 0.11684 0.0
C2586 C 0.49666 0.56252 0.11648 0.0
C2587 C 0.51145 0.57004 0.13212 0.0
C2588 C 0.48754 0.54182 0.1183 0.0
C2589 C 0.49331 0.52797 0.1356 0.0
C2590 C 0.50718 0.536 0.1519 0.0
C2591 C 0.51605 0.55687 0.15024 0.0
H2592 H 0.08913 0.04848 0.26883 0.0
H2593 H 0.15648 0.03313 0.28118 0.0
H2594 H 0.086 0.0164 0.24565 0.0
H2595 H 0.15358 0.00169 0.25697 0.0
H2596 H 0.14424 0.9681 0.18974 0.0
H2597 H 0.14435 0.00018 0.21343 0.0
H2598 H 0.09184 0.97262 0.25094 0.0
H2599 H 0.09237 0.9402 0.22792 0.0
C2600 C 0.10311 0.038 0.26702 0.0
C2601 C 0.12303 0.04319 0.27692 0.0
C2602 C 0.10136 0.01985 0.25353 0.0
C2603 C 0.11963 0.00692 0.24938 0.0
C2604 C 0.13938 0.01171 0.25972 0.0
C2605 C 0.14101 0.0296 0.27356 0.0
C2606 C 0.13264 0.96906 0.20295 0.0
C2607 C 0.11843 0.95173 0.20718 0.0
C2608 C 0.13274 0.98728 0.21647 0.0
C2609 C 0.11827 0.98859 0.23406 0.0
C2610 C 0.10313 0.97188 0.23745 0.0
C2611 C 0.10333 0.95348 0.22421 0.0
H2612 H 0.27433 0.60077 0.94047 0.0
H2613 H 0.30249 0.65168 0.9796 0.0
H2614 H 0.24215 0.60052 0.96384 0.0
H2615 H 0.27016 0.65203 0.00261 0.0
H2616 H 0.22468 0.62377 0.05509 0.0
H2617 H 0.25524 0.62714 0.0297 0.0
H2618 H 0.21074 0.62128 0.97558 0.0
H2619 H 0.18052 0.61736 0.00107 0.0
C2620 C 0.2733 0.61225 0.95378 0.0
C2621 C 0.29071 0.62619 0.95838 0.0
C2622 C 0.25495 0.61216 0.96713 0.0
C2623 C 0.25378 0.62609 0.98523 0.0
C2624 C 0.27079 0.64085 0.98904 0.0
C2625 C 0.28912 0.64088 0.97572 0.0
C2626 C 0.22164 0.62319 0.03776 0.0
C2627 C 0.20056 0.62016 0.02984 0.0
C2628 C 0.23898 0.62529 0.02323 0.0
C2629 C 0.23535 0.62452 0.00063 0.0
C2630 C 0.21408 0.62167 0.99286 0.0
C2631 C 0.19684 0.61948 0.00737 0.0
H2632 H 0.83587 0.53149 0.20452 0.0
H2633 H 0.90232 0.54837 0.21959 0.0
H2634 H 0.83852 0.49986 0.22863 0.0
H2635 H 0.90523 0.51625 0.24278 0.0
H2636 H 0.89951 0.44066 0.26297 0.0
H2637 H 0.90009 0.47186 0.23825 0.0
H2638 H 0.84619 0.50021 0.27292 0.0
H2639 H 0.84634 0.46952 0.2984 0.0
C2640 C 0.85114 0.52815 0.21261 0.0
C2641 C 0.86887 0.54232 0.21022 0.0
C2642 C 0.85262 0.51019 0.2264 0.0
C2643 C 0.872 0.50592 0.23763 0.0
C2644 C 0.89015 0.51929 0.23422 0.0
C2645 C 0.88854 0.53749 0.22076 0.0
C2646 C 0.88821 0.45386 0.26567 0.0
C2647 C 0.87279 0.45273 0.28247 0.0
C2648 C 0.88842 0.47154 0.25144 0.0
C2649 C 0.87294 0.48809 0.25357 0.0
C2650 C 0.85804 0.48738 0.27083 0.0
C2651 C 0.85817 0.46995 0.28537 0.0
H2652 H 0.80748 0.83889 0.00666 0.0
H2653 H 0.7791 0.89166 0.04296 0.0
H2654 H 0.77427 0.83593 0.98481 0.0
H2655 H 0.74597 0.88886 0.0212 0.0
H2656 H 0.68341 0.86666 0.99016 0.0
H2657 H 0.71525 0.86325 0.01364 0.0
H2658 H 0.75659 0.8608 0.9569 0.0
H2659 H 0.72442 0.86403 0.9334 0.0
C2660 C 0.79391 0.8495 0.01021 0.0
C2661 C 0.79557 0.86538 0.02647 0.0
C2662 C 0.77509 0.84797 -0.00238 0.0
C2663 C 0.75765 0.86219 0.00131 0.0
C2664 C 0.7591 0.87755 0.01816 0.0
C2665 C 0.77798 0.8792 0.03056 0.0
C2666 C 0.69934 0.86521 0.98281 0.0
C2667 C 0.70174 0.86576 0.96016 0.0
C2668 C 0.71749 0.86331 0.99617 0.0
C2669 C 0.73833 0.86189 0.98706 0.0
C2670 C 0.74064 0.86167 0.9643 0.0
C2671 C 0.72239 0.86362 0.95089 0.0
H2672 H 0.22546 0.08978 0.94236 0.0
H2673 H 0.20515 0.15443 0.96039 0.0
H2674 H 0.2487 0.08805 0.97451 0.0
H2675 H 0.2286 0.15286 0.99244 0.0
H2676 H 0.29167 0.15356 0.03018 0.0
H2677 H 0.26905 0.15227 -0.00246 0.0
H2678 H 0.24691 0.08804 0.01546 0.0
H2679 H 0.26939 0.08949 0.04819 0.0
C2680 C 0.22553 0.10337 0.95353 0.0
C2681 C 0.21346 0.1222 0.94908 0.0
C2682 C 0.23897 0.10245 0.97179 0.0
C2683 C 0.24066 0.12043 0.98573 0.0
C2684 C 0.22792 0.13893 0.98168 0.0
C2685 C 0.21441 0.13979 0.96351 0.0
C2686 C 0.28223 0.13905 0.02687 0.0
C2687 C 0.28225 0.12161 0.04154 0.0
C2688 C 0.26918 0.13837 0.00837 0.0
C2689 C 0.25599 0.12019 0.00422 0.0
C2690 C 0.25698 0.10222 0.01827 0.0
C2691 C 0.26997 0.10296 0.03687 0.0
H2692 H 0.37966 0.55496 0.27191 0.0
H2693 H 0.36393 0.49982 0.31228 0.0
H2694 H 0.37609 0.53207 0.23932 0.0
H2695 H 0.36064 0.47686 0.2799 0.0
H2696 H 0.39285 0.44287 0.21878 0.0
H2697 H 0.39077 0.46524 0.25173 0.0
H2698 H 0.34588 0.50844 0.21944 0.0
H2699 H 0.34768 0.48575 0.18669 0.0
C2700 C 0.37523 0.538 0.27367 0.0
C2701 C 0.37228 0.52891 0.29432 0.0
C2702 C 0.37313 0.52498 0.25517 0.0
C2703 C 0.36824 0.50274 0.25725 0.0
C2704 C 0.36462 0.49391 0.27796 0.0
C2705 C 0.36646 0.50697 0.29637 0.0
C2706 C 0.38227 0.45693 0.219 0.0
C2707 C 0.37023 0.46261 0.20054 0.0
C2708 C 0.38106 0.46967 0.23771 0.0
C2709 C 0.36816 0.4885 0.23799 0.0
C2710 C 0.35595 0.49402 0.21953 0.0
C2711 C 0.35685 0.48103 0.20096 0.0
H2712 H 0.76174 0.39695 0.94097 0.0
H2713 H 0.80601 0.35213 0.97184 0.0
H2714 H 0.73858 0.39635 0.97331 0.0
H2715 H 0.78207 0.35065 0.0038 0.0
H2716 H 0.71002 0.335 0.03358 0.0
H2717 H 0.73417 0.33836 0.00199 0.0
H2718 H 0.74964 0.40416 0.02058 0.0
H2719 H 0.7266 0.40051 0.05272 0.0
C2720 C 0.76668 0.38727 0.95483 0.0
C2721 C 0.78557 0.37451 0.95401 0.0
C2722 C 0.75335 0.3868 0.97314 0.0
C2723 C 0.75857 0.37325 0.99067 0.0
C2724 C 0.77776 0.36101 0.99022 0.0
C2725 C 0.79136 0.36186 0.97207 0.0
C2726 C 0.71856 0.35016 0.03086 0.0
C2727 C 0.71632 0.36755 0.04546 0.0
C2728 C 0.73231 0.35205 0.01291 0.0
C2729 C 0.74366 0.37147 0.00918 0.0
C2730 C 0.7409 0.38909 0.02327 0.0
C2731 C 0.7275 0.38707 0.04143 0.0
H2732 H 0.65137 0.01314 0.1868 0.0
H2733 H 0.59793 0.04646 0.21748 0.0
H2734 H 0.65484 0.98931 0.21855 0.0
H2735 H 0.60145 0.0228 0.24936 0.0
H2736 H 0.62783 0.98961 0.31005 0.0
H2737 H 0.62961 0.01459 0.27915 0.0
H2738 H 0.62925 0.95991 0.23511 0.0
H2739 H 0.62739 0.93489 0.26628 0.0
C2740 C 0.64071 0.0156 0.20058 0.0
C2741 C 0.62456 0.03166 0.20002 0.0
C2742 C 0.64254 0.00189 0.21856 0.0
C2743 C 0.62841 0.00427 0.23629 0.0
C2744 C 0.61266 0.0208 0.23593 0.0
C2745 C 0.61063 0.03428 0.21781 0.0
C2746 C 0.6284 0.98303 0.29372 0.0
C2747 C 0.62745 0.96053 0.29028 0.0
C2748 C 0.62933 -0.00276 0.27614 0.0
C2749 C 0.62945 0.98912 0.25485 0.0
C2750 C 0.62934 0.9665 0.25143 0.0
C2751 C 0.62825 0.95224 0.26912 0.0
H2752 H 0.29756 0.84255 0.4678 0.0
H2753 H 0.26759 0.89938 0.43962 0.0
H2754 H 0.27217 0.84454 0.49862 0.0
H2755 H 0.24269 0.9016 0.47062 0.0
H2756 H 0.23148 0.89384 0.55444 0.0
H2757 H 0.25756 0.89521 0.52442 0.0
H2758 H 0.21737 0.85121 0.48749 0.0
H2759 H 0.19078 0.85023 0.5174 0.0
C2760 C 0.2859 0.85571 0.46852 0.0
C2761 C 0.28448 0.87085 0.45151 0.0
C2762 C 0.27141 0.85676 0.48595 0.0
C2763 C 0.25557 0.87309 0.4866 0.0
C2764 C 0.25484 0.88887 0.47023 0.0
C2765 C 0.26919 0.88773 0.45273 0.0
C2766 C 0.22798 0.88485 0.53971 0.0
C2767 C 0.20914 0.87202 0.53804 0.0
C2768 C 0.24294 0.88551 0.52273 0.0
C2769 C 0.23932 0.87322 0.50397 0.0
C2770 C 0.22033 0.86072 0.50201 0.0
C2771 C 0.20524 0.86018 0.51897 0.0
H2772 H 0.14254 0.48326 0.80763 0.0
H2773 H 0.10401 0.43689 0.77184 0.0
H2774 H 0.14454 0.50668 0.77551 0.0
H2775 H 0.10607 0.46024 0.73948 0.0
H2776 H 0.1318 0.49988 0.68143 0.0
H2777 H 0.13453 0.47559 0.71293 0.0
H2778 H 0.11546 0.52841 0.75505 0.0
H2779 H 0.11267 0.55258 0.72339 0.0
C2780 C 0.13486 0.47799 0.79268 0.0
C2781 C 0.12325 0.45838 0.79191 0.0
C2782 C 0.13585 0.49139 0.77445 0.0
C2783 C 0.1254 0.48525 0.75513 0.0
C2784 C 0.1144 0.46522 0.75418 0.0
C2785 C 0.11319 0.45191 0.77255 0.0
C2786 C 0.12845 0.50621 0.69752 0.0
C2787 C 0.12207 0.52789 0.70028 0.0
C2788 C 0.12988 0.49238 0.71542 0.0
C2789 C 0.12514 0.50016 0.73632 0.0
C2790 C 0.11937 0.52211 0.73909 0.0
C2791 C 0.11775 0.53588 0.72111 0.0
H2792 H 0.68972 0.64704 0.4679 0.0
H2793 H 0.72504 0.59236 0.44208 0.0
H2794 H 0.7108 0.64485 0.50155 0.0
H2795 H 0.74586 0.58973 0.47585 0.0
H2796 H 0.79772 0.61425 0.52521 0.0
H2797 H 0.77425 0.61191 0.49307 0.0
H2798 H 0.71791 0.62257 0.53364 0.0
H2799 H 0.74153 0.62526 0.56552 0.0
C2800 C 0.70175 0.63432 0.46968 0.0
C2801 C 0.7059 0.61993 0.45255 0.0
C2802 C 0.71375 0.63298 0.48891 0.0
C2803 C 0.73012 0.6172 0.49128 0.0
C2804 C 0.73358 0.60224 0.47438 0.0
C2805 C 0.72154 0.60357 0.45519 0.0
C2806 C 0.7803 0.61591 0.52711 0.0
C2807 C 0.77129 0.62011 0.54757 0.0
C2808 C 0.76686 0.61446 0.50883 0.0
C2809 C 0.74422 0.61714 0.51083 0.0
C2810 C 0.73529 0.62076 0.53153 0.0
C2811 C 0.74872 0.62222 0.54973 0.0
H2812 H 0.88448 0.0536 0.76862 0.0
H2813 H 0.85041 0.00708 0.80858 0.0
H2814 H 0.88024 0.02944 0.73705 0.0
H2815 H 0.84632 0.98288 0.77729 0.0
H2816 H 0.87528 0.93734 0.72272 0.0
H2817 H 0.87468 0.96175 0.75429 0.0
H2818 H 0.84851 0.01299 0.71404 0.0
H2819 H 0.84892 0.98846 0.68267 0.0
C2820 C 0.87589 0.03832 0.77046 0.0
C2821 C 0.86763 0.03206 0.79071 0.0
C2822 C 0.87343 0.02458 0.75255 0.0
C2823 C 0.86297 0.00436 0.75489 0.0
C2824 C 0.85452 -0.00167 0.77517 0.0
C2825 C 0.85675 0.01215 0.79294 0.0
C2826 C 0.86892 0.95366 0.72091 0.0
C2827 C 0.86187 0.96113 0.70062 0.0
C2828 C 0.86863 0.96759 0.73881 0.0
C2829 C 0.86163 0.9892 0.73643 0.0
C2830 C 0.8541 -0.00357 0.71617 0.0
C2831 C 0.85412 0.98243 0.69839 0.0
H2832 H 0.94484 0.22214 0.08704 0.0
H2833 H 0.96152 0.20055 0.15166 0.0
H2834 H 0.97763 0.24457 0.08594 0.0
H2835 H 0.99435 0.223 0.15067 0.0
H2836 H 0.03077 0.28717 0.15357 0.0
H2837 H -0.00093 0.26331 0.15132 0.0
H2838 H 0.01832 0.24385 0.08666 0.0
H2839 H 0.05009 0.26763 0.08905 0.0
C2840 C 0.95592 0.22169 0.10071 0.0
C2841 C 0.9508 0.20974 0.11945 0.0
C2842 C 0.97457 0.23462 0.10015 0.0
C2843 C 0.98825 0.23583 0.11838 0.0
C2844 C 0.98379 0.22273 0.13658 0.0
C2845 C 0.96522 0.20974 0.13708 0.0
C2846 C 0.02798 0.27801 0.13879 0.0
C2847 C 0.04269 0.27926 0.12145 0.0
C2848 C 0.01003 0.26422 0.13757 0.0
C2849 C 0.0065 0.25146 0.11895 0.0
C2850 C 0.02066 0.25354 0.10117 0.0
C2851 C 0.03869 0.26729 0.10244 0.0
H2852 H 0.97823 0.80792 0.35869 0.0
H2853 H 0.93631 0.75971 0.38764 0.0
H2854 H 0.00852 0.78189 0.35939 0.0
H2855 H 0.96631 0.73364 0.38815 0.0
H2856 H 0.01769 0.68828 0.35477 0.0
H2857 H 0.9878 0.71465 0.35732 0.0
H2858 H 0.03109 0.76067 0.38802 0.0
H2859 H 0.06072 0.73425 0.38562 0.0
C2860 C 0.97572 0.79188 0.36552 0.0
C2861 C 0.95526 0.7857 0.37333 0.0
C2862 C 0.99289 0.77703 0.36589 0.0
C2863 C 0.9896 0.75579 0.37371 0.0
C2864 C 0.96916 0.74986 0.38188 0.0
C2865 C 0.95214 0.76476 0.38178 0.0
C2866 C 0.02057 0.70396 0.36227 0.0
C2867 C 0.04119 0.70938 0.37019 0.0
C2868 C 0.00362 0.71897 0.36374 0.0
C2869 C 0.00726 0.73964 0.37285 0.0
C2870 C 0.02795 0.74491 0.38082 0.0
C2871 C 0.04477 0.72983 0.37959 0.0
H2872 H 0.05189 0.76823 0.88581 0.0
H2873 H 0.0043 0.81178 0.85855 0.0
H2874 H 0.02669 0.73762 0.88088 0.0
H2875 H 0.97901 0.78135 0.85363 0.0
H2876 H 0.93402 0.72533 0.88107 0.0
H2877 H 0.95873 0.75667 0.88032 0.0
H2878 H 0.00803 0.71698 0.85001 0.0
H2879 H 0.98327 0.68582 0.85077 0.0
C2880 C 0.03609 0.77108 0.87859 0.0
C2881 C 0.02979 0.79206 0.87257 0.0
C2882 C 0.02176 0.7537 0.87568 0.0
C2883 C 0.00094 0.75723 0.8669 0.0
C2884 C 0.99489 0.77828 0.86058 0.0
C2885 C 0.00928 0.79557 0.8633 0.0
C2886 C 0.94998 0.72359 0.87385 0.0
C2887 C 0.95687 0.70344 0.86586 0.0
C2888 C 0.96408 0.74139 0.87341 0.0
C2889 C 0.98529 0.73911 0.86523 0.0
C2890 C 0.99183 0.71907 0.85657 0.0
C2891 C 0.97767 0.70137 0.85682 0.0
H2892 H 0.44202 0.21934 0.39639 0.0
H2893 H 0.47992 0.18739 0.3469 0.0
H2894 H 0.46434 0.25218 0.39226 0.0
H2895 H 0.50266 0.22 0.34309 0.0
H2896 H 0.55262 0.27139 0.3748 0.0
H2897 H 0.52916 0.2391 0.37191 0.0
H2898 H 0.47361 0.28053 0.36101 0.0
H2899 H 0.49712 0.3126 0.36355 0.0
C2900 C 0.45491 0.2196 0.38439 0.0
C2901 C 0.45925 0.20123 0.37174 0.0
C2902 C 0.46764 0.23824 0.38204 0.0
C2903 C 0.48513 0.23847 0.36736 0.0
C2904 C 0.48924 0.22012 0.35449 0.0
C2905 C 0.47623 0.20164 0.35655 0.0
C2906 C 0.53547 0.2734 0.37139 0.0
C2907 C 0.52644 0.29419 0.3696 0.0
C2908 C 0.52212 0.25508 0.3697 0.0
C2909 C 0.49964 0.2575 0.36641 0.0
C2910 C 0.49087 0.27835 0.36374 0.0
C2911 C 0.50423 0.29657 0.36514 0.0
H2912 H 0.47112 0.69096 0.62699 0.0
H2913 H 0.42822 0.74417 0.61168 0.0
H2914 H 0.50266 0.71462 0.6205 0.0
H2915 H 0.45958 0.76792 0.60541 0.0
H2916 H 0.52142 0.80453 0.634 0.0
H2917 H 0.48834 0.78232 0.63233 0.0
H2918 H 0.52095 0.73696 0.58988 0.0
H2919 H 0.55389 0.75934 0.59147 0.0
C2920 C 0.46856 0.70765 0.622 0.0
C2921 C 0.44752 0.71601 0.6201 0.0
C2922 C 0.48647 0.72112 0.6182 0.0
C2923 C 0.48344 0.74309 0.61258 0.0
C2924 C 0.46229 0.75112 0.60992 0.0
C2925 C 0.44446 0.73761 0.61348 0.0
C2926 C 0.52118 0.79013 0.62386 0.0
C2927 C 0.53991 0.78354 0.61277 0.0
C2928 C 0.50238 0.77745 0.62291 0.0
C2929 C 0.50225 0.7579 0.61108 0.0
C2930 C 0.52076 0.75188 0.59921 0.0
C2931 C 0.53944 0.76471 0.59996 0.0
H2932 H 0.94667 0.28192 0.58916 0.0
H2933 H 0.97265 0.30068 0.65153 0.0
H2934 H 0.96769 0.24817 0.59053 0.0
H2935 H 0.99382 0.26703 0.65292 0.0
H2936 H 0.0508 0.22358 0.62607 0.0
H2937 H 0.02611 0.25475 0.62905 0.0
H2938 H 0.97181 0.21317 0.61299 0.0
H2939 H -0.00353 0.18211 0.6103 0.0
C2940 C 0.9565 0.27848 0.60336 0.0
C2941 C 0.95803 0.2936 0.62031 0.0
C2942 C 0.9685 0.25928 0.60416 0.0
C2943 C 0.98245 0.25518 0.62176 0.0
C2944 C 0.98328 0.26996 0.63912 0.0
C2945 C 0.97103 0.289 0.63846 0.0
C2946 C 0.03357 0.22123 0.62331 0.0
C2947 C 0.02542 0.20073 0.61772 0.0
C2948 C 0.01947 0.23891 0.62513 0.0
C2949 C -0.0029 0.23625 0.62125 0.0
C2950 C 0.989 0.21562 0.61589 0.0
C2951 C 0.00305 0.19797 0.61429 0.0
H2952 H 0.65318 0.45939 0.70262 0.0
H2953 H 0.58911 0.44215 0.72548 0.0
H2954 H 0.65236 0.49223 0.72498 0.0
H2955 H 0.58809 0.47516 0.74753 0.0
H2956 H 0.59077 0.54862 0.76758 0.0
H2957 H 0.58882 0.51647 0.74441 0.0
H2958 H 0.65274 0.49721 0.76602 0.0
H2959 H 0.65447 0.52918 0.78959 0.0
C2960 C 0.6388 0.46288 0.71215 0.0
C2961 C 0.62122 0.44836 0.71239 0.0
C2962 C 0.63838 0.48151 0.725 0.0
C2963 C 0.62029 0.48597 0.73817 0.0
C2964 C 0.60219 0.47207 0.73746 0.0
C2965 C 0.6027 0.45332 0.72473 0.0
C2966 C 0.60412 0.53719 0.76785 0.0
C2967 C 0.62273 0.54121 0.78042 0.0
C2968 C 0.60308 0.51893 0.75444 0.0
C2969 C 0.62074 0.5046 0.75325 0.0
C2970 C 0.63907 0.50828 0.76637 0.0
C2971 C 0.64002 0.52642 0.77991 0.0
H2972 H 0.6853 0.13833 0.5051 0.0
H2973 H 0.72099 0.10303 0.55396 0.0
H2974 H 0.71847 0.14216 0.48334 0.0
H2975 H 0.75433 0.10691 0.53237 0.0
H2976 H 0.81294 0.13418 0.49561 0.0
H2977 H 0.77999 0.13627 0.51791 0.0
H2978 H 0.74181 0.11427 0.4632 0.0
H2979 H 0.77492 0.11216 0.44102 0.0
C2980 C 0.70042 0.13172 0.51123 0.0
C2981 C 0.70089 0.12042 0.53102 0.0
C2982 C 0.71926 0.13377 0.49881 0.0
C2983 C 0.73887 0.12475 0.50617 0.0
C2984 C 0.73943 0.11416 0.52644 0.0
C2985 C 0.72048 0.11189 0.53874 0.0
C2986 C 0.79739 0.13005 0.48842 0.0
C2987 C 0.79619 0.12294 0.46682 0.0
C2988 C 0.77866 0.13114 0.50112 0.0
C2989 C 0.75844 0.12534 0.49227 0.0
C2990 C 0.7572 0.119 0.47033 0.0
C2991 C 0.77602 0.11772 0.45769 0.0
H2992 H 0.39002 0.93604 0.75662 0.0
H2993 H 0.3662 0.97814 0.80729 0.0
H2994 H 0.39242 0.96704 0.73172 0.0
H2995 H 0.36897 0.00941 0.78248 0.0
H2996 H 0.39636 0.06118 0.7347 0.0
H2997 H 0.40026 0.02995 0.75922 0.0
H2998 H 0.35953 0.99167 0.71672 0.0
H2999 H 0.35522 0.02316 0.69254 0.0
C3000 C 0.3858 0.9521 0.76247 0.0
C3001 C 0.37812 0.95502 0.78372 0.0
C3002 C 0.38705 0.96969 0.74828 0.0
C3003 C 0.38088 0.99044 0.7553 0.0
C3004 C 0.37401 0.99351 0.77687 0.0
C3005 C 0.37244 0.97579 0.791 0.0
C3006 C 0.38867 0.0459 0.73049 0.0
C3007 C 0.37573 0.04421 0.71181 0.0
C3008 C 0.39074 0.02821 0.7445 0.0
C3009 C 0.38019 0.00858 0.73974 0.0
C3010 C 0.36795 0.00667 0.72055 0.0
C3011 C 0.36551 0.02452 0.70676 0.0
H3012 H 0.30408 0.33808 0.51498 0.0
H3013 H 0.27772 0.39718 0.54185 0.0
H3014 H 0.27135 0.33343 0.49276 0.0
H3015 H 0.24492 0.39256 0.51976 0.0
H3016 H 0.18202 0.36776 0.49094 0.0
H3017 H 0.21313 0.36588 0.51559 0.0
H3018 H 0.2558 0.35609 0.46071 0.0
H3019 H 0.22443 0.35809 0.436 0.0
C3020 C 0.29101 0.34976 0.51645 0.0
C3021 C 0.29311 0.36785 0.53017 0.0
C3022 C 0.27247 0.34723 0.50364 0.0
C3023 C 0.25571 0.36263 0.5046 0.0
C3024 C 0.25756 0.38034 0.51891 0.0
C3025 C 0.27623 0.38302 0.53148 0.0
C3026 C 0.19806 0.36488 0.48427 0.0
C3027 C 0.2011 0.36316 0.46175 0.0
C3028 C 0.21577 0.36389 0.49829 0.0
C3029 C 0.23678 0.361 0.48998 0.0
C3030 C 0.23968 0.35817 0.46747 0.0
C3031 C 0.22188 0.35933 0.45338 0.0
H3032 H 0.52026 0.18895 0.87788 0.0
H3033 H 0.56063 0.24393 0.86143 0.0
H3034 H 0.48857 0.21303 0.88037 0.0
H3035 H 0.52917 0.26801 0.8639 0.0
H3036 H 0.46144 0.2939 0.84108 0.0
H3037 H 0.49489 0.27244 0.84206 0.0
H3038 H 0.47503 0.24434 0.90333 0.0
H3039 H 0.44154 0.26564 0.90215 0.0
C3040 C 0.52224 0.2062 0.8749 0.0
C3041 C 0.54256 0.21473 0.86925 0.0
C3042 C 0.50428 0.21995 0.87644 0.0
C3043 C 0.50652 0.24233 0.87229 0.0
C3044 C 0.527 0.2508 0.86694 0.0
C3045 C 0.54491 0.23709 0.86551 0.0
C3046 C 0.46452 0.28341 0.85489 0.0
C3047 C 0.4492 0.28142 0.8716 0.0
C3048 C 0.48357 0.2712 0.85549 0.0
C3049 C 0.48738 0.25668 0.87272 0.0
C3050 C 0.47233 0.25528 0.88979 0.0
C3051 C 0.45337 0.26763 0.88927 0.0
H3052 H 0.49509 0.6809 0.11501 0.0
H3053 H 0.55329 0.71814 0.12698 0.0
H3054 H 0.47333 0.71408 0.11667 0.0
H3055 H 0.53156 0.75155 0.12865 0.0
H3056 H 0.4826 0.80335 0.14994 0.0
H3057 H 0.50259 0.76902 0.15156 0.0
H3058 H 0.46963 0.74725 0.09348 0.0
H3059 H 0.44952 0.78153 0.09208 0.0
C3060 C 0.50315 0.69629 0.118 0.0
C3061 C 0.52576 0.69721 0.12066 0.0
C3062 C 0.49076 0.71521 0.11891 0.0
C3063 C 0.50078 0.73537 0.12269 0.0
C3064 C 0.52341 0.73618 0.1259 0.0
C3065 C 0.53583 0.7172 0.12487 0.0
C3066 C 0.47939 0.791 0.1378 0.0
C3067 C 0.46452 0.79486 0.12096 0.0
C3068 C 0.49097 0.77153 0.13858 0.0
C3069 C 0.48772 0.75555 0.1226 0.0
C3070 C 0.47233 0.75922 0.10611 0.0
C3071 C 0.4609 0.77878 0.10524 0.0
H3072 H 0.10785 0.15517 0.3744 0.0
H3073 H 0.16893 0.17036 0.34306 0.0
H3074 H 0.10833 0.19055 0.39208 0.0
H3075 H 0.16903 0.2059 0.36033 0.0
H3076 H 0.16524 0.2652 0.40756 0.0
H3077 H 0.16996 0.22815 0.39353 0.0
H3078 H 0.10194 0.22643 0.37601 0.0
H3079 H 0.0974 0.26319 0.39033 0.0
C3080 C 0.12165 0.16578 0.3717 0.0
C3081 C 0.13809 0.16005 0.35694 0.0
C3082 C 0.12178 0.18619 0.3816 0.0
C3083 C 0.13832 0.20128 0.37695 0.0
C3084 C 0.15595 0.1947 0.36407 0.0
C3085 C 0.15589 0.17423 0.35424 0.0
C3086 C 0.15153 0.25694 0.40018 0.0
C3087 C 0.13105 0.26687 0.39965 0.0
C3088 C 0.15415 0.23577 0.39233 0.0
C3089 C 0.13621 0.2242 0.38412 0.0
C3090 C 0.11594 0.2347 0.38276 0.0
C3091 C 0.11338 0.25582 0.39055 0.0
H3092 H 0.41724 0.57353 0.89915 0.0
H3093 H 0.41058 0.63855 0.87316 0.0
H3094 H 0.45243 0.57012 0.88111 0.0
H3095 H 0.44573 0.63502 0.8554 0.0
H3096 H 0.52019 0.63346 0.8584 0.0
H3097 H 0.48363 0.63271 0.87401 0.0
H3098 H 0.47133 0.57103 0.84289 0.0
H3099 H 0.50791 0.57191 0.82708 0.0
C3100 C 0.42292 0.58686 0.88912 0.0
C3101 C 0.41118 0.60647 0.88791 0.0
C3102 C 0.44314 0.58491 0.87891 0.0
C3103 C 0.45198 0.60255 0.86742 0.0
C3104 C 0.43947 0.6214 0.86466 0.0
C3105 C 0.41922 0.6233 0.87466 0.0
C3106 C 0.50985 0.61954 0.85532 0.0
C3107 C 0.51681 0.60268 0.8417 0.0
C3108 C 0.48887 0.61924 0.86397 0.0
C3109 C 0.47462 0.60195 0.85935 0.0
C3110 C 0.48199 0.58456 0.84661 0.0
C3111 C 0.50284 0.58506 0.83762 0.0
H3112 H 0.8911 0.33203 0.36908 0.0
H3113 H 0.82189 0.33192 0.35668 0.0
H3114 H 0.88815 0.29611 0.38529 0.0
H3115 H 0.81909 0.2959 0.37328 0.0
H3116 H 0.82744 0.23845 0.42508 0.0
H3117 H 0.82577 0.27507 0.4096 0.0
H3118 H 0.87915 0.25938 0.36691 0.0
H3119 H 0.88085 0.22283 0.3824 0.0
C3120 C 0.87515 0.32466 0.3703 0.0
C3121 C 0.85679 0.33485 0.36125 0.0
C3122 C 0.87355 0.30393 0.37935 0.0
C3123 C 0.85352 0.29302 0.37993 0.0
C3124 C 0.83478 0.30389 0.37279 0.0
C3125 C 0.8364 0.32461 0.36345 0.0
C3126 C 0.83851 0.24273 0.41207 0.0
C3127 C 0.85424 0.22781 0.40487 0.0
C3128 C 0.83754 0.26365 0.40324 0.0
C3129 C 0.85257 0.27013 0.38737 0.0
C3130 C 0.86758 0.25485 0.3794 0.0
C3131 C 0.86836 0.23384 0.38802 0.0
H3132 H 0.48539 0.91849 0.82589 0.0
H3133 H 0.47279 0.85991 0.86238 0.0
H3134 H 0.52169 0.92099 0.84215 0.0
H3135 H 0.50924 0.86213 0.87832 0.0
H3136 H 0.58269 0.85508 0.87282 0.0
H3137 H 0.5467 0.85831 0.85676 0.0
H3138 H 0.54139 0.92382 0.8811 0.0
H3139 H 0.57741 0.9207 0.89757 0.0
C3140 C 0.49029 0.90645 0.83778 0.0
C3141 C 0.47646 0.88902 0.84299 0.0
C3142 C 0.51098 0.90787 0.84699 0.0
C3143 C 0.51828 0.89154 0.86109 0.0
C3144 C 0.50398 0.87476 0.86722 0.0
C3145 C 0.48311 0.87361 0.85836 0.0
C3146 C 0.57417 0.8704 0.87437 0.0
C3147 C 0.58285 0.88748 0.88684 0.0
C3148 C 0.55345 0.87212 0.86538 0.0
C3149 C 0.54114 0.89105 0.86833 0.0
C3150 C 0.55054 0.90895 0.87888 0.0
C3151 C 0.57124 0.90718 0.88813 0.0
H3152 H 0.17064 0.8261 0.14319 0.0
H3153 H 0.10288 0.82937 0.12472 0.0
H3154 H 0.17374 0.79097 0.12472 0.0
H3155 H 0.10608 0.79428 0.10683 0.0
H3156 H 0.11214 0.72002 0.10937 0.0
H3157 H 0.11437 0.75579 0.12662 0.0
H3158 H 0.16709 0.77346 0.08386 0.0
H3159 H 0.16463 0.73772 0.0663 0.0
C3160 C 0.15657 0.81967 0.13478 0.0
C3161 C 0.13642 0.83051 0.13569 0.0
C3162 C 0.15835 0.7995 0.12436 0.0
C3163 C 0.13999 0.78979 0.11492 0.0
C3164 C 0.12034 0.80129 0.11444 0.0
C3165 C 0.11861 0.82149 0.12453 0.0
C3166 C 0.12454 0.73132 0.10403 0.0
C3167 C 0.13822 0.72617 0.08655 0.0
C3168 C 0.12568 0.75182 0.11372 0.0
C3169 C 0.14074 0.76737 0.10633 0.0
C3170 C 0.15533 0.76175 0.08977 0.0
C3171 C 0.15389 0.74138 0.07977 0.0
H3172 H 0.98474 0.57632 0.16648 0.0
H3173 H 0.96692 0.63193 0.12757 0.0
H3174 H 0.02076 0.57614 0.14973 0.0
H3175 H 0.00279 0.6321 0.11119 0.0
H3176 H 0.06163 0.61666 0.07183 0.0
H3177 H 0.02555 0.61253 0.08721 0.0
H3178 H 0.05402 0.59755 0.14976 0.0
H3179 H 0.09057 0.60085 0.13369 0.0
C3180 C 0.98847 0.58832 0.15412 0.0
C3181 C 0.97295 0.6039 0.14801 0.0
C3182 C 0.00913 0.58835 0.14472 0.0
C3183 C 0.01469 0.60414 0.12919 0.0
C3184 C -0.00106 0.61944 0.12281 0.0
C3185 C 0.97827 0.61928 0.13207 0.0
C3186 C 0.06011 0.61257 0.08891 0.0
C3187 C 0.07862 0.60946 0.10179 0.0
C3188 C 0.03948 0.61025 0.09774 0.0
C3189 C 0.03687 0.60504 0.11978 0.0
C3190 C 0.05552 0.60149 0.13267 0.0
C3191 C 0.07637 0.60359 0.12366 0.0
H3192 H 0.89751 0.75327 0.07893 0.0
H3193 H 0.8327 0.77358 0.09586 0.0
H3194 H 0.89078 0.71778 0.09479 0.0
H3195 H 0.82515 0.73746 0.11071 0.0
H3196 H 0.82998 0.67882 0.15738 0.0
H3197 H 0.83153 0.71334 0.13863 0.0
H3198 H 0.8736 0.68499 0.08999 0.0
H3199 H 0.87335 0.65075 0.10992 0.0
C3200 C 0.88176 0.75001 0.08611 0.0
C3201 C 0.86572 0.76613 0.08649 0.0
C3202 C 0.8777 0.72952 0.09488 0.0
C3203 C 0.85722 0.72438 0.10372 0.0
C3204 C 0.84119 0.74075 0.10426 0.0
C3205 C 0.84548 0.7615 0.09586 0.0
C3206 C 0.83913 0.67975 0.14236 0.0
C3207 C 0.85179 0.66209 0.13527 0.0
C3208 C 0.84003 0.69969 0.13155 0.0
C3209 C 0.85321 0.70232 0.11306 0.0
C3210 C 0.86399 0.68391 0.10469 0.0
C3211 C 0.86357 0.66411 0.11586 0.0
H3212 H 0.89979 0.86582 0.13038 0.0
H3213 H 0.9217 0.91847 0.0894 0.0
H3214 H 0.93453 0.86635 0.14942 0.0
H3215 H 0.9568 0.91794 0.10707 0.0
H3216 H 0.01803 0.91642 0.14908 0.0
H3217 H 0.98115 0.92238 0.13541 0.0
H3218 H 0.96857 0.85328 0.14038 0.0
H3219 H 0.00483 0.84792 0.15517 0.0
C3220 C 0.91183 0.87786 0.12583 0.0
C3221 C 0.90804 0.89198 0.10836 0.0
C3222 C 0.93194 0.8779 0.13639 0.0
C3223 C 0.94889 0.8916 0.12923 0.0
C3224 C 0.9443 0.90711 0.1131 0.0
C3225 C 0.924 0.90748 0.10298 0.0
C3226 C 0.00733 0.9026 0.14683 0.0
C3227 C 0.01408 0.88172 0.15286 0.0
C3228 C 0.98618 0.90595 0.13913 0.0
C3229 C 0.97156 0.88839 0.13718 0.0
C3230 C 0.97896 0.86735 0.14236 0.0
C3231 C -0.00012 0.86413 0.15038 0.0
H3232 H 0.3717 0.11785 0.27821 0.0
H3233 H 0.42532 0.15719 0.25533 0.0
H3234 H 0.35447 0.12094 0.24262 0.0
H3235 H 0.40841 0.15929 0.21946 0.0
H3236 H 0.37924 0.12277 0.15487 0.0
H3237 H 0.39768 0.12556 0.19033 0.0
H3238 H 0.34072 0.15585 0.21764 0.0
H3239 H 0.32276 0.15398 0.18245 0.0
C3240 C 0.37957 0.1276 0.26589 0.0
C3241 C 0.39973 0.13758 0.2698 0.0
C3242 C 0.36983 0.1291 0.24542 0.0
C3243 C 0.38028 0.14023 0.22842 0.0
C3244 C 0.40022 0.15045 0.23232 0.0
C3245 C 0.40978 0.14926 0.25285 0.0
C3246 C 0.37098 0.13052 0.16834 0.0
C3247 C 0.34975 0.13842 0.16585 0.0
C3248 C 0.38143 0.13206 0.18853 0.0
C3249 C 0.37044 0.14079 0.20657 0.0
C3250 C 0.34945 0.14906 0.20394 0.0
C3251 C 0.33932 0.14816 0.18373 0.0
H3252 H 0.42218 0.38669 0.08144 0.0
H3253 H 0.35302 0.3739 0.08168 0.0
H3254 H 0.42498 0.36988 0.04555 0.0
H3255 H 0.35598 0.35746 0.0459 0.0
H3256 H 0.36301 0.36093 0.97266 0.0
H3257 H 0.36494 0.3763 0.00922 0.0
H3258 H 0.41822 0.33344 0.02472 0.0
H3259 H 0.41636 0.31809 0.98806 0.0
C3260 C 0.4077 0.37976 0.07421 0.0
C3261 C 0.3873 0.38197 0.08439 0.0
C3262 C 0.40932 0.37031 0.05357 0.0
C3263 C 0.39058 0.36305 0.04275 0.0
C3264 C 0.37058 0.36351 0.05368 0.0
C3265 C 0.36897 0.37269 0.07434 0.0
C3266 C 0.37554 0.35525 0.98362 0.0
C3267 C 0.38957 0.33837 0.97754 0.0
C3268 C 0.37644 0.3638 0.00464 0.0
C3269 C 0.39147 0.35572 0.01986 0.0
C3270 C 0.40643 0.33986 0.01333 0.0
C3271 C 0.40535 0.33111 0.9924 0.0
H3272 H 0.60883 0.383 0.27016 0.0
H3273 H 0.57002 0.32585 0.25778 0.0
H3274 H 0.62389 0.38067 0.23339 0.0
H3275 H 0.58516 0.32341 0.22106 0.0
H3276 H 0.63919 0.31918 0.16552 0.0
H3277 H 0.62181 0.31784 0.20118 0.0
H3278 H 0.60561 0.38583 0.19584 0.0
H3279 H 0.62268 0.38731 0.16021 0.0
C3280 C 0.60396 0.36965 0.25977 0.0
C3281 C 0.58837 0.35455 0.26675 0.0
C3282 C 0.61231 0.36848 0.23866 0.0
C3283 C 0.60538 0.35205 0.22431 0.0
C3284 C 0.59069 0.33627 0.23175 0.0
C3285 C 0.58208 0.33766 0.25271 0.0
C3286 C 0.63131 0.3337 0.17158 0.0
C3287 C 0.63267 0.35345 0.16006 0.0
C3288 C 0.62152 0.33293 0.1921 0.0
C3289 C 0.61301 0.3519 0.20148 0.0
C3290 C 0.61261 0.37112 0.18919 0.0
C3291 C 0.62216 0.37185 0.16863 0.0
H3292 H 0.5723 0.10093 0.07664 0.0
H3293 H 0.63824 0.12444 0.08344 0.0
H3294 H 0.57003 0.11801 0.04088 0.0
H3295 H 0.63583 0.14128 0.0477 0.0
H3296 H 0.63478 0.13782 0.97329 0.0
H3297 H 0.63302 0.1222 0.00991 0.0
H3298 H 0.57254 0.15575 0.02144 0.0
H3299 H 0.57458 0.17169 0.98495 0.0
C3300 C 0.58609 0.11024 0.07086 0.0
C3301 C 0.60558 0.11103 0.08287 0.0
C3302 C 0.58479 0.11987 0.05029 0.0
C3303 C 0.60297 0.13038 0.04135 0.0
C3304 C 0.62178 0.13275 0.05404 0.0
C3305 C 0.62303 0.12333 0.07465 0.0
C3306 C 0.6209 0.14142 0.9835 0.0
C3307 C 0.60479 0.15585 0.97644 0.0
C3308 C 0.62002 0.13274 0.00449 0.0
C3309 C 0.60282 0.13811 0.01856 0.0
C3310 C 0.58601 0.15148 0.01095 0.0
C3311 C 0.58715 0.16052 0.99014 0.0
H3312 H 0.32515 0.84377 0.31024 0.0
H3313 H 0.38534 0.86204 0.34136 0.0
H3314 H 0.34329 0.843 0.27504 0.0
H3315 H 0.40386 0.86048 0.30588 0.0
H3316 H 0.43013 0.83597 0.23912 0.0
H3317 H 0.41211 0.83203 0.27433 0.0
H3318 H 0.36089 0.87474 0.25275 0.0
H3319 H 0.37912 0.8792 0.21778 0.0
C3320 C 0.34247 0.84696 0.30959 0.0
C3321 C 0.35401 0.85266 0.32847 0.0
C3322 C 0.35275 0.84672 0.28943 0.0
C3323 C 0.37489 0.85172 0.28782 0.0
C3324 C 0.38674 0.85649 0.30681 0.0
C3325 C 0.37625 0.85736 0.32702 0.0
C3326 C 0.41493 0.8444 0.24184 0.0
C3327 C 0.40589 0.85768 0.22557 0.0
C3328 C 0.40472 0.84218 0.26198 0.0
C3329 C 0.38522 0.85312 0.26618 0.0
C3330 C 0.37583 0.86593 0.24976 0.0
C3331 C 0.38615 0.86831 0.22966 0.0
H3332 H 0.1326 0.36944 0.90687 0.0
H3333 H 0.07348 0.40343 0.92347 0.0
H3334 H 0.13028 0.34899 0.94061 0.0
H3335 H 0.07104 0.3827 0.95721 0.0
H3336 H 0.09478 0.36651 0.02723 0.0
H3337 H 0.09191 0.38315 0.99135 0.0
H3338 H 0.11047 0.32236 0.96165 0.0
H3339 H 0.11447 0.30609 -0.00262 0.0
C3340 C 0.11879 0.37214 0.91744 0.0
C3341 C 0.10335 0.38821 0.91252 0.0
C3342 C 0.11744 0.36039 0.93682 0.0
C3343 C 0.10066 0.36448 0.95179 0.0
C3344 C 0.08439 0.37948 0.9462 0.0
C3345 C 0.08565 0.39114 0.92671 0.0
C3346 C 0.09875 0.35682 0.01313 0.0
C3347 C 0.10559 0.33515 0.01531 0.0
C3348 C 0.09661 0.36623 0.99249 0.0
C3349 C 0.10109 0.3541 0.97362 0.0
C3350 C 0.10724 0.33226 0.97583 0.0
C3351 C 0.10944 0.32293 0.99637 0.0
H3352 H 0.59181 0.66872 0.22342 0.0
H3353 H 0.58368 0.60056 0.2373 0.0
H3354 H 0.60708 0.67438 0.25983 0.0
H3355 H 0.59977 0.60567 0.27309 0.0
H3356 H 0.6097 0.61952 0.34202 0.0
H3357 H 0.59094 0.62019 0.30716 0.0
H3358 H 0.63662 0.66815 0.28352 0.0
H3359 H 0.65448 0.66837 0.3187 0.0
C3360 C 0.59388 0.6549 0.23414 0.0
C3361 C 0.58681 0.63421 0.22773 0.0
C3362 C 0.6025 0.65809 0.255 0.0
C3363 C 0.60423 0.64057 0.26969 0.0
C3364 C 0.59801 0.61971 0.26261 0.0
C3365 C 0.58918 0.61663 0.24198 0.0
C3366 C 0.61523 0.63075 0.32962 0.0
C3367 C 0.63366 0.64373 0.33311 0.0
C3368 C 0.60474 0.63088 0.30947 0.0
C3369 C 0.61274 0.64364 0.29219 0.0
C3370 C 0.62999 0.65806 0.29634 0.0
C3371 C 0.64021 0.65824 0.31664 0.0
H3372 H 0.9209 0.16252 0.00839 0.0
H3373 H 0.86124 0.12772 0.02101 0.0
H3374 H 0.92256 0.1466 0.97198 0.0
H3375 H 0.86291 0.1118 0.98465 0.0
H3376 H 0.85532 0.11531 0.9117 0.0
H3377 H 0.8587 0.13147 0.94759 0.0
H3378 H 0.92512 0.10949 0.95167 0.0
H3379 H 0.92187 0.09301 0.91569 0.0
C3380 C 0.90844 0.15105 0.00351 0.0
C3381 C 0.89097 0.14626 0.01744 0.0
C3382 C 0.9094 0.14201 0.98273 0.0
C3383 C 0.89266 0.12836 0.97545 0.0
C3384 C 0.87584 0.12259 0.98984 0.0
C3385 C 0.87504 0.13141 0.01073 0.0
C3386 C 0.87085 0.1143 0.91993 0.0
C3387 C 0.8882 0.10249 0.91091 0.0
C3388 C 0.87266 0.12334 0.94061 0.0
C3389 C 0.89193 0.12107 0.95258 0.0
C3390 C 0.90999 0.11118 0.94283 0.0
C3391 C 0.90814 0.1019 0.92215 0.0
H3392 H 0.27316 0.39259 0.16273 0.0
H3393 H 0.25268 0.41857 0.101 0.0
H3394 H 0.23714 0.37679 0.16815 0.0
H3395 H 0.21739 0.40151 0.1052 0.0
H3396 H 0.1505 0.38108 0.11952 0.0
H3397 H 0.18428 0.4018 0.12121 0.0
H3398 H 0.21367 0.35009 0.15882 0.0
H3399 H 0.17957 0.33076 0.15879 0.0
C3400 C 0.261 0.39445 0.15014 0.0
C3401 C 0.26556 0.4066 0.13142 0.0
C3402 C 0.24032 0.38541 0.15315 0.0
C3403 C 0.22398 0.3879 0.1372 0.0
C3404 C 0.22904 0.39972 0.11825 0.0
C3405 C 0.24943 0.40923 0.11559 0.0
C3406 C 0.16404 0.37462 0.12872 0.0
C3407 C 0.16235 0.35438 0.13904 0.0
C3408 C 0.1836 0.38625 0.1294 0.0
C3409 C 0.20215 0.37746 0.13965 0.0
C3410 C 0.19993 0.3577 0.15095 0.0
C3411 C 0.18022 0.3465 0.15091 0.0
H3412 H 0.1641 0.62629 0.39252 0.0
H3413 H 0.16366 0.63837 0.32322 0.0
H3414 H 0.19993 0.60996 0.38937 0.0
H3415 H 0.1996 0.62185 0.32023 0.0
H3416 H 0.25667 0.57051 0.32691 0.0
H3417 H 0.22006 0.58593 0.32622 0.0
H3418 H 0.23671 0.62735 0.38037 0.0
H3419 H 0.27323 0.61184 0.38116 0.0
C3420 C 0.17134 0.62501 0.37652 0.0
C3421 C 0.16102 0.6339 0.35816 0.0
C3422 C 0.19202 0.61591 0.3748 0.0
C3423 C 0.20272 0.6152 0.35466 0.0
C3424 C 0.19176 0.62239 0.33599 0.0
C3425 C 0.17111 0.63173 0.33772 0.0
C3426 C 0.25258 0.58321 0.3384 0.0
C3427 C 0.26778 0.59008 0.35402 0.0
C3428 C 0.23167 0.59201 0.33798 0.0
C3429 C 0.22549 0.60754 0.35346 0.0
C3430 C 0.241 0.61512 0.36846 0.0
C3431 C 0.262 0.60651 0.3687 0.0
H3432 H 0.87042 0.58484 0.85641 0.0
H3433 H 0.89255 0.57881 0.92289 0.0
H3434 H 0.85438 0.54872 0.85855 0.0
H3435 H 0.87609 0.54264 0.92495 0.0
H3436 H 0.82134 0.48653 0.91705 0.0
H3437 H 0.83761 0.52276 0.92058 0.0
H3438 H 0.87533 0.5113 0.86256 0.0
H3439 H 0.85937 0.47492 0.85931 0.0
C3440 C 0.87137 0.5761 0.87167 0.0
C3441 C 0.88305 0.58464 0.88936 0.0
C3442 C 0.86241 0.55531 0.87278 0.0
C3443 C 0.86463 0.54276 0.89168 0.0
C3444 C 0.87442 0.55198 0.91011 0.0
C3445 C 0.88362 0.57278 0.90896 0.0
C3446 C 0.83353 0.49164 0.9054 0.0
C3447 C 0.83918 0.4781 0.88791 0.0
C3448 C 0.84277 0.51229 0.90741 0.0
C3449 C 0.85735 0.51986 0.89162 0.0
C3450 C 0.86387 0.50585 0.87478 0.0
C3451 C 0.85497 0.48502 0.87304 0.0
H3452 H 0.83128 0.85014 0.32077 0.0
H3453 H 0.83037 0.86486 0.38956 0.0
H3454 H 0.7949 0.86587 0.31711 0.0
H3455 H 0.7941 0.87994 0.38576 0.0
H3456 H 0.72091 0.87424 0.37695 0.0
H3457 H 0.75718 0.85807 0.37432 0.0
H3458 H 0.77495 0.90528 0.32555 0.0
H3459 H 0.73881 0.92168 0.3284 0.0
C3460 C 0.82363 0.85714 0.33498 0.0
C3461 C 0.83373 0.856 0.35552 0.0
C3462 C 0.80275 0.86594 0.33287 0.0
C3463 C 0.79161 0.87344 0.35129 0.0
C3464 C 0.80224 0.87372 0.37144 0.0
C3465 C 0.82315 0.86532 0.37351 0.0
C3466 C 0.73232 0.8807 0.3652 0.0
C3467 C 0.72718 0.89918 0.35291 0.0
C3468 C 0.75308 0.87162 0.36385 0.0
C3469 C 0.7688 0.8807 0.34994 0.0
C3470 C 0.76308 0.89808 0.33639 0.0
C3471 C 0.74248 0.9074 0.33804 0.0
H3472 H 0.64415 0.51267 0.34893 0.0
H3473 H 0.64868 0.51808 0.41859 0.0
H3474 H 0.63076 0.47547 0.35253 0.0
H3475 H 0.63594 0.48057 0.4225 0.0
H3476 H 0.58932 0.42135 0.41808 0.0
H3477 H 0.60587 0.45702 0.41855 0.0
H3478 H 0.64376 0.44029 0.36183 0.0
H3479 H 0.62619 0.40477 0.36062 0.0
C3480 C 0.64179 0.50591 0.36502 0.0
C3481 C 0.64691 0.5181 0.38351 0.0
C3482 C 0.6346 0.4845 0.36714 0.0
C3483 C 0.63271 0.47483 0.38781 0.0
C3484 C 0.63717 0.48747 0.40635 0.0
C3485 C 0.64429 0.50894 0.40419 0.0
C3486 C 0.60164 0.42495 0.40602 0.0
C3487 C 0.60609 0.41032 0.389 0.0
C3488 C 0.61113 0.44555 0.40629 0.0
C3489 C 0.62562 0.45181 0.38981 0.0
C3490 C 0.63199 0.43626 0.37428 0.0
C3491 C 0.6222 0.41576 0.37378 0.0
H3492 H 0.31815 0.65776 0.67001 0.0
H3493 H 0.33846 0.61316 0.61962 0.0
H3494 H 0.28337 0.63902 0.67258 0.0
H3495 H 0.30367 0.59394 0.62299 0.0
H3496 H 0.24212 0.55852 0.65437 0.0
H3497 H 0.27824 0.5744 0.65849 0.0
H3498 H 0.25414 0.63579 0.63495 0.0
H3499 H 0.21826 0.61981 0.62954 0.0
C3500 C 0.31558 0.6435 0.66001 0.0
C3501 C 0.33111 0.63703 0.64446 0.0
C3502 C 0.29556 0.63293 0.66143 0.0
C3503 C 0.29093 0.61531 0.64783 0.0
C3504 C 0.30701 0.60759 0.63361 0.0
C3505 C 0.3269 0.61851 0.63176 0.0
C3506 C 0.24438 0.57547 0.65017 0.0
C3507 C 0.22706 0.5879 0.6418 0.0
C3508 C 0.26507 0.58448 0.65259 0.0
C3509 C 0.26878 0.60621 0.64707 0.0
C3510 C 0.25145 0.61899 0.63953 0.0
C3511 C 0.23081 0.60987 0.63669 0.0
H3512 H 0.86473 0.40622 0.62522 0.0
H3513 H 0.91173 0.43034 0.57881 0.0
H3514 H 0.84429 0.44021 0.62172 0.0
H3515 H 0.89167 0.46433 0.57599 0.0
H3516 H 0.86806 0.52803 0.6157 0.0
H3517 H 0.88579 0.4932 0.6094 0.0
H3518 H 0.82443 0.46498 0.59058 0.0
H3519 H 0.8067 0.50004 0.59583 0.0
C3520 C 0.8704 0.4185 0.61392 0.0
C3521 C 0.88983 0.41557 0.60233 0.0
C3522 C 0.85875 0.43792 0.61195 0.0
C3523 C 0.86663 0.45484 0.59876 0.0
C3524 C 0.88539 0.45152 0.58633 0.0
C3525 C 0.89672 0.43195 0.58786 0.0
C3526 C 0.85844 0.51477 0.60938 0.0
C3527 C 0.83596 0.517 0.60603 0.0
C3528 C 0.86859 0.49473 0.60597 0.0
C3529 C 0.85638 0.47651 0.59956 0.0
C3530 C 0.83411 0.47881 0.59562 0.0
C3531 C 0.82404 0.49888 0.59867 0.0
H3532 H 0.16515 0.98636 0.57444 0.0
H3533 H 0.13542 0.97143 0.63612 0.0
H3534 H 0.1468 0.02153 0.57385 0.0
H3535 H 0.11837 0.00696 0.63662 0.0
H3536 H 0.07694 0.06483 0.6268 0.0
H3537 H 0.09216 0.0289 0.62302 0.0
H3538 H 0.14739 0.05615 0.58886 0.0
H3539 H 0.1307 0.09233 0.59118 0.0
C3540 C 0.15451 0.99067 0.58779 0.0
C3541 C 0.15138 0.97627 0.6052 0.0
C3542 C 0.14425 0.01091 0.58764 0.0
C3543 C 0.13117 0.01735 0.60525 0.0
C3544 C 0.12786 0.00256 0.62248 0.0
C3545 C 0.13764 0.98214 0.6223 0.0
C3546 C 0.0925 0.06314 0.61869 0.0
C3547 C 0.10307 0.08131 0.60985 0.0
C3548 C 0.1013 0.04249 0.61656 0.0
C3549 C 0.12132 0.03946 0.60605 0.0
C3550 C 0.13187 0.05776 0.59694 0.0
C3551 C 0.12258 0.07853 0.59852 0.0
H3552 H 0.60295 0.65827 0.87181 0.0
H3553 H 0.67146 0.6601 0.85604 0.0
H3554 H 0.60568 0.69461 0.88713 0.0
H3555 H 0.67401 0.6965 0.87155 0.0
H3556 H 0.66631 0.75551 0.9213 0.0
H3557 H 0.66856 0.71846 0.90704 0.0
H3558 H 0.61264 0.73081 0.86649 0.0
H3559 H 0.61054 0.76796 0.88065 0.0
C3560 C 0.61873 0.66608 0.87217 0.0
C3561 C 0.63687 0.65637 0.86226 0.0
C3562 C 0.62019 0.68704 0.88066 0.0
C3563 C 0.63987 0.69855 0.87976 0.0
C3564 C 0.65857 0.68804 0.87211 0.0
C3565 C 0.6571 0.6671 0.86341 0.0
C3566 C 0.65485 0.7504 0.90894 0.0
C3567 C 0.63823 0.76443 0.90204 0.0
C3568 C 0.65612 0.72926 0.90085 0.0
C3569 C 0.64048 0.72171 0.8861 0.0
C3570 C 0.62465 0.73619 0.8782 0.0
C3571 C 0.62361 0.75748 0.88602 0.0
H3572 H 0.91301 0.14118 0.37483 0.0
H3573 H 0.91747 0.07399 0.39509 0.0
H3574 H 0.94786 0.1379 0.35642 0.0
H3575 H 0.95238 0.07087 0.37657 0.0
H3576 H 0.00799 0.07374 0.32385 0.0
H3577 H 0.97141 0.07342 0.33954 0.0
H3578 H 0.98562 0.13335 0.37319 0.0
H3579 H 0.02209 0.13368 0.35748 0.0
C3580 C 0.92107 0.12554 0.3749 0.0
C3581 C 0.91253 0.10795 0.38676 0.0
C3582 C 0.94119 0.12377 0.36456 0.0
C3583 C 0.95305 0.10432 0.36561 0.0
C3584 C 0.94364 0.08611 0.37567 0.0
C3585 C 0.92357 0.08791 0.38619 0.0
C3586 C 0.00334 0.08664 0.33488 0.0
C3587 C 0.01787 0.10363 0.33964 0.0
C3588 C 0.98246 0.08646 0.34381 0.0
C3589 C 0.97561 0.10353 0.35728 0.0
C3590 C 0.9904 0.12016 0.36256 0.0
C3591 C 0.01138 0.12018 0.35388 0.0
H3592 H 0.35027 0.8131 0.81539 0.0
H3593 H 0.3554 0.84275 0.87873 0.0
H3594 H 0.34712 0.77727 0.83212 0.0
H3595 H 0.35169 0.8067 0.89571 0.0
H3596 H 0.32885 0.74011 0.91847 0.0
H3597 H 0.3251 0.77472 0.89935 0.0
H3598 H 0.37422 0.75466 0.85346 0.0
H3599 H 0.37808 0.72011 0.87266 0.0
C3600 C 0.35014 0.8119 0.83298 0.0
C3601 C 0.35282 0.83051 0.84591 0.0
C3602 C 0.34852 0.79143 0.84249 0.0
C3603 C 0.34919 0.78926 0.86515 0.0
C3604 C 0.35098 0.80802 0.87817 0.0
C3605 C 0.35313 0.82856 0.86857 0.0
C3606 C 0.33861 0.74301 0.90409 0.0
C3607 C 0.35372 0.72746 0.89698 0.0
C3608 C 0.33651 0.7628 0.89325 0.0
C3609 C 0.34951 0.7674 0.87512 0.0
C3610 C 0.36385 0.75141 0.86732 0.0
C3611 C 0.36597 0.73159 0.8782 0.0
H3612 H 0.09481 0.37462 0.36023 0.0
H3613 H 0.06726 0.41158 0.41299 0.0
H3614 H 0.06035 0.37671 0.34078 0.0
H3615 H 0.03237 0.41191 0.3949 0.0
H3616 H 0.97114 0.4154 0.35425 0.0
H3617 H 0.00744 0.42126 0.36933 0.0
H3618 H 0.02789 0.35944 0.34257 0.0
H3619 H 0.99233 0.35482 0.32632 0.0
C3620 C 0.08144 0.38348 0.36745 0.0
C3621 C 0.08368 0.393 0.38798 0.0
C3622 C 0.0615 0.38434 0.35657 0.0
C3623 C 0.04314 0.39385 0.3665 0.0
C3624 C 0.04595 0.40457 0.3865 0.0
C3625 C 0.06607 0.40441 0.39694 0.0
C3626 C 0.98351 0.40312 0.35184 0.0
C3627 C 0.97911 0.38465 0.33929 0.0
C3628 C 0.00435 0.40641 0.36042 0.0
C3629 C 0.02098 0.391 0.35698 0.0
C3630 C 0.01601 0.37215 0.34498 0.0
C3631 C 0.99546 0.36922 0.33597 0.0
H3632 H 0.67075 0.32519 0.64573 0.0
H3633 H 0.60348 0.3281 0.62549 0.0
H3634 H 0.67418 0.28954 0.62867 0.0
H3635 H 0.60706 0.29253 0.60862 0.0
H3636 H 0.61165 0.21873 0.61214 0.0
H3637 H 0.6123 0.25543 0.62732 0.0
H3638 H 0.67135 0.26928 0.59201 0.0
H3639 H 0.67073 0.2325 0.57686 0.0
C3640 C 0.65688 0.31857 0.63714 0.0
C3641 C 0.63673 0.32941 0.6373 0.0
C3642 C 0.65885 0.29809 0.62749 0.0
C3643 C 0.6407 0.28809 0.61795 0.0
C3644 C 0.62114 0.2997 0.61642 0.0
C3645 C 0.61921 0.32022 0.62584 0.0
C3646 C 0.62508 0.22938 0.60812 0.0
C3647 C 0.64121 0.22279 0.59346 0.0
C3648 C 0.62527 0.25048 0.61651 0.0
C3649 C 0.64168 0.26525 0.61049 0.0
C3650 C 0.65849 0.25824 0.59682 0.0
C3651 C 0.65813 0.23724 0.58821 0.0
H3652 H 0.56105 0.08647 0.57689 0.0
H3653 H 0.59238 0.11749 0.63146 0.0
H3654 H 0.52677 0.08688 0.5959 0.0
H3655 H 0.55828 0.11609 0.65167 0.0
H3656 H 0.49141 0.13981 0.66979 0.0
H3657 H 0.52653 0.13462 0.65279 0.0
H3658 H 0.50233 0.0764 0.62138 0.0
H3659 H 0.46661 0.08286 0.63736 0.0
C3660 C 0.56078 0.09256 0.59342 0.0
C3661 C 0.57939 0.10204 0.60269 0.0
C3662 C 0.54098 0.09276 0.60443 0.0
C3663 C 0.53938 0.1019 0.62532 0.0
C3664 C 0.55855 0.10967 0.6353 0.0
C3665 C 0.57824 0.11016 0.62393 0.0
C3666 C 0.49363 0.12606 0.65901 0.0
C3667 C 0.47633 0.11192 0.65457 0.0
C3668 C 0.51392 0.1228 0.64952 0.0
C3669 C 0.51766 0.10488 0.6358 0.0
C3670 C 0.50018 0.09061 0.6315 0.0
C3671 C 0.47964 0.09426 0.64061 0.0
H3672 H 0.33011 0.17913 0.6632 0.0
H3673 H 0.37252 0.15474 0.61281 0.0
H3674 H 0.32805 0.21405 0.64463 0.0
H3675 H 0.36961 0.18972 0.59376 0.0
H3676 H 0.33909 0.25268 0.56122 0.0
H3677 H 0.33469 0.21704 0.57814 0.0
H3678 H 0.3657 0.24074 0.63633 0.0
H3679 H 0.37125 0.2761 0.61921 0.0
C3680 C 0.33834 0.18092 0.64773 0.0
C3681 C 0.35145 0.16414 0.63938 0.0
C3682 C 0.33728 0.20099 0.63728 0.0
C3683 C 0.34877 0.20443 0.61796 0.0
C3684 C 0.36062 0.18728 0.6087 0.0
C3685 C 0.36221 0.16732 0.6195 0.0
C3686 C 0.34488 0.2504 0.5777 0.0
C3687 C 0.35535 0.26741 0.58892 0.0
C3688 C 0.34231 0.23002 0.58729 0.0
C3689 C 0.34984 0.22635 0.60842 0.0
C3690 C 0.35956 0.24342 0.62004 0.0
C3691 C 0.3625 0.26375 0.6103 0.0
H3692 H 0.52359 0.41301 0.64156 0.0
H3693 H 0.50134 0.35285 0.66973 0.0
H3694 H 0.48775 0.41883 0.62551 0.0
H3695 H 0.46617 0.35739 0.65248 0.0
H3696 H 0.39985 0.37276 0.63157 0.0
H3697 H 0.43358 0.37456 0.65233 0.0
H3698 H 0.46418 0.40895 0.59902 0.0
H3699 H 0.43013 0.40885 0.57955 0.0
C3700 C 0.51106 0.40083 0.64383 0.0
C3701 C 0.51506 0.38243 0.65661 0.0
C3702 C 0.4905 0.40408 0.63467 0.0
C3703 C 0.47373 0.38868 0.63773 0.0
C3704 C 0.47821 0.37002 0.65022 0.0
C3705 C 0.49851 0.36714 0.65982 0.0
C3706 C 0.41366 0.38132 0.62475 0.0
C3707 C 0.41236 0.3907 0.60404 0.0
C3708 C 0.43316 0.38205 0.63642 0.0
C3709 C 0.45202 0.39136 0.6272 0.0
C3710 C 0.45018 0.40182 0.60694 0.0
C3711 C 0.43053 0.40175 0.59568 0.0
H3712 H 0.87729 0.60875 0.65239 0.0
H3713 H 0.84398 0.66759 0.67103 0.0
H3714 H 0.89588 0.60833 0.68735 0.0
H3715 H 0.86118 0.66638 0.70636 0.0
H3716 H 0.90333 0.66318 0.76745 0.0
H3717 H 0.88998 0.6685 0.73036 0.0
H3718 H 0.8859 0.5987 0.72229 0.0
H3719 H 0.90051 0.59378 0.75873 0.0
C3720 C 0.87433 0.62186 0.66375 0.0
C3721 C 0.85908 0.6381 0.65893 0.0
C3722 C 0.88462 0.62142 0.68402 0.0
C3723 C 0.87947 0.63687 0.70013 0.0
C3724 C 0.86565 0.65417 0.69453 0.0
C3725 C 0.85579 0.65491 0.67408 0.0
C3726 C 0.89919 0.6491 0.7577 0.0
C3727 C 0.90267 0.6281 0.76579 0.0
C3728 C 0.89163 0.65207 0.73643 0.0
C3729 C 0.88721 0.63404 0.72298 0.0
C3730 C 0.88982 0.61302 0.73172 0.0
C3731 C 0.89776 0.61012 0.75276 0.0
H3732 H 0.92153 0.89861 0.57794 0.0
H3733 H 0.85626 0.87292 0.58338 0.0
H3734 H 0.92504 0.88168 0.54217 0.0
H3735 H 0.85986 0.8564 0.54764 0.0
H3736 H 0.86153 0.86221 0.47355 0.0
H3737 H 0.86322 0.87767 0.51021 0.0
H3738 H 0.92292 0.84298 0.52234 0.0
H3739 H 0.92099 0.8272 0.48579 0.0
C3740 C 0.90819 0.88883 0.57188 0.0
C3741 C 0.88845 0.88746 0.58341 0.0
C3742 C 0.91018 0.87932 0.55132 0.0
C3743 C 0.89245 0.8684 0.54199 0.0
C3744 C 0.87353 0.86529 0.55431 0.0
C3745 C 0.8716 0.87456 0.57488 0.0
C3746 C 0.87527 0.85838 0.48386 0.0
C3747 C 0.89114 0.84361 0.47699 0.0
C3748 C 0.87611 0.86697 0.50486 0.0
C3749 C 0.89302 0.86116 0.51911 0.0
C3750 C 0.90969 0.84757 0.51168 0.0
C3751 C 0.9086 0.83863 0.49084 0.0
H3752 H 0.11147 0.84122 0.64997 0.0
H3753 H 0.16777 0.87157 0.67867 0.0
H3754 H 0.09473 0.83836 0.6862 0.0
H3755 H 0.15216 0.86755 0.71456 0.0
H3756 H 0.10918 0.88268 0.77172 0.0
H3757 H 0.12572 0.88323 0.73592 0.0
H3758 H 0.09524 0.82161 0.72086 0.0
H3759 H 0.07779 0.82182 0.75658 0.0
C3760 C 0.12019 0.84718 0.66406 0.0
C3761 C 0.14051 0.85715 0.66169 0.0
C3762 C 0.11082 0.84537 0.6848 0.0
C3763 C 0.12194 0.85307 0.70337 0.0
C3764 C 0.14272 0.86215 0.70072 0.0
C3765 C 0.15173 0.86438 0.68015 0.0
C3766 C 0.10641 0.86906 0.76091 0.0
C3767 C 0.09255 0.85205 0.76695 0.0
C3768 C 0.11585 0.86933 0.74032 0.0
C3769 C 0.11195 0.85238 0.7254 0.0
C3770 C 0.09836 0.83509 0.73172 0.0
C3771 C 0.08858 0.83506 0.75224 0.0
H3772 H 0.07371 0.67074 0.48734 0.0
H3773 H 0.13051 0.63203 0.47363 0.0
H3774 H 0.07259 0.65615 0.52436 0.0
H3775 H 0.12947 0.61752 0.51066 0.0
H3776 H 0.13909 0.62055 0.58337 0.0
H3777 H 0.13598 0.637 0.54753 0.0
H3778 H 0.06809 0.61958 0.54513 0.0
H3779 H 0.07105 0.60288 0.58103 0.0
C3780 C 0.08569 0.65879 0.49217 0.0
C3781 C 0.10214 0.6524 0.47768 0.0
C3782 C 0.08506 0.65051 0.5133 0.0
C3783 C 0.10117 0.63606 0.52042 0.0
C3784 C 0.11706 0.62894 0.50562 0.0
C3785 C 0.11748 0.63696 0.48437 0.0
C3786 C 0.12331 0.62071 0.57557 0.0
C3787 C 0.10541 0.61005 0.585 0.0
C3788 C 0.12164 0.62988 0.55489 0.0
C3789 C 0.10197 0.62893 0.54337 0.0
C3790 C 0.08351 0.62028 0.55361 0.0
C3791 C 0.08521 0.61086 0.57424 0.0
H3792 H 0.87965 0.38468 0.71903 0.0
H3793 H 0.91531 0.32633 0.73443 0.0
H3794 H 0.86216 0.38333 0.75439 0.0
H3795 H 0.89731 0.32448 0.7698 0.0
H3796 H 0.88132 0.34586 0.84073 0.0
H3797 H 0.89745 0.34289 0.80423 0.0
H3798 H 0.83686 0.36465 0.77596 0.0
H3799 H 0.82155 0.36855 0.81209 0.0
C3800 C 0.88318 0.37115 0.72972 0.0
C3801 C 0.8986 0.35547 0.72392 0.0
C3802 C 0.87323 0.37038 0.75008 0.0
C3803 C 0.87835 0.35379 0.76504 0.0
C3804 C 0.89327 0.33768 0.75887 0.0
C3805 C 0.90341 0.33861 0.73856 0.0
C3806 C 0.8717 0.35004 0.8266 0.0
C3807 C 0.85052 0.35793 0.82901 0.0
C3808 C 0.88074 0.34817 0.80573 0.0
C3809 C 0.86854 0.35388 0.78713 0.0
C3810 C 0.84697 0.36075 0.78984 0.0
C3811 C 0.83817 0.36292 0.81051 0.0
H3812 H 0.59471 0.91855 0.43003 0.0
H3813 H 0.61291 0.85955 0.39699 0.0
H3814 H 0.59484 0.89967 0.46459 0.0
H3815 H 0.6111 0.83976 0.43146 0.0
H3816 H 0.63782 0.81884 0.49659 0.0
H3817 H 0.6324 0.83628 0.46173 0.0
H3818 H 0.58119 0.8756 0.48959 0.0
H3819 H 0.58763 0.85868 0.52489 0.0
C3820 C 0.59782 0.9012 0.43015 0.0
C3821 C 0.6037 0.89038 0.41096 0.0
C3822 C 0.59785 0.89031 0.45001 0.0
C3823 C 0.60325 0.86814 0.45106 0.0
C3824 C 0.60755 0.85698 0.43147 0.0
C3825 C 0.60828 0.86813 0.41164 0.0
C3826 C 0.62553 0.83137 0.49526 0.0
C3827 C 0.61342 0.8377 0.51348 0.0
C3828 C 0.62215 0.84118 0.47514 0.0
C3829 C 0.60615 0.85728 0.47256 0.0
C3830 C 0.5939 0.86353 0.49091 0.0
C3831 C 0.59761 0.85393 0.51121 0.0
H3832 H 0.14138 0.16981 0.82764 0.0
H3833 H 0.12692 0.10097 0.82768 0.0
H3834 H 0.12312 0.17349 0.79251 0.0
H3835 H 0.10903 0.10478 0.7926 0.0
H3836 H 0.1095 0.11392 0.71895 0.0
H3837 H 0.12641 0.11439 0.75492 0.0
H3838 H 0.08488 0.16754 0.77396 0.0
H3839 H 0.06785 0.167 0.73796 0.0
C3840 C 0.13386 0.15558 0.82048 0.0
C3841 C 0.13581 0.13504 0.83044 0.0
C3842 C 0.12354 0.1577 0.80032 0.0
C3843 C 0.11523 0.13931 0.78968 0.0
C3844 C 0.11578 0.11912 0.8003 0.0
C3845 C 0.12579 0.11703 0.82054 0.0
C3846 C 0.10441 0.12607 0.73059 0.0
C3847 C 0.08747 0.14049 0.7257 0.0
C3848 C 0.11385 0.12615 0.75125 0.0
C3849 C 0.10667 0.14079 0.76725 0.0
C3850 C 0.09062 0.15606 0.76193 0.0
C3851 C 0.08093 0.15574 0.74139 0.0
H3852 H 0.42075 0.59772 0.41898 0.0
H3853 H 0.35389 0.61857 0.41323 0.0
H3854 H 0.42279 0.61437 0.45492 0.0
H3855 H 0.35608 0.63506 0.44914 0.0
H3856 H 0.35809 0.63162 0.52348 0.0
H3857 H 0.35949 0.61678 0.48658 0.0
H3858 H 0.41984 0.65077 0.47509 0.0
H3859 H 0.41833 0.66571 0.51194 0.0
C3860 C 0.40667 0.60635 0.42506 0.0
C3861 C 0.38704 0.60652 0.41326 0.0
C3862 C 0.40784 0.61577 0.44572 0.0
C3863 C 0.3894 0.62544 0.45501 0.0
C3864 C 0.37036 0.62718 0.44255 0.0
C3865 C 0.36923 0.61796 0.42184 0.0
C3866 C 0.37189 0.63545 0.51324 0.0
C3867 C 0.38816 0.64967 0.52051 0.0
C3868 C 0.37254 0.62726 0.49205 0.0
C3869 C 0.38961 0.63294 0.4779 0.0
C3870 C 0.40648 0.64621 0.48562 0.0
C3871 C 0.40563 0.65469 0.50666 0.0
H3872 H 0.75117 0.9066 0.59633 0.0
H3873 H 0.77 0.89362 0.66257 0.0
H3874 H 0.7159 0.89017 0.60288 0.0
H3875 H 0.73407 0.87786 0.66972 0.0
H3876 H 0.67523 0.82985 0.66319 0.0
H3877 H 0.71002 0.84859 0.66285 0.0
H3878 H 0.68305 0.89757 0.62026 0.0
H3879 H 0.64867 0.87791 0.61951 0.0
C3880 C 0.74768 0.90004 0.61231 0.0
C3881 C 0.76324 0.90111 0.62888 0.0
C3882 C 0.72733 0.89097 0.61624 0.0
C3883 C 0.7218 0.8832 0.63703 0.0
C3884 C 0.73772 0.88367 0.65351 0.0
C3885 C 0.75834 0.89252 0.64943 0.0
C3886 C 0.67653 0.84501 0.6543 0.0
C3887 C 0.65932 0.85231 0.64114 0.0
C3888 C 0.69657 0.85574 0.65405 0.0
C3889 C 0.69963 0.87422 0.64093 0.0
C3890 C 0.68157 0.88287 0.62983 0.0
C3891 C 0.66172 0.87185 0.62967 0.0
H3892 H 0.67954 0.16932 0.86943 0.0
H3893 H 0.65113 0.10979 0.84564 0.0
H3894 H 0.71566 0.15444 0.86491 0.0
H3895 H 0.68764 0.0939 0.8424 0.0
H3896 H 0.75643 0.0753 0.82611 0.0
H3897 H 0.72147 0.09397 0.82411 0.0
H3898 H 0.73797 0.12981 0.88238 0.0
H3899 H 0.77311 0.11198 0.88348 0.0
C3900 C 0.68117 0.15276 0.86362 0.0
C3901 C 0.66276 0.14035 0.85844 0.0
C3902 C 0.70185 0.14422 0.86106 0.0
C3903 C 0.70463 0.12282 0.85372 0.0
C3904 C 0.68609 0.11051 0.848 0.0
C3905 C 0.66522 0.11936 0.85011 0.0
C3906 C 0.75262 0.08758 0.83813 0.0
C3907 C 0.76735 0.09242 0.85485 0.0
C3908 C 0.73256 0.09807 0.83716 0.0
C3909 C 0.72674 0.11322 0.85321 0.0
C3910 C 0.74196 0.11853 0.86949 0.0
C3911 C 0.76216 0.10836 0.87018 0.0
H3912 H 0.41436 0.06194 0.40757 0.0
H3913 H 0.3586 0.09259 0.37815 0.0
H3914 H 0.39593 0.02736 0.40728 0.0
H3915 H 0.33893 0.05812 0.37975 0.0
H3916 H 0.32121 0.99078 0.35642 0.0
H3917 H 0.3375 0.02632 0.36134 0.0
H3918 H 0.37128 0.00257 0.41841 0.0
H3919 H 0.35604 0.9665 0.41214 0.0
C3920 C 0.39768 0.06144 0.40191 0.0
C3921 C 0.38787 0.07997 0.39289 0.0
C3922 C 0.387 0.04146 0.40178 0.0
C3923 C 0.3659 0.03957 0.39319 0.0
C3924 C 0.35544 0.05862 0.38579 0.0
C3925 C 0.3665 0.07852 0.38519 0.0
C3926 C 0.33235 0.99321 0.36985 0.0
C3927 C 0.33772 0.97594 0.38368 0.0
C3928 C 0.34145 0.01373 0.37296 0.0
C3929 C 0.35568 0.01769 0.39045 0.0
C3930 C 0.36079 0.00025 0.40449 0.0
C3931 C 0.3521 0.97951 0.40096 0.0
H3932 H 0.32618 0.34784 0.82342 0.0
H3933 H 0.33008 0.36784 0.89076 0.0
H3934 H 0.29061 0.36518 0.82043 0.0
H3935 H 0.29457 0.38486 0.88761 0.0
H3936 H 0.22078 0.38037 0.88381 0.0
H3937 H 0.25716 0.36446 0.88168 0.0
H3938 H 0.2711 0.40341 0.82496 0.0
H3939 H 0.23478 0.41951 0.82724 0.0
C3940 C 0.3198 0.35644 0.83739 0.0
C3941 C 0.33083 0.35608 0.85747 0.0
C3942 C 0.29938 0.36621 0.83567 0.0
C3943 C 0.2897 0.37565 0.854 0.0
C3944 C 0.30154 0.3771 0.87343 0.0
C3945 C 0.322 0.36758 0.87511 0.0
C3946 C 0.2314 0.38504 0.87056 0.0
C3947 C 0.22513 0.40111 0.8557 0.0
C3948 C 0.25225 0.3762 0.8695 0.0
C3949 C 0.26694 0.38311 0.8534 0.0
C3950 C 0.26008 0.39798 0.83758 0.0
C3951 C 0.23937 0.40711 0.83888 0.0
H3952 H 0.1736 0.00508 0.91684 0.0
H3953 H 0.1329 0.02072 0.86185 0.0
H3954 H 0.15844 0.96829 0.91765 0.0
H3955 H 0.11768 0.98404 0.86275 0.0
H3956 H 0.11899 0.91146 0.85135 0.0
H3957 H 0.13567 0.9472 0.85446 0.0
H3958 H 0.12213 0.94782 0.92328 0.0
H3959 H 0.10522 0.91198 0.92031 0.0
C3960 C 0.1611 0.00075 0.90521 0.0
C3961 C 0.15431 0.01575 0.88936 0.0
C3962 C 0.15247 0.97974 0.90568 0.0
C3963 C 0.13719 0.97327 0.89004 0.0
C3964 C 0.12971 0.98857 0.87478 0.0
C3965 C 0.13815 0.00966 0.87448 0.0
C3966 C 0.12005 0.91886 0.86729 0.0
C3967 C 0.11052 0.90889 0.88554 0.0
C3968 C 0.12934 0.93949 0.86898 0.0
C3969 C 0.12962 0.95045 0.88898 0.0
C3970 C 0.12191 0.93977 0.90762 0.0
C3971 C 0.11236 0.91919 0.90591 0.0
H3972 H 0.74264 0.06026 0.15077 0.0
H3973 H 0.71809 0.12122 0.12582 0.0
H3974 H 0.77845 0.07675 0.15539 0.0
H3975 H 0.75356 0.13779 0.13171 0.0
H3976 H 0.81619 0.16259 0.16456 0.0
H3977 H 0.78194 0.14298 0.16793 0.0
H3978 H 0.80428 0.09548 0.12158 0.0
H3979 H 0.83852 0.11549 0.11744 0.0
C3980 C 0.74469 0.07726 0.14666 0.0
C3981 C 0.72727 0.08945 0.13815 0.0
C3982 C 0.76518 0.08663 0.14938 0.0
C3983 C 0.76857 0.10846 0.14401 0.0
C3984 C 0.75112 0.12094 0.13627 0.0
C3985 C 0.7307 0.11147 0.13313 0.0
C3986 C 0.81417 0.14762 0.15551 0.0
C3987 C 0.83006 0.14067 0.14056 0.0
C3988 C 0.79448 0.13654 0.15739 0.0
C3989 C 0.79055 0.11796 0.14486 0.0
C3990 C 0.80706 0.10983 0.13138 0.0
C3991 C 0.82662 0.12123 0.12907 0.0
H3992 H 0.31049 -0.00208 0.12789 0.0
H3993 H 0.3598 0.02726 0.08752 0.0
H3994 H 0.32827 0.96282 0.12453 0.0
H3995 H 0.37729 0.99199 0.08335 0.0
H3996 H 0.41776 0.93393 0.10476 0.0
H3997 H 0.39817 0.96801 0.10362 0.0
H3998 H 0.33726 0.93272 0.10278 0.0
H3999 H 0.35741 0.89828 0.10526 0.0
C4000 C 0.32512 -0.00321 0.11818 0.0
C4001 C 0.3341 0.0154 0.10844 0.0
C4002 C 0.3352 0.97659 0.11603 0.0
C4003 C 0.35433 0.97445 0.10375 0.0
C4004 C 0.36289 0.99305 0.0934 0.0
C4005 C 0.35295 0.01333 0.09583 0.0
C4006 C 0.40015 0.93351 0.10405 0.0
C4007 C 0.38899 0.91366 0.10494 0.0
C4008 C 0.38888 0.95306 0.10323 0.0
C4009 C 0.36606 0.95328 0.10297 0.0
C4010 C 0.35484 0.93321 0.10326 0.0
C4011 C 0.36625 0.91349 0.10448 0.0
H4012 H 0.63591 0.46721 0.13754 0.0
H4013 H 0.66504 0.48217 0.07557 0.0
H4014 H 0.6183 0.50246 0.13789 0.0
H4015 H 0.64631 0.51721 0.07503 0.0
H4016 H 0.62774 0.58782 0.09235 0.0
H4017 H 0.64576 0.55221 0.0902 0.0
H4018 H 0.591 0.52294 0.12341 0.0
H4019 H 0.57428 0.55835 0.12678 0.0
C4020 C 0.63795 0.47786 0.12366 0.0
C4021 C 0.65154 0.47195 0.10642 0.0
C4022 C 0.62785 0.49813 0.12378 0.0
C4023 C 0.63073 0.51284 0.10641 0.0
C4024 C 0.64398 0.50657 0.08886 0.0
C4025 C 0.65449 0.48642 0.08901 0.0
C4026 C 0.61995 0.57369 0.09942 0.0
C4027 C 0.60006 0.57572 0.11027 0.0
C4028 C 0.63003 0.55326 0.09799 0.0
C4029 C 0.62003 0.53459 0.10694 0.0
C4030 C 0.59967 0.53687 0.11702 0.0
C4031 C 0.59 0.55717 0.11889 0.0
loop_
_geom_bond_atom_site_label_1
_geom_bond_atom_site_label_2
_geom_bond_distance
_geom_bond_site_symmetry_2
_ccdc_geom_bond_type
Co0 O3 1.970 . S
Co0 N17 1.989 . S
Co0 O25 1.967 . S
Co0 O32 1.920 . S
Co1 O4 1.966 . S
Co1 N10 2.022 . S
Co1 N18 1.993 . S
Co1 O26 1.941 . S
C2 O3 1.258 . S
C2 O4 1.263 . S
O3 Co0 1.970 . S
O3 C2 1.258 . S
O4 Co1 1.966 . S
O4 C2 1.263 . S
C5 O6 1.235 . S
C5 O32 1.289 . S
O6 C5 1.235 . S
C7 C9 1.400 . S
C7 N10 1.351 . S
C7 C12 1.501 . S
C8 C9 1.387 . S
C8 N11 1.341 . S
C9 C7 1.400 . S
C9 C8 1.387 . S
N10 Co1 2.022 . S
N10 C7 1.351 . S
N10 N11 1.365 . S
N11 C8 1.341 . S
N11 N10 1.365 . S
N11 H31 0.862 . S
C12 C7 1.501 . S
C12 H13 0.961 . S
C12 H14 0.961 . S
C12 H15 0.960 . S
H13 C12 0.961 . S
H14 C12 0.961 . S
H15 C12 0.960 . S
C16 N17 1.342 . S
C16 C20 1.401 . S
C16 C21 1.499 . S
N17 Co0 1.989 . S
N17 C16 1.342 . S
N17 N18 1.388 . S
N18 Co1 1.993 . S
N18 N17 1.388 . S
N18 C19 1.346 . S
C19 N18 1.346 . S
C19 C20 1.396 . S
C19 C29 1.510 . S
C20 C16 1.401 . S
C20 C19 1.396 . S
C21 C16 1.499 . S
C21 H22 0.959 . S
C21 H23 0.960 . S
C21 H24 0.961 . S
H22 C21 0.959 . S
H23 C21 0.960 . S
H24 C21 0.961 . S
O25 Co0 1.967 . S
O25 C33 1.258 . S
O26 Co1 1.941 . S
O26 C33 1.266 . S
H27 C29 0.959 . S
H28 C29 0.961 . S
C29 C19 1.510 . S
C29 H27 0.959 . S
C29 H28 0.961 . S
C29 H30 0.960 . S
H30 C29 0.960 . S
H31 N11 0.862 . S
O32 Co0 1.920 . S
O32 C5 1.289 . S
C33 O25 1.258 . S
C33 O26 1.266 . S
Co34 O37 1.970 . S
Co34 N51 1.989 . S
Co34 O59 1.967 . S
Co34 O66 1.920 . S
Co35 O38 1.966 . S
Co35 N44 2.022 . S
Co35 N52 1.993 . S
Co35 O60 1.941 . S
C36 O37 1.258 . S
C36 O38 1.263 . S
O37 Co34 1.970 . S
O37 C36 1.258 . S
O38 Co35 1.966 . S
O38 C36 1.263 . S
C39 O40 1.235 . S
C39 O66 1.289 . S
O40 C39 1.235 . S
C41 C43 1.400 . S
C41 N44 1.351 . S
C41 C46 1.501 . S
C42 C43 1.387 . S
C42 N45 1.341 . S
C43 C41 1.400 . S
C43 C42 1.387 . S
N44 Co35 2.022 . S
N44 C41 1.351 . S
N44 N45 1.365 . S
N45 C42 1.341 . S
N45 N44 1.365 . S
N45 H65 0.862 . S
C46 C41 1.501 . S
C46 H47 0.961 . S
C46 H48 0.961 . S
C46 H49 0.960 . S
H47 C46 0.961 . S
H48 C46 0.961 . S
H49 C46 0.960 . S
C50 N51 1.342 . S
C50 C54 1.401 . S
C50 C55 1.499 . S
N51 Co34 1.989 . S
N51 C50 1.342 . S
N51 N52 1.388 . S
N52 Co35 1.993 . S
N52 N51 1.388 . S
N52 C53 1.346 . S
C53 N52 1.346 . S
C53 C54 1.396 . S
C53 C63 1.510 . S
C54 C50 1.401 . S
C54 C53 1.396 . S
C55 C50 1.499 . S
C55 H56 0.959 . S
C55 H57 0.960 . S
C55 H58 0.961 . S
H56 C55 0.959 . S
H57 C55 0.960 . S
H58 C55 0.961 . S
O59 Co34 1.967 . S
O59 C67 1.258 . S
O60 Co35 1.941 . S
O60 C67 1.266 . S
H61 C63 0.959 . S
H62 C63 0.961 . S
C63 C53 1.510 . S
C63 H61 0.959 . S
C63 H62 0.961 . S
C63 H64 0.960 . S
H64 C63 0.960 . S
H65 N45 0.862 . S
O66 Co34 1.920 . S
O66 C39 1.289 . S
C67 O59 1.258 . S
C67 O60 1.266 . S
Co68 O71 1.970 . S
Co68 N85 1.989 . S
Co68 O93 1.967 . S
Co68 O100 1.920 . S
Co69 O72 1.966 . S
Co69 N78 2.022 . S
Co69 N86 1.993 . S
Co69 O94 1.941 . S
C70 O71 1.258 . S
C70 O72 1.263 . S
O71 Co68 1.970 . S
O71 C70 1.258 . S
O72 Co69 1.966 . S
O72 C70 1.263 . S
C73 O74 1.235 . S
C73 O100 1.289 . S
O74 C73 1.235 . S
C75 C77 1.400 . S
C75 N78 1.351 . S
C75 C80 1.501 . S
C76 C77 1.387 . S
C76 N79 1.341 . S
C77 C75 1.400 . S
C77 C76 1.387 . S
N78 Co69 2.022 . S
N78 C75 1.351 . S
N78 N79 1.365 . S
N79 C76 1.341 . S
N79 N78 1.365 . S
N79 H99 0.862 . S
C80 C75 1.501 . S
C80 H81 0.961 . S
C80 H82 0.961 . S
C80 H83 0.960 . S
H81 C80 0.961 . S
H82 C80 0.961 . S
H83 C80 0.960 . S
C84 N85 1.342 . S
C84 C88 1.401 . S
C84 C89 1.499 . S
N85 Co68 1.989 . S
N85 C84 1.342 . S
N85 N86 1.388 . S
N86 Co69 1.993 . S
N86 N85 1.388 . S
N86 C87 1.346 . S
C87 N86 1.346 . S
C87 C88 1.396 . S
C87 C97 1.510 . S
C88 C84 1.401 . S
C88 C87 1.396 . S
C89 C84 1.499 . S
C89 H90 0.959 . S
C89 H91 0.960 . S
C89 H92 0.961 . S
H90 C89 0.959 . S
H91 C89 0.960 . S
H92 C89 0.961 . S
O93 Co68 1.967 . S
O93 C101 1.258 . S
O94 Co69 1.941 . S
O94 C101 1.266 . S
H95 C97 0.959 . S
H96 C97 0.961 . S
C97 C87 1.510 . S
C97 H95 0.959 . S
C97 H96 0.961 . S
C97 H98 0.960 . S
H98 C97 0.960 . S
H99 N79 0.862 . S
O100 Co68 1.920 . S
O100 C73 1.289 . S
C101 O93 1.258 . S
C101 O94 1.266 . S
Co102 O105 1.970 . S
Co102 N119 1.989 . S
Co102 O127 1.967 . S
Co102 O134 1.920 . S
Co103 O106 1.966 . S
Co103 N112 2.022 . S
Co103 N120 1.993 . S
Co103 O128 1.941 . S
C104 O105 1.258 . S
C104 O106 1.263 . S
O105 Co102 1.970 . S
O105 C104 1.258 . S
O106 Co103 1.966 . S
O106 C104 1.263 . S
C107 O108 1.235 . S
C107 O134 1.289 . S
O108 C107 1.235 . S
C109 C111 1.400 . S
C109 N112 1.351 . S
C109 C114 1.501 . S
C110 C111 1.387 . S
C110 N113 1.341 . S
C111 C109 1.400 . S
C111 C110 1.387 . S
N112 Co103 2.022 . S
N112 C109 1.351 . S
N112 N113 1.365 . S
N113 C110 1.341 . S
N113 N112 1.365 . S
N113 H133 0.862 . S
C114 C109 1.501 . S
C114 H115 0.961 . S
C114 H116 0.961 . S
C114 H117 0.960 . S
H115 C114 0.961 . S
H116 C114 0.961 . S
H117 C114 0.960 . S
C118 N119 1.342 . S
C118 C122 1.401 . S
C118 C123 1.499 . S
N119 Co102 1.989 . S
N119 C118 1.342 . S
N119 N120 1.388 . S
N120 Co103 1.993 . S
N120 N119 1.388 . S
N120 C121 1.346 . S
C121 N120 1.346 . S
C121 C122 1.396 . S
C121 C131 1.510 . S
C122 C118 1.401 . S
C122 C121 1.396 . S
C123 C118 1.499 . S
C123 H124 0.959 . S
C123 H125 0.960 . S
C123 H126 0.961 . S
H124 C123 0.959 . S
H125 C123 0.960 . S
H126 C123 0.961 . S
O127 Co102 1.967 . S
O127 C135 1.258 . S
O128 Co103 1.941 . S
O128 C135 1.266 . S
H129 C131 0.959 . S
H130 C131 0.961 . S
C131 C121 1.510 . S
C131 H129 0.959 . S
C131 H130 0.961 . S
C131 H132 0.960 . S
H132 C131 0.960 . S
H133 N113 0.862 . S
O134 Co102 1.920 . S
O134 C107 1.289 . S
C135 O127 1.258 . S
C135 O128 1.266 . S
Co136 O139 1.970 . S
Co136 N153 1.989 . S
Co136 O161 1.967 . S
Co136 O168 1.920 . S
Co137 O140 1.966 . S
Co137 N146 2.022 . S
Co137 N154 1.993 . S
Co137 O162 1.941 . S
C138 O139 1.258 . S
C138 O140 1.263 . S
O139 Co136 1.970 . S
O139 C138 1.258 . S
O140 Co137 1.966 . S
O140 C138 1.263 . S
C141 O142 1.235 . S
C141 O168 1.289 . S
O142 C141 1.235 . S
C143 C145 1.400 . S
C143 N146 1.351 . S
C143 C148 1.501 . S
C144 C145 1.387 . S
C144 N147 1.341 . S
C145 C143 1.400 . S
C145 C144 1.387 . S
N146 Co137 2.022 . S
N146 C143 1.351 . S
N146 N147 1.365 . S
N147 C144 1.341 . S
N147 N146 1.365 . S
N147 H167 0.862 . S
C148 C143 1.501 . S
C148 H149 0.961 . S
C148 H150 0.961 . S
C148 H151 0.960 . S
H149 C148 0.961 . S
H150 C148 0.961 . S
H151 C148 0.960 . S
C152 N153 1.342 . S
C152 C156 1.401 . S
C152 C157 1.499 . S
N153 Co136 1.989 . S
N153 C152 1.342 . S
N153 N154 1.388 . S
N154 Co137 1.993 . S
N154 N153 1.388 . S
N154 C155 1.346 . S
C155 N154 1.346 . S
C155 C156 1.396 . S
C155 C165 1.510 . S
C156 C152 1.401 . S
C156 C155 1.396 . S
C157 C152 1.499 . S
C157 H158 0.959 . S
C157 H159 0.960 . S
C157 H160 0.961 . S
H158 C157 0.959 . S
H159 C157 0.960 . S
H160 C157 0.961 . S
O161 Co136 1.967 . S
O161 C169 1.258 . S
O162 Co137 1.941 . S
O162 C169 1.266 . S
H163 C165 0.959 . S
H164 C165 0.961 . S
C165 C155 1.510 . S
C165 H163 0.959 . S
C165 H164 0.961 . S
C165 H166 0.960 . S
H166 C165 0.960 . S
H167 N147 0.862 . S
O168 Co136 1.920 . S
O168 C141 1.289 . S
C169 O161 1.258 . S
C169 O162 1.266 . S
Co170 O173 1.970 . S
Co170 N187 1.989 . S
Co170 O195 1.967 . S
Co170 O202 1.920 . S
Co171 O174 1.966 . S
Co171 N180 2.022 . S
Co171 N188 1.993 . S
Co171 O196 1.941 . S
C172 O173 1.258 . S
C172 O174 1.263 . S
O173 Co170 1.970 . S
O173 C172 1.258 . S
O174 Co171 1.966 . S
O174 C172 1.263 . S
C175 O176 1.235 . S
C175 O202 1.289 . S
O176 C175 1.235 . S
C177 C179 1.400 . S
C177 N180 1.351 . S
C177 C182 1.501 . S
C178 C179 1.387 . S
C178 N181 1.341 . S
C179 C177 1.400 . S
C179 C178 1.387 . S
N180 Co171 2.022 . S
N180 C177 1.351 . S
N180 N181 1.365 . S
N181 C178 1.341 . S
N181 N180 1.365 . S
N181 H201 0.862 . S
C182 C177 1.501 . S
C182 H183 0.961 . S
C182 H184 0.961 . S
C182 H185 0.960 . S
H183 C182 0.961 . S
H184 C182 0.961 . S
H185 C182 0.960 . S
C186 N187 1.342 . S
C186 C190 1.401 . S
C186 C191 1.499 . S
N187 Co170 1.989 . S
N187 C186 1.342 . S
N187 N188 1.388 . S
N188 Co171 1.993 . S
N188 N187 1.388 . S
N188 C189 1.346 . S
C189 N188 1.346 . S
C189 C190 1.396 . S
C189 C199 1.510 . S
C190 C186 1.401 . S
C190 C189 1.396 . S
C191 C186 1.499 . S
C191 H192 0.959 . S
C191 H193 0.960 . S
C191 H194 0.961 . S
H192 C191 0.959 . S
H193 C191 0.960 . S
H194 C191 0.961 . S
O195 Co170 1.967 . S
O195 C203 1.258 . S
O196 Co171 1.941 . S
O196 C203 1.266 . S
H197 C199 0.959 . S
H198 C199 0.961 . S
C199 C189 1.510 . S
C199 H197 0.959 . S
C199 H198 0.961 . S
C199 H200 0.960 . S
H200 C199 0.960 . S
H201 N181 0.862 . S
O202 Co170 1.920 . S
O202 C175 1.289 . S
C203 O195 1.258 . S
C203 O196 1.266 . S
Co204 O207 1.970 . S
Co204 N221 1.989 . S
Co204 O229 1.967 . S
Co204 O236 1.920 . S
Co205 O208 1.966 . S
Co205 N214 2.022 . S
Co205 N222 1.993 . S
Co205 O230 1.941 . S
C206 O207 1.258 . S
C206 O208 1.263 . S
O207 Co204 1.970 . S
O207 C206 1.258 . S
O208 Co205 1.966 . S
O208 C206 1.263 . S
C209 O210 1.235 . S
C209 O236 1.289 . S
O210 C209 1.235 . S
C211 C213 1.400 . S
C211 N214 1.351 . S
C211 C216 1.501 . S
C212 C213 1.387 . S
C212 N215 1.341 . S
C213 C211 1.400 . S
C213 C212 1.387 . S
N214 Co205 2.022 . S
N214 C211 1.351 . S
N214 N215 1.365 . S
N215 C212 1.341 . S
N215 N214 1.365 . S
N215 H235 0.862 . S
C216 C211 1.501 . S
C216 H217 0.961 . S
C216 H218 0.961 . S
C216 H219 0.960 . S
H217 C216 0.961 . S
H218 C216 0.961 . S
H219 C216 0.960 . S
C220 N221 1.342 . S
C220 C224 1.401 . S
C220 C225 1.499 . S
N221 Co204 1.989 . S
N221 C220 1.342 . S
N221 N222 1.388 . S
N222 Co205 1.993 . S
N222 N221 1.388 . S
N222 C223 1.346 . S
C223 N222 1.346 . S
C223 C224 1.396 . S
C223 C233 1.510 . S
C224 C220 1.401 . S
C224 C223 1.396 . S
C225 C220 1.499 . S
C225 H226 0.959 . S
C225 H227 0.960 . S
C225 H228 0.961 . S
H226 C225 0.959 . S
H227 C225 0.960 . S
H228 C225 0.961 . S
O229 Co204 1.967 . S
O229 C237 1.258 . S
O230 Co205 1.941 . S
O230 C237 1.266 . S
H231 C233 0.959 . S
H232 C233 0.961 . S
C233 C223 1.510 . S
C233 H231 0.959 . S
C233 H232 0.961 . S
C233 H234 0.960 . S
H234 C233 0.960 . S
H235 N215 0.862 . S
O236 Co204 1.920 . S
O236 C209 1.289 . S
C237 O229 1.258 . S
C237 O230 1.266 . S
Co238 O241 1.970 . S
Co238 N255 1.989 . S
Co238 O263 1.967 . S
Co238 O270 1.920 . S
Co239 O242 1.966 . S
Co239 N248 2.022 . S
Co239 N256 1.993 . S
Co239 O264 1.941 . S
C240 O241 1.258 . S
C240 O242 1.263 . S
O241 Co238 1.970 . S
O241 C240 1.258 . S
O242 Co239 1.966 . S
O242 C240 1.263 . S
C243 O244 1.235 . S
C243 O270 1.289 . S
O244 C243 1.235 . S
C245 C247 1.400 . S
C245 N248 1.351 . S
C245 C250 1.501 . S
C246 C247 1.387 . S
C246 N249 1.341 . S
C247 C245 1.400 . S
C247 C246 1.387 . S
N248 Co239 2.022 . S
N248 C245 1.351 . S
N248 N249 1.365 . S
N249 C246 1.341 . S
N249 N248 1.365 . S
N249 H269 0.862 . S
C250 C245 1.501 . S
C250 H251 0.961 . S
C250 H252 0.961 . S
C250 H253 0.960 . S
H251 C250 0.961 . S
H252 C250 0.961 . S
H253 C250 0.960 . S
C254 N255 1.342 . S
C254 C258 1.401 . S
C254 C259 1.499 . S
N255 Co238 1.989 . S
N255 C254 1.342 . S
N255 N256 1.388 . S
N256 Co239 1.993 . S
N256 N255 1.388 . S
N256 C257 1.346 . S
C257 N256 1.346 . S
C257 C258 1.396 . S
C257 C267 1.510 . S
C258 C254 1.401 . S
C258 C257 1.396 . S
C259 C254 1.499 . S
C259 H260 0.959 . S
C259 H261 0.960 . S
C259 H262 0.961 . S
H260 C259 0.959 . S
H261 C259 0.960 . S
H262 C259 0.961 . S
O263 Co238 1.967 . S
O263 C271 1.258 . S
O264 Co239 1.941 . S
O264 C271 1.266 . S
H265 C267 0.959 . S
H266 C267 0.961 . S
C267 C257 1.510 . S
C267 H265 0.959 . S
C267 H266 0.961 . S
C267 H268 0.960 . S
H268 C267 0.960 . S
H269 N249 0.862 . S
O270 Co238 1.920 . S
O270 C243 1.289 . S
C271 O263 1.258 . S
C271 O264 1.266 . S
Co272 O275 1.970 . S
Co272 N289 1.989 . S
Co272 O297 1.967 . S
Co272 O304 1.920 . S
Co273 O276 1.966 . S
Co273 N282 2.022 . S
Co273 N290 1.993 . S
Co273 O298 1.941 . S
C274 O275 1.258 . S
C274 O276 1.263 . S
O275 Co272 1.970 . S
O275 C274 1.258 . S
O276 Co273 1.966 . S
O276 C274 1.263 . S
C277 O278 1.235 . S
C277 O304 1.289 . S
O278 C277 1.235 . S
C279 C281 1.400 . S
C279 N282 1.351 . S
C279 C284 1.501 . S
C280 C281 1.387 . S
C280 N283 1.341 . S
C281 C279 1.400 . S
C281 C280 1.387 . S
N282 Co273 2.022 . S
N282 C279 1.351 . S
N282 N283 1.365 . S
N283 C280 1.341 . S
N283 N282 1.365 . S
N283 H303 0.862 . S
C284 C279 1.501 . S
C284 H285 0.961 . S
C284 H286 0.961 . S
C284 H287 0.960 . S
H285 C284 0.961 . S
H286 C284 0.961 . S
H287 C284 0.960 . S
C288 N289 1.342 . S
C288 C292 1.401 . S
C288 C293 1.499 . S
N289 Co272 1.989 . S
N289 C288 1.342 . S
N289 N290 1.388 . S
N290 Co273 1.993 . S
N290 N289 1.388 . S
N290 C291 1.346 . S
C291 N290 1.346 . S
C291 C292 1.396 . S
C291 C301 1.510 . S
C292 C288 1.401 . S
C292 C291 1.396 . S
C293 C288 1.499 . S
C293 H294 0.959 . S
C293 H295 0.960 . S
C293 H296 0.961 . S
H294 C293 0.959 . S
H295 C293 0.960 . S
H296 C293 0.961 . S
O297 Co272 1.967 . S
O297 C305 1.258 . S
O298 Co273 1.941 . S
O298 C305 1.266 . S
H299 C301 0.959 . S
H300 C301 0.961 . S
C301 C291 1.510 . S
C301 H299 0.959 . S
C301 H300 0.961 . S
C301 H302 0.960 . S
H302 C301 0.960 . S
H303 N283 0.862 . S
O304 Co272 1.920 . S
O304 C277 1.289 . S
C305 O297 1.258 . S
C305 O298 1.266 . S
Co306 O309 1.970 . S
Co306 N323 1.989 . S
Co306 O331 1.967 . S
Co306 O338 1.920 . S
Co307 O310 1.966 . S
Co307 N316 2.022 . S
Co307 N324 1.993 . S
Co307 O332 1.941 . S
C308 O309 1.258 . S
C308 O310 1.263 . S
O309 Co306 1.970 . S
O309 C308 1.258 . S
O310 Co307 1.966 . S
O310 C308 1.263 . S
C311 O312 1.235 . S
C311 O338 1.289 . S
O312 C311 1.235 . S
C313 C315 1.400 . S
C313 N316 1.351 . S
C313 C318 1.501 . S
C314 C315 1.387 . S
C314 N317 1.341 . S
C315 C313 1.400 . S
C315 C314 1.387 . S
N316 Co307 2.022 . S
N316 C313 1.351 . S
N316 N317 1.365 . S
N317 C314 1.341 . S
N317 N316 1.365 . S
N317 H337 0.862 . S
C318 C313 1.501 . S
C318 H319 0.961 . S
C318 H320 0.961 . S
C318 H321 0.960 . S
H319 C318 0.961 . S
H320 C318 0.961 . S
H321 C318 0.960 . S
C322 N323 1.342 . S
C322 C326 1.401 . S
C322 C327 1.499 . S
N323 Co306 1.989 . S
N323 C322 1.342 . S
N323 N324 1.388 . S
N324 Co307 1.993 . S
N324 N323 1.388 . S
N324 C325 1.346 . S
C325 N324 1.346 . S
C325 C326 1.396 . S
C325 C335 1.510 . S
C326 C322 1.401 . S
C326 C325 1.396 . S
C327 C322 1.499 . S
C327 H328 0.959 . S
C327 H329 0.960 . S
C327 H330 0.961 . S
H328 C327 0.959 . S
H329 C327 0.960 . S
H330 C327 0.961 . S
O331 Co306 1.967 . S
O331 C339 1.258 . S
O332 Co307 1.941 . S
O332 C339 1.266 . S
H333 C335 0.959 . S
H334 C335 0.961 . S
C335 C325 1.510 . S
C335 H333 0.959 . S
C335 H334 0.961 . S
C335 H336 0.960 . S
H336 C335 0.960 . S
H337 N317 0.862 . S
O338 Co306 1.920 . S
O338 C311 1.289 . S
C339 O331 1.258 . S
C339 O332 1.266 . S
Co340 O343 1.970 . S
Co340 N357 1.989 . S
Co340 O365 1.967 . S
Co340 O372 1.920 . S
Co341 O344 1.966 . S
Co341 N350 2.022 . S
Co341 N358 1.993 . S
Co341 O366 1.941 . S
C342 O343 1.258 . S
C342 O344 1.263 . S
O343 Co340 1.970 . S
O343 C342 1.258 . S
O344 Co341 1.966 . S
O344 C342 1.263 . S
C345 O346 1.235 . S
C345 O372 1.289 . S
O346 C345 1.235 . S
C347 C349 1.400 . S
C347 N350 1.351 . S
C347 C352 1.501 . S
C348 C349 1.387 . S
C348 N351 1.341 . S
C349 C347 1.400 . S
C349 C348 1.387 . S
N350 Co341 2.022 . S
N350 C347 1.351 . S
N350 N351 1.365 . S
N351 C348 1.341 . S
N351 N350 1.365 . S
N351 H371 0.862 . S
C352 C347 1.501 . S
C352 H353 0.961 . S
C352 H354 0.961 . S
C352 H355 0.960 . S
H353 C352 0.961 . S
H354 C352 0.961 . S
H355 C352 0.960 . S
C356 N357 1.342 . S
C356 C360 1.401 . S
C356 C361 1.499 . S
N357 Co340 1.989 . S
N357 C356 1.342 . S
N357 N358 1.388 . S
N358 Co341 1.993 . S
N358 N357 1.388 . S
N358 C359 1.346 . S
C359 N358 1.346 . S
C359 C360 1.396 . S
C359 C369 1.510 . S
C360 C356 1.401 . S
C360 C359 1.396 . S
C361 C356 1.499 . S
C361 H362 0.959 . S
C361 H363 0.960 . S
C361 H364 0.961 . S
H362 C361 0.959 . S
H363 C361 0.960 . S
H364 C361 0.961 . S
O365 Co340 1.967 . S
O365 C373 1.258 . S
O366 Co341 1.941 . S
O366 C373 1.266 . S
H367 C369 0.959 . S
H368 C369 0.961 . S
C369 C359 1.510 . S
C369 H367 0.959 . S
C369 H368 0.961 . S
C369 H370 0.960 . S
H370 C369 0.960 . S
H371 N351 0.862 . S
O372 Co340 1.920 . S
O372 C345 1.289 . S
C373 O365 1.258 . S
C373 O366 1.266 . S
Co374 O377 1.970 . S
Co374 N391 1.989 . S
Co374 O399 1.967 . S
Co374 O406 1.920 . S
Co375 O378 1.966 . S
Co375 N384 2.022 . S
Co375 N392 1.993 . S
Co375 O400 1.941 . S
C376 O377 1.258 . S
C376 O378 1.263 . S
O377 Co374 1.970 . S
O377 C376 1.258 . S
O378 Co375 1.966 . S
O378 C376 1.263 . S
C379 O380 1.235 . S
C379 O406 1.289 . S
O380 C379 1.235 . S
C381 C383 1.400 . S
C381 N384 1.351 . S
C381 C386 1.501 . S
C382 C383 1.387 . S
C382 N385 1.341 . S
C383 C381 1.400 . S
C383 C382 1.387 . S
N384 Co375 2.022 . S
N384 C381 1.351 . S
N384 N385 1.365 . S
N385 C382 1.341 . S
N385 N384 1.365 . S
N385 H405 0.862 . S
C386 C381 1.501 . S
C386 H387 0.961 . S
C386 H388 0.961 . S
C386 H389 0.960 . S
H387 C386 0.961 . S
H388 C386 0.961 . S
H389 C386 0.960 . S
C390 N391 1.342 . S
C390 C394 1.401 . S
C390 C395 1.499 . S
N391 Co374 1.989 . S
N391 C390 1.342 . S
N391 N392 1.388 . S
N392 Co375 1.993 . S
N392 N391 1.388 . S
N392 C393 1.346 . S
C393 N392 1.346 . S
C393 C394 1.396 . S
C393 C403 1.510 . S
C394 C390 1.401 . S
C394 C393 1.396 . S
C395 C390 1.499 . S
C395 H396 0.959 . S
C395 H397 0.960 . S
C395 H398 0.961 . S
H396 C395 0.959 . S
H397 C395 0.960 . S
H398 C395 0.961 . S
O399 Co374 1.967 . S
O399 C407 1.258 . S
O400 Co375 1.941 . S
O400 C407 1.266 . S
H401 C403 0.959 . S
H402 C403 0.961 . S
C403 C393 1.510 . S
C403 H401 0.959 . S
C403 H402 0.961 . S
C403 H404 0.960 . S
H404 C403 0.960 . S
H405 N385 0.862 . S
O406 Co374 1.920 . S
O406 C379 1.289 . S
C407 O399 1.258 . S
C407 O400 1.266 . S
Co408 O411 1.970 . S
Co408 N425 1.989 . S
Co408 O433 1.967 . S
Co408 O440 1.920 . S
Co409 O412 1.966 . S
Co409 N418 2.022 . S
Co409 N426 1.993 . S
Co409 O434 1.941 . S
C410 O411 1.258 . S
C410 O412 1.263 . S
O411 Co408 1.970 . S
O411 C410 1.258 . S
O412 Co409 1.966 . S
O412 C410 1.263 . S
C413 O414 1.235 . S
C413 O440 1.289 . S
O414 C413 1.235 . S
C415 C417 1.400 . S
C415 N418 1.351 . S
C415 C420 1.501 . S
C416 C417 1.387 . S
C416 N419 1.341 . S
C417 C415 1.400 . S
C417 C416 1.387 . S
N418 Co409 2.022 . S
N418 C415 1.351 . S
N418 N419 1.365 . S
N419 C416 1.341 . S
N419 N418 1.365 . S
N419 H439 0.862 . S
C420 C415 1.501 . S
C420 H421 0.961 . S
C420 H422 0.961 . S
C420 H423 0.960 . S
H421 C420 0.961 . S
H422 C420 0.961 . S
H423 C420 0.960 . S
C424 N425 1.342 . S
C424 C428 1.401 . S
C424 C429 1.499 . S
N425 Co408 1.989 . S
N425 C424 1.342 . S
N425 N426 1.388 . S
N426 Co409 1.993 . S
N426 N425 1.388 . S
N426 C427 1.346 . S
C427 N426 1.346 . S
C427 C428 1.396 . S
C427 C437 1.510 . S
C428 C424 1.401 . S
C428 C427 1.396 . S
C429 C424 1.499 . S
C429 H430 0.959 . S
C429 H431 0.960 . S
C429 H432 0.961 . S
H430 C429 0.959 . S
H431 C429 0.960 . S
H432 C429 0.961 . S
O433 Co408 1.967 . S
O433 C441 1.258 . S
O434 Co409 1.941 . S
O434 C441 1.266 . S
H435 C437 0.959 . S
H436 C437 0.961 . S
C437 C427 1.510 . S
C437 H435 0.959 . S
C437 H436 0.961 . S
C437 H438 0.960 . S
H438 C437 0.960 . S
H439 N419 0.862 . S
O440 Co408 1.920 . S
O440 C413 1.289 . S
C441 O433 1.258 . S
C441 O434 1.266 . S
Co442 O445 1.970 . S
Co442 N459 1.989 . S
Co442 O467 1.967 . S
Co442 O474 1.920 . S
Co443 O446 1.966 . S
Co443 N452 2.022 . S
Co443 N460 1.993 . S
Co443 O468 1.941 . S
C444 O445 1.258 . S
C444 O446 1.263 . S
O445 Co442 1.970 . S
O445 C444 1.258 . S
O446 Co443 1.966 . S
O446 C444 1.263 . S
C447 O448 1.235 . S
C447 O474 1.289 . S
O448 C447 1.235 . S
C449 C451 1.400 . S
C449 N452 1.351 . S
C449 C454 1.501 . S
C450 C451 1.387 . S
C450 N453 1.341 . S
C451 C449 1.400 . S
C451 C450 1.387 . S
N452 Co443 2.022 . S
N452 C449 1.351 . S
N452 N453 1.365 . S
N453 C450 1.341 . S
N453 N452 1.365 . S
N453 H473 0.862 . S
C454 C449 1.501 . S
C454 H455 0.961 . S
C454 H456 0.961 . S
C454 H457 0.960 . S
H455 C454 0.961 . S
H456 C454 0.961 . S
H457 C454 0.960 . S
C458 N459 1.342 . S
C458 C462 1.401 . S
C458 C463 1.499 . S
N459 Co442 1.989 . S
N459 C458 1.342 . S
N459 N460 1.388 . S
N460 Co443 1.993 . S
N460 N459 1.388 . S
N460 C461 1.346 . S
C461 N460 1.346 . S
C461 C462 1.396 . S
C461 C471 1.510 . S
C462 C458 1.401 . S
C462 C461 1.396 . S
C463 C458 1.499 . S
C463 H464 0.959 . S
C463 H465 0.960 . S
C463 H466 0.961 . S
H464 C463 0.959 . S
H465 C463 0.960 . S
H466 C463 0.961 . S
O467 Co442 1.967 . S
O467 C475 1.258 . S
O468 Co443 1.941 . S
O468 C475 1.266 . S
H469 C471 0.959 . S
H470 C471 0.961 . S
C471 C461 1.510 . S
C471 H469 0.959 . S
C471 H470 0.961 . S
C471 H472 0.960 . S
H472 C471 0.960 . S
H473 N453 0.862 . S
O474 Co442 1.920 . S
O474 C447 1.289 . S
C475 O467 1.258 . S
C475 O468 1.266 . S
Co476 O479 1.970 . S
Co476 N493 1.989 . S
Co476 O501 1.967 . S
Co476 O508 1.920 . S
Co477 O480 1.966 . S
Co477 N486 2.022 . S
Co477 N494 1.993 . S
Co477 O502 1.941 . S
C478 O479 1.258 . S
C478 O480 1.263 . S
O479 Co476 1.970 . S
O479 C478 1.258 . S
O480 Co477 1.966 . S
O480 C478 1.263 . S
C481 O482 1.235 . S
C481 O508 1.289 . S
O482 C481 1.235 . S
C483 C485 1.400 . S
C483 N486 1.351 . S
C483 C488 1.501 . S
C484 C485 1.387 . S
C484 N487 1.341 . S
C485 C483 1.400 . S
C485 C484 1.387 . S
N486 Co477 2.022 . S
N486 C483 1.351 . S
N486 N487 1.365 . S
N487 C484 1.341 . S
N487 N486 1.365 . S
N487 H507 0.862 . S
C488 C483 1.501 . S
C488 H489 0.961 . S
C488 H490 0.961 . S
C488 H491 0.960 . S
H489 C488 0.961 . S
H490 C488 0.961 . S
H491 C488 0.960 . S
C492 N493 1.342 . S
C492 C496 1.401 . S
C492 C497 1.499 . S
N493 Co476 1.989 . S
N493 C492 1.342 . S
N493 N494 1.388 . S
N494 Co477 1.993 . S
N494 N493 1.388 . S
N494 C495 1.346 . S
C495 N494 1.346 . S
C495 C496 1.396 . S
C495 C505 1.510 . S
C496 C492 1.401 . S
C496 C495 1.396 . S
C497 C492 1.499 . S
C497 H498 0.959 . S
C497 H499 0.960 . S
C497 H500 0.961 . S
H498 C497 0.959 . S
H499 C497 0.960 . S
H500 C497 0.961 . S
O501 Co476 1.967 . S
O501 C509 1.258 . S
O502 Co477 1.941 . S
O502 C509 1.266 . S
H503 C505 0.959 . S
H504 C505 0.961 . S
C505 C495 1.510 . S
C505 H503 0.959 . S
C505 H504 0.961 . S
C505 H506 0.960 . S
H506 C505 0.960 . S
H507 N487 0.862 . S
O508 Co476 1.920 . S
O508 C481 1.289 . S
C509 O501 1.258 . S
C509 O502 1.266 . S
Co510 O513 1.970 . S
Co510 N527 1.989 . S
Co510 O535 1.967 . S
Co510 O542 1.920 . S
Co511 O514 1.966 . S
Co511 N520 2.022 . S
Co511 N528 1.993 . S
Co511 O536 1.941 . S
C512 O513 1.258 . S
C512 O514 1.263 . S
O513 Co510 1.970 . S
O513 C512 1.258 . S
O514 Co511 1.966 . S
O514 C512 1.263 . S
C515 O516 1.235 . S
C515 O542 1.289 . S
O516 C515 1.235 . S
C517 C519 1.400 . S
C517 N520 1.351 . S
C517 C522 1.501 . S
C518 C519 1.387 . S
C518 N521 1.341 . S
C519 C517 1.400 . S
C519 C518 1.387 . S
N520 Co511 2.022 . S
N520 C517 1.351 . S
N520 N521 1.365 . S
N521 C518 1.341 . S
N521 N520 1.365 . S
N521 H541 0.862 . S
C522 C517 1.501 . S
C522 H523 0.961 . S
C522 H524 0.961 . S
C522 H525 0.960 . S
H523 C522 0.961 . S
H524 C522 0.961 . S
H525 C522 0.960 . S
C526 N527 1.342 . S
C526 C530 1.401 . S
C526 C531 1.499 . S
N527 Co510 1.989 . S
N527 C526 1.342 . S
N527 N528 1.388 . S
N528 Co511 1.993 . S
N528 N527 1.388 . S
N528 C529 1.346 . S
C529 N528 1.346 . S
C529 C530 1.396 . S
C529 C539 1.510 . S
C530 C526 1.401 . S
C530 C529 1.396 . S
C531 C526 1.499 . S
C531 H532 0.959 . S
C531 H533 0.960 . S
C531 H534 0.961 . S
H532 C531 0.959 . S
H533 C531 0.960 . S
H534 C531 0.961 . S
O535 Co510 1.967 . S
O535 C543 1.258 . S
O536 Co511 1.941 . S
O536 C543 1.266 . S
H537 C539 0.959 . S
H538 C539 0.961 . S
C539 C529 1.510 . S
C539 H537 0.959 . S
C539 H538 0.961 . S
C539 H540 0.960 . S
H540 C539 0.960 . S
H541 N521 0.862 . S
O542 Co510 1.920 . S
O542 C515 1.289 . S
C543 O535 1.258 . S
C543 O536 1.266 . S
Co544 O547 1.970 . S
Co544 N561 1.989 . S
Co544 O569 1.967 . S
Co544 O576 1.920 . S
Co545 O548 1.966 . S
Co545 N554 2.022 . S
Co545 N562 1.993 . S
Co545 O570 1.941 . S
C546 O547 1.258 . S
C546 O548 1.263 . S
O547 Co544 1.970 . S
O547 C546 1.258 . S
O548 Co545 1.966 . S
O548 C546 1.263 . S
C549 O550 1.235 . S
C549 O576 1.289 . S
O550 C549 1.235 . S
C551 C553 1.400 . S
C551 N554 1.351 . S
C551 C556 1.501 . S
C552 C553 1.387 . S
C552 N555 1.341 . S
C553 C551 1.400 . S
C553 C552 1.387 . S
N554 Co545 2.022 . S
N554 C551 1.351 . S
N554 N555 1.365 . S
N555 C552 1.341 . S
N555 N554 1.365 . S
N555 H575 0.862 . S
C556 C551 1.501 . S
C556 H557 0.961 . S
C556 H558 0.961 . S
C556 H559 0.960 . S
H557 C556 0.961 . S
H558 C556 0.961 . S
H559 C556 0.960 . S
C560 N561 1.342 . S
C560 C564 1.401 . S
C560 C565 1.499 . S
N561 Co544 1.989 . S
N561 C560 1.342 . S
N561 N562 1.388 . S
N562 Co545 1.993 . S
N562 N561 1.388 . S
N562 C563 1.346 . S
C563 N562 1.346 . S
C563 C564 1.396 . S
C563 C573 1.510 . S
C564 C560 1.401 . S
C564 C563 1.396 . S
C565 C560 1.499 . S
C565 H566 0.959 . S
C565 H567 0.960 . S
C565 H568 0.961 . S
H566 C565 0.959 . S
H567 C565 0.960 . S
H568 C565 0.961 . S
O569 Co544 1.967 . S
O569 C577 1.258 . S
O570 Co545 1.941 . S
O570 C577 1.266 . S
H571 C573 0.959 . S
H572 C573 0.961 . S
C573 C563 1.510 . S
C573 H571 0.959 . S
C573 H572 0.961 . S
C573 H574 0.960 . S
H574 C573 0.960 . S
H575 N555 0.862 . S
O576 Co544 1.920 . S
O576 C549 1.289 . S
C577 O569 1.258 . S
C577 O570 1.266 . S
Co578 O581 1.970 . S
Co578 N595 1.989 . S
Co578 O603 1.967 . S
Co578 O610 1.920 . S
Co579 O582 1.966 . S
Co579 N588 2.022 . S
Co579 N596 1.993 . S
Co579 O604 1.941 . S
C580 O581 1.258 . S
C580 O582 1.263 . S
O581 Co578 1.970 . S
O581 C580 1.258 . S
O582 Co579 1.966 . S
O582 C580 1.263 . S
C583 O584 1.235 . S
C583 O610 1.289 . S
O584 C583 1.235 . S
C585 C587 1.400 . S
C585 N588 1.351 . S
C585 C590 1.501 . S
C586 C587 1.387 . S
C586 N589 1.341 . S
C587 C585 1.400 . S
C587 C586 1.387 . S
N588 Co579 2.022 . S
N588 C585 1.351 . S
N588 N589 1.365 . S
N589 C586 1.341 . S
N589 N588 1.365 . S
N589 H609 0.862 . S
C590 C585 1.501 . S
C590 H591 0.961 . S
C590 H592 0.961 . S
C590 H593 0.960 . S
H591 C590 0.961 . S
H592 C590 0.961 . S
H593 C590 0.960 . S
C594 N595 1.342 . S
C594 C598 1.401 . S
C594 C599 1.499 . S
N595 Co578 1.989 . S
N595 C594 1.342 . S
N595 N596 1.388 . S
N596 Co579 1.993 . S
N596 N595 1.388 . S
N596 C597 1.346 . S
C597 N596 1.346 . S
C597 C598 1.396 . S
C597 C607 1.510 . S
C598 C594 1.401 . S
C598 C597 1.396 . S
C599 C594 1.499 . S
C599 H600 0.959 . S
C599 H601 0.960 . S
C599 H602 0.961 . S
H600 C599 0.959 . S
H601 C599 0.960 . S
H602 C599 0.961 . S
O603 Co578 1.967 . S
O603 C611 1.258 . S
O604 Co579 1.941 . S
O604 C611 1.266 . S
H605 C607 0.959 . S
H606 C607 0.961 . S
C607 C597 1.510 . S
C607 H605 0.959 . S
C607 H606 0.961 . S
C607 H608 0.960 . S
H608 C607 0.960 . S
H609 N589 0.862 . S
O610 Co578 1.920 . S
O610 C583 1.289 . S
C611 O603 1.258 . S
C611 O604 1.266 . S
Co612 O615 1.970 . S
Co612 N629 1.989 . S
Co612 O637 1.967 . S
Co612 O644 1.920 . S
Co613 O616 1.966 . S
Co613 N622 2.022 . S
Co613 N630 1.993 . S
Co613 O638 1.941 . S
C614 O615 1.258 . S
C614 O616 1.263 . S
O615 Co612 1.970 . S
O615 C614 1.258 . S
O616 Co613 1.966 . S
O616 C614 1.263 . S
C617 O618 1.235 . S
C617 O644 1.289 . S
O618 C617 1.235 . S
C619 C621 1.400 . S
C619 N622 1.351 . S
C619 C624 1.501 . S
C620 C621 1.387 . S
C620 N623 1.341 . S
C621 C619 1.400 . S
C621 C620 1.387 . S
N622 Co613 2.022 . S
N622 C619 1.351 . S
N622 N623 1.365 . S
N623 C620 1.341 . S
N623 N622 1.365 . S
N623 H643 0.862 . S
C624 C619 1.501 . S
C624 H625 0.961 . S
C624 H626 0.961 . S
C624 H627 0.960 . S
H625 C624 0.961 . S
H626 C624 0.961 . S
H627 C624 0.960 . S
C628 N629 1.342 . S
C628 C632 1.401 . S
C628 C633 1.499 . S
N629 Co612 1.989 . S
N629 C628 1.342 . S
N629 N630 1.388 . S
N630 Co613 1.993 . S
N630 N629 1.388 . S
N630 C631 1.346 . S
C631 N630 1.346 . S
C631 C632 1.396 . S
C631 C641 1.510 . S
C632 C628 1.401 . S
C632 C631 1.396 . S
C633 C628 1.499 . S
C633 H634 0.959 . S
C633 H635 0.960 . S
C633 H636 0.961 . S
H634 C633 0.959 . S
H635 C633 0.960 . S
H636 C633 0.961 . S
O637 Co612 1.967 . S
O637 C645 1.258 . S
O638 Co613 1.941 . S
O638 C645 1.266 . S
H639 C641 0.959 . S
H640 C641 0.961 . S
C641 C631 1.510 . S
C641 H639 0.959 . S
C641 H640 0.961 . S
C641 H642 0.960 . S
H642 C641 0.960 . S
H643 N623 0.862 . S
O644 Co612 1.920 . S
O644 C617 1.289 . S
C645 O637 1.258 . S
C645 O638 1.266 . S
Co646 O649 1.970 . S
Co646 N663 1.989 . S
Co646 O671 1.967 . S
Co646 O678 1.920 . S
Co647 O650 1.966 . S
Co647 N656 2.022 . S
Co647 N664 1.993 . S
Co647 O672 1.941 . S
C648 O649 1.258 . S
C648 O650 1.263 . S
O649 Co646 1.970 . S
O649 C648 1.258 . S
O650 Co647 1.966 . S
O650 C648 1.263 . S
C651 O652 1.235 . S
C651 O678 1.289 . S
O652 C651 1.235 . S
C653 C655 1.400 . S
C653 N656 1.351 . S
C653 C658 1.501 . S
C654 C655 1.387 . S
C654 N657 1.341 . S
C655 C653 1.400 . S
C655 C654 1.387 . S
N656 Co647 2.022 . S
N656 C653 1.351 . S
N656 N657 1.365 . S
N657 C654 1.341 . S
N657 N656 1.365 . S
N657 H677 0.862 . S
C658 C653 1.501 . S
C658 H659 0.961 . S
C658 H660 0.961 . S
C658 H661 0.960 . S
H659 C658 0.961 . S
H660 C658 0.961 . S
H661 C658 0.960 . S
C662 N663 1.342 . S
C662 C666 1.401 . S
C662 C667 1.499 . S
N663 Co646 1.989 . S
N663 C662 1.342 . S
N663 N664 1.388 . S
N664 Co647 1.993 . S
N664 N663 1.388 . S
N664 C665 1.346 . S
C665 N664 1.346 . S
C665 C666 1.396 . S
C665 C675 1.510 . S
C666 C662 1.401 . S
C666 C665 1.396 . S
C667 C662 1.499 . S
C667 H668 0.959 . S
C667 H669 0.960 . S
C667 H670 0.961 . S
H668 C667 0.959 . S
H669 C667 0.960 . S
H670 C667 0.961 . S
O671 Co646 1.967 . S
O671 C679 1.258 . S
O672 Co647 1.941 . S
O672 C679 1.266 . S
H673 C675 0.959 . S
H674 C675 0.961 . S
C675 C665 1.510 . S
C675 H673 0.959 . S
C675 H674 0.961 . S
C675 H676 0.960 . S
H676 C675 0.960 . S
H677 N657 0.862 . S
O678 Co646 1.920 . S
O678 C651 1.289 . S
C679 O671 1.258 . S
C679 O672 1.266 . S
Co680 O683 1.970 . S
Co680 N697 1.989 . S
Co680 O705 1.967 . S
Co680 O712 1.920 . S
Co681 O684 1.966 . S
Co681 N690 2.022 . S
Co681 N698 1.993 . S
Co681 O706 1.941 . S
C682 O683 1.258 . S
C682 O684 1.263 . S
O683 Co680 1.970 . S
O683 C682 1.258 . S
O684 Co681 1.966 . S
O684 C682 1.263 . S
C685 O686 1.235 . S
C685 O712 1.289 . S
O686 C685 1.235 . S
C687 C689 1.400 . S
C687 N690 1.351 . S
C687 C692 1.501 . S
C688 C689 1.387 . S
C688 N691 1.341 . S
C689 C687 1.400 . S
C689 C688 1.387 . S
N690 Co681 2.022 . S
N690 C687 1.351 . S
N690 N691 1.365 . S
N691 C688 1.341 . S
N691 N690 1.365 . S
N691 H711 0.862 . S
C692 C687 1.501 . S
C692 H693 0.961 . S
C692 H694 0.961 . S
C692 H695 0.960 . S
H693 C692 0.961 . S
H694 C692 0.961 . S
H695 C692 0.960 . S
C696 N697 1.342 . S
C696 C700 1.401 . S
C696 C701 1.499 . S
N697 Co680 1.989 . S
N697 C696 1.342 . S
N697 N698 1.388 . S
N698 Co681 1.993 . S
N698 N697 1.388 . S
N698 C699 1.346 . S
C699 N698 1.346 . S
C699 C700 1.396 . S
C699 C709 1.510 . S
C700 C696 1.401 . S
C700 C699 1.396 . S
C701 C696 1.499 . S
C701 H702 0.959 . S
C701 H703 0.960 . S
C701 H704 0.961 . S
H702 C701 0.959 . S
H703 C701 0.960 . S
H704 C701 0.961 . S
O705 Co680 1.967 . S
O705 C713 1.258 . S
O706 Co681 1.941 . S
O706 C713 1.266 . S
H707 C709 0.959 . S
H708 C709 0.961 . S
C709 C699 1.510 . S
C709 H707 0.959 . S
C709 H708 0.961 . S
C709 H710 0.960 . S
H710 C709 0.960 . S
H711 N691 0.862 . S
O712 Co680 1.920 . S
O712 C685 1.289 . S
C713 O705 1.258 . S
C713 O706 1.266 . S
Co714 O717 1.970 . S
Co714 N731 1.989 . S
Co714 O739 1.967 . S
Co714 O746 1.920 . S
Co715 O718 1.966 . S
Co715 N724 2.022 . S
Co715 N732 1.993 . S
Co715 O740 1.941 . S
C716 O717 1.258 . S
C716 O718 1.263 . S
O717 Co714 1.970 . S
O717 C716 1.258 . S
O718 Co715 1.966 . S
O718 C716 1.263 . S
C719 O720 1.235 . S
C719 O746 1.289 . S
O720 C719 1.235 . S
C721 C723 1.400 . S
C721 N724 1.351 . S
C721 C726 1.501 . S
C722 C723 1.387 . S
C722 N725 1.341 . S
C723 C721 1.400 . S
C723 C722 1.387 . S
N724 Co715 2.022 . S
N724 C721 1.351 . S
N724 N725 1.365 . S
N725 C722 1.341 . S
N725 N724 1.365 . S
N725 H745 0.862 . S
C726 C721 1.501 . S
C726 H727 0.961 . S
C726 H728 0.961 . S
C726 H729 0.960 . S
H727 C726 0.961 . S
H728 C726 0.961 . S
H729 C726 0.960 . S
C730 N731 1.342 . S
C730 C734 1.401 . S
C730 C735 1.499 . S
N731 Co714 1.989 . S
N731 C730 1.342 . S
N731 N732 1.388 . S
N732 Co715 1.993 . S
N732 N731 1.388 . S
N732 C733 1.346 . S
C733 N732 1.346 . S
C733 C734 1.396 . S
C733 C743 1.510 . S
C734 C730 1.401 . S
C734 C733 1.396 . S
C735 C730 1.499 . S
C735 H736 0.959 . S
C735 H737 0.960 . S
C735 H738 0.961 . S
H736 C735 0.959 . S
H737 C735 0.960 . S
H738 C735 0.961 . S
O739 Co714 1.967 . S
O739 C747 1.258 . S
O740 Co715 1.941 . S
O740 C747 1.266 . S
H741 C743 0.959 . S
H742 C743 0.961 . S
C743 C733 1.510 . S
C743 H741 0.959 . S
C743 H742 0.961 . S
C743 H744 0.960 . S
H744 C743 0.960 . S
H745 N725 0.862 . S
O746 Co714 1.920 . S
O746 C719 1.289 . S
C747 O739 1.258 . S
C747 O740 1.266 . S
Co748 O751 1.970 . S
Co748 N765 1.989 . S
Co748 O773 1.967 . S
Co748 O780 1.920 . S
Co749 O752 1.966 . S
Co749 N758 2.022 . S
Co749 N766 1.993 . S
Co749 O774 1.941 . S
C750 O751 1.258 . S
C750 O752 1.263 . S
O751 Co748 1.970 . S
O751 C750 1.258 . S
O752 Co749 1.966 . S
O752 C750 1.263 . S
C753 O754 1.235 . S
C753 O780 1.289 . S
O754 C753 1.235 . S
C755 C757 1.400 . S
C755 N758 1.351 . S
C755 C760 1.501 . S
C756 C757 1.387 . S
C756 N759 1.341 . S
C757 C755 1.400 . S
C757 C756 1.387 . S
N758 Co749 2.022 . S
N758 C755 1.351 . S
N758 N759 1.365 . S
N759 C756 1.341 . S
N759 N758 1.365 . S
N759 H779 0.862 . S
C760 C755 1.501 . S
C760 H761 0.961 . S
C760 H762 0.961 . S
C760 H763 0.960 . S
H761 C760 0.961 . S
H762 C760 0.961 . S
H763 C760 0.960 . S
C764 N765 1.342 . S
C764 C768 1.401 . S
C764 C769 1.499 . S
N765 Co748 1.989 . S
N765 C764 1.342 . S
N765 N766 1.388 . S
N766 Co749 1.993 . S
N766 N765 1.388 . S
N766 C767 1.346 . S
C767 N766 1.346 . S
C767 C768 1.396 . S
C767 C777 1.510 . S
C768 C764 1.401 . S
C768 C767 1.396 . S
C769 C764 1.499 . S
C769 H770 0.959 . S
C769 H771 0.960 . S
C769 H772 0.961 . S
H770 C769 0.959 . S
H771 C769 0.960 . S
H772 C769 0.961 . S
O773 Co748 1.967 . S
O773 C781 1.258 . S
O774 Co749 1.941 . S
O774 C781 1.266 . S
H775 C777 0.959 . S
H776 C777 0.961 . S
C777 C767 1.510 . S
C777 H775 0.959 . S
C777 H776 0.961 . S
C777 H778 0.960 . S
H778 C777 0.960 . S
H779 N759 0.862 . S
O780 Co748 1.920 . S
O780 C753 1.289 . S
C781 O773 1.258 . S
C781 O774 1.266 . S
Co782 O785 1.970 . S
Co782 N799 1.989 . S
Co782 O807 1.967 . S
Co782 O814 1.920 . S
Co783 O786 1.966 . S
Co783 N792 2.022 . S
Co783 N800 1.993 . S
Co783 O808 1.941 . S
C784 O785 1.258 . S
C784 O786 1.263 . S
O785 Co782 1.970 . S
O785 C784 1.258 . S
O786 Co783 1.966 . S
O786 C784 1.263 . S
C787 O788 1.235 . S
C787 O814 1.289 . S
O788 C787 1.235 . S
C789 C791 1.400 . S
C789 N792 1.351 . S
C789 C794 1.501 . S
C790 C791 1.387 . S
C790 N793 1.341 . S
C791 C789 1.400 . S
C791 C790 1.387 . S
N792 Co783 2.022 . S
N792 C789 1.351 . S
N792 N793 1.365 . S
N793 C790 1.341 . S
N793 N792 1.365 . S
N793 H813 0.862 . S
C794 C789 1.501 . S
C794 H795 0.961 . S
C794 H796 0.961 . S
C794 H797 0.960 . S
H795 C794 0.961 . S
H796 C794 0.961 . S
H797 C794 0.960 . S
C798 N799 1.342 . S
C798 C802 1.401 . S
C798 C803 1.499 . S
N799 Co782 1.989 . S
N799 C798 1.342 . S
N799 N800 1.388 . S
N800 Co783 1.993 . S
N800 N799 1.388 . S
N800 C801 1.346 . S
C801 N800 1.346 . S
C801 C802 1.396 . S
C801 C811 1.510 . S
C802 C798 1.401 . S
C802 C801 1.396 . S
C803 C798 1.499 . S
C803 H804 0.959 . S
C803 H805 0.960 . S
C803 H806 0.961 . S
H804 C803 0.959 . S
H805 C803 0.960 . S
H806 C803 0.961 . S
O807 Co782 1.967 . S
O807 C815 1.258 . S
O808 Co783 1.941 . S
O808 C815 1.266 . S
H809 C811 0.959 . S
H810 C811 0.961 . S
C811 C801 1.510 . S
C811 H809 0.959 . S
C811 H810 0.961 . S
C811 H812 0.960 . S
H812 C811 0.960 . S
H813 N793 0.862 . S
O814 Co782 1.920 . S
O814 C787 1.289 . S
C815 O807 1.258 . S
C815 O808 1.266 . S
Co816 O819 1.970 . S
Co816 N833 1.989 . S
Co816 O841 1.967 . S
Co816 O848 1.920 . S
Co817 O820 1.966 . S
Co817 N826 2.022 . S
Co817 N834 1.993 . S
Co817 O842 1.941 . S
C818 O819 1.258 . S
C818 O820 1.263 . S
O819 Co816 1.970 . S
O819 C818 1.258 . S
O820 Co817 1.966 . S
O820 C818 1.263 . S
C821 O822 1.235 . S
C821 O848 1.289 . S
O822 C821 1.235 . S
C823 C825 1.400 . S
C823 N826 1.351 . S
C823 C828 1.501 . S
C824 C825 1.387 . S
C824 N827 1.341 . S
C825 C823 1.400 . S
C825 C824 1.387 . S
N826 Co817 2.022 . S
N826 C823 1.351 . S
N826 N827 1.365 . S
N827 C824 1.341 . S
N827 N826 1.365 . S
N827 H847 0.862 . S
C828 C823 1.501 . S
C828 H829 0.961 . S
C828 H830 0.961 . S
C828 H831 0.960 . S
H829 C828 0.961 . S
H830 C828 0.961 . S
H831 C828 0.960 . S
C832 N833 1.342 . S
C832 C836 1.401 . S
C832 C837 1.499 . S
N833 Co816 1.989 . S
N833 C832 1.342 . S
N833 N834 1.388 . S
N834 Co817 1.993 . S
N834 N833 1.388 . S
N834 C835 1.346 . S
C835 N834 1.346 . S
C835 C836 1.396 . S
C835 C845 1.510 . S
C836 C832 1.401 . S
C836 C835 1.396 . S
C837 C832 1.499 . S
C837 H838 0.959 . S
C837 H839 0.960 . S
C837 H840 0.961 . S
H838 C837 0.959 . S
H839 C837 0.960 . S
H840 C837 0.961 . S
O841 Co816 1.967 . S
O841 C849 1.258 . S
O842 Co817 1.941 . S
O842 C849 1.266 . S
H843 C845 0.959 . S
H844 C845 0.961 . S
C845 C835 1.510 . S
C845 H843 0.959 . S
C845 H844 0.961 . S
C845 H846 0.960 . S
H846 C845 0.960 . S
H847 N827 0.862 . S
O848 Co816 1.920 . S
O848 C821 1.289 . S
C849 O841 1.258 . S
C849 O842 1.266 . S
Co850 O853 1.970 . S
Co850 N867 1.989 . S
Co850 O875 1.967 . S
Co850 O882 1.920 . S
Co851 O854 1.966 . S
Co851 N860 2.022 . S
Co851 N868 1.993 . S
Co851 O876 1.941 . S
C852 O853 1.258 . S
C852 O854 1.263 . S
O853 Co850 1.970 . S
O853 C852 1.258 . S
O854 Co851 1.966 . S
O854 C852 1.263 . S
C855 O856 1.235 . S
C855 O882 1.289 . S
O856 C855 1.235 . S
C857 C859 1.400 . S
C857 N860 1.351 . S
C857 C862 1.501 . S
C858 C859 1.387 . S
C858 N861 1.341 . S
C859 C857 1.400 . S
C859 C858 1.387 . S
N860 Co851 2.022 . S
N860 C857 1.351 . S
N860 N861 1.365 . S
N861 C858 1.341 . S
N861 N860 1.365 . S
N861 H881 0.862 . S
C862 C857 1.501 . S
C862 H863 0.961 . S
C862 H864 0.961 . S
C862 H865 0.960 . S
H863 C862 0.961 . S
H864 C862 0.961 . S
H865 C862 0.960 . S
C866 N867 1.342 . S
C866 C870 1.401 . S
C866 C871 1.499 . S
N867 Co850 1.989 . S
N867 C866 1.342 . S
N867 N868 1.388 . S
N868 Co851 1.993 . S
N868 N867 1.388 . S
N868 C869 1.346 . S
C869 N868 1.346 . S
C869 C870 1.396 . S
C869 C879 1.510 . S
C870 C866 1.401 . S
C870 C869 1.396 . S
C871 C866 1.499 . S
C871 H872 0.959 . S
C871 H873 0.960 . S
C871 H874 0.961 . S
H872 C871 0.959 . S
H873 C871 0.960 . S
H874 C871 0.961 . S
O875 Co850 1.967 . S
O875 C883 1.258 . S
O876 Co851 1.941 . S
O876 C883 1.266 . S
H877 C879 0.959 . S
H878 C879 0.961 . S
C879 C869 1.510 . S
C879 H877 0.959 . S
C879 H878 0.961 . S
C879 H880 0.960 . S
H880 C879 0.960 . S
H881 N861 0.862 . S
O882 Co850 1.920 . S
O882 C855 1.289 . S
C883 O875 1.258 . S
C883 O876 1.266 . S
Co884 O887 1.970 . S
Co884 N901 1.989 . S
Co884 O909 1.967 . S
Co884 O916 1.920 . S
Co885 O888 1.966 . S
Co885 N894 2.022 . S
Co885 N902 1.993 . S
Co885 O910 1.941 . S
C886 O887 1.258 . S
C886 O888 1.263 . S
O887 Co884 1.970 . S
O887 C886 1.258 . S
O888 Co885 1.966 . S
O888 C886 1.263 . S
C889 O890 1.235 . S
C889 O916 1.289 . S
O890 C889 1.235 . S
C891 C893 1.400 . S
C891 N894 1.351 . S
C891 C896 1.501 . S
C892 C893 1.387 . S
C892 N895 1.341 . S
C893 C891 1.400 . S
C893 C892 1.387 . S
N894 Co885 2.022 . S
N894 C891 1.351 . S
N894 N895 1.365 . S
N895 C892 1.341 . S
N895 N894 1.365 . S
N895 H915 0.862 . S
C896 C891 1.501 . S
C896 H897 0.961 . S
C896 H898 0.961 . S
C896 H899 0.960 . S
H897 C896 0.961 . S
H898 C896 0.961 . S
H899 C896 0.960 . S
C900 N901 1.342 . S
C900 C904 1.401 . S
C900 C905 1.499 . S
N901 Co884 1.989 . S
N901 C900 1.342 . S
N901 N902 1.388 . S
N902 Co885 1.993 . S
N902 N901 1.388 . S
N902 C903 1.346 . S
C903 N902 1.346 . S
C903 C904 1.396 . S
C903 C913 1.510 . S
C904 C900 1.401 . S
C904 C903 1.396 . S
C905 C900 1.499 . S
C905 H906 0.959 . S
C905 H907 0.960 . S
C905 H908 0.961 . S
H906 C905 0.959 . S
H907 C905 0.960 . S
H908 C905 0.961 . S
O909 Co884 1.967 . S
O909 C917 1.258 . S
O910 Co885 1.941 . S
O910 C917 1.266 . S
H911 C913 0.959 . S
H912 C913 0.961 . S
C913 C903 1.510 . S
C913 H911 0.959 . S
C913 H912 0.961 . S
C913 H914 0.960 . S
H914 C913 0.960 . S
H915 N895 0.862 . S
O916 Co884 1.920 . S
O916 C889 1.289 . S
C917 O909 1.258 . S
C917 O910 1.266 . S
Co918 O921 1.970 . S
Co918 N935 1.989 . S
Co918 O943 1.967 . S
Co918 O950 1.920 . S
Co919 O922 1.966 . S
Co919 N928 2.022 . S
Co919 N936 1.993 . S
Co919 O944 1.941 . S
C920 O921 1.258 . S
C920 O922 1.263 . S
O921 Co918 1.970 . S
O921 C920 1.258 . S
O922 Co919 1.966 . S
O922 C920 1.263 . S
C923 O924 1.235 . S
C923 O950 1.289 . S
O924 C923 1.235 . S
C925 C927 1.400 . S
C925 N928 1.351 . S
C925 C930 1.501 . S
C926 C927 1.387 . S
C926 N929 1.341 . S
C927 C925 1.400 . S
C927 C926 1.387 . S
N928 Co919 2.022 . S
N928 C925 1.351 . S
N928 N929 1.365 . S
N929 C926 1.341 . S
N929 N928 1.365 . S
N929 H949 0.862 . S
C930 C925 1.501 . S
C930 H931 0.961 . S
C930 H932 0.961 . S
C930 H933 0.960 . S
H931 C930 0.961 . S
H932 C930 0.961 . S
H933 C930 0.960 . S
C934 N935 1.342 . S
C934 C938 1.401 . S
C934 C939 1.499 . S
N935 Co918 1.989 . S
N935 C934 1.342 . S
N935 N936 1.388 . S
N936 Co919 1.993 . S
N936 N935 1.388 . S
N936 C937 1.346 . S
C937 N936 1.346 . S
C937 C938 1.396 . S
C937 C947 1.510 . S
C938 C934 1.401 . S
C938 C937 1.396 . S
C939 C934 1.499 . S
C939 H940 0.959 . S
C939 H941 0.960 . S
C939 H942 0.961 . S
H940 C939 0.959 . S
H941 C939 0.960 . S
H942 C939 0.961 . S
O943 Co918 1.967 . S
O943 C951 1.258 . S
O944 Co919 1.941 . S
O944 C951 1.266 . S
H945 C947 0.959 . S
H946 C947 0.961 . S
C947 C937 1.510 . S
C947 H945 0.959 . S
C947 H946 0.961 . S
C947 H948 0.960 . S
H948 C947 0.960 . S
H949 N929 0.862 . S
O950 Co918 1.920 . S
O950 C923 1.289 . S
C951 O943 1.258 . S
C951 O944 1.266 . S
Co952 O955 1.970 . S
Co952 N969 1.989 . S
Co952 O977 1.967 . S
Co952 O984 1.920 . S
Co953 O956 1.966 . S
Co953 N962 2.022 . S
Co953 N970 1.993 . S
Co953 O978 1.941 . S
C954 O955 1.258 . S
C954 O956 1.263 . S
O955 Co952 1.970 . S
O955 C954 1.258 . S
O956 Co953 1.966 . S
O956 C954 1.263 . S
C957 O958 1.235 . S
C957 O984 1.289 . S
O958 C957 1.235 . S
C959 C961 1.400 . S
C959 N962 1.351 . S
C959 C964 1.501 . S
C960 C961 1.387 . S
C960 N963 1.341 . S
C961 C959 1.400 . S
C961 C960 1.387 . S
N962 Co953 2.022 . S
N962 C959 1.351 . S
N962 N963 1.365 . S
N963 C960 1.341 . S
N963 N962 1.365 . S
N963 H983 0.862 . S
C964 C959 1.501 . S
C964 H965 0.961 . S
C964 H966 0.961 . S
C964 H967 0.960 . S
H965 C964 0.961 . S
H966 C964 0.961 . S
H967 C964 0.960 . S
C968 N969 1.342 . S
C968 C972 1.401 . S
C968 C973 1.499 . S
N969 Co952 1.989 . S
N969 C968 1.342 . S
N969 N970 1.388 . S
N970 Co953 1.993 . S
N970 N969 1.388 . S
N970 C971 1.346 . S
C971 N970 1.346 . S
C971 C972 1.396 . S
C971 C981 1.510 . S
C972 C968 1.401 . S
C972 C971 1.396 . S
C973 C968 1.499 . S
C973 H974 0.959 . S
C973 H975 0.960 . S
C973 H976 0.961 . S
H974 C973 0.959 . S
H975 C973 0.960 . S
H976 C973 0.961 . S
O977 Co952 1.967 . S
O977 C985 1.258 . S
O978 Co953 1.941 . S
O978 C985 1.266 . S
H979 C981 0.959 . S
H980 C981 0.961 . S
C981 C971 1.510 . S
C981 H979 0.959 . S
C981 H980 0.961 . S
C981 H982 0.960 . S
H982 C981 0.960 . S
H983 N963 0.862 . S
O984 Co952 1.920 . S
O984 C957 1.289 . S
C985 O977 1.258 . S
C985 O978 1.266 . S
Co986 O989 1.970 . S
Co986 N1003 1.989 . S
Co986 O1011 1.967 . S
Co986 O1018 1.920 . S
Co987 O990 1.966 . S
Co987 N996 2.022 . S
Co987 N1004 1.993 . S
Co987 O1012 1.941 . S
C988 O989 1.258 . S
C988 O990 1.263 . S
O989 Co986 1.970 . S
O989 C988 1.258 . S
O990 Co987 1.966 . S
O990 C988 1.263 . S
C991 O992 1.235 . S
C991 O1018 1.289 . S
O992 C991 1.235 . S
C993 C995 1.400 . S
C993 N996 1.351 . S
C993 C998 1.501 . S
C994 C995 1.387 . S
C994 N997 1.341 . S
C995 C993 1.400 . S
C995 C994 1.387 . S
N996 Co987 2.022 . S
N996 C993 1.351 . S
N996 N997 1.365 . S
N997 C994 1.341 . S
N997 N996 1.365 . S
N997 H1017 0.862 . S
C998 C993 1.501 . S
C998 H999 0.961 . S
C998 H1000 0.961 . S
C998 H1001 0.960 . S
H999 C998 0.961 . S
H1000 C998 0.961 . S
H1001 C998 0.960 . S
C1002 N1003 1.342 . S
C1002 C1006 1.401 . S
C1002 C1007 1.499 . S
N1003 Co986 1.989 . S
N1003 C1002 1.342 . S
N1003 N1004 1.388 . S
N1004 Co987 1.993 . S
N1004 N1003 1.388 . S
N1004 C1005 1.346 . S
C1005 N1004 1.346 . S
C1005 C1006 1.396 . S
C1005 C1015 1.510 . S
C1006 C1002 1.401 . S
C1006 C1005 1.396 . S
C1007 C1002 1.499 . S
C1007 H1008 0.959 . S
C1007 H1009 0.960 . S
C1007 H1010 0.961 . S
H1008 C1007 0.959 . S
H1009 C1007 0.960 . S
H1010 C1007 0.961 . S
O1011 Co986 1.967 . S
O1011 C1019 1.258 . S
O1012 Co987 1.941 . S
O1012 C1019 1.266 . S
H1013 C1015 0.959 . S
H1014 C1015 0.961 . S
C1015 C1005 1.510 . S
C1015 H1013 0.959 . S
C1015 H1014 0.961 . S
C1015 H1016 0.960 . S
H1016 C1015 0.960 . S
H1017 N997 0.862 . S
O1018 Co986 1.920 . S
O1018 C991 1.289 . S
C1019 O1011 1.258 . S
C1019 O1012 1.266 . S
Co1020 O1023 1.970 . S
Co1020 N1037 1.989 . S
Co1020 O1045 1.967 . S
Co1020 O1052 1.920 . S
Co1021 O1024 1.966 . S
Co1021 N1030 2.022 . S
Co1021 N1038 1.993 . S
Co1021 O1046 1.941 . S
C1022 O1023 1.258 . S
C1022 O1024 1.263 . S
O1023 Co1020 1.970 . S
O1023 C1022 1.258 . S
O1024 Co1021 1.966 . S
O1024 C1022 1.263 . S
C1025 O1026 1.235 . S
C1025 O1052 1.289 . S
O1026 C1025 1.235 . S
C1027 C1029 1.400 . S
C1027 N1030 1.351 . S
C1027 C1032 1.501 . S
C1028 C1029 1.387 . S
C1028 N1031 1.341 . S
C1029 C1027 1.400 . S
C1029 C1028 1.387 . S
N1030 Co1021 2.022 . S
N1030 C1027 1.351 . S
N1030 N1031 1.365 . S
N1031 C1028 1.341 . S
N1031 N1030 1.365 . S
N1031 H1051 0.862 . S
C1032 C1027 1.501 . S
C1032 H1033 0.961 . S
C1032 H1034 0.961 . S
C1032 H1035 0.960 . S
H1033 C1032 0.961 . S
H1034 C1032 0.961 . S
H1035 C1032 0.960 . S
C1036 N1037 1.342 . S
C1036 C1040 1.401 . S
C1036 C1041 1.499 . S
N1037 Co1020 1.989 . S
N1037 C1036 1.342 . S
N1037 N1038 1.388 . S
N1038 Co1021 1.993 . S
N1038 N1037 1.388 . S
N1038 C1039 1.346 . S
C1039 N1038 1.346 . S
C1039 C1040 1.396 . S
C1039 C1049 1.510 . S
C1040 C1036 1.401 . S
C1040 C1039 1.396 . S
C1041 C1036 1.499 . S
C1041 H1042 0.959 . S
C1041 H1043 0.960 . S
C1041 H1044 0.961 . S
H1042 C1041 0.959 . S
H1043 C1041 0.960 . S
H1044 C1041 0.961 . S
O1045 Co1020 1.967 . S
O1045 C1053 1.258 . S
O1046 Co1021 1.941 . S
O1046 C1053 1.266 . S
H1047 C1049 0.959 . S
H1048 C1049 0.961 . S
C1049 C1039 1.510 . S
C1049 H1047 0.959 . S
C1049 H1048 0.961 . S
C1049 H1050 0.960 . S
H1050 C1049 0.960 . S
H1051 N1031 0.862 . S
O1052 Co1020 1.920 . S
O1052 C1025 1.289 . S
C1053 O1045 1.258 . S
C1053 O1046 1.266 . S
Co1054 O1057 1.970 . S
Co1054 N1071 1.989 . S
Co1054 O1079 1.967 . S
Co1054 O1086 1.920 . S
Co1055 O1058 1.966 . S
Co1055 N1064 2.022 . S
Co1055 N1072 1.993 . S
Co1055 O1080 1.941 . S
C1056 O1057 1.258 . S
C1056 O1058 1.263 . S
O1057 Co1054 1.970 . S
O1057 C1056 1.258 . S
O1058 Co1055 1.966 . S
O1058 C1056 1.263 . S
C1059 O1060 1.235 . S
C1059 O1086 1.289 . S
O1060 C1059 1.235 . S
C1061 C1063 1.400 . S
C1061 N1064 1.351 . S
C1061 C1066 1.501 . S
C1062 C1063 1.387 . S
C1062 N1065 1.341 . S
C1063 C1061 1.400 . S
C1063 C1062 1.387 . S
N1064 Co1055 2.022 . S
N1064 C1061 1.351 . S
N1064 N1065 1.365 . S
N1065 C1062 1.341 . S
N1065 N1064 1.365 . S
N1065 H1085 0.862 . S
C1066 C1061 1.501 . S
C1066 H1067 0.961 . S
C1066 H1068 0.961 . S
C1066 H1069 0.960 . S
H1067 C1066 0.961 . S
H1068 C1066 0.961 . S
H1069 C1066 0.960 . S
C1070 N1071 1.342 . S
C1070 C1074 1.401 . S
C1070 C1075 1.499 . S
N1071 Co1054 1.989 . S
N1071 C1070 1.342 . S
N1071 N1072 1.388 . S
N1072 Co1055 1.993 . S
N1072 N1071 1.388 . S
N1072 C1073 1.346 . S
C1073 N1072 1.346 . S
C1073 C1074 1.396 . S
C1073 C1083 1.510 . S
C1074 C1070 1.401 . S
C1074 C1073 1.396 . S
C1075 C1070 1.499 . S
C1075 H1076 0.959 . S
C1075 H1077 0.960 . S
C1075 H1078 0.961 . S
H1076 C1075 0.959 . S
H1077 C1075 0.960 . S
H1078 C1075 0.961 . S
O1079 Co1054 1.967 . S
O1079 C1087 1.258 . S
O1080 Co1055 1.941 . S
O1080 C1087 1.266 . S
H1081 C1083 0.959 . S
H1082 C1083 0.961 . S
C1083 C1073 1.510 . S
C1083 H1081 0.959 . S
C1083 H1082 0.961 . S
C1083 H1084 0.960 . S
H1084 C1083 0.960 . S
H1085 N1065 0.862 . S
O1086 Co1054 1.920 . S
O1086 C1059 1.289 . S
C1087 O1079 1.258 . S
C1087 O1080 1.266 . S
Co1088 O1091 1.970 . S
Co1088 N1105 1.989 . S
Co1088 O1113 1.967 . S
Co1088 O1120 1.920 . S
Co1089 O1092 1.966 . S
Co1089 N1098 2.022 . S
Co1089 N1106 1.993 . S
Co1089 O1114 1.941 . S
C1090 O1091 1.258 . S
C1090 O1092 1.263 . S
O1091 Co1088 1.970 . S
O1091 C1090 1.258 . S
O1092 Co1089 1.966 . S
O1092 C1090 1.263 . S
C1093 O1094 1.235 . S
C1093 O1120 1.289 . S
O1094 C1093 1.235 . S
C1095 C1097 1.400 . S
C1095 N1098 1.351 . S
C1095 C1100 1.501 . S
C1096 C1097 1.387 . S
C1096 N1099 1.341 . S
C1097 C1095 1.400 . S
C1097 C1096 1.387 . S
N1098 Co1089 2.022 . S
N1098 C1095 1.351 . S
N1098 N1099 1.365 . S
N1099 C1096 1.341 . S
N1099 N1098 1.365 . S
N1099 H1119 0.862 . S
C1100 C1095 1.501 . S
C1100 H1101 0.961 . S
C1100 H1102 0.961 . S
C1100 H1103 0.960 . S
H1101 C1100 0.961 . S
H1102 C1100 0.961 . S
H1103 C1100 0.960 . S
C1104 N1105 1.342 . S
C1104 C1108 1.401 . S
C1104 C1109 1.499 . S
N1105 Co1088 1.989 . S
N1105 C1104 1.342 . S
N1105 N1106 1.388 . S
N1106 Co1089 1.993 . S
N1106 N1105 1.388 . S
N1106 C1107 1.346 . S
C1107 N1106 1.346 . S
C1107 C1108 1.396 . S
C1107 C1117 1.510 . S
C1108 C1104 1.401 . S
C1108 C1107 1.396 . S
C1109 C1104 1.499 . S
C1109 H1110 0.959 . S
C1109 H1111 0.960 . S
C1109 H1112 0.961 . S
H1110 C1109 0.959 . S
H1111 C1109 0.960 . S
H1112 C1109 0.961 . S
O1113 Co1088 1.967 . S
O1113 C1121 1.258 . S
O1114 Co1089 1.941 . S
O1114 C1121 1.266 . S
H1115 C1117 0.959 . S
H1116 C1117 0.961 . S
C1117 C1107 1.510 . S
C1117 H1115 0.959 . S
C1117 H1116 0.961 . S
C1117 H1118 0.960 . S
H1118 C1117 0.960 . S
H1119 N1099 0.862 . S
O1120 Co1088 1.920 . S
O1120 C1093 1.289 . S
C1121 O1113 1.258 . S
C1121 O1114 1.266 . S
Co1122 O1125 1.970 . S
Co1122 N1139 1.989 . S
Co1122 O1147 1.967 . S
Co1122 O1154 1.920 . S
Co1123 O1126 1.966 . S
Co1123 N1132 2.022 . S
Co1123 N1140 1.993 . S
Co1123 O1148 1.941 . S
C1124 O1125 1.258 . S
C1124 O1126 1.263 . S
O1125 Co1122 1.970 . S
O1125 C1124 1.258 . S
O1126 Co1123 1.966 . S
O1126 C1124 1.263 . S
C1127 O1128 1.235 . S
C1127 O1154 1.289 . S
O1128 C1127 1.235 . S
C1129 C1131 1.400 . S
C1129 N1132 1.351 . S
C1129 C1134 1.501 . S
C1130 C1131 1.387 . S
C1130 N1133 1.341 . S
C1131 C1129 1.400 . S
C1131 C1130 1.387 . S
N1132 Co1123 2.022 . S
N1132 C1129 1.351 . S
N1132 N1133 1.365 . S
N1133 C1130 1.341 . S
N1133 N1132 1.365 . S
N1133 H1153 0.862 . S
C1134 C1129 1.501 . S
C1134 H1135 0.961 . S
C1134 H1136 0.961 . S
C1134 H1137 0.960 . S
H1135 C1134 0.961 . S
H1136 C1134 0.961 . S
H1137 C1134 0.960 . S
C1138 N1139 1.342 . S
C1138 C1142 1.401 . S
C1138 C1143 1.499 . S
N1139 Co1122 1.989 . S
N1139 C1138 1.342 . S
N1139 N1140 1.388 . S
N1140 Co1123 1.993 . S
N1140 N1139 1.388 . S
N1140 C1141 1.346 . S
C1141 N1140 1.346 . S
C1141 C1142 1.396 . S
C1141 C1151 1.510 . S
C1142 C1138 1.401 . S
C1142 C1141 1.396 . S
C1143 C1138 1.499 . S
C1143 H1144 0.959 . S
C1143 H1145 0.960 . S
C1143 H1146 0.961 . S
H1144 C1143 0.959 . S
H1145 C1143 0.960 . S
H1146 C1143 0.961 . S
O1147 Co1122 1.967 . S
O1147 C1155 1.258 . S
O1148 Co1123 1.941 . S
O1148 C1155 1.266 . S
H1149 C1151 0.959 . S
H1150 C1151 0.961 . S
C1151 C1141 1.510 . S
C1151 H1149 0.959 . S
C1151 H1150 0.961 . S
C1151 H1152 0.960 . S
H1152 C1151 0.960 . S
H1153 N1133 0.862 . S
O1154 Co1122 1.920 . S
O1154 C1127 1.289 . S
C1155 O1147 1.258 . S
C1155 O1148 1.266 . S
Co1156 O1159 1.970 . S
Co1156 N1173 1.989 . S
Co1156 O1181 1.967 . S
Co1156 O1188 1.920 . S
Co1157 O1160 1.966 . S
Co1157 N1166 2.022 . S
Co1157 N1174 1.993 . S
Co1157 O1182 1.941 . S
C1158 O1159 1.258 . S
C1158 O1160 1.263 . S
O1159 Co1156 1.970 . S
O1159 C1158 1.258 . S
O1160 Co1157 1.966 . S
O1160 C1158 1.263 . S
C1161 O1162 1.235 . S
C1161 O1188 1.289 . S
O1162 C1161 1.235 . S
C1163 C1165 1.400 . S
C1163 N1166 1.351 . S
C1163 C1168 1.501 . S
C1164 C1165 1.387 . S
C1164 N1167 1.341 . S
C1165 C1163 1.400 . S
C1165 C1164 1.387 . S
N1166 Co1157 2.022 . S
N1166 C1163 1.351 . S
N1166 N1167 1.365 . S
N1167 C1164 1.341 . S
N1167 N1166 1.365 . S
N1167 H1187 0.862 . S
C1168 C1163 1.501 . S
C1168 H1169 0.961 . S
C1168 H1170 0.961 . S
C1168 H1171 0.960 . S
H1169 C1168 0.961 . S
H1170 C1168 0.961 . S
H1171 C1168 0.960 . S
C1172 N1173 1.342 . S
C1172 C1176 1.401 . S
C1172 C1177 1.499 . S
N1173 Co1156 1.989 . S
N1173 C1172 1.342 . S
N1173 N1174 1.388 . S
N1174 Co1157 1.993 . S
N1174 N1173 1.388 . S
N1174 C1175 1.346 . S
C1175 N1174 1.346 . S
C1175 C1176 1.396 . S
C1175 C1185 1.510 . S
C1176 C1172 1.401 . S
C1176 C1175 1.396 . S
C1177 C1172 1.499 . S
C1177 H1178 0.959 . S
C1177 H1179 0.960 . S
C1177 H1180 0.961 . S
H1178 C1177 0.959 . S
H1179 C1177 0.960 . S
H1180 C1177 0.961 . S
O1181 Co1156 1.967 . S
O1181 C1189 1.258 . S
O1182 Co1157 1.941 . S
O1182 C1189 1.266 . S
H1183 C1185 0.959 . S
H1184 C1185 0.961 . S
C1185 C1175 1.510 . S
C1185 H1183 0.959 . S
C1185 H1184 0.961 . S
C1185 H1186 0.960 . S
H1186 C1185 0.960 . S
H1187 N1167 0.862 . S
O1188 Co1156 1.920 . S
O1188 C1161 1.289 . S
C1189 O1181 1.258 . S
C1189 O1182 1.266 . S
Co1190 O1193 1.970 . S
Co1190 N1207 1.989 . S
Co1190 O1215 1.967 . S
Co1190 O1222 1.920 . S
Co1191 O1194 1.966 . S
Co1191 N1200 2.022 . S
Co1191 N1208 1.993 . S
Co1191 O1216 1.941 . S
C1192 O1193 1.258 . S
C1192 O1194 1.263 . S
O1193 Co1190 1.970 . S
O1193 C1192 1.258 . S
O1194 Co1191 1.966 . S
O1194 C1192 1.263 . S
C1195 O1196 1.235 . S
C1195 O1222 1.289 . S
O1196 C1195 1.235 . S
C1197 C1199 1.400 . S
C1197 N1200 1.351 . S
C1197 C1202 1.501 . S
C1198 C1199 1.387 . S
C1198 N1201 1.341 . S
C1199 C1197 1.400 . S
C1199 C1198 1.387 . S
N1200 Co1191 2.022 . S
N1200 C1197 1.351 . S
N1200 N1201 1.365 . S
N1201 C1198 1.341 . S
N1201 N1200 1.365 . S
N1201 H1221 0.862 . S
C1202 C1197 1.501 . S
C1202 H1203 0.961 . S
C1202 H1204 0.961 . S
C1202 H1205 0.960 . S
H1203 C1202 0.961 . S
H1204 C1202 0.961 . S
H1205 C1202 0.960 . S
C1206 N1207 1.342 . S
C1206 C1210 1.401 . S
C1206 C1211 1.499 . S
N1207 Co1190 1.989 . S
N1207 C1206 1.342 . S
N1207 N1208 1.388 . S
N1208 Co1191 1.993 . S
N1208 N1207 1.388 . S
N1208 C1209 1.346 . S
C1209 N1208 1.346 . S
C1209 C1210 1.396 . S
C1209 C1219 1.510 . S
C1210 C1206 1.401 . S
C1210 C1209 1.396 . S
C1211 C1206 1.499 . S
C1211 H1212 0.959 . S
C1211 H1213 0.960 . S
C1211 H1214 0.961 . S
H1212 C1211 0.959 . S
H1213 C1211 0.960 . S
H1214 C1211 0.961 . S
O1215 Co1190 1.967 . S
O1215 C1223 1.258 . S
O1216 Co1191 1.941 . S
O1216 C1223 1.266 . S
H1217 C1219 0.959 . S
H1218 C1219 0.961 . S
C1219 C1209 1.510 . S
C1219 H1217 0.959 . S
C1219 H1218 0.961 . S
C1219 H1220 0.960 . S
H1220 C1219 0.960 . S
H1221 N1201 0.862 . S
O1222 Co1190 1.920 . S
O1222 C1195 1.289 . S
C1223 O1215 1.258 . S
C1223 O1216 1.266 . S
Co1224 O1227 1.970 . S
Co1224 N1241 1.989 . S
Co1224 O1249 1.967 . S
Co1224 O1256 1.920 . S
Co1225 O1228 1.966 . S
Co1225 N1234 2.022 . S
Co1225 N1242 1.993 . S
Co1225 O1250 1.941 . S
C1226 O1227 1.258 . S
C1226 O1228 1.263 . S
O1227 Co1224 1.970 . S
O1227 C1226 1.258 . S
O1228 Co1225 1.966 . S
O1228 C1226 1.263 . S
C1229 O1230 1.235 . S
C1229 O1256 1.289 . S
O1230 C1229 1.235 . S
C1231 C1233 1.400 . S
C1231 N1234 1.351 . S
C1231 C1236 1.501 . S
C1232 C1233 1.387 . S
C1232 N1235 1.341 . S
C1233 C1231 1.400 . S
C1233 C1232 1.387 . S
N1234 Co1225 2.022 . S
N1234 C1231 1.351 . S
N1234 N1235 1.365 . S
N1235 C1232 1.341 . S
N1235 N1234 1.365 . S
N1235 H1255 0.862 . S
C1236 C1231 1.501 . S
C1236 H1237 0.961 . S
C1236 H1238 0.961 . S
C1236 H1239 0.960 . S
H1237 C1236 0.961 . S
H1238 C1236 0.961 . S
H1239 C1236 0.960 . S
C1240 N1241 1.342 . S
C1240 C1244 1.401 . S
C1240 C1245 1.499 . S
N1241 Co1224 1.989 . S
N1241 C1240 1.342 . S
N1241 N1242 1.388 . S
N1242 Co1225 1.993 . S
N1242 N1241 1.388 . S
N1242 C1243 1.346 . S
C1243 N1242 1.346 . S
C1243 C1244 1.396 . S
C1243 C1253 1.510 . S
C1244 C1240 1.401 . S
C1244 C1243 1.396 . S
C1245 C1240 1.499 . S
C1245 H1246 0.959 . S
C1245 H1247 0.960 . S
C1245 H1248 0.961 . S
H1246 C1245 0.959 . S
H1247 C1245 0.960 . S
H1248 C1245 0.961 . S
O1249 Co1224 1.967 . S
O1249 C1257 1.258 . S
O1250 Co1225 1.941 . S
O1250 C1257 1.266 . S
H1251 C1253 0.959 . S
H1252 C1253 0.961 . S
C1253 C1243 1.510 . S
C1253 H1251 0.959 . S
C1253 H1252 0.961 . S
C1253 H1254 0.960 . S
H1254 C1253 0.960 . S
H1255 N1235 0.862 . S
O1256 Co1224 1.920 . S
O1256 C1229 1.289 . S
C1257 O1249 1.258 . S
C1257 O1250 1.266 . S
Co1258 O1261 1.970 . S
Co1258 N1275 1.989 . S
Co1258 O1283 1.967 . S
Co1258 O1290 1.920 . S
Co1259 O1262 1.966 . S
Co1259 N1268 2.022 . S
Co1259 N1276 1.993 . S
Co1259 O1284 1.941 . S
C1260 O1261 1.258 . S
C1260 O1262 1.263 . S
O1261 Co1258 1.970 . S
O1261 C1260 1.258 . S
O1262 Co1259 1.966 . S
O1262 C1260 1.263 . S
C1263 O1264 1.235 . S
C1263 O1290 1.289 . S
O1264 C1263 1.235 . S
C1265 C1267 1.400 . S
C1265 N1268 1.351 . S
C1265 C1270 1.501 . S
C1266 C1267 1.387 . S
C1266 N1269 1.341 . S
C1267 C1265 1.400 . S
C1267 C1266 1.387 . S
N1268 Co1259 2.022 . S
N1268 C1265 1.351 . S
N1268 N1269 1.365 . S
N1269 C1266 1.341 . S
N1269 N1268 1.365 . S
N1269 H1289 0.862 . S
C1270 C1265 1.501 . S
C1270 H1271 0.961 . S
C1270 H1272 0.961 . S
C1270 H1273 0.960 . S
H1271 C1270 0.961 . S
H1272 C1270 0.961 . S
H1273 C1270 0.960 . S
C1274 N1275 1.342 . S
C1274 C1278 1.401 . S
C1274 C1279 1.499 . S
N1275 Co1258 1.989 . S
N1275 C1274 1.342 . S
N1275 N1276 1.388 . S
N1276 Co1259 1.993 . S
N1276 N1275 1.388 . S
N1276 C1277 1.346 . S
C1277 N1276 1.346 . S
C1277 C1278 1.396 . S
C1277 C1287 1.510 . S
C1278 C1274 1.401 . S
C1278 C1277 1.396 . S
C1279 C1274 1.499 . S
C1279 H1280 0.959 . S
C1279 H1281 0.960 . S
C1279 H1282 0.961 . S
H1280 C1279 0.959 . S
H1281 C1279 0.960 . S
H1282 C1279 0.961 . S
O1283 Co1258 1.967 . S
O1283 C1291 1.258 . S
O1284 Co1259 1.941 . S
O1284 C1291 1.266 . S
H1285 C1287 0.959 . S
H1286 C1287 0.961 . S
C1287 C1277 1.510 . S
C1287 H1285 0.959 . S
C1287 H1286 0.961 . S
C1287 H1288 0.960 . S
H1288 C1287 0.960 . S
H1289 N1269 0.862 . S
O1290 Co1258 1.920 . S
O1290 C1263 1.289 . S
C1291 O1283 1.258 . S
C1291 O1284 1.266 . S
Co1292 O1295 1.970 . S
Co1292 N1309 1.989 . S
Co1292 O1317 1.967 . S
Co1292 O1324 1.920 . S
Co1293 O1296 1.966 . S
Co1293 N1302 2.022 . S
Co1293 N1310 1.993 . S
Co1293 O1318 1.941 . S
C1294 O1295 1.258 . S
C1294 O1296 1.263 . S
O1295 Co1292 1.970 . S
O1295 C1294 1.258 . S
O1296 Co1293 1.966 . S
O1296 C1294 1.263 . S
C1297 O1298 1.235 . S
C1297 O1324 1.289 . S
O1298 C1297 1.235 . S
C1299 C1301 1.400 . S
C1299 N1302 1.351 . S
C1299 C1304 1.501 . S
C1300 C1301 1.387 . S
C1300 N1303 1.341 . S
C1301 C1299 1.400 . S
C1301 C1300 1.387 . S
N1302 Co1293 2.022 . S
N1302 C1299 1.351 . S
N1302 N1303 1.365 . S
N1303 C1300 1.341 . S
N1303 N1302 1.365 . S
N1303 H1323 0.862 . S
C1304 C1299 1.501 . S
C1304 H1305 0.961 . S
C1304 H1306 0.961 . S
C1304 H1307 0.960 . S
H1305 C1304 0.961 . S
H1306 C1304 0.961 . S
H1307 C1304 0.960 . S
C1308 N1309 1.342 . S
C1308 C1312 1.401 . S
C1308 C1313 1.499 . S
N1309 Co1292 1.989 . S
N1309 C1308 1.342 . S
N1309 N1310 1.388 . S
N1310 Co1293 1.993 . S
N1310 N1309 1.388 . S
N1310 C1311 1.346 . S
C1311 N1310 1.346 . S
C1311 C1312 1.396 . S
C1311 C1321 1.510 . S
C1312 C1308 1.401 . S
C1312 C1311 1.396 . S
C1313 C1308 1.499 . S
C1313 H1314 0.959 . S
C1313 H1315 0.960 . S
C1313 H1316 0.961 . S
H1314 C1313 0.959 . S
H1315 C1313 0.960 . S
H1316 C1313 0.961 . S
O1317 Co1292 1.967 . S
O1317 C1325 1.258 . S
O1318 Co1293 1.941 . S
O1318 C1325 1.266 . S
H1319 C1321 0.959 . S
H1320 C1321 0.961 . S
C1321 C1311 1.510 . S
C1321 H1319 0.959 . S
C1321 H1320 0.961 . S
C1321 H1322 0.960 . S
H1322 C1321 0.960 . S
H1323 N1303 0.862 . S
O1324 Co1292 1.920 . S
O1324 C1297 1.289 . S
C1325 O1317 1.258 . S
C1325 O1318 1.266 . S
Co1326 O1329 1.970 . S
Co1326 N1343 1.989 . S
Co1326 O1351 1.967 . S
Co1326 O1358 1.920 . S
Co1327 O1330 1.966 . S
Co1327 N1336 2.022 . S
Co1327 N1344 1.993 . S
Co1327 O1352 1.941 . S
C1328 O1329 1.258 . S
C1328 O1330 1.263 . S
O1329 Co1326 1.970 . S
O1329 C1328 1.258 . S
O1330 Co1327 1.966 . S
O1330 C1328 1.263 . S
C1331 O1332 1.235 . S
C1331 O1358 1.289 . S
O1332 C1331 1.235 . S
C1333 C1335 1.400 . S
C1333 N1336 1.351 . S
C1333 C1338 1.501 . S
C1334 C1335 1.387 . S
C1334 N1337 1.341 . S
C1335 C1333 1.400 . S
C1335 C1334 1.387 . S
N1336 Co1327 2.022 . S
N1336 C1333 1.351 . S
N1336 N1337 1.365 . S
N1337 C1334 1.341 . S
N1337 N1336 1.365 . S
N1337 H1357 0.862 . S
C1338 C1333 1.501 . S
C1338 H1339 0.961 . S
C1338 H1340 0.961 . S
C1338 H1341 0.960 . S
H1339 C1338 0.961 . S
H1340 C1338 0.961 . S
H1341 C1338 0.960 . S
C1342 N1343 1.342 . S
C1342 C1346 1.401 . S
C1342 C1347 1.499 . S
N1343 Co1326 1.989 . S
N1343 C1342 1.342 . S
N1343 N1344 1.388 . S
N1344 Co1327 1.993 . S
N1344 N1343 1.388 . S
N1344 C1345 1.346 . S
C1345 N1344 1.346 . S
C1345 C1346 1.396 . S
C1345 C1355 1.510 . S
C1346 C1342 1.401 . S
C1346 C1345 1.396 . S
C1347 C1342 1.499 . S
C1347 H1348 0.959 . S
C1347 H1349 0.960 . S
C1347 H1350 0.961 . S
H1348 C1347 0.959 . S
H1349 C1347 0.960 . S
H1350 C1347 0.961 . S
O1351 Co1326 1.967 . S
O1351 C1359 1.258 . S
O1352 Co1327 1.941 . S
O1352 C1359 1.266 . S
H1353 C1355 0.959 . S
H1354 C1355 0.961 . S
C1355 C1345 1.510 . S
C1355 H1353 0.959 . S
C1355 H1354 0.961 . S
C1355 H1356 0.960 . S
H1356 C1355 0.960 . S
H1357 N1337 0.862 . S
O1358 Co1326 1.920 . S
O1358 C1331 1.289 . S
C1359 O1351 1.258 . S
C1359 O1352 1.266 . S
Co1360 O1363 1.970 . S
Co1360 N1377 1.989 . S
Co1360 O1385 1.967 . S
Co1360 O1392 1.920 . S
Co1361 O1364 1.966 . S
Co1361 N1370 2.022 . S
Co1361 N1378 1.993 . S
Co1361 O1386 1.941 . S
C1362 O1363 1.258 . S
C1362 O1364 1.263 . S
O1363 Co1360 1.970 . S
O1363 C1362 1.258 . S
O1364 Co1361 1.966 . S
O1364 C1362 1.263 . S
C1365 O1366 1.235 . S
C1365 O1392 1.289 . S
O1366 C1365 1.235 . S
C1367 C1369 1.400 . S
C1367 N1370 1.351 . S
C1367 C1372 1.501 . S
C1368 C1369 1.387 . S
C1368 N1371 1.341 . S
C1369 C1367 1.400 . S
C1369 C1368 1.387 . S
N1370 Co1361 2.022 . S
N1370 C1367 1.351 . S
N1370 N1371 1.365 . S
N1371 C1368 1.341 . S
N1371 N1370 1.365 . S
N1371 H1391 0.862 . S
C1372 C1367 1.501 . S
C1372 H1373 0.961 . S
C1372 H1374 0.961 . S
C1372 H1375 0.960 . S
H1373 C1372 0.961 . S
H1374 C1372 0.961 . S
H1375 C1372 0.960 . S
C1376 N1377 1.342 . S
C1376 C1380 1.401 . S
C1376 C1381 1.499 . S
N1377 Co1360 1.989 . S
N1377 C1376 1.342 . S
N1377 N1378 1.388 . S
N1378 Co1361 1.993 . S
N1378 N1377 1.388 . S
N1378 C1379 1.346 . S
C1379 N1378 1.346 . S
C1379 C1380 1.396 . S
C1379 C1389 1.510 . S
C1380 C1376 1.401 . S
C1380 C1379 1.396 . S
C1381 C1376 1.499 . S
C1381 H1382 0.959 . S
C1381 H1383 0.960 . S
C1381 H1384 0.961 . S
H1382 C1381 0.959 . S
H1383 C1381 0.960 . S
H1384 C1381 0.961 . S
O1385 Co1360 1.967 . S
O1385 C1393 1.258 . S
O1386 Co1361 1.941 . S
O1386 C1393 1.266 . S
H1387 C1389 0.959 . S
H1388 C1389 0.961 . S
C1389 C1379 1.510 . S
C1389 H1387 0.959 . S
C1389 H1388 0.961 . S
C1389 H1390 0.960 . S
H1390 C1389 0.960 . S
H1391 N1371 0.862 . S
O1392 Co1360 1.920 . S
O1392 C1365 1.289 . S
C1393 O1385 1.258 . S
C1393 O1386 1.266 . S
Co1394 O1397 1.970 . S
Co1394 N1411 1.989 . S
Co1394 O1419 1.967 . S
Co1394 O1426 1.920 . S
Co1395 O1398 1.966 . S
Co1395 N1404 2.022 . S
Co1395 N1412 1.993 . S
Co1395 O1420 1.941 . S
C1396 O1397 1.258 . S
C1396 O1398 1.263 . S
O1397 Co1394 1.970 . S
O1397 C1396 1.258 . S
O1398 Co1395 1.966 . S
O1398 C1396 1.263 . S
C1399 O1400 1.235 . S
C1399 O1426 1.289 . S
O1400 C1399 1.235 . S
C1401 C1403 1.400 . S
C1401 N1404 1.351 . S
C1401 C1406 1.501 . S
C1402 C1403 1.387 . S
C1402 N1405 1.341 . S
C1403 C1401 1.400 . S
C1403 C1402 1.387 . S
N1404 Co1395 2.022 . S
N1404 C1401 1.351 . S
N1404 N1405 1.365 . S
N1405 C1402 1.341 . S
N1405 N1404 1.365 . S
N1405 H1425 0.862 . S
C1406 C1401 1.501 . S
C1406 H1407 0.961 . S
C1406 H1408 0.961 . S
C1406 H1409 0.960 . S
H1407 C1406 0.961 . S
H1408 C1406 0.961 . S
H1409 C1406 0.960 . S
C1410 N1411 1.342 . S
C1410 C1414 1.401 . S
C1410 C1415 1.499 . S
N1411 Co1394 1.989 . S
N1411 C1410 1.342 . S
N1411 N1412 1.388 . S
N1412 Co1395 1.993 . S
N1412 N1411 1.388 . S
N1412 C1413 1.346 . S
C1413 N1412 1.346 . S
C1413 C1414 1.396 . S
C1413 C1423 1.510 . S
C1414 C1410 1.401 . S
C1414 C1413 1.396 . S
C1415 C1410 1.499 . S
C1415 H1416 0.959 . S
C1415 H1417 0.960 . S
C1415 H1418 0.961 . S
H1416 C1415 0.959 . S
H1417 C1415 0.960 . S
H1418 C1415 0.961 . S
O1419 Co1394 1.967 . S
O1419 C1427 1.258 . S
O1420 Co1395 1.941 . S
O1420 C1427 1.266 . S
H1421 C1423 0.959 . S
H1422 C1423 0.961 . S
C1423 C1413 1.510 . S
C1423 H1421 0.959 . S
C1423 H1422 0.961 . S
C1423 H1424 0.960 . S
H1424 C1423 0.960 . S
H1425 N1405 0.862 . S
O1426 Co1394 1.920 . S
O1426 C1399 1.289 . S
C1427 O1419 1.258 . S
C1427 O1420 1.266 . S
Co1428 O1431 1.970 . S
Co1428 N1445 1.989 . S
Co1428 O1453 1.967 . S
Co1428 O1460 1.920 . S
Co1429 O1432 1.966 . S
Co1429 N1438 2.022 . S
Co1429 N1446 1.993 . S
Co1429 O1454 1.941 . S
C1430 O1431 1.258 . S
C1430 O1432 1.263 . S
O1431 Co1428 1.970 . S
O1431 C1430 1.258 . S
O1432 Co1429 1.966 . S
O1432 C1430 1.263 . S
C1433 O1434 1.235 . S
C1433 O1460 1.289 . S
O1434 C1433 1.235 . S
C1435 C1437 1.400 . S
C1435 N1438 1.351 . S
C1435 C1440 1.501 . S
C1436 C1437 1.387 . S
C1436 N1439 1.341 . S
C1437 C1435 1.400 . S
C1437 C1436 1.387 . S
N1438 Co1429 2.022 . S
N1438 C1435 1.351 . S
N1438 N1439 1.365 . S
N1439 C1436 1.341 . S
N1439 N1438 1.365 . S
N1439 H1459 0.862 . S
C1440 C1435 1.501 . S
C1440 H1441 0.961 . S
C1440 H1442 0.961 . S
C1440 H1443 0.960 . S
H1441 C1440 0.961 . S
H1442 C1440 0.961 . S
H1443 C1440 0.960 . S
C1444 N1445 1.342 . S
C1444 C1448 1.401 . S
C1444 C1449 1.499 . S
N1445 Co1428 1.989 . S
N1445 C1444 1.342 . S
N1445 N1446 1.388 . S
N1446 Co1429 1.993 . S
N1446 N1445 1.388 . S
N1446 C1447 1.346 . S
C1447 N1446 1.346 . S
C1447 C1448 1.396 . S
C1447 C1457 1.510 . S
C1448 C1444 1.401 . S
C1448 C1447 1.396 . S
C1449 C1444 1.499 . S
C1449 H1450 0.959 . S
C1449 H1451 0.960 . S
C1449 H1452 0.961 . S
H1450 C1449 0.959 . S
H1451 C1449 0.960 . S
H1452 C1449 0.961 . S
O1453 Co1428 1.967 . S
O1453 C1461 1.258 . S
O1454 Co1429 1.941 . S
O1454 C1461 1.266 . S
H1455 C1457 0.959 . S
H1456 C1457 0.961 . S
C1457 C1447 1.510 . S
C1457 H1455 0.959 . S
C1457 H1456 0.961 . S
C1457 H1458 0.960 . S
H1458 C1457 0.960 . S
H1459 N1439 0.862 . S
O1460 Co1428 1.920 . S
O1460 C1433 1.289 . S
C1461 O1453 1.258 . S
C1461 O1454 1.266 . S
Co1462 O1465 1.970 . S
Co1462 N1479 1.989 . S
Co1462 O1487 1.967 . S
Co1462 O1494 1.920 . S
Co1463 O1466 1.966 . S
Co1463 N1472 2.022 . S
Co1463 N1480 1.993 . S
Co1463 O1488 1.941 . S
C1464 O1465 1.258 . S
C1464 O1466 1.263 . S
O1465 Co1462 1.970 . S
O1465 C1464 1.258 . S
O1466 Co1463 1.966 . S
O1466 C1464 1.263 . S
C1467 O1468 1.235 . S
C1467 O1494 1.289 . S
O1468 C1467 1.235 . S
C1469 C1471 1.400 . S
C1469 N1472 1.351 . S
C1469 C1474 1.501 . S
C1470 C1471 1.387 . S
C1470 N1473 1.341 . S
C1471 C1469 1.400 . S
C1471 C1470 1.387 . S
N1472 Co1463 2.022 . S
N1472 C1469 1.351 . S
N1472 N1473 1.365 . S
N1473 C1470 1.341 . S
N1473 N1472 1.365 . S
N1473 H1493 0.862 . S
C1474 C1469 1.501 . S
C1474 H1475 0.961 . S
C1474 H1476 0.961 . S
C1474 H1477 0.960 . S
H1475 C1474 0.961 . S
H1476 C1474 0.961 . S
H1477 C1474 0.960 . S
C1478 N1479 1.342 . S
C1478 C1482 1.401 . S
C1478 C1483 1.499 . S
N1479 Co1462 1.989 . S
N1479 C1478 1.342 . S
N1479 N1480 1.388 . S
N1480 Co1463 1.993 . S
N1480 N1479 1.388 . S
N1480 C1481 1.346 . S
C1481 N1480 1.346 . S
C1481 C1482 1.396 . S
C1481 C1491 1.510 . S
C1482 C1478 1.401 . S
C1482 C1481 1.396 . S
C1483 C1478 1.499 . S
C1483 H1484 0.959 . S
C1483 H1485 0.960 . S
C1483 H1486 0.961 . S
H1484 C1483 0.959 . S
H1485 C1483 0.960 . S
H1486 C1483 0.961 . S
O1487 Co1462 1.967 . S
O1487 C1495 1.258 . S
O1488 Co1463 1.941 . S
O1488 C1495 1.266 . S
H1489 C1491 0.959 . S
H1490 C1491 0.961 . S
C1491 C1481 1.510 . S
C1491 H1489 0.959 . S
C1491 H1490 0.961 . S
C1491 H1492 0.960 . S
H1492 C1491 0.960 . S
H1493 N1473 0.862 . S
O1494 Co1462 1.920 . S
O1494 C1467 1.289 . S
C1495 O1487 1.258 . S
C1495 O1488 1.266 . S
Co1496 O1499 1.970 . S
Co1496 N1513 1.989 . S
Co1496 O1521 1.967 . S
Co1496 O1528 1.920 . S
Co1497 O1500 1.966 . S
Co1497 N1506 2.022 . S
Co1497 N1514 1.993 . S
Co1497 O1522 1.941 . S
C1498 O1499 1.258 . S
C1498 O1500 1.263 . S
O1499 Co1496 1.970 . S
O1499 C1498 1.258 . S
O1500 Co1497 1.966 . S
O1500 C1498 1.263 . S
C1501 O1502 1.235 . S
C1501 O1528 1.289 . S
O1502 C1501 1.235 . S
C1503 C1505 1.400 . S
C1503 N1506 1.351 . S
C1503 C1508 1.501 . S
C1504 C1505 1.387 . S
C1504 N1507 1.341 . S
C1505 C1503 1.400 . S
C1505 C1504 1.387 . S
N1506 Co1497 2.022 . S
N1506 C1503 1.351 . S
N1506 N1507 1.365 . S
N1507 C1504 1.341 . S
N1507 N1506 1.365 . S
N1507 H1527 0.862 . S
C1508 C1503 1.501 . S
C1508 H1509 0.961 . S
C1508 H1510 0.961 . S
C1508 H1511 0.960 . S
H1509 C1508 0.961 . S
H1510 C1508 0.961 . S
H1511 C1508 0.960 . S
C1512 N1513 1.342 . S
C1512 C1516 1.401 . S
C1512 C1517 1.499 . S
N1513 Co1496 1.989 . S
N1513 C1512 1.342 . S
N1513 N1514 1.388 . S
N1514 Co1497 1.993 . S
N1514 N1513 1.388 . S
N1514 C1515 1.346 . S
C1515 N1514 1.346 . S
C1515 C1516 1.396 . S
C1515 C1525 1.510 . S
C1516 C1512 1.401 . S
C1516 C1515 1.396 . S
C1517 C1512 1.499 . S
C1517 H1518 0.959 . S
C1517 H1519 0.960 . S
C1517 H1520 0.961 . S
H1518 C1517 0.959 . S
H1519 C1517 0.960 . S
H1520 C1517 0.961 . S
O1521 Co1496 1.967 . S
O1521 C1529 1.258 . S
O1522 Co1497 1.941 . S
O1522 C1529 1.266 . S
H1523 C1525 0.959 . S
H1524 C1525 0.961 . S
C1525 C1515 1.510 . S
C1525 H1523 0.959 . S
C1525 H1524 0.961 . S
C1525 H1526 0.960 . S
H1526 C1525 0.960 . S
H1527 N1507 0.862 . S
O1528 Co1496 1.920 . S
O1528 C1501 1.289 . S
C1529 O1521 1.258 . S
C1529 O1522 1.266 . S
Co1530 O1533 1.970 . S
Co1530 N1547 1.989 . S
Co1530 O1555 1.967 . S
Co1530 O1562 1.920 . S
Co1531 O1534 1.966 . S
Co1531 N1540 2.022 . S
Co1531 N1548 1.993 . S
Co1531 O1556 1.941 . S
C1532 O1533 1.258 . S
C1532 O1534 1.263 . S
O1533 Co1530 1.970 . S
O1533 C1532 1.258 . S
O1534 Co1531 1.966 . S
O1534 C1532 1.263 . S
C1535 O1536 1.235 . S
C1535 O1562 1.289 . S
O1536 C1535 1.235 . S
C1537 C1539 1.400 . S
C1537 N1540 1.351 . S
C1537 C1542 1.501 . S
C1538 C1539 1.387 . S
C1538 N1541 1.341 . S
C1539 C1537 1.400 . S
C1539 C1538 1.387 . S
N1540 Co1531 2.022 . S
N1540 C1537 1.351 . S
N1540 N1541 1.365 . S
N1541 C1538 1.341 . S
N1541 N1540 1.365 . S
N1541 H1561 0.862 . S
C1542 C1537 1.501 . S
C1542 H1543 0.961 . S
C1542 H1544 0.961 . S
C1542 H1545 0.960 . S
H1543 C1542 0.961 . S
H1544 C1542 0.961 . S
H1545 C1542 0.960 . S
C1546 N1547 1.342 . S
C1546 C1550 1.401 . S
C1546 C1551 1.499 . S
N1547 Co1530 1.989 . S
N1547 C1546 1.342 . S
N1547 N1548 1.388 . S
N1548 Co1531 1.993 . S
N1548 N1547 1.388 . S
N1548 C1549 1.346 . S
C1549 N1548 1.346 . S
C1549 C1550 1.396 . S
C1549 C1559 1.510 . S
C1550 C1546 1.401 . S
C1550 C1549 1.396 . S
C1551 C1546 1.499 . S
C1551 H1552 0.959 . S
C1551 H1553 0.960 . S
C1551 H1554 0.961 . S
H1552 C1551 0.959 . S
H1553 C1551 0.960 . S
H1554 C1551 0.961 . S
O1555 Co1530 1.967 . S
O1555 C1563 1.258 . S
O1556 Co1531 1.941 . S
O1556 C1563 1.266 . S
H1557 C1559 0.959 . S
H1558 C1559 0.961 . S
C1559 C1549 1.510 . S
C1559 H1557 0.959 . S
C1559 H1558 0.961 . S
C1559 H1560 0.960 . S
H1560 C1559 0.960 . S
H1561 N1541 0.862 . S
O1562 Co1530 1.920 . S
O1562 C1535 1.289 . S
C1563 O1555 1.258 . S
C1563 O1556 1.266 . S
Co1564 O1567 1.970 . S
Co1564 N1581 1.989 . S
Co1564 O1589 1.967 . S
Co1564 O1596 1.920 . S
Co1565 O1568 1.966 . S
Co1565 N1574 2.022 . S
Co1565 N1582 1.993 . S
Co1565 O1590 1.941 . S
C1566 O1567 1.258 . S
C1566 O1568 1.263 . S
O1567 Co1564 1.970 . S
O1567 C1566 1.258 . S
O1568 Co1565 1.966 . S
O1568 C1566 1.263 . S
C1569 O1570 1.235 . S
C1569 O1596 1.289 . S
O1570 C1569 1.235 . S
C1571 C1573 1.400 . S
C1571 N1574 1.351 . S
C1571 C1576 1.501 . S
C1572 C1573 1.387 . S
C1572 N1575 1.341 . S
C1573 C1571 1.400 . S
C1573 C1572 1.387 . S
N1574 Co1565 2.022 . S
N1574 C1571 1.351 . S
N1574 N1575 1.365 . S
N1575 C1572 1.341 . S
N1575 N1574 1.365 . S
N1575 H1595 0.862 . S
C1576 C1571 1.501 . S
C1576 H1577 0.961 . S
C1576 H1578 0.961 . S
C1576 H1579 0.960 . S
H1577 C1576 0.961 . S
H1578 C1576 0.961 . S
H1579 C1576 0.960 . S
C1580 N1581 1.342 . S
C1580 C1584 1.401 . S
C1580 C1585 1.499 . S
N1581 Co1564 1.989 . S
N1581 C1580 1.342 . S
N1581 N1582 1.388 . S
N1582 Co1565 1.993 . S
N1582 N1581 1.388 . S
N1582 C1583 1.346 . S
C1583 N1582 1.346 . S
C1583 C1584 1.396 . S
C1583 C1593 1.510 . S
C1584 C1580 1.401 . S
C1584 C1583 1.396 . S
C1585 C1580 1.499 . S
C1585 H1586 0.959 . S
C1585 H1587 0.960 . S
C1585 H1588 0.961 . S
H1586 C1585 0.959 . S
H1587 C1585 0.960 . S
H1588 C1585 0.961 . S
O1589 Co1564 1.967 . S
O1589 C1597 1.258 . S
O1590 Co1565 1.941 . S
O1590 C1597 1.266 . S
H1591 C1593 0.959 . S
H1592 C1593 0.961 . S
C1593 C1583 1.510 . S
C1593 H1591 0.959 . S
C1593 H1592 0.961 . S
C1593 H1594 0.960 . S
H1594 C1593 0.960 . S
H1595 N1575 0.862 . S
O1596 Co1564 1.920 . S
O1596 C1569 1.289 . S
C1597 O1589 1.258 . S
C1597 O1590 1.266 . S
Co1598 O1601 1.970 . S
Co1598 N1615 1.989 . S
Co1598 O1623 1.967 . S
Co1598 O1630 1.920 . S
Co1599 O1602 1.966 . S
Co1599 N1608 2.022 . S
Co1599 N1616 1.993 . S
Co1599 O1624 1.941 . S
C1600 O1601 1.258 . S
C1600 O1602 1.263 . S
O1601 Co1598 1.970 . S
O1601 C1600 1.258 . S
O1602 Co1599 1.966 . S
O1602 C1600 1.263 . S
C1603 O1604 1.235 . S
C1603 O1630 1.289 . S
O1604 C1603 1.235 . S
C1605 C1607 1.400 . S
C1605 N1608 1.351 . S
C1605 C1610 1.501 . S
C1606 C1607 1.387 . S
C1606 N1609 1.341 . S
C1607 C1605 1.400 . S
C1607 C1606 1.387 . S
N1608 Co1599 2.022 . S
N1608 C1605 1.351 . S
N1608 N1609 1.365 . S
N1609 C1606 1.341 . S
N1609 N1608 1.365 . S
N1609 H1629 0.862 . S
C1610 C1605 1.501 . S
C1610 H1611 0.961 . S
C1610 H1612 0.961 . S
C1610 H1613 0.960 . S
H1611 C1610 0.961 . S
H1612 C1610 0.961 . S
H1613 C1610 0.960 . S
C1614 N1615 1.342 . S
C1614 C1618 1.401 . S
C1614 C1619 1.499 . S
N1615 Co1598 1.989 . S
N1615 C1614 1.342 . S
N1615 N1616 1.388 . S
N1616 Co1599 1.993 . S
N1616 N1615 1.388 . S
N1616 C1617 1.346 . S
C1617 N1616 1.346 . S
C1617 C1618 1.396 . S
C1617 C1627 1.510 . S
C1618 C1614 1.401 . S
C1618 C1617 1.396 . S
C1619 C1614 1.499 . S
C1619 H1620 0.959 . S
C1619 H1621 0.960 . S
C1619 H1622 0.961 . S
H1620 C1619 0.959 . S
H1621 C1619 0.960 . S
H1622 C1619 0.961 . S
O1623 Co1598 1.967 . S
O1623 C1631 1.258 . S
O1624 Co1599 1.941 . S
O1624 C1631 1.266 . S
H1625 C1627 0.959 . S
H1626 C1627 0.961 . S
C1627 C1617 1.510 . S
C1627 H1625 0.959 . S
C1627 H1626 0.961 . S
C1627 H1628 0.960 . S
H1628 C1627 0.960 . S
H1629 N1609 0.862 . S
O1630 Co1598 1.920 . S
O1630 C1603 1.289 . S
C1631 O1623 1.258 . S
C1631 O1624 1.266 . S
H1632 C1640 0.950 . S
H1633 C1645 0.950 . S
H1634 C1642 0.950 . S
H1635 C1644 0.950 . S
H1636 C1646 0.950 . S
H1637 C1648 0.950 . S
H1638 C1650 0.950 . S
H1639 C1651 0.950 . S
C1640 H1632 0.950 . S
C1640 C1641 1.386 . S
C1640 C1642 1.391 . S
C1641 C1640 1.386 . S
C1641 C1645 1.393 . S
C1642 H1634 0.950 . S
C1642 C1640 1.391 . S
C1642 C1643 1.400 . S
C1643 C1642 1.400 . S
C1643 C1644 1.398 . S
C1643 C1649 1.491 . S
C1644 H1635 0.950 . S
C1644 C1643 1.398 . S
C1644 C1645 1.391 . S
C1645 H1633 0.950 . S
C1645 C1641 1.393 . S
C1645 C1644 1.391 . S
C1646 H1636 0.950 . S
C1646 C1647 1.386 . S
C1646 C1648 1.391 . S
C1647 C1646 1.386 . S
C1647 C1651 1.393 . S
C1648 H1637 0.950 . S
C1648 C1646 1.391 . S
C1648 C1649 1.400 . S
C1649 C1643 1.491 . S
C1649 C1648 1.400 . S
C1649 C1650 1.398 . S
C1650 H1638 0.950 . S
C1650 C1649 1.398 . S
C1650 C1651 1.391 . S
C1651 H1639 0.950 . S
C1651 C1647 1.393 . S
C1651 C1650 1.391 . S
H1652 C1660 0.950 . S
H1653 C1665 0.950 . S
H1654 C1662 0.950 1_556 S
H1655 C1664 0.950 . S
H1656 C1666 0.950 . S
H1657 C1668 0.950 . S
H1658 C1670 0.950 . S
H1659 C1671 0.950 . S
C1660 H1652 0.950 . S
C1660 C1661 1.386 . S
C1660 C1662 1.391 . S
C1661 C1660 1.386 . S
C1661 C1665 1.393 . S
C1662 H1654 0.950 1_554 S
C1662 C1660 1.391 . S
C1662 C1663 1.400 . S
C1663 C1662 1.400 . S
C1663 C1664 1.398 . S
C1663 C1669 1.491 . S
C1664 H1655 0.950 . S
C1664 C1663 1.398 . S
C1664 C1665 1.391 . S
C1665 H1653 0.950 . S
C1665 C1661 1.393 . S
C1665 C1664 1.391 . S
C1666 H1656 0.950 . S
C1666 C1667 1.386 1_554 S
C1666 C1668 1.391 . S
C1667 C1666 1.386 1_556 S
C1667 C1671 1.393 . S
C1668 H1657 0.950 . S
C1668 C1666 1.391 . S
C1668 C1669 1.400 . S
C1669 C1663 1.491 . S
C1669 C1668 1.400 . S
C1669 C1670 1.398 1_554 S
C1670 H1658 0.950 . S
C1670 C1669 1.398 1_556 S
C1670 C1671 1.391 . S
C1671 H1659 0.950 . S
C1671 C1667 1.393 . S
C1671 C1670 1.391 . S
H1672 C1680 0.950 . S
H1673 C1685 0.950 . S
H1674 C1682 0.950 . S
H1675 C1684 0.950 . S
H1676 C1686 0.950 . S
H1677 C1688 0.950 . S
H1678 C1690 0.950 . S
H1679 C1691 0.950 . S
C1680 H1672 0.950 . S
C1680 C1681 1.386 . S
C1680 C1682 1.391 . S
C1681 C1680 1.386 . S
C1681 C1685 1.393 . S
C1682 H1674 0.950 . S
C1682 C1680 1.391 . S
C1682 C1683 1.400 . S
C1683 C1682 1.400 . S
C1683 C1684 1.398 . S
C1683 C1689 1.491 . S
C1684 H1675 0.950 . S
C1684 C1683 1.398 . S
C1684 C1685 1.391 . S
C1685 H1673 0.950 . S
C1685 C1681 1.393 . S
C1685 C1684 1.391 . S
C1686 H1676 0.950 . S
C1686 C1687 1.386 . S
C1686 C1688 1.391 . S
C1687 C1686 1.386 . S
C1687 C1691 1.393 . S
C1688 H1677 0.950 . S
C1688 C1686 1.391 . S
C1688 C1689 1.400 . S
C1689 C1683 1.491 . S
C1689 C1688 1.400 . S
C1689 C1690 1.398 . S
C1690 H1678 0.950 . S
C1690 C1689 1.398 . S
C1690 C1691 1.391 . S
C1691 H1679 0.950 . S
C1691 C1687 1.393 . S
C1691 C1690 1.391 . S
H1692 C1700 0.950 . S
H1693 C1705 0.950 . S
H1694 C1702 0.950 . S
H1695 C1704 0.950 . S
H1696 C1706 0.950 . S
H1697 C1708 0.950 1_556 S
H1698 C1710 0.950 . S
H1699 C1711 0.950 . S
C1700 H1692 0.950 . S
C1700 C1701 1.386 1_554 S
C1700 C1702 1.391 . S
C1701 C1700 1.386 1_556 S
C1701 C1705 1.393 . S
C1702 H1694 0.950 . S
C1702 C1700 1.391 . S
C1702 C1703 1.400 . S
C1703 C1702 1.400 . S
C1703 C1704 1.398 1_554 S
C1703 C1709 1.491 . S
C1704 H1695 0.950 . S
C1704 C1703 1.398 1_556 S
C1704 C1705 1.391 . S
C1705 H1693 0.950 . S
C1705 C1701 1.393 . S
C1705 C1704 1.391 . S
C1706 H1696 0.950 . S
C1706 C1707 1.386 . S
C1706 C1708 1.391 . S
C1707 C1706 1.386 . S
C1707 C1711 1.393 . S
C1708 H1697 0.950 1_554 S
C1708 C1706 1.391 . S
C1708 C1709 1.400 . S
C1709 C1703 1.491 . S
C1709 C1708 1.400 . S
C1709 C1710 1.398 . S
C1710 H1698 0.950 . S
C1710 C1709 1.398 . S
C1710 C1711 1.391 . S
C1711 H1699 0.950 . S
C1711 C1707 1.393 . S
C1711 C1710 1.391 . S
H1712 C1720 0.950 . S
H1713 C1725 0.950 . S
H1714 C1722 0.950 . S
H1715 C1724 0.950 . S
H1716 C1726 0.950 . S
H1717 C1728 0.950 . S
H1718 C1730 0.950 . S
H1719 C1731 0.950 . S
C1720 H1712 0.950 . S
C1720 C1721 1.386 . S
C1720 C1722 1.391 . S
C1721 C1720 1.386 . S
C1721 C1725 1.393 . S
C1722 H1714 0.950 . S
C1722 C1720 1.391 . S
C1722 C1723 1.400 . S
C1723 C1722 1.400 . S
C1723 C1724 1.398 . S
C1723 C1729 1.491 . S
C1724 H1715 0.950 . S
C1724 C1723 1.398 . S
C1724 C1725 1.391 . S
C1725 H1713 0.950 . S
C1725 C1721 1.393 . S
C1725 C1724 1.391 . S
C1726 H1716 0.950 . S
C1726 C1727 1.386 . S
C1726 C1728 1.391 . S
C1727 C1726 1.386 . S
C1727 C1731 1.393 . S
C1728 H1717 0.950 . S
C1728 C1726 1.391 . S
C1728 C1729 1.400 . S
C1729 C1723 1.491 . S
C1729 C1728 1.400 . S
C1729 C1730 1.398 . S
C1730 H1718 0.950 . S
C1730 C1729 1.398 . S
C1730 C1731 1.391 . S
C1731 H1719 0.950 . S
C1731 C1727 1.393 . S
C1731 C1730 1.391 . S
H1732 C1740 0.950 . S
H1733 C1745 0.950 . S
H1734 C1742 0.950 . S
H1735 C1744 0.950 1_554 S
H1736 C1746 0.950 . S
H1737 C1748 0.950 . S
H1738 C1750 0.950 . S
H1739 C1751 0.950 . S
C1740 H1732 0.950 . S
C1740 C1741 1.386 . S
C1740 C1742 1.391 1_655 S
C1741 C1740 1.386 . S
C1741 C1745 1.393 . S
C1742 H1734 0.950 . S
C1742 C1740 1.391 1_455 S
C1742 C1743 1.400 . S
C1743 C1742 1.400 . S
C1743 C1744 1.398 . S
C1743 C1749 1.491 . S
C1744 H1735 0.950 1_556 S
C1744 C1743 1.398 . S
C1744 C1745 1.391 1_455 S
C1745 H1733 0.950 . S
C1745 C1741 1.393 . S
C1745 C1744 1.391 1_655 S
C1746 H1736 0.950 . S
C1746 C1747 1.386 . S
C1746 C1748 1.391 . S
C1747 C1746 1.386 . S
C1747 C1751 1.393 1_554 S
C1748 H1737 0.950 . S
C1748 C1746 1.391 . S
C1748 C1749 1.400 1_554 S
C1749 C1743 1.491 . S
C1749 C1748 1.400 1_556 S
C1749 C1750 1.398 . S
C1750 H1738 0.950 . S
C1750 C1749 1.398 . S
C1750 C1751 1.391 . S
C1751 H1739 0.950 . S
C1751 C1747 1.393 1_556 S
C1751 C1750 1.391 . S
H1752 C1760 0.950 . S
H1753 C1765 0.950 . S
H1754 C1762 0.950 . S
H1755 C1764 0.950 . S
H1756 C1766 0.950 . S
H1757 C1768 0.950 . S
H1758 C1770 0.950 . S
H1759 C1771 0.950 . S
C1760 H1752 0.950 . S
C1760 C1761 1.386 . S
C1760 C1762 1.391 . S
C1761 C1760 1.386 . S
C1761 C1765 1.393 . S
C1762 H1754 0.950 . S
C1762 C1760 1.391 . S
C1762 C1763 1.400 . S
C1763 C1762 1.400 . S
C1763 C1764 1.398 . S
C1763 C1769 1.491 . S
C1764 H1755 0.950 . S
C1764 C1763 1.398 . S
C1764 C1765 1.391 . S
C1765 H1753 0.950 . S
C1765 C1761 1.393 . S
C1765 C1764 1.391 . S
C1766 H1756 0.950 . S
C1766 C1767 1.386 . S
C1766 C1768 1.391 . S
C1767 C1766 1.386 . S
C1767 C1771 1.393 . S
C1768 H1757 0.950 . S
C1768 C1766 1.391 . S
C1768 C1769 1.400 . S
C1769 C1763 1.491 . S
C1769 C1768 1.400 . S
C1769 C1770 1.398 . S
C1770 H1758 0.950 . S
C1770 C1769 1.398 . S
C1770 C1771 1.391 . S
C1771 H1759 0.950 . S
C1771 C1767 1.393 . S
C1771 C1770 1.391 . S
H1772 C1780 0.950 . S
H1773 C1785 0.950 . S
H1774 C1782 0.950 . S
H1775 C1784 0.950 . S
H1776 C1786 0.948 1_556 S
H1777 C1788 0.950 . S
H1778 C1790 0.950 . S
H1779 C1791 0.950 . S
C1780 H1772 0.950 . S
C1780 C1781 1.386 . S
C1780 C1782 1.391 1_455 S
C1781 C1780 1.386 . S
C1781 C1785 1.393 . S
C1782 H1774 0.950 . S
C1782 C1780 1.391 1_655 S
C1782 C1783 1.400 . S
C1783 C1782 1.400 . S
C1783 C1784 1.398 . S
C1783 C1789 1.491 . S
C1784 H1775 0.950 . S
C1784 C1783 1.398 . S
C1784 C1785 1.391 1_655 S
C1785 H1773 0.950 . S
C1785 C1781 1.393 . S
C1785 C1784 1.391 1_455 S
C1786 H1776 0.948 1_554 S
C1786 C1787 1.386 . S
C1786 C1788 1.391 1_554 S
C1787 C1786 1.386 . S
C1787 C1791 1.393 . S
C1788 H1777 0.950 . S
C1788 C1786 1.391 1_556 S
C1788 C1789 1.400 . S
C1789 C1783 1.491 . S
C1789 C1788 1.400 . S
C1789 C1790 1.398 1_556 S
C1790 H1778 0.950 . S
C1790 C1789 1.398 1_554 S
C1790 C1791 1.391 . S
C1791 H1779 0.950 . S
C1791 C1787 1.393 . S
C1791 C1790 1.391 . S
H1792 C1800 0.950 . S
H1793 C1805 0.950 . S
H1794 C1802 0.950 . S
H1795 C1804 0.950 . S
H1796 C1806 0.950 . S
H1797 C1808 0.950 . S
H1798 C1810 0.950 . S
H1799 C1811 0.950 . S
C1800 H1792 0.950 . S
C1800 C1801 1.386 . S
C1800 C1802 1.391 . S
C1801 C1800 1.386 . S
C1801 C1805 1.393 . S
C1802 H1794 0.950 . S
C1802 C1800 1.391 . S
C1802 C1803 1.400 . S
C1803 C1802 1.400 . S
C1803 C1804 1.398 . S
C1803 C1809 1.491 . S
C1804 H1795 0.950 . S
C1804 C1803 1.398 . S
C1804 C1805 1.391 . S
C1805 H1793 0.950 . S
C1805 C1801 1.393 . S
C1805 C1804 1.391 . S
C1806 H1796 0.950 . S
C1806 C1807 1.386 . S
C1806 C1808 1.391 . S
C1807 C1806 1.386 . S
C1807 C1811 1.393 . S
C1808 H1797 0.950 . S
C1808 C1806 1.391 . S
C1808 C1809 1.400 . S
C1809 C1803 1.491 . S
C1809 C1808 1.400 . S
C1809 C1810 1.398 . S
C1810 H1798 0.950 . S
C1810 C1809 1.398 . S
C1810 C1811 1.391 . S
C1811 H1799 0.950 . S
C1811 C1807 1.393 . S
C1811 C1810 1.391 . S
H1812 C1820 0.950 . S
H1813 C1825 0.950 . S
H1814 C1822 0.946 1_554 S
H1815 C1824 0.950 . S
H1816 C1826 0.950 . S
H1817 C1828 0.950 . S
H1818 C1830 0.950 . S
H1819 C1831 0.950 . S
C1820 H1812 0.950 . S
C1820 C1821 1.386 . S
C1820 C1822 1.412 . S
C1821 C1820 1.386 . S
C1821 C1825 1.393 . S
C1822 H1814 0.946 1_556 S
C1822 C1820 1.412 . S
C1822 C1823 1.382 1_556 S
C1823 C1822 1.382 1_554 S
C1823 C1824 1.398 . S
C1823 C1829 1.491 . S
C1824 H1815 0.950 . S
C1824 C1823 1.398 . S
C1824 C1825 1.391 1_554 S
C1825 H1813 0.950 . S
C1825 C1821 1.393 . S
C1825 C1824 1.391 1_556 S
C1826 H1816 0.950 . S
C1826 C1827 1.386 . S
C1826 C1828 1.391 . S
C1827 C1826 1.386 . S
C1827 C1831 1.393 . S
C1828 H1817 0.950 . S
C1828 C1826 1.391 . S
C1828 C1829 1.400 . S
C1829 C1823 1.491 . S
C1829 C1828 1.400 . S
C1829 C1830 1.398 . S
C1830 H1818 0.950 . S
C1830 C1829 1.398 . S
C1830 C1831 1.391 . S
C1831 H1819 0.950 . S
C1831 C1827 1.393 . S
C1831 C1830 1.391 . S
H1832 C1840 0.950 . S
H1833 C1845 0.950 . S
H1834 C1842 0.950 . S
H1835 C1844 0.950 . S
H1836 C1846 0.950 . S
H1837 C1848 0.950 . S
H1838 C1850 0.950 . S
H1839 C1851 0.950 . S
C1840 H1832 0.950 . S
C1840 C1841 1.386 . S
C1840 C1842 1.391 . S
C1841 C1840 1.386 . S
C1841 C1845 1.393 . S
C1842 H1834 0.950 . S
C1842 C1840 1.391 . S
C1842 C1843 1.400 . S
C1843 C1842 1.400 . S
C1843 C1844 1.398 . S
C1843 C1849 1.491 . S
C1844 H1835 0.950 . S
C1844 C1843 1.398 . S
C1844 C1845 1.391 . S
C1845 H1833 0.950 . S
C1845 C1841 1.393 . S
C1845 C1844 1.391 . S
C1846 H1836 0.950 . S
C1846 C1847 1.386 . S
C1846 C1848 1.391 . S
C1847 C1846 1.386 . S
C1847 C1851 1.393 . S
C1848 H1837 0.950 . S
C1848 C1846 1.391 . S
C1848 C1849 1.400 . S
C1849 C1843 1.491 . S
C1849 C1848 1.400 . S
C1849 C1850 1.398 . S
C1850 H1838 0.950 . S
C1850 C1849 1.398 . S
C1850 C1851 1.391 . S
C1851 H1839 0.950 . S
C1851 C1847 1.393 . S
C1851 C1850 1.391 . S
H1852 C1860 0.950 . S
H1853 C1865 0.950 . S
H1854 C1862 0.950 . S
H1855 C1864 0.948 1_544 S
H1856 C1866 0.950 . S
H1857 C1868 0.950 . S
H1858 C1870 0.950 . S
H1859 C1871 0.950 . S
C1860 H1852 0.950 . S
C1860 C1861 1.386 . S
C1860 C1862 1.391 1_556 S
C1861 C1860 1.386 . S
C1861 C1865 1.393 . S
C1862 H1854 0.950 . S
C1862 C1860 1.391 1_554 S
C1862 C1863 1.400 . S
C1863 C1862 1.400 . S
C1863 C1864 1.382 1_554 S
C1863 C1869 1.491 . S
C1864 H1855 0.948 1_566 S
C1864 C1863 1.382 1_556 S
C1864 C1865 1.409 . S
C1865 H1853 0.950 . S
C1865 C1861 1.393 . S
C1865 C1864 1.409 . S
C1866 H1856 0.950 . S
C1866 C1867 1.386 . S
C1866 C1868 1.391 . S
C1867 C1866 1.386 . S
C1867 C1871 1.393 1_545 S
C1868 H1857 0.950 . S
C1868 C1866 1.391 . S
C1868 C1869 1.400 1_545 S
C1869 C1863 1.491 . S
C1869 C1868 1.400 1_565 S
C1869 C1870 1.398 . S
C1870 H1858 0.950 . S
C1870 C1869 1.398 . S
C1870 C1871 1.391 . S
C1871 H1859 0.950 . S
C1871 C1867 1.393 1_565 S
C1871 C1870 1.391 . S
H1872 C1880 0.950 . S
H1873 C1885 0.950 . S
H1874 C1882 0.950 . S
H1875 C1884 0.950 . S
H1876 C1886 0.950 . S
H1877 C1888 0.950 . S
H1878 C1890 0.950 . S
H1879 C1891 0.950 . S
C1880 H1872 0.950 . S
C1880 C1881 1.386 . S
C1880 C1882 1.391 . S
C1881 C1880 1.386 . S
C1881 C1885 1.393 . S
C1882 H1874 0.950 . S
C1882 C1880 1.391 . S
C1882 C1883 1.400 . S
C1883 C1882 1.400 . S
C1883 C1884 1.398 . S
C1883 C1889 1.491 . S
C1884 H1875 0.950 . S
C1884 C1883 1.398 . S
C1884 C1885 1.391 . S
C1885 H1873 0.950 . S
C1885 C1881 1.393 . S
C1885 C1884 1.391 . S
C1886 H1876 0.950 . S
C1886 C1887 1.386 . S
C1886 C1888 1.391 . S
C1887 C1886 1.386 . S
C1887 C1891 1.393 . S
C1888 H1877 0.950 . S
C1888 C1886 1.391 . S
C1888 C1889 1.400 . S
C1889 C1883 1.491 . S
C1889 C1888 1.400 . S
C1889 C1890 1.398 . S
C1890 H1878 0.950 . S
C1890 C1889 1.398 . S
C1890 C1891 1.391 . S
C1891 H1879 0.950 . S
C1891 C1887 1.393 . S
C1891 C1890 1.391 . S
H1892 C1900 0.950 . S
H1893 C1905 0.950 . S
H1894 C1902 0.950 . S
H1895 C1904 0.950 . S
H1896 C1906 0.950 . S
H1897 C1908 0.950 1_556 S
H1898 C1910 0.950 . S
H1899 C1911 0.950 . S
C1900 H1892 0.950 . S
C1900 C1901 1.386 . S
C1900 C1902 1.391 . S
C1901 C1900 1.386 . S
C1901 C1905 1.393 . S
C1902 H1894 0.950 . S
C1902 C1900 1.391 . S
C1902 C1903 1.400 . S
C1903 C1902 1.400 . S
C1903 C1904 1.398 . S
C1903 C1909 1.491 . S
C1904 H1895 0.950 . S
C1904 C1903 1.398 . S
C1904 C1905 1.391 . S
C1905 H1893 0.950 . S
C1905 C1901 1.393 . S
C1905 C1904 1.391 . S
C1906 H1896 0.950 . S
C1906 C1907 1.386 . S
C1906 C1908 1.391 . S
C1907 C1906 1.386 . S
C1907 C1911 1.393 . S
C1908 H1897 0.950 1_554 S
C1908 C1906 1.391 . S
C1908 C1909 1.400 1_554 S
C1909 C1903 1.491 . S
C1909 C1908 1.400 1_556 S
C1909 C1910 1.398 . S
C1910 H1898 0.950 . S
C1910 C1909 1.398 . S
C1910 C1911 1.391 1_556 S
C1911 H1899 0.950 . S
C1911 C1907 1.393 . S
C1911 C1910 1.391 1_554 S
H1912 C1920 0.950 . S
H1913 C1925 0.950 . S
H1914 C1922 0.950 . S
H1915 C1924 0.950 . S
H1916 C1926 0.950 . S
H1917 C1928 0.950 . S
H1918 C1930 0.950 . S
H1919 C1931 0.950 . S
C1920 H1912 0.950 . S
C1920 C1921 1.386 . S
C1920 C1922 1.391 . S
C1921 C1920 1.386 . S
C1921 C1925 1.393 . S
C1922 H1914 0.950 . S
C1922 C1920 1.391 . S
C1922 C1923 1.400 . S
C1923 C1922 1.400 . S
C1923 C1924 1.398 . S
C1923 C1929 1.491 . S
C1924 H1915 0.950 . S
C1924 C1923 1.398 . S
C1924 C1925 1.391 . S
C1925 H1913 0.950 . S
C1925 C1921 1.393 . S
C1925 C1924 1.391 . S
C1926 H1916 0.950 . S
C1926 C1927 1.386 . S
C1926 C1928 1.391 . S
C1927 C1926 1.386 . S
C1927 C1931 1.393 . S
C1928 H1917 0.950 . S
C1928 C1926 1.391 . S
C1928 C1929 1.400 . S
C1929 C1923 1.491 . S
C1929 C1928 1.400 . S
C1929 C1930 1.398 . S
C1930 H1918 0.950 . S
C1930 C1929 1.398 . S
C1930 C1931 1.391 . S
C1931 H1919 0.950 . S
C1931 C1927 1.393 . S
C1931 C1930 1.391 . S
H1932 C1940 0.950 . S
H1933 C1945 0.950 . S
H1934 C1942 0.950 . S
H1935 C1944 0.950 . S
H1936 C1946 0.950 . S
H1937 C1948 0.950 . S
H1938 C1950 0.948 1_565 S
H1939 C1951 0.950 . S
C1940 H1932 0.950 . S
C1940 C1941 1.386 . S
C1940 C1942 1.391 1_554 S
C1941 C1940 1.386 . S
C1941 C1945 1.393 . S
C1942 H1934 0.950 . S
C1942 C1940 1.391 1_556 S
C1942 C1943 1.400 . S
C1943 C1942 1.400 . S
C1943 C1944 1.398 . S
C1943 C1949 1.491 . S
C1944 H1935 0.950 . S
C1944 C1943 1.398 . S
C1944 C1945 1.391 1_556 S
C1945 H1933 0.950 . S
C1945 C1941 1.393 . S
C1945 C1944 1.391 1_554 S
C1946 H1936 0.950 . S
C1946 C1947 1.386 . S
C1946 C1948 1.391 1_545 S
C1947 C1946 1.386 . S
C1947 C1951 1.393 . S
C1948 H1937 0.950 . S
C1948 C1946 1.391 1_565 S
C1948 C1949 1.400 . S
C1949 C1943 1.491 . S
C1949 C1948 1.400 . S
C1949 C1950 1.383 1_565 S
C1950 H1938 0.948 1_545 S
C1950 C1949 1.383 1_545 S
C1950 C1951 1.409 . S
C1951 H1939 0.950 . S
C1951 C1947 1.393 . S
C1951 C1950 1.409 . S
H1952 C1960 0.950 . S
H1953 C1965 0.950 . S
H1954 C1962 0.950 . S
H1955 C1964 0.950 . S
H1956 C1966 0.950 . S
H1957 C1968 0.950 . S
H1958 C1970 0.950 . S
H1959 C1971 0.950 . S
C1960 H1952 0.950 . S
C1960 C1961 1.386 . S
C1960 C1962 1.391 . S
C1961 C1960 1.386 . S
C1961 C1965 1.393 . S
C1962 H1954 0.950 . S
C1962 C1960 1.391 . S
C1962 C1963 1.400 . S
C1963 C1962 1.400 . S
C1963 C1964 1.398 . S
C1963 C1969 1.491 . S
C1964 H1955 0.950 . S
C1964 C1963 1.398 . S
C1964 C1965 1.391 . S
C1965 H1953 0.950 . S
C1965 C1961 1.393 . S
C1965 C1964 1.391 . S
C1966 H1956 0.950 . S
C1966 C1967 1.386 . S
C1966 C1968 1.391 . S
C1967 C1966 1.386 . S
C1967 C1971 1.393 . S
C1968 H1957 0.950 . S
C1968 C1966 1.391 . S
C1968 C1969 1.400 . S
C1969 C1963 1.491 . S
C1969 C1968 1.400 . S
C1969 C1970 1.398 . S
C1970 H1958 0.950 . S
C1970 C1969 1.398 . S
C1970 C1971 1.391 . S
C1971 H1959 0.950 . S
C1971 C1967 1.393 . S
C1971 C1970 1.391 . S
H1972 C1980 0.950 . S
H1973 C1985 0.950 . S
H1974 C1982 0.950 . S
H1975 C1984 0.950 . S
H1976 C1986 0.950 . S
H1977 C1988 0.950 . S
H1978 C1990 0.950 . S
H1979 C1991 0.950 . S
C1980 H1972 0.950 . S
C1980 C1981 1.386 . S
C1980 C1982 1.391 . S
C1981 C1980 1.386 . S
C1981 C1985 1.393 . S
C1982 H1974 0.950 . S
C1982 C1980 1.391 . S
C1982 C1983 1.400 . S
C1983 C1982 1.400 . S
C1983 C1984 1.398 . S
C1983 C1989 1.491 . S
C1984 H1975 0.950 . S
C1984 C1983 1.398 . S
C1984 C1985 1.391 . S
C1985 H1973 0.950 . S
C1985 C1981 1.393 . S
C1985 C1984 1.391 . S
C1986 H1976 0.950 . S
C1986 C1987 1.386 . S
C1986 C1988 1.391 . S
C1987 C1986 1.386 . S
C1987 C1991 1.393 . S
C1988 H1977 0.950 . S
C1988 C1986 1.391 . S
C1988 C1989 1.400 . S
C1989 C1983 1.491 . S
C1989 C1988 1.400 . S
C1989 C1990 1.398 . S
C1990 H1978 0.950 . S
C1990 C1989 1.398 . S
C1990 C1991 1.391 . S
C1991 H1979 0.950 . S
C1991 C1987 1.393 . S
C1991 C1990 1.391 . S
H1992 C2000 0.950 . S
H1993 C2005 0.950 . S
H1994 C2002 0.950 1_655 S
H1995 C2004 0.950 . S
H1996 C2006 0.950 . S
H1997 C2008 0.950 . S
H1998 C2010 0.950 . S
H1999 C2011 0.950 . S
C2000 H1992 0.950 . S
C2000 C2001 1.386 . S
C2000 C2002 1.391 . S
C2001 C2000 1.386 . S
C2001 C2005 1.393 . S
C2002 H1994 0.950 1_455 S
C2002 C2000 1.391 . S
C2002 C2003 1.400 . S
C2003 C2002 1.400 . S
C2003 C2004 1.398 . S
C2003 C2009 1.491 . S
C2004 H1995 0.950 . S
C2004 C2003 1.398 . S
C2004 C2005 1.391 . S
C2005 H1993 0.950 . S
C2005 C2001 1.393 . S
C2005 C2004 1.391 . S
C2006 H1996 0.950 . S
C2006 C2007 1.386 1_455 S
C2006 C2008 1.391 . S
C2007 C2006 1.386 1_655 S
C2007 C2011 1.393 . S
C2008 H1997 0.950 . S
C2008 C2006 1.391 . S
C2008 C2009 1.400 . S
C2009 C2003 1.491 . S
C2009 C2008 1.400 . S
C2009 C2010 1.398 1_455 S
C2010 H1998 0.950 . S
C2010 C2009 1.398 1_655 S
C2010 C2011 1.391 . S
C2011 H1999 0.950 . S
C2011 C2007 1.393 . S
C2011 C2010 1.391 . S
H2012 C2020 0.950 . S
H2013 C2025 0.950 . S
H2014 C2022 0.950 . S
H2015 C2024 0.950 . S
H2016 C2026 0.950 . S
H2017 C2028 0.950 . S
H2018 C2030 0.950 . S
H2019 C2031 0.950 . S
C2020 H2012 0.950 . S
C2020 C2021 1.386 . S
C2020 C2022 1.391 . S
C2021 C2020 1.386 . S
C2021 C2025 1.393 . S
C2022 H2014 0.950 . S
C2022 C2020 1.391 . S
C2022 C2023 1.400 . S
C2023 C2022 1.400 . S
C2023 C2024 1.398 . S
C2023 C2029 1.491 . S
C2024 H2015 0.950 . S
C2024 C2023 1.398 . S
C2024 C2025 1.391 . S
C2025 H2013 0.950 . S
C2025 C2021 1.393 . S
C2025 C2024 1.391 . S
C2026 H2016 0.950 . S
C2026 C2027 1.386 . S
C2026 C2028 1.391 . S
C2027 C2026 1.386 . S
C2027 C2031 1.393 . S
C2028 H2017 0.950 . S
C2028 C2026 1.391 . S
C2028 C2029 1.400 . S
C2029 C2023 1.491 . S
C2029 C2028 1.400 . S
C2029 C2030 1.398 . S
C2030 H2018 0.950 . S
C2030 C2029 1.398 . S
C2030 C2031 1.391 . S
C2031 H2019 0.950 . S
C2031 C2027 1.393 . S
C2031 C2030 1.391 . S
H2032 C2040 0.950 . S
H2033 C2045 0.950 . S
H2034 C2042 0.950 . S
H2035 C2044 0.950 . S
H2036 C2046 0.950 . S
H2037 C2048 0.950 . S
H2038 C2050 0.950 . S
H2039 C2051 0.950 . S
C2040 H2032 0.950 . S
C2040 C2041 1.386 . S
C2040 C2042 1.391 . S
C2041 C2040 1.386 . S
C2041 C2045 1.393 . S
C2042 H2034 0.950 . S
C2042 C2040 1.391 . S
C2042 C2043 1.400 . S
C2043 C2042 1.400 . S
C2043 C2044 1.398 . S
C2043 C2049 1.491 . S
C2044 H2035 0.950 . S
C2044 C2043 1.398 . S
C2044 C2045 1.391 . S
C2045 H2033 0.950 . S
C2045 C2041 1.393 . S
C2045 C2044 1.391 . S
C2046 H2036 0.950 . S
C2046 C2047 1.386 . S
C2046 C2048 1.391 . S
C2047 C2046 1.386 . S
C2047 C2051 1.393 . S
C2048 H2037 0.950 . S
C2048 C2046 1.391 . S
C2048 C2049 1.400 . S
C2049 C2043 1.491 . S
C2049 C2048 1.400 . S
C2049 C2050 1.398 . S
C2050 H2038 0.950 . S
C2050 C2049 1.398 . S
C2050 C2051 1.391 . S
C2051 H2039 0.950 . S
C2051 C2047 1.393 . S
C2051 C2050 1.391 . S
H2052 C2060 0.950 . S
H2053 C2065 0.950 . S
H2054 C2062 0.950 . S
H2055 C2064 0.950 . S
H2056 C2066 0.950 . S
H2057 C2068 0.950 . S
H2058 C2070 0.950 . S
H2059 C2071 0.950 . S
C2060 H2052 0.950 . S
C2060 C2061 1.386 . S
C2060 C2062 1.391 . S
C2061 C2060 1.386 . S
C2061 C2065 1.393 . S
C2062 H2054 0.950 . S
C2062 C2060 1.391 . S
C2062 C2063 1.400 . S
C2063 C2062 1.400 . S
C2063 C2064 1.398 . S
C2063 C2069 1.491 . S
C2064 H2055 0.950 . S
C2064 C2063 1.398 . S
C2064 C2065 1.391 . S
C2065 H2053 0.950 . S
C2065 C2061 1.393 . S
C2065 C2064 1.391 . S
C2066 H2056 0.950 . S
C2066 C2067 1.386 . S
C2066 C2068 1.391 . S
C2067 C2066 1.386 . S
C2067 C2071 1.393 . S
C2068 H2057 0.950 . S
C2068 C2066 1.391 . S
C2068 C2069 1.400 . S
C2069 C2063 1.491 . S
C2069 C2068 1.400 . S
C2069 C2070 1.398 . S
C2070 H2058 0.950 . S
C2070 C2069 1.398 . S
C2070 C2071 1.391 . S
C2071 H2059 0.950 . S
C2071 C2067 1.393 . S
C2071 C2070 1.391 . S
H2072 C2080 0.950 . S
H2073 C2085 0.950 . S
H2074 C2082 0.950 1_655 S
H2075 C2084 0.950 . S
H2076 C2086 0.950 . S
H2077 C2088 0.950 . S
H2078 C2090 0.950 . S
H2079 C2091 0.950 . S
C2080 H2072 0.950 . S
C2080 C2081 1.386 . S
C2080 C2082 1.391 . S
C2081 C2080 1.386 . S
C2081 C2085 1.393 . S
C2082 H2074 0.950 1_455 S
C2082 C2080 1.391 . S
C2082 C2083 1.400 . S
C2083 C2082 1.400 . S
C2083 C2084 1.398 . S
C2083 C2089 1.491 . S
C2084 H2075 0.950 . S
C2084 C2083 1.398 . S
C2084 C2085 1.391 . S
C2085 H2073 0.950 . S
C2085 C2081 1.393 . S
C2085 C2084 1.391 . S
C2086 H2076 0.950 . S
C2086 C2087 1.386 1_455 S
C2086 C2088 1.391 . S
C2087 C2086 1.386 1_655 S
C2087 C2091 1.393 . S
C2088 H2077 0.950 . S
C2088 C2086 1.391 . S
C2088 C2089 1.400 . S
C2089 C2083 1.491 . S
C2089 C2088 1.400 . S
C2089 C2090 1.398 1_455 S
C2090 H2078 0.950 . S
C2090 C2089 1.398 1_655 S
C2090 C2091 1.391 . S
C2091 H2079 0.950 . S
C2091 C2087 1.393 . S
C2091 C2090 1.391 . S
H2092 C2100 0.950 . S
H2093 C2105 0.950 . S
H2094 C2102 0.950 . S
H2095 C2104 0.950 . S
H2096 C2106 0.950 . S
H2097 C2108 0.950 . S
H2098 C2110 0.952 1_455 S
H2099 C2111 0.950 . S
C2100 H2092 0.950 . S
C2100 C2101 1.386 . S
C2100 C2102 1.391 . S
C2101 C2100 1.386 . S
C2101 C2105 1.393 1_455 S
C2102 H2094 0.950 . S
C2102 C2100 1.391 . S
C2102 C2103 1.400 1_455 S
C2103 C2102 1.400 1_655 S
C2103 C2104 1.398 . S
C2103 C2109 1.491 . S
C2104 H2095 0.950 . S
C2104 C2103 1.398 . S
C2104 C2105 1.391 . S
C2105 H2093 0.950 . S
C2105 C2101 1.393 1_655 S
C2105 C2104 1.391 . S
C2106 H2096 0.950 . S
C2106 C2107 1.386 . S
C2106 C2108 1.391 1_565 S
C2107 C2106 1.386 . S
C2107 C2111 1.393 . S
C2108 H2097 0.950 . S
C2108 C2106 1.391 1_545 S
C2108 C2109 1.400 . S
C2109 C2103 1.491 . S
C2109 C2108 1.400 . S
C2109 C2110 1.409 . S
C2110 H2098 0.952 1_655 S
C2110 C2109 1.409 . S
C2110 C2111 1.378 1_545 S
C2111 H2099 0.950 . S
C2111 C2107 1.393 . S
C2111 C2110 1.378 1_565 S
H2112 C2120 0.950 . S
H2113 C2125 0.950 . S
H2114 C2122 0.950 . S
H2115 C2124 0.950 . S
H2116 C2126 0.950 . S
H2117 C2128 0.950 . S
H2118 C2130 0.950 . S
H2119 C2131 0.950 . S
C2120 H2112 0.950 . S
C2120 C2121 1.386 . S
C2120 C2122 1.391 . S
C2121 C2120 1.386 . S
C2121 C2125 1.393 . S
C2122 H2114 0.950 . S
C2122 C2120 1.391 . S
C2122 C2123 1.400 . S
C2123 C2122 1.400 . S
C2123 C2124 1.398 . S
C2123 C2129 1.491 . S
C2124 H2115 0.950 . S
C2124 C2123 1.398 . S
C2124 C2125 1.391 . S
C2125 H2113 0.950 . S
C2125 C2121 1.393 . S
C2125 C2124 1.391 . S
C2126 H2116 0.950 . S
C2126 C2127 1.386 . S
C2126 C2128 1.391 . S
C2127 C2126 1.386 . S
C2127 C2131 1.393 . S
C2128 H2117 0.950 . S
C2128 C2126 1.391 . S
C2128 C2129 1.400 . S
C2129 C2123 1.491 . S
C2129 C2128 1.400 . S
C2129 C2130 1.398 . S
C2130 H2118 0.950 . S
C2130 C2129 1.398 . S
C2130 C2131 1.391 . S
C2131 H2119 0.950 . S
C2131 C2127 1.393 . S
C2131 C2130 1.391 . S
H2132 C2140 0.950 . S
H2133 C2145 0.950 . S
H2134 C2142 0.950 . S
H2135 C2144 0.950 . S
H2136 C2146 0.950 . S
H2137 C2148 0.950 . S
H2138 C2150 0.950 . S
H2139 C2151 0.950 . S
C2140 H2132 0.950 . S
C2140 C2141 1.386 . S
C2140 C2142 1.391 . S
C2141 C2140 1.386 . S
C2141 C2145 1.393 . S
C2142 H2134 0.950 . S
C2142 C2140 1.391 . S
C2142 C2143 1.400 . S
C2143 C2142 1.400 . S
C2143 C2144 1.398 . S
C2143 C2149 1.491 . S
C2144 H2135 0.950 . S
C2144 C2143 1.398 . S
C2144 C2145 1.391 . S
C2145 H2133 0.950 . S
C2145 C2141 1.393 . S
C2145 C2144 1.391 . S
C2146 H2136 0.950 . S
C2146 C2147 1.386 . S
C2146 C2148 1.391 1_455 S
C2147 C2146 1.386 . S
C2147 C2151 1.393 . S
C2148 H2137 0.950 . S
C2148 C2146 1.391 1_655 S
C2148 C2149 1.400 . S
C2149 C2143 1.491 . S
C2149 C2148 1.400 . S
C2149 C2150 1.398 . S
C2150 H2138 0.950 . S
C2150 C2149 1.398 . S
C2150 C2151 1.391 1_655 S
C2151 H2139 0.950 . S
C2151 C2147 1.393 . S
C2151 C2150 1.391 1_455 S
H2152 C2160 0.950 . S
H2153 C2165 0.950 . S
H2154 C2162 0.950 . S
H2155 C2164 0.950 . S
H2156 C2166 0.950 . S
H2157 C2168 0.950 . S
H2158 C2170 0.950 . S
H2159 C2171 0.950 . S
C2160 H2152 0.950 . S
C2160 C2161 1.386 . S
C2160 C2162 1.391 . S
C2161 C2160 1.386 . S
C2161 C2165 1.393 . S
C2162 H2154 0.950 . S
C2162 C2160 1.391 . S
C2162 C2163 1.400 . S
C2163 C2162 1.400 . S
C2163 C2164 1.398 . S
C2163 C2169 1.491 . S
C2164 H2155 0.950 . S
C2164 C2163 1.398 . S
C2164 C2165 1.391 . S
C2165 H2153 0.950 . S
C2165 C2161 1.393 . S
C2165 C2164 1.391 . S
C2166 H2156 0.950 . S
C2166 C2167 1.386 . S
C2166 C2168 1.391 . S
C2167 C2166 1.386 . S
C2167 C2171 1.393 . S
C2168 H2157 0.950 . S
C2168 C2166 1.391 . S
C2168 C2169 1.400 . S
C2169 C2163 1.491 . S
C2169 C2168 1.400 . S
C2169 C2170 1.398 . S
C2170 H2158 0.950 . S
C2170 C2169 1.398 . S
C2170 C2171 1.391 . S
C2171 H2159 0.950 . S
C2171 C2167 1.393 . S
C2171 C2170 1.391 . S
H2172 C2180 0.950 . S
H2173 C2185 0.950 . S
H2174 C2182 0.950 . S
H2175 C2184 0.950 . S
H2176 C2186 0.950 . S
H2177 C2188 0.950 . S
H2178 C2190 0.950 . S
H2179 C2191 0.950 . S
C2180 H2172 0.950 . S
C2180 C2181 1.386 . S
C2180 C2182 1.391 1_655 S
C2181 C2180 1.386 . S
C2181 C2185 1.393 . S
C2182 H2174 0.950 . S
C2182 C2180 1.391 1_455 S
C2182 C2183 1.400 . S
C2183 C2182 1.400 . S
C2183 C2184 1.398 . S
C2183 C2189 1.491 . S
C2184 H2175 0.950 . S
C2184 C2183 1.398 . S
C2184 C2185 1.391 1_455 S
C2185 H2173 0.950 . S
C2185 C2181 1.393 . S
C2185 C2184 1.391 1_655 S
C2186 H2176 0.950 . S
C2186 C2187 1.386 . S
C2186 C2188 1.391 . S
C2187 C2186 1.386 . S
C2187 C2191 1.393 . S
C2188 H2177 0.950 . S
C2188 C2186 1.391 . S
C2188 C2189 1.400 . S
C2189 C2183 1.491 . S
C2189 C2188 1.400 . S
C2189 C2190 1.398 . S
C2190 H2178 0.950 . S
C2190 C2189 1.398 . S
C2190 C2191 1.391 . S
C2191 H2179 0.950 . S
C2191 C2187 1.393 . S
C2191 C2190 1.391 . S
H2192 C2200 0.950 . S
H2193 C2205 0.950 . S
H2194 C2202 0.950 . S
H2195 C2204 0.950 . S
H2196 C2206 0.950 . S
H2197 C2208 0.950 . S
H2198 C2210 0.950 . S
H2199 C2211 0.950 . S
C2200 H2192 0.950 . S
C2200 C2201 1.386 . S
C2200 C2202 1.391 . S
C2201 C2200 1.386 . S
C2201 C2205 1.393 . S
C2202 H2194 0.950 . S
C2202 C2200 1.391 . S
C2202 C2203 1.400 . S
C2203 C2202 1.400 . S
C2203 C2204 1.398 . S
C2203 C2209 1.491 . S
C2204 H2195 0.950 . S
C2204 C2203 1.398 . S
C2204 C2205 1.391 . S
C2205 H2193 0.950 . S
C2205 C2201 1.393 . S
C2205 C2204 1.391 . S
C2206 H2196 0.950 . S
C2206 C2207 1.386 . S
C2206 C2208 1.391 . S
C2207 C2206 1.386 . S
C2207 C2211 1.393 . S
C2208 H2197 0.950 . S
C2208 C2206 1.391 . S
C2208 C2209 1.400 . S
C2209 C2203 1.491 . S
C2209 C2208 1.400 . S
C2209 C2210 1.398 . S
C2210 H2198 0.950 . S
C2210 C2209 1.398 . S
C2210 C2211 1.391 . S
C2211 H2199 0.950 . S
C2211 C2207 1.393 . S
C2211 C2210 1.391 . S
H2212 C2220 0.950 . S
H2213 C2225 0.950 . S
H2214 C2222 0.950 . S
H2215 C2224 0.950 . S
H2216 C2226 0.950 . S
H2217 C2228 0.950 . S
H2218 C2230 0.950 . S
H2219 C2231 0.950 . S
C2220 H2212 0.950 . S
C2220 C2221 1.386 . S
C2220 C2222 1.391 . S
C2221 C2220 1.386 . S
C2221 C2225 1.393 . S
C2222 H2214 0.950 . S
C2222 C2220 1.391 . S
C2222 C2223 1.400 . S
C2223 C2222 1.400 . S
C2223 C2224 1.398 . S
C2223 C2229 1.491 . S
C2224 H2215 0.950 . S
C2224 C2223 1.398 . S
C2224 C2225 1.391 . S
C2225 H2213 0.950 . S
C2225 C2221 1.393 . S
C2225 C2224 1.391 . S
C2226 H2216 0.950 . S
C2226 C2227 1.386 . S
C2226 C2228 1.391 . S
C2227 C2226 1.386 . S
C2227 C2231 1.393 . S
C2228 H2217 0.950 . S
C2228 C2226 1.391 . S
C2228 C2229 1.400 . S
C2229 C2223 1.491 . S
C2229 C2228 1.400 . S
C2229 C2230 1.398 . S
C2230 H2218 0.950 . S
C2230 C2229 1.398 . S
C2230 C2231 1.391 . S
C2231 H2219 0.950 . S
C2231 C2227 1.393 . S
C2231 C2230 1.391 . S
H2232 C2240 0.950 . S
H2233 C2245 0.950 . S
H2234 C2242 0.950 . S
H2235 C2244 0.950 . S
H2236 C2246 0.950 . S
H2237 C2248 0.950 . S
H2238 C2250 0.950 . S
H2239 C2251 0.950 . S
C2240 H2232 0.950 . S
C2240 C2241 1.386 . S
C2240 C2242 1.391 . S
C2241 C2240 1.386 . S
C2241 C2245 1.393 . S
C2242 H2234 0.950 . S
C2242 C2240 1.391 . S
C2242 C2243 1.400 . S
C2243 C2242 1.400 . S
C2243 C2244 1.398 . S
C2243 C2249 1.491 . S
C2244 H2235 0.950 . S
C2244 C2243 1.398 . S
C2244 C2245 1.391 . S
C2245 H2233 0.950 . S
C2245 C2241 1.393 . S
C2245 C2244 1.391 . S
C2246 H2236 0.950 . S
C2246 C2247 1.386 . S
C2246 C2248 1.391 . S
C2247 C2246 1.386 . S
C2247 C2251 1.393 . S
C2248 H2237 0.950 . S
C2248 C2246 1.391 . S
C2248 C2249 1.400 . S
C2249 C2243 1.491 . S
C2249 C2248 1.400 . S
C2249 C2250 1.398 . S
C2250 H2238 0.950 . S
C2250 C2249 1.398 . S
C2250 C2251 1.391 . S
C2251 H2239 0.950 . S
C2251 C2247 1.393 . S
C2251 C2250 1.391 . S
H2252 C2260 0.950 . S
H2253 C2265 0.950 . S
H2254 C2262 0.950 . S
H2255 C2264 0.950 . S
H2256 C2266 0.950 . S
H2257 C2268 0.950 . S
H2258 C2270 0.950 . S
H2259 C2271 0.950 . S
C2260 H2252 0.950 . S
C2260 C2261 1.386 . S
C2260 C2262 1.391 . S
C2261 C2260 1.386 . S
C2261 C2265 1.393 . S
C2262 H2254 0.950 . S
C2262 C2260 1.391 . S
C2262 C2263 1.400 . S
C2263 C2262 1.400 . S
C2263 C2264 1.398 . S
C2263 C2269 1.491 . S
C2264 H2255 0.950 . S
C2264 C2263 1.398 . S
C2264 C2265 1.391 . S
C2265 H2253 0.950 . S
C2265 C2261 1.393 . S
C2265 C2264 1.391 . S
C2266 H2256 0.950 . S
C2266 C2267 1.386 . S
C2266 C2268 1.391 . S
C2267 C2266 1.386 . S
C2267 C2271 1.393 . S
C2268 H2257 0.950 . S
C2268 C2266 1.391 . S
C2268 C2269 1.400 . S
C2269 C2263 1.491 . S
C2269 C2268 1.400 . S
C2269 C2270 1.398 . S
C2270 H2258 0.950 . S
C2270 C2269 1.398 . S
C2270 C2271 1.391 . S
C2271 H2259 0.950 . S
C2271 C2267 1.393 . S
C2271 C2270 1.391 . S
H2272 C2280 0.950 . S
H2273 C2285 0.950 . S
H2274 C2282 0.950 . S
H2275 C2284 0.950 . S
H2276 C2286 0.950 . S
H2277 C2288 0.950 . S
H2278 C2290 0.950 . S
H2279 C2291 0.950 . S
C2280 H2272 0.950 . S
C2280 C2281 1.386 . S
C2280 C2282 1.391 . S
C2281 C2280 1.386 . S
C2281 C2285 1.393 . S
C2282 H2274 0.950 . S
C2282 C2280 1.391 . S
C2282 C2283 1.400 . S
C2283 C2282 1.400 . S
C2283 C2284 1.398 . S
C2283 C2289 1.491 . S
C2284 H2275 0.950 . S
C2284 C2283 1.398 . S
C2284 C2285 1.391 . S
C2285 H2273 0.950 . S
C2285 C2281 1.393 . S
C2285 C2284 1.391 . S
C2286 H2276 0.950 . S
C2286 C2287 1.386 . S
C2286 C2288 1.391 . S
C2287 C2286 1.386 . S
C2287 C2291 1.393 . S
C2288 H2277 0.950 . S
C2288 C2286 1.391 . S
C2288 C2289 1.400 . S
C2289 C2283 1.491 . S
C2289 C2288 1.400 . S
C2289 C2290 1.398 . S
C2290 H2278 0.950 . S
C2290 C2289 1.398 . S
C2290 C2291 1.391 . S
C2291 H2279 0.950 . S
C2291 C2287 1.393 . S
C2291 C2290 1.391 . S
H2292 C2300 0.950 . S
H2293 C2305 0.950 . S
H2294 C2302 0.950 . S
H2295 C2304 0.950 . S
H2296 C2306 0.950 . S
H2297 C2308 0.950 . S
H2298 C2310 0.950 . S
H2299 C2311 0.950 . S
C2300 H2292 0.950 . S
C2300 C2301 1.386 . S
C2300 C2302 1.391 . S
C2301 C2300 1.386 . S
C2301 C2305 1.393 . S
C2302 H2294 0.950 . S
C2302 C2300 1.391 . S
C2302 C2303 1.400 . S
C2303 C2302 1.400 . S
C2303 C2304 1.398 . S
C2303 C2309 1.491 . S
C2304 H2295 0.950 . S
C2304 C2303 1.398 . S
C2304 C2305 1.391 . S
C2305 H2293 0.950 . S
C2305 C2301 1.393 . S
C2305 C2304 1.391 . S
C2306 H2296 0.950 . S
C2306 C2307 1.386 . S
C2306 C2308 1.391 1_565 S
C2307 C2306 1.386 . S
C2307 C2311 1.393 . S
C2308 H2297 0.950 . S
C2308 C2306 1.391 1_545 S
C2308 C2309 1.400 . S
C2309 C2303 1.491 . S
C2309 C2308 1.400 . S
C2309 C2310 1.398 1_545 S
C2310 H2298 0.950 . S
C2310 C2309 1.398 1_565 S
C2310 C2311 1.391 . S
C2311 H2299 0.950 . S
C2311 C2307 1.393 . S
C2311 C2310 1.391 . S
H2312 C2320 0.950 . S
H2313 C2325 0.950 . S
H2314 C2322 0.950 . S
H2315 C2324 0.950 . S
H2316 C2326 0.950 . S
H2317 C2328 0.950 . S
H2318 C2330 0.950 . S
H2319 C2331 0.950 . S
C2320 H2312 0.950 . S
C2320 C2321 1.386 . S
C2320 C2322 1.391 . S
C2321 C2320 1.386 . S
C2321 C2325 1.393 . S
C2322 H2314 0.950 . S
C2322 C2320 1.391 . S
C2322 C2323 1.400 . S
C2323 C2322 1.400 . S
C2323 C2324 1.398 . S
C2323 C2329 1.491 . S
C2324 H2315 0.950 . S
C2324 C2323 1.398 . S
C2324 C2325 1.391 . S
C2325 H2313 0.950 . S
C2325 C2321 1.393 . S
C2325 C2324 1.391 . S
C2326 H2316 0.950 . S
C2326 C2327 1.386 . S
C2326 C2328 1.391 . S
C2327 C2326 1.386 . S
C2327 C2331 1.393 . S
C2328 H2317 0.950 . S
C2328 C2326 1.391 . S
C2328 C2329 1.400 . S
C2329 C2323 1.491 . S
C2329 C2328 1.400 . S
C2329 C2330 1.398 . S
C2330 H2318 0.950 . S
C2330 C2329 1.398 . S
C2330 C2331 1.391 . S
C2331 H2319 0.950 . S
C2331 C2327 1.393 . S
C2331 C2330 1.391 . S
H2332 C2340 0.950 . S
H2333 C2345 0.950 . S
H2334 C2342 0.950 . S
H2335 C2344 0.950 . S
H2336 C2346 0.950 . S
H2337 C2348 0.950 . S
H2338 C2350 0.950 . S
H2339 C2351 0.950 . S
C2340 H2332 0.950 . S
C2340 C2341 1.386 . S
C2340 C2342 1.391 . S
C2341 C2340 1.386 . S
C2341 C2345 1.393 . S
C2342 H2334 0.950 . S
C2342 C2340 1.391 . S
C2342 C2343 1.400 . S
C2343 C2342 1.400 . S
C2343 C2344 1.398 . S
C2343 C2349 1.491 . S
C2344 H2335 0.950 . S
C2344 C2343 1.398 . S
C2344 C2345 1.391 . S
C2345 H2333 0.950 . S
C2345 C2341 1.393 . S
C2345 C2344 1.391 . S
C2346 H2336 0.950 . S
C2346 C2347 1.386 . S
C2346 C2348 1.391 . S
C2347 C2346 1.386 . S
C2347 C2351 1.393 . S
C2348 H2337 0.950 . S
C2348 C2346 1.391 . S
C2348 C2349 1.400 . S
C2349 C2343 1.491 . S
C2349 C2348 1.400 . S
C2349 C2350 1.398 . S
C2350 H2338 0.950 . S
C2350 C2349 1.398 . S
C2350 C2351 1.391 . S
C2351 H2339 0.950 . S
C2351 C2347 1.393 . S
C2351 C2350 1.391 . S
H2352 C2360 0.950 . S
H2353 C2365 0.950 . S
H2354 C2362 0.950 . S
H2355 C2364 0.950 . S
H2356 C2366 0.950 . S
H2357 C2368 0.950 . S
H2358 C2370 0.950 . S
H2359 C2371 0.950 . S
C2360 H2352 0.950 . S
C2360 C2361 1.386 . S
C2360 C2362 1.391 . S
C2361 C2360 1.386 . S
C2361 C2365 1.393 . S
C2362 H2354 0.950 . S
C2362 C2360 1.391 . S
C2362 C2363 1.400 . S
C2363 C2362 1.400 . S
C2363 C2364 1.398 . S
C2363 C2369 1.491 . S
C2364 H2355 0.950 . S
C2364 C2363 1.398 . S
C2364 C2365 1.391 . S
C2365 H2353 0.950 . S
C2365 C2361 1.393 . S
C2365 C2364 1.391 . S
C2366 H2356 0.950 . S
C2366 C2367 1.386 . S
C2366 C2368 1.391 . S
C2367 C2366 1.386 . S
C2367 C2371 1.393 . S
C2368 H2357 0.950 . S
C2368 C2366 1.391 . S
C2368 C2369 1.400 . S
C2369 C2363 1.491 . S
C2369 C2368 1.400 . S
C2369 C2370 1.398 . S
C2370 H2358 0.950 . S
C2370 C2369 1.398 . S
C2370 C2371 1.391 . S
C2371 H2359 0.950 . S
C2371 C2367 1.393 . S
C2371 C2370 1.391 . S
H2372 C2380 0.950 . S
H2373 C2385 0.950 . S
H2374 C2382 0.950 . S
H2375 C2384 0.950 . S
H2376 C2386 0.950 . S
H2377 C2388 0.950 . S
H2378 C2390 0.951 . S
H2379 C2391 0.950 . S
C2380 H2372 0.950 . S
C2380 C2381 1.386 . S
C2380 C2382 1.391 . S
C2381 C2380 1.386 . S
C2381 C2385 1.393 . S
C2382 H2374 0.950 . S
C2382 C2380 1.391 . S
C2382 C2383 1.400 . S
C2383 C2382 1.400 . S
C2383 C2384 1.398 . S
C2383 C2389 1.491 . S
C2384 H2375 0.950 . S
C2384 C2383 1.398 . S
C2384 C2385 1.391 . S
C2385 H2373 0.950 . S
C2385 C2381 1.393 . S
C2385 C2384 1.391 . S
C2386 H2376 0.950 . S
C2386 C2387 1.386 . S
C2386 C2388 1.391 1_565 S
C2387 C2386 1.386 . S
C2387 C2391 1.393 . S
C2388 H2377 0.950 . S
C2388 C2386 1.391 1_545 S
C2388 C2389 1.400 . S
C2389 C2383 1.491 . S
C2389 C2388 1.400 . S
C2389 C2390 1.398 1_545 S
C2390 H2378 0.951 . S
C2390 C2389 1.398 1_565 S
C2390 C2391 1.391 . S
C2391 H2379 0.950 . S
C2391 C2387 1.393 . S
C2391 C2390 1.391 . S
H2392 C2400 0.950 . S
H2393 C2405 0.950 . S
H2394 C2402 0.950 . S
H2395 C2404 0.950 . S
H2396 C2406 0.950 . S
H2397 C2408 0.950 . S
H2398 C2410 0.950 . S
H2399 C2411 0.950 . S
C2400 H2392 0.950 . S
C2400 C2401 1.386 . S
C2400 C2402 1.391 . S
C2401 C2400 1.386 . S
C2401 C2405 1.393 . S
C2402 H2394 0.950 . S
C2402 C2400 1.391 . S
C2402 C2403 1.400 . S
C2403 C2402 1.400 . S
C2403 C2404 1.398 . S
C2403 C2409 1.491 . S
C2404 H2395 0.950 . S
C2404 C2403 1.398 . S
C2404 C2405 1.391 . S
C2405 H2393 0.950 . S
C2405 C2401 1.393 . S
C2405 C2404 1.391 . S
C2406 H2396 0.950 . S
C2406 C2407 1.386 . S
C2406 C2408 1.391 . S
C2407 C2406 1.386 . S
C2407 C2411 1.393 . S
C2408 H2397 0.950 . S
C2408 C2406 1.391 . S
C2408 C2409 1.400 . S
C2409 C2403 1.491 . S
C2409 C2408 1.400 . S
C2409 C2410 1.398 . S
C2410 H2398 0.950 . S
C2410 C2409 1.398 . S
C2410 C2411 1.391 . S
C2411 H2399 0.950 . S
C2411 C2407 1.393 . S
C2411 C2410 1.391 . S
H2412 C2420 0.950 . S
H2413 C2425 0.950 . S
H2414 C2422 0.950 . S
H2415 C2424 0.950 . S
H2416 C2426 0.950 . S
H2417 C2428 0.950 . S
H2418 C2430 0.950 . S
H2419 C2431 0.950 . S
C2420 H2412 0.950 . S
C2420 C2421 1.386 . S
C2420 C2422 1.391 . S
C2421 C2420 1.386 . S
C2421 C2425 1.393 . S
C2422 H2414 0.950 . S
C2422 C2420 1.391 . S
C2422 C2423 1.400 . S
C2423 C2422 1.400 . S
C2423 C2424 1.398 . S
C2423 C2429 1.491 . S
C2424 H2415 0.950 . S
C2424 C2423 1.398 . S
C2424 C2425 1.391 . S
C2425 H2413 0.950 . S
C2425 C2421 1.393 . S
C2425 C2424 1.391 . S
C2426 H2416 0.950 . S
C2426 C2427 1.386 . S
C2426 C2428 1.391 . S
C2427 C2426 1.386 . S
C2427 C2431 1.393 . S
C2428 H2417 0.950 . S
C2428 C2426 1.391 . S
C2428 C2429 1.400 . S
C2429 C2423 1.491 . S
C2429 C2428 1.400 . S
C2429 C2430 1.398 . S
C2430 H2418 0.950 . S
C2430 C2429 1.398 . S
C2430 C2431 1.391 . S
C2431 H2419 0.950 . S
C2431 C2427 1.393 . S
C2431 C2430 1.391 . S
H2432 C2440 0.950 . S
H2433 C2445 0.950 . S
H2434 C2442 0.950 . S
H2435 C2444 0.950 . S
H2436 C2446 0.950 . S
H2437 C2448 0.950 . S
H2438 C2450 0.950 . S
H2439 C2451 0.950 . S
C2440 H2432 0.950 . S
C2440 C2441 1.386 . S
C2440 C2442 1.391 . S
C2441 C2440 1.386 . S
C2441 C2445 1.393 . S
C2442 H2434 0.950 . S
C2442 C2440 1.391 . S
C2442 C2443 1.400 . S
C2443 C2442 1.400 . S
C2443 C2444 1.398 . S
C2443 C2449 1.491 . S
C2444 H2435 0.950 . S
C2444 C2443 1.398 . S
C2444 C2445 1.391 . S
C2445 H2433 0.950 . S
C2445 C2441 1.393 . S
C2445 C2444 1.391 . S
C2446 H2436 0.950 . S
C2446 C2447 1.386 . S
C2446 C2448 1.391 . S
C2447 C2446 1.386 . S
C2447 C2451 1.393 . S
C2448 H2437 0.950 . S
C2448 C2446 1.391 . S
C2448 C2449 1.400 . S
C2449 C2443 1.491 . S
C2449 C2448 1.400 . S
C2449 C2450 1.398 . S
C2450 H2438 0.950 . S
C2450 C2449 1.398 . S
C2450 C2451 1.391 . S
C2451 H2439 0.950 . S
C2451 C2447 1.393 . S
C2451 C2450 1.391 . S
H2452 C2460 0.950 . S
H2453 C2465 0.950 . S
H2454 C2462 0.950 . S
H2455 C2464 0.950 . S
H2456 C2466 0.950 . S
H2457 C2468 0.950 . S
H2458 C2470 0.950 . S
H2459 C2471 0.950 . S
C2460 H2452 0.950 . S
C2460 C2461 1.386 . S
C2460 C2462 1.391 . S
C2461 C2460 1.386 . S
C2461 C2465 1.393 . S
C2462 H2454 0.950 . S
C2462 C2460 1.391 . S
C2462 C2463 1.400 . S
C2463 C2462 1.400 . S
C2463 C2464 1.398 . S
C2463 C2469 1.491 . S
C2464 H2455 0.950 . S
C2464 C2463 1.398 . S
C2464 C2465 1.391 . S
C2465 H2453 0.950 . S
C2465 C2461 1.393 . S
C2465 C2464 1.391 . S
C2466 H2456 0.950 . S
C2466 C2467 1.386 . S
C2466 C2468 1.391 . S
C2467 C2466 1.386 . S
C2467 C2471 1.393 . S
C2468 H2457 0.950 . S
C2468 C2466 1.391 . S
C2468 C2469 1.400 . S
C2469 C2463 1.491 . S
C2469 C2468 1.400 . S
C2469 C2470 1.398 . S
C2470 H2458 0.950 . S
C2470 C2469 1.398 . S
C2470 C2471 1.391 . S
C2471 H2459 0.950 . S
C2471 C2467 1.393 . S
C2471 C2470 1.391 . S
H2472 C2480 0.950 . S
H2473 C2485 0.950 . S
H2474 C2482 0.950 . S
H2475 C2484 0.950 1_545 S
H2476 C2486 0.950 . S
H2477 C2488 0.950 . S
H2478 C2490 0.950 . S
H2479 C2491 0.950 . S
C2480 H2472 0.950 . S
C2480 C2481 1.386 . S
C2480 C2482 1.391 1_565 S
C2481 C2480 1.386 . S
C2481 C2485 1.393 . S
C2482 H2474 0.950 . S
C2482 C2480 1.391 1_545 S
C2482 C2483 1.400 . S
C2483 C2482 1.400 . S
C2483 C2484 1.398 1_545 S
C2483 C2489 1.491 . S
C2484 H2475 0.950 1_565 S
C2484 C2483 1.398 1_565 S
C2484 C2485 1.391 . S
C2485 H2473 0.950 . S
C2485 C2481 1.393 . S
C2485 C2484 1.391 . S
C2486 H2476 0.950 . S
C2486 C2487 1.386 . S
C2486 C2488 1.391 . S
C2487 C2486 1.386 . S
C2487 C2491 1.393 . S
C2488 H2477 0.950 . S
C2488 C2486 1.391 . S
C2488 C2489 1.400 . S
C2489 C2483 1.491 . S
C2489 C2488 1.400 . S
C2489 C2490 1.398 . S
C2490 H2478 0.950 . S
C2490 C2489 1.398 . S
C2490 C2491 1.391 . S
C2491 H2479 0.950 . S
C2491 C2487 1.393 . S
C2491 C2490 1.391 . S
H2492 C2500 0.950 . S
H2493 C2505 0.950 . S
H2494 C2502 0.950 . S
H2495 C2504 0.950 . S
H2496 C2506 0.950 . S
H2497 C2508 0.950 . S
H2498 C2510 0.950 . S
H2499 C2511 0.950 . S
C2500 H2492 0.950 . S
C2500 C2501 1.386 . S
C2500 C2502 1.391 . S
C2501 C2500 1.386 . S
C2501 C2505 1.393 . S
C2502 H2494 0.950 . S
C2502 C2500 1.391 . S
C2502 C2503 1.400 . S
C2503 C2502 1.400 . S
C2503 C2504 1.398 . S
C2503 C2509 1.491 . S
C2504 H2495 0.950 . S
C2504 C2503 1.398 . S
C2504 C2505 1.391 . S
C2505 H2493 0.950 . S
C2505 C2501 1.393 . S
C2505 C2504 1.391 . S
C2506 H2496 0.950 . S
C2506 C2507 1.386 . S
C2506 C2508 1.391 . S
C2507 C2506 1.386 . S
C2507 C2511 1.393 . S
C2508 H2497 0.950 . S
C2508 C2506 1.391 . S
C2508 C2509 1.400 . S
C2509 C2503 1.491 . S
C2509 C2508 1.400 . S
C2509 C2510 1.398 . S
C2510 H2498 0.950 . S
C2510 C2509 1.398 . S
C2510 C2511 1.391 . S
C2511 H2499 0.950 . S
C2511 C2507 1.393 . S
C2511 C2510 1.391 . S
H2512 C2520 0.950 . S
H2513 C2525 0.950 . S
H2514 C2522 0.950 . S
H2515 C2524 0.950 . S
H2516 C2526 0.950 . S
H2517 C2528 0.947 1_465 S
H2518 C2530 0.950 . S
H2519 C2531 0.950 . S
C2520 H2512 0.950 . S
C2520 C2521 1.386 1_655 S
C2520 C2522 1.391 . S
C2521 C2520 1.386 1_455 S
C2521 C2525 1.393 . S
C2522 H2514 0.950 . S
C2522 C2520 1.391 . S
C2522 C2523 1.400 . S
C2523 C2522 1.400 . S
C2523 C2524 1.398 1_655 S
C2523 C2529 1.491 . S
C2524 H2515 0.950 . S
C2524 C2523 1.398 1_455 S
C2524 C2525 1.391 . S
C2525 H2513 0.950 . S
C2525 C2521 1.393 . S
C2525 C2524 1.391 . S
C2526 H2516 0.950 . S
C2526 C2527 1.386 . S
C2526 C2528 1.439 . S
C2527 C2526 1.386 . S
C2527 C2531 1.393 . S
C2528 H2517 0.947 1_645 S
C2528 C2526 1.439 . S
C2528 C2529 1.357 1_545 S
C2529 C2523 1.491 . S
C2529 C2528 1.357 1_565 S
C2529 C2530 1.398 . S
C2530 H2518 0.950 . S
C2530 C2529 1.398 . S
C2530 C2531 1.391 1_565 S
C2531 H2519 0.950 . S
C2531 C2527 1.393 . S
C2531 C2530 1.391 1_545 S
H2532 C2540 0.950 . S
H2533 C2545 0.950 . S
H2534 C2542 0.950 . S
H2535 C2544 0.950 . S
H2536 C2546 0.950 . S
H2537 C2548 0.950 . S
H2538 C2550 0.950 . S
H2539 C2551 0.950 . S
C2540 H2532 0.950 . S
C2540 C2541 1.386 . S
C2540 C2542 1.391 . S
C2541 C2540 1.386 . S
C2541 C2545 1.393 . S
C2542 H2534 0.950 . S
C2542 C2540 1.391 . S
C2542 C2543 1.400 . S
C2543 C2542 1.400 . S
C2543 C2544 1.398 . S
C2543 C2549 1.491 . S
C2544 H2535 0.950 . S
C2544 C2543 1.398 . S
C2544 C2545 1.391 . S
C2545 H2533 0.950 . S
C2545 C2541 1.393 . S
C2545 C2544 1.391 . S
C2546 H2536 0.950 . S
C2546 C2547 1.386 . S
C2546 C2548 1.391 . S
C2547 C2546 1.386 . S
C2547 C2551 1.393 . S
C2548 H2537 0.950 . S
C2548 C2546 1.391 . S
C2548 C2549 1.400 . S
C2549 C2543 1.491 . S
C2549 C2548 1.400 . S
C2549 C2550 1.398 . S
C2550 H2538 0.950 . S
C2550 C2549 1.398 . S
C2550 C2551 1.391 . S
C2551 H2539 0.950 . S
C2551 C2547 1.393 . S
C2551 C2550 1.391 . S
H2552 C2560 0.950 . S
H2553 C2565 0.950 . S
H2554 C2562 0.950 . S
H2555 C2564 0.950 . S
H2556 C2566 0.950 . S
H2557 C2568 0.950 . S
H2558 C2570 0.950 . S
H2559 C2571 0.950 . S
C2560 H2552 0.950 . S
C2560 C2561 1.386 . S
C2560 C2562 1.391 . S
C2561 C2560 1.386 . S
C2561 C2565 1.393 . S
C2562 H2554 0.950 . S
C2562 C2560 1.391 . S
C2562 C2563 1.400 . S
C2563 C2562 1.400 . S
C2563 C2564 1.398 . S
C2563 C2569 1.491 . S
C2564 H2555 0.950 . S
C2564 C2563 1.398 . S
C2564 C2565 1.391 . S
C2565 H2553 0.950 . S
C2565 C2561 1.393 . S
C2565 C2564 1.391 . S
C2566 H2556 0.950 . S
C2566 C2567 1.386 . S
C2566 C2568 1.391 1_545 S
C2567 C2566 1.386 . S
C2567 C2571 1.393 . S
C2568 H2557 0.950 . S
C2568 C2566 1.391 1_565 S
C2568 C2569 1.400 . S
C2569 C2563 1.491 . S
C2569 C2568 1.400 . S
C2569 C2570 1.398 . S
C2570 H2558 0.950 . S
C2570 C2569 1.398 . S
C2570 C2571 1.391 1_565 S
C2571 H2559 0.950 . S
C2571 C2567 1.393 . S
C2571 C2570 1.391 1_545 S
H2572 C2580 0.950 . S
H2573 C2585 0.950 . S
H2574 C2582 0.950 . S
H2575 C2584 0.950 . S
H2576 C2586 0.950 . S
H2577 C2588 0.950 . S
H2578 C2590 0.950 . S
H2579 C2591 0.950 . S
C2580 H2572 0.950 . S
C2580 C2581 1.386 . S
C2580 C2582 1.391 . S
C2581 C2580 1.386 . S
C2581 C2585 1.393 . S
C2582 H2574 0.950 . S
C2582 C2580 1.391 . S
C2582 C2583 1.400 . S
C2583 C2582 1.400 . S
C2583 C2584 1.398 . S
C2583 C2589 1.491 . S
C2584 H2575 0.950 . S
C2584 C2583 1.398 . S
C2584 C2585 1.391 . S
C2585 H2573 0.950 . S
C2585 C2581 1.393 . S
C2585 C2584 1.391 . S
C2586 H2576 0.950 . S
C2586 C2587 1.386 . S
C2586 C2588 1.391 . S
C2587 C2586 1.386 . S
C2587 C2591 1.393 . S
C2588 H2577 0.950 . S
C2588 C2586 1.391 . S
C2588 C2589 1.400 . S
C2589 C2583 1.491 . S
C2589 C2588 1.400 . S
C2589 C2590 1.398 . S
C2590 H2578 0.950 . S
C2590 C2589 1.398 . S
C2590 C2591 1.391 . S
C2591 H2579 0.950 . S
C2591 C2587 1.393 . S
C2591 C2590 1.391 . S
H2592 C2600 0.950 . S
H2593 C2605 0.950 . S
H2594 C2602 0.950 . S
H2595 C2604 0.950 . S
H2596 C2606 0.950 . S
H2597 C2608 0.950 . S
H2598 C2610 0.950 . S
H2599 C2611 0.950 . S
C2600 H2592 0.950 . S
C2600 C2601 1.386 . S
C2600 C2602 1.391 . S
C2601 C2600 1.386 . S
C2601 C2605 1.393 . S
C2602 H2594 0.950 . S
C2602 C2600 1.391 . S
C2602 C2603 1.400 . S
C2603 C2602 1.400 . S
C2603 C2604 1.398 . S
C2603 C2609 1.491 1_545 S
C2604 H2595 0.950 . S
C2604 C2603 1.398 . S
C2604 C2605 1.391 . S
C2605 H2593 0.950 . S
C2605 C2601 1.393 . S
C2605 C2604 1.391 . S
C2606 H2596 0.950 . S
C2606 C2607 1.386 . S
C2606 C2608 1.391 . S
C2607 C2606 1.386 . S
C2607 C2611 1.393 . S
C2608 H2597 0.950 . S
C2608 C2606 1.391 . S
C2608 C2609 1.400 . S
C2609 C2603 1.491 1_565 S
C2609 C2608 1.400 . S
C2609 C2610 1.398 . S
C2610 H2598 0.950 . S
C2610 C2609 1.398 . S
C2610 C2611 1.391 . S
C2611 H2599 0.950 . S
C2611 C2607 1.393 . S
C2611 C2610 1.391 . S
H2612 C2620 0.950 . S
H2613 C2625 0.950 . S
H2614 C2622 0.950 . S
H2615 C2624 0.901 1_554 S
H2616 C2626 0.950 . S
H2617 C2628 0.950 . S
H2618 C2630 0.901 1_556 S
H2619 C2631 0.950 . S
C2620 H2612 0.950 . S
C2620 C2621 1.386 . S
C2620 C2622 1.391 . S
C2621 C2620 1.386 . S
C2621 C2625 1.393 . S
C2622 H2614 0.950 . S
C2622 C2620 1.391 . S
C2622 C2623 1.400 . S
C2623 C2622 1.400 . S
C2623 C2624 1.414 . S
C2623 C2629 1.491 1_556 S
C2624 H2615 0.901 1_556 S
C2624 C2623 1.414 . S
C2624 C2625 1.424 . S
C2625 H2613 0.950 . S
C2625 C2621 1.393 . S
C2625 C2624 1.424 . S
C2626 H2616 0.950 . S
C2626 C2627 1.386 . S
C2626 C2628 1.391 . S
C2627 C2626 1.386 . S
C2627 C2631 1.393 . S
C2628 H2617 0.950 . S
C2628 C2626 1.391 . S
C2628 C2629 1.400 . S
C2629 C2623 1.491 1_554 S
C2629 C2628 1.400 . S
C2629 C2630 1.414 . S
C2630 H2618 0.901 1_554 S
C2630 C2629 1.414 . S
C2630 C2631 1.424 . S
C2631 H2619 0.950 . S
C2631 C2627 1.393 . S
C2631 C2630 1.424 . S
H2632 C2640 0.950 . S
H2633 C2645 0.950 . S
H2634 C2642 0.950 . S
H2635 C2644 0.950 . S
H2636 C2646 0.950 . S
H2637 C2648 0.950 . S
H2638 C2650 0.950 . S
H2639 C2651 0.950 . S
C2640 H2632 0.950 . S
C2640 C2641 1.386 . S
C2640 C2642 1.391 . S
C2641 C2640 1.386 . S
C2641 C2645 1.393 . S
C2642 H2634 0.950 . S
C2642 C2640 1.391 . S
C2642 C2643 1.400 . S
C2643 C2642 1.400 . S
C2643 C2644 1.398 . S
C2643 C2649 1.491 . S
C2644 H2635 0.950 . S
C2644 C2643 1.398 . S
C2644 C2645 1.391 . S
C2645 H2633 0.950 . S
C2645 C2641 1.393 . S
C2645 C2644 1.391 . S
C2646 H2636 0.950 . S
C2646 C2647 1.386 . S
C2646 C2648 1.391 . S
C2647 C2646 1.386 . S
C2647 C2651 1.393 . S
C2648 H2637 0.950 . S
C2648 C2646 1.391 . S
C2648 C2649 1.400 . S
C2649 C2643 1.491 . S
C2649 C2648 1.400 . S
C2649 C2650 1.398 . S
C2650 H2638 0.950 . S
C2650 C2649 1.398 . S
C2650 C2651 1.391 . S
C2651 H2639 0.950 . S
C2651 C2647 1.393 . S
C2651 C2650 1.391 . S
H2652 C2660 0.950 . S
H2653 C2665 0.950 . S
H2654 C2662 0.950 1_556 S
H2655 C2664 0.950 . S
H2656 C2666 0.950 . S
H2657 C2668 0.950 1_554 S
H2658 C2670 0.950 . S
H2659 C2671 0.950 . S
C2660 H2652 0.950 . S
C2660 C2661 1.386 . S
C2660 C2662 1.391 . S
C2661 C2660 1.386 . S
C2661 C2665 1.393 . S
C2662 H2654 0.950 1_554 S
C2662 C2660 1.391 . S
C2662 C2663 1.400 . S
C2663 C2662 1.400 . S
C2663 C2664 1.398 . S
C2663 C2669 1.491 1_554 S
C2664 H2655 0.950 . S
C2664 C2663 1.398 . S
C2664 C2665 1.391 . S
C2665 H2653 0.950 . S
C2665 C2661 1.393 . S
C2665 C2664 1.391 . S
C2666 H2656 0.950 . S
C2666 C2667 1.386 . S
C2666 C2668 1.391 . S
C2667 C2666 1.386 . S
C2667 C2671 1.393 . S
C2668 H2657 0.950 1_556 S
C2668 C2666 1.391 . S
C2668 C2669 1.400 . S
C2669 C2663 1.491 1_556 S
C2669 C2668 1.400 . S
C2669 C2670 1.398 . S
C2670 H2658 0.950 . S
C2670 C2669 1.398 . S
C2670 C2671 1.391 . S
C2671 H2659 0.950 . S
C2671 C2667 1.393 . S
C2671 C2670 1.391 . S
H2672 C2680 0.950 . S
H2673 C2685 0.950 . S
H2674 C2682 0.950 . S
H2675 C2684 0.950 . S
H2676 C2686 0.950 . S
H2677 C2688 0.950 . S
H2678 C2690 0.950 . S
H2679 C2691 0.950 . S
C2680 H2672 0.950 . S
C2680 C2681 1.386 . S
C2680 C2682 1.391 . S
C2681 C2680 1.386 . S
C2681 C2685 1.393 . S
C2682 H2674 0.950 . S
C2682 C2680 1.391 . S
C2682 C2683 1.400 . S
C2683 C2682 1.400 . S
C2683 C2684 1.398 . S
C2683 C2689 1.491 1_556 S
C2684 H2675 0.950 . S
C2684 C2683 1.398 . S
C2684 C2685 1.391 . S
C2685 H2673 0.950 . S
C2685 C2681 1.393 . S
C2685 C2684 1.391 . S
C2686 H2676 0.950 . S
C2686 C2687 1.386 . S
C2686 C2688 1.391 . S
C2687 C2686 1.386 . S
C2687 C2691 1.393 . S
C2688 H2677 0.950 . S
C2688 C2686 1.391 . S
C2688 C2689 1.400 . S
C2689 C2683 1.491 1_554 S
C2689 C2688 1.400 . S
C2689 C2690 1.398 . S
C2690 H2678 0.950 . S
C2690 C2689 1.398 . S
C2690 C2691 1.391 . S
C2691 H2679 0.950 . S
C2691 C2687 1.393 . S
C2691 C2690 1.391 . S
H2692 C2700 0.950 . S
H2693 C2705 0.950 . S
H2694 C2702 0.950 . S
H2695 C2704 0.950 . S
H2696 C2706 0.950 . S
H2697 C2708 0.950 . S
H2698 C2710 0.950 . S
H2699 C2711 0.950 . S
C2700 H2692 0.950 . S
C2700 C2701 1.386 . S
C2700 C2702 1.391 . S
C2701 C2700 1.386 . S
C2701 C2705 1.393 . S
C2702 H2694 0.950 . S
C2702 C2700 1.391 . S
C2702 C2703 1.400 . S
C2703 C2702 1.400 . S
C2703 C2704 1.398 . S
C2703 C2709 1.491 . S
C2704 H2695 0.950 . S
C2704 C2703 1.398 . S
C2704 C2705 1.391 . S
C2705 H2693 0.950 . S
C2705 C2701 1.393 . S
C2705 C2704 1.391 . S
C2706 H2696 0.950 . S
C2706 C2707 1.386 . S
C2706 C2708 1.391 . S
C2707 C2706 1.386 . S
C2707 C2711 1.393 . S
C2708 H2697 0.950 . S
C2708 C2706 1.391 . S
C2708 C2709 1.400 . S
C2709 C2703 1.491 . S
C2709 C2708 1.400 . S
C2709 C2710 1.398 . S
C2710 H2698 0.950 . S
C2710 C2709 1.398 . S
C2710 C2711 1.391 . S
C2711 H2699 0.950 . S
C2711 C2707 1.393 . S
C2711 C2710 1.391 . S
H2712 C2720 0.950 . S
H2713 C2725 0.950 . S
H2714 C2722 0.950 . S
H2715 C2724 0.950 . S
H2716 C2726 0.950 . S
H2717 C2728 0.950 . S
H2718 C2730 0.950 . S
H2719 C2731 0.950 . S
C2720 H2712 0.950 . S
C2720 C2721 1.386 . S
C2720 C2722 1.391 . S
C2721 C2720 1.386 . S
C2721 C2725 1.393 . S
C2722 H2714 0.950 . S
C2722 C2720 1.391 . S
C2722 C2723 1.400 . S
C2723 C2722 1.400 . S
C2723 C2724 1.398 . S
C2723 C2729 1.491 1_556 S
C2724 H2715 0.950 . S
C2724 C2723 1.398 . S
C2724 C2725 1.391 . S
C2725 H2713 0.950 . S
C2725 C2721 1.393 . S
C2725 C2724 1.391 . S
C2726 H2716 0.950 . S
C2726 C2727 1.386 . S
C2726 C2728 1.391 . S
C2727 C2726 1.386 . S
C2727 C2731 1.393 . S
C2728 H2717 0.950 . S
C2728 C2726 1.391 . S
C2728 C2729 1.400 . S
C2729 C2723 1.491 1_554 S
C2729 C2728 1.400 . S
C2729 C2730 1.398 . S
C2730 H2718 0.950 . S
C2730 C2729 1.398 . S
C2730 C2731 1.391 . S
C2731 H2719 0.950 . S
C2731 C2727 1.393 . S
C2731 C2730 1.391 . S
H2732 C2740 0.950 . S
H2733 C2745 0.950 . S
H2734 C2742 0.910 1_565 S
H2735 C2744 0.950 . S
H2736 C2746 0.950 . S
H2737 C2748 0.910 1_545 S
H2738 C2750 0.950 . S
H2739 C2751 0.950 . S
C2740 H2732 0.950 . S
C2740 C2741 1.386 . S
C2740 C2742 1.418 . S
C2741 C2740 1.386 . S
C2741 C2745 1.393 . S
C2742 H2734 0.910 1_545 S
C2742 C2740 1.418 . S
C2742 C2743 1.413 . S
C2743 C2742 1.413 . S
C2743 C2744 1.398 . S
C2743 C2749 1.491 1_545 S
C2744 H2735 0.950 . S
C2744 C2743 1.398 . S
C2744 C2745 1.391 . S
C2745 H2733 0.950 . S
C2745 C2741 1.393 . S
C2745 C2744 1.391 . S
C2746 H2736 0.950 . S
C2746 C2747 1.386 . S
C2746 C2748 1.418 . S
C2747 C2746 1.386 . S
C2747 C2751 1.393 . S
C2748 H2737 0.910 1_565 S
C2748 C2746 1.418 . S
C2748 C2749 1.413 . S
C2749 C2743 1.491 1_565 S
C2749 C2748 1.413 . S
C2749 C2750 1.398 . S
C2750 H2738 0.950 . S
C2750 C2749 1.398 . S
C2750 C2751 1.391 . S
C2751 H2739 0.950 . S
C2751 C2747 1.393 . S
C2751 C2750 1.391 . S
H2752 C2760 0.950 . S
H2753 C2765 0.950 . S
H2754 C2762 0.950 . S
H2755 C2764 0.950 . S
H2756 C2766 0.950 . S
H2757 C2768 0.950 . S
H2758 C2770 0.950 . S
H2759 C2771 0.950 . S
C2760 H2752 0.950 . S
C2760 C2761 1.386 . S
C2760 C2762 1.391 . S
C2761 C2760 1.386 . S
C2761 C2765 1.393 . S
C2762 H2754 0.950 . S
C2762 C2760 1.391 . S
C2762 C2763 1.400 . S
C2763 C2762 1.400 . S
C2763 C2764 1.398 . S
C2763 C2769 1.491 . S
C2764 H2755 0.950 . S
C2764 C2763 1.398 . S
C2764 C2765 1.391 . S
C2765 H2753 0.950 . S
C2765 C2761 1.393 . S
C2765 C2764 1.391 . S
C2766 H2756 0.950 . S
C2766 C2767 1.386 . S
C2766 C2768 1.391 . S
C2767 C2766 1.386 . S
C2767 C2771 1.393 . S
C2768 H2757 0.950 . S
C2768 C2766 1.391 . S
C2768 C2769 1.400 . S
C2769 C2763 1.491 . S
C2769 C2768 1.400 . S
C2769 C2770 1.398 . S
C2770 H2758 0.950 . S
C2770 C2769 1.398 . S
C2770 C2771 1.391 . S
C2771 H2759 0.950 . S
C2771 C2767 1.393 . S
C2771 C2770 1.391 . S
H2772 C2780 0.950 . S
H2773 C2785 0.950 . S
H2774 C2782 0.950 . S
H2775 C2784 0.950 . S
H2776 C2786 0.950 . S
H2777 C2788 0.950 . S
H2778 C2790 0.950 . S
H2779 C2791 0.950 . S
C2780 H2772 0.950 . S
C2780 C2781 1.386 . S
C2780 C2782 1.391 . S
C2781 C2780 1.386 . S
C2781 C2785 1.393 . S
C2782 H2774 0.950 . S
C2782 C2780 1.391 . S
C2782 C2783 1.400 . S
C2783 C2782 1.400 . S
C2783 C2784 1.398 . S
C2783 C2789 1.491 . S
C2784 H2775 0.950 . S
C2784 C2783 1.398 . S
C2784 C2785 1.391 . S
C2785 H2773 0.950 . S
C2785 C2781 1.393 . S
C2785 C2784 1.391 . S
C2786 H2776 0.950 . S
C2786 C2787 1.386 . S
C2786 C2788 1.391 . S
C2787 C2786 1.386 . S
C2787 C2791 1.393 . S
C2788 H2777 0.950 . S
C2788 C2786 1.391 . S
C2788 C2789 1.400 . S
C2789 C2783 1.491 . S
C2789 C2788 1.400 . S
C2789 C2790 1.398 . S
C2790 H2778 0.950 . S
C2790 C2789 1.398 . S
C2790 C2791 1.391 . S
C2791 H2779 0.950 . S
C2791 C2787 1.393 . S
C2791 C2790 1.391 . S
H2792 C2800 0.950 . S
H2793 C2805 0.950 . S
H2794 C2802 0.950 . S
H2795 C2804 0.950 . S
H2796 C2806 0.950 . S
H2797 C2808 0.950 . S
H2798 C2810 0.950 . S
H2799 C2811 0.950 . S
C2800 H2792 0.950 . S
C2800 C2801 1.386 . S
C2800 C2802 1.391 . S
C2801 C2800 1.386 . S
C2801 C2805 1.393 . S
C2802 H2794 0.950 . S
C2802 C2800 1.391 . S
C2802 C2803 1.400 . S
C2803 C2802 1.400 . S
C2803 C2804 1.398 . S
C2803 C2809 1.491 . S
C2804 H2795 0.950 . S
C2804 C2803 1.398 . S
C2804 C2805 1.391 . S
C2805 H2793 0.950 . S
C2805 C2801 1.393 . S
C2805 C2804 1.391 . S
C2806 H2796 0.950 . S
C2806 C2807 1.386 . S
C2806 C2808 1.391 . S
C2807 C2806 1.386 . S
C2807 C2811 1.393 . S
C2808 H2797 0.950 . S
C2808 C2806 1.391 . S
C2808 C2809 1.400 . S
C2809 C2803 1.491 . S
C2809 C2808 1.400 . S
C2809 C2810 1.398 . S
C2810 H2798 0.950 . S
C2810 C2809 1.398 . S
C2810 C2811 1.391 . S
C2811 H2799 0.950 . S
C2811 C2807 1.393 . S
C2811 C2810 1.391 . S
H2812 C2820 0.950 . S
H2813 C2825 0.950 . S
H2814 C2822 0.950 . S
H2815 C2824 0.949 . S
H2816 C2826 0.950 . S
H2817 C2828 0.950 . S
H2818 C2830 0.949 . S
H2819 C2831 0.950 . S
C2820 H2812 0.950 . S
C2820 C2821 1.386 . S
C2820 C2822 1.391 . S
C2821 C2820 1.386 . S
C2821 C2825 1.393 . S
C2822 H2814 0.950 . S
C2822 C2820 1.391 . S
C2822 C2823 1.400 . S
C2823 C2822 1.400 . S
C2823 C2824 1.399 1_545 S
C2823 C2829 1.491 1_545 S
C2824 H2815 0.949 . S
C2824 C2823 1.399 1_565 S
C2824 C2825 1.391 1_565 S
C2825 H2813 0.950 . S
C2825 C2821 1.393 . S
C2825 C2824 1.391 1_545 S
C2826 H2816 0.950 . S
C2826 C2827 1.386 . S
C2826 C2828 1.391 . S
C2827 C2826 1.386 . S
C2827 C2831 1.393 . S
C2828 H2817 0.950 . S
C2828 C2826 1.391 . S
C2828 C2829 1.400 . S
C2829 C2823 1.491 1_565 S
C2829 C2828 1.400 . S
C2829 C2830 1.399 1_565 S
C2830 H2818 0.949 . S
C2830 C2829 1.399 1_545 S
C2830 C2831 1.391 1_545 S
C2831 H2819 0.950 . S
C2831 C2827 1.393 . S
C2831 C2830 1.391 1_565 S
H2832 C2840 0.950 . S
H2833 C2845 0.950 . S
H2834 C2842 0.950 . S
H2835 C2844 0.950 . S
H2836 C2846 0.950 . S
H2837 C2848 0.950 . S
H2838 C2850 0.950 . S
H2839 C2851 0.950 . S
C2840 H2832 0.950 . S
C2840 C2841 1.386 . S
C2840 C2842 1.391 . S
C2841 C2840 1.386 . S
C2841 C2845 1.393 . S
C2842 H2834 0.950 . S
C2842 C2840 1.391 . S
C2842 C2843 1.400 . S
C2843 C2842 1.400 . S
C2843 C2844 1.398 . S
C2843 C2849 1.491 1_655 S
C2844 H2835 0.950 . S
C2844 C2843 1.398 . S
C2844 C2845 1.391 . S
C2845 H2833 0.950 . S
C2845 C2841 1.393 . S
C2845 C2844 1.391 . S
C2846 H2836 0.950 . S
C2846 C2847 1.386 . S
C2846 C2848 1.391 . S
C2847 C2846 1.386 . S
C2847 C2851 1.393 . S
C2848 H2837 0.950 . S
C2848 C2846 1.391 . S
C2848 C2849 1.400 . S
C2849 C2843 1.491 1_455 S
C2849 C2848 1.400 . S
C2849 C2850 1.398 . S
C2850 H2838 0.950 . S
C2850 C2849 1.398 . S
C2850 C2851 1.391 . S
C2851 H2839 0.950 . S
C2851 C2847 1.393 . S
C2851 C2850 1.391 . S
H2852 C2860 0.950 . S
H2853 C2865 0.950 . S
H2854 C2862 0.950 1_455 S
H2855 C2864 0.950 . S
H2856 C2866 0.950 . S
H2857 C2868 0.950 1_655 S
H2858 C2870 0.950 . S
H2859 C2871 0.950 . S
C2860 H2852 0.950 . S
C2860 C2861 1.386 . S
C2860 C2862 1.391 . S
C2861 C2860 1.386 . S
C2861 C2865 1.393 . S
C2862 H2854 0.950 1_655 S
C2862 C2860 1.391 . S
C2862 C2863 1.400 . S
C2863 C2862 1.400 . S
C2863 C2864 1.398 . S
C2863 C2869 1.491 1_655 S
C2864 H2855 0.950 . S
C2864 C2863 1.398 . S
C2864 C2865 1.391 . S
C2865 H2853 0.950 . S
C2865 C2861 1.393 . S
C2865 C2864 1.391 . S
C2866 H2856 0.950 . S
C2866 C2867 1.386 . S
C2866 C2868 1.391 . S
C2867 C2866 1.386 . S
C2867 C2871 1.393 . S
C2868 H2857 0.950 1_455 S
C2868 C2866 1.391 . S
C2868 C2869 1.400 . S
C2869 C2863 1.491 1_455 S
C2869 C2868 1.400 . S
C2869 C2870 1.398 . S
C2870 H2858 0.950 . S
C2870 C2869 1.398 . S
C2870 C2871 1.391 . S
C2871 H2859 0.950 . S
C2871 C2867 1.393 . S
C2871 C2870 1.391 . S
H2872 C2880 0.950 . S
H2873 C2885 0.950 . S
H2874 C2882 0.950 . S
H2875 C2884 0.951 1_655 S
H2876 C2886 0.950 . S
H2877 C2888 0.950 . S
H2878 C2890 0.951 1_455 S
H2879 C2891 0.950 . S
C2880 H2872 0.950 . S
C2880 C2881 1.386 . S
C2880 C2882 1.391 . S
C2881 C2880 1.386 . S
C2881 C2885 1.393 . S
C2882 H2874 0.950 . S
C2882 C2880 1.391 . S
C2882 C2883 1.400 . S
C2883 C2882 1.400 . S
C2883 C2884 1.398 . S
C2883 C2889 1.491 1_455 S
C2884 H2875 0.951 1_455 S
C2884 C2883 1.398 . S
C2884 C2885 1.390 . S
C2885 H2873 0.950 . S
C2885 C2881 1.393 . S
C2885 C2884 1.390 . S
C2886 H2876 0.950 . S
C2886 C2887 1.386 . S
C2886 C2888 1.391 . S
C2887 C2886 1.386 . S
C2887 C2891 1.393 . S
C2888 H2877 0.950 . S
C2888 C2886 1.391 . S
C2888 C2889 1.400 . S
C2889 C2883 1.491 1_655 S
C2889 C2888 1.400 . S
C2889 C2890 1.398 . S
C2890 H2878 0.951 1_655 S
C2890 C2889 1.398 . S
C2890 C2891 1.390 . S
C2891 H2879 0.950 . S
C2891 C2887 1.393 . S
C2891 C2890 1.390 . S
H2892 C2900 0.950 . S
H2893 C2905 0.950 . S
H2894 C2902 0.950 . S
H2895 C2904 0.950 . S
H2896 C2906 0.950 . S
H2897 C2908 0.950 . S
H2898 C2910 0.950 . S
H2899 C2911 0.950 . S
C2900 H2892 0.950 . S
C2900 C2901 1.386 . S
C2900 C2902 1.391 . S
C2901 C2900 1.386 . S
C2901 C2905 1.393 . S
C2902 H2894 0.950 . S
C2902 C2900 1.391 . S
C2902 C2903 1.400 . S
C2903 C2902 1.400 . S
C2903 C2904 1.398 . S
C2903 C2909 1.491 . S
C2904 H2895 0.950 . S
C2904 C2903 1.398 . S
C2904 C2905 1.391 . S
C2905 H2893 0.950 . S
C2905 C2901 1.393 . S
C2905 C2904 1.391 . S
C2906 H2896 0.950 . S
C2906 C2907 1.386 . S
C2906 C2908 1.391 . S
C2907 C2906 1.386 . S
C2907 C2911 1.393 . S
C2908 H2897 0.950 . S
C2908 C2906 1.391 . S
C2908 C2909 1.400 . S
C2909 C2903 1.491 . S
C2909 C2908 1.400 . S
C2909 C2910 1.398 . S
C2910 H2898 0.950 . S
C2910 C2909 1.398 . S
C2910 C2911 1.391 . S
C2911 H2899 0.950 . S
C2911 C2907 1.393 . S
C2911 C2910 1.391 . S
H2912 C2920 0.950 . S
H2913 C2925 0.950 . S
H2914 C2922 0.950 . S
H2915 C2924 0.950 . S
H2916 C2926 0.950 . S
H2917 C2928 0.950 . S
H2918 C2930 0.950 . S
H2919 C2931 0.950 . S
C2920 H2912 0.950 . S
C2920 C2921 1.386 . S
C2920 C2922 1.391 . S
C2921 C2920 1.386 . S
C2921 C2925 1.393 . S
C2922 H2914 0.950 . S
C2922 C2920 1.391 . S
C2922 C2923 1.400 . S
C2923 C2922 1.400 . S
C2923 C2924 1.398 . S
C2923 C2929 1.491 . S
C2924 H2915 0.950 . S
C2924 C2923 1.398 . S
C2924 C2925 1.391 . S
C2925 H2913 0.950 . S
C2925 C2921 1.393 . S
C2925 C2924 1.391 . S
C2926 H2916 0.950 . S
C2926 C2927 1.386 . S
C2926 C2928 1.391 . S
C2927 C2926 1.386 . S
C2927 C2931 1.393 . S
C2928 H2917 0.950 . S
C2928 C2926 1.391 . S
C2928 C2929 1.400 . S
C2929 C2923 1.491 . S
C2929 C2928 1.400 . S
C2929 C2930 1.398 . S
C2930 H2918 0.950 . S
C2930 C2929 1.398 . S
C2930 C2931 1.391 . S
C2931 H2919 0.950 . S
C2931 C2927 1.393 . S
C2931 C2930 1.391 . S
H2932 C2940 0.950 . S
H2933 C2945 0.950 . S
H2934 C2942 0.950 . S
H2935 C2944 0.950 1_455 S
H2936 C2946 0.950 . S
H2937 C2948 0.950 . S
H2938 C2950 0.950 1_655 S
H2939 C2951 0.950 . S
C2940 H2932 0.950 . S
C2940 C2941 1.386 . S
C2940 C2942 1.391 . S
C2941 C2940 1.386 . S
C2941 C2945 1.393 . S
C2942 H2934 0.950 . S
C2942 C2940 1.391 . S
C2942 C2943 1.400 . S
C2943 C2942 1.400 . S
C2943 C2944 1.398 . S
C2943 C2949 1.491 1_655 S
C2944 H2935 0.950 1_655 S
C2944 C2943 1.398 . S
C2944 C2945 1.391 . S
C2945 H2933 0.950 . S
C2945 C2941 1.393 . S
C2945 C2944 1.391 . S
C2946 H2936 0.950 . S
C2946 C2947 1.386 . S
C2946 C2948 1.391 . S
C2947 C2946 1.386 . S
C2947 C2951 1.393 . S
C2948 H2937 0.950 . S
C2948 C2946 1.391 . S
C2948 C2949 1.400 . S
C2949 C2943 1.491 1_455 S
C2949 C2948 1.400 . S
C2949 C2950 1.398 . S
C2950 H2938 0.950 1_455 S
C2950 C2949 1.398 . S
C2950 C2951 1.391 . S
C2951 H2939 0.950 . S
C2951 C2947 1.393 . S
C2951 C2950 1.391 . S
H2952 C2960 0.950 . S
H2953 C2965 0.950 . S
H2954 C2962 0.950 . S
H2955 C2964 0.950 . S
H2956 C2966 0.950 . S
H2957 C2968 0.950 . S
H2958 C2970 0.950 . S
H2959 C2971 0.950 . S
C2960 H2952 0.950 . S
C2960 C2961 1.386 . S
C2960 C2962 1.391 . S
C2961 C2960 1.386 . S
C2961 C2965 1.393 . S
C2962 H2954 0.950 . S
C2962 C2960 1.391 . S
C2962 C2963 1.400 . S
C2963 C2962 1.400 . S
C2963 C2964 1.398 . S
C2963 C2969 1.491 . S
C2964 H2955 0.950 . S
C2964 C2963 1.398 . S
C2964 C2965 1.391 . S
C2965 H2953 0.950 . S
C2965 C2961 1.393 . S
C2965 C2964 1.391 . S
C2966 H2956 0.950 . S
C2966 C2967 1.386 . S
C2966 C2968 1.391 . S
C2967 C2966 1.386 . S
C2967 C2971 1.393 . S
C2968 H2957 0.950 . S
C2968 C2966 1.391 . S
C2968 C2969 1.400 . S
C2969 C2963 1.491 . S
C2969 C2968 1.400 . S
C2969 C2970 1.398 . S
C2970 H2958 0.950 . S
C2970 C2969 1.398 . S
C2970 C2971 1.391 . S
C2971 H2959 0.950 . S
C2971 C2967 1.393 . S
C2971 C2970 1.391 . S
H2972 C2980 0.950 . S
H2973 C2985 0.950 . S
H2974 C2982 0.950 . S
H2975 C2984 0.950 . S
H2976 C2986 0.950 . S
H2977 C2988 0.950 . S
H2978 C2990 0.950 . S
H2979 C2991 0.950 . S
C2980 H2972 0.950 . S
C2980 C2981 1.386 . S
C2980 C2982 1.391 . S
C2981 C2980 1.386 . S
C2981 C2985 1.393 . S
C2982 H2974 0.950 . S
C2982 C2980 1.391 . S
C2982 C2983 1.400 . S
C2983 C2982 1.400 . S
C2983 C2984 1.398 . S
C2983 C2989 1.491 . S
C2984 H2975 0.950 . S
C2984 C2983 1.398 . S
C2984 C2985 1.391 . S
C2985 H2973 0.950 . S
C2985 C2981 1.393 . S
C2985 C2984 1.391 . S
C2986 H2976 0.950 . S
C2986 C2987 1.386 . S
C2986 C2988 1.391 . S
C2987 C2986 1.386 . S
C2987 C2991 1.393 . S
C2988 H2977 0.950 . S
C2988 C2986 1.391 . S
C2988 C2989 1.400 . S
C2989 C2983 1.491 . S
C2989 C2988 1.400 . S
C2989 C2990 1.398 . S
C2990 H2978 0.950 . S
C2990 C2989 1.398 . S
C2990 C2991 1.391 . S
C2991 H2979 0.950 . S
C2991 C2987 1.393 . S
C2991 C2990 1.391 . S
H2992 C3000 0.950 . S
H2993 C3005 0.950 . S
H2994 C3002 0.950 . S
H2995 C3004 0.950 1_545 S
H2996 C3006 0.950 . S
H2997 C3008 0.950 . S
H2998 C3010 0.950 1_565 S
H2999 C3011 0.950 . S
C3000 H2992 0.950 . S
C3000 C3001 1.386 . S
C3000 C3002 1.391 . S
C3001 C3000 1.386 . S
C3001 C3005 1.393 . S
C3002 H2994 0.950 . S
C3002 C3000 1.391 . S
C3002 C3003 1.400 . S
C3003 C3002 1.400 . S
C3003 C3004 1.398 . S
C3003 C3009 1.491 1_565 S
C3004 H2995 0.950 1_565 S
C3004 C3003 1.398 . S
C3004 C3005 1.391 . S
C3005 H2993 0.950 . S
C3005 C3001 1.393 . S
C3005 C3004 1.391 . S
C3006 H2996 0.950 . S
C3006 C3007 1.386 . S
C3006 C3008 1.391 . S
C3007 C3006 1.386 . S
C3007 C3011 1.393 . S
C3008 H2997 0.950 . S
C3008 C3006 1.391 . S
C3008 C3009 1.400 . S
C3009 C3003 1.491 1_545 S
C3009 C3008 1.400 . S
C3009 C3010 1.398 . S
C3010 H2998 0.950 1_545 S
C3010 C3009 1.398 . S
C3010 C3011 1.391 . S
C3011 H2999 0.950 . S
C3011 C3007 1.393 . S
C3011 C3010 1.391 . S
H3012 C3020 0.950 . S
H3013 C3025 0.950 . S
H3014 C3022 0.950 . S
H3015 C3024 0.950 . S
H3016 C3026 0.950 . S
H3017 C3028 0.950 . S
H3018 C3030 0.950 . S
H3019 C3031 0.950 . S
C3020 H3012 0.950 . S
C3020 C3021 1.386 . S
C3020 C3022 1.391 . S
C3021 C3020 1.386 . S
C3021 C3025 1.393 . S
C3022 H3014 0.950 . S
C3022 C3020 1.391 . S
C3022 C3023 1.400 . S
C3023 C3022 1.400 . S
C3023 C3024 1.398 . S
C3023 C3029 1.491 . S
C3024 H3015 0.950 . S
C3024 C3023 1.398 . S
C3024 C3025 1.391 . S
C3025 H3013 0.950 . S
C3025 C3021 1.393 . S
C3025 C3024 1.391 . S
C3026 H3016 0.950 . S
C3026 C3027 1.386 . S
C3026 C3028 1.391 . S
C3027 C3026 1.386 . S
C3027 C3031 1.393 . S
C3028 H3017 0.950 . S
C3028 C3026 1.391 . S
C3028 C3029 1.400 . S
C3029 C3023 1.491 . S
C3029 C3028 1.400 . S
C3029 C3030 1.398 . S
C3030 H3018 0.950 . S
C3030 C3029 1.398 . S
C3030 C3031 1.391 . S
C3031 H3019 0.950 . S
C3031 C3027 1.393 . S
C3031 C3030 1.391 . S
H3032 C3040 0.950 . S
H3033 C3045 0.950 . S
H3034 C3042 0.950 . S
H3035 C3044 0.950 . S
H3036 C3046 0.950 . S
H3037 C3048 0.950 . S
H3038 C3050 0.950 . S
H3039 C3051 0.950 . S
C3040 H3032 0.950 . S
C3040 C3041 1.386 . S
C3040 C3042 1.391 . S
C3041 C3040 1.386 . S
C3041 C3045 1.393 . S
C3042 H3034 0.950 . S
C3042 C3040 1.391 . S
C3042 C3043 1.400 . S
C3043 C3042 1.400 . S
C3043 C3044 1.398 . S
C3043 C3049 1.491 . S
C3044 H3035 0.950 . S
C3044 C3043 1.398 . S
C3044 C3045 1.391 . S
C3045 H3033 0.950 . S
C3045 C3041 1.393 . S
C3045 C3044 1.391 . S
C3046 H3036 0.950 . S
C3046 C3047 1.386 . S
C3046 C3048 1.391 . S
C3047 C3046 1.386 . S
C3047 C3051 1.393 . S
C3048 H3037 0.950 . S
C3048 C3046 1.391 . S
C3048 C3049 1.400 . S
C3049 C3043 1.491 . S
C3049 C3048 1.400 . S
C3049 C3050 1.398 . S
C3050 H3038 0.950 . S
C3050 C3049 1.398 . S
C3050 C3051 1.391 . S
C3051 H3039 0.950 . S
C3051 C3047 1.393 . S
C3051 C3050 1.391 . S
H3052 C3060 0.950 . S
H3053 C3065 0.950 . S
H3054 C3062 0.950 . S
H3055 C3064 0.950 . S
H3056 C3066 0.950 . S
H3057 C3068 0.950 . S
H3058 C3070 0.950 . S
H3059 C3071 0.950 . S
C3060 H3052 0.950 . S
C3060 C3061 1.386 . S
C3060 C3062 1.391 . S
C3061 C3060 1.386 . S
C3061 C3065 1.393 . S
C3062 H3054 0.950 . S
C3062 C3060 1.391 . S
C3062 C3063 1.400 . S
C3063 C3062 1.400 . S
C3063 C3064 1.398 . S
C3063 C3069 1.491 . S
C3064 H3055 0.950 . S
C3064 C3063 1.398 . S
C3064 C3065 1.391 . S
C3065 H3053 0.950 . S
C3065 C3061 1.393 . S
C3065 C3064 1.391 . S
C3066 H3056 0.950 . S
C3066 C3067 1.386 . S
C3066 C3068 1.391 . S
C3067 C3066 1.386 . S
C3067 C3071 1.393 . S
C3068 H3057 0.950 . S
C3068 C3066 1.391 . S
C3068 C3069 1.400 . S
C3069 C3063 1.491 . S
C3069 C3068 1.400 . S
C3069 C3070 1.398 . S
C3070 H3058 0.950 . S
C3070 C3069 1.398 . S
C3070 C3071 1.391 . S
C3071 H3059 0.950 . S
C3071 C3067 1.393 . S
C3071 C3070 1.391 . S
H3072 C3080 0.950 . S
H3073 C3085 0.950 . S
H3074 C3082 0.950 . S
H3075 C3084 0.950 . S
H3076 C3086 0.950 . S
H3077 C3088 0.950 . S
H3078 C3090 0.950 . S
H3079 C3091 0.950 . S
C3080 H3072 0.950 . S
C3080 C3081 1.386 . S
C3080 C3082 1.391 . S
C3081 C3080 1.386 . S
C3081 C3085 1.393 . S
C3082 H3074 0.950 . S
C3082 C3080 1.391 . S
C3082 C3083 1.400 . S
C3083 C3082 1.400 . S
C3083 C3084 1.398 . S
C3083 C3089 1.491 . S
C3084 H3075 0.950 . S
C3084 C3083 1.398 . S
C3084 C3085 1.391 . S
C3085 H3073 0.950 . S
C3085 C3081 1.393 . S
C3085 C3084 1.391 . S
C3086 H3076 0.950 . S
C3086 C3087 1.386 . S
C3086 C3088 1.391 . S
C3087 C3086 1.386 . S
C3087 C3091 1.393 . S
C3088 H3077 0.950 . S
C3088 C3086 1.391 . S
C3088 C3089 1.400 . S
C3089 C3083 1.491 . S
C3089 C3088 1.400 . S
C3089 C3090 1.398 . S
C3090 H3078 0.950 . S
C3090 C3089 1.398 . S
C3090 C3091 1.391 . S
C3091 H3079 0.950 . S
C3091 C3087 1.393 . S
C3091 C3090 1.391 . S
H3092 C3100 0.950 . S
H3093 C3105 0.950 . S
H3094 C3102 0.950 . S
H3095 C3104 0.950 . S
H3096 C3106 0.950 . S
H3097 C3108 0.950 . S
H3098 C3110 0.950 . S
H3099 C3111 0.950 . S
C3100 H3092 0.950 . S
C3100 C3101 1.386 . S
C3100 C3102 1.391 . S
C3101 C3100 1.386 . S
C3101 C3105 1.393 . S
C3102 H3094 0.950 . S
C3102 C3100 1.391 . S
C3102 C3103 1.400 . S
C3103 C3102 1.400 . S
C3103 C3104 1.398 . S
C3103 C3109 1.491 . S
C3104 H3095 0.950 . S
C3104 C3103 1.398 . S
C3104 C3105 1.391 . S
C3105 H3093 0.950 . S
C3105 C3101 1.393 . S
C3105 C3104 1.391 . S
C3106 H3096 0.950 . S
C3106 C3107 1.386 . S
C3106 C3108 1.391 . S
C3107 C3106 1.386 . S
C3107 C3111 1.393 . S
C3108 H3097 0.950 . S
C3108 C3106 1.391 . S
C3108 C3109 1.400 . S
C3109 C3103 1.491 . S
C3109 C3108 1.400 . S
C3109 C3110 1.398 . S
C3110 H3098 0.950 . S
C3110 C3109 1.398 . S
C3110 C3111 1.391 . S
C3111 H3099 0.950 . S
C3111 C3107 1.393 . S
C3111 C3110 1.391 . S
H3112 C3120 0.950 . S
H3113 C3125 0.950 . S
H3114 C3122 0.950 . S
H3115 C3124 0.950 . S
H3116 C3126 0.950 . S
H3117 C3128 0.950 . S
H3118 C3130 0.950 . S
H3119 C3131 0.950 . S
C3120 H3112 0.950 . S
C3120 C3121 1.386 . S
C3120 C3122 1.391 . S
C3121 C3120 1.386 . S
C3121 C3125 1.393 . S
C3122 H3114 0.950 . S
C3122 C3120 1.391 . S
C3122 C3123 1.400 . S
C3123 C3122 1.400 . S
C3123 C3124 1.398 . S
C3123 C3129 1.491 . S
C3124 H3115 0.950 . S
C3124 C3123 1.398 . S
C3124 C3125 1.391 . S
C3125 H3113 0.950 . S
C3125 C3121 1.393 . S
C3125 C3124 1.391 . S
C3126 H3116 0.950 . S
C3126 C3127 1.386 . S
C3126 C3128 1.391 . S
C3127 C3126 1.386 . S
C3127 C3131 1.393 . S
C3128 H3117 0.950 . S
C3128 C3126 1.391 . S
C3128 C3129 1.400 . S
C3129 C3123 1.491 . S
C3129 C3128 1.400 . S
C3129 C3130 1.398 . S
C3130 H3118 0.950 . S
C3130 C3129 1.398 . S
C3130 C3131 1.391 . S
C3131 H3119 0.950 . S
C3131 C3127 1.393 . S
C3131 C3130 1.391 . S
H3132 C3140 0.950 . S
H3133 C3145 0.950 . S
H3134 C3142 0.950 . S
H3135 C3144 0.950 . S
H3136 C3146 0.950 . S
H3137 C3148 0.950 . S
H3138 C3150 0.950 . S
H3139 C3151 0.950 . S
C3140 H3132 0.950 . S
C3140 C3141 1.386 . S
C3140 C3142 1.391 . S
C3141 C3140 1.386 . S
C3141 C3145 1.393 . S
C3142 H3134 0.950 . S
C3142 C3140 1.391 . S
C3142 C3143 1.400 . S
C3143 C3142 1.400 . S
C3143 C3144 1.398 . S
C3143 C3149 1.491 . S
C3144 H3135 0.950 . S
C3144 C3143 1.398 . S
C3144 C3145 1.391 . S
C3145 H3133 0.950 . S
C3145 C3141 1.393 . S
C3145 C3144 1.391 . S
C3146 H3136 0.950 . S
C3146 C3147 1.386 . S
C3146 C3148 1.391 . S
C3147 C3146 1.386 . S
C3147 C3151 1.393 . S
C3148 H3137 0.950 . S
C3148 C3146 1.391 . S
C3148 C3149 1.400 . S
C3149 C3143 1.491 . S
C3149 C3148 1.400 . S
C3149 C3150 1.398 . S
C3150 H3138 0.950 . S
C3150 C3149 1.398 . S
C3150 C3151 1.391 . S
C3151 H3139 0.950 . S
C3151 C3147 1.393 . S
C3151 C3150 1.391 . S
H3152 C3160 0.950 . S
H3153 C3165 0.950 . S
H3154 C3162 0.950 . S
H3155 C3164 0.950 . S
H3156 C3166 0.950 . S
H3157 C3168 0.950 . S
H3158 C3170 0.950 . S
H3159 C3171 0.950 . S
C3160 H3152 0.950 . S
C3160 C3161 1.386 . S
C3160 C3162 1.391 . S
C3161 C3160 1.386 . S
C3161 C3165 1.393 . S
C3162 H3154 0.950 . S
C3162 C3160 1.391 . S
C3162 C3163 1.400 . S
C3163 C3162 1.400 . S
C3163 C3164 1.398 . S
C3163 C3169 1.491 . S
C3164 H3155 0.950 . S
C3164 C3163 1.398 . S
C3164 C3165 1.391 . S
C3165 H3153 0.950 . S
C3165 C3161 1.393 . S
C3165 C3164 1.391 . S
C3166 H3156 0.950 . S
C3166 C3167 1.386 . S
C3166 C3168 1.391 . S
C3167 C3166 1.386 . S
C3167 C3171 1.393 . S
C3168 H3157 0.950 . S
C3168 C3166 1.391 . S
C3168 C3169 1.400 . S
C3169 C3163 1.491 . S
C3169 C3168 1.400 . S
C3169 C3170 1.398 . S
C3170 H3158 0.950 . S
C3170 C3169 1.398 . S
C3170 C3171 1.391 . S
C3171 H3159 0.950 . S
C3171 C3167 1.393 . S
C3171 C3170 1.391 . S
H3172 C3180 0.950 . S
H3173 C3185 0.950 . S
H3174 C3182 0.950 . S
H3175 C3184 0.950 . S
H3176 C3186 0.950 . S
H3177 C3188 0.950 . S
H3178 C3190 0.950 . S
H3179 C3191 0.950 . S
C3180 H3172 0.950 . S
C3180 C3181 1.386 . S
C3180 C3182 1.391 1_655 S
C3181 C3180 1.386 . S
C3181 C3185 1.393 . S
C3182 H3174 0.950 . S
C3182 C3180 1.391 1_455 S
C3182 C3183 1.400 . S
C3183 C3182 1.400 . S
C3183 C3184 1.398 1_455 S
C3183 C3189 1.491 . S
C3184 H3175 0.950 . S
C3184 C3183 1.398 1_655 S
C3184 C3185 1.391 . S
C3185 H3173 0.950 . S
C3185 C3181 1.393 . S
C3185 C3184 1.391 . S
C3186 H3176 0.950 . S
C3186 C3187 1.386 . S
C3186 C3188 1.391 . S
C3187 C3186 1.386 . S
C3187 C3191 1.393 . S
C3188 H3177 0.950 . S
C3188 C3186 1.391 . S
C3188 C3189 1.400 . S
C3189 C3183 1.491 . S
C3189 C3188 1.400 . S
C3189 C3190 1.398 . S
C3190 H3178 0.950 . S
C3190 C3189 1.398 . S
C3190 C3191 1.391 . S
C3191 H3179 0.950 . S
C3191 C3187 1.393 . S
C3191 C3190 1.391 . S
H3192 C3200 0.950 . S
H3193 C3205 0.950 . S
H3194 C3202 0.950 . S
H3195 C3204 0.950 . S
H3196 C3206 0.950 . S
H3197 C3208 0.950 . S
H3198 C3210 0.950 . S
H3199 C3211 0.950 . S
C3200 H3192 0.950 . S
C3200 C3201 1.386 . S
C3200 C3202 1.391 . S
C3201 C3200 1.386 . S
C3201 C3205 1.393 . S
C3202 H3194 0.950 . S
C3202 C3200 1.391 . S
C3202 C3203 1.400 . S
C3203 C3202 1.400 . S
C3203 C3204 1.398 . S
C3203 C3209 1.491 . S
C3204 H3195 0.950 . S
C3204 C3203 1.398 . S
C3204 C3205 1.391 . S
C3205 H3193 0.950 . S
C3205 C3201 1.393 . S
C3205 C3204 1.391 . S
C3206 H3196 0.950 . S
C3206 C3207 1.386 . S
C3206 C3208 1.391 . S
C3207 C3206 1.386 . S
C3207 C3211 1.393 . S
C3208 H3197 0.950 . S
C3208 C3206 1.391 . S
C3208 C3209 1.400 . S
C3209 C3203 1.491 . S
C3209 C3208 1.400 . S
C3209 C3210 1.398 . S
C3210 H3198 0.950 . S
C3210 C3209 1.398 . S
C3210 C3211 1.391 . S
C3211 H3199 0.950 . S
C3211 C3207 1.393 . S
C3211 C3210 1.391 . S
H3212 C3220 0.950 . S
H3213 C3225 0.950 . S
H3214 C3222 0.950 . S
H3215 C3224 0.950 . S
H3216 C3226 0.950 . S
H3217 C3228 0.950 . S
H3218 C3230 0.950 . S
H3219 C3231 0.950 . S
C3220 H3212 0.950 . S
C3220 C3221 1.386 . S
C3220 C3222 1.391 . S
C3221 C3220 1.386 . S
C3221 C3225 1.393 . S
C3222 H3214 0.950 . S
C3222 C3220 1.391 . S
C3222 C3223 1.400 . S
C3223 C3222 1.400 . S
C3223 C3224 1.398 . S
C3223 C3229 1.491 . S
C3224 H3215 0.950 . S
C3224 C3223 1.398 . S
C3224 C3225 1.391 . S
C3225 H3213 0.950 . S
C3225 C3221 1.393 . S
C3225 C3224 1.391 . S
C3226 H3216 0.950 . S
C3226 C3227 1.386 . S
C3226 C3228 1.391 . S
C3227 C3226 1.386 . S
C3227 C3231 1.393 . S
C3228 H3217 0.950 . S
C3228 C3226 1.391 . S
C3228 C3229 1.400 1_455 S
C3229 C3223 1.491 . S
C3229 C3228 1.400 1_655 S
C3229 C3230 1.398 . S
C3230 H3218 0.950 . S
C3230 C3229 1.398 . S
C3230 C3231 1.391 1_655 S
C3231 H3219 0.950 . S
C3231 C3227 1.393 . S
C3231 C3230 1.391 1_455 S
H3232 C3240 0.950 . S
H3233 C3245 0.950 . S
H3234 C3242 0.950 . S
H3235 C3244 0.950 . S
H3236 C3246 0.950 . S
H3237 C3248 0.950 . S
H3238 C3250 0.950 . S
H3239 C3251 0.950 . S
C3240 H3232 0.950 . S
C3240 C3241 1.386 . S
C3240 C3242 1.391 . S
C3241 C3240 1.386 . S
C3241 C3245 1.393 . S
C3242 H3234 0.950 . S
C3242 C3240 1.391 . S
C3242 C3243 1.400 . S
C3243 C3242 1.400 . S
C3243 C3244 1.398 . S
C3243 C3249 1.491 . S
C3244 H3235 0.950 . S
C3244 C3243 1.398 . S
C3244 C3245 1.391 . S
C3245 H3233 0.950 . S
C3245 C3241 1.393 . S
C3245 C3244 1.391 . S
C3246 H3236 0.950 . S
C3246 C3247 1.386 . S
C3246 C3248 1.391 . S
C3247 C3246 1.386 . S
C3247 C3251 1.393 . S
C3248 H3237 0.950 . S
C3248 C3246 1.391 . S
C3248 C3249 1.400 . S
C3249 C3243 1.491 . S
C3249 C3248 1.400 . S
C3249 C3250 1.398 . S
C3250 H3238 0.950 . S
C3250 C3249 1.398 . S
C3250 C3251 1.391 . S
C3251 H3239 0.950 . S
C3251 C3247 1.393 . S
C3251 C3250 1.391 . S
H3252 C3260 0.950 . S
H3253 C3265 0.950 . S
H3254 C3262 0.950 . S
H3255 C3264 0.950 . S
H3256 C3266 0.950 . S
H3257 C3268 0.950 1_554 S
H3258 C3270 0.950 . S
H3259 C3271 0.950 . S
C3260 H3252 0.950 . S
C3260 C3261 1.386 . S
C3260 C3262 1.391 . S
C3261 C3260 1.386 . S
C3261 C3265 1.393 . S
C3262 H3254 0.950 . S
C3262 C3260 1.391 . S
C3262 C3263 1.400 . S
C3263 C3262 1.400 . S
C3263 C3264 1.398 . S
C3263 C3269 1.491 . S
C3264 H3255 0.950 . S
C3264 C3263 1.398 . S
C3264 C3265 1.391 . S
C3265 H3253 0.950 . S
C3265 C3261 1.393 . S
C3265 C3264 1.391 . S
C3266 H3256 0.950 . S
C3266 C3267 1.386 . S
C3266 C3268 1.391 . S
C3267 C3266 1.386 . S
C3267 C3271 1.393 . S
C3268 H3257 0.950 1_556 S
C3268 C3266 1.391 . S
C3268 C3269 1.400 1_556 S
C3269 C3263 1.491 . S
C3269 C3268 1.400 1_554 S
C3269 C3270 1.398 . S
C3270 H3258 0.950 . S
C3270 C3269 1.398 . S
C3270 C3271 1.391 1_554 S
C3271 H3259 0.950 . S
C3271 C3267 1.393 . S
C3271 C3270 1.391 1_556 S
H3272 C3280 0.950 . S
H3273 C3285 0.950 . S
H3274 C3282 0.950 . S
H3275 C3284 0.950 . S
H3276 C3286 0.950 . S
H3277 C3288 0.950 . S
H3278 C3290 0.950 . S
H3279 C3291 0.950 . S
C3280 H3272 0.950 . S
C3280 C3281 1.386 . S
C3280 C3282 1.391 . S
C3281 C3280 1.386 . S
C3281 C3285 1.393 . S
C3282 H3274 0.950 . S
C3282 C3280 1.391 . S
C3282 C3283 1.400 . S
C3283 C3282 1.400 . S
C3283 C3284 1.398 . S
C3283 C3289 1.491 . S
C3284 H3275 0.950 . S
C3284 C3283 1.398 . S
C3284 C3285 1.391 . S
C3285 H3273 0.950 . S
C3285 C3281 1.393 . S
C3285 C3284 1.391 . S
C3286 H3276 0.950 . S
C3286 C3287 1.386 . S
C3286 C3288 1.391 . S
C3287 C3286 1.386 . S
C3287 C3291 1.393 . S
C3288 H3277 0.950 . S
C3288 C3286 1.391 . S
C3288 C3289 1.400 . S
C3289 C3283 1.491 . S
C3289 C3288 1.400 . S
C3289 C3290 1.398 . S
C3290 H3278 0.950 . S
C3290 C3289 1.398 . S
C3290 C3291 1.391 . S
C3291 H3279 0.950 . S
C3291 C3287 1.393 . S
C3291 C3290 1.391 . S
H3292 C3300 0.950 . S
H3293 C3305 0.950 . S
H3294 C3302 0.950 . S
H3295 C3304 0.950 . S
H3296 C3306 0.950 . S
H3297 C3308 0.950 . S
H3298 C3310 0.950 1_554 S
H3299 C3311 0.950 . S
C3300 H3292 0.950 . S
C3300 C3301 1.386 . S
C3300 C3302 1.391 . S
C3301 C3300 1.386 . S
C3301 C3305 1.393 . S
C3302 H3294 0.950 . S
C3302 C3300 1.391 . S
C3302 C3303 1.400 . S
C3303 C3302 1.400 . S
C3303 C3304 1.398 . S
C3303 C3309 1.491 . S
C3304 H3295 0.950 . S
C3304 C3303 1.398 . S
C3304 C3305 1.391 . S
C3305 H3293 0.950 . S
C3305 C3301 1.393 . S
C3305 C3304 1.391 . S
C3306 H3296 0.950 . S
C3306 C3307 1.386 . S
C3306 C3308 1.391 1_556 S
C3307 C3306 1.386 . S
C3307 C3311 1.393 . S
C3308 H3297 0.950 . S
C3308 C3306 1.391 1_554 S
C3308 C3309 1.400 . S
C3309 C3303 1.491 . S
C3309 C3308 1.400 . S
C3309 C3310 1.398 1_554 S
C3310 H3298 0.950 1_556 S
C3310 C3309 1.398 1_556 S
C3310 C3311 1.391 . S
C3311 H3299 0.950 . S
C3311 C3307 1.393 . S
C3311 C3310 1.391 . S
H3312 C3320 0.950 . S
H3313 C3325 0.950 . S
H3314 C3322 0.950 . S
H3315 C3324 0.950 . S
H3316 C3326 0.950 . S
H3317 C3328 0.950 . S
H3318 C3330 0.950 . S
H3319 C3331 0.950 . S
C3320 H3312 0.950 . S
C3320 C3321 1.386 . S
C3320 C3322 1.391 . S
C3321 C3320 1.386 . S
C3321 C3325 1.393 . S
C3322 H3314 0.950 . S
C3322 C3320 1.391 . S
C3322 C3323 1.400 . S
C3323 C3322 1.400 . S
C3323 C3324 1.398 . S
C3323 C3329 1.491 . S
C3324 H3315 0.950 . S
C3324 C3323 1.398 . S
C3324 C3325 1.391 . S
C3325 H3313 0.950 . S
C3325 C3321 1.393 . S
C3325 C3324 1.391 . S
C3326 H3316 0.950 . S
C3326 C3327 1.386 . S
C3326 C3328 1.391 . S
C3327 C3326 1.386 . S
C3327 C3331 1.393 . S
C3328 H3317 0.950 . S
C3328 C3326 1.391 . S
C3328 C3329 1.400 . S
C3329 C3323 1.491 . S
C3329 C3328 1.400 . S
C3329 C3330 1.398 . S
C3330 H3318 0.950 . S
C3330 C3329 1.398 . S
C3330 C3331 1.391 . S
C3331 H3319 0.950 . S
C3331 C3327 1.393 . S
C3331 C3330 1.391 . S
H3332 C3340 0.950 . S
H3333 C3345 0.950 . S
H3334 C3342 0.950 . S
H3335 C3344 0.950 . S
H3336 C3346 0.950 . S
H3337 C3348 0.950 . S
H3338 C3350 0.950 . S
H3339 C3351 0.950 . S
C3340 H3332 0.950 . S
C3340 C3341 1.386 . S
C3340 C3342 1.391 . S
C3341 C3340 1.386 . S
C3341 C3345 1.393 . S
C3342 H3334 0.950 . S
C3342 C3340 1.391 . S
C3342 C3343 1.400 . S
C3343 C3342 1.400 . S
C3343 C3344 1.398 . S
C3343 C3349 1.491 . S
C3344 H3335 0.950 . S
C3344 C3343 1.398 . S
C3344 C3345 1.391 . S
C3345 H3333 0.950 . S
C3345 C3341 1.393 . S
C3345 C3344 1.391 . S
C3346 H3336 0.950 . S
C3346 C3347 1.386 . S
C3346 C3348 1.391 . S
C3347 C3346 1.386 . S
C3347 C3351 1.393 . S
C3348 H3337 0.950 . S
C3348 C3346 1.391 . S
C3348 C3349 1.400 1_554 S
C3349 C3343 1.491 . S
C3349 C3348 1.400 1_556 S
C3349 C3350 1.398 . S
C3350 H3338 0.950 . S
C3350 C3349 1.398 . S
C3350 C3351 1.391 1_556 S
C3351 H3339 0.950 . S
C3351 C3347 1.393 . S
C3351 C3350 1.391 1_554 S
H3352 C3360 0.950 . S
H3353 C3365 0.950 . S
H3354 C3362 0.950 . S
H3355 C3364 0.950 . S
H3356 C3366 0.950 . S
H3357 C3368 0.950 . S
H3358 C3370 0.950 . S
H3359 C3371 0.950 . S
C3360 H3352 0.950 . S
C3360 C3361 1.386 . S
C3360 C3362 1.391 . S
C3361 C3360 1.386 . S
C3361 C3365 1.393 . S
C3362 H3354 0.950 . S
C3362 C3360 1.391 . S
C3362 C3363 1.400 . S
C3363 C3362 1.400 . S
C3363 C3364 1.398 . S
C3363 C3369 1.491 . S
C3364 H3355 0.950 . S
C3364 C3363 1.398 . S
C3364 C3365 1.391 . S
C3365 H3353 0.950 . S
C3365 C3361 1.393 . S
C3365 C3364 1.391 . S
C3366 H3356 0.950 . S
C3366 C3367 1.386 . S
C3366 C3368 1.391 . S
C3367 C3366 1.386 . S
C3367 C3371 1.393 . S
C3368 H3357 0.950 . S
C3368 C3366 1.391 . S
C3368 C3369 1.400 . S
C3369 C3363 1.491 . S
C3369 C3368 1.400 . S
C3369 C3370 1.398 . S
C3370 H3358 0.950 . S
C3370 C3369 1.398 . S
C3370 C3371 1.391 . S
C3371 H3359 0.950 . S
C3371 C3367 1.393 . S
C3371 C3370 1.391 . S
H3372 C3380 0.950 . S
H3373 C3385 0.950 . S
H3374 C3382 0.955 . S
H3375 C3384 0.966 . S
H3376 C3386 0.950 . S
H3377 C3388 0.950 . S
H3378 C3390 0.950 . S
H3379 C3391 0.950 . S
C3380 H3372 0.950 . S
C3380 C3381 1.386 . S
C3380 C3382 1.381 1_554 S
C3381 C3380 1.386 . S
C3381 C3385 1.393 . S
C3382 H3374 0.955 . S
C3382 C3380 1.381 1_556 S
C3382 C3383 1.406 . S
C3383 C3382 1.406 . S
C3383 C3384 1.415 . S
C3383 C3389 1.491 . S
C3384 H3375 0.966 . S
C3384 C3383 1.415 . S
C3384 C3385 1.360 1_556 S
C3385 H3373 0.950 . S
C3385 C3381 1.393 . S
C3385 C3384 1.360 1_554 S
C3386 H3376 0.950 . S
C3386 C3387 1.386 . S
C3386 C3388 1.391 . S
C3387 C3386 1.386 . S
C3387 C3391 1.393 . S
C3388 H3377 0.950 . S
C3388 C3386 1.391 . S
C3388 C3389 1.400 . S
C3389 C3383 1.491 . S
C3389 C3388 1.400 . S
C3389 C3390 1.398 . S
C3390 H3378 0.950 . S
C3390 C3389 1.398 . S
C3390 C3391 1.391 . S
C3391 H3379 0.950 . S
C3391 C3387 1.393 . S
C3391 C3390 1.391 . S
H3392 C3400 0.950 . S
H3393 C3405 0.950 . S
H3394 C3402 0.950 . S
H3395 C3404 0.950 . S
H3396 C3406 0.950 . S
H3397 C3408 0.950 . S
H3398 C3410 0.950 . S
H3399 C3411 0.950 . S
C3400 H3392 0.950 . S
C3400 C3401 1.386 . S
C3400 C3402 1.391 . S
C3401 C3400 1.386 . S
C3401 C3405 1.393 . S
C3402 H3394 0.950 . S
C3402 C3400 1.391 . S
C3402 C3403 1.400 . S
C3403 C3402 1.400 . S
C3403 C3404 1.398 . S
C3403 C3409 1.491 . S
C3404 H3395 0.950 . S
C3404 C3403 1.398 . S
C3404 C3405 1.391 . S
C3405 H3393 0.950 . S
C3405 C3401 1.393 . S
C3405 C3404 1.391 . S
C3406 H3396 0.950 . S
C3406 C3407 1.386 . S
C3406 C3408 1.391 . S
C3407 C3406 1.386 . S
C3407 C3411 1.393 . S
C3408 H3397 0.950 . S
C3408 C3406 1.391 . S
C3408 C3409 1.400 . S
C3409 C3403 1.491 . S
C3409 C3408 1.400 . S
C3409 C3410 1.398 . S
C3410 H3398 0.950 . S
C3410 C3409 1.398 . S
C3410 C3411 1.391 . S
C3411 H3399 0.950 . S
C3411 C3407 1.393 . S
C3411 C3410 1.391 . S
H3412 C3420 0.950 . S
H3413 C3425 0.950 . S
H3414 C3422 0.950 . S
H3415 C3424 0.950 . S
H3416 C3426 0.950 . S
H3417 C3428 0.950 . S
H3418 C3430 0.950 . S
H3419 C3431 0.950 . S
C3420 H3412 0.950 . S
C3420 C3421 1.386 . S
C3420 C3422 1.391 . S
C3421 C3420 1.386 . S
C3421 C3425 1.393 . S
C3422 H3414 0.950 . S
C3422 C3420 1.391 . S
C3422 C3423 1.400 . S
C3423 C3422 1.400 . S
C3423 C3424 1.398 . S
C3423 C3429 1.491 . S
C3424 H3415 0.950 . S
C3424 C3423 1.398 . S
C3424 C3425 1.391 . S
C3425 H3413 0.950 . S
C3425 C3421 1.393 . S
C3425 C3424 1.391 . S
C3426 H3416 0.950 . S
C3426 C3427 1.386 . S
C3426 C3428 1.391 . S
C3427 C3426 1.386 . S
C3427 C3431 1.393 . S
C3428 H3417 0.950 . S
C3428 C3426 1.391 . S
C3428 C3429 1.400 . S
C3429 C3423 1.491 . S
C3429 C3428 1.400 . S
C3429 C3430 1.398 . S
C3430 H3418 0.950 . S
C3430 C3429 1.398 . S
C3430 C3431 1.391 . S
C3431 H3419 0.950 . S
C3431 C3427 1.393 . S
C3431 C3430 1.391 . S
H3432 C3440 0.950 . S
H3433 C3445 0.950 . S
H3434 C3442 0.950 . S
H3435 C3444 0.950 . S
H3436 C3446 0.950 . S
H3437 C3448 0.950 . S
H3438 C3450 0.950 . S
H3439 C3451 0.950 . S
C3440 H3432 0.950 . S
C3440 C3441 1.386 . S
C3440 C3442 1.391 . S
C3441 C3440 1.386 . S
C3441 C3445 1.393 . S
C3442 H3434 0.950 . S
C3442 C3440 1.391 . S
C3442 C3443 1.400 . S
C3443 C3442 1.400 . S
C3443 C3444 1.398 . S
C3443 C3449 1.491 . S
C3444 H3435 0.950 . S
C3444 C3443 1.398 . S
C3444 C3445 1.391 . S
C3445 H3433 0.950 . S
C3445 C3441 1.393 . S
C3445 C3444 1.391 . S
C3446 H3436 0.950 . S
C3446 C3447 1.386 . S
C3446 C3448 1.391 . S
C3447 C3446 1.386 . S
C3447 C3451 1.393 . S
C3448 H3437 0.950 . S
C3448 C3446 1.391 . S
C3448 C3449 1.400 . S
C3449 C3443 1.491 . S
C3449 C3448 1.400 . S
C3449 C3450 1.398 . S
C3450 H3438 0.950 . S
C3450 C3449 1.398 . S
C3450 C3451 1.391 . S
C3451 H3439 0.950 . S
C3451 C3447 1.393 . S
C3451 C3450 1.391 . S
H3452 C3460 0.950 . S
H3453 C3465 0.950 . S
H3454 C3462 0.950 . S
H3455 C3464 0.950 . S
H3456 C3466 0.950 . S
H3457 C3468 0.950 . S
H3458 C3470 0.950 . S
H3459 C3471 0.950 . S
C3460 H3452 0.950 . S
C3460 C3461 1.386 . S
C3460 C3462 1.391 . S
C3461 C3460 1.386 . S
C3461 C3465 1.393 . S
C3462 H3454 0.950 . S
C3462 C3460 1.391 . S
C3462 C3463 1.400 . S
C3463 C3462 1.400 . S
C3463 C3464 1.398 . S
C3463 C3469 1.491 . S
C3464 H3455 0.950 . S
C3464 C3463 1.398 . S
C3464 C3465 1.391 . S
C3465 H3453 0.950 . S
C3465 C3461 1.393 . S
C3465 C3464 1.391 . S
C3466 H3456 0.950 . S
C3466 C3467 1.386 . S
C3466 C3468 1.391 . S
C3467 C3466 1.386 . S
C3467 C3471 1.393 . S
C3468 H3457 0.950 . S
C3468 C3466 1.391 . S
C3468 C3469 1.400 . S
C3469 C3463 1.491 . S
C3469 C3468 1.400 . S
C3469 C3470 1.398 . S
C3470 H3458 0.950 . S
C3470 C3469 1.398 . S
C3470 C3471 1.391 . S
C3471 H3459 0.950 . S
C3471 C3467 1.393 . S
C3471 C3470 1.391 . S
H3472 C3480 0.950 . S
H3473 C3485 0.950 . S
H3474 C3482 0.950 . S
H3475 C3484 0.950 . S
H3476 C3486 0.950 . S
H3477 C3488 0.950 . S
H3478 C3490 0.950 . S
H3479 C3491 0.950 . S
C3480 H3472 0.950 . S
C3480 C3481 1.386 . S
C3480 C3482 1.391 . S
C3481 C3480 1.386 . S
C3481 C3485 1.393 . S
C3482 H3474 0.950 . S
C3482 C3480 1.391 . S
C3482 C3483 1.400 . S
C3483 C3482 1.400 . S
C3483 C3484 1.398 . S
C3483 C3489 1.491 . S
C3484 H3475 0.950 . S
C3484 C3483 1.398 . S
C3484 C3485 1.391 . S
C3485 H3473 0.950 . S
C3485 C3481 1.393 . S
C3485 C3484 1.391 . S
C3486 H3476 0.950 . S
C3486 C3487 1.386 . S
C3486 C3488 1.391 . S
C3487 C3486 1.386 . S
C3487 C3491 1.393 . S
C3488 H3477 0.950 . S
C3488 C3486 1.391 . S
C3488 C3489 1.400 . S
C3489 C3483 1.491 . S
C3489 C3488 1.400 . S
C3489 C3490 1.398 . S
C3490 H3478 0.950 . S
C3490 C3489 1.398 . S
C3490 C3491 1.391 . S
C3491 H3479 0.950 . S
C3491 C3487 1.393 . S
C3491 C3490 1.391 . S
H3492 C3500 0.950 . S
H3493 C3505 0.950 . S
H3494 C3502 0.950 . S
H3495 C3504 0.950 . S
H3496 C3506 0.950 . S
H3497 C3508 0.950 . S
H3498 C3510 0.950 . S
H3499 C3511 0.950 . S
C3500 H3492 0.950 . S
C3500 C3501 1.386 . S
C3500 C3502 1.391 . S
C3501 C3500 1.386 . S
C3501 C3505 1.393 . S
C3502 H3494 0.950 . S
C3502 C3500 1.391 . S
C3502 C3503 1.400 . S
C3503 C3502 1.400 . S
C3503 C3504 1.398 . S
C3503 C3509 1.491 . S
C3504 H3495 0.950 . S
C3504 C3503 1.398 . S
C3504 C3505 1.391 . S
C3505 H3493 0.950 . S
C3505 C3501 1.393 . S
C3505 C3504 1.391 . S
C3506 H3496 0.950 . S
C3506 C3507 1.386 . S
C3506 C3508 1.391 . S
C3507 C3506 1.386 . S
C3507 C3511 1.393 . S
C3508 H3497 0.950 . S
C3508 C3506 1.391 . S
C3508 C3509 1.400 . S
C3509 C3503 1.491 . S
C3509 C3508 1.400 . S
C3509 C3510 1.398 . S
C3510 H3498 0.950 . S
C3510 C3509 1.398 . S
C3510 C3511 1.391 . S
C3511 H3499 0.950 . S
C3511 C3507 1.393 . S
C3511 C3510 1.391 . S
H3512 C3520 0.950 . S
H3513 C3525 0.950 . S
H3514 C3522 0.950 . S
H3515 C3524 0.950 . S
H3516 C3526 0.950 . S
H3517 C3528 0.950 . S
H3518 C3530 0.950 . S
H3519 C3531 0.950 . S
C3520 H3512 0.950 . S
C3520 C3521 1.386 . S
C3520 C3522 1.391 . S
C3521 C3520 1.386 . S
C3521 C3525 1.393 . S
C3522 H3514 0.950 . S
C3522 C3520 1.391 . S
C3522 C3523 1.400 . S
C3523 C3522 1.400 . S
C3523 C3524 1.398 . S
C3523 C3529 1.491 . S
C3524 H3515 0.950 . S
C3524 C3523 1.398 . S
C3524 C3525 1.391 . S
C3525 H3513 0.950 . S
C3525 C3521 1.393 . S
C3525 C3524 1.391 . S
C3526 H3516 0.950 . S
C3526 C3527 1.386 . S
C3526 C3528 1.391 . S
C3527 C3526 1.386 . S
C3527 C3531 1.393 . S
C3528 H3517 0.950 . S
C3528 C3526 1.391 . S
C3528 C3529 1.400 . S
C3529 C3523 1.491 . S
C3529 C3528 1.400 . S
C3529 C3530 1.398 . S
C3530 H3518 0.950 . S
C3530 C3529 1.398 . S
C3530 C3531 1.391 . S
C3531 H3519 0.950 . S
C3531 C3527 1.393 . S
C3531 C3530 1.391 . S
H3532 C3540 0.950 . S
H3533 C3545 0.950 . S
H3534 C3542 0.950 . S
H3535 C3544 0.950 1_545 S
H3536 C3546 0.950 . S
H3537 C3548 0.950 . S
H3538 C3550 0.950 . S
H3539 C3551 0.950 . S
C3540 H3532 0.950 . S
C3540 C3541 1.386 . S
C3540 C3542 1.391 1_565 S
C3541 C3540 1.386 . S
C3541 C3545 1.393 . S
C3542 H3534 0.950 . S
C3542 C3540 1.391 1_545 S
C3542 C3543 1.400 . S
C3543 C3542 1.400 . S
C3543 C3544 1.398 1_545 S
C3543 C3549 1.491 . S
C3544 H3535 0.950 1_565 S
C3544 C3543 1.398 1_565 S
C3544 C3545 1.391 . S
C3545 H3533 0.950 . S
C3545 C3541 1.393 . S
C3545 C3544 1.391 . S
C3546 H3536 0.950 . S
C3546 C3547 1.386 . S
C3546 C3548 1.391 . S
C3547 C3546 1.386 . S
C3547 C3551 1.393 . S
C3548 H3537 0.950 . S
C3548 C3546 1.391 . S
C3548 C3549 1.400 . S
C3549 C3543 1.491 . S
C3549 C3548 1.400 . S
C3549 C3550 1.398 . S
C3550 H3538 0.950 . S
C3550 C3549 1.398 . S
C3550 C3551 1.391 . S
C3551 H3539 0.950 . S
C3551 C3547 1.393 . S
C3551 C3550 1.391 . S
H3552 C3560 0.950 . S
H3553 C3565 0.950 . S
H3554 C3562 0.950 . S
H3555 C3564 0.950 . S
H3556 C3566 0.950 . S
H3557 C3568 0.950 . S
H3558 C3570 0.950 . S
H3559 C3571 0.950 . S
C3560 H3552 0.950 . S
C3560 C3561 1.386 . S
C3560 C3562 1.391 . S
C3561 C3560 1.386 . S
C3561 C3565 1.393 . S
C3562 H3554 0.950 . S
C3562 C3560 1.391 . S
C3562 C3563 1.400 . S
C3563 C3562 1.400 . S
C3563 C3564 1.398 . S
C3563 C3569 1.491 . S
C3564 H3555 0.950 . S
C3564 C3563 1.398 . S
C3564 C3565 1.391 . S
C3565 H3553 0.950 . S
C3565 C3561 1.393 . S
C3565 C3564 1.391 . S
C3566 H3556 0.950 . S
C3566 C3567 1.386 . S
C3566 C3568 1.391 . S
C3567 C3566 1.386 . S
C3567 C3571 1.393 . S
C3568 H3557 0.950 . S
C3568 C3566 1.391 . S
C3568 C3569 1.400 . S
C3569 C3563 1.491 . S
C3569 C3568 1.400 . S
C3569 C3570 1.398 . S
C3570 H3558 0.950 . S
C3570 C3569 1.398 . S
C3570 C3571 1.391 . S
C3571 H3559 0.950 . S
C3571 C3567 1.393 . S
C3571 C3570 1.391 . S
H3572 C3580 0.950 . S
H3573 C3585 0.950 . S
H3574 C3582 0.950 . S
H3575 C3584 0.950 . S
H3576 C3586 0.950 . S
H3577 C3588 0.932 1_655 S
H3578 C3590 0.950 . S
H3579 C3591 0.950 . S
C3580 H3572 0.950 . S
C3580 C3581 1.386 . S
C3580 C3582 1.391 . S
C3581 C3580 1.386 . S
C3581 C3585 1.393 . S
C3582 H3574 0.950 . S
C3582 C3580 1.391 . S
C3582 C3583 1.400 . S
C3583 C3582 1.400 . S
C3583 C3584 1.398 . S
C3583 C3589 1.491 . S
C3584 H3575 0.950 . S
C3584 C3583 1.398 . S
C3584 C3585 1.391 . S
C3585 H3573 0.950 . S
C3585 C3581 1.393 . S
C3585 C3584 1.391 . S
C3586 H3576 0.950 . S
C3586 C3587 1.386 . S
C3586 C3588 1.439 . S
C3587 C3586 1.386 . S
C3587 C3591 1.393 . S
C3588 H3577 0.932 1_455 S
C3588 C3586 1.439 . S
C3588 C3589 1.372 1_455 S
C3589 C3583 1.491 . S
C3589 C3588 1.372 1_655 S
C3589 C3590 1.398 . S
C3590 H3578 0.950 . S
C3590 C3589 1.398 . S
C3590 C3591 1.391 1_655 S
C3591 H3579 0.950 . S
C3591 C3587 1.393 . S
C3591 C3590 1.391 1_455 S
H3592 C3600 0.950 . S
H3593 C3605 0.950 . S
H3594 C3602 0.950 . S
H3595 C3604 0.950 . S
H3596 C3606 0.950 . S
H3597 C3608 0.950 . S
H3598 C3610 0.950 . S
H3599 C3611 0.950 . S
C3600 H3592 0.950 . S
C3600 C3601 1.386 . S
C3600 C3602 1.391 . S
C3601 C3600 1.386 . S
C3601 C3605 1.393 . S
C3602 H3594 0.950 . S
C3602 C3600 1.391 . S
C3602 C3603 1.400 . S
C3603 C3602 1.400 . S
C3603 C3604 1.398 . S
C3603 C3609 1.491 . S
C3604 H3595 0.950 . S
C3604 C3603 1.398 . S
C3604 C3605 1.391 . S
C3605 H3593 0.950 . S
C3605 C3601 1.393 . S
C3605 C3604 1.391 . S
C3606 H3596 0.950 . S
C3606 C3607 1.386 . S
C3606 C3608 1.391 . S
C3607 C3606 1.386 . S
C3607 C3611 1.393 . S
C3608 H3597 0.950 . S
C3608 C3606 1.391 . S
C3608 C3609 1.400 . S
C3609 C3603 1.491 . S
C3609 C3608 1.400 . S
C3609 C3610 1.398 . S
C3610 H3598 0.950 . S
C3610 C3609 1.398 . S
C3610 C3611 1.391 . S
C3611 H3599 0.950 . S
C3611 C3607 1.393 . S
C3611 C3610 1.391 . S
H3612 C3620 0.950 . S
H3613 C3625 0.950 . S
H3614 C3622 0.950 . S
H3615 C3624 0.950 . S
H3616 C3626 0.950 . S
H3617 C3628 0.950 . S
H3618 C3630 0.950 . S
H3619 C3631 0.950 . S
C3620 H3612 0.950 . S
C3620 C3621 1.386 . S
C3620 C3622 1.391 . S
C3621 C3620 1.386 . S
C3621 C3625 1.393 . S
C3622 H3614 0.950 . S
C3622 C3620 1.391 . S
C3622 C3623 1.400 . S
C3623 C3622 1.400 . S
C3623 C3624 1.398 . S
C3623 C3629 1.491 . S
C3624 H3615 0.950 . S
C3624 C3623 1.398 . S
C3624 C3625 1.391 . S
C3625 H3613 0.950 . S
C3625 C3621 1.393 . S
C3625 C3624 1.391 . S
C3626 H3616 0.950 . S
C3626 C3627 1.386 . S
C3626 C3628 1.391 . S
C3627 C3626 1.386 . S
C3627 C3631 1.393 . S
C3628 H3617 0.950 . S
C3628 C3626 1.391 . S
C3628 C3629 1.400 1_655 S
C3629 C3623 1.491 . S
C3629 C3628 1.400 1_455 S
C3629 C3630 1.398 . S
C3630 H3618 0.950 . S
C3630 C3629 1.398 . S
C3630 C3631 1.391 1_455 S
C3631 H3619 0.950 . S
C3631 C3627 1.393 . S
C3631 C3630 1.391 1_655 S
H3632 C3640 0.950 . S
H3633 C3645 0.950 . S
H3634 C3642 0.950 . S
H3635 C3644 0.950 . S
H3636 C3646 0.950 . S
H3637 C3648 0.950 . S
H3638 C3650 0.950 . S
H3639 C3651 0.950 . S
C3640 H3632 0.950 . S
C3640 C3641 1.386 . S
C3640 C3642 1.391 . S
C3641 C3640 1.386 . S
C3641 C3645 1.393 . S
C3642 H3634 0.950 . S
C3642 C3640 1.391 . S
C3642 C3643 1.400 . S
C3643 C3642 1.400 . S
C3643 C3644 1.398 . S
C3643 C3649 1.491 . S
C3644 H3635 0.950 . S
C3644 C3643 1.398 . S
C3644 C3645 1.391 . S
C3645 H3633 0.950 . S
C3645 C3641 1.393 . S
C3645 C3644 1.391 . S
C3646 H3636 0.950 . S
C3646 C3647 1.386 . S
C3646 C3648 1.391 . S
C3647 C3646 1.386 . S
C3647 C3651 1.393 . S
C3648 H3637 0.950 . S
C3648 C3646 1.391 . S
C3648 C3649 1.400 . S
C3649 C3643 1.491 . S
C3649 C3648 1.400 . S
C3649 C3650 1.398 . S
C3650 H3638 0.950 . S
C3650 C3649 1.398 . S
C3650 C3651 1.391 . S
C3651 H3639 0.950 . S
C3651 C3647 1.393 . S
C3651 C3650 1.391 . S
H3652 C3660 0.950 . S
H3653 C3665 0.950 . S
H3654 C3662 0.950 . S
H3655 C3664 0.950 . S
H3656 C3666 0.950 . S
H3657 C3668 0.950 . S
H3658 C3670 0.950 . S
H3659 C3671 0.950 . S
C3660 H3652 0.950 . S
C3660 C3661 1.386 . S
C3660 C3662 1.391 . S
C3661 C3660 1.386 . S
C3661 C3665 1.393 . S
C3662 H3654 0.950 . S
C3662 C3660 1.391 . S
C3662 C3663 1.400 . S
C3663 C3662 1.400 . S
C3663 C3664 1.398 . S
C3663 C3669 1.491 . S
C3664 H3655 0.950 . S
C3664 C3663 1.398 . S
C3664 C3665 1.391 . S
C3665 H3653 0.950 . S
C3665 C3661 1.393 . S
C3665 C3664 1.391 . S
C3666 H3656 0.950 . S
C3666 C3667 1.386 . S
C3666 C3668 1.391 . S
C3667 C3666 1.386 . S
C3667 C3671 1.393 . S
C3668 H3657 0.950 . S
C3668 C3666 1.391 . S
C3668 C3669 1.400 . S
C3669 C3663 1.491 . S
C3669 C3668 1.400 . S
C3669 C3670 1.398 . S
C3670 H3658 0.950 . S
C3670 C3669 1.398 . S
C3670 C3671 1.391 . S
C3671 H3659 0.950 . S
C3671 C3667 1.393 . S
C3671 C3670 1.391 . S
H3672 C3680 0.950 . S
H3673 C3685 0.950 . S
H3674 C3682 0.950 . S
H3675 C3684 0.950 . S
H3676 C3686 0.950 . S
H3677 C3688 0.950 . S
H3678 C3690 0.950 . S
H3679 C3691 0.950 . S
C3680 H3672 0.950 . S
C3680 C3681 1.386 . S
C3680 C3682 1.391 . S
C3681 C3680 1.386 . S
C3681 C3685 1.393 . S
C3682 H3674 0.950 . S
C3682 C3680 1.391 . S
C3682 C3683 1.400 . S
C3683 C3682 1.400 . S
C3683 C3684 1.398 . S
C3683 C3689 1.491 . S
C3684 H3675 0.950 . S
C3684 C3683 1.398 . S
C3684 C3685 1.391 . S
C3685 H3673 0.950 . S
C3685 C3681 1.393 . S
C3685 C3684 1.391 . S
C3686 H3676 0.950 . S
C3686 C3687 1.386 . S
C3686 C3688 1.391 . S
C3687 C3686 1.386 . S
C3687 C3691 1.393 . S
C3688 H3677 0.950 . S
C3688 C3686 1.391 . S
C3688 C3689 1.400 . S
C3689 C3683 1.491 . S
C3689 C3688 1.400 . S
C3689 C3690 1.398 . S
C3690 H3678 0.950 . S
C3690 C3689 1.398 . S
C3690 C3691 1.391 . S
C3691 H3679 0.950 . S
C3691 C3687 1.393 . S
C3691 C3690 1.391 . S
H3692 C3700 0.950 . S
H3693 C3705 0.950 . S
H3694 C3702 0.950 . S
H3695 C3704 0.950 . S
H3696 C3706 0.950 . S
H3697 C3708 0.950 . S
H3698 C3710 0.950 . S
H3699 C3711 0.950 . S
C3700 H3692 0.950 . S
C3700 C3701 1.386 . S
C3700 C3702 1.391 . S
C3701 C3700 1.386 . S
C3701 C3705 1.393 . S
C3702 H3694 0.950 . S
C3702 C3700 1.391 . S
C3702 C3703 1.400 . S
C3703 C3702 1.400 . S
C3703 C3704 1.398 . S
C3703 C3709 1.491 . S
C3704 H3695 0.950 . S
C3704 C3703 1.398 . S
C3704 C3705 1.391 . S
C3705 H3693 0.950 . S
C3705 C3701 1.393 . S
C3705 C3704 1.391 . S
C3706 H3696 0.950 . S
C3706 C3707 1.386 . S
C3706 C3708 1.391 . S
C3707 C3706 1.386 . S
C3707 C3711 1.393 . S
C3708 H3697 0.950 . S
C3708 C3706 1.391 . S
C3708 C3709 1.400 . S
C3709 C3703 1.491 . S
C3709 C3708 1.400 . S
C3709 C3710 1.398 . S
C3710 H3698 0.950 . S
C3710 C3709 1.398 . S
C3710 C3711 1.391 . S
C3711 H3699 0.950 . S
C3711 C3707 1.393 . S
C3711 C3710 1.391 . S
H3712 C3720 0.950 . S
H3713 C3725 0.950 . S
H3714 C3722 0.950 . S
H3715 C3724 0.950 . S
H3716 C3726 0.950 . S
H3717 C3728 0.950 . S
H3718 C3730 0.950 . S
H3719 C3731 0.950 . S
C3720 H3712 0.950 . S
C3720 C3721 1.386 . S
C3720 C3722 1.391 . S
C3721 C3720 1.386 . S
C3721 C3725 1.393 . S
C3722 H3714 0.950 . S
C3722 C3720 1.391 . S
C3722 C3723 1.400 . S
C3723 C3722 1.400 . S
C3723 C3724 1.398 . S
C3723 C3729 1.491 . S
C3724 H3715 0.950 . S
C3724 C3723 1.398 . S
C3724 C3725 1.391 . S
C3725 H3713 0.950 . S
C3725 C3721 1.393 . S
C3725 C3724 1.391 . S
C3726 H3716 0.950 . S
C3726 C3727 1.386 . S
C3726 C3728 1.391 . S
C3727 C3726 1.386 . S
C3727 C3731 1.393 . S
C3728 H3717 0.950 . S
C3728 C3726 1.391 . S
C3728 C3729 1.400 . S
C3729 C3723 1.491 . S
C3729 C3728 1.400 . S
C3729 C3730 1.398 . S
C3730 H3718 0.950 . S
C3730 C3729 1.398 . S
C3730 C3731 1.391 . S
C3731 H3719 0.950 . S
C3731 C3727 1.393 . S
C3731 C3730 1.391 . S
H3732 C3740 0.950 . S
H3733 C3745 0.950 . S
H3734 C3742 0.950 . S
H3735 C3744 0.950 . S
H3736 C3746 0.950 . S
H3737 C3748 0.950 . S
H3738 C3750 0.950 . S
H3739 C3751 0.950 . S
C3740 H3732 0.950 . S
C3740 C3741 1.386 . S
C3740 C3742 1.391 . S
C3741 C3740 1.386 . S
C3741 C3745 1.393 . S
C3742 H3734 0.950 . S
C3742 C3740 1.391 . S
C3742 C3743 1.400 . S
C3743 C3742 1.400 . S
C3743 C3744 1.398 . S
C3743 C3749 1.491 . S
C3744 H3735 0.950 . S
C3744 C3743 1.398 . S
C3744 C3745 1.391 . S
C3745 H3733 0.950 . S
C3745 C3741 1.393 . S
C3745 C3744 1.391 . S
C3746 H3736 0.950 . S
C3746 C3747 1.386 . S
C3746 C3748 1.391 . S
C3747 C3746 1.386 . S
C3747 C3751 1.393 . S
C3748 H3737 0.950 . S
C3748 C3746 1.391 . S
C3748 C3749 1.400 . S
C3749 C3743 1.491 . S
C3749 C3748 1.400 . S
C3749 C3750 1.398 . S
C3750 H3738 0.950 . S
C3750 C3749 1.398 . S
C3750 C3751 1.391 . S
C3751 H3739 0.950 . S
C3751 C3747 1.393 . S
C3751 C3750 1.391 . S
H3752 C3760 0.950 . S
H3753 C3765 0.950 . S
H3754 C3762 0.950 . S
H3755 C3764 0.950 . S
H3756 C3766 0.950 . S
H3757 C3768 0.950 . S
H3758 C3770 0.950 . S
H3759 C3771 0.950 . S
C3760 H3752 0.950 . S
C3760 C3761 1.386 . S
C3760 C3762 1.391 . S
C3761 C3760 1.386 . S
C3761 C3765 1.393 . S
C3762 H3754 0.950 . S
C3762 C3760 1.391 . S
C3762 C3763 1.400 . S
C3763 C3762 1.400 . S
C3763 C3764 1.398 . S
C3763 C3769 1.491 . S
C3764 H3755 0.950 . S
C3764 C3763 1.398 . S
C3764 C3765 1.391 . S
C3765 H3753 0.950 . S
C3765 C3761 1.393 . S
C3765 C3764 1.391 . S
C3766 H3756 0.950 . S
C3766 C3767 1.386 . S
C3766 C3768 1.391 . S
C3767 C3766 1.386 . S
C3767 C3771 1.393 . S
C3768 H3757 0.950 . S
C3768 C3766 1.391 . S
C3768 C3769 1.400 . S
C3769 C3763 1.491 . S
C3769 C3768 1.400 . S
C3769 C3770 1.398 . S
C3770 H3758 0.950 . S
C3770 C3769 1.398 . S
C3770 C3771 1.391 . S
C3771 H3759 0.950 . S
C3771 C3767 1.393 . S
C3771 C3770 1.391 . S
H3772 C3780 0.950 . S
H3773 C3785 0.950 . S
H3774 C3782 0.950 . S
H3775 C3784 0.950 . S
H3776 C3786 0.950 . S
H3777 C3788 0.950 . S
H3778 C3790 0.950 . S
H3779 C3791 0.950 . S
C3780 H3772 0.950 . S
C3780 C3781 1.386 . S
C3780 C3782 1.391 . S
C3781 C3780 1.386 . S
C3781 C3785 1.393 . S
C3782 H3774 0.950 . S
C3782 C3780 1.391 . S
C3782 C3783 1.400 . S
C3783 C3782 1.400 . S
C3783 C3784 1.398 . S
C3783 C3789 1.491 . S
C3784 H3775 0.950 . S
C3784 C3783 1.398 . S
C3784 C3785 1.391 . S
C3785 H3773 0.950 . S
C3785 C3781 1.393 . S
C3785 C3784 1.391 . S
C3786 H3776 0.950 . S
C3786 C3787 1.386 . S
C3786 C3788 1.391 . S
C3787 C3786 1.386 . S
C3787 C3791 1.393 . S
C3788 H3777 0.950 . S
C3788 C3786 1.391 . S
C3788 C3789 1.400 . S
C3789 C3783 1.491 . S
C3789 C3788 1.400 . S
C3789 C3790 1.398 . S
C3790 H3778 0.950 . S
C3790 C3789 1.398 . S
C3790 C3791 1.391 . S
C3791 H3779 0.950 . S
C3791 C3787 1.393 . S
C3791 C3790 1.391 . S
H3792 C3800 0.950 . S
H3793 C3805 0.950 . S
H3794 C3802 0.950 . S
H3795 C3804 0.950 . S
H3796 C3806 0.950 . S
H3797 C3808 0.950 . S
H3798 C3810 0.950 . S
H3799 C3811 0.950 . S
C3800 H3792 0.950 . S
C3800 C3801 1.386 . S
C3800 C3802 1.391 . S
C3801 C3800 1.386 . S
C3801 C3805 1.393 . S
C3802 H3794 0.950 . S
C3802 C3800 1.391 . S
C3802 C3803 1.400 . S
C3803 C3802 1.400 . S
C3803 C3804 1.398 . S
C3803 C3809 1.491 . S
C3804 H3795 0.950 . S
C3804 C3803 1.398 . S
C3804 C3805 1.391 . S
C3805 H3793 0.950 . S
C3805 C3801 1.393 . S
C3805 C3804 1.391 . S
C3806 H3796 0.950 . S
C3806 C3807 1.386 . S
C3806 C3808 1.391 . S
C3807 C3806 1.386 . S
C3807 C3811 1.393 . S
C3808 H3797 0.950 . S
C3808 C3806 1.391 . S
C3808 C3809 1.400 . S
C3809 C3803 1.491 . S
C3809 C3808 1.400 . S
C3809 C3810 1.398 . S
C3810 H3798 0.950 . S
C3810 C3809 1.398 . S
C3810 C3811 1.391 . S
C3811 H3799 0.950 . S
C3811 C3807 1.393 . S
C3811 C3810 1.391 . S
H3812 C3820 0.950 . S
H3813 C3825 0.950 . S
H3814 C3822 0.950 . S
H3815 C3824 0.950 . S
H3816 C3826 0.950 . S
H3817 C3828 0.950 . S
H3818 C3830 0.950 . S
H3819 C3831 0.950 . S
C3820 H3812 0.950 . S
C3820 C3821 1.386 . S
C3820 C3822 1.391 . S
C3821 C3820 1.386 . S
C3821 C3825 1.393 . S
C3822 H3814 0.950 . S
C3822 C3820 1.391 . S
C3822 C3823 1.400 . S
C3823 C3822 1.400 . S
C3823 C3824 1.398 . S
C3823 C3829 1.491 . S
C3824 H3815 0.950 . S
C3824 C3823 1.398 . S
C3824 C3825 1.391 . S
C3825 H3813 0.950 . S
C3825 C3821 1.393 . S
C3825 C3824 1.391 . S
C3826 H3816 0.950 . S
C3826 C3827 1.386 . S
C3826 C3828 1.391 . S
C3827 C3826 1.386 . S
C3827 C3831 1.393 . S
C3828 H3817 0.950 . S
C3828 C3826 1.391 . S
C3828 C3829 1.400 . S
C3829 C3823 1.491 . S
C3829 C3828 1.400 . S
C3829 C3830 1.398 . S
C3830 H3818 0.950 . S
C3830 C3829 1.398 . S
C3830 C3831 1.391 . S
C3831 H3819 0.950 . S
C3831 C3827 1.393 . S
C3831 C3830 1.391 . S
H3832 C3840 0.950 . S
H3833 C3845 0.950 . S
H3834 C3842 0.950 . S
H3835 C3844 0.950 . S
H3836 C3846 0.950 . S
H3837 C3848 0.950 . S
H3838 C3850 0.950 . S
H3839 C3851 0.950 . S
C3840 H3832 0.950 . S
C3840 C3841 1.386 . S
C3840 C3842 1.391 . S
C3841 C3840 1.386 . S
C3841 C3845 1.393 . S
C3842 H3834 0.950 . S
C3842 C3840 1.391 . S
C3842 C3843 1.400 . S
C3843 C3842 1.400 . S
C3843 C3844 1.398 . S
C3843 C3849 1.491 . S
C3844 H3835 0.950 . S
C3844 C3843 1.398 . S
C3844 C3845 1.391 . S
C3845 H3833 0.950 . S
C3845 C3841 1.393 . S
C3845 C3844 1.391 . S
C3846 H3836 0.950 . S
C3846 C3847 1.386 . S
C3846 C3848 1.391 . S
C3847 C3846 1.386 . S
C3847 C3851 1.393 . S
C3848 H3837 0.950 . S
C3848 C3846 1.391 . S
C3848 C3849 1.400 . S
C3849 C3843 1.491 . S
C3849 C3848 1.400 . S
C3849 C3850 1.398 . S
C3850 H3838 0.950 . S
C3850 C3849 1.398 . S
C3850 C3851 1.391 . S
C3851 H3839 0.950 . S
C3851 C3847 1.393 . S
C3851 C3850 1.391 . S
H3852 C3860 0.950 . S
H3853 C3865 0.950 . S
H3854 C3862 0.950 . S
H3855 C3864 0.950 . S
H3856 C3866 0.950 . S
H3857 C3868 0.950 . S
H3858 C3870 0.950 . S
H3859 C3871 0.950 . S
C3860 H3852 0.950 . S
C3860 C3861 1.386 . S
C3860 C3862 1.391 . S
C3861 C3860 1.386 . S
C3861 C3865 1.393 . S
C3862 H3854 0.950 . S
C3862 C3860 1.391 . S
C3862 C3863 1.400 . S
C3863 C3862 1.400 . S
C3863 C3864 1.398 . S
C3863 C3869 1.491 . S
C3864 H3855 0.950 . S
C3864 C3863 1.398 . S
C3864 C3865 1.391 . S
C3865 H3853 0.950 . S
C3865 C3861 1.393 . S
C3865 C3864 1.391 . S
C3866 H3856 0.950 . S
C3866 C3867 1.386 . S
C3866 C3868 1.391 . S
C3867 C3866 1.386 . S
C3867 C3871 1.393 . S
C3868 H3857 0.950 . S
C3868 C3866 1.391 . S
C3868 C3869 1.400 . S
C3869 C3863 1.491 . S
C3869 C3868 1.400 . S
C3869 C3870 1.398 . S
C3870 H3858 0.950 . S
C3870 C3869 1.398 . S
C3870 C3871 1.391 . S
C3871 H3859 0.950 . S
C3871 C3867 1.393 . S
C3871 C3870 1.391 . S
H3872 C3880 0.950 . S
H3873 C3885 0.950 . S
H3874 C3882 0.950 . S
H3875 C3884 0.950 . S
H3876 C3886 0.950 . S
H3877 C3888 0.950 . S
H3878 C3890 0.950 . S
H3879 C3891 0.950 . S
C3880 H3872 0.950 . S
C3880 C3881 1.386 . S
C3880 C3882 1.391 . S
C3881 C3880 1.386 . S
C3881 C3885 1.393 . S
C3882 H3874 0.950 . S
C3882 C3880 1.391 . S
C3882 C3883 1.400 . S
C3883 C3882 1.400 . S
C3883 C3884 1.398 . S
C3883 C3889 1.491 . S
C3884 H3875 0.950 . S
C3884 C3883 1.398 . S
C3884 C3885 1.391 . S
C3885 H3873 0.950 . S
C3885 C3881 1.393 . S
C3885 C3884 1.391 . S
C3886 H3876 0.950 . S
C3886 C3887 1.386 . S
C3886 C3888 1.391 . S
C3887 C3886 1.386 . S
C3887 C3891 1.393 . S
C3888 H3877 0.950 . S
C3888 C3886 1.391 . S
C3888 C3889 1.400 . S
C3889 C3883 1.491 . S
C3889 C3888 1.400 . S
C3889 C3890 1.398 . S
C3890 H3878 0.950 . S
C3890 C3889 1.398 . S
C3890 C3891 1.391 . S
C3891 H3879 0.950 . S
C3891 C3887 1.393 . S
C3891 C3890 1.391 . S
H3892 C3900 0.950 . S
H3893 C3905 0.950 . S
H3894 C3902 0.950 . S
H3895 C3904 0.950 . S
H3896 C3906 0.950 . S
H3897 C3908 0.950 . S
H3898 C3910 0.950 . S
H3899 C3911 0.950 . S
C3900 H3892 0.950 . S
C3900 C3901 1.386 . S
C3900 C3902 1.391 . S
C3901 C3900 1.386 . S
C3901 C3905 1.393 . S
C3902 H3894 0.950 . S
C3902 C3900 1.391 . S
C3902 C3903 1.400 . S
C3903 C3902 1.400 . S
C3903 C3904 1.398 . S
C3903 C3909 1.491 . S
C3904 H3895 0.950 . S
C3904 C3903 1.398 . S
C3904 C3905 1.391 . S
C3905 H3893 0.950 . S
C3905 C3901 1.393 . S
C3905 C3904 1.391 . S
C3906 H3896 0.950 . S
C3906 C3907 1.386 . S
C3906 C3908 1.391 . S
C3907 C3906 1.386 . S
C3907 C3911 1.393 . S
C3908 H3897 0.950 . S
C3908 C3906 1.391 . S
C3908 C3909 1.400 . S
C3909 C3903 1.491 . S
C3909 C3908 1.400 . S
C3909 C3910 1.398 . S
C3910 H3898 0.950 . S
C3910 C3909 1.398 . S
C3910 C3911 1.391 . S
C3911 H3899 0.950 . S
C3911 C3907 1.393 . S
C3911 C3910 1.391 . S
H3912 C3920 0.950 . S
H3913 C3925 0.950 . S
H3914 C3922 0.950 . S
H3915 C3924 0.950 . S
H3916 C3926 0.950 . S
H3917 C3928 0.950 . S
H3918 C3930 0.950 . S
H3919 C3931 0.950 . S
C3920 H3912 0.950 . S
C3920 C3921 1.386 . S
C3920 C3922 1.391 . S
C3921 C3920 1.386 . S
C3921 C3925 1.393 . S
C3922 H3914 0.950 . S
C3922 C3920 1.391 . S
C3922 C3923 1.400 . S
C3923 C3922 1.400 . S
C3923 C3924 1.398 . S
C3923 C3929 1.491 . S
C3924 H3915 0.950 . S
C3924 C3923 1.398 . S
C3924 C3925 1.391 . S
C3925 H3913 0.950 . S
C3925 C3921 1.393 . S
C3925 C3924 1.391 . S
C3926 H3916 0.950 . S
C3926 C3927 1.386 . S
C3926 C3928 1.391 1_565 S
C3927 C3926 1.386 . S
C3927 C3931 1.393 . S
C3928 H3917 0.950 . S
C3928 C3926 1.391 1_545 S
C3928 C3929 1.400 . S
C3929 C3923 1.491 . S
C3929 C3928 1.400 . S
C3929 C3930 1.398 1_545 S
C3930 H3918 0.950 . S
C3930 C3929 1.398 1_565 S
C3930 C3931 1.391 . S
C3931 H3919 0.950 . S
C3931 C3927 1.393 . S
C3931 C3930 1.391 . S
H3932 C3940 0.950 . S
H3933 C3945 0.950 . S
H3934 C3942 0.950 . S
H3935 C3944 0.950 . S
H3936 C3946 0.950 . S
H3937 C3948 0.950 . S
H3938 C3950 0.950 . S
H3939 C3951 0.950 . S
C3940 H3932 0.950 . S
C3940 C3941 1.386 . S
C3940 C3942 1.391 . S
C3941 C3940 1.386 . S
C3941 C3945 1.393 . S
C3942 H3934 0.950 . S
C3942 C3940 1.391 . S
C3942 C3943 1.400 . S
C3943 C3942 1.400 . S
C3943 C3944 1.398 . S
C3943 C3949 1.491 . S
C3944 H3935 0.950 . S
C3944 C3943 1.398 . S
C3944 C3945 1.391 . S
C3945 H3933 0.950 . S
C3945 C3941 1.393 . S
C3945 C3944 1.391 . S
C3946 H3936 0.950 . S
C3946 C3947 1.386 . S
C3946 C3948 1.391 . S
C3947 C3946 1.386 . S
C3947 C3951 1.393 . S
C3948 H3937 0.950 . S
C3948 C3946 1.391 . S
C3948 C3949 1.400 . S
C3949 C3943 1.491 . S
C3949 C3948 1.400 . S
C3949 C3950 1.398 . S
C3950 H3938 0.950 . S
C3950 C3949 1.398 . S
C3950 C3951 1.391 . S
C3951 H3939 0.950 . S
C3951 C3947 1.393 . S
C3951 C3950 1.391 . S
H3952 C3960 0.950 . S
H3953 C3965 0.950 . S
H3954 C3962 0.950 . S
H3955 C3964 0.937 1_565 S
H3956 C3966 0.950 . S
H3957 C3968 0.950 . S
H3958 C3970 0.950 . S
H3959 C3971 0.950 . S
C3960 H3952 0.950 . S
C3960 C3961 1.386 . S
C3960 C3962 1.391 1_545 S
C3961 C3960 1.386 . S
C3961 C3965 1.393 . S
C3962 H3954 0.950 . S
C3962 C3960 1.391 1_565 S
C3962 C3963 1.400 . S
C3963 C3962 1.400 . S
C3963 C3964 1.398 1_565 S
C3963 C3969 1.491 . S
C3964 H3955 0.937 1_545 S
C3964 C3963 1.398 1_545 S
C3964 C3965 1.391 . S
C3965 H3953 0.950 . S
C3965 C3961 1.393 . S
C3965 C3964 1.391 . S
C3966 H3956 0.950 . S
C3966 C3967 1.386 . S
C3966 C3968 1.391 . S
C3967 C3966 1.386 . S
C3967 C3971 1.393 . S
C3968 H3957 0.950 . S
C3968 C3966 1.391 . S
C3968 C3969 1.400 . S
C3969 C3963 1.491 . S
C3969 C3968 1.400 . S
C3969 C3970 1.398 . S
C3970 H3958 0.950 . S
C3970 C3969 1.398 . S
C3970 C3971 1.391 . S
C3971 H3959 0.950 . S
C3971 C3967 1.393 . S
C3971 C3970 1.391 . S
H3972 C3980 0.950 . S
H3973 C3985 0.950 . S
H3974 C3982 0.950 . S
H3975 C3984 0.950 . S
H3976 C3986 0.950 . S
H3977 C3988 0.950 . S
H3978 C3990 0.950 . S
H3979 C3991 0.950 . S
C3980 H3972 0.950 . S
C3980 C3981 1.386 . S
C3980 C3982 1.391 . S
C3981 C3980 1.386 . S
C3981 C3985 1.393 . S
C3982 H3974 0.950 . S
C3982 C3980 1.391 . S
C3982 C3983 1.400 . S
C3983 C3982 1.400 . S
C3983 C3984 1.398 . S
C3983 C3989 1.491 . S
C3984 H3975 0.950 . S
C3984 C3983 1.398 . S
C3984 C3985 1.391 . S
C3985 H3973 0.950 . S
C3985 C3981 1.393 . S
C3985 C3984 1.391 . S
C3986 H3976 0.950 . S
C3986 C3987 1.386 . S
C3986 C3988 1.391 . S
C3987 C3986 1.386 . S
C3987 C3991 1.393 . S
C3988 H3977 0.950 . S
C3988 C3986 1.391 . S
C3988 C3989 1.400 . S
C3989 C3983 1.491 . S
C3989 C3988 1.400 . S
C3989 C3990 1.398 . S
C3990 H3978 0.950 . S
C3990 C3989 1.398 . S
C3990 C3991 1.391 . S
C3991 H3979 0.950 . S
C3991 C3987 1.393 . S
C3991 C3990 1.391 . S
H3992 C4000 0.950 . S
H3993 C4005 0.950 . S
H3994 C4002 0.950 . S
H3995 C4004 0.950 . S
H3996 C4006 0.950 . S
H3997 C4008 0.950 . S
H3998 C4010 0.950 . S
H3999 C4011 0.950 . S
C4000 H3992 0.950 . S
C4000 C4001 1.386 . S
C4000 C4002 1.391 1_545 S
C4001 C4000 1.386 . S
C4001 C4005 1.393 . S
C4002 H3994 0.950 . S
C4002 C4000 1.391 1_565 S
C4002 C4003 1.400 . S
C4003 C4002 1.400 . S
C4003 C4004 1.398 1_565 S
C4003 C4009 1.491 . S
C4004 H3995 0.950 . S
C4004 C4003 1.398 1_545 S
C4004 C4005 1.391 . S
C4005 H3993 0.950 . S
C4005 C4001 1.393 . S
C4005 C4004 1.391 . S
C4006 H3996 0.950 . S
C4006 C4007 1.386 . S
C4006 C4008 1.391 . S
C4007 C4006 1.386 . S
C4007 C4011 1.393 . S
C4008 H3997 0.950 . S
C4008 C4006 1.391 . S
C4008 C4009 1.400 . S
C4009 C4003 1.491 . S
C4009 C4008 1.400 . S
C4009 C4010 1.398 . S
C4010 H3998 0.950 . S
C4010 C4009 1.398 . S
C4010 C4011 1.391 . S
C4011 H3999 0.950 . S
C4011 C4007 1.393 . S
C4011 C4010 1.391 . S
H4012 C4020 0.950 . S
H4013 C4025 0.950 . S
H4014 C4022 0.950 . S
H4015 C4024 0.950 . S
H4016 C4026 0.950 . S
H4017 C4028 0.950 . S
H4018 C4030 0.950 . S
H4019 C4031 0.950 . S
C4020 H4012 0.950 . S
C4020 C4021 1.386 . S
C4020 C4022 1.391 . S
C4021 C4020 1.386 . S
C4021 C4025 1.393 . S
C4022 H4014 0.950 . S
C4022 C4020 1.391 . S
C4022 C4023 1.400 . S
C4023 C4022 1.400 . S
C4023 C4024 1.398 . S
C4023 C4029 1.491 . S
C4024 H4015 0.950 . S
C4024 C4023 1.398 . S
C4024 C4025 1.391 . S
C4025 H4013 0.950 . S
C4025 C4021 1.393 . S
C4025 C4024 1.391 . S
C4026 H4016 0.950 . S
C4026 C4027 1.386 . S
C4026 C4028 1.391 . S
C4027 C4026 1.386 . S
C4027 C4031 1.393 . S
C4028 H4017 0.950 . S
C4028 C4026 1.391 . S
C4028 C4029 1.400 . S
C4029 C4023 1.491 . S
C4029 C4028 1.400 . S
C4029 C4030 1.398 . S
C4030 H4018 0.950 . S
C4030 C4029 1.398 . S
C4030 C4031 1.391 . S
C4031 H4019 0.950 . S
C4031 C4027 1.393 . S
C4031 C4030 1.391 . S
C1641 C549 1.219 . S
C1647 C33 1.222 . S
C1661 C1603 1.214 . S
C1667 C67 1.224 . S
C1681 C101 1.216 . S
C1687 C1535 1.204 . S
C1701 C135 1.200 . S
C1707 C1569 1.195 . S
C1721 C169 1.203 . S
C1727 C583 1.199 . S
C1741 C617 1.216 . S
C1747 C203 1.219 . S
C1761 C651 1.206 . S
C1767 C237 1.208 . S
C1781 C1501 1.192 . S
C1787 C271 1.204 . S
C1801 C305 1.200 . S
C1807 C5 1.190 . S
C1821 C39 1.203 . S
C1827 C339 1.215 . S
C1841 C373 1.214 . S
C1847 C73 1.202 . S
C1861 C107 1.211 . S
C1867 C407 1.214 . S
C1881 C441 1.209 . S
C1887 C141 1.207 . S
C1901 C475 1.202 . S
C1907 C175 1.197 . S
C1921 C209 1.204 . S
C1927 C509 1.207 . S
C1941 C243 1.222 . S
C1947 C543 1.228 . S
C1961 C277 1.222 . S
C1967 C577 1.226 . S
C1981 C413 1.198 . S
C1987 C611 1.203 . S
C2001 C447 1.200 . S
C2007 C645 1.213 . S
C2021 C481 1.202 . S
C2027 C679 1.205 . S
C2041 C1331 1.190 . S
C2047 C713 1.200 . S
C2061 C747 1.213 . S
C2067 C1161 1.201 . S
C2081 C1195 1.213 . S
C2087 C781 1.223 . S
C2101 C815 1.216 . S
C2107 C1127 1.204 . S
C2121 C849 1.210 . S
C2127 C1365 1.198 . S
C2141 C883 1.199 . S
C2147 C787 1.191 . S
C2161 C719 1.222 . S
C2167 C917 1.226 . S
C2181 C753 1.221 . S
C2187 C951 1.224 . S
C2201 C1399 1.219 . S
C2207 C985 1.228 . S
C2221 C1019 1.201 . S
C2227 C1433 1.196 . S
C2241 C1467 1.219 . S
C2247 C1053 1.227 . S
C2261 C1087 1.199 . S
C2267 C685 1.191 . S
C2281 C821 1.196 . S
C2287 C1121 1.208 . S
C2301 C855 1.191 . S
C2307 C1155 1.202 . S
C2321 C1189 1.211 . S
C2327 C889 1.198 . S
C2341 C1223 1.220 . S
C2347 C923 1.209 . S
C2361 C1257 1.224 . S
C2367 C957 1.220 . S
C2381 C991 1.191 . S
C2387 C1291 1.201 . S
C2401 C1325 1.227 . S
C2407 C1025 1.222 . S
C2421 C1059 1.190 . S
C2427 C1359 1.199 . S
C2441 C1093 1.221 . S
C2447 C1393 1.228 . S
C2461 C1427 1.217 . S
C2467 C1229 1.215 . S
C2481 C1263 1.207 . S
C2487 C1461 1.210 . S
C2501 C1297 1.190 . S
C2507 C1495 1.200 . S
C2521 C1529 1.207 . S
C2527 C515 1.204 . S
C2541 C1563 1.203 . S
C2547 C345 1.199 . S
C2561 C1597 1.218 . S
C2567 C379 1.216 . S
C2581 C311 1.221 . S
C2587 C1631 1.226 . S
C2601 C20 1.307 . S
C2607 C156 1.304 . S
C2621 C54 1.307 . S
C2627 C190 1.313 . S
C2641 C224 1.328 . S
C2647 C88 1.328 . S
C2661 C258 1.325 . S
C2667 C122 1.318 . S
C2681 C1312 1.304 . S
C2687 C292 1.304 . S
C2701 C1346 1.314 . S
C2707 C326 1.321 . S
C2721 C1244 1.307 . S
C2727 C360 1.304 . S
C2741 C394 1.324 . S
C2747 C1278 1.317 . S
C2761 C428 1.328 . S
C2767 C1176 1.327 . S
C2781 C462 1.322 . S
C2787 C1210 1.315 . S
C2801 C496 1.327 . S
C2807 C1108 1.321 . S
C2821 C530 1.310 . S
C2827 C1142 1.317 . S
C2841 C1550 1.306 . S
C2847 C564 1.304 . S
C2861 C666 1.318 . S
C2867 C598 1.310 . S
C2881 C1516 1.312 . S
C2887 C632 1.319 . S
C2901 C1448 1.307 . S
C2907 C700 1.314 . S
C2921 C734 1.313 . S
C2927 C1380 1.307 . S
C2941 C768 1.306 . S
C2947 C802 1.312 . S
C2961 C972 1.328 . S
C2967 C836 1.324 . S
C2981 C1006 1.322 . S
C2987 C870 1.315 . S
C3001 C904 1.313 . S
C3007 C1040 1.321 . S
C3021 C1074 1.326 . S
C3027 C938 1.321 . S
C3041 C1414 1.310 . S
C3047 C1482 1.305 . S
C3061 C1618 1.311 . S
C3067 C1584 1.306 . S
C3081 C2 1.499 . S
C3087 C927 1.436 . S
C3101 C36 1.499 . S
C3107 C825 1.440 . S
C3121 C70 1.493 . S
C3127 C859 1.444 . S
C3141 C893 1.440 . S
C3147 C104 1.499 . S
C3161 C138 1.474 . S
C3167 C179 1.409 . S
C3181 C213 1.439 . S
C3187 C172 1.486 . S
C3201 C247 1.433 . S
C3207 C206 1.498 . S
C3221 C240 1.474 . S
C3227 C145 1.420 . S
C3241 C1437 1.438 . S
C3247 C274 1.485 . S
C3261 C308 1.489 . S
C3267 C1471 1.441 . S
C3281 C689 1.443 . S
C3287 C342 1.498 . S
C3301 C376 1.499 . S
C3307 C1403 1.441 . S
C3321 C410 1.488 . S
C3327 C1573 1.441 . S
C3341 C444 1.478 . S
C3347 C553 1.428 . S
C3361 C1607 1.417 . S
C3367 C478 1.473 . S
C3381 C1539 1.443 . S
C3387 C512 1.498 . S
C3401 C315 1.423 . S
C3407 C546 1.475 . S
C3421 C580 1.495 . S
C3427 C1335 1.444 . S
C3441 C614 1.473 . S
C3447 C1233 1.410 . S
C3461 C648 1.480 . S
C3467 C1267 1.408 . S
C3481 C485 1.422 . S
C3487 C682 1.475 . S
C3501 C716 1.483 . S
C3507 C1199 1.435 . S
C3521 C750 1.479 . S
C3527 C1097 1.430 . S
C3541 C1165 1.443 . S
C3547 C784 1.492 . S
C3561 C818 1.498 . S
C3567 C111 1.442 . S
C3581 C852 1.474 . S
C3587 C9 1.409 . S
C3601 C886 1.491 . S
C3607 C43 1.443 . S
C3621 C920 1.476 . S
C3627 C77 1.424 . S
C3641 C954 1.474 . S
C3647 C995 1.408 . S
C3661 C988 1.495 . S
C3667 C1029 1.426 . S
C3681 C1022 1.487 . S
C3687 C1063 1.440 . S
C3701 C961 1.423 . S
C3707 C1056 1.493 . S
C3721 C1090 1.497 . S
C3727 C621 1.432 . S
C3741 C1124 1.499 . S
C3747 C655 1.441 . S
C3761 C1158 1.481 . S
C3767 C1505 1.409 . S
C3781 C587 1.443 . S
C3787 C1192 1.498 . S
C3801 C757 1.440 . S
C3807 C1226 1.486 . S
C3821 C1260 1.494 . S
C3827 C1369 1.424 . S
C3841 C1294 1.476 . S
C3847 C791 1.408 . S
C3861 C1328 1.499 . S
C3867 C723 1.441 . S
C3881 C1131 1.432 . S
C3887 C1362 1.498 . S
C3901 C1396 1.491 . S
C3907 C519 1.443 . S
C3921 C1430 1.494 . S
C3927 C417 1.425 . S
C3941 C1464 1.473 . S
C3947 C451 1.411 . S
C3961 C1301 1.443 . S
C3967 C1498 1.491 . S
C3981 C383 1.421 . S
C3987 C1532 1.492 . S
C4001 C281 1.432 . S
C4007 C1566 1.480 . S
C4021 C349 1.408 . S
C4027 C1600 1.479 . S
