# Generated by pormake.
# Topology snl, (6)-cn, num edge types: 1
# Building blocks:
#     Node 0, Type 0, BuildingBlock: PAMTUU_clean_sbu_0, # of connection points: 6
#     Node 1, Type 0, BuildingBlock: PAMTUU_clean_sbu_0, # of connection points: 6
#     Node 2, Type 0, BuildingBlock: PAMTUU_clean_sbu_0, # of connection points: 6
#     Node 3, Type 0, BuildingBlock: PAMTUU_clean_sbu_0, # of connection points: 6
#     Node 4, Type 0, BuildingBlock: PAMTUU_clean_sbu_0, # of connection points: 6
#     Node 5, Type 0, BuildingBlock: PAMTUU_clean_sbu_0, # of connection points: 6
#     Node 6, Type 0, BuildingBlock: PAMTUU_clean_sbu_0, # of connection points: 6
#     Node 7, Type 0, BuildingBlock: PAMTUU_clean_sbu_0, # of connection points: 6
#     Node 8, Type 0, BuildingBlock: PAMTUU_clean_sbu_0, # of connection points: 6
#     Node 9, Type 0, BuildingBlock: PAMTUU_clean_sbu_0, # of connection points: 6
#     Node 10, Type 0, BuildingBlock: PAMTUU_clean_sbu_0, # of connection points: 6
#     Node 11, Type 0, BuildingBlock: PAMTUU_clean_sbu_0, # of connection points: 6
#     Node 12, Type 0, BuildingBlock: PAMTUU_clean_sbu_0, # of connection points: 6
#     Node 13, Type 0, BuildingBlock: PAMTUU_clean_sbu_0, # of connection points: 6
#     Node 14, Type 0, BuildingBlock: PAMTUU_clean_sbu_0, # of connection points: 6
#     Node 15, Type 0, BuildingBlock: PAMTUU_clean_sbu_0, # of connection points: 6
#     Edge 16, Type (0, 0), BuildingBlock: EZIPEK_clean_linker_0, # of connection points: 2
#     Edge 17, Type (0, 0), BuildingBlock: EZIPEK_clean_linker_0, # of connection points: 2
#     Edge 18, Type (0, 0), BuildingBlock: EZIPEK_clean_linker_0, # of connection points: 2
#     Edge 19, Type (0, 0), BuildingBlock: EZIPEK_clean_linker_0, # of connection points: 2
#     Edge 20, Type (0, 0), BuildingBlock: EZIPEK_clean_linker_0, # of connection points: 2
#     Edge 21, Type (0, 0), BuildingBlock: EZIPEK_clean_linker_0, # of connection points: 2
#     Edge 22, Type (0, 0), BuildingBlock: EZIPEK_clean_linker_0, # of connection points: 2
#     Edge 23, Type (0, 0), BuildingBlock: EZIPEK_clean_linker_0, # of connection points: 2
#     Edge 24, Type (0, 0), BuildingBlock: EZIPEK_clean_linker_0, # of connection points: 2
#     Edge 25, Type (0, 0), BuildingBlock: EZIPEK_clean_linker_0, # of connection points: 2
#     Edge 26, Type (0, 0), BuildingBlock: EZIPEK_clean_linker_0, # of connection points: 2
#     Edge 27, Type (0, 0), BuildingBlock: EZIPEK_clean_linker_0, # of connection points: 2
#     Edge 28, Type (0, 0), BuildingBlock: EZIPEK_clean_linker_0, # of connection points: 2
#     Edge 29, Type (0, 0), BuildingBlock: EZIPEK_clean_linker_0, # of connection points: 2
#     Edge 30, Type (0, 0), BuildingBlock: EZIPEK_clean_linker_0, # of connection points: 2
#     Edge 31, Type (0, 0), BuildingBlock: EZIPEK_clean_linker_0, # of connection points: 2
#     Edge 32, Type (0, 0), BuildingBlock: EZIPEK_clean_linker_0, # of connection points: 2
#     Edge 33, Type (0, 0), BuildingBlock: EZIPEK_clean_linker_0, # of connection points: 2
#     Edge 34, Type (0, 0), BuildingBlock: EZIPEK_clean_linker_0, # of connection points: 2
#     Edge 35, Type (0, 0), BuildingBlock: EZIPEK_clean_linker_0, # of connection points: 2
#     Edge 36, Type (0, 0), BuildingBlock: EZIPEK_clean_linker_0, # of connection points: 2
#     Edge 37, Type (0, 0), BuildingBlock: EZIPEK_clean_linker_0, # of connection points: 2
#     Edge 38, Type (0, 0), BuildingBlock: EZIPEK_clean_linker_0, # of connection points: 2
#     Edge 39, Type (0, 0), BuildingBlock: EZIPEK_clean_linker_0, # of connection points: 2
#     Edge 40, Type (0, 0), BuildingBlock: EZIPEK_clean_linker_0, # of connection points: 2
#     Edge 41, Type (0, 0), BuildingBlock: EZIPEK_clean_linker_0, # of connection points: 2
#     Edge 42, Type (0, 0), BuildingBlock: EZIPEK_clean_linker_0, # of connection points: 2
#     Edge 43, Type (0, 0), BuildingBlock: EZIPEK_clean_linker_0, # of connection points: 2
#     Edge 44, Type (0, 0), BuildingBlock: EZIPEK_clean_linker_0, # of connection points: 2
#     Edge 45, Type (0, 0), BuildingBlock: EZIPEK_clean_linker_0, # of connection points: 2
#     Edge 46, Type (0, 0), BuildingBlock: EZIPEK_clean_linker_0, # of connection points: 2
#     Edge 47, Type (0, 0), BuildingBlock: EZIPEK_clean_linker_0, # of connection points: 2
#     Edge 48, Type (0, 0), BuildingBlock: EZIPEK_clean_linker_0, # of connection points: 2
#     Edge 49, Type (0, 0), BuildingBlock: EZIPEK_clean_linker_0, # of connection points: 2
#     Edge 50, Type (0, 0), BuildingBlock: EZIPEK_clean_linker_0, # of connection points: 2
#     Edge 51, Type (0, 0), BuildingBlock: EZIPEK_clean_linker_0, # of connection points: 2
#     Edge 52, Type (0, 0), BuildingBlock: EZIPEK_clean_linker_0, # of connection points: 2
#     Edge 53, Type (0, 0), BuildingBlock: EZIPEK_clean_linker_0, # of connection points: 2
#     Edge 54, Type (0, 0), BuildingBlock: EZIPEK_clean_linker_0, # of connection points: 2
#     Edge 55, Type (0, 0), BuildingBlock: EZIPEK_clean_linker_0, # of connection points: 2
#     Edge 56, Type (0, 0), BuildingBlock: EZIPEK_clean_linker_0, # of connection points: 2
#     Edge 57, Type (0, 0), BuildingBlock: EZIPEK_clean_linker_0, # of connection points: 2
#     Edge 58, Type (0, 0), BuildingBlock: EZIPEK_clean_linker_0, # of connection points: 2
#     Edge 59, Type (0, 0), BuildingBlock: EZIPEK_clean_linker_0, # of connection points: 2
#     Edge 60, Type (0, 0), BuildingBlock: EZIPEK_clean_linker_0, # of connection points: 2
#     Edge 61, Type (0, 0), BuildingBlock: EZIPEK_clean_linker_0, # of connection points: 2
#     Edge 62, Type (0, 0), BuildingBlock: EZIPEK_clean_linker_0, # of connection points: 2
#     Edge 63, Type (0, 0), BuildingBlock: EZIPEK_clean_linker_0, # of connection points: 2
# Relax obj value: 0.165
# Max RMSD: 0.250
# Mean RMSD: 0.231
data_MOF--net-snl--node1-PAMTUU_clean_sbu_0--edge1-EZIPEK_clean_linker_0
_symmetry_space_group_name_H-M    P1
_symmetry_Int_Tables_number       1
_symmetry_cell_setting            triclinic
loop_
_symmetry_equiv_pos_as_xyz
'x, y, z'
_cell_length_a     41.064686
_cell_length_b     41.440076
_cell_length_c     21.33696
_cell_angle_alpha  95.85942
_cell_angle_beta   92.00091
_cell_angle_gamma 89.992957
loop_
_atom_site_label
_atom_site_type_symbol
_atom_site_fract_x
_atom_site_fract_y
_atom_site_fract_z
_atom_type_partial_charge
Tb0 Tb 0.11953 0.62559 0.23427 0.0
Tb1 Tb 0.15328 0.63924 0.10219 0.0
C2 C 0.13392 0.57101 0.12487 0.0
C3 C 0.10527 0.62154 0.40544 0.0
C4 C 0.12215 0.63334 0.53478 0.0
C5 C 0.09829 0.61013 0.51364 0.0
C6 C 0.08988 0.60433 0.44939 0.0
C7 C 0.12938 0.6446 0.42647 0.0
C8 C 0.13771 0.65052 0.49085 0.0
C9 C 0.09557 0.61545 0.33819 0.0
O10 O 0.17058 0.61596 0.25131 0.0
O11 O 0.19291 0.64437 0.17599 0.0
O12 O 0.13207 0.68445 0.13885 0.0
O13 O 0.1372 0.67645 0.24312 0.0
O14 O 0.16983 0.61853 1.01577 0.0
O15 O 0.17555 0.66983 0.04244 0.0
O16 O 0.10026 0.63422 0.0786 0.0
O17 O 0.0788 0.64006 0.17784 0.0
O18 O 0.11161 0.58269 0.16402 0.0
O19 O 0.159 0.58873 0.11523 0.0
C20 C 0.19552 0.62994 0.22858 0.0
O21 O 0.0895 0.64102 0.30897 0.0
O22 O 0.11278 0.59422 0.3044 0.0
C23 C 0.13462 0.69607 0.19805 0.0
C24 C 0.16828 0.65172 0.93316 0.0
C25 C 0.15247 0.65175 0.80367 0.0
C26 C 0.18353 0.66167 0.82774 0.0
C27 C 0.19138 0.66158 0.89206 0.0
C28 C 0.13668 0.64331 0.9096 0.0
C29 C 0.12885 0.64329 0.8452 0.0
C30 C 0.17877 0.64617 0.99791 0.0
C31 C 0.07533 0.63824 0.11645 0.0
H32 H 0.08616 0.5966 0.54694 0.0
H33 H 0.07127 0.58644 0.434 0.0
H34 H 0.14162 0.65805 0.39316 0.0
H35 H 0.15628 0.6684 0.50644 0.0
H36 H 0.20203 0.66824 0.79632 0.0
H37 H 0.21593 0.66789 0.90926 0.0
H38 H 0.11854 0.63544 0.94049 0.0
H39 H 0.10479 0.63554 0.82738 0.0
Tb40 Tb 0.62239 0.88931 0.33625 0.0
Tb41 Tb 0.65863 0.87455 0.47166 0.0
C42 C 0.63224 0.94358 0.45475 0.0
C43 C 0.61005 0.89704 0.1625 0.0
C44 C 0.62707 0.88826 0.03468 0.0
C45 C 0.62756 0.9193 0.06766 0.0
C46 C 0.61901 0.92366 0.13083 0.0
C47 C 0.60965 0.86585 0.12934 0.0
C48 C 0.61807 0.86154 0.06587 0.0
C49 C 0.60075 0.90276 0.22932 0.0
O50 O 0.67165 0.87516 0.31347 0.0
O51 O 0.69701 0.8894 0.40968 0.0
O52 O 0.66174 0.82986 0.41003 0.0
O53 O 0.61822 0.8367 0.34225 0.0
O54 O 0.69131 0.88877 0.54751 0.0
O55 O 0.66706 0.84219 0.54015 0.0
O56 O 0.60578 0.86848 0.48407 0.0
O57 O 0.58153 0.8899 0.39772 0.0
O58 O 0.63147 0.93649 0.39289 0.0
O59 O 0.63717 0.92155 0.49347 0.0
C60 C 0.69806 0.88278 0.34773 0.0
O61 O 0.59067 0.87818 0.25712 0.0
O62 O 0.62023 0.92146 0.26634 0.0
C63 C 0.63882 0.81785 0.37021 0.0
C64 C 0.67729 0.86775 0.64281 0.0
C65 C 0.66115 0.87483 0.77103 0.0
C66 C 0.67718 0.84688 0.74539 0.0
C67 C 0.68524 0.84342 0.68188 0.0
C68 C 0.66113 0.89574 0.66836 0.0
C69 C 0.65327 0.8993 0.7321 0.0
C70 C 0.68534 0.86291 0.57553 0.0
C71 C 0.57982 0.87765 0.45198 0.0
H72 H 0.63438 0.94019 0.04432 0.0
H73 H 0.61935 0.94796 0.15503 0.0
H74 H 0.60279 0.84484 0.15224 0.0
H75 H 0.61753 0.8374 0.04103 0.0
H76 H 0.68338 0.82771 0.77459 0.0
H77 H 0.69754 0.82159 0.66307 0.0
H78 H 0.65445 0.91473 0.63907 0.0
H79 H 0.64083 0.92102 0.75102 0.0
Tb80 Tb 0.35681 0.3822 0.59461 0.0
Tb81 Tb 0.38922 0.41035 0.7367 0.0
C82 C 0.31402 0.39274 0.7182 0.0
C83 C 0.34211 0.3759 0.418 0.0
C84 C 0.35326 0.39056 0.29318 0.0
C85 C 0.32146 0.39012 0.31549 0.0
C86 C 0.31597 0.38289 0.37721 0.0
C87 C 0.37397 0.37663 0.39569 0.0
C88 C 0.37946 0.38393 0.33406 0.0
C89 C 0.33556 0.36662 0.4822 0.0
O90 O 0.35308 0.43454 0.60482 0.0
O91 O 0.3971 0.44747 0.67054 0.0
O92 O 0.43149 0.39407 0.68489 0.0
O93 O 0.40965 0.38778 0.58274 0.0
O94 O 0.38842 0.44727 0.81235 0.0
O95 O 0.42053 0.40645 0.81577 0.0
O96 O 0.38202 0.35811 0.74156 0.0
O97 O 0.36599 0.33835 0.63931 0.0
O98 O 0.31776 0.37667 0.66191 0.0
O99 O 0.33663 0.41219 0.74562 0.0
C100 C 0.37727 0.45404 0.62332 0.0
O101 O 0.35854 0.35123 0.51041 0.0
O102 O 0.32188 0.38824 0.52146 0.0
C103 C 0.43461 0.38896 0.6237 0.0
C104 C 0.39845 0.42754 0.91227 0.0
C105 C 0.38142 0.4164 0.03598 0.0
C106 C 0.4114 0.43088 1.02527 0.0
C107 C 0.41984 0.43632 0.96401 0.0
C108 C 0.36826 0.41345 0.923 0.0
C109 C 0.35983 0.40788 0.98429 0.0
C110 C 0.40855 0.43196 0.84751 0.0
C111 C 0.37481 0.33406 0.69772 0.0
H112 H 0.30087 0.39507 0.28486 0.0
H113 H 0.29118 0.38237 0.39288 0.0
H114 H 0.39471 0.37144 0.42576 0.0
H115 H 0.40418 0.38414 0.318 0.0
H116 H 0.42843 0.43763 0.06433 0.0
H117 H 0.44329 0.44711 0.95695 0.0
H118 H 0.35136 0.40654 0.8839 0.0
H119 H 0.33658 0.3967 0.99135 0.0
Tb120 Tb 0.86754 0.14275 0.98185 0.0
Tb121 Tb 0.89126 0.10974 0.84229 0.0
C122 C 0.81885 0.12652 0.86244 0.0
C123 C 0.85542 0.15273 0.15651 0.0
C124 C 0.86688 0.13695 0.28177 0.0
C125 C 0.84044 0.12323 0.24488 0.0
C126 C 0.83474 0.13105 0.18307 0.0
C127 C 0.88193 0.16644 0.19369 0.0
C128 C 0.88763 0.15855 0.25557 0.0
C129 C 0.84842 0.16156 0.09129 0.0
O130 O 0.88669 0.09601 0.99781 0.0
O131 O 0.87631 0.07037 0.899 0.0
O132 O 0.93482 0.11024 0.9029 0.0
O133 O 0.92076 0.14903 0.98286 0.0
O134 O 0.882 0.07546 0.76407 0.0
O135 O 0.92475 0.10599 0.76922 0.0
O136 O 0.89467 0.16261 0.83882 0.0
O137 O 0.86457 0.18269 0.92388 0.0
O138 O 0.82422 0.12474 0.92346 0.0
O139 O 0.84306 0.12826 0.82493 0.0
C140 C 0.88096 0.06958 0.96062 0.0
O141 O 0.87123 0.1761 0.06353 0.0
O142 O 0.83356 0.13969 0.05233 0.0
C143 C 0.94269 0.13135 0.95118 0.0
C144 C 0.89986 0.09282 0.66764 0.0
C145 C 0.88857 0.10671 0.54134 0.0
C146 C 0.92021 0.10027 0.56395 0.0
C147 C 0.92576 0.0933 0.62638 0.0
C148 C 0.86817 0.09942 0.64505 0.0
C149 C 0.86259 0.10616 0.58244 0.0
C150 C 0.90649 0.08533 0.73356 0.0
C151 C 0.88025 0.18677 0.87241 0.0
H152 H 0.82406 0.1066 0.26416 0.0
H153 H 0.81393 0.12026 0.15618 0.0
H154 H 0.89819 0.18342 0.17517 0.0
H155 H 0.90811 0.1695 0.28327 0.0
H156 H 0.94061 0.10063 0.53319 0.0
H157 H 0.95038 0.08833 0.64255 0.0
H158 H 0.8477 0.09942 0.6757 0.0
H159 H 0.838 0.11112 0.56607 0.0
Tb160 Tb 0.12189 0.39619 0.85111 0.0
Tb161 Tb 0.15392 0.37335 0.98444 0.0
C162 C 0.13404 0.44427 0.97678 0.0
C163 C 0.10972 0.40755 0.67995 0.0
C164 C 0.12517 0.39605 0.55142 0.0
C165 C 0.09679 0.41303 0.56923 0.0
C166 C 0.08915 0.41871 0.63293 0.0
C167 C 0.13805 0.39038 0.66223 0.0
C168 C 0.1457 0.38466 0.59845 0.0
C169 C 0.10192 0.41504 0.74707 0.0
O170 O 0.17028 0.37977 0.82868 0.0
O171 O 0.19402 0.39001 0.92736 0.0
O172 O 0.15703 0.33097 0.91785 0.0
O173 O 0.11926 0.34272 0.84116 0.0
O174 O 0.18707 0.38323 0.06129 0.0
O175 O 0.15749 0.33997 0.05259 0.0
O176 O 0.101 0.36478 0.98678 0.0
O177 O 0.08094 0.39751 0.91288 0.0
O178 O 0.13724 0.43964 0.915 0.0
O179 O 0.13195 0.41968 1.0099 0.0
C180 C 0.1962 0.38574 0.86513 0.0
O181 O 0.08788 0.39218 0.77422 0.0
O182 O 0.12487 0.42934 0.78342 0.0
C183 C 0.13751 0.3218 0.86927 0.0
C184 C 0.16968 0.3644 0.1561 0.0
C185 C 0.1553 0.37513 0.28525 0.0
C186 C 0.1724 0.34732 0.26214 0.0
C187 C 0.17955 0.34204 0.19816 0.0
C188 C 0.1524 0.39219 0.17913 0.0
C189 C 0.14537 0.39755 0.24327 0.0
C190 C 0.17772 0.35829 0.08879 0.0
C191 C 0.07666 0.37946 0.95912 0.0
H192 H 0.08064 0.42201 0.53376 0.0
H193 H 0.06726 0.4321 0.64555 0.0
H194 H 0.15436 0.38164 0.6977 0.0
H195 H 0.1677 0.37151 0.58575 0.0
H196 H 0.18023 0.32974 0.29372 0.0
H197 H 0.19285 0.32045 0.18146 0.0
H198 H 0.14437 0.40971 0.1476 0.0
H199 H 0.13209 0.41911 0.26015 0.0
Tb200 Tb 0.88664 0.91494 0.2214 0.0
Tb201 Tb 0.85984 0.88161 0.07713 0.0
C202 C 0.8754 0.95619 0.10228 0.0
C203 C 0.89282 0.93238 0.39731 0.0
C204 C 0.87921 0.91963 0.52189 0.0
C205 C 0.89108 0.95014 0.50983 0.0
C206 C 0.89789 0.95641 0.44814 0.0
C207 C 0.88017 0.90211 0.40919 0.0
C208 C 0.87351 0.89579 0.47092 0.0
C209 C 0.90213 0.93869 0.33296 0.0
O210 O 0.8341 0.91282 0.22433 0.0
O211 O 0.81898 0.87604 0.13995 0.0
O212 O 0.87149 0.84034 0.12815 0.0
O213 O 0.88236 0.86293 0.23093 0.0
O214 O 0.82461 0.8807 1.00286 0.0
O215 O 0.86705 0.85034 0.9945 0.0
O216 O 0.91258 0.88934 0.06991 0.0
O217 O 0.93116 0.90292 0.17305 0.0
O218 O 0.89135 0.95302 0.15633 0.0
O219 O 0.85606 0.93354 0.07495 0.0
C220 C 0.81299 0.89235 0.19492 0.0
O221 O 0.91809 0.91564 0.3013 0.0
O222 O 0.87988 0.95095 0.29737 0.0
C223 C 0.8782 0.83778 0.18825 0.0
C224 C 0.84684 0.87114 0.90127 0.0
C225 C 0.85697 0.88897 0.77856 0.0
C226 C 0.84583 0.85772 0.78716 0.0
C227 C 0.8408 0.84892 0.84789 0.0
C228 C 0.85805 0.90244 0.89279 0.0
C229 C 0.86304 0.91128 0.83195 0.0
C230 C 0.84162 0.86115 0.96507 0.0
C231 C 0.93634 0.89516 0.11297 0.0
H232 H 0.89558 0.96891 0.54835 0.0
H233 H 0.90759 0.97991 0.44025 0.0
H234 H 0.87592 0.88319 0.37085 0.0
H235 H 0.86427 0.87215 0.47905 0.0
H236 H 0.8411 0.8401 0.74676 0.0
H237 H 0.83223 0.82465 0.85321 0.0
H238 H 0.86297 0.92 0.93319 0.0
H239 H 0.87176 0.93547 0.8265 0.0
Tb240 Tb 0.36672 0.64035 0.5003 0.0
Tb241 Tb 0.38926 0.60835 0.36067 0.0
C242 C 0.31651 0.62578 0.38225 0.0
C243 C 0.35423 0.6511 0.6751 0.0
C244 C 0.36177 0.63415 0.80009 0.0
C245 C 0.33084 0.64136 0.77511 0.0
C246 C 0.32712 0.64976 0.71323 0.0
C247 C 0.38518 0.64355 0.70004 0.0
C248 C 0.38888 0.63514 0.76193 0.0
C249 C 0.34972 0.6611 0.61041 0.0
O250 O 0.36023 0.58864 0.49942 0.0
O251 O 0.3984 0.57138 0.42819 0.0
O252 O 0.43336 0.62769 0.40759 0.0
O253 O 0.41903 0.62847 0.51092 0.0
O254 O 0.38365 0.57209 0.28408 0.0
O255 O 0.41944 0.6099 0.28358 0.0
O256 O 0.37623 0.65953 0.35131 0.0
O257 O 0.38403 0.68097 0.45441 0.0
O258 O 0.325 0.64569 0.43275 0.0
O259 O 0.33679 0.60391 0.35831 0.0
C260 C 0.381 0.5668 0.47781 0.0
O261 O 0.37537 0.67118 0.58379 0.0
O262 O 0.33168 0.64234 0.57064 0.0
C263 C 0.44124 0.62904 0.46768 0.0
C264 C 0.39529 0.59052 0.18526 0.0
C265 C 0.38119 0.60351 0.05959 0.0
C266 C 0.40568 0.58133 0.07314 0.0
C267 C 0.41265 0.57491 0.13542 0.0
C268 C 0.37035 0.61227 0.17179 0.0
C269 C 0.3633 0.61865 0.10937 0.0
C270 C 0.405 0.58544 0.25091 0.0
C271 C 0.38067 0.68469 0.3943 0.0
H272 H 0.30962 0.6408 0.80378 0.0
H273 H 0.30304 0.65551 0.69527 0.0
H274 H 0.40656 0.64426 0.6719 0.0
H275 H 0.41295 0.62964 0.78029 0.0
H276 H 0.41978 0.56943 0.03555 0.0
H277 H 0.43208 0.55819 0.14481 0.0
H278 H 0.35678 0.62472 0.20961 0.0
H279 H 0.34433 0.63585 0.09997 0.0
Tb280 Tb 0.61824 0.11847 0.72358 0.0
Tb281 Tb 0.65169 0.13844 0.59314 0.0
C282 C 0.6287 0.06872 0.6024 0.0
C283 C 0.60392 0.10697 0.89246 0.0
C284 C 0.61902 0.11668 1.02337 0.0
C285 C 0.63378 0.09152 0.98563 0.0
C286 C 0.62627 0.08664 0.92092 0.0
C287 C 0.589 0.13206 0.93064 0.0
C288 C 0.59657 0.13693 0.99548 0.0
C289 C 0.59557 0.10121 0.82383 0.0
O290 O 0.66733 0.12996 0.75556 0.0
O291 O 0.6921 0.12723 0.65992 0.0
O292 O 0.65232 0.1834 0.65141 0.0
O293 O 0.62076 0.17223 0.73415 0.0
O294 O 0.68339 0.12382 0.52042 0.0
O295 O 0.65913 0.17017 0.52407 0.0
O296 O 0.59936 0.14896 0.5821 0.0
O297 O 0.57777 0.11869 0.65604 0.0
O298 O 0.63208 0.0739 0.66433 0.0
O299 O 0.62797 0.09266 0.56753 0.0
C300 C 0.6935 0.12906 0.72251 0.0
O301 O 0.5843 0.12561 0.79561 0.0
O302 O 0.61636 0.08432 0.78935 0.0
C303 C 0.63643 0.19282 0.70216 0.0
C304 C 0.66776 0.14353 0.42246 0.0
C305 C 0.65151 0.13434 0.29208 0.0
C306 C 0.65576 0.16572 0.32278 0.0
C307 C 0.66395 0.17025 0.38728 0.0
C308 C 0.66335 0.11205 0.39162 0.0
C309 C 0.65538 0.10753 0.32693 0.0
C310 C 0.67673 0.14915 0.49062 0.0
C311 C 0.5744 0.13612 0.6083 0.0
H312 H 0.65107 0.07559 1.00639 0.0
H313 H 0.63793 0.06683 0.89325 0.0
H314 H 0.57139 0.14788 0.91048 0.0
H315 H 0.58485 0.15641 1.024 0.0
H316 H 0.65289 0.18669 0.29667 0.0
H317 H 0.66734 0.19472 0.40977 0.0
H318 H 0.66611 0.09092 0.4173 0.0
H319 H 0.65221 0.08313 0.30398 0.0
Tb320 Tb 0.86265 0.3786 0.97386 0.0
Tb321 Tb 0.89516 0.39668 0.84293 0.0
C322 C 0.87893 0.32434 0.86781 0.0
C323 C 0.84412 0.37224 0.14304 0.0
C324 C 0.85886 0.38297 0.27341 0.0
C325 C 0.83998 0.35609 0.24882 0.0
C326 C 0.83264 0.35081 0.18411 0.0
C327 C 0.86292 0.39926 0.16752 0.0
C328 C 0.87012 0.40466 0.23242 0.0
C329 C 0.83741 0.36507 0.07483 0.0
O330 O 0.91501 0.38557 0.99843 0.0
O331 O 0.93549 0.37969 0.89861 0.0
O332 O 0.90439 0.43933 0.91235 0.0
O333 O 0.86443 0.43105 0.98167 0.0
O334 O 0.9251 0.38373 0.76663 0.0
O335 O 0.90065 0.42991 0.77568 0.0
O336 O 0.84362 0.40662 0.8305 0.0
O337 O 0.82356 0.37308 0.89907 0.0
O338 O 0.87964 0.33326 0.92826 0.0
O339 O 0.87816 0.34579 0.826 0.0
C340 C 0.93954 0.38063 0.96005 0.0
O341 O 0.82818 0.38914 0.04373 0.0
O342 O 0.85891 0.34717 0.04458 0.0
C343 C 0.88653 0.4496 0.96067 0.0
C344 C 0.90779 0.40544 0.67183 0.0
C345 C 0.89086 0.39862 0.54188 0.0
C346 C 0.89617 0.4295 0.57402 0.0
C347 C 0.90467 0.43287 0.63843 0.0
C348 C 0.90214 0.37449 0.63951 0.0
C349 C 0.89381 0.37114 0.57498 0.0
C350 C 0.91779 0.40972 0.73953 0.0
C351 C 0.81962 0.38985 0.84985 0.0
H352 H 0.83118 0.33909 0.27972 0.0
H353 H 0.8183 0.32974 0.16598 0.0
H354 H 0.87226 0.41591 0.13644 0.0
H355 H 0.88478 0.42548 0.25063 0.0
H356 H 0.89402 0.45094 0.54908 0.0
H357 H 0.90902 0.45694 0.66215 0.0
H358 H 0.90434 0.35286 0.66385 0.0
H359 H 0.8898 0.34713 0.55075 0.0
Tb360 Tb 0.36067 0.14234 0.58736 0.0
Tb361 Tb 0.39558 0.12388 0.72283 0.0
C362 C 0.379 0.19572 0.69398 0.0
C363 C 0.3418 0.1497 0.41643 0.0
C364 C 0.3561 0.14097 0.28715 0.0
C365 C 0.32381 0.14546 0.3058 0.0
C366 C 0.31674 0.14983 0.36995 0.0
C367 C 0.37407 0.14467 0.39772 0.0
C368 C 0.38116 0.14046 0.33358 0.0
C369 C 0.33402 0.15553 0.48388 0.0
O370 O 0.41253 0.13673 0.56694 0.0
O371 O 0.43568 0.13785 0.66786 0.0
O372 O 0.40207 0.07974 0.65668 0.0
O373 O 0.36868 0.09096 0.57216 0.0
O374 O 0.42476 0.13972 0.8032 0.0
O375 O 0.40323 0.09208 0.7927 0.0
O376 O 0.34495 0.11188 0.7304 0.0
O377 O 0.32226 0.14391 0.65881 0.0
O378 O 0.38061 0.18678 0.63386 0.0
O379 O 0.37703 0.17418 0.73525 0.0
C380 C 0.43801 0.13864 0.60673 0.0
O381 O 0.32676 0.13016 0.51202 0.0
O382 O 0.35344 0.17506 0.51921 0.0
C383 C 0.38751 0.07121 0.60104 0.0
C384 C 0.40895 0.11821 0.89622 0.0
C385 C 0.38971 0.1261 1.02275 0.0
C386 C 0.41986 0.11203 1.00728 0.0
C387 C 0.42939 0.10814 0.94455 0.0
C388 C 0.37872 0.13227 0.91153 0.0
C389 C 0.36918 0.13622 0.97441 0.0
C390 C 0.41943 0.11354 0.83034 0.0
C391 C 0.31993 0.12707 0.70812 0.0
H392 H 0.30415 0.14589 0.2707 0.0
H393 H 0.2917 0.15361 0.38328 0.0
H394 H 0.3938 0.14431 0.43269 0.0
H395 H 0.4062 0.13696 0.32011 0.0
H396 H 0.43602 0.10409 0.04384 0.0
H397 H 0.45277 0.0972 0.93373 0.0
H398 H 0.36254 0.14013 0.87489 0.0
H399 H 0.34581 0.1471 0.98539 0.0
Tb400 Tb 0.62805 0.60201 0.34196 0.0
Tb401 Tb 0.65815 0.63161 0.48473 0.0
C402 C 0.57991 0.62252 0.45078 0.0
C403 C 0.62139 0.5835 0.16644 0.0
C404 C 0.63743 0.59505 0.04272 0.0
C405 C 0.6113 0.57452 0.05276 0.0
C406 C 0.60338 0.5688 0.11406 0.0
C407 C 0.64788 0.60364 0.15655 0.0
C408 C 0.65589 0.6093 0.09514 0.0
C409 C 0.61106 0.57909 0.23078 0.0
O410 O 0.62858 0.65508 0.34024 0.0
O411 O 0.65399 0.67442 0.43575 0.0
O412 O 0.69829 0.63801 0.42103 0.0
O413 O 0.68073 0.60352 0.33476 0.0
O414 O 0.65428 0.66238 0.56874 0.0
O415 O 0.69272 0.62709 0.55891 0.0
O416 O 0.66307 0.57949 0.476 0.0
O417 O 0.62035 0.56502 0.40812 0.0
O418 O 0.58389 0.6122 0.39143 0.0
O419 O 0.60441 0.62912 0.49227 0.0
C420 C 0.63995 0.67893 0.38106 0.0
O421 O 0.63163 0.56495 0.26709 0.0
O422 O 0.59779 0.60429 0.26116 0.0
C423 C 0.70291 0.62272 0.36454 0.0
C424 C 0.67201 0.63885 0.66159 0.0
C425 C 0.66201 0.62315 0.78582 0.0
C426 C 0.69369 0.62547 0.76378 0.0
C427 C 0.69861 0.63319 0.70228 0.0
C428 C 0.64028 0.63642 0.68371 0.0
C429 C 0.63536 0.62853 0.74509 0.0
C430 C 0.67799 0.64824 0.59748 0.0
C431 C 0.63946 0.55947 0.45689 0.0
H432 H 0.59673 0.56332 1.01311 0.0
H433 H 0.58278 0.55331 0.12063 0.0
H434 H 0.662 0.61539 0.19631 0.0
H435 H 0.67612 0.62523 0.08851 0.0
H436 H 0.7146 0.62155 0.79441 0.0
H437 H 0.72329 0.63508 0.68664 0.0
H438 H 0.61923 0.64062 0.65363 0.0
H439 H 0.61072 0.6269 0.7611 0.0
Tb440 Tb 0.12938 0.91016 0.21501 0.0
Tb441 Tb 0.14945 0.87766 0.07453 0.0
C442 C 0.07621 0.89213 0.10984 0.0
C443 C 0.12249 0.92697 0.39044 0.0
C444 C 0.13474 0.91311 0.51605 0.0
C445 C 0.11347 0.93825 0.50274 0.0
C446 C 0.10741 0.94511 0.44045 0.0
C447 C 0.14423 0.90215 0.40368 0.0
C448 C 0.15034 0.8953 0.46608 0.0
C449 C 0.11379 0.93302 0.3249 0.0
O450 O 0.14278 0.85914 0.22426 0.0
O451 O 0.131 0.83814 0.12241 0.0
O452 O 0.19256 0.87243 0.13903 0.0
O453 O 0.18197 0.91275 0.21761 0.0
O454 O 0.13788 0.84698 0.9921 0.0
O455 O 0.18365 0.87257 1.00279 0.0
O456 O 0.15671 0.92901 0.07139 0.0
O457 O 0.12305 0.94878 0.14987 0.0
O458 O 0.08484 0.89068 0.16899 0.0
O459 O 0.09824 0.89367 0.06652 0.0
C460 C 0.13665 0.83411 0.18189 0.0
O461 O 0.13627 0.94543 0.29296 0.0
O462 O 0.09835 0.9096 0.29105 0.0
C463 C 0.20182 0.89143 0.1903 0.0
C464 C 0.1598 0.86463 0.89972 0.0
C465 C 0.15226 0.88179 0.77515 0.0
C466 C 0.18041 0.86567 0.79419 0.0
C467 C 0.18411 0.85712 0.85591 0.0
C468 C 0.13181 0.88126 0.88092 0.0
C469 C 0.12803 0.88964 0.81901 0.0
C470 C 0.16409 0.85476 0.9643 0.0
C471 C 0.13879 0.95228 0.09775 0.0
H472 H 0.10118 0.95223 0.54054 0.0
H473 H 0.09046 0.96424 0.43121 0.0
H474 H 0.156 0.88776 0.36571 0.0
H475 H 0.16682 0.8758 0.47537 0.0
H476 H 0.19936 0.85942 0.76105 0.0
H477 H 0.20592 0.84444 0.8694 0.0
H478 H 0.11281 0.88757 0.91391 0.0
H479 H 0.10617 0.90212 0.8052 0.0
Tb480 Tb 0.85971 0.64504 0.09536 0.0
Tb481 Tb 0.89417 0.6275 0.22917 0.0
C482 C 0.87875 0.69979 0.19897 0.0
C483 C 0.84314 0.65403 0.92402 0.0
C484 C 0.85896 0.64674 0.79542 0.0
C485 C 0.86647 0.67563 0.83335 0.0
C486 C 0.85856 0.67929 0.89689 0.0
C487 C 0.83528 0.62521 0.88563 0.0
C488 C 0.84312 0.62162 0.82193 0.0
C489 C 0.83449 0.65839 0.9914 0.0
O490 O 0.91309 0.65107 0.08697 0.0
O491 O 0.93475 0.62345 0.16754 0.0
O492 O 0.88335 0.58115 0.17032 0.0
O493 O 0.88074 0.59825 0.07128 0.0
O494 O 0.92671 0.6375 0.30755 0.0
O495 O 0.89488 0.59575 0.29952 0.0
O496 O 0.84508 0.64219 0.25135 0.0
O497 O 0.82088 0.62815 0.15422 0.0
O498 O 0.85544 0.68845 0.15966 0.0
O499 O 0.89986 0.68022 0.22377 0.0
C500 C 0.93803 0.63832 0.11682 0.0
O501 O 0.8274 0.63239 1.0181 0.0
O502 O 0.85253 0.67851 1.02876 0.0
C503 C 0.88394 0.5752 0.10824 0.0
C504 C 0.90629 0.62129 0.40237 0.0
C505 C 0.89076 0.6323 0.5307 0.0
C506 C 0.86625 0.62385 0.48436 0.0
C507 C 0.87388 0.61861 0.42071 0.0
C508 C 0.9307 0.63003 0.44866 0.0
C509 C 0.92301 0.63558 0.51224 0.0
C510 C 0.9153 0.61373 0.33597 0.0
C511 C 0.81914 0.63421 0.21612 0.0
H512 H 0.87855 0.69535 0.81371 0.0
H513 H 0.86452 0.70198 0.9248 0.0
H514 H 0.82303 0.60543 0.90469 0.0
H515 H 0.83688 0.59923 0.79327 0.0
H516 H 0.84125 0.62108 0.49759 0.0
H517 H 0.85448 0.61201 0.38604 0.0
H518 H 0.95582 0.63219 0.43568 0.0
H519 H 0.94228 0.64212 0.5472 0.0
Tb520 Tb 0.15801 0.13821 0.97841 0.0
Tb521 Tb 0.12841 0.10834 0.83569 0.0
C522 C 0.13988 0.18439 0.87512 0.0
C523 C 0.174 0.14723 0.15345 0.0
C524 C 0.16284 0.13242 0.2779 0.0
C525 C 0.19386 0.14227 0.2613 0.0
C526 C 0.19935 0.14965 0.19971 0.0
C527 C 0.14309 0.13674 0.16982 0.0
C528 C 0.13756 0.12955 0.2315 0.0
C529 C 0.17995 0.15643 0.08919 0.0
O530 O 0.10585 0.13006 0.99095 0.0
O531 O 0.08565 0.1237 0.88771 0.0
O532 O 0.12289 0.06834 0.89608 0.0
O533 O 0.15788 0.08619 0.97915 0.0
O534 O 0.09742 0.11404 0.75693 0.0
O535 O 0.12966 0.07323 0.75696 0.0
O536 O 0.18069 0.1023 0.83317 0.0
O537 O 0.19718 0.14236 0.90993 0.0
O538 O 0.1413 0.18049 0.93532 0.0
O539 O 0.14082 0.15975 0.83071 0.0
C540 C 0.08145 0.12844 0.94875 0.0
O541 O 0.19417 0.13496 0.05046 0.0
O542 O 0.156 0.17042 0.06092 0.0
C543 C 0.13903 0.06371 0.94932 0.0
C544 C 0.11927 0.09466 0.65902 0.0
C545 C 0.13576 0.10645 0.53538 0.0
C546 C 0.10911 0.08651 0.54514 0.0
C547 C 0.10097 0.08069 0.60633 0.0
C548 C 0.14616 0.11439 0.64943 0.0
C549 C 0.15434 0.1202 0.58811 0.0
C550 C 0.10939 0.08914 0.72332 0.0
C551 C 0.20269 0.12304 0.85796 0.0
H552 H 0.21371 0.14463 0.29627 0.0
H553 H 0.22338 0.15759 0.18835 0.0
H554 H 0.12312 0.13444 0.1351 0.0
H555 H 0.11348 0.12194 0.2432 0.0
H556 H 0.09443 0.07568 0.50532 0.0
H557 H 0.08011 0.06547 0.61255 0.0
H558 H 0.16061 0.12549 0.68936 0.0
H559 H 0.17498 0.13567 0.58178 0.0
Tb560 Tb 0.62322 0.4067 0.72022 0.0
Tb561 Tb 0.64766 0.37507 0.58191 0.0
C562 C 0.57261 0.38509 0.61179 0.0
C563 C 0.61576 0.42318 0.89558 0.0
C564 C 0.62977 0.41287 1.02296 0.0
C565 C 0.61365 0.38895 0.98195 0.0
C566 C 0.60674 0.39399 0.91899 0.0
C567 C 0.63209 0.44706 0.93673 0.0
C568 C 0.63917 0.4419 0.99975 0.0
C569 C 0.60704 0.42943 0.8296 0.0
O570 O 0.63625 0.35573 0.73082 0.0
O571 O 0.63219 0.33363 0.62722 0.0
O572 O 0.68902 0.37029 0.65004 0.0
O573 O 0.67573 0.41176 0.7241 0.0
O574 O 0.63994 0.34435 0.498 0.0
O575 O 0.6826 0.37464 0.51176 0.0
O576 O 0.65507 0.42674 0.58634 0.0
O577 O 0.61451 0.44336 0.65225 0.0
O578 O 0.57973 0.38644 0.67215 0.0
O579 O 0.59534 0.38638 0.56982 0.0
C580 C 0.63375 0.33042 0.68768 0.0
O581 O 0.62928 0.44243 0.79788 0.0
O582 O 0.59124 0.40659 0.7947 0.0
C583 C 0.69675 0.39056 0.70039 0.0
C584 C 0.65941 0.36662 0.40732 0.0
C585 C 0.65057 0.38474 0.28332 0.0
C586 C 0.68002 0.39153 0.31756 0.0
C587 C 0.68445 0.38244 0.3788 0.0
C588 C 0.62976 0.36027 0.37305 0.0
C589 C 0.62541 0.36924 0.31174 0.0
C590 C 0.6649 0.35585 0.47137 0.0
C591 C 0.63336 0.44823 0.60495 0.0
H592 H 0.60622 0.3664 0.99888 0.0
H593 H 0.59405 0.37505 0.88893 0.0
H594 H 0.63914 0.46985 0.92027 0.0
H595 H 0.65168 0.46065 1.03062 0.0
H596 H 0.69975 0.40344 0.29646 0.0
H597 H 0.70764 0.38749 0.40363 0.0
H598 H 0.60995 0.34805 0.39324 0.0
H599 H 0.60251 0.36376 0.28612 0.0
Tb600 Tb 0.36635 0.88195 0.46699 0.0
Tb601 Tb 0.40099 0.89206 0.33419 0.0
C602 C 0.38414 0.82271 0.37508 0.0
C603 C 0.34998 0.87233 0.63647 0.0
C604 C 0.36518 0.86946 0.7655 0.0
C605 C 0.33388 0.86101 0.74062 0.0
C606 C 0.32632 0.86255 0.67654 0.0
C607 C 0.38177 0.8792 0.66076 0.0
C608 C 0.38928 0.87786 0.72492 0.0
C609 C 0.34018 0.87884 0.57188 0.0
O610 O 0.41916 0.8836 0.49224 0.0
O611 O 0.44086 0.87745 0.39323 0.0
O612 O 0.41143 0.93567 0.4008 0.0
O613 O 0.36376 0.93215 0.44886 0.0
O614 O 0.43028 0.87434 0.25975 0.0
O615 O 0.40925 0.92219 0.26271 0.0
O616 O 0.34979 0.90191 0.31586 0.0
O617 O 0.32678 0.87561 0.39335 0.0
O618 O 0.3857 0.83519 0.43394 0.0
O619 O 0.38286 0.84147 0.32848 0.0
C620 C 0.44411 0.87847 0.45481 0.0
O621 O 0.35223 0.90516 0.55327 0.0
O622 O 0.34052 0.85469 0.52765 0.0
C623 C 0.38992 0.94873 0.44001 0.0
C624 C 0.41551 0.89371 0.16247 0.0
C625 C 0.39731 0.88296 1.03364 0.0
C626 C 0.42138 0.90597 0.05451 0.0
C627 C 0.43045 0.91126 0.1185 0.0
C628 C 0.39126 0.87075 0.14171 0.0
C629 C 0.38228 0.86534 0.07755 0.0
C630 C 0.42545 0.89983 0.22958 0.0
C631 C 0.32458 0.88845 0.33905 0.0
H632 H 0.31502 0.85444 0.77129 0.0
H633 H 0.30165 0.8573 0.65874 0.0
H634 H 0.40041 0.88685 0.63068 0.0
H635 H 0.41356 0.88443 0.74335 0.0
H636 H 0.43309 0.91985 1.02121 0.0
H637 H 0.44911 0.92913 0.13371 0.0
H638 H 0.3793 0.8571 0.17507 0.0
H639 H 0.36354 0.84761 0.06216 0.0
C640 C 0.1256 0.67077 0.7061 0.0
C641 C 0.14544 0.64783 0.73438 0.0
C642 C 0.15335 0.61807 0.63051 0.0
C643 C 0.13105 0.63918 0.60317 0.0
N644 N 0.09287 0.68339 0.61484 0.0
N645 N 0.17439 0.59697 0.72567 0.0
C646 C 0.11635 0.66499 0.64094 0.0
C647 C 0.15838 0.62078 0.69712 0.0
N648 N 0.11634 0.69849 0.74124 0.0
N649 N 0.1702 0.59582 0.59259 0.0
H650 H 0.1786 0.59797 0.77432 0.0
H651 H 0.18118 0.57494 0.70188 0.0
H652 H 0.16679 0.5928 0.54366 0.0
H653 H 0.18945 0.58222 0.6089 0.0
H654 H 0.10482 0.7178 0.72215 0.0
H655 H 0.1225 0.70335 0.78913 0.0
H656 H 0.07855 0.70012 0.64109 0.0
H657 H 0.08603 0.68034 0.56705 0.0
C658 C 0.66903 0.88362 0.95105 0.0
C659 C 0.63578 0.88398 0.96711 0.0
C660 C 0.61926 0.87565 0.85485 0.0
C661 C 0.65236 0.87824 0.83868 0.0
N662 N 0.70841 0.88973 0.87086 0.0
N663 N 0.57895 0.88523 0.93507 0.0
C664 C 0.6772 0.88355 0.88669 0.0
C665 C 0.61078 0.88136 0.91918 0.0
N666 N 0.69282 0.88258 0.99727 0.0
N667 N 0.59605 0.86657 0.80892 0.0
H668 H 0.57174 0.88888 0.98166 0.0
H669 H 0.55992 0.88738 0.90222 0.0
H670 H 0.60127 0.86204 0.76134 0.0
H671 H 0.57215 0.86084 0.81837 0.0
H672 H 0.71732 0.87866 0.98812 0.0
H673 H 0.68776 0.88296 0.04492 0.0
H674 H 0.72691 0.89718 0.90375 0.0
H675 H 0.71529 0.89011 0.82434 0.0
C676 C 0.3572 0.4293 0.20893 0.0
C677 C 0.35919 0.39714 0.22652 0.0
C678 C 0.37683 0.37784 0.11993 0.0
C679 C 0.37304 0.40963 0.10132 0.0
N680 N 0.35501 0.46471 0.12474 0.0
N681 N 0.36521 0.33991 0.19593 0.0
C682 C 0.36191 0.43511 0.14496 0.0
C683 C 0.36741 0.37116 0.18112 0.0
N684 N 0.35179 0.45445 0.25391 0.0
N685 N 0.39048 0.35421 0.07976 0.0
H686 H 0.35847 0.33406 0.24009 0.0
H687 H 0.36731 0.3197 0.16311 0.0
H688 H 0.39724 0.35798 0.0344 0.0
H689 H 0.39745 0.33162 0.09287 0.0
H690 H 0.3539 0.47877 0.24631 0.0
H691 H 0.3473 0.45102 0.30053 0.0
H692 H 0.34355 0.48334 0.15199 0.0
H693 H 0.35849 0.46991 0.07861 0.0
C694 C 0.88614 0.08972 0.42393 0.0
C695 C 0.88276 0.11436 0.47473 0.0
C696 C 0.86591 0.15281 0.39926 0.0
C697 C 0.87242 0.12913 0.34832 0.0
N698 N 0.89364 0.07654 0.31188 0.0
N699 N 0.87481 0.17086 0.51027 0.0
C700 C 0.8839 0.09796 0.3606 0.0
C701 C 0.87409 0.14634 0.46223 0.0
N702 N 0.89038 0.05821 0.43612 0.0
N703 N 0.85084 0.18113 0.38766 0.0
H704 H 0.88087 0.16722 0.5569 0.0
H705 H 0.87223 0.19524 0.50317 0.0
H706 H 0.84435 0.18674 0.34234 0.0
H707 H 0.84215 0.19774 0.42306 0.0
H708 H 0.88949 0.03869 0.40124 0.0
H709 H 0.89192 0.05118 0.4817 0.0
H710 H 0.90551 0.05485 0.3183 0.0
H711 H 0.8924 0.08167 0.265 0.0
C712 C 0.16748 0.40163 0.39548 0.0
C713 C 0.14763 0.38057 0.35352 0.0
C714 C 0.11531 0.36716 0.44236 0.0
C715 C 0.13333 0.39034 0.48335 0.0
N716 N 0.17349 0.43315 0.49759 0.0
N717 N 0.0999 0.34667 0.33472 0.0
C718 C 0.15865 0.40851 0.45954 0.0
C719 C 0.12076 0.36427 0.37638 0.0
N720 N 0.19529 0.41439 0.37444 0.0
N721 N 0.09373 0.34712 0.46687 0.0
H722 H 0.10334 0.34363 0.28627 0.0
H723 H 0.07786 0.33724 0.34736 0.0
H724 H 0.08913 0.34847 0.51483 0.0
H725 H 0.08244 0.32739 0.44072 0.0
H726 H 0.21278 0.42686 0.40407 0.0
H727 H 0.20223 0.41036 0.32773 0.0
H728 H 0.18953 0.44962 0.48136 0.0
H729 H 0.16782 0.43885 0.54469 0.0
C730 C 0.83622 0.90762 0.67511 0.0
C731 C 0.86281 0.89802 0.71349 0.0
C732 C 0.90014 0.9031 0.62682 0.0
C733 C 0.87351 0.91231 0.58815 0.0
N734 N 0.8171 0.92698 0.57618 0.0
N735 N 0.91926 0.88334 0.72523 0.0
C736 C 0.84173 0.91542 0.61249 0.0
C737 C 0.89462 0.89512 0.68924 0.0
N738 N 0.80555 0.90844 0.69834 0.0
N739 N 0.9309 0.90268 0.60401 0.0
H740 H 0.91631 0.87789 0.77135 0.0
H741 H 0.94223 0.87716 0.70897 0.0
H742 H 0.93569 0.90684 0.55783 0.0
H743 H 0.95204 0.89988 0.63113 0.0
H744 H 0.78437 0.91182 0.67175 0.0
H745 H 0.8009 0.90431 0.74461 0.0
H746 H 0.79397 0.93283 0.59195 0.0
H747 H 0.82021 0.93249 0.53014 0.0
C748 C 0.35757 0.59519 0.88329 0.0
C749 C 0.36595 0.62643 0.86689 0.0
C750 C 0.38583 0.64202 0.97586 0.0
C751 C 0.37522 0.61166 0.9934 0.0
N752 N 0.34639 0.56124 0.96642 0.0
N753 N 0.38274 0.68151 0.89936 0.0
C754 C 0.35979 0.58875 0.94776 0.0
C755 C 0.37855 0.65041 0.91377 0.0
N756 N 0.3484 0.57136 0.83696 0.0
N757 N 0.40403 0.66236 1.01783 0.0
H758 H 0.37793 0.68855 0.8544 0.0
H759 H 0.38831 0.70091 0.93299 0.0
H760 H 0.40995 0.65717 0.06365 0.0
H761 H 0.41561 0.68309 1.00574 0.0
H762 H 0.34562 0.54712 0.84464 0.0
H763 H 0.34592 0.57534 0.78955 0.0
H764 H 0.33184 0.5452 0.93691 0.0
H765 H 0.34753 0.55575 1.01309 0.0
C766 C 0.65776 0.13499 0.11404 0.0
C767 C 0.62709 0.12161 0.09233 0.0
C768 C 0.61139 0.11911 0.20175 0.0
C769 C 0.64314 0.12965 0.22316 0.0
N770 N 0.69843 0.14232 0.19948 0.0
N771 N 0.57669 0.09585 0.11441 0.0
C772 C 0.66688 0.13615 0.17921 0.0
C773 C 0.60442 0.11225 0.13591 0.0
N774 N 0.6778 0.14746 0.07262 0.0
N775 N 0.58757 0.11672 0.24424 0.0
H776 H 0.57066 0.09047 0.06659 0.0
H777 H 0.56104 0.08519 0.14374 0.0
H778 H 0.59167 0.12161 0.2928 0.0
H779 H 0.56313 0.1126 0.23124 0.0
H780 H 0.69883 0.1607 0.08657 0.0
H781 H 0.67197 0.14706 1.02456 0.0
H782 H 0.71754 0.14378 0.16906 0.0
H783 H 0.70612 0.14315 0.24673 0.0
C784 C 0.84287 0.39799 0.38539 0.0
C785 C 0.86729 0.38788 0.34217 0.0
C786 C 0.90774 0.38779 0.42965 0.0
C787 C 0.88272 0.39504 0.47306 0.0
N788 N 0.82577 0.40274 0.49368 0.0
N789 N 0.92171 0.36818 0.32303 0.0
C790 C 0.85005 0.39894 0.45131 0.0
C791 C 0.89945 0.38149 0.36425 0.0
N792 N 0.81314 0.40763 0.36336 0.0
N793 N 0.93955 0.38762 0.45088 0.0
H794 H 0.9166 0.36315 0.2748 0.0
H795 H 0.94436 0.35962 0.33714 0.0
H796 H 0.94653 0.39151 0.49854 0.0
H797 H 0.95918 0.3862 0.42114 0.0
H798 H 0.79544 0.41843 0.39227 0.0
H799 H 0.80705 0.40737 0.31542 0.0
H800 H 0.80108 0.40201 0.48071 0.0
H801 H 0.83018 0.40412 0.54233 0.0
C802 C 0.37328 0.16489 0.18936 0.0
C803 C 0.36379 0.13731 0.21884 0.0
C804 C 0.36757 0.10327 0.11792 0.0
C805 C 0.37982 0.13025 0.08988 0.0
N806 N 0.3982 0.18582 0.10011 0.0
N807 N 0.35527 0.07958 0.21401 0.0
C808 C 0.38363 0.16086 0.12592 0.0
C809 C 0.36181 0.10629 0.18382 0.0
N810 N 0.37171 0.19506 0.22169 0.0
N811 N 0.36063 0.07498 0.08106 0.0
H812 H 0.35019 0.08096 0.26177 0.0
H813 H 0.35711 0.05587 0.19309 0.0
H814 H 0.36479 0.07183 1.03287 0.0
H815 H 0.34841 0.05552 0.09686 0.0
H816 H 0.37469 0.21649 0.20097 0.0
H817 H 0.36493 0.19888 0.26853 0.0
H818 H 0.40514 0.20758 0.12582 0.0
H819 H 0.40561 0.18398 0.05362 0.0
C820 C 0.63707 0.63343 0.95794 0.0
C821 C 0.64467 0.60241 0.9773 0.0
C822 C 0.66198 0.58425 0.87007 0.0
C823 C 0.6567 0.61601 0.85218 0.0
N824 N 0.64513 0.67239 0.88236 0.0
N825 N 0.66917 0.54982 0.95506 0.0
C826 C 0.64592 0.64105 0.89712 0.0
C827 C 0.65848 0.57822 0.9342 0.0
N828 N 0.62021 0.65525 0.99674 0.0
N829 N 0.66936 0.55959 0.82533 0.0
H830 H 0.66705 0.54458 1.00154 0.0
H831 H 0.68253 0.53258 0.92792 0.0
H832 H 0.67274 0.56318 0.77835 0.0
H833 H 0.66973 0.53526 0.83356 0.0
H834 H 0.61072 0.67677 0.98261 0.0
H835 H 0.61315 0.65064 0.04147 0.0
H836 H 0.641 0.69219 0.91522 0.0
H837 H 0.65151 0.67898 0.83851 0.0
C838 C 0.15904 0.92537 0.62632 0.0
C839 C 0.13976 0.90482 0.5823 0.0
C840 C 0.13084 0.86797 0.66352 0.0
C841 C 0.1479 0.88984 0.70872 0.0
N842 N 0.1747 0.94131 0.73599 0.0
N843 N 0.10308 0.85927 0.56089 0.0
C844 C 0.16101 0.91913 0.69088 0.0
C845 C 0.12456 0.87679 0.6014 0.0
N846 N 0.17632 0.95026 0.60592 0.0
N847 N 0.12125 0.83841 0.67965 0.0
H848 H 0.09787 0.86486 0.51505 0.0
H849 H 0.08842 0.84081 0.57412 0.0
H850 H 0.12464 0.83141 0.72502 0.0
H851 H 0.11216 0.81986 0.64716 0.0
H852 H 0.19351 0.96403 0.63396 0.0
H853 H 0.17542 0.95556 0.55914 0.0
H854 H 0.18139 0.96467 0.72755 0.0
H855 H 0.17721 0.93724 0.78337 0.0
C856 C 0.85179 0.66282 0.68596 0.0
C857 C 0.86755 0.64299 0.72771 0.0
C858 C 0.89666 0.61519 0.63963 0.0
C859 C 0.88286 0.63672 0.59884 0.0
N860 N 0.85198 0.68508 0.58484 0.0
N861 N 0.90955 0.60432 0.74757 0.0
C862 C 0.86154 0.66171 0.62232 0.0
C863 C 0.89129 0.62011 0.70553 0.0
N864 N 0.82682 0.68173 0.70854 0.0
N865 N 0.91392 0.58954 0.61318 0.0
H866 H 0.90645 0.60781 0.7961 0.0
H867 H 0.92971 0.59015 0.73527 0.0
H868 H 0.9231 0.57077 0.63757 0.0
H869 H 0.9231 0.57077 0.63757 0.0
H870 H 0.8118 0.69546 0.68121 0.0
H871 H 0.8118 0.69546 0.68121 0.0
H872 H 0.83938 0.7059 0.60107 0.0
H873 H 0.85938 0.68528 0.53861 0.0
C874 C 0.15833 0.0891 0.42818 0.0
C875 C 0.14364 0.1134 0.46985 0.0
C876 C 0.14449 0.15102 0.38756 0.0
C877 C 0.15659 0.12588 0.34431 0.0
N878 N 0.17145 0.06986 0.32053 0.0
N879 N 0.11836 0.16592 0.48669 0.0
C880 C 0.16252 0.09458 0.36388 0.0
C881 C 0.13563 0.14399 0.44887 0.0
N882 N 0.16919 0.06115 0.45067 0.0
N883 N 0.14207 0.18185 0.37038 0.0
H884 H 0.11153 0.16179 0.53183 0.0
H885 H 0.1085 0.18709 0.4717 0.0
H886 H 0.14752 0.18777 0.32554 0.0
H887 H 0.13709 0.20201 0.40176 0.0
H888 H 0.18316 0.04391 0.4249 0.0
H889 H 0.1665 0.05631 0.49724 0.0
H890 H 0.17255 0.04567 0.32968 0.0
H891 H 0.17554 0.07315 0.27362 0.0
C892 C 0.62534 0.41883 0.20291 0.0
C893 C 0.64628 0.39303 0.21694 0.0
C894 C 0.6601 0.38395 0.10532 0.0
C895 C 0.63653 0.40729 0.09032 0.0
N896 N 0.59341 0.44402 0.1235 0.0
N897 N 0.67985 0.34767 0.18031 0.0
C898 C 0.61834 0.42407 0.13883 0.0
C899 C 0.66274 0.37472 0.1678 0.0
N900 N 0.61271 0.43878 0.25096 0.0
N901 N 0.6806 0.37121 0.06013 0.0
H902 H 0.68228 0.33998 0.22527 0.0
H903 H 0.68928 0.33127 0.14536 0.0
H904 H 0.67952 0.37753 1.01401 0.0
H905 H 0.70053 0.35673 0.06964 0.0
H906 H 0.60043 0.46022 0.24427 0.0
H907 H 0.61678 0.43531 0.29829 0.0
H908 H 0.57692 0.45409 0.15591 0.0
H909 H 0.58747 0.44851 0.07729 0.0
C910 C 0.36483 0.89951 0.94057 0.0
C911 C 0.38749 0.87798 0.96562 0.0
C912 C 0.39215 0.8482 0.86078 0.0
C913 C 0.37217 0.87177 0.83475 0.0
N914 N 0.34325 0.92262 0.84799 0.0
N915 N 0.42562 0.83392 0.9498 0.0
C916 C 0.35938 0.89812 0.87419 0.0
C917 C 0.40191 0.8528 0.92579 0.0
N918 N 0.34811 0.92095 0.98043 0.0
N919 N 0.40104 0.821 0.82364 0.0
H920 H 0.43279 0.83606 0.99744 0.0
H921 H 0.43976 0.81768 0.92203 0.0
H922 H 0.39436 0.81692 0.77586 0.0
H923 H 0.41272 0.8013 0.84102 0.0
H924 H 0.32865 0.93476 0.96566 0.0
H925 H 0.35183 0.92299 1.0293 0.0
H926 H 0.33658 0.94419 0.87361 0.0
H927 H 0.33887 0.9227 0.79957 0.0
C928 C 0.16463 0.74591 0.17758 0.0
C929 C 0.13959 0.73197 0.21016 0.0
C930 C 0.11821 0.78688 0.23996 0.0
C931 C 0.13989 0.79983 0.19809 0.0
N932 N 0.18198 0.7899 0.12136 0.0
N933 N 0.09143 0.73876 0.27104 0.0
C934 C 0.16272 0.77888 0.16572 0.0
C935 C 0.11638 0.7524 0.24212 0.0
N936 N 0.1907 0.72752 0.15804 0.0
N937 N 0.09874 0.80732 0.27624 0.0
H938 H 0.08984 0.71388 0.27431 0.0
H939 H 0.07144 0.75172 0.28863 0.0
H940 H 0.09815 0.83228 0.27353 0.0
H941 H 0.08484 0.7999 0.31207 0.0
H942 H 0.21169 0.73716 0.14104 0.0
H943 H 0.19277 0.70312 0.16481 0.0
H944 H 0.1951 0.77456 0.08979 0.0
H945 H 0.1836 0.81406 0.11293 0.0
C946 C 0.5279 0.84525 0.43993 0.0
C947 C 0.54637 0.87084 0.47318 0.0
C948 C 0.49631 0.89331 0.52076 0.0
C949 C 0.47774 0.87092 0.47906 0.0
N950 N 0.47562 0.8177 0.42332 0.0
N951 N 0.55039 0.91166 0.56132 0.0
C952 C 0.49365 0.84416 0.44686 0.0
C953 C 0.53125 0.89235 0.51941 0.0
N954 N 0.54302 0.82264 0.4 0.0
N955 N 0.48062 0.91567 0.56016 0.0
H956 H 0.57578 0.91066 0.56103 0.0
H957 H 0.54159 0.92705 0.59842 0.0
H958 H 0.45543 0.91544 0.56433 0.0
H959 H 0.49225 0.93429 0.58879 0.0
H960 H 0.53068 0.80585 0.3681 0.0
H961 H 0.56826 0.82132 0.39791 0.0
H962 H 0.48561 0.79614 0.40325 0.0
H963 H 0.45064 0.81635 0.43024 0.0
C964 C 0.34534 0.28153 0.70058 0.0
C965 C 0.37427 0.29987 0.71438 0.0
C966 C 0.40263 0.24983 0.73799 0.0
C967 C 0.37544 0.23122 0.71208 0.0
N968 N 0.32203 0.22993 0.66014 0.0
N969 N 0.43148 0.30138 0.74443 0.0
C970 C 0.34697 0.24722 0.69165 0.0
C971 C 0.40313 0.28412 0.73391 0.0
N972 N 0.31609 0.29695 0.69641 0.0
N973 N 0.42829 0.23461 0.76474 0.0
H974 H 0.43277 0.32636 0.74228 0.0
H975 H 0.45411 0.29072 0.75123 0.0
H976 H 0.42881 0.20957 0.76684 0.0
H977 H 0.44766 0.24694 0.78925 0.0
H978 H 0.2938 0.28476 0.69253 0.0
H979 H 0.31401 0.32203 0.7043 0.0
H980 H 0.30261 0.24076 0.63762 0.0
H981 H 0.32194 0.20476 0.65186 0.0
C982 C 0.99535 0.16283 0.95415 0.0
C983 C 0.97812 0.13508 0.9691 0.0
C984 C 0.03026 0.10996 0.99737 0.0
C985 C 0.04718 0.1341 0.9689 0.0
N986 N 0.04682 0.18578 0.92683 0.0
N987 N 0.97878 0.08258 1.0083 0.0
C988 C 0.02996 0.16145 0.95001 0.0
C989 C 0.9955 0.1089 0.99248 0.0
N990 N 0.97862 0.19041 0.94384 0.0
N991 N 0.04735 0.08845 1.02988 0.0
H992 H 0.9534 0.08194 1.00913 0.0
H993 H 0.98994 0.06097 1.0179 0.0
H994 H 0.07268 0.08912 0.035 0.0
H995 H 0.03643 0.07209 0.05665 0.0
H996 H 0.98973 0.21242 0.93804 0.0
H997 H 0.95339 0.19214 0.94643 0.0
H998 H 0.0359 0.20442 0.90458 0.0
H999 H 0.07223 0.18676 0.92849 0.0
C1000 C 0.16814 0.27024 0.8552 0.0
C1001 C 0.13806 0.28619 0.84702 0.0
C1002 C 0.11153 0.23238 0.83272 0.0
C1003 C 0.14014 0.21844 0.85801 0.0
N1004 N 0.19485 0.22695 0.90317 0.0
N1005 N 0.07998 0.28131 0.82372 0.0
C1006 C 0.16832 0.23808 0.87167 0.0
C1007 C 0.10939 0.26695 0.83321 0.0
N1008 N 0.19664 0.28612 0.84773 0.0
N1009 N 0.08628 0.21276 0.80942 0.0
H1010 H 0.07725 0.30595 0.81977 0.0
H1011 H 0.0579 0.26884 0.82224 0.0
H1012 H 0.08679 0.18763 0.80995 0.0
H1013 H 0.06607 0.22108 0.78503 0.0
H1014 H 0.21931 0.27481 0.84906 0.0
H1015 H 0.19691 0.30932 0.83267 0.0
H1016 H 0.21452 0.24184 0.91917 0.0
H1017 H 0.19616 0.20379 0.9178 0.0
C1018 C 0.02363 0.92303 0.12385 0.0
C1019 C 0.04049 0.89565 0.0953 0.0
C1020 C 0.98755 0.86942 0.0639 0.0
C1021 C 0.97115 0.89671 0.09403 0.0
N1022 N 0.97365 0.95376 0.12848 0.0
N1023 N 0.03865 0.84581 1.02654 0.0
C1024 C 0.9893 0.92486 0.11609 0.0
C1025 C 0.02244 0.86996 0.06085 0.0
N1026 N 0.04005 0.94694 0.16096 0.0
N1027 N 0.97008 0.84248 0.04103 0.0
H1028 H 0.064 0.84504 1.02519 0.0
H1029 H 0.02712 0.82793 0.99578 0.0
H1030 H 0.94472 0.84181 0.03968 0.0
H1031 H 0.98061 0.82034 1.02578 0.0
H1032 H 0.02842 0.96501 0.18946 0.0
H1033 H 0.06523 0.94757 0.16702 0.0
H1034 H 0.98581 0.97585 0.1387 0.0
H1035 H 0.94864 0.95612 0.12075 0.0
C1036 C 0.35454 0.74005 0.40692 0.0
C1037 C 0.37815 0.71893 0.37733 0.0
C1038 C 0.40312 0.76605 0.33461 0.0
C1039 C 0.37937 0.78673 0.36433 0.0
N1040 N 0.32723 0.79182 0.41251 0.0
N1041 N 0.42184 0.71102 0.30462 0.0
C1042 C 0.35344 0.77309 0.39507 0.0
C1043 C 0.40119 0.73164 0.33773 0.0
N1044 N 0.33366 0.72908 0.44865 0.0
N1045 N 0.42862 0.77947 0.30685 0.0
H1046 H 0.42259 0.68619 0.30868 0.0
H1047 H 0.43685 0.71809 0.27012 0.0
H1048 H 0.43031 0.80426 0.30271 0.0
H1049 H 0.44897 0.76651 0.29107 0.0
H1050 H 0.31983 0.74442 0.47891 0.0
H1051 H 0.33122 0.70487 0.45621 0.0
H1052 H 0.30565 0.78247 0.42767 0.0
H1053 H 0.3257 0.81628 0.40585 0.0
C1054 C 0.52444 0.17072 0.6071 0.0
C1055 C 0.54038 0.14159 0.58534 0.0
C1056 C 0.48746 0.1173 0.5493 0.0
C1057 C 0.47157 0.14323 0.58426 0.0
N1058 N 0.47378 0.19696 0.63888 0.0
N1059 N 0.538 0.08787 0.5308 0.0
C1060 C 0.48978 0.17095 0.60988 0.0
C1061 C 0.52214 0.1153 0.55382 0.0
N1062 N 0.54257 0.19784 0.62596 0.0
N1063 N 0.46947 0.09465 0.51216 0.0
H1064 H 0.56337 0.0866 0.53009 0.0
H1065 H 0.52623 0.0662 0.5147 0.0
H1066 H 0.44413 0.09554 0.50818 0.0
H1067 H 0.47964 0.07665 0.48126 0.0
H1068 H 0.53266 0.22065 0.63803 0.0
H1069 H 0.56792 0.19808 0.62446 0.0
H1070 H 0.4853 0.2164 0.66546 0.0
H1071 H 0.44841 0.19863 0.63734 0.0
C1072 C 0.90731 0.23727 0.83544 0.0
C1073 C 0.87898 0.22013 0.85055 0.0
C1074 C 0.84886 0.27119 0.8638 0.0
C1075 C 0.87691 0.28866 0.84912 0.0
N1076 N 0.93002 0.28745 0.80484 0.0
N1077 N 0.82039 0.21982 0.85024 0.0
C1078 C 0.9051 0.2713 0.82884 0.0
C1079 C 0.84896 0.23686 0.85499 0.0
N1080 N 0.93665 0.22186 0.83114 0.0
N1081 N 0.82264 0.28706 0.88967 0.0
H1082 H 0.81985 0.19466 0.84022 0.0
H1083 H 0.79761 0.23084 0.84829 0.0
H1084 H 0.82147 0.31217 0.89845 0.0
H1085 H 0.8032 0.27503 0.90733 0.0
H1086 H 0.95869 0.23401 0.82862 0.0
H1087 H 0.93941 0.19708 0.83358 0.0
H1088 H 0.95002 0.27584 0.78403 0.0
H1089 H 0.92927 0.31232 0.80088 0.0
C1090 C 0.64311 0.7614 0.31234 0.0
C1091 C 0.63351 0.78194 0.36589 0.0
C1092 C 0.61964 0.73397 0.41859 0.0
C1093 C 0.63412 0.71353 0.36987 0.0
N1094 N 0.66057 0.70758 0.27016 0.0
N1095 N 0.61504 0.78742 0.47276 0.0
C1096 C 0.64561 0.72708 0.31597 0.0
C1097 C 0.62218 0.76807 0.4194 0.0
N1098 N 0.65026 0.77478 0.25852 0.0
N1099 N 0.60287 0.72081 0.4642 0.0
H1100 H 0.61462 0.81245 0.47482 0.0
H1101 H 0.61169 0.77875 0.51623 0.0
H1102 H 0.60105 0.69597 0.46734 0.0
H1103 H 0.58807 0.73435 0.49564 0.0
H1104 H 0.6546 0.76122 0.21586 0.0
H1105 H 0.64942 0.79973 0.25535 0.0
H1106 H 0.67276 0.71628 0.23335 0.0
H1107 H 0.66274 0.68258 0.27106 0.0
C1108 C 0.86885 0.75558 0.2555 0.0
C1109 C 0.88372 0.7357 0.20629 0.0
C1110 C 0.90478 0.78444 0.16591 0.0
C1111 C 0.88433 0.80415 0.2054 0.0
N1112 N 0.84683 0.80872 0.29044 0.0
N1113 N 0.9098 0.73276 0.10581 0.0
C1114 C 0.86668 0.78993 0.25192 0.0
C1115 C 0.90029 0.75051 0.15934 0.0
N1116 N 0.85646 0.74158 0.3048 0.0
N1117 N 0.92865 0.79827 0.1345 0.0
H1118 H 0.90529 0.7081 0.09681 0.0
H1119 H 0.91909 0.74324 0.06773 0.0
H1120 H 0.93343 0.82315 0.14115 0.0
H1121 H 0.94591 0.78467 0.10866 0.0
H1122 H 0.84764 0.75478 0.34476 0.0
H1123 H 0.85748 0.71661 0.3078 0.0
H1124 H 0.8306 0.79931 0.32034 0.0
H1125 H 0.84518 0.83377 0.28994 0.0
C1126 C 0.66589 0.24538 0.70497 0.0
C1127 C 0.63744 0.22891 0.72069 0.0
C1128 C 0.61023 0.2823 0.73588 0.0
C1129 C 0.63621 0.29655 0.70579 0.0
N1130 N 0.68624 0.28797 0.6491 0.0
N1131 N 0.5811 0.23291 0.75117 0.0
C1132 C 0.66338 0.27716 0.68711 0.0
C1133 C 0.60931 0.24773 0.73756 0.0
N1134 N 0.6955 0.23036 0.70527 0.0
N1135 N 0.58593 0.30152 0.7609 0.0
H1136 H 0.57917 0.20826 0.75548 0.0
H1137 H 0.55888 0.24492 0.75501 0.0
H1138 H 0.58507 0.32646 0.75776 0.0
H1139 H 0.56811 0.29319 0.78891 0.0
H1140 H 0.7173 0.24259 0.70016 0.0
H1141 H 0.69856 0.2067 0.7166 0.0
H1142 H 0.70417 0.27294 0.62861 0.0
H1143 H 0.68604 0.31094 0.63371 0.0
C1144 C 0.99031 0.34677 0.95715 0.0
C1145 C 0.97362 0.37467 0.98371 0.0
C1146 C 0.02596 0.40182 1.01159 0.0
C1147 C 0.0425 0.37536 0.97916 0.0
N1148 N 0.04186 0.31888 0.93942 0.0
N1149 N 0.97612 0.42126 0.06049 0.0
C1150 C 0.0251 0.34643 0.95838 0.0
C1151 C 0.99163 0.39983 1.019 0.0
N1152 N 0.97259 0.32099 0.9292 0.0
N1153 N 0.04285 0.4293 1.03343 0.0
H1154 H 0.95126 0.41961 0.06793 0.0
H1155 H 0.98837 0.4384 0.09186 0.0
H1156 H 0.06814 0.43091 1.03174 0.0
H1157 H 0.03163 0.45083 0.05043 0.0
H1158 H 0.98255 0.30138 0.90208 0.0
H1159 H 0.94733 0.31969 0.93254 0.0
H1160 H 0.03097 0.29625 0.92843 0.0
H1161 H 0.06723 0.31808 0.93979 0.0
C1162 C 0.49394 0.65767 0.46133 0.0
C1163 C 0.47686 0.63186 0.48418 0.0
C1164 C 0.52929 0.60487 0.5032 0.0
C1165 C 0.54542 0.62787 0.46985 0.0
N1166 N 0.54144 0.67374 0.40843 0.0
N1167 N 0.47788 0.57993 0.5255 0.0
C1168 C 0.52737 0.65385 0.44716 0.0
C1169 C 0.49449 0.60549 0.50617 0.0
N1170 N 0.47783 0.68576 0.45223 0.0
N1171 N 0.54709 0.5817 0.52989 0.0
H1172 H 0.45266 0.57987 0.52909 0.0
H1173 H 0.48875 0.55815 0.53479 0.0
H1174 H 0.57209 0.57929 0.52465 0.0
H1175 H 0.53753 0.5663 0.56027 0.0
H1176 H 0.48945 0.70663 0.44086 0.0
H1177 H 0.45334 0.68914 0.46277 0.0
H1178 H 0.52845 0.6908 0.38513 0.0
H1179 H 0.56545 0.67122 0.39464 0.0
C1180 C 0.48499 0.35542 0.60806 0.0
C1181 C 0.4685 0.38495 0.60102 0.0
C1182 C 0.52016 0.40999 0.57529 0.0
C1183 C 0.53724 0.38236 0.59311 0.0
N1184 N 0.53659 0.32778 0.62221 0.0
N1185 N 0.46916 0.43998 0.57459 0.0
C1186 C 0.51972 0.35456 0.60723 0.0
C1187 C 0.48567 0.41194 0.58227 0.0
N1188 N 0.46721 0.32824 0.61535 0.0
N1189 N 0.53707 0.43459 0.55308 0.0
H1190 H 0.44391 0.44161 0.5769 0.0
H1191 H 0.48025 0.46191 0.56819 0.0
H1192 H 0.56226 0.43407 0.54885 0.0
H1193 H 0.5262 0.45433 0.5344 0.0
H1194 H 0.47713 0.30518 0.61622 0.0
H1195 H 0.44179 0.32834 0.61549 0.0
H1196 H 0.52609 0.30812 0.64068 0.0
H1197 H 0.56175 0.32567 0.61775 0.0
C1198 C 0.02466 0.67053 0.10805 0.0
C1199 C 0.04106 0.64093 0.09192 0.0
C1200 C 0.98798 0.61438 0.06641 0.0
C1201 C 0.97203 0.64192 0.09582 0.0
N1202 N 0.97592 0.69574 0.15048 0.0
N1203 N 0.03803 0.58351 0.05996 0.0
C1204 C 0.99047 0.6702 0.11703 0.0
C1205 C 0.02266 0.61262 0.07076 0.0
N1206 N 0.04214 0.69875 0.11704 0.0
N1207 N 0.96987 0.58966 0.03563 0.0
H1208 H 0.06319 0.58135 0.06455 0.0
H1209 H 0.02574 0.56142 0.05136 0.0
H1210 H 0.94449 0.59069 1.03171 0.0
H1211 H 0.98003 0.56992 1.00912 0.0
H1212 H 0.0314 0.72155 0.12421 0.0
H1213 H 0.06723 0.69934 0.11081 0.0
H1214 H 0.98872 0.71561 0.17291 0.0
H1215 H 0.95132 0.69572 0.16043 0.0
C1216 C 0.11862 0.53474 1.0248 0.0
C1217 C 0.13119 0.53824 0.08832 0.0
C1218 C 0.15223 0.48282 0.0712 0.0
C1219 C 0.13447 0.47751 1.01237 0.0
N1220 N 0.09449 0.49796 0.94068 0.0
N1221 N 0.15682 0.51335 0.17439 0.0
C1222 C 0.1158 0.50331 0.99124 0.0
C1223 C 0.14666 0.5114 0.11248 0.0
N1224 N 0.111 0.56138 0.9948 0.0
N1225 N 0.17637 0.46189 0.08557 0.0
H1226 H 0.15365 0.53414 0.20552 0.0
H1227 H 0.16563 0.49341 0.19576 0.0
H1228 H 0.18398 0.44319 0.05306 0.0
H1229 H 0.19169 0.46577 0.1256 0.0
H1230 H 0.10476 0.56008 0.9468 0.0
H1231 H 0.11417 0.58482 1.01631 0.0
H1232 H 0.07829 0.51565 0.9275 0.0
H1233 H 0.09051 0.47515 0.91625 0.0
C1234 C 0.744 0.91441 0.30603 0.0
C1235 C 0.72937 0.88404 0.31304 0.0
C1236 C 0.76888 0.85767 0.23898 0.0
C1237 C 0.78131 0.88863 0.22763 0.0
N1238 N 0.77324 0.94653 0.23764 0.0
N1239 N 0.72552 0.82673 0.27996 0.0
C1240 C 0.76661 0.91698 0.25754 0.0
C1241 C 0.741 0.85572 0.2772 0.0
N1242 N 0.73674 0.94093 0.34625 0.0
N1243 N 0.78451 0.83002 0.21635 0.0
H1244 H 0.70718 0.82362 0.31142 0.0
H1245 H 0.72972 0.8062 0.24892 0.0
H1246 H 0.8048 0.8299 0.18854 0.0
H1247 H 0.779 0.80715 0.22936 0.0
H1248 H 0.74881 0.96309 0.34701 0.0
H1249 H 0.72149 0.93959 0.38373 0.0
H1250 H 0.76105 0.9677 0.25353 0.0
H1251 H 0.78805 0.94921 0.19972 0.0
C1252 C 0.38318 0.47832 0.51933 0.0
C1253 C 0.38253 0.48284 0.58663 0.0
C1254 C 0.38919 0.54157 0.58106 0.0
C1255 C 0.38498 0.53738 0.51386 0.0
N1256 N 0.37283 0.50115 0.42038 0.0
N1257 N 0.38022 0.52009 0.68073 0.0
C1258 C 0.38091 0.50556 0.48333 0.0
C1259 C 0.38458 0.51482 0.61729 0.0
N1260 N 0.38692 0.44793 0.48928 0.0
N1261 N 0.39839 0.57108 0.61071 0.0
H1262 H 0.37623 0.50146 0.7089 0.0
H1263 H 0.37757 0.54312 0.7045 0.0
H1264 H 0.40208 0.5913 0.58676 0.0
H1265 H 0.40562 0.57465 0.6582 0.0
H1266 H 0.39163 0.44364 0.4415 0.0
H1267 H 0.38876 0.42729 0.51299 0.0
H1268 H 0.36548 0.47883 0.39745 0.0
H1269 H 0.37049 0.52015 0.39214 0.0
C1270 C 0.76165 0.14908 0.85001 0.0
C1271 C 0.78505 0.12489 0.83251 0.0
C1272 C 0.74718 0.10153 0.74672 0.0
C1273 C 0.72554 0.12803 0.75917 0.0
N1274 N 0.71245 0.1777 0.8231 0.0
N1275 N 0.79989 0.07712 0.7656 0.0
C1276 C 0.73271 0.15174 0.81143 0.0
C1277 C 0.77771 0.10097 0.78104 0.0
N1278 N 0.76689 0.16956 0.90388 0.0
N1279 N 0.7375 0.0756 0.70541 0.0
H1280 H 0.81998 0.07281 0.79476 0.0
H1281 H 0.79891 0.06216 0.72331 0.0
H1282 H 0.71487 0.07427 0.6817 0.0
H1283 H 0.75038 0.05397 0.69877 0.0
H1284 H 0.74913 0.18472 0.92433 0.0
H1285 H 0.78843 0.17011 0.93115 0.0
H1286 H 0.71849 0.1982 0.85357 0.0
H1287 H 0.69014 0.18007 0.79951 0.0
C1288 C 0.85712 0.53011 0.0385 0.0
C1289 C 0.88484 0.54153 0.07578 0.0
C1290 C 0.91687 0.49568 1.02718 0.0
C1291 C 0.88869 0.48387 0.99154 0.0
N1292 N 0.83631 0.49586 0.94711 0.0
N1293 N 0.94049 0.53441 0.1103 0.0
C1294 C 0.85994 0.50278 0.99303 0.0
C1295 C 0.91464 0.5241 0.07131 0.0
N1296 N 0.82771 0.54498 0.04793 0.0
N1297 N 0.94603 0.48076 1.01617 0.0
H1298 H 0.93949 0.55508 0.14243 0.0
H1299 H 0.96218 0.52169 0.11402 0.0
H1300 H 0.94841 0.46085 0.98273 0.0
H1301 H 0.96827 0.4895 0.03567 0.0
H1302 H 0.80585 0.53592 1.02702 0.0
H1303 H 0.82464 0.56481 0.08144 0.0
H1304 H 0.8157 0.51002 0.94131 0.0
H1305 H 0.83989 0.47821 0.90961 0.0
C1306 C 0.24308 0.15391 0.79756 0.0
C1307 C 0.23381 0.12492 0.82273 0.0
C1308 C 0.27703 0.09636 0.76157 0.0
C1309 C 0.28899 0.12633 0.74409 0.0
N1310 N 0.28791 0.18474 0.76379 0.0
N1311 N 0.2464 0.06919 0.83622 0.0
C1312 C 0.27331 0.15546 0.76727 0.0
C1313 C 0.25215 0.09631 0.80688 0.0
N1314 N 0.2222 0.17944 0.79843 0.0
N1315 N 0.28855 0.06777 0.73327 0.0
H1316 H 0.22901 0.06852 0.87052 0.0
H1317 H 0.26105 0.04862 0.83126 0.0
H1318 H 0.30577 0.06674 0.69838 0.0
H1319 H 0.27854 0.04527 0.73953 0.0
H1320 H 0.22677 0.20011 0.77603 0.0
H1321 H 0.1987 0.17796 0.8143 0.0
H1322 H 0.27846 0.20647 0.78458 0.0
H1323 H 0.31133 0.18676 0.74755 0.0
C1324 C 0.63391 0.49886 0.46431 0.0
C1325 C 0.63412 0.53102 0.49408 0.0
C1326 C 0.63261 0.50928 0.59803 0.0
C1327 C 0.63 0.47722 0.56791 0.0
N1328 N 0.62072 0.44247 0.47061 0.0
N1329 N 0.62722 0.56682 0.58957 0.0
C1330 C 0.62836 0.47238 0.50053 0.0
C1331 C 0.63148 0.53617 0.561 0.0
N1332 N 0.64106 0.49322 0.40208 0.0
N1333 N 0.63826 0.51423 0.6618 0.0
H1334 H 0.62669 0.58733 0.56522 0.0
H1335 H 0.62079 0.57152 0.63639 0.0
H1336 H 0.63973 0.49546 0.69074 0.0
H1337 H 0.64434 0.53677 0.68539 0.0
H1338 H 0.64583 0.47016 0.38022 0.0
H1339 H 0.64556 0.51171 0.37384 0.0
H1340 H 0.61582 0.43827 0.42222 0.0
H1341 H 0.61598 0.42248 0.49459 0.0
C1342 C 0.27957 0.91796 0.28428 0.0
C1343 C 0.29279 0.88829 0.30139 0.0
C1344 C 0.24635 0.85949 0.24434 0.0
C1345 C 0.2351 0.88888 0.22178 0.0
N1346 N 0.24659 0.94476 0.20889 0.0
N1347 N 0.29265 0.82991 0.28264 0.0
C1348 C 0.25351 0.91769 0.23831 0.0
C1349 C 0.27732 0.85874 0.27702 0.0
N1350 N 0.29088 0.9466 0.31424 0.0
N1351 N 0.22687 0.83267 0.23802 0.0
H1352 H 0.3159 0.82855 0.30328 0.0
H1353 H 0.28383 0.80785 0.26075 0.0
H1354 H 0.20361 0.83274 0.21745 0.0
H1355 H 0.23248 0.81163 0.25902 0.0
H1356 H 0.2803 0.96897 0.30811 0.0
H1357 H 0.30835 0.94732 0.35081 0.0
H1358 H 0.26096 0.96565 0.21493 0.0
H1359 H 0.22869 0.94489 0.17305 0.0
C1360 C 0.65717 0.99823 0.48942 0.0
C1361 C 0.62938 0.97776 0.4842 0.0
C1362 C 0.60129 0.01607 0.56028 0.0
C1363 C 0.62985 0.03557 0.56808 0.0
N1364 N 0.68613 0.04405 0.54589 0.0
N1365 N 0.57261 0.97049 0.50152 0.0
C1366 C 0.65807 0.02635 0.53394 0.0
C1367 C 0.60076 0.98756 0.51633 0.0
N1368 N 0.68212 0.99137 0.44961 0.0
N1369 N 0.57497 0.02463 0.59574 0.0
H1370 H 0.57152 0.95062 0.46729 0.0
H1371 H 0.54994 0.97727 0.5186 0.0
H1372 H 0.57468 0.04545 0.62764 0.0
H1373 H 0.55418 0.01039 0.59681 0.0
H1374 H 0.70219 1.00636 0.44654 0.0
H1375 H 0.68089 0.97204 0.41446 0.0
H1376 H 0.70856 0.03718 0.52776 0.0
H1377 H 0.68766 0.06462 0.57835 0.0
C1378 C 0.25507 0.36924 0.84381 0.0
C1379 C 0.22785 0.38919 0.83241 0.0
C1380 C 0.25511 0.40712 0.73993 0.0
C1381 C 0.28339 0.38925 0.75425 0.0
N1382 N 0.31201 0.35734 0.82713 0.0
N1383 N 0.20571 0.43309 0.77859 0.0
C1384 C 0.28385 0.3716 0.80846 0.0
C1385 C 0.22893 0.40971 0.78272 0.0
N1386 N 0.25307 0.34688 0.88639 0.0
N1387 N 0.25321 0.42178 0.6854 0.0
H1388 H 0.1877 0.43724 0.81169 0.0
H1389 H 0.20647 0.4507 0.74717 0.0
H1390 H 0.27218 0.4212 0.65404 0.0
H1391 H 0.2319 0.4321 0.66869 0.0
H1392 H 0.27034 0.32879 0.89098 0.0
H1393 H 0.23285 0.34465 0.91382 0.0
H1394 H 0.31521 0.3478 0.87022 0.0
H1395 H 0.33307 0.35723 0.80164 0.0
C1396 C 0.85816 0.01299 0.08294 0.0
C1397 C 0.87894 0.98613 0.0686 0.0
C1398 C 0.90097 0.01356 0.98112 0.0
C1399 C 0.87817 0.03897 0.9921 0.0
N1400 N 0.83057 0.05955 0.04553 0.0
N1401 N 0.91642 0.9586 0.99653 0.0
C1402 C 0.85556 0.03776 0.04102 0.0
C1403 C 0.89922 0.98579 1.01545 0.0
N1404 N 0.84093 0.01492 0.13685 0.0
N1405 N 0.92531 0.01648 0.93996 0.0
H1406 H 0.91703 0.93844 1.02151 0.0
H1407 H 0.92813 0.95522 0.95384 0.0
H1408 H 0.92716 0.03611 0.91334 0.0
H1409 H 0.9451 1.00077 0.93585 0.0
H1410 H 0.82805 0.03547 0.15367 0.0
H1411 H 0.84186 0.99697 0.16778 0.0
H1412 H 0.81158 0.05845 0.07634 0.0
H1413 H 0.82691 0.07674 1.01355 0.0
C1414 C 0.24274 0.65882 0.29134 0.0
C1415 C 0.22719 0.62951 0.26604 0.0
C1416 C 0.26568 0.59938 0.32953 0.0
C1417 C 0.28404 0.62816 0.34756 0.0
N1418 N 0.29321 0.68425 0.33114 0.0
N1419 N 0.22786 0.57102 0.2531 0.0
C1420 C 0.27339 0.65767 0.32466 0.0
C1421 C 0.23983 0.59952 0.28298 0.0
N1422 N 0.22769 0.68786 0.28633 0.0
N1423 N 0.27225 0.57202 0.35837 0.0
H1424 H 0.20972 0.5701 0.21749 0.0
H1425 H 0.23823 0.54853 0.25897 0.0
H1426 H 0.29005 0.57131 0.3943 0.0
H1427 H 0.25775 0.55124 0.35155 0.0
H1428 H 0.2366 0.7097 0.30908 0.0
H1429 H 0.20452 0.68963 0.26557 0.0
H1430 H 0.28795 0.70532 0.30998 0.0
H1431 H 0.31648 0.68384 0.35146 0.0
C1432 C 0.42199 0.99317 0.5111 0.0
C1433 C 0.39332 0.98217 0.47536 0.0
C1434 C 0.36186 0.02407 0.53557 0.0
C1435 C 0.39047 0.03773 0.56678 0.0
N1436 N 0.44922 0.037 0.57793 0.0
N1437 N 0.34004 0.99679 0.43825 0.0
C1438 C 0.42105 0.02273 0.55297 0.0
C1439 C 0.36449 1.00056 0.48322 0.0
N1440 N 0.4499 0.9754 0.50625 0.0
N1441 N 0.33183 0.03323 0.55642 0.0
H1442 H 0.34339 0.98278 0.3956 0.0
H1443 H 0.31916 0.01115 0.4394 0.0
H1444 H 0.3288 0.04913 0.59694 0.0
H1445 H 0.31036 0.02209 0.53771 0.0
H1446 H 0.4705 0.98035 0.53545 0.0
H1447 H 0.45214 0.95464 0.475 0.0
H1448 H 0.47232 0.02958 0.56398 0.0
H1449 H 0.44967 0.05789 0.60945 0.0
C1450 C 0.77559 0.60069 0.26033 0.0
C1451 C 0.7877 0.63165 0.24942 0.0
C1452 C 0.7451 0.65752 0.31665 0.0
C1453 C 0.73428 0.62649 0.33091 0.0
N1454 N 0.74401 0.56899 0.3265 0.0
N1455 N 0.78668 0.6897 0.27332 0.0
C1456 C 0.75082 0.5982 0.30523 0.0
C1457 C 0.77326 0.66007 0.27963 0.0
N1458 N 0.78787 0.5735 0.22786 0.0
N1459 N 0.72765 0.68461 0.33575 0.0
H1460 H 0.80541 0.69287 0.24276 0.0
H1461 H 0.78049 0.71092 0.30072 0.0
H1462 H 0.70755 0.68424 0.36394 0.0
H1463 H 0.7316 0.70722 0.32009 0.0
H1464 H 0.77773 0.55049 0.22803 0.0
H1465 H 0.80672 0.57425 0.19654 0.0
H1466 H 0.75723 0.54794 0.31479 0.0
H1467 H 0.72725 0.56647 0.36132 0.0
C1468 C 0.10764 0.01683 0.99133 0.0
C1469 C 0.13759 0.03222 0.97957 0.0
C1470 C 0.1657 0.99956 0.05549 0.0
C1471 C 0.13653 0.98263 0.06434 0.0
N1472 N 0.08074 0.97114 1.03073 0.0
N1473 N 0.19627 0.02957 0.98575 0.0
C1474 C 0.10775 0.99019 1.02948 0.0
C1475 C 0.16693 0.02095 1.00743 0.0
N1476 N 0.07889 0.02797 0.96788 0.0
N1477 N 0.19231 0.99572 0.09418 0.0
H1478 H 0.19811 0.04329 0.94767 0.0
H1479 H 0.21838 0.01988 1.00018 0.0
H1480 H 0.19176 0.98115 0.1312 0.0
H1481 H 0.21342 0.00966 0.09399 0.0
H1482 H 0.05618 0.02041 0.98114 0.0
H1483 H 0.07736 0.04642 0.93839 0.0
H1484 H 0.06044 0.97243 1.00044 0.0
H1485 H 0.07957 0.95238 0.05929 0.0
C1486 C 0.74167 0.36026 0.75605 0.0
C1487 C 0.72941 0.38947 0.73467 0.0
C1488 C 0.77281 0.41907 0.79915 0.0
C1489 C 0.78771 0.38945 0.81253 0.0
N1490 N 0.79008 0.33153 0.78553 0.0
N1491 N 0.73858 0.44641 0.72648 0.0
C1492 C 0.77327 0.35989 0.78564 0.0
C1493 C 0.74666 0.41881 0.75328 0.0
N1494 N 0.7224 0.33339 0.75281 0.0
N1495 N 0.78242 0.44741 0.83268 0.0
H1496 H 0.72048 0.44692 0.69104 0.0
H1497 H 0.75221 0.46774 0.73456 0.0
H1498 H 0.79925 0.44776 0.87027 0.0
H1499 H 0.7707 0.46946 0.82869 0.0
H1500 H 0.72949 0.31221 0.77202 0.0
H1501 H 0.69794 0.33412 0.73906 0.0
H1502 H 0.78129 0.30971 0.76242 0.0
H1503 H 0.8143 0.33084 0.80138 0.0
loop_
_geom_bond_atom_site_label_1
_geom_bond_atom_site_label_2
_geom_bond_distance
_geom_bond_site_symmetry_2
_ccdc_geom_bond_type
Tb0 C9 2.764 . S
Tb0 O10 2.325 . S
Tb0 O13 2.303 . S
Tb0 O17 2.322 . S
Tb0 O18 2.349 . S
Tb0 O21 2.415 . S
Tb0 O22 2.399 . S
Tb1 O11 2.322 . S
Tb1 O12 2.349 . S
Tb1 O14 2.415 1_554 S
Tb1 O15 2.399 1_554 S
Tb1 O16 2.325 . S
Tb1 O19 2.303 . S
Tb1 C30 2.764 1_554 S
C2 O18 1.261 . S
C2 O19 1.257 . S
C3 C6 1.358 . S
C3 C7 1.332 . S
C3 C9 1.504 . S
C4 C5 1.373 . S
C4 C8 1.308 . S
C5 C4 1.373 . S
C5 C6 1.429 . S
C5 H32 0.932 . S
C6 C3 1.358 . S
C6 C5 1.429 . S
C6 H33 0.930 . S
C7 C3 1.332 . S
C7 C8 1.394 . S
C7 H34 0.932 . S
C8 C4 1.308 . S
C8 C7 1.394 . S
C8 H35 0.929 . S
C9 Tb0 2.764 . S
C9 C3 1.504 . S
C9 O21 1.239 . S
C9 O22 1.263 . S
O10 Tb0 2.325 . S
O10 C20 1.236 . S
O11 Tb1 2.322 . S
O11 C20 1.257 . S
O12 Tb1 2.349 . S
O12 C23 1.261 . S
O13 Tb0 2.303 . S
O13 C23 1.257 . S
O14 Tb1 2.415 1_556 S
O14 C30 1.239 . S
O15 Tb1 2.399 1_556 S
O15 C30 1.263 . S
O16 Tb1 2.325 . S
O16 C31 1.236 . S
O17 Tb0 2.322 . S
O17 C31 1.257 . S
O18 Tb0 2.349 . S
O18 C2 1.261 . S
O19 Tb1 2.303 . S
O19 C2 1.257 . S
C20 O10 1.236 . S
C20 O11 1.257 . S
O21 Tb0 2.415 . S
O21 C9 1.239 . S
O22 Tb0 2.399 . S
O22 C9 1.263 . S
C23 O12 1.261 . S
C23 O13 1.257 . S
C24 C27 1.358 . S
C24 C28 1.332 . S
C24 C30 1.504 . S
C25 C26 1.373 . S
C25 C29 1.308 . S
C26 C25 1.373 . S
C26 C27 1.429 . S
C26 H36 0.932 . S
C27 C24 1.358 . S
C27 C26 1.429 . S
C27 H37 0.930 . S
C28 C24 1.332 . S
C28 C29 1.394 . S
C28 H38 0.932 . S
C29 C25 1.308 . S
C29 C28 1.394 . S
C29 H39 0.929 . S
C30 Tb1 2.764 1_556 S
C30 O14 1.239 . S
C30 O15 1.263 . S
C30 C24 1.504 . S
C31 O16 1.236 . S
C31 O17 1.257 . S
H32 C5 0.932 . S
H33 C6 0.930 . S
H34 C7 0.932 . S
H35 C8 0.929 . S
H36 C26 0.932 . S
H37 C27 0.930 . S
H38 C28 0.932 . S
H39 C29 0.929 . S
Tb40 C49 2.764 . S
Tb40 O50 2.325 . S
Tb40 O53 2.303 . S
Tb40 O57 2.322 . S
Tb40 O58 2.349 . S
Tb40 O61 2.415 . S
Tb40 O62 2.399 . S
Tb41 O51 2.322 . S
Tb41 O52 2.349 . S
Tb41 O54 2.415 . S
Tb41 O55 2.399 . S
Tb41 O56 2.325 . S
Tb41 O59 2.303 . S
Tb41 C70 2.764 . S
C42 O58 1.261 . S
C42 O59 1.257 . S
C43 C46 1.358 . S
C43 C47 1.332 . S
C43 C49 1.504 . S
C44 C45 1.373 . S
C44 C48 1.308 . S
C45 C44 1.373 . S
C45 C46 1.429 . S
C45 H72 0.932 . S
C46 C43 1.358 . S
C46 C45 1.429 . S
C46 H73 0.930 . S
C47 C43 1.332 . S
C47 C48 1.394 . S
C47 H74 0.932 . S
C48 C44 1.308 . S
C48 C47 1.394 . S
C48 H75 0.929 . S
C49 Tb40 2.764 . S
C49 C43 1.504 . S
C49 O61 1.239 . S
C49 O62 1.263 . S
O50 Tb40 2.325 . S
O50 C60 1.236 . S
O51 Tb41 2.322 . S
O51 C60 1.257 . S
O52 Tb41 2.349 . S
O52 C63 1.261 . S
O53 Tb40 2.303 . S
O53 C63 1.257 . S
O54 Tb41 2.415 . S
O54 C70 1.239 . S
O55 Tb41 2.399 . S
O55 C70 1.263 . S
O56 Tb41 2.325 . S
O56 C71 1.236 . S
O57 Tb40 2.322 . S
O57 C71 1.257 . S
O58 Tb40 2.349 . S
O58 C42 1.261 . S
O59 Tb41 2.303 . S
O59 C42 1.257 . S
C60 O50 1.236 . S
C60 O51 1.257 . S
O61 Tb40 2.415 . S
O61 C49 1.239 . S
O62 Tb40 2.399 . S
O62 C49 1.263 . S
C63 O52 1.261 . S
C63 O53 1.257 . S
C64 C67 1.358 . S
C64 C68 1.332 . S
C64 C70 1.504 . S
C65 C66 1.373 . S
C65 C69 1.308 . S
C66 C65 1.373 . S
C66 C67 1.429 . S
C66 H76 0.932 . S
C67 C64 1.358 . S
C67 C66 1.429 . S
C67 H77 0.930 . S
C68 C64 1.332 . S
C68 C69 1.394 . S
C68 H78 0.932 . S
C69 C65 1.308 . S
C69 C68 1.394 . S
C69 H79 0.929 . S
C70 Tb41 2.764 . S
C70 O54 1.239 . S
C70 O55 1.263 . S
C70 C64 1.504 . S
C71 O56 1.236 . S
C71 O57 1.257 . S
H72 C45 0.932 . S
H73 C46 0.930 . S
H74 C47 0.932 . S
H75 C48 0.929 . S
H76 C66 0.932 . S
H77 C67 0.930 . S
H78 C68 0.932 . S
H79 C69 0.929 . S
Tb80 C89 2.764 . S
Tb80 O90 2.325 . S
Tb80 O93 2.303 . S
Tb80 O97 2.322 . S
Tb80 O98 2.349 . S
Tb80 O101 2.415 . S
Tb80 O102 2.399 . S
Tb81 O91 2.322 . S
Tb81 O92 2.349 . S
Tb81 O94 2.415 . S
Tb81 O95 2.399 . S
Tb81 O96 2.325 . S
Tb81 O99 2.303 . S
Tb81 C110 2.764 . S
C82 O98 1.261 . S
C82 O99 1.257 . S
C83 C86 1.358 . S
C83 C87 1.332 . S
C83 C89 1.504 . S
C84 C85 1.373 . S
C84 C88 1.308 . S
C85 C84 1.373 . S
C85 C86 1.429 . S
C85 H112 0.932 . S
C86 C83 1.358 . S
C86 C85 1.429 . S
C86 H113 0.930 . S
C87 C83 1.332 . S
C87 C88 1.394 . S
C87 H114 0.932 . S
C88 C84 1.308 . S
C88 C87 1.394 . S
C88 H115 0.929 . S
C89 Tb80 2.764 . S
C89 C83 1.504 . S
C89 O101 1.239 . S
C89 O102 1.263 . S
O90 Tb80 2.325 . S
O90 C100 1.236 . S
O91 Tb81 2.322 . S
O91 C100 1.257 . S
O92 Tb81 2.349 . S
O92 C103 1.261 . S
O93 Tb80 2.303 . S
O93 C103 1.257 . S
O94 Tb81 2.415 . S
O94 C110 1.239 . S
O95 Tb81 2.399 . S
O95 C110 1.263 . S
O96 Tb81 2.325 . S
O96 C111 1.236 . S
O97 Tb80 2.322 . S
O97 C111 1.257 . S
O98 Tb80 2.349 . S
O98 C82 1.261 . S
O99 Tb81 2.303 . S
O99 C82 1.257 . S
C100 O90 1.236 . S
C100 O91 1.257 . S
O101 Tb80 2.415 . S
O101 C89 1.239 . S
O102 Tb80 2.399 . S
O102 C89 1.263 . S
C103 O92 1.261 . S
C103 O93 1.257 . S
C104 C107 1.358 . S
C104 C108 1.332 . S
C104 C110 1.504 . S
C105 C106 1.373 1_554 S
C105 C109 1.308 1_554 S
C106 C105 1.373 1_556 S
C106 C107 1.429 . S
C106 H116 0.932 1_556 S
C107 C104 1.358 . S
C107 C106 1.429 . S
C107 H117 0.930 . S
C108 C104 1.332 . S
C108 C109 1.394 . S
C108 H118 0.932 . S
C109 C105 1.308 1_556 S
C109 C108 1.394 . S
C109 H119 0.929 . S
C110 Tb81 2.764 . S
C110 O94 1.239 . S
C110 O95 1.263 . S
C110 C104 1.504 . S
C111 O96 1.236 . S
C111 O97 1.257 . S
H112 C85 0.932 . S
H113 C86 0.930 . S
H114 C87 0.932 . S
H115 C88 0.929 . S
H116 C106 0.932 1_554 S
H117 C107 0.930 . S
H118 C108 0.932 . S
H119 C109 0.929 . S
Tb120 C129 2.766 . S
Tb120 O130 2.325 1_554 S
Tb120 O133 2.302 1_554 S
Tb120 O137 2.321 1_554 S
Tb120 O138 2.349 1_554 S
Tb120 O141 2.417 . S
Tb120 O142 2.401 . S
Tb121 O131 2.322 . S
Tb121 O132 2.349 . S
Tb121 O134 2.415 . S
Tb121 O135 2.399 . S
Tb121 O136 2.325 . S
Tb121 O139 2.303 . S
Tb121 C150 2.764 . S
C122 O138 1.261 . S
C122 O139 1.257 . S
C123 C126 1.358 . S
C123 C127 1.332 . S
C123 C129 1.504 . S
C124 C125 1.373 . S
C124 C128 1.308 . S
C125 C124 1.373 . S
C125 C126 1.429 . S
C125 H152 0.932 . S
C126 C123 1.358 . S
C126 C125 1.429 . S
C126 H153 0.930 . S
C127 C123 1.332 . S
C127 C128 1.394 . S
C127 H154 0.932 . S
C128 C124 1.308 . S
C128 C127 1.394 . S
C128 H155 0.929 . S
C129 Tb120 2.766 . S
C129 C123 1.504 . S
C129 O141 1.239 . S
C129 O142 1.263 . S
O130 Tb120 2.325 1_556 S
O130 C140 1.236 . S
O131 Tb121 2.322 . S
O131 C140 1.257 . S
O132 Tb121 2.349 . S
O132 C143 1.261 . S
O133 Tb120 2.302 1_556 S
O133 C143 1.257 . S
O134 Tb121 2.415 . S
O134 C150 1.239 . S
O135 Tb121 2.399 . S
O135 C150 1.263 . S
O136 Tb121 2.325 . S
O136 C151 1.236 . S
O137 Tb120 2.321 1_556 S
O137 C151 1.257 . S
O138 Tb120 2.349 1_556 S
O138 C122 1.261 . S
O139 Tb121 2.303 . S
O139 C122 1.257 . S
C140 O130 1.236 . S
C140 O131 1.257 . S
O141 Tb120 2.417 . S
O141 C129 1.239 . S
O142 Tb120 2.401 . S
O142 C129 1.263 . S
C143 O132 1.261 . S
C143 O133 1.257 . S
C144 C147 1.358 . S
C144 C148 1.332 . S
C144 C150 1.504 . S
C145 C146 1.373 . S
C145 C149 1.308 . S
C146 C145 1.373 . S
C146 C147 1.429 . S
C146 H156 0.932 . S
C147 C144 1.358 . S
C147 C146 1.429 . S
C147 H157 0.930 . S
C148 C144 1.332 . S
C148 C149 1.394 . S
C148 H158 0.932 . S
C149 C145 1.308 . S
C149 C148 1.394 . S
C149 H159 0.929 . S
C150 Tb121 2.764 . S
C150 O134 1.239 . S
C150 O135 1.263 . S
C150 C144 1.504 . S
C151 O136 1.236 . S
C151 O137 1.257 . S
H152 C125 0.932 . S
H153 C126 0.930 . S
H154 C127 0.932 . S
H155 C128 0.929 . S
H156 C146 0.932 . S
H157 C147 0.930 . S
H158 C148 0.932 . S
H159 C149 0.929 . S
Tb160 C169 2.764 . S
Tb160 O170 2.325 . S
Tb160 O173 2.303 . S
Tb160 O177 2.322 . S
Tb160 O178 2.349 . S
Tb160 O181 2.415 . S
Tb160 O182 2.399 . S
Tb161 O171 2.322 . S
Tb161 O172 2.349 . S
Tb161 O174 2.415 1_556 S
Tb161 O175 2.399 1_556 S
Tb161 O176 2.325 . S
Tb161 O179 2.303 . S
Tb161 C190 2.764 1_556 S
C162 O178 1.261 . S
C162 O179 1.257 . S
C163 C166 1.358 . S
C163 C167 1.332 . S
C163 C169 1.504 . S
C164 C165 1.373 . S
C164 C168 1.308 . S
C165 C164 1.373 . S
C165 C166 1.429 . S
C165 H192 0.932 . S
C166 C163 1.358 . S
C166 C165 1.429 . S
C166 H193 0.930 . S
C167 C163 1.332 . S
C167 C168 1.394 . S
C167 H194 0.932 . S
C168 C164 1.308 . S
C168 C167 1.394 . S
C168 H195 0.929 . S
C169 Tb160 2.764 . S
C169 C163 1.504 . S
C169 O181 1.239 . S
C169 O182 1.263 . S
O170 Tb160 2.325 . S
O170 C180 1.236 . S
O171 Tb161 2.322 . S
O171 C180 1.257 . S
O172 Tb161 2.349 . S
O172 C183 1.261 . S
O173 Tb160 2.303 . S
O173 C183 1.257 . S
O174 Tb161 2.415 1_554 S
O174 C190 1.239 . S
O175 Tb161 2.399 1_554 S
O175 C190 1.263 . S
O176 Tb161 2.325 . S
O176 C191 1.236 . S
O177 Tb160 2.322 . S
O177 C191 1.257 . S
O178 Tb160 2.349 . S
O178 C162 1.261 . S
O179 Tb161 2.303 . S
O179 C162 1.257 . S
C180 O170 1.236 . S
C180 O171 1.257 . S
O181 Tb160 2.415 . S
O181 C169 1.239 . S
O182 Tb160 2.399 . S
O182 C169 1.263 . S
C183 O172 1.261 . S
C183 O173 1.257 . S
C184 C187 1.358 . S
C184 C188 1.332 . S
C184 C190 1.504 . S
C185 C186 1.373 . S
C185 C189 1.308 . S
C186 C185 1.373 . S
C186 C187 1.429 . S
C186 H196 0.932 . S
C187 C184 1.358 . S
C187 C186 1.429 . S
C187 H197 0.930 . S
C188 C184 1.332 . S
C188 C189 1.394 . S
C188 H198 0.932 . S
C189 C185 1.308 . S
C189 C188 1.394 . S
C189 H199 0.929 . S
C190 Tb161 2.764 1_554 S
C190 O174 1.239 . S
C190 O175 1.263 . S
C190 C184 1.504 . S
C191 O176 1.236 . S
C191 O177 1.257 . S
H192 C165 0.932 . S
H193 C166 0.930 . S
H194 C167 0.932 . S
H195 C168 0.929 . S
H196 C186 0.932 . S
H197 C187 0.930 . S
H198 C188 0.932 . S
H199 C189 0.929 . S
Tb200 C209 2.764 . S
Tb200 O210 2.325 . S
Tb200 O213 2.303 . S
Tb200 O217 2.322 . S
Tb200 O218 2.349 . S
Tb200 O221 2.415 . S
Tb200 O222 2.399 . S
Tb201 O211 2.322 . S
Tb201 O212 2.349 . S
Tb201 O214 2.415 1_554 S
Tb201 O215 2.399 1_554 S
Tb201 O216 2.325 . S
Tb201 O219 2.303 . S
Tb201 C230 2.764 1_554 S
C202 O218 1.261 . S
C202 O219 1.257 . S
C203 C206 1.358 . S
C203 C207 1.332 . S
C203 C209 1.504 . S
C204 C205 1.373 . S
C204 C208 1.308 . S
C205 C204 1.373 . S
C205 C206 1.429 . S
C205 H232 0.932 . S
C206 C203 1.358 . S
C206 C205 1.429 . S
C206 H233 0.930 . S
C207 C203 1.332 . S
C207 C208 1.394 . S
C207 H234 0.932 . S
C208 C204 1.308 . S
C208 C207 1.394 . S
C208 H235 0.929 . S
C209 Tb200 2.764 . S
C209 C203 1.504 . S
C209 O221 1.239 . S
C209 O222 1.263 . S
O210 Tb200 2.325 . S
O210 C220 1.236 . S
O211 Tb201 2.322 . S
O211 C220 1.257 . S
O212 Tb201 2.349 . S
O212 C223 1.261 . S
O213 Tb200 2.303 . S
O213 C223 1.257 . S
O214 Tb201 2.415 1_556 S
O214 C230 1.239 . S
O215 Tb201 2.399 1_556 S
O215 C230 1.263 . S
O216 Tb201 2.325 . S
O216 C231 1.236 . S
O217 Tb200 2.322 . S
O217 C231 1.257 . S
O218 Tb200 2.349 . S
O218 C202 1.261 . S
O219 Tb201 2.303 . S
O219 C202 1.257 . S
C220 O210 1.236 . S
C220 O211 1.257 . S
O221 Tb200 2.415 . S
O221 C209 1.239 . S
O222 Tb200 2.399 . S
O222 C209 1.263 . S
C223 O212 1.261 . S
C223 O213 1.257 . S
C224 C227 1.358 . S
C224 C228 1.332 . S
C224 C230 1.504 . S
C225 C226 1.373 . S
C225 C229 1.308 . S
C226 C225 1.373 . S
C226 C227 1.429 . S
C226 H236 0.932 . S
C227 C224 1.358 . S
C227 C226 1.429 . S
C227 H237 0.930 . S
C228 C224 1.332 . S
C228 C229 1.394 . S
C228 H238 0.932 . S
C229 C225 1.308 . S
C229 C228 1.394 . S
C229 H239 0.929 . S
C230 Tb201 2.764 1_556 S
C230 O214 1.239 . S
C230 O215 1.263 . S
C230 C224 1.504 . S
C231 O216 1.236 . S
C231 O217 1.257 . S
H232 C205 0.932 . S
H233 C206 0.930 . S
H234 C207 0.932 . S
H235 C208 0.929 . S
H236 C226 0.932 . S
H237 C227 0.930 . S
H238 C228 0.932 . S
H239 C229 0.929 . S
Tb240 C249 2.764 . S
Tb240 O250 2.325 . S
Tb240 O253 2.303 . S
Tb240 O257 2.322 . S
Tb240 O258 2.349 . S
Tb240 O261 2.415 . S
Tb240 O262 2.399 . S
Tb241 O251 2.322 . S
Tb241 O252 2.349 . S
Tb241 O254 2.415 . S
Tb241 O255 2.399 . S
Tb241 O256 2.325 . S
Tb241 O259 2.303 . S
Tb241 C270 2.764 . S
C242 O258 1.261 . S
C242 O259 1.257 . S
C243 C246 1.358 . S
C243 C247 1.332 . S
C243 C249 1.504 . S
C244 C245 1.373 . S
C244 C248 1.308 . S
C245 C244 1.373 . S
C245 C246 1.429 . S
C245 H272 0.932 . S
C246 C243 1.358 . S
C246 C245 1.429 . S
C246 H273 0.930 . S
C247 C243 1.332 . S
C247 C248 1.394 . S
C247 H274 0.932 . S
C248 C244 1.308 . S
C248 C247 1.394 . S
C248 H275 0.929 . S
C249 Tb240 2.764 . S
C249 C243 1.504 . S
C249 O261 1.239 . S
C249 O262 1.263 . S
O250 Tb240 2.325 . S
O250 C260 1.236 . S
O251 Tb241 2.322 . S
O251 C260 1.257 . S
O252 Tb241 2.349 . S
O252 C263 1.261 . S
O253 Tb240 2.303 . S
O253 C263 1.257 . S
O254 Tb241 2.415 . S
O254 C270 1.239 . S
O255 Tb241 2.399 . S
O255 C270 1.263 . S
O256 Tb241 2.325 . S
O256 C271 1.236 . S
O257 Tb240 2.322 . S
O257 C271 1.257 . S
O258 Tb240 2.349 . S
O258 C242 1.261 . S
O259 Tb241 2.303 . S
O259 C242 1.257 . S
C260 O250 1.236 . S
C260 O251 1.257 . S
O261 Tb240 2.415 . S
O261 C249 1.239 . S
O262 Tb240 2.399 . S
O262 C249 1.263 . S
C263 O252 1.261 . S
C263 O253 1.257 . S
C264 C267 1.358 . S
C264 C268 1.332 . S
C264 C270 1.504 . S
C265 C266 1.373 1_556 S
C265 C269 1.308 1_556 S
C266 C265 1.373 1_554 S
C266 C267 1.429 . S
C266 H276 0.932 1_554 S
C267 C264 1.358 . S
C267 C266 1.429 . S
C267 H277 0.930 . S
C268 C264 1.332 . S
C268 C269 1.394 . S
C268 H278 0.932 . S
C269 C265 1.308 1_554 S
C269 C268 1.394 . S
C269 H279 0.929 . S
C270 Tb241 2.764 . S
C270 O254 1.239 . S
C270 O255 1.263 . S
C270 C264 1.504 . S
C271 O256 1.236 . S
C271 O257 1.257 . S
H272 C245 0.932 . S
H273 C246 0.930 . S
H274 C247 0.932 . S
H275 C248 0.929 . S
H276 C266 0.932 1_556 S
H277 C267 0.930 . S
H278 C268 0.932 . S
H279 C269 0.929 . S
Tb280 C289 2.764 . S
Tb280 O290 2.325 . S
Tb280 O293 2.303 . S
Tb280 O297 2.322 . S
Tb280 O298 2.349 . S
Tb280 O301 2.415 . S
Tb280 O302 2.399 . S
Tb281 O291 2.322 . S
Tb281 O292 2.349 . S
Tb281 O294 2.415 . S
Tb281 O295 2.399 . S
Tb281 O296 2.325 . S
Tb281 O299 2.303 . S
Tb281 C310 2.764 . S
C282 O298 1.261 . S
C282 O299 1.257 . S
C283 C286 1.358 . S
C283 C287 1.332 . S
C283 C289 1.504 . S
C284 C285 1.373 1_554 S
C284 C288 1.308 1_554 S
C285 C284 1.373 1_556 S
C285 C286 1.429 . S
C285 H312 0.932 1_556 S
C286 C283 1.358 . S
C286 C285 1.429 . S
C286 H313 0.930 . S
C287 C283 1.332 . S
C287 C288 1.394 . S
C287 H314 0.932 . S
C288 C284 1.308 1_556 S
C288 C287 1.394 . S
C288 H315 0.929 1_556 S
C289 Tb280 2.764 . S
C289 C283 1.504 . S
C289 O301 1.239 . S
C289 O302 1.263 . S
O290 Tb280 2.325 . S
O290 C300 1.236 . S
O291 Tb281 2.322 . S
O291 C300 1.257 . S
O292 Tb281 2.349 . S
O292 C303 1.261 . S
O293 Tb280 2.303 . S
O293 C303 1.257 . S
O294 Tb281 2.415 . S
O294 C310 1.239 . S
O295 Tb281 2.399 . S
O295 C310 1.263 . S
O296 Tb281 2.325 . S
O296 C311 1.236 . S
O297 Tb280 2.322 . S
O297 C311 1.257 . S
O298 Tb280 2.349 . S
O298 C282 1.261 . S
O299 Tb281 2.303 . S
O299 C282 1.257 . S
C300 O290 1.236 . S
C300 O291 1.257 . S
O301 Tb280 2.415 . S
O301 C289 1.239 . S
O302 Tb280 2.399 . S
O302 C289 1.263 . S
C303 O292 1.261 . S
C303 O293 1.257 . S
C304 C307 1.358 . S
C304 C308 1.332 . S
C304 C310 1.504 . S
C305 C306 1.373 . S
C305 C309 1.308 . S
C306 C305 1.373 . S
C306 C307 1.429 . S
C306 H316 0.932 . S
C307 C304 1.358 . S
C307 C306 1.429 . S
C307 H317 0.930 . S
C308 C304 1.332 . S
C308 C309 1.394 . S
C308 H318 0.932 . S
C309 C305 1.308 . S
C309 C308 1.394 . S
C309 H319 0.929 . S
C310 Tb281 2.764 . S
C310 O294 1.239 . S
C310 O295 1.263 . S
C310 C304 1.504 . S
C311 O296 1.236 . S
C311 O297 1.257 . S
H312 C285 0.932 1_554 S
H313 C286 0.930 . S
H314 C287 0.932 . S
H315 C288 0.929 1_554 S
H316 C306 0.932 . S
H317 C307 0.930 . S
H318 C308 0.932 . S
H319 C309 0.929 . S
Tb320 C329 2.764 1_556 S
Tb320 O330 2.325 . S
Tb320 O333 2.303 . S
Tb320 O337 2.322 . S
Tb320 O338 2.349 . S
Tb320 O341 2.415 1_556 S
Tb320 O342 2.399 1_556 S
Tb321 O331 2.322 . S
Tb321 O332 2.349 . S
Tb321 O334 2.415 . S
Tb321 O335 2.399 . S
Tb321 O336 2.325 . S
Tb321 O339 2.303 . S
Tb321 C350 2.764 . S
C322 O338 1.261 . S
C322 O339 1.257 . S
C323 C326 1.358 . S
C323 C327 1.332 . S
C323 C329 1.504 . S
C324 C325 1.373 . S
C324 C328 1.308 . S
C325 C324 1.373 . S
C325 C326 1.429 . S
C325 H352 0.932 . S
C326 C323 1.358 . S
C326 C325 1.429 . S
C326 H353 0.930 . S
C327 C323 1.332 . S
C327 C328 1.394 . S
C327 H354 0.932 . S
C328 C324 1.308 . S
C328 C327 1.394 . S
C328 H355 0.929 . S
C329 Tb320 2.764 1_554 S
C329 C323 1.504 . S
C329 O341 1.239 . S
C329 O342 1.263 . S
O330 Tb320 2.325 . S
O330 C340 1.236 . S
O331 Tb321 2.322 . S
O331 C340 1.257 . S
O332 Tb321 2.349 . S
O332 C343 1.261 . S
O333 Tb320 2.303 . S
O333 C343 1.257 . S
O334 Tb321 2.415 . S
O334 C350 1.239 . S
O335 Tb321 2.399 . S
O335 C350 1.263 . S
O336 Tb321 2.325 . S
O336 C351 1.236 . S
O337 Tb320 2.322 . S
O337 C351 1.257 . S
O338 Tb320 2.349 . S
O338 C322 1.261 . S
O339 Tb321 2.303 . S
O339 C322 1.257 . S
C340 O330 1.236 . S
C340 O331 1.257 . S
O341 Tb320 2.415 1_554 S
O341 C329 1.239 . S
O342 Tb320 2.399 1_554 S
O342 C329 1.263 . S
C343 O332 1.261 . S
C343 O333 1.257 . S
C344 C347 1.358 . S
C344 C348 1.332 . S
C344 C350 1.504 . S
C345 C346 1.373 . S
C345 C349 1.308 . S
C346 C345 1.373 . S
C346 C347 1.429 . S
C346 H356 0.932 . S
C347 C344 1.358 . S
C347 C346 1.429 . S
C347 H357 0.930 . S
C348 C344 1.332 . S
C348 C349 1.394 . S
C348 H358 0.932 . S
C349 C345 1.308 . S
C349 C348 1.394 . S
C349 H359 0.929 . S
C350 Tb321 2.764 . S
C350 O334 1.239 . S
C350 O335 1.263 . S
C350 C344 1.504 . S
C351 O336 1.236 . S
C351 O337 1.257 . S
H352 C325 0.932 . S
H353 C326 0.930 . S
H354 C327 0.932 . S
H355 C328 0.929 . S
H356 C346 0.932 . S
H357 C347 0.930 . S
H358 C348 0.932 . S
H359 C349 0.929 . S
Tb360 C369 2.764 . S
Tb360 O370 2.325 . S
Tb360 O373 2.303 . S
Tb360 O377 2.322 . S
Tb360 O378 2.349 . S
Tb360 O381 2.415 . S
Tb360 O382 2.399 . S
Tb361 O371 2.322 . S
Tb361 O372 2.349 . S
Tb361 O374 2.415 . S
Tb361 O375 2.399 . S
Tb361 O376 2.325 . S
Tb361 O379 2.303 . S
Tb361 C390 2.764 . S
C362 O378 1.261 . S
C362 O379 1.257 . S
C363 C366 1.358 . S
C363 C367 1.332 . S
C363 C369 1.504 . S
C364 C365 1.373 . S
C364 C368 1.308 . S
C365 C364 1.373 . S
C365 C366 1.429 . S
C365 H392 0.932 . S
C366 C363 1.358 . S
C366 C365 1.429 . S
C366 H393 0.930 . S
C367 C363 1.332 . S
C367 C368 1.394 . S
C367 H394 0.932 . S
C368 C364 1.308 . S
C368 C367 1.394 . S
C368 H395 0.929 . S
C369 Tb360 2.764 . S
C369 C363 1.504 . S
C369 O381 1.239 . S
C369 O382 1.263 . S
O370 Tb360 2.325 . S
O370 C380 1.236 . S
O371 Tb361 2.322 . S
O371 C380 1.257 . S
O372 Tb361 2.349 . S
O372 C383 1.261 . S
O373 Tb360 2.303 . S
O373 C383 1.257 . S
O374 Tb361 2.415 . S
O374 C390 1.239 . S
O375 Tb361 2.399 . S
O375 C390 1.263 . S
O376 Tb361 2.325 . S
O376 C391 1.236 . S
O377 Tb360 2.322 . S
O377 C391 1.257 . S
O378 Tb360 2.349 . S
O378 C362 1.261 . S
O379 Tb361 2.303 . S
O379 C362 1.257 . S
C380 O370 1.236 . S
C380 O371 1.257 . S
O381 Tb360 2.415 . S
O381 C369 1.239 . S
O382 Tb360 2.399 . S
O382 C369 1.263 . S
C383 O372 1.261 . S
C383 O373 1.257 . S
C384 C387 1.358 . S
C384 C388 1.332 . S
C384 C390 1.504 . S
C385 C386 1.373 . S
C385 C389 1.308 . S
C386 C385 1.373 . S
C386 C387 1.429 . S
C386 H396 0.932 . S
C387 C384 1.358 . S
C387 C386 1.429 . S
C387 H397 0.930 . S
C388 C384 1.332 . S
C388 C389 1.394 . S
C388 H398 0.932 . S
C389 C385 1.308 . S
C389 C388 1.394 . S
C389 H399 0.929 . S
C390 Tb361 2.764 . S
C390 O374 1.239 . S
C390 O375 1.263 . S
C390 C384 1.504 . S
C391 O376 1.236 . S
C391 O377 1.257 . S
H392 C365 0.932 . S
H393 C366 0.930 . S
H394 C367 0.932 . S
H395 C368 0.929 . S
H396 C386 0.932 . S
H397 C387 0.930 . S
H398 C388 0.932 . S
H399 C389 0.929 . S
Tb400 C409 2.764 . S
Tb400 O410 2.325 . S
Tb400 O413 2.303 . S
Tb400 O417 2.322 . S
Tb400 O418 2.349 . S
Tb400 O421 2.415 . S
Tb400 O422 2.399 . S
Tb401 O411 2.322 . S
Tb401 O412 2.349 . S
Tb401 O414 2.415 . S
Tb401 O415 2.399 . S
Tb401 O416 2.325 . S
Tb401 O419 2.303 . S
Tb401 C430 2.764 . S
C402 O418 1.261 . S
C402 O419 1.257 . S
C403 C406 1.358 . S
C403 C407 1.332 . S
C403 C409 1.504 . S
C404 C405 1.373 1_556 S
C404 C408 1.308 1_556 S
C405 C404 1.373 1_554 S
C405 C406 1.429 . S
C405 H432 0.932 1_554 S
C406 C403 1.358 . S
C406 C405 1.429 . S
C406 H433 0.930 . S
C407 C403 1.332 . S
C407 C408 1.394 . S
C407 H434 0.932 . S
C408 C404 1.308 1_554 S
C408 C407 1.394 . S
C408 H435 0.929 . S
C409 Tb400 2.764 . S
C409 C403 1.504 . S
C409 O421 1.239 . S
C409 O422 1.263 . S
O410 Tb400 2.325 . S
O410 C420 1.236 . S
O411 Tb401 2.322 . S
O411 C420 1.257 . S
O412 Tb401 2.349 . S
O412 C423 1.261 . S
O413 Tb400 2.303 . S
O413 C423 1.257 . S
O414 Tb401 2.415 . S
O414 C430 1.239 . S
O415 Tb401 2.399 . S
O415 C430 1.263 . S
O416 Tb401 2.325 . S
O416 C431 1.236 . S
O417 Tb400 2.322 . S
O417 C431 1.257 . S
O418 Tb400 2.349 . S
O418 C402 1.261 . S
O419 Tb401 2.303 . S
O419 C402 1.257 . S
C420 O410 1.236 . S
C420 O411 1.257 . S
O421 Tb400 2.415 . S
O421 C409 1.239 . S
O422 Tb400 2.399 . S
O422 C409 1.263 . S
C423 O412 1.261 . S
C423 O413 1.257 . S
C424 C427 1.358 . S
C424 C428 1.332 . S
C424 C430 1.504 . S
C425 C426 1.373 . S
C425 C429 1.308 . S
C426 C425 1.373 . S
C426 C427 1.429 . S
C426 H436 0.932 . S
C427 C424 1.358 . S
C427 C426 1.429 . S
C427 H437 0.930 . S
C428 C424 1.332 . S
C428 C429 1.394 . S
C428 H438 0.932 . S
C429 C425 1.308 . S
C429 C428 1.394 . S
C429 H439 0.929 . S
C430 Tb401 2.764 . S
C430 O414 1.239 . S
C430 O415 1.263 . S
C430 C424 1.504 . S
C431 O416 1.236 . S
C431 O417 1.257 . S
H432 C405 0.932 1_556 S
H433 C406 0.930 . S
H434 C407 0.932 . S
H435 C408 0.929 . S
H436 C426 0.932 . S
H437 C427 0.930 . S
H438 C428 0.932 . S
H439 C429 0.929 . S
Tb440 C449 2.764 . S
Tb440 O450 2.325 . S
Tb440 O453 2.303 . S
Tb440 O457 2.322 . S
Tb440 O458 2.349 . S
Tb440 O461 2.415 . S
Tb440 O462 2.399 . S
Tb441 O451 2.321 1_556 S
Tb441 O452 2.349 1_556 S
Tb441 O454 2.417 . S
Tb441 O455 2.401 . S
Tb441 O456 2.325 1_556 S
Tb441 O459 2.302 1_556 S
Tb441 C470 2.766 . S
C442 O458 1.261 . S
C442 O459 1.257 . S
C443 C446 1.358 . S
C443 C447 1.332 . S
C443 C449 1.504 . S
C444 C445 1.373 . S
C444 C448 1.308 . S
C445 C444 1.373 . S
C445 C446 1.429 . S
C445 H472 0.932 . S
C446 C443 1.358 . S
C446 C445 1.429 . S
C446 H473 0.930 . S
C447 C443 1.332 . S
C447 C448 1.394 . S
C447 H474 0.932 . S
C448 C444 1.308 . S
C448 C447 1.394 . S
C448 H475 0.929 . S
C449 Tb440 2.764 . S
C449 C443 1.504 . S
C449 O461 1.239 . S
C449 O462 1.263 . S
O450 Tb440 2.325 . S
O450 C460 1.236 . S
O451 Tb441 2.321 1_554 S
O451 C460 1.257 . S
O452 Tb441 2.349 1_554 S
O452 C463 1.261 . S
O453 Tb440 2.303 . S
O453 C463 1.257 . S
O454 Tb441 2.417 . S
O454 C470 1.239 . S
O455 Tb441 2.401 . S
O455 C470 1.263 . S
O456 Tb441 2.325 1_554 S
O456 C471 1.236 . S
O457 Tb440 2.322 . S
O457 C471 1.257 . S
O458 Tb440 2.349 . S
O458 C442 1.261 . S
O459 Tb441 2.302 1_554 S
O459 C442 1.257 . S
C460 O450 1.236 . S
C460 O451 1.257 . S
O461 Tb440 2.415 . S
O461 C449 1.239 . S
O462 Tb440 2.399 . S
O462 C449 1.263 . S
C463 O452 1.261 . S
C463 O453 1.257 . S
C464 C467 1.358 . S
C464 C468 1.332 . S
C464 C470 1.504 . S
C465 C466 1.373 . S
C465 C469 1.308 . S
C466 C465 1.373 . S
C466 C467 1.429 . S
C466 H476 0.932 . S
C467 C464 1.358 . S
C467 C466 1.429 . S
C467 H477 0.930 . S
C468 C464 1.332 . S
C468 C469 1.394 . S
C468 H478 0.932 . S
C469 C465 1.308 . S
C469 C468 1.394 . S
C469 H479 0.929 . S
C470 Tb441 2.766 . S
C470 O454 1.239 . S
C470 O455 1.263 . S
C470 C464 1.504 . S
C471 O456 1.236 . S
C471 O457 1.257 . S
H472 C445 0.932 . S
H473 C446 0.930 . S
H474 C447 0.932 . S
H475 C448 0.929 . S
H476 C466 0.932 . S
H477 C467 0.930 . S
H478 C468 0.932 . S
H479 C469 0.929 . S
Tb480 C489 2.764 1_554 S
Tb480 O490 2.325 . S
Tb480 O493 2.303 . S
Tb480 O497 2.322 . S
Tb480 O498 2.349 . S
Tb480 O501 2.415 1_554 S
Tb480 O502 2.399 1_554 S
Tb481 O491 2.322 . S
Tb481 O492 2.349 . S
Tb481 O494 2.415 . S
Tb481 O495 2.399 . S
Tb481 O496 2.325 . S
Tb481 O499 2.303 . S
Tb481 C510 2.764 . S
C482 O498 1.261 . S
C482 O499 1.257 . S
C483 C486 1.358 . S
C483 C487 1.332 . S
C483 C489 1.504 . S
C484 C485 1.373 . S
C484 C488 1.308 . S
C485 C484 1.373 . S
C485 C486 1.429 . S
C485 H512 0.932 . S
C486 C483 1.358 . S
C486 C485 1.429 . S
C486 H513 0.930 . S
C487 C483 1.332 . S
C487 C488 1.394 . S
C487 H514 0.932 . S
C488 C484 1.308 . S
C488 C487 1.394 . S
C488 H515 0.929 . S
C489 Tb480 2.764 1_556 S
C489 C483 1.504 . S
C489 O501 1.239 . S
C489 O502 1.263 . S
O490 Tb480 2.325 . S
O490 C500 1.236 . S
O491 Tb481 2.322 . S
O491 C500 1.257 . S
O492 Tb481 2.349 . S
O492 C503 1.261 . S
O493 Tb480 2.303 . S
O493 C503 1.257 . S
O494 Tb481 2.415 . S
O494 C510 1.239 . S
O495 Tb481 2.399 . S
O495 C510 1.263 . S
O496 Tb481 2.325 . S
O496 C511 1.236 . S
O497 Tb480 2.322 . S
O497 C511 1.257 . S
O498 Tb480 2.349 . S
O498 C482 1.261 . S
O499 Tb481 2.303 . S
O499 C482 1.257 . S
C500 O490 1.236 . S
C500 O491 1.257 . S
O501 Tb480 2.415 1_556 S
O501 C489 1.239 . S
O502 Tb480 2.399 1_556 S
O502 C489 1.263 . S
C503 O492 1.261 . S
C503 O493 1.257 . S
C504 C507 1.358 . S
C504 C508 1.332 . S
C504 C510 1.504 . S
C505 C506 1.373 . S
C505 C509 1.308 . S
C506 C505 1.373 . S
C506 C507 1.429 . S
C506 H516 0.932 . S
C507 C504 1.358 . S
C507 C506 1.429 . S
C507 H517 0.930 . S
C508 C504 1.332 . S
C508 C509 1.394 . S
C508 H518 0.932 . S
C509 C505 1.308 . S
C509 C508 1.394 . S
C509 H519 0.929 . S
C510 Tb481 2.764 . S
C510 O494 1.239 . S
C510 O495 1.263 . S
C510 C504 1.504 . S
C511 O496 1.236 . S
C511 O497 1.257 . S
H512 C485 0.932 . S
H513 C486 0.930 . S
H514 C487 0.932 . S
H515 C488 0.929 . S
H516 C506 0.932 . S
H517 C507 0.930 . S
H518 C508 0.932 . S
H519 C509 0.929 . S
Tb520 C529 2.764 1_556 S
Tb520 O530 2.325 . S
Tb520 O533 2.303 . S
Tb520 O537 2.322 . S
Tb520 O538 2.349 . S
Tb520 O541 2.415 1_556 S
Tb520 O542 2.399 1_556 S
Tb521 O531 2.322 . S
Tb521 O532 2.349 . S
Tb521 O534 2.415 . S
Tb521 O535 2.399 . S
Tb521 O536 2.325 . S
Tb521 O539 2.303 . S
Tb521 C550 2.764 . S
C522 O538 1.261 . S
C522 O539 1.257 . S
C523 C526 1.358 . S
C523 C527 1.332 . S
C523 C529 1.504 . S
C524 C525 1.373 . S
C524 C528 1.308 . S
C525 C524 1.373 . S
C525 C526 1.429 . S
C525 H552 0.932 . S
C526 C523 1.358 . S
C526 C525 1.429 . S
C526 H553 0.930 . S
C527 C523 1.332 . S
C527 C528 1.394 . S
C527 H554 0.932 . S
C528 C524 1.308 . S
C528 C527 1.394 . S
C528 H555 0.929 . S
C529 Tb520 2.764 1_554 S
C529 C523 1.504 . S
C529 O541 1.239 . S
C529 O542 1.263 . S
O530 Tb520 2.325 . S
O530 C540 1.236 . S
O531 Tb521 2.322 . S
O531 C540 1.257 . S
O532 Tb521 2.349 . S
O532 C543 1.261 . S
O533 Tb520 2.303 . S
O533 C543 1.257 . S
O534 Tb521 2.415 . S
O534 C550 1.239 . S
O535 Tb521 2.399 . S
O535 C550 1.263 . S
O536 Tb521 2.325 . S
O536 C551 1.236 . S
O537 Tb520 2.322 . S
O537 C551 1.257 . S
O538 Tb520 2.349 . S
O538 C522 1.261 . S
O539 Tb521 2.303 . S
O539 C522 1.257 . S
C540 O530 1.236 . S
C540 O531 1.257 . S
O541 Tb520 2.415 1_554 S
O541 C529 1.239 . S
O542 Tb520 2.399 1_554 S
O542 C529 1.263 . S
C543 O532 1.261 . S
C543 O533 1.257 . S
C544 C547 1.358 . S
C544 C548 1.332 . S
C544 C550 1.504 . S
C545 C546 1.373 . S
C545 C549 1.308 . S
C546 C545 1.373 . S
C546 C547 1.429 . S
C546 H556 0.932 . S
C547 C544 1.358 . S
C547 C546 1.429 . S
C547 H557 0.930 . S
C548 C544 1.332 . S
C548 C549 1.394 . S
C548 H558 0.932 . S
C549 C545 1.308 . S
C549 C548 1.394 . S
C549 H559 0.929 . S
C550 Tb521 2.764 . S
C550 O534 1.239 . S
C550 O535 1.263 . S
C550 C544 1.504 . S
C551 O536 1.236 . S
C551 O537 1.257 . S
H552 C525 0.932 . S
H553 C526 0.930 . S
H554 C527 0.932 . S
H555 C528 0.929 . S
H556 C546 0.932 . S
H557 C547 0.930 . S
H558 C548 0.932 . S
H559 C549 0.929 . S
Tb560 C569 2.764 . S
Tb560 O570 2.325 . S
Tb560 O573 2.303 . S
Tb560 O577 2.322 . S
Tb560 O578 2.349 . S
Tb560 O581 2.415 . S
Tb560 O582 2.399 . S
Tb561 O571 2.322 . S
Tb561 O572 2.349 . S
Tb561 O574 2.415 . S
Tb561 O575 2.399 . S
Tb561 O576 2.325 . S
Tb561 O579 2.303 . S
Tb561 C590 2.764 . S
C562 O578 1.261 . S
C562 O579 1.257 . S
C563 C566 1.358 . S
C563 C567 1.332 . S
C563 C569 1.504 . S
C564 C565 1.373 1_554 S
C564 C568 1.308 1_554 S
C565 C564 1.373 1_556 S
C565 C566 1.429 . S
C565 H592 0.932 1_556 S
C566 C563 1.358 . S
C566 C565 1.429 . S
C566 H593 0.930 . S
C567 C563 1.332 . S
C567 C568 1.394 . S
C567 H594 0.932 . S
C568 C564 1.308 1_556 S
C568 C567 1.394 . S
C568 H595 0.929 . S
C569 Tb560 2.764 . S
C569 C563 1.504 . S
C569 O581 1.239 . S
C569 O582 1.263 . S
O570 Tb560 2.325 . S
O570 C580 1.236 . S
O571 Tb561 2.322 . S
O571 C580 1.257 . S
O572 Tb561 2.349 . S
O572 C583 1.261 . S
O573 Tb560 2.303 . S
O573 C583 1.257 . S
O574 Tb561 2.415 . S
O574 C590 1.239 . S
O575 Tb561 2.399 . S
O575 C590 1.263 . S
O576 Tb561 2.325 . S
O576 C591 1.236 . S
O577 Tb560 2.322 . S
O577 C591 1.257 . S
O578 Tb560 2.349 . S
O578 C562 1.261 . S
O579 Tb561 2.303 . S
O579 C562 1.257 . S
C580 O570 1.236 . S
C580 O571 1.257 . S
O581 Tb560 2.415 . S
O581 C569 1.239 . S
O582 Tb560 2.399 . S
O582 C569 1.263 . S
C583 O572 1.261 . S
C583 O573 1.257 . S
C584 C587 1.358 . S
C584 C588 1.332 . S
C584 C590 1.504 . S
C585 C586 1.373 . S
C585 C589 1.308 . S
C586 C585 1.373 . S
C586 C587 1.429 . S
C586 H596 0.932 . S
C587 C584 1.358 . S
C587 C586 1.429 . S
C587 H597 0.930 . S
C588 C584 1.332 . S
C588 C589 1.394 . S
C588 H598 0.932 . S
C589 C585 1.308 . S
C589 C588 1.394 . S
C589 H599 0.929 . S
C590 Tb561 2.764 . S
C590 O574 1.239 . S
C590 O575 1.263 . S
C590 C584 1.504 . S
C591 O576 1.236 . S
C591 O577 1.257 . S
H592 C565 0.932 1_554 S
H593 C566 0.930 . S
H594 C567 0.932 . S
H595 C568 0.929 . S
H596 C586 0.932 . S
H597 C587 0.930 . S
H598 C588 0.932 . S
H599 C589 0.929 . S
Tb600 C609 2.764 . S
Tb600 O610 2.325 . S
Tb600 O613 2.303 . S
Tb600 O617 2.322 . S
Tb600 O618 2.349 . S
Tb600 O621 2.415 . S
Tb600 O622 2.399 . S
Tb601 O611 2.322 . S
Tb601 O612 2.349 . S
Tb601 O614 2.415 . S
Tb601 O615 2.399 . S
Tb601 O616 2.325 . S
Tb601 O619 2.303 . S
Tb601 C630 2.764 . S
C602 O618 1.261 . S
C602 O619 1.257 . S
C603 C606 1.358 . S
C603 C607 1.332 . S
C603 C609 1.504 . S
C604 C605 1.373 . S
C604 C608 1.308 . S
C605 C604 1.373 . S
C605 C606 1.429 . S
C605 H632 0.932 . S
C606 C603 1.358 . S
C606 C605 1.429 . S
C606 H633 0.930 . S
C607 C603 1.332 . S
C607 C608 1.394 . S
C607 H634 0.932 . S
C608 C604 1.308 . S
C608 C607 1.394 . S
C608 H635 0.929 . S
C609 Tb600 2.764 . S
C609 C603 1.504 . S
C609 O621 1.239 . S
C609 O622 1.263 . S
O610 Tb600 2.325 . S
O610 C620 1.236 . S
O611 Tb601 2.322 . S
O611 C620 1.257 . S
O612 Tb601 2.349 . S
O612 C623 1.261 . S
O613 Tb600 2.303 . S
O613 C623 1.257 . S
O614 Tb601 2.415 . S
O614 C630 1.239 . S
O615 Tb601 2.399 . S
O615 C630 1.263 . S
O616 Tb601 2.325 . S
O616 C631 1.236 . S
O617 Tb600 2.322 . S
O617 C631 1.257 . S
O618 Tb600 2.349 . S
O618 C602 1.261 . S
O619 Tb601 2.303 . S
O619 C602 1.257 . S
C620 O610 1.236 . S
C620 O611 1.257 . S
O621 Tb600 2.415 . S
O621 C609 1.239 . S
O622 Tb600 2.399 . S
O622 C609 1.263 . S
C623 O612 1.261 . S
C623 O613 1.257 . S
C624 C627 1.358 . S
C624 C628 1.332 . S
C624 C630 1.504 . S
C625 C626 1.373 1_556 S
C625 C629 1.308 1_556 S
C626 C625 1.373 1_554 S
C626 C627 1.429 . S
C626 H636 0.932 1_554 S
C627 C624 1.358 . S
C627 C626 1.429 . S
C627 H637 0.930 . S
C628 C624 1.332 . S
C628 C629 1.394 . S
C628 H638 0.932 . S
C629 C625 1.308 1_554 S
C629 C628 1.394 . S
C629 H639 0.929 1_554 S
C630 Tb601 2.764 . S
C630 O614 1.239 . S
C630 O615 1.263 . S
C630 C624 1.504 . S
C631 O616 1.236 . S
C631 O617 1.257 . S
H632 C605 0.932 . S
H633 C606 0.930 . S
H634 C607 0.932 . S
H635 C608 0.929 . S
H636 C626 0.932 1_556 S
H637 C627 0.930 . S
H638 C628 0.932 . S
H639 C629 0.929 1_556 S
C640 C641 1.363 . S
C640 C646 1.379 . S
C640 N648 1.356 . S
C641 C640 1.363 . S
C641 C647 1.363 . S
C642 C643 1.363 . S
C642 C647 1.379 . S
C642 N649 1.356 . S
C643 C642 1.363 . S
C643 C646 1.363 . S
N644 C646 1.356 . S
N644 H656 0.984 . S
N644 H657 0.985 . S
N645 C647 1.356 . S
N645 H650 0.984 . S
N645 H651 0.985 . S
C646 C640 1.379 . S
C646 C643 1.363 . S
C646 N644 1.356 . S
C647 C641 1.363 . S
C647 C642 1.379 . S
C647 N645 1.356 . S
N648 C640 1.356 . S
N648 H654 0.984 . S
N648 H655 0.984 . S
N649 C642 1.356 . S
N649 H652 0.984 . S
N649 H653 0.985 . S
H650 N645 0.984 . S
H651 N645 0.985 . S
H652 N649 0.984 . S
H653 N649 0.985 . S
H654 N648 0.984 . S
H655 N648 0.984 . S
H656 N644 0.984 . S
H657 N644 0.985 . S
C658 C659 1.363 . S
C658 C664 1.379 . S
C658 N666 1.356 . S
C659 C658 1.363 . S
C659 C665 1.363 . S
C660 C661 1.363 . S
C660 C665 1.379 . S
C660 N667 1.356 . S
C661 C660 1.363 . S
C661 C664 1.363 . S
N662 C664 1.356 . S
N662 H674 0.984 . S
N662 H675 0.985 . S
N663 C665 1.356 . S
N663 H668 0.984 1_556 S
N663 H669 0.985 1_556 S
C664 C658 1.379 . S
C664 C661 1.363 . S
C664 N662 1.356 . S
C665 C659 1.363 . S
C665 C660 1.379 . S
C665 N663 1.356 . S
N666 C658 1.356 . S
N666 H672 0.984 . S
N666 H673 0.984 . S
N667 C660 1.356 . S
N667 H670 0.984 . S
N667 H671 0.985 . S
H668 N663 0.984 1_554 S
H669 N663 0.985 1_554 S
H670 N667 0.984 . S
H671 N667 0.985 . S
H672 N666 0.984 . S
H673 N666 0.984 . S
H674 N662 0.984 . S
H675 N662 0.985 . S
C676 C677 1.363 . S
C676 C682 1.379 . S
C676 N684 1.356 . S
C677 C676 1.363 . S
C677 C683 1.363 . S
C678 C679 1.363 . S
C678 C683 1.379 . S
C678 N685 1.356 . S
C679 C678 1.363 . S
C679 C682 1.363 . S
N680 C682 1.356 . S
N680 H692 0.984 . S
N680 H693 0.985 1_554 S
N681 C683 1.356 . S
N681 H686 0.984 . S
N681 H687 0.985 . S
C682 C676 1.379 . S
C682 C679 1.363 . S
C682 N680 1.356 . S
C683 C677 1.363 . S
C683 C678 1.379 . S
C683 N681 1.356 . S
N684 C676 1.356 . S
N684 H690 0.984 . S
N684 H691 0.984 . S
N685 C678 1.356 . S
N685 H688 0.984 . S
N685 H689 0.985 . S
H686 N681 0.984 . S
H687 N681 0.985 . S
H688 N685 0.984 . S
H689 N685 0.985 . S
H690 N684 0.984 . S
H691 N684 0.984 . S
H692 N680 0.984 . S
H693 N680 0.985 1_556 S
C694 C695 1.363 . S
C694 C700 1.379 . S
C694 N702 1.356 . S
C695 C694 1.363 . S
C695 C701 1.363 . S
C696 C697 1.363 . S
C696 C701 1.379 . S
C696 N703 1.356 . S
C697 C696 1.363 . S
C697 C700 1.363 . S
N698 C700 1.356 . S
N698 H710 0.984 . S
N698 H711 0.985 . S
N699 C701 1.356 . S
N699 H704 0.984 . S
N699 H705 0.985 . S
C700 C694 1.379 . S
C700 C697 1.363 . S
C700 N698 1.356 . S
C701 C695 1.363 . S
C701 C696 1.379 . S
C701 N699 1.356 . S
N702 C694 1.356 . S
N702 H708 0.984 . S
N702 H709 0.984 . S
N703 C696 1.356 . S
N703 H706 0.984 . S
N703 H707 0.985 . S
H704 N699 0.984 . S
H705 N699 0.985 . S
H706 N703 0.984 . S
H707 N703 0.985 . S
H708 N702 0.984 . S
H709 N702 0.984 . S
H710 N698 0.984 . S
H711 N698 0.985 . S
C712 C713 1.363 . S
C712 C718 1.379 . S
C712 N720 1.356 . S
C713 C712 1.363 . S
C713 C719 1.363 . S
C714 C715 1.363 . S
C714 C719 1.379 . S
C714 N721 1.356 . S
C715 C714 1.363 . S
C715 C718 1.363 . S
N716 C718 1.356 . S
N716 H728 0.984 . S
N716 H729 0.985 . S
N717 C719 1.356 . S
N717 H722 0.984 . S
N717 H723 0.985 . S
C718 C712 1.379 . S
C718 C715 1.363 . S
C718 N716 1.356 . S
C719 C713 1.363 . S
C719 C714 1.379 . S
C719 N717 1.356 . S
N720 C712 1.356 . S
N720 H726 0.984 . S
N720 H727 0.984 . S
N721 C714 1.356 . S
N721 H724 0.984 . S
N721 H725 0.985 . S
H722 N717 0.984 . S
H723 N717 0.985 . S
H724 N721 0.984 . S
H725 N721 0.985 . S
H726 N720 0.984 . S
H727 N720 0.984 . S
H728 N716 0.984 . S
H729 N716 0.985 . S
C730 C731 1.363 . S
C730 C736 1.379 . S
C730 N738 1.356 . S
C731 C730 1.363 . S
C731 C737 1.363 . S
C732 C733 1.363 . S
C732 C737 1.379 . S
C732 N739 1.356 . S
C733 C732 1.363 . S
C733 C736 1.363 . S
N734 C736 1.356 . S
N734 H746 0.984 . S
N734 H747 0.985 . S
N735 C737 1.356 . S
N735 H740 0.984 . S
N735 H741 0.985 . S
C736 C730 1.379 . S
C736 C733 1.363 . S
C736 N734 1.356 . S
C737 C731 1.363 . S
C737 C732 1.379 . S
C737 N735 1.356 . S
N738 C730 1.356 . S
N738 H744 0.984 . S
N738 H745 0.984 . S
N739 C732 1.356 . S
N739 H742 0.984 . S
N739 H743 0.985 . S
H740 N735 0.984 . S
H741 N735 0.985 . S
H742 N739 0.984 . S
H743 N739 0.985 . S
H744 N738 0.984 . S
H745 N738 0.984 . S
H746 N734 0.984 . S
H747 N734 0.985 . S
C748 C749 1.363 . S
C748 C754 1.379 . S
C748 N756 1.356 . S
C749 C748 1.363 . S
C749 C755 1.363 . S
C750 C751 1.363 . S
C750 C755 1.379 . S
C750 N757 1.356 . S
C751 C750 1.363 . S
C751 C754 1.363 . S
N752 C754 1.356 . S
N752 H764 0.984 . S
N752 H765 0.985 . S
N753 C755 1.356 . S
N753 H758 0.984 . S
N753 H759 0.985 . S
C754 C748 1.379 . S
C754 C751 1.363 . S
C754 N752 1.356 . S
C755 C749 1.363 . S
C755 C750 1.379 . S
C755 N753 1.356 . S
N756 C748 1.356 . S
N756 H762 0.984 . S
N756 H763 0.984 . S
N757 C750 1.356 . S
N757 H760 0.984 . S
N757 H761 0.985 . S
H758 N753 0.984 . S
H759 N753 0.985 . S
H760 N757 0.984 . S
H761 N757 0.985 . S
H762 N756 0.984 . S
H763 N756 0.984 . S
H764 N752 0.984 . S
H765 N752 0.985 . S
C766 C767 1.363 . S
C766 C772 1.379 . S
C766 N774 1.356 . S
C767 C766 1.363 . S
C767 C773 1.363 . S
C768 C769 1.363 . S
C768 C773 1.379 . S
C768 N775 1.356 . S
C769 C768 1.363 . S
C769 C772 1.363 . S
N770 C772 1.356 . S
N770 H782 0.984 . S
N770 H783 0.985 . S
N771 C773 1.356 . S
N771 H776 0.994 . S
N771 H777 0.985 . S
C772 C766 1.379 . S
C772 C769 1.363 . S
C772 N770 1.356 . S
C773 C767 1.363 . S
C773 C768 1.379 . S
C773 N771 1.356 . S
N774 C766 1.356 . S
N774 H780 0.984 . S
N774 H781 0.984 . S
N775 C768 1.356 . S
N775 H778 0.984 . S
N775 H779 0.985 . S
H776 N771 0.994 . S
H777 N771 0.985 . S
H778 N775 0.984 . S
H779 N775 0.985 . S
H780 N774 0.984 . S
H781 N774 0.984 . S
H782 N770 0.984 . S
H783 N770 0.985 . S
C784 C785 1.363 . S
C784 C790 1.379 . S
C784 N792 1.356 . S
C785 C784 1.363 . S
C785 C791 1.363 . S
C786 C787 1.363 . S
C786 C791 1.379 . S
C786 N793 1.356 . S
C787 C786 1.363 . S
C787 C790 1.363 . S
N788 C790 1.356 . S
N788 H800 0.984 . S
N788 H801 0.985 . S
N789 C791 1.356 . S
N789 H794 0.984 . S
N789 H795 0.985 . S
C790 C784 1.379 . S
C790 C787 1.363 . S
C790 N788 1.356 . S
C791 C785 1.363 . S
C791 C786 1.379 . S
C791 N789 1.356 . S
N792 C784 1.356 . S
N792 H798 0.984 . S
N792 H799 0.984 . S
N793 C786 1.356 . S
N793 H796 0.984 . S
N793 H797 0.985 . S
H794 N789 0.984 . S
H795 N789 0.985 . S
H796 N793 0.984 . S
H797 N793 0.985 . S
H798 N792 0.984 . S
H799 N792 0.984 . S
H800 N788 0.984 . S
H801 N788 0.985 . S
C802 C803 1.363 . S
C802 C808 1.379 . S
C802 N810 1.356 . S
C803 C802 1.363 . S
C803 C809 1.363 . S
C804 C805 1.363 . S
C804 C809 1.379 . S
C804 N811 1.356 . S
C805 C804 1.363 . S
C805 C808 1.363 . S
N806 C808 1.356 . S
N806 H818 0.984 . S
N806 H819 0.985 . S
N807 C809 1.356 . S
N807 H812 0.984 . S
N807 H813 0.985 . S
C808 C802 1.379 . S
C808 C805 1.363 . S
C808 N806 1.356 . S
C809 C803 1.363 . S
C809 C804 1.379 . S
C809 N807 1.356 . S
N810 C802 1.356 . S
N810 H816 0.984 . S
N810 H817 0.984 . S
N811 C804 1.356 . S
N811 H814 0.984 1_554 S
N811 H815 0.985 . S
H812 N807 0.984 . S
H813 N807 0.985 . S
H814 N811 0.984 1_556 S
H815 N811 0.985 . S
H816 N810 0.984 . S
H817 N810 0.984 . S
H818 N806 0.984 . S
H819 N806 0.985 . S
C820 C821 1.363 . S
C820 C826 1.379 . S
C820 N828 1.356 . S
C821 C820 1.363 . S
C821 C827 1.363 . S
C822 C823 1.363 . S
C822 C827 1.379 . S
C822 N829 1.356 . S
C823 C822 1.363 . S
C823 C826 1.363 . S
N824 C826 1.356 . S
N824 H836 0.984 . S
N824 H837 0.985 . S
N825 C827 1.356 . S
N825 H830 0.984 1_556 S
N825 H831 0.985 . S
C826 C820 1.379 . S
C826 C823 1.363 . S
C826 N824 1.356 . S
C827 C821 1.363 . S
C827 C822 1.379 . S
C827 N825 1.356 . S
N828 C820 1.356 . S
N828 H834 0.984 . S
N828 H835 0.984 . S
N829 C822 1.356 . S
N829 H832 0.984 . S
N829 H833 0.985 . S
H830 N825 0.984 1_554 S
H831 N825 0.985 . S
H832 N829 0.984 . S
H833 N829 0.985 . S
H834 N828 0.984 . S
H835 N828 0.984 . S
H836 N824 0.984 . S
H837 N824 0.985 . S
C838 C839 1.363 . S
C838 C844 1.379 . S
C838 N846 1.356 . S
C839 C838 1.363 . S
C839 C845 1.363 . S
C840 C841 1.363 . S
C840 C845 1.379 . S
C840 N847 1.356 . S
C841 C840 1.363 . S
C841 C844 1.363 . S
N842 C844 1.356 . S
N842 H854 0.984 . S
N842 H855 0.985 . S
N843 C845 1.356 . S
N843 H848 0.984 . S
N843 H849 0.985 . S
C844 C838 1.379 . S
C844 C841 1.363 . S
C844 N842 1.356 . S
C845 C839 1.363 . S
C845 C840 1.379 . S
C845 N843 1.356 . S
N846 C838 1.356 . S
N846 H852 0.984 . S
N846 H853 0.984 . S
N847 C840 1.356 . S
N847 H850 0.984 . S
N847 H851 0.985 . S
H848 N843 0.984 . S
H849 N843 0.985 . S
H850 N847 0.984 . S
H851 N847 0.985 . S
H852 N846 0.984 . S
H853 N846 0.984 . S
H854 N842 0.984 . S
H855 N842 0.985 . S
C856 C857 1.363 . S
C856 C862 1.379 . S
C856 N864 1.356 . S
C857 C856 1.363 . S
C857 C863 1.363 . S
C858 C859 1.363 . S
C858 C863 1.379 . S
C858 N865 1.356 . S
C859 C858 1.363 . S
C859 C862 1.363 . S
N860 C862 1.356 . S
N860 H872 0.984 . S
N860 H873 0.985 . S
N861 C863 1.356 . S
N861 H866 0.984 . S
N861 H867 0.985 . S
C862 C856 1.379 . S
C862 C859 1.363 . S
C862 N860 1.356 . S
C863 C857 1.363 . S
C863 C858 1.379 . S
C863 N861 1.356 . S
N864 C856 1.356 . S
N864 H870 0.984 . S
N864 H871 0.984 . S
N865 C858 1.356 . S
N865 H868 0.984 . S
N865 H869 0.985 . S
H866 N861 0.984 . S
H867 N861 0.985 . S
H868 N865 0.984 . S
H869 N865 0.985 . S
H870 N864 0.984 . S
H871 N864 0.984 . S
H872 N860 0.984 . S
H873 N860 0.985 . S
C874 C875 1.363 . S
C874 C880 1.379 . S
C874 N882 1.356 . S
C875 C874 1.363 . S
C875 C881 1.363 . S
C876 C877 1.363 . S
C876 C881 1.379 . S
C876 N883 1.356 . S
C877 C876 1.363 . S
C877 C880 1.363 . S
N878 C880 1.356 . S
N878 H890 0.984 . S
N878 H891 0.985 . S
N879 C881 1.356 . S
N879 H884 0.984 . S
N879 H885 0.985 . S
C880 C874 1.379 . S
C880 C877 1.363 . S
C880 N878 1.356 . S
C881 C875 1.363 . S
C881 C876 1.379 . S
C881 N879 1.356 . S
N882 C874 1.356 . S
N882 H888 0.984 . S
N882 H889 0.984 . S
N883 C876 1.356 . S
N883 H886 0.984 . S
N883 H887 0.985 . S
H884 N879 0.984 . S
H885 N879 0.985 . S
H886 N883 0.984 . S
H887 N883 0.985 . S
H888 N882 0.984 . S
H889 N882 0.984 . S
H890 N878 0.984 . S
H891 N878 0.985 . S
C892 C893 1.363 . S
C892 C898 1.379 . S
C892 N900 1.356 . S
C893 C892 1.363 . S
C893 C899 1.363 . S
C894 C895 1.363 . S
C894 C899 1.379 . S
C894 N901 1.356 . S
C895 C894 1.363 . S
C895 C898 1.363 . S
N896 C898 1.356 . S
N896 H908 0.984 . S
N896 H909 0.985 . S
N897 C899 1.356 . S
N897 H902 0.984 . S
N897 H903 0.985 . S
C898 C892 1.379 . S
C898 C895 1.363 . S
C898 N896 1.356 . S
C899 C893 1.363 . S
C899 C894 1.379 . S
C899 N897 1.356 . S
N900 C892 1.356 . S
N900 H906 0.984 . S
N900 H907 0.984 . S
N901 C894 1.356 . S
N901 H904 0.984 . S
N901 H905 0.985 . S
H902 N897 0.984 . S
H903 N897 0.985 . S
H904 N901 0.984 . S
H905 N901 0.985 . S
H906 N900 0.984 . S
H907 N900 0.984 . S
H908 N896 0.984 . S
H909 N896 0.985 . S
C910 C911 1.363 . S
C910 C916 1.379 . S
C910 N918 1.356 . S
C911 C910 1.363 . S
C911 C917 1.363 . S
C912 C913 1.363 . S
C912 C917 1.379 . S
C912 N919 1.356 . S
C913 C912 1.363 . S
C913 C916 1.363 . S
N914 C916 1.356 . S
N914 H926 0.984 . S
N914 H927 0.985 . S
N915 C917 1.356 . S
N915 H920 0.984 . S
N915 H921 0.985 . S
C916 C910 1.379 . S
C916 C913 1.363 . S
C916 N914 1.356 . S
C917 C911 1.363 . S
C917 C912 1.379 . S
C917 N915 1.356 . S
N918 C910 1.356 . S
N918 H924 0.984 . S
N918 H925 0.984 . S
N919 C912 1.356 . S
N919 H922 0.984 . S
N919 H923 0.985 . S
H920 N915 0.984 . S
H921 N915 0.985 . S
H922 N919 0.984 . S
H923 N919 0.985 . S
H924 N918 0.984 . S
H925 N918 0.984 . S
H926 N914 0.984 . S
H927 N914 0.985 . S
C928 C929 1.363 . S
C928 C934 1.379 . S
C928 N936 1.356 . S
C929 C928 1.363 . S
C929 C935 1.363 . S
C930 C931 1.363 . S
C930 C935 1.379 . S
C930 N937 1.356 . S
C931 C930 1.363 . S
C931 C934 1.363 . S
N932 C934 1.356 . S
N932 H944 0.984 . S
N932 H945 0.985 . S
N933 C935 1.356 . S
N933 H938 0.984 . S
N933 H939 0.985 . S
C934 C928 1.379 . S
C934 C931 1.363 . S
C934 N932 1.356 . S
C935 C929 1.363 . S
C935 C930 1.379 . S
C935 N933 1.356 . S
N936 C928 1.356 . S
N936 H942 0.984 . S
N936 H943 0.984 . S
N937 C930 1.356 . S
N937 H940 0.984 . S
N937 H941 0.985 . S
H938 N933 0.984 . S
H939 N933 0.985 . S
H940 N937 0.984 . S
H941 N937 0.985 . S
H942 N936 0.984 . S
H943 N936 0.984 . S
H944 N932 0.984 . S
H945 N932 0.985 . S
C946 C947 1.363 . S
C946 C952 1.379 . S
C946 N954 1.356 . S
C947 C946 1.363 . S
C947 C953 1.363 . S
C948 C949 1.363 . S
C948 C953 1.379 . S
C948 N955 1.356 . S
C949 C948 1.363 . S
C949 C952 1.363 . S
N950 C952 1.356 . S
N950 H962 0.984 . S
N950 H963 0.985 . S
N951 C953 1.356 . S
N951 H956 0.984 . S
N951 H957 0.985 . S
C952 C946 1.379 . S
C952 C949 1.363 . S
C952 N950 1.356 . S
C953 C947 1.363 . S
C953 C948 1.379 . S
C953 N951 1.356 . S
N954 C946 1.356 . S
N954 H960 0.984 . S
N954 H961 0.984 . S
N955 C948 1.356 . S
N955 H958 0.984 . S
N955 H959 0.985 . S
H956 N951 0.984 . S
H957 N951 0.985 . S
H958 N955 0.984 . S
H959 N955 0.985 . S
H960 N954 0.984 . S
H961 N954 0.984 . S
H962 N950 0.984 . S
H963 N950 0.985 . S
C964 C965 1.363 . S
C964 C970 1.379 . S
C964 N972 1.356 . S
C965 C964 1.363 . S
C965 C971 1.363 . S
C966 C967 1.363 . S
C966 C971 1.379 . S
C966 N973 1.356 . S
C967 C966 1.363 . S
C967 C970 1.363 . S
N968 C970 1.356 . S
N968 H980 0.984 . S
N968 H981 0.985 . S
N969 C971 1.356 . S
N969 H974 0.984 . S
N969 H975 0.985 . S
C970 C964 1.379 . S
C970 C967 1.363 . S
C970 N968 1.356 . S
C971 C965 1.363 . S
C971 C966 1.379 . S
C971 N969 1.356 . S
N972 C964 1.356 . S
N972 H978 0.984 . S
N972 H979 0.984 . S
N973 C966 1.356 . S
N973 H976 0.984 . S
N973 H977 0.985 . S
H974 N969 0.984 . S
H975 N969 0.985 . S
H976 N973 0.984 . S
H977 N973 0.985 . S
H978 N972 0.984 . S
H979 N972 0.984 . S
H980 N968 0.984 . S
H981 N968 0.985 . S
C982 C983 1.363 . S
C982 C988 1.379 1_655 S
C982 N990 1.356 . S
C983 C982 1.363 . S
C983 C989 1.363 . S
C984 C985 1.363 . S
C984 C989 1.379 1_455 S
C984 N991 1.356 1_556 S
C985 C984 1.363 . S
C985 C988 1.363 . S
N986 C988 1.356 . S
N986 H998 0.984 . S
N986 H999 0.985 . S
N987 C989 1.356 1_554 S
N987 H992 0.984 . S
N987 H993 0.985 . S
C988 C982 1.379 1_455 S
C988 C985 1.363 . S
C988 N986 1.356 . S
C989 C983 1.363 . S
C989 C984 1.379 1_655 S
C989 N987 1.356 1_556 S
N990 C982 1.356 . S
N990 H996 0.984 . S
N990 H997 0.984 . S
N991 C984 1.356 1_554 S
N991 H994 0.984 . S
N991 H995 0.985 . S
H992 N987 0.984 . S
H993 N987 0.985 . S
H994 N991 0.984 . S
H995 N991 0.985 . S
H996 N990 0.984 . S
H997 N990 0.984 . S
H998 N986 0.984 . S
H999 N986 0.985 . S
C1000 C1001 1.363 . S
C1000 C1006 1.379 . S
C1000 N1008 1.356 . S
C1001 C1000 1.363 . S
C1001 C1007 1.363 . S
C1002 C1003 1.363 . S
C1002 C1007 1.379 . S
C1002 N1009 1.356 . S
C1003 C1002 1.363 . S
C1003 C1006 1.363 . S
N1004 C1006 1.356 . S
N1004 H1016 0.984 . S
N1004 H1017 0.985 . S
N1005 C1007 1.356 . S
N1005 H1010 0.984 . S
N1005 H1011 0.985 . S
C1006 C1000 1.379 . S
C1006 C1003 1.363 . S
C1006 N1004 1.356 . S
C1007 C1001 1.363 . S
C1007 C1002 1.379 . S
C1007 N1005 1.356 . S
N1008 C1000 1.356 . S
N1008 H1014 0.984 . S
N1008 H1015 0.984 . S
N1009 C1002 1.356 . S
N1009 H1012 0.984 . S
N1009 H1013 0.985 . S
H1010 N1005 0.984 . S
H1011 N1005 0.985 . S
H1012 N1009 0.984 . S
H1013 N1009 0.985 . S
H1014 N1008 0.984 . S
H1015 N1008 0.984 . S
H1016 N1004 0.984 . S
H1017 N1004 0.985 . S
C1018 C1019 1.363 . S
C1018 C1024 1.379 1_455 S
C1018 N1026 1.356 . S
C1019 C1018 1.363 . S
C1019 C1025 1.363 . S
C1020 C1021 1.363 . S
C1020 C1025 1.379 1_655 S
C1020 N1027 1.356 . S
C1021 C1020 1.363 . S
C1021 C1024 1.363 . S
N1022 C1024 1.356 . S
N1022 H1034 0.984 . S
N1022 H1035 0.985 . S
N1023 C1025 1.356 . S
N1023 H1028 0.984 . S
N1023 H1029 0.985 . S
C1024 C1018 1.379 1_655 S
C1024 C1021 1.363 . S
C1024 N1022 1.356 . S
C1025 C1019 1.363 . S
C1025 C1020 1.379 1_455 S
C1025 N1023 1.356 . S
N1026 C1018 1.356 . S
N1026 H1032 0.984 . S
N1026 H1033 0.984 . S
N1027 C1020 1.356 . S
N1027 H1030 0.984 . S
N1027 H1031 0.985 . S
H1028 N1023 0.984 . S
H1029 N1023 0.985 . S
H1030 N1027 0.984 . S
H1031 N1027 0.985 . S
H1032 N1026 0.984 . S
H1033 N1026 0.984 . S
H1034 N1022 0.984 . S
H1035 N1022 0.985 . S
C1036 C1037 1.363 . S
C1036 C1042 1.379 . S
C1036 N1044 1.356 . S
C1037 C1036 1.363 . S
C1037 C1043 1.363 . S
C1038 C1039 1.363 . S
C1038 C1043 1.379 . S
C1038 N1045 1.356 . S
C1039 C1038 1.363 . S
C1039 C1042 1.363 . S
N1040 C1042 1.356 . S
N1040 H1052 0.984 . S
N1040 H1053 0.985 . S
N1041 C1043 1.356 . S
N1041 H1046 0.984 . S
N1041 H1047 0.985 . S
C1042 C1036 1.379 . S
C1042 C1039 1.363 . S
C1042 N1040 1.356 . S
C1043 C1037 1.363 . S
C1043 C1038 1.379 . S
C1043 N1041 1.356 . S
N1044 C1036 1.356 . S
N1044 H1050 0.984 . S
N1044 H1051 0.984 . S
N1045 C1038 1.356 . S
N1045 H1048 0.984 . S
N1045 H1049 0.985 . S
H1046 N1041 0.984 . S
H1047 N1041 0.985 . S
H1048 N1045 0.984 . S
H1049 N1045 0.985 . S
H1050 N1044 0.984 . S
H1051 N1044 0.984 . S
H1052 N1040 0.984 . S
H1053 N1040 0.985 . S
C1054 C1055 1.363 . S
C1054 C1060 1.379 . S
C1054 N1062 1.356 . S
C1055 C1054 1.363 . S
C1055 C1061 1.363 . S
C1056 C1057 1.363 . S
C1056 C1061 1.379 . S
C1056 N1063 1.356 . S
C1057 C1056 1.363 . S
C1057 C1060 1.363 . S
N1058 C1060 1.356 . S
N1058 H1070 0.984 . S
N1058 H1071 0.985 . S
N1059 C1061 1.356 . S
N1059 H1064 0.984 . S
N1059 H1065 0.985 . S
C1060 C1054 1.379 . S
C1060 C1057 1.363 . S
C1060 N1058 1.356 . S
C1061 C1055 1.363 . S
C1061 C1056 1.379 . S
C1061 N1059 1.356 . S
N1062 C1054 1.356 . S
N1062 H1068 0.984 . S
N1062 H1069 0.984 . S
N1063 C1056 1.356 . S
N1063 H1066 0.984 . S
N1063 H1067 0.985 . S
H1064 N1059 0.984 . S
H1065 N1059 0.985 . S
H1066 N1063 0.984 . S
H1067 N1063 0.985 . S
H1068 N1062 0.984 . S
H1069 N1062 0.984 . S
H1070 N1058 0.984 . S
H1071 N1058 0.985 . S
C1072 C1073 1.363 . S
C1072 C1078 1.379 . S
C1072 N1080 1.356 . S
C1073 C1072 1.363 . S
C1073 C1079 1.363 . S
C1074 C1075 1.363 . S
C1074 C1079 1.379 . S
C1074 N1081 1.356 . S
C1075 C1074 1.363 . S
C1075 C1078 1.363 . S
N1076 C1078 1.356 . S
N1076 H1088 0.984 . S
N1076 H1089 0.985 . S
N1077 C1079 1.356 . S
N1077 H1082 0.984 . S
N1077 H1083 0.985 . S
C1078 C1072 1.379 . S
C1078 C1075 1.363 . S
C1078 N1076 1.356 . S
C1079 C1073 1.363 . S
C1079 C1074 1.379 . S
C1079 N1077 1.356 . S
N1080 C1072 1.356 . S
N1080 H1086 0.984 . S
N1080 H1087 0.984 . S
N1081 C1074 1.356 . S
N1081 H1084 0.984 . S
N1081 H1085 0.985 . S
H1082 N1077 0.984 . S
H1083 N1077 0.985 . S
H1084 N1081 0.984 . S
H1085 N1081 0.985 . S
H1086 N1080 0.984 . S
H1087 N1080 0.984 . S
H1088 N1076 0.984 . S
H1089 N1076 0.985 . S
C1090 C1091 1.363 . S
C1090 C1096 1.379 . S
C1090 N1098 1.356 . S
C1091 C1090 1.363 . S
C1091 C1097 1.363 . S
C1092 C1093 1.363 . S
C1092 C1097 1.379 . S
C1092 N1099 1.356 . S
C1093 C1092 1.363 . S
C1093 C1096 1.363 . S
N1094 C1096 1.356 . S
N1094 H1106 0.984 . S
N1094 H1107 0.985 . S
N1095 C1097 1.356 . S
N1095 H1100 0.984 . S
N1095 H1101 0.985 . S
C1096 C1090 1.379 . S
C1096 C1093 1.363 . S
C1096 N1094 1.356 . S
C1097 C1091 1.363 . S
C1097 C1092 1.379 . S
C1097 N1095 1.356 . S
N1098 C1090 1.356 . S
N1098 H1104 0.984 . S
N1098 H1105 0.984 . S
N1099 C1092 1.356 . S
N1099 H1102 0.984 . S
N1099 H1103 0.985 . S
H1100 N1095 0.984 . S
H1101 N1095 0.985 . S
H1102 N1099 0.984 . S
H1103 N1099 0.985 . S
H1104 N1098 0.984 . S
H1105 N1098 0.984 . S
H1106 N1094 0.984 . S
H1107 N1094 0.985 . S
C1108 C1109 1.363 . S
C1108 C1114 1.379 . S
C1108 N1116 1.356 . S
C1109 C1108 1.363 . S
C1109 C1115 1.363 . S
C1110 C1111 1.363 . S
C1110 C1115 1.379 . S
C1110 N1117 1.356 . S
C1111 C1110 1.363 . S
C1111 C1114 1.363 . S
N1112 C1114 1.356 . S
N1112 H1124 0.984 . S
N1112 H1125 0.985 . S
N1113 C1115 1.356 . S
N1113 H1118 0.984 . S
N1113 H1119 0.985 . S
C1114 C1108 1.379 . S
C1114 C1111 1.363 . S
C1114 N1112 1.356 . S
C1115 C1109 1.363 . S
C1115 C1110 1.379 . S
C1115 N1113 1.356 . S
N1116 C1108 1.356 . S
N1116 H1122 0.984 . S
N1116 H1123 0.984 . S
N1117 C1110 1.356 . S
N1117 H1120 0.984 . S
N1117 H1121 0.985 . S
H1118 N1113 0.984 . S
H1119 N1113 0.985 . S
H1120 N1117 0.984 . S
H1121 N1117 0.985 . S
H1122 N1116 0.984 . S
H1123 N1116 0.984 . S
H1124 N1112 0.984 . S
H1125 N1112 0.985 . S
C1126 C1127 1.363 . S
C1126 C1132 1.379 . S
C1126 N1134 1.356 . S
C1127 C1126 1.363 . S
C1127 C1133 1.363 . S
C1128 C1129 1.363 . S
C1128 C1133 1.379 . S
C1128 N1135 1.356 . S
C1129 C1128 1.363 . S
C1129 C1132 1.363 . S
N1130 C1132 1.356 . S
N1130 H1142 0.984 . S
N1130 H1143 0.985 . S
N1131 C1133 1.356 . S
N1131 H1136 0.984 . S
N1131 H1137 0.985 . S
C1132 C1126 1.379 . S
C1132 C1129 1.363 . S
C1132 N1130 1.356 . S
C1133 C1127 1.363 . S
C1133 C1128 1.379 . S
C1133 N1131 1.356 . S
N1134 C1126 1.356 . S
N1134 H1140 0.984 . S
N1134 H1141 0.984 . S
N1135 C1128 1.356 . S
N1135 H1138 0.984 . S
N1135 H1139 0.985 . S
H1136 N1131 0.984 . S
H1137 N1131 0.985 . S
H1138 N1135 0.984 . S
H1139 N1135 0.985 . S
H1140 N1134 0.984 . S
H1141 N1134 0.984 . S
H1142 N1130 0.984 . S
H1143 N1130 0.985 . S
C1144 C1145 1.363 . S
C1144 C1150 1.379 1_655 S
C1144 N1152 1.356 . S
C1145 C1144 1.363 . S
C1145 C1151 1.358 1_556 S
C1146 C1147 1.357 1_554 S
C1146 C1151 1.379 1_455 S
C1146 N1153 1.361 . S
C1147 C1146 1.357 1_556 S
C1147 C1150 1.363 . S
N1148 C1150 1.356 . S
N1148 H1160 0.984 . S
N1148 H1161 0.985 . S
N1149 C1151 1.360 . S
N1149 H1154 0.984 . S
N1149 H1155 0.985 . S
C1150 C1144 1.379 1_455 S
C1150 C1147 1.363 . S
C1150 N1148 1.356 . S
C1151 C1145 1.358 1_554 S
C1151 C1146 1.379 1_655 S
C1151 N1149 1.360 . S
N1152 C1144 1.356 . S
N1152 H1158 0.984 . S
N1152 H1159 0.984 . S
N1153 C1146 1.361 . S
N1153 H1156 0.984 . S
N1153 H1157 0.985 . S
H1154 N1149 0.984 . S
H1155 N1149 0.985 . S
H1156 N1153 0.984 . S
H1157 N1153 0.985 . S
H1158 N1152 0.984 . S
H1159 N1152 0.984 . S
H1160 N1148 0.984 . S
H1161 N1148 0.985 . S
C1162 C1163 1.363 . S
C1162 C1168 1.379 . S
C1162 N1170 1.356 . S
C1163 C1162 1.363 . S
C1163 C1169 1.363 . S
C1164 C1165 1.363 . S
C1164 C1169 1.379 . S
C1164 N1171 1.356 . S
C1165 C1164 1.363 . S
C1165 C1168 1.363 . S
N1166 C1168 1.356 . S
N1166 H1178 0.984 . S
N1166 H1179 0.985 . S
N1167 C1169 1.356 . S
N1167 H1172 0.984 . S
N1167 H1173 0.985 . S
C1168 C1162 1.379 . S
C1168 C1165 1.363 . S
C1168 N1166 1.356 . S
C1169 C1163 1.363 . S
C1169 C1164 1.379 . S
C1169 N1167 1.356 . S
N1170 C1162 1.356 . S
N1170 H1176 0.984 . S
N1170 H1177 0.984 . S
N1171 C1164 1.356 . S
N1171 H1174 0.984 . S
N1171 H1175 0.985 . S
H1172 N1167 0.984 . S
H1173 N1167 0.985 . S
H1174 N1171 0.984 . S
H1175 N1171 0.985 . S
H1176 N1170 0.984 . S
H1177 N1170 0.984 . S
H1178 N1166 0.984 . S
H1179 N1166 0.985 . S
C1180 C1181 1.363 . S
C1180 C1186 1.379 . S
C1180 N1188 1.356 . S
C1181 C1180 1.363 . S
C1181 C1187 1.363 . S
C1182 C1183 1.363 . S
C1182 C1187 1.379 . S
C1182 N1189 1.356 . S
C1183 C1182 1.363 . S
C1183 C1186 1.363 . S
N1184 C1186 1.356 . S
N1184 H1196 0.984 . S
N1184 H1197 0.985 . S
N1185 C1187 1.356 . S
N1185 H1190 0.984 . S
N1185 H1191 0.985 . S
C1186 C1180 1.379 . S
C1186 C1183 1.363 . S
C1186 N1184 1.356 . S
C1187 C1181 1.363 . S
C1187 C1182 1.379 . S
C1187 N1185 1.356 . S
N1188 C1180 1.356 . S
N1188 H1194 0.984 . S
N1188 H1195 0.984 . S
N1189 C1182 1.356 . S
N1189 H1192 0.984 . S
N1189 H1193 0.985 . S
H1190 N1185 0.984 . S
H1191 N1185 0.985 . S
H1192 N1189 0.984 . S
H1193 N1189 0.985 . S
H1194 N1188 0.984 . S
H1195 N1188 0.984 . S
H1196 N1184 0.984 . S
H1197 N1184 0.985 . S
C1198 C1199 1.363 . S
C1198 C1204 1.379 1_455 S
C1198 N1206 1.356 . S
C1199 C1198 1.363 . S
C1199 C1205 1.363 . S
C1200 C1201 1.363 . S
C1200 C1205 1.379 1_655 S
C1200 N1207 1.356 . S
C1201 C1200 1.363 . S
C1201 C1204 1.363 . S
N1202 C1204 1.356 . S
N1202 H1214 0.984 . S
N1202 H1215 0.985 . S
N1203 C1205 1.356 . S
N1203 H1208 0.984 . S
N1203 H1209 0.985 . S
C1204 C1198 1.379 1_655 S
C1204 C1201 1.363 . S
C1204 N1202 1.356 . S
C1205 C1199 1.363 . S
C1205 C1200 1.379 1_455 S
C1205 N1203 1.356 . S
N1206 C1198 1.356 . S
N1206 H1212 0.984 . S
N1206 H1213 0.984 . S
N1207 C1200 1.356 . S
N1207 H1210 0.984 . S
N1207 H1211 0.985 . S
H1208 N1203 0.984 . S
H1209 N1203 0.985 . S
H1210 N1207 0.984 . S
H1211 N1207 0.985 . S
H1212 N1206 0.984 . S
H1213 N1206 0.984 . S
H1214 N1202 0.984 . S
H1215 N1202 0.985 . S
C1216 C1217 1.363 1_556 S
C1216 C1222 1.379 . S
C1216 N1224 1.356 1_556 S
C1217 C1216 1.363 1_554 S
C1217 C1223 1.363 . S
C1218 C1219 1.363 1_554 S
C1218 C1223 1.379 . S
C1218 N1225 1.356 . S
C1219 C1218 1.363 1_556 S
C1219 C1222 1.363 . S
N1220 C1222 1.356 . S
N1220 H1232 0.984 . S
N1220 H1233 0.985 . S
N1221 C1223 1.356 . S
N1221 H1226 0.984 . S
N1221 H1227 0.985 . S
C1222 C1216 1.379 . S
C1222 C1219 1.363 . S
C1222 N1220 1.356 . S
C1223 C1217 1.363 . S
C1223 C1218 1.379 . S
C1223 N1221 1.356 . S
N1224 C1216 1.356 1_554 S
N1224 H1230 0.981 1_554 S
N1224 H1231 0.988 . S
N1225 C1218 1.356 . S
N1225 H1228 0.984 1_554 S
N1225 H1229 0.985 . S
H1226 N1221 0.984 . S
H1227 N1221 0.985 . S
H1228 N1225 0.984 1_556 S
H1229 N1225 0.985 . S
H1230 N1224 0.981 1_556 S
H1231 N1224 0.988 . S
H1232 N1220 0.984 . S
H1233 N1220 0.985 . S
C1234 C1235 1.363 . S
C1234 C1240 1.379 . S
C1234 N1242 1.356 . S
C1235 C1234 1.363 . S
C1235 C1241 1.363 . S
C1236 C1237 1.363 . S
C1236 C1241 1.379 . S
C1236 N1243 1.356 . S
C1237 C1236 1.363 . S
C1237 C1240 1.363 . S
N1238 C1240 1.356 . S
N1238 H1250 0.984 . S
N1238 H1251 0.985 . S
N1239 C1241 1.356 . S
N1239 H1244 0.984 . S
N1239 H1245 0.985 . S
C1240 C1234 1.379 . S
C1240 C1237 1.363 . S
C1240 N1238 1.356 . S
C1241 C1235 1.363 . S
C1241 C1236 1.379 . S
C1241 N1239 1.356 . S
N1242 C1234 1.356 . S
N1242 H1248 0.984 . S
N1242 H1249 0.984 . S
N1243 C1236 1.356 . S
N1243 H1246 0.984 . S
N1243 H1247 0.985 . S
H1244 N1239 0.984 . S
H1245 N1239 0.985 . S
H1246 N1243 0.984 . S
H1247 N1243 0.985 . S
H1248 N1242 0.984 . S
H1249 N1242 0.984 . S
H1250 N1238 0.984 . S
H1251 N1238 0.985 . S
C1252 C1253 1.363 . S
C1252 C1258 1.379 . S
C1252 N1260 1.356 . S
C1253 C1252 1.363 . S
C1253 C1259 1.363 . S
C1254 C1255 1.363 . S
C1254 C1259 1.379 . S
C1254 N1261 1.356 . S
C1255 C1254 1.363 . S
C1255 C1258 1.363 . S
N1256 C1258 1.356 . S
N1256 H1268 0.984 . S
N1256 H1269 0.985 . S
N1257 C1259 1.356 . S
N1257 H1262 0.984 . S
N1257 H1263 0.985 . S
C1258 C1252 1.379 . S
C1258 C1255 1.363 . S
C1258 N1256 1.356 . S
C1259 C1253 1.363 . S
C1259 C1254 1.379 . S
C1259 N1257 1.356 . S
N1260 C1252 1.356 . S
N1260 H1266 0.984 . S
N1260 H1267 0.984 . S
N1261 C1254 1.356 . S
N1261 H1264 0.984 . S
N1261 H1265 0.985 . S
H1262 N1257 0.984 . S
H1263 N1257 0.985 . S
H1264 N1261 0.984 . S
H1265 N1261 0.985 . S
H1266 N1260 0.984 . S
H1267 N1260 0.984 . S
H1268 N1256 0.984 . S
H1269 N1256 0.985 . S
C1270 C1271 1.363 . S
C1270 C1276 1.379 . S
C1270 N1278 1.356 . S
C1271 C1270 1.363 . S
C1271 C1277 1.363 . S
C1272 C1273 1.363 . S
C1272 C1277 1.379 . S
C1272 N1279 1.356 . S
C1273 C1272 1.363 . S
C1273 C1276 1.363 . S
N1274 C1276 1.356 . S
N1274 H1286 0.984 . S
N1274 H1287 0.985 . S
N1275 C1277 1.356 . S
N1275 H1280 0.984 . S
N1275 H1281 0.985 . S
C1276 C1270 1.379 . S
C1276 C1273 1.363 . S
C1276 N1274 1.356 . S
C1277 C1271 1.363 . S
C1277 C1272 1.379 . S
C1277 N1275 1.356 . S
N1278 C1270 1.356 . S
N1278 H1284 0.984 . S
N1278 H1285 0.984 . S
N1279 C1272 1.356 . S
N1279 H1282 0.984 . S
N1279 H1283 0.985 . S
H1280 N1275 0.984 . S
H1281 N1275 0.985 . S
H1282 N1279 0.984 . S
H1283 N1279 0.985 . S
H1284 N1278 0.984 . S
H1285 N1278 0.984 . S
H1286 N1274 0.984 . S
H1287 N1274 0.985 . S
C1288 C1289 1.363 1_556 S
C1288 C1294 1.379 . S
C1288 N1296 1.356 . S
C1289 C1288 1.363 1_554 S
C1289 C1295 1.363 . S
C1290 C1291 1.363 1_554 S
C1290 C1295 1.379 . S
C1290 N1297 1.356 1_554 S
C1291 C1290 1.363 1_556 S
C1291 C1294 1.363 . S
N1292 C1294 1.356 . S
N1292 H1304 0.984 . S
N1292 H1305 0.985 . S
N1293 C1295 1.356 . S
N1293 H1298 0.984 . S
N1293 H1299 0.985 . S
C1294 C1288 1.379 . S
C1294 C1291 1.363 . S
C1294 N1292 1.356 . S
C1295 C1289 1.363 . S
C1295 C1290 1.379 . S
C1295 N1293 1.356 . S
N1296 C1288 1.356 . S
N1296 H1302 0.984 . S
N1296 H1303 0.984 1_556 S
N1297 C1290 1.356 1_556 S
N1297 H1300 0.984 . S
N1297 H1301 0.985 1_556 S
H1298 N1293 0.984 . S
H1299 N1293 0.985 . S
H1300 N1297 0.984 . S
H1301 N1297 0.985 1_554 S
H1302 N1296 0.984 . S
H1303 N1296 0.984 1_554 S
H1304 N1292 0.984 . S
H1305 N1292 0.985 . S
C1306 C1307 1.363 . S
C1306 C1312 1.379 . S
C1306 N1314 1.356 . S
C1307 C1306 1.363 . S
C1307 C1313 1.363 . S
C1308 C1309 1.363 . S
C1308 C1313 1.379 . S
C1308 N1315 1.356 . S
C1309 C1308 1.363 . S
C1309 C1312 1.363 . S
N1310 C1312 1.356 . S
N1310 H1322 0.984 . S
N1310 H1323 0.985 . S
N1311 C1313 1.356 . S
N1311 H1316 0.984 . S
N1311 H1317 0.985 . S
C1312 C1306 1.379 . S
C1312 C1309 1.363 . S
C1312 N1310 1.356 . S
C1313 C1307 1.363 . S
C1313 C1308 1.379 . S
C1313 N1311 1.356 . S
N1314 C1306 1.356 . S
N1314 H1320 0.984 . S
N1314 H1321 0.984 . S
N1315 C1308 1.356 . S
N1315 H1318 0.984 . S
N1315 H1319 0.985 . S
H1316 N1311 0.984 . S
H1317 N1311 0.985 . S
H1318 N1315 0.984 . S
H1319 N1315 0.985 . S
H1320 N1314 0.984 . S
H1321 N1314 0.984 . S
H1322 N1310 0.984 . S
H1323 N1310 0.985 . S
C1324 C1325 1.363 . S
C1324 C1330 1.379 . S
C1324 N1332 1.356 . S
C1325 C1324 1.363 . S
C1325 C1331 1.363 . S
C1326 C1327 1.363 . S
C1326 C1331 1.379 . S
C1326 N1333 1.356 . S
C1327 C1326 1.363 . S
C1327 C1330 1.363 . S
N1328 C1330 1.356 . S
N1328 H1340 0.984 . S
N1328 H1341 0.985 . S
N1329 C1331 1.356 . S
N1329 H1334 0.984 . S
N1329 H1335 0.985 . S
C1330 C1324 1.379 . S
C1330 C1327 1.363 . S
C1330 N1328 1.356 . S
C1331 C1325 1.363 . S
C1331 C1326 1.379 . S
C1331 N1329 1.356 . S
N1332 C1324 1.356 . S
N1332 H1338 0.984 . S
N1332 H1339 0.984 . S
N1333 C1326 1.356 . S
N1333 H1336 0.984 . S
N1333 H1337 0.985 . S
H1334 N1329 0.984 . S
H1335 N1329 0.985 . S
H1336 N1333 0.984 . S
H1337 N1333 0.985 . S
H1338 N1332 0.984 . S
H1339 N1332 0.984 . S
H1340 N1328 0.984 . S
H1341 N1328 0.985 . S
C1342 C1343 1.363 . S
C1342 C1348 1.379 . S
C1342 N1350 1.356 . S
C1343 C1342 1.363 . S
C1343 C1349 1.363 . S
C1344 C1345 1.363 . S
C1344 C1349 1.379 . S
C1344 N1351 1.356 . S
C1345 C1344 1.363 . S
C1345 C1348 1.363 . S
N1346 C1348 1.356 . S
N1346 H1358 0.984 . S
N1346 H1359 0.985 . S
N1347 C1349 1.356 . S
N1347 H1352 0.984 . S
N1347 H1353 0.985 . S
C1348 C1342 1.379 . S
C1348 C1345 1.363 . S
C1348 N1346 1.356 . S
C1349 C1343 1.363 . S
C1349 C1344 1.379 . S
C1349 N1347 1.356 . S
N1350 C1342 1.356 . S
N1350 H1356 0.984 . S
N1350 H1357 0.984 . S
N1351 C1344 1.356 . S
N1351 H1354 0.984 . S
N1351 H1355 0.985 . S
H1352 N1347 0.984 . S
H1353 N1347 0.985 . S
H1354 N1351 0.984 . S
H1355 N1351 0.985 . S
H1356 N1350 0.984 . S
H1357 N1350 0.984 . S
H1358 N1346 0.984 . S
H1359 N1346 0.985 . S
C1360 C1361 1.363 1_545 S
C1360 C1366 1.379 . S
C1360 N1368 1.356 1_545 S
C1361 C1360 1.363 1_565 S
C1361 C1367 1.363 . S
C1362 C1363 1.363 1_565 S
C1362 C1367 1.379 . S
C1362 N1369 1.356 1_565 S
C1363 C1362 1.363 1_545 S
C1363 C1366 1.363 . S
N1364 C1366 1.356 . S
N1364 H1376 0.984 . S
N1364 H1377 0.985 . S
N1365 C1367 1.356 . S
N1365 H1370 0.984 . S
N1365 H1371 0.985 . S
C1366 C1360 1.379 . S
C1366 C1363 1.363 . S
C1366 N1364 1.356 . S
C1367 C1361 1.363 . S
C1367 C1362 1.379 . S
C1367 N1365 1.356 . S
N1368 C1360 1.356 1_565 S
N1368 H1374 0.984 1_565 S
N1368 H1375 0.984 . S
N1369 C1362 1.356 1_545 S
N1369 H1372 0.984 . S
N1369 H1373 0.985 1_545 S
H1370 N1365 0.984 . S
H1371 N1365 0.985 . S
H1372 N1369 0.984 . S
H1373 N1369 0.985 1_565 S
H1374 N1368 0.984 1_545 S
H1375 N1368 0.984 . S
H1376 N1364 0.984 . S
H1377 N1364 0.985 . S
C1378 C1379 1.363 . S
C1378 C1384 1.379 . S
C1378 N1386 1.356 . S
C1379 C1378 1.363 . S
C1379 C1385 1.363 . S
C1380 C1381 1.363 . S
C1380 C1385 1.379 . S
C1380 N1387 1.356 . S
C1381 C1380 1.363 . S
C1381 C1384 1.363 . S
N1382 C1384 1.356 . S
N1382 H1394 0.984 . S
N1382 H1395 0.985 . S
N1383 C1385 1.356 . S
N1383 H1388 0.984 . S
N1383 H1389 0.985 . S
C1384 C1378 1.379 . S
C1384 C1381 1.363 . S
C1384 N1382 1.356 . S
C1385 C1379 1.363 . S
C1385 C1380 1.379 . S
C1385 N1383 1.356 . S
N1386 C1378 1.356 . S
N1386 H1392 0.984 . S
N1386 H1393 0.984 . S
N1387 C1380 1.356 . S
N1387 H1390 0.984 . S
N1387 H1391 0.985 . S
H1388 N1383 0.984 . S
H1389 N1383 0.985 . S
H1390 N1387 0.984 . S
H1391 N1387 0.985 . S
H1392 N1386 0.984 . S
H1393 N1386 0.984 . S
H1394 N1382 0.984 . S
H1395 N1382 0.985 . S
C1396 C1397 1.363 1_545 S
C1396 C1402 1.379 . S
C1396 N1404 1.356 1_545 S
C1397 C1396 1.363 1_565 S
C1397 C1403 1.363 . S
C1398 C1399 1.363 . S
C1398 C1403 1.379 1_546 S
C1398 N1405 1.356 . S
C1399 C1398 1.363 . S
C1399 C1402 1.363 1_556 S
N1400 C1402 1.356 . S
N1400 H1412 0.984 . S
N1400 H1413 0.985 . S
N1401 C1403 1.356 . S
N1401 H1406 0.984 . S
N1401 H1407 0.985 . S
C1402 C1396 1.379 . S
C1402 C1399 1.363 1_554 S
C1402 N1400 1.356 . S
C1403 C1397 1.363 . S
C1403 C1398 1.379 1_564 S
C1403 N1401 1.356 . S
N1404 C1396 1.356 1_565 S
N1404 H1410 0.984 1_565 S
N1404 H1411 0.984 . S
N1405 C1398 1.356 . S
N1405 H1408 0.984 . S
N1405 H1409 0.985 1_545 S
H1406 N1401 0.984 . S
H1407 N1401 0.985 . S
H1408 N1405 0.984 . S
H1409 N1405 0.985 1_565 S
H1410 N1404 0.984 1_545 S
H1411 N1404 0.984 . S
H1412 N1400 0.984 . S
H1413 N1400 0.985 . S
C1414 C1415 1.363 . S
C1414 C1420 1.379 . S
C1414 N1422 1.356 . S
C1415 C1414 1.363 . S
C1415 C1421 1.363 . S
C1416 C1417 1.363 . S
C1416 C1421 1.379 . S
C1416 N1423 1.356 . S
C1417 C1416 1.363 . S
C1417 C1420 1.363 . S
N1418 C1420 1.356 . S
N1418 H1430 0.984 . S
N1418 H1431 0.985 . S
N1419 C1421 1.356 . S
N1419 H1424 0.984 . S
N1419 H1425 0.985 . S
C1420 C1414 1.379 . S
C1420 C1417 1.363 . S
C1420 N1418 1.356 . S
C1421 C1415 1.363 . S
C1421 C1416 1.379 . S
C1421 N1419 1.356 . S
N1422 C1414 1.356 . S
N1422 H1428 0.984 . S
N1422 H1429 0.984 . S
N1423 C1416 1.356 . S
N1423 H1426 0.984 . S
N1423 H1427 0.985 . S
H1424 N1419 0.984 . S
H1425 N1419 0.985 . S
H1426 N1423 0.984 . S
H1427 N1423 0.985 . S
H1428 N1422 0.984 . S
H1429 N1422 0.984 . S
H1430 N1418 0.984 . S
H1431 N1418 0.985 . S
C1432 C1433 1.363 . S
C1432 C1438 1.379 . S
C1432 N1440 1.356 . S
C1433 C1432 1.363 . S
C1433 C1439 1.363 1_565 S
C1434 C1435 1.363 . S
C1434 C1439 1.379 . S
C1434 N1441 1.356 . S
C1435 C1434 1.363 . S
C1435 C1438 1.363 1_545 S
N1436 C1438 1.356 1_545 S
N1436 H1448 0.984 1_545 S
N1436 H1449 0.985 . S
N1437 C1439 1.356 1_565 S
N1437 H1442 0.984 . S
N1437 H1443 0.985 1_565 S
C1438 C1432 1.379 . S
C1438 C1435 1.363 1_565 S
C1438 N1436 1.356 1_565 S
C1439 C1433 1.363 1_545 S
C1439 C1434 1.379 . S
C1439 N1437 1.356 1_545 S
N1440 C1432 1.356 . S
N1440 H1446 0.984 . S
N1440 H1447 0.984 . S
N1441 C1434 1.356 . S
N1441 H1444 0.984 . S
N1441 H1445 0.985 . S
H1442 N1437 0.984 . S
H1443 N1437 0.985 1_545 S
H1444 N1441 0.984 . S
H1445 N1441 0.985 . S
H1446 N1440 0.984 . S
H1447 N1440 0.984 . S
H1448 N1436 0.984 1_565 S
H1449 N1436 0.985 . S
C1450 C1451 1.363 . S
C1450 C1456 1.379 . S
C1450 N1458 1.356 . S
C1451 C1450 1.363 . S
C1451 C1457 1.363 . S
C1452 C1453 1.363 . S
C1452 C1457 1.379 . S
C1452 N1459 1.356 . S
C1453 C1452 1.363 . S
C1453 C1456 1.363 . S
N1454 C1456 1.356 . S
N1454 H1466 0.984 . S
N1454 H1467 0.985 . S
N1455 C1457 1.356 . S
N1455 H1460 0.984 . S
N1455 H1461 0.985 . S
C1456 C1450 1.379 . S
C1456 C1453 1.363 . S
C1456 N1454 1.356 . S
C1457 C1451 1.363 . S
C1457 C1452 1.379 . S
C1457 N1455 1.356 . S
N1458 C1450 1.356 . S
N1458 H1464 0.984 . S
N1458 H1465 0.984 . S
N1459 C1452 1.356 . S
N1459 H1462 0.984 . S
N1459 H1463 0.985 . S
H1460 N1455 0.984 . S
H1461 N1455 0.985 . S
H1462 N1459 0.984 . S
H1463 N1459 0.985 . S
H1464 N1458 0.984 . S
H1465 N1458 0.984 . S
H1466 N1454 0.984 . S
H1467 N1454 0.985 . S
C1468 C1469 1.363 1_565 S
C1468 C1474 1.379 . S
C1468 N1476 1.356 1_565 S
C1469 C1468 1.363 1_545 S
C1469 C1475 1.363 . S
C1470 C1471 1.363 . S
C1470 C1475 1.379 1_564 S
C1470 N1477 1.356 . S
C1471 C1470 1.363 . S
C1471 C1474 1.363 1_554 S
N1472 C1474 1.356 . S
N1472 H1484 0.984 . S
N1472 H1485 0.985 1_556 S
N1473 C1475 1.356 . S
N1473 H1478 0.984 . S
N1473 H1479 0.985 . S
C1474 C1468 1.379 . S
C1474 C1471 1.363 1_556 S
C1474 N1472 1.356 . S
C1475 C1469 1.363 . S
C1475 C1470 1.379 1_546 S
C1475 N1473 1.356 . S
N1476 C1468 1.356 1_545 S
N1476 H1482 0.984 1_545 S
N1476 H1483 0.984 . S
N1477 C1470 1.356 . S
N1477 H1480 0.984 . S
N1477 H1481 0.970 1_565 S
H1478 N1473 0.984 . S
H1479 N1473 0.985 . S
H1480 N1477 0.984 . S
H1481 N1477 0.970 1_545 S
H1482 N1476 0.984 1_565 S
H1483 N1476 0.984 . S
H1484 N1472 0.984 . S
H1485 N1472 0.985 1_554 S
C1486 C1487 1.363 . S
C1486 C1492 1.379 . S
C1486 N1494 1.356 . S
C1487 C1486 1.363 . S
C1487 C1493 1.363 . S
C1488 C1489 1.363 . S
C1488 C1493 1.379 . S
C1488 N1495 1.356 . S
C1489 C1488 1.363 . S
C1489 C1492 1.363 . S
N1490 C1492 1.356 . S
N1490 H1502 0.984 . S
N1490 H1503 0.985 . S
N1491 C1493 1.356 . S
N1491 H1496 0.984 . S
N1491 H1497 0.985 . S
C1492 C1486 1.379 . S
C1492 C1489 1.363 . S
C1492 N1490 1.356 . S
C1493 C1487 1.363 . S
C1493 C1488 1.379 . S
C1493 N1491 1.356 . S
N1494 C1486 1.356 . S
N1494 H1500 0.984 . S
N1494 H1501 0.984 . S
N1495 C1488 1.356 . S
N1495 H1498 0.984 . S
N1495 H1499 0.985 . S
H1496 N1491 0.984 . S
H1497 N1491 0.985 . S
H1498 N1495 0.984 . S
H1499 N1495 0.985 . S
H1500 N1494 0.984 . S
H1501 N1494 0.984 . S
H1502 N1490 0.984 . S
H1503 N1490 0.985 . S
C641 C25 1.691 . S
C643 C4 1.691 . S
C659 C44 1.568 1_556 S
C661 C65 1.568 . S
C677 C84 1.557 . S
C679 C105 1.557 . S
C695 C145 1.460 . S
C697 C124 1.460 . S
C713 C185 1.519 . S
C715 C164 1.519 . S
C731 C225 1.545 . S
C733 C204 1.545 . S
C749 C244 1.443 . S
C751 C265 1.443 . S
C767 C284 1.563 . S
C769 C305 1.563 . S
C785 C324 1.691 . S
C787 C345 1.691 . S
C803 C364 1.568 . S
C805 C385 1.568 1_554 S
C821 C404 1.557 . S
C823 C425 1.557 . S
C839 C444 1.460 . S
C841 C465 1.460 . S
C857 C484 1.519 . S
C859 C505 1.519 . S
C875 C545 1.545 . S
C877 C524 1.545 . S
C893 C585 1.443 . S
C895 C564 1.443 . S
C911 C625 1.563 . S
C913 C604 1.563 . S
C929 C23 1.566 . S
C931 C460 1.667 . S
C947 C71 1.783 . S
C949 C620 1.804 . S
C965 C111 1.728 . S
C967 C362 1.712 . S
C983 C143 1.760 . S
C985 C540 1.842 . S
C1001 C183 1.595 . S
C1003 C522 1.640 . S
C1019 C442 1.760 . S
C1021 C231 1.842 . S
C1037 C271 1.719 . S
C1039 C602 1.660 . S
C1055 C311 1.804 . S
C1057 C380 1.783 . S
C1073 C151 1.667 . S
C1075 C322 1.566 . S
C1091 C63 1.712 . S
C1093 C420 1.728 . S
C1109 C482 1.595 . S
C1111 C223 1.640 . S
C1127 C303 1.660 . S
C1129 C580 1.719 . S
C1145 C340 1.772 . S
C1147 C191 1.783 . S
C1163 C263 1.686 . S
C1165 C402 1.699 . S
C1181 C103 1.699 . S
C1183 C562 1.686 . S
C1199 C31 1.772 . S
C1201 C500 1.783 . S
C1217 C2 1.597 . S
C1219 C162 1.597 . S
C1235 C60 1.810 . S
C1237 C220 1.824 . S
C1253 C100 1.977 . S
C1255 C260 1.977 . S
C1271 C122 1.926 . S
C1273 C300 1.892 . S
C1289 C503 1.597 . S
C1291 C343 1.597 . S
C1307 C551 1.824 . S
C1309 C391 1.810 . S
C1325 C431 1.977 . S
C1327 C591 1.977 . S
C1343 C631 1.892 . S
C1345 C463 1.926 . S
C1361 C42 1.720 . S
C1363 C282 1.721 . S
C1379 C180 2.002 . S
C1381 C82 2.048 . S
C1397 C202 1.903 . S
C1399 C140 1.880 . S
C1415 C20 1.742 . S
C1417 C242 1.774 . S
C1433 C623 1.721 . S
C1435 C383 1.720 . S
C1451 C511 2.002 . S
C1453 C423 2.048 . S
C1469 C543 1.903 . S
C1471 C471 1.880 . S
C1487 C583 1.774 . S
C1489 C351 1.742 . S
