# Generated by pormake.
# Topology tzs, (4)-cn, num edge types: 1
# Building blocks:
#     Node 0, Type 0, BuildingBlock: ICAMEG_clean_sbu_1, # of connection points: 4
#     Node 1, Type 0, BuildingBlock: ICAMEG_clean_sbu_1, # of connection points: 4
#     Node 2, Type 0, BuildingBlock: ICAMEG_clean_sbu_1, # of connection points: 4
#     Node 3, Type 0, BuildingBlock: ICAMEG_clean_sbu_1, # of connection points: 4
#     Node 4, Type 0, BuildingBlock: ICAMEG_clean_sbu_1, # of connection points: 4
#     Node 5, Type 0, BuildingBlock: ICAMEG_clean_sbu_1, # of connection points: 4
#     Node 6, Type 0, BuildingBlock: ICAMEG_clean_sbu_1, # of connection points: 4
#     Node 7, Type 0, BuildingBlock: ICAMEG_clean_sbu_1, # of connection points: 4
#     Node 8, Type 0, BuildingBlock: ICAMEG_clean_sbu_1, # of connection points: 4
#     Node 9, Type 0, BuildingBlock: ICAMEG_clean_sbu_1, # of connection points: 4
#     Node 10, Type 0, BuildingBlock: ICAMEG_clean_sbu_1, # of connection points: 4
#     Node 11, Type 0, BuildingBlock: ICAMEG_clean_sbu_1, # of connection points: 4
#     Node 12, Type 0, BuildingBlock: ICAMEG_clean_sbu_1, # of connection points: 4
#     Node 13, Type 0, BuildingBlock: ICAMEG_clean_sbu_1, # of connection points: 4
#     Node 14, Type 0, BuildingBlock: ICAMEG_clean_sbu_1, # of connection points: 4
#     Node 15, Type 0, BuildingBlock: ICAMEG_clean_sbu_1, # of connection points: 4
#     Edge 16, Type (0, 0), BuildingBlock: KIFKEQ_clean_linker_1, # of connection points: 2
#     Edge 17, Type (0, 0), BuildingBlock: KIFKEQ_clean_linker_1, # of connection points: 2
#     Edge 18, Type (0, 0), BuildingBlock: KIFKEQ_clean_linker_1, # of connection points: 2
#     Edge 19, Type (0, 0), BuildingBlock: KIFKEQ_clean_linker_1, # of connection points: 2
#     Edge 20, Type (0, 0), BuildingBlock: KIFKEQ_clean_linker_1, # of connection points: 2
#     Edge 21, Type (0, 0), BuildingBlock: KIFKEQ_clean_linker_1, # of connection points: 2
#     Edge 22, Type (0, 0), BuildingBlock: KIFKEQ_clean_linker_1, # of connection points: 2
#     Edge 23, Type (0, 0), BuildingBlock: KIFKEQ_clean_linker_1, # of connection points: 2
#     Edge 24, Type (0, 0), BuildingBlock: KIFKEQ_clean_linker_1, # of connection points: 2
#     Edge 25, Type (0, 0), BuildingBlock: KIFKEQ_clean_linker_1, # of connection points: 2
#     Edge 26, Type (0, 0), BuildingBlock: KIFKEQ_clean_linker_1, # of connection points: 2
#     Edge 27, Type (0, 0), BuildingBlock: KIFKEQ_clean_linker_1, # of connection points: 2
#     Edge 28, Type (0, 0), BuildingBlock: KIFKEQ_clean_linker_1, # of connection points: 2
#     Edge 29, Type (0, 0), BuildingBlock: KIFKEQ_clean_linker_1, # of connection points: 2
#     Edge 30, Type (0, 0), BuildingBlock: KIFKEQ_clean_linker_1, # of connection points: 2
#     Edge 31, Type (0, 0), BuildingBlock: KIFKEQ_clean_linker_1, # of connection points: 2
#     Edge 32, Type (0, 0), BuildingBlock: KIFKEQ_clean_linker_1, # of connection points: 2
#     Edge 33, Type (0, 0), BuildingBlock: KIFKEQ_clean_linker_1, # of connection points: 2
#     Edge 34, Type (0, 0), BuildingBlock: KIFKEQ_clean_linker_1, # of connection points: 2
#     Edge 35, Type (0, 0), BuildingBlock: KIFKEQ_clean_linker_1, # of connection points: 2
#     Edge 36, Type (0, 0), BuildingBlock: KIFKEQ_clean_linker_1, # of connection points: 2
#     Edge 37, Type (0, 0), BuildingBlock: KIFKEQ_clean_linker_1, # of connection points: 2
#     Edge 38, Type (0, 0), BuildingBlock: KIFKEQ_clean_linker_1, # of connection points: 2
#     Edge 39, Type (0, 0), BuildingBlock: KIFKEQ_clean_linker_1, # of connection points: 2
#     Edge 40, Type (0, 0), BuildingBlock: KIFKEQ_clean_linker_1, # of connection points: 2
#     Edge 41, Type (0, 0), BuildingBlock: KIFKEQ_clean_linker_1, # of connection points: 2
#     Edge 42, Type (0, 0), BuildingBlock: KIFKEQ_clean_linker_1, # of connection points: 2
#     Edge 43, Type (0, 0), BuildingBlock: KIFKEQ_clean_linker_1, # of connection points: 2
#     Edge 44, Type (0, 0), BuildingBlock: KIFKEQ_clean_linker_1, # of connection points: 2
#     Edge 45, Type (0, 0), BuildingBlock: KIFKEQ_clean_linker_1, # of connection points: 2
#     Edge 46, Type (0, 0), BuildingBlock: KIFKEQ_clean_linker_1, # of connection points: 2
#     Edge 47, Type (0, 0), BuildingBlock: KIFKEQ_clean_linker_1, # of connection points: 2
# Relax obj value: 0.144
# Max RMSD: 0.172
# Mean RMSD: 0.172
data_MOF--net-tzs--node1-ICAMEG_clean_sbu_1--edge1-KIFKEQ_clean_linker_1
_symmetry_space_group_name_H-M    P1
_symmetry_Int_Tables_number       1
_symmetry_cell_setting            triclinic
loop_
_symmetry_equiv_pos_as_xyz
'x, y, z'
_cell_length_a     50.553527
_cell_length_b     50.527203
_cell_length_c     45.016762
_cell_angle_alpha  89.91132
_cell_angle_beta   89.963698
_cell_angle_gamma 90.037017
loop_
_atom_site_label
_atom_site_type_symbol
_atom_site_fract_x
_atom_site_fract_y
_atom_site_fract_z
_atom_type_partial_charge
Co0 Co 0.13441 0.38631 0.15606 0.0
Co1 Co 0.15647 0.35428 0.21894 0.0
O2 O 0.15544 0.35856 0.17549 0.0
C3 C 0.13715 0.3426 0.1106 0.0
O4 O 0.15241 0.32777 0.1273 0.0
C5 C 0.21384 0.34916 0.23123 0.0
O6 O 0.21185 0.3706 0.24754 0.0
O7 O 0.16861 0.39168 0.22311 0.0
O8 O 0.1437 0.41183 0.18835 0.0
H9 H 0.14032 0.38216 0.32455 0.0
H10 H 0.18523 0.36128 0.13356 0.0
O11 O 0.1251 0.36247 0.12164 0.0
H12 H 0.19265 0.45562 0.10813 0.0
H13 H 0.09507 0.43747 0.07026 0.0
H14 H 0.09692 0.4263 0.17907 0.0
H15 H 0.15385 0.43928 0.13506 0.0
H16 H 0.12412 0.40419 0.09329 0.0
O17 O 0.19406 0.34134 0.21592 0.0
H18 H 0.13882 0.38673 0.27003 0.0
H19 H 0.17692 0.31238 0.26008 0.0
H20 H 0.06798 0.46023 0.15692 0.0
H21 H 0.22392 0.37682 0.10628 0.0
H22 H 0.06689 0.46598 0.10214 0.0
H23 H 0.22805 0.42435 0.09314 0.0
O24 O 0.10216 0.3741 0.17824 0.0
H25 H 0.15698 0.26349 0.17356 0.0
H26 H 0.11389 0.32147 0.24704 0.0
H27 H 0.09762 0.2759 0.24033 0.0
H28 H 0.11927 0.24651 0.20344 0.0
H29 H 0.17241 0.30933 0.18076 0.0
H30 H 0.17888 0.30703 0.31447 0.0
H31 H 0.16047 0.34208 0.34712 0.0
O32 O 0.11903 0.36637 0.22337 0.0
C33 C 0.15952 0.4124 0.21045 0.0
C34 C 0.14845 0.36678 0.31056 0.0
C35 C 0.17008 0.32461 0.30491 0.0
N36 N 0.1579 0.34995 0.26185 0.0
C37 C 0.1477 0.36928 0.27967 0.0
C38 C 0.16895 0.32778 0.27412 0.0
C39 C 0.15975 0.34428 0.32321 0.0
C40 C 0.18594 0.38177 0.12736 0.0
N41 N 0.16593 0.39882 0.13468 0.0
C42 C 0.20837 0.39058 0.11212 0.0
C43 C 0.21073 0.41724 0.10484 0.0
C44 C 0.19087 0.43475 0.11317 0.0
C45 C 0.1687 0.4252 0.12831 0.0
C46 C 0.09537 0.43517 0.09416 0.0
C47 C 0.09678 0.42883 0.15522 0.0
C48 C 0.11164 0.41617 0.10735 0.0
N49 N 0.1124 0.41333 0.13759 0.0
C50 C 0.08025 0.44801 0.1428 0.0
C51 C 0.0796 0.45118 0.11206 0.0
C52 C 0.09942 0.37026 0.20616 0.0
C53 C 0.14738 0.2761 0.18972 0.0
C54 C 0.12326 0.30894 0.23074 0.0
C55 C 0.11404 0.28308 0.22714 0.0
C56 C 0.12621 0.26659 0.20646 0.0
N57 N 0.14406 0.31813 0.21425 0.0
C58 C 0.15606 0.30207 0.19392 0.0
Co59 Co 0.61776 0.13358 0.1824 0.0
Co60 Co 0.65785 0.15191 0.23953 0.0
O61 O 0.6477 0.15501 0.19731 0.0
C62 C 0.65443 0.13993 0.12874 0.0
O63 O 0.67343 0.15061 0.14457 0.0
C64 C 0.66485 0.21066 0.22682 0.0
O65 O 0.64999 0.2099 0.20296 0.0
O66 O 0.62151 0.1632 0.25097 0.0
O67 O 0.60002 0.13448 0.2221 0.0
H68 H 0.64328 0.12303 0.34511 0.0
H69 H 0.63267 0.18392 0.15178 0.0
O70 O 0.6333 0.13169 0.1412 0.0
H71 H 0.53859 0.194 0.17797 0.0
H72 H 0.54816 0.10555 0.10864 0.0
H73 H 0.58791 0.08769 0.20662 0.0
H74 H 0.56247 0.15304 0.19045 0.0
H75 H 0.58465 0.13326 0.12734 0.0
O76 O 0.66948 0.18978 0.24173 0.0
H77 H 0.63235 0.12718 0.29193 0.0
H78 H 0.70317 0.17048 0.27683 0.0
H79 H 0.55129 0.05968 0.18891 0.0
H80 H 0.60942 0.22497 0.13838 0.0
H81 H 0.53116 0.0685 0.13956 0.0
H82 H 0.56202 0.23032 0.15158 0.0
O83 O 0.63674 0.10058 0.19433 0.0
H84 H 0.74158 0.15988 0.18014 0.0
H85 H 0.69491 0.10844 0.25717 0.0
H86 H 0.73954 0.09473 0.24143 0.0
H87 H 0.76324 0.12058 0.2027 0.0
H88 H 0.69679 0.17271 0.19636 0.0
H89 H 0.71472 0.16701 0.32988 0.0
H90 H 0.68473 0.14304 0.36441 0.0
O91 O 0.64728 0.11352 0.24028 0.0
C92 C 0.60049 0.15137 0.24299 0.0
C93 C 0.65654 0.13347 0.33028 0.0
C94 C 0.69662 0.15817 0.32174 0.0
N95 N 0.66716 0.1489 0.28123 0.0
C96 C 0.65048 0.13584 0.30012 0.0
C97 C 0.68993 0.16012 0.29172 0.0
C98 C 0.67979 0.14472 0.34109 0.0
C99 C 0.612 0.18579 0.15719 0.0
N100 N 0.59899 0.16584 0.17159 0.0
C101 C 0.59894 0.20922 0.14971 0.0
C102 C 0.57236 0.21224 0.15717 0.0
C103 C 0.55921 0.19188 0.17196 0.0
C104 C 0.5729 0.16873 0.17903 0.0
C105 C 0.55683 0.10145 0.13014 0.0
C106 C 0.57932 0.09169 0.18511 0.0
C107 C 0.57763 0.11697 0.14076 0.0
N108 N 0.58861 0.11201 0.16796 0.0
C109 C 0.55855 0.07574 0.1752 0.0
C110 C 0.54728 0.08069 0.14751 0.0
C111 C 0.64357 0.09536 0.22103 0.0
C112 C 0.73148 0.14847 0.19706 0.0
C113 C 0.70498 0.11968 0.24016 0.0
C114 C 0.73031 0.11188 0.23142 0.0
C115 C 0.74361 0.1264 0.20971 0.0
N116 N 0.69323 0.14138 0.22769 0.0
C117 C 0.70614 0.15569 0.20639 0.0
Co118 Co 0.87082 0.60443 0.17271 0.0
Co119 Co 0.85089 0.64875 0.22466 0.0
O120 O 0.84945 0.63533 0.18389 0.0
C121 C 0.87432 0.64019 0.11891 0.0
O122 O 0.8784 0.66125 0.13534 0.0
C123 C 0.79391 0.65482 0.23895 0.0
O124 O 0.79728 0.6369 0.25976 0.0
O125 O 0.83929 0.61324 0.23912 0.0
O126 O 0.86876 0.5894 0.21369 0.0
H127 H 0.87376 0.64316 0.33307 0.0
H128 H 0.82199 0.61823 0.13962 0.0
O129 O 0.87262 0.6174 0.13074 0.0
H130 H 0.80949 0.52575 0.1719 0.0
H131 H 0.90086 0.53116 0.10471 0.0
H132 H 0.91511 0.57517 0.20105 0.0
H133 H 0.85051 0.54975 0.18406 0.0
H134 H 0.87318 0.56901 0.11957 0.0
O135 O 0.81292 0.66056 0.22134 0.0
H136 H 0.87212 0.62762 0.28118 0.0
H137 H 0.83172 0.69764 0.25537 0.0
H138 H 0.94306 0.53726 0.18713 0.0
H139 H 0.78072 0.59487 0.12674 0.0
H140 H 0.93604 0.51495 0.13865 0.0
H141 H 0.77424 0.5483 0.14296 0.0
O142 O 0.90356 0.62394 0.18442 0.0
H143 H 0.84635 0.72744 0.15655 0.0
H144 H 0.8942 0.68666 0.24032 0.0
H145 H 0.90911 0.72973 0.22071 0.0
H146 H 0.88506 0.75047 0.17859 0.0
H147 H 0.83231 0.6842 0.17663 0.0
H148 H 0.83277 0.71386 0.30698 0.0
H149 H 0.85396 0.68656 0.34625 0.0
O150 O 0.88914 0.63804 0.22877 0.0
C151 C 0.85141 0.59169 0.23397 0.0
C152 C 0.86448 0.65524 0.31616 0.0
C153 C 0.84147 0.69491 0.30152 0.0
N154 N 0.85188 0.6617 0.26526 0.0
C155 C 0.86351 0.64654 0.28674 0.0
C156 C 0.8409 0.6856 0.27234 0.0
C157 C 0.85337 0.67959 0.32354 0.0
C158 C 0.81938 0.59793 0.14663 0.0
N159 N 0.83871 0.58537 0.16248 0.0
C160 C 0.79595 0.58482 0.13931 0.0
C161 C 0.79232 0.55869 0.14842 0.0
C162 C 0.81209 0.54602 0.16463 0.0
C163 C 0.83528 0.55974 0.17149 0.0
C164 C 0.90412 0.54072 0.12589 0.0
C165 C 0.91184 0.56559 0.17993 0.0
C166 C 0.88858 0.56227 0.13439 0.0
N167 N 0.89246 0.57436 0.16119 0.0
C168 C 0.92778 0.54412 0.17216 0.0
C169 C 0.92384 0.53162 0.14495 0.0
C170 C 0.90793 0.63228 0.21083 0.0
C171 C 0.85695 0.71864 0.17496 0.0
C172 C 0.88373 0.69545 0.22187 0.0
C173 C 0.89221 0.7199 0.21092 0.0
C174 C 0.87869 0.73153 0.18731 0.0
N175 N 0.86233 0.68296 0.2097 0.0
C176 C 0.84903 0.69421 0.1865 0.0
Co177 Co 0.38941 0.87169 0.18663 0.0
Co178 Co 0.34679 0.85521 0.2422 0.0
O179 O 0.35743 0.85265 0.20012 0.0
C180 C 0.35399 0.86967 0.13153 0.0
O181 O 0.33419 0.85869 0.14588 0.0
C182 C 0.34045 0.79655 0.23335 0.0
O183 O 0.36294 0.79507 0.21885 0.0
O184 O 0.38165 0.84011 0.25409 0.0
O185 O 0.40642 0.86723 0.22637 0.0
H186 H 0.36148 0.87799 0.34952 0.0
H187 H 0.36951 0.82312 0.15589 0.0
O188 O 0.37481 0.87684 0.14537 0.0
H189 H 0.46321 0.80512 0.1779 0.0
H190 H 0.4623 0.89647 0.1152 0.0
H191 H 0.4231 0.91334 0.21368 0.0
H192 H 0.44299 0.84743 0.19253 0.0
H193 H 0.42314 0.87147 0.13192 0.0
O194 O 0.33135 0.81875 0.24181 0.0
H195 H 0.37332 0.87496 0.29649 0.0
H196 H 0.29885 0.83998 0.27727 0.0
H197 H 0.46248 0.93849 0.198 0.0
H198 H 0.38899 0.78074 0.14063 0.0
H199 H 0.48234 0.93017 0.14842 0.0
H200 H 0.43621 0.77142 0.1516 0.0
O201 O 0.37343 0.90589 0.20001 0.0
H202 H 0.26417 0.85759 0.18051 0.0
H203 H 0.3138 0.9016 0.26073 0.0
H204 H 0.2712 0.92026 0.24432 0.0
H205 H 0.24603 0.89818 0.20397 0.0
H206 H 0.30703 0.83973 0.19748 0.0
H207 H 0.28631 0.84243 0.33012 0.0
H208 H 0.3177 0.86164 0.36665 0.0
O209 O 0.36108 0.89223 0.24517 0.0
C210 C 0.40388 0.84988 0.24667 0.0
C211 C 0.34761 0.86963 0.33381 0.0
C212 C 0.30543 0.84965 0.32293 0.0
N213 N 0.33676 0.85745 0.28375 0.0
C214 C 0.35419 0.8679 0.30374 0.0
C215 C 0.31268 0.84827 0.29303 0.0
C216 C 0.32305 0.86044 0.34341 0.0
C217 C 0.39014 0.8196 0.16029 0.0
N218 N 0.40515 0.83822 0.17442 0.0
C219 C 0.40105 0.79538 0.15179 0.0
C220 C 0.42752 0.79013 0.158 0.0
C221 C 0.44267 0.80903 0.17271 0.0
C222 C 0.43108 0.83302 0.18089 0.0
C223 C 0.45378 0.90035 0.13682 0.0
C224 C 0.43159 0.90956 0.19207 0.0
C225 C 0.43146 0.88639 0.14632 0.0
N226 N 0.42065 0.89104 0.17368 0.0
C227 C 0.45391 0.92389 0.18331 0.0
C228 C 0.46503 0.91922 0.15548 0.0
C229 C 0.36657 0.9107 0.2268 0.0
C230 C 0.27495 0.86739 0.19811 0.0
C231 C 0.30309 0.89199 0.243 0.0
C232 C 0.27891 0.90259 0.23389 0.0
C233 C 0.26479 0.89018 0.21127 0.0
N234 N 0.31293 0.86964 0.22998 0.0
C235 C 0.29919 0.85735 0.20782 0.0
Co236 Co 0.13279 0.61561 0.34342 0.0
Co237 Co 0.14809 0.65425 0.28271 0.0
O238 O 0.15009 0.64697 0.32581 0.0
C239 C 0.12988 0.65694 0.3929 0.0
O240 O 0.14222 0.67523 0.37746 0.0
C241 C 0.20637 0.66199 0.29288 0.0
O242 O 0.20754 0.64086 0.30983 0.0
O243 O 0.1633 0.6188 0.2739 0.0
O244 O 0.14209 0.59392 0.30785 0.0
H245 H 0.12674 0.6322 0.17655 0.0
H246 H 0.1788 0.64407 0.37138 0.0
O247 O 0.1233 0.63504 0.38093 0.0
H248 H 0.20282 0.54974 0.37319 0.0
H249 H 0.10724 0.55226 0.42536 0.0
H250 H 0.09676 0.57466 0.31937 0.0
H251 H 0.16067 0.56404 0.35118 0.0
H252 H 0.13067 0.59052 0.40382 0.0
O253 O 0.18441 0.66998 0.28245 0.0
H254 H 0.12885 0.62413 0.23052 0.0
H255 H 0.16379 0.69964 0.2438 0.0
H256 H 0.07329 0.53595 0.33994 0.0
H257 H 0.22084 0.63063 0.39378 0.0
H258 H 0.07842 0.52456 0.39332 0.0
H259 H 0.23324 0.5831 0.39492 0.0
O260 O 0.0981 0.62624 0.32524 0.0
H261 H 0.14436 0.74144 0.33586 0.0
H262 H 0.10141 0.68496 0.26079 0.0
H263 H 0.08216 0.7285 0.27261 0.0
H264 H 0.10372 0.75712 0.31034 0.0
H265 H 0.16281 0.6976 0.32351 0.0
H266 H 0.16222 0.70847 0.18996 0.0
H267 H 0.14352 0.67465 0.15593 0.0
O268 O 0.11163 0.63929 0.28028 0.0
C269 C 0.1567 0.59652 0.28495 0.0
C270 C 0.13492 0.64711 0.19115 0.0
C271 C 0.15484 0.6899 0.19867 0.0
N272 N 0.14639 0.66137 0.24034 0.0
C273 C 0.13616 0.64264 0.22174 0.0
C274 C 0.15574 0.68475 0.22915 0.0
C275 C 0.14434 0.67092 0.17959 0.0
C276 C 0.18344 0.62335 0.37231 0.0
N277 N 0.16648 0.60489 0.36091 0.0
C278 C 0.20759 0.61584 0.3848 0.0
C279 C 0.21457 0.5892 0.38536 0.0
C280 C 0.1975 0.57049 0.37321 0.0
C281 C 0.17354 0.57875 0.36088 0.0
C282 C 0.10483 0.55703 0.40207 0.0
C283 C 0.09922 0.56976 0.34258 0.0
C284 C 0.11792 0.57879 0.38977 0.0
N285 N 0.11511 0.58487 0.36031 0.0
C286 C 0.08583 0.54785 0.35412 0.0
C287 C 0.08868 0.54148 0.38408 0.0
C288 C 0.09344 0.63223 0.29816 0.0
C289 C 0.13479 0.72916 0.31937 0.0
C290 C 0.11079 0.69718 0.2774 0.0
C291 C 0.09986 0.72188 0.28391 0.0
C292 C 0.11198 0.73793 0.30506 0.0
N293 N 0.13319 0.68873 0.29151 0.0
C294 C 0.14517 0.70435 0.31226 0.0
Co295 Co 0.39535 0.13248 0.35408 0.0
Co296 Co 0.35393 0.15395 0.29956 0.0
O297 O 0.3653 0.15458 0.34132 0.0
C298 C 0.36014 0.13739 0.409 0.0
O299 O 0.34129 0.14945 0.39421 0.0
C300 C 0.34886 0.21093 0.28501 0.0
O301 O 0.36792 0.20735 0.2656 0.0
O302 O 0.39019 0.16546 0.28772 0.0
O303 O 0.41246 0.13548 0.31421 0.0
H304 H 0.36524 0.13278 0.19129 0.0
H305 H 0.38067 0.18235 0.3858 0.0
O306 O 0.38052 0.12858 0.39551 0.0
H307 H 0.47524 0.19178 0.36153 0.0
H308 H 0.46571 0.10002 0.42465 0.0
H309 H 0.42467 0.08798 0.32627 0.0
H310 H 0.45091 0.15157 0.34728 0.0
H311 H 0.42918 0.12891 0.40846 0.0
O312 O 0.34223 0.19208 0.3025 0.0
H313 H 0.37799 0.13358 0.24415 0.0
H314 H 0.30671 0.17358 0.26593 0.0
H315 H 0.46133 0.05888 0.34143 0.0
H316 H 0.40434 0.22266 0.40082 0.0
H317 H 0.48211 0.06476 0.39097 0.0
H318 H 0.45201 0.22767 0.38868 0.0
O319 O 0.376 0.10032 0.34026 0.0
H320 H 0.27167 0.15864 0.36192 0.0
H321 H 0.31664 0.11102 0.28083 0.0
H322 H 0.27251 0.09629 0.29724 0.0
H323 H 0.24966 0.12022 0.33801 0.0
H324 H 0.31598 0.17253 0.345 0.0
H325 H 0.29327 0.17334 0.2133 0.0
H326 H 0.32261 0.15278 0.17556 0.0
O327 O 0.36448 0.11565 0.29537 0.0
C328 C 0.41138 0.15324 0.29424 0.0
C329 C 0.35228 0.14179 0.20752 0.0
C330 C 0.31189 0.16456 0.21987 0.0
N331 N 0.34313 0.1536 0.25813 0.0
C332 C 0.35939 0.1423 0.23749 0.0
C333 C 0.31963 0.16466 0.24964 0.0
C334 C 0.32836 0.15302 0.19871 0.0
C335 C 0.40147 0.18399 0.3809 0.0
N336 N 0.41444 0.16414 0.36637 0.0
C337 C 0.41476 0.20705 0.38927 0.0
C338 C 0.44149 0.20987 0.38241 0.0
C339 C 0.45454 0.18974 0.36723 0.0
C340 C 0.44062 0.16696 0.35927 0.0
C341 C 0.45676 0.09719 0.40305 0.0
C342 C 0.43356 0.09071 0.34787 0.0
C343 C 0.43593 0.11338 0.39384 0.0
N344 N 0.4246 0.11006 0.36652 0.0
C345 C 0.45434 0.07414 0.35633 0.0
C346 C 0.46598 0.07744 0.38413 0.0
C347 C 0.36883 0.0965 0.31335 0.0
C348 C 0.28141 0.14806 0.34412 0.0
C349 C 0.30696 0.1214 0.29875 0.0
C350 C 0.2819 0.11304 0.30786 0.0
C351 C 0.26908 0.12649 0.33072 0.0
N352 N 0.31892 0.14261 0.31199 0.0
C353 C 0.30648 0.15587 0.33441 0.0
Co354 Co 0.87763 0.3845 0.34054 0.0
Co355 Co 0.86001 0.34572 0.28215 0.0
O356 O 0.85734 0.35425 0.32469 0.0
C357 C 0.87051 0.34705 0.39309 0.0
O358 O 0.85764 0.32961 0.37705 0.0
C359 C 0.80097 0.34114 0.28953 0.0
O360 O 0.79988 0.36332 0.30463 0.0
O361 O 0.84645 0.38176 0.27265 0.0
O362 O 0.87464 0.40377 0.30185 0.0
H363 H 0.88433 0.36549 0.1762 0.0
H364 H 0.82626 0.36587 0.3675 0.0
O365 O 0.88119 0.36723 0.38088 0.0
H366 H 0.81563 0.46175 0.35241 0.0
H367 H 0.9058 0.45059 0.4182 0.0
H368 H 0.92053 0.41843 0.31618 0.0
H369 H 0.85699 0.43963 0.33806 0.0
H370 H 0.8792 0.41382 0.39827 0.0
O371 O 0.82305 0.3316 0.28128 0.0
H372 H 0.88114 0.37451 0.2299 0.0
H373 H 0.84369 0.30024 0.24384 0.0
H374 H 0.94734 0.45543 0.33517 0.0
H375 H 0.7849 0.38725 0.3826 0.0
H376 H 0.94008 0.47176 0.38654 0.0
H377 H 0.77922 0.4356 0.3751 0.0
O378 O 0.91131 0.36775 0.32647 0.0
H379 H 0.8586 0.25992 0.33843 0.0
H380 H 0.90519 0.31188 0.2618 0.0
H381 H 0.92204 0.26778 0.27557 0.0
H382 H 0.89864 0.24143 0.31412 0.0
H383 H 0.84259 0.30427 0.32411 0.0
H384 H 0.84627 0.29053 0.19026 0.0
H385 H 0.8668 0.32324 0.15605 0.0
O386 O 0.8975 0.35873 0.28045 0.0
C387 C 0.8572 0.40312 0.2815 0.0
C388 C 0.87538 0.35106 0.19089 0.0
C389 C 0.854 0.309 0.19877 0.0
N390 N 0.86234 0.33789 0.24003 0.0
C391 C 0.87354 0.35604 0.22133 0.0
C392 C 0.85254 0.31464 0.22909 0.0
C393 C 0.86553 0.32736 0.17959 0.0
C394 C 0.82454 0.38693 0.36492 0.0
N395 N 0.84477 0.40147 0.35303 0.0
C396 C 0.80079 0.39895 0.3732 0.0
C397 C 0.79757 0.42606 0.36891 0.0
C398 C 0.81799 0.44073 0.35624 0.0
C399 C 0.84147 0.42805 0.34829 0.0
C400 C 0.90917 0.44363 0.39579 0.0
C401 C 0.91715 0.42542 0.33852 0.0
C402 C 0.89426 0.4227 0.38441 0.0
N403 N 0.89827 0.4139 0.35603 0.0
C404 C 0.93244 0.44639 0.34917 0.0
C405 C 0.92838 0.45552 0.378 0.0
C406 C 0.91604 0.3626 0.29916 0.0
C407 C 0.86898 0.27121 0.32162 0.0
C408 C 0.89505 0.30067 0.27877 0.0
C409 C 0.90461 0.27564 0.28638 0.0
C410 C 0.89146 0.26086 0.30799 0.0
N411 N 0.873 0.3107 0.29226 0.0
C412 C 0.86 0.29631 0.31342 0.0
Co413 Co 0.60912 0.87288 0.34099 0.0
Co414 Co 0.65077 0.85004 0.28812 0.0
O415 O 0.63837 0.84935 0.32943 0.0
C416 C 0.64364 0.86732 0.39578 0.0
O417 O 0.66512 0.86307 0.38012 0.0
C418 C 0.65482 0.79289 0.27377 0.0
O419 O 0.63674 0.79673 0.25327 0.0
O420 O 0.61428 0.83974 0.27552 0.0
O421 O 0.594 0.87213 0.29997 0.0
H422 H 0.64249 0.8725 0.17982 0.0
H423 H 0.61936 0.82197 0.37209 0.0
O424 O 0.62203 0.8737 0.38314 0.0
H425 H 0.52521 0.81889 0.3438 0.0
H426 H 0.53841 0.9089 0.40897 0.0
H427 H 0.58356 0.9194 0.31259 0.0
H428 H 0.55253 0.85772 0.33134 0.0
H429 H 0.57378 0.87815 0.39416 0.0
O430 O 0.66102 0.81166 0.29143 0.0
H431 H 0.62867 0.87175 0.23238 0.0
H432 H 0.6979 0.82885 0.2555 0.0
H433 H 0.54812 0.95042 0.32642 0.0
H434 H 0.5927 0.7828 0.3851 0.0
H435 H 0.52524 0.94531 0.37494 0.0
H436 H 0.54526 0.78105 0.37093 0.0
O437 O 0.63123 0.90389 0.32936 0.0
H438 H 0.73148 0.84194 0.35252 0.0
H439 H 0.69015 0.89151 0.27036 0.0
H440 H 0.7345 0.9044 0.28785 0.0
H441 H 0.75552 0.87947 0.32915 0.0
H442 H 0.68697 0.82994 0.3346 0.0
H443 H 0.7124 0.82901 0.20319 0.0
H444 H 0.68463 0.851 0.16494 0.0
O445 O 0.64192 0.8889 0.2841 0.0
C446 C 0.59376 0.85338 0.28119 0.0
C447 C 0.65476 0.86286 0.19628 0.0
C448 C 0.69399 0.83844 0.20939 0.0
N449 N 0.66243 0.85027 0.24699 0.0
C450 C 0.64704 0.86237 0.22607 0.0
C451 C 0.68566 0.83839 0.23897 0.0
C452 C 0.6784 0.85078 0.18794 0.0
C453 C 0.59871 0.82149 0.36599 0.0
N454 N 0.58752 0.8423 0.35122 0.0
C455 C 0.58371 0.7992 0.37337 0.0
C456 C 0.5571 0.79822 0.3654 0.0
C457 C 0.54583 0.81945 0.35023 0.0
C458 C 0.56143 0.84141 0.34325 0.0
C459 C 0.54825 0.91137 0.38779 0.0
C460 C 0.57374 0.91695 0.33373 0.0
C461 C 0.56844 0.89408 0.37934 0.0
N462 N 0.58086 0.89691 0.35252 0.0
C463 C 0.55367 0.93463 0.34145 0.0
C464 C 0.54086 0.93177 0.36868 0.0
C465 C 0.63893 0.90789 0.30263 0.0
C466 C 0.72254 0.85294 0.33449 0.0
C467 C 0.69902 0.88071 0.28853 0.0
C468 C 0.72421 0.88803 0.29824 0.0
C469 C 0.73601 0.87401 0.32139 0.0
N470 N 0.68593 0.85999 0.30148 0.0
C471 C 0.69737 0.84619 0.32419 0.0
Co472 Co 0.89406 0.63712 0.84072 0.0
Co473 Co 0.85152 0.66258 0.79017 0.0
O474 O 0.86462 0.66114 0.83118 0.0
C475 C 0.85911 0.63519 0.89548 0.0
O476 O 0.83723 0.63564 0.87979 0.0
C477 C 0.84768 0.72024 0.77897 0.0
O478 O 0.86572 0.71703 0.75828 0.0
O479 O 0.88773 0.67332 0.77718 0.0
O480 O 0.9089 0.6402 0.79966 0.0
H481 H 0.85779 0.64593 0.68041 0.0
H482 H 0.88401 0.68533 0.87648 0.0
O483 O 0.88154 0.63404 0.88277 0.0
H484 H 0.97721 0.69215 0.84495 0.0
H485 H 0.96565 0.59836 0.90548 0.0
H486 H 0.91957 0.59221 0.80926 0.0
H487 H 0.95016 0.65372 0.83041 0.0
H488 H 0.92985 0.62949 0.89302 0.0
O489 O 0.84139 0.70084 0.79582 0.0
H490 H 0.87262 0.64392 0.73255 0.0
H491 H 0.80373 0.68522 0.76015 0.0
H492 H 0.95542 0.56087 0.82076 0.0
H493 H 0.91043 0.72404 0.89172 0.0
H494 H 0.97877 0.56381 0.86917 0.0
H495 H 0.95738 0.72765 0.8759 0.0
O496 O 0.87197 0.60657 0.82736 0.0
H497 H 0.77228 0.66723 0.85729 0.0
H498 H 0.81189 0.62192 0.77112 0.0
H499 H 0.76793 0.60808 0.7891 0.0
H500 H 0.74778 0.63087 0.83241 0.0
H501 H 0.81638 0.68023 0.83881 0.0
H502 H 0.78823 0.68782 0.70831 0.0
H503 H 0.81532 0.66803 0.668 0.0
O504 O 0.8604 0.62409 0.78351 0.0
C505 C 0.90835 0.65945 0.78145 0.0
C506 C 0.8458 0.65461 0.69777 0.0
C507 C 0.80677 0.67812 0.71342 0.0
N508 N 0.83906 0.6644 0.74938 0.0
C509 C 0.85409 0.65352 0.72734 0.0
C510 C 0.81566 0.67661 0.74274 0.0
C511 C 0.82197 0.66701 0.69083 0.0
C512 C 0.90445 0.68669 0.86961 0.0
N513 N 0.91552 0.6672 0.85267 0.0
C514 C 0.91931 0.70868 0.87828 0.0
C515 C 0.94565 0.7107 0.86939 0.0
C516 C 0.95679 0.69078 0.85206 0.0
C517 C 0.94135 0.66907 0.84387 0.0
C518 C 0.95562 0.59687 0.88432 0.0
C519 C 0.92961 0.59371 0.83036 0.0
C520 C 0.93521 0.61437 0.87717 0.0
N521 N 0.92255 0.61275 0.85039 0.0
C522 C 0.94991 0.57586 0.83676 0.0
C523 C 0.96298 0.5775 0.86393 0.0
C524 C 0.864 0.60408 0.80052 0.0
C525 C 0.78082 0.6572 0.83834 0.0
C526 C 0.80335 0.63184 0.79011 0.0
C527 C 0.7784 0.62397 0.80012 0.0
C528 C 0.7671 0.63677 0.8244 0.0
N529 N 0.81666 0.65196 0.80385 0.0
C530 C 0.80573 0.66454 0.82772 0.0
Co531 Co 0.37733 0.89476 0.85351 0.0
Co532 Co 0.35287 0.85694 0.79787 0.0
O533 O 0.35387 0.86599 0.84029 0.0
C534 C 0.37199 0.85793 0.907 0.0
O535 O 0.35912 0.84001 0.89165 0.0
C536 C 0.29546 0.85228 0.78575 0.0
O537 O 0.29815 0.87218 0.76718 0.0
O538 O 0.34133 0.89399 0.78929 0.0
O539 O 0.37393 0.91338 0.81448 0.0
H540 H 0.36975 0.8744 0.68961 0.0
H541 H 0.32759 0.88083 0.88609 0.0
O542 O 0.38157 0.87834 0.89415 0.0
H543 H 0.32145 0.97654 0.86632 0.0
H544 H 0.41412 0.96163 0.9256 0.0
H545 H 0.42232 0.92325 0.82539 0.0
H546 H 0.36037 0.95128 0.84988 0.0
H547 H 0.38345 0.92674 0.90896 0.0
O548 O 0.31491 0.84529 0.80208 0.0
H549 H 0.3711 0.8841 0.74326 0.0
H550 H 0.33175 0.81168 0.76201 0.0
H551 H 0.45316 0.95832 0.84098 0.0
H552 H 0.28859 0.90542 0.90332 0.0
H553 H 0.44923 0.97775 0.89143 0.0
H554 H 0.28524 0.95367 0.89345 0.0
O555 O 0.40827 0.87459 0.83762 0.0
H556 H 0.34986 0.77137 0.85471 0.0
H557 H 0.39457 0.82045 0.77431 0.0
H558 H 0.40943 0.77536 0.78684 0.0
H559 H 0.38697 0.75045 0.82723 0.0
H560 H 0.33579 0.81665 0.84165 0.0
H561 H 0.32984 0.80127 0.70858 0.0
H562 H 0.34898 0.83274 0.67195 0.0
O563 O 0.39109 0.86735 0.79251 0.0
C564 C 0.35481 0.91434 0.79619 0.0
C565 C 0.36134 0.86053 0.70535 0.0
C566 C 0.33895 0.81949 0.71599 0.0
N567 N 0.35152 0.8485 0.75578 0.0
C568 C 0.36206 0.86592 0.73576 0.0
C569 C 0.34006 0.82551 0.74623 0.0
C570 C 0.34969 0.83716 0.69546 0.0
C571 C 0.32671 0.90185 0.88221 0.0
N572 N 0.34678 0.9146 0.86771 0.0
C573 C 0.30438 0.91568 0.89182 0.0
C574 C 0.30247 0.94273 0.88623 0.0
C575 C 0.32279 0.95557 0.87106 0.0
C576 C 0.34484 0.94112 0.86186 0.0
C577 C 0.41612 0.95324 0.9036 0.0
C578 C 0.42044 0.93153 0.8474 0.0
C579 C 0.39893 0.93331 0.89414 0.0
N580 N 0.4012 0.92271 0.86633 0.0
C581 C 0.43799 0.95142 0.8561 0.0
C582 C 0.43578 0.9623 0.88441 0.0
C583 C 0.41095 0.86926 0.80999 0.0
C584 C 0.35979 0.78201 0.83704 0.0
C585 C 0.3848 0.80985 0.79207 0.0
C586 C 0.39325 0.78426 0.79899 0.0
C587 C 0.38063 0.77029 0.82164 0.0
N588 N 0.3643 0.8212 0.80725 0.0
C589 C 0.35188 0.80763 0.82951 0.0
Co590 Co 0.12021 0.373 0.8413 0.0
Co591 Co 0.15741 0.35629 0.77983 0.0
O592 O 0.14981 0.35343 0.82287 0.0
C593 C 0.16169 0.36979 0.89004 0.0
O594 O 0.17834 0.35666 0.87324 0.0
C595 C 0.1639 0.29756 0.79124 0.0
O596 O 0.14593 0.29755 0.81226 0.0
O597 O 0.12084 0.34432 0.77049 0.0
O598 O 0.09778 0.36633 0.80543 0.0
H599 H 0.13767 0.3832 0.6746 0.0
H600 H 0.14413 0.32346 0.86771 0.0
O601 O 0.14067 0.37969 0.87902 0.0
H602 H 0.04788 0.3094 0.87055 0.0
H603 H 0.06042 0.40316 0.9245 0.0
H604 H 0.08212 0.41246 0.81818 0.0
H605 H 0.06627 0.35022 0.84915 0.0
H606 H 0.09633 0.37687 0.90227 0.0
O607 O 0.17024 0.31884 0.77793 0.0
H608 H 0.12923 0.37983 0.72841 0.0
H609 H 0.20142 0.33822 0.74035 0.0
H610 H 0.04577 0.43884 0.83948 0.0
H611 H 0.12659 0.28274 0.88967 0.0
H612 H 0.03473 0.4343 0.89302 0.0
H613 H 0.07806 0.27531 0.89127 0.0
O614 O 0.13371 0.40713 0.82416 0.0
H615 H 0.24445 0.35127 0.83321 0.0
H616 H 0.19188 0.40108 0.75981 0.0
H617 H 0.23676 0.41642 0.77248 0.0
H618 H 0.26342 0.3914 0.80938 0.0
H619 H 0.19934 0.33679 0.82007 0.0
H620 H 0.21056 0.34099 0.68666 0.0
H621 H 0.1786 0.36368 0.65337 0.0
O622 O 0.14545 0.3939 0.77875 0.0
C623 C 0.09918 0.35237 0.78186 0.0
C624 C 0.15175 0.37326 0.68886 0.0
C625 C 0.19265 0.34957 0.69563 0.0
N626 N 0.16477 0.35886 0.73756 0.0
C627 C 0.14707 0.37129 0.71937 0.0
C628 C 0.18731 0.34799 0.72603 0.0
C629 C 0.17471 0.3623 0.67697 0.0
C630 C 0.12306 0.32105 0.8689 0.0
N631 N 0.1064 0.34003 0.85802 0.0
C632 C 0.11319 0.29761 0.88111 0.0
C633 C 0.08599 0.2934 0.88193 0.0
C634 C 0.06907 0.31252 0.87034 0.0
C635 C 0.07967 0.33571 0.85832 0.0
C636 C 0.06503 0.4053 0.90114 0.0
C637 C 0.07733 0.41021 0.84145 0.0
C638 C 0.08547 0.39057 0.88843 0.0
N639 N 0.0913 0.39301 0.85886 0.0
C640 C 0.05677 0.42527 0.85341 0.0
C641 C 0.05061 0.42275 0.88346 0.0
C642 C 0.13978 0.41207 0.79718 0.0
C643 C 0.23304 0.36234 0.81709 0.0
C644 C 0.20324 0.39021 0.77607 0.0
C645 C 0.2287 0.39893 0.78305 0.0
C646 C 0.24366 0.38487 0.80373 0.0
N647 N 0.19296 0.36809 0.78926 0.0
C648 C 0.20751 0.35421 0.80953 0.0
Co649 Co 0.64197 0.11685 0.84896 0.0
Co650 Co 0.66092 0.15872 0.79323 0.0
O651 O 0.66349 0.14689 0.83482 0.0
C652 C 0.64774 0.15258 0.9035 0.0
O653 O 0.65924 0.17166 0.88846 0.0
C654 C 0.71661 0.16337 0.77389 0.0
O655 O 0.71088 0.14527 0.75399 0.0
O656 O 0.67078 0.12238 0.7798 0.0
O657 O 0.64338 0.09965 0.80929 0.0
H658 H 0.63353 0.14955 0.68644 0.0
H659 H 0.69224 0.13194 0.87944 0.0
O660 O 0.63943 0.13185 0.89031 0.0
H661 H 0.70284 0.03801 0.85281 0.0
H662 H 0.6135 0.04623 0.9215 0.0
H663 H 0.59649 0.08707 0.82384 0.0
H664 H 0.66183 0.0618 0.84031 0.0
H665 H 0.64123 0.08307 0.90356 0.0
O666 O 0.69943 0.16954 0.7936 0.0
H667 H 0.63708 0.13589 0.73889 0.0
H668 H 0.67938 0.20626 0.75912 0.0
H669 H 0.56847 0.05011 0.8408 0.0
H670 H 0.73333 0.10878 0.89278 0.0
H671 H 0.57686 0.02943 0.88999 0.0
H672 H 0.7389 0.06144 0.87944 0.0
O673 O 0.60902 0.13577 0.83664 0.0
H674 H 0.67115 0.24006 0.85617 0.0
H675 H 0.61762 0.19696 0.77852 0.0
H676 H 0.60483 0.24113 0.79666 0.0
H677 H 0.63174 0.26304 0.83568 0.0
H678 H 0.68306 0.19572 0.83762 0.0
H679 H 0.67636 0.22062 0.70687 0.0
H680 H 0.65328 0.19219 0.67012 0.0
O681 O 0.62239 0.14886 0.79149 0.0
C682 C 0.6587 0.10123 0.78699 0.0
C683 C 0.64364 0.16211 0.70225 0.0
C684 C 0.66767 0.202 0.71371 0.0
N685 N 0.65842 0.17023 0.75208 0.0
C686 C 0.64572 0.15448 0.73198 0.0
C687 C 0.66932 0.19375 0.74327 0.0
C688 C 0.65472 0.18604 0.6931 0.0
C689 C 0.69418 0.11127 0.87403 0.0
N690 N 0.67424 0.09817 0.85979 0.0
C691 C 0.71765 0.09828 0.88144 0.0
C692 C 0.7208 0.07174 0.8739 0.0
C693 C 0.70057 0.05858 0.85897 0.0
C694 C 0.67736 0.07219 0.85197 0.0
C695 C 0.60959 0.05513 0.90007 0.0
C696 C 0.6003 0.07823 0.84528 0.0
C697 C 0.62513 0.07612 0.88986 0.0
N698 N 0.6204 0.08741 0.86276 0.0
C699 C 0.58435 0.05728 0.85476 0.0
C700 C 0.58905 0.04569 0.88236 0.0
C701 C 0.60408 0.14348 0.81013 0.0
C702 C 0.65929 0.23074 0.83912 0.0
C703 C 0.62932 0.20623 0.79569 0.0
C704 C 0.62203 0.23131 0.80577 0.0
C705 C 0.63716 0.24361 0.82765 0.0
N706 N 0.6511 0.19375 0.80701 0.0
C707 C 0.66598 0.20567 0.82849 0.0
Co708 Co 0.88471 0.38623 0.66139 0.0
Co709 Co 0.85513 0.36373 0.72422 0.0
O710 O 0.85856 0.36261 0.68056 0.0
C711 C 0.84369 0.37543 0.61339 0.0
O712 O 0.82945 0.36023 0.63087 0.0
C713 C 0.84194 0.30636 0.70844 0.0
O714 O 0.84804 0.30947 0.68032 0.0
O715 O 0.89292 0.35299 0.72717 0.0
O716 O 0.90822 0.38469 0.69723 0.0
H717 H 0.88638 0.38764 0.82668 0.0
H718 H 0.86951 0.33364 0.63454 0.0
O719 O 0.8632 0.38855 0.62369 0.0
H720 H 0.96675 0.33376 0.63769 0.0
H721 H 0.93893 0.42289 0.57669 0.0
H722 H 0.91581 0.4324 0.68255 0.0
H723 H 0.94168 0.372 0.65616 0.0
H724 H 0.90764 0.39196 0.60035 0.0
O725 O 0.84434 0.32546 0.72666 0.0
H726 H 0.88856 0.38625 0.77199 0.0
H727 H 0.81671 0.34269 0.76903 0.0
H728 H 0.94743 0.46353 0.65981 0.0
H729 H 0.89373 0.29534 0.61542 0.0
H730 H 0.95919 0.45891 0.60649 0.0
H731 H 0.94282 0.29507 0.61689 0.0
O732 O 0.8657 0.41745 0.67853 0.0
H733 H 0.76326 0.35893 0.68161 0.0
H734 H 0.82136 0.40517 0.75253 0.0
H735 H 0.77494 0.41924 0.74737 0.0
H736 H 0.74548 0.39598 0.7118 0.0
H737 H 0.80985 0.34571 0.68725 0.0
H738 H 0.81391 0.34337 0.82369 0.0
H739 H 0.84885 0.36608 0.8529 0.0
O740 O 0.86523 0.40222 0.72511 0.0
C741 C 0.912 0.36625 0.71609 0.0
C742 C 0.87099 0.37775 0.8142 0.0
C743 C 0.83034 0.35288 0.81252 0.0
N744 N 0.8527 0.36459 0.76728 0.0
C745 C 0.87209 0.37696 0.78321 0.0
C746 C 0.83208 0.3525 0.78156 0.0
C747 C 0.84994 0.36563 0.8289 0.0
C748 C 0.8907 0.33423 0.63474 0.0
N749 N 0.90391 0.35571 0.64569 0.0
C750 C 0.90442 0.31221 0.62409 0.0
C751 C 0.93194 0.31203 0.62498 0.0
C752 C 0.94536 0.33373 0.63661 0.0
C753 C 0.93097 0.35541 0.64698 0.0
C754 C 0.93395 0.42512 0.59994 0.0
C755 C 0.92084 0.43016 0.65937 0.0
C756 C 0.91612 0.40774 0.61345 0.0
N757 N 0.90984 0.41032 0.64288 0.0
C758 C 0.93876 0.4479 0.6466 0.0
C759 C 0.94533 0.44531 0.61668 0.0
C760 C 0.86396 0.42126 0.70652 0.0
C761 C 0.77585 0.36911 0.69732 0.0
C762 C 0.80871 0.39492 0.73698 0.0
C763 C 0.78241 0.40298 0.73418 0.0
C764 C 0.7659 0.38993 0.71423 0.0
N765 N 0.8183 0.37431 0.72051 0.0
C766 C 0.80227 0.3616 0.70072 0.0
Co767 Co 0.62447 0.88536 0.66146 0.0
Co768 Co 0.65038 0.85963 0.72454 0.0
O769 O 0.64828 0.86024 0.68101 0.0
C770 C 0.63072 0.84067 0.61689 0.0
O771 O 0.64757 0.82757 0.63351 0.0
C772 C 0.70837 0.85628 0.73475 0.0
O773 O 0.70679 0.87862 0.74953 0.0
O774 O 0.66188 0.89748 0.72371 0.0
O775 O 0.62966 0.91178 0.69389 0.0
H776 H 0.63707 0.89708 0.82678 0.0
H777 H 0.67601 0.86573 0.6356 0.0
O778 O 0.61842 0.86072 0.6271 0.0
H779 H 0.67674 0.96207 0.6199 0.0
H780 H 0.58251 0.93283 0.57478 0.0
H781 H 0.58123 0.91992 0.68337 0.0
H782 H 0.63926 0.94078 0.64505 0.0
H783 H 0.61445 0.90288 0.59881 0.0
O784 O 0.68807 0.84726 0.72129 0.0
H785 H 0.6338 0.89646 0.77213 0.0
H786 H 0.67301 0.82217 0.76948 0.0
H787 H 0.5492 0.95037 0.66026 0.0
H788 H 0.71344 0.88611 0.60982 0.0
H789 H 0.54968 0.95698 0.60557 0.0
H790 H 0.71415 0.93471 0.6017 0.0
O791 O 0.59423 0.86918 0.68362 0.0
H792 H 0.65126 0.76539 0.68905 0.0
H793 H 0.60985 0.82852 0.75834 0.0
H794 H 0.59459 0.7822 0.75753 0.0
H795 H 0.61541 0.75023 0.72279 0.0
H796 H 0.66575 0.81199 0.69036 0.0
H797 H 0.67678 0.82204 0.82408 0.0
H798 H 0.6587 0.85968 0.85312 0.0
O799 O 0.61238 0.87099 0.72889 0.0
C800 C 0.64867 0.9162 0.71178 0.0
C801 C 0.64502 0.88056 0.81438 0.0
C802 C 0.6673 0.83845 0.81287 0.0
N803 N 0.65317 0.85931 0.7676 0.0
C804 C 0.64322 0.8801 0.78342 0.0
C805 C 0.66512 0.83865 0.78195 0.0
C806 C 0.65716 0.85958 0.82914 0.0
C807 C 0.67539 0.88665 0.63149 0.0
N808 N 0.65442 0.90163 0.64071 0.0
C809 C 0.69703 0.89821 0.61715 0.0
C810 C 0.69747 0.92547 0.61269 0.0
C811 C 0.67649 0.9408 0.62286 0.0
C812 C 0.65519 0.92853 0.63704 0.0
C813 C 0.58209 0.93011 0.59863 0.0
C814 C 0.58168 0.92275 0.65958 0.0
C815 C 0.60004 0.91303 0.61237 0.0
N816 N 0.5998 0.90964 0.64253 0.0
C817 C 0.56344 0.94 0.6466 0.0
C818 C 0.5637 0.94367 0.61592 0.0
C819 C 0.5922 0.86901 0.71193 0.0
C820 C 0.64206 0.77912 0.70433 0.0
C821 C 0.61892 0.8148 0.74301 0.0
C822 C 0.61024 0.78856 0.74273 0.0
C823 C 0.62193 0.77063 0.72324 0.0
N824 N 0.63875 0.82297 0.72445 0.0
C825 C 0.65022 0.80552 0.70521 0.0
Co826 Co 0.11029 0.63496 0.67339 0.0
Co827 Co 0.15402 0.6561 0.72552 0.0
O828 O 0.14089 0.65707 0.68444 0.0
C829 C 0.14335 0.64001 0.61691 0.0
O830 O 0.16372 0.64961 0.6314 0.0
C831 C 0.15949 0.71306 0.73993 0.0
O832 O 0.14118 0.70937 0.76023 0.0
O833 O 0.11829 0.6676 0.73918 0.0
O834 O 0.0954 0.63708 0.71444 0.0
H835 H 0.14714 0.634 0.83408 0.0
H836 H 0.12308 0.68497 0.64115 0.0
O837 O 0.12285 0.63211 0.63094 0.0
H838 H 0.03002 0.6941 0.67213 0.0
H839 H 0.03598 0.60339 0.60761 0.0
H840 H 0.08297 0.5896 0.70228 0.0
H841 H 0.05508 0.65376 0.68425 0.0
H842 H 0.07312 0.63234 0.62176 0.0
O843 O 0.16558 0.69426 0.7222 0.0
H844 H 0.13227 0.6352 0.78192 0.0
H845 H 0.2025 0.67564 0.75681 0.0
H846 H 0.04575 0.56043 0.6892 0.0
H847 H 0.09864 0.72549 0.62827 0.0
H848 H 0.02197 0.56717 0.64153 0.0
H849 H 0.05175 0.73032 0.6438 0.0
O850 O 0.13057 0.60279 0.6854 0.0
H851 H 0.23373 0.66148 0.65915 0.0
H852 H 0.19199 0.61304 0.74201 0.0
H853 H 0.23544 0.59853 0.72329 0.0
H854 H 0.25666 0.62287 0.68162 0.0
H855 H 0.19012 0.67513 0.67836 0.0
H856 H 0.21806 0.67503 0.8087 0.0
H857 H 0.19032 0.65404 0.84775 0.0
O858 O 0.14366 0.61767 0.72991 0.0
C859 C 0.09696 0.65517 0.73392 0.0
C860 C 0.15941 0.6432 0.81726 0.0
C861 C 0.19921 0.66622 0.80303 0.0
N862 N 0.16648 0.65545 0.76633 0.0
C863 C 0.15109 0.64392 0.78769 0.0
C864 C 0.19028 0.66654 0.77368 0.0
C865 C 0.18364 0.65445 0.82492 0.0
C866 C 0.10261 0.68664 0.64763 0.0
N867 N 0.09047 0.66666 0.66293 0.0
C868 C 0.08889 0.70976 0.64041 0.0
C869 C 0.06259 0.71248 0.64917 0.0
C870 C 0.05039 0.69216 0.66502 0.0
C871 C 0.06471 0.66933 0.67179 0.0
C872 C 0.04627 0.60015 0.62837 0.0
C873 C 0.07284 0.59268 0.68145 0.0
C874 C 0.0675 0.61634 0.63637 0.0
N875 N 0.08052 0.61251 0.66263 0.0
C876 C 0.05172 0.57608 0.67418 0.0
C877 C 0.03839 0.57986 0.64743 0.0
C878 C 0.13873 0.59868 0.71193 0.0
C879 C 0.2247 0.65072 0.67733 0.0
C880 C 0.20096 0.6236 0.7237 0.0
C881 C 0.22564 0.61536 0.71328 0.0
C882 C 0.23754 0.62904 0.68993 0.0
N883 N 0.18849 0.64491 0.71124 0.0
C884 C 0.20004 0.65839 0.68834 0.0
Co885 Co 0.37718 0.11742 0.68882 0.0
Co886 Co 0.3615 0.16075 0.74385 0.0
O887 O 0.35844 0.14959 0.70205 0.0
C888 C 0.37499 0.15267 0.63354 0.0
O889 O 0.36478 0.17269 0.64811 0.0
C890 C 0.30281 0.16675 0.73572 0.0
O891 O 0.30137 0.1438 0.72218 0.0
O892 O 0.34652 0.12605 0.75661 0.0
O893 O 0.37311 0.10079 0.7289 0.0
H894 H 0.3854 0.14743 0.85115 0.0
H895 H 0.32861 0.1371 0.65797 0.0
O896 O 0.38185 0.13165 0.64724 0.0
H897 H 0.30982 0.04404 0.68303 0.0
H898 H 0.40062 0.04375 0.61808 0.0
H899 H 0.41898 0.08382 0.71572 0.0
H900 H 0.35254 0.06413 0.69641 0.0
H901 H 0.37612 0.08324 0.63459 0.0
O902 O 0.32506 0.17623 0.74355 0.0
H903 H 0.38167 0.13485 0.79841 0.0
H904 H 0.34697 0.20926 0.77814 0.0
H905 H 0.44367 0.04414 0.70025 0.0
H906 H 0.28586 0.1177 0.64386 0.0
H907 H 0.43459 0.02383 0.65108 0.0
H908 H 0.27613 0.07081 0.6564 0.0
O909 O 0.41159 0.13345 0.70151 0.0
H910 H 0.36345 0.2427 0.68073 0.0
H911 H 0.4083 0.19375 0.76102 0.0
H912 H 0.427 0.23606 0.74353 0.0
H913 H 0.4045 0.26088 0.70313 0.0
H914 H 0.34556 0.20013 0.69876 0.0
H915 H 0.35012 0.22255 0.8307 0.0
H916 H 0.36955 0.19157 0.8676 0.0
O917 O 0.39847 0.14641 0.74661 0.0
C918 C 0.35616 0.10368 0.74953 0.0
C919 C 0.37694 0.16113 0.83527 0.0
C920 C 0.35712 0.20327 0.8238 0.0
N921 N 0.36423 0.17133 0.78517 0.0
C922 C 0.37481 0.15412 0.80537 0.0
C923 C 0.35533 0.1956 0.79408 0.0
C924 C 0.36803 0.18588 0.84449 0.0
C925 C 0.32491 0.11659 0.66302 0.0
N926 N 0.34351 0.10168 0.67735 0.0
C927 C 0.30048 0.10573 0.65517 0.0
C928 C 0.29501 0.07945 0.66227 0.0
C929 C 0.3139 0.06442 0.67717 0.0
C930 C 0.33811 0.07594 0.68466 0.0
C931 C 0.40482 0.05245 0.63952 0.0
C932 C 0.41486 0.07513 0.6943 0.0
C933 C 0.39113 0.07494 0.64891 0.0
N934 N 0.39618 0.08598 0.67604 0.0
C935 C 0.42894 0.05264 0.68565 0.0
C936 C 0.42385 0.04127 0.65806 0.0
C937 C 0.41671 0.14065 0.72811 0.0
C938 C 0.37344 0.23207 0.69834 0.0
C939 C 0.3985 0.20431 0.74328 0.0
C940 C 0.40912 0.22833 0.73355 0.0
C941 C 0.39648 0.24225 0.7109 0.0
N942 N 0.3759 0.19444 0.73082 0.0
C943 C 0.36338 0.208 0.70866 0.0
H944 H 0.36008 0.25832 0.25836 0.0
H945 H 0.29721 0.21551 0.30232 0.0
H946 H 0.32876 0.29334 0.24491 0.0
H947 H 0.26597 0.25022 0.2883 0.0
H948 H 0.2157 0.29617 0.21942 0.0
H949 H 0.24945 0.26457 0.23491 0.0
H950 H 0.29635 0.32826 0.27085 0.0
H951 H 0.26223 0.3601 0.2559 0.0
C952 C 0.3397 0.25659 0.26557 0.0
C953 C 0.33115 0.23412 0.28141 0.0
C954 C 0.32181 0.27662 0.25783 0.0
C955 C 0.29492 0.27429 0.26524 0.0
C956 C 0.28656 0.25235 0.28203 0.0
C957 C 0.30452 0.23261 0.29029 0.0
C958 C 0.23335 0.30359 0.23021 0.0
C959 C 0.23624 0.33073 0.23641 0.0
C960 C 0.25254 0.28542 0.23936 0.0
C961 C 0.27533 0.29396 0.2544 0.0
C962 C 0.27892 0.32117 0.25936 0.0
C963 C 0.25943 0.33936 0.25073 0.0
H964 H 0.79433 0.31417 0.23827 0.0
H965 H 0.75278 0.33723 0.31792 0.0
H966 H 0.75663 0.28781 0.22272 0.0
H967 H 0.71463 0.31032 0.3023 0.0
H968 H 0.68118 0.22358 0.28236 0.0
H969 H 0.70963 0.2602 0.29704 0.0
H970 H 0.70857 0.28985 0.20706 0.0
H971 H 0.67976 0.25305 0.19228 0.0
C972 C 0.77699 0.31374 0.25239 0.0
C973 C 0.77664 0.32747 0.27954 0.0
C974 C 0.75524 0.29886 0.24327 0.0
C975 C 0.73262 0.297 0.26123 0.0
C976 C 0.73185 0.31139 0.28802 0.0
C977 C 0.75359 0.32679 0.29694 0.0
C978 C 0.68659 0.23819 0.26578 0.0
C979 C 0.67847 0.23528 0.23606 0.0
C980 C 0.70272 0.2593 0.27429 0.0
C981 C 0.71144 0.27784 0.25321 0.0
C982 C 0.70224 0.27575 0.22376 0.0
C983 C 0.68569 0.25477 0.21531 0.0
H984 H 0.74576 0.6445 0.26439 0.0
H985 H 0.78949 0.70529 0.21785 0.0
H986 H 0.70973 0.67608 0.27336 0.0
H987 H 0.75387 0.73677 0.22762 0.0
H988 H 0.70495 0.78781 0.29545 0.0
H989 H 0.73662 0.75264 0.28488 0.0
H990 H 0.67685 0.70984 0.23639 0.0
H991 H 0.64501 0.74552 0.24616 0.0
C992 C 0.74751 0.66443 0.25571 0.0
C993 C 0.77047 0.67238 0.2404 0.0
C994 C 0.72693 0.68243 0.26087 0.0
C995 C 0.72926 0.7088 0.25138 0.0
C996 C 0.75175 0.71653 0.23526 0.0
C997 C 0.77202 0.69844 0.22952 0.0
C998 C 0.69831 0.77074 0.28296 0.0
C999 C 0.67241 0.76949 0.27161 0.0
C1000 C 0.71654 0.75074 0.27674 0.0
C1001 C 0.70915 0.72876 0.25964 0.0
C1002 C 0.68295 0.72667 0.24959 0.0
C1003 C 0.66479 0.74703 0.25525 0.0
H1004 H 0.33318 0.75011 0.2025 0.0
H1005 H 0.31504 0.7888 0.28545 0.0
H1006 H 0.30463 0.71273 0.21702 0.0
H1007 H 0.28726 0.75158 0.30009 0.0
H1008 H 0.25122 0.67185 0.32563 0.0
H1009 H 0.28849 0.70059 0.31139 0.0
H1010 H 0.25309 0.71278 0.22524 0.0
H1011 H 0.21591 0.6848 0.23956 0.0
C1012 C 0.32353 0.75037 0.22398 0.0
C1013 C 0.32602 0.77244 0.24268 0.0
C1014 C 0.30722 0.72908 0.23228 0.0
C1015 C 0.29381 0.72925 0.25974 0.0
C1016 C 0.29754 0.75074 0.27898 0.0
C1017 C 0.31323 0.77217 0.27043 0.0
C1018 C 0.25171 0.68037 0.30354 0.0
C1019 C 0.23058 0.67638 0.28384 0.0
C1020 C 0.27295 0.69679 0.2954 0.0
C1021 C 0.27368 0.70884 0.26716 0.0
C1022 C 0.25322 0.70357 0.24699 0.0
C1023 C 0.23181 0.68775 0.25533 0.0
H1024 H 0.71094 0.80317 0.72445 0.0
H1025 H 0.75762 0.86891 0.75643 0.0
H1026 H 0.7462 0.77275 0.73818 0.0
H1027 H 0.79335 0.83812 0.76963 0.0
H1028 H 0.8571 0.76768 0.75133 0.0
H1029 H 0.8249 0.80275 0.74093 0.0
H1030 H 0.7659 0.76021 0.79117 0.0
H1031 H 0.79796 0.72548 0.8021 0.0
C1032 C 0.72889 0.81124 0.73393 0.0
C1033 C 0.73142 0.83855 0.73934 0.0
C1034 C 0.74899 0.79373 0.74204 0.0
C1035 C 0.77232 0.80307 0.75529 0.0
C1036 C 0.77549 0.83044 0.75953 0.0
C1037 C 0.75508 0.84801 0.75192 0.0
C1038 C 0.83744 0.76612 0.76074 0.0
C1039 C 0.8301 0.74372 0.77745 0.0
C1040 C 0.81905 0.78619 0.75476 0.0
C1041 C 0.79288 0.78396 0.76493 0.0
C1042 C 0.78591 0.76224 0.78281 0.0
C1043 C 0.80436 0.74246 0.78926 0.0
H1044 H 0.14853 0.76076 0.7658 0.0
H1045 H 0.2107 0.7177 0.72114 0.0
H1046 H 0.17993 0.79625 0.77752 0.0
H1047 H 0.24204 0.75282 0.73358 0.0
H1048 H 0.29265 0.80015 0.80159 0.0
H1049 H 0.25846 0.76826 0.78809 0.0
H1050 H 0.2126 0.83063 0.74774 0.0
H1051 H 0.24723 0.8627 0.76054 0.0
C1052 C 0.16876 0.75906 0.75809 0.0
C1053 C 0.17711 0.73641 0.74254 0.0
C1054 C 0.18668 0.77934 0.76485 0.0
C1055 C 0.21341 0.77705 0.75676 0.0
C1056 C 0.22156 0.75491 0.7403 0.0
C1057 C 0.20355 0.73493 0.73297 0.0
C1058 C 0.27513 0.80724 0.79027 0.0
C1059 C 0.27269 0.83402 0.78213 0.0
C1060 C 0.25569 0.7889 0.7823 0.0
C1061 C 0.2331 0.79698 0.76658 0.0
C1062 C 0.2299 0.82392 0.75978 0.0
C1063 C 0.24966 0.84224 0.76718 0.0
H1064 H 0.17872 0.25619 0.82718 0.0
H1065 H 0.18229 0.28439 0.73671 0.0
H1066 H 0.20898 0.21993 0.81421 0.0
H1067 H 0.21189 0.24809 0.72371 0.0
H1068 H 0.25464 0.16898 0.70725 0.0
H1069 H 0.21632 0.19641 0.72109 0.0
H1070 H 0.25839 0.22406 0.79845 0.0
H1071 H 0.29645 0.19736 0.7845 0.0
C1072 C 0.18539 0.25423 0.80442 0.0
C1073 C 0.17833 0.27317 0.78301 0.0
C1074 C 0.20275 0.23359 0.79701 0.0
C1075 C 0.21278 0.23122 0.76793 0.0
C1076 C 0.20431 0.24924 0.74619 0.0
C1077 C 0.18751 0.27012 0.75371 0.0
C1078 C 0.25549 0.18074 0.72732 0.0
C1079 C 0.27863 0.18131 0.74456 0.0
C1080 C 0.23364 0.1964 0.73523 0.0
C1081 C 0.23436 0.21225 0.76094 0.0
C1082 C 0.25711 0.21184 0.77874 0.0
C1083 C 0.27903 0.19676 0.77053 0.0
H1084 H 0.72832 0.21056 0.80092 0.0
H1085 H 0.757 0.15631 0.73419 0.0
H1086 H 0.76164 0.2427 0.78594 0.0
H1087 H 0.79077 0.18826 0.71964 0.0
H1088 H 0.81948 0.26651 0.67536 0.0
H1089 H 0.79245 0.22979 0.69349 0.0
H1090 H 0.80745 0.25405 0.78393 0.0
H1091 H 0.83384 0.29095 0.76583 0.0
C1092 C 0.74215 0.20519 0.78356 0.0
C1093 C 0.73984 0.18084 0.76871 0.0
C1094 C 0.76135 0.22367 0.77493 0.0
C1095 C 0.77884 0.21825 0.75132 0.0
C1096 C 0.77735 0.19335 0.73749 0.0
C1097 C 0.7581 0.17491 0.74606 0.0
C1098 C 0.81732 0.26376 0.6991 0.0
C1099 C 0.82863 0.28186 0.71907 0.0
C1100 C 0.80186 0.24264 0.70956 0.0
C1101 C 0.79747 0.23904 0.74025 0.0
C1102 C 0.80987 0.25647 0.76017 0.0
C1103 C 0.82517 0.27759 0.74975 0.0
H1104 H 0.18494 0.33044 0.92281 0.0
H1105 H 0.13951 0.40229 0.93142 0.0
H1106 H 0.17845 0.32121 0.97551 0.0
H1107 H 0.13396 0.39384 0.98428 0.0
H1108 H 0.10201 0.36021 0.069 0.0
H1109 H 0.10977 0.3665 0.01608 0.0
H1110 H 0.18739 0.33157 0.02533 0.0
H1111 H 0.17901 0.32431 0.07803 0.0
C1112 C 0.17428 0.34471 0.93616 0.0
C1113 C 0.1628 0.36715 0.92289 0.0
C1114 C 0.17042 0.33937 0.96646 0.0
C1115 C 0.15522 0.35648 0.98433 0.0
C1116 C 0.14506 0.37969 0.97124 0.0
C1117 C 0.14861 0.38482 0.94094 0.0
C1118 C 0.12048 0.35334 0.05956 0.0
C1119 C 0.1398 0.34163 0.07775 0.0
C1120 C 0.12517 0.35733 0.02923 0.0
C1121 C 0.1495 0.3501 0.01625 0.0
C1122 C 0.16835 0.33729 0.03427 0.0
C1123 C 0.1635 0.33299 0.06458 0.0
H1124 H 0.62707 0.11505 0.94036 0.0
H1125 H 0.66896 0.18957 0.94201 0.0
H1126 H 0.63106 0.11143 0.9935 0.0
H1127 H 0.67146 0.18682 0.99629 0.0
H1128 H 0.693 0.16078 0.09184 0.0
H1129 H 0.69156 0.16487 0.03762 0.0
H1130 H 0.61459 0.12754 0.03727 0.0
H1131 H 0.61687 0.12196 0.09032 0.0
C1132 C 0.6369 0.13093 0.95207 0.0
C1133 C 0.64781 0.15256 0.93662 0.0
C1134 C 0.63897 0.12897 0.98288 0.0
C1135 C 0.65147 0.14889 0.99959 0.0
C1136 C 0.662 0.17088 0.98426 0.0
C1137 C 0.66027 0.17265 0.95313 0.0
C1138 C 0.67599 0.15311 0.08004 0.0
C1139 C 0.65508 0.14101 0.09565 0.0
C1140 C 0.67498 0.15576 0.04894 0.0
C1141 C 0.65295 0.14653 0.03275 0.0
C1142 C 0.63218 0.13444 0.04856 0.0
C1143 C 0.63337 0.13145 0.07933 0.0
H1144 H 0.89929 0.65258 0.93044 0.0
H1145 H 0.81828 0.62556 0.93483 0.0
H1146 H 0.90048 0.65665 0.98415 0.0
H1147 H 0.81957 0.62964 0.98922 0.0
H1148 H 0.85033 0.60398 0.08331 0.0
H1149 H 0.844 0.60548 0.02985 0.0
H1150 H 0.88115 0.68239 0.02675 0.0
H1151 H 0.88751 0.68098 0.08082 0.0
C1152 C 0.88165 0.64749 0.94288 0.0
C1153 C 0.85874 0.63837 0.92829 0.0
C1154 C 0.88229 0.65015 0.97373 0.0
C1155 C 0.86015 0.64352 0.99099 0.0
C1156 C 0.83702 0.63479 0.97648 0.0
C1157 C 0.83624 0.63248 0.94539 0.0
C1158 C 0.85714 0.62132 0.07136 0.0
C1159 C 0.86977 0.64227 0.08637 0.0
C1160 C 0.8532 0.62226 0.04068 0.0
C1161 C 0.86203 0.64403 0.02402 0.0
C1162 C 0.87425 0.66526 0.039 0.0
C1163 C 0.87786 0.66449 0.06993 0.0
H1164 H 0.39313 0.88896 0.09585 0.0
H1165 H 0.31728 0.84977 0.09184 0.0
H1166 H 0.39859 0.88352 0.04313 0.0
H1167 H 0.32173 0.84618 0.03787 0.0
H1168 H 0.34806 0.82165 0.94434 0.0
H1169 H 0.34296 0.82459 0.99826 0.0
H1170 H 0.38654 0.89827 0.99771 0.0
H1171 H 0.39334 0.89414 0.945 0.0
C1172 C 0.37734 0.87946 0.08367 0.0
C1173 C 0.35486 0.86958 0.09841 0.0
C1174 C 0.38034 0.8766 0.05303 0.0
C1175 C 0.36061 0.86443 0.03573 0.0
C1176 C 0.33765 0.85523 0.05032 0.0
C1177 C 0.33487 0.85765 0.08129 0.0
C1178 C 0.35697 0.83818 0.95591 0.0
C1179 C 0.37106 0.85768 0.94011 0.0
C1180 C 0.3537 0.84011 0.98686 0.0
C1181 C 0.36418 0.86176 1.00275 0.0
C1182 C 0.37853 0.88099 0.98677 0.0
C1183 C 0.38222 0.87877 0.95615 0.0
H1184 H 0.10113 0.62884 0.5813 0.0
H1185 H 0.18171 0.65701 0.57747 0.0
H1186 H 0.09609 0.63674 0.52886 0.0
H1187 H 0.17731 0.66324 0.52378 0.0
H1188 H 0.15532 0.6917 0.43061 0.0
H1189 H 0.15853 0.68857 0.48475 0.0
H1190 H 0.10687 0.62033 0.48329 0.0
H1191 H 0.10235 0.62462 0.43018 0.0
C1192 C 0.11799 0.63642 0.56924 0.0
C1193 C 0.14183 0.64231 0.58392 0.0
C1194 C 0.11516 0.64078 0.53879 0.0
C1195 C 0.13629 0.65055 0.52163 0.0
C1196 C 0.16038 0.65611 0.53617 0.0
C1197 C 0.16306 0.65218 0.56697 0.0
C1198 C 0.14412 0.6765 0.44203 0.0
C1199 C 0.12864 0.65837 0.4259 0.0
C1200 C 0.14631 0.67439 0.47308 0.0
C1201 C 0.13318 0.65403 0.48872 0.0
C1202 C 0.11704 0.63656 0.47247 0.0
C1203 C 0.11459 0.63888 0.44171 0.0
H1204 H 0.393 0.11338 0.59725 0.0
H1205 H 0.35529 0.19001 0.59448 0.0
H1206 H 0.3872 0.10874 0.54436 0.0
H1207 H 0.351 0.18617 0.54052 0.0
H1208 H 0.32432 0.1604 0.44743 0.0
H1209 H 0.3281 0.1648 0.50137 0.0
H1210 H 0.40218 0.12215 0.49881 0.0
H1211 H 0.39747 0.11633 0.4459 0.0
C1212 C 0.38374 0.12949 0.58532 0.0
C1213 C 0.37445 0.15201 0.60042 0.0
C1214 C 0.38062 0.12693 0.55465 0.0
C1215 C 0.36861 0.14706 0.53775 0.0
C1216 C 0.35992 0.16999 0.5527 0.0
C1217 C 0.36272 0.17239 0.58366 0.0
C1218 C 0.34116 0.15159 0.45853 0.0
C1219 C 0.36059 0.13804 0.44212 0.0
C1220 C 0.34355 0.15444 0.48948 0.0
C1221 C 0.36554 0.14397 0.50477 0.0
C1222 C 0.3847 0.13016 0.48823 0.0
C1223 C 0.38211 0.127 0.45756 0.0
H1224 H 0.83175 0.32363 0.42678 0.0
H1225 H 0.90174 0.37217 0.43367 0.0
H1226 H 0.82244 0.33096 0.4793 0.0
H1227 H 0.89326 0.37855 0.48634 0.0
H1228 H 0.8598 0.41031 0.57079 0.0
H1229 H 0.86561 0.40202 0.51798 0.0
H1230 H 0.83317 0.32344 0.5293 0.0
H1231 H 0.82624 0.33239 0.58196 0.0
C1232 C 0.84557 0.33527 0.4397 0.0
C1233 C 0.86751 0.3473 0.42597 0.0
C1234 C 0.84019 0.33957 0.46991 0.0
C1235 C 0.85678 0.35578 0.48728 0.0
C1236 C 0.87947 0.36665 0.47371 0.0
C1237 C 0.88461 0.36266 0.44349 0.0
C1238 C 0.85336 0.39148 0.56185 0.0
C1239 C 0.84243 0.3721 0.58061 0.0
C1240 C 0.85709 0.3865 0.53156 0.0
C1241 C 0.85046 0.36177 0.51917 0.0
C1242 C 0.83842 0.34278 0.53777 0.0
C1243 C 0.83432 0.34794 0.56806 0.0
H1244 H 0.59337 0.85764 0.57796 0.0
H1245 H 0.66889 0.8179 0.58161 0.0
H1246 H 0.59761 0.86224 0.52465 0.0
H1247 H 0.67276 0.82156 0.52751 0.0
H1248 H 0.68428 0.86597 0.43682 0.0
H1249 H 0.68084 0.85521 0.48992 0.0
H1250 H 0.59725 0.84019 0.479 0.0
H1251 H 0.60052 0.85174 0.42704 0.0
C1252 C 0.6106 0.8492 0.56724 0.0
C1253 C 0.63078 0.83741 0.58413 0.0
C1254 C 0.61304 0.85178 0.5365 0.0
C1255 C 0.63564 0.84241 0.52158 0.0
C1256 C 0.65528 0.82938 0.53827 0.0
C1257 C 0.65285 0.82686 0.56924 0.0
C1258 C 0.66522 0.86047 0.44594 0.0
C1259 C 0.64258 0.86046 0.42785 0.0
C1260 C 0.66325 0.85405 0.47628 0.0
C1261 C 0.63866 0.84714 0.48896 0.0
C1262 C 0.61636 0.84614 0.47039 0.0
C1263 C 0.61825 0.85287 0.44044 0.0
H1264 H 0.14133 0.57761 0.23128 0.0
H1265 H 0.19031 0.55978 0.307 0.0
H1266 H 0.14732 0.53254 0.21308 0.0
H1267 H 0.19637 0.51457 0.28911 0.0
H1268 H 0.16333 0.42939 0.26827 0.0
H1269 H 0.16808 0.47532 0.28493 0.0
H1270 H 0.17817 0.5005 0.19385 0.0
H1271 H 0.17285 0.45517 0.1776 0.0
C1272 C 0.15402 0.56423 0.24352 0.0
C1273 C 0.16525 0.57197 0.27055 0.0
C1274 C 0.15741 0.53837 0.23325 0.0
C1275 C 0.17211 0.51984 0.24987 0.0
C1276 C 0.18453 0.52818 0.27612 0.0
C1277 C 0.18113 0.55404 0.28632 0.0
C1278 C 0.16698 0.44474 0.25197 0.0
C1279 C 0.16704 0.43882 0.22154 0.0
C1280 C 0.16978 0.47103 0.26145 0.0
C1281 C 0.17299 0.49165 0.2406 0.0
C1282 C 0.17497 0.48525 0.2104 0.0
C1283 C 0.17191 0.4592 0.20105 0.0
H1284 H 0.57343 0.19776 0.24469 0.0
H1285 H 0.57004 0.11589 0.27141 0.0
H1286 H 0.52568 0.20198 0.25331 0.0
H1287 H 0.5229 0.12015 0.28137 0.0
H1288 H 0.43883 0.12011 0.25929 0.0
H1289 H 0.48594 0.12316 0.24844 0.0
H1290 H 0.48816 0.20102 0.28807 0.0
H1291 H 0.44045 0.19824 0.29748 0.0
C1292 C 0.56262 0.18109 0.2538 0.0
C1293 C 0.5752 0.15658 0.25772 0.0
C1294 C 0.53529 0.18337 0.2584 0.0
C1295 C 0.52036 0.16117 0.26715 0.0
C1296 C 0.53363 0.13738 0.27361 0.0
C1297 C 0.5607 0.13503 0.26857 0.0
C1298 C 0.44923 0.13831 0.26441 0.0
C1299 C 0.43619 0.15905 0.27883 0.0
C1300 C 0.47629 0.13989 0.25884 0.0
C1301 C 0.49098 0.16197 0.26835 0.0
C1302 C 0.47745 0.18371 0.28058 0.0
C1303 C 0.45014 0.18227 0.28568 0.0
H1304 H 0.88494 0.565 0.26915 0.0
H1305 H 0.80582 0.5634 0.23361 0.0
H1306 H 0.88226 0.51782 0.27985 0.0
H1307 H 0.80336 0.51564 0.24302 0.0
H1308 H 0.8103 0.42908 0.28453 0.0
H1309 H 0.80462 0.47703 0.27805 0.0
H1310 H 0.88427 0.48233 0.24355 0.0
H1311 H 0.89002 0.43496 0.25115 0.0
C1312 C 0.86657 0.55464 0.26478 0.0
C1313 C 0.84553 0.56764 0.25083 0.0
C1314 C 0.86519 0.52755 0.27026 0.0
C1315 C 0.84297 0.51287 0.26122 0.0
C1316 C 0.8208 0.5264 0.25004 0.0
C1317 C 0.82206 0.55375 0.24498 0.0
C1318 C 0.82609 0.44051 0.27446 0.0
C1319 C 0.85048 0.42856 0.26797 0.0
C1320 C 0.82299 0.46791 0.27111 0.0
C1321 C 0.84429 0.48353 0.26117 0.0
C1322 C 0.8678 0.47097 0.25221 0.0
C1323 C 0.87095 0.44381 0.2559 0.0
H1324 H 0.56886 0.80553 0.27977 0.0
H1325 H 0.56007 0.88771 0.2558 0.0
H1326 H 0.52072 0.79959 0.2764 0.0
H1327 H 0.51251 0.88177 0.25139 0.0
H1328 H 0.43124 0.80416 0.24017 0.0
H1329 H 0.47942 0.80101 0.24532 0.0
H1330 H 0.47998 0.87624 0.29084 0.0
H1331 H 0.43229 0.87979 0.28421 0.0
C1332 C 0.55674 0.82191 0.27229 0.0
C1333 C 0.56799 0.84707 0.26799 0.0
C1334 C 0.52921 0.81864 0.2708 0.0
C1335 C 0.51279 0.84047 0.26477 0.0
C1336 C 0.52454 0.86481 0.25726 0.0
C1337 C 0.5518 0.86812 0.25911 0.0
C1338 C 0.44166 0.81935 0.25247 0.0
C1339 C 0.42828 0.84221 0.26185 0.0
C1340 C 0.46923 0.8177 0.25513 0.0
C1341 C 0.48355 0.83884 0.26749 0.0
C1342 C 0.46957 0.86006 0.28024 0.0
C1343 C 0.44222 0.86187 0.27713 0.0
H1344 H 0.86417 0.59179 0.74151 0.0
H1345 H 0.85989 0.55567 0.82836 0.0
H1346 H 0.86395 0.54851 0.71851 0.0
H1347 H 0.85802 0.51207 0.80528 0.0
H1348 H 0.8838 0.43711 0.75953 0.0
H1349 H 0.88302 0.48065 0.78168 0.0
H1350 H 0.84129 0.51081 0.7049 0.0
H1351 H 0.84358 0.46699 0.68193 0.0
C1352 C 0.86273 0.57457 0.75577 0.0
C1353 C 0.86213 0.5773 0.7869 0.0
C1354 C 0.86241 0.54957 0.74245 0.0
C1355 C 0.86103 0.52642 0.75979 0.0
C1356 C 0.85974 0.52924 0.79099 0.0
C1357 C 0.86057 0.55431 0.80436 0.0
C1358 C 0.87446 0.45303 0.74728 0.0
C1359 C 0.86367 0.44851 0.71893 0.0
C1360 C 0.87377 0.47812 0.7602 0.0
C1361 C 0.86177 0.49956 0.74549 0.0
C1362 C 0.85104 0.49505 0.71694 0.0
C1363 C 0.85222 0.46988 0.7037 0.0
H1364 H 0.54505 0.85214 0.68815 0.0
H1365 H 0.57923 0.8843 0.7682 0.0
H1366 H 0.50196 0.85027 0.71242 0.0
H1367 H 0.53615 0.88394 0.79192 0.0
H1368 H 0.45916 0.86121 0.83725 0.0
H1369 H 0.50272 0.85943 0.81377 0.0
H1370 H 0.46667 0.87512 0.72843 0.0
H1371 H 0.42352 0.87534 0.75156 0.0
C1372 C 0.54331 0.85909 0.71082 0.0
C1373 C 0.56563 0.86836 0.72615 0.0
C1374 C 0.5185 0.85818 0.7248 0.0
C1375 C 0.51523 0.86703 0.75433 0.0
C1376 C 0.53769 0.87641 0.76949 0.0
C1377 C 0.56251 0.87685 0.75571 0.0
C1378 C 0.46063 0.86411 0.81347 0.0
C1379 C 0.43777 0.86825 0.79637 0.0
C1380 C 0.48566 0.86329 0.79992 0.0
C1381 C 0.48853 0.86707 0.76897 0.0
C1382 C 0.46553 0.87143 0.75208 0.0
C1383 C 0.4406 0.87178 0.7655 0.0
H1384 H 0.15303 0.42876 0.74138 0.0
H1385 H 0.12645 0.45847 0.8263 0.0
H1386 H 0.15293 0.47316 0.72133 0.0
H1387 H 0.12588 0.50342 0.80571 0.0
H1388 H 0.12404 0.55216 0.68456 0.0
H1389 H 0.12344 0.50771 0.70588 0.0
H1390 H 0.15506 0.53833 0.78803 0.0
H1391 H 0.15523 0.58269 0.76706 0.0
C1392 C 0.14708 0.44474 0.75591 0.0
C1393 C 0.13981 0.43982 0.78567 0.0
C1394 C 0.14682 0.47034 0.74418 0.0
C1395 C 0.13925 0.492 0.76172 0.0
C1396 C 0.13208 0.48725 0.79157 0.0
C1397 C 0.13232 0.46145 0.8034 0.0
C1398 C 0.13103 0.54942 0.70709 0.0
C1399 C 0.13977 0.57115 0.72393 0.0
C1400 C 0.13071 0.52387 0.71937 0.0
C1401 C 0.13916 0.51933 0.7488 0.0
C1402 C 0.14803 0.54104 0.76552 0.0
C1403 C 0.14835 0.56654 0.75329 0.0
H1404 H 0.46303 0.12777 0.69864 0.0
H1405 H 0.43345 0.15389 0.78381 0.0
H1406 H 0.50807 0.12792 0.71873 0.0
H1407 H 0.478 0.15444 0.80341 0.0
H1408 H 0.55844 0.12752 0.83874 0.0
H1409 H 0.51366 0.12571 0.8184 0.0
H1410 H 0.54207 0.15843 0.73564 0.0
H1411 H 0.58664 0.15987 0.7556 0.0
C1412 C 0.46606 0.13365 0.72151 0.0
C1413 C 0.44446 0.14088 0.73943 0.0
C1414 C 0.4919 0.13382 0.73305 0.0
C1415 C 0.49674 0.14114 0.7628 0.0
C1416 C 0.47511 0.14829 0.7806 0.0
C1417 C 0.44944 0.14817 0.76914 0.0
C1418 C 0.55512 0.1345 0.81629 0.0
C1419 C 0.57629 0.14392 0.79897 0.0
C1420 C 0.5294 0.13348 0.80458 0.0
C1421 C 0.52418 0.14182 0.77524 0.0
C1422 C 0.54533 0.15141 0.75808 0.0
C1423 C 0.57095 0.15247 0.76974 0.0
H1424 H 0.61773 0.07338 0.76637 0.0
H1425 H 0.70302 0.07485 0.76829 0.0
H1426 H 0.61851 0.029 0.74606 0.0
H1427 H 0.70402 0.02981 0.74724 0.0
H1428 H 0.68491 0.93674 0.75177 0.0
H1429 H 0.69068 0.98354 0.76523 0.0
H1430 H 0.63059 0.00533 0.70163 0.0
H1431 H 0.62378 0.9595 0.68954 0.0
C1432 C 0.6367 0.06437 0.7615 0.0
C1433 C 0.6603 0.07752 0.76837 0.0
C1434 C 0.6372 0.03892 0.74992 0.0
C1435 C 0.66135 0.0259 0.74499 0.0
C1436 C 0.68514 0.03938 0.75096 0.0
C1437 C 0.68461 0.06519 0.76246 0.0
C1438 C 0.67304 0.9516 0.74068 0.0
C1439 C 0.65378 0.94421 0.71972 0.0
C1440 C 0.67655 0.97837 0.74812 0.0
C1441 C 0.66095 0.99806 0.73458 0.0
C1442 C 0.64263 0.99064 0.71278 0.0
C1443 C 0.63888 0.96418 0.70574 0.0
H1444 H 0.93668 0.70511 0.78398 0.0
H1445 H 0.93673 0.62627 0.74753 0.0
H1446 H 0.98465 0.70806 0.77619 0.0
H1447 H 0.98407 0.62947 0.7384 0.0
H1448 H 0.0664 0.6219 0.76541 0.0
H1449 H 0.0193 0.6274 0.77462 0.0
H1450 H 0.02364 0.70781 0.74207 0.0
H1451 H 0.07139 0.70244 0.73419 0.0
C1452 C 0.94678 0.68902 0.77284 0.0
C1453 C 0.93324 0.66548 0.76624 0.0
C1454 C 0.97423 0.69056 0.76872 0.0
C1455 C 0.98824 0.66862 0.75769 0.0
C1456 C 0.97398 0.64633 0.74801 0.0
C1457 C 0.94682 0.64466 0.75258 0.0
C1458 C 0.05747 0.6411 0.76154 0.0
C1459 C 0.07234 0.6618 0.74934 0.0
C1460 C 0.03042 0.64412 0.76616 0.0
C1461 C 0.01759 0.66772 0.75796 0.0
C1462 C 0.03295 0.68934 0.74838 0.0
C1463 C 0.06028 0.68641 0.74423 0.0
H1464 H 0.31011 0.07635 0.74586 0.0
H1465 H 0.38721 0.07599 0.78661 0.0
H1466 H 0.30588 0.02868 0.75522 0.0
H1467 H 0.38272 0.02888 0.7972 0.0
H1468 H 0.38958 0.94579 0.76816 0.0
H1469 H 0.38546 0.9933 0.76074 0.0
H1470 H 0.30435 0.99003 0.79089 0.0
H1471 H 0.30846 0.94187 0.79744 0.0
C1472 C 0.32548 0.06629 0.75826 0.0
C1473 C 0.34891 0.07963 0.76574 0.0
C1474 C 0.3232 0.039 0.76334 0.0
C1475 C 0.34432 0.02492 0.77611 0.0
C1476 C 0.36645 0.03905 0.78649 0.0
C1477 C 0.36884 0.06609 0.78104 0.0
C1478 C 0.3706 0.95512 0.77213 0.0
C1479 C 0.34927 0.94032 0.78305 0.0
C1480 C 0.36835 0.98237 0.76848 0.0
C1481 C 0.34484 0.99553 0.77622 0.0
C1482 C 0.32275 0.98044 0.78495 0.0
C1483 C 0.32496 0.95291 0.78833 0.0
H1484 H 0.0833 0.36669 0.72619 0.0
H1485 H 0.05811 0.32482 0.80469 0.0
H1486 H 0.03787 0.36604 0.70752 0.0
H1487 H 0.01265 0.32537 0.78726 0.0
H1488 H 0.93247 0.32148 0.74196 0.0
H1489 H 0.979 0.31242 0.75308 0.0
H1490 H 0.99988 0.3908 0.72233 0.0
H1491 H 0.95397 0.39945 0.71061 0.0
C1492 C 0.06814 0.35688 0.73914 0.0
C1493 C 0.07397 0.3463 0.76715 0.0
C1494 C 0.04206 0.3568 0.72871 0.0
C1495 C 0.02145 0.34626 0.74626 0.0
C1496 C 0.02789 0.33372 0.77315 0.0
C1497 C 0.05391 0.33371 0.7834 0.0
C1498 C 0.94705 0.33676 0.73781 0.0
C1499 C 0.93953 0.36117 0.72551 0.0
C1500 C 0.9737 0.33156 0.74402 0.0
C1501 C 0.99328 0.35075 0.7382 0.0
C1502 C 0.98554 0.37526 0.7263 0.0
C1503 C 0.95908 0.38036 0.71996 0.0
H1504 H 0.35354 0.08118 0.25762 0.0
H1505 H 0.38244 0.04961 0.34077 0.0
H1506 H 0.35338 0.037 0.23642 0.0
H1507 H 0.38278 0.0053 0.3192 0.0
H1508 H 0.35257 0.92704 0.28241 0.0
H1509 H 0.35309 0.97129 0.30282 0.0
H1510 H 0.3821 1.00182 0.21926 0.0
H1511 H 0.38105 0.95711 0.19831 0.0
C1512 C 0.35987 0.06483 0.27148 0.0
C1513 C 0.36786 0.06909 0.3011 0.0
C1514 C 0.36001 0.03943 0.25912 0.0
C1515 C 0.36813 0.01746 0.27596 0.0
C1516 C 0.37606 0.02167 0.30562 0.0
C1517 C 0.37591 0.04713 0.31803 0.0
C1518 C 0.35901 0.94308 0.26815 0.0
C1519 C 0.36667 0.93832 0.23851 0.0
C1520 C 0.35952 0.96857 0.28008 0.0
C1521 C 0.36778 0.99025 0.26287 0.0
C1522 C 0.37536 0.98564 0.23314 0.0
C1523 C 0.37484 0.95998 0.22111 0.0
H1524 H 0.93231 0.34826 0.24371 0.0
H1525 H 0.96221 0.37937 0.32653 0.0
H1526 H 0.97593 0.35097 0.22212 0.0
H1527 H 0.00628 0.38304 0.30425 0.0
H1528 H 0.08653 0.3597 0.26408 0.0
H1529 H 0.04315 0.35827 0.28693 0.0
H1530 H 0.00764 0.38089 0.20339 0.0
H1531 H 0.05127 0.38135 0.18005 0.0
C1532 C 0.9482 0.3557 0.25748 0.0
C1533 C 0.94356 0.36341 0.28712 0.0
C1534 C 0.97335 0.35758 0.24481 0.0
C1535 C 0.99481 0.36749 0.26117 0.0
C1536 C 0.99034 0.37505 0.29095 0.0
C1537 C 0.96503 0.37298 0.30379 0.0
C1538 C 0.06954 0.3643 0.25038 0.0
C1539 C 0.07255 0.37031 0.21995 0.0
C1540 C 0.04453 0.36373 0.26371 0.0
C1541 C 0.02167 0.36936 0.24715 0.0
C1542 C 0.02469 0.37592 0.21683 0.0
C1543 C 0.04976 0.37632 0.20339 0.0
H1544 H 0.62757 0.95467 0.33127 0.0
H1545 H 0.65536 0.92372 0.24742 0.0
H1546 H 0.62901 0.99938 0.31077 0.0
H1547 H 0.65732 0.96833 0.22725 0.0
H1548 H 0.62994 0.04953 0.19124 0.0
H1549 H 0.62928 0.00438 0.21102 0.0
H1550 H 0.6594 0.03299 0.2948 0.0
H1551 H 0.6595 0.07775 0.27553 0.0
C1552 C 0.63429 0.95737 0.30862 0.0
C1553 C 0.6414 0.93547 0.29113 0.0
C1554 C 0.63517 0.98306 0.29682 0.0
C1555 C 0.64325 0.98757 0.26725 0.0
C1556 C 0.65061 0.96567 0.24991 0.0
C1557 C 0.64971 0.94003 0.26166 0.0
C1558 C 0.63659 0.04614 0.21379 0.0
C1559 C 0.64477 0.06742 0.23167 0.0
C1560 C 0.63627 0.02022 0.22516 0.0
C1561 C 0.64412 0.01497 0.25465 0.0
C1562 C 0.65273 0.03623 0.27223 0.0
C1563 C 0.65301 0.062 0.26096 0.0
H1564 H 0.0466 0.61969 0.32697 0.0
H1565 H 0.07787 0.64208 0.24113 0.0
H1566 H 1.00196 0.61883 0.30572 0.0
H1567 H 0.03379 0.64172 0.22041 0.0
H1568 H 0.95394 0.61487 0.18428 0.0
H1569 H 0.99819 0.61309 0.20596 0.0
H1570 H 0.96843 0.64866 0.28649 0.0
H1571 H 0.92432 0.65001 0.26521 0.0
C1572 C 0.04404 0.62445 0.30368 0.0
C1573 C 0.066 0.63104 0.28595 0.0
C1574 C 0.01843 0.62408 0.29149 0.0
C1575 C 0.01418 0.63019 0.26125 0.0
C1576 C 0.0362 0.6365 0.2436 0.0
C1577 C 0.06162 0.63691 0.2557 0.0
C1578 C 0.95685 0.62247 0.20652 0.0
C1579 C 0.93543 0.63267 0.22283 0.0
C1580 C 0.98227 0.62146 0.21901 0.0
C1581 C 0.98697 0.63064 0.24812 0.0
C1582 C 0.96557 0.64098 0.26428 0.0
C1583 C 0.94023 0.64199 0.25184 0.0
loop_
_geom_bond_atom_site_label_1
_geom_bond_atom_site_label_2
_geom_bond_distance
_geom_bond_site_symmetry_2
_ccdc_geom_bond_type
Co0 O2 2.143 . S
Co0 O8 2.074 . S
Co0 O11 2.093 . S
Co0 O24 2.097 . S
Co0 N41 2.151 . S
Co0 N49 2.214 . S
Co1 O2 2.160 . S
Co1 O7 2.058 . S
Co1 O17 2.057 . S
Co1 O32 2.037 . S
Co1 N36 2.145 . S
Co1 N57 2.257 . S
O2 Co0 2.143 . S
O2 Co1 2.160 . S
C3 O4 1.278 . S
C3 O11 1.224 . S
O4 C3 1.278 . S
C5 O6 1.245 . S
C5 O17 1.232 . S
O6 C5 1.245 . S
O7 Co1 2.058 . S
O7 C33 1.269 . S
O8 Co0 2.074 . S
O8 C33 1.257 . S
H9 C34 0.930 . S
H10 C40 0.930 . S
O11 Co0 2.093 . S
O11 C3 1.224 . S
H12 C44 0.929 . S
H13 C46 0.930 . S
H14 C47 0.930 . S
H15 C45 0.929 . S
H16 C48 0.928 . S
O17 Co1 2.057 . S
O17 C5 1.232 . S
H18 C37 0.929 . S
H19 C38 0.929 . S
H20 C50 0.931 . S
H21 C42 0.929 . S
H22 C51 0.930 . S
H23 C43 0.931 . S
O24 Co0 2.097 . S
O24 C52 1.214 . S
H25 C53 0.929 . S
H26 C54 0.929 . S
H27 C55 0.930 . S
H28 C56 0.929 . S
H29 C58 0.930 . S
H30 C35 0.930 . S
H31 C39 0.930 . S
O32 Co1 2.037 . S
O32 C52 1.234 . S
C33 O7 1.269 . S
C33 O8 1.257 . S
C34 H9 0.930 . S
C34 C37 1.388 . S
C34 C39 1.418 . S
C35 H30 0.930 . S
C35 C38 1.404 . S
C35 C39 1.353 . S
N36 Co1 2.145 . S
N36 C37 1.397 . S
N36 C38 1.334 . S
C37 H18 0.929 . S
C37 C34 1.388 . S
C37 N36 1.397 . S
C38 H19 0.929 . S
C38 C35 1.404 . S
C38 N36 1.334 . S
C39 H31 0.930 . S
C39 C34 1.418 . S
C39 C35 1.353 . S
C40 H10 0.930 . S
C40 N41 1.330 . S
C40 C42 1.446 . S
N41 Co0 2.151 . S
N41 C40 1.330 . S
N41 C45 1.418 . S
C42 H21 0.929 . S
C42 C40 1.446 . S
C42 C43 1.332 . S
C43 H23 0.931 . S
C43 C42 1.332 . S
C43 C44 1.267 . S
C44 H12 0.929 . S
C44 C43 1.267 . S
C44 C45 1.251 . S
C45 H15 0.929 . S
C45 N41 1.418 . S
C45 C44 1.251 . S
C46 H13 0.930 . S
C46 C48 1.406 . S
C46 C51 1.261 . S
C47 H14 0.930 . S
C47 N49 1.325 . S
C47 C50 1.357 . S
C48 H16 0.928 . S
C48 C46 1.406 . S
C48 N49 1.261 . S
N49 Co0 2.214 . S
N49 C47 1.325 . S
N49 C48 1.261 . S
C50 H20 0.931 . S
C50 C47 1.357 . S
C50 C51 1.312 . S
C51 H22 0.930 . S
C51 C46 1.261 . S
C51 C50 1.312 . S
C52 O24 1.214 . S
C52 O32 1.234 . S
C53 H25 0.929 . S
C53 C56 1.391 . S
C53 C58 1.391 . S
C54 H26 0.929 . S
C54 C55 1.390 . S
C54 N57 1.391 . S
C55 H27 0.930 . S
C55 C54 1.390 . S
C55 C56 1.392 . S
C56 H28 0.929 . S
C56 C53 1.391 . S
C56 C55 1.392 . S
N57 Co1 2.257 . S
N57 C54 1.391 . S
N57 C58 1.388 . S
C58 H29 0.930 . S
C58 C53 1.391 . S
C58 N57 1.388 . S
Co59 O61 2.143 . S
Co59 O67 2.074 . S
Co59 O70 2.093 . S
Co59 O83 2.097 . S
Co59 N100 2.151 . S
Co59 N108 2.214 . S
Co60 O61 2.160 . S
Co60 O66 2.058 . S
Co60 O76 2.057 . S
Co60 O91 2.037 . S
Co60 N95 2.145 . S
Co60 N116 2.257 . S
O61 Co59 2.143 . S
O61 Co60 2.160 . S
C62 O63 1.278 . S
C62 O70 1.224 . S
O63 C62 1.278 . S
C64 O65 1.245 . S
C64 O76 1.232 . S
O65 C64 1.245 . S
O66 Co60 2.058 . S
O66 C92 1.269 . S
O67 Co59 2.074 . S
O67 C92 1.257 . S
H68 C93 0.930 . S
H69 C99 0.930 . S
O70 Co59 2.093 . S
O70 C62 1.224 . S
H71 C103 0.929 . S
H72 C105 0.930 . S
H73 C106 0.930 . S
H74 C104 0.929 . S
H75 C107 0.928 . S
O76 Co60 2.057 . S
O76 C64 1.232 . S
H77 C96 0.929 . S
H78 C97 0.929 . S
H79 C109 0.931 . S
H80 C101 0.929 . S
H81 C110 0.930 . S
H82 C102 0.931 . S
O83 Co59 2.097 . S
O83 C111 1.214 . S
H84 C112 0.929 . S
H85 C113 0.929 . S
H86 C114 0.930 . S
H87 C115 0.929 . S
H88 C117 0.930 . S
H89 C94 0.930 . S
H90 C98 0.930 . S
O91 Co60 2.037 . S
O91 C111 1.234 . S
C92 O66 1.269 . S
C92 O67 1.257 . S
C93 H68 0.930 . S
C93 C96 1.388 . S
C93 C98 1.418 . S
C94 H89 0.930 . S
C94 C97 1.404 . S
C94 C98 1.353 . S
N95 Co60 2.145 . S
N95 C96 1.397 . S
N95 C97 1.334 . S
C96 H77 0.929 . S
C96 C93 1.388 . S
C96 N95 1.397 . S
C97 H78 0.929 . S
C97 C94 1.404 . S
C97 N95 1.334 . S
C98 H90 0.930 . S
C98 C93 1.418 . S
C98 C94 1.353 . S
C99 H69 0.930 . S
C99 N100 1.330 . S
C99 C101 1.446 . S
N100 Co59 2.151 . S
N100 C99 1.330 . S
N100 C104 1.418 . S
C101 H80 0.929 . S
C101 C99 1.446 . S
C101 C102 1.332 . S
C102 H82 0.931 . S
C102 C101 1.332 . S
C102 C103 1.267 . S
C103 H71 0.929 . S
C103 C102 1.267 . S
C103 C104 1.251 . S
C104 H74 0.929 . S
C104 N100 1.418 . S
C104 C103 1.251 . S
C105 H72 0.930 . S
C105 C107 1.406 . S
C105 C110 1.261 . S
C106 H73 0.930 . S
C106 N108 1.325 . S
C106 C109 1.357 . S
C107 H75 0.928 . S
C107 C105 1.406 . S
C107 N108 1.261 . S
N108 Co59 2.214 . S
N108 C106 1.325 . S
N108 C107 1.261 . S
C109 H79 0.931 . S
C109 C106 1.357 . S
C109 C110 1.312 . S
C110 H81 0.930 . S
C110 C105 1.261 . S
C110 C109 1.312 . S
C111 O83 1.214 . S
C111 O91 1.234 . S
C112 H84 0.929 . S
C112 C115 1.391 . S
C112 C117 1.391 . S
C113 H85 0.929 . S
C113 C114 1.390 . S
C113 N116 1.391 . S
C114 H86 0.930 . S
C114 C113 1.390 . S
C114 C115 1.392 . S
C115 H87 0.929 . S
C115 C112 1.391 . S
C115 C114 1.392 . S
N116 Co60 2.257 . S
N116 C113 1.391 . S
N116 C117 1.388 . S
C117 H88 0.930 . S
C117 C112 1.391 . S
C117 N116 1.388 . S
Co118 O120 2.143 . S
Co118 O126 2.074 . S
Co118 O129 2.093 . S
Co118 O142 2.097 . S
Co118 N159 2.151 . S
Co118 N167 2.214 . S
Co119 O120 2.160 . S
Co119 O125 2.058 . S
Co119 O135 2.057 . S
Co119 O150 2.037 . S
Co119 N154 2.145 . S
Co119 N175 2.257 . S
O120 Co118 2.143 . S
O120 Co119 2.160 . S
C121 O122 1.278 . S
C121 O129 1.224 . S
O122 C121 1.278 . S
C123 O124 1.245 . S
C123 O135 1.232 . S
O124 C123 1.245 . S
O125 Co119 2.058 . S
O125 C151 1.269 . S
O126 Co118 2.074 . S
O126 C151 1.257 . S
H127 C152 0.930 . S
H128 C158 0.930 . S
O129 Co118 2.093 . S
O129 C121 1.224 . S
H130 C162 0.929 . S
H131 C164 0.930 . S
H132 C165 0.930 . S
H133 C163 0.929 . S
H134 C166 0.928 . S
O135 Co119 2.057 . S
O135 C123 1.232 . S
H136 C155 0.929 . S
H137 C156 0.929 . S
H138 C168 0.931 . S
H139 C160 0.929 . S
H140 C169 0.930 . S
H141 C161 0.931 . S
O142 Co118 2.097 . S
O142 C170 1.214 . S
H143 C171 0.929 . S
H144 C172 0.929 . S
H145 C173 0.930 . S
H146 C174 0.929 . S
H147 C176 0.930 . S
H148 C153 0.930 . S
H149 C157 0.930 . S
O150 Co119 2.037 . S
O150 C170 1.234 . S
C151 O125 1.269 . S
C151 O126 1.257 . S
C152 H127 0.930 . S
C152 C155 1.388 . S
C152 C157 1.418 . S
C153 H148 0.930 . S
C153 C156 1.404 . S
C153 C157 1.353 . S
N154 Co119 2.145 . S
N154 C155 1.397 . S
N154 C156 1.334 . S
C155 H136 0.929 . S
C155 C152 1.388 . S
C155 N154 1.397 . S
C156 H137 0.929 . S
C156 C153 1.404 . S
C156 N154 1.334 . S
C157 H149 0.930 . S
C157 C152 1.418 . S
C157 C153 1.353 . S
C158 H128 0.930 . S
C158 N159 1.330 . S
C158 C160 1.446 . S
N159 Co118 2.151 . S
N159 C158 1.330 . S
N159 C163 1.418 . S
C160 H139 0.929 . S
C160 C158 1.446 . S
C160 C161 1.332 . S
C161 H141 0.931 . S
C161 C160 1.332 . S
C161 C162 1.267 . S
C162 H130 0.929 . S
C162 C161 1.267 . S
C162 C163 1.251 . S
C163 H133 0.929 . S
C163 N159 1.418 . S
C163 C162 1.251 . S
C164 H131 0.930 . S
C164 C166 1.406 . S
C164 C169 1.261 . S
C165 H132 0.930 . S
C165 N167 1.325 . S
C165 C168 1.357 . S
C166 H134 0.928 . S
C166 C164 1.406 . S
C166 N167 1.261 . S
N167 Co118 2.214 . S
N167 C165 1.325 . S
N167 C166 1.261 . S
C168 H138 0.931 . S
C168 C165 1.357 . S
C168 C169 1.312 . S
C169 H140 0.930 . S
C169 C164 1.261 . S
C169 C168 1.312 . S
C170 O142 1.214 . S
C170 O150 1.234 . S
C171 H143 0.929 . S
C171 C174 1.391 . S
C171 C176 1.391 . S
C172 H144 0.929 . S
C172 C173 1.390 . S
C172 N175 1.391 . S
C173 H145 0.930 . S
C173 C172 1.390 . S
C173 C174 1.392 . S
C174 H146 0.929 . S
C174 C171 1.391 . S
C174 C173 1.392 . S
N175 Co119 2.257 . S
N175 C172 1.391 . S
N175 C176 1.388 . S
C176 H147 0.930 . S
C176 C171 1.391 . S
C176 N175 1.388 . S
Co177 O179 2.143 . S
Co177 O185 2.074 . S
Co177 O188 2.093 . S
Co177 O201 2.097 . S
Co177 N218 2.151 . S
Co177 N226 2.214 . S
Co178 O179 2.160 . S
Co178 O184 2.058 . S
Co178 O194 2.057 . S
Co178 O209 2.037 . S
Co178 N213 2.145 . S
Co178 N234 2.257 . S
O179 Co177 2.143 . S
O179 Co178 2.160 . S
C180 O181 1.278 . S
C180 O188 1.224 . S
O181 C180 1.278 . S
C182 O183 1.245 . S
C182 O194 1.232 . S
O183 C182 1.245 . S
O184 Co178 2.058 . S
O184 C210 1.269 . S
O185 Co177 2.074 . S
O185 C210 1.257 . S
H186 C211 0.930 . S
H187 C217 0.930 . S
O188 Co177 2.093 . S
O188 C180 1.224 . S
H189 C221 0.929 . S
H190 C223 0.930 . S
H191 C224 0.930 . S
H192 C222 0.929 . S
H193 C225 0.928 . S
O194 Co178 2.057 . S
O194 C182 1.232 . S
H195 C214 0.929 . S
H196 C215 0.929 . S
H197 C227 0.931 . S
H198 C219 0.929 . S
H199 C228 0.930 . S
H200 C220 0.931 . S
O201 Co177 2.097 . S
O201 C229 1.214 . S
H202 C230 0.929 . S
H203 C231 0.929 . S
H204 C232 0.930 . S
H205 C233 0.929 . S
H206 C235 0.930 . S
H207 C212 0.930 . S
H208 C216 0.930 . S
O209 Co178 2.037 . S
O209 C229 1.234 . S
C210 O184 1.269 . S
C210 O185 1.257 . S
C211 H186 0.930 . S
C211 C214 1.388 . S
C211 C216 1.418 . S
C212 H207 0.930 . S
C212 C215 1.404 . S
C212 C216 1.353 . S
N213 Co178 2.145 . S
N213 C214 1.397 . S
N213 C215 1.334 . S
C214 H195 0.929 . S
C214 C211 1.388 . S
C214 N213 1.397 . S
C215 H196 0.929 . S
C215 C212 1.404 . S
C215 N213 1.334 . S
C216 H208 0.930 . S
C216 C211 1.418 . S
C216 C212 1.353 . S
C217 H187 0.930 . S
C217 N218 1.330 . S
C217 C219 1.446 . S
N218 Co177 2.151 . S
N218 C217 1.330 . S
N218 C222 1.418 . S
C219 H198 0.929 . S
C219 C217 1.446 . S
C219 C220 1.332 . S
C220 H200 0.931 . S
C220 C219 1.332 . S
C220 C221 1.267 . S
C221 H189 0.929 . S
C221 C220 1.267 . S
C221 C222 1.251 . S
C222 H192 0.929 . S
C222 N218 1.418 . S
C222 C221 1.251 . S
C223 H190 0.930 . S
C223 C225 1.406 . S
C223 C228 1.261 . S
C224 H191 0.930 . S
C224 N226 1.325 . S
C224 C227 1.357 . S
C225 H193 0.928 . S
C225 C223 1.406 . S
C225 N226 1.261 . S
N226 Co177 2.214 . S
N226 C224 1.325 . S
N226 C225 1.261 . S
C227 H197 0.931 . S
C227 C224 1.357 . S
C227 C228 1.312 . S
C228 H199 0.930 . S
C228 C223 1.261 . S
C228 C227 1.312 . S
C229 O201 1.214 . S
C229 O209 1.234 . S
C230 H202 0.929 . S
C230 C233 1.391 . S
C230 C235 1.391 . S
C231 H203 0.929 . S
C231 C232 1.390 . S
C231 N234 1.391 . S
C232 H204 0.930 . S
C232 C231 1.390 . S
C232 C233 1.392 . S
C233 H205 0.929 . S
C233 C230 1.391 . S
C233 C232 1.392 . S
N234 Co178 2.257 . S
N234 C231 1.391 . S
N234 C235 1.388 . S
C235 H206 0.930 . S
C235 C230 1.391 . S
C235 N234 1.388 . S
Co236 O238 2.143 . S
Co236 O244 2.074 . S
Co236 O247 2.093 . S
Co236 O260 2.097 . S
Co236 N277 2.151 . S
Co236 N285 2.214 . S
Co237 O238 2.160 . S
Co237 O243 2.058 . S
Co237 O253 2.057 . S
Co237 O268 2.037 . S
Co237 N272 2.145 . S
Co237 N293 2.257 . S
O238 Co236 2.143 . S
O238 Co237 2.160 . S
C239 O240 1.278 . S
C239 O247 1.224 . S
O240 C239 1.278 . S
C241 O242 1.245 . S
C241 O253 1.232 . S
O242 C241 1.245 . S
O243 Co237 2.058 . S
O243 C269 1.269 . S
O244 Co236 2.074 . S
O244 C269 1.257 . S
H245 C270 0.930 . S
H246 C276 0.930 . S
O247 Co236 2.093 . S
O247 C239 1.224 . S
H248 C280 0.929 . S
H249 C282 0.930 . S
H250 C283 0.930 . S
H251 C281 0.929 . S
H252 C284 0.928 . S
O253 Co237 2.057 . S
O253 C241 1.232 . S
H254 C273 0.929 . S
H255 C274 0.929 . S
H256 C286 0.931 . S
H257 C278 0.929 . S
H258 C287 0.930 . S
H259 C279 0.931 . S
O260 Co236 2.097 . S
O260 C288 1.214 . S
H261 C289 0.929 . S
H262 C290 0.929 . S
H263 C291 0.930 . S
H264 C292 0.929 . S
H265 C294 0.930 . S
H266 C271 0.930 . S
H267 C275 0.930 . S
O268 Co237 2.037 . S
O268 C288 1.234 . S
C269 O243 1.269 . S
C269 O244 1.257 . S
C270 H245 0.930 . S
C270 C273 1.388 . S
C270 C275 1.418 . S
C271 H266 0.930 . S
C271 C274 1.404 . S
C271 C275 1.353 . S
N272 Co237 2.145 . S
N272 C273 1.397 . S
N272 C274 1.334 . S
C273 H254 0.929 . S
C273 C270 1.388 . S
C273 N272 1.397 . S
C274 H255 0.929 . S
C274 C271 1.404 . S
C274 N272 1.334 . S
C275 H267 0.930 . S
C275 C270 1.418 . S
C275 C271 1.353 . S
C276 H246 0.930 . S
C276 N277 1.330 . S
C276 C278 1.446 . S
N277 Co236 2.151 . S
N277 C276 1.330 . S
N277 C281 1.418 . S
C278 H257 0.929 . S
C278 C276 1.446 . S
C278 C279 1.332 . S
C279 H259 0.931 . S
C279 C278 1.332 . S
C279 C280 1.267 . S
C280 H248 0.929 . S
C280 C279 1.267 . S
C280 C281 1.251 . S
C281 H251 0.929 . S
C281 N277 1.418 . S
C281 C280 1.251 . S
C282 H249 0.930 . S
C282 C284 1.406 . S
C282 C287 1.261 . S
C283 H250 0.930 . S
C283 N285 1.325 . S
C283 C286 1.357 . S
C284 H252 0.928 . S
C284 C282 1.406 . S
C284 N285 1.261 . S
N285 Co236 2.214 . S
N285 C283 1.325 . S
N285 C284 1.261 . S
C286 H256 0.931 . S
C286 C283 1.357 . S
C286 C287 1.312 . S
C287 H258 0.930 . S
C287 C282 1.261 . S
C287 C286 1.312 . S
C288 O260 1.214 . S
C288 O268 1.234 . S
C289 H261 0.929 . S
C289 C292 1.391 . S
C289 C294 1.391 . S
C290 H262 0.929 . S
C290 C291 1.390 . S
C290 N293 1.391 . S
C291 H263 0.930 . S
C291 C290 1.390 . S
C291 C292 1.392 . S
C292 H264 0.929 . S
C292 C289 1.391 . S
C292 C291 1.392 . S
N293 Co237 2.257 . S
N293 C290 1.391 . S
N293 C294 1.388 . S
C294 H265 0.930 . S
C294 C289 1.391 . S
C294 N293 1.388 . S
Co295 O297 2.143 . S
Co295 O303 2.074 . S
Co295 O306 2.093 . S
Co295 O319 2.097 . S
Co295 N336 2.151 . S
Co295 N344 2.214 . S
Co296 O297 2.160 . S
Co296 O302 2.058 . S
Co296 O312 2.057 . S
Co296 O327 2.037 . S
Co296 N331 2.145 . S
Co296 N352 2.257 . S
O297 Co295 2.143 . S
O297 Co296 2.160 . S
C298 O299 1.278 . S
C298 O306 1.224 . S
O299 C298 1.278 . S
C300 O301 1.245 . S
C300 O312 1.232 . S
O301 C300 1.245 . S
O302 Co296 2.058 . S
O302 C328 1.269 . S
O303 Co295 2.074 . S
O303 C328 1.257 . S
H304 C329 0.930 . S
H305 C335 0.930 . S
O306 Co295 2.093 . S
O306 C298 1.224 . S
H307 C339 0.929 . S
H308 C341 0.930 . S
H309 C342 0.930 . S
H310 C340 0.929 . S
H311 C343 0.928 . S
O312 Co296 2.057 . S
O312 C300 1.232 . S
H313 C332 0.929 . S
H314 C333 0.929 . S
H315 C345 0.931 . S
H316 C337 0.929 . S
H317 C346 0.930 . S
H318 C338 0.931 . S
O319 Co295 2.097 . S
O319 C347 1.214 . S
H320 C348 0.929 . S
H321 C349 0.929 . S
H322 C350 0.930 . S
H323 C351 0.929 . S
H324 C353 0.930 . S
H325 C330 0.930 . S
H326 C334 0.930 . S
O327 Co296 2.037 . S
O327 C347 1.234 . S
C328 O302 1.269 . S
C328 O303 1.257 . S
C329 H304 0.930 . S
C329 C332 1.388 . S
C329 C334 1.418 . S
C330 H325 0.930 . S
C330 C333 1.404 . S
C330 C334 1.353 . S
N331 Co296 2.145 . S
N331 C332 1.397 . S
N331 C333 1.334 . S
C332 H313 0.929 . S
C332 C329 1.388 . S
C332 N331 1.397 . S
C333 H314 0.929 . S
C333 C330 1.404 . S
C333 N331 1.334 . S
C334 H326 0.930 . S
C334 C329 1.418 . S
C334 C330 1.353 . S
C335 H305 0.930 . S
C335 N336 1.330 . S
C335 C337 1.446 . S
N336 Co295 2.151 . S
N336 C335 1.330 . S
N336 C340 1.418 . S
C337 H316 0.929 . S
C337 C335 1.446 . S
C337 C338 1.332 . S
C338 H318 0.931 . S
C338 C337 1.332 . S
C338 C339 1.267 . S
C339 H307 0.929 . S
C339 C338 1.267 . S
C339 C340 1.251 . S
C340 H310 0.929 . S
C340 N336 1.418 . S
C340 C339 1.251 . S
C341 H308 0.930 . S
C341 C343 1.406 . S
C341 C346 1.261 . S
C342 H309 0.930 . S
C342 N344 1.325 . S
C342 C345 1.357 . S
C343 H311 0.928 . S
C343 C341 1.406 . S
C343 N344 1.261 . S
N344 Co295 2.214 . S
N344 C342 1.325 . S
N344 C343 1.261 . S
C345 H315 0.931 . S
C345 C342 1.357 . S
C345 C346 1.312 . S
C346 H317 0.930 . S
C346 C341 1.261 . S
C346 C345 1.312 . S
C347 O319 1.214 . S
C347 O327 1.234 . S
C348 H320 0.929 . S
C348 C351 1.391 . S
C348 C353 1.391 . S
C349 H321 0.929 . S
C349 C350 1.390 . S
C349 N352 1.391 . S
C350 H322 0.930 . S
C350 C349 1.390 . S
C350 C351 1.392 . S
C351 H323 0.929 . S
C351 C348 1.391 . S
C351 C350 1.392 . S
N352 Co296 2.257 . S
N352 C349 1.391 . S
N352 C353 1.388 . S
C353 H324 0.930 . S
C353 C348 1.391 . S
C353 N352 1.388 . S
Co354 O356 2.143 . S
Co354 O362 2.074 . S
Co354 O365 2.093 . S
Co354 O378 2.097 . S
Co354 N395 2.151 . S
Co354 N403 2.214 . S
Co355 O356 2.160 . S
Co355 O361 2.058 . S
Co355 O371 2.057 . S
Co355 O386 2.037 . S
Co355 N390 2.145 . S
Co355 N411 2.257 . S
O356 Co354 2.143 . S
O356 Co355 2.160 . S
C357 O358 1.278 . S
C357 O365 1.224 . S
O358 C357 1.278 . S
C359 O360 1.245 . S
C359 O371 1.232 . S
O360 C359 1.245 . S
O361 Co355 2.058 . S
O361 C387 1.269 . S
O362 Co354 2.074 . S
O362 C387 1.257 . S
H363 C388 0.930 . S
H364 C394 0.930 . S
O365 Co354 2.093 . S
O365 C357 1.224 . S
H366 C398 0.929 . S
H367 C400 0.930 . S
H368 C401 0.930 . S
H369 C399 0.929 . S
H370 C402 0.928 . S
O371 Co355 2.057 . S
O371 C359 1.232 . S
H372 C391 0.929 . S
H373 C392 0.929 . S
H374 C404 0.931 . S
H375 C396 0.929 . S
H376 C405 0.930 . S
H377 C397 0.931 . S
O378 Co354 2.097 . S
O378 C406 1.214 . S
H379 C407 0.929 . S
H380 C408 0.929 . S
H381 C409 0.930 . S
H382 C410 0.929 . S
H383 C412 0.930 . S
H384 C389 0.930 . S
H385 C393 0.930 . S
O386 Co355 2.037 . S
O386 C406 1.234 . S
C387 O361 1.269 . S
C387 O362 1.257 . S
C388 H363 0.930 . S
C388 C391 1.388 . S
C388 C393 1.418 . S
C389 H384 0.930 . S
C389 C392 1.404 . S
C389 C393 1.353 . S
N390 Co355 2.145 . S
N390 C391 1.397 . S
N390 C392 1.334 . S
C391 H372 0.929 . S
C391 C388 1.388 . S
C391 N390 1.397 . S
C392 H373 0.929 . S
C392 C389 1.404 . S
C392 N390 1.334 . S
C393 H385 0.930 . S
C393 C388 1.418 . S
C393 C389 1.353 . S
C394 H364 0.930 . S
C394 N395 1.330 . S
C394 C396 1.446 . S
N395 Co354 2.151 . S
N395 C394 1.330 . S
N395 C399 1.418 . S
C396 H375 0.929 . S
C396 C394 1.446 . S
C396 C397 1.332 . S
C397 H377 0.931 . S
C397 C396 1.332 . S
C397 C398 1.267 . S
C398 H366 0.929 . S
C398 C397 1.267 . S
C398 C399 1.251 . S
C399 H369 0.929 . S
C399 N395 1.418 . S
C399 C398 1.251 . S
C400 H367 0.930 . S
C400 C402 1.406 . S
C400 C405 1.261 . S
C401 H368 0.930 . S
C401 N403 1.325 . S
C401 C404 1.357 . S
C402 H370 0.928 . S
C402 C400 1.406 . S
C402 N403 1.261 . S
N403 Co354 2.214 . S
N403 C401 1.325 . S
N403 C402 1.261 . S
C404 H374 0.931 . S
C404 C401 1.357 . S
C404 C405 1.312 . S
C405 H376 0.930 . S
C405 C400 1.261 . S
C405 C404 1.312 . S
C406 O378 1.214 . S
C406 O386 1.234 . S
C407 H379 0.929 . S
C407 C410 1.391 . S
C407 C412 1.391 . S
C408 H380 0.929 . S
C408 C409 1.390 . S
C408 N411 1.391 . S
C409 H381 0.930 . S
C409 C408 1.390 . S
C409 C410 1.392 . S
C410 H382 0.929 . S
C410 C407 1.391 . S
C410 C409 1.392 . S
N411 Co355 2.257 . S
N411 C408 1.391 . S
N411 C412 1.388 . S
C412 H383 0.930 . S
C412 C407 1.391 . S
C412 N411 1.388 . S
Co413 O415 2.143 . S
Co413 O421 2.074 . S
Co413 O424 2.093 . S
Co413 O437 2.097 . S
Co413 N454 2.151 . S
Co413 N462 2.214 . S
Co414 O415 2.160 . S
Co414 O420 2.058 . S
Co414 O430 2.057 . S
Co414 O445 2.037 . S
Co414 N449 2.145 . S
Co414 N470 2.257 . S
O415 Co413 2.143 . S
O415 Co414 2.160 . S
C416 O417 1.278 . S
C416 O424 1.224 . S
O417 C416 1.278 . S
C418 O419 1.245 . S
C418 O430 1.232 . S
O419 C418 1.245 . S
O420 Co414 2.058 . S
O420 C446 1.269 . S
O421 Co413 2.074 . S
O421 C446 1.257 . S
H422 C447 0.930 . S
H423 C453 0.930 . S
O424 Co413 2.093 . S
O424 C416 1.224 . S
H425 C457 0.929 . S
H426 C459 0.930 . S
H427 C460 0.930 . S
H428 C458 0.929 . S
H429 C461 0.928 . S
O430 Co414 2.057 . S
O430 C418 1.232 . S
H431 C450 0.929 . S
H432 C451 0.929 . S
H433 C463 0.931 . S
H434 C455 0.929 . S
H435 C464 0.930 . S
H436 C456 0.931 . S
O437 Co413 2.097 . S
O437 C465 1.214 . S
H438 C466 0.929 . S
H439 C467 0.929 . S
H440 C468 0.930 . S
H441 C469 0.929 . S
H442 C471 0.930 . S
H443 C448 0.930 . S
H444 C452 0.930 . S
O445 Co414 2.037 . S
O445 C465 1.234 . S
C446 O420 1.269 . S
C446 O421 1.257 . S
C447 H422 0.930 . S
C447 C450 1.388 . S
C447 C452 1.418 . S
C448 H443 0.930 . S
C448 C451 1.404 . S
C448 C452 1.353 . S
N449 Co414 2.145 . S
N449 C450 1.397 . S
N449 C451 1.334 . S
C450 H431 0.929 . S
C450 C447 1.388 . S
C450 N449 1.397 . S
C451 H432 0.929 . S
C451 C448 1.404 . S
C451 N449 1.334 . S
C452 H444 0.930 . S
C452 C447 1.418 . S
C452 C448 1.353 . S
C453 H423 0.930 . S
C453 N454 1.330 . S
C453 C455 1.446 . S
N454 Co413 2.151 . S
N454 C453 1.330 . S
N454 C458 1.418 . S
C455 H434 0.929 . S
C455 C453 1.446 . S
C455 C456 1.332 . S
C456 H436 0.931 . S
C456 C455 1.332 . S
C456 C457 1.267 . S
C457 H425 0.929 . S
C457 C456 1.267 . S
C457 C458 1.251 . S
C458 H428 0.929 . S
C458 N454 1.418 . S
C458 C457 1.251 . S
C459 H426 0.930 . S
C459 C461 1.406 . S
C459 C464 1.261 . S
C460 H427 0.930 . S
C460 N462 1.325 . S
C460 C463 1.357 . S
C461 H429 0.928 . S
C461 C459 1.406 . S
C461 N462 1.261 . S
N462 Co413 2.214 . S
N462 C460 1.325 . S
N462 C461 1.261 . S
C463 H433 0.931 . S
C463 C460 1.357 . S
C463 C464 1.312 . S
C464 H435 0.930 . S
C464 C459 1.261 . S
C464 C463 1.312 . S
C465 O437 1.214 . S
C465 O445 1.234 . S
C466 H438 0.929 . S
C466 C469 1.391 . S
C466 C471 1.391 . S
C467 H439 0.929 . S
C467 C468 1.390 . S
C467 N470 1.391 . S
C468 H440 0.930 . S
C468 C467 1.390 . S
C468 C469 1.392 . S
C469 H441 0.929 . S
C469 C466 1.391 . S
C469 C468 1.392 . S
N470 Co414 2.257 . S
N470 C467 1.391 . S
N470 C471 1.388 . S
C471 H442 0.930 . S
C471 C466 1.391 . S
C471 N470 1.388 . S
Co472 O474 2.143 . S
Co472 O480 2.074 . S
Co472 O483 2.093 . S
Co472 O496 2.097 . S
Co472 N513 2.151 . S
Co472 N521 2.214 . S
Co473 O474 2.160 . S
Co473 O479 2.058 . S
Co473 O489 2.057 . S
Co473 O504 2.037 . S
Co473 N508 2.145 . S
Co473 N529 2.257 . S
O474 Co472 2.143 . S
O474 Co473 2.160 . S
C475 O476 1.278 . S
C475 O483 1.224 . S
O476 C475 1.278 . S
C477 O478 1.245 . S
C477 O489 1.232 . S
O478 C477 1.245 . S
O479 Co473 2.058 . S
O479 C505 1.269 . S
O480 Co472 2.074 . S
O480 C505 1.257 . S
H481 C506 0.930 . S
H482 C512 0.930 . S
O483 Co472 2.093 . S
O483 C475 1.224 . S
H484 C516 0.929 . S
H485 C518 0.930 . S
H486 C519 0.930 . S
H487 C517 0.929 . S
H488 C520 0.928 . S
O489 Co473 2.057 . S
O489 C477 1.232 . S
H490 C509 0.929 . S
H491 C510 0.929 . S
H492 C522 0.931 . S
H493 C514 0.929 . S
H494 C523 0.930 . S
H495 C515 0.931 . S
O496 Co472 2.097 . S
O496 C524 1.214 . S
H497 C525 0.929 . S
H498 C526 0.929 . S
H499 C527 0.930 . S
H500 C528 0.929 . S
H501 C530 0.930 . S
H502 C507 0.930 . S
H503 C511 0.930 . S
O504 Co473 2.037 . S
O504 C524 1.234 . S
C505 O479 1.269 . S
C505 O480 1.257 . S
C506 H481 0.930 . S
C506 C509 1.388 . S
C506 C511 1.418 . S
C507 H502 0.930 . S
C507 C510 1.404 . S
C507 C511 1.353 . S
N508 Co473 2.145 . S
N508 C509 1.397 . S
N508 C510 1.334 . S
C509 H490 0.929 . S
C509 C506 1.388 . S
C509 N508 1.397 . S
C510 H491 0.929 . S
C510 C507 1.404 . S
C510 N508 1.334 . S
C511 H503 0.930 . S
C511 C506 1.418 . S
C511 C507 1.353 . S
C512 H482 0.930 . S
C512 N513 1.330 . S
C512 C514 1.446 . S
N513 Co472 2.151 . S
N513 C512 1.330 . S
N513 C517 1.418 . S
C514 H493 0.929 . S
C514 C512 1.446 . S
C514 C515 1.332 . S
C515 H495 0.931 . S
C515 C514 1.332 . S
C515 C516 1.267 . S
C516 H484 0.929 . S
C516 C515 1.267 . S
C516 C517 1.251 . S
C517 H487 0.929 . S
C517 N513 1.418 . S
C517 C516 1.251 . S
C518 H485 0.930 . S
C518 C520 1.406 . S
C518 C523 1.261 . S
C519 H486 0.930 . S
C519 N521 1.325 . S
C519 C522 1.357 . S
C520 H488 0.928 . S
C520 C518 1.406 . S
C520 N521 1.261 . S
N521 Co472 2.214 . S
N521 C519 1.325 . S
N521 C520 1.261 . S
C522 H492 0.931 . S
C522 C519 1.357 . S
C522 C523 1.312 . S
C523 H494 0.930 . S
C523 C518 1.261 . S
C523 C522 1.312 . S
C524 O496 1.214 . S
C524 O504 1.234 . S
C525 H497 0.929 . S
C525 C528 1.391 . S
C525 C530 1.391 . S
C526 H498 0.929 . S
C526 C527 1.390 . S
C526 N529 1.391 . S
C527 H499 0.930 . S
C527 C526 1.390 . S
C527 C528 1.392 . S
C528 H500 0.929 . S
C528 C525 1.391 . S
C528 C527 1.392 . S
N529 Co473 2.257 . S
N529 C526 1.391 . S
N529 C530 1.388 . S
C530 H501 0.930 . S
C530 C525 1.391 . S
C530 N529 1.388 . S
Co531 O533 2.143 . S
Co531 O539 2.074 . S
Co531 O542 2.093 . S
Co531 O555 2.097 . S
Co531 N572 2.151 . S
Co531 N580 2.214 . S
Co532 O533 2.160 . S
Co532 O538 2.058 . S
Co532 O548 2.057 . S
Co532 O563 2.037 . S
Co532 N567 2.145 . S
Co532 N588 2.257 . S
O533 Co531 2.143 . S
O533 Co532 2.160 . S
C534 O535 1.278 . S
C534 O542 1.224 . S
O535 C534 1.278 . S
C536 O537 1.245 . S
C536 O548 1.232 . S
O537 C536 1.245 . S
O538 Co532 2.058 . S
O538 C564 1.269 . S
O539 Co531 2.074 . S
O539 C564 1.257 . S
H540 C565 0.930 . S
H541 C571 0.930 . S
O542 Co531 2.093 . S
O542 C534 1.224 . S
H543 C575 0.929 . S
H544 C577 0.930 . S
H545 C578 0.930 . S
H546 C576 0.929 . S
H547 C579 0.928 . S
O548 Co532 2.057 . S
O548 C536 1.232 . S
H549 C568 0.929 . S
H550 C569 0.929 . S
H551 C581 0.931 . S
H552 C573 0.929 . S
H553 C582 0.930 . S
H554 C574 0.931 . S
O555 Co531 2.097 . S
O555 C583 1.214 . S
H556 C584 0.929 . S
H557 C585 0.929 . S
H558 C586 0.930 . S
H559 C587 0.929 . S
H560 C589 0.930 . S
H561 C566 0.930 . S
H562 C570 0.930 . S
O563 Co532 2.037 . S
O563 C583 1.234 . S
C564 O538 1.269 . S
C564 O539 1.257 . S
C565 H540 0.930 . S
C565 C568 1.388 . S
C565 C570 1.418 . S
C566 H561 0.930 . S
C566 C569 1.404 . S
C566 C570 1.353 . S
N567 Co532 2.145 . S
N567 C568 1.397 . S
N567 C569 1.334 . S
C568 H549 0.929 . S
C568 C565 1.388 . S
C568 N567 1.397 . S
C569 H550 0.929 . S
C569 C566 1.404 . S
C569 N567 1.334 . S
C570 H562 0.930 . S
C570 C565 1.418 . S
C570 C566 1.353 . S
C571 H541 0.930 . S
C571 N572 1.330 . S
C571 C573 1.446 . S
N572 Co531 2.151 . S
N572 C571 1.330 . S
N572 C576 1.418 . S
C573 H552 0.929 . S
C573 C571 1.446 . S
C573 C574 1.332 . S
C574 H554 0.931 . S
C574 C573 1.332 . S
C574 C575 1.267 . S
C575 H543 0.929 . S
C575 C574 1.267 . S
C575 C576 1.251 . S
C576 H546 0.929 . S
C576 N572 1.418 . S
C576 C575 1.251 . S
C577 H544 0.930 . S
C577 C579 1.406 . S
C577 C582 1.261 . S
C578 H545 0.930 . S
C578 N580 1.325 . S
C578 C581 1.357 . S
C579 H547 0.928 . S
C579 C577 1.406 . S
C579 N580 1.261 . S
N580 Co531 2.214 . S
N580 C578 1.325 . S
N580 C579 1.261 . S
C581 H551 0.931 . S
C581 C578 1.357 . S
C581 C582 1.312 . S
C582 H553 0.930 . S
C582 C577 1.261 . S
C582 C581 1.312 . S
C583 O555 1.214 . S
C583 O563 1.234 . S
C584 H556 0.929 . S
C584 C587 1.391 . S
C584 C589 1.391 . S
C585 H557 0.929 . S
C585 C586 1.390 . S
C585 N588 1.391 . S
C586 H558 0.930 . S
C586 C585 1.390 . S
C586 C587 1.392 . S
C587 H559 0.929 . S
C587 C584 1.391 . S
C587 C586 1.392 . S
N588 Co532 2.257 . S
N588 C585 1.391 . S
N588 C589 1.388 . S
C589 H560 0.930 . S
C589 C584 1.391 . S
C589 N588 1.388 . S
Co590 O592 2.143 . S
Co590 O598 2.074 . S
Co590 O601 2.093 . S
Co590 O614 2.097 . S
Co590 N631 2.151 . S
Co590 N639 2.214 . S
Co591 O592 2.160 . S
Co591 O597 2.058 . S
Co591 O607 2.057 . S
Co591 O622 2.037 . S
Co591 N626 2.145 . S
Co591 N647 2.257 . S
O592 Co590 2.143 . S
O592 Co591 2.160 . S
C593 O594 1.278 . S
C593 O601 1.224 . S
O594 C593 1.278 . S
C595 O596 1.245 . S
C595 O607 1.232 . S
O596 C595 1.245 . S
O597 Co591 2.058 . S
O597 C623 1.269 . S
O598 Co590 2.074 . S
O598 C623 1.257 . S
H599 C624 0.930 . S
H600 C630 0.930 . S
O601 Co590 2.093 . S
O601 C593 1.224 . S
H602 C634 0.929 . S
H603 C636 0.930 . S
H604 C637 0.930 . S
H605 C635 0.929 . S
H606 C638 0.928 . S
O607 Co591 2.057 . S
O607 C595 1.232 . S
H608 C627 0.929 . S
H609 C628 0.929 . S
H610 C640 0.931 . S
H611 C632 0.929 . S
H612 C641 0.930 . S
H613 C633 0.931 . S
O614 Co590 2.097 . S
O614 C642 1.214 . S
H615 C643 0.929 . S
H616 C644 0.929 . S
H617 C645 0.930 . S
H618 C646 0.929 . S
H619 C648 0.930 . S
H620 C625 0.930 . S
H621 C629 0.930 . S
O622 Co591 2.037 . S
O622 C642 1.234 . S
C623 O597 1.269 . S
C623 O598 1.257 . S
C624 H599 0.930 . S
C624 C627 1.388 . S
C624 C629 1.418 . S
C625 H620 0.930 . S
C625 C628 1.404 . S
C625 C629 1.353 . S
N626 Co591 2.145 . S
N626 C627 1.397 . S
N626 C628 1.334 . S
C627 H608 0.929 . S
C627 C624 1.388 . S
C627 N626 1.397 . S
C628 H609 0.929 . S
C628 C625 1.404 . S
C628 N626 1.334 . S
C629 H621 0.930 . S
C629 C624 1.418 . S
C629 C625 1.353 . S
C630 H600 0.930 . S
C630 N631 1.330 . S
C630 C632 1.446 . S
N631 Co590 2.151 . S
N631 C630 1.330 . S
N631 C635 1.418 . S
C632 H611 0.929 . S
C632 C630 1.446 . S
C632 C633 1.332 . S
C633 H613 0.931 . S
C633 C632 1.332 . S
C633 C634 1.267 . S
C634 H602 0.929 . S
C634 C633 1.267 . S
C634 C635 1.251 . S
C635 H605 0.929 . S
C635 N631 1.418 . S
C635 C634 1.251 . S
C636 H603 0.930 . S
C636 C638 1.406 . S
C636 C641 1.261 . S
C637 H604 0.930 . S
C637 N639 1.325 . S
C637 C640 1.357 . S
C638 H606 0.928 . S
C638 C636 1.406 . S
C638 N639 1.261 . S
N639 Co590 2.214 . S
N639 C637 1.325 . S
N639 C638 1.261 . S
C640 H610 0.931 . S
C640 C637 1.357 . S
C640 C641 1.312 . S
C641 H612 0.930 . S
C641 C636 1.261 . S
C641 C640 1.312 . S
C642 O614 1.214 . S
C642 O622 1.234 . S
C643 H615 0.929 . S
C643 C646 1.391 . S
C643 C648 1.391 . S
C644 H616 0.929 . S
C644 C645 1.390 . S
C644 N647 1.391 . S
C645 H617 0.930 . S
C645 C644 1.390 . S
C645 C646 1.392 . S
C646 H618 0.929 . S
C646 C643 1.391 . S
C646 C645 1.392 . S
N647 Co591 2.257 . S
N647 C644 1.391 . S
N647 C648 1.388 . S
C648 H619 0.930 . S
C648 C643 1.391 . S
C648 N647 1.388 . S
Co649 O651 2.143 . S
Co649 O657 2.074 . S
Co649 O660 2.093 . S
Co649 O673 2.097 . S
Co649 N690 2.151 . S
Co649 N698 2.214 . S
Co650 O651 2.160 . S
Co650 O656 2.058 . S
Co650 O666 2.057 . S
Co650 O681 2.037 . S
Co650 N685 2.145 . S
Co650 N706 2.257 . S
O651 Co649 2.143 . S
O651 Co650 2.160 . S
C652 O653 1.278 . S
C652 O660 1.224 . S
O653 C652 1.278 . S
C654 O655 1.245 . S
C654 O666 1.232 . S
O655 C654 1.245 . S
O656 Co650 2.058 . S
O656 C682 1.269 . S
O657 Co649 2.074 . S
O657 C682 1.257 . S
H658 C683 0.930 . S
H659 C689 0.930 . S
O660 Co649 2.093 . S
O660 C652 1.224 . S
H661 C693 0.929 . S
H662 C695 0.930 . S
H663 C696 0.930 . S
H664 C694 0.929 . S
H665 C697 0.928 . S
O666 Co650 2.057 . S
O666 C654 1.232 . S
H667 C686 0.929 . S
H668 C687 0.929 . S
H669 C699 0.931 . S
H670 C691 0.929 . S
H671 C700 0.930 . S
H672 C692 0.931 . S
O673 Co649 2.097 . S
O673 C701 1.214 . S
H674 C702 0.929 . S
H675 C703 0.929 . S
H676 C704 0.930 . S
H677 C705 0.929 . S
H678 C707 0.930 . S
H679 C684 0.930 . S
H680 C688 0.930 . S
O681 Co650 2.037 . S
O681 C701 1.234 . S
C682 O656 1.269 . S
C682 O657 1.257 . S
C683 H658 0.930 . S
C683 C686 1.388 . S
C683 C688 1.418 . S
C684 H679 0.930 . S
C684 C687 1.404 . S
C684 C688 1.353 . S
N685 Co650 2.145 . S
N685 C686 1.397 . S
N685 C687 1.334 . S
C686 H667 0.929 . S
C686 C683 1.388 . S
C686 N685 1.397 . S
C687 H668 0.929 . S
C687 C684 1.404 . S
C687 N685 1.334 . S
C688 H680 0.930 . S
C688 C683 1.418 . S
C688 C684 1.353 . S
C689 H659 0.930 . S
C689 N690 1.330 . S
C689 C691 1.446 . S
N690 Co649 2.151 . S
N690 C689 1.330 . S
N690 C694 1.418 . S
C691 H670 0.929 . S
C691 C689 1.446 . S
C691 C692 1.332 . S
C692 H672 0.931 . S
C692 C691 1.332 . S
C692 C693 1.267 . S
C693 H661 0.929 . S
C693 C692 1.267 . S
C693 C694 1.251 . S
C694 H664 0.929 . S
C694 N690 1.418 . S
C694 C693 1.251 . S
C695 H662 0.930 . S
C695 C697 1.406 . S
C695 C700 1.261 . S
C696 H663 0.930 . S
C696 N698 1.325 . S
C696 C699 1.357 . S
C697 H665 0.928 . S
C697 C695 1.406 . S
C697 N698 1.261 . S
N698 Co649 2.214 . S
N698 C696 1.325 . S
N698 C697 1.261 . S
C699 H669 0.931 . S
C699 C696 1.357 . S
C699 C700 1.312 . S
C700 H671 0.930 . S
C700 C695 1.261 . S
C700 C699 1.312 . S
C701 O673 1.214 . S
C701 O681 1.234 . S
C702 H674 0.929 . S
C702 C705 1.391 . S
C702 C707 1.391 . S
C703 H675 0.929 . S
C703 C704 1.390 . S
C703 N706 1.391 . S
C704 H676 0.930 . S
C704 C703 1.390 . S
C704 C705 1.392 . S
C705 H677 0.929 . S
C705 C702 1.391 . S
C705 C704 1.392 . S
N706 Co650 2.257 . S
N706 C703 1.391 . S
N706 C707 1.388 . S
C707 H678 0.930 . S
C707 C702 1.391 . S
C707 N706 1.388 . S
Co708 O710 2.143 . S
Co708 O716 2.074 . S
Co708 O719 2.093 . S
Co708 O732 2.097 . S
Co708 N749 2.151 . S
Co708 N757 2.214 . S
Co709 O710 2.160 . S
Co709 O715 2.058 . S
Co709 O725 2.057 . S
Co709 O740 2.037 . S
Co709 N744 2.145 . S
Co709 N765 2.257 . S
O710 Co708 2.143 . S
O710 Co709 2.160 . S
C711 O712 1.278 . S
C711 O719 1.224 . S
O712 C711 1.278 . S
C713 O714 1.245 . S
C713 O725 1.232 . S
O714 C713 1.245 . S
O715 Co709 2.058 . S
O715 C741 1.269 . S
O716 Co708 2.074 . S
O716 C741 1.257 . S
H717 C742 0.930 . S
H718 C748 0.930 . S
O719 Co708 2.093 . S
O719 C711 1.224 . S
H720 C752 0.929 . S
H721 C754 0.930 . S
H722 C755 0.930 . S
H723 C753 0.929 . S
H724 C756 0.928 . S
O725 Co709 2.057 . S
O725 C713 1.232 . S
H726 C745 0.929 . S
H727 C746 0.929 . S
H728 C758 0.931 . S
H729 C750 0.929 . S
H730 C759 0.930 . S
H731 C751 0.931 . S
O732 Co708 2.097 . S
O732 C760 1.214 . S
H733 C761 0.929 . S
H734 C762 0.929 . S
H735 C763 0.930 . S
H736 C764 0.929 . S
H737 C766 0.930 . S
H738 C743 0.930 . S
H739 C747 0.930 . S
O740 Co709 2.037 . S
O740 C760 1.234 . S
C741 O715 1.269 . S
C741 O716 1.257 . S
C742 H717 0.930 . S
C742 C745 1.388 . S
C742 C747 1.418 . S
C743 H738 0.930 . S
C743 C746 1.404 . S
C743 C747 1.353 . S
N744 Co709 2.145 . S
N744 C745 1.397 . S
N744 C746 1.334 . S
C745 H726 0.929 . S
C745 C742 1.388 . S
C745 N744 1.397 . S
C746 H727 0.929 . S
C746 C743 1.404 . S
C746 N744 1.334 . S
C747 H739 0.930 . S
C747 C742 1.418 . S
C747 C743 1.353 . S
C748 H718 0.930 . S
C748 N749 1.330 . S
C748 C750 1.446 . S
N749 Co708 2.151 . S
N749 C748 1.330 . S
N749 C753 1.418 . S
C750 H729 0.929 . S
C750 C748 1.446 . S
C750 C751 1.332 . S
C751 H731 0.931 . S
C751 C750 1.332 . S
C751 C752 1.267 . S
C752 H720 0.929 . S
C752 C751 1.267 . S
C752 C753 1.251 . S
C753 H723 0.929 . S
C753 N749 1.418 . S
C753 C752 1.251 . S
C754 H721 0.930 . S
C754 C756 1.406 . S
C754 C759 1.261 . S
C755 H722 0.930 . S
C755 N757 1.325 . S
C755 C758 1.357 . S
C756 H724 0.928 . S
C756 C754 1.406 . S
C756 N757 1.261 . S
N757 Co708 2.214 . S
N757 C755 1.325 . S
N757 C756 1.261 . S
C758 H728 0.931 . S
C758 C755 1.357 . S
C758 C759 1.312 . S
C759 H730 0.930 . S
C759 C754 1.261 . S
C759 C758 1.312 . S
C760 O732 1.214 . S
C760 O740 1.234 . S
C761 H733 0.929 . S
C761 C764 1.391 . S
C761 C766 1.391 . S
C762 H734 0.929 . S
C762 C763 1.390 . S
C762 N765 1.391 . S
C763 H735 0.930 . S
C763 C762 1.390 . S
C763 C764 1.392 . S
C764 H736 0.929 . S
C764 C761 1.391 . S
C764 C763 1.392 . S
N765 Co709 2.257 . S
N765 C762 1.391 . S
N765 C766 1.388 . S
C766 H737 0.930 . S
C766 C761 1.391 . S
C766 N765 1.388 . S
Co767 O769 2.143 . S
Co767 O775 2.074 . S
Co767 O778 2.093 . S
Co767 O791 2.097 . S
Co767 N808 2.151 . S
Co767 N816 2.214 . S
Co768 O769 2.160 . S
Co768 O774 2.058 . S
Co768 O784 2.057 . S
Co768 O799 2.037 . S
Co768 N803 2.145 . S
Co768 N824 2.257 . S
O769 Co767 2.143 . S
O769 Co768 2.160 . S
C770 O771 1.278 . S
C770 O778 1.224 . S
O771 C770 1.278 . S
C772 O773 1.245 . S
C772 O784 1.232 . S
O773 C772 1.245 . S
O774 Co768 2.058 . S
O774 C800 1.269 . S
O775 Co767 2.074 . S
O775 C800 1.257 . S
H776 C801 0.930 . S
H777 C807 0.930 . S
O778 Co767 2.093 . S
O778 C770 1.224 . S
H779 C811 0.929 . S
H780 C813 0.930 . S
H781 C814 0.930 . S
H782 C812 0.929 . S
H783 C815 0.928 . S
O784 Co768 2.057 . S
O784 C772 1.232 . S
H785 C804 0.929 . S
H786 C805 0.929 . S
H787 C817 0.931 . S
H788 C809 0.929 . S
H789 C818 0.930 . S
H790 C810 0.931 . S
O791 Co767 2.097 . S
O791 C819 1.214 . S
H792 C820 0.929 . S
H793 C821 0.929 . S
H794 C822 0.930 . S
H795 C823 0.929 . S
H796 C825 0.930 . S
H797 C802 0.930 . S
H798 C806 0.930 . S
O799 Co768 2.037 . S
O799 C819 1.234 . S
C800 O774 1.269 . S
C800 O775 1.257 . S
C801 H776 0.930 . S
C801 C804 1.388 . S
C801 C806 1.418 . S
C802 H797 0.930 . S
C802 C805 1.404 . S
C802 C806 1.353 . S
N803 Co768 2.145 . S
N803 C804 1.397 . S
N803 C805 1.334 . S
C804 H785 0.929 . S
C804 C801 1.388 . S
C804 N803 1.397 . S
C805 H786 0.929 . S
C805 C802 1.404 . S
C805 N803 1.334 . S
C806 H798 0.930 . S
C806 C801 1.418 . S
C806 C802 1.353 . S
C807 H777 0.930 . S
C807 N808 1.330 . S
C807 C809 1.446 . S
N808 Co767 2.151 . S
N808 C807 1.330 . S
N808 C812 1.418 . S
C809 H788 0.929 . S
C809 C807 1.446 . S
C809 C810 1.332 . S
C810 H790 0.931 . S
C810 C809 1.332 . S
C810 C811 1.267 . S
C811 H779 0.929 . S
C811 C810 1.267 . S
C811 C812 1.251 . S
C812 H782 0.929 . S
C812 N808 1.418 . S
C812 C811 1.251 . S
C813 H780 0.930 . S
C813 C815 1.406 . S
C813 C818 1.261 . S
C814 H781 0.930 . S
C814 N816 1.325 . S
C814 C817 1.357 . S
C815 H783 0.928 . S
C815 C813 1.406 . S
C815 N816 1.261 . S
N816 Co767 2.214 . S
N816 C814 1.325 . S
N816 C815 1.261 . S
C817 H787 0.931 . S
C817 C814 1.357 . S
C817 C818 1.312 . S
C818 H789 0.930 . S
C818 C813 1.261 . S
C818 C817 1.312 . S
C819 O791 1.214 . S
C819 O799 1.234 . S
C820 H792 0.929 . S
C820 C823 1.391 . S
C820 C825 1.391 . S
C821 H793 0.929 . S
C821 C822 1.390 . S
C821 N824 1.391 . S
C822 H794 0.930 . S
C822 C821 1.390 . S
C822 C823 1.392 . S
C823 H795 0.929 . S
C823 C820 1.391 . S
C823 C822 1.392 . S
N824 Co768 2.257 . S
N824 C821 1.391 . S
N824 C825 1.388 . S
C825 H796 0.930 . S
C825 C820 1.391 . S
C825 N824 1.388 . S
Co826 O828 2.143 . S
Co826 O834 2.074 . S
Co826 O837 2.093 . S
Co826 O850 2.097 . S
Co826 N867 2.151 . S
Co826 N875 2.214 . S
Co827 O828 2.160 . S
Co827 O833 2.058 . S
Co827 O843 2.057 . S
Co827 O858 2.037 . S
Co827 N862 2.145 . S
Co827 N883 2.257 . S
O828 Co826 2.143 . S
O828 Co827 2.160 . S
C829 O830 1.278 . S
C829 O837 1.224 . S
O830 C829 1.278 . S
C831 O832 1.245 . S
C831 O843 1.232 . S
O832 C831 1.245 . S
O833 Co827 2.058 . S
O833 C859 1.269 . S
O834 Co826 2.074 . S
O834 C859 1.257 . S
H835 C860 0.930 . S
H836 C866 0.930 . S
O837 Co826 2.093 . S
O837 C829 1.224 . S
H838 C870 0.929 . S
H839 C872 0.930 . S
H840 C873 0.930 . S
H841 C871 0.929 . S
H842 C874 0.928 . S
O843 Co827 2.057 . S
O843 C831 1.232 . S
H844 C863 0.929 . S
H845 C864 0.929 . S
H846 C876 0.931 . S
H847 C868 0.929 . S
H848 C877 0.930 . S
H849 C869 0.931 . S
O850 Co826 2.097 . S
O850 C878 1.214 . S
H851 C879 0.929 . S
H852 C880 0.929 . S
H853 C881 0.930 . S
H854 C882 0.929 . S
H855 C884 0.930 . S
H856 C861 0.930 . S
H857 C865 0.930 . S
O858 Co827 2.037 . S
O858 C878 1.234 . S
C859 O833 1.269 . S
C859 O834 1.257 . S
C860 H835 0.930 . S
C860 C863 1.388 . S
C860 C865 1.418 . S
C861 H856 0.930 . S
C861 C864 1.404 . S
C861 C865 1.353 . S
N862 Co827 2.145 . S
N862 C863 1.397 . S
N862 C864 1.334 . S
C863 H844 0.929 . S
C863 C860 1.388 . S
C863 N862 1.397 . S
C864 H845 0.929 . S
C864 C861 1.404 . S
C864 N862 1.334 . S
C865 H857 0.930 . S
C865 C860 1.418 . S
C865 C861 1.353 . S
C866 H836 0.930 . S
C866 N867 1.330 . S
C866 C868 1.446 . S
N867 Co826 2.151 . S
N867 C866 1.330 . S
N867 C871 1.418 . S
C868 H847 0.929 . S
C868 C866 1.446 . S
C868 C869 1.332 . S
C869 H849 0.931 . S
C869 C868 1.332 . S
C869 C870 1.267 . S
C870 H838 0.929 . S
C870 C869 1.267 . S
C870 C871 1.251 . S
C871 H841 0.929 . S
C871 N867 1.418 . S
C871 C870 1.251 . S
C872 H839 0.930 . S
C872 C874 1.406 . S
C872 C877 1.261 . S
C873 H840 0.930 . S
C873 N875 1.325 . S
C873 C876 1.357 . S
C874 H842 0.928 . S
C874 C872 1.406 . S
C874 N875 1.261 . S
N875 Co826 2.214 . S
N875 C873 1.325 . S
N875 C874 1.261 . S
C876 H846 0.931 . S
C876 C873 1.357 . S
C876 C877 1.312 . S
C877 H848 0.930 . S
C877 C872 1.261 . S
C877 C876 1.312 . S
C878 O850 1.214 . S
C878 O858 1.234 . S
C879 H851 0.929 . S
C879 C882 1.391 . S
C879 C884 1.391 . S
C880 H852 0.929 . S
C880 C881 1.390 . S
C880 N883 1.391 . S
C881 H853 0.930 . S
C881 C880 1.390 . S
C881 C882 1.392 . S
C882 H854 0.929 . S
C882 C879 1.391 . S
C882 C881 1.392 . S
N883 Co827 2.257 . S
N883 C880 1.391 . S
N883 C884 1.388 . S
C884 H855 0.930 . S
C884 C879 1.391 . S
C884 N883 1.388 . S
Co885 O887 2.143 . S
Co885 O893 2.074 . S
Co885 O896 2.093 . S
Co885 O909 2.097 . S
Co885 N926 2.151 . S
Co885 N934 2.214 . S
Co886 O887 2.160 . S
Co886 O892 2.058 . S
Co886 O902 2.057 . S
Co886 O917 2.037 . S
Co886 N921 2.145 . S
Co886 N942 2.257 . S
O887 Co885 2.143 . S
O887 Co886 2.160 . S
C888 O889 1.278 . S
C888 O896 1.224 . S
O889 C888 1.278 . S
C890 O891 1.245 . S
C890 O902 1.232 . S
O891 C890 1.245 . S
O892 Co886 2.058 . S
O892 C918 1.269 . S
O893 Co885 2.074 . S
O893 C918 1.257 . S
H894 C919 0.930 . S
H895 C925 0.930 . S
O896 Co885 2.093 . S
O896 C888 1.224 . S
H897 C929 0.929 . S
H898 C931 0.930 . S
H899 C932 0.930 . S
H900 C930 0.929 . S
H901 C933 0.928 . S
O902 Co886 2.057 . S
O902 C890 1.232 . S
H903 C922 0.929 . S
H904 C923 0.929 . S
H905 C935 0.931 . S
H906 C927 0.929 . S
H907 C936 0.930 . S
H908 C928 0.931 . S
O909 Co885 2.097 . S
O909 C937 1.214 . S
H910 C938 0.929 . S
H911 C939 0.929 . S
H912 C940 0.930 . S
H913 C941 0.929 . S
H914 C943 0.930 . S
H915 C920 0.930 . S
H916 C924 0.930 . S
O917 Co886 2.037 . S
O917 C937 1.234 . S
C918 O892 1.269 . S
C918 O893 1.257 . S
C919 H894 0.930 . S
C919 C922 1.388 . S
C919 C924 1.418 . S
C920 H915 0.930 . S
C920 C923 1.404 . S
C920 C924 1.353 . S
N921 Co886 2.145 . S
N921 C922 1.397 . S
N921 C923 1.334 . S
C922 H903 0.929 . S
C922 C919 1.388 . S
C922 N921 1.397 . S
C923 H904 0.929 . S
C923 C920 1.404 . S
C923 N921 1.334 . S
C924 H916 0.930 . S
C924 C919 1.418 . S
C924 C920 1.353 . S
C925 H895 0.930 . S
C925 N926 1.330 . S
C925 C927 1.446 . S
N926 Co885 2.151 . S
N926 C925 1.330 . S
N926 C930 1.418 . S
C927 H906 0.929 . S
C927 C925 1.446 . S
C927 C928 1.332 . S
C928 H908 0.931 . S
C928 C927 1.332 . S
C928 C929 1.267 . S
C929 H897 0.929 . S
C929 C928 1.267 . S
C929 C930 1.251 . S
C930 H900 0.929 . S
C930 N926 1.418 . S
C930 C929 1.251 . S
C931 H898 0.930 . S
C931 C933 1.406 . S
C931 C936 1.261 . S
C932 H899 0.930 . S
C932 N934 1.325 . S
C932 C935 1.357 . S
C933 H901 0.928 . S
C933 C931 1.406 . S
C933 N934 1.261 . S
N934 Co885 2.214 . S
N934 C932 1.325 . S
N934 C933 1.261 . S
C935 H905 0.931 . S
C935 C932 1.357 . S
C935 C936 1.312 . S
C936 H907 0.930 . S
C936 C931 1.261 . S
C936 C935 1.312 . S
C937 O909 1.214 . S
C937 O917 1.234 . S
C938 H910 0.929 . S
C938 C941 1.391 . S
C938 C943 1.391 . S
C939 H911 0.929 . S
C939 C940 1.390 . S
C939 N942 1.391 . S
C940 H912 0.930 . S
C940 C939 1.390 . S
C940 C941 1.392 . S
C941 H913 0.929 . S
C941 C938 1.391 . S
C941 C940 1.392 . S
N942 Co886 2.257 . S
N942 C939 1.391 . S
N942 C943 1.388 . S
C943 H914 0.930 . S
C943 C938 1.391 . S
C943 N942 1.388 . S
H944 C952 0.950 . S
H945 C957 0.950 . S
H946 C954 0.950 . S
H947 C956 0.950 . S
H948 C958 0.950 . S
H949 C960 0.950 . S
H950 C962 0.950 . S
H951 C963 0.950 . S
C952 H944 0.950 . S
C952 C953 1.386 . S
C952 C954 1.391 . S
C953 C952 1.386 . S
C953 C957 1.393 . S
C954 H946 0.950 . S
C954 C952 1.391 . S
C954 C955 1.400 . S
C955 C954 1.400 . S
C955 C956 1.398 . S
C955 C961 1.491 . S
C956 H947 0.950 . S
C956 C955 1.398 . S
C956 C957 1.391 . S
C957 H945 0.950 . S
C957 C953 1.393 . S
C957 C956 1.391 . S
C958 H948 0.950 . S
C958 C959 1.386 . S
C958 C960 1.391 . S
C959 C958 1.386 . S
C959 C963 1.393 . S
C960 H949 0.950 . S
C960 C958 1.391 . S
C960 C961 1.400 . S
C961 C955 1.491 . S
C961 C960 1.400 . S
C961 C962 1.398 . S
C962 H950 0.950 . S
C962 C961 1.398 . S
C962 C963 1.391 . S
C963 H951 0.950 . S
C963 C959 1.393 . S
C963 C962 1.391 . S
H964 C972 0.950 . S
H965 C977 0.950 . S
H966 C974 0.950 . S
H967 C976 0.950 . S
H968 C978 0.950 . S
H969 C980 0.950 . S
H970 C982 0.950 . S
H971 C983 0.950 . S
C972 H964 0.950 . S
C972 C973 1.386 . S
C972 C974 1.391 . S
C973 C972 1.386 . S
C973 C977 1.393 . S
C974 H966 0.950 . S
C974 C972 1.391 . S
C974 C975 1.400 . S
C975 C974 1.400 . S
C975 C976 1.398 . S
C975 C981 1.491 . S
C976 H967 0.950 . S
C976 C975 1.398 . S
C976 C977 1.391 . S
C977 H965 0.950 . S
C977 C973 1.393 . S
C977 C976 1.391 . S
C978 H968 0.950 . S
C978 C979 1.386 . S
C978 C980 1.391 . S
C979 C978 1.386 . S
C979 C983 1.393 . S
C980 H969 0.950 . S
C980 C978 1.391 . S
C980 C981 1.400 . S
C981 C975 1.491 . S
C981 C980 1.400 . S
C981 C982 1.398 . S
C982 H970 0.950 . S
C982 C981 1.398 . S
C982 C983 1.391 . S
C983 H971 0.950 . S
C983 C979 1.393 . S
C983 C982 1.391 . S
H984 C992 0.950 . S
H985 C997 0.950 . S
H986 C994 0.950 . S
H987 C996 0.950 . S
H988 C998 0.950 . S
H989 C1000 0.950 . S
H990 C1002 0.950 . S
H991 C1003 0.950 . S
C992 H984 0.950 . S
C992 C993 1.386 . S
C992 C994 1.391 . S
C993 C992 1.386 . S
C993 C997 1.393 . S
C994 H986 0.950 . S
C994 C992 1.391 . S
C994 C995 1.400 . S
C995 C994 1.400 . S
C995 C996 1.398 . S
C995 C1001 1.491 . S
C996 H987 0.950 . S
C996 C995 1.398 . S
C996 C997 1.391 . S
C997 H985 0.950 . S
C997 C993 1.393 . S
C997 C996 1.391 . S
C998 H988 0.950 . S
C998 C999 1.386 . S
C998 C1000 1.391 . S
C999 C998 1.386 . S
C999 C1003 1.393 . S
C1000 H989 0.950 . S
C1000 C998 1.391 . S
C1000 C1001 1.400 . S
C1001 C995 1.491 . S
C1001 C1000 1.400 . S
C1001 C1002 1.398 . S
C1002 H990 0.950 . S
C1002 C1001 1.398 . S
C1002 C1003 1.391 . S
C1003 H991 0.950 . S
C1003 C999 1.393 . S
C1003 C1002 1.391 . S
H1004 C1012 0.950 . S
H1005 C1017 0.950 . S
H1006 C1014 0.950 . S
H1007 C1016 0.950 . S
H1008 C1018 0.950 . S
H1009 C1020 0.950 . S
H1010 C1022 0.950 . S
H1011 C1023 0.950 . S
C1012 H1004 0.950 . S
C1012 C1013 1.386 . S
C1012 C1014 1.391 . S
C1013 C1012 1.386 . S
C1013 C1017 1.393 . S
C1014 H1006 0.950 . S
C1014 C1012 1.391 . S
C1014 C1015 1.400 . S
C1015 C1014 1.400 . S
C1015 C1016 1.398 . S
C1015 C1021 1.491 . S
C1016 H1007 0.950 . S
C1016 C1015 1.398 . S
C1016 C1017 1.391 . S
C1017 H1005 0.950 . S
C1017 C1013 1.393 . S
C1017 C1016 1.391 . S
C1018 H1008 0.950 . S
C1018 C1019 1.386 . S
C1018 C1020 1.391 . S
C1019 C1018 1.386 . S
C1019 C1023 1.393 . S
C1020 H1009 0.950 . S
C1020 C1018 1.391 . S
C1020 C1021 1.400 . S
C1021 C1015 1.491 . S
C1021 C1020 1.400 . S
C1021 C1022 1.398 . S
C1022 H1010 0.950 . S
C1022 C1021 1.398 . S
C1022 C1023 1.391 . S
C1023 H1011 0.950 . S
C1023 C1019 1.393 . S
C1023 C1022 1.391 . S
H1024 C1032 0.950 . S
H1025 C1037 0.950 . S
H1026 C1034 0.950 . S
H1027 C1036 0.950 . S
H1028 C1038 0.950 . S
H1029 C1040 0.950 . S
H1030 C1042 0.950 . S
H1031 C1043 0.950 . S
C1032 H1024 0.950 . S
C1032 C1033 1.386 . S
C1032 C1034 1.391 . S
C1033 C1032 1.386 . S
C1033 C1037 1.393 . S
C1034 H1026 0.950 . S
C1034 C1032 1.391 . S
C1034 C1035 1.400 . S
C1035 C1034 1.400 . S
C1035 C1036 1.398 . S
C1035 C1041 1.491 . S
C1036 H1027 0.950 . S
C1036 C1035 1.398 . S
C1036 C1037 1.391 . S
C1037 H1025 0.950 . S
C1037 C1033 1.393 . S
C1037 C1036 1.391 . S
C1038 H1028 0.950 . S
C1038 C1039 1.386 . S
C1038 C1040 1.391 . S
C1039 C1038 1.386 . S
C1039 C1043 1.393 . S
C1040 H1029 0.950 . S
C1040 C1038 1.391 . S
C1040 C1041 1.400 . S
C1041 C1035 1.491 . S
C1041 C1040 1.400 . S
C1041 C1042 1.398 . S
C1042 H1030 0.950 . S
C1042 C1041 1.398 . S
C1042 C1043 1.391 . S
C1043 H1031 0.950 . S
C1043 C1039 1.393 . S
C1043 C1042 1.391 . S
H1044 C1052 0.950 . S
H1045 C1057 0.950 . S
H1046 C1054 0.950 . S
H1047 C1056 0.950 . S
H1048 C1058 0.950 . S
H1049 C1060 0.950 . S
H1050 C1062 0.950 . S
H1051 C1063 0.950 . S
C1052 H1044 0.950 . S
C1052 C1053 1.386 . S
C1052 C1054 1.391 . S
C1053 C1052 1.386 . S
C1053 C1057 1.393 . S
C1054 H1046 0.950 . S
C1054 C1052 1.391 . S
C1054 C1055 1.400 . S
C1055 C1054 1.400 . S
C1055 C1056 1.398 . S
C1055 C1061 1.491 . S
C1056 H1047 0.950 . S
C1056 C1055 1.398 . S
C1056 C1057 1.391 . S
C1057 H1045 0.950 . S
C1057 C1053 1.393 . S
C1057 C1056 1.391 . S
C1058 H1048 0.950 . S
C1058 C1059 1.386 . S
C1058 C1060 1.391 . S
C1059 C1058 1.386 . S
C1059 C1063 1.393 . S
C1060 H1049 0.950 . S
C1060 C1058 1.391 . S
C1060 C1061 1.400 . S
C1061 C1055 1.491 . S
C1061 C1060 1.400 . S
C1061 C1062 1.398 . S
C1062 H1050 0.950 . S
C1062 C1061 1.398 . S
C1062 C1063 1.391 . S
C1063 H1051 0.950 . S
C1063 C1059 1.393 . S
C1063 C1062 1.391 . S
H1064 C1072 0.950 . S
H1065 C1077 0.950 . S
H1066 C1074 0.950 . S
H1067 C1076 0.950 . S
H1068 C1078 0.950 . S
H1069 C1080 0.950 . S
H1070 C1082 0.950 . S
H1071 C1083 0.950 . S
C1072 H1064 0.950 . S
C1072 C1073 1.386 . S
C1072 C1074 1.391 . S
C1073 C1072 1.386 . S
C1073 C1077 1.393 . S
C1074 H1066 0.950 . S
C1074 C1072 1.391 . S
C1074 C1075 1.400 . S
C1075 C1074 1.400 . S
C1075 C1076 1.398 . S
C1075 C1081 1.491 . S
C1076 H1067 0.950 . S
C1076 C1075 1.398 . S
C1076 C1077 1.391 . S
C1077 H1065 0.950 . S
C1077 C1073 1.393 . S
C1077 C1076 1.391 . S
C1078 H1068 0.950 . S
C1078 C1079 1.386 . S
C1078 C1080 1.391 . S
C1079 C1078 1.386 . S
C1079 C1083 1.393 . S
C1080 H1069 0.950 . S
C1080 C1078 1.391 . S
C1080 C1081 1.400 . S
C1081 C1075 1.491 . S
C1081 C1080 1.400 . S
C1081 C1082 1.398 . S
C1082 H1070 0.950 . S
C1082 C1081 1.398 . S
C1082 C1083 1.391 . S
C1083 H1071 0.950 . S
C1083 C1079 1.393 . S
C1083 C1082 1.391 . S
H1084 C1092 0.950 . S
H1085 C1097 0.950 . S
H1086 C1094 0.950 . S
H1087 C1096 0.950 . S
H1088 C1098 0.950 . S
H1089 C1100 0.950 . S
H1090 C1102 0.950 . S
H1091 C1103 0.950 . S
C1092 H1084 0.950 . S
C1092 C1093 1.386 . S
C1092 C1094 1.391 . S
C1093 C1092 1.386 . S
C1093 C1097 1.393 . S
C1094 H1086 0.950 . S
C1094 C1092 1.391 . S
C1094 C1095 1.400 . S
C1095 C1094 1.400 . S
C1095 C1096 1.398 . S
C1095 C1101 1.491 . S
C1096 H1087 0.950 . S
C1096 C1095 1.398 . S
C1096 C1097 1.391 . S
C1097 H1085 0.950 . S
C1097 C1093 1.393 . S
C1097 C1096 1.391 . S
C1098 H1088 0.950 . S
C1098 C1099 1.386 . S
C1098 C1100 1.391 . S
C1099 C1098 1.386 . S
C1099 C1103 1.393 . S
C1100 H1089 0.950 . S
C1100 C1098 1.391 . S
C1100 C1101 1.400 . S
C1101 C1095 1.491 . S
C1101 C1100 1.400 . S
C1101 C1102 1.398 . S
C1102 H1090 0.950 . S
C1102 C1101 1.398 . S
C1102 C1103 1.391 . S
C1103 H1091 0.950 . S
C1103 C1099 1.393 . S
C1103 C1102 1.391 . S
H1104 C1112 0.950 . S
H1105 C1117 0.950 . S
H1106 C1114 0.950 . S
H1107 C1116 0.950 . S
H1108 C1118 0.950 . S
H1109 C1120 0.950 . S
H1110 C1122 0.950 . S
H1111 C1123 0.950 . S
C1112 H1104 0.950 . S
C1112 C1113 1.386 . S
C1112 C1114 1.391 . S
C1113 C1112 1.386 . S
C1113 C1117 1.393 . S
C1114 H1106 0.950 . S
C1114 C1112 1.391 . S
C1114 C1115 1.400 . S
C1115 C1114 1.400 . S
C1115 C1116 1.398 . S
C1115 C1121 1.491 1_556 S
C1116 H1107 0.950 . S
C1116 C1115 1.398 . S
C1116 C1117 1.391 . S
C1117 H1105 0.950 . S
C1117 C1113 1.393 . S
C1117 C1116 1.391 . S
C1118 H1108 0.950 . S
C1118 C1119 1.386 . S
C1118 C1120 1.391 . S
C1119 C1118 1.386 . S
C1119 C1123 1.393 . S
C1120 H1109 0.950 . S
C1120 C1118 1.391 . S
C1120 C1121 1.400 . S
C1121 C1115 1.491 1_554 S
C1121 C1120 1.400 . S
C1121 C1122 1.398 . S
C1122 H1110 0.950 . S
C1122 C1121 1.398 . S
C1122 C1123 1.391 . S
C1123 H1111 0.950 . S
C1123 C1119 1.393 . S
C1123 C1122 1.391 . S
H1124 C1132 0.950 . S
H1125 C1137 0.950 . S
H1126 C1134 0.950 . S
H1127 C1136 0.950 . S
H1128 C1138 0.950 . S
H1129 C1140 0.950 . S
H1130 C1142 0.950 . S
H1131 C1143 0.950 . S
C1132 H1124 0.950 . S
C1132 C1133 1.386 . S
C1132 C1134 1.391 . S
C1133 C1132 1.386 . S
C1133 C1137 1.393 . S
C1134 H1126 0.950 . S
C1134 C1132 1.391 . S
C1134 C1135 1.400 . S
C1135 C1134 1.400 . S
C1135 C1136 1.398 . S
C1135 C1141 1.491 1_556 S
C1136 H1127 0.950 . S
C1136 C1135 1.398 . S
C1136 C1137 1.391 . S
C1137 H1125 0.950 . S
C1137 C1133 1.393 . S
C1137 C1136 1.391 . S
C1138 H1128 0.950 . S
C1138 C1139 1.386 . S
C1138 C1140 1.391 . S
C1139 C1138 1.386 . S
C1139 C1143 1.393 . S
C1140 H1129 0.950 . S
C1140 C1138 1.391 . S
C1140 C1141 1.400 . S
C1141 C1135 1.491 1_554 S
C1141 C1140 1.400 . S
C1141 C1142 1.398 . S
C1142 H1130 0.950 . S
C1142 C1141 1.398 . S
C1142 C1143 1.391 . S
C1143 H1131 0.950 . S
C1143 C1139 1.393 . S
C1143 C1142 1.391 . S
H1144 C1152 0.950 . S
H1145 C1157 0.950 . S
H1146 C1154 0.950 . S
H1147 C1156 0.950 . S
H1148 C1158 0.950 . S
H1149 C1160 0.950 . S
H1150 C1162 0.950 . S
H1151 C1163 0.950 . S
C1152 H1144 0.950 . S
C1152 C1153 1.386 . S
C1152 C1154 1.391 . S
C1153 C1152 1.386 . S
C1153 C1157 1.393 . S
C1154 H1146 0.950 . S
C1154 C1152 1.391 . S
C1154 C1155 1.400 . S
C1155 C1154 1.400 . S
C1155 C1156 1.398 . S
C1155 C1161 1.491 1_556 S
C1156 H1147 0.950 . S
C1156 C1155 1.398 . S
C1156 C1157 1.391 . S
C1157 H1145 0.950 . S
C1157 C1153 1.393 . S
C1157 C1156 1.391 . S
C1158 H1148 0.950 . S
C1158 C1159 1.386 . S
C1158 C1160 1.391 . S
C1159 C1158 1.386 . S
C1159 C1163 1.393 . S
C1160 H1149 0.950 . S
C1160 C1158 1.391 . S
C1160 C1161 1.400 . S
C1161 C1155 1.491 1_554 S
C1161 C1160 1.400 . S
C1161 C1162 1.398 . S
C1162 H1150 0.950 . S
C1162 C1161 1.398 . S
C1162 C1163 1.391 . S
C1163 H1151 0.950 . S
C1163 C1159 1.393 . S
C1163 C1162 1.391 . S
H1164 C1172 0.950 . S
H1165 C1177 0.950 . S
H1166 C1174 0.950 . S
H1167 C1176 0.950 . S
H1168 C1178 0.950 . S
H1169 C1180 0.950 . S
H1170 C1182 0.950 . S
H1171 C1183 0.950 . S
C1172 H1164 0.950 . S
C1172 C1173 1.386 . S
C1172 C1174 1.391 . S
C1173 C1172 1.386 . S
C1173 C1177 1.393 . S
C1174 H1166 0.950 . S
C1174 C1172 1.391 . S
C1174 C1175 1.400 . S
C1175 C1174 1.400 . S
C1175 C1176 1.398 . S
C1175 C1181 1.491 1_554 S
C1176 H1167 0.950 . S
C1176 C1175 1.398 . S
C1176 C1177 1.391 . S
C1177 H1165 0.950 . S
C1177 C1173 1.393 . S
C1177 C1176 1.391 . S
C1178 H1168 0.950 . S
C1178 C1179 1.386 . S
C1178 C1180 1.391 . S
C1179 C1178 1.386 . S
C1179 C1183 1.393 . S
C1180 H1169 0.950 . S
C1180 C1178 1.391 . S
C1180 C1181 1.400 . S
C1181 C1175 1.491 1_556 S
C1181 C1180 1.400 . S
C1181 C1182 1.398 . S
C1182 H1170 0.950 . S
C1182 C1181 1.398 . S
C1182 C1183 1.391 . S
C1183 H1171 0.950 . S
C1183 C1179 1.393 . S
C1183 C1182 1.391 . S
H1184 C1192 0.950 . S
H1185 C1197 0.950 . S
H1186 C1194 0.950 . S
H1187 C1196 0.950 . S
H1188 C1198 0.950 . S
H1189 C1200 0.950 . S
H1190 C1202 0.950 . S
H1191 C1203 0.950 . S
C1192 H1184 0.950 . S
C1192 C1193 1.386 . S
C1192 C1194 1.391 . S
C1193 C1192 1.386 . S
C1193 C1197 1.393 . S
C1194 H1186 0.950 . S
C1194 C1192 1.391 . S
C1194 C1195 1.400 . S
C1195 C1194 1.400 . S
C1195 C1196 1.398 . S
C1195 C1201 1.491 . S
C1196 H1187 0.950 . S
C1196 C1195 1.398 . S
C1196 C1197 1.391 . S
C1197 H1185 0.950 . S
C1197 C1193 1.393 . S
C1197 C1196 1.391 . S
C1198 H1188 0.950 . S
C1198 C1199 1.386 . S
C1198 C1200 1.391 . S
C1199 C1198 1.386 . S
C1199 C1203 1.393 . S
C1200 H1189 0.950 . S
C1200 C1198 1.391 . S
C1200 C1201 1.400 . S
C1201 C1195 1.491 . S
C1201 C1200 1.400 . S
C1201 C1202 1.398 . S
C1202 H1190 0.950 . S
C1202 C1201 1.398 . S
C1202 C1203 1.391 . S
C1203 H1191 0.950 . S
C1203 C1199 1.393 . S
C1203 C1202 1.391 . S
H1204 C1212 0.950 . S
H1205 C1217 0.950 . S
H1206 C1214 0.950 . S
H1207 C1216 0.950 . S
H1208 C1218 0.950 . S
H1209 C1220 0.950 . S
H1210 C1222 0.950 . S
H1211 C1223 0.950 . S
C1212 H1204 0.950 . S
C1212 C1213 1.386 . S
C1212 C1214 1.391 . S
C1213 C1212 1.386 . S
C1213 C1217 1.393 . S
C1214 H1206 0.950 . S
C1214 C1212 1.391 . S
C1214 C1215 1.400 . S
C1215 C1214 1.400 . S
C1215 C1216 1.398 . S
C1215 C1221 1.491 . S
C1216 H1207 0.950 . S
C1216 C1215 1.398 . S
C1216 C1217 1.391 . S
C1217 H1205 0.950 . S
C1217 C1213 1.393 . S
C1217 C1216 1.391 . S
C1218 H1208 0.950 . S
C1218 C1219 1.386 . S
C1218 C1220 1.391 . S
C1219 C1218 1.386 . S
C1219 C1223 1.393 . S
C1220 H1209 0.950 . S
C1220 C1218 1.391 . S
C1220 C1221 1.400 . S
C1221 C1215 1.491 . S
C1221 C1220 1.400 . S
C1221 C1222 1.398 . S
C1222 H1210 0.950 . S
C1222 C1221 1.398 . S
C1222 C1223 1.391 . S
C1223 H1211 0.950 . S
C1223 C1219 1.393 . S
C1223 C1222 1.391 . S
H1224 C1232 0.950 . S
H1225 C1237 0.950 . S
H1226 C1234 0.950 . S
H1227 C1236 0.950 . S
H1228 C1238 0.950 . S
H1229 C1240 0.950 . S
H1230 C1242 0.950 . S
H1231 C1243 0.950 . S
C1232 H1224 0.950 . S
C1232 C1233 1.386 . S
C1232 C1234 1.391 . S
C1233 C1232 1.386 . S
C1233 C1237 1.393 . S
C1234 H1226 0.950 . S
C1234 C1232 1.391 . S
C1234 C1235 1.400 . S
C1235 C1234 1.400 . S
C1235 C1236 1.398 . S
C1235 C1241 1.491 . S
C1236 H1227 0.950 . S
C1236 C1235 1.398 . S
C1236 C1237 1.391 . S
C1237 H1225 0.950 . S
C1237 C1233 1.393 . S
C1237 C1236 1.391 . S
C1238 H1228 0.950 . S
C1238 C1239 1.386 . S
C1238 C1240 1.391 . S
C1239 C1238 1.386 . S
C1239 C1243 1.393 . S
C1240 H1229 0.950 . S
C1240 C1238 1.391 . S
C1240 C1241 1.400 . S
C1241 C1235 1.491 . S
C1241 C1240 1.400 . S
C1241 C1242 1.398 . S
C1242 H1230 0.950 . S
C1242 C1241 1.398 . S
C1242 C1243 1.391 . S
C1243 H1231 0.950 . S
C1243 C1239 1.393 . S
C1243 C1242 1.391 . S
H1244 C1252 0.950 . S
H1245 C1257 0.950 . S
H1246 C1254 0.950 . S
H1247 C1256 0.950 . S
H1248 C1258 0.950 . S
H1249 C1260 0.950 . S
H1250 C1262 0.950 . S
H1251 C1263 0.950 . S
C1252 H1244 0.950 . S
C1252 C1253 1.386 . S
C1252 C1254 1.391 . S
C1253 C1252 1.386 . S
C1253 C1257 1.393 . S
C1254 H1246 0.950 . S
C1254 C1252 1.391 . S
C1254 C1255 1.400 . S
C1255 C1254 1.400 . S
C1255 C1256 1.398 . S
C1255 C1261 1.491 . S
C1256 H1247 0.950 . S
C1256 C1255 1.398 . S
C1256 C1257 1.391 . S
C1257 H1245 0.950 . S
C1257 C1253 1.393 . S
C1257 C1256 1.391 . S
C1258 H1248 0.950 . S
C1258 C1259 1.386 . S
C1258 C1260 1.391 . S
C1259 C1258 1.386 . S
C1259 C1263 1.393 . S
C1260 H1249 0.950 . S
C1260 C1258 1.391 . S
C1260 C1261 1.400 . S
C1261 C1255 1.491 . S
C1261 C1260 1.400 . S
C1261 C1262 1.398 . S
C1262 H1250 0.950 . S
C1262 C1261 1.398 . S
C1262 C1263 1.391 . S
C1263 H1251 0.950 . S
C1263 C1259 1.393 . S
C1263 C1262 1.391 . S
H1264 C1272 0.950 . S
H1265 C1277 0.950 . S
H1266 C1274 0.950 . S
H1267 C1276 0.950 . S
H1268 C1278 0.950 . S
H1269 C1280 0.950 . S
H1270 C1282 0.950 . S
H1271 C1283 0.950 . S
C1272 H1264 0.950 . S
C1272 C1273 1.386 . S
C1272 C1274 1.391 . S
C1273 C1272 1.386 . S
C1273 C1277 1.393 . S
C1274 H1266 0.950 . S
C1274 C1272 1.391 . S
C1274 C1275 1.400 . S
C1275 C1274 1.400 . S
C1275 C1276 1.398 . S
C1275 C1281 1.491 . S
C1276 H1267 0.950 . S
C1276 C1275 1.398 . S
C1276 C1277 1.391 . S
C1277 H1265 0.950 . S
C1277 C1273 1.393 . S
C1277 C1276 1.391 . S
C1278 H1268 0.950 . S
C1278 C1279 1.386 . S
C1278 C1280 1.391 . S
C1279 C1278 1.386 . S
C1279 C1283 1.393 . S
C1280 H1269 0.950 . S
C1280 C1278 1.391 . S
C1280 C1281 1.400 . S
C1281 C1275 1.491 . S
C1281 C1280 1.400 . S
C1281 C1282 1.398 . S
C1282 H1270 0.950 . S
C1282 C1281 1.398 . S
C1282 C1283 1.391 . S
C1283 H1271 0.950 . S
C1283 C1279 1.393 . S
C1283 C1282 1.391 . S
H1284 C1292 0.950 . S
H1285 C1297 0.950 . S
H1286 C1294 0.950 . S
H1287 C1296 0.950 . S
H1288 C1298 0.950 . S
H1289 C1300 0.950 . S
H1290 C1302 0.950 . S
H1291 C1303 0.950 . S
C1292 H1284 0.950 . S
C1292 C1293 1.386 . S
C1292 C1294 1.391 . S
C1293 C1292 1.386 . S
C1293 C1297 1.393 . S
C1294 H1286 0.950 . S
C1294 C1292 1.391 . S
C1294 C1295 1.400 . S
C1295 C1294 1.400 . S
C1295 C1296 1.398 . S
C1295 C1301 1.491 . S
C1296 H1287 0.950 . S
C1296 C1295 1.398 . S
C1296 C1297 1.391 . S
C1297 H1285 0.950 . S
C1297 C1293 1.393 . S
C1297 C1296 1.391 . S
C1298 H1288 0.950 . S
C1298 C1299 1.386 . S
C1298 C1300 1.391 . S
C1299 C1298 1.386 . S
C1299 C1303 1.393 . S
C1300 H1289 0.950 . S
C1300 C1298 1.391 . S
C1300 C1301 1.400 . S
C1301 C1295 1.491 . S
C1301 C1300 1.400 . S
C1301 C1302 1.398 . S
C1302 H1290 0.950 . S
C1302 C1301 1.398 . S
C1302 C1303 1.391 . S
C1303 H1291 0.950 . S
C1303 C1299 1.393 . S
C1303 C1302 1.391 . S
H1304 C1312 0.950 . S
H1305 C1317 0.950 . S
H1306 C1314 0.950 . S
H1307 C1316 0.950 . S
H1308 C1318 0.950 . S
H1309 C1320 0.950 . S
H1310 C1322 0.950 . S
H1311 C1323 0.950 . S
C1312 H1304 0.950 . S
C1312 C1313 1.386 . S
C1312 C1314 1.391 . S
C1313 C1312 1.386 . S
C1313 C1317 1.393 . S
C1314 H1306 0.950 . S
C1314 C1312 1.391 . S
C1314 C1315 1.400 . S
C1315 C1314 1.400 . S
C1315 C1316 1.398 . S
C1315 C1321 1.491 . S
C1316 H1307 0.950 . S
C1316 C1315 1.398 . S
C1316 C1317 1.391 . S
C1317 H1305 0.950 . S
C1317 C1313 1.393 . S
C1317 C1316 1.391 . S
C1318 H1308 0.950 . S
C1318 C1319 1.386 . S
C1318 C1320 1.391 . S
C1319 C1318 1.386 . S
C1319 C1323 1.393 . S
C1320 H1309 0.950 . S
C1320 C1318 1.391 . S
C1320 C1321 1.400 . S
C1321 C1315 1.491 . S
C1321 C1320 1.400 . S
C1321 C1322 1.398 . S
C1322 H1310 0.950 . S
C1322 C1321 1.398 . S
C1322 C1323 1.391 . S
C1323 H1311 0.950 . S
C1323 C1319 1.393 . S
C1323 C1322 1.391 . S
H1324 C1332 0.950 . S
H1325 C1337 0.950 . S
H1326 C1334 0.950 . S
H1327 C1336 0.950 . S
H1328 C1338 0.950 . S
H1329 C1340 0.950 . S
H1330 C1342 0.950 . S
H1331 C1343 0.950 . S
C1332 H1324 0.950 . S
C1332 C1333 1.386 . S
C1332 C1334 1.391 . S
C1333 C1332 1.386 . S
C1333 C1337 1.393 . S
C1334 H1326 0.950 . S
C1334 C1332 1.391 . S
C1334 C1335 1.400 . S
C1335 C1334 1.400 . S
C1335 C1336 1.398 . S
C1335 C1341 1.491 . S
C1336 H1327 0.950 . S
C1336 C1335 1.398 . S
C1336 C1337 1.391 . S
C1337 H1325 0.950 . S
C1337 C1333 1.393 . S
C1337 C1336 1.391 . S
C1338 H1328 0.950 . S
C1338 C1339 1.386 . S
C1338 C1340 1.391 . S
C1339 C1338 1.386 . S
C1339 C1343 1.393 . S
C1340 H1329 0.950 . S
C1340 C1338 1.391 . S
C1340 C1341 1.400 . S
C1341 C1335 1.491 . S
C1341 C1340 1.400 . S
C1341 C1342 1.398 . S
C1342 H1330 0.950 . S
C1342 C1341 1.398 . S
C1342 C1343 1.391 . S
C1343 H1331 0.950 . S
C1343 C1339 1.393 . S
C1343 C1342 1.391 . S
H1344 C1352 0.950 . S
H1345 C1357 0.950 . S
H1346 C1354 0.950 . S
H1347 C1356 0.950 . S
H1348 C1358 0.950 . S
H1349 C1360 0.950 . S
H1350 C1362 0.950 . S
H1351 C1363 0.950 . S
C1352 H1344 0.950 . S
C1352 C1353 1.386 . S
C1352 C1354 1.391 . S
C1353 C1352 1.386 . S
C1353 C1357 1.393 . S
C1354 H1346 0.950 . S
C1354 C1352 1.391 . S
C1354 C1355 1.400 . S
C1355 C1354 1.400 . S
C1355 C1356 1.398 . S
C1355 C1361 1.491 . S
C1356 H1347 0.950 . S
C1356 C1355 1.398 . S
C1356 C1357 1.391 . S
C1357 H1345 0.950 . S
C1357 C1353 1.393 . S
C1357 C1356 1.391 . S
C1358 H1348 0.950 . S
C1358 C1359 1.386 . S
C1358 C1360 1.391 . S
C1359 C1358 1.386 . S
C1359 C1363 1.393 . S
C1360 H1349 0.950 . S
C1360 C1358 1.391 . S
C1360 C1361 1.400 . S
C1361 C1355 1.491 . S
C1361 C1360 1.400 . S
C1361 C1362 1.398 . S
C1362 H1350 0.950 . S
C1362 C1361 1.398 . S
C1362 C1363 1.391 . S
C1363 H1351 0.950 . S
C1363 C1359 1.393 . S
C1363 C1362 1.391 . S
H1364 C1372 0.950 . S
H1365 C1377 0.950 . S
H1366 C1374 0.950 . S
H1367 C1376 0.950 . S
H1368 C1378 0.950 . S
H1369 C1380 0.950 . S
H1370 C1382 0.950 . S
H1371 C1383 0.950 . S
C1372 H1364 0.950 . S
C1372 C1373 1.386 . S
C1372 C1374 1.391 . S
C1373 C1372 1.386 . S
C1373 C1377 1.393 . S
C1374 H1366 0.950 . S
C1374 C1372 1.391 . S
C1374 C1375 1.400 . S
C1375 C1374 1.400 . S
C1375 C1376 1.398 . S
C1375 C1381 1.491 . S
C1376 H1367 0.950 . S
C1376 C1375 1.398 . S
C1376 C1377 1.391 . S
C1377 H1365 0.950 . S
C1377 C1373 1.393 . S
C1377 C1376 1.391 . S
C1378 H1368 0.950 . S
C1378 C1379 1.386 . S
C1378 C1380 1.391 . S
C1379 C1378 1.386 . S
C1379 C1383 1.393 . S
C1380 H1369 0.950 . S
C1380 C1378 1.391 . S
C1380 C1381 1.400 . S
C1381 C1375 1.491 . S
C1381 C1380 1.400 . S
C1381 C1382 1.398 . S
C1382 H1370 0.950 . S
C1382 C1381 1.398 . S
C1382 C1383 1.391 . S
C1383 H1371 0.950 . S
C1383 C1379 1.393 . S
C1383 C1382 1.391 . S
H1384 C1392 0.950 . S
H1385 C1397 0.950 . S
H1386 C1394 0.950 . S
H1387 C1396 0.950 . S
H1388 C1398 0.950 . S
H1389 C1400 0.950 . S
H1390 C1402 0.950 . S
H1391 C1403 0.950 . S
C1392 H1384 0.950 . S
C1392 C1393 1.386 . S
C1392 C1394 1.391 . S
C1393 C1392 1.386 . S
C1393 C1397 1.393 . S
C1394 H1386 0.950 . S
C1394 C1392 1.391 . S
C1394 C1395 1.400 . S
C1395 C1394 1.400 . S
C1395 C1396 1.398 . S
C1395 C1401 1.491 . S
C1396 H1387 0.950 . S
C1396 C1395 1.398 . S
C1396 C1397 1.391 . S
C1397 H1385 0.950 . S
C1397 C1393 1.393 . S
C1397 C1396 1.391 . S
C1398 H1388 0.950 . S
C1398 C1399 1.386 . S
C1398 C1400 1.391 . S
C1399 C1398 1.386 . S
C1399 C1403 1.393 . S
C1400 H1389 0.950 . S
C1400 C1398 1.391 . S
C1400 C1401 1.400 . S
C1401 C1395 1.491 . S
C1401 C1400 1.400 . S
C1401 C1402 1.398 . S
C1402 H1390 0.950 . S
C1402 C1401 1.398 . S
C1402 C1403 1.391 . S
C1403 H1391 0.950 . S
C1403 C1399 1.393 . S
C1403 C1402 1.391 . S
H1404 C1412 0.950 . S
H1405 C1417 0.950 . S
H1406 C1414 0.950 . S
H1407 C1416 0.950 . S
H1408 C1418 0.950 . S
H1409 C1420 0.950 . S
H1410 C1422 0.950 . S
H1411 C1423 0.950 . S
C1412 H1404 0.950 . S
C1412 C1413 1.386 . S
C1412 C1414 1.391 . S
C1413 C1412 1.386 . S
C1413 C1417 1.393 . S
C1414 H1406 0.950 . S
C1414 C1412 1.391 . S
C1414 C1415 1.400 . S
C1415 C1414 1.400 . S
C1415 C1416 1.398 . S
C1415 C1421 1.491 . S
C1416 H1407 0.950 . S
C1416 C1415 1.398 . S
C1416 C1417 1.391 . S
C1417 H1405 0.950 . S
C1417 C1413 1.393 . S
C1417 C1416 1.391 . S
C1418 H1408 0.950 . S
C1418 C1419 1.386 . S
C1418 C1420 1.391 . S
C1419 C1418 1.386 . S
C1419 C1423 1.393 . S
C1420 H1409 0.950 . S
C1420 C1418 1.391 . S
C1420 C1421 1.400 . S
C1421 C1415 1.491 . S
C1421 C1420 1.400 . S
C1421 C1422 1.398 . S
C1422 H1410 0.950 . S
C1422 C1421 1.398 . S
C1422 C1423 1.391 . S
C1423 H1411 0.950 . S
C1423 C1419 1.393 . S
C1423 C1422 1.391 . S
H1424 C1432 0.950 . S
H1425 C1437 0.950 . S
H1426 C1434 0.950 . S
H1427 C1436 0.950 . S
H1428 C1438 0.950 . S
H1429 C1440 0.950 . S
H1430 C1442 0.950 . S
H1431 C1443 0.950 . S
C1432 H1424 0.950 . S
C1432 C1433 1.386 . S
C1432 C1434 1.391 . S
C1433 C1432 1.386 . S
C1433 C1437 1.393 . S
C1434 H1426 0.950 . S
C1434 C1432 1.391 . S
C1434 C1435 1.400 . S
C1435 C1434 1.400 . S
C1435 C1436 1.398 . S
C1435 C1441 1.491 1_545 S
C1436 H1427 0.950 . S
C1436 C1435 1.398 . S
C1436 C1437 1.391 . S
C1437 H1425 0.950 . S
C1437 C1433 1.393 . S
C1437 C1436 1.391 . S
C1438 H1428 0.950 . S
C1438 C1439 1.386 . S
C1438 C1440 1.391 . S
C1439 C1438 1.386 . S
C1439 C1443 1.393 . S
C1440 H1429 0.950 . S
C1440 C1438 1.391 . S
C1440 C1441 1.400 . S
C1441 C1435 1.491 1_565 S
C1441 C1440 1.400 . S
C1441 C1442 1.398 . S
C1442 H1430 0.950 . S
C1442 C1441 1.398 . S
C1442 C1443 1.391 . S
C1443 H1431 0.950 . S
C1443 C1439 1.393 . S
C1443 C1442 1.391 . S
H1444 C1452 0.950 . S
H1445 C1457 0.950 . S
H1446 C1454 0.950 . S
H1447 C1456 0.950 . S
H1448 C1458 0.950 . S
H1449 C1460 0.950 . S
H1450 C1462 0.950 . S
H1451 C1463 0.950 . S
C1452 H1444 0.950 . S
C1452 C1453 1.386 . S
C1452 C1454 1.391 . S
C1453 C1452 1.386 . S
C1453 C1457 1.393 . S
C1454 H1446 0.950 . S
C1454 C1452 1.391 . S
C1454 C1455 1.400 . S
C1455 C1454 1.400 . S
C1455 C1456 1.398 . S
C1455 C1461 1.491 1_655 S
C1456 H1447 0.950 . S
C1456 C1455 1.398 . S
C1456 C1457 1.391 . S
C1457 H1445 0.950 . S
C1457 C1453 1.393 . S
C1457 C1456 1.391 . S
C1458 H1448 0.950 . S
C1458 C1459 1.386 . S
C1458 C1460 1.391 . S
C1459 C1458 1.386 . S
C1459 C1463 1.393 . S
C1460 H1449 0.950 . S
C1460 C1458 1.391 . S
C1460 C1461 1.400 . S
C1461 C1455 1.491 1_455 S
C1461 C1460 1.400 . S
C1461 C1462 1.398 . S
C1462 H1450 0.950 . S
C1462 C1461 1.398 . S
C1462 C1463 1.391 . S
C1463 H1451 0.950 . S
C1463 C1459 1.393 . S
C1463 C1462 1.391 . S
H1464 C1472 0.950 . S
H1465 C1477 0.950 . S
H1466 C1474 0.950 . S
H1467 C1476 0.950 . S
H1468 C1478 0.950 . S
H1469 C1480 0.950 . S
H1470 C1482 0.950 . S
H1471 C1483 0.950 . S
C1472 H1464 0.950 . S
C1472 C1473 1.386 . S
C1472 C1474 1.391 . S
C1473 C1472 1.386 . S
C1473 C1477 1.393 . S
C1474 H1466 0.950 . S
C1474 C1472 1.391 . S
C1474 C1475 1.400 . S
C1475 C1474 1.400 . S
C1475 C1476 1.398 . S
C1475 C1481 1.491 1_545 S
C1476 H1467 0.950 . S
C1476 C1475 1.398 . S
C1476 C1477 1.391 . S
C1477 H1465 0.950 . S
C1477 C1473 1.393 . S
C1477 C1476 1.391 . S
C1478 H1468 0.950 . S
C1478 C1479 1.386 . S
C1478 C1480 1.391 . S
C1479 C1478 1.386 . S
C1479 C1483 1.393 . S
C1480 H1469 0.950 . S
C1480 C1478 1.391 . S
C1480 C1481 1.400 . S
C1481 C1475 1.491 1_565 S
C1481 C1480 1.400 . S
C1481 C1482 1.398 . S
C1482 H1470 0.950 . S
C1482 C1481 1.398 . S
C1482 C1483 1.391 . S
C1483 H1471 0.950 . S
C1483 C1479 1.393 . S
C1483 C1482 1.391 . S
H1484 C1492 0.950 . S
H1485 C1497 0.950 . S
H1486 C1494 0.950 . S
H1487 C1496 0.950 . S
H1488 C1498 0.950 . S
H1489 C1500 0.950 . S
H1490 C1502 0.950 . S
H1491 C1503 0.950 . S
C1492 H1484 0.950 . S
C1492 C1493 1.386 . S
C1492 C1494 1.391 . S
C1493 C1492 1.386 . S
C1493 C1497 1.393 . S
C1494 H1486 0.950 . S
C1494 C1492 1.391 . S
C1494 C1495 1.400 . S
C1495 C1494 1.400 . S
C1495 C1496 1.398 . S
C1495 C1501 1.491 1_455 S
C1496 H1487 0.950 . S
C1496 C1495 1.398 . S
C1496 C1497 1.391 . S
C1497 H1485 0.950 . S
C1497 C1493 1.393 . S
C1497 C1496 1.391 . S
C1498 H1488 0.950 . S
C1498 C1499 1.386 . S
C1498 C1500 1.391 . S
C1499 C1498 1.386 . S
C1499 C1503 1.393 . S
C1500 H1489 0.950 . S
C1500 C1498 1.391 . S
C1500 C1501 1.400 . S
C1501 C1495 1.491 1_655 S
C1501 C1500 1.400 . S
C1501 C1502 1.398 . S
C1502 H1490 0.950 . S
C1502 C1501 1.398 . S
C1502 C1503 1.391 . S
C1503 H1491 0.950 . S
C1503 C1499 1.393 . S
C1503 C1502 1.391 . S
H1504 C1512 0.950 . S
H1505 C1517 0.950 . S
H1506 C1514 0.950 . S
H1507 C1516 0.968 . S
H1508 C1518 0.950 . S
H1509 C1520 0.950 . S
H1510 C1522 0.968 . S
H1511 C1523 0.950 . S
C1512 H1504 0.950 . S
C1512 C1513 1.386 . S
C1512 C1514 1.391 . S
C1513 C1512 1.386 . S
C1513 C1517 1.393 . S
C1514 H1506 0.950 . S
C1514 C1512 1.391 . S
C1514 C1515 1.400 . S
C1515 C1514 1.400 . S
C1515 C1516 1.398 . S
C1515 C1521 1.491 1_545 S
C1516 H1507 0.968 . S
C1516 C1515 1.398 . S
C1516 C1517 1.391 . S
C1517 H1505 0.950 . S
C1517 C1513 1.393 . S
C1517 C1516 1.391 . S
C1518 H1508 0.950 . S
C1518 C1519 1.386 . S
C1518 C1520 1.391 . S
C1519 C1518 1.386 . S
C1519 C1523 1.393 . S
C1520 H1509 0.950 . S
C1520 C1518 1.391 . S
C1520 C1521 1.400 . S
C1521 C1515 1.491 1_565 S
C1521 C1520 1.400 . S
C1521 C1522 1.398 . S
C1522 H1510 0.968 . S
C1522 C1521 1.398 . S
C1522 C1523 1.391 . S
C1523 H1511 0.950 . S
C1523 C1519 1.393 . S
C1523 C1522 1.391 . S
H1524 C1532 0.950 . S
H1525 C1537 0.950 . S
H1526 C1534 0.950 . S
H1527 C1536 0.950 . S
H1528 C1538 0.950 . S
H1529 C1540 0.950 . S
H1530 C1542 0.950 . S
H1531 C1543 0.950 . S
C1532 H1524 0.950 . S
C1532 C1533 1.386 . S
C1532 C1534 1.391 . S
C1533 C1532 1.386 . S
C1533 C1537 1.393 . S
C1534 H1526 0.950 . S
C1534 C1532 1.391 . S
C1534 C1535 1.400 . S
C1535 C1534 1.400 . S
C1535 C1536 1.398 . S
C1535 C1541 1.491 1_655 S
C1536 H1527 0.950 . S
C1536 C1535 1.398 . S
C1536 C1537 1.391 . S
C1537 H1525 0.950 . S
C1537 C1533 1.393 . S
C1537 C1536 1.391 . S
C1538 H1528 0.950 . S
C1538 C1539 1.386 . S
C1538 C1540 1.391 . S
C1539 C1538 1.386 . S
C1539 C1543 1.393 . S
C1540 H1529 0.950 . S
C1540 C1538 1.391 . S
C1540 C1541 1.400 . S
C1541 C1535 1.491 1_455 S
C1541 C1540 1.400 . S
C1541 C1542 1.398 . S
C1542 H1530 0.950 . S
C1542 C1541 1.398 . S
C1542 C1543 1.391 . S
C1543 H1531 0.950 . S
C1543 C1539 1.393 . S
C1543 C1542 1.391 . S
H1544 C1552 0.950 . S
H1545 C1557 0.950 . S
H1546 C1554 0.950 . S
H1547 C1556 0.950 . S
H1548 C1558 0.950 . S
H1549 C1560 0.950 . S
H1550 C1562 0.950 . S
H1551 C1563 0.950 . S
C1552 H1544 0.950 . S
C1552 C1553 1.386 . S
C1552 C1554 1.391 . S
C1553 C1552 1.386 . S
C1553 C1557 1.393 . S
C1554 H1546 0.950 . S
C1554 C1552 1.391 . S
C1554 C1555 1.400 . S
C1555 C1554 1.400 . S
C1555 C1556 1.398 . S
C1555 C1561 1.491 1_565 S
C1556 H1547 0.950 . S
C1556 C1555 1.398 . S
C1556 C1557 1.391 . S
C1557 H1545 0.950 . S
C1557 C1553 1.393 . S
C1557 C1556 1.391 . S
C1558 H1548 0.950 . S
C1558 C1559 1.386 . S
C1558 C1560 1.391 . S
C1559 C1558 1.386 . S
C1559 C1563 1.393 . S
C1560 H1549 0.950 . S
C1560 C1558 1.391 . S
C1560 C1561 1.400 . S
C1561 C1555 1.491 1_545 S
C1561 C1560 1.400 . S
C1561 C1562 1.398 . S
C1562 H1550 0.950 . S
C1562 C1561 1.398 . S
C1562 C1563 1.391 . S
C1563 H1551 0.950 . S
C1563 C1559 1.393 . S
C1563 C1562 1.391 . S
H1564 C1572 0.950 . S
H1565 C1577 0.950 . S
H1566 C1574 0.950 . S
H1567 C1576 0.950 . S
H1568 C1578 0.950 . S
H1569 C1580 0.950 . S
H1570 C1582 0.950 . S
H1571 C1583 0.950 . S
C1572 H1564 0.950 . S
C1572 C1573 1.386 . S
C1572 C1574 1.391 . S
C1573 C1572 1.386 . S
C1573 C1577 1.393 . S
C1574 H1566 0.950 . S
C1574 C1572 1.391 . S
C1574 C1575 1.400 . S
C1575 C1574 1.400 . S
C1575 C1576 1.398 . S
C1575 C1581 1.491 1_455 S
C1576 H1567 0.950 . S
C1576 C1575 1.398 . S
C1576 C1577 1.391 . S
C1577 H1565 0.950 . S
C1577 C1573 1.393 . S
C1577 C1576 1.391 . S
C1578 H1568 0.950 . S
C1578 C1579 1.386 . S
C1578 C1580 1.391 . S
C1579 C1578 1.386 . S
C1579 C1583 1.393 . S
C1580 H1569 0.950 . S
C1580 C1578 1.391 . S
C1580 C1581 1.400 . S
C1581 C1575 1.491 1_655 S
C1581 C1580 1.400 . S
C1581 C1582 1.398 . S
C1582 H1570 0.950 . S
C1582 C1581 1.398 . S
C1582 C1583 1.391 . S
C1583 H1571 0.950 . S
C1583 C1579 1.393 . S
C1583 C1582 1.391 . S
C953 C300 1.652 . S
C959 C5 1.654 . S
C973 C359 1.656 . S
C979 C64 1.661 . S
C993 C123 1.652 . S
C999 C418 1.654 . S
C1013 C182 1.657 . S
C1019 C241 1.653 . S
C1033 C772 1.662 . S
C1039 C477 1.658 . S
C1053 C831 1.654 . S
C1059 C536 1.652 . S
C1073 C595 1.661 . S
C1079 C890 1.656 . S
C1093 C654 1.662 . S
C1099 C713 1.657 . S
C1113 C593 1.560 . S
C1119 C3 1.563 . S
C1133 C652 1.556 . S
C1139 C62 1.562 . S
C1153 C475 1.567 . S
C1159 C121 1.554 . S
C1173 C180 1.562 . S
C1179 C534 1.555 . S
C1193 C829 1.565 . S
C1199 C239 1.554 . S
C1213 C888 1.556 . S
C1219 C298 1.562 . S
C1233 C357 1.558 . S
C1239 C711 1.565 . S
C1253 C770 1.558 . S
C1259 C416 1.559 . S
C1273 C269 0.706 . S
C1279 C33 0.688 . S
C1293 C92 0.686 . S
C1299 C328 0.693 . S
C1313 C151 0.720 . S
C1319 C387 0.711 . S
C1333 C446 0.697 . S
C1339 C210 0.716 . S
C1353 C524 2.285 . S
C1359 C760 2.283 . S
C1373 C819 2.284 . S
C1379 C583 2.284 . S
C1393 C642 2.284 . S
C1399 C878 2.283 . S
C1413 C937 2.283 . S
C1419 C701 2.286 . S
C1433 C682 0.714 . S
C1439 C800 0.695 . S
C1453 C505 0.686 . S
C1459 C859 0.694 . S
C1473 C918 0.685 . S
C1479 C564 0.696 . S
C1493 C623 0.716 . S
C1499 C741 0.696 . S
C1513 C347 2.288 . S
C1519 C229 2.284 . S
C1533 C406 2.288 . S
C1539 C52 2.284 . S
C1553 C465 2.283 . S
C1559 C111 2.285 . S
C1573 C288 2.283 . S
C1579 C170 2.285 . S
