# Generated by pormake.
# Topology vbm, (6)-cn, num edge types: 1
# Building blocks:
#     Node 0, Type 0, BuildingBlock: NUHQIS_clean_sbu_0, # of connection points: 6
#     Node 1, Type 0, BuildingBlock: NUHQIS_clean_sbu_0, # of connection points: 6
#     Node 2, Type 0, BuildingBlock: NUHQIS_clean_sbu_0, # of connection points: 6
#     Node 3, Type 0, BuildingBlock: NUHQIS_clean_sbu_0, # of connection points: 6
#     Node 4, Type 0, BuildingBlock: NUHQIS_clean_sbu_0, # of connection points: 6
#     Node 5, Type 0, BuildingBlock: NUHQIS_clean_sbu_0, # of connection points: 6
#     Node 6, Type 0, BuildingBlock: NUHQIS_clean_sbu_0, # of connection points: 6
#     Node 7, Type 0, BuildingBlock: NUHQIS_clean_sbu_0, # of connection points: 6
#     Node 8, Type 0, BuildingBlock: NUHQIS_clean_sbu_0, # of connection points: 6
#     Node 9, Type 0, BuildingBlock: NUHQIS_clean_sbu_0, # of connection points: 6
#     Node 10, Type 0, BuildingBlock: NUHQIS_clean_sbu_0, # of connection points: 6
#     Node 11, Type 0, BuildingBlock: NUHQIS_clean_sbu_0, # of connection points: 6
#     Node 12, Type 0, BuildingBlock: NUHQIS_clean_sbu_0, # of connection points: 6
#     Node 13, Type 0, BuildingBlock: NUHQIS_clean_sbu_0, # of connection points: 6
#     Node 14, Type 0, BuildingBlock: NUHQIS_clean_sbu_0, # of connection points: 6
#     Node 15, Type 0, BuildingBlock: NUHQIS_clean_sbu_0, # of connection points: 6
#     Edge 16, Type (0, 0), BuildingBlock: UVAHIK_clean_linker_0, # of connection points: 2
#     Edge 17, Type (0, 0), BuildingBlock: UVAHIK_clean_linker_0, # of connection points: 2
#     Edge 18, Type (0, 0), BuildingBlock: UVAHIK_clean_linker_0, # of connection points: 2
#     Edge 19, Type (0, 0), BuildingBlock: UVAHIK_clean_linker_0, # of connection points: 2
#     Edge 20, Type (0, 0), BuildingBlock: UVAHIK_clean_linker_0, # of connection points: 2
#     Edge 21, Type (0, 0), BuildingBlock: UVAHIK_clean_linker_0, # of connection points: 2
#     Edge 22, Type (0, 0), BuildingBlock: UVAHIK_clean_linker_0, # of connection points: 2
#     Edge 23, Type (0, 0), BuildingBlock: UVAHIK_clean_linker_0, # of connection points: 2
#     Edge 24, Type (0, 0), BuildingBlock: UVAHIK_clean_linker_0, # of connection points: 2
#     Edge 25, Type (0, 0), BuildingBlock: UVAHIK_clean_linker_0, # of connection points: 2
#     Edge 26, Type (0, 0), BuildingBlock: UVAHIK_clean_linker_0, # of connection points: 2
#     Edge 27, Type (0, 0), BuildingBlock: UVAHIK_clean_linker_0, # of connection points: 2
#     Edge 28, Type (0, 0), BuildingBlock: UVAHIK_clean_linker_0, # of connection points: 2
#     Edge 29, Type (0, 0), BuildingBlock: UVAHIK_clean_linker_0, # of connection points: 2
#     Edge 30, Type (0, 0), BuildingBlock: UVAHIK_clean_linker_0, # of connection points: 2
#     Edge 31, Type (0, 0), BuildingBlock: UVAHIK_clean_linker_0, # of connection points: 2
#     Edge 32, Type (0, 0), BuildingBlock: UVAHIK_clean_linker_0, # of connection points: 2
#     Edge 33, Type (0, 0), BuildingBlock: UVAHIK_clean_linker_0, # of connection points: 2
#     Edge 34, Type (0, 0), BuildingBlock: UVAHIK_clean_linker_0, # of connection points: 2
#     Edge 35, Type (0, 0), BuildingBlock: UVAHIK_clean_linker_0, # of connection points: 2
#     Edge 36, Type (0, 0), BuildingBlock: UVAHIK_clean_linker_0, # of connection points: 2
#     Edge 37, Type (0, 0), BuildingBlock: UVAHIK_clean_linker_0, # of connection points: 2
#     Edge 38, Type (0, 0), BuildingBlock: UVAHIK_clean_linker_0, # of connection points: 2
#     Edge 39, Type (0, 0), BuildingBlock: UVAHIK_clean_linker_0, # of connection points: 2
#     Edge 40, Type (0, 0), BuildingBlock: UVAHIK_clean_linker_0, # of connection points: 2
#     Edge 41, Type (0, 0), BuildingBlock: UVAHIK_clean_linker_0, # of connection points: 2
#     Edge 42, Type (0, 0), BuildingBlock: UVAHIK_clean_linker_0, # of connection points: 2
#     Edge 43, Type (0, 0), BuildingBlock: UVAHIK_clean_linker_0, # of connection points: 2
#     Edge 44, Type (0, 0), BuildingBlock: UVAHIK_clean_linker_0, # of connection points: 2
#     Edge 45, Type (0, 0), BuildingBlock: UVAHIK_clean_linker_0, # of connection points: 2
#     Edge 46, Type (0, 0), BuildingBlock: UVAHIK_clean_linker_0, # of connection points: 2
#     Edge 47, Type (0, 0), BuildingBlock: UVAHIK_clean_linker_0, # of connection points: 2
#     Edge 48, Type (0, 0), BuildingBlock: UVAHIK_clean_linker_0, # of connection points: 2
#     Edge 49, Type (0, 0), BuildingBlock: UVAHIK_clean_linker_0, # of connection points: 2
#     Edge 50, Type (0, 0), BuildingBlock: UVAHIK_clean_linker_0, # of connection points: 2
#     Edge 51, Type (0, 0), BuildingBlock: UVAHIK_clean_linker_0, # of connection points: 2
#     Edge 52, Type (0, 0), BuildingBlock: UVAHIK_clean_linker_0, # of connection points: 2
#     Edge 53, Type (0, 0), BuildingBlock: UVAHIK_clean_linker_0, # of connection points: 2
#     Edge 54, Type (0, 0), BuildingBlock: UVAHIK_clean_linker_0, # of connection points: 2
#     Edge 55, Type (0, 0), BuildingBlock: UVAHIK_clean_linker_0, # of connection points: 2
#     Edge 56, Type (0, 0), BuildingBlock: UVAHIK_clean_linker_0, # of connection points: 2
#     Edge 57, Type (0, 0), BuildingBlock: UVAHIK_clean_linker_0, # of connection points: 2
#     Edge 58, Type (0, 0), BuildingBlock: UVAHIK_clean_linker_0, # of connection points: 2
#     Edge 59, Type (0, 0), BuildingBlock: UVAHIK_clean_linker_0, # of connection points: 2
#     Edge 60, Type (0, 0), BuildingBlock: UVAHIK_clean_linker_0, # of connection points: 2
#     Edge 61, Type (0, 0), BuildingBlock: UVAHIK_clean_linker_0, # of connection points: 2
#     Edge 62, Type (0, 0), BuildingBlock: UVAHIK_clean_linker_0, # of connection points: 2
#     Edge 63, Type (0, 0), BuildingBlock: UVAHIK_clean_linker_0, # of connection points: 2
# Relax obj value: 0.067
# Max RMSD: 0.139
# Mean RMSD: 0.139
data_MOF--net-vbm--node1-NUHQIS_clean_sbu_0--edge1-UVAHIK_clean_linker_0
_symmetry_space_group_name_H-M    P1
_symmetry_Int_Tables_number       1
_symmetry_cell_setting            triclinic
loop_
_symmetry_equiv_pos_as_xyz
'x, y, z'
_cell_length_a     30.815612
_cell_length_b     76.498743
_cell_length_c     0.23397207
_cell_angle_alpha  90.048606
_cell_angle_beta   89.946797
_cell_angle_gamma 72.867374
loop_
_atom_site_label
_atom_site_type_symbol
_atom_site_fract_x
_atom_site_fract_y
_atom_site_fract_z
_atom_type_partial_charge
Tb0 Tb 0.28029 0.03272 38.9459 0.0
Eu1 Eu 0.21337 0.07515 42.01883 0.0
C2 C 0.23774 0.06098 29.27437 0.0
C3 C 0.32008 0.0664 40.29909 0.0
C4 C 0.02957 0.40276 37.08253 0.0
C5 C 0.05433 0.37187 33.16908 0.0
C6 C 0.04617 0.39074 32.52055 0.0
C7 C 0.02059 0.39555 42.32557 0.0
C8 C 0.02877 0.37656 42.98459 0.0
C9 C 0.0462 0.36442 38.4206 0.0
C10 C 0.02309 0.42256 36.18443 0.0
O11 O 0.28172 0.0346 48.20693 0.0
O12 O 0.21731 0.0585 50.1135 0.0
O13 O 0.16744 0.05787 40.07976 0.0
O14 O 0.21577 0.02877 41.55132 0.0
C15 C 0.25025 0.04404 51.74292 0.0
O16 O 0.19326 0.09896 47.71558 0.0
O17 O 0.15803 0.09938 39.68461 0.0
O18 O 0.2347 0.07486 32.72791 0.0
O19 O 0.24354 0.04447 31.29113 0.0
O20 O 0.32093 0.05157 37.35776 0.0
O21 O 0.28517 0.0748 43.48056 0.0
C22 C 0.17468 0.04021 40.89541 0.0
O23 O 0.29434 0.01006 33.39136 0.0
O24 O 0.33903 0.01062 40.40905 0.0
C25 C 0.15816 0.12835 43.62415 0.0
C26 C 0.14229 0.16677 42.60298 0.0
C27 C 0.13499 0.1589 47.81918 0.0
C28 C 0.14277 0.13998 48.31326 0.0
C29 C 0.16649 0.13601 38.42613 0.0
C30 C 0.15873 0.15501 37.92636 0.0
C31 C 0.16233 0.10859 44.24081 0.0
H32 H 0.06679 0.36311 29.5186 0.0
H33 H 0.05313 0.39598 28.42708 0.0
H34 H 0.00765 0.40454 45.91351 0.0
H35 H 0.02232 0.37136 47.10175 0.0
H36 H 0.1232 0.16737 51.54654 0.0
H37 H 0.13606 0.13443 52.3669 0.0
H38 H 0.17827 0.12739 34.72808 0.0
H39 H 0.16448 0.16053 33.83049 0.0
Tb40 Tb 1.7324 0.40267 39.63841 0.0
Eu41 Eu 1.79997 0.3604 42.33575 0.0
C42 C 1.77764 0.37622 29.70538 0.0
C43 C 1.69278 0.36912 40.483 0.0
C44 C 1.98811 0.03285 37.83166 0.0
C45 C 1.96176 0.06257 33.13393 0.0
C46 C 1.96756 0.04369 33.16989 0.0
C47 C 2.004 0.04126 42.39893 0.0
C48 C 1.99806 0.06017 42.37547 0.0
C49 C 1.97609 0.07119 37.78801 0.0
C50 C 1.98777 0.01346 38.12106 0.0
O51 O 1.72476 0.39543 48.48772 0.0
O52 O 1.79658 0.37755 50.30594 0.0
O53 O 1.8463 0.37758 40.55909 0.0
O54 O 1.79769 0.40681 41.80664 0.0
C55 C 1.75878 0.38945 52.04138 0.0
O56 O 1.82009 0.33639 47.93914 0.0
O57 O 1.85542 0.33634 39.91524 0.0
O58 O 1.78011 0.36199 32.98674 0.0
O59 O 1.77072 0.39263 31.9014 0.0
O60 O 1.69184 0.38417 37.67549 0.0
O61 O 1.7279 0.36019 43.55574 0.0
C62 C 1.83886 0.39531 41.22546 0.0
O63 O 1.69925 0.424 33.96969 0.0
O64 O 1.68876 0.42685 43.05203 0.0
C65 C 1.85565 0.30724 43.70333 0.0
C66 C 1.87224 0.26891 42.36267 0.0
C67 C 1.88277 0.27629 47.51167 0.0
C68 C 1.8746 0.29518 48.16417 0.0
C69 C 1.844 0.30007 38.58891 0.0
C70 C 1.85212 0.2811 37.932 0.0
C71 C 1.85121 0.32696 44.43321 0.0
H72 H 1.9455 0.07045 29.47217 0.0
H73 H 1.95479 0.03761 29.60556 0.0
H74 H 2.01977 0.03335 46.0824 0.0
H75 H 2.00921 0.06623 46.06584 0.0
H76 H 1.89747 0.26744 51.05799 0.0
H77 H 1.88384 0.30037 52.14934 0.0
H78 H 1.82939 0.30907 35.07076 0.0
H79 H 1.84378 0.27595 33.89562 0.0
Tb80 Tb 0.01032 0.40633 122.49856 0.0
Eu81 Eu 0.00908 0.36393 119.01727 0.0
C82 C 0.01326 0.37691 131.91638 0.0
C83 C 0.10075 0.37412 120.68844 0.0
C84 C 0.29786 0.03625 124.43669 0.0
C85 C 0.2694 0.06697 128.40533 0.0
C86 C 0.28757 0.04808 129.15486 0.0
C87 C 0.28883 0.04367 118.91501 0.0
C88 C 0.27056 0.06267 118.15566 0.0
C89 C 0.2611 0.07462 122.89779 0.0
C90 C 0.3197 0.01648 125.48437 0.0
O91 O 0.01357 0.40552 113.21671 0.0
O92 O -0.01355 0.38115 111.08274 0.0
O93 O -0.06299 0.38013 121.06108 0.0
O94 O -0.05978 0.40971 119.92803 0.0
C95 C -0.00335 0.39609 109.59381 0.0
O96 O 0.02731 0.34033 113.22781 0.0
O97 O -0.00984 0.33923 121.01935 0.0
O98 O 0.03077 0.36348 128.30687 0.0
O99 O -0.00693 0.39349 130.07363 0.0
O100 O 0.07895 0.38777 124.02496 0.0
O101 O 0.07887 0.36598 117.31677 0.0
C102 C -0.08293 0.39778 120.4434 0.0
O103 O 0.29506 0.00752 127.97977 0.0
O104 O 0.03791 0.42829 121.48489 0.0
C105 C 0.03623 0.31065 117.18183 0.0
C106 C 0.0777 0.27228 118.10449 0.0
C107 C 0.06779 0.28075 112.72414 0.0
C108 C 0.04727 0.29964 112.27645 0.0
C109 C 0.04707 0.30237 122.57097 0.0
C110 C 0.06765 0.28342 123.02409 0.0
C111 C 0.01028 0.33028 116.53004 0.0
H112 H 0.26175 0.0756 132.16636 0.0
H113 H 0.29411 0.0427 133.45519 0.0
H114 H 0.29642 0.03486 115.19315 0.0
H115 H 0.2649 0.06803 113.84946 0.0
H116 H 0.0757 0.27275 108.83492 0.0
H117 H 0.03918 0.30563 108.07037 0.0
H118 H 0.03882 0.31045 126.44189 0.0
H119 H 0.07438 0.27743 127.24224 0.0
Tb120 Tb 2.00196 0.03232 121.34331 0.0
Eu121 Eu 2.00785 0.07465 118.78048 0.0
C122 C 2.00848 0.05841 131.36938 0.0
C123 C 1.91314 0.06598 120.55772 0.0
C124 C 1.71835 0.40213 123.11456 0.0
C125 C 1.72986 0.37193 127.32952 0.0
C126 C 1.70808 0.39082 127.30555 0.0
C127 C 1.75211 0.39421 119.04779 0.0
C128 C 1.77375 0.37529 119.05059 0.0
C129 C 1.76231 0.36382 123.12612 0.0
C130 C 1.68977 0.42148 122.66277 0.0
O131 O 1.98318 0.04009 112.54944 0.0
O132 O 2.02974 0.05761 110.78943 0.0
O133 O 2.07929 0.05751 120.574 0.0
O134 O 2.07367 0.02825 119.32515 0.0
C135 C 2.00888 0.04592 109.01472 0.0
O136 O 1.99382 0.09865 113.18995 0.0
O137 O 2.0274 0.09877 121.32193 0.0
O138 O 1.99028 0.07273 128.1187 0.0
O139 O 2.02541 0.04203 129.14208 0.0
O140 O 1.93409 0.05074 123.28706 0.0
O141 O 1.93532 0.07507 117.56333 0.0
C142 C 2.09792 0.03978 119.93296 0.0
O143 O 1.99725 0.01104 126.8871 0.0
O144 O 1.99645 0.00797 117.74832 0.0
C145 C 1.98566 0.12778 117.46477 0.0
C146 C 1.94325 0.16596 118.74293 0.0
C147 C 1.97103 0.15899 113.98636 0.0
C148 C 1.99186 0.14018 113.36163 0.0
C149 C 1.9577 0.13453 122.20729 0.0
C150 C 1.93674 0.15343 122.84144 0.0
C151 C 2.01044 0.10811 116.76151 0.0
H152 H 1.71982 0.36357 130.50386 0.0
H153 H 1.6819 0.39652 130.45264 0.0
H154 H 1.76089 0.40252 115.75609 0.0
H155 H 1.79905 0.36961 115.8043 0.0
H156 H 1.97762 0.16811 110.78745 0.0
H157 H 2.01354 0.13532 109.6898 0.0
H158 H 1.95233 0.12523 125.43407 0.0
H159 H 1.91522 0.15821 126.5262 0.0
Tb160 Tb 1.79408 0.36584 282.69346 0.0
Eu161 Eu 1.7246 0.40834 285.0515 0.0
C162 C 1.75206 0.39279 272.73285 0.0
C163 C 1.83316 0.39985 283.57206 0.0
C164 C 1.84825 0.31413 281.40936 0.0
C165 C 1.87882 0.2828 277.99315 0.0
C166 C 1.87305 0.30154 277.37472 0.0
C167 C 1.8288 0.30764 286.08151 0.0
C168 C 1.83463 0.28879 286.71453 0.0
C169 C 1.85986 0.27609 282.67762 0.0
C170 C 1.84499 0.33372 280.67637 0.0
O171 O 1.77463 0.3673 291.72496 0.0
O172 O 1.76249 0.39806 293.16198 0.0
O173 O 1.68281 0.38919 286.90843 0.0
O174 O 1.7257 0.36365 282.02061 0.0
C175 C 1.77129 0.38132 295.15211 0.0
O176 O 1.99492 0.0096 290.61326 0.0
O177 O 1.9891 0.01224 281.41905 0.0
O178 O 1.71703 0.3995 276.07282 0.0
O179 O 1.7899 0.38179 274.82021 0.0
O180 O 1.83899 0.38234 284.52216 0.0
O181 O 1.79283 0.41167 282.77377 0.0
C182 C 1.68849 0.37277 284.72912 0.0
O183 O 1.81427 0.34315 277.148 0.0
O184 O 1.84791 0.34313 285.23372 0.0
C185 C 1.97762 0.03994 286.70334 0.0
C186 C 1.96459 0.07831 286.70432 0.0
C187 C 1.94495 0.07009 290.97195 0.0
C188 C 1.95129 0.05116 290.95537 0.0
C189 C 1.99867 0.04799 282.55003 0.0
C190 C 1.99218 0.06694 282.54926 0.0
C191 C 1.97845 0.02043 286.33095 0.0
H192 H 1.89907 0.27353 274.84584 0.0
H193 H 1.88859 0.30621 273.75506 0.0
H194 H 1.8094 0.31709 289.24967 0.0
H195 H 1.81911 0.28419 290.34354 0.0
H196 H 1.92315 0.07836 294.20748 0.0
H197 H 1.9343 0.04536 294.17179 0.0
H198 H 2.01922 0.03974 279.21023 0.0
H199 H 2.00846 0.07271 279.24948 0.0
Tb200 Tb 0.21495 0.07328 282.32791 0.0
Eu201 Eu 0.28516 0.03096 284.50395 0.0
C202 C 0.25752 0.04693 272.30368 0.0
C203 C 0.17643 0.03926 283.35914 0.0
C204 C 0.15949 0.12491 281.06427 0.0
C205 C 0.13137 0.15599 277.38147 0.0
C206 C 0.13894 0.13715 276.71372 0.0
C207 C 0.17338 0.13187 286.08025 0.0
C208 C 0.16583 0.15082 286.75463 0.0
C209 C 0.14409 0.16317 282.43944 0.0
C210 C 0.16343 0.10525 280.31147 0.0
O211 O 0.23497 0.07197 291.31925 0.0
O212 O 0.24902 0.0411 292.77159 0.0
O213 O 0.3271 0.05005 286.32891 0.0
O214 O 0.283 0.07595 281.72659 0.0
C215 C 0.23957 0.0579 294.75434 0.0
O216 O 0.32411 0.00814 289.89896 0.0
O217 O 0.01894 0.42701 280.6879 0.0
O218 O 0.29288 0.04051 275.59638 0.0
O219 O 0.21905 0.05704 274.5041 0.0
O220 O 0.17066 0.05672 284.37521 0.0
O221 O 0.21667 0.02758 282.38635 0.0
C222 C 0.3207 0.06669 284.30285 0.0
O223 O 0.1944 0.09591 276.7798 0.0
O224 O 0.16046 0.09578 284.84954 0.0
C225 C 0.03179 0.3993 286.02062 0.0
C226 C 0.04441 0.36091 286.33536 0.0
C227 C 0.06011 0.36978 290.8153 0.0
C228 C 0.05399 0.38869 290.64586 0.0
C229 C 0.01478 0.39059 281.62451 0.0
C230 C 0.02101 0.37168 281.78129 0.0
C231 C 0.03126 0.41878 285.55649 0.0
H232 H 0.11543 0.16496 273.91551 0.0
H233 H 0.12802 0.13212 272.80211 0.0
H234 H 0.18933 0.12273 289.50884 0.0
H235 H 0.17591 0.15581 290.71859 0.0
H236 H 0.07756 0.3621 294.44619 0.0
H237 H 0.06773 0.39497 294.077 0.0
H238 H -0.00223 0.39828 277.96678 0.0
H239 H 0.00883 0.36542 278.21459 0.0
Tb240 Tb 2.0127 0.07031 205.35053 0.0
Eu241 Eu 2.00524 0.02782 203.00441 0.0
C242 C 2.0091 0.04349 215.31188 0.0
C243 C 2.10139 0.03626 204.50945 0.0
C244 C 1.99154 0.12201 206.62048 0.0
C245 C 1.97647 0.15335 210.01765 0.0
C246 C 1.998 0.1346 210.64494 0.0
C247 C 1.96266 0.1285 201.94853 0.0
C248 C 1.94105 0.14735 201.30657 0.0
C249 C 1.94775 0.16006 205.33439 0.0
C250 C 2.01677 0.10241 207.36529 0.0
O251 O 1.99575 0.06879 196.31213 0.0
O252 O 2.02849 0.03801 194.89835 0.0
O253 O 1.93554 0.04699 201.1228 0.0
O254 O 1.94104 0.07261 205.96675 0.0
C255 C 2.01296 0.05474 192.89628 0.0
O256 O 1.69377 0.4266 197.46118 0.0
O257 O 1.69263 0.4239 206.66142 0.0
O258 O 1.98396 0.03684 211.95006 0.0
O259 O 2.03123 0.05439 213.23944 0.0
O260 O 2.08173 0.05377 203.5461 0.0
O261 O 2.07825 0.02448 205.30808 0.0
C262 C 1.91723 0.06346 203.27002 0.0
O263 O 1.99964 0.09302 210.888 0.0
O264 O 2.03359 0.09297 202.81517 0.0
C265 C 1.72122 0.39624 201.34743 0.0
C266 C 1.76419 0.35785 201.31051 0.0
C267 C 1.73239 0.36612 197.06689 0.0
C268 C 1.71111 0.38505 197.1016 0.0
C269 C 1.7542 0.38814 205.47283 0.0
C270 C 1.77535 0.36919 205.456 0.0
C271 C 1.69355 0.41574 201.75218 0.0
H272 H 1.9832 0.16262 213.15775 0.0
H273 H 2.02032 0.12993 214.2641 0.0
H274 H 1.95704 0.11904 198.78815 0.0
H275 H 1.91884 0.15195 197.67866 0.0
H276 H 1.72254 0.35788 193.83912 0.0
H277 H 1.68552 0.39089 193.90674 0.0
H278 H 1.76284 0.39636 208.80722 0.0
H279 H 1.80017 0.36338 208.73666 0.0
Tb280 Tb 0.00648 0.36198 205.80229 0.0
Eu281 Eu 0.0161 0.40426 203.80493 0.0
C282 C 0.01132 0.38793 215.89702 0.0
C283 C -0.08105 0.3962 204.72354 0.0
C284 C 0.02502 0.3104 207.05102 0.0
C285 C 0.03685 0.27914 210.34246 0.0
C286 C 0.01674 0.29798 211.00079 0.0
C287 C 0.05468 0.30364 202.45767 0.0
C288 C 0.07497 0.28469 201.79329 0.0
C289 C 0.06586 0.27214 205.69523 0.0
C290 C 0.00066 0.33011 207.77199 0.0
O291 O 0.02536 0.36343 196.83144 0.0
O292 O -0.00426 0.39443 195.44794 0.0
O293 O 0.08595 0.38501 202.02743 0.0
O294 O 0.07855 0.35893 206.42017 0.0
C295 C 0.01081 0.37768 193.42283 0.0
O296 O 0.02443 0.42699 198.57072 0.0
O297 O 0.32529 0.00826 207.76491 0.0
O298 O 0.03804 0.39406 212.63484 0.0
O299 O -0.01307 0.37819 213.64595 0.0
O300 O -0.06155 0.37874 203.67731 0.0
O301 O -0.05769 0.40775 205.77745 0.0
C302 C 0.1032 0.36819 203.93937 0.0
O303 O 0.01792 0.33935 211.3363 0.0
O304 O -0.01524 0.33959 203.20286 0.0
C305 C 0.30078 0.0359 202.34455 0.0
C306 C 0.25779 0.07434 201.96421 0.0
C307 C 0.29112 0.0657 197.91363 0.0
C308 C 0.31237 0.04677 198.11634 0.0
C309 C 0.26643 0.04436 206.28318 0.0
C310 C 0.24525 0.0633 206.09401 0.0
C311 C 0.3282 0.0164 202.9468 0.0
H312 H 0.02968 0.27003 213.50283 0.0
H313 H -0.00585 0.30286 214.58995 0.0
H314 H 0.06165 0.31296 199.35084 0.0
H315 H 0.09691 0.27985 198.14778 0.0
H316 H 0.30121 0.07358 194.60144 0.0
H317 H 0.33884 0.04067 195.04371 0.0
H318 H 0.25679 0.03644 209.62501 0.0
H319 H 0.22016 0.06937 209.3269 0.0
Tb320 Tb 1.31554 0.23946 38.63092 0.0
Eu321 Eu 1.2519 0.28201 41.92754 0.0
C322 C 1.27627 0.26863 29.10347 0.0
C323 C 1.35871 0.27165 40.37937 0.0
C324 C 1.37017 0.18796 36.85222 0.0
C325 C 1.38599 0.15718 32.95216 0.0
C326 C 1.37819 0.17598 32.16797 0.0
C327 C 1.36982 0.18078 42.3762 0.0
C328 C 1.37778 0.16187 43.17154 0.0
C329 C 1.38604 0.1498 38.46123 0.0
C330 C 1.36396 0.20765 35.77322 0.0
O331 O 1.31721 0.2408 47.91396 0.0
O332 O 1.25393 0.26511 49.90166 0.0
O333 O 1.20384 0.26567 39.89298 0.0
O334 O 1.25034 0.23618 41.2015 0.0
C335 C 1.2862 0.25038 51.48332 0.0
O336 O 1.23495 0.30572 47.67218 0.0
O337 O 1.19722 0.3067 39.81021 0.0
O338 O 1.27382 0.28217 32.67522 0.0
O339 O 1.28024 0.25209 30.98562 0.0
O340 O 1.35718 0.25789 37.08061 0.0
O341 O 1.32459 0.27999 43.68251 0.0
C342 C 1.20977 0.24804 40.59846 0.0
O343 O 1.32681 0.21667 33.1747 0.0
O344 O 1.37478 0.21739 39.80307 0.0
C345 C 1.20141 0.3353 43.62768 0.0
C346 C 1.18826 0.37354 42.622 0.0
C347 C 1.18876 0.36533 48.01411 0.0
C348 C 1.19516 0.34649 48.50196 0.0
C349 C 1.20191 0.34333 38.23126 0.0
C350 C 1.19539 0.36223 37.73699 0.0
C351 C 1.20373 0.31573 44.30553 0.0
H352 H 1.39293 0.14837 29.2283 0.0
H353 H 1.37895 0.18116 27.87117 0.0
H354 H 1.36361 0.18972 46.07001 0.0
H355 H 1.37712 0.15672 47.4707 0.0
H356 H 1.18276 0.37354 51.86828 0.0
H357 H 1.19414 0.3407 52.70819 0.0
H358 H 1.20663 0.33509 34.38569 0.0
H359 H 1.19584 0.36799 33.51931 0.0
Tb360 Tb 0.70765 0.19167 38.92386 0.0
Eu361 Eu 0.77283 0.14935 42.36977 0.0
C362 C 0.74994 0.16217 29.49255 0.0
C363 C 0.66621 0.15862 40.49041 0.0
C364 C 0.65245 0.24317 37.04416 0.0
C365 C 0.6381 0.27376 33.0351 0.0
C366 C 0.64712 0.25486 32.3101 0.0
C367 C 0.64931 0.25078 42.56083 0.0
C368 C 0.64024 0.26978 43.29504 0.0
C369 C 0.63395 0.28157 38.533 0.0
C370 C 0.65904 0.2234 36.01002 0.0
O371 O 0.70508 0.19056 48.20259 0.0
O372 O 0.76868 0.16657 50.33383 0.0
O373 O 0.81993 0.16605 40.29341 0.0
O374 O 0.77228 0.19537 41.55755 0.0
C375 C 0.73586 0.18125 51.83405 0.0
O376 O 0.79031 0.1258 48.16332 0.0
O377 O 0.82853 0.12487 40.33566 0.0
O378 O 0.75226 0.14876 33.09819 0.0
O379 O 0.74374 0.17897 31.29923 0.0
O380 O 0.66648 0.173 37.39939 0.0
O381 O 0.7004 0.15046 43.80188 0.0
C382 C 0.81319 0.18374 40.96932 0.0
O383 O 0.69629 0.21434 33.42497 0.0
O384 O 0.64816 0.2137 40.04609 0.0
C385 C 0.82492 0.09618 44.15434 0.0
C386 C 0.83942 0.05779 43.21514 0.0
C387 C 0.8359 0.06634 48.59945 0.0
C388 C 0.82887 0.08524 49.05559 0.0
C389 C 0.82733 0.08781 38.75765 0.0
C390 C 0.83441 0.06885 38.29626 0.0
C391 C 0.82197 0.11584 44.82538 0.0
H392 H 0.63446 0.28225 29.26162 0.0
H393 H 0.64944 0.24936 28.01241 0.0
H394 H 0.65325 0.2421 46.29832 0.0
H395 H 0.63705 0.27526 47.59454 0.0
H396 H 0.83873 0.05842 52.48735 0.0
H397 H 0.82733 0.09128 53.26907 0.0
H398 H 0.82467 0.09581 34.88814 0.0
H399 H 0.83729 0.0628 34.07541 0.0
Tb400 Tb 1.3452 0.19499 122.54848 0.0
Eu401 Eu 1.34315 0.15253 119.21472 0.0
C402 C 1.3477 0.16587 132.0447 0.0
C403 C 1.43528 0.16259 120.81066 0.0
C404 C 1.3248 0.24645 124.38332 0.0
C405 C 1.29674 0.27728 128.29214 0.0
C406 C 1.31647 0.25847 129.06099 0.0
C407 C 1.31271 0.25362 118.88268 0.0
C408 C 1.29299 0.27254 118.10202 0.0
C409 C 1.28477 0.28464 122.80507 0.0
C410 C 1.34734 0.22675 125.43908 0.0
O411 O 1.34929 0.19368 113.27334 0.0
O412 O 1.32145 0.16944 111.21683 0.0
O413 O 1.27113 0.16909 121.1929 0.0
O414 O 1.27524 0.1985 119.92232 0.0
C415 C 1.33241 0.18416 109.6738 0.0
O416 O 1.36056 0.12881 113.47144 0.0
O417 O 1.32414 0.12793 121.33907 0.0
O418 O 1.3651 0.15233 128.47473 0.0
O419 O 1.32756 0.18239 130.15484 0.0
O420 O 1.41371 0.17643 124.09372 0.0
O421 O 1.41328 0.15426 117.51765 0.0
C422 C 1.25165 0.18675 120.49555 0.0
O423 O 1.3234 0.21771 128.04033 0.0
O424 O 1.37226 0.21705 121.38781 0.0
C425 C 1.36975 0.09926 117.51514 0.0
C426 C 1.41216 0.06098 118.5332 0.0
C427 C 1.39972 0.06912 113.15003 0.0
C428 C 1.37876 0.08797 112.65654 0.0
C429 C 1.38288 0.0913 122.90009 0.0
C430 C 1.40382 0.07238 123.40066 0.0
C431 C 1.34375 0.11887 116.84075 0.0
H432 H 1.29173 0.2861 132.00738 0.0
H433 H 1.32575 0.2533 133.33909 0.0
H434 H 1.31865 0.24465 115.19554 0.0
H435 H 1.28384 0.27766 113.82117 0.0
H436 H 1.40488 0.06084 109.31095 0.0
H437 H 1.36859 0.0937 108.46103 0.0
H438 H 1.37641 0.09962 126.73301 0.0
H439 H 1.41342 0.06668 127.60946 0.0
Tb440 Tb 0.66756 0.2428 122.53288 0.0
Eu441 Eu 0.66845 0.28515 118.75924 0.0
C442 C 0.66603 0.27297 131.74546 0.0
C443 C 0.57695 0.27498 120.79299 0.0
C444 C 0.6867 0.1914 124.59652 0.0
C445 C 0.70826 0.16034 128.36452 0.0
C446 C 0.69023 0.17923 129.17064 0.0
C447 C 0.70222 0.18432 119.17411 0.0
C448 C 0.72038 0.16532 118.35641 0.0
C449 C 0.72326 0.15303 122.93952 0.0
C450 C 0.66573 0.21121 125.6705 0.0
O451 O 0.6633 0.24327 113.24696 0.0
O452 O 0.69035 0.26751 110.8979 0.0
O453 O 0.74071 0.26895 120.75333 0.0
O454 O 0.73729 0.23933 119.80875 0.0
C455 C 0.6799 0.25253 109.52478 0.0
O456 O 0.64933 0.30859 112.9147 0.0
O457 O 0.68799 0.30984 120.55293 0.0
O458 O 0.64779 0.28608 128.07842 0.0
O459 O 0.68493 0.25609 130.03028 0.0
O460 O 0.59918 0.26144 124.13157 0.0
O461 O 0.59831 0.28306 117.32461 0.0
C462 C 0.76054 0.25125 120.22233 0.0
O463 O 0.69142 0.22008 127.97501 0.0
O464 O 0.63937 0.22093 121.74895 0.0
C465 C 0.64208 0.33836 116.72364 0.0
C466 C 0.6014 0.37677 117.75603 0.0
C467 C 0.61703 0.36873 112.43485 0.0
C468 C 0.6371 0.34982 111.93472 0.0
C469 C 0.6256 0.3462 122.03316 0.0
C470 C 0.6054 0.36519 122.53941 0.0
C471 C 0.66733 0.31866 116.08196 0.0
H472 H 0.71071 0.15146 132.02626 0.0
H473 H 0.67871 0.18436 133.39766 0.0
H474 H 0.69993 0.19344 115.57182 0.0
H475 H 0.73129 0.16025 114.11089 0.0
H476 H 0.61386 0.37708 108.63282 0.0
H477 H 0.64954 0.34414 107.79441 0.0
H478 H 0.62907 0.33772 125.8103 0.0
H479 H 0.5941 0.37083 126.71498 0.0
Tb480 Tb 0.76701 0.15377 282.59595 0.0
Eu481 Eu 0.69885 0.1961 285.8065 0.0
C482 C 0.7273 0.18332 272.96456 0.0
C483 C 0.80605 0.1877 283.73796 0.0
C484 C 0.8209 0.10205 280.82116 0.0
C485 C 0.84767 0.07117 276.90313 0.0
C486 C 0.84015 0.09006 276.34229 0.0
C487 C 0.80836 0.09478 285.86536 0.0
C488 C 0.81586 0.0758 286.4334 0.0
C489 C 0.83623 0.06368 281.98066 0.0
C490 C 0.817 0.12177 280.16378 0.0
O491 O 0.74823 0.15295 291.60142 0.0
O492 O 0.73594 0.1833 293.7197 0.0
O493 O 0.65802 0.17642 287.50104 0.0
O494 O 0.69783 0.15282 281.66063 0.0
C495 C 0.7449 0.16618 295.33088 0.0
O496 O 0.68218 0.21998 291.47502 0.0
O497 O 0.63981 0.21976 284.13087 0.0
O498 O 0.69393 0.19182 276.37735 0.0
O499 O 0.7629 0.17038 274.85328 0.0
O500 O 0.81174 0.1702 284.69642 0.0
O501 O 0.76571 0.19951 282.98253 0.0
C502 C 0.6622 0.16088 284.80403 0.0
O503 O 0.78485 0.13147 276.86202 0.0
O504 O 0.82193 0.13088 284.70727 0.0
C505 C 0.64115 0.24903 287.67777 0.0
C506 C 0.62467 0.28744 286.45499 0.0
C507 C 0.6135 0.27994 291.54725 0.0
C508 C 0.62162 0.26104 292.14047 0.0
C509 C 0.65309 0.2563 282.6008 0.0
C510 C 0.645 0.27531 282.00009 0.0
C511 C 0.64745 0.22919 288.46393 0.0
H512 H 0.86251 0.06243 273.33332 0.0
H513 H 0.85006 0.09531 272.40713 0.0
H514 H 0.79347 0.10372 289.3959 0.0
H515 H 0.8068 0.0706 290.42012 0.0
H516 H 0.59868 0.28869 295.11725 0.0
H517 H 0.61229 0.25577 296.10647 0.0
H518 H 0.66827 0.24733 279.09048 0.0
H519 H 0.65383 0.28052 278.0016 0.0
Tb520 Tb 1.24011 0.28539 282.21588 0.0
Eu521 Eu 1.31182 0.24312 284.20731 0.0
C522 C 1.28311 0.25949 272.11916 0.0
C523 C 1.20295 0.25103 283.22005 0.0
C524 C 1.18446 0.337 280.99182 0.0
C525 C 1.15298 0.3683 277.59193 0.0
C526 C 1.15874 0.34953 277.01757 0.0
C527 C 1.20477 0.3436 285.56272 0.0
C528 C 1.19894 0.36247 286.15225 0.0
C529 C 1.17286 0.37511 282.17092 0.0
C530 C 1.18796 0.31736 280.29621 0.0
O531 O 1.2612 0.28387 291.17767 0.0
O532 O 1.27669 0.25288 292.54525 0.0
O533 O 1.35318 0.26247 286.01956 0.0
O534 O 1.30782 0.28834 281.51583 0.0
C535 C 1.26734 0.26961 294.5789 0.0
O536 O 1.35252 0.22025 289.45842 0.0
O537 O 1.35209 0.21776 280.24544 0.0
O538 O 1.31875 0.25338 275.38236 0.0
O539 O 1.24442 0.26924 274.36222 0.0
O540 O 1.19657 0.26852 284.26837 0.0
O541 O 1.24336 0.23957 282.17891 0.0
C542 C 1.3459 0.27922 284.04054 0.0
O543 O 1.21809 0.30798 276.67603 0.0
O544 O 1.18618 0.30792 284.88561 0.0
C545 C 1.36682 0.18994 285.55377 0.0
C546 C 1.3797 0.15153 285.70836 0.0
C547 C 1.40036 0.15987 289.83579 0.0
C548 C 1.39411 0.17881 289.74186 0.0
C549 C 1.34481 0.18176 281.54635 0.0
C550 C 1.35121 0.16281 281.62123 0.0
C551 C 1.36591 0.20946 285.06741 0.0
H552 H 1.13207 0.37751 274.49126 0.0
H553 H 1.14253 0.34479 273.47559 0.0
H554 H 1.22491 0.33421 288.68289 0.0
H555 H 1.21519 0.36714 289.69936 0.0
H556 H 1.42285 0.15168 293.01636 0.0
H557 H 1.41188 0.18468 292.84551 0.0
H558 H 1.3235 0.18991 278.25615 0.0
H559 H 1.33412 0.15697 278.43124 0.0
Tb560 Tb 0.6754 0.28188 205.53066 0.0
Eu561 Eu 0.67112 0.23951 202.03577 0.0
C562 C 0.67979 0.25162 214.99804 0.0
C563 C 0.76491 0.2484 204.34098 0.0
C564 C 0.65197 0.33359 207.47772 0.0
C565 C 0.62922 0.3642 211.63449 0.0
C566 C 0.64936 0.34531 212.1662 0.0
C567 C 0.63302 0.34114 202.24276 0.0
C568 C 0.61276 0.36012 201.70358 0.0
C569 C 0.61115 0.37198 206.37818 0.0
C570 C 0.67728 0.31391 208.13622 0.0
O571 O 0.65575 0.28314 196.5117 0.0
O572 O 0.68878 0.25298 194.20971 0.0
O573 O 0.60138 0.25896 200.32817 0.0
O574 O 0.60504 0.28234 206.35116 0.0
C575 C 0.67222 0.27019 192.70711 0.0
O576 O 0.69346 0.21547 196.47396 0.0
O577 O 0.645 0.21604 203.22269 0.0
O578 O 0.66019 0.24286 211.49669 0.0
O579 O 0.69531 0.26503 213.22845 0.0
O580 O 0.74455 0.26588 203.41771 0.0
O581 O 0.74227 0.23641 205.02988 0.0
C582 C 0.58196 0.27424 203.11064 0.0
O583 O 0.65904 0.30401 211.33087 0.0
O584 O 0.69672 0.30494 203.62234 0.0
C585 C 0.69136 0.1866 200.06265 0.0
C586 C 0.72932 0.14821 201.50354 0.0
C587 C 0.71219 0.15566 196.17502 0.0
C588 C 0.69349 0.17456 195.47439 0.0
C589 C 0.70893 0.17937 205.38561 0.0
C590 C 0.72779 0.16036 206.09543 0.0
C591 C 0.66967 0.20644 199.12704 0.0
H592 H 0.62791 0.37274 215.36318 0.0
H593 H 0.66369 0.33985 216.24862 0.0
H594 H 0.63459 0.33245 198.54473 0.0
H595 H 0.59952 0.36555 197.57794 0.0
H596 H 0.71348 0.14688 192.50691 0.0
H597 H 0.68035 0.17981 191.3218 0.0
H598 H 0.70775 0.18837 208.99733 0.0
H599 H 0.74034 0.15518 210.27101 0.0
Tb600 Tb 1.34148 0.15137 205.87453 0.0
Eu601 Eu 1.35162 0.19362 203.92578 0.0
C602 C 1.34506 0.17734 216.01298 0.0
C603 C 1.25424 0.18578 204.79221 0.0
C604 C 1.36113 0.09975 207.06919 0.0
C605 C 1.37527 0.06849 210.48906 0.0
C606 C 1.35361 0.08726 211.05114 0.0
C607 C 1.39118 0.09311 202.50429 0.0
C608 C 1.41292 0.07424 201.92718 0.0
C609 C 1.4052 0.06163 205.91489 0.0
C610 C 1.33586 0.1194 207.74669 0.0
O611 O 1.36106 0.15287 196.93913 0.0
O612 O 1.33123 0.18385 195.56562 0.0
O613 O 1.42127 0.1742 202.16213 0.0
O614 O 1.41333 0.1485 206.72304 0.0
C615 C 1.34643 0.16711 193.53432 0.0
O616 O 1.3589 0.21647 198.66159 0.0
O617 O 1.35529 0.21894 207.87536 0.0
O618 O 1.37198 0.1836 212.81793 0.0
O619 O 1.32116 0.1675 213.70993 0.0
O620 O 1.2735 0.16829 203.75632 0.0
O621 O 1.27779 0.19725 205.86329 0.0
C622 C 1.43831 0.15751 204.18855 0.0
O623 O 1.35191 0.12877 211.40322 0.0
O624 O 1.32076 0.12884 203.1447 0.0
C625 C 1.32931 0.24677 202.57911 0.0
C626 C 1.28611 0.28519 202.43353 0.0
C627 C 1.31896 0.27683 198.29834 0.0
C628 C 1.34035 0.2579 198.38752 0.0
C629 C 1.29536 0.25496 206.5967 0.0
C630 C 1.27411 0.27391 206.52625 0.0
C631 C 1.35683 0.22724 203.04896 0.0
H632 H 1.36773 0.0593 213.59429 0.0
H633 H 1.33039 0.09203 214.58835 0.0
H634 H 1.39767 0.10248 199.37808 0.0
H635 H 1.43606 0.06954 198.38368 0.0
H636 H 1.32949 0.28502 195.11372 0.0
H637 H 1.36667 0.25202 195.27559 0.0
H638 H 1.28595 0.24681 209.88909 0.0
H639 H 1.24849 0.27976 209.72257 0.0
C640 C 0.39535 0.06764 36.2407 0.0
C641 C 0.35737 0.07502 39.77129 0.0
C642 C 0.42888 0.07662 35.63395 0.0
C643 C 0.44743 0.1222 37.57708 0.0
H644 H 0.57484 0.09476 38.42475 0.0
C645 C 0.593 0.15654 36.04382 0.0
C646 C 0.62865 0.15014 39.97718 0.0
C647 C 0.55965 0.1475 35.40779 0.0
C648 C 0.53937 0.10264 38.1827 0.0
H649 H 0.32544 0.09762 45.47667 0.0
H650 H 0.38341 0.11294 44.44698 0.0
H651 H 0.51752 0.07852 38.43964 0.0
H652 H 0.65634 0.12935 46.40685 0.0
H653 H 0.59859 0.11393 45.32916 0.0
H654 H 0.46923 0.14635 37.50728 0.0
C655 C 0.38716 0.10041 42.07207 0.0
C656 C 0.50654 0.0933 38.12856 0.0
C657 C 0.35401 0.09146 42.70032 0.0
C658 C 0.62967 0.13469 43.30408 0.0
C659 C 0.59666 0.12568 42.65429 0.0
C660 C 0.48028 0.13154 37.60868 0.0
C661 C 0.42489 0.09322 38.50858 0.0
C662 C 0.46009 0.10297 37.95048 0.0
C663 C 0.56145 0.13181 38.66621 0.0
C664 C 0.52664 0.1219 38.03811 0.0
H665 H 0.399 0.05506 33.90859 0.0
H666 H 0.45752 0.07072 32.84315 0.0
H667 H 0.41196 0.13008 37.34778 0.0
H668 H 0.59121 0.16834 33.39852 0.0
H669 H 0.53299 0.15257 32.28701 0.0
C670 C 1.64334 0.35223 44.87168 0.0
C671 C 1.65422 0.36135 40.11986 0.0
C672 C 1.60965 0.34343 44.4986 0.0
C673 C 1.55828 0.31846 35.07328 0.0
H674 H 1.45791 0.33006 45.79783 0.0
C675 C 1.4181 0.2811 34.85373 0.0
C676 C 1.39733 0.2794 40.08319 0.0
C677 C 1.44951 0.29115 34.52094 0.0
C678 C 1.4861 0.32634 42.82868 0.0
H679 H 1.63855 0.36838 31.23901 0.0
H680 H 1.58014 0.35235 30.53339 0.0
H681 H 1.51113 0.34806 45.81145 0.0
H682 H 1.39503 0.28582 49.10901 0.0
H683 H 1.45145 0.30221 48.63219 0.0
H684 H 1.53491 0.29614 32.27001 0.0
C685 C 1.59741 0.35235 34.56361 0.0
C686 C 1.51626 0.33686 42.80203 0.0
C687 C 1.63045 0.36161 34.98026 0.0
C688 C 1.41025 0.28706 45.00965 0.0
C689 C 1.44223 0.2967 44.70878 0.0
C690 C 1.52857 0.30765 35.17132 0.0
C691 C 1.58685 0.34315 39.32558 0.0
C692 C 1.55281 0.33295 38.96228 0.0
C693 C 1.46135 0.29944 39.43577 0.0
C694 C 1.49232 0.31128 39.1093 0.0
H695 H 1.66115 0.35179 48.88411 0.0
H696 H 1.60223 0.33639 48.22219 0.0
H697 H 1.58653 0.31509 32.10303 0.0
H698 H 1.40831 0.2755 30.97646 0.0
H699 H 1.4631 0.29299 30.37229 0.0
C700 C 0.50406 0.28384 126.43568 0.0
C701 C 0.52691 0.28262 121.17829 0.0
C702 C 0.45752 0.29325 126.8285 0.0
C703 C 0.35279 0.30771 118.50741 0.0
H704 H 0.31303 0.34911 128.80909 0.0
C705 C 0.17493 0.35824 116.11947 0.0
C706 C 0.15073 0.3662 121.01638 0.0
C707 C 0.22088 0.3484 116.4524 0.0
C708 C 0.32321 0.33743 125.97045 0.0
H709 H 0.51881 0.2897 112.19681 0.0
H710 H 0.43755 0.30538 112.84044 0.0
H711 H 0.39209 0.32987 129.01005 0.0
H712 H 0.15592 0.37044 130.10452 0.0
H713 H 0.23611 0.35268 130.76066 0.0
H714 H 0.28442 0.31469 115.53517 0.0
C715 C 0.45558 0.29935 116.66711 0.0
C716 C 0.3686 0.32643 126.08797 0.0
C717 C 0.50209 0.29038 116.30208 0.0
C718 C 0.1739 0.36461 126.24679 0.0
C719 C 0.21992 0.3544 126.61071 0.0
C720 C 0.3074 0.31845 118.45575 0.0
C721 C 0.43291 0.30116 121.94283 0.0
C722 C 0.38398 0.31167 122.28 0.0
C723 C 0.24387 0.3458 121.72863 0.0
C724 C 0.29201 0.33375 122.08986 0.0
H725 H 0.52248 0.27817 130.27355 0.0
H726 H 0.44077 0.2944 130.94365 0.0
H727 H 0.36362 0.29629 115.56902 0.0
H728 H 0.15803 0.35937 112.0168 0.0
H729 H 0.23817 0.34264 112.55066 0.0
C730 C 1.83909 0.08313 116.19144 0.0
C731 C 1.86315 0.07373 120.91082 0.0
C732 C 1.79246 0.09186 116.55967 0.0
C733 C 1.7038 0.11621 125.99828 0.0
H734 H 1.62107 0.10464 115.19225 0.0
C735 C 1.50867 0.15312 126.29782 0.0
C736 C 1.48528 0.15483 121.08337 0.0
C737 C 1.55488 0.14315 126.60006 0.0
C738 C 1.6436 0.10837 118.18456 0.0
H739 H 1.85734 0.06616 129.73243 0.0
H740 H 1.77539 0.08207 130.43427 0.0
H741 H 1.70085 0.08693 115.14057 0.0
H742 H 1.49223 0.14846 112.05355 0.0
H743 H 1.57274 0.13225 112.47394 0.0
H744 H 1.64738 0.13827 128.86382 0.0
C745 C 1.79285 0.08234 126.42975 0.0
C746 C 1.68931 0.098 118.18871 0.0
C747 C 1.8395 0.07314 126.01433 0.0
C748 C 1.50935 0.14722 116.14295 0.0
C749 C 1.55553 0.13767 116.41225 0.0
C750 C 1.65813 0.12689 125.92106 0.0
C751 C 1.769 0.0918 121.69935 0.0
C752 C 1.71991 0.10189 122.06181 0.0
C753 C 1.57884 0.13496 121.6683 0.0
C754 C 1.62737 0.12327 121.95889 0.0
H755 H 1.85644 0.08383 112.20621 0.0
H756 H 1.77489 0.0991 112.85991 0.0
H757 H 1.72691 0.11957 128.99601 0.0
H758 H 1.49075 0.15867 130.18675 0.0
H759 H 1.57123 0.14133 130.73957 0.0
C760 C 1.36864 0.30788 284.5145 0.0
C761 C 1.38121 0.28867 284.68048 0.0
C762 C 1.40122 0.31715 284.99871 0.0
C763 C 1.52107 0.31132 289.27638 0.0
H764 H 1.50428 0.35516 280.1627 0.0
C765 C 1.66313 0.34466 284.82795 0.0
C766 C 1.65221 0.3638 285.31901 0.0
C767 C 1.62944 0.3359 285.23505 0.0
C768 C 1.50912 0.34307 282.78553 0.0
H769 H 1.43789 0.26411 285.55457 0.0
H770 H 1.49536 0.28029 286.19722 0.0
H771 H 1.44783 0.33865 279.77709 0.0
H772 H 1.59736 0.38874 286.68984 0.0
H773 H 1.53798 0.37335 287.28401 0.0
H774 H 1.58344 0.31551 292.09732 0.0
C775 C 1.46004 0.28823 285.81992 0.0
C776 C 1.47673 0.33358 282.58176 0.0
C777 C 1.42719 0.27892 285.41847 0.0
C778 C 1.60679 0.37399 286.29089 0.0
C779 C 1.57286 0.3652 286.60829 0.0
C780 C 1.55378 0.32069 289.41867 0.0
C781 C 1.44747 0.30749 285.57598 0.0
C782 C 1.4822 0.31756 285.82484 0.0
C783 C 1.58391 0.34606 286.07114 0.0
C784 C 1.54814 0.33665 286.16748 0.0
H785 H 1.33337 0.31584 284.05557 0.0
H786 H 1.38994 0.33196 284.94909 0.0
H787 H 1.52615 0.29925 291.90954 0.0
H788 H 1.69786 0.33637 284.12806 0.0
H789 H 1.63891 0.32117 284.75669 0.0
C790 C 0.58134 0.16104 286.52955 0.0
C791 C 0.62684 0.15145 285.37892 0.0
C792 C 0.54835 0.15173 286.78494 0.0
C793 C 0.53009 0.10739 282.42874 0.0
H794 H 0.42599 0.123 292.52585 0.0
C795 C 0.40243 0.06565 285.68726 0.0
C796 C 0.3567 0.07579 284.94725 0.0
C797 C 0.43605 0.07456 286.0896 0.0
C798 C 0.45494 0.11851 289.68378 0.0
H799 H 0.67395 0.12451 283.90702 0.0
H800 H 0.6174 0.10834 284.58222 0.0
H801 H 0.48317 0.13934 292.61076 0.0
H802 H 0.3102 0.10323 284.25614 0.0
H803 H 0.36868 0.11868 285.05193 0.0
H804 H 0.50206 0.08636 279.59291 0.0
C805 C 0.60636 0.12307 285.04063 0.0
C806 C 0.48757 0.12795 289.69693 0.0
C807 C 0.63897 0.13237 284.68641 0.0
C808 C 0.34518 0.09499 284.77063 0.0
C809 C 0.37859 0.10388 285.2729 0.0
C810 C 0.49786 0.09781 282.48397 0.0
C811 C 0.56042 0.13261 285.99244 0.0
C812 C 0.52555 0.12257 286.04858 0.0
C813 C 0.42439 0.09377 285.87924 0.0
C814 C 0.45983 0.10334 286.0824 0.0
H815 H 0.57105 0.17575 287.07725 0.0
H816 H 0.5133 0.15961 287.47105 0.0
H817 H 0.55816 0.10304 279.45592 0.0
H818 H 0.41231 0.05084 285.84154 0.0
H819 H 0.47117 0.06646 286.58016 0.0
C820 C 1.5192 0.15765 202.73604 0.0
C821 C 1.48741 0.14799 203.5688 0.0
C822 C 1.56562 0.14827 202.31081 0.0
C823 C 1.64854 0.10299 205.62413 0.0
H824 H 1.72831 0.12052 195.83518 0.0
C825 C 1.83726 0.06225 201.78122 0.0
C826 C 1.86788 0.07244 202.66601 0.0
C827 C 1.79049 0.07107 201.48066 0.0
C828 C 1.70636 0.11549 198.58867 0.0
H829 H 1.47913 0.12087 204.35031 0.0
H830 H 1.55917 0.10463 203.4202 0.0
H831 H 1.6473 0.1369 196.10448 0.0
H832 H 1.87364 0.09989 203.70673 0.0
H833 H 1.79246 0.11514 203.10567 0.0
H834 H 1.70771 0.08145 208.03805 0.0
C835 C 1.54889 0.11944 203.31083 0.0
C836 C 1.65999 0.12494 198.77827 0.0
C837 C 1.5028 0.12878 203.81769 0.0
C838 C 1.85094 0.09161 203.07594 0.0
C839 C 1.80445 0.10039 202.68456 0.0
C840 C 1.69475 0.09344 205.37392 0.0
C841 C 1.58108 0.12902 202.62594 0.0
C842 C 1.63046 0.11888 202.3301 0.0
C843 C 1.77369 0.09023 201.94647 0.0
C844 C 1.72419 0.09967 201.8923 0.0
H845 H 1.50834 0.17246 202.53286 0.0
H846 H 1.58938 0.15616 201.85122 0.0
H847 H 1.6272 0.09808 208.50287 0.0
H848 H 1.84932 0.04748 201.44689 0.0
H849 H 1.76743 0.06292 200.88114 0.0
C850 C 0.18418 0.36849 202.75361 0.0
C851 C 0.15223 0.35875 203.23512 0.0
C852 C 0.23061 0.35914 202.30689 0.0
C853 C 0.31277 0.31305 204.89714 0.0
H854 H 0.39445 0.33276 196.15645 0.0
C855 C 0.50249 0.27336 201.02144 0.0
C856 C 0.53264 0.28326 202.5176 0.0
C857 C 0.45573 0.2822 200.67993 0.0
C858 C 0.37193 0.32711 198.60862 0.0
H859 H 0.14357 0.33161 203.33895 0.0
H860 H 0.22361 0.31544 202.3403 0.0
H861 H 0.3134 0.34909 196.34749 0.0
H862 H 0.53769 0.31025 204.61462 0.0
H863 H 0.45657 0.32558 203.91934 0.0
H864 H 0.37148 0.29093 207.07045 0.0
C865 C 0.21351 0.33023 202.54314 0.0
C866 C 0.32554 0.33652 198.75973 0.0
C867 C 0.16742 0.33954 203.08565 0.0
C868 C 0.51531 0.30219 203.50777 0.0
C869 C 0.46889 0.31103 203.06405 0.0
C870 C 0.35901 0.30352 204.67097 0.0
C871 C 0.24591 0.33985 202.23494 0.0
C872 C 0.29532 0.3297 201.94605 0.0
C873 C 0.43857 0.30112 201.70238 0.0
C874 C 0.3891 0.31054 201.5717 0.0
H875 H 0.17344 0.38331 202.86495 0.0
H876 H 0.25449 0.36705 202.14678 0.0
H877 H 0.29093 0.30751 207.50089 0.0
H878 H 0.5149 0.25878 200.23078 0.0
H879 H 0.43298 0.27427 199.60262 0.0
C880 C -0.02164 0.42203 102.63971 0.0
C881 C -0.0124 0.4032 103.67404 0.0
C882 C 0.27766 0.0075 97.09419 0.0
C883 C -0.05397 0.41663 82.12939 0.0
H884 H 0.29058 0.03792 78.35126 0.0
C885 C 0.27288 0.01893 58.98342 0.0
C886 C 0.25176 0.03749 57.73511 0.0
C887 C 0.27498 0.01247 64.59656 0.0
C888 C 0.27964 0.02606 79.36091 0.0
H889 H -0.00435 0.3769 99.68319 0.0
H890 H -0.01601 0.38888 89.95354 0.0
H891 H 0.30203 0.02559 88.00336 0.0
H892 H 0.21627 0.06381 61.4245 0.0
H893 H 0.22133 0.05256 71.31056 0.0
H894 H -0.07415 0.41674 73.34343 0.0
C895 C -0.01863 0.39845 93.43809 0.0
C896 C 0.28594 0.01897 84.91817 0.0
C897 C -0.01158 0.39149 99.02333 0.0
C898 C 0.23272 0.04945 62.24704 0.0
C899 C 0.23574 0.04303 67.89792 0.0
C900 C -0.05938 0.42351 76.54082 0.0
C901 C -0.02769 0.41736 92.37733 0.0
C902 C -0.03452 0.42491 86.41029 0.0
C903 C 0.25682 0.02446 69.12232 0.0
C904 C 0.26097 0.01755 75.10129 0.0
H905 H 0.28408 0.00995 106.14277 0.0
H906 H 0.26952 0.02215 96.53857 0.0
H907 H -0.06547 0.40488 83.08298 0.0
H908 H 0.28759 0.0093 55.6059 0.0
H909 H -0.01568 0.41965 65.41541 0.0
C910 C 2.0421 0.04431 99.07404 0.0
C911 C 2.01471 0.03871 103.06293 0.0
C912 C 2.04863 0.03671 93.55596 0.0
C913 C 1.99816 0.01117 83.21072 0.0
H914 H 1.80838 0.42139 75.78682 0.0
C915 C 1.71413 0.41029 59.61974 0.0
C916 C 1.75397 0.39671 57.9876 0.0
C917 C 1.70958 0.41789 65.09931 0.0
C918 C 1.77543 0.4243 77.81831 0.0
H919 H 1.97308 0.02055 104.35373 0.0
H920 H 1.98481 0.00731 94.85584 0.0
H921 H 2.10569 0.01352 85.3259 0.0
H922 H 1.8204 0.3805 60.89493 0.0
H923 H 1.81211 0.39357 70.53541 0.0
H924 H 1.66806 0.42158 75.80886 0.0
C925 C 2.00063 0.0178 95.91261 0.0
C926 C 2.07684 0.01086 83.26328 0.0
C927 C 1.99404 0.02538 101.3951 0.0
C928 C 1.78919 0.39089 62.00847 0.0
C929 C 1.78457 0.3985 67.52335 0.0
C930 C 1.69675 0.42462 77.79225 0.0
C931 C 2.02793 0.02334 91.90218 0.0
C932 C 2.03443 0.01514 86.04058 0.0
C933 C 1.74463 0.41212 69.14221 0.0
C934 C 1.73907 0.42034 75.002 0.0
H935 H 2.05866 0.05449 100.21618 0.0
H936 H 2.06952 0.04146 90.56916 0.0
H937 H 1.96485 0.01445 85.16354 0.0
H938 H 1.6864 0.4153 56.63589 0.0
H939 H 1.98603 0.00704 66.12913 0.0
C940 C 2.03974 0.04445 225.28412 0.0
C941 C 2.01585 0.03695 221.32436 0.0
C942 C 2.04756 0.03744 230.85989 0.0
C943 C 1.74762 0.41732 239.29018 0.0
H944 H 2.03091 0.02827 252.39591 0.0
C945 C 1.78474 0.39179 262.78877 0.0
C946 C 1.74971 0.39937 266.72608 0.0
C947 C 1.7828 0.39881 257.21937 0.0
C948 C 2.03783 0.01902 248.77646 0.0
H949 H 1.98146 0.01615 220.16138 0.0
H950 H 1.68795 0.42555 229.80359 0.0
H951 H 2.02179 0.0411 242.74539 0.0
H952 H 1.68512 0.42032 267.85661 0.0
H953 H 1.98936 0.01096 258.22305 0.0
H954 H 1.76308 0.39524 245.31991 0.0
C955 C 2.00815 0.01524 228.60878 0.0
C956 C 2.03296 0.02638 243.25096 0.0
C957 C 1.99988 0.02235 223.0831 0.0
C958 C 1.71272 0.41406 264.9515 0.0
C959 C 1.71107 0.42118 259.43147 0.0
C960 C 1.75301 0.40996 244.81553 0.0
C961 C 2.03224 0.02262 232.56236 0.0
C962 C 2.04074 0.01486 238.44025 0.0
C963 C 1.74612 0.41373 255.50013 0.0
C964 C 1.74378 0.42149 249.62579 0.0
H965 H 2.05261 0.05565 224.0708 0.0
H966 H 2.06635 0.04339 233.80657 0.0
H967 H 1.75434 0.40807 235.67074 0.0
H968 H 1.81377 0.38051 264.01474 0.0
H969 H 1.81042 0.3928 254.29083 0.0
C970 C 0.30281 0.03451 263.53747 0.0
C971 C 0.26032 0.04079 266.25603 0.0
C972 C 0.30649 0.02723 258.01087 0.0
C973 C -0.05461 0.42473 248.07995 0.0
H974 H 0.32547 0.01805 236.6076 0.0
C975 C -0.03645 0.39603 224.80346 0.0
C976 C 0.00459 0.39436 221.91422 0.0
C977 C -0.04448 0.40431 230.21912 0.0
C978 C 0.30566 0.01344 239.77244 0.0
H979 H 0.18828 0.04438 265.28282 0.0
H980 H 0.1949 0.03127 255.62502 0.0
H981 H 0.31428 0.03299 245.9042 0.0
H982 H 0.07024 0.39918 222.56518 0.0
H983 H 0.05737 0.41269 232.04743 0.0
H984 H -0.062 0.40472 242.04559 0.0
C985 C 0.22526 0.03216 257.78179 0.0
C986 C 0.29897 0.02217 245.09796 0.0
C987 C 0.22145 0.0398 263.28556 0.0
C988 C 0.03807 0.40042 224.65338 0.0
C989 C 0.0304 0.40838 230.08431 0.0
C990 C -0.04735 0.41577 242.77085 0.0
C991 C 0.26789 0.02572 255.09617 0.0
C992 C 0.27268 0.01708 249.32772 0.0
C993 C -0.0114 0.41088 232.90626 0.0
C994 C -0.0204 0.42065 238.5459 0.0
H995 H 0.33342 0.03505 265.70998 0.0
H996 H 0.33983 0.02228 256.07455 0.0
H997 H -0.0747 0.42039 251.27752 0.0
H998 H -0.06311 0.39166 222.78223 0.0
H999 H -0.07725 0.40607 232.20107 0.0
C1000 C 1.31679 0.2095 102.51947 0.0
C1001 C 1.32458 0.19082 103.69976 0.0
C1002 C 1.30998 0.21604 96.915 0.0
C1003 C 1.2862 0.20285 82.03795 0.0
H1004 H 1.32775 0.24441 77.99949 0.0
C1005 C 1.3078 0.22529 58.74748 0.0
C1006 C 1.28759 0.24389 57.4743 0.0
C1007 C 1.3097 0.21898 64.37809 0.0
C1008 C 1.31566 0.23289 79.08109 0.0
H1009 H 1.33136 0.16433 99.91294 0.0
H1010 H 1.32176 0.1755 90.08539 0.0
H1011 H 1.3377 0.2327 87.72958 0.0
H1012 H 1.25362 0.27045 61.12515 0.0
H1013 H 1.25834 0.25945 71.02587 0.0
H1014 H 1.26627 0.20268 73.24962 0.0
C1015 C 1.31937 0.1853 93.4972 0.0
C1016 C 1.32107 0.22618 84.68067 0.0
C1017 C 1.32521 0.17881 99.13826 0.0
C1018 C 1.26932 0.25605 61.96862 0.0
C1019 C 1.27216 0.24978 67.62813 0.0
C1020 C 1.28167 0.20935 76.40598 0.0
C1021 C 1.31178 0.20404 92.29111 0.0
C1022 C 1.30623 0.21109 86.26886 0.0
C1023 C 1.2923 0.23117 68.88295 0.0
C1024 C 1.29619 0.22448 74.87861 0.0
H1025 H 1.31538 0.21918 105.95011 0.0
H1026 H 1.30294 0.2306 96.23803 0.0
H1027 H 1.27348 0.19146 83.06817 0.0
H1028 H 1.32192 0.21554 55.3794 0.0
H1029 H 1.32563 0.20459 65.22683 0.0
C1030 C 0.69606 0.22645 102.59491 0.0
C1031 C 0.68818 0.24524 103.61068 0.0
C1032 C 0.70385 0.21933 97.05539 0.0
C1033 C 0.73072 0.23105 82.12863 0.0
H1034 H 0.69047 0.18898 78.29615 0.0
C1035 C 0.71299 0.20677 58.95919 0.0
C1036 C 0.73356 0.18811 57.79883 0.0
C1037 C 0.71021 0.21347 64.55518 0.0
C1038 C 0.70222 0.20064 79.3225 0.0
H1039 H 0.68212 0.27132 99.58886 0.0
H1040 H 0.69339 0.25914 89.87903 0.0
H1041 H 0.67858 0.20158 87.92716 0.0
H1042 H 0.7673 0.16183 61.61926 0.0
H1043 H 0.76102 0.17349 71.46517 0.0
H1044 H 0.75225 0.23046 73.38046 0.0
C1045 C 0.69513 0.2497 93.37183 0.0
C1046 C 0.69568 0.20786 84.86603 0.0
C1047 C 0.6883 0.25677 98.94658 0.0
C1048 C 0.75132 0.17627 62.37519 0.0
C1049 C 0.7476 0.18292 68.00278 0.0
C1050 C 0.73638 0.22403 76.55228 0.0
C1051 C 0.70301 0.23083 92.33145 0.0
C1052 C 0.70994 0.22317 86.37656 0.0
C1053 C 0.72709 0.2016 69.14218 0.0
C1054 C 0.7223 0.20873 75.0974 0.0
H1055 H 0.6969 0.21714 106.10623 0.0
H1056 H 0.711 0.2047 96.51059 0.0
H1057 H 0.74311 0.24256 83.10167 0.0
H1058 H 0.69925 0.21629 55.5278 0.0
H1059 H 0.69402 0.2279 65.3116 0.0
C1060 C 0.68907 0.20438 265.06418 0.0
C1061 C 0.72549 0.18958 266.92022 0.0
C1062 C 0.68767 0.21103 259.48657 0.0
C1063 C 0.7316 0.19847 244.92073 0.0
H1064 H 0.68877 0.2509 242.4144 0.0
C1065 C 0.67491 0.22956 222.72817 0.0
C1066 C 0.687 0.24515 221.02299 0.0
C1067 C 0.68289 0.22286 228.30425 0.0
C1068 C 0.70122 0.23624 243.03359 0.0
H1069 H 0.78889 0.17009 264.28058 0.0
H1070 H 0.78631 0.1817 254.49515 0.0
H1071 H 0.69758 0.23894 252.14812 0.0
H1072 H 0.71688 0.26595 223.9217 0.0
H1073 H 0.73062 0.25426 233.70043 0.0
H1074 H 0.73519 0.19578 235.80356 0.0
C1075 C 0.75874 0.1881 257.38849 0.0
C1076 C 0.70583 0.22936 248.61734 0.0
C1077 C 0.76028 0.18147 263.0032 0.0
C1078 C 0.70701 0.25396 225.08038 0.0
C1079 C 0.71478 0.24728 230.69184 0.0
C1080 C 0.72678 0.20535 239.33494 0.0
C1081 C 0.72255 0.20308 255.57744 0.0
C1082 C 0.72053 0.21037 249.63492 0.0
C1083 C 0.70305 0.23156 232.36112 0.0
C1084 C 0.71099 0.22432 238.31551 0.0
H1085 H 0.66154 0.21102 267.93382 0.0
H1086 H 0.65888 0.22235 258.22015 0.0
H1087 H 0.7428 0.1838 245.53837 0.0
H1088 H 0.65945 0.22236 219.74331 0.0
H1089 H 0.67269 0.21093 229.45509 0.0
C1090 C 1.3284 0.24689 263.39387 0.0
C1091 C 1.28594 0.253 266.11206 0.0
C1092 C 1.33264 0.23874 257.99403 0.0
C1093 C 1.26677 0.23084 245.3154 0.0
H1094 H 1.37751 0.19163 242.48425 0.0
C1095 C 1.297 0.18478 224.90661 0.0
C1096 C 1.33802 0.18349 222.05141 0.0
C1097 C 1.28887 0.19254 230.39055 0.0
C1098 C 1.34644 0.20258 243.20532 0.0
H1099 H 1.21433 0.25565 265.23113 0.0
H1100 H 1.22174 0.24093 255.85124 0.0
H1101 H 1.36595 0.20701 251.70851 0.0
H1102 H 1.40315 0.18878 222.78195 0.0
H1103 H 1.38949 0.20178 232.37411 0.0
H1104 H 1.24719 0.22596 236.79032 0.0
C1105 C 1.2518 0.24278 257.83562 0.0
C1106 C 1.33986 0.21155 248.48794 0.0
C1107 C 1.24748 0.25123 263.22438 0.0
C1108 C 1.37122 0.18956 224.86574 0.0
C1109 C 1.36345 0.19697 230.36879 0.0
C1110 C 1.27313 0.22166 240.04441 0.0
C1111 C 1.29465 0.2361 255.18411 0.0
C1112 C 1.3003 0.22605 249.60019 0.0
C1113 C 1.32197 0.1988 233.16695 0.0
C1114 C 1.31336 0.20761 238.90426 0.0
H1115 H 1.35866 0.24821 265.4807 0.0
H1116 H 1.366 0.23435 256.04851 0.0
H1117 H 1.23605 0.24201 245.96322 0.0
H1118 H 1.2706 0.18038 222.83116 0.0
H1119 H 1.25669 0.19368 232.45778 0.0
C1120 C 0.23492 0.04624 304.68303 0.0
C1121 C 0.23469 0.06087 301.03724 0.0
C1122 C 0.23059 0.04879 310.59437 0.0
C1123 C 0.24628 0.07832 322.38569 0.0
H1124 H 0.17734 0.05243 3.72536 0.0
C1125 C 0.23057 0.08038 20.33939 0.0
C1126 C 0.23363 0.06352 22.96958 0.0
C1127 C 0.22772 0.0821 14.35342 0.0
C1128 C 0.19848 0.05927 1.48536 0.0
H1129 H 0.22991 0.08973 300.8011 0.0
H1130 H 0.22247 0.09415 311.16587 0.0
H1131 H 0.17399 0.05268 320.29056 0.0
H1132 H 0.23612 0.03527 21.31518 0.0
H1133 H 0.23147 0.03826 11.03994 0.0
H1134 H 0.2715 0.08453 3.63198 0.0
C1135 C 0.22612 0.08068 309.41778 0.0
C1136 C 0.19421 0.06004 322.47648 0.0
C1137 C 0.23015 0.07815 303.47534 0.0
C1138 C 0.23359 0.04853 19.48077 0.0
C1139 C 0.23058 0.05026 13.55361 0.0
C1140 C 0.25064 0.0775 1.42636 0.0
C1141 C 0.22607 0.06603 313.04604 0.0
C1142 C 0.22165 0.06844 319.37016 0.0
C1143 C 0.22748 0.06703 10.89419 0.0
C1144 C 0.22479 0.06835 4.53073 0.0
H1145 H 0.23845 0.03272 302.97944 0.0
H1146 H 0.23142 0.03713 313.26111 0.0
H1147 H 0.2679 0.08488 320.12448 0.0
H1148 H 0.23063 0.09219 22.89206 0.0
H1149 H 0.22524 0.09524 12.43928 0.0
C1150 C 1.77684 0.39318 305.02792 0.0
C1151 C 1.77638 0.37849 301.43393 0.0
C1152 C 1.78074 0.39088 310.94549 0.0
C1153 C 1.76217 0.36217 322.79161 0.0
H1154 H 1.84111 0.38529 4.22438 0.0
C1155 C 1.78582 0.35727 20.69167 0.0
C1156 C 1.78268 0.37404 23.3992 0.0
C1157 C 1.78936 0.35568 14.71571 0.0
C1158 C 1.82022 0.37841 1.95653 0.0
H1159 H 1.77975 0.34976 301.29361 0.0
H1160 H 1.78656 0.34577 311.6771 0.0
H1161 H 1.83531 0.38748 320.77973 0.0
H1162 H 1.78101 0.40224 21.90576 0.0
H1163 H 1.78693 0.39949 11.59221 0.0
H1164 H 1.74651 0.35339 4.00805 0.0
C1165 C 1.7837 0.3591 309.88139 0.0
C1166 C 1.81455 0.38031 322.94215 0.0
C1167 C 1.78004 0.36137 303.92876 0.0
C1168 C 1.78349 0.38908 19.99487 0.0
C1169 C 1.78722 0.38748 14.05772 0.0
C1170 C 1.76782 0.36029 1.83109 0.0
C1171 C 1.78419 0.37384 313.4603 0.0
C1172 C 1.78755 0.37179 319.80003 0.0
C1173 C 1.7902 0.37079 11.32769 0.0
C1174 C 1.79336 0.3695 4.96652 0.0
H1175 H 1.77402 0.40658 303.28079 0.0
H1176 H 1.78024 0.40262 313.56645 0.0
H1177 H 1.74079 0.35555 320.50843 0.0
H1178 H 1.78522 0.34541 23.17805 0.0
H1179 H 1.79184 0.3426 12.7531 0.0
C1180 C -0.00044 0.38909 141.87046 0.0
C1181 C 0.01613 0.37397 138.21267 0.0
C1182 C 0.00314 0.38711 147.78352 0.0
C1183 C 0.01511 0.35497 159.67535 0.0
H1184 H 0.05133 0.39258 167.82207 0.0
C1185 C 0.0305 0.35761 184.6353 0.0
C1186 C 0.01309 0.37507 187.11072 0.0
C1187 C 0.03413 0.35553 178.6706 0.0
C1188 C 0.04086 0.38202 165.62719 0.0
H1189 H 0.04877 0.3447 137.98174 0.0
H1190 H 0.05474 0.34119 148.43856 0.0
H1191 H 0.05267 0.39209 157.43102 0.0
H1192 H -0.01512 0.40398 185.19743 0.0
H1193 H -0.00908 0.40035 174.90276 0.0
H1194 H 0.00245 0.34516 167.93209 0.0
C1195 C 0.03904 0.35462 146.64845 0.0
C1196 C 0.04175 0.38171 159.66303 0.0
C1197 C 0.03573 0.35664 140.66797 0.0
C1198 C -0.00125 0.39032 183.475 0.0
C1199 C 0.0025 0.38825 177.54815 0.0
C1200 C 0.01416 0.35529 165.68184 0.0
C1201 C 0.02331 0.36993 150.26237 0.0
C1202 C 0.02776 0.3685 156.60243 0.0
C1203 C 0.02072 0.37089 175.05892 0.0
C1204 C 0.02591 0.36914 168.7211 0.0
H1205 H -0.01597 0.40268 140.17982 0.0
H1206 H -0.01015 0.39912 150.4329 0.0
H1207 H 0.00404 0.34463 157.44001 0.0
H1208 H 0.04184 0.34555 187.30013 0.0
H1209 H 0.04841 0.34197 176.89512 0.0
C1210 C 2.03576 0.04277 183.02622 0.0
C1211 C 2.01402 0.05752 186.6121 0.0
C1212 C 2.03633 0.04501 177.10588 0.0
C1213 C 1.97608 0.07378 165.25841 0.0
H1214 H 2.08513 0.04876 156.83223 0.0
C1215 C 1.98924 0.07724 140.40675 0.0
C1216 C 2.01029 0.06047 137.67945 0.0
C1217 C 1.9905 0.07875 146.38304 0.0
C1218 C 2.05428 0.05575 159.11066 0.0
H1219 H 1.9758 0.0863 186.73522 0.0
H1220 H 1.97684 0.0902 176.34844 0.0
H1221 H 2.08594 0.0481 167.23411 0.0
H1222 H 2.04927 0.03217 139.13846 0.0
H1223 H 2.05123 0.0348 149.45752 0.0
H1224 H 1.94426 0.08115 157.09626 0.0
C1225 C 1.99328 0.07686 178.15185 0.0
C1226 C 2.05475 0.05537 165.08224 0.0
C1227 C 1.99291 0.07464 184.10668 0.0
C1228 C 2.03278 0.04534 141.06563 0.0
C1229 C 2.0342 0.04687 147.00503 0.0
C1230 C 1.97559 0.07415 159.26253 0.0
C1231 C 2.0151 0.06205 174.58035 0.0
C1232 C 2.01543 0.06405 168.23783 0.0
C1233 C 2.01312 0.06357 149.75335 0.0
C1234 C 2.01446 0.0648 156.11442 0.0
H1235 H 2.05232 0.02937 184.78156 0.0
H1236 H 2.05281 0.03322 174.49187 0.0
H1237 H 1.94511 0.08051 167.55131 0.0
H1238 H 1.97156 0.08918 137.93508 0.0
H1239 H 1.97414 0.09185 148.35958 0.0
C1240 C 1.28142 0.25627 19.16524 0.0
C1241 C 1.27504 0.27147 22.80734 0.0
C1242 C 1.28194 0.25824 13.24972 0.0
C1243 C 1.24502 0.2904 1.38476 0.0
H1244 H 1.33114 0.2547 320.087 0.0
C1245 C 1.25772 0.28962 303.37337 0.0
C1246 C 1.26595 0.27217 300.88913 0.0
C1247 C 1.25857 0.29165 309.33644 0.0
C1248 C 1.30513 0.26514 322.3148 0.0
H1249 H 1.26338 0.30083 23.01696 0.0
H1250 H 1.26402 0.3043 12.56395 0.0
H1251 H 1.33786 0.25359 3.52106 0.0
H1252 H 1.2804 0.24323 302.7818 0.0
H1253 H 1.28158 0.24678 313.076 0.0
H1254 H 1.21187 0.3017 320.1179 0.0
C1255 C 1.26867 0.29084 14.36204 0.0
C1256 C 1.3114 0.26389 1.32046 0.0
C1257 C 1.26845 0.28884 20.34066 0.0
C1258 C 1.27421 0.25689 304.51255 0.0
C1259 C 1.2752 0.2589 310.43724 0.0
C1260 C 1.23873 0.29165 322.33806 0.0
C1261 C 1.27603 0.27547 10.75935 0.0
C1262 C 1.27796 0.27695 4.4184 0.0
C1263 C 1.26795 0.27625 312.93335 0.0
C1264 C 1.27088 0.27795 319.26379 0.0
H1265 H 1.28646 0.24266 20.87073 0.0
H1266 H 1.2868 0.24617 10.6089 0.0
H1267 H 1.21873 0.30061 3.64946 0.0
H1268 H 1.25119 0.30171 300.71651 0.0
H1269 H 1.25293 0.3052 311.12164 0.0
C1270 C 0.7554 0.17579 305.31914 0.0
C1271 C 0.7509 0.16211 301.54328 0.0
C1272 C 0.76001 0.17256 311.18424 0.0
C1273 C 0.73493 0.14482 322.77241 0.0
H1274 H 0.82367 0.16323 4.18693 0.0
C1275 C 0.75562 0.14179 20.81423 0.0
C1276 C 0.75561 0.15863 23.24317 0.0
C1277 C 0.75994 0.13909 14.86903 0.0
C1278 C 0.8002 0.1576 1.92147 0.0
H1279 H 0.74773 0.13421 301.01958 0.0
H1280 H 0.7555 0.1286 311.36387 0.0
H1281 H 0.81841 0.16516 320.74085 0.0
H1282 H 0.76045 0.18576 21.291 0.0
H1283 H 0.76795 0.18105 11.06487 0.0
H1284 H 0.71592 0.13775 4.01077 0.0
C1285 C 0.75547 0.14184 309.72633 0.0
C1286 C 0.79484 0.15935 322.91172 0.0
C1287 C 0.75125 0.14503 303.80585 0.0
C1288 C 0.76036 0.17258 19.60328 0.0
C1289 C 0.76503 0.16984 13.71541 0.0
C1290 C 0.74028 0.14308 1.81812 0.0
C1291 C 0.76007 0.15559 313.47712 0.0
C1292 C 0.76405 0.15273 319.78068 0.0
C1293 C 0.76493 0.15309 11.25872 0.0
C1294 C 0.76924 0.15074 4.93561 0.0
H1295 H 0.7553 0.18912 303.75491 0.0
H1296 H 0.76271 0.18356 313.94722 0.0
H1297 H 0.7107 0.13967 320.48639 0.0
H1298 H 0.75189 0.13078 23.49102 0.0
H1299 H 0.75982 0.12601 13.1041 0.0
C1300 C 1.3343 0.17828 141.97405 0.0
C1301 C 1.35061 0.16307 138.34292 0.0
C1302 C 1.33795 0.17638 147.88939 0.0
C1303 C 1.34974 0.14438 159.81922 0.0
H1304 H 1.38661 0.18194 167.90999 0.0
C1305 C 1.36598 0.14704 184.75133 0.0
C1306 C 1.34869 0.16452 187.22545 0.0
C1307 C 1.36948 0.14497 178.78784 0.0
C1308 C 1.37596 0.1714 165.72973 0.0
H1309 H 1.38286 0.13377 138.15509 0.0
H1310 H 1.38897 0.13044 148.61064 0.0
H1311 H 1.38762 0.1814 157.51807 0.0
H1312 H 1.32057 0.19343 185.31637 0.0
H1313 H 1.32638 0.18979 175.02033 0.0
H1314 H 1.33724 0.13464 168.08997 0.0
C1315 C 1.37341 0.14385 146.80209 0.0
C1316 C 1.37665 0.17106 159.7663 0.0
C1317 C 1.37003 0.14577 140.82244 0.0
C1318 C 1.33436 0.17976 183.59245 0.0
C1319 C 1.33797 0.17769 177.66607 0.0
C1320 C 1.34899 0.14473 165.82376 0.0
C1321 C 1.35793 0.15923 150.39096 0.0
C1322 C 1.36245 0.15786 156.7282 0.0
C1323 C 1.35604 0.16032 175.17801 0.0
C1324 C 1.36099 0.15856 168.84176 0.0
H1325 H 1.31893 0.19184 140.25973 0.0
H1326 H 1.32485 0.18846 150.52195 0.0
H1327 H 1.3385 0.13406 157.60014 0.0
H1328 H 1.3773 0.13499 187.41579 0.0
H1329 H 1.38365 0.1314 177.01114 0.0
C1330 C 0.69833 0.26158 182.70397 0.0
C1331 C 0.67209 0.27468 186.52599 0.0
C1332 C 0.69785 0.26514 176.85621 0.0
C1333 C 0.62891 0.29192 165.37474 0.0
H1334 H 0.74194 0.27497 156.92813 0.0
C1335 C 0.64011 0.29347 140.36166 0.0
C1336 C 0.66679 0.2769 137.96351 0.0
C1337 C 0.64048 0.29645 146.29291 0.0
C1338 C 0.71004 0.27978 159.21552 0.0
H1339 H 0.62474 0.30192 187.15977 0.0
H1340 H 0.62358 0.3081 176.84195 0.0
H1341 H 0.74315 0.27445 167.33329 0.0
H1342 H 0.71516 0.25061 139.94267 0.0
H1343 H 0.71581 0.25579 150.14323 0.0
H1344 H 0.59578 0.29668 157.20184 0.0
C1345 C 0.64459 0.29506 178.42979 0.0
C1346 C 0.71075 0.27949 165.18201 0.0
C1347 C 0.64544 0.29155 184.33384 0.0
C1348 C 0.69413 0.26355 141.61153 0.0
C1349 C 0.69481 0.26657 147.48258 0.0
C1350 C 0.6282 0.2922 159.37282 0.0
C1351 C 0.67094 0.28187 174.6296 0.0
C1352 C 0.67014 0.28499 168.33772 0.0
C1353 C 0.66804 0.28301 149.91424 0.0
C1354 C 0.6687 0.28557 156.22905 0.0
H1355 H 0.71933 0.24843 184.2198 0.0
H1356 H 0.718 0.25456 174.05163 0.0
H1357 H 0.59703 0.2962 167.68192 0.0
H1358 H 0.61855 0.30402 137.67532 0.0
H1359 H 0.61951 0.30927 148.03936 0.0
C1360 C 1.92305 0.39015 41.34913 0.0
C1361 C 1.87886 0.40239 41.37697 0.0
C1362 C 1.96101 0.39659 41.42617 0.0
C1363 C 2.30504 0.01589 44.81743 0.0
H1364 H -0.26231 0.41252 35.58612 0.0
C1365 C 0.09044 0.04534 40.98505 0.0
C1366 C 0.13468 0.03315 41.13775 0.0
C1367 C 0.05255 0.03887 41.15908 0.0
C1368 C -0.29102 0.4195 38.23995 0.0
H1369 H 2.14747 0.00957 41.52363 0.0
H1370 H 2.21384 0.02084 41.57053 0.0
H1371 H 2.03533 0.40178 35.52588 0.0
H1372 H -0.1338 0.42602 41.61931 0.0
H1373 H -0.20011 0.41471 41.92382 0.0
H1374 H -0.02132 0.03373 47.47831 0.0
C1375 C 1.91173 0.42774 41.57186 0.0
C1376 C 2.03514 0.41334 38.20888 0.0
C1377 C 1.87363 0.42128 41.51509 0.0
C1378 C 0.14002 0.01428 41.48607 0.0
C1379 C 0.10201 0.00778 41.6302 0.0
C1380 C -0.02116 0.02209 44.82988 0.0
C1381 C 1.95593 0.41546 41.50723 0.0
C1382 C 1.99668 0.4222 41.50297 0.0
C1383 C 0.05781 0.02001 41.46632 0.0
C1384 C 0.01726 0.0132 41.54058 0.0
H1385 H 1.92854 0.3755 41.28787 0.0
H1386 H 1.99442 0.38672 41.48246 0.0
H1387 H 2.27639 0.02287 47.47735 0.0
H1388 H 0.0849 0.05997 40.71769 0.0
H1389 H 0.01904 0.04864 40.95358 0.0
C1390 C 2.17098 0.01387 119.69807 0.0
C1391 C 2.14835 0.03275 119.85636 0.0
C1392 C 2.21858 0.00749 119.71872 0.0
C1393 C 2.32022 0.02214 123.3339 0.0
H1394 H -0.28773 0.40222 113.98801 0.0
C1395 C -0.15689 0.42307 120.04162 0.0
C1396 C -0.13339 0.40429 120.26041 0.0
C1397 C 0.10288 0.00753 119.94329 0.0
C1398 C -0.3051 0.41371 116.66357 0.0
H1399 H 2.15843 0.05968 120.06258 0.0
H1400 H 2.24071 0.04861 120.00435 0.0
H1401 H 1.99403 0.41258 113.94685 0.0
H1402 H -0.14188 0.3771 120.50484 0.0
H1403 H -0.22446 0.38756 120.35067 0.0
H1404 H 0.02107 0.02334 126.02139 0.0
C1405 C 2.22189 0.03868 119.98606 0.0
C1406 C 2.01197 0.41964 116.65008 0.0
C1407 C 2.1745 0.04504 119.98268 0.0
C1408 C -0.15868 0.39168 120.33566 0.0
C1409 C -0.20615 0.39766 120.20988 0.0
C1410 C 0.00309 0.01626 123.33043 0.0
C1411 C 2.24465 0.01983 119.88825 0.0
C1412 C 2.29533 0.0132 119.97446 0.0
C1413 C -0.22967 0.41643 120.03009 0.0
C1414 C -0.28029 0.42275 119.99125 0.0
H1415 H 1.84466 0.42553 119.61188 0.0
H1416 H 1.92758 0.4144 119.69756 0.0
H1417 H 2.30299 0.03359 126.03325 0.0
H1418 H 0.16874 0.01165 119.96863 0.0
H1419 H 0.08585 0.02209 119.7415 0.0
C1420 C 0.09207 0.04536 283.59133 0.0
C1421 C 0.13567 0.03274 283.29176 0.0
C1422 C 0.05338 0.03942 283.53845 0.0
C1423 C -0.29436 0.42144 279.70513 0.0
H1424 H 2.27578 0.02443 289.42896 0.0
C1425 C 1.91761 0.39365 283.48454 0.0
C1426 C 1.87398 0.40633 283.40658 0.0
C1427 C 1.95632 0.39959 283.3559 0.0
C1428 C 2.30374 0.01758 286.6448 0.0
H1429 H -0.13468 0.42541 282.70627 0.0
H1430 H -0.20232 0.415 282.719 0.0
H1431 H -0.02045 0.03425 289.53125 0.0
H1432 H 2.14431 0.0137 283.11986 0.0
H1433 H 2.21212 0.02405 282.91357 0.0
H1434 H 2.02984 0.40462 276.88327 0.0
C1435 C 0.1008 0.00803 282.90175 0.0
C1436 C -0.02166 0.0232 286.69705 0.0
C1437 C 0.13961 0.01399 282.92549 0.0
C1438 C 1.87002 0.4251 283.18877 0.0
C1439 C 2.21618 0.00951 283.10044 0.0
C1440 C 2.0311 0.41576 279.67849 0.0
C1441 C 0.05719 0.02069 283.21831 0.0
C1442 C 0.01574 0.01447 283.21765 0.0
C1443 C 1.95241 0.41833 283.18003 0.0
C1444 C 1.99373 0.42455 283.14349 0.0
H1445 H 0.08763 0.05993 283.82898 0.0
H1446 H 0.02039 0.04958 283.67935 0.0
H1447 H -0.26654 0.41461 276.90341 0.0
H1448 H 1.92203 0.37908 283.64222 0.0
H1449 H 1.98939 0.38947 283.48634 0.0
C1450 C 2.17508 0.01097 204.86977 0.0
C1451 C 2.15167 0.02975 204.67989 0.0
C1452 C 1.91525 0.42653 204.94799 0.0
C1453 C 2.32261 0.02011 208.39235 0.0
H1454 H -0.28534 0.40185 198.43268 0.0
C1455 C -0.15457 0.42162 205.15348 0.0
C1456 C -0.13134 0.40285 204.75559 0.0
C1457 C -0.2021 0.42769 205.16345 0.0
C1458 C -0.30264 0.41283 201.29547 0.0
H1459 H 2.15998 0.05698 204.49005 0.0
H1460 H 2.24253 0.04654 204.63043 0.0
H1461 H 1.99653 0.41175 198.55934 0.0
H1462 H -0.14002 0.37574 204.14412 0.0
H1463 H -0.22235 0.38627 204.27154 0.0
H1464 H 0.02335 0.0211 211.1747 0.0
C1465 C 2.2242 0.03644 204.74445 0.0
C1466 C 2.01455 0.41849 201.36188 0.0
C1467 C 2.17682 0.0424 204.62488 0.0
C1468 C -0.15669 0.39032 204.40569 0.0
C1469 C -0.20405 0.39636 204.44603 0.0
C1470 C 0.00545 0.01437 208.35226 0.0
C1471 C 2.24762 0.01768 204.88707 0.0
C1472 C 2.29802 0.01144 204.90446 0.0
C1473 C -0.2274 0.41511 204.80199 0.0
C1474 C -0.27793 0.42142 204.80261 0.0
H1475 H 1.84946 0.42239 204.91991 0.0
H1476 H 1.93241 0.41198 205.10921 0.0
H1477 H 2.30513 0.03117 211.21683 0.0
H1478 H 0.17122 0.01012 205.41247 0.0
H1479 H 0.08834 0.02072 205.37546 0.0
C1480 C 0.89756 0.17838 41.02876 0.0
C1481 C 0.85343 0.19067 41.12877 0.0
C1482 C 0.93562 0.18478 41.12554 0.0
C1483 C 0.97266 0.22535 37.92519 0.0
H1484 H 1.0766 0.20084 47.27473 0.0
C1485 C 1.12519 0.25397 40.68265 0.0
C1486 C 1.16901 0.24145 40.79035 0.0
C1487 C 1.08666 0.24788 40.82933 0.0
C1488 C 1.04812 0.20771 44.58312 0.0
H1489 H 0.81495 0.21942 41.42292 0.0
H1490 H 0.88151 0.23056 41.59569 0.0
H1491 H 1.00938 0.1902 47.37336 0.0
H1492 H 1.20644 0.2126 41.13044 0.0
H1493 H 1.13923 0.20197 41.29472 0.0
H1494 H 1.01147 0.24273 35.08218 0.0
C1495 C 0.88654 0.21595 41.40421 0.0
C1496 C 1.00952 0.20163 44.65055 0.0
C1497 C 0.84838 0.20955 41.33743 0.0
C1498 C 1.17327 0.22265 41.06213 0.0
C1499 C 1.13466 0.21655 41.18911 0.0
C1500 C 1.01133 0.23139 37.83933 0.0
C1501 C 0.93063 0.20363 41.2999 0.0
C1502 C 0.97134 0.21035 41.31562 0.0
C1503 C 1.09083 0.22909 41.0657 0.0
C1504 C 1.04961 0.22264 41.16401 0.0
H1505 H 0.90288 0.16375 40.86385 0.0
H1506 H 0.96905 0.17492 40.9685 0.0
H1507 H 0.94412 0.2322 35.24041 0.0
H1508 H 1.12049 0.26856 40.50943 0.0
H1509 H 1.05353 0.25796 40.82427 0.0
C1510 C 0.83669 0.25703 120.06156 0.0
C1511 C 0.811 0.24457 120.05479 0.0
C1512 C 0.88417 0.25084 119.98563 0.0
C1513 C 0.98168 0.21014 116.66136 0.0
H1514 H 1.04904 0.23549 125.82329 0.0
C1515 C 1.17521 0.18121 120.45622 0.0
C1516 C 1.20121 0.19356 120.29526 0.0
C1517 C 1.12776 0.18753 120.31016 0.0
C1518 C 1.03078 0.22838 123.18898 0.0
H1519 H 0.8155 0.21573 119.95616 0.0
H1520 H 0.89825 0.20494 119.90812 0.0
H1521 H 0.96631 0.24612 125.82866 0.0
H1522 H 1.19729 0.22231 119.83622 0.0
H1523 H 1.11449 0.2333 119.57145 0.0
H1524 H 1.04628 0.19229 114.06908 0.0
C1525 C 0.88164 0.21954 119.88392 0.0
C1526 C 0.98327 0.23448 123.18675 0.0
C1527 C 0.83409 0.22573 119.94305 0.0
C1528 C 1.17845 0.2124 119.9753 0.0
C1529 C 1.13092 0.21872 119.85599 0.0
C1530 C 1.02921 0.20399 116.68035 0.0
C1531 C 0.90734 0.23201 119.92035 0.0
C1532 C 0.95804 0.22545 119.9214 0.0
C1533 C 1.10498 0.20635 120.02293 0.0
C1534 C 1.05437 0.21303 119.94606 0.0
H1535 H 0.82019 0.27164 120.11389 0.0
H1536 H 0.9027 0.26086 119.91875 0.0
H1537 H 0.9635 0.20301 114.02092 0.0
H1538 H 1.19144 0.16661 120.70741 0.0
H1539 H 1.10887 0.17763 120.51614 0.0
C1540 C 0.84269 0.21298 283.3094 0.0
C1541 C 0.84682 0.1942 283.53174 0.0
C1542 C 0.88138 0.219 283.18604 0.0
C1543 C 1.00467 0.20377 286.45041 0.0
H1544 H 1.00673 0.24523 277.04748 0.0
C1545 C 1.1676 0.22534 282.76057 0.0
C1546 C 1.16271 0.24417 283.166 0.0
C1547 C 1.12936 0.21902 282.72568 0.0
C1548 C 1.00652 0.23371 279.72715 0.0
H1549 H 0.89501 0.167 283.70306 0.0
H1550 H 0.96216 0.17746 283.37719 0.0
H1551 H 0.9393 0.23473 277.12021 0.0
H1552 H 1.11361 0.2711 283.81866 0.0
H1553 H 1.04725 0.26005 283.75378 0.0
H1554 H 1.07211 0.20271 289.01452 0.0
C1555 C 0.92911 0.18759 283.42431 0.0
C1556 C 0.96784 0.22772 279.7833 0.0
C1557 C 0.89049 0.18159 283.57901 0.0
C1558 C 1.11874 0.2565 283.50708 0.0
C1559 C 1.0806 0.25019 283.43131 0.0
C1560 C 1.04344 0.2097 286.36691 0.0
C1561 C 0.92509 0.20637 283.25095 0.0
C1562 C 0.96635 0.21271 283.16014 0.0
C1563 C 1.08545 0.23139 283.04701 0.0
C1564 C 1.04472 0.22478 283.02304 0.0
H1565 H 0.80959 0.22308 283.29078 0.0
H1566 H 0.877 0.23357 283.13062 0.0
H1567 H 1.00448 0.19236 289.17498 0.0
H1568 H 1.20094 0.21546 282.48877 0.0
H1569 H 1.13413 0.20445 282.37839 0.0
C1570 C 0.84013 0.25478 204.51504 0.0
C1571 C 0.81517 0.24207 204.54738 0.0
C1572 C 0.88754 0.24888 204.63731 0.0
C1573 C 0.98521 0.20937 201.20989 0.0
H1574 H 1.05172 0.2331 211.1011 0.0
C1575 C 1.17817 0.18028 204.41744 0.0
C1576 C 1.20398 0.19264 204.79103 0.0
C1577 C 1.13082 0.18656 204.42265 0.0
C1578 C 1.0337 0.22649 208.25679 0.0
H1579 H 0.82064 0.21313 204.7648 0.0
H1580 H 0.90347 0.20285 204.96447 0.0
H1581 H 0.96886 0.2435 211.08899 0.0
H1582 H 1.20008 0.22135 205.45429 0.0
H1583 H 1.11728 0.23235 205.35617 0.0
H1584 H 1.0498 0.1925 198.31889 0.0
C1585 C 0.88623 0.2174 204.81161 0.0
C1586 C 0.98623 0.23242 208.26393 0.0
C1587 C 0.83876 0.2233 204.72929 0.0
C1588 C 1.18125 0.21145 205.17816 0.0
C1589 C 1.13376 0.21775 205.15328 0.0
C1590 C 1.03263 0.20352 201.17666 0.0
C1591 C 0.91111 0.23013 204.75677 0.0
C1592 C 0.96149 0.22387 204.75632 0.0
C1593 C 1.10798 0.20536 204.76604 0.0
C1594 C 1.05749 0.21193 204.71949 0.0
H1595 H 0.8231 0.26935 204.38658 0.0
H1596 H 0.90579 0.259 204.53718 0.0
H1597 H 0.96708 0.20273 198.39022 0.0
H1598 H 1.19446 0.16568 204.16255 0.0
H1599 H 1.11211 0.1766 204.22803 0.0
C1600 C 0.02752 0.33644 42.23861 0.0
C1601 C 0.05633 0.34409 39.07957 0.0
C1602 C 0.03649 0.31738 42.65434 0.0
C1603 C 0.10095 0.27382 35.49938 0.0
H1604 H 0.0801 0.25153 49.70035 0.0
C1605 C 0.16018 0.19498 38.86588 0.0
C1606 C 0.13197 0.18713 42.06222 0.0
C1607 C 0.15073 0.21406 38.47578 0.0
C1608 C 0.08563 0.2575 45.67228 0.0
H1609 H 0.11835 0.33738 34.06424 0.0
H1610 H 0.13384 0.30439 34.78486 0.0
H1611 H 0.06394 0.28465 49.13909 0.0
H1612 H 0.07062 0.1935 47.19872 0.0
H1613 H 0.0542 0.22656 46.51189 0.0
H1614 H 0.12258 0.24669 32.02771 0.0
C1615 C 0.10368 0.31309 36.84293 0.0
C1616 C 0.07633 0.27657 45.35203 0.0
C1617 C 0.09475 0.33209 36.4318 0.0
C1618 C 0.09375 0.19896 44.7963 0.0
C1619 C 0.08429 0.218 44.40318 0.0
C1620 C 0.11021 0.25476 35.81787 0.0
C1621 C 0.07457 0.30541 39.92672 0.0
C1622 C 0.08394 0.28504 40.26428 0.0
C1623 C 0.11271 0.22588 41.26033 0.0
C1624 C 0.10277 0.24628 40.91152 0.0
H1625 H -0.00264 0.34518 44.285 0.0
H1626 H 0.01296 0.31204 45.01651 0.0
H1627 H 0.10653 0.2798 31.47345 0.0
H1628 H 0.19019 0.18638 36.75381 0.0
H1629 H 0.17381 0.21954 36.07549 0.0
C1630 C 1.9977 0.09968 40.41712 0.0
C1631 C 1.96656 0.09159 37.95909 0.0
C1632 C 1.98793 0.11877 40.74201 0.0
C1633 C 1.91397 0.16223 34.57154 0.0
H1634 H 1.94495 0.18374 48.40667 0.0
C1635 C 1.85326 0.24076 38.7817 0.0
C1636 C 1.88322 0.24861 41.62243 0.0
C1637 C 1.86345 0.22169 38.22414 0.0
C1638 C 1.93654 0.17801 44.47399 0.0
H1639 H 1.90025 0.09761 33.96379 0.0
H1640 H 1.88357 0.13073 34.48165 0.0
H1641 H 1.96315 0.15062 47.60433 0.0
H1642 H 1.94834 0.24234 45.91869 0.0
H1643 H 1.96612 0.20932 44.92559 0.0
H1644 H 1.88747 0.18964 31.43293 0.0
C1645 C 1.91588 0.1223 36.09576 0.0
C1646 C 1.94702 0.15894 44.01597 0.0
C1647 C 1.92556 0.10322 35.78848 0.0
C1648 C 1.92392 0.23684 43.81115 0.0
C1649 C 1.93414 0.21782 43.24326 0.0
C1650 C 1.90359 0.18132 35.02251 0.0
C1651 C 1.94679 0.13037 38.60522 0.0
C1652 C 1.93591 0.15075 39.05919 0.0
C1653 C 1.90397 0.20992 40.4745 0.0
C1654 C 1.91475 0.18952 39.98106 0.0
H1655 H 2.02993 0.09126 42.05615 0.0
H1656 H 2.01293 0.12444 42.62238 0.0
H1657 H 1.9054 0.15645 30.65637 0.0
H1658 H 1.8214 0.24933 37.09044 0.0
H1659 H 1.83903 0.21617 36.12587 0.0
C1660 C 0.25851 0.10675 125.74504 0.0
C1661 C 0.24332 0.09495 122.16453 0.0
C1662 C 0.24111 0.12578 125.22042 0.0
C1663 C 0.17938 0.16267 115.27562 0.0
H1664 H 0.15536 0.1921 129.06997 0.0
C1665 C 0.08276 0.24024 114.8515 0.0
C1666 C 0.09725 0.25192 118.55712 0.0
C1667 C 0.1008 0.22119 115.25256 0.0
C1668 C 0.16237 0.18415 125.16452 0.0
H1669 H 0.19775 0.09421 115.17497 0.0
H1670 H 0.16742 0.1274 114.25138 0.0
H1671 H 0.18602 0.15896 129.77935 0.0
H1672 H 0.14277 0.25243 125.57456 0.0
H1673 H 0.17423 0.21926 126.27223 0.0
H1674 H 0.1557 0.18787 110.66149 0.0
C1675 C 0.19323 0.12188 117.44329 0.0
C1676 C 0.17999 0.16508 125.57147 0.0
C1677 C 0.21067 0.1028 117.97139 0.0
C1678 C 0.13028 0.24393 122.6933 0.0
C1679 C 0.14836 0.22486 123.0943 0.0
C1680 C 0.16177 0.18175 114.86805 0.0
C1681 C 0.20797 0.13366 121.09037 0.0
C1682 C 0.18883 0.15403 120.63441 0.0
C1683 C 0.1339 0.21319 119.37624 0.0
C1684 C 0.15299 0.19279 119.80718 0.0
H1685 H 0.28432 0.10128 128.94218 0.0
H1686 H 0.25408 0.13433 128.02704 0.0
H1687 H 0.18633 0.1547 111.37394 0.0
H1688 H 0.05677 0.2458 111.68446 0.0
H1689 H 0.08812 0.21272 112.382 0.0
C1690 C 1.91893 0.19467 124.81243 0.0
C1691 C 1.92197 0.18619 119.42029 0.0
C1692 C 1.90089 0.21372 125.37764 0.0
C1693 C 1.83054 0.25531 117.69943 0.0
H1694 H 1.88608 0.28116 128.33623 0.0
C1695 C 1.78795 0.33431 117.53376 0.0
C1696 C 1.78236 0.34346 122.83029 0.0
C1697 C 1.80474 0.31519 117.24231 0.0
C1698 C 1.86982 0.27416 125.38517 0.0
H1699 H 1.90686 0.19136 110.41498 0.0
H1700 H 1.87668 0.22438 111.3719 0.0
H1701 H 1.91475 0.24791 127.63732 0.0
H1702 H 1.79117 0.33944 131.97664 0.0
H1703 H 1.82029 0.30611 131.47062 0.0
H1704 H 1.78596 0.28158 115.40605 0.0
C1705 C 1.8878 0.21634 115.19306 0.0
C1706 C 1.88624 0.25502 124.9896 0.0
C1707 C 1.90575 0.19733 114.6307 0.0
C1708 C 1.79466 0.3329 127.82527 0.0
C1709 C 1.81176 0.31376 127.53058 0.0
C1710 C 1.81429 0.27443 118.07797 0.0
C1711 C 1.88528 0.22487 120.5691 0.0
C1712 C 1.86698 0.24529 121.12025 0.0
C1713 C 1.8167 0.30461 122.23564 0.0
C1714 C 1.8338 0.28416 121.90688 0.0
H1715 H 1.93138 0.18663 128.5986 0.0
H1716 H 1.89905 0.21968 129.60172 0.0
H1717 H 1.81412 0.24837 114.75004 0.0
H1718 H 1.7784 0.3419 113.59824 0.0
H1719 H 1.80855 0.30869 113.08308 0.0
C1720 C 1.94638 0.10795 281.17935 0.0
C1721 C 1.95472 0.0987 286.44968 0.0
C1722 C 1.93534 0.12707 280.93167 0.0
C1723 C 1.94156 0.16789 289.16345 0.0
H1724 H 1.84835 0.19406 278.57927 0.0
C1725 C 1.87581 0.24743 288.72776 0.0
C1726 C 1.8672 0.25592 283.33754 0.0
C1727 C 1.88504 0.2284 289.26945 0.0
C1728 C 1.87484 0.18701 281.51807 0.0
H1729 H 1.95869 0.10255 295.59565 0.0
H1730 H 1.93914 0.13587 295.16811 0.0
H1731 H 1.86812 0.16085 279.17184 0.0
H1732 H 1.8602 0.25082 274.31203 0.0
H1733 H 1.87713 0.21784 275.23255 0.0
H1734 H 1.94857 0.19404 291.47481 0.0
C1735 C 1.94134 0.1283 291.21235 0.0
C1736 C 1.8862 0.16789 281.85827 0.0
C1737 C 1.95216 0.10916 291.46295 0.0
C1738 C 1.86726 0.24483 278.52728 0.0
C1739 C 1.87645 0.22585 279.06712 0.0
C1740 C 1.93028 0.18702 288.81165 0.0
C1741 C 1.93245 0.13756 285.94413 0.0
C1742 C 1.9199 0.15802 285.66383 0.0
C1743 C 1.8858 0.21729 284.43931 0.0
C1744 C 1.89689 0.19688 284.96047 0.0
H1745 H 1.94748 0.10044 277.2307 0.0
H1746 H 1.92929 0.13364 276.7895 0.0
H1747 H 1.96805 0.16079 292.0966 0.0
H1748 H 1.87645 0.25544 292.52815 0.0
H1749 H 1.89148 0.2224 293.48967 0.0
C1750 C 0.09238 0.19535 281.21861 0.0
C1751 C 0.13371 0.18346 283.19861 0.0
C1752 C 0.08279 0.21435 281.75178 0.0
C1753 C 0.11705 0.25079 289.5247 0.0
H1754 H 0.054 0.28127 277.08848 0.0
C1755 C 0.09537 0.32891 288.34337 0.0
C1756 C 0.0538 0.34049 286.30196 0.0
C1757 C 0.10487 0.30982 288.13393 0.0
C1758 C 0.07113 0.27302 280.63839 0.0
H1759 H 0.19721 0.18251 287.35217 0.0
H1760 H 0.18061 0.21566 288.26419 0.0
H1761 H 0.0714 0.24816 276.40957 0.0
H1762 H -0.01077 0.34071 282.56754 0.0
H1763 H 0.00591 0.30754 282.16955 0.0
H1764 H 0.11701 0.27573 293.72766 0.0
C1765 C 0.15529 0.21024 286.34716 0.0
C1766 C 0.08115 0.25395 280.25106 0.0
C1767 C 0.16488 0.19118 285.82103 0.0
C1768 C 0.02191 0.33234 284.09195 0.0
C1769 C 0.03149 0.31325 283.86423 0.0
C1770 C 0.10712 0.26989 289.90533 0.0
C1771 C 0.11421 0.22213 284.27961 0.0
C1772 C 0.10412 0.24252 284.69461 0.0
C1773 C 0.07321 0.30169 285.85451 0.0
C1774 C 0.08388 0.28129 285.47309 0.0
H1775 H 0.06704 0.18996 279.29148 0.0
H1776 H 0.05037 0.22294 280.22383 0.0
H1777 H 0.13419 0.24253 293.07243 0.0
H1778 H 0.12122 0.33457 289.98227 0.0
H1779 H 0.1376 0.30143 289.63474 0.0
C1780 C 1.78923 0.3282 206.82438 0.0
C1781 C 1.784 0.33746 201.5556 0.0
C1782 C 1.80604 0.30907 207.06587 0.0
C1783 C 1.87166 0.26824 198.8169 0.0
H1784 H 1.81654 0.24214 209.42133 0.0
C1785 C 1.92194 0.1887 199.27466 0.0
C1786 C 1.92568 0.18023 204.66823 0.0
C1787 C 1.90341 0.20774 198.72747 0.0
C1788 C 1.83277 0.24917 206.47677 0.0
H1789 H 1.79342 0.33363 192.40524 0.0
H1790 H 1.82244 0.3003 192.82244 0.0
H1791 H 1.78791 0.27535 208.82828 0.0
H1792 H 1.91119 0.18536 213.69393 0.0
H1793 H 1.88001 0.21835 212.76401 0.0
H1794 H 1.91682 0.24206 196.50171 0.0
C1795 C 1.81367 0.30786 196.78131 0.0
C1796 C 1.81627 0.26829 206.1361 0.0
C1797 C 1.7966 0.32701 196.53689 0.0
C1798 C 1.90953 0.19134 209.47619 0.0
C1799 C 1.89104 0.21033 208.93094 0.0
C1800 C 1.88828 0.2491 199.16974 0.0
C1801 C 1.81834 0.2986 202.04853 0.0
C1802 C 1.8356 0.27813 202.32421 0.0
C1803 C 1.88793 0.21886 203.55535 0.0
C1804 C 1.86926 0.23927 203.02911 0.0
H1805 H 1.77945 0.33571 210.77707 0.0
H1806 H 1.80963 0.30249 211.20697 0.0
H1807 H 1.8878 0.27532 195.87804 0.0
H1808 H 1.93429 0.18067 195.47587 0.0
H1809 H 1.90113 0.21372 194.50494 0.0
C1810 C 0.19159 0.10289 203.48778 0.0
C1811 C 0.23746 0.09477 202.0104 0.0
C1812 C 0.17312 0.12199 203.70657 0.0
C1813 C 0.19218 0.16552 198.77605 0.0
H1814 H 0.10917 0.18693 211.07601 0.0
C1815 C 0.13078 0.24412 203.09063 0.0
C1816 C 0.08567 0.25186 204.93314 0.0
C1817 C 0.14941 0.22505 202.59079 0.0
C1818 C 0.13182 0.18123 207.56149 0.0
H1819 H 0.29972 0.10076 199.65394 0.0
H1820 H 0.26751 0.13388 199.99051 0.0
H1821 H 0.14067 0.15382 210.44168 0.0
H1822 H 0.0244 0.2454 207.45799 0.0
H1823 H 0.05658 0.21243 206.57249 0.0
H1824 H 0.18324 0.19297 195.89364 0.0
C1825 C 0.24558 0.12547 200.90916 0.0
C1826 C 0.14996 0.16216 207.19898 0.0
C1827 C 0.26409 0.10639 200.70615 0.0
C1828 C 0.05955 0.24 206.1511 0.0
C1829 C 0.0781 0.221 205.64569 0.0
C1830 C 0.17394 0.18462 199.13212 0.0
C1831 C 0.19987 0.13358 202.44344 0.0
C1832 C 0.18038 0.15399 202.79823 0.0
C1833 C 0.12344 0.21318 203.90573 0.0
C1834 C 0.14338 0.19278 203.52589 0.0
H1835 H 0.16968 0.0945 204.43157 0.0
H1836 H 0.13761 0.12767 204.8127 0.0
H1837 H 0.215 0.15978 195.28095 0.0
H1838 H 0.15213 0.25275 202.16454 0.0
H1839 H 0.18457 0.21961 201.29644 0.0
C1840 C 1.15081 0.40367 37.73545 0.0
C1841 C 1.17882 0.39385 42.11857 0.0
C1842 C 1.14018 0.42278 37.42488 0.0
C1843 C 1.48453 0.0408 42.49341 0.0
H1844 H 1.36195 0.06881 38.38621 0.0
C1845 C 1.42307 0.12024 43.70965 0.0
C1846 C 1.39535 0.12958 39.23041 0.0
C1847 C 1.43365 0.10116 44.21885 0.0
C1848 C 1.39649 0.06123 39.48285 0.0
H1849 H 1.2185 0.39664 49.52963 0.0
H1850 H 1.5068 0.00835 49.03993 0.0
H1851 H 1.38207 0.03557 38.8429 0.0
H1852 H 1.35591 0.12601 31.8838 0.0
H1853 H 1.37484 0.0929 32.7113 0.0
H1854 H 1.49895 0.06649 43.12043 0.0
C1855 C 1.18588 0.4228 45.81122 0.0
C1856 C 1.40809 0.0421 39.73892 0.0
C1857 C 1.19643 0.4037 46.12884 0.0
C1858 C 1.37782 0.11932 35.34765 0.0
C1859 C 1.38829 0.10029 35.86246 0.0
C1860 C 1.47293 0.05995 42.23549 0.0
C1861 C 1.46464 0.01112 41.48002 0.0
C1862 C 1.45232 0.03158 41.22901 0.0
C1863 C 1.41663 0.09088 40.27938 0.0
C1864 C 1.42877 0.07046 40.70623 0.0
H1865 H 1.1362 0.39664 34.60103 0.0
H1866 H 1.42591 0.00828 33.98125 0.0
H1867 H 1.51908 0.03321 43.58189 0.0
H1868 H 1.43751 0.12762 46.75634 0.0
H1869 H 1.45512 0.09447 47.71875 0.0
C1870 C 0.64266 0.30977 43.54265 0.0
C1871 C 0.62247 0.30193 39.23389 0.0
C1872 C 0.63263 0.32885 44.05158 0.0
C1873 C 0.5861 0.37198 35.77153 0.0
H1874 H 0.57381 0.39508 50.67515 0.0
C1875 C 0.82893 0.02944 38.51602 0.0
C1876 C 0.84939 0.03742 42.76118 0.0
C1877 C 0.83846 0.01037 38.11715 0.0
C1878 C 0.57762 0.38887 46.47176 0.0
H1879 H 0.57437 0.30833 32.21935 0.0
H1880 H 0.55703 0.34136 33.10242 0.0
H1881 H 0.59099 0.36192 49.98021 0.0
H1882 H 0.89696 0.03125 49.83362 0.0
H1883 H 0.6061 0.41971 49.14259 0.0
H1884 H 0.57281 0.39891 32.26011 0.0
C1885 C 0.58145 0.33279 36.01916 0.0
C1886 C 0.58752 0.36979 46.0738 0.0
C1887 C 0.59144 0.31377 35.51292 0.0
C1888 C 0.87978 0.02571 46.5776 0.0
C1889 C 0.88929 0.00667 46.17993 0.0
C1890 C 0.57622 0.39105 36.16914 0.0
C1891 C 0.60208 0.34066 40.27011 0.0
C1892 C 0.59185 0.36104 40.71636 0.0
C1893 C 0.56144 0.42021 41.94771 0.0
C1894 C 0.57179 0.39981 41.52482 0.0
H1895 H 0.66707 0.30116 46.45131 0.0
H1896 H 0.64963 0.33433 47.34087 0.0
H1897 H 0.58994 0.36579 31.56659 0.0
H1898 H 0.80492 0.03795 35.5451 0.0
H1899 H 0.51411 0.42633 34.85077 0.0
C1900 C 1.46347 0.0307 114.95093 0.0
C1901 C 1.43238 0.04066 119.0484 0.0
C1902 C 1.48082 0.0116 115.28796 0.0
C1903 C 1.1494 0.39243 121.69469 0.0
H1904 H 1.27496 0.36791 117.81477 0.0
C1905 C 1.23292 0.31519 126.03797 0.0
C1906 C 1.26443 0.30487 122.04842 0.0
C1907 C 1.2155 0.33423 125.52299 0.0
C1908 C 1.23963 0.37448 118.84216 0.0
H1909 H 1.39551 0.03804 126.74317 0.0
H1910 H 1.11904 0.4264 127.39501 0.0
H1911 H 1.24641 0.40118 117.32513 0.0
H1912 H 1.30183 0.30674 114.33323 0.0
H1913 H 1.27084 0.33989 113.37407 0.0
H1914 H 1.1426 0.36575 123.21913 0.0
C1915 C 1.43696 0.01182 123.86787 0.0
C1916 C 1.22322 0.39363 118.56743 0.0
C1917 C 1.41967 0.03093 123.5368 0.0
C1918 C 1.2774 0.31416 117.46603 0.0
C1919 C 1.26002 0.33324 116.95654 0.0
C1920 C 1.1658 0.37329 121.96857 0.0
C1921 C 1.16025 0.42337 119.72832 0.0
C1922 C 1.17787 0.40291 120.00673 0.0
C1923 C 1.229 0.34358 120.99932 0.0
C1924 C 1.21121 0.36401 120.56491 0.0
H1925 H 1.47452 0.03767 111.46631 0.0
H1926 H 1.19667 0.42598 111.99148 0.0
H1927 H 1.11409 0.39899 122.73151 0.0
H1928 H 1.22162 0.30855 129.58532 0.0
H1929 H 1.19206 0.34165 128.75432 0.0
C1930 C 0.54458 0.40503 121.87445 0.0
C1931 C 0.58202 0.39715 118.29821 0.0
C1932 C 0.52643 0.42412 122.31625 0.0
C1933 C 0.83092 0.04609 114.84145 0.0
H1934 H 0.78779 0.06821 129.4789 0.0
C1935 C 0.77885 0.12493 118.53959 0.0
C1936 C 0.74139 0.1327 122.12623 0.0
C1937 C 0.7966 0.10585 117.98146 0.0
C1938 C 0.79915 0.06229 125.33578 0.0
H1939 H 0.63031 0.40347 112.50499 0.0
H1940 H 0.90627 0.015 113.28202 0.0
H1941 H 0.8189 0.03509 128.73946 0.0
H1942 H 0.69232 0.1262 127.75573 0.0
H1943 H 0.72309 0.09318 126.79002 0.0
H1944 H 0.81126 0.07333 111.44592 0.0
C1945 C 0.58285 0.428 115.66047 0.0
C1946 C 0.81705 0.04321 124.9104 0.0
C1947 C 0.60093 0.40895 115.21504 0.0
C1948 C 0.72179 0.12081 125.05205 0.0
C1949 C 0.73951 0.10179 124.49893 0.0
C1950 C 0.81306 0.06518 115.26883 0.0
C1951 C 0.85256 0.01438 119.20547 0.0
C1952 C 0.83321 0.03479 119.65628 0.0
C1953 C 0.7774 0.09398 120.99071 0.0
C1954 C 0.79682 0.07358 120.52181 0.0
H1955 H 0.52868 0.39645 124.26326 0.0
H1956 H 0.80442 0.00809 125.03083 0.0
H1957 H 0.84228 0.04018 110.69839 0.0
H1958 H 0.79524 0.13357 116.26339 0.0
H1959 H 0.82609 0.10041 115.28568 0.0
C1960 C 0.64514 0.31548 283.02823 0.0
C1961 C 0.61468 0.30779 285.833 0.0
C1962 C 0.63608 0.33455 282.61372 0.0
C1963 C 0.56595 0.37835 289.19475 0.0
H1964 H 0.5968 0.40009 275.40591 0.0
C1965 C 0.81596 0.0356 285.42232 0.0
C1966 C 0.84633 0.04333 282.61091 0.0
C1967 C 0.82525 0.01652 285.86573 0.0
C1968 C 0.5884 0.39428 279.32358 0.0
H1969 H 0.54981 0.31444 290.22846 0.0
H1970 H 0.53411 0.34745 289.49996 0.0
H1971 H 0.61295 0.36699 276.01943 0.0
H1972 H 0.91132 0.03672 278.24508 0.0
H1973 H 0.62005 0.42524 279.01752 0.0
H1974 H 0.54138 0.40565 292.49689 0.0
C1975 C 0.56558 0.33879 287.72453 0.0
C1976 C 0.59772 0.37521 279.67566 0.0
C1977 C 0.57463 0.31977 288.13968 0.0
C1978 C 0.88654 0.03138 280.33124 0.0
C1979 C 0.89581 0.01235 280.77433 0.0
C1980 C 0.55662 0.39742 288.84219 0.0
C1981 C 0.59623 0.34652 284.98286 0.0
C1982 C 0.58661 0.36692 284.61465 0.0
C1983 C 0.5579 0.42612 283.51892 0.0
C1984 C 0.5677 0.40571 283.90069 0.0
H1985 H 0.67657 0.30678 281.25673 0.0
H1986 H 0.66085 0.33991 280.53112 0.0
H1987 H 0.55755 0.37254 293.11199 0.0
H1988 H 0.78444 0.04428 287.17959 0.0
H1989 H 0.80055 0.01114 287.95204 0.0
C1990 C 1.39298 0.1208 290.57501 0.0
C1991 C 1.38934 0.13113 285.52138 0.0
C1992 C 1.40337 0.10165 290.37577 0.0
C1993 C 1.4553 0.06169 280.9545 0.0
H1994 H 1.39486 0.03606 291.02815 0.0
C1995 C 1.16465 0.4063 277.91399 0.0
C1996 C 1.16573 0.39532 282.77145 0.0
C1997 C 1.15585 0.42529 278.4078 0.0
C1998 C 1.41261 0.04292 288.23318 0.0
H1999 H 1.39429 0.12911 276.28348 0.0
H2000 H 1.41176 0.09592 275.9346 0.0
H2001 H 1.37632 0.06931 291.58298 0.0
H2002 H 1.15865 0.39602 291.99664 0.0
H2003 H 1.1443 0.42906 292.87333 0.0
H2004 H 1.49169 0.03539 277.61103 0.0
C2005 C 1.40687 0.10259 280.0685 0.0
C2006 C 1.40187 0.06207 288.5474 0.0
C2007 C 1.39624 0.12172 280.26588 0.0
C2008 C 1.15848 0.40393 288.1577 0.0
C2009 C 1.14963 0.42298 288.65329 0.0
C2010 C 1.46613 0.04258 280.65172 0.0
C2011 C 1.41078 0.09224 285.11866 0.0
C2012 C 1.42283 0.07176 284.88443 0.0
C2013 C 1.45526 0.01245 283.77952 0.0
C2014 C 1.44475 0.03287 284.25691 0.0
H2015 H 1.38757 0.12753 294.70066 0.0
H2016 H 1.40639 0.0942 294.35941 0.0
H2017 H 1.47286 0.06858 278.13739 0.0
H2018 H 1.17065 0.40022 273.69631 0.0
H2019 H 1.46174 0.01167 274.54054 0.0
C2020 C 0.55272 0.40013 202.46643 0.0
C2021 C 0.59169 0.39234 205.79197 0.0
C2022 C 0.53438 0.41921 202.01792 0.0
C2023 C 0.84176 0.04131 209.20974 0.0
H2024 H 0.79231 0.06326 194.80434 0.0
C2025 C 0.78706 0.12014 205.57104 0.0
C2026 C 0.74822 0.12787 202.21789 0.0
C2027 C 0.80532 0.10106 206.06124 0.0
C2028 C 0.80546 0.05739 198.88706 0.0
H2029 H 0.64253 0.39885 211.10391 0.0
H2030 H 0.9181 0.01035 210.32363 0.0
H2031 H 0.82394 0.03015 195.49459 0.0
H2032 H 0.6974 0.12129 196.92172 0.0
H2033 H 0.729 0.08827 197.77892 0.0
H2034 H 0.82329 0.06856 212.6006 0.0
C2035 C 0.59367 0.42327 208.15337 0.0
C2036 C 0.82366 0.03832 199.28301 0.0
C2037 C 0.61197 0.40424 208.60152 0.0
C2038 C 0.72787 0.11593 199.44518 0.0
C2039 C 0.74608 0.0969 199.93482 0.0
C2040 C 0.82356 0.06039 208.81362 0.0
C2041 C 0.86181 0.00956 204.87436 0.0
C2042 C 0.84212 0.02996 204.45068 0.0
C2043 C 0.78527 0.08914 203.21978 0.0
C2044 C 0.80505 0.06874 203.64712 0.0
H2045 H 0.53577 0.39148 200.29143 0.0
H2046 H 0.50387 0.42463 199.51053 0.0
H2047 H 0.85493 0.03544 213.29145 0.0
H2048 H 0.80405 0.12881 207.71865 0.0
H2049 H 0.83581 0.09567 208.5764 0.0
C2050 C 1.25453 0.31591 197.5657 0.0
C2051 C 1.26596 0.30559 202.61999 0.0
C2052 C 1.23698 0.33506 197.76286 0.0
C2053 C 1.23057 0.37502 207.17268 0.0
H2054 H 1.13279 0.40068 197.10136 0.0
C2055 C 1.4424 0.03045 210.18628 0.0
C2056 C 1.42754 0.04142 205.32385 0.0
C2057 C 1.46129 0.01146 209.7009 0.0
C2058 C 1.16055 0.39381 199.89554 0.0
H2059 H 1.26793 0.30761 211.85698 0.0
H2060 H 1.23694 0.34081 212.2025 0.0
H2061 H 1.16274 0.36743 196.55735 0.0
H2062 H 1.42162 0.04068 196.09914 0.0
H2063 H 1.45544 0.00763 195.23715 0.0
H2064 H 1.2286 0.40132 210.50479 0.0
C2065 C 1.24181 0.33413 208.06961 0.0
C2066 C 1.17772 0.37466 199.5876 0.0
C2067 C 1.25909 0.315 207.87432 0.0
C2068 C 1.43293 0.03278 199.94147 0.0
C2069 C 1.45185 0.01373 199.45437 0.0
C2070 C 1.21353 0.39414 207.46947 0.0
C2071 C 1.23064 0.34448 203.01847 0.0
C2072 C 1.2128 0.36496 203.24929 0.0
C2073 C 1.15877 0.42428 204.33305 0.0
C2074 C 1.17802 0.40385 203.8643 0.0
H2075 H 1.25895 0.30918 193.44098 0.0
H2076 H 1.22913 0.34251 193.7785 0.0
H2077 H 1.25816 0.36812 209.98857 0.0
H2078 H 1.43946 0.03655 214.40111 0.0
H2079 H 1.16398 0.42509 213.57143 0.0
loop_
_geom_bond_atom_site_label_1
_geom_bond_atom_site_label_2
_geom_bond_distance
_geom_bond_site_symmetry_2
_ccdc_geom_bond_type
Tb0 C10 2.825 1_545 S
Tb0 O11 2.347 . S
Tb0 O14 2.366 . S
Tb0 O19 2.418 . S
Tb0 O20 2.384 . S
Tb0 O23 2.479 1_545 S
Tb0 O24 2.471 1_545 S
Eu1 O12 2.418 . S
Eu1 O13 2.384 . S
Eu1 O16 2.479 . S
Eu1 O17 2.471 . S
Eu1 O18 2.347 . S
Eu1 O21 2.366 . S
Eu1 C31 2.825 . S
C2 O18 1.259 . S
C2 O19 1.265 . S
C3 O20 1.255 . S
C3 O21 1.265 . S
C4 C6 1.380 . S
C4 C7 1.374 . S
C4 C10 1.507 . S
C5 C6 1.384 . S
C5 C9 1.387 . S
C5 H32 0.930 . S
C6 C4 1.380 . S
C6 C5 1.384 . S
C6 H33 0.931 . S
C7 C4 1.374 . S
C7 C8 1.390 . S
C7 H34 0.930 . S
C8 C7 1.390 . S
C8 C9 1.391 . S
C8 H35 0.930 . S
C9 C5 1.387 . S
C9 C8 1.391 . S
C10 Tb0 2.825 1_565 S
C10 C4 1.507 . S
C10 O23 1.238 . S
C10 O24 1.247 . S
O11 Tb0 2.347 . S
O11 C15 1.259 . S
O12 Eu1 2.418 . S
O12 C15 1.265 . S
O13 Eu1 2.384 . S
O13 C22 1.255 . S
O14 Tb0 2.366 . S
O14 C22 1.265 . S
C15 O11 1.259 . S
C15 O12 1.265 . S
O16 Eu1 2.479 . S
O16 C31 1.238 . S
O17 Eu1 2.471 . S
O17 C31 1.247 . S
O18 Eu1 2.347 . S
O18 C2 1.259 . S
O19 Tb0 2.418 . S
O19 C2 1.265 . S
O20 Tb0 2.384 . S
O20 C3 1.255 . S
O21 Eu1 2.366 . S
O21 C3 1.265 . S
C22 O13 1.255 . S
C22 O14 1.265 . S
O23 Tb0 2.479 1_565 S
O23 C10 1.238 . S
O24 Tb0 2.471 1_565 S
O24 C10 1.247 . S
C25 C28 1.380 . S
C25 C29 1.374 . S
C25 C31 1.507 . S
C26 C27 1.387 . S
C26 C30 1.391 . S
C27 C26 1.387 . S
C27 C28 1.384 . S
C27 H36 0.930 . S
C28 C25 1.380 . S
C28 C27 1.384 . S
C28 H37 0.931 . S
C29 C25 1.374 . S
C29 C30 1.390 . S
C29 H38 0.930 . S
C30 C26 1.391 . S
C30 C29 1.390 . S
C30 H39 0.930 . S
C31 Eu1 2.825 . S
C31 O16 1.238 . S
C31 O17 1.247 . S
C31 C25 1.507 . S
H32 C5 0.930 . S
H33 C6 0.931 . S
H34 C7 0.930 . S
H35 C8 0.930 . S
H36 C27 0.930 . S
H37 C28 0.931 . S
H38 C29 0.930 . S
H39 C30 0.930 . S
Tb40 C50 2.825 1_565 S
Tb40 O51 2.347 . S
Tb40 O54 2.366 . S
Tb40 O59 2.418 . S
Tb40 O60 2.384 . S
Tb40 O63 2.479 1_565 S
Tb40 O64 2.471 1_565 S
Eu41 O52 2.418 . S
Eu41 O53 2.384 . S
Eu41 O56 2.479 . S
Eu41 O57 2.471 . S
Eu41 O58 2.347 . S
Eu41 O61 2.366 . S
Eu41 C71 2.825 . S
C42 O58 1.259 . S
C42 O59 1.265 . S
C43 O60 1.255 . S
C43 O61 1.265 . S
C44 C46 1.380 . S
C44 C47 1.374 . S
C44 C50 1.507 . S
C45 C46 1.384 . S
C45 C49 1.387 . S
C45 H72 0.930 . S
C46 C44 1.380 . S
C46 C45 1.384 . S
C46 H73 0.931 . S
C47 C44 1.374 . S
C47 C48 1.390 . S
C47 H74 0.930 . S
C48 C47 1.390 . S
C48 C49 1.391 . S
C48 H75 0.930 . S
C49 C45 1.387 . S
C49 C48 1.391 . S
C50 Tb40 2.825 1_545 S
C50 C44 1.507 . S
C50 O63 1.238 . S
C50 O64 1.247 . S
O51 Tb40 2.347 . S
O51 C55 1.259 . S
O52 Eu41 2.418 . S
O52 C55 1.265 . S
O53 Eu41 2.384 . S
O53 C62 1.255 . S
O54 Tb40 2.366 . S
O54 C62 1.265 . S
C55 O51 1.259 . S
C55 O52 1.265 . S
O56 Eu41 2.479 . S
O56 C71 1.238 . S
O57 Eu41 2.471 . S
O57 C71 1.247 . S
O58 Eu41 2.347 . S
O58 C42 1.259 . S
O59 Tb40 2.418 . S
O59 C42 1.265 . S
O60 Tb40 2.384 . S
O60 C43 1.255 . S
O61 Eu41 2.366 . S
O61 C43 1.265 . S
C62 O53 1.255 . S
C62 O54 1.265 . S
O63 Tb40 2.479 1_545 S
O63 C50 1.238 . S
O64 Tb40 2.471 1_545 S
O64 C50 1.247 . S
C65 C68 1.380 . S
C65 C69 1.374 . S
C65 C71 1.507 . S
C66 C67 1.387 . S
C66 C70 1.391 . S
C67 C66 1.387 . S
C67 C68 1.384 . S
C67 H76 0.930 . S
C68 C65 1.380 . S
C68 C67 1.384 . S
C68 H77 0.931 . S
C69 C65 1.374 . S
C69 C70 1.390 . S
C69 H78 0.930 . S
C70 C66 1.391 . S
C70 C69 1.390 . S
C70 H79 0.930 . S
C71 Eu41 2.825 . S
C71 O56 1.238 . S
C71 O57 1.247 . S
C71 C65 1.507 . S
H72 C45 0.930 . S
H73 C46 0.931 . S
H74 C47 0.930 . S
H75 C48 0.930 . S
H76 C67 0.930 . S
H77 C68 0.931 . S
H78 C69 0.930 . S
H79 C70 0.930 . S
Tb80 C90 2.825 1_565 S
Tb80 O91 2.347 . S
Tb80 O94 2.366 . S
Tb80 O99 2.418 . S
Tb80 O100 2.384 . S
Tb80 O103 2.479 1_565 S
Tb80 O104 2.471 1_565 S
Eu81 O92 2.418 . S
Eu81 O93 2.384 . S
Eu81 O96 2.479 . S
Eu81 O97 2.471 . S
Eu81 O98 2.347 . S
Eu81 O101 2.366 . S
Eu81 C111 2.825 . S
C82 O98 1.259 . S
C82 O99 1.265 . S
C83 O100 1.255 . S
C83 O101 1.265 . S
C84 C86 1.380 . S
C84 C87 1.374 . S
C84 C90 1.507 . S
C85 C86 1.384 . S
C85 C89 1.387 . S
C85 H112 0.930 . S
C86 C84 1.380 . S
C86 C85 1.384 . S
C86 H113 0.931 . S
C87 C84 1.374 . S
C87 C88 1.390 . S
C87 H114 0.930 . S
C88 C87 1.390 . S
C88 C89 1.391 . S
C88 H115 0.930 . S
C89 C85 1.387 . S
C89 C88 1.391 . S
C90 Tb80 2.825 1_545 S
C90 C84 1.507 . S
C90 O103 1.238 . S
C90 O104 1.247 . S
O91 Tb80 2.347 . S
O91 C95 1.259 . S
O92 Eu81 2.418 . S
O92 C95 1.265 . S
O93 Eu81 2.384 . S
O93 C102 1.255 . S
O94 Tb80 2.366 . S
O94 C102 1.265 . S
C95 O91 1.259 . S
C95 O92 1.265 . S
O96 Eu81 2.479 . S
O96 C111 1.238 . S
O97 Eu81 2.471 . S
O97 C111 1.247 . S
O98 Eu81 2.347 . S
O98 C82 1.259 . S
O99 Tb80 2.418 . S
O99 C82 1.265 . S
O100 Tb80 2.384 . S
O100 C83 1.255 . S
O101 Eu81 2.366 . S
O101 C83 1.265 . S
C102 O93 1.255 . S
C102 O94 1.265 . S
O103 Tb80 2.479 1_545 S
O103 C90 1.238 . S
O104 Tb80 2.471 1_545 S
O104 C90 1.247 . S
C105 C108 1.380 . S
C105 C109 1.374 . S
C105 C111 1.507 . S
C106 C107 1.387 . S
C106 C110 1.391 . S
C107 C106 1.387 . S
C107 C108 1.384 . S
C107 H116 0.930 . S
C108 C105 1.380 . S
C108 C107 1.384 . S
C108 H117 0.931 . S
C109 C105 1.374 . S
C109 C110 1.390 . S
C109 H118 0.930 . S
C110 C106 1.391 . S
C110 C109 1.390 . S
C110 H119 0.930 . S
C111 Eu81 2.825 . S
C111 O96 1.238 . S
C111 O97 1.247 . S
C111 C105 1.507 . S
H112 C85 0.930 . S
H113 C86 0.931 . S
H114 C87 0.930 . S
H115 C88 0.930 . S
H116 C107 0.930 . S
H117 C108 0.931 . S
H118 C109 0.930 . S
H119 C110 0.930 . S
Tb120 C130 2.825 1_545 S
Tb120 O131 2.347 . S
Tb120 O134 2.366 . S
Tb120 O139 2.418 . S
Tb120 O140 2.384 . S
Tb120 O143 2.479 1_545 S
Tb120 O144 2.471 1_545 S
Eu121 O132 2.418 . S
Eu121 O133 2.384 . S
Eu121 O136 2.479 . S
Eu121 O137 2.471 . S
Eu121 O138 2.347 . S
Eu121 O141 2.366 . S
Eu121 C151 2.825 . S
C122 O138 1.259 . S
C122 O139 1.265 . S
C123 O140 1.255 . S
C123 O141 1.265 . S
C124 C126 1.380 . S
C124 C127 1.374 . S
C124 C130 1.507 . S
C125 C126 1.384 . S
C125 C129 1.387 . S
C125 H152 0.930 . S
C126 C124 1.380 . S
C126 C125 1.384 . S
C126 H153 0.931 . S
C127 C124 1.374 . S
C127 C128 1.390 . S
C127 H154 0.930 . S
C128 C127 1.390 . S
C128 C129 1.391 . S
C128 H155 0.930 . S
C129 C125 1.387 . S
C129 C128 1.391 . S
C130 Tb120 2.825 1_565 S
C130 C124 1.507 . S
C130 O143 1.238 . S
C130 O144 1.247 . S
O131 Tb120 2.347 . S
O131 C135 1.259 . S
O132 Eu121 2.418 . S
O132 C135 1.265 . S
O133 Eu121 2.384 . S
O133 C142 1.255 . S
O134 Tb120 2.366 . S
O134 C142 1.265 . S
C135 O131 1.259 . S
C135 O132 1.265 . S
O136 Eu121 2.479 . S
O136 C151 1.238 . S
O137 Eu121 2.471 . S
O137 C151 1.247 . S
O138 Eu121 2.347 . S
O138 C122 1.259 . S
O139 Tb120 2.418 . S
O139 C122 1.265 . S
O140 Tb120 2.384 . S
O140 C123 1.255 . S
O141 Eu121 2.366 . S
O141 C123 1.265 . S
C142 O133 1.255 . S
C142 O134 1.265 . S
O143 Tb120 2.479 1_565 S
O143 C130 1.238 . S
O144 Tb120 2.471 1_565 S
O144 C130 1.247 . S
C145 C148 1.380 . S
C145 C149 1.374 . S
C145 C151 1.507 . S
C146 C147 1.387 . S
C146 C150 1.391 . S
C147 C146 1.387 . S
C147 C148 1.384 . S
C147 H156 0.930 . S
C148 C145 1.380 . S
C148 C147 1.384 . S
C148 H157 0.931 . S
C149 C145 1.374 . S
C149 C150 1.390 . S
C149 H158 0.930 . S
C150 C146 1.391 . S
C150 C149 1.390 . S
C150 H159 0.930 . S
C151 Eu121 2.825 . S
C151 O136 1.238 . S
C151 O137 1.247 . S
C151 C145 1.507 . S
H152 C125 0.930 . S
H153 C126 0.931 . S
H154 C127 0.930 . S
H155 C128 0.930 . S
H156 C147 0.930 . S
H157 C148 0.931 . S
H158 C149 0.930 . S
H159 C150 0.930 . S
Tb160 C170 2.825 . S
Tb160 O171 2.347 . S
Tb160 O174 2.366 . S
Tb160 O179 2.418 . S
Tb160 O180 2.384 . S
Tb160 O183 2.479 . S
Tb160 O184 2.471 . S
Eu161 O172 2.418 . S
Eu161 O173 2.384 . S
Eu161 O176 2.479 1_565 S
Eu161 O177 2.471 1_565 S
Eu161 O178 2.347 . S
Eu161 O181 2.366 . S
Eu161 C191 2.825 1_565 S
C162 O178 1.259 . S
C162 O179 1.265 . S
C163 O180 1.255 . S
C163 O181 1.265 . S
C164 C166 1.380 . S
C164 C167 1.374 . S
C164 C170 1.507 . S
C165 C166 1.384 . S
C165 C169 1.387 . S
C165 H192 0.930 . S
C166 C164 1.380 . S
C166 C165 1.384 . S
C166 H193 0.931 . S
C167 C164 1.374 . S
C167 C168 1.390 . S
C167 H194 0.930 . S
C168 C167 1.390 . S
C168 C169 1.391 . S
C168 H195 0.930 . S
C169 C165 1.387 . S
C169 C168 1.391 . S
C170 Tb160 2.825 . S
C170 C164 1.507 . S
C170 O183 1.238 . S
C170 O184 1.247 . S
O171 Tb160 2.347 . S
O171 C175 1.259 . S
O172 Eu161 2.418 . S
O172 C175 1.265 . S
O173 Eu161 2.384 . S
O173 C182 1.255 . S
O174 Tb160 2.366 . S
O174 C182 1.265 . S
C175 O171 1.259 . S
C175 O172 1.265 . S
O176 Eu161 2.479 1_545 S
O176 C191 1.238 . S
O177 Eu161 2.471 1_545 S
O177 C191 1.247 . S
O178 Eu161 2.347 . S
O178 C162 1.259 . S
O179 Tb160 2.418 . S
O179 C162 1.265 . S
O180 Tb160 2.384 . S
O180 C163 1.255 . S
O181 Eu161 2.366 . S
O181 C163 1.265 . S
C182 O173 1.255 . S
C182 O174 1.265 . S
O183 Tb160 2.479 . S
O183 C170 1.238 . S
O184 Tb160 2.471 . S
O184 C170 1.247 . S
C185 C188 1.380 . S
C185 C189 1.374 . S
C185 C191 1.507 . S
C186 C187 1.387 . S
C186 C190 1.391 . S
C187 C186 1.387 . S
C187 C188 1.384 . S
C187 H196 0.930 . S
C188 C185 1.380 . S
C188 C187 1.384 . S
C188 H197 0.931 . S
C189 C185 1.374 . S
C189 C190 1.390 . S
C189 H198 0.930 . S
C190 C186 1.391 . S
C190 C189 1.390 . S
C190 H199 0.930 . S
C191 Eu161 2.825 1_545 S
C191 O176 1.238 . S
C191 O177 1.247 . S
C191 C185 1.507 . S
H192 C165 0.930 . S
H193 C166 0.931 . S
H194 C167 0.930 . S
H195 C168 0.930 . S
H196 C187 0.930 . S
H197 C188 0.931 . S
H198 C189 0.930 . S
H199 C190 0.930 . S
Tb200 C210 2.825 . S
Tb200 O211 2.347 . S
Tb200 O214 2.366 . S
Tb200 O219 2.418 . S
Tb200 O220 2.384 . S
Tb200 O223 2.479 . S
Tb200 O224 2.471 . S
Eu201 O212 2.418 . S
Eu201 O213 2.384 . S
Eu201 O216 2.479 1_545 S
Eu201 O217 2.471 1_545 S
Eu201 O218 2.347 . S
Eu201 O221 2.366 . S
Eu201 C231 2.825 1_545 S
C202 O218 1.259 . S
C202 O219 1.265 . S
C203 O220 1.255 . S
C203 O221 1.265 . S
C204 C206 1.380 . S
C204 C207 1.374 . S
C204 C210 1.507 . S
C205 C206 1.384 . S
C205 C209 1.387 . S
C205 H232 0.930 . S
C206 C204 1.380 . S
C206 C205 1.384 . S
C206 H233 0.931 . S
C207 C204 1.374 . S
C207 C208 1.390 . S
C207 H234 0.930 . S
C208 C207 1.390 . S
C208 C209 1.391 . S
C208 H235 0.930 . S
C209 C205 1.387 . S
C209 C208 1.391 . S
C210 Tb200 2.825 . S
C210 C204 1.507 . S
C210 O223 1.238 . S
C210 O224 1.247 . S
O211 Tb200 2.347 . S
O211 C215 1.259 . S
O212 Eu201 2.418 . S
O212 C215 1.265 . S
O213 Eu201 2.384 . S
O213 C222 1.255 . S
O214 Tb200 2.366 . S
O214 C222 1.265 . S
C215 O211 1.259 . S
C215 O212 1.265 . S
O216 Eu201 2.479 1_565 S
O216 C231 1.238 . S
O217 Eu201 2.471 1_565 S
O217 C231 1.247 . S
O218 Eu201 2.347 . S
O218 C202 1.259 . S
O219 Tb200 2.418 . S
O219 C202 1.265 . S
O220 Tb200 2.384 . S
O220 C203 1.255 . S
O221 Eu201 2.366 . S
O221 C203 1.265 . S
C222 O213 1.255 . S
C222 O214 1.265 . S
O223 Tb200 2.479 . S
O223 C210 1.238 . S
O224 Tb200 2.471 . S
O224 C210 1.247 . S
C225 C228 1.380 . S
C225 C229 1.374 . S
C225 C231 1.507 . S
C226 C227 1.387 . S
C226 C230 1.391 . S
C227 C226 1.387 . S
C227 C228 1.384 . S
C227 H236 0.930 . S
C228 C225 1.380 . S
C228 C227 1.384 . S
C228 H237 0.931 . S
C229 C225 1.374 . S
C229 C230 1.390 . S
C229 H238 0.930 . S
C230 C226 1.391 . S
C230 C229 1.390 . S
C230 H239 0.930 . S
C231 Eu201 2.825 1_565 S
C231 O216 1.238 . S
C231 O217 1.247 . S
C231 C225 1.507 . S
H232 C205 0.930 . S
H233 C206 0.931 . S
H234 C207 0.930 . S
H235 C208 0.930 . S
H236 C227 0.930 . S
H237 C228 0.931 . S
H238 C229 0.930 . S
H239 C230 0.930 . S
Tb240 C250 2.825 . S
Tb240 O251 2.347 . S
Tb240 O254 2.366 . S
Tb240 O259 2.418 . S
Tb240 O260 2.384 . S
Tb240 O263 2.479 . S
Tb240 O264 2.471 . S
Eu241 O252 2.418 . S
Eu241 O253 2.384 . S
Eu241 O256 2.479 1_545 S
Eu241 O257 2.471 1_545 S
Eu241 O258 2.347 . S
Eu241 O261 2.366 . S
Eu241 C271 2.825 1_545 S
C242 O258 1.259 . S
C242 O259 1.265 . S
C243 O260 1.255 . S
C243 O261 1.265 . S
C244 C246 1.380 . S
C244 C247 1.374 . S
C244 C250 1.507 . S
C245 C246 1.384 . S
C245 C249 1.387 . S
C245 H272 0.930 . S
C246 C244 1.380 . S
C246 C245 1.384 . S
C246 H273 0.931 . S
C247 C244 1.374 . S
C247 C248 1.390 . S
C247 H274 0.930 . S
C248 C247 1.390 . S
C248 C249 1.391 . S
C248 H275 0.930 . S
C249 C245 1.387 . S
C249 C248 1.391 . S
C250 Tb240 2.825 . S
C250 C244 1.507 . S
C250 O263 1.238 . S
C250 O264 1.247 . S
O251 Tb240 2.347 . S
O251 C255 1.259 . S
O252 Eu241 2.418 . S
O252 C255 1.265 . S
O253 Eu241 2.384 . S
O253 C262 1.255 . S
O254 Tb240 2.366 . S
O254 C262 1.265 . S
C255 O251 1.259 . S
C255 O252 1.265 . S
O256 Eu241 2.479 1_565 S
O256 C271 1.238 . S
O257 Eu241 2.471 1_565 S
O257 C271 1.247 . S
O258 Eu241 2.347 . S
O258 C242 1.259 . S
O259 Tb240 2.418 . S
O259 C242 1.265 . S
O260 Tb240 2.384 . S
O260 C243 1.255 . S
O261 Eu241 2.366 . S
O261 C243 1.265 . S
C262 O253 1.255 . S
C262 O254 1.265 . S
O263 Tb240 2.479 . S
O263 C250 1.238 . S
O264 Tb240 2.471 . S
O264 C250 1.247 . S
C265 C268 1.380 . S
C265 C269 1.374 . S
C265 C271 1.507 . S
C266 C267 1.387 . S
C266 C270 1.391 . S
C267 C266 1.387 . S
C267 C268 1.384 . S
C267 H276 0.930 . S
C268 C265 1.380 . S
C268 C267 1.384 . S
C268 H277 0.931 . S
C269 C265 1.374 . S
C269 C270 1.390 . S
C269 H278 0.930 . S
C270 C266 1.391 . S
C270 C269 1.390 . S
C270 H279 0.930 . S
C271 Eu241 2.825 1_565 S
C271 O256 1.238 . S
C271 O257 1.247 . S
C271 C265 1.507 . S
H272 C245 0.930 . S
H273 C246 0.931 . S
H274 C247 0.930 . S
H275 C248 0.930 . S
H276 C267 0.930 . S
H277 C268 0.931 . S
H278 C269 0.930 . S
H279 C270 0.930 . S
Tb280 C290 2.825 . S
Tb280 O291 2.347 . S
Tb280 O294 2.366 . S
Tb280 O299 2.418 . S
Tb280 O300 2.384 . S
Tb280 O303 2.479 . S
Tb280 O304 2.471 . S
Eu281 O292 2.418 . S
Eu281 O293 2.384 . S
Eu281 O296 2.479 1_565 S
Eu281 O297 2.471 1_565 S
Eu281 O298 2.347 . S
Eu281 O301 2.366 . S
Eu281 C311 2.825 1_565 S
C282 O298 1.259 . S
C282 O299 1.265 . S
C283 O300 1.255 . S
C283 O301 1.265 . S
C284 C286 1.380 . S
C284 C287 1.374 . S
C284 C290 1.507 . S
C285 C286 1.384 . S
C285 C289 1.387 . S
C285 H312 0.930 . S
C286 C284 1.380 . S
C286 C285 1.384 . S
C286 H313 0.931 . S
C287 C284 1.374 . S
C287 C288 1.390 . S
C287 H314 0.930 . S
C288 C287 1.390 . S
C288 C289 1.391 . S
C288 H315 0.930 . S
C289 C285 1.387 . S
C289 C288 1.391 . S
C290 Tb280 2.825 . S
C290 C284 1.507 . S
C290 O303 1.238 . S
C290 O304 1.247 . S
O291 Tb280 2.347 . S
O291 C295 1.259 . S
O292 Eu281 2.418 . S
O292 C295 1.265 . S
O293 Eu281 2.384 . S
O293 C302 1.255 . S
O294 Tb280 2.366 . S
O294 C302 1.265 . S
C295 O291 1.259 . S
C295 O292 1.265 . S
O296 Eu281 2.479 1_545 S
O296 C311 1.238 . S
O297 Eu281 2.471 1_545 S
O297 C311 1.247 . S
O298 Eu281 2.347 . S
O298 C282 1.259 . S
O299 Tb280 2.418 . S
O299 C282 1.265 . S
O300 Tb280 2.384 . S
O300 C283 1.255 . S
O301 Eu281 2.366 . S
O301 C283 1.265 . S
C302 O293 1.255 . S
C302 O294 1.265 . S
O303 Tb280 2.479 . S
O303 C290 1.238 . S
O304 Tb280 2.471 . S
O304 C290 1.247 . S
C305 C308 1.380 . S
C305 C309 1.374 . S
C305 C311 1.507 . S
C306 C307 1.387 . S
C306 C310 1.391 . S
C307 C306 1.387 . S
C307 C308 1.384 . S
C307 H316 0.930 . S
C308 C305 1.380 . S
C308 C307 1.384 . S
C308 H317 0.931 . S
C309 C305 1.374 . S
C309 C310 1.390 . S
C309 H318 0.930 . S
C310 C306 1.391 . S
C310 C309 1.390 . S
C310 H319 0.930 . S
C311 Eu281 2.825 1_545 S
C311 O296 1.238 . S
C311 O297 1.247 . S
C311 C305 1.507 . S
H312 C285 0.930 . S
H313 C286 0.931 . S
H314 C287 0.930 . S
H315 C288 0.930 . S
H316 C307 0.930 . S
H317 C308 0.931 . S
H318 C309 0.930 . S
H319 C310 0.930 . S
Tb320 C330 2.825 . S
Tb320 O331 2.347 . S
Tb320 O334 2.366 . S
Tb320 O339 2.418 . S
Tb320 O340 2.384 . S
Tb320 O343 2.479 . S
Tb320 O344 2.471 . S
Eu321 O332 2.418 . S
Eu321 O333 2.384 . S
Eu321 O336 2.479 . S
Eu321 O337 2.471 . S
Eu321 O338 2.347 . S
Eu321 O341 2.366 . S
Eu321 C351 2.825 . S
C322 O338 1.259 . S
C322 O339 1.265 . S
C323 O340 1.255 . S
C323 O341 1.265 . S
C324 C326 1.380 . S
C324 C327 1.374 . S
C324 C330 1.507 . S
C325 C326 1.384 . S
C325 C329 1.387 . S
C325 H352 0.930 . S
C326 C324 1.380 . S
C326 C325 1.384 . S
C326 H353 0.931 . S
C327 C324 1.374 . S
C327 C328 1.390 . S
C327 H354 0.930 . S
C328 C327 1.390 . S
C328 C329 1.391 . S
C328 H355 0.930 . S
C329 C325 1.387 . S
C329 C328 1.391 . S
C330 Tb320 2.825 . S
C330 C324 1.507 . S
C330 O343 1.238 . S
C330 O344 1.247 . S
O331 Tb320 2.347 . S
O331 C335 1.259 . S
O332 Eu321 2.418 . S
O332 C335 1.265 . S
O333 Eu321 2.384 . S
O333 C342 1.255 . S
O334 Tb320 2.366 . S
O334 C342 1.265 . S
C335 O331 1.259 . S
C335 O332 1.265 . S
O336 Eu321 2.479 . S
O336 C351 1.238 . S
O337 Eu321 2.471 . S
O337 C351 1.247 . S
O338 Eu321 2.347 . S
O338 C322 1.259 . S
O339 Tb320 2.418 . S
O339 C322 1.265 . S
O340 Tb320 2.384 . S
O340 C323 1.255 . S
O341 Eu321 2.366 . S
O341 C323 1.265 . S
C342 O333 1.255 . S
C342 O334 1.265 . S
O343 Tb320 2.479 . S
O343 C330 1.238 . S
O344 Tb320 2.471 . S
O344 C330 1.247 . S
C345 C348 1.380 . S
C345 C349 1.374 . S
C345 C351 1.507 . S
C346 C347 1.387 . S
C346 C350 1.391 . S
C347 C346 1.387 . S
C347 C348 1.384 . S
C347 H356 0.930 . S
C348 C345 1.380 . S
C348 C347 1.384 . S
C348 H357 0.931 . S
C349 C345 1.374 . S
C349 C350 1.390 . S
C349 H358 0.930 . S
C350 C346 1.391 . S
C350 C349 1.390 . S
C350 H359 0.930 . S
C351 Eu321 2.825 . S
C351 O336 1.238 . S
C351 O337 1.247 . S
C351 C345 1.507 . S
H352 C325 0.930 . S
H353 C326 0.931 . S
H354 C327 0.930 . S
H355 C328 0.930 . S
H356 C347 0.930 . S
H357 C348 0.931 . S
H358 C349 0.930 . S
H359 C350 0.930 . S
Tb360 C370 2.825 . S
Tb360 O371 2.347 . S
Tb360 O374 2.366 . S
Tb360 O379 2.418 . S
Tb360 O380 2.384 . S
Tb360 O383 2.479 . S
Tb360 O384 2.471 . S
Eu361 O372 2.418 . S
Eu361 O373 2.384 . S
Eu361 O376 2.479 . S
Eu361 O377 2.471 . S
Eu361 O378 2.347 . S
Eu361 O381 2.366 . S
Eu361 C391 2.825 . S
C362 O378 1.259 . S
C362 O379 1.265 . S
C363 O380 1.255 . S
C363 O381 1.265 . S
C364 C366 1.380 . S
C364 C367 1.374 . S
C364 C370 1.507 . S
C365 C366 1.384 . S
C365 C369 1.387 . S
C365 H392 0.930 . S
C366 C364 1.380 . S
C366 C365 1.384 . S
C366 H393 0.931 . S
C367 C364 1.374 . S
C367 C368 1.390 . S
C367 H394 0.930 . S
C368 C367 1.390 . S
C368 C369 1.391 . S
C368 H395 0.930 . S
C369 C365 1.387 . S
C369 C368 1.391 . S
C370 Tb360 2.825 . S
C370 C364 1.507 . S
C370 O383 1.238 . S
C370 O384 1.247 . S
O371 Tb360 2.347 . S
O371 C375 1.259 . S
O372 Eu361 2.418 . S
O372 C375 1.265 . S
O373 Eu361 2.384 . S
O373 C382 1.255 . S
O374 Tb360 2.366 . S
O374 C382 1.265 . S
C375 O371 1.259 . S
C375 O372 1.265 . S
O376 Eu361 2.479 . S
O376 C391 1.238 . S
O377 Eu361 2.471 . S
O377 C391 1.247 . S
O378 Eu361 2.347 . S
O378 C362 1.259 . S
O379 Tb360 2.418 . S
O379 C362 1.265 . S
O380 Tb360 2.384 . S
O380 C363 1.255 . S
O381 Eu361 2.366 . S
O381 C363 1.265 . S
C382 O373 1.255 . S
C382 O374 1.265 . S
O383 Tb360 2.479 . S
O383 C370 1.238 . S
O384 Tb360 2.471 . S
O384 C370 1.247 . S
C385 C388 1.380 . S
C385 C389 1.374 . S
C385 C391 1.507 . S
C386 C387 1.387 . S
C386 C390 1.391 . S
C387 C386 1.387 . S
C387 C388 1.384 . S
C387 H396 0.930 . S
C388 C385 1.380 . S
C388 C387 1.384 . S
C388 H397 0.931 . S
C389 C385 1.374 . S
C389 C390 1.390 . S
C389 H398 0.930 . S
C390 C386 1.391 . S
C390 C389 1.390 . S
C390 H399 0.930 . S
C391 Eu361 2.825 . S
C391 O376 1.238 . S
C391 O377 1.247 . S
C391 C385 1.507 . S
H392 C365 0.930 . S
H393 C366 0.931 . S
H394 C367 0.930 . S
H395 C368 0.930 . S
H396 C387 0.930 . S
H397 C388 0.931 . S
H398 C389 0.930 . S
H399 C390 0.930 . S
Tb400 C410 2.825 . S
Tb400 O411 2.347 . S
Tb400 O414 2.366 . S
Tb400 O419 2.418 . S
Tb400 O420 2.384 . S
Tb400 O423 2.479 . S
Tb400 O424 2.471 . S
Eu401 O412 2.418 . S
Eu401 O413 2.384 . S
Eu401 O416 2.479 . S
Eu401 O417 2.471 . S
Eu401 O418 2.347 . S
Eu401 O421 2.366 . S
Eu401 C431 2.825 . S
C402 O418 1.259 . S
C402 O419 1.265 . S
C403 O420 1.255 . S
C403 O421 1.265 . S
C404 C406 1.380 . S
C404 C407 1.374 . S
C404 C410 1.507 . S
C405 C406 1.384 . S
C405 C409 1.387 . S
C405 H432 0.930 . S
C406 C404 1.380 . S
C406 C405 1.384 . S
C406 H433 0.931 . S
C407 C404 1.374 . S
C407 C408 1.390 . S
C407 H434 0.930 . S
C408 C407 1.390 . S
C408 C409 1.391 . S
C408 H435 0.930 . S
C409 C405 1.387 . S
C409 C408 1.391 . S
C410 Tb400 2.825 . S
C410 C404 1.507 . S
C410 O423 1.238 . S
C410 O424 1.247 . S
O411 Tb400 2.347 . S
O411 C415 1.259 . S
O412 Eu401 2.418 . S
O412 C415 1.265 . S
O413 Eu401 2.384 . S
O413 C422 1.255 . S
O414 Tb400 2.366 . S
O414 C422 1.265 . S
C415 O411 1.259 . S
C415 O412 1.265 . S
O416 Eu401 2.479 . S
O416 C431 1.238 . S
O417 Eu401 2.471 . S
O417 C431 1.247 . S
O418 Eu401 2.347 . S
O418 C402 1.259 . S
O419 Tb400 2.418 . S
O419 C402 1.265 . S
O420 Tb400 2.384 . S
O420 C403 1.255 . S
O421 Eu401 2.366 . S
O421 C403 1.265 . S
C422 O413 1.255 . S
C422 O414 1.265 . S
O423 Tb400 2.479 . S
O423 C410 1.238 . S
O424 Tb400 2.471 . S
O424 C410 1.247 . S
C425 C428 1.380 . S
C425 C429 1.374 . S
C425 C431 1.507 . S
C426 C427 1.387 . S
C426 C430 1.391 . S
C427 C426 1.387 . S
C427 C428 1.384 . S
C427 H436 0.930 . S
C428 C425 1.380 . S
C428 C427 1.384 . S
C428 H437 0.931 . S
C429 C425 1.374 . S
C429 C430 1.390 . S
C429 H438 0.930 . S
C430 C426 1.391 . S
C430 C429 1.390 . S
C430 H439 0.930 . S
C431 Eu401 2.825 . S
C431 O416 1.238 . S
C431 O417 1.247 . S
C431 C425 1.507 . S
H432 C405 0.930 . S
H433 C406 0.931 . S
H434 C407 0.930 . S
H435 C408 0.930 . S
H436 C427 0.930 . S
H437 C428 0.931 . S
H438 C429 0.930 . S
H439 C430 0.930 . S
Tb440 C450 2.825 . S
Tb440 O451 2.347 . S
Tb440 O454 2.366 . S
Tb440 O459 2.418 . S
Tb440 O460 2.384 . S
Tb440 O463 2.479 . S
Tb440 O464 2.471 . S
Eu441 O452 2.418 . S
Eu441 O453 2.384 . S
Eu441 O456 2.479 . S
Eu441 O457 2.471 . S
Eu441 O458 2.347 . S
Eu441 O461 2.366 . S
Eu441 C471 2.825 . S
C442 O458 1.259 . S
C442 O459 1.265 . S
C443 O460 1.255 . S
C443 O461 1.265 . S
C444 C446 1.380 . S
C444 C447 1.374 . S
C444 C450 1.507 . S
C445 C446 1.384 . S
C445 C449 1.387 . S
C445 H472 0.930 . S
C446 C444 1.380 . S
C446 C445 1.384 . S
C446 H473 0.931 . S
C447 C444 1.374 . S
C447 C448 1.390 . S
C447 H474 0.930 . S
C448 C447 1.390 . S
C448 C449 1.391 . S
C448 H475 0.930 . S
C449 C445 1.387 . S
C449 C448 1.391 . S
C450 Tb440 2.825 . S
C450 C444 1.507 . S
C450 O463 1.238 . S
C450 O464 1.247 . S
O451 Tb440 2.347 . S
O451 C455 1.259 . S
O452 Eu441 2.418 . S
O452 C455 1.265 . S
O453 Eu441 2.384 . S
O453 C462 1.255 . S
O454 Tb440 2.366 . S
O454 C462 1.265 . S
C455 O451 1.259 . S
C455 O452 1.265 . S
O456 Eu441 2.479 . S
O456 C471 1.238 . S
O457 Eu441 2.471 . S
O457 C471 1.247 . S
O458 Eu441 2.347 . S
O458 C442 1.259 . S
O459 Tb440 2.418 . S
O459 C442 1.265 . S
O460 Tb440 2.384 . S
O460 C443 1.255 . S
O461 Eu441 2.366 . S
O461 C443 1.265 . S
C462 O453 1.255 . S
C462 O454 1.265 . S
O463 Tb440 2.479 . S
O463 C450 1.238 . S
O464 Tb440 2.471 . S
O464 C450 1.247 . S
C465 C468 1.380 . S
C465 C469 1.374 . S
C465 C471 1.507 . S
C466 C467 1.387 . S
C466 C470 1.391 . S
C467 C466 1.387 . S
C467 C468 1.384 . S
C467 H476 0.930 . S
C468 C465 1.380 . S
C468 C467 1.384 . S
C468 H477 0.931 . S
C469 C465 1.374 . S
C469 C470 1.390 . S
C469 H478 0.930 . S
C470 C466 1.391 . S
C470 C469 1.390 . S
C470 H479 0.930 . S
C471 Eu441 2.825 . S
C471 O456 1.238 . S
C471 O457 1.247 . S
C471 C465 1.507 . S
H472 C445 0.930 . S
H473 C446 0.931 . S
H474 C447 0.930 . S
H475 C448 0.930 . S
H476 C467 0.930 . S
H477 C468 0.931 . S
H478 C469 0.930 . S
H479 C470 0.930 . S
Tb480 C490 2.825 . S
Tb480 O491 2.347 . S
Tb480 O494 2.366 . S
Tb480 O499 2.418 . S
Tb480 O500 2.384 . S
Tb480 O503 2.479 . S
Tb480 O504 2.471 . S
Eu481 O492 2.418 . S
Eu481 O493 2.384 . S
Eu481 O496 2.479 . S
Eu481 O497 2.471 . S
Eu481 O498 2.347 . S
Eu481 O501 2.366 . S
Eu481 C511 2.825 . S
C482 O498 1.259 . S
C482 O499 1.265 . S
C483 O500 1.255 . S
C483 O501 1.265 . S
C484 C486 1.380 . S
C484 C487 1.374 . S
C484 C490 1.507 . S
C485 C486 1.384 . S
C485 C489 1.387 . S
C485 H512 0.930 . S
C486 C484 1.380 . S
C486 C485 1.384 . S
C486 H513 0.931 . S
C487 C484 1.374 . S
C487 C488 1.390 . S
C487 H514 0.930 . S
C488 C487 1.390 . S
C488 C489 1.391 . S
C488 H515 0.930 . S
C489 C485 1.387 . S
C489 C488 1.391 . S
C490 Tb480 2.825 . S
C490 C484 1.507 . S
C490 O503 1.238 . S
C490 O504 1.247 . S
O491 Tb480 2.347 . S
O491 C495 1.259 . S
O492 Eu481 2.418 . S
O492 C495 1.265 . S
O493 Eu481 2.384 . S
O493 C502 1.255 . S
O494 Tb480 2.366 . S
O494 C502 1.265 . S
C495 O491 1.259 . S
C495 O492 1.265 . S
O496 Eu481 2.479 . S
O496 C511 1.238 . S
O497 Eu481 2.471 . S
O497 C511 1.247 . S
O498 Eu481 2.347 . S
O498 C482 1.259 . S
O499 Tb480 2.418 . S
O499 C482 1.265 . S
O500 Tb480 2.384 . S
O500 C483 1.255 . S
O501 Eu481 2.366 . S
O501 C483 1.265 . S
C502 O493 1.255 . S
C502 O494 1.265 . S
O503 Tb480 2.479 . S
O503 C490 1.238 . S
O504 Tb480 2.471 . S
O504 C490 1.247 . S
C505 C508 1.380 . S
C505 C509 1.374 . S
C505 C511 1.507 . S
C506 C507 1.387 . S
C506 C510 1.391 . S
C507 C506 1.387 . S
C507 C508 1.384 . S
C507 H516 0.930 . S
C508 C505 1.380 . S
C508 C507 1.384 . S
C508 H517 0.931 . S
C509 C505 1.374 . S
C509 C510 1.390 . S
C509 H518 0.930 . S
C510 C506 1.391 . S
C510 C509 1.390 . S
C510 H519 0.930 . S
C511 Eu481 2.825 . S
C511 O496 1.238 . S
C511 O497 1.247 . S
C511 C505 1.507 . S
H512 C485 0.930 . S
H513 C486 0.931 . S
H514 C487 0.930 . S
H515 C488 0.930 . S
H516 C507 0.930 . S
H517 C508 0.931 . S
H518 C509 0.930 . S
H519 C510 0.930 . S
Tb520 C530 2.825 . S
Tb520 O531 2.347 . S
Tb520 O534 2.366 . S
Tb520 O539 2.418 . S
Tb520 O540 2.384 . S
Tb520 O543 2.479 . S
Tb520 O544 2.471 . S
Eu521 O532 2.418 . S
Eu521 O533 2.384 . S
Eu521 O536 2.479 . S
Eu521 O537 2.471 . S
Eu521 O538 2.347 . S
Eu521 O541 2.366 . S
Eu521 C551 2.825 . S
C522 O538 1.259 . S
C522 O539 1.265 . S
C523 O540 1.255 . S
C523 O541 1.265 . S
C524 C526 1.380 . S
C524 C527 1.374 . S
C524 C530 1.507 . S
C525 C526 1.384 . S
C525 C529 1.387 . S
C525 H552 0.930 . S
C526 C524 1.380 . S
C526 C525 1.384 . S
C526 H553 0.931 . S
C527 C524 1.374 . S
C527 C528 1.390 . S
C527 H554 0.930 . S
C528 C527 1.390 . S
C528 C529 1.391 . S
C528 H555 0.930 . S
C529 C525 1.387 . S
C529 C528 1.391 . S
C530 Tb520 2.825 . S
C530 C524 1.507 . S
C530 O543 1.238 . S
C530 O544 1.247 . S
O531 Tb520 2.347 . S
O531 C535 1.259 . S
O532 Eu521 2.418 . S
O532 C535 1.265 . S
O533 Eu521 2.384 . S
O533 C542 1.255 . S
O534 Tb520 2.366 . S
O534 C542 1.265 . S
C535 O531 1.259 . S
C535 O532 1.265 . S
O536 Eu521 2.479 . S
O536 C551 1.238 . S
O537 Eu521 2.471 . S
O537 C551 1.247 . S
O538 Eu521 2.347 . S
O538 C522 1.259 . S
O539 Tb520 2.418 . S
O539 C522 1.265 . S
O540 Tb520 2.384 . S
O540 C523 1.255 . S
O541 Eu521 2.366 . S
O541 C523 1.265 . S
C542 O533 1.255 . S
C542 O534 1.265 . S
O543 Tb520 2.479 . S
O543 C530 1.238 . S
O544 Tb520 2.471 . S
O544 C530 1.247 . S
C545 C548 1.380 . S
C545 C549 1.374 . S
C545 C551 1.507 . S
C546 C547 1.387 . S
C546 C550 1.391 . S
C547 C546 1.387 . S
C547 C548 1.384 . S
C547 H556 0.930 . S
C548 C545 1.380 . S
C548 C547 1.384 . S
C548 H557 0.931 . S
C549 C545 1.374 . S
C549 C550 1.390 . S
C549 H558 0.930 . S
C550 C546 1.391 . S
C550 C549 1.390 . S
C550 H559 0.930 . S
C551 Eu521 2.825 . S
C551 O536 1.238 . S
C551 O537 1.247 . S
C551 C545 1.507 . S
H552 C525 0.930 . S
H553 C526 0.931 . S
H554 C527 0.930 . S
H555 C528 0.930 . S
H556 C547 0.930 . S
H557 C548 0.931 . S
H558 C549 0.930 . S
H559 C550 0.930 . S
Tb560 C570 2.825 . S
Tb560 O571 2.347 . S
Tb560 O574 2.366 . S
Tb560 O579 2.418 . S
Tb560 O580 2.384 . S
Tb560 O583 2.479 . S
Tb560 O584 2.471 . S
Eu561 O572 2.418 . S
Eu561 O573 2.384 . S
Eu561 O576 2.479 . S
Eu561 O577 2.471 . S
Eu561 O578 2.347 . S
Eu561 O581 2.366 . S
Eu561 C591 2.825 . S
C562 O578 1.259 . S
C562 O579 1.265 . S
C563 O580 1.255 . S
C563 O581 1.265 . S
C564 C566 1.380 . S
C564 C567 1.374 . S
C564 C570 1.507 . S
C565 C566 1.384 . S
C565 C569 1.387 . S
C565 H592 0.930 . S
C566 C564 1.380 . S
C566 C565 1.384 . S
C566 H593 0.931 . S
C567 C564 1.374 . S
C567 C568 1.390 . S
C567 H594 0.930 . S
C568 C567 1.390 . S
C568 C569 1.391 . S
C568 H595 0.930 . S
C569 C565 1.387 . S
C569 C568 1.391 . S
C570 Tb560 2.825 . S
C570 C564 1.507 . S
C570 O583 1.238 . S
C570 O584 1.247 . S
O571 Tb560 2.347 . S
O571 C575 1.259 . S
O572 Eu561 2.418 . S
O572 C575 1.265 . S
O573 Eu561 2.384 . S
O573 C582 1.255 . S
O574 Tb560 2.366 . S
O574 C582 1.265 . S
C575 O571 1.259 . S
C575 O572 1.265 . S
O576 Eu561 2.479 . S
O576 C591 1.238 . S
O577 Eu561 2.471 . S
O577 C591 1.247 . S
O578 Eu561 2.347 . S
O578 C562 1.259 . S
O579 Tb560 2.418 . S
O579 C562 1.265 . S
O580 Tb560 2.384 . S
O580 C563 1.255 . S
O581 Eu561 2.366 . S
O581 C563 1.265 . S
C582 O573 1.255 . S
C582 O574 1.265 . S
O583 Tb560 2.479 . S
O583 C570 1.238 . S
O584 Tb560 2.471 . S
O584 C570 1.247 . S
C585 C588 1.380 . S
C585 C589 1.374 . S
C585 C591 1.507 . S
C586 C587 1.387 . S
C586 C590 1.391 . S
C587 C586 1.387 . S
C587 C588 1.384 . S
C587 H596 0.930 . S
C588 C585 1.380 . S
C588 C587 1.384 . S
C588 H597 0.931 . S
C589 C585 1.374 . S
C589 C590 1.390 . S
C589 H598 0.930 . S
C590 C586 1.391 . S
C590 C589 1.390 . S
C590 H599 0.930 . S
C591 Eu561 2.825 . S
C591 O576 1.238 . S
C591 O577 1.247 . S
C591 C585 1.507 . S
H592 C565 0.930 . S
H593 C566 0.931 . S
H594 C567 0.930 . S
H595 C568 0.930 . S
H596 C587 0.930 . S
H597 C588 0.931 . S
H598 C589 0.930 . S
H599 C590 0.930 . S
Tb600 C610 2.825 . S
Tb600 O611 2.347 . S
Tb600 O614 2.366 . S
Tb600 O619 2.418 . S
Tb600 O620 2.384 . S
Tb600 O623 2.479 . S
Tb600 O624 2.471 . S
Eu601 O612 2.418 . S
Eu601 O613 2.384 . S
Eu601 O616 2.479 . S
Eu601 O617 2.471 . S
Eu601 O618 2.347 . S
Eu601 O621 2.366 . S
Eu601 C631 2.825 . S
C602 O618 1.259 . S
C602 O619 1.265 . S
C603 O620 1.255 . S
C603 O621 1.265 . S
C604 C606 1.380 . S
C604 C607 1.374 . S
C604 C610 1.507 . S
C605 C606 1.384 . S
C605 C609 1.387 . S
C605 H632 0.930 . S
C606 C604 1.380 . S
C606 C605 1.384 . S
C606 H633 0.931 . S
C607 C604 1.374 . S
C607 C608 1.390 . S
C607 H634 0.930 . S
C608 C607 1.390 . S
C608 C609 1.391 . S
C608 H635 0.930 . S
C609 C605 1.387 . S
C609 C608 1.391 . S
C610 Tb600 2.825 . S
C610 C604 1.507 . S
C610 O623 1.238 . S
C610 O624 1.247 . S
O611 Tb600 2.347 . S
O611 C615 1.259 . S
O612 Eu601 2.418 . S
O612 C615 1.265 . S
O613 Eu601 2.384 . S
O613 C622 1.255 . S
O614 Tb600 2.366 . S
O614 C622 1.265 . S
C615 O611 1.259 . S
C615 O612 1.265 . S
O616 Eu601 2.479 . S
O616 C631 1.238 . S
O617 Eu601 2.471 . S
O617 C631 1.247 . S
O618 Eu601 2.347 . S
O618 C602 1.259 . S
O619 Tb600 2.418 . S
O619 C602 1.265 . S
O620 Tb600 2.384 . S
O620 C603 1.255 . S
O621 Eu601 2.366 . S
O621 C603 1.265 . S
C622 O613 1.255 . S
C622 O614 1.265 . S
O623 Tb600 2.479 . S
O623 C610 1.238 . S
O624 Tb600 2.471 . S
O624 C610 1.247 . S
C625 C628 1.380 . S
C625 C629 1.374 . S
C625 C631 1.507 . S
C626 C627 1.387 . S
C626 C630 1.391 . S
C627 C626 1.387 . S
C627 C628 1.384 . S
C627 H636 0.930 . S
C628 C625 1.380 . S
C628 C627 1.384 . S
C628 H637 0.931 . S
C629 C625 1.374 . S
C629 C630 1.390 . S
C629 H638 0.930 . S
C630 C626 1.391 . S
C630 C629 1.390 . S
C630 H639 0.930 . S
C631 Eu601 2.825 . S
C631 O616 1.238 . S
C631 O617 1.247 . S
C631 C625 1.507 . S
H632 C605 0.930 . S
H633 C606 0.931 . S
H634 C607 0.930 . S
H635 C608 0.930 . S
H636 C627 0.930 . S
H637 C628 0.931 . S
H638 C629 0.930 . S
H639 C630 0.930 . S
C640 C641 1.349 . S
C640 C642 1.327 . S
C640 H665 0.950 . S
C641 C640 1.349 . S
C641 C657 1.349 . S
C642 C640 1.327 . S
C642 C661 1.429 . S
C642 H666 0.950 . S
C643 C660 1.574 . S
C643 C662 1.368 . S
C643 H667 0.949 . S
H644 C648 0.949 . S
C645 C646 1.349 . S
C645 C647 1.327 . S
C645 H668 0.950 . S
C646 C645 1.349 . S
C646 C658 1.349 . S
C647 C645 1.327 . S
C647 C663 1.429 . S
C647 H669 0.950 . S
C648 H644 0.949 . S
C648 C656 1.574 . S
C648 C664 1.368 . S
H649 C657 0.950 . S
H650 C655 0.950 . S
H651 C656 0.949 . S
H652 C658 0.950 . S
H653 C659 0.950 . S
H654 C660 0.949 . S
C655 H650 0.950 . S
C655 C657 1.327 . S
C655 C661 1.429 . S
C656 C648 1.574 . S
C656 H651 0.949 . S
C656 C662 1.368 . S
C657 C641 1.349 . S
C657 H649 0.950 . S
C657 C655 1.327 . S
C658 C646 1.349 . S
C658 H652 0.950 . S
C658 C659 1.327 . S
C659 H653 0.950 . S
C659 C658 1.327 . S
C659 C663 1.429 . S
C660 C643 1.574 . S
C660 H654 0.949 . S
C660 C664 1.368 . S
C661 C642 1.429 . S
C661 C655 1.429 . S
C661 C662 1.523 . S
C662 C643 1.368 . S
C662 C656 1.368 . S
C662 C661 1.523 . S
C663 C647 1.429 . S
C663 C659 1.429 . S
C663 C664 1.523 . S
C664 C648 1.368 . S
C664 C660 1.368 . S
C664 C663 1.523 . S
H665 C640 0.950 . S
H666 C642 0.950 . S
H667 C643 0.949 . S
H668 C645 0.950 . S
H669 C647 0.950 . S
C670 C671 1.349 . S
C670 C672 1.327 . S
C670 H695 0.950 . S
C671 C670 1.349 . S
C671 C687 1.349 . S
C672 C670 1.327 . S
C672 C691 1.429 . S
C672 H696 0.950 . S
C673 C690 1.574 . S
C673 C692 1.368 . S
C673 H697 0.949 . S
H674 C678 0.949 . S
C675 C676 1.349 . S
C675 C677 1.327 . S
C675 H698 0.950 . S
C676 C675 1.349 . S
C676 C688 1.349 . S
C677 C675 1.327 . S
C677 C693 1.429 . S
C677 H699 0.950 . S
C678 H674 0.949 . S
C678 C686 1.574 . S
C678 C694 1.368 . S
H679 C687 0.950 . S
H680 C685 0.950 . S
H681 C686 0.949 . S
H682 C688 0.950 . S
H683 C689 0.950 . S
H684 C690 0.949 . S
C685 H680 0.950 . S
C685 C687 1.327 . S
C685 C691 1.429 . S
C686 C678 1.574 . S
C686 H681 0.949 . S
C686 C692 1.368 . S
C687 C671 1.349 . S
C687 H679 0.950 . S
C687 C685 1.327 . S
C688 C676 1.349 . S
C688 H682 0.950 . S
C688 C689 1.327 . S
C689 H683 0.950 . S
C689 C688 1.327 . S
C689 C693 1.429 . S
C690 C673 1.574 . S
C690 H684 0.949 . S
C690 C694 1.368 . S
C691 C672 1.429 . S
C691 C685 1.429 . S
C691 C692 1.523 . S
C692 C673 1.368 . S
C692 C686 1.368 . S
C692 C691 1.523 . S
C693 C677 1.429 . S
C693 C689 1.429 . S
C693 C694 1.523 . S
C694 C678 1.368 . S
C694 C690 1.368 . S
C694 C693 1.523 . S
H695 C670 0.950 . S
H696 C672 0.950 . S
H697 C673 0.949 . S
H698 C675 0.950 . S
H699 C677 0.950 . S
C700 C701 1.349 . S
C700 C702 1.327 . S
C700 H725 0.950 . S
C701 C700 1.349 . S
C701 C717 1.349 . S
C702 C700 1.327 . S
C702 C721 1.429 . S
C702 H726 0.950 . S
C703 C720 1.574 . S
C703 C722 1.368 . S
C703 H727 0.949 . S
H704 C708 0.949 . S
C705 C706 1.349 . S
C705 C707 1.327 . S
C705 H728 0.950 . S
C706 C705 1.349 . S
C706 C718 1.349 . S
C707 C705 1.327 . S
C707 C723 1.429 . S
C707 H729 0.950 . S
C708 H704 0.949 . S
C708 C716 1.574 . S
C708 C724 1.368 . S
H709 C717 0.950 . S
H710 C715 0.950 . S
H711 C716 0.949 . S
H712 C718 0.950 . S
H713 C719 0.950 . S
H714 C720 0.949 . S
C715 H710 0.950 . S
C715 C717 1.327 . S
C715 C721 1.429 . S
C716 C708 1.574 . S
C716 H711 0.949 . S
C716 C722 1.368 . S
C717 C701 1.349 . S
C717 H709 0.950 . S
C717 C715 1.327 . S
C718 C706 1.349 . S
C718 H712 0.950 . S
C718 C719 1.327 . S
C719 H713 0.950 . S
C719 C718 1.327 . S
C719 C723 1.429 . S
C720 C703 1.574 . S
C720 H714 0.949 . S
C720 C724 1.368 . S
C721 C702 1.429 . S
C721 C715 1.429 . S
C721 C722 1.523 . S
C722 C703 1.368 . S
C722 C716 1.368 . S
C722 C721 1.523 . S
C723 C707 1.429 . S
C723 C719 1.429 . S
C723 C724 1.523 . S
C724 C708 1.368 . S
C724 C720 1.368 . S
C724 C723 1.523 . S
H725 C700 0.950 . S
H726 C702 0.950 . S
H727 C703 0.949 . S
H728 C705 0.950 . S
H729 C707 0.950 . S
C730 C731 1.349 . S
C730 C732 1.327 . S
C730 H755 0.950 . S
C731 C730 1.349 . S
C731 C747 1.349 . S
C732 C730 1.327 . S
C732 C751 1.429 . S
C732 H756 0.950 . S
C733 C750 1.574 . S
C733 C752 1.368 . S
C733 H757 0.949 . S
H734 C738 0.949 . S
C735 C736 1.349 . S
C735 C737 1.327 . S
C735 H758 0.950 . S
C736 C735 1.349 . S
C736 C748 1.349 . S
C737 C735 1.327 . S
C737 C753 1.429 . S
C737 H759 0.950 . S
C738 H734 0.949 . S
C738 C746 1.574 . S
C738 C754 1.368 . S
H739 C747 0.950 . S
H740 C745 0.950 . S
H741 C746 0.949 . S
H742 C748 0.950 . S
H743 C749 0.950 . S
H744 C750 0.949 . S
C745 H740 0.950 . S
C745 C747 1.327 . S
C745 C751 1.429 . S
C746 C738 1.574 . S
C746 H741 0.949 . S
C746 C752 1.368 . S
C747 C731 1.349 . S
C747 H739 0.950 . S
C747 C745 1.327 . S
C748 C736 1.349 . S
C748 H742 0.950 . S
C748 C749 1.327 . S
C749 H743 0.950 . S
C749 C748 1.327 . S
C749 C753 1.429 . S
C750 C733 1.574 . S
C750 H744 0.949 . S
C750 C754 1.368 . S
C751 C732 1.429 . S
C751 C745 1.429 . S
C751 C752 1.523 . S
C752 C733 1.368 . S
C752 C746 1.368 . S
C752 C751 1.523 . S
C753 C737 1.429 . S
C753 C749 1.429 . S
C753 C754 1.523 . S
C754 C738 1.368 . S
C754 C750 1.368 . S
C754 C753 1.523 . S
H755 C730 0.950 . S
H756 C732 0.950 . S
H757 C733 0.949 . S
H758 C735 0.950 . S
H759 C737 0.950 . S
C760 C761 1.349 . S
C760 C762 1.327 . S
C760 H785 0.950 . S
C761 C760 1.349 . S
C761 C777 1.349 . S
C762 C760 1.327 . S
C762 C781 1.429 . S
C762 H786 0.950 . S
C763 C780 1.574 . S
C763 C782 1.368 . S
C763 H787 0.949 . S
H764 C768 0.949 . S
C765 C766 1.349 . S
C765 C767 1.327 . S
C765 H788 0.950 . S
C766 C765 1.349 . S
C766 C778 1.349 . S
C767 C765 1.327 . S
C767 C783 1.429 . S
C767 H789 0.950 . S
C768 H764 0.949 . S
C768 C776 1.574 . S
C768 C784 1.368 . S
H769 C777 0.950 . S
H770 C775 0.950 . S
H771 C776 0.949 . S
H772 C778 0.950 . S
H773 C779 0.950 . S
H774 C780 0.949 . S
C775 H770 0.950 . S
C775 C777 1.327 . S
C775 C781 1.429 . S
C776 C768 1.574 . S
C776 H771 0.949 . S
C776 C782 1.368 . S
C777 C761 1.349 . S
C777 H769 0.950 . S
C777 C775 1.327 . S
C778 C766 1.349 . S
C778 H772 0.950 . S
C778 C779 1.327 . S
C779 H773 0.950 . S
C779 C778 1.327 . S
C779 C783 1.429 . S
C780 C763 1.574 . S
C780 H774 0.949 . S
C780 C784 1.368 . S
C781 C762 1.429 . S
C781 C775 1.429 . S
C781 C782 1.523 . S
C782 C763 1.368 . S
C782 C776 1.368 . S
C782 C781 1.523 . S
C783 C767 1.429 . S
C783 C779 1.429 . S
C783 C784 1.523 . S
C784 C768 1.368 . S
C784 C780 1.368 . S
C784 C783 1.523 . S
H785 C760 0.950 . S
H786 C762 0.950 . S
H787 C763 0.949 . S
H788 C765 0.950 . S
H789 C767 0.950 . S
C790 C791 1.349 . S
C790 C792 1.327 . S
C790 H815 0.950 . S
C791 C790 1.349 . S
C791 C807 1.349 . S
C792 C790 1.327 . S
C792 C811 1.429 . S
C792 H816 0.950 . S
C793 C810 1.574 . S
C793 C812 1.368 . S
C793 H817 0.949 . S
H794 C798 0.949 . S
C795 C796 1.349 . S
C795 C797 1.327 . S
C795 H818 0.950 . S
C796 C795 1.349 . S
C796 C808 1.349 . S
C797 C795 1.327 . S
C797 C813 1.429 . S
C797 H819 0.950 . S
C798 H794 0.949 . S
C798 C806 1.574 . S
C798 C814 1.368 . S
H799 C807 0.950 . S
H800 C805 0.950 . S
H801 C806 0.949 . S
H802 C808 0.950 . S
H803 C809 0.950 . S
H804 C810 0.949 . S
C805 H800 0.950 . S
C805 C807 1.327 . S
C805 C811 1.429 . S
C806 C798 1.574 . S
C806 H801 0.949 . S
C806 C812 1.368 . S
C807 C791 1.349 . S
C807 H799 0.950 . S
C807 C805 1.327 . S
C808 C796 1.349 . S
C808 H802 0.950 . S
C808 C809 1.327 . S
C809 H803 0.950 . S
C809 C808 1.327 . S
C809 C813 1.429 . S
C810 C793 1.574 . S
C810 H804 0.949 . S
C810 C814 1.368 . S
C811 C792 1.429 . S
C811 C805 1.429 . S
C811 C812 1.523 . S
C812 C793 1.368 . S
C812 C806 1.368 . S
C812 C811 1.523 . S
C813 C797 1.429 . S
C813 C809 1.429 . S
C813 C814 1.523 . S
C814 C798 1.368 . S
C814 C810 1.368 . S
C814 C813 1.523 . S
H815 C790 0.950 . S
H816 C792 0.950 . S
H817 C793 0.949 . S
H818 C795 0.950 . S
H819 C797 0.950 . S
C820 C821 1.349 . S
C820 C822 1.327 . S
C820 H845 0.950 . S
C821 C820 1.349 . S
C821 C837 1.349 . S
C822 C820 1.327 . S
C822 C841 1.429 . S
C822 H846 0.950 . S
C823 C840 1.574 . S
C823 C842 1.368 . S
C823 H847 0.949 . S
H824 C828 0.949 . S
C825 C826 1.349 . S
C825 C827 1.327 . S
C825 H848 0.950 . S
C826 C825 1.349 . S
C826 C838 1.349 . S
C827 C825 1.327 . S
C827 C843 1.429 . S
C827 H849 0.950 . S
C828 H824 0.949 . S
C828 C836 1.574 . S
C828 C844 1.368 . S
H829 C837 0.950 . S
H830 C835 0.950 . S
H831 C836 0.949 . S
H832 C838 0.950 . S
H833 C839 0.950 . S
H834 C840 0.949 . S
C835 H830 0.950 . S
C835 C837 1.327 . S
C835 C841 1.429 . S
C836 C828 1.574 . S
C836 H831 0.949 . S
C836 C842 1.368 . S
C837 C821 1.349 . S
C837 H829 0.950 . S
C837 C835 1.327 . S
C838 C826 1.349 . S
C838 H832 0.950 . S
C838 C839 1.327 . S
C839 H833 0.950 . S
C839 C838 1.327 . S
C839 C843 1.429 . S
C840 C823 1.574 . S
C840 H834 0.949 . S
C840 C844 1.368 . S
C841 C822 1.429 . S
C841 C835 1.429 . S
C841 C842 1.523 . S
C842 C823 1.368 . S
C842 C836 1.368 . S
C842 C841 1.523 . S
C843 C827 1.429 . S
C843 C839 1.429 . S
C843 C844 1.523 . S
C844 C828 1.368 . S
C844 C840 1.368 . S
C844 C843 1.523 . S
H845 C820 0.950 . S
H846 C822 0.950 . S
H847 C823 0.949 . S
H848 C825 0.950 . S
H849 C827 0.950 . S
C850 C851 1.349 . S
C850 C852 1.327 . S
C850 H875 0.950 . S
C851 C850 1.349 . S
C851 C867 1.349 . S
C852 C850 1.327 . S
C852 C871 1.429 . S
C852 H876 0.950 . S
C853 C870 1.574 . S
C853 C872 1.368 . S
C853 H877 0.949 . S
H854 C858 0.949 . S
C855 C856 1.349 . S
C855 C857 1.327 . S
C855 H878 0.950 . S
C856 C855 1.349 . S
C856 C868 1.349 . S
C857 C855 1.327 . S
C857 C873 1.429 . S
C857 H879 0.950 . S
C858 H854 0.949 . S
C858 C866 1.574 . S
C858 C874 1.368 . S
H859 C867 0.950 . S
H860 C865 0.950 . S
H861 C866 0.949 . S
H862 C868 0.950 . S
H863 C869 0.950 . S
H864 C870 0.949 . S
C865 H860 0.950 . S
C865 C867 1.327 . S
C865 C871 1.429 . S
C866 C858 1.574 . S
C866 H861 0.949 . S
C866 C872 1.368 . S
C867 C851 1.349 . S
C867 H859 0.950 . S
C867 C865 1.327 . S
C868 C856 1.349 . S
C868 H862 0.950 . S
C868 C869 1.327 . S
C869 H863 0.950 . S
C869 C868 1.327 . S
C869 C873 1.429 . S
C870 C853 1.574 . S
C870 H864 0.949 . S
C870 C874 1.368 . S
C871 C852 1.429 . S
C871 C865 1.429 . S
C871 C872 1.523 . S
C872 C853 1.368 . S
C872 C866 1.368 . S
C872 C871 1.523 . S
C873 C857 1.429 . S
C873 C869 1.429 . S
C873 C874 1.523 . S
C874 C858 1.368 . S
C874 C870 1.368 . S
C874 C873 1.523 . S
H875 C850 0.950 . S
H876 C852 0.950 . S
H877 C853 0.949 . S
H878 C855 0.950 . S
H879 C857 0.950 . S
C880 C881 1.349 . S
C880 C882 1.327 . S
C880 H905 0.950 . S
C881 C880 1.349 . S
C881 C897 1.349 . S
C882 C880 1.327 . S
C882 C901 1.429 . S
C882 H906 0.950 1_565 S
C883 C900 1.574 . S
C883 C902 1.368 . S
C883 H907 0.949 . S
H884 C888 0.949 . S
C885 C886 1.349 . S
C885 C887 1.327 . S
C885 H908 0.950 . S
C886 C885 1.349 . S
C886 C898 1.349 . S
C887 C885 1.327 . S
C887 C903 1.429 . S
C887 H909 0.950 1_545 S
C888 H884 0.949 . S
C888 C896 1.574 . S
C888 C904 1.368 . S
H889 C897 0.950 . S
H890 C895 0.950 . S
H891 C896 0.949 . S
H892 C898 0.950 . S
H893 C899 0.950 . S
H894 C900 0.949 . S
C895 H890 0.950 . S
C895 C897 1.327 . S
C895 C901 1.429 . S
C896 C888 1.574 . S
C896 H891 0.949 . S
C896 C902 1.368 1_545 S
C897 C881 1.349 . S
C897 H889 0.950 . S
C897 C895 1.327 . S
C898 C886 1.349 . S
C898 H892 0.950 . S
C898 C899 1.327 . S
C899 H893 0.950 . S
C899 C898 1.327 . S
C899 C903 1.429 . S
C900 C883 1.574 . S
C900 H894 0.949 . S
C900 C904 1.368 1_565 S
C901 C882 1.429 . S
C901 C895 1.429 . S
C901 C902 1.523 . S
C902 C883 1.368 . S
C902 C896 1.368 1_565 S
C902 C901 1.523 . S
C903 C887 1.429 . S
C903 C899 1.429 . S
C903 C904 1.523 . S
C904 C888 1.368 . S
C904 C900 1.368 1_545 S
C904 C903 1.523 . S
H905 C880 0.950 . S
H906 C882 0.950 1_545 S
H907 C883 0.949 . S
H908 C885 0.950 . S
H909 C887 0.950 1_565 S
C910 C911 1.349 . S
C910 C912 1.327 . S
C910 H935 0.950 . S
C911 C910 1.349 . S
C911 C927 1.349 . S
C912 C910 1.327 . S
C912 C931 1.429 . S
C912 H936 0.950 . S
C913 C930 1.574 1_545 S
C913 C932 1.368 . S
C913 H937 0.949 . S
H914 C918 0.949 . S
C915 C916 1.349 . S
C915 C917 1.327 . S
C915 H938 0.950 . S
C916 C915 1.349 . S
C916 C928 1.349 . S
C917 C915 1.327 . S
C917 C933 1.429 . S
C917 H939 0.950 . S
C918 H914 0.949 . S
C918 C926 1.574 1_565 S
C918 C934 1.368 . S
H919 C927 0.950 . S
H920 C925 0.950 . S
H921 C926 0.949 . S
H922 C928 0.950 . S
H923 C929 0.950 . S
H924 C930 0.949 . S
C925 H920 0.950 . S
C925 C927 1.327 . S
C925 C931 1.429 . S
C926 C918 1.574 1_545 S
C926 H921 0.949 . S
C926 C932 1.368 . S
C927 C911 1.349 . S
C927 H919 0.950 . S
C927 C925 1.327 . S
C928 C916 1.349 . S
C928 H922 0.950 . S
C928 C929 1.327 . S
C929 H923 0.950 . S
C929 C928 1.327 . S
C929 C933 1.429 . S
C930 C913 1.574 1_565 S
C930 H924 0.949 . S
C930 C934 1.368 . S
C931 C912 1.429 . S
C931 C925 1.429 . S
C931 C932 1.523 . S
C932 C913 1.368 . S
C932 C926 1.368 . S
C932 C931 1.523 . S
C933 C917 1.429 . S
C933 C929 1.429 . S
C933 C934 1.523 . S
C934 C918 1.368 . S
C934 C930 1.368 . S
C934 C933 1.523 . S
H935 C910 0.950 . S
H936 C912 0.950 . S
H937 C913 0.949 . S
H938 C915 0.950 . S
H939 C917 0.950 . S
C940 C941 1.349 . S
C940 C942 1.327 . S
C940 H965 0.950 . S
C941 C940 1.349 . S
C941 C957 1.349 . S
C942 C940 1.327 . S
C942 C961 1.429 . S
C942 H966 0.950 . S
C943 C960 1.574 . S
C943 C962 1.368 1_565 S
C943 H967 0.949 . S
H944 C948 0.949 . S
C945 C946 1.349 . S
C945 C947 1.327 . S
C945 H968 0.950 . S
C946 C945 1.349 . S
C946 C958 1.349 . S
C947 C945 1.327 . S
C947 C963 1.429 . S
C947 H969 0.950 . S
C948 H944 0.949 . S
C948 C956 1.574 . S
C948 C964 1.368 1_545 S
H949 C957 0.950 . S
H950 C955 0.950 1_565 S
H951 C956 0.949 . S
H952 C958 0.950 . S
H953 C959 0.950 1_545 S
H954 C960 0.949 . S
C955 H950 0.950 1_545 S
C955 C957 1.327 . S
C955 C961 1.429 . S
C956 C948 1.574 . S
C956 H951 0.949 . S
C956 C962 1.368 . S
C957 C941 1.349 . S
C957 H949 0.950 . S
C957 C955 1.327 . S
C958 C946 1.349 . S
C958 H952 0.950 . S
C958 C959 1.327 . S
C959 H953 0.950 1_565 S
C959 C958 1.327 . S
C959 C963 1.429 . S
C960 C943 1.574 . S
C960 H954 0.949 . S
C960 C964 1.368 . S
C961 C942 1.429 . S
C961 C955 1.429 . S
C961 C962 1.523 . S
C962 C943 1.368 1_545 S
C962 C956 1.368 . S
C962 C961 1.523 . S
C963 C947 1.429 . S
C963 C959 1.429 . S
C963 C964 1.523 . S
C964 C948 1.368 1_565 S
C964 C960 1.368 . S
C964 C963 1.523 . S
H965 C940 0.950 . S
H966 C942 0.950 . S
H967 C943 0.949 . S
H968 C945 0.950 . S
H969 C947 0.950 . S
C970 C971 1.349 . S
C970 C972 1.327 . S
C970 H995 0.950 . S
C971 C970 1.349 . S
C971 C987 1.349 . S
C972 C970 1.327 . S
C972 C991 1.429 . S
C972 H996 0.950 . S
C973 C990 1.574 . S
C973 C992 1.368 1_565 S
C973 H997 0.949 . S
H974 C978 0.949 . S
C975 C976 1.349 . S
C975 C977 1.327 . S
C975 H998 0.950 . S
C976 C975 1.349 . S
C976 C988 1.349 . S
C977 C975 1.327 . S
C977 C993 1.429 . S
C977 H999 0.950 . S
C978 H974 0.949 . S
C978 C986 1.574 . S
C978 C994 1.368 1_545 S
H979 C987 0.950 . S
H980 C985 0.950 1_565 S
H981 C986 0.949 . S
H982 C988 0.950 . S
H983 C989 0.950 1_545 S
H984 C990 0.949 . S
C985 H980 0.950 1_545 S
C985 C987 1.327 . S
C985 C991 1.429 . S
C986 C978 1.574 . S
C986 H981 0.949 . S
C986 C992 1.368 . S
C987 C971 1.349 . S
C987 H979 0.950 . S
C987 C985 1.327 . S
C988 C976 1.349 . S
C988 H982 0.950 . S
C988 C989 1.327 . S
C989 H983 0.950 1_565 S
C989 C988 1.327 . S
C989 C993 1.429 . S
C990 C973 1.574 . S
C990 H984 0.949 . S
C990 C994 1.368 . S
C991 C972 1.429 . S
C991 C985 1.429 . S
C991 C992 1.523 . S
C992 C973 1.368 1_545 S
C992 C986 1.368 . S
C992 C991 1.523 . S
C993 C977 1.429 . S
C993 C989 1.429 . S
C993 C994 1.523 . S
C994 C978 1.368 1_565 S
C994 C990 1.368 . S
C994 C993 1.523 . S
H995 C970 0.950 . S
H996 C972 0.950 . S
H997 C973 0.949 . S
H998 C975 0.950 . S
H999 C977 0.950 . S
C1000 C1001 1.349 . S
C1000 C1002 1.327 . S
C1000 H1025 0.950 . S
C1001 C1000 1.349 . S
C1001 C1017 1.349 . S
C1002 C1000 1.327 . S
C1002 C1021 1.429 . S
C1002 H1026 0.950 . S
C1003 C1020 1.574 . S
C1003 C1022 1.368 . S
C1003 H1027 0.949 . S
H1004 C1008 0.949 . S
C1005 C1006 1.349 . S
C1005 C1007 1.327 . S
C1005 H1028 0.950 . S
C1006 C1005 1.349 . S
C1006 C1018 1.349 . S
C1007 C1005 1.327 . S
C1007 C1023 1.429 . S
C1007 H1029 0.950 . S
C1008 H1004 0.949 . S
C1008 C1016 1.574 . S
C1008 C1024 1.368 . S
H1009 C1017 0.950 . S
H1010 C1015 0.950 . S
H1011 C1016 0.949 . S
H1012 C1018 0.950 . S
H1013 C1019 0.950 . S
H1014 C1020 0.949 . S
C1015 H1010 0.950 . S
C1015 C1017 1.327 . S
C1015 C1021 1.429 . S
C1016 C1008 1.574 . S
C1016 H1011 0.949 . S
C1016 C1022 1.368 . S
C1017 C1001 1.349 . S
C1017 H1009 0.950 . S
C1017 C1015 1.327 . S
C1018 C1006 1.349 . S
C1018 H1012 0.950 . S
C1018 C1019 1.327 . S
C1019 H1013 0.950 . S
C1019 C1018 1.327 . S
C1019 C1023 1.429 . S
C1020 C1003 1.574 . S
C1020 H1014 0.949 . S
C1020 C1024 1.368 . S
C1021 C1002 1.429 . S
C1021 C1015 1.429 . S
C1021 C1022 1.523 . S
C1022 C1003 1.368 . S
C1022 C1016 1.368 . S
C1022 C1021 1.523 . S
C1023 C1007 1.429 . S
C1023 C1019 1.429 . S
C1023 C1024 1.523 . S
C1024 C1008 1.368 . S
C1024 C1020 1.368 . S
C1024 C1023 1.523 . S
H1025 C1000 0.950 . S
H1026 C1002 0.950 . S
H1027 C1003 0.949 . S
H1028 C1005 0.950 . S
H1029 C1007 0.950 . S
C1030 C1031 1.349 . S
C1030 C1032 1.327 . S
C1030 H1055 0.950 . S
C1031 C1030 1.349 . S
C1031 C1047 1.349 . S
C1032 C1030 1.327 . S
C1032 C1051 1.429 . S
C1032 H1056 0.950 . S
C1033 C1050 1.574 . S
C1033 C1052 1.368 . S
C1033 H1057 0.949 . S
H1034 C1038 0.949 . S
C1035 C1036 1.349 . S
C1035 C1037 1.327 . S
C1035 H1058 0.950 . S
C1036 C1035 1.349 . S
C1036 C1048 1.349 . S
C1037 C1035 1.327 . S
C1037 C1053 1.429 . S
C1037 H1059 0.950 . S
C1038 H1034 0.949 . S
C1038 C1046 1.574 . S
C1038 C1054 1.368 . S
H1039 C1047 0.950 . S
H1040 C1045 0.950 . S
H1041 C1046 0.949 . S
H1042 C1048 0.950 . S
H1043 C1049 0.950 . S
H1044 C1050 0.949 . S
C1045 H1040 0.950 . S
C1045 C1047 1.327 . S
C1045 C1051 1.429 . S
C1046 C1038 1.574 . S
C1046 H1041 0.949 . S
C1046 C1052 1.368 . S
C1047 C1031 1.349 . S
C1047 H1039 0.950 . S
C1047 C1045 1.327 . S
C1048 C1036 1.349 . S
C1048 H1042 0.950 . S
C1048 C1049 1.327 . S
C1049 H1043 0.950 . S
C1049 C1048 1.327 . S
C1049 C1053 1.429 . S
C1050 C1033 1.574 . S
C1050 H1044 0.949 . S
C1050 C1054 1.368 . S
C1051 C1032 1.429 . S
C1051 C1045 1.429 . S
C1051 C1052 1.523 . S
C1052 C1033 1.368 . S
C1052 C1046 1.368 . S
C1052 C1051 1.523 . S
C1053 C1037 1.429 . S
C1053 C1049 1.429 . S
C1053 C1054 1.523 . S
C1054 C1038 1.368 . S
C1054 C1050 1.368 . S
C1054 C1053 1.523 . S
H1055 C1030 0.950 . S
H1056 C1032 0.950 . S
H1057 C1033 0.949 . S
H1058 C1035 0.950 . S
H1059 C1037 0.950 . S
C1060 C1061 1.349 . S
C1060 C1062 1.327 . S
C1060 H1085 0.950 . S
C1061 C1060 1.349 . S
C1061 C1077 1.349 . S
C1062 C1060 1.327 . S
C1062 C1081 1.429 . S
C1062 H1086 0.950 . S
C1063 C1080 1.574 . S
C1063 C1082 1.368 . S
C1063 H1087 0.949 . S
H1064 C1068 0.949 . S
C1065 C1066 1.349 . S
C1065 C1067 1.327 . S
C1065 H1088 0.950 . S
C1066 C1065 1.349 . S
C1066 C1078 1.349 . S
C1067 C1065 1.327 . S
C1067 C1083 1.429 . S
C1067 H1089 0.950 . S
C1068 H1064 0.949 . S
C1068 C1076 1.574 . S
C1068 C1084 1.368 . S
H1069 C1077 0.950 . S
H1070 C1075 0.950 . S
H1071 C1076 0.949 . S
H1072 C1078 0.950 . S
H1073 C1079 0.950 . S
H1074 C1080 0.949 . S
C1075 H1070 0.950 . S
C1075 C1077 1.327 . S
C1075 C1081 1.429 . S
C1076 C1068 1.574 . S
C1076 H1071 0.949 . S
C1076 C1082 1.368 . S
C1077 C1061 1.349 . S
C1077 H1069 0.950 . S
C1077 C1075 1.327 . S
C1078 C1066 1.349 . S
C1078 H1072 0.950 . S
C1078 C1079 1.327 . S
C1079 H1073 0.950 . S
C1079 C1078 1.327 . S
C1079 C1083 1.429 . S
C1080 C1063 1.574 . S
C1080 H1074 0.949 . S
C1080 C1084 1.368 . S
C1081 C1062 1.429 . S
C1081 C1075 1.429 . S
C1081 C1082 1.523 . S
C1082 C1063 1.368 . S
C1082 C1076 1.368 . S
C1082 C1081 1.523 . S
C1083 C1067 1.429 . S
C1083 C1079 1.429 . S
C1083 C1084 1.523 . S
C1084 C1068 1.368 . S
C1084 C1080 1.368 . S
C1084 C1083 1.523 . S
H1085 C1060 0.950 . S
H1086 C1062 0.950 . S
H1087 C1063 0.949 . S
H1088 C1065 0.950 . S
H1089 C1067 0.950 . S
C1090 C1091 1.349 . S
C1090 C1092 1.327 . S
C1090 H1115 0.950 . S
C1091 C1090 1.349 . S
C1091 C1107 1.349 . S
C1092 C1090 1.327 . S
C1092 C1111 1.429 . S
C1092 H1116 0.950 . S
C1093 C1110 1.574 . S
C1093 C1112 1.368 . S
C1093 H1117 0.949 . S
H1094 C1098 0.949 . S
C1095 C1096 1.349 . S
C1095 C1097 1.327 . S
C1095 H1118 0.950 . S
C1096 C1095 1.349 . S
C1096 C1108 1.349 . S
C1097 C1095 1.327 . S
C1097 C1113 1.429 . S
C1097 H1119 0.950 . S
C1098 H1094 0.949 . S
C1098 C1106 1.574 . S
C1098 C1114 1.368 . S
H1099 C1107 0.950 . S
H1100 C1105 0.950 . S
H1101 C1106 0.949 . S
H1102 C1108 0.950 . S
H1103 C1109 0.950 . S
H1104 C1110 0.949 . S
C1105 H1100 0.950 . S
C1105 C1107 1.327 . S
C1105 C1111 1.429 . S
C1106 C1098 1.574 . S
C1106 H1101 0.949 . S
C1106 C1112 1.368 . S
C1107 C1091 1.349 . S
C1107 H1099 0.950 . S
C1107 C1105 1.327 . S
C1108 C1096 1.349 . S
C1108 H1102 0.950 . S
C1108 C1109 1.327 . S
C1109 H1103 0.950 . S
C1109 C1108 1.327 . S
C1109 C1113 1.429 . S
C1110 C1093 1.574 . S
C1110 H1104 0.949 . S
C1110 C1114 1.368 . S
C1111 C1092 1.429 . S
C1111 C1105 1.429 . S
C1111 C1112 1.523 . S
C1112 C1093 1.368 . S
C1112 C1106 1.368 . S
C1112 C1111 1.523 . S
C1113 C1097 1.429 . S
C1113 C1109 1.429 . S
C1113 C1114 1.523 . S
C1114 C1098 1.368 . S
C1114 C1110 1.368 . S
C1114 C1113 1.523 . S
H1115 C1090 0.950 . S
H1116 C1092 0.950 . S
H1117 C1093 0.949 . S
H1118 C1095 0.950 . S
H1119 C1097 0.950 . S
C1120 C1121 1.349 . S
C1120 C1122 1.327 . S
C1120 H1145 0.950 . S
C1121 C1120 1.349 . S
C1121 C1137 1.349 . S
C1122 C1120 1.327 . S
C1122 C1141 1.429 . S
C1122 H1146 0.950 . S
C1123 C1140 1.574 1_556 S
C1123 C1142 1.368 . S
C1123 H1147 0.949 . S
H1124 C1128 0.949 . S
C1125 C1126 1.349 . S
C1125 C1127 1.327 . S
C1125 H1148 0.950 . S
C1126 C1125 1.349 . S
C1126 C1138 1.349 . S
C1127 C1125 1.327 . S
C1127 C1143 1.429 . S
C1127 H1149 0.950 . S
C1128 H1124 0.949 . S
C1128 C1136 1.574 1_554 S
C1128 C1144 1.368 . S
H1129 C1137 0.950 . S
H1130 C1135 0.950 . S
H1131 C1136 0.949 . S
H1132 C1138 0.950 . S
H1133 C1139 0.950 . S
H1134 C1140 0.949 . S
C1135 H1130 0.950 . S
C1135 C1137 1.327 . S
C1135 C1141 1.429 . S
C1136 C1128 1.574 1_556 S
C1136 H1131 0.949 . S
C1136 C1142 1.368 . S
C1137 C1121 1.349 . S
C1137 H1129 0.950 . S
C1137 C1135 1.327 . S
C1138 C1126 1.349 . S
C1138 H1132 0.950 . S
C1138 C1139 1.327 . S
C1139 H1133 0.950 . S
C1139 C1138 1.327 . S
C1139 C1143 1.429 . S
C1140 C1123 1.574 1_554 S
C1140 H1134 0.949 . S
C1140 C1144 1.368 . S
C1141 C1122 1.429 . S
C1141 C1135 1.429 . S
C1141 C1142 1.523 . S
C1142 C1123 1.368 . S
C1142 C1136 1.368 . S
C1142 C1141 1.523 . S
C1143 C1127 1.429 . S
C1143 C1139 1.429 . S
C1143 C1144 1.523 . S
C1144 C1128 1.368 . S
C1144 C1140 1.368 . S
C1144 C1143 1.523 . S
H1145 C1120 0.950 . S
H1146 C1122 0.950 . S
H1147 C1123 0.949 . S
H1148 C1125 0.950 . S
H1149 C1127 0.950 . S
C1150 C1151 1.349 . S
C1150 C1152 1.327 . S
C1150 H1175 0.950 . S
C1151 C1150 1.349 . S
C1151 C1167 1.349 . S
C1152 C1150 1.327 . S
C1152 C1171 1.429 . S
C1152 H1176 0.950 . S
C1153 C1170 1.574 1_556 S
C1153 C1172 1.368 . S
C1153 H1177 0.949 . S
H1154 C1158 0.949 . S
C1155 C1156 1.349 . S
C1155 C1157 1.327 . S
C1155 H1178 0.950 . S
C1156 C1155 1.349 . S
C1156 C1168 1.349 . S
C1157 C1155 1.327 . S
C1157 C1173 1.429 . S
C1157 H1179 0.950 . S
C1158 H1154 0.949 . S
C1158 C1166 1.574 1_554 S
C1158 C1174 1.368 . S
H1159 C1167 0.950 . S
H1160 C1165 0.950 . S
H1161 C1166 0.949 . S
H1162 C1168 0.950 . S
H1163 C1169 0.950 . S
H1164 C1170 0.949 . S
C1165 H1160 0.950 . S
C1165 C1167 1.327 . S
C1165 C1171 1.429 . S
C1166 C1158 1.574 1_556 S
C1166 H1161 0.949 . S
C1166 C1172 1.368 . S
C1167 C1151 1.349 . S
C1167 H1159 0.950 . S
C1167 C1165 1.327 . S
C1168 C1156 1.349 . S
C1168 H1162 0.950 . S
C1168 C1169 1.327 . S
C1169 H1163 0.950 . S
C1169 C1168 1.327 . S
C1169 C1173 1.429 . S
C1170 C1153 1.574 1_554 S
C1170 H1164 0.949 . S
C1170 C1174 1.368 . S
C1171 C1152 1.429 . S
C1171 C1165 1.429 . S
C1171 C1172 1.523 . S
C1172 C1153 1.368 . S
C1172 C1166 1.368 . S
C1172 C1171 1.523 . S
C1173 C1157 1.429 . S
C1173 C1169 1.429 . S
C1173 C1174 1.523 . S
C1174 C1158 1.368 . S
C1174 C1170 1.368 . S
C1174 C1173 1.523 . S
H1175 C1150 0.950 . S
H1176 C1152 0.950 . S
H1177 C1153 0.949 . S
H1178 C1155 0.950 . S
H1179 C1157 0.950 . S
C1180 C1181 1.349 . S
C1180 C1182 1.327 . S
C1180 H1205 0.950 . S
C1181 C1180 1.349 . S
C1181 C1197 1.349 . S
C1182 C1180 1.327 . S
C1182 C1201 1.429 . S
C1182 H1206 0.950 . S
C1183 C1200 1.574 . S
C1183 C1202 1.368 . S
C1183 H1207 0.949 . S
H1184 C1188 0.949 . S
C1185 C1186 1.349 . S
C1185 C1187 1.327 . S
C1185 H1208 0.950 . S
C1186 C1185 1.349 . S
C1186 C1198 1.349 . S
C1187 C1185 1.327 . S
C1187 C1203 1.429 . S
C1187 H1209 0.950 . S
C1188 H1184 0.949 . S
C1188 C1196 1.574 . S
C1188 C1204 1.368 . S
H1189 C1197 0.950 . S
H1190 C1195 0.950 . S
H1191 C1196 0.949 . S
H1192 C1198 0.950 . S
H1193 C1199 0.950 . S
H1194 C1200 0.949 . S
C1195 H1190 0.950 . S
C1195 C1197 1.327 . S
C1195 C1201 1.429 . S
C1196 C1188 1.574 . S
C1196 H1191 0.949 . S
C1196 C1202 1.368 . S
C1197 C1181 1.349 . S
C1197 H1189 0.950 . S
C1197 C1195 1.327 . S
C1198 C1186 1.349 . S
C1198 H1192 0.950 . S
C1198 C1199 1.327 . S
C1199 H1193 0.950 . S
C1199 C1198 1.327 . S
C1199 C1203 1.429 . S
C1200 C1183 1.574 . S
C1200 H1194 0.949 . S
C1200 C1204 1.368 . S
C1201 C1182 1.429 . S
C1201 C1195 1.429 . S
C1201 C1202 1.523 . S
C1202 C1183 1.368 . S
C1202 C1196 1.368 . S
C1202 C1201 1.523 . S
C1203 C1187 1.429 . S
C1203 C1199 1.429 . S
C1203 C1204 1.523 . S
C1204 C1188 1.368 . S
C1204 C1200 1.368 . S
C1204 C1203 1.523 . S
H1205 C1180 0.950 . S
H1206 C1182 0.950 . S
H1207 C1183 0.949 . S
H1208 C1185 0.950 . S
H1209 C1187 0.950 . S
C1210 C1211 1.349 . S
C1210 C1212 1.327 . S
C1210 H1235 0.950 . S
C1211 C1210 1.349 . S
C1211 C1227 1.349 . S
C1212 C1210 1.327 . S
C1212 C1231 1.429 . S
C1212 H1236 0.950 . S
C1213 C1230 1.574 . S
C1213 C1232 1.368 . S
C1213 H1237 0.949 . S
H1214 C1218 0.949 . S
C1215 C1216 1.349 . S
C1215 C1217 1.327 . S
C1215 H1238 0.950 . S
C1216 C1215 1.349 . S
C1216 C1228 1.349 . S
C1217 C1215 1.327 . S
C1217 C1233 1.429 . S
C1217 H1239 0.950 . S
C1218 H1214 0.949 . S
C1218 C1226 1.574 . S
C1218 C1234 1.368 . S
H1219 C1227 0.950 . S
H1220 C1225 0.950 . S
H1221 C1226 0.949 . S
H1222 C1228 0.950 . S
H1223 C1229 0.950 . S
H1224 C1230 0.949 . S
C1225 H1220 0.950 . S
C1225 C1227 1.327 . S
C1225 C1231 1.429 . S
C1226 C1218 1.574 . S
C1226 H1221 0.949 . S
C1226 C1232 1.368 . S
C1227 C1211 1.349 . S
C1227 H1219 0.950 . S
C1227 C1225 1.327 . S
C1228 C1216 1.349 . S
C1228 H1222 0.950 . S
C1228 C1229 1.327 . S
C1229 H1223 0.950 . S
C1229 C1228 1.327 . S
C1229 C1233 1.429 . S
C1230 C1213 1.574 . S
C1230 H1224 0.949 . S
C1230 C1234 1.368 . S
C1231 C1212 1.429 . S
C1231 C1225 1.429 . S
C1231 C1232 1.523 . S
C1232 C1213 1.368 . S
C1232 C1226 1.368 . S
C1232 C1231 1.523 . S
C1233 C1217 1.429 . S
C1233 C1229 1.429 . S
C1233 C1234 1.523 . S
C1234 C1218 1.368 . S
C1234 C1230 1.368 . S
C1234 C1233 1.523 . S
H1235 C1210 0.950 . S
H1236 C1212 0.950 . S
H1237 C1213 0.949 . S
H1238 C1215 0.950 . S
H1239 C1217 0.950 . S
C1240 C1241 1.349 . S
C1240 C1242 1.327 . S
C1240 H1265 0.950 . S
C1241 C1240 1.349 . S
C1241 C1257 1.349 . S
C1242 C1240 1.327 . S
C1242 C1261 1.429 . S
C1242 H1266 0.950 . S
C1243 C1260 1.574 1_554 S
C1243 C1262 1.368 . S
C1243 H1267 0.949 . S
H1244 C1248 0.949 . S
C1245 C1246 1.349 . S
C1245 C1247 1.327 . S
C1245 H1268 0.950 . S
C1246 C1245 1.349 . S
C1246 C1258 1.349 . S
C1247 C1245 1.327 . S
C1247 C1263 1.429 . S
C1247 H1269 0.950 . S
C1248 H1244 0.949 . S
C1248 C1256 1.574 1_556 S
C1248 C1264 1.368 . S
H1249 C1257 0.950 . S
H1250 C1255 0.950 . S
H1251 C1256 0.949 . S
H1252 C1258 0.950 . S
H1253 C1259 0.950 . S
H1254 C1260 0.949 . S
C1255 H1250 0.950 . S
C1255 C1257 1.327 . S
C1255 C1261 1.429 . S
C1256 C1248 1.574 1_554 S
C1256 H1251 0.949 . S
C1256 C1262 1.368 . S
C1257 C1241 1.349 . S
C1257 H1249 0.950 . S
C1257 C1255 1.327 . S
C1258 C1246 1.349 . S
C1258 H1252 0.950 . S
C1258 C1259 1.327 . S
C1259 H1253 0.950 . S
C1259 C1258 1.327 . S
C1259 C1263 1.429 . S
C1260 C1243 1.574 1_556 S
C1260 H1254 0.949 . S
C1260 C1264 1.368 . S
C1261 C1242 1.429 . S
C1261 C1255 1.429 . S
C1261 C1262 1.523 . S
C1262 C1243 1.368 . S
C1262 C1256 1.368 . S
C1262 C1261 1.523 . S
C1263 C1247 1.429 . S
C1263 C1259 1.429 . S
C1263 C1264 1.523 . S
C1264 C1248 1.368 . S
C1264 C1260 1.368 . S
C1264 C1263 1.523 . S
H1265 C1240 0.950 . S
H1266 C1242 0.950 . S
H1267 C1243 0.949 . S
H1268 C1245 0.950 . S
H1269 C1247 0.950 . S
C1270 C1271 1.349 . S
C1270 C1272 1.327 . S
C1270 H1295 0.950 . S
C1271 C1270 1.349 . S
C1271 C1287 1.349 . S
C1272 C1270 1.327 . S
C1272 C1291 1.429 . S
C1272 H1296 0.950 . S
C1273 C1290 1.574 1_556 S
C1273 C1292 1.368 . S
C1273 H1297 0.949 . S
H1274 C1278 0.949 . S
C1275 C1276 1.349 . S
C1275 C1277 1.327 . S
C1275 H1298 0.950 . S
C1276 C1275 1.349 . S
C1276 C1288 1.349 . S
C1277 C1275 1.327 . S
C1277 C1293 1.429 . S
C1277 H1299 0.950 . S
C1278 H1274 0.949 . S
C1278 C1286 1.574 1_554 S
C1278 C1294 1.368 . S
H1279 C1287 0.950 . S
H1280 C1285 0.950 . S
H1281 C1286 0.949 . S
H1282 C1288 0.950 . S
H1283 C1289 0.950 . S
H1284 C1290 0.949 . S
C1285 H1280 0.950 . S
C1285 C1287 1.327 . S
C1285 C1291 1.429 . S
C1286 C1278 1.574 1_556 S
C1286 H1281 0.949 . S
C1286 C1292 1.368 . S
C1287 C1271 1.349 . S
C1287 H1279 0.950 . S
C1287 C1285 1.327 . S
C1288 C1276 1.349 . S
C1288 H1282 0.950 . S
C1288 C1289 1.327 . S
C1289 H1283 0.950 . S
C1289 C1288 1.327 . S
C1289 C1293 1.429 . S
C1290 C1273 1.574 1_554 S
C1290 H1284 0.949 . S
C1290 C1294 1.368 . S
C1291 C1272 1.429 . S
C1291 C1285 1.429 . S
C1291 C1292 1.523 . S
C1292 C1273 1.368 . S
C1292 C1286 1.368 . S
C1292 C1291 1.523 . S
C1293 C1277 1.429 . S
C1293 C1289 1.429 . S
C1293 C1294 1.523 . S
C1294 C1278 1.368 . S
C1294 C1290 1.368 . S
C1294 C1293 1.523 . S
H1295 C1270 0.950 . S
H1296 C1272 0.950 . S
H1297 C1273 0.949 . S
H1298 C1275 0.950 . S
H1299 C1277 0.950 . S
C1300 C1301 1.349 . S
C1300 C1302 1.327 . S
C1300 H1325 0.950 . S
C1301 C1300 1.349 . S
C1301 C1317 1.349 . S
C1302 C1300 1.327 . S
C1302 C1321 1.429 . S
C1302 H1326 0.950 . S
C1303 C1320 1.574 . S
C1303 C1322 1.368 . S
C1303 H1327 0.949 . S
H1304 C1308 0.949 . S
C1305 C1306 1.349 . S
C1305 C1307 1.327 . S
C1305 H1328 0.950 . S
C1306 C1305 1.349 . S
C1306 C1318 1.349 . S
C1307 C1305 1.327 . S
C1307 C1323 1.429 . S
C1307 H1329 0.950 . S
C1308 H1304 0.949 . S
C1308 C1316 1.574 . S
C1308 C1324 1.368 . S
H1309 C1317 0.950 . S
H1310 C1315 0.950 . S
H1311 C1316 0.949 . S
H1312 C1318 0.950 . S
H1313 C1319 0.950 . S
H1314 C1320 0.949 . S
C1315 H1310 0.950 . S
C1315 C1317 1.327 . S
C1315 C1321 1.429 . S
C1316 C1308 1.574 . S
C1316 H1311 0.949 . S
C1316 C1322 1.368 . S
C1317 C1301 1.349 . S
C1317 H1309 0.950 . S
C1317 C1315 1.327 . S
C1318 C1306 1.349 . S
C1318 H1312 0.950 . S
C1318 C1319 1.327 . S
C1319 H1313 0.950 . S
C1319 C1318 1.327 . S
C1319 C1323 1.429 . S
C1320 C1303 1.574 . S
C1320 H1314 0.949 . S
C1320 C1324 1.368 . S
C1321 C1302 1.429 . S
C1321 C1315 1.429 . S
C1321 C1322 1.523 . S
C1322 C1303 1.368 . S
C1322 C1316 1.368 . S
C1322 C1321 1.523 . S
C1323 C1307 1.429 . S
C1323 C1319 1.429 . S
C1323 C1324 1.523 . S
C1324 C1308 1.368 . S
C1324 C1320 1.368 . S
C1324 C1323 1.523 . S
H1325 C1300 0.950 . S
H1326 C1302 0.950 . S
H1327 C1303 0.949 . S
H1328 C1305 0.950 . S
H1329 C1307 0.950 . S
C1330 C1331 1.349 . S
C1330 C1332 1.327 . S
C1330 H1355 0.950 . S
C1331 C1330 1.349 . S
C1331 C1347 1.349 . S
C1332 C1330 1.327 . S
C1332 C1351 1.429 . S
C1332 H1356 0.950 . S
C1333 C1350 1.574 . S
C1333 C1352 1.368 . S
C1333 H1357 0.949 . S
H1334 C1338 0.949 . S
C1335 C1336 1.349 . S
C1335 C1337 1.327 . S
C1335 H1358 0.950 . S
C1336 C1335 1.349 . S
C1336 C1348 1.349 . S
C1337 C1335 1.327 . S
C1337 C1353 1.429 . S
C1337 H1359 0.950 . S
C1338 H1334 0.949 . S
C1338 C1346 1.574 . S
C1338 C1354 1.368 . S
H1339 C1347 0.950 . S
H1340 C1345 0.950 . S
H1341 C1346 0.949 . S
H1342 C1348 0.950 . S
H1343 C1349 0.950 . S
H1344 C1350 0.949 . S
C1345 H1340 0.950 . S
C1345 C1347 1.327 . S
C1345 C1351 1.429 . S
C1346 C1338 1.574 . S
C1346 H1341 0.949 . S
C1346 C1352 1.368 . S
C1347 C1331 1.349 . S
C1347 H1339 0.950 . S
C1347 C1345 1.327 . S
C1348 C1336 1.349 . S
C1348 H1342 0.950 . S
C1348 C1349 1.327 . S
C1349 H1343 0.950 . S
C1349 C1348 1.327 . S
C1349 C1353 1.429 . S
C1350 C1333 1.574 . S
C1350 H1344 0.949 . S
C1350 C1354 1.368 . S
C1351 C1332 1.429 . S
C1351 C1345 1.429 . S
C1351 C1352 1.523 . S
C1352 C1333 1.368 . S
C1352 C1346 1.368 . S
C1352 C1351 1.523 . S
C1353 C1337 1.429 . S
C1353 C1349 1.429 . S
C1353 C1354 1.523 . S
C1354 C1338 1.368 . S
C1354 C1350 1.368 . S
C1354 C1353 1.523 . S
H1355 C1330 0.950 . S
H1356 C1332 0.950 . S
H1357 C1333 0.949 . S
H1358 C1335 0.950 . S
H1359 C1337 0.950 . S
C1360 C1361 1.349 . S
C1360 C1362 1.327 . S
C1360 H1385 0.950 . S
C1361 C1360 1.349 . S
C1361 C1377 1.349 . S
C1362 C1360 1.327 . S
C1362 C1381 1.429 . S
C1362 H1386 0.950 . S
C1363 C1380 1.574 1_655 S
C1363 C1382 1.368 1_545 S
C1363 H1387 0.949 . S
H1364 C1368 0.949 . S
C1365 C1366 1.349 . S
C1365 C1367 1.327 . S
C1365 H1388 0.950 . S
C1366 C1365 1.349 . S
C1366 C1378 1.349 . S
C1367 C1365 1.327 . S
C1367 C1383 1.429 . S
C1367 H1389 0.950 . S
C1368 H1364 0.949 . S
C1368 C1376 1.574 1_455 S
C1368 C1384 1.368 1_565 S
H1369 C1377 0.941 1_545 S
H1370 C1375 0.950 1_545 S
H1371 C1376 0.949 . S
H1372 C1378 0.941 1_565 S
H1373 C1379 0.950 1_565 S
H1374 C1380 0.949 . S
C1375 H1370 0.950 1_565 S
C1375 C1377 1.327 . S
C1375 C1381 1.429 . S
C1376 C1368 1.574 1_655 S
C1376 H1371 0.949 . S
C1376 C1382 1.368 . S
C1377 C1361 1.349 . S
C1377 H1369 0.941 1_565 S
C1377 C1375 1.327 . S
C1378 C1366 1.349 . S
C1378 H1372 0.941 1_545 S
C1378 C1379 1.327 . S
C1379 H1373 0.950 1_545 S
C1379 C1378 1.327 . S
C1379 C1383 1.429 . S
C1380 C1363 1.574 1_455 S
C1380 H1374 0.949 . S
C1380 C1384 1.368 . S
C1381 C1362 1.429 . S
C1381 C1375 1.429 . S
C1381 C1382 1.523 . S
C1382 C1363 1.368 1_565 S
C1382 C1376 1.368 . S
C1382 C1381 1.523 . S
C1383 C1367 1.429 . S
C1383 C1379 1.429 . S
C1383 C1384 1.523 . S
C1384 C1368 1.368 1_545 S
C1384 C1380 1.368 . S
C1384 C1383 1.523 . S
H1385 C1360 0.950 . S
H1386 C1362 0.950 . S
H1387 C1363 0.949 . S
H1388 C1365 0.950 . S
H1389 C1367 0.950 . S
C1390 C1391 1.349 . S
C1390 C1392 1.327 . S
C1390 H1415 0.941 1_545 S
C1391 C1390 1.349 . S
C1391 C1407 1.349 . S
C1392 C1390 1.327 . S
C1392 C1411 1.429 . S
C1392 H1416 0.950 1_545 S
C1393 C1410 1.574 1_655 S
C1393 C1412 1.368 . S
C1393 H1417 0.949 . S
H1394 C1398 0.949 . S
C1395 C1396 1.349 . S
C1395 C1397 1.327 . S
C1395 H1418 0.941 1_565 S
C1396 C1395 1.349 . S
C1396 C1408 1.349 . S
C1397 C1395 1.327 . S
C1397 C1413 1.429 . S
C1397 H1419 0.950 1_565 S
C1398 H1394 0.949 . S
C1398 C1406 1.574 1_455 S
C1398 C1414 1.368 . S
H1399 C1407 0.950 . S
H1400 C1405 0.950 . S
H1401 C1406 0.949 . S
H1402 C1408 0.950 . S
H1403 C1409 0.950 . S
H1404 C1410 0.949 . S
C1405 H1400 0.950 . S
C1405 C1407 1.327 . S
C1405 C1411 1.429 . S
C1406 C1398 1.574 1_655 S
C1406 H1401 0.949 . S
C1406 C1412 1.368 1_565 S
C1407 C1391 1.349 . S
C1407 H1399 0.950 . S
C1407 C1405 1.327 . S
C1408 C1396 1.349 . S
C1408 H1402 0.950 . S
C1408 C1409 1.327 . S
C1409 H1403 0.950 . S
C1409 C1408 1.327 . S
C1409 C1413 1.429 . S
C1410 C1393 1.574 1_455 S
C1410 H1404 0.949 . S
C1410 C1414 1.368 1_545 S
C1411 C1392 1.429 . S
C1411 C1405 1.429 . S
C1411 C1412 1.523 . S
C1412 C1393 1.368 . S
C1412 C1406 1.368 1_545 S
C1412 C1411 1.523 . S
C1413 C1397 1.429 . S
C1413 C1409 1.429 . S
C1413 C1414 1.523 . S
C1414 C1398 1.368 . S
C1414 C1410 1.368 1_565 S
C1414 C1413 1.523 . S
H1415 C1390 0.941 1_565 S
H1416 C1392 0.950 1_565 S
H1417 C1393 0.949 . S
H1418 C1395 0.941 1_545 S
H1419 C1397 0.950 1_545 S
C1420 C1421 1.349 . S
C1420 C1422 1.327 . S
C1420 H1445 0.950 . S
C1421 C1420 1.349 . S
C1421 C1437 1.349 . S
C1422 C1420 1.327 . S
C1422 C1441 1.429 . S
C1422 H1446 0.950 . S
C1423 C1440 1.574 1_455 S
C1423 C1442 1.368 1_565 S
C1423 H1447 0.949 . S
H1424 C1428 0.949 . S
C1425 C1426 1.349 . S
C1425 C1427 1.327 . S
C1425 H1448 0.950 . S
C1426 C1425 1.349 . S
C1426 C1438 1.349 . S
C1427 C1425 1.327 . S
C1427 C1443 1.429 . S
C1427 H1449 0.950 . S
C1428 H1424 0.949 . S
C1428 C1436 1.574 1_655 S
C1428 C1444 1.368 1_545 S
H1429 C1437 0.941 1_565 S
H1430 C1435 0.950 1_565 S
H1431 C1436 0.949 . S
H1432 C1438 0.941 1_545 S
H1433 C1439 0.950 1_545 S
H1434 C1440 0.949 . S
C1435 H1430 0.950 1_545 S
C1435 C1437 1.327 . S
C1435 C1441 1.429 . S
C1436 C1428 1.574 1_455 S
C1436 H1431 0.949 . S
C1436 C1442 1.368 . S
C1437 C1421 1.349 . S
C1437 H1429 0.941 1_545 S
C1437 C1435 1.327 . S
C1438 C1426 1.349 . S
C1438 H1432 0.941 1_565 S
C1438 C1439 1.327 . S
C1439 H1433 0.950 1_565 S
C1439 C1438 1.327 . S
C1439 C1443 1.429 . S
C1440 C1423 1.574 1_655 S
C1440 H1434 0.949 . S
C1440 C1444 1.368 . S
C1441 C1422 1.429 . S
C1441 C1435 1.429 . S
C1441 C1442 1.523 . S
C1442 C1423 1.368 1_545 S
C1442 C1436 1.368 . S
C1442 C1441 1.523 . S
C1443 C1427 1.429 . S
C1443 C1439 1.429 . S
C1443 C1444 1.523 . S
C1444 C1428 1.368 1_565 S
C1444 C1440 1.368 . S
C1444 C1443 1.523 . S
H1445 C1420 0.950 . S
H1446 C1422 0.950 . S
H1447 C1423 0.949 . S
H1448 C1425 0.950 . S
H1449 C1427 0.950 . S
C1450 C1451 1.349 . S
C1450 C1452 1.327 . S
C1450 H1475 0.941 1_545 S
C1451 C1450 1.349 . S
C1451 C1467 1.349 . S
C1452 C1450 1.327 . S
C1452 C1471 1.429 . S
C1452 H1476 0.950 1_545 S
C1453 C1470 1.574 1_655 S
C1453 C1472 1.368 . S
C1453 H1477 0.949 . S
H1454 C1458 0.949 . S
C1455 C1456 1.349 . S
C1455 C1457 1.327 . S
C1455 H1478 0.941 1_565 S
C1456 C1455 1.349 . S
C1456 C1468 1.349 . S
C1457 C1455 1.327 . S
C1457 C1473 1.429 . S
C1457 H1479 0.950 1_565 S
C1458 H1454 0.949 . S
C1458 C1466 1.574 1_455 S
C1458 C1474 1.368 . S
H1459 C1467 0.950 . S
H1460 C1465 0.950 . S
H1461 C1466 0.949 . S
H1462 C1468 0.950 . S
H1463 C1469 0.950 . S
H1464 C1470 0.949 . S
C1465 H1460 0.950 . S
C1465 C1467 1.327 . S
C1465 C1471 1.429 . S
C1466 C1458 1.574 1_655 S
C1466 H1461 0.949 . S
C1466 C1472 1.368 1_565 S
C1467 C1451 1.349 . S
C1467 H1459 0.950 . S
C1467 C1465 1.327 . S
C1468 C1456 1.349 . S
C1468 H1462 0.950 . S
C1468 C1469 1.327 . S
C1469 H1463 0.950 . S
C1469 C1468 1.327 . S
C1469 C1473 1.429 . S
C1470 C1453 1.574 1_455 S
C1470 H1464 0.949 . S
C1470 C1474 1.368 1_545 S
C1471 C1452 1.429 . S
C1471 C1465 1.429 . S
C1471 C1472 1.523 . S
C1472 C1453 1.368 . S
C1472 C1466 1.368 1_545 S
C1472 C1471 1.523 . S
C1473 C1457 1.429 . S
C1473 C1469 1.429 . S
C1473 C1474 1.523 . S
C1474 C1458 1.368 . S
C1474 C1470 1.368 1_565 S
C1474 C1473 1.523 . S
H1475 C1450 0.941 1_565 S
H1476 C1452 0.950 1_565 S
H1477 C1453 0.949 . S
H1478 C1455 0.941 1_545 S
H1479 C1457 0.950 1_545 S
C1480 C1481 1.349 . S
C1480 C1482 1.327 . S
C1480 H1505 0.950 . S
C1481 C1480 1.349 . S
C1481 C1497 1.349 . S
C1482 C1480 1.327 . S
C1482 C1501 1.429 . S
C1482 H1506 0.950 . S
C1483 C1500 1.574 . S
C1483 C1502 1.368 . S
C1483 H1507 0.949 . S
H1484 C1488 0.949 . S
C1485 C1486 1.349 . S
C1485 C1487 1.327 . S
C1485 H1508 0.950 . S
C1486 C1485 1.349 . S
C1486 C1498 1.349 . S
C1487 C1485 1.327 . S
C1487 C1503 1.429 . S
C1487 H1509 0.950 . S
C1488 H1484 0.949 . S
C1488 C1496 1.574 . S
C1488 C1504 1.368 . S
H1489 C1497 0.950 . S
H1490 C1495 0.950 . S
H1491 C1496 0.949 . S
H1492 C1498 0.950 . S
H1493 C1499 0.950 . S
H1494 C1500 0.949 . S
C1495 H1490 0.950 . S
C1495 C1497 1.327 . S
C1495 C1501 1.429 . S
C1496 C1488 1.574 . S
C1496 H1491 0.949 . S
C1496 C1502 1.368 . S
C1497 C1481 1.349 . S
C1497 H1489 0.950 . S
C1497 C1495 1.327 . S
C1498 C1486 1.349 . S
C1498 H1492 0.950 . S
C1498 C1499 1.327 . S
C1499 H1493 0.950 . S
C1499 C1498 1.327 . S
C1499 C1503 1.429 . S
C1500 C1483 1.574 . S
C1500 H1494 0.949 . S
C1500 C1504 1.368 . S
C1501 C1482 1.429 . S
C1501 C1495 1.429 . S
C1501 C1502 1.523 . S
C1502 C1483 1.368 . S
C1502 C1496 1.368 . S
C1502 C1501 1.523 . S
C1503 C1487 1.429 . S
C1503 C1499 1.429 . S
C1503 C1504 1.523 . S
C1504 C1488 1.368 . S
C1504 C1500 1.368 . S
C1504 C1503 1.523 . S
H1505 C1480 0.950 . S
H1506 C1482 0.950 . S
H1507 C1483 0.949 . S
H1508 C1485 0.950 . S
H1509 C1487 0.950 . S
C1510 C1511 1.349 . S
C1510 C1512 1.327 . S
C1510 H1535 0.950 . S
C1511 C1510 1.349 . S
C1511 C1527 1.349 . S
C1512 C1510 1.327 . S
C1512 C1531 1.429 . S
C1512 H1536 0.950 . S
C1513 C1530 1.574 . S
C1513 C1532 1.368 . S
C1513 H1537 0.949 . S
H1514 C1518 0.949 . S
C1515 C1516 1.349 . S
C1515 C1517 1.327 . S
C1515 H1538 0.950 . S
C1516 C1515 1.349 . S
C1516 C1528 1.349 . S
C1517 C1515 1.327 . S
C1517 C1533 1.429 . S
C1517 H1539 0.950 . S
C1518 H1514 0.949 . S
C1518 C1526 1.574 . S
C1518 C1534 1.368 . S
H1519 C1527 0.950 . S
H1520 C1525 0.950 . S
H1521 C1526 0.949 . S
H1522 C1528 0.950 . S
H1523 C1529 0.950 . S
H1524 C1530 0.949 . S
C1525 H1520 0.950 . S
C1525 C1527 1.327 . S
C1525 C1531 1.429 . S
C1526 C1518 1.574 . S
C1526 H1521 0.949 . S
C1526 C1532 1.368 . S
C1527 C1511 1.349 . S
C1527 H1519 0.950 . S
C1527 C1525 1.327 . S
C1528 C1516 1.349 . S
C1528 H1522 0.950 . S
C1528 C1529 1.327 . S
C1529 H1523 0.950 . S
C1529 C1528 1.327 . S
C1529 C1533 1.429 . S
C1530 C1513 1.574 . S
C1530 H1524 0.949 . S
C1530 C1534 1.368 . S
C1531 C1512 1.429 . S
C1531 C1525 1.429 . S
C1531 C1532 1.523 . S
C1532 C1513 1.368 . S
C1532 C1526 1.368 . S
C1532 C1531 1.523 . S
C1533 C1517 1.429 . S
C1533 C1529 1.429 . S
C1533 C1534 1.523 . S
C1534 C1518 1.368 . S
C1534 C1530 1.368 . S
C1534 C1533 1.523 . S
H1535 C1510 0.950 . S
H1536 C1512 0.950 . S
H1537 C1513 0.949 . S
H1538 C1515 0.950 . S
H1539 C1517 0.950 . S
C1540 C1541 1.349 . S
C1540 C1542 1.327 . S
C1540 H1565 0.950 . S
C1541 C1540 1.349 . S
C1541 C1557 1.349 . S
C1542 C1540 1.327 . S
C1542 C1561 1.429 . S
C1542 H1566 0.950 . S
C1543 C1560 1.574 . S
C1543 C1562 1.368 . S
C1543 H1567 0.949 . S
H1544 C1548 0.949 . S
C1545 C1546 1.349 . S
C1545 C1547 1.327 . S
C1545 H1568 0.950 . S
C1546 C1545 1.349 . S
C1546 C1558 1.349 . S
C1547 C1545 1.327 . S
C1547 C1563 1.429 . S
C1547 H1569 0.950 . S
C1548 H1544 0.949 . S
C1548 C1556 1.574 . S
C1548 C1564 1.368 . S
H1549 C1557 0.950 . S
H1550 C1555 0.950 . S
H1551 C1556 0.949 . S
H1552 C1558 0.950 . S
H1553 C1559 0.950 . S
H1554 C1560 0.949 . S
C1555 H1550 0.950 . S
C1555 C1557 1.327 . S
C1555 C1561 1.429 . S
C1556 C1548 1.574 . S
C1556 H1551 0.949 . S
C1556 C1562 1.368 . S
C1557 C1541 1.349 . S
C1557 H1549 0.950 . S
C1557 C1555 1.327 . S
C1558 C1546 1.349 . S
C1558 H1552 0.950 . S
C1558 C1559 1.327 . S
C1559 H1553 0.950 . S
C1559 C1558 1.327 . S
C1559 C1563 1.429 . S
C1560 C1543 1.574 . S
C1560 H1554 0.949 . S
C1560 C1564 1.368 . S
C1561 C1542 1.429 . S
C1561 C1555 1.429 . S
C1561 C1562 1.523 . S
C1562 C1543 1.368 . S
C1562 C1556 1.368 . S
C1562 C1561 1.523 . S
C1563 C1547 1.429 . S
C1563 C1559 1.429 . S
C1563 C1564 1.523 . S
C1564 C1548 1.368 . S
C1564 C1560 1.368 . S
C1564 C1563 1.523 . S
H1565 C1540 0.950 . S
H1566 C1542 0.950 . S
H1567 C1543 0.949 . S
H1568 C1545 0.950 . S
H1569 C1547 0.950 . S
C1570 C1571 1.349 . S
C1570 C1572 1.327 . S
C1570 H1595 0.950 . S
C1571 C1570 1.349 . S
C1571 C1587 1.349 . S
C1572 C1570 1.327 . S
C1572 C1591 1.429 . S
C1572 H1596 0.950 . S
C1573 C1590 1.574 . S
C1573 C1592 1.368 . S
C1573 H1597 0.949 . S
H1574 C1578 0.949 . S
C1575 C1576 1.349 . S
C1575 C1577 1.327 . S
C1575 H1598 0.950 . S
C1576 C1575 1.349 . S
C1576 C1588 1.349 . S
C1577 C1575 1.327 . S
C1577 C1593 1.429 . S
C1577 H1599 0.950 . S
C1578 H1574 0.949 . S
C1578 C1586 1.574 . S
C1578 C1594 1.368 . S
H1579 C1587 0.950 . S
H1580 C1585 0.950 . S
H1581 C1586 0.949 . S
H1582 C1588 0.950 . S
H1583 C1589 0.950 . S
H1584 C1590 0.949 . S
C1585 H1580 0.950 . S
C1585 C1587 1.327 . S
C1585 C1591 1.429 . S
C1586 C1578 1.574 . S
C1586 H1581 0.949 . S
C1586 C1592 1.368 . S
C1587 C1571 1.349 . S
C1587 H1579 0.950 . S
C1587 C1585 1.327 . S
C1588 C1576 1.349 . S
C1588 H1582 0.950 . S
C1588 C1589 1.327 . S
C1589 H1583 0.950 . S
C1589 C1588 1.327 . S
C1589 C1593 1.429 . S
C1590 C1573 1.574 . S
C1590 H1584 0.949 . S
C1590 C1594 1.368 . S
C1591 C1572 1.429 . S
C1591 C1585 1.429 . S
C1591 C1592 1.523 . S
C1592 C1573 1.368 . S
C1592 C1586 1.368 . S
C1592 C1591 1.523 . S
C1593 C1577 1.429 . S
C1593 C1589 1.429 . S
C1593 C1594 1.523 . S
C1594 C1578 1.368 . S
C1594 C1590 1.368 . S
C1594 C1593 1.523 . S
H1595 C1570 0.950 . S
H1596 C1572 0.950 . S
H1597 C1573 0.949 . S
H1598 C1575 0.950 . S
H1599 C1577 0.950 . S
C1600 C1601 1.349 . S
C1600 C1602 1.327 . S
C1600 H1625 0.950 . S
C1601 C1600 1.349 . S
C1601 C1617 1.349 . S
C1602 C1600 1.327 . S
C1602 C1621 1.429 . S
C1602 H1626 0.950 . S
C1603 C1620 1.574 . S
C1603 C1622 1.368 . S
C1603 H1627 0.949 . S
H1604 C1608 0.949 . S
C1605 C1606 1.349 . S
C1605 C1607 1.327 . S
C1605 H1628 0.950 . S
C1606 C1605 1.349 . S
C1606 C1618 1.349 . S
C1607 C1605 1.327 . S
C1607 C1623 1.429 . S
C1607 H1629 0.950 . S
C1608 H1604 0.949 . S
C1608 C1616 1.574 . S
C1608 C1624 1.368 . S
H1609 C1617 0.950 . S
H1610 C1615 0.950 . S
H1611 C1616 0.949 . S
H1612 C1618 0.950 . S
H1613 C1619 0.950 . S
H1614 C1620 0.949 . S
C1615 H1610 0.950 . S
C1615 C1617 1.327 . S
C1615 C1621 1.429 . S
C1616 C1608 1.574 . S
C1616 H1611 0.949 . S
C1616 C1622 1.368 . S
C1617 C1601 1.349 . S
C1617 H1609 0.950 . S
C1617 C1615 1.327 . S
C1618 C1606 1.349 . S
C1618 H1612 0.950 . S
C1618 C1619 1.327 . S
C1619 H1613 0.950 . S
C1619 C1618 1.327 . S
C1619 C1623 1.429 . S
C1620 C1603 1.574 . S
C1620 H1614 0.949 . S
C1620 C1624 1.368 . S
C1621 C1602 1.429 . S
C1621 C1615 1.429 . S
C1621 C1622 1.523 . S
C1622 C1603 1.368 . S
C1622 C1616 1.368 . S
C1622 C1621 1.523 . S
C1623 C1607 1.429 . S
C1623 C1619 1.429 . S
C1623 C1624 1.523 . S
C1624 C1608 1.368 . S
C1624 C1620 1.368 . S
C1624 C1623 1.523 . S
H1625 C1600 0.950 . S
H1626 C1602 0.950 . S
H1627 C1603 0.949 . S
H1628 C1605 0.950 . S
H1629 C1607 0.950 . S
C1630 C1631 1.349 . S
C1630 C1632 1.327 . S
C1630 H1655 0.950 . S
C1631 C1630 1.349 . S
C1631 C1647 1.349 . S
C1632 C1630 1.327 . S
C1632 C1651 1.429 . S
C1632 H1656 0.950 . S
C1633 C1650 1.574 . S
C1633 C1652 1.368 . S
C1633 H1657 0.949 . S
H1634 C1638 0.949 . S
C1635 C1636 1.349 . S
C1635 C1637 1.327 . S
C1635 H1658 0.950 . S
C1636 C1635 1.349 . S
C1636 C1648 1.349 . S
C1637 C1635 1.327 . S
C1637 C1653 1.429 . S
C1637 H1659 0.950 . S
C1638 H1634 0.949 . S
C1638 C1646 1.574 . S
C1638 C1654 1.368 . S
H1639 C1647 0.950 . S
H1640 C1645 0.950 . S
H1641 C1646 0.949 . S
H1642 C1648 0.950 . S
H1643 C1649 0.950 . S
H1644 C1650 0.949 . S
C1645 H1640 0.950 . S
C1645 C1647 1.327 . S
C1645 C1651 1.429 . S
C1646 C1638 1.574 . S
C1646 H1641 0.949 . S
C1646 C1652 1.368 . S
C1647 C1631 1.349 . S
C1647 H1639 0.950 . S
C1647 C1645 1.327 . S
C1648 C1636 1.349 . S
C1648 H1642 0.950 . S
C1648 C1649 1.327 . S
C1649 H1643 0.950 . S
C1649 C1648 1.327 . S
C1649 C1653 1.429 . S
C1650 C1633 1.574 . S
C1650 H1644 0.949 . S
C1650 C1654 1.368 . S
C1651 C1632 1.429 . S
C1651 C1645 1.429 . S
C1651 C1652 1.523 . S
C1652 C1633 1.368 . S
C1652 C1646 1.368 . S
C1652 C1651 1.523 . S
C1653 C1637 1.429 . S
C1653 C1649 1.429 . S
C1653 C1654 1.523 . S
C1654 C1638 1.368 . S
C1654 C1650 1.368 . S
C1654 C1653 1.523 . S
H1655 C1630 0.950 . S
H1656 C1632 0.950 . S
H1657 C1633 0.949 . S
H1658 C1635 0.950 . S
H1659 C1637 0.950 . S
C1660 C1661 1.349 . S
C1660 C1662 1.327 . S
C1660 H1685 0.950 . S
C1661 C1660 1.349 . S
C1661 C1677 1.349 . S
C1662 C1660 1.327 . S
C1662 C1681 1.429 . S
C1662 H1686 0.950 . S
C1663 C1680 1.574 . S
C1663 C1682 1.368 . S
C1663 H1687 0.949 . S
H1664 C1668 0.949 . S
C1665 C1666 1.349 . S
C1665 C1667 1.327 . S
C1665 H1688 0.950 . S
C1666 C1665 1.349 . S
C1666 C1678 1.349 . S
C1667 C1665 1.327 . S
C1667 C1683 1.429 . S
C1667 H1689 0.950 . S
C1668 H1664 0.949 . S
C1668 C1676 1.574 . S
C1668 C1684 1.368 . S
H1669 C1677 0.950 . S
H1670 C1675 0.950 . S
H1671 C1676 0.949 . S
H1672 C1678 0.950 . S
H1673 C1679 0.950 . S
H1674 C1680 0.949 . S
C1675 H1670 0.950 . S
C1675 C1677 1.327 . S
C1675 C1681 1.429 . S
C1676 C1668 1.574 . S
C1676 H1671 0.949 . S
C1676 C1682 1.368 . S
C1677 C1661 1.349 . S
C1677 H1669 0.950 . S
C1677 C1675 1.327 . S
C1678 C1666 1.349 . S
C1678 H1672 0.950 . S
C1678 C1679 1.327 . S
C1679 H1673 0.950 . S
C1679 C1678 1.327 . S
C1679 C1683 1.429 . S
C1680 C1663 1.574 . S
C1680 H1674 0.949 . S
C1680 C1684 1.368 . S
C1681 C1662 1.429 . S
C1681 C1675 1.429 . S
C1681 C1682 1.523 . S
C1682 C1663 1.368 . S
C1682 C1676 1.368 . S
C1682 C1681 1.523 . S
C1683 C1667 1.429 . S
C1683 C1679 1.429 . S
C1683 C1684 1.523 . S
C1684 C1668 1.368 . S
C1684 C1680 1.368 . S
C1684 C1683 1.523 . S
H1685 C1660 0.950 . S
H1686 C1662 0.950 . S
H1687 C1663 0.949 . S
H1688 C1665 0.950 . S
H1689 C1667 0.950 . S
C1690 C1691 1.349 . S
C1690 C1692 1.327 . S
C1690 H1715 0.950 . S
C1691 C1690 1.349 . S
C1691 C1707 1.349 . S
C1692 C1690 1.327 . S
C1692 C1711 1.429 . S
C1692 H1716 0.950 . S
C1693 C1710 1.574 . S
C1693 C1712 1.368 . S
C1693 H1717 0.949 . S
H1694 C1698 0.949 . S
C1695 C1696 1.349 . S
C1695 C1697 1.327 . S
C1695 H1718 0.950 . S
C1696 C1695 1.349 . S
C1696 C1708 1.349 . S
C1697 C1695 1.327 . S
C1697 C1713 1.429 . S
C1697 H1719 0.950 . S
C1698 H1694 0.949 . S
C1698 C1706 1.574 . S
C1698 C1714 1.368 . S
H1699 C1707 0.950 . S
H1700 C1705 0.950 . S
H1701 C1706 0.949 . S
H1702 C1708 0.950 . S
H1703 C1709 0.950 . S
H1704 C1710 0.949 . S
C1705 H1700 0.950 . S
C1705 C1707 1.327 . S
C1705 C1711 1.429 . S
C1706 C1698 1.574 . S
C1706 H1701 0.949 . S
C1706 C1712 1.368 . S
C1707 C1691 1.349 . S
C1707 H1699 0.950 . S
C1707 C1705 1.327 . S
C1708 C1696 1.349 . S
C1708 H1702 0.950 . S
C1708 C1709 1.327 . S
C1709 H1703 0.950 . S
C1709 C1708 1.327 . S
C1709 C1713 1.429 . S
C1710 C1693 1.574 . S
C1710 H1704 0.949 . S
C1710 C1714 1.368 . S
C1711 C1692 1.429 . S
C1711 C1705 1.429 . S
C1711 C1712 1.523 . S
C1712 C1693 1.368 . S
C1712 C1706 1.368 . S
C1712 C1711 1.523 . S
C1713 C1697 1.429 . S
C1713 C1709 1.429 . S
C1713 C1714 1.523 . S
C1714 C1698 1.368 . S
C1714 C1710 1.368 . S
C1714 C1713 1.523 . S
H1715 C1690 0.950 . S
H1716 C1692 0.950 . S
H1717 C1693 0.949 . S
H1718 C1695 0.950 . S
H1719 C1697 0.950 . S
C1720 C1721 1.349 . S
C1720 C1722 1.327 . S
C1720 H1745 0.950 . S
C1721 C1720 1.349 . S
C1721 C1737 1.349 . S
C1722 C1720 1.327 . S
C1722 C1741 1.429 . S
C1722 H1746 0.950 . S
C1723 C1740 1.574 . S
C1723 C1742 1.368 . S
C1723 H1747 0.949 . S
H1724 C1728 0.949 . S
C1725 C1726 1.349 . S
C1725 C1727 1.327 . S
C1725 H1748 0.950 . S
C1726 C1725 1.349 . S
C1726 C1738 1.349 . S
C1727 C1725 1.327 . S
C1727 C1743 1.429 . S
C1727 H1749 0.950 . S
C1728 H1724 0.949 . S
C1728 C1736 1.574 . S
C1728 C1744 1.368 . S
H1729 C1737 0.950 . S
H1730 C1735 0.950 . S
H1731 C1736 0.949 . S
H1732 C1738 0.950 . S
H1733 C1739 0.950 . S
H1734 C1740 0.949 . S
C1735 H1730 0.950 . S
C1735 C1737 1.327 . S
C1735 C1741 1.429 . S
C1736 C1728 1.574 . S
C1736 H1731 0.949 . S
C1736 C1742 1.368 . S
C1737 C1721 1.349 . S
C1737 H1729 0.950 . S
C1737 C1735 1.327 . S
C1738 C1726 1.349 . S
C1738 H1732 0.950 . S
C1738 C1739 1.327 . S
C1739 H1733 0.950 . S
C1739 C1738 1.327 . S
C1739 C1743 1.429 . S
C1740 C1723 1.574 . S
C1740 H1734 0.949 . S
C1740 C1744 1.368 . S
C1741 C1722 1.429 . S
C1741 C1735 1.429 . S
C1741 C1742 1.523 . S
C1742 C1723 1.368 . S
C1742 C1736 1.368 . S
C1742 C1741 1.523 . S
C1743 C1727 1.429 . S
C1743 C1739 1.429 . S
C1743 C1744 1.523 . S
C1744 C1728 1.368 . S
C1744 C1740 1.368 . S
C1744 C1743 1.523 . S
H1745 C1720 0.950 . S
H1746 C1722 0.950 . S
H1747 C1723 0.949 . S
H1748 C1725 0.950 . S
H1749 C1727 0.950 . S
C1750 C1751 1.349 . S
C1750 C1752 1.327 . S
C1750 H1775 0.950 . S
C1751 C1750 1.349 . S
C1751 C1767 1.349 . S
C1752 C1750 1.327 . S
C1752 C1771 1.429 . S
C1752 H1776 0.950 . S
C1753 C1770 1.574 . S
C1753 C1772 1.368 . S
C1753 H1777 0.949 . S
H1754 C1758 0.949 . S
C1755 C1756 1.349 . S
C1755 C1757 1.327 . S
C1755 H1778 0.950 . S
C1756 C1755 1.349 . S
C1756 C1768 1.349 . S
C1757 C1755 1.327 . S
C1757 C1773 1.429 . S
C1757 H1779 0.950 . S
C1758 H1754 0.949 . S
C1758 C1766 1.574 . S
C1758 C1774 1.368 . S
H1759 C1767 0.950 . S
H1760 C1765 0.950 . S
H1761 C1766 0.949 . S
H1762 C1768 0.950 . S
H1763 C1769 0.950 . S
H1764 C1770 0.949 . S
C1765 H1760 0.950 . S
C1765 C1767 1.327 . S
C1765 C1771 1.429 . S
C1766 C1758 1.574 . S
C1766 H1761 0.949 . S
C1766 C1772 1.368 . S
C1767 C1751 1.349 . S
C1767 H1759 0.950 . S
C1767 C1765 1.327 . S
C1768 C1756 1.349 . S
C1768 H1762 0.950 . S
C1768 C1769 1.327 . S
C1769 H1763 0.950 . S
C1769 C1768 1.327 . S
C1769 C1773 1.429 . S
C1770 C1753 1.574 . S
C1770 H1764 0.949 . S
C1770 C1774 1.368 . S
C1771 C1752 1.429 . S
C1771 C1765 1.429 . S
C1771 C1772 1.523 . S
C1772 C1753 1.368 . S
C1772 C1766 1.368 . S
C1772 C1771 1.523 . S
C1773 C1757 1.429 . S
C1773 C1769 1.429 . S
C1773 C1774 1.523 . S
C1774 C1758 1.368 . S
C1774 C1770 1.368 . S
C1774 C1773 1.523 . S
H1775 C1750 0.950 . S
H1776 C1752 0.950 . S
H1777 C1753 0.949 . S
H1778 C1755 0.950 . S
H1779 C1757 0.950 . S
C1780 C1781 1.349 . S
C1780 C1782 1.327 . S
C1780 H1805 0.950 . S
C1781 C1780 1.349 . S
C1781 C1797 1.349 . S
C1782 C1780 1.327 . S
C1782 C1801 1.429 . S
C1782 H1806 0.950 . S
C1783 C1800 1.574 . S
C1783 C1802 1.368 . S
C1783 H1807 0.949 . S
H1784 C1788 0.949 . S
C1785 C1786 1.349 . S
C1785 C1787 1.327 . S
C1785 H1808 0.950 . S
C1786 C1785 1.349 . S
C1786 C1798 1.349 . S
C1787 C1785 1.327 . S
C1787 C1803 1.429 . S
C1787 H1809 0.950 . S
C1788 H1784 0.949 . S
C1788 C1796 1.574 . S
C1788 C1804 1.368 . S
H1789 C1797 0.950 . S
H1790 C1795 0.950 . S
H1791 C1796 0.949 . S
H1792 C1798 0.950 . S
H1793 C1799 0.950 . S
H1794 C1800 0.949 . S
C1795 H1790 0.950 . S
C1795 C1797 1.327 . S
C1795 C1801 1.429 . S
C1796 C1788 1.574 . S
C1796 H1791 0.949 . S
C1796 C1802 1.368 . S
C1797 C1781 1.349 . S
C1797 H1789 0.950 . S
C1797 C1795 1.327 . S
C1798 C1786 1.349 . S
C1798 H1792 0.950 . S
C1798 C1799 1.327 . S
C1799 H1793 0.950 . S
C1799 C1798 1.327 . S
C1799 C1803 1.429 . S
C1800 C1783 1.574 . S
C1800 H1794 0.949 . S
C1800 C1804 1.368 . S
C1801 C1782 1.429 . S
C1801 C1795 1.429 . S
C1801 C1802 1.523 . S
C1802 C1783 1.368 . S
C1802 C1796 1.368 . S
C1802 C1801 1.523 . S
C1803 C1787 1.429 . S
C1803 C1799 1.429 . S
C1803 C1804 1.523 . S
C1804 C1788 1.368 . S
C1804 C1800 1.368 . S
C1804 C1803 1.523 . S
H1805 C1780 0.950 . S
H1806 C1782 0.950 . S
H1807 C1783 0.949 . S
H1808 C1785 0.950 . S
H1809 C1787 0.950 . S
C1810 C1811 1.349 . S
C1810 C1812 1.327 . S
C1810 H1835 0.950 . S
C1811 C1810 1.349 . S
C1811 C1827 1.349 . S
C1812 C1810 1.327 . S
C1812 C1831 1.429 . S
C1812 H1836 0.950 . S
C1813 C1830 1.574 . S
C1813 C1832 1.368 . S
C1813 H1837 0.949 . S
H1814 C1818 0.949 . S
C1815 C1816 1.349 . S
C1815 C1817 1.327 . S
C1815 H1838 0.950 . S
C1816 C1815 1.349 . S
C1816 C1828 1.349 . S
C1817 C1815 1.327 . S
C1817 C1833 1.429 . S
C1817 H1839 0.950 . S
C1818 H1814 0.949 . S
C1818 C1826 1.574 . S
C1818 C1834 1.368 . S
H1819 C1827 0.950 . S
H1820 C1825 0.950 . S
H1821 C1826 0.949 . S
H1822 C1828 0.950 . S
H1823 C1829 0.950 . S
H1824 C1830 0.949 . S
C1825 H1820 0.950 . S
C1825 C1827 1.327 . S
C1825 C1831 1.429 . S
C1826 C1818 1.574 . S
C1826 H1821 0.949 . S
C1826 C1832 1.368 . S
C1827 C1811 1.349 . S
C1827 H1819 0.950 . S
C1827 C1825 1.327 . S
C1828 C1816 1.349 . S
C1828 H1822 0.950 . S
C1828 C1829 1.327 . S
C1829 H1823 0.950 . S
C1829 C1828 1.327 . S
C1829 C1833 1.429 . S
C1830 C1813 1.574 . S
C1830 H1824 0.949 . S
C1830 C1834 1.368 . S
C1831 C1812 1.429 . S
C1831 C1825 1.429 . S
C1831 C1832 1.523 . S
C1832 C1813 1.368 . S
C1832 C1826 1.368 . S
C1832 C1831 1.523 . S
C1833 C1817 1.429 . S
C1833 C1829 1.429 . S
C1833 C1834 1.523 . S
C1834 C1818 1.368 . S
C1834 C1830 1.368 . S
C1834 C1833 1.523 . S
H1835 C1810 0.950 . S
H1836 C1812 0.950 . S
H1837 C1813 0.949 . S
H1838 C1815 0.950 . S
H1839 C1817 0.950 . S
C1840 C1841 1.349 . S
C1840 C1842 1.327 . S
C1840 H1865 0.950 . S
C1841 C1840 1.349 . S
C1841 C1857 1.349 . S
C1842 C1840 1.327 . S
C1842 C1861 1.429 1_565 S
C1842 H1866 0.950 . S
C1843 C1860 1.574 . S
C1843 C1862 1.368 . S
C1843 H1867 0.949 . S
H1844 C1848 0.949 . S
C1845 C1846 1.349 . S
C1845 C1847 1.327 . S
C1845 H1868 0.950 . S
C1846 C1845 1.349 . S
C1846 C1858 1.349 . S
C1847 C1845 1.327 . S
C1847 C1863 1.429 . S
C1847 H1869 0.950 . S
C1848 H1844 0.949 . S
C1848 C1856 1.574 . S
C1848 C1864 1.368 . S
H1849 C1857 0.950 . S
H1850 C1855 0.950 1_545 S
H1851 C1856 0.949 . S
H1852 C1858 0.950 . S
H1853 C1859 0.950 . S
H1854 C1860 0.949 . S
C1855 H1850 0.950 1_565 S
C1855 C1857 1.327 . S
C1855 C1861 1.429 1_565 S
C1856 C1848 1.574 . S
C1856 H1851 0.949 . S
C1856 C1862 1.368 . S
C1857 C1841 1.349 . S
C1857 H1849 0.950 . S
C1857 C1855 1.327 . S
C1858 C1846 1.349 . S
C1858 H1852 0.950 . S
C1858 C1859 1.327 . S
C1859 H1853 0.950 . S
C1859 C1858 1.327 . S
C1859 C1863 1.429 . S
C1860 C1843 1.574 . S
C1860 H1854 0.949 . S
C1860 C1864 1.368 . S
C1861 C1842 1.429 1_545 S
C1861 C1855 1.429 1_545 S
C1861 C1862 1.523 . S
C1862 C1843 1.368 . S
C1862 C1856 1.368 . S
C1862 C1861 1.523 . S
C1863 C1847 1.429 . S
C1863 C1859 1.429 . S
C1863 C1864 1.523 . S
C1864 C1848 1.368 . S
C1864 C1860 1.368 . S
C1864 C1863 1.523 . S
H1865 C1840 0.950 . S
H1866 C1842 0.950 . S
H1867 C1843 0.949 . S
H1868 C1845 0.950 . S
H1869 C1847 0.950 . S
C1870 C1871 1.349 . S
C1870 C1872 1.327 . S
C1870 H1895 0.950 . S
C1871 C1870 1.349 . S
C1871 C1887 1.349 . S
C1872 C1870 1.327 . S
C1872 C1891 1.429 . S
C1872 H1896 0.950 . S
C1873 C1890 1.574 . S
C1873 C1892 1.368 . S
C1873 H1897 0.949 . S
H1874 C1878 0.949 . S
C1875 C1876 1.349 . S
C1875 C1877 1.327 . S
C1875 H1898 0.950 . S
C1876 C1875 1.349 . S
C1876 C1888 1.349 . S
C1877 C1875 1.327 . S
C1877 C1893 1.429 1_545 S
C1877 H1899 0.950 1_545 S
C1878 H1874 0.949 . S
C1878 C1886 1.574 . S
C1878 C1894 1.368 . S
H1879 C1887 0.950 . S
H1880 C1885 0.950 . S
H1881 C1886 0.949 . S
H1882 C1888 0.950 . S
H1883 C1889 0.950 . S
H1884 C1890 0.949 . S
C1885 H1880 0.950 . S
C1885 C1887 1.327 . S
C1885 C1891 1.429 . S
C1886 C1878 1.574 . S
C1886 H1881 0.949 . S
C1886 C1892 1.368 . S
C1887 C1871 1.349 . S
C1887 H1879 0.950 . S
C1887 C1885 1.327 . S
C1888 C1876 1.349 . S
C1888 H1882 0.950 . S
C1888 C1889 1.327 . S
C1889 H1883 0.950 . S
C1889 C1888 1.327 . S
C1889 C1893 1.429 1_545 S
C1890 C1873 1.574 . S
C1890 H1884 0.949 . S
C1890 C1894 1.368 . S
C1891 C1872 1.429 . S
C1891 C1885 1.429 . S
C1891 C1892 1.523 . S
C1892 C1873 1.368 . S
C1892 C1886 1.368 . S
C1892 C1891 1.523 . S
C1893 C1877 1.429 1_565 S
C1893 C1889 1.429 1_565 S
C1893 C1894 1.523 . S
C1894 C1878 1.368 . S
C1894 C1890 1.368 . S
C1894 C1893 1.523 . S
H1895 C1870 0.950 . S
H1896 C1872 0.950 . S
H1897 C1873 0.949 . S
H1898 C1875 0.950 . S
H1899 C1877 0.950 1_565 S
C1900 C1901 1.349 . S
C1900 C1902 1.327 . S
C1900 H1925 0.950 . S
C1901 C1900 1.349 . S
C1901 C1917 1.349 . S
C1902 C1900 1.327 . S
C1902 C1921 1.429 1_545 S
C1902 H1926 0.950 1_545 S
C1903 C1920 1.574 . S
C1903 C1922 1.368 . S
C1903 H1927 0.949 . S
H1904 C1908 0.949 . S
C1905 C1906 1.349 . S
C1905 C1907 1.327 . S
C1905 H1928 0.950 . S
C1906 C1905 1.349 . S
C1906 C1918 1.349 . S
C1907 C1905 1.327 . S
C1907 C1923 1.429 . S
C1907 H1929 0.950 . S
C1908 H1904 0.949 . S
C1908 C1916 1.574 . S
C1908 C1924 1.368 . S
H1909 C1917 0.950 . S
H1910 C1915 0.950 . S
H1911 C1916 0.949 . S
H1912 C1918 0.950 . S
H1913 C1919 0.950 . S
H1914 C1920 0.949 . S
C1915 H1910 0.950 . S
C1915 C1917 1.327 . S
C1915 C1921 1.429 1_545 S
C1916 C1908 1.574 . S
C1916 H1911 0.949 . S
C1916 C1922 1.368 . S
C1917 C1901 1.349 . S
C1917 H1909 0.950 . S
C1917 C1915 1.327 . S
C1918 C1906 1.349 . S
C1918 H1912 0.950 . S
C1918 C1919 1.327 . S
C1919 H1913 0.950 . S
C1919 C1918 1.327 . S
C1919 C1923 1.429 . S
C1920 C1903 1.574 . S
C1920 H1914 0.949 . S
C1920 C1924 1.368 . S
C1921 C1902 1.429 1_565 S
C1921 C1915 1.429 1_565 S
C1921 C1922 1.523 . S
C1922 C1903 1.368 . S
C1922 C1916 1.368 . S
C1922 C1921 1.523 . S
C1923 C1907 1.429 . S
C1923 C1919 1.429 . S
C1923 C1924 1.523 . S
C1924 C1908 1.368 . S
C1924 C1920 1.368 . S
C1924 C1923 1.523 . S
H1925 C1900 0.950 . S
H1926 C1902 0.950 1_565 S
H1927 C1903 0.949 . S
H1928 C1905 0.950 . S
H1929 C1907 0.950 . S
C1930 C1931 1.349 . S
C1930 C1932 1.327 . S
C1930 H1955 0.950 . S
C1931 C1930 1.349 . S
C1931 C1947 1.349 . S
C1932 C1930 1.327 . S
C1932 C1951 1.429 1_565 S
C1932 H1956 0.950 1_565 S
C1933 C1950 1.574 . S
C1933 C1952 1.368 . S
C1933 H1957 0.949 . S
H1934 C1938 0.949 . S
C1935 C1936 1.349 . S
C1935 C1937 1.327 . S
C1935 H1958 0.950 . S
C1936 C1935 1.349 . S
C1936 C1948 1.349 . S
C1937 C1935 1.327 . S
C1937 C1953 1.429 . S
C1937 H1959 0.950 . S
C1938 H1934 0.949 . S
C1938 C1946 1.574 . S
C1938 C1954 1.368 . S
H1939 C1947 0.950 . S
H1940 C1945 0.950 . S
H1941 C1946 0.949 . S
H1942 C1948 0.950 . S
H1943 C1949 0.950 . S
H1944 C1950 0.949 . S
C1945 H1940 0.950 . S
C1945 C1947 1.327 . S
C1945 C1951 1.429 1_565 S
C1946 C1938 1.574 . S
C1946 H1941 0.949 . S
C1946 C1952 1.368 . S
C1947 C1931 1.349 . S
C1947 H1939 0.950 . S
C1947 C1945 1.327 . S
C1948 C1936 1.349 . S
C1948 H1942 0.950 . S
C1948 C1949 1.327 . S
C1949 H1943 0.950 . S
C1949 C1948 1.327 . S
C1949 C1953 1.429 . S
C1950 C1933 1.574 . S
C1950 H1944 0.949 . S
C1950 C1954 1.368 . S
C1951 C1932 1.429 1_545 S
C1951 C1945 1.429 1_545 S
C1951 C1952 1.523 . S
C1952 C1933 1.368 . S
C1952 C1946 1.368 . S
C1952 C1951 1.523 . S
C1953 C1937 1.429 . S
C1953 C1949 1.429 . S
C1953 C1954 1.523 . S
C1954 C1938 1.368 . S
C1954 C1950 1.368 . S
C1954 C1953 1.523 . S
H1955 C1930 0.950 . S
H1956 C1932 0.950 1_545 S
H1957 C1933 0.949 . S
H1958 C1935 0.950 . S
H1959 C1937 0.950 . S
C1960 C1961 1.349 . S
C1960 C1962 1.327 . S
C1960 H1985 0.950 . S
C1961 C1960 1.349 . S
C1961 C1977 1.349 . S
C1962 C1960 1.327 . S
C1962 C1981 1.429 . S
C1962 H1986 0.950 . S
C1963 C1980 1.574 . S
C1963 C1982 1.368 . S
C1963 H1987 0.949 . S
H1964 C1968 0.949 . S
C1965 C1966 1.349 . S
C1965 C1967 1.327 . S
C1965 H1988 0.950 . S
C1966 C1965 1.349 . S
C1966 C1978 1.349 . S
C1967 C1965 1.327 . S
C1967 C1983 1.429 1_545 S
C1967 H1989 0.950 1_545 S
C1968 H1964 0.949 . S
C1968 C1976 1.574 . S
C1968 C1984 1.368 . S
H1969 C1977 0.950 . S
H1970 C1975 0.950 . S
H1971 C1976 0.949 . S
H1972 C1978 0.950 . S
H1973 C1979 0.950 . S
H1974 C1980 0.949 . S
C1975 H1970 0.950 . S
C1975 C1977 1.327 . S
C1975 C1981 1.429 . S
C1976 C1968 1.574 . S
C1976 H1971 0.949 . S
C1976 C1982 1.368 . S
C1977 C1961 1.349 . S
C1977 H1969 0.950 . S
C1977 C1975 1.327 . S
C1978 C1966 1.349 . S
C1978 H1972 0.950 . S
C1978 C1979 1.327 . S
C1979 H1973 0.950 . S
C1979 C1978 1.327 . S
C1979 C1983 1.429 1_545 S
C1980 C1963 1.574 . S
C1980 H1974 0.949 . S
C1980 C1984 1.368 . S
C1981 C1962 1.429 . S
C1981 C1975 1.429 . S
C1981 C1982 1.523 . S
C1982 C1963 1.368 . S
C1982 C1976 1.368 . S
C1982 C1981 1.523 . S
C1983 C1967 1.429 1_565 S
C1983 C1979 1.429 1_565 S
C1983 C1984 1.523 . S
C1984 C1968 1.368 . S
C1984 C1980 1.368 . S
C1984 C1983 1.523 . S
H1985 C1960 0.950 . S
H1986 C1962 0.950 . S
H1987 C1963 0.949 . S
H1988 C1965 0.950 . S
H1989 C1967 0.950 1_565 S
C1990 C1991 1.349 . S
C1990 C1992 1.327 . S
C1990 H2015 0.950 . S
C1991 C1990 1.349 . S
C1991 C2007 1.349 . S
C1992 C1990 1.327 . S
C1992 C2011 1.429 . S
C1992 H2016 0.950 . S
C1993 C2010 1.574 . S
C1993 C2012 1.368 . S
C1993 H2017 0.949 . S
H1994 C1998 0.949 . S
C1995 C1996 1.349 . S
C1995 C1997 1.327 . S
C1995 H2018 0.950 . S
C1996 C1995 1.349 . S
C1996 C2008 1.349 . S
C1997 C1995 1.327 . S
C1997 C2013 1.429 1_565 S
C1997 H2019 0.950 1_565 S
C1998 H1994 0.949 . S
C1998 C2006 1.574 . S
C1998 C2014 1.368 . S
H1999 C2007 0.950 . S
H2000 C2005 0.950 . S
H2001 C2006 0.949 . S
H2002 C2008 0.950 . S
H2003 C2009 0.950 . S
H2004 C2010 0.949 . S
C2005 H2000 0.950 . S
C2005 C2007 1.327 . S
C2005 C2011 1.429 . S
C2006 C1998 1.574 . S
C2006 H2001 0.949 . S
C2006 C2012 1.368 . S
C2007 C1991 1.349 . S
C2007 H1999 0.950 . S
C2007 C2005 1.327 . S
C2008 C1996 1.349 . S
C2008 H2002 0.950 . S
C2008 C2009 1.327 . S
C2009 H2003 0.950 . S
C2009 C2008 1.327 . S
C2009 C2013 1.429 1_565 S
C2010 C1993 1.574 . S
C2010 H2004 0.949 . S
C2010 C2014 1.368 . S
C2011 C1992 1.429 . S
C2011 C2005 1.429 . S
C2011 C2012 1.523 . S
C2012 C1993 1.368 . S
C2012 C2006 1.368 . S
C2012 C2011 1.523 . S
C2013 C1997 1.429 1_545 S
C2013 C2009 1.429 1_545 S
C2013 C2014 1.523 . S
C2014 C1998 1.368 . S
C2014 C2010 1.368 . S
C2014 C2013 1.523 . S
H2015 C1990 0.950 . S
H2016 C1992 0.950 . S
H2017 C1993 0.949 . S
H2018 C1995 0.950 . S
H2019 C1997 0.950 1_545 S
C2020 C2021 1.349 . S
C2020 C2022 1.327 . S
C2020 H2045 0.950 . S
C2021 C2020 1.349 . S
C2021 C2037 1.349 . S
C2022 C2020 1.327 . S
C2022 C2041 1.429 1_565 S
C2022 H2046 0.950 1_565 S
C2023 C2040 1.574 . S
C2023 C2042 1.368 . S
C2023 H2047 0.949 . S
H2024 C2028 0.949 . S
C2025 C2026 1.349 . S
C2025 C2027 1.327 . S
C2025 H2048 0.950 . S
C2026 C2025 1.349 . S
C2026 C2038 1.349 . S
C2027 C2025 1.327 . S
C2027 C2043 1.429 . S
C2027 H2049 0.950 . S
C2028 H2024 0.949 . S
C2028 C2036 1.574 . S
C2028 C2044 1.368 . S
H2029 C2037 0.950 . S
H2030 C2035 0.950 . S
H2031 C2036 0.949 . S
H2032 C2038 0.950 . S
H2033 C2039 0.950 . S
H2034 C2040 0.949 . S
C2035 H2030 0.950 . S
C2035 C2037 1.327 . S
C2035 C2041 1.429 1_565 S
C2036 C2028 1.574 . S
C2036 H2031 0.949 . S
C2036 C2042 1.368 . S
C2037 C2021 1.349 . S
C2037 H2029 0.950 . S
C2037 C2035 1.327 . S
C2038 C2026 1.349 . S
C2038 H2032 0.950 . S
C2038 C2039 1.327 . S
C2039 H2033 0.950 . S
C2039 C2038 1.327 . S
C2039 C2043 1.429 . S
C2040 C2023 1.574 . S
C2040 H2034 0.949 . S
C2040 C2044 1.368 . S
C2041 C2022 1.429 1_545 S
C2041 C2035 1.429 1_545 S
C2041 C2042 1.523 . S
C2042 C2023 1.368 . S
C2042 C2036 1.368 . S
C2042 C2041 1.523 . S
C2043 C2027 1.429 . S
C2043 C2039 1.429 . S
C2043 C2044 1.523 . S
C2044 C2028 1.368 . S
C2044 C2040 1.368 . S
C2044 C2043 1.523 . S
H2045 C2020 0.950 . S
H2046 C2022 0.950 1_545 S
H2047 C2023 0.949 . S
H2048 C2025 0.950 . S
H2049 C2027 0.950 . S
C2050 C2051 1.349 . S
C2050 C2052 1.327 . S
C2050 H2075 0.950 . S
C2051 C2050 1.349 . S
C2051 C2067 1.349 . S
C2052 C2050 1.327 . S
C2052 C2071 1.429 . S
C2052 H2076 0.950 . S
C2053 C2070 1.574 . S
C2053 C2072 1.368 . S
C2053 H2077 0.949 . S
H2054 C2058 0.949 . S
C2055 C2056 1.349 . S
C2055 C2057 1.327 . S
C2055 H2078 0.950 . S
C2056 C2055 1.349 . S
C2056 C2068 1.349 . S
C2057 C2055 1.327 . S
C2057 C2073 1.429 1_545 S
C2057 H2079 0.950 1_545 S
C2058 H2054 0.949 . S
C2058 C2066 1.574 . S
C2058 C2074 1.368 . S
H2059 C2067 0.950 . S
H2060 C2065 0.950 . S
H2061 C2066 0.949 . S
H2062 C2068 0.950 . S
H2063 C2069 0.950 . S
H2064 C2070 0.949 . S
C2065 H2060 0.950 . S
C2065 C2067 1.327 . S
C2065 C2071 1.429 . S
C2066 C2058 1.574 . S
C2066 H2061 0.949 . S
C2066 C2072 1.368 . S
C2067 C2051 1.349 . S
C2067 H2059 0.950 . S
C2067 C2065 1.327 . S
C2068 C2056 1.349 . S
C2068 H2062 0.950 . S
C2068 C2069 1.327 . S
C2069 H2063 0.950 . S
C2069 C2068 1.327 . S
C2069 C2073 1.429 1_545 S
C2070 C2053 1.574 . S
C2070 H2064 0.949 . S
C2070 C2074 1.368 . S
C2071 C2052 1.429 . S
C2071 C2065 1.429 . S
C2071 C2072 1.523 . S
C2072 C2053 1.368 . S
C2072 C2066 1.368 . S
C2072 C2071 1.523 . S
C2073 C2057 1.429 1_565 S
C2073 C2069 1.429 1_565 S
C2073 C2074 1.523 . S
C2074 C2058 1.368 . S
C2074 C2070 1.368 . S
C2074 C2073 1.523 . S
H2075 C2050 0.950 . S
H2076 C2052 0.950 . S
H2077 C2053 0.949 . S
H2078 C2055 0.950 . S
H2079 C2057 0.950 1_565 S
C641 C3 1.543 . S
C646 C363 1.543 . S
C671 C43 1.543 . S
C676 C323 1.543 . S
C701 C443 1.543 . S
C706 C83 1.543 . S
C731 C123 1.543 . S
C736 C403 1.543 . S
C761 C542 1.543 . S
C766 C182 1.543 . S
C791 C502 1.543 . S
C796 C222 1.543 . S
C821 C622 1.543 . S
C826 C262 1.543 . S
C851 C302 1.543 . S
C856 C582 1.543 . S
C881 C95 1.651 . S
C886 C15 1.651 . S
C911 C135 1.651 . S
C916 C55 1.651 . S
C941 C242 1.651 . S
C946 C162 1.651 . S
C971 C202 1.651 . S
C976 C282 1.651 . S
C1001 C415 1.651 . S
C1006 C335 1.651 . S
C1031 C455 1.651 . S
C1036 C375 1.651 . S
C1061 C482 1.651 . S
C1066 C562 1.651 . S
C1091 C522 1.651 . S
C1096 C602 1.651 . S
C1121 C215 1.552 . S
C1126 C2 1.552 . S
C1151 C175 1.552 . S
C1156 C42 1.552 . S
C1181 C82 1.552 . S
C1186 C295 1.552 . S
C1211 C255 1.552 . S
C1216 C122 1.552 . S
C1241 C322 1.552 . S
C1246 C535 1.552 . S
C1271 C495 1.552 . S
C1276 C362 1.552 . S
C1301 C402 1.552 . S
C1306 C615 1.552 . S
C1331 C575 1.552 . S
C1336 C442 1.552 . S
C1361 C62 1.620 . S
C1366 C22 1.620 . S
C1391 C142 1.620 . S
C1396 C102 1.620 . S
C1421 C203 1.620 . S
C1426 C163 1.620 . S
C1451 C243 1.620 . S
C1456 C283 1.620 . S
C1481 C382 1.620 . S
C1486 C342 1.620 . S
C1511 C462 1.620 . S
C1516 C422 1.620 . S
C1541 C483 1.620 . S
C1546 C523 1.620 . S
C1571 C563 1.620 . S
C1576 C603 1.620 . S
C1601 C9 1.708 . S
C1606 C26 1.708 . S
C1631 C49 1.708 . S
C1636 C66 1.708 . S
C1661 C89 1.708 . S
C1666 C106 1.708 . S
C1691 C146 1.708 . S
C1696 C129 1.708 . S
C1721 C186 1.708 . S
C1726 C169 1.708 . S
C1751 C209 1.708 . S
C1756 C226 1.708 . S
C1781 C266 1.708 . S
C1786 C249 1.708 . S
C1811 C306 1.708 . S
C1816 C289 1.708 . S
C1841 C346 1.708 . S
C1846 C329 1.708 . S
C1871 C369 1.708 . S
C1876 C386 1.708 . S
C1901 C426 1.708 . S
C1906 C409 1.708 . S
C1931 C466 1.708 . S
C1936 C449 1.708 . S
C1961 C506 1.708 . S
C1966 C489 1.708 . S
C1991 C546 1.708 . S
C1996 C529 1.708 . S
C2021 C569 1.708 . S
C2026 C586 1.708 . S
C2051 C626 1.708 . S
C2056 C609 1.708 . S
