# Generated by pormake.
# Topology wli, (5)-cn, num edge types: 1
# Building blocks:
#     Node 0, Type 0, BuildingBlock: XOMCOT_clean_sbu_0, # of connection points: 5
#     Node 1, Type 0, BuildingBlock: XOMCOT_clean_sbu_0, # of connection points: 5
#     Node 2, Type 0, BuildingBlock: XOMCOT_clean_sbu_0, # of connection points: 5
#     Node 3, Type 0, BuildingBlock: XOMCOT_clean_sbu_0, # of connection points: 5
#     Node 4, Type 0, BuildingBlock: XOMCOT_clean_sbu_0, # of connection points: 5
#     Node 5, Type 0, BuildingBlock: XOMCOT_clean_sbu_0, # of connection points: 5
#     Edge 6, Type (0, 0), BuildingBlock: EZIPEK_clean_linker_0, # of connection points: 2
#     Edge 7, Type (0, 0), BuildingBlock: EZIPEK_clean_linker_0, # of connection points: 2
#     Edge 8, Type (0, 0), BuildingBlock: EZIPEK_clean_linker_0, # of connection points: 2
#     Edge 9, Type (0, 0), BuildingBlock: EZIPEK_clean_linker_0, # of connection points: 2
#     Edge 10, Type (0, 0), BuildingBlock: EZIPEK_clean_linker_0, # of connection points: 2
#     Edge 11, Type (0, 0), BuildingBlock: EZIPEK_clean_linker_0, # of connection points: 2
#     Edge 12, Type (0, 0), BuildingBlock: EZIPEK_clean_linker_0, # of connection points: 2
#     Edge 13, Type (0, 0), BuildingBlock: EZIPEK_clean_linker_0, # of connection points: 2
#     Edge 14, Type (0, 0), BuildingBlock: EZIPEK_clean_linker_0, # of connection points: 2
#     Edge 15, Type (0, 0), BuildingBlock: EZIPEK_clean_linker_0, # of connection points: 2
#     Edge 16, Type (0, 0), BuildingBlock: EZIPEK_clean_linker_0, # of connection points: 2
#     Edge 17, Type (0, 0), BuildingBlock: EZIPEK_clean_linker_0, # of connection points: 2
#     Edge 18, Type (0, 0), BuildingBlock: EZIPEK_clean_linker_0, # of connection points: 2
#     Edge 19, Type (0, 0), BuildingBlock: EZIPEK_clean_linker_0, # of connection points: 2
#     Edge 20, Type (0, 0), BuildingBlock: EZIPEK_clean_linker_0, # of connection points: 2
# Relax obj value: 0.136
# Max RMSD: 0.158
# Mean RMSD: 0.158
data_MOF--net-wli--node1-XOMCOT_clean_sbu_0--edge1-EZIPEK_clean_linker_0
_symmetry_space_group_name_H-M    P1
_symmetry_Int_Tables_number       1
_symmetry_cell_setting            triclinic
loop_
_symmetry_equiv_pos_as_xyz
'x, y, z'
_cell_length_a     27.255921
_cell_length_b     27.238754
_cell_length_c     20.522595
_cell_angle_alpha  89.135954
_cell_angle_beta   90.744556
_cell_angle_gamma 119.21582
loop_
_atom_site_label
_atom_site_type_symbol
_atom_site_fract_x
_atom_site_fract_y
_atom_site_fract_z
_atom_type_partial_charge
Co0 Co 0.24416 0.44723 0.14356 0.0
C1 C 0.15489 0.36727 0.23197 0.0
C2 C 0.22775 0.35645 0.23752 0.0
C3 C 0.18856 0.3203 0.28208 0.0
N4 N 0.20647 0.38572 0.206 0.0
N5 N 0.14286 0.32722 0.2783 0.0
H6 H 0.12722 0.38383 0.21846 0.0
H7 H 0.26942 0.36211 0.23008 0.0
C8 C 0.2954 0.40154 0.04811 0.0
O9 O 0.27269 0.4179 1.00177 0.0
N10 N 0.28239 0.51193 0.08332 0.0
C11 C 0.26879 0.55339 0.07496 0.0
C12 C 0.30826 0.59585 0.03732 0.0
C13 C 0.33256 0.53229 0.0526 0.0
N14 N 0.34811 0.58251 0.02329 0.0
C15 C 0.15823 0.43253 0.05057 0.0
C16 C 0.12576 0.32235 0.02035 0.0
C17 C 0.10531 0.35185 0.98276 0.0
C18 C 0.12031 0.40686 0.99978 0.0
C19 C 0.16511 0.35043 0.06977 0.0
N20 N 0.18365 0.40607 0.08131 0.0
H21 H 0.16696 0.47372 0.06464 0.0
H22 H 0.1825 0.32811 0.09691 0.0
H23 H 0.23395 0.55496 0.09729 0.0
H24 H 0.35833 0.5124 0.05289 0.0
O25 O 0.21207 0.48697 0.18691 0.0
O26 O 0.29455 0.49458 0.21204 0.0
O27 O 0.28912 0.41056 0.1082 0.0
C28 C 0.2577 0.51119 0.22183 0.0
H29 H 0.19377 0.2923 0.31593 0.0
H30 H 0.3086 0.63435 0.02262 0.0
H31 H 0.11326 0.27895 0.00976 0.0
H32 H 0.10313 0.42996 0.97361 0.0
Co33 Co 0.59583 0.79405 0.78846 0.0
C34 C 0.67522 0.77795 0.87634 0.0
C35 C 0.66609 0.84873 0.90353 0.0
C36 C 0.69743 0.83988 0.95094 0.0
N37 N 0.652 0.80984 0.85663 0.0
N38 N 0.70297 0.79527 0.93374 0.0
H39 H 0.66931 0.74063 0.85212 0.0
H40 H 0.65178 0.87939 0.90504 0.0
C41 C 0.68412 0.91322 0.75843 0.0
O42 O 0.72103 0.89705 0.77409 0.0
N43 N 0.53917 0.77668 0.72167 0.0
C44 C 0.51947 0.73211 0.68156 0.0
C45 C 0.47879 0.73237 0.64172 0.0
C46 C 0.50984 0.80339 0.70604 0.0
N47 N 0.47278 0.77694 0.65724 0.0
C48 C 0.63877 0.7296 0.7263 0.0
C49 C 0.6897 0.80224 0.62291 0.0
C50 C 0.68688 0.74965 0.62325 0.0
C51 C 0.66049 0.71282 0.67554 0.0
C52 C 0.66235 0.81476 0.67112 0.0
N53 N 0.6401 0.78042 0.7244 0.0
H54 H 0.61713 0.69953 0.76467 0.0
H55 H 0.65654 0.85043 0.66246 0.0
H56 H 0.53306 0.70092 0.68175 0.0
H57 H 0.5157 0.84131 0.72926 0.0
O58 O 0.55229 0.71812 0.82221 0.0
O59 O 0.54331 0.79047 0.85454 0.0
O60 O 0.63164 0.87773 0.76403 0.0
C61 C 0.52721 0.73696 0.85932 0.0
H62 H 0.71309 0.86296 0.99584 0.0
H63 H 0.45564 0.70253 0.60373 0.0
H64 H 0.70863 0.83148 0.58263 0.0
H65 H 0.65572 0.67094 0.67663 0.0
Co66 Co 0.25729 0.82705 0.43567 0.0
C67 C 0.28258 0.91473 0.53526 0.0
C68 C 0.19362 0.86237 0.52257 0.0
C69 C 0.20299 0.90402 0.56645 0.0
N70 N 0.24359 0.86916 0.50254 0.0
N71 N 0.25887 0.93682 0.57421 0.0
H72 H 0.32751 0.93255 0.5298 0.0
H73 H 0.15288 0.83018 0.50604 0.0
C74 C 0.14239 0.74539 0.37497 0.0
O75 O 0.16692 0.7344 0.3274 0.0
N76 N 0.27423 0.78718 0.36917 0.0
C77 C 0.30967 0.81215 0.31951 0.0
C78 C 0.31461 0.77221 0.28509 0.0
C79 C 0.26056 0.73226 0.36575 0.0
N80 N 0.28054 0.72044 0.31088 0.0
C81 C 0.31392 0.93584 0.37361 0.0
C82 C 0.23826 0.91205 0.27222 0.0
C83 C 0.28913 0.96197 0.27041 0.0
C84 C 0.32692 0.97486 0.32258 0.0
C85 C 0.22867 0.87334 0.3216 0.0
N86 N 0.26609 0.88463 0.37161 0.0
H87 H 0.34412 0.94554 0.41255 0.0
H88 H 0.19262 0.83358 0.31566 0.0
H89 H 0.3331 0.85694 0.31057 0.0
H90 H 0.23658 0.702 0.40328 0.0
O91 O 0.3346 0.85906 0.46404 0.0
O92 O 0.26443 0.77967 0.50256 0.0
O93 O 0.17186 0.78119 0.41897 0.0
C94 C 0.31795 0.81614 0.50329 0.0
H95 H 0.17128 0.91028 0.59026 0.0
H96 H 0.34454 0.78301 0.2465 0.0
H97 H 0.20828 0.90076 0.23238 0.0
H98 H 0.36689 1.01343 0.3225 0.0
Co99 Co 0.46519 0.22925 0.8814 0.0
C100 C 0.39845 0.14575 0.78233 0.0
C101 C 0.38907 0.2193 0.77135 0.0
C102 C 0.35682 0.18085 0.7242 0.0
N103 N 0.41474 0.19691 0.80793 0.0
N104 N 0.36303 0.13483 0.73127 0.0
H105 H 0.41208 0.11688 0.80075 0.0
H106 H 0.39372 0.26065 0.77806 0.0
C107 C 0.41915 0.28847 0.96315 0.0
O108 O 0.43119 0.26607 0.01375 0.0
N109 N 0.51717 0.26125 0.95455 0.0
C110 C 0.5314 0.23496 1.00155 0.0
C111 C 0.5729 0.2744 0.04004 0.0
C112 C 0.55087 0.31674 0.96552 0.0
N113 N 0.58492 0.32553 0.01746 0.0
C114 C 0.42589 0.12607 0.95183 0.0
C115 C 0.32991 0.12111 1.00114 0.0
C116 C 0.35135 0.08855 0.03002 0.0
C117 C 0.39765 0.08842 1.00193 0.0
C118 C 0.36069 0.15926 0.95167 0.0
N119 N 0.41186 0.16606 0.93406 0.0
H120 H 0.46245 0.12633 0.932 0.0
H121 H 0.34461 0.18484 0.93011 0.0
H122 H 0.51559 0.19061 1.00738 0.0
H123 H 0.55008 0.34991 0.9366 0.0
O124 O 0.5093 0.19641 0.85057 0.0
O125 O 0.52481 0.28155 0.82338 0.0
O126 O 0.42913 0.27781 0.90525 0.0
C127 C 0.53986 0.24298 0.81918 0.0
H128 H 0.33122 0.18637 0.68718 0.0
H129 H 0.59248 0.26634 0.08204 0.0
H130 H 0.29187 0.11933 0.01908 0.0
H131 H 0.41355 0.06143 0.0207 0.0
Co132 Co 0.84202 0.2416 0.57501 0.0
C133 C 0.93332 0.24406 0.49165 0.0
C134 C 0.85056 0.19012 0.45472 0.0
C135 C 0.88884 0.19703 0.4073 0.0
N136 N 0.87815 0.2204 0.50754 0.0
N137 N 0.94098 0.23107 0.43048 0.0
H138 H 0.96757 0.27336 0.52146 0.0
H139 H 0.80532 0.16809 0.44902 0.0
C140 C 0.80223 0.11853 0.60298 0.0
O141 O 0.84803 0.12443 0.57548 0.0
N142 N 0.80567 0.26379 0.63958 0.0
C143 C 0.83139 0.30563 0.68306 0.0
C144 C 0.79118 0.31126 0.71667 0.0
C145 C 0.75005 0.24441 0.64729 0.0
N146 N 0.74035 0.2731 0.69384 0.0
C147 C 0.94989 0.29564 0.63975 0.0
C148 C 0.91492 0.22914 0.75095 0.0
C149 C 0.9687 0.27569 0.74954 0.0
C150 C 0.98654 0.30903 0.69305 0.0
C151 C 0.87934 0.21822 0.69751 0.0
N152 N 0.8973 0.24972 0.64147 0.0
H153 H 0.96248 0.32479 0.59916 0.0
H154 H 0.836 0.18693 0.70402 0.0
H155 H 0.87635 0.33125 0.68907 0.0
H156 H 0.71752 0.21014 0.61977 0.0
O157 O 0.87853 0.31765 0.5402 0.0
O158 O 0.79518 0.25026 0.50831 0.0
O159 O 0.79134 0.15942 0.60181 0.0
C160 C 0.83418 0.30283 0.50396 0.0
H161 H 0.87904 0.18071 0.35827 0.0
H162 H 0.79845 0.34057 0.7555 0.0
H163 H 0.89914 0.20382 0.79487 0.0
H164 H 1.0273 0.34664 0.69144 0.0
Co165 Co 0.80211 0.58323 0.23326 0.0
C166 C 0.78625 0.66265 0.14435 0.0
C167 C 0.85916 0.65608 0.12075 0.0
C168 C 0.8516 0.68815 0.07318 0.0
N169 N 0.8184 0.64025 0.16578 0.0
N170 N 0.80576 0.6922 0.08823 0.0
H171 H 0.74737 0.65489 0.1662 0.0
H172 H 0.89053 0.64265 0.12064 0.0
C173 C 0.92088 0.66891 0.265 0.0
O174 O 0.90403 0.70632 0.25664 0.0
N175 N 0.78515 0.52545 0.29903 0.0
C176 C 0.74493 0.50871 0.34491 0.0
C177 C 0.7457 0.46683 0.38226 0.0
C178 C 0.80966 0.49314 0.30877 0.0
N179 N 0.78629 0.45721 0.35952 0.0
C180 C 0.7416 0.6297 0.29705 0.0
C181 C 0.81228 0.67264 0.40347 0.0
C182 C 0.76158 0.67375 0.40249 0.0
C183 C 0.72565 0.65121 0.34873 0.0
C184 C 0.82373 0.6456 0.35391 0.0
N185 N 0.7907 0.62764 0.29915 0.0
H186 H 0.71187 0.61063 0.2579 0.0
H187 H 0.85769 0.63691 0.36201 0.0
H188 H 0.71663 0.5255 0.3508 0.0
H189 H 0.84468 0.49686 0.28069 0.0
O190 O 0.72583 0.54202 0.20187 0.0
O191 O 0.79602 0.53067 0.16639 0.0
O192 O 0.88563 0.6171 0.25464 0.0
C193 C 0.74269 0.51569 0.16396 0.0
H194 H 0.87643 0.70534 0.02957 0.0
H195 H 0.71953 0.44592 0.42402 0.0
H196 H 0.84068 0.68844 0.44485 0.0
H197 H 0.685 0.64931 0.34715 0.0
C198 C 0.22568 0.6135 0.31061 0.0
C199 C 0.27088 0.66552 0.28728 0.0
C200 C 0.31494 0.61422 0.24178 0.0
C201 C 0.26911 0.56197 0.26035 0.0
N202 N 0.17896 0.51101 0.31169 0.0
N203 N 0.32733 0.69794 0.18985 0.0
C204 C 0.22425 0.56154 0.29567 0.0
C205 C 0.30816 0.66226 0.24206 0.0
N206 N 0.18081 0.61297 0.33975 0.0
N207 N 0.3635 0.61833 0.21899 0.0
H208 H 0.30774 0.72098 0.17509 0.0
H209 H 0.35265 0.69481 0.15421 0.0
H210 H 0.3717 0.5848 0.21961 0.0
H211 H 0.39794 0.65734 0.20748 0.0
H212 H 0.15119 0.57966 0.36754 0.0
H213 H 0.17138 0.64524 0.33195 0.0
H214 H 0.14218 0.5058 0.33262 0.0
H215 H 0.1781 0.47316 0.30251 0.0
C216 C 0.42944 0.65699 0.87486 0.0
C217 C 0.48106 0.6979 0.90291 0.0
C218 C 0.44645 0.65791 0.0117 0.0
C219 C 0.3961 0.61611 0.983 0.0
N220 N 0.34235 0.56893 0.88847 0.0
N221 N 0.54141 0.73508 0.99701 0.0
C222 C 0.3887 0.6135 0.91475 0.0
C223 C 0.49034 0.69782 0.97121 0.0
N224 N 0.41813 0.66166 0.81076 0.0
N225 N 0.45128 0.65977 0.07798 0.0
H226 H 0.57343 0.76614 0.96912 0.0
H227 H 0.55334 0.7337 0.04505 0.0
H228 H 0.42111 0.62851 0.10763 0.0
H229 H 0.48363 0.69247 0.10358 0.0
H230 H 0.3794 0.63654 0.78851 0.0
H231 H 0.44589 0.6946 0.78116 0.0
H232 H 0.33645 0.561 0.83872 0.0
H233 H 0.3118 0.53694 0.91722 0.0
C234 C 0.40858 0.81368 0.51655 0.0
C235 C 0.35898 0.80873 0.54493 0.0
C236 C 0.3866 0.78565 0.65051 0.0
C237 C 0.43743 0.79423 0.62267 0.0
N238 N 0.50317 0.82922 0.5347 0.0
N239 N 0.30731 0.80266 0.64232 0.0
C240 C 0.45042 0.81262 0.55739 0.0
C241 C 0.34974 0.7983 0.61301 0.0
N242 N 0.41434 0.81568 0.45035 0.0
N243 N 0.37273 0.76349 0.71193 0.0
H244 H 0.28056 0.81356 0.61697 0.0
H245 H 0.30204 0.8008 0.69264 0.0
H246 H 0.3994 0.75465 0.74059 0.0
H247 H 0.33345 0.75033 0.73248 0.0
H248 H 0.44701 0.81354 0.4272 0.0
H249 H 0.38352 0.81335 0.41812 0.0
H250 H 0.51721 0.84828 0.48929 0.0
H251 H 0.5346 0.82904 0.56416 0.0
C252 C 0.62987 0.23862 0.81868 0.0
C253 C 0.5917 0.25195 0.78515 0.0
C254 C 0.65264 0.27943 0.68888 0.0
C255 C 0.68736 0.26138 0.72119 0.0
N256 N 0.70242 0.2122 0.81017 0.0
N257 N 0.56162 0.27529 0.68372 0.0
C258 C 0.67361 0.23713 0.78396 0.0
C259 C 0.60165 0.26984 0.71883 0.0
N260 N 0.62673 0.23083 0.88464 0.0
N261 N 0.66931 0.30701 0.63046 0.0
H262 H 0.52337 0.2674 0.70349 0.0
H263 H 0.56423 0.28286 0.63366 0.0
H264 H 0.706 0.31365 0.60741 0.0
H265 H 0.64903 0.32651 0.60733 0.0
H266 H 0.65688 0.22671 0.91227 0.0
H267 H 0.59784 0.23523 0.91271 0.0
H268 H 0.69068 0.18865 0.85326 0.0
H269 H 0.73462 0.2103 0.78534 0.0
C270 C 0.79154 0.36902 0.36387 0.0
C271 C 0.80524 0.42171 0.39069 0.0
C272 C 0.83748 0.39707 0.4913 0.0
C273 C 0.8267 0.34495 0.46361 0.0
N274 N 0.80591 0.28796 0.36737 0.0
N275 N 0.85285 0.49157 0.47233 0.0
C276 C 0.80727 0.33277 0.39799 0.0
C277 C 0.83224 0.43751 0.45189 0.0
N278 N 0.76177 0.35296 0.30686 0.0
N279 N 0.84868 0.40676 0.55632 0.0
H280 H 0.84867 0.5218 0.4447 0.0
H281 H 0.87857 0.50772 0.51325 0.0
H282 H 0.85096 0.37815 0.58829 0.0
H283 H 0.8501 0.44097 0.58006 0.0
H284 H 0.74491 0.31256 0.28811 0.0
H285 H 0.75056 0.37919 0.28069 0.0
H286 H 0.79706 0.28001 0.31792 0.0
H287 H 0.81928 0.26196 0.3898 0.0
C288 C 0.67343 0.41652 0.02086 0.0
C289 C 0.6216 0.37752 0.04928 0.0
C290 C 0.65097 0.42633 0.15284 0.0
C291 C 0.70153 0.46824 0.12371 0.0
N292 N 0.75476 0.50975 0.02564 0.0
N293 N 0.55507 0.353 0.13587 0.0
C294 C 0.71114 0.46533 0.05631 0.0
C295 C 0.60846 0.38531 0.11314 0.0
N296 N 0.68749 0.4057 0.96127 0.0
N297 N 0.64485 0.42293 0.21896 0.0
H298 H 0.52297 0.32238 0.10754 0.0
H299 H 0.54139 0.36057 0.17986 0.0
H300 H 0.67638 0.44936 0.25065 0.0
H301 H 0.61118 0.38975 0.24272 0.0
H302 H 0.72722 0.4295 0.94093 0.0
H303 H 0.66057 0.37028 0.93439 0.0
H304 H 0.76044 0.51192 0.97537 0.0
H305 H 0.78216 0.54684 0.04949 0.0
C306 C 0.05503 0.29228 0.81283 0.0
C307 C 1.00334 0.29291 0.80989 0.0
C308 C 1.01356 0.31918 0.92475 0.0
C309 C 0.06865 0.32635 0.92504 0.0
N310 N 0.14589 0.3288 0.8656 0.0
N311 N 0.93888 0.31835 0.85933 0.0
C312 C 0.09055 0.3151 0.86816 0.0
C313 C 0.98395 0.30937 0.8649 0.0
N314 N 0.06965 0.26886 0.76353 0.0
N315 N 0.98923 0.32089 0.98185 0.0
H316 H 0.91724 0.31401 0.81563 0.0
H317 H 0.92664 0.33576 0.89635 0.0
H318 H 1.00945 0.32689 0.02692 0.0
H319 H 0.94716 0.31063 0.98519 0.0
H320 H 0.10408 0.26209 0.76628 0.0
H321 H 0.04447 0.25145 0.72238 0.0
H322 H 0.1653 0.327 0.82301 0.0
H323 H 0.17385 0.34679 0.90439 0.0
C324 C 0.72123 0.73105 0.4497 0.0
C325 C 0.74426 0.69472 0.45934 0.0
C326 C 0.74041 0.70474 0.57673 0.0
C327 C 0.7075 0.73156 0.56672 0.0
N328 N 0.65128 0.75218 0.4898 0.0
N329 N 0.75758 0.6326 0.53491 0.0
C330 C 0.69334 0.73966 0.50204 0.0
C331 C 0.74877 0.67725 0.52374 0.0
N332 N 0.72695 0.75848 0.39171 0.0
N333 N 0.76494 0.7065 0.63569 0.0
H334 H 0.75784 0.60705 0.49777 0.0
H335 H 0.75722 0.61688 0.58168 0.0
H336 H 0.76333 0.72981 0.67465 0.0
H337 H 0.79229 0.69029 0.64283 0.0
H338 H 0.71355 0.78815 0.38506 0.0
H339 H 0.7508 0.75664 0.35345 0.0
H340 H 0.63787 0.75456 0.4426 0.0
H341 H 0.62522 0.75281 0.52614 0.0
C342 C 0.30968 0.99772 0.09082 0.0
C343 C 0.32808 0.05605 0.09091 0.0
C344 C 0.31458 0.05196 0.20905 0.0
C345 C 0.30471 0.99586 0.20955 0.0
N346 N 0.30724 0.92028 0.15176 0.0
N347 N 0.35867 0.14153 0.15245 0.0
C348 C 0.30625 0.97 0.15061 0.0
C349 C 0.33321 0.08415 0.15061 0.0
N350 N 0.29539 0.96884 0.0336 0.0
N351 N 0.30514 0.07416 0.26363 0.0
H352 H 0.37463 0.16724 0.11137 0.0
H353 H 0.36861 0.16387 0.19585 0.0
H354 H 0.29103 0.0516 0.30724 0.0
H355 H 0.3064 0.11302 0.26371 0.0
H356 H 0.27717 0.92519 0.03165 0.0
H357 H 0.29626 0.98797 0.98884 0.0
H358 H 0.3134 0.90255 0.11014 0.0
H359 H 0.30839 0.90008 0.19487 0.0
C360 C 0.41591 0.36722 0.02352 0.0
C361 C 0.39145 0.32362 0.97635 0.0
C362 C 0.30323 0.32742 0.98296 0.0
C363 C 0.32795 0.37246 0.02826 0.0
N364 N 0.41112 0.4402 0.08528 0.0
N365 N 0.31599 0.27291 0.89948 0.0
C366 C 0.38516 0.39352 0.0471 0.0
C367 C 0.33661 0.3073 0.95223 0.0
N368 N 0.46921 0.38386 0.04561 0.0
N369 N 0.24656 0.30114 0.97197 0.0
H370 H 0.33824 0.25698 0.87517 0.0
H371 H 0.2791 0.26503 0.87519 0.0
H372 H 0.2202 0.31269 0.99516 0.0
H373 H 0.22475 0.26403 0.94584 0.0
H374 H 0.48691 0.4086 0.08658 0.0
H375 H 0.49562 0.3716 0.02339 0.0
H376 H 0.45429 0.46239 0.0936 0.0
H377 H 0.39013 0.45912 0.10636 0.0
C378 C 0.79293 0.05738 0.70172 0.0
C379 C 0.76823 0.06779 0.64531 0.0
C380 C 0.68112 0.97853 0.66667 0.0
C381 C 0.70561 0.9698 0.7249 0.0
N382 N 0.77595 1.01371 0.80855 0.0
N383 N 0.68441 0.04377 0.58232 0.0
C384 C 0.75864 1.01348 0.74571 0.0
C385 C 0.71074 0.03041 0.63093 0.0
N386 N 0.84944 0.08798 0.71323 0.0
N387 N 0.63143 0.9369 0.64265 0.0
H388 H 0.70527 0.07906 0.5522 0.0
H389 H 0.64104 0.02203 0.57493 0.0
H390 H 0.60587 0.89965 0.6671 0.0
H391 H 0.61661 0.93804 0.59592 0.0
H392 H 0.86957 0.07769 0.75015 0.0
H393 H 0.87732 0.12008 0.6828 0.0
H394 H 0.81201 0.04724 0.82818 0.0
H395 H 0.75059 0.98368 0.84302 0.0
C396 C 0.06617 0.76468 0.33651 0.0
C397 C 0.08164 0.72672 0.36519 0.0
C398 C 0.98714 0.64989 0.33986 0.0
C399 C 0.97689 0.68665 0.29795 0.0
N400 N 1.0192 0.77787 0.24359 0.0
N401 N 0.05771 0.63086 0.38888 0.0
C402 C 1.01992 0.74387 0.29274 0.0
C403 C 0.04243 0.66851 0.36484 0.0
N404 N 0.09522 0.8205 0.35071 0.0
N405 N 0.94454 0.59908 0.35998 0.0
H406 H 0.09628 0.6434 0.4121 0.0
H407 H 1.03322 0.58756 0.38252 0.0
H408 H 0.9025 0.58564 0.35074 0.0
H409 H 0.95034 0.57355 0.394 0.0
H410 H 0.08308 0.84912 0.33306 0.0
H411 H 0.12643 0.83629 0.38654 0.0
H412 H 0.05203 0.81876 0.23641 0.0
H413 H 0.99057 0.76294 0.20495 0.0
C414 C 1.00737 0.21914 0.35807 0.0
C415 C 0.99306 0.25473 0.39379 0.0
C416 C 0.084 0.33499 0.36398 0.0
C417 C 0.0937 0.30153 0.31967 0.0
N418 N 0.06093 0.21205 0.26842 0.0
N419 N 1.01325 0.34998 0.41487 0.0
C420 C 0.05427 0.24352 0.31495 0.0
C421 C 1.03019 0.31374 0.39256 0.0
N422 N 0.9778 0.16229 0.36745 0.0
N423 N 0.12708 0.38619 0.38107 0.0
H424 H 0.97225 0.33674 0.42989 0.0
H425 H 0.0379 0.39353 0.41038 0.0
H426 H 0.16799 0.40011 0.36496 0.0
H427 H 0.12337 0.41085 0.41698 0.0
H428 H 0.98922 0.13465 0.34679 0.0
H429 H 0.94562 0.14344 0.40151 0.0
H430 H 1.03066 0.17072 0.25845 0.0
H431 H 0.0947 0.22902 0.23624 0.0
C432 C 0.7864 0.80038 0.99047 0.0
C433 C 0.72899 0.7688 0.97193 0.0
C434 C 0.72476 0.68479 0.02352 0.0
C435 C 0.77987 0.71798 0.04877 0.0
N436 N 0.8597 0.80951 0.06573 0.0
N437 N 0.64031 0.68332 0.98287 0.0
C438 C 0.80979 0.77648 0.0348 0.0
C439 C 0.69721 0.71154 0.99173 0.0
N440 N 0.81913 0.85243 0.96365 0.0
N441 N 0.69959 0.62751 0.02752 0.0
H442 H 0.61836 0.70206 0.96219 0.0
H443 H 0.61439 0.64329 1.00208 0.0
H444 H 0.71958 0.60656 0.04787 0.0
H445 H 0.66154 0.60096 1.00457 0.0
H446 H 0.86249 0.87542 0.97058 0.0
H447 H 0.80376 0.8701 0.92913 0.0
H448 H 0.88096 0.85326 0.06236 0.0
H449 H 0.87706 0.79343 0.09975 0.0
C450 C 0.3504 0.08826 0.62454 0.0
C451 C 0.3378 0.08463 0.69186 0.0
C452 C 0.2798 0.98206 0.68253 0.0
C453 C 0.287 0.98662 0.614 0.0
N454 N 0.32134 0.04538 0.5182 0.0
N455 N 0.28337 0.02934 0.7832 0.0
C456 C 0.32034 0.04015 0.5845 0.0
C457 C 0.3006 0.03175 0.72049 0.0
N458 N 0.39261 0.13719 0.59942 0.0
N459 N 0.25462 0.93009 0.71143 0.0
H460 H 0.29647 0.06513 0.81152 0.0
H461 H 0.25223 0.99273 0.80498 0.0
H462 H 0.24043 0.89318 0.6849 0.0
H463 H 0.25273 0.9239 0.76174 0.0
H464 H 0.40744 0.14094 0.55208 0.0
H465 H 0.41656 0.17245 0.62801 0.0
H466 H 0.34052 0.08406 0.49391 0.0
H467 H 0.2984 1.01133 0.48759 0.0
loop_
_geom_bond_atom_site_label_1
_geom_bond_atom_site_label_2
_geom_bond_distance
_geom_bond_site_symmetry_2
_ccdc_geom_bond_type
Co0 N4 2.148 . S
Co0 N10 2.128 . S
Co0 N20 2.194 . S
Co0 O25 2.351 . S
Co0 O26 2.155 . S
Co0 O27 2.096 . S
C1 N4 1.301 . S
C1 N5 1.328 . S
C1 H6 0.930 . S
C2 C3 1.333 . S
C2 N4 1.317 . S
C2 H7 0.930 . S
C3 C2 1.333 . S
C3 N5 1.350 . S
C3 H29 0.931 . S
N4 Co0 2.148 . S
N4 C1 1.301 . S
N4 C2 1.317 . S
N5 C1 1.328 . S
N5 C3 1.350 . S
H6 C1 0.930 . S
H7 C2 0.930 . S
C8 O9 1.224 . S
C8 O27 1.247 . S
O9 C8 1.224 . S
N10 Co0 2.128 . S
N10 C11 1.355 1_554 S
N10 C13 1.311 1_554 S
C11 N10 1.355 1_556 S
C11 C12 1.363 . S
C11 H23 0.929 . S
C12 C11 1.363 . S
C12 N14 1.375 . S
C12 H30 0.931 . S
C13 N10 1.311 1_556 S
C13 N14 1.347 . S
C13 H24 0.929 . S
N14 C12 1.375 . S
N14 C13 1.347 . S
C15 C18 1.365 1_554 S
C15 N20 1.328 . S
C15 H21 0.929 . S
C16 C17 1.362 . S
C16 C19 1.378 . S
C16 H31 0.929 . S
C17 C16 1.362 . S
C17 C18 1.366 . S
C18 C15 1.365 1_556 S
C18 C17 1.366 . S
C18 H32 0.930 . S
C19 C16 1.378 . S
C19 N20 1.315 1_556 S
C19 H22 0.930 . S
N20 Co0 2.194 . S
N20 C15 1.328 . S
N20 C19 1.315 1_554 S
H21 C15 0.929 . S
H22 C19 0.930 . S
H23 C11 0.929 . S
H24 C13 0.929 . S
O25 Co0 2.351 . S
O25 C28 1.244 . S
O26 Co0 2.155 . S
O26 C28 1.240 . S
O27 Co0 2.096 . S
O27 C8 1.247 . S
C28 O25 1.244 . S
C28 O26 1.240 . S
H29 C3 0.931 . S
H30 C12 0.931 . S
H31 C16 0.929 . S
H32 C18 0.930 . S
Co33 N37 2.148 . S
Co33 N43 2.128 . S
Co33 N53 2.194 . S
Co33 O58 2.351 . S
Co33 O59 2.155 . S
Co33 O60 2.096 . S
C34 N37 1.301 . S
C34 N38 1.328 . S
C34 H39 0.930 . S
C35 C36 1.333 . S
C35 N37 1.317 . S
C35 H40 0.930 . S
C36 C35 1.333 . S
C36 N38 1.350 . S
C36 H62 0.931 . S
N37 Co33 2.148 . S
N37 C34 1.301 . S
N37 C35 1.317 . S
N38 C34 1.328 . S
N38 C36 1.350 . S
H39 C34 0.930 . S
H40 C35 0.930 . S
C41 O42 1.224 . S
C41 O60 1.247 . S
O42 C41 1.224 . S
N43 Co33 2.128 . S
N43 C44 1.355 . S
N43 C46 1.311 . S
C44 N43 1.355 . S
C44 C45 1.363 . S
C44 H56 0.929 . S
C45 C44 1.363 . S
C45 N47 1.375 . S
C45 H63 0.931 . S
C46 N43 1.311 . S
C46 N47 1.347 . S
C46 H57 0.929 . S
N47 C45 1.375 . S
N47 C46 1.347 . S
C48 C51 1.365 . S
C48 N53 1.328 . S
C48 H54 0.929 . S
C49 C50 1.362 . S
C49 C52 1.378 . S
C49 H64 0.929 . S
C50 C49 1.362 . S
C50 C51 1.366 . S
C51 C48 1.365 . S
C51 C50 1.366 . S
C51 H65 0.930 . S
C52 C49 1.378 . S
C52 N53 1.315 . S
C52 H55 0.930 . S
N53 Co33 2.194 . S
N53 C48 1.328 . S
N53 C52 1.315 . S
H54 C48 0.929 . S
H55 C52 0.930 . S
H56 C44 0.929 . S
H57 C46 0.929 . S
O58 Co33 2.351 . S
O58 C61 1.244 . S
O59 Co33 2.155 . S
O59 C61 1.240 . S
O60 Co33 2.096 . S
O60 C41 1.247 . S
C61 O58 1.244 . S
C61 O59 1.240 . S
H62 C36 0.931 . S
H63 C45 0.931 . S
H64 C49 0.929 . S
H65 C51 0.930 . S
Co66 N70 2.148 . S
Co66 N76 2.128 . S
Co66 N86 2.194 . S
Co66 O91 2.351 . S
Co66 O92 2.155 . S
Co66 O93 2.096 . S
C67 N70 1.301 . S
C67 N71 1.328 . S
C67 H72 0.930 . S
C68 C69 1.333 . S
C68 N70 1.317 . S
C68 H73 0.930 . S
C69 C68 1.333 . S
C69 N71 1.350 . S
C69 H95 0.931 . S
N70 Co66 2.148 . S
N70 C67 1.301 . S
N70 C68 1.317 . S
N71 C67 1.328 . S
N71 C69 1.350 . S
H72 C67 0.930 . S
H73 C68 0.930 . S
C74 O75 1.224 . S
C74 O93 1.247 . S
O75 C74 1.224 . S
N76 Co66 2.128 . S
N76 C77 1.355 . S
N76 C79 1.311 . S
C77 N76 1.355 . S
C77 C78 1.363 . S
C77 H89 0.929 . S
C78 C77 1.363 . S
C78 N80 1.375 . S
C78 H96 0.931 . S
C79 N76 1.311 . S
C79 N80 1.347 . S
C79 H90 0.929 . S
N80 C78 1.375 . S
N80 C79 1.347 . S
C81 C84 1.365 . S
C81 N86 1.328 . S
C81 H87 0.929 . S
C82 C83 1.362 . S
C82 C85 1.378 . S
C82 H97 0.929 . S
C83 C82 1.362 . S
C83 C84 1.366 . S
C84 C81 1.365 . S
C84 C83 1.366 . S
C84 H98 0.930 . S
C85 C82 1.378 . S
C85 N86 1.315 . S
C85 H88 0.930 . S
N86 Co66 2.194 . S
N86 C81 1.328 . S
N86 C85 1.315 . S
H87 C81 0.929 . S
H88 C85 0.930 . S
H89 C77 0.929 . S
H90 C79 0.929 . S
O91 Co66 2.351 . S
O91 C94 1.244 . S
O92 Co66 2.155 . S
O92 C94 1.240 . S
O93 Co66 2.096 . S
O93 C74 1.247 . S
C94 O91 1.244 . S
C94 O92 1.240 . S
H95 C69 0.931 . S
H96 C78 0.931 . S
H97 C82 0.929 . S
H98 C84 0.930 . S
Co99 N103 2.148 . S
Co99 N109 2.128 . S
Co99 N119 2.194 . S
Co99 O124 2.351 . S
Co99 O125 2.155 . S
Co99 O126 2.096 . S
C100 N103 1.301 . S
C100 N104 1.328 . S
C100 H105 0.930 . S
C101 C102 1.333 . S
C101 N103 1.317 . S
C101 H106 0.930 . S
C102 C101 1.333 . S
C102 N104 1.350 . S
C102 H128 0.931 . S
N103 Co99 2.148 . S
N103 C100 1.301 . S
N103 C101 1.317 . S
N104 C100 1.328 . S
N104 C102 1.350 . S
H105 C100 0.930 . S
H106 C101 0.930 . S
C107 O108 1.224 . S
C107 O126 1.247 . S
O108 C107 1.224 . S
N109 Co99 2.128 . S
N109 C110 1.355 1_556 S
N109 C112 1.311 1_556 S
C110 N109 1.355 1_554 S
C110 C111 1.363 . S
C110 H122 0.929 . S
C111 C110 1.363 . S
C111 N113 1.375 . S
C111 H129 0.931 . S
C112 N109 1.311 1_554 S
C112 N113 1.347 . S
C112 H123 0.929 . S
N113 C111 1.375 . S
N113 C112 1.347 . S
C114 C117 1.365 1_556 S
C114 N119 1.328 . S
C114 H120 0.929 . S
C115 C116 1.362 . S
C115 C118 1.378 . S
C115 H130 0.929 . S
C116 C115 1.362 . S
C116 C117 1.366 . S
C117 C114 1.365 1_554 S
C117 C116 1.366 . S
C117 H131 0.930 . S
C118 C115 1.378 . S
C118 N119 1.315 1_554 S
C118 H121 0.930 . S
N119 Co99 2.194 . S
N119 C114 1.328 . S
N119 C118 1.315 1_556 S
H120 C114 0.929 . S
H121 C118 0.930 . S
H122 C110 0.929 . S
H123 C112 0.929 . S
O124 Co99 2.351 . S
O124 C127 1.244 . S
O125 Co99 2.155 . S
O125 C127 1.240 . S
O126 Co99 2.096 . S
O126 C107 1.247 . S
C127 O124 1.244 . S
C127 O125 1.240 . S
H128 C102 0.931 . S
H129 C111 0.931 . S
H130 C115 0.929 . S
H131 C117 0.930 . S
Co132 N136 2.148 . S
Co132 N142 2.128 . S
Co132 N152 2.194 . S
Co132 O157 2.351 . S
Co132 O158 2.155 . S
Co132 O159 2.096 . S
C133 N136 1.301 . S
C133 N137 1.328 . S
C133 H138 0.930 . S
C134 C135 1.333 . S
C134 N136 1.317 . S
C134 H139 0.930 . S
C135 C134 1.333 . S
C135 N137 1.350 . S
C135 H161 0.931 . S
N136 Co132 2.148 . S
N136 C133 1.301 . S
N136 C134 1.317 . S
N137 C133 1.328 . S
N137 C135 1.350 . S
H138 C133 0.930 . S
H139 C134 0.930 . S
C140 O141 1.224 . S
C140 O159 1.247 . S
O141 C140 1.224 . S
N142 Co132 2.128 . S
N142 C143 1.355 . S
N142 C145 1.311 . S
C143 N142 1.355 . S
C143 C144 1.363 . S
C143 H155 0.929 . S
C144 C143 1.363 . S
C144 N146 1.375 . S
C144 H162 0.931 . S
C145 N142 1.311 . S
C145 N146 1.347 . S
C145 H156 0.929 . S
N146 C144 1.375 . S
N146 C145 1.347 . S
C147 C150 1.365 . S
C147 N152 1.328 . S
C147 H153 0.929 . S
C148 C149 1.362 . S
C148 C151 1.378 . S
C148 H163 0.929 . S
C149 C148 1.362 . S
C149 C150 1.366 . S
C150 C147 1.365 . S
C150 C149 1.366 . S
C150 H164 0.930 . S
C151 C148 1.378 . S
C151 N152 1.315 . S
C151 H154 0.930 . S
N152 Co132 2.194 . S
N152 C147 1.328 . S
N152 C151 1.315 . S
H153 C147 0.929 . S
H154 C151 0.930 . S
H155 C143 0.929 . S
H156 C145 0.929 . S
O157 Co132 2.351 . S
O157 C160 1.244 . S
O158 Co132 2.155 . S
O158 C160 1.240 . S
O159 Co132 2.096 . S
O159 C140 1.247 . S
C160 O157 1.244 . S
C160 O158 1.240 . S
H161 C135 0.931 . S
H162 C144 0.931 . S
H163 C148 0.929 . S
H164 C150 0.930 . S
Co165 N169 2.148 . S
Co165 N175 2.128 . S
Co165 N185 2.194 . S
Co165 O190 2.351 . S
Co165 O191 2.155 . S
Co165 O192 2.096 . S
C166 N169 1.301 . S
C166 N170 1.328 . S
C166 H171 0.930 . S
C167 C168 1.333 . S
C167 N169 1.317 . S
C167 H172 0.930 . S
C168 C167 1.333 . S
C168 N170 1.350 . S
C168 H194 0.931 . S
N169 Co165 2.148 . S
N169 C166 1.301 . S
N169 C167 1.317 . S
N170 C166 1.328 . S
N170 C168 1.350 . S
H171 C166 0.930 . S
H172 C167 0.930 . S
C173 O174 1.224 . S
C173 O192 1.247 . S
O174 C173 1.224 . S
N175 Co165 2.128 . S
N175 C176 1.355 . S
N175 C178 1.311 . S
C176 N175 1.355 . S
C176 C177 1.363 . S
C176 H188 0.929 . S
C177 C176 1.363 . S
C177 N179 1.375 . S
C177 H195 0.931 . S
C178 N175 1.311 . S
C178 N179 1.347 . S
C178 H189 0.929 . S
N179 C177 1.375 . S
N179 C178 1.347 . S
C180 C183 1.365 . S
C180 N185 1.328 . S
C180 H186 0.929 . S
C181 C182 1.362 . S
C181 C184 1.378 . S
C181 H196 0.929 . S
C182 C181 1.362 . S
C182 C183 1.366 . S
C183 C180 1.365 . S
C183 C182 1.366 . S
C183 H197 0.930 . S
C184 C181 1.378 . S
C184 N185 1.315 . S
C184 H187 0.930 . S
N185 Co165 2.194 . S
N185 C180 1.328 . S
N185 C184 1.315 . S
H186 C180 0.929 . S
H187 C184 0.930 . S
H188 C176 0.929 . S
H189 C178 0.929 . S
O190 Co165 2.351 . S
O190 C193 1.244 . S
O191 Co165 2.155 . S
O191 C193 1.240 . S
O192 Co165 2.096 . S
O192 C173 1.247 . S
C193 O190 1.244 . S
C193 O191 1.240 . S
H194 C168 0.931 . S
H195 C177 0.931 . S
H196 C181 0.929 . S
H197 C183 0.930 . S
C198 C199 1.363 . S
C198 C204 1.379 . S
C198 N206 1.356 . S
C199 C198 1.363 . S
C199 C205 1.363 . S
C200 C201 1.363 . S
C200 C205 1.379 . S
C200 N207 1.356 . S
C201 C200 1.363 . S
C201 C204 1.363 . S
N202 C204 1.356 . S
N202 H214 0.984 . S
N202 H215 0.985 . S
N203 C205 1.356 . S
N203 H208 0.984 . S
N203 H209 0.985 . S
C204 C198 1.379 . S
C204 C201 1.363 . S
C204 N202 1.356 . S
C205 C199 1.363 . S
C205 C200 1.379 . S
C205 N203 1.356 . S
N206 C198 1.356 . S
N206 H212 0.984 . S
N206 H213 0.984 . S
N207 C200 1.356 . S
N207 H210 0.984 . S
N207 H211 0.985 . S
H208 N203 0.984 . S
H209 N203 0.985 . S
H210 N207 0.984 . S
H211 N207 0.985 . S
H212 N206 0.984 . S
H213 N206 0.984 . S
H214 N202 0.984 . S
H215 N202 0.985 . S
C216 C217 1.363 . S
C216 C222 1.379 . S
C216 N224 1.356 . S
C217 C216 1.363 . S
C217 C223 1.363 . S
C218 C219 1.363 . S
C218 C223 1.379 . S
C218 N225 1.356 . S
C219 C218 1.363 . S
C219 C222 1.363 . S
N220 C222 1.356 . S
N220 H232 0.984 . S
N220 H233 0.985 . S
N221 C223 1.356 . S
N221 H226 0.984 . S
N221 H227 0.985 . S
C222 C216 1.379 . S
C222 C219 1.363 . S
C222 N220 1.356 . S
C223 C217 1.363 . S
C223 C218 1.379 . S
C223 N221 1.356 . S
N224 C216 1.356 . S
N224 H230 0.984 . S
N224 H231 0.984 . S
N225 C218 1.356 . S
N225 H228 0.984 . S
N225 H229 0.985 1_556 S
H226 N221 0.984 . S
H227 N221 0.985 . S
H228 N225 0.984 . S
H229 N225 0.985 1_554 S
H230 N224 0.984 . S
H231 N224 0.984 . S
H232 N220 0.984 . S
H233 N220 0.985 . S
C234 C235 1.363 . S
C234 C240 1.379 . S
C234 N242 1.356 . S
C235 C234 1.363 . S
C235 C241 1.363 . S
C236 C237 1.363 . S
C236 C241 1.379 . S
C236 N243 1.356 . S
C237 C236 1.363 . S
C237 C240 1.363 . S
N238 C240 1.356 . S
N238 H250 0.984 . S
N238 H251 0.985 . S
N239 C241 1.356 . S
N239 H244 0.984 . S
N239 H245 0.985 . S
C240 C234 1.379 . S
C240 C237 1.363 . S
C240 N238 1.356 . S
C241 C235 1.363 . S
C241 C236 1.379 . S
C241 N239 1.356 . S
N242 C234 1.356 . S
N242 H248 0.984 . S
N242 H249 0.984 . S
N243 C236 1.356 . S
N243 H246 0.984 . S
N243 H247 0.985 . S
H244 N239 0.984 . S
H245 N239 0.985 . S
H246 N243 0.984 . S
H247 N243 0.985 . S
H248 N242 0.984 . S
H249 N242 0.984 . S
H250 N238 0.984 . S
H251 N238 0.985 . S
C252 C253 1.363 . S
C252 C258 1.379 . S
C252 N260 1.356 . S
C253 C252 1.363 . S
C253 C259 1.363 . S
C254 C255 1.363 . S
C254 C259 1.379 . S
C254 N261 1.356 . S
C255 C254 1.363 . S
C255 C258 1.363 . S
N256 C258 1.356 . S
N256 H268 0.984 . S
N256 H269 0.985 . S
N257 C259 1.356 . S
N257 H262 0.984 . S
N257 H263 0.985 . S
C258 C252 1.379 . S
C258 C255 1.363 . S
C258 N256 1.356 . S
C259 C253 1.363 . S
C259 C254 1.379 . S
C259 N257 1.356 . S
N260 C252 1.356 . S
N260 H266 0.984 . S
N260 H267 0.984 . S
N261 C254 1.356 . S
N261 H264 0.984 . S
N261 H265 0.985 . S
H262 N257 0.984 . S
H263 N257 0.985 . S
H264 N261 0.984 . S
H265 N261 0.985 . S
H266 N260 0.984 . S
H267 N260 0.984 . S
H268 N256 0.984 . S
H269 N256 0.985 . S
C270 C271 1.363 . S
C270 C276 1.379 . S
C270 N278 1.356 . S
C271 C270 1.363 . S
C271 C277 1.363 . S
C272 C273 1.363 . S
C272 C277 1.379 . S
C272 N279 1.356 . S
C273 C272 1.363 . S
C273 C276 1.363 . S
N274 C276 1.356 . S
N274 H286 0.984 . S
N274 H287 0.985 . S
N275 C277 1.356 . S
N275 H280 0.984 . S
N275 H281 0.985 . S
C276 C270 1.379 . S
C276 C273 1.363 . S
C276 N274 1.356 . S
C277 C271 1.363 . S
C277 C272 1.379 . S
C277 N275 1.356 . S
N278 C270 1.356 . S
N278 H284 0.984 . S
N278 H285 0.984 . S
N279 C272 1.356 . S
N279 H282 0.984 . S
N279 H283 0.985 . S
H280 N275 0.984 . S
H281 N275 0.985 . S
H282 N279 0.984 . S
H283 N279 0.985 . S
H284 N278 0.984 . S
H285 N278 0.984 . S
H286 N274 0.984 . S
H287 N274 0.985 . S
C288 C289 1.363 . S
C288 C294 1.379 . S
C288 N296 1.356 . S
C289 C288 1.363 . S
C289 C295 1.363 . S
C290 C291 1.363 . S
C290 C295 1.379 . S
C290 N297 1.356 . S
C291 C290 1.363 . S
C291 C294 1.363 . S
N292 C294 1.356 . S
N292 H304 0.984 . S
N292 H305 0.985 . S
N293 C295 1.356 . S
N293 H298 0.984 . S
N293 H299 0.985 . S
C294 C288 1.379 . S
C294 C291 1.363 . S
C294 N292 1.356 . S
C295 C289 1.363 . S
C295 C290 1.379 . S
C295 N293 1.356 . S
N296 C288 1.356 . S
N296 H302 0.984 1_554 S
N296 H303 0.984 . S
N297 C290 1.356 . S
N297 H300 0.984 . S
N297 H301 0.985 . S
H298 N293 0.984 . S
H299 N293 0.985 . S
H300 N297 0.984 . S
H301 N297 0.985 . S
H302 N296 0.984 1_556 S
H303 N296 0.984 . S
H304 N292 0.984 . S
H305 N292 0.985 . S
C306 C307 1.363 1_455 S
C306 C312 1.379 . S
C306 N314 1.356 . S
C307 C306 1.363 1_655 S
C307 C313 1.363 . S
C308 C309 1.363 1_655 S
C308 C313 1.379 . S
C308 N315 1.356 . S
C309 C308 1.363 1_455 S
C309 C312 1.363 . S
N310 C312 1.356 . S
N310 H322 0.984 . S
N310 H323 0.985 . S
N311 C313 1.356 . S
N311 H316 0.984 . S
N311 H317 0.985 . S
C312 C306 1.379 . S
C312 C309 1.363 . S
C312 N310 1.356 . S
C313 C307 1.363 . S
C313 C308 1.379 . S
C313 N311 1.356 . S
N314 C306 1.356 . S
N314 H320 0.984 . S
N314 H321 0.984 1_455 S
N315 C308 1.356 . S
N315 H318 0.984 1_655 S
N315 H319 0.985 . S
H316 N311 0.984 . S
H317 N311 0.985 . S
H318 N315 0.984 1_455 S
H319 N315 0.985 . S
H320 N314 0.984 . S
H321 N314 0.984 1_655 S
H322 N310 0.984 . S
H323 N310 0.985 . S
C324 C325 1.363 . S
C324 C330 1.379 . S
C324 N332 1.356 . S
C325 C324 1.363 . S
C325 C331 1.363 . S
C326 C327 1.363 . S
C326 C331 1.379 . S
C326 N333 1.356 . S
C327 C326 1.363 . S
C327 C330 1.363 . S
N328 C330 1.356 . S
N328 H340 0.984 . S
N328 H341 0.985 . S
N329 C331 1.356 . S
N329 H334 0.984 . S
N329 H335 0.985 . S
C330 C324 1.379 . S
C330 C327 1.363 . S
C330 N328 1.356 . S
C331 C325 1.363 . S
C331 C326 1.379 . S
C331 N329 1.356 . S
N332 C324 1.356 . S
N332 H338 0.984 . S
N332 H339 0.984 . S
N333 C326 1.356 . S
N333 H336 0.984 . S
N333 H337 0.985 . S
H334 N329 0.984 . S
H335 N329 0.985 . S
H336 N333 0.984 . S
H337 N333 0.985 . S
H338 N332 0.984 . S
H339 N332 0.984 . S
H340 N328 0.984 . S
H341 N328 0.985 . S
C342 C343 1.363 1_565 S
C342 C348 1.379 . S
C342 N350 1.356 . S
C343 C342 1.363 1_545 S
C343 C349 1.363 . S
C344 C345 1.363 1_545 S
C344 C349 1.379 . S
C344 N351 1.356 . S
C345 C344 1.363 1_565 S
C345 C348 1.363 . S
N346 C348 1.356 . S
N346 H358 0.984 . S
N346 H359 0.985 . S
N347 C349 1.356 . S
N347 H352 0.984 . S
N347 H353 0.985 . S
C348 C342 1.379 . S
C348 C345 1.363 . S
C348 N346 1.356 . S
C349 C343 1.363 . S
C349 C344 1.379 . S
C349 N347 1.356 . S
N350 C342 1.356 . S
N350 H356 0.984 . S
N350 H357 0.984 1_565 S
N351 C344 1.356 . S
N351 H354 0.984 1_545 S
N351 H355 0.985 . S
H352 N347 0.984 . S
H353 N347 0.985 . S
H354 N351 0.984 1_565 S
H355 N351 0.985 . S
H356 N350 0.984 . S
H357 N350 0.984 1_545 S
H358 N346 0.984 . S
H359 N346 0.985 . S
C360 C361 1.363 . S
C360 C366 1.379 1_556 S
C360 N368 1.356 . S
C361 C360 1.363 . S
C361 C367 1.363 . S
C362 C363 1.363 . S
C362 C367 1.379 1_554 S
C362 N369 1.356 . S
C363 C362 1.363 . S
C363 C366 1.363 . S
N364 C366 1.356 . S
N364 H376 0.984 . S
N364 H377 0.985 . S
N365 C367 1.356 . S
N365 H370 0.984 . S
N365 H371 0.985 . S
C366 C360 1.379 1_554 S
C366 C363 1.363 . S
C366 N364 1.356 . S
C367 C361 1.363 . S
C367 C362 1.379 1_556 S
C367 N365 1.356 . S
N368 C360 1.356 . S
N368 H374 0.984 . S
N368 H375 0.984 . S
N369 C362 1.356 . S
N369 H372 0.984 . S
N369 H373 0.985 . S
H370 N365 0.984 . S
H371 N365 0.985 . S
H372 N369 0.984 . S
H373 N369 0.985 . S
H374 N368 0.984 . S
H375 N368 0.984 . S
H376 N364 0.984 . S
H377 N364 0.985 . S
C378 C379 1.363 . S
C378 C384 1.379 1_545 S
C378 N386 1.356 . S
C379 C378 1.363 . S
C379 C385 1.363 . S
C380 C381 1.363 . S
C380 C385 1.379 1_565 S
C380 N387 1.356 . S
C381 C380 1.363 . S
C381 C384 1.363 . S
N382 C384 1.356 . S
N382 H394 0.984 1_565 S
N382 H395 0.985 . S
N383 C385 1.356 . S
N383 H388 0.984 . S
N383 H389 0.985 1_545 S
C384 C378 1.379 1_565 S
C384 C381 1.363 . S
C384 N382 1.356 . S
C385 C379 1.363 . S
C385 C380 1.379 1_545 S
C385 N383 1.356 . S
N386 C378 1.356 . S
N386 H392 0.984 . S
N386 H393 0.984 . S
N387 C380 1.356 . S
N387 H390 0.984 . S
N387 H391 0.985 . S
H388 N383 0.984 . S
H389 N383 0.985 1_565 S
H390 N387 0.984 . S
H391 N387 0.985 . S
H392 N386 0.984 . S
H393 N386 0.984 . S
H394 N382 0.984 1_545 S
H395 N382 0.985 . S
C396 C397 1.363 . S
C396 C402 1.379 1_455 S
C396 N404 1.356 . S
C397 C396 1.363 . S
C397 C403 1.363 . S
C398 C399 1.363 . S
C398 C403 1.379 1_655 S
C398 N405 1.356 . S
C399 C398 1.363 . S
C399 C402 1.363 . S
N400 C402 1.356 . S
N400 H412 0.984 . S
N400 H413 0.985 . S
N401 C403 1.356 . S
N401 H406 0.984 . S
N401 H407 0.985 . S
C402 C396 1.379 1_655 S
C402 C399 1.363 . S
C402 N400 1.356 . S
C403 C397 1.363 . S
C403 C398 1.379 1_455 S
C403 N401 1.356 . S
N404 C396 1.356 . S
N404 H410 0.984 . S
N404 H411 0.984 . S
N405 C398 1.356 . S
N405 H408 0.984 . S
N405 H409 0.985 . S
H406 N401 0.984 . S
H407 N401 0.985 . S
H408 N405 0.984 . S
H409 N405 0.985 . S
H410 N404 0.984 . S
H411 N404 0.984 . S
H412 N400 0.984 . S
H413 N400 0.985 . S
C414 C415 1.363 . S
C414 C420 1.379 1_655 S
C414 N422 1.356 . S
C415 C414 1.363 . S
C415 C421 1.363 . S
C416 C417 1.363 . S
C416 C421 1.379 1_455 S
C416 N423 1.356 . S
C417 C416 1.363 . S
C417 C420 1.363 . S
N418 C420 1.356 . S
N418 H430 0.984 . S
N418 H431 0.985 . S
N419 C421 1.356 . S
N419 H424 0.984 . S
N419 H425 0.985 . S
C420 C414 1.379 1_455 S
C420 C417 1.363 . S
C420 N418 1.356 . S
C421 C415 1.363 . S
C421 C416 1.379 1_655 S
C421 N419 1.356 . S
N422 C414 1.356 . S
N422 H428 0.984 . S
N422 H429 0.984 . S
N423 C416 1.356 . S
N423 H426 0.984 . S
N423 H427 0.985 . S
H424 N419 0.984 . S
H425 N419 0.985 . S
H426 N423 0.984 . S
H427 N423 0.985 . S
H428 N422 0.984 . S
H429 N422 0.984 . S
H430 N418 0.984 . S
H431 N418 0.985 . S
C432 C433 1.363 . S
C432 C438 1.379 1_556 S
C432 N440 1.356 . S
C433 C432 1.363 . S
C433 C439 1.363 . S
C434 C435 1.363 . S
C434 C439 1.379 1_554 S
C434 N441 1.356 . S
C435 C434 1.363 . S
C435 C438 1.363 . S
N436 C438 1.356 . S
N436 H448 0.984 . S
N436 H449 0.985 . S
N437 C439 1.356 . S
N437 H442 0.984 . S
N437 H443 0.985 . S
C438 C432 1.379 1_554 S
C438 C435 1.363 . S
C438 N436 1.356 . S
C439 C433 1.363 . S
C439 C434 1.379 1_556 S
C439 N437 1.356 . S
N440 C432 1.356 . S
N440 H446 0.984 . S
N440 H447 0.984 . S
N441 C434 1.356 . S
N441 H444 0.984 . S
N441 H445 0.985 . S
H442 N437 0.984 . S
H443 N437 0.985 . S
H444 N441 0.984 . S
H445 N441 0.985 . S
H446 N440 0.984 . S
H447 N440 0.984 . S
H448 N436 0.984 . S
H449 N436 0.985 . S
C450 C451 1.363 . S
C450 C456 1.379 . S
C450 N458 1.356 . S
C451 C450 1.363 . S
C451 C457 1.363 1_545 S
C452 C453 1.363 . S
C452 C457 1.379 . S
C452 N459 1.356 . S
C453 C452 1.363 . S
C453 C456 1.363 1_565 S
N454 C456 1.356 . S
N454 H466 0.984 . S
N454 H467 0.985 1_545 S
N455 C457 1.356 . S
N455 H460 0.984 1_565 S
N455 H461 0.985 . S
C456 C450 1.379 . S
C456 C453 1.363 1_545 S
C456 N454 1.356 . S
C457 C451 1.363 1_565 S
C457 C452 1.379 . S
C457 N455 1.356 . S
N458 C450 1.356 . S
N458 H464 0.984 . S
N458 H465 0.984 . S
N459 C452 1.356 . S
N459 H462 0.984 . S
N459 H463 0.985 . S
H460 N455 0.984 1_545 S
H461 N455 0.985 . S
H462 N459 0.984 . S
H463 N459 0.985 . S
H464 N458 0.984 . S
H465 N458 0.984 . S
H466 N454 0.984 . S
H467 N454 0.985 1_565 S
C199 N80 1.267 . S
C201 C28 1.361 . S
C217 C61 1.361 . S
C219 N14 1.267 . S
C235 C94 1.361 . S
C237 N47 1.267 . S
C253 C127 1.361 . S
C255 N146 1.267 . S
C271 N179 1.267 . S
C273 C160 1.361 . S
C289 N113 1.267 . S
C291 C193 1.361 . S
C307 C149 0.880 . S
C309 C17 0.880 . S
C325 C182 0.880 . S
C327 C50 0.880 . S
C343 C116 0.880 . S
C345 C83 0.880 . S
C361 C107 1.831 . S
C363 C8 1.831 . S
C379 C140 1.831 . S
C381 C41 1.831 . S
C397 C74 1.831 . S
C399 C173 1.831 . S
C415 N137 1.897 . S
C417 N5 1.897 . S
C433 N38 1.897 . S
C435 N170 1.897 . S
C451 N104 1.897 . S
C453 N71 1.897 . S
