# Generated by pormake.
# Topology atn, (4)-cn, num edge types: 1
# Building blocks:
#     Node 0, Type 0, BuildingBlock: CEKHIL_clean_sbu_0, # of connection points: 4
#     Node 1, Type 0, BuildingBlock: CEKHIL_clean_sbu_0, # of connection points: 4
#     Node 2, Type 0, BuildingBlock: CEKHIL_clean_sbu_0, # of connection points: 4
#     Node 3, Type 0, BuildingBlock: CEKHIL_clean_sbu_0, # of connection points: 4
#     Node 4, Type 0, BuildingBlock: CEKHIL_clean_sbu_0, # of connection points: 4
#     Node 5, Type 0, BuildingBlock: CEKHIL_clean_sbu_0, # of connection points: 4
#     Node 6, Type 0, BuildingBlock: CEKHIL_clean_sbu_0, # of connection points: 4
#     Node 7, Type 0, BuildingBlock: CEKHIL_clean_sbu_0, # of connection points: 4
#     Node 8, Type 0, BuildingBlock: CEKHIL_clean_sbu_0, # of connection points: 4
#     Node 9, Type 0, BuildingBlock: CEKHIL_clean_sbu_0, # of connection points: 4
#     Node 10, Type 0, BuildingBlock: CEKHIL_clean_sbu_0, # of connection points: 4
#     Node 11, Type 0, BuildingBlock: CEKHIL_clean_sbu_0, # of connection points: 4
#     Node 12, Type 0, BuildingBlock: CEKHIL_clean_sbu_0, # of connection points: 4
#     Node 13, Type 0, BuildingBlock: CEKHIL_clean_sbu_0, # of connection points: 4
#     Node 14, Type 0, BuildingBlock: CEKHIL_clean_sbu_0, # of connection points: 4
#     Node 15, Type 0, BuildingBlock: CEKHIL_clean_sbu_0, # of connection points: 4
#     Edge 16, Type (0, 0), BuildingBlock: XIVTED_clean_linker_0, # of connection points: 2
#     Edge 17, Type (0, 0), BuildingBlock: XIVTED_clean_linker_0, # of connection points: 2
#     Edge 18, Type (0, 0), BuildingBlock: XIVTED_clean_linker_0, # of connection points: 2
#     Edge 19, Type (0, 0), BuildingBlock: XIVTED_clean_linker_0, # of connection points: 2
#     Edge 20, Type (0, 0), BuildingBlock: XIVTED_clean_linker_0, # of connection points: 2
#     Edge 21, Type (0, 0), BuildingBlock: XIVTED_clean_linker_0, # of connection points: 2
#     Edge 22, Type (0, 0), BuildingBlock: XIVTED_clean_linker_0, # of connection points: 2
#     Edge 23, Type (0, 0), BuildingBlock: XIVTED_clean_linker_0, # of connection points: 2
#     Edge 24, Type (0, 0), BuildingBlock: XIVTED_clean_linker_0, # of connection points: 2
#     Edge 25, Type (0, 0), BuildingBlock: XIVTED_clean_linker_0, # of connection points: 2
#     Edge 26, Type (0, 0), BuildingBlock: XIVTED_clean_linker_0, # of connection points: 2
#     Edge 27, Type (0, 0), BuildingBlock: XIVTED_clean_linker_0, # of connection points: 2
#     Edge 28, Type (0, 0), BuildingBlock: XIVTED_clean_linker_0, # of connection points: 2
#     Edge 29, Type (0, 0), BuildingBlock: XIVTED_clean_linker_0, # of connection points: 2
#     Edge 30, Type (0, 0), BuildingBlock: XIVTED_clean_linker_0, # of connection points: 2
#     Edge 31, Type (0, 0), BuildingBlock: XIVTED_clean_linker_0, # of connection points: 2
#     Edge 32, Type (0, 0), BuildingBlock: XIVTED_clean_linker_0, # of connection points: 2
#     Edge 33, Type (0, 0), BuildingBlock: XIVTED_clean_linker_0, # of connection points: 2
#     Edge 34, Type (0, 0), BuildingBlock: XIVTED_clean_linker_0, # of connection points: 2
#     Edge 35, Type (0, 0), BuildingBlock: XIVTED_clean_linker_0, # of connection points: 2
#     Edge 36, Type (0, 0), BuildingBlock: XIVTED_clean_linker_0, # of connection points: 2
#     Edge 37, Type (0, 0), BuildingBlock: XIVTED_clean_linker_0, # of connection points: 2
#     Edge 38, Type (0, 0), BuildingBlock: XIVTED_clean_linker_0, # of connection points: 2
#     Edge 39, Type (0, 0), BuildingBlock: XIVTED_clean_linker_0, # of connection points: 2
#     Edge 40, Type (0, 0), BuildingBlock: XIVTED_clean_linker_0, # of connection points: 2
#     Edge 41, Type (0, 0), BuildingBlock: XIVTED_clean_linker_0, # of connection points: 2
#     Edge 42, Type (0, 0), BuildingBlock: XIVTED_clean_linker_0, # of connection points: 2
#     Edge 43, Type (0, 0), BuildingBlock: XIVTED_clean_linker_0, # of connection points: 2
#     Edge 44, Type (0, 0), BuildingBlock: XIVTED_clean_linker_0, # of connection points: 2
#     Edge 45, Type (0, 0), BuildingBlock: XIVTED_clean_linker_0, # of connection points: 2
#     Edge 46, Type (0, 0), BuildingBlock: XIVTED_clean_linker_0, # of connection points: 2
#     Edge 47, Type (0, 0), BuildingBlock: XIVTED_clean_linker_0, # of connection points: 2
# Relax obj value: 0.034
# Max RMSD: 0.063
# Mean RMSD: 0.063
data_MOF--net-atn--node1-CEKHIL_clean_sbu_0--edge1-XIVTED_clean_linker_0
_symmetry_space_group_name_H-M    P1
_symmetry_Int_Tables_number       1
_symmetry_cell_setting            triclinic
loop_
_symmetry_equiv_pos_as_xyz
'x, y, z'
_cell_length_a     59.822939
_cell_length_b     59.832856
_cell_length_c     27.314577
_cell_angle_alpha  90.008484
_cell_angle_beta   89.99404
_cell_angle_gamma 89.973841
loop_
_atom_site_label
_atom_site_type_symbol
_atom_site_fract_x
_atom_site_fract_y
_atom_site_fract_z
_atom_type_partial_charge
Co0 Co 0.19574 0.38058 0.9861 0.0
O1 O 0.1782 0.40752 0.98375 0.0
O2 O 0.21288 0.40551 0.01156 0.0
C3 C 0.18746 0.3696 0.9094 0.0
O4 O 0.21938 0.35606 0.99227 0.0
Co5 Co 0.17401 0.33364 0.97325 0.0
O6 O 0.20533 0.32442 0.96009 0.0
C7 C 0.16923 0.35809 0.06713 0.0
C8 C 0.19557 0.4178 0.00109 0.0
C9 C 0.22165 0.33594 0.97616 0.0
O10 O 0.18327 0.37312 0.05289 0.0
O11 O 0.16231 0.34224 0.03946 0.0
O12 O 0.20324 0.38414 0.9168 0.0
O13 O 0.1764 0.36355 0.94763 0.0
Co14 Co 0.62295 0.19562 0.98599 0.0
O15 O 0.59632 0.17769 0.98301 0.0
O16 O 0.59756 0.21246 0.01046 0.0
C17 C 0.63447 0.18736 0.90966 0.0
O18 O 0.64715 0.21958 0.99257 0.0
Co19 Co 0.6702 0.17434 0.97485 0.0
O20 O 0.67907 0.2057 0.96127 0.0
C21 C 0.64528 0.16962 0.06813 0.0
C22 C 0.58564 0.19493 -0.00023 0.0
C23 C 0.6673 0.22198 0.97679 0.0
O24 O 0.63016 0.18341 0.05316 0.0
O25 O 0.6614 0.1628 0.04107 0.0
O26 O 0.61969 0.20296 0.91659 0.0
O27 O 0.64045 0.17641 0.94813 0.0
Co28 Co 0.8079 0.62197 0.98727 0.0
O29 O 0.82545 0.59515 0.98122 0.0
O30 O 0.79117 0.59651 0.01152 0.0
C31 C 0.81497 0.63456 0.91117 0.0
O32 O 0.7843 0.64629 -0.00278 0.0
Co33 Co 0.82955 0.66909 0.97812 0.0
O34 O 0.7981 0.67852 0.96735 0.0
C35 C 0.83542 0.64274 0.06908 0.0
C36 C 0.80838 0.5845 -0.00111 0.0
C37 C 0.78192 0.66668 0.983 0.0
O38 O 0.82123 0.62806 0.05393 0.0
O39 O 0.84203 0.65921 0.0428 0.0
O40 O 0.79942 0.61977 0.9183 0.0
O41 O 0.82666 0.63984 0.94911 0.0
Co42 Co 0.37976 0.80832 0.9852 0.0
O43 O 0.40664 0.82593 0.98335 0.0
O44 O 0.40487 0.79093 0.00922 0.0
C45 C 0.36849 0.81741 0.90911 0.0
O46 O 0.35529 0.78459 0.99041 0.0
Co47 Co 0.33277 0.83023 0.97438 0.0
O48 O 0.32355 0.79907 0.9596 0.0
C49 C 0.3576 0.83396 0.068 0.0
C50 C 0.41705 0.8084 -0.00053 0.0
C51 C 0.33513 0.78253 0.97446 0.0
O52 O 0.37251 0.81999 0.05284 0.0
O53 O 0.34171 0.84128 0.04091 0.0
O54 O 0.38308 0.8016 0.9155 0.0
O55 O 0.36257 0.82808 0.94799 0.0
Co56 Co 0.19441 0.62288 0.00857 0.0
O57 O 0.17678 0.59603 0.01123 0.0
O58 O 0.21168 0.5977 0.98461 0.0
C59 C 0.18569 0.63451 0.08464 0.0
O60 O 0.21816 0.64729 0.0024 0.0
Co61 Co 0.17259 0.66991 0.01865 0.0
O62 O 0.20381 0.67919 0.03272 0.0
C63 C 0.16867 0.64478 0.92548 0.0
C64 C 0.19423 0.58557 0.99481 0.0
C65 C 0.22028 0.66752 0.01784 0.0
O66 O 0.18252 0.62984 0.941 0.0
O67 O 0.1615 0.66087 0.9522 0.0
O68 O 0.20143 0.61984 0.07817 0.0
O69 O 0.17483 0.64027 0.04588 0.0
Co70 Co 0.3807 0.19412 0.00387 0.0
O71 O 0.4078 0.17684 0.00659 0.0
O72 O 0.40548 0.21142 0.97828 0.0
C73 C 0.36963 0.18613 0.08068 0.0
O74 O 0.35599 0.21755 -0.00258 0.0
Co75 Co 0.33396 0.17201 0.01646 0.0
O76 O 0.32454 0.20324 0.02991 0.0
C77 C 0.35855 0.16721 0.92281 0.0
C78 C 0.41792 0.19427 0.98908 0.0
C79 C 0.33591 0.21968 0.01385 0.0
O80 O 0.37344 0.18138 0.93714 0.0
O81 O 0.34267 0.16025 0.95036 0.0
O82 O 0.38411 0.20192 0.07299 0.0
O83 O 0.36376 0.17479 0.04267 0.0
Co84 Co 0.81052 0.37952 0.00256 0.0
O85 O 0.82817 0.40639 0.00526 0.0
O86 O 0.79338 0.40463 0.97798 0.0
C87 C 0.81888 0.368 0.07884 0.0
O88 O 0.7867 0.35518 -0.00369 0.0
Co89 Co 0.83201 0.33237 0.01374 0.0
O90 O 0.80072 0.32338 0.02779 0.0
C91 C 0.83695 0.35748 0.92078 0.0
C92 C 0.81077 0.4168 0.98841 0.0
C93 C 0.78436 0.33508 0.01242 0.0
O94 O 0.82281 0.37236 0.93538 0.0
O95 O 0.84387 0.34147 0.948 0.0
O96 O 0.80323 0.38274 0.07204 0.0
O97 O 0.82986 0.36214 0.04033 0.0
Co98 Co 0.62198 0.8075 0.00783 0.0
O99 O 0.59495 0.82492 0.0082 0.0
O100 O 0.59726 0.78987 0.98289 0.0
C101 C 0.63244 0.8169 0.08421 0.0
O102 O 0.64668 0.78392 0.00411 0.0
Co103 Co 0.66872 0.82969 0.02057 0.0
O104 O 0.67803 0.79865 0.03616 0.0
C105 C 0.64486 0.83293 0.92566 0.0
C106 C 0.58484 0.80726 0.99188 0.0
C107 C 0.66671 0.78201 0.02095 0.0
O108 O 0.6298 0.81905 0.94043 0.0
O109 O 0.66051 0.84033 0.95331 0.0
O110 O 0.61802 0.80097 0.07744 0.0
O111 O 0.63866 0.82748 0.04545 0.0
Co112 Co 0.69644 0.88006 0.48589 0.0
O113 O 0.68039 0.90778 0.48746 0.0
O114 O 0.7157 0.90388 0.50993 0.0
C115 C 0.68553 0.87046 0.40991 0.0
O116 O 0.71855 0.85387 0.48663 0.0
Co117 Co 0.66998 0.83537 0.47472 0.0
O118 O 0.70004 0.824 0.45709 0.0
C119 C 0.67024 0.85909 0.56963 0.0
C120 C 0.69868 0.91706 0.50261 0.0
C121 C 0.71811 0.83376 0.46959 0.0
O122 O 0.68548 0.87261 0.55411 0.0
O123 O 0.66078 0.8445 0.54227 0.0
O124 O 0.70224 0.88402 0.41596 0.0
O125 O 0.67497 0.86492 0.44918 0.0
Co126 Co 0.12148 0.69631 0.48709 0.0
O127 O 0.09439 0.67906 0.48491 0.0
O128 O 0.09663 0.71393 0.51145 0.0
C129 C 0.13279 0.6874 0.41089 0.0
O130 O 0.1462 0.71971 0.49282 0.0
Co131 Co 0.1682 0.67385 0.47644 0.0
O132 O 0.17783 0.70493 0.46211 0.0
C133 C 0.14328 0.67031 0.56995 0.0
C134 C 0.08423 0.69665 0.50155 0.0
C135 C 0.16641 0.72156 0.47707 0.0
O136 O 0.1285 0.68436 0.55458 0.0
O137 O 0.1592 0.66291 0.54304 0.0
O138 O 0.11833 0.70332 0.4175 0.0
O139 O 0.13851 0.67648 0.4496 0.0
Co140 Co 0.30809 0.12387 0.48404 0.0
O141 O 0.32401 0.09618 0.47756 0.0
O142 O 0.28977 0.0992 0.50737 0.0
C143 C 0.31606 0.1365 0.4083 0.0
O144 O 0.28626 0.14982 0.4942 0.0
Co145 Co 0.33484 0.16858 0.47724 0.0
O146 O 0.30466 0.18212 0.48023 0.0
C147 C 0.33749 0.14128 0.56685 0.0
C148 C 0.30641 0.08636 0.49489 0.0
C149 C 0.28687 0.1713 0.49019 0.0
O150 O 0.32147 0.12869 0.55136 0.0
O151 O 0.34658 0.15647 0.54055 0.0
O152 O 0.2996 0.12269 0.41492 0.0
O153 O 0.32816 0.14044 0.44634 0.0
Co154 Co 0.88046 0.30657 0.48272 0.0
O155 O 0.90809 0.32255 0.47591 0.0
O156 O 0.90525 0.28829 0.50564 0.0
C157 C 0.86755 0.31465 0.40725 0.0
O158 O 0.85466 0.28464 0.49315 0.0
Co159 Co 0.83546 0.33302 0.47644 0.0
O160 O 0.82213 0.30278 0.47992 0.0
C161 C 0.86315 0.33602 0.56544 0.0
C162 C 0.91801 0.30494 0.493 0.0
C163 C 0.83317 0.28508 0.48959 0.0
O164 O 0.87573 0.31994 0.5501 0.0
O165 O 0.84788 0.34501 0.53917 0.0
O166 O 0.88146 0.29821 0.41343 0.0
O167 O 0.86365 0.32661 0.4455 0.0
Co168 Co 0.69535 0.1218 0.5078 0.0
O169 O 0.67901 0.09425 0.50787 0.0
O170 O 0.7142 0.09757 0.48413 0.0
C171 C 0.68511 0.13223 0.58374 0.0
O172 O 0.71774 0.14769 0.50537 0.0
Co173 Co 0.66945 0.16688 0.51774 0.0
O174 O 0.69972 0.17793 0.53465 0.0
C175 C 0.66896 0.14242 0.42378 0.0
C176 C 0.69712 0.08464 0.49256 0.0
C177 C 0.71762 0.16787 0.52203 0.0
O178 O 0.68407 0.12881 0.43957 0.0
O179 O 0.65982 0.15738 0.45071 0.0
O180 O 0.70159 0.11837 0.57764 0.0
O181 O 0.6743 0.13753 0.54462 0.0
Co182 Co 0.87885 0.69257 0.50718 0.0
O183 O 0.90641 0.67659 0.51534 0.0
O184 O 0.90379 0.71073 0.48478 0.0
C185 C 0.86522 0.68497 0.58226 0.0
O186 O 0.85311 0.71443 0.49524 0.0
Co187 Co 0.83401 0.66593 0.51163 0.0
O188 O 0.82057 0.69611 0.50686 0.0
C189 C 0.86236 0.66301 0.4237 0.0
C190 C 0.91644 0.69407 0.49801 0.0
C191 C 0.83159 0.71385 0.4976 0.0
O192 O 0.87478 0.67901 0.43983 0.0
O193 O 0.84681 0.654 0.44914 0.0
O194 O 0.87924 0.70131 0.57619 0.0
O195 O 0.86173 0.67271 0.54424 0.0
Co196 Co 0.30694 0.8814 0.50626 0.0
O197 O 0.32438 0.90838 0.50718 0.0
O198 O 0.28941 0.90619 0.48128 0.0
C199 C 0.31604 0.87068 0.58274 0.0
O200 O 0.28335 0.85679 0.5018 0.0
Co201 Co 0.32902 0.83457 0.51883 0.0
O202 O 0.29789 0.82535 0.53392 0.0
C203 C 0.3327 0.85868 0.4243 0.0
C204 C 0.30679 0.91855 0.49056 0.0
C205 C 0.28134 0.83675 0.5185 0.0
O206 O 0.31872 0.8737 0.43894 0.0
O207 O 0.34 0.84299 0.45193 0.0
O208 O 0.30016 0.88517 0.57587 0.0
O209 O 0.32675 0.86456 0.54407 0.0
Co210 Co 0.12284 0.30876 0.50678 0.0
O211 O 0.09511 0.32485 0.50588 0.0
O212 O 0.09897 0.28967 0.48238 0.0
C213 C 0.13276 0.31916 0.58293 0.0
O214 O 0.14901 0.28662 0.50516 0.0
Co215 Co 0.16756 0.3352 0.51779 0.0
O216 O 0.17902 0.30504 0.53439 0.0
C217 C 0.14345 0.33554 0.42348 0.0
C218 C 0.08582 0.30668 0.49006 0.0
C219 C 0.1692 0.28701 0.52182 0.0
O220 O 0.13013 0.32007 0.43875 0.0
O221 O 0.15805 0.34495 0.45086 0.0
O222 O 0.11908 0.30256 0.5766 0.0
O223 O 0.13814 0.32998 0.54389 0.0
H224 H 0.1586 0.55735 -0.00041 0.0
H225 H 0.23177 0.44549 0.01431 0.0
H226 H 0.23043 0.5575 0.98535 0.0
H227 H 0.16026 0.44637 0.99381 0.0
H228 H 0.23193 0.48653 0.01109 0.0
H229 H 0.15918 0.51664 0.00306 0.0
C230 C 0.17451 0.5488 -0.0032 0.0
C231 C 0.1945 0.56086 0.99205 0.0
C232 C 0.21622 0.4777 0.00747 0.0
C233 C 0.19532 0.51409 -0.00322 0.0
C234 C 0.21609 0.45431 0.00971 0.0
C235 C 0.19597 0.4425 0.00435 0.0
C236 C 0.19605 0.4893 0.00027 0.0
C237 C 0.17617 0.45476 -0.00195 0.0
C238 C 0.17484 0.52552 -0.00111 0.0
C239 C 0.21462 0.54885 0.98872 0.0
N240 N 0.17672 0.47743 -0.00379 0.0
N241 N 0.21455 0.5261 0.99149 0.0
H242 H 0.44522 0.23083 0.97698 0.0
H243 H 0.5579 0.15901 0.99366 0.0
H244 H 0.44688 0.15926 0.99603 0.0
H245 H 0.55709 0.23076 0.00928 0.0
H246 H 0.51722 0.15911 0.98882 0.0
H247 H 0.48624 0.23148 0.98125 0.0
C248 C 0.45421 0.21524 0.98145 0.0
C249 C 0.44262 0.19495 0.98615 0.0
C250 C 0.52587 0.17485 0.99362 0.0
C251 C 0.48941 0.19561 0.99145 0.0
C252 C 0.54913 0.1748 -0.00349 0.0
C253 C 0.56092 0.19491 0.00204 0.0
C254 C 0.51418 0.19518 0.99573 0.0
C255 C 0.54864 0.21487 0.00536 0.0
C256 C 0.47758 0.21565 0.98431 0.0
C257 C 0.4551 0.17529 0.99233 0.0
N258 N 0.52592 0.21453 0.00182 0.0
N259 N 0.47776 0.17611 0.99478 0.0
H260 H 0.84632 0.44517 0.99203 0.0
H261 H 0.77262 0.55638 0.01324 0.0
H262 H 0.77442 0.44466 0.98006 0.0
H263 H 0.84376 0.55631 0.98716 0.0
H264 H 0.77275 0.51538 0.00846 0.0
H265 H 0.84554 0.48591 0.99582 0.0
C266 C 0.83036 0.45366 0.9898 0.0
C267 C 0.81041 0.4415 0.98561 0.0
C268 C 0.78831 0.52438 0.0039 0.0
C269 C 0.80934 0.48824 0.99078 0.0
C270 C 0.78828 0.54775 0.00702 0.0
C271 C 0.80821 0.55977 0.00063 0.0
C272 C 0.80846 0.51301 0.99483 0.0
C273 C 0.82799 0.54774 0.99226 0.0
C274 C 0.82991 0.47694 0.99206 0.0
C275 C 0.7902 0.4534 0.98297 0.0
N276 N 0.82761 0.52507 0.98967 0.0
N277 N 0.79016 0.47613 0.98598 0.0
H278 H 0.55729 0.77073 0.98132 0.0
H279 H 0.4453 0.84396 0.99454 0.0
H280 H 0.55613 0.84252 0.99605 0.0
H281 H 0.4451 0.77214 0.00878 0.0
H282 H 0.48598 0.84334 0.99044 0.0
H283 H 0.51624 0.77046 0.98481 0.0
C284 C 0.54841 0.78644 0.98468 0.0
C285 C 0.56015 0.80669 0.98839 0.0
C286 C 0.47711 0.82768 0.99475 0.0
C287 C 0.51333 0.80648 0.99285 0.0
C288 C 0.45384 0.82803 -0.00278 0.0
C289 C 0.44177 0.80807 0.00213 0.0
C290 C 0.48853 0.80719 -0.0033 0.0
C291 C 0.45377 0.78794 0.0053 0.0
C292 C 0.52501 0.78625 0.98708 0.0
C293 C 0.5478 0.82652 0.99313 0.0
N294 N 0.47651 0.78798 0.00222 0.0
N295 N 0.52513 0.8259 0.99524 0.0
H296 H 0.66226 0.05575 0.49345 0.0
H297 H 0.73614 0.94404 0.50698 0.0
H298 H 0.7343 0.05729 0.48646 0.0
H299 H 0.66405 0.94622 0.5057 0.0
H300 H 0.73679 0.98518 0.50264 0.0
H301 H 0.66348 0.0153 0.49858 0.0
C302 C 0.6784 0.04753 0.49255 0.0
C303 C 0.69821 0.05996 0.48952 0.0
C304 C 0.72088 0.97658 0.5036 0.0
C305 C 0.69979 0.01325 0.49609 0.0
C306 C 0.7205 0.95316 0.50651 0.0
C307 C 0.70001 0.9417 0.50662 0.0
C308 C 0.70062 0.98849 0.50099 0.0
C309 C 0.68024 0.9543 0.50547 0.0
C310 C 0.6791 0.02434 0.49569 0.0
C311 C 0.71862 0.04832 0.48848 0.0
N312 N 0.68107 0.97689 0.50257 0.0
N313 N 0.71891 0.02557 0.49205 0.0
H314 H 0.94518 0.65917 0.50648 0.0
H315 H 0.05658 0.7331 0.5129 0.0
H316 H 0.94398 0.73069 0.48639 0.0
H317 H 0.05566 0.66135 0.49708 0.0
H318 H 0.01548 0.7332 0.51094 0.0
H319 H 0.9858 0.66029 0.50952 0.0
C320 C 0.95349 0.67515 0.50244 0.0
C321 C 0.94115 0.69487 0.49607 0.0
C322 C 0.02433 0.71747 0.50806 0.0
C323 C 0.98791 0.69631 0.5001 0.0
C324 C 0.04775 0.71737 0.50956 0.0
C325 C 0.05955 0.69717 0.50517 0.0
C326 C 0.01272 0.6972 0.50262 0.0
C327 C 0.04728 0.67732 0.5005 0.0
C328 C 0.97674 0.67577 0.50422 0.0
C329 C 0.95288 0.71508 0.49106 0.0
N330 N 0.02461 0.67784 0.49939 0.0
N331 N 0.97565 0.71531 0.49347 0.0
H332 H 0.26963 0.0591 0.50775 0.0
H333 H 0.34232 0.94686 0.49187 0.0
H334 H 0.34106 0.05731 0.48602 0.0
H335 H 0.27034 0.94643 0.48203 0.0
H336 H 0.34168 0.98753 0.49405 0.0
H337 H 0.26899 0.01798 0.50431 0.0
C338 C 0.28517 0.05008 0.50274 0.0
C339 C 0.30543 0.06165 0.49719 0.0
C340 C 0.32598 0.97863 0.49111 0.0
C341 C 0.30481 0.01483 0.49293 0.0
C342 C 0.32635 0.95536 0.48976 0.0
C343 C 0.30636 0.94322 0.48667 0.0
C344 C 0.30545 0.99001 0.48992 0.0
C345 C 0.28616 0.95516 0.48412 0.0
C346 C 0.28477 0.02666 0.50041 0.0
C347 C 0.32504 0.04914 0.49038 0.0
N348 N 0.28619 0.97793 0.48616 0.0
N349 N 0.32423 0.0265 0.4885 0.0
H350 H 0.05698 0.34149 0.48378 0.0
H351 H 0.94541 0.26836 0.50807 0.0
H352 H 0.05859 0.26942 0.48642 0.0
H353 H 0.94699 0.33939 0.48097 0.0
H354 H 0.98655 0.26772 0.50434 0.0
H355 H 0.01641 0.34037 0.48508 0.0
C356 C 0.04875 0.32537 0.4842 0.0
C357 C 0.06121 0.30552 0.48497 0.0
C358 C 0.97782 0.2834 0.49929 0.0
C359 C 0.01441 0.30407 0.4872 0.0
C360 C 0.95438 0.28381 0.50177 0.0
C361 C 0.94274 0.30396 0.49487 0.0
C362 C 0.98958 0.30333 0.4902 0.0
C363 C 0.95519 0.32345 0.48643 0.0
C364 C 0.02551 0.32473 0.48505 0.0
C365 C 0.04959 0.28512 0.48548 0.0
N366 N 0.97782 0.32263 0.48438 0.0
N367 N 0.02679 0.2849 0.48698 0.0
H368 H 0.24886 0.33404 0.05615 0.0
H369 H 0.33667 0.24935 0.93778 0.0
H370 H 0.24319 0.31144 0.90682 0.0
H371 H 0.30889 0.23912 0.08171 0.0
H372 H 0.31253 0.2824 0.92796 0.0
H373 H 0.28135 0.30923 0.06709 0.0
C374 C 0.25488 0.32434 0.02535 0.0
C375 C 0.24342 0.32462 0.98059 0.0
C376 C 0.31214 0.27312 0.96199 0.0
C377 C 0.28043 0.29674 0.99256 0.0
C378 C 0.32592 0.25441 0.96771 0.0
C379 C 0.32457 0.24151 0.01046 0.0
C380 C 0.29747 0.2792 -0.00016 0.0
C381 C 0.31024 0.2486 0.04805 0.0
C382 C 0.27324 0.31016 0.03169 0.0
C383 C 0.2516 0.31154 0.94193 0.0
N384 N 0.2972 0.26699 0.04189 0.0
N385 N 0.26964 0.29809 0.94877 0.0
H386 H 0.75435 0.33637 0.93702 0.0
H387 H 0.66949 0.24912 0.05686 0.0
H388 H 0.76481 0.30837 0.08064 0.0
H389 H 0.69118 0.24373 0.90684 0.0
H390 H 0.69442 0.28153 0.06743 0.0
H391 H 0.7209 0.31272 0.92782 0.0
C392 C 0.74926 0.32568 0.96703 0.0
C393 C 0.76233 0.32411 0.00949 0.0
C394 C 0.69324 0.27352 0.03195 0.0
C395 C 0.72421 0.29758 -0.00041 0.0
C396 C 0.67899 0.25521 0.02583 0.0
C397 C 0.67843 0.24384 0.98097 0.0
C398 C 0.70647 0.28073 0.99255 0.0
C399 C 0.69127 0.25209 0.94201 0.0
C400 C 0.73032 0.31219 0.96167 0.0
C401 C 0.75521 0.30987 0.0472 0.0
N402 N 0.70482 0.27006 0.94867 0.0
N403 N 0.73661 0.29711 0.04138 0.0
H404 H 0.75633 0.66977 0.06533 0.0
H405 H 0.66536 0.75119 0.94713 0.0
H406 H 0.75878 0.68962 0.91378 0.0
H407 H 0.69466 0.76376 0.08869 0.0
H408 H 0.68983 0.71835 0.93807 0.0
H409 H 0.72368 0.69432 0.07714 0.0
C410 C 0.74957 0.67881 0.03432 0.0
C411 C 0.76012 0.67781 0.98857 0.0
C412 C 0.69049 0.7281 0.97146 0.0
C413 C 0.72296 0.70539 0.00154 0.0
C414 C 0.67651 0.74668 0.97677 0.0
C415 C 0.67818 0.7602 0.01857 0.0
C416 C 0.70572 0.72276 0.00878 0.0
C417 C 0.69304 0.75381 0.05577 0.0
C418 C 0.73112 0.69284 0.04112 0.0
C419 C 0.75103 0.69006 0.94961 0.0
N420 N 0.70629 0.73554 0.05001 0.0
N421 N 0.73293 0.70338 0.95694 0.0
H422 H 0.24086 0.69275 0.0872 0.0
H423 H 0.30895 0.76288 0.90546 0.0
H424 H 0.24856 0.66861 0.93949 0.0
H425 H 0.33492 0.75325 0.05112 0.0
H426 H 0.28525 0.72976 0.91612 0.0
H427 H 0.27394 0.71646 0.07598 0.0
C428 C 0.24981 0.69218 0.05273 0.0
C429 C 0.24212 0.67876 0.0142 0.0
C430 C 0.29649 0.73464 0.94532 0.0
C431 C 0.27931 0.70622 0.00068 0.0
C432 C 0.30992 0.75351 0.93933 0.0
C433 C 0.32384 0.76069 0.97749 0.0
C434 C 0.29643 0.72341 0.9904 0.0
C435 C 0.32448 0.7481 0.02078 0.0
C436 C 0.26865 0.70562 0.04641 0.0
C437 C 0.25414 0.67864 0.97012 0.0
N438 N 0.31052 0.73033 0.02658 0.0
N439 N 0.27188 0.69262 0.96409 0.0
H440 H 0.79426 0.71572 0.44285 0.0
H441 H 0.75715 0.8374 0.52359 0.0
H442 H 0.83876 0.75761 0.5264 0.0
H443 H 0.72632 0.79945 0.40748 0.0
H444 H 0.78828 0.81035 0.52451 0.0
H445 H 0.76991 0.74755 0.42916 0.0
C446 C 0.79894 0.73177 0.45811 0.0
C447 C 0.81842 0.73404 0.48605 0.0
C448 C 0.77484 0.80824 0.49837 0.0
C449 C 0.79034 0.77079 0.47112 0.0
C450 C 0.75713 0.82367 0.49775 0.0
C451 C 0.73891 0.82041 0.46608 0.0
C452 C 0.77415 0.78956 0.46712 0.0
C453 C 0.73974 0.80238 0.4333 0.0
C454 C 0.78507 0.75002 0.45014 0.0
C455 C 0.82384 0.75526 0.50459 0.0
N456 N 0.75686 0.78759 0.43508 0.0
N457 N 0.80963 0.77284 0.49747 0.0
H458 H 0.26153 0.81105 0.58817 0.0
H459 H 0.19237 0.7413 0.40782 0.0
H460 H 0.25237 0.83586 0.44139 0.0
H461 H 0.16719 0.75049 0.55431 0.0
H462 H 0.2161 0.77441 0.41835 0.0
H463 H 0.2285 0.78718 0.57778 0.0
C464 C 0.25228 0.81173 0.5541 0.0
C465 C 0.25956 0.82537 0.51555 0.0
C466 C 0.20504 0.76943 0.44778 0.0
C467 C 0.22241 0.79777 0.50298 0.0
C468 C 0.1916 0.75057 0.44187 0.0
C469 C 0.17787 0.74329 0.48028 0.0
C470 C 0.20532 0.78054 0.49301 0.0
C471 C 0.17748 0.75573 0.52379 0.0
C472 C 0.23346 0.79821 0.54827 0.0
C473 C 0.24713 0.82564 0.47202 0.0
N474 N 0.19145 0.7735 0.52948 0.0
N475 N 0.22942 0.81159 0.46642 0.0
H476 H 0.24279 0.163 0.46497 0.0
H477 H 0.20319 0.27857 0.5845 0.0
H478 H 0.28528 0.21028 0.53936 0.0
H479 H 0.16566 0.24806 0.46734 0.0
H480 H 0.22911 0.24736 0.58294 0.0
H481 H 0.21071 0.18845 0.47821 0.0
C482 C 0.24527 0.17854 0.48457 0.0
C483 C 0.26669 0.18471 0.50074 0.0
C484 C 0.21515 0.24733 0.55769 0.0
C485 C 0.23041 0.21341 0.51651 0.0
C486 C 0.2003 0.26517 0.55858 0.0
C487 C 0.18248 0.26616 0.5253 0.0
C488 C 0.21243 0.23025 0.52301 0.0
C489 C 0.1793 0.24801 0.49335 0.0
C490 C 0.22707 0.19303 0.49189 0.0
C491 C 0.26912 0.205 0.52576 0.0
N492 N 0.19438 0.23086 0.49244 0.0
N493 N 0.25127 0.21853 0.53286 0.0
H494 H 0.84095 0.24136 0.46122 0.0
H495 H 0.72695 0.20089 0.58644 0.0
H496 H 0.79531 0.28299 0.54263 0.0
H497 H 0.75599 0.16456 0.46569 0.0
H498 H 0.75838 0.22655 0.58494 0.0
H499 H 0.8157 0.20919 0.47483 0.0
C500 C 0.82583 0.24361 0.48248 0.0
C501 C 0.82002 0.26482 0.5005 0.0
C502 C 0.75805 0.2129 0.55889 0.0
C503 C 0.79157 0.22844 0.51667 0.0
C504 C 0.74009 0.19821 0.55976 0.0
C505 C 0.73862 0.18083 0.52548 0.0
C506 C 0.77473 0.21048 0.52317 0.0
C507 C 0.75643 0.17787 0.49251 0.0
C508 C 0.81145 0.22536 0.49001 0.0
C509 C 0.80027 0.26698 0.52761 0.0
N510 N 0.77367 0.19282 0.4916 0.0
N511 N 0.78683 0.24908 0.53483 0.0
H512 H 0.16467 0.37102 0.38079 0.0
H513 H 0.13725 0.33139 0.10863 0.0
H514 H 0.12157 0.31523 0.34667 0.0
H515 H 0.18343 0.38456 0.14352 0.0
H516 H 0.12744 0.32859 0.19486 0.0
H517 H 0.16763 0.37939 0.2939 0.0
C518 C 0.15567 0.36057 0.35509 0.0
C519 C 0.1431 0.34214 0.37119 0.0
C520 C 0.13959 0.34098 0.18366 0.0
C521 C 0.14654 0.35171 0.27118 0.0
C522 C 0.14525 0.34262 0.13431 0.0
C523 C 0.16148 0.35805 0.11868 0.0
C524 C 0.15023 0.35481 0.21791 0.0
C525 C 0.17099 0.3723 0.1538 0.0
C526 C 0.15738 0.36542 0.30536 0.0
C527 C 0.13159 0.32949 0.33602 0.0
N528 N 0.16537 0.37018 0.20182 0.0
N529 N 0.13378 0.33438 0.28761 0.0
H530 H 0.68833 0.11887 0.34812 0.0
H531 H 0.61781 0.18347 0.14316 0.0
H532 H 0.63479 0.16517 0.37966 0.0
H533 H 0.67237 0.13842 0.11127 0.0
H534 H 0.62073 0.17334 0.22963 0.0
H535 H 0.67965 0.12214 0.26086 0.0
C536 C 0.67462 0.12952 0.33685 0.0
C537 C 0.66251 0.14201 0.37136 0.0
C538 C 0.63194 0.16554 0.2036 0.0
C539 C 0.65256 0.14591 0.27155 0.0
C540 C 0.63025 0.17131 0.15416 0.0
C541 C 0.64506 0.16205 0.11983 0.0
C542 C 0.64856 0.15043 0.21886 0.0
C543 C 0.66076 0.14625 0.13637 0.0
C544 C 0.66969 0.13143 0.28699 0.0
C545 C 0.64483 0.15546 0.35448 0.0
N546 N 0.66222 0.14111 0.18467 0.0
N547 N 0.64054 0.15719 0.30585 0.0
H548 H 0.88655 0.68278 0.34973 0.0
H549 H 0.823 0.61354 0.14207 0.0
H550 H 0.84224 0.62738 0.3789 0.0
H551 H 0.86686 0.66932 0.11295 0.0
H552 H 0.83411 0.61488 0.22813 0.0
H553 H 0.88408 0.67445 0.26227 0.0
C554 C 0.8766 0.66866 0.33792 0.0
C555 C 0.86428 0.65603 0.37178 0.0
C556 C 0.84146 0.62669 0.20277 0.0
C557 C 0.8612 0.64653 0.27164 0.0
C558 C 0.83512 0.62592 0.15356 0.0
C559 C 0.84371 0.64156 0.1202 0.0
C560 C 0.85646 0.64324 0.2188 0.0
C561 C 0.85951 0.65711 0.13733 0.0
C562 C 0.87512 0.66395 0.28791 0.0
C563 C 0.85174 0.63784 0.35418 0.0
N564 N 0.86518 0.65769 0.18543 0.0
N565 N 0.85032 0.63382 0.30538 0.0
H566 H 0.36535 0.83288 0.38258 0.0
H567 H 0.33346 0.8678 0.10976 0.0
H568 H 0.31676 0.88384 0.34738 0.0
H569 H 0.38177 0.81659 0.14489 0.0
H570 H 0.33036 0.87682 0.19638 0.0
H571 H 0.3746 0.82971 0.29613 0.0
C572 C 0.35669 0.84356 0.35676 0.0
C573 C 0.33999 0.85848 0.37241 0.0
C574 C 0.34178 0.86373 0.18519 0.0
C575 C 0.35059 0.85481 0.27288 0.0
C576 C 0.34357 0.85852 0.13563 0.0
C577 C 0.3577 0.84117 0.11992 0.0
C578 C 0.3541 0.85145 0.2196 0.0
C579 C 0.37057 0.83 0.15524 0.0
C580 C 0.36205 0.84172 0.30728 0.0
C581 C 0.32963 0.87201 0.3371 0.0
N582 N 0.36828 0.83518 0.20348 0.0
N583 N 0.33494 0.86969 0.28894 0.0
H584 H 0.11716 0.68634 0.64518 0.0
H585 H 0.18461 0.61857 0.85029 0.0
H586 H 0.16876 0.6379 0.61351 0.0
H587 H 0.13634 0.67033 0.88189 0.0
H588 H 0.17517 0.62161 0.76342 0.0
H589 H 0.12015 0.67686 0.73202 0.0
C590 C 0.12894 0.67357 0.65631 0.0
C591 C 0.14294 0.66316 0.62192 0.0
C592 C 0.16652 0.63216 0.78948 0.0
C593 C 0.1465 0.65228 0.72134 0.0
C594 C 0.17187 0.63039 0.83914 0.0
C595 C 0.16151 0.64443 0.87351 0.0
C596 C 0.15069 0.64805 0.77407 0.0
C597 C 0.14504 0.65936 0.85677 0.0
C598 C 0.13068 0.66819 0.70595 0.0
C599 C 0.15782 0.64663 0.63865 0.0
N600 N 0.14029 0.6609 0.80829 0.0
N601 N 0.15932 0.64185 0.68711 0.0
H602 H 0.37396 0.16076 0.60965 0.0
H603 H 0.33181 0.13534 0.88096 0.0
H604 H 0.31701 0.11909 0.64292 0.0
H605 H 0.38572 0.18078 0.84698 0.0
H606 H 0.32973 0.12495 0.79495 0.0
H607 H 0.38208 0.16357 0.69677 0.0
C608 C 0.36327 0.15196 0.6352 0.0
C609 C 0.34453 0.13993 0.61881 0.0
C610 C 0.34214 0.13706 0.80631 0.0
C611 C 0.35374 0.14327 0.71903 0.0
C612 C 0.34336 0.14306 0.85554 0.0
C613 C 0.3588 0.15924 0.87136 0.0
C614 C 0.35641 0.1473 0.77234 0.0
C615 C 0.37344 0.16839 0.83655 0.0
C616 C 0.36794 0.15363 0.68505 0.0
C617 C 0.33153 0.12867 0.65377 0.0
N618 N 0.37174 0.16244 0.78862 0.0
N619 N 0.33623 0.13085 0.70227 0.0
H620 H 0.86964 0.3316 0.87945 0.0
H621 H 0.84345 0.37251 0.60768 0.0
H622 H 0.82273 0.38418 0.84468 0.0
H623 H 0.88567 0.31603 0.64171 0.0
H624 H 0.8406 0.38089 0.69465 0.0
H625 H 0.88018 0.3296 0.79353 0.0
C626 C 0.86162 0.34287 0.85386 0.0
C627 C 0.84498 0.35789 0.86942 0.0
C628 C 0.85068 0.36681 0.68313 0.0
C629 C 0.85709 0.35559 0.77052 0.0
C630 C 0.85237 0.36198 0.63336 0.0
C631 C 0.86456 0.34327 0.61724 0.0
C632 C 0.86118 0.35282 0.71728 0.0
C633 C 0.87597 0.33051 0.65236 0.0
C634 C 0.86771 0.3417 0.80469 0.0
C635 C 0.83549 0.37222 0.83444 0.0
N636 N 0.87377 0.33536 0.70079 0.0
N637 N 0.84153 0.37056 0.78655 0.0
H638 H 0.61839 0.8181 0.84987 0.0
H639 H 0.68967 0.88233 0.64563 0.0
H640 H 0.67213 0.86396 0.88255 0.0
H641 H 0.63621 0.83607 0.61349 0.0
H642 H 0.68084 0.87899 0.73281 0.0
H643 H 0.62201 0.82762 0.76321 0.0
C644 C 0.6308 0.8303 0.83899 0.0
C645 C 0.64515 0.83999 0.87364 0.0
C646 C 0.67095 0.86972 0.70656 0.0
C647 C 0.64946 0.85092 0.77441 0.0
C648 C 0.67597 0.87165 0.65676 0.0
C649 C 0.66389 0.85925 0.62209 0.0
C650 C 0.65375 0.85527 0.72179 0.0
C651 C 0.64622 0.84575 0.63878 0.0
C652 C 0.63289 0.83572 0.78945 0.0
C653 C 0.66086 0.85581 0.85723 0.0
N654 N 0.64182 0.844 0.68735 0.0
N655 N 0.6627 0.86062 0.80885 0.0
H656 H 0.83329 0.65368 0.60183 0.0
H657 H 0.84276 0.66936 0.89061 0.0
H658 H 0.87283 0.70524 0.6704 0.0
H659 H 0.79704 0.62308 0.82241 0.0
H660 H 0.85216 0.68427 0.81017 0.0
H661 H 0.818 0.64375 0.6818 0.0
C662 C 0.83863 0.66303 0.63371 0.0
C663 C 0.85451 0.68017 0.62964 0.0
C664 C 0.83993 0.67098 0.81273 0.0
C665 C 0.83719 0.66881 0.72124 0.0
C666 C 0.83457 0.66243 0.85866 0.0
C667 C 0.81925 0.64481 0.86306 0.0
C668 C 0.83006 0.6617 0.77078 0.0
C669 C 0.80903 0.63659 0.82054 0.0
C670 C 0.82987 0.65737 0.67935 0.0
C671 C 0.86072 0.69182 0.67201 0.0
N672 N 0.8148 0.64496 0.77604 0.0
N673 N 0.8522 0.68578 0.71616 0.0
H674 H 0.29801 0.88173 0.67176 0.0
H675 H 0.37896 0.79918 0.82006 0.0
H676 H 0.34608 0.83785 0.60351 0.0
H677 H 0.33608 0.84803 0.88875 0.0
H678 H 0.36411 0.81029 0.74019 0.0
H679 H 0.30881 0.86676 0.75181 0.0
C680 C 0.31072 0.86887 0.67363 0.0
C681 C 0.32128 0.86112 0.63109 0.0
C682 C 0.35788 0.8185 0.77279 0.0
C683 C 0.33371 0.84396 0.72216 0.0
C684 C 0.36633 0.81214 0.81832 0.0
C685 C 0.35885 0.82282 0.86093 0.0
C686 C 0.34184 0.83564 0.76999 0.0
C687 C 0.34241 0.83945 0.85672 0.0
C688 C 0.3169 0.86034 0.71925 0.0
C689 C 0.33761 0.84439 0.63545 0.0
N690 N 0.33452 0.84542 0.81203 0.0
N691 N 0.34338 0.83643 0.68019 0.0
H692 H 0.12446 0.29924 0.67115 0.0
H693 H 0.20467 0.38202 0.82044 0.0
H694 H 0.16364 0.35134 0.60348 0.0
H695 H 0.15844 0.33602 0.88797 0.0
H696 H 0.19338 0.36791 0.73991 0.0
H697 H 0.14021 0.30955 0.7506 0.0
C698 C 0.13643 0.3128 0.67302 0.0
C699 C 0.14263 0.32458 0.63085 0.0
C700 C 0.18582 0.36084 0.77242 0.0
C701 C 0.16072 0.33645 0.72137 0.0
C702 C 0.1923 0.36884 0.81831 0.0
C703 C 0.18233 0.3603 0.86079 0.0
C704 C 0.16935 0.34415 0.76924 0.0
C705 C 0.16643 0.34321 0.8561 0.0
C706 C 0.14542 0.31868 0.71833 0.0
C707 C 0.1583 0.34191 0.63521 0.0
N708 N 0.16036 0.33576 0.81114 0.0
N709 N 0.16675 0.34739 0.67973 0.0
H710 H 0.6224 0.20464 0.82062 0.0
H711 H 0.70486 0.12381 0.67205 0.0
H712 H 0.66805 0.1582 0.88867 0.0
H713 H 0.65326 0.16353 0.60399 0.0
H714 H 0.6946 0.13967 0.75143 0.0
H715 H 0.63664 0.19331 0.74027 0.0
C716 C 0.63553 0.19221 0.81864 0.0
C717 C 0.64393 0.18219 0.86121 0.0
C718 C 0.68558 0.14498 0.71909 0.0
C719 C 0.66023 0.16914 0.76982 0.0
C720 C 0.69143 0.13593 0.67382 0.0
C721 C 0.67976 0.14224 0.63156 0.0
C722 C 0.66795 0.16046 0.722 0.0
C723 C 0.66259 0.1581 0.63579 0.0
C724 C 0.64362 0.18571 0.77285 0.0
C725 C 0.66098 0.16622 0.8567 0.0
N726 N 0.65713 0.16661 0.68028 0.0
N727 N 0.66849 0.16011 0.81181 0.0
H728 H 0.83544 0.34576 0.38808 0.0
H729 H 0.84756 0.33387 0.09879 0.0
H730 H 0.87661 0.29586 0.3181 0.0
H731 H 0.8009 0.37896 0.16798 0.0
H732 H 0.85692 0.31847 0.17873 0.0
H733 H 0.82101 0.35677 0.3081 0.0
C734 C 0.84132 0.337 0.35586 0.0
C735 C 0.85738 0.31999 0.35959 0.0
C736 C 0.84452 0.33161 0.17651 0.0
C737 C 0.84106 0.33261 0.26794 0.0
C738 C 0.83918 0.34046 0.13085 0.0
C739 C 0.82354 0.35783 0.12686 0.0
C740 C 0.83428 0.34032 0.21861 0.0
C741 C 0.81313 0.36563 0.16953 0.0
C742 C 0.83306 0.34329 0.3102 0.0
C743 C 0.86431 0.30912 0.31676 0.0
N744 N 0.81883 0.35693 0.21378 0.0
N745 N 0.85625 0.31576 0.2726 0.0
H746 H 0.62073 0.79962 0.17348 0.0
H747 H 0.70417 0.87985 0.32087 0.0
H748 H 0.6653 0.84687 0.10478 0.0
H749 H 0.65331 0.83958 0.38995 0.0
H750 H 0.69288 0.86485 0.24134 0.0
H751 H 0.63527 0.81095 0.25357 0.0
C752 C 0.63365 0.81226 0.17527 0.0
C753 C 0.64173 0.82243 0.13259 0.0
C754 C 0.68424 0.85925 0.27394 0.0
C755 C 0.65839 0.83545 0.22365 0.0
C756 C 0.69069 0.86779 0.31928 0.0
C757 C 0.67955 0.86104 0.36189 0.0
C758 C 0.66656 0.84382 0.27134 0.0
C759 C 0.66226 0.84532 0.3579 0.0
C760 C 0.64192 0.81875 0.2209 0.0
C761 C 0.65852 0.83869 0.13683 0.0
N762 N 0.65624 0.83728 0.31336 0.0
N763 N 0.66624 0.84474 0.18157 0.0
H764 H 0.12247 0.70591 0.32201 0.0
H765 H 0.20404 0.62403 0.17356 0.0
H766 H 0.16539 0.65701 0.3903 0.0
H767 H 0.15554 0.66736 0.10511 0.0
H768 H 0.19324 0.63909 0.25347 0.0
H769 H 0.13755 0.69514 0.24208 0.0
C770 C 0.13515 0.69302 0.32019 0.0
C771 C 0.14256 0.68221 0.3627 0.0
C772 C 0.18505 0.64538 0.22092 0.0
C773 C 0.15985 0.66979 0.27169 0.0
C774 C 0.19123 0.63681 0.17535 0.0
C775 C 0.18053 0.64433 0.1328 0.0
C776 C 0.16808 0.6616 0.22381 0.0
C777 C 0.16411 0.66097 0.13709 0.0
C778 C 0.14374 0.68685 0.27461 0.0
C779 C 0.15909 0.66567 0.35836 0.0
N780 N 0.15831 0.66897 0.18182 0.0
N781 N 0.16711 0.6599 0.31364 0.0
H782 H 0.2959 0.12811 0.32038 0.0
H783 H 0.38095 0.20491 0.16873 0.0
H784 H 0.34805 0.16751 0.38721 0.0
H785 H 0.33602 0.15717 0.10282 0.0
H786 H 0.3657 0.19534 0.24929 0.0
H787 H 0.30691 0.14269 0.24028 0.0
C788 C 0.30954 0.13997 0.31821 0.0
C789 C 0.32122 0.14647 0.36032 0.0
C790 C 0.35911 0.18706 0.21712 0.0
C791 C 0.33394 0.16315 0.26904 0.0
C792 C 0.36779 0.19254 0.17121 0.0
C793 C 0.35985 0.18168 0.1292 0.0
C794 C 0.34234 0.1707 0.22084 0.0
C795 C 0.34274 0.16583 0.13434 0.0
C796 C 0.31586 0.14824 0.27252 0.0
C797 C 0.33872 0.16193 0.35554 0.0
N798 N 0.33461 0.16076 0.17935 0.0
N799 N 0.34463 0.16967 0.31065 0.0
loop_
_geom_bond_atom_site_label_1
_geom_bond_atom_site_label_2
_geom_bond_distance
_geom_bond_site_symmetry_2
_ccdc_geom_bond_type
Co0 O1 2.216 . S
Co0 O2 2.089 1_556 S
Co0 O4 2.004 . S
Co0 O10 2.021 1_556 S
Co0 O12 2.137 . S
Co0 O13 2.244 . S
O1 Co0 2.216 . S
O1 C8 1.246 1_556 S
O2 Co0 2.089 1_554 S
O2 C8 1.261 . S
C3 O12 1.247 . S
C3 O13 1.272 . S
O4 Co0 2.004 . S
O4 C9 1.259 . S
Co5 O6 2.061 1_556 S
Co5 O11 2.042 1_556 S
Co5 O13 2.142 . S
O6 Co5 2.061 1_554 S
O6 C9 1.235 1_554 S
C7 O10 1.238 . S
C7 O11 1.241 . S
C8 O1 1.246 1_554 S
C8 O2 1.261 . S
C9 O4 1.259 . S
C9 O6 1.235 1_556 S
O10 Co0 2.021 1_554 S
O10 C7 1.238 . S
O11 Co5 2.042 1_554 S
O11 C7 1.241 . S
O12 Co0 2.137 . S
O12 C3 1.247 . S
O13 Co0 2.244 . S
O13 C3 1.272 . S
O13 Co5 2.142 . S
Co14 O15 2.216 . S
Co14 O16 2.089 1_556 S
Co14 O18 2.004 . S
Co14 O24 2.021 1_556 S
Co14 O26 2.137 . S
Co14 O27 2.244 . S
O15 Co14 2.216 . S
O15 C22 1.246 1_556 S
O16 Co14 2.089 1_554 S
O16 C22 1.261 . S
C17 O26 1.247 . S
C17 O27 1.272 . S
O18 Co14 2.004 . S
O18 C23 1.259 . S
Co19 O20 2.061 1_556 S
Co19 O25 2.042 1_556 S
Co19 O27 2.142 . S
O20 Co19 2.061 1_554 S
O20 C23 1.235 1_554 S
C21 O24 1.238 . S
C21 O25 1.241 . S
C22 O15 1.246 1_554 S
C22 O16 1.261 . S
C23 O18 1.259 . S
C23 O20 1.235 1_556 S
O24 Co14 2.021 1_554 S
O24 C21 1.238 . S
O25 Co19 2.042 1_554 S
O25 C21 1.241 . S
O26 Co14 2.137 . S
O26 C17 1.247 . S
O27 Co14 2.244 . S
O27 C17 1.272 . S
O27 Co19 2.142 . S
Co28 O29 2.216 . S
Co28 O30 2.089 1_556 S
Co28 O32 2.004 . S
Co28 O38 2.021 1_556 S
Co28 O40 2.137 . S
Co28 O41 2.244 . S
O29 Co28 2.216 . S
O29 C36 1.246 1_556 S
O30 Co28 2.089 1_554 S
O30 C36 1.261 . S
C31 O40 1.247 . S
C31 O41 1.272 . S
O32 Co28 2.004 . S
O32 C37 1.259 . S
Co33 O34 2.061 1_556 S
Co33 O39 2.042 1_556 S
Co33 O41 2.142 . S
O34 Co33 2.061 1_554 S
O34 C37 1.235 1_554 S
C35 O38 1.238 . S
C35 O39 1.241 . S
C36 O29 1.246 1_554 S
C36 O30 1.261 . S
C37 O32 1.259 . S
C37 O34 1.235 1_556 S
O38 Co28 2.021 1_554 S
O38 C35 1.238 . S
O39 Co33 2.042 1_554 S
O39 C35 1.241 . S
O40 Co28 2.137 . S
O40 C31 1.247 . S
O41 Co28 2.244 . S
O41 C31 1.272 . S
O41 Co33 2.142 . S
Co42 O43 2.216 . S
Co42 O44 2.089 1_556 S
Co42 O46 2.004 . S
Co42 O52 2.021 1_556 S
Co42 O54 2.137 . S
Co42 O55 2.244 . S
O43 Co42 2.216 . S
O43 C50 1.246 1_556 S
O44 Co42 2.089 1_554 S
O44 C50 1.261 . S
C45 O54 1.247 . S
C45 O55 1.272 . S
O46 Co42 2.004 . S
O46 C51 1.259 . S
Co47 O48 2.061 1_556 S
Co47 O53 2.042 1_556 S
Co47 O55 2.142 . S
O48 Co47 2.061 1_554 S
O48 C51 1.235 1_554 S
C49 O52 1.238 . S
C49 O53 1.241 . S
C50 O43 1.246 1_554 S
C50 O44 1.261 . S
C51 O46 1.259 . S
C51 O48 1.235 1_556 S
O52 Co42 2.021 1_554 S
O52 C49 1.238 . S
O53 Co47 2.042 1_554 S
O53 C49 1.241 . S
O54 Co42 2.137 . S
O54 C45 1.247 . S
O55 Co42 2.244 . S
O55 C45 1.272 . S
O55 Co47 2.142 . S
Co56 O57 2.216 . S
Co56 O58 2.091 1_554 S
Co56 O60 2.004 . S
Co56 O66 2.021 1_554 S
Co56 O68 2.137 . S
Co56 O69 2.244 . S
O57 Co56 2.216 . S
O57 C64 1.248 . S
O58 Co56 2.091 1_556 S
O58 C64 1.261 1_556 S
C59 O68 1.247 . S
C59 O69 1.272 . S
O60 Co56 2.004 . S
O60 C65 1.259 . S
Co61 O62 2.061 1_554 S
Co61 O67 2.052 1_554 S
Co61 O69 2.135 . S
O62 Co61 2.061 1_556 S
O62 C65 1.235 1_556 S
C63 O66 1.238 . S
C63 O67 1.241 . S
C64 O57 1.248 . S
C64 O58 1.261 1_554 S
C65 O60 1.259 . S
C65 O62 1.235 1_554 S
O66 Co56 2.021 1_556 S
O66 C63 1.238 . S
O67 Co61 2.052 1_556 S
O67 C63 1.241 . S
O68 Co56 2.137 . S
O68 C59 1.247 . S
O69 Co56 2.244 . S
O69 C59 1.272 . S
O69 Co61 2.135 . S
Co70 O71 2.216 . S
Co70 O72 2.091 1_554 S
Co70 O74 2.004 . S
Co70 O80 2.021 1_554 S
Co70 O82 2.137 . S
Co70 O83 2.244 . S
O71 Co70 2.216 . S
O71 C78 1.248 . S
O72 Co70 2.091 1_556 S
O72 C78 1.261 1_556 S
C73 O82 1.247 . S
C73 O83 1.272 . S
O74 Co70 2.004 . S
O74 C79 1.259 . S
Co75 O76 2.061 1_554 S
Co75 O81 2.052 1_554 S
Co75 O83 2.135 . S
O76 Co75 2.061 1_556 S
O76 C79 1.235 1_556 S
C77 O80 1.238 . S
C77 O81 1.241 . S
C78 O71 1.248 . S
C78 O72 1.261 1_554 S
C79 O74 1.259 . S
C79 O76 1.235 1_554 S
O80 Co70 2.021 1_556 S
O80 C77 1.238 . S
O81 Co75 2.052 1_556 S
O81 C77 1.241 . S
O82 Co70 2.137 . S
O82 C73 1.247 . S
O83 Co70 2.244 . S
O83 C73 1.272 . S
O83 Co75 2.135 . S
Co84 O85 2.216 . S
Co84 O86 2.091 1_554 S
Co84 O88 2.004 . S
Co84 O94 2.021 1_554 S
Co84 O96 2.137 . S
Co84 O97 2.244 . S
O85 Co84 2.216 . S
O85 C92 1.248 . S
O86 Co84 2.091 1_556 S
O86 C92 1.261 1_556 S
C87 O96 1.247 . S
C87 O97 1.272 . S
O88 Co84 2.004 . S
O88 C93 1.259 . S
Co89 O90 2.061 1_554 S
Co89 O95 2.052 1_554 S
Co89 O97 2.135 . S
O90 Co89 2.061 1_556 S
O90 C93 1.235 1_556 S
C91 O94 1.238 . S
C91 O95 1.241 . S
C92 O85 1.248 . S
C92 O86 1.261 1_554 S
C93 O88 1.259 . S
C93 O90 1.235 1_554 S
O94 Co84 2.021 1_556 S
O94 C91 1.238 . S
O95 Co89 2.052 1_556 S
O95 C91 1.241 . S
O96 Co84 2.137 . S
O96 C87 1.247 . S
O97 Co84 2.244 . S
O97 C87 1.272 . S
O97 Co89 2.135 . S
Co98 O99 2.216 . S
Co98 O100 2.091 1_554 S
Co98 O102 2.004 . S
Co98 O108 2.021 1_554 S
Co98 O110 2.137 . S
Co98 O111 2.244 . S
O99 Co98 2.216 . S
O99 C106 1.248 . S
O100 Co98 2.091 1_556 S
O100 C106 1.261 1_556 S
C101 O110 1.247 . S
C101 O111 1.272 . S
O102 Co98 2.004 . S
O102 C107 1.259 . S
Co103 O104 2.061 1_554 S
Co103 O109 2.052 1_554 S
Co103 O111 2.135 . S
O104 Co103 2.061 1_556 S
O104 C107 1.235 1_556 S
C105 O108 1.238 . S
C105 O109 1.241 . S
C106 O99 1.248 . S
C106 O100 1.261 1_554 S
C107 O102 1.259 . S
C107 O104 1.235 1_554 S
O108 Co98 2.021 1_556 S
O108 C105 1.238 . S
O109 Co103 2.052 1_556 S
O109 C105 1.241 . S
O110 Co98 2.137 . S
O110 C101 1.247 . S
O111 Co98 2.244 . S
O111 C101 1.272 . S
O111 Co103 2.135 . S
Co112 O113 2.216 . S
Co112 O114 2.091 . S
Co112 O116 2.004 . S
Co112 O122 2.021 . S
Co112 O124 2.137 . S
Co112 O125 2.244 . S
O113 Co112 2.216 . S
O113 C120 1.247 . S
O114 Co112 2.091 . S
O114 C120 1.261 . S
C115 O124 1.247 . S
C115 O125 1.272 . S
O116 Co112 2.004 . S
O116 C121 1.259 . S
Co117 O118 2.061 . S
Co117 O123 2.052 . S
Co117 O125 2.135 . S
O118 Co117 2.061 . S
O118 C121 1.235 . S
C119 O122 1.238 . S
C119 O123 1.241 . S
C120 O113 1.247 . S
C120 O114 1.261 . S
C121 O116 1.259 . S
C121 O118 1.235 . S
O122 Co112 2.021 . S
O122 C119 1.238 . S
O123 Co117 2.052 . S
O123 C119 1.241 . S
O124 Co112 2.137 . S
O124 C115 1.247 . S
O125 Co112 2.244 . S
O125 C115 1.272 . S
O125 Co117 2.135 . S
Co126 O127 2.216 . S
Co126 O128 2.091 . S
Co126 O130 2.004 . S
Co126 O136 2.021 . S
Co126 O138 2.137 . S
Co126 O139 2.244 . S
O127 Co126 2.216 . S
O127 C134 1.247 . S
O128 Co126 2.091 . S
O128 C134 1.261 . S
C129 O138 1.247 . S
C129 O139 1.272 . S
O130 Co126 2.004 . S
O130 C135 1.259 . S
Co131 O132 2.061 . S
Co131 O137 2.052 . S
Co131 O139 2.135 . S
O132 Co131 2.061 . S
O132 C135 1.235 . S
C133 O136 1.238 . S
C133 O137 1.241 . S
C134 O127 1.247 . S
C134 O128 1.261 . S
C135 O130 1.259 . S
C135 O132 1.235 . S
O136 Co126 2.021 . S
O136 C133 1.238 . S
O137 Co131 2.052 . S
O137 C133 1.241 . S
O138 Co126 2.137 . S
O138 C129 1.247 . S
O139 Co126 2.244 . S
O139 C129 1.272 . S
O139 Co131 2.135 . S
Co140 O141 2.216 . S
Co140 O142 2.091 . S
Co140 O144 2.004 . S
Co140 O150 2.021 . S
Co140 O152 2.137 . S
Co140 O153 2.244 . S
O141 Co140 2.216 . S
O141 C148 1.247 . S
O142 Co140 2.091 . S
O142 C148 1.261 . S
C143 O152 1.247 . S
C143 O153 1.272 . S
O144 Co140 2.004 . S
O144 C149 1.259 . S
Co145 O146 2.061 . S
Co145 O151 2.052 . S
Co145 O153 2.135 . S
O146 Co145 2.061 . S
O146 C149 1.235 . S
C147 O150 1.238 . S
C147 O151 1.241 . S
C148 O141 1.247 . S
C148 O142 1.261 . S
C149 O144 1.259 . S
C149 O146 1.235 . S
O150 Co140 2.021 . S
O150 C147 1.238 . S
O151 Co145 2.052 . S
O151 C147 1.241 . S
O152 Co140 2.137 . S
O152 C143 1.247 . S
O153 Co140 2.244 . S
O153 C143 1.272 . S
O153 Co145 2.135 . S
Co154 O155 2.216 . S
Co154 O156 2.091 . S
Co154 O158 2.004 . S
Co154 O164 2.021 . S
Co154 O166 2.137 . S
Co154 O167 2.244 . S
O155 Co154 2.216 . S
O155 C162 1.247 . S
O156 Co154 2.091 . S
O156 C162 1.261 . S
C157 O166 1.247 . S
C157 O167 1.272 . S
O158 Co154 2.004 . S
O158 C163 1.259 . S
Co159 O160 2.061 . S
Co159 O165 2.052 . S
Co159 O167 2.135 . S
O160 Co159 2.061 . S
O160 C163 1.235 . S
C161 O164 1.238 . S
C161 O165 1.241 . S
C162 O155 1.247 . S
C162 O156 1.261 . S
C163 O158 1.259 . S
C163 O160 1.235 . S
O164 Co154 2.021 . S
O164 C161 1.238 . S
O165 Co159 2.052 . S
O165 C161 1.241 . S
O166 Co154 2.137 . S
O166 C157 1.247 . S
O167 Co154 2.244 . S
O167 C157 1.272 . S
O167 Co159 2.135 . S
Co168 O169 2.216 . S
Co168 O170 2.091 . S
Co168 O172 2.004 . S
Co168 O178 2.021 . S
Co168 O180 2.137 . S
Co168 O181 2.244 . S
O169 Co168 2.216 . S
O169 C176 1.247 . S
O170 Co168 2.091 . S
O170 C176 1.261 . S
C171 O180 1.247 . S
C171 O181 1.272 . S
O172 Co168 2.004 . S
O172 C177 1.259 . S
Co173 O174 2.061 . S
Co173 O179 2.052 . S
Co173 O181 2.135 . S
O174 Co173 2.061 . S
O174 C177 1.235 . S
C175 O178 1.238 . S
C175 O179 1.241 . S
C176 O169 1.247 . S
C176 O170 1.261 . S
C177 O172 1.259 . S
C177 O174 1.235 . S
O178 Co168 2.021 . S
O178 C175 1.238 . S
O179 Co173 2.052 . S
O179 C175 1.241 . S
O180 Co168 2.137 . S
O180 C171 1.247 . S
O181 Co168 2.244 . S
O181 C171 1.272 . S
O181 Co173 2.135 . S
Co182 O183 2.216 . S
Co182 O184 2.091 . S
Co182 O186 2.004 . S
Co182 O192 2.021 . S
Co182 O194 2.137 . S
Co182 O195 2.244 . S
O183 Co182 2.216 . S
O183 C190 1.247 . S
O184 Co182 2.091 . S
O184 C190 1.261 . S
C185 O194 1.247 . S
C185 O195 1.272 . S
O186 Co182 2.004 . S
O186 C191 1.259 . S
Co187 O188 2.061 . S
Co187 O193 2.052 . S
Co187 O195 2.135 . S
O188 Co187 2.061 . S
O188 C191 1.235 . S
C189 O192 1.238 . S
C189 O193 1.241 . S
C190 O183 1.247 . S
C190 O184 1.261 . S
C191 O186 1.259 . S
C191 O188 1.235 . S
O192 Co182 2.021 . S
O192 C189 1.238 . S
O193 Co187 2.052 . S
O193 C189 1.241 . S
O194 Co182 2.137 . S
O194 C185 1.247 . S
O195 Co182 2.244 . S
O195 C185 1.272 . S
O195 Co187 2.135 . S
Co196 O197 2.216 . S
Co196 O198 2.091 . S
Co196 O200 2.004 . S
Co196 O206 2.021 . S
Co196 O208 2.137 . S
Co196 O209 2.244 . S
O197 Co196 2.216 . S
O197 C204 1.247 . S
O198 Co196 2.091 . S
O198 C204 1.261 . S
C199 O208 1.247 . S
C199 O209 1.272 . S
O200 Co196 2.004 . S
O200 C205 1.259 . S
Co201 O202 2.061 . S
Co201 O207 2.052 . S
Co201 O209 2.135 . S
O202 Co201 2.061 . S
O202 C205 1.235 . S
C203 O206 1.238 . S
C203 O207 1.241 . S
C204 O197 1.247 . S
C204 O198 1.261 . S
C205 O200 1.259 . S
C205 O202 1.235 . S
O206 Co196 2.021 . S
O206 C203 1.238 . S
O207 Co201 2.052 . S
O207 C203 1.241 . S
O208 Co196 2.137 . S
O208 C199 1.247 . S
O209 Co196 2.244 . S
O209 C199 1.272 . S
O209 Co201 2.135 . S
Co210 O211 2.216 . S
Co210 O212 2.091 . S
Co210 O214 2.004 . S
Co210 O220 2.021 . S
Co210 O222 2.137 . S
Co210 O223 2.244 . S
O211 Co210 2.216 . S
O211 C218 1.247 . S
O212 Co210 2.091 . S
O212 C218 1.261 . S
C213 O222 1.247 . S
C213 O223 1.272 . S
O214 Co210 2.004 . S
O214 C219 1.259 . S
Co215 O216 2.061 . S
Co215 O221 2.052 . S
Co215 O223 2.135 . S
O216 Co215 2.061 . S
O216 C219 1.235 . S
C217 O220 1.238 . S
C217 O221 1.241 . S
C218 O211 1.247 . S
C218 O212 1.261 . S
C219 O214 1.259 . S
C219 O216 1.235 . S
O220 Co210 2.021 . S
O220 C217 1.238 . S
O221 Co215 2.052 . S
O221 C217 1.241 . S
O222 Co210 2.137 . S
O222 C213 1.247 . S
O223 Co210 2.244 . S
O223 C213 1.272 . S
O223 Co215 2.135 . S
H224 C230 0.930 . S
H225 C234 0.930 . S
H226 C239 0.929 . S
H227 C237 0.929 . S
H228 C232 0.929 . S
H229 C238 0.929 . S
C230 H224 0.930 . S
C230 C231 1.363 1_554 S
C230 C238 1.378 . S
C231 C230 1.363 1_556 S
C231 C239 1.437 . S
C232 H228 0.929 . S
C232 C234 1.378 . S
C232 C236 1.357 . S
C233 C236 1.462 1_554 S
C233 C238 1.350 . S
C233 N241 1.427 1_554 S
C234 H225 0.930 . S
C234 C232 1.378 . S
C234 C235 1.367 1_556 S
C235 C234 1.367 1_554 S
C235 C237 1.433 . S
C236 C232 1.357 . S
C236 C233 1.462 1_556 S
C236 N240 1.420 1_556 S
C237 H227 0.929 . S
C237 C235 1.433 . S
C237 N240 1.384 . S
C238 H229 0.929 . S
C238 C230 1.378 . S
C238 C233 1.350 . S
C239 H226 0.929 . S
C239 C231 1.437 . S
C239 N241 1.384 . S
N240 C236 1.420 1_554 S
N240 C237 1.384 . S
N241 C233 1.427 1_556 S
N241 C239 1.384 . S
H242 C248 0.930 . S
H243 C252 0.930 . S
H244 C257 0.929 . S
H245 C255 0.929 . S
H246 C250 0.929 . S
H247 C256 0.929 . S
C248 H242 0.930 . S
C248 C249 1.362 1_554 S
C248 C256 1.378 . S
C249 C248 1.362 1_556 S
C249 C257 1.438 . S
C250 H246 0.929 . S
C250 C252 1.378 . S
C250 C254 1.348 1_556 S
C251 C254 1.463 . S
C251 C256 1.352 . S
C251 N259 1.425 1_554 S
C252 H243 0.930 . S
C252 C250 1.378 . S
C252 C253 1.367 1_556 S
C253 C252 1.367 1_554 S
C253 C255 1.433 . S
C254 C250 1.348 1_554 S
C254 C251 1.463 . S
C254 N258 1.430 . S
C255 H245 0.929 . S
C255 C253 1.433 . S
C255 N258 1.384 . S
C256 H247 0.929 . S
C256 C248 1.378 . S
C256 C251 1.352 . S
C257 H244 0.929 . S
C257 C249 1.438 . S
C257 N259 1.384 . S
N258 C254 1.430 . S
N258 C255 1.384 . S
N259 C251 1.425 1_556 S
N259 C257 1.384 . S
H260 C266 0.930 . S
H261 C270 0.930 . S
H262 C275 0.929 . S
H263 C273 0.929 . S
H264 C268 0.929 . S
H265 C274 0.929 . S
C266 H260 0.930 . S
C266 C267 1.367 . S
C266 C274 1.378 . S
C267 C266 1.367 . S
C267 C275 1.433 1_556 S
C268 H264 0.929 . S
C268 C270 1.378 . S
C268 C272 1.350 . S
C269 C272 1.463 1_556 S
C269 C274 1.350 . S
C269 N277 1.427 1_556 S
C270 H261 0.930 . S
C270 C268 1.378 . S
C270 C271 1.367 . S
C271 C270 1.367 . S
C271 C273 1.433 1_554 S
C272 C268 1.350 . S
C272 C269 1.463 1_554 S
C272 N276 1.427 1_554 S
C273 H263 0.929 . S
C273 C271 1.433 1_556 S
C273 N276 1.384 . S
C274 H265 0.929 . S
C274 C266 1.378 . S
C274 C269 1.350 . S
C275 H262 0.929 . S
C275 C267 1.433 1_554 S
C275 N277 1.384 . S
N276 C272 1.427 1_556 S
N276 C273 1.384 . S
N277 C269 1.427 1_554 S
N277 C275 1.384 . S
H278 C284 0.930 . S
H279 C288 0.930 . S
H280 C293 0.929 . S
H281 C291 0.929 . S
H282 C286 0.929 . S
H283 C292 0.929 . S
C284 H278 0.930 . S
C284 C285 1.362 1_554 S
C284 C292 1.378 . S
C285 C284 1.362 1_556 S
C285 C293 1.438 . S
C286 H282 0.929 . S
C286 C288 1.378 . S
C286 C290 1.355 . S
C287 C290 1.462 1_554 S
C287 C292 1.350 . S
C287 N295 1.427 1_554 S
C288 H279 0.930 . S
C288 C286 1.378 . S
C288 C289 1.367 1_556 S
C289 C288 1.367 1_554 S
C289 C291 1.433 . S
C290 C286 1.355 . S
C290 C287 1.462 1_556 S
C290 N294 1.422 1_556 S
C291 H281 0.929 . S
C291 C289 1.433 . S
C291 N294 1.384 . S
C292 H283 0.929 . S
C292 C284 1.378 . S
C292 C287 1.350 . S
C293 H280 0.929 . S
C293 C285 1.438 . S
C293 N295 1.384 . S
N294 C290 1.422 1_554 S
N294 C291 1.384 . S
N295 C287 1.427 1_556 S
N295 C293 1.384 . S
H296 C302 0.930 . S
H297 C306 0.930 . S
H298 C311 0.929 . S
H299 C309 0.929 . S
H300 C304 0.929 . S
H301 C310 0.929 . S
C302 H296 0.930 . S
C302 C303 1.367 . S
C302 C310 1.378 . S
C303 C302 1.367 . S
C303 C311 1.433 . S
C304 H300 0.929 . S
C304 C306 1.378 . S
C304 C308 1.350 . S
C305 C308 1.463 1_545 S
C305 C310 1.350 . S
C305 N313 1.427 . S
C306 H297 0.930 . S
C306 C304 1.378 . S
C306 C307 1.367 . S
C307 C306 1.367 . S
C307 C309 1.433 . S
C308 C304 1.350 . S
C308 C305 1.463 1_565 S
C308 N312 1.427 . S
C309 H299 0.929 . S
C309 C307 1.433 . S
C309 N312 1.384 . S
C310 H301 0.929 . S
C310 C302 1.378 . S
C310 C305 1.350 . S
C311 H298 0.929 . S
C311 C303 1.433 . S
C311 N313 1.384 . S
N312 C308 1.427 . S
N312 C309 1.384 . S
N313 C305 1.427 . S
N313 C311 1.384 . S
H314 C320 0.930 . S
H315 C324 0.930 . S
H316 C329 0.929 . S
H317 C327 0.929 . S
H318 C322 0.929 . S
H319 C328 0.929 . S
C320 H314 0.930 . S
C320 C321 1.367 . S
C320 C328 1.378 . S
C321 C320 1.367 . S
C321 C329 1.433 . S
C322 H318 0.929 . S
C322 C324 1.378 . S
C322 C326 1.350 . S
C323 C326 1.463 1_655 S
C323 C328 1.350 . S
C323 N331 1.427 . S
C324 H315 0.930 . S
C324 C322 1.378 . S
C324 C325 1.367 . S
C325 C324 1.367 . S
C325 C327 1.433 . S
C326 C322 1.350 . S
C326 C323 1.463 1_455 S
C326 N330 1.427 . S
C327 H317 0.929 . S
C327 C325 1.433 . S
C327 N330 1.384 . S
C328 H319 0.929 . S
C328 C320 1.378 . S
C328 C323 1.350 . S
C329 H316 0.929 . S
C329 C321 1.433 . S
C329 N331 1.384 . S
N330 C326 1.427 . S
N330 C327 1.384 . S
N331 C323 1.427 . S
N331 C329 1.384 . S
H332 C338 0.930 . S
H333 C342 0.930 . S
H334 C347 0.929 . S
H335 C345 0.929 . S
H336 C340 0.929 . S
H337 C346 0.929 . S
C338 H332 0.930 . S
C338 C339 1.367 . S
C338 C346 1.378 . S
C339 C338 1.367 . S
C339 C347 1.433 . S
C340 H336 0.929 . S
C340 C342 1.378 . S
C340 C344 1.350 . S
C341 C344 1.463 1_545 S
C341 C346 1.350 . S
C341 N349 1.427 . S
C342 H333 0.930 . S
C342 C340 1.378 . S
C342 C343 1.367 . S
C343 C342 1.367 . S
C343 C345 1.433 . S
C344 C340 1.350 . S
C344 C341 1.463 1_565 S
C344 N348 1.427 . S
C345 H335 0.929 . S
C345 C343 1.433 . S
C345 N348 1.384 . S
C346 H337 0.929 . S
C346 C338 1.378 . S
C346 C341 1.350 . S
C347 H334 0.929 . S
C347 C339 1.433 . S
C347 N349 1.384 . S
N348 C344 1.427 . S
N348 C345 1.384 . S
N349 C341 1.427 . S
N349 C347 1.384 . S
H350 C356 0.930 . S
H351 C360 0.930 . S
H352 C365 0.929 . S
H353 C363 0.929 . S
H354 C358 0.929 . S
H355 C364 0.929 . S
C356 H350 0.930 . S
C356 C357 1.367 . S
C356 C364 1.378 . S
C357 C356 1.367 . S
C357 C365 1.433 . S
C358 H354 0.929 . S
C358 C360 1.378 . S
C358 C362 1.350 . S
C359 C362 1.463 1_455 S
C359 C364 1.350 . S
C359 N367 1.427 . S
C360 H351 0.930 . S
C360 C358 1.378 . S
C360 C361 1.367 . S
C361 C360 1.367 . S
C361 C363 1.433 . S
C362 C358 1.350 . S
C362 C359 1.463 1_655 S
C362 N366 1.427 . S
C363 H353 0.929 . S
C363 C361 1.433 . S
C363 N366 1.384 . S
C364 H355 0.929 . S
C364 C356 1.378 . S
C364 C359 1.350 . S
C365 H352 0.929 . S
C365 C357 1.433 . S
C365 N367 1.384 . S
N366 C362 1.427 . S
N366 C363 1.384 . S
N367 C359 1.427 . S
N367 C365 1.384 . S
H368 C374 0.930 . S
H369 C378 0.930 . S
H370 C383 0.929 . S
H371 C381 0.929 . S
H372 C376 0.929 . S
H373 C382 0.929 . S
C374 H368 0.930 . S
C374 C375 1.369 . S
C374 C382 1.378 . S
C375 C374 1.369 . S
C375 C383 1.431 1_554 S
C376 H372 0.929 . S
C376 C378 1.378 . S
C376 C380 1.357 . S
C377 C380 1.462 1_554 S
C377 C382 1.350 . S
C377 N385 1.427 1_554 S
C378 H369 0.930 . S
C378 C376 1.378 . S
C378 C379 1.354 1_556 S
C379 C378 1.354 1_554 S
C379 C381 1.446 . S
C380 C376 1.357 . S
C380 C377 1.462 1_556 S
C380 N384 1.420 1_556 S
C381 H371 0.929 . S
C381 C379 1.446 . S
C381 N384 1.384 . S
C382 H373 0.929 . S
C382 C374 1.378 . S
C382 C377 1.350 . S
C383 H370 0.929 . S
C383 C375 1.431 1_556 S
C383 N385 1.384 . S
N384 C380 1.420 1_554 S
N384 C381 1.384 . S
N385 C377 1.427 1_556 S
N385 C383 1.384 . S
H386 C392 0.930 . S
H387 C396 0.930 . S
H388 C401 0.929 . S
H389 C399 0.929 . S
H390 C394 0.929 . S
H391 C400 0.929 . S
C392 H386 0.930 . S
C392 C393 1.355 1_556 S
C392 C400 1.378 . S
C393 C392 1.355 1_554 S
C393 C401 1.445 . S
C394 H390 0.929 . S
C394 C396 1.378 . S
C394 C398 1.350 . S
C395 C398 1.462 1_556 S
C395 C400 1.363 . S
C395 N403 1.414 1_556 S
C396 H387 0.930 . S
C396 C394 1.378 . S
C396 C397 1.372 . S
C397 C396 1.372 . S
C397 C399 1.428 1_554 S
C398 C394 1.350 . S
C398 C395 1.462 1_554 S
C398 N402 1.427 1_554 S
C399 H389 0.929 . S
C399 C397 1.428 1_556 S
C399 N402 1.384 . S
C400 H391 0.929 . S
C400 C392 1.378 . S
C400 C395 1.363 . S
C401 H388 0.929 . S
C401 C393 1.445 . S
C401 N403 1.384 . S
N402 C398 1.427 1_556 S
N402 C399 1.384 . S
N403 C395 1.414 1_554 S
N403 C401 1.384 . S
H404 C410 0.930 . S
H405 C414 0.930 . S
H406 C419 0.929 . S
H407 C417 0.929 . S
H408 C412 0.929 . S
H409 C418 0.929 . S
C410 H404 0.930 . S
C410 C411 1.368 . S
C410 C418 1.378 . S
C411 C410 1.368 . S
C411 C419 1.432 1_554 S
C412 H408 0.929 . S
C412 C414 1.378 . S
C412 C416 1.356 . S
C413 C416 1.462 1_554 S
C413 C418 1.350 . S
C413 N421 1.427 1_554 S
C414 H405 0.930 . S
C414 C412 1.378 . S
C414 C415 1.354 1_556 S
C415 C414 1.354 1_554 S
C415 C417 1.446 . S
C416 C412 1.356 . S
C416 C413 1.462 1_556 S
C416 N420 1.421 1_556 S
C417 H407 0.929 . S
C417 C415 1.446 . S
C417 N420 1.384 . S
C418 H409 0.929 . S
C418 C410 1.378 . S
C418 C413 1.350 . S
C419 H406 0.929 . S
C419 C411 1.432 1_556 S
C419 N421 1.384 . S
N420 C416 1.421 1_554 S
N420 C417 1.384 . S
N421 C413 1.427 1_556 S
N421 C419 1.384 . S
H422 C428 0.930 . S
H423 C432 0.930 . S
H424 C437 0.929 . S
H425 C435 0.929 . S
H426 C430 0.929 . S
H427 C436 0.929 . S
C428 H422 0.930 . S
C428 C429 1.367 . S
C428 C436 1.378 . S
C429 C428 1.367 . S
C429 C437 1.433 1_554 S
C430 H426 0.929 . S
C430 C432 1.378 . S
C430 C434 1.350 . S
C431 C434 1.463 1_554 S
C431 C436 1.350 . S
C431 N439 1.427 1_554 S
C432 H423 0.930 . S
C432 C430 1.378 . S
C432 C433 1.367 . S
C433 C432 1.367 . S
C433 C435 1.433 1_556 S
C434 C430 1.350 . S
C434 C431 1.463 1_556 S
C434 N438 1.427 1_556 S
C435 H425 0.929 . S
C435 C433 1.433 1_554 S
C435 N438 1.384 . S
C436 H427 0.929 . S
C436 C428 1.378 . S
C436 C431 1.350 . S
C437 H424 0.929 . S
C437 C429 1.433 1_556 S
C437 N439 1.384 . S
N438 C434 1.427 1_554 S
N438 C435 1.384 . S
N439 C431 1.427 1_556 S
N439 C437 1.384 . S
H440 C446 0.930 . S
H441 C450 0.930 . S
H442 C455 0.929 . S
H443 C453 0.929 . S
H444 C448 0.929 . S
H445 C454 0.929 . S
C446 H440 0.930 . S
C446 C447 1.367 . S
C446 C454 1.378 . S
C447 C446 1.367 . S
C447 C455 1.433 . S
C448 H444 0.929 . S
C448 C450 1.378 . S
C448 C452 1.350 . S
C449 C452 1.463 . S
C449 C454 1.350 . S
C449 N457 1.427 . S
C450 H441 0.930 . S
C450 C448 1.378 . S
C450 C451 1.367 . S
C451 C450 1.367 . S
C451 C453 1.433 . S
C452 C448 1.350 . S
C452 C449 1.463 . S
C452 N456 1.427 . S
C453 H443 0.929 . S
C453 C451 1.433 . S
C453 N456 1.384 . S
C454 H445 0.929 . S
C454 C446 1.378 . S
C454 C449 1.350 . S
C455 H442 0.929 . S
C455 C447 1.433 . S
C455 N457 1.384 . S
N456 C452 1.427 . S
N456 C453 1.384 . S
N457 C449 1.427 . S
N457 C455 1.384 . S
H458 C464 0.930 . S
H459 C468 0.930 . S
H460 C473 0.929 . S
H461 C471 0.929 . S
H462 C466 0.929 . S
H463 C472 0.929 . S
C464 H458 0.930 . S
C464 C465 1.367 . S
C464 C472 1.378 . S
C465 C464 1.367 . S
C465 C473 1.433 . S
C466 H462 0.929 . S
C466 C468 1.378 . S
C466 C470 1.350 . S
C467 C470 1.463 . S
C467 C472 1.350 . S
C467 N475 1.427 . S
C468 H459 0.930 . S
C468 C466 1.378 . S
C468 C469 1.367 . S
C469 C468 1.367 . S
C469 C471 1.433 . S
C470 C466 1.350 . S
C470 C467 1.463 . S
C470 N474 1.427 . S
C471 H461 0.929 . S
C471 C469 1.433 . S
C471 N474 1.384 . S
C472 H463 0.929 . S
C472 C464 1.378 . S
C472 C467 1.350 . S
C473 H460 0.929 . S
C473 C465 1.433 . S
C473 N475 1.384 . S
N474 C470 1.427 . S
N474 C471 1.384 . S
N475 C467 1.427 . S
N475 C473 1.384 . S
H476 C482 0.930 . S
H477 C486 0.930 . S
H478 C491 0.929 . S
H479 C489 0.929 . S
H480 C484 0.929 . S
H481 C490 0.929 . S
C482 H476 0.930 . S
C482 C483 1.367 . S
C482 C490 1.378 . S
C483 C482 1.367 . S
C483 C491 1.433 . S
C484 H480 0.929 . S
C484 C486 1.378 . S
C484 C488 1.350 . S
C485 C488 1.463 . S
C485 C490 1.350 . S
C485 N493 1.427 . S
C486 H477 0.930 . S
C486 C484 1.378 . S
C486 C487 1.367 . S
C487 C486 1.367 . S
C487 C489 1.433 . S
C488 C484 1.350 . S
C488 C485 1.463 . S
C488 N492 1.427 . S
C489 H479 0.929 . S
C489 C487 1.433 . S
C489 N492 1.384 . S
C490 H481 0.929 . S
C490 C482 1.378 . S
C490 C485 1.350 . S
C491 H478 0.929 . S
C491 C483 1.433 . S
C491 N493 1.384 . S
N492 C488 1.427 . S
N492 C489 1.384 . S
N493 C485 1.427 . S
N493 C491 1.384 . S
H494 C500 0.930 . S
H495 C504 0.930 . S
H496 C509 0.929 . S
H497 C507 0.929 . S
H498 C502 0.929 . S
H499 C508 0.929 . S
C500 H494 0.930 . S
C500 C501 1.367 . S
C500 C508 1.378 . S
C501 C500 1.367 . S
C501 C509 1.433 . S
C502 H498 0.929 . S
C502 C504 1.378 . S
C502 C506 1.350 . S
C503 C506 1.463 . S
C503 C508 1.350 . S
C503 N511 1.427 . S
C504 H495 0.930 . S
C504 C502 1.378 . S
C504 C505 1.367 . S
C505 C504 1.367 . S
C505 C507 1.433 . S
C506 C502 1.350 . S
C506 C503 1.463 . S
C506 N510 1.427 . S
C507 H497 0.929 . S
C507 C505 1.433 . S
C507 N510 1.384 . S
C508 H499 0.929 . S
C508 C500 1.378 . S
C508 C503 1.350 . S
C509 H496 0.929 . S
C509 C501 1.433 . S
C509 N511 1.384 . S
N510 C506 1.427 . S
N510 C507 1.384 . S
N511 C503 1.427 . S
N511 C509 1.384 . S
H512 C518 0.930 . S
H513 C522 0.930 . S
H514 C527 0.929 . S
H515 C525 0.929 . S
H516 C520 0.929 . S
H517 C526 0.929 . S
C518 H512 0.930 . S
C518 C519 1.367 . S
C518 C526 1.378 . S
C519 C518 1.367 . S
C519 C527 1.433 . S
C520 H516 0.929 . S
C520 C522 1.378 . S
C520 C524 1.350 . S
C521 C524 1.463 . S
C521 C526 1.350 . S
C521 N529 1.427 . S
C522 H513 0.930 . S
C522 C520 1.378 . S
C522 C523 1.367 . S
C523 C522 1.367 . S
C523 C525 1.433 . S
C524 C520 1.350 . S
C524 C521 1.463 . S
C524 N528 1.427 . S
C525 H515 0.929 . S
C525 C523 1.433 . S
C525 N528 1.384 . S
C526 H517 0.929 . S
C526 C518 1.378 . S
C526 C521 1.350 . S
C527 H514 0.929 . S
C527 C519 1.433 . S
C527 N529 1.384 . S
N528 C524 1.427 . S
N528 C525 1.384 . S
N529 C521 1.427 . S
N529 C527 1.384 . S
H530 C536 0.930 . S
H531 C540 0.930 . S
H532 C545 0.929 . S
H533 C543 0.929 . S
H534 C538 0.929 . S
H535 C544 0.929 . S
C536 H530 0.930 . S
C536 C537 1.367 . S
C536 C544 1.378 . S
C537 C536 1.367 . S
C537 C545 1.433 . S
C538 H534 0.929 . S
C538 C540 1.378 . S
C538 C542 1.350 . S
C539 C542 1.463 . S
C539 C544 1.350 . S
C539 N547 1.427 . S
C540 H531 0.930 . S
C540 C538 1.378 . S
C540 C541 1.367 . S
C541 C540 1.367 . S
C541 C543 1.433 . S
C542 C538 1.350 . S
C542 C539 1.463 . S
C542 N546 1.427 . S
C543 H533 0.929 . S
C543 C541 1.433 . S
C543 N546 1.384 . S
C544 H535 0.929 . S
C544 C536 1.378 . S
C544 C539 1.350 . S
C545 H532 0.929 . S
C545 C537 1.433 . S
C545 N547 1.384 . S
N546 C542 1.427 . S
N546 C543 1.384 . S
N547 C539 1.427 . S
N547 C545 1.384 . S
H548 C554 0.930 . S
H549 C558 0.930 . S
H550 C563 0.929 . S
H551 C561 0.929 . S
H552 C556 0.929 . S
H553 C562 0.929 . S
C554 H548 0.930 . S
C554 C555 1.367 . S
C554 C562 1.378 . S
C555 C554 1.367 . S
C555 C563 1.433 . S
C556 H552 0.929 . S
C556 C558 1.378 . S
C556 C560 1.350 . S
C557 C560 1.463 . S
C557 C562 1.350 . S
C557 N565 1.427 . S
C558 H549 0.930 . S
C558 C556 1.378 . S
C558 C559 1.367 . S
C559 C558 1.367 . S
C559 C561 1.433 . S
C560 C556 1.350 . S
C560 C557 1.463 . S
C560 N564 1.427 . S
C561 H551 0.929 . S
C561 C559 1.433 . S
C561 N564 1.384 . S
C562 H553 0.929 . S
C562 C554 1.378 . S
C562 C557 1.350 . S
C563 H550 0.929 . S
C563 C555 1.433 . S
C563 N565 1.384 . S
N564 C560 1.427 . S
N564 C561 1.384 . S
N565 C557 1.427 . S
N565 C563 1.384 . S
H566 C572 0.930 . S
H567 C576 0.930 . S
H568 C581 0.929 . S
H569 C579 0.929 . S
H570 C574 0.929 . S
H571 C580 0.929 . S
C572 H566 0.930 . S
C572 C573 1.367 . S
C572 C580 1.378 . S
C573 C572 1.367 . S
C573 C581 1.433 . S
C574 H570 0.929 . S
C574 C576 1.378 . S
C574 C578 1.350 . S
C575 C578 1.463 . S
C575 C580 1.350 . S
C575 N583 1.427 . S
C576 H567 0.930 . S
C576 C574 1.378 . S
C576 C577 1.367 . S
C577 C576 1.367 . S
C577 C579 1.433 . S
C578 C574 1.350 . S
C578 C575 1.463 . S
C578 N582 1.427 . S
C579 H569 0.929 . S
C579 C577 1.433 . S
C579 N582 1.384 . S
C580 H571 0.929 . S
C580 C572 1.378 . S
C580 C575 1.350 . S
C581 H568 0.929 . S
C581 C573 1.433 . S
C581 N583 1.384 . S
N582 C578 1.427 . S
N582 C579 1.384 . S
N583 C575 1.427 . S
N583 C581 1.384 . S
H584 C590 0.930 . S
H585 C594 0.930 . S
H586 C599 0.929 . S
H587 C597 0.929 . S
H588 C592 0.929 . S
H589 C598 0.929 . S
C590 H584 0.930 . S
C590 C591 1.367 . S
C590 C598 1.378 . S
C591 C590 1.367 . S
C591 C599 1.433 . S
C592 H588 0.929 . S
C592 C594 1.378 . S
C592 C596 1.350 . S
C593 C596 1.463 . S
C593 C598 1.350 . S
C593 N601 1.427 . S
C594 H585 0.930 . S
C594 C592 1.378 . S
C594 C595 1.367 . S
C595 C594 1.367 . S
C595 C597 1.433 . S
C596 C592 1.350 . S
C596 C593 1.463 . S
C596 N600 1.427 . S
C597 H587 0.929 . S
C597 C595 1.433 . S
C597 N600 1.384 . S
C598 H589 0.929 . S
C598 C590 1.378 . S
C598 C593 1.350 . S
C599 H586 0.929 . S
C599 C591 1.433 . S
C599 N601 1.384 . S
N600 C596 1.427 . S
N600 C597 1.384 . S
N601 C593 1.427 . S
N601 C599 1.384 . S
H602 C608 0.930 . S
H603 C612 0.930 . S
H604 C617 0.929 . S
H605 C615 0.929 . S
H606 C610 0.929 . S
H607 C616 0.929 . S
C608 H602 0.930 . S
C608 C609 1.367 . S
C608 C616 1.378 . S
C609 C608 1.367 . S
C609 C617 1.433 . S
C610 H606 0.929 . S
C610 C612 1.378 . S
C610 C614 1.350 . S
C611 C614 1.463 . S
C611 C616 1.350 . S
C611 N619 1.427 . S
C612 H603 0.930 . S
C612 C610 1.378 . S
C612 C613 1.367 . S
C613 C612 1.367 . S
C613 C615 1.433 . S
C614 C610 1.350 . S
C614 C611 1.463 . S
C614 N618 1.427 . S
C615 H605 0.929 . S
C615 C613 1.433 . S
C615 N618 1.384 . S
C616 H607 0.929 . S
C616 C608 1.378 . S
C616 C611 1.350 . S
C617 H604 0.929 . S
C617 C609 1.433 . S
C617 N619 1.384 . S
N618 C614 1.427 . S
N618 C615 1.384 . S
N619 C611 1.427 . S
N619 C617 1.384 . S
H620 C626 0.930 . S
H621 C630 0.930 . S
H622 C635 0.929 . S
H623 C633 0.929 . S
H624 C628 0.929 . S
H625 C634 0.929 . S
C626 H620 0.930 . S
C626 C627 1.367 . S
C626 C634 1.378 . S
C627 C626 1.367 . S
C627 C635 1.433 . S
C628 H624 0.929 . S
C628 C630 1.378 . S
C628 C632 1.350 . S
C629 C632 1.463 . S
C629 C634 1.350 . S
C629 N637 1.427 . S
C630 H621 0.930 . S
C630 C628 1.378 . S
C630 C631 1.367 . S
C631 C630 1.367 . S
C631 C633 1.433 . S
C632 C628 1.350 . S
C632 C629 1.463 . S
C632 N636 1.427 . S
C633 H623 0.929 . S
C633 C631 1.433 . S
C633 N636 1.384 . S
C634 H625 0.929 . S
C634 C626 1.378 . S
C634 C629 1.350 . S
C635 H622 0.929 . S
C635 C627 1.433 . S
C635 N637 1.384 . S
N636 C632 1.427 . S
N636 C633 1.384 . S
N637 C629 1.427 . S
N637 C635 1.384 . S
H638 C644 0.930 . S
H639 C648 0.930 . S
H640 C653 0.929 . S
H641 C651 0.929 . S
H642 C646 0.929 . S
H643 C652 0.929 . S
C644 H638 0.930 . S
C644 C645 1.367 . S
C644 C652 1.378 . S
C645 C644 1.367 . S
C645 C653 1.433 . S
C646 H642 0.929 . S
C646 C648 1.378 . S
C646 C650 1.350 . S
C647 C650 1.463 . S
C647 C652 1.350 . S
C647 N655 1.427 . S
C648 H639 0.930 . S
C648 C646 1.378 . S
C648 C649 1.367 . S
C649 C648 1.367 . S
C649 C651 1.433 . S
C650 C646 1.350 . S
C650 C647 1.463 . S
C650 N654 1.427 . S
C651 H641 0.929 . S
C651 C649 1.433 . S
C651 N654 1.384 . S
C652 H643 0.929 . S
C652 C644 1.378 . S
C652 C647 1.350 . S
C653 H640 0.929 . S
C653 C645 1.433 . S
C653 N655 1.384 . S
N654 C650 1.427 . S
N654 C651 1.384 . S
N655 C647 1.427 . S
N655 C653 1.384 . S
H656 C662 0.930 . S
H657 C666 0.930 . S
H658 C671 0.929 . S
H659 C669 0.929 . S
H660 C664 0.929 . S
H661 C670 0.929 . S
C662 H656 0.930 . S
C662 C663 1.367 . S
C662 C670 1.378 . S
C663 C662 1.367 . S
C663 C671 1.433 . S
C664 H660 0.929 . S
C664 C666 1.378 . S
C664 C668 1.350 . S
C665 C668 1.463 . S
C665 C670 1.350 . S
C665 N673 1.427 . S
C666 H657 0.930 . S
C666 C664 1.378 . S
C666 C667 1.367 . S
C667 C666 1.367 . S
C667 C669 1.433 . S
C668 C664 1.350 . S
C668 C665 1.463 . S
C668 N672 1.427 . S
C669 H659 0.929 . S
C669 C667 1.433 . S
C669 N672 1.384 . S
C670 H661 0.929 . S
C670 C662 1.378 . S
C670 C665 1.350 . S
C671 H658 0.929 . S
C671 C663 1.433 . S
C671 N673 1.384 . S
N672 C668 1.427 . S
N672 C669 1.384 . S
N673 C665 1.427 . S
N673 C671 1.384 . S
H674 C680 0.930 . S
H675 C684 0.930 . S
H676 C689 0.929 . S
H677 C687 0.929 . S
H678 C682 0.929 . S
H679 C688 0.929 . S
C680 H674 0.930 . S
C680 C681 1.367 . S
C680 C688 1.378 . S
C681 C680 1.367 . S
C681 C689 1.433 . S
C682 H678 0.929 . S
C682 C684 1.378 . S
C682 C686 1.350 . S
C683 C686 1.463 . S
C683 C688 1.350 . S
C683 N691 1.427 . S
C684 H675 0.930 . S
C684 C682 1.378 . S
C684 C685 1.367 . S
C685 C684 1.367 . S
C685 C687 1.433 . S
C686 C682 1.350 . S
C686 C683 1.463 . S
C686 N690 1.427 . S
C687 H677 0.929 . S
C687 C685 1.433 . S
C687 N690 1.384 . S
C688 H679 0.929 . S
C688 C680 1.378 . S
C688 C683 1.350 . S
C689 H676 0.929 . S
C689 C681 1.433 . S
C689 N691 1.384 . S
N690 C686 1.427 . S
N690 C687 1.384 . S
N691 C683 1.427 . S
N691 C689 1.384 . S
H692 C698 0.930 . S
H693 C702 0.930 . S
H694 C707 0.929 . S
H695 C705 0.929 . S
H696 C700 0.929 . S
H697 C706 0.929 . S
C698 H692 0.930 . S
C698 C699 1.367 . S
C698 C706 1.378 . S
C699 C698 1.367 . S
C699 C707 1.433 . S
C700 H696 0.929 . S
C700 C702 1.378 . S
C700 C704 1.350 . S
C701 C704 1.463 . S
C701 C706 1.350 . S
C701 N709 1.427 . S
C702 H693 0.930 . S
C702 C700 1.378 . S
C702 C703 1.367 . S
C703 C702 1.367 . S
C703 C705 1.433 . S
C704 C700 1.350 . S
C704 C701 1.463 . S
C704 N708 1.427 . S
C705 H695 0.929 . S
C705 C703 1.433 . S
C705 N708 1.384 . S
C706 H697 0.929 . S
C706 C698 1.378 . S
C706 C701 1.350 . S
C707 H694 0.929 . S
C707 C699 1.433 . S
C707 N709 1.384 . S
N708 C704 1.427 . S
N708 C705 1.384 . S
N709 C701 1.427 . S
N709 C707 1.384 . S
H710 C716 0.930 . S
H711 C720 0.930 . S
H712 C725 0.929 . S
H713 C723 0.929 . S
H714 C718 0.929 . S
H715 C724 0.929 . S
C716 H710 0.930 . S
C716 C717 1.367 . S
C716 C724 1.378 . S
C717 C716 1.367 . S
C717 C725 1.433 . S
C718 H714 0.929 . S
C718 C720 1.378 . S
C718 C722 1.350 . S
C719 C722 1.463 . S
C719 C724 1.350 . S
C719 N727 1.427 . S
C720 H711 0.930 . S
C720 C718 1.378 . S
C720 C721 1.367 . S
C721 C720 1.367 . S
C721 C723 1.433 . S
C722 C718 1.350 . S
C722 C719 1.463 . S
C722 N726 1.427 . S
C723 H713 0.929 . S
C723 C721 1.433 . S
C723 N726 1.384 . S
C724 H715 0.929 . S
C724 C716 1.378 . S
C724 C719 1.350 . S
C725 H712 0.929 . S
C725 C717 1.433 . S
C725 N727 1.384 . S
N726 C722 1.427 . S
N726 C723 1.384 . S
N727 C719 1.427 . S
N727 C725 1.384 . S
H728 C734 0.930 . S
H729 C738 0.930 . S
H730 C743 0.929 . S
H731 C741 0.929 . S
H732 C736 0.929 . S
H733 C742 0.929 . S
C734 H728 0.930 . S
C734 C735 1.367 . S
C734 C742 1.378 . S
C735 C734 1.367 . S
C735 C743 1.433 . S
C736 H732 0.929 . S
C736 C738 1.378 . S
C736 C740 1.350 . S
C737 C740 1.463 . S
C737 C742 1.350 . S
C737 N745 1.427 . S
C738 H729 0.930 . S
C738 C736 1.378 . S
C738 C739 1.367 . S
C739 C738 1.367 . S
C739 C741 1.433 . S
C740 C736 1.350 . S
C740 C737 1.463 . S
C740 N744 1.427 . S
C741 H731 0.929 . S
C741 C739 1.433 . S
C741 N744 1.384 . S
C742 H733 0.929 . S
C742 C734 1.378 . S
C742 C737 1.350 . S
C743 H730 0.929 . S
C743 C735 1.433 . S
C743 N745 1.384 . S
N744 C740 1.427 . S
N744 C741 1.384 . S
N745 C737 1.427 . S
N745 C743 1.384 . S
H746 C752 0.930 . S
H747 C756 0.930 . S
H748 C761 0.929 . S
H749 C759 0.929 . S
H750 C754 0.929 . S
H751 C760 0.929 . S
C752 H746 0.930 . S
C752 C753 1.367 . S
C752 C760 1.378 . S
C753 C752 1.367 . S
C753 C761 1.433 . S
C754 H750 0.929 . S
C754 C756 1.378 . S
C754 C758 1.350 . S
C755 C758 1.463 . S
C755 C760 1.350 . S
C755 N763 1.427 . S
C756 H747 0.930 . S
C756 C754 1.378 . S
C756 C757 1.367 . S
C757 C756 1.367 . S
C757 C759 1.433 . S
C758 C754 1.350 . S
C758 C755 1.463 . S
C758 N762 1.427 . S
C759 H749 0.929 . S
C759 C757 1.433 . S
C759 N762 1.384 . S
C760 H751 0.929 . S
C760 C752 1.378 . S
C760 C755 1.350 . S
C761 H748 0.929 . S
C761 C753 1.433 . S
C761 N763 1.384 . S
N762 C758 1.427 . S
N762 C759 1.384 . S
N763 C755 1.427 . S
N763 C761 1.384 . S
H764 C770 0.930 . S
H765 C774 0.930 . S
H766 C779 0.929 . S
H767 C777 0.929 . S
H768 C772 0.929 . S
H769 C778 0.929 . S
C770 H764 0.930 . S
C770 C771 1.367 . S
C770 C778 1.378 . S
C771 C770 1.367 . S
C771 C779 1.433 . S
C772 H768 0.929 . S
C772 C774 1.378 . S
C772 C776 1.350 . S
C773 C776 1.463 . S
C773 C778 1.350 . S
C773 N781 1.427 . S
C774 H765 0.930 . S
C774 C772 1.378 . S
C774 C775 1.367 . S
C775 C774 1.367 . S
C775 C777 1.433 . S
C776 C772 1.350 . S
C776 C773 1.463 . S
C776 N780 1.427 . S
C777 H767 0.929 . S
C777 C775 1.433 . S
C777 N780 1.384 . S
C778 H769 0.929 . S
C778 C770 1.378 . S
C778 C773 1.350 . S
C779 H766 0.929 . S
C779 C771 1.433 . S
C779 N781 1.384 . S
N780 C776 1.427 . S
N780 C777 1.384 . S
N781 C773 1.427 . S
N781 C779 1.384 . S
H782 C788 0.930 . S
H783 C792 0.930 . S
H784 C797 0.929 . S
H785 C795 0.929 . S
H786 C790 0.929 . S
H787 C796 0.929 . S
C788 H782 0.930 . S
C788 C789 1.367 . S
C788 C796 1.378 . S
C789 C788 1.367 . S
C789 C797 1.433 . S
C790 H786 0.929 . S
C790 C792 1.378 . S
C790 C794 1.350 . S
C791 C794 1.463 . S
C791 C796 1.350 . S
C791 N799 1.427 . S
C792 H783 0.930 . S
C792 C790 1.378 . S
C792 C793 1.367 . S
C793 C792 1.367 . S
C793 C795 1.433 . S
C794 C790 1.350 . S
C794 C791 1.463 . S
C794 N798 1.427 . S
C795 H785 0.929 . S
C795 C793 1.433 . S
C795 N798 1.384 . S
C796 H787 0.929 . S
C796 C788 1.378 . S
C796 C791 1.350 . S
C797 H784 0.929 . S
C797 C789 1.433 . S
C797 N799 1.384 . S
N798 C794 1.427 . S
N798 C795 1.384 . S
N799 C791 1.427 . S
N799 C797 1.384 . S
C231 C64 1.417 1_556 S
C235 C8 1.416 . S
C249 C78 1.416 1_556 S
C253 C22 1.419 . S
C267 C92 1.419 1_556 S
C271 C36 1.419 . S
C285 C106 1.416 1_556 S
C289 C50 1.418 . S
C303 C176 1.418 . S
C307 C120 1.416 . S
C321 C190 1.420 . S
C325 C134 1.417 . S
C339 C148 1.417 . S
C343 C204 1.420 . S
C357 C218 1.420 . S
C361 C162 1.417 . S
C375 C9 1.464 1_554 S
C379 C79 1.471 . S
C393 C93 1.470 . S
C397 C23 1.465 1_554 S
C411 C37 1.464 1_554 S
C415 C107 1.471 . S
C429 C65 1.468 . S
C433 C51 1.465 . S
C447 C191 1.463 . S
C451 C121 1.471 . S
C465 C205 1.466 . S
C469 C135 1.467 . S
C483 C149 1.470 . S
C487 C219 1.463 . S
C501 C163 1.470 . S
C505 C177 1.463 . S
C519 C217 1.378 . S
C523 C7 1.376 . S
C537 C175 1.387 . S
C541 C21 1.380 . S
C555 C189 1.381 . S
C559 C35 1.387 . S
C573 C203 1.375 . S
C577 C49 1.385 . S
C591 C133 1.382 . S
C595 C63 1.386 . S
C609 C147 1.384 . S
C613 C77 1.374 . S
C627 C91 1.384 . S
C631 C161 1.374 . S
C645 C105 1.382 . S
C649 C119 1.386 . S
C663 C185 1.379 . S
C667 C31 1.376 . S
C681 C199 1.375 . S
C685 C45 1.372 . S
C699 C213 1.373 . S
C703 C3 1.377 . S
C717 C17 1.375 . S
C721 C171 1.372 . S
C735 C157 1.379 . S
C739 C87 1.376 . S
C753 C101 1.375 . S
C757 C115 1.372 . S
C771 C129 1.377 . S
C775 C59 1.373 . S
C789 C143 1.372 . S
C793 C73 1.373 . S
