# Generated by pormake.
# Topology zfw, (5)-cn, num edge types: 1
# Building blocks:
#     Node 0, Type 0, BuildingBlock: XOMCOT_clean_sbu_0, # of connection points: 5
#     Node 1, Type 0, BuildingBlock: XOMCOT_clean_sbu_0, # of connection points: 5
#     Node 2, Type 0, BuildingBlock: XOMCOT_clean_sbu_0, # of connection points: 5
#     Node 3, Type 0, BuildingBlock: XOMCOT_clean_sbu_0, # of connection points: 5
#     Node 4, Type 0, BuildingBlock: XOMCOT_clean_sbu_0, # of connection points: 5
#     Node 5, Type 0, BuildingBlock: XOMCOT_clean_sbu_0, # of connection points: 5
#     Node 6, Type 0, BuildingBlock: XOMCOT_clean_sbu_0, # of connection points: 5
#     Node 7, Type 0, BuildingBlock: XOMCOT_clean_sbu_0, # of connection points: 5
#     Node 8, Type 0, BuildingBlock: XOMCOT_clean_sbu_0, # of connection points: 5
#     Node 9, Type 0, BuildingBlock: XOMCOT_clean_sbu_0, # of connection points: 5
#     Node 10, Type 0, BuildingBlock: XOMCOT_clean_sbu_0, # of connection points: 5
#     Node 11, Type 0, BuildingBlock: XOMCOT_clean_sbu_0, # of connection points: 5
#     Node 12, Type 0, BuildingBlock: XOMCOT_clean_sbu_0, # of connection points: 5
#     Node 13, Type 0, BuildingBlock: XOMCOT_clean_sbu_0, # of connection points: 5
#     Node 14, Type 0, BuildingBlock: XOMCOT_clean_sbu_0, # of connection points: 5
#     Node 15, Type 0, BuildingBlock: XOMCOT_clean_sbu_0, # of connection points: 5
#     Edge 16, Type (0, 0), None
#     Edge 17, Type (0, 0), None
#     Edge 18, Type (0, 0), None
#     Edge 19, Type (0, 0), None
#     Edge 20, Type (0, 0), None
#     Edge 21, Type (0, 0), None
#     Edge 22, Type (0, 0), None
#     Edge 23, Type (0, 0), None
#     Edge 24, Type (0, 0), None
#     Edge 25, Type (0, 0), None
#     Edge 26, Type (0, 0), None
#     Edge 27, Type (0, 0), None
#     Edge 28, Type (0, 0), None
#     Edge 29, Type (0, 0), None
#     Edge 30, Type (0, 0), None
#     Edge 31, Type (0, 0), None
#     Edge 32, Type (0, 0), None
#     Edge 33, Type (0, 0), None
#     Edge 34, Type (0, 0), None
#     Edge 35, Type (0, 0), None
#     Edge 36, Type (0, 0), None
#     Edge 37, Type (0, 0), None
#     Edge 38, Type (0, 0), None
#     Edge 39, Type (0, 0), None
#     Edge 40, Type (0, 0), None
#     Edge 41, Type (0, 0), None
#     Edge 42, Type (0, 0), None
#     Edge 43, Type (0, 0), None
#     Edge 44, Type (0, 0), None
#     Edge 45, Type (0, 0), None
#     Edge 46, Type (0, 0), None
#     Edge 47, Type (0, 0), None
#     Edge 48, Type (0, 0), None
#     Edge 49, Type (0, 0), None
#     Edge 50, Type (0, 0), None
#     Edge 51, Type (0, 0), None
#     Edge 52, Type (0, 0), None
#     Edge 53, Type (0, 0), None
#     Edge 54, Type (0, 0), None
#     Edge 55, Type (0, 0), None
# Relax obj value: 0.283
# Max RMSD: 0.232
# Mean RMSD: 0.217
data_MOF--net-zfw--node1-XOMCOT_clean_sbu_0--edge1-none
_symmetry_space_group_name_H-M    P1
_symmetry_Int_Tables_number       1
_symmetry_cell_setting            triclinic
loop_
_symmetry_equiv_pos_as_xyz
'x, y, z'
_cell_length_a     33.390959
_cell_length_b     33.107664
_cell_length_c     8.9448851
_cell_angle_alpha  90.006838
_cell_angle_beta   89.993893
_cell_angle_gamma 90.000147
loop_
_atom_site_label
_atom_site_type_symbol
_atom_site_fract_x
_atom_site_fract_y
_atom_site_fract_z
_atom_type_partial_charge
Co0 Co 0.10124 0.09022 0.27632 0.0
C1 C 0.12054 0.08148 0.59407 0.0
C2 C 0.06883 0.04814 0.5263 0.0
C3 C 0.06419 0.05925 0.67232 0.0
N4 N 0.10241 0.06524 0.47245 0.0
N5 N 0.0971 0.07981 0.71471 0.0
H6 H 0.14715 0.09973 0.59313 0.0
H7 H 0.0448 0.03684 0.45692 0.0
C8 C 0.0756 0.02397 0.04739 0.0
O9 O 0.05236 0.05003 0.98214 0.0
N10 N 0.10071 0.11501 0.08134 0.0
C11 C 0.07186 0.13905 0.02478 0.0
C12 C 0.07081 0.13361 0.87216 0.0
C13 C 0.11915 0.09837 0.96242 0.0
N14 N 0.09977 0.10708 0.83484 0.0
C15 C 0.04007 0.12996 0.43833 0.0
C16 C 0.97173 0.10749 0.29098 0.0
C17 C 0.96877 0.13475 0.41155 0.0
C18 C 1.00348 0.14422 0.48854 0.0
C19 C 0.00943 0.0914 0.24953 0.0
N20 N 0.04393 0.10449 0.31738 0.0
H21 H 0.06541 0.13912 0.5039 0.0
H22 H 0.00983 0.06913 0.16371 0.0
H23 H 0.04947 0.1547 0.09009 0.0
H24 H 0.14031 0.07374 0.97227 0.0
O25 O 0.11974 0.14047 0.35524 0.0
O26 O 0.16158 0.09362 0.28345 0.0
O27 O 0.09181 0.03318 0.17564 0.0
C28 C 0.15618 0.12911 0.345 0.0
H29 H 0.03599 0.05812 0.73102 0.0
H30 H 0.04716 0.14361 0.79831 0.0
H31 H 0.94537 0.09972 0.22661 0.0
H32 H 1.00297 0.16564 0.58025 0.0
Co33 Co 0.22532 0.79636 0.52921 0.0
C34 C 0.23876 0.81382 0.847 0.0
C35 C 0.26757 0.75894 0.78158 0.0
C36 C 0.25716 0.75629 0.93054 0.0
N37 N 0.25197 0.79343 0.72489 0.0
N38 N 0.23936 0.79107 0.97001 0.0
H39 H 0.22397 0.84264 0.8464 0.0
H40 H 0.27742 0.73364 0.71468 0.0
C41 C 0.29517 0.75833 0.35454 0.0
O42 O 0.29133 0.72381 0.42474 0.0
N43 N 0.20076 0.80094 0.33398 0.0
C44 C 0.17257 0.77689 0.27257 0.0
C45 C 0.18086 0.77289 0.12175 0.0
C46 C 0.22254 0.81477 0.21774 0.0
N47 N 0.21269 0.79637 0.09006 0.0
C48 C 0.19223 0.72947 0.67939 0.0
C49 C 0.19035 0.67166 0.46103 0.0
C50 C 0.1722 0.66346 0.60045 0.0
C51 C 0.17544 0.69234 0.71167 0.0
C52 C 0.21046 0.70882 0.43714 0.0
N53 N 0.21113 0.73791 0.54652 0.0
H54 H 0.18818 0.75236 0.76326 0.0
H55 H 0.22234 0.71506 0.32718 0.0
H56 H 0.15163 0.75862 0.33536 0.0
H57 H 0.24932 0.83288 0.2296 0.0
O58 O 0.17601 0.8116 0.62162 0.0
O59 O 0.2206 0.85663 0.55479 0.0
O60 O 0.27936 0.7902 0.41255 0.0
C61 C 0.18596 0.84893 0.61778 0.0
H62 H 0.25699 0.72902 0.99689 0.0
H63 H 0.16755 0.75126 0.04586 0.0
H64 H 0.18663 0.65085 0.36868 0.0
H65 H 0.16003 0.6886 0.81758 0.0
Co66 Co 0.50491 0.91693 0.77817 0.0
C67 C 0.48531 0.92531 0.09587 0.0
C68 C 0.53701 0.95873 0.02898 0.0
C69 C 0.54157 0.9476 0.17488 0.0
N70 N 0.50342 0.94178 0.97457 0.0
N71 N 0.5087 0.92693 0.21674 0.0
H72 H 0.45882 0.90688 0.09431 0.0
H73 H 0.56115 0.96988 0.95991 0.0
C74 C 0.53147 0.98238 0.54868 0.0
O75 O 0.5549 0.95597 0.48605 0.0
N76 N 0.50566 0.89213 0.58345 0.0
C77 C 0.53449 0.86808 0.52684 0.0
C78 C 0.53517 0.87323 0.37406 0.0
C79 C 0.48698 0.90856 0.46473 0.0
N80 N 0.50609 0.89965 0.33681 0.0
C81 C 0.56542 0.87694 0.94285 0.0
C82 C 0.63458 0.90091 0.80463 0.0
C83 C 0.63705 0.87385 0.92608 0.0
C84 C 0.60183 0.86381 0.99868 0.0
C85 C 0.59693 0.91625 0.75834 0.0
N86 N 0.56209 0.90242 0.82169 0.0
H87 H 0.53978 0.86716 1.00541 0.0
H88 H 0.59686 0.93866 0.67288 0.0
H89 H 0.55709 0.85271 0.592 0.0
H90 H 0.46582 0.9332 0.47468 0.0
O91 O 0.48598 0.86694 0.85579 0.0
O92 O 0.44446 0.91397 0.78297 0.0
O93 O 0.51488 0.97377 0.67687 0.0
C94 C 0.44961 0.87841 0.84411 0.0
H95 H 0.56975 0.94869 0.23361 0.0
H96 H 0.55874 0.86322 0.29999 0.0
H97 H 0.6613 0.90894 0.74278 0.0
H98 H 0.60193 0.84228 0.09003 0.0
Co99 Co 0.3834 0.20971 0.01805 0.0
C100 C 0.36951 0.22705 0.34027 0.0
C101 C 0.33761 0.17628 0.26097 0.0
C102 C 0.34863 0.16888 0.40737 0.0
N103 N 0.35443 0.21124 0.21193 0.0
N104 N 0.37009 0.20065 0.45391 0.0
H105 H 0.37808 0.25802 0.35609 0.0
H106 H 0.32426 0.15392 0.18822 0.0
C107 C 0.31698 0.24857 0.82422 0.0
O108 O 0.32028 0.28378 0.8898 0.0
N109 N 0.40897 0.20386 0.82467 0.0
C110 C 0.4348 0.22881 0.75446 0.0
C111 C 0.42586 0.22874 0.60327 0.0
C112 C 0.38789 0.18594 0.71378 0.0
N113 N 0.39554 0.20251 0.58017 0.0
C114 C 0.42314 0.2761 0.15731 0.0
C115 C 0.41776 0.33596 0.95029 0.0
C116 C 0.43713 0.3442 0.08732 0.0
C117 C 0.43782 0.31382 0.1928 0.0
C118 C 0.39882 0.29801 0.92672 0.0
N119 N 0.39966 0.2683 0.0345 0.0
H120 H 0.43288 0.25296 0.23243 0.0
H121 H 0.38735 0.29179 0.81635 0.0
H122 H 0.45501 0.24946 0.80989 0.0
H123 H 0.36261 0.1662 0.73378 0.0
O124 O 0.4307 0.1929 0.12039 0.0
O125 O 0.38722 0.1488 0.04342 0.0
O126 O 0.33072 0.21699 0.89184 0.0
C127 C 0.41974 0.15608 0.12035 0.0
H128 H 0.34453 0.14103 0.46873 0.0
H129 H 0.43824 0.24889 0.52002 0.0
H130 H 0.41978 0.35732 0.85893 0.0
H131 H 0.45556 0.31696 0.29389 0.0
Co132 Co 0.10145 0.91598 0.75342 0.0
C133 C 0.12076 0.92471 0.43568 0.0
C134 C 0.06907 0.95809 0.50349 0.0
C135 C 0.06444 0.947 0.35746 0.0
N136 N 0.10264 0.94096 0.5573 0.0
N137 N 0.09734 0.92641 0.31504 0.0
H138 H 0.14735 0.90643 0.4366 0.0
H139 H 0.04504 0.96937 0.5729 0.0
C140 C 0.07565 0.98218 0.9823 0.0
O141 O 0.05245 0.95607 0.0475 0.0
N142 N 0.10091 0.8912 0.9484 0.0
C143 C 0.07206 0.86716 1.00502 0.0
C144 C 0.07103 0.8726 0.15764 0.0
C145 C 0.11935 0.90786 0.06727 0.0
N146 N 0.09999 0.89915 0.19489 0.0
C147 C 0.04035 0.87619 0.59128 0.0
C148 C 0.97196 0.89867 0.73822 0.0
C149 C 0.96905 0.8714 0.61768 0.0
C150 C 1.00379 0.86192 0.5409 0.0
C151 C 0.00964 0.91477 0.77984 0.0
N152 N 0.04416 0.90166 0.71221 0.0
H153 H 0.06573 0.86702 0.52583 0.0
H154 H 0.01 0.93707 0.86555 0.0
H155 H 0.04968 0.85151 0.93975 0.0
H156 H 0.1405 0.9325 0.05736 0.0
O157 O 0.12001 0.86575 0.67457 0.0
O158 O 0.16181 0.91263 0.74643 0.0
O159 O 0.09193 0.97301 0.8541 0.0
C160 C 0.15644 0.87714 0.68488 0.0
H161 H 0.03624 0.94814 0.29878 0.0
H162 H 0.04738 0.86261 0.23153 0.0
H163 H 0.94556 0.90646 0.80242 0.0
H164 H 1.00332 0.84048 0.44923 0.0
Co165 Co 0.38376 0.79644 1.01205 0.0
C166 C 0.36992 0.77911 0.68982 0.0
C167 C 0.33794 0.82983 0.76918 0.0
C168 C 0.34898 0.83726 0.62281 0.0
N169 N 0.3548 0.79488 0.81818 0.0
N170 N 0.37048 0.80553 0.57624 0.0
H171 H 0.37851 0.74815 0.67392 0.0
H172 H 0.32456 0.85216 0.84196 0.0
C173 C 0.31729 0.75764 0.20588 0.0
O174 O 0.3206 0.72243 0.14033 0.0
N175 N 0.40933 0.80233 0.2054 0.0
C176 C 0.43519 0.77742 0.27557 0.0
C177 C 0.42627 0.7775 0.42679 0.0
C178 C 0.38825 0.82025 0.31632 0.0
N179 N 0.39593 0.8037 0.44994 0.0
C180 C 0.42345 0.72999 0.87302 0.0
C181 C 0.41808 0.67021 0.08035 0.0
C182 C 0.43742 0.66191 0.94331 0.0
C183 C 0.4381 0.69225 0.83766 0.0
C184 C 0.39914 0.70817 0.10377 0.0
N185 N 0.39998 0.73785 0.99584 0.0
H186 H 0.43322 0.75311 0.79785 0.0
H187 H 0.38767 0.71444 0.21412 0.0
H188 H 0.45541 0.75677 0.22011 0.0
H189 H 0.36295 0.83996 0.29638 0.0
O190 O 0.43108 0.8132 0.90966 0.0
O191 O 0.38759 0.85735 0.98642 0.0
O192 O 0.33107 0.78922 0.13828 0.0
C193 C 0.42012 0.85002 0.90956 0.0
H194 H 0.34486 0.86512 0.56149 0.0
H195 H 0.43868 0.75736 0.51003 0.0
H196 H 0.4201 0.64889 0.17181 0.0
H197 H 0.45583 0.68907 0.73655 0.0
Co198 Co 0.50463 0.0892 0.25095 0.0
C199 C 0.48502 0.08086 0.93329 0.0
C200 C 0.53668 0.04739 1.00011 0.0
C201 C 0.54125 0.05851 0.8542 0.0
N202 N 0.50312 0.06436 0.05456 0.0
N203 N 0.5084 0.07921 0.8124 0.0
H204 H 0.45856 0.09934 0.9349 0.0
H205 H 0.56083 0.03625 0.06916 0.0
C206 C 0.53139 0.02383 0.48036 0.0
O207 O 0.55476 0.05031 0.54286 0.0
N208 N 0.50541 0.114 0.44566 0.0
C209 C 0.53423 0.13804 0.50225 0.0
C210 C 0.53489 0.13291 0.65505 0.0
C211 C 0.48672 0.09756 0.56437 0.0
N212 N 0.50581 0.10648 0.69229 0.0
C213 C 0.56509 0.12928 0.08617 0.0
C214 C 0.63429 0.1051 0.22352 0.0
C215 C 0.63673 0.13224 0.10231 0.0
C216 C 0.60148 0.14238 0.03012 0.0
C217 C 0.59665 0.0898 0.27003 0.0
N218 N 0.56179 0.10374 0.20718 0.0
H219 H 0.53942 0.13911 0.02385 0.0
H220 H 0.59659 0.06728 0.35511 0.0
H221 H 0.55684 0.15341 0.43709 0.0
H222 H 0.46558 0.07291 0.55441 0.0
O223 O 0.48563 0.13917 0.17342 0.0
O224 O 0.44418 0.09211 0.24648 0.0
O225 O 0.51472 0.03238 0.35226 0.0
C226 C 0.44928 0.12767 0.18532 0.0
H227 H 0.56943 0.0574 0.79546 0.0
H228 H 0.55845 0.14293 0.72913 0.0
H229 H 0.66104 0.09698 0.28501 0.0
H230 H 0.60156 0.16397 0.93895 0.0
Co231 Co 0.22502 0.20988 0.50087 0.0
C232 C 0.23847 0.19243 0.18306 0.0
C233 C 0.26728 0.24731 0.24848 0.0
C234 C 0.25686 0.24996 0.09954 0.0
N235 N 0.25168 0.21281 0.30517 0.0
N236 N 0.23905 0.21518 0.06007 0.0
H237 H 0.22369 0.1636 0.18365 0.0
H238 H 0.27713 0.2726 0.31538 0.0
C239 C 0.29485 0.2479 0.67557 0.0
O240 O 0.29102 0.28243 0.60541 0.0
N241 N 0.20046 0.2053 0.69612 0.0
C242 C 0.17227 0.22936 0.75754 0.0
C243 C 0.18055 0.23336 0.90835 0.0
C244 C 0.22223 0.19147 0.81236 0.0
N245 N 0.21238 0.20988 0.94003 0.0
C246 C 0.19195 0.27677 0.35068 0.0
C247 C 0.19005 0.33458 0.56899 0.0
C248 C 0.17193 0.34278 0.42951 0.0
C249 C 0.17519 0.3139 0.31832 0.0
C250 C 0.21016 0.29743 0.59293 0.0
N251 N 0.21084 0.26833 0.48356 0.0
H252 H 0.1879 0.25387 0.26684 0.0
H253 H 0.22202 0.2912 0.7029 0.0
H254 H 0.15133 0.24763 0.69476 0.0
H255 H 0.24901 0.17336 0.80048 0.0
O256 O 0.17571 0.19465 0.40848 0.0
O257 O 0.2203 0.14961 0.47526 0.0
O258 O 0.27905 0.21603 0.6175 0.0
C259 C 0.18567 0.15732 0.41227 0.0
H260 H 0.25667 0.27723 0.03322 0.0
H261 H 0.16725 0.255 0.98424 0.0
H262 H 0.18631 0.3554 0.66132 0.0
H263 H 0.1598 0.31764 0.21239 0.0
Co264 Co 0.88182 0.29632 0.50024 0.0
C265 C 0.86837 0.31376 0.18246 0.0
C266 C 0.83959 0.25887 0.24783 0.0
C267 C 0.85 0.25623 0.09887 0.0
N268 N 0.85517 0.29337 0.30456 0.0
N269 N 0.86779 0.29101 0.05943 0.0
H270 H 0.88314 0.34259 0.18307 0.0
H271 H 0.82974 0.23357 0.31471 0.0
C272 C 0.81198 0.25829 0.67488 0.0
O273 O 0.81581 0.22377 0.60462 0.0
N274 N 0.90638 0.30092 0.69547 0.0
C275 C 0.93458 0.27686 0.75685 0.0
C276 C 0.92629 0.27286 0.90766 0.0
C277 C 0.8846 0.31473 0.81174 0.0
N278 N 0.89446 0.29633 0.93938 0.0
C279 C 0.91492 0.22941 0.35008 0.0
C280 C 0.9168 0.17163 0.5685 0.0
C281 C 0.93495 0.16344 0.42908 0.0
C282 C 0.93171 0.19229 0.31781 0.0
C283 C 0.89668 0.20879 0.59235 0.0
N284 N 0.89601 0.23787 0.48294 0.0
H285 H 0.91896 0.2523 0.2662 0.0
H286 H 0.8848 0.21504 0.7023 0.0
H287 H 0.95552 0.2586 0.69402 0.0
H288 H 0.85781 0.33284 0.7999 0.0
O289 O 0.93113 0.31155 0.40781 0.0
O290 O 0.88654 0.35659 0.47465 0.0
O291 O 0.82779 0.29016 0.6169 0.0
C292 C 0.92118 0.34888 0.41164 0.0
H293 H 0.85018 0.22896 0.0325 0.0
H294 H 0.93961 0.25122 0.98352 0.0
H295 H 0.92052 0.15083 0.66085 0.0
H296 H 0.94712 0.18853 0.21191 0.0
Co297 Co 0.72376 0.70968 1.0115 0.0
C298 C 0.73768 0.72701 0.6893 0.0
C299 C 0.76954 0.67622 0.76854 0.0
C300 C 0.75852 0.66884 0.62213 0.0
N301 N 0.75273 0.71119 0.81763 0.0
N302 N 0.73708 0.70062 0.57563 0.0
H303 H 0.72912 0.75799 0.67353 0.0
H304 H 0.78288 0.65385 0.84127 0.0
C305 C 0.7902 0.74853 0.20538 0.0
O306 O 0.7869 0.78374 0.13986 0.0
N307 N 0.69819 0.70385 0.20488 0.0
C308 C 0.67238 0.72881 0.27512 0.0
C309 C 0.68132 0.72873 0.4263 0.0
C310 C 0.71927 0.68591 0.31574 0.0
N311 N 0.71163 0.70249 0.44937 0.0
C312 C 0.68402 0.77606 0.8722 0.0
C313 C 0.68942 0.83595 0.07918 0.0
C314 C 0.67005 0.84415 0.94215 0.0
C315 C 0.66934 0.81377 0.83667 0.0
C316 C 0.70836 0.798 0.10277 0.0
N317 N 0.70751 0.76827 0.99502 0.0
H318 H 0.67429 0.7529 0.79708 0.0
H319 H 0.71983 0.79179 0.21314 0.0
H320 H 0.65218 0.74948 0.21971 0.0
H321 H 0.74453 0.66616 0.29572 0.0
O322 O 0.67646 0.69287 0.90917 0.0
O323 O 0.71994 0.64876 0.98616 0.0
O324 O 0.77645 0.71695 0.13771 0.0
C325 C 0.68742 0.65605 0.90924 0.0
H326 H 0.7626 0.64098 0.56074 0.0
H327 H 0.66896 0.74889 0.50957 0.0
H328 H 0.68741 0.85732 0.1705 0.0
H329 H 0.65159 0.8169 0.7356 0.0
Co330 Co 0.72342 0.29641 0.01751 0.0
C331 C 0.73728 0.27908 0.33973 0.0
C332 C 0.76923 0.3298 0.26041 0.0
C333 C 0.7582 0.33723 0.40679 0.0
N334 N 0.75238 0.29485 0.21137 0.0
N335 N 0.73671 0.30549 0.45333 0.0
H336 H 0.7287 0.24811 0.3556 0.0
H337 H 0.78261 0.35214 0.18765 0.0
C338 C 0.78986 0.25759 0.82357 0.0
O339 O 0.78656 0.22238 0.88907 0.0
N340 N 0.69785 0.30229 0.82416 0.0
C341 C 0.67199 0.27737 0.75396 0.0
C342 C 0.68092 0.27745 0.60275 0.0
C343 C 0.71893 0.32021 0.71326 0.0
N344 N 0.71125 0.30366 0.57962 0.0
C345 C 0.68372 0.22998 0.15657 0.0
C346 C 0.68908 0.17018 0.94923 0.0
C347 C 0.66975 0.16191 0.0863 0.0
C348 C 0.66907 0.19224 0.19198 0.0
C349 C 0.70802 0.20813 0.9258 0.0
N350 N 0.70718 0.23782 0.03373 0.0
H351 H 0.67396 0.2531 0.23175 0.0
H352 H 0.71949 0.21439 0.81544 0.0
H353 H 0.65178 0.25672 0.8094 0.0
H354 H 0.74422 0.33993 0.73323 0.0
O355 O 0.67611 0.31319 0.11993 0.0
O356 O 0.7196 0.35731 0.04313 0.0
O357 O 0.7761 0.28917 0.89125 0.0
C358 C 0.68708 0.35 0.12008 0.0
H359 H 0.76231 0.36509 0.46814 0.0
H360 H 0.66852 0.25731 0.51949 0.0
H361 H 0.68705 0.14884 0.85779 0.0
H362 H 0.65134 0.18907 0.29309 0.0
Co363 Co 0.88217 0.70981 0.52863 0.0
C364 C 0.86871 0.69235 0.84643 0.0
C365 C 0.83991 0.74724 0.78107 0.0
C366 C 0.85032 0.74988 0.93002 0.0
N367 N 0.85551 0.71274 0.72434 0.0
N368 N 0.86812 0.71511 0.96945 0.0
H369 H 0.88349 0.66353 0.84581 0.0
H370 H 0.83006 0.77254 0.71419 0.0
C371 C 0.81233 0.74784 0.35402 0.0
O372 O 0.81616 0.78236 0.42426 0.0
N373 N 0.90672 0.70522 0.33338 0.0
C374 C 0.93492 0.72928 0.27197 0.0
C375 C 0.92663 0.73328 0.12116 0.0
C376 C 0.88494 0.6914 0.21714 0.0
N377 N 0.8948 0.7098 0.08948 0.0
C378 C 0.91524 0.7767 0.67886 0.0
C379 C 0.91712 0.83452 0.46057 0.0
C380 C 0.93524 0.8427 0.60004 0.0
C381 C 0.932 0.81383 0.71123 0.0
C382 C 0.89702 0.79735 0.43663 0.0
N383 N 0.89635 0.76825 0.54598 0.0
H384 H 0.91929 0.75381 0.7627 0.0
H385 H 0.88515 0.79112 0.32666 0.0
H386 H 0.95585 0.74755 0.33477 0.0
H387 H 0.85817 0.67328 0.22901 0.0
O388 O 0.93147 0.69457 0.62101 0.0
O389 O 0.88688 0.64954 0.5542 0.0
O390 O 0.82813 0.71597 0.41201 0.0
C391 C 0.92152 0.65724 0.61719 0.0
H392 H 0.85051 0.77716 0.99637 0.0
H393 H 0.93993 0.75492 0.04529 0.0
H394 H 0.92085 0.85534 0.36826 0.0
H395 H 0.9474 0.81758 0.81715 0.0
Co396 Co 0.60251 0.58917 0.7787 0.0
C397 C 0.62212 0.58083 0.09635 0.0
C398 C 0.57046 0.54736 0.0295 0.0
C399 C 0.56589 0.55849 0.17542 0.0
N400 N 0.60402 0.56433 0.97507 0.0
N401 N 0.59874 0.57918 0.21725 0.0
H402 H 0.64858 0.59931 0.09475 0.0
H403 H 0.54631 0.53622 0.96045 0.0
C404 C 0.57576 0.5238 0.54924 0.0
O405 O 0.55238 0.55027 0.48676 0.0
N406 N 0.60173 0.61397 0.58401 0.0
C407 C 0.57291 0.63801 0.52744 0.0
C408 C 0.57225 0.63288 0.37464 0.0
C409 C 0.62042 0.59753 0.46529 0.0
N410 N 0.60133 0.60646 0.33737 0.0
C411 C 0.54206 0.62925 0.94353 0.0
C412 C 0.47285 0.6051 0.80606 0.0
C413 C 0.47043 0.63224 0.9273 0.0
C414 C 0.50567 0.64237 0.99957 0.0
C415 C 0.51049 0.58979 0.75958 0.0
N416 N 0.54535 0.60372 0.82249 0.0
H417 H 0.56773 0.63908 1.00586 0.0
H418 H 0.51055 0.56728 0.67445 0.0
H419 H 0.5503 0.65338 0.59261 0.0
H420 H 0.64156 0.57289 0.47522 0.0
O421 O 0.62152 0.63914 0.85626 0.0
O422 O 0.66296 0.59207 0.78314 0.0
O423 O 0.59242 0.53235 0.67736 0.0
C424 C 0.65787 0.62763 0.84433 0.0
H425 H 0.53772 0.55737 0.23417 0.0
H426 H 0.54869 0.6429 0.30056 0.0
H427 H 0.44611 0.59699 0.74454 0.0
H428 H 0.50559 0.66396 0.09076 0.0
Co429 Co 0.00569 0.41593 0.276 0.0
C430 C 0.98638 0.42465 0.59376 0.0
C431 C 0.03806 0.45803 0.52599 0.0
C432 C 0.0427 0.44693 0.672 0.0
N433 N 0.00449 0.44091 0.47215 0.0
N434 N 0.0098 0.42635 0.7144 0.0
H435 H 0.95979 0.40637 0.59282 0.0
H436 H 0.06209 0.46932 0.4566 0.0
C437 C 0.0315 0.48211 0.04712 0.0
O438 O 0.0547 0.45599 0.98199 0.0
N439 N 0.00623 0.39114 0.08101 0.0
C440 C 0.03508 0.36711 0.02439 0.0
C441 C 0.03612 0.37254 0.87177 0.0
C442 C 0.98779 0.40779 0.96215 0.0
N443 N 0.00716 0.39908 0.83453 0.0
C444 C 0.06678 0.37612 0.43807 0.0
C445 C 0.13519 0.39873 0.29144 0.0
C446 C 0.13809 0.37144 0.41188 0.0
C447 C 0.10335 0.36189 0.48852 0.0
C448 C 0.0975 0.4148 0.24978 0.0
N449 N 0.06298 0.40162 0.31723 0.0
H450 H 0.04141 0.36692 0.50344 0.0
H451 H 0.09713 0.43714 0.16423 0.0
H452 H 0.05748 0.35147 0.08966 0.0
H453 H 0.96663 0.43243 0.97206 0.0
O454 O 0.98712 0.3657 0.35481 0.0
O455 O 0.94533 0.41258 0.28299 0.0
O456 O 0.01522 0.47296 0.17533 0.0
C457 C 0.95069 0.3771 0.34452 0.0
H458 H 0.0709 0.44808 0.73067 0.0
H459 H 0.05977 0.36255 0.79788 0.0
H460 H 0.1616 0.40657 0.22739 0.0
H461 H 0.10383 0.34043 0.58011 0.0
Co462 Co 0.60228 0.41691 0.25135 0.0
C463 C 0.62188 0.42528 0.93367 0.0
C464 C 0.57018 0.4587 1.00058 0.0
C465 C 0.56562 0.44757 0.85467 0.0
N466 N 0.60377 0.44176 0.05497 0.0
N467 N 0.59849 0.4269 0.81281 0.0
H468 H 0.64837 0.40685 0.93521 0.0
H469 H 0.54604 0.46986 0.06965 0.0
C470 C 0.57569 0.48235 0.48088 0.0
O471 O 0.55228 0.45594 0.54351 0.0
N472 N 0.60152 0.39211 0.44605 0.0
C473 C 0.57269 0.36806 0.50263 0.0
C474 C 0.57201 0.3732 0.65542 0.0
C475 C 0.6202 0.40853 0.56479 0.0
N476 N 0.6011 0.39962 0.6927 0.0
C477 C 0.54176 0.3769 0.08667 0.0
C478 C 0.47261 0.40096 0.22478 0.0
C479 C 0.47015 0.37388 0.10337 0.0
C480 C 0.50535 0.3638 0.0308 0.0
C481 C 0.51026 0.41627 0.27109 0.0
N482 N 0.5451 0.4024 0.20781 0.0
H483 H 0.56741 0.36711 0.02414 0.0
H484 H 0.51034 0.43871 0.35647 0.0
H485 H 0.55009 0.35269 0.43745 0.0
H486 H 0.64136 0.43318 0.55487 0.0
O487 O 0.62121 0.36692 0.17369 0.0
O488 O 0.66272 0.41396 0.24661 0.0
O489 O 0.59229 0.47375 0.35271 0.0
C490 C 0.65758 0.3784 0.18541 0.0
H491 H 0.53744 0.44866 0.79595 0.0
H492 H 0.54844 0.36318 0.72948 0.0
H493 H 0.44588 0.40901 0.28656 0.0
H494 H 0.50525 0.34225 0.93947 0.0
Co495 Co 0.00595 0.59016 0.75315 0.0
C496 C 0.98665 0.58139 0.43539 0.0
C497 C 0.03838 0.54808 0.50315 0.0
C498 C 0.04301 0.55918 0.35713 0.0
N499 N 0.00479 0.56517 0.557 0.0
N500 N 0.01008 0.57973 0.31475 0.0
H501 H 0.96003 0.59963 0.43633 0.0
H502 H 0.06241 0.53679 0.57253 0.0
C503 C 0.03158 0.5239 0.98204 0.0
O504 O 0.05483 0.54995 0.04733 0.0
N505 N 0.00646 0.61495 0.94816 0.0
C506 C 0.03531 0.63899 1.00475 0.0
C507 C 0.03636 0.63355 0.15736 0.0
C508 C 0.98803 0.59829 0.06705 0.0
N509 N 0.00741 0.607 0.19464 0.0
C510 C 0.06711 0.62989 0.59112 0.0
C511 C 0.13545 0.60753 0.73868 0.0
C512 C 0.13838 0.63476 0.61804 0.0
C513 C 0.10369 0.64418 0.54094 0.0
C514 C 0.09776 0.59141 0.78009 0.0
N515 N 0.06326 0.60444 0.71212 0.0
H516 H 0.04176 0.63902 0.52551 0.0
H517 H 0.09736 0.56918 0.86602 0.0
H518 H 0.05768 0.65466 0.93945 0.0
H519 H 0.96687 0.57365 0.05718 0.0
O520 O 0.98745 0.6404 0.67425 0.0
O521 O 0.9456 0.59355 0.74599 0.0
O522 O 0.01537 0.53311 0.85379 0.0
C523 C 0.95101 0.62903 0.68444 0.0
H524 H 0.07121 0.55807 0.29843 0.0
H525 H 0.06001 0.64355 0.23121 0.0
H526 H 0.16181 0.59981 0.80312 0.0
H527 H 0.10418 0.66558 0.44918 0.0
loop_
_geom_bond_atom_site_label_1
_geom_bond_atom_site_label_2
_geom_bond_distance
_geom_bond_site_symmetry_2
_ccdc_geom_bond_type
Co0 N4 2.148 . S
Co0 N10 2.128 . S
Co0 N20 2.194 . S
Co0 O25 2.351 . S
Co0 O26 2.155 . S
Co0 O27 2.096 . S
C1 N4 1.301 . S
C1 N5 1.328 . S
C1 H6 0.930 . S
C2 C3 1.333 . S
C2 N4 1.317 1_565 S
C2 H7 0.930 . S
C3 C2 1.333 . S
C3 N5 1.350 1_565 S
C3 H29 0.931 . S
N4 Co0 2.148 . S
N4 C1 1.301 . S
N4 C2 1.317 1_545 S
N5 C1 1.328 . S
N5 C3 1.350 1_545 S
H6 C1 0.930 . S
H7 C2 0.930 . S
C8 O9 1.224 1_565 S
C8 O27 1.247 1_565 S
O9 C8 1.224 1_545 S
N10 Co0 2.128 . S
N10 C11 1.355 . S
N10 C13 1.311 1_554 S
C11 N10 1.355 . S
C11 C12 1.363 1_554 S
C11 H23 0.929 . S
C12 C11 1.363 1_556 S
C12 N14 1.375 . S
C12 H30 0.931 . S
C13 N10 1.311 1_556 S
C13 N14 1.347 . S
C13 H24 0.929 . S
N14 C12 1.375 . S
N14 C13 1.347 . S
C15 C18 1.365 . S
C15 N20 1.328 . S
C15 H21 0.929 . S
C16 C17 1.362 . S
C16 C19 1.378 1_655 S
C16 H31 0.929 . S
C17 C16 1.362 . S
C17 C18 1.366 1_655 S
C18 C15 1.365 . S
C18 C17 1.366 1_455 S
C18 H32 0.930 . S
C19 C16 1.378 1_455 S
C19 N20 1.315 . S
C19 H22 0.930 . S
N20 Co0 2.194 . S
N20 C15 1.328 . S
N20 C19 1.315 . S
H21 C15 0.929 . S
H22 C19 0.930 . S
H23 C11 0.929 . S
H24 C13 0.929 . S
O25 Co0 2.351 . S
O25 C28 1.244 . S
O26 Co0 2.155 . S
O26 C28 1.240 . S
O27 Co0 2.096 . S
O27 C8 1.247 1_545 S
C28 O25 1.244 . S
C28 O26 1.240 . S
H29 C3 0.931 . S
H30 C12 0.931 . S
H31 C16 0.929 . S
H32 C18 0.930 . S
Co33 N37 2.148 . S
Co33 N43 2.128 . S
Co33 N53 2.194 . S
Co33 O58 2.351 . S
Co33 O59 2.155 . S
Co33 O60 2.096 . S
C34 N37 1.301 . S
C34 N38 1.328 . S
C34 H39 0.930 . S
C35 C36 1.333 . S
C35 N37 1.317 . S
C35 H40 0.930 . S
C36 C35 1.333 . S
C36 N38 1.350 . S
C36 H62 0.931 . S
N37 Co33 2.148 . S
N37 C34 1.301 . S
N37 C35 1.317 . S
N38 C34 1.328 . S
N38 C36 1.350 . S
H39 C34 0.930 . S
H40 C35 0.930 . S
C41 O42 1.224 . S
C41 O60 1.247 . S
O42 C41 1.224 . S
N43 Co33 2.128 . S
N43 C44 1.355 . S
N43 C46 1.311 . S
C44 N43 1.355 . S
C44 C45 1.363 . S
C44 H56 0.929 . S
C45 C44 1.363 . S
C45 N47 1.375 . S
C45 H63 0.931 . S
C46 N43 1.311 . S
C46 N47 1.347 . S
C46 H57 0.929 . S
N47 C45 1.375 . S
N47 C46 1.347 . S
C48 C51 1.365 . S
C48 N53 1.328 . S
C48 H54 0.929 . S
C49 C50 1.362 . S
C49 C52 1.378 . S
C49 H64 0.929 . S
C50 C49 1.362 . S
C50 C51 1.366 . S
C51 C48 1.365 . S
C51 C50 1.366 . S
C51 H65 0.930 . S
C52 C49 1.378 . S
C52 N53 1.315 . S
C52 H55 0.930 . S
N53 Co33 2.194 . S
N53 C48 1.328 . S
N53 C52 1.315 . S
H54 C48 0.929 . S
H55 C52 0.930 . S
H56 C44 0.929 . S
H57 C46 0.929 . S
O58 Co33 2.351 . S
O58 C61 1.244 . S
O59 Co33 2.155 . S
O59 C61 1.240 . S
O60 Co33 2.096 . S
O60 C41 1.247 . S
C61 O58 1.244 . S
C61 O59 1.240 . S
H62 C36 0.931 . S
H63 C45 0.931 . S
H64 C49 0.929 . S
H65 C51 0.930 . S
Co66 N70 2.148 1_556 S
Co66 N76 2.128 . S
Co66 N86 2.194 . S
Co66 O91 2.351 . S
Co66 O92 2.155 . S
Co66 O93 2.096 . S
C67 N70 1.301 . S
C67 N71 1.328 . S
C67 H72 0.930 . S
C68 C69 1.333 . S
C68 N70 1.317 1_545 S
C68 H73 0.930 1_554 S
C69 C68 1.333 . S
C69 N71 1.350 1_545 S
C69 H95 0.931 . S
N70 Co66 2.148 1_554 S
N70 C67 1.301 . S
N70 C68 1.317 1_565 S
N71 C67 1.328 . S
N71 C69 1.350 1_565 S
H72 C67 0.930 . S
H73 C68 0.930 1_556 S
C74 O75 1.224 1_545 S
C74 O93 1.247 1_545 S
O75 C74 1.224 1_565 S
N76 Co66 2.128 . S
N76 C77 1.355 . S
N76 C79 1.311 . S
C77 N76 1.355 . S
C77 C78 1.363 . S
C77 H89 0.929 . S
C78 C77 1.363 . S
C78 N80 1.375 . S
C78 H96 0.931 . S
C79 N76 1.311 . S
C79 N80 1.347 . S
C79 H90 0.929 . S
N80 C78 1.375 . S
N80 C79 1.347 . S
C81 C84 1.365 . S
C81 N86 1.328 . S
C81 H87 0.929 . S
C82 C83 1.362 . S
C82 C85 1.378 . S
C82 H97 0.929 . S
C83 C82 1.362 . S
C83 C84 1.366 . S
C84 C81 1.365 . S
C84 C83 1.366 . S
C84 H98 0.930 . S
C85 C82 1.378 . S
C85 N86 1.315 . S
C85 H88 0.930 . S
N86 Co66 2.194 . S
N86 C81 1.328 . S
N86 C85 1.315 . S
H87 C81 0.929 . S
H88 C85 0.930 . S
H89 C77 0.929 . S
H90 C79 0.929 . S
O91 Co66 2.351 . S
O91 C94 1.244 . S
O92 Co66 2.155 . S
O92 C94 1.240 . S
O93 Co66 2.096 . S
O93 C74 1.247 1_565 S
C94 O91 1.244 . S
C94 O92 1.240 . S
H95 C69 0.931 . S
H96 C78 0.931 . S
H97 C82 0.929 . S
H98 C84 0.930 . S
Co99 N103 2.148 1_556 S
Co99 N109 2.128 . S
Co99 N119 2.194 1_556 S
Co99 O124 2.351 1_556 S
Co99 O125 2.155 1_556 S
Co99 O126 2.096 . S
C100 N103 1.301 . S
C100 N104 1.328 . S
C100 H105 0.930 . S
C101 C102 1.333 . S
C101 N103 1.317 . S
C101 H106 0.930 . S
C102 C101 1.333 . S
C102 N104 1.350 . S
C102 H128 0.931 . S
N103 Co99 2.148 1_554 S
N103 C100 1.301 . S
N103 C101 1.317 . S
N104 C100 1.328 . S
N104 C102 1.350 . S
H105 C100 0.930 . S
H106 C101 0.930 . S
C107 O108 1.224 . S
C107 O126 1.247 . S
O108 C107 1.224 . S
N109 Co99 2.128 . S
N109 C110 1.355 . S
N109 C112 1.311 . S
C110 N109 1.355 . S
C110 C111 1.363 . S
C110 H122 0.929 . S
C111 C110 1.363 . S
C111 N113 1.375 . S
C111 H129 0.931 . S
C112 N109 1.311 . S
C112 N113 1.347 . S
C112 H123 0.929 . S
N113 C111 1.375 . S
N113 C112 1.347 . S
C114 C117 1.365 . S
C114 N119 1.328 . S
C114 H120 0.929 . S
C115 C116 1.362 . S
C115 C118 1.378 1_554 S
C115 H130 0.929 1_554 S
C116 C115 1.362 . S
C116 C117 1.366 . S
C117 C114 1.365 . S
C117 C116 1.366 . S
C117 H131 0.930 . S
C118 C115 1.378 1_556 S
C118 N119 1.315 1_556 S
C118 H121 0.930 . S
N119 Co99 2.194 1_554 S
N119 C114 1.328 . S
N119 C118 1.315 1_554 S
H120 C114 0.929 . S
H121 C118 0.930 . S
H122 C110 0.929 . S
H123 C112 0.929 . S
O124 Co99 2.351 1_554 S
O124 C127 1.244 . S
O125 Co99 2.155 1_554 S
O125 C127 1.240 . S
O126 Co99 2.096 . S
O126 C107 1.247 . S
C127 O124 1.244 . S
C127 O125 1.240 . S
H128 C102 0.931 . S
H129 C111 0.931 . S
H130 C115 0.929 1_556 S
H131 C117 0.930 . S
Co132 N136 2.148 . S
Co132 N142 2.128 . S
Co132 N152 2.194 . S
Co132 O157 2.351 . S
Co132 O158 2.155 . S
Co132 O159 2.096 . S
C133 N136 1.301 . S
C133 N137 1.328 . S
C133 H138 0.930 . S
C134 C135 1.333 . S
C134 N136 1.317 1_545 S
C134 H139 0.930 . S
C135 C134 1.333 . S
C135 N137 1.350 1_545 S
C135 H161 0.931 . S
N136 Co132 2.148 . S
N136 C133 1.301 . S
N136 C134 1.317 1_565 S
N137 C133 1.328 . S
N137 C135 1.350 1_565 S
H138 C133 0.930 . S
H139 C134 0.930 . S
C140 O141 1.224 1_545 S
C140 O159 1.247 1_545 S
O141 C140 1.224 1_565 S
N142 Co132 2.128 . S
N142 C143 1.355 . S
N142 C145 1.311 1_556 S
C143 N142 1.355 . S
C143 C144 1.363 1_556 S
C143 H155 0.929 . S
C144 C143 1.363 1_554 S
C144 N146 1.375 . S
C144 H162 0.931 . S
C145 N142 1.311 1_554 S
C145 N146 1.347 . S
C145 H156 0.929 . S
N146 C144 1.375 . S
N146 C145 1.347 . S
C147 C150 1.365 . S
C147 N152 1.328 . S
C147 H153 0.929 . S
C148 C149 1.362 . S
C148 C151 1.378 1_655 S
C148 H163 0.929 . S
C149 C148 1.362 . S
C149 C150 1.366 1_655 S
C150 C147 1.365 . S
C150 C149 1.366 1_455 S
C150 H164 0.930 . S
C151 C148 1.378 1_455 S
C151 N152 1.315 . S
C151 H154 0.930 . S
N152 Co132 2.194 . S
N152 C147 1.328 . S
N152 C151 1.315 . S
H153 C147 0.929 . S
H154 C151 0.930 . S
H155 C143 0.929 . S
H156 C145 0.929 . S
O157 Co132 2.351 . S
O157 C160 1.244 . S
O158 Co132 2.155 . S
O158 C160 1.240 . S
O159 Co132 2.096 . S
O159 C140 1.247 1_565 S
C160 O157 1.244 . S
C160 O158 1.240 . S
H161 C135 0.931 . S
H162 C144 0.931 . S
H163 C148 0.929 . S
H164 C150 0.930 . S
Co165 N169 2.148 1_554 S
Co165 N175 2.128 . S
Co165 N185 2.194 1_554 S
Co165 O190 2.351 1_554 S
Co165 O191 2.155 1_554 S
Co165 O192 2.096 . S
C166 N169 1.301 . S
C166 N170 1.328 . S
C166 H171 0.930 . S
C167 C168 1.333 . S
C167 N169 1.317 . S
C167 H172 0.930 . S
C168 C167 1.333 . S
C168 N170 1.350 . S
C168 H194 0.931 . S
N169 Co165 2.148 1_556 S
N169 C166 1.301 . S
N169 C167 1.317 . S
N170 C166 1.328 . S
N170 C168 1.350 . S
H171 C166 0.930 . S
H172 C167 0.930 . S
C173 O174 1.224 . S
C173 O192 1.247 . S
O174 C173 1.224 . S
N175 Co165 2.128 . S
N175 C176 1.355 . S
N175 C178 1.311 . S
C176 N175 1.355 . S
C176 C177 1.363 . S
C176 H188 0.929 . S
C177 C176 1.363 . S
C177 N179 1.375 . S
C177 H195 0.931 . S
C178 N175 1.311 . S
C178 N179 1.347 . S
C178 H189 0.929 . S
N179 C177 1.375 . S
N179 C178 1.347 . S
C180 C183 1.365 . S
C180 N185 1.328 . S
C180 H186 0.929 . S
C181 C182 1.362 . S
C181 C184 1.378 1_556 S
C181 H196 0.929 1_556 S
C182 C181 1.362 . S
C182 C183 1.366 . S
C183 C180 1.365 . S
C183 C182 1.366 . S
C183 H197 0.930 . S
C184 C181 1.378 1_554 S
C184 N185 1.315 1_554 S
C184 H187 0.930 . S
N185 Co165 2.194 1_556 S
N185 C180 1.328 . S
N185 C184 1.315 1_556 S
H186 C180 0.929 . S
H187 C184 0.930 . S
H188 C176 0.929 . S
H189 C178 0.929 . S
O190 Co165 2.351 1_556 S
O190 C193 1.244 . S
O191 Co165 2.155 1_556 S
O191 C193 1.240 . S
O192 Co165 2.096 . S
O192 C173 1.247 . S
C193 O190 1.244 . S
C193 O191 1.240 . S
H194 C168 0.931 . S
H195 C177 0.931 . S
H196 C181 0.929 1_554 S
H197 C183 0.930 . S
Co198 N202 2.148 1_554 S
Co198 N208 2.128 . S
Co198 N218 2.194 . S
Co198 O223 2.351 . S
Co198 O224 2.155 . S
Co198 O225 2.096 . S
C199 N202 1.301 . S
C199 N203 1.328 . S
C199 H204 0.930 . S
C200 C201 1.333 . S
C200 N202 1.317 1_565 S
C200 H205 0.930 1_556 S
C201 C200 1.333 . S
C201 N203 1.350 1_565 S
C201 H227 0.931 . S
N202 Co198 2.148 1_556 S
N202 C199 1.301 . S
N202 C200 1.317 1_545 S
N203 C199 1.328 . S
N203 C201 1.350 1_545 S
H204 C199 0.930 . S
H205 C200 0.930 1_554 S
C206 O207 1.224 1_565 S
C206 O225 1.247 1_565 S
O207 C206 1.224 1_545 S
N208 Co198 2.128 . S
N208 C209 1.355 . S
N208 C211 1.311 . S
C209 N208 1.355 . S
C209 C210 1.363 . S
C209 H221 0.929 . S
C210 C209 1.363 . S
C210 N212 1.375 . S
C210 H228 0.931 . S
C211 N208 1.311 . S
C211 N212 1.347 . S
C211 H222 0.929 . S
N212 C210 1.375 . S
N212 C211 1.347 . S
C213 C216 1.365 . S
C213 N218 1.328 . S
C213 H219 0.929 . S
C214 C215 1.362 . S
C214 C217 1.378 . S
C214 H229 0.929 . S
C215 C214 1.362 . S
C215 C216 1.366 . S
C216 C213 1.365 . S
C216 C215 1.366 . S
C216 H230 0.930 . S
C217 C214 1.378 . S
C217 N218 1.315 . S
C217 H220 0.930 . S
N218 Co198 2.194 . S
N218 C213 1.328 . S
N218 C217 1.315 . S
H219 C213 0.929 . S
H220 C217 0.930 . S
H221 C209 0.929 . S
H222 C211 0.929 . S
O223 Co198 2.351 . S
O223 C226 1.244 . S
O224 Co198 2.155 . S
O224 C226 1.240 . S
O225 Co198 2.096 . S
O225 C206 1.247 1_545 S
C226 O223 1.244 . S
C226 O224 1.240 . S
H227 C201 0.931 . S
H228 C210 0.931 . S
H229 C214 0.929 . S
H230 C216 0.930 . S
Co231 N235 2.148 . S
Co231 N241 2.128 . S
Co231 N251 2.194 . S
Co231 O256 2.351 . S
Co231 O257 2.155 . S
Co231 O258 2.096 . S
C232 N235 1.301 . S
C232 N236 1.328 . S
C232 H237 0.930 . S
C233 C234 1.333 . S
C233 N235 1.317 . S
C233 H238 0.930 . S
C234 C233 1.333 . S
C234 N236 1.350 . S
C234 H260 0.931 . S
N235 Co231 2.148 . S
N235 C232 1.301 . S
N235 C233 1.317 . S
N236 C232 1.328 . S
N236 C234 1.350 . S
H237 C232 0.930 . S
H238 C233 0.930 . S
C239 O240 1.224 . S
C239 O258 1.247 . S
O240 C239 1.224 . S
N241 Co231 2.128 . S
N241 C242 1.355 . S
N241 C244 1.311 . S
C242 N241 1.355 . S
C242 C243 1.363 . S
C242 H254 0.929 . S
C243 C242 1.363 . S
C243 N245 1.375 . S
C243 H261 0.931 . S
C244 N241 1.311 . S
C244 N245 1.347 . S
C244 H255 0.929 . S
N245 C243 1.375 . S
N245 C244 1.347 . S
C246 C249 1.365 . S
C246 N251 1.328 . S
C246 H252 0.929 . S
C247 C248 1.362 . S
C247 C250 1.378 . S
C247 H262 0.929 . S
C248 C247 1.362 . S
C248 C249 1.366 . S
C249 C246 1.365 . S
C249 C248 1.366 . S
C249 H263 0.930 . S
C250 C247 1.378 . S
C250 N251 1.315 . S
C250 H253 0.930 . S
N251 Co231 2.194 . S
N251 C246 1.328 . S
N251 C250 1.315 . S
H252 C246 0.929 . S
H253 C250 0.930 . S
H254 C242 0.929 . S
H255 C244 0.929 . S
O256 Co231 2.351 . S
O256 C259 1.244 . S
O257 Co231 2.155 . S
O257 C259 1.240 . S
O258 Co231 2.096 . S
O258 C239 1.247 . S
C259 O256 1.244 . S
C259 O257 1.240 . S
H260 C234 0.931 . S
H261 C243 0.931 . S
H262 C247 0.929 . S
H263 C249 0.930 . S
Co264 N268 2.148 . S
Co264 N274 2.128 . S
Co264 N284 2.194 . S
Co264 O289 2.351 . S
Co264 O290 2.155 . S
Co264 O291 2.096 . S
C265 N268 1.301 . S
C265 N269 1.328 . S
C265 H270 0.930 . S
C266 C267 1.333 . S
C266 N268 1.317 . S
C266 H271 0.930 . S
C267 C266 1.333 . S
C267 N269 1.350 . S
C267 H293 0.931 . S
N268 Co264 2.148 . S
N268 C265 1.301 . S
N268 C266 1.317 . S
N269 C265 1.328 . S
N269 C267 1.350 . S
H270 C265 0.930 . S
H271 C266 0.930 . S
C272 O273 1.224 . S
C272 O291 1.247 . S
O273 C272 1.224 . S
N274 Co264 2.128 . S
N274 C275 1.355 . S
N274 C277 1.311 . S
C275 N274 1.355 . S
C275 C276 1.363 . S
C275 H287 0.929 . S
C276 C275 1.363 . S
C276 N278 1.375 . S
C276 H294 0.931 . S
C277 N274 1.311 . S
C277 N278 1.347 . S
C277 H288 0.929 . S
N278 C276 1.375 . S
N278 C277 1.347 . S
C279 C282 1.365 . S
C279 N284 1.328 . S
C279 H285 0.929 . S
C280 C281 1.362 . S
C280 C283 1.378 . S
C280 H295 0.929 . S
C281 C280 1.362 . S
C281 C282 1.366 . S
C282 C279 1.365 . S
C282 C281 1.366 . S
C282 H296 0.930 . S
C283 C280 1.378 . S
C283 N284 1.315 . S
C283 H286 0.930 . S
N284 Co264 2.194 . S
N284 C279 1.328 . S
N284 C283 1.315 . S
H285 C279 0.929 . S
H286 C283 0.930 . S
H287 C275 0.929 . S
H288 C277 0.929 . S
O289 Co264 2.351 . S
O289 C292 1.244 . S
O290 Co264 2.155 . S
O290 C292 1.240 . S
O291 Co264 2.096 . S
O291 C272 1.247 . S
C292 O289 1.244 . S
C292 O290 1.240 . S
H293 C267 0.931 . S
H294 C276 0.931 . S
H295 C280 0.929 . S
H296 C282 0.930 . S
Co297 N301 2.148 1_554 S
Co297 N307 2.128 . S
Co297 N317 2.194 1_554 S
Co297 O322 2.351 1_554 S
Co297 O323 2.155 1_554 S
Co297 O324 2.096 . S
C298 N301 1.301 . S
C298 N302 1.328 . S
C298 H303 0.930 . S
C299 C300 1.333 . S
C299 N301 1.317 . S
C299 H304 0.930 . S
C300 C299 1.333 . S
C300 N302 1.350 . S
C300 H326 0.931 . S
N301 Co297 2.148 1_556 S
N301 C298 1.301 . S
N301 C299 1.317 . S
N302 C298 1.328 . S
N302 C300 1.350 . S
H303 C298 0.930 . S
H304 C299 0.930 . S
C305 O306 1.224 . S
C305 O324 1.247 . S
O306 C305 1.224 . S
N307 Co297 2.128 . S
N307 C308 1.355 . S
N307 C310 1.311 . S
C308 N307 1.355 . S
C308 C309 1.363 . S
C308 H320 0.929 . S
C309 C308 1.363 . S
C309 N311 1.375 . S
C309 H327 0.931 . S
C310 N307 1.311 . S
C310 N311 1.347 . S
C310 H321 0.929 . S
N311 C309 1.375 . S
N311 C310 1.347 . S
C312 C315 1.365 . S
C312 N317 1.328 . S
C312 H318 0.929 . S
C313 C314 1.362 . S
C313 C316 1.378 1_556 S
C313 H328 0.929 1_556 S
C314 C313 1.362 . S
C314 C315 1.366 . S
C315 C312 1.365 . S
C315 C314 1.366 . S
C315 H329 0.930 . S
C316 C313 1.378 1_554 S
C316 N317 1.315 1_554 S
C316 H319 0.930 . S
N317 Co297 2.194 1_556 S
N317 C312 1.328 . S
N317 C316 1.315 1_556 S
H318 C312 0.929 . S
H319 C316 0.930 . S
H320 C308 0.929 . S
H321 C310 0.929 . S
O322 Co297 2.351 1_556 S
O322 C325 1.244 . S
O323 Co297 2.155 1_556 S
O323 C325 1.240 . S
O324 Co297 2.096 . S
O324 C305 1.247 . S
C325 O322 1.244 . S
C325 O323 1.240 . S
H326 C300 0.931 . S
H327 C309 0.931 . S
H328 C313 0.929 1_554 S
H329 C315 0.930 . S
Co330 N334 2.148 1_556 S
Co330 N340 2.128 . S
Co330 N350 2.194 1_556 S
Co330 O355 2.351 1_556 S
Co330 O356 2.155 1_556 S
Co330 O357 2.096 . S
C331 N334 1.301 . S
C331 N335 1.328 . S
C331 H336 0.930 . S
C332 C333 1.333 . S
C332 N334 1.317 . S
C332 H337 0.930 . S
C333 C332 1.333 . S
C333 N335 1.350 . S
C333 H359 0.931 . S
N334 Co330 2.148 1_554 S
N334 C331 1.301 . S
N334 C332 1.317 . S
N335 C331 1.328 . S
N335 C333 1.350 . S
H336 C331 0.930 . S
H337 C332 0.930 . S
C338 O339 1.224 . S
C338 O357 1.247 . S
O339 C338 1.224 . S
N340 Co330 2.128 . S
N340 C341 1.355 . S
N340 C343 1.311 . S
C341 N340 1.355 . S
C341 C342 1.363 . S
C341 H353 0.929 . S
C342 C341 1.363 . S
C342 N344 1.375 . S
C342 H360 0.931 . S
C343 N340 1.311 . S
C343 N344 1.347 . S
C343 H354 0.929 . S
N344 C342 1.375 . S
N344 C343 1.347 . S
C345 C348 1.365 . S
C345 N350 1.328 . S
C345 H351 0.929 . S
C346 C347 1.362 . S
C346 C349 1.378 1_554 S
C346 H361 0.929 1_554 S
C347 C346 1.362 . S
C347 C348 1.366 . S
C348 C345 1.365 . S
C348 C347 1.366 . S
C348 H362 0.930 . S
C349 C346 1.378 1_556 S
C349 N350 1.315 1_556 S
C349 H352 0.930 . S
N350 Co330 2.194 1_554 S
N350 C345 1.328 . S
N350 C349 1.315 1_554 S
H351 C345 0.929 . S
H352 C349 0.930 . S
H353 C341 0.929 . S
H354 C343 0.929 . S
O355 Co330 2.351 1_554 S
O355 C358 1.244 . S
O356 Co330 2.155 1_554 S
O356 C358 1.240 . S
O357 Co330 2.096 . S
O357 C338 1.247 . S
C358 O355 1.244 . S
C358 O356 1.240 . S
H359 C333 0.931 . S
H360 C342 0.931 . S
H361 C346 0.929 1_556 S
H362 C348 0.930 . S
Co363 N367 2.148 . S
Co363 N373 2.128 . S
Co363 N383 2.194 . S
Co363 O388 2.351 . S
Co363 O389 2.155 . S
Co363 O390 2.096 . S
C364 N367 1.301 . S
C364 N368 1.328 . S
C364 H369 0.930 . S
C365 C366 1.333 . S
C365 N367 1.317 . S
C365 H370 0.930 . S
C366 C365 1.333 . S
C366 N368 1.350 . S
C366 H392 0.931 . S
N367 Co363 2.148 . S
N367 C364 1.301 . S
N367 C365 1.317 . S
N368 C364 1.328 . S
N368 C366 1.350 . S
H369 C364 0.930 . S
H370 C365 0.930 . S
C371 O372 1.224 . S
C371 O390 1.247 . S
O372 C371 1.224 . S
N373 Co363 2.128 . S
N373 C374 1.355 . S
N373 C376 1.311 . S
C374 N373 1.355 . S
C374 C375 1.363 . S
C374 H386 0.929 . S
C375 C374 1.363 . S
C375 N377 1.375 . S
C375 H393 0.931 . S
C376 N373 1.311 . S
C376 N377 1.347 . S
C376 H387 0.929 . S
N377 C375 1.375 . S
N377 C376 1.347 . S
C378 C381 1.365 . S
C378 N383 1.328 . S
C378 H384 0.929 . S
C379 C380 1.362 . S
C379 C382 1.378 . S
C379 H394 0.929 . S
C380 C379 1.362 . S
C380 C381 1.366 . S
C381 C378 1.365 . S
C381 C380 1.366 . S
C381 H395 0.930 . S
C382 C379 1.378 . S
C382 N383 1.315 . S
C382 H385 0.930 . S
N383 Co363 2.194 . S
N383 C378 1.328 . S
N383 C382 1.315 . S
H384 C378 0.929 . S
H385 C382 0.930 . S
H386 C374 0.929 . S
H387 C376 0.929 . S
O388 Co363 2.351 . S
O388 C391 1.244 . S
O389 Co363 2.155 . S
O389 C391 1.240 . S
O390 Co363 2.096 . S
O390 C371 1.247 . S
C391 O388 1.244 . S
C391 O389 1.240 . S
H392 C366 0.931 . S
H393 C375 0.931 . S
H394 C379 0.929 . S
H395 C381 0.930 . S
Co396 N400 2.148 1_556 S
Co396 N406 2.128 . S
Co396 N416 2.194 . S
Co396 O421 2.351 . S
Co396 O422 2.155 . S
Co396 O423 2.096 . S
C397 N400 1.301 . S
C397 N401 1.328 . S
C397 H402 0.930 . S
C398 C399 1.333 . S
C398 N400 1.317 . S
C398 H403 0.930 1_554 S
C399 C398 1.333 . S
C399 N401 1.350 . S
C399 H425 0.931 . S
N400 Co396 2.148 1_554 S
N400 C397 1.301 . S
N400 C398 1.317 . S
N401 C397 1.328 . S
N401 C399 1.350 . S
H402 C397 0.930 . S
H403 C398 0.930 1_556 S
C404 O405 1.224 . S
C404 O423 1.247 . S
O405 C404 1.224 . S
N406 Co396 2.128 . S
N406 C407 1.355 . S
N406 C409 1.311 . S
C407 N406 1.355 . S
C407 C408 1.363 . S
C407 H419 0.929 . S
C408 C407 1.363 . S
C408 N410 1.375 . S
C408 H426 0.931 . S
C409 N406 1.311 . S
C409 N410 1.347 . S
C409 H420 0.929 . S
N410 C408 1.375 . S
N410 C409 1.347 . S
C411 C414 1.365 . S
C411 N416 1.328 . S
C411 H417 0.929 . S
C412 C413 1.362 . S
C412 C415 1.378 . S
C412 H427 0.929 . S
C413 C412 1.362 . S
C413 C414 1.366 . S
C414 C411 1.365 . S
C414 C413 1.366 . S
C414 H428 0.930 . S
C415 C412 1.378 . S
C415 N416 1.315 . S
C415 H418 0.930 . S
N416 Co396 2.194 . S
N416 C411 1.328 . S
N416 C415 1.315 . S
H417 C411 0.929 . S
H418 C415 0.930 . S
H419 C407 0.929 . S
H420 C409 0.929 . S
O421 Co396 2.351 . S
O421 C424 1.244 . S
O422 Co396 2.155 . S
O422 C424 1.240 . S
O423 Co396 2.096 . S
O423 C404 1.247 . S
C424 O421 1.244 . S
C424 O422 1.240 . S
H425 C399 0.931 . S
H426 C408 0.931 . S
H427 C412 0.929 . S
H428 C414 0.930 . S
Co429 N433 2.148 . S
Co429 N439 2.128 . S
Co429 N449 2.194 . S
Co429 O454 2.351 1_455 S
Co429 O455 2.155 1_455 S
Co429 O456 2.096 1_455 S
C430 N433 1.301 . S
C430 N434 1.328 . S
C430 H435 0.930 . S
C431 C432 1.333 . S
C431 N433 1.317 . S
C431 H436 0.930 . S
C432 C431 1.333 . S
C432 N434 1.350 . S
C432 H458 0.931 . S
N433 Co429 2.148 . S
N433 C430 1.301 . S
N433 C431 1.317 . S
N434 C430 1.328 . S
N434 C432 1.350 . S
H435 C430 0.930 . S
H436 C431 0.930 . S
C437 O438 1.224 . S
C437 O456 1.247 1_455 S
O438 C437 1.224 . S
N439 Co429 2.128 . S
N439 C440 1.355 . S
N439 C442 1.311 1_554 S
C440 N439 1.355 . S
C440 C441 1.363 1_554 S
C440 H452 0.929 . S
C441 C440 1.363 1_556 S
C441 N443 1.375 . S
C441 H459 0.931 . S
C442 N439 1.311 1_556 S
C442 N443 1.347 . S
C442 H453 0.929 1_455 S
N443 C441 1.375 . S
N443 C442 1.347 . S
C444 C447 1.365 . S
C444 N449 1.328 . S
C444 H450 0.929 . S
C445 C446 1.362 . S
C445 C448 1.378 . S
C445 H460 0.929 . S
C446 C445 1.362 . S
C446 C447 1.366 . S
C447 C444 1.365 . S
C447 C446 1.366 . S
C447 H461 0.930 . S
C448 C445 1.378 . S
C448 N449 1.315 . S
C448 H451 0.930 . S
N449 Co429 2.194 . S
N449 C444 1.328 . S
N449 C448 1.315 . S
H450 C444 0.929 . S
H451 C448 0.930 . S
H452 C440 0.929 . S
H453 C442 0.929 1_655 S
O454 Co429 2.351 1_655 S
O454 C457 1.244 . S
O455 Co429 2.155 1_655 S
O455 C457 1.240 . S
O456 Co429 2.096 1_655 S
O456 C437 1.247 1_655 S
C457 O454 1.244 . S
C457 O455 1.240 . S
H458 C432 0.931 . S
H459 C441 0.931 . S
H460 C445 0.929 . S
H461 C447 0.930 . S
Co462 N466 2.148 1_554 S
Co462 N472 2.128 . S
Co462 N482 2.194 . S
Co462 O487 2.351 . S
Co462 O488 2.155 . S
Co462 O489 2.096 . S
C463 N466 1.301 . S
C463 N467 1.328 . S
C463 H468 0.930 . S
C464 C465 1.333 . S
C464 N466 1.317 . S
C464 H469 0.930 1_556 S
C465 C464 1.333 . S
C465 N467 1.350 . S
C465 H491 0.931 . S
N466 Co462 2.148 1_556 S
N466 C463 1.301 . S
N466 C464 1.317 . S
N467 C463 1.328 . S
N467 C465 1.350 . S
H468 C463 0.930 . S
H469 C464 0.930 1_554 S
C470 O471 1.224 . S
C470 O489 1.247 . S
O471 C470 1.224 . S
N472 Co462 2.128 . S
N472 C473 1.355 . S
N472 C475 1.311 . S
C473 N472 1.355 . S
C473 C474 1.363 . S
C473 H485 0.929 . S
C474 C473 1.363 . S
C474 N476 1.375 . S
C474 H492 0.931 . S
C475 N472 1.311 . S
C475 N476 1.347 . S
C475 H486 0.929 . S
N476 C474 1.375 . S
N476 C475 1.347 . S
C477 C480 1.365 . S
C477 N482 1.328 . S
C477 H483 0.929 . S
C478 C479 1.362 . S
C478 C481 1.378 . S
C478 H493 0.929 . S
C479 C478 1.362 . S
C479 C480 1.366 . S
C480 C477 1.365 . S
C480 C479 1.366 . S
C480 H494 0.930 . S
C481 C478 1.378 . S
C481 N482 1.315 . S
C481 H484 0.930 . S
N482 Co462 2.194 . S
N482 C477 1.328 . S
N482 C481 1.315 . S
H483 C477 0.929 . S
H484 C481 0.930 . S
H485 C473 0.929 . S
H486 C475 0.929 . S
O487 Co462 2.351 . S
O487 C490 1.244 . S
O488 Co462 2.155 . S
O488 C490 1.240 . S
O489 Co462 2.096 . S
O489 C470 1.247 . S
C490 O487 1.244 . S
C490 O488 1.240 . S
H491 C465 0.931 . S
H492 C474 0.931 . S
H493 C478 0.929 . S
H494 C480 0.930 . S
Co495 N499 2.148 . S
Co495 N505 2.128 . S
Co495 N515 2.194 . S
Co495 O520 2.351 1_455 S
Co495 O521 2.155 1_455 S
Co495 O522 2.096 1_455 S
C496 N499 1.301 . S
C496 N500 1.328 . S
C496 H501 0.930 . S
C497 C498 1.333 . S
C497 N499 1.317 . S
C497 H502 0.930 . S
C498 C497 1.333 . S
C498 N500 1.350 . S
C498 H524 0.931 . S
N499 Co495 2.148 . S
N499 C496 1.301 . S
N499 C497 1.317 . S
N500 C496 1.328 . S
N500 C498 1.350 . S
H501 C496 0.930 . S
H502 C497 0.930 . S
C503 O504 1.224 . S
C503 O522 1.247 1_455 S
O504 C503 1.224 . S
N505 Co495 2.128 . S
N505 C506 1.355 . S
N505 C508 1.311 1_556 S
C506 N505 1.355 . S
C506 C507 1.363 1_556 S
C506 H518 0.929 . S
C507 C506 1.363 1_554 S
C507 N509 1.375 . S
C507 H525 0.931 . S
C508 N505 1.311 1_554 S
C508 N509 1.347 . S
C508 H519 0.929 1_455 S
N509 C507 1.375 . S
N509 C508 1.347 . S
C510 C513 1.365 . S
C510 N515 1.328 . S
C510 H516 0.929 . S
C511 C512 1.362 . S
C511 C514 1.378 . S
C511 H526 0.929 . S
C512 C511 1.362 . S
C512 C513 1.366 . S
C513 C510 1.365 . S
C513 C512 1.366 . S
C513 H527 0.930 . S
C514 C511 1.378 . S
C514 N515 1.315 . S
C514 H517 0.930 . S
N515 Co495 2.194 . S
N515 C510 1.328 . S
N515 C514 1.315 . S
H516 C510 0.929 . S
H517 C514 0.930 . S
H518 C506 0.929 . S
H519 C508 0.929 1_655 S
O520 Co495 2.351 1_655 S
O520 C523 1.244 . S
O521 Co495 2.155 1_655 S
O521 C523 1.240 . S
O522 Co495 2.096 1_655 S
O522 C503 1.247 1_655 S
C523 O520 1.244 . S
C523 O521 1.240 . S
H524 C498 0.931 . S
H525 C507 0.931 . S
H526 C511 0.929 . S
H527 C513 0.930 . S
C259 C28 1.758 . S
C61 C160 1.758 . S
C94 C193 1.828 . S
C226 C127 1.828 . S
C380 C149 1.764 . S
C281 C17 1.764 . S
C215 C347 1.816 . S
C83 C314 1.816 . S
C325 C424 1.829 . S
C490 C358 1.829 . S
C457 C292 1.758 . S
C391 C523 1.758 . S
C116 C479 1.816 . S
C182 C413 1.816 . S
C50 C512 1.764 . S
C248 C446 1.763 . S
C8 C140 2.941 1_564 S
C173 C41 2.838 . S
C206 C74 3.240 1_565 S
C107 C239 2.838 . S
C338 C272 2.838 . S
C305 C371 2.838 . S
C404 C470 3.239 . S
C503 C437 2.942 1_556 S
N14 N5 2.113 . S
N47 N38 2.064 1_554 S
N71 N80 2.262 . S
N104 N113 2.122 . S
N137 N146 2.113 . S
N170 N179 2.122 . S
N212 N203 2.262 . S
N245 N236 2.064 1_556 S
N269 N278 2.064 1_554 S
N302 N311 2.122 . S
N344 N335 2.122 . S
N377 N368 2.064 1_554 S
N410 N401 2.262 . S
N443 N434 2.114 . S
N476 N467 2.262 . S
N500 N509 2.114 . S
