# Generated by pormake.
# Topology acs-h, (5)-cn, num edge types: 1
# Building blocks:
#     Node 0, Type 0, BuildingBlock: XOMCOT_clean_sbu_1, # of connection points: 5
#     Node 1, Type 0, BuildingBlock: XOMCOT_clean_sbu_1, # of connection points: 5
#     Node 2, Type 0, BuildingBlock: XOMCOT_clean_sbu_1, # of connection points: 5
#     Node 3, Type 0, BuildingBlock: XOMCOT_clean_sbu_1, # of connection points: 5
#     Node 4, Type 0, BuildingBlock: XOMCOT_clean_sbu_1, # of connection points: 5
#     Node 5, Type 0, BuildingBlock: XOMCOT_clean_sbu_1, # of connection points: 5
#     Node 6, Type 0, BuildingBlock: XOMCOT_clean_sbu_1, # of connection points: 5
#     Node 7, Type 0, BuildingBlock: XOMCOT_clean_sbu_1, # of connection points: 5
#     Node 8, Type 0, BuildingBlock: XOMCOT_clean_sbu_1, # of connection points: 5
#     Node 9, Type 0, BuildingBlock: XOMCOT_clean_sbu_1, # of connection points: 5
#     Node 10, Type 0, BuildingBlock: XOMCOT_clean_sbu_1, # of connection points: 5
#     Node 11, Type 0, BuildingBlock: XOMCOT_clean_sbu_1, # of connection points: 5
#     Edge 12, Type (0, 0), None
#     Edge 13, Type (0, 0), None
#     Edge 14, Type (0, 0), None
#     Edge 15, Type (0, 0), None
#     Edge 16, Type (0, 0), None
#     Edge 17, Type (0, 0), None
#     Edge 18, Type (0, 0), None
#     Edge 19, Type (0, 0), None
#     Edge 20, Type (0, 0), None
#     Edge 21, Type (0, 0), None
#     Edge 22, Type (0, 0), None
#     Edge 23, Type (0, 0), None
#     Edge 24, Type (0, 0), None
#     Edge 25, Type (0, 0), None
#     Edge 26, Type (0, 0), None
#     Edge 27, Type (0, 0), None
#     Edge 28, Type (0, 0), None
#     Edge 29, Type (0, 0), None
#     Edge 30, Type (0, 0), None
#     Edge 31, Type (0, 0), None
#     Edge 32, Type (0, 0), None
#     Edge 33, Type (0, 0), None
#     Edge 34, Type (0, 0), None
#     Edge 35, Type (0, 0), None
#     Edge 36, Type (0, 0), None
#     Edge 37, Type (0, 0), None
#     Edge 38, Type (0, 0), None
#     Edge 39, Type (0, 0), None
#     Edge 40, Type (0, 0), None
#     Edge 41, Type (0, 0), None
# Relax obj value: 0.941
# Max RMSD: 0.287
# Mean RMSD: 0.287
data_MOF--net-acs-h--node1-XOMCOT_clean_sbu_1--edge1-none
_symmetry_space_group_name_H-M    P1
_symmetry_Int_Tables_number       1
_symmetry_cell_setting            triclinic
loop_
_symmetry_equiv_pos_as_xyz
'x, y, z'
_cell_length_a     26.190655
_cell_length_b     26.073865
_cell_length_c     19.655124
_cell_angle_alpha  89.658954
_cell_angle_beta   90.71059
_cell_angle_gamma 120.18893
loop_
_atom_site_label
_atom_site_type_symbol
_atom_site_fract_x
_atom_site_fract_y
_atom_site_fract_z
_atom_type_partial_charge
C0 C 0.5311 0.19847 0.95669 0.0
C1 C 0.58313 0.19769 0.94831 0.0
N2 N 0.61299 0.21309 0.00796 0.0
N3 N 0.52814 0.21348 0.02165 0.0
C4 C 0.57921 0.22277 0.05065 0.0
H5 H 0.49904 0.1906 0.9171 0.0
Co6 Co 0.4758 0.22813 0.07142 0.0
C7 C 0.51957 0.20064 0.20372 0.0
O8 O 0.5542 0.25571 0.22332 0.0
N9 N 0.42628 0.24426 0.12677 0.0
C10 C 0.37478 0.23564 0.22021 0.0
C11 C 0.38355 0.2053 0.16862 0.0
C12 C 0.44084 0.29811 0.15303 0.0
N13 N 0.41107 0.29406 0.21029 0.0
O14 O 0.54077 0.30435 0.0903 0.0
H15 H 0.36531 0.15785 0.16753 0.0
H16 H 0.4781 0.33947 0.1367 0.0
O17 O 0.48973 0.18942 0.14874 0.0
C18 C 0.54807 0.3387 0.03977 0.0
O19 O 0.50961 0.3188 0.98919 0.0
N20 N 0.41191 0.1553 0.04275 0.0
C21 C 0.36889 0.05695 0.95983 0.0
C22 C 0.37306 0.05112 0.03033 0.0
C23 C 0.39561 0.10142 0.0713 0.0
C24 C 0.3953 0.15866 0.97762 0.0
C25 C 0.37475 0.10974 0.93418 0.0
H26 H 0.40577 0.09748 0.12372 0.0
H27 H 0.40793 0.20165 0.95608 0.0
H28 H 0.59335 0.23977 0.10152 0.0
H29 H 0.5985 0.18839 0.90163 0.0
H30 H 0.34882 0.21619 0.26541 0.0
H31 H 0.36809 0.01047 0.05179 0.0
H32 H 0.37204 0.11575 0.87994 0.0
C33 C 0.82283 0.36136 0.99746 0.0
C34 C 0.82756 0.41648 0.99146 0.0
N35 N 0.79943 0.42302 0.04461 0.0
N36 N 0.79232 0.33456 0.05433 0.0
C37 C 0.77769 0.37276 0.08051 0.0
H38 H 0.84051 0.34237 0.96276 0.0
Co39 Co 0.77191 0.26321 0.09593 0.0
C40 C 0.78899 0.29907 0.24698 0.0
O41 O 0.8137 0.26737 0.26266 0.0
N42 N 0.74895 0.19073 0.13787 0.0
C43 C 0.71799 0.09558 0.16167 0.0
C44 C 0.75487 0.1437 0.12113 0.0
C45 C 0.7084 0.17024 0.18742 0.0
N46 N 0.69008 0.11367 0.20363 0.0
O47 O 0.6907 0.23941 0.0815 0.0
H48 H 0.78118 0.14301 0.07961 0.0
H49 H 0.6889 0.1948 0.20789 0.0
O50 O 0.77177 0.29922 0.18576 0.0
C51 C 0.66781 0.22207 0.02228 0.0
O52 O 0.69913 0.2164 0.9743 0.0
N53 N 0.85248 0.28744 0.10253 0.0
C54 C 0.95981 0.36533 0.04392 0.0
C55 C 0.94678 0.37623 0.10915 0.0
C56 C 0.89225 0.33737 0.1371 0.0
C57 C 0.86964 0.27053 0.0456 0.0
C58 C 0.92346 0.30949 0.01464 0.0
H59 H 0.88008 0.35396 0.17985 0.0
H60 H 0.83739 0.23243 0.01698 0.0
H61 H 0.75006 0.36356 0.12459 0.0
H62 H 0.84973 0.44885 0.95164 0.0
H63 H 0.71071 0.05095 0.15893 0.0
H64 H 0.97471 0.41853 0.13396 0.0
H65 H 0.9323 0.29944 0.96424 0.0
C66 C 0.65699 0.48866 0.01302 0.0
C67 C 0.60574 0.43811 0.99256 0.0
N68 N 0.5941 0.39511 0.03846 0.0
N69 N 0.67659 0.47714 0.0718 0.0
C70 C 0.63804 0.41922 0.08418 0.0
H71 H 0.67842 0.53045 0.98619 0.0
Co72 Co 0.74 0.52061 0.13136 0.0
C73 C 0.68075 0.46992 0.26738 0.0
O74 O 0.71609 0.51602 0.30511 0.0
N75 N 0.80276 0.5594 0.19379 0.0
C76 C 0.87786 0.61765 0.26355 0.0
C77 C 0.84062 0.61643 0.21158 0.0
C78 C 0.81825 0.52735 0.2345 0.0
N79 N 0.86306 0.56123 0.27685 0.0
O80 O 0.76385 0.46579 0.11463 0.0
H81 H 0.84048 0.65442 0.18943 0.0
H82 H 0.79554 0.47939 0.23517 0.0
O83 O 0.68866 0.47091 0.20375 0.0
C84 C 0.79141 0.46873 0.06053 0.0
O85 O 0.80854 0.51411 0.01914 0.0
N86 N 0.71657 0.5774 0.14061 0.0
C87 C 0.64376 0.61592 0.08594 0.0
C88 C 0.63294 0.59026 0.151 0.0
C89 C 0.66954 0.5704 0.1772 0.0
C90 C 0.73514 0.61426 0.08563 0.0
C91 C 0.69856 0.63335 0.0563 0.0
H92 H 0.65532 0.54412 0.22251 0.0
H93 H 0.77272 0.61973 0.05729 0.0
H94 H 0.64265 0.39396 0.12524 0.0
H95 H 0.57925 0.43346 0.94777 0.0
H96 H 0.91145 0.65624 0.29046 0.0
H97 H 0.59298 0.57951 0.17805 0.0
H98 H 0.70965 0.6544 1.00682 0.0
C99 C 0.77742 0.2851 0.53806 0.0
C100 C 0.72857 0.22824 0.53808 0.0
N101 N 0.69778 0.2212 0.47997 0.0
N102 N 0.77658 0.31268 0.48007 0.0
C103 C 0.72746 0.27262 0.44663 0.0
H104 H 0.81084 0.30497 0.57758 0.0
Co105 Co 0.82295 0.38725 0.4419 0.0
C106 C 0.78779 0.33985 0.29824 0.0
O107 O 0.7565 0.36572 0.28723 0.0
N108 N 0.86779 0.46255 0.39794 0.0
C109 C 0.93055 0.53275 0.32688 0.0
C110 C 0.92139 0.486 0.3685 0.0
C111 C 0.84602 0.49661 0.37352 0.0
N112 N 0.88299 0.53935 0.33045 0.0
O113 O 0.75332 0.39147 0.43232 0.0
H114 H 0.94949 0.46669 0.37099 0.0
H115 H 0.80103 0.48653 0.38001 0.0
O116 O 0.81539 0.34752 0.35465 0.0
C117 C 0.74481 0.40954 0.48945 0.0
O118 O 0.7852 0.42588 0.53774 0.0
N119 N 0.89042 0.38443 0.46383 0.0
C120 C 0.97568 0.37481 0.53991 0.0
C121 C 0.94325 0.33328 0.48848 0.0
C122 C 0.9004 0.33884 0.45079 0.0
C123 C 0.92265 0.42589 0.5118 0.0
C124 C 0.9661 0.42266 0.5493 0.0
H125 H 0.87257 0.30445 0.41494 0.0
H126 H 0.91258 0.46038 0.52317 0.0
H127 H 0.7122 0.28171 0.39921 0.0
H128 H 0.71644 0.19526 0.57776 0.0
H129 H 0.96581 0.55501 0.29057 0.0
H130 H 0.94913 0.2957 0.4793 0.0
H131 H -0.0087 0.45726 0.58619 0.0
C132 C 0.62735 0.43009 0.54132 0.0
C133 C 0.68116 0.43375 0.55481 0.0
N134 N 0.69493 0.41156 0.50073 0.0
N135 N 0.60817 0.40553 0.47928 0.0
C136 C 0.64962 0.39346 0.45729 0.0
H137 H 0.60542 0.44688 0.57284 0.0
Co138 Co 0.54867 0.39522 0.41925 0.0
C139 C 0.62492 0.42295 0.29539 0.0
O140 O 0.59127 0.37372 0.26171 0.0
N141 N 0.49061 0.38378 0.35285 0.0
C142 C 0.45991 0.39674 0.25114 0.0
C143 C 0.49497 0.42484 0.3073 0.0
C144 C 0.45083 0.33122 0.32404 0.0
N145 N 0.43237 0.33783 0.26186 0.0
O146 O 0.53532 0.31805 0.40319 0.0
H147 H 0.5274 0.47161 0.31034 0.0
H148 H 0.44161 0.28858 0.34337 0.0
O149 O 0.60884 0.43221 0.35216 0.0
C150 C 0.50587 0.28205 0.45107 0.0
O151 O 0.48163 0.29878 0.49762 0.0
N152 N 0.56016 0.46933 0.44293 0.0
C153 C 0.57643 0.56763 0.51563 0.0
C154 C 0.62194 0.57139 0.47548 0.0
C155 C 0.6131 0.52133 0.43975 0.0
C156 C 0.51453 0.46595 0.47867 0.0
C157 C 0.52155 0.5147 0.51505 0.0
H158 H 0.65026 0.52355 0.41387 0.0
H159 H 0.47351 0.42412 0.4819 0.0
H160 H 0.6476 0.37315 0.40872 0.0
H161 H 0.70887 0.45326 0.59943 0.0
H162 H 0.45991 0.41756 0.20332 0.0
H163 H 0.66473 0.61155 0.47446 0.0
H164 H 0.48461 0.51048 0.54384 0.0
C165 C 0.4818 0.13826 0.48539 0.0
C166 C 0.47173 0.18424 0.50047 0.0
N167 N 0.50258 0.22867 0.45613 0.0
N168 N 0.51865 0.1545 0.43197 0.0
C169 C 0.53155 0.21023 0.41701 0.0
H170 H 0.46208 0.09536 0.50997 0.0
Co171 Co 0.54623 0.11545 0.37856 0.0
C172 C 0.51648 0.15091 0.24339 0.0
O173 O 0.48246 0.09619 0.2222 0.0
N174 N 0.57699 0.07878 0.32079 0.0
C175 C 0.5902 0.03593 0.22954 0.0
C176 C 0.5493 0.03509 0.27386 0.0
C177 C 0.63469 0.10384 0.30447 0.0
N178 N 0.64382 0.07982 0.24881 0.0
O179 O 0.62343 0.17669 0.4013 0.0
H180 H 0.50202 0.0088 0.26655 0.0
H181 H 0.66946 0.14459 0.32624 0.0
O182 O 0.54345 0.16106 0.3004 0.0
C183 C 0.64588 0.17433 0.4586 0.0
O184 O 0.61707 0.1275 0.49768 0.0
N185 N 0.46876 0.0533 0.366 0.0
C186 C 0.35978 0.9678 0.41498 0.0
C187 C 0.36518 0.01753 0.38085 0.0
C188 C 0.42063 0.0601 0.35595 0.0
C189 C 0.46262 0.00309 0.39526 0.0
C190 C 0.40826 0.95914 0.41842 0.0
H191 H 0.42623 0.10165 0.33715 0.0
H192 H 0.50128 -0.00021 0.4072 0.0
H193 H 0.56226 0.23753 0.3781 0.0
H194 H 0.44326 0.18447 0.53979 0.0
H195 H 0.58039 0.01214 0.18181 0.0
H196 H 0.32863 0.02584 0.37876 0.0
H197 H 0.4056 0.92155 0.4455 0.0
C198 C 0.33408 0.85192 0.98815 0.0
C199 C 0.27761 0.80635 1.00272 0.0
N200 N 0.2642 0.76157 0.959 0.0
N201 N 0.35512 0.83503 0.93572 0.0
C202 C 0.31212 0.77937 0.92088 0.0
H203 H 0.35729 0.89501 0.01237 0.0
Co204 Co 0.42238 0.87316 0.88304 0.0
C205 C 0.35913 0.83619 0.74635 0.0
O206 O 0.381 0.89079 0.72421 0.0
N207 N 0.49061 0.90907 0.82633 0.0
C208 C 0.5493 0.9525 0.73716 0.0
C209 C 0.50836 0.95336 0.77997 0.0
C210 C 0.52292 0.88344 0.811 0.0
N211 N 0.55792 0.908 0.75673 0.0
O212 O 0.43801 0.81214 0.90849 0.0
H213 H 0.48814 0.98025 0.77188 0.0
H214 H 0.51543 0.842 0.83227 0.0
O215 O 0.37465 0.82643 0.80448 0.0
C216 C 0.46246 0.81509 0.96628 0.0
O217 O 0.48073 0.86253 1.00438 0.0
N218 N 0.40732 0.93512 0.86799 0.0
C219 C 0.38244 0.01979 0.91618 0.0
C220 C 0.33883 0.97023 0.88101 0.0
C221 C 0.35244 0.92809 0.85645 0.0
C222 C 0.4508 0.98533 0.89798 0.0
C223 C 0.43973 0.0289 0.92072 0.0
H224 H 0.3169 0.88652 0.83705 0.0
H225 H 0.49264 0.98877 0.9111 0.0
H226 H 0.31578 0.7516 0.88282 0.0
H227 H 0.24852 0.80665 0.04118 0.0
H228 H 0.56474 0.97683 0.68994 0.0
H229 H 0.29388 0.9616 0.87796 0.0
H230 H 0.47412 0.06639 0.94855 0.0
C231 C 0.18579 0.55741 0.04095 0.0
C232 C 0.23567 0.55398 0.05706 0.0
N233 N 0.27408 0.57834 1.00542 0.0
N234 N 0.19388 0.58418 0.97989 0.0
C235 C 0.24873 0.59791 0.96123 0.0
H236 H 0.14532 0.53852 0.06962 0.0
Co237 Co 0.14613 0.59382 0.91692 0.0
C238 C 0.19603 0.57267 0.79055 0.0
O239 O 0.19201 0.61182 0.75212 0.0
N240 N 0.10064 0.60464 0.84833 0.0
C241 C 0.05594 0.59086 0.74718 0.0
C242 C 0.0633 0.56319 0.80343 0.0
C243 C 0.11328 0.65694 0.81912 0.0
N244 N 0.08759 0.64985 0.75724 0.0
O245 O 0.20834 0.67251 0.90573 0.0
H246 H 0.04864 0.51639 0.80688 0.0
H247 H 0.14702 0.69973 0.83784 0.0
O248 O 0.17725 0.56322 0.85087 0.0
C249 C 0.214 0.70829 0.95338 0.0
O250 O 0.17247 0.6914 0.99924 0.0
N251 N 0.08486 0.51772 0.93524 0.0
C252 C 0.00183 0.41635 1.00228 0.0
C253 C 0.04572 0.41499 0.96366 0.0
C254 C 0.08752 0.46674 0.93063 0.0
C255 C 0.04035 0.51852 0.96893 0.0
C256 C -0.00194 0.4682 1.00232 0.0
H257 H 0.12406 0.46672 0.90576 0.0
H258 H 0.03981 0.5596 0.97314 0.0
H259 H 0.26919 0.62003 0.9141 0.0
H260 H 0.24178 0.53256 0.10126 0.0
H261 H 0.03481 0.56967 0.6996 0.0
H262 H 0.04957 0.37556 0.96216 0.0
H263 H 0.96375 0.47051 0.03003 0.0
C264 C 0.4837 0.70534 0.04775 0.0
C265 C 0.49139 0.76209 0.04707 0.0
N266 N 0.46709 0.76833 0.98896 0.0
N267 N 0.45483 0.67698 0.99024 0.0
C268 C 0.44513 0.71649 0.95653 0.0
H269 H 0.49827 0.68629 0.08713 0.0
Co270 Co 0.42799 0.60299 0.95074 0.0
C271 C 0.44165 0.65142 0.80834 0.0
O272 O 0.38457 0.62384 0.79599 0.0
N273 N 0.39923 0.52915 0.90506 0.0
C274 C 0.39205 0.46938 0.82009 0.0
C275 C 0.4304 0.51602 0.86122 0.0
C276 C 0.34204 0.4885 0.89063 0.0
N277 N 0.33647 0.45213 0.8388 0.0
O278 O 0.35373 0.59779 0.93956 0.0
H279 H 0.47756 0.54301 0.85399 0.0
H280 H 0.30478 0.49002 0.91119 0.0
O281 O 0.4613 0.64431 0.86508 0.0
C282 C 0.32612 0.58015 0.99614 0.0
O283 O 0.34887 0.56341 0.04546 0.0
N284 N 0.49865 0.6063 0.97293 0.0
C285 C 0.59423 0.61368 0.04545 0.0
C286 C 0.6028 0.6574 0.99735 0.0
C287 C 0.55407 0.65295 0.96145 0.0
C288 C 0.48994 0.56262 0.01737 0.0
C289 C 0.537 0.56486 0.05316 0.0
H290 H 0.56029 0.68873 0.92809 0.0
H291 H 0.44556 0.527 0.02741 0.0
H292 H 0.42064 0.70691 0.90914 0.0
H293 H 0.51286 0.79572 0.08601 0.0
H294 H 0.40382 0.45371 0.77538 0.0
H295 H 0.64614 0.69569 0.98948 0.0
H296 H 0.52811 0.5287 0.08745 0.0
C297 C 0.17034 0.49835 0.51356 0.0
C298 C 0.17108 0.54914 0.49117 0.0
N299 N 0.19964 0.59178 0.53838 0.0
N300 N 0.19771 0.50922 0.57491 0.0
C301 C 0.21669 0.56722 0.58674 0.0
H302 H 0.15109 0.45671 0.48652 0.0
Co303 Co 0.21168 0.46462 0.64029 0.0
C304 C 0.22028 0.53729 0.76382 0.0
O305 O 0.25894 0.5301 0.79929 0.0
N306 N 0.22864 0.42413 0.7103 0.0
C307 C 0.22973 0.39507 0.81727 0.0
C308 C 0.19454 0.39511 0.76435 0.0
C309 C 0.28393 0.43834 0.73102 0.0
N310 N 0.28599 0.42271 0.79613 0.0
O311 O 0.29166 0.52025 0.63215 0.0
H312 H 0.14855 0.38201 0.76902 0.0
H313 H 0.32349 0.46715 0.7031 0.0
O314 O 0.20132 0.512 0.70691 0.0
C315 C 0.31668 0.51637 0.57868 0.0
O316 O 0.28842 0.47011 0.53845 0.0
N317 N 0.13103 0.40827 0.64083 0.0
C318 C 0.02166 0.37155 0.58198 0.0
C319 C 0.03439 0.3953 0.64816 0.0
C320 C 0.09002 0.4143 0.67657 0.0
C321 C 0.11457 0.37297 0.58462 0.0
C322 C 0.05993 0.3549 0.55314 0.0
H323 H 0.1014 0.43898 0.7236 0.0
H324 H 0.14752 0.36801 0.55748 0.0
H325 H 0.24362 0.59194 0.63 0.0
H326 H 0.15172 0.55405 0.44435 0.0
H327 H 0.21603 0.38215 0.86931 0.0
H328 H 0.00427 0.40508 0.67468 0.0
H329 H 0.0516 0.33525 0.50295 0.0
C330 C 0.45461 0.6223 0.51193 0.0
C331 C 0.40446 0.56676 0.50846 0.0
N332 N 0.37016 0.56191 0.56138 0.0
N333 N 0.45114 0.65112 0.56701 0.0
C334 C 0.39852 0.61363 0.59449 0.0
H335 H 0.49116 0.64006 0.47705 0.0
Co336 Co 0.50298 0.72345 0.60637 0.0
C337 C 0.48378 0.6917 0.75721 0.0
O338 O 0.54033 0.72289 0.77263 0.0
N339 N 0.55288 0.79673 0.64689 0.0
C340 C 0.61907 0.89036 0.67515 0.0
C341 C 0.60827 0.84205 0.63512 0.0
C342 C 0.53108 0.81848 0.69292 0.0
N343 N 0.57021 0.87408 0.71157 0.0
O344 O 0.44696 0.74788 0.58854 0.0
H345 H 0.63801 0.84126 0.59809 0.0
H346 H 0.48589 0.79505 0.71028 0.0
O347 O 0.46636 0.69045 0.69594 0.0
C348 C 0.4432 0.76529 0.52876 0.0
O349 O 0.48121 0.77054 0.48232 0.0
N350 N 0.55812 0.69818 0.61635 0.0
C351 C 0.58448 0.61809 0.55777 0.0
C352 C 0.55892 0.60691 0.62216 0.0
C353 C 0.54527 0.6472 0.65038 0.0
C354 C 0.59331 0.71473 0.56046 0.0
C355 C 0.60685 0.67483 0.52968 0.0
H356 H 0.51564 0.63119 0.69252 0.0
H357 H 0.60113 0.75363 0.53211 0.0
H358 H 0.38011 0.62422 0.63749 0.0
H359 H 0.39425 0.53288 0.47056 0.0
H360 H 0.65858 0.93367 0.67645 0.0
H361 H 0.54255 0.56405 0.64633 0.0
H362 H 0.62716 0.68525 0.48004 0.0
C363 C 0.33178 0.78912 0.45853 0.0
C364 C 0.3848 0.78998 0.45197 0.0
N365 N 0.39795 0.77452 0.51236 0.0
N366 N 0.31252 0.77394 0.52305 0.0
C367 C 0.35369 0.76481 0.55367 0.0
H368 H 0.30832 0.797 0.41806 0.0
Co369 Co 0.2447 0.75875 0.57074 0.0
C370 C 0.31295 0.7863 0.70605 0.0
O371 O 0.29144 0.73129 0.72652 0.0
N372 N 0.17792 0.74235 0.62364 0.0
C373 C 0.13191 0.75127 0.71382 0.0
C374 C 0.17247 0.78143 0.66348 0.0
C375 C 0.13831 0.68861 0.64969 0.0
N376 N 0.1107 0.69289 0.70506 0.0
O377 O 0.23336 0.6822 0.59031 0.0
H378 H 0.2013 0.82894 0.66207 0.0
H379 H 0.13525 0.64736 0.63486 0.0
O380 O 0.29583 0.79734 0.64977 0.0
C381 C 0.20907 0.64792 0.53887 0.0
O382 O 0.19252 0.66767 0.48631 0.0
N383 N 0.25402 0.83151 0.5415 0.0
C384 C 0.30933 0.9299 0.45863 0.0
C385 C 0.31931 0.93574 0.52913 0.0
C386 C 0.29152 0.88545 0.57007 0.0
C387 C 0.23443 0.82797 0.47615 0.0
C388 C 0.26275 0.87691 0.43278 0.0
H389 H 0.30542 0.88948 0.62258 0.0
H390 H 0.20427 0.7849 0.45456 0.0
H391 H 0.34977 0.74778 0.6047 0.0
H392 H 0.41044 0.79929 0.40606 0.0
H393 H 0.12384 0.7709 0.75778 0.0
H394 H 0.35481 0.97651 0.55067 0.0
H395 H 0.25419 0.87089 0.3785 0.0
loop_
_geom_bond_atom_site_label_1
_geom_bond_atom_site_label_2
_geom_bond_distance
_geom_bond_site_symmetry_2
_ccdc_geom_bond_type
C0 C1 1.351 . S
C0 N3 1.368 1_556 S
C0 H5 0.931 . S
C1 C0 1.351 . S
C1 N2 1.373 1_556 S
C1 H29 0.930 . S
N2 C1 1.373 1_554 S
N2 C4 1.340 . S
N3 C0 1.368 1_554 S
N3 C4 1.321 . S
N3 Co6 2.135 . S
C4 N2 1.340 . S
C4 N3 1.321 . S
C4 H28 0.930 . S
H5 C0 0.931 . S
Co6 N3 2.135 . S
Co6 N9 2.121 . S
Co6 O14 2.055 . S
Co6 O17 2.039 . S
Co6 N20 2.140 . S
C7 O8 1.227 . S
C7 O17 1.265 . S
O8 C7 1.227 . S
N9 Co6 2.121 . S
N9 C11 1.375 . S
N9 C12 1.313 . S
C10 C11 1.338 . S
C10 N13 1.377 . S
C10 H30 0.930 . S
C11 N9 1.375 . S
C11 C10 1.338 . S
C11 H15 0.931 . S
C12 N9 1.313 . S
C12 N13 1.344 . S
C12 H16 0.930 . S
N13 C10 1.377 . S
N13 C12 1.344 . S
O14 Co6 2.055 . S
O14 C18 1.253 . S
H15 C11 0.931 . S
H16 C12 0.930 . S
O17 Co6 2.039 . S
O17 C7 1.265 . S
C18 O14 1.253 . S
C18 O19 1.227 . S
O19 C18 1.227 . S
N20 Co6 2.140 . S
N20 C23 1.346 . S
N20 C24 1.345 . S
C21 C22 1.387 . S
C21 C25 1.391 . S
C22 C21 1.387 . S
C22 C23 1.369 1_556 S
C22 H31 0.929 . S
C23 N20 1.346 . S
C23 C22 1.369 1_554 S
C23 H26 0.928 . S
C24 N20 1.345 . S
C24 C25 1.371 1_554 S
C24 H27 0.931 . S
C25 C21 1.391 . S
C25 C24 1.371 1_556 S
C25 H32 0.930 . S
H26 C23 0.928 . S
H27 C24 0.931 . S
H28 C4 0.930 . S
H29 C1 0.930 . S
H30 C10 0.930 . S
H31 C22 0.929 . S
H32 C25 0.930 . S
C33 C34 1.351 . S
C33 N36 1.368 1_556 S
C33 H38 0.931 . S
C34 C33 1.351 . S
C34 N35 1.373 1_556 S
C34 H62 0.930 . S
N35 C34 1.373 1_554 S
N35 C37 1.340 . S
N36 C33 1.368 1_554 S
N36 C37 1.321 . S
N36 Co39 2.135 . S
C37 N35 1.340 . S
C37 N36 1.321 . S
C37 H61 0.930 . S
H38 C33 0.931 . S
Co39 N36 2.135 . S
Co39 N42 2.121 . S
Co39 O47 2.055 . S
Co39 O50 2.039 . S
Co39 N53 2.140 . S
C40 O41 1.227 . S
C40 O50 1.265 . S
O41 C40 1.227 . S
N42 Co39 2.121 . S
N42 C44 1.375 . S
N42 C45 1.313 . S
C43 C44 1.338 . S
C43 N46 1.377 . S
C43 H63 0.930 . S
C44 N42 1.375 . S
C44 C43 1.338 . S
C44 H48 0.931 . S
C45 N42 1.313 . S
C45 N46 1.344 . S
C45 H49 0.930 . S
N46 C43 1.377 . S
N46 C45 1.344 . S
O47 Co39 2.055 . S
O47 C51 1.253 . S
H48 C44 0.931 . S
H49 C45 0.930 . S
O50 Co39 2.039 . S
O50 C40 1.265 . S
C51 O47 1.253 . S
C51 O52 1.227 . S
O52 C51 1.227 . S
N53 Co39 2.140 . S
N53 C56 1.346 . S
N53 C57 1.345 . S
C54 C55 1.387 . S
C54 C58 1.391 . S
C55 C54 1.387 . S
C55 C56 1.369 1_556 S
C55 H64 0.929 . S
C56 N53 1.346 . S
C56 C55 1.369 1_554 S
C56 H59 0.928 . S
C57 N53 1.345 . S
C57 C58 1.371 1_554 S
C57 H60 0.931 . S
C58 C54 1.391 . S
C58 C57 1.371 1_556 S
C58 H65 0.930 . S
H59 C56 0.928 . S
H60 C57 0.931 . S
H61 C37 0.930 . S
H62 C34 0.930 . S
H63 C43 0.930 . S
H64 C55 0.929 . S
H65 C58 0.930 . S
C66 C67 1.351 . S
C66 N69 1.368 1_556 S
C66 H71 0.931 . S
C67 C66 1.351 . S
C67 N68 1.373 1_556 S
C67 H95 0.930 . S
N68 C67 1.373 1_554 S
N68 C70 1.340 . S
N69 C66 1.368 1_554 S
N69 C70 1.321 . S
N69 Co72 2.135 . S
C70 N68 1.340 . S
C70 N69 1.321 . S
C70 H94 0.930 . S
H71 C66 0.931 . S
Co72 N69 2.135 . S
Co72 N75 2.121 . S
Co72 O80 2.055 . S
Co72 O83 2.039 . S
Co72 N86 2.140 . S
C73 O74 1.227 . S
C73 O83 1.265 . S
O74 C73 1.227 . S
N75 Co72 2.121 . S
N75 C77 1.375 . S
N75 C78 1.313 . S
C76 C77 1.338 . S
C76 N79 1.377 . S
C76 H96 0.930 . S
C77 N75 1.375 . S
C77 C76 1.338 . S
C77 H81 0.931 . S
C78 N75 1.313 . S
C78 N79 1.344 . S
C78 H82 0.930 . S
N79 C76 1.377 . S
N79 C78 1.344 . S
O80 Co72 2.055 . S
O80 C84 1.253 . S
H81 C77 0.931 . S
H82 C78 0.930 . S
O83 Co72 2.039 . S
O83 C73 1.265 . S
C84 O80 1.253 . S
C84 O85 1.227 . S
O85 C84 1.227 . S
N86 Co72 2.140 . S
N86 C89 1.346 . S
N86 C90 1.345 . S
C87 C88 1.387 . S
C87 C91 1.391 . S
C88 C87 1.387 . S
C88 C89 1.369 1_556 S
C88 H97 0.929 . S
C89 N86 1.346 . S
C89 C88 1.369 1_554 S
C89 H92 0.928 . S
C90 N86 1.345 . S
C90 C91 1.371 1_554 S
C90 H93 0.931 . S
C91 C87 1.391 . S
C91 C90 1.371 1_556 S
C91 H98 0.930 . S
H92 C89 0.928 . S
H93 C90 0.931 . S
H94 C70 0.930 . S
H95 C67 0.930 . S
H96 C76 0.930 . S
H97 C88 0.929 . S
H98 C91 0.930 . S
C99 C100 1.351 . S
C99 N102 1.368 . S
C99 H104 0.931 . S
C100 C99 1.351 . S
C100 N101 1.373 . S
C100 H128 0.930 . S
N101 C100 1.373 . S
N101 C103 1.340 . S
N102 C99 1.368 . S
N102 C103 1.321 . S
N102 Co105 2.135 . S
C103 N101 1.340 . S
C103 N102 1.321 . S
C103 H127 0.930 . S
H104 C99 0.931 . S
Co105 N102 2.135 . S
Co105 N108 2.121 . S
Co105 O113 2.055 . S
Co105 O116 2.039 . S
Co105 N119 2.140 . S
C106 O107 1.227 . S
C106 O116 1.265 . S
O107 C106 1.227 . S
N108 Co105 2.121 . S
N108 C110 1.375 . S
N108 C111 1.313 . S
C109 C110 1.338 . S
C109 N112 1.377 . S
C109 H129 0.930 . S
C110 N108 1.375 . S
C110 C109 1.338 . S
C110 H114 0.931 . S
C111 N108 1.313 . S
C111 N112 1.344 . S
C111 H115 0.930 . S
N112 C109 1.377 . S
N112 C111 1.344 . S
O113 Co105 2.055 . S
O113 C117 1.253 . S
H114 C110 0.931 . S
H115 C111 0.930 . S
O116 Co105 2.039 . S
O116 C106 1.265 . S
C117 O113 1.253 . S
C117 O118 1.227 . S
O118 C117 1.227 . S
N119 Co105 2.140 . S
N119 C122 1.346 . S
N119 C123 1.345 . S
C120 C121 1.387 . S
C120 C124 1.391 . S
C121 C120 1.387 . S
C121 C122 1.369 . S
C121 H130 0.929 . S
C122 N119 1.346 . S
C122 C121 1.369 . S
C122 H125 0.928 . S
C123 N119 1.345 . S
C123 C124 1.371 . S
C123 H126 0.931 . S
C124 C120 1.391 . S
C124 C123 1.371 . S
C124 H131 0.930 . S
H125 C122 0.928 . S
H126 C123 0.931 . S
H127 C103 0.930 . S
H128 C100 0.930 . S
H129 C109 0.930 . S
H130 C121 0.929 . S
H131 C124 0.930 . S
C132 C133 1.351 . S
C132 N135 1.368 . S
C132 H137 0.931 . S
C133 C132 1.351 . S
C133 N134 1.373 . S
C133 H161 0.930 . S
N134 C133 1.373 . S
N134 C136 1.340 . S
N135 C132 1.368 . S
N135 C136 1.321 . S
N135 Co138 2.135 . S
C136 N134 1.340 . S
C136 N135 1.321 . S
C136 H160 0.930 . S
H137 C132 0.931 . S
Co138 N135 2.135 . S
Co138 N141 2.121 . S
Co138 O146 2.055 . S
Co138 O149 2.039 . S
Co138 N152 2.140 . S
C139 O140 1.227 . S
C139 O149 1.265 . S
O140 C139 1.227 . S
N141 Co138 2.121 . S
N141 C143 1.375 . S
N141 C144 1.313 . S
C142 C143 1.338 . S
C142 N145 1.377 . S
C142 H162 0.930 . S
C143 N141 1.375 . S
C143 C142 1.338 . S
C143 H147 0.931 . S
C144 N141 1.313 . S
C144 N145 1.344 . S
C144 H148 0.930 . S
N145 C142 1.377 . S
N145 C144 1.344 . S
O146 Co138 2.055 . S
O146 C150 1.253 . S
H147 C143 0.931 . S
H148 C144 0.930 . S
O149 Co138 2.039 . S
O149 C139 1.265 . S
C150 O146 1.253 . S
C150 O151 1.227 . S
O151 C150 1.227 . S
N152 Co138 2.140 . S
N152 C155 1.346 . S
N152 C156 1.345 . S
C153 C154 1.387 . S
C153 C157 1.391 . S
C154 C153 1.387 . S
C154 C155 1.369 . S
C154 H163 0.929 . S
C155 N152 1.346 . S
C155 C154 1.369 . S
C155 H158 0.928 . S
C156 N152 1.345 . S
C156 C157 1.371 . S
C156 H159 0.931 . S
C157 C153 1.391 . S
C157 C156 1.371 . S
C157 H164 0.930 . S
H158 C155 0.928 . S
H159 C156 0.931 . S
H160 C136 0.930 . S
H161 C133 0.930 . S
H162 C142 0.930 . S
H163 C154 0.929 . S
H164 C157 0.930 . S
C165 C166 1.351 . S
C165 N168 1.368 . S
C165 H170 0.931 . S
C166 C165 1.351 . S
C166 N167 1.373 . S
C166 H194 0.930 . S
N167 C166 1.373 . S
N167 C169 1.340 . S
N168 C165 1.368 . S
N168 C169 1.321 . S
N168 Co171 2.135 . S
C169 N167 1.340 . S
C169 N168 1.321 . S
C169 H193 0.930 . S
H170 C165 0.931 . S
Co171 N168 2.135 . S
Co171 N174 2.121 . S
Co171 O179 2.055 . S
Co171 O182 2.039 . S
Co171 N185 2.140 . S
C172 O173 1.227 . S
C172 O182 1.265 . S
O173 C172 1.227 . S
N174 Co171 2.121 . S
N174 C176 1.375 . S
N174 C177 1.313 . S
C175 C176 1.338 . S
C175 N178 1.377 . S
C175 H195 0.930 . S
C176 N174 1.375 . S
C176 C175 1.338 . S
C176 H180 0.931 . S
C177 N174 1.313 . S
C177 N178 1.344 . S
C177 H181 0.930 . S
N178 C175 1.377 . S
N178 C177 1.344 . S
O179 Co171 2.055 . S
O179 C183 1.253 . S
H180 C176 0.931 . S
H181 C177 0.930 . S
O182 Co171 2.039 . S
O182 C172 1.265 . S
C183 O179 1.253 . S
C183 O184 1.227 . S
O184 C183 1.227 . S
N185 Co171 2.140 . S
N185 C188 1.346 . S
N185 C189 1.345 . S
C186 C187 1.387 . S
C186 C190 1.391 . S
C187 C186 1.387 . S
C187 C188 1.369 . S
C187 H196 0.929 . S
C188 N185 1.346 . S
C188 C187 1.369 . S
C188 H191 0.928 . S
C189 N185 1.345 . S
C189 C190 1.371 . S
C189 H192 0.931 . S
C190 C186 1.391 . S
C190 C189 1.371 . S
C190 H197 0.930 . S
H191 C188 0.928 . S
H192 C189 0.931 . S
H193 C169 0.930 . S
H194 C166 0.930 . S
H195 C175 0.930 . S
H196 C187 0.929 . S
H197 C190 0.930 . S
C198 C199 1.351 . S
C198 N201 1.368 1_554 S
C198 H203 0.931 . S
C199 C198 1.351 . S
C199 N200 1.373 1_554 S
C199 H227 0.930 . S
N200 C199 1.373 1_556 S
N200 C202 1.340 . S
N201 C198 1.368 1_556 S
N201 C202 1.321 . S
N201 Co204 2.135 . S
C202 N200 1.340 . S
C202 N201 1.321 . S
C202 H226 0.930 . S
H203 C198 0.931 . S
Co204 N201 2.135 . S
Co204 N207 2.121 . S
Co204 O212 2.055 . S
Co204 O215 2.039 . S
Co204 N218 2.140 . S
C205 O206 1.227 . S
C205 O215 1.265 . S
O206 C205 1.227 . S
N207 Co204 2.121 . S
N207 C209 1.375 . S
N207 C210 1.313 . S
C208 C209 1.338 . S
C208 N211 1.377 . S
C208 H228 0.930 . S
C209 N207 1.375 . S
C209 C208 1.338 . S
C209 H213 0.931 . S
C210 N207 1.313 . S
C210 N211 1.344 . S
C210 H214 0.930 . S
N211 C208 1.377 . S
N211 C210 1.344 . S
O212 Co204 2.055 . S
O212 C216 1.253 . S
H213 C209 0.931 . S
H214 C210 0.930 . S
O215 Co204 2.039 . S
O215 C205 1.265 . S
C216 O212 1.253 . S
C216 O217 1.227 . S
O217 C216 1.227 . S
N218 Co204 2.140 . S
N218 C221 1.346 . S
N218 C222 1.345 . S
C219 C220 1.387 . S
C219 C223 1.391 . S
C220 C219 1.387 . S
C220 C221 1.369 1_554 S
C220 H229 0.929 . S
C221 N218 1.346 . S
C221 C220 1.369 1_556 S
C221 H224 0.928 . S
C222 N218 1.345 . S
C222 C223 1.371 1_556 S
C222 H225 0.931 . S
C223 C219 1.391 . S
C223 C222 1.371 1_554 S
C223 H230 0.930 . S
H224 C221 0.928 . S
H225 C222 0.931 . S
H226 C202 0.930 . S
H227 C199 0.930 . S
H228 C208 0.930 . S
H229 C220 0.929 . S
H230 C223 0.930 . S
C231 C232 1.351 . S
C231 N234 1.368 1_554 S
C231 H236 0.931 . S
C232 C231 1.351 . S
C232 N233 1.373 1_554 S
C232 H260 0.930 . S
N233 C232 1.373 1_556 S
N233 C235 1.340 . S
N234 C231 1.368 1_556 S
N234 C235 1.321 . S
N234 Co237 2.135 . S
C235 N233 1.340 . S
C235 N234 1.321 . S
C235 H259 0.930 . S
H236 C231 0.931 . S
Co237 N234 2.135 . S
Co237 N240 2.121 . S
Co237 O245 2.055 . S
Co237 O248 2.039 . S
Co237 N251 2.140 . S
C238 O239 1.227 . S
C238 O248 1.265 . S
O239 C238 1.227 . S
N240 Co237 2.121 . S
N240 C242 1.375 . S
N240 C243 1.313 . S
C241 C242 1.338 . S
C241 N244 1.377 . S
C241 H261 0.930 . S
C242 N240 1.375 . S
C242 C241 1.338 . S
C242 H246 0.931 . S
C243 N240 1.313 . S
C243 N244 1.344 . S
C243 H247 0.930 . S
N244 C241 1.377 . S
N244 C243 1.344 . S
O245 Co237 2.055 . S
O245 C249 1.253 . S
H246 C242 0.931 . S
H247 C243 0.930 . S
O248 Co237 2.039 . S
O248 C238 1.265 . S
C249 O245 1.253 . S
C249 O250 1.227 . S
O250 C249 1.227 . S
N251 Co237 2.140 . S
N251 C254 1.346 . S
N251 C255 1.345 . S
C252 C253 1.387 . S
C252 C256 1.391 . S
C253 C252 1.387 . S
C253 C254 1.369 1_554 S
C253 H262 0.929 . S
C254 N251 1.346 . S
C254 C253 1.369 1_556 S
C254 H257 0.928 . S
C255 N251 1.345 . S
C255 C256 1.371 1_556 S
C255 H258 0.931 . S
C256 C252 1.391 . S
C256 C255 1.371 1_554 S
C256 H263 0.930 . S
H257 C254 0.928 . S
H258 C255 0.931 . S
H259 C235 0.930 . S
H260 C232 0.930 . S
H261 C241 0.930 . S
H262 C253 0.929 . S
H263 C256 0.930 . S
C264 C265 1.351 . S
C264 N267 1.368 1_554 S
C264 H269 0.931 . S
C265 C264 1.351 . S
C265 N266 1.373 1_554 S
C265 H293 0.930 . S
N266 C265 1.373 1_556 S
N266 C268 1.340 . S
N267 C264 1.368 1_556 S
N267 C268 1.321 . S
N267 Co270 2.135 . S
C268 N266 1.340 . S
C268 N267 1.321 . S
C268 H292 0.930 . S
H269 C264 0.931 . S
Co270 N267 2.135 . S
Co270 N273 2.121 . S
Co270 O278 2.055 . S
Co270 O281 2.039 . S
Co270 N284 2.140 . S
C271 O272 1.227 . S
C271 O281 1.265 . S
O272 C271 1.227 . S
N273 Co270 2.121 . S
N273 C275 1.375 . S
N273 C276 1.313 . S
C274 C275 1.338 . S
C274 N277 1.377 . S
C274 H294 0.930 . S
C275 N273 1.375 . S
C275 C274 1.338 . S
C275 H279 0.931 . S
C276 N273 1.313 . S
C276 N277 1.344 . S
C276 H280 0.930 . S
N277 C274 1.377 . S
N277 C276 1.344 . S
O278 Co270 2.055 . S
O278 C282 1.253 . S
H279 C275 0.931 . S
H280 C276 0.930 . S
O281 Co270 2.039 . S
O281 C271 1.265 . S
C282 O278 1.253 . S
C282 O283 1.227 . S
O283 C282 1.227 . S
N284 Co270 2.140 . S
N284 C287 1.346 . S
N284 C288 1.345 . S
C285 C286 1.387 . S
C285 C289 1.391 . S
C286 C285 1.387 . S
C286 C287 1.369 1_554 S
C286 H295 0.929 . S
C287 N284 1.346 . S
C287 C286 1.369 1_556 S
C287 H290 0.928 . S
C288 N284 1.345 . S
C288 C289 1.371 1_556 S
C288 H291 0.931 . S
C289 C285 1.391 . S
C289 C288 1.371 1_554 S
C289 H296 0.930 . S
H290 C287 0.928 . S
H291 C288 0.931 . S
H292 C268 0.930 . S
H293 C265 0.930 . S
H294 C274 0.930 . S
H295 C286 0.929 . S
H296 C289 0.930 . S
C297 C298 1.351 . S
C297 N300 1.368 . S
C297 H302 0.931 . S
C298 C297 1.351 . S
C298 N299 1.373 . S
C298 H326 0.930 . S
N299 C298 1.373 . S
N299 C301 1.340 . S
N300 C297 1.368 . S
N300 C301 1.321 . S
N300 Co303 2.135 . S
C301 N299 1.340 . S
C301 N300 1.321 . S
C301 H325 0.930 . S
H302 C297 0.931 . S
Co303 N300 2.135 . S
Co303 N306 2.121 . S
Co303 O311 2.055 . S
Co303 O314 2.039 . S
Co303 N317 2.140 . S
C304 O305 1.227 . S
C304 O314 1.265 . S
O305 C304 1.227 . S
N306 Co303 2.121 . S
N306 C308 1.375 . S
N306 C309 1.313 . S
C307 C308 1.338 . S
C307 N310 1.377 . S
C307 H327 0.930 . S
C308 N306 1.375 . S
C308 C307 1.338 . S
C308 H312 0.931 . S
C309 N306 1.313 . S
C309 N310 1.344 . S
C309 H313 0.930 . S
N310 C307 1.377 . S
N310 C309 1.344 . S
O311 Co303 2.055 . S
O311 C315 1.253 . S
H312 C308 0.931 . S
H313 C309 0.930 . S
O314 Co303 2.039 . S
O314 C304 1.265 . S
C315 O311 1.253 . S
C315 O316 1.227 . S
O316 C315 1.227 . S
N317 Co303 2.140 . S
N317 C320 1.346 . S
N317 C321 1.345 . S
C318 C319 1.387 . S
C318 C322 1.391 . S
C319 C318 1.387 . S
C319 C320 1.369 . S
C319 H328 0.929 . S
C320 N317 1.346 . S
C320 C319 1.369 . S
C320 H323 0.928 . S
C321 N317 1.345 . S
C321 C322 1.371 . S
C321 H324 0.931 . S
C322 C318 1.391 . S
C322 C321 1.371 . S
C322 H329 0.930 . S
H323 C320 0.928 . S
H324 C321 0.931 . S
H325 C301 0.930 . S
H326 C298 0.930 . S
H327 C307 0.930 . S
H328 C319 0.929 . S
H329 C322 0.930 . S
C330 C331 1.351 . S
C330 N333 1.368 . S
C330 H335 0.931 . S
C331 C330 1.351 . S
C331 N332 1.373 . S
C331 H359 0.930 . S
N332 C331 1.373 . S
N332 C334 1.340 . S
N333 C330 1.368 . S
N333 C334 1.321 . S
N333 Co336 2.135 . S
C334 N332 1.340 . S
C334 N333 1.321 . S
C334 H358 0.930 . S
H335 C330 0.931 . S
Co336 N333 2.135 . S
Co336 N339 2.121 . S
Co336 O344 2.055 . S
Co336 O347 2.039 . S
Co336 N350 2.140 . S
C337 O338 1.227 . S
C337 O347 1.265 . S
O338 C337 1.227 . S
N339 Co336 2.121 . S
N339 C341 1.375 . S
N339 C342 1.313 . S
C340 C341 1.338 . S
C340 N343 1.377 . S
C340 H360 0.930 . S
C341 N339 1.375 . S
C341 C340 1.338 . S
C341 H345 0.931 . S
C342 N339 1.313 . S
C342 N343 1.344 . S
C342 H346 0.930 . S
N343 C340 1.377 . S
N343 C342 1.344 . S
O344 Co336 2.055 . S
O344 C348 1.253 . S
H345 C341 0.931 . S
H346 C342 0.930 . S
O347 Co336 2.039 . S
O347 C337 1.265 . S
C348 O344 1.253 . S
C348 O349 1.227 . S
O349 C348 1.227 . S
N350 Co336 2.140 . S
N350 C353 1.346 . S
N350 C354 1.345 . S
C351 C352 1.387 . S
C351 C355 1.391 . S
C352 C351 1.387 . S
C352 C353 1.369 . S
C352 H361 0.929 . S
C353 N350 1.346 . S
C353 C352 1.369 . S
C353 H356 0.928 . S
C354 N350 1.345 . S
C354 C355 1.371 . S
C354 H357 0.931 . S
C355 C351 1.391 . S
C355 C354 1.371 . S
C355 H362 0.930 . S
H356 C353 0.928 . S
H357 C354 0.931 . S
H358 C334 0.930 . S
H359 C331 0.930 . S
H360 C340 0.930 . S
H361 C352 0.929 . S
H362 C355 0.930 . S
C363 C364 1.351 . S
C363 N366 1.368 . S
C363 H368 0.931 . S
C364 C363 1.351 . S
C364 N365 1.373 . S
C364 H392 0.930 . S
N365 C364 1.373 . S
N365 C367 1.340 . S
N366 C363 1.368 . S
N366 C367 1.321 . S
N366 Co369 2.135 . S
C367 N365 1.340 . S
C367 N366 1.321 . S
C367 H391 0.930 . S
H368 C363 0.931 . S
Co369 N366 2.135 . S
Co369 N372 2.121 . S
Co369 O377 2.055 . S
Co369 O380 2.039 . S
Co369 N383 2.140 . S
C370 O371 1.227 . S
C370 O380 1.265 . S
O371 C370 1.227 . S
N372 Co369 2.121 . S
N372 C374 1.375 . S
N372 C375 1.313 . S
C373 C374 1.338 . S
C373 N376 1.377 . S
C373 H393 0.930 . S
C374 N372 1.375 . S
C374 C373 1.338 . S
C374 H378 0.931 . S
C375 N372 1.313 . S
C375 N376 1.344 . S
C375 H379 0.930 . S
N376 C373 1.377 . S
N376 C375 1.344 . S
O377 Co369 2.055 . S
O377 C381 1.253 . S
H378 C374 0.931 . S
H379 C375 0.930 . S
O380 Co369 2.039 . S
O380 C370 1.265 . S
C381 O377 1.253 . S
C381 O382 1.227 . S
O382 C381 1.227 . S
N383 Co369 2.140 . S
N383 C386 1.346 . S
N383 C387 1.345 . S
C384 C385 1.387 . S
C384 C388 1.391 . S
C385 C384 1.387 . S
C385 C386 1.369 . S
C385 H394 0.929 . S
C386 N383 1.346 . S
C386 C385 1.369 . S
C386 H389 0.928 . S
C387 N383 1.345 . S
C387 C388 1.371 . S
C387 H390 0.931 . S
C388 C384 1.391 . S
C388 C387 1.371 . S
C388 H395 0.930 . S
H389 C386 0.928 . S
H390 C387 0.931 . S
H391 C367 0.930 . S
H392 C364 0.930 . S
H393 C373 0.930 . S
H394 C385 0.929 . S
H395 C388 0.930 . S
C172 C7 1.534 . S
C40 C106 1.534 . S
C73 C139 1.533 . S
C205 C370 1.534 . S
C304 C238 1.534 . S
C337 C271 1.533 . S
C21 C219 5.066 1_546 S
C54 C252 5.066 1_656 S
C285 C87 5.067 1_554 S
C318 C120 5.066 1_455 S
C153 C351 5.067 . S
C186 C384 5.066 1_545 S
N145 N13 2.212 . S
N178 N46 2.212 . S
N112 N79 2.212 . S
N211 N343 2.212 . S
N244 N376 2.212 . S
N310 N277 2.212 . S
C18 N68 1.256 . S
C51 N2 1.257 . S
N35 C84 1.257 . S
C117 N134 1.256 . S
N167 C150 1.256 . S
N101 C183 1.257 . S
N266 C216 1.256 . S
C249 N200 1.257 . S
N233 C282 1.257 . S
N332 C315 1.256 . S
N365 C348 1.256 . S
C381 N299 1.257 . S
