# Generated by pormake.
# Topology mmt, (4)-cn, num edge types: 1
# Building blocks:
#     Node 0, Type 0, BuildingBlock: TATPOV_clean_sbu_0, # of connection points: 4
#     Node 1, Type 0, BuildingBlock: TATPOV_clean_sbu_0, # of connection points: 4
#     Node 2, Type 0, BuildingBlock: TATPOV_clean_sbu_0, # of connection points: 4
#     Node 3, Type 0, BuildingBlock: TATPOV_clean_sbu_0, # of connection points: 4
#     Node 4, Type 0, BuildingBlock: TATPOV_clean_sbu_0, # of connection points: 4
#     Node 5, Type 0, BuildingBlock: TATPOV_clean_sbu_0, # of connection points: 4
#     Node 6, Type 0, BuildingBlock: TATPOV_clean_sbu_0, # of connection points: 4
#     Node 7, Type 0, BuildingBlock: TATPOV_clean_sbu_0, # of connection points: 4
#     Edge 8, Type (0, 0), BuildingBlock: UVAHIK_clean_linker_0, # of connection points: 2
#     Edge 9, Type (0, 0), BuildingBlock: UVAHIK_clean_linker_0, # of connection points: 2
#     Edge 10, Type (0, 0), BuildingBlock: UVAHIK_clean_linker_0, # of connection points: 2
#     Edge 11, Type (0, 0), BuildingBlock: UVAHIK_clean_linker_0, # of connection points: 2
#     Edge 12, Type (0, 0), BuildingBlock: UVAHIK_clean_linker_0, # of connection points: 2
#     Edge 13, Type (0, 0), BuildingBlock: UVAHIK_clean_linker_0, # of connection points: 2
#     Edge 14, Type (0, 0), BuildingBlock: UVAHIK_clean_linker_0, # of connection points: 2
#     Edge 15, Type (0, 0), BuildingBlock: UVAHIK_clean_linker_0, # of connection points: 2
#     Edge 16, Type (0, 0), BuildingBlock: UVAHIK_clean_linker_0, # of connection points: 2
#     Edge 17, Type (0, 0), BuildingBlock: UVAHIK_clean_linker_0, # of connection points: 2
#     Edge 18, Type (0, 0), BuildingBlock: UVAHIK_clean_linker_0, # of connection points: 2
#     Edge 19, Type (0, 0), BuildingBlock: UVAHIK_clean_linker_0, # of connection points: 2
#     Edge 20, Type (0, 0), BuildingBlock: UVAHIK_clean_linker_0, # of connection points: 2
#     Edge 21, Type (0, 0), BuildingBlock: UVAHIK_clean_linker_0, # of connection points: 2
#     Edge 22, Type (0, 0), BuildingBlock: UVAHIK_clean_linker_0, # of connection points: 2
#     Edge 23, Type (0, 0), BuildingBlock: UVAHIK_clean_linker_0, # of connection points: 2
# Relax obj value: 0.066
# Max RMSD: 0.112
# Mean RMSD: 0.112
data_MOF--net-mmt--node1-TATPOV_clean_sbu_0--edge1-UVAHIK_clean_linker_0
_symmetry_space_group_name_H-M    P1
_symmetry_Int_Tables_number       1
_symmetry_cell_setting            triclinic
loop_
_symmetry_equiv_pos_as_xyz
'x, y, z'
_cell_length_a     28.023331
_cell_length_b     51.171354
_cell_length_c     52.326338
_cell_angle_alpha  89.98767
_cell_angle_beta   90.038327
_cell_angle_gamma 89.999219
loop_
_atom_site_label
_atom_site_type_symbol
_atom_site_fract_x
_atom_site_fract_y
_atom_site_fract_z
_atom_type_partial_charge
Zn0 Zn 0.23648 0.52157 0.37042 0.0
Zn1 Zn 0.22857 0.57183 0.36473 0.0
O2 O 0.19213 0.56272 0.39869 0.0
O3 O 0.205 0.52067 0.40423 0.0
O4 O 0.2324 0.61175 0.36455 0.0
O5 O 0.30689 0.51992 0.36784 0.0
O6 O 0.30034 0.56186 0.35963 0.0
C7 C 0.18654 0.54182 0.41177 0.0
C8 C 0.18057 0.53716 0.32586 0.0
O9 O 0.18918 0.56047 0.33328 0.0
O10 O 0.19674 0.51793 0.33844 0.0
C11 C 0.20081 0.62776 0.35673 0.0
O12 O 0.16034 0.61866 0.34768 0.0
C13 C 0.32599 0.54131 0.36154 0.0
Zn14 Zn 0.2607 0.0139 0.36701 0.0
Zn15 Zn 0.26469 0.96278 0.3618 0.0
O16 O 0.30114 0.97089 0.39594 0.0
O17 O 0.29034 1.01314 0.40147 0.0
O18 O 0.25977 0.92294 0.35985 0.0
O19 O 0.19034 0.01623 0.36291 0.0
O20 O 0.19345 0.97369 0.35736 0.0
C21 C 0.30736 0.99165 0.40914 0.0
C22 C 0.31591 0.99695 0.32311 0.0
O23 O 0.30408 0.97403 0.33038 0.0
O24 O 0.30252 0.01675 0.33575 0.0
C25 C 0.29108 0.90666 0.36747 0.0
O26 O 0.33113 0.91548 0.37728 0.0
C27 C 0.16949 0.99492 0.35799 0.0
Zn28 Zn 0.7323 0.51187 0.13032 0.0
Zn29 Zn 0.72732 0.46082 0.13608 0.0
O30 O 0.69206 0.4689 0.10154 0.0
O31 O 0.70359 0.51103 0.09565 0.0
O32 O 0.7311 0.42093 0.13864 0.0
O33 O 0.80256 0.51384 0.13498 0.0
O34 O 0.79859 0.47141 0.14119 0.0
C35 C 0.68645 0.48954 0.08808 0.0
C36 C 0.67556 0.49572 0.17393 0.0
O37 O 0.68721 0.47268 0.16698 0.0
O38 O 0.68964 0.51532 0.1612 0.0
C39 C 0.70361 0.40471 0.12749 0.0
O40 O 0.66852 0.41359 0.11327 0.0
C41 C 0.82289 0.49253 0.14048 0.0
Zn42 Zn 0.75596 0.01933 0.12898 0.0
Zn43 Zn 0.76417 0.0698 0.13374 0.0
O44 O 0.80188 0.05982 0.10043 0.0
O45 O 0.78952 0.01762 0.09575 0.0
O46 O 0.76129 0.10976 0.13298 0.0
O47 O 0.68537 0.0182 0.13039 0.0
O48 O 0.69204 0.06024 0.13811 0.0
C49 C 0.80822 0.03861 0.08794 0.0
C50 C 0.8096 0.0357 0.17404 0.0
O51 O 0.80192 0.05884 0.16588 0.0
O52 O 0.79366 0.01623 0.16173 0.0
C53 C 0.78807 0.12564 0.14505 0.0
O54 O 0.82239 0.11638 0.15957 0.0
C55 C 0.66624 0.03975 0.13613 0.0
Zn56 Zn 0.76159 0.50829 0.63019 0.0
Zn57 Zn 0.76585 0.45729 0.63362 0.0
O58 O 0.80246 0.46717 0.59993 0.0
O59 O 0.79218 0.50965 0.59612 0.0
O60 O 0.76105 0.41738 0.63259 0.0
O61 O 0.69122 0.51052 0.63331 0.0
O62 O 0.6945 0.46796 0.6387 0.0
C63 C 0.80905 0.48847 0.58762 0.0
C64 C 0.81631 0.48966 0.67383 0.0
O65 O 0.80525 0.46698 0.66557 0.0
O66 O 0.80234 0.50986 0.66197 0.0
C67 C 0.79018 0.40124 0.64261 0.0
O68 O 0.82787 0.41021 0.6547 0.0
C69 C 0.67044 0.48916 0.63803 0.0
Zn70 Zn 0.73375 0.01589 0.62746 0.0
Zn71 Zn 0.72714 0.06631 0.63475 0.0
O72 O 0.69157 0.05894 0.60011 0.0
O73 O 0.70322 0.01697 0.59332 0.0
O74 O 0.73072 0.10615 0.63786 0.0
O75 O 0.80412 0.01398 0.63073 0.0
O76 O 0.79867 0.0558 0.63978 0.0
C77 C 0.68573 0.03856 0.5863 0.0
C78 C 0.67739 0.03016 0.672 0.0
O79 O 0.68702 0.05358 0.66535 0.0
O80 O 0.69303 1.01115 0.65893 0.0
C81 C 0.70152 0.12239 0.62805 0.0
O82 O 0.66463 0.11353 0.6152 0.0
C83 C 0.82373 0.03506 0.6376 0.0
Zn84 Zn 0.26288 0.51394 0.86813 0.0
Zn85 Zn 0.26537 0.56493 0.86286 0.0
O86 O 0.30214 0.55712 0.89703 0.0
O87 O 0.29335 0.51469 0.90231 0.0
O88 O 0.25953 0.60474 0.86102 0.0
O89 O 0.19256 0.51095 0.86484 0.0
O90 O 0.19437 0.55337 0.85828 0.0
C91 C 0.3094 0.53635 0.91009 0.0
C92 C 0.31705 0.53127 0.82399 0.0
O93 O 0.30512 0.55409 0.83146 0.0
O94 O 0.30386 0.51135 0.83652 0.0
C95 C 0.29113 0.62108 0.86815 0.0
O96 O 0.3318 0.61233 0.87727 0.0
C97 C 0.17104 0.53195 0.8595 0.0
Zn98 Zn 0.23166 1.00679 0.86863 0.0
Zn99 Zn 0.22607 0.95584 0.86463 0.0
O100 O 0.19123 0.96551 0.89884 0.0
O101 O 0.20363 1.00773 0.90342 0.0
O102 O 0.2307 0.91596 0.86518 0.0
O103 O 0.30179 1.00878 0.86361 0.0
O104 O 0.29716 0.96623 0.85856 0.0
C105 C 0.18614 0.9866 0.91168 0.0
C106 C 0.17371 0.98892 0.82579 0.0
O107 O 0.18526 0.96604 0.83334 0.0
O108 O 0.18837 1.00884 0.83785 0.0
C109 C 0.19891 0.8998 0.85791 0.0
O110 O 0.15808 0.90874 0.84918 0.0
C111 C 0.32173 0.98726 0.85854 0.0
C112 C 0.4039 0.51848 0.35588 0.0
C113 C 0.37576 0.54092 0.35211 0.0
C114 C 0.44534 0.51461 0.34162 0.0
C115 C 0.53107 0.5449 0.2967 0.0
H116 H 0.5245 0.47756 0.26279 0.0
C117 C 0.62716 0.52511 0.20181 0.0
C118 C 0.64608 0.50014 0.197 0.0
C119 C 0.6 0.52985 0.22362 0.0
C120 C 0.52765 0.49623 0.27239 0.0
H121 H 0.37166 0.5781 0.33234 0.0
H122 H 0.44424 0.57132 0.30742 0.0
H123 H 0.46969 0.48737 0.29744 0.0
H124 H 0.65163 0.46059 0.21153 0.0
H125 H 0.60469 0.46897 0.25002 0.0
H126 H 0.58872 0.55388 0.2714 0.0
C127 C 0.4341 0.5567 0.32136 0.0
C128 C 0.49615 0.50187 0.29229 0.0
C129 C 0.3925 0.56059 0.33566 0.0
C130 C 0.63728 0.47999 0.2146 0.0
C131 C 0.61031 0.4848 0.23663 0.0
C132 C 0.56291 0.53917 0.27691 0.0
C133 C 0.45961 0.5331 0.32335 0.0
C134 C 0.49695 0.52641 0.30437 0.0
C135 C 0.5913 0.50982 0.24138 0.0
C136 C 0.56091 0.51496 0.26415 0.0
H137 H 0.39234 0.50309 0.36868 0.0
H138 H 0.46489 0.4965 0.34396 0.0
H139 H 0.53276 0.56388 0.30582 0.0
H140 H 0.63294 0.54107 0.18856 0.0
H141 H 0.58506 0.54918 0.22628 0.0
C142 C 0.85754 0.05149 0.21182 0.0
C143 C 0.83787 0.03087 0.19752 0.0
C144 C 0.88599 0.04623 0.23327 0.0
C145 C 0.96416 0.99515 0.2586 0.0
H146 H 0.95648 0.03332 0.32243 0.0
C147 C 0.09796 0.97341 0.33817 0.0
C148 C 0.11949 0.99569 0.3488 0.0
C149 C 0.0556 0.97566 0.32417 0.0
C150 C 0.9592 0.02253 0.3047 0.0
H151 H 0.83144 0.98859 0.19512 0.0
H152 H 0.88082 0.97965 0.23217 0.0
H153 H 0.8992 0.04254 0.2883 0.0
H154 H 0.11088 0.03737 0.35518 0.0
H155 H 0.03827 0.04134 0.33041 0.0
H156 H 0.02502 0.97589 0.27422 0.0
C157 C 0.87472 0.99981 0.22674 0.0
C158 C 0.92643 0.02787 0.28517 0.0
C159 C 0.84628 1.00501 0.2055 0.0
C160 C 0.09556 0.0198 0.34705 0.0
C161 C 0.05354 0.02208 0.33291 0.0
C162 C -0.00293 0.98999 0.27795 0.0
C163 C 0.89545 0.0203 0.24064 0.0
C164 C 0.92886 0.01435 0.26186 0.0
C165 C 0.03411 1.00025 0.32038 0.0
C166 C 0.99539 1.00377 0.30118 0.0
H167 H 0.85163 0.07161 0.20623 0.0
H168 H 0.90181 0.06242 0.24358 0.0
H169 H 0.96736 0.98466 0.2407 0.0
H170 H 0.11517 0.9545 0.33938 0.0
H171 H 0.04087 0.9583 0.31534 0.0
C172 C 0.89273 0.47136 0.16229 0.0
C173 C 0.87249 0.49328 0.15029 0.0
C174 C 0.93436 0.47393 0.17686 0.0
C175 C 0.0314 0.52068 0.19549 0.0
H176 H 0.01876 0.48617 0.26109 0.0
C177 C 0.13284 0.55219 0.28767 0.0
C178 C 0.15122 0.53187 0.30285 0.0
C179 C 0.10399 0.54653 0.26647 0.0
C180 C 0.02317 0.49573 0.24277 0.0
H181 H 0.88274 0.53451 0.14211 0.0
H182 H 0.95415 0.53906 0.1678 0.0
H183 H 0.9621 0.47653 0.22729 0.0
H184 H 0.15458 0.48965 0.3072 0.0
H185 H 0.10457 0.48001 0.27059 0.0
H186 H 0.09171 0.5406 0.21164 0.0
C187 C 0.93838 0.51983 0.16597 0.0
C188 C 0.99086 0.49005 0.22326 0.0
C189 C 0.89707 0.51723 0.1513 0.0
C190 C 0.14085 0.50586 0.2961 0.0
C191 C 0.11202 0.50026 0.27512 0.0
C192 C 0.0636 0.52652 0.21514 0.0
C193 C 0.9564 0.49848 0.17983 0.0
C194 C 0.99424 0.50259 0.19942 0.0
C195 C 0.09282 0.52049 0.26023 0.0
C196 C 0.05959 0.5142 0.23903 0.0
H197 H 0.87498 0.45256 0.16171 0.0
H198 H 0.94803 0.4569 0.18675 0.0
H199 H 0.0354 0.53051 0.17729 0.0
H200 H 0.14025 0.57241 0.29231 0.0
H201 H 0.08938 0.56253 0.25539 0.0
C202 C 0.599 0.05948 0.16111 0.0
C203 C 0.61609 0.03963 0.14497 0.0
C204 C 0.55696 0.0558 0.17509 0.0
C205 C 0.49411 1.00128 0.2042 0.0
H206 H 0.4018 0.05368 0.22445 0.0
C207 C 0.35326 0.98062 0.28239 0.0
C208 C 0.34489 1.00101 0.29979 0.0
C209 C 0.37993 0.98509 0.26019 0.0
C210 C 0.42751 0.03886 0.21911 0.0
H211 H 0.59967 1.00173 0.12855 0.0
H212 H 0.52635 0.9955 0.15272 0.0
H213 H 0.45804 0.06325 0.19005 0.0
H214 H 0.35841 0.04203 0.30761 0.0
H215 H 0.40573 0.04955 0.2696 0.0
H216 H 0.46544 0.97732 0.23389 0.0
C217 C 0.54596 0.01358 0.15506 0.0
C218 C 0.45952 0.04434 0.19933 0.0
C219 C 0.58785 0.01725 0.14113 0.0
C220 C 0.36386 0.02588 0.29456 0.0
C221 C 0.3907 0.03029 0.27256 0.0
C222 C 0.46245 0.99589 0.2241 0.0
C223 C 0.53135 0.03224 0.17309 0.0
C224 C 0.4936 0.02573 0.19192 0.0
C225 C 0.39904 1.01001 0.25503 0.0
C226 C 0.42931 0.01478 0.23214 0.0
H227 H 0.6199 0.07695 0.16449 0.0
H228 H 0.54657 0.07054 0.18885 0.0
H229 H 0.52052 0.98668 0.19925 0.0
H230 H 0.33887 0.96128 0.28579 0.0
H231 H 0.38528 0.96907 0.24698 0.0
C232 C 0.36416 0.50251 0.79485 0.0
C233 C 0.3461 0.52746 0.80065 0.0
C234 C 0.39143 0.49842 0.77295 0.0
C235 C 0.46646 0.53333 0.72638 0.0
H236 H 0.46023 0.46728 0.69009 0.0
C237 C 0.59368 0.51307 0.64389 0.0
C238 C 0.62036 0.48999 0.64694 0.0
C239 C 0.55175 0.51693 0.65772 0.0
C240 C 0.46226 0.48582 0.70001 0.0
H241 H 0.34207 0.56764 0.7877 0.0
H242 H 0.3893 0.56042 0.74907 0.0
H243 H 0.40313 0.47646 0.72418 0.0
H244 H 0.62148 0.45184 0.66497 0.0
H245 H 0.54809 0.45862 0.6892 0.0
H246 H 0.52596 0.54254 0.70253 0.0
C247 C 0.38286 0.54408 0.76177 0.0
C248 C 0.42973 0.49107 0.71961 0.0
C249 C 0.35571 0.54823 0.78387 0.0
C250 C 0.60177 0.46984 0.66221 0.0
C251 C 0.5597 0.47373 0.67611 0.0
C252 C 0.49868 0.52816 0.70669 0.0
C253 C 0.40115 0.51911 0.75609 0.0
C254 C 0.43212 0.51467 0.73341 0.0
C255 C 0.53554 0.49781 0.67488 0.0
C256 C 0.49751 0.50417 0.6936 0.0
H257 H 0.35771 0.48606 0.80742 0.0
H258 H 0.40576 0.47908 0.76957 0.0
H259 H 0.4699 0.55151 0.73681 0.0
H260 H 0.6067 0.52885 0.63198 0.0
H261 H 0.53329 0.53545 0.65596 0.0
C262 C 0.89082 0.0536 0.66366 0.0
C263 C 0.87332 0.03401 0.64733 0.0
C264 C 0.93217 0.0493 0.67809 0.0
C265 C 0.99248 0.99415 0.70781 0.0
H266 H 0.08724 0.04543 0.72759 0.0
C267 C 0.13404 0.97239 0.78571 0.0
C268 C 0.14367 0.99288 0.80281 0.0
C269 C 0.10678 0.97691 0.76368 0.0
C270 C 0.06083 0.03093 0.72239 0.0
H271 H 0.88833 0.99578 0.63122 0.0
H272 H 0.96038 0.98847 0.65622 0.0
H273 H 0.03124 0.05551 0.6932 0.0
H274 H 0.13149 0.03407 0.81041 0.0
H275 H 0.08324 0.04168 0.77275 0.0
H276 H 0.02036 0.97 0.73761 0.0
C277 C 0.94161 1.00685 0.65832 0.0
C278 C 0.02894 0.0367 0.70262 0.0
C279 C 0.90045 1.01114 0.64391 0.0
C280 C 0.12514 0.01785 0.79756 0.0
C281 C 0.09776 0.0223 0.77576 0.0
C282 C 0.02404 0.98847 0.72771 0.0
C283 C 0.95668 0.02537 0.67638 0.0
C284 C 0.994 0.01851 0.69536 0.0
C285 C 0.08839 1.00198 0.75843 0.0
C286 C 0.05806 1.00696 0.73558 0.0
H287 H 0.87079 0.07143 0.66674 0.0
H288 H 0.94294 0.06395 0.69188 0.0
H289 H 0.96543 0.97987 0.70294 0.0
H290 H 0.14801 0.95297 0.78916 0.0
H291 H 0.10054 0.96084 0.75065 0.0
C292 C 0.09564 0.50681 0.85319 0.0
C293 C 0.121 0.53039 0.85054 0.0
C294 C 0.05374 0.50254 0.8394 0.0
C295 C 0.96148 0.53317 0.79853 0.0
H296 H 0.97166 0.46873 0.75984 0.0
C297 C 0.86228 0.51803 0.70383 0.0
C298 C 0.84544 0.49303 0.69724 0.0
C299 C 0.88972 0.52176 0.72574 0.0
C300 C 0.96751 0.48653 0.77081 0.0
H301 H 0.11974 0.5689 0.83324 0.0
H302 H 0.04635 0.56142 0.80915 0.0
H303 H 0.02817 0.47764 0.794 0.0
H304 H 0.8438 0.45235 0.70877 0.0
H305 H 0.89136 0.45894 0.74746 0.0
H306 H 0.90116 0.54224 0.77508 0.0
C307 C 0.05903 0.54623 0.82187 0.0
C308 C 0.0 0.49167 0.79041 0.0
C309 C 0.10111 0.55052 0.83568 0.0
C310 C 0.85645 0.47182 0.71324 0.0
C311 C 0.88379 0.47561 0.73537 0.0
C312 C 0.92868 0.52794 0.77904 0.0
C313 C 0.03617 0.52176 0.82273 0.0
C314 C -0.00207 0.51526 0.80415 0.0
C315 C 0.90084 0.50066 0.74184 0.0
C316 C 0.932 0.50482 0.76453 0.0
H317 H 0.10964 0.49101 0.86475 0.0
H318 H 0.03631 0.4837 0.84085 0.0
H319 H 0.95873 0.55138 0.80898 0.0
H320 H 0.85478 0.53482 0.69188 0.0
H321 H 0.9031 0.5412 0.72972 0.0
C322 C 0.39044 0.96536 0.83648 0.0
C323 C 0.37111 0.98753 0.84846 0.0
C324 C 0.43186 0.96747 0.8217 0.0
C325 C 0.53033 1.013 0.8027 0.0
H326 H 0.5146 0.97928 0.73689 0.0
C327 C 0.63084 0.04472 0.71066 0.0
C328 C 0.64781 0.02458 0.69482 0.0
C329 C 0.60223 0.03892 0.73187 0.0
C330 C 0.51992 0.98858 0.75527 0.0
H331 H 0.38276 0.0287 0.85639 0.0
H332 H 0.45395 0.03243 0.83041 0.0
H333 H 0.45844 0.97001 0.77101 0.0
H334 H 0.64871 0.98249 0.68922 0.0
H335 H 0.59911 0.97256 0.72593 0.0
H336 H 0.59108 0.03228 0.78636 0.0
C337 C 0.43756 0.01337 0.83239 0.0
C338 C 0.48786 0.98313 0.77494 0.0
C339 C 0.3964 1.01125 0.84722 0.0
C340 C 0.6361 0.99856 0.70086 0.0
C341 C 0.60749 0.99281 0.72189 0.0
C342 C 0.56231 0.01859 0.78291 0.0
C343 C 0.45466 0.99179 0.81857 0.0
C344 C 0.4923 0.99545 0.79884 0.0
C345 C 0.58987 1.01289 0.73751 0.0
C346 C 0.55716 1.00658 0.75892 0.0
H347 H 0.37209 0.94675 0.83721 0.0
H348 H 0.44479 0.95029 0.8118 0.0
H349 H 0.53512 0.02263 0.82095 0.0
H350 H 0.63931 0.06495 0.70658 0.0
H351 H 0.58881 0.05482 0.74348 0.0
C352 C 0.15623 0.51948 0.45079 0.0
C353 C 0.15343 0.54068 0.43376 0.0
C354 C 0.1194 0.51446 0.46801 0.0
C355 C 0.0107 0.54167 0.49797 0.0
H356 H 0.97222 0.46883 0.50058 0.0
C357 C 0.83839 0.51137 0.54871 0.0
C358 C 0.8414 0.48986 0.56535 0.0
C359 C 0.87468 0.51649 0.53119 0.0
C360 C 0.98273 0.4892 0.50026 0.0
H361 H 0.11123 0.57428 0.42261 0.0
H362 H 0.04652 0.56551 0.45281 0.0
H363 H 0.04104 0.48158 0.47499 0.0
H364 H 0.88338 0.45588 0.57554 0.0
H365 H 0.94725 0.46487 0.54493 0.0
H366 H 0.95252 0.54928 0.52331 0.0
C367 C 0.0774 0.55278 0.45284 0.0
C368 C 0.02227 0.49653 0.48564 0.0
C369 C 0.11453 0.55789 0.4356 0.0
C370 C 0.87992 0.47249 0.56285 0.0
C371 C 0.91658 0.47773 0.54536 0.0
C372 C 0.97119 0.53433 0.51262 0.0
C373 C 0.0787 0.53045 0.46857 0.0
C374 C 0.03683 0.52284 0.48438 0.0
C375 C 0.91512 0.50033 0.52998 0.0
C376 C 0.95667 0.508 0.51392 0.0
H377 H 0.18602 0.506 0.45003 0.0
H378 H 0.12216 0.49753 0.48036 0.0
H379 H 0.02124 0.56203 0.49763 0.0
H380 H 0.80886 0.52498 0.55001 0.0
H381 H 0.87173 0.53362 0.51913 0.0
C382 C 0.37846 0.97478 0.43322 0.0
C383 C 0.33985 0.99219 0.43143 0.0
C384 C 0.41538 0.97943 0.45074 0.0
C385 C 0.47037 0.03491 0.48515 0.0
H386 H 0.541 0.98093 0.5207 0.0
C387 C 0.61427 0.05578 0.56273 0.0
C388 C 0.65308 0.03846 0.56406 0.0
C389 C 0.57718 0.05135 0.54525 0.0
C390 C 0.52203 0.99623 0.51063 0.0
H391 H 0.30746 0.02671 0.44807 0.0
H392 H 0.37079 0.03431 0.47898 0.0
H393 H 0.47188 0.96902 0.49492 0.0
H394 H 0.68568 1.00441 0.54663 0.0
H395 H 0.62195 0.99715 0.51587 0.0
H396 H 0.52051 0.06212 0.50091 0.0
C397 C 0.3736 0.01761 0.46635 0.0
C398 C 0.4823 0.98937 0.49591 0.0
C399 C 0.33703 1.01308 0.4488 0.0
C400 C 0.65596 0.01794 0.54626 0.0
C401 C 0.61919 0.01361 0.5288 0.0
C402 C 0.51007 0.04177 0.4999 0.0
C403 C 0.41412 1.00147 0.46686 0.0
C404 C 0.45593 1.00862 0.483 0.0
C405 C 0.57847 0.0296 0.52876 0.0
C406 C 0.53649 0.02251 0.51275 0.0
H407 H 0.38179 0.95863 0.41995 0.0
H408 H 0.44609 0.96659 0.45061 0.0
H409 H 0.45147 0.05021 0.47504 0.0
H410 H 0.61091 0.07165 0.57631 0.0
H411 H 0.54631 0.06407 0.5457 0.0
C412 C 0.61589 0.47248 0.06367 0.0
C413 C 0.65431 0.49 0.06564 0.0
C414 C 0.57917 0.47706 0.04601 0.0
C415 C 0.52386 0.53249 0.01178 0.0
H416 H 0.4546 0.47854 0.97545 0.0
C417 C 0.38017 0.55366 0.93416 0.0
C418 C 0.34184 0.53606 0.9324 0.0
C419 C 0.41719 0.54918 0.95167 0.0
C420 C 0.47316 0.49384 0.98575 0.0
H421 H 0.68661 0.52464 0.04915 0.0
H422 H 0.62355 0.53215 0.01805 0.0
H423 H 0.52357 0.46671 0.00139 0.0
H424 H 0.30997 0.50142 0.94908 0.0
H425 H 0.37349 0.49408 0.97995 0.0
H426 H 0.47341 0.55962 0.99614 0.0
C427 C 0.62077 0.51541 0.03063 0.0
C428 C 0.51282 0.48702 0.00055 0.0
C429 C 0.65718 0.51093 0.04829 0.0
C430 C 0.33933 0.51517 0.9498 0.0
C431 C 0.376 0.5108 0.96732 0.0
C432 C 0.48419 0.53931 0.99697 0.0
C433 C 0.58041 0.49916 0.02995 0.0
C434 C 0.53871 0.50627 0.01373 0.0
C435 C 0.4163 0.52711 0.96778 0.0
C436 C 0.45825 0.52006 0.98384 0.0
H437 H 0.61253 0.4563 0.07689 0.0
H438 H 0.54857 0.46414 0.04599 0.0
H439 H 0.5424 0.54778 0.02209 0.0
H440 H 0.38323 0.56981 0.92088 0.0
H441 H 0.44773 0.56214 0.95154 0.0
C442 C 0.15725 1.00951 0.95073 0.0
C443 C 0.15436 0.98789 0.93422 0.0
C444 C 0.1213 0.01442 0.96851 0.0
C445 C 0.015 0.9864 0.00052 0.0
H446 H 0.97359 0.05878 0.00234 0.0
C447 C 0.84051 0.01534 0.04989 0.0
C448 C 0.84212 0.03707 0.06632 0.0
C449 C 0.87772 1.01036 0.0329 0.0
C450 C 0.98496 0.03855 0.00225 0.0
H451 H 0.11303 0.95349 0.92459 0.0
H452 H 0.04985 0.9621 0.95568 0.0
H453 H 0.0424 0.04651 0.97652 0.0
H454 H 0.88272 0.0715 0.07669 0.0
H455 H 0.94813 0.06278 0.04691 0.0
H456 H 0.95745 0.97843 0.02618 0.0
C457 C 0.08013 0.97522 0.95492 0.0
C458 C 0.02452 0.03149 0.98751 0.0
C459 C 0.1164 0.97021 0.93715 0.0
C460 C 0.88033 0.0547 0.06416 0.0
C461 C 0.91786 0.04963 0.04716 0.0
C462 C 0.97544 0.99346 0.01525 0.0
C463 C 0.08138 0.99791 0.97015 0.0
C464 C 0.04002 1.00533 0.98645 0.0
C465 C 0.91766 0.0269 0.03197 0.0
C466 C 0.9598 0.0196 0.01621 0.0
H467 H 0.18635 0.02336 0.94913 0.0
H468 H 0.12405 0.03165 0.98044 0.0
H469 H 0.02629 0.96616 0.00038 0.0
H470 H 0.81128 1.00152 0.0509 0.0
H471 H 0.87578 0.9931 0.02096 0.0
C472 C 0.17528 0.67433 0.34909 0.0
C473 C 0.20983 0.65644 0.35775 0.0
C474 C 0.1839 0.70131 0.34998 0.0
C475 C 0.26047 0.75117 0.38152 0.0
H476 H 0.21932 0.79536 0.3255 0.0
C477 C 0.31634 0.85996 0.37434 0.0
C478 C 0.28201 0.87802 0.36579 0.0
C479 C 0.30755 0.83303 0.37316 0.0
C480 C 0.2306 0.78339 0.34146 0.0
H481 H 0.28075 0.6531 0.37407 0.0
H482 H 0.29588 0.69998 0.37541 0.0
H483 H 0.20384 0.74849 0.32393 0.0
H484 H 0.21137 0.8817 0.34919 0.0
H485 H 0.19589 0.83484 0.34736 0.0
H486 H 0.28718 0.78604 0.39907 0.0
C487 C 0.2618 0.69322 0.36823 0.0
C488 C 0.22169 0.75644 0.34056 0.0
C489 C 0.25321 0.66626 0.36732 0.0
C490 C 0.23873 0.8684 0.35589 0.0
C491 C 0.22994 0.84146 0.3547 0.0
C492 C 0.26936 0.7781 0.38242 0.0
C493 C 0.22729 0.71115 0.35958 0.0
C494 C 0.23654 0.73993 0.36057 0.0
C495 C 0.26417 0.82337 0.36339 0.0
C496 C 0.25461 0.79461 0.3624 0.0
H497 H 0.14142 0.66753 0.34165 0.0
H498 H 0.15622 0.71448 0.34345 0.0
H499 H 0.27175 0.73921 0.39749 0.0
H500 H 0.35014 0.86661 0.382 0.0
H501 H 0.33507 0.81975 0.37968 0.0
C502 C 0.74248 0.16439 0.12813 0.0
C503 C 0.78 0.15435 0.14308 0.0
C504 C 0.73449 0.19137 0.12653 0.0
C505 C 0.7603 0.254 0.15989 0.0
H506 H 0.72286 0.28486 0.09526 0.0
C507 C 0.74974 0.36629 0.1448 0.0
C508 C 0.71188 0.37605 0.12992 0.0
C509 C 0.75801 0.33933 0.14663 0.0
C510 C 0.73274 0.27656 0.11355 0.0
H511 H 0.83871 0.16508 0.16798 0.0
H512 H 0.82514 0.21206 0.16499 0.0
H513 H 0.7376 0.23801 0.09784 0.0
H514 H 0.65277 0.36488 0.10547 0.0
H515 H 0.6669 0.318 0.10883 0.0
H516 H 0.75549 0.29259 0.17557 0.0
C517 C 0.8014 0.19905 0.15474 0.0
C518 C 0.74122 0.24962 0.11504 0.0
C519 C 0.8094 0.17205 0.15634 0.0
C520 C 0.68235 0.35813 0.11705 0.0
C521 C 0.69066 0.33119 0.11884 0.0
C522 C 0.75185 0.28096 0.1584 0.0
C523 C 0.76379 0.20911 0.13985 0.0
C524 C 0.75506 0.23792 0.13824 0.0
C525 C 0.7287 0.32139 0.13358 0.0
C526 C 0.73788 0.29263 0.13521 0.0
H527 H 0.71897 0.15138 0.11772 0.0
H528 H 0.70479 0.1983 0.11515 0.0
H529 H 0.77015 0.24569 0.17818 0.0
H530 H 0.77331 0.37948 0.15494 0.0
H531 H 0.78796 0.33257 0.15792 0.0
C532 C 0.75022 0.16077 0.64328 0.0
C533 C 0.70991 0.15105 0.63035 0.0
C534 C 0.75867 0.18773 0.64484 0.0
C535 C 0.72706 0.25072 0.61367 0.0
H536 H 0.77724 0.28109 0.676 0.0
C537 C 0.74064 0.36281 0.62836 0.0
C538 C 0.78124 0.37259 0.64099 0.0
C539 C 0.73201 0.33586 0.62709 0.0
C540 C 0.76375 0.27292 0.65832 0.0
H541 H 0.64659 0.16229 0.60917 0.0
H542 H 0.661 0.20917 0.61214 0.0
H543 H 0.76189 0.23424 0.67396 0.0
H544 H 0.84471 0.36144 0.66209 0.0
H545 H 0.82991 0.31455 0.65967 0.0
H546 H 0.72892 0.28939 0.59803 0.0
C547 C 0.68654 0.19596 0.62076 0.0
C548 C 0.75492 0.24599 0.65716 0.0
C549 C 0.67809 0.16902 0.61921 0.0
C550 C 0.81301 0.35467 0.65226 0.0
C551 C 0.80435 0.32773 0.65101 0.0
C552 C 0.73588 0.27765 0.61484 0.0
C553 C 0.72705 0.20572 0.63351 0.0
C554 C 0.73642 0.23449 0.63481 0.0
C555 C 0.76369 0.31792 0.63844 0.0
C556 C 0.75435 0.28915 0.63718 0.0
H557 H 0.7756 0.14755 0.65203 0.0
H558 H 0.79053 0.19444 0.65455 0.0
H559 H 0.71361 0.24256 0.59598 0.0
H560 H 0.71528 0.37599 0.61953 0.0
H561 H 0.70002 0.32912 0.61753 0.0
C562 C 0.23798 0.65926 0.85736 0.0
C563 C 0.28179 0.6497 0.86662 0.0
C564 C 0.22901 0.68619 0.85628 0.0
C565 C 0.26952 0.74964 0.88332 0.0
H566 H 0.20114 0.77905 0.82566 0.0
C567 C 0.25197 0.86146 0.86813 0.0
C568 C 0.20813 0.87115 0.85905 0.0
C569 C 0.26077 0.83452 0.86906 0.0
C570 C 0.2198 0.77115 0.84207 0.0
H571 H 0.35066 0.66122 0.88184 0.0
H572 H 0.33526 0.70806 0.87971 0.0
H573 H 0.21689 0.73221 0.82712 0.0
H574 H 0.13909 0.85985 0.8439 0.0
H575 H 0.15425 0.81295 0.84573 0.0
H576 H 0.27245 0.78857 0.89826 0.0
C577 C 0.30748 0.69473 0.8736 0.0
C578 C 0.22886 0.74423 0.8429 0.0
C579 C 0.31646 0.66781 0.87467 0.0
C580 C 0.17331 0.85315 0.85094 0.0
C581 C 0.18214 0.8262 0.85185 0.0
C582 C 0.26047 0.77655 0.88248 0.0
C583 C 0.26359 0.70432 0.86445 0.0
C584 C 0.25388 0.73307 0.86353 0.0
C585 C 0.22601 0.81648 0.86091 0.0
C586 C 0.2355 0.78772 0.86183 0.0
H587 H 0.21036 0.64592 0.85106 0.0
H588 H 0.19458 0.69276 0.84942 0.0
H589 H 0.28816 0.74175 0.89973 0.0
H590 H 0.27972 0.8747 0.87446 0.0
H591 H 0.29521 0.82784 0.87583 0.0
loop_
_geom_bond_atom_site_label_1
_geom_bond_atom_site_label_2
_geom_bond_distance
_geom_bond_site_symmetry_2
_ccdc_geom_bond_type
Zn0 O3 2.031 . S
Zn0 O5 2.049 . S
Zn0 O10 2.067 . S
Zn1 O2 1.962 . S
Zn1 O4 1.986 . S
Zn1 O6 1.996 . S
Zn1 O9 1.943 . S
O2 Zn1 1.962 . S
O2 C7 1.254 . S
O3 Zn0 2.031 . S
O3 C7 1.269 . S
O4 Zn1 1.986 . S
O4 C11 1.262 . S
O5 Zn0 2.049 . S
O5 C13 1.260 . S
O6 Zn1 1.996 . S
O6 C13 1.257 . S
C7 O2 1.254 . S
C7 O3 1.269 . S
C8 O9 1.249 . S
C8 O10 1.270 . S
O9 Zn1 1.943 . S
O9 C8 1.249 . S
O10 Zn0 2.067 . S
O10 C8 1.270 . S
C11 O4 1.262 . S
C11 O12 1.232 . S
O12 C11 1.232 . S
C13 O5 1.260 . S
C13 O6 1.257 . S
Zn14 O17 2.031 . S
Zn14 O19 2.049 . S
Zn14 O24 2.067 . S
Zn15 O16 1.962 . S
Zn15 O18 1.986 . S
Zn15 O20 1.996 . S
Zn15 O23 1.943 . S
O16 Zn15 1.962 . S
O16 C21 1.254 . S
O17 Zn14 2.031 . S
O17 C21 1.269 . S
O18 Zn15 1.986 . S
O18 C25 1.262 . S
O19 Zn14 2.049 . S
O19 C27 1.260 . S
O20 Zn15 1.996 . S
O20 C27 1.257 . S
C21 O16 1.254 . S
C21 O17 1.269 . S
C22 O23 1.249 . S
C22 O24 1.270 . S
O23 Zn15 1.943 . S
O23 C22 1.249 . S
O24 Zn14 2.067 . S
O24 C22 1.270 . S
C25 O18 1.262 . S
C25 O26 1.232 . S
O26 C25 1.232 . S
C27 O19 1.260 . S
C27 O20 1.257 . S
Zn28 O31 2.031 . S
Zn28 O33 2.049 . S
Zn28 O38 2.067 . S
Zn29 O30 1.962 . S
Zn29 O32 1.986 . S
Zn29 O34 1.996 . S
Zn29 O37 1.943 . S
O30 Zn29 1.962 . S
O30 C35 1.254 . S
O31 Zn28 2.031 . S
O31 C35 1.269 . S
O32 Zn29 1.986 . S
O32 C39 1.262 . S
O33 Zn28 2.049 . S
O33 C41 1.260 . S
O34 Zn29 1.996 . S
O34 C41 1.257 . S
C35 O30 1.254 . S
C35 O31 1.269 . S
C36 O37 1.249 . S
C36 O38 1.270 . S
O37 Zn29 1.943 . S
O37 C36 1.249 . S
O38 Zn28 2.067 . S
O38 C36 1.270 . S
C39 O32 1.262 . S
C39 O40 1.232 . S
O40 C39 1.232 . S
C41 O33 1.260 . S
C41 O34 1.257 . S
Zn42 O45 2.031 . S
Zn42 O47 2.049 . S
Zn42 O52 2.067 . S
Zn43 O44 1.962 . S
Zn43 O46 1.986 . S
Zn43 O48 1.996 . S
Zn43 O51 1.943 . S
O44 Zn43 1.962 . S
O44 C49 1.254 . S
O45 Zn42 2.031 . S
O45 C49 1.269 . S
O46 Zn43 1.986 . S
O46 C53 1.262 . S
O47 Zn42 2.049 . S
O47 C55 1.260 . S
O48 Zn43 1.996 . S
O48 C55 1.257 . S
C49 O44 1.254 . S
C49 O45 1.269 . S
C50 O51 1.249 . S
C50 O52 1.270 . S
O51 Zn43 1.943 . S
O51 C50 1.249 . S
O52 Zn42 2.067 . S
O52 C50 1.270 . S
C53 O46 1.262 . S
C53 O54 1.232 . S
O54 C53 1.232 . S
C55 O47 1.260 . S
C55 O48 1.257 . S
Zn56 O59 2.031 . S
Zn56 O61 2.049 . S
Zn56 O66 2.067 . S
Zn57 O58 1.962 . S
Zn57 O60 1.986 . S
Zn57 O62 1.996 . S
Zn57 O65 1.943 . S
O58 Zn57 1.962 . S
O58 C63 1.254 . S
O59 Zn56 2.031 . S
O59 C63 1.269 . S
O60 Zn57 1.986 . S
O60 C67 1.262 . S
O61 Zn56 2.049 . S
O61 C69 1.260 . S
O62 Zn57 1.996 . S
O62 C69 1.257 . S
C63 O58 1.254 . S
C63 O59 1.269 . S
C64 O65 1.249 . S
C64 O66 1.270 . S
O65 Zn57 1.943 . S
O65 C64 1.249 . S
O66 Zn56 2.067 . S
O66 C64 1.270 . S
C67 O60 1.262 . S
C67 O68 1.232 . S
O68 C67 1.232 . S
C69 O61 1.260 . S
C69 O62 1.257 . S
Zn70 O73 2.031 . S
Zn70 O75 2.049 . S
Zn70 O80 2.067 . S
Zn71 O72 1.962 . S
Zn71 O74 1.986 . S
Zn71 O76 1.996 . S
Zn71 O79 1.943 . S
O72 Zn71 1.962 . S
O72 C77 1.254 . S
O73 Zn70 2.031 . S
O73 C77 1.269 . S
O74 Zn71 1.986 . S
O74 C81 1.262 . S
O75 Zn70 2.049 . S
O75 C83 1.260 . S
O76 Zn71 1.996 . S
O76 C83 1.257 . S
C77 O72 1.254 . S
C77 O73 1.269 . S
C78 O79 1.249 . S
C78 O80 1.270 . S
O79 Zn71 1.943 . S
O79 C78 1.249 . S
O80 Zn70 2.067 . S
O80 C78 1.270 . S
C81 O74 1.262 . S
C81 O82 1.232 . S
O82 C81 1.232 . S
C83 O75 1.260 . S
C83 O76 1.257 . S
Zn84 O87 2.031 . S
Zn84 O89 2.049 . S
Zn84 O94 2.067 . S
Zn85 O86 1.962 . S
Zn85 O88 1.986 . S
Zn85 O90 1.996 . S
Zn85 O93 1.943 . S
O86 Zn85 1.962 . S
O86 C91 1.254 . S
O87 Zn84 2.031 . S
O87 C91 1.269 . S
O88 Zn85 1.986 . S
O88 C95 1.262 . S
O89 Zn84 2.049 . S
O89 C97 1.260 . S
O90 Zn85 1.996 . S
O90 C97 1.257 . S
C91 O86 1.254 . S
C91 O87 1.269 . S
C92 O93 1.249 . S
C92 O94 1.270 . S
O93 Zn85 1.943 . S
O93 C92 1.249 . S
O94 Zn84 2.067 . S
O94 C92 1.270 . S
C95 O88 1.262 . S
C95 O96 1.232 . S
O96 C95 1.232 . S
C97 O89 1.260 . S
C97 O90 1.257 . S
Zn98 O101 2.031 . S
Zn98 O103 2.049 . S
Zn98 O108 2.067 . S
Zn99 O100 1.962 . S
Zn99 O102 1.986 . S
Zn99 O104 1.996 . S
Zn99 O107 1.943 . S
O100 Zn99 1.962 . S
O100 C105 1.254 . S
O101 Zn98 2.031 . S
O101 C105 1.269 . S
O102 Zn99 1.986 . S
O102 C109 1.262 . S
O103 Zn98 2.049 . S
O103 C111 1.260 . S
O104 Zn99 1.996 . S
O104 C111 1.257 . S
C105 O100 1.254 . S
C105 O101 1.269 . S
C106 O107 1.249 . S
C106 O108 1.270 . S
O107 Zn99 1.943 . S
O107 C106 1.249 . S
O108 Zn98 2.067 . S
O108 C106 1.270 . S
C109 O102 1.262 . S
C109 O110 1.232 . S
O110 C109 1.232 . S
C111 O103 1.260 . S
C111 O104 1.257 . S
C112 C113 1.349 . S
C112 C114 1.327 . S
C112 H137 0.950 . S
C113 C112 1.349 . S
C113 C129 1.349 . S
C114 C112 1.327 . S
C114 C133 1.429 . S
C114 H138 0.950 . S
C115 C132 1.574 . S
C115 C134 1.368 . S
C115 H139 0.949 . S
H116 C120 0.949 . S
C117 C118 1.349 . S
C117 C119 1.327 . S
C117 H140 0.950 . S
C118 C117 1.349 . S
C118 C130 1.349 . S
C119 C117 1.327 . S
C119 C135 1.429 . S
C119 H141 0.950 . S
C120 H116 0.949 . S
C120 C128 1.574 . S
C120 C136 1.368 . S
H121 C129 0.950 . S
H122 C127 0.950 . S
H123 C128 0.949 . S
H124 C130 0.950 . S
H125 C131 0.950 . S
H126 C132 0.949 . S
C127 H122 0.950 . S
C127 C129 1.327 . S
C127 C133 1.429 . S
C128 C120 1.574 . S
C128 H123 0.949 . S
C128 C134 1.368 . S
C129 C113 1.349 . S
C129 H121 0.950 . S
C129 C127 1.327 . S
C130 C118 1.349 . S
C130 H124 0.950 . S
C130 C131 1.327 . S
C131 H125 0.950 . S
C131 C130 1.327 . S
C131 C135 1.429 . S
C132 C115 1.574 . S
C132 H126 0.949 . S
C132 C136 1.368 . S
C133 C114 1.429 . S
C133 C127 1.429 . S
C133 C134 1.523 . S
C134 C115 1.368 . S
C134 C128 1.368 . S
C134 C133 1.523 . S
C135 C119 1.429 . S
C135 C131 1.429 . S
C135 C136 1.523 . S
C136 C120 1.368 . S
C136 C132 1.368 . S
C136 C135 1.523 . S
H137 C112 0.950 . S
H138 C114 0.950 . S
H139 C115 0.949 . S
H140 C117 0.950 . S
H141 C119 0.950 . S
C142 C143 1.349 . S
C142 C144 1.327 1_655 S
C142 H167 0.950 . S
C143 C142 1.349 . S
C143 C159 1.349 . S
C144 C142 1.327 1_455 S
C144 C163 1.429 . S
C144 H168 0.950 . S
C145 C162 1.574 . S
C145 C164 1.368 1_565 S
C145 H169 0.949 . S
H146 C150 0.949 . S
C147 C148 1.349 . S
C147 C149 1.327 . S
C147 H170 0.950 . S
C148 C147 1.349 . S
C148 C160 1.349 . S
C149 C147 1.327 . S
C149 C165 1.429 . S
C149 H171 0.950 . S
C150 H146 0.949 . S
C150 C158 1.574 . S
C150 C166 1.368 1_545 S
H151 C159 0.950 . S
H152 C157 0.989 . S
H153 C158 0.949 . S
H154 C160 0.950 . S
H155 C161 0.950 1_545 S
H156 C162 0.949 . S
C157 H152 0.989 . S
C157 C159 1.327 . S
C157 C163 1.429 1_655 S
C158 C150 1.574 . S
C158 H153 0.949 . S
C158 C164 1.368 . S
C159 C143 1.349 . S
C159 H151 0.950 . S
C159 C157 1.327 . S
C160 C148 1.349 . S
C160 H154 0.950 . S
C160 C161 1.327 . S
C161 H155 0.950 1_565 S
C161 C160 1.327 . S
C161 C165 1.429 . S
C162 C145 1.574 . S
C162 H156 0.949 . S
C162 C166 1.368 . S
C163 C144 1.429 . S
C163 C157 1.429 1_455 S
C163 C164 1.523 . S
C164 C145 1.368 1_545 S
C164 C158 1.368 . S
C164 C163 1.523 . S
C165 C149 1.429 . S
C165 C161 1.429 . S
C165 C166 1.523 . S
C166 C150 1.368 1_565 S
C166 C162 1.368 . S
C166 C165 1.523 . S
H167 C142 0.950 . S
H168 C144 0.950 . S
H169 C145 0.949 . S
H170 C147 0.950 . S
H171 C149 0.950 . S
C172 C173 1.349 . S
C172 C174 1.327 . S
C172 H197 0.950 . S
C173 C172 1.349 . S
C173 C189 1.349 . S
C174 C172 1.327 . S
C174 C193 1.429 . S
C174 H198 0.950 . S
C175 C192 1.574 . S
C175 C194 1.368 . S
C175 H199 0.949 . S
H176 C180 0.949 . S
C177 C178 1.349 . S
C177 C179 1.327 1_455 S
C177 H200 0.950 . S
C178 C177 1.349 . S
C178 C190 1.349 . S
C179 C177 1.327 1_655 S
C179 C195 1.429 . S
C179 H201 0.950 . S
C180 H176 0.949 . S
C180 C188 1.574 . S
C180 C196 1.368 . S
H181 C189 0.950 . S
H182 C187 0.950 . S
H183 C188 0.949 . S
H184 C190 0.950 . S
H185 C191 0.950 . S
H186 C192 0.949 . S
C187 H182 0.950 . S
C187 C189 1.327 . S
C187 C193 1.429 . S
C188 C180 1.574 . S
C188 H183 0.949 . S
C188 C194 1.368 . S
C189 C173 1.349 . S
C189 H181 0.950 . S
C189 C187 1.327 . S
C190 C178 1.349 . S
C190 H184 0.950 . S
C190 C191 1.327 . S
C191 H185 0.950 . S
C191 C190 1.327 . S
C191 C195 1.429 1_455 S
C192 C175 1.574 . S
C192 H186 0.949 . S
C192 C196 1.368 . S
C193 C174 1.429 . S
C193 C187 1.429 . S
C193 C194 1.523 . S
C194 C175 1.368 . S
C194 C188 1.368 . S
C194 C193 1.523 . S
C195 C179 1.429 . S
C195 C191 1.429 1_655 S
C195 C196 1.523 . S
C196 C180 1.368 . S
C196 C192 1.368 . S
C196 C195 1.523 . S
H197 C172 0.950 . S
H198 C174 0.950 . S
H199 C175 0.949 . S
H200 C177 0.950 . S
H201 C179 0.950 . S
C202 C203 1.349 . S
C202 C204 1.327 . S
C202 H227 0.950 . S
C203 C202 1.349 . S
C203 C219 1.349 . S
C204 C202 1.327 . S
C204 C223 1.429 . S
C204 H228 0.950 . S
C205 C222 1.574 . S
C205 C224 1.368 1_565 S
C205 H229 0.949 . S
H206 C210 0.949 . S
C207 C208 1.349 . S
C207 C209 1.327 . S
C207 H230 0.950 . S
C208 C207 1.349 . S
C208 C220 1.349 . S
C209 C207 1.327 . S
C209 C225 1.429 . S
C209 H231 0.950 . S
C210 H206 0.949 . S
C210 C218 1.574 . S
C210 C226 1.368 1_545 S
H211 C219 0.950 1_565 S
H212 C217 0.950 . S
H213 C218 0.949 . S
H214 C220 0.950 . S
H215 C221 0.950 1_545 S
H216 C222 0.949 . S
C217 H212 0.950 . S
C217 C219 1.327 1_565 S
C217 C223 1.429 1_565 S
C218 C210 1.574 . S
C218 H213 0.949 . S
C218 C224 1.368 . S
C219 C203 1.349 . S
C219 H211 0.950 1_545 S
C219 C217 1.327 1_545 S
C220 C208 1.349 . S
C220 H214 0.950 . S
C220 C221 1.327 . S
C221 H215 0.950 1_565 S
C221 C220 1.327 . S
C221 C225 1.429 . S
C222 C205 1.574 . S
C222 H216 0.949 . S
C222 C226 1.368 . S
C223 C204 1.429 . S
C223 C217 1.429 1_545 S
C223 C224 1.523 . S
C224 C205 1.368 1_545 S
C224 C218 1.368 . S
C224 C223 1.523 . S
C225 C209 1.429 . S
C225 C221 1.429 . S
C225 C226 1.523 . S
C226 C210 1.368 1_565 S
C226 C222 1.368 . S
C226 C225 1.523 . S
H227 C202 0.950 . S
H228 C204 0.950 . S
H229 C205 0.949 . S
H230 C207 0.950 . S
H231 C209 0.950 . S
C232 C233 1.349 . S
C232 C234 1.327 . S
C232 H257 0.950 . S
C233 C232 1.349 . S
C233 C249 1.349 . S
C234 C232 1.327 . S
C234 C253 1.429 . S
C234 H258 0.950 . S
C235 C252 1.574 . S
C235 C254 1.368 . S
C235 H259 0.949 . S
H236 C240 0.949 . S
C237 C238 1.349 . S
C237 C239 1.327 . S
C237 H260 0.950 . S
C238 C237 1.349 . S
C238 C250 1.349 . S
C239 C237 1.327 . S
C239 C255 1.429 . S
C239 H261 0.950 . S
C240 H236 0.949 . S
C240 C248 1.574 . S
C240 C256 1.368 . S
H241 C249 0.950 . S
H242 C247 0.950 . S
H243 C248 0.949 . S
H244 C250 0.950 . S
H245 C251 0.950 . S
H246 C252 0.949 . S
C247 H242 0.950 . S
C247 C249 1.327 . S
C247 C253 1.429 . S
C248 C240 1.574 . S
C248 H243 0.949 . S
C248 C254 1.368 . S
C249 C233 1.349 . S
C249 H241 0.950 . S
C249 C247 1.327 . S
C250 C238 1.349 . S
C250 H244 0.950 . S
C250 C251 1.327 . S
C251 H245 0.950 . S
C251 C250 1.327 . S
C251 C255 1.429 . S
C252 C235 1.574 . S
C252 H246 0.949 . S
C252 C256 1.368 . S
C253 C234 1.429 . S
C253 C247 1.429 . S
C253 C254 1.523 . S
C254 C235 1.368 . S
C254 C248 1.368 . S
C254 C253 1.523 . S
C255 C239 1.429 . S
C255 C251 1.429 . S
C255 C256 1.523 . S
C256 C240 1.368 . S
C256 C252 1.368 . S
C256 C255 1.523 . S
H257 C232 0.950 . S
H258 C234 0.950 . S
H259 C235 0.949 . S
H260 C237 0.950 . S
H261 C239 0.950 . S
C262 C263 1.349 . S
C262 C264 1.327 . S
C262 H287 0.950 . S
C263 C262 1.349 . S
C263 C279 1.349 . S
C264 C262 1.327 . S
C264 C283 1.429 . S
C264 H288 0.950 . S
C265 C282 1.574 . S
C265 C284 1.368 1_565 S
C265 H289 0.949 . S
H266 C270 0.949 1_545 S
C267 C268 1.349 . S
C267 C269 1.327 . S
C267 H290 0.950 . S
C268 C267 1.349 . S
C268 C280 1.349 . S
C269 C267 1.327 . S
C269 C285 1.429 1_455 S
C269 H291 0.950 . S
C270 H266 0.949 1_565 S
C270 C278 1.574 1_565 S
C270 C286 1.368 . S
H271 C279 0.950 . S
H272 C277 0.950 1_565 S
H273 C278 0.949 . S
H274 C280 0.950 . S
H275 C281 0.950 . S
H276 C282 0.949 . S
C277 H272 0.950 1_545 S
C277 C279 1.327 . S
C277 C283 1.429 . S
C278 C270 1.574 1_545 S
C278 H273 0.949 . S
C278 C284 1.368 . S
C279 C263 1.349 . S
C279 H271 0.950 . S
C279 C277 1.327 . S
C280 C268 1.349 . S
C280 H274 0.950 . S
C280 C281 1.327 1_455 S
C281 H275 0.950 . S
C281 C280 1.327 1_655 S
C281 C285 1.429 . S
C282 C265 1.574 . S
C282 H276 0.949 . S
C282 C286 1.368 . S
C283 C264 1.429 . S
C283 C277 1.429 . S
C283 C284 1.523 . S
C284 C265 1.368 1_545 S
C284 C278 1.368 . S
C284 C283 1.523 . S
C285 C269 1.429 1_655 S
C285 C281 1.429 . S
C285 C286 1.523 . S
C286 C270 1.368 . S
C286 C282 1.368 . S
C286 C285 1.523 . S
H287 C262 0.950 . S
H288 C264 0.950 . S
H289 C265 0.949 . S
H290 C267 0.950 . S
H291 C269 0.950 . S
C292 C293 1.349 . S
C292 C294 1.327 . S
C292 H317 0.950 . S
C293 C292 1.349 . S
C293 C309 1.349 . S
C294 C292 1.327 . S
C294 C313 1.429 . S
C294 H318 0.950 . S
C295 C312 1.574 . S
C295 C314 1.368 . S
C295 H319 0.949 . S
H296 C300 0.949 . S
C297 C298 1.349 . S
C297 C299 1.327 1_655 S
C297 H320 0.950 . S
C298 C297 1.349 . S
C298 C310 1.349 . S
C299 C297 1.327 1_455 S
C299 C315 1.429 . S
C299 H321 0.950 . S
C300 H296 0.949 . S
C300 C308 1.574 . S
C300 C316 1.368 . S
H301 C309 0.950 . S
H302 C307 0.950 . S
H303 C308 0.949 . S
H304 C310 0.950 . S
H305 C311 0.950 1_455 S
H306 C312 0.949 . S
C307 H302 0.950 . S
C307 C309 1.327 . S
C307 C313 1.429 . S
C308 C300 1.574 . S
C308 H303 0.949 . S
C308 C314 1.368 . S
C309 C293 1.349 . S
C309 H301 0.950 . S
C309 C307 1.327 . S
C310 C298 1.349 . S
C310 H304 0.950 . S
C310 C311 1.327 . S
C311 H305 0.950 1_655 S
C311 C310 1.327 . S
C311 C315 1.429 1_655 S
C312 C295 1.574 . S
C312 H306 0.949 . S
C312 C316 1.368 . S
C313 C294 1.429 . S
C313 C307 1.429 . S
C313 C314 1.523 . S
C314 C295 1.368 . S
C314 C308 1.368 . S
C314 C313 1.523 . S
C315 C299 1.429 . S
C315 C311 1.429 1_455 S
C315 C316 1.523 . S
C316 C300 1.368 . S
C316 C312 1.368 . S
C316 C315 1.523 . S
H317 C292 0.950 . S
H318 C294 0.950 . S
H319 C295 0.949 . S
H320 C297 0.950 . S
H321 C299 0.950 . S
C322 C323 1.349 . S
C322 C324 1.327 . S
C322 H347 0.950 . S
C323 C322 1.349 . S
C323 C339 1.349 . S
C324 C322 1.327 . S
C324 C343 1.429 . S
C324 H348 0.950 . S
C325 C342 1.574 . S
C325 C344 1.368 1_545 S
C325 H349 0.949 . S
H326 C330 0.949 . S
C327 C328 1.349 . S
C327 C329 1.327 . S
C327 H350 0.950 . S
C328 C327 1.349 . S
C328 C340 1.349 . S
C329 C327 1.327 . S
C329 C345 1.429 . S
C329 H351 0.950 . S
C330 H326 0.949 . S
C330 C338 1.574 . S
C330 C346 1.368 1_565 S
H331 C339 0.944 1_545 S
H332 C337 0.969 . S
H333 C338 0.949 . S
H334 C340 0.950 . S
H335 C341 0.950 1_565 S
H336 C342 0.949 . S
C337 H332 0.969 . S
C337 C339 1.319 1_545 S
C337 C343 1.418 1_545 S
C338 C330 1.574 . S
C338 H333 0.949 . S
C338 C344 1.368 . S
C339 C323 1.349 . S
C339 H331 0.944 1_565 S
C339 C337 1.319 1_565 S
C340 C328 1.349 . S
C340 H334 0.950 . S
C340 C341 1.327 . S
C341 H335 0.950 1_545 S
C341 C340 1.327 . S
C341 C345 1.429 . S
C342 C325 1.574 . S
C342 H336 0.949 . S
C342 C346 1.368 . S
C343 C324 1.429 . S
C343 C337 1.418 1_565 S
C343 C344 1.523 . S
C344 C325 1.368 1_565 S
C344 C338 1.368 . S
C344 C343 1.523 . S
C345 C329 1.429 . S
C345 C341 1.429 . S
C345 C346 1.523 . S
C346 C330 1.368 1_545 S
C346 C342 1.368 . S
C346 C345 1.523 . S
H347 C322 0.950 . S
H348 C324 0.950 . S
H349 C325 0.949 . S
H350 C327 0.950 . S
H351 C329 0.950 . S
C352 C353 1.349 . S
C352 C354 1.327 . S
C352 H377 0.950 . S
C353 C352 1.349 . S
C353 C369 1.349 . S
C354 C352 1.327 . S
C354 C373 1.429 . S
C354 H378 0.950 . S
C355 C372 1.574 . S
C355 C374 1.368 1_655 S
C355 H379 0.949 . S
H356 C360 0.949 . S
C357 C358 1.349 . S
C357 C359 1.327 . S
C357 H380 0.950 . S
C358 C357 1.349 . S
C358 C370 1.349 . S
C359 C357 1.327 . S
C359 C375 1.429 . S
C359 H381 0.950 . S
C360 H356 0.949 . S
C360 C368 1.574 . S
C360 C376 1.368 1_455 S
H361 C369 0.950 . S
H362 C367 0.950 . S
H363 C368 0.949 . S
H364 C370 0.950 . S
H365 C371 0.950 . S
H366 C372 0.949 . S
C367 H362 0.950 . S
C367 C369 1.327 . S
C367 C373 1.429 . S
C368 C360 1.574 . S
C368 H363 0.949 . S
C368 C374 1.368 . S
C369 C353 1.349 . S
C369 H361 0.950 . S
C369 C367 1.327 . S
C370 C358 1.349 . S
C370 H364 0.950 . S
C370 C371 1.327 . S
C371 H365 0.950 . S
C371 C370 1.327 . S
C371 C375 1.429 . S
C372 C355 1.574 . S
C372 H366 0.949 . S
C372 C376 1.368 . S
C373 C354 1.429 . S
C373 C367 1.429 . S
C373 C374 1.523 . S
C374 C355 1.368 1_455 S
C374 C368 1.368 . S
C374 C373 1.523 . S
C375 C359 1.429 . S
C375 C371 1.429 . S
C375 C376 1.523 . S
C376 C360 1.368 1_655 S
C376 C372 1.368 . S
C376 C375 1.523 . S
H377 C352 0.950 . S
H378 C354 0.950 . S
H379 C355 0.949 . S
H380 C357 0.950 . S
H381 C359 0.950 . S
C382 C383 1.349 . S
C382 C384 1.327 . S
C382 H407 0.950 . S
C383 C382 1.349 . S
C383 C399 1.349 . S
C384 C382 1.327 . S
C384 C403 1.429 . S
C384 H408 0.950 . S
C385 C402 1.574 . S
C385 C404 1.368 1_545 S
C385 H409 0.949 . S
H386 C390 0.949 . S
C387 C388 1.349 . S
C387 C389 1.327 . S
C387 H410 0.950 . S
C388 C387 1.349 . S
C388 C400 1.349 . S
C389 C387 1.327 . S
C389 C405 1.429 . S
C389 H411 0.950 . S
C390 H386 0.949 . S
C390 C398 1.574 . S
C390 C406 1.368 1_565 S
H391 C399 0.950 . S
H392 C397 0.950 1_545 S
H393 C398 0.949 . S
H394 C400 0.950 . S
H395 C401 0.950 1_565 S
H396 C402 0.949 . S
C397 H392 0.950 1_565 S
C397 C399 1.327 . S
C397 C403 1.429 . S
C398 C390 1.574 . S
C398 H393 0.949 . S
C398 C404 1.368 . S
C399 C383 1.349 . S
C399 H391 0.950 . S
C399 C397 1.327 . S
C400 C388 1.349 . S
C400 H394 0.950 . S
C400 C401 1.327 . S
C401 H395 0.950 1_545 S
C401 C400 1.327 . S
C401 C405 1.429 . S
C402 C385 1.574 . S
C402 H396 0.949 . S
C402 C406 1.368 . S
C403 C384 1.429 . S
C403 C397 1.429 . S
C403 C404 1.523 . S
C404 C385 1.368 1_565 S
C404 C398 1.368 . S
C404 C403 1.523 . S
C405 C389 1.429 . S
C405 C401 1.429 . S
C405 C406 1.523 . S
C406 C390 1.368 1_545 S
C406 C402 1.368 . S
C406 C405 1.523 . S
H407 C382 0.950 . S
H408 C384 0.950 . S
H409 C385 0.949 . S
H410 C387 0.950 . S
H411 C389 0.950 . S
C412 C413 1.349 . S
C412 C414 1.327 . S
C412 H437 0.950 . S
C413 C412 1.349 . S
C413 C429 1.349 . S
C414 C412 1.327 . S
C414 C433 1.429 . S
C414 H438 0.950 . S
C415 C432 1.574 1_554 S
C415 C434 1.368 . S
C415 H439 0.949 . S
H416 C420 0.949 . S
C417 C418 1.349 . S
C417 C419 1.327 . S
C417 H440 0.950 . S
C418 C417 1.349 . S
C418 C430 1.349 . S
C419 C417 1.327 . S
C419 C435 1.429 . S
C419 H441 0.950 . S
C420 H416 0.949 . S
C420 C428 1.574 1_556 S
C420 C436 1.368 . S
H421 C429 0.950 . S
H422 C427 0.950 . S
H423 C428 0.949 . S
H424 C430 0.950 . S
H425 C431 0.950 . S
H426 C432 0.949 . S
C427 H422 0.950 . S
C427 C429 1.327 . S
C427 C433 1.429 . S
C428 C420 1.574 1_554 S
C428 H423 0.949 . S
C428 C434 1.368 . S
C429 C413 1.349 . S
C429 H421 0.950 . S
C429 C427 1.327 . S
C430 C418 1.349 . S
C430 H424 0.950 . S
C430 C431 1.327 . S
C431 H425 0.950 . S
C431 C430 1.327 . S
C431 C435 1.429 . S
C432 C415 1.574 1_556 S
C432 H426 0.949 . S
C432 C436 1.368 . S
C433 C414 1.429 . S
C433 C427 1.429 . S
C433 C434 1.523 . S
C434 C415 1.368 . S
C434 C428 1.368 . S
C434 C433 1.523 . S
C435 C419 1.429 . S
C435 C431 1.429 . S
C435 C436 1.523 . S
C436 C420 1.368 . S
C436 C432 1.368 . S
C436 C435 1.523 . S
H437 C412 0.950 . S
H438 C414 0.950 . S
H439 C415 0.949 . S
H440 C417 0.950 . S
H441 C419 0.950 . S
C442 C443 1.349 . S
C442 C444 1.327 . S
C442 H467 0.950 . S
C443 C442 1.349 . S
C443 C459 1.349 . S
C444 C442 1.327 . S
C444 C463 1.429 . S
C444 H468 0.950 1_565 S
C445 C462 1.588 1_455 S
C445 C464 1.354 1_554 S
C445 H469 0.949 . S
H446 C450 0.949 . S
C447 C448 1.349 . S
C447 C449 1.327 . S
C447 H470 0.950 . S
C448 C447 1.349 . S
C448 C460 1.349 . S
C449 C447 1.327 . S
C449 C465 1.429 . S
C449 H471 0.950 1_545 S
C450 H446 0.949 . S
C450 C458 1.588 1_655 S
C450 C466 1.354 1_556 S
H451 C459 0.950 . S
H452 C457 0.950 . S
H453 C458 0.949 . S
H454 C460 0.950 . S
H455 C461 0.950 . S
H456 C462 0.949 . S
C457 H452 0.950 . S
C457 C459 1.327 . S
C457 C463 1.429 . S
C458 C450 1.588 1_455 S
C458 H453 0.949 . S
C458 C464 1.368 1_545 S
C459 C443 1.349 . S
C459 H451 0.950 . S
C459 C457 1.327 . S
C460 C448 1.349 . S
C460 H454 0.950 . S
C460 C461 1.327 . S
C461 H455 0.950 . S
C461 C460 1.327 . S
C461 C465 1.429 . S
C462 C445 1.588 1_655 S
C462 H456 0.949 . S
C462 C466 1.368 1_565 S
C463 C444 1.429 . S
C463 C457 1.429 . S
C463 C464 1.523 . S
C464 C445 1.354 1_556 S
C464 C458 1.368 1_565 S
C464 C463 1.523 . S
C465 C449 1.429 . S
C465 C461 1.429 . S
C465 C466 1.523 . S
C466 C450 1.354 1_554 S
C466 C462 1.368 1_545 S
C466 C465 1.523 . S
H467 C442 0.950 . S
H468 C444 0.950 1_545 S
H469 C445 0.949 . S
H470 C447 0.950 . S
H471 C449 0.950 1_565 S
C472 C473 1.349 . S
C472 C474 1.327 . S
C472 H497 0.950 . S
C473 C472 1.349 . S
C473 C489 1.349 . S
C474 C472 1.327 . S
C474 C493 1.429 . S
C474 H498 0.950 . S
C475 C492 1.574 . S
C475 C494 1.368 . S
C475 H499 0.949 . S
H476 C480 0.949 . S
C477 C478 1.349 . S
C477 C479 1.327 . S
C477 H500 0.950 . S
C478 C477 1.349 . S
C478 C490 1.349 . S
C479 C477 1.327 . S
C479 C495 1.429 . S
C479 H501 0.950 . S
C480 H476 0.949 . S
C480 C488 1.574 . S
C480 C496 1.368 . S
H481 C489 0.950 . S
H482 C487 0.950 . S
H483 C488 0.949 . S
H484 C490 0.950 . S
H485 C491 0.950 . S
H486 C492 0.949 . S
C487 H482 0.950 . S
C487 C489 1.327 . S
C487 C493 1.429 . S
C488 C480 1.574 . S
C488 H483 0.949 . S
C488 C494 1.368 . S
C489 C473 1.349 . S
C489 H481 0.950 . S
C489 C487 1.327 . S
C490 C478 1.349 . S
C490 H484 0.950 . S
C490 C491 1.327 . S
C491 H485 0.950 . S
C491 C490 1.327 . S
C491 C495 1.429 . S
C492 C475 1.574 . S
C492 H486 0.949 . S
C492 C496 1.368 . S
C493 C474 1.429 . S
C493 C487 1.429 . S
C493 C494 1.523 . S
C494 C475 1.368 . S
C494 C488 1.368 . S
C494 C493 1.523 . S
C495 C479 1.429 . S
C495 C491 1.429 . S
C495 C496 1.523 . S
C496 C480 1.368 . S
C496 C492 1.368 . S
C496 C495 1.523 . S
H497 C472 0.950 . S
H498 C474 0.950 . S
H499 C475 0.949 . S
H500 C477 0.950 . S
H501 C479 0.950 . S
C502 C503 1.349 . S
C502 C504 1.327 . S
C502 H527 0.950 . S
C503 C502 1.349 . S
C503 C519 1.349 . S
C504 C502 1.327 . S
C504 C523 1.429 . S
C504 H528 0.950 . S
C505 C522 1.574 . S
C505 C524 1.368 . S
C505 H529 0.949 . S
H506 C510 0.949 . S
C507 C508 1.349 . S
C507 C509 1.327 . S
C507 H530 0.950 . S
C508 C507 1.349 . S
C508 C520 1.349 . S
C509 C507 1.327 . S
C509 C525 1.429 . S
C509 H531 0.950 . S
C510 H506 0.949 . S
C510 C518 1.574 . S
C510 C526 1.368 . S
H511 C519 0.950 . S
H512 C517 0.950 . S
H513 C518 0.949 . S
H514 C520 0.950 . S
H515 C521 0.950 . S
H516 C522 0.949 . S
C517 H512 0.950 . S
C517 C519 1.327 . S
C517 C523 1.429 . S
C518 C510 1.574 . S
C518 H513 0.949 . S
C518 C524 1.368 . S
C519 C503 1.349 . S
C519 H511 0.950 . S
C519 C517 1.327 . S
C520 C508 1.349 . S
C520 H514 0.950 . S
C520 C521 1.327 . S
C521 H515 0.950 . S
C521 C520 1.327 . S
C521 C525 1.429 . S
C522 C505 1.574 . S
C522 H516 0.949 . S
C522 C526 1.368 . S
C523 C504 1.429 . S
C523 C517 1.429 . S
C523 C524 1.523 . S
C524 C505 1.368 . S
C524 C518 1.368 . S
C524 C523 1.523 . S
C525 C509 1.429 . S
C525 C521 1.429 . S
C525 C526 1.523 . S
C526 C510 1.368 . S
C526 C522 1.368 . S
C526 C525 1.523 . S
H527 C502 0.950 . S
H528 C504 0.950 . S
H529 C505 0.949 . S
H530 C507 0.950 . S
H531 C509 0.950 . S
C532 C533 1.349 . S
C532 C534 1.327 . S
C532 H557 0.950 . S
C533 C532 1.349 . S
C533 C549 1.349 . S
C534 C532 1.327 . S
C534 C553 1.429 . S
C534 H558 0.950 . S
C535 C552 1.574 . S
C535 C554 1.368 . S
C535 H559 0.949 . S
H536 C540 0.949 . S
C537 C538 1.349 . S
C537 C539 1.327 . S
C537 H560 0.950 . S
C538 C537 1.349 . S
C538 C550 1.349 . S
C539 C537 1.327 . S
C539 C555 1.429 . S
C539 H561 0.950 . S
C540 H536 0.949 . S
C540 C548 1.574 . S
C540 C556 1.368 . S
H541 C549 0.950 . S
H542 C547 0.950 . S
H543 C548 0.949 . S
H544 C550 0.950 . S
H545 C551 0.950 . S
H546 C552 0.949 . S
C547 H542 0.950 . S
C547 C549 1.327 . S
C547 C553 1.429 . S
C548 C540 1.574 . S
C548 H543 0.949 . S
C548 C554 1.368 . S
C549 C533 1.349 . S
C549 H541 0.950 . S
C549 C547 1.327 . S
C550 C538 1.349 . S
C550 H544 0.950 . S
C550 C551 1.327 . S
C551 H545 0.950 . S
C551 C550 1.327 . S
C551 C555 1.429 . S
C552 C535 1.574 . S
C552 H546 0.949 . S
C552 C556 1.368 . S
C553 C534 1.429 . S
C553 C547 1.429 . S
C553 C554 1.523 . S
C554 C535 1.368 . S
C554 C548 1.368 . S
C554 C553 1.523 . S
C555 C539 1.429 . S
C555 C551 1.429 . S
C555 C556 1.523 . S
C556 C540 1.368 . S
C556 C552 1.368 . S
C556 C555 1.523 . S
H557 C532 0.950 . S
H558 C534 0.950 . S
H559 C535 0.949 . S
H560 C537 0.950 . S
H561 C539 0.950 . S
C562 C563 1.349 . S
C562 C564 1.327 . S
C562 H587 0.950 . S
C563 C562 1.349 . S
C563 C579 1.349 . S
C564 C562 1.327 . S
C564 C583 1.429 . S
C564 H588 0.950 . S
C565 C582 1.574 . S
C565 C584 1.368 . S
C565 H589 0.949 . S
H566 C570 0.949 . S
C567 C568 1.349 . S
C567 C569 1.327 . S
C567 H590 0.950 . S
C568 C567 1.349 . S
C568 C580 1.349 . S
C569 C567 1.327 . S
C569 C585 1.429 . S
C569 H591 0.950 . S
C570 H566 0.949 . S
C570 C578 1.574 . S
C570 C586 1.368 . S
H571 C579 0.950 . S
H572 C577 0.950 . S
H573 C578 0.949 . S
H574 C580 0.950 . S
H575 C581 0.950 . S
H576 C582 0.949 . S
C577 H572 0.950 . S
C577 C579 1.327 . S
C577 C583 1.429 . S
C578 C570 1.574 . S
C578 H573 0.949 . S
C578 C584 1.368 . S
C579 C563 1.349 . S
C579 H571 0.950 . S
C579 C577 1.327 . S
C580 C568 1.349 . S
C580 H574 0.950 . S
C580 C581 1.327 . S
C581 H575 0.950 . S
C581 C580 1.327 . S
C581 C585 1.429 . S
C582 C565 1.574 . S
C582 H576 0.949 . S
C582 C586 1.368 . S
C583 C564 1.429 . S
C583 C577 1.429 . S
C583 C584 1.523 . S
C584 C565 1.368 . S
C584 C578 1.368 . S
C584 C583 1.523 . S
C585 C569 1.429 . S
C585 C581 1.429 . S
C585 C586 1.523 . S
C586 C570 1.368 . S
C586 C582 1.368 . S
C586 C585 1.523 . S
H587 C562 0.950 . S
H588 C564 0.950 . S
H589 C565 0.949 . S
H590 C567 0.950 . S
H591 C569 0.950 . S
C113 C13 1.067 . S
C118 C36 1.082 . S
C143 C50 1.082 . S
C148 C27 1.067 . S
C173 C41 1.067 . S
C178 C8 1.082 . S
C203 C55 1.067 . S
C208 C22 1.082 . S
C233 C92 1.082 . S
C238 C69 1.067 . S
C263 C83 1.067 . S
C268 C106 1.082 . S
C293 C97 1.067 . S
C298 C64 1.082 . S
C323 C111 1.067 . S
C328 C78 1.082 . S
C353 C7 1.503 . S
C358 C63 1.503 . S
C383 C21 1.503 . S
C388 C77 1.503 . S
C413 C35 1.503 . S
C418 C91 1.503 . S
C443 C105 1.503 . S
C448 C49 1.503 . S
C473 C11 1.505 . S
C478 C25 1.505 . S
C503 C53 1.505 . S
C508 C39 1.505 . S
C533 C81 1.505 . S
C538 C67 1.505 . S
C563 C95 1.505 . S
C568 C109 1.505 . S
