# Generated by pormake.
# Topology und, (4)-cn, num edge types: 1
# Building blocks:
#     Node 0, Type 0, BuildingBlock: UXUYUI_clean_sbu_0, # of connection points: 4
#     Node 1, Type 0, BuildingBlock: UXUYUI_clean_sbu_0, # of connection points: 4
#     Node 2, Type 0, BuildingBlock: UXUYUI_clean_sbu_0, # of connection points: 4
#     Node 3, Type 0, BuildingBlock: UXUYUI_clean_sbu_0, # of connection points: 4
#     Node 4, Type 0, BuildingBlock: UXUYUI_clean_sbu_0, # of connection points: 4
#     Node 5, Type 0, BuildingBlock: UXUYUI_clean_sbu_0, # of connection points: 4
#     Node 6, Type 0, BuildingBlock: UXUYUI_clean_sbu_0, # of connection points: 4
#     Node 7, Type 0, BuildingBlock: UXUYUI_clean_sbu_0, # of connection points: 4
#     Node 8, Type 0, BuildingBlock: UXUYUI_clean_sbu_0, # of connection points: 4
#     Node 9, Type 0, BuildingBlock: UXUYUI_clean_sbu_0, # of connection points: 4
#     Node 10, Type 0, BuildingBlock: UXUYUI_clean_sbu_0, # of connection points: 4
#     Node 11, Type 0, BuildingBlock: UXUYUI_clean_sbu_0, # of connection points: 4
#     Node 12, Type 0, BuildingBlock: UXUYUI_clean_sbu_0, # of connection points: 4
#     Node 13, Type 0, BuildingBlock: UXUYUI_clean_sbu_0, # of connection points: 4
#     Node 14, Type 0, BuildingBlock: UXUYUI_clean_sbu_0, # of connection points: 4
#     Node 15, Type 0, BuildingBlock: UXUYUI_clean_sbu_0, # of connection points: 4
#     Edge 16, Type (0, 0), BuildingBlock: MIFKUJ_clean_linker_0, # of connection points: 2
#     Edge 17, Type (0, 0), BuildingBlock: MIFKUJ_clean_linker_0, # of connection points: 2
#     Edge 18, Type (0, 0), BuildingBlock: MIFKUJ_clean_linker_0, # of connection points: 2
#     Edge 19, Type (0, 0), BuildingBlock: MIFKUJ_clean_linker_0, # of connection points: 2
#     Edge 20, Type (0, 0), BuildingBlock: MIFKUJ_clean_linker_0, # of connection points: 2
#     Edge 21, Type (0, 0), BuildingBlock: MIFKUJ_clean_linker_0, # of connection points: 2
#     Edge 22, Type (0, 0), BuildingBlock: MIFKUJ_clean_linker_0, # of connection points: 2
#     Edge 23, Type (0, 0), BuildingBlock: MIFKUJ_clean_linker_0, # of connection points: 2
#     Edge 24, Type (0, 0), BuildingBlock: MIFKUJ_clean_linker_0, # of connection points: 2
#     Edge 25, Type (0, 0), BuildingBlock: MIFKUJ_clean_linker_0, # of connection points: 2
#     Edge 26, Type (0, 0), BuildingBlock: MIFKUJ_clean_linker_0, # of connection points: 2
#     Edge 27, Type (0, 0), BuildingBlock: MIFKUJ_clean_linker_0, # of connection points: 2
#     Edge 28, Type (0, 0), BuildingBlock: MIFKUJ_clean_linker_0, # of connection points: 2
#     Edge 29, Type (0, 0), BuildingBlock: MIFKUJ_clean_linker_0, # of connection points: 2
#     Edge 30, Type (0, 0), BuildingBlock: MIFKUJ_clean_linker_0, # of connection points: 2
#     Edge 31, Type (0, 0), BuildingBlock: MIFKUJ_clean_linker_0, # of connection points: 2
#     Edge 32, Type (0, 0), BuildingBlock: MIFKUJ_clean_linker_0, # of connection points: 2
#     Edge 33, Type (0, 0), BuildingBlock: MIFKUJ_clean_linker_0, # of connection points: 2
#     Edge 34, Type (0, 0), BuildingBlock: MIFKUJ_clean_linker_0, # of connection points: 2
#     Edge 35, Type (0, 0), BuildingBlock: MIFKUJ_clean_linker_0, # of connection points: 2
#     Edge 36, Type (0, 0), BuildingBlock: MIFKUJ_clean_linker_0, # of connection points: 2
#     Edge 37, Type (0, 0), BuildingBlock: MIFKUJ_clean_linker_0, # of connection points: 2
#     Edge 38, Type (0, 0), BuildingBlock: MIFKUJ_clean_linker_0, # of connection points: 2
#     Edge 39, Type (0, 0), BuildingBlock: MIFKUJ_clean_linker_0, # of connection points: 2
#     Edge 40, Type (0, 0), BuildingBlock: MIFKUJ_clean_linker_0, # of connection points: 2
#     Edge 41, Type (0, 0), BuildingBlock: MIFKUJ_clean_linker_0, # of connection points: 2
#     Edge 42, Type (0, 0), BuildingBlock: MIFKUJ_clean_linker_0, # of connection points: 2
#     Edge 43, Type (0, 0), BuildingBlock: MIFKUJ_clean_linker_0, # of connection points: 2
#     Edge 44, Type (0, 0), BuildingBlock: MIFKUJ_clean_linker_0, # of connection points: 2
#     Edge 45, Type (0, 0), BuildingBlock: MIFKUJ_clean_linker_0, # of connection points: 2
#     Edge 46, Type (0, 0), BuildingBlock: MIFKUJ_clean_linker_0, # of connection points: 2
#     Edge 47, Type (0, 0), BuildingBlock: MIFKUJ_clean_linker_0, # of connection points: 2
# Relax obj value: 0.184
# Max RMSD: 0.213
# Mean RMSD: 0.213
data_MOF--net-und--node1-UXUYUI_clean_sbu_0--edge1-MIFKUJ_clean_linker_0
_symmetry_space_group_name_H-M    P1
_symmetry_Int_Tables_number       1
_symmetry_cell_setting            triclinic
loop_
_symmetry_equiv_pos_as_xyz
'x, y, z'
_cell_length_a     103.76462
_cell_length_b     103.71952
_cell_length_c     39.284457
_cell_angle_alpha  89.979514
_cell_angle_beta   89.982992
_cell_angle_gamma 90.013346
loop_
_atom_site_label
_atom_site_type_symbol
_atom_site_fract_x
_atom_site_fract_y
_atom_site_fract_z
_atom_type_partial_charge
Li0 Li 0.23658 0.33916 0.00559 0.0
Li1 Li 0.26015 0.33914 0.99447 0.0
Li2 Li 0.24628 0.32418 0.96682 0.0
Li3 Li 0.25063 0.32162 0.02631 0.0
C4 C 0.24411 0.345 0.92902 0.0
N5 N 0.24076 0.3476 0.85959 0.0
C6 C 0.2547 0.34744 0.90797 0.0
C7 C 0.2318 0.34408 0.91483 0.0
C8 C 0.25281 0.34868 0.87291 0.0
C9 C 0.23031 0.34536 0.87965 0.0
C10 C 0.25981 0.34195 0.06508 0.0
C11 C 0.28056 0.33782 0.0905 0.0
N12 N 0.27736 0.3456 0.11706 0.0
C13 C 0.25672 0.34989 0.09261 0.0
C14 C 0.27182 0.33585 0.06396 0.0
C15 C 0.26573 0.35162 0.11865 0.0
C16 C 0.21455 0.345 0.04275 0.0
N17 N 0.22227 0.34923 0.01715 0.0
C18 C 0.20994 0.3685 0.01137 0.0
C19 C 0.22014 0.36064 0.00115 0.0
C20 C 0.20192 0.36449 0.03819 0.0
C21 C 0.20421 0.3525 0.05364 0.0
H22 H 0.2166 0.3359 0.05505 0.0
H23 H 0.22651 0.36371 0.9809 0.0
C24 C 0.28427 0.34528 0.96836 0.0
N25 N 0.27463 0.34973 0.98853 0.0
C26 C 0.29444 0.35337 0.95935 0.0
C27 C 0.2848 0.37027 0.99332 0.0
C28 C 0.27477 0.36186 0.00154 0.0
C29 C 0.29465 0.36614 0.97129 0.0
H30 H 0.28373 0.33564 0.958 0.0
H31 H 0.26688 0.36511 0.01737 0.0
C32 C 0.22249 0.31431 -0.0022 0.0
N33 N 0.19937 0.30172 0.98699 0.0
C34 C 0.22089 0.30157 0.00861 0.0
C35 C 0.21227 0.3207 0.98188 0.0
C36 C 0.20915 0.29535 0.00279 0.0
C37 C 0.20068 0.31416 0.97655 0.0
C38 C 0.26699 0.30805 0.98339 0.0
C39 C 0.25785 0.29815 0.98297 0.0
C40 C 0.28001 0.3051 0.97866 0.0
C41 C 0.26189 0.28546 0.97784 0.0
C42 C 0.28367 0.29228 0.97363 0.0
N43 N 0.27461 0.2828 0.97333 0.0
C44 C 0.25551 0.31531 0.90543 0.0
C45 C 0.23415 0.30817 0.91551 0.0
C46 C 0.25616 0.30817 0.8755 0.0
N47 N 0.24469 0.3151 0.9249 0.0
C48 C 0.23441 0.30078 0.88585 0.0
C49 C 0.2456 0.30057 0.86569 0.0
H50 H 0.26379 0.32084 0.91365 0.0
H51 H 0.22568 0.30804 0.93132 0.0
C52 C 0.2414 0.30902 0.08267 0.0
N53 N 0.25206 0.30993 0.0628 0.0
C54 C 0.24075 0.29981 0.10838 0.0
C55 C 0.26228 0.29288 0.09337 0.0
C56 C 0.26255 0.30235 0.06814 0.0
C57 C 0.25116 0.29136 0.11347 0.0
H58 H 0.23326 0.31529 0.07792 0.0
H59 H 0.27099 0.30341 0.05229 0.0
O60 O 0.2458 0.34349 0.96332 0.0
O61 O 0.25106 0.34019 0.03947 0.0
O62 O 0.23388 0.32057 0.00374 0.0
O63 O 0.26332 0.32059 0.98825 0.0
H64 H 0.26428 0.34825 0.91853 0.0
H65 H 0.22349 0.34234 0.93077 0.0
H66 H 0.26093 0.35047 0.85629 0.0
H67 H 0.22085 0.34457 0.8683 0.0
H68 H 0.28988 0.33316 0.08997 0.0
H69 H 0.24746 0.35467 0.09382 0.0
H70 H 0.27439 0.32967 0.04288 0.0
H71 H 0.26348 0.35775 0.14012 0.0
H72 H 0.20842 0.37765 -0.0013 0.0
H73 H 0.19834 0.34916 0.07469 0.0
H74 H 0.30169 0.34984 0.94186 0.0
H75 H 0.28467 0.37999 0.00338 0.0
H76 H 0.22862 0.29652 0.02142 0.0
H77 H 0.21327 0.33059 0.9737 0.0
H78 H 0.20779 0.28548 0.0109 0.0
H79 H 0.19272 0.31897 0.96415 0.0
H80 H 0.24776 0.30023 0.98643 0.0
H81 H 0.28722 0.31264 0.97897 0.0
H82 H 0.2549 0.27771 0.97744 0.0
H83 H 0.29372 0.28986 0.96998 0.0
H84 H 0.2649 0.30846 0.86048 0.0
H85 H 0.2261 0.29494 0.8795 0.0
H86 H 0.23211 0.2992 0.12377 0.0
H87 H 0.2705 0.28655 0.09624 0.0
Li88 Li 0.92026 -0.00225 0.22087 0.0
Li89 Li 0.92014 0.00451 0.27836 0.0
Li90 Li 0.90396 0.98931 0.25844 0.0
Li91 Li 0.90409 0.01293 0.23983 0.0
C92 C 0.92897 0.97546 0.26026 0.0
N93 N 0.94199 0.95224 0.25731 0.0
C94 C 0.94121 0.97427 0.27484 0.0
C95 C 0.92331 0.96478 0.24455 0.0
C96 C 0.94765 0.96246 0.27296 0.0
C97 C 0.93005 0.95314 0.24323 0.0
C98 C 0.9353 0.0194 0.2342 0.0
C99 C 0.95097 0.03546 0.218 0.0
N100 N 0.96061 0.02707 0.22569 0.0
C101 C 0.94537 0.01095 0.24192 0.0
C102 C 0.93811 0.03176 0.22211 0.0
C103 C 0.95809 0.015 0.23746 0.0
C104 C 0.92932 0.00323 0.15642 0.0
N105 N 0.93103 0.99478 0.18244 0.0
C106 C 0.94924 0.98551 0.15446 0.0
C107 C 0.94069 0.98593 0.18185 0.0
C108 C 0.94777 0.99422 0.12727 0.0
C109 C 0.93745 0.00297 0.12823 0.0
H110 H 0.92183 0.01045 0.15804 0.0
H111 H 0.94215 0.97954 0.20308 0.0
C112 C 0.9323 -0.00174 0.33873 0.0
N113 N 0.93042 0.00819 0.31679 0.0
C114 C 0.94064 -0.00034 0.36619 0.0
C115 C 0.94465 0.02166 0.34859 0.0
C116 C 0.93612 0.01985 0.32152 0.0
C117 C 0.94713 0.0114 0.37098 0.0
H118 H 0.92755 0.98913 0.3343 0.0
H119 H 0.93429 0.02764 0.30386 0.0
C120 C 0.90004 0.99397 0.17872 0.0
N121 N 0.89785 0.98808 0.11034 0.0
C122 C 0.89558 0.00323 0.15571 0.0
C123 C 0.90317 0.98164 0.167 0.0
C124 C 0.89459 8e-05 0.12124 0.0
C125 C 0.90207 0.97887 0.13233 0.0
C126 C 0.90098 0.0106 0.3176 0.0
C127 C 0.89984 0.00264 0.34613 0.0
C128 C 0.90251 0.02389 0.32183 0.0
C129 C 0.90035 0.00812 0.37859 0.0
C130 C 0.90297 0.029 0.35471 0.0
N131 N 0.9019 0.02108 0.38216 0.0
C132 C 0.89691 0.96832 0.29856 0.0
C133 C 0.88323 0.97208 0.25118 0.0
C134 C 0.88943 0.95783 0.30864 0.0
N135 N 0.89365 0.97519 0.27043 0.0
C136 C 0.87545 0.96168 0.26037 0.0
C137 C 0.87849 0.95445 0.28956 0.0
H138 H 0.9053 0.97106 0.31321 0.0
H139 H 0.88096 0.97773 0.22882 0.0
C140 C 0.89883 0.035 0.20246 0.0
N141 N 0.89411 0.0272 0.22727 0.0
C142 C 0.89151 0.0453 0.19048 0.0
C143 C 0.87479 0.03956 0.23071 0.0
C144 C 0.88243 0.02931 0.24178 0.0
C145 C 0.87924 0.0476 0.20436 0.0
H146 H 0.90814 0.03295 0.19128 0.0
H147 H 0.87899 0.02293 0.26158 0.0
O148 O 0.92253 0.98695 0.26208 0.0
O149 O 0.92274 0.01562 0.23793 0.0
O150 O 0.90119 0.99694 0.21254 0.0
O151 O 0.90091 0.0054 0.28566 0.0
H152 H 0.94573 0.98238 0.28739 0.0
H153 H 0.91377 0.96542 0.23374 0.0
H154 H 0.95715 0.96143 0.28399 0.0
H155 H 0.92578 0.94481 0.2311 0.0
H156 H 0.95328 0.045 0.20866 0.0
H157 H 0.94339 0.00135 0.25116 0.0
H158 H 0.93043 0.03843 0.21597 0.0
H159 H 0.96597 0.00853 0.24332 0.0
H160 H 0.9572 0.97878 0.15535 0.0
H161 H 0.93576 0.00975 0.10775 0.0
H162 H 0.94241 0.99146 0.38263 0.0
H163 H 0.94938 0.03089 0.35169 0.0
H164 H 0.89293 0.01276 0.16433 0.0
H165 H 0.90652 0.97432 0.18438 0.0
H166 H 0.89122 0.00719 0.10314 0.0
H167 H 0.90457 0.9694 0.1229 0.0
H168 H 0.8987 0.99233 0.34324 0.0
H169 H 0.9035 0.03016 0.29995 0.0
H170 H 0.89955 0.00207 0.40093 0.0
H171 H 0.90423 0.03926 0.3584 0.0
H172 H 0.89201 0.95262 0.33154 0.0
H173 H 0.86718 0.95929 0.2448 0.0
H174 H 0.89524 0.05111 0.16979 0.0
H175 H 0.86547 0.0411 0.24241 0.0
Li176 Li 0.24847 0.67177 0.46716 0.0
Li177 Li 0.24298 0.67568 0.5246 0.0
Li178 Li 0.25898 0.65845 0.5094 0.0
Li179 Li 0.23533 0.65665 0.49746 0.0
C180 C 0.26928 0.68519 0.48856 0.0
N181 N 0.28732 0.70101 0.4579 0.0
C182 C 0.26574 0.69741 0.47676 0.0
C183 C 0.28202 0.68104 0.48478 0.0
C184 C 0.27499 0.70525 0.46129 0.0
C185 C 0.291 0.68918 0.46924 0.0
C186 C 0.2229 0.68432 0.49404 0.0
C187 C 0.20499 0.6925 0.5267 0.0
N188 N 0.20682 0.70436 0.51269 0.0
C189 C 0.22457 0.69657 0.47985 0.0
C190 C 0.21299 0.68225 0.51754 0.0
C191 C 0.21635 0.70658 0.48964 0.0
C192 C 0.2392 0.68195 0.40655 0.0
N193 N 0.25039 0.67903 0.42277 0.0
C194 C 0.26271 0.68739 0.37639 0.0
C195 C 0.26202 0.68109 0.40772 0.0
C196 C 0.2513 0.69115 0.36007 0.0
C197 C 0.23942 0.68805 0.37499 0.0
H198 H 0.23007 0.67977 0.41848 0.0
H199 H 0.27078 0.67808 0.42021 0.0
C200 C 0.23659 0.68411 0.59062 0.0
N201 N 0.23971 0.68818 0.55878 0.0
C202 C 0.23554 0.69297 0.61719 0.0
C203 C 0.24057 0.71005 0.57746 0.0
C204 C 0.24157 0.70087 0.55175 0.0
C205 C 0.23777 0.7061 0.61082 0.0
H206 H 0.23532 0.67395 0.59564 0.0
H207 H 0.24417 0.70385 0.52641 0.0
C208 C 0.25226 0.65001 0.43452 0.0
N209 N 0.25621 0.64566 0.36598 0.0
C210 C 0.24175 0.64835 0.41276 0.0
C211 C 0.26478 0.6494 0.42154 0.0
C212 C 0.24395 0.64618 0.37814 0.0
C213 C 0.26658 0.6472 0.38677 0.0
C214 C 0.23868 0.64789 0.56008 0.0
C215 C 0.24563 0.63659 0.56634 0.0
C216 C 0.226 0.64895 0.57173 0.0
C217 C 0.2397 0.62646 0.5838 0.0
C218 C 0.2204 0.6386 0.58905 0.0
N219 N 0.22731 0.62766 0.59465 0.0
C220 C 0.28077 0.65455 0.5496 0.0
C221 C 0.27686 0.63815 0.50879 0.0
C222 C 0.29134 0.64781 0.56234 0.0
N223 N 0.2738 0.6496 0.52345 0.0
C224 C 0.28733 0.63106 0.52081 0.0
C225 C 0.29465 0.63583 0.54816 0.0
H226 H 0.27799 0.66367 0.56077 0.0
H227 H 0.27096 0.63438 0.48842 0.0
C228 C 0.21049 0.64906 0.47871 0.0
N229 N 0.22185 0.64468 0.49133 0.0
C230 C 0.20098 0.64039 0.46858 0.0
C231 C 0.21489 0.62285 0.48572 0.0
C232 C 0.2242 0.63187 0.49513 0.0
C233 C 0.20321 0.62707 0.47141 0.0
H234 H 0.20906 0.65928 0.47485 0.0
H235 H 0.23349 0.62866 0.50422 0.0
O236 O 0.26042 0.67739 0.50413 0.0
O237 O 0.23097 0.67444 0.48519 0.0
O238 O 0.2503 0.65247 0.46829 0.0
O239 O 0.24428 0.65788 0.54276 0.0
H240 H 0.25589 0.70068 0.47864 0.0
H241 H 0.28496 0.67161 0.49355 0.0
H242 H 0.27234 0.71467 0.45178 0.0
H243 H 0.30088 0.68608 0.4661 0.0
H244 H 0.19733 0.69104 0.54498 0.0
H245 H 0.23224 0.69841 0.46185 0.0
H246 H 0.21154 0.67283 0.5287 0.0
H247 H 0.21758 0.71612 0.47902 0.0
H248 H 0.27204 0.68946 0.36525 0.0
H249 H 0.23042 0.6908 0.36308 0.0
H250 H 0.23328 0.68955 0.64256 0.0
H251 H 0.24254 0.72006 0.57154 0.0
H252 H 0.23199 0.64887 0.42243 0.0
H253 H 0.27302 0.65079 0.43805 0.0
H254 H 0.2359 0.64495 0.36094 0.0
H255 H 0.27621 0.64677 0.37629 0.0
H256 H 0.25547 0.63561 0.55769 0.0
H257 H 0.2205 0.65764 0.56727 0.0
H258 H 0.24495 0.61764 0.58867 0.0
H259 H 0.21057 0.63926 0.59802 0.0
H260 H 0.29681 0.6519 0.58321 0.0
H261 H 0.28938 0.62175 0.50956 0.0
H262 H 0.19228 0.64411 0.45698 0.0
H263 H 0.217 0.61269 0.48867 0.0
Li264 Li 0.58774 0.98358 0.73947 0.0
Li265 Li 0.58833 0.0076 0.75206 0.0
Li266 Li 0.57169 0.9939 0.77404 0.0
Li267 Li 0.57209 -0.00153 0.71513 0.0
C268 C 0.5905 0.99107 0.81808 0.0
N269 N 0.58961 0.98808 0.88795 0.0
C270 C 0.59301 0.00155 0.83943 0.0
C271 C 0.58773 0.97902 0.83228 0.0
C272 C 0.59246 -0.00014 0.87469 0.0
C273 C 0.58726 0.97772 0.86765 0.0
C274 C 0.59184 0.00411 0.67678 0.0
C275 C 0.5899 0.02285 0.64079 0.0
N276 N 0.59223 0.01536 0.61304 0.0
C277 C 0.59425 0.9966 0.64794 0.0
C278 C 0.58968 0.01735 0.67324 0.0
C279 C 0.59439 0.00247 0.61593 0.0
C280 C 0.59564 0.96349 0.6986 0.0
N281 N 0.59753 0.96887 0.72967 0.0
C282 C 0.61387 0.9535 0.74286 0.0
C283 C 0.60628 0.96406 0.752 0.0
C284 C 0.6125 0.948 0.7103 0.0
C285 C 0.60311 0.95307 0.68822 0.0
H286 H 0.58848 0.96751 0.68164 0.0
H287 H 0.60747 0.96854 0.77667 0.0
C288 C 0.5943 0.0314 0.78071 0.0
N289 N 0.59897 0.02182 0.7607 0.0
C290 C 0.60214 0.0418 0.78944 0.0
C291 C 0.61929 0.03239 0.75584 0.0
C292 C 0.61112 0.02214 0.74789 0.0
C293 C 0.61487 0.0423 0.77727 0.0
H294 H 0.5846 0.03076 0.79066 0.0
H295 H 0.61449 0.01435 0.7319 0.0
C296 C 0.56237 0.97054 0.74033 0.0
N297 N 0.54868 0.94788 0.74821 0.0
C298 C 0.55 0.96936 0.72657 0.0
C299 C 0.56784 0.96013 0.75768 0.0
C300 C 0.54321 0.95784 0.73096 0.0
C301 C 0.56075 0.94877 0.7615 0.0
C302 C 0.55733 0.01547 0.75353 0.0
C303 C 0.54706 0.00687 0.74987 0.0
C304 C 0.55484 0.02856 0.75874 0.0
C305 C 0.53444 0.01151 0.75144 0.0
C306 C 0.54208 0.03284 0.76013 0.0
N307 N 0.53223 0.0243 0.75649 0.0
C308 C 0.56066 0.00344 0.83248 0.0
C309 C 0.55269 0.9826 0.81934 0.0
C310 C 0.5522 0.00449 0.85983 0.0
N311 N 0.56069 0.99269 0.81272 0.0
C312 C 0.54396 0.98329 0.84631 0.0
C313 C 0.54357 0.99441 0.86664 0.0
H314 H 0.567 0.01138 0.82632 0.0
H315 H 0.55279 0.97417 0.80339 0.0
C316 C 0.56126 0.99 0.65541 0.0
N317 N 0.56227 0.00067 0.67524 0.0
C318 C 0.55351 0.99017 0.62652 0.0
C319 C 0.5482 0.01243 0.63862 0.0
C320 C 0.5562 0.01187 0.66713 0.0
C321 C 0.54668 0.00141 0.61824 0.0
H322 H 0.56629 0.98128 0.66255 0.0
H323 H 0.55738 0.02028 0.68305 0.0
O324 O 0.59072 0.99261 0.7835 0.0
O325 O 0.59123 -0.00149 0.70825 0.0
O326 O 0.56917 0.98172 0.73591 0.0
O327 O 0.5698 0.01118 0.75233 0.0
H328 H 0.59524 0.01092 0.82892 0.0
H329 H 0.58587 0.97079 0.81619 0.0
H330 H 0.59429 0.00791 0.8915 0.0
H331 H 0.58503 0.96848 0.87897 0.0
H332 H 0.58817 0.03307 0.63765 0.0
H333 H 0.59593 0.98635 0.65021 0.0
H334 H 0.58764 0.02327 0.69527 0.0
H335 H 0.5962 0.99678 0.59336 0.0
H336 H 0.62081 0.94979 0.76096 0.0
H337 H 0.60182 0.94933 0.66272 0.0
H338 H 0.59841 0.04911 0.80648 0.0
H339 H 0.62898 0.03249 0.7456 0.0
H340 H 0.54567 0.97725 0.7126 0.0
H341 H 0.57744 0.96078 0.76812 0.0
H342 H 0.53361 0.95682 0.72057 0.0
H343 H 0.56485 0.94066 0.775 0.0
H344 H 0.54879 0.99673 0.746 0.0
H345 H 0.56269 0.03535 0.76162 0.0
H346 H 0.52641 0.00495 0.74868 0.0
H347 H 0.54001 0.04295 0.76412 0.0
H348 H 0.55207 0.01329 0.87463 0.0
H349 H 0.53748 0.97529 0.85098 0.0
H350 H 0.55248 0.98145 0.61158 0.0
H351 H 0.54315 0.02129 0.63274 0.0
Li352 Li 0.7476 0.67024 0.02944 0.0
Li353 Li 0.73542 0.65404 -0.00296 0.0
Li354 Li 0.75842 0.65424 0.99181 0.0
Li355 Li 0.7457 0.67116 0.96918 0.0
C356 C 0.74304 0.64193 0.05406 0.0
N357 N 0.73114 0.62311 0.09273 0.0
C358 C 0.73173 0.64474 0.07197 0.0
C359 C 0.74837 0.62959 0.05618 0.0
C360 C 0.72583 0.63508 0.09125 0.0
C361 C 0.74219 0.6202 0.0758 0.0
C362 C 0.724 0.68119 0.98727 0.0
C363 C 0.70839 0.68651 0.94407 0.0
N364 N 0.70943 0.69917 0.95258 0.0
C365 C 0.72487 0.69424 0.99575 0.0
C366 C 0.71566 0.67725 0.96135 0.0
C367 C 0.71744 0.70319 0.97784 0.0
C368 C 0.75255 0.69297 0.06386 0.0
N369 N 0.74868 0.6806 0.06882 0.0
C370 C 0.74481 0.68469 0.12771 0.0
C371 C 0.74512 0.67626 0.10005 0.0
C372 C 0.74838 0.69766 0.12318 0.0
C373 C 0.75259 0.70167 0.09084 0.0
H374 H 0.75536 0.69613 0.03868 0.0
H375 H 0.74223 0.66635 0.10342 0.0
C376 C 0.72378 0.62989 0.99507 0.0
N377 N 0.7213 0.64263 -0.00042 0.0
C378 C 0.71468 0.62072 0.00476 0.0
C379 C 0.70025 0.63803 0.02067 0.0
C380 C 0.7097 0.64688 0.01107 0.0
C381 C 0.70292 0.62478 0.01875 0.0
H382 H 0.73318 0.62686 0.98622 0.0
H383 H 0.70813 0.65707 0.01502 0.0
C384 C 0.77295 0.67563 0.01229 0.0
N385 N 0.79584 0.68067 0.04569 0.0
C386 C 0.78141 0.68497 -0.0003 0.0
C387 C 0.77612 0.66887 0.04195 0.0
C388 C 0.79294 0.68737 0.01693 0.0
C389 C 0.78774 0.67156 0.05844 0.0
C390 C 0.75171 0.65132 0.92461 0.0
C391 C 0.76267 0.65863 0.91702 0.0
C392 C 0.74734 0.64214 0.9013 0.0
C393 C 0.76905 0.65664 0.88616 0.0
C394 C 0.75399 0.64043 0.8707 0.0
N395 N 0.76462 0.64766 0.86383 0.0
C396 C 0.76918 0.63075 0.97675 0.0
C397 C 0.78475 0.64748 0.97704 0.0
C398 C 0.77817 0.62208 0.96373 0.0
N399 N 0.77256 0.64319 0.9828 0.0
C400 C 0.79409 0.63912 0.96417 0.0
C401 C 0.79073 0.62632 0.95661 0.0
H402 H 0.7593 0.62773 0.98045 0.0
H403 H 0.78712 0.65752 0.98055 0.0
C404 C 0.75034 0.69505 0.94075 0.0
N405 N 0.74484 0.68347 0.93372 0.0
C406 C 0.75079 0.70463 0.91598 0.0
C407 C 0.73979 0.69023 0.87721 0.0
C408 C 0.73947 0.68093 0.9029 0.0
C409 C 0.7456 0.70222 0.88362 0.0
H410 H 0.75449 0.69676 0.96559 0.0
H411 H 0.73507 0.67165 0.89818 0.0
O412 O 0.74877 0.65116 0.03425 0.0
O413 O 0.73145 0.67231 0.00385 0.0
O414 O 0.7616 0.67333 0.99564 0.0
O415 O 0.74535 0.65286 0.95489 0.0
H416 H 0.72737 0.6542 0.07026 0.0
H417 H 0.75719 0.62728 0.04288 0.0
H418 H 0.71699 0.63708 0.10484 0.0
H419 H 0.74619 0.61059 0.07755 0.0
H420 H 0.70195 0.68362 0.9238 0.0
H421 H 0.7313 0.69743 0.01572 0.0
H422 H 0.71496 0.66719 0.95435 0.0
H423 H 0.71807 0.71334 0.98397 0.0
H424 H 0.7414 0.68116 0.15203 0.0
H425 H 0.75572 0.71147 0.08624 0.0
H426 H 0.71703 0.61057 0.00283 0.0
H427 H 0.69133 0.6415 0.03172 0.0
H428 H 0.77909 0.6903 0.97681 0.0
H429 H 0.76973 0.66163 0.05222 0.0
H430 H 0.79959 0.69457 0.00743 0.0
H431 H 0.79031 0.6664 0.08139 0.0
H432 H 0.76626 0.66575 0.9347 0.0
H433 H 0.73891 0.63635 0.90687 0.0
H434 H 0.77754 0.66222 0.87999 0.0
H435 H 0.75071 0.63335 0.85244 0.0
H436 H 0.77522 0.61227 0.95833 0.0
H437 H 0.80361 0.64281 0.95841 0.0
H438 H 0.75549 0.71369 0.92181 0.0
H439 H 0.73559 0.68807 0.85263 0.0
Li440 Li 0.08729 0.98156 0.74946 0.0
Li441 Li 0.07137 0.99645 0.77204 0.0
Li442 Li 0.07335 0.99259 0.71112 0.0
Li443 Li 0.08958 0.00471 0.7417 0.0
C444 C 0.06615 0.96778 0.75535 0.0
N445 N 0.06292 0.94231 0.7741 0.0
C446 C 0.06144 0.96471 0.7877 0.0
C447 C 0.0691 0.95791 0.73243 0.0
C448 C 0.0599 0.95176 0.79671 0.0
C449 C 0.06744 0.94509 0.74243 0.0
C450 C 0.09992 0.00027 0.80054 0.0
C451 C 0.10962 0.01757 0.83254 0.0
N452 N 0.1213 0.01173 0.82946 0.0
C453 C 0.112 0.99442 0.79777 0.0
C454 C 0.09869 0.01191 0.81815 0.0
C455 C 0.1227 0.00037 0.81255 0.0
C456 C 0.10506 0.96095 0.73925 0.0
N457 N 0.09638 0.96643 0.76073 0.0
C458 C 0.10193 0.95175 0.80504 0.0
C459 C 0.09467 0.96205 0.79299 0.0
C460 C 0.11122 0.94608 0.78385 0.0
C461 C 0.11267 0.95067 0.75041 0.0
H462 H 0.10638 0.96484 0.71396 0.0
H463 H 0.08795 0.96688 0.80973 0.0
C464 C 0.04687 -0.00087 0.80182 0.0
N465 N 0.05973 -0.00117 0.80837 0.0
C466 C 0.03807 6e-05 0.82851 0.0
C467 C 0.05591 -0.00019 0.8682 0.0
C468 C 0.06438 -0.00083 0.84069 0.0
C469 C 0.04261 0.00026 0.8621 0.0
H470 H 0.04345 -0.00164 0.77592 0.0
H471 H 0.07464 -0.00141 0.84511 0.0
C472 C 0.09389 0.99006 0.67368 0.0
N473 N 0.09591 0.98897 0.60362 0.0
C474 C 0.09716 0.0011 0.65518 0.0
C475 C 0.09171 0.97845 0.65657 0.0
C476 C 0.09813 0.00035 0.61977 0.0
C477 C 0.09275 0.9781 0.62113 0.0
C478 C 0.06161 0.01733 0.74372 0.0
C479 C 0.04995 0.01696 0.72593 0.0
C480 C 0.06297 0.02567 0.77146 0.0
C481 C 0.03982 0.02492 0.73628 0.0
C482 C 0.0526 0.03345 0.78105 0.0
N483 N 0.04134 0.03292 0.7634 0.0
C484 C 0.0561 0.98192 0.66295 0.0
C485 C 0.06446 0.00262 0.64978 0.0
C486 C 0.04794 0.98242 0.63477 0.0
N487 N 0.06397 0.99203 0.67007 0.0
C488 C 0.05647 0.00353 0.6214 0.0
C489 C 0.04786 0.99347 0.61404 0.0
H490 H 0.05582 0.97369 0.67981 0.0
H491 H 0.07064 0.01061 0.6566 0.0
C492 C 0.11395 0.01499 0.72908 0.0
N493 N 0.10165 0.01821 0.73733 0.0
C494 C 0.12292 0.02458 0.72156 0.0
C495 C 0.10649 0.04061 0.73237 0.0
C496 C 0.09782 0.0307 0.73952 0.0
C497 C 0.11915 0.03758 0.72249 0.0
H498 H 0.11663 0.00494 0.72704 0.0
H499 H 0.08795 0.03296 0.74572 0.0
O500 O 0.06792 0.98039 0.74622 0.0
O501 O 0.08938 0.99477 0.78553 0.0
O502 O 0.09266 0.99064 0.7083 0.0
O503 O 0.07163 0.00955 0.73414 0.0
H504 H 0.05912 0.97221 0.80578 0.0
H505 H 0.07278 0.96011 0.70734 0.0
H506 H 0.05633 0.94924 0.82171 0.0
H507 H 0.06977 0.93735 0.72504 0.0
H508 H 0.10883 0.02661 0.84609 0.0
H509 H 0.11315 0.98546 0.78402 0.0
H510 H 0.08941 0.01658 0.82043 0.0
H511 H 0.13213 0.99599 0.81048 0.0
H512 H 0.10073 0.94867 0.8312 0.0
H513 H 0.11977 0.94655 0.73341 0.0
H514 H 0.02784 0.00016 0.82307 0.0
H515 H 0.05968 -0.00013 0.89391 0.0
H516 H 0.09877 0.01019 0.66796 0.0
H517 H 0.08913 0.96983 0.67049 0.0
H518 H 0.10059 0.00883 0.60511 0.0
H519 H 0.09103 0.9692 0.60754 0.0
H520 H 0.04865 0.01051 0.70462 0.0
H521 H 0.07186 0.02598 0.78578 0.0
H522 H 0.03073 0.02469 0.72281 0.0
H523 H 0.05349 0.03987 0.80261 0.0
H524 H 0.04152 0.97441 0.62979 0.0
H525 H 0.05657 0.01232 0.60647 0.0
H526 H 0.1325 0.02179 0.7135 0.0
H527 H 0.10323 0.05051 0.73372 0.0
Li528 Li 0.76022 0.33917 0.50001 0.0
Li529 Li 0.74679 0.32225 0.51697 0.0
Li530 Li 0.75325 0.32514 0.45729 0.0
Li531 Li 0.73757 0.34049 0.48308 0.0
C532 C 0.77625 0.31892 0.50721 0.0
N533 N 0.80135 0.31586 0.52922 0.0
C534 C 0.77875 0.31432 0.54001 0.0
C535 C 0.78651 0.32176 0.48543 0.0
C536 C 0.79151 0.31289 0.5507 0.0
C537 C 0.79914 0.32021 0.49708 0.0
C538 C 0.74835 0.34967 0.55268 0.0
C539 C 0.75426 0.37172 0.56445 0.0
N540 N 0.75708 0.36839 0.5971 0.0
C541 C 0.75129 0.34647 0.58637 0.0
C542 C 0.7498 0.3624 0.54163 0.0
C543 C 0.75568 0.35607 0.60843 0.0
C544 C 0.77841 0.35954 0.49584 0.0
N545 N 0.77441 0.34937 0.51498 0.0
C546 C 0.78929 0.35476 0.55902 0.0
C547 C 0.77967 0.34685 0.54594 0.0
C548 C 0.79342 0.36549 0.54022 0.0
C549 C 0.78795 0.36781 0.50811 0.0
H550 H 0.77392 0.36144 0.47152 0.0
H551 H 0.77605 0.33898 0.56114 0.0
C552 C 0.74805 0.29767 0.54461 0.0
N553 N 0.74303 0.3096 0.54977 0.0
C554 C 0.74694 0.28825 0.56969 0.0
C555 C 0.73499 0.30342 0.60424 0.0
C556 C 0.73628 0.31254 0.57835 0.0
C557 C 0.74065 0.29119 0.60039 0.0
H558 H 0.7533 0.29565 0.52143 0.0
H559 H 0.73229 0.3221 0.58147 0.0
C560 C 0.7559 0.34695 0.42232 0.0
N561 N 0.7613 0.35156 0.35452 0.0
C562 C 0.74634 0.35176 0.40072 0.0
C563 C 0.76827 0.34471 0.40958 0.0
C564 C 0.74924 0.35397 0.36649 0.0
C565 C 0.77079 0.34703 0.37519 0.0
C566 C 0.72783 0.3117 0.48092 0.0
C567 C 0.73104 0.29942 0.46908 0.0
C568 C 0.71656 0.31349 0.49976 0.0
C569 C 0.7229 0.28906 0.47647 0.0
C570 C 0.70867 0.30289 0.50664 0.0
N571 N 0.71198 0.29099 0.49496 0.0
C572 C 0.76499 0.3062 0.41669 0.0
C573 C 0.74764 0.31748 0.39104 0.0
C574 C 0.76527 0.29742 0.38981 0.0
N575 N 0.75609 0.31579 0.41703 0.0
C576 C 0.74768 0.30904 0.36347 0.0
C577 C 0.75628 0.29857 0.36321 0.0
H578 H 0.77131 0.30487 0.43826 0.0
H579 H 0.74041 0.32496 0.3926 0.0
C580 C 0.71946 0.36128 0.4868 0.0
N581 N 0.72255 0.34982 0.47217 0.0
C582 C 0.709 0.36838 0.47461 0.0
C583 C 0.70484 0.35145 0.43374 0.0
C584 C 0.71534 0.3447 0.44669 0.0
C585 C 0.70173 0.36359 0.4472 0.0
H586 H 0.72529 0.36509 0.5072 0.0
H587 H 0.71806 0.33555 0.43559 0.0
O588 O 0.76381 0.32035 0.49625 0.0
O589 O 0.74426 0.34035 0.53052 0.0
O590 O 0.75321 0.34461 0.45586 0.0
O591 O 0.73582 0.32191 0.47465 0.0
H592 H 0.77094 0.31209 0.55726 0.0
H593 H 0.78476 0.3251 0.45981 0.0
H594 H 0.79358 0.30946 0.57612 0.0
H595 H 0.80717 0.32244 0.48055 0.0
H596 H 0.75556 0.38158 0.55614 0.0
H597 H 0.75037 0.33664 0.59529 0.0
H598 H 0.74785 0.36499 0.51545 0.0
H599 H 0.75806 0.35372 0.63452 0.0
H600 H 0.79305 0.35282 0.58422 0.0
H601 H 0.7909 0.37601 0.49292 0.0
H602 H 0.75122 0.27887 0.56541 0.0
H603 H 0.73011 0.3061 0.62756 0.0
H604 H 0.73677 0.35375 0.41022 0.0
H605 H 0.77583 0.3412 0.42605 0.0
H606 H 0.74191 0.35761 0.34944 0.0
H607 H 0.78031 0.34525 0.36494 0.0
H608 H 0.73978 0.29788 0.45459 0.0
H609 H 0.71399 0.32296 0.5092 0.0
H610 H 0.72528 0.27948 0.46759 0.0
H611 H 0.69994 0.3041 0.52132 0.0
H612 H 0.77191 0.28938 0.391 0.0
H613 H 0.74069 0.31038 0.34334 0.0
H614 H 0.70697 0.37774 0.48556 0.0
H615 H 0.69937 0.34733 0.41292 0.0
Li616 Li 0.40522 0.01162 0.25647 0.0
Li617 Li 0.42135 0.99651 0.27345 0.0
Li618 Li 0.42053 0.00413 0.21579 0.0
Li619 Li 0.4044 0.98972 0.23659 0.0
C620 C 0.42713 0.02667 0.24792 0.0
N621 N 0.43341 0.05159 0.22938 0.0
C622 C 0.43768 0.03285 0.26287 0.0
C623 C 0.41978 0.03317 0.22351 0.0
C624 C 0.44069 0.04545 0.25317 0.0
C625 C 0.42311 0.04576 0.21449 0.0
C626 C 0.4002 -0.0009 0.31719 0.0
C627 C 0.38708 -0.00252 0.36771 0.0
N628 N 0.395 0.00598 0.38375 0.0
C629 C 0.40821 0.00781 0.33419 0.0
C630 C 0.38955 0.99388 0.33407 0.0
C631 C 0.40543 0.01117 0.36783 0.0
C632 C 0.38255 0.02616 0.26258 0.0
N633 N 0.39513 0.02563 0.27192 0.0
C634 C 0.39254 0.04378 0.30857 0.0
C635 C 0.40028 0.0343 0.294 0.0
C636 C 0.3794 0.04438 0.30021 0.0
C637 C 0.37446 0.03555 0.27637 0.0
H638 H 0.37874 0.01907 0.24507 0.0
H639 H 0.41029 0.03359 0.30129 0.0
C640 C 0.44531 0.99628 0.30272 0.0
N641 N 0.43316 0.9918 0.30766 0.0
C642 C 0.45469 0.99442 0.32753 0.0
C643 C 0.43895 0.98304 0.3617 0.0
C644 C 0.42988 0.985 0.33597 0.0
C645 C 0.45147 0.98796 0.35775 0.0
H646 H 0.44758 0.0016 0.27981 0.0
H647 H 0.42016 0.98142 0.339 0.0
C648 C 0.39797 0.00242 0.17712 0.0
N649 N 0.39048 0.99566 0.11202 0.0
C650 C 0.40508 0.99337 0.15861 0.0
C651 C 0.38705 0.00803 0.1625 0.0
C652 C 0.40114 0.99008 0.12575 0.0
C653 C 0.38342 0.00449 0.12955 0.0
C654 C 0.42586 0.97372 0.24 0.0
C655 C 0.43554 0.9671 0.22251 0.0
C656 C 0.41913 0.96754 0.26616 0.0
C657 C 0.43831 0.95436 0.23147 0.0
C658 C 0.42219 0.9548 0.27436 0.0
N659 N 0.43164 0.94853 0.25699 0.0
C660 C 0.44358 0.00359 0.18223 0.0
C661 C 0.42777 0.01532 0.15149 0.0
C662 C 0.45249 0.00533 0.15619 0.0
N663 N 0.43147 0.00839 0.17919 0.0
C664 C 0.43637 0.0172 0.12457 0.0
C665 C 0.44886 0.01204 0.1267 0.0
H666 H 0.4462 -0.00183 0.20472 0.0
H667 H 0.4181 0.01917 0.14999 0.0
C668 C 0.38131 0.97567 0.23835 0.0
N669 N 0.3933 0.97602 0.2245 0.0
C670 C 0.37262 0.96607 0.22868 0.0
C671 C 0.38886 0.95739 0.19091 0.0
C672 C 0.39723 0.96709 0.20143 0.0
C673 C 0.37633 0.95684 0.20438 0.0
H674 H 0.37847 0.98294 0.25658 0.0
H675 H 0.4068 0.96764 0.19066 0.0
O676 O 0.42415 0.01431 0.25721 0.0
O677 O 0.40262 0.9957 0.28413 0.0
O678 O 0.40151 0.00576 0.20949 0.0
O679 O 0.42311 0.98621 0.23141 0.0
H680 H 0.44346 0.02794 0.2818 0.0
H681 H 0.41158 0.02858 0.21166 0.0
H682 H 0.44883 0.05035 0.26454 0.0
H683 H 0.41751 0.0509 0.19565 0.0
H684 H 0.37887 0.99352 0.38107 0.0
H685 H 0.41652 0.01194 0.32164 0.0
H686 H 0.38325 0.98712 0.32127 0.0
H687 H 0.41155 0.0179 0.38126 0.0
H688 H 0.39673 0.05022 0.32722 0.0
H689 H 0.36442 0.03577 0.26885 0.0
H690 H 0.46421 -0.00153 0.32373 0.0
H691 H 0.43617 0.97793 0.3846 0.0
H692 H 0.41357 0.98893 0.1694 0.0
H693 H 0.38143 0.01504 0.17651 0.0
H694 H 0.40656 0.98309 0.11117 0.0
H695 H 0.37499 0.00875 0.11794 0.0
H696 H 0.44083 0.97176 0.2022 0.0
H697 H 0.41159 0.97247 0.27998 0.0
H698 H 0.44578 0.94912 0.21813 0.0
H699 H 0.41706 0.94989 0.29454 0.0
H700 H 0.46198 0.00107 0.15861 0.0
H701 H 0.43328 0.02251 0.10228 0.0
H702 H 0.3631 0.96592 0.23998 0.0
H703 H 0.39206 0.95064 0.17168 0.0
Li704 Li 0.73759 0.83766 0.51415 0.0
Li705 Li 0.75987 0.83777 0.48755 0.0
Li706 Li 0.74473 0.82081 0.47653 0.0
Li707 Li 0.75419 0.82241 0.53123 0.0
C708 C 0.73871 0.83929 0.43233 0.0
N709 N 0.73094 0.83827 0.36509 0.0
C710 C 0.74746 0.84203 0.40625 0.0
C711 C 0.72596 0.83623 0.42422 0.0
C712 C 0.74336 0.84142 0.37242 0.0
C713 C 0.72223 0.8357 0.39008 0.0
C714 C 0.76289 0.84285 0.56231 0.0
C715 C 0.78423 0.84148 0.58633 0.0
N716 N 0.77931 0.84444 0.61747 0.0
C717 C 0.75805 0.84591 0.5945 0.0
C718 C 0.77608 0.84064 0.55811 0.0
C719 C 0.76651 0.84665 0.62209 0.0
C720 C 0.72132 0.84636 0.56461 0.0
N721 N 0.72395 0.84764 0.53094 0.0
C722 C 0.70717 0.86316 0.52441 0.0
C723 C 0.71711 0.85573 0.51061 0.0
C724 C 0.70449 0.86229 0.55937 0.0
C725 C 0.71162 0.85371 0.57953 0.0
H726 H 0.72682 0.83965 0.57985 0.0
H727 H 0.71944 0.85647 0.48384 0.0
C728 C 0.78193 0.84285 0.44888 0.0
N729 N 0.77282 0.84827 0.46913 0.0
C730 C 0.79132 0.85054 0.43361 0.0
C731 C 0.78174 0.8692 0.46058 0.0
C732 C 0.77257 0.86114 0.4754 0.0
C733 C 0.79122 0.86391 0.43919 0.0
H734 H 0.78174 0.83259 0.44408 0.0
H735 H 0.76515 0.86512 0.49164 0.0
C736 C 0.72467 0.81278 0.52445 0.0
N737 N 0.70154 0.79988 0.53207 0.0
C738 C 0.72423 0.80103 0.54187 0.0
C739 C 0.71332 0.81802 0.51119 0.0
C740 C 0.71245 0.79464 0.54537 0.0
C741 C 0.70173 0.81133 0.51523 0.0
C742 C 0.7672 0.80647 0.48642 0.0
C743 C 0.75884 0.79665 0.49673 0.0
C744 C 0.77951 0.80333 0.47459 0.0
C745 C 0.76293 0.78383 0.495 0.0
C746 C 0.78325 0.79039 0.47325 0.0
N747 N 0.77494 0.781 0.48339 0.0
C748 C 0.74835 0.80944 0.41412 0.0
C749 C 0.7304 0.80041 0.44289 0.0
C750 C 0.74682 0.80085 0.38724 0.0
N751 N 0.74018 0.80913 0.44114 0.0
C752 C 0.72866 0.79145 0.41678 0.0
C753 C 0.73698 0.79162 0.38864 0.0
H754 H 0.75628 0.81621 0.4139 0.0
H755 H 0.72415 0.80013 0.46476 0.0
C756 C 0.75055 0.81315 0.59567 0.0
N757 N 0.75948 0.81333 0.57043 0.0
C758 C 0.75253 0.8057 0.62461 0.0
C759 C 0.77313 0.79907 0.60162 0.0
C760 C 0.77079 0.80679 0.57313 0.0
C761 C 0.7638 0.79831 0.62749 0.0
H762 H 0.74168 0.81851 0.5927 0.0
H763 H 0.7778 0.80726 0.55284 0.0
O764 O 0.74262 0.83965 0.46559 0.0
O765 O 0.75474 0.84166 0.53516 0.0
O766 O 0.73612 0.81919 0.52114 0.0
O767 O 0.76345 0.81912 0.48776 0.0
H768 H 0.75734 0.84449 0.41201 0.0
H769 H 0.71903 0.83419 0.44401 0.0
H770 H 0.75006 0.84342 0.35198 0.0
H771 H 0.71242 0.83324 0.38344 0.0
H772 H 0.79445 0.83973 0.58351 0.0
H773 H 0.74787 0.84763 0.5982 0.0
H774 H 0.77996 0.83812 0.53342 0.0
H775 H 0.7629 0.84897 0.64718 0.0
H776 H 0.70188 0.86973 0.50818 0.0
H777 H 0.70969 0.85269 0.6065 0.0
H778 H 0.79836 0.84612 0.41694 0.0
H779 H 0.78144 0.87945 0.46579 0.0
H780 H 0.7329 0.79687 0.55256 0.0
H781 H 0.71344 0.82713 0.49795 0.0
H782 H 0.71198 0.78552 0.5587 0.0
H783 H 0.69289 0.81527 0.50501 0.0
H784 H 0.7493 0.79884 0.50593 0.0
H785 H 0.78613 0.8108 0.4666 0.0
H786 H 0.75654 0.77615 0.50288 0.0
H787 H 0.79275 0.78783 0.46417 0.0
H788 H 0.75357 0.8011 0.3662 0.0
H789 H 0.72099 0.78439 0.41866 0.0
H790 H 0.74502 0.80524 0.64374 0.0
H791 H 0.78197 0.79356 0.60312 0.0
Li792 Li 0.40501 0.50999 0.73873 0.0
Li793 Li 0.40468 0.48635 0.75704 0.0
Li794 Li 0.42072 0.50103 0.77733 0.0
Li795 Li 0.42121 0.4947 0.7197 0.0
C796 C 0.40118 0.50561 0.81802 0.0
N797 N 0.40089 0.5122 0.88615 0.0
C798 C 0.40025 0.49603 0.84291 0.0
C799 C 0.40176 0.51856 0.82774 0.0
C800 C 0.40017 0.49955 0.87723 0.0
C801 C 0.40165 0.52169 0.86233 0.0
C802 C 0.40233 0.4887 0.67935 0.0
C803 C 0.4045 0.4702 0.64268 0.0
N804 N 0.40367 0.47806 0.61504 0.0
C805 C 0.40142 0.49659 0.65063 0.0
C806 C 0.40382 0.47539 0.67544 0.0
C807 C 0.40215 0.49102 0.6183 0.0
C808 C 0.39999 0.53087 0.69735 0.0
N809 N 0.39525 0.52415 0.72425 0.0
C810 C 0.37655 0.5375 0.72629 0.0
C811 C 0.38384 0.52726 0.73906 0.0
C812 C 0.38112 0.54452 0.69812 0.0
C813 C 0.39309 0.54119 0.68393 0.0
H814 H 0.40911 0.5281 0.68618 0.0
H815 H 0.38032 0.52165 0.76034 0.0
C816 C 0.39931 0.46382 0.79202 0.0
N817 N 0.3943 0.47234 0.76937 0.0
C818 C 0.39167 0.45396 0.80513 0.0
C819 C 0.37399 0.46158 0.77037 0.0
C820 C 0.38198 0.47135 0.75799 0.0
C821 C 0.37876 0.45287 0.79475 0.0
H822 H 0.40911 0.46501 0.80085 0.0
H823 H 0.3783 0.47833 0.74 0.0
C824 C 0.43035 0.52336 0.74084 0.0
N825 N 0.44383 0.54623 0.74707 0.0
C826 C 0.44309 0.52421 0.72942 0.0
C827 C 0.42441 0.53422 0.75494 0.0
C828 C 0.44975 0.53583 0.73296 0.0
C829 C 0.4314 0.54567 0.75799 0.0
C830 C 0.43576 0.47909 0.76199 0.0
C831 C 0.44596 0.48781 0.75894 0.0
C832 C 0.43836 0.46604 0.76764 0.0
C833 C 0.45861 0.48334 0.76157 0.0
C834 C 0.45115 0.46194 0.77009 0.0
N835 N 0.46093 0.4706 0.76703 0.0
C836 C 0.4318 0.49313 0.83743 0.0
C837 C 0.43743 0.51473 0.82446 0.0
C838 C 0.43979 0.49321 0.86586 0.0
N839 N 0.43092 0.5037 0.8171 0.0
C840 C 0.4456 0.51522 0.85265 0.0
C841 C 0.44699 0.50429 0.87342 0.0
H842 H 0.42649 0.48449 0.83102 0.0
H843 H 0.43654 0.52306 0.80834 0.0
C844 C 0.43334 0.50189 0.66065 0.0
N845 N 0.43173 0.49156 0.68143 0.0
C846 C 0.44144 0.50109 0.63256 0.0
C847 C 0.446 0.47891 0.64748 0.0
C848 C 0.43765 0.48011 0.67518 0.0
C849 C 0.44803 0.48955 0.626 0.0
H850 H 0.42843 0.51084 0.6663 0.0
H851 H 0.43603 0.47199 0.69189 0.0
O852 O 0.40158 0.50233 0.78432 0.0
O853 O 0.40207 0.49398 0.71119 0.0
O854 O 0.42362 0.5121 0.73699 0.0
O855 O 0.42326 0.4832 0.75949 0.0
H856 H 0.39974 0.48597 0.83583 0.0
H857 H 0.40228 0.5261 0.80882 0.0
H858 H 0.39957 0.49223 0.89678 0.0
H859 H 0.40217 0.53167 0.87022 0.0
H860 H 0.40573 0.45992 0.63924 0.0
H861 H 0.40031 0.50692 0.65328 0.0
H862 H 0.40462 0.46918 0.69749 0.0
H863 H 0.40154 0.49702 0.59582 0.0
H864 H 0.3673 0.53964 0.73772 0.0
H865 H 0.39707 0.54646 0.66258 0.0
H866 H 0.39569 0.44761 0.82427 0.0
H867 H 0.36414 0.46099 0.76142 0.0
H868 H 0.44777 0.51599 0.71779 0.0
H869 H 0.41454 0.53382 0.76355 0.0
H870 H 0.45963 0.5366 0.72436 0.0
H871 H 0.42694 0.55412 0.76902 0.0
H872 H 0.44413 0.49792 0.75478 0.0
H873 H 0.43057 0.45916 0.77 0.0
H874 H 0.46659 0.48999 0.75929 0.0
H875 H 0.4533 0.45186 0.77442 0.0
H876 H 0.44068 0.48453 0.88098 0.0
H877 H 0.45089 0.524 0.85791 0.0
H878 H 0.44288 0.50954 0.61681 0.0
H879 H 0.45087 0.46983 0.64299 0.0
Li880 Li 0.74682 0.17384 0.97006 0.0
Li881 Li 0.74095 0.1711 0.02922 0.0
Li882 Li 0.7565 0.15625 -0.00023 0.0
Li883 Li 0.73348 0.15533 0.98685 0.0
C884 C 0.76531 0.18553 0.00244 0.0
N885 N 0.77912 0.20735 0.98521 0.0
C886 C 0.76181 0.19752 0.01579 0.0
C887 C 0.77591 0.18461 0.98062 0.0
C888 C 0.7689 0.20845 0.00671 0.0
C889 C 0.78274 0.19577 0.97212 0.0
C890 C 0.71693 0.17694 -0.00018 0.0
C891 C 0.69749 0.17152 0.03028 0.0
N892 N 0.69199 0.18267 0.01927 0.0
C893 C 0.71106 0.18829 0.98858 0.0
C894 C 0.71008 0.16845 0.02066 0.0
C895 C 0.69845 0.19104 -0.00121 0.0
C896 C 0.75405 0.18366 0.90561 0.0
N897 N 0.74881 0.18659 0.93632 0.0
C898 C 0.74402 0.20799 0.91801 0.0
C899 C 0.74395 0.19848 0.94307 0.0
C900 C 0.74908 0.20517 0.88571 0.0
C901 C 0.75434 0.19289 0.87978 0.0
H902 H 0.75765 0.17407 0.90084 0.0
H903 H 0.73979 0.20047 0.96776 0.0
C904 C 0.74465 0.1755 0.09807 0.0
N905 N 0.73801 0.17977 0.07051 0.0
C906 C 0.74478 0.18271 0.12799 0.0
C907 C 0.73085 0.19834 0.10083 0.0
C908 C 0.73101 0.19083 0.07142 0.0
C909 C 0.73809 0.19446 0.12927 0.0
H910 H 0.75032 0.16677 0.09625 0.0
H911 H 0.72619 0.19423 0.04878 0.0
C912 C 0.75487 0.14686 0.93628 0.0
N913 N 0.76868 0.12861 0.90029 0.0
C914 C 0.74926 0.13498 0.92831 0.0
C915 C 0.76746 0.1495 0.92566 0.0
C916 C 0.75641 0.12587 0.91015 0.0
C917 C 0.7743 0.14013 0.90759 0.0
C918 C 0.7376 0.14289 0.05308 0.0
C919 C 0.74226 0.13027 0.05127 0.0
C920 C 0.72868 0.14615 0.07838 0.0
C921 C 0.73775 0.12106 0.07433 0.0
C922 C 0.72441 0.13666 0.10098 0.0
N923 N 0.72899 0.12442 0.09849 0.0
C924 C 0.78108 0.15225 0.02624 0.0
C925 C 0.77222 0.13372 -0.00021 0.0
C926 C 0.79161 0.14513 0.03777 0.0
N927 N 0.77156 0.14641 0.00816 0.0
C928 C 0.78259 0.12625 0.0107 0.0
C929 C 0.79228 0.13188 0.03074 0.0
H930 H 0.7802 0.16231 0.03303 0.0
H931 H 0.76444 0.12923 0.98591 0.0
C932 C 0.71242 0.15006 0.94657 0.0
N933 N 0.71966 0.1449 0.97195 0.0
C934 C 0.70263 0.14286 0.9315 0.0
C935 C 0.70785 0.12519 0.96925 0.0
C936 C 0.71752 0.13276 0.98368 0.0
C937 C 0.70038 0.13019 0.94251 0.0
H938 H 0.7145 0.15968 0.93747 0.0
H939 H 0.72351 0.1288 0.00348 0.0
O940 O 0.75835 0.17476 0.01051 0.0
O941 O 0.72928 0.17416 0.99006 0.0
O942 O 0.74802 0.1559 0.95399 0.0
O943 O 0.7421 0.15211 0.03108 0.0
H944 H 0.75364 0.1984 0.03272 0.0
H945 H 0.77879 0.17539 0.97027 0.0
H946 H 0.76626 0.2178 0.01669 0.0
H947 H 0.79092 0.19521 0.95511 0.0
H948 H 0.69208 0.16502 0.04641 0.0
H949 H 0.71619 0.19494 0.97222 0.0
H950 H 0.71436 0.15951 0.02896 0.0
H951 H 0.69381 0.19982 0.9904 0.0
H952 H 0.74 0.21738 0.9237 0.0
H953 H 0.75817 0.19028 0.85508 0.0
H954 H 0.75043 0.17938 0.14944 0.0
H955 H 0.72579 0.20747 0.10054 0.0
H956 H 0.73952 0.13279 0.93612 0.0
H957 H 0.77194 0.15864 0.93157 0.0
H958 H 0.75221 0.11662 0.90391 0.0
H959 H 0.78407 0.14202 0.89941 0.0
H960 H 0.74915 0.12755 0.03199 0.0
H961 H 0.72514 0.15591 0.08076 0.0
H962 H 0.74122 0.11123 0.073 0.0
H963 H 0.71749 0.13906 0.12058 0.0
H964 H 0.79877 0.14982 0.05354 0.0
H965 H 0.78281 0.11608 0.00443 0.0
H966 H 0.69722 0.147 0.91061 0.0
H967 H 0.70635 0.11548 0.97858 0.0
Li968 Li 0.09102 0.51015 0.25319 0.0
Li969 Li 0.09027 0.48619 0.23773 0.0
Li970 Li 0.07476 0.5016 0.21534 0.0
Li971 Li 0.07424 0.49624 0.27355 0.0
C972 C 0.09428 0.50599 0.17579 0.0
N973 N 0.09399 0.51479 0.10945 0.0
C974 C 0.09497 0.49725 0.1488 0.0
C975 C 0.09352 0.5192 0.16912 0.0
C976 C 0.09479 0.50189 0.11541 0.0
C977 C 0.09338 0.52346 0.13537 0.0
C978 C 0.09299 0.49104 0.31623 0.0
C979 C 0.09178 0.47464 0.35964 0.0
N980 N 0.092 0.48395 0.38398 0.0
C981 C 0.09338 0.50044 0.34167 0.0
C982 C 0.09233 0.47802 0.32524 0.0
C983 C 0.0928 0.49667 0.37578 0.0
C984 C 0.0973 0.53201 0.28966 0.0
N985 N 0.10165 0.52404 0.26482 0.0
C986 C 0.12172 0.5352 0.26239 0.0
C987 C 0.1135 0.52552 0.25066 0.0
C988 C 0.11771 0.54328 0.28914 0.0
C989 C 0.10522 0.54171 0.3024 0.0
H990 H 0.08782 0.5305 0.30043 0.0
H991 H 0.11665 0.51899 0.23086 0.0
C992 C 0.09559 0.46408 0.20066 0.0
N993 N 0.10011 0.4717 0.22611 0.0
C994 C 0.10298 0.45381 0.18877 0.0
C995 C 0.11948 0.45942 0.22972 0.0
C996 C 0.11171 0.46953 0.24103 0.0
C997 C 0.11517 0.45153 0.20298 0.0
H998 H 0.08639 0.46621 0.18903 0.0
H999 H 0.11504 0.47586 0.26107 0.0
C1000 C 0.06033 0.51866 0.25437 0.0
N1001 N 0.03566 0.52865 0.25616 0.0
C1002 C 0.04969 0.51049 0.25152 0.0
C1003 C 0.05844 0.53192 0.25822 0.0
C1004 C 0.03729 0.51572 0.25248 0.0
C1005 C 0.04589 0.53679 0.25903 0.0
C1006 C 0.06423 0.47374 0.23882 0.0
C1007 C 0.05149 0.47351 0.2272 0.0
C1008 C 0.06947 0.46271 0.25389 0.0
C1009 C 0.04413 0.46235 0.23157 0.0
C1010 C 0.0618 0.45173 0.25776 0.0
N1011 N 0.04939 0.45179 0.24666 0.0
C1012 C 0.06246 0.49395 0.15673 0.0
C1013 C 0.0599 0.5163 0.16765 0.0
C1014 C 0.05453 0.49478 0.12828 0.0
N1015 N 0.06481 0.50457 0.17595 0.0
C1016 C 0.05182 0.51756 0.13943 0.0
C1017 C 0.04894 0.50666 0.11964 0.0
H1018 H 0.06659 0.48477 0.16395 0.0
H1019 H 0.06211 0.52462 0.18317 0.0
C1020 C 0.06234 0.5055 0.33136 0.0
N1021 N 0.06339 0.49456 0.31251 0.0
C1022 C 0.0539 0.50604 0.35885 0.0
C1023 C 0.04802 0.48388 0.34789 0.0
C1024 C 0.05663 0.48376 0.32062 0.0
C1025 C 0.04641 0.4952 0.36702 0.0
H1026 H 0.06794 0.51391 0.32462 0.0
H1027 H 0.05767 0.47512 0.30573 0.0
O1028 O 0.09402 0.50164 0.2086 0.0
O1029 O 0.09323 0.49455 0.28267 0.0
O1030 O 0.07258 0.5138 0.25349 0.0
O1031 O 0.07163 0.48453 0.23423 0.0
H1032 H 0.0955 0.48699 0.15359 0.0
H1033 H 0.0929 0.52607 0.18979 0.0
H1034 H 0.09524 0.49524 0.09424 0.0
H1035 H 0.09272 0.53365 0.12979 0.0
H1036 H 0.09119 0.4646 0.36697 0.0
H1037 H 0.09396 0.51055 0.33517 0.0
H1038 H 0.09226 0.47062 0.30592 0.0
H1039 H 0.09297 0.50386 0.39573 0.0
H1040 H 0.13118 0.53619 0.25105 0.0
H1041 H 0.10176 0.54753 0.32336 0.0
H1042 H 0.09941 0.44807 0.16776 0.0
H1043 H 0.12882 0.4579 0.24136 0.0
H1044 H 0.05099 0.50023 0.24884 0.0
H1045 H 0.06659 0.53838 0.26048 0.0
H1046 H 0.02897 0.50949 0.25033 0.0
H1047 H 0.04428 0.54703 0.26194 0.0
H1048 H 0.04733 0.48183 0.21474 0.0
H1049 H 0.07933 0.46261 0.26262 0.0
H1050 H 0.03425 0.46207 0.22283 0.0
H1051 H 0.06573 0.44317 0.26955 0.0
H1052 H 0.05243 0.48611 0.11395 0.0
H1053 H 0.04778 0.52691 0.13333 0.0
H1054 H 0.05316 0.51489 0.37335 0.0
H1055 H 0.04238 0.47532 0.3532 0.0
Li1056 Li 0.24644 0.17242 0.52175 0.0
Li1057 Li 0.23431 0.15381 0.50839 0.0
Li1058 Li 0.25775 0.15472 0.49667 0.0
Li1059 Li 0.24216 0.16822 0.46367 0.0
C1060 C 0.24416 0.15384 0.57362 0.0
N1061 N 0.23428 0.15118 0.63857 0.0
C1062 C 0.23347 0.16109 0.58373 0.0
C1063 C 0.24982 0.14524 0.59654 0.0
C1064 C 0.22862 0.15961 0.61667 0.0
C1065 C 0.24469 0.14403 0.62927 0.0
C1066 C 0.21707 0.17262 0.48698 0.0
C1067 C 0.20085 0.16498 0.44791 0.0
N1068 N 0.1923 0.17352 0.46131 0.0
C1069 C 0.20813 0.18132 0.50036 0.0
C1070 C 0.21342 0.16438 0.46056 0.0
C1071 C 0.19565 0.18163 0.48704 0.0
C1072 C 0.24117 0.19696 0.54669 0.0
N1073 N 0.24812 0.18614 0.55301 0.0
C1074 C 0.25658 0.19519 0.60411 0.0
C1075 C 0.25583 0.18508 0.58079 0.0
C1076 C 0.24937 0.20647 0.59853 0.0
C1077 C 0.2417 0.20733 0.56915 0.0
H1078 H 0.23521 0.19751 0.52415 0.0
H1079 H 0.26128 0.17634 0.585 0.0
C1080 C 0.22419 0.12946 0.52113 0.0
N1081 N 0.22141 0.14224 0.52284 0.0
C1082 C 0.21575 0.12043 0.53513 0.0
C1083 C 0.20165 0.13791 0.55174 0.0
C1084 C 0.21038 0.14659 0.53753 0.0
C1085 C 0.2044 0.12466 0.55108 0.0
H1086 H 0.23315 0.12633 0.50972 0.0
H1087 H 0.20858 0.15682 0.53949 0.0
C1088 C 0.2655 0.18385 0.49119 0.0
N1089 N 0.27826 0.2062 0.50921 0.0
C1090 C 0.26139 0.19573 0.47839 0.0
C1091 C 0.27615 0.1833 0.51292 0.0
C1092 C 0.26796 0.20693 0.48786 0.0
C1093 C 0.28245 0.19472 0.52179 0.0
C1094 C 0.24358 0.14145 0.43834 0.0
C1095 C 0.25477 0.14041 0.41873 0.0
C1096 C 0.23267 0.1343 0.42938 0.0
C1097 C 0.2548 0.13243 0.3901 0.0
C1098 C 0.23308 0.12642 0.40056 0.0
N1099 N 0.24404 0.12566 0.38166 0.0
C1100 C 0.27282 0.13258 0.50493 0.0
C1101 C 0.28282 0.14963 0.47451 0.0
C1102 C 0.28312 0.12439 0.49773 0.0
N1103 N 0.27279 0.14483 0.49271 0.0
C1104 C 0.29328 0.14176 0.46651 0.0
C1105 C 0.29337 0.12886 0.47746 0.0
H1106 H 0.26461 0.12906 0.51915 0.0
H1107 H 0.28238 0.15937 0.46471 0.0
C1108 C 0.23111 0.18558 0.41571 0.0
N1109 N 0.23995 0.17606 0.42041 0.0
C1110 C 0.23106 0.19274 0.38568 0.0
C1111 C 0.24925 0.18025 0.36589 0.0
C1112 C 0.24889 0.17328 0.39622 0.0
C1113 C 0.24039 0.19027 0.36064 0.0
H1114 H 0.22455 0.18815 0.43589 0.0
H1115 H 0.25619 0.16612 0.40122 0.0
O1116 O 0.24903 0.15496 0.54137 0.0
O1117 O 0.22926 0.17214 0.50022 0.0
O1118 O 0.25899 0.17284 0.48297 0.0
O1119 O 0.24342 0.14902 0.46688 0.0
H1120 H 0.22892 0.16777 0.56637 0.0
H1121 H 0.25808 0.13952 0.58905 0.0
H1122 H 0.22034 0.16515 0.6248 0.0
H1123 H 0.24897 0.1374 0.64727 0.0
H1124 H 0.19791 0.15868 0.42741 0.0
H1125 H 0.2108 0.18773 0.52093 0.0
H1126 H 0.22022 0.15769 0.44972 0.0
H1127 H 0.18862 0.18831 0.49717 0.0
H1128 H 0.2625 0.19405 0.62661 0.0
H1129 H 0.23617 0.21593 0.56355 0.0
H1130 H 0.21816 0.11028 0.53396 0.0
H1131 H 0.19313 0.14157 0.56436 0.0
H1132 H 0.25314 0.1963 0.46163 0.0
H1133 H 0.27939 0.17417 0.52314 0.0
H1134 H 0.26485 0.2162 0.47834 0.0
H1135 H 0.29065 0.19446 0.53878 0.0
H1136 H 0.26334 0.14576 0.42541 0.0
H1137 H 0.22399 0.13477 0.44459 0.0
H1138 H 0.26338 0.1316 0.37462 0.0
H1139 H 0.22469 0.12087 0.39328 0.0
H1140 H 0.28289 0.11457 0.50708 0.0
H1141 H 0.30084 0.14556 0.45037 0.0
H1142 H 0.22429 0.20062 0.38297 0.0
H1143 H 0.25664 0.17812 0.34725 0.0
Li1144 Li 0.57294 0.50161 0.27912 0.0
Li1145 Li 0.5884 0.48705 0.25809 0.0
Li1146 Li 0.58992 0.50986 0.2444 0.0
Li1147 Li 0.57271 0.4964 0.22047 0.0
C1148 C 0.59446 0.49714 0.32139 0.0
N1149 N 0.60048 0.48754 0.38505 0.0
C1150 C 0.58652 0.48793 0.33674 0.0
C1151 C 0.60547 0.50145 0.3384 0.0
C1152 C 0.58973 0.4832 0.36893 0.0
C1153 C 0.60835 0.49649 0.37058 0.0
C1154 C 0.56634 0.47278 0.24615 0.0
C1155 C 0.56984 0.45534 0.20659 0.0
N1156 N 0.55979 0.44882 0.2207 0.0
C1157 C 0.55605 0.46591 0.26022 0.0
C1158 C 0.5733 0.46746 0.21908 0.0
C1159 C 0.55289 0.45381 0.24701 0.0
C1160 C 0.54919 0.50052 0.3095 0.0
N1161 N 0.56134 0.50481 0.31534 0.0
C1162 C 0.55577 0.51112 0.37185 0.0
C1163 C 0.56474 0.5103 0.34545 0.0
C1164 C 0.54322 0.50639 0.36682 0.0
C1165 C 0.53991 0.50125 0.33497 0.0
H1166 H 0.54681 0.49624 0.28519 0.0
H1167 H 0.57446 0.51377 0.34922 0.0
C1168 C 0.61078 0.47177 0.25905 0.0
N1169 N 0.59826 0.47229 0.26902 0.0
C1170 C 0.61867 0.46169 0.27006 0.0
C1171 C 0.60051 0.45281 0.30075 0.0
C1172 C 0.59297 0.46297 0.28897 0.0
C1173 C 0.61358 0.45221 0.29177 0.0
H1174 H 0.61473 0.47941 0.24344 0.0
H1175 H 0.58301 0.46364 0.29674 0.0
C1176 C 0.56492 0.52357 0.25647 0.0
N1177 N 0.55168 0.54267 0.29086 0.0
C1178 C 0.55206 0.52618 0.24841 0.0
C1179 C 0.57107 0.53075 0.28184 0.0
C1180 C 0.54553 0.53585 0.26615 0.0
C1181 C 0.56421 0.54034 0.29896 0.0
C1182 C 0.59542 0.49902 0.1815 0.0
C1183 C 0.58952 0.50983 0.16698 0.0
C1184 C 0.60534 0.49276 0.16403 0.0
C1185 C 0.59365 0.51417 0.13512 0.0
C1186 C 0.60917 0.49739 0.1322 0.0
N1187 N 0.6033 0.50791 0.11854 0.0
C1188 C 0.61412 0.52033 0.23021 0.0
C1189 C 0.59677 0.53501 0.22384 0.0
C1190 C 0.62268 0.52923 0.21616 0.0
N1191 N 0.60142 0.5233 0.23324 0.0
C1192 C 0.60501 0.54426 0.2101 0.0
C1193 C 0.6181 0.54131 0.20525 0.0
H1194 H 0.61744 0.51079 0.23713 0.0
H1195 H 0.58658 0.537 0.22555 0.0
C1196 C 0.54891 0.4958 0.19026 0.0
N1197 N 0.56151 0.49347 0.18337 0.0
C1198 C 0.53969 0.49475 0.16469 0.0
C1199 C 0.55652 0.48824 0.12569 0.0
C1200 C 0.56542 0.48937 0.15215 0.0
C1201 C 0.5435 0.49116 0.13174 0.0
H1202 H 0.54607 0.49862 0.21566 0.0
H1203 H 0.57542 0.48708 0.14761 0.0
O1204 O 0.59168 0.50183 0.28966 0.0
O1205 O 0.56943 0.48467 0.25888 0.0
O1206 O 0.57143 0.51394 0.24002 0.0
O1207 O 0.59181 0.49473 0.21304 0.0
H1208 H 0.57798 0.48445 0.32398 0.0
H1209 H 0.61174 0.50855 0.32679 0.0
H1210 H 0.58366 0.47607 0.38109 0.0
H1211 H 0.61684 0.49974 0.38403 0.0
H1212 H 0.57514 0.45111 0.18567 0.0
H1213 H 0.55056 0.4699 0.28115 0.0
H1214 H 0.58129 0.47258 0.20779 0.0
H1215 H 0.54495 0.44839 0.25768 0.0
H1216 H 0.55863 0.51525 0.39602 0.0
H1217 H 0.53038 0.49737 0.33021 0.0
H1218 H 0.62875 0.46161 0.26285 0.0
H1219 H 0.59622 0.4456 0.3172 0.0
H1220 H 0.54717 0.52083 0.22867 0.0
H1221 H 0.581 0.52879 0.28855 0.0
H1222 H 0.53556 0.53795 0.26025 0.0
H1223 H 0.56882 0.5459 0.31881 0.0
H1224 H 0.58185 0.51483 0.18006 0.0
H1225 H 0.61004 0.48443 0.17502 0.0
H1226 H 0.58918 0.52252 0.1236 0.0
H1227 H 0.61684 0.49264 0.11839 0.0
H1228 H 0.63264 0.52644 0.21241 0.0
H1229 H 0.60108 0.55349 0.2025 0.0
H1230 H 0.52976 0.49713 0.17043 0.0
H1231 H 0.55978 0.48519 0.10078 0.0
Li1232 Li 0.24313 0.82285 0.03072 0.0
Li1233 Li 0.25607 0.84016 0.01232 0.0
Li1234 Li 0.2332 0.84 0.00014 0.0
Li1235 Li 0.24788 0.82487 0.97199 0.0
C1236 C 0.24623 0.84319 0.07728 0.0
N1237 N 0.25609 0.8478 0.14149 0.0
C1238 C 0.25623 0.83555 0.09002 0.0
C1239 C 0.24127 0.85318 0.09719 0.0
C1240 C 0.26107 0.83803 0.12254 0.0
C1241 C 0.24637 0.85536 0.1296 0.0
C1242 C 0.2722 0.81993 0.99542 0.0
C1243 C 0.28888 0.82615 0.9559 0.0
N1244 N 0.29646 0.81646 0.96789 0.0
C1245 C 0.28015 0.81003 0.00731 0.0
C1246 C 0.27659 0.82806 0.96947 0.0
C1247 C 0.29239 0.80844 0.99309 0.0
C1248 C 0.24528 0.79806 0.05423 0.0
N1249 N 0.24086 0.80983 0.06387 0.0
C1250 C 0.23466 0.80168 0.11825 0.0
C1251 C 0.2354 0.8118 0.0949 0.0
C1252 C 0.23934 0.78946 0.10907 0.0
C1253 C 0.24453 0.78765 0.07648 0.0
H1254 H 0.2495 0.79683 0.02926 0.0
H1255 H 0.23176 0.82122 0.10163 0.0
C1256 C 0.26893 0.86381 0.01559 0.0
N1257 N 0.26988 0.85115 0.02401 0.0
C1258 C 0.27827 0.87254 0.02659 0.0
C1259 C 0.28945 0.85495 0.05421 0.0
C1260 C 0.27995 0.84656 0.04248 0.0
C1261 C 0.28859 0.86817 0.0467 0.0
H1262 H 0.26074 0.86715 0.00101 0.0
H1263 H 0.28041 0.83646 0.0491 0.0
C1264 C 0.22135 0.81413 0.00694 0.0
N1265 N 0.20283 0.79916 0.0385 0.0
C1266 C 0.21943 0.80137 -0.00326 0.0
C1267 C 0.2138 0.81931 0.03304 0.0
C1268 C 0.21004 0.79395 0.01306 0.0
C1269 C 0.2045 0.81158 0.04871 0.0
C1270 C 0.24282 0.84832 0.93805 0.0
C1271 C 0.23271 0.84167 0.92236 0.0
C1272 C 0.24771 0.8595 0.92299 0.0
C1273 C 0.22767 0.84634 0.89178 0.0
C1274 C 0.24241 0.86385 0.89237 0.0
N1275 N 0.23259 0.85724 0.87754 0.0
C1276 C 0.22008 0.86345 0.99662 0.0
C1277 C 0.20796 0.84535 0.97817 0.0
C1278 C 0.21047 0.87182 0.98525 0.0
N1279 N 0.21872 0.85053 0.99234 0.0
C1280 C 0.1981 0.85334 0.96663 0.0
C1281 C 0.19944 0.86677 0.96937 0.0
H1282 H 0.22888 0.86725 0.00741 0.0
H1283 H 0.20733 0.83506 0.97411 0.0
C1284 C 0.24979 0.80215 0.93722 0.0
N1285 N 0.25131 0.81503 0.93263 0.0
C1286 C 0.25108 0.79373 0.90988 0.0
C1287 C 0.25615 0.81195 0.87379 0.0
C1288 C 0.25482 0.82003 0.90199 0.0
C1289 C 0.25404 0.79864 0.87751 0.0
H1290 H 0.24735 0.79847 0.96215 0.0
H1291 H 0.25641 0.83027 0.89926 0.0
O1292 O 0.24142 0.84114 0.04532 0.0
O1293 O 0.26019 0.82149 0.0092 0.0
O1294 O 0.23075 0.82147 0.99202 0.0
O1295 O 0.24774 0.84417 0.96847 0.0
H1296 H 0.26023 0.82779 0.07501 0.0
H1297 H 0.23356 0.85922 0.08763 0.0
H1298 H 0.26881 0.83219 0.13268 0.0
H1299 H 0.24262 0.86306 0.14527 0.0
H1300 H 0.2924 0.83236 0.93582 0.0
H1301 H 0.27688 0.80365 0.02736 0.0
H1302 H 0.27062 0.83577 0.95985 0.0
H1303 H 0.29864 0.80082 0.00207 0.0
H1304 H 0.23052 0.80335 0.14317 0.0
H1305 H 0.24834 0.77839 0.06868 0.0
H1306 H 0.27731 0.88262 0.01983 0.0
H1307 H 0.2971 0.85117 0.07008 0.0
H1308 H 0.22513 0.79721 0.97649 0.0
H1309 H 0.21524 0.82914 0.04145 0.0
H1310 H 0.20848 0.78404 0.00551 0.0
H1311 H 0.19864 0.81544 0.06908 0.0
H1312 H 0.22879 0.833 0.93356 0.0
H1313 H 0.25549 0.86478 0.9349 0.0
H1314 H 0.21985 0.8413 0.87937 0.0
H1315 H 0.2461 0.8725 0.88044 0.0
H1316 H 0.21182 0.88212 0.98793 0.0
H1317 H 0.18986 0.84908 0.95397 0.0
H1318 H 0.24931 0.78355 0.91384 0.0
H1319 H 0.25867 0.81606 0.84933 0.0
Li1320 Li 0.92119 0.49529 0.77809 0.0
Li1321 Li 0.90468 0.50864 0.7508 0.0
Li1322 Li 0.90449 0.48537 0.74496 0.0
Li1323 Li 0.92063 0.49765 0.71824 0.0
C1324 C 0.8991 0.50135 0.81708 0.0
N1325 N 0.89239 0.51373 0.87677 0.0
C1326 C 0.90602 0.51217 0.82795 0.0
C1327 C 0.88876 0.49686 0.83652 0.0
C1328 C 0.90247 0.51829 0.85821 0.0
C1329 C 0.88552 0.50324 0.86665 0.0
C1330 C 0.92992 0.5203 0.73287 0.0
C1331 C 0.93027 0.53568 0.68679 0.0
N1332 N 0.94314 0.53737 0.69163 0.0
C1333 C 0.94313 0.52224 0.7375 0.0
C1334 C 0.92342 0.5271 0.70738 0.0
C1335 C 0.94965 0.53089 0.71634 0.0
C1336 C 0.94521 0.49484 0.80703 0.0
N1337 N 0.93259 0.49346 0.81524 0.0
C1338 C 0.93785 0.49065 0.8739 0.0
C1339 C 0.92877 0.49101 0.84772 0.0
C1340 C 0.95094 0.49264 0.86633 0.0
C1341 C 0.95461 0.49452 0.8323 0.0
H1342 H 0.94795 0.49634 0.78078 0.0
H1343 H 0.91871 0.48945 0.85342 0.0
C1344 C 0.88114 0.52109 0.75791 0.0
N1345 N 0.89406 0.52312 0.75759 0.0
C1346 C 0.87282 0.53084 0.76856 0.0
C1347 C 0.89128 0.54473 0.77698 0.0
C1348 C 0.89924 0.53467 0.76645 0.0
C1349 C 0.8779 0.54278 0.77896 0.0
H1350 H 0.87736 0.51167 0.75147 0.0
H1351 H 0.90959 0.53589 0.76681 0.0
C1352 C 0.92562 0.47019 0.76038 0.0
N1353 N 0.93067 0.44725 0.79358 0.0
C1354 C 0.93522 0.46193 0.74828 0.0
C1355 C 0.91859 0.46679 0.78942 0.0
C1356 C 0.93762 0.45037 0.7654 0.0
C1357 C 0.92129 0.45515 0.80582 0.0
C1358 C 0.89853 0.49261 0.67914 0.0
C1359 C 0.90575 0.48221 0.6669 0.0
C1360 C 0.88761 0.49666 0.66131 0.0
C1361 C 0.90191 0.47604 0.63696 0.0
C1362 C 0.88409 0.49025 0.63145 0.0
N1363 N 0.89125 0.48015 0.62001 0.0
C1364 C 0.88069 0.47286 0.748 0.0
C1365 C 0.89747 0.46035 0.72374 0.0
C1366 C 0.87162 0.46348 0.7394 0.0
N1367 N 0.89327 0.47121 0.73953 0.0
C1368 C 0.88876 0.45073 0.71468 0.0
C1369 C 0.87559 0.45238 0.72181 0.0
H1370 H 0.87764 0.48171 0.76017 0.0
H1371 H 0.90748 0.45942 0.71655 0.0
C1372 C 0.94375 0.49354 0.68578 0.0
N1373 N 0.93188 0.49864 0.6805 0.0
C1374 C 0.95284 0.49355 0.65974 0.0
C1375 C 0.93734 0.50425 0.62339 0.0
C1376 C 0.92853 0.50403 0.65023 0.0
C1377 C 0.94965 0.49885 0.62797 0.0
H1378 H 0.94614 0.48948 0.71034 0.0
H1379 H 0.91902 0.5081 0.64691 0.0
O1380 O 0.90214 0.49535 0.78714 0.0
O1381 O 0.92339 0.51161 0.75265 0.0
O1382 O 0.92327 0.48156 0.74377 0.0
O1383 O 0.90188 0.49866 0.70881 0.0
H1384 H 0.91404 0.51581 0.81328 0.0
H1385 H 0.88326 0.48855 0.82832 0.0
H1386 H 0.90774 0.52666 0.86691 0.0
H1387 H 0.87753 0.49986 0.88195 0.0
H1388 H 0.92538 0.54094 0.66683 0.0
H1389 H 0.94832 0.51714 0.75717 0.0
H1390 H 0.91322 0.5256 0.70318 0.0
H1391 H 0.95988 0.53246 0.71957 0.0
H1392 H 0.93468 0.48891 0.89977 0.0
H1393 H 0.96458 0.49612 0.82536 0.0
H1394 H 0.8626 0.52882 0.77026 0.0
H1395 H 0.8956 0.5538 0.78443 0.0
H1396 H 0.94074 0.46443 0.72585 0.0
H1397 H 0.91112 0.47301 0.79924 0.0
H1398 H 0.94502 0.44388 0.75629 0.0
H1399 H 0.91593 0.45239 0.8283 0.0
H1400 H 0.91418 0.47886 0.68043 0.0
H1401 H 0.88189 0.50465 0.67056 0.0
H1402 H 0.90739 0.46797 0.62727 0.0
H1403 H 0.87565 0.49327 0.61742 0.0
H1404 H 0.86156 0.46506 0.74553 0.0
H1405 H 0.8922 0.44246 0.70056 0.0
H1406 H 0.9623 0.48952 0.66452 0.0
H1407 H 0.9345 0.50837 0.59921 0.0
H1408 H 0.27001 0.28188 0.15569 0.0
H1409 H 0.26831 0.2638 0.19545 0.0
H1410 H 0.22836 0.25882 0.16828 0.0
H1411 H 0.23004 0.27654 0.12769 0.0
H1412 H 0.23304 0.25888 0.23902 0.0
H1413 H 0.24902 0.23875 0.1367 0.0
H1414 H 0.2641 0.23616 0.08866 0.0
H1415 H 0.29529 0.22991 0.15855 0.0
H1416 H 0.28042 0.23265 0.20705 0.0
H1417 H 0.22126 0.19943 0.31942 0.0
H1418 H 0.22323 0.2158 0.2748 0.0
H1419 H 0.26431 0.21746 0.29151 0.0
H1420 H 0.26241 0.20101 0.33573 0.0
H1421 H 0.25915 0.21911 0.2255 0.0
H1422 H 0.24423 0.23955 0.32742 0.0
H1423 H 0.22998 0.2428 0.37691 0.0
H1424 H 0.19789 0.24938 0.31015 0.0
H1425 H 0.21192 0.24597 0.26022 0.0
C1426 C 0.2609 0.27687 0.15791 0.0
C1427 C 0.25016 0.28069 0.13852 0.0
C1428 C 0.25994 0.26658 0.18072 0.0
C1429 C 0.24823 0.25999 0.18459 0.0
C1430 C 0.23746 0.26386 0.16569 0.0
C1431 C 0.23843 0.27404 0.14268 0.0
C1432 C 0.24715 0.24904 0.2084 0.0
C1433 C 0.23861 0.2501 0.23588 0.0
C1434 C 0.2547 0.23778 0.20463 0.0
C1435 C 0.26363 0.23604 0.1755 0.0
C1436 C 0.25912 0.23693 0.14183 0.0
C1437 C 0.26762 0.23542 0.11452 0.0
C1438 C 0.28065 0.2329 0.12055 0.0
C1439 C 0.2852 0.23187 0.15392 0.0
C1440 C 0.27673 0.23339 0.18133 0.0
C1441 C 0.23071 0.20322 0.31329 0.0
C1442 C 0.24167 0.199 0.33107 0.0
C1443 C 0.23183 0.21257 0.2879 0.0
C1444 C 0.24389 0.21799 0.2803 0.0
C1445 C 0.25491 0.21339 0.297 0.0
C1446 C 0.25381 0.20397 0.32217 0.0
C1447 C 0.24496 0.22889 0.25615 0.0
C1448 C 0.25354 0.22785 0.22865 0.0
C1449 C 0.23755 0.24026 0.26013 0.0
C1450 C 0.2291 0.24237 0.2901 0.0
C1451 C 0.23411 0.24159 0.3233 0.0
C1452 C 0.22608 0.24348 0.35143 0.0
C1453 C 0.21303 0.24626 0.34668 0.0
C1454 C 0.20799 0.2472 0.31378 0.0
C1455 C 0.21599 0.2453 0.28556 0.0
H1456 H 0.20682 0.24772 0.36849 0.0
H1457 H 0.28722 0.23173 0.09937 0.0
H1458 H 0.97116 0.02178 0.36488 0.0
H1459 H 0.98871 0.02074 0.40634 0.0
H1460 H 0.96343 0.00192 0.47801 0.0
H1461 H 0.94575 0.00317 0.43693 0.0
H1462 H 0.9796 0.01954 0.50882 0.0
H1463 H 0.98245 0.98419 0.42922 0.0
H1464 H 0.98376 0.97452 0.37199 0.0
H1465 H 0.01906 0.9949 0.35296 0.0
H1466 H 0.01786 0.00485 0.40994 0.0
H1467 H 0.02241 0.98704 0.61673 0.0
H1468 H 0.00583 0.99147 0.57431 0.0
H1469 H 0.03438 0.00853 0.50835 0.0
H1470 H 0.05116 0.00373 0.55033 0.0
H1471 H 0.01741 0.99346 0.47336 0.0
H1472 H 0.01537 0.02761 0.55498 0.0
H1473 H 0.01404 0.03707 0.61244 0.0
H1474 H 0.97727 0.01899 0.62791 0.0
H1475 H 0.97848 0.00925 0.57072 0.0
C1476 C 0.96926 0.01772 0.38978 0.0
C1477 C 0.95713 0.01246 0.39764 0.0
C1478 C 0.97931 0.01704 0.4133 0.0
C1479 C 0.97739 0.01108 0.44495 0.0
C1480 C 0.9651 0.00651 0.45362 0.0
C1481 C 0.95505 0.00715 0.4301 0.0
C1482 C 0.98835 0.00875 0.46812 0.0
C1483 C 0.98783 0.01377 0.5012 0.0
C1484 C -0.00081 0.00144 0.4578 0.0
C1485 C -1e-05 0.99538 0.42368 0.0
C1486 C 0.99044 0.98669 0.41273 0.0
C1487 C 0.99117 0.98114 0.38035 0.0
C1488 C 0.00147 0.98412 0.35881 0.0
C1489 C 0.01108 0.99262 0.36965 0.0
C1490 C 0.01038 -0.00179 0.40198 0.0
C1491 C 0.02523 0.99148 0.59291 0.0
C1492 C 0.03809 0.99506 0.58689 0.0
C1493 C 0.01571 0.99415 0.56889 0.0
C1494 C 0.01886 0.00054 0.53853 0.0
C1495 C 0.03176 0.00368 0.53178 0.0
C1496 C 0.04131 0.001 0.55583 0.0
C1497 C 0.00861 0.00414 0.51422 0.0
C1498 C 0.00925 -0.00065 0.48091 0.0
C1499 C -0.00211 0.01166 0.52435 0.0
C1500 C -0.00293 0.01761 0.55865 0.0
C1501 C 0.00705 0.02557 0.57072 0.0
C1502 C 0.00631 0.031 0.60324 0.0
C1503 C 0.99559 0.02861 0.62384 0.0
C1504 C 0.98557 0.02082 0.61193 0.0
C1505 C 0.98627 0.01535 0.57945 0.0
H1506 H 0.99504 0.03282 0.64901 0.0
H1507 H 0.00202 0.97982 0.33376 0.0
H1508 H 0.24905 0.70305 0.67291 0.0
H1509 H 0.2515 0.71916 0.71767 0.0
H1510 H 0.23032 0.74667 0.65714 0.0
H1511 H 0.22783 0.73054 0.61211 0.0
H1512 H 0.25223 0.75695 0.68182 0.0
H1513 H 0.21666 0.73297 0.72686 0.0
H1514 H 0.20486 0.71349 0.74488 0.0
H1515 H 0.23407 0.70538 0.81926 0.0
H1516 H 0.24614 0.72472 0.80135 0.0
H1517 H 0.24332 0.80293 0.81514 0.0
H1518 H 0.24109 0.78754 0.76841 0.0
H1519 H 0.26236 0.75924 0.82605 0.0
H1520 H 0.26467 0.7746 0.87287 0.0
H1521 H 0.23998 0.74964 0.80236 0.0
H1522 H 0.27565 0.77354 0.75687 0.0
H1523 H 0.28741 0.79304 0.73881 0.0
H1524 H 0.25791 0.80137 0.66539 0.0
H1525 H 0.24588 0.782 0.68334 0.0
C1526 C 0.24468 0.71244 0.66941 0.0
C1527 C 0.2382 0.71552 0.63907 0.0
C1528 C 0.24613 0.72165 0.69496 0.0
C1529 C 0.24101 0.73407 0.69079 0.0
C1530 C 0.23436 0.73713 0.66077 0.0
C1531 C 0.23295 0.72793 0.63513 0.0
C1532 C 0.24308 0.74399 0.71725 0.0
C1533 C 0.24937 0.75545 0.7081 0.0
C1534 C 0.23963 0.74186 0.75163 0.0
C1535 C 0.23236 0.73024 0.76254 0.0
C1536 C 0.22062 0.72698 0.74687 0.0
C1537 C 0.21387 0.71597 0.75711 0.0
C1538 C 0.21873 0.70818 0.78315 0.0
C1539 C 0.23033 0.71141 0.79907 0.0
C1540 C 0.23712 0.7224 0.78891 0.0
C1541 C 0.24779 0.79353 0.81752 0.0
C1542 C 0.25413 0.78994 0.84767 0.0
C1543 C 0.24647 0.78474 0.79086 0.0
C1544 C 0.25158 0.77227 0.79381 0.0
C1545 C 0.2583 0.76881 0.8234 0.0
C1546 C 0.2596 0.77757 0.85008 0.0
C1547 C 0.24921 0.76256 0.76698 0.0
C1548 C 0.24283 0.75114 0.77608 0.0
C1549 C 0.25257 0.76475 0.73258 0.0
C1550 C 0.2598 0.77639 0.72169 0.0
C1551 C 0.27162 0.77959 0.73707 0.0
C1552 C 0.27834 0.79061 0.72681 0.0
C1553 C 0.2734 0.79846 0.70103 0.0
C1554 C 0.26173 0.79529 0.68539 0.0
C1555 C 0.25495 0.78429 0.69557 0.0
H1556 H 0.27862 0.80698 0.69312 0.0
H1557 H 0.21349 0.69966 0.79103 0.0
H1558 H 0.47442 0.01819 0.12834 0.0
H1559 H 0.48992 0.01654 0.08162 0.0
H1560 H 0.45923 0.00593 0.01301 0.0
H1561 H 0.4437 0.00737 0.05981 0.0
H1562 H 0.4795 0.98899 0.01153 0.0
H1563 H 0.47333 0.03473 0.00498 0.0
H1564 H 0.47221 0.05693 0.02719 0.0
H1565 H 0.51187 0.05478 0.05781 0.0
H1566 H 0.51319 0.03249 0.03621 0.0
H1567 H 0.51791 0.9892 0.86213 0.0
H1568 H 0.50135 0.99309 0.90515 0.0
H1569 H 0.53042 0.00701 0.97462 0.0
H1570 H 0.54701 0.0033 0.93138 0.0
H1571 H 0.51033 0.02271 0.97417 0.0
H1572 H 0.51653 0.97707 0.98419 0.0
H1573 H 0.51804 0.95463 0.96386 0.0
H1574 H 0.47884 0.95628 0.92914 0.0
H1575 H 0.47715 0.9788 0.94886 0.0
C1576 C 0.47097 0.01565 0.10319 0.0
C1577 C 0.45789 0.01286 0.09766 0.0
C1578 C 0.47981 0.01479 0.07652 0.0
C1579 C 0.47569 0.01115 0.0439 0.0
C1580 C 0.46257 0.00878 0.03804 0.0
C1581 C 0.45371 0.0097 0.06468 0.0
C1582 C 0.48523 0.00886 0.01666 0.0
C1583 C 0.4861 0.99642 0.00286 0.0
C1584 C 0.49407 0.01846 0.00631 0.0
C1585 C 0.49332 0.03189 0.01922 0.0
C1586 C 0.48179 0.03895 0.0167 0.0
C1587 C 0.48112 0.05156 0.02913 0.0
C1588 C 0.49195 0.05725 0.04397 0.0
C1589 C 0.50349 0.05035 0.04633 0.0
C1590 C 0.5042 0.03774 0.03396 0.0
C1591 C 0.52078 0.9929 0.88677 0.0
C1592 C 0.53373 0.99589 0.89355 0.0
C1593 C 0.51132 0.99515 0.91128 0.0
C1594 C 0.51468 0.00024 0.94319 0.0
C1595 C 0.52763 0.00311 0.95012 0.0
C1596 C 0.53708 0.00097 0.92549 0.0
C1597 C 0.50464 0.00282 0.96907 0.0
C1598 C 0.50369 0.0153 0.98266 0.0
C1599 C 0.49579 0.99322 0.9795 0.0
C1600 C 0.49676 0.97966 0.96769 0.0
C1601 C 0.50827 0.97268 0.97198 0.0
C1602 C 0.50914 0.95994 0.9606 0.0
C1603 C 0.49855 0.95404 0.94513 0.0
C1604 C 0.48704 0.96087 0.94109 0.0
C1605 C 0.48612 0.97361 0.95238 0.0
H1606 H 0.49925 0.94418 0.93635 0.0
H1607 H 0.49142 0.06701 0.05359 0.0
H1608 H 0.23073 0.76489 0.09972 0.0
H1609 H 0.2328 0.74669 0.13932 0.0
H1610 H 0.25084 0.77171 0.21294 0.0
H1611 H 0.24867 0.78995 0.17363 0.0
H1612 H 0.26445 0.74781 0.19723 0.0
H1613 H 0.22207 0.76374 0.22832 0.0
H1614 H 0.19962 0.77007 0.21634 0.0
H1615 H 0.19152 0.732 0.17912 0.0
H1616 H 0.214 0.7255 0.19044 0.0
H1617 H 0.26487 0.71318 0.35085 0.0
H1618 H 0.26324 0.72827 0.30344 0.0
H1619 H 0.23691 0.70248 0.25232 0.0
H1620 H 0.23816 0.68756 0.30063 0.0
H1621 H 0.22751 0.72525 0.25096 0.0
H1622 H 0.26863 0.70822 0.22305 0.0
H1623 H 0.29105 0.7012 0.23243 0.0
H1624 H 0.30179 0.73987 0.25914 0.0
H1625 H 0.27939 0.7471 0.25039 0.0
C1626 C 0.23503 0.76649 0.12449 0.0
C1627 C 0.23952 0.77877 0.1338 0.0
C1628 C 0.23619 0.75614 0.14699 0.0
C1629 C 0.24199 0.75792 0.17887 0.0
C1630 C 0.24635 0.7702 0.18835 0.0
C1631 C 0.24502 0.78059 0.16608 0.0
C1632 C 0.24381 0.74693 0.20212 0.0
C1633 C 0.25641 0.74291 0.2093 0.0
C1634 C 0.23327 0.74028 0.21654 0.0
C1635 C 0.21975 0.74418 0.20984 0.0
C1636 C 0.21554 0.75676 0.21727 0.0
C1637 C 0.2028 0.76037 0.21067 0.0
C1638 C 0.19416 0.75146 0.19687 0.0
C1639 C 0.19823 0.7389 0.18974 0.0
C1640 C 0.21097 0.73525 0.19627 0.0
C1641 C 0.25896 0.71062 0.32913 0.0
C1642 C 0.25167 0.69922 0.32919 0.0
C1643 C 0.25805 0.71922 0.30199 0.0
C1644 C 0.25008 0.71644 0.27405 0.0
C1645 C 0.24312 0.70482 0.2736 0.0
C1646 C 0.24386 0.69631 0.30106 0.0
C1647 C 0.24824 0.72616 0.2468 0.0
C1648 C 0.23561 0.72997 0.23871 0.0
C1649 C 0.25878 0.73247 0.23108 0.0
C1650 C 0.2723 0.72818 0.23628 0.0
C1651 C 0.27575 0.71521 0.23115 0.0
C1652 C 0.28846 0.7112 0.23632 0.0
C1653 C 0.29783 0.72008 0.24643 0.0
C1654 C 0.29452 0.733 0.25132 0.0
C1655 C 0.28182 0.73707 0.24621 0.0
H1656 H 0.30767 0.71695 0.25043 0.0
H1657 H 0.1843 0.75427 0.19179 0.0
H1658 H 0.47684 0.98116 0.35402 0.0
H1659 H 0.49301 0.98282 0.3992 0.0
H1660 H 0.46361 0.99525 0.4696 0.0
H1661 H 0.44742 0.99369 0.42447 0.0
H1662 H 0.48496 0.0115 0.46722 0.0
H1663 H 0.47591 0.96627 0.47874 0.0
H1664 H 0.47335 0.9439 0.45859 0.0
H1665 H 0.51288 0.94331 0.42628 0.0
H1666 H 0.51563 0.96575 0.4458 0.0
H1667 H 0.52186 0.00979 0.61893 0.0
H1668 H 0.50578 0.0074 0.57396 0.0
H1669 H 0.53447 0.99022 0.50856 0.0
H1670 H 0.55053 0.99234 0.55388 0.0
H1671 H 0.51343 0.97631 0.50789 0.0
H1672 H 0.52283 0.02121 0.49513 0.0
H1673 H 0.52577 0.04373 0.51362 0.0
H1674 H 0.48625 0.04533 0.54582 0.0
H1675 H 0.48312 0.02275 0.52795 0.0
C1676 C 0.47383 0.98409 0.37925 0.0
C1677 C 0.46091 0.9873 0.38583 0.0
C1678 C 0.48304 0.98499 0.40501 0.0
C1679 C 0.47946 0.98915 0.43764 0.0
C1680 C 0.46652 0.99201 0.44452 0.0
C1681 C 0.45728 0.99102 0.41885 0.0
C1682 C 0.48937 0.99125 0.464 0.0
C1683 C 0.49108 0.00379 0.47656 0.0
C1684 C 0.49757 0.98124 0.47515 0.0
C1685 C 0.49594 0.96774 0.46343 0.0
C1686 C 0.48403 0.96141 0.46706 0.0
C1687 C 0.48255 0.94871 0.45581 0.0
C1688 C 0.49293 0.9422 0.44108 0.0
C1689 C 0.50483 0.94837 0.43765 0.0
C1690 C 0.50637 0.96108 0.44884 0.0
C1691 C 0.52478 0.00573 0.59472 0.0
C1692 C 0.53742 0.00127 0.58975 0.0
C1693 C 0.5156 0.00436 0.56906 0.0
C1694 C 0.51896 -0.00128 0.5378 0.0
C1695 C 0.53167 0.99456 0.53252 0.0
C1696 C 0.54082 0.99579 0.55833 0.0
C1697 C 0.50906 0.9966 0.51126 0.0
C1698 C 0.50734 0.98406 0.49861 0.0
C1699 C 0.50092 0.00664 0.49977 0.0
C1700 C 0.50277 0.02024 0.51048 0.0
C1701 C 0.51479 0.02633 0.5064 0.0
C1702 C 0.51649 0.03911 0.51673 0.0
C1703 C 0.50621 0.04595 0.53097 0.0
C1704 C 0.49421 0.04002 0.53482 0.0
C1705 C 0.49246 0.02723 0.52457 0.0
H1706 H 0.50755 0.05585 0.53894 0.0
H1707 H 0.49177 0.93237 0.4324 0.0
H1708 H 0.27003 0.2158 0.63432 0.0
H1709 H 0.26995 0.23266 0.67786 0.0
H1710 H 0.22917 0.23824 0.66269 0.0
H1711 H 0.22906 0.22121 0.61979 0.0
H1712 H 0.24299 0.26135 0.66723 0.0
H1713 H 0.23855 0.22115 0.72794 0.0
H1714 H 0.24481 0.19903 0.74396 0.0
H1715 H 0.2812 0.21295 0.78082 0.0
H1716 H 0.27522 0.23514 0.76453 0.0
H1717 H 0.22692 0.29518 0.81838 0.0
H1718 H 0.22824 0.27999 0.77098 0.0
H1719 H 0.26777 0.27164 0.79701 0.0
H1720 H 0.26632 0.28626 0.84541 0.0
H1721 H 0.25523 0.2502 0.78574 0.0
H1722 H 0.25975 0.29044 0.72728 0.0
H1723 H 0.25391 0.31262 0.71086 0.0
H1724 H 0.21814 0.29901 0.66932 0.0
H1725 H 0.22369 0.27675 0.68593 0.0
C1726 C 0.26103 0.22056 0.64038 0.0
C1727 C 0.24954 0.21712 0.6237 0.0
C1728 C 0.26102 0.23022 0.6651 0.0
C1729 C 0.24953 0.2366 0.67352 0.0
C1730 C 0.23813 0.23344 0.65636 0.0
C1731 C 0.23811 0.22374 0.63179 0.0
C1732 C 0.2493 0.24628 0.70105 0.0
C1733 C 0.24554 0.25893 0.69324 0.0
C1734 C 0.25292 0.24311 0.7347 0.0
C1735 C 0.2565 0.22978 0.74468 0.0
C1736 C 0.24793 0.21948 0.73919 0.0
C1737 C 0.25142 0.20693 0.74837 0.0
C1738 C 0.26341 0.20458 0.76331 0.0
C1739 C 0.27192 0.21478 0.76919 0.0
C1740 C 0.26849 0.22735 0.76001 0.0
C1741 C 0.23587 0.29007 0.8141 0.0
C1742 C 0.24652 0.29196 0.83564 0.0
C1743 C 0.23666 0.2815 0.78676 0.0
C1744 C 0.24816 0.27481 0.78022 0.0
C1745 C 0.25882 0.27676 0.80151 0.0
C1746 C 0.25802 0.28523 0.82897 0.0
C1747 C 0.24893 0.26536 0.75206 0.0
C1748 C 0.25275 0.25271 0.75974 0.0
C1749 C 0.24544 0.26857 0.71826 0.0
C1750 C 0.24209 0.28194 0.70814 0.0
C1751 C 0.2506 0.29218 0.71488 0.0
C1752 C 0.24734 0.30477 0.7055 0.0
C1753 C 0.23565 0.30723 0.68913 0.0
C1754 C 0.22719 0.29709 0.68204 0.0
C1755 C 0.23039 0.28449 0.6914 0.0
H1756 H 0.23315 0.31698 0.68188 0.0
H1757 H 0.26609 0.19486 0.7704 0.0
H1758 H 0.04101 0.98269 0.91306 0.0
H1759 H 0.02486 0.98177 0.95869 0.0
H1760 H 0.00758 0.0168 0.92106 0.0
H1761 H 0.02352 0.01757 0.87476 0.0
H1762 H 0.01379 0.01338 -0.00076 0.0
H1763 H 0.99184 0.99505 0.90047 0.0
H1764 H 0.99039 0.97996 0.85214 0.0
H1765 H 0.99408 0.94787 0.92056 0.0
H1766 H 0.99577 0.96281 0.96926 0.0
H1767 H 0.95642 0.01547 0.09253 0.0
H1768 H 0.97234 0.01632 0.04731 0.0
H1769 H 0.9778 0.97517 0.05487 0.0
H1770 H 0.96098 0.97404 0.09816 0.0
H1771 H 0.97833 0.98136 0.99211 0.0
H1772 H -0.00063 -0.00215 0.09067 0.0
H1773 H 0.00237 0.01163 0.14119 0.0
H1774 H 0.00257 0.04534 0.07774 0.0
H1775 H -0.00062 0.03178 0.02685 0.0
C1776 C 0.03382 0.99023 0.91479 0.0
C1777 C 0.03343 0.00021 0.89066 0.0
C1778 C 0.02462 0.98968 0.94067 0.0
C1779 C 0.0151 -0.00079 0.94299 0.0
C1780 C 0.01491 0.00939 0.91951 0.0
C1781 C 0.02394 0.0098 0.89318 0.0
C1782 C 0.0051 -0.00167 0.96944 0.0
C1783 C 0.00592 0.00653 -0.00236 0.0
C1784 C 0.99521 0.98902 0.96764 0.0
C1785 C 0.99408 0.98005 0.93843 0.0
C1786 C 0.99248 0.98478 0.90516 0.0
C1787 C 0.99158 0.97626 0.87772 0.0
C1788 C 0.99218 0.96296 0.88326 0.0
C1789 C 0.99364 0.95817 0.91629 0.0
C1790 C 0.99456 0.96666 0.94382 0.0
C1791 C 0.96075 0.00652 0.08416 0.0
C1792 C 0.95736 0.99467 0.09915 0.0
C1793 C 0.97006 0.00707 0.05864 0.0
C1794 C 0.97651 0.99586 0.04825 0.0
C1795 C 0.97303 0.98397 0.06268 0.0
C1796 C 0.9635 0.98337 0.08774 0.0
C1797 C 0.98683 0.99655 0.02221 0.0
C1798 C 0.98615 0.98826 0.994 0.0
C1799 C 0.99704 0.0056 0.02444 0.0
C1800 C -0.00098 0.0138 0.05497 0.0
C1801 C -4e-05 0.00821 0.0875 0.0
C1802 C 0.00171 0.01598 0.11621 0.0
C1803 C 0.00263 0.02935 0.11268 0.0
C1804 C 0.00184 0.03498 0.08043 0.0
C1805 C 7e-05 0.02726 0.05164 0.0
H1806 H 0.00398 0.03535 0.13494 0.0
H1807 H 0.99149 0.95637 0.86199 0.0
H1808 H 0.75289 0.69848 0.81761 0.0
H1809 H 0.75669 0.71497 0.77416 0.0
H1810 H 0.74524 0.74455 0.84519 0.0
H1811 H 0.74118 0.72809 0.88853 0.0
H1812 H 0.73525 0.74843 0.78131 0.0
H1813 H 0.77643 0.739 0.83194 0.0
H1814 H 0.7942 0.72482 0.85027 0.0
H1815 H 0.80017 0.71279 0.74689 0.0
H1816 H 0.7823 0.72676 0.728 0.0
H1817 H 0.75894 0.80245 0.6949 0.0
H1818 H 0.75716 0.7861 0.73956 0.0
H1819 H 0.76938 0.75684 0.66853 0.0
H1820 H 0.77122 0.77315 0.62379 0.0
H1821 H 0.77915 0.75267 0.73222 0.0
H1822 H 0.73808 0.76168 0.68129 0.0
H1823 H 0.72026 0.77562 0.66214 0.0
H1824 H 0.7138 0.78799 0.76504 0.0
H1825 H 0.73174 0.77427 0.78474 0.0
C1826 C 0.75098 0.70848 0.82375 0.0
C1827 C 0.74681 0.71203 0.85647 0.0
C1828 C 0.75326 0.71788 0.79905 0.0
C1829 C 0.75142 0.73097 0.80671 0.0
C1830 C 0.74678 0.7345 0.83891 0.0
C1831 C 0.74454 0.72511 0.86365 0.0
C1832 C 0.75463 0.74103 0.78144 0.0
C1833 C 0.74488 0.74947 0.77089 0.0
C1834 C 0.76714 0.74215 0.76735 0.0
C1835 C 0.77795 0.73383 0.77861 0.0
C1836 C 0.78147 0.73325 0.81315 0.0
C1837 C 0.79157 0.72527 0.82364 0.0
C1838 C 0.79829 0.71788 0.79977 0.0
C1839 C 0.79495 0.7185 0.76535 0.0
C1840 C 0.78484 0.72646 0.75474 0.0
C1841 C 0.76144 0.79256 0.689 0.0
C1842 C 0.76508 0.78902 0.65584 0.0
C1843 C 0.76041 0.78325 0.71447 0.0
C1844 C 0.76288 0.77025 0.70708 0.0
C1845 C 0.76739 0.76683 0.67466 0.0
C1846 C 0.76848 0.77615 0.64918 0.0
C1847 C 0.75978 0.76012 0.73228 0.0
C1848 C 0.76953 0.75164 0.74272 0.0
C1849 C 0.74724 0.75891 0.74616 0.0
C1850 C 0.73634 0.76705 0.73444 0.0
C1851 C 0.73292 0.76744 0.69981 0.0
C1852 C 0.72279 0.7753 0.68885 0.0
C1853 C 0.71592 0.78271 0.71235 0.0
C1854 C 0.71914 0.78226 0.74686 0.0
C1855 C 0.72929 0.77444 0.75794 0.0
H1856 H 0.70808 0.78879 0.70382 0.0
H1857 H 0.8061 0.7117 0.80794 0.0
H1858 H 0.73399 0.28869 0.33707 0.0
H1859 H 0.73155 0.27051 0.29852 0.0
H1860 H 0.77285 0.266 0.29443 0.0
H1861 H 0.77545 0.2847 0.3318 0.0
H1862 H 0.76235 0.2626 0.23302 0.0
H1863 H 0.7545 0.24667 0.34532 0.0
H1864 H 0.74443 0.24634 0.40217 0.0
H1865 H 0.70719 0.24103 0.35661 0.0
H1866 H 0.71702 0.24153 0.29943 0.0
H1867 H 0.76045 0.20033 0.16205 0.0
H1868 H 0.76387 0.21706 0.2048 0.0
H1869 H 0.72324 0.22584 0.20395 0.0
H1870 H 0.71968 0.2089 0.16152 0.0
H1871 H 0.73427 0.22635 0.26938 0.0
H1872 H 0.74242 0.24333 0.15694 0.0
H1873 H 0.75277 0.24341 0.10042 0.0
H1874 H 0.79001 0.24637 0.1474 0.0
H1875 H 0.77988 0.24611 0.20425 0.0
C1876 C 0.7426 0.28406 0.32739 0.0
C1877 C 0.75494 0.28817 0.33755 0.0
C1878 C 0.74116 0.27353 0.30574 0.0
C1879 C 0.75201 0.26674 0.29425 0.0
C1880 C 0.76436 0.27105 0.3033 0.0
C1881 C 0.76582 0.28168 0.32481 0.0
C1882 C 0.75038 0.25505 0.27315 0.0
C1883 C 0.75638 0.25459 0.24121 0.0
C1884 C 0.74242 0.24468 0.28368 0.0
C1885 C 0.73649 0.24424 0.31806 0.0
C1886 C 0.74415 0.24552 0.3474 0.0
C1887 C 0.73849 0.24529 0.37969 0.0
C1888 C 0.72518 0.24369 0.383 0.0
C1889 C 0.7175 0.24228 0.35401 0.0
C1890 C 0.72311 0.24252 0.32165 0.0
C1891 C 0.75218 0.20559 0.17158 0.0
C1892 C 0.73979 0.20335 0.15838 0.0
C1893 C 0.75418 0.21521 0.19578 0.0
C1894 C 0.74383 0.22277 0.20707 0.0
C1895 C 0.73135 0.22011 0.19537 0.0
C1896 C 0.72934 0.21051 0.17105 0.0
C1897 C 0.74618 0.23399 0.2293 0.0
C1898 C 0.7403 0.23435 0.26139 0.0
C1899 C 0.75431 0.24423 0.21902 0.0
C1900 C 0.7604 0.24457 0.18484 0.0
C1901 C 0.75282 0.2439 0.15522 0.0
C1902 C 0.75864 0.24399 0.12313 0.0
C1903 C 0.77204 0.24486 0.12033 0.0
C1904 C 0.77963 0.24568 0.14961 0.0
C1905 C 0.77386 0.24557 0.18178 0.0
H1906 H 0.77653 0.24492 0.09546 0.0
H1907 H 0.72081 0.24353 0.40802 0.0
H1908 H 0.76753 0.21127 0.83864 0.0
H1909 H 0.76558 0.22629 0.79085 0.0
H1910 H 0.72684 0.23566 0.82213 0.0
H1911 H 0.72859 0.22044 0.86943 0.0
H1912 H 0.72837 0.23086 0.75422 0.0
H1913 H 0.75078 0.25664 0.83646 0.0
H1914 H 0.76793 0.26166 0.87781 0.0
H1915 H 0.79641 0.25855 0.79892 0.0
H1916 H 0.77944 0.25332 0.75717 0.0
H1917 H 0.72114 0.28543 0.64506 0.0
H1918 H 0.72216 0.27103 0.69438 0.0
H1919 H 0.76152 0.26149 0.66942 0.0
H1920 H 0.76074 0.27618 0.62101 0.0
H1921 H 0.7591 0.26683 0.73543 0.0
H1922 H 0.73698 0.24043 0.65359 0.0
H1923 H 0.72 0.23513 0.612 0.0
H1924 H 0.69117 0.23916 0.68971 0.0
H1925 H 0.70798 0.24466 0.73168 0.0
C1926 C 0.7586 0.21653 0.83528 0.0
C1927 C 0.74823 0.21472 0.85781 0.0
C1928 C 0.75753 0.22516 0.80816 0.0
C1929 C 0.7461 0.23214 0.80319 0.0
C1930 C 0.73575 0.23038 0.82564 0.0
C1931 C 0.73681 0.22178 0.8528 0.0
C1932 C 0.74483 0.24106 0.77404 0.0
C1933 C 0.73496 0.23885 0.75033 0.0
C1934 C 0.75362 0.25129 0.76871 0.0
C1935 C 0.76384 0.25447 0.79375 0.0
C1936 C 0.76071 0.25692 0.82798 0.0
C1937 C 0.77039 0.25983 0.85148 0.0
C1938 C 0.78325 0.2604 0.84102 0.0
C1939 C 0.78644 0.25809 0.807 0.0
C1940 C 0.77679 0.25517 0.7834 0.0
C1941 C 0.73001 0.28028 0.65014 0.0
C1942 C 0.74084 0.2819 0.62905 0.0
C1943 C 0.73054 0.27198 0.67814 0.0
C1944 C 0.74189 0.26513 0.68535 0.0
C1945 C 0.75267 0.26668 0.66423 0.0
C1946 C 0.75215 0.27497 0.63636 0.0
C1947 C 0.7427 0.25658 0.71541 0.0
C1948 C 0.75247 0.25887 0.73934 0.0
C1949 C 0.73385 0.24641 0.72088 0.0
C1950 C 0.72373 0.2431 0.69569 0.0
C1951 C 0.72701 0.2403 0.66174 0.0
C1952 C 0.71742 0.23724 0.63812 0.0
C1953 C 0.70451 0.23685 0.64819 0.0
C1954 C 0.70117 0.23949 0.68194 0.0
C1955 C 0.71073 0.24257 0.70566 0.0
H1956 H 0.69709 0.23447 0.62986 0.0
H1957 H 0.79074 0.26265 0.85925 0.0
H1958 H 0.74084 0.72292 0.11924 0.0
H1959 H 0.73873 0.7384 0.16555 0.0
H1960 H 0.75015 0.70928 0.23778 0.0
H1961 H 0.75294 0.69378 0.1914 0.0
H1962 H 0.72674 0.72429 0.25431 0.0
H1963 H 0.77128 0.72958 0.22199 0.0
H1964 H 0.78904 0.73314 0.18135 0.0
H1965 H 0.77275 0.76964 0.15299 0.0
H1966 H 0.75477 0.76622 0.19311 0.0
H1967 H 0.73616 0.76561 0.39668 0.0
H1968 H 0.73719 0.74922 0.35203 0.0
H1969 H 0.73661 0.7791 0.27546 0.0
H1970 H 0.73606 0.79551 0.32021 0.0
H1971 H 0.75466 0.76304 0.26141 0.0
H1972 H 0.71023 0.75849 0.29145 0.0
H1973 H 0.69162 0.75537 0.3296 0.0
H1974 H 0.70627 0.71832 0.35932 0.0
H1975 H 0.72507 0.7213 0.32168 0.0
C1976 C 0.74317 0.71981 0.14483 0.0
C1977 C 0.74717 0.70709 0.15148 0.0
C1978 C 0.74182 0.72866 0.17127 0.0
C1979 C 0.74431 0.72494 0.2049 0.0
C1980 C 0.74815 0.71226 0.21188 0.0
C1981 C 0.74968 0.70342 0.18535 0.0
C1982 C 0.74291 0.73438 0.23267 0.0
C1983 C 0.73293 0.73269 0.25631 0.0
C1984 C 0.75077 0.74547 0.23434 0.0
C1985 C 0.76161 0.74758 0.21031 0.0
C1986 C 0.77142 0.73831 0.20686 0.0
C1987 C 0.78154 0.74032 0.18396 0.0
C1988 C 0.78201 0.75159 0.16453 0.0
C1989 C 0.77237 0.76091 0.16802 0.0
C1990 C 0.76222 0.75894 0.19086 0.0
C1991 C 0.73602 0.76863 0.37028 0.0
C1992 C 0.73601 0.78177 0.36173 0.0
C1993 C 0.73659 0.75927 0.34479 0.0
C1994 C 0.73686 0.76292 0.31034 0.0
C1995 C 0.73645 0.77606 0.30184 0.0
C1996 C 0.7361 0.78542 0.32733 0.0
C1997 C 0.73837 0.75309 0.28324 0.0
C1998 C 0.74841 0.75468 0.25963 0.0
C1999 C 0.73043 0.74201 0.28134 0.0
C2000 C 0.71913 0.74018 0.30398 0.0
C2001 C 0.70954 0.74972 0.30632 0.0
C2002 C 0.69894 0.74797 0.32782 0.0
C2003 C 0.69778 0.73667 0.34694 0.0
C2004 C 0.70719 0.72708 0.34453 0.0
C2005 C 0.71781 0.72879 0.32309 0.0
H2006 H 0.68957 0.73533 0.36357 0.0
H2007 H 0.78985 0.75313 0.14682 0.0
H2008 H 0.51885 0.48184 0.13282 0.0
H2009 H 0.50253 0.48385 0.08826 0.0
H2010 H 0.53035 0.5023 0.0227 0.0
H2011 H 0.54662 0.50065 0.06751 0.0
H2012 H 0.50799 0.51564 0.02575 0.0
H2013 H 0.52076 0.47177 0.00717 0.0
H2014 H 0.52527 0.44924 0.02326 0.0
H2015 H 0.48593 0.44434 0.05468 0.0
H2016 H 0.48123 0.46691 0.03922 0.0
H2017 H 0.47161 0.51344 0.87268 0.0
H2018 H 0.48788 0.51133 0.91727 0.0
H2019 H 0.46014 0.4923 0.98193 0.0
H2020 H 0.4438 0.49438 0.93735 0.0
H2021 H 0.48244 0.47922 0.97944 0.0
H2022 H 0.46964 0.52304 -0.00174 0.0
H2023 H 0.46507 0.54557 0.98232 0.0
H2024 H 0.50438 0.5506 0.95079 0.0
H2025 H 0.50914 0.52803 0.9661 0.0
C2026 C 0.52149 0.48628 0.10886 0.0
C2027 C 0.534 0.49111 0.10365 0.0
C2028 C 0.5122 0.48733 0.08336 0.0
C2029 C 0.51527 0.49317 0.05217 0.0
C2030 C 0.52781 0.49775 0.04662 0.0
C2031 C 0.53712 0.49669 0.0721 0.0
C2032 C 0.50522 0.49505 0.02598 0.0
C2033 C 0.50253 0.50767 0.01521 0.0
C2034 C 0.49788 0.48467 0.01306 0.0
C2035 C 0.50068 0.47108 0.02234 0.0
C2036 C 0.5131 0.46593 0.01778 0.0
C2037 C 0.51568 0.45314 0.02673 0.0
C2038 C 0.5059 0.44538 0.04006 0.0
C2039 C 0.4935 0.45037 0.04439 0.0
C2040 C 0.49087 0.46316 0.0355 0.0
C2041 C 0.46891 0.50904 0.89665 0.0
C2042 C 0.45644 0.50409 0.9016 0.0
C2043 C 0.47822 0.50781 0.92206 0.0
C2044 C 0.47518 0.50172 0.95295 0.0
C2045 C 0.46267 0.49699 0.95821 0.0
C2046 C 0.45337 0.49818 0.93277 0.0
C2047 C 0.48521 0.49982 0.97918 0.0
C2048 C 0.48791 0.4872 0.98997 0.0
C2049 C 0.49254 0.51021 0.99216 0.0
C2050 C 0.48971 0.5238 0.98303 0.0
C2051 C 0.47728 0.52892 0.98767 0.0
C2052 C 0.47466 0.5417 0.9788 0.0
C2053 C 0.48442 0.5495 0.96547 0.0
C2054 C 0.49683 0.54454 0.96108 0.0
C2055 C 0.4995 0.53176 0.96988 0.0
H2056 H 0.48237 0.5594 0.95862 0.0
H2057 H 0.50792 0.43548 0.04697 0.0
H2058 H 0.04053 0.47684 0.41467 0.0
H2059 H 0.02372 0.47782 0.45827 0.0
H2060 H 0.01347 0.51611 0.42504 0.0
H2061 H 0.03008 0.51515 0.38108 0.0
H2062 H 0.01495 0.51418 0.49466 0.0
H2063 H 0.99518 0.4915 0.4019 0.0
H2064 H 0.99353 0.4746 0.358 0.0
H2065 H 0.99394 0.44539 0.43547 0.0
H2066 H 0.99578 0.46212 0.47984 0.0
H2067 H 0.95528 0.51816 0.58282 0.0
H2068 H 0.97143 0.51781 0.53737 0.0
H2069 H 0.98174 0.47888 0.56485 0.0
H2070 H 0.96537 0.479 0.60951 0.0
H2071 H 0.97994 0.48158 0.49706 0.0
H2072 H 0.00019 0.5041 0.58972 0.0
H2073 H 0.00206 0.52091 0.63383 0.0
H2074 H 0.00095 0.55031 0.55689 0.0
H2075 H -0.00112 0.53367 0.51233 0.0
C2076 C 0.03464 0.48543 0.41653 0.0
C2077 C 0.03662 0.4959 0.3944 0.0
C2078 C 0.02508 0.48599 0.44147 0.0
C2079 C 0.01731 0.497 0.4446 0.0
C2080 C 0.01941 0.50755 0.42303 0.0
C2081 C 0.02894 0.50699 0.39805 0.0
C2082 C 0.00688 0.49745 0.47017 0.0
C2083 C 0.00719 0.50717 0.49496 0.0
C2084 C 0.99693 0.48814 0.47078 0.0
C2085 C 0.99574 0.47806 0.44417 0.0
C2086 C 0.99502 0.48147 0.40956 0.0
C2087 C 0.99403 0.47192 0.3846 0.0
C2088 C 0.99366 0.45893 0.39393 0.0
C2089 C 0.99424 0.45546 0.42827 0.0
C2090 C 0.99525 0.46497 0.45334 0.0
C2091 C 0.96089 0.50948 0.57889 0.0
C2092 C 0.95913 0.49863 0.59984 0.0
C2093 C 0.97018 0.50934 0.55316 0.0
C2094 C 0.97787 0.49837 0.54809 0.0
C2095 C 0.97593 0.48745 0.56847 0.0
C2096 C 0.96666 0.48758 0.59414 0.0
C2097 C 0.98804 0.49827 0.52174 0.0
C2098 C 0.98768 0.48862 0.49674 0.0
C2099 C -0.00204 0.50763 0.52099 0.0
C2100 C -0.00076 0.51765 0.54773 0.0
C2101 C 0.00024 0.51416 0.58223 0.0
C2102 C 0.00135 0.52365 0.60731 0.0
C2103 C 0.00158 0.53667 0.59818 0.0
C2104 C 0.00074 0.54022 0.56393 0.0
C2105 C -0.00039 0.53076 0.53875 0.0
H2106 H 0.00245 0.54401 0.61763 0.0
H2107 H 0.9929 0.45155 0.37457 0.0
H2108 H 0.05089 0.49571 0.05666 0.0
H2109 H 0.03415 0.49444 0.01304 0.0
H2110 H 0.00907 0.51783 0.07518 0.0
H2111 H 0.02567 0.51886 0.11932 0.0
H2112 H -0.00271 0.49603 0.05334 0.0
H2113 H 0.02214 0.53009 0.00351 0.0
H2114 H 0.04182 0.54072 0.98235 0.0
H2115 H 0.04691 0.51069 0.90835 0.0
H2116 H 0.02734 0.49977 0.92939 0.0
H2117 H 0.94884 0.50502 0.92734 0.0
H2118 H 0.96554 0.50778 0.97055 0.0
H2119 H 0.9918 0.48501 0.91023 0.0
H2120 H 0.97511 0.48216 0.86692 0.0
H2121 H 0.00281 0.50714 0.93137 0.0
H2122 H 0.97858 0.47273 0.98185 0.0
H2123 H 0.95909 0.46174 0.00304 0.0
H2124 H 0.95308 0.49203 0.07581 0.0
H2125 H 0.97245 0.5033 0.05472 0.0
C2126 C 0.04184 0.50067 0.06087 0.0
C2127 C 0.03955 0.50735 0.0914 0.0
C2128 C 0.03233 0.50001 0.03586 0.0
C2129 C 0.0204 0.50609 0.04088 0.0
C2130 C 0.01823 0.5131 0.07087 0.0
C2131 C 0.02775 0.51377 0.09589 0.0
C2132 C 0.00993 0.50439 0.0158 0.0
C2133 C -0.0016 0.49867 0.02677 0.0
C2134 C 0.01157 0.50748 0.98102 0.0
C2135 C 0.02333 0.51405 0.96824 0.0
C2136 C 0.02751 0.52569 0.98291 0.0
C2137 C 0.03864 0.53179 0.9709 0.0
C2138 C 0.04563 0.52637 0.94407 0.0
C2139 C 0.04149 0.51487 0.92915 0.0
C2140 C 0.03037 0.50873 0.94108 0.0
C2141 C 0.95809 0.50039 0.92359 0.0
C2142 C 0.96068 0.49337 0.89377 0.0
C2143 C 0.96763 0.50202 0.94823 0.0
C2144 C 0.97988 0.49656 0.9436 0.0
C2145 C 0.98242 0.48934 0.91416 0.0
C2146 C 0.97289 0.48774 0.88948 0.0
C2147 C 0.99019 0.49876 0.9689 0.0
C2148 C 0.00169 0.50456 0.95797 0.0
C2149 C 0.98854 0.49569 0.00371 0.0
C2150 C 0.97689 0.48893 0.01646 0.0
C2151 C 0.97304 0.47711 0.00217 0.0
C2152 C 0.96203 0.47081 0.0142 0.0
C2153 C 0.95483 0.4762 0.04068 0.0
C2154 C 0.95866 0.48788 0.05525 0.0
C2155 C 0.96965 0.49422 0.04329 0.0
H2156 H 0.94631 0.47131 0.04997 0.0
H2157 H 0.05424 0.53111 0.93481 0.0
H2158 H 0.44495 0.49796 0.56079 0.0
H2159 H 0.46153 0.49968 0.51676 0.0
H2160 H 0.48911 0.48187 0.58414 0.0
H2161 H 0.47257 0.48025 0.62848 0.0
H2162 H 0.49783 0.50469 0.55626 0.0
H2163 H 0.47854 0.46541 0.51752 0.0
H2164 H 0.46072 0.45113 0.50017 0.0
H2165 H 0.45147 0.4767 0.41776 0.0
H2166 H 0.46913 0.49124 0.43492 0.0
H2167 H 0.54745 0.49841 0.43194 0.0
H2168 H 0.5314 0.49519 0.47671 0.0
H2169 H 0.50175 0.50983 0.41006 0.0
H2170 H 0.51777 0.51295 0.36507 0.0
H2171 H 0.49446 0.48778 0.4385 0.0
H2172 H 0.51285 0.52748 0.4778 0.0
H2173 H 0.53029 0.54224 0.49507 0.0
H2174 H 0.54079 0.51655 0.57617 0.0
H2175 H 0.52351 0.50154 0.55909 0.0
C2176 C 0.45451 0.49429 0.56603 0.0
C2177 C 0.45751 0.489 0.59799 0.0
C2178 C 0.46394 0.49521 0.54085 0.0
C2179 C 0.47651 0.49087 0.54725 0.0
C2180 C 0.47945 0.48525 0.57879 0.0
C2181 C 0.46999 0.48424 0.60393 0.0
C2182 C 0.48675 0.49298 0.52173 0.0
C2183 C 0.49724 0.50082 0.53066 0.0
C2184 C 0.48571 0.48822 0.48814 0.0
C2185 C 0.47509 0.47947 0.4777 0.0
C2186 C 0.47264 0.46804 0.49587 0.0
C2187 C 0.46258 0.45989 0.48604 0.0
C2188 C 0.45495 0.46302 0.45793 0.0
C2189 C 0.45738 0.4743 0.43955 0.0
C2190 C 0.46742 0.48249 0.4493 0.0
C2191 C 0.53756 0.50119 0.42711 0.0
C2192 C 0.53383 0.50593 0.39509 0.0
C2193 C 0.5284 0.49932 0.45266 0.0
C2194 C 0.5154 0.50232 0.44672 0.0
C2195 C 0.51173 0.5074 0.41507 0.0
C2196 C 0.52087 0.50919 0.38946 0.0
C2197 C 0.50552 0.49958 0.47293 0.0
C2198 C 0.4951 0.49162 0.46413 0.0
C2199 C 0.50658 0.50431 0.50659 0.0
C2200 C 0.51697 0.51332 0.51694 0.0
C2201 C 0.51895 0.52493 0.49914 0.0
C2202 C 0.52879 0.53335 0.50893 0.0
C2203 C 0.53667 0.53032 0.53664 0.0
C2204 C 0.53469 0.51887 0.55468 0.0
C2205 C 0.52487 0.51041 0.54497 0.0
H2206 H 0.54428 0.53685 0.54418 0.0
H2207 H 0.44716 0.45669 0.45036 0.0
H2208 H 0.10891 0.42679 0.18548 0.0
H2209 H 0.12262 0.41105 0.15622 0.0
H2210 H 0.15415 0.43816 0.15732 0.0
H2211 H 0.1405 0.45396 0.18624 0.0
H2212 H 0.14941 0.42736 0.09334 0.0
H2213 H 0.15478 0.41356 0.21012 0.0
H2214 H 0.14715 0.40628 0.26638 0.0
H2215 H 0.12928 0.37326 0.22035 0.0
H2216 H 0.13666 0.38045 0.16372 0.0
H2217 H 0.20373 0.39018 0.05137 0.0
H2218 H 0.18748 0.40411 0.07704 0.0
H2219 H 0.16085 0.37217 0.08107 0.0
H2220 H 0.1772 0.3581 0.05565 0.0
H2221 H 0.16116 0.38446 0.1398 0.0
H2222 H 0.15666 0.39694 0.02394 0.0
H2223 H 0.16368 0.40394 0.96689 0.0
H2224 H 0.1788 0.43898 0.00915 0.0
H2225 H 0.17204 0.43212 0.06656 0.0
C2226 C 0.11879 0.42934 0.17963 0.0
C2227 C 0.12367 0.44157 0.18816 0.0
C2228 C 0.1266 0.42034 0.16308 0.0
C2229 C 0.13937 0.42348 0.15471 0.0
C2230 C 0.1443 0.4356 0.16361 0.0
C2231 C 0.13655 0.44455 0.18038 0.0
C2232 C 0.14751 0.4143 0.13567 0.0
C2233 C 0.1521 0.41802 0.10357 0.0
C2234 C 0.15056 0.40196 0.1486 0.0
C2235 C 0.14615 0.39763 0.18264 0.0
C2236 C 0.14912 0.40481 0.21195 0.0
C2237 C 0.14487 0.40069 0.24392 0.0
C2238 C 0.1377 0.38934 0.24693 0.0
C2239 C 0.13481 0.38207 0.21798 0.0
C2240 C 0.13904 0.38616 0.18595 0.0
C2241 C 0.19433 0.38618 0.05716 0.0
C2242 C 0.1917 0.37308 0.0514 0.0
C2243 C 0.18506 0.39415 0.07183 0.0
C2244 C 0.1729 0.38921 0.08058 0.0
C2245 C 0.17017 0.37616 0.07449 0.0
C2246 C 0.1795 0.36815 0.06001 0.0
C2247 C 0.16332 0.39759 0.0976 0.0
C2248 C 0.1584 0.39373 0.12931 0.0
C2249 C 0.15985 0.40976 0.08414 0.0
C2250 C 0.16392 0.41396 0.04962 0.0
C2251 C 0.16157 0.40609 0.02112 0.0
C2252 C 0.16549 0.41005 0.9887 0.0
C2253 C 0.1717 0.42189 0.98441 0.0
C2254 C 0.17399 0.42981 0.01252 0.0
C2255 C 0.1701 0.4259 0.045 0.0
H2256 H 0.17473 0.42493 0.95929 0.0
H2257 H 0.13442 0.38616 0.2717 0.0
H2258 H 0.8171 0.8598 0.4317 0.0
H2259 H 0.83276 0.87372 0.40296 0.0
H2260 H 0.80257 0.90094 0.37981 0.0
H2261 H 0.78683 0.88695 0.40781 0.0
H2262 H 0.81834 0.89636 0.32504 0.0
H2263 H 0.82274 0.90663 0.4444 0.0
H2264 H 0.82648 0.90165 0.50499 0.0
H2265 H 0.8639 0.88655 0.48079 0.0
H2266 H 0.86031 0.89128 0.41995 0.0
H2267 H 0.85221 0.95398 0.2912 0.0
H2268 H 0.83832 0.93684 0.31279 0.0
H2269 H 0.87176 0.91366 0.33548 0.0
H2270 H 0.88575 0.93081 0.31381 0.0
H2271 H 0.85559 0.9144 0.3883 0.0
H2272 H 0.85206 0.90576 0.26955 0.0
H2273 H 0.84845 0.91074 0.20893 0.0
H2274 H 0.80969 0.92253 0.23122 0.0
H2275 H 0.81313 0.9178 0.29209 0.0
C2276 C 0.8138 0.86871 0.42027 0.0
C2277 C 0.80077 0.87233 0.42213 0.0
C2278 C 0.82276 0.87667 0.40406 0.0
C2279 C 0.81881 0.88838 0.38952 0.0
C2280 C 0.80579 0.89194 0.39094 0.0
C2281 C 0.79685 0.88401 0.40721 0.0
C2282 C 0.82827 0.89705 0.37313 0.0
C2283 C 0.82643 0.90041 0.33888 0.0
C2284 C 0.83901 0.90199 0.39103 0.0
C2285 C 0.84119 0.89917 0.42759 0.0
C2286 C 0.83172 0.90215 0.45196 0.0
C2287 C 0.83382 0.89939 0.48635 0.0
C2288 C 0.8454 0.89375 0.49672 0.0
C2289 C 0.85492 0.89089 0.47272 0.0
C2290 C 0.85286 0.89361 0.43829 0.0
C2291 C 0.8566 0.94515 0.30022 0.0
C2292 C 0.87007 0.94373 0.30079 0.0
C2293 C 0.84865 0.93536 0.31257 0.0
C2294 C 0.85401 0.92393 0.32542 0.0
C2295 C 0.86745 0.92241 0.32566 0.0
C2296 C 0.87541 0.93222 0.31339 0.0
C2297 C 0.84558 0.91389 0.34025 0.0
C2298 C 0.84759 0.91026 0.37425 0.0
C2299 C 0.83502 0.90868 0.32207 0.0
C2300 C 0.83289 0.91151 0.28545 0.0
C2301 C 0.8428 0.90951 0.26158 0.0
C2302 C 0.84077 0.91227 0.22716 0.0
C2303 C 0.82885 0.91697 0.21624 0.0
C2304 C 0.81892 0.9189 0.23972 0.0
C2305 C 0.8209 0.91616 0.27418 0.0
H2306 H 0.82731 0.9191 0.18959 0.0
H2307 H 0.84701 0.89163 0.52336 0.0
H2308 H 0.30041 0.6324 0.61543 0.0
H2309 H 0.31682 0.61832 0.63986 0.0
H2310 H 0.32892 0.60714 0.53904 0.0
H2311 H 0.31264 0.6214 0.51428 0.0
H2312 H 0.32425 0.5865 0.58024 0.0
H2313 H 0.34797 0.62606 0.58629 0.0
H2314 H 0.35161 0.64887 0.60105 0.0
H2315 H 0.34697 0.63999 0.70711 0.0
H2316 H 0.34311 0.61714 0.69296 0.0
H2317 H 0.37779 0.54968 0.63052 0.0
H2318 H 0.36457 0.56649 0.60487 0.0
H2319 H 0.35293 0.57936 0.70468 0.0
H2320 H 0.36665 0.56288 0.73072 0.0
H2321 H 0.35792 0.5995 0.66309 0.0
H2322 H 0.33322 0.56044 0.65755 0.0
H2323 H 0.32916 0.53762 0.64364 0.0
H2324 H 0.33506 0.54564 0.53753 0.0
H2325 H 0.33934 0.56849 0.55087 0.0
C2326 C 0.30674 0.62717 0.5984 0.0
C2327 C 0.30522 0.62801 0.56289 0.0
C2328 C 0.31609 0.61911 0.61243 0.0
C2329 C 0.32411 0.61176 0.59123 0.0
C2330 C 0.32279 0.61274 0.55579 0.0
C2331 C 0.31347 0.62083 0.54172 0.0
C2332 C 0.33327 0.60243 0.60611 0.0
C2333 C 0.33177 0.58936 0.59789 0.0
C2334 C 0.34279 0.60617 0.62992 0.0
C2335 C 0.34513 0.6199 0.63852 0.0
C2336 C 0.34761 0.62899 0.61274 0.0
C2337 C 0.34974 0.64192 0.621 0.0
C2338 C 0.34949 0.64588 0.65499 0.0
C2339 C 0.34715 0.63691 0.68079 0.0
C2340 C 0.345 0.62396 0.67267 0.0
C2341 C 0.3726 0.55621 0.64709 0.0
C2342 C 0.37326 0.55493 0.6827 0.0
C2343 C 0.36494 0.56573 0.63236 0.0
C2344 C 0.35764 0.57403 0.65288 0.0
C2345 C 0.35847 0.57299 0.68842 0.0
C2346 C 0.3662 0.5635 0.70323 0.0
C2347 C 0.34891 0.58359 0.63713 0.0
C2348 C 0.35045 0.59667 0.64527 0.0
C2349 C 0.33936 0.57987 0.61337 0.0
C2350 C 0.33673 0.56615 0.60525 0.0
C2351 C 0.33375 0.55732 0.63128 0.0
C2352 C 0.33139 0.54438 0.62349 0.0
C2353 C 0.33188 0.54017 0.58973 0.0
C2354 C 0.3347 0.54891 0.56367 0.0
C2355 C 0.33708 0.56185 0.57133 0.0
H2356 H 0.33005 0.53015 0.58375 0.0
H2357 H 0.35114 0.6559 0.66133 0.0
H2358 H 0.70323 0.10518 0.92275 0.0
H2359 H 0.68796 0.09193 0.89097 0.0
H2360 H 0.66092 0.12352 0.88919 0.0
H2361 H 0.67608 0.13678 0.92179 0.0
H2362 H 0.64937 0.10047 0.90451 0.0
H2363 H 0.67768 0.11703 0.81937 0.0
H2364 H 0.69862 0.1221 0.79289 0.0
H2365 H 0.70774 0.08176 0.78808 0.0
H2366 H 0.68692 0.07646 0.81503 0.0
H2367 H 0.60948 0.06801 0.78483 0.0
H2368 H 0.6235 0.08464 0.80895 0.0
H2369 H 0.65408 0.05674 0.81938 0.0
H2370 H 0.64012 0.04005 0.79582 0.0
H2371 H 0.66285 0.08008 0.79588 0.0
H2372 H 0.6356 0.06384 0.88613 0.0
H2373 H 0.61479 0.05868 0.91323 0.0
H2374 H 0.60379 0.09855 0.90846 0.0
H2375 H 0.62448 0.10392 0.88085 0.0
C2376 C 0.69396 0.10925 0.91602 0.0
C2377 C 0.69083 0.12201 0.92474 0.0
C2378 C 0.68531 0.10173 0.89754 0.0
C2379 C 0.67341 0.10684 0.88733 0.0
C2380 C 0.67011 0.11946 0.89667 0.0
C2381 C 0.67878 0.12702 0.91511 0.0
C2382 C 0.66444 0.0989 0.86701 0.0
C2383 C 0.65221 0.09621 0.88043 0.0
C2384 C 0.66826 0.09321 0.83586 0.0
C2385 C 0.68077 0.09635 0.81947 0.0
C2386 C 0.68419 0.10924 0.81291 0.0
C2387 C 0.69603 0.11216 0.79778 0.0
C2388 C 0.70451 0.10226 0.78887 0.0
C2389 C 0.70116 0.08942 0.79502 0.0
C2390 C 0.68933 0.08645 0.81019 0.0
C2391 C 0.6192 0.06543 0.79221 0.0
C2392 C 0.62367 0.0527 0.78863 0.0
C2393 C 0.62719 0.07494 0.80586 0.0
C2394 C 0.63975 0.07186 0.81622 0.0
C2395 C 0.64441 0.0593 0.81142 0.0
C2396 C 0.63643 0.04979 0.79784 0.0
C2397 C 0.64789 0.08149 0.83369 0.0
C2398 C 0.65996 0.08449 0.81973 0.0
C2399 C 0.64392 0.08746 0.86433 0.0
C2400 C 0.63151 0.08426 0.88106 0.0
C2401 C 0.6287 0.07149 0.8906 0.0
C2402 C 0.61693 0.06853 0.90609 0.0
C2403 C 0.60795 0.07828 0.91246 0.0
C2404 C 0.61074 0.09101 0.90344 0.0
C2405 C 0.62249 0.09402 0.88788 0.0
H2406 H 0.59885 0.07597 0.92447 0.0
H2407 H 0.71368 0.10454 0.77715 0.0
H2408 H 0.11223 0.56742 0.3138 0.0
H2409 H 0.12652 0.58167 0.34555 0.0
H2410 H 0.15797 0.55505 0.33055 0.0
H2411 H 0.14355 0.54035 0.30072 0.0
H2412 H 0.15733 0.56212 0.39376 0.0
H2413 H 0.15578 0.58448 0.28729 0.0
H2414 H 0.1456 0.59493 0.23772 0.0
H2415 H 0.1275 0.62257 0.30353 0.0
H2416 H 0.13743 0.61218 0.35356 0.0
H2417 H 0.20861 0.60484 0.43675 0.0
H2418 H 0.19349 0.59051 0.40811 0.0
H2419 H 0.16174 0.61408 0.44183 0.0
H2420 H 0.17677 0.62828 0.47182 0.0
H2421 H 0.16217 0.60889 0.37063 0.0
H2422 H 0.16494 0.58622 0.47712 0.0
H2423 H 0.17618 0.57577 0.52502 0.0
H2424 H 0.19338 0.54858 0.45625 0.0
H2425 H 0.18238 0.55899 0.40784 0.0
C2426 C 0.12218 0.56457 0.31731 0.0
C2427 C 0.12671 0.55269 0.3048 0.0
C2428 C 0.13038 0.57281 0.33513 0.0
C2429 C 0.14335 0.56948 0.3402 0.0
C2430 C 0.148 0.55782 0.32693 0.0
C2431 C 0.13976 0.54949 0.30948 0.0
C2432 C 0.15192 0.57784 0.36077 0.0
C2433 C 0.15852 0.57231 0.38836 0.0
C2434 C 0.15324 0.5912 0.35425 0.0
C2435 C 0.14725 0.59747 0.32421 0.0
C2436 C 0.14954 0.59272 0.29122 0.0
C2437 C 0.14383 0.59865 0.26304 0.0
C2438 C 0.13588 0.60938 0.26748 0.0
C2439 C 0.13365 0.61424 0.30013 0.0
C2440 C 0.13932 0.60835 0.32841 0.0
C2441 C 0.1984 0.60682 0.43895 0.0
C2442 C 0.19392 0.61773 0.45669 0.0
C2443 C 0.18979 0.59866 0.42231 0.0
C2444 C 0.17654 0.60127 0.42292 0.0
C2445 C 0.17196 0.61198 0.44102 0.0
C2446 C 0.18057 0.62008 0.45801 0.0
C2447 C 0.16757 0.59312 0.40328 0.0
C2448 C 0.16092 0.5987 0.37593 0.0
C2449 C 0.16634 0.57978 0.40971 0.0
C2450 C 0.17292 0.57347 0.43881 0.0
C2451 C 0.1712 0.57808 0.47216 0.0
C2452 C 0.17752 0.57215 0.49942 0.0
C2453 C 0.18551 0.56154 0.49367 0.0
C2454 C 0.18719 0.55681 0.46066 0.0
C2455 C 0.18091 0.56272 0.43331 0.0
H2456 H 0.19039 0.55695 0.51481 0.0
H2457 H 0.13147 0.61396 0.24563 0.0
H2458 H 0.63817 0.94503 0.7248 0.0
H2459 H 0.65302 0.92926 0.70113 0.0
H2460 H 0.62203 0.9123 0.64321 0.0
H2461 H 0.60686 0.92745 0.66877 0.0
H2462 H 0.63735 0.89413 0.66395 0.0
H2463 H 0.64329 0.93443 0.60748 0.0
H2464 H 0.6471 0.95782 0.60264 0.0
H2465 H 0.684 0.95346 0.65071 0.0
H2466 H 0.68033 0.93004 0.65627 0.0
H2467 H 0.67964 0.86588 0.5386 0.0
H2468 H 0.66323 0.87959 0.5655 0.0
H2469 H 0.69075 0.89105 0.642 0.0
H2470 H 0.7071 0.8773 0.6155 0.0
H2471 H 0.67675 0.91176 0.60944 0.0
H2472 H 0.66972 0.87057 0.66471 0.0
H2473 H 0.6653 0.84721 0.66537 0.0
H2474 H 0.6295 0.85356 0.61321 0.0
H2475 H 0.63381 0.87696 0.61178 0.0
C2476 C 0.63439 0.93776 0.70776 0.0
C2477 C 0.6213 0.93764 0.69843 0.0
C2478 C 0.64296 0.92885 0.69382 0.0
C2479 C 0.6387 0.91984 0.66966 0.0
C2480 C 0.62556 0.91927 0.66152 0.0
C2481 C 0.61693 0.92804 0.67588 0.0
C2482 C 0.64805 0.91137 0.65197 0.0
C2483 C 0.64587 0.89801 0.65167 0.0
C2484 C 0.65921 0.91642 0.636 0.0
C2485 C 0.66148 0.9305 0.63257 0.0
C2486 C 0.65218 0.93847 0.61723 0.0
C2487 C 0.65431 0.95173 0.61433 0.0
C2488 C 0.66577 0.95713 0.62644 0.0
C2489 C 0.67512 0.94926 0.64138 0.0
C2490 C 0.67303 0.936 0.64439 0.0
C2491 C 0.68214 0.87135 0.56112 0.0
C2492 C 0.69457 0.87055 0.57512 0.0
C2493 C 0.67279 0.8791 0.57649 0.0
C2494 C 0.67582 0.88624 0.60574 0.0
C2495 C 0.68827 0.88557 0.61947 0.0
C2496 C 0.69755 0.87769 0.60445 0.0
C2497 C 0.6661 0.8946 0.62191 0.0
C2498 C 0.6682 0.90793 0.62173 0.0
C2499 C 0.65478 0.88955 0.63679 0.0
C2500 C 0.65216 0.8755 0.63781 0.0
C2501 C 0.66096 0.86697 0.6531 0.0
C2502 C 0.65847 0.85373 0.65367 0.0
C2503 C 0.64714 0.8489 0.63925 0.0
C2504 C 0.63828 0.85731 0.62432 0.0
C2505 C 0.64074 0.87057 0.62364 0.0
H2506 H 0.64523 0.83865 0.63973 0.0
H2507 H 0.66741 0.9674 0.62417 0.0
H2508 H 0.38434 0.42787 0.81181 0.0
H2509 H 0.3708 0.41283 0.84371 0.0
H2510 H 0.3402 0.44098 0.84594 0.0
H2511 H 0.35385 0.45625 0.81534 0.0
H2512 H 0.34392 0.43085 0.90737 0.0
H2513 H 0.33883 0.41453 0.79372 0.0
H2514 H 0.34612 0.4063 0.73806 0.0
H2515 H 0.36483 0.37445 0.78735 0.0
H2516 H 0.3578 0.38258 0.84337 0.0
H2517 H 0.29097 0.39117 0.95217 0.0
H2518 H 0.30647 0.40563 0.92541 0.0
H2519 H 0.33582 0.37632 0.93274 0.0
H2520 H 0.32038 0.3618 0.96018 0.0
H2521 H 0.33387 0.38645 0.86861 0.0
H2522 H 0.3377 0.4024 0.98239 0.0
H2523 H 0.32989 0.41066 0.03751 0.0
H2524 H 0.313 0.44332 0.98734 0.0
H2525 H 0.32055 0.43517 0.93183 0.0
C2526 C 0.37472 0.43085 0.8191 0.0
C2527 C 0.37017 0.44326 0.81105 0.0
C2528 C 0.36697 0.42221 0.83707 0.0
C2529 C 0.35447 0.42577 0.84701 0.0
C2530 C 0.34982 0.43805 0.83849 0.0
C2531 C 0.35758 0.44671 0.82065 0.0
C2532 C 0.34639 0.41687 0.86731 0.0
C2533 C 0.34159 0.42119 0.89872 0.0
C2534 C 0.34368 0.40416 0.85643 0.0
C2535 C 0.34791 0.39924 0.82276 0.0
C2536 C 0.34459 0.40583 0.79271 0.0
C2537 C 0.34866 0.40117 0.76109 0.0
C2538 C 0.35597 0.38988 0.75918 0.0
C2539 C 0.35919 0.3832 0.78888 0.0
C2540 C 0.35516 0.38783 0.82057 0.0
C2541 C 0.3008 0.38789 0.94894 0.0
C2542 C 0.30445 0.37533 0.95837 0.0
C2543 C 0.30963 0.39616 0.93348 0.0
C2544 C 0.32229 0.39205 0.92725 0.0
C2545 C 0.32607 0.37964 0.93729 0.0
C2546 C 0.31724 0.37136 0.95287 0.0
C2547 C 0.33131 0.40049 0.90845 0.0
C2548 C 0.33628 0.39608 0.87735 0.0
C2549 C 0.33412 0.41315 0.91952 0.0
C2550 C 0.3296 0.41811 0.9529 0.0
C2551 C 0.33223 0.41129 0.98307 0.0
C2552 C 0.32787 0.41596 0.01439 0.0
C2553 C 0.32093 0.42749 0.01592 0.0
C2554 C 0.31837 0.43439 0.98612 0.0
C2555 C 0.3227 0.42975 0.95472 0.0
H2556 H 0.31757 0.4311 0.04019 0.0
H2557 H 0.3591 0.38629 0.73467 0.0
H2558 H 0.81799 0.13731 0.03883 0.0
H2559 H 0.83399 0.12456 0.07 0.0
H2560 H 0.80523 0.09548 0.09013 0.0
H2561 H 0.78917 0.10829 0.06009 0.0
H2562 H 0.81828 0.10187 0.14691 0.0
H2563 H 0.82844 0.09079 0.03054 0.0
H2564 H 0.83441 0.09535 0.97097 0.0
H2565 H 0.86944 0.11337 0.00444 0.0
H2566 H 0.86359 0.10907 0.06427 0.0
H2567 H 0.85339 0.04641 0.19193 0.0
H2568 H 0.83986 0.06272 0.16513 0.0
H2569 H 0.87262 0.08811 0.15629 0.0
H2570 H 0.88625 0.07188 0.18374 0.0
H2571 H 0.85914 0.08596 0.09653 0.0
H2572 H 0.84987 0.09506 0.21288 0.0
H2573 H 0.84393 0.09012 0.27224 0.0
H2574 H 0.80724 0.07571 0.23894 0.0
H2575 H 0.81303 0.08039 0.1793 0.0
C2576 C 0.81511 0.12819 0.04987 0.0
C2577 C 0.80234 0.12378 0.04688 0.0
C2578 C 0.82426 0.12089 0.06747 0.0
C2579 C 0.82078 0.10906 0.08224 0.0
C2580 C 0.8081 0.10458 0.07891 0.0
C2581 C 0.79897 0.11185 0.06138 0.0
C2582 C 0.8302 0.10142 0.102 0.0
C2583 C 0.82717 0.0983 0.13583 0.0
C2584 C 0.84198 0.09715 0.08783 0.0
C2585 C 0.8455 0.09974 0.05188 0.0
C2586 C 0.83736 0.09583 0.02521 0.0
C2587 C 0.84073 0.09834 0.9914 0.0
C2588 C 0.85228 0.10468 0.98393 0.0
C2589 C 0.86049 0.10849 0.01026 0.0
C2590 C 0.85715 0.106 0.04413 0.0
C2591 C 0.85769 0.05556 0.18498 0.0
C2592 C 0.8709 0.05786 0.19008 0.0
C2593 C 0.84994 0.06485 0.16953 0.0
C2594 C 0.85523 0.07664 0.15898 0.0
C2595 C 0.86838 0.07905 0.16426 0.0
C2596 C 0.87614 0.06976 0.17983 0.0
C2597 C 0.84706 0.08616 0.14115 0.0
C2598 C 0.85033 0.08966 0.10775 0.0
C2599 C 0.83549 0.09078 0.15569 0.0
C2600 C 0.83193 0.08799 0.19157 0.0
C2601 C 0.84057 0.09075 0.21818 0.0
C2602 C 0.83723 0.08801 0.25188 0.0
C2603 C 0.82523 0.08259 0.25935 0.0
C2604 C 0.81654 0.07991 0.23312 0.0
C2605 C 0.81984 0.08262 0.19936 0.0
H2606 H 0.82265 0.08047 0.28547 0.0
H2607 H 0.85487 0.10662 0.95774 0.0
H2608 H 0.78594 0.61087 0.90213 0.0
H2609 H 0.80113 0.59718 0.8715 0.0
H2610 H 0.83155 0.60888 0.93974 0.0
H2611 H 0.81634 0.62274 0.97045 0.0
H2612 H 0.83961 0.60922 0.87508 0.0
H2613 H 0.8176 0.57923 0.94698 0.0
H2614 H 0.79881 0.56843 0.97276 0.0
H2615 H 0.78667 0.55535 0.87417 0.0
H2616 H 0.80529 0.56623 0.84771 0.0
H2617 H 0.88299 0.55817 0.83381 0.0
H2618 H 0.86848 0.57333 0.86177 0.0
H2619 H 0.83887 0.56461 0.78831 0.0
H2620 H 0.85346 0.54964 0.75945 0.0
H2621 H 0.83061 0.56281 0.8556 0.0
H2622 H 0.85329 0.59283 0.78433 0.0
H2623 H 0.87248 0.60338 0.75997 0.0
H2624 H 0.88393 0.61599 0.85958 0.0
H2625 H 0.86489 0.60534 0.88461 0.0
C2626 C 0.79582 0.61039 0.91092 0.0
C2627 C 0.79994 0.61775 0.93891 0.0
C2628 C 0.8045 0.60259 0.89334 0.0
C2629 C 0.81742 0.60188 0.90365 0.0
C2630 C 0.8216 0.60929 0.93143 0.0
C2631 C 0.81293 0.61718 0.94893 0.0
C2632 C 0.82656 0.59349 0.88507 0.0
C2633 C 0.83774 0.59903 0.87123 0.0
C2634 C 0.82397 0.58026 0.87949 0.0
C2635 C 0.81278 0.57365 0.89533 0.0
C2636 C 0.81087 0.57414 0.93076 0.0
C2637 C 0.80026 0.56798 0.9455 0.0
C2638 C 0.79153 0.56123 0.9251 0.0
C2639 C 0.79342 0.56059 0.88993 0.0
C2640 C 0.80401 0.56674 0.87505 0.0
C2641 C 0.87351 0.55969 0.82302 0.0
C2642 C 0.8694 0.55271 0.79429 0.0
C2643 C 0.86521 0.56831 0.83917 0.0
C2644 C 0.85265 0.5701 0.82699 0.0
C2645 C 0.84854 0.56332 0.79808 0.0
C2646 C 0.85687 0.55475 0.78174 0.0
C2647 C 0.8436 0.57855 0.84552 0.0
C2648 C 0.83246 0.57301 0.85942 0.0
C2649 C 0.84629 0.59173 0.85139 0.0
C2650 C 0.85772 0.59818 0.83638 0.0
C2651 C 0.85996 0.59775 0.80108 0.0
C2652 C 0.8708 0.60377 0.78714 0.0
C2653 C 0.87944 0.61032 0.80822 0.0
C2654 C 0.87724 0.61089 0.84328 0.0
C2655 C 0.86642 0.60488 0.85736 0.0
H2656 H 0.88783 0.61498 0.79738 0.0
H2657 H 0.78333 0.55647 0.93657 0.0
H2658 H 0.17809 0.1238 0.54975 0.0
H2659 H 0.16398 0.10934 0.58191 0.0
H2660 H 0.19725 0.09041 0.62481 0.0
H2661 H 0.2114 0.10479 0.59263 0.0
H2662 H 0.1794 0.07324 0.60593 0.0
H2663 H 0.18027 0.1123 0.67097 0.0
H2664 H 0.17823 0.1357 0.68044 0.0
H2665 H 0.13836 0.13412 0.65143 0.0
H2666 H 0.14022 0.11072 0.64129 0.0
H2667 H 0.1451 0.03977 0.73431 0.0
H2668 H 0.16003 0.05516 0.70832 0.0
H2669 H 0.12828 0.07378 0.65732 0.0
H2670 H 0.11333 0.05835 0.68261 0.0
H2671 H 0.14598 0.09119 0.68294 0.0
H2672 H 0.14554 0.05237 0.61534 0.0
H2673 H 0.14759 0.02896 0.60589 0.0
H2674 H 0.18686 0.03021 0.64021 0.0
H2675 H 0.18497 0.05361 0.65036 0.0
C2676 C 0.18238 0.11655 0.56606 0.0
C2677 C 0.19583 0.11543 0.56876 0.0
C2678 C 0.17432 0.10833 0.58444 0.0
C2679 C 0.17958 0.09895 0.60613 0.0
C2680 C 0.19301 0.0976 0.60823 0.0
C2681 C 0.20107 0.10578 0.58973 0.0
C2682 C 0.17108 0.09057 0.62673 0.0
C2683 C 0.17223 0.07716 0.62317 0.0
C2684 C 0.16159 0.09571 0.64876 0.0
C2685 C 0.16042 0.10977 0.65508 0.0
C2686 C 0.17109 0.11695 0.66637 0.0
C2687 C 0.16996 0.13022 0.67189 0.0
C2688 C 0.15818 0.1364 0.66647 0.0
C2689 C 0.14749 0.12932 0.65559 0.0
C2690 C 0.14857 0.11605 0.64998 0.0
C2691 C 0.1413 0.04718 0.71768 0.0
C2692 C 0.12804 0.04778 0.71035 0.0
C2693 C 0.14982 0.05597 0.70297 0.0
C2694 C 0.14524 0.06549 0.68065 0.0
C2695 C 0.13198 0.06651 0.67456 0.0
C2696 C 0.12345 0.05771 0.68917 0.0
C2697 C 0.1543 0.07391 0.662 0.0
C2698 C 0.15323 0.0873 0.66588 0.0
C2699 C 0.16389 0.06876 0.6403 0.0
C2700 C 0.16507 0.05471 0.63396 0.0
C2701 C 0.15458 0.04763 0.62113 0.0
C2702 C 0.15571 0.03437 0.61561 0.0
C2703 C 0.16733 0.02809 0.62254 0.0
C2704 C 0.17785 0.03508 0.63491 0.0
C2705 C 0.17676 0.04834 0.64054 0.0
H2706 H 0.1682 0.01782 0.61824 0.0
H2707 H 0.15733 0.14667 0.67076 0.0
H2708 H 0.69741 0.36706 0.37942 0.0
H2709 H 0.68149 0.38108 0.35257 0.0
H2710 H 0.66751 0.39255 0.45144 0.0
H2711 H 0.68327 0.37826 0.47863 0.0
H2712 H 0.6478 0.38785 0.40474 0.0
H2713 H 0.68746 0.41187 0.4106 0.0
H2714 H 0.7107 0.4154 0.40143 0.0
H2715 H 0.7054 0.41162 0.29349 0.0
H2716 H 0.68214 0.40787 0.30207 0.0
H2717 H 0.61484 0.44479 0.35805 0.0
H2718 H 0.62904 0.42867 0.38333 0.0
H2719 H 0.64548 0.42086 0.28451 0.0
H2720 H 0.63139 0.43723 0.25915 0.0
H2721 H 0.66377 0.42308 0.33033 0.0
H2722 H 0.6241 0.39969 0.32352 0.0
H2723 H 0.60087 0.39587 0.33208 0.0
H2724 H 0.60599 0.39804 0.44038 0.0
H2725 H 0.62924 0.40206 0.43247 0.0
C2726 C 0.6908 0.37239 0.39549 0.0
C2727 C 0.69158 0.37157 0.43116 0.0
C2728 C 0.68179 0.38047 0.38009 0.0
C2729 C 0.67345 0.38793 0.40006 0.0
C2730 C 0.67392 0.38688 0.43565 0.0
C2731 C 0.68296 0.3788 0.45111 0.0
C2732 C 0.66454 0.39716 0.38372 0.0
C2733 C 0.65126 0.39566 0.38878 0.0
C2734 C 0.66911 0.40711 0.36223 0.0
C2735 C 0.68308 0.40947 0.35701 0.0
C2736 C 0.69127 0.41169 0.38493 0.0
C2737 C 0.70444 0.41375 0.37984 0.0
C2738 C 0.70953 0.4137 0.34691 0.0
C2739 C 0.70145 0.41164 0.31899 0.0
C2740 C 0.68827 0.40956 0.32395 0.0
C2741 C 0.62137 0.43952 0.34166 0.0
C2742 C 0.62197 0.44217 0.30662 0.0
C2743 C 0.62947 0.4303 0.35612 0.0
C2744 C 0.63817 0.42341 0.33572 0.0
C2745 C 0.6388 0.42605 0.30069 0.0
C2746 C 0.63078 0.43538 0.28625 0.0
C2747 C 0.64695 0.41381 0.35124 0.0
C2748 C 0.66025 0.41525 0.34611 0.0
C2749 C 0.64237 0.40377 0.37252 0.0
C2750 C 0.6284 0.40129 0.37738 0.0
C2751 C 0.62026 0.39945 0.34916 0.0
C2752 C 0.60709 0.39723 0.3539 0.0
C2753 C 0.60196 0.39674 0.38675 0.0
C2754 C 0.60998 0.39843 0.41495 0.0
C2755 C 0.62316 0.40067 0.41035 0.0
H2756 H 0.59176 0.39503 0.39036 0.0
H2757 H 0.71974 0.4153 0.34302 0.0
H2758 H 0.38105 0.93148 0.18952 0.0
H2759 H 0.36623 0.91594 0.1639 0.0
H2760 H 0.33586 0.9443 0.16592 0.0
H2761 H 0.35067 0.96002 0.19072 0.0
H2762 H 0.32798 0.91954 0.18688 0.0
H2763 H 0.35119 0.93977 0.09454 0.0
H2764 H 0.37078 0.94656 0.06383 0.0
H2765 H 0.38282 0.90708 0.05546 0.0
H2766 H 0.36339 0.90007 0.08661 0.0
H2767 H 0.28378 0.89218 0.07248 0.0
H2768 H 0.29898 0.90682 0.09971 0.0
H2769 H 0.32967 0.87943 0.08359 0.0
H2770 H 0.31464 0.86498 0.05465 0.0
H2771 H 0.33788 0.90306 0.07116 0.0
H2772 H 0.3149 0.88241 0.16141 0.0
H2773 H 0.29575 0.87507 0.19316 0.0
H2774 H 0.2838 0.91435 0.20719 0.0
H2775 H 0.30279 0.92191 0.17507 0.0
C2776 C 0.37123 0.93443 0.18445 0.0
C2777 C 0.36707 0.94703 0.1919 0.0
C2778 C 0.36278 0.92553 0.16998 0.0
C2779 C 0.35002 0.92905 0.16277 0.0
C2780 C 0.34568 0.94142 0.17139 0.0
C2781 C 0.35415 0.95037 0.18568 0.0
C2782 C 0.34134 0.92002 0.14498 0.0
C2783 C 0.33004 0.91603 0.16144 0.0
C2784 C 0.34428 0.91521 0.1122 0.0
C2785 C 0.35591 0.91941 0.09322 0.0
C2786 C 0.35807 0.93255 0.0864 0.0
C2787 C 0.36913 0.93644 0.06887 0.0
C2788 C 0.37806 0.92726 0.05778 0.0
C2789 C 0.37591 0.91418 0.06411 0.0
C2790 C 0.36487 0.91024 0.08168 0.0
C2791 C 0.29381 0.88935 0.07409 0.0
C2792 C 0.29799 0.87738 0.06147 0.0
C2793 C 0.30245 0.89767 0.09011 0.0
C2794 C 0.3154 0.89409 0.0943 0.0
C2795 C 0.3197 0.88233 0.08086 0.0
C2796 C 0.31107 0.87404 0.06458 0.0
C2797 C 0.32441 0.9026 0.11294 0.0
C2798 C 0.3358 0.90651 0.09666 0.0
C2799 C 0.32161 0.90723 0.14604 0.0
C2800 C 0.31021 0.90272 0.16555 0.0
C2801 C 0.30814 0.88948 0.17104 0.0
C2802 C 0.29732 0.88528 0.18914 0.0
C2803 C 0.28855 0.89424 0.20211 0.0
C2804 C 0.2906 0.90742 0.19709 0.0
C2805 C 0.30139 0.91167 0.17897 0.0
H2806 H 0.28018 0.89097 0.21611 0.0
H2807 H 0.38662 0.93029 0.04421 0.0
H2808 H 0.81585 0.35978 0.57304 0.0
H2809 H 0.8299 0.37468 0.60392 0.0
H2810 H 0.80587 0.40657 0.57319 0.0
H2811 H 0.79185 0.39172 0.54202 0.0
H2812 H 0.83104 0.41288 0.57052 0.0
H2813 H 0.80238 0.39309 0.65109 0.0
H2814 H 0.79177 0.37485 0.68002 0.0
H2815 H 0.8285 0.36115 0.71502 0.0
H2816 H 0.83935 0.3792 0.68582 0.0
H2817 H 0.85265 0.45794 0.69123 0.0
H2818 H 0.83827 0.44302 0.66183 0.0
H2819 H 0.86285 0.4112 0.68978 0.0
H2820 H 0.8771 0.42603 0.7203 0.0
H2821 H 0.83729 0.40495 0.69407 0.0
H2822 H 0.86589 0.42486 0.61307 0.0
H2823 H 0.87633 0.44328 0.58452 0.0
H2824 H 0.83945 0.45694 0.55059 0.0
H2825 H 0.82875 0.4387 0.57945 0.0
C2826 C 0.81364 0.36998 0.57268 0.0
C2827 C 0.80274 0.37461 0.55536 0.0
C2828 C 0.82164 0.37847 0.59033 0.0
C2829 C 0.81876 0.39168 0.59134 0.0
C2830 C 0.80822 0.3964 0.57278 0.0
C2831 C 0.80026 0.38792 0.55491 0.0
C2832 C 0.82644 0.4005 0.61285 0.0
C2833 C 0.83228 0.41124 0.5976 0.0
C2834 C 0.82821 0.39821 0.64808 0.0
C2835 C 0.82169 0.38743 0.666 0.0
C2836 C 0.8082 0.38614 0.66476 0.0
C2837 C 0.80214 0.37584 0.68123 0.0
C2838 C 0.80945 0.36683 0.69928 0.0
C2839 C 0.82284 0.36812 0.70099 0.0
C2840 C 0.82896 0.37839 0.6845 0.0
C2841 C 0.85483 0.44773 0.6919 0.0
C2842 C 0.86605 0.44315 0.70792 0.0
C2843 C 0.84667 0.43924 0.67477 0.0
C2844 C 0.84965 0.42607 0.67313 0.0
C2845 C 0.86046 0.42136 0.69059 0.0
C2846 C 0.86861 0.42984 0.7078 0.0
C2847 C 0.84188 0.4173 0.65172 0.0
C2848 C 0.83603 0.40658 0.66699 0.0
C2849 C 0.84008 0.41962 0.61653 0.0
C2850 C 0.84651 0.43048 0.5987 0.0
C2851 C 0.85999 0.43183 0.59972 0.0
C2852 C 0.86596 0.44224 0.58346 0.0
C2853 C 0.85856 0.45129 0.56582 0.0
C2854 C 0.84517 0.44993 0.56431 0.0
C2855 C 0.83915 0.43956 0.58059 0.0
H2856 H 0.86319 0.45934 0.55327 0.0
H2857 H 0.80474 0.35886 0.71201 0.0
H2858 H 0.29029 0.10391 0.45679 0.0
H2859 H 0.30635 0.08983 0.43102 0.0
H2860 H 0.3352 0.11943 0.44255 0.0
H2861 H 0.31923 0.13356 0.46925 0.0
H2862 H 0.3338 0.10964 0.37714 0.0
H2863 H 0.33713 0.09331 0.49075 0.0
H2864 H 0.32902 0.08468 0.54518 0.0
H2865 H 0.3131 0.05194 0.49318 0.0
H2866 H 0.32095 0.06047 0.43834 0.0
H2867 H 0.3846 0.06942 0.31796 0.0
H2868 H 0.37106 0.08399 0.35115 0.0
H2869 H 0.3411 0.05516 0.35452 0.0
H2870 H 0.35483 0.04028 0.32298 0.0
H2871 H 0.34439 0.06528 0.4152 0.0
H2872 H 0.33928 0.08195 0.30185 0.0
H2873 H 0.34654 0.09046 0.24645 0.0
H2874 H 0.36482 0.12236 0.29662 0.0
H2875 H 0.35781 0.11394 0.3524 0.0
C2876 C 0.30012 0.10733 0.45476 0.0
C2877 C 0.30348 0.11987 0.46516 0.0
C2878 C 0.30927 0.09928 0.43985 0.0
C2879 C 0.32195 0.10359 0.43503 0.0
C2880 C 0.32544 0.11597 0.44603 0.0
C2881 C 0.3163 0.12402 0.46116 0.0
C2882 C 0.33128 0.09542 0.41654 0.0
C2883 C 0.33634 0.10003 0.38573 0.0
C2884 C 0.33424 0.08277 0.4274 0.0
C2885 C 0.32955 0.07759 0.46038 0.0
C2886 C 0.33181 0.08432 0.49087 0.0
C2887 C 0.32728 0.07944 0.52181 0.0
C2888 C 0.32053 0.06778 0.52263 0.0
C2889 C 0.31832 0.06097 0.49251 0.0
C2890 C 0.32283 0.06582 0.46149 0.0
C2891 C 0.37515 0.06615 0.32588 0.0
C2892 C 0.3708 0.05367 0.31779 0.0
C2893 C 0.36737 0.07454 0.34457 0.0
C2894 C 0.35503 0.0707 0.35506 0.0
C2895 C 0.35059 0.05833 0.34665 0.0
C2896 C 0.3584 0.04989 0.32823 0.0
C2897 C 0.34681 0.07944 0.37551 0.0
C2898 C 0.34196 0.07493 0.40669 0.0
C2899 C 0.34394 0.09215 0.36483 0.0
C2900 C 0.34814 0.09724 0.33132 0.0
C2901 C 0.34494 0.09072 0.30109 0.0
C2902 C 0.34899 0.09554 0.26962 0.0
C2903 C 0.35616 0.10693 0.26802 0.0
C2904 C 0.35928 0.11353 0.2979 0.0
C2905 C 0.35526 0.10875 0.32945 0.0
H2906 H 0.35929 0.11064 0.24363 0.0
H2907 H 0.31702 0.06402 0.54661 0.0
H2908 H 0.64362 0.54651 0.2177 0.0
H2909 H 0.65793 0.56053 0.18503 0.0
H2910 H 0.62628 0.57108 0.11945 0.0
H2911 H 0.61213 0.55651 0.15056 0.0
H2912 H 0.64648 0.56648 0.08264 0.0
H2913 H 0.63819 0.5917 0.18214 0.0
H2914 H 0.63688 0.59635 0.2436 0.0
H2915 H 0.67758 0.58994 0.25362 0.0
H2916 H 0.67911 0.58507 0.19227 0.0
H2917 H 0.6768 0.6227 0.01115 0.0
H2918 H 0.66226 0.60813 0.04206 0.0
H2919 H 0.69478 0.59157 0.09461 0.0
H2920 H 0.70933 0.60601 0.06376 0.0
H2921 H 0.6741 0.59952 0.13754 0.0
H2922 H 0.68173 0.57442 0.03624 0.0
H2923 H 0.68241 0.57066 0.97429 0.0
H2924 H 0.6418 0.5782 0.96748 0.0
H2925 H 0.64093 0.58219 0.02936 0.0
C2926 C 0.63972 0.55175 0.1962 0.0
C2927 C 0.6267 0.55042 0.18691 0.0
C2928 C 0.64788 0.55988 0.17778 0.0
C2929 C 0.64313 0.567 0.15006 0.0
C2930 C 0.63014 0.56573 0.14082 0.0
C2931 C 0.62202 0.5575 0.15896 0.0
C2932 C 0.65176 0.57552 0.13009 0.0
C2933 C 0.65237 0.57383 0.09464 0.0
C2934 C 0.65962 0.58496 0.14576 0.0
C2935 C 0.65874 0.5879 0.18267 0.0
C2936 C 0.64685 0.59118 0.1975 0.0
C2937 C 0.64607 0.59387 0.2323 0.0
C2938 C 0.65713 0.59341 0.25251 0.0
C2939 C 0.66901 0.59028 0.23794 0.0
C2940 C 0.66984 0.58756 0.20314 0.0
C2941 C 0.68081 0.61585 0.02907 0.0
C2942 C 0.69416 0.61538 0.03493 0.0
C2943 C 0.67254 0.60755 0.04661 0.0
C2944 C 0.6775 0.59879 0.07049 0.0
C2945 C 0.69081 0.59826 0.07621 0.0
C2946 C 0.69909 0.60642 0.05839 0.0
C2947 C 0.66877 0.59044 0.09034 0.0
C2948 C 0.66816 0.59218 0.12569 0.0
C2949 C 0.66079 0.58117 0.07456 0.0
C2950 C 0.66129 0.57874 0.03737 0.0
C2951 C 0.67297 0.57539 0.02149 0.0
C2952 C 0.67338 0.5732 0.9864 0.0
C2953 C 0.66216 0.57423 0.96695 0.0
C2954 C 0.65049 0.57743 0.98257 0.0
C2955 C 0.65003 0.57965 0.01766 0.0
H2956 H 0.6625 0.57252 0.93978 0.0
H2957 H 0.65651 0.5955 0.27945 0.0
H2958 H 0.20438 0.88773 0.92974 0.0
H2959 H 0.18893 0.90084 0.89828 0.0
H2960 H 0.15764 0.87825 0.93938 0.0
H2961 H 0.17313 0.86499 0.97086 0.0
H2962 H 0.15503 0.88126 0.87236 0.0
H2963 H 0.16322 0.909 0.96702 0.0
H2964 H 0.17644 0.92123 0.00795 0.0
H2965 H 0.19234 0.9437 0.92628 0.0
H2966 H 0.17934 0.93148 0.88477 0.0
H2967 H 0.10511 0.92512 0.82275 0.0
H2968 H 0.12006 0.91086 0.85283 0.0
H2969 H 0.15224 0.93084 0.80744 0.0
H2970 H 0.13735 0.94523 0.77766 0.0
H2971 H 0.15399 0.92904 0.87722 0.0
H2972 H 0.14547 0.90097 0.78267 0.0
H2973 H 0.13183 0.88878 0.74264 0.0
H2974 H 0.11591 0.86704 0.82567 0.0
H2975 H 0.12934 0.87924 0.86628 0.0
C2976 C 0.1942 0.88572 0.93264 0.0
C2977 C 0.18995 0.8754 0.95292 0.0
C2978 C 0.18538 0.89319 0.91456 0.0
C2979 C 0.17213 0.89059 0.91674 0.0
C2980 C 0.16783 0.8804 0.93734 0.0
C2981 C 0.17667 0.87286 0.9553 0.0
C2982 C 0.16284 0.89822 0.89646 0.0
C2983 C 0.15465 0.8917 0.8738 0.0
C2984 C 0.16257 0.91185 0.89784 0.0
C2985 C 0.17039 0.91924 0.92275 0.0
C2986 C 0.16961 0.91648 0.95775 0.0
C2987 C 0.17705 0.92342 0.98106 0.0
C2988 C 0.18525 0.93321 0.96971 0.0
C2989 C 0.18599 0.9361 0.93503 0.0
C2990 C 0.17858 0.92918 0.9116 0.0
C2991 C 0.11537 0.92634 0.81888 0.0
C2992 C 0.12009 0.93627 0.79793 0.0
C2993 C 0.12389 0.91817 0.83591 0.0
C2994 C 0.13724 0.91981 0.83229 0.0
C2995 C 0.14196 0.92944 0.81051 0.0
C2996 C 0.13345 0.93756 0.7933 0.0
C2997 C 0.14626 0.91209 0.85303 0.0
C2998 C 0.15437 0.9186 0.87583 0.0
C2999 C 0.14639 0.89847 0.85194 0.0
C3000 C 0.13832 0.89111 0.82756 0.0
C3001 C 0.13898 0.89367 0.79244 0.0
C3002 C 0.1313 0.88674 0.76963 0.0
C3003 C 0.12298 0.87717 0.78161 0.0
C3004 C 0.12235 0.87448 0.81643 0.0
C3005 C 0.13 0.88138 0.83935 0.0
H3006 H 0.11705 0.87181 0.76391 0.0
H3007 H 0.191 0.93858 0.98781 0.0
loop_
_geom_bond_atom_site_label_1
_geom_bond_atom_site_label_2
_geom_bond_distance
_geom_bond_site_symmetry_2
_ccdc_geom_bond_type
Li0 N17 1.990 . S
Li0 O60 1.956 1_554 S
Li0 O61 1.970 . S
Li0 O62 1.961 . S
Li1 N25 1.990 . S
Li1 O60 1.970 . S
Li1 O61 1.956 1_556 S
Li1 O63 1.961 . S
Li2 N47 1.990 . S
Li2 O60 1.961 . S
Li2 O62 1.956 1_556 S
Li2 O63 1.970 . S
Li3 N53 1.990 . S
Li3 O61 1.961 . S
Li3 O62 1.970 . S
Li3 O63 1.956 1_554 S
C4 C6 1.348 . S
C4 C7 1.356 . S
C4 O60 1.325 . S
N5 C8 1.314 . S
N5 C9 1.279 . S
C6 C4 1.348 . S
C6 C8 1.353 . S
C6 H64 0.929 . S
C7 C4 1.356 . S
C7 C9 1.358 . S
C7 H65 0.930 . S
C8 N5 1.314 . S
C8 C6 1.353 . S
C8 H66 0.930 . S
C9 N5 1.279 . S
C9 C7 1.358 . S
C9 H67 0.930 . S
C10 C13 1.348 . S
C10 C14 1.356 . S
C10 O61 1.325 . S
C11 N12 1.279 . S
C11 C14 1.358 . S
C11 H68 0.930 . S
N12 C11 1.279 . S
N12 C15 1.314 . S
C13 C10 1.348 . S
C13 C15 1.353 . S
C13 H69 0.929 . S
C14 C10 1.356 . S
C14 C11 1.358 . S
C14 H70 0.930 . S
C15 N12 1.314 . S
C15 C13 1.353 . S
C15 H71 0.930 . S
C16 N17 1.314 . S
C16 C21 1.353 . S
C16 H22 0.930 . S
N17 Li0 1.990 . S
N17 C16 1.314 . S
N17 C19 1.279 1_554 S
C18 C19 1.358 1_554 S
C18 C20 1.356 . S
C18 H72 0.930 1_554 S
C19 N17 1.279 1_556 S
C19 C18 1.358 1_556 S
C19 H23 0.930 . S
C20 C18 1.356 . S
C20 C21 1.348 . S
C21 C16 1.353 . S
C21 C20 1.348 . S
C21 H73 0.929 . S
H22 C16 0.930 . S
H23 C19 0.930 . S
C24 N25 1.314 . S
C24 C26 1.353 . S
C24 H30 0.930 . S
N25 Li1 1.990 . S
N25 C24 1.314 . S
N25 C28 1.279 1_556 S
C26 C24 1.353 . S
C26 C29 1.348 . S
C26 H74 0.929 . S
C27 C28 1.358 1_556 S
C27 C29 1.356 . S
C27 H75 0.930 1_556 S
C28 N25 1.279 1_554 S
C28 C27 1.358 1_554 S
C28 H31 0.930 . S
C29 C26 1.348 . S
C29 C27 1.356 . S
H30 C24 0.930 . S
H31 C28 0.930 . S
C32 C34 1.348 . S
C32 C35 1.356 . S
C32 O62 1.325 . S
N33 C36 1.314 . S
N33 C37 1.279 . S
C34 C32 1.348 . S
C34 C36 1.353 . S
C34 H76 0.929 . S
C35 C32 1.356 . S
C35 C37 1.358 . S
C35 H77 0.930 1_554 S
C36 N33 1.314 . S
C36 C34 1.353 . S
C36 H78 0.930 . S
C37 N33 1.279 . S
C37 C35 1.358 . S
C37 H79 0.930 1_554 S
C38 C39 1.348 . S
C38 C40 1.356 . S
C38 O63 1.325 . S
C39 C38 1.348 . S
C39 C41 1.353 . S
C39 H80 0.929 . S
C40 C38 1.356 . S
C40 C42 1.358 . S
C40 H81 0.930 1_556 S
C41 C39 1.353 . S
C41 N43 1.314 . S
C41 H82 0.930 . S
C42 C40 1.358 . S
C42 N43 1.279 . S
C42 H83 0.930 1_556 S
N43 C41 1.314 . S
N43 C42 1.279 . S
C44 C46 1.353 . S
C44 N47 1.314 . S
C44 H50 0.930 . S
C45 N47 1.279 . S
C45 C48 1.358 . S
C45 H51 0.930 . S
C46 C44 1.353 . S
C46 C49 1.348 . S
C46 H84 0.929 . S
N47 Li2 1.990 . S
N47 C44 1.314 . S
N47 C45 1.279 . S
C48 C45 1.358 . S
C48 C49 1.356 . S
C48 H85 0.930 . S
C49 C46 1.348 . S
C49 C48 1.356 . S
H50 C44 0.930 . S
H51 C45 0.930 . S
C52 N53 1.314 . S
C52 C54 1.353 . S
C52 H58 0.930 . S
N53 Li3 1.990 . S
N53 C52 1.314 . S
N53 C56 1.279 . S
C54 C52 1.353 . S
C54 C57 1.348 . S
C54 H86 0.929 . S
C55 C56 1.358 . S
C55 C57 1.356 . S
C55 H87 0.930 . S
C56 N53 1.279 . S
C56 C55 1.358 . S
C56 H59 0.930 . S
C57 C54 1.348 . S
C57 C55 1.356 . S
H58 C52 0.930 . S
H59 C56 0.930 . S
O60 Li0 1.956 1_556 S
O60 Li1 1.970 . S
O60 Li2 1.961 . S
O60 C4 1.325 . S
O61 Li0 1.970 . S
O61 Li1 1.956 1_554 S
O61 Li3 1.961 . S
O61 C10 1.325 . S
O62 Li0 1.961 . S
O62 Li2 1.956 1_554 S
O62 Li3 1.970 . S
O62 C32 1.325 . S
O63 Li1 1.961 . S
O63 Li2 1.970 . S
O63 Li3 1.956 1_556 S
O63 C38 1.325 . S
H64 C6 0.929 . S
H65 C7 0.930 . S
H66 C8 0.930 . S
H67 C9 0.930 . S
H68 C11 0.930 . S
H69 C13 0.929 . S
H70 C14 0.930 . S
H71 C15 0.930 . S
H72 C18 0.930 1_556 S
H73 C21 0.929 . S
H74 C26 0.929 . S
H75 C27 0.930 1_554 S
H76 C34 0.929 . S
H77 C35 0.930 1_556 S
H78 C36 0.930 . S
H79 C37 0.930 1_556 S
H80 C39 0.929 . S
H81 C40 0.930 1_554 S
H82 C41 0.930 . S
H83 C42 0.930 1_554 S
H84 C46 0.929 . S
H85 C48 0.930 . S
H86 C54 0.929 . S
H87 C55 0.930 . S
Li88 N105 1.990 . S
Li88 O148 1.956 . S
Li88 O149 1.970 1_565 S
Li88 O150 1.961 . S
Li89 N113 1.990 . S
Li89 O148 1.970 1_545 S
Li89 O149 1.956 . S
Li89 O151 1.961 . S
Li90 N135 1.990 . S
Li90 O148 1.961 . S
Li90 O150 1.956 . S
Li90 O151 1.970 1_565 S
Li91 N141 1.990 . S
Li91 O149 1.961 . S
Li91 O150 1.970 1_545 S
Li91 O151 1.956 . S
C92 C94 1.348 . S
C92 C95 1.356 . S
C92 O148 1.325 . S
N93 C96 1.314 . S
N93 C97 1.279 . S
C94 C92 1.348 . S
C94 C96 1.353 . S
C94 H152 0.929 . S
C95 C92 1.356 . S
C95 C97 1.358 . S
C95 H153 0.930 . S
C96 N93 1.314 . S
C96 C94 1.353 . S
C96 H154 0.930 . S
C97 N93 1.279 . S
C97 C95 1.358 . S
C97 H155 0.930 . S
C98 C101 1.348 . S
C98 C102 1.356 . S
C98 O149 1.325 . S
C99 N100 1.279 . S
C99 C102 1.358 . S
C99 H156 0.930 . S
N100 C99 1.279 . S
N100 C103 1.314 . S
C101 C98 1.348 . S
C101 C103 1.353 . S
C101 H157 0.929 . S
C102 C98 1.356 . S
C102 C99 1.358 . S
C102 H158 0.930 . S
C103 N100 1.314 . S
C103 C101 1.353 . S
C103 H159 0.930 . S
C104 N105 1.314 . S
C104 C109 1.353 . S
C104 H110 0.930 1_565 S
N105 Li88 1.990 . S
N105 C104 1.314 . S
N105 C107 1.279 . S
C106 C107 1.358 . S
C106 C108 1.356 . S
C106 H160 0.930 . S
C107 N105 1.279 . S
C107 C106 1.358 . S
C107 H111 0.930 . S
C108 C106 1.356 . S
C108 C109 1.348 . S
C109 C104 1.353 . S
C109 C108 1.348 . S
C109 H161 0.929 . S
H110 C104 0.930 1_545 S
H111 C107 0.930 . S
C112 N113 1.314 . S
C112 C114 1.353 . S
C112 H118 0.930 1_545 S
N113 Li89 1.990 . S
N113 C112 1.314 . S
N113 C116 1.279 . S
C114 C112 1.353 . S
C114 C117 1.348 . S
C114 H162 0.929 . S
C115 C116 1.358 . S
C115 C117 1.356 . S
C115 H163 0.930 . S
C116 N113 1.279 . S
C116 C115 1.358 . S
C116 H119 0.930 . S
C117 C114 1.348 . S
C117 C115 1.356 . S
H118 C112 0.930 1_565 S
H119 C116 0.930 . S
C120 C122 1.332 1_565 S
C120 C123 1.356 . S
C120 O150 1.325 . S
N121 C124 1.314 . S
N121 C125 1.279 . S
C122 C120 1.332 1_545 S
C122 C124 1.344 1_545 S
C122 H164 0.955 . S
C123 C120 1.356 . S
C123 C125 1.358 . S
C123 H165 0.930 . S
C124 N121 1.314 . S
C124 C122 1.344 1_565 S
C124 H166 0.930 1_565 S
C125 N121 1.279 . S
C125 C123 1.358 . S
C125 H167 0.930 . S
C126 C127 1.342 1_545 S
C126 C128 1.356 . S
C126 O151 1.325 . S
C127 C126 1.342 1_565 S
C127 C129 1.350 1_565 S
C127 H168 0.939 . S
C128 C126 1.356 . S
C128 C130 1.358 . S
C128 H169 0.930 . S
C129 C127 1.350 1_545 S
C129 N131 1.314 . S
C129 H170 0.930 1_545 S
C130 C128 1.358 . S
C130 N131 1.279 . S
C130 H171 0.930 . S
N131 C129 1.314 . S
N131 C130 1.279 . S
C132 C134 1.353 . S
C132 N135 1.314 . S
C132 H138 0.930 . S
C133 N135 1.279 . S
C133 C136 1.358 . S
C133 H139 0.930 . S
C134 C132 1.353 . S
C134 C137 1.348 . S
C134 H172 0.929 . S
N135 Li90 1.990 . S
N135 C132 1.314 . S
N135 C133 1.279 . S
C136 C133 1.358 . S
C136 C137 1.356 . S
C136 H173 0.930 . S
C137 C134 1.348 . S
C137 C136 1.356 . S
H138 C132 0.930 . S
H139 C133 0.930 . S
C140 N141 1.314 . S
C140 C142 1.353 . S
C140 H146 0.930 . S
N141 Li91 1.990 . S
N141 C140 1.314 . S
N141 C144 1.279 . S
C142 C140 1.353 . S
C142 C145 1.348 . S
C142 H174 0.929 . S
C143 C144 1.358 . S
C143 C145 1.356 . S
C143 H175 0.930 . S
C144 N141 1.279 . S
C144 C143 1.358 . S
C144 H147 0.930 . S
C145 C142 1.348 . S
C145 C143 1.356 . S
H146 C140 0.930 . S
H147 C144 0.930 . S
O148 Li88 1.956 . S
O148 Li89 1.970 1_565 S
O148 Li90 1.961 . S
O148 C92 1.325 . S
O149 Li88 1.970 1_545 S
O149 Li89 1.956 . S
O149 Li91 1.961 . S
O149 C98 1.325 . S
O150 Li88 1.961 . S
O150 Li90 1.956 . S
O150 Li91 1.970 1_565 S
O150 C120 1.325 . S
O151 Li89 1.961 . S
O151 Li90 1.970 1_545 S
O151 Li91 1.956 . S
O151 C126 1.325 . S
H152 C94 0.929 . S
H153 C95 0.930 . S
H154 C96 0.930 . S
H155 C97 0.930 . S
H156 C99 0.930 . S
H157 C101 0.929 . S
H158 C102 0.930 . S
H159 C103 0.930 . S
H160 C106 0.930 . S
H161 C109 0.929 . S
H162 C114 0.929 . S
H163 C115 0.930 . S
H164 C122 0.955 . S
H165 C123 0.930 . S
H166 C124 0.930 1_545 S
H167 C125 0.930 . S
H168 C127 0.939 . S
H169 C128 0.930 . S
H170 C129 0.930 1_565 S
H171 C130 0.930 . S
H172 C134 0.929 . S
H173 C136 0.930 . S
H174 C142 0.929 . S
H175 C143 0.930 . S
Li176 N193 1.990 . S
Li176 O236 1.956 . S
Li176 O237 1.970 . S
Li176 O238 1.961 . S
Li177 N201 1.990 . S
Li177 O236 1.970 . S
Li177 O237 1.956 . S
Li177 O239 1.961 . S
Li178 N223 1.990 . S
Li178 O236 1.961 . S
Li178 O238 1.956 . S
Li178 O239 1.970 . S
Li179 N229 1.990 . S
Li179 O237 1.961 . S
Li179 O238 1.970 . S
Li179 O239 1.956 . S
C180 C182 1.348 . S
C180 C183 1.356 . S
C180 O236 1.325 . S
N181 C184 1.314 . S
N181 C185 1.279 . S
C182 C180 1.348 . S
C182 C184 1.353 . S
C182 H240 0.929 . S
C183 C180 1.356 . S
C183 C185 1.358 . S
C183 H241 0.930 . S
C184 N181 1.314 . S
C184 C182 1.353 . S
C184 H242 0.930 . S
C185 N181 1.279 . S
C185 C183 1.358 . S
C185 H243 0.930 . S
C186 C189 1.348 . S
C186 C190 1.356 . S
C186 O237 1.325 . S
C187 N188 1.279 . S
C187 C190 1.358 . S
C187 H244 0.930 . S
N188 C187 1.279 . S
N188 C191 1.314 . S
C189 C186 1.348 . S
C189 C191 1.353 . S
C189 H245 0.929 . S
C190 C186 1.356 . S
C190 C187 1.358 . S
C190 H246 0.930 . S
C191 N188 1.314 . S
C191 C189 1.353 . S
C191 H247 0.930 . S
C192 N193 1.314 . S
C192 C197 1.353 . S
C192 H198 0.930 . S
N193 Li176 1.990 . S
N193 C192 1.314 . S
N193 C195 1.279 . S
C194 C195 1.358 . S
C194 C196 1.356 . S
C194 H248 0.930 . S
C195 N193 1.279 . S
C195 C194 1.358 . S
C195 H199 0.930 . S
C196 C194 1.356 . S
C196 C197 1.348 . S
C197 C192 1.353 . S
C197 C196 1.348 . S
C197 H249 0.929 . S
H198 C192 0.930 . S
H199 C195 0.930 . S
C200 N201 1.314 . S
C200 C202 1.353 . S
C200 H206 0.930 . S
N201 Li177 1.990 . S
N201 C200 1.314 . S
N201 C204 1.279 . S
C202 C200 1.353 . S
C202 C205 1.348 . S
C202 H250 0.929 . S
C203 C204 1.358 . S
C203 C205 1.356 . S
C203 H251 0.930 . S
C204 N201 1.279 . S
C204 C203 1.358 . S
C204 H207 0.930 . S
C205 C202 1.348 . S
C205 C203 1.356 . S
H206 C200 0.930 . S
H207 C204 0.930 . S
C208 C210 1.348 . S
C208 C211 1.356 . S
C208 O238 1.325 . S
N209 C212 1.314 . S
N209 C213 1.279 . S
C210 C208 1.348 . S
C210 C212 1.353 . S
C210 H252 0.929 . S
C211 C208 1.356 . S
C211 C213 1.358 . S
C211 H253 0.930 . S
C212 N209 1.314 . S
C212 C210 1.353 . S
C212 H254 0.930 . S
C213 N209 1.279 . S
C213 C211 1.358 . S
C213 H255 0.930 . S
C214 C215 1.348 . S
C214 C216 1.356 . S
C214 O239 1.325 . S
C215 C214 1.348 . S
C215 C217 1.353 . S
C215 H256 0.929 . S
C216 C214 1.356 . S
C216 C218 1.358 . S
C216 H257 0.930 . S
C217 C215 1.353 . S
C217 N219 1.314 . S
C217 H258 0.930 . S
C218 C216 1.358 . S
C218 N219 1.279 . S
C218 H259 0.930 . S
N219 C217 1.314 . S
N219 C218 1.279 . S
C220 C222 1.353 . S
C220 N223 1.314 . S
C220 H226 0.930 . S
C221 N223 1.279 . S
C221 C224 1.358 . S
C221 H227 0.930 . S
C222 C220 1.353 . S
C222 C225 1.348 . S
C222 H260 0.929 . S
N223 Li178 1.990 . S
N223 C220 1.314 . S
N223 C221 1.279 . S
C224 C221 1.358 . S
C224 C225 1.356 . S
C224 H261 0.930 . S
C225 C222 1.348 . S
C225 C224 1.356 . S
H226 C220 0.930 . S
H227 C221 0.930 . S
C228 N229 1.314 . S
C228 C230 1.353 . S
C228 H234 0.930 . S
N229 Li179 1.990 . S
N229 C228 1.314 . S
N229 C232 1.279 . S
C230 C228 1.353 . S
C230 C233 1.348 . S
C230 H262 0.929 . S
C231 C232 1.358 . S
C231 C233 1.356 . S
C231 H263 0.930 . S
C232 N229 1.279 . S
C232 C231 1.358 . S
C232 H235 0.930 . S
C233 C230 1.348 . S
C233 C231 1.356 . S
H234 C228 0.930 . S
H235 C232 0.930 . S
O236 Li176 1.956 . S
O236 Li177 1.970 . S
O236 Li178 1.961 . S
O236 C180 1.325 . S
O237 Li176 1.970 . S
O237 Li177 1.956 . S
O237 Li179 1.961 . S
O237 C186 1.325 . S
O238 Li176 1.961 . S
O238 Li178 1.956 . S
O238 Li179 1.970 . S
O238 C208 1.325 . S
O239 Li177 1.961 . S
O239 Li178 1.970 . S
O239 Li179 1.956 . S
O239 C214 1.325 . S
H240 C182 0.929 . S
H241 C183 0.930 . S
H242 C184 0.930 . S
H243 C185 0.930 . S
H244 C187 0.930 . S
H245 C189 0.929 . S
H246 C190 0.930 . S
H247 C191 0.930 . S
H248 C194 0.930 . S
H249 C197 0.929 . S
H250 C202 0.929 . S
H251 C203 0.930 . S
H252 C210 0.929 . S
H253 C211 0.930 . S
H254 C212 0.930 . S
H255 C213 0.930 . S
H256 C215 0.929 . S
H257 C216 0.930 . S
H258 C217 0.930 . S
H259 C218 0.930 . S
H260 C222 0.929 . S
H261 C224 0.930 . S
H262 C230 0.929 . S
H263 C231 0.930 . S
Li264 N281 1.990 . S
Li264 O324 1.956 . S
Li264 O325 1.970 1_565 S
Li264 O326 1.961 . S
Li265 N289 1.990 . S
Li265 O324 1.970 1_545 S
Li265 O325 1.956 . S
Li265 O327 1.961 . S
Li266 N311 1.990 . S
Li266 O324 1.961 . S
Li266 O326 1.956 . S
Li266 O327 1.970 1_565 S
Li267 N317 1.990 . S
Li267 O325 1.961 . S
Li267 O326 1.970 1_545 S
Li267 O327 1.956 . S
C268 C270 1.332 1_565 S
C268 C271 1.356 . S
C268 O324 1.325 . S
N269 C272 1.314 . S
N269 C273 1.279 . S
C270 C268 1.332 1_545 S
C270 C272 1.344 1_545 S
C270 H328 0.955 . S
C271 C268 1.356 . S
C271 C273 1.358 . S
C271 H329 0.930 . S
C272 N269 1.314 . S
C272 C270 1.344 1_565 S
C272 H330 0.930 1_565 S
C273 N269 1.279 . S
C273 C271 1.358 . S
C273 H331 0.930 . S
C274 C277 1.342 1_545 S
C274 C278 1.356 . S
C274 O325 1.325 . S
C275 N276 1.279 . S
C275 C278 1.358 . S
C275 H332 0.930 . S
N276 C275 1.279 . S
N276 C279 1.314 . S
C277 C274 1.342 1_565 S
C277 C279 1.350 1_565 S
C277 H333 0.939 . S
C278 C274 1.356 . S
C278 C275 1.358 . S
C278 H334 0.930 . S
C279 N276 1.314 . S
C279 C277 1.350 1_545 S
C279 H335 0.930 1_545 S
C280 N281 1.314 . S
C280 C285 1.353 . S
C280 H286 0.930 . S
N281 Li264 1.990 . S
N281 C280 1.314 . S
N281 C283 1.279 . S
C282 C283 1.358 . S
C282 C284 1.356 . S
C282 H336 0.930 . S
C283 N281 1.279 . S
C283 C282 1.358 . S
C283 H287 0.930 . S
C284 C282 1.356 . S
C284 C285 1.348 . S
C285 C280 1.353 . S
C285 C284 1.348 . S
C285 H337 0.929 . S
H286 C280 0.930 . S
H287 C283 0.930 . S
C288 N289 1.314 . S
C288 C290 1.353 . S
C288 H294 0.930 . S
N289 Li265 1.990 . S
N289 C288 1.314 . S
N289 C292 1.279 . S
C290 C288 1.353 . S
C290 C293 1.348 . S
C290 H338 0.929 . S
C291 C292 1.358 . S
C291 C293 1.356 . S
C291 H339 0.930 . S
C292 N289 1.279 . S
C292 C291 1.358 . S
C292 H295 0.930 . S
C293 C290 1.348 . S
C293 C291 1.356 . S
H294 C288 0.930 . S
H295 C292 0.930 . S
C296 C298 1.348 . S
C296 C299 1.356 . S
C296 O326 1.325 . S
N297 C300 1.314 . S
N297 C301 1.279 . S
C298 C296 1.348 . S
C298 C300 1.353 . S
C298 H340 0.929 . S
C299 C296 1.356 . S
C299 C301 1.358 . S
C299 H341 0.930 . S
C300 N297 1.314 . S
C300 C298 1.353 . S
C300 H342 0.930 . S
C301 N297 1.279 . S
C301 C299 1.358 . S
C301 H343 0.930 . S
C302 C303 1.348 . S
C302 C304 1.356 . S
C302 O327 1.325 . S
C303 C302 1.348 . S
C303 C305 1.353 . S
C303 H344 0.929 . S
C304 C302 1.356 . S
C304 C306 1.358 . S
C304 H345 0.930 . S
C305 C303 1.353 . S
C305 N307 1.314 . S
C305 H346 0.930 . S
C306 C304 1.358 . S
C306 N307 1.279 . S
C306 H347 0.930 . S
N307 C305 1.314 . S
N307 C306 1.279 . S
C308 C310 1.353 . S
C308 N311 1.314 . S
C308 H314 0.930 1_565 S
C309 N311 1.279 . S
C309 C312 1.358 . S
C309 H315 0.930 . S
C310 C308 1.353 . S
C310 C313 1.348 . S
C310 H348 0.929 . S
N311 Li266 1.990 . S
N311 C308 1.314 . S
N311 C309 1.279 . S
C312 C309 1.358 . S
C312 C313 1.356 . S
C312 H349 0.930 . S
C313 C310 1.348 . S
C313 C312 1.356 . S
H314 C308 0.930 1_545 S
H315 C309 0.930 . S
C316 N317 1.314 . S
C316 C318 1.353 . S
C316 H322 0.930 1_545 S
N317 Li267 1.990 . S
N317 C316 1.314 . S
N317 C320 1.279 . S
C318 C316 1.353 . S
C318 C321 1.348 . S
C318 H350 0.929 . S
C319 C320 1.358 . S
C319 C321 1.356 . S
C319 H351 0.930 . S
C320 N317 1.279 . S
C320 C319 1.358 . S
C320 H323 0.930 . S
C321 C318 1.348 . S
C321 C319 1.356 . S
H322 C316 0.930 1_565 S
H323 C320 0.930 . S
O324 Li264 1.956 . S
O324 Li265 1.970 1_565 S
O324 Li266 1.961 . S
O324 C268 1.325 . S
O325 Li264 1.970 1_545 S
O325 Li265 1.956 . S
O325 Li267 1.961 . S
O325 C274 1.325 . S
O326 Li264 1.961 . S
O326 Li266 1.956 . S
O326 Li267 1.970 1_565 S
O326 C296 1.325 . S
O327 Li265 1.961 . S
O327 Li266 1.970 1_545 S
O327 Li267 1.956 . S
O327 C302 1.325 . S
H328 C270 0.955 . S
H329 C271 0.930 . S
H330 C272 0.930 1_545 S
H331 C273 0.930 . S
H332 C275 0.930 . S
H333 C277 0.939 . S
H334 C278 0.930 . S
H335 C279 0.930 1_565 S
H336 C282 0.930 . S
H337 C285 0.929 . S
H338 C290 0.929 . S
H339 C291 0.930 . S
H340 C298 0.929 . S
H341 C299 0.930 . S
H342 C300 0.930 . S
H343 C301 0.930 . S
H344 C303 0.929 . S
H345 C304 0.930 . S
H346 C305 0.930 . S
H347 C306 0.930 . S
H348 C310 0.929 . S
H349 C312 0.930 . S
H350 C318 0.929 . S
H351 C319 0.930 . S
Li352 N369 1.990 . S
Li352 O412 1.956 . S
Li352 O413 1.970 . S
Li352 O414 1.961 1_554 S
Li353 N377 1.990 . S
Li353 O412 1.970 . S
Li353 O413 1.956 . S
Li353 O415 1.961 1_554 S
Li354 N399 1.990 . S
Li354 O412 1.961 1_556 S
Li354 O414 1.956 . S
Li354 O415 1.970 . S
Li355 N405 1.990 . S
Li355 O413 1.961 1_556 S
Li355 O414 1.970 . S
Li355 O415 1.956 . S
C356 C358 1.348 . S
C356 C359 1.356 . S
C356 O412 1.325 . S
N357 C360 1.314 . S
N357 C361 1.279 . S
C358 C356 1.348 . S
C358 C360 1.353 . S
C358 H416 0.929 . S
C359 C356 1.356 . S
C359 C361 1.358 . S
C359 H417 0.930 . S
C360 N357 1.314 . S
C360 C358 1.353 . S
C360 H418 0.930 . S
C361 N357 1.279 . S
C361 C359 1.358 . S
C361 H419 0.930 . S
C362 C365 1.348 . S
C362 C366 1.356 1_554 S
C362 O413 1.325 . S
C363 N364 1.279 . S
C363 C366 1.358 1_554 S
C363 H420 0.930 1_554 S
N364 C363 1.279 . S
N364 C367 1.314 . S
C365 C362 1.348 . S
C365 C367 1.353 . S
C365 H421 0.929 . S
C366 C362 1.356 1_556 S
C366 C363 1.358 1_556 S
C366 H422 0.930 . S
C367 N364 1.314 . S
C367 C365 1.353 . S
C367 H423 0.930 . S
C368 N369 1.314 . S
C368 C373 1.353 . S
C368 H374 0.930 . S
N369 Li352 1.990 . S
N369 C368 1.314 . S
N369 C371 1.279 . S
C370 C371 1.358 . S
C370 C372 1.356 . S
C370 H424 0.930 . S
C371 N369 1.279 . S
C371 C370 1.358 . S
C371 H375 0.930 . S
C372 C370 1.356 . S
C372 C373 1.348 . S
C373 C368 1.353 . S
C373 C372 1.348 . S
C373 H425 0.929 . S
H374 C368 0.930 . S
H375 C371 0.930 . S
C376 N377 1.314 . S
C376 C378 1.353 . S
C376 H382 0.930 1_554 S
N377 Li353 1.990 . S
N377 C376 1.314 . S
N377 C380 1.279 . S
C378 C376 1.353 . S
C378 C381 1.348 . S
C378 H426 0.929 . S
C379 C380 1.358 . S
C379 C381 1.356 . S
C379 H427 0.930 . S
C380 N377 1.279 . S
C380 C379 1.358 . S
C380 H383 0.930 . S
C381 C378 1.348 . S
C381 C379 1.356 . S
H382 C376 0.930 1_556 S
H383 C380 0.930 . S
C384 C386 1.348 . S
C384 C387 1.356 1_556 S
C384 O414 1.325 . S
N385 C388 1.314 . S
N385 C389 1.279 . S
C386 C384 1.348 . S
C386 C388 1.353 . S
C386 H428 0.929 . S
C387 C384 1.356 1_554 S
C387 C389 1.358 1_554 S
C387 H429 0.930 . S
C388 N385 1.314 . S
C388 C386 1.353 . S
C388 H430 0.930 . S
C389 N385 1.279 . S
C389 C387 1.358 1_556 S
C389 H431 0.930 1_556 S
C390 C391 1.348 . S
C390 C392 1.356 . S
C390 O415 1.325 . S
C391 C390 1.348 . S
C391 C393 1.353 . S
C391 H432 0.929 . S
C392 C390 1.356 . S
C392 C394 1.358 . S
C392 H433 0.930 . S
C393 C391 1.353 . S
C393 N395 1.314 . S
C393 H434 0.930 . S
C394 C392 1.358 . S
C394 N395 1.279 . S
C394 H435 0.930 . S
N395 C393 1.314 . S
N395 C394 1.279 . S
C396 C398 1.353 . S
C396 N399 1.314 . S
C396 H402 0.930 1_556 S
C397 N399 1.279 . S
C397 C400 1.358 . S
C397 H403 0.930 . S
C398 C396 1.353 . S
C398 C401 1.348 . S
C398 H436 0.929 . S
N399 Li354 1.990 . S
N399 C396 1.314 . S
N399 C397 1.279 . S
C400 C397 1.358 . S
C400 C401 1.356 . S
C400 H437 0.930 . S
C401 C398 1.348 . S
C401 C400 1.356 . S
H402 C396 0.930 1_554 S
H403 C397 0.930 . S
C404 N405 1.314 . S
C404 C406 1.353 . S
C404 H410 0.930 . S
N405 Li355 1.990 . S
N405 C404 1.314 . S
N405 C408 1.279 . S
C406 C404 1.353 . S
C406 C409 1.348 . S
C406 H438 0.929 . S
C407 C408 1.358 . S
C407 C409 1.356 . S
C407 H439 0.930 . S
C408 N405 1.279 . S
C408 C407 1.358 . S
C408 H411 0.930 . S
C409 C406 1.348 . S
C409 C407 1.356 . S
H410 C404 0.930 . S
H411 C408 0.930 . S
O412 Li352 1.956 . S
O412 Li353 1.970 . S
O412 Li354 1.961 1_554 S
O412 C356 1.325 . S
O413 Li352 1.970 . S
O413 Li353 1.956 . S
O413 Li355 1.961 1_554 S
O413 C362 1.325 . S
O414 Li352 1.961 1_556 S
O414 Li354 1.956 . S
O414 Li355 1.970 . S
O414 C384 1.325 . S
O415 Li353 1.961 1_556 S
O415 Li354 1.970 . S
O415 Li355 1.956 . S
O415 C390 1.325 . S
H416 C358 0.929 . S
H417 C359 0.930 . S
H418 C360 0.930 . S
H419 C361 0.930 . S
H420 C363 0.930 1_556 S
H421 C365 0.929 . S
H422 C366 0.930 . S
H423 C367 0.930 . S
H424 C370 0.930 . S
H425 C373 0.929 . S
H426 C378 0.929 . S
H427 C379 0.930 . S
H428 C386 0.929 . S
H429 C387 0.930 . S
H430 C388 0.930 . S
H431 C389 0.930 1_554 S
H432 C391 0.929 . S
H433 C392 0.930 . S
H434 C393 0.930 . S
H435 C394 0.930 . S
H436 C398 0.929 . S
H437 C400 0.930 . S
H438 C406 0.929 . S
H439 C407 0.930 . S
Li440 N457 1.990 . S
Li440 O500 1.956 . S
Li440 O501 1.970 1_565 S
Li440 O502 1.961 . S
Li441 N465 1.990 . S
Li441 O500 1.970 1_545 S
Li441 O501 1.956 . S
Li441 O503 1.961 . S
Li442 N487 1.990 . S
Li442 O500 1.961 . S
Li442 O502 1.956 . S
Li442 O503 1.970 1_565 S
Li443 N493 1.990 . S
Li443 O501 1.961 . S
Li443 O502 1.970 1_545 S
Li443 O503 1.956 . S
C444 C446 1.348 . S
C444 C447 1.356 . S
C444 O500 1.325 . S
N445 C448 1.314 . S
N445 C449 1.279 . S
C446 C444 1.348 . S
C446 C448 1.353 . S
C446 H504 0.929 . S
C447 C444 1.356 . S
C447 C449 1.358 . S
C447 H505 0.930 . S
C448 N445 1.314 . S
C448 C446 1.353 . S
C448 H506 0.930 . S
C449 N445 1.279 . S
C449 C447 1.358 . S
C449 H507 0.930 . S
C450 C453 1.348 1_545 S
C450 C454 1.356 . S
C450 O501 1.325 . S
C451 N452 1.279 . S
C451 C454 1.358 . S
C451 H508 0.930 . S
N452 C451 1.279 . S
N452 C455 1.378 . S
C453 C450 1.348 1_565 S
C453 C455 1.336 1_565 S
C453 H509 0.929 . S
C454 C450 1.356 . S
C454 C451 1.358 . S
C454 H510 0.930 . S
C455 N452 1.378 . S
C455 C453 1.336 1_545 S
C455 H511 0.881 1_545 S
C456 N457 1.314 . S
C456 C461 1.353 . S
C456 H462 0.930 . S
N457 Li440 1.990 . S
N457 C456 1.314 . S
N457 C459 1.279 . S
C458 C459 1.358 . S
C458 C460 1.356 . S
C458 H512 0.930 . S
C459 N457 1.279 . S
C459 C458 1.358 . S
C459 H463 0.930 . S
C460 C458 1.356 . S
C460 C461 1.348 . S
C461 C456 1.353 . S
C461 C460 1.348 . S
C461 H513 0.929 . S
H462 C456 0.930 . S
H463 C459 0.930 . S
C464 N465 1.314 . S
C464 C466 1.353 . S
C464 H470 0.930 . S
N465 Li441 1.990 . S
N465 C464 1.314 . S
N465 C468 1.279 . S
C466 C464 1.353 . S
C466 C469 1.348 . S
C466 H514 0.929 . S
C467 C468 1.358 . S
C467 C469 1.356 . S
C467 H515 0.930 . S
C468 N465 1.279 . S
C468 C467 1.358 . S
C468 H471 0.930 . S
C469 C466 1.348 . S
C469 C467 1.356 . S
H470 C464 0.930 . S
H471 C468 0.930 . S
C472 C474 1.348 1_565 S
C472 C475 1.356 . S
C472 O502 1.325 . S
N473 C476 1.359 . S
N473 C477 1.279 . S
C474 C472 1.348 1_545 S
C474 C476 1.341 1_545 S
C474 H516 0.929 . S
C475 C472 1.356 . S
C475 C477 1.358 . S
C475 H517 0.930 . S
C476 N473 1.359 . S
C476 C474 1.341 1_565 S
C476 H518 0.895 1_565 S
C477 N473 1.279 . S
C477 C475 1.358 . S
C477 H519 0.930 . S
C478 C479 1.348 . S
C478 C480 1.356 . S
C478 O503 1.325 . S
C479 C478 1.348 . S
C479 C481 1.353 . S
C479 H520 0.929 . S
C480 C478 1.356 . S
C480 C482 1.358 . S
C480 H521 0.930 . S
C481 C479 1.353 . S
C481 N483 1.314 . S
C481 H522 0.930 . S
C482 C480 1.358 . S
C482 N483 1.279 . S
C482 H523 0.930 . S
N483 C481 1.314 . S
N483 C482 1.279 . S
C484 C486 1.353 . S
C484 N487 1.314 . S
C484 H490 0.930 . S
C485 N487 1.279 . S
C485 C488 1.358 . S
C485 H491 0.930 . S
C486 C484 1.353 . S
C486 C489 1.348 . S
C486 H524 0.929 . S
N487 Li442 1.990 . S
N487 C484 1.314 . S
N487 C485 1.279 . S
C488 C485 1.358 . S
C488 C489 1.356 . S
C488 H525 0.930 . S
C489 C486 1.348 . S
C489 C488 1.356 . S
H490 C484 0.930 . S
H491 C485 0.930 . S
C492 N493 1.314 . S
C492 C494 1.353 . S
C492 H498 0.930 . S
N493 Li443 1.990 . S
N493 C492 1.314 . S
N493 C496 1.279 . S
C494 C492 1.353 . S
C494 C497 1.348 . S
C494 H526 0.929 . S
C495 C496 1.358 . S
C495 C497 1.356 . S
C495 H527 0.930 . S
C496 N493 1.279 . S
C496 C495 1.358 . S
C496 H499 0.930 . S
C497 C494 1.348 . S
C497 C495 1.356 . S
H498 C492 0.930 . S
H499 C496 0.930 . S
O500 Li440 1.956 . S
O500 Li441 1.970 1_565 S
O500 Li442 1.961 . S
O500 C444 1.325 . S
O501 Li440 1.970 1_545 S
O501 Li441 1.956 . S
O501 Li443 1.961 . S
O501 C450 1.325 . S
O502 Li440 1.961 . S
O502 Li442 1.956 . S
O502 Li443 1.970 1_565 S
O502 C472 1.325 . S
O503 Li441 1.961 . S
O503 Li442 1.970 1_545 S
O503 Li443 1.956 . S
O503 C478 1.325 . S
H504 C446 0.929 . S
H505 C447 0.930 . S
H506 C448 0.930 . S
H507 C449 0.930 . S
H508 C451 0.930 . S
H509 C453 0.929 . S
H510 C454 0.930 . S
H511 C455 0.881 1_565 S
H512 C458 0.930 . S
H513 C461 0.929 . S
H514 C466 0.929 . S
H515 C467 0.930 . S
H516 C474 0.929 . S
H517 C475 0.930 . S
H518 C476 0.895 1_545 S
H519 C477 0.930 . S
H520 C479 0.929 . S
H521 C480 0.930 . S
H522 C481 0.930 . S
H523 C482 0.930 . S
H524 C486 0.929 . S
H525 C488 0.930 . S
H526 C494 0.929 . S
H527 C495 0.930 . S
Li528 N545 1.990 . S
Li528 O588 1.956 . S
Li528 O589 1.970 . S
Li528 O590 1.961 . S
Li529 N553 1.990 . S
Li529 O588 1.970 . S
Li529 O589 1.956 . S
Li529 O591 1.961 . S
Li530 N575 1.990 . S
Li530 O588 1.961 . S
Li530 O590 1.956 . S
Li530 O591 1.970 . S
Li531 N581 1.990 . S
Li531 O589 1.961 . S
Li531 O590 1.970 . S
Li531 O591 1.956 . S
C532 C534 1.348 . S
C532 C535 1.356 . S
C532 O588 1.325 . S
N533 C536 1.314 . S
N533 C537 1.279 . S
C534 C532 1.348 . S
C534 C536 1.353 . S
C534 H592 0.929 . S
C535 C532 1.356 . S
C535 C537 1.358 . S
C535 H593 0.930 . S
C536 N533 1.314 . S
C536 C534 1.353 . S
C536 H594 0.930 . S
C537 N533 1.279 . S
C537 C535 1.358 . S
C537 H595 0.930 . S
C538 C541 1.348 . S
C538 C542 1.356 . S
C538 O589 1.325 . S
C539 N540 1.279 . S
C539 C542 1.358 . S
C539 H596 0.930 . S
N540 C539 1.279 . S
N540 C543 1.314 . S
C541 C538 1.348 . S
C541 C543 1.353 . S
C541 H597 0.929 . S
C542 C538 1.356 . S
C542 C539 1.358 . S
C542 H598 0.930 . S
C543 N540 1.314 . S
C543 C541 1.353 . S
C543 H599 0.930 . S
C544 N545 1.314 . S
C544 C549 1.353 . S
C544 H550 0.930 . S
N545 Li528 1.990 . S
N545 C544 1.314 . S
N545 C547 1.279 . S
C546 C547 1.358 . S
C546 C548 1.356 . S
C546 H600 0.930 . S
C547 N545 1.279 . S
C547 C546 1.358 . S
C547 H551 0.930 . S
C548 C546 1.356 . S
C548 C549 1.348 . S
C549 C544 1.353 . S
C549 C548 1.348 . S
C549 H601 0.929 . S
H550 C544 0.930 . S
H551 C547 0.930 . S
C552 N553 1.314 . S
C552 C554 1.353 . S
C552 H558 0.930 . S
N553 Li529 1.990 . S
N553 C552 1.314 . S
N553 C556 1.279 . S
C554 C552 1.353 . S
C554 C557 1.348 . S
C554 H602 0.929 . S
C555 C556 1.358 . S
C555 C557 1.356 . S
C555 H603 0.930 . S
C556 N553 1.279 . S
C556 C555 1.358 . S
C556 H559 0.930 . S
C557 C554 1.348 . S
C557 C555 1.356 . S
H558 C552 0.930 . S
H559 C556 0.930 . S
C560 C562 1.348 . S
C560 C563 1.356 . S
C560 O590 1.325 . S
N561 C564 1.314 . S
N561 C565 1.279 . S
C562 C560 1.348 . S
C562 C564 1.353 . S
C562 H604 0.929 . S
C563 C560 1.356 . S
C563 C565 1.358 . S
C563 H605 0.930 . S
C564 N561 1.314 . S
C564 C562 1.353 . S
C564 H606 0.930 . S
C565 N561 1.279 . S
C565 C563 1.358 . S
C565 H607 0.930 . S
C566 C567 1.348 . S
C566 C568 1.356 . S
C566 O591 1.325 . S
C567 C566 1.348 . S
C567 C569 1.353 . S
C567 H608 0.929 . S
C568 C566 1.356 . S
C568 C570 1.358 . S
C568 H609 0.930 . S
C569 C567 1.353 . S
C569 N571 1.314 . S
C569 H610 0.930 . S
C570 C568 1.358 . S
C570 N571 1.279 . S
C570 H611 0.930 . S
N571 C569 1.314 . S
N571 C570 1.279 . S
C572 C574 1.353 . S
C572 N575 1.314 . S
C572 H578 0.930 . S
C573 N575 1.279 . S
C573 C576 1.358 . S
C573 H579 0.930 . S
C574 C572 1.353 . S
C574 C577 1.348 . S
C574 H612 0.929 . S
N575 Li530 1.990 . S
N575 C572 1.314 . S
N575 C573 1.279 . S
C576 C573 1.358 . S
C576 C577 1.356 . S
C576 H613 0.930 . S
C577 C574 1.348 . S
C577 C576 1.356 . S
H578 C572 0.930 . S
H579 C573 0.930 . S
C580 N581 1.314 . S
C580 C582 1.353 . S
C580 H586 0.930 . S
N581 Li531 1.990 . S
N581 C580 1.314 . S
N581 C584 1.279 . S
C582 C580 1.353 . S
C582 C585 1.348 . S
C582 H614 0.929 . S
C583 C584 1.358 . S
C583 C585 1.356 . S
C583 H615 0.930 . S
C584 N581 1.279 . S
C584 C583 1.358 . S
C584 H587 0.930 . S
C585 C582 1.348 . S
C585 C583 1.356 . S
H586 C580 0.930 . S
H587 C584 0.930 . S
O588 Li528 1.956 . S
O588 Li529 1.970 . S
O588 Li530 1.961 . S
O588 C532 1.325 . S
O589 Li528 1.970 . S
O589 Li529 1.956 . S
O589 Li531 1.961 . S
O589 C538 1.325 . S
O590 Li528 1.961 . S
O590 Li530 1.956 . S
O590 Li531 1.970 . S
O590 C560 1.325 . S
O591 Li529 1.961 . S
O591 Li530 1.970 . S
O591 Li531 1.956 . S
O591 C566 1.325 . S
H592 C534 0.929 . S
H593 C535 0.930 . S
H594 C536 0.930 . S
H595 C537 0.930 . S
H596 C539 0.930 . S
H597 C541 0.929 . S
H598 C542 0.930 . S
H599 C543 0.930 . S
H600 C546 0.930 . S
H601 C549 0.929 . S
H602 C554 0.929 . S
H603 C555 0.930 . S
H604 C562 0.929 . S
H605 C563 0.930 . S
H606 C564 0.930 . S
H607 C565 0.930 . S
H608 C567 0.929 . S
H609 C568 0.930 . S
H610 C569 0.930 . S
H611 C570 0.930 . S
H612 C574 0.929 . S
H613 C576 0.930 . S
H614 C582 0.929 . S
H615 C583 0.930 . S
Li616 N633 1.990 . S
Li616 O676 1.956 . S
Li616 O677 1.970 1_545 S
Li616 O678 1.961 . S
Li617 N641 1.990 . S
Li617 O676 1.970 1_565 S
Li617 O677 1.956 . S
Li617 O679 1.961 . S
Li618 N663 1.990 . S
Li618 O676 1.961 . S
Li618 O678 1.956 . S
Li618 O679 1.970 1_545 S
Li619 N669 1.990 . S
Li619 O677 1.961 . S
Li619 O678 1.970 1_565 S
Li619 O679 1.956 . S
C620 C622 1.348 . S
C620 C623 1.356 . S
C620 O676 1.325 . S
N621 C624 1.314 . S
N621 C625 1.279 . S
C622 C620 1.348 . S
C622 C624 1.353 . S
C622 H680 0.929 . S
C623 C620 1.356 . S
C623 C625 1.358 . S
C623 H681 0.930 . S
C624 N621 1.314 . S
C624 C622 1.353 . S
C624 H682 0.930 . S
C625 N621 1.279 . S
C625 C623 1.358 . S
C625 H683 0.930 . S
C626 C629 1.348 1_565 S
C626 C630 1.356 . S
C626 O677 1.325 . S
C627 N628 1.279 . S
C627 C630 1.358 . S
C627 H684 0.930 . S
N628 C627 1.279 . S
N628 C631 1.359 . S
C629 C626 1.348 1_545 S
C629 C631 1.341 1_545 S
C629 H685 0.929 . S
C630 C626 1.356 . S
C630 C627 1.358 . S
C630 H686 0.930 . S
C631 N628 1.359 . S
C631 C629 1.341 1_565 S
C631 H687 0.895 1_565 S
C632 N633 1.314 . S
C632 C637 1.353 . S
C632 H638 0.930 . S
N633 Li616 1.990 . S
N633 C632 1.314 . S
N633 C635 1.279 . S
C634 C635 1.358 . S
C634 C636 1.356 . S
C634 H688 0.930 . S
C635 N633 1.279 . S
C635 C634 1.358 . S
C635 H639 0.930 . S
C636 C634 1.356 . S
C636 C637 1.348 . S
C637 C632 1.353 . S
C637 C636 1.348 . S
C637 H689 0.929 . S
H638 C632 0.930 . S
H639 C635 0.930 . S
C640 N641 1.314 . S
C640 C642 1.353 . S
C640 H646 0.930 . S
N641 Li617 1.990 . S
N641 C640 1.314 . S
N641 C644 1.279 . S
C642 C640 1.353 . S
C642 C645 1.348 . S
C642 H690 0.929 . S
C643 C644 1.358 . S
C643 C645 1.356 . S
C643 H691 0.930 . S
C644 N641 1.279 . S
C644 C643 1.358 . S
C644 H647 0.930 . S
C645 C642 1.348 . S
C645 C643 1.356 . S
H646 C640 0.930 . S
H647 C644 0.930 . S
C648 C650 1.348 1_545 S
C648 C651 1.356 . S
C648 O678 1.325 . S
N649 C652 1.378 . S
N649 C653 1.279 . S
C650 C648 1.348 1_565 S
C650 C652 1.336 1_565 S
C650 H692 0.929 . S
C651 C648 1.356 . S
C651 C653 1.358 . S
C651 H693 0.930 . S
C652 N649 1.378 . S
C652 C650 1.336 1_545 S
C652 H694 0.881 1_545 S
C653 N649 1.279 . S
C653 C651 1.358 . S
C653 H695 0.930 . S
C654 C655 1.348 . S
C654 C656 1.356 . S
C654 O679 1.325 . S
C655 C654 1.348 . S
C655 C657 1.353 . S
C655 H696 0.929 . S
C656 C654 1.356 . S
C656 C658 1.358 . S
C656 H697 0.930 . S
C657 C655 1.353 . S
C657 N659 1.314 . S
C657 H698 0.930 . S
C658 C656 1.358 . S
C658 N659 1.279 . S
C658 H699 0.930 . S
N659 C657 1.314 . S
N659 C658 1.279 . S
C660 C662 1.353 . S
C660 N663 1.314 . S
C660 H666 0.930 . S
C661 N663 1.279 . S
C661 C664 1.358 . S
C661 H667 0.930 . S
C662 C660 1.353 . S
C662 C665 1.348 . S
C662 H700 0.929 . S
N663 Li618 1.990 . S
N663 C660 1.314 . S
N663 C661 1.279 . S
C664 C661 1.358 . S
C664 C665 1.356 . S
C664 H701 0.930 . S
C665 C662 1.348 . S
C665 C664 1.356 . S
H666 C660 0.930 . S
H667 C661 0.930 . S
C668 N669 1.314 . S
C668 C670 1.353 . S
C668 H674 0.930 . S
N669 Li619 1.990 . S
N669 C668 1.314 . S
N669 C672 1.279 . S
C670 C668 1.353 . S
C670 C673 1.348 . S
C670 H702 0.929 . S
C671 C672 1.358 . S
C671 C673 1.356 . S
C671 H703 0.930 . S
C672 N669 1.279 . S
C672 C671 1.358 . S
C672 H675 0.930 . S
C673 C670 1.348 . S
C673 C671 1.356 . S
H674 C668 0.930 . S
H675 C672 0.930 . S
O676 Li616 1.956 . S
O676 Li617 1.970 1_545 S
O676 Li618 1.961 . S
O676 C620 1.325 . S
O677 Li616 1.970 1_565 S
O677 Li617 1.956 . S
O677 Li619 1.961 . S
O677 C626 1.325 . S
O678 Li616 1.961 . S
O678 Li618 1.956 . S
O678 Li619 1.970 1_545 S
O678 C648 1.325 . S
O679 Li617 1.961 . S
O679 Li618 1.970 1_565 S
O679 Li619 1.956 . S
O679 C654 1.325 . S
H680 C622 0.929 . S
H681 C623 0.930 . S
H682 C624 0.930 . S
H683 C625 0.930 . S
H684 C627 0.930 . S
H685 C629 0.929 . S
H686 C630 0.930 . S
H687 C631 0.895 1_545 S
H688 C634 0.930 . S
H689 C637 0.929 . S
H690 C642 0.929 . S
H691 C643 0.930 . S
H692 C650 0.929 . S
H693 C651 0.930 . S
H694 C652 0.881 1_565 S
H695 C653 0.930 . S
H696 C655 0.929 . S
H697 C656 0.930 . S
H698 C657 0.930 . S
H699 C658 0.930 . S
H700 C662 0.929 . S
H701 C664 0.930 . S
H702 C670 0.929 . S
H703 C671 0.930 . S
Li704 N721 1.990 . S
Li704 O764 1.956 . S
Li704 O765 1.970 . S
Li704 O766 1.961 . S
Li705 N729 1.990 . S
Li705 O764 1.970 . S
Li705 O765 1.956 . S
Li705 O767 1.961 . S
Li706 N751 1.990 . S
Li706 O764 1.961 . S
Li706 O766 1.956 . S
Li706 O767 1.970 . S
Li707 N757 1.990 . S
Li707 O765 1.961 . S
Li707 O766 1.970 . S
Li707 O767 1.956 . S
C708 C710 1.348 . S
C708 C711 1.356 . S
C708 O764 1.325 . S
N709 C712 1.314 . S
N709 C713 1.279 . S
C710 C708 1.348 . S
C710 C712 1.353 . S
C710 H768 0.929 . S
C711 C708 1.356 . S
C711 C713 1.358 . S
C711 H769 0.930 . S
C712 N709 1.314 . S
C712 C710 1.353 . S
C712 H770 0.930 . S
C713 N709 1.279 . S
C713 C711 1.358 . S
C713 H771 0.930 . S
C714 C717 1.348 . S
C714 C718 1.356 . S
C714 O765 1.325 . S
C715 N716 1.279 . S
C715 C718 1.358 . S
C715 H772 0.930 . S
N716 C715 1.279 . S
N716 C719 1.314 . S
C717 C714 1.348 . S
C717 C719 1.353 . S
C717 H773 0.929 . S
C718 C714 1.356 . S
C718 C715 1.358 . S
C718 H774 0.930 . S
C719 N716 1.314 . S
C719 C717 1.353 . S
C719 H775 0.930 . S
C720 N721 1.314 . S
C720 C725 1.353 . S
C720 H726 0.930 . S
N721 Li704 1.990 . S
N721 C720 1.314 . S
N721 C723 1.279 . S
C722 C723 1.358 . S
C722 C724 1.356 . S
C722 H776 0.930 . S
C723 N721 1.279 . S
C723 C722 1.358 . S
C723 H727 0.930 . S
C724 C722 1.356 . S
C724 C725 1.348 . S
C725 C720 1.353 . S
C725 C724 1.348 . S
C725 H777 0.929 . S
H726 C720 0.930 . S
H727 C723 0.930 . S
C728 N729 1.314 . S
C728 C730 1.353 . S
C728 H734 0.930 . S
N729 Li705 1.990 . S
N729 C728 1.314 . S
N729 C732 1.279 . S
C730 C728 1.353 . S
C730 C733 1.348 . S
C730 H778 0.929 . S
C731 C732 1.358 . S
C731 C733 1.356 . S
C731 H779 0.930 . S
C732 N729 1.279 . S
C732 C731 1.358 . S
C732 H735 0.930 . S
C733 C730 1.348 . S
C733 C731 1.356 . S
H734 C728 0.930 . S
H735 C732 0.930 . S
C736 C738 1.348 . S
C736 C739 1.356 . S
C736 O766 1.325 . S
N737 C740 1.314 . S
N737 C741 1.279 . S
C738 C736 1.348 . S
C738 C740 1.353 . S
C738 H780 0.929 . S
C739 C736 1.356 . S
C739 C741 1.358 . S
C739 H781 0.930 . S
C740 N737 1.314 . S
C740 C738 1.353 . S
C740 H782 0.930 . S
C741 N737 1.279 . S
C741 C739 1.358 . S
C741 H783 0.930 . S
C742 C743 1.348 . S
C742 C744 1.356 . S
C742 O767 1.325 . S
C743 C742 1.348 . S
C743 C745 1.353 . S
C743 H784 0.929 . S
C744 C742 1.356 . S
C744 C746 1.358 . S
C744 H785 0.930 . S
C745 C743 1.353 . S
C745 N747 1.314 . S
C745 H786 0.930 . S
C746 C744 1.358 . S
C746 N747 1.279 . S
C746 H787 0.930 . S
N747 C745 1.314 . S
N747 C746 1.279 . S
C748 C750 1.353 . S
C748 N751 1.314 . S
C748 H754 0.930 . S
C749 N751 1.279 . S
C749 C752 1.358 . S
C749 H755 0.930 . S
C750 C748 1.353 . S
C750 C753 1.348 . S
C750 H788 0.929 . S
N751 Li706 1.990 . S
N751 C748 1.314 . S
N751 C749 1.279 . S
C752 C749 1.358 . S
C752 C753 1.356 . S
C752 H789 0.930 . S
C753 C750 1.348 . S
C753 C752 1.356 . S
H754 C748 0.930 . S
H755 C749 0.930 . S
C756 N757 1.314 . S
C756 C758 1.353 . S
C756 H762 0.930 . S
N757 Li707 1.990 . S
N757 C756 1.314 . S
N757 C760 1.279 . S
C758 C756 1.353 . S
C758 C761 1.348 . S
C758 H790 0.929 . S
C759 C760 1.358 . S
C759 C761 1.356 . S
C759 H791 0.930 . S
C760 N757 1.279 . S
C760 C759 1.358 . S
C760 H763 0.930 . S
C761 C758 1.348 . S
C761 C759 1.356 . S
H762 C756 0.930 . S
H763 C760 0.930 . S
O764 Li704 1.956 . S
O764 Li705 1.970 . S
O764 Li706 1.961 . S
O764 C708 1.325 . S
O765 Li704 1.970 . S
O765 Li705 1.956 . S
O765 Li707 1.961 . S
O765 C714 1.325 . S
O766 Li704 1.961 . S
O766 Li706 1.956 . S
O766 Li707 1.970 . S
O766 C736 1.325 . S
O767 Li705 1.961 . S
O767 Li706 1.970 . S
O767 Li707 1.956 . S
O767 C742 1.325 . S
H768 C710 0.929 . S
H769 C711 0.930 . S
H770 C712 0.930 . S
H771 C713 0.930 . S
H772 C715 0.930 . S
H773 C717 0.929 . S
H774 C718 0.930 . S
H775 C719 0.930 . S
H776 C722 0.930 . S
H777 C725 0.929 . S
H778 C730 0.929 . S
H779 C731 0.930 . S
H780 C738 0.929 . S
H781 C739 0.930 . S
H782 C740 0.930 . S
H783 C741 0.930 . S
H784 C743 0.929 . S
H785 C744 0.930 . S
H786 C745 0.930 . S
H787 C746 0.930 . S
H788 C750 0.929 . S
H789 C752 0.930 . S
H790 C758 0.929 . S
H791 C759 0.930 . S
Li792 N809 1.990 . S
Li792 O852 1.956 . S
Li792 O853 1.970 . S
Li792 O854 1.961 . S
Li793 N817 1.990 . S
Li793 O852 1.970 . S
Li793 O853 1.956 . S
Li793 O855 1.961 . S
Li794 N839 1.990 . S
Li794 O852 1.961 . S
Li794 O854 1.956 . S
Li794 O855 1.970 . S
Li795 N845 1.990 . S
Li795 O853 1.961 . S
Li795 O854 1.970 . S
Li795 O855 1.956 . S
C796 C798 1.348 . S
C796 C799 1.356 . S
C796 O852 1.325 . S
N797 C800 1.314 . S
N797 C801 1.279 . S
C798 C796 1.348 . S
C798 C800 1.353 . S
C798 H856 0.929 . S
C799 C796 1.356 . S
C799 C801 1.358 . S
C799 H857 0.930 . S
C800 N797 1.314 . S
C800 C798 1.353 . S
C800 H858 0.930 . S
C801 N797 1.279 . S
C801 C799 1.358 . S
C801 H859 0.930 . S
C802 C805 1.348 . S
C802 C806 1.356 . S
C802 O853 1.325 . S
C803 N804 1.279 . S
C803 C806 1.358 . S
C803 H860 0.930 . S
N804 C803 1.279 . S
N804 C807 1.314 . S
C805 C802 1.348 . S
C805 C807 1.353 . S
C805 H861 0.929 . S
C806 C802 1.356 . S
C806 C803 1.358 . S
C806 H862 0.930 . S
C807 N804 1.314 . S
C807 C805 1.353 . S
C807 H863 0.930 . S
C808 N809 1.314 . S
C808 C813 1.353 . S
C808 H814 0.930 . S
N809 Li792 1.990 . S
N809 C808 1.314 . S
N809 C811 1.279 . S
C810 C811 1.358 . S
C810 C812 1.356 . S
C810 H864 0.930 . S
C811 N809 1.279 . S
C811 C810 1.358 . S
C811 H815 0.930 . S
C812 C810 1.356 . S
C812 C813 1.348 . S
C813 C808 1.353 . S
C813 C812 1.348 . S
C813 H865 0.929 . S
H814 C808 0.930 . S
H815 C811 0.930 . S
C816 N817 1.314 . S
C816 C818 1.353 . S
C816 H822 0.930 . S
N817 Li793 1.990 . S
N817 C816 1.314 . S
N817 C820 1.279 . S
C818 C816 1.353 . S
C818 C821 1.348 . S
C818 H866 0.929 . S
C819 C820 1.358 . S
C819 C821 1.356 . S
C819 H867 0.930 . S
C820 N817 1.279 . S
C820 C819 1.358 . S
C820 H823 0.930 . S
C821 C818 1.348 . S
C821 C819 1.356 . S
H822 C816 0.930 . S
H823 C820 0.930 . S
C824 C826 1.348 . S
C824 C827 1.356 . S
C824 O854 1.325 . S
N825 C828 1.314 . S
N825 C829 1.279 . S
C826 C824 1.348 . S
C826 C828 1.353 . S
C826 H868 0.929 . S
C827 C824 1.356 . S
C827 C829 1.358 . S
C827 H869 0.930 . S
C828 N825 1.314 . S
C828 C826 1.353 . S
C828 H870 0.930 . S
C829 N825 1.279 . S
C829 C827 1.358 . S
C829 H871 0.930 . S
C830 C831 1.348 . S
C830 C832 1.356 . S
C830 O855 1.325 . S
C831 C830 1.348 . S
C831 C833 1.353 . S
C831 H872 0.929 . S
C832 C830 1.356 . S
C832 C834 1.358 . S
C832 H873 0.930 . S
C833 C831 1.353 . S
C833 N835 1.314 . S
C833 H874 0.930 . S
C834 C832 1.358 . S
C834 N835 1.279 . S
C834 H875 0.930 . S
N835 C833 1.314 . S
N835 C834 1.279 . S
C836 C838 1.353 . S
C836 N839 1.314 . S
C836 H842 0.930 . S
C837 N839 1.279 . S
C837 C840 1.358 . S
C837 H843 0.930 . S
C838 C836 1.353 . S
C838 C841 1.348 . S
C838 H876 0.929 . S
N839 Li794 1.990 . S
N839 C836 1.314 . S
N839 C837 1.279 . S
C840 C837 1.358 . S
C840 C841 1.356 . S
C840 H877 0.930 . S
C841 C838 1.348 . S
C841 C840 1.356 . S
H842 C836 0.930 . S
H843 C837 0.930 . S
C844 N845 1.314 . S
C844 C846 1.353 . S
C844 H850 0.930 . S
N845 Li795 1.990 . S
N845 C844 1.314 . S
N845 C848 1.279 . S
C846 C844 1.353 . S
C846 C849 1.348 . S
C846 H878 0.929 . S
C847 C848 1.358 . S
C847 C849 1.356 . S
C847 H879 0.930 . S
C848 N845 1.279 . S
C848 C847 1.358 . S
C848 H851 0.930 . S
C849 C846 1.348 . S
C849 C847 1.356 . S
H850 C844 0.930 . S
H851 C848 0.930 . S
O852 Li792 1.956 . S
O852 Li793 1.970 . S
O852 Li794 1.961 . S
O852 C796 1.325 . S
O853 Li792 1.970 . S
O853 Li793 1.956 . S
O853 Li795 1.961 . S
O853 C802 1.325 . S
O854 Li792 1.961 . S
O854 Li794 1.956 . S
O854 Li795 1.970 . S
O854 C824 1.325 . S
O855 Li793 1.961 . S
O855 Li794 1.970 . S
O855 Li795 1.956 . S
O855 C830 1.325 . S
H856 C798 0.929 . S
H857 C799 0.930 . S
H858 C800 0.930 . S
H859 C801 0.930 . S
H860 C803 0.930 . S
H861 C805 0.929 . S
H862 C806 0.930 . S
H863 C807 0.930 . S
H864 C810 0.930 . S
H865 C813 0.929 . S
H866 C818 0.929 . S
H867 C819 0.930 . S
H868 C826 0.929 . S
H869 C827 0.930 . S
H870 C828 0.930 . S
H871 C829 0.930 . S
H872 C831 0.929 . S
H873 C832 0.930 . S
H874 C833 0.930 . S
H875 C834 0.930 . S
H876 C838 0.929 . S
H877 C840 0.930 . S
H878 C846 0.929 . S
H879 C847 0.930 . S
Li880 N897 1.990 . S
Li880 O940 1.956 1_556 S
Li880 O941 1.970 . S
Li880 O942 1.961 . S
Li881 N905 1.990 . S
Li881 O940 1.970 . S
Li881 O941 1.956 1_554 S
Li881 O943 1.961 . S
Li882 N927 1.990 . S
Li882 O940 1.961 . S
Li882 O942 1.956 1_554 S
Li882 O943 1.970 . S
Li883 N933 1.990 . S
Li883 O941 1.961 . S
Li883 O942 1.970 . S
Li883 O943 1.956 1_556 S
C884 C886 1.348 . S
C884 C887 1.356 . S
C884 O940 1.325 . S
N885 C888 1.314 . S
N885 C889 1.279 . S
C886 C884 1.348 . S
C886 C888 1.353 . S
C886 H944 0.929 . S
C887 C884 1.356 . S
C887 C889 1.358 . S
C887 H945 0.930 1_554 S
C888 N885 1.314 . S
C888 C886 1.353 . S
C888 H946 0.930 . S
C889 N885 1.279 . S
C889 C887 1.358 . S
C889 H947 0.930 1_554 S
C890 C893 1.348 . S
C890 C894 1.356 . S
C890 O941 1.325 . S
C891 N892 1.279 . S
C891 C894 1.358 . S
C891 H948 0.930 1_556 S
N892 C891 1.279 . S
N892 C895 1.314 . S
C893 C890 1.348 . S
C893 C895 1.353 . S
C893 H949 0.929 . S
C894 C890 1.356 . S
C894 C891 1.358 . S
C894 H950 0.930 1_556 S
C895 N892 1.314 . S
C895 C893 1.353 . S
C895 H951 0.930 . S
C896 N897 1.314 . S
C896 C901 1.353 . S
C896 H902 0.930 . S
N897 Li880 1.990 . S
N897 C896 1.314 . S
N897 C899 1.279 . S
C898 C899 1.358 . S
C898 C900 1.356 . S
C898 H952 0.930 . S
C899 N897 1.279 . S
C899 C898 1.358 . S
C899 H903 0.930 . S
C900 C898 1.356 . S
C900 C901 1.348 . S
C901 C896 1.353 . S
C901 C900 1.348 . S
C901 H953 0.929 . S
H902 C896 0.930 . S
H903 C899 0.930 . S
C904 N905 1.314 . S
C904 C906 1.353 . S
C904 H910 0.930 . S
N905 Li881 1.990 . S
N905 C904 1.314 . S
N905 C908 1.279 . S
C906 C904 1.353 . S
C906 C909 1.348 . S
C906 H954 0.929 . S
C907 C908 1.358 . S
C907 C909 1.356 . S
C907 H955 0.930 . S
C908 N905 1.279 . S
C908 C907 1.358 . S
C908 H911 0.930 . S
C909 C906 1.348 . S
C909 C907 1.356 . S
H910 C904 0.930 . S
H911 C908 0.930 . S
C912 C914 1.348 . S
C912 C915 1.356 . S
C912 O942 1.325 . S
N913 C916 1.314 . S
N913 C917 1.279 . S
C914 C912 1.348 . S
C914 C916 1.353 . S
C914 H956 0.929 . S
C915 C912 1.356 . S
C915 C917 1.358 . S
C915 H957 0.930 . S
C916 N913 1.314 . S
C916 C914 1.353 . S
C916 H958 0.930 . S
C917 N913 1.279 . S
C917 C915 1.358 . S
C917 H959 0.930 . S
C918 C919 1.348 . S
C918 C920 1.356 . S
C918 O943 1.325 . S
C919 C918 1.348 . S
C919 C921 1.353 . S
C919 H960 0.929 . S
C920 C918 1.356 . S
C920 C922 1.358 . S
C920 H961 0.930 . S
C921 C919 1.353 . S
C921 N923 1.314 . S
C921 H962 0.930 . S
C922 C920 1.358 . S
C922 N923 1.279 . S
C922 H963 0.930 . S
N923 C921 1.314 . S
N923 C922 1.279 . S
C924 C926 1.353 . S
C924 N927 1.314 . S
C924 H930 0.930 . S
C925 N927 1.279 1_556 S
C925 C928 1.358 1_556 S
C925 H931 0.930 . S
C926 C924 1.353 . S
C926 C929 1.348 . S
C926 H964 0.929 . S
N927 Li882 1.990 . S
N927 C924 1.314 . S
N927 C925 1.279 1_554 S
C928 C925 1.358 1_554 S
C928 C929 1.356 . S
C928 H965 0.930 1_554 S
C929 C926 1.348 . S
C929 C928 1.356 . S
H930 C924 0.930 . S
H931 C925 0.930 . S
C932 N933 1.314 . S
C932 C934 1.353 . S
C932 H938 0.930 . S
N933 Li883 1.990 . S
N933 C932 1.314 . S
N933 C936 1.279 1_556 S
C934 C932 1.353 . S
C934 C937 1.348 . S
C934 H966 0.929 . S
C935 C936 1.358 1_556 S
C935 C937 1.356 . S
C935 H967 0.930 1_556 S
C936 N933 1.279 1_554 S
C936 C935 1.358 1_554 S
C936 H939 0.930 . S
C937 C934 1.348 . S
C937 C935 1.356 . S
H938 C932 0.930 . S
H939 C936 0.930 . S
O940 Li880 1.956 1_554 S
O940 Li881 1.970 . S
O940 Li882 1.961 . S
O940 C884 1.325 . S
O941 Li880 1.970 . S
O941 Li881 1.956 1_556 S
O941 Li883 1.961 . S
O941 C890 1.325 . S
O942 Li880 1.961 . S
O942 Li882 1.956 1_556 S
O942 Li883 1.970 . S
O942 C912 1.325 . S
O943 Li881 1.961 . S
O943 Li882 1.970 . S
O943 Li883 1.956 1_554 S
O943 C918 1.325 . S
H944 C886 0.929 . S
H945 C887 0.930 1_556 S
H946 C888 0.930 . S
H947 C889 0.930 1_556 S
H948 C891 0.930 1_554 S
H949 C893 0.929 . S
H950 C894 0.930 1_554 S
H951 C895 0.930 . S
H952 C898 0.930 . S
H953 C901 0.929 . S
H954 C906 0.929 . S
H955 C907 0.930 . S
H956 C914 0.929 . S
H957 C915 0.930 . S
H958 C916 0.930 . S
H959 C917 0.930 . S
H960 C919 0.929 . S
H961 C920 0.930 . S
H962 C921 0.930 . S
H963 C922 0.930 . S
H964 C926 0.929 . S
H965 C928 0.930 1_556 S
H966 C934 0.929 . S
H967 C935 0.930 1_554 S
Li968 N985 1.990 . S
Li968 O1028 1.956 . S
Li968 O1029 1.970 . S
Li968 O1030 1.961 . S
Li969 N993 1.990 . S
Li969 O1028 1.970 . S
Li969 O1029 1.956 . S
Li969 O1031 1.961 . S
Li970 N1015 1.990 . S
Li970 O1028 1.961 . S
Li970 O1030 1.956 . S
Li970 O1031 1.970 . S
Li971 N1021 1.990 . S
Li971 O1029 1.961 . S
Li971 O1030 1.970 . S
Li971 O1031 1.956 . S
C972 C974 1.348 . S
C972 C975 1.356 . S
C972 O1028 1.325 . S
N973 C976 1.314 . S
N973 C977 1.279 . S
C974 C972 1.348 . S
C974 C976 1.353 . S
C974 H1032 0.929 . S
C975 C972 1.356 . S
C975 C977 1.358 . S
C975 H1033 0.930 . S
C976 N973 1.314 . S
C976 C974 1.353 . S
C976 H1034 0.930 . S
C977 N973 1.279 . S
C977 C975 1.358 . S
C977 H1035 0.930 . S
C978 C981 1.348 . S
C978 C982 1.356 . S
C978 O1029 1.325 . S
C979 N980 1.279 . S
C979 C982 1.358 . S
C979 H1036 0.930 . S
N980 C979 1.279 . S
N980 C983 1.314 . S
C981 C978 1.348 . S
C981 C983 1.353 . S
C981 H1037 0.929 . S
C982 C978 1.356 . S
C982 C979 1.358 . S
C982 H1038 0.930 . S
C983 N980 1.314 . S
C983 C981 1.353 . S
C983 H1039 0.930 . S
C984 N985 1.314 . S
C984 C989 1.353 . S
C984 H990 0.930 . S
N985 Li968 1.990 . S
N985 C984 1.314 . S
N985 C987 1.279 . S
C986 C987 1.358 . S
C986 C988 1.356 . S
C986 H1040 0.930 . S
C987 N985 1.279 . S
C987 C986 1.358 . S
C987 H991 0.930 . S
C988 C986 1.356 . S
C988 C989 1.348 . S
C989 C984 1.353 . S
C989 C988 1.348 . S
C989 H1041 0.929 . S
H990 C984 0.930 . S
H991 C987 0.930 . S
C992 N993 1.314 . S
C992 C994 1.353 . S
C992 H998 0.930 . S
N993 Li969 1.990 . S
N993 C992 1.314 . S
N993 C996 1.279 . S
C994 C992 1.353 . S
C994 C997 1.348 . S
C994 H1042 0.929 . S
C995 C996 1.358 . S
C995 C997 1.356 . S
C995 H1043 0.930 . S
C996 N993 1.279 . S
C996 C995 1.358 . S
C996 H999 0.930 . S
C997 C994 1.348 . S
C997 C995 1.356 . S
H998 C992 0.930 . S
H999 C996 0.930 . S
C1000 C1002 1.348 . S
C1000 C1003 1.356 . S
C1000 O1030 1.325 . S
N1001 C1004 1.314 . S
N1001 C1005 1.279 . S
C1002 C1000 1.348 . S
C1002 C1004 1.353 . S
C1002 H1044 0.929 . S
C1003 C1000 1.356 . S
C1003 C1005 1.358 . S
C1003 H1045 0.930 . S
C1004 N1001 1.314 . S
C1004 C1002 1.353 . S
C1004 H1046 0.930 . S
C1005 N1001 1.279 . S
C1005 C1003 1.358 . S
C1005 H1047 0.930 . S
C1006 C1007 1.348 . S
C1006 C1008 1.356 . S
C1006 O1031 1.325 . S
C1007 C1006 1.348 . S
C1007 C1009 1.353 . S
C1007 H1048 0.929 . S
C1008 C1006 1.356 . S
C1008 C1010 1.358 . S
C1008 H1049 0.930 . S
C1009 C1007 1.353 . S
C1009 N1011 1.314 . S
C1009 H1050 0.930 . S
C1010 C1008 1.358 . S
C1010 N1011 1.279 . S
C1010 H1051 0.930 . S
N1011 C1009 1.314 . S
N1011 C1010 1.279 . S
C1012 C1014 1.353 . S
C1012 N1015 1.314 . S
C1012 H1018 0.930 . S
C1013 N1015 1.279 . S
C1013 C1016 1.358 . S
C1013 H1019 0.930 . S
C1014 C1012 1.353 . S
C1014 C1017 1.348 . S
C1014 H1052 0.929 . S
N1015 Li970 1.990 . S
N1015 C1012 1.314 . S
N1015 C1013 1.279 . S
C1016 C1013 1.358 . S
C1016 C1017 1.356 . S
C1016 H1053 0.930 . S
C1017 C1014 1.348 . S
C1017 C1016 1.356 . S
H1018 C1012 0.930 . S
H1019 C1013 0.930 . S
C1020 N1021 1.314 . S
C1020 C1022 1.353 . S
C1020 H1026 0.930 . S
N1021 Li971 1.990 . S
N1021 C1020 1.314 . S
N1021 C1024 1.279 . S
C1022 C1020 1.353 . S
C1022 C1025 1.348 . S
C1022 H1054 0.929 . S
C1023 C1024 1.358 . S
C1023 C1025 1.356 . S
C1023 H1055 0.930 . S
C1024 N1021 1.279 . S
C1024 C1023 1.358 . S
C1024 H1027 0.930 . S
C1025 C1022 1.348 . S
C1025 C1023 1.356 . S
H1026 C1020 0.930 . S
H1027 C1024 0.930 . S
O1028 Li968 1.956 . S
O1028 Li969 1.970 . S
O1028 Li970 1.961 . S
O1028 C972 1.325 . S
O1029 Li968 1.970 . S
O1029 Li969 1.956 . S
O1029 Li971 1.961 . S
O1029 C978 1.325 . S
O1030 Li968 1.961 . S
O1030 Li970 1.956 . S
O1030 Li971 1.970 . S
O1030 C1000 1.325 . S
O1031 Li969 1.961 . S
O1031 Li970 1.970 . S
O1031 Li971 1.956 . S
O1031 C1006 1.325 . S
H1032 C974 0.929 . S
H1033 C975 0.930 . S
H1034 C976 0.930 . S
H1035 C977 0.930 . S
H1036 C979 0.930 . S
H1037 C981 0.929 . S
H1038 C982 0.930 . S
H1039 C983 0.930 . S
H1040 C986 0.930 . S
H1041 C989 0.929 . S
H1042 C994 0.929 . S
H1043 C995 0.930 . S
H1044 C1002 0.929 . S
H1045 C1003 0.930 . S
H1046 C1004 0.930 . S
H1047 C1005 0.930 . S
H1048 C1007 0.929 . S
H1049 C1008 0.930 . S
H1050 C1009 0.930 . S
H1051 C1010 0.930 . S
H1052 C1014 0.929 . S
H1053 C1016 0.930 . S
H1054 C1022 0.929 . S
H1055 C1023 0.930 . S
Li1056 N1073 1.990 . S
Li1056 O1116 1.956 . S
Li1056 O1117 1.970 . S
Li1056 O1118 1.961 . S
Li1057 N1081 1.990 . S
Li1057 O1116 1.970 . S
Li1057 O1117 1.956 . S
Li1057 O1119 1.961 . S
Li1058 N1103 1.990 . S
Li1058 O1116 1.961 . S
Li1058 O1118 1.956 . S
Li1058 O1119 1.970 . S
Li1059 N1109 1.990 . S
Li1059 O1117 1.961 . S
Li1059 O1118 1.970 . S
Li1059 O1119 1.956 . S
C1060 C1062 1.348 . S
C1060 C1063 1.356 . S
C1060 O1116 1.325 . S
N1061 C1064 1.314 . S
N1061 C1065 1.279 . S
C1062 C1060 1.348 . S
C1062 C1064 1.353 . S
C1062 H1120 0.929 . S
C1063 C1060 1.356 . S
C1063 C1065 1.358 . S
C1063 H1121 0.930 . S
C1064 N1061 1.314 . S
C1064 C1062 1.353 . S
C1064 H1122 0.930 . S
C1065 N1061 1.279 . S
C1065 C1063 1.358 . S
C1065 H1123 0.930 . S
C1066 C1069 1.348 . S
C1066 C1070 1.356 . S
C1066 O1117 1.325 . S
C1067 N1068 1.279 . S
C1067 C1070 1.358 . S
C1067 H1124 0.930 . S
N1068 C1067 1.279 . S
N1068 C1071 1.314 . S
C1069 C1066 1.348 . S
C1069 C1071 1.353 . S
C1069 H1125 0.929 . S
C1070 C1066 1.356 . S
C1070 C1067 1.358 . S
C1070 H1126 0.930 . S
C1071 N1068 1.314 . S
C1071 C1069 1.353 . S
C1071 H1127 0.930 . S
C1072 N1073 1.314 . S
C1072 C1077 1.353 . S
C1072 H1078 0.930 . S
N1073 Li1056 1.990 . S
N1073 C1072 1.314 . S
N1073 C1075 1.279 . S
C1074 C1075 1.358 . S
C1074 C1076 1.356 . S
C1074 H1128 0.930 . S
C1075 N1073 1.279 . S
C1075 C1074 1.358 . S
C1075 H1079 0.930 . S
C1076 C1074 1.356 . S
C1076 C1077 1.348 . S
C1077 C1072 1.353 . S
C1077 C1076 1.348 . S
C1077 H1129 0.929 . S
H1078 C1072 0.930 . S
H1079 C1075 0.930 . S
C1080 N1081 1.314 . S
C1080 C1082 1.353 . S
C1080 H1086 0.930 . S
N1081 Li1057 1.990 . S
N1081 C1080 1.314 . S
N1081 C1084 1.279 . S
C1082 C1080 1.353 . S
C1082 C1085 1.348 . S
C1082 H1130 0.929 . S
C1083 C1084 1.358 . S
C1083 C1085 1.356 . S
C1083 H1131 0.930 . S
C1084 N1081 1.279 . S
C1084 C1083 1.358 . S
C1084 H1087 0.930 . S
C1085 C1082 1.348 . S
C1085 C1083 1.356 . S
H1086 C1080 0.930 . S
H1087 C1084 0.930 . S
C1088 C1090 1.348 . S
C1088 C1091 1.356 . S
C1088 O1118 1.325 . S
N1089 C1092 1.314 . S
N1089 C1093 1.279 . S
C1090 C1088 1.348 . S
C1090 C1092 1.353 . S
C1090 H1132 0.929 . S
C1091 C1088 1.356 . S
C1091 C1093 1.358 . S
C1091 H1133 0.930 . S
C1092 N1089 1.314 . S
C1092 C1090 1.353 . S
C1092 H1134 0.930 . S
C1093 N1089 1.279 . S
C1093 C1091 1.358 . S
C1093 H1135 0.930 . S
C1094 C1095 1.348 . S
C1094 C1096 1.356 . S
C1094 O1119 1.325 . S
C1095 C1094 1.348 . S
C1095 C1097 1.353 . S
C1095 H1136 0.929 . S
C1096 C1094 1.356 . S
C1096 C1098 1.358 . S
C1096 H1137 0.930 . S
C1097 C1095 1.353 . S
C1097 N1099 1.314 . S
C1097 H1138 0.930 . S
C1098 C1096 1.358 . S
C1098 N1099 1.279 . S
C1098 H1139 0.930 . S
N1099 C1097 1.314 . S
N1099 C1098 1.279 . S
C1100 C1102 1.353 . S
C1100 N1103 1.314 . S
C1100 H1106 0.930 . S
C1101 N1103 1.279 . S
C1101 C1104 1.358 . S
C1101 H1107 0.930 . S
C1102 C1100 1.353 . S
C1102 C1105 1.348 . S
C1102 H1140 0.929 . S
N1103 Li1058 1.990 . S
N1103 C1100 1.314 . S
N1103 C1101 1.279 . S
C1104 C1101 1.358 . S
C1104 C1105 1.356 . S
C1104 H1141 0.930 . S
C1105 C1102 1.348 . S
C1105 C1104 1.356 . S
H1106 C1100 0.930 . S
H1107 C1101 0.930 . S
C1108 N1109 1.314 . S
C1108 C1110 1.353 . S
C1108 H1114 0.930 . S
N1109 Li1059 1.990 . S
N1109 C1108 1.314 . S
N1109 C1112 1.279 . S
C1110 C1108 1.353 . S
C1110 C1113 1.348 . S
C1110 H1142 0.929 . S
C1111 C1112 1.358 . S
C1111 C1113 1.356 . S
C1111 H1143 0.930 . S
C1112 N1109 1.279 . S
C1112 C1111 1.358 . S
C1112 H1115 0.930 . S
C1113 C1110 1.348 . S
C1113 C1111 1.356 . S
H1114 C1108 0.930 . S
H1115 C1112 0.930 . S
O1116 Li1056 1.956 . S
O1116 Li1057 1.970 . S
O1116 Li1058 1.961 . S
O1116 C1060 1.325 . S
O1117 Li1056 1.970 . S
O1117 Li1057 1.956 . S
O1117 Li1059 1.961 . S
O1117 C1066 1.325 . S
O1118 Li1056 1.961 . S
O1118 Li1058 1.956 . S
O1118 Li1059 1.970 . S
O1118 C1088 1.325 . S
O1119 Li1057 1.961 . S
O1119 Li1058 1.970 . S
O1119 Li1059 1.956 . S
O1119 C1094 1.325 . S
H1120 C1062 0.929 . S
H1121 C1063 0.930 . S
H1122 C1064 0.930 . S
H1123 C1065 0.930 . S
H1124 C1067 0.930 . S
H1125 C1069 0.929 . S
H1126 C1070 0.930 . S
H1127 C1071 0.930 . S
H1128 C1074 0.930 . S
H1129 C1077 0.929 . S
H1130 C1082 0.929 . S
H1131 C1083 0.930 . S
H1132 C1090 0.929 . S
H1133 C1091 0.930 . S
H1134 C1092 0.930 . S
H1135 C1093 0.930 . S
H1136 C1095 0.929 . S
H1137 C1096 0.930 . S
H1138 C1097 0.930 . S
H1139 C1098 0.930 . S
H1140 C1102 0.929 . S
H1141 C1104 0.930 . S
H1142 C1110 0.929 . S
H1143 C1111 0.930 . S
Li1144 N1161 1.990 . S
Li1144 O1204 1.956 . S
Li1144 O1205 1.970 . S
Li1144 O1206 1.961 . S
Li1145 N1169 1.990 . S
Li1145 O1204 1.970 . S
Li1145 O1205 1.956 . S
Li1145 O1207 1.961 . S
Li1146 N1191 1.990 . S
Li1146 O1204 1.961 . S
Li1146 O1206 1.956 . S
Li1146 O1207 1.970 . S
Li1147 N1197 1.990 . S
Li1147 O1205 1.961 . S
Li1147 O1206 1.970 . S
Li1147 O1207 1.956 . S
C1148 C1150 1.348 . S
C1148 C1151 1.356 . S
C1148 O1204 1.325 . S
N1149 C1152 1.314 . S
N1149 C1153 1.279 . S
C1150 C1148 1.348 . S
C1150 C1152 1.353 . S
C1150 H1208 0.929 . S
C1151 C1148 1.356 . S
C1151 C1153 1.358 . S
C1151 H1209 0.930 . S
C1152 N1149 1.314 . S
C1152 C1150 1.353 . S
C1152 H1210 0.930 . S
C1153 N1149 1.279 . S
C1153 C1151 1.358 . S
C1153 H1211 0.930 . S
C1154 C1157 1.348 . S
C1154 C1158 1.356 . S
C1154 O1205 1.325 . S
C1155 N1156 1.279 . S
C1155 C1158 1.358 . S
C1155 H1212 0.930 . S
N1156 C1155 1.279 . S
N1156 C1159 1.314 . S
C1157 C1154 1.348 . S
C1157 C1159 1.353 . S
C1157 H1213 0.929 . S
C1158 C1154 1.356 . S
C1158 C1155 1.358 . S
C1158 H1214 0.930 . S
C1159 N1156 1.314 . S
C1159 C1157 1.353 . S
C1159 H1215 0.930 . S
C1160 N1161 1.314 . S
C1160 C1165 1.353 . S
C1160 H1166 0.930 . S
N1161 Li1144 1.990 . S
N1161 C1160 1.314 . S
N1161 C1163 1.279 . S
C1162 C1163 1.358 . S
C1162 C1164 1.356 . S
C1162 H1216 0.930 . S
C1163 N1161 1.279 . S
C1163 C1162 1.358 . S
C1163 H1167 0.930 . S
C1164 C1162 1.356 . S
C1164 C1165 1.348 . S
C1165 C1160 1.353 . S
C1165 C1164 1.348 . S
C1165 H1217 0.929 . S
H1166 C1160 0.930 . S
H1167 C1163 0.930 . S
C1168 N1169 1.314 . S
C1168 C1170 1.353 . S
C1168 H1174 0.930 . S
N1169 Li1145 1.990 . S
N1169 C1168 1.314 . S
N1169 C1172 1.279 . S
C1170 C1168 1.353 . S
C1170 C1173 1.348 . S
C1170 H1218 0.929 . S
C1171 C1172 1.358 . S
C1171 C1173 1.356 . S
C1171 H1219 0.930 . S
C1172 N1169 1.279 . S
C1172 C1171 1.358 . S
C1172 H1175 0.930 . S
C1173 C1170 1.348 . S
C1173 C1171 1.356 . S
H1174 C1168 0.930 . S
H1175 C1172 0.930 . S
C1176 C1178 1.348 . S
C1176 C1179 1.356 . S
C1176 O1206 1.325 . S
N1177 C1180 1.314 . S
N1177 C1181 1.279 . S
C1178 C1176 1.348 . S
C1178 C1180 1.353 . S
C1178 H1220 0.929 . S
C1179 C1176 1.356 . S
C1179 C1181 1.358 . S
C1179 H1221 0.930 . S
C1180 N1177 1.314 . S
C1180 C1178 1.353 . S
C1180 H1222 0.930 . S
C1181 N1177 1.279 . S
C1181 C1179 1.358 . S
C1181 H1223 0.930 . S
C1182 C1183 1.348 . S
C1182 C1184 1.356 . S
C1182 O1207 1.325 . S
C1183 C1182 1.348 . S
C1183 C1185 1.353 . S
C1183 H1224 0.929 . S
C1184 C1182 1.356 . S
C1184 C1186 1.358 . S
C1184 H1225 0.930 . S
C1185 C1183 1.353 . S
C1185 N1187 1.314 . S
C1185 H1226 0.930 . S
C1186 C1184 1.358 . S
C1186 N1187 1.279 . S
C1186 H1227 0.930 . S
N1187 C1185 1.314 . S
N1187 C1186 1.279 . S
C1188 C1190 1.353 . S
C1188 N1191 1.314 . S
C1188 H1194 0.930 . S
C1189 N1191 1.279 . S
C1189 C1192 1.358 . S
C1189 H1195 0.930 . S
C1190 C1188 1.353 . S
C1190 C1193 1.348 . S
C1190 H1228 0.929 . S
N1191 Li1146 1.990 . S
N1191 C1188 1.314 . S
N1191 C1189 1.279 . S
C1192 C1189 1.358 . S
C1192 C1193 1.356 . S
C1192 H1229 0.930 . S
C1193 C1190 1.348 . S
C1193 C1192 1.356 . S
H1194 C1188 0.930 . S
H1195 C1189 0.930 . S
C1196 N1197 1.314 . S
C1196 C1198 1.353 . S
C1196 H1202 0.930 . S
N1197 Li1147 1.990 . S
N1197 C1196 1.314 . S
N1197 C1200 1.279 . S
C1198 C1196 1.353 . S
C1198 C1201 1.348 . S
C1198 H1230 0.929 . S
C1199 C1200 1.358 . S
C1199 C1201 1.356 . S
C1199 H1231 0.930 . S
C1200 N1197 1.279 . S
C1200 C1199 1.358 . S
C1200 H1203 0.930 . S
C1201 C1198 1.348 . S
C1201 C1199 1.356 . S
H1202 C1196 0.930 . S
H1203 C1200 0.930 . S
O1204 Li1144 1.956 . S
O1204 Li1145 1.970 . S
O1204 Li1146 1.961 . S
O1204 C1148 1.325 . S
O1205 Li1144 1.970 . S
O1205 Li1145 1.956 . S
O1205 Li1147 1.961 . S
O1205 C1154 1.325 . S
O1206 Li1144 1.961 . S
O1206 Li1146 1.956 . S
O1206 Li1147 1.970 . S
O1206 C1176 1.325 . S
O1207 Li1145 1.961 . S
O1207 Li1146 1.970 . S
O1207 Li1147 1.956 . S
O1207 C1182 1.325 . S
H1208 C1150 0.929 . S
H1209 C1151 0.930 . S
H1210 C1152 0.930 . S
H1211 C1153 0.930 . S
H1212 C1155 0.930 . S
H1213 C1157 0.929 . S
H1214 C1158 0.930 . S
H1215 C1159 0.930 . S
H1216 C1162 0.930 . S
H1217 C1165 0.929 . S
H1218 C1170 0.929 . S
H1219 C1171 0.930 . S
H1220 C1178 0.929 . S
H1221 C1179 0.930 . S
H1222 C1180 0.930 . S
H1223 C1181 0.930 . S
H1224 C1183 0.929 . S
H1225 C1184 0.930 . S
H1226 C1185 0.930 . S
H1227 C1186 0.930 . S
H1228 C1190 0.929 . S
H1229 C1192 0.930 . S
H1230 C1198 0.929 . S
H1231 C1199 0.930 . S
Li1232 N1249 1.990 . S
Li1232 O1292 1.956 . S
Li1232 O1293 1.970 . S
Li1232 O1294 1.961 1_554 S
Li1233 N1257 1.990 . S
Li1233 O1292 1.970 . S
Li1233 O1293 1.956 . S
Li1233 O1295 1.961 1_554 S
Li1234 N1279 1.990 . S
Li1234 O1292 1.961 1_556 S
Li1234 O1294 1.956 . S
Li1234 O1295 1.970 . S
Li1235 N1285 1.990 . S
Li1235 O1293 1.961 1_556 S
Li1235 O1294 1.970 . S
Li1235 O1295 1.956 . S
C1236 C1238 1.348 . S
C1236 C1239 1.356 . S
C1236 O1292 1.325 . S
N1237 C1240 1.314 . S
N1237 C1241 1.279 . S
C1238 C1236 1.348 . S
C1238 C1240 1.353 . S
C1238 H1296 0.929 . S
C1239 C1236 1.356 . S
C1239 C1241 1.358 . S
C1239 H1297 0.930 . S
C1240 N1237 1.314 . S
C1240 C1238 1.353 . S
C1240 H1298 0.930 . S
C1241 N1237 1.279 . S
C1241 C1239 1.358 . S
C1241 H1299 0.930 . S
C1242 C1245 1.348 . S
C1242 C1246 1.356 1_554 S
C1242 O1293 1.325 . S
C1243 N1244 1.279 . S
C1243 C1246 1.358 1_554 S
C1243 H1300 0.930 1_554 S
N1244 C1243 1.279 . S
N1244 C1247 1.314 . S
C1245 C1242 1.348 . S
C1245 C1247 1.353 . S
C1245 H1301 0.929 . S
C1246 C1242 1.356 1_556 S
C1246 C1243 1.358 1_556 S
C1246 H1302 0.930 . S
C1247 N1244 1.314 . S
C1247 C1245 1.353 . S
C1247 H1303 0.930 . S
C1248 N1249 1.314 . S
C1248 C1253 1.353 . S
C1248 H1254 0.930 . S
N1249 Li1232 1.990 . S
N1249 C1248 1.314 . S
N1249 C1251 1.279 . S
C1250 C1251 1.358 . S
C1250 C1252 1.356 . S
C1250 H1304 0.930 . S
C1251 N1249 1.279 . S
C1251 C1250 1.358 . S
C1251 H1255 0.930 . S
C1252 C1250 1.356 . S
C1252 C1253 1.348 . S
C1253 C1248 1.353 . S
C1253 C1252 1.348 . S
C1253 H1305 0.929 . S
H1254 C1248 0.930 . S
H1255 C1251 0.930 . S
C1256 N1257 1.314 . S
C1256 C1258 1.353 . S
C1256 H1262 0.930 1_554 S
N1257 Li1233 1.990 . S
N1257 C1256 1.314 . S
N1257 C1260 1.279 . S
C1258 C1256 1.353 . S
C1258 C1261 1.348 . S
C1258 H1306 0.929 . S
C1259 C1260 1.358 . S
C1259 C1261 1.356 . S
C1259 H1307 0.930 . S
C1260 N1257 1.279 . S
C1260 C1259 1.358 . S
C1260 H1263 0.930 . S
C1261 C1258 1.348 . S
C1261 C1259 1.356 . S
H1262 C1256 0.930 1_556 S
H1263 C1260 0.930 . S
C1264 C1266 1.348 . S
C1264 C1267 1.356 1_556 S
C1264 O1294 1.325 . S
N1265 C1268 1.314 . S
N1265 C1269 1.279 . S
C1266 C1264 1.348 . S
C1266 C1268 1.353 . S
C1266 H1308 0.929 . S
C1267 C1264 1.356 1_554 S
C1267 C1269 1.358 1_554 S
C1267 H1309 0.930 . S
C1268 N1265 1.314 . S
C1268 C1266 1.353 . S
C1268 H1310 0.930 . S
C1269 N1265 1.279 . S
C1269 C1267 1.358 1_556 S
C1269 H1311 0.930 1_556 S
C1270 C1271 1.348 . S
C1270 C1272 1.356 . S
C1270 O1295 1.325 . S
C1271 C1270 1.348 . S
C1271 C1273 1.353 . S
C1271 H1312 0.929 . S
C1272 C1270 1.356 . S
C1272 C1274 1.358 . S
C1272 H1313 0.930 . S
C1273 C1271 1.353 . S
C1273 N1275 1.314 . S
C1273 H1314 0.930 . S
C1274 C1272 1.358 . S
C1274 N1275 1.279 . S
C1274 H1315 0.930 . S
N1275 C1273 1.314 . S
N1275 C1274 1.279 . S
C1276 C1278 1.353 . S
C1276 N1279 1.314 . S
C1276 H1282 0.930 1_556 S
C1277 N1279 1.279 . S
C1277 C1280 1.358 . S
C1277 H1283 0.930 . S
C1278 C1276 1.353 . S
C1278 C1281 1.348 . S
C1278 H1316 0.929 . S
N1279 Li1234 1.990 . S
N1279 C1276 1.314 . S
N1279 C1277 1.279 . S
C1280 C1277 1.358 . S
C1280 C1281 1.356 . S
C1280 H1317 0.930 . S
C1281 C1278 1.348 . S
C1281 C1280 1.356 . S
H1282 C1276 0.930 1_554 S
H1283 C1277 0.930 . S
C1284 N1285 1.314 . S
C1284 C1286 1.353 . S
C1284 H1290 0.930 . S
N1285 Li1235 1.990 . S
N1285 C1284 1.314 . S
N1285 C1288 1.279 . S
C1286 C1284 1.353 . S
C1286 C1289 1.348 . S
C1286 H1318 0.929 . S
C1287 C1288 1.358 . S
C1287 C1289 1.356 . S
C1287 H1319 0.930 . S
C1288 N1285 1.279 . S
C1288 C1287 1.358 . S
C1288 H1291 0.930 . S
C1289 C1286 1.348 . S
C1289 C1287 1.356 . S
H1290 C1284 0.930 . S
H1291 C1288 0.930 . S
O1292 Li1232 1.956 . S
O1292 Li1233 1.970 . S
O1292 Li1234 1.961 1_554 S
O1292 C1236 1.325 . S
O1293 Li1232 1.970 . S
O1293 Li1233 1.956 . S
O1293 Li1235 1.961 1_554 S
O1293 C1242 1.325 . S
O1294 Li1232 1.961 1_556 S
O1294 Li1234 1.956 . S
O1294 Li1235 1.970 . S
O1294 C1264 1.325 . S
O1295 Li1233 1.961 1_556 S
O1295 Li1234 1.970 . S
O1295 Li1235 1.956 . S
O1295 C1270 1.325 . S
H1296 C1238 0.929 . S
H1297 C1239 0.930 . S
H1298 C1240 0.930 . S
H1299 C1241 0.930 . S
H1300 C1243 0.930 1_556 S
H1301 C1245 0.929 . S
H1302 C1246 0.930 . S
H1303 C1247 0.930 . S
H1304 C1250 0.930 . S
H1305 C1253 0.929 . S
H1306 C1258 0.929 . S
H1307 C1259 0.930 . S
H1308 C1266 0.929 . S
H1309 C1267 0.930 . S
H1310 C1268 0.930 . S
H1311 C1269 0.930 1_554 S
H1312 C1271 0.929 . S
H1313 C1272 0.930 . S
H1314 C1273 0.930 . S
H1315 C1274 0.930 . S
H1316 C1278 0.929 . S
H1317 C1280 0.930 . S
H1318 C1286 0.929 . S
H1319 C1287 0.930 . S
Li1320 N1337 1.990 . S
Li1320 O1380 1.956 . S
Li1320 O1381 1.970 . S
Li1320 O1382 1.961 . S
Li1321 N1345 1.990 . S
Li1321 O1380 1.970 . S
Li1321 O1381 1.956 . S
Li1321 O1383 1.961 . S
Li1322 N1367 1.990 . S
Li1322 O1380 1.961 . S
Li1322 O1382 1.956 . S
Li1322 O1383 1.970 . S
Li1323 N1373 1.990 . S
Li1323 O1381 1.961 . S
Li1323 O1382 1.970 . S
Li1323 O1383 1.956 . S
C1324 C1326 1.348 . S
C1324 C1327 1.356 . S
C1324 O1380 1.325 . S
N1325 C1328 1.314 . S
N1325 C1329 1.279 . S
C1326 C1324 1.348 . S
C1326 C1328 1.353 . S
C1326 H1384 0.929 . S
C1327 C1324 1.356 . S
C1327 C1329 1.358 . S
C1327 H1385 0.930 . S
C1328 N1325 1.314 . S
C1328 C1326 1.353 . S
C1328 H1386 0.930 . S
C1329 N1325 1.279 . S
C1329 C1327 1.358 . S
C1329 H1387 0.930 . S
C1330 C1333 1.348 . S
C1330 C1334 1.356 . S
C1330 O1381 1.325 . S
C1331 N1332 1.279 . S
C1331 C1334 1.358 . S
C1331 H1388 0.930 . S
N1332 C1331 1.279 . S
N1332 C1335 1.314 . S
C1333 C1330 1.348 . S
C1333 C1335 1.353 . S
C1333 H1389 0.929 . S
C1334 C1330 1.356 . S
C1334 C1331 1.358 . S
C1334 H1390 0.930 . S
C1335 N1332 1.314 . S
C1335 C1333 1.353 . S
C1335 H1391 0.930 . S
C1336 N1337 1.314 . S
C1336 C1341 1.353 . S
C1336 H1342 0.930 . S
N1337 Li1320 1.990 . S
N1337 C1336 1.314 . S
N1337 C1339 1.279 . S
C1338 C1339 1.358 . S
C1338 C1340 1.356 . S
C1338 H1392 0.930 . S
C1339 N1337 1.279 . S
C1339 C1338 1.358 . S
C1339 H1343 0.930 . S
C1340 C1338 1.356 . S
C1340 C1341 1.348 . S
C1341 C1336 1.353 . S
C1341 C1340 1.348 . S
C1341 H1393 0.929 . S
H1342 C1336 0.930 . S
H1343 C1339 0.930 . S
C1344 N1345 1.314 . S
C1344 C1346 1.353 . S
C1344 H1350 0.930 . S
N1345 Li1321 1.990 . S
N1345 C1344 1.314 . S
N1345 C1348 1.279 . S
C1346 C1344 1.353 . S
C1346 C1349 1.348 . S
C1346 H1394 0.929 . S
C1347 C1348 1.358 . S
C1347 C1349 1.356 . S
C1347 H1395 0.930 . S
C1348 N1345 1.279 . S
C1348 C1347 1.358 . S
C1348 H1351 0.930 . S
C1349 C1346 1.348 . S
C1349 C1347 1.356 . S
H1350 C1344 0.930 . S
H1351 C1348 0.930 . S
C1352 C1354 1.348 . S
C1352 C1355 1.356 . S
C1352 O1382 1.325 . S
N1353 C1356 1.314 . S
N1353 C1357 1.279 . S
C1354 C1352 1.348 . S
C1354 C1356 1.353 . S
C1354 H1396 0.929 . S
C1355 C1352 1.356 . S
C1355 C1357 1.358 . S
C1355 H1397 0.930 . S
C1356 N1353 1.314 . S
C1356 C1354 1.353 . S
C1356 H1398 0.930 . S
C1357 N1353 1.279 . S
C1357 C1355 1.358 . S
C1357 H1399 0.930 . S
C1358 C1359 1.348 . S
C1358 C1360 1.356 . S
C1358 O1383 1.325 . S
C1359 C1358 1.348 . S
C1359 C1361 1.353 . S
C1359 H1400 0.929 . S
C1360 C1358 1.356 . S
C1360 C1362 1.358 . S
C1360 H1401 0.930 . S
C1361 C1359 1.353 . S
C1361 N1363 1.314 . S
C1361 H1402 0.930 . S
C1362 C1360 1.358 . S
C1362 N1363 1.279 . S
C1362 H1403 0.930 . S
N1363 C1361 1.314 . S
N1363 C1362 1.279 . S
C1364 C1366 1.353 . S
C1364 N1367 1.314 . S
C1364 H1370 0.930 . S
C1365 N1367 1.279 . S
C1365 C1368 1.358 . S
C1365 H1371 0.930 . S
C1366 C1364 1.353 . S
C1366 C1369 1.348 . S
C1366 H1404 0.929 . S
N1367 Li1322 1.990 . S
N1367 C1364 1.314 . S
N1367 C1365 1.279 . S
C1368 C1365 1.358 . S
C1368 C1369 1.356 . S
C1368 H1405 0.930 . S
C1369 C1366 1.348 . S
C1369 C1368 1.356 . S
H1370 C1364 0.930 . S
H1371 C1365 0.930 . S
C1372 N1373 1.314 . S
C1372 C1374 1.353 . S
C1372 H1378 0.930 . S
N1373 Li1323 1.990 . S
N1373 C1372 1.314 . S
N1373 C1376 1.279 . S
C1374 C1372 1.353 . S
C1374 C1377 1.348 . S
C1374 H1406 0.929 . S
C1375 C1376 1.358 . S
C1375 C1377 1.356 . S
C1375 H1407 0.930 . S
C1376 N1373 1.279 . S
C1376 C1375 1.358 . S
C1376 H1379 0.930 . S
C1377 C1374 1.348 . S
C1377 C1375 1.356 . S
H1378 C1372 0.930 . S
H1379 C1376 0.930 . S
O1380 Li1320 1.956 . S
O1380 Li1321 1.970 . S
O1380 Li1322 1.961 . S
O1380 C1324 1.325 . S
O1381 Li1320 1.970 . S
O1381 Li1321 1.956 . S
O1381 Li1323 1.961 . S
O1381 C1330 1.325 . S
O1382 Li1320 1.961 . S
O1382 Li1322 1.956 . S
O1382 Li1323 1.970 . S
O1382 C1352 1.325 . S
O1383 Li1321 1.961 . S
O1383 Li1322 1.970 . S
O1383 Li1323 1.956 . S
O1383 C1358 1.325 . S
H1384 C1326 0.929 . S
H1385 C1327 0.930 . S
H1386 C1328 0.930 . S
H1387 C1329 0.930 . S
H1388 C1331 0.930 . S
H1389 C1333 0.929 . S
H1390 C1334 0.930 . S
H1391 C1335 0.930 . S
H1392 C1338 0.930 . S
H1393 C1341 0.929 . S
H1394 C1346 0.929 . S
H1395 C1347 0.930 . S
H1396 C1354 0.929 . S
H1397 C1355 0.930 . S
H1398 C1356 0.930 . S
H1399 C1357 0.930 . S
H1400 C1359 0.929 . S
H1401 C1360 0.930 . S
H1402 C1361 0.930 . S
H1403 C1362 0.930 . S
H1404 C1366 0.929 . S
H1405 C1368 0.930 . S
H1406 C1374 0.929 . S
H1407 C1375 0.930 . S
H1408 C1426 0.951 . S
H1409 C1428 0.951 . S
H1410 C1430 0.950 . S
H1411 C1431 0.950 . S
H1412 C1433 0.950 . S
H1413 C1436 0.950 . S
H1414 C1437 0.950 . S
H1415 C1439 0.950 . S
H1416 C1440 0.950 . S
H1417 C1441 0.951 . S
H1418 C1443 0.951 . S
H1419 C1445 0.950 . S
H1420 C1446 0.950 . S
H1421 C1448 0.950 . S
H1422 C1451 0.950 . S
H1423 C1452 0.950 . S
H1424 C1454 0.950 . S
H1425 C1455 0.950 . S
C1426 H1408 0.951 . S
C1426 C1427 1.366 . S
C1426 C1428 1.388 . S
C1427 C1426 1.366 . S
C1427 C1431 1.385 . S
C1428 H1409 0.951 . S
C1428 C1426 1.388 . S
C1428 C1429 1.366 . S
C1429 C1428 1.366 . S
C1429 C1430 1.414 . S
C1429 C1432 1.499 . S
C1430 H1410 0.950 . S
C1430 C1429 1.414 . S
C1430 C1431 1.374 . S
C1431 H1411 0.950 . S
C1431 C1427 1.385 . S
C1431 C1430 1.374 . S
C1432 C1429 1.499 . S
C1432 C1433 1.373 . S
C1432 C1434 1.389 . S
C1433 H1412 0.950 . S
C1433 C1432 1.373 . S
C1433 C1449 1.377 . S
C1434 C1432 1.389 . S
C1434 C1435 1.524 . S
C1434 C1448 1.377 . S
C1435 C1434 1.524 . S
C1435 C1436 1.397 . S
C1435 C1440 1.363 . S
C1436 H1413 0.950 . S
C1436 C1435 1.397 . S
C1436 C1437 1.334 . S
C1437 H1414 0.950 . S
C1437 C1436 1.334 . S
C1437 C1438 1.287 . S
C1438 C1437 1.287 . S
C1438 C1439 1.524 . S
C1438 H1457 0.913 . S
C1439 H1415 0.950 . S
C1439 C1438 1.524 . S
C1439 C1440 1.415 . S
C1440 H1416 0.950 . S
C1440 C1435 1.363 . S
C1440 C1439 1.415 . S
C1441 H1417 0.951 . S
C1441 C1442 1.366 . S
C1441 C1443 1.388 . S
C1442 C1441 1.366 . S
C1442 C1446 1.385 . S
C1443 H1418 0.951 . S
C1443 C1441 1.388 . S
C1443 C1444 1.366 . S
C1444 C1443 1.366 . S
C1444 C1445 1.414 . S
C1444 C1447 1.499 . S
C1445 H1419 0.950 . S
C1445 C1444 1.414 . S
C1445 C1446 1.374 . S
C1446 H1420 0.950 . S
C1446 C1442 1.385 . S
C1446 C1445 1.374 . S
C1447 C1444 1.499 . S
C1447 C1448 1.373 . S
C1447 C1449 1.389 . S
C1448 H1421 0.950 . S
C1448 C1434 1.377 . S
C1448 C1447 1.373 . S
C1449 C1433 1.377 . S
C1449 C1447 1.389 . S
C1449 C1450 1.524 . S
C1450 C1449 1.524 . S
C1450 C1451 1.397 . S
C1450 C1455 1.363 . S
C1451 H1422 0.950 . S
C1451 C1450 1.397 . S
C1451 C1452 1.334 . S
C1452 H1423 0.950 . S
C1452 C1451 1.334 . S
C1452 C1453 1.287 . S
C1453 C1452 1.287 . S
C1453 C1454 1.524 . S
C1453 H1456 0.999 . S
C1454 H1424 0.950 . S
C1454 C1453 1.524 . S
C1454 C1455 1.415 . S
C1455 H1425 0.950 . S
C1455 C1450 1.363 . S
C1455 C1454 1.415 . S
H1456 C1453 0.999 . S
H1457 C1438 0.913 . S
H1458 C1476 0.951 . S
H1459 C1478 0.951 . S
H1460 C1480 0.950 . S
H1461 C1481 0.950 . S
H1462 C1483 0.950 . S
H1463 C1486 0.950 . S
H1464 C1487 0.950 . S
H1465 C1489 0.950 . S
H1466 C1490 0.950 . S
H1467 C1491 0.951 . S
H1468 C1493 0.951 . S
H1469 C1495 0.950 . S
H1470 C1496 0.950 . S
H1471 C1498 0.950 . S
H1472 C1501 0.950 . S
H1473 C1502 0.950 . S
H1474 C1504 0.950 . S
H1475 C1505 0.950 . S
C1476 H1458 0.951 . S
C1476 C1477 1.366 . S
C1476 C1478 1.388 . S
C1477 C1476 1.366 . S
C1477 C1481 1.385 . S
C1478 H1459 0.951 . S
C1478 C1476 1.388 . S
C1478 C1479 1.366 . S
C1479 C1478 1.366 . S
C1479 C1480 1.414 . S
C1479 C1482 1.499 . S
C1480 H1460 0.950 . S
C1480 C1479 1.414 . S
C1480 C1481 1.374 . S
C1481 H1461 0.950 . S
C1481 C1477 1.385 . S
C1481 C1480 1.374 . S
C1482 C1479 1.499 . S
C1482 C1483 1.373 . S
C1482 C1484 1.395 1_545 S
C1483 H1462 0.950 . S
C1483 C1482 1.373 . S
C1483 C1499 1.383 1_655 S
C1484 C1482 1.395 1_565 S
C1484 C1485 1.524 . S
C1484 C1498 1.371 1_655 S
C1485 C1484 1.524 . S
C1485 C1486 1.399 . S
C1485 C1490 1.361 1_655 S
C1486 H1463 0.950 . S
C1486 C1485 1.399 . S
C1486 C1487 1.334 . S
C1487 H1464 0.950 . S
C1487 C1486 1.334 . S
C1487 C1488 1.287 . S
C1488 C1487 1.287 . S
C1488 C1489 1.524 1_655 S
C1488 H1507 0.913 . S
C1489 H1465 0.950 . S
C1489 C1488 1.524 1_455 S
C1489 C1490 1.415 . S
C1490 H1466 0.950 . S
C1490 C1485 1.361 1_455 S
C1490 C1489 1.415 . S
C1491 H1467 0.951 . S
C1491 C1492 1.366 . S
C1491 C1493 1.388 . S
C1492 C1491 1.366 . S
C1492 C1496 1.385 . S
C1493 H1468 0.951 . S
C1493 C1491 1.388 . S
C1493 C1494 1.366 . S
C1494 C1493 1.366 . S
C1494 C1495 1.414 . S
C1494 C1497 1.499 . S
C1495 H1469 0.950 . S
C1495 C1494 1.414 . S
C1495 C1496 1.374 . S
C1496 H1470 0.950 . S
C1496 C1492 1.385 . S
C1496 C1495 1.374 . S
C1497 C1494 1.499 . S
C1497 C1498 1.373 . S
C1497 C1499 1.383 1_565 S
C1498 H1471 0.950 . S
C1498 C1484 1.371 1_455 S
C1498 C1497 1.373 . S
C1499 C1483 1.383 1_455 S
C1499 C1497 1.383 1_545 S
C1499 C1500 1.525 1_455 S
C1500 C1499 1.525 1_655 S
C1500 C1501 1.401 1_655 S
C1500 C1505 1.358 . S
C1501 H1472 0.950 . S
C1501 C1500 1.401 1_455 S
C1501 C1502 1.334 . S
C1502 H1473 0.950 . S
C1502 C1501 1.334 . S
C1502 C1503 1.287 . S
C1503 C1502 1.287 . S
C1503 C1504 1.524 1_455 S
C1503 H1506 0.999 . S
C1504 H1474 0.950 . S
C1504 C1503 1.524 1_655 S
C1504 C1505 1.415 . S
C1505 H1475 0.950 . S
C1505 C1500 1.358 . S
C1505 C1504 1.415 . S
H1506 C1503 0.999 . S
H1507 C1488 0.913 . S
H1508 C1526 0.951 . S
H1509 C1528 0.951 . S
H1510 C1530 0.950 . S
H1511 C1531 0.950 . S
H1512 C1533 0.950 . S
H1513 C1536 0.950 . S
H1514 C1537 0.950 . S
H1515 C1539 0.950 . S
H1516 C1540 0.950 . S
H1517 C1541 0.951 . S
H1518 C1543 0.951 . S
H1519 C1545 0.950 . S
H1520 C1546 0.950 . S
H1521 C1548 0.950 . S
H1522 C1551 0.950 . S
H1523 C1552 0.950 . S
H1524 C1554 0.950 . S
H1525 C1555 0.950 . S
C1526 H1508 0.951 . S
C1526 C1527 1.366 . S
C1526 C1528 1.388 . S
C1527 C1526 1.366 . S
C1527 C1531 1.385 . S
C1528 H1509 0.951 . S
C1528 C1526 1.388 . S
C1528 C1529 1.366 . S
C1529 C1528 1.366 . S
C1529 C1530 1.414 . S
C1529 C1532 1.499 . S
C1530 H1510 0.950 . S
C1530 C1529 1.414 . S
C1530 C1531 1.374 . S
C1531 H1511 0.950 . S
C1531 C1527 1.385 . S
C1531 C1530 1.374 . S
C1532 C1529 1.499 . S
C1532 C1533 1.373 . S
C1532 C1534 1.389 . S
C1533 H1512 0.950 . S
C1533 C1532 1.373 . S
C1533 C1549 1.377 . S
C1534 C1532 1.389 . S
C1534 C1535 1.524 . S
C1534 C1548 1.377 . S
C1535 C1534 1.524 . S
C1535 C1536 1.397 . S
C1535 C1540 1.363 . S
C1536 H1513 0.950 . S
C1536 C1535 1.397 . S
C1536 C1537 1.334 . S
C1537 H1514 0.950 . S
C1537 C1536 1.334 . S
C1537 C1538 1.287 . S
C1538 C1537 1.287 . S
C1538 C1539 1.524 . S
C1538 H1557 0.913 . S
C1539 H1515 0.950 . S
C1539 C1538 1.524 . S
C1539 C1540 1.415 . S
C1540 H1516 0.950 . S
C1540 C1535 1.363 . S
C1540 C1539 1.415 . S
C1541 H1517 0.951 . S
C1541 C1542 1.366 . S
C1541 C1543 1.388 . S
C1542 C1541 1.366 . S
C1542 C1546 1.385 . S
C1543 H1518 0.951 . S
C1543 C1541 1.388 . S
C1543 C1544 1.366 . S
C1544 C1543 1.366 . S
C1544 C1545 1.414 . S
C1544 C1547 1.499 . S
C1545 H1519 0.950 . S
C1545 C1544 1.414 . S
C1545 C1546 1.374 . S
C1546 H1520 0.950 . S
C1546 C1542 1.385 . S
C1546 C1545 1.374 . S
C1547 C1544 1.499 . S
C1547 C1548 1.373 . S
C1547 C1549 1.389 . S
C1548 H1521 0.950 . S
C1548 C1534 1.377 . S
C1548 C1547 1.373 . S
C1549 C1533 1.377 . S
C1549 C1547 1.389 . S
C1549 C1550 1.524 . S
C1550 C1549 1.524 . S
C1550 C1551 1.397 . S
C1550 C1555 1.363 . S
C1551 H1522 0.950 . S
C1551 C1550 1.397 . S
C1551 C1552 1.334 . S
C1552 H1523 0.950 . S
C1552 C1551 1.334 . S
C1552 C1553 1.287 . S
C1553 C1552 1.287 . S
C1553 C1554 1.524 . S
C1553 H1556 0.999 . S
C1554 H1524 0.950 . S
C1554 C1553 1.524 . S
C1554 C1555 1.415 . S
C1555 H1525 0.950 . S
C1555 C1550 1.363 . S
C1555 C1554 1.415 . S
H1556 C1553 0.999 . S
H1557 C1538 0.913 . S
H1558 C1576 0.951 . S
H1559 C1578 0.951 . S
H1560 C1580 0.950 . S
H1561 C1581 0.950 . S
H1562 C1583 0.950 . S
H1563 C1586 0.950 . S
H1564 C1587 0.950 . S
H1565 C1589 0.950 . S
H1566 C1590 0.950 . S
H1567 C1591 0.951 . S
H1568 C1593 0.951 . S
H1569 C1595 0.950 . S
H1570 C1596 0.950 . S
H1571 C1598 0.950 . S
H1572 C1601 0.950 . S
H1573 C1602 0.950 . S
H1574 C1604 0.950 . S
H1575 C1605 0.950 . S
C1576 H1558 0.951 . S
C1576 C1577 1.366 . S
C1576 C1578 1.388 . S
C1577 C1576 1.366 . S
C1577 C1581 1.385 . S
C1578 H1559 0.951 . S
C1578 C1576 1.388 . S
C1578 C1579 1.366 . S
C1579 C1578 1.366 . S
C1579 C1580 1.414 . S
C1579 C1582 1.499 . S
C1580 H1560 0.950 . S
C1580 C1579 1.414 . S
C1580 C1581 1.374 . S
C1581 H1561 0.950 . S
C1581 C1577 1.385 . S
C1581 C1580 1.374 . S
C1582 C1579 1.499 . S
C1582 C1583 1.373 1_545 S
C1582 C1584 1.389 . S
C1583 H1562 0.950 . S
C1583 C1582 1.373 1_565 S
C1583 C1599 1.377 1_554 S
C1584 C1582 1.389 . S
C1584 C1585 1.524 . S
C1584 C1598 1.377 1_554 S
C1585 C1584 1.524 . S
C1585 C1586 1.397 . S
C1585 C1590 1.363 . S
C1586 H1563 0.950 . S
C1586 C1585 1.397 . S
C1586 C1587 1.334 . S
C1587 H1564 0.950 . S
C1587 C1586 1.334 . S
C1587 C1588 1.287 . S
C1588 C1587 1.287 . S
C1588 C1589 1.524 . S
C1588 H1607 0.913 . S
C1589 H1565 0.950 . S
C1589 C1588 1.524 . S
C1589 C1590 1.415 . S
C1590 H1566 0.950 . S
C1590 C1585 1.363 . S
C1590 C1589 1.415 . S
C1591 H1567 0.951 . S
C1591 C1592 1.366 . S
C1591 C1593 1.388 . S
C1592 C1591 1.366 . S
C1592 C1596 1.385 . S
C1593 H1568 0.951 . S
C1593 C1591 1.388 . S
C1593 C1594 1.366 . S
C1594 C1593 1.366 . S
C1594 C1595 1.414 . S
C1594 C1597 1.499 . S
C1595 H1569 0.950 . S
C1595 C1594 1.414 . S
C1595 C1596 1.374 . S
C1596 H1570 0.950 . S
C1596 C1592 1.385 . S
C1596 C1595 1.374 . S
C1597 C1594 1.499 . S
C1597 C1598 1.373 1_565 S
C1597 C1599 1.389 . S
C1598 H1571 0.950 . S
C1598 C1584 1.377 1_556 S
C1598 C1597 1.373 1_545 S
C1599 C1583 1.377 1_556 S
C1599 C1597 1.389 . S
C1599 C1600 1.524 . S
C1600 C1599 1.524 . S
C1600 C1601 1.397 . S
C1600 C1605 1.363 . S
C1601 H1572 0.950 . S
C1601 C1600 1.397 . S
C1601 C1602 1.334 . S
C1602 H1573 0.950 . S
C1602 C1601 1.334 . S
C1602 C1603 1.287 . S
C1603 C1602 1.287 . S
C1603 C1604 1.524 . S
C1603 H1606 0.999 . S
C1604 H1574 0.950 . S
C1604 C1603 1.524 . S
C1604 C1605 1.415 . S
C1605 H1575 0.950 . S
C1605 C1600 1.363 . S
C1605 C1604 1.415 . S
H1606 C1603 0.999 . S
H1607 C1588 0.913 . S
H1608 C1626 0.951 . S
H1609 C1628 0.951 . S
H1610 C1630 0.950 . S
H1611 C1631 0.950 . S
H1612 C1633 0.950 . S
H1613 C1636 0.950 . S
H1614 C1637 0.950 . S
H1615 C1639 0.950 . S
H1616 C1640 0.950 . S
H1617 C1641 0.951 . S
H1618 C1643 0.951 . S
H1619 C1645 0.950 . S
H1620 C1646 0.950 . S
H1621 C1648 0.950 . S
H1622 C1651 0.950 . S
H1623 C1652 0.950 . S
H1624 C1654 0.950 . S
H1625 C1655 0.950 . S
C1626 H1608 0.951 . S
C1626 C1627 1.366 . S
C1626 C1628 1.388 . S
C1627 C1626 1.366 . S
C1627 C1631 1.385 . S
C1628 H1609 0.951 . S
C1628 C1626 1.388 . S
C1628 C1629 1.366 . S
C1629 C1628 1.366 . S
C1629 C1630 1.414 . S
C1629 C1632 1.499 . S
C1630 H1610 0.950 . S
C1630 C1629 1.414 . S
C1630 C1631 1.374 . S
C1631 H1611 0.950 . S
C1631 C1627 1.385 . S
C1631 C1630 1.374 . S
C1632 C1629 1.499 . S
C1632 C1633 1.373 . S
C1632 C1634 1.389 . S
C1633 H1612 0.950 . S
C1633 C1632 1.373 . S
C1633 C1649 1.377 . S
C1634 C1632 1.389 . S
C1634 C1635 1.524 . S
C1634 C1648 1.377 . S
C1635 C1634 1.524 . S
C1635 C1636 1.397 . S
C1635 C1640 1.363 . S
C1636 H1613 0.950 . S
C1636 C1635 1.397 . S
C1636 C1637 1.334 . S
C1637 H1614 0.950 . S
C1637 C1636 1.334 . S
C1637 C1638 1.287 . S
C1638 C1637 1.287 . S
C1638 C1639 1.524 . S
C1638 H1657 0.913 . S
C1639 H1615 0.950 . S
C1639 C1638 1.524 . S
C1639 C1640 1.415 . S
C1640 H1616 0.950 . S
C1640 C1635 1.363 . S
C1640 C1639 1.415 . S
C1641 H1617 0.951 . S
C1641 C1642 1.366 . S
C1641 C1643 1.388 . S
C1642 C1641 1.366 . S
C1642 C1646 1.385 . S
C1643 H1618 0.951 . S
C1643 C1641 1.388 . S
C1643 C1644 1.366 . S
C1644 C1643 1.366 . S
C1644 C1645 1.414 . S
C1644 C1647 1.499 . S
C1645 H1619 0.950 . S
C1645 C1644 1.414 . S
C1645 C1646 1.374 . S
C1646 H1620 0.950 . S
C1646 C1642 1.385 . S
C1646 C1645 1.374 . S
C1647 C1644 1.499 . S
C1647 C1648 1.373 . S
C1647 C1649 1.389 . S
C1648 H1621 0.950 . S
C1648 C1634 1.377 . S
C1648 C1647 1.373 . S
C1649 C1633 1.377 . S
C1649 C1647 1.389 . S
C1649 C1650 1.524 . S
C1650 C1649 1.524 . S
C1650 C1651 1.397 . S
C1650 C1655 1.363 . S
C1651 H1622 0.950 . S
C1651 C1650 1.397 . S
C1651 C1652 1.334 . S
C1652 H1623 0.950 . S
C1652 C1651 1.334 . S
C1652 C1653 1.287 . S
C1653 C1652 1.287 . S
C1653 C1654 1.524 . S
C1653 H1656 0.999 . S
C1654 H1624 0.950 . S
C1654 C1653 1.524 . S
C1654 C1655 1.415 . S
C1655 H1625 0.950 . S
C1655 C1650 1.363 . S
C1655 C1654 1.415 . S
H1656 C1653 0.999 . S
H1657 C1638 0.913 . S
H1658 C1676 0.951 . S
H1659 C1678 0.951 . S
H1660 C1680 0.950 1_545 S
H1661 C1681 0.950 . S
H1662 C1683 0.950 . S
H1663 C1686 0.950 . S
H1664 C1687 0.950 . S
H1665 C1689 0.950 . S
H1666 C1690 0.950 . S
H1667 C1691 0.951 . S
H1668 C1693 0.951 . S
H1669 C1695 0.950 1_565 S
H1670 C1696 0.950 . S
H1671 C1698 0.950 . S
H1672 C1701 0.950 . S
H1673 C1702 0.950 . S
H1674 C1704 0.950 . S
H1675 C1705 0.950 . S
C1676 H1658 0.951 . S
C1676 C1677 1.366 . S
C1676 C1678 1.388 . S
C1677 C1676 1.366 . S
C1677 C1681 1.385 . S
C1678 H1659 0.951 . S
C1678 C1676 1.388 . S
C1678 C1679 1.366 . S
C1679 C1678 1.366 . S
C1679 C1680 1.414 . S
C1679 C1682 1.499 . S
C1680 H1660 0.950 1_565 S
C1680 C1679 1.414 . S
C1680 C1681 1.374 . S
C1681 H1661 0.950 . S
C1681 C1677 1.385 . S
C1681 C1680 1.374 . S
C1682 C1679 1.499 . S
C1682 C1683 1.373 1_565 S
C1682 C1684 1.389 . S
C1683 H1662 0.950 . S
C1683 C1682 1.373 1_545 S
C1683 C1699 1.377 . S
C1684 C1682 1.389 . S
C1684 C1685 1.524 . S
C1684 C1698 1.377 . S
C1685 C1684 1.524 . S
C1685 C1686 1.397 . S
C1685 C1690 1.363 . S
C1686 H1663 0.950 . S
C1686 C1685 1.397 . S
C1686 C1687 1.334 . S
C1687 H1664 0.950 . S
C1687 C1686 1.334 . S
C1687 C1688 1.287 . S
C1688 C1687 1.287 . S
C1688 C1689 1.524 . S
C1688 H1707 0.913 . S
C1689 H1665 0.950 . S
C1689 C1688 1.524 . S
C1689 C1690 1.415 . S
C1690 H1666 0.950 . S
C1690 C1685 1.363 . S
C1690 C1689 1.415 . S
C1691 H1667 0.951 . S
C1691 C1692 1.366 . S
C1691 C1693 1.388 . S
C1692 C1691 1.366 . S
C1692 C1696 1.385 . S
C1693 H1668 0.951 . S
C1693 C1691 1.388 . S
C1693 C1694 1.366 . S
C1694 C1693 1.366 . S
C1694 C1695 1.414 . S
C1694 C1697 1.499 . S
C1695 H1669 0.950 1_545 S
C1695 C1694 1.414 . S
C1695 C1696 1.374 . S
C1696 H1670 0.950 . S
C1696 C1692 1.385 . S
C1696 C1695 1.374 . S
C1697 C1694 1.499 . S
C1697 C1698 1.373 1_545 S
C1697 C1699 1.389 . S
C1698 H1671 0.950 . S
C1698 C1684 1.377 . S
C1698 C1697 1.373 1_565 S
C1699 C1683 1.377 . S
C1699 C1697 1.389 . S
C1699 C1700 1.524 . S
C1700 C1699 1.524 . S
C1700 C1701 1.397 . S
C1700 C1705 1.363 . S
C1701 H1672 0.950 . S
C1701 C1700 1.397 . S
C1701 C1702 1.334 . S
C1702 H1673 0.950 . S
C1702 C1701 1.334 . S
C1702 C1703 1.287 . S
C1703 C1702 1.287 . S
C1703 C1704 1.524 . S
C1703 H1706 0.999 . S
C1704 H1674 0.950 . S
C1704 C1703 1.524 . S
C1704 C1705 1.415 . S
C1705 H1675 0.950 . S
C1705 C1700 1.363 . S
C1705 C1704 1.415 . S
H1706 C1703 0.999 . S
H1707 C1688 0.913 . S
H1708 C1726 0.951 . S
H1709 C1728 0.951 . S
H1710 C1730 0.950 . S
H1711 C1731 0.950 . S
H1712 C1733 0.950 . S
H1713 C1736 0.950 . S
H1714 C1737 0.950 . S
H1715 C1739 0.950 . S
H1716 C1740 0.950 . S
H1717 C1741 0.951 . S
H1718 C1743 0.951 . S
H1719 C1745 0.950 . S
H1720 C1746 0.950 . S
H1721 C1748 0.950 . S
H1722 C1751 0.950 . S
H1723 C1752 0.950 . S
H1724 C1754 0.950 . S
H1725 C1755 0.950 . S
C1726 H1708 0.951 . S
C1726 C1727 1.366 . S
C1726 C1728 1.388 . S
C1727 C1726 1.366 . S
C1727 C1731 1.385 . S
C1728 H1709 0.951 . S
C1728 C1726 1.388 . S
C1728 C1729 1.366 . S
C1729 C1728 1.366 . S
C1729 C1730 1.414 . S
C1729 C1732 1.499 . S
C1730 H1710 0.950 . S
C1730 C1729 1.414 . S
C1730 C1731 1.374 . S
C1731 H1711 0.950 . S
C1731 C1727 1.385 . S
C1731 C1730 1.374 . S
C1732 C1729 1.499 . S
C1732 C1733 1.373 . S
C1732 C1734 1.389 . S
C1733 H1712 0.950 . S
C1733 C1732 1.373 . S
C1733 C1749 1.377 . S
C1734 C1732 1.389 . S
C1734 C1735 1.524 . S
C1734 C1748 1.377 . S
C1735 C1734 1.524 . S
C1735 C1736 1.397 . S
C1735 C1740 1.363 . S
C1736 H1713 0.950 . S
C1736 C1735 1.397 . S
C1736 C1737 1.334 . S
C1737 H1714 0.950 . S
C1737 C1736 1.334 . S
C1737 C1738 1.287 . S
C1738 C1737 1.287 . S
C1738 C1739 1.524 . S
C1738 H1757 0.913 . S
C1739 H1715 0.950 . S
C1739 C1738 1.524 . S
C1739 C1740 1.415 . S
C1740 H1716 0.950 . S
C1740 C1735 1.363 . S
C1740 C1739 1.415 . S
C1741 H1717 0.951 . S
C1741 C1742 1.366 . S
C1741 C1743 1.388 . S
C1742 C1741 1.366 . S
C1742 C1746 1.385 . S
C1743 H1718 0.951 . S
C1743 C1741 1.388 . S
C1743 C1744 1.366 . S
C1744 C1743 1.366 . S
C1744 C1745 1.414 . S
C1744 C1747 1.499 . S
C1745 H1719 0.950 . S
C1745 C1744 1.414 . S
C1745 C1746 1.374 . S
C1746 H1720 0.950 . S
C1746 C1742 1.385 . S
C1746 C1745 1.374 . S
C1747 C1744 1.499 . S
C1747 C1748 1.373 . S
C1747 C1749 1.389 . S
C1748 H1721 0.950 . S
C1748 C1734 1.377 . S
C1748 C1747 1.373 . S
C1749 C1733 1.377 . S
C1749 C1747 1.389 . S
C1749 C1750 1.524 . S
C1750 C1749 1.524 . S
C1750 C1751 1.397 . S
C1750 C1755 1.363 . S
C1751 H1722 0.950 . S
C1751 C1750 1.397 . S
C1751 C1752 1.334 . S
C1752 H1723 0.950 . S
C1752 C1751 1.334 . S
C1752 C1753 1.287 . S
C1753 C1752 1.287 . S
C1753 C1754 1.524 . S
C1753 H1756 0.999 . S
C1754 H1724 0.950 . S
C1754 C1753 1.524 . S
C1754 C1755 1.415 . S
C1755 H1725 0.950 . S
C1755 C1750 1.363 . S
C1755 C1754 1.415 . S
H1756 C1753 0.999 . S
H1757 C1738 0.913 . S
H1758 C1776 0.951 1_565 S
H1759 C1778 0.951 . S
H1760 C1780 0.950 . S
H1761 C1781 0.950 . S
H1762 C1783 0.950 . S
H1763 C1786 0.950 1_545 S
H1764 C1787 0.950 . S
H1765 C1789 0.950 . S
H1766 C1790 0.941 1_455 S
H1767 C1791 0.951 1_545 S
H1768 C1793 0.951 . S
H1769 C1795 0.950 . S
H1770 C1796 0.950 . S
H1771 C1798 0.950 . S
H1772 C1801 0.950 1_565 S
H1773 C1802 0.950 . S
H1774 C1804 0.950 . S
H1775 C1805 0.941 1_655 S
C1776 H1758 0.951 1_545 S
C1776 C1777 1.366 . S
C1776 C1778 1.388 1_545 S
C1777 C1776 1.366 . S
C1777 C1781 1.385 . S
C1778 H1759 0.951 . S
C1778 C1776 1.388 1_565 S
C1778 C1779 1.366 1_565 S
C1779 C1778 1.366 1_545 S
C1779 C1780 1.414 . S
C1779 C1782 1.499 . S
C1780 H1760 0.950 . S
C1780 C1779 1.414 . S
C1780 C1781 1.374 . S
C1781 H1761 0.950 . S
C1781 C1777 1.385 . S
C1781 C1780 1.374 . S
C1782 C1779 1.499 . S
C1782 C1783 1.373 1_556 S
C1782 C1784 1.390 1_545 S
C1783 H1762 0.950 . S
C1783 C1782 1.373 1_554 S
C1783 C1799 1.365 1_455 S
C1784 C1782 1.390 1_565 S
C1784 C1785 1.524 1_455 S
C1784 C1798 1.376 1_455 S
C1785 C1784 1.524 1_655 S
C1785 C1786 1.397 . S
C1785 C1790 1.366 . S
C1786 H1763 0.950 1_565 S
C1786 C1785 1.397 . S
C1786 C1787 1.334 . S
C1787 H1764 0.950 . S
C1787 C1786 1.334 . S
C1787 C1788 1.287 . S
C1788 C1787 1.287 . S
C1788 C1789 1.524 . S
C1788 H1807 0.913 . S
C1789 H1765 0.950 . S
C1789 C1788 1.524 . S
C1789 C1790 1.425 . S
C1790 H1766 0.941 1_655 S
C1790 C1785 1.366 . S
C1790 C1789 1.425 . S
C1791 H1767 0.951 1_565 S
C1791 C1792 1.366 . S
C1791 C1793 1.388 1_565 S
C1792 C1791 1.366 . S
C1792 C1796 1.385 . S
C1793 H1768 0.951 . S
C1793 C1791 1.388 1_545 S
C1793 C1794 1.366 1_545 S
C1794 C1793 1.366 1_565 S
C1794 C1795 1.414 . S
C1794 C1797 1.499 . S
C1795 H1769 0.950 . S
C1795 C1794 1.414 . S
C1795 C1796 1.374 . S
C1796 H1770 0.950 . S
C1796 C1792 1.385 . S
C1796 C1795 1.374 . S
C1797 C1794 1.499 . S
C1797 C1798 1.373 1_554 S
C1797 C1799 1.401 1_565 S
C1798 H1771 0.950 . S
C1798 C1784 1.376 1_655 S
C1798 C1797 1.373 1_556 S
C1799 C1783 1.365 1_655 S
C1799 C1797 1.401 1_545 S
C1799 C1800 1.520 1_655 S
C1800 C1799 1.520 1_455 S
C1800 C1801 1.416 . S
C1800 C1805 1.362 . S
C1801 H1772 0.950 1_545 S
C1801 C1800 1.416 . S
C1801 C1802 1.334 . S
C1802 H1773 0.950 . S
C1802 C1801 1.334 . S
C1802 C1803 1.287 . S
C1803 C1802 1.287 . S
C1803 C1804 1.524 . S
C1803 H1806 0.999 . S
C1804 H1774 0.950 . S
C1804 C1803 1.524 . S
C1804 C1805 1.422 . S
C1805 H1775 0.941 1_455 S
C1805 C1800 1.362 . S
C1805 C1804 1.422 . S
H1806 C1803 0.999 . S
H1807 C1788 0.913 . S
H1808 C1826 0.951 . S
H1809 C1828 0.951 . S
H1810 C1830 0.950 . S
H1811 C1831 0.950 . S
H1812 C1833 0.950 . S
H1813 C1836 0.950 . S
H1814 C1837 0.950 . S
H1815 C1839 0.950 . S
H1816 C1840 0.950 . S
H1817 C1841 0.951 . S
H1818 C1843 0.951 . S
H1819 C1845 0.950 . S
H1820 C1846 0.950 . S
H1821 C1848 0.950 . S
H1822 C1851 0.950 . S
H1823 C1852 0.950 . S
H1824 C1854 0.950 . S
H1825 C1855 0.950 . S
C1826 H1808 0.951 . S
C1826 C1827 1.366 . S
C1826 C1828 1.388 . S
C1827 C1826 1.366 . S
C1827 C1831 1.385 . S
C1828 H1809 0.951 . S
C1828 C1826 1.388 . S
C1828 C1829 1.366 . S
C1829 C1828 1.366 . S
C1829 C1830 1.414 . S
C1829 C1832 1.499 . S
C1830 H1810 0.950 . S
C1830 C1829 1.414 . S
C1830 C1831 1.374 . S
C1831 H1811 0.950 . S
C1831 C1827 1.385 . S
C1831 C1830 1.374 . S
C1832 C1829 1.499 . S
C1832 C1833 1.373 . S
C1832 C1834 1.389 . S
C1833 H1812 0.950 . S
C1833 C1832 1.373 . S
C1833 C1849 1.377 . S
C1834 C1832 1.389 . S
C1834 C1835 1.524 . S
C1834 C1848 1.377 . S
C1835 C1834 1.524 . S
C1835 C1836 1.397 . S
C1835 C1840 1.363 . S
C1836 H1813 0.950 . S
C1836 C1835 1.397 . S
C1836 C1837 1.334 . S
C1837 H1814 0.950 . S
C1837 C1836 1.334 . S
C1837 C1838 1.287 . S
C1838 C1837 1.287 . S
C1838 C1839 1.524 . S
C1838 H1857 0.913 . S
C1839 H1815 0.950 . S
C1839 C1838 1.524 . S
C1839 C1840 1.415 . S
C1840 H1816 0.950 . S
C1840 C1835 1.363 . S
C1840 C1839 1.415 . S
C1841 H1817 0.951 . S
C1841 C1842 1.366 . S
C1841 C1843 1.388 . S
C1842 C1841 1.366 . S
C1842 C1846 1.385 . S
C1843 H1818 0.951 . S
C1843 C1841 1.388 . S
C1843 C1844 1.366 . S
C1844 C1843 1.366 . S
C1844 C1845 1.414 . S
C1844 C1847 1.499 . S
C1845 H1819 0.950 . S
C1845 C1844 1.414 . S
C1845 C1846 1.374 . S
C1846 H1820 0.950 . S
C1846 C1842 1.385 . S
C1846 C1845 1.374 . S
C1847 C1844 1.499 . S
C1847 C1848 1.373 . S
C1847 C1849 1.389 . S
C1848 H1821 0.950 . S
C1848 C1834 1.377 . S
C1848 C1847 1.373 . S
C1849 C1833 1.377 . S
C1849 C1847 1.389 . S
C1849 C1850 1.524 . S
C1850 C1849 1.524 . S
C1850 C1851 1.397 . S
C1850 C1855 1.363 . S
C1851 H1822 0.950 . S
C1851 C1850 1.397 . S
C1851 C1852 1.334 . S
C1852 H1823 0.950 . S
C1852 C1851 1.334 . S
C1852 C1853 1.287 . S
C1853 C1852 1.287 . S
C1853 C1854 1.524 . S
C1853 H1856 0.999 . S
C1854 H1824 0.950 . S
C1854 C1853 1.524 . S
C1854 C1855 1.415 . S
C1855 H1825 0.950 . S
C1855 C1850 1.363 . S
C1855 C1854 1.415 . S
H1856 C1853 0.999 . S
H1857 C1838 0.913 . S
H1858 C1876 0.951 . S
H1859 C1878 0.951 . S
H1860 C1880 0.950 . S
H1861 C1881 0.950 . S
H1862 C1883 0.950 . S
H1863 C1886 0.950 . S
H1864 C1887 0.950 . S
H1865 C1889 0.950 . S
H1866 C1890 0.950 . S
H1867 C1891 0.951 . S
H1868 C1893 0.951 . S
H1869 C1895 0.950 . S
H1870 C1896 0.950 . S
H1871 C1898 0.950 . S
H1872 C1901 0.950 . S
H1873 C1902 0.950 . S
H1874 C1904 0.950 . S
H1875 C1905 0.950 . S
C1876 H1858 0.951 . S
C1876 C1877 1.366 . S
C1876 C1878 1.388 . S
C1877 C1876 1.366 . S
C1877 C1881 1.385 . S
C1878 H1859 0.951 . S
C1878 C1876 1.388 . S
C1878 C1879 1.366 . S
C1879 C1878 1.366 . S
C1879 C1880 1.414 . S
C1879 C1882 1.499 . S
C1880 H1860 0.950 . S
C1880 C1879 1.414 . S
C1880 C1881 1.374 . S
C1881 H1861 0.950 . S
C1881 C1877 1.385 . S
C1881 C1880 1.374 . S
C1882 C1879 1.499 . S
C1882 C1883 1.373 . S
C1882 C1884 1.389 . S
C1883 H1862 0.950 . S
C1883 C1882 1.373 . S
C1883 C1899 1.377 . S
C1884 C1882 1.389 . S
C1884 C1885 1.524 . S
C1884 C1898 1.377 . S
C1885 C1884 1.524 . S
C1885 C1886 1.397 . S
C1885 C1890 1.363 . S
C1886 H1863 0.950 . S
C1886 C1885 1.397 . S
C1886 C1887 1.334 . S
C1887 H1864 0.950 . S
C1887 C1886 1.334 . S
C1887 C1888 1.287 . S
C1888 C1887 1.287 . S
C1888 C1889 1.524 . S
C1888 H1907 0.913 . S
C1889 H1865 0.950 . S
C1889 C1888 1.524 . S
C1889 C1890 1.415 . S
C1890 H1866 0.950 . S
C1890 C1885 1.363 . S
C1890 C1889 1.415 . S
C1891 H1867 0.951 . S
C1891 C1892 1.366 . S
C1891 C1893 1.388 . S
C1892 C1891 1.366 . S
C1892 C1896 1.385 . S
C1893 H1868 0.951 . S
C1893 C1891 1.388 . S
C1893 C1894 1.366 . S
C1894 C1893 1.366 . S
C1894 C1895 1.414 . S
C1894 C1897 1.499 . S
C1895 H1869 0.950 . S
C1895 C1894 1.414 . S
C1895 C1896 1.374 . S
C1896 H1870 0.950 . S
C1896 C1892 1.385 . S
C1896 C1895 1.374 . S
C1897 C1894 1.499 . S
C1897 C1898 1.373 . S
C1897 C1899 1.389 . S
C1898 H1871 0.950 . S
C1898 C1884 1.377 . S
C1898 C1897 1.373 . S
C1899 C1883 1.377 . S
C1899 C1897 1.389 . S
C1899 C1900 1.524 . S
C1900 C1899 1.524 . S
C1900 C1901 1.397 . S
C1900 C1905 1.363 . S
C1901 H1872 0.950 . S
C1901 C1900 1.397 . S
C1901 C1902 1.334 . S
C1902 H1873 0.950 . S
C1902 C1901 1.334 . S
C1902 C1903 1.287 . S
C1903 C1902 1.287 . S
C1903 C1904 1.524 . S
C1903 H1906 0.999 . S
C1904 H1874 0.950 . S
C1904 C1903 1.524 . S
C1904 C1905 1.415 . S
C1905 H1875 0.950 . S
C1905 C1900 1.363 . S
C1905 C1904 1.415 . S
H1906 C1903 0.999 . S
H1907 C1888 0.913 . S
H1908 C1926 0.951 . S
H1909 C1928 0.951 . S
H1910 C1930 0.950 . S
H1911 C1931 0.950 . S
H1912 C1933 0.950 . S
H1913 C1936 0.950 . S
H1914 C1937 0.950 . S
H1915 C1939 0.950 . S
H1916 C1940 0.950 . S
H1917 C1941 0.951 . S
H1918 C1943 0.951 . S
H1919 C1945 0.950 . S
H1920 C1946 0.950 . S
H1921 C1948 0.950 . S
H1922 C1951 0.950 . S
H1923 C1952 0.950 . S
H1924 C1954 0.950 . S
H1925 C1955 0.950 . S
C1926 H1908 0.951 . S
C1926 C1927 1.366 . S
C1926 C1928 1.388 . S
C1927 C1926 1.366 . S
C1927 C1931 1.385 . S
C1928 H1909 0.951 . S
C1928 C1926 1.388 . S
C1928 C1929 1.366 . S
C1929 C1928 1.366 . S
C1929 C1930 1.414 . S
C1929 C1932 1.499 . S
C1930 H1910 0.950 . S
C1930 C1929 1.414 . S
C1930 C1931 1.374 . S
C1931 H1911 0.950 . S
C1931 C1927 1.385 . S
C1931 C1930 1.374 . S
C1932 C1929 1.499 . S
C1932 C1933 1.373 . S
C1932 C1934 1.389 . S
C1933 H1912 0.950 . S
C1933 C1932 1.373 . S
C1933 C1949 1.377 . S
C1934 C1932 1.389 . S
C1934 C1935 1.524 . S
C1934 C1948 1.377 . S
C1935 C1934 1.524 . S
C1935 C1936 1.397 . S
C1935 C1940 1.363 . S
C1936 H1913 0.950 . S
C1936 C1935 1.397 . S
C1936 C1937 1.334 . S
C1937 H1914 0.950 . S
C1937 C1936 1.334 . S
C1937 C1938 1.287 . S
C1938 C1937 1.287 . S
C1938 C1939 1.524 . S
C1938 H1957 0.913 . S
C1939 H1915 0.950 . S
C1939 C1938 1.524 . S
C1939 C1940 1.415 . S
C1940 H1916 0.950 . S
C1940 C1935 1.363 . S
C1940 C1939 1.415 . S
C1941 H1917 0.951 . S
C1941 C1942 1.366 . S
C1941 C1943 1.388 . S
C1942 C1941 1.366 . S
C1942 C1946 1.385 . S
C1943 H1918 0.951 . S
C1943 C1941 1.388 . S
C1943 C1944 1.366 . S
C1944 C1943 1.366 . S
C1944 C1945 1.414 . S
C1944 C1947 1.499 . S
C1945 H1919 0.950 . S
C1945 C1944 1.414 . S
C1945 C1946 1.374 . S
C1946 H1920 0.950 . S
C1946 C1942 1.385 . S
C1946 C1945 1.374 . S
C1947 C1944 1.499 . S
C1947 C1948 1.373 . S
C1947 C1949 1.389 . S
C1948 H1921 0.950 . S
C1948 C1934 1.377 . S
C1948 C1947 1.373 . S
C1949 C1933 1.377 . S
C1949 C1947 1.389 . S
C1949 C1950 1.524 . S
C1950 C1949 1.524 . S
C1950 C1951 1.397 . S
C1950 C1955 1.363 . S
C1951 H1922 0.950 . S
C1951 C1950 1.397 . S
C1951 C1952 1.334 . S
C1952 H1923 0.950 . S
C1952 C1951 1.334 . S
C1952 C1953 1.287 . S
C1953 C1952 1.287 . S
C1953 C1954 1.524 . S
C1953 H1956 0.999 . S
C1954 H1924 0.950 . S
C1954 C1953 1.524 . S
C1954 C1955 1.415 . S
C1955 H1925 0.950 . S
C1955 C1950 1.363 . S
C1955 C1954 1.415 . S
H1956 C1953 0.999 . S
H1957 C1938 0.913 . S
H1958 C1976 0.951 . S
H1959 C1978 0.951 . S
H1960 C1980 0.950 . S
H1961 C1981 0.950 . S
H1962 C1983 0.950 . S
H1963 C1986 0.950 . S
H1964 C1987 0.950 . S
H1965 C1989 0.950 . S
H1966 C1990 0.950 . S
H1967 C1991 0.951 . S
H1968 C1993 0.951 . S
H1969 C1995 0.950 . S
H1970 C1996 0.950 . S
H1971 C1998 0.950 . S
H1972 C2001 0.950 . S
H1973 C2002 0.950 . S
H1974 C2004 0.950 . S
H1975 C2005 0.950 . S
C1976 H1958 0.951 . S
C1976 C1977 1.366 . S
C1976 C1978 1.388 . S
C1977 C1976 1.366 . S
C1977 C1981 1.385 . S
C1978 H1959 0.951 . S
C1978 C1976 1.388 . S
C1978 C1979 1.366 . S
C1979 C1978 1.366 . S
C1979 C1980 1.414 . S
C1979 C1982 1.499 . S
C1980 H1960 0.950 . S
C1980 C1979 1.414 . S
C1980 C1981 1.374 . S
C1981 H1961 0.950 . S
C1981 C1977 1.385 . S
C1981 C1980 1.374 . S
C1982 C1979 1.499 . S
C1982 C1983 1.373 . S
C1982 C1984 1.389 . S
C1983 H1962 0.950 . S
C1983 C1982 1.373 . S
C1983 C1999 1.377 . S
C1984 C1982 1.389 . S
C1984 C1985 1.524 . S
C1984 C1998 1.377 . S
C1985 C1984 1.524 . S
C1985 C1986 1.397 . S
C1985 C1990 1.363 . S
C1986 H1963 0.950 . S
C1986 C1985 1.397 . S
C1986 C1987 1.334 . S
C1987 H1964 0.950 . S
C1987 C1986 1.334 . S
C1987 C1988 1.287 . S
C1988 C1987 1.287 . S
C1988 C1989 1.524 . S
C1988 H2007 0.913 . S
C1989 H1965 0.950 . S
C1989 C1988 1.524 . S
C1989 C1990 1.415 . S
C1990 H1966 0.950 . S
C1990 C1985 1.363 . S
C1990 C1989 1.415 . S
C1991 H1967 0.951 . S
C1991 C1992 1.366 . S
C1991 C1993 1.388 . S
C1992 C1991 1.366 . S
C1992 C1996 1.385 . S
C1993 H1968 0.951 . S
C1993 C1991 1.388 . S
C1993 C1994 1.366 . S
C1994 C1993 1.366 . S
C1994 C1995 1.414 . S
C1994 C1997 1.499 . S
C1995 H1969 0.950 . S
C1995 C1994 1.414 . S
C1995 C1996 1.374 . S
C1996 H1970 0.950 . S
C1996 C1992 1.385 . S
C1996 C1995 1.374 . S
C1997 C1994 1.499 . S
C1997 C1998 1.373 . S
C1997 C1999 1.389 . S
C1998 H1971 0.950 . S
C1998 C1984 1.377 . S
C1998 C1997 1.373 . S
C1999 C1983 1.377 . S
C1999 C1997 1.389 . S
C1999 C2000 1.524 . S
C2000 C1999 1.524 . S
C2000 C2001 1.397 . S
C2000 C2005 1.363 . S
C2001 H1972 0.950 . S
C2001 C2000 1.397 . S
C2001 C2002 1.334 . S
C2002 H1973 0.950 . S
C2002 C2001 1.334 . S
C2002 C2003 1.287 . S
C2003 C2002 1.287 . S
C2003 C2004 1.524 . S
C2003 H2006 0.999 . S
C2004 H1974 0.950 . S
C2004 C2003 1.524 . S
C2004 C2005 1.415 . S
C2005 H1975 0.950 . S
C2005 C2000 1.363 . S
C2005 C2004 1.415 . S
H2006 C2003 0.999 . S
H2007 C1988 0.913 . S
H2008 C2026 0.951 . S
H2009 C2028 0.951 . S
H2010 C2030 0.950 . S
H2011 C2031 0.950 . S
H2012 C2033 0.950 . S
H2013 C2036 0.950 . S
H2014 C2037 0.950 . S
H2015 C2039 0.950 . S
H2016 C2040 0.950 . S
H2017 C2041 0.951 . S
H2018 C2043 0.951 . S
H2019 C2045 0.950 . S
H2020 C2046 0.950 . S
H2021 C2048 0.950 . S
H2022 C2051 0.950 . S
H2023 C2052 0.950 . S
H2024 C2054 0.950 . S
H2025 C2055 0.950 . S
C2026 H2008 0.951 . S
C2026 C2027 1.366 . S
C2026 C2028 1.388 . S
C2027 C2026 1.366 . S
C2027 C2031 1.385 . S
C2028 H2009 0.951 . S
C2028 C2026 1.388 . S
C2028 C2029 1.366 . S
C2029 C2028 1.366 . S
C2029 C2030 1.414 . S
C2029 C2032 1.499 . S
C2030 H2010 0.950 . S
C2030 C2029 1.414 . S
C2030 C2031 1.374 . S
C2031 H2011 0.950 . S
C2031 C2027 1.385 . S
C2031 C2030 1.374 . S
C2032 C2029 1.499 . S
C2032 C2033 1.373 . S
C2032 C2034 1.389 . S
C2033 H2012 0.950 . S
C2033 C2032 1.373 . S
C2033 C2049 1.377 1_554 S
C2034 C2032 1.389 . S
C2034 C2035 1.524 . S
C2034 C2048 1.377 1_554 S
C2035 C2034 1.524 . S
C2035 C2036 1.397 . S
C2035 C2040 1.363 . S
C2036 H2013 0.950 . S
C2036 C2035 1.397 . S
C2036 C2037 1.334 . S
C2037 H2014 0.950 . S
C2037 C2036 1.334 . S
C2037 C2038 1.287 . S
C2038 C2037 1.287 . S
C2038 C2039 1.524 . S
C2038 H2057 0.913 . S
C2039 H2015 0.950 . S
C2039 C2038 1.524 . S
C2039 C2040 1.415 . S
C2040 H2016 0.950 . S
C2040 C2035 1.363 . S
C2040 C2039 1.415 . S
C2041 H2017 0.951 . S
C2041 C2042 1.366 . S
C2041 C2043 1.388 . S
C2042 C2041 1.366 . S
C2042 C2046 1.385 . S
C2043 H2018 0.951 . S
C2043 C2041 1.388 . S
C2043 C2044 1.366 . S
C2044 C2043 1.366 . S
C2044 C2045 1.414 . S
C2044 C2047 1.499 . S
C2045 H2019 0.950 . S
C2045 C2044 1.414 . S
C2045 C2046 1.374 . S
C2046 H2020 0.950 . S
C2046 C2042 1.385 . S
C2046 C2045 1.374 . S
C2047 C2044 1.499 . S
C2047 C2048 1.373 . S
C2047 C2049 1.389 . S
C2048 H2021 0.950 . S
C2048 C2034 1.377 1_556 S
C2048 C2047 1.373 . S
C2049 C2033 1.377 1_556 S
C2049 C2047 1.389 . S
C2049 C2050 1.524 . S
C2050 C2049 1.524 . S
C2050 C2051 1.397 . S
C2050 C2055 1.363 . S
C2051 H2022 0.950 . S
C2051 C2050 1.397 . S
C2051 C2052 1.334 . S
C2052 H2023 0.950 . S
C2052 C2051 1.334 . S
C2052 C2053 1.287 . S
C2053 C2052 1.287 . S
C2053 C2054 1.524 . S
C2053 H2056 0.999 . S
C2054 H2024 0.950 . S
C2054 C2053 1.524 . S
C2054 C2055 1.415 . S
C2055 H2025 0.950 . S
C2055 C2050 1.363 . S
C2055 C2054 1.415 . S
H2056 C2053 0.999 . S
H2057 C2038 0.913 . S
H2058 C2076 0.951 . S
H2059 C2078 0.951 . S
H2060 C2080 0.950 . S
H2061 C2081 0.950 . S
H2062 C2083 0.950 . S
H2063 C2086 0.950 . S
H2064 C2087 0.950 . S
H2065 C2089 0.950 . S
H2066 C2090 0.950 . S
H2067 C2091 0.951 . S
H2068 C2093 0.951 . S
H2069 C2095 0.950 . S
H2070 C2096 0.950 . S
H2071 C2098 0.950 . S
H2072 C2101 0.950 . S
H2073 C2102 0.950 . S
H2074 C2104 0.950 . S
H2075 C2105 0.950 . S
C2076 H2058 0.951 . S
C2076 C2077 1.366 . S
C2076 C2078 1.388 . S
C2077 C2076 1.366 . S
C2077 C2081 1.385 . S
C2078 H2059 0.951 . S
C2078 C2076 1.388 . S
C2078 C2079 1.366 . S
C2079 C2078 1.366 . S
C2079 C2080 1.414 . S
C2079 C2082 1.499 . S
C2080 H2060 0.950 . S
C2080 C2079 1.414 . S
C2080 C2081 1.374 . S
C2081 H2061 0.950 . S
C2081 C2077 1.385 . S
C2081 C2080 1.374 . S
C2082 C2079 1.499 . S
C2082 C2083 1.373 . S
C2082 C2084 1.389 1_455 S
C2083 H2062 0.950 . S
C2083 C2082 1.373 . S
C2083 C2099 1.377 . S
C2084 C2082 1.389 1_655 S
C2084 C2085 1.524 . S
C2084 C2098 1.377 . S
C2085 C2084 1.524 . S
C2085 C2086 1.397 . S
C2085 C2090 1.363 . S
C2086 H2063 0.950 . S
C2086 C2085 1.397 . S
C2086 C2087 1.334 . S
C2087 H2064 0.950 . S
C2087 C2086 1.334 . S
C2087 C2088 1.287 . S
C2088 C2087 1.287 . S
C2088 C2089 1.524 . S
C2088 H2107 0.913 . S
C2089 H2065 0.950 . S
C2089 C2088 1.524 . S
C2089 C2090 1.415 . S
C2090 H2066 0.950 . S
C2090 C2085 1.363 . S
C2090 C2089 1.415 . S
C2091 H2067 0.951 . S
C2091 C2092 1.366 . S
C2091 C2093 1.388 . S
C2092 C2091 1.366 . S
C2092 C2096 1.385 . S
C2093 H2068 0.951 . S
C2093 C2091 1.388 . S
C2093 C2094 1.366 . S
C2094 C2093 1.366 . S
C2094 C2095 1.414 . S
C2094 C2097 1.499 . S
C2095 H2069 0.950 . S
C2095 C2094 1.414 . S
C2095 C2096 1.374 . S
C2096 H2070 0.950 . S
C2096 C2092 1.385 . S
C2096 C2095 1.374 . S
C2097 C2094 1.499 . S
C2097 C2098 1.373 . S
C2097 C2099 1.389 1_655 S
C2098 H2071 0.950 . S
C2098 C2084 1.377 . S
C2098 C2097 1.373 . S
C2099 C2083 1.377 . S
C2099 C2097 1.389 1_455 S
C2099 C2100 1.524 . S
C2100 C2099 1.524 . S
C2100 C2101 1.397 . S
C2100 C2105 1.363 . S
C2101 H2072 0.950 . S
C2101 C2100 1.397 . S
C2101 C2102 1.334 . S
C2102 H2073 0.950 . S
C2102 C2101 1.334 . S
C2102 C2103 1.287 . S
C2103 C2102 1.287 . S
C2103 C2104 1.524 . S
C2103 H2106 0.999 . S
C2104 H2074 0.950 . S
C2104 C2103 1.524 . S
C2104 C2105 1.415 . S
C2105 H2075 0.950 . S
C2105 C2100 1.363 . S
C2105 C2104 1.415 . S
H2106 C2103 0.999 . S
H2107 C2088 0.913 . S
H2108 C2126 0.951 . S
H2109 C2128 0.951 . S
H2110 C2130 0.950 . S
H2111 C2131 0.950 . S
H2112 C2133 0.950 . S
H2113 C2136 0.950 1_554 S
H2114 C2137 0.950 1_554 S
H2115 C2139 0.950 . S
H2116 C2140 0.950 . S
H2117 C2141 0.951 . S
H2118 C2143 0.951 . S
H2119 C2145 0.950 . S
H2120 C2146 0.950 . S
H2121 C2148 0.950 . S
H2122 C2151 0.950 1_556 S
H2123 C2152 0.950 1_556 S
H2124 C2154 0.950 . S
H2125 C2155 0.950 . S
C2126 H2108 0.951 . S
C2126 C2127 1.366 . S
C2126 C2128 1.388 . S
C2127 C2126 1.366 . S
C2127 C2131 1.385 . S
C2128 H2109 0.951 . S
C2128 C2126 1.388 . S
C2128 C2129 1.366 . S
C2129 C2128 1.366 . S
C2129 C2130 1.414 . S
C2129 C2132 1.499 . S
C2130 H2110 0.950 . S
C2130 C2129 1.414 . S
C2130 C2131 1.374 . S
C2131 H2111 0.950 . S
C2131 C2127 1.385 . S
C2131 C2130 1.374 . S
C2132 C2129 1.499 . S
C2132 C2133 1.373 1_455 S
C2132 C2134 1.389 1_554 S
C2133 H2112 0.950 . S
C2133 C2132 1.373 1_655 S
C2133 C2149 1.377 . S
C2134 C2132 1.389 1_556 S
C2134 C2135 1.524 . S
C2134 C2148 1.377 . S
C2135 C2134 1.524 . S
C2135 C2136 1.397 . S
C2135 C2140 1.363 . S
C2136 H2113 0.950 1_556 S
C2136 C2135 1.397 . S
C2136 C2137 1.334 . S
C2137 H2114 0.950 1_556 S
C2137 C2136 1.334 . S
C2137 C2138 1.287 . S
C2138 C2137 1.287 . S
C2138 C2139 1.524 . S
C2138 H2157 0.913 . S
C2139 H2115 0.950 . S
C2139 C2138 1.524 . S
C2139 C2140 1.415 . S
C2140 H2116 0.950 . S
C2140 C2135 1.363 . S
C2140 C2139 1.415 . S
C2141 H2117 0.951 . S
C2141 C2142 1.366 . S
C2141 C2143 1.388 . S
C2142 C2141 1.366 . S
C2142 C2146 1.385 . S
C2143 H2118 0.951 . S
C2143 C2141 1.388 . S
C2143 C2144 1.366 . S
C2144 C2143 1.366 . S
C2144 C2145 1.414 . S
C2144 C2147 1.499 . S
C2145 H2119 0.950 . S
C2145 C2144 1.414 . S
C2145 C2146 1.374 . S
C2146 H2120 0.950 . S
C2146 C2142 1.385 . S
C2146 C2145 1.374 . S
C2147 C2144 1.499 . S
C2147 C2148 1.373 1_655 S
C2147 C2149 1.389 1_556 S
C2148 H2121 0.950 . S
C2148 C2134 1.377 . S
C2148 C2147 1.373 1_455 S
C2149 C2133 1.377 . S
C2149 C2147 1.389 1_554 S
C2149 C2150 1.524 . S
C2150 C2149 1.524 . S
C2150 C2151 1.397 . S
C2150 C2155 1.363 . S
C2151 H2122 0.950 1_554 S
C2151 C2150 1.397 . S
C2151 C2152 1.334 . S
C2152 H2123 0.950 1_554 S
C2152 C2151 1.334 . S
C2152 C2153 1.287 . S
C2153 C2152 1.287 . S
C2153 C2154 1.524 . S
C2153 H2156 0.999 . S
C2154 H2124 0.950 . S
C2154 C2153 1.524 . S
C2154 C2155 1.415 . S
C2155 H2125 0.950 . S
C2155 C2150 1.363 . S
C2155 C2154 1.415 . S
H2156 C2153 0.999 . S
H2157 C2138 0.913 . S
H2158 C2176 0.951 . S
H2159 C2178 0.951 . S
H2160 C2180 0.950 . S
H2161 C2181 0.950 . S
H2162 C2183 0.950 . S
H2163 C2186 0.950 . S
H2164 C2187 0.950 . S
H2165 C2189 0.950 . S
H2166 C2190 0.950 . S
H2167 C2191 0.951 . S
H2168 C2193 0.951 . S
H2169 C2195 0.950 . S
H2170 C2196 0.950 . S
H2171 C2198 0.950 . S
H2172 C2201 0.950 . S
H2173 C2202 0.950 . S
H2174 C2204 0.950 . S
H2175 C2205 0.950 . S
C2176 H2158 0.951 . S
C2176 C2177 1.366 . S
C2176 C2178 1.388 . S
C2177 C2176 1.366 . S
C2177 C2181 1.385 . S
C2178 H2159 0.951 . S
C2178 C2176 1.388 . S
C2178 C2179 1.366 . S
C2179 C2178 1.366 . S
C2179 C2180 1.414 . S
C2179 C2182 1.499 . S
C2180 H2160 0.950 . S
C2180 C2179 1.414 . S
C2180 C2181 1.374 . S
C2181 H2161 0.950 . S
C2181 C2177 1.385 . S
C2181 C2180 1.374 . S
C2182 C2179 1.499 . S
C2182 C2183 1.373 . S
C2182 C2184 1.389 . S
C2183 H2162 0.950 . S
C2183 C2182 1.373 . S
C2183 C2199 1.377 . S
C2184 C2182 1.389 . S
C2184 C2185 1.524 . S
C2184 C2198 1.377 . S
C2185 C2184 1.524 . S
C2185 C2186 1.397 . S
C2185 C2190 1.363 . S
C2186 H2163 0.950 . S
C2186 C2185 1.397 . S
C2186 C2187 1.334 . S
C2187 H2164 0.950 . S
C2187 C2186 1.334 . S
C2187 C2188 1.287 . S
C2188 C2187 1.287 . S
C2188 C2189 1.524 . S
C2188 H2207 0.913 . S
C2189 H2165 0.950 . S
C2189 C2188 1.524 . S
C2189 C2190 1.415 . S
C2190 H2166 0.950 . S
C2190 C2185 1.363 . S
C2190 C2189 1.415 . S
C2191 H2167 0.951 . S
C2191 C2192 1.366 . S
C2191 C2193 1.388 . S
C2192 C2191 1.366 . S
C2192 C2196 1.385 . S
C2193 H2168 0.951 . S
C2193 C2191 1.388 . S
C2193 C2194 1.366 . S
C2194 C2193 1.366 . S
C2194 C2195 1.414 . S
C2194 C2197 1.499 . S
C2195 H2169 0.950 . S
C2195 C2194 1.414 . S
C2195 C2196 1.374 . S
C2196 H2170 0.950 . S
C2196 C2192 1.385 . S
C2196 C2195 1.374 . S
C2197 C2194 1.499 . S
C2197 C2198 1.373 . S
C2197 C2199 1.389 . S
C2198 H2171 0.950 . S
C2198 C2184 1.377 . S
C2198 C2197 1.373 . S
C2199 C2183 1.377 . S
C2199 C2197 1.389 . S
C2199 C2200 1.524 . S
C2200 C2199 1.524 . S
C2200 C2201 1.397 . S
C2200 C2205 1.363 . S
C2201 H2172 0.950 . S
C2201 C2200 1.397 . S
C2201 C2202 1.334 . S
C2202 H2173 0.950 . S
C2202 C2201 1.334 . S
C2202 C2203 1.287 . S
C2203 C2202 1.287 . S
C2203 C2204 1.524 . S
C2203 H2206 0.999 . S
C2204 H2174 0.950 . S
C2204 C2203 1.524 . S
C2204 C2205 1.415 . S
C2205 H2175 0.950 . S
C2205 C2200 1.363 . S
C2205 C2204 1.415 . S
H2206 C2203 0.999 . S
H2207 C2188 0.913 . S
H2208 C2226 0.951 . S
H2209 C2228 0.951 . S
H2210 C2230 0.950 . S
H2211 C2231 0.950 . S
H2212 C2233 0.950 . S
H2213 C2236 0.950 . S
H2214 C2237 0.950 . S
H2215 C2239 0.950 . S
H2216 C2240 0.950 . S
H2217 C2241 0.951 . S
H2218 C2243 0.951 . S
H2219 C2245 0.950 . S
H2220 C2246 0.950 . S
H2221 C2248 0.950 . S
H2222 C2251 0.950 . S
H2223 C2252 0.950 1_556 S
H2224 C2254 0.950 . S
H2225 C2255 0.950 . S
C2226 H2208 0.951 . S
C2226 C2227 1.366 . S
C2226 C2228 1.388 . S
C2227 C2226 1.366 . S
C2227 C2231 1.385 . S
C2228 H2209 0.951 . S
C2228 C2226 1.388 . S
C2228 C2229 1.366 . S
C2229 C2228 1.366 . S
C2229 C2230 1.414 . S
C2229 C2232 1.499 . S
C2230 H2210 0.950 . S
C2230 C2229 1.414 . S
C2230 C2231 1.374 . S
C2231 H2211 0.950 . S
C2231 C2227 1.385 . S
C2231 C2230 1.374 . S
C2232 C2229 1.499 . S
C2232 C2233 1.373 . S
C2232 C2234 1.389 . S
C2233 H2212 0.950 . S
C2233 C2232 1.373 . S
C2233 C2249 1.377 . S
C2234 C2232 1.389 . S
C2234 C2235 1.524 . S
C2234 C2248 1.377 . S
C2235 C2234 1.524 . S
C2235 C2236 1.397 . S
C2235 C2240 1.363 . S
C2236 H2213 0.950 . S
C2236 C2235 1.397 . S
C2236 C2237 1.334 . S
C2237 H2214 0.950 . S
C2237 C2236 1.334 . S
C2237 C2238 1.287 . S
C2238 C2237 1.287 . S
C2238 C2239 1.524 . S
C2238 H2257 0.913 . S
C2239 H2215 0.950 . S
C2239 C2238 1.524 . S
C2239 C2240 1.415 . S
C2240 H2216 0.950 . S
C2240 C2235 1.363 . S
C2240 C2239 1.415 . S
C2241 H2217 0.951 . S
C2241 C2242 1.366 . S
C2241 C2243 1.388 . S
C2242 C2241 1.366 . S
C2242 C2246 1.385 . S
C2243 H2218 0.951 . S
C2243 C2241 1.388 . S
C2243 C2244 1.366 . S
C2244 C2243 1.366 . S
C2244 C2245 1.414 . S
C2244 C2247 1.499 . S
C2245 H2219 0.950 . S
C2245 C2244 1.414 . S
C2245 C2246 1.374 . S
C2246 H2220 0.950 . S
C2246 C2242 1.385 . S
C2246 C2245 1.374 . S
C2247 C2244 1.499 . S
C2247 C2248 1.373 . S
C2247 C2249 1.389 . S
C2248 H2221 0.950 . S
C2248 C2234 1.377 . S
C2248 C2247 1.373 . S
C2249 C2233 1.377 . S
C2249 C2247 1.389 . S
C2249 C2250 1.524 . S
C2250 C2249 1.524 . S
C2250 C2251 1.397 . S
C2250 C2255 1.363 . S
C2251 H2222 0.950 . S
C2251 C2250 1.397 . S
C2251 C2252 1.334 . S
C2252 H2223 0.950 1_554 S
C2252 C2251 1.334 . S
C2252 C2253 1.287 . S
C2253 C2252 1.287 . S
C2253 C2254 1.524 . S
C2253 H2256 0.999 1_554 S
C2254 H2224 0.950 . S
C2254 C2253 1.524 . S
C2254 C2255 1.415 . S
C2255 H2225 0.950 . S
C2255 C2250 1.363 . S
C2255 C2254 1.415 . S
H2256 C2253 0.999 1_556 S
H2257 C2238 0.913 . S
H2258 C2276 0.951 . S
H2259 C2278 0.951 . S
H2260 C2280 0.950 . S
H2261 C2281 0.950 . S
H2262 C2283 0.950 . S
H2263 C2286 0.950 . S
H2264 C2287 0.950 . S
H2265 C2289 0.950 . S
H2266 C2290 0.950 . S
H2267 C2291 0.951 . S
H2268 C2293 0.951 . S
H2269 C2295 0.950 . S
H2270 C2296 0.950 . S
H2271 C2298 0.950 . S
H2272 C2301 0.950 . S
H2273 C2302 0.950 . S
H2274 C2304 0.950 . S
H2275 C2305 0.950 . S
C2276 H2258 0.951 . S
C2276 C2277 1.366 . S
C2276 C2278 1.388 . S
C2277 C2276 1.366 . S
C2277 C2281 1.385 . S
C2278 H2259 0.951 . S
C2278 C2276 1.388 . S
C2278 C2279 1.366 . S
C2279 C2278 1.366 . S
C2279 C2280 1.414 . S
C2279 C2282 1.499 . S
C2280 H2260 0.950 . S
C2280 C2279 1.414 . S
C2280 C2281 1.374 . S
C2281 H2261 0.950 . S
C2281 C2277 1.385 . S
C2281 C2280 1.374 . S
C2282 C2279 1.499 . S
C2282 C2283 1.373 . S
C2282 C2284 1.389 . S
C2283 H2262 0.950 . S
C2283 C2282 1.373 . S
C2283 C2299 1.377 . S
C2284 C2282 1.389 . S
C2284 C2285 1.524 . S
C2284 C2298 1.377 . S
C2285 C2284 1.524 . S
C2285 C2286 1.397 . S
C2285 C2290 1.363 . S
C2286 H2263 0.950 . S
C2286 C2285 1.397 . S
C2286 C2287 1.334 . S
C2287 H2264 0.950 . S
C2287 C2286 1.334 . S
C2287 C2288 1.287 . S
C2288 C2287 1.287 . S
C2288 C2289 1.524 . S
C2288 H2307 0.913 . S
C2289 H2265 0.950 . S
C2289 C2288 1.524 . S
C2289 C2290 1.415 . S
C2290 H2266 0.950 . S
C2290 C2285 1.363 . S
C2290 C2289 1.415 . S
C2291 H2267 0.951 . S
C2291 C2292 1.366 . S
C2291 C2293 1.388 . S
C2292 C2291 1.366 . S
C2292 C2296 1.385 . S
C2293 H2268 0.951 . S
C2293 C2291 1.388 . S
C2293 C2294 1.366 . S
C2294 C2293 1.366 . S
C2294 C2295 1.414 . S
C2294 C2297 1.499 . S
C2295 H2269 0.950 . S
C2295 C2294 1.414 . S
C2295 C2296 1.374 . S
C2296 H2270 0.950 . S
C2296 C2292 1.385 . S
C2296 C2295 1.374 . S
C2297 C2294 1.499 . S
C2297 C2298 1.373 . S
C2297 C2299 1.389 . S
C2298 H2271 0.950 . S
C2298 C2284 1.377 . S
C2298 C2297 1.373 . S
C2299 C2283 1.377 . S
C2299 C2297 1.389 . S
C2299 C2300 1.524 . S
C2300 C2299 1.524 . S
C2300 C2301 1.397 . S
C2300 C2305 1.363 . S
C2301 H2272 0.950 . S
C2301 C2300 1.397 . S
C2301 C2302 1.334 . S
C2302 H2273 0.950 . S
C2302 C2301 1.334 . S
C2302 C2303 1.287 . S
C2303 C2302 1.287 . S
C2303 C2304 1.524 . S
C2303 H2306 0.999 . S
C2304 H2274 0.950 . S
C2304 C2303 1.524 . S
C2304 C2305 1.415 . S
C2305 H2275 0.950 . S
C2305 C2300 1.363 . S
C2305 C2304 1.415 . S
H2306 C2303 0.999 . S
H2307 C2288 0.913 . S
H2308 C2326 0.951 . S
H2309 C2328 0.951 . S
H2310 C2330 0.950 . S
H2311 C2331 0.950 . S
H2312 C2333 0.950 . S
H2313 C2336 0.950 . S
H2314 C2337 0.950 . S
H2315 C2339 0.950 . S
H2316 C2340 0.950 . S
H2317 C2341 0.951 . S
H2318 C2343 0.951 . S
H2319 C2345 0.950 . S
H2320 C2346 0.950 . S
H2321 C2348 0.950 . S
H2322 C2351 0.950 . S
H2323 C2352 0.950 . S
H2324 C2354 0.950 . S
H2325 C2355 0.950 . S
C2326 H2308 0.951 . S
C2326 C2327 1.366 . S
C2326 C2328 1.388 . S
C2327 C2326 1.366 . S
C2327 C2331 1.385 . S
C2328 H2309 0.951 . S
C2328 C2326 1.388 . S
C2328 C2329 1.366 . S
C2329 C2328 1.366 . S
C2329 C2330 1.414 . S
C2329 C2332 1.499 . S
C2330 H2310 0.950 . S
C2330 C2329 1.414 . S
C2330 C2331 1.374 . S
C2331 H2311 0.950 . S
C2331 C2327 1.385 . S
C2331 C2330 1.374 . S
C2332 C2329 1.499 . S
C2332 C2333 1.373 . S
C2332 C2334 1.389 . S
C2333 H2312 0.950 . S
C2333 C2332 1.373 . S
C2333 C2349 1.377 . S
C2334 C2332 1.389 . S
C2334 C2335 1.524 . S
C2334 C2348 1.377 . S
C2335 C2334 1.524 . S
C2335 C2336 1.397 . S
C2335 C2340 1.363 . S
C2336 H2313 0.950 . S
C2336 C2335 1.397 . S
C2336 C2337 1.334 . S
C2337 H2314 0.950 . S
C2337 C2336 1.334 . S
C2337 C2338 1.287 . S
C2338 C2337 1.287 . S
C2338 C2339 1.524 . S
C2338 H2357 0.913 . S
C2339 H2315 0.950 . S
C2339 C2338 1.524 . S
C2339 C2340 1.415 . S
C2340 H2316 0.950 . S
C2340 C2335 1.363 . S
C2340 C2339 1.415 . S
C2341 H2317 0.951 . S
C2341 C2342 1.366 . S
C2341 C2343 1.388 . S
C2342 C2341 1.366 . S
C2342 C2346 1.385 . S
C2343 H2318 0.951 . S
C2343 C2341 1.388 . S
C2343 C2344 1.366 . S
C2344 C2343 1.366 . S
C2344 C2345 1.414 . S
C2344 C2347 1.499 . S
C2345 H2319 0.950 . S
C2345 C2344 1.414 . S
C2345 C2346 1.374 . S
C2346 H2320 0.950 . S
C2346 C2342 1.385 . S
C2346 C2345 1.374 . S
C2347 C2344 1.499 . S
C2347 C2348 1.373 . S
C2347 C2349 1.389 . S
C2348 H2321 0.950 . S
C2348 C2334 1.377 . S
C2348 C2347 1.373 . S
C2349 C2333 1.377 . S
C2349 C2347 1.389 . S
C2349 C2350 1.524 . S
C2350 C2349 1.524 . S
C2350 C2351 1.397 . S
C2350 C2355 1.363 . S
C2351 H2322 0.950 . S
C2351 C2350 1.397 . S
C2351 C2352 1.334 . S
C2352 H2323 0.950 . S
C2352 C2351 1.334 . S
C2352 C2353 1.287 . S
C2353 C2352 1.287 . S
C2353 C2354 1.524 . S
C2353 H2356 0.999 . S
C2354 H2324 0.950 . S
C2354 C2353 1.524 . S
C2354 C2355 1.415 . S
C2355 H2325 0.950 . S
C2355 C2350 1.363 . S
C2355 C2354 1.415 . S
H2356 C2353 0.999 . S
H2357 C2338 0.913 . S
H2358 C2376 0.951 . S
H2359 C2378 0.951 . S
H2360 C2380 0.950 . S
H2361 C2381 0.950 . S
H2362 C2383 0.950 . S
H2363 C2386 0.950 . S
H2364 C2387 0.950 . S
H2365 C2389 0.950 . S
H2366 C2390 0.950 . S
H2367 C2391 0.951 . S
H2368 C2393 0.951 . S
H2369 C2395 0.950 . S
H2370 C2396 0.950 . S
H2371 C2398 0.950 . S
H2372 C2401 0.950 . S
H2373 C2402 0.950 . S
H2374 C2404 0.950 . S
H2375 C2405 0.950 . S
C2376 H2358 0.951 . S
C2376 C2377 1.366 . S
C2376 C2378 1.388 . S
C2377 C2376 1.366 . S
C2377 C2381 1.385 . S
C2378 H2359 0.951 . S
C2378 C2376 1.388 . S
C2378 C2379 1.366 . S
C2379 C2378 1.366 . S
C2379 C2380 1.414 . S
C2379 C2382 1.499 . S
C2380 H2360 0.950 . S
C2380 C2379 1.414 . S
C2380 C2381 1.374 . S
C2381 H2361 0.950 . S
C2381 C2377 1.385 . S
C2381 C2380 1.374 . S
C2382 C2379 1.499 . S
C2382 C2383 1.373 . S
C2382 C2384 1.389 . S
C2383 H2362 0.950 . S
C2383 C2382 1.373 . S
C2383 C2399 1.377 . S
C2384 C2382 1.389 . S
C2384 C2385 1.524 . S
C2384 C2398 1.377 . S
C2385 C2384 1.524 . S
C2385 C2386 1.397 . S
C2385 C2390 1.363 . S
C2386 H2363 0.950 . S
C2386 C2385 1.397 . S
C2386 C2387 1.334 . S
C2387 H2364 0.950 . S
C2387 C2386 1.334 . S
C2387 C2388 1.287 . S
C2388 C2387 1.287 . S
C2388 C2389 1.524 . S
C2388 H2407 0.913 . S
C2389 H2365 0.950 . S
C2389 C2388 1.524 . S
C2389 C2390 1.415 . S
C2390 H2366 0.950 . S
C2390 C2385 1.363 . S
C2390 C2389 1.415 . S
C2391 H2367 0.951 . S
C2391 C2392 1.366 . S
C2391 C2393 1.388 . S
C2392 C2391 1.366 . S
C2392 C2396 1.385 . S
C2393 H2368 0.951 . S
C2393 C2391 1.388 . S
C2393 C2394 1.366 . S
C2394 C2393 1.366 . S
C2394 C2395 1.414 . S
C2394 C2397 1.499 . S
C2395 H2369 0.950 . S
C2395 C2394 1.414 . S
C2395 C2396 1.374 . S
C2396 H2370 0.950 . S
C2396 C2392 1.385 . S
C2396 C2395 1.374 . S
C2397 C2394 1.499 . S
C2397 C2398 1.373 . S
C2397 C2399 1.389 . S
C2398 H2371 0.950 . S
C2398 C2384 1.377 . S
C2398 C2397 1.373 . S
C2399 C2383 1.377 . S
C2399 C2397 1.389 . S
C2399 C2400 1.524 . S
C2400 C2399 1.524 . S
C2400 C2401 1.397 . S
C2400 C2405 1.363 . S
C2401 H2372 0.950 . S
C2401 C2400 1.397 . S
C2401 C2402 1.334 . S
C2402 H2373 0.950 . S
C2402 C2401 1.334 . S
C2402 C2403 1.287 . S
C2403 C2402 1.287 . S
C2403 C2404 1.524 . S
C2403 H2406 0.999 . S
C2404 H2374 0.950 . S
C2404 C2403 1.524 . S
C2404 C2405 1.415 . S
C2405 H2375 0.950 . S
C2405 C2400 1.363 . S
C2405 C2404 1.415 . S
H2406 C2403 0.999 . S
H2407 C2388 0.913 . S
H2408 C2426 0.951 . S
H2409 C2428 0.951 . S
H2410 C2430 0.950 . S
H2411 C2431 0.950 . S
H2412 C2433 0.950 . S
H2413 C2436 0.950 . S
H2414 C2437 0.950 . S
H2415 C2439 0.950 . S
H2416 C2440 0.950 . S
H2417 C2441 0.951 . S
H2418 C2443 0.951 . S
H2419 C2445 0.950 . S
H2420 C2446 0.950 . S
H2421 C2448 0.950 . S
H2422 C2451 0.950 . S
H2423 C2452 0.950 . S
H2424 C2454 0.950 . S
H2425 C2455 0.950 . S
C2426 H2408 0.951 . S
C2426 C2427 1.366 . S
C2426 C2428 1.388 . S
C2427 C2426 1.366 . S
C2427 C2431 1.385 . S
C2428 H2409 0.951 . S
C2428 C2426 1.388 . S
C2428 C2429 1.366 . S
C2429 C2428 1.366 . S
C2429 C2430 1.414 . S
C2429 C2432 1.499 . S
C2430 H2410 0.950 . S
C2430 C2429 1.414 . S
C2430 C2431 1.374 . S
C2431 H2411 0.950 . S
C2431 C2427 1.385 . S
C2431 C2430 1.374 . S
C2432 C2429 1.499 . S
C2432 C2433 1.373 . S
C2432 C2434 1.389 . S
C2433 H2412 0.950 . S
C2433 C2432 1.373 . S
C2433 C2449 1.377 . S
C2434 C2432 1.389 . S
C2434 C2435 1.524 . S
C2434 C2448 1.377 . S
C2435 C2434 1.524 . S
C2435 C2436 1.397 . S
C2435 C2440 1.363 . S
C2436 H2413 0.950 . S
C2436 C2435 1.397 . S
C2436 C2437 1.334 . S
C2437 H2414 0.950 . S
C2437 C2436 1.334 . S
C2437 C2438 1.287 . S
C2438 C2437 1.287 . S
C2438 C2439 1.524 . S
C2438 H2457 0.913 . S
C2439 H2415 0.950 . S
C2439 C2438 1.524 . S
C2439 C2440 1.415 . S
C2440 H2416 0.950 . S
C2440 C2435 1.363 . S
C2440 C2439 1.415 . S
C2441 H2417 0.951 . S
C2441 C2442 1.366 . S
C2441 C2443 1.388 . S
C2442 C2441 1.366 . S
C2442 C2446 1.385 . S
C2443 H2418 0.951 . S
C2443 C2441 1.388 . S
C2443 C2444 1.366 . S
C2444 C2443 1.366 . S
C2444 C2445 1.414 . S
C2444 C2447 1.499 . S
C2445 H2419 0.950 . S
C2445 C2444 1.414 . S
C2445 C2446 1.374 . S
C2446 H2420 0.950 . S
C2446 C2442 1.385 . S
C2446 C2445 1.374 . S
C2447 C2444 1.499 . S
C2447 C2448 1.373 . S
C2447 C2449 1.389 . S
C2448 H2421 0.950 . S
C2448 C2434 1.377 . S
C2448 C2447 1.373 . S
C2449 C2433 1.377 . S
C2449 C2447 1.389 . S
C2449 C2450 1.524 . S
C2450 C2449 1.524 . S
C2450 C2451 1.397 . S
C2450 C2455 1.363 . S
C2451 H2422 0.950 . S
C2451 C2450 1.397 . S
C2451 C2452 1.334 . S
C2452 H2423 0.950 . S
C2452 C2451 1.334 . S
C2452 C2453 1.287 . S
C2453 C2452 1.287 . S
C2453 C2454 1.524 . S
C2453 H2456 0.999 . S
C2454 H2424 0.950 . S
C2454 C2453 1.524 . S
C2454 C2455 1.415 . S
C2455 H2425 0.950 . S
C2455 C2450 1.363 . S
C2455 C2454 1.415 . S
H2456 C2453 0.999 . S
H2457 C2438 0.913 . S
H2458 C2476 0.951 . S
H2459 C2478 0.951 . S
H2460 C2480 0.950 . S
H2461 C2481 0.950 . S
H2462 C2483 0.950 . S
H2463 C2486 0.950 . S
H2464 C2487 0.950 . S
H2465 C2489 0.950 . S
H2466 C2490 0.950 . S
H2467 C2491 0.951 . S
H2468 C2493 0.951 . S
H2469 C2495 0.950 . S
H2470 C2496 0.950 . S
H2471 C2498 0.950 . S
H2472 C2501 0.950 . S
H2473 C2502 0.950 . S
H2474 C2504 0.950 . S
H2475 C2505 0.950 . S
C2476 H2458 0.951 . S
C2476 C2477 1.366 . S
C2476 C2478 1.388 . S
C2477 C2476 1.366 . S
C2477 C2481 1.385 . S
C2478 H2459 0.951 . S
C2478 C2476 1.388 . S
C2478 C2479 1.366 . S
C2479 C2478 1.366 . S
C2479 C2480 1.414 . S
C2479 C2482 1.499 . S
C2480 H2460 0.950 . S
C2480 C2479 1.414 . S
C2480 C2481 1.374 . S
C2481 H2461 0.950 . S
C2481 C2477 1.385 . S
C2481 C2480 1.374 . S
C2482 C2479 1.499 . S
C2482 C2483 1.373 . S
C2482 C2484 1.389 . S
C2483 H2462 0.950 . S
C2483 C2482 1.373 . S
C2483 C2499 1.377 . S
C2484 C2482 1.389 . S
C2484 C2485 1.524 . S
C2484 C2498 1.377 . S
C2485 C2484 1.524 . S
C2485 C2486 1.397 . S
C2485 C2490 1.363 . S
C2486 H2463 0.950 . S
C2486 C2485 1.397 . S
C2486 C2487 1.334 . S
C2487 H2464 0.950 . S
C2487 C2486 1.334 . S
C2487 C2488 1.287 . S
C2488 C2487 1.287 . S
C2488 C2489 1.524 . S
C2488 H2507 0.913 . S
C2489 H2465 0.950 . S
C2489 C2488 1.524 . S
C2489 C2490 1.415 . S
C2490 H2466 0.950 . S
C2490 C2485 1.363 . S
C2490 C2489 1.415 . S
C2491 H2467 0.951 . S
C2491 C2492 1.366 . S
C2491 C2493 1.388 . S
C2492 C2491 1.366 . S
C2492 C2496 1.385 . S
C2493 H2468 0.951 . S
C2493 C2491 1.388 . S
C2493 C2494 1.366 . S
C2494 C2493 1.366 . S
C2494 C2495 1.414 . S
C2494 C2497 1.499 . S
C2495 H2469 0.950 . S
C2495 C2494 1.414 . S
C2495 C2496 1.374 . S
C2496 H2470 0.950 . S
C2496 C2492 1.385 . S
C2496 C2495 1.374 . S
C2497 C2494 1.499 . S
C2497 C2498 1.373 . S
C2497 C2499 1.389 . S
C2498 H2471 0.950 . S
C2498 C2484 1.377 . S
C2498 C2497 1.373 . S
C2499 C2483 1.377 . S
C2499 C2497 1.389 . S
C2499 C2500 1.524 . S
C2500 C2499 1.524 . S
C2500 C2501 1.397 . S
C2500 C2505 1.363 . S
C2501 H2472 0.950 . S
C2501 C2500 1.397 . S
C2501 C2502 1.334 . S
C2502 H2473 0.950 . S
C2502 C2501 1.334 . S
C2502 C2503 1.287 . S
C2503 C2502 1.287 . S
C2503 C2504 1.524 . S
C2503 H2506 0.999 . S
C2504 H2474 0.950 . S
C2504 C2503 1.524 . S
C2504 C2505 1.415 . S
C2505 H2475 0.950 . S
C2505 C2500 1.363 . S
C2505 C2504 1.415 . S
H2506 C2503 0.999 . S
H2507 C2488 0.913 . S
H2508 C2526 0.951 . S
H2509 C2528 0.951 . S
H2510 C2530 0.950 . S
H2511 C2531 0.950 . S
H2512 C2533 0.950 . S
H2513 C2536 0.950 . S
H2514 C2537 0.950 . S
H2515 C2539 0.950 . S
H2516 C2540 0.950 . S
H2517 C2541 0.951 . S
H2518 C2543 0.951 . S
H2519 C2545 0.950 . S
H2520 C2546 0.950 . S
H2521 C2548 0.950 . S
H2522 C2551 0.950 . S
H2523 C2552 0.951 . S
H2524 C2554 0.950 . S
H2525 C2555 0.950 . S
C2526 H2508 0.951 . S
C2526 C2527 1.366 . S
C2526 C2528 1.388 . S
C2527 C2526 1.366 . S
C2527 C2531 1.385 . S
C2528 H2509 0.951 . S
C2528 C2526 1.388 . S
C2528 C2529 1.366 . S
C2529 C2528 1.366 . S
C2529 C2530 1.414 . S
C2529 C2532 1.499 . S
C2530 H2510 0.950 . S
C2530 C2529 1.414 . S
C2530 C2531 1.374 . S
C2531 H2511 0.950 . S
C2531 C2527 1.385 . S
C2531 C2530 1.374 . S
C2532 C2529 1.499 . S
C2532 C2533 1.373 . S
C2532 C2534 1.389 . S
C2533 H2512 0.950 . S
C2533 C2532 1.373 . S
C2533 C2549 1.377 . S
C2534 C2532 1.389 . S
C2534 C2535 1.524 . S
C2534 C2548 1.377 . S
C2535 C2534 1.524 . S
C2535 C2536 1.397 . S
C2535 C2540 1.363 . S
C2536 H2513 0.950 . S
C2536 C2535 1.397 . S
C2536 C2537 1.334 . S
C2537 H2514 0.950 . S
C2537 C2536 1.334 . S
C2537 C2538 1.287 . S
C2538 C2537 1.287 . S
C2538 C2539 1.524 . S
C2538 H2557 0.913 . S
C2539 H2515 0.950 . S
C2539 C2538 1.524 . S
C2539 C2540 1.415 . S
C2540 H2516 0.950 . S
C2540 C2535 1.363 . S
C2540 C2539 1.415 . S
C2541 H2517 0.951 . S
C2541 C2542 1.366 . S
C2541 C2543 1.388 . S
C2542 C2541 1.366 . S
C2542 C2546 1.385 . S
C2543 H2518 0.951 . S
C2543 C2541 1.388 . S
C2543 C2544 1.366 . S
C2544 C2543 1.366 . S
C2544 C2545 1.414 . S
C2544 C2547 1.499 . S
C2545 H2519 0.950 . S
C2545 C2544 1.414 . S
C2545 C2546 1.374 . S
C2546 H2520 0.950 . S
C2546 C2542 1.385 . S
C2546 C2545 1.374 . S
C2547 C2544 1.499 . S
C2547 C2548 1.373 . S
C2547 C2549 1.389 . S
C2548 H2521 0.950 . S
C2548 C2534 1.377 . S
C2548 C2547 1.373 . S
C2549 C2533 1.377 . S
C2549 C2547 1.389 . S
C2549 C2550 1.524 . S
C2550 C2549 1.524 . S
C2550 C2551 1.397 . S
C2550 C2555 1.363 . S
C2551 H2522 0.950 . S
C2551 C2550 1.397 . S
C2551 C2552 1.333 1_556 S
C2552 H2523 0.951 . S
C2552 C2551 1.333 1_554 S
C2552 C2553 1.287 . S
C2553 C2552 1.287 . S
C2553 C2554 1.524 1_554 S
C2553 H2556 0.999 . S
C2554 H2524 0.950 . S
C2554 C2553 1.524 1_556 S
C2554 C2555 1.415 . S
C2555 H2525 0.950 . S
C2555 C2550 1.363 . S
C2555 C2554 1.415 . S
H2556 C2553 0.999 . S
H2557 C2538 0.913 . S
H2558 C2576 0.951 . S
H2559 C2578 0.951 . S
H2560 C2580 0.950 . S
H2561 C2581 0.950 . S
H2562 C2583 0.950 . S
H2563 C2586 0.950 . S
H2564 C2587 0.950 . S
H2565 C2589 0.953 . S
H2566 C2590 0.950 . S
H2567 C2591 0.951 . S
H2568 C2593 0.951 . S
H2569 C2595 0.950 . S
H2570 C2596 0.950 . S
H2571 C2598 0.950 . S
H2572 C2601 0.950 . S
H2573 C2602 0.950 . S
H2574 C2604 0.950 . S
H2575 C2605 0.950 . S
C2576 H2558 0.951 . S
C2576 C2577 1.366 . S
C2576 C2578 1.388 . S
C2577 C2576 1.366 . S
C2577 C2581 1.385 . S
C2578 H2559 0.951 . S
C2578 C2576 1.388 . S
C2578 C2579 1.366 . S
C2579 C2578 1.366 . S
C2579 C2580 1.414 . S
C2579 C2582 1.499 . S
C2580 H2560 0.950 . S
C2580 C2579 1.414 . S
C2580 C2581 1.374 . S
C2581 H2561 0.950 . S
C2581 C2577 1.385 . S
C2581 C2580 1.374 . S
C2582 C2579 1.499 . S
C2582 C2583 1.373 . S
C2582 C2584 1.389 . S
C2583 H2562 0.950 . S
C2583 C2582 1.373 . S
C2583 C2599 1.377 . S
C2584 C2582 1.389 . S
C2584 C2585 1.524 . S
C2584 C2598 1.377 . S
C2585 C2584 1.524 . S
C2585 C2586 1.397 . S
C2585 C2590 1.363 . S
C2586 H2563 0.950 . S
C2586 C2585 1.397 . S
C2586 C2587 1.334 1_554 S
C2587 H2564 0.950 . S
C2587 C2586 1.334 1_556 S
C2587 C2588 1.287 . S
C2588 C2587 1.287 . S
C2588 C2589 1.524 1_556 S
C2588 H2607 0.913 . S
C2589 H2565 0.953 . S
C2589 C2588 1.524 1_554 S
C2589 C2590 1.415 . S
C2590 H2566 0.950 . S
C2590 C2585 1.363 . S
C2590 C2589 1.415 . S
C2591 H2567 0.951 . S
C2591 C2592 1.366 . S
C2591 C2593 1.388 . S
C2592 C2591 1.366 . S
C2592 C2596 1.385 . S
C2593 H2568 0.951 . S
C2593 C2591 1.388 . S
C2593 C2594 1.366 . S
C2594 C2593 1.366 . S
C2594 C2595 1.414 . S
C2594 C2597 1.499 . S
C2595 H2569 0.950 . S
C2595 C2594 1.414 . S
C2595 C2596 1.374 . S
C2596 H2570 0.950 . S
C2596 C2592 1.385 . S
C2596 C2595 1.374 . S
C2597 C2594 1.499 . S
C2597 C2598 1.373 . S
C2597 C2599 1.389 . S
C2598 H2571 0.950 . S
C2598 C2584 1.377 . S
C2598 C2597 1.373 . S
C2599 C2583 1.377 . S
C2599 C2597 1.389 . S
C2599 C2600 1.524 . S
C2600 C2599 1.524 . S
C2600 C2601 1.397 . S
C2600 C2605 1.363 . S
C2601 H2572 0.950 . S
C2601 C2600 1.397 . S
C2601 C2602 1.334 . S
C2602 H2573 0.950 . S
C2602 C2601 1.334 . S
C2602 C2603 1.287 . S
C2603 C2602 1.287 . S
C2603 C2604 1.524 . S
C2603 H2606 0.999 . S
C2604 H2574 0.950 . S
C2604 C2603 1.524 . S
C2604 C2605 1.415 . S
C2605 H2575 0.950 . S
C2605 C2600 1.363 . S
C2605 C2604 1.415 . S
H2606 C2603 0.999 . S
H2607 C2588 0.913 . S
H2608 C2626 0.951 . S
H2609 C2628 0.951 . S
H2610 C2630 0.950 . S
H2611 C2631 0.950 . S
H2612 C2633 0.950 . S
H2613 C2636 0.950 . S
H2614 C2637 0.950 . S
H2615 C2639 0.950 . S
H2616 C2640 0.950 . S
H2617 C2641 0.951 . S
H2618 C2643 0.951 . S
H2619 C2645 0.950 . S
H2620 C2646 0.950 . S
H2621 C2648 0.950 . S
H2622 C2651 0.950 . S
H2623 C2652 0.950 . S
H2624 C2654 0.950 . S
H2625 C2655 0.950 . S
C2626 H2608 0.951 . S
C2626 C2627 1.366 . S
C2626 C2628 1.388 . S
C2627 C2626 1.366 . S
C2627 C2631 1.385 . S
C2628 H2609 0.951 . S
C2628 C2626 1.388 . S
C2628 C2629 1.366 . S
C2629 C2628 1.366 . S
C2629 C2630 1.414 . S
C2629 C2632 1.499 . S
C2630 H2610 0.950 . S
C2630 C2629 1.414 . S
C2630 C2631 1.374 . S
C2631 H2611 0.950 . S
C2631 C2627 1.385 . S
C2631 C2630 1.374 . S
C2632 C2629 1.499 . S
C2632 C2633 1.373 . S
C2632 C2634 1.389 . S
C2633 H2612 0.950 . S
C2633 C2632 1.373 . S
C2633 C2649 1.377 . S
C2634 C2632 1.389 . S
C2634 C2635 1.524 . S
C2634 C2648 1.377 . S
C2635 C2634 1.524 . S
C2635 C2636 1.397 . S
C2635 C2640 1.363 . S
C2636 H2613 0.950 . S
C2636 C2635 1.397 . S
C2636 C2637 1.334 . S
C2637 H2614 0.950 . S
C2637 C2636 1.334 . S
C2637 C2638 1.287 . S
C2638 C2637 1.287 . S
C2638 C2639 1.524 . S
C2638 H2657 0.913 . S
C2639 H2615 0.950 . S
C2639 C2638 1.524 . S
C2639 C2640 1.415 . S
C2640 H2616 0.950 . S
C2640 C2635 1.363 . S
C2640 C2639 1.415 . S
C2641 H2617 0.951 . S
C2641 C2642 1.366 . S
C2641 C2643 1.388 . S
C2642 C2641 1.366 . S
C2642 C2646 1.385 . S
C2643 H2618 0.951 . S
C2643 C2641 1.388 . S
C2643 C2644 1.366 . S
C2644 C2643 1.366 . S
C2644 C2645 1.414 . S
C2644 C2647 1.499 . S
C2645 H2619 0.950 . S
C2645 C2644 1.414 . S
C2645 C2646 1.374 . S
C2646 H2620 0.950 . S
C2646 C2642 1.385 . S
C2646 C2645 1.374 . S
C2647 C2644 1.499 . S
C2647 C2648 1.373 . S
C2647 C2649 1.389 . S
C2648 H2621 0.950 . S
C2648 C2634 1.377 . S
C2648 C2647 1.373 . S
C2649 C2633 1.377 . S
C2649 C2647 1.389 . S
C2649 C2650 1.524 . S
C2650 C2649 1.524 . S
C2650 C2651 1.397 . S
C2650 C2655 1.363 . S
C2651 H2622 0.950 . S
C2651 C2650 1.397 . S
C2651 C2652 1.334 . S
C2652 H2623 0.950 . S
C2652 C2651 1.334 . S
C2652 C2653 1.287 . S
C2653 C2652 1.287 . S
C2653 C2654 1.524 . S
C2653 H2656 0.999 . S
C2654 H2624 0.950 . S
C2654 C2653 1.524 . S
C2654 C2655 1.415 . S
C2655 H2625 0.950 . S
C2655 C2650 1.363 . S
C2655 C2654 1.415 . S
H2656 C2653 0.999 . S
H2657 C2638 0.913 . S
H2658 C2676 0.951 . S
H2659 C2678 0.951 . S
H2660 C2680 0.950 . S
H2661 C2681 0.950 . S
H2662 C2683 0.950 . S
H2663 C2686 0.950 . S
H2664 C2687 0.950 . S
H2665 C2689 0.950 . S
H2666 C2690 0.950 . S
H2667 C2691 0.951 . S
H2668 C2693 0.951 . S
H2669 C2695 0.950 . S
H2670 C2696 0.950 . S
H2671 C2698 0.950 . S
H2672 C2701 0.950 . S
H2673 C2702 0.950 . S
H2674 C2704 0.950 . S
H2675 C2705 0.950 . S
C2676 H2658 0.951 . S
C2676 C2677 1.366 . S
C2676 C2678 1.388 . S
C2677 C2676 1.366 . S
C2677 C2681 1.385 . S
C2678 H2659 0.951 . S
C2678 C2676 1.388 . S
C2678 C2679 1.366 . S
C2679 C2678 1.366 . S
C2679 C2680 1.414 . S
C2679 C2682 1.499 . S
C2680 H2660 0.950 . S
C2680 C2679 1.414 . S
C2680 C2681 1.374 . S
C2681 H2661 0.950 . S
C2681 C2677 1.385 . S
C2681 C2680 1.374 . S
C2682 C2679 1.499 . S
C2682 C2683 1.373 . S
C2682 C2684 1.389 . S
C2683 H2662 0.950 . S
C2683 C2682 1.373 . S
C2683 C2699 1.377 . S
C2684 C2682 1.389 . S
C2684 C2685 1.524 . S
C2684 C2698 1.377 . S
C2685 C2684 1.524 . S
C2685 C2686 1.397 . S
C2685 C2690 1.363 . S
C2686 H2663 0.950 . S
C2686 C2685 1.397 . S
C2686 C2687 1.334 . S
C2687 H2664 0.950 . S
C2687 C2686 1.334 . S
C2687 C2688 1.287 . S
C2688 C2687 1.287 . S
C2688 C2689 1.524 . S
C2688 H2707 0.913 . S
C2689 H2665 0.950 . S
C2689 C2688 1.524 . S
C2689 C2690 1.415 . S
C2690 H2666 0.950 . S
C2690 C2685 1.363 . S
C2690 C2689 1.415 . S
C2691 H2667 0.951 . S
C2691 C2692 1.366 . S
C2691 C2693 1.388 . S
C2692 C2691 1.366 . S
C2692 C2696 1.385 . S
C2693 H2668 0.951 . S
C2693 C2691 1.388 . S
C2693 C2694 1.366 . S
C2694 C2693 1.366 . S
C2694 C2695 1.414 . S
C2694 C2697 1.499 . S
C2695 H2669 0.950 . S
C2695 C2694 1.414 . S
C2695 C2696 1.374 . S
C2696 H2670 0.950 . S
C2696 C2692 1.385 . S
C2696 C2695 1.374 . S
C2697 C2694 1.499 . S
C2697 C2698 1.373 . S
C2697 C2699 1.389 . S
C2698 H2671 0.950 . S
C2698 C2684 1.377 . S
C2698 C2697 1.373 . S
C2699 C2683 1.377 . S
C2699 C2697 1.389 . S
C2699 C2700 1.524 . S
C2700 C2699 1.524 . S
C2700 C2701 1.397 . S
C2700 C2705 1.363 . S
C2701 H2672 0.950 . S
C2701 C2700 1.397 . S
C2701 C2702 1.334 . S
C2702 H2673 0.950 . S
C2702 C2701 1.334 . S
C2702 C2703 1.287 . S
C2703 C2702 1.287 . S
C2703 C2704 1.524 . S
C2703 H2706 0.999 . S
C2704 H2674 0.950 . S
C2704 C2703 1.524 . S
C2704 C2705 1.415 . S
C2705 H2675 0.950 . S
C2705 C2700 1.363 . S
C2705 C2704 1.415 . S
H2706 C2703 0.999 . S
H2707 C2688 0.913 . S
H2708 C2726 0.951 . S
H2709 C2728 0.951 . S
H2710 C2730 0.950 . S
H2711 C2731 0.950 . S
H2712 C2733 0.950 . S
H2713 C2736 0.950 . S
H2714 C2737 0.950 . S
H2715 C2739 0.950 . S
H2716 C2740 0.950 . S
H2717 C2741 0.951 . S
H2718 C2743 0.951 . S
H2719 C2745 0.950 . S
H2720 C2746 0.950 . S
H2721 C2748 0.950 . S
H2722 C2751 0.950 . S
H2723 C2752 0.950 . S
H2724 C2754 0.950 . S
H2725 C2755 0.950 . S
C2726 H2708 0.951 . S
C2726 C2727 1.366 . S
C2726 C2728 1.388 . S
C2727 C2726 1.366 . S
C2727 C2731 1.385 . S
C2728 H2709 0.951 . S
C2728 C2726 1.388 . S
C2728 C2729 1.366 . S
C2729 C2728 1.366 . S
C2729 C2730 1.414 . S
C2729 C2732 1.499 . S
C2730 H2710 0.950 . S
C2730 C2729 1.414 . S
C2730 C2731 1.374 . S
C2731 H2711 0.950 . S
C2731 C2727 1.385 . S
C2731 C2730 1.374 . S
C2732 C2729 1.499 . S
C2732 C2733 1.373 . S
C2732 C2734 1.389 . S
C2733 H2712 0.950 . S
C2733 C2732 1.373 . S
C2733 C2749 1.377 . S
C2734 C2732 1.389 . S
C2734 C2735 1.524 . S
C2734 C2748 1.377 . S
C2735 C2734 1.524 . S
C2735 C2736 1.397 . S
C2735 C2740 1.363 . S
C2736 H2713 0.950 . S
C2736 C2735 1.397 . S
C2736 C2737 1.334 . S
C2737 H2714 0.950 . S
C2737 C2736 1.334 . S
C2737 C2738 1.287 . S
C2738 C2737 1.287 . S
C2738 C2739 1.524 . S
C2738 H2757 0.913 . S
C2739 H2715 0.950 . S
C2739 C2738 1.524 . S
C2739 C2740 1.415 . S
C2740 H2716 0.950 . S
C2740 C2735 1.363 . S
C2740 C2739 1.415 . S
C2741 H2717 0.951 . S
C2741 C2742 1.366 . S
C2741 C2743 1.388 . S
C2742 C2741 1.366 . S
C2742 C2746 1.385 . S
C2743 H2718 0.951 . S
C2743 C2741 1.388 . S
C2743 C2744 1.366 . S
C2744 C2743 1.366 . S
C2744 C2745 1.414 . S
C2744 C2747 1.499 . S
C2745 H2719 0.950 . S
C2745 C2744 1.414 . S
C2745 C2746 1.374 . S
C2746 H2720 0.950 . S
C2746 C2742 1.385 . S
C2746 C2745 1.374 . S
C2747 C2744 1.499 . S
C2747 C2748 1.373 . S
C2747 C2749 1.389 . S
C2748 H2721 0.950 . S
C2748 C2734 1.377 . S
C2748 C2747 1.373 . S
C2749 C2733 1.377 . S
C2749 C2747 1.389 . S
C2749 C2750 1.524 . S
C2750 C2749 1.524 . S
C2750 C2751 1.397 . S
C2750 C2755 1.363 . S
C2751 H2722 0.950 . S
C2751 C2750 1.397 . S
C2751 C2752 1.334 . S
C2752 H2723 0.950 . S
C2752 C2751 1.334 . S
C2752 C2753 1.287 . S
C2753 C2752 1.287 . S
C2753 C2754 1.524 . S
C2753 H2756 0.999 . S
C2754 H2724 0.950 . S
C2754 C2753 1.524 . S
C2754 C2755 1.415 . S
C2755 H2725 0.950 . S
C2755 C2750 1.363 . S
C2755 C2754 1.415 . S
H2756 C2753 0.999 . S
H2757 C2738 0.913 . S
H2758 C2776 0.951 . S
H2759 C2778 0.951 . S
H2760 C2780 0.950 . S
H2761 C2781 0.950 . S
H2762 C2783 0.950 . S
H2763 C2786 0.950 . S
H2764 C2787 0.950 . S
H2765 C2789 0.950 . S
H2766 C2790 0.950 . S
H2767 C2791 0.951 . S
H2768 C2793 0.951 . S
H2769 C2795 0.950 . S
H2770 C2796 0.950 . S
H2771 C2798 0.950 . S
H2772 C2801 0.950 . S
H2773 C2802 0.950 . S
H2774 C2804 0.950 . S
H2775 C2805 0.950 . S
C2776 H2758 0.951 . S
C2776 C2777 1.366 . S
C2776 C2778 1.388 . S
C2777 C2776 1.366 . S
C2777 C2781 1.385 . S
C2778 H2759 0.951 . S
C2778 C2776 1.388 . S
C2778 C2779 1.366 . S
C2779 C2778 1.366 . S
C2779 C2780 1.414 . S
C2779 C2782 1.499 . S
C2780 H2760 0.950 . S
C2780 C2779 1.414 . S
C2780 C2781 1.374 . S
C2781 H2761 0.950 . S
C2781 C2777 1.385 . S
C2781 C2780 1.374 . S
C2782 C2779 1.499 . S
C2782 C2783 1.373 . S
C2782 C2784 1.389 . S
C2783 H2762 0.950 . S
C2783 C2782 1.373 . S
C2783 C2799 1.377 . S
C2784 C2782 1.389 . S
C2784 C2785 1.524 . S
C2784 C2798 1.377 . S
C2785 C2784 1.524 . S
C2785 C2786 1.397 . S
C2785 C2790 1.363 . S
C2786 H2763 0.950 . S
C2786 C2785 1.397 . S
C2786 C2787 1.334 . S
C2787 H2764 0.950 . S
C2787 C2786 1.334 . S
C2787 C2788 1.287 . S
C2788 C2787 1.287 . S
C2788 C2789 1.524 . S
C2788 H2807 0.913 . S
C2789 H2765 0.950 . S
C2789 C2788 1.524 . S
C2789 C2790 1.415 . S
C2790 H2766 0.950 . S
C2790 C2785 1.363 . S
C2790 C2789 1.415 . S
C2791 H2767 0.951 . S
C2791 C2792 1.366 . S
C2791 C2793 1.388 . S
C2792 C2791 1.366 . S
C2792 C2796 1.385 . S
C2793 H2768 0.951 . S
C2793 C2791 1.388 . S
C2793 C2794 1.366 . S
C2794 C2793 1.366 . S
C2794 C2795 1.414 . S
C2794 C2797 1.499 . S
C2795 H2769 0.950 . S
C2795 C2794 1.414 . S
C2795 C2796 1.374 . S
C2796 H2770 0.950 . S
C2796 C2792 1.385 . S
C2796 C2795 1.374 . S
C2797 C2794 1.499 . S
C2797 C2798 1.373 . S
C2797 C2799 1.389 . S
C2798 H2771 0.950 . S
C2798 C2784 1.377 . S
C2798 C2797 1.373 . S
C2799 C2783 1.377 . S
C2799 C2797 1.389 . S
C2799 C2800 1.524 . S
C2800 C2799 1.524 . S
C2800 C2801 1.397 . S
C2800 C2805 1.363 . S
C2801 H2772 0.950 . S
C2801 C2800 1.397 . S
C2801 C2802 1.334 . S
C2802 H2773 0.950 . S
C2802 C2801 1.334 . S
C2802 C2803 1.287 . S
C2803 C2802 1.287 . S
C2803 C2804 1.524 . S
C2803 H2806 0.999 . S
C2804 H2774 0.950 . S
C2804 C2803 1.524 . S
C2804 C2805 1.415 . S
C2805 H2775 0.950 . S
C2805 C2800 1.363 . S
C2805 C2804 1.415 . S
H2806 C2803 0.999 . S
H2807 C2788 0.913 . S
H2808 C2826 0.951 . S
H2809 C2828 0.951 . S
H2810 C2830 0.950 . S
H2811 C2831 0.950 . S
H2812 C2833 0.950 . S
H2813 C2836 0.950 . S
H2814 C2837 0.950 . S
H2815 C2839 0.950 . S
H2816 C2840 0.950 . S
H2817 C2841 0.951 . S
H2818 C2843 0.951 . S
H2819 C2845 0.950 . S
H2820 C2846 0.950 . S
H2821 C2848 0.950 . S
H2822 C2851 0.950 . S
H2823 C2852 0.950 . S
H2824 C2854 0.950 . S
H2825 C2855 0.950 . S
C2826 H2808 0.951 . S
C2826 C2827 1.366 . S
C2826 C2828 1.388 . S
C2827 C2826 1.366 . S
C2827 C2831 1.385 . S
C2828 H2809 0.951 . S
C2828 C2826 1.388 . S
C2828 C2829 1.366 . S
C2829 C2828 1.366 . S
C2829 C2830 1.414 . S
C2829 C2832 1.499 . S
C2830 H2810 0.950 . S
C2830 C2829 1.414 . S
C2830 C2831 1.374 . S
C2831 H2811 0.950 . S
C2831 C2827 1.385 . S
C2831 C2830 1.374 . S
C2832 C2829 1.499 . S
C2832 C2833 1.373 . S
C2832 C2834 1.389 . S
C2833 H2812 0.950 . S
C2833 C2832 1.373 . S
C2833 C2849 1.377 . S
C2834 C2832 1.389 . S
C2834 C2835 1.524 . S
C2834 C2848 1.377 . S
C2835 C2834 1.524 . S
C2835 C2836 1.397 . S
C2835 C2840 1.363 . S
C2836 H2813 0.950 . S
C2836 C2835 1.397 . S
C2836 C2837 1.334 . S
C2837 H2814 0.950 . S
C2837 C2836 1.334 . S
C2837 C2838 1.287 . S
C2838 C2837 1.287 . S
C2838 C2839 1.524 . S
C2838 H2857 0.913 . S
C2839 H2815 0.950 . S
C2839 C2838 1.524 . S
C2839 C2840 1.415 . S
C2840 H2816 0.950 . S
C2840 C2835 1.363 . S
C2840 C2839 1.415 . S
C2841 H2817 0.951 . S
C2841 C2842 1.366 . S
C2841 C2843 1.388 . S
C2842 C2841 1.366 . S
C2842 C2846 1.385 . S
C2843 H2818 0.951 . S
C2843 C2841 1.388 . S
C2843 C2844 1.366 . S
C2844 C2843 1.366 . S
C2844 C2845 1.414 . S
C2844 C2847 1.499 . S
C2845 H2819 0.950 . S
C2845 C2844 1.414 . S
C2845 C2846 1.374 . S
C2846 H2820 0.950 . S
C2846 C2842 1.385 . S
C2846 C2845 1.374 . S
C2847 C2844 1.499 . S
C2847 C2848 1.373 . S
C2847 C2849 1.389 . S
C2848 H2821 0.950 . S
C2848 C2834 1.377 . S
C2848 C2847 1.373 . S
C2849 C2833 1.377 . S
C2849 C2847 1.389 . S
C2849 C2850 1.524 . S
C2850 C2849 1.524 . S
C2850 C2851 1.397 . S
C2850 C2855 1.363 . S
C2851 H2822 0.950 . S
C2851 C2850 1.397 . S
C2851 C2852 1.334 . S
C2852 H2823 0.950 . S
C2852 C2851 1.334 . S
C2852 C2853 1.287 . S
C2853 C2852 1.287 . S
C2853 C2854 1.524 . S
C2853 H2856 0.999 . S
C2854 H2824 0.950 . S
C2854 C2853 1.524 . S
C2854 C2855 1.415 . S
C2855 H2825 0.950 . S
C2855 C2850 1.363 . S
C2855 C2854 1.415 . S
H2856 C2853 0.999 . S
H2857 C2838 0.913 . S
H2858 C2876 0.951 . S
H2859 C2878 0.951 . S
H2860 C2880 0.950 . S
H2861 C2881 0.950 . S
H2862 C2883 0.950 . S
H2863 C2886 0.950 . S
H2864 C2887 0.950 . S
H2865 C2889 0.950 . S
H2866 C2890 0.950 . S
H2867 C2891 0.951 . S
H2868 C2893 0.951 . S
H2869 C2895 0.950 . S
H2870 C2896 0.950 . S
H2871 C2898 0.950 . S
H2872 C2901 0.950 . S
H2873 C2902 0.950 . S
H2874 C2904 0.950 . S
H2875 C2905 0.950 . S
C2876 H2858 0.951 . S
C2876 C2877 1.366 . S
C2876 C2878 1.388 . S
C2877 C2876 1.366 . S
C2877 C2881 1.385 . S
C2878 H2859 0.951 . S
C2878 C2876 1.388 . S
C2878 C2879 1.366 . S
C2879 C2878 1.366 . S
C2879 C2880 1.414 . S
C2879 C2882 1.499 . S
C2880 H2860 0.950 . S
C2880 C2879 1.414 . S
C2880 C2881 1.374 . S
C2881 H2861 0.950 . S
C2881 C2877 1.385 . S
C2881 C2880 1.374 . S
C2882 C2879 1.499 . S
C2882 C2883 1.373 . S
C2882 C2884 1.389 . S
C2883 H2862 0.950 . S
C2883 C2882 1.373 . S
C2883 C2899 1.377 . S
C2884 C2882 1.389 . S
C2884 C2885 1.524 . S
C2884 C2898 1.377 . S
C2885 C2884 1.524 . S
C2885 C2886 1.397 . S
C2885 C2890 1.363 . S
C2886 H2863 0.950 . S
C2886 C2885 1.397 . S
C2886 C2887 1.334 . S
C2887 H2864 0.950 . S
C2887 C2886 1.334 . S
C2887 C2888 1.287 . S
C2888 C2887 1.287 . S
C2888 C2889 1.524 . S
C2888 H2907 0.913 . S
C2889 H2865 0.950 . S
C2889 C2888 1.524 . S
C2889 C2890 1.415 . S
C2890 H2866 0.950 . S
C2890 C2885 1.363 . S
C2890 C2889 1.415 . S
C2891 H2867 0.951 . S
C2891 C2892 1.366 . S
C2891 C2893 1.388 . S
C2892 C2891 1.366 . S
C2892 C2896 1.385 . S
C2893 H2868 0.951 . S
C2893 C2891 1.388 . S
C2893 C2894 1.366 . S
C2894 C2893 1.366 . S
C2894 C2895 1.414 . S
C2894 C2897 1.499 . S
C2895 H2869 0.950 . S
C2895 C2894 1.414 . S
C2895 C2896 1.374 . S
C2896 H2870 0.950 . S
C2896 C2892 1.385 . S
C2896 C2895 1.374 . S
C2897 C2894 1.499 . S
C2897 C2898 1.373 . S
C2897 C2899 1.389 . S
C2898 H2871 0.950 . S
C2898 C2884 1.377 . S
C2898 C2897 1.373 . S
C2899 C2883 1.377 . S
C2899 C2897 1.389 . S
C2899 C2900 1.524 . S
C2900 C2899 1.524 . S
C2900 C2901 1.397 . S
C2900 C2905 1.363 . S
C2901 H2872 0.950 . S
C2901 C2900 1.397 . S
C2901 C2902 1.334 . S
C2902 H2873 0.950 . S
C2902 C2901 1.334 . S
C2902 C2903 1.287 . S
C2903 C2902 1.287 . S
C2903 C2904 1.524 . S
C2903 H2906 0.999 . S
C2904 H2874 0.950 . S
C2904 C2903 1.524 . S
C2904 C2905 1.415 . S
C2905 H2875 0.950 . S
C2905 C2900 1.363 . S
C2905 C2904 1.415 . S
H2906 C2903 0.999 . S
H2907 C2888 0.913 . S
H2908 C2926 0.951 . S
H2909 C2928 0.951 . S
H2910 C2930 0.950 . S
H2911 C2931 0.950 . S
H2912 C2933 0.950 . S
H2913 C2936 0.950 . S
H2914 C2937 0.950 . S
H2915 C2939 0.950 . S
H2916 C2940 0.950 . S
H2917 C2941 0.951 . S
H2918 C2943 0.951 . S
H2919 C2945 0.950 . S
H2920 C2946 0.950 . S
H2921 C2948 0.950 . S
H2922 C2951 0.950 . S
H2923 C2952 0.950 . S
H2924 C2954 0.950 1_556 S
H2925 C2955 0.950 . S
C2926 H2908 0.951 . S
C2926 C2927 1.366 . S
C2926 C2928 1.388 . S
C2927 C2926 1.366 . S
C2927 C2931 1.385 . S
C2928 H2909 0.951 . S
C2928 C2926 1.388 . S
C2928 C2929 1.366 . S
C2929 C2928 1.366 . S
C2929 C2930 1.414 . S
C2929 C2932 1.499 . S
C2930 H2910 0.950 . S
C2930 C2929 1.414 . S
C2930 C2931 1.374 . S
C2931 H2911 0.950 . S
C2931 C2927 1.385 . S
C2931 C2930 1.374 . S
C2932 C2929 1.499 . S
C2932 C2933 1.373 . S
C2932 C2934 1.389 . S
C2933 H2912 0.950 . S
C2933 C2932 1.373 . S
C2933 C2949 1.377 . S
C2934 C2932 1.389 . S
C2934 C2935 1.524 . S
C2934 C2948 1.377 . S
C2935 C2934 1.524 . S
C2935 C2936 1.397 . S
C2935 C2940 1.363 . S
C2936 H2913 0.950 . S
C2936 C2935 1.397 . S
C2936 C2937 1.334 . S
C2937 H2914 0.950 . S
C2937 C2936 1.334 . S
C2937 C2938 1.287 . S
C2938 C2937 1.287 . S
C2938 C2939 1.524 . S
C2938 H2957 0.913 . S
C2939 H2915 0.950 . S
C2939 C2938 1.524 . S
C2939 C2940 1.415 . S
C2940 H2916 0.950 . S
C2940 C2935 1.363 . S
C2940 C2939 1.415 . S
C2941 H2917 0.951 . S
C2941 C2942 1.366 . S
C2941 C2943 1.388 . S
C2942 C2941 1.366 . S
C2942 C2946 1.385 . S
C2943 H2918 0.951 . S
C2943 C2941 1.388 . S
C2943 C2944 1.366 . S
C2944 C2943 1.366 . S
C2944 C2945 1.414 . S
C2944 C2947 1.499 . S
C2945 H2919 0.950 . S
C2945 C2944 1.414 . S
C2945 C2946 1.374 . S
C2946 H2920 0.950 . S
C2946 C2942 1.385 . S
C2946 C2945 1.374 . S
C2947 C2944 1.499 . S
C2947 C2948 1.373 . S
C2947 C2949 1.389 . S
C2948 H2921 0.950 . S
C2948 C2934 1.377 . S
C2948 C2947 1.373 . S
C2949 C2933 1.377 . S
C2949 C2947 1.389 . S
C2949 C2950 1.524 . S
C2950 C2949 1.524 . S
C2950 C2951 1.397 . S
C2950 C2955 1.363 . S
C2951 H2922 0.950 . S
C2951 C2950 1.397 . S
C2951 C2952 1.334 1_554 S
C2952 H2923 0.950 . S
C2952 C2951 1.334 1_556 S
C2952 C2953 1.287 . S
C2953 C2952 1.287 . S
C2953 C2954 1.524 1_556 S
C2953 H2956 0.999 . S
C2954 H2924 0.950 1_554 S
C2954 C2953 1.524 1_554 S
C2954 C2955 1.415 . S
C2955 H2925 0.950 . S
C2955 C2950 1.363 . S
C2955 C2954 1.415 . S
H2956 C2953 0.999 . S
H2957 C2938 0.913 . S
H2958 C2976 0.951 . S
H2959 C2978 0.951 . S
H2960 C2980 0.950 . S
H2961 C2981 0.950 . S
H2962 C2983 0.950 . S
H2963 C2986 0.950 . S
H2964 C2987 0.950 . S
H2965 C2989 0.950 . S
H2966 C2990 0.950 . S
H2967 C2991 0.951 . S
H2968 C2993 0.951 . S
H2969 C2995 0.950 . S
H2970 C2996 0.950 . S
H2971 C2998 0.950 . S
H2972 C3001 0.950 . S
H2973 C3002 0.950 . S
H2974 C3004 0.950 . S
H2975 C3005 0.950 . S
C2976 H2958 0.951 . S
C2976 C2977 1.366 . S
C2976 C2978 1.388 . S
C2977 C2976 1.366 . S
C2977 C2981 1.385 . S
C2978 H2959 0.951 . S
C2978 C2976 1.388 . S
C2978 C2979 1.366 . S
C2979 C2978 1.366 . S
C2979 C2980 1.414 . S
C2979 C2982 1.499 . S
C2980 H2960 0.950 . S
C2980 C2979 1.414 . S
C2980 C2981 1.374 . S
C2981 H2961 0.950 . S
C2981 C2977 1.385 . S
C2981 C2980 1.374 . S
C2982 C2979 1.499 . S
C2982 C2983 1.373 . S
C2982 C2984 1.389 . S
C2983 H2962 0.950 . S
C2983 C2982 1.373 . S
C2983 C2999 1.377 . S
C2984 C2982 1.389 . S
C2984 C2985 1.524 . S
C2984 C2998 1.377 . S
C2985 C2984 1.524 . S
C2985 C2986 1.397 . S
C2985 C2990 1.363 . S
C2986 H2963 0.950 . S
C2986 C2985 1.397 . S
C2986 C2987 1.334 1_556 S
C2987 H2964 0.950 . S
C2987 C2986 1.334 1_554 S
C2987 C2988 1.287 . S
C2988 C2987 1.287 . S
C2988 C2989 1.524 1_554 S
C2988 H3007 0.913 . S
C2989 H2965 0.950 . S
C2989 C2988 1.524 1_556 S
C2989 C2990 1.415 . S
C2990 H2966 0.950 . S
C2990 C2985 1.363 . S
C2990 C2989 1.415 . S
C2991 H2967 0.951 . S
C2991 C2992 1.366 . S
C2991 C2993 1.388 . S
C2992 C2991 1.366 . S
C2992 C2996 1.385 . S
C2993 H2968 0.951 . S
C2993 C2991 1.388 . S
C2993 C2994 1.366 . S
C2994 C2993 1.366 . S
C2994 C2995 1.414 . S
C2994 C2997 1.499 . S
C2995 H2969 0.950 . S
C2995 C2994 1.414 . S
C2995 C2996 1.374 . S
C2996 H2970 0.950 . S
C2996 C2992 1.385 . S
C2996 C2995 1.374 . S
C2997 C2994 1.499 . S
C2997 C2998 1.373 . S
C2997 C2999 1.389 . S
C2998 H2971 0.950 . S
C2998 C2984 1.377 . S
C2998 C2997 1.373 . S
C2999 C2983 1.377 . S
C2999 C2997 1.389 . S
C2999 C3000 1.524 . S
C3000 C2999 1.524 . S
C3000 C3001 1.397 . S
C3000 C3005 1.363 . S
C3001 H2972 0.950 . S
C3001 C3000 1.397 . S
C3001 C3002 1.334 . S
C3002 H2973 0.950 . S
C3002 C3001 1.334 . S
C3002 C3003 1.287 . S
C3003 C3002 1.287 . S
C3003 C3004 1.524 . S
C3003 H3006 0.999 . S
C3004 H2974 0.950 . S
C3004 C3003 1.524 . S
C3004 C3005 1.415 . S
C3005 H2975 0.950 . S
C3005 C3000 1.363 . S
C3005 C3004 1.415 . S
H3006 C3003 0.999 . S
H3007 C2988 0.913 . S
C1427 C57 0.874 . S
C1442 C1113 0.871 . S
C1477 C117 0.875 . S
C1492 C489 0.875 . S
C1527 C205 0.873 . S
C1542 C1289 0.876 . S
C1577 C665 0.873 . S
C1592 C313 0.873 . S
C1627 C1252 0.873 . S
C1642 C196 0.870 . S
C1677 C645 0.873 . S
C1692 C321 0.873 . S
C1727 C1076 0.873 . S
C1742 C49 0.877 . S
C1777 C469 0.874 . S
C1792 C108 0.874 . S
C1827 C409 0.874 . S
C1842 C761 0.878 . S
C1877 C577 0.874 . S
C1892 C909 0.871 . S
C1927 C900 0.874 . S
C1942 C557 0.876 . S
C1977 C372 0.873 . S
C1992 C753 0.870 . S
C2027 C1201 0.873 . S
C2042 C841 0.873 . S
C2077 C1025 0.874 . S
C2092 C1377 0.874 . S
C2127 C1017 0.873 . S
C2142 C1340 0.873 . S
C2177 C849 0.873 . S
C2192 C1164 0.873 . S
C2227 C997 1.587 . S
C2242 C20 1.586 . S
C2277 C733 1.587 . S
C2292 C137 1.595 . S
C2327 C225 1.588 . S
C2342 C812 1.588 . S
C2377 C937 1.588 . S
C2392 C293 1.582 . S
C2427 C988 1.587 . S
C2442 C233 1.587 . S
C2477 C284 1.588 . S
C2492 C724 1.594 . S
C2527 C821 1.587 . S
C2542 C29 1.589 . S
C2577 C929 1.587 . S
C2592 C145 1.579 . S
C2627 C401 1.592 . S
C2642 C1349 1.594 . S
C2677 C1085 1.592 . S
C2692 C497 1.586 . S
C2727 C585 1.593 . S
C2742 C1173 1.592 . S
C2777 C673 1.593 . S
C2792 C1261 1.598 . S
C2827 C548 1.593 . S
C2842 C1369 1.593 . S
C2877 C1105 1.592 . S
C2892 C636 1.585 . S
C2927 C1193 1.592 . S
C2942 C381 1.591 . S
C2977 C1281 1.592 . S
C2992 C460 1.601 . S
