# Generated by pormake.
# Topology und, (4)-cn, num edge types: 1
# Building blocks:
#     Node 0, Type 0, BuildingBlock: KUFVIS_clean_sbu_0, # of connection points: 4
#     Node 1, Type 0, BuildingBlock: KUFVIS_clean_sbu_0, # of connection points: 4
#     Node 2, Type 0, BuildingBlock: KUFVIS_clean_sbu_0, # of connection points: 4
#     Node 3, Type 0, BuildingBlock: KUFVIS_clean_sbu_0, # of connection points: 4
#     Node 4, Type 0, BuildingBlock: KUFVIS_clean_sbu_0, # of connection points: 4
#     Node 5, Type 0, BuildingBlock: KUFVIS_clean_sbu_0, # of connection points: 4
#     Node 6, Type 0, BuildingBlock: KUFVIS_clean_sbu_0, # of connection points: 4
#     Node 7, Type 0, BuildingBlock: KUFVIS_clean_sbu_0, # of connection points: 4
#     Node 8, Type 0, BuildingBlock: KUFVIS_clean_sbu_0, # of connection points: 4
#     Node 9, Type 0, BuildingBlock: KUFVIS_clean_sbu_0, # of connection points: 4
#     Node 10, Type 0, BuildingBlock: KUFVIS_clean_sbu_0, # of connection points: 4
#     Node 11, Type 0, BuildingBlock: KUFVIS_clean_sbu_0, # of connection points: 4
#     Node 12, Type 0, BuildingBlock: KUFVIS_clean_sbu_0, # of connection points: 4
#     Node 13, Type 0, BuildingBlock: KUFVIS_clean_sbu_0, # of connection points: 4
#     Node 14, Type 0, BuildingBlock: KUFVIS_clean_sbu_0, # of connection points: 4
#     Node 15, Type 0, BuildingBlock: KUFVIS_clean_sbu_0, # of connection points: 4
#     Edge 16, Type (0, 0), BuildingBlock: ZUJKAS_clean_linker_0, # of connection points: 2
#     Edge 17, Type (0, 0), BuildingBlock: ZUJKAS_clean_linker_0, # of connection points: 2
#     Edge 18, Type (0, 0), BuildingBlock: ZUJKAS_clean_linker_0, # of connection points: 2
#     Edge 19, Type (0, 0), BuildingBlock: ZUJKAS_clean_linker_0, # of connection points: 2
#     Edge 20, Type (0, 0), BuildingBlock: ZUJKAS_clean_linker_0, # of connection points: 2
#     Edge 21, Type (0, 0), BuildingBlock: ZUJKAS_clean_linker_0, # of connection points: 2
#     Edge 22, Type (0, 0), BuildingBlock: ZUJKAS_clean_linker_0, # of connection points: 2
#     Edge 23, Type (0, 0), BuildingBlock: ZUJKAS_clean_linker_0, # of connection points: 2
#     Edge 24, Type (0, 0), BuildingBlock: ZUJKAS_clean_linker_0, # of connection points: 2
#     Edge 25, Type (0, 0), BuildingBlock: ZUJKAS_clean_linker_0, # of connection points: 2
#     Edge 26, Type (0, 0), BuildingBlock: ZUJKAS_clean_linker_0, # of connection points: 2
#     Edge 27, Type (0, 0), BuildingBlock: ZUJKAS_clean_linker_0, # of connection points: 2
#     Edge 28, Type (0, 0), BuildingBlock: ZUJKAS_clean_linker_0, # of connection points: 2
#     Edge 29, Type (0, 0), BuildingBlock: ZUJKAS_clean_linker_0, # of connection points: 2
#     Edge 30, Type (0, 0), BuildingBlock: ZUJKAS_clean_linker_0, # of connection points: 2
#     Edge 31, Type (0, 0), BuildingBlock: ZUJKAS_clean_linker_0, # of connection points: 2
#     Edge 32, Type (0, 0), BuildingBlock: ZUJKAS_clean_linker_0, # of connection points: 2
#     Edge 33, Type (0, 0), BuildingBlock: ZUJKAS_clean_linker_0, # of connection points: 2
#     Edge 34, Type (0, 0), BuildingBlock: ZUJKAS_clean_linker_0, # of connection points: 2
#     Edge 35, Type (0, 0), BuildingBlock: ZUJKAS_clean_linker_0, # of connection points: 2
#     Edge 36, Type (0, 0), BuildingBlock: ZUJKAS_clean_linker_0, # of connection points: 2
#     Edge 37, Type (0, 0), BuildingBlock: ZUJKAS_clean_linker_0, # of connection points: 2
#     Edge 38, Type (0, 0), BuildingBlock: ZUJKAS_clean_linker_0, # of connection points: 2
#     Edge 39, Type (0, 0), BuildingBlock: ZUJKAS_clean_linker_0, # of connection points: 2
#     Edge 40, Type (0, 0), BuildingBlock: ZUJKAS_clean_linker_0, # of connection points: 2
#     Edge 41, Type (0, 0), BuildingBlock: ZUJKAS_clean_linker_0, # of connection points: 2
#     Edge 42, Type (0, 0), BuildingBlock: ZUJKAS_clean_linker_0, # of connection points: 2
#     Edge 43, Type (0, 0), BuildingBlock: ZUJKAS_clean_linker_0, # of connection points: 2
#     Edge 44, Type (0, 0), BuildingBlock: ZUJKAS_clean_linker_0, # of connection points: 2
#     Edge 45, Type (0, 0), BuildingBlock: ZUJKAS_clean_linker_0, # of connection points: 2
#     Edge 46, Type (0, 0), BuildingBlock: ZUJKAS_clean_linker_0, # of connection points: 2
#     Edge 47, Type (0, 0), BuildingBlock: ZUJKAS_clean_linker_0, # of connection points: 2
# Relax obj value: 0.020
# Max RMSD: 0.088
# Mean RMSD: 0.080
data_MOF--net-und--node1-KUFVIS_clean_sbu_0--edge1-ZUJKAS_clean_linker_0
_symmetry_space_group_name_H-M    P1
_symmetry_Int_Tables_number       1
_symmetry_cell_setting            triclinic
loop_
_symmetry_equiv_pos_as_xyz
'x, y, z'
_cell_length_a     77.344212
_cell_length_b     77.350784
_cell_length_c     28.689294
_cell_angle_alpha  92.165471
_cell_angle_beta   92.135713
_cell_angle_gamma 90.049362
loop_
_atom_site_label
_atom_site_type_symbol
_atom_site_fract_x
_atom_site_fract_y
_atom_site_fract_z
_atom_type_partial_charge
Mn0 Mn 0.25509 0.33726 0.01923 0.0
Mn1 Mn 0.23461 0.35236 0.92333 0.0
C2 C 0.25628 0.32186 0.94901 0.0
C3 C 0.25332 0.32064 0.08549 0.0
C4 C 0.26898 0.36674 0.96294 0.0
O5 O 0.23894 0.35563 0.04577 0.0
O6 O 0.22413 0.36276 0.9802 0.0
C7 C 0.20023 0.33638 0.93352 0.0
N8 N 0.21447 0.33868 0.90789 0.0
C9 C 0.20278 0.32008 0.84529 0.0
C10 C 0.18794 0.31761 0.87088 0.0
C11 C 0.18668 0.32577 0.91521 0.0
C12 C 0.21583 0.33087 0.86522 0.0
H13 H 0.19925 0.34256 0.9677 0.0
C14 C 0.22686 0.36381 0.02459 0.0
O15 O 0.26522 0.33244 0.08302 0.0
O16 O 0.2424 0.31897 0.05037 0.0
N17 N 0.2433 0.34319 0.86587 0.0
C18 C 0.25879 0.34629 0.8466 0.0
C19 C 0.26226 0.33879 0.80262 0.0
C20 C 0.24976 0.32827 0.77879 0.0
C21 C 0.23386 0.32538 0.79912 0.0
C22 C 0.23105 0.33336 0.84282 0.0
H23 H 0.26846 0.35437 0.8647 0.0
O24 O 0.26759 0.31913 0.98237 0.0
O25 O 0.24445 0.33329 0.95815 0.0
O26 O 0.27123 0.35613 0.99586 0.0
O27 O 0.25545 0.36677 0.93589 0.0
C28 C 0.22079 0.31469 0.77808 0.0
C29 C 0.20528 0.31201 0.80118 0.0
H30 H 0.1775 0.30936 0.85701 0.0
H31 H 0.1753 0.32385 0.93527 0.0
H32 H 0.27457 0.34107 0.78716 0.0
H33 H 0.25254 0.32243 0.74499 0.0
H34 H 0.22264 0.30827 0.74441 0.0
H35 H 0.19543 0.30358 0.78493 0.0
Mn36 Mn 0.92036 0.00359 0.26072 0.0
Mn37 Mn 0.90526 0.0259 0.35405 0.0
C38 C 0.93577 0.00364 0.33136 0.0
C39 C 0.93697 0.00401 0.19388 0.0
C40 C 0.89162 0.99038 0.32154 0.0
O41 O 0.90197 0.019 0.23138 0.0
O42 O 0.89385 0.03397 0.29553 0.0
C43 C 0.91962 0.06017 0.33353 0.0
N44 N 0.91795 0.04703 0.36334 0.0
C45 C 0.93514 0.0623 0.42322 0.0
C46 C 0.93695 0.07606 0.39328 0.0
C47 C 0.9292 0.07495 0.34818 0.0
C48 C 0.92546 0.0479 0.40665 0.0
H49 H 0.91368 0.05938 0.29884 0.0
C50 C 0.89301 0.03074 0.2514 0.0
O51 O 0.9252 0.99221 0.19821 0.0
O52 O 0.93868 0.01553 0.22757 0.0
N53 N 0.91504 0.0199 0.4135 0.0
C54 C 0.91272 0.00521 0.43729 0.0
C55 C 0.91963 0.00423 0.48306 0.0
C56 C 0.92873 0.01839 0.50398 0.0
C57 C 0.93111 0.03329 0.47868 0.0
C58 C 0.92371 0.03363 0.43345 0.0
H59 H 0.90562 0.99435 0.42153 0.0
O60 O 0.93839 0.99179 0.29928 0.0
O61 O 0.9245 0.01549 0.32073 0.0
O62 O 0.90137 0.98802 0.28664 0.0
O63 O 0.89196 0.00417 0.34763 0.0
C64 C 0.94063 0.04778 0.49645 0.0
C65 C 0.94272 0.06224 0.46864 0.0
H66 H 0.94434 0.08747 0.40444 0.0
H67 H 0.9306 0.08548 0.32479 0.0
H68 H 0.91786 0.99263 0.50228 0.0
H69 H 0.93392 0.01765 0.53943 0.0
H70 H 0.94656 0.04785 0.53127 0.0
H71 H 0.95026 0.07321 0.48246 0.0
Mn72 Mn 0.25427 0.67885 0.51422 0.0
Mn73 Mn 0.23863 0.6653 0.6149 0.0
C74 C 0.25797 0.6956 0.58226 0.0
C75 C 0.25028 0.69417 0.44597 0.0
C76 C 0.27105 0.65053 0.57199 0.0
O77 O 0.23717 0.65992 0.49221 0.0
O78 O 0.22615 0.65345 0.56117 0.0
C79 C 0.20338 0.68003 0.60673 0.0
N80 N 0.21877 0.67862 0.63091 0.0
C81 C 0.20901 0.69738 0.69336 0.0
C82 C 0.19303 0.69897 0.66923 0.0
C83 C 0.19022 0.6903 0.62567 0.0
C84 C 0.22164 0.68698 0.67272 0.0
H85 H 0.2012 0.67339 0.57324 0.0
C86 C 0.22669 0.65162 0.51666 0.0
O87 O 0.26205 0.68226 0.44942 0.0
O88 O 0.24048 0.6966 0.48126 0.0
N89 N 0.24953 0.67584 0.66981 0.0
C90 C 0.26593 0.67357 0.68751 0.0
C91 C 0.27093 0.68154 0.7307 0.0
C92 C 0.25899 0.69164 0.75538 0.0
C93 C 0.24218 0.69378 0.7365 0.0
C94 C 0.23789 0.6854 0.6935 0.0
H95 H 0.27512 0.66571 0.66886 0.0
O96 O 0.26805 0.69773 0.54781 0.0
O97 O 0.24612 0.68379 0.57577 0.0
O98 O 0.2714 0.66045 0.53742 0.0
O99 O 0.2592 0.65117 0.60189 0.0
C100 C 0.22954 0.70401 0.75842 0.0
C101 C 0.21301 0.70589 0.73674 0.0
H102 H 0.18285 0.70691 0.68367 0.0
H103 H 0.17794 0.69153 0.60675 0.0
H104 H 0.28393 0.67986 0.74501 0.0
H105 H 0.26289 0.69771 0.78876 0.0
H106 H 0.23247 0.71066 0.79168 0.0
H107 H 0.2035 0.714 0.7536 0.0
Mn108 Mn 0.58116 0.00567 0.76402 0.0
Mn109 Mn 0.59585 0.02124 0.66454 0.0
C110 C 0.56516 0.002 0.69463 0.0
C111 C 0.56518 0.00965 0.83123 0.0
C112 C 0.6101 0.98882 0.70845 0.0
O113 O 0.59984 0.02286 0.78755 0.0
O114 O 0.60714 0.03372 0.71908 0.0
C115 C 0.58126 0.05657 0.67143 0.0
N116 N 0.58278 0.04113 0.64755 0.0
C117 C 0.56504 0.05104 0.58329 0.0
C118 C 0.56333 0.06708 0.6071 0.0
C119 C 0.57142 0.06983 0.65145 0.0
C120 C 0.57491 0.03829 0.6051 0.0
H121 H 0.58752 0.05874 0.70543 0.0
C122 C 0.60841 0.03331 0.76368 0.0
O123 O 0.57712 0.99788 0.82847 0.0
O124 O 0.56304 0.01942 0.79577 0.0
N125 N 0.58582 0.01033 0.60898 0.0
C126 C 0.5881 0.99388 0.59162 0.0
C127 C 0.58044 0.98886 0.54805 0.0
C128 C 0.57074 1.00086 0.52251 0.0
C129 C 0.56875 0.01777 0.54085 0.0
C130 C 0.5766 0.02201 0.58454 0.0
H131 H 0.59567 0.98465 0.61091 0.0
O132 O 0.56262 0.99191 0.72884 0.0
O133 O 0.5769 0.01384 0.70217 0.0
O134 O 0.5998 0.98852 0.74224 0.0
O135 O 0.60981 1.00064 0.67853 0.0
C136 C 0.55923 0.03057 0.5176 0.0
C137 C 0.55726 0.04716 0.53893 0.0
H138 H 0.55579 0.07735 0.59176 0.0
H139 H 0.57011 0.08215 0.6701 0.0
H140 H 0.58206 0.97579 0.53411 0.0
H141 H 0.56483 0.99694 0.48894 0.0
H142 H 0.55311 0.02772 0.48359 0.0
H143 H 0.54963 0.05679 0.52106 0.0
Mn144 Mn 0.7493 0.67578 0.00546 0.0
Mn145 Mn 0.77132 0.66081 0.09935 0.0
C146 C 0.74858 0.69094 0.07638 0.0
C147 C 0.74978 0.69267 0.93918 0.0
C148 C 0.73631 0.64646 0.0646 0.0
O149 O 0.76535 0.65788 0.97645 0.0
O150 O 0.78018 0.64996 0.04102 0.0
C151 C 0.80543 0.67615 0.08172 0.0
N152 N 0.79206 0.674 0.11052 0.0
C153 C 0.80637 0.69126 0.17194 0.0
C154 C 0.82035 0.69358 0.14306 0.0
C155 C 0.81985 0.68604 0.0977 0.0
C156 C 0.79235 0.68129 0.15408 0.0
H157 H 0.8051 0.67038 0.04683 0.0
C158 C 0.77726 0.64923 0.99675 0.0
O159 O 0.7382 0.6806 0.94262 0.0
O160 O 0.76106 0.69451 0.97341 0.0
N161 N 0.76453 0.67013 0.15861 0.0
C162 C 0.74964 0.66736 0.18121 0.0
C163 C 0.74804 0.67406 0.22701 0.0
C164 C 0.76179 0.68341 0.24918 0.0
C165 C 0.7769 0.68625 0.22511 0.0
C166 C 0.77786 0.67906 0.17977 0.0
H167 H 0.73909 0.66006 0.16449 0.0
O168 O 0.73686 0.6934 0.04388 0.0
O169 O 0.76072 0.67995 0.06604 0.0
O170 O 0.73392 0.65636 0.03007 0.0
O171 O 0.74997 0.64695 0.09115 0.0
C172 C 0.791 0.69605 0.24417 0.0
C173 C 0.80568 0.69863 0.21751 0.0
H174 H 0.83149 0.70122 0.15523 0.0
H175 H 0.83056 0.68783 0.07512 0.0
H176 H 0.73628 0.67193 0.24529 0.0
H177 H 0.76058 0.68844 0.28466 0.0
H178 H 0.79059 0.70184 0.27909 0.0
H179 H 0.81634 0.70639 0.2323 0.0
Mn180 Mn 0.08054 0.01092 0.77154 0.0
Mn181 Mn 0.09793 0.99074 0.67822 0.0
C182 C 0.0665 0.01192 0.69902 0.0
C183 C 0.06285 0.00897 0.83586 0.0
C184 C 0.11105 0.02524 0.7201 0.0
O185 O 0.09869 0.99507 0.80067 0.0
O186 O 0.10706 0.98028 0.73631 0.0
C187 C 0.082 0.95615 0.68491 0.0
N188 N 0.08492 0.97043 0.65999 0.0
C189 C 0.06899 0.95824 0.59296 0.0
C190 C 0.06588 0.94336 0.61781 0.0
C191 C 0.07237 0.94233 0.66404 0.0
C192 C 0.07866 0.97159 0.6156 0.0
H193 H 0.08697 0.95533 0.72045 0.0
C194 C 0.10733 0.98304 0.78066 0.0
O195 O 0.07455 0.02101 0.83449 0.0
O196 O 0.06177 0.99804 0.80059 0.0
N197 N 0.09019 0.99943 0.61952 0.0
C198 C 0.09369 0.01499 0.60115 0.0
C199 C 0.08816 0.0181 0.55509 0.0
C200 C 0.07917 0.00519 0.52837 0.0
C201 C 0.07551 0.98937 0.5482 0.0
C202 C 0.0816 0.98689 0.59401 0.0
H203 H 0.10079 0.02489 0.62129 0.0
O204 O 0.06295 0.02312 0.73206 0.0
O205 O 0.07789 1.00024 0.70981 0.0
O206 O 0.09962 0.02742 0.75094 0.0
O207 O 0.11188 0.01167 0.69345 0.0
C208 C 0.06601 0.97598 0.5244 0.0
C209 C 0.06267 0.96047 0.54685 0.0
H210 H 0.05843 0.93269 0.60187 0.0
H211 H 0.06996 0.93092 0.6835 0.0
H212 H 0.09094 0.03038 0.54008 0.0
H213 H 0.07514 0.00757 0.49264 0.0
H214 H 0.06105 0.97757 0.48901 0.0
H215 H 0.05516 0.95036 0.52842 0.0
Mn216 Mn 0.74927 0.33618 0.50997 0.0
Mn217 Mn 0.76207 0.35047 0.40671 0.0
C218 C 0.74693 0.31824 0.44385 0.0
C219 C 0.7553 0.32177 0.57893 0.0
C220 C 0.72887 0.36207 0.45175 0.0
O221 O 0.76465 0.3568 0.52939 0.0
O222 O 0.77373 0.36409 0.45886 0.0
C223 C 0.79914 0.34099 0.41072 0.0
N224 N 0.7833 0.34015 0.3884 0.0
C225 C 0.79475 0.32405 0.32311 0.0
C226 C 0.81121 0.32479 0.34532 0.0
C227 C 0.8134 0.33326 0.38936 0.0
C228 C 0.78106 0.33214 0.34587 0.0
H229 H 0.80087 0.34752 0.44452 0.0
C230 C 0.77375 0.36602 0.50346 0.0
O231 O 0.74248 0.33256 0.57554 0.0
O232 O 0.76504 0.32012 0.54328 0.0
N233 N 0.75183 0.33824 0.35343 0.0
C234 C 0.73484 0.33702 0.33941 0.0
C235 C 0.73023 0.328 0.29737 0.0
C236 C 0.74313 0.32045 0.2701 0.0
C237 C 0.76053 0.32186 0.28531 0.0
C238 C 0.76435 0.33107 0.3274 0.0
H239 H 0.72489 0.34282 0.36026 0.0
O240 O 0.73722 0.31581 0.47894 0.0
O241 O 0.75745 0.3314 0.44795 0.0
O242 O 0.72999 0.35263 0.48731 0.0
O243 O 0.74022 0.36204 0.42067 0.0
C244 C 0.77418 0.31404 0.26112 0.0
C245 C 0.79128 0.31516 0.27997 0.0
H246 H 0.82221 0.31871 0.32917 0.0
H247 H 0.82605 0.33381 0.4068 0.0
H248 H 0.71676 0.32685 0.28601 0.0
H249 H 0.73952 0.31341 0.23785 0.0
H250 H 0.77162 0.30681 0.22852 0.0
H251 H 0.80161 0.30878 0.26154 0.0
Mn252 Mn 0.4219 0.01366 0.25309 0.0
Mn253 Mn 0.40632 0.99393 0.3454 0.0
C254 C 0.4369 0.0155 0.32436 0.0
C255 C 0.43859 0.0118 0.18674 0.0
C256 C 0.39126 0.02702 0.30662 0.0
O257 O 0.40347 0.99712 0.22428 0.0
O258 O 0.39771 0.98164 0.28722 0.0
C259 C 0.4243 0.96024 0.33727 0.0
N260 N 0.42059 0.97489 0.3627 0.0
C261 C 0.43721 0.96516 0.42921 0.0
C262 C 0.44105 0.94986 0.40391 0.0
C263 C 0.43464 0.94744 0.35765 0.0
C264 C 0.42688 0.97746 0.407 0.0
H265 H 0.41944 0.95837 0.30168 0.0
C266 C 0.39627 0.98447 0.24353 0.0
O267 O 0.42658 0.02344 0.19112 0.0
O268 O 0.44043 1.00104 0.22006 0.0
N269 N 0.41392 0.00455 0.40395 0.0
C270 C 0.41004 0.02052 0.42238 0.0
C271 C 0.41613 0.02532 0.46775 0.0
C272 C 0.42597 0.0136 0.49389 0.0
C273 C 0.42967 0.9972 0.47433 0.0
C274 C 0.4233 0.99315 0.42891 0.0
H275 H 0.40238 0.02954 0.40264 0.0
O276 O 0.43992 0.02655 0.29271 0.0
O277 O 0.4255 0.00366 0.31288 0.0
O278 O 0.40293 0.02978 0.27745 0.0
O279 O 0.39088 0.01358 0.33117 0.0
C280 C 0.43958 0.98476 0.49795 0.0
C281 C 0.44343 0.96879 0.47532 0.0
H282 H 0.44905 0.93997 0.41949 0.0
H283 H 0.43766 0.93573 0.33776 0.0
H284 H 0.41322 0.038 0.48259 0.0
H285 H 0.43068 0.01736 0.52884 0.0
H286 H 0.44457 0.98748 0.53325 0.0
H287 H 0.45138 0.95949 0.49352 0.0
Mn288 Mn 0.75232 0.83628 0.51644 0.0
Mn289 Mn 0.73067 0.85206 0.42301 0.0
C290 C 0.75306 0.82157 0.44486 0.0
C291 C 0.75157 0.81902 0.58193 0.0
C292 C 0.76564 0.86599 0.45938 0.0
O293 O 0.73635 0.85417 0.54591 0.0
O294 O 0.72156 0.86244 0.48161 0.0
C295 C 0.6964 0.83661 0.43834 0.0
N296 N 0.70996 0.83898 0.41027 0.0
C297 C 0.69597 0.82217 0.3474 0.0
C298 C 0.6818 0.81964 0.37552 0.0
C299 C 0.68206 0.82685 0.42124 0.0
C300 C 0.7099 0.83201 0.36636 0.0
H301 H 0.69655 0.84213 0.4735 0.0
C302 C 0.72445 0.86293 0.5259 0.0
O303 O 0.76324 0.83103 0.57913 0.0
O304 O 0.74033 0.81744 0.54752 0.0
N305 N 0.73777 0.8432 0.36358 0.0
C306 C 0.75278 0.84618 0.34176 0.0
C307 C 0.75463 0.83984 0.29571 0.0
C308 C 0.741 0.83063 0.27251 0.0
C309 C 0.72575 0.82758 0.2958 0.0
C310 C 0.72455 0.83443 0.34143 0.0
H311 H 0.76323 0.8534 0.35924 0.0
O312 O 0.76468 0.81877 0.4774 0.0
O313 O 0.74101 0.83261 0.45554 0.0
O314 O 0.76794 0.8557 0.49306 0.0
O315 O 0.752 0.86586 0.43278 0.0
C316 C 0.71175 0.81792 0.27566 0.0
C317 C 0.6969 0.81514 0.30153 0.0
H318 H 0.67073 0.8121 0.36249 0.0
H319 H 0.67121 0.82489 0.44323 0.0
H320 H 0.76649 0.84214 0.27803 0.0
H321 H 0.7424 0.82591 0.23684 0.0
H322 H 0.71235 0.8124 0.24049 0.0
H323 H 0.68631 0.80749 0.2859 0.0
Mn324 Mn 0.42153 0.50339 0.75132 0.0
Mn325 Mn 0.40646 0.52395 0.84722 0.0
C326 C 0.43688 0.50218 0.82165 0.0
C327 C 0.43818 0.50509 0.68504 0.0
C328 C 0.39218 0.48945 0.80824 0.0
O329 O 0.40321 0.51951 0.7245 0.0
O330 O 0.39579 0.53402 0.79023 0.0
C331 C 0.42192 0.55845 0.83538 0.0
N332 N 0.41984 0.54435 0.86166 0.0
C333 C 0.43767 0.55699 0.92453 0.0
C334 C 0.43992 0.57169 0.89826 0.0
C335 C 0.43205 0.5724 0.85343 0.0
C336 C 0.42744 0.54349 0.90469 0.0
H337 H 0.4159 0.55905 0.80091 0.0
C338 C 0.39484 0.53141 0.74582 0.0
O339 O 0.42636 0.4932 0.68755 0.0
O340 O 0.43988 0.516 0.72016 0.0
N341 N 0.41581 0.51573 0.90497 0.0
C342 C 0.41305 0.50029 0.92484 0.0
C343 C 0.42047 0.49729 0.96922 0.0
C344 C 0.43044 0.51026 0.99295 0.0
C345 C 0.4329 0.52613 0.97208 0.0
C346 C 0.42521 0.52837 0.92776 0.0
H347 H 0.40533 0.4903 0.90689 0.0
O348 O 0.43957 0.49086 0.78826 0.0
O349 O 0.42556 0.5141 0.81248 0.0
O350 O 0.40258 0.48731 0.77474 0.0
O351 O 0.39232 0.50289 0.83563 0.0
C352 C 0.44281 0.53976 0.9933 0.0
C353 C 0.4453 0.55512 0.96941 0.0
H354 H 0.44774 0.58247 0.91205 0.0
H355 H 0.43379 0.58367 0.83286 0.0
H356 H 0.4185 0.48501 0.98511 0.0
H357 H 0.43621 0.50787 0.02709 0.0
H358 H 0.44873 0.53849 0.02781 0.0
H359 H 0.45319 0.56539 0.9858 0.0
Mn360 Mn 0.75877 0.17735 0.99667 0.0
Mn361 Mn 0.73921 0.16508 0.09334 0.0
C362 C 0.7642 0.19226 0.0671 0.0
C363 C 0.7575 0.19406 0.93032 0.0
C364 C 0.77033 0.14642 0.05366 0.0
O365 O 0.73972 0.16114 0.97036 0.0
O366 O 0.72653 0.15569 0.03678 0.0
C367 C 0.70743 0.18579 0.07878 0.0
N368 N 0.72144 0.18156 0.10617 0.0
C369 C 0.71366 0.20244 0.16607 0.0
C370 C 0.6991 0.20695 0.13863 0.0
C371 C 0.696 0.19862 0.09473 0.0
C372 C 0.7247 0.18971 0.14808 0.0
H373 H 0.70504 0.17947 0.04493 0.0
C374 C 0.7277 0.15415 0.99247 0.0
O375 O 0.76771 0.18074 0.93279 0.0
O376 O 0.74784 0.1972 0.96548 0.0
N377 N 0.74972 0.17305 0.15166 0.0
C378 C 0.76363 0.16628 0.17514 0.0
C379 C 0.76801 0.17252 0.22068 0.0
C380 C 0.75787 0.18541 0.24196 0.0
C381 C 0.74329 0.19178 0.2177 0.0
C382 C 0.73945 0.1849 0.17264 0.0
H383 H 0.77132 0.15617 0.15929 0.0
O384 O 0.77464 0.19371 0.0332 0.0
O385 O 0.75072 0.18253 0.05817 0.0
O386 O 0.77264 0.15649 0.01995 0.0
O387 O 0.75798 0.14821 0.08206 0.0
C388 C 0.73236 0.2046 0.23659 0.0
C389 C 0.71765 0.21004 0.2106 0.0
H390 H 0.69021 0.21678 0.1509 0.0
H391 H 0.68482 0.20207 0.07327 0.0
H392 H 0.77917 0.16739 0.23936 0.0
H393 H 0.76135 0.19028 0.27695 0.0
H394 H 0.73517 0.21036 0.27105 0.0
H395 H 0.70939 0.21996 0.22538 0.0
Mn396 Mn 0.08169 0.50505 0.26372 0.0
Mn397 Mn 0.09949 0.52371 0.17225 0.0
C398 C 0.06773 0.50356 0.19075 0.0
C399 C 0.06417 0.50683 0.32864 0.0
C400 C 0.11166 0.48939 0.20932 0.0
O401 O 0.09986 0.52114 0.29533 0.0
O402 O 0.10972 0.53349 0.2317 0.0
C403 C 0.08601 0.55919 0.18762 0.0
N404 N 0.08783 0.54482 0.15932 0.0
C405 C 0.07414 0.5588 0.09427 0.0
C406 C 0.07215 0.57378 0.12264 0.0
C407 C 0.078 0.57393 0.16962 0.0
C408 C 0.08195 0.54443 0.11437 0.0
H409 H 0.09071 0.55941 0.22357 0.0
C410 C 0.1096 0.53185 0.27589 0.0
O411 O 0.07607 0.49508 0.32469 0.0
O412 O 0.06276 0.51774 0.29548 0.0
N413 N 0.09088 0.5157 0.11197 0.0
C414 C 0.09305 0.49996 0.09004 0.0
C415 C 0.08753 0.4975 0.04308 0.0
C416 C 0.08021 0.51133 0.01893 0.0
C417 C 0.07822 0.52745 0.04219 0.0
C418 C 0.08373 0.52905 0.08914 0.0
H419 H 0.09903 0.4894 0.10819 0.0
O420 O 0.06416 0.49256 0.22206 0.0
O421 O 0.07914 0.51534 0.20324 0.0
O422 O 0.10079 0.48846 0.24161 0.0
O423 O 0.11223 0.50205 0.18211 0.0
C424 C 0.07104 0.542 0.02063 0.0
C425 C 0.06876 0.55759 0.04681 0.0
H426 H 0.06612 0.58523 0.10875 0.0
H427 H 0.0765 0.58543 0.19176 0.0
H428 H 0.08911 0.48503 0.02537 0.0
H429 H 0.07615 0.50943 0.98256 0.0
H430 H 0.06701 0.54128 0.98405 0.0
H431 H 0.06289 0.56856 0.03006 0.0
Mn432 Mn 0.24671 0.17775 0.50643 0.0
Mn433 Mn 0.26734 0.16435 0.60406 0.0
C434 C 0.24535 0.19421 0.57499 0.0
C435 C 0.24851 0.19337 0.43837 0.0
C436 C 0.23315 0.14903 0.56567 0.0
O437 O 0.2629 0.15898 0.48209 0.0
O438 O 0.27814 0.15342 0.54833 0.0
C439 C 0.30141 0.18085 0.59281 0.0
N440 N 0.2872 0.17854 0.61855 0.0
C441 C 0.29848 0.19795 0.67986 0.0
C442 C 0.31331 0.20041 0.65418 0.0
C443 C 0.31475 0.19185 0.61043 0.0
C444 C 0.28565 0.18677 0.6606 0.0
H445 H 0.30252 0.17437 0.55904 0.0
C446 C 0.27524 0.15148 0.50414 0.0
O447 O 0.23664 0.1816 0.44196 0.0
O448 O 0.25939 0.19554 0.4734 0.0
N449 N 0.25836 0.17406 0.66056 0.0
C450 C 0.2429 0.1709 0.67994 0.0
C451 C 0.23927 0.17874 0.72341 0.0
C452 C 0.25159 0.18964 0.74664 0.0
C453 C 0.26745 0.19261 0.72618 0.0
C454 C 0.27043 0.18429 0.68302 0.0
H455 H 0.23339 0.1625 0.66236 0.0
O456 O 0.23408 0.19639 0.54117 0.0
O457 O 0.25725 0.18273 0.56719 0.0
O458 O 0.23068 0.15922 0.53187 0.0
O459 O 0.24675 0.14946 0.5925 0.0
C460 C 0.28032 0.20369 0.74659 0.0
C461 C 0.2958 0.20639 0.72338 0.0
H462 H 0.32359 0.20896 0.66753 0.0
H463 H 0.3261 0.19378 0.59028 0.0
H464 H 0.227 0.17639 0.73897 0.0
H465 H 0.24871 0.19569 0.78011 0.0
H466 H 0.27834 0.21038 0.77982 0.0
H467 H 0.3055 0.21513 0.73912 0.0
Mn468 Mn 0.5813 0.50881 0.26242 0.0
Mn469 Mn 0.59611 0.48674 0.1685 0.0
C470 C 0.56621 0.50959 0.19164 0.0
C471 C 0.56434 0.50831 0.3284 0.0
C472 C 0.61091 0.5215 0.20392 0.0
O473 O 0.59897 0.49252 0.29122 0.0
O474 O 0.60674 0.47747 0.22674 0.0
C475 C 0.58031 0.45271 0.18477 0.0
N476 N 0.58252 0.46629 0.15668 0.0
C477 C 0.56445 0.45283 0.09554 0.0
C478 C 0.56209 0.43865 0.12369 0.0
C479 C 0.57001 0.43863 0.16856 0.0
C480 C 0.57486 0.4665 0.11358 0.0
H481 H 0.58637 0.45264 0.21929 0.0
C482 C 0.60738 0.4804 0.27106 0.0
O483 O 0.57647 0.51985 0.32531 0.0
O484 O 0.56248 0.49711 0.294 0.0
N485 N 0.58679 0.49402 0.10968 0.0
C486 C 0.58968 0.50904 0.08781 0.0
C487 C 0.58222 0.51135 0.04309 0.0
C488 C 0.57208 0.49813 0.02109 0.0
C489 C 0.56949 0.4827 0.04401 0.0
C490 C 0.57723 0.48113 0.08855 0.0
H491 H 0.59748 0.51924 0.10448 0.0
O492 O 0.56379 0.52141 0.22396 0.0
O493 O 0.57715 0.49745 0.20206 0.0
O494 O 0.60087 0.52403 0.23812 0.0
O495 O 0.61036 0.50782 0.17739 0.0
C496 C 0.55936 0.46889 0.02463 0.0
C497 C 0.55675 0.45401 0.05049 0.0
H498 H 0.55413 0.42777 0.11133 0.0
H499 H 0.56818 0.42776 0.19057 0.0
H500 H 0.58428 0.5233 0.02564 0.0
H501 H 0.56627 0.49999 0.9867 0.0
H502 H 0.55338 0.46963 0.99003 0.0
H503 H 0.54872 0.4436 0.0355 0.0
Mn504 Mn 0.24603 0.83728 0.02634 0.0
Mn505 Mn 0.26324 0.85095 0.92785 0.0
C506 C 0.24281 0.82084 0.95758 0.0
C507 C 0.24931 0.82168 0.09433 0.0
C508 C 0.2307 0.86634 0.96926 0.0
O509 O 0.26305 0.85609 0.05005 0.0
O510 O 0.27604 0.86159 0.98289 0.0
C511 C 0.29764 0.83436 0.936 0.0
N512 N 0.28255 0.83691 0.9113 0.0
C513 C 0.29182 0.81852 0.8475 0.0
C514 C 0.30756 0.81586 0.87201 0.0
C515 C 0.31045 0.82376 0.91654 0.0
C516 C 0.27956 0.82924 0.86863 0.0
H517 H 0.29984 0.84029 0.97037 0.0
C518 C 0.2746 0.86355 0.02713 0.0
O519 O 0.23762 0.83367 0.09045 0.0
O520 O 0.2594 0.81934 0.05966 0.0
N521 N 0.25211 0.84142 0.87192 0.0
C522 C 0.23582 0.84436 0.85431 0.0
C523 C 0.23062 0.83691 0.81063 0.0
C524 C 0.24226 0.82664 0.78537 0.0
C525 C 0.25898 0.82384 0.80412 0.0
C526 C 0.26346 0.8317 0.84767 0.0
H527 H 0.22685 0.85233 0.87342 0.0
O528 O 0.23241 0.81859 0.99127 0.0
O529 O 0.25473 0.83248 0.96539 0.0
O530 O 0.22936 0.85584 0.00228 0.0
O531 O 0.24319 0.86593 0.94126 0.0
C532 C 0.27128 0.81337 0.78162 0.0
C533 C 0.28766 0.81065 0.80339 0.0
H534 H 0.31743 0.80763 0.85722 0.0
H535 H 0.3225 0.82165 0.93585 0.0
H536 H 0.21769 0.8391 0.79642 0.0
H537 H 0.23818 0.82089 0.75173 0.0
H538 H 0.2682 0.80714 0.74788 0.0
H539 H 0.29689 0.80231 0.78615 0.0
Mn540 Mn 0.92234 0.50863 0.75623 0.0
Mn541 Mn 0.9042 0.48949 0.84646 0.0
C542 C 0.93615 0.50957 0.82937 0.0
C543 C 0.93996 0.5071 0.69152 0.0
C544 C 0.89232 0.52412 0.8108 0.0
O545 O 0.90407 0.49292 0.72367 0.0
O546 O 0.89402 0.48013 0.78645 0.0
C547 C 0.9175 0.45401 0.82966 0.0
N548 N 0.91573 0.46822 0.85856 0.0
C549 C 0.92937 0.45381 0.92295 0.0
C550 C 0.93131 0.43898 0.89395 0.0
C551 C 0.92545 0.43913 0.84701 0.0
C552 C 0.92159 0.46833 0.9035 0.0
H553 H 0.91281 0.45402 0.79372 0.0
C554 C 0.89422 0.48212 0.7424 0.0
O555 O 0.92816 0.51894 0.69583 0.0
O556 O 0.94121 0.49598 0.72418 0.0
N557 N 0.91275 0.49708 0.90717 0.0
C558 C 0.91062 0.5127 0.92979 0.0
C559 C 0.91615 0.51487 0.97681 0.0
C560 C 0.92344 0.50087 1.00032 0.0
C561 C 0.92539 0.48488 0.97636 0.0
C562 C 0.91986 0.48357 0.92939 0.0
H563 H 0.90467 0.52338 0.91212 0.0
O564 O 0.93988 0.52074 0.79864 0.0
O565 O 0.92467 0.49794 0.81619 0.0
O566 O 0.9033 0.52521 0.77881 0.0
O567 O 0.89162 0.51129 0.8374 0.0
C568 C 0.93256 0.47019 0.99724 0.0
C569 C 0.93478 0.45474 0.97041 0.0
H570 H 0.9373 0.42744 0.90733 0.0
H571 H 0.92692 0.42775 0.82439 0.0
H572 H 0.9146 0.52723 0.99507 0.0
H573 H 0.92753 0.50255 0.03674 0.0
H574 H 0.93662 0.47068 0.03381 0.0
H575 H 0.94064 0.44365 0.98665 0.0
H576 H 0.27665 0.31704 0.1594 0.0
H577 H 0.27596 0.29533 0.21971 0.0
H578 H 0.22771 0.27545 0.15941 0.0
H579 H 0.22818 0.29706 0.09984 0.0
H580 H 0.22786 0.27883 0.25625 0.0
H581 H 0.28602 0.24364 0.19607 0.0
H582 H 0.28924 0.26632 0.20948 0.0
H583 H 0.27497 0.25952 0.1614 0.0
C584 C 0.26584 0.30813 0.15931 0.0
C585 C 0.25253 0.30873 0.12467 0.0
C586 C 0.26552 0.29565 0.19352 0.0
C587 C 0.25192 0.28356 0.19353 0.0
C588 C 0.23837 0.28455 0.15994 0.0
H589 H 0.22501 0.19629 0.36446 0.0
H590 H 0.22553 0.2175 0.30282 0.0
C591 C 0.23869 0.29695 0.12585 0.0
C592 C 0.25173 0.2697 0.22804 0.0
H593 H 0.27355 0.23398 0.26453 0.0
C594 C 0.23782 0.269 0.25804 0.0
C595 C 0.26468 0.25682 0.23007 0.0
C596 C 0.27951 0.25644 0.19732 0.0
C597 C 0.23671 0.25598 0.29069 0.0
C598 C 0.24969 0.24311 0.2928 0.0
C599 C 0.26357 0.24379 0.2627 0.0
C600 C 0.24964 0.22942 0.32781 0.0
C601 C 0.22191 0.25639 0.32352 0.0
C602 C 0.26331 0.22863 0.36111 0.0
C603 C 0.2631 0.21652 0.39591 0.0
C604 C 0.24924 0.20481 0.39815 0.0
C605 C 0.23584 0.20514 0.36373 0.0
C606 C 0.23605 0.21735 0.32877 0.0
H607 H 0.21534 0.26916 0.32454 0.0
H608 H 0.21221 0.24644 0.3116 0.0
H609 H 0.22649 0.25344 0.35948 0.0
H610 H 0.27398 0.23773 0.36092 0.0
H611 H 0.27369 0.21659 0.42171 0.0
H612 H 0.94569 0.97762 0.38681 0.0
H613 H 0.96817 0.97858 0.44929 0.0
H614 H 0.97536 0.03316 0.42975 0.0
H615 H 0.95388 0.03177 0.36482 0.0
H616 H 0.00497 0.01805 0.43481 0.0
H617 H 0.96736 0.99546 0.58073 0.0
H618 H 0.9688 0.97876 0.53602 0.0
H619 H 0.95745 0.99844 0.52387 0.0
C620 C 0.95192 0.98985 0.39657 0.0
C621 C 0.94756 0.00483 0.37273 0.0
C622 C 0.96466 0.99043 0.43244 0.0
C623 C 0.97313 0.00606 0.44535 0.0
C624 C 0.96883 0.021 0.42104 0.0
H625 H 0.05658 0.03781 0.64278 0.0
H626 H 0.03448 0.03638 0.57925 0.0
C627 C 0.95637 0.0203 0.3845 0.0
C628 C 0.98741 0.00661 0.48151 0.0
H629 H 0.99823 0.99648 0.59363 0.0
C630 C 0.00343 0.01345 0.46968 0.0
C631 C 0.98556 1.00035 0.52683 0.0
C632 C 0.9688 0.99299 0.54266 0.0
C633 C 0.01763 0.01411 0.50156 0.0
C634 C 0.01572 0.00803 0.547 0.0
C635 C 0.99974 1.00111 0.55879 0.0
C636 C 0.02998 0.00882 0.58323 0.0
C637 C 0.03461 0.02086 0.48558 0.0
C638 C 0.03448 0.99396 0.60759 0.0
C639 C 0.04675 0.99491 0.64454 0.0
C640 C 0.05514 0.01059 0.65684 0.0
C641 C 0.05067 0.02546 0.63272 0.0
C642 C 0.03815 0.0246 0.59624 0.0
H643 H 0.03556 0.01932 0.4471 0.0
H644 H 0.0357 0.03487 0.49511 0.0
H645 H 0.0456 0.01406 0.50237 0.0
H646 H 0.02822 0.98168 0.5987 0.0
H647 H 0.04938 0.98348 0.66427 0.0
H648 H 0.22992 0.71411 0.60527 0.0
H649 H 0.22768 0.7361 0.66823 0.0
H650 H 0.28201 0.73009 0.70372 0.0
H651 H 0.28414 0.70769 0.6409 0.0
H652 H 0.26138 0.72891 0.77977 0.0
H653 H 0.24442 0.78582 0.67617 0.0
H654 H 0.23034 0.76771 0.66281 0.0
H655 H 0.25292 0.76613 0.65019 0.0
C656 C 0.24135 0.71749 0.6267 0.0
C657 C 0.25707 0.70897 0.6196 0.0
C658 C 0.24013 0.73021 0.6621 0.0
C659 C 0.25472 0.73486 0.69024 0.0
C660 C 0.27062 0.72668 0.68223 0.0
H661 H 0.27072 0.80201 0.93537 0.0
H662 H 0.27318 0.78056 0.87124 0.0
C663 C 0.27184 0.71394 0.6466 0.0
C664 C 0.25304 0.74748 0.72976 0.0
H665 H 0.23984 0.78848 0.75787 0.0
C666 C 0.25675 0.74195 0.77501 0.0
C667 C 0.247 0.76451 0.72338 0.0
C668 C 0.2436 0.77147 0.67547 0.0
C669 C 0.2541 0.75281 0.81427 0.0
C670 C 0.2481 0.76985 0.80792 0.0
C671 C 0.24443 0.77541 0.76264 0.0
C672 C 0.24635 0.78241 0.84759 0.0
C673 C 0.25733 0.74572 0.86211 0.0
C674 C 0.23052 0.7908 0.85503 0.0
C675 C 0.22921 0.80329 0.89126 0.0
C676 C 0.24381 0.80777 0.91953 0.0
C677 C 0.25944 0.79903 0.91297 0.0
C678 C 0.26077 0.78661 0.87688 0.0
H679 H 0.25619 0.73138 0.86121 0.0
H680 H 0.27067 0.74914 0.87479 0.0
H681 H 0.24812 0.75119 0.88748 0.0
H682 H 0.21925 0.78774 0.83271 0.0
H683 H 0.21696 0.80972 0.89652 0.0
H684 H 0.44028 0.03427 0.11514 0.0
H685 H 0.46174 0.03452 0.05433 0.0
H686 H 0.48538 0.9887 0.10911 0.0
H687 H 0.46419 0.98845 0.17004 0.0
H688 H 0.50907 0.01496 0.0945 0.0
H689 H 0.46586 0.0027 0.9377 0.0
H690 H 0.45952 0.02049 0.97532 0.0
H691 H 0.45917 0.99886 0.99604 0.0
C692 C 0.44991 0.02413 0.11384 0.0
C693 C 0.45049 0.01133 0.14738 0.0
C694 C 0.46215 0.02426 0.079 0.0
C695 C 0.47509 0.01154 0.07694 0.0
C696 C 0.47551 0.99863 0.10999 0.0
H697 H 0.56364 0.98872 0.90606 0.0
H698 H 0.54231 0.98969 0.96717 0.0
C699 C 0.46333 0.99849 0.14474 0.0
C700 C 0.48866 0.01199 0.04167 0.0
H701 H 0.49508 0.00951 0.92448 0.0
C702 C 0.50602 0.01373 0.05731 0.0
C703 C 0.48466 0.01041 0.99319 0.0
C704 C 0.46632 0.00786 0.97439 0.0
C705 C 0.51949 0.01415 0.02578 0.0
C706 C 0.5155 0.01247 0.9773 0.0
C707 C 0.49812 0.01081 0.96166 0.0
C708 C 0.52911 0.01239 0.94205 0.0
C709 C 0.53781 0.01674 0.04466 0.0
C710 C 0.52874 0.02472 0.90742 0.0
C711 C 0.54083 0.02414 0.87239 0.0
C712 C 0.55354 0.01114 0.87109 0.0
C713 C 0.55412 0.99897 0.9063 0.0
C714 C 0.54196 0.99955 0.94135 0.0
H715 H 0.5382 0.02244 0.08082 0.0
H716 H 0.54443 0.00402 0.04538 0.0
H717 H 0.54516 0.02528 0.02222 0.0
H718 H 0.51893 0.03472 0.90719 0.0
H719 H 0.53999 0.0337 0.84576 0.0
H720 H 0.22735 0.82002 0.16708 0.0
H721 H 0.22762 0.79859 0.22806 0.0
H722 H 0.2733 0.77529 0.17138 0.0
H723 H 0.27325 0.79666 0.11101 0.0
H724 H 0.22512 0.7626 0.21308 0.0
H725 H 0.28631 0.7802 0.31035 0.0
H726 H 0.27563 0.79453 0.27029 0.0
H727 H 0.28868 0.77698 0.24862 0.0
C728 C 0.23762 0.81052 0.16816 0.0
C729 C 0.25031 0.81009 0.1343 0.0
C730 C 0.23771 0.79824 0.20287 0.0
C731 C 0.25059 0.78545 0.20458 0.0
C732 C 0.26344 0.78523 0.17134 0.0
H733 H 0.27178 0.69576 0.37227 0.0
H734 H 0.27118 0.71715 0.31122 0.0
C735 C 0.26334 0.79744 0.13669 0.0
C736 C 0.25008 0.77169 0.23925 0.0
H737 H 0.27369 0.75316 0.32708 0.0
C738 C 0.23567 0.76061 0.23826 0.0
C739 C 0.26393 0.76903 0.2718 0.0
C740 C 0.27945 0.7809 0.27575 0.0
C741 C 0.23487 0.74675 0.26841 0.0
C742 C 0.24873 0.74407 0.3009 0.0
C743 C 0.26313 0.75516 0.30192 0.0
C744 C 0.24829 0.73025 0.3354 0.0
C745 C 0.21935 0.73488 0.26453 0.0
C746 C 0.23557 0.73045 0.36899 0.0
C747 C 0.23586 0.71826 0.40374 0.0
C748 C 0.24895 0.70566 0.40581 0.0
C749 C 0.26147 0.70522 0.37147 0.0
C750 C 0.26119 0.71747 0.33671 0.0
H751 H 0.21238 0.73568 0.23011 0.0
H752 H 0.2232 0.72124 0.26962 0.0
H753 H 0.21021 0.73871 0.29197 0.0
H754 H 0.22569 0.74036 0.36923 0.0
H755 H 0.22608 0.71903 0.42978 0.0
H756 H 0.44499 0.04023 0.39156 0.0
H757 H 0.46619 0.03791 0.45698 0.0
H758 H 0.4779 0.98567 0.41015 0.0
H759 H 0.45637 0.98786 0.34586 0.0
H760 H 0.47521 0.9879 0.50282 0.0
H761 H 0.51783 0.0404 0.44817 0.0
H762 H 0.4961 0.04753 0.45706 0.0
H763 H 0.5003 0.03176 0.41111 0.0
C764 C 0.45208 0.02828 0.39566 0.0
C765 C 0.44892 0.01409 0.3647 0.0
C766 C 0.46424 0.02698 0.43263 0.0
C767 C 0.47384 0.01171 0.43794 0.0
C768 C 0.47067 0.99757 0.40669 0.0
H769 H 0.55428 0.97631 0.63283 0.0
H770 H 0.53198 0.97846 0.57012 0.0
C771 C 0.45837 0.9988 0.37019 0.0
C772 C 0.48719 0.01038 0.47599 0.0
H773 H 0.52394 0.02928 0.52276 0.0
C774 C 0.48585 0.99695 0.50722 0.0
C775 C 0.50126 0.02204 0.4813 0.0
C776 C 0.50409 0.03613 0.44736 0.0
C777 C 0.4979 0.99513 0.54444 0.0
C778 C 0.51206 0.00673 0.54958 0.0
C779 C 0.51332 0.0202 0.51843 0.0
C780 C 0.52571 0.00525 0.58694 0.0
C781 C 0.49491 0.98115 0.57861 0.0
C782 C 0.53011 0.01973 0.61594 0.0
C783 C 0.54319 0.01863 0.65047 0.0
C784 C 0.55209 0.00305 0.65656 0.0
C785 C 0.54759 0.98847 0.62827 0.0
C786 C 0.53475 0.98966 0.59294 0.0
H787 H 0.48102 0.9775 0.57894 0.0
H788 H 0.50224 0.96942 0.56802 0.0
H789 H 0.49928 0.98532 0.6146 0.0
H790 H 0.52339 0.0319 0.612 0.0
H791 H 0.54625 0.02992 0.67274 0.0
H792 H 0.2202 0.2031 0.63475 0.0
H793 H 0.22181 0.22557 0.69776 0.0
H794 H 0.27438 0.23694 0.6636 0.0
H795 H 0.27267 0.21467 0.60041 0.0
H796 H 0.24558 0.22764 0.77554 0.0
H797 H 0.25053 0.28448 0.66424 0.0
H798 H 0.24344 0.26348 0.64139 0.0
H799 H 0.26608 0.26775 0.65281 0.0
C800 C 0.23207 0.2104 0.64105 0.0
C801 C 0.2465 0.20692 0.61413 0.0
C802 C 0.23298 0.22319 0.67678 0.0
C803 C 0.24817 0.23296 0.68501 0.0
C804 C 0.26248 0.22968 0.65741 0.0
H805 H 0.28122 0.31324 0.88831 0.0
H806 H 0.27924 0.29129 0.82401 0.0
C807 C 0.26159 0.21685 0.62189 0.0
C808 C 0.24918 0.24635 0.72313 0.0
H809 H 0.25521 0.2896 0.74583 0.0
C810 C 0.24762 0.24119 0.76911 0.0
C811 C 0.25184 0.26401 0.71445 0.0
C812 C 0.25292 0.27034 0.66554 0.0
C813 C 0.249 0.2532 0.80689 0.0
C814 C 0.25166 0.27086 0.79822 0.0
C815 C 0.25319 0.27603 0.75224 0.0
C816 C 0.25278 0.28418 0.83647 0.0
C817 C 0.24794 0.24684 0.85579 0.0
C818 C 0.23853 0.28746 0.86426 0.0
C819 C 0.23963 0.29998 0.90055 0.0
C820 C 0.25488 0.30961 0.90887 0.0
C821 C 0.26923 0.30617 0.8816 0.0
C822 C 0.26811 0.29369 0.84511 0.0
H823 H 0.25025 0.23269 0.85702 0.0
H824 H 0.2575 0.25364 0.87986 0.0
H825 H 0.23483 0.24951 0.8687 0.0
H826 H 0.22654 0.28038 0.8578 0.0
H827 H 0.22861 0.30211 0.92227 0.0
H828 H 0.05924 0.03155 0.91133 0.0
H829 H 0.03775 0.03021 0.97194 0.0
H830 H 0.01748 0.98269 0.90808 0.0
H831 H 0.03862 0.98406 0.8473 0.0
H832 H 0.99182 0.00584 0.92888 0.0
H833 H 0.0366 0.99884 0.08257 0.0
H834 H 0.04106 0.01729 0.0488 0.0
H835 H 0.0435 0.99586 0.0234 0.0
C836 C 0.05031 0.02074 0.9105 0.0
C837 C 0.05069 0.0079 0.87452 0.0
C838 C 0.03807 0.01994 0.94526 0.0
C839 C 0.0261 0.00623 0.94492 0.0
C840 C 0.02657 0.99337 0.90919 0.0
H841 H 0.93977 0.98 0.12096 0.0
H842 H 0.96087 0.97999 0.05893 0.0
C843 C 0.03873 0.99417 0.87448 0.0
C844 C 0.01268 0.00549 0.9807 0.0
H845 H 0.00703 0.00382 0.09801 0.0
C846 C 0.99514 0.00531 0.96586 0.0
C847 C 0.017 0.00472 0.02894 0.0
C848 C 0.03556 0.00402 0.04698 0.0
C849 C 0.98185 0.00482 0.99795 0.0
C850 C 0.98618 0.00423 0.0462 0.0
C851 C 0.00371 0.00427 0.06101 0.0
C852 C 0.97281 0.0043 0.08221 0.0
C853 C 0.96328 0.00543 0.98006 0.0
C854 C 0.97256 0.01785 0.11601 0.0
C855 C 0.96062 0.01785 0.15135 0.0
C856 C 0.94865 0.00423 0.15397 0.0
C857 C 0.94872 0.99073 0.11974 0.0
C858 C 0.96075 0.99074 0.08421 0.0
H859 H 0.96218 0.00979 0.94361 0.0
H860 H 0.95755 0.99229 0.98069 0.0
H861 H 0.95555 0.01424 0.00252 0.0
H862 H 0.98171 0.02844 0.11523 0.0
H863 H 0.96097 0.02847 0.17706 0.0
H864 H 0.77382 0.71729 0.92402 0.0
H865 H 0.77359 0.73837 0.86302 0.0
H866 H 0.72621 0.71624 0.80332 0.0
H867 H 0.72621 0.69507 0.86513 0.0
H868 H 0.77408 0.73406 0.76703 0.0
H869 H 0.71412 0.76758 0.82082 0.0
H870 H 0.72546 0.75249 0.85741 0.0
H871 H 0.71182 0.7447 0.80901 0.0
C872 C 0.76333 0.71682 0.89791 0.0
C873 C 0.74996 0.70453 0.89967 0.0
C874 C 0.76325 0.72891 0.86297 0.0
C875 C 0.74976 0.7291 0.82899 0.0
C876 C 0.73659 0.71656 0.82974 0.0
H877 H 0.72741 0.79435 0.59582 0.0
H878 H 0.72744 0.773 0.65619 0.0
C879 C 0.73666 0.70439 0.86485 0.0
C880 C 0.74964 0.74253 0.79314 0.0
H881 H 0.72679 0.777 0.75242 0.0
C882 C 0.76375 0.74346 0.76385 0.0
C883 C 0.73621 0.75487 0.78918 0.0
C884 C 0.7211 0.75503 0.82099 0.0
C885 C 0.76465 0.75618 0.73026 0.0
C886 C 0.75124 0.76853 0.72636 0.0
C887 C 0.73711 0.76758 0.75557 0.0
C888 C 0.75122 0.78209 0.69085 0.0
C889 C 0.77977 0.75603 0.69848 0.0
C890 C 0.76444 0.7946 0.69068 0.0
C891 C 0.76447 0.80693 0.65598 0.0
C892 C 0.75125 0.80696 0.62097 0.0
C893 C 0.73784 0.79469 0.62211 0.0
C894 C 0.73781 0.78244 0.65668 0.0
H895 H 0.78669 0.74345 0.69844 0.0
H896 H 0.77544 0.75868 0.66211 0.0
H897 H 0.78909 0.76629 0.71067 0.0
H898 H 0.77475 0.7948 0.71727 0.0
H899 H 0.77495 0.81623 0.65617 0.0
H900 H 0.77671 0.30722 0.40696 0.0
H901 H 0.78017 0.287 0.34188 0.0
H902 H 0.72676 0.27134 0.35224 0.0
H903 H 0.72254 0.29514 0.40896 0.0
H904 H 0.7821 0.25971 0.31859 0.0
H905 H 0.72074 0.27295 0.22295 0.0
H906 H 0.72703 0.2856 0.27431 0.0
H907 H 0.71563 0.26525 0.27862 0.0
C908 C 0.76544 0.30038 0.39243 0.0
C909 C 0.74901 0.30418 0.40856 0.0
C910 C 0.7675 0.28814 0.35632 0.0
C911 C 0.75339 0.27803 0.33868 0.0
C912 C 0.7375 0.27994 0.36091 0.0
H913 H 0.78457 0.19296 0.14661 0.0
H914 H 0.78216 0.21302 0.21345 0.0
C915 C 0.73515 0.29332 0.39428 0.0
C916 C 0.7556 0.2656 0.29788 0.0
H917 H 0.73464 0.24645 0.2031 0.0
C918 C 0.7718 0.2576 0.29236 0.0
C919 C 0.74247 0.26231 0.26268 0.0
C920 C 0.72562 0.27218 0.25974 0.0
C921 C 0.77549 0.24748 0.25239 0.0
C922 C 0.76184 0.24268 0.22009 0.0
C923 C 0.74539 0.24995 0.22687 0.0
C924 C 0.76401 0.23037 0.17909 0.0
C925 C 0.79426 0.24325 0.24467 0.0
C926 C 0.75411 0.23251 0.13742 0.0
C927 C 0.75405 0.21987 0.10153 0.0
C928 C 0.76465 0.20533 0.10519 0.0
C929 C 0.77584 0.20386 0.14415 0.0
C930 C 0.77488 0.21577 0.1818 0.0
H931 H 0.80285 0.25374 0.25964 0.0
H932 H 0.79783 0.23133 0.26308 0.0
H933 H 0.79694 0.24154 0.20705 0.0
H934 H 0.74607 0.24379 0.13265 0.0
H935 H 0.74576 0.22149 0.0707 0.0
H936 H 0.77966 0.1948 0.8575 0.0
H937 H 0.78088 0.21679 0.79799 0.0
H938 H 0.73646 0.24222 0.85551 0.0
H939 H 0.73527 0.22061 0.91496 0.0
H940 H 0.75607 0.22731 0.73016 0.0
H941 H 0.77235 0.2811 0.85746 0.0
H942 H 0.77388 0.25866 0.87225 0.0
H943 H 0.75325 0.26939 0.87098 0.0
C944 C 0.7701 0.20501 0.85718 0.0
C945 C 0.75747 0.20604 0.89119 0.0
C946 C 0.77083 0.21759 0.82329 0.0
C947 C 0.75901 0.23138 0.82306 0.0
C948 C 0.74599 0.23197 0.85578 0.0
H949 H 0.73492 0.31932 0.65469 0.0
H950 H 0.73679 0.29753 0.7146 0.0
C951 C 0.74527 0.21951 0.88957 0.0
C952 C 0.76014 0.24522 0.78876 0.0
H953 H 0.76403 0.28902 0.78031 0.0
C954 C 0.75799 0.24078 0.74103 0.0
C955 C 0.76261 0.2628 0.80308 0.0
C956 C 0.76582 0.26829 0.8537 0.0
C957 C 0.75771 0.25351 0.70732 0.0
C958 C 0.75991 0.27112 0.72172 0.0
C959 C 0.76228 0.27553 0.76939 0.0
C960 C 0.75962 0.28513 0.68771 0.0
C961 C 0.75452 0.24807 0.65665 0.0
C962 C 0.77218 0.28575 0.65381 0.0
C963 C 0.77118 0.29819 0.61972 0.0
C964 C 0.75763 0.31032 0.61896 0.0
C965 C 0.74551 0.31018 0.6543 0.0
C966 C 0.74653 0.29771 0.68847 0.0
H967 H 0.74911 0.23477 0.65254 0.0
H968 H 0.74548 0.25712 0.63912 0.0
H969 H 0.76695 0.24829 0.63856 0.0
H970 H 0.78259 0.2764 0.65319 0.0
H971 H 0.78078 0.29798 0.59316 0.0
H972 H 0.77634 0.70933 0.11102 0.0
H973 H 0.7772 0.73067 0.17626 0.0
H974 H 0.72251 0.72305 0.19321 0.0
H975 H 0.72211 0.70061 0.13065 0.0
H976 H 0.76231 0.76004 0.18173 0.0
H977 H 0.73819 0.72215 0.32514 0.0
H978 H 0.74185 0.71233 0.26853 0.0
H979 H 0.72194 0.7235 0.27924 0.0
C980 C 0.76474 0.71167 0.13026 0.0
C981 C 0.7494 0.70272 0.11779 0.0
C982 C 0.76513 0.72407 0.16695 0.0
C983 C 0.75 0.72821 0.19065 0.0
C984 C 0.7345 0.71964 0.17692 0.0
H985 H 0.72515 0.80357 0.40964 0.0
H986 H 0.72413 0.78243 0.34394 0.0
C987 C 0.73423 0.70693 0.14098 0.0
C988 C 0.75024 0.74241 0.22706 0.0
H989 H 0.73894 0.75297 0.33839 0.0
C990 C 0.7573 0.75843 0.21612 0.0
C991 C 0.74353 0.74045 0.27184 0.0
C992 C 0.73611 0.72361 0.28695 0.0
C993 C 0.7577 0.77255 0.24827 0.0
C994 C 0.75102 0.77059 0.29306 0.0
C995 C 0.74395 0.75457 0.30399 0.0
C996 C 0.75134 0.78476 0.32956 0.0
C997 C 0.76507 0.78942 0.23318 0.0
C998 C 0.7669 0.79321 0.34336 0.0
C999 C 0.76726 0.8058 0.37963 0.0
C1000 C 0.75214 0.81001 0.40301 0.0
C1001 C 0.73673 0.80122 0.39031 0.0
C1002 C 0.73625 0.78894 0.35335 0.0
H1003 H 0.76307 0.79085 0.19496 0.0
H1004 H 0.75921 0.80066 0.25146 0.0
H1005 H 0.77923 0.78962 0.24114 0.0
H1006 H 0.77886 0.78978 0.32696 0.0
H1007 H 0.77944 0.812 0.3901 0.0
H1008 H 0.55839 0.53478 0.1313 0.0
H1009 H 0.53636 0.53362 0.06733 0.0
H1010 H 0.52413 0.48104 0.09943 0.0
H1011 H 0.54618 0.48222 0.16323 0.0
H1012 H 0.52715 0.4864 0.00316 0.0
H1013 H 0.48402 0.53479 0.08668 0.0
H1014 H 0.50586 0.54206 0.0806 0.0
H1015 H 0.50163 0.52463 0.1183 0.0
C1016 C 0.55107 0.52296 0.12418 0.0
C1017 C 0.55422 0.50841 0.15088 0.0
C1018 C 0.53846 0.52234 0.08803 0.0
C1019 C 0.52852 0.5073 0.07906 0.0
C1020 C 0.53169 0.49275 0.10581 0.0
H1021 H 0.44539 0.47665 0.88036 0.0
H1022 H 0.46756 0.47776 0.94399 0.0
C1023 C 0.54433 0.49337 0.14185 0.0
C1024 C 0.51467 0.50679 0.04214 0.0
H1025 H 0.47639 0.52533 0.0092 0.0
C1026 C 0.51601 0.49484 0.0045 0.0
C1027 C 0.50015 0.51785 0.04416 0.0
C1028 C 0.49768 0.53047 0.08478 0.0
C1029 C 0.50335 0.49383 0.96823 0.0
C1030 C 0.4888 0.50487 0.97029 0.0
C1031 C 0.48749 0.51685 0.0079 0.0
C1032 C 0.47488 0.50433 0.9335 0.0
C1033 C 0.50588 0.48127 0.92753 0.0
C1034 C 0.47131 0.51904 0.90768 0.0
C1035 C 0.45855 0.51845 0.87194 0.0
C1036 C 0.44896 0.50327 0.86223 0.0
C1037 C 0.45249 0.48856 0.888 0.0
C1038 C 0.4652 0.48916 0.92392 0.0
H1039 H 0.51961 0.47719 0.92528 0.0
H1040 H 0.49796 0.46952 0.93199 0.0
H1041 H 0.5017 0.48702 0.89408 0.0
H1042 H 0.47865 0.53086 0.91456 0.0
H1043 H 0.45639 0.52975 0.85131 0.0
H1044 H 0.03819 0.52997 0.34457 0.0
H1045 H 0.01746 0.53012 0.40689 0.0
H1046 H 0.0418 0.48487 0.46296 0.0
H1047 H 0.06277 0.48477 0.40101 0.0
H1048 H 0.99396 0.50448 0.42581 0.0
H1049 H 0.03911 0.51721 0.57817 0.0
H1050 H 0.04516 0.52042 0.51894 0.0
H1051 H 0.04497 0.49903 0.54135 0.0
C1052 C 0.03926 0.52014 0.37041 0.0
C1053 C 0.05219 0.50739 0.36791 0.0
C1054 C 0.02736 0.52022 0.40597 0.0
C1055 C 0.02817 0.50764 0.43996 0.0
C1056 C 0.04112 0.49493 0.4377 0.0
H1057 H 0.96591 0.48397 0.67528 0.0
H1058 H 0.98669 0.48396 0.61307 0.0
C1059 C 0.05305 0.49484 0.40212 0.0
C1060 C 0.01506 0.50746 0.4766 0.0
H1061 H 0.01025 0.50975 0.5946 0.0
C1062 C 0.99751 0.50572 0.46272 0.0
C1063 C 0.0197 0.50905 0.52476 0.0
C1064 C 0.03823 0.51169 0.54183 0.0
C1065 C 0.98452 0.5052 0.49565 0.0
C1066 C 0.98916 0.50677 0.54381 0.0
C1067 C 0.0067 0.50853 0.55769 0.0
C1068 C 0.97605 0.50656 0.58044 0.0
C1069 C 0.96598 0.50257 0.4786 0.0
C1070 C 0.96314 0.5193 0.5829 0.0
C1071 C 0.95118 0.51932 0.61843 0.0
C1072 C 0.95198 0.50666 0.65236 0.0
C1073 C 0.96489 0.49388 0.64965 0.0
C1074 C 0.97681 0.49387 0.61416 0.0
H1075 H 0.96509 0.49714 0.44218 0.0
H1076 H 0.95908 0.49377 0.50137 0.0
H1077 H 0.95923 0.51522 0.47936 0.0
H1078 H 0.96249 0.52942 0.55783 0.0
H1079 H 0.94149 0.52941 0.6197 0.0
H1080 H 0.05738 0.47708 0.13147 0.0
H1081 H 0.03543 0.47808 0.06753 0.0
H1082 H 0.02975 0.53301 0.09415 0.0
H1083 H 0.05157 0.53197 0.15804 0.0
H1084 H 0.0014 0.48879 0.08113 0.0
H1085 H 0.03187 0.52961 0.95145 0.0
H1086 H 0.04418 0.5175 0.99368 0.0
H1087 H 0.03381 0.53741 0.01125 0.0
C1088 C 0.0517 0.4894 0.12278 0.0
C1089 C 0.05648 0.50454 0.14847 0.0
C1090 C 0.03919 0.48997 0.08641 0.0
C1091 C 0.03118 0.50567 0.07554 0.0
C1092 C 0.03611 0.52085 0.101 0.0
H1093 H 0.94632 0.53566 0.89007 0.0
H1094 H 0.96815 0.53426 0.95419 0.0
C1095 C 0.0486 0.52026 0.13736 0.0
C1096 C 0.01644 0.50587 0.04105 0.0
H1097 H 0.00223 0.52342 0.9392 0.0
C1098 C 0.00162 0.49625 0.04989 0.0
C1099 C 0.01669 0.51573 0.0006 0.0
C1100 C 0.03252 0.5256 0.98825 0.0
C1101 C 0.98695 0.49645 0.01966 0.0
C1102 C 0.98718 0.50636 0.97931 0.0
C1103 C 0.00202 0.51594 0.97042 0.0
C1104 C 0.9724 0.50671 0.94499 0.0
C1105 C 0.97114 0.48651 0.03183 0.0
C1106 C 0.96752 0.49168 0.91883 0.0
C1107 C 0.95511 0.49249 0.88232 0.0
C1108 C 0.94726 0.5083 0.8718 0.0
C1109 C 0.95198 0.52328 0.89828 0.0
C1110 C 0.96441 0.52248 0.93477 0.0
H1111 H 0.97184 0.48229 0.06844 0.0
H1112 H 0.95947 0.49464 0.02685 0.0
H1113 H 0.96979 0.47482 0.00836 0.0
H1114 H 0.97387 0.47947 0.92522 0.0
H1115 H 0.95217 0.48092 0.86106 0.0
H1116 H 0.4414 0.48202 0.61026 0.0
H1117 H 0.46305 0.48276 0.54966 0.0
H1118 H 0.48325 0.53076 0.61068 0.0
H1119 H 0.46196 0.53007 0.67109 0.0
H1120 H 0.46995 0.50846 0.48395 0.0
H1121 H 0.52613 0.4996 0.60675 0.0
H1122 H 0.50415 0.49538 0.62222 0.0
H1123 H 0.5122 0.51721 0.62296 0.0
C1124 C 0.4504 0.49277 0.61052 0.0
C1125 C 0.45004 0.5059 0.64571 0.0
C1126 C 0.46277 0.49316 0.57599 0.0
C1127 C 0.475 0.50663 0.5763 0.0
C1128 C 0.47423 0.52003 0.6104 0.0
H1129 H 0.56141 0.53203 0.40196 0.0
H1130 H 0.53972 0.53207 0.46262 0.0
C1131 C 0.46194 0.51965 0.64478 0.0
C1132 C 0.48861 0.50681 0.54111 0.0
H1133 H 0.53246 0.50682 0.52949 0.0
C1134 C 0.48361 0.508 0.49385 0.0
C1135 C 0.50645 0.50634 0.55415 0.0
C1136 C 0.5126 0.50441 0.60422 0.0
C1137 C 0.49596 0.50898 0.45932 0.0
C1138 C 0.5138 0.50844 0.47233 0.0
C1139 C 0.5188 0.50732 0.51962 0.0
C1140 C 0.52739 0.50825 0.43705 0.0
C1141 C 0.48981 0.51088 0.40924 0.0
C1142 C 0.52795 0.49463 0.40355 0.0
C1143 C 0.54025 0.49457 0.36919 0.0
C1144 C 0.55239 0.50808 0.36763 0.0
C1145 C 0.55223 0.52146 0.40218 0.0
C1146 C 0.53984 0.52151 0.43674 0.0
H1147 H 0.47636 0.51588 0.40675 0.0
H1148 H 0.49838 0.51973 0.39102 0.0
H1149 H 0.49 0.49803 0.39072 0.0
H1150 H 0.51876 0.48406 0.40378 0.0
H1151 H 0.54007 0.48396 0.34341 0.0
H1152 H 0.11296 0.45754 0.2496 0.0
H1153 H 0.13324 0.43384 0.23326 0.0
H1154 H 0.15865 0.46516 0.1351 0.0
H1155 H 0.13878 0.48875 0.15115 0.0
H1156 H 0.13819 0.41685 0.14682 0.0
H1157 H 0.19922 0.44725 0.21465 0.0
H1158 H 0.17822 0.45536 0.23016 0.0
H1159 H 0.18738 0.46102 0.17598 0.0
C1160 C 0.12299 0.45944 0.22495 0.0
C1161 C 0.12421 0.47511 0.2018 0.0
C1162 C 0.13455 0.44588 0.21565 0.0
C1163 C 0.14764 0.44786 0.18358 0.0
C1164 C 0.14892 0.46348 0.16078 0.0
H1165 H 0.19895 0.38227 0.99283 0.0
H1166 H 0.1797 0.40068 0.0379 0.0
C1167 C 0.13741 0.47694 0.16981 0.0
C1168 C 0.15935 0.43336 0.17106 0.0
H1169 H 0.202 0.42396 0.15688 0.0
C1170 C 0.15215 0.41825 0.14983 0.0
C1171 C 0.17756 0.43505 0.17564 0.0
C1172 C 0.18605 0.45048 0.20081 0.0
C1173 C 0.16267 0.4053 0.13026 0.0
C1174 C 0.18083 0.40769 0.13134 0.0
C1175 C 0.18807 0.42225 0.15541 0.0
C1176 C 0.19239 0.39598 0.10471 0.0
C1177 C 0.1542 0.38934 0.10779 0.0
C1178 C 0.20627 0.38756 0.1271 0.0
C1179 C 0.21748 0.37706 0.10128 0.0
C1180 C 0.2151 0.37493 0.05248 0.0
C1181 C 0.20121 0.38352 0.03029 0.0
C1182 C 0.19005 0.39396 0.05609 0.0
H1183 H 0.14147 0.38679 0.12292 0.0
H1184 H 0.15193 0.3913 0.06994 0.0
H1185 H 0.16253 0.37777 0.11194 0.0
H1186 H 0.2084 0.38908 0.16456 0.0
H1187 H 0.22803 0.37068 0.11957 0.0
H1188 H 0.7972 0.87249 0.50589 0.0
H1189 H 0.81984 0.89275 0.48425 0.0
H1190 H 0.7885 0.90691 0.36434 0.0
H1191 H 0.76593 0.8873 0.38576 0.0
H1192 H 0.83867 0.89471 0.402 0.0
H1193 H 0.79896 0.9535 0.42904 0.0
H1194 H 0.79293 0.93279 0.45048 0.0
H1195 H 0.78844 0.93768 0.39038 0.0
C1196 C 0.79508 0.88003 0.47515 0.0
C1197 C 0.77956 0.87835 0.44806 0.0
C1198 C 0.80807 0.89154 0.46269 0.0
C1199 C 0.80574 0.90157 0.42306 0.0
C1200 C 0.79045 0.89963 0.39563 0.0
H1201 H 0.88247 0.95987 0.27284 0.0
H1202 H 0.86235 0.93752 0.29674 0.0
C1203 C 0.77752 0.8883 0.40806 0.0
C1204 C 0.81906 0.91423 0.40992 0.0
H1205 H 0.82444 0.95677 0.38612 0.0
C1206 C 0.83565 0.90832 0.3989 0.0
C1207 C 0.81516 0.932 0.40617 0.0
C1208 C 0.79796 0.93942 0.42009 0.0
C1209 C 0.84831 0.91967 0.38343 0.0
C1210 C 0.84414 0.93734 0.37797 0.0
C1211 C 0.82762 0.94321 0.38967 0.0
C1212 C 0.8569 0.95031 0.36305 0.0
C1213 C 0.8661 0.91272 0.37399 0.0
C1214 C 0.86026 0.96511 0.39164 0.0
C1215 C 0.87139 0.97797 0.37774 0.0
C1216 C 0.87965 0.97641 0.3348 0.0
C1217 C 0.8764 0.9615 0.30613 0.0
C1218 C 0.86502 0.94862 0.31999 0.0
H1219 H 0.86852 0.90028 0.39122 0.0
H1220 H 0.86724 0.91036 0.33584 0.0
H1221 H 0.87629 0.92212 0.38627 0.0
H1222 H 0.8542 0.96678 0.42495 0.0
H1223 H 0.87352 0.98915 0.40109 0.0
H1224 H 0.2734 0.62618 0.6383 0.0
H1225 H 0.2965 0.60554 0.65212 0.0
H1226 H 0.32366 0.62446 0.53577 0.0
H1227 H 0.30047 0.64549 0.52154 0.0
H1228 H 0.30959 0.57913 0.59062 0.0
H1229 H 0.35917 0.62851 0.64843 0.0
H1230 H 0.33638 0.63351 0.64476 0.0
H1231 H 0.3483 0.63095 0.59251 0.0
C1232 C 0.28422 0.62604 0.61539 0.0
C1233 C 0.28506 0.63764 0.57887 0.0
C1234 C 0.29741 0.61414 0.62333 0.0
C1235 C 0.31183 0.61354 0.5952 0.0
C1236 C 0.3127 0.62485 0.55819 0.0
H1237 H 0.38729 0.52999 0.65108 0.0
H1238 H 0.36858 0.54958 0.60677 0.0
C1239 C 0.29941 0.63682 0.55005 0.0
C1240 C 0.32597 0.60126 0.60618 0.0
H1241 H 0.36657 0.59936 0.65666 0.0
C1242 C 0.32219 0.58348 0.60425 0.0
C1243 C 0.34231 0.60705 0.62423 0.0
C1244 C 0.34687 0.62603 0.628 0.0
C1245 C 0.33404 0.57138 0.62182 0.0
C1246 C 0.35014 0.57724 0.6414 0.0
C1247 C 0.35422 0.59493 0.64142 0.0
C1248 C 0.362 0.56557 0.667 0.0
C1249 C 0.32886 0.55257 0.62185 0.0
C1250 C 0.36469 0.56825 0.71531 0.0
C1251 C 0.37531 0.55715 0.74066 0.0
C1252 C 0.38358 0.54311 0.71823 0.0
C1253 C 0.38106 0.54059 0.66956 0.0
C1254 C 0.37035 0.55174 0.64417 0.0
H1255 H 0.31499 0.55056 0.61161 0.0
H1256 H 0.33674 0.54503 0.59677 0.0
H1257 H 0.33134 0.54732 0.65696 0.0
H1258 H 0.35836 0.57885 0.73359 0.0
H1259 H 0.377 0.55962 0.77797 0.0
H1260 H 0.70001 0.13801 0.02815 0.0
H1261 H 0.67972 0.11799 0.98804 0.0
H1262 H 0.70504 0.12479 0.85868 0.0
H1263 H 0.7257 0.14498 0.89863 0.0
H1264 H 0.66581 0.12633 0.85828 0.0
H1265 H 0.6946 0.06816 0.93876 0.0
H1266 H 0.69034 0.08623 0.97795 0.0
H1267 H 0.70642 0.08818 0.93491 0.0
C1268 C 0.70135 0.13537 0.99112 0.0
C1269 C 0.71466 0.14303 0.96671 0.0
C1270 C 0.68972 0.12386 0.96835 0.0
C1271 C 0.69109 0.11976 0.92073 0.0
C1272 C 0.70391 0.12776 0.89565 0.0
H1273 H 0.63152 0.05446 0.72423 0.0
H1274 H 0.65111 0.07545 0.76302 0.0
C1275 C 0.71567 0.13928 0.9185 0.0
C1276 C 0.67914 0.10696 0.89762 0.0
H1277 H 0.66826 0.06416 0.89512 0.0
C1278 C 0.66637 0.11271 0.866 0.0
C1279 C 0.67987 0.08929 0.90839 0.0
C1280 C 0.6936 0.08248 0.9416 0.0
C1281 C 0.65405 0.10123 0.8452 0.0
C1282 C 0.65486 0.08349 0.85561 0.0
C1283 C 0.66765 0.07777 0.88734 0.0
C1284 C 0.64294 0.07055 0.8326 0.0
C1285 C 0.64007 0.10826 0.8131 0.0
C1286 C 0.63225 0.06035 0.85905 0.0
C1287 C 0.62106 0.0481 0.83696 0.0
C1288 C 0.62046 0.04585 0.78804 0.0
C1289 C 0.63145 0.05593 0.76191 0.0
C1290 C 0.64263 0.06805 0.78398 0.0
H1291 H 0.63816 0.12237 0.81969 0.0
H1292 H 0.64388 0.10624 0.77639 0.0
H1293 H 0.62756 0.10153 0.81718 0.0
H1294 H 0.63245 0.062 0.89674 0.0
H1295 H 0.61281 0.04055 0.85813 0.0
H1296 H 0.11398 0.53401 0.37188 0.0
H1297 H 0.1339 0.5532 0.41818 0.0
H1298 H 0.1518 0.57448 0.29185 0.0
H1299 H 0.13228 0.55555 0.24556 0.0
H1300 H 0.17855 0.5645 0.35695 0.0
H1301 H 0.12853 0.60664 0.43733 0.0
H1302 H 0.12623 0.58368 0.44302 0.0
H1303 H 0.12382 0.59272 0.38648 0.0
C1304 C 0.12215 0.54279 0.35401 0.0
C1305 C 0.12147 0.54321 0.30497 0.0
C1306 C 0.13346 0.55377 0.38049 0.0
C1307 C 0.14419 0.56531 0.3583 0.0
C1308 C 0.14361 0.56566 0.30956 0.0
H1309 H 0.22188 0.64395 0.4226 0.0
H1310 H 0.20198 0.62255 0.38523 0.0
C1311 C 0.13238 0.5548 0.28319 0.0
C1312 C 0.15622 0.57709 0.38519 0.0
H1313 H 0.15767 0.61344 0.45632 0.0
C1314 C 0.17403 0.57515 0.37895 0.0
C1315 C 0.15021 0.59094 0.41369 0.0
C1316 C 0.13116 0.59379 0.42049 0.0
C1317 C 0.18605 0.58679 0.40033 0.0
C1318 C 0.18002 0.60093 0.42784 0.0
C1319 C 0.16222 0.60265 0.43491 0.0
C1320 C 0.19196 0.61403 0.45 0.0
C1321 C 0.20508 0.58375 0.39364 0.0
C1322 C 0.19254 0.61665 0.49859 0.0
C1323 C 0.20372 0.62894 0.51997 0.0
C1324 C 0.21458 0.63892 0.49317 0.0
C1325 C 0.21381 0.63642 0.44432 0.0
C1326 C 0.20252 0.62413 0.42292 0.0
H1327 H 0.20772 0.57011 0.38261 0.0
H1328 H 0.20954 0.59216 0.36598 0.0
H1329 H 0.21279 0.58696 0.42624 0.0
H1330 H 0.18443 0.60905 0.52007 0.0
H1331 H 0.20389 0.63048 0.55766 0.0
H1332 H 0.61261 0.95805 0.75385 0.0
H1333 H 0.63321 0.93444 0.73961 0.0
H1334 H 0.65685 0.964 0.63452 0.0
H1335 H 0.63665 0.98749 0.64847 0.0
H1336 H 0.63735 0.91589 0.65516 0.0
H1337 H 0.69866 0.94814 0.71286 0.0
H1338 H 0.67779 0.95631 0.72929 0.0
H1339 H 0.68613 0.96101 0.67338 0.0
C1340 C 0.62234 0.9596 0.72814 0.0
C1341 C 0.62294 0.97471 0.70238 0.0
C1342 C 0.63408 0.9461 0.72005 0.0
C1343 C 0.64676 0.9476 0.6866 0.0
C1344 C 0.64746 0.96271 0.66128 0.0
H1345 H 0.69596 0.88098 0.49671 0.0
H1346 H 0.6773 0.89947 0.54325 0.0
C1347 C 0.63575 0.97611 0.66909 0.0
C1348 C 0.65852 0.93304 0.67507 0.0
H1349 H 0.70103 0.92396 0.6574 0.0
C1350 C 0.65129 0.9175 0.65656 0.0
C1351 C 0.67673 0.93503 0.67755 0.0
C1352 C 0.68529 0.95097 0.69982 0.0
C1353 C 0.66173 0.9044 0.6374 0.0
C1354 C 0.67981 0.90705 0.63615 0.0
C1355 C 0.68715 0.92204 0.65775 0.0
C1356 C 0.69106 0.89525 0.60886 0.0
C1357 C 0.65324 0.88803 0.61754 0.0
C1358 C 0.70533 0.88704 0.63008 0.0
C1359 C 0.71619 0.87645 0.60338 0.0
C1360 C 0.71308 0.87406 0.55488 0.0
C1361 C 0.69881 0.88245 0.5339 0.0
C1362 C 0.68798 0.89293 0.56055 0.0
H1363 H 0.6408 0.88555 0.63434 0.0
H1364 H 0.65039 0.88939 0.57966 0.0
H1365 H 0.66182 0.87667 0.62206 0.0
H1366 H 0.70803 0.88881 0.66728 0.0
H1367 H 0.72706 0.87024 0.62071 0.0
H1368 H 0.39274 0.45489 0.78026 0.0
H1369 H 0.37394 0.43177 0.80618 0.0
H1370 H 0.34513 0.46937 0.88627 0.0
H1371 H 0.3638 0.49231 0.86137 0.0
H1372 H 0.35465 0.44149 0.9375 0.0
H1373 H 0.32394 0.4199 0.7668 0.0
H1374 H 0.34718 0.41974 0.76978 0.0
H1375 H 0.33584 0.43994 0.77452 0.0
C1376 C 0.38222 0.45824 0.80278 0.0
C1377 C 0.37982 0.47549 0.81867 0.0
C1378 C 0.37149 0.44501 0.81761 0.0
C1379 C 0.35807 0.44883 0.84813 0.0
C1380 C 0.35544 0.46607 0.86297 0.0
H1381 H 0.26598 0.39584 0.91271 0.0
H1382 H 0.28896 0.41442 0.88742 0.0
C1383 C 0.36613 0.4792 0.84848 0.0
C1384 C 0.34691 0.43505 0.86607 0.0
H1385 H 0.31587 0.40516 0.83296 0.0
C1386 C 0.34626 0.43343 0.91464 0.0
C1387 C 0.33591 0.42462 0.83625 0.0
C1388 C 0.33557 0.42615 0.78395 0.0
C1389 C 0.33459 0.42206 0.93423 0.0
C1390 C 0.32344 0.41176 0.90442 0.0
C1391 C 0.32445 0.41302 0.85581 0.0
C1392 C 0.30965 0.40068 0.92265 0.0
C1393 C 0.33375 0.42176 0.98666 0.0
C1394 C 0.31355 0.38685 0.9517 0.0
C1395 C 0.30031 0.3762 0.9668 0.0
C1396 C 0.28297 0.37908 0.9526 0.0
C1397 C 0.27917 0.39316 0.92429 0.0
C1398 C 0.29232 0.4038 0.90956 0.0
H1399 H 0.34043 0.43309 0.00422 0.0
H1400 H 0.32012 0.4216 0.99749 0.0
H1401 H 0.34016 0.40987 0.99907 0.0
H1402 H 0.32685 0.384 0.9617 0.0
H1403 H 0.30372 0.36535 0.98808 0.0
H1404 H 0.80101 0.14019 0.01046 0.0
H1405 H 0.82289 0.11846 0.02988 0.0
H1406 H 0.79059 0.09955 0.13622 0.0
H1407 H 0.76867 0.12095 0.11698 0.0
H1408 H 0.84007 0.11603 0.11547 0.0
H1409 H 0.80535 0.05488 0.06909 0.0
H1410 H 0.79819 0.07551 0.04813 0.0
H1411 H 0.79302 0.06915 0.1057 0.0
C1412 C 0.79842 0.13123 0.03746 0.0
C1413 C 0.78303 0.13237 0.06211 0.0
C1414 C 0.81096 0.11883 0.04853 0.0
C1415 C 0.80826 0.10722 0.08402 0.0
C1416 C 0.79279 0.1081 0.10798 0.0
H1417 H 0.87459 0.05905 0.28018 0.0
H1418 H 0.85544 0.07707 0.23353 0.0
C1419 C 0.7803 0.12048 0.0971 0.0
C1420 C 0.82212 0.09517 0.09913 0.0
H1421 H 0.82973 0.05291 0.12358 0.0
C1422 C 0.83793 0.10219 0.11649 0.0
C1423 C 0.81942 0.07709 0.09992 0.0
C1424 C 0.80314 0.06868 0.07925 0.0
C1425 C 0.85069 0.09174 0.13708 0.0
C1426 C 0.84745 0.07386 0.14094 0.0
C1427 C 0.8321 0.06666 0.1211 0.0
C1428 C 0.85925 0.06274 0.16853 0.0
C1429 C 0.86739 0.1 0.15539 0.0
C1430 C 0.86745 0.04841 0.14765 0.0
C1431 C 0.87846 0.03795 0.17436 0.0
C1432 C 0.88127 0.04155 0.22255 0.0
C1433 C 0.8728 0.05584 0.24324 0.0
C1434 C 0.86191 0.06627 0.21655 0.0
H1435 H 0.87 0.11224 0.13784 0.0
H1436 H 0.86647 0.1031 0.19329 0.0
H1437 H 0.8785 0.09111 0.15047 0.0
H1438 H 0.86544 0.0454 0.11066 0.0
H1439 H 0.88472 0.02704 0.15727 0.0
H1440 H 0.80539 0.63081 0.02683 0.0
H1441 H 0.82434 0.6125 0.98069 0.0
H1442 H 0.79453 0.62382 0.85561 0.0
H1443 H 0.77519 0.64221 0.90176 0.0
H1444 H 0.80151 0.5887 0.86402 0.0
H1445 H 0.86156 0.62706 0.89264 0.0
H1446 H 0.85156 0.62278 0.94646 0.0
H1447 H 0.84043 0.63581 0.90424 0.0
C1448 C 0.8028 0.62951 0.9895 0.0
C1449 C 0.78871 0.63805 0.9681 0.0
C1450 C 0.81379 0.61913 0.96308 0.0
C1451 C 0.81108 0.61708 0.9146 0.0
C1452 C 0.79696 0.62539 0.89297 0.0
H1453 H 0.89047 0.5557 0.76915 0.0
H1454 H 0.86998 0.57925 0.78497 0.0
C1455 C 0.78592 0.63587 0.91943 0.0
C1456 C 0.82257 0.60548 0.88745 0.0
H1457 H 0.86521 0.5969 0.87022 0.0
C1458 C 0.81541 0.59065 0.86458 0.0
C1459 C 0.84067 0.60818 0.88737 0.0
C1460 C 0.849 0.62443 0.90858 0.0
C1461 C 0.82599 0.57786 0.84456 0.0
C1462 C 0.84419 0.57986 0.84813 0.0
C1463 C 0.85127 0.59526 0.868 0.0
C1464 C 0.85606 0.56545 0.83607 0.0
C1465 C 0.81759 0.5621 0.82079 0.0
C1466 C 0.85515 0.55002 0.85992 0.0
C1467 C 0.8668 0.53664 0.85119 0.0
C1468 C 0.87975 0.53838 0.81846 0.0
C1469 C 0.88064 0.55387 0.79441 0.0
C1470 C 0.86894 0.56734 0.80338 0.0
H1471 H 0.80431 0.56502 0.80726 0.0
H1472 H 0.82532 0.55705 0.79141 0.0
H1473 H 0.81657 0.5518 0.84643 0.0
H1474 H 0.84561 0.54842 0.88613 0.0
H1475 H 0.86569 0.52498 0.87061 0.0
H1476 H 0.23612 0.12178 0.62302 0.0
H1477 H 0.21335 0.10304 0.64862 0.0
H1478 H 0.17585 0.12954 0.56241 0.0
H1479 H 0.19878 0.14839 0.53581 0.0
H1480 H 0.18444 0.11245 0.69642 0.0
H1481 H 0.16603 0.07875 0.52714 0.0
H1482 H 0.18564 0.09132 0.53553 0.0
H1483 H 0.16517 0.10197 0.52754 0.0
C1484 C 0.22308 0.12359 0.60895 0.0
C1485 C 0.21934 0.13664 0.57714 0.0
C1486 C 0.21004 0.11286 0.62387 0.0
C1487 C 0.19288 0.11481 0.60743 0.0
C1488 C 0.18904 0.12762 0.5751 0.0
H1489 H 0.1083 0.06015 0.74217 0.0
H1490 H 0.12699 0.08343 0.71664 0.0
C1491 C 0.20217 0.13838 0.55989 0.0
C1492 C 0.17919 0.10353 0.62528 0.0
H1493 H 0.15058 0.07126 0.59259 0.0
C1494 C 0.17692 0.10353 0.6737 0.0
C1495 C 0.16946 0.09183 0.59565 0.0
C1496 C 0.17173 0.09079 0.54361 0.0
C1497 C 0.16555 0.09187 0.69337 0.0
C1498 C 0.15597 0.08004 0.66377 0.0
C1499 C 0.15789 0.08037 0.61526 0.0
C1500 C 0.14501 0.06623 0.6823 0.0
C1501 C 0.16446 0.09179 0.74576 0.0
C1502 C 0.14893 0.04886 0.6718 0.0
C1503 C 0.13831 0.03563 0.68611 0.0
C1504 C 0.12342 0.03939 0.71135 0.0
C1505 C 0.11977 0.05679 0.72329 0.0
C1506 C 0.13043 0.07011 0.70864 0.0
H1507 H 0.17523 0.09919 0.76382 0.0
H1508 H 0.1521 0.09782 0.75609 0.0
H1509 H 0.1647 0.07835 0.75806 0.0
H1510 H 0.16015 0.04552 0.65179 0.0
H1511 H 0.1416 0.0224 0.67638 0.0
H1512 H 0.69881 0.36472 0.50125 0.0
H1513 H 0.67467 0.38496 0.48802 0.0
H1514 H 0.70159 0.40673 0.37507 0.0
H1515 H 0.72541 0.38693 0.3876 0.0
H1516 H 0.68725 0.43154 0.44391 0.0
H1517 H 0.64041 0.38229 0.36833 0.0
H1518 H 0.65158 0.3785 0.42327 0.0
H1519 H 0.6634 0.37819 0.37069 0.0
C1520 C 0.69956 0.37384 0.47368 0.0
C1521 C 0.71405 0.37408 0.44541 0.0
C1522 C 0.68577 0.38536 0.46615 0.0
C1523 C 0.68639 0.3973 0.43051 0.0
C1524 C 0.70088 0.39765 0.40282 0.0
H1525 H 0.62714 0.45313 0.24125 0.0
H1526 H 0.64426 0.43345 0.28844 0.0
C1527 C 0.71449 0.3862 0.41001 0.0
C1528 C 0.67203 0.4094 0.42029 0.0
H1529 H 0.63347 0.41151 0.35895 0.0
C1530 C 0.67526 0.42722 0.42639 0.0
C1531 C 0.65653 0.40365 0.39708 0.0
C1532 C 0.65264 0.38463 0.38914 0.0
C1533 C 0.66386 0.43946 0.40746 0.0
C1534 C 0.64877 0.43368 0.38218 0.0
C1535 C 0.64506 0.41588 0.37841 0.0
C1536 C 0.63784 0.44564 0.35464 0.0
C1537 C 0.66864 0.45839 0.4119 0.0
C1538 C 0.62849 0.45906 0.37623 0.0
C1539 C 0.6187 0.47049 0.34923 0.0
C1540 C 0.61805 0.46865 0.30014 0.0
C1541 C 0.62736 0.45506 0.27886 0.0
C1542 C 0.6371 0.4437 0.30581 0.0
H1543 H 0.68203 0.46045 0.42641 0.0
H1544 H 0.66746 0.46439 0.37738 0.0
H1545 H 0.65962 0.46519 0.43551 0.0
H1546 H 0.62871 0.46065 0.41391 0.0
H1547 H 0.61159 0.48069 0.36687 0.0
H1548 H 0.39555 0.94959 0.24734 0.0
H1549 H 0.37509 0.9296 0.20725 0.0
H1550 H 0.35043 0.97235 0.13886 0.0
H1551 H 0.37171 0.99229 0.17697 0.0
H1552 H 0.34239 0.92775 0.21716 0.0
H1553 H 0.35266 0.93923 0.03079 0.0
H1554 H 0.36709 0.94776 0.0768 0.0
H1555 H 0.34708 0.95864 0.06284 0.0
C1556 C 0.38601 0.95465 0.22288 0.0
C1557 C 0.38525 0.97241 0.21483 0.0
C1558 C 0.37426 0.94324 0.20017 0.0
C1559 C 0.36124 0.9494 0.1697 0.0
C1560 C 0.36061 0.96718 0.16115 0.0
H1561 H 0.26906 0.88531 0.10249 0.0
H1562 H 0.28927 0.90683 0.13824 0.0
C1563 C 0.37271 0.97858 0.18301 0.0
C1564 C 0.34784 0.93723 0.14953 0.0
H1565 H 0.32799 0.92254 0.04748 0.0
C1566 C 0.33933 0.92654 0.17997 0.0
C1567 C 0.34388 0.93557 0.10103 0.0
C1568 C 0.35328 0.94579 0.06595 0.0
C1569 C 0.32725 0.91404 0.16333 0.0
C1570 C 0.32293 0.91271 0.11497 0.0
C1571 C 0.33122 0.92361 0.0846 0.0
C1572 C 0.31056 0.89955 0.09455 0.0
C1573 C 0.31981 0.90199 0.19765 0.0
C1574 C 0.31559 0.8886 0.0574 0.0
C1575 C 0.30395 0.87673 0.03617 0.0
C1576 C 0.28708 0.87531 0.05219 0.0
C1577 C 0.28209 0.88597 0.09002 0.0
C1578 C 0.29365 0.8982 0.11056 0.0
H1579 H 0.32824 0.90122 0.22972 0.0
H1580 H 0.30703 0.90694 0.20829 0.0
H1581 H 0.31804 0.88873 0.18203 0.0
H1582 H 0.32855 0.88933 0.04445 0.0
H1583 H 0.30815 0.86869 0.00704 0.0
H1584 H 0.78031 0.37326 0.59698 0.0
H1585 H 0.80028 0.39495 0.63236 0.0
H1586 H 0.81322 0.41105 0.49565 0.0
H1587 H 0.79358 0.38933 0.45988 0.0
H1588 H 0.84189 0.40561 0.55289 0.0
H1589 H 0.79439 0.44737 0.64322 0.0
H1590 H 0.79291 0.42499 0.65712 0.0
H1591 H 0.78805 0.43135 0.59841 0.0
C1592 C 0.78729 0.38149 0.5744 0.0
C1593 C 0.78528 0.37953 0.52556 0.0
C1594 C 0.79863 0.39395 0.5947 0.0
C1595 C 0.80802 0.40476 0.56658 0.0
C1596 C 0.80602 0.40288 0.51794 0.0
H1597 H 0.88819 0.48258 0.64704 0.0
H1598 H 0.86734 0.46476 0.59974 0.0
C1599 C 0.79475 0.39043 0.49761 0.0
C1600 C 0.82052 0.41752 0.58778 0.0
H1601 H 0.82417 0.45199 0.66525 0.0
C1602 C 0.83802 0.4159 0.57703 0.0
C1603 C 0.81536 0.43097 0.61894 0.0
C1604 C 0.79663 0.43392 0.62981 0.0
C1605 C 0.85065 0.42692 0.59831 0.0
C1606 C 0.84555 0.43998 0.63068 0.0
C1607 C 0.828 0.44193 0.64036 0.0
C1608 C 0.85834 0.45075 0.65808 0.0
C1609 C 0.86941 0.42409 0.58761 0.0
C1610 C 0.86003 0.44879 0.70631 0.0
C1611 C 0.87181 0.45886 0.73325 0.0
C1612 C 0.88214 0.47124 0.71259 0.0
C1613 C 0.88048 0.47315 0.66404 0.0
C1614 C 0.86862 0.46297 0.63697 0.0
H1615 H 0.87142 0.41181 0.56719 0.0
H1616 H 0.87401 0.43494 0.56702 0.0
H1617 H 0.87749 0.42389 0.62041 0.0
H1618 H 0.85222 0.43939 0.72317 0.0
H1619 H 0.87272 0.45693 0.77046 0.0
H1620 H 0.26931 0.13574 0.41755 0.0
H1621 H 0.28803 0.115 0.37697 0.0
H1622 H 0.32643 0.12076 0.48939 0.0
H1623 H 0.30767 0.14095 0.53072 0.0
H1624 H 0.32035 0.11649 0.34399 0.0
H1625 H 0.3191 0.06931 0.48408 0.0
H1626 H 0.30491 0.08777 0.48266 0.0
H1627 H 0.32684 0.09008 0.50544 0.0
C1628 C 0.28176 0.13259 0.43358 0.0
C1629 C 0.28687 0.13979 0.47774 0.0
C1630 C 0.29244 0.12076 0.41032 0.0
C1631 C 0.30846 0.116 0.43065 0.0
C1632 C 0.31391 0.12381 0.47366 0.0
H1633 H 0.39416 0.06218 0.30127 0.0
H1634 H 0.37324 0.08401 0.3267 0.0
C1635 C 0.30317 0.13542 0.49718 0.0
C1636 C 0.31938 0.10264 0.40759 0.0
H1637 H 0.34033 0.06465 0.42695 0.0
C1638 C 0.32462 0.10507 0.36192 0.0
C1639 C 0.32468 0.08757 0.43061 0.0
C1640 C 0.31844 0.08341 0.47819 0.0
C1641 C 0.33539 0.09304 0.33915 0.0
C1642 C 0.34143 0.07844 0.36321 0.0
C1643 C 0.33586 0.07589 0.4085 0.0
C1644 C 0.35347 0.06548 0.34263 0.0
C1645 C 0.33989 0.09598 0.28936 0.0
C1646 C 0.34947 0.04778 0.34334 0.0
C1647 C 0.36155 0.03534 0.32997 0.0
C1648 C 0.37785 0.04029 0.31492 0.0
C1649 C 0.38161 0.05799 0.31214 0.0
C1650 C 0.36961 0.07049 0.32645 0.0
H1651 H 0.33004 0.10413 0.27157 0.0
H1652 H 0.35247 0.10288 0.28915 0.0
H1653 H 0.34102 0.08356 0.26902 0.0
H1654 H 0.33713 0.04356 0.35558 0.0
H1655 H 0.35826 0.02179 0.33229 0.0
H1656 H 0.63146 0.52152 0.12864 0.0
H1657 H 0.65134 0.54371 0.10628 0.0
H1658 H 0.63908 0.57501 0.22805 0.0
H1659 H 0.61854 0.55278 0.25063 0.0
H1660 H 0.64073 0.59413 0.1468 0.0
H1661 H 0.69874 0.55284 0.16711 0.0
H1662 H 0.68232 0.54295 0.12918 0.0
H1663 H 0.67815 0.54715 0.18988 0.0
C1664 C 0.63295 0.53303 0.15114 0.0
C1665 C 0.62343 0.53518 0.19195 0.0
C1666 C 0.64443 0.54574 0.13818 0.0
C1667 C 0.647 0.5609 0.16585 0.0
C1668 C 0.6374 0.56334 0.20628 0.0
H1669 H 0.73559 0.62715 0.1421 0.0
H1670 H 0.71319 0.60777 0.16549 0.0
C1671 C 0.62572 0.55058 0.21927 0.0
C1672 C 0.65981 0.57399 0.15213 0.0
H1673 H 0.70218 0.57855 0.12534 0.0
C1674 C 0.6542 0.5908 0.14244 0.0
C1675 C 0.67743 0.56969 0.14675 0.0
C1676 C 0.68458 0.55224 0.15922 0.0
C1677 C 0.66569 0.60331 0.12681 0.0
C1678 C 0.68317 0.59878 0.11977 0.0
C1679 C 0.68876 0.58202 0.13006 0.0
C1680 C 0.69631 0.61139 0.10488 0.0
C1681 C 0.65907 0.62134 0.11896 0.0
C1682 C 0.69443 0.62001 0.06261 0.0
C1683 C 0.70733 0.63141 0.04901 0.0
C1684 C 0.72246 0.63421 0.07714 0.0
C1685 C 0.72424 0.62539 0.11916 0.0
C1686 C 0.71137 0.61422 0.1328 0.0
H1687 H 0.64684 0.6239 0.13712 0.0
H1688 H 0.6688 0.63122 0.13129 0.0
H1689 H 0.65644 0.62287 0.08105 0.0
H1690 H 0.68311 0.61776 0.03984 0.0
H1691 H 0.70551 0.63792 0.01643 0.0
H1692 H 0.19985 0.87025 0.01368 0.0
H1693 H 0.17669 0.89098 0.99647 0.0
H1694 H 0.20714 0.91248 0.88984 0.0
H1695 H 0.23028 0.89213 0.90681 0.0
H1696 H 0.19091 0.93763 0.9479 0.0
H1697 H 0.14519 0.88669 0.87668 0.0
H1698 H 0.15401 0.88417 0.93492 0.0
H1699 H 0.16798 0.88258 0.88637 0.0
C1700 C 0.20167 0.87947 0.98679 0.0
C1701 C 0.21692 0.8794 0.96144 0.0
C1702 C 0.18839 0.89126 0.97691 0.0
C1703 C 0.19014 0.90314 0.94155 0.0
C1704 C 0.20552 0.90342 0.91725 0.0
H1705 H 0.12649 0.95543 0.75069 0.0
H1706 H 0.14499 0.93673 0.79699 0.0
C1707 C 0.21873 0.89169 0.92696 0.0
C1708 C 0.17588 0.91494 0.928 0.0
H1709 H 0.13646 0.91556 0.87039 0.0
C1710 C 0.17886 0.93286 0.93164 0.0
C1711 C 0.16025 0.90862 0.9065 0.0
C1712 C 0.1566 0.88948 0.90046 0.0
C1713 C 0.16693 0.94461 0.91268 0.0
C1714 C 0.15154 0.93825 0.88997 0.0
C1715 C 0.14824 0.92038 0.88805 0.0
C1716 C 0.13975 0.94963 0.86315 0.0
C1717 C 0.17133 0.96364 0.91474 0.0
C1718 C 0.1305 0.96307 0.88505 0.0
C1719 C 0.11987 0.97395 0.85851 0.0
C1720 C 0.11829 0.97151 0.80962 0.0
C1721 C 0.12741 0.95782 0.78814 0.0
C1722 C 0.13797 0.94703 0.8146 0.0
H1723 H 0.18495 0.96612 0.92692 0.0
H1724 H 0.16924 0.96921 0.87987 0.0
H1725 H 0.16272 0.97054 0.93928 0.0
H1726 H 0.13151 0.96515 0.92259 0.0
H1727 H 0.11297 0.98427 0.87627 0.0
loop_
_geom_bond_atom_site_label_1
_geom_bond_atom_site_label_2
_geom_bond_distance
_geom_bond_site_symmetry_2
_ccdc_geom_bond_type
Mn0 O5 2.095 . S
Mn0 O15 2.162 . S
Mn0 O16 2.297 . S
Mn0 O24 2.385 1_554 S
Mn0 O25 2.209 1_554 S
Mn0 O26 2.094 . S
Mn1 O6 2.121 . S
Mn1 N8 2.257 . S
Mn1 N17 2.282 . S
Mn1 O25 2.215 . S
Mn1 O27 2.117 . S
C2 O24 1.234 . S
C2 O25 1.283 . S
C3 O15 1.281 . S
C3 O16 1.236 . S
C4 O26 1.240 1_556 S
C4 O27 1.264 . S
O5 Mn0 2.095 . S
O5 C14 1.250 . S
O6 Mn1 2.121 . S
O6 C14 1.258 1_556 S
C7 N8 1.326 . S
C7 C11 1.460 . S
C7 H13 0.929 . S
N8 Mn1 2.257 . S
N8 C7 1.326 . S
N8 C12 1.362 . S
C9 C10 1.258 . S
C9 C12 1.431 . S
C9 C29 1.449 . S
C10 C9 1.258 . S
C10 C11 1.477 . S
C10 H30 0.931 . S
C11 C7 1.460 . S
C11 C10 1.477 . S
C11 H31 0.930 . S
C12 N8 1.362 . S
C12 C9 1.431 . S
C12 C22 1.476 . S
H13 C7 0.929 . S
C14 O5 1.250 . S
C14 O6 1.258 1_554 S
O15 Mn0 2.162 . S
O15 C3 1.281 . S
O16 Mn0 2.297 . S
O16 C3 1.236 . S
N17 Mn1 2.282 . S
N17 C18 1.328 . S
N17 C22 1.318 . S
C18 N17 1.328 . S
C18 C19 1.457 . S
C18 H23 0.929 . S
C19 C18 1.457 . S
C19 C20 1.291 . S
C19 H32 0.931 . S
C20 C19 1.291 . S
C20 C21 1.373 . S
C20 H33 0.929 . S
C21 C20 1.373 . S
C21 C22 1.396 . S
C21 C28 1.403 . S
C22 C12 1.476 . S
C22 N17 1.318 . S
C22 C21 1.396 . S
H23 C18 0.929 . S
O24 Mn0 2.385 1_556 S
O24 C2 1.234 . S
O25 Mn0 2.209 1_556 S
O25 Mn1 2.215 . S
O25 C2 1.283 . S
O26 Mn0 2.094 . S
O26 C4 1.240 1_554 S
O27 Mn1 2.117 . S
O27 C4 1.264 . S
C28 C21 1.403 . S
C28 C29 1.399 . S
C28 H34 0.929 . S
C29 C9 1.449 . S
C29 C28 1.399 . S
C29 H35 0.930 . S
H30 C10 0.931 . S
H31 C11 0.930 . S
H32 C19 0.931 . S
H33 C20 0.929 . S
H34 C28 0.929 . S
H35 C29 0.930 . S
Mn36 O41 2.110 . S
Mn36 O51 2.153 1_545 S
Mn36 O52 2.310 . S
Mn36 O60 2.379 1_545 S
Mn36 O61 2.221 . S
Mn36 O62 2.075 1_545 S
Mn37 O42 2.121 . S
Mn37 N44 2.257 . S
Mn37 N53 2.282 . S
Mn37 O61 2.215 . S
Mn37 O63 2.117 1_545 S
C38 O60 1.234 1_545 S
C38 O61 1.283 . S
C39 O51 1.281 1_545 S
C39 O52 1.236 . S
C40 O62 1.240 . S
C40 O63 1.264 . S
O41 Mn36 2.110 . S
O41 C50 1.250 . S
O42 Mn37 2.121 . S
O42 C50 1.258 . S
C43 N44 1.326 . S
C43 C47 1.460 . S
C43 H49 0.929 . S
N44 Mn37 2.257 . S
N44 C43 1.326 . S
N44 C48 1.362 . S
C45 C46 1.258 . S
C45 C48 1.431 . S
C45 C65 1.449 . S
C46 C45 1.258 . S
C46 C47 1.477 . S
C46 H66 0.931 . S
C47 C43 1.460 . S
C47 C46 1.477 . S
C47 H67 0.930 . S
C48 N44 1.362 . S
C48 C45 1.431 . S
C48 C58 1.476 . S
H49 C43 0.929 . S
C50 O41 1.250 . S
C50 O42 1.258 . S
O51 Mn36 2.153 1_565 S
O51 C39 1.281 1_565 S
O52 Mn36 2.310 . S
O52 C39 1.236 . S
N53 Mn37 2.282 . S
N53 C54 1.328 1_545 S
N53 C58 1.318 . S
C54 N53 1.328 1_565 S
C54 C55 1.457 . S
C54 H59 0.929 . S
C55 C54 1.457 . S
C55 C56 1.325 . S
C55 H68 0.931 . S
C56 C55 1.325 . S
C56 C57 1.323 1_565 S
C56 H69 0.946 . S
C57 C56 1.323 1_545 S
C57 C58 1.396 . S
C57 C64 1.403 . S
C58 C48 1.476 . S
C58 N53 1.318 . S
C58 C57 1.396 . S
H59 C54 0.929 . S
O60 Mn36 2.379 1_565 S
O60 C38 1.234 1_565 S
O61 Mn36 2.221 . S
O61 Mn37 2.215 . S
O61 C38 1.283 . S
O62 Mn36 2.075 1_565 S
O62 C40 1.240 . S
O63 Mn37 2.117 1_565 S
O63 C40 1.264 . S
C64 C57 1.403 . S
C64 C65 1.399 . S
C64 H70 0.929 . S
C65 C45 1.449 . S
C65 C64 1.399 . S
C65 H71 0.930 . S
H66 C46 0.931 . S
H67 C47 0.930 . S
H68 C55 0.931 . S
H69 C56 0.946 . S
H70 C64 0.929 . S
H71 C65 0.930 . S
Mn72 O77 2.095 . S
Mn72 O87 2.162 . S
Mn72 O88 2.297 . S
Mn72 O96 2.385 . S
Mn72 O97 2.209 . S
Mn72 O98 2.094 . S
Mn73 O78 2.121 . S
Mn73 N80 2.257 . S
Mn73 N89 2.282 . S
Mn73 O97 2.215 . S
Mn73 O99 2.117 . S
C74 O96 1.234 . S
C74 O97 1.283 . S
C75 O87 1.281 . S
C75 O88 1.236 . S
C76 O98 1.240 . S
C76 O99 1.264 . S
O77 Mn72 2.095 . S
O77 C86 1.250 . S
O78 Mn73 2.121 . S
O78 C86 1.258 . S
C79 N80 1.326 . S
C79 C83 1.460 . S
C79 H85 0.929 . S
N80 Mn73 2.257 . S
N80 C79 1.326 . S
N80 C84 1.362 . S
C81 C82 1.258 . S
C81 C84 1.431 . S
C81 C101 1.449 . S
C82 C81 1.258 . S
C82 C83 1.477 . S
C82 H102 0.931 . S
C83 C79 1.460 . S
C83 C82 1.477 . S
C83 H103 0.930 . S
C84 N80 1.362 . S
C84 C81 1.431 . S
C84 C94 1.476 . S
H85 C79 0.929 . S
C86 O77 1.250 . S
C86 O78 1.258 . S
O87 Mn72 2.162 . S
O87 C75 1.281 . S
O88 Mn72 2.297 . S
O88 C75 1.236 . S
N89 Mn73 2.282 . S
N89 C90 1.328 . S
N89 C94 1.318 . S
C90 N89 1.328 . S
C90 C91 1.457 . S
C90 H95 0.929 . S
C91 C90 1.457 . S
C91 C92 1.291 . S
C91 H104 0.931 . S
C92 C91 1.291 . S
C92 C93 1.373 . S
C92 H105 0.929 . S
C93 C92 1.373 . S
C93 C94 1.396 . S
C93 C100 1.403 . S
C94 C84 1.476 . S
C94 N89 1.318 . S
C94 C93 1.396 . S
H95 C90 0.929 . S
O96 Mn72 2.385 . S
O96 C74 1.234 . S
O97 Mn72 2.209 . S
O97 Mn73 2.215 . S
O97 C74 1.283 . S
O98 Mn72 2.094 . S
O98 C76 1.240 . S
O99 Mn73 2.117 . S
O99 C76 1.264 . S
C100 C93 1.403 . S
C100 C101 1.399 . S
C100 H106 0.929 . S
C101 C81 1.449 . S
C101 C100 1.399 . S
C101 H107 0.930 . S
H102 C82 0.931 . S
H103 C83 0.930 . S
H104 C91 0.931 . S
H105 C92 0.929 . S
H106 C100 0.929 . S
H107 C101 0.930 . S
Mn108 O113 2.115 . S
Mn108 O123 2.148 1_545 S
Mn108 O124 2.315 . S
Mn108 O132 2.377 1_545 S
Mn108 O133 2.228 . S
Mn108 O134 2.067 1_545 S
Mn109 O114 2.121 . S
Mn109 N116 2.257 . S
Mn109 N125 2.282 . S
Mn109 O133 2.215 . S
Mn109 O135 2.117 1_545 S
C110 O132 1.234 1_545 S
C110 O133 1.283 . S
C111 O123 1.281 1_545 S
C111 O124 1.236 . S
C112 O134 1.240 . S
C112 O135 1.264 . S
O113 Mn108 2.115 . S
O113 C122 1.250 . S
O114 Mn109 2.121 . S
O114 C122 1.258 . S
C115 N116 1.326 . S
C115 C119 1.460 . S
C115 H121 0.929 . S
N116 Mn109 2.257 . S
N116 C115 1.326 . S
N116 C120 1.362 . S
C117 C118 1.258 . S
C117 C120 1.431 . S
C117 C137 1.449 . S
C118 C117 1.258 . S
C118 C119 1.477 . S
C118 H138 0.931 . S
C119 C115 1.460 . S
C119 C118 1.477 . S
C119 H139 0.930 . S
C120 N116 1.362 . S
C120 C117 1.431 . S
C120 C130 1.476 . S
H121 C115 0.929 . S
C122 O113 1.250 . S
C122 O114 1.258 . S
O123 Mn108 2.148 1_565 S
O123 C111 1.281 1_565 S
O124 Mn108 2.315 . S
O124 C111 1.236 . S
N125 Mn109 2.282 . S
N125 C126 1.328 1_545 S
N125 C130 1.318 . S
C126 N125 1.328 1_565 S
C126 C127 1.457 . S
C126 H131 0.929 . S
C127 C126 1.457 . S
C127 C128 1.291 . S
C127 H140 0.931 . S
C128 C127 1.291 . S
C128 C129 1.373 1_565 S
C128 H141 0.929 . S
C129 C128 1.373 1_545 S
C129 C130 1.396 . S
C129 C136 1.403 . S
C130 C120 1.476 . S
C130 N125 1.318 . S
C130 C129 1.396 . S
H131 C126 0.929 . S
O132 Mn108 2.377 1_565 S
O132 C110 1.234 1_565 S
O133 Mn108 2.228 . S
O133 Mn109 2.215 . S
O133 C110 1.283 . S
O134 Mn108 2.067 1_565 S
O134 C112 1.240 . S
O135 Mn109 2.117 1_565 S
O135 C112 1.264 . S
C136 C129 1.403 . S
C136 C137 1.399 . S
C136 H142 0.929 . S
C137 C117 1.449 . S
C137 C136 1.399 . S
C137 H143 0.930 . S
H138 C118 0.931 . S
H139 C119 0.930 . S
H140 C127 0.931 . S
H141 C128 0.929 . S
H142 C136 0.929 . S
H143 C137 0.930 . S
Mn144 O149 2.095 1_554 S
Mn144 O159 2.162 1_554 S
Mn144 O160 2.297 1_554 S
Mn144 O168 2.385 . S
Mn144 O169 2.209 . S
Mn144 O170 2.094 . S
Mn145 O150 2.121 . S
Mn145 N152 2.257 . S
Mn145 N161 2.282 . S
Mn145 O169 2.215 . S
Mn145 O171 2.117 . S
C146 O168 1.234 . S
C146 O169 1.283 . S
C147 O159 1.281 . S
C147 O160 1.236 . S
C148 O170 1.240 . S
C148 O171 1.264 . S
O149 Mn144 2.095 1_556 S
O149 C158 1.250 . S
O150 Mn145 2.121 . S
O150 C158 1.258 1_554 S
C151 N152 1.326 . S
C151 C155 1.460 . S
C151 H157 0.929 . S
N152 Mn145 2.257 . S
N152 C151 1.326 . S
N152 C156 1.362 . S
C153 C154 1.258 . S
C153 C156 1.431 . S
C153 C173 1.449 . S
C154 C153 1.258 . S
C154 C155 1.477 . S
C154 H174 0.931 . S
C155 C151 1.460 . S
C155 C154 1.477 . S
C155 H175 0.930 . S
C156 N152 1.362 . S
C156 C153 1.431 . S
C156 C166 1.476 . S
H157 C151 0.929 . S
C158 O149 1.250 . S
C158 O150 1.258 1_556 S
O159 Mn144 2.162 1_556 S
O159 C147 1.281 . S
O160 Mn144 2.297 1_556 S
O160 C147 1.236 . S
N161 Mn145 2.282 . S
N161 C162 1.328 . S
N161 C166 1.318 . S
C162 N161 1.328 . S
C162 C163 1.457 . S
C162 H167 0.929 . S
C163 C162 1.457 . S
C163 C164 1.291 . S
C163 H176 0.931 . S
C164 C163 1.291 . S
C164 C165 1.373 . S
C164 H177 0.929 . S
C165 C164 1.373 . S
C165 C166 1.396 . S
C165 C172 1.403 . S
C166 C156 1.476 . S
C166 N161 1.318 . S
C166 C165 1.396 . S
H167 C162 0.929 . S
O168 Mn144 2.385 . S
O168 C146 1.234 . S
O169 Mn144 2.209 . S
O169 Mn145 2.215 . S
O169 C146 1.283 . S
O170 Mn144 2.094 . S
O170 C148 1.240 . S
O171 Mn145 2.117 . S
O171 C148 1.264 . S
C172 C165 1.403 . S
C172 C173 1.399 . S
C172 H178 0.929 . S
C173 C153 1.449 . S
C173 C172 1.399 . S
C173 H179 0.930 . S
H174 C154 0.931 . S
H175 C155 0.930 . S
H176 C163 0.931 . S
H177 C164 0.929 . S
H178 C172 0.929 . S
H179 C173 0.930 . S
Mn180 O185 2.095 1_545 S
Mn180 O195 2.162 . S
Mn180 O196 2.297 1_545 S
Mn180 O204 2.385 . S
Mn180 O205 2.209 1_545 S
Mn180 O206 2.094 . S
Mn181 O186 2.121 . S
Mn181 N188 2.257 . S
Mn181 N197 2.282 1_565 S
Mn181 O205 2.215 . S
Mn181 O207 2.117 1_565 S
C182 O204 1.234 . S
C182 O205 1.283 1_545 S
C183 O195 1.281 . S
C183 O196 1.236 1_545 S
C184 O206 1.240 . S
C184 O207 1.264 . S
O185 Mn180 2.095 1_565 S
O185 C194 1.250 . S
O186 Mn181 2.121 . S
O186 C194 1.258 . S
C187 N188 1.326 . S
C187 C191 1.460 . S
C187 H193 0.929 . S
N188 Mn181 2.257 . S
N188 C187 1.326 . S
N188 C192 1.362 . S
C189 C190 1.258 . S
C189 C192 1.431 . S
C189 C209 1.449 . S
C190 C189 1.258 . S
C190 C191 1.477 . S
C190 H210 0.931 . S
C191 C187 1.460 . S
C191 C190 1.477 . S
C191 H211 0.930 . S
C192 N188 1.362 . S
C192 C189 1.431 . S
C192 C202 1.476 . S
H193 C187 0.929 . S
C194 O185 1.250 . S
C194 O186 1.258 . S
O195 Mn180 2.162 . S
O195 C183 1.281 . S
O196 Mn180 2.297 1_565 S
O196 C183 1.236 1_565 S
N197 Mn181 2.282 1_545 S
N197 C198 1.328 . S
N197 C202 1.318 1_545 S
C198 N197 1.328 . S
C198 C199 1.457 . S
C198 H203 0.929 . S
C199 C198 1.457 . S
C199 C200 1.291 . S
C199 H212 0.931 . S
C200 C199 1.291 . S
C200 C201 1.373 1_545 S
C200 H213 0.929 . S
C201 C200 1.373 1_565 S
C201 C202 1.396 . S
C201 C208 1.403 . S
C202 C192 1.476 . S
C202 N197 1.318 1_565 S
C202 C201 1.396 . S
H203 C198 0.929 . S
O204 Mn180 2.385 . S
O204 C182 1.234 . S
O205 Mn180 2.209 1_565 S
O205 Mn181 2.215 . S
O205 C182 1.283 1_565 S
O206 Mn180 2.094 . S
O206 C184 1.240 . S
O207 Mn181 2.117 1_545 S
O207 C184 1.264 . S
C208 C201 1.403 . S
C208 C209 1.399 . S
C208 H214 0.929 . S
C209 C189 1.449 . S
C209 C208 1.399 . S
C209 H215 0.930 . S
H210 C190 0.931 . S
H211 C191 0.930 . S
H212 C199 0.931 . S
H213 C200 0.929 . S
H214 C208 0.929 . S
H215 C209 0.930 . S
Mn216 O221 2.095 . S
Mn216 O231 2.162 . S
Mn216 O232 2.297 . S
Mn216 O240 2.385 . S
Mn216 O241 2.209 . S
Mn216 O242 2.094 . S
Mn217 O222 2.121 . S
Mn217 N224 2.257 . S
Mn217 N233 2.282 . S
Mn217 O241 2.215 . S
Mn217 O243 2.117 . S
C218 O240 1.234 . S
C218 O241 1.283 . S
C219 O231 1.281 . S
C219 O232 1.236 . S
C220 O242 1.240 . S
C220 O243 1.264 . S
O221 Mn216 2.095 . S
O221 C230 1.250 . S
O222 Mn217 2.121 . S
O222 C230 1.258 . S
C223 N224 1.326 . S
C223 C227 1.460 . S
C223 H229 0.929 . S
N224 Mn217 2.257 . S
N224 C223 1.326 . S
N224 C228 1.362 . S
C225 C226 1.258 . S
C225 C228 1.431 . S
C225 C245 1.449 . S
C226 C225 1.258 . S
C226 C227 1.477 . S
C226 H246 0.931 . S
C227 C223 1.460 . S
C227 C226 1.477 . S
C227 H247 0.930 . S
C228 N224 1.362 . S
C228 C225 1.431 . S
C228 C238 1.476 . S
H229 C223 0.929 . S
C230 O221 1.250 . S
C230 O222 1.258 . S
O231 Mn216 2.162 . S
O231 C219 1.281 . S
O232 Mn216 2.297 . S
O232 C219 1.236 . S
N233 Mn217 2.282 . S
N233 C234 1.328 . S
N233 C238 1.318 . S
C234 N233 1.328 . S
C234 C235 1.457 . S
C234 H239 0.929 . S
C235 C234 1.457 . S
C235 C236 1.291 . S
C235 H248 0.931 . S
C236 C235 1.291 . S
C236 C237 1.373 . S
C236 H249 0.929 . S
C237 C236 1.373 . S
C237 C238 1.396 . S
C237 C244 1.403 . S
C238 C228 1.476 . S
C238 N233 1.318 . S
C238 C237 1.396 . S
H239 C234 0.929 . S
O240 Mn216 2.385 . S
O240 C218 1.234 . S
O241 Mn216 2.209 . S
O241 Mn217 2.215 . S
O241 C218 1.283 . S
O242 Mn216 2.094 . S
O242 C220 1.240 . S
O243 Mn217 2.117 . S
O243 C220 1.264 . S
C244 C237 1.403 . S
C244 C245 1.399 . S
C244 H250 0.929 . S
C245 C225 1.449 . S
C245 C244 1.399 . S
C245 H251 0.930 . S
H246 C226 0.931 . S
H247 C227 0.930 . S
H248 C235 0.931 . S
H249 C236 0.929 . S
H250 C244 0.929 . S
H251 C245 0.930 . S
Mn252 O257 2.095 1_545 S
Mn252 O267 2.162 . S
Mn252 O268 2.297 1_545 S
Mn252 O276 2.385 . S
Mn252 O277 2.209 1_545 S
Mn252 O278 2.094 . S
Mn253 O258 2.121 . S
Mn253 N260 2.257 . S
Mn253 N269 2.282 1_565 S
Mn253 O277 2.215 . S
Mn253 O279 2.117 1_565 S
C254 O276 1.234 . S
C254 O277 1.283 1_545 S
C255 O267 1.281 . S
C255 O268 1.236 1_545 S
C256 O278 1.240 . S
C256 O279 1.264 . S
O257 Mn252 2.095 1_565 S
O257 C266 1.250 . S
O258 Mn253 2.121 . S
O258 C266 1.258 . S
C259 N260 1.326 . S
C259 C263 1.460 . S
C259 H265 0.929 . S
N260 Mn253 2.257 . S
N260 C259 1.326 . S
N260 C264 1.362 . S
C261 C262 1.258 . S
C261 C264 1.431 . S
C261 C281 1.449 . S
C262 C261 1.258 . S
C262 C263 1.477 . S
C262 H282 0.931 . S
C263 C259 1.460 . S
C263 C262 1.477 . S
C263 H283 0.930 . S
C264 N260 1.362 . S
C264 C261 1.431 . S
C264 C274 1.476 . S
H265 C259 0.929 . S
C266 O257 1.250 . S
C266 O258 1.258 . S
O267 Mn252 2.162 . S
O267 C255 1.281 . S
O268 Mn252 2.297 1_565 S
O268 C255 1.236 1_565 S
N269 Mn253 2.282 1_545 S
N269 C270 1.328 . S
N269 C274 1.318 1_545 S
C270 N269 1.328 . S
C270 C271 1.457 . S
C270 H275 0.929 . S
C271 C270 1.457 . S
C271 C272 1.291 . S
C271 H284 0.931 . S
C272 C271 1.291 . S
C272 C273 1.373 1_545 S
C272 H285 0.929 . S
C273 C272 1.373 1_565 S
C273 C274 1.396 . S
C273 C280 1.403 . S
C274 C264 1.476 . S
C274 N269 1.318 1_565 S
C274 C273 1.396 . S
H275 C270 0.929 . S
O276 Mn252 2.385 . S
O276 C254 1.234 . S
O277 Mn252 2.209 1_565 S
O277 Mn253 2.215 . S
O277 C254 1.283 1_565 S
O278 Mn252 2.094 . S
O278 C256 1.240 . S
O279 Mn253 2.117 1_545 S
O279 C256 1.264 . S
C280 C273 1.403 . S
C280 C281 1.399 . S
C280 H286 0.929 . S
C281 C261 1.449 . S
C281 C280 1.399 . S
C281 H287 0.930 . S
H282 C262 0.931 . S
H283 C263 0.930 . S
H284 C271 0.931 . S
H285 C272 0.929 . S
H286 C280 0.929 . S
H287 C281 0.930 . S
Mn288 O293 2.095 . S
Mn288 O303 2.162 . S
Mn288 O304 2.297 . S
Mn288 O312 2.385 . S
Mn288 O313 2.209 . S
Mn288 O314 2.094 . S
Mn289 O294 2.121 . S
Mn289 N296 2.257 . S
Mn289 N305 2.282 . S
Mn289 O313 2.215 . S
Mn289 O315 2.117 . S
C290 O312 1.234 . S
C290 O313 1.283 . S
C291 O303 1.281 . S
C291 O304 1.236 . S
C292 O314 1.240 . S
C292 O315 1.264 . S
O293 Mn288 2.095 . S
O293 C302 1.250 . S
O294 Mn289 2.121 . S
O294 C302 1.258 . S
C295 N296 1.326 . S
C295 C299 1.460 . S
C295 H301 0.929 . S
N296 Mn289 2.257 . S
N296 C295 1.326 . S
N296 C300 1.362 . S
C297 C298 1.258 . S
C297 C300 1.431 . S
C297 C317 1.449 . S
C298 C297 1.258 . S
C298 C299 1.477 . S
C298 H318 0.931 . S
C299 C295 1.460 . S
C299 C298 1.477 . S
C299 H319 0.930 . S
C300 N296 1.362 . S
C300 C297 1.431 . S
C300 C310 1.476 . S
H301 C295 0.929 . S
C302 O293 1.250 . S
C302 O294 1.258 . S
O303 Mn288 2.162 . S
O303 C291 1.281 . S
O304 Mn288 2.297 . S
O304 C291 1.236 . S
N305 Mn289 2.282 . S
N305 C306 1.328 . S
N305 C310 1.318 . S
C306 N305 1.328 . S
C306 C307 1.457 . S
C306 H311 0.929 . S
C307 C306 1.457 . S
C307 C308 1.291 . S
C307 H320 0.931 . S
C308 C307 1.291 . S
C308 C309 1.373 . S
C308 H321 0.929 . S
C309 C308 1.373 . S
C309 C310 1.396 . S
C309 C316 1.403 . S
C310 C300 1.476 . S
C310 N305 1.318 . S
C310 C309 1.396 . S
H311 C306 0.929 . S
O312 Mn288 2.385 . S
O312 C290 1.234 . S
O313 Mn288 2.209 . S
O313 Mn289 2.215 . S
O313 C290 1.283 . S
O314 Mn288 2.094 . S
O314 C292 1.240 . S
O315 Mn289 2.117 . S
O315 C292 1.264 . S
C316 C309 1.403 . S
C316 C317 1.399 . S
C316 H322 0.929 . S
C317 C297 1.449 . S
C317 C316 1.399 . S
C317 H323 0.930 . S
H318 C298 0.931 . S
H319 C299 0.930 . S
H320 C307 0.931 . S
H321 C308 0.929 . S
H322 C316 0.929 . S
H323 C317 0.930 . S
Mn324 O329 2.095 . S
Mn324 O339 2.162 . S
Mn324 O340 2.297 . S
Mn324 O348 2.385 . S
Mn324 O349 2.209 . S
Mn324 O350 2.094 . S
Mn325 O330 2.121 . S
Mn325 N332 2.257 . S
Mn325 N341 2.282 . S
Mn325 O349 2.215 . S
Mn325 O351 2.117 . S
C326 O348 1.234 . S
C326 O349 1.283 . S
C327 O339 1.281 . S
C327 O340 1.236 . S
C328 O350 1.240 . S
C328 O351 1.264 . S
O329 Mn324 2.095 . S
O329 C338 1.250 . S
O330 Mn325 2.121 . S
O330 C338 1.258 . S
C331 N332 1.326 . S
C331 C335 1.460 . S
C331 H337 0.929 . S
N332 Mn325 2.257 . S
N332 C331 1.326 . S
N332 C336 1.362 . S
C333 C334 1.258 . S
C333 C336 1.431 . S
C333 C353 1.449 1_556 S
C334 C333 1.258 . S
C334 C335 1.477 . S
C334 H354 0.931 . S
C335 C331 1.460 . S
C335 C334 1.477 . S
C335 H355 0.930 . S
C336 N332 1.362 . S
C336 C333 1.431 . S
C336 C346 1.476 . S
H337 C331 0.929 . S
C338 O329 1.250 . S
C338 O330 1.258 . S
O339 Mn324 2.162 . S
O339 C327 1.281 . S
O340 Mn324 2.297 . S
O340 C327 1.236 . S
N341 Mn325 2.282 . S
N341 C342 1.328 . S
N341 C346 1.318 . S
C342 N341 1.328 . S
C342 C343 1.457 . S
C342 H347 0.929 . S
C343 C342 1.457 . S
C343 C344 1.283 1_556 S
C343 H356 0.931 . S
C344 C343 1.283 1_554 S
C344 C345 1.370 1_554 S
C344 H357 0.940 . S
C345 C344 1.370 1_556 S
C345 C346 1.396 . S
C345 C352 1.403 1_556 S
C346 C336 1.476 . S
C346 N341 1.318 . S
C346 C345 1.396 . S
H347 C342 0.929 . S
O348 Mn324 2.385 . S
O348 C326 1.234 . S
O349 Mn324 2.209 . S
O349 Mn325 2.215 . S
O349 C326 1.283 . S
O350 Mn324 2.094 . S
O350 C328 1.240 . S
O351 Mn325 2.117 . S
O351 C328 1.264 . S
C352 C345 1.403 1_554 S
C352 C353 1.399 . S
C352 H358 0.929 . S
C353 C333 1.449 1_554 S
C353 C352 1.399 . S
C353 H359 0.930 . S
H354 C334 0.931 . S
H355 C335 0.930 . S
H356 C343 0.931 . S
H357 C344 0.940 . S
H358 C352 0.929 . S
H359 C353 0.930 . S
Mn360 O365 2.095 1_554 S
Mn360 O375 2.162 1_554 S
Mn360 O376 2.297 1_554 S
Mn360 O384 2.385 . S
Mn360 O385 2.209 . S
Mn360 O386 2.094 . S
Mn361 O366 2.121 . S
Mn361 N368 2.257 . S
Mn361 N377 2.282 . S
Mn361 O385 2.215 . S
Mn361 O387 2.117 . S
C362 O384 1.234 . S
C362 O385 1.283 . S
C363 O375 1.281 . S
C363 O376 1.236 . S
C364 O386 1.240 . S
C364 O387 1.264 . S
O365 Mn360 2.095 1_556 S
O365 C374 1.250 . S
O366 Mn361 2.121 . S
O366 C374 1.258 1_554 S
C367 N368 1.326 . S
C367 C371 1.460 . S
C367 H373 0.929 . S
N368 Mn361 2.257 . S
N368 C367 1.326 . S
N368 C372 1.362 . S
C369 C370 1.258 . S
C369 C372 1.431 . S
C369 C389 1.449 . S
C370 C369 1.258 . S
C370 C371 1.477 . S
C370 H390 0.931 . S
C371 C367 1.460 . S
C371 C370 1.477 . S
C371 H391 0.930 . S
C372 N368 1.362 . S
C372 C369 1.431 . S
C372 C382 1.476 . S
H373 C367 0.929 . S
C374 O365 1.250 . S
C374 O366 1.258 1_556 S
O375 Mn360 2.162 1_556 S
O375 C363 1.281 . S
O376 Mn360 2.297 1_556 S
O376 C363 1.236 . S
N377 Mn361 2.282 . S
N377 C378 1.328 . S
N377 C382 1.318 . S
C378 N377 1.328 . S
C378 C379 1.457 . S
C378 H383 0.929 . S
C379 C378 1.457 . S
C379 C380 1.291 . S
C379 H392 0.931 . S
C380 C379 1.291 . S
C380 C381 1.373 . S
C380 H393 0.929 . S
C381 C380 1.373 . S
C381 C382 1.396 . S
C381 C388 1.403 . S
C382 C372 1.476 . S
C382 N377 1.318 . S
C382 C381 1.396 . S
H383 C378 0.929 . S
O384 Mn360 2.385 . S
O384 C362 1.234 . S
O385 Mn360 2.209 . S
O385 Mn361 2.215 . S
O385 C362 1.283 . S
O386 Mn360 2.094 . S
O386 C364 1.240 . S
O387 Mn361 2.117 . S
O387 C364 1.264 . S
C388 C381 1.403 . S
C388 C389 1.399 . S
C388 H394 0.929 . S
C389 C369 1.449 . S
C389 C388 1.399 . S
C389 H395 0.930 . S
H390 C370 0.931 . S
H391 C371 0.930 . S
H392 C379 0.931 . S
H393 C380 0.929 . S
H394 C388 0.929 . S
H395 C389 0.930 . S
Mn396 O401 2.095 . S
Mn396 O411 2.162 . S
Mn396 O412 2.297 . S
Mn396 O420 2.385 . S
Mn396 O421 2.209 . S
Mn396 O422 2.094 . S
Mn397 O402 2.121 . S
Mn397 N404 2.257 . S
Mn397 N413 2.282 . S
Mn397 O421 2.215 . S
Mn397 O423 2.117 . S
C398 O420 1.234 . S
C398 O421 1.283 . S
C399 O411 1.281 . S
C399 O412 1.236 . S
C400 O422 1.240 . S
C400 O423 1.264 . S
O401 Mn396 2.095 . S
O401 C410 1.250 . S
O402 Mn397 2.121 . S
O402 C410 1.258 . S
C403 N404 1.326 . S
C403 C407 1.460 . S
C403 H409 0.929 . S
N404 Mn397 2.257 . S
N404 C403 1.326 . S
N404 C408 1.362 . S
C405 C406 1.258 . S
C405 C408 1.431 . S
C405 C425 1.449 . S
C406 C405 1.258 . S
C406 C407 1.477 . S
C406 H426 0.931 . S
C407 C403 1.460 . S
C407 C406 1.477 . S
C407 H427 0.930 . S
C408 N404 1.362 . S
C408 C405 1.431 . S
C408 C418 1.476 . S
H409 C403 0.929 . S
C410 O401 1.250 . S
C410 O402 1.258 . S
O411 Mn396 2.162 . S
O411 C399 1.281 . S
O412 Mn396 2.297 . S
O412 C399 1.236 . S
N413 Mn397 2.282 . S
N413 C414 1.328 . S
N413 C418 1.318 . S
C414 N413 1.328 . S
C414 C415 1.457 . S
C414 H419 0.929 . S
C415 C414 1.457 . S
C415 C416 1.291 . S
C415 H428 0.931 . S
C416 C415 1.291 . S
C416 C417 1.373 . S
C416 H429 0.929 1_554 S
C417 C416 1.373 . S
C417 C418 1.396 . S
C417 C424 1.392 1_554 S
C418 C408 1.476 . S
C418 N413 1.318 . S
C418 C417 1.396 . S
H419 C414 0.929 . S
O420 Mn396 2.385 . S
O420 C398 1.234 . S
O421 Mn396 2.209 . S
O421 Mn397 2.215 . S
O421 C398 1.283 . S
O422 Mn396 2.094 . S
O422 C400 1.240 . S
O423 Mn397 2.117 . S
O423 C400 1.264 . S
C424 C417 1.392 1_556 S
C424 C425 1.396 1_556 S
C424 H430 0.943 . S
C425 C405 1.449 . S
C425 C424 1.396 1_554 S
C425 H431 0.930 1_554 S
H426 C406 0.931 . S
H427 C407 0.930 . S
H428 C415 0.931 . S
H429 C416 0.929 1_556 S
H430 C424 0.943 . S
H431 C425 0.930 1_556 S
Mn432 O437 2.095 . S
Mn432 O447 2.162 . S
Mn432 O448 2.297 . S
Mn432 O456 2.385 . S
Mn432 O457 2.209 . S
Mn432 O458 2.094 . S
Mn433 O438 2.121 . S
Mn433 N440 2.257 . S
Mn433 N449 2.282 . S
Mn433 O457 2.215 . S
Mn433 O459 2.117 . S
C434 O456 1.234 . S
C434 O457 1.283 . S
C435 O447 1.281 . S
C435 O448 1.236 . S
C436 O458 1.240 . S
C436 O459 1.264 . S
O437 Mn432 2.095 . S
O437 C446 1.250 . S
O438 Mn433 2.121 . S
O438 C446 1.258 . S
C439 N440 1.326 . S
C439 C443 1.460 . S
C439 H445 0.929 . S
N440 Mn433 2.257 . S
N440 C439 1.326 . S
N440 C444 1.362 . S
C441 C442 1.258 . S
C441 C444 1.431 . S
C441 C461 1.449 . S
C442 C441 1.258 . S
C442 C443 1.477 . S
C442 H462 0.931 . S
C443 C439 1.460 . S
C443 C442 1.477 . S
C443 H463 0.930 . S
C444 N440 1.362 . S
C444 C441 1.431 . S
C444 C454 1.476 . S
H445 C439 0.929 . S
C446 O437 1.250 . S
C446 O438 1.258 . S
O447 Mn432 2.162 . S
O447 C435 1.281 . S
O448 Mn432 2.297 . S
O448 C435 1.236 . S
N449 Mn433 2.282 . S
N449 C450 1.328 . S
N449 C454 1.318 . S
C450 N449 1.328 . S
C450 C451 1.457 . S
C450 H455 0.929 . S
C451 C450 1.457 . S
C451 C452 1.291 . S
C451 H464 0.931 . S
C452 C451 1.291 . S
C452 C453 1.373 . S
C452 H465 0.929 . S
C453 C452 1.373 . S
C453 C454 1.396 . S
C453 C460 1.403 . S
C454 C444 1.476 . S
C454 N449 1.318 . S
C454 C453 1.396 . S
H455 C450 0.929 . S
O456 Mn432 2.385 . S
O456 C434 1.234 . S
O457 Mn432 2.209 . S
O457 Mn433 2.215 . S
O457 C434 1.283 . S
O458 Mn432 2.094 . S
O458 C436 1.240 . S
O459 Mn433 2.117 . S
O459 C436 1.264 . S
C460 C453 1.403 . S
C460 C461 1.399 . S
C460 H466 0.929 . S
C461 C441 1.449 . S
C461 C460 1.399 . S
C461 H467 0.930 . S
H462 C442 0.931 . S
H463 C443 0.930 . S
H464 C451 0.931 . S
H465 C452 0.929 . S
H466 C460 0.929 . S
H467 C461 0.930 . S
Mn468 O473 2.095 . S
Mn468 O483 2.162 . S
Mn468 O484 2.297 . S
Mn468 O492 2.385 . S
Mn468 O493 2.209 . S
Mn468 O494 2.094 . S
Mn469 O474 2.121 . S
Mn469 N476 2.257 . S
Mn469 N485 2.282 . S
Mn469 O493 2.215 . S
Mn469 O495 2.117 . S
C470 O492 1.234 . S
C470 O493 1.283 . S
C471 O483 1.281 . S
C471 O484 1.236 . S
C472 O494 1.240 . S
C472 O495 1.264 . S
O473 Mn468 2.095 . S
O473 C482 1.250 . S
O474 Mn469 2.121 . S
O474 C482 1.258 . S
C475 N476 1.326 . S
C475 C479 1.460 . S
C475 H481 0.929 . S
N476 Mn469 2.257 . S
N476 C475 1.326 . S
N476 C480 1.362 . S
C477 C478 1.258 . S
C477 C480 1.431 . S
C477 C497 1.449 . S
C478 C477 1.258 . S
C478 C479 1.477 . S
C478 H498 0.931 . S
C479 C475 1.460 . S
C479 C478 1.477 . S
C479 H499 0.930 . S
C480 N476 1.362 . S
C480 C477 1.431 . S
C480 C490 1.476 . S
H481 C475 0.929 . S
C482 O473 1.250 . S
C482 O474 1.258 . S
O483 Mn468 2.162 . S
O483 C471 1.281 . S
O484 Mn468 2.297 . S
O484 C471 1.236 . S
N485 Mn469 2.282 . S
N485 C486 1.328 . S
N485 C490 1.318 . S
C486 N485 1.328 . S
C486 C487 1.457 . S
C486 H491 0.929 . S
C487 C486 1.457 . S
C487 C488 1.291 . S
C487 H500 0.931 . S
C488 C487 1.291 . S
C488 C489 1.373 . S
C488 H501 0.929 1_554 S
C489 C488 1.373 . S
C489 C490 1.396 . S
C489 C496 1.403 1_554 S
C490 C480 1.476 . S
C490 N485 1.318 . S
C490 C489 1.396 . S
H491 C486 0.929 . S
O492 Mn468 2.385 . S
O492 C470 1.234 . S
O493 Mn468 2.209 . S
O493 Mn469 2.215 . S
O493 C470 1.283 . S
O494 Mn468 2.094 . S
O494 C472 1.240 . S
O495 Mn469 2.117 . S
O495 C472 1.264 . S
C496 C489 1.403 1_556 S
C496 C497 1.399 1_556 S
C496 H502 0.929 . S
C497 C477 1.449 . S
C497 C496 1.399 1_554 S
C497 H503 0.930 1_554 S
H498 C478 0.931 . S
H499 C479 0.930 . S
H500 C487 0.931 . S
H501 C488 0.929 1_556 S
H502 C496 0.929 . S
H503 C497 0.930 1_556 S
Mn504 O509 2.095 . S
Mn504 O519 2.162 . S
Mn504 O520 2.297 . S
Mn504 O528 2.385 1_554 S
Mn504 O529 2.209 1_554 S
Mn504 O530 2.094 . S
Mn505 O510 2.121 . S
Mn505 N512 2.257 . S
Mn505 N521 2.282 . S
Mn505 O529 2.215 . S
Mn505 O531 2.117 . S
C506 O528 1.234 . S
C506 O529 1.283 . S
C507 O519 1.281 . S
C507 O520 1.236 . S
C508 O530 1.240 1_556 S
C508 O531 1.264 . S
O509 Mn504 2.095 . S
O509 C518 1.250 . S
O510 Mn505 2.121 . S
O510 C518 1.258 1_556 S
C511 N512 1.326 . S
C511 C515 1.460 . S
C511 H517 0.929 . S
N512 Mn505 2.257 . S
N512 C511 1.326 . S
N512 C516 1.362 . S
C513 C514 1.258 . S
C513 C516 1.431 . S
C513 C533 1.449 . S
C514 C513 1.258 . S
C514 C515 1.477 . S
C514 H534 0.931 . S
C515 C511 1.460 . S
C515 C514 1.477 . S
C515 H535 0.930 . S
C516 N512 1.362 . S
C516 C513 1.431 . S
C516 C526 1.476 . S
H517 C511 0.929 . S
C518 O509 1.250 . S
C518 O510 1.258 1_554 S
O519 Mn504 2.162 . S
O519 C507 1.281 . S
O520 Mn504 2.297 . S
O520 C507 1.236 . S
N521 Mn505 2.282 . S
N521 C522 1.328 . S
N521 C526 1.318 . S
C522 N521 1.328 . S
C522 C523 1.457 . S
C522 H527 0.929 . S
C523 C522 1.457 . S
C523 C524 1.291 . S
C523 H536 0.931 . S
C524 C523 1.291 . S
C524 C525 1.373 . S
C524 H537 0.929 . S
C525 C524 1.373 . S
C525 C526 1.396 . S
C525 C532 1.403 . S
C526 C516 1.476 . S
C526 N521 1.318 . S
C526 C525 1.396 . S
H527 C522 0.929 . S
O528 Mn504 2.385 1_556 S
O528 C506 1.234 . S
O529 Mn504 2.209 1_556 S
O529 Mn505 2.215 . S
O529 C506 1.283 . S
O530 Mn504 2.094 . S
O530 C508 1.240 1_554 S
O531 Mn505 2.117 . S
O531 C508 1.264 . S
C532 C525 1.403 . S
C532 C533 1.399 . S
C532 H538 0.929 . S
C533 C513 1.449 . S
C533 C532 1.399 . S
C533 H539 0.930 . S
H534 C514 0.931 . S
H535 C515 0.930 . S
H536 C523 0.931 . S
H537 C524 0.929 . S
H538 C532 0.929 . S
H539 C533 0.930 . S
Mn540 O545 2.095 . S
Mn540 O555 2.162 . S
Mn540 O556 2.297 . S
Mn540 O564 2.385 . S
Mn540 O565 2.209 . S
Mn540 O566 2.094 . S
Mn541 O546 2.121 . S
Mn541 N548 2.257 . S
Mn541 N557 2.282 . S
Mn541 O565 2.215 . S
Mn541 O567 2.117 . S
C542 O564 1.234 . S
C542 O565 1.283 . S
C543 O555 1.281 . S
C543 O556 1.236 . S
C544 O566 1.240 . S
C544 O567 1.264 . S
O545 Mn540 2.095 . S
O545 C554 1.250 . S
O546 Mn541 2.121 . S
O546 C554 1.258 . S
C547 N548 1.326 . S
C547 C551 1.460 . S
C547 H553 0.929 . S
N548 Mn541 2.257 . S
N548 C547 1.326 . S
N548 C552 1.362 . S
C549 C550 1.258 . S
C549 C552 1.431 . S
C549 C569 1.449 1_556 S
C550 C549 1.258 . S
C550 C551 1.477 . S
C550 H570 0.931 . S
C551 C547 1.460 . S
C551 C550 1.477 . S
C551 H571 0.930 . S
C552 N548 1.362 . S
C552 C549 1.431 . S
C552 C562 1.476 . S
H553 C547 0.929 . S
C554 O545 1.250 . S
C554 O546 1.258 . S
O555 Mn540 2.162 . S
O555 C543 1.281 . S
O556 Mn540 2.297 . S
O556 C543 1.236 . S
N557 Mn541 2.282 . S
N557 C558 1.328 . S
N557 C562 1.318 . S
C558 N557 1.328 . S
C558 C559 1.457 . S
C558 H563 0.929 . S
C559 C558 1.457 . S
C559 C560 1.291 1_556 S
C559 H572 0.931 . S
C560 C559 1.291 1_554 S
C560 C561 1.373 1_554 S
C560 H573 0.929 . S
C561 C560 1.373 1_556 S
C561 C562 1.396 . S
C561 C568 1.403 1_556 S
C562 C552 1.476 . S
C562 N557 1.318 . S
C562 C561 1.396 . S
H563 C558 0.929 . S
O564 Mn540 2.385 . S
O564 C542 1.234 . S
O565 Mn540 2.209 . S
O565 Mn541 2.215 . S
O565 C542 1.283 . S
O566 Mn540 2.094 . S
O566 C544 1.240 . S
O567 Mn541 2.117 . S
O567 C544 1.264 . S
C568 C561 1.403 1_554 S
C568 C569 1.399 . S
C568 H574 0.929 . S
C569 C549 1.449 1_554 S
C569 C568 1.399 . S
C569 H575 0.930 . S
H570 C550 0.931 . S
H571 C551 0.930 . S
H572 C559 0.931 . S
H573 C560 0.929 . S
H574 C568 0.929 . S
H575 C569 0.930 . S
H576 C584 0.929 . S
H577 C586 0.930 . S
H578 C588 0.930 . S
H579 C591 0.929 . S
H580 C594 0.930 . S
H581 C596 0.960 . S
H582 C596 0.960 . S
H583 C596 0.960 . S
C584 H576 0.929 . S
C584 C585 1.377 . S
C584 C586 1.384 . S
C585 C584 1.377 . S
C585 C591 1.390 . S
C586 H577 0.930 . S
C586 C584 1.384 . S
C586 C587 1.372 . S
C587 C586 1.372 . S
C587 C588 1.400 . S
C587 C592 1.490 . S
C588 H578 0.930 . S
C588 C587 1.400 . S
C588 C591 1.386 . S
H589 C605 0.930 . S
H590 C606 0.931 . S
C591 H579 0.929 . S
C591 C585 1.390 . S
C591 C588 1.386 . S
C592 C587 1.490 . S
C592 C594 1.395 . S
C592 C595 1.403 . S
H593 C599 0.930 . S
C594 H580 0.930 . S
C594 C592 1.395 . S
C594 C597 1.403 . S
C595 C592 1.403 . S
C595 C596 1.524 . S
C595 C599 1.400 . S
C596 H581 0.960 . S
C596 H582 0.960 . S
C596 H583 0.960 . S
C596 C595 1.524 . S
C597 C594 1.403 . S
C597 C598 1.392 . S
C597 C601 1.495 . S
C598 C597 1.392 . S
C598 C599 1.385 . S
C598 C600 1.478 . S
C599 H593 0.930 . S
C599 C595 1.400 . S
C599 C598 1.385 . S
C600 C598 1.478 . S
C600 C602 1.381 . S
C600 C606 1.383 . S
C601 C597 1.495 . S
C601 H607 0.959 . S
C601 H608 0.961 . S
C601 H609 0.960 . S
C602 C600 1.381 . S
C602 C603 1.394 . S
C602 H610 0.930 . S
C603 C602 1.394 . S
C603 C604 1.383 . S
C603 H611 0.929 . S
C604 C603 1.383 . S
C604 C605 1.377 . S
C605 H589 0.930 . S
C605 C604 1.377 . S
C605 C606 1.379 . S
C606 H590 0.931 . S
C606 C600 1.383 . S
C606 C605 1.379 . S
H607 C601 0.959 . S
H608 C601 0.961 . S
H609 C601 0.960 . S
H610 C602 0.930 . S
H611 C603 0.929 . S
H612 C620 0.929 . S
H613 C622 0.930 . S
H614 C624 0.930 . S
H615 C627 0.929 . S
H616 C630 0.930 . S
H617 C632 0.960 . S
H618 C632 0.960 . S
H619 C632 0.960 . S
C620 H612 0.929 . S
C620 C621 1.377 . S
C620 C622 1.384 . S
C621 C620 1.377 . S
C621 C627 1.390 . S
C622 H613 0.930 . S
C622 C620 1.384 . S
C622 C623 1.372 . S
C623 C622 1.372 . S
C623 C624 1.400 . S
C623 C628 1.490 . S
C624 H614 0.930 . S
C624 C623 1.400 . S
C624 C627 1.386 . S
H625 C641 0.930 . S
H626 C642 0.931 . S
C627 H615 0.929 . S
C627 C621 1.390 . S
C627 C624 1.386 . S
C628 C623 1.490 . S
C628 C630 1.395 1_655 S
C628 C631 1.403 1_545 S
H629 C635 0.930 . S
C630 H616 0.930 . S
C630 C628 1.395 1_455 S
C630 C633 1.403 . S
C631 C628 1.403 1_565 S
C631 C632 1.524 . S
C631 C635 1.400 1_655 S
C632 H617 0.960 . S
C632 H618 0.960 . S
C632 H619 0.960 . S
C632 C631 1.524 . S
C633 C630 1.403 . S
C633 C634 1.392 . S
C633 C637 1.495 . S
C634 C633 1.392 . S
C634 C635 1.385 1_545 S
C634 C636 1.478 . S
C635 H629 0.930 . S
C635 C631 1.400 1_455 S
C635 C634 1.385 1_565 S
C636 C634 1.478 . S
C636 C638 1.381 . S
C636 C642 1.383 . S
C637 C633 1.495 . S
C637 H643 0.959 . S
C637 H644 0.961 . S
C637 H645 0.960 . S
C638 C636 1.381 . S
C638 C639 1.394 . S
C638 H646 0.930 . S
C639 C638 1.394 . S
C639 C640 1.383 . S
C639 H647 0.929 1_545 S
C640 C639 1.383 . S
C640 C641 1.377 . S
C641 H625 0.930 . S
C641 C640 1.377 . S
C641 C642 1.379 . S
C642 H626 0.931 . S
C642 C636 1.383 . S
C642 C641 1.379 . S
H643 C637 0.959 . S
H644 C637 0.961 . S
H645 C637 0.960 . S
H646 C638 0.930 . S
H647 C639 0.929 1_565 S
H648 C656 0.929 . S
H649 C658 0.930 . S
H650 C660 0.930 . S
H651 C663 0.929 . S
H652 C666 0.930 . S
H653 C668 0.960 . S
H654 C668 0.960 . S
H655 C668 0.960 . S
C656 H648 0.929 . S
C656 C657 1.377 . S
C656 C658 1.384 . S
C657 C656 1.377 . S
C657 C663 1.390 . S
C658 H649 0.930 . S
C658 C656 1.384 . S
C658 C659 1.372 . S
C659 C658 1.372 . S
C659 C660 1.400 . S
C659 C664 1.490 . S
C660 H650 0.930 . S
C660 C659 1.400 . S
C660 C663 1.386 . S
H661 C677 0.930 . S
H662 C678 0.931 . S
C663 H651 0.929 . S
C663 C657 1.390 . S
C663 C660 1.386 . S
C664 C659 1.490 . S
C664 C666 1.395 . S
C664 C667 1.403 . S
H665 C671 0.930 . S
C666 H652 0.930 . S
C666 C664 1.395 . S
C666 C669 1.403 . S
C667 C664 1.403 . S
C667 C668 1.524 . S
C667 C671 1.400 . S
C668 H653 0.960 . S
C668 H654 0.960 . S
C668 H655 0.960 . S
C668 C667 1.524 . S
C669 C666 1.403 . S
C669 C670 1.392 . S
C669 C673 1.495 . S
C670 C669 1.392 . S
C670 C671 1.385 . S
C670 C672 1.478 . S
C671 H665 0.930 . S
C671 C667 1.400 . S
C671 C670 1.385 . S
C672 C670 1.478 . S
C672 C674 1.381 . S
C672 C678 1.383 . S
C673 C669 1.495 . S
C673 H679 0.959 . S
C673 H680 0.961 . S
C673 H681 0.960 . S
C674 C672 1.381 . S
C674 C675 1.394 . S
C674 H682 0.930 . S
C675 C674 1.394 . S
C675 C676 1.383 . S
C675 H683 0.929 . S
C676 C675 1.383 . S
C676 C677 1.377 . S
C677 H661 0.930 . S
C677 C676 1.377 . S
C677 C678 1.379 . S
C678 H662 0.931 . S
C678 C672 1.383 . S
C678 C677 1.379 . S
H679 C673 0.959 . S
H680 C673 0.961 . S
H681 C673 0.960 . S
H682 C674 0.930 . S
H683 C675 0.929 . S
H684 C692 0.929 . S
H685 C694 0.930 . S
H686 C696 0.930 . S
H687 C699 0.929 . S
H688 C702 0.930 . S
H689 C704 0.953 1_565 S
H690 C704 1.002 . S
H691 C704 0.920 1_565 S
C692 H684 0.929 . S
C692 C693 1.377 . S
C692 C694 1.384 . S
C693 C692 1.377 . S
C693 C699 1.390 1_545 S
C694 H685 0.930 . S
C694 C692 1.384 . S
C694 C695 1.372 . S
C695 C694 1.372 . S
C695 C696 1.400 1_545 S
C695 C700 1.490 . S
C696 H686 0.930 . S
C696 C695 1.400 1_565 S
C696 C699 1.386 . S
H697 C713 0.930 . S
H698 C714 0.931 . S
C699 H687 0.929 . S
C699 C693 1.390 1_565 S
C699 C696 1.386 . S
C700 C695 1.490 . S
C700 C702 1.395 . S
C700 C703 1.404 . S
H701 C707 0.939 . S
C702 H688 0.930 . S
C702 C700 1.395 . S
C702 C705 1.403 . S
C703 C700 1.404 . S
C703 C704 1.532 1_554 S
C703 C707 1.399 1_554 S
C704 H689 0.953 1_545 S
C704 H690 1.002 . S
C704 H691 0.920 1_545 S
C704 C703 1.532 1_556 S
C705 C702 1.403 . S
C705 C706 1.392 1_554 S
C705 C709 1.495 . S
C706 C705 1.392 1_556 S
C706 C707 1.385 . S
C706 C708 1.478 . S
C707 H701 0.939 . S
C707 C703 1.399 1_556 S
C707 C706 1.385 . S
C708 C706 1.478 . S
C708 C710 1.381 . S
C708 C714 1.383 1_545 S
C709 C705 1.495 . S
C709 H715 0.959 . S
C709 H716 0.961 . S
C709 H717 0.960 . S
C710 C708 1.381 . S
C710 C711 1.394 . S
C710 H718 0.930 . S
C711 C710 1.394 . S
C711 C712 1.383 . S
C711 H719 0.929 . S
C712 C711 1.383 . S
C712 C713 1.377 1_545 S
C713 H697 0.930 . S
C713 C712 1.377 1_565 S
C713 C714 1.379 . S
C714 H698 0.931 . S
C714 C708 1.383 1_565 S
C714 C713 1.379 . S
H715 C709 0.959 . S
H716 C709 0.961 . S
H717 C709 0.960 . S
H718 C710 0.930 . S
H719 C711 0.929 . S
H720 C728 0.929 . S
H721 C730 0.930 . S
H722 C732 0.930 . S
H723 C735 0.929 . S
H724 C738 0.930 . S
H725 C740 0.960 . S
H726 C740 0.960 . S
H727 C740 0.960 . S
C728 H720 0.929 . S
C728 C729 1.377 . S
C728 C730 1.384 . S
C729 C728 1.377 . S
C729 C735 1.390 . S
C730 H721 0.930 . S
C730 C728 1.384 . S
C730 C731 1.372 . S
C731 C730 1.372 . S
C731 C732 1.400 . S
C731 C736 1.490 . S
C732 H722 0.930 . S
C732 C731 1.400 . S
C732 C735 1.386 . S
H733 C749 0.930 . S
H734 C750 0.931 . S
C735 H723 0.929 . S
C735 C729 1.390 . S
C735 C732 1.386 . S
C736 C731 1.490 . S
C736 C738 1.395 . S
C736 C739 1.403 . S
H737 C743 0.930 . S
C738 H724 0.930 . S
C738 C736 1.395 . S
C738 C741 1.403 . S
C739 C736 1.403 . S
C739 C740 1.524 . S
C739 C743 1.400 . S
C740 H725 0.960 . S
C740 H726 0.960 . S
C740 H727 0.960 . S
C740 C739 1.524 . S
C741 C738 1.403 . S
C741 C742 1.392 . S
C741 C745 1.495 . S
C742 C741 1.392 . S
C742 C743 1.385 . S
C742 C744 1.478 . S
C743 H737 0.930 . S
C743 C739 1.400 . S
C743 C742 1.385 . S
C744 C742 1.478 . S
C744 C746 1.381 . S
C744 C750 1.383 . S
C745 C741 1.495 . S
C745 H751 0.959 . S
C745 H752 0.961 . S
C745 H753 0.960 . S
C746 C744 1.381 . S
C746 C747 1.394 . S
C746 H754 0.930 . S
C747 C746 1.394 . S
C747 C748 1.383 . S
C747 H755 0.929 . S
C748 C747 1.383 . S
C748 C749 1.377 . S
C749 H733 0.930 . S
C749 C748 1.377 . S
C749 C750 1.379 . S
C750 H734 0.931 . S
C750 C744 1.383 . S
C750 C749 1.379 . S
H751 C745 0.959 . S
H752 C745 0.961 . S
H753 C745 0.960 . S
H754 C746 0.930 . S
H755 C747 0.929 . S
H756 C764 0.929 . S
H757 C766 0.930 . S
H758 C768 0.930 . S
H759 C771 0.929 . S
H760 C774 0.930 . S
H761 C776 0.960 . S
H762 C776 0.960 . S
H763 C776 0.960 . S
C764 H756 0.929 . S
C764 C765 1.377 . S
C764 C766 1.384 . S
C765 C764 1.377 . S
C765 C771 1.390 . S
C766 H757 0.930 . S
C766 C764 1.384 . S
C766 C767 1.372 . S
C767 C766 1.372 . S
C767 C768 1.400 . S
C767 C772 1.490 . S
C768 H758 0.930 . S
C768 C767 1.400 . S
C768 C771 1.386 . S
H769 C785 0.930 . S
H770 C786 0.931 1_565 S
C771 H759 0.929 . S
C771 C765 1.390 . S
C771 C768 1.386 . S
C772 C767 1.490 . S
C772 C774 1.395 1_545 S
C772 C775 1.403 . S
H773 C779 0.930 . S
C774 H760 0.930 . S
C774 C772 1.395 1_565 S
C774 C777 1.403 . S
C775 C772 1.403 . S
C775 C776 1.524 . S
C775 C779 1.400 . S
C776 H761 0.960 . S
C776 H762 0.960 . S
C776 H763 0.960 . S
C776 C775 1.524 . S
C777 C774 1.403 . S
C777 C778 1.392 1_565 S
C777 C781 1.495 . S
C778 C777 1.392 1_545 S
C778 C779 1.385 . S
C778 C780 1.478 . S
C779 H773 0.930 . S
C779 C775 1.400 . S
C779 C778 1.385 . S
C780 C778 1.478 . S
C780 C782 1.381 . S
C780 C786 1.383 . S
C781 C777 1.495 . S
C781 H787 0.959 . S
C781 H788 0.961 . S
C781 H789 0.960 . S
C782 C780 1.381 . S
C782 C783 1.394 . S
C782 H790 0.930 . S
C783 C782 1.394 . S
C783 C784 1.383 . S
C783 H791 0.929 . S
C784 C783 1.383 . S
C784 C785 1.377 . S
C785 H769 0.930 . S
C785 C784 1.377 . S
C785 C786 1.379 . S
C786 H770 0.931 1_545 S
C786 C780 1.383 . S
C786 C785 1.379 . S
H787 C781 0.959 . S
H788 C781 0.961 . S
H789 C781 0.960 . S
H790 C782 0.930 . S
H791 C783 0.929 . S
H792 C800 0.929 . S
H793 C802 0.930 . S
H794 C804 0.930 . S
H795 C807 0.929 . S
H796 C810 0.930 . S
H797 C812 0.960 . S
H798 C812 0.960 . S
H799 C812 0.960 . S
C800 H792 0.929 . S
C800 C801 1.377 . S
C800 C802 1.384 . S
C801 C800 1.377 . S
C801 C807 1.390 . S
C802 H793 0.930 . S
C802 C800 1.384 . S
C802 C803 1.372 . S
C803 C802 1.372 . S
C803 C804 1.400 . S
C803 C808 1.490 . S
C804 H794 0.930 . S
C804 C803 1.400 . S
C804 C807 1.386 . S
H805 C821 0.930 . S
H806 C822 0.931 . S
C807 H795 0.929 . S
C807 C801 1.390 . S
C807 C804 1.386 . S
C808 C803 1.490 . S
C808 C810 1.395 . S
C808 C811 1.403 . S
H809 C815 0.930 . S
C810 H796 0.930 . S
C810 C808 1.395 . S
C810 C813 1.403 . S
C811 C808 1.403 . S
C811 C812 1.524 . S
C811 C815 1.400 . S
C812 H797 0.960 . S
C812 H798 0.960 . S
C812 H799 0.960 . S
C812 C811 1.524 . S
C813 C810 1.403 . S
C813 C814 1.392 . S
C813 C817 1.495 . S
C814 C813 1.392 . S
C814 C815 1.385 . S
C814 C816 1.478 . S
C815 H809 0.930 . S
C815 C811 1.400 . S
C815 C814 1.385 . S
C816 C814 1.478 . S
C816 C818 1.381 . S
C816 C822 1.383 . S
C817 C813 1.495 . S
C817 H823 0.959 . S
C817 H824 0.961 . S
C817 H825 0.960 . S
C818 C816 1.381 . S
C818 C819 1.394 . S
C818 H826 0.930 . S
C819 C818 1.394 . S
C819 C820 1.383 . S
C819 H827 0.929 . S
C820 C819 1.383 . S
C820 C821 1.377 . S
C821 H805 0.930 . S
C821 C820 1.377 . S
C821 C822 1.379 . S
C822 H806 0.931 . S
C822 C816 1.383 . S
C822 C821 1.379 . S
H823 C817 0.959 . S
H824 C817 0.961 . S
H825 C817 0.960 . S
H826 C818 0.930 . S
H827 C819 0.929 . S
H828 C836 0.929 . S
H829 C838 0.930 . S
H830 C840 0.930 . S
H831 C843 0.929 . S
H832 C846 0.930 . S
H833 C848 0.960 . S
H834 C848 0.960 . S
H835 C848 0.960 . S
C836 H828 0.929 . S
C836 C837 1.377 . S
C836 C838 1.384 . S
C837 C836 1.377 . S
C837 C843 1.390 1_545 S
C838 H829 0.930 . S
C838 C836 1.384 . S
C838 C839 1.372 . S
C839 C838 1.372 . S
C839 C840 1.400 1_545 S
C839 C844 1.490 . S
C840 H830 0.930 . S
C840 C839 1.400 1_565 S
C840 C843 1.386 . S
H841 C857 0.930 . S
H842 C858 0.931 . S
C843 H831 0.929 . S
C843 C837 1.390 1_565 S
C843 C840 1.386 . S
C844 C839 1.490 . S
C844 C846 1.395 1_455 S
C844 C847 1.403 1_556 S
H845 C851 0.930 . S
C846 H832 0.930 . S
C846 C844 1.395 1_655 S
C846 C849 1.403 . S
C847 C844 1.403 1_554 S
C847 C848 1.524 . S
C847 C851 1.400 . S
C848 H833 0.960 . S
C848 H834 0.960 . S
C848 H835 0.960 . S
C848 C847 1.524 . S
C849 C846 1.403 . S
C849 C850 1.392 1_556 S
C849 C853 1.495 . S
C850 C849 1.392 1_554 S
C850 C851 1.385 1_655 S
C850 C852 1.478 . S
C851 H845 0.930 . S
C851 C847 1.400 . S
C851 C850 1.385 1_455 S
C852 C850 1.478 . S
C852 C854 1.381 . S
C852 C858 1.383 1_545 S
C853 C849 1.495 . S
C853 H859 0.959 . S
C853 H860 0.961 1_545 S
C853 H861 0.960 . S
C854 C852 1.381 . S
C854 C855 1.394 . S
C854 H862 0.930 . S
C855 C854 1.394 . S
C855 C856 1.383 . S
C855 H863 0.929 . S
C856 C855 1.383 . S
C856 C857 1.377 1_545 S
C857 H841 0.930 . S
C857 C856 1.377 1_565 S
C857 C858 1.379 . S
C858 H842 0.931 . S
C858 C852 1.383 1_565 S
C858 C857 1.379 . S
H859 C853 0.959 . S
H860 C853 0.961 1_565 S
H861 C853 0.960 . S
H862 C854 0.930 . S
H863 C855 0.929 . S
H864 C872 0.929 . S
H865 C874 0.930 . S
H866 C876 0.930 . S
H867 C879 0.929 . S
H868 C882 0.930 . S
H869 C884 0.960 . S
H870 C884 0.960 . S
H871 C884 0.960 . S
C872 H864 0.929 . S
C872 C873 1.377 . S
C872 C874 1.384 . S
C873 C872 1.377 . S
C873 C879 1.390 . S
C874 H865 0.930 . S
C874 C872 1.384 . S
C874 C875 1.372 . S
C875 C874 1.372 . S
C875 C876 1.400 . S
C875 C880 1.490 . S
C876 H866 0.930 . S
C876 C875 1.400 . S
C876 C879 1.386 . S
H877 C893 0.930 . S
H878 C894 0.931 . S
C879 H867 0.929 . S
C879 C873 1.390 . S
C879 C876 1.386 . S
C880 C875 1.490 . S
C880 C882 1.395 . S
C880 C883 1.403 . S
H881 C887 0.930 . S
C882 H868 0.930 . S
C882 C880 1.395 . S
C882 C885 1.403 . S
C883 C880 1.403 . S
C883 C884 1.524 . S
C883 C887 1.400 . S
C884 H869 0.960 . S
C884 H870 0.960 . S
C884 H871 0.960 . S
C884 C883 1.524 . S
C885 C882 1.403 . S
C885 C886 1.392 . S
C885 C889 1.495 . S
C886 C885 1.392 . S
C886 C887 1.385 . S
C886 C888 1.478 . S
C887 H881 0.930 . S
C887 C883 1.400 . S
C887 C886 1.385 . S
C888 C886 1.478 . S
C888 C890 1.381 . S
C888 C894 1.383 . S
C889 C885 1.495 . S
C889 H895 0.959 . S
C889 H896 0.961 . S
C889 H897 0.960 . S
C890 C888 1.381 . S
C890 C891 1.394 . S
C890 H898 0.930 . S
C891 C890 1.394 . S
C891 C892 1.383 . S
C891 H899 0.929 . S
C892 C891 1.383 . S
C892 C893 1.377 . S
C893 H877 0.930 . S
C893 C892 1.377 . S
C893 C894 1.379 . S
C894 H878 0.931 . S
C894 C888 1.383 . S
C894 C893 1.379 . S
H895 C889 0.959 . S
H896 C889 0.961 . S
H897 C889 0.960 . S
H898 C890 0.930 . S
H899 C891 0.929 . S
H900 C908 0.929 . S
H901 C910 0.930 . S
H902 C912 0.930 . S
H903 C915 0.929 . S
H904 C918 0.930 . S
H905 C920 0.960 . S
H906 C920 0.960 . S
H907 C920 0.960 . S
C908 H900 0.929 . S
C908 C909 1.377 . S
C908 C910 1.384 . S
C909 C908 1.377 . S
C909 C915 1.390 . S
C910 H901 0.930 . S
C910 C908 1.384 . S
C910 C911 1.372 . S
C911 C910 1.372 . S
C911 C912 1.400 . S
C911 C916 1.490 . S
C912 H902 0.930 . S
C912 C911 1.400 . S
C912 C915 1.386 . S
H913 C929 0.930 . S
H914 C930 0.931 . S
C915 H903 0.929 . S
C915 C909 1.390 . S
C915 C912 1.386 . S
C916 C911 1.490 . S
C916 C918 1.395 . S
C916 C919 1.403 . S
H917 C923 0.930 . S
C918 H904 0.930 . S
C918 C916 1.395 . S
C918 C921 1.403 . S
C919 C916 1.403 . S
C919 C920 1.524 . S
C919 C923 1.400 . S
C920 H905 0.960 . S
C920 H906 0.960 . S
C920 H907 0.960 . S
C920 C919 1.524 . S
C921 C918 1.403 . S
C921 C922 1.392 . S
C921 C925 1.495 . S
C922 C921 1.392 . S
C922 C923 1.385 . S
C922 C924 1.478 . S
C923 H917 0.930 . S
C923 C919 1.400 . S
C923 C922 1.385 . S
C924 C922 1.478 . S
C924 C926 1.381 . S
C924 C930 1.383 . S
C925 C921 1.495 . S
C925 H931 0.959 . S
C925 H932 0.961 . S
C925 H933 0.960 . S
C926 C924 1.381 . S
C926 C927 1.394 . S
C926 H934 0.930 . S
C927 C926 1.394 . S
C927 C928 1.383 . S
C927 H935 0.929 . S
C928 C927 1.383 . S
C928 C929 1.377 . S
C929 H913 0.930 . S
C929 C928 1.377 . S
C929 C930 1.379 . S
C930 H914 0.931 . S
C930 C924 1.383 . S
C930 C929 1.379 . S
H931 C925 0.959 . S
H932 C925 0.961 . S
H933 C925 0.960 . S
H934 C926 0.930 . S
H935 C927 0.929 . S
H936 C944 0.929 . S
H937 C946 0.930 . S
H938 C948 0.930 . S
H939 C951 0.929 . S
H940 C954 0.930 . S
H941 C956 0.960 . S
H942 C956 0.960 . S
H943 C956 0.960 . S
C944 H936 0.929 . S
C944 C945 1.377 . S
C944 C946 1.384 . S
C945 C944 1.377 . S
C945 C951 1.390 . S
C946 H937 0.930 . S
C946 C944 1.384 . S
C946 C947 1.372 . S
C947 C946 1.372 . S
C947 C948 1.400 . S
C947 C952 1.490 . S
C948 H938 0.930 . S
C948 C947 1.400 . S
C948 C951 1.386 . S
H949 C965 0.930 . S
H950 C966 0.931 . S
C951 H939 0.929 . S
C951 C945 1.390 . S
C951 C948 1.386 . S
C952 C947 1.490 . S
C952 C954 1.395 . S
C952 C955 1.403 . S
H953 C959 0.930 . S
C954 H940 0.930 . S
C954 C952 1.395 . S
C954 C957 1.403 . S
C955 C952 1.403 . S
C955 C956 1.524 . S
C955 C959 1.400 . S
C956 H941 0.960 . S
C956 H942 0.960 . S
C956 H943 0.960 . S
C956 C955 1.524 . S
C957 C954 1.403 . S
C957 C958 1.392 . S
C957 C961 1.495 . S
C958 C957 1.392 . S
C958 C959 1.385 . S
C958 C960 1.478 . S
C959 H953 0.930 . S
C959 C955 1.400 . S
C959 C958 1.385 . S
C960 C958 1.478 . S
C960 C962 1.381 . S
C960 C966 1.383 . S
C961 C957 1.495 . S
C961 H967 0.959 . S
C961 H968 0.961 . S
C961 H969 0.960 . S
C962 C960 1.381 . S
C962 C963 1.394 . S
C962 H970 0.930 . S
C963 C962 1.394 . S
C963 C964 1.383 . S
C963 H971 0.929 . S
C964 C963 1.383 . S
C964 C965 1.377 . S
C965 H949 0.930 . S
C965 C964 1.377 . S
C965 C966 1.379 . S
C966 H950 0.931 . S
C966 C960 1.383 . S
C966 C965 1.379 . S
H967 C961 0.959 . S
H968 C961 0.961 . S
H969 C961 0.960 . S
H970 C962 0.930 . S
H971 C963 0.929 . S
H972 C980 0.929 . S
H973 C982 0.930 . S
H974 C984 0.930 . S
H975 C987 0.929 . S
H976 C990 0.930 . S
H977 C992 0.960 . S
H978 C992 0.960 . S
H979 C992 0.960 . S
C980 H972 0.929 . S
C980 C981 1.377 . S
C980 C982 1.384 . S
C981 C980 1.377 . S
C981 C987 1.390 . S
C982 H973 0.930 . S
C982 C980 1.384 . S
C982 C983 1.372 . S
C983 C982 1.372 . S
C983 C984 1.400 . S
C983 C988 1.490 . S
C984 H974 0.930 . S
C984 C983 1.400 . S
C984 C987 1.386 . S
H985 C1001 0.930 . S
H986 C1002 0.931 . S
C987 H975 0.929 . S
C987 C981 1.390 . S
C987 C984 1.386 . S
C988 C983 1.490 . S
C988 C990 1.395 . S
C988 C991 1.403 . S
H989 C995 0.930 . S
C990 H976 0.930 . S
C990 C988 1.395 . S
C990 C993 1.403 . S
C991 C988 1.403 . S
C991 C992 1.524 . S
C991 C995 1.400 . S
C992 H977 0.960 . S
C992 H978 0.960 . S
C992 H979 0.960 . S
C992 C991 1.524 . S
C993 C990 1.403 . S
C993 C994 1.392 . S
C993 C997 1.495 . S
C994 C993 1.392 . S
C994 C995 1.385 . S
C994 C996 1.478 . S
C995 H989 0.930 . S
C995 C991 1.400 . S
C995 C994 1.385 . S
C996 C994 1.478 . S
C996 C998 1.381 . S
C996 C1002 1.383 . S
C997 C993 1.495 . S
C997 H1003 0.959 . S
C997 H1004 0.961 . S
C997 H1005 0.960 . S
C998 C996 1.381 . S
C998 C999 1.394 . S
C998 H1006 0.930 . S
C999 C998 1.394 . S
C999 C1000 1.383 . S
C999 H1007 0.929 . S
C1000 C999 1.383 . S
C1000 C1001 1.377 . S
C1001 H985 0.930 . S
C1001 C1000 1.377 . S
C1001 C1002 1.379 . S
C1002 H986 0.931 . S
C1002 C996 1.383 . S
C1002 C1001 1.379 . S
H1003 C997 0.959 . S
H1004 C997 0.961 . S
H1005 C997 0.960 . S
H1006 C998 0.930 . S
H1007 C999 0.929 . S
H1008 C1016 0.929 . S
H1009 C1018 0.930 . S
H1010 C1020 0.930 . S
H1011 C1023 0.929 . S
H1012 C1026 0.930 . S
H1013 C1028 0.960 . S
H1014 C1028 0.960 . S
H1015 C1028 0.960 . S
C1016 H1008 0.929 . S
C1016 C1017 1.377 . S
C1016 C1018 1.384 . S
C1017 C1016 1.377 . S
C1017 C1023 1.390 . S
C1018 H1009 0.930 . S
C1018 C1016 1.384 . S
C1018 C1019 1.372 . S
C1019 C1018 1.372 . S
C1019 C1020 1.400 . S
C1019 C1024 1.490 . S
C1020 H1010 0.930 . S
C1020 C1019 1.400 . S
C1020 C1023 1.386 . S
H1021 C1037 0.930 . S
H1022 C1038 0.931 . S
C1023 H1011 0.929 . S
C1023 C1017 1.390 . S
C1023 C1020 1.386 . S
C1024 C1019 1.490 . S
C1024 C1026 1.395 . S
C1024 C1027 1.403 . S
H1025 C1031 0.930 1_556 S
C1026 H1012 0.930 . S
C1026 C1024 1.395 . S
C1026 C1029 1.403 1_554 S
C1027 C1024 1.403 . S
C1027 C1028 1.524 . S
C1027 C1031 1.400 . S
C1028 H1013 0.960 . S
C1028 H1014 0.960 . S
C1028 H1015 0.960 . S
C1028 C1027 1.524 . S
C1029 C1026 1.403 1_556 S
C1029 C1030 1.392 . S
C1029 C1033 1.495 . S
C1030 C1029 1.392 . S
C1030 C1031 1.385 1_556 S
C1030 C1032 1.478 . S
C1031 H1025 0.930 1_554 S
C1031 C1027 1.400 . S
C1031 C1030 1.385 1_554 S
C1032 C1030 1.478 . S
C1032 C1034 1.381 . S
C1032 C1038 1.383 . S
C1033 C1029 1.495 . S
C1033 H1039 0.959 . S
C1033 H1040 0.961 . S
C1033 H1041 0.960 . S
C1034 C1032 1.381 . S
C1034 C1035 1.394 . S
C1034 H1042 0.930 . S
C1035 C1034 1.394 . S
C1035 C1036 1.383 . S
C1035 H1043 0.929 . S
C1036 C1035 1.383 . S
C1036 C1037 1.377 . S
C1037 H1021 0.930 . S
C1037 C1036 1.377 . S
C1037 C1038 1.379 . S
C1038 H1022 0.931 . S
C1038 C1032 1.383 . S
C1038 C1037 1.379 . S
H1039 C1033 0.959 . S
H1040 C1033 0.961 . S
H1041 C1033 0.960 . S
H1042 C1034 0.930 . S
H1043 C1035 0.929 . S
H1044 C1052 0.929 . S
H1045 C1054 0.930 . S
H1046 C1056 0.930 . S
H1047 C1059 0.929 . S
H1048 C1062 0.930 . S
H1049 C1064 0.960 . S
H1050 C1064 0.960 . S
H1051 C1064 0.960 . S
C1052 H1044 0.929 . S
C1052 C1053 1.377 . S
C1052 C1054 1.384 . S
C1053 C1052 1.377 . S
C1053 C1059 1.390 . S
C1054 H1045 0.930 . S
C1054 C1052 1.384 . S
C1054 C1055 1.372 . S
C1055 C1054 1.372 . S
C1055 C1056 1.400 . S
C1055 C1060 1.490 . S
C1056 H1046 0.930 . S
C1056 C1055 1.400 . S
C1056 C1059 1.386 . S
H1057 C1073 0.930 . S
H1058 C1074 0.931 . S
C1059 H1047 0.929 . S
C1059 C1053 1.390 . S
C1059 C1056 1.386 . S
C1060 C1055 1.490 . S
C1060 C1062 1.395 1_455 S
C1060 C1063 1.403 . S
H1061 C1067 0.930 . S
C1062 H1048 0.930 . S
C1062 C1060 1.395 1_655 S
C1062 C1065 1.403 . S
C1063 C1060 1.403 . S
C1063 C1064 1.524 . S
C1063 C1067 1.400 . S
C1064 H1049 0.960 . S
C1064 H1050 0.960 . S
C1064 H1051 0.960 . S
C1064 C1063 1.524 . S
C1065 C1062 1.403 . S
C1065 C1066 1.392 . S
C1065 C1069 1.495 . S
C1066 C1065 1.392 . S
C1066 C1067 1.385 1_655 S
C1066 C1068 1.478 . S
C1067 H1061 0.930 . S
C1067 C1063 1.400 . S
C1067 C1066 1.385 1_455 S
C1068 C1066 1.478 . S
C1068 C1070 1.381 . S
C1068 C1074 1.383 . S
C1069 C1065 1.495 . S
C1069 H1075 0.959 . S
C1069 H1076 0.961 . S
C1069 H1077 0.960 . S
C1070 C1068 1.381 . S
C1070 C1071 1.394 . S
C1070 H1078 0.930 . S
C1071 C1070 1.394 . S
C1071 C1072 1.383 . S
C1071 H1079 0.929 . S
C1072 C1071 1.383 . S
C1072 C1073 1.377 . S
C1073 H1057 0.930 . S
C1073 C1072 1.377 . S
C1073 C1074 1.379 . S
C1074 H1058 0.931 . S
C1074 C1068 1.383 . S
C1074 C1073 1.379 . S
H1075 C1069 0.959 . S
H1076 C1069 0.961 . S
H1077 C1069 0.960 . S
H1078 C1070 0.930 . S
H1079 C1071 0.929 . S
H1080 C1088 0.929 . S
H1081 C1090 0.930 . S
H1082 C1092 0.930 . S
H1083 C1095 0.929 . S
H1084 C1098 0.930 . S
H1085 C1100 0.960 1_556 S
H1086 C1100 0.960 . S
H1087 C1100 0.960 . S
C1088 H1080 0.929 . S
C1088 C1089 1.377 . S
C1088 C1090 1.384 . S
C1089 C1088 1.377 . S
C1089 C1095 1.390 . S
C1090 H1081 0.930 . S
C1090 C1088 1.384 . S
C1090 C1091 1.372 . S
C1091 C1090 1.372 . S
C1091 C1092 1.400 . S
C1091 C1096 1.490 . S
C1092 H1082 0.930 . S
C1092 C1091 1.400 . S
C1092 C1095 1.386 . S
H1093 C1109 0.930 . S
H1094 C1110 0.931 . S
C1095 H1083 0.929 . S
C1095 C1089 1.390 . S
C1095 C1092 1.386 . S
C1096 C1091 1.490 . S
C1096 C1098 1.395 . S
C1096 C1099 1.403 . S
H1097 C1103 0.930 . S
C1098 H1084 0.930 . S
C1098 C1096 1.395 . S
C1098 C1101 1.403 1_455 S
C1099 C1096 1.403 . S
C1099 C1100 1.524 . S
C1099 C1103 1.400 1_454 S
C1100 H1085 0.960 1_554 S
C1100 H1086 0.960 . S
C1100 H1087 0.960 . S
C1100 C1099 1.524 . S
C1101 C1098 1.403 1_655 S
C1101 C1102 1.392 1_554 S
C1101 C1105 1.496 . S
C1102 C1101 1.392 1_556 S
C1102 C1103 1.385 . S
C1102 C1104 1.478 . S
C1103 H1097 0.930 . S
C1103 C1099 1.400 1_656 S
C1103 C1102 1.385 . S
C1104 C1102 1.478 . S
C1104 C1106 1.381 . S
C1104 C1110 1.383 . S
C1105 C1101 1.496 . S
C1105 H1111 0.974 . S
C1105 H1112 0.965 . S
C1105 H1113 0.941 1_554 S
C1106 C1104 1.381 . S
C1106 C1107 1.394 . S
C1106 H1114 0.930 . S
C1107 C1106 1.394 . S
C1107 C1108 1.383 . S
C1107 H1115 0.929 . S
C1108 C1107 1.383 . S
C1108 C1109 1.377 . S
C1109 H1093 0.930 . S
C1109 C1108 1.377 . S
C1109 C1110 1.379 . S
C1110 H1094 0.931 . S
C1110 C1104 1.383 . S
C1110 C1109 1.379 . S
H1111 C1105 0.974 . S
H1112 C1105 0.965 . S
H1113 C1105 0.941 1_556 S
H1114 C1106 0.930 . S
H1115 C1107 0.929 . S
H1116 C1124 0.929 . S
H1117 C1126 0.930 . S
H1118 C1128 0.930 . S
H1119 C1131 0.929 . S
H1120 C1134 0.930 . S
H1121 C1136 0.960 . S
H1122 C1136 0.960 . S
H1123 C1136 0.960 . S
C1124 H1116 0.929 . S
C1124 C1125 1.377 . S
C1124 C1126 1.384 . S
C1125 C1124 1.377 . S
C1125 C1131 1.390 . S
C1126 H1117 0.930 . S
C1126 C1124 1.384 . S
C1126 C1127 1.372 . S
C1127 C1126 1.372 . S
C1127 C1128 1.400 . S
C1127 C1132 1.490 . S
C1128 H1118 0.930 . S
C1128 C1127 1.400 . S
C1128 C1131 1.386 . S
H1129 C1145 0.930 . S
H1130 C1146 0.931 . S
C1131 H1119 0.929 . S
C1131 C1125 1.390 . S
C1131 C1128 1.386 . S
C1132 C1127 1.490 . S
C1132 C1134 1.395 . S
C1132 C1135 1.403 . S
H1133 C1139 0.930 . S
C1134 H1120 0.930 . S
C1134 C1132 1.395 . S
C1134 C1137 1.403 . S
C1135 C1132 1.403 . S
C1135 C1136 1.524 . S
C1135 C1139 1.400 . S
C1136 H1121 0.960 . S
C1136 H1122 0.960 . S
C1136 H1123 0.960 . S
C1136 C1135 1.524 . S
C1137 C1134 1.403 . S
C1137 C1138 1.392 . S
C1137 C1141 1.495 . S
C1138 C1137 1.392 . S
C1138 C1139 1.385 . S
C1138 C1140 1.478 . S
C1139 H1133 0.930 . S
C1139 C1135 1.400 . S
C1139 C1138 1.385 . S
C1140 C1138 1.478 . S
C1140 C1142 1.381 . S
C1140 C1146 1.383 . S
C1141 C1137 1.495 . S
C1141 H1147 0.959 . S
C1141 H1148 0.961 . S
C1141 H1149 0.960 . S
C1142 C1140 1.381 . S
C1142 C1143 1.394 . S
C1142 H1150 0.930 . S
C1143 C1142 1.394 . S
C1143 C1144 1.383 . S
C1143 H1151 0.929 . S
C1144 C1143 1.383 . S
C1144 C1145 1.377 . S
C1145 H1129 0.930 . S
C1145 C1144 1.377 . S
C1145 C1146 1.379 . S
C1146 H1130 0.931 . S
C1146 C1140 1.383 . S
C1146 C1145 1.379 . S
H1147 C1141 0.959 . S
H1148 C1141 0.961 . S
H1149 C1141 0.960 . S
H1150 C1142 0.930 . S
H1151 C1143 0.929 . S
H1152 C1160 0.929 . S
H1153 C1162 0.930 . S
H1154 C1164 0.930 . S
H1155 C1167 0.929 . S
H1156 C1170 0.930 . S
H1157 C1172 0.960 . S
H1158 C1172 0.960 . S
H1159 C1172 0.960 . S
C1160 H1152 0.929 . S
C1160 C1161 1.377 . S
C1160 C1162 1.384 . S
C1161 C1160 1.377 . S
C1161 C1167 1.390 . S
C1162 H1153 0.930 . S
C1162 C1160 1.384 . S
C1162 C1163 1.372 . S
C1163 C1162 1.372 . S
C1163 C1164 1.400 . S
C1163 C1168 1.490 . S
C1164 H1154 0.930 . S
C1164 C1163 1.400 . S
C1164 C1167 1.386 . S
H1165 C1181 0.930 . S
H1166 C1182 0.931 . S
C1167 H1155 0.929 . S
C1167 C1161 1.390 . S
C1167 C1164 1.386 . S
C1168 C1163 1.490 . S
C1168 C1170 1.395 . S
C1168 C1171 1.403 . S
H1169 C1175 0.930 . S
C1170 H1156 0.930 . S
C1170 C1168 1.395 . S
C1170 C1173 1.403 . S
C1171 C1168 1.403 . S
C1171 C1172 1.524 . S
C1171 C1175 1.400 . S
C1172 H1157 0.960 . S
C1172 H1158 0.960 . S
C1172 H1159 0.960 . S
C1172 C1171 1.524 . S
C1173 C1170 1.403 . S
C1173 C1174 1.392 . S
C1173 C1177 1.495 . S
C1174 C1173 1.392 . S
C1174 C1175 1.385 . S
C1174 C1176 1.478 . S
C1175 H1169 0.930 . S
C1175 C1171 1.400 . S
C1175 C1174 1.385 . S
C1176 C1174 1.478 . S
C1176 C1178 1.381 . S
C1176 C1182 1.383 . S
C1177 C1173 1.495 . S
C1177 H1183 0.959 . S
C1177 H1184 0.961 . S
C1177 H1185 0.960 . S
C1178 C1176 1.381 . S
C1178 C1179 1.394 . S
C1178 H1186 0.930 . S
C1179 C1178 1.394 . S
C1179 C1180 1.383 . S
C1179 H1187 0.929 . S
C1180 C1179 1.383 . S
C1180 C1181 1.377 . S
C1181 H1165 0.930 . S
C1181 C1180 1.377 . S
C1181 C1182 1.379 . S
C1182 H1166 0.931 . S
C1182 C1176 1.383 . S
C1182 C1181 1.379 . S
H1183 C1177 0.959 . S
H1184 C1177 0.961 . S
H1185 C1177 0.960 . S
H1186 C1178 0.930 . S
H1187 C1179 0.929 . S
H1188 C1196 0.929 . S
H1189 C1198 0.930 . S
H1190 C1200 0.930 . S
H1191 C1203 0.929 . S
H1192 C1206 0.930 . S
H1193 C1208 0.960 . S
H1194 C1208 0.960 . S
H1195 C1208 0.960 . S
C1196 H1188 0.929 . S
C1196 C1197 1.377 . S
C1196 C1198 1.384 . S
C1197 C1196 1.377 . S
C1197 C1203 1.390 . S
C1198 H1189 0.930 . S
C1198 C1196 1.384 . S
C1198 C1199 1.372 . S
C1199 C1198 1.372 . S
C1199 C1200 1.400 . S
C1199 C1204 1.490 . S
C1200 H1190 0.930 . S
C1200 C1199 1.400 . S
C1200 C1203 1.386 . S
H1201 C1217 0.930 . S
H1202 C1218 0.931 . S
C1203 H1191 0.929 . S
C1203 C1197 1.390 . S
C1203 C1200 1.386 . S
C1204 C1199 1.490 . S
C1204 C1206 1.395 . S
C1204 C1207 1.403 . S
H1205 C1211 0.930 . S
C1206 H1192 0.930 . S
C1206 C1204 1.395 . S
C1206 C1209 1.403 . S
C1207 C1204 1.403 . S
C1207 C1208 1.524 . S
C1207 C1211 1.400 . S
C1208 H1193 0.960 . S
C1208 H1194 0.960 . S
C1208 H1195 0.960 . S
C1208 C1207 1.524 . S
C1209 C1206 1.403 . S
C1209 C1210 1.392 . S
C1209 C1213 1.495 . S
C1210 C1209 1.392 . S
C1210 C1211 1.385 . S
C1210 C1212 1.478 . S
C1211 H1205 0.930 . S
C1211 C1207 1.400 . S
C1211 C1210 1.385 . S
C1212 C1210 1.478 . S
C1212 C1214 1.381 . S
C1212 C1218 1.383 . S
C1213 C1209 1.495 . S
C1213 H1219 0.959 . S
C1213 H1220 0.961 . S
C1213 H1221 0.960 . S
C1214 C1212 1.381 . S
C1214 C1215 1.394 . S
C1214 H1222 0.930 . S
C1215 C1214 1.394 . S
C1215 C1216 1.383 . S
C1215 H1223 0.929 . S
C1216 C1215 1.383 . S
C1216 C1217 1.377 . S
C1217 H1201 0.930 . S
C1217 C1216 1.377 . S
C1217 C1218 1.379 . S
C1218 H1202 0.931 . S
C1218 C1212 1.383 . S
C1218 C1217 1.379 . S
H1219 C1213 0.959 . S
H1220 C1213 0.961 . S
H1221 C1213 0.960 . S
H1222 C1214 0.930 . S
H1223 C1215 0.929 . S
H1224 C1232 0.929 . S
H1225 C1234 0.930 . S
H1226 C1236 0.930 . S
H1227 C1239 0.929 . S
H1228 C1242 0.930 . S
H1229 C1244 0.960 . S
H1230 C1244 0.960 . S
H1231 C1244 0.960 . S
C1232 H1224 0.929 . S
C1232 C1233 1.377 . S
C1232 C1234 1.384 . S
C1233 C1232 1.377 . S
C1233 C1239 1.390 . S
C1234 H1225 0.930 . S
C1234 C1232 1.384 . S
C1234 C1235 1.372 . S
C1235 C1234 1.372 . S
C1235 C1236 1.400 . S
C1235 C1240 1.490 . S
C1236 H1226 0.930 . S
C1236 C1235 1.400 . S
C1236 C1239 1.386 . S
H1237 C1253 0.930 . S
H1238 C1254 0.931 . S
C1239 H1227 0.929 . S
C1239 C1233 1.390 . S
C1239 C1236 1.386 . S
C1240 C1235 1.490 . S
C1240 C1242 1.395 . S
C1240 C1243 1.403 . S
H1241 C1247 0.930 . S
C1242 H1228 0.930 . S
C1242 C1240 1.395 . S
C1242 C1245 1.403 . S
C1243 C1240 1.403 . S
C1243 C1244 1.524 . S
C1243 C1247 1.400 . S
C1244 H1229 0.960 . S
C1244 H1230 0.960 . S
C1244 H1231 0.960 . S
C1244 C1243 1.524 . S
C1245 C1242 1.403 . S
C1245 C1246 1.392 . S
C1245 C1249 1.495 . S
C1246 C1245 1.392 . S
C1246 C1247 1.385 . S
C1246 C1248 1.478 . S
C1247 H1241 0.930 . S
C1247 C1243 1.400 . S
C1247 C1246 1.385 . S
C1248 C1246 1.478 . S
C1248 C1250 1.381 . S
C1248 C1254 1.383 . S
C1249 C1245 1.495 . S
C1249 H1255 0.959 . S
C1249 H1256 0.961 . S
C1249 H1257 0.960 . S
C1250 C1248 1.381 . S
C1250 C1251 1.394 . S
C1250 H1258 0.930 . S
C1251 C1250 1.394 . S
C1251 C1252 1.383 . S
C1251 H1259 0.929 . S
C1252 C1251 1.383 . S
C1252 C1253 1.377 . S
C1253 H1237 0.930 . S
C1253 C1252 1.377 . S
C1253 C1254 1.379 . S
C1254 H1238 0.931 . S
C1254 C1248 1.383 . S
C1254 C1253 1.379 . S
H1255 C1249 0.959 . S
H1256 C1249 0.961 . S
H1257 C1249 0.960 . S
H1258 C1250 0.930 . S
H1259 C1251 0.929 . S
H1260 C1268 0.929 . S
H1261 C1270 0.930 . S
H1262 C1272 0.930 . S
H1263 C1275 0.929 . S
H1264 C1278 0.930 . S
H1265 C1280 0.960 . S
H1266 C1280 0.960 . S
H1267 C1280 0.960 . S
C1268 H1260 0.929 . S
C1268 C1269 1.377 . S
C1268 C1270 1.384 . S
C1269 C1268 1.377 . S
C1269 C1275 1.390 . S
C1270 H1261 0.930 . S
C1270 C1268 1.384 . S
C1270 C1271 1.372 . S
C1271 C1270 1.372 . S
C1271 C1272 1.400 . S
C1271 C1276 1.490 . S
C1272 H1262 0.930 . S
C1272 C1271 1.400 . S
C1272 C1275 1.386 . S
H1273 C1289 0.930 . S
H1274 C1290 0.931 . S
C1275 H1263 0.929 . S
C1275 C1269 1.390 . S
C1275 C1272 1.386 . S
C1276 C1271 1.490 . S
C1276 C1278 1.395 . S
C1276 C1279 1.403 . S
H1277 C1283 0.930 . S
C1278 H1264 0.930 . S
C1278 C1276 1.395 . S
C1278 C1281 1.403 . S
C1279 C1276 1.403 . S
C1279 C1280 1.524 . S
C1279 C1283 1.400 . S
C1280 H1265 0.960 . S
C1280 H1266 0.960 . S
C1280 H1267 0.960 . S
C1280 C1279 1.524 . S
C1281 C1278 1.403 . S
C1281 C1282 1.392 . S
C1281 C1285 1.495 . S
C1282 C1281 1.392 . S
C1282 C1283 1.385 . S
C1282 C1284 1.478 . S
C1283 H1277 0.930 . S
C1283 C1279 1.400 . S
C1283 C1282 1.385 . S
C1284 C1282 1.478 . S
C1284 C1286 1.381 . S
C1284 C1290 1.383 . S
C1285 C1281 1.495 . S
C1285 H1291 0.959 . S
C1285 H1292 0.961 . S
C1285 H1293 0.960 . S
C1286 C1284 1.381 . S
C1286 C1287 1.394 . S
C1286 H1294 0.930 . S
C1287 C1286 1.394 . S
C1287 C1288 1.383 . S
C1287 H1295 0.929 . S
C1288 C1287 1.383 . S
C1288 C1289 1.377 . S
C1289 H1273 0.930 . S
C1289 C1288 1.377 . S
C1289 C1290 1.379 . S
C1290 H1274 0.931 . S
C1290 C1284 1.383 . S
C1290 C1289 1.379 . S
H1291 C1285 0.959 . S
H1292 C1285 0.961 . S
H1293 C1285 0.960 . S
H1294 C1286 0.930 . S
H1295 C1287 0.929 . S
H1296 C1304 0.929 . S
H1297 C1306 0.930 . S
H1298 C1308 0.930 . S
H1299 C1311 0.929 . S
H1300 C1314 0.930 . S
H1301 C1316 0.960 . S
H1302 C1316 0.960 . S
H1303 C1316 0.960 . S
C1304 H1296 0.929 . S
C1304 C1305 1.377 . S
C1304 C1306 1.384 . S
C1305 C1304 1.377 . S
C1305 C1311 1.390 . S
C1306 H1297 0.930 . S
C1306 C1304 1.384 . S
C1306 C1307 1.372 . S
C1307 C1306 1.372 . S
C1307 C1308 1.400 . S
C1307 C1312 1.490 . S
C1308 H1298 0.930 . S
C1308 C1307 1.400 . S
C1308 C1311 1.386 . S
H1309 C1325 0.930 . S
H1310 C1326 0.931 . S
C1311 H1299 0.929 . S
C1311 C1305 1.390 . S
C1311 C1308 1.386 . S
C1312 C1307 1.490 . S
C1312 C1314 1.395 . S
C1312 C1315 1.403 . S
H1313 C1319 0.930 . S
C1314 H1300 0.930 . S
C1314 C1312 1.395 . S
C1314 C1317 1.403 . S
C1315 C1312 1.403 . S
C1315 C1316 1.524 . S
C1315 C1319 1.400 . S
C1316 H1301 0.960 . S
C1316 H1302 0.960 . S
C1316 H1303 0.960 . S
C1316 C1315 1.524 . S
C1317 C1314 1.403 . S
C1317 C1318 1.392 . S
C1317 C1321 1.495 . S
C1318 C1317 1.392 . S
C1318 C1319 1.385 . S
C1318 C1320 1.478 . S
C1319 H1313 0.930 . S
C1319 C1315 1.400 . S
C1319 C1318 1.385 . S
C1320 C1318 1.478 . S
C1320 C1322 1.381 . S
C1320 C1326 1.383 . S
C1321 C1317 1.495 . S
C1321 H1327 0.959 . S
C1321 H1328 0.961 . S
C1321 H1329 0.960 . S
C1322 C1320 1.381 . S
C1322 C1323 1.394 . S
C1322 H1330 0.930 . S
C1323 C1322 1.394 . S
C1323 C1324 1.383 . S
C1323 H1331 0.929 . S
C1324 C1323 1.383 . S
C1324 C1325 1.377 . S
C1325 H1309 0.930 . S
C1325 C1324 1.377 . S
C1325 C1326 1.379 . S
C1326 H1310 0.931 . S
C1326 C1320 1.383 . S
C1326 C1325 1.379 . S
H1327 C1321 0.959 . S
H1328 C1321 0.961 . S
H1329 C1321 0.960 . S
H1330 C1322 0.930 . S
H1331 C1323 0.929 . S
H1332 C1340 0.929 . S
H1333 C1342 0.930 . S
H1334 C1344 0.930 . S
H1335 C1347 0.929 . S
H1336 C1350 0.930 . S
H1337 C1352 0.960 . S
H1338 C1352 0.960 . S
H1339 C1352 0.960 . S
C1340 H1332 0.929 . S
C1340 C1341 1.377 . S
C1340 C1342 1.384 . S
C1341 C1340 1.377 . S
C1341 C1347 1.390 . S
C1342 H1333 0.930 . S
C1342 C1340 1.384 . S
C1342 C1343 1.372 . S
C1343 C1342 1.372 . S
C1343 C1344 1.400 . S
C1343 C1348 1.490 . S
C1344 H1334 0.930 . S
C1344 C1343 1.400 . S
C1344 C1347 1.386 . S
H1345 C1361 0.930 . S
H1346 C1362 0.931 . S
C1347 H1335 0.929 . S
C1347 C1341 1.390 . S
C1347 C1344 1.386 . S
C1348 C1343 1.490 . S
C1348 C1350 1.395 . S
C1348 C1351 1.403 . S
H1349 C1355 0.930 . S
C1350 H1336 0.930 . S
C1350 C1348 1.395 . S
C1350 C1353 1.403 . S
C1351 C1348 1.403 . S
C1351 C1352 1.524 . S
C1351 C1355 1.400 . S
C1352 H1337 0.960 . S
C1352 H1338 0.960 . S
C1352 H1339 0.960 . S
C1352 C1351 1.524 . S
C1353 C1350 1.403 . S
C1353 C1354 1.392 . S
C1353 C1357 1.495 . S
C1354 C1353 1.392 . S
C1354 C1355 1.385 . S
C1354 C1356 1.478 . S
C1355 H1349 0.930 . S
C1355 C1351 1.400 . S
C1355 C1354 1.385 . S
C1356 C1354 1.478 . S
C1356 C1358 1.381 . S
C1356 C1362 1.383 . S
C1357 C1353 1.495 . S
C1357 H1363 0.959 . S
C1357 H1364 0.961 . S
C1357 H1365 0.960 . S
C1358 C1356 1.381 . S
C1358 C1359 1.394 . S
C1358 H1366 0.930 . S
C1359 C1358 1.394 . S
C1359 C1360 1.383 . S
C1359 H1367 0.929 . S
C1360 C1359 1.383 . S
C1360 C1361 1.377 . S
C1361 H1345 0.930 . S
C1361 C1360 1.377 . S
C1361 C1362 1.379 . S
C1362 H1346 0.931 . S
C1362 C1356 1.383 . S
C1362 C1361 1.379 . S
H1363 C1357 0.959 . S
H1364 C1357 0.961 . S
H1365 C1357 0.960 . S
H1366 C1358 0.930 . S
H1367 C1359 0.929 . S
H1368 C1376 0.929 . S
H1369 C1378 0.930 . S
H1370 C1380 0.930 . S
H1371 C1383 0.929 . S
H1372 C1386 0.930 . S
H1373 C1388 0.960 . S
H1374 C1388 0.960 . S
H1375 C1388 0.960 . S
C1376 H1368 0.929 . S
C1376 C1377 1.377 . S
C1376 C1378 1.384 . S
C1377 C1376 1.377 . S
C1377 C1383 1.390 . S
C1378 H1369 0.930 . S
C1378 C1376 1.384 . S
C1378 C1379 1.372 . S
C1379 C1378 1.372 . S
C1379 C1380 1.400 . S
C1379 C1384 1.490 . S
C1380 H1370 0.930 . S
C1380 C1379 1.400 . S
C1380 C1383 1.386 . S
H1381 C1397 0.930 1_554 S
H1382 C1398 0.931 . S
C1383 H1371 0.929 . S
C1383 C1377 1.390 . S
C1383 C1380 1.386 . S
C1384 C1379 1.490 . S
C1384 C1386 1.395 . S
C1384 C1387 1.403 . S
H1385 C1391 0.930 . S
C1386 H1372 0.930 . S
C1386 C1384 1.395 . S
C1386 C1389 1.403 . S
C1387 C1384 1.403 . S
C1387 C1388 1.524 . S
C1387 C1391 1.400 . S
C1388 H1373 0.960 . S
C1388 H1374 0.960 . S
C1388 H1375 0.960 . S
C1388 C1387 1.524 . S
C1389 C1386 1.403 . S
C1389 C1390 1.392 . S
C1389 C1393 1.495 . S
C1390 C1389 1.392 . S
C1390 C1391 1.385 . S
C1390 C1392 1.478 . S
C1391 H1385 0.930 . S
C1391 C1387 1.400 . S
C1391 C1390 1.385 . S
C1392 C1390 1.478 . S
C1392 C1394 1.381 . S
C1392 C1398 1.383 . S
C1393 C1389 1.495 . S
C1393 H1399 0.959 . S
C1393 H1400 0.961 . S
C1393 H1401 0.960 . S
C1394 C1392 1.381 . S
C1394 C1395 1.394 . S
C1394 H1402 0.930 . S
C1395 C1394 1.394 . S
C1395 C1396 1.383 . S
C1395 H1403 0.929 . S
C1396 C1395 1.383 . S
C1396 C1397 1.377 . S
C1397 H1381 0.930 1_556 S
C1397 C1396 1.377 . S
C1397 C1398 1.379 . S
C1398 H1382 0.931 . S
C1398 C1392 1.383 . S
C1398 C1397 1.379 . S
H1399 C1393 0.959 . S
H1400 C1393 0.961 . S
H1401 C1393 0.960 . S
H1402 C1394 0.930 . S
H1403 C1395 0.929 . S
H1404 C1412 0.929 . S
H1405 C1414 0.930 . S
H1406 C1416 0.930 . S
H1407 C1419 0.929 . S
H1408 C1422 0.930 . S
H1409 C1424 0.960 . S
H1410 C1424 0.960 . S
H1411 C1424 0.960 . S
C1412 H1404 0.929 . S
C1412 C1413 1.377 . S
C1412 C1414 1.384 . S
C1413 C1412 1.377 . S
C1413 C1419 1.390 . S
C1414 H1405 0.930 . S
C1414 C1412 1.384 . S
C1414 C1415 1.372 . S
C1415 C1414 1.372 . S
C1415 C1416 1.400 . S
C1415 C1420 1.490 . S
C1416 H1406 0.930 . S
C1416 C1415 1.400 . S
C1416 C1419 1.386 . S
H1417 C1433 0.930 . S
H1418 C1434 0.931 . S
C1419 H1407 0.929 . S
C1419 C1413 1.390 . S
C1419 C1416 1.386 . S
C1420 C1415 1.490 . S
C1420 C1422 1.395 . S
C1420 C1423 1.403 . S
H1421 C1427 0.930 . S
C1422 H1408 0.930 . S
C1422 C1420 1.395 . S
C1422 C1425 1.403 . S
C1423 C1420 1.403 . S
C1423 C1424 1.524 . S
C1423 C1427 1.400 . S
C1424 H1409 0.960 . S
C1424 H1410 0.960 . S
C1424 H1411 0.960 . S
C1424 C1423 1.524 . S
C1425 C1422 1.403 . S
C1425 C1426 1.392 . S
C1425 C1429 1.495 . S
C1426 C1425 1.392 . S
C1426 C1427 1.385 . S
C1426 C1428 1.478 . S
C1427 H1421 0.930 . S
C1427 C1423 1.400 . S
C1427 C1426 1.385 . S
C1428 C1426 1.478 . S
C1428 C1430 1.381 . S
C1428 C1434 1.383 . S
C1429 C1425 1.495 . S
C1429 H1435 0.959 . S
C1429 H1436 0.961 . S
C1429 H1437 0.960 . S
C1430 C1428 1.381 . S
C1430 C1431 1.394 . S
C1430 H1438 0.930 . S
C1431 C1430 1.394 . S
C1431 C1432 1.383 . S
C1431 H1439 0.929 . S
C1432 C1431 1.383 . S
C1432 C1433 1.377 . S
C1433 H1417 0.930 . S
C1433 C1432 1.377 . S
C1433 C1434 1.379 . S
C1434 H1418 0.931 . S
C1434 C1428 1.383 . S
C1434 C1433 1.379 . S
H1435 C1429 0.959 . S
H1436 C1429 0.961 . S
H1437 C1429 0.960 . S
H1438 C1430 0.930 . S
H1439 C1431 0.929 . S
H1440 C1448 0.922 1_554 S
H1441 C1450 0.930 1_554 S
H1442 C1452 0.930 . S
H1443 C1455 0.929 . S
H1444 C1458 0.930 . S
H1445 C1460 0.960 . S
H1446 C1460 0.960 . S
H1447 C1460 0.960 . S
C1448 H1440 0.922 1_556 S
C1448 C1449 1.382 . S
C1448 C1450 1.387 . S
C1449 C1448 1.382 . S
C1449 C1455 1.390 . S
C1450 H1441 0.930 1_556 S
C1450 C1448 1.387 . S
C1450 C1451 1.372 . S
C1451 C1450 1.372 . S
C1451 C1452 1.400 . S
C1451 C1456 1.490 . S
C1452 H1442 0.930 . S
C1452 C1451 1.400 . S
C1452 C1455 1.386 . S
H1453 C1469 0.930 . S
H1454 C1470 0.931 . S
C1455 H1443 0.929 . S
C1455 C1449 1.390 . S
C1455 C1452 1.386 . S
C1456 C1451 1.490 . S
C1456 C1458 1.395 . S
C1456 C1459 1.403 . S
H1457 C1463 0.930 . S
C1458 H1444 0.930 . S
C1458 C1456 1.395 . S
C1458 C1461 1.403 . S
C1459 C1456 1.403 . S
C1459 C1460 1.524 . S
C1459 C1463 1.400 . S
C1460 H1445 0.960 . S
C1460 H1446 0.960 . S
C1460 H1447 0.960 . S
C1460 C1459 1.524 . S
C1461 C1458 1.403 . S
C1461 C1462 1.392 . S
C1461 C1465 1.495 . S
C1462 C1461 1.392 . S
C1462 C1463 1.385 . S
C1462 C1464 1.478 . S
C1463 H1457 0.930 . S
C1463 C1459 1.400 . S
C1463 C1462 1.385 . S
C1464 C1462 1.478 . S
C1464 C1466 1.381 . S
C1464 C1470 1.383 . S
C1465 C1461 1.495 . S
C1465 H1471 0.959 . S
C1465 H1472 0.961 . S
C1465 H1473 0.960 . S
C1466 C1464 1.381 . S
C1466 C1467 1.394 . S
C1466 H1474 0.930 . S
C1467 C1466 1.394 . S
C1467 C1468 1.383 . S
C1467 H1475 0.929 . S
C1468 C1467 1.383 . S
C1468 C1469 1.377 . S
C1469 H1453 0.930 . S
C1469 C1468 1.377 . S
C1469 C1470 1.379 . S
C1470 H1454 0.931 . S
C1470 C1464 1.383 . S
C1470 C1469 1.379 . S
H1471 C1465 0.959 . S
H1472 C1465 0.961 . S
H1473 C1465 0.960 . S
H1474 C1466 0.930 . S
H1475 C1467 0.929 . S
H1476 C1484 0.929 . S
H1477 C1486 0.930 . S
H1478 C1488 0.930 . S
H1479 C1491 0.929 . S
H1480 C1494 0.930 . S
H1481 C1496 0.960 . S
H1482 C1496 0.960 . S
H1483 C1496 0.960 . S
C1484 H1476 0.929 . S
C1484 C1485 1.377 . S
C1484 C1486 1.384 . S
C1485 C1484 1.377 . S
C1485 C1491 1.390 . S
C1486 H1477 0.930 . S
C1486 C1484 1.384 . S
C1486 C1487 1.372 . S
C1487 C1486 1.372 . S
C1487 C1488 1.400 . S
C1487 C1492 1.490 . S
C1488 H1478 0.930 . S
C1488 C1487 1.400 . S
C1488 C1491 1.386 . S
H1489 C1505 0.930 . S
H1490 C1506 0.931 . S
C1491 H1479 0.929 . S
C1491 C1485 1.390 . S
C1491 C1488 1.386 . S
C1492 C1487 1.490 . S
C1492 C1494 1.395 . S
C1492 C1495 1.403 . S
H1493 C1499 0.930 . S
C1494 H1480 0.930 . S
C1494 C1492 1.395 . S
C1494 C1497 1.403 . S
C1495 C1492 1.403 . S
C1495 C1496 1.524 . S
C1495 C1499 1.400 . S
C1496 H1481 0.960 . S
C1496 H1482 0.960 . S
C1496 H1483 0.960 . S
C1496 C1495 1.524 . S
C1497 C1494 1.403 . S
C1497 C1498 1.392 . S
C1497 C1501 1.495 . S
C1498 C1497 1.392 . S
C1498 C1499 1.385 . S
C1498 C1500 1.478 . S
C1499 H1493 0.930 . S
C1499 C1495 1.400 . S
C1499 C1498 1.385 . S
C1500 C1498 1.478 . S
C1500 C1502 1.381 . S
C1500 C1506 1.383 . S
C1501 C1497 1.495 . S
C1501 H1507 0.959 . S
C1501 H1508 0.961 . S
C1501 H1509 0.960 . S
C1502 C1500 1.381 . S
C1502 C1503 1.394 . S
C1502 H1510 0.930 . S
C1503 C1502 1.394 . S
C1503 C1504 1.383 . S
C1503 H1511 0.929 . S
C1504 C1503 1.383 . S
C1504 C1505 1.377 . S
C1505 H1489 0.930 . S
C1505 C1504 1.377 . S
C1505 C1506 1.379 . S
C1506 H1490 0.931 . S
C1506 C1500 1.383 . S
C1506 C1505 1.379 . S
H1507 C1501 0.959 . S
H1508 C1501 0.961 . S
H1509 C1501 0.960 . S
H1510 C1502 0.930 . S
H1511 C1503 0.929 . S
H1512 C1520 0.929 . S
H1513 C1522 0.930 . S
H1514 C1524 0.930 . S
H1515 C1527 0.929 . S
H1516 C1530 0.930 . S
H1517 C1532 0.960 . S
H1518 C1532 0.960 . S
H1519 C1532 0.960 . S
C1520 H1512 0.929 . S
C1520 C1521 1.377 . S
C1520 C1522 1.384 . S
C1521 C1520 1.377 . S
C1521 C1527 1.390 . S
C1522 H1513 0.930 . S
C1522 C1520 1.384 . S
C1522 C1523 1.372 . S
C1523 C1522 1.372 . S
C1523 C1524 1.400 . S
C1523 C1528 1.490 . S
C1524 H1514 0.930 . S
C1524 C1523 1.400 . S
C1524 C1527 1.386 . S
H1525 C1541 0.930 . S
H1526 C1542 0.931 . S
C1527 H1515 0.929 . S
C1527 C1521 1.390 . S
C1527 C1524 1.386 . S
C1528 C1523 1.490 . S
C1528 C1530 1.395 . S
C1528 C1531 1.403 . S
H1529 C1535 0.930 . S
C1530 H1516 0.930 . S
C1530 C1528 1.395 . S
C1530 C1533 1.403 . S
C1531 C1528 1.403 . S
C1531 C1532 1.524 . S
C1531 C1535 1.400 . S
C1532 H1517 0.960 . S
C1532 H1518 0.960 . S
C1532 H1519 0.960 . S
C1532 C1531 1.524 . S
C1533 C1530 1.403 . S
C1533 C1534 1.392 . S
C1533 C1537 1.495 . S
C1534 C1533 1.392 . S
C1534 C1535 1.385 . S
C1534 C1536 1.478 . S
C1535 H1529 0.930 . S
C1535 C1531 1.400 . S
C1535 C1534 1.385 . S
C1536 C1534 1.478 . S
C1536 C1538 1.381 . S
C1536 C1542 1.383 . S
C1537 C1533 1.495 . S
C1537 H1543 0.959 . S
C1537 H1544 0.961 . S
C1537 H1545 0.960 . S
C1538 C1536 1.381 . S
C1538 C1539 1.394 . S
C1538 H1546 0.930 . S
C1539 C1538 1.394 . S
C1539 C1540 1.383 . S
C1539 H1547 0.929 . S
C1540 C1539 1.383 . S
C1540 C1541 1.377 . S
C1541 H1525 0.930 . S
C1541 C1540 1.377 . S
C1541 C1542 1.379 . S
C1542 H1526 0.931 . S
C1542 C1536 1.383 . S
C1542 C1541 1.379 . S
H1543 C1537 0.959 . S
H1544 C1537 0.961 . S
H1545 C1537 0.960 . S
H1546 C1538 0.930 . S
H1547 C1539 0.929 . S
H1548 C1556 0.929 . S
H1549 C1558 0.930 . S
H1550 C1560 0.930 . S
H1551 C1563 0.929 . S
H1552 C1566 0.930 . S
H1553 C1568 0.960 . S
H1554 C1568 0.960 . S
H1555 C1568 0.960 . S
C1556 H1548 0.929 . S
C1556 C1557 1.377 . S
C1556 C1558 1.384 . S
C1557 C1556 1.377 . S
C1557 C1563 1.390 . S
C1558 H1549 0.930 . S
C1558 C1556 1.384 . S
C1558 C1559 1.372 . S
C1559 C1558 1.372 . S
C1559 C1560 1.400 . S
C1559 C1564 1.490 . S
C1560 H1550 0.930 . S
C1560 C1559 1.400 . S
C1560 C1563 1.386 . S
H1561 C1577 0.930 . S
H1562 C1578 0.931 . S
C1563 H1551 0.929 . S
C1563 C1557 1.390 . S
C1563 C1560 1.386 . S
C1564 C1559 1.490 . S
C1564 C1566 1.395 . S
C1564 C1567 1.403 . S
H1565 C1571 0.930 . S
C1566 H1552 0.930 . S
C1566 C1564 1.395 . S
C1566 C1569 1.403 . S
C1567 C1564 1.403 . S
C1567 C1568 1.524 . S
C1567 C1571 1.400 . S
C1568 H1553 0.960 . S
C1568 H1554 0.960 . S
C1568 H1555 0.960 . S
C1568 C1567 1.524 . S
C1569 C1566 1.403 . S
C1569 C1570 1.392 . S
C1569 C1573 1.495 . S
C1570 C1569 1.392 . S
C1570 C1571 1.385 . S
C1570 C1572 1.478 . S
C1571 H1565 0.930 . S
C1571 C1567 1.400 . S
C1571 C1570 1.385 . S
C1572 C1570 1.478 . S
C1572 C1574 1.381 . S
C1572 C1578 1.383 . S
C1573 C1569 1.495 . S
C1573 H1579 0.959 . S
C1573 H1580 0.961 . S
C1573 H1581 0.960 . S
C1574 C1572 1.381 . S
C1574 C1575 1.394 . S
C1574 H1582 0.930 . S
C1575 C1574 1.394 . S
C1575 C1576 1.383 . S
C1575 H1583 0.929 . S
C1576 C1575 1.383 . S
C1576 C1577 1.377 . S
C1577 H1561 0.930 . S
C1577 C1576 1.377 . S
C1577 C1578 1.379 . S
C1578 H1562 0.931 . S
C1578 C1572 1.383 . S
C1578 C1577 1.379 . S
H1579 C1573 0.959 . S
H1580 C1573 0.961 . S
H1581 C1573 0.960 . S
H1582 C1574 0.930 . S
H1583 C1575 0.929 . S
H1584 C1592 0.929 . S
H1585 C1594 0.930 . S
H1586 C1596 0.930 . S
H1587 C1599 0.929 . S
H1588 C1602 0.930 . S
H1589 C1604 0.960 . S
H1590 C1604 0.960 . S
H1591 C1604 0.960 . S
C1592 H1584 0.929 . S
C1592 C1593 1.377 . S
C1592 C1594 1.384 . S
C1593 C1592 1.377 . S
C1593 C1599 1.390 . S
C1594 H1585 0.930 . S
C1594 C1592 1.384 . S
C1594 C1595 1.372 . S
C1595 C1594 1.372 . S
C1595 C1596 1.400 . S
C1595 C1600 1.490 . S
C1596 H1586 0.930 . S
C1596 C1595 1.400 . S
C1596 C1599 1.386 . S
H1597 C1613 0.930 . S
H1598 C1614 0.931 . S
C1599 H1587 0.929 . S
C1599 C1593 1.390 . S
C1599 C1596 1.386 . S
C1600 C1595 1.490 . S
C1600 C1602 1.395 . S
C1600 C1603 1.403 . S
H1601 C1607 0.930 . S
C1602 H1588 0.930 . S
C1602 C1600 1.395 . S
C1602 C1605 1.403 . S
C1603 C1600 1.403 . S
C1603 C1604 1.524 . S
C1603 C1607 1.400 . S
C1604 H1589 0.960 . S
C1604 H1590 0.960 . S
C1604 H1591 0.960 . S
C1604 C1603 1.524 . S
C1605 C1602 1.403 . S
C1605 C1606 1.392 . S
C1605 C1609 1.495 . S
C1606 C1605 1.392 . S
C1606 C1607 1.385 . S
C1606 C1608 1.478 . S
C1607 H1601 0.930 . S
C1607 C1603 1.400 . S
C1607 C1606 1.385 . S
C1608 C1606 1.478 . S
C1608 C1610 1.381 . S
C1608 C1614 1.383 . S
C1609 C1605 1.495 . S
C1609 H1615 0.959 . S
C1609 H1616 0.961 . S
C1609 H1617 0.960 . S
C1610 C1608 1.381 . S
C1610 C1611 1.394 . S
C1610 H1618 0.930 . S
C1611 C1610 1.394 . S
C1611 C1612 1.383 . S
C1611 H1619 0.929 . S
C1612 C1611 1.383 . S
C1612 C1613 1.377 . S
C1613 H1597 0.930 . S
C1613 C1612 1.377 . S
C1613 C1614 1.379 . S
C1614 H1598 0.931 . S
C1614 C1608 1.383 . S
C1614 C1613 1.379 . S
H1615 C1609 0.959 . S
H1616 C1609 0.961 . S
H1617 C1609 0.960 . S
H1618 C1610 0.930 . S
H1619 C1611 0.929 . S
H1620 C1628 0.929 . S
H1621 C1630 0.930 . S
H1622 C1632 0.930 . S
H1623 C1635 0.929 . S
H1624 C1638 0.930 . S
H1625 C1640 0.960 . S
H1626 C1640 0.960 . S
H1627 C1640 0.960 . S
C1628 H1620 0.929 . S
C1628 C1629 1.377 . S
C1628 C1630 1.384 . S
C1629 C1628 1.377 . S
C1629 C1635 1.390 . S
C1630 H1621 0.930 . S
C1630 C1628 1.384 . S
C1630 C1631 1.372 . S
C1631 C1630 1.372 . S
C1631 C1632 1.400 . S
C1631 C1636 1.490 . S
C1632 H1622 0.930 . S
C1632 C1631 1.400 . S
C1632 C1635 1.386 . S
H1633 C1649 0.930 . S
H1634 C1650 0.931 . S
C1635 H1623 0.929 . S
C1635 C1629 1.390 . S
C1635 C1632 1.386 . S
C1636 C1631 1.490 . S
C1636 C1638 1.395 . S
C1636 C1639 1.403 . S
H1637 C1643 0.930 . S
C1638 H1624 0.930 . S
C1638 C1636 1.395 . S
C1638 C1641 1.403 . S
C1639 C1636 1.403 . S
C1639 C1640 1.524 . S
C1639 C1643 1.400 . S
C1640 H1625 0.960 . S
C1640 H1626 0.960 . S
C1640 H1627 0.960 . S
C1640 C1639 1.524 . S
C1641 C1638 1.403 . S
C1641 C1642 1.392 . S
C1641 C1645 1.495 . S
C1642 C1641 1.392 . S
C1642 C1643 1.385 . S
C1642 C1644 1.478 . S
C1643 H1637 0.930 . S
C1643 C1639 1.400 . S
C1643 C1642 1.385 . S
C1644 C1642 1.478 . S
C1644 C1646 1.381 . S
C1644 C1650 1.383 . S
C1645 C1641 1.495 . S
C1645 H1651 0.959 . S
C1645 H1652 0.961 . S
C1645 H1653 0.960 . S
C1646 C1644 1.381 . S
C1646 C1647 1.394 . S
C1646 H1654 0.930 . S
C1647 C1646 1.394 . S
C1647 C1648 1.383 . S
C1647 H1655 0.929 . S
C1648 C1647 1.383 . S
C1648 C1649 1.377 . S
C1649 H1633 0.930 . S
C1649 C1648 1.377 . S
C1649 C1650 1.379 . S
C1650 H1634 0.931 . S
C1650 C1644 1.383 . S
C1650 C1649 1.379 . S
H1651 C1645 0.959 . S
H1652 C1645 0.961 . S
H1653 C1645 0.960 . S
H1654 C1646 0.930 . S
H1655 C1647 0.929 . S
H1656 C1664 0.929 . S
H1657 C1666 0.930 . S
H1658 C1668 0.930 . S
H1659 C1671 0.929 . S
H1660 C1674 0.930 . S
H1661 C1676 0.960 . S
H1662 C1676 0.960 . S
H1663 C1676 0.960 . S
C1664 H1656 0.929 . S
C1664 C1665 1.377 . S
C1664 C1666 1.384 . S
C1665 C1664 1.377 . S
C1665 C1671 1.390 . S
C1666 H1657 0.930 . S
C1666 C1664 1.384 . S
C1666 C1667 1.372 . S
C1667 C1666 1.372 . S
C1667 C1668 1.400 . S
C1667 C1672 1.490 . S
C1668 H1658 0.930 . S
C1668 C1667 1.400 . S
C1668 C1671 1.386 . S
H1669 C1685 0.930 . S
H1670 C1686 0.931 . S
C1671 H1659 0.929 . S
C1671 C1665 1.390 . S
C1671 C1668 1.386 . S
C1672 C1667 1.490 . S
C1672 C1674 1.395 . S
C1672 C1675 1.403 . S
H1673 C1679 0.930 . S
C1674 H1660 0.930 . S
C1674 C1672 1.395 . S
C1674 C1677 1.403 . S
C1675 C1672 1.403 . S
C1675 C1676 1.524 . S
C1675 C1679 1.400 . S
C1676 H1661 0.960 . S
C1676 H1662 0.960 . S
C1676 H1663 0.960 . S
C1676 C1675 1.524 . S
C1677 C1674 1.403 . S
C1677 C1678 1.392 . S
C1677 C1681 1.495 . S
C1678 C1677 1.392 . S
C1678 C1679 1.385 . S
C1678 C1680 1.478 . S
C1679 H1673 0.930 . S
C1679 C1675 1.400 . S
C1679 C1678 1.385 . S
C1680 C1678 1.478 . S
C1680 C1682 1.381 . S
C1680 C1686 1.383 . S
C1681 C1677 1.495 . S
C1681 H1687 0.959 . S
C1681 H1688 0.961 . S
C1681 H1689 0.960 . S
C1682 C1680 1.381 . S
C1682 C1683 1.394 . S
C1682 H1690 0.930 . S
C1683 C1682 1.394 . S
C1683 C1684 1.383 . S
C1683 H1691 0.929 1_554 S
C1684 C1683 1.383 . S
C1684 C1685 1.377 . S
C1685 H1669 0.930 . S
C1685 C1684 1.377 . S
C1685 C1686 1.379 . S
C1686 H1670 0.931 . S
C1686 C1680 1.383 . S
C1686 C1685 1.379 . S
H1687 C1681 0.959 . S
H1688 C1681 0.961 . S
H1689 C1681 0.960 . S
H1690 C1682 0.930 . S
H1691 C1683 0.929 1_556 S
H1692 C1700 0.929 . S
H1693 C1702 0.930 . S
H1694 C1704 0.930 . S
H1695 C1707 0.929 . S
H1696 C1710 0.930 . S
H1697 C1712 0.960 . S
H1698 C1712 0.960 . S
H1699 C1712 0.960 . S
C1700 H1692 0.929 . S
C1700 C1701 1.377 . S
C1700 C1702 1.384 . S
C1701 C1700 1.377 . S
C1701 C1707 1.390 . S
C1702 H1693 0.930 . S
C1702 C1700 1.384 . S
C1702 C1703 1.372 . S
C1703 C1702 1.372 . S
C1703 C1704 1.400 . S
C1703 C1708 1.490 . S
C1704 H1694 0.930 . S
C1704 C1703 1.400 . S
C1704 C1707 1.386 . S
H1705 C1721 0.930 . S
H1706 C1722 0.931 . S
C1707 H1695 0.929 . S
C1707 C1701 1.390 . S
C1707 C1704 1.386 . S
C1708 C1703 1.490 . S
C1708 C1710 1.395 . S
C1708 C1711 1.403 . S
H1709 C1715 0.930 . S
C1710 H1696 0.930 . S
C1710 C1708 1.395 . S
C1710 C1713 1.403 . S
C1711 C1708 1.403 . S
C1711 C1712 1.524 . S
C1711 C1715 1.400 . S
C1712 H1697 0.960 . S
C1712 H1698 0.960 . S
C1712 H1699 0.960 . S
C1712 C1711 1.524 . S
C1713 C1710 1.403 . S
C1713 C1714 1.392 . S
C1713 C1717 1.495 . S
C1714 C1713 1.392 . S
C1714 C1715 1.385 . S
C1714 C1716 1.478 . S
C1715 H1709 0.930 . S
C1715 C1711 1.400 . S
C1715 C1714 1.385 . S
C1716 C1714 1.478 . S
C1716 C1718 1.381 . S
C1716 C1722 1.383 . S
C1717 C1713 1.495 . S
C1717 H1723 0.959 . S
C1717 H1724 0.961 . S
C1717 H1725 0.960 . S
C1718 C1716 1.381 . S
C1718 C1719 1.394 . S
C1718 H1726 0.930 . S
C1719 C1718 1.394 . S
C1719 C1720 1.383 . S
C1719 H1727 0.929 . S
C1720 C1719 1.383 . S
C1720 C1721 1.377 . S
C1721 H1705 0.930 . S
C1721 C1720 1.377 . S
C1721 C1722 1.379 . S
C1722 H1706 0.931 . S
C1722 C1716 1.383 . S
C1722 C1721 1.379 . S
H1723 C1717 0.959 . S
H1724 C1717 0.961 . S
H1725 C1717 0.960 . S
H1726 C1718 0.930 . S
H1727 C1719 0.929 . S
C585 C3 1.313 . S
C604 C435 1.316 . S
C621 C38 1.253 . S
C640 C182 1.240 . S
C657 C74 1.266 . S
C676 C506 1.269 . S
C693 C255 1.321 . S
C712 C111 1.314 . S
C729 C507 1.320 . S
C748 C75 1.313 . S
C765 C254 1.259 . S
C784 C110 1.238 . S
C801 C434 1.253 . S
C820 C2 1.240 . S
C837 C183 1.313 . S
C856 C39 1.308 . S
C873 C147 1.313 . S
C892 C291 1.315 . S
C909 C218 1.260 . S
C928 C362 1.238 . S
C945 C363 1.321 . S
C964 C219 1.322 . S
C981 C146 1.258 . S
C1000 C290 1.238 . S
C1017 C470 1.254 . S
C1036 C326 1.232 . S
C1053 C399 1.320 . S
C1072 C543 1.314 . S
C1089 C398 1.263 . S
C1108 C542 1.279 . S
C1125 C327 1.314 . S
C1144 C471 1.312 . S
C1161 C400 1.464 . S
C1180 C14 1.432 . S
C1197 C292 1.457 . S
C1216 C40 1.458 . S
C1233 C76 1.460 . S
C1252 C338 1.421 . S
C1269 C374 1.434 . S
C1288 C122 1.431 . S
C1305 C410 1.439 . S
C1324 C86 1.445 . S
C1341 C112 1.463 . S
C1360 C302 1.444 . S
C1377 C328 1.458 . S
C1396 C4 1.461 . S
C1413 C364 1.463 . S
C1432 C50 1.440 . S
C1449 C158 1.438 . S
C1468 C544 1.449 . S
C1485 C436 1.454 . S
C1504 C184 1.467 . S
C1521 C220 1.461 . S
C1540 C482 1.455 . S
C1557 C266 1.442 . S
C1576 C518 1.456 . S
C1593 C230 1.441 . S
C1612 C554 1.456 . S
C1629 C446 1.436 . S
C1648 C256 1.470 . S
C1665 C472 1.453 . S
C1684 C148 1.463 . S
C1701 C508 1.462 . S
C1720 C194 1.454 . S
