# Generated by pormake.
# Topology rho, (4)-cn, num edge types: 1
# Building blocks:
#     Node 0, Type 0, BuildingBlock: QUQFOY_clean_sbu_3, # of connection points: 4
#     Node 1, Type 0, BuildingBlock: QUQFOY_clean_sbu_3, # of connection points: 4
#     Node 2, Type 0, BuildingBlock: QUQFOY_clean_sbu_3, # of connection points: 4
#     Node 3, Type 0, BuildingBlock: QUQFOY_clean_sbu_3, # of connection points: 4
#     Node 4, Type 0, BuildingBlock: QUQFOY_clean_sbu_3, # of connection points: 4
#     Node 5, Type 0, BuildingBlock: QUQFOY_clean_sbu_3, # of connection points: 4
#     Node 6, Type 0, BuildingBlock: QUQFOY_clean_sbu_3, # of connection points: 4
#     Node 7, Type 0, BuildingBlock: QUQFOY_clean_sbu_3, # of connection points: 4
#     Node 8, Type 0, BuildingBlock: QUQFOY_clean_sbu_3, # of connection points: 4
#     Node 9, Type 0, BuildingBlock: QUQFOY_clean_sbu_3, # of connection points: 4
#     Node 10, Type 0, BuildingBlock: QUQFOY_clean_sbu_3, # of connection points: 4
#     Node 11, Type 0, BuildingBlock: QUQFOY_clean_sbu_3, # of connection points: 4
#     Node 12, Type 0, BuildingBlock: QUQFOY_clean_sbu_3, # of connection points: 4
#     Node 13, Type 0, BuildingBlock: QUQFOY_clean_sbu_3, # of connection points: 4
#     Node 14, Type 0, BuildingBlock: QUQFOY_clean_sbu_3, # of connection points: 4
#     Node 15, Type 0, BuildingBlock: QUQFOY_clean_sbu_3, # of connection points: 4
#     Node 16, Type 0, BuildingBlock: QUQFOY_clean_sbu_3, # of connection points: 4
#     Node 17, Type 0, BuildingBlock: QUQFOY_clean_sbu_3, # of connection points: 4
#     Node 18, Type 0, BuildingBlock: QUQFOY_clean_sbu_3, # of connection points: 4
#     Node 19, Type 0, BuildingBlock: QUQFOY_clean_sbu_3, # of connection points: 4
#     Node 20, Type 0, BuildingBlock: QUQFOY_clean_sbu_3, # of connection points: 4
#     Node 21, Type 0, BuildingBlock: QUQFOY_clean_sbu_3, # of connection points: 4
#     Node 22, Type 0, BuildingBlock: QUQFOY_clean_sbu_3, # of connection points: 4
#     Node 23, Type 0, BuildingBlock: QUQFOY_clean_sbu_3, # of connection points: 4
#     Node 24, Type 0, BuildingBlock: QUQFOY_clean_sbu_3, # of connection points: 4
#     Node 25, Type 0, BuildingBlock: QUQFOY_clean_sbu_3, # of connection points: 4
#     Node 26, Type 0, BuildingBlock: QUQFOY_clean_sbu_3, # of connection points: 4
#     Node 27, Type 0, BuildingBlock: QUQFOY_clean_sbu_3, # of connection points: 4
#     Node 28, Type 0, BuildingBlock: QUQFOY_clean_sbu_3, # of connection points: 4
#     Node 29, Type 0, BuildingBlock: QUQFOY_clean_sbu_3, # of connection points: 4
#     Node 30, Type 0, BuildingBlock: QUQFOY_clean_sbu_3, # of connection points: 4
#     Node 31, Type 0, BuildingBlock: QUQFOY_clean_sbu_3, # of connection points: 4
#     Node 32, Type 0, BuildingBlock: QUQFOY_clean_sbu_3, # of connection points: 4
#     Node 33, Type 0, BuildingBlock: QUQFOY_clean_sbu_3, # of connection points: 4
#     Node 34, Type 0, BuildingBlock: QUQFOY_clean_sbu_3, # of connection points: 4
#     Node 35, Type 0, BuildingBlock: QUQFOY_clean_sbu_3, # of connection points: 4
#     Node 36, Type 0, BuildingBlock: QUQFOY_clean_sbu_3, # of connection points: 4
#     Node 37, Type 0, BuildingBlock: QUQFOY_clean_sbu_3, # of connection points: 4
#     Node 38, Type 0, BuildingBlock: QUQFOY_clean_sbu_3, # of connection points: 4
#     Node 39, Type 0, BuildingBlock: QUQFOY_clean_sbu_3, # of connection points: 4
#     Node 40, Type 0, BuildingBlock: QUQFOY_clean_sbu_3, # of connection points: 4
#     Node 41, Type 0, BuildingBlock: QUQFOY_clean_sbu_3, # of connection points: 4
#     Node 42, Type 0, BuildingBlock: QUQFOY_clean_sbu_3, # of connection points: 4
#     Node 43, Type 0, BuildingBlock: QUQFOY_clean_sbu_3, # of connection points: 4
#     Node 44, Type 0, BuildingBlock: QUQFOY_clean_sbu_3, # of connection points: 4
#     Node 45, Type 0, BuildingBlock: QUQFOY_clean_sbu_3, # of connection points: 4
#     Node 46, Type 0, BuildingBlock: QUQFOY_clean_sbu_3, # of connection points: 4
#     Node 47, Type 0, BuildingBlock: QUQFOY_clean_sbu_3, # of connection points: 4
#     Edge 48, Type (0, 0), BuildingBlock: ZUJKAS_clean_linker_0, # of connection points: 2
#     Edge 49, Type (0, 0), BuildingBlock: ZUJKAS_clean_linker_0, # of connection points: 2
#     Edge 50, Type (0, 0), BuildingBlock: ZUJKAS_clean_linker_0, # of connection points: 2
#     Edge 51, Type (0, 0), BuildingBlock: ZUJKAS_clean_linker_0, # of connection points: 2
#     Edge 52, Type (0, 0), BuildingBlock: ZUJKAS_clean_linker_0, # of connection points: 2
#     Edge 53, Type (0, 0), BuildingBlock: ZUJKAS_clean_linker_0, # of connection points: 2
#     Edge 54, Type (0, 0), BuildingBlock: ZUJKAS_clean_linker_0, # of connection points: 2
#     Edge 55, Type (0, 0), BuildingBlock: ZUJKAS_clean_linker_0, # of connection points: 2
#     Edge 56, Type (0, 0), BuildingBlock: ZUJKAS_clean_linker_0, # of connection points: 2
#     Edge 57, Type (0, 0), BuildingBlock: ZUJKAS_clean_linker_0, # of connection points: 2
#     Edge 58, Type (0, 0), BuildingBlock: ZUJKAS_clean_linker_0, # of connection points: 2
#     Edge 59, Type (0, 0), BuildingBlock: ZUJKAS_clean_linker_0, # of connection points: 2
#     Edge 60, Type (0, 0), BuildingBlock: ZUJKAS_clean_linker_0, # of connection points: 2
#     Edge 61, Type (0, 0), BuildingBlock: ZUJKAS_clean_linker_0, # of connection points: 2
#     Edge 62, Type (0, 0), BuildingBlock: ZUJKAS_clean_linker_0, # of connection points: 2
#     Edge 63, Type (0, 0), BuildingBlock: ZUJKAS_clean_linker_0, # of connection points: 2
#     Edge 64, Type (0, 0), BuildingBlock: ZUJKAS_clean_linker_0, # of connection points: 2
#     Edge 65, Type (0, 0), BuildingBlock: ZUJKAS_clean_linker_0, # of connection points: 2
#     Edge 66, Type (0, 0), BuildingBlock: ZUJKAS_clean_linker_0, # of connection points: 2
#     Edge 67, Type (0, 0), BuildingBlock: ZUJKAS_clean_linker_0, # of connection points: 2
#     Edge 68, Type (0, 0), BuildingBlock: ZUJKAS_clean_linker_0, # of connection points: 2
#     Edge 69, Type (0, 0), BuildingBlock: ZUJKAS_clean_linker_0, # of connection points: 2
#     Edge 70, Type (0, 0), BuildingBlock: ZUJKAS_clean_linker_0, # of connection points: 2
#     Edge 71, Type (0, 0), BuildingBlock: ZUJKAS_clean_linker_0, # of connection points: 2
#     Edge 72, Type (0, 0), BuildingBlock: ZUJKAS_clean_linker_0, # of connection points: 2
#     Edge 73, Type (0, 0), BuildingBlock: ZUJKAS_clean_linker_0, # of connection points: 2
#     Edge 74, Type (0, 0), BuildingBlock: ZUJKAS_clean_linker_0, # of connection points: 2
#     Edge 75, Type (0, 0), BuildingBlock: ZUJKAS_clean_linker_0, # of connection points: 2
#     Edge 76, Type (0, 0), BuildingBlock: ZUJKAS_clean_linker_0, # of connection points: 2
#     Edge 77, Type (0, 0), BuildingBlock: ZUJKAS_clean_linker_0, # of connection points: 2
#     Edge 78, Type (0, 0), BuildingBlock: ZUJKAS_clean_linker_0, # of connection points: 2
#     Edge 79, Type (0, 0), BuildingBlock: ZUJKAS_clean_linker_0, # of connection points: 2
#     Edge 80, Type (0, 0), BuildingBlock: ZUJKAS_clean_linker_0, # of connection points: 2
#     Edge 81, Type (0, 0), BuildingBlock: ZUJKAS_clean_linker_0, # of connection points: 2
#     Edge 82, Type (0, 0), BuildingBlock: ZUJKAS_clean_linker_0, # of connection points: 2
#     Edge 83, Type (0, 0), BuildingBlock: ZUJKAS_clean_linker_0, # of connection points: 2
#     Edge 84, Type (0, 0), BuildingBlock: ZUJKAS_clean_linker_0, # of connection points: 2
#     Edge 85, Type (0, 0), BuildingBlock: ZUJKAS_clean_linker_0, # of connection points: 2
#     Edge 86, Type (0, 0), BuildingBlock: ZUJKAS_clean_linker_0, # of connection points: 2
#     Edge 87, Type (0, 0), BuildingBlock: ZUJKAS_clean_linker_0, # of connection points: 2
#     Edge 88, Type (0, 0), BuildingBlock: ZUJKAS_clean_linker_0, # of connection points: 2
#     Edge 89, Type (0, 0), BuildingBlock: ZUJKAS_clean_linker_0, # of connection points: 2
#     Edge 90, Type (0, 0), BuildingBlock: ZUJKAS_clean_linker_0, # of connection points: 2
#     Edge 91, Type (0, 0), BuildingBlock: ZUJKAS_clean_linker_0, # of connection points: 2
#     Edge 92, Type (0, 0), BuildingBlock: ZUJKAS_clean_linker_0, # of connection points: 2
#     Edge 93, Type (0, 0), BuildingBlock: ZUJKAS_clean_linker_0, # of connection points: 2
#     Edge 94, Type (0, 0), BuildingBlock: ZUJKAS_clean_linker_0, # of connection points: 2
#     Edge 95, Type (0, 0), BuildingBlock: ZUJKAS_clean_linker_0, # of connection points: 2
#     Edge 96, Type (0, 0), BuildingBlock: ZUJKAS_clean_linker_0, # of connection points: 2
#     Edge 97, Type (0, 0), BuildingBlock: ZUJKAS_clean_linker_0, # of connection points: 2
#     Edge 98, Type (0, 0), BuildingBlock: ZUJKAS_clean_linker_0, # of connection points: 2
#     Edge 99, Type (0, 0), BuildingBlock: ZUJKAS_clean_linker_0, # of connection points: 2
#     Edge 100, Type (0, 0), BuildingBlock: ZUJKAS_clean_linker_0, # of connection points: 2
#     Edge 101, Type (0, 0), BuildingBlock: ZUJKAS_clean_linker_0, # of connection points: 2
#     Edge 102, Type (0, 0), BuildingBlock: ZUJKAS_clean_linker_0, # of connection points: 2
#     Edge 103, Type (0, 0), BuildingBlock: ZUJKAS_clean_linker_0, # of connection points: 2
#     Edge 104, Type (0, 0), BuildingBlock: ZUJKAS_clean_linker_0, # of connection points: 2
#     Edge 105, Type (0, 0), BuildingBlock: ZUJKAS_clean_linker_0, # of connection points: 2
#     Edge 106, Type (0, 0), BuildingBlock: ZUJKAS_clean_linker_0, # of connection points: 2
#     Edge 107, Type (0, 0), BuildingBlock: ZUJKAS_clean_linker_0, # of connection points: 2
#     Edge 108, Type (0, 0), BuildingBlock: ZUJKAS_clean_linker_0, # of connection points: 2
#     Edge 109, Type (0, 0), BuildingBlock: ZUJKAS_clean_linker_0, # of connection points: 2
#     Edge 110, Type (0, 0), BuildingBlock: ZUJKAS_clean_linker_0, # of connection points: 2
#     Edge 111, Type (0, 0), BuildingBlock: ZUJKAS_clean_linker_0, # of connection points: 2
#     Edge 112, Type (0, 0), BuildingBlock: ZUJKAS_clean_linker_0, # of connection points: 2
#     Edge 113, Type (0, 0), BuildingBlock: ZUJKAS_clean_linker_0, # of connection points: 2
#     Edge 114, Type (0, 0), BuildingBlock: ZUJKAS_clean_linker_0, # of connection points: 2
#     Edge 115, Type (0, 0), BuildingBlock: ZUJKAS_clean_linker_0, # of connection points: 2
#     Edge 116, Type (0, 0), BuildingBlock: ZUJKAS_clean_linker_0, # of connection points: 2
#     Edge 117, Type (0, 0), BuildingBlock: ZUJKAS_clean_linker_0, # of connection points: 2
#     Edge 118, Type (0, 0), BuildingBlock: ZUJKAS_clean_linker_0, # of connection points: 2
#     Edge 119, Type (0, 0), BuildingBlock: ZUJKAS_clean_linker_0, # of connection points: 2
#     Edge 120, Type (0, 0), BuildingBlock: ZUJKAS_clean_linker_0, # of connection points: 2
#     Edge 121, Type (0, 0), BuildingBlock: ZUJKAS_clean_linker_0, # of connection points: 2
#     Edge 122, Type (0, 0), BuildingBlock: ZUJKAS_clean_linker_0, # of connection points: 2
#     Edge 123, Type (0, 0), BuildingBlock: ZUJKAS_clean_linker_0, # of connection points: 2
#     Edge 124, Type (0, 0), BuildingBlock: ZUJKAS_clean_linker_0, # of connection points: 2
#     Edge 125, Type (0, 0), BuildingBlock: ZUJKAS_clean_linker_0, # of connection points: 2
#     Edge 126, Type (0, 0), BuildingBlock: ZUJKAS_clean_linker_0, # of connection points: 2
#     Edge 127, Type (0, 0), BuildingBlock: ZUJKAS_clean_linker_0, # of connection points: 2
#     Edge 128, Type (0, 0), BuildingBlock: ZUJKAS_clean_linker_0, # of connection points: 2
#     Edge 129, Type (0, 0), BuildingBlock: ZUJKAS_clean_linker_0, # of connection points: 2
#     Edge 130, Type (0, 0), BuildingBlock: ZUJKAS_clean_linker_0, # of connection points: 2
#     Edge 131, Type (0, 0), BuildingBlock: ZUJKAS_clean_linker_0, # of connection points: 2
#     Edge 132, Type (0, 0), BuildingBlock: ZUJKAS_clean_linker_0, # of connection points: 2
#     Edge 133, Type (0, 0), BuildingBlock: ZUJKAS_clean_linker_0, # of connection points: 2
#     Edge 134, Type (0, 0), BuildingBlock: ZUJKAS_clean_linker_0, # of connection points: 2
#     Edge 135, Type (0, 0), BuildingBlock: ZUJKAS_clean_linker_0, # of connection points: 2
#     Edge 136, Type (0, 0), BuildingBlock: ZUJKAS_clean_linker_0, # of connection points: 2
#     Edge 137, Type (0, 0), BuildingBlock: ZUJKAS_clean_linker_0, # of connection points: 2
#     Edge 138, Type (0, 0), BuildingBlock: ZUJKAS_clean_linker_0, # of connection points: 2
#     Edge 139, Type (0, 0), BuildingBlock: ZUJKAS_clean_linker_0, # of connection points: 2
#     Edge 140, Type (0, 0), BuildingBlock: ZUJKAS_clean_linker_0, # of connection points: 2
#     Edge 141, Type (0, 0), BuildingBlock: ZUJKAS_clean_linker_0, # of connection points: 2
#     Edge 142, Type (0, 0), BuildingBlock: ZUJKAS_clean_linker_0, # of connection points: 2
#     Edge 143, Type (0, 0), BuildingBlock: ZUJKAS_clean_linker_0, # of connection points: 2
# Relax obj value: 0.072
# Max RMSD: 0.093
# Mean RMSD: 0.088
data_MOF--net-rho--node1-QUQFOY_clean_sbu_3--edge1-ZUJKAS_clean_linker_0
_symmetry_space_group_name_H-M    P1
_symmetry_Int_Tables_number       1
_symmetry_cell_setting            triclinic
loop_
_symmetry_equiv_pos_as_xyz
'x, y, z'
_cell_length_a     96.129898
_cell_length_b     96.853216
_cell_length_c     96.961698
_cell_angle_alpha  90.05437
_cell_angle_beta   90.190428
_cell_angle_gamma 90.827264
loop_
_atom_site_label
_atom_site_type_symbol
_atom_site_fract_x
_atom_site_fract_y
_atom_site_fract_z
_atom_type_partial_charge
C0 C 0.09649 0.19814 0.36714 0.0
O1 O 0.08496 0.19326 0.37142 0.0
Cd2 Cd 0.06711 0.20702 0.3814 0.0
O3 O 0.09886 0.21113 0.36728 0.0
Cd4 Cd 0.08624 0.23254 0.37332 0.0
C5 C 0.08587 0.22359 0.407 0.0
O6 O 0.06277 0.22564 0.36587 0.0
O7 O 0.0644 0.24406 0.37831 0.0
O8 O 0.09481 0.24331 0.3522 0.0
C9 C 0.05684 0.23601 0.37111 0.0
O10 O 0.07639 0.21488 0.40363 0.0
C11 C 0.0995 0.25416 0.35803 0.0
O12 O 0.09187 0.23099 0.39788 0.0
O13 O 0.09853 0.25472 0.37107 0.0
C14 C 0.76649 0.09878 0.3807 0.0
O15 O 0.77196 0.08782 0.38523 0.0
Cd16 Cd 0.7589 0.06754 0.39172 0.0
O17 O 0.75339 0.09935 0.3788 0.0
Cd18 Cd 0.73275 0.08388 0.38082 0.0
C19 C 0.73654 0.08186 0.41532 0.0
O20 O 0.74318 0.06213 0.37338 0.0
O21 O 0.72302 0.06058 0.38296 0.0
O22 O 0.72523 0.09274 0.3586 0.0
C23 C 0.73287 0.0546 0.37681 0.0
O24 O 0.74631 0.07352 0.41267 0.0
C25 C 0.71294 0.0955 0.36235 0.0
O26 O 0.7303 0.08819 0.40564 0.0
O27 O 0.70993 0.09325 0.37491 0.0
C28 C 0.87051 0.76783 0.36908 0.0
O29 O 0.88233 0.7727 0.3726 0.0
Cd30 Cd 0.9007 0.75912 0.38187 0.0
O31 O 0.86806 0.75486 0.36956 0.0
Cd32 Cd 0.88086 0.73331 0.3751 0.0
C33 C 0.88304 0.74314 0.40853 0.0
O34 O 0.90373 0.74024 0.36638 0.0
O35 O 0.90313 0.7219 0.37895 0.0
O36 O 0.87094 0.72264 0.35448 0.0
C37 C 0.91014 0.73003 0.37135 0.0
O38 O 0.89234 0.75174 0.40454 0.0
C39 C 0.86658 0.71175 0.36042 0.0
O40 O 0.8766 0.73547 0.39987 0.0
O41 O 0.86839 0.71106 0.37339 0.0
C42 C 0.20238 0.87092 0.37547 0.0
O43 O 0.19718 0.88238 0.37896 0.0
Cd44 Cd 0.21011 0.90275 0.38507 0.0
O45 O 0.21553 0.86968 0.37437 0.0
Cd46 Cd 0.23672 0.88469 0.3766 0.0
C47 C 0.23076 0.88898 0.41075 0.0
O48 O 0.22694 0.90598 0.36746 0.0
O49 O 0.24701 0.908 0.37726 0.0
O50 O 0.24554 0.87459 0.35546 0.0
C51 C 0.23722 0.91367 0.37066 0.0
O52 O 0.22117 0.89712 0.407 0.0
C53 C 0.25737 0.87151 0.36031 0.0
O54 O 0.23772 0.88232 0.40184 0.0
O55 O 0.25948 0.87409 0.37301 0.0
C56 C 0.09705 0.76662 0.59659 0.0
O57 O 0.08556 0.77173 0.59281 0.0
Cd58 Cd 0.06608 0.75838 0.58471 0.0
O59 O 0.09853 0.75356 0.59706 0.0
Cd60 Cd 0.08417 0.73224 0.59328 0.0
C61 C 0.08245 0.73953 0.5593 0.0
O62 O 0.06184 0.74086 0.60147 0.0
O63 O 0.06109 0.72156 0.59041 0.0
O64 O 0.09405 0.72352 0.6146 0.0
C65 C 0.05466 0.73063 0.59721 0.0
O66 O 0.07383 0.74877 0.56277 0.0
C67 C 0.09737 0.71182 0.60982 0.0
O68 O 0.08848 0.73224 0.5684 0.0
O69 O 0.09487 0.70967 0.59711 0.0
C70 C 0.26941 0.0997 0.5994 0.0
O71 O 0.2745 0.09615 0.58789 0.0
Cd72 Cd 0.26071 0.08749 0.56913 0.0
O73 O 0.25627 0.09968 0.60118 0.0
Cd74 Cd 0.23464 0.09532 0.5875 0.0
C75 C 0.24243 0.06154 0.58601 0.0
O76 O 0.24273 0.10372 0.56506 0.0
O77 O 0.22359 0.09185 0.56502 0.0
O78 O 0.22605 0.11662 0.59729 0.0
C79 C 0.23232 0.09911 0.55834 0.0
O80 O 0.25156 0.06526 0.57721 0.0
C81 C 0.21407 0.11192 0.60039 0.0
O82 O 0.235 0.07047 0.59209 0.0
O83 O 0.21176 0.09918 0.59803 0.0
C84 C 0.87285 0.20256 0.59543 0.0
O85 O 0.88404 0.19725 0.59114 0.0
Cd86 Cd 0.90343 0.2104 0.58261 0.0
O87 O 0.87167 0.21563 0.59607 0.0
Cd88 Cd 0.88627 0.23661 0.59182 0.0
C89 C 0.88687 0.22969 0.55769 0.0
O90 O 0.90874 0.22768 0.59948 0.0
O91 O 0.90935 0.24701 0.58852 0.0
O92 O 0.87724 0.2456 0.61341 0.0
C93 C 0.91587 0.2379 0.59519 0.0
O94 O 0.89545 0.22029 0.56085 0.0
C95 C 0.87392 0.2573 0.60862 0.0
O96 O 0.88118 0.23692 0.56703 0.0
O97 O 0.87603 0.25929 0.59584 0.0
C98 C 0.70332 0.87098 0.60246 0.0
O99 O 0.69789 0.87373 0.59085 0.0
Cd100 Cd 0.71061 0.881 0.57095 0.0
O101 O 0.71651 0.87106 0.60394 0.0
Cd102 Cd 0.73751 0.87456 0.58926 0.0
C103 C 0.72922 0.90814 0.5856 0.0
O104 O 0.72877 0.86495 0.56749 0.0
O105 O 0.74772 0.87707 0.56635 0.0
O106 O 0.74723 0.85375 0.59906 0.0
C107 C 0.73882 0.86944 0.56025 0.0
O108 O 0.71988 0.90374 0.57727 0.0
C109 C 0.7589 0.85911 0.60238 0.0
O110 O 0.73691 0.89973 0.59212 0.0
O111 O 0.76049 0.87196 0.60011 0.0
C112 C 0.37072 0.09927 0.26628 0.0
O113 O 0.38222 0.09558 0.27149 0.0
Cd114 Cd 0.40143 0.0874 0.2584 0.0
O115 O 0.36903 0.09945 0.25323 0.0
Cd116 Cd 0.38296 0.09504 0.23213 0.0
C117 C 0.38483 0.06119 0.24025 0.0
O118 O 0.40534 0.10389 0.24056 0.0
O119 O 0.40585 0.09235 0.22157 0.0
O120 O 0.37311 0.11604 0.22274 0.0
C121 C 0.41236 0.0996 0.23042 0.0
O122 O 0.39367 0.06503 0.24935 0.0
C123 C 0.36985 0.1109 0.21111 0.0
O124 O 0.37861 0.07004 0.23282 0.0
O125 O 0.37222 0.09814 0.20938 0.0
C126 C 0.87142 0.37215 0.20065 0.0
O127 O 0.88284 0.37648 0.19559 0.0
Cd128 Cd 0.90175 0.38568 0.20895 0.0
O129 O 0.86971 0.3717 0.21369 0.0
Cd130 Cd 0.88373 0.37636 0.23497 0.0
C131 C 0.88463 0.41053 0.22769 0.0
O132 O 0.90652 0.36913 0.22653 0.0
O133 O 0.90651 0.38036 0.24571 0.0
O134 O 0.8748 0.3549 0.24503 0.0
C135 C 0.91335 0.37377 0.23678 0.0
O136 O 0.89333 0.40751 0.21831 0.0
C137 C 0.87071 0.36033 0.2562 0.0
O138 O 0.87896 0.4011 0.235 0.0
O139 O 0.87237 0.37332 0.25737 0.0
C140 C 0.59668 0.87459 0.26667 0.0
O141 O 0.58543 0.87879 0.27196 0.0
Cd142 Cd 0.56523 0.88552 0.25922 0.0
O143 O 0.59779 0.87322 0.25365 0.0
Cd144 Cd 0.58295 0.87602 0.23281 0.0
C145 C 0.58007 0.91043 0.23826 0.0
O146 O 0.56096 0.86773 0.24274 0.0
O147 O 0.55969 0.87701 0.2226 0.0
O148 O 0.59273 0.8547 0.22401 0.0
C149 C 0.55352 0.87091 0.23244 0.0
O150 O 0.57163 0.90714 0.24785 0.0
C151 C 0.59585 0.85951 0.21223 0.0
O152 O 0.5865 0.90116 0.23157 0.0
O153 O 0.59337 0.87219 0.21015 0.0
C154 C 0.09804 0.60009 0.20106 0.0
O155 O 0.08644 0.59611 0.19603 0.0
Cd156 Cd 0.06757 0.58755 0.20981 0.0
O157 O 0.09994 0.60029 0.21408 0.0
Cd158 Cd 0.08666 0.59546 0.23554 0.0
C159 C 0.08441 0.56163 0.22729 0.0
O160 O 0.06397 0.60384 0.22796 0.0
O161 O 0.06421 0.59218 0.24689 0.0
O162 O 0.09715 0.61646 0.24487 0.0
C163 C 0.05737 0.59934 0.23836 0.0
O164 O 0.07532 0.56524 0.21846 0.0
C165 C 0.1008 0.61124 0.2563 0.0
O166 O 0.09086 0.57064 0.23455 0.0
O167 O 0.09828 0.59843 0.25796 0.0
C168 C 0.36952 0.86809 0.70039 0.0
O169 O 0.38106 0.87195 0.69523 0.0
Cd170 Cd 0.40016 0.88091 0.70859 0.0
O171 O 0.3678 0.86814 0.71342 0.0
Cd172 Cd 0.38157 0.87344 0.7346 0.0
C173 C 0.38362 0.90715 0.72575 0.0
O174 O 0.40431 0.86521 0.72711 0.0
O175 O 0.40416 0.87758 0.7456 0.0
O176 O 0.3723 0.85253 0.7453 0.0
C177 C 0.41099 0.87022 0.73729 0.0
O178 O 0.39256 0.90343 0.71687 0.0
C179 C 0.36808 0.85839 0.7562 0.0
O180 O 0.37733 0.89824 0.73321 0.0
O181 O 0.36973 0.87141 0.7569 0.0
C182 C 0.09597 0.37437 0.7656 0.0
O183 O 0.08455 0.37847 0.77059 0.0
Cd184 Cd 0.06528 0.38615 0.75715 0.0
O185 O 0.09757 0.37343 0.75259 0.0
Cd186 Cd 0.08346 0.37688 0.73131 0.0
C187 C 0.08232 0.41112 0.73784 0.0
O188 O 0.06091 0.36888 0.7401 0.0
O189 O 0.06054 0.37954 0.72063 0.0
O190 O 0.09297 0.35538 0.72262 0.0
C191 C 0.05391 0.37289 0.7298 0.0
O192 O 0.07345 0.4079 0.74708 0.0
C193 C 0.09645 0.36017 0.71093 0.0
O194 O 0.0883 0.4018 0.73084 0.0
O195 O 0.09424 0.3729 0.70883 0.0
C196 C 0.59696 0.09704 0.70119 0.0
O197 O 0.58548 0.09289 0.69605 0.0
Cd198 Cd 0.56668 0.08368 0.70944 0.0
O199 O 0.59871 0.09733 0.71424 0.0
Cd200 Cd 0.58489 0.09273 0.73551 0.0
C201 C 0.58412 0.05872 0.72794 0.0
O202 O 0.56201 0.10005 0.72718 0.0
O203 O 0.56223 0.08867 0.74625 0.0
O204 O 0.59442 0.11429 0.74463 0.0
C205 C 0.55529 0.09533 0.73741 0.0
O206 O 0.57525 0.0619 0.71873 0.0
C207 C 0.59795 0.10944 0.75626 0.0
O208 O 0.58999 0.06803 0.73531 0.0
O209 O 0.59575 0.09662 0.75817 0.0
C210 C 0.87179 0.60084 0.76775 0.0
O211 O 0.88316 0.59672 0.7729 0.0
Cd212 Cd 0.90188 0.58749 0.75975 0.0
O213 O 0.86999 0.60096 0.75472 0.0
Cd214 Cd 0.8835 0.59569 0.73359 0.0
C215 C 0.88393 0.56184 0.74217 0.0
O216 O 0.90652 0.60336 0.74149 0.0
O217 O 0.90592 0.59148 0.72267 0.0
O218 O 0.8753 0.61703 0.72334 0.0
C219 C 0.91304 0.59847 0.73129 0.0
O220 O 0.89302 0.56532 0.75116 0.0
C221 C 0.87081 0.61151 0.71228 0.0
O222 O 0.87811 0.57092 0.73469 0.0
O223 O 0.87179 0.59847 0.71131 0.0
C224 C 0.19972 0.36871 0.10135 0.0
O225 O 0.19399 0.37185 0.08999 0.0
Cd226 Cd 0.20681 0.38031 0.07055 0.0
O227 O 0.21293 0.36913 0.10259 0.0
Cd228 Cd 0.23388 0.37378 0.08825 0.0
C229 C 0.22502 0.40723 0.08614 0.0
O230 O 0.22522 0.36463 0.06623 0.0
O231 O 0.24406 0.37697 0.06543 0.0
O232 O 0.24312 0.3529 0.0983 0.0
C233 C 0.23526 0.36938 0.05914 0.0
O234 O 0.21569 0.40296 0.07774 0.0
C235 C 0.25513 0.35782 0.10096 0.0
O236 O 0.23295 0.39874 0.09227 0.0
O237 O 0.25722 0.37051 0.09822 0.0
C238 C 0.271 0.59894 0.87573 0.0
O239 O 0.2765 0.58777 0.87966 0.0
Cd240 Cd 0.26334 0.56811 0.88738 0.0
O241 O 0.25781 0.59987 0.87486 0.0
Cd242 Cd 0.23685 0.58486 0.87795 0.0
C243 C 0.24307 0.58374 0.91216 0.0
O244 O 0.24631 0.56282 0.87012 0.0
O245 O 0.22666 0.56182 0.88076 0.0
O246 O 0.2286 0.59384 0.85605 0.0
C247 C 0.236 0.55557 0.87412 0.0
O248 O 0.2528 0.57555 0.90897 0.0
C249 C 0.21653 0.59684 0.86026 0.0
O250 O 0.23574 0.58939 0.90282 0.0
O251 O 0.21398 0.59467 0.87293 0.0
C252 C 0.37195 0.27103 0.86815 0.0
O253 O 0.38351 0.27577 0.87257 0.0
Cd254 Cd 0.40185 0.26173 0.88138 0.0
O255 O 0.36966 0.25804 0.86766 0.0
Cd256 Cd 0.38249 0.23656 0.87283 0.0
C257 C 0.38415 0.24423 0.90683 0.0
O258 O 0.40572 0.24374 0.86502 0.0
O259 O 0.40456 0.22504 0.87702 0.0
O260 O 0.37342 0.22614 0.85165 0.0
C261 C 0.41185 0.23328 0.86981 0.0
O262 O 0.3938 0.25276 0.90358 0.0
C263 C 0.36888 0.21518 0.85735 0.0
O264 O 0.37749 0.23754 0.89755 0.0
O265 O 0.37018 0.21442 0.87037 0.0
C266 C 0.70384 0.37106 0.87707 0.0
O267 O 0.69841 0.38235 0.88076 0.0
Cd268 Cd 0.71125 0.40235 0.88791 0.0
O269 O 0.71702 0.37006 0.87607 0.0
Cd270 Cd 0.73815 0.38523 0.87842 0.0
C271 C 0.73207 0.38705 0.9127 0.0
O272 O 0.72779 0.40659 0.87018 0.0
O273 O 0.74805 0.4087 0.87956 0.0
O274 O 0.74581 0.37495 0.85694 0.0
C275 C 0.73801 0.41437 0.87336 0.0
O276 O 0.72211 0.39496 0.90942 0.0
C277 C 0.75818 0.37269 0.86087 0.0
O278 O 0.73957 0.38153 0.90345 0.0
O279 O 0.7612 0.37584 0.87326 0.0
C280 C 0.59943 0.70193 0.86865 0.0
O281 O 0.58761 0.69704 0.87208 0.0
Cd282 Cd 0.56911 0.71058 0.88107 0.0
O283 O 0.60185 0.71491 0.86913 0.0
Cd284 Cd 0.58901 0.73642 0.8746 0.0
C285 C 0.58639 0.72676 0.90801 0.0
O286 O 0.56614 0.72949 0.86563 0.0
O287 O 0.56676 0.74784 0.8782 0.0
O288 O 0.5992 0.74706 0.85419 0.0
C289 C 0.55973 0.7397 0.87058 0.0
O290 O 0.57713 0.71816 0.90384 0.0
C291 C 0.60339 0.75801 0.8602 0.0
O292 O 0.59301 0.73435 0.89946 0.0
O293 O 0.60134 0.75874 0.87312 0.0
C294 C 0.76647 0.59686 0.10251 0.0
O295 O 0.77191 0.59373 0.09104 0.0
Cd296 Cd 0.75883 0.58637 0.07129 0.0
O297 O 0.75328 0.59704 0.10383 0.0
Cd298 Cd 0.73212 0.59364 0.0893 0.0
C299 C 0.7396 0.55989 0.08624 0.0
O300 O 0.7412 0.60303 0.06767 0.0
O301 O 0.7218 0.59167 0.06629 0.0
O302 O 0.72373 0.61454 0.1 0.0
C303 C 0.73099 0.599 0.06033 0.0
O304 O 0.74902 0.56397 0.0779 0.0
C305 C 0.71157 0.60995 0.10252 0.0
O306 O 0.73211 0.56856 0.09261 0.0
O307 O 0.70902 0.59743 0.09936 0.0
C308 C 0.37031 0.70111 0.09501 0.0
O309 O 0.38136 0.69578 0.09041 0.0
Cd310 Cd 0.4013 0.70855 0.0827 0.0
O311 O 0.36942 0.71416 0.09641 0.0
Cd312 Cd 0.38449 0.73505 0.09325 0.0
C313 C 0.38557 0.72959 0.05871 0.0
O314 O 0.40639 0.7248 0.10058 0.0
O315 O 0.40794 0.74515 0.09171 0.0
O316 O 0.37529 0.74363 0.11499 0.0
C317 C 0.41399 0.73511 0.09742 0.0
O318 O 0.39363 0.71963 0.06144 0.0
C319 C 0.37216 0.75547 0.11041 0.0
O320 O 0.38024 0.73671 0.06835 0.0
O321 O 0.37443 0.7577 0.09769 0.0
C322 C 0.59648 0.26502 0.09573 0.0
O323 O 0.58508 0.27022 0.09179 0.0
Cd324 Cd 0.56528 0.25705 0.08414 0.0
O325 O 0.59778 0.25196 0.09643 0.0
Cd326 Cd 0.5832 0.2308 0.09281 0.0
C327 C 0.58076 0.23754 0.05872 0.0
O328 O 0.56111 0.23984 0.10124 0.0
O329 O 0.55999 0.22029 0.09067 0.0
O330 O 0.59362 0.22218 0.11393 0.0
C331 C 0.55375 0.2296 0.09733 0.0
O332 O 0.5722 0.24684 0.06221 0.0
C333 C 0.59652 0.21034 0.1092 0.0
O334 O 0.58709 0.23051 0.06784 0.0
O335 O 0.59354 0.20806 0.09662 0.0
C336 C 0.86667 0.70008 0.59632 0.0
O337 O 0.87019 0.69481 0.58487 0.0
Cd338 Cd 0.87985 0.70783 0.56618 0.0
O339 O 0.86728 0.71312 0.59812 0.0
Cd340 Cd 0.87303 0.73431 0.58457 0.0
C341 C 0.90666 0.72462 0.58351 0.0
O342 O 0.86451 0.72653 0.56202 0.0
O343 O 0.87725 0.74501 0.56207 0.0
O344 O 0.85224 0.7448 0.59399 0.0
C345 C 0.86975 0.73652 0.55529 0.0
O346 O 0.90265 0.71568 0.57464 0.0
C347 C 0.8582 0.75593 0.59787 0.0
O348 O 0.89794 0.73247 0.58936 0.0
O349 O 0.87123 0.75691 0.59589 0.0
C350 C 0.20072 0.8716 0.5929 0.0
O351 O 0.1953 0.88282 0.58896 0.0
Cd352 Cd 0.2083 0.90287 0.58197 0.0
O353 O 0.21389 0.8706 0.59386 0.0
Cd354 Cd 0.23481 0.88567 0.59069 0.0
C355 C 0.22871 0.88871 0.55652 0.0
O356 O 0.22533 0.90741 0.59938 0.0
O357 O 0.24494 0.90886 0.58875 0.0
O358 O 0.24365 0.87595 0.61207 0.0
C359 C 0.23558 0.91485 0.5956 0.0
O360 O 0.21915 0.89694 0.56008 0.0
C361 C 0.25562 0.87315 0.60745 0.0
O362 O 0.23569 0.88223 0.56559 0.0
O363 O 0.25783 0.87577 0.5948 0.0
C364 C 0.10325 0.27146 0.59546 0.0
O365 O 0.09954 0.27717 0.58428 0.0
Cd366 Cd 0.08984 0.26437 0.56529 0.0
O367 O 0.10285 0.25835 0.59662 0.0
Cd368 Cd 0.09739 0.23759 0.58244 0.0
C369 C 0.06362 0.24658 0.5823 0.0
O370 O 0.10528 0.246 0.55988 0.0
O371 O 0.09276 0.22734 0.5599 0.0
O372 O 0.11881 0.22803 0.59136 0.0
C373 C 0.10001 0.23598 0.55312 0.0
O374 O 0.06735 0.25586 0.5737 0.0
C375 C 0.11362 0.21645 0.59489 0.0
O376 O 0.07257 0.23868 0.58777 0.0
O377 O 0.10063 0.21471 0.59294 0.0
C378 C 0.76814 0.0992 0.59642 0.0
O379 O 0.7735 0.08825 0.59175 0.0
Cd380 Cd 0.76068 0.06875 0.58326 0.0
O381 O 0.75497 0.10017 0.59753 0.0
Cd382 Cd 0.73405 0.08509 0.59353 0.0
C383 C 0.74001 0.0849 0.55916 0.0
O384 O 0.7439 0.06296 0.60045 0.0
O385 O 0.72419 0.06193 0.58984 0.0
O386 O 0.72428 0.09252 0.61549 0.0
C387 C 0.73374 0.05563 0.59618 0.0
O388 O 0.74996 0.07679 0.56191 0.0
C389 C 0.7127 0.09623 0.6105 0.0
O390 O 0.73272 0.09005 0.56878 0.0
O391 O 0.71121 0.09517 0.59752 0.0
C392 C 0.86689 0.20726 0.37523 0.0
O393 O 0.87872 0.20246 0.3783 0.0
Cd394 Cd 0.89816 0.21608 0.38579 0.0
O395 O 0.86495 0.22027 0.37509 0.0
Cd396 Cd 0.87899 0.24194 0.37841 0.0
C397 C 0.88224 0.23416 0.41216 0.0
O398 O 0.90099 0.2339 0.36919 0.0
O399 O 0.90205 0.25292 0.38071 0.0
O400 O 0.86901 0.25054 0.35712 0.0
C401 C 0.90823 0.24413 0.37333 0.0
O402 O 0.89085 0.22517 0.40805 0.0
C403 C 0.86551 0.26219 0.36186 0.0
O404 O 0.8757 0.24161 0.40352 0.0
O405 O 0.86771 0.2643 0.37463 0.0
C406 C 0.70055 0.86958 0.37021 0.0
O407 O 0.69518 0.8728 0.38169 0.0
Cd408 Cd 0.70813 0.88075 0.40133 0.0
O409 O 0.71373 0.8696 0.36876 0.0
Cd410 Cd 0.73477 0.87375 0.38329 0.0
C411 C 0.72666 0.90744 0.38609 0.0
O412 O 0.72629 0.86476 0.40538 0.0
O413 O 0.74527 0.87688 0.40605 0.0
O414 O 0.74482 0.85284 0.37391 0.0
C415 C 0.73647 0.86943 0.41242 0.0
O416 O 0.71736 0.90335 0.39454 0.0
C417 C 0.7563 0.85842 0.37041 0.0
O418 O 0.73422 0.89879 0.37977 0.0
O419 O 0.75759 0.87135 0.37242 0.0
C420 C 0.09981 0.76314 0.37726 0.0
O421 O 0.08793 0.76779 0.38033 0.0
Cd422 Cd 0.06854 0.75378 0.38712 0.0
O423 O 0.10184 0.75016 0.37687 0.0
Cd424 Cd 0.0881 0.72829 0.37975 0.0
C425 C 0.08431 0.73554 0.41351 0.0
O426 O 0.0662 0.73626 0.37005 0.0
O427 O 0.0651 0.717 0.38109 0.0
O428 O 0.09972 0.72063 0.35902 0.0
C429 C 0.05897 0.72589 0.37377 0.0
O430 O 0.07553 0.74439 0.40941 0.0
C431 C 0.10253 0.70864 0.36338 0.0
O432 O 0.09117 0.72845 0.40487 0.0
O433 O 0.09908 0.70585 0.37572 0.0
C434 C 0.2672 0.09843 0.36926 0.0
O435 O 0.27239 0.0944 0.3806 0.0
Cd436 Cd 0.25911 0.08616 0.39984 0.0
O437 O 0.25404 0.09878 0.36763 0.0
Cd438 Cd 0.23287 0.09383 0.38144 0.0
C439 C 0.24083 0.05998 0.38363 0.0
O440 O 0.24116 0.10243 0.40376 0.0
O441 O 0.22207 0.0905 0.40403 0.0
O442 O 0.22259 0.11473 0.37225 0.0
C443 C 0.23087 0.09785 0.41059 0.0
O444 O 0.24974 0.06368 0.39272 0.0
C445 C 0.2113 0.10898 0.36835 0.0
O446 O 0.2338 0.06893 0.37711 0.0
O447 O 0.21022 0.09601 0.37009 0.0
C448 C 0.6013 0.87559 0.70831 0.0
O449 O 0.58954 0.87869 0.70326 0.0
Cd450 Cd 0.57006 0.88603 0.71638 0.0
O451 O 0.6032 0.87552 0.72134 0.0
Cd452 Cd 0.58921 0.87926 0.74266 0.0
C453 C 0.58595 0.91293 0.73431 0.0
O454 O 0.56723 0.86953 0.73431 0.0
O455 O 0.56609 0.88108 0.75325 0.0
O456 O 0.59947 0.85845 0.75186 0.0
C457 C 0.55994 0.87357 0.74435 0.0
O458 O 0.57724 0.90861 0.7253 0.0
C459 C 0.60308 0.86359 0.76339 0.0
O460 O 0.59254 0.90445 0.74186 0.0
O461 O 0.60067 0.87634 0.7652 0.0
C462 C 0.10428 0.59441 0.76545 0.0
O463 O 0.09287 0.59041 0.77077 0.0
Cd464 Cd 0.07352 0.58196 0.75757 0.0
O465 O 0.10571 0.59473 0.75238 0.0
Cd466 Cd 0.09146 0.59033 0.73125 0.0
C467 C 0.08966 0.55639 0.73873 0.0
O468 O 0.06926 0.59865 0.74004 0.0
O469 O 0.06836 0.58733 0.72091 0.0
O470 O 0.10147 0.61179 0.72267 0.0
C471 C 0.06207 0.59438 0.72988 0.0
O472 O 0.08116 0.55999 0.74807 0.0
C473 C 0.1042 0.60735 0.71067 0.0
O474 O 0.09572 0.56541 0.73121 0.0
O475 O 0.10151 0.59468 0.70831 0.0
C476 C 0.36722 0.09615 0.77256 0.0
O477 O 0.37086 0.08491 0.77815 0.0
Cd478 Cd 0.38046 0.06595 0.76564 0.0
O479 O 0.36765 0.09754 0.75949 0.0
Cd480 Cd 0.37313 0.08333 0.73891 0.0
C481 C 0.40701 0.08277 0.74821 0.0
O482 O 0.36522 0.06046 0.74686 0.0
O483 O 0.37804 0.06098 0.72865 0.0
O484 O 0.35185 0.09102 0.72781 0.0
C485 C 0.37072 0.05392 0.73698 0.0
O486 O 0.40314 0.07413 0.75738 0.0
C487 C 0.35767 0.09526 0.71684 0.0
O488 O 0.39813 0.08849 0.74037 0.0
O489 O 0.37084 0.09437 0.71629 0.0
C490 C 0.86716 0.37286 0.69761 0.0
O491 O 0.87102 0.38408 0.69192 0.0
Cd492 Cd 0.88046 0.40328 0.7046 0.0
O493 O 0.8673 0.3717 0.7107 0.0
Cd494 Cd 0.87249 0.38606 0.73141 0.0
C495 C 0.90642 0.3866 0.72251 0.0
O496 O 0.86457 0.4084 0.72275 0.0
O497 O 0.87673 0.40885 0.74147 0.0
O498 O 0.85107 0.37681 0.7412 0.0
C499 C 0.86956 0.41538 0.73272 0.0
O500 O 0.90284 0.39513 0.7132 0.0
C501 C 0.85624 0.37363 0.75281 0.0
O502 O 0.89735 0.38106 0.73039 0.0
O503 O 0.86921 0.37587 0.75442 0.0
C504 C 0.60283 0.09274 0.26491 0.0
O505 O 0.59126 0.08893 0.27004 0.0
Cd506 Cd 0.57143 0.08204 0.25663 0.0
O507 O 0.60435 0.09349 0.25187 0.0
Cd508 Cd 0.59003 0.09009 0.23066 0.0
C509 C 0.58571 0.05607 0.23699 0.0
O510 O 0.56839 0.09951 0.23965 0.0
O511 O 0.56682 0.08883 0.2202 0.0
O512 O 0.60115 0.1111 0.22225 0.0
C513 C 0.56097 0.096 0.22938 0.0
O514 O 0.57722 0.05992 0.24625 0.0
C515 C 0.60374 0.10658 0.21026 0.0
O516 O 0.59272 0.06492 0.23009 0.0
O517 O 0.60049 0.09405 0.20784 0.0
C518 C 0.86746 0.59247 0.20919 0.0
O519 O 0.87914 0.58899 0.20431 0.0
Cd520 Cd 0.89889 0.58262 0.21779 0.0
O521 O 0.86562 0.59315 0.22219 0.0
Cd522 Cd 0.87951 0.58989 0.24365 0.0
C523 C 0.88394 0.55604 0.23655 0.0
O524 O 0.90125 0.59986 0.23513 0.0
O525 O 0.90268 0.58896 0.25441 0.0
O526 O 0.86856 0.61055 0.25243 0.0
C527 C 0.90865 0.59631 0.24532 0.0
O528 O 0.89289 0.5602 0.22776 0.0
C529 C 0.86525 0.60553 0.26408 0.0
O530 O 0.87663 0.56462 0.24325 0.0
O531 O 0.86814 0.59294 0.26613 0.0
C532 C 0.36749 0.87091 0.19962 0.0
O533 O 0.37182 0.88194 0.19389 0.0
Cd534 Cd 0.38079 0.90163 0.20622 0.0
O535 O 0.36709 0.86998 0.21272 0.0
Cd536 Cd 0.37222 0.88465 0.2332 0.0
C537 C 0.40641 0.88562 0.22503 0.0
O538 O 0.36469 0.90694 0.22408 0.0
O539 O 0.3766 0.90756 0.24294 0.0
O540 O 0.35084 0.87604 0.24378 0.0
C541 C 0.36973 0.91406 0.23393 0.0
O542 O 0.40307 0.89426 0.21573 0.0
C543 C 0.35644 0.87248 0.25508 0.0
O544 O 0.39713 0.87975 0.23242 0.0
O545 O 0.36952 0.87428 0.25612 0.0
C546 C 0.10045 0.3733 0.27343 0.0
O547 O 0.09692 0.38465 0.27887 0.0
Cd548 Cd 0.088 0.40367 0.26593 0.0
O549 O 0.10026 0.37182 0.26037 0.0
Cd550 Cd 0.09558 0.38585 0.23947 0.0
C551 C 0.06156 0.38711 0.24779 0.0
O552 O 0.10387 0.40853 0.24764 0.0
O553 O 0.09169 0.40828 0.22893 0.0
O554 O 0.11696 0.37693 0.22977 0.0
C555 C 0.09888 0.41518 0.23755 0.0
O556 O 0.06543 0.39578 0.25698 0.0
C557 C 0.11167 0.37332 0.21829 0.0
O558 O 0.07048 0.38113 0.24023 0.0
O559 O 0.09869 0.37513 0.21677 0.0
C560 C 0.76877 0.59882 0.87101 0.0
O561 O 0.77403 0.59467 0.88227 0.0
Cd562 Cd 0.76084 0.58664 0.90164 0.0
O563 O 0.7556 0.59938 0.86953 0.0
Cd564 Cd 0.73453 0.59473 0.88363 0.0
C565 C 0.74186 0.56074 0.88574 0.0
O566 O 0.74331 0.6033 0.90576 0.0
O567 O 0.72409 0.59159 0.90644 0.0
O568 O 0.72468 0.61593 0.87466 0.0
C569 C 0.73308 0.59891 0.91279 0.0
O570 O 0.75095 0.56433 0.89469 0.0
C571 C 0.71315 0.61053 0.87096 0.0
O572 O 0.73489 0.56978 0.87927 0.0
O573 O 0.71172 0.59758 0.87267 0.0
C574 C 0.70091 0.36905 0.09371 0.0
O575 O 0.69559 0.38008 0.08917 0.0
Cd576 Cd 0.70835 0.40029 0.08217 0.0
O577 O 0.71405 0.36815 0.09521 0.0
Cd578 Cd 0.73484 0.38336 0.09193 0.0
C579 C 0.72952 0.38601 0.05753 0.0
O580 O 0.72493 0.40514 0.09986 0.0
O581 O 0.74462 0.40666 0.08942 0.0
O582 O 0.74444 0.37486 0.11359 0.0
C583 C 0.73506 0.41267 0.09596 0.0
O584 O 0.71996 0.39442 0.06064 0.0
C585 C 0.75617 0.37165 0.10864 0.0
O586 O 0.73605 0.3795 0.06691 0.0
O587 O 0.75781 0.37344 0.09577 0.0
C588 C 0.59942 0.76955 0.09723 0.0
O589 O 0.59515 0.77491 0.08607 0.0
Cd590 Cd 0.58673 0.76165 0.06674 0.0
O591 O 0.59998 0.75648 0.09847 0.0
Cd592 Cd 0.59543 0.73543 0.08449 0.0
C593 C 0.56115 0.74254 0.08308 0.0
O594 O 0.60326 0.7441 0.06202 0.0
O595 O 0.59179 0.72482 0.06192 0.0
O596 O 0.61689 0.72638 0.09392 0.0
C597 C 0.5986 0.73384 0.0552 0.0
O598 O 0.5645 0.75164 0.07416 0.0
C599 C 0.61181 0.71475 0.09744 0.0
O600 O 0.57045 0.73564 0.08932 0.0
O601 O 0.59889 0.71278 0.09524 0.0
C602 C 0.26597 0.59734 0.09501 0.0
O603 O 0.27137 0.5861 0.09116 0.0
Cd604 Cd 0.25833 0.5666 0.08281 0.0
O605 O 0.25279 0.59857 0.09536 0.0
Cd606 Cd 0.2316 0.58406 0.09122 0.0
C607 C 0.23914 0.58262 0.05727 0.0
O608 O 0.24063 0.56203 0.09938 0.0
O609 O 0.2212 0.56104 0.08827 0.0
O610 O 0.22275 0.59353 0.11262 0.0
C611 C 0.23044 0.55476 0.09506 0.0
O612 O 0.24858 0.57422 0.06086 0.0
C613 C 0.2109 0.59669 0.10786 0.0
O614 O 0.23163 0.58848 0.0663 0.0
O615 O 0.20874 0.59431 0.09514 0.0
C616 C 0.36719 0.19906 0.09481 0.0
O617 O 0.37116 0.19341 0.08369 0.0
Cd618 Cd 0.38031 0.20611 0.06446 0.0
O619 O 0.36719 0.21217 0.09596 0.0
Cd620 Cd 0.37227 0.23309 0.0819 0.0
C621 C 0.40632 0.22462 0.08126 0.0
O622 O 0.36421 0.22402 0.05965 0.0
O623 O 0.37532 0.24351 0.05914 0.0
O624 O 0.35103 0.24238 0.09144 0.0
C625 C 0.36862 0.23421 0.05262 0.0
O626 O 0.40267 0.21522 0.07272 0.0
C627 C 0.35619 0.25407 0.09474 0.0
O628 O 0.39729 0.23237 0.08678 0.0
O629 O 0.36908 0.25596 0.09239 0.0
C630 C 0.20035 0.37114 0.8695 0.0
O631 O 0.19518 0.37481 0.88094 0.0
Cd632 Cd 0.20826 0.38272 0.90042 0.0
O633 O 0.21351 0.37078 0.86792 0.0
Cd634 Cd 0.23465 0.37503 0.88238 0.0
C635 C 0.22689 0.40892 0.88464 0.0
O636 O 0.22591 0.36612 0.90429 0.0
O637 O 0.24499 0.37801 0.90536 0.0
O638 O 0.24505 0.3542 0.8731 0.0
C639 C 0.23605 0.37052 0.91151 0.0
O640 O 0.21761 0.40519 0.89328 0.0
C641 C 0.25645 0.35997 0.86964 0.0
O642 O 0.23426 0.39998 0.87852 0.0
O643 O 0.25752 0.37291 0.87162 0.0
C644 C 0.60179 0.26303 0.87719 0.0
O645 O 0.58992 0.26774 0.88021 0.0
Cd646 Cd 0.57007 0.25398 0.88628 0.0
O647 O 0.6037 0.25004 0.87655 0.0
Cd648 Cd 0.58961 0.22835 0.87891 0.0
C649 C 0.58464 0.23485 0.9127 0.0
O650 O 0.56782 0.23663 0.86909 0.0
O651 O 0.56661 0.21719 0.8798 0.0
O652 O 0.6009 0.22062 0.85802 0.0
C653 C 0.56053 0.22623 0.87263 0.0
O654 O 0.57604 0.24382 0.90848 0.0
C655 C 0.60377 0.20864 0.86237 0.0
O656 O 0.59191 0.22802 0.90417 0.0
O657 O 0.6006 0.20592 0.8748 0.0
C658 C 0.37026 0.70874 0.87872 0.0
O659 O 0.38198 0.70435 0.88272 0.0
Cd660 Cd 0.40155 0.71865 0.88872 0.0
O661 O 0.36825 0.72165 0.87732 0.0
Cd662 Cd 0.38195 0.74355 0.87994 0.0
C663 C 0.3865 0.73831 0.91412 0.0
O664 O 0.40376 0.73508 0.87062 0.0
O665 O 0.40504 0.75485 0.88072 0.0
O666 O 0.3709 0.75149 0.85886 0.0
C667 C 0.41105 0.74561 0.87376 0.0
O668 O 0.3956 0.72957 0.91058 0.0
C669 C 0.36747 0.7632 0.86351 0.0
O670 O 0.37909 0.74434 0.90509 0.0
O671 O 0.37034 0.76566 0.87609 0.0
H672 H 0.10395 0.34633 0.2659 0.0
H673 H 0.10753 0.32655 0.28111 0.0
H674 H 0.10909 0.35378 0.31631 0.0
H675 H 0.10519 0.37357 0.30126 0.0
H676 H 0.12811 0.31952 0.30012 0.0
H677 H 0.07724 0.32735 0.32578 0.0
H678 H 0.0821 0.33625 0.31016 0.0
H679 H 0.08876 0.34208 0.32654 0.0
C680 C 0.10517 0.34813 0.27687 0.0
C681 C 0.10408 0.36151 0.28239 0.0
C682 C 0.10724 0.33682 0.28553 0.0
C683 C 0.1083 0.33868 0.29985 0.0
C684 C 0.10797 0.35209 0.30532 0.0
H685 H 0.10699 0.27981 0.36748 0.0
H686 H 0.11161 0.30049 0.35367 0.0
C687 C 0.10579 0.36339 0.29669 0.0
C688 C 0.109 0.32655 0.3091 0.0
H689 H 0.09134 0.30974 0.33468 0.0
C690 C 0.12011 0.31738 0.30771 0.0
C691 C 0.09849 0.32376 0.31893 0.0
C692 C 0.0859 0.33279 0.32039 0.0
C693 C 0.121 0.30551 0.31597 0.0
C694 C 0.11046 0.30275 0.32576 0.0
C695 C 0.09947 0.31199 0.32725 0.0
C696 C 0.11005 0.28993 0.33405 0.0
C697 C 0.13319 0.29606 0.31422 0.0
C698 C 0.10789 0.27712 0.32757 0.0
C699 C 0.10519 0.2653 0.33542 0.0
C700 C 0.10455 0.26611 0.34988 0.0
C701 C 0.10742 0.27884 0.35636 0.0
C702 C 0.11006 0.29066 0.3485 0.0
H703 H 0.14204 0.30134 0.30898 0.0
H704 H 0.1368 0.29212 0.32435 0.0
H705 H 0.12994 0.28707 0.30782 0.0
H706 H 0.10759 0.27638 0.31642 0.0
H707 H 0.10301 0.25565 0.33012 0.0
H708 H 0.71694 0.10229 0.33533 0.0
H709 H 0.69909 0.10637 0.31786 0.0
H710 H 0.66722 0.10218 0.34884 0.0
H711 H 0.68501 0.09836 0.36642 0.0
H712 H 0.67958 0.08717 0.31107 0.0
H713 H 0.6536 0.13514 0.32725 0.0
H714 H 0.67036 0.13018 0.33393 0.0
H715 H 0.65465 0.12272 0.34093 0.0
C716 C 0.70615 0.10254 0.33849 0.0
C717 C 0.70237 0.09994 0.35225 0.0
C718 C 0.69597 0.10488 0.32848 0.0
C719 C 0.68184 0.10471 0.33206 0.0
C720 C 0.67807 0.10267 0.34589 0.0
H721 H 0.60312 0.09238 0.2931 0.0
H722 H 0.62289 0.09672 0.30843 0.0
C723 C 0.68825 0.1004 0.35592 0.0
C724 C 0.67102 0.10496 0.32114 0.0
H725 H 0.6409 0.12052 0.3114 0.0
C726 C 0.67125 0.09461 0.31099 0.0
C727 C 0.66015 0.11464 0.3211 0.0
C728 C 0.65973 0.12638 0.33131 0.0
C729 C 0.66058 0.0933 0.30117 0.0
C730 C 0.64949 0.10272 0.30139 0.0
C731 C 0.64943 0.11331 0.31129 0.0
C732 C 0.63743 0.10115 0.29199 0.0
C733 C 0.66094 0.08148 0.29102 0.0
C734 C 0.63903 0.10245 0.27767 0.0
C735 C 0.62775 0.09992 0.26884 0.0
C736 C 0.61467 0.09609 0.2742 0.0
C737 C 0.61305 0.09522 0.2886 0.0
C738 C 0.62432 0.09776 0.29739 0.0
H739 H 0.66874 0.07364 0.29395 0.0
H740 H 0.65057 0.07633 0.29023 0.0
H741 H 0.66371 0.08552 0.28067 0.0
H742 H 0.64904 0.10525 0.27332 0.0
H743 H 0.62933 0.10078 0.25782 0.0
H744 H 0.85849 0.68624 0.36994 0.0
H745 H 0.85235 0.66586 0.35608 0.0
H746 H 0.85595 0.69012 0.31897 0.0
H747 H 0.8619 0.71053 0.33269 0.0
H748 H 0.83319 0.67059 0.31886 0.0
H749 H 0.88363 0.64725 0.33406 0.0
H750 H 0.87218 0.65206 0.34781 0.0
H751 H 0.87993 0.66519 0.33714 0.0
C752 C 0.85774 0.68729 0.35885 0.0
C753 C 0.86085 0.69996 0.3524 0.0
C754 C 0.85427 0.67562 0.35095 0.0
C755 C 0.85393 0.67645 0.33651 0.0
C756 C 0.8562 0.68927 0.33011 0.0
H757 H 0.85818 0.6326 0.26216 0.0
H758 H 0.85237 0.64818 0.28095 0.0
C759 C 0.85964 0.70091 0.33798 0.0
C760 C 0.85244 0.66389 0.32788 0.0
H761 H 0.87032 0.63558 0.31743 0.0
C762 C 0.84119 0.6628 0.31867 0.0
C763 C 0.86288 0.65373 0.3277 0.0
C764 C 0.87541 0.65458 0.33711 0.0
C765 C 0.84032 0.65205 0.30895 0.0
C766 C 0.85115 0.64233 0.30828 0.0
C767 C 0.86202 0.64303 0.31797 0.0
C768 C 0.85238 0.63238 0.29673 0.0
C769 C 0.82795 0.65135 0.29936 0.0
C770 C 0.85433 0.61827 0.29931 0.0
C771 C 0.8578 0.60932 0.28856 0.0
C772 C 0.8595 0.61437 0.27507 0.0
C773 C 0.85692 0.62837 0.27243 0.0
C774 C 0.85347 0.63729 0.28316 0.0
H775 H 0.81864 0.65597 0.3042 0.0
H776 H 0.83035 0.65734 0.28989 0.0
H777 H 0.8254 0.64054 0.29635 0.0
H778 H 0.85365 0.61429 0.30973 0.0
H779 H 0.85973 0.59859 0.29093 0.0
H780 H 0.36508 0.86684 0.28139 0.0
H781 H 0.35046 0.86111 0.30128 0.0
H782 H 0.31406 0.86132 0.27517 0.0
H783 H 0.32855 0.86691 0.25528 0.0
H784 H 0.32987 0.87825 0.31059 0.0
H785 H 0.30737 0.82679 0.2984 0.0
H786 H 0.32267 0.83362 0.28987 0.0
H787 H 0.3056 0.83873 0.28439 0.0
C788 C 0.354 0.86538 0.27984 0.0
C789 C 0.34796 0.86738 0.26677 0.0
C790 C 0.34567 0.8621 0.29121 0.0
C791 C 0.3312 0.86061 0.28967 0.0
C792 C 0.32523 0.86211 0.27654 0.0
H793 H 0.25587 0.86647 0.33268 0.0
H794 H 0.27505 0.86157 0.31709 0.0
C795 C 0.33353 0.86542 0.26519 0.0
C796 C 0.32211 0.85917 0.30192 0.0
H797 H 0.29471 0.84051 0.3148 0.0
C798 C 0.32238 0.86985 0.31171 0.0
C799 C 0.31235 0.84821 0.30331 0.0
C800 C 0.31205 0.83612 0.2935 0.0
C801 C 0.31255 0.87034 0.32235 0.0
C802 C 0.30236 0.85969 0.32339 0.0
C803 C 0.30252 0.84866 0.31398 0.0
C804 C 0.29064 0.86065 0.3332 0.0
C805 C 0.31263 0.8827 0.33186 0.0
C806 C 0.29295 0.86125 0.3475 0.0
C807 C 0.28199 0.86416 0.35646 0.0
C808 C 0.26853 0.86639 0.35125 0.0
C809 C 0.26612 0.86489 0.33702 0.0
C810 C 0.27707 0.86205 0.32809 0.0
H811 H 0.31946 0.8912 0.32802 0.0
H812 H 0.30195 0.88674 0.33313 0.0
H813 H 0.3165 0.87958 0.34217 0.0
H814 H 0.30331 0.85994 0.35167 0.0
H815 H 0.28416 0.86514 0.36739 0.0
H816 H 0.11332 0.63395 0.71364 0.0
H817 H 0.11662 0.65106 0.6954 0.0
H818 H 0.10833 0.61982 0.66464 0.0
H819 H 0.10518 0.60251 0.68285 0.0
H820 H 0.13007 0.64071 0.65758 0.0
H821 H 0.08014 0.66271 0.67536 0.0
H822 H 0.09314 0.66096 0.68857 0.0
H823 H 0.08584 0.6458 0.68047 0.0
C824 C 0.11249 0.63063 0.70299 0.0
C825 C 0.10879 0.61693 0.69968 0.0
C826 C 0.11437 0.64043 0.69259 0.0
C827 C 0.11247 0.63672 0.67872 0.0
C828 C 0.10979 0.62286 0.67531 0.0
H829 H 0.10127 0.68452 0.60374 0.0
H830 H 0.10691 0.66604 0.61996 0.0
C831 C 0.10799 0.613 0.68572 0.0
C832 C 0.1117 0.64758 0.66804 0.0
H833 H 0.0923 0.67509 0.65818 0.0
C834 C 0.12183 0.64823 0.65766 0.0
C835 C 0.10084 0.65727 0.66813 0.0
C836 C 0.08929 0.65664 0.67864 0.0
C837 C 0.12157 0.65864 0.64754 0.0
C838 C 0.11081 0.66845 0.6478 0.0
C839 C 0.10062 0.66764 0.6581 0.0
C840 C 0.10965 0.67966 0.6375 0.0
C841 C 0.13293 0.65925 0.63686 0.0
C842 C 0.10942 0.69344 0.64195 0.0
C843 C 0.10606 0.70397 0.63277 0.0
C844 C 0.10284 0.70092 0.61894 0.0
C845 C 0.10375 0.68719 0.61432 0.0
C846 C 0.10705 0.67663 0.62356 0.0
H847 H 0.14214 0.65321 0.64006 0.0
H848 H 0.12891 0.65483 0.62704 0.0
H849 H 0.13627 0.67009 0.63489 0.0
H850 H 0.11134 0.69598 0.65268 0.0
H851 H 0.10551 0.71445 0.63664 0.0
H852 H 0.26263 0.10385 0.6265 0.0
H853 H 0.27857 0.10704 0.64595 0.0
H854 H 0.3135 0.10658 0.61817 0.0
H855 H 0.29768 0.1031 0.59868 0.0
H856 H 0.31631 0.08851 0.63915 0.0
H857 H 0.30159 0.13946 0.6601 0.0
H858 H 0.28704 0.12781 0.65819 0.0
H859 H 0.29632 0.13364 0.64315 0.0
C860 C 0.27368 0.10465 0.62449 0.0
C861 C 0.27888 0.10315 0.61103 0.0
C862 C 0.28278 0.10658 0.63562 0.0
C863 C 0.29722 0.10723 0.6335 0.0
C864 C 0.30239 0.10617 0.62003 0.0
H865 H 0.36709 0.10292 0.69132 0.0
H866 H 0.35305 0.10764 0.67078 0.0
C867 C 0.29332 0.10416 0.6089 0.0
C868 C 0.30695 0.10759 0.64538 0.0
H869 H 0.31539 0.1252 0.67486 0.0
C870 C 0.31625 0.09664 0.64685 0.0
C871 C 0.3068 0.11817 0.65545 0.0
C872 C 0.2975 0.13051 0.6541 0.0
C873 C 0.32509 0.09574 0.65833 0.0
C874 C 0.32476 0.10617 0.66852 0.0
C875 C 0.31562 0.11725 0.66699 0.0
C876 C 0.3333 0.10525 0.6812 0.0
C877 C 0.33435 0.08335 0.65971 0.0
C878 C 0.32682 0.10293 0.69393 0.0
C879 C 0.33479 0.10026 0.70568 0.0
C880 C 0.34939 0.09993 0.70488 0.0
C881 C 0.35587 0.10302 0.69225 0.0
C882 C 0.34787 0.10568 0.6805 0.0
H883 H 0.33137 0.07497 0.65239 0.0
H884 H 0.34526 0.08651 0.65753 0.0
H885 H 0.33395 0.07917 0.67037 0.0
H886 H 0.31557 0.1026 0.69467 0.0
H887 H 0.32949 0.09799 0.71527 0.0
H888 H 0.8703 0.28452 0.6023 0.0
H889 H 0.86505 0.30328 0.6183 0.0
H890 H 0.86067 0.2739 0.65145 0.0
H891 H 0.86622 0.25511 0.63561 0.0
H892 H 0.84286 0.30905 0.63616 0.0
H893 H 0.89194 0.29957 0.66492 0.0
H894 H 0.88823 0.29175 0.6484 0.0
H895 H 0.88033 0.28493 0.66378 0.0
C896 C 0.86806 0.28203 0.61296 0.0
C897 C 0.86887 0.26837 0.61775 0.0
C898 C 0.86504 0.29276 0.62208 0.0
C899 C 0.86276 0.28999 0.6361 0.0
C900 C 0.8627 0.27627 0.64072 0.0
H901 H 0.86071 0.34656 0.70603 0.0
H902 H 0.85723 0.32613 0.69152 0.0
C903 C 0.86582 0.26555 0.63165 0.0
C904 C 0.86138 0.30154 0.646 0.0
H905 H 0.87759 0.3171 0.67338 0.0
C906 C 0.8504 0.3108 0.64435 0.0
C907 C 0.87128 0.30379 0.65664 0.0
C908 C 0.88368 0.29458 0.65852 0.0
C909 C 0.84907 0.32229 0.65307 0.0
C910 C 0.85908 0.32462 0.66357 0.0
C911 C 0.86988 0.31521 0.66538 0.0
C912 C 0.85919 0.3372 0.67225 0.0
C913 C 0.83697 0.33183 0.651 0.0
C914 C 0.86131 0.35021 0.6662 0.0
C915 C 0.86335 0.3619 0.67444 0.0
C916 C 0.86339 0.36078 0.68891 0.0
C917 C 0.86076 0.3478 0.69493 0.0
C918 C 0.85875 0.3361 0.68666 0.0
H919 H 0.82826 0.32661 0.64541 0.0
H920 H 0.83307 0.33571 0.66103 0.0
H921 H 0.84044 0.34083 0.64477 0.0
H922 H 0.86198 0.35124 0.6551 0.0
H923 H 0.86536 0.37172 0.66946 0.0
H924 H 0.67496 0.86955 0.6027 0.0
H925 H 0.65972 0.8684 0.62273 0.0
H926 H 0.6954 0.86613 0.64962 0.0
H927 H 0.71088 0.86726 0.62956 0.0
H928 H 0.67048 0.84724 0.65569 0.0
H929 H 0.65852 0.90285 0.64966 0.0
H930 H 0.65692 0.89277 0.63414 0.0
H931 H 0.67369 0.8951 0.64211 0.0
C932 C 0.67962 0.86865 0.61283 0.0
C933 C 0.69416 0.86865 0.61452 0.0
C934 C 0.67088 0.86801 0.62427 0.0
C935 C 0.67648 0.86736 0.63761 0.0
C936 C 0.69093 0.86667 0.63937 0.0
H937 H 0.62857 0.87033 0.71489 0.0
H938 H 0.64801 0.86744 0.69886 0.0
C939 C 0.69973 0.86733 0.6279 0.0
C940 C 0.66712 0.86829 0.64961 0.0
H941 H 0.6439 0.88984 0.66467 0.0
C942 C 0.66479 0.85658 0.65784 0.0
C943 C 0.65983 0.88055 0.65237 0.0
C944 C 0.66242 0.89359 0.6442 0.0
C945 C 0.65474 0.85662 0.66834 0.0
C946 C 0.64702 0.86871 0.67066 0.0
C947 C 0.64979 0.88057 0.66279 0.0
C948 C 0.63532 0.86914 0.68049 0.0
C949 C 0.65198 0.84362 0.67649 0.0
C950 C 0.6218 0.87101 0.67544 0.0
C951 C 0.61074 0.8727 0.6845 0.0
C952 C 0.61296 0.87265 0.69885 0.0
C953 C 0.62649 0.87041 0.70391 0.0
C954 C 0.6376 0.8687 0.69478 0.0
H955 H 0.65755 0.83462 0.67219 0.0
H956 H 0.65545 0.84521 0.68731 0.0
H957 H 0.64065 0.84119 0.67666 0.0
H958 H 0.61986 0.8714 0.66443 0.0
H959 H 0.60047 0.87435 0.68022 0.0
H960 H 0.34382 0.10525 0.25915 0.0
H961 H 0.32434 0.10955 0.27473 0.0
H962 H 0.35175 0.10543 0.30974 0.0
H963 H 0.37123 0.10128 0.29436 0.0
H964 H 0.31465 0.09111 0.29447 0.0
H965 H 0.3306 0.1404 0.31911 0.0
H966 H 0.33822 0.13435 0.30324 0.0
H967 H 0.34414 0.12785 0.3196 0.0
C968 C 0.34575 0.10546 0.27016 0.0
C969 C 0.35909 0.1029 0.27551 0.0
C970 C 0.33461 0.10793 0.27903 0.0
C971 C 0.33666 0.10803 0.29337 0.0
C972 C 0.35001 0.10573 0.2987 0.0
H973 H 0.29561 0.0991 0.36928 0.0
H974 H 0.31102 0.10322 0.34973 0.0
C975 C 0.36112 0.10323 0.28987 0.0
C976 C 0.32475 0.10924 0.30289 0.0
H977 H 0.3139 0.12641 0.33156 0.0
C978 C 0.31429 0.09899 0.30241 0.0
C979 C 0.32433 0.11955 0.3132 0.0
C980 C 0.33486 0.13124 0.31375 0.0
C981 C 0.30391 0.09825 0.31253 0.0
C982 C 0.30392 0.10816 0.32325 0.0
C983 C 0.31397 0.1188 0.32334 0.0
C984 C 0.2944 0.10686 0.33514 0.0
C985 C 0.29352 0.08642 0.31213 0.0
C986 C 0.27995 0.10787 0.33346 0.0
C987 C 0.27107 0.10548 0.34463 0.0
C988 C 0.27653 0.10209 0.35767 0.0
C989 C 0.29105 0.10161 0.35938 0.0
C990 C 0.29988 0.104 0.34823 0.0
H991 H 0.29641 0.07839 0.30451 0.0
H992 H 0.29259 0.08153 0.32245 0.0
H993 H 0.28315 0.0904 0.30923 0.0
H994 H 0.27555 0.11027 0.32346 0.0
H995 H 0.25995 0.10602 0.34297 0.0
H996 H 0.86111 0.26048 0.33414 0.0
H997 H 0.85681 0.27941 0.3182 0.0
H998 H 0.85418 0.30774 0.3524 0.0
H999 H 0.85882 0.28883 0.36849 0.0
H1000 H 0.83609 0.29896 0.31466 0.0
H1001 H 0.8866 0.32343 0.32999 0.0
H1002 H 0.88175 0.30616 0.33517 0.0
H1003 H 0.87426 0.32078 0.34363 0.0
C1004 C 0.85942 0.27069 0.33832 0.0
C1005 C 0.86052 0.27319 0.35258 0.0
C1006 C 0.85693 0.2815 0.32918 0.0
C1007 C 0.85546 0.29502 0.3341 0.0
C1008 C 0.85558 0.29742 0.34839 0.0
H1009 H 0.86375 0.36876 0.2822 0.0
H1010 H 0.85724 0.35414 0.30181 0.0
C1011 C 0.85815 0.28659 0.35756 0.0
C1012 C 0.855 0.30659 0.32411 0.0
H1013 H 0.87436 0.33375 0.31194 0.0
C1014 C 0.84435 0.30669 0.31416 0.0
C1015 C 0.86581 0.31665 0.32347 0.0
C1016 C 0.87783 0.31676 0.33355 0.0
C1017 C 0.84443 0.31634 0.30337 0.0
C1018 C 0.85555 0.32602 0.30242 0.0
C1019 C 0.86584 0.32632 0.31272 0.0
C1020 C 0.85751 0.33505 0.29023 0.0
C1021 C 0.83275 0.31598 0.29295 0.0
C1022 C 0.85971 0.32916 0.27721 0.0
C1023 C 0.86348 0.33745 0.26601 0.0
C1024 C 0.86518 0.3518 0.26765 0.0
C1025 C 0.8625 0.35774 0.2806 0.0
C1026 C 0.85878 0.34941 0.29181 0.0
H1027 H 0.82316 0.31123 0.29735 0.0
H1028 H 0.83034 0.32651 0.2892 0.0
H1029 H 0.8359 0.30964 0.28397 0.0
H1030 H 0.85911 0.31807 0.27582 0.0
H1031 H 0.86549 0.33256 0.25618 0.0
H1032 H 0.67225 0.86699 0.37014 0.0
H1033 H 0.65689 0.86412 0.35029 0.0
H1034 H 0.69241 0.86252 0.32333 0.0
H1035 H 0.70798 0.86554 0.34321 0.0
H1036 H 0.67258 0.88133 0.31502 0.0
H1037 H 0.6476 0.83079 0.32612 0.0
H1038 H 0.64699 0.84225 0.34064 0.0
H1039 H 0.66354 0.83646 0.33441 0.0
C1040 C 0.67685 0.86584 0.36003 0.0
C1041 C 0.69136 0.86652 0.35827 0.0
C1042 C 0.66803 0.86409 0.34869 0.0
C1043 C 0.67352 0.86289 0.33536 0.0
C1044 C 0.68799 0.8633 0.33356 0.0
H1045 H 0.62327 0.86792 0.25916 0.0
H1046 H 0.64313 0.8637 0.27444 0.0
C1047 C 0.69686 0.86502 0.34493 0.0
C1048 C 0.66399 0.86246 0.32334 0.0
H1049 H 0.63504 0.84586 0.31082 0.0
C1050 C 0.66455 0.87342 0.31389 0.0
C1051 C 0.65357 0.8521 0.32189 0.0
C1052 C 0.65296 0.83966 0.33123 0.0
C1053 C 0.65439 0.87479 0.30358 0.0
C1054 C 0.64352 0.86484 0.30264 0.0
C1055 C 0.64336 0.85351 0.31164 0.0
C1056 C 0.63155 0.86671 0.29326 0.0
C1057 C 0.65487 0.88726 0.29426 0.0
C1058 C 0.61846 0.86952 0.29883 0.0
C1059 C 0.60713 0.87195 0.29018 0.0
C1060 C 0.60865 0.87151 0.27577 0.0
C1061 C 0.62175 0.86837 0.27021 0.0
C1062 C 0.63311 0.866 0.2789 0.0
H1063 H 0.6629 0.89495 0.29756 0.0
H1064 H 0.6573 0.88393 0.28359 0.0
H1065 H 0.6446 0.89235 0.29403 0.0
H1066 H 0.61706 0.87009 0.3099 0.0
H1067 H 0.5972 0.87427 0.29483 0.0
H1068 H 0.10938 0.63811 0.25465 0.0
H1069 H 0.11498 0.65367 0.27376 0.0
H1070 H 0.1101 0.62001 0.3025 0.0
H1071 H 0.10471 0.60427 0.28339 0.0
H1072 H 0.09528 0.65814 0.29376 0.0
H1073 H 0.14451 0.64058 0.31772 0.0
H1074 H 0.1393 0.63569 0.30045 0.0
H1075 H 0.13155 0.62727 0.31509 0.0
C1076 C 0.10983 0.63393 0.265 0.0
C1077 C 0.10649 0.61999 0.26753 0.0
C1078 C 0.11306 0.64284 0.27591 0.0
C1079 C 0.11303 0.63799 0.28954 0.0
C1080 C 0.11044 0.62392 0.29205 0.0
H1081 H 0.10376 0.6807 0.36746 0.0
H1082 H 0.10838 0.66311 0.34991 0.0
C1083 C 0.10728 0.61496 0.28111 0.0
C1084 C 0.11368 0.64801 0.30107 0.0
H1085 H 0.13163 0.65733 0.3302 0.0
C1086 C 0.1033 0.65803 0.30166 0.0
C1087 C 0.12404 0.64769 0.31146 0.0
C1088 C 0.13556 0.63731 0.31115 0.0
C1089 C 0.10294 0.66771 0.31235 0.0
C1090 C 0.11339 0.66755 0.32265 0.0
C1091 C 0.12371 0.65746 0.32221 0.0
C1092 C 0.11347 0.67786 0.3339 0.0
C1093 C 0.09121 0.67792 0.31269 0.0
C1094 C 0.11543 0.69189 0.33083 0.0
C1095 C 0.1127 0.70192 0.34075 0.0
C1096 C 0.10808 0.69807 0.35396 0.0
C1097 C 0.10726 0.68397 0.35736 0.0
C1098 C 0.10991 0.67392 0.34737 0.0
H1099 H 0.08242 0.67469 0.30588 0.0
H1100 H 0.08722 0.67919 0.32334 0.0
H1101 H 0.09511 0.68813 0.30908 0.0
H1102 H 0.11832 0.6951 0.32051 0.0
H1103 H 0.11357 0.7127 0.33786 0.0
H1104 H 0.34271 0.86141 0.70756 0.0
H1105 H 0.32282 0.85783 0.69211 0.0
H1106 H 0.34963 0.86321 0.6569 0.0
H1107 H 0.36959 0.86666 0.6722 0.0
H1108 H 0.31407 0.87789 0.6737 0.0
H1109 H 0.32596 0.82945 0.64589 0.0
H1110 H 0.33442 0.83431 0.66187 0.0
H1111 H 0.34 0.84189 0.64586 0.0
C1112 C 0.34444 0.86158 0.69653 0.0
C1113 C 0.35775 0.86439 0.69113 0.0
C1114 C 0.33306 0.85952 0.68772 0.0
C1115 C 0.33478 0.8601 0.67336 0.0
C1116 C 0.34811 0.86243 0.66794 0.0
H1117 H 0.28331 0.87054 0.60169 0.0
H1118 H 0.30206 0.86573 0.61808 0.0
C1119 C 0.3595 0.86451 0.67672 0.0
C1120 C 0.32249 0.8598 0.66411 0.0
H1121 H 0.30822 0.84353 0.63606 0.0
C1122 C 0.31267 0.87026 0.66559 0.0
C1123 C 0.3208 0.84991 0.65348 0.0
C1124 C 0.33078 0.83817 0.65172 0.0
C1125 C 0.30143 0.8714 0.65644 0.0
C1126 C 0.29979 0.8616 0.6457 0.0
C1127 C 0.30949 0.85099 0.64433 0.0
C1128 C 0.28836 0.86264 0.6355 0.0
C1129 C 0.29173 0.88342 0.65804 0.0
C1130 C 0.27444 0.86197 0.63977 0.0
C1131 C 0.26373 0.86482 0.63048 0.0
C1132 C 0.26675 0.86822 0.6167 0.0
C1133 C 0.28065 0.868 0.61224 0.0
C1134 C 0.29137 0.86524 0.62158 0.0
H1135 H 0.29631 0.89171 0.66464 0.0
H1136 H 0.28907 0.88791 0.64785 0.0
H1137 H 0.28194 0.87976 0.66296 0.0
H1138 H 0.27189 0.85969 0.65041 0.0
H1139 H 0.25311 0.86476 0.63419 0.0
H1140 H 0.10052 0.36647 0.68376 0.0
H1141 H 0.10598 0.35046 0.66508 0.0
H1142 H 0.11 0.31741 0.69453 0.0
H1143 H 0.10422 0.33326 0.71324 0.0
H1144 H 0.1281 0.33274 0.65924 0.0
H1145 H 0.07886 0.30361 0.66908 0.0
H1146 H 0.08259 0.32018 0.67685 0.0
H1147 H 0.09044 0.30485 0.68361 0.0
C1148 C 0.10274 0.35584 0.68628 0.0
C1149 C 0.10174 0.35107 0.69994 0.0
C1150 C 0.10588 0.34671 0.6756 0.0
C1151 C 0.10811 0.3327 0.6784 0.0
C1152 C 0.10801 0.32812 0.69212 0.0
H1153 H 0.1097 0.26291 0.62159 0.0
H1154 H 0.11337 0.27733 0.64203 0.0
C1155 C 0.10476 0.3372 0.7028 0.0
C1156 C 0.10951 0.32277 0.66689 0.0
H1157 H 0.09316 0.29534 0.65138 0.0
C1158 C 0.12052 0.32451 0.65754 0.0
C1159 C 0.09956 0.31207 0.66469 0.0
C1160 C 0.08712 0.31009 0.674 0.0
C1161 C 0.12182 0.31583 0.64601 0.0
C1162 C 0.11174 0.3053 0.64372 0.0
C1163 C 0.10092 0.30338 0.65323 0.0
C1164 C 0.11156 0.29669 0.6311 0.0
C1165 C 0.13393 0.31801 0.63637 0.0
C1166 C 0.10947 0.30281 0.61817 0.0
C1167 C 0.10733 0.29461 0.60647 0.0
C1168 C 0.10714 0.28012 0.60751 0.0
C1169 C 0.10976 0.27403 0.62041 0.0
C1170 C 0.11187 0.28225 0.63211 0.0
H1171 H 0.14268 0.32361 0.64153 0.0
H1172 H 0.13776 0.308 0.6324 0.0
H1173 H 0.13052 0.32429 0.62745 0.0
H1174 H 0.1089 0.31393 0.61721 0.0
H1175 H 0.10534 0.29965 0.59671 0.0
H1176 H 0.71276 0.09851 0.6386 0.0
H1177 H 0.69275 0.10237 0.65358 0.0
H1178 H 0.66649 0.10738 0.61785 0.0
H1179 H 0.6864 0.10342 0.60277 0.0
H1180 H 0.67225 0.12448 0.6554 0.0
H1181 H 0.64992 0.07365 0.63921 0.0
H1182 H 0.66782 0.07852 0.63603 0.0
H1183 H 0.65419 0.08541 0.62548 0.0
C1184 C 0.70277 0.10063 0.63392 0.0
C1185 C 0.70112 0.10049 0.6195 0.0
C1186 C 0.69137 0.10287 0.6425 0.0
C1187 C 0.67814 0.10496 0.6368 0.0
C1188 C 0.6766 0.1056 0.62242 0.0
H1189 H 0.59601 0.10058 0.67326 0.0
H1190 H 0.61552 0.10454 0.65764 0.0
C1191 C 0.688 0.10337 0.61383 0.0
C1192 C 0.66581 0.10533 0.64587 0.0
H1193 H 0.63671 0.08682 0.65459 0.0
C1194 C 0.66443 0.11629 0.65522 0.0
C1195 C 0.6557 0.09459 0.64562 0.0
C1196 C 0.65697 0.0823 0.63614 0.0
C1197 C 0.65304 0.11686 0.66426 0.0
C1198 C 0.64299 0.10604 0.66409 0.0
C1199 C 0.64438 0.09515 0.65466 0.0
C1200 C 0.6311 0.10547 0.67378 0.0
C1201 C 0.65179 0.12912 0.67377 0.0
C1202 C 0.63336 0.10485 0.68807 0.0
C1203 C 0.62219 0.10265 0.69707 0.0
C1204 C 0.6086 0.10084 0.69189 0.0
C1205 C 0.60635 0.10186 0.67759 0.0
C1206 C 0.61748 0.10415 0.66864 0.0
H1207 H 0.65778 0.1382 0.66987 0.0
H1208 H 0.64075 0.13207 0.67507 0.0
H1209 H 0.65605 0.12641 0.68405 0.0
H1210 H 0.6438 0.10552 0.69225 0.0
H1211 H 0.6243 0.10186 0.70802 0.0
H1212 H 0.86171 0.67224 0.5954 0.0
H1213 H 0.85782 0.65665 0.61482 0.0
H1214 H 0.85934 0.69124 0.64285 0.0
H1215 H 0.86295 0.70697 0.62346 0.0
H1216 H 0.87657 0.65329 0.63537 0.0
H1217 H 0.82628 0.66935 0.65758 0.0
H1218 H 0.83183 0.67443 0.64052 0.0
H1219 H 0.83846 0.68341 0.65546 0.0
C1220 C 0.86097 0.67658 0.60567 0.0
C1221 C 0.86271 0.69086 0.60788 0.0
C1222 C 0.85872 0.66764 0.61675 0.0
C1223 C 0.85815 0.67278 0.63027 0.0
C1224 C 0.85943 0.68707 0.63249 0.0
H1225 H 0.86839 0.63954 0.71142 0.0
H1226 H 0.86349 0.65378 0.69122 0.0
C1227 C 0.86159 0.69605 0.62139 0.0
C1228 C 0.85779 0.66308 0.64208 0.0
H1229 H 0.8405 0.65496 0.67177 0.0
C1230 C 0.86857 0.65352 0.64322 0.0
C1231 C 0.8474 0.66348 0.65236 0.0
C1232 C 0.83526 0.67313 0.65138 0.0
C1233 C 0.86948 0.64462 0.65456 0.0
C1234 C 0.85921 0.64515 0.66494 0.0
C1235 C 0.84832 0.65457 0.66375 0.0
C1236 C 0.86015 0.63646 0.67744 0.0
C1237 C 0.88173 0.63509 0.6556 0.0
C1238 C 0.8594 0.62202 0.67646 0.0
C1239 C 0.86224 0.61384 0.68797 0.0
C1240 C 0.86582 0.62 0.70066 0.0
C1241 C 0.86574 0.63448 0.70178 0.0
C1242 C 0.86291 0.64264 0.69026 0.0
H1243 H 0.89013 0.63795 0.64824 0.0
H1244 H 0.88613 0.63517 0.6662 0.0
H1245 H 0.87823 0.62438 0.6532 0.0
H1246 H 0.85709 0.61708 0.66667 0.0
H1247 H 0.86213 0.60272 0.6868 0.0
H1248 H 0.28315 0.36346 0.10155 0.0
H1249 H 0.30183 0.34673 0.10467 0.0
H1250 H 0.27137 0.31495 0.11375 0.0
H1251 H 0.2527 0.33147 0.1105 0.0
H1252 H 0.30939 0.32612 0.12667 0.0
H1253 H 0.29118 0.30342 0.077 0.0
H1254 H 0.28617 0.32037 0.08269 0.0
H1255 H 0.27793 0.30526 0.08987 0.0
C1256 C 0.28046 0.35299 0.10454 0.0
C1257 C 0.26645 0.34872 0.10557 0.0
C1258 C 0.29114 0.34346 0.10633 0.0
C1259 C 0.28792 0.3296 0.10923 0.0
C1260 C 0.27402 0.32559 0.11135 0.0
H1261 H 0.32913 0.25195 0.10278 0.0
H1262 H 0.31343 0.27073 0.10832 0.0
C1263 C 0.26337 0.33504 0.10949 0.0
C1264 C 0.29878 0.31897 0.10837 0.0
H1265 H 0.30847 0.29129 0.08909 0.0
C1266 C 0.30927 0.31851 0.11846 0.0
C1267 C 0.29861 0.30917 0.09755 0.0
C1268 C 0.28796 0.30959 0.08608 0.0
C1269 C 0.31939 0.30814 0.11822 0.0
C1270 C 0.319 0.29818 0.10754 0.0
C1271 C 0.30865 0.29885 0.09735 0.0
C1272 C 0.32914 0.28685 0.10654 0.0
C1273 C 0.33017 0.30771 0.12953 0.0
C1274 C 0.34326 0.28966 0.10399 0.0
C1275 C 0.3523 0.27891 0.10084 0.0
C1276 C 0.3473 0.26521 0.10005 0.0
C1277 C 0.33329 0.2624 0.10323 0.0
C1278 C 0.32431 0.27311 0.10643 0.0
H1279 H 0.32715 0.31404 0.13857 0.0
H1280 H 0.33187 0.29693 0.13297 0.0
H1281 H 0.34019 0.31186 0.12553 0.0
H1282 H 0.34715 0.30021 0.10376 0.0
H1283 H 0.36303 0.2814 0.09839 0.0
H1284 H 0.34334 0.71405 0.87097 0.0
H1285 H 0.32446 0.69722 0.867 0.0
H1286 H 0.35242 0.664 0.8761 0.0
H1287 H 0.37132 0.68062 0.87995 0.0
H1288 H 0.33541 0.65981 0.85211 0.0
H1289 H 0.30492 0.67526 0.89826 0.0
H1290 H 0.30961 0.68869 0.88628 0.0
H1291 H 0.32293 0.68028 0.89603 0.0
C1292 C 0.34548 0.70316 0.87209 0.0
C1293 C 0.35883 0.6987 0.87586 0.0
C1294 C 0.33467 0.69358 0.86986 0.0
C1295 C 0.33704 0.6794 0.8714 0.0
C1296 C 0.35039 0.67491 0.87487 0.0
H1297 H 0.2994 0.60027 0.87564 0.0
H1298 H 0.31423 0.62063 0.87245 0.0
C1299 C 0.36117 0.68445 0.87711 0.0
C1300 C 0.32565 0.6691 0.86972 0.0
H1301 H 0.29643 0.65639 0.8854 0.0
C1302 C 0.32679 0.65914 0.85928 0.0
C1303 C 0.31439 0.66833 0.87904 0.0
C1304 C 0.31285 0.67863 0.89061 0.0
C1305 C 0.31718 0.64815 0.85818 0.0
C1306 C 0.30632 0.64699 0.86793 0.0
C1307 C 0.3048 0.65731 0.87796 0.0
C1308 C 0.29723 0.63456 0.86872 0.0
C1309 C 0.31885 0.63778 0.84671 0.0
C1310 C 0.28271 0.63567 0.86786 0.0
C1311 C 0.27416 0.62402 0.86975 0.0
C1312 C 0.27999 0.6111 0.8727 0.0
C1313 C 0.29455 0.61003 0.87336 0.0
C1314 C 0.30307 0.62165 0.87143 0.0
H1315 H 0.32455 0.64235 0.83782 0.0
H1316 H 0.32497 0.62895 0.85057 0.0
H1317 H 0.3086 0.63378 0.84305 0.0
H1318 H 0.27801 0.64558 0.86589 0.0
H1319 H 0.26298 0.62522 0.86921 0.0
H1320 H 0.25724 0.33213 0.86531 0.0
H1321 H 0.27781 0.31823 0.86095 0.0
H1322 H 0.30316 0.35525 0.85883 0.0
H1323 H 0.28266 0.36927 0.8633 0.0
H1324 H 0.29912 0.31842 0.83953 0.0
H1325 H 0.31909 0.33271 0.89166 0.0
H1326 H 0.30131 0.33556 0.88648 0.0
H1327 H 0.31497 0.34684 0.88044 0.0
C1328 C 0.26715 0.33734 0.86369 0.0
C1329 C 0.26837 0.35179 0.86482 0.0
C1330 C 0.27887 0.32938 0.86117 0.0
C1331 C 0.292 0.33572 0.85979 0.0
C1332 C 0.29312 0.35018 0.86006 0.0
H1333 H 0.37386 0.29913 0.86586 0.0
H1334 H 0.35501 0.31524 0.86165 0.0
C1335 C 0.2814 0.35816 0.86257 0.0
C1336 C 0.30458 0.32714 0.85928 0.0
H1337 H 0.33282 0.31796 0.87839 0.0
C1338 C 0.30656 0.31836 0.84796 0.0
C1339 C 0.31421 0.32708 0.87034 0.0
C1340 C 0.3123 0.33596 0.88299 0.0
C1341 C 0.31799 0.30948 0.84741 0.0
C1342 C 0.32746 0.30924 0.8586 0.0
C1343 C 0.32557 0.3182 0.86979 0.0
C1344 C 0.33909 0.29938 0.85934 0.0
C1345 C 0.31984 0.30054 0.83482 0.0
C1346 C 0.33643 0.28509 0.8593 0.0
C1347 C 0.3472 0.27583 0.86165 0.0
C1348 C 0.36081 0.28071 0.86426 0.0
C1349 C 0.3635 0.29502 0.86393 0.0
C1350 C 0.35274 0.30425 0.86151 0.0
H1351 H 0.31451 0.30493 0.82568 0.0
H1352 H 0.33103 0.29928 0.83236 0.0
H1353 H 0.31522 0.29017 0.83681 0.0
H1354 H 0.32592 0.2811 0.85799 0.0
H1355 H 0.34475 0.26488 0.8619 0.0
H1356 H 0.6011 0.29117 0.87752 0.0
H1357 H 0.62061 0.30738 0.87551 0.0
H1358 H 0.64869 0.27354 0.86994 0.0
H1359 H 0.62914 0.2571 0.87189 0.0
H1360 H 0.64453 0.30647 0.894 0.0
H1361 H 0.65862 0.30198 0.83847 0.0
H1362 H 0.64161 0.29704 0.8448 0.0
H1363 H 0.65627 0.28633 0.84826 0.0
C1364 C 0.61138 0.28712 0.87573 0.0
C1365 C 0.61355 0.27281 0.87493 0.0
C1366 C 0.62251 0.29642 0.87457 0.0
C1367 C 0.63603 0.29164 0.87251 0.0
C1368 C 0.63828 0.27741 0.87136 0.0
H1369 H 0.71147 0.34436 0.87161 0.0
H1370 H 0.69611 0.32394 0.86999 0.0
C1371 C 0.62711 0.26805 0.87254 0.0
C1372 C 0.64778 0.30166 0.87258 0.0
H1373 H 0.67138 0.31813 0.85186 0.0
C1374 C 0.65049 0.30894 0.88482 0.0
C1375 C 0.65559 0.30472 0.86062 0.0
C1376 C 0.65291 0.29719 0.84723 0.0
C1377 C 0.66054 0.31953 0.88533 0.0
C1378 C 0.66789 0.32307 0.8732 0.0
C1379 C 0.66564 0.3154 0.86109 0.0
C1380 C 0.67716 0.33536 0.87282 0.0
C1381 C 0.66307 0.32702 0.89878 0.0
C1382 C 0.67151 0.34849 0.87454 0.0
C1383 C 0.68018 0.36011 0.87549 0.0
C1384 C 0.69471 0.35883 0.87468 0.0
C1385 C 0.70033 0.34569 0.87233 0.0
C1386 C 0.69159 0.33403 0.87139 0.0
H1387 H 0.65938 0.32084 0.90774 0.0
H1388 H 0.6743 0.32949 0.90021 0.0
H1389 H 0.65731 0.33687 0.89869 0.0
H1390 H 0.66037 0.34972 0.87548 0.0
H1391 H 0.67548 0.37007 0.87717 0.0
H1392 H 0.71319 0.63848 0.8674 0.0
H1393 H 0.69313 0.65307 0.86296 0.0
H1394 H 0.6668 0.61684 0.85917 0.0
H1395 H 0.68679 0.60213 0.86379 0.0
H1396 H 0.67268 0.65451 0.84133 0.0
H1397 H 0.65035 0.63858 0.89184 0.0
H1398 H 0.66812 0.63517 0.88716 0.0
H1399 H 0.65418 0.62474 0.88017 0.0
C1400 C 0.70317 0.63359 0.86542 0.0
C1401 C 0.70153 0.61916 0.86613 0.0
C1402 C 0.69174 0.64195 0.86285 0.0
C1403 C 0.67847 0.63603 0.86098 0.0
C1404 C 0.67694 0.6216 0.86082 0.0
H1405 H 0.59729 0.67407 0.86449 0.0
H1406 H 0.6161 0.65791 0.86049 0.0
C1407 C 0.68837 0.61322 0.86341 0.0
C1408 C 0.66616 0.645 0.86035 0.0
H1409 H 0.6374 0.65409 0.87855 0.0
C1410 C 0.6649 0.65439 0.8494 0.0
C1411 C 0.6561 0.64485 0.87096 0.0
C1412 C 0.65724 0.63539 0.88327 0.0
C1413 C 0.65376 0.66361 0.84877 0.0
C1414 C 0.64382 0.66357 0.85949 0.0
C1415 C 0.645 0.65405 0.87031 0.0
C1416 C 0.63234 0.6736 0.86009 0.0
C1417 C 0.65269 0.67323 0.8366 0.0
C1418 C 0.6352 0.68783 0.86105 0.0
C1419 C 0.62445 0.69713 0.8633 0.0
C1420 C 0.61065 0.69234 0.86481 0.0
C1421 C 0.60779 0.67811 0.86345 0.0
C1422 C 0.61853 0.66885 0.86113 0.0
H1423 H 0.65848 0.66927 0.82755 0.0
H1424 H 0.64167 0.67475 0.83356 0.0
H1425 H 0.65726 0.68343 0.83943 0.0
H1426 H 0.64582 0.6917 0.86059 0.0
H1427 H 0.62702 0.708 0.86436 0.0
H1428 H 0.60509 0.68746 0.1014 0.0
H1429 H 0.62107 0.66877 0.10687 0.0
H1430 H 0.65476 0.69839 0.11103 0.0
H1431 H 0.63896 0.71706 0.10535 0.0
H1432 H 0.65976 0.67787 0.09213 0.0
H1433 H 0.6413 0.65507 0.14146 0.0
H1434 H 0.62812 0.65695 0.12843 0.0
H1435 H 0.63632 0.67206 0.13575 0.0
C1436 C 0.61584 0.69002 0.10378 0.0
C1437 C 0.6208 0.70372 0.10283 0.0
C1438 C 0.62494 0.67933 0.10699 0.0
C1439 C 0.63908 0.68221 0.10946 0.0
C1440 C 0.64387 0.69596 0.1092 0.0
H1441 H 0.71492 0.63604 0.1126 0.0
H1442 H 0.69677 0.65303 0.11633 0.0
C1443 C 0.63483 0.70661 0.10592 0.0
C1444 C 0.64924 0.6709 0.11047 0.0
H1445 H 0.6586 0.64263 0.12925 0.0
C1446 C 0.65956 0.67023 0.10031 0.0
C1447 C 0.64882 0.66085 0.12105 0.0
C1448 C 0.63812 0.66128 0.13237 0.0
C1449 C 0.66946 0.65979 0.10039 0.0
C1450 C 0.6692 0.64985 0.11106 0.0
C1451 C 0.65879 0.65035 0.12115 0.0
C1452 C 0.67976 0.63892 0.11164 0.0
C1453 C 0.68003 0.65936 0.08891 0.0
C1454 C 0.67611 0.6252 0.10849 0.0
C1455 C 0.68647 0.61542 0.10641 0.0
C1456 C 0.7006 0.61928 0.10742 0.0
C1457 C 0.70413 0.63279 0.1116 0.0
C1458 C 0.69379 0.64251 0.11375 0.0
H1459 H 0.67691 0.66578 0.07996 0.0
H1460 H 0.69018 0.66339 0.0928 0.0
H1461 H 0.68155 0.6486 0.0853 0.0
H1462 H 0.66531 0.62227 0.10685 0.0
H1463 H 0.68344 0.60508 0.10323 0.0
H1464 H 0.36927 0.67294 0.09464 0.0
H1465 H 0.34915 0.65791 0.09867 0.0
H1466 H 0.32393 0.69339 0.10703 0.0
H1467 H 0.34406 0.70865 0.1029 0.0
H1468 H 0.33135 0.6555 0.12254 0.0
H1469 H 0.30341 0.67259 0.07519 0.0
H1470 H 0.32173 0.67608 0.07782 0.0
H1471 H 0.30906 0.6857 0.0872 0.0
C1472 C 0.35948 0.6776 0.09739 0.0
C1473 C 0.35826 0.69202 0.09833 0.0
C1474 C 0.348 0.66897 0.09974 0.0
C1475 C 0.33506 0.67456 0.10301 0.0
C1476 C 0.33382 0.68891 0.10435 0.0
H1477 H 0.25841 0.62385 0.10124 0.0
H1478 H 0.27387 0.64371 0.10571 0.0
C1479 C 0.34534 0.69759 0.10203 0.0
C1480 C 0.32287 0.6652 0.10446 0.0
H1481 H 0.29365 0.65404 0.08748 0.0
C1482 C 0.32298 0.6553 0.11501 0.0
C1483 C 0.31193 0.66504 0.09467 0.0
C1484 C 0.31146 0.67534 0.08301 0.0
C1485 C 0.31274 0.64487 0.1157 0.0
C1486 C 0.30229 0.64421 0.10541 0.0
C1487 C 0.30171 0.65457 0.09533 0.0
C1488 C 0.29283 0.63209 0.104 0.0
C1489 C 0.31336 0.63448 0.12726 0.0
C1490 C 0.2984 0.61902 0.10151 0.0
C1491 C 0.28965 0.6077 0.09892 0.0
C1492 C 0.27513 0.60923 0.09867 0.0
C1493 C 0.26955 0.62231 0.10139 0.0
C1494 C 0.27835 0.63367 0.10395 0.0
H1495 H 0.31872 0.63889 0.13646 0.0
H1496 H 0.30279 0.63089 0.13029 0.0
H1497 H 0.31934 0.62541 0.12379 0.0
H1498 H 0.30955 0.61765 0.10117 0.0
H1499 H 0.29431 0.5978 0.09684 0.0
H1500 H 0.70845 0.34299 0.1017 0.0
H1501 H 0.69303 0.32307 0.10597 0.0
H1502 H 0.65733 0.34812 0.0973 0.0
H1503 H 0.67253 0.36803 0.09312 0.0
H1504 H 0.655 0.33075 0.12148 0.0
H1505 H 0.67182 0.30237 0.07448 0.0
H1506 H 0.68513 0.30811 0.08633 0.0
H1507 H 0.67537 0.32057 0.07682 0.0
C1508 C 0.69731 0.34427 0.10077 0.0
C1509 C 0.69173 0.35709 0.09697 0.0
C1510 C 0.68854 0.33288 0.10317 0.0
C1511 C 0.67408 0.33413 0.10181 0.0
C1512 C 0.66848 0.34696 0.09839 0.0
H1513 H 0.59675 0.29317 0.09697 0.0
H1514 H 0.61668 0.30853 0.10081 0.0
C1515 C 0.6772 0.35832 0.09596 0.0
C1516 C 0.66462 0.32207 0.10348 0.0
H1517 H 0.65331 0.29278 0.0871 0.0
C1518 C 0.65474 0.32233 0.11409 0.0
C1519 C 0.6644 0.31108 0.09388 0.0
C1520 C 0.67467 0.31045 0.08216 0.0
C1521 C 0.64428 0.31214 0.11504 0.0
C1522 C 0.64355 0.30159 0.10495 0.0
C1523 C 0.65389 0.30091 0.0948 0.0
C1524 C 0.6314 0.2921 0.10384 0.0
C1525 C 0.63393 0.3129 0.12667 0.0
C1526 C 0.63309 0.27774 0.10407 0.0
C1527 C 0.62168 0.26888 0.10179 0.0
C1528 C 0.60843 0.27426 0.09908 0.0
C1529 C 0.60678 0.28866 0.09904 0.0
C1530 C 0.61815 0.29748 0.10136 0.0
H1531 H 0.63843 0.31841 0.13573 0.0
H1532 H 0.62471 0.3187 0.12316 0.0
H1533 H 0.63042 0.30243 0.12995 0.0
H1534 H 0.64327 0.2734 0.10584 0.0
H1535 H 0.62332 0.25783 0.10186 0.0
H1536 H 0.60843 0.83608 0.76217 0.0
H1537 H 0.61411 0.82079 0.78127 0.0
H1538 H 0.61611 0.85567 0.80893 0.0
H1539 H 0.61012 0.8711 0.78984 0.0
H1540 H 0.63591 0.8192 0.80051 0.0
H1541 H 0.58539 0.83125 0.82551 0.0
H1542 H 0.58931 0.83639 0.80806 0.0
H1543 H 0.59692 0.84565 0.82233 0.0
C1544 C 0.61025 0.84056 0.77226 0.0
C1545 C 0.60862 0.85479 0.77453 0.0
C1546 C 0.61355 0.8318 0.78317 0.0
C1547 C 0.61529 0.83706 0.79655 0.0
C1548 C 0.61455 0.85137 0.79871 0.0
H1549 H 0.60989 0.78399 0.86961 0.0
H1550 H 0.61604 0.80427 0.85571 0.0
C1551 C 0.61119 0.86017 0.78779 0.0
C1552 C 0.6167 0.82732 0.80823 0.0
H1553 H 0.59868 0.81387 0.83548 0.0
C1554 C 0.62789 0.81816 0.80829 0.0
C1555 C 0.60622 0.826 0.8184 0.0
C1556 C 0.59372 0.83525 0.8186 0.0
C1557 C 0.62862 0.80739 0.81794 0.0
C1558 C 0.61777 0.80565 0.82763 0.0
C1559 C 0.607 0.81525 0.82805 0.0
C1560 C 0.61644 0.79314 0.83636 0.0
C1561 C 0.64083 0.79781 0.8175 0.0
C1562 C 0.61483 0.78014 0.83011 0.0
C1563 C 0.61128 0.76857 0.838 0.0
C1564 C 0.6092 0.76979 0.85229 0.0
C1565 C 0.61144 0.7827 0.85863 0.0
C1566 C 0.61496 0.7943 0.85071 0.0
H1567 H 0.65015 0.80302 0.81304 0.0
H1568 H 0.64348 0.79394 0.82794 0.0
H1569 H 0.63817 0.78881 0.81084 0.0
H1570 H 0.6156 0.77904 0.81903 0.0
H1571 H 0.60961 0.75878 0.8328 0.0
H1572 H 0.2197 0.60387 0.8332 0.0
H1573 H 0.20134 0.60819 0.81633 0.0
H1574 H 0.17043 0.60389 0.84825 0.0
H1575 H 0.18876 0.59985 0.86525 0.0
H1576 H 0.1816 0.58908 0.81003 0.0
H1577 H 0.15621 0.63701 0.82729 0.0
H1578 H 0.17315 0.63198 0.83345 0.0
H1579 H 0.15763 0.62447 0.8408 0.0
C1580 C 0.20902 0.60416 0.8367 0.0
C1581 C 0.20566 0.60146 0.85055 0.0
C1582 C 0.19854 0.60663 0.82704 0.0
C1583 C 0.18453 0.60649 0.83104 0.0
C1584 C 0.18119 0.60436 0.84497 0.0
H1585 H 0.10487 0.59463 0.79364 0.0
H1586 H 0.12486 0.59914 0.80865 0.0
C1587 C 0.19167 0.60196 0.85467 0.0
C1588 C 0.17339 0.60684 0.82044 0.0
H1589 H 0.14314 0.62264 0.81154 0.0
C1590 C 0.17331 0.59656 0.81022 0.0
C1591 C 0.16256 0.61656 0.82076 0.0
C1592 C 0.16244 0.62821 0.83109 0.0
C1593 C 0.16241 0.59539 0.80063 0.0
C1594 C 0.1514 0.60489 0.80117 0.0
C1595 C 0.15162 0.61538 0.81117 0.0
C1596 C 0.13914 0.60349 0.79197 0.0
C1597 C 0.16246 0.58363 0.7904 0.0
C1598 C 0.1405 0.60475 0.77763 0.0
C1599 C 0.1291 0.60211 0.76898 0.0
C1600 C 0.11613 0.59822 0.77455 0.0
C1601 C 0.11472 0.59751 0.78898 0.0
C1602 C 0.12611 0.60014 0.7976 0.0
H1603 H 0.17021 0.57568 0.79316 0.0
H1604 H 0.15203 0.5786 0.78973 0.0
H1605 H 0.16513 0.5877 0.78004 0.0
H1606 H 0.15045 0.60752 0.77312 0.0
H1607 H 0.13053 0.60286 0.75793 0.0
H1608 H 0.36393 0.12311 0.76488 0.0
H1609 H 0.36029 0.14297 0.77999 0.0
H1610 H 0.35779 0.11584 0.81516 0.0
H1611 H 0.36175 0.09596 0.80021 0.0
H1612 H 0.33961 0.15043 0.79869 0.0
H1613 H 0.39009 0.14168 0.82512 0.0
H1614 H 0.3852 0.13287 0.80941 0.0
H1615 H 0.37829 0.12716 0.82568 0.0
C1616 C 0.36247 0.12134 0.77581 0.0
C1617 C 0.36334 0.10797 0.78137 0.0
C1618 C 0.36037 0.1327 0.78442 0.0
C1619 C 0.35906 0.13089 0.79871 0.0
C1620 C 0.3591 0.11749 0.80419 0.0
H1621 H 0.36109 0.18957 0.86656 0.0
H1622 H 0.3562 0.16902 0.85258 0.0
C1623 C 0.36132 0.10614 0.79562 0.0
C1624 C 0.3585 0.14305 0.80796 0.0
H1625 H 0.37623 0.15954 0.83385 0.0
C1626 C 0.34759 0.15242 0.80641 0.0
C1627 C 0.36897 0.14565 0.81796 0.0
C1628 C 0.38138 0.1364 0.81959 0.0
C1629 C 0.34684 0.16431 0.8147 0.0
C1630 C 0.35733 0.16688 0.82466 0.0
C1631 C 0.36813 0.15744 0.82628 0.0
C1632 C 0.35788 0.17966 0.83303 0.0
C1633 C 0.33483 0.17397 0.81279 0.0
C1634 C 0.36019 0.19248 0.82666 0.0
C1635 C 0.36302 0.20424 0.83462 0.0
C1636 C 0.36367 0.20334 0.84908 0.0
C1637 C 0.36067 0.19061 0.85545 0.0
C1638 C 0.35787 0.17886 0.84748 0.0
H1639 H 0.32591 0.16882 0.80746 0.0
H1640 H 0.33124 0.17802 0.82287 0.0
H1641 H 0.33826 0.18287 0.80639 0.0
H1642 H 0.36049 0.19328 0.81553 0.0
H1643 H 0.36531 0.21389 0.8294 0.0
H1644 H 0.8632 0.37063 0.78006 0.0
H1645 H 0.84732 0.36609 0.79927 0.0
H1646 H 0.81323 0.36106 0.77059 0.0
H1647 H 0.82894 0.36582 0.75139 0.0
H1648 H 0.80882 0.38085 0.79041 0.0
H1649 H 0.82653 0.33229 0.81481 0.0
H1650 H 0.83996 0.3451 0.81213 0.0
H1651 H 0.83145 0.33725 0.79752 0.0
C1652 C 0.85238 0.36824 0.77783 0.0
C1653 C 0.84729 0.3687 0.76422 0.0
C1654 C 0.84333 0.36557 0.78882 0.0
C1655 C 0.82911 0.36314 0.78635 0.0
C1656 C 0.82418 0.36287 0.77272 0.0
H1657 H 0.75392 0.36296 0.83479 0.0
H1658 H 0.77151 0.35881 0.8172 0.0
C1659 C 0.83317 0.36561 0.76176 0.0
C1660 C 0.81906 0.3627 0.7979 0.0
H1661 H 0.80971 0.34523 0.82714 0.0
C1662 C 0.80895 0.37299 0.79837 0.0
C1663 C 0.81939 0.35254 0.80837 0.0
C1664 C 0.82984 0.34109 0.80818 0.0
C1665 C 0.7992 0.37348 0.80904 0.0
C1666 C 0.79938 0.36324 0.81942 0.0
C1667 C 0.80956 0.353 0.81909 0.0
C1668 C 0.78901 0.36324 0.83066 0.0
C1669 C 0.78893 0.38513 0.80925 0.0
C1670 C 0.79308 0.3664 0.84422 0.0
C1671 C 0.78303 0.3687 0.85435 0.0
C1672 C 0.76879 0.3679 0.85101 0.0
C1673 C 0.7648 0.36381 0.83764 0.0
C1674 C 0.77483 0.36144 0.82758 0.0
H1675 H 0.79226 0.39383 0.80249 0.0
H1676 H 0.77868 0.38126 0.80548 0.0
H1677 H 0.78755 0.38913 0.81988 0.0
H1678 H 0.80398 0.3678 0.84678 0.0
H1679 H 0.78642 0.3718 0.86457 0.0
H1680 H 0.5986 0.18271 0.10374 0.0
H1681 H 0.60427 0.16441 0.1202 0.0
H1682 H 0.61271 0.19508 0.15151 0.0
H1683 H 0.60681 0.21337 0.13527 0.0
H1684 H 0.62764 0.15834 0.13788 0.0
H1685 H 0.58003 0.17188 0.16694 0.0
H1686 H 0.58348 0.17825 0.14979 0.0
H1687 H 0.59197 0.18608 0.16445 0.0
C1688 C 0.60189 0.18556 0.11407 0.0
C1689 C 0.60205 0.19946 0.11829 0.0
C1690 C 0.60514 0.1751 0.12344 0.0
C1691 C 0.60865 0.17841 0.13712 0.0
C1692 C 0.60978 0.19232 0.14106 0.0
H1693 H 0.61309 0.1331 0.2132 0.0
H1694 H 0.61689 0.15003 0.19491 0.0
C1695 C 0.60642 0.20275 0.13176 0.0
C1696 C 0.60984 0.16739 0.1476 0.0
H1697 H 0.59467 0.15535 0.17706 0.0
C1698 C 0.62046 0.15765 0.14646 0.0
C1699 C 0.60033 0.16645 0.15868 0.0
C1700 C 0.58823 0.17613 0.16002 0.0
C1701 C 0.622 0.14716 0.15635 0.0
C1702 C 0.61262 0.1464 0.16753 0.0
C1703 C 0.60196 0.15607 0.16856 0.0
C1704 C 0.61326 0.13555 0.17824 0.0
C1705 C 0.63375 0.13712 0.15493 0.0
C1706 C 0.61039 0.12169 0.17491 0.0
C1707 C 0.60823 0.11195 0.18536 0.0
C1708 C 0.60877 0.11599 0.1993 0.0
C1709 C 0.61252 0.12968 0.20257 0.0
C1710 C 0.61472 0.13937 0.19213 0.0
H1711 H 0.64188 0.14097 0.14772 0.0
H1712 H 0.63864 0.13507 0.16511 0.0
H1713 H 0.62958 0.12717 0.15086 0.0
H1714 H 0.60898 0.11858 0.16425 0.0
H1715 H 0.60531 0.10148 0.18252 0.0
H1716 H 0.84057 0.59917 0.21561 0.0
H1717 H 0.82137 0.60336 0.19953 0.0
H1718 H 0.84886 0.59679 0.16518 0.0
H1719 H 0.86809 0.59273 0.18105 0.0
H1720 H 0.83133 0.6204 0.16267 0.0
H1721 H 0.80205 0.57236 0.17663 0.0
H1722 H 0.80678 0.58387 0.19049 0.0
H1723 H 0.82011 0.57503 0.18122 0.0
C1724 C 0.84254 0.59866 0.20463 0.0
C1725 C 0.85586 0.59552 0.19962 0.0
C1726 C 0.83155 0.60102 0.19548 0.0
C1727 C 0.83369 0.60023 0.1812 0.0
C1728 C 0.84701 0.59742 0.17618 0.0
H1729 H 0.79486 0.59822 0.10311 0.0
H1730 H 0.80993 0.60116 0.12318 0.0
C1731 C 0.85798 0.59506 0.18528 0.0
C1732 C 0.82209 0.60198 0.17133 0.0
H1733 H 0.79299 0.58577 0.15868 0.0
C1734 C 0.82284 0.61293 0.16188 0.0
C1735 C 0.81101 0.59226 0.17041 0.0
C1736 C 0.80989 0.58014 0.18014 0.0
C1737 C 0.81302 0.61418 0.15125 0.0
C1738 C 0.80234 0.60407 0.14991 0.0
C1739 C 0.80121 0.59349 0.15974 0.0
C1740 C 0.79307 0.60348 0.1377 0.0
C1741 C 0.81427 0.62621 0.14143 0.0
C1742 C 0.77856 0.60363 0.13923 0.0
C1743 C 0.76987 0.60186 0.12774 0.0
C1744 C 0.77556 0.59977 0.11456 0.0
C1745 C 0.79011 0.59984 0.11308 0.0
C1746 C 0.79876 0.60163 0.12454 0.0
H1747 H 0.81982 0.63511 0.1463 0.0
H1748 H 0.82035 0.62303 0.13228 0.0
H1749 H 0.80389 0.62962 0.13787 0.0
H1750 H 0.77398 0.60493 0.14933 0.0
H1751 H 0.75871 0.60183 0.12925 0.0
H1752 H 0.36534 0.75318 0.13764 0.0
H1753 H 0.35973 0.77185 0.15358 0.0
H1754 H 0.36254 0.80122 0.12025 0.0
H1755 H 0.36786 0.78259 0.1042 0.0
H1756 H 0.37734 0.79298 0.15937 0.0
H1757 H 0.32784 0.81394 0.13969 0.0
H1758 H 0.33422 0.79729 0.13448 0.0
H1759 H 0.34084 0.81282 0.12653 0.0
C1760 C 0.36448 0.76357 0.13365 0.0
C1761 C 0.36709 0.76642 0.11967 0.0
C1762 C 0.36127 0.77422 0.14277 0.0
C1763 C 0.36056 0.7879 0.13809 0.0
C1764 C 0.36269 0.79071 0.12405 0.0
H1765 H 0.36747 0.86911 0.17145 0.0
H1766 H 0.36397 0.84842 0.15737 0.0
C1767 C 0.36584 0.78005 0.1149 0.0
C1768 C 0.3592 0.79939 0.14809 0.0
H1769 H 0.34115 0.82872 0.15492 0.0
C1770 C 0.36928 0.80067 0.15854 0.0
C1771 C 0.34871 0.80943 0.14696 0.0
C1772 C 0.33721 0.80824 0.13639 0.0
C1773 C 0.36952 0.81201 0.16753 0.0
C1774 C 0.35928 0.82226 0.16615 0.0
C1775 C 0.34898 0.82083 0.15593 0.0
C1776 C 0.35972 0.83494 0.17466 0.0
C1777 C 0.38109 0.81326 0.17804 0.0
C1778 C 0.35808 0.83425 0.18902 0.0
C1779 C 0.36011 0.84606 0.19713 0.0
C1780 C 0.36379 0.85875 0.19099 0.0
C1781 C 0.36474 0.8595 0.17653 0.0
C1782 C 0.3627 0.8477 0.16845 0.0
H1783 H 0.38961 0.80591 0.17599 0.0
H1784 H 0.38554 0.8239 0.17817 0.0
H1785 H 0.37687 0.81102 0.18845 0.0
H1786 H 0.35558 0.82451 0.19397 0.0
H1787 H 0.35919 0.84513 0.20822 0.0
H1788 H 0.20823 0.36307 0.12771 0.0
H1789 H 0.19362 0.3596 0.14804 0.0
H1790 H 0.15684 0.36341 0.12283 0.0
H1791 H 0.17131 0.36676 0.10244 0.0
H1792 H 0.17502 0.37938 0.15726 0.0
H1793 H 0.14755 0.32968 0.14687 0.0
H1794 H 0.16322 0.33487 0.13792 0.0
H1795 H 0.14672 0.34183 0.13292 0.0
C1796 C 0.19704 0.36294 0.12644 0.0
C1797 C 0.19095 0.36525 0.11344 0.0
C1798 C 0.18871 0.36094 0.13807 0.0
C1799 C 0.17416 0.36108 0.13691 0.0
C1800 C 0.16804 0.36297 0.12391 0.0
H1801 H 0.10436 0.36962 0.19124 0.0
H1802 H 0.11995 0.36503 0.17189 0.0
C1803 C 0.17635 0.365 0.11227 0.0
C1804 C 0.16541 0.36074 0.14945 0.0
H1805 H 0.13835 0.34365 0.16493 0.0
C1806 C 0.16713 0.37147 0.15905 0.0
C1807 C 0.15505 0.35048 0.15164 0.0
C1808 C 0.15307 0.33848 0.14186 0.0
C1809 C 0.15848 0.37247 0.1706 0.0
C1810 C 0.14803 0.36227 0.17277 0.0
C1811 C 0.14641 0.35142 0.16326 0.0
C1812 C 0.13836 0.3631 0.18459 0.0
C1813 C 0.16027 0.38476 0.18007 0.0
C1814 C 0.14347 0.36299 0.19816 0.0
C1815 C 0.13464 0.36572 0.2092 0.0
C1816 C 0.12049 0.36844 0.20687 0.0
C1817 C 0.11522 0.36761 0.19335 0.0
C1818 C 0.1241 0.36499 0.18229 0.0
H1819 H 0.16637 0.39324 0.17516 0.0
H1820 H 0.15002 0.38885 0.18323 0.0
H1821 H 0.16592 0.38155 0.18951 0.0
H1822 H 0.1544 0.36125 0.20017 0.0
H1823 H 0.13898 0.36613 0.21952 0.0
H1824 H 0.76139 0.60676 0.84485 0.0
H1825 H 0.7769 0.61135 0.82534 0.0
H1826 H 0.81249 0.60372 0.85127 0.0
H1827 H 0.79718 0.59926 0.87082 0.0
H1828 H 0.81523 0.62739 0.83367 0.0
H1829 H 0.79778 0.57998 0.80553 0.0
H1830 H 0.78451 0.59184 0.81061 0.0
H1831 H 0.79403 0.58266 0.82355 0.0
C1832 C 0.77252 0.60615 0.84643 0.0
C1833 C 0.77803 0.60252 0.85938 0.0
C1834 C 0.78135 0.60874 0.83526 0.0
C1835 C 0.79581 0.6077 0.83686 0.0
C1836 C 0.80135 0.60454 0.84985 0.0
H1837 H 0.87252 0.60294 0.79583 0.0
H1838 H 0.85312 0.6071 0.81132 0.0
C1839 C 0.79256 0.60195 0.86099 0.0
C1840 C 0.80528 0.60931 0.82497 0.0
H1841 H 0.816 0.59296 0.79578 0.0
C1842 C 0.81531 0.61998 0.82528 0.0
C1843 C 0.80527 0.59966 0.81402 0.0
C1844 C 0.79491 0.58782 0.81336 0.0
C1845 C 0.82565 0.62098 0.81514 0.0
C1846 C 0.82607 0.61091 0.80459 0.0
C1847 C 0.81563 0.60066 0.80389 0.0
C1848 C 0.83799 0.60993 0.79503 0.0
C1849 C 0.83615 0.63268 0.81594 0.0
C1850 C 0.8359 0.61001 0.7807 0.0
C1851 C 0.84699 0.60754 0.77177 0.0
C1852 C 0.86032 0.60479 0.77704 0.0
C1853 C 0.86241 0.60504 0.7914 0.0
C1854 C 0.85134 0.60754 0.80029 0.0
H1855 H 0.83186 0.64172 0.82147 0.0
H1856 H 0.84543 0.6292 0.82173 0.0
H1857 H 0.83952 0.63601 0.8055 0.0
H1858 H 0.82563 0.61171 0.77645 0.0
H1859 H 0.84501 0.6074 0.76077 0.0
H1860 H 0.35991 0.86784 0.78151 0.0
H1861 H 0.35394 0.85394 0.80182 0.0
H1862 H 0.35826 0.81674 0.77785 0.0
H1863 H 0.36403 0.83049 0.75751 0.0
H1864 H 0.33538 0.81616 0.79679 0.0
H1865 H 0.38539 0.83285 0.82129 0.0
H1866 H 0.37379 0.8463 0.81613 0.0
H1867 H 0.38178 0.83572 0.80326 0.0
C1868 C 0.35936 0.85671 0.78051 0.0
C1869 C 0.3626 0.85025 0.76795 0.0
C1870 C 0.356 0.84879 0.79213 0.0
C1871 C 0.35589 0.83432 0.79136 0.0
C1872 C 0.35833 0.8279 0.77865 0.0
H1873 H 0.36073 0.76058 0.83631 0.0
H1874 H 0.35484 0.77894 0.82026 0.0
C1875 C 0.36167 0.83578 0.76705 0.0
C1876 C 0.35444 0.82574 0.80392 0.0
H1877 H 0.37215 0.81608 0.8328 0.0
C1878 C 0.3433 0.81626 0.80479 0.0
C1879 C 0.36477 0.82594 0.81435 0.0
C1880 C 0.37718 0.83566 0.81375 0.0
C1881 C 0.34245 0.80665 0.8156 0.0
C1882 C 0.35317 0.80638 0.82563 0.0
C1883 C 0.36392 0.81632 0.82512 0.0
C1884 C 0.35441 0.79502 0.83578 0.0
C1885 C 0.33021 0.79675 0.81606 0.0
C1886 C 0.35613 0.79791 0.84988 0.0
C1887 C 0.35966 0.78741 0.8591 0.0
C1888 C 0.36163 0.77386 0.85433 0.0
C1889 C 0.35927 0.77089 0.84032 0.0
C1890 C 0.35576 0.78138 0.83113 0.0
H1891 H 0.3209 0.80127 0.81107 0.0
H1892 H 0.33283 0.78723 0.8103 0.0
H1893 H 0.32756 0.79385 0.82682 0.0
H1894 H 0.35525 0.80839 0.85367 0.0
H1895 H 0.36142 0.79002 0.86984 0.0
H1896 H 0.17199 0.37066 0.86957 0.0
H1897 H 0.15638 0.36858 0.8498 0.0
H1898 H 0.19145 0.36315 0.82286 0.0
H1899 H 0.20732 0.36524 0.84267 0.0
H1900 H 0.16046 0.38809 0.82557 0.0
H1901 H 0.16055 0.33198 0.81257 0.0
H1902 H 0.16411 0.33805 0.82988 0.0
H1903 H 0.17674 0.34077 0.81658 0.0
C1904 C 0.17644 0.36883 0.8595 0.0
C1905 C 0.19093 0.36822 0.8577 0.0
C1906 C 0.16748 0.36763 0.84822 0.0
C1907 C 0.17279 0.36568 0.83494 0.0
C1908 C 0.18719 0.36452 0.83309 0.0
H1909 H 0.12254 0.36674 0.7589 0.0
H1910 H 0.14232 0.364 0.77468 0.0
C1911 C 0.19621 0.36576 0.84441 0.0
C1912 C 0.16323 0.36622 0.82303 0.0
H1913 H 0.1454 0.34612 0.79983 0.0
C1914 C 0.15727 0.37895 0.81983 0.0
C1915 C 0.15924 0.35428 0.81554 0.0
C1916 C 0.16541 0.34043 0.81875 0.0
C1917 C 0.14705 0.37999 0.80959 0.0
C1918 C 0.14251 0.36795 0.80256 0.0
C1919 C 0.14889 0.3553 0.80532 0.0
C1920 C 0.13047 0.36829 0.79307 0.0
C1921 C 0.14099 0.39395 0.80652 0.0
C1922 C 0.11726 0.37122 0.79829 0.0
C1923 C 0.10599 0.37279 0.78937 0.0
C1924 C 0.10771 0.37142 0.77504 0.0
C1925 C 0.12087 0.36792 0.76988 0.0
C1926 C 0.13217 0.36633 0.77886 0.0
H1927 H 0.14793 0.40249 0.81013 0.0
H1928 H 0.13909 0.39521 0.79529 0.0
H1929 H 0.13088 0.39488 0.81191 0.0
H1930 H 0.11574 0.3726 0.80927 0.0
H1931 H 0.096 0.37538 0.79373 0.0
H1932 H 0.60109 0.10335 0.78366 0.0
H1933 H 0.60641 0.11961 0.8024 0.0
H1934 H 0.61233 0.15228 0.77272 0.0
H1935 H 0.60674 0.13622 0.75399 0.0
H1936 H 0.62887 0.13828 0.80895 0.0
H1937 H 0.57986 0.16535 0.79661 0.0
H1938 H 0.58387 0.14863 0.78957 0.0
H1939 H 0.59154 0.16401 0.78228 0.0
C1940 C 0.60374 0.11395 0.78111 0.0
C1941 C 0.60328 0.11857 0.76737 0.0
C1942 C 0.6068 0.12321 0.79183 0.0
C1943 C 0.60949 0.13719 0.78894 0.0
C1944 C 0.61001 0.14159 0.77516 0.0
H1945 H 0.6129 0.21233 0.83606 0.0
H1946 H 0.61686 0.19446 0.81881 0.0
C1947 C 0.60684 0.13239 0.76448 0.0
C1948 C 0.61052 0.14741 0.80027 0.0
H1949 H 0.59458 0.17583 0.81324 0.0
C1950 C 0.62139 0.14649 0.80994 0.0
C1951 C 0.60063 0.158 0.8016 0.0
C1952 C 0.58823 0.15902 0.79206 0.0
C1953 C 0.62282 0.15617 0.82071 0.0
C1954 C 0.61307 0.16689 0.82181 0.0
C1955 C 0.60214 0.16768 0.81224 0.0
C1956 C 0.61365 0.17741 0.83289 0.0
C1957 C 0.63482 0.15502 0.83067 0.0
C1958 C 0.61097 0.17373 0.84663 0.0
C1959 C 0.60871 0.18395 0.85656 0.0
C1960 C 0.60896 0.19798 0.85283 0.0
C1961 C 0.61255 0.20161 0.83925 0.0
C1962 C 0.61484 0.19142 0.82938 0.0
H1963 H 0.64299 0.14806 0.82673 0.0
H1964 H 0.63955 0.16535 0.83275 0.0
H1965 H 0.63094 0.1508 0.84059 0.0
H1966 H 0.60979 0.16297 0.84951 0.0
H1967 H 0.60593 0.18083 0.86693 0.0
H1968 H 0.8726 0.36811 0.17281 0.0
H1969 H 0.85318 0.36434 0.1569 0.0
H1970 H 0.82453 0.3642 0.19102 0.0
H1971 H 0.84396 0.3677 0.20712 0.0
H1972 H 0.81808 0.34418 0.17066 0.0
H1973 H 0.82715 0.39609 0.14782 0.0
H1974 H 0.84205 0.38514 0.14734 0.0
H1975 H 0.83533 0.39074 0.16367 0.0
C1976 C 0.86219 0.36716 0.17697 0.0
C1977 C 0.85981 0.3684 0.19123 0.0
C1978 C 0.8511 0.36504 0.16785 0.0
C1979 C 0.8374 0.3643 0.17277 0.0
C1980 C 0.83503 0.36483 0.18703 0.0
H1981 H 0.75554 0.3672 0.13646 0.0
H1982 H 0.77536 0.36331 0.15175 0.0
C1983 C 0.84614 0.36685 0.1962 0.0
C1984 C 0.82555 0.36376 0.16297 0.0
H1985 H 0.81013 0.3819 0.13708 0.0
C1986 C 0.81631 0.35241 0.16331 0.0
C1987 C 0.82326 0.37457 0.15344 0.0
C1988 C 0.83238 0.38739 0.15309 0.0
C1989 C 0.80492 0.35149 0.15421 0.0
C1990 C 0.8027 0.36227 0.14467 0.0
C1991 C 0.81196 0.37358 0.14432 0.0
C1992 C 0.7905 0.36249 0.13531 0.0
C1993 C 0.79544 0.33896 0.15476 0.0
C1994 C 0.79243 0.36323 0.12099 0.0
C1995 C 0.78113 0.3655 0.11222 0.0
C1996 C 0.76772 0.36722 0.11765 0.0
C1997 C 0.76574 0.3659 0.13195 0.0
C1998 C 0.77704 0.36359 0.14071 0.0
H1999 H 0.8005 0.33015 0.16001 0.0
H2000 H 0.78593 0.34155 0.16061 0.0
H2001 H 0.79223 0.33568 0.14422 0.0
H2002 H 0.80276 0.36249 0.11664 0.0
H2003 H 0.783 0.36647 0.10125 0.0
H2004 H 0.60327 0.83248 0.21421 0.0
H2005 H 0.60866 0.81673 0.19531 0.0
H2006 H 0.6048 0.85014 0.16622 0.0
H2007 H 0.59971 0.866 0.18508 0.0
H2008 H 0.59045 0.81074 0.17493 0.0
H2009 H 0.63917 0.83128 0.152 0.0
H2010 H 0.63326 0.83636 0.1689 0.0
H2011 H 0.62611 0.84421 0.15368 0.0
C2012 C 0.60387 0.83654 0.20382 0.0
C2013 C 0.60101 0.85047 0.20112 0.0
C2014 C 0.60696 0.82753 0.19303 0.0
C2015 C 0.60727 0.83227 0.17937 0.0
C2016 C 0.60494 0.8463 0.17671 0.0
H2017 H 0.59871 0.79777 0.09856 0.0
H2018 H 0.6023 0.81235 0.1189 0.0
C2019 C 0.60193 0.85535 0.1875 0.0
C2020 C 0.60833 0.82231 0.16782 0.0
H2021 H 0.6256 0.81569 0.13785 0.0
C2022 C 0.59828 0.81168 0.16694 0.0
C2023 C 0.6185 0.82361 0.15737 0.0
C2024 C 0.62995 0.8344 0.15809 0.0
C2025 C 0.59779 0.80264 0.15565 0.0
C2026 C 0.60775 0.80415 0.14504 0.0
C2027 C 0.61799 0.81458 0.14602 0.0
C2028 C 0.60715 0.79541 0.13253 0.0
C2029 C 0.58628 0.79189 0.15489 0.0
C2030 C 0.60907 0.78112 0.13342 0.0
C2031 C 0.60699 0.77273 0.12183 0.0
C2032 C 0.60299 0.77853 0.10915 0.0
C2033 C 0.60171 0.79295 0.10818 0.0
C2034 C 0.60379 0.80131 0.11977 0.0
H2035 H 0.5779 0.79388 0.16248 0.0
H2036 H 0.58162 0.79154 0.1444 0.0
H2037 H 0.59063 0.78158 0.15713 0.0
H2038 H 0.61186 0.77641 0.14315 0.0
H2039 H 0.60818 0.76168 0.12292 0.0
H2040 H 0.09804 0.59966 0.17283 0.0
H2041 H 0.1179 0.60327 0.15752 0.0
H2042 H 0.14413 0.61251 0.19258 0.0
H2043 H 0.12439 0.60875 0.20804 0.0
H2044 H 0.13711 0.62604 0.15356 0.0
H2045 H 0.16234 0.57888 0.17398 0.0
H2046 H 0.14432 0.5827 0.17722 0.0
H2047 H 0.15784 0.59161 0.18664 0.0
C2048 C 0.10799 0.60259 0.17731 0.0
C2049 C 0.10966 0.60373 0.19169 0.0
C2050 C 0.11931 0.60469 0.16853 0.0
C2051 C 0.13249 0.60795 0.17395 0.0
C2052 C 0.13407 0.60978 0.18823 0.0
H2053 H 0.21346 0.60461 0.13475 0.0
H2054 H 0.19476 0.60994 0.15081 0.0
C2055 C 0.12276 0.60766 0.19704 0.0
C2056 C 0.14471 0.60848 0.16473 0.0
H2057 H 0.17445 0.59138 0.15698 0.0
C2058 C 0.14534 0.61853 0.15432 0.0
C2059 C 0.15537 0.59863 0.16577 0.0
C2060 C 0.15495 0.58726 0.17642 0.0
C2061 C 0.15641 0.619 0.1449 0.0
C2062 C 0.16694 0.60899 0.1458 0.0
C2063 C 0.1664 0.59909 0.15636 0.0
C2064 C 0.17832 0.60802 0.13559 0.0
C2065 C 0.15677 0.63023 0.13414 0.0
C2066 C 0.17532 0.60545 0.12164 0.0
C2067 C 0.18601 0.60246 0.1124 0.0
C2068 C 0.19986 0.60182 0.11703 0.0
C2069 C 0.20289 0.60497 0.13088 0.0
C2070 C 0.19222 0.60803 0.14007 0.0
H2071 H 0.15063 0.6393 0.13739 0.0
H2072 H 0.16761 0.6337 0.13199 0.0
H2073 H 0.15215 0.62619 0.12441 0.0
H2074 H 0.16465 0.60508 0.11801 0.0
H2075 H 0.18334 0.60002 0.10181 0.0
H2076 H 0.36559 0.17084 0.09593 0.0
H2077 H 0.36159 0.15645 0.11623 0.0
H2078 H 0.35613 0.1929 0.14108 0.0
H2079 H 0.36023 0.20744 0.12084 0.0
H2080 H 0.376 0.17477 0.15119 0.0
H2081 H 0.32682 0.14671 0.1389 0.0
H2082 H 0.33956 0.14611 0.12542 0.0
H2083 H 0.33212 0.16237 0.13013 0.0
C2084 C 0.36332 0.17583 0.10565 0.0
C2085 C 0.3633 0.19031 0.10676 0.0
C2086 C 0.36093 0.16756 0.11723 0.0
C2087 C 0.35839 0.17361 0.13011 0.0
C2088 C 0.35797 0.18804 0.13119 0.0
H2089 H 0.3617 0.13774 0.21262 0.0
H2090 H 0.35684 0.15328 0.1934 0.0
C2091 C 0.36033 0.19633 0.11961 0.0
C2092 C 0.3577 0.16493 0.14265 0.0
H2093 H 0.34048 0.13764 0.15738 0.0
C2094 C 0.36812 0.16678 0.15266 0.0
C2095 C 0.34747 0.15445 0.14444 0.0
C2096 C 0.33577 0.15234 0.13422 0.0
C2097 C 0.36891 0.15812 0.1642 0.0
C2098 C 0.35878 0.14751 0.16593 0.0
C2099 C 0.34819 0.1458 0.15604 0.0
C2100 C 0.3595 0.13773 0.17763 0.0
C2101 C 0.38093 0.16005 0.17412 0.0
C2102 C 0.36182 0.12367 0.17515 0.0
C2103 C 0.36444 0.11472 0.18613 0.0
C2104 C 0.36482 0.11971 0.19975 0.0
C2105 C 0.36164 0.13362 0.20223 0.0
C2106 C 0.35891 0.14253 0.19127 0.0
H2107 H 0.38948 0.1664 0.16958 0.0
H2108 H 0.37724 0.16541 0.18351 0.0
H2109 H 0.3852 0.14993 0.17727 0.0
H2110 H 0.36224 0.11976 0.16469 0.0
H2111 H 0.36681 0.10405 0.18389 0.0
H2112 H 0.8674 0.78218 0.60379 0.0
H2113 H 0.85325 0.80198 0.61033 0.0
H2114 H 0.81661 0.77575 0.61077 0.0
H2115 H 0.83063 0.75597 0.60437 0.0
H2116 H 0.83191 0.81152 0.59402 0.0
H2117 H 0.81176 0.79848 0.64579 0.0
H2118 H 0.82668 0.79012 0.6384 0.0
H2119 H 0.80933 0.78457 0.63376 0.0
C2120 C 0.85638 0.78058 0.60557 0.0
C2121 C 0.85012 0.76752 0.60351 0.0
C2122 C 0.84832 0.7919 0.60931 0.0
C2123 C 0.83391 0.79031 0.61122 0.0
C2124 C 0.82775 0.77717 0.60967 0.0
H2125 H 0.7582 0.83144 0.60737 0.0
H2126 H 0.77789 0.81649 0.6119 0.0
C2127 C 0.83577 0.76589 0.60589 0.0
C2128 C 0.82499 0.80251 0.61312 0.0
H2129 H 0.79832 0.81477 0.63257 0.0
C2130 C 0.82478 0.81244 0.60261 0.0
C2131 C 0.81571 0.80366 0.62433 0.0
C2132 C 0.81596 0.7937 0.63628 0.0
C2133 C 0.81487 0.82294 0.60248 0.0
C2134 C 0.8051 0.82367 0.61334 0.0
C2135 C 0.80581 0.81418 0.62425 0.0
C2136 C 0.79314 0.83313 0.61267 0.0
C2137 C 0.81437 0.83258 0.59026 0.0
C2138 C 0.7951 0.84751 0.61211 0.0
C2139 C 0.78383 0.85612 0.60943 0.0
C2140 C 0.77043 0.85046 0.60736 0.0
C2141 C 0.7684 0.83613 0.60883 0.0
C2142 C 0.77964 0.82756 0.61145 0.0
H2143 H 0.82101 0.82902 0.58163 0.0
H2144 H 0.80354 0.83356 0.5864 0.0
H2145 H 0.81814 0.84298 0.59346 0.0
H2146 H 0.80541 0.85204 0.61329 0.0
H2147 H 0.78572 0.86713 0.60846 0.0
H2148 H 0.86806 0.17929 0.3724 0.0
H2149 H 0.84873 0.16297 0.3699 0.0
H2150 H 0.81981 0.1966 0.36938 0.0
H2151 H 0.83919 0.21314 0.37204 0.0
H2152 H 0.81293 0.17596 0.38811 0.0
H2153 H 0.82396 0.15312 0.33709 0.0
H2154 H 0.83892 0.1531 0.34818 0.0
H2155 H 0.8317 0.16927 0.34275 0.0
C2156 C 0.85762 0.18328 0.37158 0.0
C2157 C 0.85518 0.19754 0.37244 0.0
C2158 C 0.84658 0.17392 0.37003 0.0
C2159 C 0.83286 0.17858 0.36923 0.0
C2160 C 0.83035 0.19281 0.36985 0.0
H2161 H 0.75824 0.12483 0.37367 0.0
H2162 H 0.77307 0.14523 0.36976 0.0
C2163 C 0.84143 0.20223 0.37136 0.0
C2164 C 0.82121 0.16843 0.36896 0.0
H2165 H 0.80954 0.1394 0.35232 0.0
C2166 C 0.81197 0.16814 0.38014 0.0
C2167 C 0.81999 0.15825 0.35854 0.0
C2168 C 0.82909 0.15852 0.34589 0.0
C2169 C 0.80208 0.15744 0.38159 0.0
C2170 C 0.80139 0.14688 0.37154 0.0
C2171 C 0.81019 0.1475 0.36005 0.0
C2172 C 0.79235 0.13456 0.37335 0.0
C2173 C 0.79292 0.15707 0.3942 0.0
C2174 C 0.79835 0.12183 0.37644 0.0
C2175 C 0.78995 0.11018 0.37873 0.0
C2176 C 0.77538 0.11105 0.37784 0.0
C2177 C 0.76942 0.12381 0.37446 0.0
C2178 C 0.77785 0.13548 0.37225 0.0
H2179 H 0.79588 0.16519 0.40181 0.0
H2180 H 0.78195 0.15866 0.39106 0.0
H2181 H 0.7935 0.14683 0.39929 0.0
H2182 H 0.80954 0.12095 0.37731 0.0
H2183 H 0.79489 0.10053 0.38126 0.0
H2184 H 0.78291 0.86705 0.36483 0.0
H2185 H 0.80296 0.85252 0.36007 0.0
H2186 H 0.77632 0.81631 0.36056 0.0
H2187 H 0.75624 0.83073 0.36518 0.0
H2188 H 0.81119 0.83235 0.37859 0.0
H2189 H 0.80114 0.80922 0.32713 0.0
H2190 H 0.7924 0.82449 0.3331 0.0
H2191 H 0.7867 0.80767 0.33875 0.0
C2192 C 0.78126 0.85603 0.3636 0.0
C2193 C 0.768 0.85003 0.36544 0.0
C2194 C 0.79273 0.84775 0.36088 0.0
C2195 C 0.7911 0.83336 0.35983 0.0
C2196 C 0.77777 0.82742 0.36105 0.0
H2197 H 0.84279 0.76189 0.36528 0.0
H2198 H 0.82402 0.77831 0.36166 0.0
C2199 C 0.76631 0.83567 0.36379 0.0
C2200 C 0.80347 0.82444 0.35923 0.0
H2201 H 0.81841 0.79833 0.34108 0.0
C2202 C 0.8129 0.82505 0.37029 0.0
C2203 C 0.80555 0.81484 0.34846 0.0
C2204 C 0.79598 0.81407 0.33612 0.0
C2205 C 0.82412 0.81601 0.37112 0.0
C2206 C 0.82614 0.8063 0.36043 0.0
C2207 C 0.81684 0.80581 0.34924 0.0
C2208 C 0.83763 0.79629 0.36101 0.0
C2209 C 0.8334 0.81659 0.38372 0.0
C2210 C 0.85151 0.80093 0.36139 0.0
C2211 C 0.86224 0.7916 0.36357 0.0
C2212 C 0.85929 0.77743 0.36525 0.0
C2213 C 0.84542 0.77273 0.36409 0.0
C2214 C 0.83468 0.78209 0.36199 0.0
H2215 H 0.82848 0.82224 0.39237 0.0
H2216 H 0.83598 0.80604 0.3873 0.0
H2217 H 0.84326 0.82206 0.38109 0.0
H2218 H 0.85401 0.81182 0.36037 0.0
H2219 H 0.87281 0.79556 0.36424 0.0
H2220 H 0.09882 0.79127 0.37693 0.0
H2221 H 0.11818 0.80762 0.37463 0.0
H2222 H 0.14659 0.77394 0.36977 0.0
H2223 H 0.1272 0.75736 0.372 0.0
H2224 H 0.14189 0.80738 0.39318 0.0
H2225 H 0.15662 0.80175 0.33794 0.0
H2226 H 0.13964 0.79668 0.34425 0.0
H2227 H 0.15444 0.78626 0.34801 0.0
C2228 C 0.10914 0.78728 0.37522 0.0
C2229 C 0.11146 0.77298 0.37472 0.0
C2230 C 0.12019 0.79666 0.37389 0.0
C2231 C 0.13377 0.79197 0.37195 0.0
C2232 C 0.13614 0.77774 0.37108 0.0
H2233 H 0.20953 0.844 0.37042 0.0
H2234 H 0.19384 0.82382 0.36912 0.0
C2235 C 0.12506 0.7683 0.37242 0.0
C2236 C 0.14543 0.80208 0.37193 0.0
H2237 H 0.16941 0.818 0.35119 0.0
C2238 C 0.14798 0.80964 0.38403 0.0
C2239 C 0.15342 0.80486 0.36001 0.0
C2240 C 0.15092 0.79705 0.34675 0.0
C2241 C 0.15807 0.8202 0.38445 0.0
C2242 C 0.16563 0.82343 0.37237 0.0
C2243 C 0.16351 0.81551 0.3604 0.0
C2244 C 0.1751 0.83558 0.37189 0.0
C2245 C 0.16045 0.82794 0.39779 0.0
C2246 C 0.16967 0.84883 0.37348 0.0
C2247 C 0.17854 0.86032 0.37425 0.0
C2248 C 0.19304 0.8588 0.37338 0.0
C2249 C 0.19842 0.84553 0.37119 0.0
C2250 C 0.18949 0.834 0.37042 0.0
H2251 H 0.15665 0.82193 0.40682 0.0
H2252 H 0.17167 0.83041 0.39932 0.0
H2253 H 0.15471 0.83779 0.39746 0.0
H2254 H 0.15855 0.85026 0.37441 0.0
H2255 H 0.17401 0.87038 0.37581 0.0
H2256 H 0.21058 0.13688 0.36451 0.0
H2257 H 0.19012 0.15083 0.35981 0.0
H2258 H 0.16489 0.11383 0.35612 0.0
H2259 H 0.18529 0.09975 0.36096 0.0
H2260 H 0.16935 0.15127 0.33794 0.0
H2261 H 0.14818 0.13544 0.389 0.0
H2262 H 0.16604 0.13266 0.38421 0.0
H2263 H 0.15247 0.12164 0.37744 0.0
C2264 C 0.20073 0.13168 0.36247 0.0
C2265 C 0.1995 0.11722 0.36329 0.0
C2266 C 0.18906 0.13968 0.35975 0.0
C2267 C 0.17599 0.13335 0.35784 0.0
C2268 C 0.17488 0.11889 0.35776 0.0
H2269 H 0.09428 0.17023 0.3633 0.0
H2270 H 0.11301 0.15413 0.35864 0.0
C2271 C 0.18655 0.11087 0.36049 0.0
C2272 C 0.16341 0.14194 0.35722 0.0
H2273 H 0.13481 0.15066 0.37584 0.0
C2274 C 0.16172 0.1511 0.34615 0.0
C2275 C 0.15354 0.14169 0.368 0.0
C2276 C 0.15513 0.13243 0.38041 0.0
C2277 C 0.15036 0.16005 0.34559 0.0
C2278 C 0.14065 0.15999 0.35652 0.0
C2279 C 0.14223 0.15064 0.36744 0.0
C2280 C 0.1291 0.16993 0.35733 0.0
C2281 C 0.14884 0.16944 0.33329 0.0
C2282 C 0.1319 0.18418 0.35796 0.0
C2283 C 0.1212 0.19343 0.36057 0.0
C2284 C 0.10753 0.18857 0.36279 0.0
C2285 C 0.10469 0.17432 0.36171 0.0
C2286 C 0.11538 0.1651 0.35902 0.0
H2287 H 0.15433 0.16532 0.32413 0.0
H2288 H 0.13772 0.17088 0.33058 0.0
H2289 H 0.1535 0.17969 0.33577 0.0
H2290 H 0.14245 0.18812 0.35701 0.0
H2291 H 0.12375 0.20433 0.36139 0.0
H2292 H 0.18608 0.10646 0.60209 0.0
H2293 H 0.16761 0.12338 0.60525 0.0
H2294 H 0.19853 0.15533 0.61219 0.0
H2295 H 0.21701 0.13861 0.60889 0.0
H2296 H 0.16096 0.14464 0.6267 0.0
H2297 H 0.17727 0.16581 0.57591 0.0
H2298 H 0.18252 0.14904 0.58194 0.0
H2299 H 0.19103 0.16439 0.58839 0.0
C2300 C 0.18893 0.11702 0.60461 0.0
C2301 C 0.20299 0.12126 0.60503 0.0
C2302 C 0.17838 0.12666 0.60643 0.0
C2303 C 0.18176 0.14061 0.60873 0.0
C2304 C 0.19575 0.14463 0.61025 0.0
H2305 H 0.14096 0.21835 0.60212 0.0
H2306 H 0.15663 0.19947 0.60745 0.0
C2307 C 0.20628 0.13505 0.60836 0.0
C2308 C 0.1709 0.15124 0.60792 0.0
H2309 H 0.16057 0.17843 0.58826 0.0
C2310 C 0.16079 0.15202 0.6183 0.0
C2311 C 0.17067 0.16072 0.59685 0.0
C2312 C 0.18086 0.15993 0.58505 0.0
C2313 C 0.15071 0.16242 0.61811 0.0
C2314 C 0.15073 0.17209 0.60718 0.0
C2315 C 0.16068 0.17108 0.5967 0.0
C2316 C 0.14069 0.18351 0.60628 0.0
C2317 C 0.14036 0.16322 0.62972 0.0
C2318 C 0.12646 0.18081 0.60414 0.0
C2319 C 0.11743 0.19163 0.60111 0.0
C2320 C 0.12256 0.20526 0.60003 0.0
C2321 C 0.1367 0.20796 0.6028 0.0
C2322 C 0.14567 0.19719 0.60588 0.0
H2323 H 0.1436 0.15698 0.63876 0.0
H2324 H 0.13898 0.17408 0.63305 0.0
H2325 H 0.13013 0.15919 0.62607 0.0
H2326 H 0.12245 0.1703 0.60416 0.0
H2327 H 0.1066 0.18922 0.59899 0.0
H2328 H 0.76068 0.12531 0.60441 0.0
H2329 H 0.77619 0.14523 0.60856 0.0
H2330 H 0.81178 0.11991 0.60045 0.0
H2331 H 0.79651 0.10001 0.59645 0.0
H2332 H 0.8148 0.13771 0.62379 0.0
H2333 H 0.79672 0.16527 0.57671 0.0
H2334 H 0.78369 0.16006 0.589 0.0
H2335 H 0.79295 0.14719 0.57956 0.0
C2336 C 0.77182 0.12396 0.60362 0.0
C2337 C 0.77735 0.11109 0.59997 0.0
C2338 C 0.78064 0.13536 0.60594 0.0
C2339 C 0.7951 0.13405 0.60463 0.0
C2340 C 0.80064 0.12113 0.60148 0.0
H2341 H 0.87242 0.17441 0.59691 0.0
H2342 H 0.85253 0.15925 0.60154 0.0
C2343 C 0.79187 0.10977 0.59915 0.0
C2344 C 0.80461 0.14613 0.60593 0.0
H2345 H 0.81559 0.17503 0.58878 0.0
C2346 C 0.81486 0.146 0.61626 0.0
C2347 C 0.8046 0.15695 0.59613 0.0
C2348 C 0.79398 0.15743 0.58465 0.0
C2349 C 0.82544 0.15611 0.61675 0.0
C2350 C 0.82589 0.16646 0.60648 0.0
C2351 C 0.81521 0.16705 0.59661 0.0
C2352 C 0.83807 0.17584 0.60488 0.0
C2353 C 0.83622 0.15545 0.62806 0.0
C2354 C 0.8365 0.19022 0.60504 0.0
C2355 C 0.84788 0.19896 0.60233 0.0
C2356 C 0.86098 0.19344 0.59924 0.0
C2357 C 0.86251 0.17902 0.59927 0.0
C2358 C 0.85117 0.17032 0.60203 0.0
H2359 H 0.83204 0.15007 0.63732 0.0
H2360 H 0.84528 0.14956 0.62433 0.0
H2361 H 0.8399 0.16594 0.63111 0.0
H2362 H 0.82644 0.19466 0.60709 0.0
H2363 H 0.84633 0.21001 0.60235 0.0
H2364 H 0.20843 0.84537 0.60007 0.0
H2365 H 0.19313 0.82539 0.60442 0.0
H2366 H 0.15722 0.85061 0.59729 0.0
H2367 H 0.17232 0.8706 0.59305 0.0
H2368 H 0.15557 0.83291 0.62118 0.0
H2369 H 0.17099 0.8051 0.57338 0.0
H2370 H 0.18469 0.81063 0.58489 0.0
H2371 H 0.17466 0.82326 0.57588 0.0
C2372 C 0.19728 0.84668 0.59948 0.0
C2373 C 0.1916 0.85958 0.59611 0.0
C2374 C 0.18857 0.83525 0.60193 0.0
C2375 C 0.17408 0.83653 0.60103 0.0
C2376 C 0.16839 0.84943 0.59801 0.0
H2377 H 0.09693 0.79474 0.59831 0.0
H2378 H 0.11674 0.81034 0.60169 0.0
C2379 C 0.17706 0.86083 0.59554 0.0
C2380 C 0.16467 0.82444 0.60282 0.0
H2381 H 0.1531 0.79516 0.5866 0.0
C2382 C 0.15513 0.82455 0.61374 0.0
C2383 C 0.16422 0.81352 0.59314 0.0
C2384 C 0.17411 0.81306 0.58109 0.0
C2385 C 0.1448 0.81425 0.61495 0.0
C2386 C 0.14385 0.80375 0.60483 0.0
C2387 C 0.15385 0.80324 0.59433 0.0
C2388 C 0.13179 0.7941 0.60408 0.0
C2389 C 0.13484 0.81484 0.62692 0.0
C2390 C 0.13369 0.77976 0.60413 0.0
C2391 C 0.12234 0.77076 0.60213 0.0
C2392 C 0.10893 0.77598 0.59986 0.0
C2393 C 0.10708 0.79035 0.60005 0.0
C2394 C 0.1184 0.7993 0.6021 0.0
H2395 H 0.13958 0.82036 0.63587 0.0
H2396 H 0.12544 0.82056 0.62375 0.0
H2397 H 0.13155 0.80432 0.63025 0.0
H2398 H 0.14398 0.77555 0.60552 0.0
H2399 H 0.12413 0.75974 0.602 0.0
H2400 H 0.10327 0.24306 0.41872 0.0
H2401 H 0.10898 0.24588 0.44324 0.0
H2402 H 0.08287 0.21071 0.45304 0.0
H2403 H 0.07713 0.20776 0.42869 0.0
H2404 H 0.08943 0.2501 0.46509 0.0
H2405 H 0.12003 0.20263 0.47287 0.0
H2406 H 0.11676 0.20984 0.45601 0.0
H2407 H 0.10356 0.19965 0.4645 0.0
C2408 C 0.09883 0.23585 0.42608 0.0
C2409 C 0.08976 0.22516 0.42173 0.0
C2410 C 0.1021 0.2375 0.44007 0.0
C2411 C 0.0965 0.22838 0.44989 0.0
C2412 C 0.0875 0.21769 0.44558 0.0
H2413 H 0.08846 0.2164 0.53625 0.0
H2414 H 0.08914 0.21548 0.5111 0.0
C2415 C 0.08417 0.21608 0.43165 0.0
C2416 C 0.09941 0.23036 0.46477 0.0
H2417 H 0.11179 0.21379 0.49322 0.0
C2418 C 0.09451 0.24229 0.47125 0.0
C2419 C 0.10604 0.22013 0.47271 0.0
C2420 C 0.11203 0.20739 0.46617 0.0
C2421 C 0.09542 0.24393 0.48561 0.0
C2422 C 0.10164 0.23347 0.49362 0.0
C2423 C 0.10699 0.22178 0.48705 0.0
C2424 C 0.10182 0.23398 0.50889 0.0
C2425 C 0.08912 0.25652 0.49216 0.0
C2426 C 0.10892 0.24458 0.516 0.0
C2427 C 0.1085 0.24517 0.53041 0.0
C2428 C 0.10105 0.23512 0.53793 0.0
C2429 C 0.09425 0.22434 0.53077 0.0
C2430 C 0.09465 0.22377 0.51639 0.0
H2431 H 0.08222 0.26208 0.48489 0.0
H2432 H 0.083 0.25361 0.50144 0.0
H2433 H 0.09756 0.26374 0.49544 0.0
H2434 H 0.11473 0.25241 0.5104 0.0
H2435 H 0.11392 0.25356 0.53565 0.0
H2436 H 0.75696 0.08145 0.53704 0.0
H2437 H 0.75162 0.08549 0.51279 0.0
H2438 H 0.71072 0.09943 0.52373 0.0
H2439 H 0.71603 0.09553 0.54823 0.0
H2440 H 0.71265 0.07738 0.50232 0.0
H2441 H 0.74625 0.12313 0.49173 0.0
H2442 H 0.75466 0.10986 0.5015 0.0
H2443 H 0.74017 0.11877 0.50883 0.0
C2444 C 0.74686 0.0855 0.53435 0.0
C2445 C 0.73691 0.08815 0.54457 0.0
C2446 C 0.74387 0.08788 0.52048 0.0
C2447 C 0.73085 0.0929 0.51652 0.0
C2448 C 0.72088 0.09567 0.52664 0.0
H2449 H 0.72244 0.10373 0.42635 0.0
H2450 H 0.71768 0.10805 0.45088 0.0
C2451 C 0.72393 0.09345 0.5406 0.0
C2452 C 0.72756 0.09418 0.50168 0.0
H2453 H 0.73988 0.10903 0.47217 0.0
C2454 C 0.71832 0.08453 0.49573 0.0
C2455 C 0.73486 0.1036 0.49314 0.0
C2456 C 0.74446 0.11453 0.49912 0.0
C2457 C 0.71705 0.08334 0.48135 0.0
C2458 C 0.72528 0.09197 0.47281 0.0
C2459 C 0.73365 0.10237 0.47877 0.0
C2460 C 0.72691 0.08907 0.45793 0.0
C2461 C 0.70744 0.07242 0.47539 0.0
C2462 C 0.73371 0.07704 0.45387 0.0
C2463 C 0.73659 0.07465 0.44001 0.0
C2464 C 0.73267 0.08422 0.42988 0.0
C2465 C 0.72554 0.09615 0.43392 0.0
C2466 C 0.72282 0.09863 0.44789 0.0
H2467 H 0.69914 0.06943 0.4828 0.0
H2468 H 0.70254 0.07606 0.46569 0.0
H2469 H 0.71353 0.06307 0.47298 0.0
H2470 H 0.73714 0.06965 0.4615 0.0
H2471 H 0.74204 0.06533 0.43725 0.0
H2472 H 0.86565 0.72455 0.42147 0.0
H2473 H 0.86055 0.72303 0.44619 0.0
H2474 H 0.88787 0.7579 0.45392 0.0
H2475 H 0.893 0.75955 0.42936 0.0
H2476 H 0.8804 0.71939 0.46802 0.0
H2477 H 0.85136 0.76813 0.47367 0.0
H2478 H 0.85412 0.75996 0.45717 0.0
H2479 H 0.86777 0.77012 0.46506 0.0
C2480 C 0.87051 0.73195 0.42842 0.0
C2481 C 0.87972 0.74219 0.42342 0.0
C2482 C 0.86759 0.73106 0.44252 0.0
C2483 C 0.87367 0.74048 0.45182 0.0
C2484 C 0.88286 0.75069 0.44687 0.0
H2485 H 0.88182 0.75558 0.53823 0.0
H2486 H 0.88144 0.75589 0.51303 0.0
C2487 C 0.88585 0.75155 0.43282 0.0
C2488 C 0.87099 0.73937 0.4668 0.0
H2489 H 0.85922 0.75756 0.49447 0.0
C2490 C 0.8756 0.72763 0.47381 0.0
C2491 C 0.86473 0.75017 0.47427 0.0
C2492 C 0.85909 0.76276 0.46716 0.0
C2493 C 0.8747 0.72666 0.48823 0.0
C2494 C 0.86877 0.73763 0.49575 0.0
C2495 C 0.86379 0.74919 0.48867 0.0
C2496 C 0.86834 0.73763 0.51102 0.0
C2497 C 0.88066 0.7142 0.49532 0.0
C2498 C 0.86086 0.72743 0.51824 0.0
C2499 C 0.86111 0.72718 0.53266 0.0
C2500 C 0.86876 0.73722 0.54009 0.0
C2501 C 0.87588 0.74767 0.53281 0.0
C2502 C 0.87565 0.74788 0.51841 0.0
H2503 H 0.88756 0.70826 0.4884 0.0
H2504 H 0.88669 0.7173 0.50464 0.0
H2505 H 0.87204 0.70724 0.49863 0.0
H2506 H 0.85492 0.71959 0.51273 0.0
H2507 H 0.85544 0.71905 0.53798 0.0
H2508 H 0.24905 0.87131 0.42338 0.0
H2509 H 0.25326 0.86872 0.44825 0.0
H2510 H 0.22313 0.90015 0.45661 0.0
H2511 H 0.21889 0.90288 0.43202 0.0
H2512 H 0.24979 0.90321 0.47073 0.0
H2513 H 0.22531 0.851 0.47669 0.0
H2514 H 0.23813 0.85357 0.4634 0.0
H2515 H 0.22162 0.86183 0.46201 0.0
C2516 C 0.24333 0.87767 0.43053 0.0
C2517 C 0.23361 0.88728 0.42569 0.0
C2518 C 0.24571 0.87613 0.44472 0.0
C2519 C 0.23842 0.88418 0.45423 0.0
C2520 C 0.22884 0.89383 0.44942 0.0
H2521 H 0.21737 0.90276 0.53502 0.0
H2522 H 0.22242 0.90042 0.51057 0.0
C2523 C 0.22643 0.89535 0.43533 0.0
C2524 C 0.24063 0.88284 0.46928 0.0
H2525 H 0.23163 0.86288 0.49696 0.0
C2526 C 0.24607 0.89429 0.47647 0.0
C2527 C 0.23585 0.87115 0.47669 0.0
C2528 C 0.22983 0.85866 0.46939 0.0
C2529 C 0.24618 0.89465 0.49091 0.0
C2530 C 0.24052 0.88336 0.49834 0.0
C2531 C 0.23592 0.87153 0.49119 0.0
C2532 C 0.23766 0.88444 0.51328 0.0
C2533 C 0.25188 0.90733 0.49814 0.0
C2534 C 0.24436 0.87597 0.5229 0.0
C2535 C 0.2415 0.87728 0.53701 0.0
C2536 C 0.23177 0.88697 0.54164 0.0
C2537 C 0.22495 0.89522 0.53187 0.0
C2538 C 0.22786 0.89396 0.51787 0.0
H2539 H 0.25936 0.91311 0.49151 0.0
H2540 H 0.24317 0.91431 0.50061 0.0
H2541 H 0.25716 0.90456 0.50793 0.0
H2542 H 0.25188 0.86848 0.5195 0.0
H2543 H 0.24689 0.87073 0.54425 0.0
H2544 H 0.09836 0.71944 0.54728 0.0
H2545 H 0.10308 0.71632 0.5226 0.0
H2546 H 0.07807 0.75172 0.51325 0.0
H2547 H 0.07334 0.75495 0.53767 0.0
H2548 H 0.0829 0.71243 0.50071 0.0
H2549 H 0.1152 0.75957 0.49313 0.0
H2550 H 0.11209 0.75212 0.50994 0.0
H2551 H 0.09925 0.76292 0.50203 0.0
C2552 C 0.09393 0.72659 0.53997 0.0
C2553 C 0.08551 0.73748 0.54447 0.0
C2554 C 0.09663 0.72479 0.52589 0.0
C2555 C 0.09111 0.73393 0.51616 0.0
C2556 C 0.08266 0.74471 0.52063 0.0
H2557 H 0.07272 0.75036 0.4343 0.0
H2558 H 0.07665 0.74812 0.459 0.0
C2559 C 0.0799 0.74649 0.53461 0.0
C2560 C 0.09359 0.73211 0.50123 0.0
H2561 H 0.10427 0.74999 0.47279 0.0
C2562 C 0.08787 0.72045 0.49459 0.0
C2563 C 0.10016 0.74257 0.49332 0.0
C2564 C 0.10715 0.75494 0.49998 0.0
C2565 C 0.08762 0.7195 0.48012 0.0
C2566 C 0.09333 0.73044 0.47223 0.0
C2567 C 0.09983 0.74166 0.4789 0.0
C2568 C 0.09112 0.73133 0.45716 0.0
C2569 C 0.08048 0.70729 0.47334 0.0
C2570 C 0.09799 0.7226 0.44795 0.0
C2571 C 0.09579 0.72386 0.43371 0.0
C2572 C 0.08666 0.73386 0.42853 0.0
C2573 C 0.0798 0.74252 0.43788 0.0
C2574 C 0.08205 0.74129 0.45202 0.0
H2575 H 0.07563 0.70017 0.48097 0.0
H2576 H 0.0723 0.71089 0.46612 0.0
H2577 H 0.08816 0.70145 0.46723 0.0
H2578 H 0.10513 0.71492 0.45176 0.0
H2579 H 0.10125 0.71705 0.42679 0.0
H2580 H 0.24961 0.11089 0.4276 0.0
H2581 H 0.24892 0.11232 0.4528 0.0
H2582 H 0.20963 0.09027 0.45291 0.0
H2583 H 0.2103 0.08863 0.42775 0.0
H2584 H 0.22873 0.12361 0.47077 0.0
H2585 H 0.23455 0.06711 0.47822 0.0
H2586 H 0.23795 0.0755 0.46194 0.0
H2587 H 0.22037 0.07184 0.46718 0.0
C2588 C 0.2408 0.10638 0.43299 0.0
C2589 C 0.23007 0.09952 0.42571 0.0
C2590 C 0.24042 0.10723 0.44737 0.0
C2591 C 0.22934 0.1012 0.4547 0.0
C2592 C 0.2184 0.09475 0.44744 0.0
H2593 H 0.21163 0.08946 0.54143 0.0
H2594 H 0.21044 0.09102 0.51629 0.0
C2595 C 0.21877 0.09388 0.43307 0.0
C2596 C 0.22938 0.10141 0.46995 0.0
H2597 H 0.23014 0.0804 0.49817 0.0
C2598 C 0.22907 0.11418 0.47678 0.0
C2599 C 0.22985 0.08908 0.47773 0.0
C2600 C 0.23083 0.0751 0.47093 0.0
C2601 C 0.22897 0.11493 0.49125 0.0
C2602 C 0.22942 0.1026 0.49901 0.0
C2603 C 0.22974 0.08984 0.49216 0.0
C2604 C 0.22973 0.1026 0.51427 0.0
C2605 C 0.22814 0.12889 0.4981 0.0
C2606 C 0.24098 0.10862 0.52144 0.0
C2607 C 0.24169 0.10775 0.53582 0.0
C2608 C 0.23121 0.10075 0.54323 0.0
C2609 C 0.21987 0.09491 0.53601 0.0
C2610 C 0.21916 0.09579 0.52166 0.0
H2611 H 0.22431 0.1369 0.49087 0.0
H2612 H 0.22117 0.12847 0.5072 0.0
H2613 H 0.23867 0.13211 0.50169 0.0
H2614 H 0.24937 0.11369 0.51591 0.0
H2615 H 0.25059 0.11232 0.54108 0.0
H2616 H 0.89569 0.21485 0.53555 0.0
H2617 H 0.89055 0.21869 0.51126 0.0
H2618 H 0.86537 0.25358 0.52185 0.0
H2619 H 0.87051 0.24987 0.54638 0.0
H2620 H 0.86294 0.21955 0.49853 0.0
H2621 H 0.894 0.26824 0.49235 0.0
H2622 H 0.89694 0.25656 0.50655 0.0
H2623 H 0.88172 0.26704 0.5063 0.0
C2624 C 0.88907 0.22337 0.53279 0.0
C2625 C 0.88355 0.23208 0.54295 0.0
C2626 C 0.88612 0.22552 0.51888 0.0
C2627 C 0.87767 0.23646 0.51478 0.0
C2628 C 0.87204 0.24517 0.52483 0.0
H2629 H 0.86714 0.25397 0.4257 0.0
H2630 H 0.86336 0.25593 0.4507 0.0
C2631 C 0.87495 0.243 0.53882 0.0
C2632 C 0.87488 0.23849 0.49991 0.0
H2633 H 0.88497 0.25792 0.47223 0.0
C2634 C 0.86752 0.22808 0.4928 0.0
C2635 C 0.88079 0.24967 0.4925 0.0
C2636 C 0.88887 0.26104 0.49973 0.0
C2637 C 0.86654 0.22818 0.47837 0.0
C2638 C 0.87328 0.23885 0.4709 0.0
C2639 C 0.87985 0.24975 0.47803 0.0
C2640 C 0.8752 0.23782 0.4558 0.0
C2641 C 0.85873 0.2166 0.47121 0.0
C2642 C 0.88328 0.22713 0.4505 0.0
C2643 C 0.88553 0.22603 0.43636 0.0
C2644 C 0.87975 0.23561 0.42716 0.0
C2645 C 0.87169 0.24639 0.4325 0.0
C2646 C 0.86952 0.24754 0.44675 0.0
H2647 H 0.85084 0.21177 0.4781 0.0
H2648 H 0.85346 0.22034 0.46174 0.0
H2649 H 0.86618 0.2085 0.46818 0.0
H2650 H 0.88796 0.21967 0.45735 0.0
H2651 H 0.8918 0.2176 0.43267 0.0
H2652 H 0.71769 0.85623 0.4292 0.0
H2653 H 0.7182 0.85493 0.45445 0.0
H2654 H 0.75723 0.87745 0.45502 0.0
H2655 H 0.75675 0.87893 0.42987 0.0
H2656 H 0.73864 0.844 0.47274 0.0
H2657 H 0.7317 0.90036 0.47996 0.0
H2658 H 0.72841 0.8918 0.46371 0.0
H2659 H 0.74594 0.89596 0.46893 0.0
C2660 C 0.72641 0.86086 0.43471 0.0
C2661 C 0.73712 0.8678 0.42756 0.0
C2662 C 0.72668 0.86009 0.44911 0.0
C2663 C 0.73763 0.8663 0.45657 0.0
C2664 C 0.74855 0.87283 0.44944 0.0
H2665 H 0.75846 0.87898 0.54224 0.0
H2666 H 0.75821 0.87715 0.5171 0.0
C2667 C 0.74829 0.87361 0.43507 0.0
C2668 C 0.73756 0.86617 0.47183 0.0
H2669 H 0.73719 0.88738 0.49993 0.0
C2670 C 0.73825 0.85346 0.47872 0.0
C2671 C 0.737 0.87854 0.47955 0.0
C2672 C 0.73559 0.89244 0.47269 0.0
C2673 C 0.73877 0.85283 0.49319 0.0
C2674 C 0.7384 0.86523 0.50088 0.0
C2675 C 0.73756 0.87791 0.49398 0.0
C2676 C 0.73894 0.86537 0.51614 0.0
C2677 C 0.74008 0.83896 0.5001 0.0
C2678 C 0.72819 0.85932 0.52391 0.0
C2679 C 0.72829 0.86034 0.5383 0.0
C2680 C 0.73912 0.86753 0.54513 0.0
C2681 C 0.74997 0.87339 0.5373 0.0
C2682 C 0.74985 0.87236 0.52294 0.0
H2683 H 0.74354 0.83088 0.49278 0.0
H2684 H 0.74755 0.83954 0.50885 0.0
H2685 H 0.72979 0.83573 0.50425 0.0
H2686 H 0.71953 0.8541 0.51884 0.0
H2687 H 0.71976 0.85577 0.54404 0.0
H2688 H 0.43006 0.09029 0.21063 0.0
H2689 H 0.45547 0.09204 0.21053 0.0
H2690 H 0.45459 0.11493 0.24868 0.0
H2691 H 0.42917 0.1131 0.24896 0.0
H2692 H 0.47354 0.11567 0.21129 0.0
H2693 H 0.47984 0.08189 0.25719 0.0
H2694 H 0.46367 0.08293 0.24776 0.0
H2695 H 0.46869 0.09643 0.25956 0.0
C2696 C 0.43527 0.09574 0.21897 0.0
C2697 C 0.42763 0.10145 0.22987 0.0
C2698 C 0.44977 0.09675 0.21888 0.0
C2699 C 0.45688 0.10343 0.2297 0.0
C2700 C 0.44928 0.10952 0.24037 0.0
H2701 H 0.54542 0.10948 0.24856 0.0
H2702 H 0.52022 0.11277 0.24836 0.0
C2703 C 0.43477 0.10852 0.24047 0.0
C2704 C 0.47226 0.10369 0.22995 0.0
H2705 H 0.50027 0.09173 0.24778 0.0
C2706 C 0.47941 0.11047 0.21928 0.0
C2707 C 0.47984 0.09689 0.2404 0.0
C2708 C 0.47266 0.08902 0.25183 0.0
C2709 C 0.49401 0.11067 0.21879 0.0
C2710 C 0.50157 0.1037 0.22912 0.0
C2711 C 0.49442 0.09709 0.2399 0.0
C2712 C 0.5169 0.10262 0.22871 0.0
C2713 C 0.50119 0.11843 0.20729 0.0
C2714 C 0.52336 0.09582 0.21772 0.0
C2715 C 0.53773 0.09392 0.2178 0.0
C2716 C 0.54589 0.09871 0.22892 0.0
C2717 C 0.53941 0.10568 0.23983 0.0
C2718 C 0.52503 0.10757 0.23974 0.0
H2719 H 0.49432 0.1263 0.20265 0.0
H2720 H 0.51086 0.12362 0.21104 0.0
H2721 H 0.50405 0.11104 0.19905 0.0
H2722 H 0.51723 0.09166 0.20925 0.0
H2723 H 0.54241 0.08848 0.20927 0.0
H2724 H 0.86174 0.54236 0.24835 0.0
H2725 H 0.8583 0.51723 0.25042 0.0
H2726 H 0.89826 0.51079 0.23163 0.0
H2727 H 0.90173 0.53568 0.22937 0.0
H2728 H 0.86039 0.49757 0.22566 0.0
H2729 H 0.89693 0.48699 0.26874 0.0
H2730 H 0.889 0.50363 0.26622 0.0
H2731 H 0.90342 0.4986 0.25571 0.0
C2732 C 0.86984 0.53557 0.24479 0.0
C2733 C 0.88199 0.541 0.23867 0.0
C2734 C 0.86784 0.52126 0.24596 0.0
C2735 C 0.87809 0.51223 0.24128 0.0
C2736 C 0.89031 0.51763 0.23542 0.0
H2737 H 0.89017 0.43252 0.21094 0.0
H2738 H 0.88592 0.45689 0.21553 0.0
C2739 C 0.89223 0.53185 0.23409 0.0
C2740 C 0.87592 0.4971 0.24169 0.0
H2741 H 0.89016 0.46775 0.25465 0.0
C2742 C 0.86666 0.49102 0.23219 0.0
C2743 C 0.88408 0.48864 0.25028 0.0
C2744 C 0.89386 0.49475 0.26091 0.0
C2745 C 0.866 0.47663 0.23045 0.0
C2746 C 0.87485 0.46822 0.2384 0.0
C2747 C 0.88344 0.47426 0.24853 0.0
C2748 C 0.87638 0.45335 0.23541 0.0
C2749 C 0.85621 0.47054 0.21982 0.0
C2750 C 0.87246 0.44331 0.24513 0.0
C2751 C 0.87481 0.42932 0.2425 0.0
C2752 C 0.88134 0.4252 0.23022 0.0
C2753 C 0.88515 0.43533 0.2205 0.0
C2754 C 0.88266 0.44925 0.22307 0.0
H2755 H 0.84778 0.4778 0.21712 0.0
H2756 H 0.86212 0.46826 0.21029 0.0
H2757 H 0.85148 0.46072 0.22358 0.0
H2758 H 0.86771 0.44632 0.25476 0.0
H2759 H 0.87181 0.42178 0.25022 0.0
H2760 H 0.53542 0.87499 0.21118 0.0
H2761 H 0.50999 0.87471 0.21208 0.0
H2762 H 0.51147 0.86367 0.25511 0.0
H2763 H 0.53698 0.86383 0.25432 0.0
H2764 H 0.4902 0.85175 0.22273 0.0
H2765 H 0.4897 0.90199 0.25087 0.0
H2766 H 0.50448 0.89671 0.2408 0.0
H2767 H 0.50097 0.88862 0.25706 0.0
C2768 C 0.53035 0.87236 0.22081 0.0
C2769 C 0.53819 0.86952 0.23271 0.0
C2770 C 0.51583 0.87217 0.22128 0.0
C2771 C 0.50893 0.86925 0.23367 0.0
C2772 C 0.51668 0.86599 0.24547 0.0
H2773 H 0.41766 0.86561 0.24157 0.0
H2774 H 0.4424 0.86052 0.24482 0.0
C2775 C 0.53122 0.86607 0.24499 0.0
C2776 C 0.49365 0.87045 0.23432 0.0
H2777 H 0.46809 0.89239 0.24429 0.0
C2778 C 0.48531 0.86051 0.2276 0.0
C2779 C 0.48741 0.88197 0.2406 0.0
C2780 C 0.49603 0.89302 0.24771 0.0
C2781 C 0.47081 0.86195 0.22678 0.0
C2782 C 0.46461 0.87363 0.2328 0.0
C2783 C 0.47293 0.88341 0.23976 0.0
C2784 C 0.44967 0.87651 0.23096 0.0
C2785 C 0.46224 0.85131 0.21903 0.0
C2786 C 0.44568 0.88724 0.22219 0.0
C2787 C 0.43163 0.89015 0.22026 0.0
C2788 C 0.4213 0.88244 0.22718 0.0
C2789 C 0.42536 0.87174 0.23608 0.0
C2790 C 0.43946 0.86878 0.23793 0.0
H2791 H 0.46881 0.84355 0.21381 0.0
H2792 H 0.45521 0.84584 0.22633 0.0
H2793 H 0.45565 0.85642 0.21118 0.0
H2794 H 0.45345 0.89333 0.21675 0.0
H2795 H 0.42891 0.89849 0.21337 0.0
H2796 H 0.07369 0.53998 0.21247 0.0
H2797 H 0.07791 0.51545 0.21574 0.0
H2798 H 0.1058 0.52485 0.24949 0.0
H2799 H 0.10179 0.54958 0.24618 0.0
H2800 H 0.11594 0.50483 0.23092 0.0
H2801 H 0.06211 0.49231 0.2475 0.0
H2802 H 0.06279 0.50142 0.2314 0.0
H2803 H 0.06888 0.50979 0.24691 0.0
C2804 C 0.08072 0.53688 0.22061 0.0
C2805 C 0.08731 0.54676 0.22914 0.0
C2806 C 0.08307 0.52284 0.2225 0.0
C2807 C 0.09195 0.51834 0.23302 0.0
C2808 C 0.09883 0.52814 0.24137 0.0
H2809 H 0.11207 0.43301 0.25544 0.0
H2810 H 0.11167 0.45834 0.25501 0.0
C2811 C 0.0965 0.54224 0.23947 0.0
C2812 C 0.09399 0.50338 0.23518 0.0
H2813 H 0.07617 0.47324 0.241 0.0
C2814 C 0.1073 0.49792 0.23331 0.0
C2815 C 0.08271 0.49443 0.23839 0.0
C2816 C 0.06834 0.49979 0.24131 0.0
C2817 C 0.10948 0.48361 0.23391 0.0
C2818 C 0.09806 0.47466 0.23655 0.0
C2819 C 0.08487 0.48017 0.23887 0.0
C2820 C 0.09936 0.45948 0.23635 0.0
C2821 C 0.12381 0.47809 0.23122 0.0
C2822 C 0.09259 0.45182 0.22598 0.0
C2823 C 0.09279 0.43743 0.22618 0.0
C2824 C 0.09967 0.43042 0.23684 0.0
C2825 C 0.1067 0.43813 0.24708 0.0
C2826 C 0.10653 0.45257 0.24684 0.0
H2827 H 0.1311 0.48623 0.22744 0.0
H2828 H 0.12809 0.47378 0.24092 0.0
H2829 H 0.12327 0.46961 0.22352 0.0
H2830 H 0.08698 0.457 0.21783 0.0
H2831 H 0.0873 0.4318 0.21814 0.0
H2832 H 0.4279 0.88094 0.75741 0.0
H2833 H 0.45327 0.8798 0.75887 0.0
H2834 H 0.45393 0.85522 0.72178 0.0
H2835 H 0.42856 0.85644 0.72013 0.0
H2836 H 0.47097 0.85673 0.76034 0.0
H2837 H 0.48023 0.88793 0.71308 0.0
H2838 H 0.46355 0.8871 0.72155 0.0
H2839 H 0.46901 0.87312 0.71074 0.0
C2840 C 0.43344 0.87526 0.74957 0.0
C2841 C 0.42624 0.86888 0.73858 0.0
C2842 C 0.44792 0.8746 0.75044 0.0
C2843 C 0.45546 0.86761 0.74032 0.0
C2844 C 0.4483 0.86089 0.72955 0.0
H2845 H 0.54402 0.85933 0.72565 0.0
H2846 H 0.51867 0.85679 0.72523 0.0
C2847 C 0.43381 0.86154 0.72866 0.0
C2848 C 0.47085 0.86755 0.74095 0.0
H2849 H 0.49997 0.8784 0.72383 0.0
C2850 C 0.47734 0.86146 0.75237 0.0
C2851 C 0.47908 0.87376 0.73054 0.0
C2852 C 0.47265 0.88096 0.71833 0.0
C2853 C 0.49189 0.86127 0.75358 0.0
C2854 C 0.50012 0.86755 0.7432 0.0
C2855 C 0.49362 0.87356 0.73175 0.0
C2856 C 0.51549 0.86827 0.74408 0.0
C2857 C 0.49835 0.8542 0.76584 0.0
C2858 C 0.52209 0.87555 0.75484 0.0
C2859 C 0.53658 0.87701 0.75512 0.0
C2860 C 0.5447 0.87129 0.74458 0.0
C2861 C 0.53806 0.86384 0.73393 0.0
C2862 C 0.52358 0.86239 0.73366 0.0
H2863 H 0.49094 0.84683 0.77078 0.0
H2864 H 0.50783 0.84855 0.7628 0.0
H2865 H 0.50139 0.86209 0.77364 0.0
H2866 H 0.51602 0.8804 0.76284 0.0
H2867 H 0.54139 0.88285 0.76344 0.0
H2868 H 0.07313 0.43319 0.7525 0.0
H2869 H 0.07897 0.45751 0.74919 0.0
H2870 H 0.10523 0.44717 0.71486 0.0
H2871 H 0.09945 0.42258 0.71808 0.0
H2872 H 0.1085 0.46916 0.74859 0.0
H2873 H 0.07672 0.47816 0.70127 0.0
H2874 H 0.07257 0.46419 0.71295 0.0
H2875 H 0.08773 0.46327 0.70231 0.0
C2876 C 0.08012 0.43601 0.7442 0.0
C2877 C 0.08581 0.4259 0.73555 0.0
C2878 C 0.08346 0.44993 0.74235 0.0
C2879 C 0.09248 0.45409 0.73177 0.0
C2880 C 0.09818 0.44412 0.72304 0.0
H2881 H 0.10375 0.54381 0.71757 0.0
H2882 H 0.1074 0.51893 0.71438 0.0
C2883 C 0.09488 0.4301 0.72492 0.0
C2884 C 0.09586 0.46893 0.73022 0.0
H2885 H 0.08592 0.49771 0.71268 0.0
C2886 C 0.10382 0.4754 0.74057 0.0
C2887 C 0.08983 0.47697 0.71969 0.0
C2888 C 0.08119 0.47039 0.70838 0.0
C2889 C 0.10526 0.48981 0.74111 0.0
C2890 C 0.09833 0.49793 0.7312 0.0
C2891 C 0.09118 0.49143 0.72028 0.0
C2892 C 0.09677 0.51298 0.73313 0.0
C2893 C 0.11376 0.49626 0.7526 0.0
C2894 C 0.08946 0.51779 0.74461 0.0
C2895 C 0.0873 0.53187 0.74642 0.0
C2896 C 0.09238 0.54149 0.73676 0.0
C2897 C 0.09976 0.53667 0.72524 0.0
C2898 C 0.10184 0.52249 0.72338 0.0
H2899 H 0.12178 0.48906 0.75646 0.0
H2900 H 0.11896 0.50596 0.74916 0.0
H2901 H 0.10679 0.49874 0.76134 0.0
H2902 H 0.08522 0.5106 0.75211 0.0
H2903 H 0.08156 0.53518 0.7554 0.0
H2904 H 0.42843 0.07349 0.76408 0.0
H2905 H 0.45327 0.07763 0.76089 0.0
H2906 H 0.44478 0.10286 0.72531 0.0
H2907 H 0.41975 0.09892 0.72851 0.0
H2908 H 0.46857 0.07053 0.7376 0.0
H2909 H 0.47204 0.127 0.74796 0.0
H2910 H 0.4571 0.1166 0.75283 0.0
H2911 H 0.4595 0.12163 0.73517 0.0
C2912 C 0.43178 0.08002 0.75563 0.0
C2913 C 0.42206 0.08588 0.74655 0.0
C2914 C 0.44601 0.08237 0.75382 0.0
C2915 C 0.45086 0.09065 0.74295 0.0
C2916 C 0.44123 0.09663 0.73392 0.0
H2917 H 0.53746 0.10757 0.71918 0.0
H2918 H 0.51193 0.10701 0.7197 0.0
C2919 C 0.42694 0.09431 0.73573 0.0
C2920 C 0.46604 0.09235 0.74081 0.0
H2921 H 0.4928 0.11595 0.74151 0.0
C2922 C 0.47386 0.08047 0.73841 0.0
C2923 C 0.47289 0.10535 0.74178 0.0
C2924 C 0.46501 0.11839 0.74467 0.0
C2925 C 0.48837 0.08119 0.73716 0.0
C2926 C 0.49526 0.09411 0.73854 0.0
C2927 C 0.48745 0.10607 0.74052 0.0
C2928 C 0.51062 0.0952 0.73858 0.0
C2929 C 0.49623 0.0681 0.7344 0.0
C2930 C 0.51827 0.08904 0.7492 0.0
C2931 C 0.53279 0.08935 0.74896 0.0
C2932 C 0.53994 0.09587 0.73809 0.0
C2933 C 0.53224 0.10242 0.72766 0.0
C2934 C 0.51768 0.10213 0.72794 0.0
H2935 H 0.48933 0.0598 0.7302 0.0
H2936 H 0.50486 0.07001 0.72702 0.0
H2937 H 0.5008 0.06435 0.74421 0.0
H2938 H 0.51298 0.08382 0.75761 0.0
H2939 H 0.53839 0.08429 0.75719 0.0
H2940 H 0.89287 0.54017 0.75766 0.0
H2941 H 0.88715 0.51573 0.75474 0.0
H2942 H 0.86076 0.52533 0.72012 0.0
H2943 H 0.86648 0.54994 0.72289 0.0
H2944 H 0.85979 0.50265 0.75483 0.0
H2945 H 0.8883 0.49583 0.7054 0.0
H2946 H 0.89151 0.51042 0.71664 0.0
H2947 H 0.87603 0.50966 0.70626 0.0
C2948 C 0.88585 0.53714 0.7494 0.0
C2949 C 0.88018 0.54704 0.74046 0.0
C2950 C 0.88257 0.52316 0.74778 0.0
C2951 C 0.87364 0.51875 0.73715 0.0
C2952 C 0.86781 0.52855 0.72829 0.0
H2953 H 0.85649 0.4324 0.71439 0.0
H2954 H 0.85539 0.45766 0.7152 0.0
C2955 C 0.87105 0.5426 0.72992 0.0
C2956 C 0.87061 0.50383 0.73545 0.0
H2957 H 0.87766 0.47611 0.71501 0.0
C2958 C 0.86358 0.49684 0.74607 0.0
C2959 C 0.87549 0.49634 0.72396 0.0
C2960 C 0.88333 0.50336 0.71241 0.0
C2961 C 0.86156 0.48248 0.74566 0.0
C2962 C 0.86699 0.4749 0.73447 0.0
C2963 C 0.87354 0.48195 0.72359 0.0
C2964 C 0.86689 0.4596 0.73434 0.0
C2965 C 0.85371 0.47554 0.75725 0.0
C2966 C 0.87379 0.45236 0.74479 0.0
C2967 C 0.87443 0.43798 0.74436 0.0
C2968 C 0.86828 0.43056 0.73341 0.0
C2969 C 0.8613 0.43783 0.72298 0.0
C2970 C 0.86067 0.45224 0.72342 0.0
H2971 H 0.84659 0.48283 0.76244 0.0
H2972 H 0.84754 0.46652 0.75347 0.0
H2973 H 0.86125 0.47186 0.76508 0.0
H2974 H 0.87895 0.45785 0.75314 0.0
H2975 H 0.87994 0.4327 0.75252 0.0
H2976 H 0.24957 0.53841 0.10783 0.0
H2977 H 0.25019 0.51309 0.10792 0.0
H2978 H 0.21189 0.51146 0.0847 0.0
H2979 H 0.21115 0.53668 0.08453 0.0
H2980 H 0.22883 0.49277 0.11719 0.0
H2981 H 0.24101 0.48977 0.06133 0.0
H2982 H 0.2435 0.50537 0.0713 0.0
H2983 H 0.22639 0.50033 0.06553 0.0
C2984 C 0.24123 0.53265 0.10283 0.0
C2985 C 0.23037 0.53953 0.09607 0.0
C2986 C 0.24161 0.51821 0.10291 0.0
C2987 C 0.23119 0.51048 0.09616 0.0
C2988 C 0.22012 0.5173 0.0898 0.0
H2989 H 0.20883 0.42773 0.07591 0.0
H2990 H 0.21145 0.45252 0.07943 0.0
C2991 C 0.2197 0.53169 0.08975 0.0
C2992 C 0.23199 0.49527 0.09538 0.0
H2993 H 0.23454 0.46877 0.07238 0.0
C2994 C 0.23023 0.48747 0.10745 0.0
C2995 C 0.2339 0.48847 0.08264 0.0
C2996 C 0.23643 0.49638 0.06946 0.0
C2997 C 0.22966 0.47297 0.107 0.0
C2998 C 0.23113 0.46618 0.09417 0.0
C2999 C 0.23336 0.47401 0.08219 0.0
C3000 C 0.22949 0.45103 0.0927 0.0
C3001 C 0.22691 0.46505 0.12012 0.0
C3002 C 0.23881 0.44193 0.099 0.0
C3003 C 0.23733 0.42766 0.09704 0.0
C3004 C 0.22656 0.42228 0.08865 0.0
C3005 C 0.21726 0.43147 0.08241 0.0
C3006 C 0.21873 0.44567 0.08441 0.0
H3007 H 0.22329 0.47186 0.12857 0.0
H3008 H 0.21897 0.45678 0.11836 0.0
H3009 H 0.23665 0.46007 0.12355 0.0
H3010 H 0.24733 0.44588 0.10525 0.0
H3011 H 0.2447 0.42087 0.10194 0.0
H3012 H 0.25539 0.53911 0.86195 0.0
H3013 H 0.25493 0.51385 0.86025 0.0
H3014 H 0.21539 0.51257 0.88114 0.0
H3015 H 0.21565 0.53771 0.88269 0.0
H3016 H 0.2542 0.49529 0.88177 0.0
H3017 H 0.20808 0.48751 0.84822 0.0
H3018 H 0.2168 0.50406 0.85003 0.0
H3019 H 0.20444 0.49829 0.86278 0.0
C3020 C 0.24652 0.53344 0.86604 0.0
C3021 C 0.23554 0.5404 0.87243 0.0
C3022 C 0.24629 0.51903 0.86506 0.0
C3023 C 0.23502 0.51136 0.87037 0.0
C3024 C 0.22402 0.5183 0.87668 0.0
H3025 H 0.21137 0.43036 0.89397 0.0
H3026 H 0.21452 0.45489 0.88903 0.0
C3027 C 0.22424 0.53268 0.87764 0.0
C3028 C 0.23508 0.49606 0.87017 0.0
H3029 H 0.21519 0.46786 0.86154 0.0
C3030 C 0.24581 0.48925 0.87714 0.0
C3031 C 0.22416 0.48823 0.86406 0.0
C3032 C 0.2128 0.4949 0.85573 0.0
C3033 C 0.24549 0.47486 0.87882 0.0
C3034 C 0.23421 0.46713 0.87328 0.0
C3035 C 0.22378 0.47386 0.86584 0.0
C3036 C 0.23249 0.45219 0.876 0.0
C3037 C 0.25684 0.46806 0.88705 0.0
C3038 C 0.24153 0.44255 0.87021 0.0
C3039 C 0.23975 0.42845 0.87299 0.0
C3040 C 0.22891 0.4238 0.88162 0.0
C3041 C 0.21986 0.43355 0.88733 0.0
C3042 C 0.22161 0.44759 0.88449 0.0
H3043 H 0.2638 0.47573 0.89223 0.0
H3044 H 0.25226 0.46112 0.89499 0.0
H3045 H 0.26323 0.46167 0.88008 0.0
H3046 H 0.24991 0.44592 0.86352 0.0
H3047 H 0.24688 0.42122 0.8684 0.0
H3048 H 0.43046 0.25055 0.85697 0.0
H3049 H 0.45574 0.24821 0.8558 0.0
H3050 H 0.45281 0.2098 0.87815 0.0
H3051 H 0.42756 0.21214 0.87953 0.0
H3052 H 0.47232 0.22827 0.88897 0.0
H3053 H 0.47938 0.22228 0.83249 0.0
H3054 H 0.46953 0.23711 0.83739 0.0
H3055 H 0.46269 0.22008 0.84076 0.0
C3056 C 0.43519 0.24153 0.86152 0.0
C3057 C 0.42703 0.23153 0.86836 0.0
C3058 C 0.44962 0.24017 0.86076 0.0
C3059 C 0.45611 0.22874 0.86673 0.0
C3060 C 0.44797 0.21867 0.87342 0.0
H3061 H 0.54222 0.20595 0.88054 0.0
H3062 H 0.51684 0.20604 0.87853 0.0
C3063 C 0.43356 0.22002 0.8742 0.0
C3064 C 0.47146 0.22771 0.86679 0.0
H3065 H 0.49991 0.22595 0.84589 0.0
C3066 C 0.47836 0.22765 0.87956 0.0
C3067 C 0.47927 0.22698 0.85448 0.0
C3068 C 0.47236 0.22649 0.8405 0.0
C3069 C 0.4929 0.22714 0.88037 0.0
C3070 C 0.50072 0.22644 0.86807 0.0
C3071 C 0.49385 0.22647 0.85529 0.0
C3072 C 0.51609 0.22588 0.86834 0.0
C3073 C 0.4998 0.22771 0.89438 0.0
C3074 C 0.52405 0.23678 0.86283 0.0
C3075 C 0.53855 0.23674 0.8639 0.0
C3076 C 0.54531 0.22576 0.87047 0.0
C3077 C 0.53731 0.21461 0.87552 0.0
C3078 C 0.52282 0.21466 0.87443 0.0
H3079 H 0.49262 0.23147 0.90247 0.0
H3080 H 0.50313 0.21718 0.89731 0.0
H3081 H 0.50917 0.23454 0.8942 0.0
H3082 H 0.51902 0.24549 0.85802 0.0
H3083 H 0.54443 0.24545 0.85986 0.0
H3084 H 0.72766 0.54882 0.86404 0.0
H3085 H 0.72464 0.52406 0.8592 0.0
H3086 H 0.74779 0.51438 0.896 0.0
H3087 H 0.75098 0.53894 0.90087 0.0
H3088 H 0.74902 0.50348 0.85762 0.0
H3089 H 0.70877 0.49213 0.89724 0.0
H3090 H 0.71143 0.50915 0.88998 0.0
H3091 H 0.72327 0.50276 0.90274 0.0
C3092 C 0.73205 0.54142 0.87113 0.0
C3093 C 0.73957 0.54586 0.88285 0.0
C3094 C 0.73034 0.5273 0.86833 0.0
C3095 C 0.73593 0.51747 0.8773 0.0
C3096 C 0.74332 0.52185 0.88902 0.0
H3097 H 0.75891 0.43324 0.87782 0.0
H3098 H 0.75748 0.45841 0.87663 0.0
C3099 C 0.74517 0.5359 0.89175 0.0
C3100 C 0.73443 0.50255 0.8744 0.0
H3101 H 0.72004 0.47287 0.88725 0.0
C3102 C 0.74254 0.49677 0.86394 0.0
C3103 C 0.7259 0.49392 0.88262 0.0
C3104 C 0.71674 0.49976 0.89373 0.0
C3105 C 0.74282 0.48242 0.86191 0.0
C3106 C 0.73483 0.47372 0.87062 0.0
C3107 C 0.72621 0.47958 0.88064 0.0
C3108 C 0.73592 0.45851 0.87014 0.0
C3109 C 0.7518 0.47664 0.85063 0.0
C3110 C 0.72425 0.45026 0.86694 0.0
C3111 C 0.72503 0.43587 0.86758 0.0
C3112 C 0.73746 0.42952 0.87164 0.0
C3113 C 0.74919 0.43783 0.87465 0.0
C3114 C 0.74842 0.4522 0.8739 0.0
H3115 H 0.75436 0.48456 0.84272 0.0
H3116 H 0.7617 0.47303 0.85519 0.0
H3117 H 0.74657 0.4677 0.84552 0.0
H3118 H 0.71448 0.45497 0.86412 0.0
H3119 H 0.71581 0.42974 0.86525 0.0
H3120 H 0.42982 0.7655 0.88196 0.0
H3121 H 0.45512 0.76521 0.87937 0.0
H3122 H 0.45185 0.72655 0.8574 0.0
H3123 H 0.42658 0.72664 0.86013 0.0
H3124 H 0.4709 0.72616 0.87876 0.0
H3125 H 0.4797 0.77222 0.84576 0.0
H3126 H 0.46965 0.77555 0.86095 0.0
H3127 H 0.46275 0.76421 0.84784 0.0
C3128 C 0.43447 0.75702 0.87644 0.0
C3129 C 0.42621 0.74608 0.87127 0.0
C3130 C 0.44892 0.75692 0.87489 0.0
C3131 C 0.45534 0.74595 0.86804 0.0
C3132 C 0.44709 0.73514 0.86266 0.0
H3133 H 0.54175 0.7225 0.85669 0.0
H3134 H 0.5164 0.7241 0.85528 0.0
C3135 C 0.43265 0.73522 0.86423 0.0
C3136 C 0.47069 0.74522 0.86735 0.0
H3137 H 0.49979 0.76236 0.85607 0.0
C3138 C 0.47722 0.73401 0.87369 0.0
C3139 C 0.47889 0.75551 0.86078 0.0
C3140 C 0.47241 0.76749 0.85333 0.0
C3141 C 0.49175 0.73295 0.87392 0.0
C3142 C 0.49994 0.74328 0.86743 0.0
C3143 C 0.49344 0.75446 0.86102 0.0
C3144 C 0.51532 0.74276 0.8675 0.0
C3145 C 0.49822 0.72099 0.88143 0.0
C3146 C 0.5231 0.75297 0.87446 0.0
C3147 C 0.53757 0.75211 0.87524 0.0
C3148 C 0.54451 0.74106 0.86901 0.0
C3149 C 0.5367 0.73109 0.86167 0.0
C3150 C 0.52222 0.73195 0.8609 0.0
H3151 H 0.49071 0.71577 0.88845 0.0
H3152 H 0.50178 0.71328 0.87379 0.0
H3153 H 0.5074 0.7245 0.88755 0.0
H3154 H 0.51794 0.76142 0.87956 0.0
H3155 H 0.5433 0.75999 0.88092 0.0
H3156 H 0.71991 0.54674 0.10226 0.0
H3157 H 0.71677 0.52178 0.10561 0.0
H3158 H 0.75163 0.51426 0.0789 0.0
H3159 H 0.75473 0.53898 0.07532 0.0
H3160 H 0.72817 0.49817 0.07269 0.0
H3161 H 0.74127 0.49593 0.12862 0.0
H3162 H 0.72784 0.50772 0.12375 0.0
H3163 H 0.74538 0.51081 0.11811 0.0
C3164 C 0.72693 0.53976 0.09714 0.0
C3165 C 0.73758 0.54487 0.08853 0.0
C3166 C 0.72516 0.52552 0.09913 0.0
C3167 C 0.73407 0.5162 0.09262 0.0
C3168 C 0.74466 0.52128 0.08403 0.0
H3169 H 0.75384 0.43125 0.08558 0.0
H3170 H 0.75229 0.45641 0.08555 0.0
C3171 C 0.74641 0.53544 0.08201 0.0
C3172 C 0.73232 0.50109 0.09435 0.0
H3173 H 0.73559 0.47485 0.11761 0.0
C3174 C 0.72969 0.49308 0.08253 0.0
C3175 C 0.73425 0.49451 0.10722 0.0
C3176 C 0.73744 0.50263 0.12016 0.0
C3177 C 0.72928 0.47863 0.08317 0.0
C3178 C 0.7317 0.47204 0.09593 0.0
C3179 C 0.73379 0.48001 0.10786 0.0
C3180 C 0.73292 0.45688 0.0968 0.0
C3181 C 0.72646 0.47049 0.07016 0.0
C3182 C 0.7227 0.4489 0.10348 0.0
C3183 C 0.72353 0.43448 0.10349 0.0
C3184 C 0.73465 0.42789 0.09692 0.0
C3185 C 0.74511 0.436 0.09067 0.0
C3186 C 0.74423 0.45037 0.09061 0.0
H3187 H 0.7217 0.47695 0.062 0.0
H3188 H 0.73642 0.46647 0.06615 0.0
H3189 H 0.71945 0.46152 0.07227 0.0
H3190 H 0.71393 0.45379 0.10836 0.0
H3191 H 0.71534 0.42851 0.10843 0.0
H3192 H 0.54977 0.72777 0.10453 0.0
H3193 H 0.52497 0.72415 0.10956 0.0
H3194 H 0.51416 0.74796 0.07366 0.0
H3195 H 0.53877 0.75175 0.0686 0.0
H3196 H 0.50373 0.74756 0.11231 0.0
H3197 H 0.49263 0.70893 0.07112 0.0
H3198 H 0.50985 0.71179 0.07822 0.0
H3199 H 0.50281 0.72381 0.06607 0.0
C3200 C 0.54211 0.7322 0.09769 0.0
C3201 C 0.54625 0.74005 0.08616 0.0
C3202 C 0.52798 0.73013 0.10059 0.0
C3203 C 0.51781 0.73571 0.09191 0.0
C3204 C 0.52189 0.74349 0.08041 0.0
H3205 H 0.43244 0.75636 0.0934 0.0
H3206 H 0.45784 0.7555 0.09412 0.0
C3207 C 0.53597 0.74568 0.07757 0.0
C3208 C 0.50287 0.73376 0.0949 0.0
H3209 H 0.47311 0.71923 0.08181 0.0
C3210 C 0.49702 0.74122 0.10579 0.0
C3211 C 0.49424 0.72541 0.08641 0.0
C3212 C 0.50016 0.71692 0.07484 0.0
C3213 C 0.4826 0.74103 0.10802 0.0
C3214 C 0.47389 0.73324 0.09907 0.0
C3215 C 0.47982 0.72525 0.0886 0.0
C3216 C 0.45856 0.73392 0.09978 0.0
C3217 C 0.47674 0.74933 0.11976 0.0
C3218 C 0.45057 0.72204 0.10266 0.0
C3219 C 0.43605 0.7225 0.10228 0.0
C3220 C 0.42929 0.73482 0.09881 0.0
C3221 C 0.43734 0.74673 0.09611 0.0
C3222 C 0.45185 0.74628 0.0966 0.0
H3223 H 0.4848 0.75178 0.12766 0.0
H3224 H 0.47273 0.75921 0.11568 0.0
H3225 H 0.46798 0.74369 0.12476 0.0
H3226 H 0.4556 0.71238 0.10504 0.0
H3227 H 0.43012 0.71314 0.10437 0.0
H3228 H 0.53735 0.24922 0.10911 0.0
H3229 H 0.51187 0.24947 0.10993 0.0
H3230 H 0.51014 0.21015 0.08904 0.0
H3231 H 0.5355 0.2097 0.08837 0.0
H3232 H 0.49398 0.24926 0.08774 0.0
H3233 H 0.48343 0.20381 0.12081 0.0
H3234 H 0.50044 0.2119 0.11967 0.0
H3235 H 0.49467 0.19981 0.10667 0.0
C3236 C 0.53153 0.24054 0.10486 0.0
C3237 C 0.53843 0.22942 0.09869 0.0
C3238 C 0.51699 0.24071 0.10533 0.0
C3239 C 0.50912 0.22973 0.09974 0.0
C3240 C 0.516 0.21857 0.09371 0.0
H3241 H 0.42782 0.20853 0.07298 0.0
H3242 H 0.45239 0.21102 0.07891 0.0
C3243 C 0.53051 0.21838 0.09325 0.0
C3244 C 0.49372 0.23028 0.0993 0.0
H3245 H 0.46438 0.21149 0.10672 0.0
C3246 C 0.48747 0.24115 0.09211 0.0
C3247 C 0.48526 0.21971 0.10505 0.0
C3248 C 0.49128 0.20823 0.1136 0.0
C3249 C 0.47304 0.2413 0.08984 0.0
C3250 C 0.46469 0.23037 0.09502 0.0
C3251 C 0.47086 0.21981 0.1027 0.0
C3252 C 0.4497 0.22911 0.09166 0.0
C3253 C 0.46689 0.25277 0.08137 0.0
C3254 C 0.44005 0.23845 0.09694 0.0
C3255 C 0.42592 0.23705 0.09358 0.0
C3256 C 0.42125 0.2263 0.08487 0.0
C3257 C 0.43101 0.21696 0.07967 0.0
C3258 C 0.44507 0.21833 0.08307 0.0
H3259 H 0.47502 0.25939 0.07649 0.0
H3260 H 0.46001 0.24844 0.07316 0.0
H3261 H 0.46044 0.25937 0.0881 0.0
H3262 H 0.44343 0.24675 0.10371 0.0
H3263 H 0.41867 0.2444 0.0978 0.0
H3264 H 0.61122 0.75243 0.03781 0.0
H3265 H 0.61078 0.75228 0.0125 0.0
H3266 H 0.58715 0.71411 0.01296 0.0
H3267 H 0.58752 0.71415 0.03815 0.0
H3268 H 0.61953 0.73021 -0.00705 0.0
H3269 H 0.56328 0.74244 -0.00947 0.0
H3270 H 0.57376 0.74547 0.00576 0.0
H3271 H 0.56767 0.72833 0.00169 0.0
C3272 C 0.60601 0.74396 0.03251 0.0
C3273 C 0.5993 0.73336 0.03997 0.0
C3274 C 0.60579 0.74389 0.01808 0.0
C3275 C 0.59877 0.73328 0.01093 0.0
C3276 C 0.59246 0.72248 0.01833 0.0
H3277 H 0.57573 0.71077 0.92871 0.0
H3278 H 0.57984 0.71304 0.95343 0.0
C3279 C 0.59271 0.72251 0.03272 0.0
C3280 C 0.59765 0.7336 -0.00428 0.0
H3281 H 0.57393 0.73568 0.9696 0.0
C3282 C 0.60961 0.73153 -0.01222 0.0
C3283 C 0.58468 0.73538 -0.01089 0.0
C3284 C 0.57161 0.73815 -0.00283 0.0
C3285 C 0.60883 0.73062 0.97333 0.0
C3286 C 0.59578 0.73207 0.96673 0.0
C3287 C 0.58391 0.73451 0.9747 0.0
C3288 C 0.59401 0.7305 0.95162 0.0
C3289 C 0.62186 0.72759 0.9653 0.0
C3290 C 0.60062 0.73959 0.94238 0.0
C3291 C 0.59833 0.73829 0.92817 0.0
C3292 C 0.58929 0.72796 0.92299 0.0
C3293 C 0.58274 0.71887 0.93231 0.0
C3294 C 0.58507 0.72014 0.94647 0.0
H3295 H 0.63029 0.72368 0.97206 0.0
H3296 H 0.6197 0.71985 0.95708 0.0
H3297 H 0.62567 0.73722 0.96031 0.0
H3298 H 0.60734 0.74783 0.94617 0.0
H3299 H 0.60348 0.74551 0.92128 0.0
H3300 H 0.22139 0.59795 0.92372 0.0
H3301 H 0.21747 0.60245 0.94836 0.0
H3302 H 0.25496 0.5807 0.95842 0.0
H3303 H 0.25897 0.57617 0.93409 0.0
H3304 H 0.21522 0.58177 0.97036 0.0
H3305 H 0.25915 0.61847 0.97855 0.0
H3306 H 0.25191 0.61483 0.96168 0.0
H3307 H 0.26411 0.6032 0.96939 0.0
C3308 C 0.22882 0.5942 0.93119 0.0
C3309 C 0.24051 0.58673 0.92692 0.0
C3310 C 0.22656 0.59677 0.94524 0.0
C3311 C 0.23605 0.59209 0.95515 0.0
C3312 C 0.24765 0.58462 0.9509 0.0
H3313 H 0.25491 0.57362 0.03587 0.0
H3314 H 0.25192 0.5783 0.01139 0.0
C3315 C 0.24987 0.58197 0.93697 0.0
C3316 C 0.23382 0.5944 0.97006 0.0
H3317 H 0.25079 0.60638 -0.0013 0.0
C3318 C 0.22275 0.58746 0.97658 0.0
C3319 C 0.24363 0.6019 0.97809 0.0
C3320 C 0.2553 0.61015 0.97156 0.0
C3321 C 0.22191 0.58689 -0.00896 0.0
C3322 C 0.23235 0.59351 -0.00095 0.0
C3323 C 0.24284 0.60126 -0.0075 0.0
C3324 C 0.23375 0.59092 0.01401 0.0
C3325 C 0.21047 0.57843 -0.00232 0.0
C3326 C 0.2245 0.59654 0.0236 0.0
C3327 C 0.2262 0.5939 0.03772 0.0
C3328 C 0.23714 0.58558 0.0424 0.0
C3329 C 0.24634 0.58003 0.03268 0.0
C3330 C 0.24468 0.58271 0.01866 0.0
H3331 H 0.20361 0.57326 -0.01005 0.0
H3332 H 0.21503 0.57045 0.00448 0.0
H3333 H 0.20402 0.58522 0.00422 0.0
H3334 H 0.21606 0.60299 0.02017 0.0
H3335 H 0.21894 0.59834 0.04493 0.0
H3336 H 0.37484 0.25569 0.03546 0.0
H3337 H 0.37427 0.2558 0.01025 0.0
H3338 H 0.35932 0.21361 0.01015 0.0
H3339 H 0.3598 0.21341 0.03544 0.0
H3340 H 0.3836 0.2195 -0.00677 0.0
H3341 H 0.34025 0.25547 0.98326 0.0
H3342 H 0.35284 0.2615 -0.00428 0.0
H3343 H 0.34233 0.24648 -0.00054 0.0
C3344 C 0.37128 0.24647 0.03009 0.0
C3345 C 0.36738 0.23453 0.03743 0.0
C3346 C 0.37089 0.24658 0.01569 0.0
C3347 C 0.36661 0.23476 0.00838 0.0
C3348 C 0.36255 0.22286 0.01565 0.0
H3349 H 0.36176 0.23025 0.91785 0.0
H3350 H 0.35647 0.22677 0.94236 0.0
C3351 C 0.36283 0.22278 0.03007 0.0
C3352 C 0.36737 0.2346 -0.00685 0.0
H3353 H 0.35529 0.25073 0.96429 0.0
C3354 C 0.37728 0.22617 -0.01313 0.0
C3355 C 0.35905 0.24327 -0.01509 0.0
C3356 C 0.34792 0.25212 -0.00887 0.0
C3357 C 0.37952 0.22667 0.9726 0.0
C3358 C 0.37166 0.23581 0.96446 0.0
C3359 C 0.36133 0.24379 0.97062 0.0
C3360 C 0.37471 0.23787 0.94969 0.0
C3361 C 0.3905 0.21768 0.96629 0.0
C3362 C 0.38664 0.24536 0.9458 0.0
C3363 C 0.38965 0.24746 0.93189 0.0
C3364 C 0.3808 0.24204 0.92158 0.0
C3365 C 0.36881 0.23453 0.92553 0.0
C3366 C 0.36575 0.23254 0.9395 0.0
H3367 H 0.39392 0.20947 0.97349 0.0
H3368 H 0.38653 0.21278 0.95667 0.0
H3369 H 0.39969 0.22417 0.96357 0.0
H3370 H 0.39362 0.24961 0.95357 0.0
H3371 H 0.39897 0.25327 0.92922 0.0
H3372 H 0.74466 0.36516 0.04584 0.0
H3373 H 0.74978 0.36188 0.02123 0.0
H3374 H 0.72765 0.39904 0.01155 0.0
H3375 H 0.72236 0.40233 0.03589 0.0
H3376 H 0.72734 0.36096 -0.00124 0.0
H3377 H 0.76743 0.40225 -0.00772 0.0
H3378 H 0.76382 0.39415 0.00872 0.0
H3379 H 0.75244 0.40714 0.0021 0.0
C3380 C 0.74096 0.37267 0.03846 0.0
C3381 C 0.73307 0.38399 0.04282 0.0
C3382 C 0.7439 0.37077 0.02444 0.0
C3383 C 0.73922 0.38031 0.01466 0.0
C3384 C 0.73148 0.39166 0.01899 0.0
H3385 H 0.7144 0.39149 0.93405 0.0
H3386 H 0.71834 0.38719 0.9585 0.0
C3387 C 0.7284 0.39347 0.03291 0.0
C3388 C 0.74162 0.37826 -0.00024 0.0
H3389 H 0.75579 0.39439 0.97174 0.0
C3390 C 0.73383 0.36802 -0.00715 0.0
C3391 C 0.75015 0.38745 -0.00788 0.0
C3392 C 0.75905 0.39831 -0.00084 0.0
C3393 C 0.73356 0.36742 0.97839 0.0
C3394 C 0.74127 0.37729 0.97074 0.0
C3395 C 0.74986 0.38686 0.97766 0.0
C3396 C 0.73899 0.37908 0.95578 0.0
C3397 C 0.72453 0.35667 0.97134 0.0
C3398 C 0.74938 0.37602 0.94617 0.0
C3399 C 0.74714 0.37839 0.93208 0.0
C3400 C 0.73456 0.3841 0.92748 0.0
C3401 C 0.72423 0.38715 0.93722 0.0
C3402 C 0.72641 0.38462 0.9512 0.0
H3403 H 0.72199 0.34791 0.97833 0.0
H3404 H 0.71463 0.36146 0.96807 0.0
H3405 H 0.72972 0.35263 0.96199 0.0
H3406 H 0.7592 0.37184 0.94958 0.0
H3407 H 0.7553 0.37597 0.92484 0.0
H3408 H 0.60275 0.21776 0.92638 0.0
H3409 H 0.60444 0.21405 0.95141 0.0
H3410 H 0.5714 0.24295 0.9579 0.0
H3411 H 0.56958 0.24669 0.93318 0.0
H3412 H 0.60928 0.23483 0.97293 0.0
H3413 H 0.5586 0.20757 0.97863 0.0
H3414 H 0.5674 0.20918 0.96225 0.0
H3415 H 0.55739 0.22326 0.96889 0.0
C3416 C 0.59583 0.22328 0.93315 0.0
C3417 C 0.58598 0.23247 0.92775 0.0
C3418 C 0.59682 0.22116 0.94742 0.0
C3419 C 0.58789 0.22806 0.95644 0.0
C3420 C 0.57821 0.23732 0.95108 0.0
H3421 H 0.56807 0.24989 0.03688 0.0
H3422 H 0.57151 0.24545 0.01241 0.0
C3423 C 0.57724 0.23949 0.93692 0.0
C3424 C 0.58865 0.226 0.97154 0.0
H3425 H 0.5681 0.21816 -0.00087 0.0
C3426 C 0.60044 0.23088 0.97871 0.0
C3427 C 0.57711 0.22078 0.97898 0.0
C3428 C 0.56446 0.21477 0.97179 0.0
C3429 C 0.60056 0.2316 -0.00681 0.0
C3430 C 0.58863 0.22723 0.00057 0.0
C3431 C 0.5772 0.22157 -0.00659 0.0
C3432 C 0.5871 0.22987 0.0155 0.0
C3433 C 0.61304 0.23781 0.00049 0.0
C3434 C 0.59476 0.22255 0.02534 0.0
C3435 C 0.59281 0.22505 0.03944 0.0
C3436 C 0.58316 0.23491 0.04386 0.0
C3437 C 0.57559 0.24223 0.03389 0.0
C3438 C 0.57752 0.23971 0.01988 0.0
H3439 H 0.62097 0.24184 -0.00684 0.0
H3440 H 0.60976 0.24635 0.00734 0.0
H3441 H 0.61793 0.22984 0.00706 0.0
H3442 H 0.60212 0.21482 0.02213 0.0
H3443 H 0.59879 0.21921 0.04684 0.0
H3444 H 0.75043 0.61234 0.04449 0.0
H3445 H 0.75046 0.61482 0.01936 0.0
H3446 H 0.71111 0.59296 0.017 0.0
H3447 H 0.71091 0.59058 0.04209 0.0
H3448 H 0.75008 0.5931 0.00049 0.0
H3449 H 0.70455 0.62679 -0.00728 0.0
H3450 H 0.71291 0.62477 0.00929 0.0
H3451 H 0.70089 0.6118 0.00304 0.0
C3452 C 0.7417 0.60821 0.03863 0.0
C3453 C 0.73066 0.60126 0.04526 0.0
C3454 C 0.74174 0.60963 0.02429 0.0
C3455 C 0.7307 0.60423 0.01636 0.0
C3456 C 0.71959 0.59745 0.02296 0.0
H3457 H 0.71307 0.5895 0.93052 0.0
H3458 H 0.71284 0.59165 0.95567 0.0
C3459 C 0.71954 0.59602 0.03729 0.0
C3460 C 0.73124 0.60484 0.00112 0.0
H3461 H 0.71345 0.61567 0.97268 0.0
C3462 C 0.74217 0.59817 -0.0056 0.0
C3463 C 0.72086 0.61141 -0.00677 0.0
C3464 C 0.7092 0.61921 -8e-05 0.0
C3465 C 0.74277 0.59752 0.97996 0.0
C3466 C 0.73229 0.60393 0.97208 0.0
C3467 C 0.72146 0.61077 0.97878 0.0
C3468 C 0.73219 0.60328 0.95684 0.0
C3469 C 0.75436 0.5896 0.97328 0.0
C3470 C 0.74302 0.60935 0.94918 0.0
C3471 C 0.7432 0.60812 0.93483 0.0
C3472 C 0.73252 0.60084 0.92789 0.0
C3473 C 0.72148 0.59511 0.93557 0.0
C3474 C 0.72131 0.59635 0.94992 0.0
H3475 H 0.75968 0.58273 0.98074 0.0
H3476 H 0.75034 0.58323 0.96457 0.0
H3477 H 0.76221 0.597 0.96914 0.0
H3478 H 0.75138 0.61495 0.95433 0.0
H3479 H 0.75179 0.61273 0.92919 0.0
H3480 H 0.36414 0.75036 0.92668 0.0
H3481 H 0.36044 0.75345 0.95156 0.0
H3482 H 0.40048 0.73572 0.95985 0.0
H3483 H 0.40422 0.7325 0.9352 0.0
H3484 H 0.36128 0.73051 0.97159 0.0
H3485 H 0.39969 0.77221 0.98316 0.0
H3486 H 0.39264 0.76926 0.96607 0.0
H3487 H 0.40637 0.75863 0.97254 0.0
C3488 C 0.37222 0.74728 0.93381 0.0
C3489 C 0.38446 0.74115 0.92898 0.0
C3490 C 0.37008 0.74904 0.94799 0.0
C3491 C 0.38027 0.74496 0.95748 0.0
C3492 C 0.39259 0.73913 0.95266 0.0
H3493 H 0.38996 0.7133 0.03628 0.0
H3494 H 0.3859 0.71881 0.01208 0.0
C3495 C 0.39466 0.73721 0.93857 0.0
C3496 C 0.37782 0.74572 0.97251 0.0
H3497 H 0.39253 0.75797 0.00226 0.0
C3498 C 0.36787 0.73675 0.97831 0.0
C3499 C 0.38635 0.75395 0.98122 0.0
C3500 C 0.39679 0.76416 0.97545 0.0
C3501 C 0.36695 0.73505 -0.00734 0.0
C3502 C 0.37624 0.74249 0.00132 0.0
C3503 C 0.38548 0.75221 -0.00444 0.0
C3504 C 0.37771 0.73909 0.01611 0.0
C3505 C 0.35645 0.72491 -0.00157 0.0
C3506 C 0.37453 0.74875 0.02638 0.0
C3507 C 0.37678 0.7456 0.0403 0.0
C3508 C 0.38249 0.73285 0.0441 0.0
C3509 C 0.38559 0.72322 0.03373 0.0
C3510 C 0.3832 0.72631 0.01989 0.0
H3511 H 0.34779 0.72289 -0.00895 0.0
H3512 H 0.36164 0.71498 0.00055 0.0
H3513 H 0.35207 0.72876 0.00828 0.0
H3514 H 0.3704 0.75872 0.02361 0.0
H3515 H 0.37433 0.75325 0.04805 0.0
H3516 H 0.21667 0.35552 0.04258 0.0
H3517 H 0.21727 0.35339 0.01741 0.0
H3518 H 0.25568 0.37693 0.01644 0.0
H3519 H 0.25526 0.37898 0.04155 0.0
H3520 H 0.2172 0.37538 -0.00123 0.0
H3521 H 0.26424 0.34358 -0.00794 0.0
H3522 H 0.25538 0.34508 0.00838 0.0
H3523 H 0.267 0.35859 0.00265 0.0
C3524 C 0.22533 0.36011 0.03701 0.0
C3525 C 0.23592 0.36741 0.04404 0.0
C3526 C 0.22564 0.35888 0.02265 0.0
C3527 C 0.23661 0.36484 0.0151 0.0
C3528 C 0.24727 0.37201 0.0221 0.0
H3529 H 0.25554 0.3804 0.92971 0.0
H3530 H 0.25542 0.37822 0.95486 0.0
C3531 C 0.24696 0.37325 0.03644 0.0
C3532 C 0.23646 0.36436 -0.00015 0.0
H3533 H 0.25529 0.35438 0.97185 0.0
C3534 C 0.22544 0.37066 -0.00713 0.0
C3535 C 0.24727 0.35825 -0.00778 0.0
C3536 C 0.25909 0.35088 -0.00081 0.0
C3537 C 0.22513 0.37137 0.97842 0.0
C3538 C 0.23602 0.3654 0.97079 0.0
C3539 C 0.24696 0.35895 0.97776 0.0
C3540 C 0.23638 0.36606 0.95555 0.0
C3541 C 0.2134 0.37891 0.97148 0.0
C3542 C 0.22586 0.35969 0.94763 0.0
C3543 C 0.22588 0.36094 0.93328 0.0
C3544 C 0.23646 0.36853 0.92661 0.0
C3545 C 0.24721 0.37454 0.93455 0.0
C3546 C 0.24718 0.37329 0.94891 0.0
H3547 H 0.20775 0.38562 0.97881 0.0
H3548 H 0.21735 0.38538 0.96285 0.0
H3549 H 0.20584 0.37127 0.96718 0.0
H3550 H 0.21758 0.35384 0.95257 0.0
H3551 H 0.21751 0.35611 0.92743 0.0
H3552 H 0.04407 0.58529 0.7099 0.0
H3553 H 0.01876 0.58751 0.70942 0.0
H3554 H 0.02032 0.60966 0.74802 0.0
H3555 H 0.04566 0.60762 0.74853 0.0
H3556 H 0.00037 0.57729 0.7295 0.0
H3557 H -0.00419 0.63408 0.72357 0.0
H3558 H 0.01173 0.62507 0.72008 0.0
H3559 H 0.00679 0.62874 0.73755 0.0
C3560 C 0.03905 0.59075 0.71823 0.0
C3561 C 0.04686 0.59629 0.72926 0.0
C3562 C 0.02459 0.592 0.71793 0.0
C3563 C 0.01771 0.59889 0.72859 0.0
C3564 C 0.02548 0.60454 0.73955 0.0
H3565 H 0.93113 0.61059 0.74961 0.0
H3566 H 0.95658 0.61087 0.74867 0.0
C3567 C 0.03994 0.60329 0.73987 0.0
C3568 C 0.00234 0.59944 0.72862 0.0
H3569 H 0.97497 0.62152 0.72836 0.0
C3570 C -0.0052 0.58695 0.72917 0.0
C3571 C -0.00485 0.61207 0.72826 0.0
C3572 C 0.00275 0.62577 0.72721 0.0
C3573 C 0.98022 0.58674 0.72957 0.0
C3574 C 0.97302 0.59936 0.72917 0.0
C3575 C 0.98055 0.61187 0.72865 0.0
C3576 C 0.95764 0.59975 0.72935 0.0
C3577 C 0.97267 0.57302 0.73076 0.0
C3578 C 0.94985 0.59367 0.71864 0.0
C3579 C 0.93533 0.59345 0.71916 0.0
C3580 C 0.92836 0.59941 0.73037 0.0
C3581 C 0.9362 0.60587 0.74087 0.0
C3582 C 0.95073 0.60606 0.74035 0.0
H3583 H 0.97966 0.56474 0.73442 0.0
H3584 H 0.96373 0.57372 0.73795 0.0
H3585 H 0.96858 0.56995 0.72047 0.0
H3586 H 0.95501 0.58898 0.70993 0.0
H3587 H 0.92959 0.58849 0.71086 0.0
H3588 H 0.36656 0.91942 0.74469 0.0
H3589 H 0.36261 0.94415 0.74782 0.0
H3590 H 0.39003 0.95323 0.71382 0.0
H3591 H 0.39421 0.92866 0.71071 0.0
H3592 H 0.39583 0.96867 0.73748 0.0
H3593 H 0.33962 0.97042 0.72386 0.0
H3594 H 0.34424 0.95816 0.73694 0.0
H3595 H 0.35036 0.95589 0.71962 0.0
C3596 C 0.37168 0.92667 0.73781 0.0
C3597 C 0.38071 0.92204 0.72745 0.0
C3598 C 0.36934 0.94079 0.73958 0.0
C3599 C 0.37591 0.9505 0.73095 0.0
C3600 C 0.38484 0.9459 0.72056 0.0
H3601 H 0.38284 0.03758 0.71771 0.0
H3602 H 0.38337 0.01239 0.71711 0.0
C3603 C 0.3872 0.93183 0.7188 0.0
C3604 C 0.37406 0.9655 0.73302 0.0
H3605 H 0.35028 -0.00867 0.73122 0.0
C3606 C 0.38587 0.97361 0.73615 0.0
C3607 C 0.36102 0.9719 0.73137 0.0
C3608 C 0.34808 0.9637 0.72766 0.0
C3609 C 0.38504 -0.01202 0.73748 0.0
C3610 C 0.37209 -0.00558 0.73545 0.0
C3611 C 0.36019 -0.01369 0.73272 0.0
C3612 C 0.37095 0.00963 0.73548 0.0
C3613 C 0.39804 -0.00381 0.74101 0.0
C3614 C 0.36341 0.01637 0.74579 0.0
C3615 C 0.36307 0.03081 0.74617 0.0
C3616 C 0.3702 0.03868 0.73618 0.0
C3617 C 0.37733 0.03183 0.72561 0.0
C3618 C 0.37768 0.01744 0.72527 0.0
H3619 H 0.40618 -0.01042 0.7456 0.0
H3620 H 0.40232 0.00089 0.73147 0.0
H3621 H 0.3957 0.00465 0.74835 0.0
H3622 H 0.35808 0.01047 0.75371 0.0
H3623 H 0.35745 0.03579 0.7544 0.0
H3624 H 0.0363 0.38249 0.71 0.0
H3625 H 0.01089 0.38185 0.71013 0.0
H3626 H 0.01133 0.35969 0.74869 0.0
H3627 H 0.03681 0.36048 0.74876 0.0
H3628 H -0.00792 0.35957 0.71091 0.0
H3629 H -0.01285 0.39309 0.75724 0.0
H3630 H 0.00334 0.39132 0.74808 0.0
H3631 H -0.0026 0.37789 0.75949 0.0
C3632 C 0.03101 0.37744 0.71849 0.0
C3633 C 0.03856 0.37164 0.72944 0.0
C3634 C 0.01649 0.37707 0.71854 0.0
C3635 C 0.00924 0.37092 0.72953 0.0
C3636 C 0.01673 0.36473 0.74025 0.0
H3637 H 0.91874 0.37103 0.74271 0.0
H3638 H 0.94347 0.3655 0.74494 0.0
C3639 C 0.03128 0.36512 0.74024 0.0
C3640 C -0.00616 0.37128 0.72974 0.0
H3641 H 0.96635 0.38513 0.74687 0.0
C3642 C -0.01356 0.36507 0.71882 0.0
C3643 C -0.01348 0.37842 0.74012 0.0
C3644 C -0.00603 0.38567 0.75185 0.0
C3645 C 0.97193 0.36605 0.71785 0.0
C3646 C 0.96468 0.37358 0.72796 0.0
C3647 C 0.97199 0.37936 0.73915 0.0
C3648 C 0.94968 0.37651 0.72651 0.0
C3649 C 0.96448 0.35914 0.70593 0.0
C3650 C 0.94507 0.38466 0.71552 0.0
C3651 C 0.93104 0.3879 0.71425 0.0
C3652 C 0.92129 0.38305 0.72397 0.0
C3653 C 0.92596 0.37489 0.73502 0.0
C3654 C 0.94006 0.37172 0.73632 0.0
H3655 H 0.97077 0.35077 0.70137 0.0
H3656 H 0.95428 0.35474 0.70922 0.0
H3657 H 0.96254 0.36691 0.69776 0.0
H3658 H 0.95239 0.38867 0.70799 0.0
H3659 H 0.92784 0.39423 0.70563 0.0
H3660 H 0.60266 0.92674 0.75308 0.0
H3661 H 0.60676 0.9518 0.75474 0.0
H3662 H 0.57918 0.95811 0.72025 0.0
H3663 H 0.57503 0.93333 0.71847 0.0
H3664 H 0.60664 0.97215 0.71911 0.0
H3665 H 0.57733 0.98112 0.76779 0.0
H3666 H 0.58995 0.96756 0.76729 0.0
H3667 H 0.57426 0.96591 0.75735 0.0
C3668 C 0.59745 0.93348 0.74588 0.0
C3669 C 0.58849 0.92801 0.73566 0.0
C3670 C 0.59978 0.94777 0.74687 0.0
C3671 C 0.59321 0.95676 0.73765 0.0
C3672 C 0.58434 0.95133 0.72745 0.0
H3673 H 0.5758 0.03678 0.71216 0.0
H3674 H 0.58074 0.01246 0.71572 0.0
C3675 C 0.58196 0.93713 0.72649 0.0
C3676 C 0.59547 0.97188 0.73832 0.0
H3677 H 0.58489 0.00067 0.75546 0.0
C3678 C 0.60212 0.9784 0.72719 0.0
C3679 C 0.58965 0.97996 0.74892 0.0
C3680 C 0.58233 0.97338 0.76104 0.0
C3681 C 0.60249 -0.00718 0.72601 0.0
C3682 C 0.59581 0.00089 0.73611 0.0
C3683 C 0.58995 -0.00557 0.74771 0.0
C3684 C 0.59338 0.0158 0.73396 0.0
C3685 C 0.60966 -0.00071 0.71375 0.0
C3686 C 0.59864 0.02574 0.74321 0.0
C3687 C 0.59582 0.03975 0.74121 0.0
C3688 C 0.58752 0.04398 0.73003 0.0
C3689 C 0.58225 0.03393 0.72086 0.0
C3690 C 0.58513 0.02 0.72282 0.0
H3691 H 0.61778 -0.00757 0.70954 0.0
H3692 H 0.60188 0.00105 0.70548 0.0
H3693 H 0.61454 0.00939 0.71651 0.0
H3694 H 0.60492 0.02266 0.75194 0.0
H3695 H 0.59999 0.04722 0.7485 0.0
H3696 H 0.93091 0.36129 0.21856 0.0
H3697 H 0.95642 0.36176 0.21892 0.0
H3698 H 0.95597 0.38554 0.25652 0.0
H3699 H 0.93054 0.38515 0.25626 0.0
H3700 H 0.97287 0.39662 0.23399 0.0
H3701 H 0.98371 0.34154 0.24585 0.0
H3702 H 0.9715 0.34501 0.23222 0.0
H3703 H 0.96719 0.34931 0.24966 0.0
C3704 C 0.93625 0.3665 0.22698 0.0
C3705 C 0.92871 0.3732 0.23737 0.0
C3706 C 0.95081 0.3667 0.22719 0.0
C3707 C 0.95803 0.3736 0.23779 0.0
C3708 C 0.95055 0.38013 0.24827 0.0
H3709 H 0.04008 0.39716 0.26294 0.0
H3710 H 0.01524 0.39334 0.25933 0.0
C3711 C 0.93603 0.37988 0.2481 0.0
C3712 C 0.9734 0.37473 0.23768 0.0
H3713 H 0.00308 0.35641 0.24269 0.0
C3714 C 0.97949 0.38783 0.23582 0.0
C3715 C 0.98196 0.3632 0.23991 0.0
C3716 C 0.97583 0.34895 0.24211 0.0
C3717 C -0.00604 0.38977 0.23639 0.0
C3718 C 0.00252 0.37835 0.2392 0.0
C3719 C -0.00353 0.36515 0.24059 0.0
C3720 C 0.01768 0.38012 0.24153 0.0
C3721 C -6e-05 0.40406 0.23398 0.0
C3722 C 0.02732 0.37355 0.23299 0.0
C3723 C 0.04162 0.37565 0.23508 0.0
C3724 C 0.04649 0.3843 0.24579 0.0
C3725 C 0.03674 0.39054 0.25451 0.0
C3726 C 0.02251 0.38843 0.25243 0.0
H3727 H -0.00733 0.41057 0.22799 0.0
H3728 H 0.00183 0.40917 0.24407 0.0
H3729 H 0.00999 0.40361 0.22838 0.0
H3730 H 0.02378 0.36701 0.22458 0.0
H3731 H 0.04884 0.37064 0.2282 0.0
H3732 H 0.57109 0.03489 0.24877 0.0
H3733 H 0.57301 0.01027 0.24428 0.0
H3734 H 0.60532 0.01837 0.21453 0.0
H3735 H 0.60351 0.04327 0.21896 0.0
H3736 H 0.56992 -0.00303 0.21685 0.0
H3737 H 0.62121 -0.01133 0.24239 0.0
H3738 H 0.61068 0.0034 0.24651 0.0
H3739 H 0.61945 0.00262 0.23025 0.0
C3740 C 0.57866 0.03152 0.24129 0.0
C3741 C 0.58717 0.04109 0.23424 0.0
C3742 C 0.57971 0.01742 0.23872 0.0
C3743 C 0.58933 0.01253 0.22913 0.0
C3744 C 0.5979 0.02197 0.22205 0.0
H3745 H 0.59948 0.9222 0.22088 0.0
H3746 H 0.60286 0.94688 0.21581 0.0
C3747 C 0.59682 0.03617 0.22458 0.0
C3748 C 0.59005 -0.0025 0.22664 0.0
H3749 H 0.60831 0.96894 0.2358 0.0
C3750 C 0.57844 -0.00917 0.22073 0.0
C3751 C 0.60123 -0.01043 0.23163 0.0
C3752 C 0.61388 -0.00366 0.23811 0.0
C3753 C 0.57735 0.97639 0.22036 0.0
C3754 C 0.58806 0.96846 0.22627 0.0
C3755 C 0.60011 0.97509 0.23133 0.0
C3756 C 0.58607 0.95352 0.22892 0.0
C3757 C 0.56452 0.96974 0.21411 0.0
C3758 C 0.57566 0.94917 0.23809 0.0
C3759 C 0.57376 0.9352 0.24106 0.0
C3760 C 0.58225 0.92523 0.23492 0.0
C3761 C 0.59273 0.92961 0.22573 0.0
C3762 C 0.59469 0.94368 0.22283 0.0
H3763 H 0.55954 0.97665 0.20646 0.0
H3764 H 0.56703 0.95983 0.20899 0.0
H3765 H 0.55685 0.96758 0.22239 0.0
H3766 H 0.56906 0.95664 0.24309 0.0
H3767 H 0.5656 0.93224 0.24819 0.0
H3768 H 0.03972 0.61235 0.22061 0.0
H3769 H 0.01441 0.61414 0.22247 0.0
H3770 H 0.01541 0.5918 0.26091 0.0
H3771 H 0.04069 0.59009 0.25922 0.0
H3772 H -0.00434 0.59186 0.2237 0.0
H3773 H -0.00875 0.62506 0.27011 0.0
H3774 H 0.00724 0.62352 0.26053 0.0
H3775 H 0.00205 0.61027 0.2725 0.0
C3776 C 0.03457 0.60795 0.22953 0.0
C3777 C 0.0422 0.60108 0.23977 0.0
C3778 C 0.02012 0.60898 0.23057 0.0
C3779 C 0.01308 0.60327 0.24192 0.0
C3780 C 0.02068 0.59653 0.25222 0.0
H3781 H 0.92754 0.5875 0.26442 0.0
H3782 H 0.95291 0.58999 0.26349 0.0
C3783 C 0.03512 0.59549 0.25119 0.0
C3784 C -0.00229 0.60352 0.24253 0.0
H3785 H 0.97042 0.61387 0.26229 0.0
C3786 C -0.00988 0.59679 0.23205 0.0
C3787 C -0.00945 0.60989 0.25349 0.0
C3788 C -0.00183 0.61771 0.26474 0.0
C3789 C 0.97556 0.59595 0.23242 0.0
C3790 C 0.9684 0.60223 0.24344 0.0
C3791 C 0.97596 0.60907 0.25386 0.0
C3792 C 0.95305 0.60156 0.24442 0.0
C3793 C 0.96798 0.58797 0.22125 0.0
C3794 C 0.94475 0.60755 0.23418 0.0
C3795 C 0.93028 0.60611 0.23465 0.0
C3796 C 0.92386 0.59873 0.24543 0.0
C3797 C 0.93218 0.59319 0.25595 0.0
C3798 C 0.94666 0.59461 0.25545 0.0
H3799 H 0.97505 0.58107 0.2155 0.0
H3800 H 0.95936 0.58162 0.22564 0.0
H3801 H 0.96344 0.59533 0.21378 0.0
H3802 H 0.94948 0.61318 0.22572 0.0
H3803 H 0.92415 0.6106 0.22645 0.0
H3804 H 0.3678 0.04855 0.22103 0.0
H3805 H 0.36353 0.0237 0.21799 0.0
H3806 H 0.39076 0.01527 0.25231 0.0
H3807 H 0.39524 0.0399 0.25531 0.0
H3808 H 0.39623 -0.00051 0.22896 0.0
H3809 H 0.33994 -0.00233 0.24226 0.0
H3810 H 0.34496 0.00967 0.22898 0.0
H3811 H 0.35101 0.01235 0.24632 0.0
C3812 C 0.37283 0.0414 0.22797 0.0
C3813 C 0.38186 0.04623 0.23842 0.0
C3814 C 0.37031 0.02722 0.22626 0.0
C3815 C 0.37671 0.01767 0.23503 0.0
C3816 C 0.38569 0.02247 0.24545 0.0
H3817 H 0.38184 0.93167 0.25249 0.0
H3818 H 0.3828 0.95687 0.25161 0.0
C3819 C 0.38824 0.03658 0.24714 0.0
C3820 C 0.37452 0.00261 0.23322 0.0
H3821 H 0.35029 0.97661 0.23606 0.0
C3822 C 0.38617 -0.0055 0.23043 0.0
C3823 C 0.36137 -0.00386 0.23507 0.0
C3824 C 0.34859 0.00435 0.23842 0.0
C3825 C 0.38508 0.98007 0.22973 0.0
C3826 C 0.37203 0.97358 0.23204 0.0
C3827 C 0.36027 0.98167 0.23434 0.0
C3828 C 0.37066 0.95838 0.23286 0.0
C3829 C 0.39792 0.97185 0.22665 0.0
C3830 C 0.36317 0.95095 0.22281 0.0
C3831 C 0.3626 0.9365 0.22327 0.0
C3832 C 0.36944 0.92932 0.23387 0.0
C3833 C 0.37653 0.93688 0.24416 0.0
C3834 C 0.37713 0.95127 0.24365 0.0
H3835 H 0.4062 0.97834 0.22184 0.0
H3836 H 0.4021 0.9676 0.23642 0.0
H3837 H 0.39541 0.96306 0.21967 0.0
H3838 H 0.35805 0.9563 0.21445 0.0
H3839 H 0.35701 0.93097 0.21523 0.0
H3840 H 0.71466 0.03748 0.58538 0.0
H3841 H 0.71567 0.01227 0.58521 0.0
H3842 H 0.75419 0.01403 0.60808 0.0
H3843 H 0.75329 0.03931 0.60833 0.0
H3844 H 0.73905 -0.00308 0.5738 0.0
H3845 H 0.72882 -0.01464 0.62915 0.0
H3846 H 0.72393 0.00149 0.62126 0.0
H3847 H 0.74182 -0.00165 0.6253 0.0
C3848 C 0.72329 0.03252 0.59049 0.0
C3849 C 0.73391 0.04038 0.59685 0.0
C3850 C 0.72385 0.01812 0.59037 0.0
C3851 C 0.73494 0.01133 0.59671 0.0
C3852 C 0.74545 0.01911 0.60328 0.0
H3853 H 0.74885 0.92196 0.60129 0.0
H3854 H 0.7516 0.94704 0.60415 0.0
C3855 C 0.74494 0.03353 0.60336 0.0
C3856 C 0.73581 -0.00387 0.59574 0.0
H3857 H 0.73276 0.96641 0.61446 0.0
C3858 C 0.73774 -0.00977 0.58269 0.0
C3859 C 0.73426 -0.0125 0.60739 0.0
C3860 C 0.73201 -0.00658 0.62159 0.0
C3861 C 0.73794 0.97587 0.58092 0.0
C3862 C 0.73582 0.9672 0.59248 0.0
C3863 C 0.73434 0.9731 0.60562 0.0
C3864 C 0.73421 0.95205 0.59095 0.0
C3865 C 0.74042 0.97013 0.56668 0.0
C3866 C 0.72338 0.9466 0.5828 0.0
C3867 C 0.72181 0.93237 0.58111 0.0
C3868 C 0.73096 0.92323 0.58765 0.0
C3869 C 0.74166 0.92871 0.59606 0.0
C3870 C 0.74324 0.94301 0.59772 0.0
H3871 H 0.74606 0.97769 0.56005 0.0
H3872 H 0.74649 0.96047 0.56714 0.0
H3873 H 0.73025 0.96776 0.5617 0.0
H3874 H 0.71608 0.95338 0.57776 0.0
H3875 H 0.71336 0.92855 0.57467 0.0
H3876 H 0.75308 0.03873 0.36516 0.0
H3877 H 0.75409 0.01342 0.36471 0.0
H3878 H 0.71445 0.0109 0.38528 0.0
H3879 H 0.71331 0.03607 0.38576 0.0
H3880 H 0.73864 -0.0042 0.39765 0.0
H3881 H 0.72878 0.98471 0.342 0.0
H3882 H 0.74102 -0.00175 0.34656 0.0
H3883 H 0.7229 0.00038 0.35011 0.0
C3884 C 0.74451 0.03277 0.36945 0.0
C3885 C 0.73313 0.03939 0.37554 0.0
C3886 C 0.74509 0.01835 0.36914 0.0
C3887 C 0.73431 0.01036 0.37491 0.0
C3888 C 0.72284 0.01693 0.38075 0.0
H3889 H 0.71114 0.92834 0.39651 0.0
H3890 H 0.71449 0.95307 0.39324 0.0
C3891 C 0.72222 0.03131 0.38101 0.0
C3892 C 0.73526 -0.00482 0.37571 0.0
H3893 H 0.73154 0.96563 0.35676 0.0
C3894 C 0.7372 -0.01082 0.38871 0.0
C3895 C 0.73355 -0.01335 0.36398 0.0
C3896 C 0.73139 -0.00727 0.34983 0.0
C3897 C 0.73712 0.97482 0.39037 0.0
C3898 C 0.7347 0.96625 0.37875 0.0
C3899 C 0.73332 0.97224 0.36565 0.0
C3900 C 0.73261 0.95115 0.38024 0.0
C3901 C 0.73955 0.96895 0.40457 0.0
C3902 C 0.74142 0.94183 0.37361 0.0
C3903 C 0.73948 0.92758 0.37538 0.0
C3904 C 0.72864 0.92246 0.38376 0.0
C3905 C 0.71968 0.93188 0.3901 0.0
C3906 C 0.72161 0.94606 0.3883 0.0
H3907 H 0.74541 0.97634 0.41125 0.0
H3908 H 0.72936 0.9668 0.40954 0.0
H3909 H 0.74537 0.95914 0.40405 0.0
H3910 H 0.74991 0.94559 0.36725 0.0
H3911 H 0.74653 0.92061 0.3703 0.0
H3912 H 0.92801 0.7472 0.35748 0.0
H3913 H 0.95332 0.74548 0.35587 0.0
H3914 H 0.95195 0.70817 0.38009 0.0
H3915 H 0.92663 0.70972 0.38165 0.0
H3916 H 0.97165 0.74551 0.37846 0.0
H3917 H 0.9767 0.69773 0.3473 0.0
H3918 H 0.9607 0.70724 0.34823 0.0
H3919 H 0.96562 0.69599 0.36209 0.0
C3920 C 0.93307 0.73854 0.36234 0.0
C3921 C 0.92533 0.7286 0.3697 0.0
C3922 C 0.94753 0.73758 0.3614 0.0
C3923 C 0.95447 0.72661 0.36771 0.0
C3924 C 0.94676 0.71657 0.37492 0.0
H3925 H 0.04043 0.70646 0.38323 0.0
H3926 H 0.01505 0.70663 0.38106 0.0
C3927 C 0.93231 0.71752 0.37587 0.0
C3928 C 0.96985 0.7262 0.36755 0.0
H3929 H -0.00261 0.70664 0.35774 0.0
C3930 C 0.9773 0.73708 0.37383 0.0
C3931 C 0.97715 0.71512 0.36158 0.0
C3932 C 0.96966 0.7034 0.35431 0.0
C3933 C -0.00814 0.73706 0.37456 0.0
C3934 C -0.00082 0.72599 0.3686 0.0
C3935 C -0.00826 0.71512 0.36227 0.0
C3936 C 0.01455 0.72545 0.36907 0.0
C3937 C -0.00073 0.7487 0.38206 0.0
C3938 C 0.02266 0.73578 0.36274 0.0
C3939 C 0.03714 0.73575 0.364 0.0
C3940 C 0.04376 0.72532 0.37154 0.0
C3941 C 0.03563 0.71468 0.37741 0.0
C3942 C 0.02114 0.71474 0.37617 0.0
H3943 H -0.00787 0.75442 0.38893 0.0
H3944 H 0.00803 0.74476 0.38836 0.0
H3945 H 0.00359 0.75611 0.37441 0.0
H3946 H 0.01777 0.74397 0.35697 0.0
H3947 H 0.04312 0.74402 0.35926 0.0
H3948 H 0.22685 0.04802 0.36185 0.0
H3949 H 0.22414 0.02327 0.35686 0.0
H3950 H 0.24745 0.01364 0.39356 0.0
H3951 H 0.25034 0.03822 0.3986 0.0
H3952 H 0.24897 0.00283 0.35537 0.0
H3953 H 0.20827 -0.00877 0.3945 0.0
H3954 H 0.21083 0.00825 0.3872 0.0
H3955 H 0.22265 0.00201 0.40005 0.0
C3956 C 0.23135 0.04063 0.36888 0.0
C3957 C 0.23881 0.04509 0.38063 0.0
C3958 C 0.22982 0.02653 0.36599 0.0
C3959 C 0.23554 0.01671 0.3749 0.0
C3960 C 0.2429 0.02111 0.38664 0.0
H3961 H 0.25823 0.93237 0.37531 0.0
H3962 H 0.257 0.95755 0.37415 0.0
C3963 C 0.24456 0.03516 0.38946 0.0
C3964 C 0.23415 0.0018 0.37193 0.0
H3965 H 0.21951 0.97206 0.38436 0.0
C3966 C 0.2424 -0.00391 0.36155 0.0
C3967 C 0.22549 -0.00687 0.37999 0.0
C3968 C 0.2162 -0.00109 0.39102 0.0
C3969 C 0.24266 0.98176 0.35941 0.0
C3970 C 0.23452 0.97302 0.36793 0.0
C3971 C 0.22578 0.97881 0.37788 0.0
C3972 C 0.23555 0.95781 0.36733 0.0
C3973 C 0.25179 0.97604 0.34822 0.0
C3974 C 0.22388 0.94964 0.36391 0.0
C3975 C 0.22455 0.93524 0.36453 0.0
C3976 C 0.23686 0.9288 0.3688 0.0
C3977 C 0.2486 0.93703 0.37198 0.0
C3978 C 0.24795 0.95141 0.37125 0.0
H3979 H 0.25451 0.98403 0.34042 0.0
H3980 H 0.2616 0.97232 0.35289 0.0
H3981 H 0.24659 0.96718 0.34294 0.0
H3982 H 0.21419 0.95442 0.36096 0.0
H3983 H 0.21532 0.92919 0.36206 0.0
H3984 H 0.04165 0.25728 0.38128 0.0
H3985 H 0.01641 0.25993 0.38038 0.0
H3986 H 0.01242 0.22172 0.35774 0.0
H3987 H 0.03771 0.21906 0.35843 0.0
H3988 H -0.00395 0.24343 0.34718 0.0
H3989 H -0.01085 0.23679 0.40367 0.0
H3990 H 0.00142 0.25008 0.39888 0.0
H3991 H 0.00503 0.23235 0.39494 0.0
C3992 C 0.03541 0.24945 0.37608 0.0
C3993 C 0.04165 0.2379 0.37002 0.0
C3994 C 0.021 0.25096 0.37562 0.0
C3995 C 0.01256 0.2409 0.3692 0.0
C3996 C 0.01877 0.22955 0.36281 0.0
H3997 H 0.92428 0.22569 0.35951 0.0
H3998 H 0.94963 0.22574 0.35767 0.0
C3999 C 0.0332 0.22804 0.36323 0.0
C4000 C -0.00276 0.24212 0.36931 0.0
H4001 H 0.96925 0.24297 0.39083 0.0
C4002 C -0.00984 0.24332 0.3567 0.0
C4003 C -0.01036 0.24196 0.38178 0.0
C4004 C -0.00335 0.2401 0.39559 0.0
C4005 C 0.97563 0.24453 0.35623 0.0
C4006 C 0.96803 0.24433 0.3687 0.0
C4007 C 0.97513 0.2432 0.3813 0.0
C4008 C 0.95266 0.24484 0.36895 0.0
C4009 C 0.96856 0.24622 0.34244 0.0
C4010 C 0.94599 0.2555 0.37602 0.0
C4011 C 0.9315 0.25546 0.37716 0.0
C4012 C 0.92346 0.2447 0.37134 0.0
C4013 C 0.93018 0.23415 0.36407 0.0
C4014 C 0.94466 0.2342 0.36293 0.0
H4015 H 0.97595 0.24987 0.33441 0.0
H4016 H 0.96419 0.23609 0.33907 0.0
H4017 H 0.95987 0.25362 0.34314 0.0
H4018 H 0.95201 0.26376 0.3808 0.0
H4019 H 0.92663 0.26373 0.38283 0.0
H4020 H 0.25814 0.04026 0.5767 0.0
H4021 H 0.25529 0.01572 0.58167 0.0
H4022 H 0.22 0.02433 0.60745 0.0
H4023 H 0.22273 0.04907 0.60252 0.0
H4024 H 0.25501 0.00273 0.60907 0.0
H4025 H 0.20618 -0.00562 0.57884 0.0
H4026 H 0.21752 0.00913 0.57599 0.0
H4027 H 0.20674 0.00841 0.59104 0.0
C4028 C 0.24974 0.037 0.58342 0.0
C4029 C 0.24063 0.04666 0.58918 0.0
C4030 C 0.24816 0.02295 0.58627 0.0
C4031 C 0.2374 0.01824 0.59484 0.0
C4032 C 0.2283 0.02779 0.60069 0.0
H4033 H 0.21603 0.93081 0.60818 0.0
H4034 H 0.21605 0.95604 0.61019 0.0
C4035 C 0.2299 0.04191 0.5979 0.0
C4036 C 0.23586 0.00328 0.59753 0.0
H4037 H 0.21626 0.97488 0.58894 0.0
C4038 C 0.24647 -0.00337 0.60481 0.0
C4039 C 0.22465 -0.00458 0.59203 0.0
C4040 C 0.21312 0.00211 0.58396 0.0
C4041 C 0.24635 0.98225 0.60644 0.0
C4042 C 0.2355 0.9743 0.60035 0.0
C4043 C 0.22458 0.98101 0.59357 0.0
C4044 C 0.23583 0.95901 0.59996 0.0
C4045 C 0.25791 0.97569 0.61458 0.0
C4046 C 0.24691 0.95234 0.59349 0.0
C4047 C 0.24695 0.93798 0.59235 0.0
C4048 C 0.23583 0.92999 0.59754 0.0
C4049 C 0.22477 0.93668 0.60411 0.0
C4050 C 0.22475 0.95108 0.60526 0.0
H4051 H 0.26256 0.98306 0.62214 0.0
H4052 H 0.25414 0.96638 0.62019 0.0
H4053 H 0.26627 0.97255 0.60741 0.0
H4054 H 0.2554 0.95828 0.58902 0.0
H4055 H 0.25559 0.93316 0.58716 0.0
H4056 H 0.93366 0.25769 0.5853 0.0
H4057 H 0.95906 0.25785 0.5861 0.0
H4058 H 0.95824 0.21957 0.60879 0.0
H4059 H 0.93276 0.2192 0.60785 0.0
H4060 H 0.97738 0.25764 0.6086 0.0
H4061 H 0.98317 0.2109 0.57579 0.0
H4062 H 0.96693 0.21988 0.57725 0.0
H4063 H 0.97258 0.20872 0.59089 0.0
C4064 C 0.93886 0.24931 0.59049 0.0
C4065 C 0.93121 0.23837 0.59641 0.0
C4066 C 0.95338 0.24944 0.59096 0.0
C4067 C 0.96052 0.23862 0.59732 0.0
C4068 C 0.95292 0.22788 0.6036 0.0
H4069 H 0.051 0.2264 0.59798 0.0
H4070 H 0.02618 0.22401 0.60342 0.0
C4071 C 0.93837 0.22773 0.60311 0.0
C4072 C 0.97593 0.23862 0.59713 0.0
H4073 H 0.00377 0.22168 0.58381 0.0
C4074 C 0.98316 0.24973 0.60327 0.0
C4075 C 0.98344 0.22824 0.59021 0.0
C4076 C 0.97617 0.2163 0.58305 0.0
C4077 C -0.00231 0.25089 0.60244 0.0
C4078 C 0.00515 0.24077 0.59513 0.0
C4079 C -0.00201 0.2294 0.58942 0.0
C4080 C 0.0202 0.24238 0.59234 0.0
C4081 C 0.00496 0.26301 0.60927 0.0
C4082 C 0.02499 0.2534 0.58419 0.0
C4083 C 0.03908 0.25476 0.58101 0.0
C4084 C 0.0487 0.2451 0.5859 0.0
C4085 C 0.04388 0.23405 0.59409 0.0
C4086 C 0.02972 0.23266 0.59721 0.0
H4087 H -0.00151 0.26753 0.61756 0.0
H4088 H 0.0151 0.25993 0.61375 0.0
H4089 H 0.00697 0.27115 0.60146 0.0
H4090 H 0.01776 0.26086 0.58011 0.0
H4091 H 0.0424 0.26339 0.57466 0.0
H4092 H 0.03667 0.7111 0.58696 0.0
H4093 H 0.01126 0.71126 0.5875 0.0
H4094 H 0.01249 0.74922 0.61079 0.0
H4095 H 0.03796 0.74928 0.6101 0.0
H4096 H -0.00722 0.71136 0.6096 0.0
H4097 H -0.01209 0.75882 0.57775 0.0
H4098 H 0.00403 0.74962 0.5793 0.0
H4099 H -0.00162 0.76063 0.59305 0.0
C4100 C 0.03155 0.71947 0.59224 0.0
C4101 C 0.03932 0.73025 0.59838 0.0
C4102 C 0.01703 0.71953 0.59255 0.0
C4103 C 0.01 0.73036 0.59899 0.0
C4104 C 0.01772 0.74091 0.60553 0.0
H4105 H 0.91982 0.74412 0.59971 0.0
H4106 H 0.94472 0.74591 0.60513 0.0
C4107 C 0.03226 0.74089 0.60518 0.0
C4108 C -0.0054 0.7306 0.5986 0.0
H4109 H 0.9671 0.74832 0.58545 0.0
C4110 C -0.01285 0.71948 0.6044 0.0
C4111 C -0.01271 0.74125 0.59185 0.0
C4112 C -0.00523 0.75321 0.58502 0.0
C4113 C 0.9726 0.71859 0.60342 0.0
C4114 C 0.96535 0.72901 0.5963 0.0
C4115 C 0.97273 0.74037 0.59091 0.0
C4116 C 0.95025 0.72778 0.59345 0.0
C4117 C 0.9651 0.70646 0.6099 0.0
C4118 C 0.9452 0.71709 0.58497 0.0
C4119 C 0.93106 0.71608 0.58179 0.0
C4120 C 0.92165 0.72575 0.58704 0.0
C4121 C 0.92676 0.73647 0.59555 0.0
C4122 C 0.94097 0.73752 0.59865 0.0
H4123 H 0.97151 0.70155 0.61804 0.0
H4124 H 0.95508 0.70966 0.61448 0.0
H4125 H 0.96283 0.69859 0.60185 0.0
H4126 H 0.95225 0.70962 0.58064 0.0
H4127 H 0.92751 0.7077 0.57519 0.0
loop_
_geom_bond_atom_site_label_1
_geom_bond_atom_site_label_2
_geom_bond_distance
_geom_bond_site_symmetry_2
_ccdc_geom_bond_type
C0 O1 1.306 . S
C0 O3 1.160 . S
O1 C0 1.306 . S
O1 Cd2 2.228 . S
Cd2 O1 2.228 . S
Cd2 O6 2.273 . S
Cd2 O10 2.277 . S
O3 C0 1.160 . S
O3 Cd4 2.203 . S
Cd4 O3 2.203 . S
Cd4 O6 2.411 . S
Cd4 O7 2.333 . S
Cd4 O8 2.352 . S
Cd4 O12 2.277 . S
Cd4 O13 2.356 . S
C5 O10 1.209 . S
C5 O12 1.226 . S
O6 Cd2 2.273 . S
O6 Cd4 2.411 . S
O6 C9 1.320 . S
O7 Cd4 2.333 . S
O7 C9 1.214 . S
O8 Cd4 2.352 . S
O8 C11 1.258 . S
C9 O6 1.320 . S
C9 O7 1.214 . S
O10 Cd2 2.277 . S
O10 C5 1.209 . S
C11 O8 1.258 . S
C11 O13 1.282 . S
O12 Cd4 2.277 . S
O12 C5 1.226 . S
O13 Cd4 2.356 . S
O13 C11 1.282 . S
C14 O15 1.306 . S
C14 O17 1.160 . S
O15 C14 1.306 . S
O15 Cd16 2.228 . S
Cd16 O15 2.228 . S
Cd16 O20 2.273 . S
Cd16 O24 2.277 . S
O17 C14 1.160 . S
O17 Cd18 2.203 . S
Cd18 O17 2.203 . S
Cd18 O20 2.411 . S
Cd18 O21 2.333 . S
Cd18 O22 2.352 . S
Cd18 O26 2.277 . S
Cd18 O27 2.356 . S
C19 O24 1.209 . S
C19 O26 1.226 . S
O20 Cd16 2.273 . S
O20 Cd18 2.411 . S
O20 C23 1.320 . S
O21 Cd18 2.333 . S
O21 C23 1.214 . S
O22 Cd18 2.352 . S
O22 C25 1.258 . S
C23 O20 1.320 . S
C23 O21 1.214 . S
O24 Cd16 2.277 . S
O24 C19 1.209 . S
C25 O22 1.258 . S
C25 O27 1.282 . S
O26 Cd18 2.277 . S
O26 C19 1.226 . S
O27 Cd18 2.356 . S
O27 C25 1.282 . S
C28 O29 1.306 . S
C28 O31 1.160 . S
O29 C28 1.306 . S
O29 Cd30 2.228 . S
Cd30 O29 2.228 . S
Cd30 O34 2.273 . S
Cd30 O38 2.277 . S
O31 C28 1.160 . S
O31 Cd32 2.203 . S
Cd32 O31 2.203 . S
Cd32 O34 2.411 . S
Cd32 O35 2.333 . S
Cd32 O36 2.352 . S
Cd32 O40 2.277 . S
Cd32 O41 2.356 . S
C33 O38 1.209 . S
C33 O40 1.226 . S
O34 Cd30 2.273 . S
O34 Cd32 2.411 . S
O34 C37 1.320 . S
O35 Cd32 2.333 . S
O35 C37 1.214 . S
O36 Cd32 2.352 . S
O36 C39 1.258 . S
C37 O34 1.320 . S
C37 O35 1.214 . S
O38 Cd30 2.277 . S
O38 C33 1.209 . S
C39 O36 1.258 . S
C39 O41 1.282 . S
O40 Cd32 2.277 . S
O40 C33 1.226 . S
O41 Cd32 2.356 . S
O41 C39 1.282 . S
C42 O43 1.306 . S
C42 O45 1.160 . S
O43 C42 1.306 . S
O43 Cd44 2.228 . S
Cd44 O43 2.228 . S
Cd44 O48 2.273 . S
Cd44 O52 2.277 . S
O45 C42 1.160 . S
O45 Cd46 2.203 . S
Cd46 O45 2.203 . S
Cd46 O48 2.411 . S
Cd46 O49 2.333 . S
Cd46 O50 2.352 . S
Cd46 O54 2.277 . S
Cd46 O55 2.356 . S
C47 O52 1.209 . S
C47 O54 1.226 . S
O48 Cd44 2.273 . S
O48 Cd46 2.411 . S
O48 C51 1.320 . S
O49 Cd46 2.333 . S
O49 C51 1.214 . S
O50 Cd46 2.352 . S
O50 C53 1.258 . S
C51 O48 1.320 . S
C51 O49 1.214 . S
O52 Cd44 2.277 . S
O52 C47 1.209 . S
C53 O50 1.258 . S
C53 O55 1.282 . S
O54 Cd46 2.277 . S
O54 C47 1.226 . S
O55 Cd46 2.356 . S
O55 C53 1.282 . S
C56 O57 1.306 . S
C56 O59 1.160 . S
O57 C56 1.306 . S
O57 Cd58 2.228 . S
Cd58 O57 2.228 . S
Cd58 O62 2.273 . S
Cd58 O66 2.277 . S
O59 C56 1.160 . S
O59 Cd60 2.203 . S
Cd60 O59 2.203 . S
Cd60 O62 2.411 . S
Cd60 O63 2.333 . S
Cd60 O64 2.352 . S
Cd60 O68 2.277 . S
Cd60 O69 2.356 . S
C61 O66 1.209 . S
C61 O68 1.226 . S
O62 Cd58 2.273 . S
O62 Cd60 2.411 . S
O62 C65 1.320 . S
O63 Cd60 2.333 . S
O63 C65 1.214 . S
O64 Cd60 2.352 . S
O64 C67 1.258 . S
C65 O62 1.320 . S
C65 O63 1.214 . S
O66 Cd58 2.277 . S
O66 C61 1.209 . S
C67 O64 1.258 . S
C67 O69 1.282 . S
O68 Cd60 2.277 . S
O68 C61 1.226 . S
O69 Cd60 2.356 . S
O69 C67 1.282 . S
C70 O71 1.306 . S
C70 O73 1.160 . S
O71 C70 1.306 . S
O71 Cd72 2.228 . S
Cd72 O71 2.228 . S
Cd72 O76 2.273 . S
Cd72 O80 2.277 . S
O73 C70 1.160 . S
O73 Cd74 2.203 . S
Cd74 O73 2.203 . S
Cd74 O76 2.411 . S
Cd74 O77 2.333 . S
Cd74 O78 2.352 . S
Cd74 O82 2.277 . S
Cd74 O83 2.356 . S
C75 O80 1.209 . S
C75 O82 1.226 . S
O76 Cd72 2.273 . S
O76 Cd74 2.411 . S
O76 C79 1.320 . S
O77 Cd74 2.333 . S
O77 C79 1.214 . S
O78 Cd74 2.352 . S
O78 C81 1.258 . S
C79 O76 1.320 . S
C79 O77 1.214 . S
O80 Cd72 2.277 . S
O80 C75 1.209 . S
C81 O78 1.258 . S
C81 O83 1.282 . S
O82 Cd74 2.277 . S
O82 C75 1.226 . S
O83 Cd74 2.356 . S
O83 C81 1.282 . S
C84 O85 1.306 . S
C84 O87 1.160 . S
O85 C84 1.306 . S
O85 Cd86 2.228 . S
Cd86 O85 2.228 . S
Cd86 O90 2.273 . S
Cd86 O94 2.277 . S
O87 C84 1.160 . S
O87 Cd88 2.203 . S
Cd88 O87 2.203 . S
Cd88 O90 2.411 . S
Cd88 O91 2.333 . S
Cd88 O92 2.352 . S
Cd88 O96 2.277 . S
Cd88 O97 2.356 . S
C89 O94 1.209 . S
C89 O96 1.226 . S
O90 Cd86 2.273 . S
O90 Cd88 2.411 . S
O90 C93 1.320 . S
O91 Cd88 2.333 . S
O91 C93 1.214 . S
O92 Cd88 2.352 . S
O92 C95 1.258 . S
C93 O90 1.320 . S
C93 O91 1.214 . S
O94 Cd86 2.277 . S
O94 C89 1.209 . S
C95 O92 1.258 . S
C95 O97 1.282 . S
O96 Cd88 2.277 . S
O96 C89 1.226 . S
O97 Cd88 2.356 . S
O97 C95 1.282 . S
C98 O99 1.306 . S
C98 O101 1.160 . S
O99 C98 1.306 . S
O99 Cd100 2.228 . S
Cd100 O99 2.228 . S
Cd100 O104 2.273 . S
Cd100 O108 2.277 . S
O101 C98 1.160 . S
O101 Cd102 2.203 . S
Cd102 O101 2.203 . S
Cd102 O104 2.411 . S
Cd102 O105 2.333 . S
Cd102 O106 2.352 . S
Cd102 O110 2.277 . S
Cd102 O111 2.356 . S
C103 O108 1.209 . S
C103 O110 1.226 . S
O104 Cd100 2.273 . S
O104 Cd102 2.411 . S
O104 C107 1.320 . S
O105 Cd102 2.333 . S
O105 C107 1.214 . S
O106 Cd102 2.352 . S
O106 C109 1.258 . S
C107 O104 1.320 . S
C107 O105 1.214 . S
O108 Cd100 2.277 . S
O108 C103 1.209 . S
C109 O106 1.258 . S
C109 O111 1.282 . S
O110 Cd102 2.277 . S
O110 C103 1.226 . S
O111 Cd102 2.356 . S
O111 C109 1.282 . S
C112 O113 1.306 . S
C112 O115 1.160 . S
O113 C112 1.306 . S
O113 Cd114 2.228 . S
Cd114 O113 2.228 . S
Cd114 O118 2.273 . S
Cd114 O122 2.277 . S
O115 C112 1.160 . S
O115 Cd116 2.203 . S
Cd116 O115 2.203 . S
Cd116 O118 2.411 . S
Cd116 O119 2.333 . S
Cd116 O120 2.352 . S
Cd116 O124 2.277 . S
Cd116 O125 2.356 . S
C117 O122 1.209 . S
C117 O124 1.226 . S
O118 Cd114 2.273 . S
O118 Cd116 2.411 . S
O118 C121 1.320 . S
O119 Cd116 2.333 . S
O119 C121 1.214 . S
O120 Cd116 2.352 . S
O120 C123 1.258 . S
C121 O118 1.320 . S
C121 O119 1.214 . S
O122 Cd114 2.277 . S
O122 C117 1.209 . S
C123 O120 1.258 . S
C123 O125 1.282 . S
O124 Cd116 2.277 . S
O124 C117 1.226 . S
O125 Cd116 2.356 . S
O125 C123 1.282 . S
C126 O127 1.306 . S
C126 O129 1.160 . S
O127 C126 1.306 . S
O127 Cd128 2.228 . S
Cd128 O127 2.228 . S
Cd128 O132 2.273 . S
Cd128 O136 2.277 . S
O129 C126 1.160 . S
O129 Cd130 2.203 . S
Cd130 O129 2.203 . S
Cd130 O132 2.411 . S
Cd130 O133 2.333 . S
Cd130 O134 2.352 . S
Cd130 O138 2.277 . S
Cd130 O139 2.356 . S
C131 O136 1.209 . S
C131 O138 1.226 . S
O132 Cd128 2.273 . S
O132 Cd130 2.411 . S
O132 C135 1.320 . S
O133 Cd130 2.333 . S
O133 C135 1.214 . S
O134 Cd130 2.352 . S
O134 C137 1.258 . S
C135 O132 1.320 . S
C135 O133 1.214 . S
O136 Cd128 2.277 . S
O136 C131 1.209 . S
C137 O134 1.258 . S
C137 O139 1.282 . S
O138 Cd130 2.277 . S
O138 C131 1.226 . S
O139 Cd130 2.356 . S
O139 C137 1.282 . S
C140 O141 1.306 . S
C140 O143 1.160 . S
O141 C140 1.306 . S
O141 Cd142 2.228 . S
Cd142 O141 2.228 . S
Cd142 O146 2.273 . S
Cd142 O150 2.277 . S
O143 C140 1.160 . S
O143 Cd144 2.203 . S
Cd144 O143 2.203 . S
Cd144 O146 2.411 . S
Cd144 O147 2.333 . S
Cd144 O148 2.352 . S
Cd144 O152 2.277 . S
Cd144 O153 2.356 . S
C145 O150 1.209 . S
C145 O152 1.226 . S
O146 Cd142 2.273 . S
O146 Cd144 2.411 . S
O146 C149 1.320 . S
O147 Cd144 2.333 . S
O147 C149 1.214 . S
O148 Cd144 2.352 . S
O148 C151 1.258 . S
C149 O146 1.320 . S
C149 O147 1.214 . S
O150 Cd142 2.277 . S
O150 C145 1.209 . S
C151 O148 1.258 . S
C151 O153 1.282 . S
O152 Cd144 2.277 . S
O152 C145 1.226 . S
O153 Cd144 2.356 . S
O153 C151 1.282 . S
C154 O155 1.306 . S
C154 O157 1.160 . S
O155 C154 1.306 . S
O155 Cd156 2.228 . S
Cd156 O155 2.228 . S
Cd156 O160 2.273 . S
Cd156 O164 2.277 . S
O157 C154 1.160 . S
O157 Cd158 2.203 . S
Cd158 O157 2.203 . S
Cd158 O160 2.411 . S
Cd158 O161 2.333 . S
Cd158 O162 2.352 . S
Cd158 O166 2.277 . S
Cd158 O167 2.356 . S
C159 O164 1.209 . S
C159 O166 1.226 . S
O160 Cd156 2.273 . S
O160 Cd158 2.411 . S
O160 C163 1.320 . S
O161 Cd158 2.333 . S
O161 C163 1.214 . S
O162 Cd158 2.352 . S
O162 C165 1.258 . S
C163 O160 1.320 . S
C163 O161 1.214 . S
O164 Cd156 2.277 . S
O164 C159 1.209 . S
C165 O162 1.258 . S
C165 O167 1.282 . S
O166 Cd158 2.277 . S
O166 C159 1.226 . S
O167 Cd158 2.356 . S
O167 C165 1.282 . S
C168 O169 1.306 . S
C168 O171 1.160 . S
O169 C168 1.306 . S
O169 Cd170 2.228 . S
Cd170 O169 2.228 . S
Cd170 O174 2.273 . S
Cd170 O178 2.277 . S
O171 C168 1.160 . S
O171 Cd172 2.203 . S
Cd172 O171 2.203 . S
Cd172 O174 2.411 . S
Cd172 O175 2.333 . S
Cd172 O176 2.352 . S
Cd172 O180 2.277 . S
Cd172 O181 2.356 . S
C173 O178 1.209 . S
C173 O180 1.226 . S
O174 Cd170 2.273 . S
O174 Cd172 2.411 . S
O174 C177 1.320 . S
O175 Cd172 2.333 . S
O175 C177 1.214 . S
O176 Cd172 2.352 . S
O176 C179 1.258 . S
C177 O174 1.320 . S
C177 O175 1.214 . S
O178 Cd170 2.277 . S
O178 C173 1.209 . S
C179 O176 1.258 . S
C179 O181 1.282 . S
O180 Cd172 2.277 . S
O180 C173 1.226 . S
O181 Cd172 2.356 . S
O181 C179 1.282 . S
C182 O183 1.306 . S
C182 O185 1.160 . S
O183 C182 1.306 . S
O183 Cd184 2.228 . S
Cd184 O183 2.228 . S
Cd184 O188 2.273 . S
Cd184 O192 2.277 . S
O185 C182 1.160 . S
O185 Cd186 2.203 . S
Cd186 O185 2.203 . S
Cd186 O188 2.411 . S
Cd186 O189 2.333 . S
Cd186 O190 2.352 . S
Cd186 O194 2.277 . S
Cd186 O195 2.356 . S
C187 O192 1.209 . S
C187 O194 1.226 . S
O188 Cd184 2.273 . S
O188 Cd186 2.411 . S
O188 C191 1.320 . S
O189 Cd186 2.333 . S
O189 C191 1.214 . S
O190 Cd186 2.352 . S
O190 C193 1.258 . S
C191 O188 1.320 . S
C191 O189 1.214 . S
O192 Cd184 2.277 . S
O192 C187 1.209 . S
C193 O190 1.258 . S
C193 O195 1.282 . S
O194 Cd186 2.277 . S
O194 C187 1.226 . S
O195 Cd186 2.356 . S
O195 C193 1.282 . S
C196 O197 1.306 . S
C196 O199 1.160 . S
O197 C196 1.306 . S
O197 Cd198 2.228 . S
Cd198 O197 2.228 . S
Cd198 O202 2.273 . S
Cd198 O206 2.277 . S
O199 C196 1.160 . S
O199 Cd200 2.203 . S
Cd200 O199 2.203 . S
Cd200 O202 2.411 . S
Cd200 O203 2.333 . S
Cd200 O204 2.352 . S
Cd200 O208 2.277 . S
Cd200 O209 2.356 . S
C201 O206 1.209 . S
C201 O208 1.226 . S
O202 Cd198 2.273 . S
O202 Cd200 2.411 . S
O202 C205 1.320 . S
O203 Cd200 2.333 . S
O203 C205 1.214 . S
O204 Cd200 2.352 . S
O204 C207 1.258 . S
C205 O202 1.320 . S
C205 O203 1.214 . S
O206 Cd198 2.277 . S
O206 C201 1.209 . S
C207 O204 1.258 . S
C207 O209 1.282 . S
O208 Cd200 2.277 . S
O208 C201 1.226 . S
O209 Cd200 2.356 . S
O209 C207 1.282 . S
C210 O211 1.306 . S
C210 O213 1.160 . S
O211 C210 1.306 . S
O211 Cd212 2.228 . S
Cd212 O211 2.228 . S
Cd212 O216 2.273 . S
Cd212 O220 2.277 . S
O213 C210 1.160 . S
O213 Cd214 2.203 . S
Cd214 O213 2.203 . S
Cd214 O216 2.411 . S
Cd214 O217 2.333 . S
Cd214 O218 2.352 . S
Cd214 O222 2.277 . S
Cd214 O223 2.356 . S
C215 O220 1.209 . S
C215 O222 1.226 . S
O216 Cd212 2.273 . S
O216 Cd214 2.411 . S
O216 C219 1.320 . S
O217 Cd214 2.333 . S
O217 C219 1.214 . S
O218 Cd214 2.352 . S
O218 C221 1.258 . S
C219 O216 1.320 . S
C219 O217 1.214 . S
O220 Cd212 2.277 . S
O220 C215 1.209 . S
C221 O218 1.258 . S
C221 O223 1.282 . S
O222 Cd214 2.277 . S
O222 C215 1.226 . S
O223 Cd214 2.356 . S
O223 C221 1.282 . S
C224 O225 1.306 . S
C224 O227 1.160 . S
O225 C224 1.306 . S
O225 Cd226 2.228 . S
Cd226 O225 2.228 . S
Cd226 O230 2.273 . S
Cd226 O234 2.277 . S
O227 C224 1.160 . S
O227 Cd228 2.203 . S
Cd228 O227 2.203 . S
Cd228 O230 2.411 . S
Cd228 O231 2.333 . S
Cd228 O232 2.352 . S
Cd228 O236 2.277 . S
Cd228 O237 2.356 . S
C229 O234 1.209 . S
C229 O236 1.226 . S
O230 Cd226 2.273 . S
O230 Cd228 2.411 . S
O230 C233 1.320 . S
O231 Cd228 2.333 . S
O231 C233 1.214 . S
O232 Cd228 2.352 . S
O232 C235 1.258 . S
C233 O230 1.320 . S
C233 O231 1.214 . S
O234 Cd226 2.277 . S
O234 C229 1.209 . S
C235 O232 1.258 . S
C235 O237 1.282 . S
O236 Cd228 2.277 . S
O236 C229 1.226 . S
O237 Cd228 2.356 . S
O237 C235 1.282 . S
C238 O239 1.306 . S
C238 O241 1.160 . S
O239 C238 1.306 . S
O239 Cd240 2.228 . S
Cd240 O239 2.228 . S
Cd240 O244 2.273 . S
Cd240 O248 2.277 . S
O241 C238 1.160 . S
O241 Cd242 2.203 . S
Cd242 O241 2.203 . S
Cd242 O244 2.411 . S
Cd242 O245 2.333 . S
Cd242 O246 2.352 . S
Cd242 O250 2.277 . S
Cd242 O251 2.356 . S
C243 O248 1.209 . S
C243 O250 1.226 . S
O244 Cd240 2.273 . S
O244 Cd242 2.411 . S
O244 C247 1.320 . S
O245 Cd242 2.333 . S
O245 C247 1.214 . S
O246 Cd242 2.352 . S
O246 C249 1.258 . S
C247 O244 1.320 . S
C247 O245 1.214 . S
O248 Cd240 2.277 . S
O248 C243 1.209 . S
C249 O246 1.258 . S
C249 O251 1.282 . S
O250 Cd242 2.277 . S
O250 C243 1.226 . S
O251 Cd242 2.356 . S
O251 C249 1.282 . S
C252 O253 1.306 . S
C252 O255 1.160 . S
O253 C252 1.306 . S
O253 Cd254 2.228 . S
Cd254 O253 2.228 . S
Cd254 O258 2.273 . S
Cd254 O262 2.277 . S
O255 C252 1.160 . S
O255 Cd256 2.203 . S
Cd256 O255 2.203 . S
Cd256 O258 2.411 . S
Cd256 O259 2.333 . S
Cd256 O260 2.352 . S
Cd256 O264 2.277 . S
Cd256 O265 2.356 . S
C257 O262 1.209 . S
C257 O264 1.226 . S
O258 Cd254 2.273 . S
O258 Cd256 2.411 . S
O258 C261 1.320 . S
O259 Cd256 2.333 . S
O259 C261 1.214 . S
O260 Cd256 2.352 . S
O260 C263 1.258 . S
C261 O258 1.320 . S
C261 O259 1.214 . S
O262 Cd254 2.277 . S
O262 C257 1.209 . S
C263 O260 1.258 . S
C263 O265 1.282 . S
O264 Cd256 2.277 . S
O264 C257 1.226 . S
O265 Cd256 2.356 . S
O265 C263 1.282 . S
C266 O267 1.306 . S
C266 O269 1.160 . S
O267 C266 1.306 . S
O267 Cd268 2.228 . S
Cd268 O267 2.228 . S
Cd268 O272 2.273 . S
Cd268 O276 2.277 . S
O269 C266 1.160 . S
O269 Cd270 2.203 . S
Cd270 O269 2.203 . S
Cd270 O272 2.411 . S
Cd270 O273 2.333 . S
Cd270 O274 2.352 . S
Cd270 O278 2.277 . S
Cd270 O279 2.356 . S
C271 O276 1.209 . S
C271 O278 1.226 . S
O272 Cd268 2.273 . S
O272 Cd270 2.411 . S
O272 C275 1.320 . S
O273 Cd270 2.333 . S
O273 C275 1.214 . S
O274 Cd270 2.352 . S
O274 C277 1.258 . S
C275 O272 1.320 . S
C275 O273 1.214 . S
O276 Cd268 2.277 . S
O276 C271 1.209 . S
C277 O274 1.258 . S
C277 O279 1.282 . S
O278 Cd270 2.277 . S
O278 C271 1.226 . S
O279 Cd270 2.356 . S
O279 C277 1.282 . S
C280 O281 1.306 . S
C280 O283 1.160 . S
O281 C280 1.306 . S
O281 Cd282 2.228 . S
Cd282 O281 2.228 . S
Cd282 O286 2.273 . S
Cd282 O290 2.277 . S
O283 C280 1.160 . S
O283 Cd284 2.203 . S
Cd284 O283 2.203 . S
Cd284 O286 2.411 . S
Cd284 O287 2.333 . S
Cd284 O288 2.352 . S
Cd284 O292 2.277 . S
Cd284 O293 2.356 . S
C285 O290 1.209 . S
C285 O292 1.226 . S
O286 Cd282 2.273 . S
O286 Cd284 2.411 . S
O286 C289 1.320 . S
O287 Cd284 2.333 . S
O287 C289 1.214 . S
O288 Cd284 2.352 . S
O288 C291 1.258 . S
C289 O286 1.320 . S
C289 O287 1.214 . S
O290 Cd282 2.277 . S
O290 C285 1.209 . S
C291 O288 1.258 . S
C291 O293 1.282 . S
O292 Cd284 2.277 . S
O292 C285 1.226 . S
O293 Cd284 2.356 . S
O293 C291 1.282 . S
C294 O295 1.306 . S
C294 O297 1.160 . S
O295 C294 1.306 . S
O295 Cd296 2.228 . S
Cd296 O295 2.228 . S
Cd296 O300 2.273 . S
Cd296 O304 2.277 . S
O297 C294 1.160 . S
O297 Cd298 2.203 . S
Cd298 O297 2.203 . S
Cd298 O300 2.411 . S
Cd298 O301 2.333 . S
Cd298 O302 2.352 . S
Cd298 O306 2.277 . S
Cd298 O307 2.356 . S
C299 O304 1.209 . S
C299 O306 1.226 . S
O300 Cd296 2.273 . S
O300 Cd298 2.411 . S
O300 C303 1.320 . S
O301 Cd298 2.333 . S
O301 C303 1.214 . S
O302 Cd298 2.352 . S
O302 C305 1.258 . S
C303 O300 1.320 . S
C303 O301 1.214 . S
O304 Cd296 2.277 . S
O304 C299 1.209 . S
C305 O302 1.258 . S
C305 O307 1.282 . S
O306 Cd298 2.277 . S
O306 C299 1.226 . S
O307 Cd298 2.356 . S
O307 C305 1.282 . S
C308 O309 1.306 . S
C308 O311 1.160 . S
O309 C308 1.306 . S
O309 Cd310 2.228 . S
Cd310 O309 2.228 . S
Cd310 O314 2.273 . S
Cd310 O318 2.277 . S
O311 C308 1.160 . S
O311 Cd312 2.203 . S
Cd312 O311 2.203 . S
Cd312 O314 2.411 . S
Cd312 O315 2.333 . S
Cd312 O316 2.352 . S
Cd312 O320 2.277 . S
Cd312 O321 2.356 . S
C313 O318 1.209 . S
C313 O320 1.226 . S
O314 Cd310 2.273 . S
O314 Cd312 2.411 . S
O314 C317 1.320 . S
O315 Cd312 2.333 . S
O315 C317 1.214 . S
O316 Cd312 2.352 . S
O316 C319 1.258 . S
C317 O314 1.320 . S
C317 O315 1.214 . S
O318 Cd310 2.277 . S
O318 C313 1.209 . S
C319 O316 1.258 . S
C319 O321 1.282 . S
O320 Cd312 2.277 . S
O320 C313 1.226 . S
O321 Cd312 2.356 . S
O321 C319 1.282 . S
C322 O323 1.306 . S
C322 O325 1.160 . S
O323 C322 1.306 . S
O323 Cd324 2.228 . S
Cd324 O323 2.228 . S
Cd324 O328 2.273 . S
Cd324 O332 2.277 . S
O325 C322 1.160 . S
O325 Cd326 2.203 . S
Cd326 O325 2.203 . S
Cd326 O328 2.411 . S
Cd326 O329 2.333 . S
Cd326 O330 2.352 . S
Cd326 O334 2.277 . S
Cd326 O335 2.356 . S
C327 O332 1.209 . S
C327 O334 1.226 . S
O328 Cd324 2.273 . S
O328 Cd326 2.411 . S
O328 C331 1.320 . S
O329 Cd326 2.333 . S
O329 C331 1.214 . S
O330 Cd326 2.352 . S
O330 C333 1.258 . S
C331 O328 1.320 . S
C331 O329 1.214 . S
O332 Cd324 2.277 . S
O332 C327 1.209 . S
C333 O330 1.258 . S
C333 O335 1.282 . S
O334 Cd326 2.277 . S
O334 C327 1.226 . S
O335 Cd326 2.356 . S
O335 C333 1.282 . S
C336 O337 1.306 . S
C336 O339 1.160 . S
O337 C336 1.306 . S
O337 Cd338 2.228 . S
Cd338 O337 2.228 . S
Cd338 O342 2.273 . S
Cd338 O346 2.277 . S
O339 C336 1.160 . S
O339 Cd340 2.203 . S
Cd340 O339 2.203 . S
Cd340 O342 2.411 . S
Cd340 O343 2.333 . S
Cd340 O344 2.352 . S
Cd340 O348 2.277 . S
Cd340 O349 2.356 . S
C341 O346 1.209 . S
C341 O348 1.226 . S
O342 Cd338 2.273 . S
O342 Cd340 2.411 . S
O342 C345 1.320 . S
O343 Cd340 2.333 . S
O343 C345 1.214 . S
O344 Cd340 2.352 . S
O344 C347 1.258 . S
C345 O342 1.320 . S
C345 O343 1.214 . S
O346 Cd338 2.277 . S
O346 C341 1.209 . S
C347 O344 1.258 . S
C347 O349 1.282 . S
O348 Cd340 2.277 . S
O348 C341 1.226 . S
O349 Cd340 2.356 . S
O349 C347 1.282 . S
C350 O351 1.306 . S
C350 O353 1.160 . S
O351 C350 1.306 . S
O351 Cd352 2.228 . S
Cd352 O351 2.228 . S
Cd352 O356 2.273 . S
Cd352 O360 2.277 . S
O353 C350 1.160 . S
O353 Cd354 2.203 . S
Cd354 O353 2.203 . S
Cd354 O356 2.411 . S
Cd354 O357 2.333 . S
Cd354 O358 2.352 . S
Cd354 O362 2.277 . S
Cd354 O363 2.356 . S
C355 O360 1.209 . S
C355 O362 1.226 . S
O356 Cd352 2.273 . S
O356 Cd354 2.411 . S
O356 C359 1.320 . S
O357 Cd354 2.333 . S
O357 C359 1.214 . S
O358 Cd354 2.352 . S
O358 C361 1.258 . S
C359 O356 1.320 . S
C359 O357 1.214 . S
O360 Cd352 2.277 . S
O360 C355 1.209 . S
C361 O358 1.258 . S
C361 O363 1.282 . S
O362 Cd354 2.277 . S
O362 C355 1.226 . S
O363 Cd354 2.356 . S
O363 C361 1.282 . S
C364 O365 1.306 . S
C364 O367 1.160 . S
O365 C364 1.306 . S
O365 Cd366 2.228 . S
Cd366 O365 2.228 . S
Cd366 O370 2.273 . S
Cd366 O374 2.277 . S
O367 C364 1.160 . S
O367 Cd368 2.203 . S
Cd368 O367 2.203 . S
Cd368 O370 2.411 . S
Cd368 O371 2.333 . S
Cd368 O372 2.352 . S
Cd368 O376 2.277 . S
Cd368 O377 2.356 . S
C369 O374 1.209 . S
C369 O376 1.226 . S
O370 Cd366 2.273 . S
O370 Cd368 2.411 . S
O370 C373 1.320 . S
O371 Cd368 2.333 . S
O371 C373 1.214 . S
O372 Cd368 2.352 . S
O372 C375 1.258 . S
C373 O370 1.320 . S
C373 O371 1.214 . S
O374 Cd366 2.277 . S
O374 C369 1.209 . S
C375 O372 1.258 . S
C375 O377 1.282 . S
O376 Cd368 2.277 . S
O376 C369 1.226 . S
O377 Cd368 2.356 . S
O377 C375 1.282 . S
C378 O379 1.306 . S
C378 O381 1.160 . S
O379 C378 1.306 . S
O379 Cd380 2.228 . S
Cd380 O379 2.228 . S
Cd380 O384 2.273 . S
Cd380 O388 2.277 . S
O381 C378 1.160 . S
O381 Cd382 2.203 . S
Cd382 O381 2.203 . S
Cd382 O384 2.411 . S
Cd382 O385 2.333 . S
Cd382 O386 2.352 . S
Cd382 O390 2.277 . S
Cd382 O391 2.356 . S
C383 O388 1.209 . S
C383 O390 1.226 . S
O384 Cd380 2.273 . S
O384 Cd382 2.411 . S
O384 C387 1.320 . S
O385 Cd382 2.333 . S
O385 C387 1.214 . S
O386 Cd382 2.352 . S
O386 C389 1.258 . S
C387 O384 1.320 . S
C387 O385 1.214 . S
O388 Cd380 2.277 . S
O388 C383 1.209 . S
C389 O386 1.258 . S
C389 O391 1.282 . S
O390 Cd382 2.277 . S
O390 C383 1.226 . S
O391 Cd382 2.356 . S
O391 C389 1.282 . S
C392 O393 1.306 . S
C392 O395 1.160 . S
O393 C392 1.306 . S
O393 Cd394 2.228 . S
Cd394 O393 2.228 . S
Cd394 O398 2.273 . S
Cd394 O402 2.277 . S
O395 C392 1.160 . S
O395 Cd396 2.203 . S
Cd396 O395 2.203 . S
Cd396 O398 2.411 . S
Cd396 O399 2.333 . S
Cd396 O400 2.352 . S
Cd396 O404 2.277 . S
Cd396 O405 2.356 . S
C397 O402 1.209 . S
C397 O404 1.226 . S
O398 Cd394 2.273 . S
O398 Cd396 2.411 . S
O398 C401 1.320 . S
O399 Cd396 2.333 . S
O399 C401 1.214 . S
O400 Cd396 2.352 . S
O400 C403 1.258 . S
C401 O398 1.320 . S
C401 O399 1.214 . S
O402 Cd394 2.277 . S
O402 C397 1.209 . S
C403 O400 1.258 . S
C403 O405 1.282 . S
O404 Cd396 2.277 . S
O404 C397 1.226 . S
O405 Cd396 2.356 . S
O405 C403 1.282 . S
C406 O407 1.306 . S
C406 O409 1.160 . S
O407 C406 1.306 . S
O407 Cd408 2.228 . S
Cd408 O407 2.228 . S
Cd408 O412 2.273 . S
Cd408 O416 2.277 . S
O409 C406 1.160 . S
O409 Cd410 2.203 . S
Cd410 O409 2.203 . S
Cd410 O412 2.411 . S
Cd410 O413 2.333 . S
Cd410 O414 2.352 . S
Cd410 O418 2.277 . S
Cd410 O419 2.356 . S
C411 O416 1.209 . S
C411 O418 1.226 . S
O412 Cd408 2.273 . S
O412 Cd410 2.411 . S
O412 C415 1.320 . S
O413 Cd410 2.333 . S
O413 C415 1.214 . S
O414 Cd410 2.352 . S
O414 C417 1.258 . S
C415 O412 1.320 . S
C415 O413 1.214 . S
O416 Cd408 2.277 . S
O416 C411 1.209 . S
C417 O414 1.258 . S
C417 O419 1.282 . S
O418 Cd410 2.277 . S
O418 C411 1.226 . S
O419 Cd410 2.356 . S
O419 C417 1.282 . S
C420 O421 1.306 . S
C420 O423 1.160 . S
O421 C420 1.306 . S
O421 Cd422 2.228 . S
Cd422 O421 2.228 . S
Cd422 O426 2.273 . S
Cd422 O430 2.277 . S
O423 C420 1.160 . S
O423 Cd424 2.203 . S
Cd424 O423 2.203 . S
Cd424 O426 2.411 . S
Cd424 O427 2.333 . S
Cd424 O428 2.352 . S
Cd424 O432 2.277 . S
Cd424 O433 2.356 . S
C425 O430 1.209 . S
C425 O432 1.226 . S
O426 Cd422 2.273 . S
O426 Cd424 2.411 . S
O426 C429 1.320 . S
O427 Cd424 2.333 . S
O427 C429 1.214 . S
O428 Cd424 2.352 . S
O428 C431 1.258 . S
C429 O426 1.320 . S
C429 O427 1.214 . S
O430 Cd422 2.277 . S
O430 C425 1.209 . S
C431 O428 1.258 . S
C431 O433 1.282 . S
O432 Cd424 2.277 . S
O432 C425 1.226 . S
O433 Cd424 2.356 . S
O433 C431 1.282 . S
C434 O435 1.306 . S
C434 O437 1.160 . S
O435 C434 1.306 . S
O435 Cd436 2.228 . S
Cd436 O435 2.228 . S
Cd436 O440 2.273 . S
Cd436 O444 2.277 . S
O437 C434 1.160 . S
O437 Cd438 2.203 . S
Cd438 O437 2.203 . S
Cd438 O440 2.411 . S
Cd438 O441 2.333 . S
Cd438 O442 2.352 . S
Cd438 O446 2.277 . S
Cd438 O447 2.356 . S
C439 O444 1.209 . S
C439 O446 1.226 . S
O440 Cd436 2.273 . S
O440 Cd438 2.411 . S
O440 C443 1.320 . S
O441 Cd438 2.333 . S
O441 C443 1.214 . S
O442 Cd438 2.352 . S
O442 C445 1.258 . S
C443 O440 1.320 . S
C443 O441 1.214 . S
O444 Cd436 2.277 . S
O444 C439 1.209 . S
C445 O442 1.258 . S
C445 O447 1.282 . S
O446 Cd438 2.277 . S
O446 C439 1.226 . S
O447 Cd438 2.356 . S
O447 C445 1.282 . S
C448 O449 1.306 . S
C448 O451 1.160 . S
O449 C448 1.306 . S
O449 Cd450 2.228 . S
Cd450 O449 2.228 . S
Cd450 O454 2.273 . S
Cd450 O458 2.277 . S
O451 C448 1.160 . S
O451 Cd452 2.203 . S
Cd452 O451 2.203 . S
Cd452 O454 2.411 . S
Cd452 O455 2.333 . S
Cd452 O456 2.352 . S
Cd452 O460 2.277 . S
Cd452 O461 2.356 . S
C453 O458 1.209 . S
C453 O460 1.226 . S
O454 Cd450 2.273 . S
O454 Cd452 2.411 . S
O454 C457 1.320 . S
O455 Cd452 2.333 . S
O455 C457 1.214 . S
O456 Cd452 2.352 . S
O456 C459 1.258 . S
C457 O454 1.320 . S
C457 O455 1.214 . S
O458 Cd450 2.277 . S
O458 C453 1.209 . S
C459 O456 1.258 . S
C459 O461 1.282 . S
O460 Cd452 2.277 . S
O460 C453 1.226 . S
O461 Cd452 2.356 . S
O461 C459 1.282 . S
C462 O463 1.306 . S
C462 O465 1.160 . S
O463 C462 1.306 . S
O463 Cd464 2.228 . S
Cd464 O463 2.228 . S
Cd464 O468 2.273 . S
Cd464 O472 2.277 . S
O465 C462 1.160 . S
O465 Cd466 2.203 . S
Cd466 O465 2.203 . S
Cd466 O468 2.411 . S
Cd466 O469 2.333 . S
Cd466 O470 2.352 . S
Cd466 O474 2.277 . S
Cd466 O475 2.356 . S
C467 O472 1.209 . S
C467 O474 1.226 . S
O468 Cd464 2.273 . S
O468 Cd466 2.411 . S
O468 C471 1.320 . S
O469 Cd466 2.333 . S
O469 C471 1.214 . S
O470 Cd466 2.352 . S
O470 C473 1.258 . S
C471 O468 1.320 . S
C471 O469 1.214 . S
O472 Cd464 2.277 . S
O472 C467 1.209 . S
C473 O470 1.258 . S
C473 O475 1.282 . S
O474 Cd466 2.277 . S
O474 C467 1.226 . S
O475 Cd466 2.356 . S
O475 C473 1.282 . S
C476 O477 1.306 . S
C476 O479 1.160 . S
O477 C476 1.306 . S
O477 Cd478 2.228 . S
Cd478 O477 2.228 . S
Cd478 O482 2.273 . S
Cd478 O486 2.277 . S
O479 C476 1.160 . S
O479 Cd480 2.203 . S
Cd480 O479 2.203 . S
Cd480 O482 2.411 . S
Cd480 O483 2.333 . S
Cd480 O484 2.352 . S
Cd480 O488 2.277 . S
Cd480 O489 2.356 . S
C481 O486 1.209 . S
C481 O488 1.226 . S
O482 Cd478 2.273 . S
O482 Cd480 2.411 . S
O482 C485 1.320 . S
O483 Cd480 2.333 . S
O483 C485 1.214 . S
O484 Cd480 2.352 . S
O484 C487 1.258 . S
C485 O482 1.320 . S
C485 O483 1.214 . S
O486 Cd478 2.277 . S
O486 C481 1.209 . S
C487 O484 1.258 . S
C487 O489 1.282 . S
O488 Cd480 2.277 . S
O488 C481 1.226 . S
O489 Cd480 2.356 . S
O489 C487 1.282 . S
C490 O491 1.306 . S
C490 O493 1.160 . S
O491 C490 1.306 . S
O491 Cd492 2.228 . S
Cd492 O491 2.228 . S
Cd492 O496 2.273 . S
Cd492 O500 2.277 . S
O493 C490 1.160 . S
O493 Cd494 2.203 . S
Cd494 O493 2.203 . S
Cd494 O496 2.411 . S
Cd494 O497 2.333 . S
Cd494 O498 2.352 . S
Cd494 O502 2.277 . S
Cd494 O503 2.356 . S
C495 O500 1.209 . S
C495 O502 1.226 . S
O496 Cd492 2.273 . S
O496 Cd494 2.411 . S
O496 C499 1.320 . S
O497 Cd494 2.333 . S
O497 C499 1.214 . S
O498 Cd494 2.352 . S
O498 C501 1.258 . S
C499 O496 1.320 . S
C499 O497 1.214 . S
O500 Cd492 2.277 . S
O500 C495 1.209 . S
C501 O498 1.258 . S
C501 O503 1.282 . S
O502 Cd494 2.277 . S
O502 C495 1.226 . S
O503 Cd494 2.356 . S
O503 C501 1.282 . S
C504 O505 1.306 . S
C504 O507 1.160 . S
O505 C504 1.306 . S
O505 Cd506 2.228 . S
Cd506 O505 2.228 . S
Cd506 O510 2.273 . S
Cd506 O514 2.277 . S
O507 C504 1.160 . S
O507 Cd508 2.203 . S
Cd508 O507 2.203 . S
Cd508 O510 2.411 . S
Cd508 O511 2.333 . S
Cd508 O512 2.352 . S
Cd508 O516 2.277 . S
Cd508 O517 2.356 . S
C509 O514 1.209 . S
C509 O516 1.226 . S
O510 Cd506 2.273 . S
O510 Cd508 2.411 . S
O510 C513 1.320 . S
O511 Cd508 2.333 . S
O511 C513 1.214 . S
O512 Cd508 2.352 . S
O512 C515 1.258 . S
C513 O510 1.320 . S
C513 O511 1.214 . S
O514 Cd506 2.277 . S
O514 C509 1.209 . S
C515 O512 1.258 . S
C515 O517 1.282 . S
O516 Cd508 2.277 . S
O516 C509 1.226 . S
O517 Cd508 2.356 . S
O517 C515 1.282 . S
C518 O519 1.306 . S
C518 O521 1.160 . S
O519 C518 1.306 . S
O519 Cd520 2.228 . S
Cd520 O519 2.228 . S
Cd520 O524 2.273 . S
Cd520 O528 2.277 . S
O521 C518 1.160 . S
O521 Cd522 2.203 . S
Cd522 O521 2.203 . S
Cd522 O524 2.411 . S
Cd522 O525 2.333 . S
Cd522 O526 2.352 . S
Cd522 O530 2.277 . S
Cd522 O531 2.356 . S
C523 O528 1.209 . S
C523 O530 1.226 . S
O524 Cd520 2.273 . S
O524 Cd522 2.411 . S
O524 C527 1.320 . S
O525 Cd522 2.333 . S
O525 C527 1.214 . S
O526 Cd522 2.352 . S
O526 C529 1.258 . S
C527 O524 1.320 . S
C527 O525 1.214 . S
O528 Cd520 2.277 . S
O528 C523 1.209 . S
C529 O526 1.258 . S
C529 O531 1.282 . S
O530 Cd522 2.277 . S
O530 C523 1.226 . S
O531 Cd522 2.356 . S
O531 C529 1.282 . S
C532 O533 1.306 . S
C532 O535 1.160 . S
O533 C532 1.306 . S
O533 Cd534 2.228 . S
Cd534 O533 2.228 . S
Cd534 O538 2.273 . S
Cd534 O542 2.277 . S
O535 C532 1.160 . S
O535 Cd536 2.203 . S
Cd536 O535 2.203 . S
Cd536 O538 2.411 . S
Cd536 O539 2.333 . S
Cd536 O540 2.352 . S
Cd536 O544 2.277 . S
Cd536 O545 2.356 . S
C537 O542 1.209 . S
C537 O544 1.226 . S
O538 Cd534 2.273 . S
O538 Cd536 2.411 . S
O538 C541 1.320 . S
O539 Cd536 2.333 . S
O539 C541 1.214 . S
O540 Cd536 2.352 . S
O540 C543 1.258 . S
C541 O538 1.320 . S
C541 O539 1.214 . S
O542 Cd534 2.277 . S
O542 C537 1.209 . S
C543 O540 1.258 . S
C543 O545 1.282 . S
O544 Cd536 2.277 . S
O544 C537 1.226 . S
O545 Cd536 2.356 . S
O545 C543 1.282 . S
C546 O547 1.306 . S
C546 O549 1.160 . S
O547 C546 1.306 . S
O547 Cd548 2.228 . S
Cd548 O547 2.228 . S
Cd548 O552 2.273 . S
Cd548 O556 2.277 . S
O549 C546 1.160 . S
O549 Cd550 2.203 . S
Cd550 O549 2.203 . S
Cd550 O552 2.411 . S
Cd550 O553 2.333 . S
Cd550 O554 2.352 . S
Cd550 O558 2.277 . S
Cd550 O559 2.356 . S
C551 O556 1.209 . S
C551 O558 1.226 . S
O552 Cd548 2.273 . S
O552 Cd550 2.411 . S
O552 C555 1.320 . S
O553 Cd550 2.333 . S
O553 C555 1.214 . S
O554 Cd550 2.352 . S
O554 C557 1.258 . S
C555 O552 1.320 . S
C555 O553 1.214 . S
O556 Cd548 2.277 . S
O556 C551 1.209 . S
C557 O554 1.258 . S
C557 O559 1.282 . S
O558 Cd550 2.277 . S
O558 C551 1.226 . S
O559 Cd550 2.356 . S
O559 C557 1.282 . S
C560 O561 1.306 . S
C560 O563 1.160 . S
O561 C560 1.306 . S
O561 Cd562 2.228 . S
Cd562 O561 2.228 . S
Cd562 O566 2.273 . S
Cd562 O570 2.277 . S
O563 C560 1.160 . S
O563 Cd564 2.203 . S
Cd564 O563 2.203 . S
Cd564 O566 2.411 . S
Cd564 O567 2.333 . S
Cd564 O568 2.352 . S
Cd564 O572 2.277 . S
Cd564 O573 2.356 . S
C565 O570 1.209 . S
C565 O572 1.226 . S
O566 Cd562 2.273 . S
O566 Cd564 2.411 . S
O566 C569 1.320 . S
O567 Cd564 2.333 . S
O567 C569 1.214 . S
O568 Cd564 2.352 . S
O568 C571 1.258 . S
C569 O566 1.320 . S
C569 O567 1.214 . S
O570 Cd562 2.277 . S
O570 C565 1.209 . S
C571 O568 1.258 . S
C571 O573 1.282 . S
O572 Cd564 2.277 . S
O572 C565 1.226 . S
O573 Cd564 2.356 . S
O573 C571 1.282 . S
C574 O575 1.306 . S
C574 O577 1.160 . S
O575 C574 1.306 . S
O575 Cd576 2.228 . S
Cd576 O575 2.228 . S
Cd576 O580 2.273 . S
Cd576 O584 2.277 . S
O577 C574 1.160 . S
O577 Cd578 2.203 . S
Cd578 O577 2.203 . S
Cd578 O580 2.411 . S
Cd578 O581 2.333 . S
Cd578 O582 2.352 . S
Cd578 O586 2.277 . S
Cd578 O587 2.356 . S
C579 O584 1.209 . S
C579 O586 1.226 . S
O580 Cd576 2.273 . S
O580 Cd578 2.411 . S
O580 C583 1.320 . S
O581 Cd578 2.333 . S
O581 C583 1.214 . S
O582 Cd578 2.352 . S
O582 C585 1.258 . S
C583 O580 1.320 . S
C583 O581 1.214 . S
O584 Cd576 2.277 . S
O584 C579 1.209 . S
C585 O582 1.258 . S
C585 O587 1.282 . S
O586 Cd578 2.277 . S
O586 C579 1.226 . S
O587 Cd578 2.356 . S
O587 C585 1.282 . S
C588 O589 1.306 . S
C588 O591 1.160 . S
O589 C588 1.306 . S
O589 Cd590 2.228 . S
Cd590 O589 2.228 . S
Cd590 O594 2.273 . S
Cd590 O598 2.277 . S
O591 C588 1.160 . S
O591 Cd592 2.203 . S
Cd592 O591 2.203 . S
Cd592 O594 2.411 . S
Cd592 O595 2.333 . S
Cd592 O596 2.352 . S
Cd592 O600 2.277 . S
Cd592 O601 2.356 . S
C593 O598 1.209 . S
C593 O600 1.226 . S
O594 Cd590 2.273 . S
O594 Cd592 2.411 . S
O594 C597 1.320 . S
O595 Cd592 2.333 . S
O595 C597 1.214 . S
O596 Cd592 2.352 . S
O596 C599 1.258 . S
C597 O594 1.320 . S
C597 O595 1.214 . S
O598 Cd590 2.277 . S
O598 C593 1.209 . S
C599 O596 1.258 . S
C599 O601 1.282 . S
O600 Cd592 2.277 . S
O600 C593 1.226 . S
O601 Cd592 2.356 . S
O601 C599 1.282 . S
C602 O603 1.306 . S
C602 O605 1.160 . S
O603 C602 1.306 . S
O603 Cd604 2.228 . S
Cd604 O603 2.228 . S
Cd604 O608 2.273 . S
Cd604 O612 2.277 . S
O605 C602 1.160 . S
O605 Cd606 2.203 . S
Cd606 O605 2.203 . S
Cd606 O608 2.411 . S
Cd606 O609 2.333 . S
Cd606 O610 2.352 . S
Cd606 O614 2.277 . S
Cd606 O615 2.356 . S
C607 O612 1.209 . S
C607 O614 1.226 . S
O608 Cd604 2.273 . S
O608 Cd606 2.411 . S
O608 C611 1.320 . S
O609 Cd606 2.333 . S
O609 C611 1.214 . S
O610 Cd606 2.352 . S
O610 C613 1.258 . S
C611 O608 1.320 . S
C611 O609 1.214 . S
O612 Cd604 2.277 . S
O612 C607 1.209 . S
C613 O610 1.258 . S
C613 O615 1.282 . S
O614 Cd606 2.277 . S
O614 C607 1.226 . S
O615 Cd606 2.356 . S
O615 C613 1.282 . S
C616 O617 1.306 . S
C616 O619 1.160 . S
O617 C616 1.306 . S
O617 Cd618 2.228 . S
Cd618 O617 2.228 . S
Cd618 O622 2.273 . S
Cd618 O626 2.277 . S
O619 C616 1.160 . S
O619 Cd620 2.203 . S
Cd620 O619 2.203 . S
Cd620 O622 2.411 . S
Cd620 O623 2.333 . S
Cd620 O624 2.352 . S
Cd620 O628 2.277 . S
Cd620 O629 2.356 . S
C621 O626 1.209 . S
C621 O628 1.226 . S
O622 Cd618 2.273 . S
O622 Cd620 2.411 . S
O622 C625 1.320 . S
O623 Cd620 2.333 . S
O623 C625 1.214 . S
O624 Cd620 2.352 . S
O624 C627 1.258 . S
C625 O622 1.320 . S
C625 O623 1.214 . S
O626 Cd618 2.277 . S
O626 C621 1.209 . S
C627 O624 1.258 . S
C627 O629 1.282 . S
O628 Cd620 2.277 . S
O628 C621 1.226 . S
O629 Cd620 2.356 . S
O629 C627 1.282 . S
C630 O631 1.306 . S
C630 O633 1.160 . S
O631 C630 1.306 . S
O631 Cd632 2.228 . S
Cd632 O631 2.228 . S
Cd632 O636 2.273 . S
Cd632 O640 2.277 . S
O633 C630 1.160 . S
O633 Cd634 2.203 . S
Cd634 O633 2.203 . S
Cd634 O636 2.411 . S
Cd634 O637 2.333 . S
Cd634 O638 2.352 . S
Cd634 O642 2.277 . S
Cd634 O643 2.356 . S
C635 O640 1.209 . S
C635 O642 1.226 . S
O636 Cd632 2.273 . S
O636 Cd634 2.411 . S
O636 C639 1.320 . S
O637 Cd634 2.333 . S
O637 C639 1.214 . S
O638 Cd634 2.352 . S
O638 C641 1.258 . S
C639 O636 1.320 . S
C639 O637 1.214 . S
O640 Cd632 2.277 . S
O640 C635 1.209 . S
C641 O638 1.258 . S
C641 O643 1.282 . S
O642 Cd634 2.277 . S
O642 C635 1.226 . S
O643 Cd634 2.356 . S
O643 C641 1.282 . S
C644 O645 1.306 . S
C644 O647 1.160 . S
O645 C644 1.306 . S
O645 Cd646 2.228 . S
Cd646 O645 2.228 . S
Cd646 O650 2.273 . S
Cd646 O654 2.277 . S
O647 C644 1.160 . S
O647 Cd648 2.203 . S
Cd648 O647 2.203 . S
Cd648 O650 2.411 . S
Cd648 O651 2.333 . S
Cd648 O652 2.352 . S
Cd648 O656 2.277 . S
Cd648 O657 2.356 . S
C649 O654 1.209 . S
C649 O656 1.226 . S
O650 Cd646 2.273 . S
O650 Cd648 2.411 . S
O650 C653 1.320 . S
O651 Cd648 2.333 . S
O651 C653 1.214 . S
O652 Cd648 2.352 . S
O652 C655 1.258 . S
C653 O650 1.320 . S
C653 O651 1.214 . S
O654 Cd646 2.277 . S
O654 C649 1.209 . S
C655 O652 1.258 . S
C655 O657 1.282 . S
O656 Cd648 2.277 . S
O656 C649 1.226 . S
O657 Cd648 2.356 . S
O657 C655 1.282 . S
C658 O659 1.306 . S
C658 O661 1.160 . S
O659 C658 1.306 . S
O659 Cd660 2.228 . S
Cd660 O659 2.228 . S
Cd660 O664 2.273 . S
Cd660 O668 2.277 . S
O661 C658 1.160 . S
O661 Cd662 2.203 . S
Cd662 O661 2.203 . S
Cd662 O664 2.411 . S
Cd662 O665 2.333 . S
Cd662 O666 2.352 . S
Cd662 O670 2.277 . S
Cd662 O671 2.356 . S
C663 O668 1.209 . S
C663 O670 1.226 . S
O664 Cd660 2.273 . S
O664 Cd662 2.411 . S
O664 C667 1.320 . S
O665 Cd662 2.333 . S
O665 C667 1.214 . S
O666 Cd662 2.352 . S
O666 C669 1.258 . S
C667 O664 1.320 . S
C667 O665 1.214 . S
O668 Cd660 2.277 . S
O668 C663 1.209 . S
C669 O666 1.258 . S
C669 O671 1.282 . S
O670 Cd662 2.277 . S
O670 C663 1.226 . S
O671 Cd662 2.356 . S
O671 C669 1.282 . S
H672 C680 0.929 . S
H673 C682 0.930 . S
H674 C684 0.930 . S
H675 C687 0.929 . S
H676 C690 0.930 . S
H677 C692 0.960 . S
H678 C692 0.960 . S
H679 C692 0.960 . S
C680 H672 0.929 . S
C680 C681 1.377 . S
C680 C682 1.384 . S
C681 C680 1.377 . S
C681 C687 1.390 . S
C682 H673 0.930 . S
C682 C680 1.384 . S
C682 C683 1.372 . S
C683 C682 1.372 . S
C683 C684 1.400 . S
C683 C688 1.490 . S
C684 H674 0.930 . S
C684 C683 1.400 . S
C684 C687 1.386 . S
H685 C701 0.930 . S
H686 C702 0.931 . S
C687 H675 0.929 . S
C687 C681 1.390 . S
C687 C684 1.386 . S
C688 C683 1.490 . S
C688 C690 1.395 . S
C688 C691 1.403 . S
H689 C695 0.930 . S
C690 H676 0.930 . S
C690 C688 1.395 . S
C690 C693 1.403 . S
C691 C688 1.403 . S
C691 C692 1.524 . S
C691 C695 1.400 . S
C692 H677 0.960 . S
C692 H678 0.960 . S
C692 H679 0.960 . S
C692 C691 1.524 . S
C693 C690 1.403 . S
C693 C694 1.392 . S
C693 C697 1.495 . S
C694 C693 1.392 . S
C694 C695 1.385 . S
C694 C696 1.478 . S
C695 H689 0.930 . S
C695 C691 1.400 . S
C695 C694 1.385 . S
C696 C694 1.478 . S
C696 C698 1.381 . S
C696 C702 1.383 . S
C697 C693 1.495 . S
C697 H703 0.959 . S
C697 H704 0.961 . S
C697 H705 0.960 . S
C698 C696 1.381 . S
C698 C699 1.394 . S
C698 H706 0.930 . S
C699 C698 1.394 . S
C699 C700 1.383 . S
C699 H707 0.929 . S
C700 C699 1.383 . S
C700 C701 1.377 . S
C701 H685 0.930 . S
C701 C700 1.377 . S
C701 C702 1.379 . S
C702 H686 0.931 . S
C702 C696 1.383 . S
C702 C701 1.379 . S
H703 C697 0.959 . S
H704 C697 0.961 . S
H705 C697 0.960 . S
H706 C698 0.930 . S
H707 C699 0.929 . S
H708 C716 0.929 . S
H709 C718 0.930 . S
H710 C720 0.930 . S
H711 C723 0.929 . S
H712 C726 0.930 . S
H713 C728 0.960 . S
H714 C728 0.960 . S
H715 C728 0.960 . S
C716 H708 0.929 . S
C716 C717 1.377 . S
C716 C718 1.384 . S
C717 C716 1.377 . S
C717 C723 1.390 . S
C718 H709 0.930 . S
C718 C716 1.384 . S
C718 C719 1.372 . S
C719 C718 1.372 . S
C719 C720 1.400 . S
C719 C724 1.490 . S
C720 H710 0.930 . S
C720 C719 1.400 . S
C720 C723 1.386 . S
H721 C737 0.930 . S
H722 C738 0.931 . S
C723 H711 0.929 . S
C723 C717 1.390 . S
C723 C720 1.386 . S
C724 C719 1.490 . S
C724 C726 1.395 . S
C724 C727 1.403 . S
H725 C731 0.930 . S
C726 H712 0.930 . S
C726 C724 1.395 . S
C726 C729 1.403 . S
C727 C724 1.403 . S
C727 C728 1.524 . S
C727 C731 1.400 . S
C728 H713 0.960 . S
C728 H714 0.960 . S
C728 H715 0.960 . S
C728 C727 1.524 . S
C729 C726 1.403 . S
C729 C730 1.392 . S
C729 C733 1.495 . S
C730 C729 1.392 . S
C730 C731 1.385 . S
C730 C732 1.478 . S
C731 H725 0.930 . S
C731 C727 1.400 . S
C731 C730 1.385 . S
C732 C730 1.478 . S
C732 C734 1.381 . S
C732 C738 1.383 . S
C733 C729 1.495 . S
C733 H739 0.959 . S
C733 H740 0.961 . S
C733 H741 0.960 . S
C734 C732 1.381 . S
C734 C735 1.394 . S
C734 H742 0.930 . S
C735 C734 1.394 . S
C735 C736 1.383 . S
C735 H743 0.929 . S
C736 C735 1.383 . S
C736 C737 1.377 . S
C737 H721 0.930 . S
C737 C736 1.377 . S
C737 C738 1.379 . S
C738 H722 0.931 . S
C738 C732 1.383 . S
C738 C737 1.379 . S
H739 C733 0.959 . S
H740 C733 0.961 . S
H741 C733 0.960 . S
H742 C734 0.930 . S
H743 C735 0.929 . S
H744 C752 0.929 . S
H745 C754 0.930 . S
H746 C756 0.930 . S
H747 C759 0.929 . S
H748 C762 0.930 . S
H749 C764 0.960 . S
H750 C764 0.960 . S
H751 C764 0.960 . S
C752 H744 0.929 . S
C752 C753 1.377 . S
C752 C754 1.384 . S
C753 C752 1.377 . S
C753 C759 1.390 . S
C754 H745 0.930 . S
C754 C752 1.384 . S
C754 C755 1.372 . S
C755 C754 1.372 . S
C755 C756 1.400 . S
C755 C760 1.490 . S
C756 H746 0.930 . S
C756 C755 1.400 . S
C756 C759 1.386 . S
H757 C773 0.930 . S
H758 C774 0.931 . S
C759 H747 0.929 . S
C759 C753 1.390 . S
C759 C756 1.386 . S
C760 C755 1.490 . S
C760 C762 1.395 . S
C760 C763 1.403 . S
H761 C767 0.930 . S
C762 H748 0.930 . S
C762 C760 1.395 . S
C762 C765 1.403 . S
C763 C760 1.403 . S
C763 C764 1.524 . S
C763 C767 1.400 . S
C764 H749 0.960 . S
C764 H750 0.960 . S
C764 H751 0.960 . S
C764 C763 1.524 . S
C765 C762 1.403 . S
C765 C766 1.392 . S
C765 C769 1.495 . S
C766 C765 1.392 . S
C766 C767 1.385 . S
C766 C768 1.478 . S
C767 H761 0.930 . S
C767 C763 1.400 . S
C767 C766 1.385 . S
C768 C766 1.478 . S
C768 C770 1.381 . S
C768 C774 1.383 . S
C769 C765 1.495 . S
C769 H775 0.959 . S
C769 H776 0.961 . S
C769 H777 0.960 . S
C770 C768 1.381 . S
C770 C771 1.394 . S
C770 H778 0.930 . S
C771 C770 1.394 . S
C771 C772 1.383 . S
C771 H779 0.929 . S
C772 C771 1.383 . S
C772 C773 1.377 . S
C773 H757 0.930 . S
C773 C772 1.377 . S
C773 C774 1.379 . S
C774 H758 0.931 . S
C774 C768 1.383 . S
C774 C773 1.379 . S
H775 C769 0.959 . S
H776 C769 0.961 . S
H777 C769 0.960 . S
H778 C770 0.930 . S
H779 C771 0.929 . S
H780 C788 0.929 . S
H781 C790 0.930 . S
H782 C792 0.930 . S
H783 C795 0.929 . S
H784 C798 0.930 . S
H785 C800 0.960 . S
H786 C800 0.960 . S
H787 C800 0.960 . S
C788 H780 0.929 . S
C788 C789 1.377 . S
C788 C790 1.384 . S
C789 C788 1.377 . S
C789 C795 1.390 . S
C790 H781 0.930 . S
C790 C788 1.384 . S
C790 C791 1.372 . S
C791 C790 1.372 . S
C791 C792 1.400 . S
C791 C796 1.490 . S
C792 H782 0.930 . S
C792 C791 1.400 . S
C792 C795 1.386 . S
H793 C809 0.930 . S
H794 C810 0.931 . S
C795 H783 0.929 . S
C795 C789 1.390 . S
C795 C792 1.386 . S
C796 C791 1.490 . S
C796 C798 1.395 . S
C796 C799 1.403 . S
H797 C803 0.930 . S
C798 H784 0.930 . S
C798 C796 1.395 . S
C798 C801 1.403 . S
C799 C796 1.403 . S
C799 C800 1.524 . S
C799 C803 1.400 . S
C800 H785 0.960 . S
C800 H786 0.960 . S
C800 H787 0.960 . S
C800 C799 1.524 . S
C801 C798 1.403 . S
C801 C802 1.392 . S
C801 C805 1.495 . S
C802 C801 1.392 . S
C802 C803 1.385 . S
C802 C804 1.478 . S
C803 H797 0.930 . S
C803 C799 1.400 . S
C803 C802 1.385 . S
C804 C802 1.478 . S
C804 C806 1.381 . S
C804 C810 1.383 . S
C805 C801 1.495 . S
C805 H811 0.959 . S
C805 H812 0.961 . S
C805 H813 0.960 . S
C806 C804 1.381 . S
C806 C807 1.394 . S
C806 H814 0.930 . S
C807 C806 1.394 . S
C807 C808 1.383 . S
C807 H815 0.929 . S
C808 C807 1.383 . S
C808 C809 1.377 . S
C809 H793 0.930 . S
C809 C808 1.377 . S
C809 C810 1.379 . S
C810 H794 0.931 . S
C810 C804 1.383 . S
C810 C809 1.379 . S
H811 C805 0.959 . S
H812 C805 0.961 . S
H813 C805 0.960 . S
H814 C806 0.930 . S
H815 C807 0.929 . S
H816 C824 0.929 . S
H817 C826 0.930 . S
H818 C828 0.930 . S
H819 C831 0.929 . S
H820 C834 0.930 . S
H821 C836 0.960 . S
H822 C836 0.960 . S
H823 C836 0.960 . S
C824 H816 0.929 . S
C824 C825 1.377 . S
C824 C826 1.384 . S
C825 C824 1.377 . S
C825 C831 1.390 . S
C826 H817 0.930 . S
C826 C824 1.384 . S
C826 C827 1.372 . S
C827 C826 1.372 . S
C827 C828 1.400 . S
C827 C832 1.490 . S
C828 H818 0.930 . S
C828 C827 1.400 . S
C828 C831 1.386 . S
H829 C845 0.930 . S
H830 C846 0.931 . S
C831 H819 0.929 . S
C831 C825 1.390 . S
C831 C828 1.386 . S
C832 C827 1.490 . S
C832 C834 1.395 . S
C832 C835 1.403 . S
H833 C839 0.930 . S
C834 H820 0.930 . S
C834 C832 1.395 . S
C834 C837 1.403 . S
C835 C832 1.403 . S
C835 C836 1.524 . S
C835 C839 1.400 . S
C836 H821 0.960 . S
C836 H822 0.960 . S
C836 H823 0.960 . S
C836 C835 1.524 . S
C837 C834 1.403 . S
C837 C838 1.392 . S
C837 C841 1.495 . S
C838 C837 1.392 . S
C838 C839 1.385 . S
C838 C840 1.478 . S
C839 H833 0.930 . S
C839 C835 1.400 . S
C839 C838 1.385 . S
C840 C838 1.478 . S
C840 C842 1.381 . S
C840 C846 1.383 . S
C841 C837 1.495 . S
C841 H847 0.959 . S
C841 H848 0.961 . S
C841 H849 0.960 . S
C842 C840 1.381 . S
C842 C843 1.394 . S
C842 H850 0.930 . S
C843 C842 1.394 . S
C843 C844 1.383 . S
C843 H851 0.929 . S
C844 C843 1.383 . S
C844 C845 1.377 . S
C845 H829 0.930 . S
C845 C844 1.377 . S
C845 C846 1.379 . S
C846 H830 0.931 . S
C846 C840 1.383 . S
C846 C845 1.379 . S
H847 C841 0.959 . S
H848 C841 0.961 . S
H849 C841 0.960 . S
H850 C842 0.930 . S
H851 C843 0.929 . S
H852 C860 0.929 . S
H853 C862 0.930 . S
H854 C864 0.930 . S
H855 C867 0.929 . S
H856 C870 0.930 . S
H857 C872 0.960 . S
H858 C872 0.960 . S
H859 C872 0.960 . S
C860 H852 0.929 . S
C860 C861 1.377 . S
C860 C862 1.384 . S
C861 C860 1.377 . S
C861 C867 1.390 . S
C862 H853 0.930 . S
C862 C860 1.384 . S
C862 C863 1.372 . S
C863 C862 1.372 . S
C863 C864 1.400 . S
C863 C868 1.490 . S
C864 H854 0.930 . S
C864 C863 1.400 . S
C864 C867 1.386 . S
H865 C881 0.930 . S
H866 C882 0.931 . S
C867 H855 0.929 . S
C867 C861 1.390 . S
C867 C864 1.386 . S
C868 C863 1.490 . S
C868 C870 1.395 . S
C868 C871 1.403 . S
H869 C875 0.930 . S
C870 H856 0.930 . S
C870 C868 1.395 . S
C870 C873 1.403 . S
C871 C868 1.403 . S
C871 C872 1.524 . S
C871 C875 1.400 . S
C872 H857 0.960 . S
C872 H858 0.960 . S
C872 H859 0.960 . S
C872 C871 1.524 . S
C873 C870 1.403 . S
C873 C874 1.392 . S
C873 C877 1.495 . S
C874 C873 1.392 . S
C874 C875 1.385 . S
C874 C876 1.478 . S
C875 H869 0.930 . S
C875 C871 1.400 . S
C875 C874 1.385 . S
C876 C874 1.478 . S
C876 C878 1.381 . S
C876 C882 1.383 . S
C877 C873 1.495 . S
C877 H883 0.959 . S
C877 H884 0.961 . S
C877 H885 0.960 . S
C878 C876 1.381 . S
C878 C879 1.394 . S
C878 H886 0.930 . S
C879 C878 1.394 . S
C879 C880 1.383 . S
C879 H887 0.929 . S
C880 C879 1.383 . S
C880 C881 1.377 . S
C881 H865 0.930 . S
C881 C880 1.377 . S
C881 C882 1.379 . S
C882 H866 0.931 . S
C882 C876 1.383 . S
C882 C881 1.379 . S
H883 C877 0.959 . S
H884 C877 0.961 . S
H885 C877 0.960 . S
H886 C878 0.930 . S
H887 C879 0.929 . S
H888 C896 0.929 . S
H889 C898 0.930 . S
H890 C900 0.930 . S
H891 C903 0.929 . S
H892 C906 0.930 . S
H893 C908 0.960 . S
H894 C908 0.960 . S
H895 C908 0.960 . S
C896 H888 0.929 . S
C896 C897 1.377 . S
C896 C898 1.384 . S
C897 C896 1.377 . S
C897 C903 1.390 . S
C898 H889 0.930 . S
C898 C896 1.384 . S
C898 C899 1.372 . S
C899 C898 1.372 . S
C899 C900 1.400 . S
C899 C904 1.490 . S
C900 H890 0.930 . S
C900 C899 1.400 . S
C900 C903 1.386 . S
H901 C917 0.930 . S
H902 C918 0.931 . S
C903 H891 0.929 . S
C903 C897 1.390 . S
C903 C900 1.386 . S
C904 C899 1.490 . S
C904 C906 1.395 . S
C904 C907 1.403 . S
H905 C911 0.930 . S
C906 H892 0.930 . S
C906 C904 1.395 . S
C906 C909 1.403 . S
C907 C904 1.403 . S
C907 C908 1.524 . S
C907 C911 1.400 . S
C908 H893 0.960 . S
C908 H894 0.960 . S
C908 H895 0.960 . S
C908 C907 1.524 . S
C909 C906 1.403 . S
C909 C910 1.392 . S
C909 C913 1.495 . S
C910 C909 1.392 . S
C910 C911 1.385 . S
C910 C912 1.478 . S
C911 H905 0.930 . S
C911 C907 1.400 . S
C911 C910 1.385 . S
C912 C910 1.478 . S
C912 C914 1.381 . S
C912 C918 1.383 . S
C913 C909 1.495 . S
C913 H919 0.959 . S
C913 H920 0.961 . S
C913 H921 0.960 . S
C914 C912 1.381 . S
C914 C915 1.394 . S
C914 H922 0.930 . S
C915 C914 1.394 . S
C915 C916 1.383 . S
C915 H923 0.929 . S
C916 C915 1.383 . S
C916 C917 1.377 . S
C917 H901 0.930 . S
C917 C916 1.377 . S
C917 C918 1.379 . S
C918 H902 0.931 . S
C918 C912 1.383 . S
C918 C917 1.379 . S
H919 C913 0.959 . S
H920 C913 0.961 . S
H921 C913 0.960 . S
H922 C914 0.930 . S
H923 C915 0.929 . S
H924 C932 0.929 . S
H925 C934 0.930 . S
H926 C936 0.930 . S
H927 C939 0.929 . S
H928 C942 0.930 . S
H929 C944 0.960 . S
H930 C944 0.960 . S
H931 C944 0.960 . S
C932 H924 0.929 . S
C932 C933 1.377 . S
C932 C934 1.384 . S
C933 C932 1.377 . S
C933 C939 1.390 . S
C934 H925 0.930 . S
C934 C932 1.384 . S
C934 C935 1.372 . S
C935 C934 1.372 . S
C935 C936 1.400 . S
C935 C940 1.490 . S
C936 H926 0.930 . S
C936 C935 1.400 . S
C936 C939 1.386 . S
H937 C953 0.930 . S
H938 C954 0.931 . S
C939 H927 0.929 . S
C939 C933 1.390 . S
C939 C936 1.386 . S
C940 C935 1.490 . S
C940 C942 1.395 . S
C940 C943 1.403 . S
H941 C947 0.930 . S
C942 H928 0.930 . S
C942 C940 1.395 . S
C942 C945 1.403 . S
C943 C940 1.403 . S
C943 C944 1.524 . S
C943 C947 1.400 . S
C944 H929 0.960 . S
C944 H930 0.960 . S
C944 H931 0.960 . S
C944 C943 1.524 . S
C945 C942 1.403 . S
C945 C946 1.392 . S
C945 C949 1.495 . S
C946 C945 1.392 . S
C946 C947 1.385 . S
C946 C948 1.478 . S
C947 H941 0.930 . S
C947 C943 1.400 . S
C947 C946 1.385 . S
C948 C946 1.478 . S
C948 C950 1.381 . S
C948 C954 1.383 . S
C949 C945 1.495 . S
C949 H955 0.959 . S
C949 H956 0.961 . S
C949 H957 0.960 . S
C950 C948 1.381 . S
C950 C951 1.394 . S
C950 H958 0.930 . S
C951 C950 1.394 . S
C951 C952 1.383 . S
C951 H959 0.929 . S
C952 C951 1.383 . S
C952 C953 1.377 . S
C953 H937 0.930 . S
C953 C952 1.377 . S
C953 C954 1.379 . S
C954 H938 0.931 . S
C954 C948 1.383 . S
C954 C953 1.379 . S
H955 C949 0.959 . S
H956 C949 0.961 . S
H957 C949 0.960 . S
H958 C950 0.930 . S
H959 C951 0.929 . S
H960 C968 0.929 . S
H961 C970 0.930 . S
H962 C972 0.930 . S
H963 C975 0.929 . S
H964 C978 0.930 . S
H965 C980 0.960 . S
H966 C980 0.960 . S
H967 C980 0.960 . S
C968 H960 0.929 . S
C968 C969 1.377 . S
C968 C970 1.384 . S
C969 C968 1.377 . S
C969 C975 1.390 . S
C970 H961 0.930 . S
C970 C968 1.384 . S
C970 C971 1.372 . S
C971 C970 1.372 . S
C971 C972 1.400 . S
C971 C976 1.490 . S
C972 H962 0.930 . S
C972 C971 1.400 . S
C972 C975 1.386 . S
H973 C989 0.930 . S
H974 C990 0.931 . S
C975 H963 0.929 . S
C975 C969 1.390 . S
C975 C972 1.386 . S
C976 C971 1.490 . S
C976 C978 1.395 . S
C976 C979 1.403 . S
H977 C983 0.930 . S
C978 H964 0.930 . S
C978 C976 1.395 . S
C978 C981 1.403 . S
C979 C976 1.403 . S
C979 C980 1.524 . S
C979 C983 1.400 . S
C980 H965 0.960 . S
C980 H966 0.960 . S
C980 H967 0.960 . S
C980 C979 1.524 . S
C981 C978 1.403 . S
C981 C982 1.392 . S
C981 C985 1.495 . S
C982 C981 1.392 . S
C982 C983 1.385 . S
C982 C984 1.478 . S
C983 H977 0.930 . S
C983 C979 1.400 . S
C983 C982 1.385 . S
C984 C982 1.478 . S
C984 C986 1.381 . S
C984 C990 1.383 . S
C985 C981 1.495 . S
C985 H991 0.959 . S
C985 H992 0.961 . S
C985 H993 0.960 . S
C986 C984 1.381 . S
C986 C987 1.394 . S
C986 H994 0.930 . S
C987 C986 1.394 . S
C987 C988 1.383 . S
C987 H995 0.929 . S
C988 C987 1.383 . S
C988 C989 1.377 . S
C989 H973 0.930 . S
C989 C988 1.377 . S
C989 C990 1.379 . S
C990 H974 0.931 . S
C990 C984 1.383 . S
C990 C989 1.379 . S
H991 C985 0.959 . S
H992 C985 0.961 . S
H993 C985 0.960 . S
H994 C986 0.930 . S
H995 C987 0.929 . S
H996 C1004 0.929 . S
H997 C1006 0.930 . S
H998 C1008 0.930 . S
H999 C1011 0.929 . S
H1000 C1014 0.930 . S
H1001 C1016 0.960 . S
H1002 C1016 0.960 . S
H1003 C1016 0.960 . S
C1004 H996 0.929 . S
C1004 C1005 1.377 . S
C1004 C1006 1.384 . S
C1005 C1004 1.377 . S
C1005 C1011 1.390 . S
C1006 H997 0.930 . S
C1006 C1004 1.384 . S
C1006 C1007 1.372 . S
C1007 C1006 1.372 . S
C1007 C1008 1.400 . S
C1007 C1012 1.490 . S
C1008 H998 0.930 . S
C1008 C1007 1.400 . S
C1008 C1011 1.386 . S
H1009 C1025 0.930 . S
H1010 C1026 0.931 . S
C1011 H999 0.929 . S
C1011 C1005 1.390 . S
C1011 C1008 1.386 . S
C1012 C1007 1.490 . S
C1012 C1014 1.395 . S
C1012 C1015 1.403 . S
H1013 C1019 0.930 . S
C1014 H1000 0.930 . S
C1014 C1012 1.395 . S
C1014 C1017 1.403 . S
C1015 C1012 1.403 . S
C1015 C1016 1.524 . S
C1015 C1019 1.400 . S
C1016 H1001 0.960 . S
C1016 H1002 0.960 . S
C1016 H1003 0.960 . S
C1016 C1015 1.524 . S
C1017 C1014 1.403 . S
C1017 C1018 1.392 . S
C1017 C1021 1.495 . S
C1018 C1017 1.392 . S
C1018 C1019 1.385 . S
C1018 C1020 1.478 . S
C1019 H1013 0.930 . S
C1019 C1015 1.400 . S
C1019 C1018 1.385 . S
C1020 C1018 1.478 . S
C1020 C1022 1.381 . S
C1020 C1026 1.383 . S
C1021 C1017 1.495 . S
C1021 H1027 0.959 . S
C1021 H1028 0.961 . S
C1021 H1029 0.960 . S
C1022 C1020 1.381 . S
C1022 C1023 1.394 . S
C1022 H1030 0.930 . S
C1023 C1022 1.394 . S
C1023 C1024 1.383 . S
C1023 H1031 0.929 . S
C1024 C1023 1.383 . S
C1024 C1025 1.377 . S
C1025 H1009 0.930 . S
C1025 C1024 1.377 . S
C1025 C1026 1.379 . S
C1026 H1010 0.931 . S
C1026 C1020 1.383 . S
C1026 C1025 1.379 . S
H1027 C1021 0.959 . S
H1028 C1021 0.961 . S
H1029 C1021 0.960 . S
H1030 C1022 0.930 . S
H1031 C1023 0.929 . S
H1032 C1040 0.929 . S
H1033 C1042 0.930 . S
H1034 C1044 0.930 . S
H1035 C1047 0.929 . S
H1036 C1050 0.930 . S
H1037 C1052 0.960 . S
H1038 C1052 0.960 . S
H1039 C1052 0.960 . S
C1040 H1032 0.929 . S
C1040 C1041 1.377 . S
C1040 C1042 1.384 . S
C1041 C1040 1.377 . S
C1041 C1047 1.390 . S
C1042 H1033 0.930 . S
C1042 C1040 1.384 . S
C1042 C1043 1.372 . S
C1043 C1042 1.372 . S
C1043 C1044 1.400 . S
C1043 C1048 1.490 . S
C1044 H1034 0.930 . S
C1044 C1043 1.400 . S
C1044 C1047 1.386 . S
H1045 C1061 0.930 . S
H1046 C1062 0.931 . S
C1047 H1035 0.929 . S
C1047 C1041 1.390 . S
C1047 C1044 1.386 . S
C1048 C1043 1.490 . S
C1048 C1050 1.395 . S
C1048 C1051 1.403 . S
H1049 C1055 0.930 . S
C1050 H1036 0.930 . S
C1050 C1048 1.395 . S
C1050 C1053 1.403 . S
C1051 C1048 1.403 . S
C1051 C1052 1.524 . S
C1051 C1055 1.400 . S
C1052 H1037 0.960 . S
C1052 H1038 0.960 . S
C1052 H1039 0.960 . S
C1052 C1051 1.524 . S
C1053 C1050 1.403 . S
C1053 C1054 1.392 . S
C1053 C1057 1.495 . S
C1054 C1053 1.392 . S
C1054 C1055 1.385 . S
C1054 C1056 1.478 . S
C1055 H1049 0.930 . S
C1055 C1051 1.400 . S
C1055 C1054 1.385 . S
C1056 C1054 1.478 . S
C1056 C1058 1.381 . S
C1056 C1062 1.383 . S
C1057 C1053 1.495 . S
C1057 H1063 0.959 . S
C1057 H1064 0.961 . S
C1057 H1065 0.960 . S
C1058 C1056 1.381 . S
C1058 C1059 1.394 . S
C1058 H1066 0.930 . S
C1059 C1058 1.394 . S
C1059 C1060 1.383 . S
C1059 H1067 0.929 . S
C1060 C1059 1.383 . S
C1060 C1061 1.377 . S
C1061 H1045 0.930 . S
C1061 C1060 1.377 . S
C1061 C1062 1.379 . S
C1062 H1046 0.931 . S
C1062 C1056 1.383 . S
C1062 C1061 1.379 . S
H1063 C1057 0.959 . S
H1064 C1057 0.961 . S
H1065 C1057 0.960 . S
H1066 C1058 0.930 . S
H1067 C1059 0.929 . S
H1068 C1076 0.929 . S
H1069 C1078 0.930 . S
H1070 C1080 0.930 . S
H1071 C1083 0.929 . S
H1072 C1086 0.930 . S
H1073 C1088 0.960 . S
H1074 C1088 0.960 . S
H1075 C1088 0.960 . S
C1076 H1068 0.929 . S
C1076 C1077 1.377 . S
C1076 C1078 1.384 . S
C1077 C1076 1.377 . S
C1077 C1083 1.390 . S
C1078 H1069 0.930 . S
C1078 C1076 1.384 . S
C1078 C1079 1.372 . S
C1079 C1078 1.372 . S
C1079 C1080 1.400 . S
C1079 C1084 1.490 . S
C1080 H1070 0.930 . S
C1080 C1079 1.400 . S
C1080 C1083 1.386 . S
H1081 C1097 0.930 . S
H1082 C1098 0.931 . S
C1083 H1071 0.929 . S
C1083 C1077 1.390 . S
C1083 C1080 1.386 . S
C1084 C1079 1.490 . S
C1084 C1086 1.395 . S
C1084 C1087 1.403 . S
H1085 C1091 0.930 . S
C1086 H1072 0.930 . S
C1086 C1084 1.395 . S
C1086 C1089 1.403 . S
C1087 C1084 1.403 . S
C1087 C1088 1.524 . S
C1087 C1091 1.400 . S
C1088 H1073 0.960 . S
C1088 H1074 0.960 . S
C1088 H1075 0.960 . S
C1088 C1087 1.524 . S
C1089 C1086 1.403 . S
C1089 C1090 1.392 . S
C1089 C1093 1.495 . S
C1090 C1089 1.392 . S
C1090 C1091 1.385 . S
C1090 C1092 1.478 . S
C1091 H1085 0.930 . S
C1091 C1087 1.400 . S
C1091 C1090 1.385 . S
C1092 C1090 1.478 . S
C1092 C1094 1.381 . S
C1092 C1098 1.383 . S
C1093 C1089 1.495 . S
C1093 H1099 0.959 . S
C1093 H1100 0.961 . S
C1093 H1101 0.960 . S
C1094 C1092 1.381 . S
C1094 C1095 1.394 . S
C1094 H1102 0.930 . S
C1095 C1094 1.394 . S
C1095 C1096 1.383 . S
C1095 H1103 0.929 . S
C1096 C1095 1.383 . S
C1096 C1097 1.377 . S
C1097 H1081 0.930 . S
C1097 C1096 1.377 . S
C1097 C1098 1.379 . S
C1098 H1082 0.931 . S
C1098 C1092 1.383 . S
C1098 C1097 1.379 . S
H1099 C1093 0.959 . S
H1100 C1093 0.961 . S
H1101 C1093 0.960 . S
H1102 C1094 0.930 . S
H1103 C1095 0.929 . S
H1104 C1112 0.929 . S
H1105 C1114 0.930 . S
H1106 C1116 0.930 . S
H1107 C1119 0.929 . S
H1108 C1122 0.930 . S
H1109 C1124 0.960 . S
H1110 C1124 0.960 . S
H1111 C1124 0.960 . S
C1112 H1104 0.929 . S
C1112 C1113 1.377 . S
C1112 C1114 1.384 . S
C1113 C1112 1.377 . S
C1113 C1119 1.390 . S
C1114 H1105 0.930 . S
C1114 C1112 1.384 . S
C1114 C1115 1.372 . S
C1115 C1114 1.372 . S
C1115 C1116 1.400 . S
C1115 C1120 1.490 . S
C1116 H1106 0.930 . S
C1116 C1115 1.400 . S
C1116 C1119 1.386 . S
H1117 C1133 0.930 . S
H1118 C1134 0.931 . S
C1119 H1107 0.929 . S
C1119 C1113 1.390 . S
C1119 C1116 1.386 . S
C1120 C1115 1.490 . S
C1120 C1122 1.395 . S
C1120 C1123 1.403 . S
H1121 C1127 0.930 . S
C1122 H1108 0.930 . S
C1122 C1120 1.395 . S
C1122 C1125 1.403 . S
C1123 C1120 1.403 . S
C1123 C1124 1.524 . S
C1123 C1127 1.400 . S
C1124 H1109 0.960 . S
C1124 H1110 0.960 . S
C1124 H1111 0.960 . S
C1124 C1123 1.524 . S
C1125 C1122 1.403 . S
C1125 C1126 1.392 . S
C1125 C1129 1.495 . S
C1126 C1125 1.392 . S
C1126 C1127 1.385 . S
C1126 C1128 1.478 . S
C1127 H1121 0.930 . S
C1127 C1123 1.400 . S
C1127 C1126 1.385 . S
C1128 C1126 1.478 . S
C1128 C1130 1.381 . S
C1128 C1134 1.383 . S
C1129 C1125 1.495 . S
C1129 H1135 0.959 . S
C1129 H1136 0.961 . S
C1129 H1137 0.960 . S
C1130 C1128 1.381 . S
C1130 C1131 1.394 . S
C1130 H1138 0.930 . S
C1131 C1130 1.394 . S
C1131 C1132 1.383 . S
C1131 H1139 0.929 . S
C1132 C1131 1.383 . S
C1132 C1133 1.377 . S
C1133 H1117 0.930 . S
C1133 C1132 1.377 . S
C1133 C1134 1.379 . S
C1134 H1118 0.931 . S
C1134 C1128 1.383 . S
C1134 C1133 1.379 . S
H1135 C1129 0.959 . S
H1136 C1129 0.961 . S
H1137 C1129 0.960 . S
H1138 C1130 0.930 . S
H1139 C1131 0.929 . S
H1140 C1148 0.929 . S
H1141 C1150 0.930 . S
H1142 C1152 0.930 . S
H1143 C1155 0.929 . S
H1144 C1158 0.930 . S
H1145 C1160 0.960 . S
H1146 C1160 0.960 . S
H1147 C1160 0.960 . S
C1148 H1140 0.929 . S
C1148 C1149 1.377 . S
C1148 C1150 1.384 . S
C1149 C1148 1.377 . S
C1149 C1155 1.390 . S
C1150 H1141 0.930 . S
C1150 C1148 1.384 . S
C1150 C1151 1.372 . S
C1151 C1150 1.372 . S
C1151 C1152 1.400 . S
C1151 C1156 1.490 . S
C1152 H1142 0.930 . S
C1152 C1151 1.400 . S
C1152 C1155 1.386 . S
H1153 C1169 0.930 . S
H1154 C1170 0.931 . S
C1155 H1143 0.929 . S
C1155 C1149 1.390 . S
C1155 C1152 1.386 . S
C1156 C1151 1.490 . S
C1156 C1158 1.395 . S
C1156 C1159 1.403 . S
H1157 C1163 0.930 . S
C1158 H1144 0.930 . S
C1158 C1156 1.395 . S
C1158 C1161 1.403 . S
C1159 C1156 1.403 . S
C1159 C1160 1.524 . S
C1159 C1163 1.400 . S
C1160 H1145 0.960 . S
C1160 H1146 0.960 . S
C1160 H1147 0.960 . S
C1160 C1159 1.524 . S
C1161 C1158 1.403 . S
C1161 C1162 1.392 . S
C1161 C1165 1.495 . S
C1162 C1161 1.392 . S
C1162 C1163 1.385 . S
C1162 C1164 1.478 . S
C1163 H1157 0.930 . S
C1163 C1159 1.400 . S
C1163 C1162 1.385 . S
C1164 C1162 1.478 . S
C1164 C1166 1.381 . S
C1164 C1170 1.383 . S
C1165 C1161 1.495 . S
C1165 H1171 0.959 . S
C1165 H1172 0.961 . S
C1165 H1173 0.960 . S
C1166 C1164 1.381 . S
C1166 C1167 1.394 . S
C1166 H1174 0.930 . S
C1167 C1166 1.394 . S
C1167 C1168 1.383 . S
C1167 H1175 0.929 . S
C1168 C1167 1.383 . S
C1168 C1169 1.377 . S
C1169 H1153 0.930 . S
C1169 C1168 1.377 . S
C1169 C1170 1.379 . S
C1170 H1154 0.931 . S
C1170 C1164 1.383 . S
C1170 C1169 1.379 . S
H1171 C1165 0.959 . S
H1172 C1165 0.961 . S
H1173 C1165 0.960 . S
H1174 C1166 0.930 . S
H1175 C1167 0.929 . S
H1176 C1184 0.929 . S
H1177 C1186 0.930 . S
H1178 C1188 0.930 . S
H1179 C1191 0.929 . S
H1180 C1194 0.930 . S
H1181 C1196 0.960 . S
H1182 C1196 0.960 . S
H1183 C1196 0.960 . S
C1184 H1176 0.929 . S
C1184 C1185 1.377 . S
C1184 C1186 1.384 . S
C1185 C1184 1.377 . S
C1185 C1191 1.390 . S
C1186 H1177 0.930 . S
C1186 C1184 1.384 . S
C1186 C1187 1.372 . S
C1187 C1186 1.372 . S
C1187 C1188 1.400 . S
C1187 C1192 1.490 . S
C1188 H1178 0.930 . S
C1188 C1187 1.400 . S
C1188 C1191 1.386 . S
H1189 C1205 0.930 . S
H1190 C1206 0.931 . S
C1191 H1179 0.929 . S
C1191 C1185 1.390 . S
C1191 C1188 1.386 . S
C1192 C1187 1.490 . S
C1192 C1194 1.395 . S
C1192 C1195 1.403 . S
H1193 C1199 0.930 . S
C1194 H1180 0.930 . S
C1194 C1192 1.395 . S
C1194 C1197 1.403 . S
C1195 C1192 1.403 . S
C1195 C1196 1.524 . S
C1195 C1199 1.400 . S
C1196 H1181 0.960 . S
C1196 H1182 0.960 . S
C1196 H1183 0.960 . S
C1196 C1195 1.524 . S
C1197 C1194 1.403 . S
C1197 C1198 1.392 . S
C1197 C1201 1.495 . S
C1198 C1197 1.392 . S
C1198 C1199 1.385 . S
C1198 C1200 1.478 . S
C1199 H1193 0.930 . S
C1199 C1195 1.400 . S
C1199 C1198 1.385 . S
C1200 C1198 1.478 . S
C1200 C1202 1.381 . S
C1200 C1206 1.383 . S
C1201 C1197 1.495 . S
C1201 H1207 0.959 . S
C1201 H1208 0.961 . S
C1201 H1209 0.960 . S
C1202 C1200 1.381 . S
C1202 C1203 1.394 . S
C1202 H1210 0.930 . S
C1203 C1202 1.394 . S
C1203 C1204 1.383 . S
C1203 H1211 0.929 . S
C1204 C1203 1.383 . S
C1204 C1205 1.377 . S
C1205 H1189 0.930 . S
C1205 C1204 1.377 . S
C1205 C1206 1.379 . S
C1206 H1190 0.931 . S
C1206 C1200 1.383 . S
C1206 C1205 1.379 . S
H1207 C1201 0.959 . S
H1208 C1201 0.961 . S
H1209 C1201 0.960 . S
H1210 C1202 0.930 . S
H1211 C1203 0.929 . S
H1212 C1220 0.929 . S
H1213 C1222 0.930 . S
H1214 C1224 0.930 . S
H1215 C1227 0.929 . S
H1216 C1230 0.930 . S
H1217 C1232 0.960 . S
H1218 C1232 0.960 . S
H1219 C1232 0.960 . S
C1220 H1212 0.929 . S
C1220 C1221 1.377 . S
C1220 C1222 1.384 . S
C1221 C1220 1.377 . S
C1221 C1227 1.390 . S
C1222 H1213 0.930 . S
C1222 C1220 1.384 . S
C1222 C1223 1.372 . S
C1223 C1222 1.372 . S
C1223 C1224 1.400 . S
C1223 C1228 1.490 . S
C1224 H1214 0.930 . S
C1224 C1223 1.400 . S
C1224 C1227 1.386 . S
H1225 C1241 0.930 . S
H1226 C1242 0.931 . S
C1227 H1215 0.929 . S
C1227 C1221 1.390 . S
C1227 C1224 1.386 . S
C1228 C1223 1.490 . S
C1228 C1230 1.395 . S
C1228 C1231 1.403 . S
H1229 C1235 0.930 . S
C1230 H1216 0.930 . S
C1230 C1228 1.395 . S
C1230 C1233 1.403 . S
C1231 C1228 1.403 . S
C1231 C1232 1.524 . S
C1231 C1235 1.400 . S
C1232 H1217 0.960 . S
C1232 H1218 0.960 . S
C1232 H1219 0.960 . S
C1232 C1231 1.524 . S
C1233 C1230 1.403 . S
C1233 C1234 1.392 . S
C1233 C1237 1.495 . S
C1234 C1233 1.392 . S
C1234 C1235 1.385 . S
C1234 C1236 1.478 . S
C1235 H1229 0.930 . S
C1235 C1231 1.400 . S
C1235 C1234 1.385 . S
C1236 C1234 1.478 . S
C1236 C1238 1.381 . S
C1236 C1242 1.383 . S
C1237 C1233 1.495 . S
C1237 H1243 0.959 . S
C1237 H1244 0.961 . S
C1237 H1245 0.960 . S
C1238 C1236 1.381 . S
C1238 C1239 1.394 . S
C1238 H1246 0.930 . S
C1239 C1238 1.394 . S
C1239 C1240 1.383 . S
C1239 H1247 0.929 . S
C1240 C1239 1.383 . S
C1240 C1241 1.377 . S
C1241 H1225 0.930 . S
C1241 C1240 1.377 . S
C1241 C1242 1.379 . S
C1242 H1226 0.931 . S
C1242 C1236 1.383 . S
C1242 C1241 1.379 . S
H1243 C1237 0.959 . S
H1244 C1237 0.961 . S
H1245 C1237 0.960 . S
H1246 C1238 0.930 . S
H1247 C1239 0.929 . S
H1248 C1256 0.929 . S
H1249 C1258 0.930 . S
H1250 C1260 0.930 . S
H1251 C1263 0.929 . S
H1252 C1266 0.930 . S
H1253 C1268 0.960 . S
H1254 C1268 0.960 . S
H1255 C1268 0.960 . S
C1256 H1248 0.929 . S
C1256 C1257 1.377 . S
C1256 C1258 1.384 . S
C1257 C1256 1.377 . S
C1257 C1263 1.390 . S
C1258 H1249 0.930 . S
C1258 C1256 1.384 . S
C1258 C1259 1.372 . S
C1259 C1258 1.372 . S
C1259 C1260 1.400 . S
C1259 C1264 1.490 . S
C1260 H1250 0.930 . S
C1260 C1259 1.400 . S
C1260 C1263 1.386 . S
H1261 C1277 0.930 . S
H1262 C1278 0.931 . S
C1263 H1251 0.929 . S
C1263 C1257 1.390 . S
C1263 C1260 1.386 . S
C1264 C1259 1.490 . S
C1264 C1266 1.395 . S
C1264 C1267 1.403 . S
H1265 C1271 0.930 . S
C1266 H1252 0.930 . S
C1266 C1264 1.395 . S
C1266 C1269 1.403 . S
C1267 C1264 1.403 . S
C1267 C1268 1.524 . S
C1267 C1271 1.400 . S
C1268 H1253 0.960 . S
C1268 H1254 0.960 . S
C1268 H1255 0.960 . S
C1268 C1267 1.524 . S
C1269 C1266 1.403 . S
C1269 C1270 1.392 . S
C1269 C1273 1.495 . S
C1270 C1269 1.392 . S
C1270 C1271 1.385 . S
C1270 C1272 1.478 . S
C1271 H1265 0.930 . S
C1271 C1267 1.400 . S
C1271 C1270 1.385 . S
C1272 C1270 1.478 . S
C1272 C1274 1.381 . S
C1272 C1278 1.383 . S
C1273 C1269 1.495 . S
C1273 H1279 0.959 . S
C1273 H1280 0.961 . S
C1273 H1281 0.960 . S
C1274 C1272 1.381 . S
C1274 C1275 1.394 . S
C1274 H1282 0.930 . S
C1275 C1274 1.394 . S
C1275 C1276 1.383 . S
C1275 H1283 0.929 . S
C1276 C1275 1.383 . S
C1276 C1277 1.377 . S
C1277 H1261 0.930 . S
C1277 C1276 1.377 . S
C1277 C1278 1.379 . S
C1278 H1262 0.931 . S
C1278 C1272 1.383 . S
C1278 C1277 1.379 . S
H1279 C1273 0.959 . S
H1280 C1273 0.961 . S
H1281 C1273 0.960 . S
H1282 C1274 0.930 . S
H1283 C1275 0.929 . S
H1284 C1292 0.929 . S
H1285 C1294 0.930 . S
H1286 C1296 0.930 . S
H1287 C1299 0.929 . S
H1288 C1302 0.930 . S
H1289 C1304 0.960 . S
H1290 C1304 0.960 . S
H1291 C1304 0.960 . S
C1292 H1284 0.929 . S
C1292 C1293 1.377 . S
C1292 C1294 1.384 . S
C1293 C1292 1.377 . S
C1293 C1299 1.390 . S
C1294 H1285 0.930 . S
C1294 C1292 1.384 . S
C1294 C1295 1.372 . S
C1295 C1294 1.372 . S
C1295 C1296 1.400 . S
C1295 C1300 1.490 . S
C1296 H1286 0.930 . S
C1296 C1295 1.400 . S
C1296 C1299 1.386 . S
H1297 C1313 0.930 . S
H1298 C1314 0.931 . S
C1299 H1287 0.929 . S
C1299 C1293 1.390 . S
C1299 C1296 1.386 . S
C1300 C1295 1.490 . S
C1300 C1302 1.395 . S
C1300 C1303 1.403 . S
H1301 C1307 0.930 . S
C1302 H1288 0.930 . S
C1302 C1300 1.395 . S
C1302 C1305 1.403 . S
C1303 C1300 1.403 . S
C1303 C1304 1.524 . S
C1303 C1307 1.400 . S
C1304 H1289 0.960 . S
C1304 H1290 0.960 . S
C1304 H1291 0.960 . S
C1304 C1303 1.524 . S
C1305 C1302 1.403 . S
C1305 C1306 1.392 . S
C1305 C1309 1.495 . S
C1306 C1305 1.392 . S
C1306 C1307 1.385 . S
C1306 C1308 1.478 . S
C1307 H1301 0.930 . S
C1307 C1303 1.400 . S
C1307 C1306 1.385 . S
C1308 C1306 1.478 . S
C1308 C1310 1.381 . S
C1308 C1314 1.383 . S
C1309 C1305 1.495 . S
C1309 H1315 0.959 . S
C1309 H1316 0.961 . S
C1309 H1317 0.960 . S
C1310 C1308 1.381 . S
C1310 C1311 1.394 . S
C1310 H1318 0.930 . S
C1311 C1310 1.394 . S
C1311 C1312 1.383 . S
C1311 H1319 0.929 . S
C1312 C1311 1.383 . S
C1312 C1313 1.377 . S
C1313 H1297 0.930 . S
C1313 C1312 1.377 . S
C1313 C1314 1.379 . S
C1314 H1298 0.931 . S
C1314 C1308 1.383 . S
C1314 C1313 1.379 . S
H1315 C1309 0.959 . S
H1316 C1309 0.961 . S
H1317 C1309 0.960 . S
H1318 C1310 0.930 . S
H1319 C1311 0.929 . S
H1320 C1328 0.929 . S
H1321 C1330 0.930 . S
H1322 C1332 0.930 . S
H1323 C1335 0.929 . S
H1324 C1338 0.930 . S
H1325 C1340 0.960 . S
H1326 C1340 0.960 . S
H1327 C1340 0.960 . S
C1328 H1320 0.929 . S
C1328 C1329 1.377 . S
C1328 C1330 1.384 . S
C1329 C1328 1.377 . S
C1329 C1335 1.390 . S
C1330 H1321 0.930 . S
C1330 C1328 1.384 . S
C1330 C1331 1.372 . S
C1331 C1330 1.372 . S
C1331 C1332 1.400 . S
C1331 C1336 1.490 . S
C1332 H1322 0.930 . S
C1332 C1331 1.400 . S
C1332 C1335 1.386 . S
H1333 C1349 0.930 . S
H1334 C1350 0.931 . S
C1335 H1323 0.929 . S
C1335 C1329 1.390 . S
C1335 C1332 1.386 . S
C1336 C1331 1.490 . S
C1336 C1338 1.395 . S
C1336 C1339 1.403 . S
H1337 C1343 0.930 . S
C1338 H1324 0.930 . S
C1338 C1336 1.395 . S
C1338 C1341 1.403 . S
C1339 C1336 1.403 . S
C1339 C1340 1.524 . S
C1339 C1343 1.400 . S
C1340 H1325 0.960 . S
C1340 H1326 0.960 . S
C1340 H1327 0.960 . S
C1340 C1339 1.524 . S
C1341 C1338 1.403 . S
C1341 C1342 1.392 . S
C1341 C1345 1.495 . S
C1342 C1341 1.392 . S
C1342 C1343 1.385 . S
C1342 C1344 1.478 . S
C1343 H1337 0.930 . S
C1343 C1339 1.400 . S
C1343 C1342 1.385 . S
C1344 C1342 1.478 . S
C1344 C1346 1.381 . S
C1344 C1350 1.383 . S
C1345 C1341 1.495 . S
C1345 H1351 0.959 . S
C1345 H1352 0.961 . S
C1345 H1353 0.960 . S
C1346 C1344 1.381 . S
C1346 C1347 1.394 . S
C1346 H1354 0.930 . S
C1347 C1346 1.394 . S
C1347 C1348 1.383 . S
C1347 H1355 0.929 . S
C1348 C1347 1.383 . S
C1348 C1349 1.377 . S
C1349 H1333 0.930 . S
C1349 C1348 1.377 . S
C1349 C1350 1.379 . S
C1350 H1334 0.931 . S
C1350 C1344 1.383 . S
C1350 C1349 1.379 . S
H1351 C1345 0.959 . S
H1352 C1345 0.961 . S
H1353 C1345 0.960 . S
H1354 C1346 0.930 . S
H1355 C1347 0.929 . S
H1356 C1364 0.929 . S
H1357 C1366 0.930 . S
H1358 C1368 0.930 . S
H1359 C1371 0.929 . S
H1360 C1374 0.930 . S
H1361 C1376 0.960 . S
H1362 C1376 0.960 . S
H1363 C1376 0.960 . S
C1364 H1356 0.929 . S
C1364 C1365 1.377 . S
C1364 C1366 1.384 . S
C1365 C1364 1.377 . S
C1365 C1371 1.390 . S
C1366 H1357 0.930 . S
C1366 C1364 1.384 . S
C1366 C1367 1.372 . S
C1367 C1366 1.372 . S
C1367 C1368 1.400 . S
C1367 C1372 1.490 . S
C1368 H1358 0.930 . S
C1368 C1367 1.400 . S
C1368 C1371 1.386 . S
H1369 C1385 0.930 . S
H1370 C1386 0.931 . S
C1371 H1359 0.929 . S
C1371 C1365 1.390 . S
C1371 C1368 1.386 . S
C1372 C1367 1.490 . S
C1372 C1374 1.395 . S
C1372 C1375 1.403 . S
H1373 C1379 0.930 . S
C1374 H1360 0.930 . S
C1374 C1372 1.395 . S
C1374 C1377 1.403 . S
C1375 C1372 1.403 . S
C1375 C1376 1.524 . S
C1375 C1379 1.400 . S
C1376 H1361 0.960 . S
C1376 H1362 0.960 . S
C1376 H1363 0.960 . S
C1376 C1375 1.524 . S
C1377 C1374 1.403 . S
C1377 C1378 1.392 . S
C1377 C1381 1.495 . S
C1378 C1377 1.392 . S
C1378 C1379 1.385 . S
C1378 C1380 1.478 . S
C1379 H1373 0.930 . S
C1379 C1375 1.400 . S
C1379 C1378 1.385 . S
C1380 C1378 1.478 . S
C1380 C1382 1.381 . S
C1380 C1386 1.383 . S
C1381 C1377 1.495 . S
C1381 H1387 0.959 . S
C1381 H1388 0.961 . S
C1381 H1389 0.960 . S
C1382 C1380 1.381 . S
C1382 C1383 1.394 . S
C1382 H1390 0.930 . S
C1383 C1382 1.394 . S
C1383 C1384 1.383 . S
C1383 H1391 0.929 . S
C1384 C1383 1.383 . S
C1384 C1385 1.377 . S
C1385 H1369 0.930 . S
C1385 C1384 1.377 . S
C1385 C1386 1.379 . S
C1386 H1370 0.931 . S
C1386 C1380 1.383 . S
C1386 C1385 1.379 . S
H1387 C1381 0.959 . S
H1388 C1381 0.961 . S
H1389 C1381 0.960 . S
H1390 C1382 0.930 . S
H1391 C1383 0.929 . S
H1392 C1400 0.929 . S
H1393 C1402 0.930 . S
H1394 C1404 0.930 . S
H1395 C1407 0.929 . S
H1396 C1410 0.930 . S
H1397 C1412 0.960 . S
H1398 C1412 0.960 . S
H1399 C1412 0.960 . S
C1400 H1392 0.929 . S
C1400 C1401 1.377 . S
C1400 C1402 1.384 . S
C1401 C1400 1.377 . S
C1401 C1407 1.390 . S
C1402 H1393 0.930 . S
C1402 C1400 1.384 . S
C1402 C1403 1.372 . S
C1403 C1402 1.372 . S
C1403 C1404 1.400 . S
C1403 C1408 1.490 . S
C1404 H1394 0.930 . S
C1404 C1403 1.400 . S
C1404 C1407 1.386 . S
H1405 C1421 0.930 . S
H1406 C1422 0.931 . S
C1407 H1395 0.929 . S
C1407 C1401 1.390 . S
C1407 C1404 1.386 . S
C1408 C1403 1.490 . S
C1408 C1410 1.395 . S
C1408 C1411 1.403 . S
H1409 C1415 0.930 . S
C1410 H1396 0.930 . S
C1410 C1408 1.395 . S
C1410 C1413 1.403 . S
C1411 C1408 1.403 . S
C1411 C1412 1.524 . S
C1411 C1415 1.400 . S
C1412 H1397 0.960 . S
C1412 H1398 0.960 . S
C1412 H1399 0.960 . S
C1412 C1411 1.524 . S
C1413 C1410 1.403 . S
C1413 C1414 1.392 . S
C1413 C1417 1.495 . S
C1414 C1413 1.392 . S
C1414 C1415 1.385 . S
C1414 C1416 1.478 . S
C1415 H1409 0.930 . S
C1415 C1411 1.400 . S
C1415 C1414 1.385 . S
C1416 C1414 1.478 . S
C1416 C1418 1.381 . S
C1416 C1422 1.383 . S
C1417 C1413 1.495 . S
C1417 H1423 0.959 . S
C1417 H1424 0.961 . S
C1417 H1425 0.960 . S
C1418 C1416 1.381 . S
C1418 C1419 1.394 . S
C1418 H1426 0.930 . S
C1419 C1418 1.394 . S
C1419 C1420 1.383 . S
C1419 H1427 0.929 . S
C1420 C1419 1.383 . S
C1420 C1421 1.377 . S
C1421 H1405 0.930 . S
C1421 C1420 1.377 . S
C1421 C1422 1.379 . S
C1422 H1406 0.931 . S
C1422 C1416 1.383 . S
C1422 C1421 1.379 . S
H1423 C1417 0.959 . S
H1424 C1417 0.961 . S
H1425 C1417 0.960 . S
H1426 C1418 0.930 . S
H1427 C1419 0.929 . S
H1428 C1436 0.929 . S
H1429 C1438 0.930 . S
H1430 C1440 0.930 . S
H1431 C1443 0.929 . S
H1432 C1446 0.930 . S
H1433 C1448 0.960 . S
H1434 C1448 0.960 . S
H1435 C1448 0.960 . S
C1436 H1428 0.929 . S
C1436 C1437 1.377 . S
C1436 C1438 1.384 . S
C1437 C1436 1.377 . S
C1437 C1443 1.390 . S
C1438 H1429 0.930 . S
C1438 C1436 1.384 . S
C1438 C1439 1.372 . S
C1439 C1438 1.372 . S
C1439 C1440 1.400 . S
C1439 C1444 1.490 . S
C1440 H1430 0.930 . S
C1440 C1439 1.400 . S
C1440 C1443 1.386 . S
H1441 C1457 0.930 . S
H1442 C1458 0.931 . S
C1443 H1431 0.929 . S
C1443 C1437 1.390 . S
C1443 C1440 1.386 . S
C1444 C1439 1.490 . S
C1444 C1446 1.395 . S
C1444 C1447 1.403 . S
H1445 C1451 0.930 . S
C1446 H1432 0.930 . S
C1446 C1444 1.395 . S
C1446 C1449 1.403 . S
C1447 C1444 1.403 . S
C1447 C1448 1.524 . S
C1447 C1451 1.400 . S
C1448 H1433 0.960 . S
C1448 H1434 0.960 . S
C1448 H1435 0.960 . S
C1448 C1447 1.524 . S
C1449 C1446 1.403 . S
C1449 C1450 1.392 . S
C1449 C1453 1.495 . S
C1450 C1449 1.392 . S
C1450 C1451 1.385 . S
C1450 C1452 1.478 . S
C1451 H1445 0.930 . S
C1451 C1447 1.400 . S
C1451 C1450 1.385 . S
C1452 C1450 1.478 . S
C1452 C1454 1.381 . S
C1452 C1458 1.383 . S
C1453 C1449 1.495 . S
C1453 H1459 0.959 . S
C1453 H1460 0.961 . S
C1453 H1461 0.960 . S
C1454 C1452 1.381 . S
C1454 C1455 1.394 . S
C1454 H1462 0.930 . S
C1455 C1454 1.394 . S
C1455 C1456 1.383 . S
C1455 H1463 0.929 . S
C1456 C1455 1.383 . S
C1456 C1457 1.377 . S
C1457 H1441 0.930 . S
C1457 C1456 1.377 . S
C1457 C1458 1.379 . S
C1458 H1442 0.931 . S
C1458 C1452 1.383 . S
C1458 C1457 1.379 . S
H1459 C1453 0.959 . S
H1460 C1453 0.961 . S
H1461 C1453 0.960 . S
H1462 C1454 0.930 . S
H1463 C1455 0.929 . S
H1464 C1472 0.929 . S
H1465 C1474 0.930 . S
H1466 C1476 0.930 . S
H1467 C1479 0.929 . S
H1468 C1482 0.930 . S
H1469 C1484 0.960 . S
H1470 C1484 0.960 . S
H1471 C1484 0.960 . S
C1472 H1464 0.929 . S
C1472 C1473 1.377 . S
C1472 C1474 1.384 . S
C1473 C1472 1.377 . S
C1473 C1479 1.390 . S
C1474 H1465 0.930 . S
C1474 C1472 1.384 . S
C1474 C1475 1.372 . S
C1475 C1474 1.372 . S
C1475 C1476 1.400 . S
C1475 C1480 1.490 . S
C1476 H1466 0.930 . S
C1476 C1475 1.400 . S
C1476 C1479 1.386 . S
H1477 C1493 0.930 . S
H1478 C1494 0.931 . S
C1479 H1467 0.929 . S
C1479 C1473 1.390 . S
C1479 C1476 1.386 . S
C1480 C1475 1.490 . S
C1480 C1482 1.395 . S
C1480 C1483 1.403 . S
H1481 C1487 0.930 . S
C1482 H1468 0.930 . S
C1482 C1480 1.395 . S
C1482 C1485 1.403 . S
C1483 C1480 1.403 . S
C1483 C1484 1.524 . S
C1483 C1487 1.400 . S
C1484 H1469 0.960 . S
C1484 H1470 0.960 . S
C1484 H1471 0.960 . S
C1484 C1483 1.524 . S
C1485 C1482 1.403 . S
C1485 C1486 1.392 . S
C1485 C1489 1.495 . S
C1486 C1485 1.392 . S
C1486 C1487 1.385 . S
C1486 C1488 1.478 . S
C1487 H1481 0.930 . S
C1487 C1483 1.400 . S
C1487 C1486 1.385 . S
C1488 C1486 1.478 . S
C1488 C1490 1.381 . S
C1488 C1494 1.383 . S
C1489 C1485 1.495 . S
C1489 H1495 0.959 . S
C1489 H1496 0.961 . S
C1489 H1497 0.960 . S
C1490 C1488 1.381 . S
C1490 C1491 1.394 . S
C1490 H1498 0.930 . S
C1491 C1490 1.394 . S
C1491 C1492 1.383 . S
C1491 H1499 0.929 . S
C1492 C1491 1.383 . S
C1492 C1493 1.377 . S
C1493 H1477 0.930 . S
C1493 C1492 1.377 . S
C1493 C1494 1.379 . S
C1494 H1478 0.931 . S
C1494 C1488 1.383 . S
C1494 C1493 1.379 . S
H1495 C1489 0.959 . S
H1496 C1489 0.961 . S
H1497 C1489 0.960 . S
H1498 C1490 0.930 . S
H1499 C1491 0.929 . S
H1500 C1508 0.929 . S
H1501 C1510 0.930 . S
H1502 C1512 0.930 . S
H1503 C1515 0.929 . S
H1504 C1518 0.930 . S
H1505 C1520 0.960 . S
H1506 C1520 0.960 . S
H1507 C1520 0.960 . S
C1508 H1500 0.929 . S
C1508 C1509 1.377 . S
C1508 C1510 1.384 . S
C1509 C1508 1.377 . S
C1509 C1515 1.390 . S
C1510 H1501 0.930 . S
C1510 C1508 1.384 . S
C1510 C1511 1.372 . S
C1511 C1510 1.372 . S
C1511 C1512 1.400 . S
C1511 C1516 1.490 . S
C1512 H1502 0.930 . S
C1512 C1511 1.400 . S
C1512 C1515 1.386 . S
H1513 C1529 0.930 . S
H1514 C1530 0.931 . S
C1515 H1503 0.929 . S
C1515 C1509 1.390 . S
C1515 C1512 1.386 . S
C1516 C1511 1.490 . S
C1516 C1518 1.395 . S
C1516 C1519 1.403 . S
H1517 C1523 0.930 . S
C1518 H1504 0.930 . S
C1518 C1516 1.395 . S
C1518 C1521 1.403 . S
C1519 C1516 1.403 . S
C1519 C1520 1.524 . S
C1519 C1523 1.400 . S
C1520 H1505 0.960 . S
C1520 H1506 0.960 . S
C1520 H1507 0.960 . S
C1520 C1519 1.524 . S
C1521 C1518 1.403 . S
C1521 C1522 1.392 . S
C1521 C1525 1.495 . S
C1522 C1521 1.392 . S
C1522 C1523 1.385 . S
C1522 C1524 1.478 . S
C1523 H1517 0.930 . S
C1523 C1519 1.400 . S
C1523 C1522 1.385 . S
C1524 C1522 1.478 . S
C1524 C1526 1.381 . S
C1524 C1530 1.383 . S
C1525 C1521 1.495 . S
C1525 H1531 0.959 . S
C1525 H1532 0.961 . S
C1525 H1533 0.960 . S
C1526 C1524 1.381 . S
C1526 C1527 1.394 . S
C1526 H1534 0.930 . S
C1527 C1526 1.394 . S
C1527 C1528 1.383 . S
C1527 H1535 0.929 . S
C1528 C1527 1.383 . S
C1528 C1529 1.377 . S
C1529 H1513 0.930 . S
C1529 C1528 1.377 . S
C1529 C1530 1.379 . S
C1530 H1514 0.931 . S
C1530 C1524 1.383 . S
C1530 C1529 1.379 . S
H1531 C1525 0.959 . S
H1532 C1525 0.961 . S
H1533 C1525 0.960 . S
H1534 C1526 0.930 . S
H1535 C1527 0.929 . S
H1536 C1544 0.929 . S
H1537 C1546 0.930 . S
H1538 C1548 0.930 . S
H1539 C1551 0.929 . S
H1540 C1554 0.930 . S
H1541 C1556 0.960 . S
H1542 C1556 0.960 . S
H1543 C1556 0.960 . S
C1544 H1536 0.929 . S
C1544 C1545 1.377 . S
C1544 C1546 1.384 . S
C1545 C1544 1.377 . S
C1545 C1551 1.390 . S
C1546 H1537 0.930 . S
C1546 C1544 1.384 . S
C1546 C1547 1.372 . S
C1547 C1546 1.372 . S
C1547 C1548 1.400 . S
C1547 C1552 1.490 . S
C1548 H1538 0.930 . S
C1548 C1547 1.400 . S
C1548 C1551 1.386 . S
H1549 C1565 0.930 . S
H1550 C1566 0.931 . S
C1551 H1539 0.929 . S
C1551 C1545 1.390 . S
C1551 C1548 1.386 . S
C1552 C1547 1.490 . S
C1552 C1554 1.395 . S
C1552 C1555 1.403 . S
H1553 C1559 0.930 . S
C1554 H1540 0.930 . S
C1554 C1552 1.395 . S
C1554 C1557 1.403 . S
C1555 C1552 1.403 . S
C1555 C1556 1.524 . S
C1555 C1559 1.400 . S
C1556 H1541 0.960 . S
C1556 H1542 0.960 . S
C1556 H1543 0.960 . S
C1556 C1555 1.524 . S
C1557 C1554 1.403 . S
C1557 C1558 1.392 . S
C1557 C1561 1.495 . S
C1558 C1557 1.392 . S
C1558 C1559 1.385 . S
C1558 C1560 1.478 . S
C1559 H1553 0.930 . S
C1559 C1555 1.400 . S
C1559 C1558 1.385 . S
C1560 C1558 1.478 . S
C1560 C1562 1.381 . S
C1560 C1566 1.383 . S
C1561 C1557 1.495 . S
C1561 H1567 0.959 . S
C1561 H1568 0.961 . S
C1561 H1569 0.960 . S
C1562 C1560 1.381 . S
C1562 C1563 1.394 . S
C1562 H1570 0.930 . S
C1563 C1562 1.394 . S
C1563 C1564 1.383 . S
C1563 H1571 0.929 . S
C1564 C1563 1.383 . S
C1564 C1565 1.377 . S
C1565 H1549 0.930 . S
C1565 C1564 1.377 . S
C1565 C1566 1.379 . S
C1566 H1550 0.931 . S
C1566 C1560 1.383 . S
C1566 C1565 1.379 . S
H1567 C1561 0.959 . S
H1568 C1561 0.961 . S
H1569 C1561 0.960 . S
H1570 C1562 0.930 . S
H1571 C1563 0.929 . S
H1572 C1580 0.929 . S
H1573 C1582 0.930 . S
H1574 C1584 0.930 . S
H1575 C1587 0.929 . S
H1576 C1590 0.930 . S
H1577 C1592 0.960 . S
H1578 C1592 0.960 . S
H1579 C1592 0.960 . S
C1580 H1572 0.929 . S
C1580 C1581 1.377 . S
C1580 C1582 1.384 . S
C1581 C1580 1.377 . S
C1581 C1587 1.390 . S
C1582 H1573 0.930 . S
C1582 C1580 1.384 . S
C1582 C1583 1.372 . S
C1583 C1582 1.372 . S
C1583 C1584 1.400 . S
C1583 C1588 1.490 . S
C1584 H1574 0.930 . S
C1584 C1583 1.400 . S
C1584 C1587 1.386 . S
H1585 C1601 0.930 . S
H1586 C1602 0.931 . S
C1587 H1575 0.929 . S
C1587 C1581 1.390 . S
C1587 C1584 1.386 . S
C1588 C1583 1.490 . S
C1588 C1590 1.395 . S
C1588 C1591 1.403 . S
H1589 C1595 0.930 . S
C1590 H1576 0.930 . S
C1590 C1588 1.395 . S
C1590 C1593 1.403 . S
C1591 C1588 1.403 . S
C1591 C1592 1.524 . S
C1591 C1595 1.400 . S
C1592 H1577 0.960 . S
C1592 H1578 0.960 . S
C1592 H1579 0.960 . S
C1592 C1591 1.524 . S
C1593 C1590 1.403 . S
C1593 C1594 1.392 . S
C1593 C1597 1.495 . S
C1594 C1593 1.392 . S
C1594 C1595 1.385 . S
C1594 C1596 1.478 . S
C1595 H1589 0.930 . S
C1595 C1591 1.400 . S
C1595 C1594 1.385 . S
C1596 C1594 1.478 . S
C1596 C1598 1.381 . S
C1596 C1602 1.383 . S
C1597 C1593 1.495 . S
C1597 H1603 0.959 . S
C1597 H1604 0.961 . S
C1597 H1605 0.960 . S
C1598 C1596 1.381 . S
C1598 C1599 1.394 . S
C1598 H1606 0.930 . S
C1599 C1598 1.394 . S
C1599 C1600 1.383 . S
C1599 H1607 0.929 . S
C1600 C1599 1.383 . S
C1600 C1601 1.377 . S
C1601 H1585 0.930 . S
C1601 C1600 1.377 . S
C1601 C1602 1.379 . S
C1602 H1586 0.931 . S
C1602 C1596 1.383 . S
C1602 C1601 1.379 . S
H1603 C1597 0.959 . S
H1604 C1597 0.961 . S
H1605 C1597 0.960 . S
H1606 C1598 0.930 . S
H1607 C1599 0.929 . S
H1608 C1616 0.929 . S
H1609 C1618 0.930 . S
H1610 C1620 0.930 . S
H1611 C1623 0.929 . S
H1612 C1626 0.930 . S
H1613 C1628 0.960 . S
H1614 C1628 0.960 . S
H1615 C1628 0.960 . S
C1616 H1608 0.929 . S
C1616 C1617 1.377 . S
C1616 C1618 1.384 . S
C1617 C1616 1.377 . S
C1617 C1623 1.390 . S
C1618 H1609 0.930 . S
C1618 C1616 1.384 . S
C1618 C1619 1.372 . S
C1619 C1618 1.372 . S
C1619 C1620 1.400 . S
C1619 C1624 1.490 . S
C1620 H1610 0.930 . S
C1620 C1619 1.400 . S
C1620 C1623 1.386 . S
H1621 C1637 0.930 . S
H1622 C1638 0.931 . S
C1623 H1611 0.929 . S
C1623 C1617 1.390 . S
C1623 C1620 1.386 . S
C1624 C1619 1.490 . S
C1624 C1626 1.395 . S
C1624 C1627 1.403 . S
H1625 C1631 0.930 . S
C1626 H1612 0.930 . S
C1626 C1624 1.395 . S
C1626 C1629 1.403 . S
C1627 C1624 1.403 . S
C1627 C1628 1.524 . S
C1627 C1631 1.400 . S
C1628 H1613 0.960 . S
C1628 H1614 0.960 . S
C1628 H1615 0.960 . S
C1628 C1627 1.524 . S
C1629 C1626 1.403 . S
C1629 C1630 1.392 . S
C1629 C1633 1.495 . S
C1630 C1629 1.392 . S
C1630 C1631 1.385 . S
C1630 C1632 1.478 . S
C1631 H1625 0.930 . S
C1631 C1627 1.400 . S
C1631 C1630 1.385 . S
C1632 C1630 1.478 . S
C1632 C1634 1.381 . S
C1632 C1638 1.383 . S
C1633 C1629 1.495 . S
C1633 H1639 0.959 . S
C1633 H1640 0.961 . S
C1633 H1641 0.960 . S
C1634 C1632 1.381 . S
C1634 C1635 1.394 . S
C1634 H1642 0.930 . S
C1635 C1634 1.394 . S
C1635 C1636 1.383 . S
C1635 H1643 0.929 . S
C1636 C1635 1.383 . S
C1636 C1637 1.377 . S
C1637 H1621 0.930 . S
C1637 C1636 1.377 . S
C1637 C1638 1.379 . S
C1638 H1622 0.931 . S
C1638 C1632 1.383 . S
C1638 C1637 1.379 . S
H1639 C1633 0.959 . S
H1640 C1633 0.961 . S
H1641 C1633 0.960 . S
H1642 C1634 0.930 . S
H1643 C1635 0.929 . S
H1644 C1652 0.929 . S
H1645 C1654 0.930 . S
H1646 C1656 0.930 . S
H1647 C1659 0.929 . S
H1648 C1662 0.930 . S
H1649 C1664 0.960 . S
H1650 C1664 0.960 . S
H1651 C1664 0.960 . S
C1652 H1644 0.929 . S
C1652 C1653 1.377 . S
C1652 C1654 1.384 . S
C1653 C1652 1.377 . S
C1653 C1659 1.390 . S
C1654 H1645 0.930 . S
C1654 C1652 1.384 . S
C1654 C1655 1.372 . S
C1655 C1654 1.372 . S
C1655 C1656 1.400 . S
C1655 C1660 1.490 . S
C1656 H1646 0.930 . S
C1656 C1655 1.400 . S
C1656 C1659 1.386 . S
H1657 C1673 0.930 . S
H1658 C1674 0.931 . S
C1659 H1647 0.929 . S
C1659 C1653 1.390 . S
C1659 C1656 1.386 . S
C1660 C1655 1.490 . S
C1660 C1662 1.395 . S
C1660 C1663 1.403 . S
H1661 C1667 0.930 . S
C1662 H1648 0.930 . S
C1662 C1660 1.395 . S
C1662 C1665 1.403 . S
C1663 C1660 1.403 . S
C1663 C1664 1.524 . S
C1663 C1667 1.400 . S
C1664 H1649 0.960 . S
C1664 H1650 0.960 . S
C1664 H1651 0.960 . S
C1664 C1663 1.524 . S
C1665 C1662 1.403 . S
C1665 C1666 1.392 . S
C1665 C1669 1.495 . S
C1666 C1665 1.392 . S
C1666 C1667 1.385 . S
C1666 C1668 1.478 . S
C1667 H1661 0.930 . S
C1667 C1663 1.400 . S
C1667 C1666 1.385 . S
C1668 C1666 1.478 . S
C1668 C1670 1.381 . S
C1668 C1674 1.383 . S
C1669 C1665 1.495 . S
C1669 H1675 0.959 . S
C1669 H1676 0.961 . S
C1669 H1677 0.960 . S
C1670 C1668 1.381 . S
C1670 C1671 1.394 . S
C1670 H1678 0.930 . S
C1671 C1670 1.394 . S
C1671 C1672 1.383 . S
C1671 H1679 0.929 . S
C1672 C1671 1.383 . S
C1672 C1673 1.377 . S
C1673 H1657 0.930 . S
C1673 C1672 1.377 . S
C1673 C1674 1.379 . S
C1674 H1658 0.931 . S
C1674 C1668 1.383 . S
C1674 C1673 1.379 . S
H1675 C1669 0.959 . S
H1676 C1669 0.961 . S
H1677 C1669 0.960 . S
H1678 C1670 0.930 . S
H1679 C1671 0.929 . S
H1680 C1688 0.929 . S
H1681 C1690 0.930 . S
H1682 C1692 0.930 . S
H1683 C1695 0.929 . S
H1684 C1698 0.930 . S
H1685 C1700 0.960 . S
H1686 C1700 0.960 . S
H1687 C1700 0.960 . S
C1688 H1680 0.929 . S
C1688 C1689 1.377 . S
C1688 C1690 1.384 . S
C1689 C1688 1.377 . S
C1689 C1695 1.390 . S
C1690 H1681 0.930 . S
C1690 C1688 1.384 . S
C1690 C1691 1.372 . S
C1691 C1690 1.372 . S
C1691 C1692 1.400 . S
C1691 C1696 1.490 . S
C1692 H1682 0.930 . S
C1692 C1691 1.400 . S
C1692 C1695 1.386 . S
H1693 C1709 0.930 . S
H1694 C1710 0.931 . S
C1695 H1683 0.929 . S
C1695 C1689 1.390 . S
C1695 C1692 1.386 . S
C1696 C1691 1.490 . S
C1696 C1698 1.395 . S
C1696 C1699 1.403 . S
H1697 C1703 0.930 . S
C1698 H1684 0.930 . S
C1698 C1696 1.395 . S
C1698 C1701 1.403 . S
C1699 C1696 1.403 . S
C1699 C1700 1.524 . S
C1699 C1703 1.400 . S
C1700 H1685 0.960 . S
C1700 H1686 0.960 . S
C1700 H1687 0.960 . S
C1700 C1699 1.524 . S
C1701 C1698 1.403 . S
C1701 C1702 1.392 . S
C1701 C1705 1.495 . S
C1702 C1701 1.392 . S
C1702 C1703 1.385 . S
C1702 C1704 1.478 . S
C1703 H1697 0.930 . S
C1703 C1699 1.400 . S
C1703 C1702 1.385 . S
C1704 C1702 1.478 . S
C1704 C1706 1.381 . S
C1704 C1710 1.383 . S
C1705 C1701 1.495 . S
C1705 H1711 0.959 . S
C1705 H1712 0.961 . S
C1705 H1713 0.960 . S
C1706 C1704 1.381 . S
C1706 C1707 1.394 . S
C1706 H1714 0.930 . S
C1707 C1706 1.394 . S
C1707 C1708 1.383 . S
C1707 H1715 0.929 . S
C1708 C1707 1.383 . S
C1708 C1709 1.377 . S
C1709 H1693 0.930 . S
C1709 C1708 1.377 . S
C1709 C1710 1.379 . S
C1710 H1694 0.931 . S
C1710 C1704 1.383 . S
C1710 C1709 1.379 . S
H1711 C1705 0.959 . S
H1712 C1705 0.961 . S
H1713 C1705 0.960 . S
H1714 C1706 0.930 . S
H1715 C1707 0.929 . S
H1716 C1724 0.929 . S
H1717 C1726 0.930 . S
H1718 C1728 0.930 . S
H1719 C1731 0.929 . S
H1720 C1734 0.930 . S
H1721 C1736 0.960 . S
H1722 C1736 0.960 . S
H1723 C1736 0.960 . S
C1724 H1716 0.929 . S
C1724 C1725 1.377 . S
C1724 C1726 1.384 . S
C1725 C1724 1.377 . S
C1725 C1731 1.390 . S
C1726 H1717 0.930 . S
C1726 C1724 1.384 . S
C1726 C1727 1.372 . S
C1727 C1726 1.372 . S
C1727 C1728 1.400 . S
C1727 C1732 1.490 . S
C1728 H1718 0.930 . S
C1728 C1727 1.400 . S
C1728 C1731 1.386 . S
H1729 C1745 0.930 . S
H1730 C1746 0.931 . S
C1731 H1719 0.929 . S
C1731 C1725 1.390 . S
C1731 C1728 1.386 . S
C1732 C1727 1.490 . S
C1732 C1734 1.395 . S
C1732 C1735 1.403 . S
H1733 C1739 0.930 . S
C1734 H1720 0.930 . S
C1734 C1732 1.395 . S
C1734 C1737 1.403 . S
C1735 C1732 1.403 . S
C1735 C1736 1.524 . S
C1735 C1739 1.400 . S
C1736 H1721 0.960 . S
C1736 H1722 0.960 . S
C1736 H1723 0.960 . S
C1736 C1735 1.524 . S
C1737 C1734 1.403 . S
C1737 C1738 1.392 . S
C1737 C1741 1.495 . S
C1738 C1737 1.392 . S
C1738 C1739 1.385 . S
C1738 C1740 1.478 . S
C1739 H1733 0.930 . S
C1739 C1735 1.400 . S
C1739 C1738 1.385 . S
C1740 C1738 1.478 . S
C1740 C1742 1.381 . S
C1740 C1746 1.383 . S
C1741 C1737 1.495 . S
C1741 H1747 0.959 . S
C1741 H1748 0.961 . S
C1741 H1749 0.960 . S
C1742 C1740 1.381 . S
C1742 C1743 1.394 . S
C1742 H1750 0.930 . S
C1743 C1742 1.394 . S
C1743 C1744 1.383 . S
C1743 H1751 0.929 . S
C1744 C1743 1.383 . S
C1744 C1745 1.377 . S
C1745 H1729 0.930 . S
C1745 C1744 1.377 . S
C1745 C1746 1.379 . S
C1746 H1730 0.931 . S
C1746 C1740 1.383 . S
C1746 C1745 1.379 . S
H1747 C1741 0.959 . S
H1748 C1741 0.961 . S
H1749 C1741 0.960 . S
H1750 C1742 0.930 . S
H1751 C1743 0.929 . S
H1752 C1760 0.929 . S
H1753 C1762 0.930 . S
H1754 C1764 0.930 . S
H1755 C1767 0.929 . S
H1756 C1770 0.930 . S
H1757 C1772 0.960 . S
H1758 C1772 0.960 . S
H1759 C1772 0.960 . S
C1760 H1752 0.929 . S
C1760 C1761 1.377 . S
C1760 C1762 1.384 . S
C1761 C1760 1.377 . S
C1761 C1767 1.390 . S
C1762 H1753 0.930 . S
C1762 C1760 1.384 . S
C1762 C1763 1.372 . S
C1763 C1762 1.372 . S
C1763 C1764 1.400 . S
C1763 C1768 1.490 . S
C1764 H1754 0.930 . S
C1764 C1763 1.400 . S
C1764 C1767 1.386 . S
H1765 C1781 0.930 . S
H1766 C1782 0.931 . S
C1767 H1755 0.929 . S
C1767 C1761 1.390 . S
C1767 C1764 1.386 . S
C1768 C1763 1.490 . S
C1768 C1770 1.395 . S
C1768 C1771 1.403 . S
H1769 C1775 0.930 . S
C1770 H1756 0.930 . S
C1770 C1768 1.395 . S
C1770 C1773 1.403 . S
C1771 C1768 1.403 . S
C1771 C1772 1.524 . S
C1771 C1775 1.400 . S
C1772 H1757 0.960 . S
C1772 H1758 0.960 . S
C1772 H1759 0.960 . S
C1772 C1771 1.524 . S
C1773 C1770 1.403 . S
C1773 C1774 1.392 . S
C1773 C1777 1.495 . S
C1774 C1773 1.392 . S
C1774 C1775 1.385 . S
C1774 C1776 1.478 . S
C1775 H1769 0.930 . S
C1775 C1771 1.400 . S
C1775 C1774 1.385 . S
C1776 C1774 1.478 . S
C1776 C1778 1.381 . S
C1776 C1782 1.383 . S
C1777 C1773 1.495 . S
C1777 H1783 0.959 . S
C1777 H1784 0.961 . S
C1777 H1785 0.960 . S
C1778 C1776 1.381 . S
C1778 C1779 1.394 . S
C1778 H1786 0.930 . S
C1779 C1778 1.394 . S
C1779 C1780 1.383 . S
C1779 H1787 0.929 . S
C1780 C1779 1.383 . S
C1780 C1781 1.377 . S
C1781 H1765 0.930 . S
C1781 C1780 1.377 . S
C1781 C1782 1.379 . S
C1782 H1766 0.931 . S
C1782 C1776 1.383 . S
C1782 C1781 1.379 . S
H1783 C1777 0.959 . S
H1784 C1777 0.961 . S
H1785 C1777 0.960 . S
H1786 C1778 0.930 . S
H1787 C1779 0.929 . S
H1788 C1796 0.929 . S
H1789 C1798 0.930 . S
H1790 C1800 0.930 . S
H1791 C1803 0.929 . S
H1792 C1806 0.930 . S
H1793 C1808 0.960 . S
H1794 C1808 0.960 . S
H1795 C1808 0.960 . S
C1796 H1788 0.929 . S
C1796 C1797 1.377 . S
C1796 C1798 1.384 . S
C1797 C1796 1.377 . S
C1797 C1803 1.390 . S
C1798 H1789 0.930 . S
C1798 C1796 1.384 . S
C1798 C1799 1.372 . S
C1799 C1798 1.372 . S
C1799 C1800 1.400 . S
C1799 C1804 1.490 . S
C1800 H1790 0.930 . S
C1800 C1799 1.400 . S
C1800 C1803 1.386 . S
H1801 C1817 0.930 . S
H1802 C1818 0.931 . S
C1803 H1791 0.929 . S
C1803 C1797 1.390 . S
C1803 C1800 1.386 . S
C1804 C1799 1.490 . S
C1804 C1806 1.395 . S
C1804 C1807 1.403 . S
H1805 C1811 0.930 . S
C1806 H1792 0.930 . S
C1806 C1804 1.395 . S
C1806 C1809 1.403 . S
C1807 C1804 1.403 . S
C1807 C1808 1.524 . S
C1807 C1811 1.400 . S
C1808 H1793 0.960 . S
C1808 H1794 0.960 . S
C1808 H1795 0.960 . S
C1808 C1807 1.524 . S
C1809 C1806 1.403 . S
C1809 C1810 1.392 . S
C1809 C1813 1.495 . S
C1810 C1809 1.392 . S
C1810 C1811 1.385 . S
C1810 C1812 1.478 . S
C1811 H1805 0.930 . S
C1811 C1807 1.400 . S
C1811 C1810 1.385 . S
C1812 C1810 1.478 . S
C1812 C1814 1.381 . S
C1812 C1818 1.383 . S
C1813 C1809 1.495 . S
C1813 H1819 0.959 . S
C1813 H1820 0.961 . S
C1813 H1821 0.960 . S
C1814 C1812 1.381 . S
C1814 C1815 1.394 . S
C1814 H1822 0.930 . S
C1815 C1814 1.394 . S
C1815 C1816 1.383 . S
C1815 H1823 0.929 . S
C1816 C1815 1.383 . S
C1816 C1817 1.377 . S
C1817 H1801 0.930 . S
C1817 C1816 1.377 . S
C1817 C1818 1.379 . S
C1818 H1802 0.931 . S
C1818 C1812 1.383 . S
C1818 C1817 1.379 . S
H1819 C1813 0.959 . S
H1820 C1813 0.961 . S
H1821 C1813 0.960 . S
H1822 C1814 0.930 . S
H1823 C1815 0.929 . S
H1824 C1832 0.929 . S
H1825 C1834 0.930 . S
H1826 C1836 0.930 . S
H1827 C1839 0.929 . S
H1828 C1842 0.930 . S
H1829 C1844 0.960 . S
H1830 C1844 0.960 . S
H1831 C1844 0.960 . S
C1832 H1824 0.929 . S
C1832 C1833 1.377 . S
C1832 C1834 1.384 . S
C1833 C1832 1.377 . S
C1833 C1839 1.390 . S
C1834 H1825 0.930 . S
C1834 C1832 1.384 . S
C1834 C1835 1.372 . S
C1835 C1834 1.372 . S
C1835 C1836 1.400 . S
C1835 C1840 1.490 . S
C1836 H1826 0.930 . S
C1836 C1835 1.400 . S
C1836 C1839 1.386 . S
H1837 C1853 0.930 . S
H1838 C1854 0.931 . S
C1839 H1827 0.929 . S
C1839 C1833 1.390 . S
C1839 C1836 1.386 . S
C1840 C1835 1.490 . S
C1840 C1842 1.395 . S
C1840 C1843 1.403 . S
H1841 C1847 0.930 . S
C1842 H1828 0.930 . S
C1842 C1840 1.395 . S
C1842 C1845 1.403 . S
C1843 C1840 1.403 . S
C1843 C1844 1.524 . S
C1843 C1847 1.400 . S
C1844 H1829 0.960 . S
C1844 H1830 0.960 . S
C1844 H1831 0.960 . S
C1844 C1843 1.524 . S
C1845 C1842 1.403 . S
C1845 C1846 1.392 . S
C1845 C1849 1.495 . S
C1846 C1845 1.392 . S
C1846 C1847 1.385 . S
C1846 C1848 1.478 . S
C1847 H1841 0.930 . S
C1847 C1843 1.400 . S
C1847 C1846 1.385 . S
C1848 C1846 1.478 . S
C1848 C1850 1.381 . S
C1848 C1854 1.383 . S
C1849 C1845 1.495 . S
C1849 H1855 0.959 . S
C1849 H1856 0.961 . S
C1849 H1857 0.960 . S
C1850 C1848 1.381 . S
C1850 C1851 1.394 . S
C1850 H1858 0.930 . S
C1851 C1850 1.394 . S
C1851 C1852 1.383 . S
C1851 H1859 0.929 . S
C1852 C1851 1.383 . S
C1852 C1853 1.377 . S
C1853 H1837 0.930 . S
C1853 C1852 1.377 . S
C1853 C1854 1.379 . S
C1854 H1838 0.931 . S
C1854 C1848 1.383 . S
C1854 C1853 1.379 . S
H1855 C1849 0.959 . S
H1856 C1849 0.961 . S
H1857 C1849 0.960 . S
H1858 C1850 0.930 . S
H1859 C1851 0.929 . S
H1860 C1868 0.929 . S
H1861 C1870 0.930 . S
H1862 C1872 0.930 . S
H1863 C1875 0.929 . S
H1864 C1878 0.930 . S
H1865 C1880 0.960 . S
H1866 C1880 0.960 . S
H1867 C1880 0.960 . S
C1868 H1860 0.929 . S
C1868 C1869 1.377 . S
C1868 C1870 1.384 . S
C1869 C1868 1.377 . S
C1869 C1875 1.390 . S
C1870 H1861 0.930 . S
C1870 C1868 1.384 . S
C1870 C1871 1.372 . S
C1871 C1870 1.372 . S
C1871 C1872 1.400 . S
C1871 C1876 1.490 . S
C1872 H1862 0.930 . S
C1872 C1871 1.400 . S
C1872 C1875 1.386 . S
H1873 C1889 0.930 . S
H1874 C1890 0.931 . S
C1875 H1863 0.929 . S
C1875 C1869 1.390 . S
C1875 C1872 1.386 . S
C1876 C1871 1.490 . S
C1876 C1878 1.395 . S
C1876 C1879 1.403 . S
H1877 C1883 0.930 . S
C1878 H1864 0.930 . S
C1878 C1876 1.395 . S
C1878 C1881 1.403 . S
C1879 C1876 1.403 . S
C1879 C1880 1.524 . S
C1879 C1883 1.400 . S
C1880 H1865 0.960 . S
C1880 H1866 0.960 . S
C1880 H1867 0.960 . S
C1880 C1879 1.524 . S
C1881 C1878 1.403 . S
C1881 C1882 1.392 . S
C1881 C1885 1.495 . S
C1882 C1881 1.392 . S
C1882 C1883 1.385 . S
C1882 C1884 1.478 . S
C1883 H1877 0.930 . S
C1883 C1879 1.400 . S
C1883 C1882 1.385 . S
C1884 C1882 1.478 . S
C1884 C1886 1.381 . S
C1884 C1890 1.383 . S
C1885 C1881 1.495 . S
C1885 H1891 0.959 . S
C1885 H1892 0.961 . S
C1885 H1893 0.960 . S
C1886 C1884 1.381 . S
C1886 C1887 1.394 . S
C1886 H1894 0.930 . S
C1887 C1886 1.394 . S
C1887 C1888 1.383 . S
C1887 H1895 0.929 . S
C1888 C1887 1.383 . S
C1888 C1889 1.377 . S
C1889 H1873 0.930 . S
C1889 C1888 1.377 . S
C1889 C1890 1.379 . S
C1890 H1874 0.931 . S
C1890 C1884 1.383 . S
C1890 C1889 1.379 . S
H1891 C1885 0.959 . S
H1892 C1885 0.961 . S
H1893 C1885 0.960 . S
H1894 C1886 0.930 . S
H1895 C1887 0.929 . S
H1896 C1904 0.929 . S
H1897 C1906 0.930 . S
H1898 C1908 0.930 . S
H1899 C1911 0.929 . S
H1900 C1914 0.930 . S
H1901 C1916 0.960 . S
H1902 C1916 0.960 . S
H1903 C1916 0.960 . S
C1904 H1896 0.929 . S
C1904 C1905 1.377 . S
C1904 C1906 1.384 . S
C1905 C1904 1.377 . S
C1905 C1911 1.390 . S
C1906 H1897 0.930 . S
C1906 C1904 1.384 . S
C1906 C1907 1.372 . S
C1907 C1906 1.372 . S
C1907 C1908 1.400 . S
C1907 C1912 1.490 . S
C1908 H1898 0.930 . S
C1908 C1907 1.400 . S
C1908 C1911 1.386 . S
H1909 C1925 0.930 . S
H1910 C1926 0.931 . S
C1911 H1899 0.929 . S
C1911 C1905 1.390 . S
C1911 C1908 1.386 . S
C1912 C1907 1.490 . S
C1912 C1914 1.395 . S
C1912 C1915 1.403 . S
H1913 C1919 0.930 . S
C1914 H1900 0.930 . S
C1914 C1912 1.395 . S
C1914 C1917 1.403 . S
C1915 C1912 1.403 . S
C1915 C1916 1.524 . S
C1915 C1919 1.400 . S
C1916 H1901 0.960 . S
C1916 H1902 0.960 . S
C1916 H1903 0.960 . S
C1916 C1915 1.524 . S
C1917 C1914 1.403 . S
C1917 C1918 1.392 . S
C1917 C1921 1.495 . S
C1918 C1917 1.392 . S
C1918 C1919 1.385 . S
C1918 C1920 1.478 . S
C1919 H1913 0.930 . S
C1919 C1915 1.400 . S
C1919 C1918 1.385 . S
C1920 C1918 1.478 . S
C1920 C1922 1.381 . S
C1920 C1926 1.383 . S
C1921 C1917 1.495 . S
C1921 H1927 0.959 . S
C1921 H1928 0.961 . S
C1921 H1929 0.960 . S
C1922 C1920 1.381 . S
C1922 C1923 1.394 . S
C1922 H1930 0.930 . S
C1923 C1922 1.394 . S
C1923 C1924 1.383 . S
C1923 H1931 0.929 . S
C1924 C1923 1.383 . S
C1924 C1925 1.377 . S
C1925 H1909 0.930 . S
C1925 C1924 1.377 . S
C1925 C1926 1.379 . S
C1926 H1910 0.931 . S
C1926 C1920 1.383 . S
C1926 C1925 1.379 . S
H1927 C1921 0.959 . S
H1928 C1921 0.961 . S
H1929 C1921 0.960 . S
H1930 C1922 0.930 . S
H1931 C1923 0.929 . S
H1932 C1940 0.929 . S
H1933 C1942 0.930 . S
H1934 C1944 0.930 . S
H1935 C1947 0.929 . S
H1936 C1950 0.930 . S
H1937 C1952 0.960 . S
H1938 C1952 0.960 . S
H1939 C1952 0.960 . S
C1940 H1932 0.929 . S
C1940 C1941 1.377 . S
C1940 C1942 1.384 . S
C1941 C1940 1.377 . S
C1941 C1947 1.390 . S
C1942 H1933 0.930 . S
C1942 C1940 1.384 . S
C1942 C1943 1.372 . S
C1943 C1942 1.372 . S
C1943 C1944 1.400 . S
C1943 C1948 1.490 . S
C1944 H1934 0.930 . S
C1944 C1943 1.400 . S
C1944 C1947 1.386 . S
H1945 C1961 0.930 . S
H1946 C1962 0.931 . S
C1947 H1935 0.929 . S
C1947 C1941 1.390 . S
C1947 C1944 1.386 . S
C1948 C1943 1.490 . S
C1948 C1950 1.395 . S
C1948 C1951 1.403 . S
H1949 C1955 0.930 . S
C1950 H1936 0.930 . S
C1950 C1948 1.395 . S
C1950 C1953 1.403 . S
C1951 C1948 1.403 . S
C1951 C1952 1.524 . S
C1951 C1955 1.400 . S
C1952 H1937 0.960 . S
C1952 H1938 0.960 . S
C1952 H1939 0.960 . S
C1952 C1951 1.524 . S
C1953 C1950 1.403 . S
C1953 C1954 1.392 . S
C1953 C1957 1.495 . S
C1954 C1953 1.392 . S
C1954 C1955 1.385 . S
C1954 C1956 1.478 . S
C1955 H1949 0.930 . S
C1955 C1951 1.400 . S
C1955 C1954 1.385 . S
C1956 C1954 1.478 . S
C1956 C1958 1.381 . S
C1956 C1962 1.383 . S
C1957 C1953 1.495 . S
C1957 H1963 0.959 . S
C1957 H1964 0.961 . S
C1957 H1965 0.960 . S
C1958 C1956 1.381 . S
C1958 C1959 1.394 . S
C1958 H1966 0.930 . S
C1959 C1958 1.394 . S
C1959 C1960 1.383 . S
C1959 H1967 0.929 . S
C1960 C1959 1.383 . S
C1960 C1961 1.377 . S
C1961 H1945 0.930 . S
C1961 C1960 1.377 . S
C1961 C1962 1.379 . S
C1962 H1946 0.931 . S
C1962 C1956 1.383 . S
C1962 C1961 1.379 . S
H1963 C1957 0.959 . S
H1964 C1957 0.961 . S
H1965 C1957 0.960 . S
H1966 C1958 0.930 . S
H1967 C1959 0.929 . S
H1968 C1976 0.929 . S
H1969 C1978 0.930 . S
H1970 C1980 0.930 . S
H1971 C1983 0.929 . S
H1972 C1986 0.930 . S
H1973 C1988 0.960 . S
H1974 C1988 0.960 . S
H1975 C1988 0.960 . S
C1976 H1968 0.929 . S
C1976 C1977 1.377 . S
C1976 C1978 1.384 . S
C1977 C1976 1.377 . S
C1977 C1983 1.390 . S
C1978 H1969 0.930 . S
C1978 C1976 1.384 . S
C1978 C1979 1.372 . S
C1979 C1978 1.372 . S
C1979 C1980 1.400 . S
C1979 C1984 1.490 . S
C1980 H1970 0.930 . S
C1980 C1979 1.400 . S
C1980 C1983 1.386 . S
H1981 C1997 0.930 . S
H1982 C1998 0.931 . S
C1983 H1971 0.929 . S
C1983 C1977 1.390 . S
C1983 C1980 1.386 . S
C1984 C1979 1.490 . S
C1984 C1986 1.395 . S
C1984 C1987 1.403 . S
H1985 C1991 0.930 . S
C1986 H1972 0.930 . S
C1986 C1984 1.395 . S
C1986 C1989 1.403 . S
C1987 C1984 1.403 . S
C1987 C1988 1.524 . S
C1987 C1991 1.400 . S
C1988 H1973 0.960 . S
C1988 H1974 0.960 . S
C1988 H1975 0.960 . S
C1988 C1987 1.524 . S
C1989 C1986 1.403 . S
C1989 C1990 1.392 . S
C1989 C1993 1.495 . S
C1990 C1989 1.392 . S
C1990 C1991 1.385 . S
C1990 C1992 1.478 . S
C1991 H1985 0.930 . S
C1991 C1987 1.400 . S
C1991 C1990 1.385 . S
C1992 C1990 1.478 . S
C1992 C1994 1.381 . S
C1992 C1998 1.383 . S
C1993 C1989 1.495 . S
C1993 H1999 0.959 . S
C1993 H2000 0.961 . S
C1993 H2001 0.960 . S
C1994 C1992 1.381 . S
C1994 C1995 1.394 . S
C1994 H2002 0.930 . S
C1995 C1994 1.394 . S
C1995 C1996 1.383 . S
C1995 H2003 0.929 . S
C1996 C1995 1.383 . S
C1996 C1997 1.377 . S
C1997 H1981 0.930 . S
C1997 C1996 1.377 . S
C1997 C1998 1.379 . S
C1998 H1982 0.931 . S
C1998 C1992 1.383 . S
C1998 C1997 1.379 . S
H1999 C1993 0.959 . S
H2000 C1993 0.961 . S
H2001 C1993 0.960 . S
H2002 C1994 0.930 . S
H2003 C1995 0.929 . S
H2004 C2012 0.929 . S
H2005 C2014 0.930 . S
H2006 C2016 0.930 . S
H2007 C2019 0.929 . S
H2008 C2022 0.930 . S
H2009 C2024 0.960 . S
H2010 C2024 0.960 . S
H2011 C2024 0.960 . S
C2012 H2004 0.929 . S
C2012 C2013 1.377 . S
C2012 C2014 1.384 . S
C2013 C2012 1.377 . S
C2013 C2019 1.390 . S
C2014 H2005 0.930 . S
C2014 C2012 1.384 . S
C2014 C2015 1.372 . S
C2015 C2014 1.372 . S
C2015 C2016 1.400 . S
C2015 C2020 1.490 . S
C2016 H2006 0.930 . S
C2016 C2015 1.400 . S
C2016 C2019 1.386 . S
H2017 C2033 0.930 . S
H2018 C2034 0.931 . S
C2019 H2007 0.929 . S
C2019 C2013 1.390 . S
C2019 C2016 1.386 . S
C2020 C2015 1.490 . S
C2020 C2022 1.395 . S
C2020 C2023 1.403 . S
H2021 C2027 0.930 . S
C2022 H2008 0.930 . S
C2022 C2020 1.395 . S
C2022 C2025 1.403 . S
C2023 C2020 1.403 . S
C2023 C2024 1.524 . S
C2023 C2027 1.400 . S
C2024 H2009 0.960 . S
C2024 H2010 0.960 . S
C2024 H2011 0.960 . S
C2024 C2023 1.524 . S
C2025 C2022 1.403 . S
C2025 C2026 1.392 . S
C2025 C2029 1.495 . S
C2026 C2025 1.392 . S
C2026 C2027 1.385 . S
C2026 C2028 1.478 . S
C2027 H2021 0.930 . S
C2027 C2023 1.400 . S
C2027 C2026 1.385 . S
C2028 C2026 1.478 . S
C2028 C2030 1.381 . S
C2028 C2034 1.383 . S
C2029 C2025 1.495 . S
C2029 H2035 0.959 . S
C2029 H2036 0.961 . S
C2029 H2037 0.960 . S
C2030 C2028 1.381 . S
C2030 C2031 1.394 . S
C2030 H2038 0.930 . S
C2031 C2030 1.394 . S
C2031 C2032 1.383 . S
C2031 H2039 0.929 . S
C2032 C2031 1.383 . S
C2032 C2033 1.377 . S
C2033 H2017 0.930 . S
C2033 C2032 1.377 . S
C2033 C2034 1.379 . S
C2034 H2018 0.931 . S
C2034 C2028 1.383 . S
C2034 C2033 1.379 . S
H2035 C2029 0.959 . S
H2036 C2029 0.961 . S
H2037 C2029 0.960 . S
H2038 C2030 0.930 . S
H2039 C2031 0.929 . S
H2040 C2048 0.929 . S
H2041 C2050 0.930 . S
H2042 C2052 0.930 . S
H2043 C2055 0.929 . S
H2044 C2058 0.930 . S
H2045 C2060 0.960 . S
H2046 C2060 0.960 . S
H2047 C2060 0.960 . S
C2048 H2040 0.929 . S
C2048 C2049 1.377 . S
C2048 C2050 1.384 . S
C2049 C2048 1.377 . S
C2049 C2055 1.390 . S
C2050 H2041 0.930 . S
C2050 C2048 1.384 . S
C2050 C2051 1.372 . S
C2051 C2050 1.372 . S
C2051 C2052 1.400 . S
C2051 C2056 1.490 . S
C2052 H2042 0.930 . S
C2052 C2051 1.400 . S
C2052 C2055 1.386 . S
H2053 C2069 0.930 . S
H2054 C2070 0.931 . S
C2055 H2043 0.929 . S
C2055 C2049 1.390 . S
C2055 C2052 1.386 . S
C2056 C2051 1.490 . S
C2056 C2058 1.395 . S
C2056 C2059 1.403 . S
H2057 C2063 0.930 . S
C2058 H2044 0.930 . S
C2058 C2056 1.395 . S
C2058 C2061 1.403 . S
C2059 C2056 1.403 . S
C2059 C2060 1.524 . S
C2059 C2063 1.400 . S
C2060 H2045 0.960 . S
C2060 H2046 0.960 . S
C2060 H2047 0.960 . S
C2060 C2059 1.524 . S
C2061 C2058 1.403 . S
C2061 C2062 1.392 . S
C2061 C2065 1.495 . S
C2062 C2061 1.392 . S
C2062 C2063 1.385 . S
C2062 C2064 1.478 . S
C2063 H2057 0.930 . S
C2063 C2059 1.400 . S
C2063 C2062 1.385 . S
C2064 C2062 1.478 . S
C2064 C2066 1.381 . S
C2064 C2070 1.383 . S
C2065 C2061 1.495 . S
C2065 H2071 0.959 . S
C2065 H2072 0.961 . S
C2065 H2073 0.960 . S
C2066 C2064 1.381 . S
C2066 C2067 1.394 . S
C2066 H2074 0.930 . S
C2067 C2066 1.394 . S
C2067 C2068 1.383 . S
C2067 H2075 0.929 . S
C2068 C2067 1.383 . S
C2068 C2069 1.377 . S
C2069 H2053 0.930 . S
C2069 C2068 1.377 . S
C2069 C2070 1.379 . S
C2070 H2054 0.931 . S
C2070 C2064 1.383 . S
C2070 C2069 1.379 . S
H2071 C2065 0.959 . S
H2072 C2065 0.961 . S
H2073 C2065 0.960 . S
H2074 C2066 0.930 . S
H2075 C2067 0.929 . S
H2076 C2084 0.929 . S
H2077 C2086 0.930 . S
H2078 C2088 0.930 . S
H2079 C2091 0.929 . S
H2080 C2094 0.930 . S
H2081 C2096 0.960 . S
H2082 C2096 0.960 . S
H2083 C2096 0.960 . S
C2084 H2076 0.929 . S
C2084 C2085 1.377 . S
C2084 C2086 1.384 . S
C2085 C2084 1.377 . S
C2085 C2091 1.390 . S
C2086 H2077 0.930 . S
C2086 C2084 1.384 . S
C2086 C2087 1.372 . S
C2087 C2086 1.372 . S
C2087 C2088 1.400 . S
C2087 C2092 1.490 . S
C2088 H2078 0.930 . S
C2088 C2087 1.400 . S
C2088 C2091 1.386 . S
H2089 C2105 0.930 . S
H2090 C2106 0.931 . S
C2091 H2079 0.929 . S
C2091 C2085 1.390 . S
C2091 C2088 1.386 . S
C2092 C2087 1.490 . S
C2092 C2094 1.395 . S
C2092 C2095 1.403 . S
H2093 C2099 0.930 . S
C2094 H2080 0.930 . S
C2094 C2092 1.395 . S
C2094 C2097 1.403 . S
C2095 C2092 1.403 . S
C2095 C2096 1.524 . S
C2095 C2099 1.400 . S
C2096 H2081 0.960 . S
C2096 H2082 0.960 . S
C2096 H2083 0.960 . S
C2096 C2095 1.524 . S
C2097 C2094 1.403 . S
C2097 C2098 1.392 . S
C2097 C2101 1.495 . S
C2098 C2097 1.392 . S
C2098 C2099 1.385 . S
C2098 C2100 1.478 . S
C2099 H2093 0.930 . S
C2099 C2095 1.400 . S
C2099 C2098 1.385 . S
C2100 C2098 1.478 . S
C2100 C2102 1.381 . S
C2100 C2106 1.383 . S
C2101 C2097 1.495 . S
C2101 H2107 0.959 . S
C2101 H2108 0.961 . S
C2101 H2109 0.960 . S
C2102 C2100 1.381 . S
C2102 C2103 1.394 . S
C2102 H2110 0.930 . S
C2103 C2102 1.394 . S
C2103 C2104 1.383 . S
C2103 H2111 0.929 . S
C2104 C2103 1.383 . S
C2104 C2105 1.377 . S
C2105 H2089 0.930 . S
C2105 C2104 1.377 . S
C2105 C2106 1.379 . S
C2106 H2090 0.931 . S
C2106 C2100 1.383 . S
C2106 C2105 1.379 . S
H2107 C2101 0.959 . S
H2108 C2101 0.961 . S
H2109 C2101 0.960 . S
H2110 C2102 0.930 . S
H2111 C2103 0.929 . S
H2112 C2120 0.929 . S
H2113 C2122 0.930 . S
H2114 C2124 0.930 . S
H2115 C2127 0.929 . S
H2116 C2130 0.930 . S
H2117 C2132 0.960 . S
H2118 C2132 0.960 . S
H2119 C2132 0.960 . S
C2120 H2112 0.929 . S
C2120 C2121 1.377 . S
C2120 C2122 1.384 . S
C2121 C2120 1.377 . S
C2121 C2127 1.390 . S
C2122 H2113 0.930 . S
C2122 C2120 1.384 . S
C2122 C2123 1.372 . S
C2123 C2122 1.372 . S
C2123 C2124 1.400 . S
C2123 C2128 1.490 . S
C2124 H2114 0.930 . S
C2124 C2123 1.400 . S
C2124 C2127 1.386 . S
H2125 C2141 0.930 . S
H2126 C2142 0.931 . S
C2127 H2115 0.929 . S
C2127 C2121 1.390 . S
C2127 C2124 1.386 . S
C2128 C2123 1.490 . S
C2128 C2130 1.395 . S
C2128 C2131 1.403 . S
H2129 C2135 0.930 . S
C2130 H2116 0.930 . S
C2130 C2128 1.395 . S
C2130 C2133 1.403 . S
C2131 C2128 1.403 . S
C2131 C2132 1.524 . S
C2131 C2135 1.400 . S
C2132 H2117 0.960 . S
C2132 H2118 0.960 . S
C2132 H2119 0.960 . S
C2132 C2131 1.524 . S
C2133 C2130 1.403 . S
C2133 C2134 1.392 . S
C2133 C2137 1.495 . S
C2134 C2133 1.392 . S
C2134 C2135 1.385 . S
C2134 C2136 1.478 . S
C2135 H2129 0.930 . S
C2135 C2131 1.400 . S
C2135 C2134 1.385 . S
C2136 C2134 1.478 . S
C2136 C2138 1.381 . S
C2136 C2142 1.383 . S
C2137 C2133 1.495 . S
C2137 H2143 0.959 . S
C2137 H2144 0.961 . S
C2137 H2145 0.960 . S
C2138 C2136 1.381 . S
C2138 C2139 1.394 . S
C2138 H2146 0.930 . S
C2139 C2138 1.394 . S
C2139 C2140 1.383 . S
C2139 H2147 0.929 . S
C2140 C2139 1.383 . S
C2140 C2141 1.377 . S
C2141 H2125 0.930 . S
C2141 C2140 1.377 . S
C2141 C2142 1.379 . S
C2142 H2126 0.931 . S
C2142 C2136 1.383 . S
C2142 C2141 1.379 . S
H2143 C2137 0.959 . S
H2144 C2137 0.961 . S
H2145 C2137 0.960 . S
H2146 C2138 0.930 . S
H2147 C2139 0.929 . S
H2148 C2156 0.929 . S
H2149 C2158 0.930 . S
H2150 C2160 0.930 . S
H2151 C2163 0.929 . S
H2152 C2166 0.930 . S
H2153 C2168 0.960 . S
H2154 C2168 0.960 . S
H2155 C2168 0.960 . S
C2156 H2148 0.929 . S
C2156 C2157 1.377 . S
C2156 C2158 1.384 . S
C2157 C2156 1.377 . S
C2157 C2163 1.390 . S
C2158 H2149 0.930 . S
C2158 C2156 1.384 . S
C2158 C2159 1.372 . S
C2159 C2158 1.372 . S
C2159 C2160 1.400 . S
C2159 C2164 1.490 . S
C2160 H2150 0.930 . S
C2160 C2159 1.400 . S
C2160 C2163 1.386 . S
H2161 C2177 0.930 . S
H2162 C2178 0.931 . S
C2163 H2151 0.929 . S
C2163 C2157 1.390 . S
C2163 C2160 1.386 . S
C2164 C2159 1.490 . S
C2164 C2166 1.395 . S
C2164 C2167 1.403 . S
H2165 C2171 0.930 . S
C2166 H2152 0.930 . S
C2166 C2164 1.395 . S
C2166 C2169 1.403 . S
C2167 C2164 1.403 . S
C2167 C2168 1.524 . S
C2167 C2171 1.400 . S
C2168 H2153 0.960 . S
C2168 H2154 0.960 . S
C2168 H2155 0.960 . S
C2168 C2167 1.524 . S
C2169 C2166 1.403 . S
C2169 C2170 1.392 . S
C2169 C2173 1.495 . S
C2170 C2169 1.392 . S
C2170 C2171 1.385 . S
C2170 C2172 1.478 . S
C2171 H2165 0.930 . S
C2171 C2167 1.400 . S
C2171 C2170 1.385 . S
C2172 C2170 1.478 . S
C2172 C2174 1.381 . S
C2172 C2178 1.383 . S
C2173 C2169 1.495 . S
C2173 H2179 0.959 . S
C2173 H2180 0.961 . S
C2173 H2181 0.960 . S
C2174 C2172 1.381 . S
C2174 C2175 1.394 . S
C2174 H2182 0.930 . S
C2175 C2174 1.394 . S
C2175 C2176 1.383 . S
C2175 H2183 0.929 . S
C2176 C2175 1.383 . S
C2176 C2177 1.377 . S
C2177 H2161 0.930 . S
C2177 C2176 1.377 . S
C2177 C2178 1.379 . S
C2178 H2162 0.931 . S
C2178 C2172 1.383 . S
C2178 C2177 1.379 . S
H2179 C2173 0.959 . S
H2180 C2173 0.961 . S
H2181 C2173 0.960 . S
H2182 C2174 0.930 . S
H2183 C2175 0.929 . S
H2184 C2192 0.929 . S
H2185 C2194 0.930 . S
H2186 C2196 0.930 . S
H2187 C2199 0.929 . S
H2188 C2202 0.930 . S
H2189 C2204 0.960 . S
H2190 C2204 0.960 . S
H2191 C2204 0.960 . S
C2192 H2184 0.929 . S
C2192 C2193 1.377 . S
C2192 C2194 1.384 . S
C2193 C2192 1.377 . S
C2193 C2199 1.390 . S
C2194 H2185 0.930 . S
C2194 C2192 1.384 . S
C2194 C2195 1.372 . S
C2195 C2194 1.372 . S
C2195 C2196 1.400 . S
C2195 C2200 1.490 . S
C2196 H2186 0.930 . S
C2196 C2195 1.400 . S
C2196 C2199 1.386 . S
H2197 C2213 0.930 . S
H2198 C2214 0.931 . S
C2199 H2187 0.929 . S
C2199 C2193 1.390 . S
C2199 C2196 1.386 . S
C2200 C2195 1.490 . S
C2200 C2202 1.395 . S
C2200 C2203 1.403 . S
H2201 C2207 0.930 . S
C2202 H2188 0.930 . S
C2202 C2200 1.395 . S
C2202 C2205 1.403 . S
C2203 C2200 1.403 . S
C2203 C2204 1.524 . S
C2203 C2207 1.400 . S
C2204 H2189 0.960 . S
C2204 H2190 0.960 . S
C2204 H2191 0.960 . S
C2204 C2203 1.524 . S
C2205 C2202 1.403 . S
C2205 C2206 1.392 . S
C2205 C2209 1.495 . S
C2206 C2205 1.392 . S
C2206 C2207 1.385 . S
C2206 C2208 1.478 . S
C2207 H2201 0.930 . S
C2207 C2203 1.400 . S
C2207 C2206 1.385 . S
C2208 C2206 1.478 . S
C2208 C2210 1.381 . S
C2208 C2214 1.383 . S
C2209 C2205 1.495 . S
C2209 H2215 0.959 . S
C2209 H2216 0.961 . S
C2209 H2217 0.960 . S
C2210 C2208 1.381 . S
C2210 C2211 1.394 . S
C2210 H2218 0.930 . S
C2211 C2210 1.394 . S
C2211 C2212 1.383 . S
C2211 H2219 0.929 . S
C2212 C2211 1.383 . S
C2212 C2213 1.377 . S
C2213 H2197 0.930 . S
C2213 C2212 1.377 . S
C2213 C2214 1.379 . S
C2214 H2198 0.931 . S
C2214 C2208 1.383 . S
C2214 C2213 1.379 . S
H2215 C2209 0.959 . S
H2216 C2209 0.961 . S
H2217 C2209 0.960 . S
H2218 C2210 0.930 . S
H2219 C2211 0.929 . S
H2220 C2228 0.929 . S
H2221 C2230 0.930 . S
H2222 C2232 0.930 . S
H2223 C2235 0.929 . S
H2224 C2238 0.930 . S
H2225 C2240 0.960 . S
H2226 C2240 0.960 . S
H2227 C2240 0.960 . S
C2228 H2220 0.929 . S
C2228 C2229 1.377 . S
C2228 C2230 1.384 . S
C2229 C2228 1.377 . S
C2229 C2235 1.390 . S
C2230 H2221 0.930 . S
C2230 C2228 1.384 . S
C2230 C2231 1.372 . S
C2231 C2230 1.372 . S
C2231 C2232 1.400 . S
C2231 C2236 1.490 . S
C2232 H2222 0.930 . S
C2232 C2231 1.400 . S
C2232 C2235 1.386 . S
H2233 C2249 0.930 . S
H2234 C2250 0.931 . S
C2235 H2223 0.929 . S
C2235 C2229 1.390 . S
C2235 C2232 1.386 . S
C2236 C2231 1.490 . S
C2236 C2238 1.395 . S
C2236 C2239 1.403 . S
H2237 C2243 0.930 . S
C2238 H2224 0.930 . S
C2238 C2236 1.395 . S
C2238 C2241 1.403 . S
C2239 C2236 1.403 . S
C2239 C2240 1.524 . S
C2239 C2243 1.400 . S
C2240 H2225 0.960 . S
C2240 H2226 0.960 . S
C2240 H2227 0.960 . S
C2240 C2239 1.524 . S
C2241 C2238 1.403 . S
C2241 C2242 1.392 . S
C2241 C2245 1.495 . S
C2242 C2241 1.392 . S
C2242 C2243 1.385 . S
C2242 C2244 1.478 . S
C2243 H2237 0.930 . S
C2243 C2239 1.400 . S
C2243 C2242 1.385 . S
C2244 C2242 1.478 . S
C2244 C2246 1.381 . S
C2244 C2250 1.383 . S
C2245 C2241 1.495 . S
C2245 H2251 0.959 . S
C2245 H2252 0.961 . S
C2245 H2253 0.960 . S
C2246 C2244 1.381 . S
C2246 C2247 1.394 . S
C2246 H2254 0.930 . S
C2247 C2246 1.394 . S
C2247 C2248 1.383 . S
C2247 H2255 0.929 . S
C2248 C2247 1.383 . S
C2248 C2249 1.377 . S
C2249 H2233 0.930 . S
C2249 C2248 1.377 . S
C2249 C2250 1.379 . S
C2250 H2234 0.931 . S
C2250 C2244 1.383 . S
C2250 C2249 1.379 . S
H2251 C2245 0.959 . S
H2252 C2245 0.961 . S
H2253 C2245 0.960 . S
H2254 C2246 0.930 . S
H2255 C2247 0.929 . S
H2256 C2264 0.929 . S
H2257 C2266 0.930 . S
H2258 C2268 0.930 . S
H2259 C2271 0.929 . S
H2260 C2274 0.930 . S
H2261 C2276 0.960 . S
H2262 C2276 0.960 . S
H2263 C2276 0.960 . S
C2264 H2256 0.929 . S
C2264 C2265 1.377 . S
C2264 C2266 1.384 . S
C2265 C2264 1.377 . S
C2265 C2271 1.390 . S
C2266 H2257 0.930 . S
C2266 C2264 1.384 . S
C2266 C2267 1.372 . S
C2267 C2266 1.372 . S
C2267 C2268 1.400 . S
C2267 C2272 1.490 . S
C2268 H2258 0.930 . S
C2268 C2267 1.400 . S
C2268 C2271 1.386 . S
H2269 C2285 0.930 . S
H2270 C2286 0.931 . S
C2271 H2259 0.929 . S
C2271 C2265 1.390 . S
C2271 C2268 1.386 . S
C2272 C2267 1.490 . S
C2272 C2274 1.395 . S
C2272 C2275 1.403 . S
H2273 C2279 0.930 . S
C2274 H2260 0.930 . S
C2274 C2272 1.395 . S
C2274 C2277 1.403 . S
C2275 C2272 1.403 . S
C2275 C2276 1.524 . S
C2275 C2279 1.400 . S
C2276 H2261 0.960 . S
C2276 H2262 0.960 . S
C2276 H2263 0.960 . S
C2276 C2275 1.524 . S
C2277 C2274 1.403 . S
C2277 C2278 1.392 . S
C2277 C2281 1.495 . S
C2278 C2277 1.392 . S
C2278 C2279 1.385 . S
C2278 C2280 1.478 . S
C2279 H2273 0.930 . S
C2279 C2275 1.400 . S
C2279 C2278 1.385 . S
C2280 C2278 1.478 . S
C2280 C2282 1.381 . S
C2280 C2286 1.383 . S
C2281 C2277 1.495 . S
C2281 H2287 0.959 . S
C2281 H2288 0.961 . S
C2281 H2289 0.960 . S
C2282 C2280 1.381 . S
C2282 C2283 1.394 . S
C2282 H2290 0.930 . S
C2283 C2282 1.394 . S
C2283 C2284 1.383 . S
C2283 H2291 0.929 . S
C2284 C2283 1.383 . S
C2284 C2285 1.377 . S
C2285 H2269 0.930 . S
C2285 C2284 1.377 . S
C2285 C2286 1.379 . S
C2286 H2270 0.931 . S
C2286 C2280 1.383 . S
C2286 C2285 1.379 . S
H2287 C2281 0.959 . S
H2288 C2281 0.961 . S
H2289 C2281 0.960 . S
H2290 C2282 0.930 . S
H2291 C2283 0.929 . S
H2292 C2300 0.929 . S
H2293 C2302 0.930 . S
H2294 C2304 0.930 . S
H2295 C2307 0.929 . S
H2296 C2310 0.930 . S
H2297 C2312 0.960 . S
H2298 C2312 0.960 . S
H2299 C2312 0.960 . S
C2300 H2292 0.929 . S
C2300 C2301 1.377 . S
C2300 C2302 1.384 . S
C2301 C2300 1.377 . S
C2301 C2307 1.390 . S
C2302 H2293 0.930 . S
C2302 C2300 1.384 . S
C2302 C2303 1.372 . S
C2303 C2302 1.372 . S
C2303 C2304 1.400 . S
C2303 C2308 1.490 . S
C2304 H2294 0.930 . S
C2304 C2303 1.400 . S
C2304 C2307 1.386 . S
H2305 C2321 0.930 . S
H2306 C2322 0.931 . S
C2307 H2295 0.929 . S
C2307 C2301 1.390 . S
C2307 C2304 1.386 . S
C2308 C2303 1.490 . S
C2308 C2310 1.395 . S
C2308 C2311 1.403 . S
H2309 C2315 0.930 . S
C2310 H2296 0.930 . S
C2310 C2308 1.395 . S
C2310 C2313 1.403 . S
C2311 C2308 1.403 . S
C2311 C2312 1.524 . S
C2311 C2315 1.400 . S
C2312 H2297 0.960 . S
C2312 H2298 0.960 . S
C2312 H2299 0.960 . S
C2312 C2311 1.524 . S
C2313 C2310 1.403 . S
C2313 C2314 1.392 . S
C2313 C2317 1.495 . S
C2314 C2313 1.392 . S
C2314 C2315 1.385 . S
C2314 C2316 1.478 . S
C2315 H2309 0.930 . S
C2315 C2311 1.400 . S
C2315 C2314 1.385 . S
C2316 C2314 1.478 . S
C2316 C2318 1.381 . S
C2316 C2322 1.383 . S
C2317 C2313 1.495 . S
C2317 H2323 0.959 . S
C2317 H2324 0.961 . S
C2317 H2325 0.960 . S
C2318 C2316 1.381 . S
C2318 C2319 1.394 . S
C2318 H2326 0.930 . S
C2319 C2318 1.394 . S
C2319 C2320 1.383 . S
C2319 H2327 0.929 . S
C2320 C2319 1.383 . S
C2320 C2321 1.377 . S
C2321 H2305 0.930 . S
C2321 C2320 1.377 . S
C2321 C2322 1.379 . S
C2322 H2306 0.931 . S
C2322 C2316 1.383 . S
C2322 C2321 1.379 . S
H2323 C2317 0.959 . S
H2324 C2317 0.961 . S
H2325 C2317 0.960 . S
H2326 C2318 0.930 . S
H2327 C2319 0.929 . S
H2328 C2336 0.929 . S
H2329 C2338 0.930 . S
H2330 C2340 0.930 . S
H2331 C2343 0.929 . S
H2332 C2346 0.930 . S
H2333 C2348 0.960 . S
H2334 C2348 0.960 . S
H2335 C2348 0.960 . S
C2336 H2328 0.929 . S
C2336 C2337 1.377 . S
C2336 C2338 1.384 . S
C2337 C2336 1.377 . S
C2337 C2343 1.390 . S
C2338 H2329 0.930 . S
C2338 C2336 1.384 . S
C2338 C2339 1.372 . S
C2339 C2338 1.372 . S
C2339 C2340 1.400 . S
C2339 C2344 1.490 . S
C2340 H2330 0.930 . S
C2340 C2339 1.400 . S
C2340 C2343 1.386 . S
H2341 C2357 0.930 . S
H2342 C2358 0.931 . S
C2343 H2331 0.929 . S
C2343 C2337 1.390 . S
C2343 C2340 1.386 . S
C2344 C2339 1.490 . S
C2344 C2346 1.395 . S
C2344 C2347 1.403 . S
H2345 C2351 0.930 . S
C2346 H2332 0.930 . S
C2346 C2344 1.395 . S
C2346 C2349 1.403 . S
C2347 C2344 1.403 . S
C2347 C2348 1.524 . S
C2347 C2351 1.400 . S
C2348 H2333 0.960 . S
C2348 H2334 0.960 . S
C2348 H2335 0.960 . S
C2348 C2347 1.524 . S
C2349 C2346 1.403 . S
C2349 C2350 1.392 . S
C2349 C2353 1.495 . S
C2350 C2349 1.392 . S
C2350 C2351 1.385 . S
C2350 C2352 1.478 . S
C2351 H2345 0.930 . S
C2351 C2347 1.400 . S
C2351 C2350 1.385 . S
C2352 C2350 1.478 . S
C2352 C2354 1.381 . S
C2352 C2358 1.383 . S
C2353 C2349 1.495 . S
C2353 H2359 0.959 . S
C2353 H2360 0.961 . S
C2353 H2361 0.960 . S
C2354 C2352 1.381 . S
C2354 C2355 1.394 . S
C2354 H2362 0.930 . S
C2355 C2354 1.394 . S
C2355 C2356 1.383 . S
C2355 H2363 0.929 . S
C2356 C2355 1.383 . S
C2356 C2357 1.377 . S
C2357 H2341 0.930 . S
C2357 C2356 1.377 . S
C2357 C2358 1.379 . S
C2358 H2342 0.931 . S
C2358 C2352 1.383 . S
C2358 C2357 1.379 . S
H2359 C2353 0.959 . S
H2360 C2353 0.961 . S
H2361 C2353 0.960 . S
H2362 C2354 0.930 . S
H2363 C2355 0.929 . S
H2364 C2372 0.929 . S
H2365 C2374 0.930 . S
H2366 C2376 0.930 . S
H2367 C2379 0.929 . S
H2368 C2382 0.930 . S
H2369 C2384 0.960 . S
H2370 C2384 0.960 . S
H2371 C2384 0.960 . S
C2372 H2364 0.929 . S
C2372 C2373 1.377 . S
C2372 C2374 1.384 . S
C2373 C2372 1.377 . S
C2373 C2379 1.390 . S
C2374 H2365 0.930 . S
C2374 C2372 1.384 . S
C2374 C2375 1.372 . S
C2375 C2374 1.372 . S
C2375 C2376 1.400 . S
C2375 C2380 1.490 . S
C2376 H2366 0.930 . S
C2376 C2375 1.400 . S
C2376 C2379 1.386 . S
H2377 C2393 0.930 . S
H2378 C2394 0.931 . S
C2379 H2367 0.929 . S
C2379 C2373 1.390 . S
C2379 C2376 1.386 . S
C2380 C2375 1.490 . S
C2380 C2382 1.395 . S
C2380 C2383 1.403 . S
H2381 C2387 0.930 . S
C2382 H2368 0.930 . S
C2382 C2380 1.395 . S
C2382 C2385 1.403 . S
C2383 C2380 1.403 . S
C2383 C2384 1.524 . S
C2383 C2387 1.400 . S
C2384 H2369 0.960 . S
C2384 H2370 0.960 . S
C2384 H2371 0.960 . S
C2384 C2383 1.524 . S
C2385 C2382 1.403 . S
C2385 C2386 1.392 . S
C2385 C2389 1.495 . S
C2386 C2385 1.392 . S
C2386 C2387 1.385 . S
C2386 C2388 1.478 . S
C2387 H2381 0.930 . S
C2387 C2383 1.400 . S
C2387 C2386 1.385 . S
C2388 C2386 1.478 . S
C2388 C2390 1.381 . S
C2388 C2394 1.383 . S
C2389 C2385 1.495 . S
C2389 H2395 0.959 . S
C2389 H2396 0.961 . S
C2389 H2397 0.960 . S
C2390 C2388 1.381 . S
C2390 C2391 1.394 . S
C2390 H2398 0.930 . S
C2391 C2390 1.394 . S
C2391 C2392 1.383 . S
C2391 H2399 0.929 . S
C2392 C2391 1.383 . S
C2392 C2393 1.377 . S
C2393 H2377 0.930 . S
C2393 C2392 1.377 . S
C2393 C2394 1.379 . S
C2394 H2378 0.931 . S
C2394 C2388 1.383 . S
C2394 C2393 1.379 . S
H2395 C2389 0.959 . S
H2396 C2389 0.961 . S
H2397 C2389 0.960 . S
H2398 C2390 0.930 . S
H2399 C2391 0.929 . S
H2400 C2408 0.929 . S
H2401 C2410 0.930 . S
H2402 C2412 0.930 . S
H2403 C2415 0.929 . S
H2404 C2418 0.930 . S
H2405 C2420 0.960 . S
H2406 C2420 0.960 . S
H2407 C2420 0.960 . S
C2408 H2400 0.929 . S
C2408 C2409 1.377 . S
C2408 C2410 1.384 . S
C2409 C2408 1.377 . S
C2409 C2415 1.390 . S
C2410 H2401 0.930 . S
C2410 C2408 1.384 . S
C2410 C2411 1.372 . S
C2411 C2410 1.372 . S
C2411 C2412 1.400 . S
C2411 C2416 1.490 . S
C2412 H2402 0.930 . S
C2412 C2411 1.400 . S
C2412 C2415 1.386 . S
H2413 C2429 0.930 . S
H2414 C2430 0.931 . S
C2415 H2403 0.929 . S
C2415 C2409 1.390 . S
C2415 C2412 1.386 . S
C2416 C2411 1.490 . S
C2416 C2418 1.395 . S
C2416 C2419 1.403 . S
H2417 C2423 0.930 . S
C2418 H2404 0.930 . S
C2418 C2416 1.395 . S
C2418 C2421 1.403 . S
C2419 C2416 1.403 . S
C2419 C2420 1.524 . S
C2419 C2423 1.400 . S
C2420 H2405 0.960 . S
C2420 H2406 0.960 . S
C2420 H2407 0.960 . S
C2420 C2419 1.524 . S
C2421 C2418 1.403 . S
C2421 C2422 1.392 . S
C2421 C2425 1.495 . S
C2422 C2421 1.392 . S
C2422 C2423 1.385 . S
C2422 C2424 1.478 . S
C2423 H2417 0.930 . S
C2423 C2419 1.400 . S
C2423 C2422 1.385 . S
C2424 C2422 1.478 . S
C2424 C2426 1.381 . S
C2424 C2430 1.383 . S
C2425 C2421 1.495 . S
C2425 H2431 0.959 . S
C2425 H2432 0.961 . S
C2425 H2433 0.960 . S
C2426 C2424 1.381 . S
C2426 C2427 1.394 . S
C2426 H2434 0.930 . S
C2427 C2426 1.394 . S
C2427 C2428 1.383 . S
C2427 H2435 0.929 . S
C2428 C2427 1.383 . S
C2428 C2429 1.377 . S
C2429 H2413 0.930 . S
C2429 C2428 1.377 . S
C2429 C2430 1.379 . S
C2430 H2414 0.931 . S
C2430 C2424 1.383 . S
C2430 C2429 1.379 . S
H2431 C2425 0.959 . S
H2432 C2425 0.961 . S
H2433 C2425 0.960 . S
H2434 C2426 0.930 . S
H2435 C2427 0.929 . S
H2436 C2444 0.929 . S
H2437 C2446 0.930 . S
H2438 C2448 0.930 . S
H2439 C2451 0.929 . S
H2440 C2454 0.930 . S
H2441 C2456 0.960 . S
H2442 C2456 0.960 . S
H2443 C2456 0.960 . S
C2444 H2436 0.929 . S
C2444 C2445 1.377 . S
C2444 C2446 1.384 . S
C2445 C2444 1.377 . S
C2445 C2451 1.390 . S
C2446 H2437 0.930 . S
C2446 C2444 1.384 . S
C2446 C2447 1.372 . S
C2447 C2446 1.372 . S
C2447 C2448 1.400 . S
C2447 C2452 1.490 . S
C2448 H2438 0.930 . S
C2448 C2447 1.400 . S
C2448 C2451 1.386 . S
H2449 C2465 0.930 . S
H2450 C2466 0.931 . S
C2451 H2439 0.929 . S
C2451 C2445 1.390 . S
C2451 C2448 1.386 . S
C2452 C2447 1.490 . S
C2452 C2454 1.395 . S
C2452 C2455 1.403 . S
H2453 C2459 0.930 . S
C2454 H2440 0.930 . S
C2454 C2452 1.395 . S
C2454 C2457 1.403 . S
C2455 C2452 1.403 . S
C2455 C2456 1.524 . S
C2455 C2459 1.400 . S
C2456 H2441 0.960 . S
C2456 H2442 0.960 . S
C2456 H2443 0.960 . S
C2456 C2455 1.524 . S
C2457 C2454 1.403 . S
C2457 C2458 1.392 . S
C2457 C2461 1.495 . S
C2458 C2457 1.392 . S
C2458 C2459 1.385 . S
C2458 C2460 1.478 . S
C2459 H2453 0.930 . S
C2459 C2455 1.400 . S
C2459 C2458 1.385 . S
C2460 C2458 1.478 . S
C2460 C2462 1.381 . S
C2460 C2466 1.383 . S
C2461 C2457 1.495 . S
C2461 H2467 0.959 . S
C2461 H2468 0.961 . S
C2461 H2469 0.960 . S
C2462 C2460 1.381 . S
C2462 C2463 1.394 . S
C2462 H2470 0.930 . S
C2463 C2462 1.394 . S
C2463 C2464 1.383 . S
C2463 H2471 0.929 . S
C2464 C2463 1.383 . S
C2464 C2465 1.377 . S
C2465 H2449 0.930 . S
C2465 C2464 1.377 . S
C2465 C2466 1.379 . S
C2466 H2450 0.931 . S
C2466 C2460 1.383 . S
C2466 C2465 1.379 . S
H2467 C2461 0.959 . S
H2468 C2461 0.961 . S
H2469 C2461 0.960 . S
H2470 C2462 0.930 . S
H2471 C2463 0.929 . S
H2472 C2480 0.929 . S
H2473 C2482 0.930 . S
H2474 C2484 0.930 . S
H2475 C2487 0.929 . S
H2476 C2490 0.930 . S
H2477 C2492 0.960 . S
H2478 C2492 0.960 . S
H2479 C2492 0.960 . S
C2480 H2472 0.929 . S
C2480 C2481 1.377 . S
C2480 C2482 1.384 . S
C2481 C2480 1.377 . S
C2481 C2487 1.390 . S
C2482 H2473 0.930 . S
C2482 C2480 1.384 . S
C2482 C2483 1.372 . S
C2483 C2482 1.372 . S
C2483 C2484 1.400 . S
C2483 C2488 1.490 . S
C2484 H2474 0.930 . S
C2484 C2483 1.400 . S
C2484 C2487 1.386 . S
H2485 C2501 0.930 . S
H2486 C2502 0.931 . S
C2487 H2475 0.929 . S
C2487 C2481 1.390 . S
C2487 C2484 1.386 . S
C2488 C2483 1.490 . S
C2488 C2490 1.395 . S
C2488 C2491 1.403 . S
H2489 C2495 0.930 . S
C2490 H2476 0.930 . S
C2490 C2488 1.395 . S
C2490 C2493 1.403 . S
C2491 C2488 1.403 . S
C2491 C2492 1.524 . S
C2491 C2495 1.400 . S
C2492 H2477 0.960 . S
C2492 H2478 0.960 . S
C2492 H2479 0.960 . S
C2492 C2491 1.524 . S
C2493 C2490 1.403 . S
C2493 C2494 1.392 . S
C2493 C2497 1.495 . S
C2494 C2493 1.392 . S
C2494 C2495 1.385 . S
C2494 C2496 1.478 . S
C2495 H2489 0.930 . S
C2495 C2491 1.400 . S
C2495 C2494 1.385 . S
C2496 C2494 1.478 . S
C2496 C2498 1.381 . S
C2496 C2502 1.383 . S
C2497 C2493 1.495 . S
C2497 H2503 0.959 . S
C2497 H2504 0.961 . S
C2497 H2505 0.960 . S
C2498 C2496 1.381 . S
C2498 C2499 1.394 . S
C2498 H2506 0.930 . S
C2499 C2498 1.394 . S
C2499 C2500 1.383 . S
C2499 H2507 0.929 . S
C2500 C2499 1.383 . S
C2500 C2501 1.377 . S
C2501 H2485 0.930 . S
C2501 C2500 1.377 . S
C2501 C2502 1.379 . S
C2502 H2486 0.931 . S
C2502 C2496 1.383 . S
C2502 C2501 1.379 . S
H2503 C2497 0.959 . S
H2504 C2497 0.961 . S
H2505 C2497 0.960 . S
H2506 C2498 0.930 . S
H2507 C2499 0.929 . S
H2508 C2516 0.929 . S
H2509 C2518 0.930 . S
H2510 C2520 0.930 . S
H2511 C2523 0.929 . S
H2512 C2526 0.930 . S
H2513 C2528 0.960 . S
H2514 C2528 0.960 . S
H2515 C2528 0.960 . S
C2516 H2508 0.929 . S
C2516 C2517 1.377 . S
C2516 C2518 1.384 . S
C2517 C2516 1.377 . S
C2517 C2523 1.390 . S
C2518 H2509 0.930 . S
C2518 C2516 1.384 . S
C2518 C2519 1.372 . S
C2519 C2518 1.372 . S
C2519 C2520 1.400 . S
C2519 C2524 1.490 . S
C2520 H2510 0.930 . S
C2520 C2519 1.400 . S
C2520 C2523 1.386 . S
H2521 C2537 0.930 . S
H2522 C2538 0.931 . S
C2523 H2511 0.929 . S
C2523 C2517 1.390 . S
C2523 C2520 1.386 . S
C2524 C2519 1.490 . S
C2524 C2526 1.395 . S
C2524 C2527 1.403 . S
H2525 C2531 0.930 . S
C2526 H2512 0.930 . S
C2526 C2524 1.395 . S
C2526 C2529 1.403 . S
C2527 C2524 1.403 . S
C2527 C2528 1.524 . S
C2527 C2531 1.400 . S
C2528 H2513 0.960 . S
C2528 H2514 0.960 . S
C2528 H2515 0.960 . S
C2528 C2527 1.524 . S
C2529 C2526 1.403 . S
C2529 C2530 1.392 . S
C2529 C2533 1.495 . S
C2530 C2529 1.392 . S
C2530 C2531 1.385 . S
C2530 C2532 1.478 . S
C2531 H2525 0.930 . S
C2531 C2527 1.400 . S
C2531 C2530 1.385 . S
C2532 C2530 1.478 . S
C2532 C2534 1.381 . S
C2532 C2538 1.383 . S
C2533 C2529 1.495 . S
C2533 H2539 0.959 . S
C2533 H2540 0.961 . S
C2533 H2541 0.960 . S
C2534 C2532 1.381 . S
C2534 C2535 1.394 . S
C2534 H2542 0.930 . S
C2535 C2534 1.394 . S
C2535 C2536 1.383 . S
C2535 H2543 0.929 . S
C2536 C2535 1.383 . S
C2536 C2537 1.377 . S
C2537 H2521 0.930 . S
C2537 C2536 1.377 . S
C2537 C2538 1.379 . S
C2538 H2522 0.931 . S
C2538 C2532 1.383 . S
C2538 C2537 1.379 . S
H2539 C2533 0.959 . S
H2540 C2533 0.961 . S
H2541 C2533 0.960 . S
H2542 C2534 0.930 . S
H2543 C2535 0.929 . S
H2544 C2552 0.929 . S
H2545 C2554 0.930 . S
H2546 C2556 0.930 . S
H2547 C2559 0.929 . S
H2548 C2562 0.930 . S
H2549 C2564 0.960 . S
H2550 C2564 0.960 . S
H2551 C2564 0.960 . S
C2552 H2544 0.929 . S
C2552 C2553 1.377 . S
C2552 C2554 1.384 . S
C2553 C2552 1.377 . S
C2553 C2559 1.390 . S
C2554 H2545 0.930 . S
C2554 C2552 1.384 . S
C2554 C2555 1.372 . S
C2555 C2554 1.372 . S
C2555 C2556 1.400 . S
C2555 C2560 1.490 . S
C2556 H2546 0.930 . S
C2556 C2555 1.400 . S
C2556 C2559 1.386 . S
H2557 C2573 0.930 . S
H2558 C2574 0.931 . S
C2559 H2547 0.929 . S
C2559 C2553 1.390 . S
C2559 C2556 1.386 . S
C2560 C2555 1.490 . S
C2560 C2562 1.395 . S
C2560 C2563 1.403 . S
H2561 C2567 0.930 . S
C2562 H2548 0.930 . S
C2562 C2560 1.395 . S
C2562 C2565 1.403 . S
C2563 C2560 1.403 . S
C2563 C2564 1.524 . S
C2563 C2567 1.400 . S
C2564 H2549 0.960 . S
C2564 H2550 0.960 . S
C2564 H2551 0.960 . S
C2564 C2563 1.524 . S
C2565 C2562 1.403 . S
C2565 C2566 1.392 . S
C2565 C2569 1.495 . S
C2566 C2565 1.392 . S
C2566 C2567 1.385 . S
C2566 C2568 1.478 . S
C2567 H2561 0.930 . S
C2567 C2563 1.400 . S
C2567 C2566 1.385 . S
C2568 C2566 1.478 . S
C2568 C2570 1.381 . S
C2568 C2574 1.383 . S
C2569 C2565 1.495 . S
C2569 H2575 0.959 . S
C2569 H2576 0.961 . S
C2569 H2577 0.960 . S
C2570 C2568 1.381 . S
C2570 C2571 1.394 . S
C2570 H2578 0.930 . S
C2571 C2570 1.394 . S
C2571 C2572 1.383 . S
C2571 H2579 0.929 . S
C2572 C2571 1.383 . S
C2572 C2573 1.377 . S
C2573 H2557 0.930 . S
C2573 C2572 1.377 . S
C2573 C2574 1.379 . S
C2574 H2558 0.931 . S
C2574 C2568 1.383 . S
C2574 C2573 1.379 . S
H2575 C2569 0.959 . S
H2576 C2569 0.961 . S
H2577 C2569 0.960 . S
H2578 C2570 0.930 . S
H2579 C2571 0.929 . S
H2580 C2588 0.929 . S
H2581 C2590 0.930 . S
H2582 C2592 0.930 . S
H2583 C2595 0.929 . S
H2584 C2598 0.930 . S
H2585 C2600 0.960 . S
H2586 C2600 0.960 . S
H2587 C2600 0.960 . S
C2588 H2580 0.929 . S
C2588 C2589 1.377 . S
C2588 C2590 1.384 . S
C2589 C2588 1.377 . S
C2589 C2595 1.390 . S
C2590 H2581 0.930 . S
C2590 C2588 1.384 . S
C2590 C2591 1.372 . S
C2591 C2590 1.372 . S
C2591 C2592 1.400 . S
C2591 C2596 1.490 . S
C2592 H2582 0.930 . S
C2592 C2591 1.400 . S
C2592 C2595 1.386 . S
H2593 C2609 0.930 . S
H2594 C2610 0.931 . S
C2595 H2583 0.929 . S
C2595 C2589 1.390 . S
C2595 C2592 1.386 . S
C2596 C2591 1.490 . S
C2596 C2598 1.395 . S
C2596 C2599 1.403 . S
H2597 C2603 0.930 . S
C2598 H2584 0.930 . S
C2598 C2596 1.395 . S
C2598 C2601 1.403 . S
C2599 C2596 1.403 . S
C2599 C2600 1.524 . S
C2599 C2603 1.400 . S
C2600 H2585 0.960 . S
C2600 H2586 0.960 . S
C2600 H2587 0.960 . S
C2600 C2599 1.524 . S
C2601 C2598 1.403 . S
C2601 C2602 1.392 . S
C2601 C2605 1.495 . S
C2602 C2601 1.392 . S
C2602 C2603 1.385 . S
C2602 C2604 1.478 . S
C2603 H2597 0.930 . S
C2603 C2599 1.400 . S
C2603 C2602 1.385 . S
C2604 C2602 1.478 . S
C2604 C2606 1.381 . S
C2604 C2610 1.383 . S
C2605 C2601 1.495 . S
C2605 H2611 0.959 . S
C2605 H2612 0.961 . S
C2605 H2613 0.960 . S
C2606 C2604 1.381 . S
C2606 C2607 1.394 . S
C2606 H2614 0.930 . S
C2607 C2606 1.394 . S
C2607 C2608 1.383 . S
C2607 H2615 0.929 . S
C2608 C2607 1.383 . S
C2608 C2609 1.377 . S
C2609 H2593 0.930 . S
C2609 C2608 1.377 . S
C2609 C2610 1.379 . S
C2610 H2594 0.931 . S
C2610 C2604 1.383 . S
C2610 C2609 1.379 . S
H2611 C2605 0.959 . S
H2612 C2605 0.961 . S
H2613 C2605 0.960 . S
H2614 C2606 0.930 . S
H2615 C2607 0.929 . S
H2616 C2624 0.929 . S
H2617 C2626 0.930 . S
H2618 C2628 0.930 . S
H2619 C2631 0.929 . S
H2620 C2634 0.930 . S
H2621 C2636 0.960 . S
H2622 C2636 0.960 . S
H2623 C2636 0.960 . S
C2624 H2616 0.929 . S
C2624 C2625 1.377 . S
C2624 C2626 1.384 . S
C2625 C2624 1.377 . S
C2625 C2631 1.390 . S
C2626 H2617 0.930 . S
C2626 C2624 1.384 . S
C2626 C2627 1.372 . S
C2627 C2626 1.372 . S
C2627 C2628 1.400 . S
C2627 C2632 1.490 . S
C2628 H2618 0.930 . S
C2628 C2627 1.400 . S
C2628 C2631 1.386 . S
H2629 C2645 0.930 . S
H2630 C2646 0.931 . S
C2631 H2619 0.929 . S
C2631 C2625 1.390 . S
C2631 C2628 1.386 . S
C2632 C2627 1.490 . S
C2632 C2634 1.395 . S
C2632 C2635 1.403 . S
H2633 C2639 0.930 . S
C2634 H2620 0.930 . S
C2634 C2632 1.395 . S
C2634 C2637 1.403 . S
C2635 C2632 1.403 . S
C2635 C2636 1.524 . S
C2635 C2639 1.400 . S
C2636 H2621 0.960 . S
C2636 H2622 0.960 . S
C2636 H2623 0.960 . S
C2636 C2635 1.524 . S
C2637 C2634 1.403 . S
C2637 C2638 1.392 . S
C2637 C2641 1.495 . S
C2638 C2637 1.392 . S
C2638 C2639 1.385 . S
C2638 C2640 1.478 . S
C2639 H2633 0.930 . S
C2639 C2635 1.400 . S
C2639 C2638 1.385 . S
C2640 C2638 1.478 . S
C2640 C2642 1.381 . S
C2640 C2646 1.383 . S
C2641 C2637 1.495 . S
C2641 H2647 0.959 . S
C2641 H2648 0.961 . S
C2641 H2649 0.960 . S
C2642 C2640 1.381 . S
C2642 C2643 1.394 . S
C2642 H2650 0.930 . S
C2643 C2642 1.394 . S
C2643 C2644 1.383 . S
C2643 H2651 0.929 . S
C2644 C2643 1.383 . S
C2644 C2645 1.377 . S
C2645 H2629 0.930 . S
C2645 C2644 1.377 . S
C2645 C2646 1.379 . S
C2646 H2630 0.931 . S
C2646 C2640 1.383 . S
C2646 C2645 1.379 . S
H2647 C2641 0.959 . S
H2648 C2641 0.961 . S
H2649 C2641 0.960 . S
H2650 C2642 0.930 . S
H2651 C2643 0.929 . S
H2652 C2660 0.929 . S
H2653 C2662 0.930 . S
H2654 C2664 0.930 . S
H2655 C2667 0.929 . S
H2656 C2670 0.930 . S
H2657 C2672 0.960 . S
H2658 C2672 0.960 . S
H2659 C2672 0.960 . S
C2660 H2652 0.929 . S
C2660 C2661 1.377 . S
C2660 C2662 1.384 . S
C2661 C2660 1.377 . S
C2661 C2667 1.390 . S
C2662 H2653 0.930 . S
C2662 C2660 1.384 . S
C2662 C2663 1.372 . S
C2663 C2662 1.372 . S
C2663 C2664 1.400 . S
C2663 C2668 1.490 . S
C2664 H2654 0.930 . S
C2664 C2663 1.400 . S
C2664 C2667 1.386 . S
H2665 C2681 0.930 . S
H2666 C2682 0.931 . S
C2667 H2655 0.929 . S
C2667 C2661 1.390 . S
C2667 C2664 1.386 . S
C2668 C2663 1.490 . S
C2668 C2670 1.395 . S
C2668 C2671 1.403 . S
H2669 C2675 0.930 . S
C2670 H2656 0.930 . S
C2670 C2668 1.395 . S
C2670 C2673 1.403 . S
C2671 C2668 1.403 . S
C2671 C2672 1.524 . S
C2671 C2675 1.400 . S
C2672 H2657 0.960 . S
C2672 H2658 0.960 . S
C2672 H2659 0.960 . S
C2672 C2671 1.524 . S
C2673 C2670 1.403 . S
C2673 C2674 1.392 . S
C2673 C2677 1.495 . S
C2674 C2673 1.392 . S
C2674 C2675 1.385 . S
C2674 C2676 1.478 . S
C2675 H2669 0.930 . S
C2675 C2671 1.400 . S
C2675 C2674 1.385 . S
C2676 C2674 1.478 . S
C2676 C2678 1.381 . S
C2676 C2682 1.383 . S
C2677 C2673 1.495 . S
C2677 H2683 0.959 . S
C2677 H2684 0.961 . S
C2677 H2685 0.960 . S
C2678 C2676 1.381 . S
C2678 C2679 1.394 . S
C2678 H2686 0.930 . S
C2679 C2678 1.394 . S
C2679 C2680 1.383 . S
C2679 H2687 0.929 . S
C2680 C2679 1.383 . S
C2680 C2681 1.377 . S
C2681 H2665 0.930 . S
C2681 C2680 1.377 . S
C2681 C2682 1.379 . S
C2682 H2666 0.931 . S
C2682 C2676 1.383 . S
C2682 C2681 1.379 . S
H2683 C2677 0.959 . S
H2684 C2677 0.961 . S
H2685 C2677 0.960 . S
H2686 C2678 0.930 . S
H2687 C2679 0.929 . S
H2688 C2696 0.929 . S
H2689 C2698 0.930 . S
H2690 C2700 0.930 . S
H2691 C2703 0.929 . S
H2692 C2706 0.930 . S
H2693 C2708 0.960 . S
H2694 C2708 0.960 . S
H2695 C2708 0.960 . S
C2696 H2688 0.929 . S
C2696 C2697 1.377 . S
C2696 C2698 1.384 . S
C2697 C2696 1.377 . S
C2697 C2703 1.390 . S
C2698 H2689 0.930 . S
C2698 C2696 1.384 . S
C2698 C2699 1.372 . S
C2699 C2698 1.372 . S
C2699 C2700 1.400 . S
C2699 C2704 1.490 . S
C2700 H2690 0.930 . S
C2700 C2699 1.400 . S
C2700 C2703 1.386 . S
H2701 C2717 0.930 . S
H2702 C2718 0.931 . S
C2703 H2691 0.929 . S
C2703 C2697 1.390 . S
C2703 C2700 1.386 . S
C2704 C2699 1.490 . S
C2704 C2706 1.395 . S
C2704 C2707 1.403 . S
H2705 C2711 0.930 . S
C2706 H2692 0.930 . S
C2706 C2704 1.395 . S
C2706 C2709 1.403 . S
C2707 C2704 1.403 . S
C2707 C2708 1.524 . S
C2707 C2711 1.400 . S
C2708 H2693 0.960 . S
C2708 H2694 0.960 . S
C2708 H2695 0.960 . S
C2708 C2707 1.524 . S
C2709 C2706 1.403 . S
C2709 C2710 1.392 . S
C2709 C2713 1.495 . S
C2710 C2709 1.392 . S
C2710 C2711 1.385 . S
C2710 C2712 1.478 . S
C2711 H2705 0.930 . S
C2711 C2707 1.400 . S
C2711 C2710 1.385 . S
C2712 C2710 1.478 . S
C2712 C2714 1.381 . S
C2712 C2718 1.383 . S
C2713 C2709 1.495 . S
C2713 H2719 0.959 . S
C2713 H2720 0.961 . S
C2713 H2721 0.960 . S
C2714 C2712 1.381 . S
C2714 C2715 1.394 . S
C2714 H2722 0.930 . S
C2715 C2714 1.394 . S
C2715 C2716 1.383 . S
C2715 H2723 0.929 . S
C2716 C2715 1.383 . S
C2716 C2717 1.377 . S
C2717 H2701 0.930 . S
C2717 C2716 1.377 . S
C2717 C2718 1.379 . S
C2718 H2702 0.931 . S
C2718 C2712 1.383 . S
C2718 C2717 1.379 . S
H2719 C2713 0.959 . S
H2720 C2713 0.961 . S
H2721 C2713 0.960 . S
H2722 C2714 0.930 . S
H2723 C2715 0.929 . S
H2724 C2732 0.929 . S
H2725 C2734 0.930 . S
H2726 C2736 0.930 . S
H2727 C2739 0.929 . S
H2728 C2742 0.930 . S
H2729 C2744 0.960 . S
H2730 C2744 0.960 . S
H2731 C2744 0.960 . S
C2732 H2724 0.929 . S
C2732 C2733 1.377 . S
C2732 C2734 1.384 . S
C2733 C2732 1.377 . S
C2733 C2739 1.390 . S
C2734 H2725 0.930 . S
C2734 C2732 1.384 . S
C2734 C2735 1.372 . S
C2735 C2734 1.372 . S
C2735 C2736 1.400 . S
C2735 C2740 1.490 . S
C2736 H2726 0.930 . S
C2736 C2735 1.400 . S
C2736 C2739 1.386 . S
H2737 C2753 0.930 . S
H2738 C2754 0.931 . S
C2739 H2727 0.929 . S
C2739 C2733 1.390 . S
C2739 C2736 1.386 . S
C2740 C2735 1.490 . S
C2740 C2742 1.395 . S
C2740 C2743 1.403 . S
H2741 C2747 0.930 . S
C2742 H2728 0.930 . S
C2742 C2740 1.395 . S
C2742 C2745 1.403 . S
C2743 C2740 1.403 . S
C2743 C2744 1.524 . S
C2743 C2747 1.400 . S
C2744 H2729 0.960 . S
C2744 H2730 0.960 . S
C2744 H2731 0.960 . S
C2744 C2743 1.524 . S
C2745 C2742 1.403 . S
C2745 C2746 1.392 . S
C2745 C2749 1.495 . S
C2746 C2745 1.392 . S
C2746 C2747 1.385 . S
C2746 C2748 1.478 . S
C2747 H2741 0.930 . S
C2747 C2743 1.400 . S
C2747 C2746 1.385 . S
C2748 C2746 1.478 . S
C2748 C2750 1.381 . S
C2748 C2754 1.383 . S
C2749 C2745 1.495 . S
C2749 H2755 0.959 . S
C2749 H2756 0.961 . S
C2749 H2757 0.960 . S
C2750 C2748 1.381 . S
C2750 C2751 1.394 . S
C2750 H2758 0.930 . S
C2751 C2750 1.394 . S
C2751 C2752 1.383 . S
C2751 H2759 0.929 . S
C2752 C2751 1.383 . S
C2752 C2753 1.377 . S
C2753 H2737 0.930 . S
C2753 C2752 1.377 . S
C2753 C2754 1.379 . S
C2754 H2738 0.931 . S
C2754 C2748 1.383 . S
C2754 C2753 1.379 . S
H2755 C2749 0.959 . S
H2756 C2749 0.961 . S
H2757 C2749 0.960 . S
H2758 C2750 0.930 . S
H2759 C2751 0.929 . S
H2760 C2768 0.929 . S
H2761 C2770 0.930 . S
H2762 C2772 0.930 . S
H2763 C2775 0.929 . S
H2764 C2778 0.930 . S
H2765 C2780 0.960 . S
H2766 C2780 0.960 . S
H2767 C2780 0.960 . S
C2768 H2760 0.929 . S
C2768 C2769 1.377 . S
C2768 C2770 1.384 . S
C2769 C2768 1.377 . S
C2769 C2775 1.390 . S
C2770 H2761 0.930 . S
C2770 C2768 1.384 . S
C2770 C2771 1.372 . S
C2771 C2770 1.372 . S
C2771 C2772 1.400 . S
C2771 C2776 1.490 . S
C2772 H2762 0.930 . S
C2772 C2771 1.400 . S
C2772 C2775 1.386 . S
H2773 C2789 0.930 . S
H2774 C2790 0.931 . S
C2775 H2763 0.929 . S
C2775 C2769 1.390 . S
C2775 C2772 1.386 . S
C2776 C2771 1.490 . S
C2776 C2778 1.395 . S
C2776 C2779 1.403 . S
H2777 C2783 0.930 . S
C2778 H2764 0.930 . S
C2778 C2776 1.395 . S
C2778 C2781 1.403 . S
C2779 C2776 1.403 . S
C2779 C2780 1.524 . S
C2779 C2783 1.400 . S
C2780 H2765 0.960 . S
C2780 H2766 0.960 . S
C2780 H2767 0.960 . S
C2780 C2779 1.524 . S
C2781 C2778 1.403 . S
C2781 C2782 1.392 . S
C2781 C2785 1.495 . S
C2782 C2781 1.392 . S
C2782 C2783 1.385 . S
C2782 C2784 1.478 . S
C2783 H2777 0.930 . S
C2783 C2779 1.400 . S
C2783 C2782 1.385 . S
C2784 C2782 1.478 . S
C2784 C2786 1.381 . S
C2784 C2790 1.383 . S
C2785 C2781 1.495 . S
C2785 H2791 0.959 . S
C2785 H2792 0.961 . S
C2785 H2793 0.960 . S
C2786 C2784 1.381 . S
C2786 C2787 1.394 . S
C2786 H2794 0.930 . S
C2787 C2786 1.394 . S
C2787 C2788 1.383 . S
C2787 H2795 0.929 . S
C2788 C2787 1.383 . S
C2788 C2789 1.377 . S
C2789 H2773 0.930 . S
C2789 C2788 1.377 . S
C2789 C2790 1.379 . S
C2790 H2774 0.931 . S
C2790 C2784 1.383 . S
C2790 C2789 1.379 . S
H2791 C2785 0.959 . S
H2792 C2785 0.961 . S
H2793 C2785 0.960 . S
H2794 C2786 0.930 . S
H2795 C2787 0.929 . S
H2796 C2804 0.929 . S
H2797 C2806 0.930 . S
H2798 C2808 0.930 . S
H2799 C2811 0.929 . S
H2800 C2814 0.930 . S
H2801 C2816 0.960 . S
H2802 C2816 0.960 . S
H2803 C2816 0.960 . S
C2804 H2796 0.929 . S
C2804 C2805 1.377 . S
C2804 C2806 1.384 . S
C2805 C2804 1.377 . S
C2805 C2811 1.390 . S
C2806 H2797 0.930 . S
C2806 C2804 1.384 . S
C2806 C2807 1.372 . S
C2807 C2806 1.372 . S
C2807 C2808 1.400 . S
C2807 C2812 1.490 . S
C2808 H2798 0.930 . S
C2808 C2807 1.400 . S
C2808 C2811 1.386 . S
H2809 C2825 0.930 . S
H2810 C2826 0.931 . S
C2811 H2799 0.929 . S
C2811 C2805 1.390 . S
C2811 C2808 1.386 . S
C2812 C2807 1.490 . S
C2812 C2814 1.395 . S
C2812 C2815 1.403 . S
H2813 C2819 0.930 . S
C2814 H2800 0.930 . S
C2814 C2812 1.395 . S
C2814 C2817 1.403 . S
C2815 C2812 1.403 . S
C2815 C2816 1.524 . S
C2815 C2819 1.400 . S
C2816 H2801 0.960 . S
C2816 H2802 0.960 . S
C2816 H2803 0.960 . S
C2816 C2815 1.524 . S
C2817 C2814 1.403 . S
C2817 C2818 1.392 . S
C2817 C2821 1.495 . S
C2818 C2817 1.392 . S
C2818 C2819 1.385 . S
C2818 C2820 1.478 . S
C2819 H2813 0.930 . S
C2819 C2815 1.400 . S
C2819 C2818 1.385 . S
C2820 C2818 1.478 . S
C2820 C2822 1.381 . S
C2820 C2826 1.383 . S
C2821 C2817 1.495 . S
C2821 H2827 0.959 . S
C2821 H2828 0.961 . S
C2821 H2829 0.960 . S
C2822 C2820 1.381 . S
C2822 C2823 1.394 . S
C2822 H2830 0.930 . S
C2823 C2822 1.394 . S
C2823 C2824 1.383 . S
C2823 H2831 0.929 . S
C2824 C2823 1.383 . S
C2824 C2825 1.377 . S
C2825 H2809 0.930 . S
C2825 C2824 1.377 . S
C2825 C2826 1.379 . S
C2826 H2810 0.931 . S
C2826 C2820 1.383 . S
C2826 C2825 1.379 . S
H2827 C2821 0.959 . S
H2828 C2821 0.961 . S
H2829 C2821 0.960 . S
H2830 C2822 0.930 . S
H2831 C2823 0.929 . S
H2832 C2840 0.929 . S
H2833 C2842 0.930 . S
H2834 C2844 0.930 . S
H2835 C2847 0.929 . S
H2836 C2850 0.930 . S
H2837 C2852 0.960 . S
H2838 C2852 0.960 . S
H2839 C2852 0.960 . S
C2840 H2832 0.929 . S
C2840 C2841 1.377 . S
C2840 C2842 1.384 . S
C2841 C2840 1.377 . S
C2841 C2847 1.390 . S
C2842 H2833 0.930 . S
C2842 C2840 1.384 . S
C2842 C2843 1.372 . S
C2843 C2842 1.372 . S
C2843 C2844 1.400 . S
C2843 C2848 1.490 . S
C2844 H2834 0.930 . S
C2844 C2843 1.400 . S
C2844 C2847 1.386 . S
H2845 C2861 0.930 . S
H2846 C2862 0.931 . S
C2847 H2835 0.929 . S
C2847 C2841 1.390 . S
C2847 C2844 1.386 . S
C2848 C2843 1.490 . S
C2848 C2850 1.395 . S
C2848 C2851 1.403 . S
H2849 C2855 0.930 . S
C2850 H2836 0.930 . S
C2850 C2848 1.395 . S
C2850 C2853 1.403 . S
C2851 C2848 1.403 . S
C2851 C2852 1.524 . S
C2851 C2855 1.400 . S
C2852 H2837 0.960 . S
C2852 H2838 0.960 . S
C2852 H2839 0.960 . S
C2852 C2851 1.524 . S
C2853 C2850 1.403 . S
C2853 C2854 1.392 . S
C2853 C2857 1.495 . S
C2854 C2853 1.392 . S
C2854 C2855 1.385 . S
C2854 C2856 1.478 . S
C2855 H2849 0.930 . S
C2855 C2851 1.400 . S
C2855 C2854 1.385 . S
C2856 C2854 1.478 . S
C2856 C2858 1.381 . S
C2856 C2862 1.383 . S
C2857 C2853 1.495 . S
C2857 H2863 0.959 . S
C2857 H2864 0.961 . S
C2857 H2865 0.960 . S
C2858 C2856 1.381 . S
C2858 C2859 1.394 . S
C2858 H2866 0.930 . S
C2859 C2858 1.394 . S
C2859 C2860 1.383 . S
C2859 H2867 0.929 . S
C2860 C2859 1.383 . S
C2860 C2861 1.377 . S
C2861 H2845 0.930 . S
C2861 C2860 1.377 . S
C2861 C2862 1.379 . S
C2862 H2846 0.931 . S
C2862 C2856 1.383 . S
C2862 C2861 1.379 . S
H2863 C2857 0.959 . S
H2864 C2857 0.961 . S
H2865 C2857 0.960 . S
H2866 C2858 0.930 . S
H2867 C2859 0.929 . S
H2868 C2876 0.929 . S
H2869 C2878 0.930 . S
H2870 C2880 0.930 . S
H2871 C2883 0.929 . S
H2872 C2886 0.930 . S
H2873 C2888 0.960 . S
H2874 C2888 0.960 . S
H2875 C2888 0.960 . S
C2876 H2868 0.929 . S
C2876 C2877 1.377 . S
C2876 C2878 1.384 . S
C2877 C2876 1.377 . S
C2877 C2883 1.390 . S
C2878 H2869 0.930 . S
C2878 C2876 1.384 . S
C2878 C2879 1.372 . S
C2879 C2878 1.372 . S
C2879 C2880 1.400 . S
C2879 C2884 1.490 . S
C2880 H2870 0.930 . S
C2880 C2879 1.400 . S
C2880 C2883 1.386 . S
H2881 C2897 0.930 . S
H2882 C2898 0.931 . S
C2883 H2871 0.929 . S
C2883 C2877 1.390 . S
C2883 C2880 1.386 . S
C2884 C2879 1.490 . S
C2884 C2886 1.395 . S
C2884 C2887 1.403 . S
H2885 C2891 0.930 . S
C2886 H2872 0.930 . S
C2886 C2884 1.395 . S
C2886 C2889 1.403 . S
C2887 C2884 1.403 . S
C2887 C2888 1.524 . S
C2887 C2891 1.400 . S
C2888 H2873 0.960 . S
C2888 H2874 0.960 . S
C2888 H2875 0.960 . S
C2888 C2887 1.524 . S
C2889 C2886 1.403 . S
C2889 C2890 1.392 . S
C2889 C2893 1.495 . S
C2890 C2889 1.392 . S
C2890 C2891 1.385 . S
C2890 C2892 1.478 . S
C2891 H2885 0.930 . S
C2891 C2887 1.400 . S
C2891 C2890 1.385 . S
C2892 C2890 1.478 . S
C2892 C2894 1.381 . S
C2892 C2898 1.383 . S
C2893 C2889 1.495 . S
C2893 H2899 0.959 . S
C2893 H2900 0.961 . S
C2893 H2901 0.960 . S
C2894 C2892 1.381 . S
C2894 C2895 1.394 . S
C2894 H2902 0.930 . S
C2895 C2894 1.394 . S
C2895 C2896 1.383 . S
C2895 H2903 0.929 . S
C2896 C2895 1.383 . S
C2896 C2897 1.377 . S
C2897 H2881 0.930 . S
C2897 C2896 1.377 . S
C2897 C2898 1.379 . S
C2898 H2882 0.931 . S
C2898 C2892 1.383 . S
C2898 C2897 1.379 . S
H2899 C2893 0.959 . S
H2900 C2893 0.961 . S
H2901 C2893 0.960 . S
H2902 C2894 0.930 . S
H2903 C2895 0.929 . S
H2904 C2912 0.929 . S
H2905 C2914 0.930 . S
H2906 C2916 0.930 . S
H2907 C2919 0.929 . S
H2908 C2922 0.930 . S
H2909 C2924 0.960 . S
H2910 C2924 0.960 . S
H2911 C2924 0.960 . S
C2912 H2904 0.929 . S
C2912 C2913 1.377 . S
C2912 C2914 1.384 . S
C2913 C2912 1.377 . S
C2913 C2919 1.390 . S
C2914 H2905 0.930 . S
C2914 C2912 1.384 . S
C2914 C2915 1.372 . S
C2915 C2914 1.372 . S
C2915 C2916 1.400 . S
C2915 C2920 1.490 . S
C2916 H2906 0.930 . S
C2916 C2915 1.400 . S
C2916 C2919 1.386 . S
H2917 C2933 0.930 . S
H2918 C2934 0.931 . S
C2919 H2907 0.929 . S
C2919 C2913 1.390 . S
C2919 C2916 1.386 . S
C2920 C2915 1.490 . S
C2920 C2922 1.395 . S
C2920 C2923 1.403 . S
H2921 C2927 0.930 . S
C2922 H2908 0.930 . S
C2922 C2920 1.395 . S
C2922 C2925 1.403 . S
C2923 C2920 1.403 . S
C2923 C2924 1.524 . S
C2923 C2927 1.400 . S
C2924 H2909 0.960 . S
C2924 H2910 0.960 . S
C2924 H2911 0.960 . S
C2924 C2923 1.524 . S
C2925 C2922 1.403 . S
C2925 C2926 1.392 . S
C2925 C2929 1.495 . S
C2926 C2925 1.392 . S
C2926 C2927 1.385 . S
C2926 C2928 1.478 . S
C2927 H2921 0.930 . S
C2927 C2923 1.400 . S
C2927 C2926 1.385 . S
C2928 C2926 1.478 . S
C2928 C2930 1.381 . S
C2928 C2934 1.383 . S
C2929 C2925 1.495 . S
C2929 H2935 0.959 . S
C2929 H2936 0.961 . S
C2929 H2937 0.960 . S
C2930 C2928 1.381 . S
C2930 C2931 1.394 . S
C2930 H2938 0.930 . S
C2931 C2930 1.394 . S
C2931 C2932 1.383 . S
C2931 H2939 0.929 . S
C2932 C2931 1.383 . S
C2932 C2933 1.377 . S
C2933 H2917 0.930 . S
C2933 C2932 1.377 . S
C2933 C2934 1.379 . S
C2934 H2918 0.931 . S
C2934 C2928 1.383 . S
C2934 C2933 1.379 . S
H2935 C2929 0.959 . S
H2936 C2929 0.961 . S
H2937 C2929 0.960 . S
H2938 C2930 0.930 . S
H2939 C2931 0.929 . S
H2940 C2948 0.929 . S
H2941 C2950 0.930 . S
H2942 C2952 0.930 . S
H2943 C2955 0.929 . S
H2944 C2958 0.930 . S
H2945 C2960 0.960 . S
H2946 C2960 0.960 . S
H2947 C2960 0.960 . S
C2948 H2940 0.929 . S
C2948 C2949 1.377 . S
C2948 C2950 1.384 . S
C2949 C2948 1.377 . S
C2949 C2955 1.390 . S
C2950 H2941 0.930 . S
C2950 C2948 1.384 . S
C2950 C2951 1.372 . S
C2951 C2950 1.372 . S
C2951 C2952 1.400 . S
C2951 C2956 1.490 . S
C2952 H2942 0.930 . S
C2952 C2951 1.400 . S
C2952 C2955 1.386 . S
H2953 C2969 0.930 . S
H2954 C2970 0.931 . S
C2955 H2943 0.929 . S
C2955 C2949 1.390 . S
C2955 C2952 1.386 . S
C2956 C2951 1.490 . S
C2956 C2958 1.395 . S
C2956 C2959 1.403 . S
H2957 C2963 0.930 . S
C2958 H2944 0.930 . S
C2958 C2956 1.395 . S
C2958 C2961 1.403 . S
C2959 C2956 1.403 . S
C2959 C2960 1.524 . S
C2959 C2963 1.400 . S
C2960 H2945 0.960 . S
C2960 H2946 0.960 . S
C2960 H2947 0.960 . S
C2960 C2959 1.524 . S
C2961 C2958 1.403 . S
C2961 C2962 1.392 . S
C2961 C2965 1.495 . S
C2962 C2961 1.392 . S
C2962 C2963 1.385 . S
C2962 C2964 1.478 . S
C2963 H2957 0.930 . S
C2963 C2959 1.400 . S
C2963 C2962 1.385 . S
C2964 C2962 1.478 . S
C2964 C2966 1.381 . S
C2964 C2970 1.383 . S
C2965 C2961 1.495 . S
C2965 H2971 0.959 . S
C2965 H2972 0.961 . S
C2965 H2973 0.960 . S
C2966 C2964 1.381 . S
C2966 C2967 1.394 . S
C2966 H2974 0.930 . S
C2967 C2966 1.394 . S
C2967 C2968 1.383 . S
C2967 H2975 0.929 . S
C2968 C2967 1.383 . S
C2968 C2969 1.377 . S
C2969 H2953 0.930 . S
C2969 C2968 1.377 . S
C2969 C2970 1.379 . S
C2970 H2954 0.931 . S
C2970 C2964 1.383 . S
C2970 C2969 1.379 . S
H2971 C2965 0.959 . S
H2972 C2965 0.961 . S
H2973 C2965 0.960 . S
H2974 C2966 0.930 . S
H2975 C2967 0.929 . S
H2976 C2984 0.929 . S
H2977 C2986 0.930 . S
H2978 C2988 0.930 . S
H2979 C2991 0.929 . S
H2980 C2994 0.930 . S
H2981 C2996 0.960 . S
H2982 C2996 0.960 . S
H2983 C2996 0.960 . S
C2984 H2976 0.929 . S
C2984 C2985 1.377 . S
C2984 C2986 1.384 . S
C2985 C2984 1.377 . S
C2985 C2991 1.390 . S
C2986 H2977 0.930 . S
C2986 C2984 1.384 . S
C2986 C2987 1.372 . S
C2987 C2986 1.372 . S
C2987 C2988 1.400 . S
C2987 C2992 1.490 . S
C2988 H2978 0.930 . S
C2988 C2987 1.400 . S
C2988 C2991 1.386 . S
H2989 C3005 0.930 . S
H2990 C3006 0.931 . S
C2991 H2979 0.929 . S
C2991 C2985 1.390 . S
C2991 C2988 1.386 . S
C2992 C2987 1.490 . S
C2992 C2994 1.395 . S
C2992 C2995 1.403 . S
H2993 C2999 0.930 . S
C2994 H2980 0.930 . S
C2994 C2992 1.395 . S
C2994 C2997 1.403 . S
C2995 C2992 1.403 . S
C2995 C2996 1.524 . S
C2995 C2999 1.400 . S
C2996 H2981 0.960 . S
C2996 H2982 0.960 . S
C2996 H2983 0.960 . S
C2996 C2995 1.524 . S
C2997 C2994 1.403 . S
C2997 C2998 1.392 . S
C2997 C3001 1.495 . S
C2998 C2997 1.392 . S
C2998 C2999 1.385 . S
C2998 C3000 1.478 . S
C2999 H2993 0.930 . S
C2999 C2995 1.400 . S
C2999 C2998 1.385 . S
C3000 C2998 1.478 . S
C3000 C3002 1.381 . S
C3000 C3006 1.383 . S
C3001 C2997 1.495 . S
C3001 H3007 0.959 . S
C3001 H3008 0.961 . S
C3001 H3009 0.960 . S
C3002 C3000 1.381 . S
C3002 C3003 1.394 . S
C3002 H3010 0.930 . S
C3003 C3002 1.394 . S
C3003 C3004 1.383 . S
C3003 H3011 0.929 . S
C3004 C3003 1.383 . S
C3004 C3005 1.377 . S
C3005 H2989 0.930 . S
C3005 C3004 1.377 . S
C3005 C3006 1.379 . S
C3006 H2990 0.931 . S
C3006 C3000 1.383 . S
C3006 C3005 1.379 . S
H3007 C3001 0.959 . S
H3008 C3001 0.961 . S
H3009 C3001 0.960 . S
H3010 C3002 0.930 . S
H3011 C3003 0.929 . S
H3012 C3020 0.929 . S
H3013 C3022 0.930 . S
H3014 C3024 0.930 . S
H3015 C3027 0.929 . S
H3016 C3030 0.930 . S
H3017 C3032 0.960 . S
H3018 C3032 0.960 . S
H3019 C3032 0.960 . S
C3020 H3012 0.929 . S
C3020 C3021 1.377 . S
C3020 C3022 1.384 . S
C3021 C3020 1.377 . S
C3021 C3027 1.390 . S
C3022 H3013 0.930 . S
C3022 C3020 1.384 . S
C3022 C3023 1.372 . S
C3023 C3022 1.372 . S
C3023 C3024 1.400 . S
C3023 C3028 1.490 . S
C3024 H3014 0.930 . S
C3024 C3023 1.400 . S
C3024 C3027 1.386 . S
H3025 C3041 0.930 . S
H3026 C3042 0.931 . S
C3027 H3015 0.929 . S
C3027 C3021 1.390 . S
C3027 C3024 1.386 . S
C3028 C3023 1.490 . S
C3028 C3030 1.395 . S
C3028 C3031 1.403 . S
H3029 C3035 0.930 . S
C3030 H3016 0.930 . S
C3030 C3028 1.395 . S
C3030 C3033 1.403 . S
C3031 C3028 1.403 . S
C3031 C3032 1.524 . S
C3031 C3035 1.400 . S
C3032 H3017 0.960 . S
C3032 H3018 0.960 . S
C3032 H3019 0.960 . S
C3032 C3031 1.524 . S
C3033 C3030 1.403 . S
C3033 C3034 1.392 . S
C3033 C3037 1.495 . S
C3034 C3033 1.392 . S
C3034 C3035 1.385 . S
C3034 C3036 1.478 . S
C3035 H3029 0.930 . S
C3035 C3031 1.400 . S
C3035 C3034 1.385 . S
C3036 C3034 1.478 . S
C3036 C3038 1.381 . S
C3036 C3042 1.383 . S
C3037 C3033 1.495 . S
C3037 H3043 0.959 . S
C3037 H3044 0.961 . S
C3037 H3045 0.960 . S
C3038 C3036 1.381 . S
C3038 C3039 1.394 . S
C3038 H3046 0.930 . S
C3039 C3038 1.394 . S
C3039 C3040 1.383 . S
C3039 H3047 0.929 . S
C3040 C3039 1.383 . S
C3040 C3041 1.377 . S
C3041 H3025 0.930 . S
C3041 C3040 1.377 . S
C3041 C3042 1.379 . S
C3042 H3026 0.931 . S
C3042 C3036 1.383 . S
C3042 C3041 1.379 . S
H3043 C3037 0.959 . S
H3044 C3037 0.961 . S
H3045 C3037 0.960 . S
H3046 C3038 0.930 . S
H3047 C3039 0.929 . S
H3048 C3056 0.929 . S
H3049 C3058 0.930 . S
H3050 C3060 0.930 . S
H3051 C3063 0.929 . S
H3052 C3066 0.930 . S
H3053 C3068 0.960 . S
H3054 C3068 0.960 . S
H3055 C3068 0.960 . S
C3056 H3048 0.929 . S
C3056 C3057 1.377 . S
C3056 C3058 1.384 . S
C3057 C3056 1.377 . S
C3057 C3063 1.390 . S
C3058 H3049 0.930 . S
C3058 C3056 1.384 . S
C3058 C3059 1.372 . S
C3059 C3058 1.372 . S
C3059 C3060 1.400 . S
C3059 C3064 1.490 . S
C3060 H3050 0.930 . S
C3060 C3059 1.400 . S
C3060 C3063 1.386 . S
H3061 C3077 0.930 . S
H3062 C3078 0.931 . S
C3063 H3051 0.929 . S
C3063 C3057 1.390 . S
C3063 C3060 1.386 . S
C3064 C3059 1.490 . S
C3064 C3066 1.395 . S
C3064 C3067 1.403 . S
H3065 C3071 0.930 . S
C3066 H3052 0.930 . S
C3066 C3064 1.395 . S
C3066 C3069 1.403 . S
C3067 C3064 1.403 . S
C3067 C3068 1.524 . S
C3067 C3071 1.400 . S
C3068 H3053 0.960 . S
C3068 H3054 0.960 . S
C3068 H3055 0.960 . S
C3068 C3067 1.524 . S
C3069 C3066 1.403 . S
C3069 C3070 1.392 . S
C3069 C3073 1.495 . S
C3070 C3069 1.392 . S
C3070 C3071 1.385 . S
C3070 C3072 1.478 . S
C3071 H3065 0.930 . S
C3071 C3067 1.400 . S
C3071 C3070 1.385 . S
C3072 C3070 1.478 . S
C3072 C3074 1.381 . S
C3072 C3078 1.383 . S
C3073 C3069 1.495 . S
C3073 H3079 0.959 . S
C3073 H3080 0.961 . S
C3073 H3081 0.960 . S
C3074 C3072 1.381 . S
C3074 C3075 1.394 . S
C3074 H3082 0.930 . S
C3075 C3074 1.394 . S
C3075 C3076 1.383 . S
C3075 H3083 0.929 . S
C3076 C3075 1.383 . S
C3076 C3077 1.377 . S
C3077 H3061 0.930 . S
C3077 C3076 1.377 . S
C3077 C3078 1.379 . S
C3078 H3062 0.931 . S
C3078 C3072 1.383 . S
C3078 C3077 1.379 . S
H3079 C3073 0.959 . S
H3080 C3073 0.961 . S
H3081 C3073 0.960 . S
H3082 C3074 0.930 . S
H3083 C3075 0.929 . S
H3084 C3092 0.929 . S
H3085 C3094 0.930 . S
H3086 C3096 0.930 . S
H3087 C3099 0.929 . S
H3088 C3102 0.930 . S
H3089 C3104 0.960 . S
H3090 C3104 0.960 . S
H3091 C3104 0.960 . S
C3092 H3084 0.929 . S
C3092 C3093 1.377 . S
C3092 C3094 1.384 . S
C3093 C3092 1.377 . S
C3093 C3099 1.390 . S
C3094 H3085 0.930 . S
C3094 C3092 1.384 . S
C3094 C3095 1.372 . S
C3095 C3094 1.372 . S
C3095 C3096 1.400 . S
C3095 C3100 1.490 . S
C3096 H3086 0.930 . S
C3096 C3095 1.400 . S
C3096 C3099 1.386 . S
H3097 C3113 0.930 . S
H3098 C3114 0.931 . S
C3099 H3087 0.929 . S
C3099 C3093 1.390 . S
C3099 C3096 1.386 . S
C3100 C3095 1.490 . S
C3100 C3102 1.395 . S
C3100 C3103 1.403 . S
H3101 C3107 0.930 . S
C3102 H3088 0.930 . S
C3102 C3100 1.395 . S
C3102 C3105 1.403 . S
C3103 C3100 1.403 . S
C3103 C3104 1.524 . S
C3103 C3107 1.400 . S
C3104 H3089 0.960 . S
C3104 H3090 0.960 . S
C3104 H3091 0.960 . S
C3104 C3103 1.524 . S
C3105 C3102 1.403 . S
C3105 C3106 1.392 . S
C3105 C3109 1.495 . S
C3106 C3105 1.392 . S
C3106 C3107 1.385 . S
C3106 C3108 1.478 . S
C3107 H3101 0.930 . S
C3107 C3103 1.400 . S
C3107 C3106 1.385 . S
C3108 C3106 1.478 . S
C3108 C3110 1.381 . S
C3108 C3114 1.383 . S
C3109 C3105 1.495 . S
C3109 H3115 0.959 . S
C3109 H3116 0.961 . S
C3109 H3117 0.960 . S
C3110 C3108 1.381 . S
C3110 C3111 1.394 . S
C3110 H3118 0.930 . S
C3111 C3110 1.394 . S
C3111 C3112 1.383 . S
C3111 H3119 0.929 . S
C3112 C3111 1.383 . S
C3112 C3113 1.377 . S
C3113 H3097 0.930 . S
C3113 C3112 1.377 . S
C3113 C3114 1.379 . S
C3114 H3098 0.931 . S
C3114 C3108 1.383 . S
C3114 C3113 1.379 . S
H3115 C3109 0.959 . S
H3116 C3109 0.961 . S
H3117 C3109 0.960 . S
H3118 C3110 0.930 . S
H3119 C3111 0.929 . S
H3120 C3128 0.929 . S
H3121 C3130 0.930 . S
H3122 C3132 0.930 . S
H3123 C3135 0.929 . S
H3124 C3138 0.930 . S
H3125 C3140 0.960 . S
H3126 C3140 0.960 . S
H3127 C3140 0.960 . S
C3128 H3120 0.929 . S
C3128 C3129 1.377 . S
C3128 C3130 1.384 . S
C3129 C3128 1.377 . S
C3129 C3135 1.390 . S
C3130 H3121 0.930 . S
C3130 C3128 1.384 . S
C3130 C3131 1.372 . S
C3131 C3130 1.372 . S
C3131 C3132 1.400 . S
C3131 C3136 1.490 . S
C3132 H3122 0.930 . S
C3132 C3131 1.400 . S
C3132 C3135 1.386 . S
H3133 C3149 0.930 . S
H3134 C3150 0.931 . S
C3135 H3123 0.929 . S
C3135 C3129 1.390 . S
C3135 C3132 1.386 . S
C3136 C3131 1.490 . S
C3136 C3138 1.395 . S
C3136 C3139 1.403 . S
H3137 C3143 0.930 . S
C3138 H3124 0.930 . S
C3138 C3136 1.395 . S
C3138 C3141 1.403 . S
C3139 C3136 1.403 . S
C3139 C3140 1.524 . S
C3139 C3143 1.400 . S
C3140 H3125 0.960 . S
C3140 H3126 0.960 . S
C3140 H3127 0.960 . S
C3140 C3139 1.524 . S
C3141 C3138 1.403 . S
C3141 C3142 1.392 . S
C3141 C3145 1.495 . S
C3142 C3141 1.392 . S
C3142 C3143 1.385 . S
C3142 C3144 1.478 . S
C3143 H3137 0.930 . S
C3143 C3139 1.400 . S
C3143 C3142 1.385 . S
C3144 C3142 1.478 . S
C3144 C3146 1.381 . S
C3144 C3150 1.383 . S
C3145 C3141 1.495 . S
C3145 H3151 0.959 . S
C3145 H3152 0.961 . S
C3145 H3153 0.960 . S
C3146 C3144 1.381 . S
C3146 C3147 1.394 . S
C3146 H3154 0.930 . S
C3147 C3146 1.394 . S
C3147 C3148 1.383 . S
C3147 H3155 0.929 . S
C3148 C3147 1.383 . S
C3148 C3149 1.377 . S
C3149 H3133 0.930 . S
C3149 C3148 1.377 . S
C3149 C3150 1.379 . S
C3150 H3134 0.931 . S
C3150 C3144 1.383 . S
C3150 C3149 1.379 . S
H3151 C3145 0.959 . S
H3152 C3145 0.961 . S
H3153 C3145 0.960 . S
H3154 C3146 0.930 . S
H3155 C3147 0.929 . S
H3156 C3164 0.929 . S
H3157 C3166 0.930 . S
H3158 C3168 0.930 . S
H3159 C3171 0.929 . S
H3160 C3174 0.930 . S
H3161 C3176 0.960 . S
H3162 C3176 0.960 . S
H3163 C3176 0.960 . S
C3164 H3156 0.929 . S
C3164 C3165 1.377 . S
C3164 C3166 1.384 . S
C3165 C3164 1.377 . S
C3165 C3171 1.390 . S
C3166 H3157 0.930 . S
C3166 C3164 1.384 . S
C3166 C3167 1.372 . S
C3167 C3166 1.372 . S
C3167 C3168 1.400 . S
C3167 C3172 1.490 . S
C3168 H3158 0.930 . S
C3168 C3167 1.400 . S
C3168 C3171 1.386 . S
H3169 C3185 0.930 . S
H3170 C3186 0.931 . S
C3171 H3159 0.929 . S
C3171 C3165 1.390 . S
C3171 C3168 1.386 . S
C3172 C3167 1.490 . S
C3172 C3174 1.395 . S
C3172 C3175 1.403 . S
H3173 C3179 0.930 . S
C3174 H3160 0.930 . S
C3174 C3172 1.395 . S
C3174 C3177 1.403 . S
C3175 C3172 1.403 . S
C3175 C3176 1.524 . S
C3175 C3179 1.400 . S
C3176 H3161 0.960 . S
C3176 H3162 0.960 . S
C3176 H3163 0.960 . S
C3176 C3175 1.524 . S
C3177 C3174 1.403 . S
C3177 C3178 1.392 . S
C3177 C3181 1.495 . S
C3178 C3177 1.392 . S
C3178 C3179 1.385 . S
C3178 C3180 1.478 . S
C3179 H3173 0.930 . S
C3179 C3175 1.400 . S
C3179 C3178 1.385 . S
C3180 C3178 1.478 . S
C3180 C3182 1.381 . S
C3180 C3186 1.383 . S
C3181 C3177 1.495 . S
C3181 H3187 0.959 . S
C3181 H3188 0.961 . S
C3181 H3189 0.960 . S
C3182 C3180 1.381 . S
C3182 C3183 1.394 . S
C3182 H3190 0.930 . S
C3183 C3182 1.394 . S
C3183 C3184 1.383 . S
C3183 H3191 0.929 . S
C3184 C3183 1.383 . S
C3184 C3185 1.377 . S
C3185 H3169 0.930 . S
C3185 C3184 1.377 . S
C3185 C3186 1.379 . S
C3186 H3170 0.931 . S
C3186 C3180 1.383 . S
C3186 C3185 1.379 . S
H3187 C3181 0.959 . S
H3188 C3181 0.961 . S
H3189 C3181 0.960 . S
H3190 C3182 0.930 . S
H3191 C3183 0.929 . S
H3192 C3200 0.929 . S
H3193 C3202 0.930 . S
H3194 C3204 0.930 . S
H3195 C3207 0.929 . S
H3196 C3210 0.930 . S
H3197 C3212 0.960 . S
H3198 C3212 0.960 . S
H3199 C3212 0.960 . S
C3200 H3192 0.929 . S
C3200 C3201 1.377 . S
C3200 C3202 1.384 . S
C3201 C3200 1.377 . S
C3201 C3207 1.390 . S
C3202 H3193 0.930 . S
C3202 C3200 1.384 . S
C3202 C3203 1.372 . S
C3203 C3202 1.372 . S
C3203 C3204 1.400 . S
C3203 C3208 1.490 . S
C3204 H3194 0.930 . S
C3204 C3203 1.400 . S
C3204 C3207 1.386 . S
H3205 C3221 0.930 . S
H3206 C3222 0.931 . S
C3207 H3195 0.929 . S
C3207 C3201 1.390 . S
C3207 C3204 1.386 . S
C3208 C3203 1.490 . S
C3208 C3210 1.395 . S
C3208 C3211 1.403 . S
H3209 C3215 0.930 . S
C3210 H3196 0.930 . S
C3210 C3208 1.395 . S
C3210 C3213 1.403 . S
C3211 C3208 1.403 . S
C3211 C3212 1.524 . S
C3211 C3215 1.400 . S
C3212 H3197 0.960 . S
C3212 H3198 0.960 . S
C3212 H3199 0.960 . S
C3212 C3211 1.524 . S
C3213 C3210 1.403 . S
C3213 C3214 1.392 . S
C3213 C3217 1.495 . S
C3214 C3213 1.392 . S
C3214 C3215 1.385 . S
C3214 C3216 1.478 . S
C3215 H3209 0.930 . S
C3215 C3211 1.400 . S
C3215 C3214 1.385 . S
C3216 C3214 1.478 . S
C3216 C3218 1.381 . S
C3216 C3222 1.383 . S
C3217 C3213 1.495 . S
C3217 H3223 0.959 . S
C3217 H3224 0.961 . S
C3217 H3225 0.960 . S
C3218 C3216 1.381 . S
C3218 C3219 1.394 . S
C3218 H3226 0.930 . S
C3219 C3218 1.394 . S
C3219 C3220 1.383 . S
C3219 H3227 0.929 . S
C3220 C3219 1.383 . S
C3220 C3221 1.377 . S
C3221 H3205 0.930 . S
C3221 C3220 1.377 . S
C3221 C3222 1.379 . S
C3222 H3206 0.931 . S
C3222 C3216 1.383 . S
C3222 C3221 1.379 . S
H3223 C3217 0.959 . S
H3224 C3217 0.961 . S
H3225 C3217 0.960 . S
H3226 C3218 0.930 . S
H3227 C3219 0.929 . S
H3228 C3236 0.929 . S
H3229 C3238 0.930 . S
H3230 C3240 0.930 . S
H3231 C3243 0.929 . S
H3232 C3246 0.930 . S
H3233 C3248 0.960 . S
H3234 C3248 0.960 . S
H3235 C3248 0.960 . S
C3236 H3228 0.929 . S
C3236 C3237 1.377 . S
C3236 C3238 1.384 . S
C3237 C3236 1.377 . S
C3237 C3243 1.390 . S
C3238 H3229 0.930 . S
C3238 C3236 1.384 . S
C3238 C3239 1.372 . S
C3239 C3238 1.372 . S
C3239 C3240 1.400 . S
C3239 C3244 1.490 . S
C3240 H3230 0.930 . S
C3240 C3239 1.400 . S
C3240 C3243 1.386 . S
H3241 C3257 0.930 . S
H3242 C3258 0.931 . S
C3243 H3231 0.929 . S
C3243 C3237 1.390 . S
C3243 C3240 1.386 . S
C3244 C3239 1.490 . S
C3244 C3246 1.395 . S
C3244 C3247 1.403 . S
H3245 C3251 0.930 . S
C3246 H3232 0.930 . S
C3246 C3244 1.395 . S
C3246 C3249 1.403 . S
C3247 C3244 1.403 . S
C3247 C3248 1.524 . S
C3247 C3251 1.400 . S
C3248 H3233 0.960 . S
C3248 H3234 0.960 . S
C3248 H3235 0.960 . S
C3248 C3247 1.524 . S
C3249 C3246 1.403 . S
C3249 C3250 1.392 . S
C3249 C3253 1.495 . S
C3250 C3249 1.392 . S
C3250 C3251 1.385 . S
C3250 C3252 1.478 . S
C3251 H3245 0.930 . S
C3251 C3247 1.400 . S
C3251 C3250 1.385 . S
C3252 C3250 1.478 . S
C3252 C3254 1.381 . S
C3252 C3258 1.383 . S
C3253 C3249 1.495 . S
C3253 H3259 0.959 . S
C3253 H3260 0.961 . S
C3253 H3261 0.960 . S
C3254 C3252 1.381 . S
C3254 C3255 1.394 . S
C3254 H3262 0.930 . S
C3255 C3254 1.394 . S
C3255 C3256 1.383 . S
C3255 H3263 0.929 . S
C3256 C3255 1.383 . S
C3256 C3257 1.377 . S
C3257 H3241 0.930 . S
C3257 C3256 1.377 . S
C3257 C3258 1.379 . S
C3258 H3242 0.931 . S
C3258 C3252 1.383 . S
C3258 C3257 1.379 . S
H3259 C3253 0.959 . S
H3260 C3253 0.961 . S
H3261 C3253 0.960 . S
H3262 C3254 0.930 . S
H3263 C3255 0.929 . S
H3264 C3272 0.929 . S
H3265 C3274 0.930 . S
H3266 C3276 0.930 . S
H3267 C3279 0.929 . S
H3268 C3282 0.930 . S
H3269 C3284 0.960 . S
H3270 C3284 0.960 . S
H3271 C3284 0.960 . S
C3272 H3264 0.929 . S
C3272 C3273 1.377 . S
C3272 C3274 1.384 . S
C3273 C3272 1.377 . S
C3273 C3279 1.390 . S
C3274 H3265 0.930 . S
C3274 C3272 1.384 . S
C3274 C3275 1.372 . S
C3275 C3274 1.372 . S
C3275 C3276 1.400 . S
C3275 C3280 1.490 . S
C3276 H3266 0.930 . S
C3276 C3275 1.400 . S
C3276 C3279 1.386 . S
H3277 C3293 0.930 . S
H3278 C3294 0.931 . S
C3279 H3267 0.929 . S
C3279 C3273 1.390 . S
C3279 C3276 1.386 . S
C3280 C3275 1.490 . S
C3280 C3282 1.395 . S
C3280 C3283 1.403 . S
H3281 C3287 0.930 . S
C3282 H3268 0.930 . S
C3282 C3280 1.395 . S
C3282 C3285 1.403 1_554 S
C3283 C3280 1.403 . S
C3283 C3284 1.524 . S
C3283 C3287 1.400 1_554 S
C3284 H3269 0.960 . S
C3284 H3270 0.960 . S
C3284 H3271 0.960 . S
C3284 C3283 1.524 . S
C3285 C3282 1.403 1_556 S
C3285 C3286 1.392 . S
C3285 C3289 1.495 . S
C3286 C3285 1.392 . S
C3286 C3287 1.385 . S
C3286 C3288 1.478 . S
C3287 H3281 0.930 . S
C3287 C3283 1.400 1_556 S
C3287 C3286 1.385 . S
C3288 C3286 1.478 . S
C3288 C3290 1.381 . S
C3288 C3294 1.383 . S
C3289 C3285 1.495 . S
C3289 H3295 0.959 . S
C3289 H3296 0.961 . S
C3289 H3297 0.960 . S
C3290 C3288 1.381 . S
C3290 C3291 1.394 . S
C3290 H3298 0.930 . S
C3291 C3290 1.394 . S
C3291 C3292 1.383 . S
C3291 H3299 0.929 . S
C3292 C3291 1.383 . S
C3292 C3293 1.377 . S
C3293 H3277 0.930 . S
C3293 C3292 1.377 . S
C3293 C3294 1.379 . S
C3294 H3278 0.931 . S
C3294 C3288 1.383 . S
C3294 C3293 1.379 . S
H3295 C3289 0.959 . S
H3296 C3289 0.961 . S
H3297 C3289 0.960 . S
H3298 C3290 0.930 . S
H3299 C3291 0.929 . S
H3300 C3308 0.929 . S
H3301 C3310 0.930 . S
H3302 C3312 0.930 . S
H3303 C3315 0.929 . S
H3304 C3318 0.930 . S
H3305 C3320 0.960 . S
H3306 C3320 0.960 . S
H3307 C3320 0.960 . S
C3308 H3300 0.929 . S
C3308 C3309 1.377 . S
C3308 C3310 1.384 . S
C3309 C3308 1.377 . S
C3309 C3315 1.390 . S
C3310 H3301 0.930 . S
C3310 C3308 1.384 . S
C3310 C3311 1.372 . S
C3311 C3310 1.372 . S
C3311 C3312 1.400 . S
C3311 C3316 1.490 . S
C3312 H3302 0.930 . S
C3312 C3311 1.400 . S
C3312 C3315 1.386 . S
H3313 C3329 0.930 . S
H3314 C3330 0.931 . S
C3315 H3303 0.929 . S
C3315 C3309 1.390 . S
C3315 C3312 1.386 . S
C3316 C3311 1.490 . S
C3316 C3318 1.395 . S
C3316 C3319 1.403 . S
H3317 C3323 0.930 . S
C3318 H3304 0.930 . S
C3318 C3316 1.395 . S
C3318 C3321 1.403 1_556 S
C3319 C3316 1.403 . S
C3319 C3320 1.524 . S
C3319 C3323 1.400 1_556 S
C3320 H3305 0.960 . S
C3320 H3306 0.960 . S
C3320 H3307 0.960 . S
C3320 C3319 1.524 . S
C3321 C3318 1.403 1_554 S
C3321 C3322 1.392 . S
C3321 C3325 1.495 . S
C3322 C3321 1.392 . S
C3322 C3323 1.385 . S
C3322 C3324 1.478 . S
C3323 H3317 0.930 . S
C3323 C3319 1.400 1_554 S
C3323 C3322 1.385 . S
C3324 C3322 1.478 . S
C3324 C3326 1.381 . S
C3324 C3330 1.383 . S
C3325 C3321 1.495 . S
C3325 H3331 0.959 . S
C3325 H3332 0.961 . S
C3325 H3333 0.960 . S
C3326 C3324 1.381 . S
C3326 C3327 1.394 . S
C3326 H3334 0.930 . S
C3327 C3326 1.394 . S
C3327 C3328 1.383 . S
C3327 H3335 0.929 . S
C3328 C3327 1.383 . S
C3328 C3329 1.377 . S
C3329 H3313 0.930 . S
C3329 C3328 1.377 . S
C3329 C3330 1.379 . S
C3330 H3314 0.931 . S
C3330 C3324 1.383 . S
C3330 C3329 1.379 . S
H3331 C3325 0.959 . S
H3332 C3325 0.961 . S
H3333 C3325 0.960 . S
H3334 C3326 0.930 . S
H3335 C3327 0.929 . S
H3336 C3344 0.929 . S
H3337 C3346 0.930 . S
H3338 C3348 0.930 . S
H3339 C3351 0.929 . S
H3340 C3354 0.930 . S
H3341 C3356 0.960 . S
H3342 C3356 0.960 . S
H3343 C3356 0.960 . S
C3344 H3336 0.929 . S
C3344 C3345 1.377 . S
C3344 C3346 1.384 . S
C3345 C3344 1.377 . S
C3345 C3351 1.390 . S
C3346 H3337 0.930 . S
C3346 C3344 1.384 . S
C3346 C3347 1.372 . S
C3347 C3346 1.372 . S
C3347 C3348 1.400 . S
C3347 C3352 1.490 . S
C3348 H3338 0.930 . S
C3348 C3347 1.400 . S
C3348 C3351 1.386 . S
H3349 C3365 0.930 . S
H3350 C3366 0.931 . S
C3351 H3339 0.929 . S
C3351 C3345 1.390 . S
C3351 C3348 1.386 . S
C3352 C3347 1.490 . S
C3352 C3354 1.395 . S
C3352 C3355 1.403 . S
H3353 C3359 0.930 . S
C3354 H3340 0.930 . S
C3354 C3352 1.395 . S
C3354 C3357 1.403 1_554 S
C3355 C3352 1.403 . S
C3355 C3356 1.524 . S
C3355 C3359 1.400 1_554 S
C3356 H3341 0.960 . S
C3356 H3342 0.960 . S
C3356 H3343 0.960 . S
C3356 C3355 1.524 . S
C3357 C3354 1.403 1_556 S
C3357 C3358 1.392 . S
C3357 C3361 1.495 . S
C3358 C3357 1.392 . S
C3358 C3359 1.385 . S
C3358 C3360 1.478 . S
C3359 H3353 0.930 . S
C3359 C3355 1.400 1_556 S
C3359 C3358 1.385 . S
C3360 C3358 1.478 . S
C3360 C3362 1.381 . S
C3360 C3366 1.383 . S
C3361 C3357 1.495 . S
C3361 H3367 0.959 . S
C3361 H3368 0.961 . S
C3361 H3369 0.960 . S
C3362 C3360 1.381 . S
C3362 C3363 1.394 . S
C3362 H3370 0.930 . S
C3363 C3362 1.394 . S
C3363 C3364 1.383 . S
C3363 H3371 0.929 . S
C3364 C3363 1.383 . S
C3364 C3365 1.377 . S
C3365 H3349 0.930 . S
C3365 C3364 1.377 . S
C3365 C3366 1.379 . S
C3366 H3350 0.931 . S
C3366 C3360 1.383 . S
C3366 C3365 1.379 . S
H3367 C3361 0.959 . S
H3368 C3361 0.961 . S
H3369 C3361 0.960 . S
H3370 C3362 0.930 . S
H3371 C3363 0.929 . S
H3372 C3380 0.929 . S
H3373 C3382 0.930 . S
H3374 C3384 0.930 . S
H3375 C3387 0.929 . S
H3376 C3390 0.930 . S
H3377 C3392 0.960 . S
H3378 C3392 0.960 . S
H3379 C3392 0.960 . S
C3380 H3372 0.929 . S
C3380 C3381 1.377 . S
C3380 C3382 1.384 . S
C3381 C3380 1.377 . S
C3381 C3387 1.390 . S
C3382 H3373 0.930 . S
C3382 C3380 1.384 . S
C3382 C3383 1.372 . S
C3383 C3382 1.372 . S
C3383 C3384 1.400 . S
C3383 C3388 1.490 . S
C3384 H3374 0.930 . S
C3384 C3383 1.400 . S
C3384 C3387 1.386 . S
H3385 C3401 0.930 . S
H3386 C3402 0.931 . S
C3387 H3375 0.929 . S
C3387 C3381 1.390 . S
C3387 C3384 1.386 . S
C3388 C3383 1.490 . S
C3388 C3390 1.395 . S
C3388 C3391 1.403 . S
H3389 C3395 0.930 . S
C3390 H3376 0.930 . S
C3390 C3388 1.395 . S
C3390 C3393 1.403 1_554 S
C3391 C3388 1.403 . S
C3391 C3392 1.524 . S
C3391 C3395 1.400 1_554 S
C3392 H3377 0.960 . S
C3392 H3378 0.960 . S
C3392 H3379 0.960 . S
C3392 C3391 1.524 . S
C3393 C3390 1.403 1_556 S
C3393 C3394 1.392 . S
C3393 C3397 1.495 . S
C3394 C3393 1.392 . S
C3394 C3395 1.385 . S
C3394 C3396 1.478 . S
C3395 H3389 0.930 . S
C3395 C3391 1.400 1_556 S
C3395 C3394 1.385 . S
C3396 C3394 1.478 . S
C3396 C3398 1.381 . S
C3396 C3402 1.383 . S
C3397 C3393 1.495 . S
C3397 H3403 0.959 . S
C3397 H3404 0.961 . S
C3397 H3405 0.960 . S
C3398 C3396 1.381 . S
C3398 C3399 1.394 . S
C3398 H3406 0.930 . S
C3399 C3398 1.394 . S
C3399 C3400 1.383 . S
C3399 H3407 0.929 . S
C3400 C3399 1.383 . S
C3400 C3401 1.377 . S
C3401 H3385 0.930 . S
C3401 C3400 1.377 . S
C3401 C3402 1.379 . S
C3402 H3386 0.931 . S
C3402 C3396 1.383 . S
C3402 C3401 1.379 . S
H3403 C3397 0.959 . S
H3404 C3397 0.961 . S
H3405 C3397 0.960 . S
H3406 C3398 0.930 . S
H3407 C3399 0.929 . S
H3408 C3416 0.929 . S
H3409 C3418 0.930 . S
H3410 C3420 0.930 . S
H3411 C3423 0.929 . S
H3412 C3426 0.930 . S
H3413 C3428 0.960 . S
H3414 C3428 0.960 . S
H3415 C3428 0.960 . S
C3416 H3408 0.929 . S
C3416 C3417 1.377 . S
C3416 C3418 1.384 . S
C3417 C3416 1.377 . S
C3417 C3423 1.390 . S
C3418 H3409 0.930 . S
C3418 C3416 1.384 . S
C3418 C3419 1.372 . S
C3419 C3418 1.372 . S
C3419 C3420 1.400 . S
C3419 C3424 1.490 . S
C3420 H3410 0.930 . S
C3420 C3419 1.400 . S
C3420 C3423 1.386 . S
H3421 C3437 0.930 . S
H3422 C3438 0.931 . S
C3423 H3411 0.929 . S
C3423 C3417 1.390 . S
C3423 C3420 1.386 . S
C3424 C3419 1.490 . S
C3424 C3426 1.395 . S
C3424 C3427 1.403 . S
H3425 C3431 0.930 . S
C3426 H3412 0.930 . S
C3426 C3424 1.395 . S
C3426 C3429 1.403 1_556 S
C3427 C3424 1.403 . S
C3427 C3428 1.524 . S
C3427 C3431 1.400 1_556 S
C3428 H3413 0.960 . S
C3428 H3414 0.960 . S
C3428 H3415 0.960 . S
C3428 C3427 1.524 . S
C3429 C3426 1.403 1_554 S
C3429 C3430 1.392 . S
C3429 C3433 1.495 . S
C3430 C3429 1.392 . S
C3430 C3431 1.385 . S
C3430 C3432 1.478 . S
C3431 H3425 0.930 . S
C3431 C3427 1.400 1_554 S
C3431 C3430 1.385 . S
C3432 C3430 1.478 . S
C3432 C3434 1.381 . S
C3432 C3438 1.383 . S
C3433 C3429 1.495 . S
C3433 H3439 0.959 . S
C3433 H3440 0.961 . S
C3433 H3441 0.960 . S
C3434 C3432 1.381 . S
C3434 C3435 1.394 . S
C3434 H3442 0.930 . S
C3435 C3434 1.394 . S
C3435 C3436 1.383 . S
C3435 H3443 0.929 . S
C3436 C3435 1.383 . S
C3436 C3437 1.377 . S
C3437 H3421 0.930 . S
C3437 C3436 1.377 . S
C3437 C3438 1.379 . S
C3438 H3422 0.931 . S
C3438 C3432 1.383 . S
C3438 C3437 1.379 . S
H3439 C3433 0.959 . S
H3440 C3433 0.961 . S
H3441 C3433 0.960 . S
H3442 C3434 0.930 . S
H3443 C3435 0.929 . S
H3444 C3452 0.929 . S
H3445 C3454 0.930 . S
H3446 C3456 0.930 . S
H3447 C3459 0.929 . S
H3448 C3462 0.930 . S
H3449 C3464 0.960 . S
H3450 C3464 0.960 . S
H3451 C3464 0.960 . S
C3452 H3444 0.929 . S
C3452 C3453 1.377 . S
C3452 C3454 1.384 . S
C3453 C3452 1.377 . S
C3453 C3459 1.390 . S
C3454 H3445 0.930 . S
C3454 C3452 1.384 . S
C3454 C3455 1.372 . S
C3455 C3454 1.372 . S
C3455 C3456 1.400 . S
C3455 C3460 1.490 . S
C3456 H3446 0.930 . S
C3456 C3455 1.400 . S
C3456 C3459 1.386 . S
H3457 C3473 0.930 . S
H3458 C3474 0.931 . S
C3459 H3447 0.929 . S
C3459 C3453 1.390 . S
C3459 C3456 1.386 . S
C3460 C3455 1.490 . S
C3460 C3462 1.395 . S
C3460 C3463 1.403 . S
H3461 C3467 0.930 . S
C3462 H3448 0.930 . S
C3462 C3460 1.395 . S
C3462 C3465 1.403 1_554 S
C3463 C3460 1.403 . S
C3463 C3464 1.524 . S
C3463 C3467 1.400 1_554 S
C3464 H3449 0.960 . S
C3464 H3450 0.960 . S
C3464 H3451 0.960 . S
C3464 C3463 1.524 . S
C3465 C3462 1.403 1_556 S
C3465 C3466 1.392 . S
C3465 C3469 1.495 . S
C3466 C3465 1.392 . S
C3466 C3467 1.385 . S
C3466 C3468 1.478 . S
C3467 H3461 0.930 . S
C3467 C3463 1.400 1_556 S
C3467 C3466 1.385 . S
C3468 C3466 1.478 . S
C3468 C3470 1.381 . S
C3468 C3474 1.383 . S
C3469 C3465 1.495 . S
C3469 H3475 0.959 . S
C3469 H3476 0.961 . S
C3469 H3477 0.960 . S
C3470 C3468 1.381 . S
C3470 C3471 1.394 . S
C3470 H3478 0.930 . S
C3471 C3470 1.394 . S
C3471 C3472 1.383 . S
C3471 H3479 0.929 . S
C3472 C3471 1.383 . S
C3472 C3473 1.377 . S
C3473 H3457 0.930 . S
C3473 C3472 1.377 . S
C3473 C3474 1.379 . S
C3474 H3458 0.931 . S
C3474 C3468 1.383 . S
C3474 C3473 1.379 . S
H3475 C3469 0.959 . S
H3476 C3469 0.961 . S
H3477 C3469 0.960 . S
H3478 C3470 0.930 . S
H3479 C3471 0.929 . S
H3480 C3488 0.929 . S
H3481 C3490 0.930 . S
H3482 C3492 0.930 . S
H3483 C3495 0.929 . S
H3484 C3498 0.930 . S
H3485 C3500 0.960 . S
H3486 C3500 0.960 . S
H3487 C3500 0.960 . S
C3488 H3480 0.929 . S
C3488 C3489 1.377 . S
C3488 C3490 1.384 . S
C3489 C3488 1.377 . S
C3489 C3495 1.390 . S
C3490 H3481 0.930 . S
C3490 C3488 1.384 . S
C3490 C3491 1.372 . S
C3491 C3490 1.372 . S
C3491 C3492 1.400 . S
C3491 C3496 1.490 . S
C3492 H3482 0.930 . S
C3492 C3491 1.400 . S
C3492 C3495 1.386 . S
H3493 C3509 0.930 . S
H3494 C3510 0.931 . S
C3495 H3483 0.929 . S
C3495 C3489 1.390 . S
C3495 C3492 1.386 . S
C3496 C3491 1.490 . S
C3496 C3498 1.395 . S
C3496 C3499 1.403 . S
H3497 C3503 0.930 . S
C3498 H3484 0.930 . S
C3498 C3496 1.395 . S
C3498 C3501 1.403 1_556 S
C3499 C3496 1.403 . S
C3499 C3500 1.524 . S
C3499 C3503 1.400 1_556 S
C3500 H3485 0.960 . S
C3500 H3486 0.960 . S
C3500 H3487 0.960 . S
C3500 C3499 1.524 . S
C3501 C3498 1.403 1_554 S
C3501 C3502 1.392 . S
C3501 C3505 1.495 . S
C3502 C3501 1.392 . S
C3502 C3503 1.385 . S
C3502 C3504 1.478 . S
C3503 H3497 0.930 . S
C3503 C3499 1.400 1_554 S
C3503 C3502 1.385 . S
C3504 C3502 1.478 . S
C3504 C3506 1.381 . S
C3504 C3510 1.383 . S
C3505 C3501 1.495 . S
C3505 H3511 0.959 . S
C3505 H3512 0.961 . S
C3505 H3513 0.960 . S
C3506 C3504 1.381 . S
C3506 C3507 1.394 . S
C3506 H3514 0.930 . S
C3507 C3506 1.394 . S
C3507 C3508 1.383 . S
C3507 H3515 0.929 . S
C3508 C3507 1.383 . S
C3508 C3509 1.377 . S
C3509 H3493 0.930 . S
C3509 C3508 1.377 . S
C3509 C3510 1.379 . S
C3510 H3494 0.931 . S
C3510 C3504 1.383 . S
C3510 C3509 1.379 . S
H3511 C3505 0.959 . S
H3512 C3505 0.961 . S
H3513 C3505 0.960 . S
H3514 C3506 0.930 . S
H3515 C3507 0.929 . S
H3516 C3524 0.929 . S
H3517 C3526 0.930 . S
H3518 C3528 0.930 . S
H3519 C3531 0.929 . S
H3520 C3534 0.930 . S
H3521 C3536 0.960 . S
H3522 C3536 0.960 . S
H3523 C3536 0.960 . S
C3524 H3516 0.929 . S
C3524 C3525 1.377 . S
C3524 C3526 1.384 . S
C3525 C3524 1.377 . S
C3525 C3531 1.390 . S
C3526 H3517 0.930 . S
C3526 C3524 1.384 . S
C3526 C3527 1.372 . S
C3527 C3526 1.372 . S
C3527 C3528 1.400 . S
C3527 C3532 1.490 . S
C3528 H3518 0.930 . S
C3528 C3527 1.400 . S
C3528 C3531 1.386 . S
H3529 C3545 0.930 . S
H3530 C3546 0.931 . S
C3531 H3519 0.929 . S
C3531 C3525 1.390 . S
C3531 C3528 1.386 . S
C3532 C3527 1.490 . S
C3532 C3534 1.395 . S
C3532 C3535 1.403 . S
H3533 C3539 0.930 . S
C3534 H3520 0.930 . S
C3534 C3532 1.395 . S
C3534 C3537 1.403 1_554 S
C3535 C3532 1.403 . S
C3535 C3536 1.524 . S
C3535 C3539 1.400 1_554 S
C3536 H3521 0.960 . S
C3536 H3522 0.960 . S
C3536 H3523 0.960 . S
C3536 C3535 1.524 . S
C3537 C3534 1.403 1_556 S
C3537 C3538 1.392 . S
C3537 C3541 1.495 . S
C3538 C3537 1.392 . S
C3538 C3539 1.385 . S
C3538 C3540 1.478 . S
C3539 H3533 0.930 . S
C3539 C3535 1.400 1_556 S
C3539 C3538 1.385 . S
C3540 C3538 1.478 . S
C3540 C3542 1.381 . S
C3540 C3546 1.383 . S
C3541 C3537 1.495 . S
C3541 H3547 0.959 . S
C3541 H3548 0.961 . S
C3541 H3549 0.960 . S
C3542 C3540 1.381 . S
C3542 C3543 1.394 . S
C3542 H3550 0.930 . S
C3543 C3542 1.394 . S
C3543 C3544 1.383 . S
C3543 H3551 0.929 . S
C3544 C3543 1.383 . S
C3544 C3545 1.377 . S
C3545 H3529 0.930 . S
C3545 C3544 1.377 . S
C3545 C3546 1.379 . S
C3546 H3530 0.931 . S
C3546 C3540 1.383 . S
C3546 C3545 1.379 . S
H3547 C3541 0.959 . S
H3548 C3541 0.961 . S
H3549 C3541 0.960 . S
H3550 C3542 0.930 . S
H3551 C3543 0.929 . S
H3552 C3560 0.929 . S
H3553 C3562 0.930 . S
H3554 C3564 0.930 . S
H3555 C3567 0.929 . S
H3556 C3570 0.930 . S
H3557 C3572 0.960 . S
H3558 C3572 0.960 . S
H3559 C3572 0.960 . S
C3560 H3552 0.929 . S
C3560 C3561 1.377 . S
C3560 C3562 1.384 . S
C3561 C3560 1.377 . S
C3561 C3567 1.390 . S
C3562 H3553 0.930 . S
C3562 C3560 1.384 . S
C3562 C3563 1.372 . S
C3563 C3562 1.372 . S
C3563 C3564 1.400 . S
C3563 C3568 1.490 . S
C3564 H3554 0.930 . S
C3564 C3563 1.400 . S
C3564 C3567 1.386 . S
H3565 C3581 0.930 . S
H3566 C3582 0.931 . S
C3567 H3555 0.929 . S
C3567 C3561 1.390 . S
C3567 C3564 1.386 . S
C3568 C3563 1.490 . S
C3568 C3570 1.395 . S
C3568 C3571 1.403 . S
H3569 C3575 0.930 . S
C3570 H3556 0.930 . S
C3570 C3568 1.395 . S
C3570 C3573 1.403 1_455 S
C3571 C3568 1.403 . S
C3571 C3572 1.524 . S
C3571 C3575 1.400 1_455 S
C3572 H3557 0.960 . S
C3572 H3558 0.960 . S
C3572 H3559 0.960 . S
C3572 C3571 1.524 . S
C3573 C3570 1.403 1_655 S
C3573 C3574 1.392 . S
C3573 C3577 1.495 . S
C3574 C3573 1.392 . S
C3574 C3575 1.385 . S
C3574 C3576 1.478 . S
C3575 H3569 0.930 . S
C3575 C3571 1.400 1_655 S
C3575 C3574 1.385 . S
C3576 C3574 1.478 . S
C3576 C3578 1.381 . S
C3576 C3582 1.383 . S
C3577 C3573 1.495 . S
C3577 H3583 0.959 . S
C3577 H3584 0.961 . S
C3577 H3585 0.960 . S
C3578 C3576 1.381 . S
C3578 C3579 1.394 . S
C3578 H3586 0.930 . S
C3579 C3578 1.394 . S
C3579 C3580 1.383 . S
C3579 H3587 0.929 . S
C3580 C3579 1.383 . S
C3580 C3581 1.377 . S
C3581 H3565 0.930 . S
C3581 C3580 1.377 . S
C3581 C3582 1.379 . S
C3582 H3566 0.931 . S
C3582 C3576 1.383 . S
C3582 C3581 1.379 . S
H3583 C3577 0.959 . S
H3584 C3577 0.961 . S
H3585 C3577 0.960 . S
H3586 C3578 0.930 . S
H3587 C3579 0.929 . S
H3588 C3596 0.929 . S
H3589 C3598 0.930 . S
H3590 C3600 0.930 . S
H3591 C3603 0.929 . S
H3592 C3606 0.930 . S
H3593 C3608 0.960 . S
H3594 C3608 0.960 . S
H3595 C3608 0.960 . S
C3596 H3588 0.929 . S
C3596 C3597 1.377 . S
C3596 C3598 1.384 . S
C3597 C3596 1.377 . S
C3597 C3603 1.390 . S
C3598 H3589 0.930 . S
C3598 C3596 1.384 . S
C3598 C3599 1.372 . S
C3599 C3598 1.372 . S
C3599 C3600 1.400 . S
C3599 C3604 1.490 . S
C3600 H3590 0.930 . S
C3600 C3599 1.400 . S
C3600 C3603 1.386 . S
H3601 C3617 0.930 . S
H3602 C3618 0.931 . S
C3603 H3591 0.929 . S
C3603 C3597 1.390 . S
C3603 C3600 1.386 . S
C3604 C3599 1.490 . S
C3604 C3606 1.395 . S
C3604 C3607 1.403 . S
H3605 C3611 0.930 . S
C3606 H3592 0.930 . S
C3606 C3604 1.395 . S
C3606 C3609 1.403 1_565 S
C3607 C3604 1.403 . S
C3607 C3608 1.524 . S
C3607 C3611 1.400 1_565 S
C3608 H3593 0.960 . S
C3608 H3594 0.960 . S
C3608 H3595 0.960 . S
C3608 C3607 1.524 . S
C3609 C3606 1.403 1_545 S
C3609 C3610 1.392 . S
C3609 C3613 1.495 . S
C3610 C3609 1.392 . S
C3610 C3611 1.385 . S
C3610 C3612 1.478 . S
C3611 H3605 0.930 . S
C3611 C3607 1.400 1_545 S
C3611 C3610 1.385 . S
C3612 C3610 1.478 . S
C3612 C3614 1.381 . S
C3612 C3618 1.383 . S
C3613 C3609 1.495 . S
C3613 H3619 0.959 . S
C3613 H3620 0.961 . S
C3613 H3621 0.960 . S
C3614 C3612 1.381 . S
C3614 C3615 1.394 . S
C3614 H3622 0.930 . S
C3615 C3614 1.394 . S
C3615 C3616 1.383 . S
C3615 H3623 0.929 . S
C3616 C3615 1.383 . S
C3616 C3617 1.377 . S
C3617 H3601 0.930 . S
C3617 C3616 1.377 . S
C3617 C3618 1.379 . S
C3618 H3602 0.931 . S
C3618 C3612 1.383 . S
C3618 C3617 1.379 . S
H3619 C3613 0.959 . S
H3620 C3613 0.961 . S
H3621 C3613 0.960 . S
H3622 C3614 0.930 . S
H3623 C3615 0.929 . S
H3624 C3632 0.929 . S
H3625 C3634 0.930 . S
H3626 C3636 0.930 . S
H3627 C3639 0.929 . S
H3628 C3642 0.930 . S
H3629 C3644 0.960 . S
H3630 C3644 0.960 . S
H3631 C3644 0.960 . S
C3632 H3624 0.929 . S
C3632 C3633 1.377 . S
C3632 C3634 1.384 . S
C3633 C3632 1.377 . S
C3633 C3639 1.390 . S
C3634 H3625 0.930 . S
C3634 C3632 1.384 . S
C3634 C3635 1.372 . S
C3635 C3634 1.372 . S
C3635 C3636 1.400 . S
C3635 C3640 1.490 . S
C3636 H3626 0.930 . S
C3636 C3635 1.400 . S
C3636 C3639 1.386 . S
H3637 C3653 0.930 . S
H3638 C3654 0.931 . S
C3639 H3627 0.929 . S
C3639 C3633 1.390 . S
C3639 C3636 1.386 . S
C3640 C3635 1.490 . S
C3640 C3642 1.395 . S
C3640 C3643 1.403 . S
H3641 C3647 0.930 . S
C3642 H3628 0.930 . S
C3642 C3640 1.395 . S
C3642 C3645 1.403 1_455 S
C3643 C3640 1.403 . S
C3643 C3644 1.524 . S
C3643 C3647 1.400 1_455 S
C3644 H3629 0.960 . S
C3644 H3630 0.960 . S
C3644 H3631 0.960 . S
C3644 C3643 1.524 . S
C3645 C3642 1.403 1_655 S
C3645 C3646 1.392 . S
C3645 C3649 1.495 . S
C3646 C3645 1.392 . S
C3646 C3647 1.385 . S
C3646 C3648 1.478 . S
C3647 H3641 0.930 . S
C3647 C3643 1.400 1_655 S
C3647 C3646 1.385 . S
C3648 C3646 1.478 . S
C3648 C3650 1.381 . S
C3648 C3654 1.383 . S
C3649 C3645 1.495 . S
C3649 H3655 0.959 . S
C3649 H3656 0.961 . S
C3649 H3657 0.960 . S
C3650 C3648 1.381 . S
C3650 C3651 1.394 . S
C3650 H3658 0.930 . S
C3651 C3650 1.394 . S
C3651 C3652 1.383 . S
C3651 H3659 0.929 . S
C3652 C3651 1.383 . S
C3652 C3653 1.377 . S
C3653 H3637 0.930 . S
C3653 C3652 1.377 . S
C3653 C3654 1.379 . S
C3654 H3638 0.931 . S
C3654 C3648 1.383 . S
C3654 C3653 1.379 . S
H3655 C3649 0.959 . S
H3656 C3649 0.961 . S
H3657 C3649 0.960 . S
H3658 C3650 0.930 . S
H3659 C3651 0.929 . S
H3660 C3668 0.929 . S
H3661 C3670 0.930 . S
H3662 C3672 0.930 . S
H3663 C3675 0.929 . S
H3664 C3678 0.930 . S
H3665 C3680 0.960 . S
H3666 C3680 0.960 . S
H3667 C3680 0.960 . S
C3668 H3660 0.929 . S
C3668 C3669 1.377 . S
C3668 C3670 1.384 . S
C3669 C3668 1.377 . S
C3669 C3675 1.390 . S
C3670 H3661 0.930 . S
C3670 C3668 1.384 . S
C3670 C3671 1.372 . S
C3671 C3670 1.372 . S
C3671 C3672 1.400 . S
C3671 C3676 1.490 . S
C3672 H3662 0.930 . S
C3672 C3671 1.400 . S
C3672 C3675 1.386 . S
H3673 C3689 0.930 . S
H3674 C3690 0.931 . S
C3675 H3663 0.929 . S
C3675 C3669 1.390 . S
C3675 C3672 1.386 . S
C3676 C3671 1.490 . S
C3676 C3678 1.395 . S
C3676 C3679 1.403 . S
H3677 C3683 0.930 . S
C3678 H3664 0.930 . S
C3678 C3676 1.395 . S
C3678 C3681 1.403 1_565 S
C3679 C3676 1.403 . S
C3679 C3680 1.524 . S
C3679 C3683 1.400 1_565 S
C3680 H3665 0.960 . S
C3680 H3666 0.960 . S
C3680 H3667 0.960 . S
C3680 C3679 1.524 . S
C3681 C3678 1.403 1_545 S
C3681 C3682 1.392 . S
C3681 C3685 1.495 . S
C3682 C3681 1.392 . S
C3682 C3683 1.385 . S
C3682 C3684 1.478 . S
C3683 H3677 0.930 . S
C3683 C3679 1.400 1_545 S
C3683 C3682 1.385 . S
C3684 C3682 1.478 . S
C3684 C3686 1.381 . S
C3684 C3690 1.383 . S
C3685 C3681 1.495 . S
C3685 H3691 0.959 . S
C3685 H3692 0.961 . S
C3685 H3693 0.960 . S
C3686 C3684 1.381 . S
C3686 C3687 1.394 . S
C3686 H3694 0.930 . S
C3687 C3686 1.394 . S
C3687 C3688 1.383 . S
C3687 H3695 0.929 . S
C3688 C3687 1.383 . S
C3688 C3689 1.377 . S
C3689 H3673 0.930 . S
C3689 C3688 1.377 . S
C3689 C3690 1.379 . S
C3690 H3674 0.931 . S
C3690 C3684 1.383 . S
C3690 C3689 1.379 . S
H3691 C3685 0.959 . S
H3692 C3685 0.961 . S
H3693 C3685 0.960 . S
H3694 C3686 0.930 . S
H3695 C3687 0.929 . S
H3696 C3704 0.929 . S
H3697 C3706 0.930 . S
H3698 C3708 0.930 . S
H3699 C3711 0.929 . S
H3700 C3714 0.930 . S
H3701 C3716 0.960 . S
H3702 C3716 0.960 . S
H3703 C3716 0.960 . S
C3704 H3696 0.929 . S
C3704 C3705 1.377 . S
C3704 C3706 1.384 . S
C3705 C3704 1.377 . S
C3705 C3711 1.390 . S
C3706 H3697 0.930 . S
C3706 C3704 1.384 . S
C3706 C3707 1.372 . S
C3707 C3706 1.372 . S
C3707 C3708 1.400 . S
C3707 C3712 1.490 . S
C3708 H3698 0.930 . S
C3708 C3707 1.400 . S
C3708 C3711 1.386 . S
H3709 C3725 0.930 . S
H3710 C3726 0.931 . S
C3711 H3699 0.929 . S
C3711 C3705 1.390 . S
C3711 C3708 1.386 . S
C3712 C3707 1.490 . S
C3712 C3714 1.395 . S
C3712 C3715 1.403 . S
H3713 C3719 0.930 . S
C3714 H3700 0.930 . S
C3714 C3712 1.395 . S
C3714 C3717 1.403 1_655 S
C3715 C3712 1.403 . S
C3715 C3716 1.524 . S
C3715 C3719 1.400 1_655 S
C3716 H3701 0.960 . S
C3716 H3702 0.960 . S
C3716 H3703 0.960 . S
C3716 C3715 1.524 . S
C3717 C3714 1.403 1_455 S
C3717 C3718 1.392 . S
C3717 C3721 1.495 . S
C3718 C3717 1.392 . S
C3718 C3719 1.385 . S
C3718 C3720 1.478 . S
C3719 H3713 0.930 . S
C3719 C3715 1.400 1_455 S
C3719 C3718 1.385 . S
C3720 C3718 1.478 . S
C3720 C3722 1.381 . S
C3720 C3726 1.383 . S
C3721 C3717 1.495 . S
C3721 H3727 0.959 . S
C3721 H3728 0.961 . S
C3721 H3729 0.960 . S
C3722 C3720 1.381 . S
C3722 C3723 1.394 . S
C3722 H3730 0.930 . S
C3723 C3722 1.394 . S
C3723 C3724 1.383 . S
C3723 H3731 0.929 . S
C3724 C3723 1.383 . S
C3724 C3725 1.377 . S
C3725 H3709 0.930 . S
C3725 C3724 1.377 . S
C3725 C3726 1.379 . S
C3726 H3710 0.931 . S
C3726 C3720 1.383 . S
C3726 C3725 1.379 . S
H3727 C3721 0.959 . S
H3728 C3721 0.961 . S
H3729 C3721 0.960 . S
H3730 C3722 0.930 . S
H3731 C3723 0.929 . S
H3732 C3740 0.929 . S
H3733 C3742 0.930 . S
H3734 C3744 0.930 . S
H3735 C3747 0.929 . S
H3736 C3750 0.930 . S
H3737 C3752 0.960 . S
H3738 C3752 0.960 . S
H3739 C3752 0.960 . S
C3740 H3732 0.929 . S
C3740 C3741 1.377 . S
C3740 C3742 1.384 . S
C3741 C3740 1.377 . S
C3741 C3747 1.390 . S
C3742 H3733 0.930 . S
C3742 C3740 1.384 . S
C3742 C3743 1.372 . S
C3743 C3742 1.372 . S
C3743 C3744 1.400 . S
C3743 C3748 1.490 . S
C3744 H3734 0.930 . S
C3744 C3743 1.400 . S
C3744 C3747 1.386 . S
H3745 C3761 0.930 . S
H3746 C3762 0.931 . S
C3747 H3735 0.929 . S
C3747 C3741 1.390 . S
C3747 C3744 1.386 . S
C3748 C3743 1.490 . S
C3748 C3750 1.395 . S
C3748 C3751 1.403 . S
H3749 C3755 0.930 . S
C3750 H3736 0.930 . S
C3750 C3748 1.395 . S
C3750 C3753 1.403 1_545 S
C3751 C3748 1.403 . S
C3751 C3752 1.524 . S
C3751 C3755 1.400 1_545 S
C3752 H3737 0.960 . S
C3752 H3738 0.960 . S
C3752 H3739 0.960 . S
C3752 C3751 1.524 . S
C3753 C3750 1.403 1_565 S
C3753 C3754 1.392 . S
C3753 C3757 1.495 . S
C3754 C3753 1.392 . S
C3754 C3755 1.385 . S
C3754 C3756 1.478 . S
C3755 H3749 0.930 . S
C3755 C3751 1.400 1_565 S
C3755 C3754 1.385 . S
C3756 C3754 1.478 . S
C3756 C3758 1.381 . S
C3756 C3762 1.383 . S
C3757 C3753 1.495 . S
C3757 H3763 0.959 . S
C3757 H3764 0.961 . S
C3757 H3765 0.960 . S
C3758 C3756 1.381 . S
C3758 C3759 1.394 . S
C3758 H3766 0.930 . S
C3759 C3758 1.394 . S
C3759 C3760 1.383 . S
C3759 H3767 0.929 . S
C3760 C3759 1.383 . S
C3760 C3761 1.377 . S
C3761 H3745 0.930 . S
C3761 C3760 1.377 . S
C3761 C3762 1.379 . S
C3762 H3746 0.931 . S
C3762 C3756 1.383 . S
C3762 C3761 1.379 . S
H3763 C3757 0.959 . S
H3764 C3757 0.961 . S
H3765 C3757 0.960 . S
H3766 C3758 0.930 . S
H3767 C3759 0.929 . S
H3768 C3776 0.929 . S
H3769 C3778 0.930 . S
H3770 C3780 0.930 . S
H3771 C3783 0.929 . S
H3772 C3786 0.930 . S
H3773 C3788 0.960 . S
H3774 C3788 0.960 . S
H3775 C3788 0.960 . S
C3776 H3768 0.929 . S
C3776 C3777 1.377 . S
C3776 C3778 1.384 . S
C3777 C3776 1.377 . S
C3777 C3783 1.390 . S
C3778 H3769 0.930 . S
C3778 C3776 1.384 . S
C3778 C3779 1.372 . S
C3779 C3778 1.372 . S
C3779 C3780 1.400 . S
C3779 C3784 1.490 . S
C3780 H3770 0.930 . S
C3780 C3779 1.400 . S
C3780 C3783 1.386 . S
H3781 C3797 0.930 . S
H3782 C3798 0.931 . S
C3783 H3771 0.929 . S
C3783 C3777 1.390 . S
C3783 C3780 1.386 . S
C3784 C3779 1.490 . S
C3784 C3786 1.395 . S
C3784 C3787 1.403 . S
H3785 C3791 0.930 . S
C3786 H3772 0.930 . S
C3786 C3784 1.395 . S
C3786 C3789 1.403 1_455 S
C3787 C3784 1.403 . S
C3787 C3788 1.524 . S
C3787 C3791 1.400 1_455 S
C3788 H3773 0.960 . S
C3788 H3774 0.960 . S
C3788 H3775 0.960 . S
C3788 C3787 1.524 . S
C3789 C3786 1.403 1_655 S
C3789 C3790 1.392 . S
C3789 C3793 1.495 . S
C3790 C3789 1.392 . S
C3790 C3791 1.385 . S
C3790 C3792 1.478 . S
C3791 H3785 0.930 . S
C3791 C3787 1.400 1_655 S
C3791 C3790 1.385 . S
C3792 C3790 1.478 . S
C3792 C3794 1.381 . S
C3792 C3798 1.383 . S
C3793 C3789 1.495 . S
C3793 H3799 0.959 . S
C3793 H3800 0.961 . S
C3793 H3801 0.960 . S
C3794 C3792 1.381 . S
C3794 C3795 1.394 . S
C3794 H3802 0.930 . S
C3795 C3794 1.394 . S
C3795 C3796 1.383 . S
C3795 H3803 0.929 . S
C3796 C3795 1.383 . S
C3796 C3797 1.377 . S
C3797 H3781 0.930 . S
C3797 C3796 1.377 . S
C3797 C3798 1.379 . S
C3798 H3782 0.931 . S
C3798 C3792 1.383 . S
C3798 C3797 1.379 . S
H3799 C3793 0.959 . S
H3800 C3793 0.961 . S
H3801 C3793 0.960 . S
H3802 C3794 0.930 . S
H3803 C3795 0.929 . S
H3804 C3812 0.929 . S
H3805 C3814 0.930 . S
H3806 C3816 0.930 . S
H3807 C3819 0.929 . S
H3808 C3822 0.930 . S
H3809 C3824 0.960 . S
H3810 C3824 0.960 . S
H3811 C3824 0.960 . S
C3812 H3804 0.929 . S
C3812 C3813 1.377 . S
C3812 C3814 1.384 . S
C3813 C3812 1.377 . S
C3813 C3819 1.390 . S
C3814 H3805 0.930 . S
C3814 C3812 1.384 . S
C3814 C3815 1.372 . S
C3815 C3814 1.372 . S
C3815 C3816 1.400 . S
C3815 C3820 1.490 . S
C3816 H3806 0.930 . S
C3816 C3815 1.400 . S
C3816 C3819 1.386 . S
H3817 C3833 0.930 . S
H3818 C3834 0.931 . S
C3819 H3807 0.929 . S
C3819 C3813 1.390 . S
C3819 C3816 1.386 . S
C3820 C3815 1.490 . S
C3820 C3822 1.395 . S
C3820 C3823 1.403 . S
H3821 C3827 0.930 . S
C3822 H3808 0.930 . S
C3822 C3820 1.395 . S
C3822 C3825 1.403 1_545 S
C3823 C3820 1.403 . S
C3823 C3824 1.524 . S
C3823 C3827 1.400 1_545 S
C3824 H3809 0.960 . S
C3824 H3810 0.960 . S
C3824 H3811 0.960 . S
C3824 C3823 1.524 . S
C3825 C3822 1.403 1_565 S
C3825 C3826 1.392 . S
C3825 C3829 1.495 . S
C3826 C3825 1.392 . S
C3826 C3827 1.385 . S
C3826 C3828 1.478 . S
C3827 H3821 0.930 . S
C3827 C3823 1.400 1_565 S
C3827 C3826 1.385 . S
C3828 C3826 1.478 . S
C3828 C3830 1.381 . S
C3828 C3834 1.383 . S
C3829 C3825 1.495 . S
C3829 H3835 0.959 . S
C3829 H3836 0.961 . S
C3829 H3837 0.960 . S
C3830 C3828 1.381 . S
C3830 C3831 1.394 . S
C3830 H3838 0.930 . S
C3831 C3830 1.394 . S
C3831 C3832 1.383 . S
C3831 H3839 0.929 . S
C3832 C3831 1.383 . S
C3832 C3833 1.377 . S
C3833 H3817 0.930 . S
C3833 C3832 1.377 . S
C3833 C3834 1.379 . S
C3834 H3818 0.931 . S
C3834 C3828 1.383 . S
C3834 C3833 1.379 . S
H3835 C3829 0.959 . S
H3836 C3829 0.961 . S
H3837 C3829 0.960 . S
H3838 C3830 0.930 . S
H3839 C3831 0.929 . S
H3840 C3848 0.929 . S
H3841 C3850 0.930 . S
H3842 C3852 0.930 . S
H3843 C3855 0.929 . S
H3844 C3858 0.930 . S
H3845 C3860 0.960 . S
H3846 C3860 0.960 . S
H3847 C3860 0.960 . S
C3848 H3840 0.929 . S
C3848 C3849 1.377 . S
C3848 C3850 1.384 . S
C3849 C3848 1.377 . S
C3849 C3855 1.390 . S
C3850 H3841 0.930 . S
C3850 C3848 1.384 . S
C3850 C3851 1.372 . S
C3851 C3850 1.372 . S
C3851 C3852 1.400 . S
C3851 C3856 1.490 . S
C3852 H3842 0.930 . S
C3852 C3851 1.400 . S
C3852 C3855 1.386 . S
H3853 C3869 0.930 . S
H3854 C3870 0.931 . S
C3855 H3843 0.929 . S
C3855 C3849 1.390 . S
C3855 C3852 1.386 . S
C3856 C3851 1.490 . S
C3856 C3858 1.395 . S
C3856 C3859 1.403 . S
H3857 C3863 0.930 . S
C3858 H3844 0.930 . S
C3858 C3856 1.395 . S
C3858 C3861 1.403 1_545 S
C3859 C3856 1.403 . S
C3859 C3860 1.524 . S
C3859 C3863 1.400 1_545 S
C3860 H3845 0.960 . S
C3860 H3846 0.960 . S
C3860 H3847 0.960 . S
C3860 C3859 1.524 . S
C3861 C3858 1.403 1_565 S
C3861 C3862 1.392 . S
C3861 C3865 1.495 . S
C3862 C3861 1.392 . S
C3862 C3863 1.385 . S
C3862 C3864 1.478 . S
C3863 H3857 0.930 . S
C3863 C3859 1.400 1_565 S
C3863 C3862 1.385 . S
C3864 C3862 1.478 . S
C3864 C3866 1.381 . S
C3864 C3870 1.383 . S
C3865 C3861 1.495 . S
C3865 H3871 0.959 . S
C3865 H3872 0.961 . S
C3865 H3873 0.960 . S
C3866 C3864 1.381 . S
C3866 C3867 1.394 . S
C3866 H3874 0.930 . S
C3867 C3866 1.394 . S
C3867 C3868 1.383 . S
C3867 H3875 0.929 . S
C3868 C3867 1.383 . S
C3868 C3869 1.377 . S
C3869 H3853 0.930 . S
C3869 C3868 1.377 . S
C3869 C3870 1.379 . S
C3870 H3854 0.931 . S
C3870 C3864 1.383 . S
C3870 C3869 1.379 . S
H3871 C3865 0.959 . S
H3872 C3865 0.961 . S
H3873 C3865 0.960 . S
H3874 C3866 0.930 . S
H3875 C3867 0.929 . S
H3876 C3884 0.929 . S
H3877 C3886 0.930 . S
H3878 C3888 0.930 . S
H3879 C3891 0.929 . S
H3880 C3894 0.930 . S
H3881 C3896 0.960 . S
H3882 C3896 0.960 . S
H3883 C3896 0.960 . S
C3884 H3876 0.929 . S
C3884 C3885 1.377 . S
C3884 C3886 1.384 . S
C3885 C3884 1.377 . S
C3885 C3891 1.390 . S
C3886 H3877 0.930 . S
C3886 C3884 1.384 . S
C3886 C3887 1.372 . S
C3887 C3886 1.372 . S
C3887 C3888 1.400 . S
C3887 C3892 1.490 . S
C3888 H3878 0.930 . S
C3888 C3887 1.400 . S
C3888 C3891 1.386 . S
H3889 C3905 0.930 . S
H3890 C3906 0.931 . S
C3891 H3879 0.929 . S
C3891 C3885 1.390 . S
C3891 C3888 1.386 . S
C3892 C3887 1.490 . S
C3892 C3894 1.395 . S
C3892 C3895 1.403 . S
H3893 C3899 0.930 . S
C3894 H3880 0.930 . S
C3894 C3892 1.395 . S
C3894 C3897 1.403 1_545 S
C3895 C3892 1.403 . S
C3895 C3896 1.524 . S
C3895 C3899 1.400 1_545 S
C3896 H3881 0.960 . S
C3896 H3882 0.960 . S
C3896 H3883 0.960 . S
C3896 C3895 1.524 . S
C3897 C3894 1.403 1_565 S
C3897 C3898 1.392 . S
C3897 C3901 1.495 . S
C3898 C3897 1.392 . S
C3898 C3899 1.385 . S
C3898 C3900 1.478 . S
C3899 H3893 0.930 . S
C3899 C3895 1.400 1_565 S
C3899 C3898 1.385 . S
C3900 C3898 1.478 . S
C3900 C3902 1.381 . S
C3900 C3906 1.383 . S
C3901 C3897 1.495 . S
C3901 H3907 0.959 . S
C3901 H3908 0.961 . S
C3901 H3909 0.960 . S
C3902 C3900 1.381 . S
C3902 C3903 1.394 . S
C3902 H3910 0.930 . S
C3903 C3902 1.394 . S
C3903 C3904 1.383 . S
C3903 H3911 0.929 . S
C3904 C3903 1.383 . S
C3904 C3905 1.377 . S
C3905 H3889 0.930 . S
C3905 C3904 1.377 . S
C3905 C3906 1.379 . S
C3906 H3890 0.931 . S
C3906 C3900 1.383 . S
C3906 C3905 1.379 . S
H3907 C3901 0.959 . S
H3908 C3901 0.961 . S
H3909 C3901 0.960 . S
H3910 C3902 0.930 . S
H3911 C3903 0.929 . S
H3912 C3920 0.929 . S
H3913 C3922 0.930 . S
H3914 C3924 0.930 . S
H3915 C3927 0.929 . S
H3916 C3930 0.930 . S
H3917 C3932 0.960 . S
H3918 C3932 0.960 . S
H3919 C3932 0.960 . S
C3920 H3912 0.929 . S
C3920 C3921 1.377 . S
C3920 C3922 1.384 . S
C3921 C3920 1.377 . S
C3921 C3927 1.390 . S
C3922 H3913 0.930 . S
C3922 C3920 1.384 . S
C3922 C3923 1.372 . S
C3923 C3922 1.372 . S
C3923 C3924 1.400 . S
C3923 C3928 1.490 . S
C3924 H3914 0.930 . S
C3924 C3923 1.400 . S
C3924 C3927 1.386 . S
H3925 C3941 0.930 . S
H3926 C3942 0.931 . S
C3927 H3915 0.929 . S
C3927 C3921 1.390 . S
C3927 C3924 1.386 . S
C3928 C3923 1.490 . S
C3928 C3930 1.395 . S
C3928 C3931 1.403 . S
H3929 C3935 0.930 . S
C3930 H3916 0.930 . S
C3930 C3928 1.395 . S
C3930 C3933 1.403 1_655 S
C3931 C3928 1.403 . S
C3931 C3932 1.524 . S
C3931 C3935 1.400 1_655 S
C3932 H3917 0.960 . S
C3932 H3918 0.960 . S
C3932 H3919 0.960 . S
C3932 C3931 1.524 . S
C3933 C3930 1.403 1_455 S
C3933 C3934 1.392 . S
C3933 C3937 1.495 . S
C3934 C3933 1.392 . S
C3934 C3935 1.385 . S
C3934 C3936 1.478 . S
C3935 H3929 0.930 . S
C3935 C3931 1.400 1_455 S
C3935 C3934 1.385 . S
C3936 C3934 1.478 . S
C3936 C3938 1.381 . S
C3936 C3942 1.383 . S
C3937 C3933 1.495 . S
C3937 H3943 0.959 . S
C3937 H3944 0.961 . S
C3937 H3945 0.960 . S
C3938 C3936 1.381 . S
C3938 C3939 1.394 . S
C3938 H3946 0.930 . S
C3939 C3938 1.394 . S
C3939 C3940 1.383 . S
C3939 H3947 0.929 . S
C3940 C3939 1.383 . S
C3940 C3941 1.377 . S
C3941 H3925 0.930 . S
C3941 C3940 1.377 . S
C3941 C3942 1.379 . S
C3942 H3926 0.931 . S
C3942 C3936 1.383 . S
C3942 C3941 1.379 . S
H3943 C3937 0.959 . S
H3944 C3937 0.961 . S
H3945 C3937 0.960 . S
H3946 C3938 0.930 . S
H3947 C3939 0.929 . S
H3948 C3956 0.929 . S
H3949 C3958 0.930 . S
H3950 C3960 0.930 . S
H3951 C3963 0.929 . S
H3952 C3966 0.930 . S
H3953 C3968 0.960 . S
H3954 C3968 0.960 . S
H3955 C3968 0.960 . S
C3956 H3948 0.929 . S
C3956 C3957 1.377 . S
C3956 C3958 1.384 . S
C3957 C3956 1.377 . S
C3957 C3963 1.390 . S
C3958 H3949 0.930 . S
C3958 C3956 1.384 . S
C3958 C3959 1.372 . S
C3959 C3958 1.372 . S
C3959 C3960 1.400 . S
C3959 C3964 1.490 . S
C3960 H3950 0.930 . S
C3960 C3959 1.400 . S
C3960 C3963 1.386 . S
H3961 C3977 0.930 . S
H3962 C3978 0.931 . S
C3963 H3951 0.929 . S
C3963 C3957 1.390 . S
C3963 C3960 1.386 . S
C3964 C3959 1.490 . S
C3964 C3966 1.395 . S
C3964 C3967 1.403 . S
H3965 C3971 0.930 . S
C3966 H3952 0.930 . S
C3966 C3964 1.395 . S
C3966 C3969 1.403 1_545 S
C3967 C3964 1.403 . S
C3967 C3968 1.524 . S
C3967 C3971 1.400 1_545 S
C3968 H3953 0.960 . S
C3968 H3954 0.960 . S
C3968 H3955 0.960 . S
C3968 C3967 1.524 . S
C3969 C3966 1.403 1_565 S
C3969 C3970 1.392 . S
C3969 C3973 1.495 . S
C3970 C3969 1.392 . S
C3970 C3971 1.385 . S
C3970 C3972 1.478 . S
C3971 H3965 0.930 . S
C3971 C3967 1.400 1_565 S
C3971 C3970 1.385 . S
C3972 C3970 1.478 . S
C3972 C3974 1.381 . S
C3972 C3978 1.383 . S
C3973 C3969 1.495 . S
C3973 H3979 0.959 . S
C3973 H3980 0.961 . S
C3973 H3981 0.960 . S
C3974 C3972 1.381 . S
C3974 C3975 1.394 . S
C3974 H3982 0.930 . S
C3975 C3974 1.394 . S
C3975 C3976 1.383 . S
C3975 H3983 0.929 . S
C3976 C3975 1.383 . S
C3976 C3977 1.377 . S
C3977 H3961 0.930 . S
C3977 C3976 1.377 . S
C3977 C3978 1.379 . S
C3978 H3962 0.931 . S
C3978 C3972 1.383 . S
C3978 C3977 1.379 . S
H3979 C3973 0.959 . S
H3980 C3973 0.961 . S
H3981 C3973 0.960 . S
H3982 C3974 0.930 . S
H3983 C3975 0.929 . S
H3984 C3992 0.929 . S
H3985 C3994 0.930 . S
H3986 C3996 0.930 . S
H3987 C3999 0.929 . S
H3988 C4002 0.930 . S
H3989 C4004 0.960 . S
H3990 C4004 0.960 . S
H3991 C4004 0.960 . S
C3992 H3984 0.929 . S
C3992 C3993 1.377 . S
C3992 C3994 1.384 . S
C3993 C3992 1.377 . S
C3993 C3999 1.390 . S
C3994 H3985 0.930 . S
C3994 C3992 1.384 . S
C3994 C3995 1.372 . S
C3995 C3994 1.372 . S
C3995 C3996 1.400 . S
C3995 C4000 1.490 . S
C3996 H3986 0.930 . S
C3996 C3995 1.400 . S
C3996 C3999 1.386 . S
H3997 C4013 0.930 . S
H3998 C4014 0.931 . S
C3999 H3987 0.929 . S
C3999 C3993 1.390 . S
C3999 C3996 1.386 . S
C4000 C3995 1.490 . S
C4000 C4002 1.395 . S
C4000 C4003 1.403 . S
H4001 C4007 0.930 . S
C4002 H3988 0.930 . S
C4002 C4000 1.395 . S
C4002 C4005 1.403 1_455 S
C4003 C4000 1.403 . S
C4003 C4004 1.524 . S
C4003 C4007 1.400 1_455 S
C4004 H3989 0.960 . S
C4004 H3990 0.960 . S
C4004 H3991 0.960 . S
C4004 C4003 1.524 . S
C4005 C4002 1.403 1_655 S
C4005 C4006 1.392 . S
C4005 C4009 1.495 . S
C4006 C4005 1.392 . S
C4006 C4007 1.385 . S
C4006 C4008 1.478 . S
C4007 H4001 0.930 . S
C4007 C4003 1.400 1_655 S
C4007 C4006 1.385 . S
C4008 C4006 1.478 . S
C4008 C4010 1.381 . S
C4008 C4014 1.383 . S
C4009 C4005 1.495 . S
C4009 H4015 0.959 . S
C4009 H4016 0.961 . S
C4009 H4017 0.960 . S
C4010 C4008 1.381 . S
C4010 C4011 1.394 . S
C4010 H4018 0.930 . S
C4011 C4010 1.394 . S
C4011 C4012 1.383 . S
C4011 H4019 0.929 . S
C4012 C4011 1.383 . S
C4012 C4013 1.377 . S
C4013 H3997 0.930 . S
C4013 C4012 1.377 . S
C4013 C4014 1.379 . S
C4014 H3998 0.931 . S
C4014 C4008 1.383 . S
C4014 C4013 1.379 . S
H4015 C4009 0.959 . S
H4016 C4009 0.961 . S
H4017 C4009 0.960 . S
H4018 C4010 0.930 . S
H4019 C4011 0.929 . S
H4020 C4028 0.929 . S
H4021 C4030 0.930 . S
H4022 C4032 0.930 . S
H4023 C4035 0.929 . S
H4024 C4038 0.930 . S
H4025 C4040 0.960 . S
H4026 C4040 0.960 . S
H4027 C4040 0.960 . S
C4028 H4020 0.929 . S
C4028 C4029 1.377 . S
C4028 C4030 1.384 . S
C4029 C4028 1.377 . S
C4029 C4035 1.390 . S
C4030 H4021 0.930 . S
C4030 C4028 1.384 . S
C4030 C4031 1.372 . S
C4031 C4030 1.372 . S
C4031 C4032 1.400 . S
C4031 C4036 1.490 . S
C4032 H4022 0.930 . S
C4032 C4031 1.400 . S
C4032 C4035 1.386 . S
H4033 C4049 0.930 . S
H4034 C4050 0.931 . S
C4035 H4023 0.929 . S
C4035 C4029 1.390 . S
C4035 C4032 1.386 . S
C4036 C4031 1.490 . S
C4036 C4038 1.395 . S
C4036 C4039 1.403 . S
H4037 C4043 0.930 . S
C4038 H4024 0.930 . S
C4038 C4036 1.395 . S
C4038 C4041 1.403 1_545 S
C4039 C4036 1.403 . S
C4039 C4040 1.524 . S
C4039 C4043 1.400 1_545 S
C4040 H4025 0.960 . S
C4040 H4026 0.960 . S
C4040 H4027 0.960 . S
C4040 C4039 1.524 . S
C4041 C4038 1.403 1_565 S
C4041 C4042 1.392 . S
C4041 C4045 1.495 . S
C4042 C4041 1.392 . S
C4042 C4043 1.385 . S
C4042 C4044 1.478 . S
C4043 H4037 0.930 . S
C4043 C4039 1.400 1_565 S
C4043 C4042 1.385 . S
C4044 C4042 1.478 . S
C4044 C4046 1.381 . S
C4044 C4050 1.383 . S
C4045 C4041 1.495 . S
C4045 H4051 0.959 . S
C4045 H4052 0.961 . S
C4045 H4053 0.960 . S
C4046 C4044 1.381 . S
C4046 C4047 1.394 . S
C4046 H4054 0.930 . S
C4047 C4046 1.394 . S
C4047 C4048 1.383 . S
C4047 H4055 0.929 . S
C4048 C4047 1.383 . S
C4048 C4049 1.377 . S
C4049 H4033 0.930 . S
C4049 C4048 1.377 . S
C4049 C4050 1.379 . S
C4050 H4034 0.931 . S
C4050 C4044 1.383 . S
C4050 C4049 1.379 . S
H4051 C4045 0.959 . S
H4052 C4045 0.961 . S
H4053 C4045 0.960 . S
H4054 C4046 0.930 . S
H4055 C4047 0.929 . S
H4056 C4064 0.929 . S
H4057 C4066 0.930 . S
H4058 C4068 0.930 . S
H4059 C4071 0.929 . S
H4060 C4074 0.930 . S
H4061 C4076 0.960 . S
H4062 C4076 0.960 . S
H4063 C4076 0.960 . S
C4064 H4056 0.929 . S
C4064 C4065 1.377 . S
C4064 C4066 1.384 . S
C4065 C4064 1.377 . S
C4065 C4071 1.390 . S
C4066 H4057 0.930 . S
C4066 C4064 1.384 . S
C4066 C4067 1.372 . S
C4067 C4066 1.372 . S
C4067 C4068 1.400 . S
C4067 C4072 1.490 . S
C4068 H4058 0.930 . S
C4068 C4067 1.400 . S
C4068 C4071 1.386 . S
H4069 C4085 0.930 . S
H4070 C4086 0.931 . S
C4071 H4059 0.929 . S
C4071 C4065 1.390 . S
C4071 C4068 1.386 . S
C4072 C4067 1.490 . S
C4072 C4074 1.395 . S
C4072 C4075 1.403 . S
H4073 C4079 0.930 . S
C4074 H4060 0.930 . S
C4074 C4072 1.395 . S
C4074 C4077 1.403 1_655 S
C4075 C4072 1.403 . S
C4075 C4076 1.524 . S
C4075 C4079 1.400 1_655 S
C4076 H4061 0.960 . S
C4076 H4062 0.960 . S
C4076 H4063 0.960 . S
C4076 C4075 1.524 . S
C4077 C4074 1.403 1_455 S
C4077 C4078 1.392 . S
C4077 C4081 1.495 . S
C4078 C4077 1.392 . S
C4078 C4079 1.385 . S
C4078 C4080 1.478 . S
C4079 H4073 0.930 . S
C4079 C4075 1.400 1_455 S
C4079 C4078 1.385 . S
C4080 C4078 1.478 . S
C4080 C4082 1.381 . S
C4080 C4086 1.383 . S
C4081 C4077 1.495 . S
C4081 H4087 0.959 . S
C4081 H4088 0.961 . S
C4081 H4089 0.960 . S
C4082 C4080 1.381 . S
C4082 C4083 1.394 . S
C4082 H4090 0.930 . S
C4083 C4082 1.394 . S
C4083 C4084 1.383 . S
C4083 H4091 0.929 . S
C4084 C4083 1.383 . S
C4084 C4085 1.377 . S
C4085 H4069 0.930 . S
C4085 C4084 1.377 . S
C4085 C4086 1.379 . S
C4086 H4070 0.931 . S
C4086 C4080 1.383 . S
C4086 C4085 1.379 . S
H4087 C4081 0.959 . S
H4088 C4081 0.961 . S
H4089 C4081 0.960 . S
H4090 C4082 0.930 . S
H4091 C4083 0.929 . S
H4092 C4100 0.929 . S
H4093 C4102 0.930 . S
H4094 C4104 0.930 . S
H4095 C4107 0.929 . S
H4096 C4110 0.930 . S
H4097 C4112 0.960 . S
H4098 C4112 0.960 . S
H4099 C4112 0.960 . S
C4100 H4092 0.929 . S
C4100 C4101 1.377 . S
C4100 C4102 1.384 . S
C4101 C4100 1.377 . S
C4101 C4107 1.390 . S
C4102 H4093 0.930 . S
C4102 C4100 1.384 . S
C4102 C4103 1.372 . S
C4103 C4102 1.372 . S
C4103 C4104 1.400 . S
C4103 C4108 1.490 . S
C4104 H4094 0.930 . S
C4104 C4103 1.400 . S
C4104 C4107 1.386 . S
H4105 C4121 0.930 . S
H4106 C4122 0.931 . S
C4107 H4095 0.929 . S
C4107 C4101 1.390 . S
C4107 C4104 1.386 . S
C4108 C4103 1.490 . S
C4108 C4110 1.395 . S
C4108 C4111 1.403 . S
H4109 C4115 0.930 . S
C4110 H4096 0.930 . S
C4110 C4108 1.395 . S
C4110 C4113 1.403 1_455 S
C4111 C4108 1.403 . S
C4111 C4112 1.524 . S
C4111 C4115 1.400 1_455 S
C4112 H4097 0.960 . S
C4112 H4098 0.960 . S
C4112 H4099 0.960 . S
C4112 C4111 1.524 . S
C4113 C4110 1.403 1_655 S
C4113 C4114 1.392 . S
C4113 C4117 1.495 . S
C4114 C4113 1.392 . S
C4114 C4115 1.385 . S
C4114 C4116 1.478 . S
C4115 H4109 0.930 . S
C4115 C4111 1.400 1_655 S
C4115 C4114 1.385 . S
C4116 C4114 1.478 . S
C4116 C4118 1.381 . S
C4116 C4122 1.383 . S
C4117 C4113 1.495 . S
C4117 H4123 0.959 . S
C4117 H4124 0.961 . S
C4117 H4125 0.960 . S
C4118 C4116 1.381 . S
C4118 C4119 1.394 . S
C4118 H4126 0.930 . S
C4119 C4118 1.394 . S
C4119 C4120 1.383 . S
C4119 H4127 0.929 . S
C4120 C4119 1.383 . S
C4120 C4121 1.377 . S
C4121 H4105 0.930 . S
C4121 C4120 1.377 . S
C4121 C4122 1.379 . S
C4122 H4106 0.931 . S
C4122 C4116 1.383 . S
C4122 C4121 1.379 . S
H4123 C4117 0.959 . S
H4124 C4117 0.961 . S
H4125 C4117 0.960 . S
H4126 C4118 0.930 . S
H4127 C4119 0.929 . S
C681 C546 1.266 . S
C700 C11 1.283 . S
C717 C25 1.132 . S
C736 C504 1.126 . S
C753 C39 1.224 . S
C772 C529 1.237 . S
C789 C543 1.082 . S
C808 C53 1.059 . S
C825 C473 1.147 . S
C844 C67 1.142 . S
C861 C70 1.133 . S
C880 C487 1.116 . S
C897 C95 1.192 . S
C916 C490 1.200 . S
C933 C98 1.177 . S
C952 C448 1.192 . S
C969 C112 1.345 . S
C988 C434 1.338 . S
C1005 C403 1.132 . S
C1024 C137 1.143 . S
C1041 C406 1.274 . S
C1060 C140 1.250 . S
C1077 C165 1.200 . S
C1096 C431 1.199 . S
C1113 C168 1.155 . S
C1132 C361 1.146 . S
C1149 C193 1.215 . S
C1168 C364 1.226 . S
C1185 C389 1.087 . S
C1204 C196 1.101 . S
C1221 C336 1.284 . S
C1240 C221 1.272 . S
C1257 C235 1.128 . S
C1276 C627 1.117 . S
C1293 C658 1.163 . S
C1312 C238 1.157 . S
C1329 C641 1.285 . S
C1348 C252 1.291 . S
C1365 C644 1.081 . S
C1384 C266 1.062 . S
C1401 C571 1.266 . S
C1420 C280 1.270 . S
C1437 C599 1.143 . S
C1456 C305 1.147 . S
C1473 C308 1.186 . S
C1492 C602 1.188 . S
C1509 C574 1.111 . S
C1528 C322 1.118 . S
C1545 C459 1.234 . S
C1564 C291 1.244 . S
C1581 C249 1.126 . S
C1600 C462 1.104 . S
C1617 C476 1.249 . S
C1636 C263 1.265 . S
C1653 C501 1.083 . S
C1672 C277 1.087 . S
C1689 C333 1.148 . S
C1708 C515 1.142 . S
C1725 C518 1.166 . S
C1744 C294 1.156 . S
C1761 C319 1.190 . S
C1780 C532 1.184 . S
C1797 C224 1.147 . S
C1816 C557 1.154 . S
C1833 C560 1.336 . S
C1852 C210 1.342 . S
C1869 C179 1.210 . S
C1888 C669 1.224 . S
C1905 C630 1.281 . S
C1924 C182 1.257 . S
C1941 C207 1.115 . S
C1960 C655 1.108 . S
C1977 C126 1.070 . S
C1996 C585 1.087 . S
C2013 C151 1.228 . S
C2032 C588 1.223 . S
C2049 C154 1.164 . S
C2068 C613 1.163 . S
C2085 C616 1.272 . S
C2104 C123 1.274 . S
C2121 C347 1.163 . S
C2140 C109 1.144 . S
C2157 C392 1.148 . S
C2176 C14 1.122 . S
C2193 C417 1.254 . S
C2212 C28 1.232 . S
C2229 C420 1.095 . S
C2248 C42 1.077 . S
C2265 C445 1.300 . S
C2284 C0 1.307 . S
C2301 C81 1.112 . S
C2320 C375 1.106 . S
C2337 C378 1.182 . S
C2356 C84 1.173 . S
C2373 C350 1.120 . S
C2392 C56 1.140 . S
C2409 C5 1.491 . S
C2428 C373 1.493 . S
C2445 C383 1.439 . S
C2464 C19 1.438 . S
C2481 C33 1.490 . S
C2500 C345 1.484 . S
C2517 C47 1.437 . S
C2536 C355 1.423 . S
C2553 C61 1.447 . S
C2572 C425 1.450 . S
C2589 C443 1.483 . S
C2608 C79 1.470 . S
C2625 C89 1.449 . S
C2644 C397 1.451 . S
C2661 C415 1.488 . S
C2680 C107 1.481 . S
C2697 C121 1.460 . S
C2716 C513 1.449 . S
C2733 C523 1.449 . S
C2752 C131 1.445 . S
C2769 C149 1.444 . S
C2788 C537 1.457 . S
C2805 C159 1.470 . S
C2824 C555 1.468 . S
C2841 C177 1.436 . S
C2860 C457 1.419 . S
C2877 C187 1.469 . S
C2896 C467 1.471 . S
C2913 C481 1.416 . S
C2932 C205 1.405 . S
C2949 C215 1.484 . S
C2968 C499 1.464 . S
C2985 C611 1.463 . S
C3004 C229 1.473 . S
C3021 C247 1.474 . S
C3040 C635 1.476 . S
C3057 C261 1.435 . S
C3076 C653 1.423 . S
C3093 C565 1.465 . S
C3112 C275 1.440 . S
C3129 C667 1.450 . S
C3148 C289 1.460 . S
C3165 C299 1.450 . S
C3184 C583 1.435 . S
C3201 C593 1.451 . S
C3220 C317 1.427 . S
C3237 C331 1.423 . S
C3256 C621 1.434 . S
C3273 C597 1.487 . S
C3292 C285 1.495 . S
C3309 C243 1.452 . S
C3328 C607 1.453 . S
C3345 C625 1.479 . S
C3364 C257 1.488 . S
C3381 C579 1.426 . S
C3400 C271 1.422 . S
C3417 C649 1.437 . S
C3436 C327 1.441 . S
C3453 C303 1.481 . S
C3472 C569 1.486 . S
C3489 C663 1.463 . S
C3508 C313 1.457 . S
C3525 C233 1.484 . S
C3544 C639 1.493 . S
C3561 C471 1.458 . S
C3580 C219 1.463 . S
C3597 C173 1.466 . S
C3616 C485 1.450 . S
C3633 C191 1.444 . S
C3652 C495 1.454 . S
C3669 C453 1.456 . S
C3688 C201 1.449 . S
C3705 C135 1.419 . S
C3724 C551 1.411 . S
C3741 C509 1.472 . S
C3760 C145 1.462 . S
C3777 C163 1.427 . S
C3796 C527 1.438 . S
C3813 C117 1.487 . S
C3832 C541 1.474 . S
C3849 C387 1.461 . S
C3868 C103 1.462 . S
C3885 C23 1.468 . S
C3904 C411 1.463 . S
C3921 C37 1.430 . S
C3940 C429 1.439 . S
C3957 C439 1.472 . S
C3976 C51 1.450 . S
C3993 C9 1.452 . S
C4012 C401 1.445 . S
C4029 C75 1.449 . S
C4048 C359 1.424 . S
C4065 C93 1.434 . S
C4084 C369 1.438 . S
C4101 C65 1.428 . S
C4120 C341 1.440 . S
