# Generated by pormake.
# Topology unl, (4)-cn, num edge types: 1
# Building blocks:
#     Node 0, Type 0, BuildingBlock: ESEHIV_clean_sbu_0, # of connection points: 4
#     Node 1, Type 0, BuildingBlock: ESEHIV_clean_sbu_0, # of connection points: 4
#     Node 2, Type 0, BuildingBlock: ESEHIV_clean_sbu_0, # of connection points: 4
#     Node 3, Type 0, BuildingBlock: ESEHIV_clean_sbu_0, # of connection points: 4
#     Node 4, Type 0, BuildingBlock: ESEHIV_clean_sbu_0, # of connection points: 4
#     Node 5, Type 0, BuildingBlock: ESEHIV_clean_sbu_0, # of connection points: 4
#     Node 6, Type 0, BuildingBlock: ESEHIV_clean_sbu_0, # of connection points: 4
#     Node 7, Type 0, BuildingBlock: ESEHIV_clean_sbu_0, # of connection points: 4
#     Node 8, Type 0, BuildingBlock: ESEHIV_clean_sbu_0, # of connection points: 4
#     Node 9, Type 0, BuildingBlock: ESEHIV_clean_sbu_0, # of connection points: 4
#     Node 10, Type 0, BuildingBlock: ESEHIV_clean_sbu_0, # of connection points: 4
#     Node 11, Type 0, BuildingBlock: ESEHIV_clean_sbu_0, # of connection points: 4
#     Node 12, Type 0, BuildingBlock: ESEHIV_clean_sbu_0, # of connection points: 4
#     Node 13, Type 0, BuildingBlock: ESEHIV_clean_sbu_0, # of connection points: 4
#     Node 14, Type 0, BuildingBlock: ESEHIV_clean_sbu_0, # of connection points: 4
#     Node 15, Type 0, BuildingBlock: ESEHIV_clean_sbu_0, # of connection points: 4
#     Node 16, Type 0, BuildingBlock: ESEHIV_clean_sbu_0, # of connection points: 4
#     Node 17, Type 0, BuildingBlock: ESEHIV_clean_sbu_0, # of connection points: 4
#     Node 18, Type 0, BuildingBlock: ESEHIV_clean_sbu_0, # of connection points: 4
#     Node 19, Type 0, BuildingBlock: ESEHIV_clean_sbu_0, # of connection points: 4
#     Node 20, Type 0, BuildingBlock: ESEHIV_clean_sbu_0, # of connection points: 4
#     Node 21, Type 0, BuildingBlock: ESEHIV_clean_sbu_0, # of connection points: 4
#     Node 22, Type 0, BuildingBlock: ESEHIV_clean_sbu_0, # of connection points: 4
#     Node 23, Type 0, BuildingBlock: ESEHIV_clean_sbu_0, # of connection points: 4
#     Node 24, Type 0, BuildingBlock: ESEHIV_clean_sbu_0, # of connection points: 4
#     Node 25, Type 0, BuildingBlock: ESEHIV_clean_sbu_0, # of connection points: 4
#     Node 26, Type 0, BuildingBlock: ESEHIV_clean_sbu_0, # of connection points: 4
#     Node 27, Type 0, BuildingBlock: ESEHIV_clean_sbu_0, # of connection points: 4
#     Node 28, Type 0, BuildingBlock: ESEHIV_clean_sbu_0, # of connection points: 4
#     Node 29, Type 0, BuildingBlock: ESEHIV_clean_sbu_0, # of connection points: 4
#     Node 30, Type 0, BuildingBlock: ESEHIV_clean_sbu_0, # of connection points: 4
#     Node 31, Type 0, BuildingBlock: ESEHIV_clean_sbu_0, # of connection points: 4
#     Node 32, Type 0, BuildingBlock: ESEHIV_clean_sbu_0, # of connection points: 4
#     Node 33, Type 0, BuildingBlock: ESEHIV_clean_sbu_0, # of connection points: 4
#     Node 34, Type 0, BuildingBlock: ESEHIV_clean_sbu_0, # of connection points: 4
#     Node 35, Type 0, BuildingBlock: ESEHIV_clean_sbu_0, # of connection points: 4
#     Edge 36, Type (0, 0), BuildingBlock: OJICUG_clean_linker_0, # of connection points: 2
#     Edge 37, Type (0, 0), BuildingBlock: OJICUG_clean_linker_0, # of connection points: 2
#     Edge 38, Type (0, 0), BuildingBlock: OJICUG_clean_linker_0, # of connection points: 2
#     Edge 39, Type (0, 0), BuildingBlock: OJICUG_clean_linker_0, # of connection points: 2
#     Edge 40, Type (0, 0), BuildingBlock: OJICUG_clean_linker_0, # of connection points: 2
#     Edge 41, Type (0, 0), BuildingBlock: OJICUG_clean_linker_0, # of connection points: 2
#     Edge 42, Type (0, 0), BuildingBlock: OJICUG_clean_linker_0, # of connection points: 2
#     Edge 43, Type (0, 0), BuildingBlock: OJICUG_clean_linker_0, # of connection points: 2
#     Edge 44, Type (0, 0), BuildingBlock: OJICUG_clean_linker_0, # of connection points: 2
#     Edge 45, Type (0, 0), BuildingBlock: OJICUG_clean_linker_0, # of connection points: 2
#     Edge 46, Type (0, 0), BuildingBlock: OJICUG_clean_linker_0, # of connection points: 2
#     Edge 47, Type (0, 0), BuildingBlock: OJICUG_clean_linker_0, # of connection points: 2
#     Edge 48, Type (0, 0), BuildingBlock: OJICUG_clean_linker_0, # of connection points: 2
#     Edge 49, Type (0, 0), BuildingBlock: OJICUG_clean_linker_0, # of connection points: 2
#     Edge 50, Type (0, 0), BuildingBlock: OJICUG_clean_linker_0, # of connection points: 2
#     Edge 51, Type (0, 0), BuildingBlock: OJICUG_clean_linker_0, # of connection points: 2
#     Edge 52, Type (0, 0), BuildingBlock: OJICUG_clean_linker_0, # of connection points: 2
#     Edge 53, Type (0, 0), BuildingBlock: OJICUG_clean_linker_0, # of connection points: 2
#     Edge 54, Type (0, 0), BuildingBlock: OJICUG_clean_linker_0, # of connection points: 2
#     Edge 55, Type (0, 0), BuildingBlock: OJICUG_clean_linker_0, # of connection points: 2
#     Edge 56, Type (0, 0), BuildingBlock: OJICUG_clean_linker_0, # of connection points: 2
#     Edge 57, Type (0, 0), BuildingBlock: OJICUG_clean_linker_0, # of connection points: 2
#     Edge 58, Type (0, 0), BuildingBlock: OJICUG_clean_linker_0, # of connection points: 2
#     Edge 59, Type (0, 0), BuildingBlock: OJICUG_clean_linker_0, # of connection points: 2
#     Edge 60, Type (0, 0), BuildingBlock: OJICUG_clean_linker_0, # of connection points: 2
#     Edge 61, Type (0, 0), BuildingBlock: OJICUG_clean_linker_0, # of connection points: 2
#     Edge 62, Type (0, 0), BuildingBlock: OJICUG_clean_linker_0, # of connection points: 2
#     Edge 63, Type (0, 0), BuildingBlock: OJICUG_clean_linker_0, # of connection points: 2
#     Edge 64, Type (0, 0), BuildingBlock: OJICUG_clean_linker_0, # of connection points: 2
#     Edge 65, Type (0, 0), BuildingBlock: OJICUG_clean_linker_0, # of connection points: 2
#     Edge 66, Type (0, 0), BuildingBlock: OJICUG_clean_linker_0, # of connection points: 2
#     Edge 67, Type (0, 0), BuildingBlock: OJICUG_clean_linker_0, # of connection points: 2
#     Edge 68, Type (0, 0), BuildingBlock: OJICUG_clean_linker_0, # of connection points: 2
#     Edge 69, Type (0, 0), BuildingBlock: OJICUG_clean_linker_0, # of connection points: 2
#     Edge 70, Type (0, 0), BuildingBlock: OJICUG_clean_linker_0, # of connection points: 2
#     Edge 71, Type (0, 0), BuildingBlock: OJICUG_clean_linker_0, # of connection points: 2
#     Edge 72, Type (0, 0), BuildingBlock: OJICUG_clean_linker_0, # of connection points: 2
#     Edge 73, Type (0, 0), BuildingBlock: OJICUG_clean_linker_0, # of connection points: 2
#     Edge 74, Type (0, 0), BuildingBlock: OJICUG_clean_linker_0, # of connection points: 2
#     Edge 75, Type (0, 0), BuildingBlock: OJICUG_clean_linker_0, # of connection points: 2
#     Edge 76, Type (0, 0), BuildingBlock: OJICUG_clean_linker_0, # of connection points: 2
#     Edge 77, Type (0, 0), BuildingBlock: OJICUG_clean_linker_0, # of connection points: 2
#     Edge 78, Type (0, 0), BuildingBlock: OJICUG_clean_linker_0, # of connection points: 2
#     Edge 79, Type (0, 0), BuildingBlock: OJICUG_clean_linker_0, # of connection points: 2
#     Edge 80, Type (0, 0), BuildingBlock: OJICUG_clean_linker_0, # of connection points: 2
#     Edge 81, Type (0, 0), BuildingBlock: OJICUG_clean_linker_0, # of connection points: 2
#     Edge 82, Type (0, 0), BuildingBlock: OJICUG_clean_linker_0, # of connection points: 2
#     Edge 83, Type (0, 0), BuildingBlock: OJICUG_clean_linker_0, # of connection points: 2
#     Edge 84, Type (0, 0), BuildingBlock: OJICUG_clean_linker_0, # of connection points: 2
#     Edge 85, Type (0, 0), BuildingBlock: OJICUG_clean_linker_0, # of connection points: 2
#     Edge 86, Type (0, 0), BuildingBlock: OJICUG_clean_linker_0, # of connection points: 2
#     Edge 87, Type (0, 0), BuildingBlock: OJICUG_clean_linker_0, # of connection points: 2
#     Edge 88, Type (0, 0), BuildingBlock: OJICUG_clean_linker_0, # of connection points: 2
#     Edge 89, Type (0, 0), BuildingBlock: OJICUG_clean_linker_0, # of connection points: 2
#     Edge 90, Type (0, 0), BuildingBlock: OJICUG_clean_linker_0, # of connection points: 2
#     Edge 91, Type (0, 0), BuildingBlock: OJICUG_clean_linker_0, # of connection points: 2
#     Edge 92, Type (0, 0), BuildingBlock: OJICUG_clean_linker_0, # of connection points: 2
#     Edge 93, Type (0, 0), BuildingBlock: OJICUG_clean_linker_0, # of connection points: 2
#     Edge 94, Type (0, 0), BuildingBlock: OJICUG_clean_linker_0, # of connection points: 2
#     Edge 95, Type (0, 0), BuildingBlock: OJICUG_clean_linker_0, # of connection points: 2
#     Edge 96, Type (0, 0), BuildingBlock: OJICUG_clean_linker_0, # of connection points: 2
#     Edge 97, Type (0, 0), BuildingBlock: OJICUG_clean_linker_0, # of connection points: 2
#     Edge 98, Type (0, 0), BuildingBlock: OJICUG_clean_linker_0, # of connection points: 2
#     Edge 99, Type (0, 0), BuildingBlock: OJICUG_clean_linker_0, # of connection points: 2
#     Edge 100, Type (0, 0), BuildingBlock: OJICUG_clean_linker_0, # of connection points: 2
#     Edge 101, Type (0, 0), BuildingBlock: OJICUG_clean_linker_0, # of connection points: 2
#     Edge 102, Type (0, 0), BuildingBlock: OJICUG_clean_linker_0, # of connection points: 2
#     Edge 103, Type (0, 0), BuildingBlock: OJICUG_clean_linker_0, # of connection points: 2
#     Edge 104, Type (0, 0), BuildingBlock: OJICUG_clean_linker_0, # of connection points: 2
#     Edge 105, Type (0, 0), BuildingBlock: OJICUG_clean_linker_0, # of connection points: 2
#     Edge 106, Type (0, 0), BuildingBlock: OJICUG_clean_linker_0, # of connection points: 2
#     Edge 107, Type (0, 0), BuildingBlock: OJICUG_clean_linker_0, # of connection points: 2
# Relax obj value: 0.044
# Max RMSD: 0.203
# Mean RMSD: 0.186
data_MOF--net-unl--node1-ESEHIV_clean_sbu_0--edge1-OJICUG_clean_linker_0
_symmetry_space_group_name_H-M    P1
_symmetry_Int_Tables_number       1
_symmetry_cell_setting            triclinic
loop_
_symmetry_equiv_pos_as_xyz
'x, y, z'
_cell_length_a     47.544752
_cell_length_b     51.2845
_cell_length_c     37.278686
_cell_angle_alpha  87.410135
_cell_angle_beta   90.097259
_cell_angle_gamma 117.49348
loop_
_atom_site_label
_atom_site_type_symbol
_atom_site_fract_x
_atom_site_fract_y
_atom_site_fract_z
_atom_type_partial_charge
Cu0 Cu 0.19932 0.13522 0.13971 0.0
N1 N 0.17617 0.13152 0.18184 0.0
N2 N 0.16101 0.14355 0.23283 0.0
C3 C 0.18053 0.15337 0.20346 0.0
C4 C 0.14363 0.11426 0.22919 0.0
C5 C 0.15303 0.10696 0.19779 0.0
O6 O 0.2438 0.15922 0.15133 0.0
C7 C 0.18799 0.154 0.06817 0.0
O8 O 0.20859 0.14633 0.05515 0.0
H9 H 0.19792 0.17599 0.1976 0.0
H10 H 0.14405 0.08518 0.18765 0.0
N11 N 0.19472 0.09819 0.12892 0.0
N12 N 0.19289 0.06117 0.09797 0.0
C13 C 0.18651 0.08425 0.09786 0.0
C14 C 0.20596 0.08297 0.14947 0.0
C15 C 0.20507 0.06025 0.13039 0.0
C16 C 0.2667 0.1573 0.13605 0.0
O17 O 0.26133 0.14236 0.10691 0.0
H18 H 0.17823 0.09198 0.07472 0.0
H19 H 0.21619 0.08928 0.17558 0.0
O20 O 0.1828 0.15192 0.10199 0.0
H21 H 0.126 0.09892 0.24826 0.0
H22 H 0.21414 0.04516 0.13891 0.0
Cu23 Cu 0.86682 0.04299 0.13413 0.0
N24 N 0.84544 0.01401 0.10107 0.0
N25 N 0.83568 0.98649 0.05303 0.0
C26 C 0.85738 0.00979 0.07024 0.0
C27 C 0.80921 0.97562 0.07405 0.0
C28 C 0.81535 0.99247 0.10363 0.0
O29 O 0.90678 0.07101 0.11095 0.0
C30 C 0.88278 0.03792 0.2073 0.0
O31 O 0.89538 0.06677 0.20552 0.0
H32 H 0.88151 0.02351 0.06069 0.0
H33 H 0.79917 0.98891 0.12583 0.0
N34 N 0.84391 0.06349 0.1446 0.0
N35 N 0.83389 0.09978 0.16187 0.0
C36 C 0.85614 0.09065 0.15742 0.0
C37 C 0.81282 0.05513 0.14061 0.0
C38 C 0.80657 0.0774 0.15124 0.0
C39 C 0.90414 0.08752 0.086 0.0
O40 O 0.87582 0.08448 0.07846 0.0
H41 H 0.88106 0.10361 0.16281 0.0
H42 H 0.7958 0.03433 0.13071 0.0
O43 O 0.87117 0.02397 0.17905 0.0
H44 H 0.78722 0.95627 0.06902 0.0
H45 H 0.78354 0.07684 0.15172 0.0
Cu46 Cu 0.95308 0.80686 0.13443 0.0
N47 N 0.98974 0.82057 0.10536 0.0
N48 N 0.02514 0.84207 0.06022 0.0
C49 C 0.99655 0.83664 0.07396 0.0
C50 C 0.03666 0.82889 0.08387 0.0
C51 C 1.01485 0.81572 0.11161 0.0
O52 O 0.92127 0.8135 0.10813 0.0
C53 C 0.978 0.81484 0.20372 0.0
O54 O 0.98259 0.79257 0.19485 0.0
H55 H 0.98074 0.8438 0.06107 0.0
H56 H 1.01711 0.80333 0.13468 0.0
N57 N 0.93566 0.76598 0.14131 0.0
N58 N 0.90247 0.71953 0.15938 0.0
C59 C 0.91042 0.74828 0.16238 0.0
C60 C 0.944 0.7479 0.12436 0.0
C61 C 0.92363 0.71925 0.13548 0.0
C62 C 0.9239 0.83791 0.09505 0.0
O63 O 0.94877 0.86251 0.10273 0.0
H64 H 0.89761 0.75636 0.17874 0.0
H65 H 0.96321 0.75501 0.10481 0.0
O66 O 0.96457 0.82485 0.18126 0.0
H67 H 0.05949 0.82915 0.08161 0.0
H68 H 0.92438 0.69978 0.12662 0.0
Cu69 Cu 0.15093 0.21638 0.42742 0.0
N70 N 0.1782 0.20497 0.45199 0.0
N71 N 0.20079 0.18734 0.49245 0.0
C72 C 0.17562 0.19218 0.48517 0.0
C73 C 0.21965 0.19741 0.46273 0.0
C74 C 0.20573 0.2082 0.43803 0.0
O75 O 0.11348 0.20717 0.45678 0.0
C76 C 0.1626 0.20868 0.35591 0.0
O77 O 0.18774 0.23395 0.36039 0.0
H78 H 0.15597 0.18678 0.50365 0.0
H79 H 0.21503 0.21764 0.41153 0.0
N80 N 0.17177 0.25734 0.42001 0.0
N81 N 0.18279 0.30362 0.40361 0.0
C82 C 0.16242 0.27477 0.40069 0.0
C83 C 0.19889 0.27573 0.43546 0.0
C84 C 0.20576 0.30421 0.4254 0.0
C85 C 0.09557 0.18252 0.47277 0.0
O86 O 0.10043 0.15972 0.46766 0.0
H87 H 0.14076 0.26649 0.38563 0.0
H88 H 0.2125 0.26887 0.45325 0.0
O89 O 0.14198 0.19744 0.3814 0.0
H90 H 0.24167 0.19644 0.45869 0.0
H91 H 0.22619 0.32386 0.43347 0.0
Cu92 Cu 0.83591 0.97129 0.42085 0.0
N93 N 0.84357 1.00025 0.45393 0.0
N94 N 0.85851 0.02725 0.50259 0.0
C95 C 0.85642 1.00319 0.48682 0.0
C96 C 0.84645 0.03981 0.47872 0.0
C97 C 0.83737 0.0232 0.44885 0.0
O98 O 0.84506 0.94093 0.44243 0.0
C99 C 0.85236 0.97558 0.34698 0.0
O100 O 0.83207 0.94741 0.34882 0.0
H101 H 0.86388 0.98796 0.49911 0.0
H102 H 0.82733 0.02776 0.4248 0.0
N103 N 0.7928 0.95241 0.41039 0.0
N104 N 0.74537 0.91599 0.39671 0.0
C105 C 0.77449 0.9231 0.40975 0.0
C106 C 0.77478 0.96446 0.39755 0.0
C107 C 0.74553 0.94211 0.3892 0.0
C108 C 0.87049 0.94439 0.4575 0.0
O109 O 0.89533 0.97053 0.45616 0.0
H110 H 0.78295 0.90747 0.4177 0.0
H111 H 0.78279 0.98781 0.39305 0.0
O112 O 0.859 0.98963 0.37574 0.0
H113 H 0.84514 0.06007 0.48213 0.0
H114 H 0.72653 0.94509 0.37688 0.0
Cu115 Cu 0.07942 0.87809 0.42885 0.0
N116 N 0.05211 0.87685 0.39168 0.0
N117 N 0.0252 0.86591 0.34026 0.0
C118 C 0.04664 0.86223 0.36112 0.0
C119 C 1.01702 0.8836 0.35863 0.0
C120 C 0.03358 0.89025 0.3902 0.0
O121 O 0.10185 0.85606 0.41528 0.0
C122 C 0.02794 0.84583 0.48034 0.0
O123 O 1.01312 0.82882 0.45404 0.0
H124 H 0.05841 0.84935 0.35431 0.0
H125 H 0.03205 0.90374 0.41083 0.0
N126 N 0.11049 0.91673 0.43392 0.0
N127 N 0.14436 0.95623 0.46226 0.0
C128 C 0.11635 0.9315 0.46429 0.0
C129 C 0.13552 0.93276 0.4118 0.0
C130 C 0.15655 0.95714 0.42929 0.0
C131 C 0.1266 0.85816 0.43107 0.0
O132 O 0.13506 0.87232 0.46087 0.0
H133 H 0.10167 0.92306 0.48843 0.0
H134 H 0.1392 0.92611 0.38583 0.0
O135 O 0.05625 0.86607 0.47504 0.0
H136 H 0.99983 0.89083 0.35031 0.0
H137 H 0.17964 0.9735 0.41925 0.0
Cu138 Cu 0.81369 0.87126 0.89588 0.0
N139 N 0.82665 0.84936 0.92733 0.0
N140 N 0.84746 0.83567 0.97405 0.0
C141 C 0.84116 0.8569 0.95916 0.0
C142 C 0.83614 0.81383 0.95081 0.0
C143 C 0.82334 0.82231 0.92216 0.0
O144 O 0.8224 0.90813 0.91766 0.0
C145 C 0.85598 0.87141 0.83955 0.0
O146 O 0.8742 0.87061 0.86565 0.0
H147 H 0.84675 0.87737 0.97141 0.0
H148 H 0.81273 0.80983 0.89885 0.0
N149 N 0.76935 0.85137 0.89319 0.0
N150 N 0.71962 0.83992 0.8774 0.0
C151 C 0.75075 0.85473 0.86784 0.0
C152 C 0.74932 0.83377 0.91943 0.0
C153 C 0.71872 0.82667 0.9098 0.0
C154 C 0.84789 0.92613 0.93215 0.0
O155 O 0.87389 0.92358 0.92757 0.0
H156 H 0.75992 0.8688 0.8437 0.0
H157 H 0.75659 0.82737 0.94441 0.0
O158 O 0.83114 0.8739 0.84717 0.0
H159 H 0.83777 0.79348 0.95375 0.0
H160 H 0.69744 0.81304 0.92562 0.0
Cu161 Cu 0.15715 0.94 0.89959 0.0
N162 N 0.18166 0.97069 0.92922 0.0
N163 N 0.19582 1.00132 0.97419 0.0
C164 C 0.17259 0.97696 0.96057 0.0
C165 C 0.22042 0.01082 0.95064 0.0
C166 C 0.21151 0.99206 0.92275 0.0
O167 O 0.11979 0.91188 0.92674 0.0
C168 C 0.15166 0.98204 0.85084 0.0
O169 O 0.15744 0.99809 0.87902 0.0
H170 H 0.14948 0.96406 0.97319 0.0
H171 H 0.2255 0.99441 0.89886 0.0
N172 N 0.17942 0.91936 0.88784 0.0
N173 N 0.18892 0.88239 0.87233 0.0
C174 C 0.16656 0.89105 0.8788 0.0
C175 C 0.21097 0.92897 0.88701 0.0
C176 C 0.21689 0.90631 0.87748 0.0
C177 C 0.09781 0.91644 0.93969 0.0
O178 O 0.09748 0.94153 0.93182 0.0
H179 H 0.14126 0.87701 0.87761 0.0
H180 H 0.22858 0.95084 0.89299 0.0
O181 O 0.14845 0.95596 0.85477 0.0
H182 H 0.24281 0.03047 0.95288 0.0
H183 H 0.24009 0.90755 0.87423 0.0
Cu184 Cu 0.07641 0.19246 0.9169 0.0
N185 N 0.03903 0.18284 0.94287 0.0
N186 N 0.99863 0.16359 0.98281 0.0
C187 C 0.02681 0.16528 0.9728 0.0
C188 C 0.99306 0.18058 0.95794 0.0
C189 C 1.0179 0.19235 0.93353 0.0
O190 O 0.10244 0.17809 0.94371 0.0
C191 C 0.03741 0.15673 0.86176 0.0
O192 O 1.01808 0.14169 0.88867 0.0
H193 H 0.03834 0.15401 0.98677 0.0
H194 H 0.0203 0.20656 0.91015 0.0
N195 N 0.09895 0.23359 0.91286 0.0
N196 N 0.13482 0.2798 0.89708 0.0
C197 C 0.12467 0.25084 0.89209 0.0
C198 C 0.09264 0.25219 0.93151 0.0
C199 C 0.11456 0.28058 0.92184 0.0
C200 C 0.11062 0.18763 0.97505 0.0
O201 O 0.10084 0.20579 0.98718 0.0
H202 H 0.13594 0.24224 0.87423 0.0
H203 H 0.0735 0.24557 0.95105 0.0
O204 O 0.06462 0.1778 0.86842 0.0
H205 H 0.97207 0.18369 0.95667 0.0
H206 H 0.11522 0.30026 0.93208 0.0
Cu207 Cu 0.88933 0.81483 0.639 0.0
N208 N 0.8679 0.82828 0.60666 0.0
N209 N 0.85882 0.85404 0.56206 0.0
C210 C 0.88102 0.85027 0.58112 0.0
C211 C 0.83071 0.83372 0.57631 0.0
C212 C 0.83636 0.81796 0.60368 0.0
O213 O 0.92747 0.81961 0.61335 0.0
C214 C 0.86903 0.8322 0.6994 0.0
O215 O 0.84201 0.81651 0.68379 0.0
H216 H 0.90629 0.86304 0.57636 0.0
H217 H 0.81857 0.80027 0.62037 0.0
N218 N 0.86557 0.77407 0.6483 0.0
N219 N 0.85295 0.72813 0.66889 0.0
C220 C 0.87243 0.75722 0.67195 0.0
C221 C 0.84105 0.75502 0.62955 0.0
C222 C 0.83307 0.72682 0.64232 0.0
C223 C 0.95227 0.8432 0.60397 0.0
O224 O 0.95632 0.86833 0.61609 0.0
H225 H 0.89235 0.76614 0.68974 0.0
H226 H 0.83052 0.761 0.60702 0.0
O227 O 0.89449 0.83465 0.68467 0.0
H228 H 0.80764 0.8308 0.5681 0.0
H229 H 0.81441 0.7069 0.63217 0.0
Cu230 Cu 0.22159 0.0816 0.65873 0.0
N231 N 0.21853 0.0519 0.62906 0.0
N232 N 0.20491 0.0216 0.58376 0.0
C233 C 0.20149 0.04339 0.59899 0.0
C234 C 0.22462 0.01604 0.60512 0.0
C235 C 0.23274 0.03456 0.63323 0.0
O236 O 0.2075 0.10648 0.63095 0.0
C237 C 0.1773 0.03691 0.70758 0.0
O238 O 0.16903 0.02061 0.6795 0.0
H239 H 0.18709 0.05312 0.58833 0.0
H240 H 0.24785 0.03528 0.65528 0.0
N241 N 0.26425 0.1049 0.6703 0.0
N242 N 0.30867 0.14223 0.68932 0.0
C243 C 0.27659 0.1291 0.68991 0.0
C244 C 0.28938 0.10269 0.65719 0.0
C245 C 0.31668 0.12556 0.66886 0.0
C246 C 0.2263 0.12216 0.60537 0.0
O247 O 0.25266 0.12036 0.60022 0.0
H248 H 0.26243 0.13762 0.70292 0.0
H249 H 0.28813 0.08636 0.63908 0.0
O250 O 0.1977 0.06397 0.70361 0.0
H251 H 0.23208 0.99936 0.60106 0.0
H252 H 0.34066 0.12987 0.66226 0.0
Cu253 Cu 0.94356 0.1406 0.6641 0.0
N254 N 0.97688 0.16466 0.63212 0.0
N255 N 1.01269 0.17994 0.58687 0.0
C256 C 0.98844 0.15663 0.604 0.0
C257 C 1.01636 0.20354 0.60487 0.0
C258 C 0.99428 0.19406 0.63266 0.0
O259 O 0.91646 0.10485 0.63986 0.0
C260 C 0.98979 0.14477 0.71638 0.0
O261 O 1.00996 0.15633 0.68919 0.0
H262 H 0.9791 0.13423 0.59598 0.0
H263 H 0.99124 0.20759 0.65218 0.0
N264 N 0.91804 0.15916 0.67014 0.0
N265 N 0.87925 0.16913 0.6881 0.0
C266 C 0.89672 0.15511 0.69653 0.0
C267 C 0.91391 0.17633 0.64451 0.0
C268 C 0.89015 0.18253 0.65547 0.0
C269 C 0.92365 0.08579 0.62784 0.0
O270 O 0.95086 0.0866 0.63633 0.0
H271 H 0.89302 0.14109 0.72049 0.0
H272 H 0.92652 0.18291 0.61891 0.0
O273 O 0.96016 0.13519 0.7109 0.0
H274 H 0.03417 0.22602 0.59895 0.0
H275 H 0.88123 0.19558 0.64035 0.0
Cu276 Cu 0.87555 0.47196 0.47437 0.0
N277 N 0.84999 0.4739 0.51153 0.0
N278 N 0.83505 0.48495 0.56348 0.0
C279 C 0.85969 0.48782 0.54249 0.0
C280 C 0.80889 0.46851 0.54478 0.0
C281 C 0.81817 0.46178 0.51287 0.0
O282 O 0.91993 0.49354 0.48809 0.0
C283 C 0.85606 0.50375 0.42186 0.0
O284 O 0.8576 0.52081 0.44784 0.0
H285 H 0.88439 0.49957 0.54951 0.0
H286 H 0.8028 0.44908 0.49197 0.0
N287 N 0.86763 0.43314 0.46981 0.0
N288 N 0.86374 0.39379 0.44243 0.0
C289 C 0.86238 0.41947 0.43867 0.0
C290 C 0.87227 0.41547 0.49424 0.0
C291 C 0.86993 0.39113 0.47739 0.0
C292 C 0.94228 0.49042 0.47325 0.0
O293 O 0.9365 0.47563 0.44395 0.0
H294 H 0.86001 0.42922 0.41322 0.0
H295 H 0.87876 0.42076 0.52179 0.0
O296 O 0.86453 0.48376 0.4278 0.0
H297 H 0.78472 0.46218 0.55312 0.0
H298 H 0.87366 0.37344 0.48956 0.0
Cu299 Cu 0.53809 0.37954 0.47398 0.0
N300 N 0.5175 0.3485 0.44314 0.0
N301 N 0.5054 0.32062 0.39527 0.0
C302 C 0.5272 0.34513 0.41036 0.0
C303 C 0.48115 0.30817 0.41943 0.0
C304 C 0.48867 0.32533 0.44879 0.0
O305 O 0.57743 0.40886 0.45175 0.0
C306 C 0.52004 0.3532 0.54301 0.0
O307 O 0.49243 0.34953 0.53136 0.0
H308 H 0.54937 0.36062 0.39741 0.0
H309 H 0.4739 0.32129 0.47247 0.0
N310 N 0.51406 0.39944 0.47969 0.0
N311 N 0.50237 0.43517 0.49458 0.0
C312 C 0.52438 0.42542 0.49506 0.0
C313 C 0.48449 0.39236 0.46895 0.0
C314 C 0.47719 0.41436 0.47812 0.0
C315 C 0.59973 0.40505 0.43831 0.0
O316 O 0.5986 0.37895 0.44124 0.0
H317 H 0.54796 0.43721 0.5056 0.0
H318 H 0.46938 0.37271 0.45524 0.0
O319 O 0.54409 0.36552 0.52174 0.0
H320 H 0.45961 0.28788 0.4163 0.0
H321 H 0.455 0.41484 0.47317 0.0
Cu322 Cu 0.61536 0.14174 0.46813 0.0
N323 N 0.65398 0.16071 0.44229 0.0
N324 N 0.68987 0.18391 0.39808 0.0
C325 C 0.65951 0.16411 0.40638 0.0
C326 C 0.70392 0.19297 0.42973 0.0
C327 C 0.68183 0.17869 0.45682 0.0
O328 O 0.58344 0.1483 0.44218 0.0
C329 C 0.63879 0.14763 0.53728 0.0
O330 O 0.64766 0.12884 0.52513 0.0
H331 H 0.64132 0.15376 0.3868 0.0
H332 H 0.6855 0.18237 0.48513 0.0
N333 N 0.59996 0.10096 0.47212 0.0
N334 N 0.56807 0.05398 0.48949 0.0
C335 C 0.57457 0.08238 0.49237 0.0
C336 C 0.61002 0.08388 0.45568 0.0
C337 C 0.59036 0.05484 0.46633 0.0
C338 C 0.5889 0.172 0.42442 0.0
O339 O 0.61679 0.19512 0.4265 0.0
H340 H 0.56079 0.08967 0.50833 0.0
H341 H 0.63009 0.09196 0.43716 0.0
O342 O 0.62299 0.15637 0.51672 0.0
H343 H 0.72829 0.20934 0.43296 0.0
H344 H 0.59252 0.03593 0.45786 0.0
Cu345 Cu 0.82527 0.54391 0.77037 0.0
N346 N 0.84891 0.53075 0.79958 0.0
N347 N 0.86309 0.50825 0.84364 0.0
C348 C 0.83943 0.51294 0.82971 0.0
C349 C 0.88836 0.52374 0.82144 0.0
C350 C 0.87955 0.53749 0.7944 0.0
O351 O 0.7868 0.5368 0.79668 0.0
C352 C 0.84169 0.53505 0.70135 0.0
O353 O 0.86878 0.55693 0.71022 0.0
H354 H 0.81587 0.50391 0.84152 0.0
H355 H 0.8945 0.55147 0.77244 0.0
N356 N 0.84774 0.58485 0.7626 0.0
N357 N 0.85963 0.63084 0.74326 0.0
C358 C 0.83962 0.60184 0.74074 0.0
C359 C 0.87373 0.60367 0.77957 0.0
C360 C 0.88116 0.63201 0.76767 0.0
C361 C 0.76532 0.51205 0.80907 0.0
O362 O 0.76628 0.48783 0.80082 0.0
H363 H 0.81886 0.59307 0.72418 0.0
H364 H 0.88609 0.59728 0.79969 0.0
O365 O 0.81839 0.52551 0.72381 0.0
H366 H 0.91145 0.52461 0.82409 0.0
H367 H 0.90089 0.65189 0.77639 0.0
Cu368 Cu 0.49231 0.30182 0.76358 0.0
N369 N 0.50945 0.33524 0.79116 0.0
N370 N 0.53064 0.36411 0.83731 0.0
C371 C 0.51095 0.33661 0.82732 0.0
C372 C 0.54155 0.38059 0.80643 0.0
C373 C 0.52841 0.3628 0.77811 0.0
O374 O 0.50652 0.27385 0.78108 0.0
C375 C 0.52677 0.32392 0.69416 0.0
O376 O 0.55373 0.33071 0.71019 0.0
H377 H 0.49964 0.31757 0.84578 0.0
H378 H 0.5336 0.36918 0.7499 0.0
N379 N 0.44821 0.28116 0.76708 0.0
N380 N 0.39998 0.24607 0.75359 0.0
C381 C 0.43147 0.25834 0.74659 0.0
C382 C 0.42671 0.28359 0.7882 0.0
C383 C 0.39683 0.26186 0.77996 0.0
C384 C 0.53103 0.27987 0.79966 0.0
O385 O 0.55159 0.30751 0.80364 0.0
H386 H 0.44256 0.25058 0.72736 0.0
H387 H 0.43233 0.29983 0.80819 0.0
O388 O 0.50091 0.31235 0.71244 0.0
H389 H 0.55852 0.40372 0.80451 0.0
H390 H 0.37462 0.25816 0.79227 0.0
Cu391 Cu 0.73779 0.20549 0.76381 0.0
N392 N 0.71379 0.20806 0.72514 0.0
N393 N 0.68754 0.1984 0.67331 0.0
C394 C 0.70254 0.18948 0.69819 0.0
C395 C 0.68947 0.22361 0.68545 0.0
C396 C 0.70564 0.22948 0.71728 0.0
O397 O 0.75984 0.18376 0.74849 0.0
C398 C 0.69906 0.20261 0.82242 0.0
O399 O 0.70651 0.22942 0.80992 0.0
H400 H 0.70563 0.16993 0.69694 0.0
H401 H 0.71166 0.2484 0.73319 0.0
N402 N 0.7695 0.24303 0.77336 0.0
N403 N 0.80596 0.28025 0.80275 0.0
C404 C 0.77921 0.25439 0.80567 0.0
C405 C 0.79087 0.26237 0.74933 0.0
C406 C 0.81352 0.28535 0.76742 0.0
C407 C 0.78351 0.18409 0.76498 0.0
O408 O 0.79085 0.19605 0.79629 0.0
H409 H 0.76806 0.24314 0.83095 0.0
H410 H 0.79075 0.25923 0.72081 0.0
O411 O 0.7101 0.18776 0.80627 0.0
H412 H 0.68075 0.23745 0.67188 0.0
H413 H 0.83432 0.30397 0.75572 0.0
Cu414 Cu 0.47178 0.20648 0.23486 0.0
N415 N 0.4835 0.18346 0.26582 0.0
N416 N 0.50567 0.16949 0.31081 0.0
C417 C 0.5012 0.19165 0.2955 0.0
C418 C 0.48988 0.14638 0.2901 0.0
C419 C 0.47628 0.15507 0.26243 0.0
O420 O 0.48246 0.24347 0.25719 0.0
C421 C 0.51418 0.20667 0.17943 0.0
O422 O 0.53237 0.20649 0.2059 0.0
H423 H 0.51048 0.21333 0.30589 0.0
H424 H 0.46246 0.14177 0.24098 0.0
N425 N 0.4275 0.18815 0.23221 0.0
N426 N 0.37832 0.17721 0.2149 0.0
C427 C 0.40939 0.18983 0.20511 0.0
C428 C 0.40721 0.1739 0.25981 0.0
C429 C 0.37693 0.16713 0.24926 0.0
C430 C 0.50906 0.2617 0.2693 0.0
O431 O 0.53463 0.25921 0.26154 0.0
H432 H 0.41892 0.20117 0.17938 0.0
H433 H 0.41415 0.16963 0.28619 0.0
O434 O 0.48908 0.20884 0.18643 0.0
H435 H 0.48899 0.12497 0.294 0.0
H436 H 0.35554 0.15587 0.26571 0.0
Cu437 Cu 0.82781 0.27182 0.24526 0.0
N438 N 0.85316 0.29833 0.27868 0.0
N439 N 0.8672 0.3272 0.32544 0.0
C440 C 0.84325 0.31009 0.30432 0.0
C441 C 0.89319 0.32628 0.31247 0.0
C442 C 0.88448 0.30857 0.28349 0.0
O443 O 0.78502 0.25519 0.26594 0.0
C444 C 0.81547 0.28883 0.17393 0.0
O445 O 0.7879 0.26509 0.17656 0.0
H446 H 0.81882 0.30562 0.30792 0.0
H447 H 0.89979 0.30318 0.26735 0.0
N448 N 0.8406 0.24236 0.2427 0.0
N449 N 0.8472 0.20388 0.22676 0.0
C450 C 0.83584 0.223 0.21708 0.0
C451 C 0.85521 0.23511 0.26932 0.0
C452 C 0.85942 0.21161 0.25959 0.0
C453 C 0.76579 0.22781 0.26964 0.0
O454 O 0.77173 0.20894 0.25268 0.0
H455 H 0.82386 0.22265 0.19226 0.0
H456 H 0.86154 0.24566 0.29463 0.0
O457 O 0.83468 0.29454 0.19972 0.0
H458 H 0.91682 0.33775 0.32301 0.0
H459 H 0.86956 0.20034 0.27613 0.0
Cu460 Cu 0.75023 0.53319 0.25875 0.0
N461 N 0.71478 0.51947 0.28987 0.0
N462 N 0.67948 0.49395 0.33385 0.0
C463 C 0.70593 0.49788 0.31591 0.0
C464 C 0.67132 0.5137 0.31835 0.0
C465 C 0.69302 0.52932 0.29133 0.0
O466 O 0.78331 0.52862 0.28559 0.0
C467 C 0.71451 0.51733 0.1969 0.0
O468 O 0.70452 0.53458 0.21115 0.0
H469 H 0.7188 0.48555 0.3219 0.0
H470 H 0.69283 0.5467 0.274 0.0
N471 N 0.76658 0.57391 0.25002 0.0
N472 N 0.79922 0.62023 0.23052 0.0
C473 C 0.79043 0.59133 0.22699 0.0
C474 C 0.76018 0.59239 0.26883 0.0
C475 C 0.77998 0.62083 0.25671 0.0
C476 C 0.78459 0.50515 0.29575 0.0
O477 O 0.76386 0.47986 0.2837 0.0
H478 H 0.8021 0.58296 0.20935 0.0
H479 H 0.7433 0.58587 0.29097 0.0
O480 O 0.73631 0.51355 0.21286 0.0
H481 H 0.65077 0.51635 0.32556 0.0
H482 H 0.7805 0.64042 0.26705 0.0
Cu483 Cu 0.55574 0.15422 0.98046 0.0
N484 N 0.53331 0.16605 0.94791 0.0
N485 N 0.52379 0.19067 0.90251 0.0
C486 C 0.54616 0.18829 0.92273 0.0
C487 C 0.49582 0.16922 0.91561 0.0
C488 C 0.50175 0.15414 0.94357 0.0
O489 O 0.5977 0.16815 0.95766 0.0
C490 C 0.53012 0.16724 0.04079 0.0
O491 O 0.50386 0.15082 1.02425 0.0
H492 H 0.57144 0.20218 0.91906 0.0
H493 H 0.48416 0.13569 0.95952 0.0
N494 N 0.53553 0.11298 0.98627 0.0
N495 N 0.52447 0.06684 1.00404 0.0
C496 C 0.54261 0.09586 1.00925 0.0
C497 C 0.51222 0.09418 0.96592 0.0
C498 C 0.50524 0.06587 0.97689 0.0
C499 C 0.60254 0.1526 0.93502 0.0
O500 O 0.58025 0.12575 0.93035 0.0
H501 H 0.56145 0.10461 1.02843 0.0
H502 H 0.5017 0.10049 0.9437 0.0
O503 O 0.55651 0.17146 1.02686 0.0
H504 H 0.47266 0.16504 0.90611 0.0
H505 H 0.48747 0.04615 0.96537 0.0
Cu506 Cu 0.90177 0.40582 0.99449 0.0
N507 N 0.89602 0.37614 0.96341 0.0
N508 N 0.87815 0.34492 0.91919 0.0
C509 C 0.87627 0.36701 0.93552 0.0
C510 C 0.89979 0.33984 0.93737 0.0
C511 C 0.91053 0.35894 0.96489 0.0
O512 O 0.88928 0.43328 0.9704 0.0
C513 C 0.85467 0.36315 0.04237 0.0
O514 O 0.84004 0.35216 1.0126 0.0
H515 H 0.86094 0.37637 0.92713 0.0
H516 H 0.92761 0.36012 0.98478 0.0
N517 N 0.94521 0.42848 1.0021 0.0
N518 N 0.99075 0.46646 1.01756 0.0
C519 C 0.95885 0.45226 1.02222 0.0
C520 C 0.96931 0.42768 0.98413 0.0
C521 C 0.99736 0.45092 0.99371 0.0
C522 C 0.86251 0.42887 0.95816 0.0
O523 O 0.83745 0.4034 0.96498 0.0
H524 H 0.94547 0.45987 0.03838 0.0
H525 H 0.96668 0.41216 0.96412 0.0
O526 O 0.88039 0.3873 0.04045 0.0
H527 H 0.90673 0.32308 0.93163 0.0
H528 H 0.02074 0.45628 0.98331 0.0
Cu529 Cu 0.61658 0.4708 1.00222 0.0
N530 N 0.65033 0.49621 0.97185 0.0
N531 N 0.68596 0.5115 0.92633 0.0
C532 C 0.66147 0.48828 0.94332 0.0
C533 C 0.69026 0.53497 0.94514 0.0
C534 C 0.66826 0.52546 0.97313 0.0
O535 O 0.59901 0.43332 0.97857 0.0
C536 C 0.6599 0.47429 0.0587 0.0
O537 O 0.6784 0.47411 1.03268 0.0
H538 H 0.65156 0.46587 0.93515 0.0
H539 H 0.6656 0.53887 0.99311 0.0
N540 N 0.58588 0.48417 1.00239 0.0
N541 N 0.5467 0.49418 1.01891 0.0
C542 C 0.56825 0.48536 1.03007 0.0
C543 C 0.57531 0.4927 0.97294 0.0
C544 C 0.55122 0.49885 0.98297 0.0
C545 C 0.56964 0.41752 0.9725 0.0
O546 O 0.54846 0.42216 0.98983 0.0
H547 H 0.57059 0.47913 0.05762 0.0
H548 H 0.58421 0.49386 0.94591 0.0
O549 O 0.63231 0.47122 0.05119 0.0
H550 H 0.70835 0.55738 0.9396 0.0
H551 H 0.53819 0.50637 0.96513 0.0
Cu552 Cu 0.54065 0.80715 0.80345 0.0
N553 N 0.51432 0.80829 0.84017 0.0
N554 N 0.49842 0.8203 0.8907 0.0
C555 C 0.52332 0.8252 0.86887 0.0
C556 C 0.47281 0.79942 0.87494 0.0
C557 C 0.48267 0.79211 0.84385 0.0
O558 O 0.58453 0.82622 0.81945 0.0
C559 C 0.52016 0.83928 0.75289 0.0
O560 O 0.51623 0.85224 0.78066 0.0
H561 H 0.54778 0.84044 0.87386 0.0
H562 H 0.46784 0.77609 0.82521 0.0
N563 N 0.53075 0.76837 0.79516 0.0
N564 N 0.52664 0.73055 0.76409 0.0
C565 C 0.53489 0.75951 0.76311 0.0
C566 C 0.51927 0.7442 0.81744 0.0
C567 C 0.5166 0.72071 0.79825 0.0
C568 C 0.60771 0.82595 0.8026 0.0
O569 O 0.60329 0.8157 0.77029 0.0
H570 H 0.54362 0.77418 0.73942 0.0
H571 H 0.51348 0.74374 0.84559 0.0
O572 O 0.53242 0.82196 0.75735 0.0
H573 H 0.44858 0.79027 0.88487 0.0
H574 H 0.50848 0.69834 0.80881 0.0
Cu575 Cu 0.20661 0.714 0.80771 0.0
N576 N 0.18546 0.68432 0.77544 0.0
N577 N 0.1739 0.65575 0.72828 0.0
C578 C 0.1955 0.68053 0.74309 0.0
C579 C 0.14944 0.64358 0.75222 0.0
C580 C 0.15669 0.66112 0.78121 0.0
O581 O 0.24565 0.74415 0.78533 0.0
C582 C 0.21748 0.70931 0.88234 0.0
O583 O 0.22364 0.73707 0.88136 0.0
H584 H 0.21811 0.69554 0.73064 0.0
H585 H 0.14227 0.65689 0.80528 0.0
N586 N 0.18245 0.73329 0.81712 0.0
N587 N 0.17141 0.76956 0.83155 0.0
C588 C 0.1944 0.76189 0.82447 0.0
C589 C 0.15074 0.72244 0.81936 0.0
C590 C 0.14386 0.74478 0.82817 0.0
C591 C 0.26798 0.74091 0.77091 0.0
O592 O 0.26769 0.71516 0.77379 0.0
H593 H 0.21957 0.77671 0.82473 0.0
H594 H 0.1338 0.69983 0.81542 0.0
O595 O 0.21171 0.69598 0.85307 0.0
H596 H 0.12827 0.6229 0.74958 0.0
H597 H 0.12041 0.74269 0.83267 0.0
Cu598 Cu 0.28962 0.46784 0.80638 0.0
N599 N 0.32895 0.48196 0.78261 0.0
N600 N 0.36906 0.5008 0.74226 0.0
C601 C 0.33823 0.49347 0.74877 0.0
C602 C 0.37936 0.49369 0.77313 0.0
C603 C 0.35471 0.48214 0.79776 0.0
O604 O 0.26018 0.47618 0.77755 0.0
C605 C 0.30668 0.47235 0.8791 0.0
O606 O 0.30886 0.44839 0.8725 0.0
H607 H 0.32271 0.49608 0.72928 0.0
H608 H 0.35557 0.47449 0.82501 0.0
N609 N 0.27154 0.42682 0.81137 0.0
N610 N 0.23856 0.38003 0.82818 0.0
C611 C 0.24594 0.40861 0.83163 0.0
C612 C 0.28066 0.40926 0.79444 0.0
C613 C 0.26036 0.38039 0.80473 0.0
C614 C 0.26579 0.50036 0.76088 0.0
O615 O 0.29322 0.52366 0.76475 0.0
H616 H 0.23274 0.41622 0.84808 0.0
H617 H 0.30059 0.41695 0.77578 0.0
O618 O 0.29736 0.4843 0.85417 0.0
H619 H 0.40326 0.49713 0.77788 0.0
H620 H 0.26177 0.3612 0.7959 0.0
Cu621 Cu 0.49357 0.87993 0.09763 0.0
N622 N 0.51966 0.86629 0.12059 0.0
N623 N 0.542 0.84762 0.16 0.0
C624 C 0.51816 0.8547 0.15426 0.0
C625 C 0.55888 0.85501 0.12883 0.0
C626 C 0.54513 0.86647 0.10477 0.0
O627 O 0.4562 0.87125 0.12725 0.0
C628 C 0.50499 0.87532 1.02457 0.0
O629 O 0.53096 0.89951 1.03063 0.0
H630 H 0.50028 0.8518 0.17415 0.0
H631 H 0.55311 0.87424 0.07743 0.0
N632 N 0.51578 0.92096 0.09258 0.0
N633 N 0.52863 0.96757 0.07565 0.0
C634 C 0.50817 0.93887 0.07185 0.0
C635 C 0.54184 0.93885 0.1102 0.0
C636 C 0.54982 0.96762 0.09983 0.0
C637 C 0.43834 0.84714 0.14444 0.0
O638 O 0.44295 0.82404 0.14064 0.0
H639 H 0.48771 0.93096 0.05481 0.0
H640 H 0.55402 0.93146 0.12942 0.0
O641 O 0.48427 0.86333 0.04992 0.0
H642 H 0.57939 0.85179 0.12344 0.0
H643 H 0.56984 0.98703 0.10911 0.0
Cu644 Cu 0.17063 0.636 0.09499 0.0
N645 N 0.17691 0.66468 0.12795 0.0
N646 N 0.19329 0.69256 0.17585 0.0
C647 C 0.19411 0.67042 0.15814 0.0
C648 C 0.17491 0.701 0.15578 0.0
C649 C 0.16492 0.68384 0.12638 0.0
O650 O 0.19306 0.6151 0.11441 0.0
C651 C 0.18993 0.64393 1.02019 0.0
O652 O 0.18253 0.61585 1.02232 0.0
H653 H 0.20672 0.6584 0.16703 0.0
H654 H 0.15001 0.68525 0.10523 0.0
N655 N 0.12696 0.6106 0.09282 0.0
N656 N 0.0803 0.57316 0.07879 0.0
C657 C 0.11164 0.58865 0.07041 0.0
C658 C 0.10449 0.60932 0.11573 0.0
C659 C 0.07579 0.58639 0.10717 0.0
C660 C 0.18196 0.58727 0.11854 0.0
O661 O 0.15487 0.56998 0.10412 0.0
H662 H 0.12362 0.5833 0.04959 0.0
H663 H 0.10882 0.62363 0.13775 0.0
O664 O 0.18712 0.65606 0.04811 0.0
H665 H 0.16954 0.71875 0.16143 0.0
H666 H 0.05348 0.57985 0.12122 0.0
Cu667 Cu 0.41167 0.53924 0.09994 0.0
N668 N 0.38362 0.53806 0.06382 0.0
N669 N 0.35535 0.52629 1.01349 0.0
C670 C 0.37578 0.52149 0.03482 0.0
C671 C 0.35026 0.54674 1.02988 0.0
C672 C 0.36767 0.55391 0.06086 0.0
O673 O 0.43447 0.51807 0.08448 0.0
C674 C 0.36084 0.50848 0.15333 0.0
O675 O 0.34301 0.49316 0.12735 0.0
H676 H 0.38537 0.5066 1.02924 0.0
H677 H 0.36871 0.56963 0.07988 0.0
N678 N 0.44155 0.57799 0.10676 0.0
N679 N 0.47533 0.61625 0.13712 0.0
C680 C 0.4545 0.58735 0.1387 0.0
C681 C 0.45435 0.6018 0.08389 0.0
C682 C 0.47524 0.62557 0.10265 0.0
C683 C 0.45987 0.5204 0.09878 0.0
O684 O 0.46967 0.53495 0.12816 0.0
H685 H 0.44832 0.57313 0.16283 0.0
H686 H 0.44888 0.60188 0.05572 0.0
O687 O 0.38988 0.52638 0.14675 0.0
H688 H 0.33481 0.5557 1.02044 0.0
H689 H 0.48948 0.64779 0.09167 0.0
Cu690 Cu 0.14646 0.53654 0.57415 0.0
N691 N 0.15791 0.51358 0.60563 0.0
N692 N 0.18094 0.49956 0.64968 0.0
C693 C 0.17767 0.52218 0.63365 0.0
C694 C 0.16237 0.47585 0.63104 0.0
C695 C 0.14828 0.48456 0.60398 0.0
O696 O 0.15529 0.57299 0.59682 0.0
C697 C 0.19077 0.5371 0.52096 0.0
O698 O 0.2068 0.53457 0.54846 0.0
H699 H 0.18929 0.54448 0.64228 0.0
H700 H 0.13241 0.4708 0.5841 0.0
N701 N 0.10221 0.51748 0.56956 0.0
N702 N 0.05319 0.50682 0.55165 0.0
C703 C 0.0845 0.52038 0.54272 0.0
C704 C 0.08138 0.50147 0.59604 0.0
C705 C 0.05123 0.49487 0.58512 0.0
C706 C 0.18142 0.59255 0.60833 0.0
O707 O 0.20791 0.59164 0.6007 0.0
H708 H 0.09444 0.53332 0.51797 0.0
H709 H 0.08783 0.49595 0.62207 0.0
O710 O 0.16605 0.54029 0.52663 0.0
H711 H 0.15977 0.45387 0.63593 0.0
H712 H 0.02954 0.48254 0.6008 0.0
Cu713 Cu 0.4898 0.60463 0.57169 0.0
N714 N 0.51594 0.63554 0.59995 0.0
N715 N 0.53187 0.66757 0.64357 0.0
C716 C 0.50796 0.64292 0.63117 0.0
C717 C 0.55577 0.67586 0.6191 0.0
C718 C 0.54582 0.65617 0.59223 0.0
O719 O 0.45187 0.57924 0.60051 0.0
C720 C 0.48622 0.64714 0.52205 0.0
O721 O 0.49225 0.6634 0.55006 0.0
H722 H 0.48465 0.63105 0.64373 0.0
H723 H 0.55917 0.6572 0.56828 0.0
N724 N 0.51071 0.5826 0.56063 0.0
N725 N 0.51921 0.54518 0.54485 0.0
C726 C 0.49798 0.55579 0.54673 0.0
C727 C 0.54098 0.58917 0.56761 0.0
C728 C 0.54629 0.56624 0.55788 0.0
C729 C 0.45638 0.56459 0.6264 0.0
O730 O 0.48511 0.56759 0.631 0.0
H731 H 0.47336 0.54391 0.5394 0.0
H732 H 0.55788 0.6089 0.57979 0.0
O733 O 0.48196 0.62074 0.52639 0.0
H734 H 0.57877 0.69493 0.62022 0.0
H735 H 0.56841 0.56515 0.56038 0.0
Cu736 Cu 0.41534 0.86663 0.58737 0.0
N737 N 0.37968 0.853 0.61807 0.0
N738 N 0.34433 0.82803 0.66224 0.0
C739 C 0.37211 0.83337 0.64629 0.0
C740 C 0.33407 0.84491 0.64323 0.0
C741 C 0.35582 0.86016 0.616 0.0
O742 O 0.44852 0.86289 0.61482 0.0
C743 C 0.375 0.82883 0.53387 0.0
O744 O 0.35408 0.81741 0.56038 0.0
H745 H 0.38664 0.8232 0.65492 0.0
H746 H 0.35407 0.87501 0.59562 0.0
N747 N 0.43145 0.90724 0.57795 0.0
N748 N 0.46435 0.95351 0.55852 0.0
C749 C 0.45683 0.92472 0.55681 0.0
C750 C 0.42265 0.92555 0.59357 0.0
C751 C 0.44271 0.95398 0.58154 0.0
C752 C 0.45038 0.83976 0.62523 0.0
O753 O 0.43025 0.81424 0.61318 0.0
H754 H 0.47026 0.91653 0.54171 0.0
H755 H 0.40364 0.91889 0.61326 0.0
O756 O 0.4033 0.84799 0.54063 0.0
H757 H 0.31194 0.84552 0.64795 0.0
H758 H 0.44158 0.9735 0.58955 0.0
Cu759 Cu 0.23612 0.49411 0.31867 0.0
N760 N 0.22548 0.5192 0.29045 0.0
N761 N 0.21862 0.54464 0.24407 0.0
C762 C 0.21894 0.51929 0.25518 0.0
C763 C 0.2249 0.56079 0.2733 0.0
C764 C 0.22926 0.54519 0.30164 0.0
O765 O 0.27324 0.49434 0.2959 0.0
C766 C 0.21294 0.50523 0.38002 0.0
O767 O 0.18817 0.4945 0.35923 0.0
H768 H 0.21616 0.50198 0.23773 0.0
H769 H 0.23623 0.55293 0.3283 0.0
N770 N 0.20546 0.45473 0.32013 0.0
N771 N 0.18446 0.40689 0.33688 0.0
C772 C 0.2074 0.43433 0.34243 0.0
C773 C 0.18035 0.43988 0.29946 0.0
C774 C 0.16732 0.41024 0.30974 0.0
C775 C 0.29541 0.51678 0.27963 0.0
O776 O 0.29735 0.54287 0.28361 0.0
H777 H 0.22634 0.43956 0.36133 0.0
H778 H 0.17263 0.44973 0.2779 0.0
O779 O 0.239 0.50693 0.36812 0.0
H780 H 0.22671 0.5826 0.27396 0.0
H781 H 0.14709 0.39259 0.29787 0.0
Cu782 Cu 0.56156 0.74359 0.3292 0.0
N783 N 0.55703 0.71257 0.30125 0.0
N784 N 0.54176 0.68038 0.25781 0.0
C785 C 0.54202 0.70499 0.26981 0.0
C786 C 0.55732 0.67235 0.28277 0.0
C787 C 0.56654 0.69212 0.30951 0.0
O788 O 0.54873 0.76881 0.30026 0.0
C789 C 0.51503 0.70138 0.37841 0.0
O790 O 0.50486 0.68523 0.35031 0.0
H791 H 0.53057 0.71672 0.25675 0.0
H792 H 0.57882 0.69137 0.33367 0.0
N793 N 0.60445 0.76563 0.34032 0.0
N794 N 0.65029 0.80268 0.35698 0.0
C795 C 0.61842 0.792 0.35533 0.0
C796 C 0.6282 0.75947 0.33212 0.0
C797 C 0.65635 0.78213 0.34235 0.0
C798 C 0.56774 0.78371 0.27447 0.0
O799 O 0.59371 0.78112 0.26987 0.0
H800 H 0.60543 0.80321 0.36429 0.0
H801 H 0.6255 0.74036 0.31845 0.0
O802 O 0.5375 0.7276 0.37434 0.0
H803 H 0.5616 0.65342 0.28203 0.0
H804 H 0.6796 0.78375 0.33794 0.0
Cu805 Cu 0.28467 0.81 0.33311 0.0
N806 N 0.31857 0.83332 0.30115 0.0
N807 N 0.35503 0.8476 0.25653 0.0
C808 C 0.33023 0.82471 0.27361 0.0
C809 C 0.35893 0.87154 0.27395 0.0
C810 C 0.33647 0.86268 0.30132 0.0
O811 O 0.25706 0.77401 0.30929 0.0
C812 C 0.33013 0.81425 0.38698 0.0
O813 O 0.35082 0.82541 0.36021 0.0
H814 H 0.32058 0.80222 0.26591 0.0
H815 H 0.33356 0.87662 0.32033 0.0
N816 N 0.25954 0.82919 0.33827 0.0
N817 N 0.22119 0.84012 0.35557 0.0
C818 C 0.23852 0.82606 0.36466 0.0
C819 C 0.25536 0.84584 0.31196 0.0
C820 C 0.23187 0.8526 0.3225 0.0
C821 C 0.26391 0.75476 0.29716 0.0
O822 O 0.29113 0.75543 0.30523 0.0
H823 H 0.23492 0.81264 0.38916 0.0
H824 H 0.26774 0.85168 0.28622 0.0
O825 O 0.30064 0.80488 0.38062 0.0
H826 H 0.37716 0.89383 0.26796 0.0
H827 H 0.223 0.86542 0.3068 0.0
C828 C 0.21941 0.04081 0.05975 0.0
C829 C 0.19286 0.04491 0.06753 0.0
H830 H 0.24122 0.02395 1.02335 0.0
C831 C 0.16692 0.03385 0.04456 0.0
H832 H 0.23983 0.04945 0.07688 0.0
C833 C 0.16747 0.01874 1.0144 0.0
C834 C 0.19436 0.01526 1.00623 0.0
H835 H 0.14628 0.03685 0.05009 0.0
H836 H 0.14731 0.01048 0.99689 0.0
C837 C 0.22031 0.02645 1.02914 0.0
C838 C 0.93084 0.13436 0.04949 0.0
C839 C 0.93153 0.10899 0.06406 0.0
H840 H 0.95215 0.17214 1.01363 0.0
C841 C 0.95653 0.1032 0.05424 0.0
H842 H 0.91205 0.13955 0.05699 0.0
C843 C 0.97933 0.12163 1.0284 0.0
C844 C 0.97764 0.14629 1.01233 0.0
H845 H 0.95745 0.08364 0.06501 0.0
H846 H 0.99735 0.11578 1.01997 0.0
C847 C 0.95374 0.15292 1.02429 0.0
C848 C 0.85925 0.81046 1.0257 0.0
C849 C 0.86447 0.83663 1.0066 0.0
H850 H 0.87331 0.79033 0.06876 0.0
C851 C 0.88767 0.86355 1.01888 0.0
H852 H 0.84123 0.78939 1.01742 0.0
C853 C 0.90616 0.86415 0.04852 0.0
C854 C 0.90175 0.83784 0.06671 0.0
H855 H 0.89247 0.88412 1.00474 0.0
H856 H 0.92457 0.88518 0.05643 0.0
C857 C 0.87755 0.81105 0.05537 0.0
C858 C 0.03512 0.15457 0.54999 0.0
C859 C 0.03158 0.17972 0.55664 0.0
H860 H 0.05794 0.13561 0.51833 0.0
C861 C 0.04769 0.20504 0.53389 0.0
H862 H 0.02329 0.13474 0.56707 0.0
C863 C 0.06759 0.20556 0.506 0.0
C864 C 0.07195 0.18076 0.50008 0.0
H865 H 0.0451 0.22461 0.53773 0.0
H866 H 0.08002 0.22568 0.4895 0.0
C867 C 0.05508 0.15509 0.52205 0.0
C868 C 0.84306 0.89225 0.48221 0.0
C869 C 0.86983 0.92008 0.48127 0.0
H870 H 0.81885 0.8494 0.50813 0.0
C871 C 0.89425 0.92501 0.50557 0.0
H872 H 0.8239 0.88754 0.46372 0.0
C873 C 0.8912 0.90305 0.53137 0.0
C874 C 0.86364 0.87572 0.53341 0.0
H875 H 0.91516 0.94622 0.50564 0.0
H876 H 0.90981 0.90793 0.55063 0.0
C877 C 0.84002 0.87039 0.50792 0.0
C878 C 0.19241 0.98331 0.49742 0.0
C879 C 0.16015 0.97451 0.49152 0.0
H880 H 0.23184 1.00497 0.53195 0.0
C881 C 0.14312 0.98241 0.51576 0.0
H882 H 0.20595 0.97721 0.47936 0.0
C883 C 0.15807 0.9987 0.54546 0.0
C884 C 0.19006 1.00667 0.55194 0.0
H885 H 0.11823 0.97584 0.51173 0.0
H886 H 0.1444 1.00425 0.56402 0.0
C887 C 0.20712 0.99894 0.52757 0.0
C888 C 0.86953 0.97659 1.01059 0.0
C889 C 0.83989 0.97441 1.0203 0.0
H890 H 0.89545 0.96322 0.9751 0.0
C891 C 0.81388 0.9588 0.99843 0.0
H892 H 0.89004 0.98835 1.02687 0.0
C893 C 0.81698 0.94458 0.96866 0.0
C894 C 0.84618 0.94538 0.95999 0.0
H895 H 0.79087 0.95714 1.00469 0.0
H896 H 0.79609 0.93204 0.95322 0.0
C897 C 0.87261 0.96214 0.98087 0.0
C898 C 0.06225 0.85272 1.00892 0.0
C899 C 0.04082 0.8591 1.02782 0.0
H900 H 0.09643 0.86531 0.96604 0.0
C901 C 0.03616 0.88313 1.0155 0.0
H902 H 0.06593 0.83407 1.01731 0.0
C903 C 0.05374 0.90121 0.98595 0.0
C904 C 0.07613 0.89547 0.96795 0.0
H905 H 0.0199 0.88867 1.02957 0.0
H906 H 0.05048 0.92019 0.97793 0.0
C907 C 0.07958 0.87058 0.97932 0.0
C908 C 0.13299 0.1845 0.03496 0.0
C909 C 0.13059 0.17875 0.99822 0.0
H910 H 0.15273 0.18127 0.08557 0.0
C911 C 0.1478 0.1652 0.98437 0.0
H912 H 0.12007 0.19487 0.04665 0.0
C913 C 0.16704 0.15772 1.00681 0.0
C914 C 0.1691 0.16324 0.04366 0.0
H915 H 0.14659 0.16058 0.95618 0.0
H916 H 0.17991 0.14719 0.9954 0.0
C917 C 0.15178 0.1767 0.05738 0.0
C918 C 1.00295 0.86733 0.56663 0.0
C919 C 0.97363 0.84267 0.57504 0.0
H920 H 0.04336 0.88749 0.5307 0.0
C921 C 0.96362 0.81818 0.5535 0.0
H922 H 1.01142 0.88655 0.58259 0.0
C923 C 0.98167 0.81888 0.52343 0.0
C924 C 1.01051 0.84386 0.51439 0.0
H925 H 0.94114 0.79881 0.559 0.0
H926 H 0.97267 0.80002 0.50682 0.0
C927 C 0.0213 0.86782 0.53688 0.0
C928 C 0.23784 0.18009 0.53297 0.0
C929 C 0.20658 0.1734 0.52415 0.0
H930 H 0.26834 0.1694 0.56557 0.0
C931 C 0.18147 0.15157 0.54524 0.0
H932 H 0.25777 0.19729 0.51805 0.0
C933 C 0.18762 0.13563 0.57315 0.0
C934 C 0.21894 0.14124 0.58019 0.0
H935 H 0.15712 0.14589 0.53913 0.0
H936 H 0.1679 0.11806 0.58797 0.0
C937 C 0.24391 0.16416 0.56042 0.0
C938 C 0.87737 0.06926 0.58671 0.0
C939 C 0.9042 0.06694 0.5989 0.0
H940 H 0.84176 0.0583 0.54684 0.0
C941 C 0.91391 0.04894 0.5806 0.0
H942 H 0.86899 0.08274 0.60014 0.0
C943 C 0.89812 0.03483 0.54984 0.0
C944 C 0.87244 0.03862 0.53657 0.0
H945 H 0.93447 0.04665 0.58917 0.0
H946 H 0.90695 0.02213 0.53552 0.0
C947 C 0.86181 0.05539 0.55593 0.0
C948 C 0.88479 0.34658 0.38541 0.0
C949 C 0.8654 0.34302 0.35562 0.0
H950 H 0.89914 0.36525 0.43668 0.0
C951 C 0.84458 0.3555 0.35554 0.0
H952 H 0.90084 0.33697 0.38633 0.0
C953 C 0.84377 0.37185 0.38422 0.0
C954 C 0.86332 0.37559 0.41388 0.0
H955 H 0.8295 0.35325 0.33286 0.0
H956 H 0.82788 0.38164 0.38323 0.0
C957 C 0.88357 0.36248 0.41437 0.0
C958 C 0.64343 0.42358 0.39125 0.0
C959 C 0.62383 0.42897 0.41478 0.0
H960 H 0.67647 0.44009 0.34666 0.0
C961 C 0.62517 0.45697 0.41324 0.0
H962 H 0.64293 0.40224 0.39171 0.0
C963 C 0.64427 0.47851 0.38754 0.0
C964 C 0.66257 0.47268 0.3627 0.0
H965 H 0.61068 0.46204 0.43121 0.0
H966 H 0.64426 0.49962 0.38673 0.0
C967 C 0.66267 0.44527 0.36545 0.0
C968 C 0.57158 0.19791 0.37727 0.0
C969 C 0.56566 0.17211 0.39775 0.0
H970 H 0.55727 0.21731 0.33354 0.0
C971 C 0.53851 0.14584 0.39049 0.0
H972 H 0.59226 0.21852 0.38207 0.0
C973 C 0.51852 0.14514 0.36254 0.0
C974 C 0.52499 0.17072 0.34131 0.0
H975 H 0.53314 0.12554 0.40572 0.0
H976 H 0.49811 0.12446 0.35735 0.0
C977 C 0.55143 0.19724 0.34947 0.0
C978 C 0.72258 0.53715 0.87442 0.0
C979 C 0.70417 0.51117 0.89535 0.0
H980 H 0.75584 0.55776 0.83072 0.0
C981 C 0.70444 0.485 0.88583 0.0
H982 H 0.72261 0.55761 0.88031 0.0
C983 C 0.7233 0.48502 0.85696 0.0
C984 C 0.74248 0.51121 0.83689 0.0
H985 H 0.69087 0.46456 0.90127 0.0
H986 H 0.72356 0.46463 0.85112 0.0
C987 C 0.7415 0.53717 0.84567 0.0
C988 C 0.5083 0.22697 0.82084 0.0
C989 C 0.53251 0.25608 0.82238 0.0
H990 H 0.48676 0.18334 0.84497 0.0
C991 C 0.55575 0.26258 0.84867 0.0
H992 H 0.49012 0.22108 0.80079 0.0
C993 C 0.5537 0.2408 0.87414 0.0
C994 C 0.52829 0.21219 0.8739 0.0
H995 H 0.57473 0.28476 0.85062 0.0
H996 H 0.5711 0.24676 0.89505 0.0
C997 C 0.50618 0.20534 0.84635 0.0
C998 C 0.87489 0.3229 0.86098 0.0
C999 C 0.86004 0.32926 0.88936 0.0
H1000 H 0.86909 0.30266 0.81048 0.0
C1001 C 0.8272 0.31964 0.88858 0.0
H1002 H 0.9002 0.3302 0.86108 0.0
C1003 C 0.80937 0.30335 0.86022 0.0
C1004 C 0.82428 0.29722 0.83169 0.0
H1005 H 0.81531 0.32417 0.91036 0.0
H1006 H 0.784 0.29572 0.86031 0.0
C1007 C 0.85721 0.30737 0.83211 0.0
C1008 C 0.47974 0.29332 0.34174 0.0
C1009 C 0.50736 0.3093 0.36108 0.0
H1010 H 0.4587 0.26657 0.29729 0.0
C1011 C 0.53639 0.31235 0.34757 0.0
H1012 H 0.45712 0.29102 0.35108 0.0
C1013 C 0.53739 0.29817 0.31658 0.0
C1014 C 0.5094 0.28092 0.29827 0.0
H1015 H 0.55807 0.32449 0.36192 0.0
H1016 H 0.55987 0.29977 0.30785 0.0
C1017 C 0.48074 0.27947 0.31069 0.0
C1018 C 0.71996 0.18694 0.30426 0.0
C1019 C 0.74158 0.21706 0.29923 0.0
H1020 H 0.68595 0.15274 0.33992 0.0
C1021 C 0.74275 0.23632 0.32555 0.0
H1022 H 0.71842 0.17152 0.28449 0.0
C1023 C 0.72464 0.22546 0.35726 0.0
C1024 C 0.70448 0.19521 0.36319 0.0
H1025 H 0.75901 0.25962 0.32269 0.0
H1026 H 0.72714 0.24062 0.3778 0.0
C1027 C 0.70134 0.17615 0.33587 0.0
C1028 C 0.82845 0.48131 0.36494 0.0
C1029 C 0.84096 0.50539 0.38729 0.0
H1030 H 0.80075 0.46221 0.31874 0.0
C1031 C 0.83681 0.53018 0.37755 0.0
H1032 H 0.83107 0.46179 0.37166 0.0
C1033 C 0.81987 0.53059 0.34688 0.0
C1034 C 0.80607 0.50599 0.32543 0.0
H1035 H 0.84617 0.54912 0.39403 0.0
H1036 H 0.81654 0.54982 0.34081 0.0
C1037 C 0.81098 0.48151 0.33459 0.0
C1038 C 0.63805 0.14739 0.88926 0.0
C1039 C 0.6304 0.16567 0.9099 0.0
H1040 H 0.66595 0.14461 0.84581 0.0
C1041 C 0.64737 0.19628 0.90332 0.0
H1042 H 0.62547 0.12368 0.89369 0.0
C1043 C 0.67025 0.20822 0.87553 0.0
C1044 C 0.67701 0.18987 0.85396 0.0
H1045 H 0.64197 0.21098 0.91854 0.0
H1046 H 0.68215 0.23187 0.87044 0.0
C1047 C 0.66126 0.15936 0.86179 0.0
C1048 C 0.88903 0.47697 0.9224 0.0
C1049 C 0.86124 0.45092 0.93171 0.0
H1050 H 0.91127 0.51562 0.88752 0.0
C1051 C 0.8333 0.44523 0.91322 0.0
H1052 H 0.91097 0.48228 0.93612 0.0
C1053 C 0.83355 0.46452 0.88512 0.0
C1054 C 0.86179 0.48981 0.87476 0.0
H1055 H 0.81148 0.42539 0.91962 0.0
H1056 H 0.81197 0.45899 0.87057 0.0
C1057 C 0.8893 0.49607 0.89429 0.0
C1058 C 0.52796 0.38006 0.9343 0.0
C1059 C 0.56007 0.39951 0.94021 0.0
H1060 H 0.49346 0.35299 0.89676 0.0
C1061 C 0.58248 0.40459 0.91268 0.0
H1062 H 0.51007 0.37567 0.95489 0.0
C1063 C 0.57281 0.3922 0.87936 0.0
C1064 C 0.54064 0.37386 0.87295 0.0
H1065 H 0.60736 0.41941 0.91609 0.0
H1066 H 0.59045 0.39749 0.85818 0.0
C1067 C 0.5184 0.36707 0.90111 0.0
C1068 C 0.50981 0.66839 0.70363 0.0
C1069 C 0.53124 0.68304 0.67478 0.0
H1070 H 0.49146 0.67198 0.75465 0.0
C1071 C 0.5517 0.71331 0.67658 0.0
H1072 H 0.49397 0.64503 0.70341 0.0
C1073 C 0.55048 0.72861 0.70605 0.0
C1074 C 0.52869 0.71416 0.73457 0.0
H1075 H 0.56833 0.72547 0.65489 0.0
H1076 H 0.56673 0.75187 0.7064 0.0
C1077 C 0.50859 0.68377 0.73323 0.0
C1078 C 0.3073 0.81236 0.71446 0.0
C1079 C 0.32791 0.80749 0.69197 0.0
H1080 H 0.27287 0.79562 0.75735 0.0
C1081 C 0.33093 0.78161 0.69797 0.0
H1082 H 0.30489 0.8323 0.71103 0.0
C1083 C 0.31252 0.76043 0.72471 0.0
C1084 C 0.29085 0.76478 0.74611 0.0
H1085 H 0.3465 0.77714 0.68103 0.0
H1086 H 0.31446 0.74022 0.7277 0.0
C1087 C 0.28909 0.79136 0.74122 0.0
C1088 C 0.19399 0.47514 0.7012 0.0
C1089 C 0.20112 0.50053 0.67925 0.0
H1090 H 0.20836 0.45523 0.74422 0.0
C1091 C 0.22886 0.5265 0.68595 0.0
H1092 H 0.17261 0.4549 0.69729 0.0
C1093 C 0.24944 0.52676 0.71309 0.0
C1094 C 0.24272 0.50108 0.7343 0.0
H1095 H 0.23525 0.54643 0.66947 0.0
H1096 H 0.27099 0.54692 0.71686 0.0
C1097 C 0.21446 0.47541 0.72835 0.0
C1098 C 0.39712 0.82091 0.19354 0.0
C1099 C 0.41483 0.8463 0.17139 0.0
H1100 H 0.3645 0.80142 0.23808 0.0
C1101 C 0.41124 0.8716 0.1767 0.0
H1102 H 0.39932 0.80104 0.19032 0.0
C1103 C 0.39124 0.87181 0.20406 0.0
C1104 C 0.37419 0.84671 0.22691 0.0
H1105 H 0.42435 0.89155 0.1601 0.0
H1106 H 0.38926 0.89175 0.20737 0.0
C1107 C 0.37703 0.8211 0.22092 0.0
C1108 C 0.18056 0.54471 0.15615 0.0
C1109 C 0.19572 0.57498 0.14605 0.0
H1110 H 0.17628 0.51116 0.1957 0.0
C1111 C 0.22164 0.59403 0.16593 0.0
H1112 H 0.16062 0.52938 0.14129 0.0
C1113 C 0.23034 0.58357 0.19696 0.0
C1114 C 0.21354 0.55382 0.20869 0.0
H1115 H 0.23411 0.61739 0.15879 0.0
H1116 H 0.24941 0.59903 0.21271 0.0
C1117 C 0.18951 0.53419 0.1872 0.0
C1118 C 0.51944 0.67903 0.19717 0.0
C1119 C 0.52617 0.66468 0.22651 0.0
H1120 H 0.49798 0.67491 0.14564 0.0
C1121 C 0.51684 0.63445 0.22509 0.0
H1122 H 0.52659 0.70236 0.1971 0.0
C1123 C 0.50082 0.61889 0.19555 0.0
C1124 C 0.49349 0.63302 0.16655 0.0
H1125 H 0.52127 0.6225 0.24714 0.0
H1126 H 0.49414 0.59567 0.19553 0.0
C1127 C 0.50334 0.66338 0.16747 0.0
C1128 C 0.15145 0.61067 0.64671 0.0
C1129 C 0.18064 0.61253 0.63567 0.0
H1130 H 0.12655 0.62312 0.68451 0.0
C1131 C 0.20819 0.63129 0.65366 0.0
H1132 H 0.12972 0.59665 0.63345 0.0
C1133 C 0.20628 0.64659 0.6831 0.0
C1134 C 0.17676 0.64326 0.69534 0.0
H1135 H 0.23107 0.63327 0.64593 0.0
H1136 H 0.22768 0.65988 0.69733 0.0
C1137 C 0.14954 0.62571 0.67619 0.0
C1138 C 0.41403 0.50912 0.70251 0.0
C1139 C 0.38807 0.51415 0.71005 0.0
H1140 H 0.45545 0.52076 0.67016 0.0
C1141 C 0.38265 0.53391 0.68714 0.0
H1142 H 0.41844 0.4935 0.71896 0.0
C1143 C 0.40396 0.54955 0.65858 0.0
C1144 C 0.43097 0.54566 0.65266 0.0
H1145 H 0.36286 0.53827 0.69228 0.0
H1146 H 0.40009 0.56557 0.64227 0.0
C1147 C 0.43521 0.52469 0.67436 0.0
C1148 C 0.49641 0.81827 0.69395 0.0
C1149 C 0.50596 0.84122 0.71785 0.0
H1150 H 0.47109 0.79957 0.6462 0.0
C1151 C 0.49922 0.8647 0.70937 0.0
H1152 H 0.50103 0.79972 0.69977 0.0
C1153 C 0.48262 0.86487 0.67832 0.0
C1154 C 0.47166 0.84121 0.65534 0.0
H1155 H 0.50623 0.8827 0.72715 0.0
H1156 H 0.47719 0.883 0.67319 0.0
C1157 C 0.47913 0.8181 0.66329 0.0
C1158 C 0.34391 0.53611 0.23944 0.0
C1159 C 0.3145 0.51285 0.25079 0.0
H1160 H 0.38199 0.55263 0.20043 0.0
C1161 C 0.30179 0.48699 0.23155 0.0
H1162 H 0.35426 0.55633 0.2536 0.0
C1163 C 0.31727 0.48511 0.20048 0.0
C1164 C 0.34622 0.50874 0.1885 0.0
H1165 H 0.27902 0.46875 0.23936 0.0
H1166 H 0.3062 0.46543 0.18536 0.0
C1167 C 0.3598 0.53393 0.20897 0.0
C1168 C 0.5298 0.79869 0.24321 0.0
C1169 C 0.56077 0.80252 0.24837 0.0
H1170 H 0.49937 0.81007 0.21055 0.0
C1171 C 0.58551 0.82341 0.22624 0.0
H1172 H 0.51026 0.78274 0.25987 0.0
C1173 C 0.57937 0.83903 0.19846 0.0
C1174 C 0.54828 0.83411 0.19175 0.0
H1175 H 0.60973 0.8273 0.22984 0.0
H1176 H 0.59905 0.85463 0.18171 0.0
C1177 C 0.52359 0.81436 0.21504 0.0
C1178 C 0.25421 0.71894 0.2486 0.0
C1179 C 0.24374 0.73542 0.26892 0.0
H1180 H 0.24665 0.69264 0.20298 0.0
C1181 C 0.21515 0.73559 0.25957 0.0
H1182 H 0.27617 0.71837 0.25489 0.0
C1183 C 0.19824 0.72084 0.22983 0.0
C1184 C 0.20939 0.70548 0.20845 0.0
H1185 H 0.20617 0.74785 0.27465 0.0
H1186 H 0.17657 0.72185 0.22334 0.0
C1187 C 0.23723 0.70414 0.21875 0.0
C1188 C 0.18567 0.20423 0.29762 0.0
C1189 C 0.16057 0.1925 0.3231 0.0
H1190 H 0.20592 0.19807 0.24988 0.0
C1191 C 0.13488 0.16479 0.31766 0.0
H1192 H 0.20595 0.22547 0.30089 0.0
C1193 C 0.13468 0.14898 0.28779 0.0
C1194 C 0.16027 0.16041 0.26274 0.0
H1195 H 0.11512 0.15512 0.3367 0.0
H1196 H 0.11447 0.12775 0.28456 0.0
C1197 C 0.18559 0.18843 0.26802 0.0
C1198 C 0.85461 0.97585 0.27954 0.0
C1199 C 0.86375 0.99135 0.31126 0.0
H1200 H 0.85359 0.97819 0.22203 0.0
C1201 C 0.88162 0.02218 0.30823 0.0
H1202 H 0.84092 0.9521 0.28075 0.0
C1203 C 0.88889 0.03719 0.27442 0.0
C1204 C 0.87851 0.02176 0.24277 0.0
H1205 H 0.8891 0.03487 0.33201 0.0
H1206 H 0.90182 0.06099 0.27322 0.0
C1207 C 0.8619 0.99084 0.24576 0.0
C1208 C 1.00315 0.81552 0.26312 0.0
C1209 C 0.98938 0.82807 0.23903 0.0
H1210 H 0.0248 0.81721 0.31382 0.0
C1211 C 0.98741 0.8533 0.24896 0.0
H1212 H 1.00502 0.796 0.2566 0.0
C1213 C 0.99912 0.86572 0.28203 0.0
C1214 C 1.01308 0.85321 0.30605 0.0
H1215 H 0.9771 0.86363 0.23107 0.0
H1216 H 0.9976 0.88539 0.28847 0.0
C1217 C 1.01478 0.82786 0.29605 0.0
C1218 C 0.89246 0.85298 0.75919 0.0
C1219 C 0.86844 0.8458 0.73379 0.0
H1220 H 0.90742 0.86665 0.81261 0.0
C1221 C 0.84183 0.8497 0.74248 0.0
H1222 H 0.91321 0.85021 0.75343 0.0
C1223 C 0.83862 0.85936 0.77603 0.0
C1224 C 0.86176 0.86513 0.80223 0.0
H1225 H 0.82295 0.84467 0.7235 0.0
H1226 H 0.81733 0.86123 0.78184 0.0
C1227 C 0.88905 0.86235 0.79314 0.0
C1228 C 0.15186 0.99198 0.7493 0.0
C1229 C 0.16667 0.02284 0.74413 0.0
H1230 H 0.13551 0.95485 0.78695 0.0
C1231 C 0.17358 0.03994 0.77444 0.0
H1232 H 0.14617 0.97809 0.72659 0.0
C1233 C 0.16711 0.02654 0.8091 0.0
C1234 C 0.15396 0.99575 0.81427 0.0
H1235 H 0.18486 0.06373 0.77144 0.0
H1236 H 0.17373 0.04046 0.83183 0.0
C1237 C 0.14578 0.9786 0.78395 0.0
C1238 C 0.03474 0.16253 0.75972 0.0
C1239 C 1.00211 0.1457 0.75338 0.0
H1240 H 0.07148 0.17934 0.79858 0.0
C1241 C 0.9816 0.13115 0.78287 0.0
H1242 H 0.05131 0.17413 0.73771 0.0
C1243 C 0.99332 0.13388 0.81782 0.0
C1244 C 0.0258 0.15155 0.82426 0.0
H1245 H 0.9564 0.11798 0.77904 0.0
H1246 H 0.97668 0.12279 0.83992 0.0
C1247 C 0.04639 0.16558 0.79469 0.0
C1248 C 0.86552 0.53382 0.64184 0.0
C1249 C 0.83925 0.52194 0.66584 0.0
H1250 H 0.88478 0.53189 0.59088 0.0
C1251 C 0.81139 0.49759 0.65549 0.0
H1252 H 0.8874 0.55264 0.64869 0.0
C1253 C 0.80998 0.48544 0.62206 0.0
C1254 C 0.83638 0.49733 0.5981 0.0
H1255 H 0.79074 0.4878 0.67328 0.0
H1256 H 0.78827 0.46648 0.61526 0.0
C1257 C 0.86412 0.52174 0.60857 0.0
C1258 C 0.55372 0.34532 0.63363 0.0
C1259 C 0.52585 0.33036 0.65493 0.0
H1260 H 0.57395 0.36425 0.5814 0.0
C1261 C 0.49646 0.32198 0.63854 0.0
H1262 H 0.57676 0.35205 0.64535 0.0
C1263 C 0.49489 0.32891 0.60221 0.0
C1264 C 0.52262 0.34442 0.58098 0.0
H1265 H 0.47445 0.31027 0.65386 0.0
H1266 H 0.47172 0.32232 0.59089 0.0
C1267 C 0.55212 0.35226 0.59698 0.0
C1268 C 0.64141 0.18038 0.58726 0.0
C1269 C 0.64976 0.15994 0.57303 0.0
H1270 H 0.64623 0.2082 0.63042 0.0
C1271 C 0.66994 0.15181 0.59284 0.0
H1272 H 0.62584 0.18707 0.57279 0.0
C1273 C 0.68197 0.16414 0.62562 0.0
C1274 C 0.67407 0.18491 0.63987 0.0
H1275 H 0.67703 0.13619 0.58277 0.0
H1276 H 0.69804 0.1577 0.63925 0.0
C1277 C 0.65333 0.19265 0.62032 0.0
C1278 C 0.55248 0.18935 0.10015 0.0
C1279 C 0.52805 0.18017 0.07507 0.0
H1280 H 0.5673 0.20487 0.15292 0.0
C1281 C 0.50026 0.1821 0.08362 0.0
H1282 H 0.57417 0.18817 0.09441 0.0
C1283 C 0.49648 0.19201 0.11674 0.0
C1284 C 0.52021 0.19993 0.14258 0.0
H1285 H 0.48104 0.1755 0.06484 0.0
H1286 H 0.47438 0.19245 0.12252 0.0
C1287 C 0.54849 0.1989 0.13368 0.0
C1288 C 0.81466 0.31925 0.07903 0.0
C1289 C 0.8434 0.34558 0.07704 0.0
H1290 H 0.78329 0.28085 0.11089 0.0
C1291 C 0.8622 0.35364 0.10775 0.0
H1292 H 0.79954 0.3123 0.05595 0.0
C1293 C 0.85296 0.33542 0.13924 0.0
C1294 C 0.82458 0.30874 0.14093 0.0
H1295 H 0.8845 0.37368 0.10723 0.0
H1296 H 0.86832 0.34213 0.16214 0.0
C1297 C 0.80533 0.30113 0.11058 0.0
C1298 C 0.70234 0.48393 0.10495 0.0
C1299 C 0.67263 0.48191 0.09557 0.0
H1300 H 0.73887 0.49623 0.14449 0.0
C1301 C 0.65622 0.48948 0.12098 0.0
H1302 H 0.71567 0.47824 0.08608 0.0
C1303 C 0.66967 0.50006 0.15403 0.0
C1304 C 0.69979 0.50307 0.16303 0.0
H1305 H 0.63337 0.48826 0.1149 0.0
H1306 H 0.65655 0.50642 0.1724 0.0
C1307 C 0.71567 0.49418 0.13846 0.0
C1308 C 0.47644 0.83379 0.98297 0.0
C1309 C 0.50177 0.86147 0.98949 0.0
H1310 H 0.45563 0.79881 0.94672 0.0
C1311 C 0.52536 0.8756 0.9625 0.0
H1312 H 0.45793 0.82222 1.00317 0.0
C1313 C 0.52406 0.86225 0.93022 0.0
C1314 C 0.49912 0.83434 0.92382 0.0
H1315 H 0.54519 0.89701 0.96637 0.0
H1316 H 0.54265 0.87396 0.9102 0.0
C1317 C 0.47511 0.8204 0.9505 0.0
C1318 C 0.20478 0.66273 0.91965 0.0
C1319 C 0.21342 0.69297 0.91762 0.0
H1320 H 0.19078 0.62359 0.95346 0.0
C1321 C 0.21601 0.70716 0.94981 0.0
H1322 H 0.20253 0.65106 0.89545 0.0
C1323 C 0.20909 0.6914 0.98303 0.0
C1324 C 0.19954 0.661 0.98505 0.0
H1325 H 0.22262 0.73041 0.9494 0.0
H1326 H 0.21071 0.70301 1.00713 0.0
C1327 C 0.19801 0.64696 0.95297 0.0
C1328 C 0.33949 0.48485 0.97323 0.0
C1329 C 0.34196 0.51251 0.98024 0.0
H1330 H 0.32622 0.45055 0.93648 0.0
C1331 C 0.33135 0.52648 0.95404 0.0
H1332 H 0.34679 0.47313 0.99287 0.0
C1333 C 0.31925 0.51335 0.92143 0.0
C1334 C 0.3174 0.48592 0.91431 0.0
H1335 H 0.33305 0.54788 0.95831 0.0
H1336 H 0.31188 0.52493 0.90161 0.0
C1337 C 0.3274 0.47177 0.94082 0.0
C1338 C 0.22574 0.52816 0.47723 0.0
C1339 C 0.1988 0.53213 0.48406 0.0
H1340 H 0.25172 0.51679 0.43898 0.0
C1341 C 0.17813 0.52899 0.45577 0.0
H1342 H 0.24223 0.53042 0.4984 0.0
C1343 C 0.18341 0.52092 0.4221 0.0
C1344 C 0.20969 0.51599 0.41547 0.0
H1345 H 0.15719 0.53186 0.45985 0.0
H1346 H 0.16645 0.51815 0.4013 0.0
C1347 C 0.23123 0.52033 0.4432 0.0
C1348 C 0.50448 0.69176 0.47992 0.0
C1349 C 0.48953 0.6609 0.48532 0.0
H1350 H 0.52437 0.72878 0.44202 0.0
C1351 C 0.48046 0.64362 0.45512 0.0
H1352 H 0.51185 0.70579 0.50255 0.0
C1353 C 0.4873 0.65686 0.42038 0.0
C1354 C 0.50382 0.6877 0.41501 0.0
H1355 H 0.46883 0.61982 0.4583 0.0
H1356 H 0.48082 0.64283 0.39777 0.0
C1357 C 0.51176 0.70499 0.44519 0.0
C1358 C 0.33155 0.80597 0.48911 0.0
C1359 C 0.36413 0.82248 0.49613 0.0
H1360 H 0.29523 0.79048 0.4496 0.0
C1361 C 0.38545 0.83458 0.46674 0.0
H1362 H 0.31431 0.79631 0.51098 0.0
C1363 C 0.37442 0.83098 0.43142 0.0
C1364 C 0.34173 0.81545 0.42447 0.0
H1365 H 0.41063 0.84742 0.471 0.0
H1366 H 0.39157 0.84119 0.40957 0.0
C1367 C 0.3205 0.80264 0.45382 0.0
C1368 C 0.29945 0.17291 0.19136 0.0
C1369 C 0.29726 0.16657 0.15484 0.0
H1370 H 0.32692 0.18117 0.23901 0.0
C1371 C 0.3234 0.1661 0.13773 0.0
H1372 H 0.27983 0.17342 0.20549 0.0
C1373 C 0.35058 0.17078 0.15704 0.0
C1374 C 0.35195 0.17551 0.19398 0.0
H1375 H 0.32253 0.16128 0.10964 0.0
H1376 H 0.36993 0.16941 0.14347 0.0
C1377 C 0.32634 0.17709 0.21071 0.0
C1378 C 0.81997 0.16391 0.18467 0.0
C1379 C 0.84499 0.17895 0.208 0.0
H1380 H 0.79686 0.12708 0.15153 0.0
C1381 C 0.86704 0.16822 0.21441 0.0
H1382 H 0.80247 0.17144 0.17927 0.0
C1383 C 0.86368 0.14268 0.19887 0.0
C1384 C 0.83817 0.12706 0.17637 0.0
H1385 H 0.88686 0.17945 0.2318 0.0
H1386 H 0.88071 0.1348 0.20537 0.0
C1387 C 0.81655 0.13823 0.16911 0.0
C1388 C 0.83931 0.67284 0.22794 0.0
C1389 C 0.82521 0.64527 0.21238 0.0
H1390 H 0.875 0.71779 0.22364 0.0
C1391 C 0.83715 0.64262 0.179 0.0
H1392 H 0.83131 0.67573 0.25389 0.0
C1393 C 0.86247 0.66688 0.16168 0.0
C1394 C 0.87644 0.69443 0.17725 0.0
H1395 H 0.8267 0.62191 0.16596 0.0
H1396 H 0.87074 0.66413 0.13579 0.0
C1397 C 0.86451 0.69707 0.21058 0.0
C1398 C 0.19366 0.38057 0.38912 0.0
C1399 C 0.18119 0.37997 0.35475 0.0
H1400 H 0.20359 0.35687 0.43161 0.0
C1401 C 0.16716 0.35305 0.33768 0.0
H1402 H 0.20386 0.40062 0.40355 0.0
C1403 C 0.16683 0.32771 0.35406 0.0
C1404 C 0.18065 0.32883 0.38772 0.0
H1405 H 0.15745 0.35177 0.31116 0.0
H1406 H 0.15682 0.30755 0.33982 0.0
C1407 C 0.1935 0.35543 0.40528 0.0
C1408 C 0.70412 0.83536 0.37819 0.0
C1409 C 0.67348 0.83081 0.36927 0.0
H1410 H 0.75075 0.86542 0.39324 0.0
C1411 C 0.66646 0.85451 0.37136 0.0
H1412 H 0.71039 0.81761 0.37764 0.0
C1413 C 0.68971 0.88217 0.38113 0.0
C1414 C 0.7207 0.88696 0.38889 0.0
H1415 H 0.64324 0.85202 0.36463 0.0
H1416 H 0.68331 0.8998 0.38226 0.0
C1417 C 0.72737 0.86297 0.38768 0.0
C1418 C 0.19738 0.84437 0.41282 0.0
C1419 C 0.19563 0.841 0.37557 0.0
H1420 H 0.17702 0.8526 0.45966 0.0
C1421 C 0.16937 0.84047 0.35753 0.0
H1422 H 0.21737 0.84494 0.42737 0.0
C1423 C 0.14603 0.84435 0.37596 0.0
C1424 C 0.14862 0.84939 0.41287 0.0
H1425 H 0.16715 0.83753 0.32891 0.0
H1426 H 0.12669 0.84468 0.36089 0.0
C1427 C 0.17429 0.84882 0.43123 0.0
C1428 C 0.69197 0.83881 0.82051 0.0
C1429 C 0.6928 0.83911 0.85819 0.0
H1430 H 0.66444 0.8343 0.77334 0.0
C1431 C 0.66635 0.83739 0.87706 0.0
H1432 H 0.71194 0.84002 0.80527 0.0
C1433 C 0.63937 0.83456 0.85886 0.0
C1434 C 0.6379 0.8329 0.82129 0.0
H1435 H 0.66643 0.838 0.90605 0.0
H1436 H 0.61922 0.83263 0.87443 0.0
C1437 C 0.66472 0.83547 0.80228 0.0
C1438 C 0.20334 0.8172 0.85914 0.0
C1439 C 0.1756 0.79791 0.84198 0.0
H1440 H 0.22903 0.85865 0.88283 0.0
C1441 C 0.15207 0.80679 0.83537 0.0
H1442 H 0.22168 0.81092 0.86537 0.0
C1443 C 0.15631 0.83436 0.84539 0.0
C1444 C 0.18419 0.85373 0.86235 0.0
H1445 H 0.13057 0.79264 0.82188 0.0
H1446 H 0.13797 0.84066 0.83925 0.0
C1447 C 0.20755 0.84468 0.86921 0.0
C1448 C 0.20067 0.35664 0.87923 0.0
C1449 C 0.21277 0.35455 0.84574 0.0
H1450 H 0.16721 0.33462 0.92213 0.0
C1451 C 0.1992 0.3272 0.82971 0.0
H1452 H 0.21094 0.37718 0.89267 0.0
C1453 C 0.17387 0.30264 0.84657 0.0
C1454 C 0.16155 0.30482 0.87994 0.0
H1455 H 0.20771 0.32488 0.80374 0.0
H1456 H 0.16358 0.28215 0.83306 0.0
C1457 C 0.17549 0.33213 0.89613 0.0
C1458 C 0.84156 0.67569 0.67307 0.0
C1459 C 0.85451 0.70357 0.68786 0.0
H1460 H 0.83337 0.63101 0.67869 0.0
C1461 C 0.86919 0.70699 0.72134 0.0
H1462 H 0.83058 0.67218 0.6471 0.0
C1463 C 0.8709 0.68323 0.73944 0.0
C1464 C 0.8579 0.65539 0.72461 0.0
H1465 H 0.87905 0.72793 0.73385 0.0
H1466 H 0.88199 0.68662 0.76535 0.0
C1467 C 0.84318 0.65196 0.69121 0.0
C1468 C 0.32365 0.17751 0.73798 0.0
C1469 C 0.33036 0.16944 0.70474 0.0
H1470 H 0.34074 0.20804 0.78001 0.0
C1471 C 0.35929 0.18797 0.68703 0.0
H1472 H 0.30153 0.1636 0.75223 0.0
C1473 C 0.38147 0.2134 0.70258 0.0
C1474 C 0.3756 0.22097 0.73656 0.0
H1475 H 0.36483 0.18279 0.66099 0.0
H1476 H 0.40335 0.22705 0.68782 0.0
C1477 C 0.34611 0.20298 0.75382 0.0
C1478 C 0.82731 0.16907 0.69032 0.0
C1479 C 0.85337 0.16915 0.70828 0.0
H1480 H 0.78452 0.17297 0.69408 0.0
C1481 C 0.8546 0.17118 0.74576 0.0
H1482 H 0.8255 0.1671 0.66151 0.0
C1483 C 0.83118 0.17483 0.76454 0.0
C1484 C 0.80578 0.17599 0.74628 0.0
H1485 H 0.87444 0.17134 0.76024 0.0
H1486 H 0.8335 0.17761 0.7932 0.0
C1487 C 0.8037 0.17222 0.70907 0.0
C1488 C 1.00137 0.50714 0.54827 0.0
C1489 C 0.02705 0.50603 0.53101 0.0
H1490 H 0.95498 0.50391 0.54357 0.0
C1491 C 0.02586 0.50249 0.49378 0.0
H1492 H 1.00179 0.51023 0.57684 0.0
C1493 C 0.99879 0.49853 0.47465 0.0
C1494 C 0.97262 0.49863 0.49221 0.0
H1495 H 0.04525 0.50149 0.47981 0.0
H1496 H 0.99805 0.49464 0.44627 0.0
C1497 C 0.97464 0.50375 0.5291 0.0
C1498 C 0.53212 0.50365 0.54668 0.0
C1499 C 0.51405 0.51695 0.5329 0.0
H1500 H 0.54213 0.46716 0.5461 0.0
C1501 C 0.49126 0.50239 0.50702 0.0
H1502 H 0.54938 0.51389 0.56721 0.0
C1503 C 0.48715 0.47547 0.49469 0.0
C1504 C 0.50566 0.46242 0.50807 0.0
H1505 H 0.47713 0.51214 0.49565 0.0
H1506 H 0.46997 0.46527 0.4741 0.0
C1507 C 0.52795 0.47676 0.53451 0.0
C1508 C 0.52873 0.03086 0.53942 0.0
C1509 C 0.54241 0.02836 0.50718 0.0
H1510 H 0.49383 0.00925 0.58117 0.0
C1511 C 0.53026 1.00053 0.49242 0.0
H1512 H 0.53781 0.05171 0.55205 0.0
C1513 C 0.50482 0.97598 0.50925 0.0
C1514 C 0.4909 0.97864 0.54125 0.0
H1515 H 0.53994 0.9978 0.46746 0.0
H1516 H 0.49569 0.95505 0.49679 0.0
C1517 C 0.50337 1.00639 0.55618 0.0
C1518 C 0.51403 0.01475 1.00586 0.0
C1519 C 0.52602 0.04199 1.02213 0.0
H1520 H 0.50572 0.97003 1.00986 0.0
C1521 C 0.53931 0.04432 0.05633 0.0
H1522 H 0.50426 0.01211 0.97928 0.0
C1523 C 0.54033 0.02002 0.07381 0.0
C1524 C 0.52796 0.99277 0.05761 0.0
H1525 H 0.54847 0.06476 0.0699 0.0
H1526 H 0.55028 0.02243 0.10032 0.0
C1527 C 0.51488 0.99049 1.0234 0.0
C1528 C 1.00695 0.5013 0.0665 0.0
C1529 C 1.01295 0.49366 1.0327 0.0
H1530 H 0.02361 0.53198 0.10794 0.0
C1531 C 0.04109 0.51298 1.01393 0.0
H1532 H 0.98566 0.48679 0.08178 0.0
C1533 C 0.06284 0.53914 1.02872 0.0
C1534 C 0.05718 0.54666 0.06284 0.0
H1535 H 0.0462 0.50808 0.98752 0.0
H1536 H 0.084 0.55351 1.01318 0.0
C1537 C 0.02881 0.52738 0.08144 0.0
C1538 C 0.49501 0.49459 1.02521 0.0
C1539 C 0.52363 0.49807 0.04027 0.0
H1540 H 0.45229 0.49833 1.03184 0.0
C1541 C 0.52983 0.50667 0.0759 0.0
H1542 H 0.48918 0.4875 0.99808 0.0
C1543 C 0.50861 0.51293 0.09537 0.0
C1544 C 0.48051 0.51045 0.0798 0.0
H1545 H 0.55166 0.50965 0.08827 0.0
H1546 H 0.51465 0.52043 0.12233 0.0
C1547 C 0.47369 0.50058 0.04472 0.0
loop_
_geom_bond_atom_site_label_1
_geom_bond_atom_site_label_2
_geom_bond_distance
_geom_bond_site_symmetry_2
_ccdc_geom_bond_type
Cu0 N1 1.999 . S
Cu0 O6 1.974 . S
Cu0 N11 1.985 . S
Cu0 O20 1.959 . S
N1 Cu0 1.999 . S
N1 C3 1.263 . S
N1 C5 1.389 . S
N2 C3 1.358 . S
N2 C4 1.400 . S
C3 N1 1.263 . S
C3 N2 1.358 . S
C3 H9 0.930 . S
C4 N2 1.400 . S
C4 C5 1.351 . S
C4 H21 0.930 . S
C5 N1 1.389 . S
C5 C4 1.351 . S
C5 H10 0.930 . S
O6 Cu0 1.974 . S
O6 C16 1.282 . S
C7 O8 1.261 . S
C7 O20 1.251 . S
O8 C7 1.261 . S
H9 C3 0.930 . S
H10 C5 0.930 . S
N11 Cu0 1.985 . S
N11 C13 1.335 . S
N11 C14 1.390 . S
N12 C13 1.345 . S
N12 C15 1.336 . S
C13 N11 1.335 . S
C13 N12 1.345 . S
C13 H18 0.930 . S
C14 N11 1.390 . S
C14 C15 1.346 . S
C14 H19 0.930 . S
C15 N12 1.336 . S
C15 C14 1.346 . S
C15 H22 0.929 . S
C16 O6 1.282 . S
C16 O17 1.216 . S
O17 C16 1.216 . S
H18 C13 0.930 . S
H19 C14 0.930 . S
O20 Cu0 1.959 . S
O20 C7 1.251 . S
H21 C4 0.930 . S
H22 C15 0.929 . S
Cu23 N24 1.999 . S
Cu23 O29 1.974 . S
Cu23 N34 1.985 . S
Cu23 O43 1.959 . S
N24 Cu23 1.999 . S
N24 C26 1.263 . S
N24 C28 1.389 1_545 S
N25 C26 1.358 1_565 S
N25 C27 1.400 . S
C26 N24 1.263 . S
C26 N25 1.358 1_545 S
C26 H32 0.930 . S
C27 N25 1.400 . S
C27 C28 1.351 . S
C27 H44 0.930 . S
C28 N24 1.389 1_565 S
C28 C27 1.351 . S
C28 H33 0.930 . S
O29 Cu23 1.974 . S
O29 C39 1.282 . S
C30 O31 1.261 . S
C30 O43 1.251 . S
O31 C30 1.261 . S
H32 C26 0.930 . S
H33 C28 0.930 . S
N34 Cu23 1.985 . S
N34 C36 1.335 . S
N34 C37 1.390 . S
N35 C36 1.345 . S
N35 C38 1.336 . S
C36 N34 1.335 . S
C36 N35 1.345 . S
C36 H41 0.930 . S
C37 N34 1.390 . S
C37 C38 1.346 . S
C37 H42 0.930 . S
C38 N35 1.336 . S
C38 C37 1.346 . S
C38 H45 0.929 . S
C39 O29 1.282 . S
C39 O40 1.216 . S
O40 C39 1.216 . S
H41 C36 0.930 . S
H42 C37 0.930 . S
O43 Cu23 1.959 . S
O43 C30 1.251 . S
H44 C27 0.930 . S
H45 C38 0.929 . S
Cu46 N47 1.999 . S
Cu46 O52 1.974 . S
Cu46 N57 1.985 . S
Cu46 O66 1.959 . S
N47 Cu46 1.999 . S
N47 C49 1.263 . S
N47 C51 1.389 1_655 S
N48 C49 1.358 1_455 S
N48 C50 1.400 . S
C49 N47 1.263 . S
C49 N48 1.358 1_655 S
C49 H55 0.930 . S
C50 N48 1.400 . S
C50 C51 1.351 . S
C50 H67 0.930 . S
C51 N47 1.389 1_455 S
C51 C50 1.351 . S
C51 H56 0.930 . S
O52 Cu46 1.974 . S
O52 C62 1.282 . S
C53 O54 1.261 . S
C53 O66 1.251 . S
O54 C53 1.261 . S
H55 C49 0.930 . S
H56 C51 0.930 . S
N57 Cu46 1.985 . S
N57 C59 1.335 . S
N57 C60 1.390 . S
N58 C59 1.345 . S
N58 C61 1.336 . S
C59 N57 1.335 . S
C59 N58 1.345 . S
C59 H64 0.930 . S
C60 N57 1.390 . S
C60 C61 1.346 . S
C60 H65 0.930 . S
C61 N58 1.336 . S
C61 C60 1.346 . S
C61 H68 0.929 . S
C62 O52 1.282 . S
C62 O63 1.216 . S
O63 C62 1.216 . S
H64 C59 0.930 . S
H65 C60 0.930 . S
O66 Cu46 1.959 . S
O66 C53 1.251 . S
H67 C50 0.930 . S
H68 C61 0.929 . S
Cu69 N70 1.999 . S
Cu69 O75 1.974 . S
Cu69 N80 1.985 . S
Cu69 O89 1.959 . S
N70 Cu69 1.999 . S
N70 C72 1.263 . S
N70 C74 1.389 . S
N71 C72 1.358 . S
N71 C73 1.400 . S
C72 N70 1.263 . S
C72 N71 1.358 . S
C72 H78 0.930 . S
C73 N71 1.400 . S
C73 C74 1.351 . S
C73 H90 0.930 . S
C74 N70 1.389 . S
C74 C73 1.351 . S
C74 H79 0.930 . S
O75 Cu69 1.974 . S
O75 C85 1.282 . S
C76 O77 1.261 . S
C76 O89 1.251 . S
O77 C76 1.261 . S
H78 C72 0.930 . S
H79 C74 0.930 . S
N80 Cu69 1.985 . S
N80 C82 1.335 . S
N80 C83 1.390 . S
N81 C82 1.345 . S
N81 C84 1.336 . S
C82 N80 1.335 . S
C82 N81 1.345 . S
C82 H87 0.930 . S
C83 N80 1.390 . S
C83 C84 1.346 . S
C83 H88 0.930 . S
C84 N81 1.336 . S
C84 C83 1.346 . S
C84 H91 0.929 . S
C85 O75 1.282 . S
C85 O86 1.216 . S
O86 C85 1.216 . S
H87 C82 0.930 . S
H88 C83 0.930 . S
O89 Cu69 1.959 . S
O89 C76 1.251 . S
H90 C73 0.930 . S
H91 C84 0.929 . S
Cu92 N93 1.999 . S
Cu92 O98 1.974 . S
Cu92 N103 1.985 . S
Cu92 O112 1.959 . S
N93 Cu92 1.999 . S
N93 C95 1.263 . S
N93 C97 1.389 1_565 S
N94 C95 1.358 1_545 S
N94 C96 1.400 . S
C95 N93 1.263 . S
C95 N94 1.358 1_565 S
C95 H101 0.930 . S
C96 N94 1.400 . S
C96 C97 1.351 . S
C96 H113 0.930 . S
C97 N93 1.389 1_545 S
C97 C96 1.351 . S
C97 H102 0.930 . S
O98 Cu92 1.974 . S
O98 C108 1.282 . S
C99 O100 1.261 . S
C99 O112 1.251 . S
O100 C99 1.261 . S
H101 C95 0.930 . S
H102 C97 0.930 . S
N103 Cu92 1.985 . S
N103 C105 1.335 . S
N103 C106 1.390 . S
N104 C105 1.345 . S
N104 C107 1.336 . S
C105 N103 1.335 . S
C105 N104 1.345 . S
C105 H110 0.930 . S
C106 N103 1.390 . S
C106 C107 1.346 . S
C106 H111 0.930 . S
C107 N104 1.336 . S
C107 C106 1.346 . S
C107 H114 0.929 . S
C108 O98 1.282 . S
C108 O109 1.216 . S
O109 C108 1.216 . S
H110 C105 0.930 . S
H111 C106 0.930 . S
O112 Cu92 1.959 . S
O112 C99 1.251 . S
H113 C96 0.930 . S
H114 C107 0.929 . S
Cu115 N116 1.999 . S
Cu115 O121 1.974 . S
Cu115 N126 1.985 . S
Cu115 O135 1.959 . S
N116 Cu115 1.999 . S
N116 C118 1.263 . S
N116 C120 1.389 1_455 S
N117 C118 1.340 1_655 S
N117 C119 1.425 . S
C118 N116 1.263 . S
C118 N117 1.340 1_455 S
C118 H124 0.930 . S
C119 N117 1.425 . S
C119 C120 1.351 . S
C119 H136 0.930 . S
C120 N116 1.389 1_655 S
C120 C119 1.351 . S
C120 H125 0.930 . S
O121 Cu115 1.974 . S
O121 C131 1.282 . S
C122 O123 1.239 1_655 S
C122 O135 1.244 1_655 S
O123 C122 1.239 1_455 S
H124 C118 0.930 . S
H125 C120 0.930 . S
N126 Cu115 1.985 . S
N126 C128 1.335 . S
N126 C129 1.390 . S
N127 C128 1.345 . S
N127 C130 1.336 . S
C128 N126 1.335 . S
C128 N127 1.345 . S
C128 H133 0.930 . S
C129 N126 1.390 . S
C129 C130 1.346 . S
C129 H134 0.930 . S
C130 N127 1.336 . S
C130 C129 1.346 . S
C130 H137 0.929 . S
C131 O121 1.282 . S
C131 O132 1.216 . S
O132 C131 1.216 . S
H133 C128 0.930 . S
H134 C129 0.930 . S
O135 Cu115 1.959 . S
O135 C122 1.244 1_455 S
H136 C119 0.930 . S
H137 C130 0.929 . S
Cu138 N139 1.999 . S
Cu138 O144 1.974 . S
Cu138 N149 1.985 . S
Cu138 O158 1.959 . S
N139 Cu138 1.999 . S
N139 C141 1.263 . S
N139 C143 1.389 . S
N140 C141 1.358 . S
N140 C142 1.400 . S
C141 N139 1.263 . S
C141 N140 1.358 . S
C141 H147 0.930 . S
C142 N140 1.400 . S
C142 C143 1.351 . S
C142 H159 0.930 . S
C143 N139 1.389 . S
C143 C142 1.351 . S
C143 H148 0.930 . S
O144 Cu138 1.974 . S
O144 C154 1.282 . S
C145 O146 1.261 . S
C145 O158 1.251 . S
O146 C145 1.261 . S
H147 C141 0.930 . S
H148 C143 0.930 . S
N149 Cu138 1.985 . S
N149 C151 1.335 . S
N149 C152 1.390 . S
N150 C151 1.345 . S
N150 C153 1.336 . S
C151 N149 1.335 . S
C151 N150 1.345 . S
C151 H156 0.930 . S
C152 N149 1.390 . S
C152 C153 1.346 . S
C152 H157 0.930 . S
C153 N150 1.336 . S
C153 C152 1.346 . S
C153 H160 0.929 . S
C154 O144 1.282 . S
C154 O155 1.216 . S
O155 C154 1.216 . S
H156 C151 0.930 . S
H157 C152 0.930 . S
O158 Cu138 1.959 . S
O158 C145 1.251 . S
H159 C142 0.930 . S
H160 C153 0.929 . S
Cu161 N162 1.999 . S
Cu161 O167 1.974 . S
Cu161 N172 1.985 . S
Cu161 O181 1.959 . S
N162 Cu161 1.999 . S
N162 C164 1.263 . S
N162 C166 1.389 1_565 S
N163 C164 1.358 1_545 S
N163 C165 1.400 . S
C164 N162 1.263 . S
C164 N163 1.358 1_565 S
C164 H170 0.930 . S
C165 N163 1.400 . S
C165 C166 1.351 . S
C165 H182 0.930 . S
C166 N162 1.389 1_545 S
C166 C165 1.351 . S
C166 H171 0.930 . S
O167 Cu161 1.974 . S
O167 C177 1.282 . S
C168 O169 1.261 . S
C168 O181 1.251 . S
O169 C168 1.261 . S
H170 C164 0.930 . S
H171 C166 0.930 . S
N172 Cu161 1.985 . S
N172 C174 1.335 . S
N172 C175 1.390 . S
N173 C174 1.345 . S
N173 C176 1.336 . S
C174 N172 1.335 . S
C174 N173 1.345 . S
C174 H179 0.930 . S
C175 N172 1.390 . S
C175 C176 1.346 . S
C175 H180 0.930 . S
C176 N173 1.336 . S
C176 C175 1.346 . S
C176 H183 0.929 . S
C177 O167 1.282 . S
C177 O178 1.216 . S
O178 C177 1.216 . S
H179 C174 0.930 . S
H180 C175 0.930 . S
O181 Cu161 1.959 . S
O181 C168 1.251 . S
H182 C165 0.930 . S
H183 C176 0.929 . S
Cu184 N185 1.999 . S
Cu184 O190 1.974 . S
Cu184 N195 1.985 . S
Cu184 O204 1.959 . S
N185 Cu184 1.999 . S
N185 C187 1.263 . S
N185 C189 1.389 1_455 S
N186 C187 1.358 1_655 S
N186 C188 1.400 . S
C187 N185 1.263 . S
C187 N186 1.358 1_455 S
C187 H193 0.930 . S
C188 N186 1.400 . S
C188 C189 1.351 . S
C188 H205 0.930 . S
C189 N185 1.389 1_655 S
C189 C188 1.351 . S
C189 H194 0.930 . S
O190 Cu184 1.974 . S
O190 C200 1.282 . S
C191 O192 1.261 . S
C191 O204 1.251 . S
O192 C191 1.261 . S
H193 C187 0.930 . S
H194 C189 0.930 . S
N195 Cu184 1.985 . S
N195 C197 1.335 . S
N195 C198 1.390 . S
N196 C197 1.345 . S
N196 C199 1.336 . S
C197 N195 1.335 . S
C197 N196 1.345 . S
C197 H202 0.930 . S
C198 N195 1.390 . S
C198 C199 1.346 . S
C198 H203 0.930 . S
C199 N196 1.336 . S
C199 C198 1.346 . S
C199 H206 0.929 . S
C200 O190 1.282 . S
C200 O201 1.216 . S
O201 C200 1.216 . S
H202 C197 0.930 . S
H203 C198 0.930 . S
O204 Cu184 1.959 . S
O204 C191 1.251 . S
H205 C188 0.930 . S
H206 C199 0.929 . S
Cu207 N208 1.999 . S
Cu207 O213 1.974 . S
Cu207 N218 1.985 . S
Cu207 O227 1.959 . S
N208 Cu207 1.999 . S
N208 C210 1.263 . S
N208 C212 1.389 . S
N209 C210 1.358 . S
N209 C211 1.400 . S
C210 N208 1.263 . S
C210 N209 1.358 . S
C210 H216 0.930 . S
C211 N209 1.400 . S
C211 C212 1.351 . S
C211 H228 0.930 . S
C212 N208 1.389 . S
C212 C211 1.351 . S
C212 H217 0.930 . S
O213 Cu207 1.974 . S
O213 C223 1.282 . S
C214 O215 1.261 . S
C214 O227 1.251 . S
O215 C214 1.261 . S
H216 C210 0.930 . S
H217 C212 0.930 . S
N218 Cu207 1.985 . S
N218 C220 1.335 . S
N218 C221 1.390 . S
N219 C220 1.345 . S
N219 C222 1.336 . S
C220 N218 1.335 . S
C220 N219 1.345 . S
C220 H225 0.930 . S
C221 N218 1.390 . S
C221 C222 1.346 . S
C221 H226 0.930 . S
C222 N219 1.336 . S
C222 C221 1.346 . S
C222 H229 0.929 . S
C223 O213 1.282 . S
C223 O224 1.216 . S
O224 C223 1.216 . S
H225 C220 0.930 . S
H226 C221 0.930 . S
O227 Cu207 1.959 . S
O227 C214 1.251 . S
H228 C211 0.930 . S
H229 C222 0.929 . S
Cu230 N231 1.999 . S
Cu230 O236 1.974 . S
Cu230 N241 1.985 . S
Cu230 O250 1.959 . S
N231 Cu230 1.999 . S
N231 C233 1.263 . S
N231 C235 1.389 1_545 S
N232 C233 1.358 1_565 S
N232 C234 1.400 . S
C233 N231 1.263 . S
C233 N232 1.358 1_545 S
C233 H239 0.930 . S
C234 N232 1.400 . S
C234 C235 1.351 . S
C234 H251 0.930 . S
C235 N231 1.389 1_565 S
C235 C234 1.351 . S
C235 H240 0.930 . S
O236 Cu230 1.974 . S
O236 C246 1.282 . S
C237 O238 1.261 . S
C237 O250 1.251 . S
O238 C237 1.261 . S
H239 C233 0.930 . S
H240 C235 0.930 . S
N241 Cu230 1.985 . S
N241 C243 1.335 . S
N241 C244 1.390 . S
N242 C243 1.345 . S
N242 C245 1.336 . S
C243 N241 1.335 . S
C243 N242 1.345 . S
C243 H248 0.930 . S
C244 N241 1.390 . S
C244 C245 1.346 . S
C244 H249 0.930 . S
C245 N242 1.336 . S
C245 C244 1.346 . S
C245 H252 0.929 . S
C246 O236 1.282 . S
C246 O247 1.216 . S
O247 C246 1.216 . S
H248 C243 0.930 . S
H249 C244 0.930 . S
O250 Cu230 1.959 . S
O250 C237 1.251 . S
H251 C234 0.930 . S
H252 C245 0.929 . S
Cu253 N254 1.999 . S
Cu253 O259 1.974 . S
Cu253 N264 1.985 . S
Cu253 O273 1.959 . S
N254 Cu253 1.999 . S
N254 C256 1.263 . S
N254 C258 1.389 1_655 S
N255 C256 1.358 1_455 S
N255 C257 1.400 . S
C256 N254 1.263 . S
C256 N255 1.358 1_655 S
C256 H262 0.930 . S
C257 N255 1.400 . S
C257 C258 1.351 . S
C257 H274 0.930 . S
C258 N254 1.389 1_455 S
C258 C257 1.351 . S
C258 H263 0.930 . S
O259 Cu253 1.974 . S
O259 C269 1.282 . S
C260 O261 1.261 . S
C260 O273 1.251 . S
O261 C260 1.261 . S
H262 C256 0.930 . S
H263 C258 0.930 . S
N264 Cu253 1.985 . S
N264 C266 1.335 . S
N264 C267 1.390 . S
N265 C266 1.345 . S
N265 C268 1.336 . S
C266 N264 1.335 . S
C266 N265 1.345 . S
C266 H271 0.930 . S
C267 N264 1.390 . S
C267 C268 1.346 . S
C267 H272 0.930 . S
C268 N265 1.336 . S
C268 C267 1.346 . S
C268 H275 0.929 . S
C269 O259 1.282 . S
C269 O270 1.216 . S
O270 C269 1.216 . S
H271 C266 0.930 . S
H272 C267 0.930 . S
O273 Cu253 1.959 . S
O273 C260 1.251 . S
H274 C257 0.930 . S
H275 C268 0.929 . S
Cu276 N277 1.999 . S
Cu276 O282 1.974 . S
Cu276 N287 1.985 . S
Cu276 O296 1.959 . S
N277 Cu276 1.999 . S
N277 C279 1.263 . S
N277 C281 1.389 . S
N278 C279 1.358 . S
N278 C280 1.400 . S
C279 N277 1.263 . S
C279 N278 1.358 . S
C279 H285 0.930 . S
C280 N278 1.400 . S
C280 C281 1.351 . S
C280 H297 0.930 . S
C281 N277 1.389 . S
C281 C280 1.351 . S
C281 H286 0.930 . S
O282 Cu276 1.974 . S
O282 C292 1.282 . S
C283 O284 1.261 . S
C283 O296 1.251 . S
O284 C283 1.261 . S
H285 C279 0.930 . S
H286 C281 0.930 . S
N287 Cu276 1.985 . S
N287 C289 1.335 . S
N287 C290 1.390 . S
N288 C289 1.345 . S
N288 C291 1.336 . S
C289 N287 1.335 . S
C289 N288 1.345 . S
C289 H294 0.930 . S
C290 N287 1.390 . S
C290 C291 1.346 . S
C290 H295 0.930 . S
C291 N288 1.336 . S
C291 C290 1.346 . S
C291 H298 0.929 . S
C292 O282 1.282 . S
C292 O293 1.216 . S
O293 C292 1.216 . S
H294 C289 0.930 . S
H295 C290 0.930 . S
O296 Cu276 1.959 . S
O296 C283 1.251 . S
H297 C280 0.930 . S
H298 C291 0.929 . S
Cu299 N300 1.999 . S
Cu299 O305 1.974 . S
Cu299 N310 1.985 . S
Cu299 O319 1.959 . S
N300 Cu299 1.999 . S
N300 C302 1.263 . S
N300 C304 1.389 . S
N301 C302 1.358 . S
N301 C303 1.400 . S
C302 N300 1.263 . S
C302 N301 1.358 . S
C302 H308 0.930 . S
C303 N301 1.400 . S
C303 C304 1.351 . S
C303 H320 0.930 . S
C304 N300 1.389 . S
C304 C303 1.351 . S
C304 H309 0.930 . S
O305 Cu299 1.974 . S
O305 C315 1.282 . S
C306 O307 1.261 . S
C306 O319 1.251 . S
O307 C306 1.261 . S
H308 C302 0.930 . S
H309 C304 0.930 . S
N310 Cu299 1.985 . S
N310 C312 1.335 . S
N310 C313 1.390 . S
N311 C312 1.345 . S
N311 C314 1.336 . S
C312 N310 1.335 . S
C312 N311 1.345 . S
C312 H317 0.930 . S
C313 N310 1.390 . S
C313 C314 1.346 . S
C313 H318 0.930 . S
C314 N311 1.336 . S
C314 C313 1.346 . S
C314 H321 0.929 . S
C315 O305 1.282 . S
C315 O316 1.216 . S
O316 C315 1.216 . S
H317 C312 0.930 . S
H318 C313 0.930 . S
O319 Cu299 1.959 . S
O319 C306 1.251 . S
H320 C303 0.930 . S
H321 C314 0.929 . S
Cu322 N323 1.999 . S
Cu322 O328 1.974 . S
Cu322 N333 1.985 . S
Cu322 O342 1.959 . S
N323 Cu322 1.999 . S
N323 C325 1.263 . S
N323 C327 1.389 . S
N324 C325 1.358 . S
N324 C326 1.400 . S
C325 N323 1.263 . S
C325 N324 1.358 . S
C325 H331 0.930 . S
C326 N324 1.400 . S
C326 C327 1.351 . S
C326 H343 0.930 . S
C327 N323 1.389 . S
C327 C326 1.351 . S
C327 H332 0.930 . S
O328 Cu322 1.974 . S
O328 C338 1.282 . S
C329 O330 1.261 . S
C329 O342 1.251 . S
O330 C329 1.261 . S
H331 C325 0.930 . S
H332 C327 0.930 . S
N333 Cu322 1.985 . S
N333 C335 1.335 . S
N333 C336 1.390 . S
N334 C335 1.345 . S
N334 C337 1.336 . S
C335 N333 1.335 . S
C335 N334 1.345 . S
C335 H340 0.930 . S
C336 N333 1.390 . S
C336 C337 1.346 . S
C336 H341 0.930 . S
C337 N334 1.336 . S
C337 C336 1.346 . S
C337 H344 0.929 . S
C338 O328 1.282 . S
C338 O339 1.216 . S
O339 C338 1.216 . S
H340 C335 0.930 . S
H341 C336 0.930 . S
O342 Cu322 1.959 . S
O342 C329 1.251 . S
H343 C326 0.930 . S
H344 C337 0.929 . S
Cu345 N346 1.999 . S
Cu345 O351 1.974 . S
Cu345 N356 1.985 . S
Cu345 O365 1.959 . S
N346 Cu345 1.999 . S
N346 C348 1.263 . S
N346 C350 1.389 . S
N347 C348 1.358 . S
N347 C349 1.400 . S
C348 N346 1.263 . S
C348 N347 1.358 . S
C348 H354 0.930 . S
C349 N347 1.400 . S
C349 C350 1.351 . S
C349 H366 0.930 . S
C350 N346 1.389 . S
C350 C349 1.351 . S
C350 H355 0.930 . S
O351 Cu345 1.974 . S
O351 C361 1.282 . S
C352 O353 1.261 . S
C352 O365 1.251 . S
O353 C352 1.261 . S
H354 C348 0.930 . S
H355 C350 0.930 . S
N356 Cu345 1.985 . S
N356 C358 1.335 . S
N356 C359 1.390 . S
N357 C358 1.345 . S
N357 C360 1.336 . S
C358 N356 1.335 . S
C358 N357 1.345 . S
C358 H363 0.930 . S
C359 N356 1.390 . S
C359 C360 1.346 . S
C359 H364 0.930 . S
C360 N357 1.336 . S
C360 C359 1.346 . S
C360 H367 0.929 . S
C361 O351 1.282 . S
C361 O362 1.216 . S
O362 C361 1.216 . S
H363 C358 0.930 . S
H364 C359 0.930 . S
O365 Cu345 1.959 . S
O365 C352 1.251 . S
H366 C349 0.930 . S
H367 C360 0.929 . S
Cu368 N369 1.999 . S
Cu368 O374 1.974 . S
Cu368 N379 1.985 . S
Cu368 O388 1.959 . S
N369 Cu368 1.999 . S
N369 C371 1.263 . S
N369 C373 1.389 . S
N370 C371 1.358 . S
N370 C372 1.400 . S
C371 N369 1.263 . S
C371 N370 1.358 . S
C371 H377 0.930 . S
C372 N370 1.400 . S
C372 C373 1.351 . S
C372 H389 0.930 . S
C373 N369 1.389 . S
C373 C372 1.351 . S
C373 H378 0.930 . S
O374 Cu368 1.974 . S
O374 C384 1.282 . S
C375 O376 1.261 . S
C375 O388 1.251 . S
O376 C375 1.261 . S
H377 C371 0.930 . S
H378 C373 0.930 . S
N379 Cu368 1.985 . S
N379 C381 1.335 . S
N379 C382 1.390 . S
N380 C381 1.345 . S
N380 C383 1.336 . S
C381 N379 1.335 . S
C381 N380 1.345 . S
C381 H386 0.930 . S
C382 N379 1.390 . S
C382 C383 1.346 . S
C382 H387 0.930 . S
C383 N380 1.336 . S
C383 C382 1.346 . S
C383 H390 0.929 . S
C384 O374 1.282 . S
C384 O385 1.216 . S
O385 C384 1.216 . S
H386 C381 0.930 . S
H387 C382 0.930 . S
O388 Cu368 1.959 . S
O388 C375 1.251 . S
H389 C372 0.930 . S
H390 C383 0.929 . S
Cu391 N392 1.999 . S
Cu391 O397 1.974 . S
Cu391 N402 1.985 . S
Cu391 O411 1.959 . S
N392 Cu391 1.999 . S
N392 C394 1.263 . S
N392 C396 1.389 . S
N393 C394 1.358 . S
N393 C395 1.400 . S
C394 N392 1.263 . S
C394 N393 1.358 . S
C394 H400 0.930 . S
C395 N393 1.400 . S
C395 C396 1.351 . S
C395 H412 0.930 . S
C396 N392 1.389 . S
C396 C395 1.351 . S
C396 H401 0.930 . S
O397 Cu391 1.974 . S
O397 C407 1.282 . S
C398 O399 1.261 . S
C398 O411 1.251 . S
O399 C398 1.261 . S
H400 C394 0.930 . S
H401 C396 0.930 . S
N402 Cu391 1.985 . S
N402 C404 1.335 . S
N402 C405 1.390 . S
N403 C404 1.345 . S
N403 C406 1.336 . S
C404 N402 1.335 . S
C404 N403 1.345 . S
C404 H409 0.930 . S
C405 N402 1.390 . S
C405 C406 1.346 . S
C405 H410 0.930 . S
C406 N403 1.336 . S
C406 C405 1.346 . S
C406 H413 0.929 . S
C407 O397 1.282 . S
C407 O408 1.216 . S
O408 C407 1.216 . S
H409 C404 0.930 . S
H410 C405 0.930 . S
O411 Cu391 1.959 . S
O411 C398 1.251 . S
H412 C395 0.930 . S
H413 C406 0.929 . S
Cu414 N415 1.999 . S
Cu414 O420 1.974 . S
Cu414 N425 1.985 . S
Cu414 O434 1.959 . S
N415 Cu414 1.999 . S
N415 C417 1.263 . S
N415 C419 1.389 . S
N416 C417 1.358 . S
N416 C418 1.400 . S
C417 N415 1.263 . S
C417 N416 1.358 . S
C417 H423 0.930 . S
C418 N416 1.400 . S
C418 C419 1.351 . S
C418 H435 0.930 . S
C419 N415 1.389 . S
C419 C418 1.351 . S
C419 H424 0.930 . S
O420 Cu414 1.974 . S
O420 C430 1.282 . S
C421 O422 1.261 . S
C421 O434 1.251 . S
O422 C421 1.261 . S
H423 C417 0.930 . S
H424 C419 0.930 . S
N425 Cu414 1.985 . S
N425 C427 1.335 . S
N425 C428 1.390 . S
N426 C427 1.345 . S
N426 C429 1.336 . S
C427 N425 1.335 . S
C427 N426 1.345 . S
C427 H432 0.930 . S
C428 N425 1.390 . S
C428 C429 1.346 . S
C428 H433 0.930 . S
C429 N426 1.336 . S
C429 C428 1.346 . S
C429 H436 0.929 . S
C430 O420 1.282 . S
C430 O431 1.216 . S
O431 C430 1.216 . S
H432 C427 0.930 . S
H433 C428 0.930 . S
O434 Cu414 1.959 . S
O434 C421 1.251 . S
H435 C418 0.930 . S
H436 C429 0.929 . S
Cu437 N438 1.999 . S
Cu437 O443 1.974 . S
Cu437 N448 1.985 . S
Cu437 O457 1.959 . S
N438 Cu437 1.999 . S
N438 C440 1.263 . S
N438 C442 1.389 . S
N439 C440 1.358 . S
N439 C441 1.400 . S
C440 N438 1.263 . S
C440 N439 1.358 . S
C440 H446 0.930 . S
C441 N439 1.400 . S
C441 C442 1.351 . S
C441 H458 0.930 . S
C442 N438 1.389 . S
C442 C441 1.351 . S
C442 H447 0.930 . S
O443 Cu437 1.974 . S
O443 C453 1.282 . S
C444 O445 1.261 . S
C444 O457 1.251 . S
O445 C444 1.261 . S
H446 C440 0.930 . S
H447 C442 0.930 . S
N448 Cu437 1.985 . S
N448 C450 1.335 . S
N448 C451 1.390 . S
N449 C450 1.345 . S
N449 C452 1.336 . S
C450 N448 1.335 . S
C450 N449 1.345 . S
C450 H455 0.930 . S
C451 N448 1.390 . S
C451 C452 1.346 . S
C451 H456 0.930 . S
C452 N449 1.336 . S
C452 C451 1.346 . S
C452 H459 0.929 . S
C453 O443 1.282 . S
C453 O454 1.216 . S
O454 C453 1.216 . S
H455 C450 0.930 . S
H456 C451 0.930 . S
O457 Cu437 1.959 . S
O457 C444 1.251 . S
H458 C441 0.930 . S
H459 C452 0.929 . S
Cu460 N461 1.999 . S
Cu460 O466 1.974 . S
Cu460 N471 1.985 . S
Cu460 O480 1.959 . S
N461 Cu460 1.999 . S
N461 C463 1.263 . S
N461 C465 1.389 . S
N462 C463 1.358 . S
N462 C464 1.400 . S
C463 N461 1.263 . S
C463 N462 1.358 . S
C463 H469 0.930 . S
C464 N462 1.400 . S
C464 C465 1.351 . S
C464 H481 0.930 . S
C465 N461 1.389 . S
C465 C464 1.351 . S
C465 H470 0.930 . S
O466 Cu460 1.974 . S
O466 C476 1.282 . S
C467 O468 1.261 . S
C467 O480 1.251 . S
O468 C467 1.261 . S
H469 C463 0.930 . S
H470 C465 0.930 . S
N471 Cu460 1.985 . S
N471 C473 1.335 . S
N471 C474 1.390 . S
N472 C473 1.345 . S
N472 C475 1.336 . S
C473 N471 1.335 . S
C473 N472 1.345 . S
C473 H478 0.930 . S
C474 N471 1.390 . S
C474 C475 1.346 . S
C474 H479 0.930 . S
C475 N472 1.336 . S
C475 C474 1.346 . S
C475 H482 0.929 . S
C476 O466 1.282 . S
C476 O477 1.216 . S
O477 C476 1.216 . S
H478 C473 0.930 . S
H479 C474 0.930 . S
O480 Cu460 1.959 . S
O480 C467 1.251 . S
H481 C464 0.930 . S
H482 C475 0.929 . S
Cu483 N484 1.999 . S
Cu483 O489 1.974 . S
Cu483 N494 1.985 . S
Cu483 O503 1.959 . S
N484 Cu483 1.999 . S
N484 C486 1.263 . S
N484 C488 1.389 . S
N485 C486 1.358 . S
N485 C487 1.400 . S
C486 N484 1.263 . S
C486 N485 1.358 . S
C486 H492 0.930 . S
C487 N485 1.400 . S
C487 C488 1.351 . S
C487 H504 0.930 . S
C488 N484 1.389 . S
C488 C487 1.351 . S
C488 H493 0.930 . S
O489 Cu483 1.974 . S
O489 C499 1.282 . S
C490 O491 1.261 . S
C490 O503 1.251 . S
O491 C490 1.261 . S
H492 C486 0.930 . S
H493 C488 0.930 . S
N494 Cu483 1.985 . S
N494 C496 1.335 . S
N494 C497 1.390 . S
N495 C496 1.345 . S
N495 C498 1.336 . S
C496 N494 1.335 . S
C496 N495 1.345 . S
C496 H501 0.930 . S
C497 N494 1.390 . S
C497 C498 1.346 . S
C497 H502 0.930 . S
C498 N495 1.336 . S
C498 C497 1.346 . S
C498 H505 0.929 . S
C499 O489 1.282 . S
C499 O500 1.216 . S
O500 C499 1.216 . S
H501 C496 0.930 . S
H502 C497 0.930 . S
O503 Cu483 1.959 . S
O503 C490 1.251 . S
H504 C487 0.930 . S
H505 C498 0.929 . S
Cu506 N507 1.999 . S
Cu506 O512 1.974 . S
Cu506 N517 1.985 . S
Cu506 O526 1.959 . S
N507 Cu506 1.999 . S
N507 C509 1.263 . S
N507 C511 1.389 . S
N508 C509 1.358 . S
N508 C510 1.400 . S
C509 N507 1.263 . S
C509 N508 1.358 . S
C509 H515 0.930 . S
C510 N508 1.400 . S
C510 C511 1.351 . S
C510 H527 0.930 . S
C511 N507 1.389 . S
C511 C510 1.351 . S
C511 H516 0.930 . S
O512 Cu506 1.974 . S
O512 C522 1.282 . S
C513 O514 1.261 . S
C513 O526 1.251 1_554 S
O514 C513 1.261 . S
H515 C509 0.930 . S
H516 C511 0.930 . S
N517 Cu506 1.985 . S
N517 C519 1.335 . S
N517 C520 1.390 . S
N518 C519 1.345 . S
N518 C521 1.336 . S
C519 N517 1.335 . S
C519 N518 1.345 . S
C519 H524 0.930 . S
C520 N517 1.390 . S
C520 C521 1.346 . S
C520 H525 0.930 . S
C521 N518 1.336 . S
C521 C520 1.346 . S
C521 H528 0.929 . S
C522 O512 1.282 . S
C522 O523 1.216 . S
O523 C522 1.216 . S
H524 C519 0.930 . S
H525 C520 0.930 . S
O526 Cu506 1.959 . S
O526 C513 1.251 1_556 S
H527 C510 0.930 . S
H528 C521 0.929 . S
Cu529 N530 1.999 . S
Cu529 O535 1.974 . S
Cu529 N540 1.985 . S
Cu529 O549 1.959 . S
N530 Cu529 1.999 . S
N530 C532 1.263 . S
N530 C534 1.389 . S
N531 C532 1.358 . S
N531 C533 1.400 . S
C532 N530 1.263 . S
C532 N531 1.358 . S
C532 H538 0.930 . S
C533 N531 1.400 . S
C533 C534 1.351 . S
C533 H550 0.930 . S
C534 N530 1.389 . S
C534 C533 1.351 . S
C534 H539 0.930 . S
O535 Cu529 1.974 . S
O535 C545 1.282 . S
C536 O537 1.261 . S
C536 O549 1.251 1_554 S
O537 C536 1.261 . S
H538 C532 0.930 . S
H539 C534 0.930 . S
N540 Cu529 1.985 . S
N540 C542 1.335 . S
N540 C543 1.390 . S
N541 C542 1.345 1_554 S
N541 C544 1.336 1_554 S
C542 N540 1.335 . S
C542 N541 1.345 1_556 S
C542 H547 0.930 1_556 S
C543 N540 1.390 . S
C543 C544 1.346 . S
C543 H548 0.930 . S
C544 N541 1.336 1_556 S
C544 C543 1.346 . S
C544 H551 0.929 . S
C545 O535 1.282 . S
C545 O546 1.216 . S
O546 C545 1.216 . S
H547 C542 0.930 1_554 S
H548 C543 0.930 . S
O549 Cu529 1.959 . S
O549 C536 1.251 1_556 S
H550 C533 0.930 . S
H551 C544 0.929 . S
Cu552 N553 1.999 . S
Cu552 O558 1.974 . S
Cu552 N563 1.985 . S
Cu552 O572 1.959 . S
N553 Cu552 1.999 . S
N553 C555 1.263 . S
N553 C557 1.389 . S
N554 C555 1.358 . S
N554 C556 1.400 . S
C555 N553 1.263 . S
C555 N554 1.358 . S
C555 H561 0.930 . S
C556 N554 1.400 . S
C556 C557 1.351 . S
C556 H573 0.930 . S
C557 N553 1.389 . S
C557 C556 1.351 . S
C557 H562 0.930 . S
O558 Cu552 1.974 . S
O558 C568 1.282 . S
C559 O560 1.261 . S
C559 O572 1.251 . S
O560 C559 1.261 . S
H561 C555 0.930 . S
H562 C557 0.930 . S
N563 Cu552 1.985 . S
N563 C565 1.335 . S
N563 C566 1.390 . S
N564 C565 1.345 . S
N564 C567 1.336 . S
C565 N563 1.335 . S
C565 N564 1.345 . S
C565 H570 0.930 . S
C566 N563 1.390 . S
C566 C567 1.346 . S
C566 H571 0.930 . S
C567 N564 1.336 . S
C567 C566 1.346 . S
C567 H574 0.929 . S
C568 O558 1.282 . S
C568 O569 1.216 . S
O569 C568 1.216 . S
H570 C565 0.930 . S
H571 C566 0.930 . S
O572 Cu552 1.959 . S
O572 C559 1.251 . S
H573 C556 0.930 . S
H574 C567 0.929 . S
Cu575 N576 1.999 . S
Cu575 O581 1.974 . S
Cu575 N586 1.985 . S
Cu575 O595 1.959 . S
N576 Cu575 1.999 . S
N576 C578 1.263 . S
N576 C580 1.389 . S
N577 C578 1.358 . S
N577 C579 1.400 . S
C578 N576 1.263 . S
C578 N577 1.358 . S
C578 H584 0.930 . S
C579 N577 1.400 . S
C579 C580 1.351 . S
C579 H596 0.930 . S
C580 N576 1.389 . S
C580 C579 1.351 . S
C580 H585 0.930 . S
O581 Cu575 1.974 . S
O581 C591 1.282 . S
C582 O583 1.261 . S
C582 O595 1.251 . S
O583 C582 1.261 . S
H584 C578 0.930 . S
H585 C580 0.930 . S
N586 Cu575 1.985 . S
N586 C588 1.335 . S
N586 C589 1.390 . S
N587 C588 1.345 . S
N587 C590 1.336 . S
C588 N586 1.335 . S
C588 N587 1.345 . S
C588 H593 0.930 . S
C589 N586 1.390 . S
C589 C590 1.346 . S
C589 H594 0.930 . S
C590 N587 1.336 . S
C590 C589 1.346 . S
C590 H597 0.929 . S
C591 O581 1.282 . S
C591 O592 1.216 . S
O592 C591 1.216 . S
H593 C588 0.930 . S
H594 C589 0.930 . S
O595 Cu575 1.959 . S
O595 C582 1.251 . S
H596 C579 0.930 . S
H597 C590 0.929 . S
Cu598 N599 1.999 . S
Cu598 O604 1.974 . S
Cu598 N609 1.985 . S
Cu598 O618 1.959 . S
N599 Cu598 1.999 . S
N599 C601 1.263 . S
N599 C603 1.389 . S
N600 C601 1.358 . S
N600 C602 1.400 . S
C601 N599 1.263 . S
C601 N600 1.358 . S
C601 H607 0.930 . S
C602 N600 1.400 . S
C602 C603 1.351 . S
C602 H619 0.930 . S
C603 N599 1.389 . S
C603 C602 1.351 . S
C603 H608 0.930 . S
O604 Cu598 1.974 . S
O604 C614 1.282 . S
C605 O606 1.261 . S
C605 O618 1.251 . S
O606 C605 1.261 . S
H607 C601 0.930 . S
H608 C603 0.930 . S
N609 Cu598 1.985 . S
N609 C611 1.335 . S
N609 C612 1.390 . S
N610 C611 1.345 . S
N610 C613 1.336 . S
C611 N609 1.335 . S
C611 N610 1.345 . S
C611 H616 0.930 . S
C612 N609 1.390 . S
C612 C613 1.346 . S
C612 H617 0.930 . S
C613 N610 1.336 . S
C613 C612 1.346 . S
C613 H620 0.929 . S
C614 O604 1.282 . S
C614 O615 1.216 . S
O615 C614 1.216 . S
H616 C611 0.930 . S
H617 C612 0.930 . S
O618 Cu598 1.959 . S
O618 C605 1.251 . S
H619 C602 0.930 . S
H620 C613 0.929 . S
Cu621 N622 1.999 . S
Cu621 O627 1.974 . S
Cu621 N632 1.985 . S
Cu621 O641 1.959 . S
N622 Cu621 1.999 . S
N622 C624 1.263 . S
N622 C626 1.389 . S
N623 C624 1.358 . S
N623 C625 1.400 . S
C624 N622 1.263 . S
C624 N623 1.358 . S
C624 H630 0.930 . S
C625 N623 1.400 . S
C625 C626 1.351 . S
C625 H642 0.930 . S
C626 N622 1.389 . S
C626 C625 1.351 . S
C626 H631 0.930 . S
O627 Cu621 1.974 . S
O627 C637 1.282 . S
C628 O629 1.261 . S
C628 O641 1.251 . S
O629 C628 1.261 . S
H630 C624 0.930 . S
H631 C626 0.930 . S
N632 Cu621 1.985 . S
N632 C634 1.335 . S
N632 C635 1.390 . S
N633 C634 1.345 . S
N633 C636 1.336 . S
C634 N632 1.335 . S
C634 N633 1.345 . S
C634 H639 0.930 . S
C635 N632 1.390 . S
C635 C636 1.346 . S
C635 H640 0.930 . S
C636 N633 1.336 . S
C636 C635 1.346 . S
C636 H643 0.929 . S
C637 O627 1.282 . S
C637 O638 1.216 . S
O638 C637 1.216 . S
H639 C634 0.930 . S
H640 C635 0.930 . S
O641 Cu621 1.959 . S
O641 C628 1.251 . S
H642 C625 0.930 . S
H643 C636 0.929 . S
Cu644 N645 1.999 . S
Cu644 O650 1.974 . S
Cu644 N655 1.985 . S
Cu644 O664 1.959 . S
N645 Cu644 1.999 . S
N645 C647 1.263 . S
N645 C649 1.389 . S
N646 C647 1.358 . S
N646 C648 1.400 . S
C647 N645 1.263 . S
C647 N646 1.358 . S
C647 H653 0.930 . S
C648 N646 1.400 . S
C648 C649 1.351 . S
C648 H665 0.930 . S
C649 N645 1.389 . S
C649 C648 1.351 . S
C649 H654 0.930 . S
O650 Cu644 1.974 . S
O650 C660 1.282 . S
C651 O652 1.261 . S
C651 O664 1.251 . S
O652 C651 1.261 . S
H653 C647 0.930 . S
H654 C649 0.930 . S
N655 Cu644 1.985 . S
N655 C657 1.335 . S
N655 C658 1.390 . S
N656 C657 1.345 . S
N656 C659 1.336 . S
C657 N655 1.335 . S
C657 N656 1.345 . S
C657 H662 0.930 . S
C658 N655 1.390 . S
C658 C659 1.346 . S
C658 H663 0.930 . S
C659 N656 1.336 . S
C659 C658 1.346 . S
C659 H666 0.929 . S
C660 O650 1.282 . S
C660 O661 1.216 . S
O661 C660 1.216 . S
H662 C657 0.930 . S
H663 C658 0.930 . S
O664 Cu644 1.959 . S
O664 C651 1.251 . S
H665 C648 0.930 . S
H666 C659 0.929 . S
Cu667 N668 1.999 . S
Cu667 O673 1.974 . S
Cu667 N678 1.985 . S
Cu667 O687 1.959 . S
N668 Cu667 1.999 . S
N668 C670 1.263 . S
N668 C672 1.389 . S
N669 C670 1.358 1_556 S
N669 C671 1.400 . S
C670 N668 1.263 . S
C670 N669 1.358 1_554 S
C670 H676 0.930 . S
C671 N669 1.400 . S
C671 C672 1.351 1_556 S
C671 H688 0.930 . S
C672 N668 1.389 . S
C672 C671 1.351 1_554 S
C672 H677 0.930 . S
O673 Cu667 1.974 . S
O673 C683 1.282 . S
C674 O675 1.261 . S
C674 O687 1.251 . S
O675 C674 1.261 . S
H676 C670 0.930 . S
H677 C672 0.930 . S
N678 Cu667 1.985 . S
N678 C680 1.335 . S
N678 C681 1.390 . S
N679 C680 1.345 . S
N679 C682 1.336 . S
C680 N678 1.335 . S
C680 N679 1.345 . S
C680 H685 0.930 . S
C681 N678 1.390 . S
C681 C682 1.346 . S
C681 H686 0.930 . S
C682 N679 1.336 . S
C682 C681 1.346 . S
C682 H689 0.929 . S
C683 O673 1.282 . S
C683 O684 1.216 . S
O684 C683 1.216 . S
H685 C680 0.930 . S
H686 C681 0.930 . S
O687 Cu667 1.959 . S
O687 C674 1.251 . S
H688 C671 0.930 . S
H689 C682 0.929 . S
Cu690 N691 1.999 . S
Cu690 O696 1.974 . S
Cu690 N701 1.985 . S
Cu690 O710 1.959 . S
N691 Cu690 1.999 . S
N691 C693 1.263 . S
N691 C695 1.389 . S
N692 C693 1.358 . S
N692 C694 1.400 . S
C693 N691 1.263 . S
C693 N692 1.358 . S
C693 H699 0.930 . S
C694 N692 1.400 . S
C694 C695 1.351 . S
C694 H711 0.930 . S
C695 N691 1.389 . S
C695 C694 1.351 . S
C695 H700 0.930 . S
O696 Cu690 1.974 . S
O696 C706 1.282 . S
C697 O698 1.261 . S
C697 O710 1.251 . S
O698 C697 1.261 . S
H699 C693 0.930 . S
H700 C695 0.930 . S
N701 Cu690 1.985 . S
N701 C703 1.335 . S
N701 C704 1.390 . S
N702 C703 1.345 . S
N702 C705 1.336 . S
C703 N701 1.335 . S
C703 N702 1.345 . S
C703 H708 0.930 . S
C704 N701 1.390 . S
C704 C705 1.346 . S
C704 H709 0.930 . S
C705 N702 1.336 . S
C705 C704 1.346 . S
C705 H712 0.929 . S
C706 O696 1.282 . S
C706 O707 1.216 . S
O707 C706 1.216 . S
H708 C703 0.930 . S
H709 C704 0.930 . S
O710 Cu690 1.959 . S
O710 C697 1.251 . S
H711 C694 0.930 . S
H712 C705 0.929 . S
Cu713 N714 1.999 . S
Cu713 O719 1.974 . S
Cu713 N724 1.985 . S
Cu713 O733 1.959 . S
N714 Cu713 1.999 . S
N714 C716 1.263 . S
N714 C718 1.389 . S
N715 C716 1.358 . S
N715 C717 1.400 . S
C716 N714 1.263 . S
C716 N715 1.358 . S
C716 H722 0.930 . S
C717 N715 1.400 . S
C717 C718 1.351 . S
C717 H734 0.930 . S
C718 N714 1.389 . S
C718 C717 1.351 . S
C718 H723 0.930 . S
O719 Cu713 1.974 . S
O719 C729 1.282 . S
C720 O721 1.261 . S
C720 O733 1.251 . S
O721 C720 1.261 . S
H722 C716 0.930 . S
H723 C718 0.930 . S
N724 Cu713 1.985 . S
N724 C726 1.335 . S
N724 C727 1.390 . S
N725 C726 1.345 . S
N725 C728 1.336 . S
C726 N724 1.335 . S
C726 N725 1.345 . S
C726 H731 0.930 . S
C727 N724 1.390 . S
C727 C728 1.346 . S
C727 H732 0.930 . S
C728 N725 1.336 . S
C728 C727 1.346 . S
C728 H735 0.929 . S
C729 O719 1.282 . S
C729 O730 1.216 . S
O730 C729 1.216 . S
H731 C726 0.930 . S
H732 C727 0.930 . S
O733 Cu713 1.959 . S
O733 C720 1.251 . S
H734 C717 0.930 . S
H735 C728 0.929 . S
Cu736 N737 1.999 . S
Cu736 O742 1.974 . S
Cu736 N747 1.985 . S
Cu736 O756 1.959 . S
N737 Cu736 1.999 . S
N737 C739 1.263 . S
N737 C741 1.389 . S
N738 C739 1.358 . S
N738 C740 1.400 . S
C739 N737 1.263 . S
C739 N738 1.358 . S
C739 H745 0.930 . S
C740 N738 1.400 . S
C740 C741 1.351 . S
C740 H757 0.930 . S
C741 N737 1.389 . S
C741 C740 1.351 . S
C741 H746 0.930 . S
O742 Cu736 1.974 . S
O742 C752 1.282 . S
C743 O744 1.261 . S
C743 O756 1.251 . S
O744 C743 1.261 . S
H745 C739 0.930 . S
H746 C741 0.930 . S
N747 Cu736 1.985 . S
N747 C749 1.335 . S
N747 C750 1.390 . S
N748 C749 1.345 . S
N748 C751 1.336 . S
C749 N747 1.335 . S
C749 N748 1.345 . S
C749 H754 0.930 . S
C750 N747 1.390 . S
C750 C751 1.346 . S
C750 H755 0.930 . S
C751 N748 1.336 . S
C751 C750 1.346 . S
C751 H758 0.929 . S
C752 O742 1.282 . S
C752 O753 1.216 . S
O753 C752 1.216 . S
H754 C749 0.930 . S
H755 C750 0.930 . S
O756 Cu736 1.959 . S
O756 C743 1.251 . S
H757 C740 0.930 . S
H758 C751 0.929 . S
Cu759 N760 1.999 . S
Cu759 O765 1.974 . S
Cu759 N770 1.985 . S
Cu759 O779 1.959 . S
N760 Cu759 1.999 . S
N760 C762 1.263 . S
N760 C764 1.389 . S
N761 C762 1.358 . S
N761 C763 1.400 . S
C762 N760 1.263 . S
C762 N761 1.358 . S
C762 H768 0.930 . S
C763 N761 1.400 . S
C763 C764 1.351 . S
C763 H780 0.930 . S
C764 N760 1.389 . S
C764 C763 1.351 . S
C764 H769 0.930 . S
O765 Cu759 1.974 . S
O765 C775 1.282 . S
C766 O767 1.261 . S
C766 O779 1.251 . S
O767 C766 1.261 . S
H768 C762 0.930 . S
H769 C764 0.930 . S
N770 Cu759 1.985 . S
N770 C772 1.335 . S
N770 C773 1.390 . S
N771 C772 1.345 . S
N771 C774 1.336 . S
C772 N770 1.335 . S
C772 N771 1.345 . S
C772 H777 0.930 . S
C773 N770 1.390 . S
C773 C774 1.346 . S
C773 H778 0.930 . S
C774 N771 1.336 . S
C774 C773 1.346 . S
C774 H781 0.929 . S
C775 O765 1.282 . S
C775 O776 1.216 . S
O776 C775 1.216 . S
H777 C772 0.930 . S
H778 C773 0.930 . S
O779 Cu759 1.959 . S
O779 C766 1.251 . S
H780 C763 0.930 . S
H781 C774 0.929 . S
Cu782 N783 1.999 . S
Cu782 O788 1.974 . S
Cu782 N793 1.985 . S
Cu782 O802 1.959 . S
N783 Cu782 1.999 . S
N783 C785 1.263 . S
N783 C787 1.389 . S
N784 C785 1.358 . S
N784 C786 1.400 . S
C785 N783 1.263 . S
C785 N784 1.358 . S
C785 H791 0.930 . S
C786 N784 1.400 . S
C786 C787 1.351 . S
C786 H803 0.930 . S
C787 N783 1.389 . S
C787 C786 1.351 . S
C787 H792 0.930 . S
O788 Cu782 1.974 . S
O788 C798 1.282 . S
C789 O790 1.261 . S
C789 O802 1.251 . S
O790 C789 1.261 . S
H791 C785 0.930 . S
H792 C787 0.930 . S
N793 Cu782 1.985 . S
N793 C795 1.335 . S
N793 C796 1.390 . S
N794 C795 1.345 . S
N794 C797 1.336 . S
C795 N793 1.335 . S
C795 N794 1.345 . S
C795 H800 0.930 . S
C796 N793 1.390 . S
C796 C797 1.346 . S
C796 H801 0.930 . S
C797 N794 1.336 . S
C797 C796 1.346 . S
C797 H804 0.929 . S
C798 O788 1.282 . S
C798 O799 1.216 . S
O799 C798 1.216 . S
H800 C795 0.930 . S
H801 C796 0.930 . S
O802 Cu782 1.959 . S
O802 C789 1.251 . S
H803 C786 0.930 . S
H804 C797 0.929 . S
Cu805 N806 1.999 . S
Cu805 O811 1.974 . S
Cu805 N816 1.985 . S
Cu805 O825 1.959 . S
N806 Cu805 1.999 . S
N806 C808 1.263 . S
N806 C810 1.389 . S
N807 C808 1.358 . S
N807 C809 1.400 . S
C808 N806 1.263 . S
C808 N807 1.358 . S
C808 H814 0.930 . S
C809 N807 1.400 . S
C809 C810 1.351 . S
C809 H826 0.930 . S
C810 N806 1.389 . S
C810 C809 1.351 . S
C810 H815 0.930 . S
O811 Cu805 1.974 . S
O811 C821 1.282 . S
C812 O813 1.261 . S
C812 O825 1.251 . S
O813 C812 1.261 . S
H814 C808 0.930 . S
H815 C810 0.930 . S
N816 Cu805 1.985 . S
N816 C818 1.335 . S
N816 C819 1.390 . S
N817 C818 1.345 . S
N817 C820 1.336 . S
C818 N816 1.335 . S
C818 N817 1.345 . S
C818 H823 0.930 . S
C819 N816 1.390 . S
C819 C820 1.346 . S
C819 H824 0.930 . S
C820 N817 1.336 . S
C820 C819 1.346 . S
C820 H827 0.929 . S
C821 O811 1.282 . S
C821 O822 1.216 . S
O822 C821 1.216 . S
H823 C818 0.930 . S
H824 C819 0.930 . S
O825 Cu805 1.959 . S
O825 C812 1.251 . S
H826 C809 0.930 . S
H827 C820 0.929 . S
C828 C829 1.387 . S
C828 H832 0.950 . S
C828 C837 1.390 . S
C829 C828 1.387 . S
C829 C831 1.387 . S
H830 C837 0.950 . S
C831 C829 1.387 . S
C831 C833 1.390 . S
C831 H835 0.950 1_556 S
H832 C828 0.950 . S
C833 C831 1.390 . S
C833 C834 1.387 . S
C833 H836 0.950 . S
C834 C833 1.387 . S
C834 C837 1.387 . S
H835 C831 0.950 1_554 S
H836 C833 0.950 . S
C837 C828 1.390 . S
C837 H830 0.950 . S
C837 C834 1.387 . S
C838 C839 1.387 . S
C838 H842 0.950 . S
C838 C847 1.390 . S
C839 C838 1.387 . S
C839 C841 1.387 1_554 S
H840 C847 0.950 . S
C841 C839 1.387 1_556 S
C841 C843 1.390 . S
C841 H845 0.950 . S
H842 C838 0.950 . S
C843 C841 1.390 . S
C843 C844 1.387 . S
C843 H846 0.950 . S
C844 C843 1.387 . S
C844 C847 1.387 1_556 S
H845 C841 0.950 . S
H846 C843 0.950 . S
C847 C838 1.390 . S
C847 H840 0.950 . S
C847 C844 1.387 1_554 S
C848 C849 1.387 . S
C848 H852 0.950 . S
C848 C857 1.390 . S
C849 C848 1.387 . S
C849 C851 1.420 . S
H850 C857 0.950 . S
C851 C849 1.420 . S
C851 C853 1.367 1_556 S
C851 H855 0.940 1_556 S
H852 C848 0.950 . S
C853 C851 1.367 1_554 S
C853 C854 1.387 . S
C853 H856 0.950 . S
C854 C853 1.387 . S
C854 C857 1.387 1_554 S
H855 C851 0.940 1_554 S
H856 C853 0.950 . S
C857 C848 1.390 . S
C857 H850 0.950 . S
C857 C854 1.387 1_556 S
C858 C859 1.387 . S
C858 H862 0.950 . S
C858 C867 1.390 . S
C859 C858 1.387 . S
C859 C861 1.387 . S
H860 C867 0.950 . S
C861 C859 1.387 . S
C861 C863 1.390 . S
C861 H865 0.950 . S
H862 C858 0.950 . S
C863 C861 1.390 . S
C863 C864 1.387 . S
C863 H866 0.950 . S
C864 C863 1.387 . S
C864 C867 1.387 . S
H865 C861 0.950 . S
H866 C863 0.950 . S
C867 C858 1.390 . S
C867 H860 0.950 . S
C867 C864 1.387 . S
C868 C869 1.387 . S
C868 H872 0.950 . S
C868 C877 1.390 . S
C869 C868 1.387 . S
C869 C871 1.387 . S
H870 C877 0.950 . S
C871 C869 1.387 . S
C871 C873 1.390 . S
C871 H875 0.950 . S
H872 C868 0.950 . S
C873 C871 1.390 . S
C873 C874 1.387 . S
C873 H876 0.950 . S
C874 C873 1.387 . S
C874 C877 1.387 . S
H875 C871 0.950 . S
H876 C873 0.950 . S
C877 C868 1.390 . S
C877 H870 0.950 . S
C877 C874 1.387 . S
C878 C879 1.387 . S
C878 H882 0.950 . S
C878 C887 1.390 . S
C879 C878 1.387 . S
C879 C881 1.387 . S
H880 C887 0.950 . S
C881 C879 1.387 . S
C881 C883 1.390 . S
C881 H885 0.950 . S
H882 C878 0.950 . S
C883 C881 1.390 . S
C883 C884 1.387 . S
C883 H886 0.950 . S
C884 C883 1.387 . S
C884 C887 1.387 . S
H885 C881 0.950 . S
H886 C883 0.950 . S
C887 C878 1.390 . S
C887 H880 0.950 . S
C887 C884 1.387 . S
C888 C889 1.387 . S
C888 H892 0.950 . S
C888 C897 1.390 1_554 S
C889 C888 1.387 . S
C889 C891 1.387 . S
H890 C897 0.950 . S
C891 C889 1.387 . S
C891 C893 1.390 1_554 S
C891 H895 0.950 . S
H892 C888 0.950 . S
C893 C891 1.390 1_556 S
C893 C894 1.387 . S
C893 H896 0.950 . S
C894 C893 1.387 . S
C894 C897 1.387 . S
H895 C891 0.950 . S
H896 C893 0.950 . S
C897 C888 1.390 1_556 S
C897 H890 0.950 . S
C897 C894 1.387 . S
C898 C899 1.387 1_556 S
C898 H902 0.950 . S
C898 C907 1.390 . S
C899 C898 1.387 1_554 S
C899 C901 1.387 . S
H900 C907 0.950 . S
C901 C899 1.387 . S
C901 C903 1.390 1_554 S
C901 H905 0.950 . S
H902 C898 0.950 . S
C903 C901 1.390 1_556 S
C903 C904 1.387 . S
C903 H906 0.950 . S
C904 C903 1.387 . S
C904 C907 1.387 . S
H905 C901 0.950 . S
H906 C903 0.950 . S
C907 C898 1.390 . S
C907 H900 0.950 . S
C907 C904 1.387 . S
C908 C909 1.387 1_554 S
C908 H912 0.950 . S
C908 C917 1.390 . S
C909 C908 1.387 1_556 S
C909 C911 1.387 . S
H910 C917 0.950 . S
C911 C909 1.387 . S
C911 C913 1.390 . S
C911 H915 0.950 . S
H912 C908 0.950 . S
C913 C911 1.390 . S
C913 C914 1.387 1_556 S
C913 H916 0.950 . S
C914 C913 1.387 1_554 S
C914 C917 1.387 . S
H915 C911 0.950 . S
H916 C913 0.950 . S
C917 C908 1.390 . S
C917 H910 0.950 . S
C917 C914 1.387 . S
C918 C919 1.387 . S
C918 H922 0.950 . S
C918 C927 1.390 . S
C919 C918 1.387 . S
C919 C921 1.387 . S
H920 C927 0.950 . S
C921 C919 1.387 . S
C921 C923 1.390 . S
C921 H925 0.950 . S
H922 C918 0.950 . S
C923 C921 1.390 . S
C923 C924 1.387 . S
C923 H926 0.950 . S
C924 C923 1.387 . S
C924 C927 1.387 . S
H925 C921 0.950 . S
H926 C923 0.950 . S
C927 C918 1.390 . S
C927 H920 0.950 . S
C927 C924 1.387 . S
C928 C929 1.387 . S
C928 H932 0.950 . S
C928 C937 1.390 . S
C929 C928 1.387 . S
C929 C931 1.387 . S
H930 C937 0.950 . S
C931 C929 1.387 . S
C931 C933 1.390 . S
C931 H935 0.950 . S
H932 C928 0.950 . S
C933 C931 1.390 . S
C933 C934 1.387 . S
C933 H936 0.950 . S
C934 C933 1.387 . S
C934 C937 1.387 . S
H935 C931 0.950 . S
H936 C933 0.950 . S
C937 C928 1.390 . S
C937 H930 0.950 . S
C937 C934 1.387 . S
C938 C939 1.387 . S
C938 H942 0.950 . S
C938 C947 1.390 . S
C939 C938 1.387 . S
C939 C941 1.387 . S
H940 C947 0.950 . S
C941 C939 1.387 . S
C941 C943 1.390 . S
C941 H945 0.950 . S
H942 C938 0.950 . S
C943 C941 1.390 . S
C943 C944 1.387 . S
C943 H946 0.950 . S
C944 C943 1.387 . S
C944 C947 1.387 . S
H945 C941 0.950 . S
H946 C943 0.950 . S
C947 C938 1.390 . S
C947 H940 0.950 . S
C947 C944 1.387 . S
C948 C949 1.387 . S
C948 H952 0.950 . S
C948 C957 1.390 . S
C949 C948 1.387 . S
C949 C951 1.387 . S
H950 C957 0.950 . S
C951 C949 1.387 . S
C951 C953 1.390 . S
C951 H955 0.950 . S
H952 C948 0.950 . S
C953 C951 1.390 . S
C953 C954 1.387 . S
C953 H956 0.950 . S
C954 C953 1.387 . S
C954 C957 1.387 . S
H955 C951 0.950 . S
H956 C953 0.950 . S
C957 C948 1.390 . S
C957 H950 0.950 . S
C957 C954 1.387 . S
C958 C959 1.387 . S
C958 H962 0.950 . S
C958 C967 1.390 . S
C959 C958 1.387 . S
C959 C961 1.387 . S
H960 C967 0.950 . S
C961 C959 1.387 . S
C961 C963 1.390 . S
C961 H965 0.950 . S
H962 C958 0.950 . S
C963 C961 1.390 . S
C963 C964 1.387 . S
C963 H966 0.950 . S
C964 C963 1.387 . S
C964 C967 1.387 . S
H965 C961 0.950 . S
H966 C963 0.950 . S
C967 C958 1.390 . S
C967 H960 0.950 . S
C967 C964 1.387 . S
C968 C969 1.387 . S
C968 H972 0.950 . S
C968 C977 1.390 . S
C969 C968 1.387 . S
C969 C971 1.387 . S
H970 C977 0.950 . S
C971 C969 1.387 . S
C971 C973 1.390 . S
C971 H975 0.950 . S
H972 C968 0.950 . S
C973 C971 1.390 . S
C973 C974 1.387 . S
C973 H976 0.950 . S
C974 C973 1.387 . S
C974 C977 1.387 . S
H975 C971 0.950 . S
H976 C973 0.950 . S
C977 C968 1.390 . S
C977 H970 0.950 . S
C977 C974 1.387 . S
C978 C979 1.387 . S
C978 H982 0.950 . S
C978 C987 1.390 . S
C979 C978 1.387 . S
C979 C981 1.387 . S
H980 C987 0.950 . S
C981 C979 1.387 . S
C981 C983 1.390 . S
C981 H985 0.950 . S
H982 C978 0.950 . S
C983 C981 1.390 . S
C983 C984 1.387 . S
C983 H986 0.950 . S
C984 C983 1.387 . S
C984 C987 1.387 . S
H985 C981 0.950 . S
H986 C983 0.950 . S
C987 C978 1.390 . S
C987 H980 0.950 . S
C987 C984 1.387 . S
C988 C989 1.387 . S
C988 H992 0.950 . S
C988 C997 1.390 . S
C989 C988 1.387 . S
C989 C991 1.387 . S
H990 C997 0.950 . S
C991 C989 1.387 . S
C991 C993 1.390 . S
C991 H995 0.950 . S
H992 C988 0.950 . S
C993 C991 1.390 . S
C993 C994 1.387 . S
C993 H996 0.950 . S
C994 C993 1.387 . S
C994 C997 1.387 . S
H995 C991 0.950 . S
H996 C993 0.950 . S
C997 C988 1.390 . S
C997 H990 0.950 . S
C997 C994 1.387 . S
C998 C999 1.387 . S
C998 H1002 0.950 . S
C998 C1007 1.390 . S
C999 C998 1.387 . S
C999 C1001 1.387 . S
H1000 C1007 0.950 . S
C1001 C999 1.387 . S
C1001 C1003 1.390 . S
C1001 H1005 0.950 . S
H1002 C998 0.950 . S
C1003 C1001 1.390 . S
C1003 C1004 1.387 . S
C1003 H1006 0.950 . S
C1004 C1003 1.387 . S
C1004 C1007 1.387 . S
H1005 C1001 0.950 . S
H1006 C1003 0.950 . S
C1007 C998 1.390 . S
C1007 H1000 0.950 . S
C1007 C1004 1.387 . S
C1008 C1009 1.387 . S
C1008 H1012 0.950 . S
C1008 C1017 1.390 . S
C1009 C1008 1.387 . S
C1009 C1011 1.387 . S
H1010 C1017 0.950 . S
C1011 C1009 1.387 . S
C1011 C1013 1.390 . S
C1011 H1015 0.950 . S
H1012 C1008 0.950 . S
C1013 C1011 1.390 . S
C1013 C1014 1.387 . S
C1013 H1016 0.950 . S
C1014 C1013 1.387 . S
C1014 C1017 1.387 . S
H1015 C1011 0.950 . S
H1016 C1013 0.950 . S
C1017 C1008 1.390 . S
C1017 H1010 0.950 . S
C1017 C1014 1.387 . S
C1018 C1019 1.387 . S
C1018 H1022 0.950 . S
C1018 C1027 1.390 . S
C1019 C1018 1.387 . S
C1019 C1021 1.387 . S
H1020 C1027 0.950 . S
C1021 C1019 1.387 . S
C1021 C1023 1.390 . S
C1021 H1025 0.950 . S
H1022 C1018 0.950 . S
C1023 C1021 1.390 . S
C1023 C1024 1.387 . S
C1023 H1026 0.950 . S
C1024 C1023 1.387 . S
C1024 C1027 1.387 . S
H1025 C1021 0.950 . S
H1026 C1023 0.950 . S
C1027 C1018 1.390 . S
C1027 H1020 0.950 . S
C1027 C1024 1.387 . S
C1028 C1029 1.387 . S
C1028 H1032 0.950 . S
C1028 C1037 1.390 . S
C1029 C1028 1.387 . S
C1029 C1031 1.387 . S
H1030 C1037 0.950 . S
C1031 C1029 1.387 . S
C1031 C1033 1.390 . S
C1031 H1035 0.950 . S
H1032 C1028 0.950 . S
C1033 C1031 1.390 . S
C1033 C1034 1.387 . S
C1033 H1036 0.950 . S
C1034 C1033 1.387 . S
C1034 C1037 1.387 . S
H1035 C1031 0.950 . S
H1036 C1033 0.950 . S
C1037 C1028 1.390 . S
C1037 H1030 0.950 . S
C1037 C1034 1.387 . S
C1038 C1039 1.387 . S
C1038 H1042 0.950 . S
C1038 C1047 1.390 . S
C1039 C1038 1.387 . S
C1039 C1041 1.387 . S
H1040 C1047 0.950 . S
C1041 C1039 1.387 . S
C1041 C1043 1.390 . S
C1041 H1045 0.950 . S
H1042 C1038 0.950 . S
C1043 C1041 1.390 . S
C1043 C1044 1.387 . S
C1043 H1046 0.950 . S
C1044 C1043 1.387 . S
C1044 C1047 1.387 . S
H1045 C1041 0.950 . S
H1046 C1043 0.950 . S
C1047 C1038 1.390 . S
C1047 H1040 0.950 . S
C1047 C1044 1.387 . S
C1048 C1049 1.387 . S
C1048 H1052 0.950 . S
C1048 C1057 1.390 . S
C1049 C1048 1.387 . S
C1049 C1051 1.387 . S
H1050 C1057 0.950 . S
C1051 C1049 1.387 . S
C1051 C1053 1.390 . S
C1051 H1055 0.950 . S
H1052 C1048 0.950 . S
C1053 C1051 1.390 . S
C1053 C1054 1.387 . S
C1053 H1056 0.950 . S
C1054 C1053 1.387 . S
C1054 C1057 1.387 . S
H1055 C1051 0.950 . S
H1056 C1053 0.950 . S
C1057 C1048 1.390 . S
C1057 H1050 0.950 . S
C1057 C1054 1.387 . S
C1058 C1059 1.387 . S
C1058 H1062 0.950 . S
C1058 C1067 1.390 . S
C1059 C1058 1.387 . S
C1059 C1061 1.387 . S
H1060 C1067 0.950 . S
C1061 C1059 1.387 . S
C1061 C1063 1.390 . S
C1061 H1065 0.950 . S
H1062 C1058 0.950 . S
C1063 C1061 1.390 . S
C1063 C1064 1.387 . S
C1063 H1066 0.950 . S
C1064 C1063 1.387 . S
C1064 C1067 1.387 . S
H1065 C1061 0.950 . S
H1066 C1063 0.950 . S
C1067 C1058 1.390 . S
C1067 H1060 0.950 . S
C1067 C1064 1.387 . S
C1068 C1069 1.387 . S
C1068 H1072 0.950 . S
C1068 C1077 1.390 . S
C1069 C1068 1.387 . S
C1069 C1071 1.387 . S
H1070 C1077 0.950 . S
C1071 C1069 1.387 . S
C1071 C1073 1.390 . S
C1071 H1075 0.950 . S
H1072 C1068 0.950 . S
C1073 C1071 1.390 . S
C1073 C1074 1.387 . S
C1073 H1076 0.950 . S
C1074 C1073 1.387 . S
C1074 C1077 1.387 . S
H1075 C1071 0.950 . S
H1076 C1073 0.950 . S
C1077 C1068 1.390 . S
C1077 H1070 0.950 . S
C1077 C1074 1.387 . S
C1078 C1079 1.387 . S
C1078 H1082 0.950 . S
C1078 C1087 1.390 . S
C1079 C1078 1.387 . S
C1079 C1081 1.387 . S
H1080 C1087 0.950 . S
C1081 C1079 1.387 . S
C1081 C1083 1.390 . S
C1081 H1085 0.950 . S
H1082 C1078 0.950 . S
C1083 C1081 1.390 . S
C1083 C1084 1.387 . S
C1083 H1086 0.950 . S
C1084 C1083 1.387 . S
C1084 C1087 1.387 . S
H1085 C1081 0.950 . S
H1086 C1083 0.950 . S
C1087 C1078 1.390 . S
C1087 H1080 0.950 . S
C1087 C1084 1.387 . S
C1088 C1089 1.387 . S
C1088 H1092 0.950 . S
C1088 C1097 1.390 . S
C1089 C1088 1.387 . S
C1089 C1091 1.387 . S
H1090 C1097 0.950 . S
C1091 C1089 1.387 . S
C1091 C1093 1.390 . S
C1091 H1095 0.950 . S
H1092 C1088 0.950 . S
C1093 C1091 1.390 . S
C1093 C1094 1.387 . S
C1093 H1096 0.950 . S
C1094 C1093 1.387 . S
C1094 C1097 1.387 . S
H1095 C1091 0.950 . S
H1096 C1093 0.950 . S
C1097 C1088 1.390 . S
C1097 H1090 0.950 . S
C1097 C1094 1.387 . S
C1098 C1099 1.387 . S
C1098 H1102 0.950 . S
C1098 C1107 1.390 . S
C1099 C1098 1.387 . S
C1099 C1101 1.387 . S
H1100 C1107 0.950 . S
C1101 C1099 1.387 . S
C1101 C1103 1.390 . S
C1101 H1105 0.950 . S
H1102 C1098 0.950 . S
C1103 C1101 1.390 . S
C1103 C1104 1.387 . S
C1103 H1106 0.950 . S
C1104 C1103 1.387 . S
C1104 C1107 1.387 . S
H1105 C1101 0.950 . S
H1106 C1103 0.950 . S
C1107 C1098 1.390 . S
C1107 H1100 0.950 . S
C1107 C1104 1.387 . S
C1108 C1109 1.387 . S
C1108 H1112 0.950 . S
C1108 C1117 1.390 . S
C1109 C1108 1.387 . S
C1109 C1111 1.387 . S
H1110 C1117 0.950 . S
C1111 C1109 1.387 . S
C1111 C1113 1.390 . S
C1111 H1115 0.950 . S
H1112 C1108 0.950 . S
C1113 C1111 1.390 . S
C1113 C1114 1.387 . S
C1113 H1116 0.950 . S
C1114 C1113 1.387 . S
C1114 C1117 1.387 . S
H1115 C1111 0.950 . S
H1116 C1113 0.950 . S
C1117 C1108 1.390 . S
C1117 H1110 0.950 . S
C1117 C1114 1.387 . S
C1118 C1119 1.387 . S
C1118 H1122 0.950 . S
C1118 C1127 1.390 . S
C1119 C1118 1.387 . S
C1119 C1121 1.387 . S
H1120 C1127 0.950 . S
C1121 C1119 1.387 . S
C1121 C1123 1.390 . S
C1121 H1125 0.950 . S
H1122 C1118 0.950 . S
C1123 C1121 1.390 . S
C1123 C1124 1.387 . S
C1123 H1126 0.950 . S
C1124 C1123 1.387 . S
C1124 C1127 1.387 . S
H1125 C1121 0.950 . S
H1126 C1123 0.950 . S
C1127 C1118 1.390 . S
C1127 H1120 0.950 . S
C1127 C1124 1.387 . S
C1128 C1129 1.387 . S
C1128 H1132 0.950 . S
C1128 C1137 1.390 . S
C1129 C1128 1.387 . S
C1129 C1131 1.387 . S
H1130 C1137 0.950 . S
C1131 C1129 1.387 . S
C1131 C1133 1.390 . S
C1131 H1135 0.950 . S
H1132 C1128 0.950 . S
C1133 C1131 1.390 . S
C1133 C1134 1.387 . S
C1133 H1136 0.950 . S
C1134 C1133 1.387 . S
C1134 C1137 1.387 . S
H1135 C1131 0.950 . S
H1136 C1133 0.950 . S
C1137 C1128 1.390 . S
C1137 H1130 0.950 . S
C1137 C1134 1.387 . S
C1138 C1139 1.387 . S
C1138 H1142 0.950 . S
C1138 C1147 1.390 . S
C1139 C1138 1.387 . S
C1139 C1141 1.387 . S
H1140 C1147 0.950 . S
C1141 C1139 1.387 . S
C1141 C1143 1.390 . S
C1141 H1145 0.950 . S
H1142 C1138 0.950 . S
C1143 C1141 1.390 . S
C1143 C1144 1.387 . S
C1143 H1146 0.950 . S
C1144 C1143 1.387 . S
C1144 C1147 1.387 . S
H1145 C1141 0.950 . S
H1146 C1143 0.950 . S
C1147 C1138 1.390 . S
C1147 H1140 0.950 . S
C1147 C1144 1.387 . S
C1148 C1149 1.387 . S
C1148 H1152 0.950 . S
C1148 C1157 1.390 . S
C1149 C1148 1.387 . S
C1149 C1151 1.387 . S
H1150 C1157 0.950 . S
C1151 C1149 1.387 . S
C1151 C1153 1.390 . S
C1151 H1155 0.950 . S
H1152 C1148 0.950 . S
C1153 C1151 1.390 . S
C1153 C1154 1.387 . S
C1153 H1156 0.950 . S
C1154 C1153 1.387 . S
C1154 C1157 1.387 . S
H1155 C1151 0.950 . S
H1156 C1153 0.950 . S
C1157 C1148 1.390 . S
C1157 H1150 0.950 . S
C1157 C1154 1.387 . S
C1158 C1159 1.387 . S
C1158 H1162 0.950 . S
C1158 C1167 1.390 . S
C1159 C1158 1.387 . S
C1159 C1161 1.387 . S
H1160 C1167 0.950 . S
C1161 C1159 1.387 . S
C1161 C1163 1.390 . S
C1161 H1165 0.950 . S
H1162 C1158 0.950 . S
C1163 C1161 1.390 . S
C1163 C1164 1.387 . S
C1163 H1166 0.950 . S
C1164 C1163 1.387 . S
C1164 C1167 1.387 . S
H1165 C1161 0.950 . S
H1166 C1163 0.950 . S
C1167 C1158 1.390 . S
C1167 H1160 0.950 . S
C1167 C1164 1.387 . S
C1168 C1169 1.387 . S
C1168 H1172 0.950 . S
C1168 C1177 1.390 . S
C1169 C1168 1.387 . S
C1169 C1171 1.387 . S
H1170 C1177 0.950 . S
C1171 C1169 1.387 . S
C1171 C1173 1.390 . S
C1171 H1175 0.950 . S
H1172 C1168 0.950 . S
C1173 C1171 1.390 . S
C1173 C1174 1.387 . S
C1173 H1176 0.950 . S
C1174 C1173 1.387 . S
C1174 C1177 1.387 . S
H1175 C1171 0.950 . S
H1176 C1173 0.950 . S
C1177 C1168 1.390 . S
C1177 H1170 0.950 . S
C1177 C1174 1.387 . S
C1178 C1179 1.387 . S
C1178 H1182 0.950 . S
C1178 C1187 1.390 . S
C1179 C1178 1.387 . S
C1179 C1181 1.387 . S
H1180 C1187 0.950 . S
C1181 C1179 1.387 . S
C1181 C1183 1.390 . S
C1181 H1185 0.950 . S
H1182 C1178 0.950 . S
C1183 C1181 1.390 . S
C1183 C1184 1.387 . S
C1183 H1186 0.950 . S
C1184 C1183 1.387 . S
C1184 C1187 1.387 . S
H1185 C1181 0.950 . S
H1186 C1183 0.950 . S
C1187 C1178 1.390 . S
C1187 H1180 0.950 . S
C1187 C1184 1.387 . S
C1188 C1189 1.387 . S
C1188 H1192 0.950 . S
C1188 C1197 1.390 . S
C1189 C1188 1.387 . S
C1189 C1191 1.387 . S
H1190 C1197 0.950 . S
C1191 C1189 1.387 . S
C1191 C1193 1.390 . S
C1191 H1195 0.950 . S
H1192 C1188 0.950 . S
C1193 C1191 1.390 . S
C1193 C1194 1.387 . S
C1193 H1196 0.950 . S
C1194 C1193 1.387 . S
C1194 C1197 1.387 . S
H1195 C1191 0.950 . S
H1196 C1193 0.950 . S
C1197 C1188 1.390 . S
C1197 H1190 0.950 . S
C1197 C1194 1.387 . S
C1198 C1199 1.387 . S
C1198 H1202 0.950 . S
C1198 C1207 1.390 1_565 S
C1199 C1198 1.387 . S
C1199 C1201 1.387 . S
H1200 C1207 0.950 . S
C1201 C1199 1.387 . S
C1201 C1203 1.390 1_565 S
C1201 H1205 0.950 . S
H1202 C1198 0.950 . S
C1203 C1201 1.390 1_545 S
C1203 C1204 1.387 . S
C1203 H1206 0.950 . S
C1204 C1203 1.387 . S
C1204 C1207 1.387 . S
H1205 C1201 0.950 . S
H1206 C1203 0.950 . S
C1207 C1198 1.390 1_545 S
C1207 H1200 0.950 . S
C1207 C1204 1.387 . S
C1208 C1209 1.387 . S
C1208 H1212 0.951 1_655 S
C1208 C1217 1.391 . S
C1209 C1208 1.387 . S
C1209 C1211 1.387 . S
H1210 C1217 0.949 1_455 S
C1211 C1209 1.387 . S
C1211 C1213 1.390 . S
C1211 H1215 0.950 . S
H1212 C1208 0.951 1_455 S
C1213 C1211 1.390 . S
C1213 C1214 1.387 . S
C1213 H1216 0.950 . S
C1214 C1213 1.387 . S
C1214 C1217 1.387 . S
H1215 C1211 0.950 . S
H1216 C1213 0.950 . S
C1217 C1208 1.391 . S
C1217 H1210 0.949 1_655 S
C1217 C1214 1.387 . S
C1218 C1219 1.387 . S
C1218 H1222 0.950 . S
C1218 C1227 1.390 . S
C1219 C1218 1.387 . S
C1219 C1221 1.387 . S
H1220 C1227 0.950 . S
C1221 C1219 1.387 . S
C1221 C1223 1.390 . S
C1221 H1225 0.950 . S
H1222 C1218 0.950 . S
C1223 C1221 1.390 . S
C1223 C1224 1.387 . S
C1223 H1226 0.950 . S
C1224 C1223 1.387 . S
C1224 C1227 1.387 . S
H1225 C1221 0.950 . S
H1226 C1223 0.950 . S
C1227 C1218 1.390 . S
C1227 H1220 0.950 . S
C1227 C1224 1.387 . S
C1228 C1229 1.373 1_565 S
C1228 H1232 0.953 . S
C1228 C1237 1.397 . S
C1229 C1228 1.373 1_545 S
C1229 C1231 1.387 . S
H1230 C1237 0.950 . S
C1231 C1229 1.387 . S
C1231 C1233 1.390 1_545 S
C1231 H1235 0.950 . S
H1232 C1228 0.953 . S
C1233 C1231 1.390 1_565 S
C1233 C1234 1.387 . S
C1233 H1236 0.950 . S
C1234 C1233 1.387 . S
C1234 C1237 1.387 . S
H1235 C1231 0.950 . S
H1236 C1233 0.950 . S
C1237 C1228 1.397 . S
C1237 H1230 0.950 . S
C1237 C1234 1.387 . S
C1238 C1239 1.387 . S
C1238 H1242 0.950 . S
C1238 C1247 1.390 . S
C1239 C1238 1.387 . S
C1239 C1241 1.387 1_655 S
H1240 C1247 0.950 . S
C1241 C1239 1.387 1_455 S
C1241 C1243 1.390 . S
C1241 H1245 0.950 . S
H1242 C1238 0.950 . S
C1243 C1241 1.390 . S
C1243 C1244 1.387 . S
C1243 H1246 0.950 . S
C1244 C1243 1.387 . S
C1244 C1247 1.387 1_455 S
H1245 C1241 0.950 . S
H1246 C1243 0.950 . S
C1247 C1238 1.390 . S
C1247 H1240 0.950 . S
C1247 C1244 1.387 1_655 S
C1248 C1249 1.387 . S
C1248 H1252 0.950 . S
C1248 C1257 1.390 . S
C1249 C1248 1.387 . S
C1249 C1251 1.387 . S
H1250 C1257 0.950 . S
C1251 C1249 1.387 . S
C1251 C1253 1.390 . S
C1251 H1255 0.950 . S
H1252 C1248 0.950 . S
C1253 C1251 1.390 . S
C1253 C1254 1.387 . S
C1253 H1256 0.950 . S
C1254 C1253 1.387 . S
C1254 C1257 1.387 . S
H1255 C1251 0.950 . S
H1256 C1253 0.950 . S
C1257 C1248 1.390 . S
C1257 H1250 0.950 . S
C1257 C1254 1.387 . S
C1258 C1259 1.387 . S
C1258 H1262 0.950 . S
C1258 C1267 1.390 . S
C1259 C1258 1.387 . S
C1259 C1261 1.387 . S
H1260 C1267 0.950 . S
C1261 C1259 1.387 . S
C1261 C1263 1.390 . S
C1261 H1265 0.950 . S
H1262 C1258 0.950 . S
C1263 C1261 1.390 . S
C1263 C1264 1.387 . S
C1263 H1266 0.950 . S
C1264 C1263 1.387 . S
C1264 C1267 1.387 . S
H1265 C1261 0.950 . S
H1266 C1263 0.950 . S
C1267 C1258 1.390 . S
C1267 H1260 0.950 . S
C1267 C1264 1.387 . S
C1268 C1269 1.387 . S
C1268 H1272 0.950 . S
C1268 C1277 1.390 . S
C1269 C1268 1.387 . S
C1269 C1271 1.387 . S
H1270 C1277 0.950 . S
C1271 C1269 1.387 . S
C1271 C1273 1.390 . S
C1271 H1275 0.950 . S
H1272 C1268 0.950 . S
C1273 C1271 1.390 . S
C1273 C1274 1.387 . S
C1273 H1276 0.950 . S
C1274 C1273 1.387 . S
C1274 C1277 1.387 . S
H1275 C1271 0.950 . S
H1276 C1273 0.950 . S
C1277 C1268 1.390 . S
C1277 H1270 0.950 . S
C1277 C1274 1.387 . S
C1278 C1279 1.387 . S
C1278 H1282 0.950 . S
C1278 C1287 1.390 . S
C1279 C1278 1.387 . S
C1279 C1281 1.387 . S
H1280 C1287 0.950 . S
C1281 C1279 1.387 . S
C1281 C1283 1.390 . S
C1281 H1285 0.950 . S
H1282 C1278 0.950 . S
C1283 C1281 1.390 . S
C1283 C1284 1.387 . S
C1283 H1286 0.950 . S
C1284 C1283 1.387 . S
C1284 C1287 1.387 . S
H1285 C1281 0.950 . S
H1286 C1283 0.950 . S
C1287 C1278 1.390 . S
C1287 H1280 0.950 . S
C1287 C1284 1.387 . S
C1288 C1289 1.387 . S
C1288 H1292 0.950 . S
C1288 C1297 1.390 . S
C1289 C1288 1.387 . S
C1289 C1291 1.387 . S
H1290 C1297 0.950 . S
C1291 C1289 1.387 . S
C1291 C1293 1.390 . S
C1291 H1295 0.950 . S
H1292 C1288 0.950 . S
C1293 C1291 1.390 . S
C1293 C1294 1.387 . S
C1293 H1296 0.950 . S
C1294 C1293 1.387 . S
C1294 C1297 1.387 . S
H1295 C1291 0.950 . S
H1296 C1293 0.950 . S
C1297 C1288 1.390 . S
C1297 H1290 0.950 . S
C1297 C1294 1.387 . S
C1298 C1299 1.387 . S
C1298 H1302 0.950 . S
C1298 C1307 1.390 . S
C1299 C1298 1.387 . S
C1299 C1301 1.387 . S
H1300 C1307 0.950 . S
C1301 C1299 1.387 . S
C1301 C1303 1.390 . S
C1301 H1305 0.950 . S
H1302 C1298 0.950 . S
C1303 C1301 1.390 . S
C1303 C1304 1.387 . S
C1303 H1306 0.950 . S
C1304 C1303 1.387 . S
C1304 C1307 1.387 . S
H1305 C1301 0.950 . S
H1306 C1303 0.950 . S
C1307 C1298 1.390 . S
C1307 H1300 0.950 . S
C1307 C1304 1.387 . S
C1308 C1309 1.387 . S
C1308 H1312 0.950 . S
C1308 C1317 1.390 . S
C1309 C1308 1.387 . S
C1309 C1311 1.387 . S
H1310 C1317 0.950 . S
C1311 C1309 1.387 . S
C1311 C1313 1.390 . S
C1311 H1315 0.950 . S
H1312 C1308 0.950 . S
C1313 C1311 1.390 . S
C1313 C1314 1.387 . S
C1313 H1316 0.950 . S
C1314 C1313 1.387 . S
C1314 C1317 1.387 . S
H1315 C1311 0.950 . S
H1316 C1313 0.950 . S
C1317 C1308 1.390 . S
C1317 H1310 0.950 . S
C1317 C1314 1.387 . S
C1318 C1319 1.387 . S
C1318 H1322 0.950 . S
C1318 C1327 1.390 . S
C1319 C1318 1.387 . S
C1319 C1321 1.387 . S
H1320 C1327 0.950 . S
C1321 C1319 1.387 . S
C1321 C1323 1.390 . S
C1321 H1325 0.950 . S
H1322 C1318 0.950 . S
C1323 C1321 1.390 . S
C1323 C1324 1.387 . S
C1323 H1326 0.950 . S
C1324 C1323 1.387 . S
C1324 C1327 1.387 . S
H1325 C1321 0.950 . S
H1326 C1323 0.950 . S
C1327 C1318 1.390 . S
C1327 H1320 0.950 . S
C1327 C1324 1.387 . S
C1328 C1329 1.387 . S
C1328 H1332 0.950 . S
C1328 C1337 1.390 . S
C1329 C1328 1.387 . S
C1329 C1331 1.387 . S
H1330 C1337 0.950 . S
C1331 C1329 1.387 . S
C1331 C1333 1.390 . S
C1331 H1335 0.950 . S
H1332 C1328 0.950 . S
C1333 C1331 1.390 . S
C1333 C1334 1.387 . S
C1333 H1336 0.950 . S
C1334 C1333 1.387 . S
C1334 C1337 1.387 . S
H1335 C1331 0.950 . S
H1336 C1333 0.950 . S
C1337 C1328 1.390 . S
C1337 H1330 0.950 . S
C1337 C1334 1.387 . S
C1338 C1339 1.387 . S
C1338 H1342 0.950 . S
C1338 C1347 1.390 . S
C1339 C1338 1.387 . S
C1339 C1341 1.387 . S
H1340 C1347 0.950 . S
C1341 C1339 1.387 . S
C1341 C1343 1.390 . S
C1341 H1345 0.950 . S
H1342 C1338 0.950 . S
C1343 C1341 1.390 . S
C1343 C1344 1.387 . S
C1343 H1346 0.950 . S
C1344 C1343 1.387 . S
C1344 C1347 1.387 . S
H1345 C1341 0.950 . S
H1346 C1343 0.950 . S
C1347 C1338 1.390 . S
C1347 H1340 0.950 . S
C1347 C1344 1.387 . S
C1348 C1349 1.387 . S
C1348 H1352 0.950 . S
C1348 C1357 1.390 . S
C1349 C1348 1.387 . S
C1349 C1351 1.387 . S
H1350 C1357 0.950 . S
C1351 C1349 1.387 . S
C1351 C1353 1.390 . S
C1351 H1355 0.950 . S
H1352 C1348 0.950 . S
C1353 C1351 1.390 . S
C1353 C1354 1.387 . S
C1353 H1356 0.950 . S
C1354 C1353 1.387 . S
C1354 C1357 1.387 . S
H1355 C1351 0.950 . S
H1356 C1353 0.950 . S
C1357 C1348 1.390 . S
C1357 H1350 0.950 . S
C1357 C1354 1.387 . S
C1358 C1359 1.387 . S
C1358 H1362 0.950 . S
C1358 C1367 1.390 . S
C1359 C1358 1.387 . S
C1359 C1361 1.387 . S
H1360 C1367 0.950 . S
C1361 C1359 1.387 . S
C1361 C1363 1.390 . S
C1361 H1365 0.950 . S
H1362 C1358 0.950 . S
C1363 C1361 1.390 . S
C1363 C1364 1.387 . S
C1363 H1366 0.950 . S
C1364 C1363 1.387 . S
C1364 C1367 1.387 . S
H1365 C1361 0.950 . S
H1366 C1363 0.950 . S
C1367 C1358 1.390 . S
C1367 H1360 0.950 . S
C1367 C1364 1.387 . S
C1368 C1369 1.387 . S
C1368 H1372 0.950 . S
C1368 C1377 1.390 . S
C1369 C1368 1.387 . S
C1369 C1371 1.387 . S
H1370 C1377 0.950 . S
C1371 C1369 1.387 . S
C1371 C1373 1.390 . S
C1371 H1375 0.950 . S
H1372 C1368 0.950 . S
C1373 C1371 1.390 . S
C1373 C1374 1.387 . S
C1373 H1376 0.950 . S
C1374 C1373 1.387 . S
C1374 C1377 1.387 . S
H1375 C1371 0.950 . S
H1376 C1373 0.950 . S
C1377 C1368 1.390 . S
C1377 H1370 0.950 . S
C1377 C1374 1.387 . S
C1378 C1379 1.387 . S
C1378 H1382 0.950 . S
C1378 C1387 1.390 . S
C1379 C1378 1.387 . S
C1379 C1381 1.387 . S
H1380 C1387 0.950 . S
C1381 C1379 1.387 . S
C1381 C1383 1.390 . S
C1381 H1385 0.950 . S
H1382 C1378 0.950 . S
C1383 C1381 1.390 . S
C1383 C1384 1.387 . S
C1383 H1386 0.950 . S
C1384 C1383 1.387 . S
C1384 C1387 1.387 . S
H1385 C1381 0.950 . S
H1386 C1383 0.950 . S
C1387 C1378 1.390 . S
C1387 H1380 0.950 . S
C1387 C1384 1.387 . S
C1388 C1389 1.387 . S
C1388 H1392 0.950 . S
C1388 C1397 1.390 . S
C1389 C1388 1.387 . S
C1389 C1391 1.387 . S
H1390 C1397 0.950 . S
C1391 C1389 1.387 . S
C1391 C1393 1.390 . S
C1391 H1395 0.950 . S
H1392 C1388 0.950 . S
C1393 C1391 1.390 . S
C1393 C1394 1.387 . S
C1393 H1396 0.950 . S
C1394 C1393 1.387 . S
C1394 C1397 1.387 . S
H1395 C1391 0.950 . S
H1396 C1393 0.950 . S
C1397 C1388 1.390 . S
C1397 H1390 0.950 . S
C1397 C1394 1.387 . S
C1398 C1399 1.387 . S
C1398 H1402 0.950 . S
C1398 C1407 1.390 . S
C1399 C1398 1.387 . S
C1399 C1401 1.387 . S
H1400 C1407 0.950 . S
C1401 C1399 1.387 . S
C1401 C1403 1.390 . S
C1401 H1405 0.950 . S
H1402 C1398 0.950 . S
C1403 C1401 1.390 . S
C1403 C1404 1.387 . S
C1403 H1406 0.950 . S
C1404 C1403 1.387 . S
C1404 C1407 1.387 . S
H1405 C1401 0.950 . S
H1406 C1403 0.950 . S
C1407 C1398 1.390 . S
C1407 H1400 0.950 . S
C1407 C1404 1.387 . S
C1408 C1409 1.387 . S
C1408 H1412 0.950 . S
C1408 C1417 1.390 . S
C1409 C1408 1.387 . S
C1409 C1411 1.387 . S
H1410 C1417 0.950 . S
C1411 C1409 1.387 . S
C1411 C1413 1.390 . S
C1411 H1415 0.950 . S
H1412 C1408 0.950 . S
C1413 C1411 1.390 . S
C1413 C1414 1.387 . S
C1413 H1416 0.950 . S
C1414 C1413 1.387 . S
C1414 C1417 1.387 . S
H1415 C1411 0.950 . S
H1416 C1413 0.950 . S
C1417 C1408 1.390 . S
C1417 H1410 0.950 . S
C1417 C1414 1.387 . S
C1418 C1419 1.387 . S
C1418 H1422 0.950 . S
C1418 C1427 1.390 . S
C1419 C1418 1.387 . S
C1419 C1421 1.387 . S
H1420 C1427 0.950 . S
C1421 C1419 1.387 . S
C1421 C1423 1.390 . S
C1421 H1425 0.950 . S
H1422 C1418 0.950 . S
C1423 C1421 1.390 . S
C1423 C1424 1.387 . S
C1423 H1426 0.950 . S
C1424 C1423 1.387 . S
C1424 C1427 1.387 . S
H1425 C1421 0.950 . S
H1426 C1423 0.950 . S
C1427 C1418 1.390 . S
C1427 H1420 0.950 . S
C1427 C1424 1.387 . S
C1428 C1429 1.387 . S
C1428 H1432 0.950 . S
C1428 C1437 1.390 . S
C1429 C1428 1.387 . S
C1429 C1431 1.387 . S
H1430 C1437 0.950 . S
C1431 C1429 1.387 . S
C1431 C1433 1.390 . S
C1431 H1435 0.950 . S
H1432 C1428 0.950 . S
C1433 C1431 1.390 . S
C1433 C1434 1.387 . S
C1433 H1436 0.950 . S
C1434 C1433 1.387 . S
C1434 C1437 1.387 . S
H1435 C1431 0.950 . S
H1436 C1433 0.950 . S
C1437 C1428 1.390 . S
C1437 H1430 0.950 . S
C1437 C1434 1.387 . S
C1438 C1439 1.387 . S
C1438 H1442 0.950 . S
C1438 C1447 1.390 . S
C1439 C1438 1.387 . S
C1439 C1441 1.387 . S
H1440 C1447 0.950 . S
C1441 C1439 1.387 . S
C1441 C1443 1.390 . S
C1441 H1445 0.950 . S
H1442 C1438 0.950 . S
C1443 C1441 1.390 . S
C1443 C1444 1.387 . S
C1443 H1446 0.950 . S
C1444 C1443 1.387 . S
C1444 C1447 1.387 . S
H1445 C1441 0.950 . S
H1446 C1443 0.950 . S
C1447 C1438 1.390 . S
C1447 H1440 0.950 . S
C1447 C1444 1.387 . S
C1448 C1449 1.387 . S
C1448 H1452 0.950 . S
C1448 C1457 1.390 . S
C1449 C1448 1.387 . S
C1449 C1451 1.387 . S
H1450 C1457 0.950 . S
C1451 C1449 1.387 . S
C1451 C1453 1.390 . S
C1451 H1455 0.950 . S
H1452 C1448 0.950 . S
C1453 C1451 1.390 . S
C1453 C1454 1.387 . S
C1453 H1456 0.950 . S
C1454 C1453 1.387 . S
C1454 C1457 1.387 . S
H1455 C1451 0.950 . S
H1456 C1453 0.950 . S
C1457 C1448 1.390 . S
C1457 H1450 0.950 . S
C1457 C1454 1.387 . S
C1458 C1459 1.387 . S
C1458 H1462 0.950 . S
C1458 C1467 1.390 . S
C1459 C1458 1.387 . S
C1459 C1461 1.387 . S
H1460 C1467 0.950 . S
C1461 C1459 1.387 . S
C1461 C1463 1.390 . S
C1461 H1465 0.950 . S
H1462 C1458 0.950 . S
C1463 C1461 1.390 . S
C1463 C1464 1.387 . S
C1463 H1466 0.950 . S
C1464 C1463 1.387 . S
C1464 C1467 1.387 . S
H1465 C1461 0.950 . S
H1466 C1463 0.950 . S
C1467 C1458 1.390 . S
C1467 H1460 0.950 . S
C1467 C1464 1.387 . S
C1468 C1469 1.387 . S
C1468 H1472 0.950 . S
C1468 C1477 1.390 . S
C1469 C1468 1.387 . S
C1469 C1471 1.387 . S
H1470 C1477 0.950 . S
C1471 C1469 1.387 . S
C1471 C1473 1.390 . S
C1471 H1475 0.950 . S
H1472 C1468 0.950 . S
C1473 C1471 1.390 . S
C1473 C1474 1.387 . S
C1473 H1476 0.950 . S
C1474 C1473 1.387 . S
C1474 C1477 1.387 . S
H1475 C1471 0.950 . S
H1476 C1473 0.950 . S
C1477 C1468 1.390 . S
C1477 H1470 0.950 . S
C1477 C1474 1.387 . S
C1478 C1479 1.387 . S
C1478 H1482 0.950 . S
C1478 C1487 1.390 . S
C1479 C1478 1.387 . S
C1479 C1481 1.387 . S
H1480 C1487 0.950 . S
C1481 C1479 1.387 . S
C1481 C1483 1.390 . S
C1481 H1485 0.950 . S
H1482 C1478 0.950 . S
C1483 C1481 1.390 . S
C1483 C1484 1.387 . S
C1483 H1486 0.950 . S
C1484 C1483 1.387 . S
C1484 C1487 1.387 . S
H1485 C1481 0.950 . S
H1486 C1483 0.950 . S
C1487 C1478 1.390 . S
C1487 H1480 0.950 . S
C1487 C1484 1.387 . S
C1488 C1489 1.387 1_655 S
C1488 H1492 0.950 1_655 S
C1488 C1497 1.390 . S
C1489 C1488 1.387 1_455 S
C1489 C1491 1.387 . S
H1490 C1497 0.950 . S
C1491 C1489 1.387 . S
C1491 C1493 1.390 1_455 S
C1491 H1495 0.950 . S
H1492 C1488 0.950 1_455 S
C1493 C1491 1.390 1_655 S
C1493 C1494 1.387 . S
C1493 H1496 0.950 . S
C1494 C1493 1.387 . S
C1494 C1497 1.387 . S
H1495 C1491 0.950 . S
H1496 C1493 0.950 . S
C1497 C1488 1.390 . S
C1497 H1490 0.950 . S
C1497 C1494 1.387 . S
C1498 C1499 1.387 . S
C1498 H1502 0.950 . S
C1498 C1507 1.390 . S
C1499 C1498 1.387 . S
C1499 C1501 1.387 . S
H1500 C1507 0.950 . S
C1501 C1499 1.387 . S
C1501 C1503 1.390 . S
C1501 H1505 0.950 . S
H1502 C1498 0.950 . S
C1503 C1501 1.390 . S
C1503 C1504 1.387 . S
C1503 H1506 0.950 . S
C1504 C1503 1.387 . S
C1504 C1507 1.387 . S
H1505 C1501 0.950 . S
H1506 C1503 0.950 . S
C1507 C1498 1.390 . S
C1507 H1500 0.950 . S
C1507 C1504 1.387 . S
C1508 C1509 1.387 . S
C1508 H1512 0.950 . S
C1508 C1517 1.390 1_545 S
C1509 C1508 1.387 . S
C1509 C1511 1.387 . S
H1510 C1517 0.950 . S
C1511 C1509 1.387 . S
C1511 C1513 1.390 1_545 S
C1511 H1515 0.950 . S
H1512 C1508 0.950 . S
C1513 C1511 1.390 1_565 S
C1513 C1514 1.387 . S
C1513 H1516 0.950 . S
C1514 C1513 1.387 . S
C1514 C1517 1.387 . S
H1515 C1511 0.950 . S
H1516 C1513 0.950 . S
C1517 C1508 1.390 1_565 S
C1517 H1510 0.950 . S
C1517 C1514 1.387 . S
C1518 C1519 1.387 1_556 S
C1518 H1522 0.950 . S
C1518 C1527 1.390 1_545 S
C1519 C1518 1.387 1_554 S
C1519 C1521 1.387 . S
H1520 C1527 0.950 . S
C1521 C1519 1.387 . S
C1521 C1523 1.390 1_545 S
C1521 H1525 0.950 . S
H1522 C1518 0.950 . S
C1523 C1521 1.390 1_565 S
C1523 C1524 1.387 . S
C1523 H1526 0.950 . S
C1524 C1523 1.387 . S
C1524 C1527 1.387 1_554 S
H1525 C1521 0.950 . S
H1526 C1523 0.950 . S
C1527 C1518 1.390 1_565 S
C1527 H1520 0.950 . S
C1527 C1524 1.387 1_556 S
C1528 C1529 1.387 . S
C1528 H1532 0.950 . S
C1528 C1537 1.390 1_655 S
C1529 C1528 1.387 . S
C1529 C1531 1.387 1_554 S
H1530 C1537 0.950 . S
C1531 C1529 1.387 1_556 S
C1531 C1533 1.390 1_655 S
C1531 H1535 0.950 . S
H1532 C1528 0.950 . S
C1533 C1531 1.390 1_455 S
C1533 C1534 1.387 1_556 S
C1533 H1536 0.950 . S
C1534 C1533 1.387 1_554 S
C1534 C1537 1.387 . S
H1535 C1531 0.950 . S
H1536 C1533 0.950 . S
C1537 C1528 1.390 1_455 S
C1537 H1530 0.950 . S
C1537 C1534 1.387 . S
C1538 C1539 1.387 1_556 S
C1538 H1542 0.950 . S
C1538 C1547 1.390 . S
C1539 C1538 1.387 1_554 S
C1539 C1541 1.387 . S
H1540 C1547 0.950 . S
C1541 C1539 1.387 . S
C1541 C1543 1.390 . S
C1541 H1545 0.950 . S
H1542 C1538 0.950 . S
C1543 C1541 1.390 . S
C1543 C1544 1.387 . S
C1543 H1546 0.950 . S
C1544 C1543 1.387 . S
C1544 C1547 1.387 1_554 S
H1545 C1541 0.950 . S
H1546 C1543 0.950 . S
C1547 C1538 1.390 . S
C1547 H1540 0.950 . S
C1547 C1544 1.387 1_556 S
C829 N12 1.462 1_556 S
C834 N163 1.385 . S
C839 C39 1.475 . S
C844 N186 1.400 . S
C849 N140 1.394 . S
C854 C62 1.463 . S
C859 N255 1.396 . S
C864 C85 1.462 . S
C869 C108 1.476 . S
C874 N209 1.399 . S
C879 N127 1.462 . S
C884 N232 1.386 . S
C889 N25 1.663 . S
C894 C154 1.746 . S
C899 N48 1.518 . S
C904 C177 1.603 . S
C909 C200 1.679 . S
C914 C7 1.703 . S
C919 C223 1.679 . S
C924 C122 1.730 . S
C929 N71 1.517 . S
C934 C246 1.603 . S
C939 C269 1.745 . S
C944 N94 1.663 . S
C949 N439 1.385 . S
C954 N288 1.462 . S
C959 C315 1.474 . S
C964 N462 1.399 . S
C969 C338 1.463 . S
C974 N416 1.397 . S
C979 N531 1.396 . S
C984 C361 1.464 . S
C989 C384 1.475 . S
C994 N485 1.397 . S
C999 N508 1.386 . S
C1004 N403 1.462 . S
C1009 N301 1.663 . S
C1014 C430 1.745 . S
C1019 C453 1.604 . S
C1024 N324 1.517 . S
C1029 C283 1.702 . S
C1034 C476 1.679 . S
C1039 C499 1.678 . S
C1044 C398 1.702 . S
C1049 C522 1.604 . S
C1054 N347 1.521 . S
C1059 C545 1.745 . S
C1064 N370 1.661 . S
C1069 N715 1.387 . S
C1074 N564 1.459 . S
C1079 N738 1.398 . S
C1084 C591 1.476 . S
C1089 N692 1.395 . S
C1094 C614 1.464 . S
C1099 C637 1.463 . S
C1104 N807 1.397 . S
C1109 C660 1.475 . S
C1114 N761 1.399 . S
C1119 N784 1.386 . S
C1124 N679 1.459 . S
C1129 C706 1.745 . S
C1134 N577 1.662 . S
C1139 N600 1.517 . S
C1144 C729 1.603 . S
C1149 C559 1.702 . S
C1154 C752 1.679 . S
C1159 C775 1.679 . S
C1164 C674 1.702 . S
C1169 C798 1.605 . S
C1174 N623 1.521 . S
C1179 C821 1.747 . S
C1184 N646 1.663 . S
C1189 C76 1.979 . S
C1194 N2 1.838 . S
C1199 C99 2.172 . S
C1204 C30 2.172 . S
C1209 C53 1.979 . S
C1214 N117 1.842 . S
C1219 C214 2.146 . S
C1224 C145 2.127 . S
C1229 C237 1.968 . S
C1234 C168 1.969 . S
C1239 C260 2.127 . S
C1244 C191 2.146 . S
C1249 C352 1.979 . S
C1254 N278 1.838 . S
C1259 C375 2.172 . S
C1264 C306 2.172 . S
C1269 C329 1.978 . S
C1274 N393 1.840 . S
C1279 C490 2.145 1_554 S
C1284 C421 2.127 . S
C1289 C513 1.968 . S
C1294 C444 1.968 . S
C1299 C536 2.127 . S
C1304 C467 2.146 . S
C1309 C628 1.978 1_556 S
C1314 N554 1.840 . S
C1319 C582 2.172 . S
C1324 C651 2.172 1_556 S
C1329 N669 1.838 . S
C1334 C605 1.979 . S
C1339 C697 2.125 . S
C1344 C766 2.146 . S
C1349 C720 1.968 . S
C1354 C789 1.968 . S
C1359 C743 2.146 . S
C1364 C812 2.126 . S
C1369 C16 1.729 . S
C1374 N426 1.720 . S
C1379 N449 1.615 . S
C1384 N35 1.612 . S
C1389 N472 1.763 . S
C1394 N58 1.774 . S
C1399 N771 1.764 . S
C1404 N81 1.775 . S
C1409 N794 1.617 . S
C1414 N104 1.614 . S
C1419 N817 1.718 . S
C1424 C131 1.730 . S
C1429 N150 1.717 . S
C1434 C568 1.728 . S
C1439 N587 1.613 . S
C1444 N173 1.616 . S
C1449 N610 1.775 . S
C1454 N196 1.765 . S
C1459 N219 1.764 . S
C1464 N357 1.775 . S
C1469 N242 1.615 . S
C1474 N380 1.612 . S
C1479 N265 1.720 . S
C1484 C407 1.730 . S
C1489 N702 1.721 . S
C1494 C292 1.730 . S
C1499 N725 1.616 . S
C1504 N311 1.613 . S
C1509 N334 1.776 . S
C1514 N748 1.765 . S
C1519 N495 1.765 1_554 S
C1524 N633 1.776 . S
C1529 N518 1.616 1_554 S
C1534 N656 1.613 . S
C1539 N541 1.720 . S
C1544 C683 1.729 . S
