# Generated by pormake.
# Topology ooa, (5)-cn, num edge types: 1
# Building blocks:
#     Node 0, Type 0, BuildingBlock: XOMCOT_clean_sbu_1, # of connection points: 5
#     Node 1, Type 0, BuildingBlock: XOMCOT_clean_sbu_1, # of connection points: 5
#     Node 2, Type 0, BuildingBlock: XOMCOT_clean_sbu_1, # of connection points: 5
#     Node 3, Type 0, BuildingBlock: XOMCOT_clean_sbu_1, # of connection points: 5
#     Node 4, Type 0, BuildingBlock: XOMCOT_clean_sbu_1, # of connection points: 5
#     Node 5, Type 0, BuildingBlock: XOMCOT_clean_sbu_1, # of connection points: 5
#     Node 6, Type 0, BuildingBlock: XOMCOT_clean_sbu_1, # of connection points: 5
#     Node 7, Type 0, BuildingBlock: XOMCOT_clean_sbu_1, # of connection points: 5
#     Edge 8, Type (0, 0), BuildingBlock: KIFKEQ_clean_linker_1, # of connection points: 2
#     Edge 9, Type (0, 0), BuildingBlock: KIFKEQ_clean_linker_1, # of connection points: 2
#     Edge 10, Type (0, 0), BuildingBlock: KIFKEQ_clean_linker_1, # of connection points: 2
#     Edge 11, Type (0, 0), BuildingBlock: KIFKEQ_clean_linker_1, # of connection points: 2
#     Edge 12, Type (0, 0), BuildingBlock: KIFKEQ_clean_linker_1, # of connection points: 2
#     Edge 13, Type (0, 0), BuildingBlock: KIFKEQ_clean_linker_1, # of connection points: 2
#     Edge 14, Type (0, 0), BuildingBlock: KIFKEQ_clean_linker_1, # of connection points: 2
#     Edge 15, Type (0, 0), BuildingBlock: KIFKEQ_clean_linker_1, # of connection points: 2
#     Edge 16, Type (0, 0), BuildingBlock: KIFKEQ_clean_linker_1, # of connection points: 2
#     Edge 17, Type (0, 0), BuildingBlock: KIFKEQ_clean_linker_1, # of connection points: 2
#     Edge 18, Type (0, 0), BuildingBlock: KIFKEQ_clean_linker_1, # of connection points: 2
#     Edge 19, Type (0, 0), BuildingBlock: KIFKEQ_clean_linker_1, # of connection points: 2
#     Edge 20, Type (0, 0), BuildingBlock: KIFKEQ_clean_linker_1, # of connection points: 2
#     Edge 21, Type (0, 0), BuildingBlock: KIFKEQ_clean_linker_1, # of connection points: 2
#     Edge 22, Type (0, 0), BuildingBlock: KIFKEQ_clean_linker_1, # of connection points: 2
#     Edge 23, Type (0, 0), BuildingBlock: KIFKEQ_clean_linker_1, # of connection points: 2
#     Edge 24, Type (0, 0), BuildingBlock: KIFKEQ_clean_linker_1, # of connection points: 2
#     Edge 25, Type (0, 0), BuildingBlock: KIFKEQ_clean_linker_1, # of connection points: 2
#     Edge 26, Type (0, 0), BuildingBlock: KIFKEQ_clean_linker_1, # of connection points: 2
#     Edge 27, Type (0, 0), BuildingBlock: KIFKEQ_clean_linker_1, # of connection points: 2
# Relax obj value: 0.416
# Max RMSD: 0.218
# Mean RMSD: 0.218
data_MOF--net-ooa--node1-XOMCOT_clean_sbu_1--edge1-KIFKEQ_clean_linker_1
_symmetry_space_group_name_H-M    P1
_symmetry_Int_Tables_number       1
_symmetry_cell_setting            triclinic
loop_
_symmetry_equiv_pos_as_xyz
'x, y, z'
_cell_length_a     29.257441
_cell_length_b     31.398827
_cell_length_c     49.418532
_cell_angle_alpha  89.955177
_cell_angle_beta   89.943448
_cell_angle_gamma 90.054346
loop_
_atom_site_label
_atom_site_type_symbol
_atom_site_fract_x
_atom_site_fract_y
_atom_site_fract_z
_atom_type_partial_charge
C0 C 0.10407 0.14544 0.11322 0.0
C1 C 0.13421 0.11384 0.12035 0.0
N2 N 0.16079 0.10528 0.09878 0.0
N3 N 0.11231 0.15742 0.08745 0.0
C4 C 0.14663 0.1319 0.07902 0.0
H5 H 0.07759 0.15874 0.12594 0.0
Co6 Co 0.0789 0.19797 0.06823 0.0
C7 C 0.15555 0.25003 0.04556 0.0
O8 O 0.13821 0.2851 0.05585 0.0
N9 N 0.0425 0.23674 0.04872 0.0
C10 C 1.00975 0.2782 0.01762 0.0
C11 C 0.05061 0.26374 0.02788 0.0
C12 C 0.99637 0.23437 0.04991 0.0
N13 N 0.97572 0.25931 0.03138 0.0
O14 O 0.06616 0.15615 0.04178 0.0
H15 H 0.08326 0.26974 0.01857 0.0
H16 H 0.97818 0.21283 0.06321 0.0
O17 O 0.13459 0.21455 0.04861 0.0
C18 C 0.03549 0.13019 0.04968 0.0
O19 O 1.01524 0.13718 0.07301 0.0
N20 N 0.08983 0.23753 0.09619 0.0
C21 C 0.09914 0.25939 0.15034 0.0
C22 C 0.13784 0.252 0.13444 0.0
C23 C 0.1325 0.24094 0.10737 0.0
C24 C 0.05229 0.24967 0.11064 0.0
C25 C 0.05625 0.2611 0.13785 0.0
H26 H 0.16219 0.22898 0.09686 0.0
H27 H 1.01853 0.24523 0.10238 0.0
H28 H 0.16071 0.13259 0.05877 0.0
H29 H 0.13566 0.09758 0.13966 0.0
H30 H 1.00538 0.29793 0.99983 0.0
H31 H 0.17146 0.25013 0.14355 0.0
H32 H 0.02555 0.26617 0.14969 0.0
C33 C 0.45169 0.83225 0.1116 0.0
C34 C 0.42252 0.86458 0.11883 0.0
N35 N 0.39377 0.87169 0.09805 0.0
N36 N 0.44072 0.81844 0.08659 0.0
C37 C 0.40568 0.84351 0.07867 0.0
H38 H 0.47933 0.81962 0.1237 0.0
Co39 Co 0.4719 0.7763 0.06746 0.0
C40 C 0.39206 0.72486 0.0488 0.0
O41 O 0.40854 0.69058 0.06056 0.0
N42 N 0.50597 0.7359 0.0478 0.0
C43 C 0.53444 0.69273 0.01634 0.0
C44 C 0.49511 0.70798 0.02804 0.0
C45 C 0.55217 0.73752 0.04715 0.0
N46 N 0.57062 0.71176 0.02812 0.0
O47 O 0.48368 0.81672 0.03992 0.0
H48 H 0.46132 0.70135 0.02057 0.0
H49 H 0.57158 0.7596 0.05933 0.0
O50 O 0.41462 0.7598 0.04946 0.0
C51 C 0.51541 0.84223 0.04684 0.0
O52 O 0.53721 0.83505 0.06964 0.0
N53 N 0.46206 0.73824 0.09654 0.0
C54 C 0.45641 0.71385 0.15075 0.0
C55 C 0.41701 0.72518 0.13633 0.0
C56 C 0.42056 0.73732 0.10933 0.0
C57 C 0.49993 0.72311 0.1094 0.0
C58 C 0.49772 0.71013 0.13642 0.0
H59 H 0.39077 0.75121 0.09993 0.0
H60 H 0.53301 0.72517 0.09984 0.0
H61 H 0.38937 0.84126 0.05907 0.0
H62 H 0.42315 0.88228 0.13762 0.0
H63 H 0.53567 0.67098 0.99941 0.0
H64 H 0.38443 0.72932 0.14637 0.0
H65 H 0.52891 0.70067 0.14653 0.0
C66 C 0.10453 0.32723 0.39116 0.0
C67 C 0.13533 0.35852 0.38444 0.0
N68 N 0.16247 0.3656 0.40597 0.0
N69 N 0.11272 0.31395 0.41666 0.0
C70 C 0.14791 0.33833 0.42532 0.0
H71 H 0.0773 0.31534 0.37844 0.0
Co72 Co 0.07716 0.27416 0.43545 0.0
C73 C 0.15365 0.21998 0.45785 0.0
O74 O 0.1381 0.18524 0.44639 0.0
N75 N 0.0387 0.23527 0.45441 0.0
C76 C 0.99611 0.17898 0.46592 0.0
C77 C 0.03605 0.19223 0.45374 0.0
C78 C 0.99965 0.24703 0.46716 0.0
N79 N 0.97316 0.21364 0.47427 0.0
O80 O 0.06705 0.31612 0.46243 0.0
H81 H 0.05859 0.17158 0.44259 0.0
H82 H 0.98856 0.27963 0.46917 0.0
O83 O 0.13205 0.2551 0.45502 0.0
C84 C 0.03946 0.3445 0.45396 0.0
O85 O 1.01927 0.3387 0.43049 0.0
N86 N 0.08542 0.23546 0.40693 0.0
C87 C 0.08894 0.21383 0.35235 0.0
C88 C 0.12936 0.21964 0.36724 0.0
C89 C 0.12687 0.23024 0.39461 0.0
C90 C 0.04614 0.22552 0.39354 0.0
C91 C 0.04724 0.21349 0.36643 0.0
H92 H 0.15788 0.24027 0.40462 0.0
H93 H 1.01336 0.23132 0.40297 0.0
H94 H 0.16205 0.3366 0.44553 0.0
H95 H 0.13661 0.37586 0.36551 0.0
H96 H 0.98372 0.14654 0.46704 0.0
H97 H 0.16241 0.22078 0.35741 0.0
H98 H 1.01521 0.20789 0.35608 0.0
C99 C 0.44191 0.6475 0.38893 0.0
C100 C 0.41162 0.61564 0.38257 0.0
N101 N 0.38714 0.60627 0.40488 0.0
N102 N 0.43603 0.65886 0.41502 0.0
C103 C 0.40279 0.63271 0.42435 0.0
H104 H 0.46715 0.66113 0.37546 0.0
Co105 Co 0.47139 0.69937 0.43322 0.0
C106 C 0.39851 0.7504 0.46178 0.0
O107 O 0.41649 0.7869 0.45453 0.0
N108 N 0.50975 0.73935 0.45135 0.0
C109 C 0.5519 0.79661 0.4612 0.0
C110 C 0.51313 0.78213 0.44847 0.0
C111 C 0.54757 0.72893 0.46576 0.0
N112 N 0.57381 0.76298 0.47194 0.0
O113 O 0.48541 0.6573 0.4594 0.0
H114 H 0.49135 0.80159 0.43592 0.0
H115 H 0.55794 0.69661 0.46986 0.0
O116 O 0.4175 0.71554 0.45461 0.0
C117 C 0.513 0.62911 0.45072 0.0
O118 O 0.5313 0.63407 0.42661 0.0
N119 N 0.45862 0.73839 0.40567 0.0
C120 C 0.44577 0.76065 0.35194 0.0
C121 C 0.40812 0.75603 0.36925 0.0
C122 C 0.41528 0.74505 0.39628 0.0
C123 C 0.49557 0.74695 0.38975 0.0
C124 C 0.48988 0.75889 0.36282 0.0
H125 H 0.38599 0.73598 0.40829 0.0
H126 H 0.52955 0.73964 0.39699 0.0
H127 H 0.39076 0.63269 0.44505 0.0
H128 H 0.40883 0.59964 0.36324 0.0
H129 H 0.56412 0.82915 0.46128 0.0
H130 H 0.37361 0.75673 0.36134 0.0
H131 H 0.51971 0.76156 0.34993 0.0
C132 C 0.94668 0.82979 0.89105 0.0
C133 C 0.9164 0.86101 0.88347 0.0
N134 N 0.88756 0.86788 0.90424 0.0
N135 N 0.93624 0.8164 0.91626 0.0
C136 C 0.9004 0.84062 0.92393 0.0
H137 H 0.97505 0.81812 0.87915 0.0
Co138 Co 0.96934 0.7771 0.93642 0.0
C139 C 0.89179 0.72104 0.95472 0.0
O140 O 0.91026 0.6869 0.94389 0.0
N141 N 1.00521 0.73944 0.95702 0.0
C142 C 0.03665 0.69601 0.9875 0.0
C143 C 0.99625 0.70956 0.97606 0.0
C144 C 0.0511 0.74418 0.958 0.0
N145 N 0.07098 0.7182 0.97618 0.0
O146 O 0.97513 0.81828 0.96406 0.0
H147 H 0.9629 0.70008 0.98303 0.0
H148 H 0.06966 0.76737 0.9461 0.0
O149 O 0.91244 0.75688 0.95314 0.0
C150 C 1.00659 0.84516 0.95909 0.0
O151 O 0.03213 0.83987 0.93747 0.0
N152 N 0.96568 0.73847 0.90737 0.0
C153 C 0.96775 0.71908 0.85257 0.0
C154 C 0.92599 0.72129 0.86627 0.0
C155 C 0.92562 0.73169 0.89372 0.0
C156 C 1.00655 0.73146 0.89484 0.0
C157 C 1.00836 0.72183 0.86735 0.0
H158 H 0.89325 0.7403 0.90267 0.0
H159 H 0.0381 0.73906 0.90496 0.0
H160 H 0.88459 0.83885 0.94371 0.0
H161 H 0.91665 0.87848 0.86457 0.0
H162 H 0.04022 0.67383 0.00415 0.0
H163 H 0.89402 0.72038 0.85523 0.0
H164 H 0.04118 0.72089 0.85718 0.0
C165 C 0.60042 0.14372 0.89048 0.0
C166 C 0.62978 0.11171 0.88295 0.0
N167 N 0.65836 0.10413 0.90373 0.0
N168 N 0.61121 0.15687 0.91566 0.0
C169 C 0.6463 0.13176 0.92336 0.0
H170 H 0.57245 0.15614 0.87858 0.0
Co171 Co 0.57938 0.19693 0.93585 0.0
C172 C 0.65717 0.25101 0.95502 0.0
O173 O 0.63876 0.28567 0.94485 0.0
N174 N 0.54477 0.23522 0.95665 0.0
C175 C 0.51493 0.27206 0.99085 0.0
C176 C 0.55484 0.25858 0.97881 0.0
C177 C 0.49861 0.23428 0.95619 0.0
N178 N 0.47941 0.25635 0.97669 0.0
O179 O 0.57199 0.15569 0.96327 0.0
H180 H 0.58832 0.26233 0.98757 0.0
H181 H 0.47952 0.21519 0.94198 0.0
O182 O 0.63656 0.21526 0.95288 0.0
C183 C 0.53895 0.13021 0.95913 0.0
O184 O 0.51165 0.1371 0.9385 0.0
N185 N 0.58508 0.23588 0.90691 0.0
C186 C 0.58597 0.25421 0.8519 0.0
C187 C 0.62705 0.25098 0.86616 0.0
C188 C 0.62592 0.24126 0.89373 0.0
C189 C 0.54508 0.2443 0.8938 0.0
C190 C 0.54476 0.25352 0.86623 0.0
H191 H 0.6576 0.23178 0.90314 0.0
H192 H 0.51282 0.23802 0.90342 0.0
H193 H 0.66216 0.13321 0.94312 0.0
H194 H 0.62909 0.09425 0.86407 0.0
H195 H 0.51251 0.28897 0.00987 0.0
H196 H 0.65946 0.25045 0.85554 0.0
H197 H 0.51239 0.25547 0.85566 0.0
C198 C 0.94598 0.64665 0.61541 0.0
C199 C 0.91615 0.61514 0.62327 0.0
N200 N 0.88882 0.60596 0.60215 0.0
N201 N 0.93685 0.65785 0.58962 0.0
C202 C 0.90215 0.63219 0.58199 0.0
H203 H 0.97334 0.6598 0.6275 0.0
Co204 Co 0.97015 0.69589 0.5686 0.0
C205 C 0.8945 0.75027 0.54657 0.0
O206 O 0.91552 0.78545 0.55389 0.0
N207 N 1.00628 0.73216 0.54702 0.0
C208 C 0.03762 0.76534 0.51169 0.0
C209 C 0.99726 0.75256 0.52353 0.0
C210 C 0.05247 0.73183 0.54835 0.0
N211 N 0.07247 0.75186 0.52724 0.0
O212 O 0.97709 0.653 0.5423 0.0
H213 H 0.96433 0.75439 0.51384 0.0
H214 H 0.07121 0.71436 0.56355 0.0
O215 O 0.91333 0.71418 0.55097 0.0
C216 C 1.00995 0.62765 0.54708 0.0
O217 O 0.03681 0.63525 0.56782 0.0
N218 N 0.96488 0.73668 0.59641 0.0
C219 C 0.96127 0.76223 0.65046 0.0
C220 C 0.92132 0.76004 0.63485 0.0
C221 C 0.9237 0.74611 0.6081 0.0
C222 C 1.00436 0.74364 0.61035 0.0
C223 C 1.00338 0.75637 0.63736 0.0
H224 H 0.89202 0.73769 0.59835 0.0
H225 H 0.0366 0.73375 0.60202 0.0
H226 H 0.88764 0.63211 0.56185 0.0
H227 H 0.91585 0.59898 0.64263 0.0
H228 H 0.04103 0.77997 0.49195 0.0
H229 H 0.888 0.76498 0.64387 0.0
H230 H 0.03525 0.75687 0.64844 0.0
C231 C 0.60555 0.32659 0.617 0.0
C232 C 0.63674 0.35708 0.62454 0.0
N233 N 0.66274 0.36658 0.60286 0.0
N234 N 0.61237 0.31639 0.5908 0.0
C235 C 0.64724 0.34154 0.58267 0.0
H236 H 0.57883 0.31359 0.62967 0.0
Co237 Co 0.5773 0.27937 0.57001 0.0
C238 C 0.64441 0.25494 0.52822 0.0
O239 O 0.61468 0.26306 0.50899 0.0
N240 N 0.54075 0.2431 0.54948 0.0
C241 C 0.50723 0.18752 0.52992 0.0
C242 C 0.54652 0.20195 0.54243 0.0
C243 C 0.49809 0.25288 0.54119 0.0
N244 N 0.4769 0.21981 0.52915 0.0
O245 O 0.57152 0.32261 0.54356 0.0
H246 H 0.57669 0.18334 0.54686 0.0
H247 H 0.48188 0.28316 0.54507 0.0
O248 O 0.63273 0.25892 0.55294 0.0
C249 C 0.54266 0.35115 0.54991 0.0
O250 O 0.51871 0.34655 0.57224 0.0
N251 N 0.58114 0.23874 0.59718 0.0
C252 C 0.58477 0.21006 0.65026 0.0
C253 C 0.62358 0.20774 0.63353 0.0
C254 C 0.6212 0.22269 0.60695 0.0
C255 C 0.54188 0.2359 0.61182 0.0
C256 C 0.5429 0.22176 0.63851 0.0
H257 H 0.65249 0.2255 0.59548 0.0
H258 H 0.51074 0.24961 0.6039 0.0
H259 H 0.66043 0.34204 0.56219 0.0
H260 H 0.63889 0.37238 0.64412 0.0
H261 H 0.50129 0.15569 0.52229 0.0
H262 H 0.65636 0.19786 0.64151 0.0
H263 H 0.51202 0.22449 0.65046 0.0
H264 H 0.985 0.06285 0.06714 0.0
H265 H 0.06835 0.10581 1.00019 0.0
H266 H 0.97796 -0.00677 0.04631 0.0
H267 H 0.05969 0.03639 0.97866 0.0
H268 H 0.94067 0.8843 0.98918 0.0
H269 H 0.94499 0.95465 0.00997 0.0
H270 H 0.0862 0.96541 0.98484 0.0
H271 H 0.08112 0.89596 0.96322 0.0
C272 C 1.0012 0.05765 0.04771 0.0
C273 C 0.02744 0.08975 0.03534 0.0
C274 C 0.99697 0.01771 0.0357 0.0
C275 C 1.0185 0.00907 0.01091 0.0
C276 C 0.04347 0.0417 0.99807 0.0
C277 C 0.0481 0.0816 0.01025 0.0
C278 C 0.97274 0.90157 0.98847 0.0
C279 C 1.01058 0.88484 0.97466 0.0
C280 C 0.97524 0.94188 1.00031 0.0
C281 C 1.01583 0.96589 0.99883 0.0
C282 C 0.05408 0.94829 0.98577 0.0
C283 C 0.05137 0.90832 0.97365 0.0
H284 H 0.46409 0.07982 0.96468 0.0
H285 H 0.60681 0.0889 0.98619 0.0
H286 H 0.46013 0.00942 0.98529 0.0
H287 H 0.60357 0.01777 0.00579 0.0
H288 H 0.56853 0.90852 0.06286 0.0
H289 H 0.57395 0.97862 0.0426 0.0
H290 H 0.48475 0.93819 0.97777 0.0
H291 H 0.4777 0.86816 0.99887 0.0
C292 C 0.49457 0.06671 0.97391 0.0
C293 C 0.53565 0.0898 0.97403 0.0
C294 C 0.49248 0.0262 0.98543 0.0
C295 C 0.53164 0.0077 0.99695 0.0
C296 C 0.5726 0.03123 0.99741 0.0
C297 C 0.57449 0.07202 0.98623 0.0
C298 C 0.55035 0.91437 0.04414 0.0
C299 C 0.52253 0.88285 0.03248 0.0
C300 C 0.55363 0.95463 0.03245 0.0
C301 C 0.52961 0.96419 0.00863 0.0
C302 C 0.50297 0.93215 0.99644 0.0
C303 C 0.49928 0.8919 0.00834 0.0
H304 H 0.08447 0.57622 0.54458 0.0
H305 H 0.94528 0.58802 0.51644 0.0
H306 H 0.09056 0.50709 0.52253 0.0
H307 H 0.95068 0.51822 0.49522 0.0
H308 H 0.99294 0.41398 0.43653 0.0
H309 H 0.98635 0.4827 0.45846 0.0
H310 H 0.06351 0.43527 0.52669 0.0
H311 H 0.07164 0.36651 0.5041 0.0
C312 C 0.0552 0.56397 0.53365 0.0
C313 C 1.01451 0.58749 0.53205 0.0
C314 C 0.05851 0.52421 0.52126 0.0
C315 C 1.02101 0.50697 0.50728 0.0
C316 C 0.98042 0.53081 0.50551 0.0
C317 C 0.97729 0.5708 0.51764 0.0
C318 C 1.00829 0.41803 0.4563 0.0
C319 C 0.03285 0.38485 0.46862 0.0
C320 C 1.0043 0.45746 0.46894 0.0
C321 C 1.0244 0.46454 0.49432 0.0
C322 C 0.04824 0.43104 0.50692 0.0
C323 C 0.05259 0.39157 0.49413 0.0
H324 H 0.48893 0.61159 0.50299 0.0
H325 H 0.55471 0.55719 0.43274 0.0
H326 H 0.49808 0.54424 0.52698 0.0
H327 H 0.5622 0.4896 0.4562 0.0
H328 H 0.60497 0.38488 0.51483 0.0
H329 H 0.60071 0.45353 0.49181 0.0
H330 H 0.4665 0.47434 0.52611 0.0
H331 H 0.47171 0.40664 0.54987 0.0
C332 C 0.50537 0.58526 0.49272 0.0
C333 C 0.52106 0.5896 0.46602 0.0
C334 C 0.5103 0.54658 0.50635 0.0
C335 C 0.53054 0.5114 0.49342 0.0
C336 C 0.547 0.51615 0.46688 0.0
C337 C 0.54252 0.5549 0.45339 0.0
C338 C 0.57447 0.40407 0.51721 0.0
C339 C 0.53866 0.39059 0.53408 0.0
C340 C 0.57198 0.44336 0.50405 0.0
C341 C 0.53338 0.46959 0.50728 0.0
C342 C 0.49717 0.45543 0.52369 0.0
C343 C 0.49993 0.41647 0.53709 0.0
H344 H 0.3699 0.91937 0.05468 0.0
H345 H 0.33886 0.89657 0.13873 0.0
H346 H 0.31422 0.97741 0.05374 0.0
H347 H 0.28195 0.95299 0.13779 0.0
H348 H 0.21984 0.08346 0.13806 0.0
H349 H 0.27672 0.02703 0.13675 0.0
H350 H 0.23613 -0.00347 0.05487 0.0
H351 H 0.18047 0.05456 0.05608 0.0
C352 C 0.35055 0.92643 0.07281 0.0
C353 C 0.35882 0.90382 0.09684 0.0
C354 C 0.31857 0.95959 0.07232 0.0
C355 C 0.29377 0.9704 0.09578 0.0
C356 C 0.30122 0.94659 0.11953 0.0
C357 C 0.33362 0.91402 0.12009 0.0
C358 C 0.22326 0.06467 0.11981 0.0
C359 C 0.19572 0.07317 0.09724 0.0
C360 C 0.25564 0.0321 0.11905 0.0
C361 C 0.26074 0.00658 0.09583 0.0
C362 C 0.23361 0.01568 0.07301 0.0
C363 C 0.20164 0.04885 0.07366 0.0
H364 H 0.21984 0.39041 0.36645 0.0
H365 H 0.18392 0.41364 0.44978 0.0
H366 H 0.27466 0.44864 0.36789 0.0
H367 H 0.23804 0.47319 0.45121 0.0
H368 H 0.3704 0.55538 0.4482 0.0
H369 H 0.31706 0.49524 0.45013 0.0
H370 H 0.27291 0.52379 0.36865 0.0
H371 H 0.32688 0.58263 0.36667 0.0
C372 C 0.22368 0.40819 0.38508 0.0
C373 C 0.19742 0.39776 0.40791 0.0
C374 C 0.25489 0.44176 0.38591 0.0
C375 C 0.26024 0.46629 0.40952 0.0
C376 C 0.23501 0.45493 0.43272 0.0
C377 C 0.20402 0.42084 0.43195 0.0
C378 C 0.34887 0.54888 0.43088 0.0
C379 C 0.35307 0.57333 0.40717 0.0
C380 C 0.31832 0.51446 0.43194 0.0
C381 C 0.29114 0.50411 0.40937 0.0
C382 C 0.29422 0.52987 0.38613 0.0
C383 C 0.32497 0.56379 0.385 0.0
H384 H 0.86611 0.91739 0.94711 0.0
H385 H 0.83079 0.89099 0.86415 0.0
H386 H 0.81109 0.97591 0.94793 0.0
H387 H 0.77434 0.9479 0.86504 0.0
H388 H 0.7143 0.07945 0.86355 0.0
H389 H 0.77009 0.022 0.86471 0.0
H390 H 0.73337 -0.00436 0.9479 0.0
H391 H 0.679 0.05466 0.94679 0.0
C392 C 0.84586 0.92372 0.92923 0.0
C393 C 0.8527 0.89999 0.90551 0.0
C394 C 0.81428 0.95716 0.92965 0.0
C395 C 0.78845 0.96708 0.90645 0.0
C396 C 0.79442 0.94213 0.88306 0.0
C397 C 0.82649 0.90929 0.88253 0.0
C398 C 0.71841 0.06135 0.88204 0.0
C399 C 0.69247 0.07132 0.90503 0.0
C400 C 0.7501 0.0282 0.88273 0.0
C401 C 0.75597 0.00362 0.90631 0.0
C402 C 0.73027 0.01409 0.92948 0.0
C403 C 0.69906 0.04782 0.92889 0.0
H404 H 0.72181 0.38896 0.64208 0.0
H405 H 0.68109 0.41816 0.5603 0.0
H406 H 0.77719 0.44688 0.64088 0.0
H407 H 0.73551 0.4772 0.55917 0.0
H408 H 0.86814 0.55613 0.55917 0.0
H409 H 0.81433 0.4966 0.55832 0.0
H410 H 0.77877 0.52198 0.64172 0.0
H411 H 0.83352 0.5804 0.6426 0.0
C412 C 0.72467 0.40801 0.62389 0.0
C413 C 0.69714 0.39922 0.60135 0.0
C414 C 0.75618 0.44137 0.62319 0.0
C415 C 0.76049 0.46718 0.60004 0.0
C416 C 0.73351 0.45777 0.57724 0.0
C417 C 0.70231 0.42398 0.57785 0.0
C418 C 0.84843 0.5491 0.57718 0.0
C419 C 0.85507 0.57268 0.60101 0.0
C420 C 0.81758 0.51502 0.57673 0.0
C421 C 0.79243 0.50413 0.60003 0.0
C422 C 0.79835 0.52865 0.6236 0.0
C423 C 0.82951 0.56229 0.62412 0.0
H424 H 0.20412 0.32032 0.03022 0.0
H425 H 0.21036 0.18288 0.03169 0.0
H426 H 0.28106 0.32303 0.01148 0.0
H427 H 0.28789 0.18555 0.01387 0.0
H428 H 0.41232 0.201 0.96123 0.0
H429 H 0.33302 0.20114 0.97518 0.0
H430 H 0.35816 0.31171 0.025 0.0
H431 H 0.43719 0.3132 0.00974 0.0
C432 C 0.22191 0.29064 0.02653 0.0
C433 C 0.20111 0.25137 0.03251 0.0
C434 C 0.26621 0.29221 0.01596 0.0
C435 C 0.29096 0.25455 0.0113 0.0
C436 C 0.26973 0.21522 0.01682 0.0
C437 C 0.22527 0.21365 0.02718 0.0
C438 C 0.40107 0.22595 0.97473 0.0
C439 C 0.43164 0.25719 0.98429 0.0
C440 C 0.35544 0.2256 0.98308 0.0
C441 C 0.33906 0.25623 1.00138 0.0
C442 C 0.36935 0.28784 0.01065 0.0
C443 C 0.41497 0.28839 0.00215 0.0
H444 H 0.12471 0.78719 0.98281 0.0
H445 H 0.12312 0.65029 0.98855 0.0
H446 H 0.20307 0.78861 0.99934 0.0
H447 H 0.20257 0.65089 0.00357 0.0
H448 H 0.32461 0.66745 0.0588 0.0
H449 H 0.2479 0.66591 0.04034 0.0
H450 H 0.27961 0.77595 0.99095 0.0
H451 H 0.35578 0.77882 0.01092 0.0
C452 C 0.14166 0.75732 0.98714 0.0
C453 C 0.11805 0.71861 0.98449 0.0
C454 C 0.18672 0.758 0.9965 0.0
C455 C 0.2096 0.71986 0.00292 0.0
C456 C 0.18603 0.68104 0.99951 0.0
C457 C 0.1406 0.6805 0.99073 0.0
C458 C 0.31524 0.69123 0.04391 0.0
C459 C 0.34622 0.72324 0.03629 0.0
C460 C 0.27119 0.69019 0.03311 0.0
C461 C 0.25715 0.72066 0.01394 0.0
C462 C 0.28864 0.75235 0.006 0.0
C463 C 0.3325 0.75388 0.01727 0.0
H464 H 0.43058 0.28518 0.50651 0.0
H465 H 0.41798 0.15314 0.52945 0.0
H466 H 0.35184 0.28506 0.49056 0.0
H467 H 0.33863 0.15306 0.51435 0.0
H468 H 0.21483 0.15443 0.45846 0.0
H469 H 0.29237 0.15439 0.47573 0.0
H470 H 0.27454 0.28358 0.50401 0.0
H471 H 0.19718 0.28415 0.48557 0.0
C472 C 0.41075 0.25619 0.50836 0.0
C473 C 0.43054 0.21914 0.51919 0.0
C474 C 0.36542 0.25614 0.49936 0.0
C475 C 0.33844 0.21911 0.50121 0.0
C476 C 0.35837 0.18203 0.51213 0.0
C477 C 0.40392 0.18199 0.52083 0.0
C478 C 0.22724 0.18282 0.4685 0.0
C479 C 0.19966 0.21935 0.47056 0.0
C480 C 0.27185 0.1827 0.47859 0.0
C481 C 0.29012 0.21897 0.49131 0.0
C482 C 0.2621 0.25526 0.49392 0.0
C483 C 0.21751 0.25551 0.48356 0.0
H484 H 0.13811 0.69534 0.54266 0.0
H485 H 0.11619 0.80966 0.49579 0.0
H486 H 0.21833 0.69546 0.52961 0.0
H487 H 0.19606 0.80879 0.48182 0.0
H488 H 0.34999 0.81856 0.48049 0.0
H489 H 0.27257 0.81933 0.49849 0.0
H490 H 0.2652 0.68255 0.49006 0.0
H491 H 0.3432 0.68166 0.47262 0.0
C492 C 0.15037 0.72077 0.52978 0.0
C493 C 0.12052 0.75264 0.52036 0.0
C494 C 0.19637 0.72048 0.52199 0.0
C495 C 0.21377 0.75206 0.50461 0.0
C496 C 0.18405 0.78423 0.49548 0.0
C497 C 0.13807 0.7845 0.50326 0.0
C498 C 0.33207 0.78855 0.48267 0.0
C499 C 0.35284 0.75005 0.47492 0.0
C500 C 0.28748 0.78905 0.49284 0.0
C501 C 0.26236 0.75108 0.49549 0.0
C502 C 0.28361 0.71239 0.48852 0.0
C503 C 0.32835 0.71188 0.47839 0.0
H504 H 0.60467 0.67768 0.98137 0.0
H505 H 0.64569 0.74205 0.05489 0.0
H506 H 0.68303 0.67861 0.96577 0.0
H507 H 0.72427 0.74354 0.03868 0.0
H508 H 0.84507 0.78365 0.98177 0.0
H509 H 0.76842 0.77938 1.0013 0.0
H510 H 0.75883 0.64773 0.97676 0.0
H511 H 0.83517 0.6519 0.95716 0.0
C512 C 0.63008 0.69168 0.99447 0.0
C513 C 0.61801 0.71005 0.01949 0.0
C514 C 0.67532 0.6922 0.98539 0.0
C515 C 0.70985 0.71128 1.00092 0.0
C516 C 0.69826 0.7291 0.02607 0.0
C517 C 0.653 0.72825 0.03533 0.0
C518 C 0.82673 0.75371 0.98068 0.0
C519 C 0.84623 0.71816 0.96779 0.0
C520 C 0.78292 0.75122 0.99201 0.0
C521 C 0.75752 0.71326 0.99049 0.0
C522 C 0.77733 0.67757 0.97799 0.0
C523 C 0.8212 0.67994 0.96686 0.0
H524 H 0.69235 0.19721 0.99312 0.0
H525 H 0.72427 0.3096 0.94649 0.0
H526 H 0.76714 0.20075 0.01462 0.0
H527 H 0.80012 0.31174 0.96635 0.0
H528 H 0.92369 0.32711 0.01887 0.0
H529 H 0.84463 0.32644 0.00314 0.0
H530 H 0.84366 0.1888 0.00865 0.0
H531 H 0.92142 0.19046 0.02611 0.0
C532 C 0.71562 0.2225 0.98733 0.0
C533 C 0.70246 0.2532 0.96821 0.0
C534 C 0.75876 0.22442 0.99949 0.0
C535 C 0.79029 0.25651 0.99233 0.0
C536 C 0.77681 0.28711 0.97304 0.0
C537 C 0.7333 0.28575 0.9614 0.0
C538 C 0.90602 0.29694 0.017 0.0
C539 C 0.92829 0.25893 0.02381 0.0
C540 C 0.86087 0.29634 0.00771 0.0
C541 C 0.83732 0.25749 0.00425 0.0
C542 C 0.85986 0.21947 0.01146 0.0
C543 C 0.9046 0.22026 0.02139 0.0
H544 H 0.84203 0.82106 0.53813 0.0
H545 H 0.84062 0.68417 0.52931 0.0
H546 H 0.76405 0.82447 0.52114 0.0
H547 H 0.7629 0.68768 0.51167 0.0
H548 H 0.64313 0.81876 0.46266 0.0
H549 H 0.72045 0.81558 0.4805 0.0
H550 H 0.68534 0.70221 0.52557 0.0
H551 H 0.60783 0.70529 0.50749 0.0
C552 C 0.82525 0.79168 0.53235 0.0
C553 C 0.84769 0.75234 0.53508 0.0
C554 C 0.78051 0.79366 0.52249 0.0
C555 C 0.75703 0.75636 0.51502 0.0
C556 C 0.77962 0.71701 0.51759 0.0
C557 C 0.82438 0.71502 0.52752 0.0
C558 C 0.65159 0.79347 0.47666 0.0
C559 C 0.61907 0.7623 0.48364 0.0
C560 C 0.69609 0.7916 0.48689 0.0
C561 C 0.70932 0.75858 0.50446 0.0
C562 C 0.67665 0.72767 0.51172 0.0
C563 C 0.63213 0.72949 0.50142 0.0
H564 H 0.90306 0.16026 0.46215 0.0
H565 H 0.9377 0.27225 0.50838 0.0
H566 H 0.82331 0.1671 0.47629 0.0
H567 H 0.85786 0.27937 0.52234 0.0
H568 H 0.7185 0.25496 0.56192 0.0
H569 H 0.79833 0.24201 0.55019 0.0
H570 H 0.75946 0.21888 0.46725 0.0
H571 H 0.67945 0.23185 0.47892 0.0
C572 C 0.89379 0.186 0.47563 0.0
C573 C 0.92675 0.21572 0.48418 0.0
C574 C 0.84801 0.19017 0.48349 0.0
C575 C 0.83422 0.22385 0.50036 0.0
C576 C 0.86741 0.2529 0.50949 0.0
C577 C 0.91306 0.24901 0.50136 0.0
C578 C 0.72684 0.24673 0.54121 0.0
C579 C 0.69251 0.24445 0.52134 0.0
C580 C 0.77267 0.23959 0.53448 0.0
C581 C 0.78525 0.22951 0.50779 0.0
C582 C 0.75082 0.22622 0.48804 0.0
C583 C 0.70501 0.23386 0.49471 0.0
H584 H 0.02548 0.2505 0.31892 0.0
H585 H 0.15479 0.18377 0.31717 0.0
H586 H 0.02956 0.26083 0.27064 0.0
H587 H 0.16098 0.19798 0.26898 0.0
H588 H 0.13633 0.19398 0.17797 0.0
H589 H 0.13359 0.18073 0.22634 0.0
H590 H 0.06624 0.30201 0.23812 0.0
H591 H 0.06686 0.3138 0.1892 0.0
C592 C 0.05463 0.23744 0.3083 0.0
C593 C 0.08968 0.21589 0.32221 0.0
C594 C 0.05751 0.24446 0.28051 0.0
C595 C 0.09597 0.23102 0.26581 0.0
C596 C 0.13063 0.20865 0.27952 0.0
C597 C 0.12733 0.20085 0.30732 0.0
C598 C 0.12163 0.21809 0.19103 0.0
C599 C 0.10221 0.25514 0.18002 0.0
C600 C 0.12007 0.21054 0.2188 0.0
C601 C 0.09957 0.24015 0.23631 0.0
C602 C 0.0814 0.27797 0.22525 0.0
C603 C 0.08218 0.28511 0.19732 0.0
H604 H 0.52289 0.74252 0.18522 0.0
H605 H 0.38751 0.68703 0.18483 0.0
H606 H 0.51736 0.75343 0.2335 0.0
H607 H 0.38037 0.70165 0.23291 0.0
H608 H 0.40039 0.69908 0.32485 0.0
H609 H 0.40323 0.68417 0.27662 0.0
H610 H 0.48175 0.79939 0.26405 0.0
H611 H 0.48077 0.81275 0.31273 0.0
C612 C 0.49211 0.73199 0.1954 0.0
C613 C 0.45558 0.71391 0.18089 0.0
C614 C 0.48849 0.73933 0.22314 0.0
C615 C 0.44796 0.72953 0.23712 0.0
C616 C 0.41215 0.7097 0.2229 0.0
C617 C 0.4161 0.70163 0.19519 0.0
C618 C 0.4173 0.7217 0.31162 0.0
C619 C 0.44004 0.75727 0.32236 0.0
C620 C 0.41909 0.71311 0.28395 0.0
C621 C 0.44321 0.74024 0.26634 0.0
C622 C 0.46393 0.77711 0.27704 0.0
C623 C 0.46284 0.78524 0.30483 0.0
H624 H 1.02207 0.79744 0.6867 0.0
H625 H 0.89578 0.7259 0.68289 0.0
H626 H 0.02533 0.78532 0.73512 0.0
H627 H 0.89664 0.71768 0.73145 0.0
H628 H 0.93475 0.66537 0.81363 0.0
H629 H 0.93271 0.67827 0.76481 0.0
H630 H 0.99641 0.80124 0.77727 0.0
H631 H 1.00092 0.78663 0.8255 0.0
C632 C 0.99453 0.77983 0.69617 0.0
C633 C 0.95888 0.7625 0.6806 0.0
C634 C 0.99609 0.77326 0.72412 0.0
C635 C 0.9615 0.74998 0.73736 0.0
C636 C 0.92457 0.73476 0.72199 0.0
C637 C 0.92351 0.74051 0.69401 0.0
C638 C 0.94889 0.6947 0.80564 0.0
C639 C 0.96873 0.72466 0.823 0.0
C640 C 0.94723 0.70251 0.77778 0.0
C641 C 0.96425 0.741 0.76693 0.0
C642 C 0.98389 0.7709 0.78462 0.0
C643 C 0.98643 0.76263 0.81228 0.0
H644 H 0.52257 0.17936 0.68724 0.0
H645 H 0.65612 0.23785 0.68151 0.0
H646 H 0.52283 0.1908 0.73574 0.0
H647 H 0.6582 0.24562 0.73022 0.0
H648 H 0.62528 0.30346 0.81243 0.0
H649 H 0.62681 0.28891 0.76378 0.0
H650 H 0.55165 0.17203 0.77751 0.0
H651 H 0.54798 0.18828 0.82552 0.0
C652 C 0.55242 0.19385 0.69634 0.0
C653 C 0.58905 0.20802 0.68024 0.0
C654 C 0.55283 0.20003 0.72431 0.0
C655 C 0.59034 0.21974 0.73703 0.0
C656 C 0.6282 0.23138 0.72114 0.0
C657 C 0.62743 0.22593 0.69311 0.0
C658 C 0.60866 0.27509 0.80477 0.0
C659 C 0.58569 0.24746 0.8224 0.0
C660 C 0.60997 0.26632 0.77701 0.0
C661 C 0.58931 0.22918 0.76656 0.0
C662 C 0.56697 0.20139 0.78455 0.0
C663 C 0.56487 0.21063 0.81209 0.0
loop_
_geom_bond_atom_site_label_1
_geom_bond_atom_site_label_2
_geom_bond_distance
_geom_bond_site_symmetry_2
_ccdc_geom_bond_type
C0 C1 1.351 . S
C0 N3 1.368 . S
C0 H5 0.931 . S
C1 C0 1.351 . S
C1 N2 1.373 . S
C1 H29 0.930 . S
N2 C1 1.373 . S
N2 C4 1.340 . S
N3 C0 1.368 . S
N3 C4 1.321 . S
N3 Co6 2.135 . S
C4 N2 1.340 . S
C4 N3 1.321 . S
C4 H28 0.930 . S
H5 C0 0.931 . S
Co6 N3 2.135 . S
Co6 N9 2.121 . S
Co6 O14 2.055 . S
Co6 O17 2.039 . S
Co6 N20 2.140 . S
C7 O8 1.227 . S
C7 O17 1.265 . S
O8 C7 1.227 . S
N9 Co6 2.121 . S
N9 C11 1.375 . S
N9 C12 1.313 1_455 S
C10 C11 1.338 . S
C10 N13 1.377 1_455 S
C10 H30 0.930 . S
C11 N9 1.375 . S
C11 C10 1.338 . S
C11 H15 0.931 . S
C12 N9 1.313 1_655 S
C12 N13 1.344 . S
C12 H16 0.930 . S
N13 C10 1.377 1_655 S
N13 C12 1.344 . S
O14 Co6 2.055 . S
O14 C18 1.253 . S
H15 C11 0.931 . S
H16 C12 0.930 . S
O17 Co6 2.039 . S
O17 C7 1.265 . S
C18 O14 1.253 . S
C18 O19 1.227 . S
O19 C18 1.227 . S
N20 Co6 2.140 . S
N20 C23 1.346 . S
N20 C24 1.345 . S
C21 C22 1.387 . S
C21 C25 1.391 . S
C22 C21 1.387 . S
C22 C23 1.369 . S
C22 H31 0.929 . S
C23 N20 1.346 . S
C23 C22 1.369 . S
C23 H26 0.928 . S
C24 N20 1.345 . S
C24 C25 1.371 . S
C24 H27 0.931 . S
C25 C21 1.391 . S
C25 C24 1.371 . S
C25 H32 0.930 1_455 S
H26 C23 0.928 . S
H27 C24 0.931 . S
H28 C4 0.930 . S
H29 C1 0.930 . S
H30 C10 0.930 . S
H31 C22 0.929 . S
H32 C25 0.930 1_655 S
C33 C34 1.351 . S
C33 N36 1.368 . S
C33 H38 0.931 . S
C34 C33 1.351 . S
C34 N35 1.373 . S
C34 H62 0.930 . S
N35 C34 1.373 . S
N35 C37 1.340 . S
N36 C33 1.368 . S
N36 C37 1.321 . S
N36 Co39 2.135 . S
C37 N35 1.340 . S
C37 N36 1.321 . S
C37 H61 0.930 . S
H38 C33 0.931 . S
Co39 N36 2.135 . S
Co39 N42 2.121 . S
Co39 O47 2.055 . S
Co39 O50 2.039 . S
Co39 N53 2.140 . S
C40 O41 1.227 . S
C40 O50 1.265 . S
O41 C40 1.227 . S
N42 Co39 2.121 . S
N42 C44 1.375 . S
N42 C45 1.313 . S
C43 C44 1.338 . S
C43 N46 1.377 . S
C43 H63 0.930 . S
C44 N42 1.375 . S
C44 C43 1.338 . S
C44 H48 0.931 . S
C45 N42 1.313 . S
C45 N46 1.344 . S
C45 H49 0.930 . S
N46 C43 1.377 . S
N46 C45 1.344 . S
O47 Co39 2.055 . S
O47 C51 1.253 . S
H48 C44 0.931 . S
H49 C45 0.930 . S
O50 Co39 2.039 . S
O50 C40 1.265 . S
C51 O47 1.253 . S
C51 O52 1.227 . S
O52 C51 1.227 . S
N53 Co39 2.140 . S
N53 C56 1.346 . S
N53 C57 1.345 . S
C54 C55 1.387 . S
C54 C58 1.391 . S
C55 C54 1.387 . S
C55 C56 1.369 . S
C55 H64 0.929 . S
C56 N53 1.346 . S
C56 C55 1.369 . S
C56 H59 0.928 . S
C57 N53 1.345 . S
C57 C58 1.371 . S
C57 H60 0.931 . S
C58 C54 1.391 . S
C58 C57 1.371 . S
C58 H65 0.930 . S
H59 C56 0.928 . S
H60 C57 0.931 . S
H61 C37 0.930 . S
H62 C34 0.930 . S
H63 C43 0.930 . S
H64 C55 0.929 . S
H65 C58 0.930 . S
C66 C67 1.351 . S
C66 N69 1.368 . S
C66 H71 0.931 . S
C67 C66 1.351 . S
C67 N68 1.373 . S
C67 H95 0.930 . S
N68 C67 1.373 . S
N68 C70 1.340 . S
N69 C66 1.368 . S
N69 C70 1.321 . S
N69 Co72 2.135 . S
C70 N68 1.340 . S
C70 N69 1.321 . S
C70 H94 0.930 . S
H71 C66 0.931 . S
Co72 N69 2.135 . S
Co72 N75 2.121 . S
Co72 O80 2.055 . S
Co72 O83 2.039 . S
Co72 N86 2.140 . S
C73 O74 1.227 . S
C73 O83 1.265 . S
O74 C73 1.227 . S
N75 Co72 2.121 . S
N75 C77 1.375 . S
N75 C78 1.313 1_455 S
C76 C77 1.338 . S
C76 N79 1.377 1_455 S
C76 H96 0.930 . S
C77 N75 1.375 . S
C77 C76 1.338 . S
C77 H81 0.931 . S
C78 N75 1.313 1_655 S
C78 N79 1.344 . S
C78 H82 0.930 . S
N79 C76 1.377 1_655 S
N79 C78 1.344 . S
O80 Co72 2.055 . S
O80 C84 1.253 . S
H81 C77 0.931 . S
H82 C78 0.930 . S
O83 Co72 2.039 . S
O83 C73 1.265 . S
C84 O80 1.253 . S
C84 O85 1.227 . S
O85 C84 1.227 . S
N86 Co72 2.140 . S
N86 C89 1.346 . S
N86 C90 1.345 . S
C87 C88 1.387 . S
C87 C91 1.391 . S
C88 C87 1.387 . S
C88 C89 1.369 . S
C88 H97 0.929 . S
C89 N86 1.346 . S
C89 C88 1.369 . S
C89 H92 0.928 . S
C90 N86 1.345 . S
C90 C91 1.371 . S
C90 H93 0.931 . S
C91 C87 1.391 . S
C91 C90 1.371 . S
C91 H98 0.930 1_455 S
H92 C89 0.928 . S
H93 C90 0.931 . S
H94 C70 0.930 . S
H95 C67 0.930 . S
H96 C76 0.930 . S
H97 C88 0.929 . S
H98 C91 0.930 1_655 S
C99 C100 1.351 . S
C99 N102 1.368 . S
C99 H104 0.931 . S
C100 C99 1.351 . S
C100 N101 1.373 . S
C100 H128 0.930 . S
N101 C100 1.373 . S
N101 C103 1.340 . S
N102 C99 1.368 . S
N102 C103 1.321 . S
N102 Co105 2.135 . S
C103 N101 1.340 . S
C103 N102 1.321 . S
C103 H127 0.930 . S
H104 C99 0.931 . S
Co105 N102 2.135 . S
Co105 N108 2.121 . S
Co105 O113 2.055 . S
Co105 O116 2.039 . S
Co105 N119 2.140 . S
C106 O107 1.227 . S
C106 O116 1.265 . S
O107 C106 1.227 . S
N108 Co105 2.121 . S
N108 C110 1.375 . S
N108 C111 1.313 . S
C109 C110 1.338 . S
C109 N112 1.377 . S
C109 H129 0.930 . S
C110 N108 1.375 . S
C110 C109 1.338 . S
C110 H114 0.931 . S
C111 N108 1.313 . S
C111 N112 1.344 . S
C111 H115 0.930 . S
N112 C109 1.377 . S
N112 C111 1.344 . S
O113 Co105 2.055 . S
O113 C117 1.253 . S
H114 C110 0.931 . S
H115 C111 0.930 . S
O116 Co105 2.039 . S
O116 C106 1.265 . S
C117 O113 1.253 . S
C117 O118 1.227 . S
O118 C117 1.227 . S
N119 Co105 2.140 . S
N119 C122 1.346 . S
N119 C123 1.345 . S
C120 C121 1.387 . S
C120 C124 1.391 . S
C121 C120 1.387 . S
C121 C122 1.369 . S
C121 H130 0.929 . S
C122 N119 1.346 . S
C122 C121 1.369 . S
C122 H125 0.928 . S
C123 N119 1.345 . S
C123 C124 1.371 . S
C123 H126 0.931 . S
C124 C120 1.391 . S
C124 C123 1.371 . S
C124 H131 0.930 . S
H125 C122 0.928 . S
H126 C123 0.931 . S
H127 C103 0.930 . S
H128 C100 0.930 . S
H129 C109 0.930 . S
H130 C121 0.929 . S
H131 C124 0.930 . S
C132 C133 1.351 . S
C132 N135 1.368 . S
C132 H137 0.931 . S
C133 C132 1.351 . S
C133 N134 1.373 . S
C133 H161 0.930 . S
N134 C133 1.373 . S
N134 C136 1.340 . S
N135 C132 1.368 . S
N135 C136 1.321 . S
N135 Co138 2.135 . S
C136 N134 1.340 . S
C136 N135 1.321 . S
C136 H160 0.930 . S
H137 C132 0.931 . S
Co138 N135 2.135 . S
Co138 N141 2.121 . S
Co138 O146 2.055 . S
Co138 O149 2.039 . S
Co138 N152 2.140 . S
C139 O140 1.227 . S
C139 O149 1.265 . S
O140 C139 1.227 . S
N141 Co138 2.121 . S
N141 C143 1.375 . S
N141 C144 1.313 1_655 S
C142 C143 1.338 . S
C142 N145 1.377 1_655 S
C142 H162 0.930 . S
C143 N141 1.375 . S
C143 C142 1.338 . S
C143 H147 0.931 . S
C144 N141 1.313 1_455 S
C144 N145 1.344 . S
C144 H148 0.930 . S
N145 C142 1.377 1_455 S
N145 C144 1.344 . S
O146 Co138 2.055 . S
O146 C150 1.253 . S
H147 C143 0.931 . S
H148 C144 0.930 . S
O149 Co138 2.039 . S
O149 C139 1.265 . S
C150 O146 1.253 . S
C150 O151 1.227 . S
O151 C150 1.227 . S
N152 Co138 2.140 . S
N152 C155 1.346 . S
N152 C156 1.345 . S
C153 C154 1.387 . S
C153 C157 1.391 . S
C154 C153 1.387 . S
C154 C155 1.369 . S
C154 H163 0.929 . S
C155 N152 1.346 . S
C155 C154 1.369 . S
C155 H158 0.928 . S
C156 N152 1.345 . S
C156 C157 1.371 . S
C156 H159 0.931 . S
C157 C153 1.391 . S
C157 C156 1.371 . S
C157 H164 0.930 1_655 S
H158 C155 0.928 . S
H159 C156 0.931 . S
H160 C136 0.930 . S
H161 C133 0.930 . S
H162 C142 0.930 . S
H163 C154 0.929 . S
H164 C157 0.930 1_455 S
C165 C166 1.351 . S
C165 N168 1.368 . S
C165 H170 0.931 . S
C166 C165 1.351 . S
C166 N167 1.373 . S
C166 H194 0.930 . S
N167 C166 1.373 . S
N167 C169 1.340 . S
N168 C165 1.368 . S
N168 C169 1.321 . S
N168 Co171 2.135 . S
C169 N167 1.340 . S
C169 N168 1.321 . S
C169 H193 0.930 . S
H170 C165 0.931 . S
Co171 N168 2.135 . S
Co171 N174 2.121 . S
Co171 O179 2.055 . S
Co171 O182 2.039 . S
Co171 N185 2.140 . S
C172 O173 1.227 . S
C172 O182 1.265 . S
O173 C172 1.227 . S
N174 Co171 2.121 . S
N174 C176 1.375 . S
N174 C177 1.313 . S
C175 C176 1.338 . S
C175 N178 1.377 . S
C175 H195 0.930 . S
C176 N174 1.375 . S
C176 C175 1.338 . S
C176 H180 0.931 . S
C177 N174 1.313 . S
C177 N178 1.344 . S
C177 H181 0.930 . S
N178 C175 1.377 . S
N178 C177 1.344 . S
O179 Co171 2.055 . S
O179 C183 1.253 . S
H180 C176 0.931 . S
H181 C177 0.930 . S
O182 Co171 2.039 . S
O182 C172 1.265 . S
C183 O179 1.253 . S
C183 O184 1.227 . S
O184 C183 1.227 . S
N185 Co171 2.140 . S
N185 C188 1.346 . S
N185 C189 1.345 . S
C186 C187 1.387 . S
C186 C190 1.391 . S
C187 C186 1.387 . S
C187 C188 1.369 . S
C187 H196 0.929 . S
C188 N185 1.346 . S
C188 C187 1.369 . S
C188 H191 0.928 . S
C189 N185 1.345 . S
C189 C190 1.371 . S
C189 H192 0.931 . S
C190 C186 1.391 . S
C190 C189 1.371 . S
C190 H197 0.930 . S
H191 C188 0.928 . S
H192 C189 0.931 . S
H193 C169 0.930 . S
H194 C166 0.930 . S
H195 C175 0.930 . S
H196 C187 0.929 . S
H197 C190 0.930 . S
C198 C199 1.351 . S
C198 N201 1.368 . S
C198 H203 0.931 . S
C199 C198 1.351 . S
C199 N200 1.373 . S
C199 H227 0.930 . S
N200 C199 1.373 . S
N200 C202 1.340 . S
N201 C198 1.368 . S
N201 C202 1.321 . S
N201 Co204 2.135 . S
C202 N200 1.340 . S
C202 N201 1.321 . S
C202 H226 0.930 . S
H203 C198 0.931 . S
Co204 N201 2.135 . S
Co204 N207 2.121 . S
Co204 O212 2.055 . S
Co204 O215 2.039 . S
Co204 N218 2.140 . S
C205 O206 1.227 . S
C205 O215 1.265 . S
O206 C205 1.227 . S
N207 Co204 2.121 . S
N207 C209 1.375 . S
N207 C210 1.313 1_655 S
C208 C209 1.338 . S
C208 N211 1.377 1_655 S
C208 H228 0.930 . S
C209 N207 1.375 . S
C209 C208 1.338 . S
C209 H213 0.931 . S
C210 N207 1.313 1_455 S
C210 N211 1.344 . S
C210 H214 0.930 . S
N211 C208 1.377 1_455 S
N211 C210 1.344 . S
O212 Co204 2.055 . S
O212 C216 1.253 . S
H213 C209 0.931 . S
H214 C210 0.930 . S
O215 Co204 2.039 . S
O215 C205 1.265 . S
C216 O212 1.253 . S
C216 O217 1.227 . S
O217 C216 1.227 . S
N218 Co204 2.140 . S
N218 C221 1.346 . S
N218 C222 1.345 . S
C219 C220 1.387 . S
C219 C223 1.391 . S
C220 C219 1.387 . S
C220 C221 1.369 . S
C220 H229 0.929 . S
C221 N218 1.346 . S
C221 C220 1.369 . S
C221 H224 0.928 . S
C222 N218 1.345 . S
C222 C223 1.371 . S
C222 H225 0.931 . S
C223 C219 1.391 . S
C223 C222 1.371 . S
C223 H230 0.930 1_655 S
H224 C221 0.928 . S
H225 C222 0.931 . S
H226 C202 0.930 . S
H227 C199 0.930 . S
H228 C208 0.930 . S
H229 C220 0.929 . S
H230 C223 0.930 1_455 S
C231 C232 1.351 . S
C231 N234 1.368 . S
C231 H236 0.931 . S
C232 C231 1.351 . S
C232 N233 1.373 . S
C232 H260 0.930 . S
N233 C232 1.373 . S
N233 C235 1.340 . S
N234 C231 1.368 . S
N234 C235 1.321 . S
N234 Co237 2.135 . S
C235 N233 1.340 . S
C235 N234 1.321 . S
C235 H259 0.930 . S
H236 C231 0.931 . S
Co237 N234 2.135 . S
Co237 N240 2.121 . S
Co237 O245 2.055 . S
Co237 O248 2.039 . S
Co237 N251 2.140 . S
C238 O239 1.227 . S
C238 O248 1.265 . S
O239 C238 1.227 . S
N240 Co237 2.121 . S
N240 C242 1.375 . S
N240 C243 1.313 . S
C241 C242 1.338 . S
C241 N244 1.377 . S
C241 H261 0.930 . S
C242 N240 1.375 . S
C242 C241 1.338 . S
C242 H246 0.931 . S
C243 N240 1.313 . S
C243 N244 1.344 . S
C243 H247 0.930 . S
N244 C241 1.377 . S
N244 C243 1.344 . S
O245 Co237 2.055 . S
O245 C249 1.253 . S
H246 C242 0.931 . S
H247 C243 0.930 . S
O248 Co237 2.039 . S
O248 C238 1.265 . S
C249 O245 1.253 . S
C249 O250 1.227 . S
O250 C249 1.227 . S
N251 Co237 2.140 . S
N251 C254 1.346 . S
N251 C255 1.345 . S
C252 C253 1.387 . S
C252 C256 1.391 . S
C253 C252 1.387 . S
C253 C254 1.369 . S
C253 H262 0.929 . S
C254 N251 1.346 . S
C254 C253 1.369 . S
C254 H257 0.928 . S
C255 N251 1.345 . S
C255 C256 1.371 . S
C255 H258 0.931 . S
C256 C252 1.391 . S
C256 C255 1.371 . S
C256 H263 0.930 . S
H257 C254 0.928 . S
H258 C255 0.931 . S
H259 C235 0.930 . S
H260 C232 0.930 . S
H261 C241 0.930 . S
H262 C253 0.929 . S
H263 C256 0.930 . S
H264 C272 0.950 . S
H265 C277 0.950 . S
H266 C274 0.950 . S
H267 C276 0.950 1_556 S
H268 C278 0.950 . S
H269 C280 0.950 . S
H270 C282 0.950 1_554 S
H271 C283 0.950 . S
C272 H264 0.950 . S
C272 C273 1.386 . S
C272 C274 1.391 . S
C273 C272 1.386 . S
C273 C277 1.393 1_455 S
C274 H266 0.950 . S
C274 C272 1.391 . S
C274 C275 1.406 . S
C275 C274 1.406 . S
C275 C276 1.393 1_455 S
C275 C281 1.490 1_444 S
C276 H267 0.950 1_554 S
C276 C275 1.393 1_655 S
C276 C277 1.391 . S
C277 H265 0.950 . S
C277 C273 1.393 1_655 S
C277 C276 1.391 . S
C278 H268 0.950 . S
C278 C279 1.386 . S
C278 C280 1.391 . S
C279 C278 1.386 . S
C279 C283 1.393 1_655 S
C280 H269 0.950 . S
C280 C278 1.391 . S
C280 C281 1.406 . S
C281 C275 1.490 1_666 S
C281 C280 1.406 . S
C281 C282 1.393 1_655 S
C282 H270 0.950 1_556 S
C282 C281 1.393 1_455 S
C282 C283 1.391 . S
C283 H271 0.950 . S
C283 C279 1.393 1_455 S
C283 C282 1.391 . S
H284 C292 0.950 . S
H285 C297 0.940 1_554 S
H286 C294 0.950 1_565 S
H287 C296 0.950 . S
H288 C298 0.950 . S
H289 C300 0.950 1_545 S
H290 C302 0.950 . S
H291 C303 0.940 1_556 S
C292 H284 0.950 . S
C292 C293 1.386 . S
C292 C294 1.391 . S
C293 C292 1.386 . S
C293 C297 1.393 . S
C294 H286 0.950 1_545 S
C294 C292 1.391 . S
C294 C295 1.400 . S
C295 C294 1.400 . S
C295 C296 1.398 1_556 S
C295 C301 1.491 1_546 S
C296 H287 0.950 . S
C296 C295 1.398 1_554 S
C296 C297 1.391 1_554 S
C297 H285 0.940 1_556 S
C297 C293 1.393 . S
C297 C296 1.391 1_556 S
C298 H288 0.950 . S
C298 C299 1.386 . S
C298 C300 1.391 . S
C299 C298 1.386 . S
C299 C303 1.393 . S
C300 H289 0.950 1_565 S
C300 C298 1.391 . S
C300 C301 1.400 . S
C301 C295 1.491 1_564 S
C301 C300 1.400 . S
C301 C302 1.398 1_554 S
C302 H290 0.950 . S
C302 C301 1.398 1_556 S
C302 C303 1.391 1_556 S
C303 H291 0.940 1_554 S
C303 C299 1.393 . S
C303 C302 1.391 1_554 S
H304 C312 0.950 . S
H305 C317 0.950 . S
H306 C314 0.950 . S
H307 C316 0.950 . S
H308 C318 0.950 . S
H309 C320 0.950 . S
H310 C322 0.950 . S
H311 C323 0.950 . S
C312 H304 0.950 . S
C312 C313 1.386 1_455 S
C312 C314 1.391 . S
C313 C312 1.386 1_655 S
C313 C317 1.393 . S
C314 H306 0.950 . S
C314 C312 1.391 . S
C314 C315 1.400 1_455 S
C315 C314 1.400 1_655 S
C315 C316 1.398 . S
C315 C321 1.491 1_655 S
C316 H307 0.950 . S
C316 C315 1.398 . S
C316 C317 1.391 . S
C317 H305 0.950 . S
C317 C313 1.393 . S
C317 C316 1.391 . S
C318 H308 0.950 . S
C318 C319 1.386 1_655 S
C318 C320 1.391 . S
C319 C318 1.386 1_455 S
C319 C323 1.393 . S
C320 H309 0.950 . S
C320 C318 1.391 . S
C320 C321 1.400 1_655 S
C321 C315 1.491 1_455 S
C321 C320 1.400 1_455 S
C321 C322 1.398 . S
C322 H310 0.950 . S
C322 C321 1.398 . S
C322 C323 1.391 . S
C323 H311 0.950 . S
C323 C319 1.393 . S
C323 C322 1.391 . S
H324 C332 0.950 . S
H325 C337 0.950 . S
H326 C334 0.950 . S
H327 C336 0.950 . S
H328 C338 0.950 . S
H329 C340 0.950 . S
H330 C342 0.950 . S
H331 C343 0.950 . S
C332 H324 0.950 . S
C332 C333 1.386 . S
C332 C334 1.391 . S
C333 C332 1.386 . S
C333 C337 1.393 . S
C334 H326 0.950 . S
C334 C332 1.391 . S
C334 C335 1.400 . S
C335 C334 1.400 . S
C335 C336 1.398 . S
C335 C341 1.491 . S
C336 H327 0.950 . S
C336 C335 1.398 . S
C336 C337 1.391 . S
C337 H325 0.950 . S
C337 C333 1.393 . S
C337 C336 1.391 . S
C338 H328 0.950 . S
C338 C339 1.386 . S
C338 C340 1.391 . S
C339 C338 1.386 . S
C339 C343 1.393 . S
C340 H329 0.950 . S
C340 C338 1.391 . S
C340 C341 1.400 . S
C341 C335 1.491 . S
C341 C340 1.400 . S
C341 C342 1.398 . S
C342 H330 0.950 . S
C342 C341 1.398 . S
C342 C343 1.391 . S
C343 H331 0.950 . S
C343 C339 1.393 . S
C343 C342 1.391 . S
H344 C352 0.950 . S
H345 C357 0.950 . S
H346 C354 0.950 . S
H347 C356 0.950 . S
H348 C358 0.950 . S
H349 C360 0.950 . S
H350 C362 0.950 . S
H351 C363 0.950 . S
C352 H344 0.950 . S
C352 C353 1.386 . S
C352 C354 1.391 . S
C353 C352 1.386 . S
C353 C357 1.393 . S
C354 H346 0.950 . S
C354 C352 1.391 . S
C354 C355 1.400 . S
C355 C354 1.400 . S
C355 C356 1.398 . S
C355 C361 1.491 1_565 S
C356 H347 0.950 . S
C356 C355 1.398 . S
C356 C357 1.391 . S
C357 H345 0.950 . S
C357 C353 1.393 . S
C357 C356 1.391 . S
C358 H348 0.950 . S
C358 C359 1.386 . S
C358 C360 1.391 . S
C359 C358 1.386 . S
C359 C363 1.393 . S
C360 H349 0.950 . S
C360 C358 1.391 . S
C360 C361 1.400 . S
C361 C355 1.491 1_545 S
C361 C360 1.400 . S
C361 C362 1.398 . S
C362 H350 0.950 . S
C362 C361 1.398 . S
C362 C363 1.391 . S
C363 H351 0.950 . S
C363 C359 1.393 . S
C363 C362 1.391 . S
H364 C372 0.950 . S
H365 C377 0.950 . S
H366 C374 0.950 . S
H367 C376 0.950 . S
H368 C378 0.950 . S
H369 C380 0.950 . S
H370 C382 0.950 . S
H371 C383 0.950 . S
C372 H364 0.950 . S
C372 C373 1.386 . S
C372 C374 1.391 . S
C373 C372 1.386 . S
C373 C377 1.393 . S
C374 H366 0.950 . S
C374 C372 1.391 . S
C374 C375 1.400 . S
C375 C374 1.400 . S
C375 C376 1.398 . S
C375 C381 1.491 . S
C376 H367 0.950 . S
C376 C375 1.398 . S
C376 C377 1.391 . S
C377 H365 0.950 . S
C377 C373 1.393 . S
C377 C376 1.391 . S
C378 H368 0.950 . S
C378 C379 1.386 . S
C378 C380 1.391 . S
C379 C378 1.386 . S
C379 C383 1.393 . S
C380 H369 0.950 . S
C380 C378 1.391 . S
C380 C381 1.400 . S
C381 C375 1.491 . S
C381 C380 1.400 . S
C381 C382 1.398 . S
C382 H370 0.950 . S
C382 C381 1.398 . S
C382 C383 1.391 . S
C383 H371 0.950 . S
C383 C379 1.393 . S
C383 C382 1.391 . S
H384 C392 0.950 . S
H385 C397 0.950 . S
H386 C394 0.950 . S
H387 C396 0.950 . S
H388 C398 0.950 . S
H389 C400 0.950 . S
H390 C402 0.950 . S
H391 C403 0.950 . S
C392 H384 0.950 . S
C392 C393 1.386 . S
C392 C394 1.391 . S
C393 C392 1.386 . S
C393 C397 1.393 . S
C394 H386 0.950 . S
C394 C392 1.391 . S
C394 C395 1.400 . S
C395 C394 1.400 . S
C395 C396 1.398 . S
C395 C401 1.491 1_565 S
C396 H387 0.950 . S
C396 C395 1.398 . S
C396 C397 1.391 . S
C397 H385 0.950 . S
C397 C393 1.393 . S
C397 C396 1.391 . S
C398 H388 0.950 . S
C398 C399 1.386 . S
C398 C400 1.391 . S
C399 C398 1.386 . S
C399 C403 1.393 . S
C400 H389 0.950 . S
C400 C398 1.391 . S
C400 C401 1.400 . S
C401 C395 1.491 1_545 S
C401 C400 1.400 . S
C401 C402 1.398 . S
C402 H390 0.950 . S
C402 C401 1.398 . S
C402 C403 1.391 . S
C403 H391 0.950 . S
C403 C399 1.393 . S
C403 C402 1.391 . S
H404 C412 0.950 . S
H405 C417 0.950 . S
H406 C414 0.950 . S
H407 C416 0.950 . S
H408 C418 0.950 . S
H409 C420 0.950 . S
H410 C422 0.950 . S
H411 C423 0.950 . S
C412 H404 0.950 . S
C412 C413 1.386 . S
C412 C414 1.391 . S
C413 C412 1.386 . S
C413 C417 1.393 . S
C414 H406 0.950 . S
C414 C412 1.391 . S
C414 C415 1.400 . S
C415 C414 1.400 . S
C415 C416 1.398 . S
C415 C421 1.491 . S
C416 H407 0.950 . S
C416 C415 1.398 . S
C416 C417 1.391 . S
C417 H405 0.950 . S
C417 C413 1.393 . S
C417 C416 1.391 . S
C418 H408 0.950 . S
C418 C419 1.386 . S
C418 C420 1.391 . S
C419 C418 1.386 . S
C419 C423 1.393 . S
C420 H409 0.950 . S
C420 C418 1.391 . S
C420 C421 1.400 . S
C421 C415 1.491 . S
C421 C420 1.400 . S
C421 C422 1.398 . S
C422 H410 0.950 . S
C422 C421 1.398 . S
C422 C423 1.391 . S
C423 H411 0.950 . S
C423 C419 1.393 . S
C423 C422 1.391 . S
H424 C432 0.939 1_556 S
H425 C437 0.950 . S
H426 C434 0.950 . S
H427 C436 0.950 . S
H428 C438 0.950 1_554 S
H429 C440 0.950 . S
H430 C442 0.950 . S
H431 C443 0.950 . S
C432 H424 0.939 1_554 S
C432 C433 1.386 . S
C432 C434 1.391 1_554 S
C433 C432 1.386 . S
C433 C437 1.393 . S
C434 H426 0.950 . S
C434 C432 1.391 1_556 S
C434 C435 1.400 1_556 S
C435 C434 1.400 1_554 S
C435 C436 1.398 . S
C435 C441 1.491 1_554 S
C436 H427 0.950 . S
C436 C435 1.398 . S
C436 C437 1.391 . S
C437 H425 0.950 . S
C437 C433 1.393 . S
C437 C436 1.391 . S
C438 H428 0.950 1_556 S
C438 C439 1.386 . S
C438 C440 1.391 1_556 S
C439 C438 1.386 . S
C439 C443 1.393 . S
C440 H429 0.950 . S
C440 C438 1.391 1_554 S
C440 C441 1.400 1_554 S
C441 C435 1.491 1_556 S
C441 C440 1.400 1_556 S
C441 C442 1.398 . S
C442 H430 0.950 . S
C442 C441 1.398 . S
C442 C443 1.391 . S
C443 H431 0.950 . S
C443 C439 1.393 . S
C443 C442 1.391 . S
H444 C452 0.950 . S
H445 C457 0.950 . S
H446 C454 0.950 . S
H447 C456 0.950 1_554 S
H448 C458 0.950 . S
H449 C460 0.950 . S
H450 C462 0.960 . S
H451 C463 0.950 . S
C452 H444 0.950 . S
C452 C453 1.386 . S
C452 C454 1.391 . S
C453 C452 1.386 . S
C453 C457 1.393 . S
C454 H446 0.950 . S
C454 C452 1.391 . S
C454 C455 1.400 . S
C455 C454 1.400 . S
C455 C456 1.398 . S
C455 C461 1.491 1_556 S
C456 H447 0.950 1_556 S
C456 C455 1.398 . S
C456 C457 1.391 . S
C457 H445 0.950 . S
C457 C453 1.393 . S
C457 C456 1.391 . S
C458 H448 0.950 . S
C458 C459 1.386 . S
C458 C460 1.391 . S
C459 C458 1.386 . S
C459 C463 1.393 . S
C460 H449 0.950 . S
C460 C458 1.391 . S
C460 C461 1.400 . S
C461 C455 1.491 1_554 S
C461 C460 1.400 . S
C461 C462 1.398 . S
C462 H450 0.960 . S
C462 C461 1.398 . S
C462 C463 1.391 . S
C463 H451 0.950 . S
C463 C459 1.393 . S
C463 C462 1.391 . S
H464 C472 0.950 . S
H465 C477 0.950 . S
H466 C474 0.950 . S
H467 C476 0.950 . S
H468 C478 0.950 . S
H469 C480 0.950 . S
H470 C482 0.950 . S
H471 C483 0.950 . S
C472 H464 0.950 . S
C472 C473 1.386 . S
C472 C474 1.391 . S
C473 C472 1.386 . S
C473 C477 1.393 . S
C474 H466 0.950 . S
C474 C472 1.391 . S
C474 C475 1.400 . S
C475 C474 1.400 . S
C475 C476 1.398 . S
C475 C481 1.491 . S
C476 H467 0.950 . S
C476 C475 1.398 . S
C476 C477 1.391 . S
C477 H465 0.950 . S
C477 C473 1.393 . S
C477 C476 1.391 . S
C478 H468 0.950 . S
C478 C479 1.386 . S
C478 C480 1.391 . S
C479 C478 1.386 . S
C479 C483 1.393 . S
C480 H469 0.950 . S
C480 C478 1.391 . S
C480 C481 1.400 . S
C481 C475 1.491 . S
C481 C480 1.400 . S
C481 C482 1.398 . S
C482 H470 0.950 . S
C482 C481 1.398 . S
C482 C483 1.391 . S
C483 H471 0.950 . S
C483 C479 1.393 . S
C483 C482 1.391 . S
H484 C492 0.950 . S
H485 C497 0.950 . S
H486 C494 0.950 . S
H487 C496 0.950 . S
H488 C498 0.950 . S
H489 C500 0.950 . S
H490 C502 0.950 . S
H491 C503 0.950 . S
C492 H484 0.950 . S
C492 C493 1.386 . S
C492 C494 1.391 . S
C493 C492 1.386 . S
C493 C497 1.393 . S
C494 H486 0.950 . S
C494 C492 1.391 . S
C494 C495 1.400 . S
C495 C494 1.400 . S
C495 C496 1.398 . S
C495 C501 1.491 . S
C496 H487 0.950 . S
C496 C495 1.398 . S
C496 C497 1.391 . S
C497 H485 0.950 . S
C497 C493 1.393 . S
C497 C496 1.391 . S
C498 H488 0.950 . S
C498 C499 1.386 . S
C498 C500 1.391 . S
C499 C498 1.386 . S
C499 C503 1.393 . S
C500 H489 0.950 . S
C500 C498 1.391 . S
C500 C501 1.400 . S
C501 C495 1.491 . S
C501 C500 1.400 . S
C501 C502 1.398 . S
C502 H490 0.950 . S
C502 C501 1.398 . S
C502 C503 1.391 . S
C503 H491 0.950 . S
C503 C499 1.393 . S
C503 C502 1.391 . S
H504 C512 0.950 . S
H505 C517 0.950 . S
H506 C514 0.950 . S
H507 C516 0.950 . S
H508 C518 0.950 . S
H509 C520 0.950 . S
H510 C522 0.950 . S
H511 C523 0.950 . S
C512 H504 0.950 . S
C512 C513 1.386 1_556 S
C512 C514 1.391 . S
C513 C512 1.386 1_554 S
C513 C517 1.393 . S
C514 H506 0.950 . S
C514 C512 1.391 . S
C514 C515 1.400 1_556 S
C515 C514 1.400 1_554 S
C515 C516 1.398 . S
C515 C521 1.491 1_554 S
C516 H507 0.950 . S
C516 C515 1.398 . S
C516 C517 1.391 . S
C517 H505 0.950 . S
C517 C513 1.393 . S
C517 C516 1.391 . S
C518 H508 0.950 . S
C518 C519 1.386 1_554 S
C518 C520 1.391 . S
C519 C518 1.386 1_556 S
C519 C523 1.393 . S
C520 H509 0.950 . S
C520 C518 1.391 . S
C520 C521 1.400 1_554 S
C521 C515 1.491 1_556 S
C521 C520 1.400 1_556 S
C521 C522 1.398 . S
C522 H510 0.950 . S
C522 C521 1.398 . S
C522 C523 1.391 . S
C523 H511 0.950 . S
C523 C519 1.393 . S
C523 C522 1.391 . S
H524 C532 0.961 . S
H525 C537 0.950 . S
H526 C534 0.950 . S
H527 C536 0.950 . S
H528 C538 0.950 . S
H529 C540 0.950 . S
H530 C542 0.950 . S
H531 C543 0.950 . S
C532 H524 0.961 . S
C532 C533 1.368 1_554 S
C532 C534 1.398 . S
C533 C532 1.368 1_556 S
C533 C537 1.393 . S
C534 H526 0.950 . S
C534 C532 1.398 . S
C534 C535 1.400 1_554 S
C535 C534 1.400 1_556 S
C535 C536 1.398 . S
C535 C541 1.491 1_556 S
C536 H527 0.950 . S
C536 C535 1.398 . S
C536 C537 1.391 . S
C537 H525 0.950 . S
C537 C533 1.393 . S
C537 C536 1.391 . S
C538 H528 0.950 . S
C538 C539 1.386 1_556 S
C538 C540 1.391 . S
C539 C538 1.386 1_554 S
C539 C543 1.393 . S
C540 H529 0.950 . S
C540 C538 1.391 . S
C540 C541 1.400 1_556 S
C541 C535 1.491 1_554 S
C541 C540 1.400 1_554 S
C541 C542 1.398 . S
C542 H530 0.950 . S
C542 C541 1.398 . S
C542 C543 1.391 . S
C543 H531 0.950 . S
C543 C539 1.393 . S
C543 C542 1.391 . S
H544 C552 0.950 . S
H545 C557 0.950 . S
H546 C554 0.950 . S
H547 C556 0.950 . S
H548 C558 0.950 . S
H549 C560 0.950 . S
H550 C562 0.950 . S
H551 C563 0.950 . S
C552 H544 0.950 . S
C552 C553 1.386 . S
C552 C554 1.391 . S
C553 C552 1.386 . S
C553 C557 1.393 . S
C554 H546 0.950 . S
C554 C552 1.391 . S
C554 C555 1.400 . S
C555 C554 1.400 . S
C555 C556 1.398 . S
C555 C561 1.491 . S
C556 H547 0.950 . S
C556 C555 1.398 . S
C556 C557 1.391 . S
C557 H545 0.950 . S
C557 C553 1.393 . S
C557 C556 1.391 . S
C558 H548 0.950 . S
C558 C559 1.386 . S
C558 C560 1.391 . S
C559 C558 1.386 . S
C559 C563 1.393 . S
C560 H549 0.950 . S
C560 C558 1.391 . S
C560 C561 1.400 . S
C561 C555 1.491 . S
C561 C560 1.400 . S
C561 C562 1.398 . S
C562 H550 0.950 . S
C562 C561 1.398 . S
C562 C563 1.391 . S
C563 H551 0.950 . S
C563 C559 1.393 . S
C563 C562 1.391 . S
H564 C572 0.950 . S
H565 C577 0.950 . S
H566 C574 0.950 . S
H567 C576 0.950 . S
H568 C578 0.950 . S
H569 C580 0.950 . S
H570 C582 0.950 . S
H571 C583 0.950 . S
C572 H564 0.950 . S
C572 C573 1.386 . S
C572 C574 1.391 . S
C573 C572 1.386 . S
C573 C577 1.393 . S
C574 H566 0.950 . S
C574 C572 1.391 . S
C574 C575 1.400 . S
C575 C574 1.400 . S
C575 C576 1.398 . S
C575 C581 1.491 . S
C576 H567 0.950 . S
C576 C575 1.398 . S
C576 C577 1.391 . S
C577 H565 0.950 . S
C577 C573 1.393 . S
C577 C576 1.391 . S
C578 H568 0.950 . S
C578 C579 1.386 . S
C578 C580 1.391 . S
C579 C578 1.386 . S
C579 C583 1.393 . S
C580 H569 0.950 . S
C580 C578 1.391 . S
C580 C581 1.400 . S
C581 C575 1.491 . S
C581 C580 1.400 . S
C581 C582 1.398 . S
C582 H570 0.950 . S
C582 C581 1.398 . S
C582 C583 1.391 . S
C583 H571 0.950 . S
C583 C579 1.393 . S
C583 C582 1.391 . S
H584 C592 0.950 . S
H585 C597 0.950 . S
H586 C594 0.950 . S
H587 C596 0.950 . S
H588 C598 0.950 . S
H589 C600 0.950 . S
H590 C602 0.950 . S
H591 C603 0.950 . S
C592 H584 0.950 . S
C592 C593 1.386 . S
C592 C594 1.391 . S
C593 C592 1.386 . S
C593 C597 1.393 . S
C594 H586 0.950 . S
C594 C592 1.391 . S
C594 C595 1.400 . S
C595 C594 1.400 . S
C595 C596 1.398 . S
C595 C601 1.491 . S
C596 H587 0.950 . S
C596 C595 1.398 . S
C596 C597 1.391 . S
C597 H585 0.950 . S
C597 C593 1.393 . S
C597 C596 1.391 . S
C598 H588 0.950 . S
C598 C599 1.386 . S
C598 C600 1.391 . S
C599 C598 1.386 . S
C599 C603 1.393 . S
C600 H589 0.950 . S
C600 C598 1.391 . S
C600 C601 1.400 . S
C601 C595 1.491 . S
C601 C600 1.400 . S
C601 C602 1.398 . S
C602 H590 0.950 . S
C602 C601 1.398 . S
C602 C603 1.391 . S
C603 H591 0.950 . S
C603 C599 1.393 . S
C603 C602 1.391 . S
H604 C612 0.950 . S
H605 C617 0.950 . S
H606 C614 0.950 . S
H607 C616 0.950 . S
H608 C618 0.950 . S
H609 C620 0.950 . S
H610 C622 0.950 . S
H611 C623 0.950 . S
C612 H604 0.950 . S
C612 C613 1.386 . S
C612 C614 1.391 . S
C613 C612 1.386 . S
C613 C617 1.393 . S
C614 H606 0.950 . S
C614 C612 1.391 . S
C614 C615 1.400 . S
C615 C614 1.400 . S
C615 C616 1.398 . S
C615 C621 1.491 . S
C616 H607 0.950 . S
C616 C615 1.398 . S
C616 C617 1.391 . S
C617 H605 0.950 . S
C617 C613 1.393 . S
C617 C616 1.391 . S
C618 H608 0.950 . S
C618 C619 1.386 . S
C618 C620 1.391 . S
C619 C618 1.386 . S
C619 C623 1.393 . S
C620 H609 0.950 . S
C620 C618 1.391 . S
C620 C621 1.400 . S
C621 C615 1.491 . S
C621 C620 1.400 . S
C621 C622 1.398 . S
C622 H610 0.950 . S
C622 C621 1.398 . S
C622 C623 1.391 . S
C623 H611 0.950 . S
C623 C619 1.393 . S
C623 C622 1.391 . S
H624 C632 0.950 . S
H625 C637 0.950 . S
H626 C634 0.950 . S
H627 C636 0.950 . S
H628 C638 0.950 . S
H629 C640 0.950 . S
H630 C642 0.948 1_455 S
H631 C643 0.958 . S
C632 H624 0.950 . S
C632 C633 1.386 . S
C632 C634 1.391 . S
C633 C632 1.386 . S
C633 C637 1.393 . S
C634 H626 0.950 . S
C634 C632 1.391 . S
C634 C635 1.400 . S
C635 C634 1.400 . S
C635 C636 1.398 . S
C635 C641 1.491 . S
C636 H627 0.950 . S
C636 C635 1.398 . S
C636 C637 1.391 . S
C637 H625 0.950 . S
C637 C633 1.393 . S
C637 C636 1.391 . S
C638 H628 0.950 . S
C638 C639 1.386 . S
C638 C640 1.391 . S
C639 C638 1.386 . S
C639 C643 1.393 . S
C640 H629 0.950 . S
C640 C638 1.391 . S
C640 C641 1.400 . S
C641 C635 1.491 . S
C641 C640 1.400 . S
C641 C642 1.398 . S
C642 H630 0.948 1_655 S
C642 C641 1.398 . S
C642 C643 1.391 . S
C643 H631 0.958 . S
C643 C639 1.393 . S
C643 C642 1.391 . S
H644 C652 0.950 . S
H645 C657 0.950 . S
H646 C654 0.950 . S
H647 C656 0.950 . S
H648 C658 0.950 . S
H649 C660 0.950 . S
H650 C662 0.950 . S
H651 C663 0.950 . S
C652 H644 0.950 . S
C652 C653 1.386 . S
C652 C654 1.391 . S
C653 C652 1.386 . S
C653 C657 1.393 . S
C654 H646 0.950 . S
C654 C652 1.391 . S
C654 C655 1.400 . S
C655 C654 1.400 . S
C655 C656 1.398 . S
C655 C661 1.491 . S
C656 H647 0.950 . S
C656 C655 1.398 . S
C656 C657 1.391 . S
C657 H645 0.950 . S
C657 C653 1.393 . S
C657 C656 1.391 . S
C658 H648 0.950 . S
C658 C659 1.386 . S
C658 C660 1.391 . S
C659 C658 1.386 . S
C659 C663 1.393 . S
C660 H649 0.950 . S
C660 C658 1.391 . S
C660 C661 1.400 . S
C661 C655 1.491 . S
C661 C660 1.400 . S
C661 C662 1.398 . S
C662 H650 0.950 . S
C662 C661 1.398 . S
C662 C663 1.391 . S
C663 H651 0.950 . S
C663 C659 1.393 . S
C663 C662 1.391 . S
C273 C18 1.051 . S
C279 C150 1.051 . S
C293 C183 1.022 . S
C299 C51 1.022 . S
C313 C216 1.032 . S
C319 C84 1.032 . S
C333 C117 1.032 . S
C339 C249 1.032 . S
C353 N35 0.720 . S
C359 N2 0.738 . S
C373 N68 0.652 . S
C379 N101 0.662 . S
C393 N134 0.708 . S
C399 N167 0.678 . S
C413 N233 0.736 . S
C419 N200 0.715 . S
C433 C7 1.757 . S
C439 N178 1.844 . S
C453 N145 1.846 . S
C459 C40 1.768 . S
C473 N244 1.849 . S
C479 C73 1.759 . S
C493 N211 1.844 . S
C499 C106 1.771 . S
C513 N46 1.841 . S
C519 C139 1.771 . S
C533 C172 1.746 . S
C539 N13 1.850 . S
C553 C205 1.769 . S
C559 N112 1.841 . S
C573 N79 1.850 . S
C579 C238 1.758 . S
C593 C87 1.458 . S
C599 C21 1.463 . S
C613 C54 1.459 . S
C619 C120 1.464 . S
C633 C219 1.469 . S
C639 C153 1.473 . S
C653 C252 1.463 . S
C659 C186 1.469 . S
