# Generated by pormake.
# Topology unh, (4)-cn, num edge types: 1
# Building blocks:
#     Node 0, Type 0, BuildingBlock: GALJAG_clean_sbu_0, # of connection points: 4
#     Node 1, Type 0, BuildingBlock: GALJAG_clean_sbu_0, # of connection points: 4
#     Node 2, Type 0, BuildingBlock: GALJAG_clean_sbu_0, # of connection points: 4
#     Node 3, Type 0, BuildingBlock: GALJAG_clean_sbu_0, # of connection points: 4
#     Node 4, Type 0, BuildingBlock: GALJAG_clean_sbu_0, # of connection points: 4
#     Node 5, Type 0, BuildingBlock: GALJAG_clean_sbu_0, # of connection points: 4
#     Edge 6, Type (0, 0), BuildingBlock: EZIPEK_clean_linker_0, # of connection points: 2
#     Edge 7, Type (0, 0), BuildingBlock: EZIPEK_clean_linker_0, # of connection points: 2
#     Edge 8, Type (0, 0), BuildingBlock: EZIPEK_clean_linker_0, # of connection points: 2
#     Edge 9, Type (0, 0), BuildingBlock: EZIPEK_clean_linker_0, # of connection points: 2
#     Edge 10, Type (0, 0), BuildingBlock: EZIPEK_clean_linker_0, # of connection points: 2
#     Edge 11, Type (0, 0), BuildingBlock: EZIPEK_clean_linker_0, # of connection points: 2
#     Edge 12, Type (0, 0), BuildingBlock: EZIPEK_clean_linker_0, # of connection points: 2
#     Edge 13, Type (0, 0), BuildingBlock: EZIPEK_clean_linker_0, # of connection points: 2
#     Edge 14, Type (0, 0), BuildingBlock: EZIPEK_clean_linker_0, # of connection points: 2
#     Edge 15, Type (0, 0), BuildingBlock: EZIPEK_clean_linker_0, # of connection points: 2
#     Edge 16, Type (0, 0), BuildingBlock: EZIPEK_clean_linker_0, # of connection points: 2
#     Edge 17, Type (0, 0), BuildingBlock: EZIPEK_clean_linker_0, # of connection points: 2
# Relax obj value: 0.030
# Max RMSD: 0.133
# Mean RMSD: 0.133
data_MOF--net-unh--node1-GALJAG_clean_sbu_0--edge1-EZIPEK_clean_linker_0
_symmetry_space_group_name_H-M    P1
_symmetry_Int_Tables_number       1
_symmetry_cell_setting            triclinic
loop_
_symmetry_equiv_pos_as_xyz
'x, y, z'
_cell_length_a     33.421836
_cell_length_b     33.445796
_cell_length_c     15.05219
_cell_angle_alpha  90.057268
_cell_angle_beta   89.985997
_cell_angle_gamma 119.87814
loop_
_atom_site_label
_atom_site_type_symbol
_atom_site_fract_x
_atom_site_fract_y
_atom_site_fract_z
_atom_type_partial_charge
In0 In 0.13179 0.5638 0.06962 0.0
O1 O 0.09521 0.50483 0.97129 0.0
O2 O 0.07879 0.55933 0.97212 0.0
C3 C 0.19274 0.54946 0.1603 0.0
C4 C 0.06482 0.53841 0.19037 0.0
C5 C 0.19387 0.64157 0.98849 0.0
O6 O 0.17752 0.53095 0.08527 0.0
O7 O 0.17528 0.5725 0.19034 0.0
O8 O 0.17181 0.64264 0.05612 0.0
O9 O 0.18263 0.60179 0.96061 0.0
C10 C 0.07089 0.52103 0.94039 0.0
O11 O 0.09382 0.58065 0.17714 0.0
O12 O 0.07045 0.51047 0.14293 0.0
In13 In 0.55672 0.13243 0.24443 0.0
O14 O 0.5811 0.09647 0.14701 0.0
O15 O 0.50936 0.07472 0.15209 0.0
C16 C 0.63643 0.18881 0.3282 0.0
C17 C 0.50686 0.07264 0.37226 0.0
C18 C 0.54118 0.19468 0.1614 0.0
O19 O 0.63414 0.16262 0.26556 0.0
O20 O 0.5986 0.186 0.34945 0.0
O21 O 0.51797 0.17211 0.22793 0.0
O22 O 0.57152 0.18531 0.13588 0.0
C23 C 0.54092 0.06933 0.11876 0.0
O24 O 0.49302 0.097 0.33354 0.0
O25 O 0.54599 0.07954 0.34886 0.0
In26 In 0.42953 0.57125 0.40602 0.0
O27 O 0.49494 0.58969 0.32657 0.0
O28 O 0.43301 0.52768 0.29466 0.0
C29 C 0.44884 0.65229 0.47806 0.0
C30 C 0.44516 0.52498 0.53437 0.0
C31 C 0.34999 0.55471 0.3313 0.0
O32 O 0.47065 0.65007 0.41119 0.0
O33 O 0.41846 0.61394 0.5089 0.0
O34 O 0.35063 0.53336 0.40019 0.0
O35 O 0.38903 0.58348 0.30045 0.0
C36 C 0.47554 0.55324 0.28059 0.0
O37 O 0.40963 0.50567 0.48582 0.0
O38 O 0.47078 0.56757 0.5215 0.0
In39 In 0.85235 0.41856 0.57402 0.0
O40 O 0.89388 0.40275 0.6731 0.0
O41 O 0.90728 0.47228 0.66297 0.0
C42 C 0.7926 0.33667 0.50124 0.0
C43 C 0.91354 0.45851 0.44179 0.0
C44 C 0.79136 0.43584 0.65611 0.0
O45 O 0.81728 0.33952 0.56725 0.0
O46 O 0.79934 0.37468 0.47132 0.0
O47 O 0.81275 0.45783 0.58729 0.0
O48 O 0.80221 0.40701 0.68434 0.0
C49 C 0.91778 0.44435 0.6979 0.0
O50 O 0.88139 0.46752 0.45436 0.0
O51 O 0.91336 0.42919 0.49447 0.0
In52 In 0.42509 0.86149 0.73771 0.0
O53 O 0.39642 0.89756 0.65077 0.0
O54 O 0.46798 0.91873 0.64153 0.0
C55 C 0.34933 0.79755 0.82234 0.0
C56 C 0.47078 0.92233 0.86678 0.0
C57 C 0.44678 0.80417 0.65164 0.0
O58 O 0.34678 0.81758 0.75322 0.0
O59 O 0.38973 0.81048 0.84919 0.0
O60 O 0.47126 0.82996 0.71416 0.0
O61 O 0.41253 0.80842 0.63101 0.0
C62 C 0.43523 0.92446 0.61657 0.0
O63 O 0.48743 0.90013 0.82885 0.0
O64 O 0.43095 0.91273 0.84191 0.0
In65 In 0.56153 0.4274 0.90765 0.0
O66 O 0.49914 0.40633 0.81733 0.0
O67 O 0.55637 0.47489 0.80824 0.0
C68 C 0.54114 0.34738 0.98642 0.0
C69 C 0.54986 0.47632 0.0356 0.0
C70 C 0.63764 0.43957 0.82359 0.0
O71 O 0.51665 0.34919 0.92428 0.0
O72 O 0.57456 0.38574 0.00999 0.0
O73 O 0.63996 0.46109 0.89425 0.0
O74 O 0.59737 0.41324 0.7949 0.0
C75 C 0.51639 0.44581 0.7822 0.0
O76 O 0.58788 0.49168 -0.00471 0.0
O77 O 0.51908 0.43624 0.01389 0.0
C78 C 0.99182 0.45775 0.9003 0.0
C79 C 0.03414 0.49659 0.87397 0.0
C80 C 0.00219 0.4948 0.72689 0.0
C81 C 0.9581 0.46033 0.7574 0.0
N82 N 0.90931 0.41192 0.87557 0.0
N83 N 0.0799 0.55411 0.76491 0.0
C84 C 0.95251 0.44208 0.84442 0.0
C85 C 0.03943 0.51565 0.78791 0.0
N86 N 0.98905 0.43615 0.979 0.0
N87 N 0.00893 0.50629 0.6388 0.0
H88 H 0.10909 0.56847 0.80553 0.0
H89 H 0.08384 0.57324 0.70773 0.0
H90 H 0.98284 0.49111 0.59145 0.0
H91 H 0.04124 0.52758 0.6109 0.0
H92 H 0.96063 0.40489 -0.00249 0.0
H93 H 0.01668 0.44731 0.02288 0.0
H94 H 0.90233 0.40149 0.94161 0.0
H95 H 0.87955 0.4001 0.8372 0.0
C96 C 0.52961 0.00309 0.90622 0.0
C97 C 0.49608 0.95817 0.9341 0.0
C98 C 0.50268 0.98528 0.08714 0.0
C99 C 0.53036 0.03121 0.05672 0.0
N100 N 0.56897 0.08515 0.9378 0.0
N101 N 0.44947 0.90548 0.04922 0.0
C102 C 0.54422 0.04053 0.9666 0.0
C103 C 0.48249 0.94888 0.02427 0.0
N104 N 0.54705 0.00988 0.82193 0.0
N105 N 0.49676 0.97655 0.17636 0.0
H106 H 0.43588 0.87741 0.00578 0.0
H107 H 0.43386 0.89768 0.1115 0.0
H108 H 0.51212 0.0025 0.22412 0.0
H109 H 0.48035 0.94353 0.20342 0.0
H110 H 0.57463 0.04092 0.8 0.0
H111 H 0.5363 0.98333 0.77549 0.0
H112 H 0.57541 0.09439 0.87112 0.0
H113 H 0.58067 0.11341 0.98038 0.0
C114 C 0.52224 0.56266 0.14335 0.0
C115 C 0.50124 0.53817 0.22257 0.0
C116 C 0.52679 0.48275 0.18881 0.0
C117 C 0.54077 0.50257 0.10363 0.0
N118 N 0.54949 0.55957 -0.00453 0.0
N119 N 0.48003 0.47236 0.31831 0.0
C120 C 0.53871 0.54259 0.08003 0.0
C121 C 0.50269 0.49759 0.24491 0.0
N122 N 0.5255 0.60443 0.12769 0.0
N123 N 0.53753 0.4503 0.21654 0.0
H124 H 0.46318 0.48239 0.36366 0.0
H125 H 0.47527 0.4397 0.33138 0.0
H126 H 0.55638 0.43979 0.1773 0.0
H127 H 0.53224 0.43756 0.28117 0.0
H128 H 0.54479 0.62614 0.07594 0.0
H129 H 0.5116 0.61901 0.17011 0.0
H130 H 0.54324 0.58503 0.9709 0.0
H131 H 0.562 0.54612 0.94743 0.0
C132 C 0.96862 0.52693 0.34561 0.0
C133 C 0.94974 0.48006 0.37215 0.0
C134 C 0.01317 0.4778 0.29749 0.0
C135 C 0.02732 0.52121 0.25763 0.0
N136 N 0.00933 0.58191 0.22876 0.0
N137 N 0.94671 0.40725 0.34312 0.0
C138 C 0.00249 0.5445 0.27709 0.0
C139 C 0.96965 0.45429 0.33864 0.0
N140 N 0.95655 0.55556 0.38765 0.0
N141 N 0.04173 0.45953 0.29979 0.0
H142 H 0.91266 0.38801 0.36485 0.0
H143 H 0.95947 0.38756 0.31388 0.0
H144 H 0.07606 0.47772 0.27913 0.0
H145 H 0.03308 0.42905 0.33359 0.0
H146 H 0.97289 0.59085 0.37469 0.0
H147 H 0.93446 0.54571 0.44203 0.0
H148 H 0.98881 0.59706 0.2365 0.0
H149 H 0.03152 0.5945 0.17452 0.0
C150 C 0.4455 0.99259 0.40836 0.0
C151 C 0.47909 0.03707 0.43823 0.0
C152 C 0.47056 0.00857 0.59035 0.0
C153 C 0.44354 0.96298 0.55771 0.0
N154 N 0.40463 0.91023 0.43727 0.0
N155 N 0.52342 0.08898 0.55619 0.0
C156 C 0.42999 0.95456 0.46738 0.0
C157 C 0.49117 0.04566 0.52917 0.0
N158 N 0.42898 0.98684 0.32348 0.0
N159 N 0.47583 0.01615 0.67996 0.0
H160 H 0.537 0.1174 0.51371 0.0
H161 H 0.53813 0.09652 0.61929 0.0
H162 H 0.46022 0.98948 0.72618 0.0
H163 H 0.492 0.04878 0.70882 0.0
H164 H 0.40169 0.9561 0.29961 0.0
H165 H 0.44018 0.01407 0.27857 0.0
H166 H 0.3983 0.90143 0.37036 0.0
H167 H 0.39183 0.88171 0.47936 0.0
C168 C 0.51494 0.47402 0.63082 0.0
C169 C 0.49272 0.45787 0.71359 0.0
C170 C 0.43321 0.47659 0.67015 0.0
C171 C 0.45952 0.49912 0.59346 0.0
N172 N 0.52796 0.52287 0.50368 0.0
N173 N 0.43281 0.44655 0.81703 0.0
C174 C 0.50104 0.49875 0.5744 0.0
C175 C 0.45192 0.45914 0.73426 0.0
N176 N 0.54865 0.46457 0.60524 0.0
N177 N 0.39091 0.47272 0.68264 0.0
H178 H 0.44539 0.43352 0.8657 0.0
H179 H 0.40647 0.45193 0.83987 0.0
H180 H 0.37724 0.48737 0.63988 0.0
H181 H 0.36797 0.45234 0.73197 0.0
H182 H 0.56288 0.47113 0.54172 0.0
H183 H 0.55903 0.44569 0.64463 0.0
H184 H 0.56125 0.52861 0.49373 0.0
H185 H 0.51858 0.53983 0.45738 0.0
C186 C 0.23189 0.50738 0.22162 0.0
C187 C 0.23202 0.54932 0.20575 0.0
C188 C 0.30398 0.59152 0.28967 0.0
C189 C 0.30727 0.55102 0.29455 0.0
N190 N 0.27722 0.47101 0.25674 0.0
N191 N 0.27411 0.63297 0.20842 0.0
C192 C 0.27191 0.50894 0.25856 0.0
C193 C 0.26962 0.59188 0.23546 0.0
N194 N 0.19309 0.46612 0.20475 0.0
N195 N 0.33283 0.62937 0.33917 0.0
H196 H 0.2511 0.63559 0.16552 0.0
H197 H 0.30356 0.66463 0.22077 0.0
H198 H 0.35729 0.62976 0.38273 0.0
H199 H 0.32895 0.65832 0.34467 0.0
H200 H 0.18947 0.43449 0.22329 0.0
H201 H 0.16283 0.4636 0.1797 0.0
H202 H 0.25499 0.44088 0.22259 0.0
H203 H 0.30588 0.47084 0.28374 0.0
C204 C 0.71768 0.25547 0.32224 0.0
C205 C 0.68025 0.22154 0.37259 0.0
C206 C 0.71994 0.25909 0.51099 0.0
C207 C 0.75762 0.29265 0.46042 0.0
N208 N 0.79835 0.31455 0.32108 0.0
N209 N 0.65131 0.18342 0.51307 0.0
C210 C 0.7584 0.288 0.36695 0.0
C211 C 0.6832 0.22092 0.46655 0.0
N212 N 0.71343 0.25881 0.23258 0.0
N213 N 0.71769 0.26484 0.60041 0.0
H214 H 0.62463 0.15445 0.48216 0.0
H215 H 0.65403 0.17901 0.58086 0.0
H216 H 0.74392 0.29175 0.6363 0.0
H217 H 0.68828 0.24465 0.63819 0.0
H218 H 0.73775 0.28622 0.19465 0.0
H219 H 0.68388 0.23662 0.19684 0.0
H220 H 0.80232 0.30973 0.25395 0.0
H221 H 0.82899 0.33808 0.35249 0.0
C222 C 0.45677 0.76901 0.51266 0.0
C223 C 0.45603 0.77009 0.60687 0.0
C224 C 0.4655 0.70206 0.61195 0.0
C225 C 0.45761 0.69622 0.51911 0.0
N226 N 0.44189 0.72234 0.38061 0.0
N227 N 0.45473 0.73431 0.74744 0.0
C228 C 0.45283 0.72951 0.46887 0.0
C229 C 0.45972 0.73613 0.65712 0.0
N230 N 0.46215 0.80617 0.46508 0.0
N231 N 0.47927 0.67544 0.65675 0.0
H232 H 0.44981 0.75795 0.78402 0.0
H233 H 0.45145 0.70688 0.78563 0.0
H234 H 0.48486 0.65086 0.62515 0.0
H235 H 0.48987 0.68112 0.72289 0.0
H236 H 0.46735 0.80922 0.39662 0.0
H237 H 0.46628 0.83612 0.49518 0.0
H238 H 0.43231 0.74256 0.34371 0.0
H239 H 0.43878 0.6941 0.3454 0.0
C240 C 0.71747 0.4824 0.75641 0.0
C241 C 0.67825 0.44032 0.78258 0.0
C242 C 0.71037 0.39704 0.71111 0.0
C243 C 0.75217 0.43867 0.69517 0.0
N244 N 0.79833 0.52111 0.71489 0.0
N245 N 0.64384 0.35824 0.80616 0.0
C246 C 0.75659 0.48156 0.72092 0.0
C247 C 0.67654 0.39779 0.7661 0.0
N248 N 0.71681 0.52283 0.7624 0.0
N249 N 0.70195 0.35697 0.67063 0.0
H250 H 0.62024 0.3578 0.852 0.0
H251 H 0.64386 0.32713 0.80216 0.0
H252 H 0.72444 0.35548 0.62447 0.0
H253 H 0.67023 0.32659 0.67453 0.0
H254 H 0.74253 0.55377 0.73575 0.0
H255 H 0.68862 0.52468 0.78704 0.0
H256 H 0.80457 0.55253 0.74118 0.0
H257 H 0.82786 0.52177 0.69055 0.0
C258 C 0.30921 0.71662 0.87776 0.0
C259 C 0.30859 0.75817 0.86371 0.0
C260 C 0.23036 0.7224 0.92568 0.0
C261 C 0.23364 0.68304 0.94944 0.0
N262 N 0.28216 0.64879 0.96853 0.0
N263 N 0.2718 0.80369 0.88795 0.0
C264 C 0.27482 0.68192 0.93155 0.0
C265 C 0.27004 0.76202 0.89142 0.0
N266 N 0.34133 0.70916 0.83629 0.0
N267 N 0.18908 0.72139 0.93192 0.0
H268 H 0.30047 0.83356 0.86448 0.0
H269 H 0.24659 0.80948 0.91577 0.0
H270 H 0.15899 0.69271 0.9545 0.0
H271 H 0.18371 0.74737 0.90688 0.0
H272 H 0.34038 0.67754 0.83798 0.0
H273 H 0.36552 0.73249 0.79161 0.0
H274 H 0.3137 0.64961 0.96436 0.0
H275 H 0.25897 0.62353 0.01168 0.0
C276 C 0.5312 0.2675 0.97912 0.0
C277 C 0.53228 0.30393 0.02966 0.0
C278 C 0.53717 0.26773 0.1674 0.0
C279 C 0.53443 0.23045 0.11734 0.0
N280 N 0.51671 0.1889 0.9786 0.0
N281 N 0.52218 0.33146 0.17114 0.0
C282 C 0.52765 0.22848 0.02402 0.0
C283 C 0.53072 0.30165 0.12369 0.0
N284 N 0.53605 0.27103 0.88884 0.0
N285 N 0.54876 0.27252 0.25544 0.0
H286 H 0.51561 0.35562 0.14066 0.0
H287 H 0.51649 0.32878 0.23948 0.0
H288 H 0.55538 0.24946 0.29001 0.0
H289 H 0.55616 0.30181 0.29224 0.0
H290 H 0.5415 0.2483 0.85028 0.0
H291 H 0.53812 0.29849 0.85259 0.0
H292 H 0.5069 0.18385 0.91201 0.0
H293 H 0.51283 0.15928 0.00961 0.0
loop_
_geom_bond_atom_site_label_1
_geom_bond_atom_site_label_2
_geom_bond_distance
_geom_bond_site_symmetry_2
_ccdc_geom_bond_type
In0 O1 2.294 1_554 S
In0 O2 2.326 1_554 S
In0 O6 2.266 . S
In0 O7 2.326 . S
In0 O8 2.266 . S
In0 O9 2.326 1_554 S
In0 O11 2.294 . S
In0 O12 2.326 . S
O1 In0 2.294 1_556 S
O1 C10 1.240 . S
O2 In0 2.326 1_556 S
O2 C10 1.252 . S
C3 O6 1.252 . S
C3 O7 1.260 . S
C4 O11 1.240 . S
C4 O12 1.252 . S
C5 O8 1.252 . S
C5 O9 1.260 1_554 S
O6 In0 2.266 . S
O6 C3 1.252 . S
O7 In0 2.326 . S
O7 C3 1.260 . S
O8 In0 2.266 . S
O8 C5 1.252 . S
O9 In0 2.326 1_556 S
O9 C5 1.260 1_556 S
C10 O1 1.240 . S
C10 O2 1.252 . S
O11 In0 2.294 . S
O11 C4 1.240 . S
O12 In0 2.326 . S
O12 C4 1.252 . S
In13 O14 2.294 . S
In13 O15 2.326 . S
In13 O19 2.266 . S
In13 O20 2.326 . S
In13 O21 2.266 . S
In13 O22 2.326 . S
In13 O24 2.294 . S
In13 O25 2.326 . S
O14 In13 2.294 . S
O14 C23 1.240 . S
O15 In13 2.326 . S
O15 C23 1.252 . S
C16 O19 1.252 . S
C16 O20 1.260 . S
C17 O24 1.240 . S
C17 O25 1.252 . S
C18 O21 1.252 . S
C18 O22 1.260 . S
O19 In13 2.266 . S
O19 C16 1.252 . S
O20 In13 2.326 . S
O20 C16 1.260 . S
O21 In13 2.266 . S
O21 C18 1.252 . S
O22 In13 2.326 . S
O22 C18 1.260 . S
C23 O14 1.240 . S
C23 O15 1.252 . S
O24 In13 2.294 . S
O24 C17 1.240 . S
O25 In13 2.326 . S
O25 C17 1.252 . S
In26 O27 2.294 . S
In26 O28 2.326 . S
In26 O32 2.266 . S
In26 O33 2.326 . S
In26 O34 2.266 . S
In26 O35 2.326 . S
In26 O37 2.294 . S
In26 O38 2.326 . S
O27 In26 2.294 . S
O27 C36 1.240 . S
O28 In26 2.326 . S
O28 C36 1.252 . S
C29 O32 1.252 . S
C29 O33 1.260 . S
C30 O37 1.240 . S
C30 O38 1.252 . S
C31 O34 1.252 . S
C31 O35 1.260 . S
O32 In26 2.266 . S
O32 C29 1.252 . S
O33 In26 2.326 . S
O33 C29 1.260 . S
O34 In26 2.266 . S
O34 C31 1.252 . S
O35 In26 2.326 . S
O35 C31 1.260 . S
C36 O27 1.240 . S
C36 O28 1.252 . S
O37 In26 2.294 . S
O37 C30 1.240 . S
O38 In26 2.326 . S
O38 C30 1.252 . S
In39 O40 2.294 . S
In39 O41 2.326 . S
In39 O45 2.266 . S
In39 O46 2.326 . S
In39 O47 2.266 . S
In39 O48 2.326 . S
In39 O50 2.294 . S
In39 O51 2.326 . S
O40 In39 2.294 . S
O40 C49 1.240 . S
O41 In39 2.326 . S
O41 C49 1.252 . S
C42 O45 1.252 . S
C42 O46 1.260 . S
C43 O50 1.240 . S
C43 O51 1.252 . S
C44 O47 1.252 . S
C44 O48 1.260 . S
O45 In39 2.266 . S
O45 C42 1.252 . S
O46 In39 2.326 . S
O46 C42 1.260 . S
O47 In39 2.266 . S
O47 C44 1.252 . S
O48 In39 2.326 . S
O48 C44 1.260 . S
C49 O40 1.240 . S
C49 O41 1.252 . S
O50 In39 2.294 . S
O50 C43 1.240 . S
O51 In39 2.326 . S
O51 C43 1.252 . S
In52 O53 2.294 . S
In52 O54 2.326 . S
In52 O58 2.266 . S
In52 O59 2.326 . S
In52 O60 2.266 . S
In52 O61 2.326 . S
In52 O63 2.294 . S
In52 O64 2.326 . S
O53 In52 2.294 . S
O53 C62 1.240 . S
O54 In52 2.326 . S
O54 C62 1.252 . S
C55 O58 1.252 . S
C55 O59 1.260 . S
C56 O63 1.240 . S
C56 O64 1.252 . S
C57 O60 1.252 . S
C57 O61 1.260 . S
O58 In52 2.266 . S
O58 C55 1.252 . S
O59 In52 2.326 . S
O59 C55 1.260 . S
O60 In52 2.266 . S
O60 C57 1.252 . S
O61 In52 2.326 . S
O61 C57 1.260 . S
C62 O53 1.240 . S
C62 O54 1.252 . S
O63 In52 2.294 . S
O63 C56 1.240 . S
O64 In52 2.326 . S
O64 C56 1.252 . S
In65 O66 2.294 . S
In65 O67 2.326 . S
In65 O71 2.266 . S
In65 O72 2.326 1_556 S
In65 O73 2.266 . S
In65 O74 2.326 . S
In65 O76 2.294 1_556 S
In65 O77 2.326 1_556 S
O66 In65 2.294 . S
O66 C75 1.240 . S
O67 In65 2.326 . S
O67 C75 1.252 . S
C68 O71 1.252 . S
C68 O72 1.260 1_556 S
C69 O76 1.240 . S
C69 O77 1.252 . S
C70 O73 1.252 . S
C70 O74 1.260 . S
O71 In65 2.266 . S
O71 C68 1.252 . S
O72 In65 2.326 1_554 S
O72 C68 1.260 1_554 S
O73 In65 2.266 . S
O73 C70 1.252 . S
O74 In65 2.326 . S
O74 C70 1.260 . S
C75 O66 1.240 . S
C75 O67 1.252 . S
O76 In65 2.294 1_554 S
O76 C69 1.240 . S
O77 In65 2.326 1_554 S
O77 C69 1.252 . S
C78 C79 1.363 . S
C78 C84 1.379 1_455 S
C78 N86 1.356 . S
C79 C78 1.363 . S
C79 C85 1.363 . S
C80 C81 1.363 . S
C80 C85 1.379 1_655 S
C80 N87 1.356 . S
C81 C80 1.363 . S
C81 C84 1.363 . S
N82 C84 1.356 . S
N82 H94 0.984 . S
N82 H95 0.985 . S
N83 C85 1.356 . S
N83 H88 0.984 . S
N83 H89 0.985 . S
C84 C78 1.379 1_655 S
C84 C81 1.363 . S
C84 N82 1.356 . S
C85 C79 1.363 . S
C85 C80 1.379 1_455 S
C85 N83 1.356 . S
N86 C78 1.356 . S
N86 H92 0.984 . S
N86 H93 0.984 . S
N87 C80 1.356 . S
N87 H90 0.984 . S
N87 H91 0.985 . S
H88 N83 0.984 . S
H89 N83 0.985 . S
H90 N87 0.984 . S
H91 N87 0.985 . S
H92 N86 0.984 . S
H93 N86 0.984 . S
H94 N82 0.984 . S
H95 N82 0.985 . S
C96 C97 1.363 1_545 S
C96 C102 1.379 . S
C96 N104 1.350 1_545 S
C97 C96 1.363 1_565 S
C97 C103 1.363 1_556 S
C98 C99 1.363 1_565 S
C98 C103 1.379 . S
C98 N105 1.350 1_565 S
C99 C98 1.363 1_545 S
C99 C102 1.363 1_554 S
N100 C102 1.356 . S
N100 H112 0.984 . S
N100 H113 0.985 1_556 S
N101 C103 1.356 . S
N101 H106 0.984 1_554 S
N101 H107 0.985 . S
C102 C96 1.379 . S
C102 C99 1.363 1_556 S
C102 N100 1.356 . S
C103 C97 1.363 1_554 S
C103 C98 1.379 . S
C103 N101 1.356 . S
N104 C96 1.350 1_565 S
N104 H110 0.974 1_565 S
N104 H111 1.001 . S
N105 C98 1.350 1_545 S
N105 H108 1.001 . S
N105 H109 0.974 1_545 S
H106 N101 0.984 1_556 S
H107 N101 0.985 . S
H108 N105 1.001 . S
H109 N105 0.974 1_565 S
H110 N104 0.974 1_545 S
H111 N104 1.001 . S
H112 N100 0.984 . S
H113 N100 0.985 1_554 S
C114 C115 1.363 . S
C114 C120 1.379 . S
C114 N122 1.356 . S
C115 C114 1.363 . S
C115 C121 1.363 . S
C116 C117 1.363 . S
C116 C121 1.379 . S
C116 N123 1.356 . S
C117 C116 1.363 . S
C117 C120 1.363 . S
N118 C120 1.356 1_556 S
N118 H130 0.984 . S
N118 H131 0.985 . S
N119 C121 1.356 . S
N119 H124 0.984 . S
N119 H125 0.985 . S
C120 C114 1.379 . S
C120 C117 1.363 . S
C120 N118 1.356 1_554 S
C121 C115 1.363 . S
C121 C116 1.379 . S
C121 N119 1.356 . S
N122 C114 1.356 . S
N122 H128 0.984 . S
N122 H129 0.984 . S
N123 C116 1.356 . S
N123 H126 0.984 . S
N123 H127 0.985 . S
H124 N119 0.984 . S
H125 N119 0.985 . S
H126 N123 0.984 . S
H127 N123 0.985 . S
H128 N122 0.984 . S
H129 N122 0.984 . S
H130 N118 0.984 . S
H131 N118 0.985 . S
C132 C133 1.363 . S
C132 C138 1.379 1_655 S
C132 N140 1.356 . S
C133 C132 1.363 . S
C133 C139 1.363 . S
C134 C135 1.363 . S
C134 C139 1.379 1_455 S
C134 N141 1.356 . S
C135 C134 1.363 . S
C135 C138 1.363 . S
N136 C138 1.356 . S
N136 H148 0.984 . S
N136 H149 0.985 . S
N137 C139 1.356 . S
N137 H142 0.984 . S
N137 H143 0.985 . S
C138 C132 1.379 1_455 S
C138 C135 1.363 . S
C138 N136 1.356 . S
C139 C133 1.363 . S
C139 C134 1.379 1_655 S
C139 N137 1.356 . S
N140 C132 1.356 . S
N140 H146 0.984 . S
N140 H147 0.984 . S
N141 C134 1.356 . S
N141 H144 0.984 . S
N141 H145 0.985 . S
H142 N137 0.984 . S
H143 N137 0.985 . S
H144 N141 0.984 . S
H145 N141 0.985 . S
H146 N140 0.984 . S
H147 N140 0.984 . S
H148 N136 0.984 . S
H149 N136 0.985 . S
C150 C151 1.363 1_565 S
C150 C156 1.379 . S
C150 N158 1.356 1_565 S
C151 C150 1.363 1_545 S
C151 C157 1.363 . S
C152 C153 1.363 1_545 S
C152 C157 1.379 . S
C152 N159 1.356 1_545 S
C153 C152 1.363 1_565 S
C153 C156 1.363 . S
N154 C156 1.356 . S
N154 H166 0.984 . S
N154 H167 0.985 . S
N155 C157 1.356 . S
N155 H160 0.984 . S
N155 H161 0.985 . S
C156 C150 1.379 . S
C156 C153 1.363 . S
C156 N154 1.356 . S
C157 C151 1.363 . S
C157 C152 1.379 . S
C157 N155 1.356 . S
N158 C150 1.356 1_545 S
N158 H164 0.984 1_545 S
N158 H165 0.984 . S
N159 C152 1.356 1_565 S
N159 H162 0.984 . S
N159 H163 0.985 1_565 S
H160 N155 0.984 . S
H161 N155 0.985 . S
H162 N159 0.984 . S
H163 N159 0.985 1_545 S
H164 N158 0.984 1_565 S
H165 N158 0.984 . S
H166 N154 0.984 . S
H167 N154 0.985 . S
C168 C169 1.363 . S
C168 C174 1.379 . S
C168 N176 1.356 . S
C169 C168 1.363 . S
C169 C175 1.363 . S
C170 C171 1.363 . S
C170 C175 1.379 . S
C170 N177 1.356 . S
C171 C170 1.363 . S
C171 C174 1.363 . S
N172 C174 1.356 . S
N172 H184 0.984 . S
N172 H185 0.985 . S
N173 C175 1.356 . S
N173 H178 0.984 . S
N173 H179 0.985 . S
C174 C168 1.379 . S
C174 C171 1.363 . S
C174 N172 1.356 . S
C175 C169 1.363 . S
C175 C170 1.379 . S
C175 N173 1.356 . S
N176 C168 1.356 . S
N176 H182 0.984 . S
N176 H183 0.984 . S
N177 C170 1.356 . S
N177 H180 0.984 . S
N177 H181 0.985 . S
H178 N173 0.984 . S
H179 N173 0.985 . S
H180 N177 0.984 . S
H181 N177 0.985 . S
H182 N176 0.984 . S
H183 N176 0.984 . S
H184 N172 0.984 . S
H185 N172 0.985 . S
C186 C187 1.363 . S
C186 C192 1.379 . S
C186 N194 1.356 . S
C187 C186 1.363 . S
C187 C193 1.363 . S
C188 C189 1.363 . S
C188 C193 1.379 . S
C188 N195 1.356 . S
C189 C188 1.363 . S
C189 C192 1.363 . S
N190 C192 1.356 . S
N190 H202 0.984 . S
N190 H203 0.985 . S
N191 C193 1.356 . S
N191 H196 0.984 . S
N191 H197 0.985 . S
C192 C186 1.379 . S
C192 C189 1.363 . S
C192 N190 1.356 . S
C193 C187 1.363 . S
C193 C188 1.379 . S
C193 N191 1.356 . S
N194 C186 1.356 . S
N194 H200 0.984 . S
N194 H201 0.984 . S
N195 C188 1.356 . S
N195 H198 0.984 . S
N195 H199 0.985 . S
H196 N191 0.984 . S
H197 N191 0.985 . S
H198 N195 0.984 . S
H199 N195 0.985 . S
H200 N194 0.984 . S
H201 N194 0.984 . S
H202 N190 0.984 . S
H203 N190 0.985 . S
C204 C205 1.363 . S
C204 C210 1.379 . S
C204 N212 1.356 . S
C205 C204 1.363 . S
C205 C211 1.363 . S
C206 C207 1.363 . S
C206 C211 1.379 . S
C206 N213 1.356 . S
C207 C206 1.363 . S
C207 C210 1.363 . S
N208 C210 1.356 . S
N208 H220 0.984 . S
N208 H221 0.985 . S
N209 C211 1.356 . S
N209 H214 0.984 . S
N209 H215 0.985 . S
C210 C204 1.379 . S
C210 C207 1.363 . S
C210 N208 1.356 . S
C211 C205 1.363 . S
C211 C206 1.379 . S
C211 N209 1.356 . S
N212 C204 1.356 . S
N212 H218 0.984 . S
N212 H219 0.984 . S
N213 C206 1.356 . S
N213 H216 0.984 . S
N213 H217 0.985 . S
H214 N209 0.984 . S
H215 N209 0.985 . S
H216 N213 0.984 . S
H217 N213 0.985 . S
H218 N212 0.984 . S
H219 N212 0.984 . S
H220 N208 0.984 . S
H221 N208 0.985 . S
C222 C223 1.363 . S
C222 C228 1.379 . S
C222 N230 1.356 . S
C223 C222 1.363 . S
C223 C229 1.363 . S
C224 C225 1.363 . S
C224 C229 1.379 . S
C224 N231 1.356 . S
C225 C224 1.363 . S
C225 C228 1.363 . S
N226 C228 1.356 . S
N226 H238 0.984 . S
N226 H239 0.985 . S
N227 C229 1.356 . S
N227 H232 0.984 . S
N227 H233 0.985 . S
C228 C222 1.379 . S
C228 C225 1.363 . S
C228 N226 1.356 . S
C229 C223 1.363 . S
C229 C224 1.379 . S
C229 N227 1.356 . S
N230 C222 1.356 . S
N230 H236 0.984 . S
N230 H237 0.984 . S
N231 C224 1.356 . S
N231 H234 0.984 . S
N231 H235 0.985 . S
H232 N227 0.984 . S
H233 N227 0.985 . S
H234 N231 0.984 . S
H235 N231 0.985 . S
H236 N230 0.984 . S
H237 N230 0.984 . S
H238 N226 0.984 . S
H239 N226 0.985 . S
C240 C241 1.363 . S
C240 C246 1.379 . S
C240 N248 1.356 . S
C241 C240 1.363 . S
C241 C247 1.363 . S
C242 C243 1.363 . S
C242 C247 1.379 . S
C242 N249 1.356 . S
C243 C242 1.363 . S
C243 C246 1.363 . S
N244 C246 1.356 . S
N244 H256 0.984 . S
N244 H257 0.985 . S
N245 C247 1.356 . S
N245 H250 0.984 . S
N245 H251 0.985 . S
C246 C240 1.379 . S
C246 C243 1.363 . S
C246 N244 1.356 . S
C247 C241 1.363 . S
C247 C242 1.379 . S
C247 N245 1.356 . S
N248 C240 1.356 . S
N248 H254 0.984 . S
N248 H255 0.984 . S
N249 C242 1.356 . S
N249 H252 0.984 . S
N249 H253 0.985 . S
H250 N245 0.984 . S
H251 N245 0.985 . S
H252 N249 0.984 . S
H253 N249 0.985 . S
H254 N248 0.984 . S
H255 N248 0.984 . S
H256 N244 0.984 . S
H257 N244 0.985 . S
C258 C259 1.363 . S
C258 C264 1.379 . S
C258 N266 1.356 . S
C259 C258 1.363 . S
C259 C265 1.363 . S
C260 C261 1.363 . S
C260 C265 1.379 . S
C260 N267 1.356 . S
C261 C260 1.363 . S
C261 C264 1.363 . S
N262 C264 1.356 . S
N262 H274 0.984 . S
N262 H275 0.985 1_556 S
N263 C265 1.356 . S
N263 H268 0.984 . S
N263 H269 0.985 . S
C264 C258 1.379 . S
C264 C261 1.363 . S
C264 N262 1.356 . S
C265 C259 1.363 . S
C265 C260 1.379 . S
C265 N263 1.356 . S
N266 C258 1.356 . S
N266 H272 0.984 . S
N266 H273 0.984 . S
N267 C260 1.356 . S
N267 H270 0.984 1_556 S
N267 H271 0.985 . S
H268 N263 0.984 . S
H269 N263 0.985 . S
H270 N267 0.984 1_554 S
H271 N267 0.985 . S
H272 N266 0.984 . S
H273 N266 0.984 . S
H274 N262 0.984 . S
H275 N262 0.985 1_554 S
C276 C277 1.363 . S
C276 C282 1.379 . S
C276 N284 1.356 1_554 S
C277 C276 1.363 . S
C277 C283 1.363 . S
C278 C279 1.363 . S
C278 C283 1.379 . S
C278 N285 1.356 . S
C279 C278 1.363 . S
C279 C282 1.363 . S
N280 C282 1.356 . S
N280 H292 0.984 . S
N280 H293 0.985 . S
N281 C283 1.356 . S
N281 H286 0.984 . S
N281 H287 0.985 . S
C282 C276 1.379 . S
C282 C279 1.363 . S
C282 N280 1.356 . S
C283 C277 1.363 . S
C283 C278 1.379 . S
C283 N281 1.356 . S
N284 C276 1.356 1_556 S
N284 H290 0.984 . S
N284 H291 0.984 . S
N285 C278 1.356 . S
N285 H288 0.984 . S
N285 H289 0.985 . S
H286 N281 0.984 . S
H287 N281 0.985 . S
H288 N285 0.984 . S
H289 N285 0.985 . S
H290 N284 0.984 . S
H291 N284 0.984 . S
H292 N280 0.984 . S
H293 N280 0.985 . S
C79 C10 1.394 . S
C81 C49 1.394 . S
C97 C56 1.394 . S
C99 C23 1.394 . S
C115 C36 1.394 . S
C117 C69 1.394 . S
C133 C43 1.394 . S
C135 C4 1.394 . S
C151 C17 1.394 . S
C153 C62 1.394 . S
C169 C75 1.394 . S
C171 C30 1.394 . S
C187 C3 1.394 . S
C189 C31 1.394 . S
C205 C16 1.394 . S
C207 C42 1.394 . S
C223 C57 1.394 . S
C225 C29 1.394 . S
C241 C70 1.394 . S
C243 C44 1.394 . S
C259 C55 1.394 . S
C261 C5 1.394 1_556 S
C277 C68 1.394 1_554 S
C279 C18 1.394 . S
