# Generated by pormake.
# Topology lta, (4)-cn, num edge types: 1
# Building blocks:
#     Node 0, Type 0, BuildingBlock: ICAMEG_clean_sbu_1, # of connection points: 4
#     Node 1, Type 0, BuildingBlock: ICAMEG_clean_sbu_1, # of connection points: 4
#     Node 2, Type 0, BuildingBlock: ICAMEG_clean_sbu_1, # of connection points: 4
#     Node 3, Type 0, BuildingBlock: ICAMEG_clean_sbu_1, # of connection points: 4
#     Node 4, Type 0, BuildingBlock: ICAMEG_clean_sbu_1, # of connection points: 4
#     Node 5, Type 0, BuildingBlock: ICAMEG_clean_sbu_1, # of connection points: 4
#     Node 6, Type 0, BuildingBlock: ICAMEG_clean_sbu_1, # of connection points: 4
#     Node 7, Type 0, BuildingBlock: ICAMEG_clean_sbu_1, # of connection points: 4
#     Node 8, Type 0, BuildingBlock: ICAMEG_clean_sbu_1, # of connection points: 4
#     Node 9, Type 0, BuildingBlock: ICAMEG_clean_sbu_1, # of connection points: 4
#     Node 10, Type 0, BuildingBlock: ICAMEG_clean_sbu_1, # of connection points: 4
#     Node 11, Type 0, BuildingBlock: ICAMEG_clean_sbu_1, # of connection points: 4
#     Node 12, Type 0, BuildingBlock: ICAMEG_clean_sbu_1, # of connection points: 4
#     Node 13, Type 0, BuildingBlock: ICAMEG_clean_sbu_1, # of connection points: 4
#     Node 14, Type 0, BuildingBlock: ICAMEG_clean_sbu_1, # of connection points: 4
#     Node 15, Type 0, BuildingBlock: ICAMEG_clean_sbu_1, # of connection points: 4
#     Node 16, Type 0, BuildingBlock: ICAMEG_clean_sbu_1, # of connection points: 4
#     Node 17, Type 0, BuildingBlock: ICAMEG_clean_sbu_1, # of connection points: 4
#     Node 18, Type 0, BuildingBlock: ICAMEG_clean_sbu_1, # of connection points: 4
#     Node 19, Type 0, BuildingBlock: ICAMEG_clean_sbu_1, # of connection points: 4
#     Node 20, Type 0, BuildingBlock: ICAMEG_clean_sbu_1, # of connection points: 4
#     Node 21, Type 0, BuildingBlock: ICAMEG_clean_sbu_1, # of connection points: 4
#     Node 22, Type 0, BuildingBlock: ICAMEG_clean_sbu_1, # of connection points: 4
#     Node 23, Type 0, BuildingBlock: ICAMEG_clean_sbu_1, # of connection points: 4
#     Edge 24, Type (0, 0), BuildingBlock: ZUJKAS_clean_linker_0, # of connection points: 2
#     Edge 25, Type (0, 0), BuildingBlock: ZUJKAS_clean_linker_0, # of connection points: 2
#     Edge 26, Type (0, 0), BuildingBlock: ZUJKAS_clean_linker_0, # of connection points: 2
#     Edge 27, Type (0, 0), BuildingBlock: ZUJKAS_clean_linker_0, # of connection points: 2
#     Edge 28, Type (0, 0), BuildingBlock: ZUJKAS_clean_linker_0, # of connection points: 2
#     Edge 29, Type (0, 0), BuildingBlock: ZUJKAS_clean_linker_0, # of connection points: 2
#     Edge 30, Type (0, 0), BuildingBlock: ZUJKAS_clean_linker_0, # of connection points: 2
#     Edge 31, Type (0, 0), BuildingBlock: ZUJKAS_clean_linker_0, # of connection points: 2
#     Edge 32, Type (0, 0), BuildingBlock: ZUJKAS_clean_linker_0, # of connection points: 2
#     Edge 33, Type (0, 0), BuildingBlock: ZUJKAS_clean_linker_0, # of connection points: 2
#     Edge 34, Type (0, 0), BuildingBlock: ZUJKAS_clean_linker_0, # of connection points: 2
#     Edge 35, Type (0, 0), BuildingBlock: ZUJKAS_clean_linker_0, # of connection points: 2
#     Edge 36, Type (0, 0), BuildingBlock: ZUJKAS_clean_linker_0, # of connection points: 2
#     Edge 37, Type (0, 0), BuildingBlock: ZUJKAS_clean_linker_0, # of connection points: 2
#     Edge 38, Type (0, 0), BuildingBlock: ZUJKAS_clean_linker_0, # of connection points: 2
#     Edge 39, Type (0, 0), BuildingBlock: ZUJKAS_clean_linker_0, # of connection points: 2
#     Edge 40, Type (0, 0), BuildingBlock: ZUJKAS_clean_linker_0, # of connection points: 2
#     Edge 41, Type (0, 0), BuildingBlock: ZUJKAS_clean_linker_0, # of connection points: 2
#     Edge 42, Type (0, 0), BuildingBlock: ZUJKAS_clean_linker_0, # of connection points: 2
#     Edge 43, Type (0, 0), BuildingBlock: ZUJKAS_clean_linker_0, # of connection points: 2
#     Edge 44, Type (0, 0), BuildingBlock: ZUJKAS_clean_linker_0, # of connection points: 2
#     Edge 45, Type (0, 0), BuildingBlock: ZUJKAS_clean_linker_0, # of connection points: 2
#     Edge 46, Type (0, 0), BuildingBlock: ZUJKAS_clean_linker_0, # of connection points: 2
#     Edge 47, Type (0, 0), BuildingBlock: ZUJKAS_clean_linker_0, # of connection points: 2
#     Edge 48, Type (0, 0), BuildingBlock: ZUJKAS_clean_linker_0, # of connection points: 2
#     Edge 49, Type (0, 0), BuildingBlock: ZUJKAS_clean_linker_0, # of connection points: 2
#     Edge 50, Type (0, 0), BuildingBlock: ZUJKAS_clean_linker_0, # of connection points: 2
#     Edge 51, Type (0, 0), BuildingBlock: ZUJKAS_clean_linker_0, # of connection points: 2
#     Edge 52, Type (0, 0), BuildingBlock: ZUJKAS_clean_linker_0, # of connection points: 2
#     Edge 53, Type (0, 0), BuildingBlock: ZUJKAS_clean_linker_0, # of connection points: 2
#     Edge 54, Type (0, 0), BuildingBlock: ZUJKAS_clean_linker_0, # of connection points: 2
#     Edge 55, Type (0, 0), BuildingBlock: ZUJKAS_clean_linker_0, # of connection points: 2
#     Edge 56, Type (0, 0), BuildingBlock: ZUJKAS_clean_linker_0, # of connection points: 2
#     Edge 57, Type (0, 0), BuildingBlock: ZUJKAS_clean_linker_0, # of connection points: 2
#     Edge 58, Type (0, 0), BuildingBlock: ZUJKAS_clean_linker_0, # of connection points: 2
#     Edge 59, Type (0, 0), BuildingBlock: ZUJKAS_clean_linker_0, # of connection points: 2
#     Edge 60, Type (0, 0), BuildingBlock: ZUJKAS_clean_linker_0, # of connection points: 2
#     Edge 61, Type (0, 0), BuildingBlock: ZUJKAS_clean_linker_0, # of connection points: 2
#     Edge 62, Type (0, 0), BuildingBlock: ZUJKAS_clean_linker_0, # of connection points: 2
#     Edge 63, Type (0, 0), BuildingBlock: ZUJKAS_clean_linker_0, # of connection points: 2
#     Edge 64, Type (0, 0), BuildingBlock: ZUJKAS_clean_linker_0, # of connection points: 2
#     Edge 65, Type (0, 0), BuildingBlock: ZUJKAS_clean_linker_0, # of connection points: 2
#     Edge 66, Type (0, 0), BuildingBlock: ZUJKAS_clean_linker_0, # of connection points: 2
#     Edge 67, Type (0, 0), BuildingBlock: ZUJKAS_clean_linker_0, # of connection points: 2
#     Edge 68, Type (0, 0), BuildingBlock: ZUJKAS_clean_linker_0, # of connection points: 2
#     Edge 69, Type (0, 0), BuildingBlock: ZUJKAS_clean_linker_0, # of connection points: 2
#     Edge 70, Type (0, 0), BuildingBlock: ZUJKAS_clean_linker_0, # of connection points: 2
#     Edge 71, Type (0, 0), BuildingBlock: ZUJKAS_clean_linker_0, # of connection points: 2
# Relax obj value: 0.360
# Max RMSD: 0.249
# Mean RMSD: 0.249
data_MOF--net-lta--node1-ICAMEG_clean_sbu_1--edge1-ZUJKAS_clean_linker_0
_symmetry_space_group_name_H-M    P1
_symmetry_Int_Tables_number       1
_symmetry_cell_setting            triclinic
loop_
_symmetry_equiv_pos_as_xyz
'x, y, z'
_cell_length_a     76.30346
_cell_length_b     76.315682
_cell_length_c     76.30597
_cell_angle_alpha  89.991349
_cell_angle_beta   90.010656
_cell_angle_gamma 89.997605
loop_
_atom_site_label
_atom_site_type_symbol
_atom_site_fract_x
_atom_site_fract_y
_atom_site_fract_z
_atom_type_partial_charge
Co0 Co 0.13254 0.34678 0.49154 0.0
Co1 Co 0.12491 0.30413 0.50507 0.0
O2 O 0.13604 0.32146 0.48967 0.0
C3 C 0.12241 0.34132 0.45399 0.0
O4 O 0.1109 0.32942 0.4587 0.0
C5 C 0.16301 0.29673 0.50736 0.0
O6 O 0.16579 0.31368 0.50718 0.0
O7 O 0.13136 0.31754 0.52659 0.0
O8 O 0.13348 0.34553 0.51765 0.0
H9 H 0.08586 0.28411 0.55417 0.0
H10 H 0.16091 0.33273 0.46906 0.0
O11 O 0.13191 0.34888 0.46542 0.0
H12 H 0.19054 0.37078 0.51207 0.0
H13 H 0.14172 0.40973 0.47389 0.0
H14 H 0.11097 0.36972 0.51426 0.0
H15 H 0.15839 0.36747 0.51241 0.0
H16 H 0.14642 0.37781 0.47211 0.0
O17 O 0.14748 0.29066 0.50675 0.0
H18 H 0.09995 0.30582 0.53482 0.0
H19 H 0.12642 0.26515 0.50757 0.0
H20 H 0.10602 0.40157 0.5166 0.0
H21 H 0.19307 0.33586 0.46804 0.0
H22 H 0.12146 0.42181 0.49631 0.0
H23 H 0.2081 0.35492 0.48972 0.0
O24 O 0.10652 0.34379 0.4922 0.0
H25 H 0.13603 0.27635 0.44642 0.0
H26 H 0.0918 0.28787 0.4921 0.0
H27 H 0.08326 0.27181 0.46539 0.0
H28 H 0.10547 0.26592 0.44234 0.0
H29 H 0.14398 0.29249 0.47328 0.0
H30 H 0.11271 0.243 0.52671 0.0
H31 H 0.09222 0.25244 0.55017 0.0
O32 O 0.10222 0.31705 0.50379 0.0
C33 C 0.13343 0.33385 0.5296 0.0
C34 C 0.09474 0.27983 0.54398 0.0
C35 C 0.10983 0.25676 0.52858 0.0
N36 N 0.11395 0.28676 0.52005 0.0
C37 C 0.10274 0.29206 0.53296 0.0
C38 C 0.11759 0.26937 0.51782 0.0
C39 C 0.09833 0.26206 0.54174 0.0
C40 C 0.16735 0.34115 0.47845 0.0
N41 N 0.15779 0.34979 0.4909 0.0
C42 C 0.18557 0.34283 0.47785 0.0
C43 C 0.19399 0.3535 0.49003 0.0
C44 C 0.18415 0.36237 0.5026 0.0
C45 C 0.16596 0.36035 0.50282 0.0
C46 C 0.13494 0.40105 0.48282 0.0
C47 C 0.11783 0.37845 0.50546 0.0
C48 C 0.13751 0.38295 0.48185 0.0
N49 N 0.12907 0.37191 0.49316 0.0
C50 C 0.11493 0.39647 0.50681 0.0
C51 C 0.12358 0.40782 0.49541 0.0
C52 C 0.09655 0.33174 0.49818 0.0
C53 C 0.12625 0.27879 0.4564 0.0
C54 C 0.10153 0.2854 0.48211 0.0
C55 C 0.09663 0.27627 0.46703 0.0
C56 C 0.1091 0.27296 0.4541 0.0
N57 N 0.1184 0.29102 0.48429 0.0
C58 C 0.13069 0.28787 0.47166 0.0
Co59 Co 0.65832 0.13341 0.49272 0.0
Co60 Co 0.70134 0.12613 0.50461 0.0
O61 O 0.68345 0.13705 0.48984 0.0
C62 C 0.66273 0.12389 0.45496 0.0
O63 O 0.67528 0.1129 0.45922 0.0
C64 C 0.70962 0.16407 0.50709 0.0
O65 O 0.69316 0.16677 0.51131 0.0
O66 O 0.68912 0.13354 0.52657 0.0
O67 O 0.66067 0.13414 0.51878 0.0
H68 H 0.7239 0.08891 0.55407 0.0
H69 H 0.672 0.1622 0.47058 0.0
O70 O 0.65517 0.13301 0.4667 0.0
H71 H 0.63448 0.19092 0.51465 0.0
H72 H 0.59462 0.14219 0.47767 0.0
H73 H 0.63648 0.11153 0.51621 0.0
H74 H 0.63772 0.15877 0.51422 0.0
H75 H 0.62641 0.14717 0.47465 0.0
O76 O 0.71509 0.14855 0.50423 0.0
H77 H 0.7012 0.10246 0.53546 0.0
H78 H 0.7404 0.12725 0.50473 0.0
H79 H 0.60478 0.10631 0.5198 0.0
H80 H 0.669 0.19439 0.47035 0.0
H81 H 0.58361 0.1217 0.50043 0.0
H82 H 0.65019 0.20896 0.49256 0.0
O83 O 0.66154 0.10741 0.49291 0.0
H84 H 0.72592 0.13428 0.44405 0.0
H85 H 0.71627 0.09223 0.49216 0.0
H86 H 0.7306 0.08227 0.46497 0.0
H87 H 0.73555 0.10338 0.44069 0.0
H88 H 0.7115 0.14366 0.47141 0.0
H89 H 0.76354 0.11408 0.52307 0.0
H90 H 0.75533 0.0947 0.54791 0.0
O91 O 0.68809 0.10358 0.50512 0.0
C92 C 0.67285 0.13496 0.53022 0.0
C93 C 0.72764 0.09731 0.54327 0.0
C94 C 0.74989 0.11145 0.52588 0.0
N95 N 0.71946 0.11558 0.519 0.0
C96 C 0.71484 0.10499 0.53267 0.0
C97 C 0.73672 0.11891 0.51557 0.0
C98 C 0.74527 0.10057 0.53981 0.0
C99 C 0.66374 0.16845 0.48024 0.0
N100 N 0.65518 0.15864 0.49252 0.0
C101 C 0.66211 0.18668 0.48007 0.0
C102 C 0.65157 0.19485 0.49254 0.0
C103 C 0.64278 0.18474 0.50495 0.0
C104 C 0.64475 0.16655 0.50474 0.0
C105 C 0.60371 0.13543 0.4862 0.0
C106 C 0.62734 0.11836 0.50781 0.0
C107 C 0.62173 0.13815 0.48452 0.0
N108 N 0.63329 0.12973 0.49533 0.0
C109 C 0.60941 0.11531 0.50987 0.0
C110 C 0.59754 0.12394 0.49898 0.0
C111 C 0.6735 0.09769 0.49945 0.0
C112 C 0.72388 0.12498 0.45455 0.0
C113 C 0.71833 0.10149 0.48164 0.0
C114 C 0.72649 0.09577 0.46628 0.0
C115 C 0.72926 0.10763 0.45267 0.0
N116 N 0.71314 0.11854 0.48341 0.0
C117 C 0.71578 0.13023 0.4701 0.0
Co118 Co 0.87147 0.65938 0.49864 0.0
Co119 Co 0.8797 0.70304 0.50755 0.0
O120 O 0.86797 0.68438 0.4944 0.0
C121 C 0.87989 0.66146 0.46042 0.0
O122 O 0.89123 0.674 0.46359 0.0
C123 C 0.84185 0.71142 0.51115 0.0
O124 O 0.8392 0.69489 0.51509 0.0
O125 O 0.87363 0.69204 0.53056 0.0
O126 O 0.87152 0.66326 0.52446 0.0
H127 H 0.92006 0.72785 0.55331 0.0
H128 H 0.84218 0.67177 0.47634 0.0
O129 O 0.87106 0.65472 0.47286 0.0
H130 H 0.81436 0.63797 0.52388 0.0
H131 H 0.86143 0.59506 0.48769 0.0
H132 H 0.89382 0.63866 0.52271 0.0
H133 H 0.84653 0.64081 0.52236 0.0
H134 H 0.85676 0.62668 0.48293 0.0
O135 O 0.85731 0.71688 0.50796 0.0
H136 H 0.90533 0.70432 0.53676 0.0
H137 H 0.87865 0.74206 0.50576 0.0
H138 H 0.89876 0.60716 0.52802 0.0
H139 H 0.80997 0.66911 0.47722 0.0
H140 H 0.88251 0.58512 0.51042 0.0
H141 H 0.79585 0.65218 0.50117 0.0
O142 O 0.89753 0.66222 0.49799 0.0
H143 H 0.86773 0.72437 0.4464 0.0
H144 H 0.91273 0.71732 0.49225 0.0
H145 H 0.92093 0.7302 0.46377 0.0
H146 H 0.89833 0.73383 0.44061 0.0
H147 H 0.86012 0.71142 0.47502 0.0
H148 H 0.89298 0.76601 0.52205 0.0
H149 H 0.9139 0.75897 0.54598 0.0
O150 O 0.90222 0.68976 0.50728 0.0
C151 C 0.87172 0.67607 0.53517 0.0
C152 C 0.91098 0.73109 0.5429 0.0
C153 C 0.89576 0.75251 0.52537 0.0
N154 N 0.89116 0.7218 0.5203 0.0
C155 C 0.90261 0.71782 0.53348 0.0
C156 C 0.88764 0.73889 0.51623 0.0
C157 C 0.90751 0.74855 0.53879 0.0
C158 C 0.83613 0.66429 0.48674 0.0
N159 N 0.84621 0.65655 0.49936 0.0
C160 C 0.81789 0.66287 0.4872 0.0
C161 C 0.80998 0.65339 0.50065 0.0
C162 C 0.82035 0.64543 0.51341 0.0
C163 C 0.83855 0.64716 0.51254 0.0
C164 C 0.86857 0.60454 0.49546 0.0
C165 C 0.88661 0.62914 0.51508 0.0
C166 C 0.86602 0.62246 0.49279 0.0
N167 N 0.87492 0.63451 0.50262 0.0
C168 C 0.8895 0.61133 0.51811 0.0
C169 C 0.88039 0.59897 0.50822 0.0
C170 C 0.90771 0.67462 0.50279 0.0
C171 C 0.87768 0.7229 0.4564 0.0
C172 C 0.90283 0.71881 0.48223 0.0
C173 C 0.90754 0.72615 0.46614 0.0
C174 C 0.89486 0.72819 0.45316 0.0
N175 N 0.88594 0.71371 0.48533 0.0
C176 C 0.87344 0.71563 0.47265 0.0
Co177 Co 0.34526 0.87288 0.48728 0.0
Co178 Co 0.30376 0.87962 0.50353 0.0
O179 O 0.32004 0.86855 0.48707 0.0
C180 C 0.33888 0.88083 0.44933 0.0
O181 O 0.32805 0.89348 0.45365 0.0
C182 C 0.29555 0.84164 0.50668 0.0
O183 O 0.31242 0.83871 0.50832 0.0
O184 O 0.31824 0.87227 0.52411 0.0
O185 O 0.3455 0.87424 0.51335 0.0
H186 H 0.287 0.917 0.55507 0.0
H187 H 0.33115 0.8423 0.46798 0.0
O188 O 0.34597 0.87135 0.4611 0.0
H189 H 0.37156 0.81756 0.51194 0.0
H190 H 0.40744 0.86374 0.46712 0.0
H191 H 0.3687 0.89707 0.50667 0.0
H192 H 0.36736 0.84951 0.50963 0.0
H193 H 0.37562 0.8581 0.46754 0.0
O194 O 0.28992 0.85727 0.5049 0.0
H195 H 0.30744 0.90324 0.53416 0.0
H196 H 0.26491 0.87889 0.50778 0.0
H197 H 0.40046 0.90303 0.50678 0.0
H198 H 0.33509 0.81026 0.46971 0.0
H199 H 0.42007 0.8863 0.4869 0.0
H200 H 0.35538 0.7977 0.49186 0.0
O201 O 0.34134 0.8987 0.48614 0.0
H202 H 0.27297 0.87097 0.44595 0.0
H203 H 0.28739 0.91339 0.49251 0.0
H204 H 0.27018 0.92309 0.46694 0.0
H205 H 0.26282 0.90179 0.44344 0.0
H206 H 0.29029 0.86186 0.47169 0.0
H207 H 0.24401 0.89227 0.52849 0.0
H208 H 0.25502 0.91153 0.55231 0.0
O209 O 0.317 0.90225 0.50233 0.0
C210 C 0.33485 0.87268 0.52611 0.0
C211 C 0.28203 0.90866 0.54473 0.0
C212 C 0.25791 0.89476 0.52982 0.0
N213 N 0.28737 0.89036 0.51971 0.0
C214 C 0.29354 0.90087 0.53282 0.0
C215 C 0.26981 0.88719 0.51816 0.0
C216 C 0.26409 0.90558 0.54318 0.0
C217 C 0.34012 0.83694 0.47755 0.0
N218 N 0.34903 0.84777 0.48868 0.0
C219 C 0.34224 0.81878 0.47851 0.0
C220 C 0.35361 0.81174 0.49096 0.0
C221 C 0.36268 0.82288 0.50224 0.0
C222 C 0.3602 0.84096 0.50091 0.0
C223 C 0.39904 0.8711 0.47587 0.0
C224 C 0.37715 0.88967 0.49805 0.0
C225 C 0.381 0.86798 0.47614 0.0
N226 N 0.37032 0.87716 0.48721 0.0
C227 C 0.39513 0.89313 0.49814 0.0
C228 C 0.40612 0.88375 0.48697 0.0
C229 C 0.33035 0.90835 0.49428 0.0
C230 C 0.27606 0.88036 0.45612 0.0
C231 C 0.2843 0.90405 0.48232 0.0
C232 C 0.27451 0.90961 0.46789 0.0
C233 C 0.27038 0.89766 0.45471 0.0
N234 N 0.28976 0.88704 0.48364 0.0
C235 C 0.28581 0.87526 0.47075 0.0
Co236 Co 0.13096 0.65858 0.51624 0.0
Co237 Co 0.12394 0.70032 0.50075 0.0
O238 O 0.13513 0.6838 0.51687 0.0
C239 C 0.12335 0.66501 0.55419 0.0
O240 O 0.11122 0.67643 0.54985 0.0
C241 C 0.16187 0.70858 0.49753 0.0
O242 O 0.16473 0.69174 0.4954 0.0
O243 O 0.13122 0.68624 0.47988 0.0
O244 O 0.12961 0.65876 0.49017 0.0
H245 H 0.08625 0.71791 0.44969 0.0
H246 H 0.16144 0.67259 0.53578 0.0
O247 O 0.13244 0.65747 0.5424 0.0
H248 H 0.18647 0.63304 0.49123 0.0
H249 H 0.14049 0.59615 0.5354 0.0
H250 H 0.10694 0.63531 0.49644 0.0
H251 H 0.15449 0.63698 0.49359 0.0
H252 H 0.14591 0.628 0.53553 0.0
O253 O 0.14628 0.71421 0.49954 0.0
H254 H 0.10015 0.69713 0.47017 0.0
H255 H 0.12459 0.73923 0.49715 0.0
H256 H 0.10121 0.60351 0.49578 0.0
H257 H 0.19351 0.66891 0.534 0.0
H258 H 0.11805 0.5837 0.51537 0.0
H259 H 0.20622 0.64906 0.51156 0.0
O260 O 0.1051 0.66232 0.51745 0.0
H261 H 0.13277 0.73009 0.55882 0.0
H262 H 0.09017 0.71637 0.5122 0.0
H263 H 0.08053 0.73307 0.53813 0.0
H264 H 0.10192 0.74007 0.56165 0.0
H265 H 0.14182 0.71329 0.53273 0.0
H266 H 0.11106 0.76047 0.47688 0.0
H267 H 0.09168 0.74984 0.45298 0.0
O268 O 0.10134 0.68699 0.50182 0.0
C269 C 0.13099 0.66967 0.47759 0.0
C270 C 0.09463 0.72271 0.46008 0.0
C271 C 0.10858 0.74659 0.47532 0.0
N272 N 0.11308 0.71697 0.4849 0.0
C273 C 0.10251 0.71101 0.47174 0.0
C274 C 0.11624 0.7345 0.48674 0.0
C275 C 0.0977 0.74062 0.46192 0.0
C276 C 0.16687 0.66381 0.52608 0.0
N277 N 0.15609 0.65499 0.51481 0.0
C278 C 0.18504 0.66183 0.52509 0.0
C279 C 0.19216 0.65071 0.51248 0.0
C280 C 0.18109 0.64174 0.50106 0.0
C281 C 0.16299 0.64406 0.50242 0.0
C282 C 0.13309 0.60464 0.52678 0.0
C283 C 0.11439 0.62676 0.50493 0.0
C284 C 0.13607 0.6227 0.52682 0.0
N285 N 0.12683 0.6335 0.51591 0.0
C286 C 0.11106 0.60877 0.50453 0.0
C287 C 0.1205 0.59766 0.51554 0.0
C288 C 0.09535 0.67343 0.50959 0.0
C289 C 0.12335 0.72716 0.54864 0.0
C290 C 0.09955 0.71931 0.5224 0.0
C291 C 0.09402 0.72881 0.53704 0.0
C292 C 0.10603 0.73274 0.55023 0.0
N293 N 0.11657 0.71394 0.52091 0.0
C294 C 0.12841 0.7177 0.53381 0.0
Co295 Co 0.34559 0.1319 0.50768 0.0
Co296 Co 0.30234 0.1246 0.49595 0.0
O297 O 0.3204 0.13576 0.51046 0.0
C298 C 0.34074 0.12285 0.54554 0.0
O299 O 0.32803 0.11201 0.54141 0.0
C300 C 0.29518 0.16277 0.49355 0.0
O301 O 0.31215 0.16545 0.49304 0.0
O302 O 0.31496 0.13061 0.47382 0.0
O303 O 0.34332 0.13262 0.48165 0.0
H304 H 0.27986 0.08506 0.44833 0.0
H305 H 0.33272 0.16073 0.53031 0.0
O306 O 0.34865 0.13152 0.53369 0.0
H307 H 0.36969 0.18928 0.48566 0.0
H308 H 0.4093 0.14038 0.52283 0.0
H309 H 0.36735 0.10983 0.48431 0.0
H310 H 0.3659 0.15718 0.48581 0.0
H311 H 0.37754 0.14552 0.52579 0.0
O312 O 0.28905 0.14728 0.49453 0.0
H313 H 0.30252 0.09916 0.46657 0.0
H314 H 0.26331 0.12657 0.495 0.0
H315 H 0.39903 0.10442 0.4808 0.0
H316 H 0.33636 0.19284 0.53084 0.0
H317 H 0.42024 0.11975 0.50015 0.0
H318 H 0.35488 0.20733 0.50833 0.0
O319 O 0.34227 0.10591 0.50745 0.0
H320 H 0.2772 0.13682 0.55557 0.0
H321 H 0.28624 0.09188 0.51003 0.0
H322 H 0.27125 0.08387 0.53752 0.0
H323 H 0.26662 0.10645 0.56051 0.0
H324 H 0.29226 0.14422 0.52794 0.0
H325 H 0.24023 0.11287 0.47699 0.0
H326 H 0.24846 0.0919 0.45349 0.0
O327 O 0.31505 0.10179 0.49701 0.0
C328 C 0.33116 0.13256 0.47018 0.0
C329 C 0.27611 0.09416 0.45854 0.0
C330 C 0.25387 0.10978 0.47461 0.0
N331 N 0.28425 0.11364 0.48186 0.0
C332 C 0.28888 0.10216 0.46892 0.0
C333 C 0.267 0.11754 0.48473 0.0
C334 C 0.25849 0.09801 0.46144 0.0
C335 C 0.3409 0.16693 0.52055 0.0
N336 N 0.34896 0.15711 0.50792 0.0
C337 C 0.34287 0.18512 0.52088 0.0
C338 C 0.35323 0.19325 0.50823 0.0
C339 C 0.36152 0.18313 0.49548 0.0
C340 C 0.35922 0.16498 0.49554 0.0
C341 C 0.40019 0.13364 0.5143 0.0
C342 C 0.37651 0.11664 0.4927 0.0
C343 C 0.38218 0.13647 0.51594 0.0
N344 N 0.3706 0.12808 0.50514 0.0
C345 C 0.39443 0.11348 0.49069 0.0
C346 C 0.40632 0.12207 0.50157 0.0
C347 C 0.32989 0.09601 0.50207 0.0
C348 C 0.2791 0.12689 0.54563 0.0
C349 C 0.28431 0.10176 0.51999 0.0
C350 C 0.27578 0.09716 0.53551 0.0
C351 C 0.27318 0.10983 0.5484 0.0
N352 N 0.29002 0.11853 0.51734 0.0
C353 C 0.28755 0.13102 0.52993 0.0
Co354 Co 0.87352 0.34688 0.50874 0.0
Co355 Co 0.88066 0.30456 0.49517 0.0
O356 O 0.86926 0.32175 0.51037 0.0
C357 C 0.88015 0.34139 0.54691 0.0
O358 O 0.89184 0.32935 0.54307 0.0
C359 C 0.84285 0.29628 0.49136 0.0
O360 O 0.84022 0.31286 0.48758 0.0
O361 O 0.8737 0.31774 0.4736 0.0
O362 O 0.87532 0.3456 0.48275 0.0
H363 H 0.91898 0.2846 0.44548 0.0
H364 H 0.84263 0.33374 0.52823 0.0
O365 O 0.87161 0.34903 0.53479 0.0
H366 H 0.81859 0.3715 0.48161 0.0
H367 H 0.86388 0.41007 0.52513 0.0
H368 H 0.89798 0.36924 0.48845 0.0
H369 H 0.85051 0.36758 0.48476 0.0
H370 H 0.85834 0.37826 0.52647 0.0
O371 O 0.85831 0.29074 0.49439 0.0
H372 H 0.90486 0.30632 0.46481 0.0
H373 H 0.8799 0.26554 0.49331 0.0
H374 H 0.90385 0.40097 0.48659 0.0
H375 H 0.81061 0.33741 0.52566 0.0
H376 H 0.88673 0.42162 0.50503 0.0
H377 H 0.7984 0.35637 0.50218 0.0
O378 O 0.89931 0.34312 0.5106 0.0
H379 H 0.87103 0.27736 0.55438 0.0
H380 H 0.91426 0.289 0.50778 0.0
H381 H 0.92353 0.27344 0.53454 0.0
H382 H 0.90183 0.26749 0.55806 0.0
H383 H 0.86235 0.29302 0.52747 0.0
H384 H 0.89365 0.24338 0.47421 0.0
H385 H 0.9134 0.25287 0.45013 0.0
O386 O 0.90327 0.3179 0.49592 0.0
C387 C 0.87404 0.33419 0.47062 0.0
C388 C 0.91044 0.2803 0.45596 0.0
C389 C 0.8962 0.25717 0.47207 0.0
N390 N 0.89167 0.2872 0.48024 0.0
C391 C 0.90244 0.29254 0.46697 0.0
C392 C 0.88842 0.26978 0.48281 0.0
C393 C 0.90729 0.2625 0.45857 0.0
C394 C 0.83741 0.34213 0.51807 0.0
N395 N 0.84843 0.35047 0.50669 0.0
C396 C 0.81927 0.34411 0.51664 0.0
C397 C 0.81243 0.35472 0.50345 0.0
C398 C 0.82375 0.3632 0.4919 0.0
C399 C 0.84182 0.36089 0.49371 0.0
C400 C 0.8714 0.40121 0.51701 0.0
C401 C 0.89041 0.37816 0.49644 0.0
C402 C 0.86835 0.38318 0.51774 0.0
N403 N 0.87774 0.37192 0.50745 0.0
C404 C 0.89382 0.3961 0.49536 0.0
C405 C 0.88422 0.40768 0.50572 0.0
C406 C 0.90916 0.33174 0.50328 0.0
C407 C 0.8806 0.27984 0.54421 0.0
C408 C 0.90475 0.28652 0.51797 0.0
C409 C 0.91007 0.27766 0.53308 0.0
C410 C 0.89789 0.27432 0.54627 0.0
N411 N 0.88775 0.29184 0.51602 0.0
C412 C 0.87574 0.28865 0.52891 0.0
Co413 Co 0.65684 0.87447 0.5121 0.0
Co414 Co 0.69821 0.88024 0.49571 0.0
O415 O 0.68195 0.86969 0.51254 0.0
C416 C 0.66294 0.88177 0.55027 0.0
O417 O 0.67419 0.8942 0.54634 0.0
C418 C 0.70686 0.84229 0.49431 0.0
O419 O 0.69005 0.83913 0.4924 0.0
O420 O 0.6839 0.87174 0.4755 0.0
O421 O 0.65683 0.87604 0.486 0.0
H422 H 0.71488 0.91511 0.44239 0.0
H423 H 0.67012 0.84342 0.53123 0.0
O424 O 0.65581 0.87269 0.53823 0.0
H425 H 0.6295 0.81995 0.48678 0.0
H426 H 0.59425 0.86647 0.53151 0.0
H427 H 0.63414 0.89938 0.49275 0.0
H428 H 0.6344 0.85177 0.48937 0.0
H429 H 0.62594 0.86013 0.53136 0.0
O430 O 0.71231 0.85803 0.49553 0.0
H431 H 0.69445 0.90216 0.46382 0.0
H432 H 0.73709 0.87985 0.4918 0.0
H433 H 0.60251 0.90603 0.49236 0.0
H434 H 0.66547 0.81149 0.52923 0.0
H435 H 0.58233 0.88953 0.51185 0.0
H436 H 0.64508 0.79957 0.50683 0.0
O437 O 0.66142 0.90014 0.51355 0.0
H438 H 0.72873 0.87478 0.55382 0.0
H439 H 0.71404 0.91472 0.50518 0.0
H440 H 0.73095 0.92587 0.53036 0.0
H441 H 0.73844 0.90583 0.55489 0.0
H442 H 0.71171 0.86421 0.52845 0.0
H443 H 0.75798 0.89245 0.47059 0.0
H444 H 0.7469 0.91028 0.44571 0.0
O445 O 0.68467 0.90279 0.49567 0.0
C446 C 0.66737 0.87318 0.47337 0.0
C447 C 0.71987 0.90741 0.45321 0.0
C448 C 0.74406 0.89467 0.46902 0.0
N449 N 0.71458 0.89038 0.47912 0.0
C450 C 0.70837 0.90009 0.46541 0.0
C451 C 0.73217 0.88754 0.48097 0.0
C452 C 0.73784 0.90468 0.45507 0.0
C453 C 0.6611 0.83833 0.52156 0.0
N454 N 0.65253 0.84946 0.51045 0.0
C455 C 0.65857 0.82024 0.52044 0.0
C456 C 0.64716 0.81356 0.50785 0.0
C457 C 0.63843 0.82499 0.49659 0.0
C458 C 0.6413 0.843 0.49807 0.0
C459 C 0.60291 0.87374 0.52294 0.0
C460 C 0.62543 0.89207 0.5012 0.0
C461 C 0.62087 0.87024 0.52283 0.0
N462 N 0.63187 0.8793 0.51197 0.0
C463 C 0.60754 0.89593 0.50095 0.0
C464 C 0.59623 0.88667 0.5119 0.0
C465 C 0.67195 0.90935 0.50436 0.0
C466 C 0.72559 0.88363 0.54319 0.0
C467 C 0.7172 0.90593 0.51582 0.0
C468 C 0.72681 0.91231 0.53003 0.0
C469 C 0.73102 0.90105 0.54379 0.0
N470 N 0.71198 0.8888 0.5153 0.0
C471 C 0.716 0.8777 0.52876 0.0
Co472 Co 0.4917 0.12799 0.34587 0.0
Co473 Co 0.50589 0.12159 0.30367 0.0
O474 O 0.49043 0.13274 0.3208 0.0
C475 C 0.45342 0.12177 0.34014 0.0
O476 O 0.45709 0.11014 0.32799 0.0
C477 C 0.50971 0.15955 0.29566 0.0
O478 O 0.5134 0.16214 0.31227 0.0
O479 O 0.52727 0.12849 0.31724 0.0
O480 O 0.51768 0.12599 0.34488 0.0
H481 H 0.55601 0.08372 0.28395 0.0
H482 H 0.4727 0.1593 0.33302 0.0
O483 O 0.46566 0.13012 0.34781 0.0
H484 H 0.51892 0.1822 0.37195 0.0
H485 H 0.47471 0.13656 0.40908 0.0
H486 H 0.51147 0.10287 0.36797 0.0
H487 H 0.51555 0.1504 0.36739 0.0
H488 H 0.47381 0.14277 0.37737 0.0
O489 O 0.50675 0.1441 0.29006 0.0
H490 H 0.53633 0.0975 0.30556 0.0
H491 H 0.50828 0.12281 0.26468 0.0
H492 H 0.51289 0.09634 0.3996 0.0
H493 H 0.47549 0.19122 0.33732 0.0
H494 H 0.49441 0.11325 0.42039 0.0
H495 H 0.49878 0.20285 0.35687 0.0
O496 O 0.48965 0.10231 0.34157 0.0
H497 H 0.44697 0.13131 0.27586 0.0
H498 H 0.49365 0.08816 0.2875 0.0
H499 H 0.46713 0.07897 0.27149 0.0
H500 H 0.44357 0.10063 0.26553 0.0
H501 H 0.47365 0.13991 0.29196 0.0
H502 H 0.52774 0.1094 0.24262 0.0
H503 H 0.55177 0.08964 0.25222 0.0
O504 O 0.50504 0.0988 0.31672 0.0
C505 C 0.52999 0.12765 0.33373 0.0
C506 C 0.54556 0.09226 0.2796 0.0
C507 C 0.52971 0.1067 0.25641 0.0
N508 N 0.52111 0.11085 0.28638 0.0
C509 C 0.53435 0.10007 0.29178 0.0
C510 C 0.51876 0.11428 0.26896 0.0
C511 C 0.54318 0.09561 0.2618 0.0
C512 C 0.48277 0.16427 0.34165 0.0
N513 N 0.49393 0.15299 0.34997 0.0
C514 C 0.48433 0.18235 0.34399 0.0
C515 C 0.49741 0.18887 0.35494 0.0
C516 C 0.50873 0.17729 0.3634 0.0
C517 C 0.50679 0.15929 0.36072 0.0
C518 C 0.48284 0.12913 0.40015 0.0
C519 C 0.50346 0.11035 0.37695 0.0
C520 C 0.48236 0.13255 0.38218 0.0
N521 N 0.49266 0.12327 0.37084 0.0
C522 C 0.50429 0.10657 0.39483 0.0
C523 C 0.49391 0.11605 0.40649 0.0
C524 C 0.49727 0.09266 0.33022 0.0
C525 C 0.45717 0.12176 0.27833 0.0
C526 C 0.48344 0.09765 0.28501 0.0
C527 C 0.46846 0.09238 0.2759 0.0
C528 C 0.45526 0.10454 0.27256 0.0
N529 N 0.48524 0.11458 0.29059 0.0
C530 C 0.47233 0.12657 0.28739 0.0
Co531 Co 0.86933 0.48933 0.3447 0.0
Co532 Co 0.87443 0.50744 0.3036 0.0
O533 O 0.86415 0.49011 0.3196 0.0
C534 C 0.87801 0.45185 0.33655 0.0
O535 O 0.89023 0.45687 0.32553 0.0
C536 C 0.83602 0.50903 0.2969 0.0
O537 O 0.83343 0.50713 0.31378 0.0
O538 O 0.86762 0.52727 0.31928 0.0
O539 O 0.8701 0.51538 0.34603 0.0
H540 H 0.91111 0.55981 0.28786 0.0
H541 H 0.83881 0.46934 0.33135 0.0
O542 O 0.86849 0.46311 0.34435 0.0
H543 H 0.81437 0.51137 0.37391 0.0
H544 H 0.86285 0.46627 0.40622 0.0
H545 H 0.89384 0.5083 0.36815 0.0
H546 H 0.84615 0.5104 0.36818 0.0
H547 H 0.85608 0.46792 0.37467 0.0
O548 O 0.85152 0.50965 0.29073 0.0
H549 H 0.8982 0.53789 0.3078 0.0
H550 H 0.87206 0.51363 0.26505 0.0
H551 H 0.9009 0.50719 0.39967 0.0
H552 H 0.80696 0.46967 0.33688 0.0
H553 H 0.88536 0.48605 0.41893 0.0
H554 H 0.79454 0.49086 0.35823 0.0
O555 O 0.89501 0.489 0.33994 0.0
H556 H 0.86447 0.45138 0.27054 0.0
H557 H 0.90745 0.49734 0.28523 0.0
H558 H 0.9164 0.47264 0.26642 0.0
H559 H 0.89482 0.44946 0.25892 0.0
H560 H 0.85612 0.47624 0.28944 0.0
H561 H 0.88458 0.53537 0.24467 0.0
H562 H 0.90431 0.55863 0.25604 0.0
O563 O 0.89761 0.50566 0.31579 0.0
C564 C 0.8683 0.52856 0.33594 0.0
C565 C 0.90257 0.54971 0.28274 0.0
C566 C 0.88766 0.53601 0.2585 0.0
N567 N 0.88448 0.52444 0.28758 0.0
C568 C 0.89525 0.53724 0.29396 0.0
C569 C 0.88057 0.52376 0.27011 0.0
C570 C 0.89873 0.54905 0.26489 0.0
C571 C 0.83353 0.47846 0.34081 0.0
N572 N 0.84434 0.48985 0.34942 0.0
C573 C 0.81547 0.47865 0.34382 0.0
C574 C 0.80851 0.49057 0.35577 0.0
C575 C 0.81963 0.5021 0.36455 0.0
C576 C 0.83761 0.50155 0.36119 0.0
C577 C 0.86969 0.47556 0.39797 0.0
C578 C 0.88694 0.49914 0.37647 0.0
C579 C 0.86594 0.47653 0.38008 0.0
N580 N 0.87447 0.48829 0.36959 0.0
C581 C 0.89103 0.49854 0.3943 0.0
C582 C 0.88232 0.48667 0.40509 0.0
C583 C 0.90421 0.49742 0.32879 0.0
C584 C 0.87398 0.46142 0.27368 0.0
C585 C 0.898 0.48728 0.28208 0.0
C586 C 0.90313 0.47334 0.27139 0.0
C587 C 0.89101 0.46034 0.26718 0.0
N588 N 0.88125 0.48828 0.28835 0.0
C589 C 0.86931 0.47556 0.28432 0.0
Co590 Co 0.50629 0.86875 0.34427 0.0
Co591 Co 0.49631 0.87651 0.30079 0.0
O592 O 0.5099 0.865 0.31924 0.0
C593 C 0.54436 0.87713 0.34077 0.0
O594 O 0.54071 0.88789 0.32784 0.0
C595 C 0.49206 0.83864 0.29281 0.0
O596 O 0.48745 0.8363 0.30922 0.0
O597 O 0.47356 0.87052 0.3124 0.0
O598 O 0.48037 0.86868 0.34104 0.0
H599 H 0.44987 0.91642 0.27652 0.0
H600 H 0.52825 0.83944 0.33139 0.0
O601 O 0.53218 0.86854 0.34827 0.0
H602 H 0.48207 0.81175 0.36712 0.0
H603 H 0.51895 0.8595 0.40842 0.0
H604 H 0.48263 0.89119 0.36535 0.0
H605 H 0.48338 0.84388 0.36394 0.0
H606 H 0.52291 0.85449 0.37674 0.0
O607 O 0.49576 0.85396 0.28727 0.0
H608 H 0.467 0.90204 0.29985 0.0
H609 H 0.49717 0.87494 0.26175 0.0
H610 H 0.4781 0.89646 0.39692 0.0
H611 H 0.52759 0.80726 0.33435 0.0
H612 H 0.49635 0.88056 0.41869 0.0
H613 H 0.50432 0.7932 0.35226 0.0
O614 O 0.50678 0.89477 0.34114 0.0
H615 H 0.55699 0.86449 0.27817 0.0
H616 H 0.51116 0.90941 0.28578 0.0
H617 H 0.5393 0.91756 0.27215 0.0
H618 H 0.56244 0.895 0.26823 0.0
H619 H 0.52871 0.85694 0.29188 0.0
H620 H 0.48029 0.88893 0.23799 0.0
H621 H 0.45648 0.90989 0.24532 0.0
O622 O 0.49681 0.89918 0.31379 0.0
C623 C 0.46931 0.8688 0.3285 0.0
C624 C 0.46023 0.90733 0.27315 0.0
C625 C 0.47728 0.89188 0.25153 0.0
N626 N 0.48309 0.88769 0.28217 0.0
C627 C 0.46998 0.89916 0.28631 0.0
C628 C 0.48676 0.88396 0.26504 0.0
C629 C 0.46393 0.90365 0.25565 0.0
C630 C 0.51813 0.83342 0.33926 0.0
N631 N 0.50576 0.84352 0.34737 0.0
C632 C 0.5178 0.81519 0.34087 0.0
C633 C 0.50474 0.80731 0.3509 0.0
C634 C 0.49224 0.81771 0.35922 0.0
C635 C 0.49296 0.83589 0.35729 0.0
C636 C 0.5109 0.86649 0.39906 0.0
C637 C 0.49054 0.88413 0.37475 0.0
C638 C 0.51312 0.86375 0.3811 0.0
N639 N 0.50293 0.87246 0.36921 0.0
C640 C 0.48796 0.88721 0.39261 0.0
C641 C 0.49821 0.8783 0.40481 0.0
C642 C 0.50168 0.90481 0.32876 0.0
C643 C 0.54699 0.87442 0.27976 0.0
C644 C 0.52118 0.89953 0.28417 0.0
C645 C 0.53708 0.90421 0.27641 0.0
C646 C 0.55005 0.89155 0.27421 0.0
N647 N 0.51826 0.88269 0.28954 0.0
C648 C 0.53093 0.87021 0.28745 0.0
Co649 Co 0.12729 0.51215 0.34612 0.0
Co650 Co 0.12193 0.49801 0.30374 0.0
O651 O 0.13261 0.5135 0.32115 0.0
C652 C 0.1206 0.55054 0.34117 0.0
O653 O 0.10849 0.54704 0.32946 0.0
C654 C 0.16006 0.49424 0.29646 0.0
O655 O 0.1624 0.49059 0.31312 0.0
O656 O 0.12861 0.47665 0.31744 0.0
O657 O 0.12534 0.48617 0.34502 0.0
H658 H 0.0847 0.44774 0.28318 0.0
H659 H 0.15886 0.53125 0.33407 0.0
O660 O 0.12938 0.53821 0.3482 0.0
H661 H 0.18093 0.4849 0.37333 0.0
H662 H 0.13438 0.52905 0.40953 0.0
H663 H 0.10173 0.49226 0.36762 0.0
H664 H 0.14923 0.48823 0.36803 0.0
H665 H 0.14131 0.53002 0.37798 0.0
O666 O 0.1447 0.49723 0.29062 0.0
H667 H 0.09792 0.46747 0.30509 0.0
H668 H 0.12399 0.49564 0.26478 0.0
H669 H 0.09449 0.49078 0.39907 0.0
H670 H 0.19068 0.52849 0.33912 0.0
H671 H 0.11087 0.50927 0.42027 0.0
H672 H 0.2019 0.50515 0.35884 0.0
O673 O 0.10168 0.51409 0.34125 0.0
H674 H 0.13203 0.55697 0.27621 0.0
H675 H 0.08883 0.5101 0.28675 0.0
H676 H 0.07991 0.53657 0.27051 0.0
H677 H 0.1016 0.56022 0.2651 0.0
H678 H 0.14036 0.53034 0.29253 0.0
H679 H 0.11116 0.47613 0.24243 0.0
H680 H 0.09131 0.45201 0.25159 0.0
O681 O 0.09887 0.49875 0.31627 0.0
C682 C 0.12733 0.47389 0.33389 0.0
C683 C 0.09329 0.45823 0.27902 0.0
C684 C 0.10816 0.47415 0.25615 0.0
N685 N 0.11162 0.48276 0.28621 0.0
C686 C 0.10078 0.46947 0.29136 0.0
C687 C 0.11542 0.48513 0.26887 0.0
C688 C 0.09702 0.46062 0.2613 0.0
C689 C 0.16364 0.52115 0.34278 0.0
N690 N 0.1522 0.50995 0.35078 0.0
C691 C 0.18167 0.51962 0.34554 0.0
C692 C 0.18796 0.5065 0.35659 0.0
C693 C 0.17621 0.49513 0.36471 0.0
C694 C 0.15827 0.49704 0.36162 0.0
C695 C 0.12717 0.52091 0.40043 0.0
C696 C 0.10899 0.50028 0.37677 0.0
C697 C 0.13101 0.52142 0.38254 0.0
N698 N 0.12201 0.51112 0.37097 0.0
C699 C 0.1048 0.49941 0.39456 0.0
C700 C 0.11398 0.5098 0.40645 0.0
C701 C 0.09235 0.50641 0.32965 0.0
C702 C 0.12247 0.54674 0.27845 0.0
C703 C 0.09833 0.52036 0.28452 0.0
C704 C 0.09321 0.5353 0.27527 0.0
C705 C 0.10539 0.54856 0.27223 0.0
N706 N 0.11512 0.51864 0.29052 0.0
C707 C 0.12712 0.53161 0.28763 0.0
Co708 Co 0.49517 0.87017 0.6569 0.0
Co709 Co 0.50622 0.87774 0.70015 0.0
O710 O 0.49193 0.86651 0.68201 0.0
C711 C 0.45716 0.87929 0.66022 0.0
O712 O 0.46095 0.89074 0.67249 0.0
C713 C 0.50886 0.83982 0.70838 0.0
O714 O 0.5122 0.83708 0.69173 0.0
O715 O 0.5285 0.87079 0.68827 0.0
O716 O 0.5212 0.86991 0.65971 0.0
H717 H 0.55453 0.91604 0.72334 0.0
H718 H 0.47317 0.84103 0.67008 0.0
O719 O 0.46921 0.87007 0.65328 0.0
H720 H 0.51865 0.81299 0.63374 0.0
H721 H 0.48142 0.86094 0.59298 0.0
H722 H 0.51864 0.89242 0.63542 0.0
H723 H 0.51762 0.84514 0.63691 0.0
H724 H 0.47793 0.85599 0.62473 0.0
O725 O 0.50628 0.85535 0.71395 0.0
H726 H 0.53656 0.90205 0.70041 0.0
H727 H 0.50574 0.87675 0.7392 0.0
H728 H 0.5227 0.89762 0.60377 0.0
H729 H 0.47355 0.80884 0.66711 0.0
H730 H 0.504 0.88183 0.58232 0.0
H731 H 0.49647 0.79461 0.6489 0.0
O732 O 0.49486 0.89618 0.66006 0.0
H733 H 0.44552 0.86821 0.72385 0.0
H734 H 0.49276 0.91137 0.71483 0.0
H735 H 0.46514 0.9207 0.72876 0.0
H736 H 0.44129 0.89903 0.73339 0.0
H737 H 0.47331 0.85946 0.70984 0.0
H738 H 0.52346 0.89034 0.76258 0.0
H739 H 0.54802 0.9102 0.7547 0.0
O740 O 0.50641 0.90027 0.68687 0.0
C741 C 0.53245 0.86938 0.67208 0.0
C742 C 0.54385 0.90743 0.72694 0.0
C743 C 0.52643 0.89299 0.74896 0.0
N744 N 0.5201 0.88864 0.71845 0.0
C745 C 0.53362 0.8995 0.71401 0.0
C746 C 0.51648 0.88528 0.73567 0.0
C747 C 0.5402 0.90414 0.74453 0.0
C748 C 0.48313 0.83493 0.66207 0.0
N749 N 0.49548 0.84493 0.65381 0.0
C750 C 0.4833 0.8167 0.66046 0.0
C751 C 0.49618 0.80872 0.65026 0.0
C752 C 0.50864 0.81902 0.64177 0.0
C753 C 0.50808 0.83721 0.64371 0.0
C754 C 0.48967 0.86788 0.6022 0.0
C755 C 0.51053 0.88541 0.62616 0.0
C756 C 0.48772 0.86518 0.6202 0.0
N757 N 0.49816 0.87383 0.63192 0.0
C758 C 0.51285 0.88845 0.60826 0.0
C759 C 0.50234 0.8796 0.59623 0.0
C760 C 0.50095 0.90602 0.67215 0.0
C761 C 0.45583 0.87775 0.72196 0.0
C762 C 0.48243 0.90187 0.71676 0.0
C763 C 0.46683 0.90722 0.72469 0.0
C764 C 0.45346 0.89506 0.72728 0.0
N765 N 0.48468 0.88485 0.71162 0.0
C766 C 0.47162 0.87286 0.71409 0.0
Co767 Co 0.1326 0.4933 0.65835 0.0
Co768 Co 0.12635 0.50607 0.70105 0.0
O769 O 0.13742 0.49118 0.68336 0.0
C770 C 0.12616 0.45489 0.66275 0.0
O771 O 0.11466 0.45819 0.67512 0.0
C772 C 0.16433 0.50978 0.70912 0.0
O773 O 0.16689 0.51408 0.69265 0.0
O774 O 0.13317 0.5279 0.68818 0.0
O775 O 0.13071 0.51923 0.66022 0.0
H776 H 0.08851 0.55546 0.72258 0.0
H777 H 0.16383 0.47372 0.67046 0.0
O778 O 0.13457 0.46734 0.6555 0.0
H779 H 0.18688 0.52112 0.63308 0.0
H780 H 0.14092 0.47847 0.59457 0.0
H781 H 0.10749 0.51393 0.637 0.0
H782 H 0.15507 0.51777 0.63761 0.0
H783 H 0.14722 0.47646 0.6262 0.0
O784 O 0.14891 0.50649 0.7146 0.0
H785 H 0.10223 0.53654 0.70027 0.0
H786 H 0.12771 0.50716 0.7401 0.0
H787 H 0.10088 0.51646 0.60547 0.0
H788 H 0.19576 0.47649 0.66616 0.0
H789 H 0.11765 0.49864 0.58401 0.0
H790 H 0.20747 0.50036 0.64739 0.0
O791 O 0.1069 0.49125 0.66263 0.0
H792 H 0.13622 0.44628 0.72685 0.0
H793 H 0.09299 0.49328 0.71695 0.0
H794 H 0.08388 0.46624 0.73211 0.0
H795 H 0.10558 0.44252 0.73719 0.0
H796 H 0.14473 0.47348 0.71161 0.0
H797 H 0.11436 0.52585 0.76285 0.0
H798 H 0.09455 0.55016 0.75413 0.0
O799 O 0.10353 0.50567 0.68808 0.0
C800 C 0.13234 0.53116 0.67178 0.0
C801 C 0.09708 0.54488 0.72655 0.0
C802 C 0.11161 0.52827 0.74914 0.0
N803 N 0.11567 0.52069 0.71888 0.0
C804 C 0.10486 0.5341 0.71397 0.0
C805 C 0.11917 0.51776 0.73621 0.0
C806 C 0.10049 0.54191 0.74424 0.0
C807 C 0.16883 0.48405 0.66216 0.0
N808 N 0.1576 0.49554 0.65426 0.0
C809 C 0.18692 0.48559 0.65983 0.0
C810 C 0.19349 0.49901 0.64931 0.0
C811 C 0.18194 0.51067 0.64129 0.0
C812 C 0.16394 0.50874 0.64395 0.0
C813 C 0.13354 0.48632 0.60379 0.0
C814 C 0.11492 0.5062 0.62774 0.0
C815 C 0.13702 0.48521 0.62172 0.0
N816 N 0.12781 0.49515 0.63344 0.0
C817 C 0.11108 0.50766 0.6099 0.0
C818 C 0.12049 0.49765 0.59787 0.0
C819 C 0.09732 0.49848 0.6743 0.0
C820 C 0.12665 0.45654 0.72475 0.0
C821 C 0.1025 0.483 0.71905 0.0
C822 C 0.09727 0.46773 0.72768 0.0
C823 C 0.10946 0.45443 0.73053 0.0
N824 N 0.1194 0.48499 0.71346 0.0
C825 C 0.13141 0.47199 0.71618 0.0
Co826 Co 0.51064 0.12889 0.65394 0.0
Co827 Co 0.49625 0.12432 0.69612 0.0
O828 O 0.51195 0.13477 0.67876 0.0
C829 C 0.54914 0.12367 0.65947 0.0
O830 O 0.54587 0.11226 0.67193 0.0
C831 C 0.49319 0.16246 0.70367 0.0
O832 O 0.48919 0.16491 0.68711 0.0
O833 O 0.47516 0.13164 0.68241 0.0
O834 O 0.48465 0.12633 0.65515 0.0
H835 H 0.44485 0.08859 0.71658 0.0
H836 H 0.52895 0.16122 0.66512 0.0
O837 O 0.53663 0.13155 0.65173 0.0
H838 H 0.48194 0.18108 0.62546 0.0
H839 H 0.52708 0.13486 0.59029 0.0
H840 H 0.49137 0.10227 0.63318 0.0
H841 H 0.48608 0.14963 0.63157 0.0
H842 H 0.528 0.14257 0.62166 0.0
O843 O 0.49612 0.14704 0.70938 0.0
H844 H 0.4649 0.10136 0.69469 0.0
H845 H 0.49411 0.12611 0.7351 0.0
H846 H 0.48994 0.09423 0.60192 0.0
H847 H 0.52537 0.19282 0.65926 0.0
H848 H 0.50788 0.11057 0.58023 0.0
H849 H 0.50169 0.20292 0.63933 0.0
O850 O 0.5133 0.10352 0.65952 0.0
H851 H 0.55549 0.13263 0.72369 0.0
H852 H 0.5075 0.09075 0.71274 0.0
H853 H 0.53376 0.08099 0.72886 0.0
H854 H 0.55797 0.10202 0.73446 0.0
H855 H 0.52905 0.1418 0.7075 0.0
H856 H 0.47429 0.11371 0.75743 0.0
H857 H 0.44949 0.09474 0.74821 0.0
O858 O 0.49627 0.10126 0.68343 0.0
C859 C 0.47237 0.12931 0.66608 0.0
C860 C 0.45565 0.09678 0.72077 0.0
C861 C 0.47216 0.1109 0.74369 0.0
N862 N 0.48075 0.11434 0.71362 0.0
C863 C 0.46707 0.10401 0.70843 0.0
C864 C 0.48331 0.11791 0.73098 0.0
C865 C 0.45825 0.10026 0.73851 0.0
C866 C 0.51871 0.16552 0.65632 0.0
N867 N 0.50778 0.15359 0.64866 0.0
C868 C 0.51671 0.18343 0.6531 0.0
C869 C 0.5034 0.18909 0.64194 0.0
C870 C 0.49231 0.17684 0.63416 0.0
C871 C 0.49469 0.15905 0.63771 0.0
C872 C 0.51918 0.12766 0.59961 0.0
C873 C 0.49915 0.10951 0.62381 0.0
C874 C 0.51968 0.13194 0.6174 0.0
N875 N 0.50966 0.12296 0.62923 0.0
C876 C 0.49831 0.10487 0.60613 0.0
C877 C 0.5084 0.11403 0.59397 0.0
C878 C 0.5047 0.09447 0.67065 0.0
C879 C 0.54501 0.12336 0.72137 0.0
C880 C 0.518 0.09997 0.71508 0.0
C881 C 0.53283 0.09437 0.72425 0.0
C882 C 0.5464 0.10618 0.7274 0.0
N883 N 0.5167 0.11686 0.70927 0.0
C884 C 0.52998 0.12849 0.71226 0.0
Co885 Co 0.87478 0.51402 0.65588 0.0
Co886 Co 0.87959 0.49813 0.69786 0.0
O887 O 0.86938 0.5146 0.68093 0.0
C888 C 0.88258 0.55195 0.66252 0.0
O889 O 0.89434 0.54763 0.67432 0.0
C890 C 0.84122 0.49677 0.70448 0.0
O891 O 0.83874 0.49738 0.68748 0.0
O892 O 0.87262 0.47755 0.68329 0.0
O893 O 0.87584 0.48793 0.656 0.0
H894 H 0.91588 0.44642 0.71644 0.0
H895 H 0.84389 0.53433 0.66781 0.0
O896 O 0.87365 0.54019 0.65477 0.0
H897 H 0.82037 0.48964 0.6275 0.0
H898 H 0.86857 0.53342 0.59308 0.0
H899 H 0.89977 0.49409 0.63378 0.0
H900 H 0.85209 0.49135 0.63341 0.0
H901 H 0.86154 0.53351 0.62462 0.0
O902 O 0.85668 0.49678 0.71078 0.0
H903 H 0.90312 0.46731 0.69533 0.0
H904 H 0.87721 0.49408 0.73668 0.0
H905 H 0.9071 0.49347 0.60232 0.0
H906 H 0.8121 0.53324 0.66206 0.0
H907 H 0.89145 0.51325 0.58173 0.0
H908 H 0.80014 0.51072 0.64184 0.0
O909 O 0.90038 0.51494 0.66089 0.0
H910 H 0.87 0.55595 0.72783 0.0
H911 H 0.9127 0.50902 0.71562 0.0
H912 H 0.92181 0.53465 0.73306 0.0
H913 H 0.90037 0.55833 0.73931 0.0
H914 H 0.86148 0.53015 0.71032 0.0
H915 H 0.88958 0.47339 0.75823 0.0
H916 H 0.90912 0.4494 0.74815 0.0
O917 O 0.9028 0.49909 0.68559 0.0
C918 C 0.87367 0.47534 0.66675 0.0
C919 C 0.90743 0.45686 0.721 0.0
C920 C 0.89264 0.47198 0.74445 0.0
N921 N 0.88953 0.48197 0.71478 0.0
C922 C 0.9002 0.46875 0.70912 0.0
C923 C 0.88565 0.48363 0.73219 0.0
C924 C 0.90361 0.45852 0.73879 0.0
C925 C 0.83881 0.52462 0.65884 0.0
N926 N 0.84984 0.51292 0.65096 0.0
C927 C 0.82078 0.52401 0.6557 0.0
C928 C 0.81408 0.51135 0.64438 0.0
C929 C 0.82542 0.4995 0.63635 0.0
C930 C 0.84337 0.50048 0.63982 0.0
C931 C 0.87546 0.52472 0.60192 0.0
C932 C 0.89283 0.50266 0.6249 0.0
C933 C 0.87156 0.52473 0.6198 0.0
N934 N 0.88015 0.51372 0.63103 0.0
C935 C 0.89707 0.50229 0.6071 0.0
C936 C 0.88829 0.51339 0.59555 0.0
C937 C 0.9095 0.50688 0.67237 0.0
C938 C 0.87945 0.5457 0.72524 0.0
C939 C 0.90331 0.51929 0.71823 0.0
C940 C 0.90854 0.53376 0.72815 0.0
C941 C 0.8965 0.54703 0.73166 0.0
N942 N 0.88654 0.51805 0.71204 0.0
C943 C 0.87468 0.53103 0.71538 0.0
Co944 Co 0.34479 0.49179 0.13347 0.0
Co945 Co 0.30128 0.5018 0.12587 0.0
O946 O 0.31976 0.48812 0.13724 0.0
C947 C 0.34145 0.45369 0.12496 0.0
O948 O 0.32855 0.45727 0.11414 0.0
C949 C 0.29326 0.50572 0.16378 0.0
O950 O 0.30966 0.51037 0.16617 0.0
O951 O 0.31287 0.52451 0.1321 0.0
O952 O 0.34152 0.51769 0.13366 0.0
H953 H 0.27693 0.54861 0.08644 0.0
H954 H 0.33198 0.4697 0.16272 0.0
O955 O 0.34886 0.4659 0.13358 0.0
H956 H 0.36775 0.51577 0.19052 0.0
H957 H 0.40899 0.47923 0.14252 0.0
H958 H 0.36577 0.51558 0.11108 0.0
H959 H 0.36451 0.51459 0.15838 0.0
H960 H 0.37733 0.47518 0.14759 0.0
O961 O 0.28775 0.50208 0.14844 0.0
H962 H 0.3003 0.53138 0.10064 0.0
H963 H 0.26225 0.50085 0.12744 0.0
H964 H 0.39732 0.5202 0.10576 0.0
H965 H 0.335 0.47023 0.1949 0.0
H966 H 0.41917 0.50194 0.12154 0.0
H967 H 0.35293 0.49345 0.20901 0.0
O968 O 0.34161 0.49143 0.10745 0.0
H969 H 0.27874 0.44097 0.13721 0.0
H970 H 0.28634 0.48729 0.0928 0.0
H971 H 0.27274 0.45923 0.08433 0.0
H972 H 0.26883 0.43584 0.10663 0.0
H973 H 0.29241 0.46918 0.14509 0.0
H974 H 0.23846 0.51783 0.11363 0.0
H975 H 0.24574 0.54187 0.09292 0.0
O976 O 0.3143 0.50161 0.1032 0.0
C977 C 0.32898 0.52873 0.13374 0.0
C978 C 0.27358 0.53815 0.09543 0.0
C979 C 0.252 0.5209 0.1107 0.0
N980 N 0.28265 0.51511 0.11483 0.0
C981 C 0.28676 0.52834 0.10349 0.0
C982 C 0.26553 0.51137 0.11853 0.0
C983 C 0.25609 0.53437 0.09908 0.0
C984 C 0.33986 0.4798 0.16876 0.0
N985 N 0.34794 0.4922 0.1587 0.0
C986 C 0.3415 0.48005 0.18699 0.0
C987 C 0.35155 0.49309 0.1949 0.0
C988 C 0.35984 0.50563 0.18454 0.0
C989 C 0.35788 0.50498 0.16635 0.0
C990 C 0.3996 0.48729 0.13559 0.0
C991 C 0.3752 0.50766 0.11808 0.0
C992 C 0.38165 0.48502 0.13836 0.0
N993 N 0.36971 0.49521 0.12972 0.0
C994 C 0.39305 0.5103 0.11498 0.0
C995 C 0.4053 0.50004 0.12382 0.0
C996 C 0.32924 0.49674 0.09748 0.0
C997 C 0.28033 0.45108 0.12739 0.0
C998 C 0.28473 0.47717 0.10257 0.0
C999 C 0.27699 0.46131 0.0977 0.0
C1000 C 0.27479 0.4482 0.11023 0.0
N1001 N 0.29008 0.47991 0.11944 0.0
C1002 C 0.288 0.4671 0.13178 0.0
Co1003 Co 0.34631 0.5132 0.87486 0.0
Co1004 Co 0.30404 0.49898 0.88092 0.0
O1005 O 0.32124 0.51463 0.87018 0.0
C1006 C 0.34064 0.55126 0.88231 0.0
O1007 O 0.32883 0.5472 0.89414 0.0
C1008 C 0.29626 0.49589 0.84288 0.0
O1009 O 0.31288 0.49218 0.84039 0.0
O1010 O 0.31757 0.47774 0.87363 0.0
O1011 O 0.3453 0.48715 0.8761 0.0
H1012 H 0.28403 0.44812 0.91764 0.0
H1013 H 0.33342 0.53311 0.84412 0.0
O1014 O 0.34821 0.53931 0.87346 0.0
H1015 H 0.37227 0.48754 0.81984 0.0
H1016 H 0.40949 0.53047 0.8667 0.0
H1017 H 0.36847 0.49264 0.89929 0.0
H1018 H 0.36776 0.48999 0.85174 0.0
H1019 H 0.37776 0.53158 0.86061 0.0
O1020 O 0.29054 0.49864 0.85832 0.0
H1021 H 0.30576 0.46802 0.90436 0.0
H1022 H 0.26505 0.49673 0.8795 0.0
H1023 H 0.40011 0.491 0.90568 0.0
H1024 H 0.33767 0.53124 0.81213 0.0
H1025 H 0.42086 0.51002 0.88933 0.0
H1026 H 0.35718 0.50829 0.7998 0.0
O1027 O 0.34207 0.51446 0.90061 0.0
H1028 H 0.27638 0.55814 0.87237 0.0
H1029 H 0.28783 0.51055 0.91457 0.0
H1030 H 0.27185 0.5369 0.92427 0.0
H1031 H 0.26599 0.56092 0.90309 0.0
H1032 H 0.29245 0.53162 0.86325 0.0
H1033 H 0.24289 0.47705 0.89241 0.0
H1034 H 0.25233 0.45258 0.91168 0.0
O1035 O 0.31703 0.49929 0.90376 0.0
C1036 C 0.33406 0.47493 0.87426 0.0
C1037 C 0.27974 0.45876 0.9093 0.0
C1038 C 0.25665 0.47499 0.89512 0.0
N1039 N 0.28667 0.48359 0.89127 0.0
C1040 C 0.29198 0.4701 0.90178 0.0
C1041 C 0.26927 0.48606 0.88782 0.0
C1042 C 0.26196 0.46127 0.90594 0.0
C1043 C 0.34204 0.52318 0.83886 0.0
N1044 N 0.35036 0.5117 0.8498 0.0
C1045 C 0.34435 0.52215 0.82073 0.0
C1046 C 0.35528 0.50925 0.81382 0.0
C1047 C 0.36373 0.4976 0.82506 0.0
C1048 C 0.36109 0.49901 0.84311 0.0
C1049 C 0.40058 0.5221 0.87389 0.0
C1050 C 0.37743 0.50088 0.89205 0.0
C1051 C 0.3826 0.52269 0.87053 0.0
N1052 N 0.37129 0.51209 0.8795 0.0
C1053 C 0.39533 0.49993 0.89576 0.0
C1054 C 0.40696 0.51062 0.88658 0.0
C1055 C 0.33065 0.50671 0.91008 0.0
C1056 C 0.27881 0.54775 0.88171 0.0
C1057 C 0.28538 0.52096 0.90528 0.0
C1058 C 0.27629 0.53584 0.91085 0.0
C1059 C 0.273 0.5493 0.89895 0.0
N1060 N 0.29099 0.51951 0.88833 0.0
C1061 C 0.28785 0.53267 0.87661 0.0
Co1062 Co 0.48993 0.34349 0.87166 0.0
Co1063 Co 0.50452 0.30124 0.87562 0.0
O1064 O 0.48853 0.31868 0.86575 0.0
C1065 C 0.45164 0.33807 0.87856 0.0
O1066 O 0.45533 0.32581 0.89006 0.0
C1067 C 0.50679 0.29428 0.83732 0.0
O1068 O 0.51059 0.31091 0.83505 0.0
O1069 O 0.52544 0.31508 0.86805 0.0
O1070 O 0.51601 0.34241 0.87316 0.0
H1071 H 0.55665 0.28048 0.9101 0.0
H1072 H 0.47045 0.33219 0.84005 0.0
O1073 O 0.46384 0.34558 0.87001 0.0
H1074 H 0.51624 0.37231 0.81839 0.0
H1075 H 0.47283 0.40704 0.86656 0.0
H1076 H 0.51017 0.36431 0.89749 0.0
H1077 H 0.51341 0.36614 0.84998 0.0
H1078 H 0.47181 0.3757 0.85878 0.0
O1079 O 0.50424 0.28831 0.85271 0.0
H1080 H 0.53628 0.30247 0.89801 0.0
H1081 H 0.50678 0.26231 0.87322 0.0
H1082 H 0.51173 0.39556 0.90557 0.0
H1083 H 0.4727 0.33812 0.80835 0.0
H1084 H 0.49296 0.41716 0.89006 0.0
H1085 H 0.49577 0.35827 0.79733 0.0
O1086 O 0.48831 0.33786 0.89712 0.0
H1087 H 0.44521 0.27359 0.86815 0.0
H1088 H 0.49402 0.28413 0.90919 0.0
H1089 H 0.46802 0.26781 0.91927 0.0
H1090 H 0.44339 0.26241 0.89867 0.0
H1091 H 0.4714 0.28998 0.85865 0.0
H1092 H 0.52692 0.23989 0.88494 0.0
H1093 H 0.55203 0.24893 0.90358 0.0
O1094 O 0.50489 0.31359 0.89883 0.0
C1095 C 0.52822 0.33146 0.87003 0.0
C1096 C 0.54573 0.27637 0.90204 0.0
C1097 C 0.52905 0.25359 0.8879 0.0
N1098 N 0.52028 0.28367 0.88504 0.0
C1099 C 0.53412 0.28876 0.8952 0.0
C1100 C 0.51772 0.26635 0.88127 0.0
C1101 C 0.54313 0.25867 0.89836 0.0
C1102 C 0.48043 0.34108 0.83536 0.0
N1103 N 0.49176 0.34883 0.84686 0.0
C1104 C 0.48168 0.34434 0.8174 0.0
C1105 C 0.49464 0.35563 0.81122 0.0
C1106 C 0.50614 0.3635 0.82303 0.0
C1107 C 0.50451 0.35991 0.8409 0.0
C1108 C 0.4811 0.39776 0.87339 0.0
C1109 C 0.50203 0.37364 0.89061 0.0
C1110 C 0.48054 0.37998 0.86908 0.0
N1111 N 0.491 0.36819 0.8776 0.0
C1112 C 0.50294 0.39131 0.89527 0.0
C1113 C 0.49239 0.40343 0.88658 0.0
C1114 C 0.49684 0.32645 0.90591 0.0
C1115 C 0.45588 0.27582 0.87723 0.0
C1116 C 0.48334 0.28188 0.90015 0.0
C1117 C 0.46866 0.2726 0.90593 0.0
C1118 C 0.45486 0.26956 0.89436 0.0
N1119 N 0.48427 0.28792 0.88331 0.0
C1120 C 0.47076 0.28504 0.87191 0.0
Co1121 Co 0.65728 0.48819 0.86974 0.0
Co1122 Co 0.69933 0.504 0.87405 0.0
O1123 O 0.68218 0.48791 0.86354 0.0
C1124 C 0.66393 0.44985 0.87536 0.0
O1125 O 0.67621 0.45345 0.88687 0.0
C1126 C 0.70563 0.50619 0.83555 0.0
O1127 O 0.68871 0.50465 0.83298 0.0
O1128 O 0.68459 0.52479 0.86813 0.0
O1129 O 0.6575 0.51419 0.87214 0.0
H1130 H 0.71851 0.55434 0.9119 0.0
H1131 H 0.66795 0.46937 0.83747 0.0
O1132 O 0.65602 0.46213 0.8673 0.0
H1133 H 0.62709 0.51535 0.81767 0.0
H1134 H 0.59424 0.46924 0.86463 0.0
H1135 H 0.63609 0.5068 0.89648 0.0
H1136 H 0.63421 0.5121 0.849 0.0
H1137 H 0.62552 0.4695 0.85653 0.0
O1138 O 0.71191 0.50631 0.85101 0.0
H1139 H 0.69719 0.53392 0.89874 0.0
H1140 H 0.73813 0.50815 0.8712 0.0
H1141 H 0.6049 0.50705 0.90491 0.0
H1142 H 0.66095 0.47196 0.80602 0.0
H1143 H 0.58373 0.48817 0.88894 0.0
H1144 H 0.64045 0.49515 0.79593 0.0
O1145 O 0.66312 0.48592 0.89507 0.0
H1146 H 0.72906 0.44657 0.86169 0.0
H1147 H 0.71778 0.49187 0.90636 0.0
H1148 H 0.73537 0.4659 0.91414 0.0
H1149 H 0.74115 0.44304 0.8917 0.0
H1150 H 0.7114 0.47268 0.85451 0.0
H1151 H 0.75987 0.52837 0.88396 0.0
H1152 H 0.7501 0.55163 0.90453 0.0
O1153 O 0.68755 0.50213 0.89745 0.0
C1154 C 0.66811 0.52691 0.86999 0.0
C1155 C 0.72293 0.54423 0.903 0.0
C1156 C 0.74614 0.52967 0.8873 0.0
N1157 N 0.71642 0.51979 0.8843 0.0
C1158 C 0.71093 0.5326 0.89553 0.0
C1159 C 0.73376 0.51828 0.88008 0.0
C1160 C 0.74065 0.54271 0.89884 0.0
C1161 C 0.65887 0.47936 0.83321 0.0
N1162 N 0.65153 0.49059 0.84508 0.0
C1163 C 0.65502 0.48082 0.81537 0.0
C1164 C 0.64355 0.49386 0.80971 0.0
C1165 C 0.63607 0.50522 0.8219 0.0
C1166 C 0.64023 0.50338 0.83963 0.0
C1167 C 0.60333 0.47755 0.87167 0.0
C1168 C 0.62695 0.49862 0.8894 0.0
C1169 C 0.62107 0.47773 0.86716 0.0
N1170 N 0.63262 0.48825 0.87594 0.0
C1171 C 0.60931 0.49878 0.89426 0.0
C1172 C 0.59744 0.48818 0.8853 0.0
C1173 C 0.67469 0.49381 0.9042 0.0
C1174 C 0.72667 0.45646 0.87156 0.0
C1175 C 0.72019 0.48196 0.89654 0.0
C1176 C 0.7302 0.4673 0.90101 0.0
C1177 C 0.73344 0.45448 0.88841 0.0
N1178 N 0.71366 0.48384 0.87996 0.0
C1179 C 0.71674 0.4713 0.86756 0.0
Co1180 Co 0.50798 0.65631 0.87149 0.0
Co1181 Co 0.49767 0.69955 0.88009 0.0
O1182 O 0.5115 0.68144 0.86833 0.0
C1183 C 0.54608 0.65971 0.88001 0.0
O1184 O 0.54247 0.67237 0.8911 0.0
C1185 C 0.49421 0.70805 0.84231 0.0
O1186 O 0.49056 0.69146 0.8396 0.0
O1187 O 0.47506 0.68795 0.87364 0.0
O1188 O 0.48204 0.65941 0.8714 0.0
H1189 H 0.4507 0.72261 0.92008 0.0
H1190 H 0.53008 0.66987 0.8426 0.0
O1191 O 0.53388 0.65241 0.87129 0.0
H1192 H 0.48412 0.63471 0.81384 0.0
H1193 H 0.52089 0.59244 0.86086 0.0
H1194 H 0.48436 0.63465 0.89341 0.0
H1195 H 0.48526 0.63713 0.84605 0.0
H1196 H 0.52476 0.62424 0.85656 0.0
O1197 O 0.49713 0.71354 0.85782 0.0
H1198 H 0.46811 0.69972 0.90535 0.0
H1199 H 0.49829 0.73861 0.8794 0.0
H1200 H 0.47993 0.60296 0.89796 0.0
H1201 H 0.52959 0.66766 0.81035 0.0
H1202 H 0.49829 0.58162 0.88162 0.0
H1203 H 0.50643 0.65004 0.79576 0.0
O1204 O 0.50835 0.65889 0.89757 0.0
H1205 H 0.55826 0.72289 0.86904 0.0
H1206 H 0.51216 0.71392 0.91344 0.0
H1207 H 0.54014 0.72759 0.9221 0.0
H1208 H 0.56341 0.73219 0.89981 0.0
H1209 H 0.53014 0.70914 0.86097 0.0
H1210 H 0.48112 0.76194 0.89374 0.0
H1211 H 0.45717 0.75399 0.9143 0.0
O1212 O 0.49808 0.68605 0.90249 0.0
C1213 C 0.47091 0.67186 0.87164 0.0
C1214 C 0.46112 0.72624 0.91117 0.0
C1215 C 0.47817 0.74831 0.89637 0.0
N1216 N 0.48422 0.71782 0.89156 0.0
C1217 C 0.47104 0.71334 0.90281 0.0
C1218 C 0.48782 0.73505 0.88824 0.0
C1219 C 0.46474 0.74384 0.90791 0.0
C1220 C 0.52001 0.66211 0.83635 0.0
N1221 N 0.5076 0.65377 0.84619 0.0
C1222 C 0.51978 0.66093 0.81808 0.0
C1223 C 0.50677 0.65107 0.8099 0.0
C1224 C 0.49423 0.64249 0.82004 0.0
C1225 C 0.49486 0.64399 0.83827 0.0
C1226 C 0.5128 0.60161 0.86803 0.0
C1227 C 0.49232 0.62544 0.88616 0.0
C1228 C 0.51496 0.61964 0.8657 0.0
N1229 N 0.50471 0.63129 0.87464 0.0
C1230 C 0.48979 0.60751 0.88884 0.0
C1231 C 0.5001 0.59555 0.87968 0.0
C1232 C 0.50305 0.67101 0.90784 0.0
C1233 C 0.5482 0.721 0.87886 0.0
C1234 C 0.52224 0.71583 0.90367 0.0
C1235 C 0.53804 0.72361 0.90864 0.0
C1236 C 0.55109 0.7262 0.89613 0.0
N1237 N 0.51949 0.71082 0.88669 0.0
C1238 C 0.53223 0.71328 0.87436 0.0
Co1239 Co 0.65579 0.51101 0.12659 0.0
Co1240 Co 0.69884 0.49664 0.12321 0.0
O1241 O 0.68087 0.51295 0.13221 0.0
C1242 C 0.6634 0.55007 0.12317 0.0
O1243 O 0.68041 0.54801 0.12454 0.0
C1244 C 0.70434 0.49715 0.16197 0.0
O1245 O 0.68737 0.49874 0.16413 0.0
O1246 O 0.68476 0.47563 0.13001 0.0
O1247 O 0.657 0.48508 0.12863 0.0
H1248 H 0.72054 0.44487 0.0888 0.0
H1249 H 0.66715 0.53458 0.15547 0.0
O1250 O 0.65306 0.537 0.12402 0.0
H1251 H 0.62684 0.49222 0.18287 0.0
H1252 H 0.59205 0.52804 0.12968 0.0
H1253 H 0.63506 0.48735 0.10379 0.0
H1254 H 0.63329 0.49065 0.15127 0.0
H1255 H 0.62341 0.53041 0.1371 0.0
O1256 O 0.71088 0.49604 0.14665 0.0
H1257 H 0.69827 0.46531 0.10023 0.0
H1258 H 0.73766 0.49386 0.1273 0.0
H1259 H 0.60379 0.48442 0.09615 0.0
H1260 H 0.66085 0.53684 0.18703 0.0
H1261 H 0.58205 0.50487 0.10912 0.0
H1262 H 0.64061 0.5155 0.20098 0.0
O1263 O 0.66109 0.50951 0.10109 0.0
H1264 H 0.72817 0.55474 0.1333 0.0
H1265 H 0.71714 0.50767 0.09044 0.0
H1266 H 0.73465 0.53336 0.08167 0.0
H1267 H 0.74033 0.5571 0.1032 0.0
H1268 H 0.71049 0.52895 0.14143 0.0
H1269 H 0.76033 0.47365 0.11627 0.0
H1270 H 0.75183 0.44897 0.09682 0.0
O1271 O 0.68756 0.49672 0.09954 0.0
C1272 C 0.66828 0.47292 0.13039 0.0
C1273 C 0.72442 0.4556 0.09723 0.0
C1274 C 0.74674 0.47173 0.11267 0.0
N1275 N 0.71667 0.48083 0.11434 0.0
C1276 C 0.71187 0.46724 0.1037 0.0
C1277 C 0.73384 0.48312 0.1189 0.0
C1278 C 0.74196 0.4579 0.10175 0.0
C1279 C 0.65813 0.52542 0.16133 0.0
N1280 N 0.65051 0.51257 0.15145 0.0
C1281 C 0.6547 0.52668 0.17927 0.0
C1282 C 0.64338 0.51468 0.1871 0.0
C1283 C 0.63567 0.50161 0.17695 0.0
C1284 C 0.63943 0.50073 0.15906 0.0
C1285 C 0.60139 0.51903 0.12397 0.0
C1286 C 0.62566 0.49623 0.10959 0.0
C1287 C 0.61918 0.52033 0.12809 0.0
N1288 N 0.63105 0.50894 0.12099 0.0
C1289 C 0.60798 0.49454 0.10517 0.0
C1290 C 0.59579 0.50602 0.11244 0.0
C1291 C 0.67362 0.50263 0.09242 0.0
C1292 C 0.72582 0.54447 0.12381 0.0
C1293 C 0.7194 0.51801 0.09984 0.0
C1294 C 0.72941 0.53249 0.09482 0.0
C1295 C 0.73261 0.5458 0.10691 0.0
N1296 N 0.71278 0.5168 0.11644 0.0
C1297 C 0.71588 0.52979 0.12837 0.0
Co1298 Co 0.48977 0.6532 0.13073 0.0
Co1299 Co 0.50273 0.69577 0.1235 0.0
O1300 O 0.48752 0.67836 0.13455 0.0
C1301 C 0.45178 0.65776 0.12217 0.0
O1302 O 0.45587 0.66946 0.11023 0.0
C1303 C 0.5055 0.70435 0.16136 0.0
O1304 O 0.50938 0.68782 0.16419 0.0
O1305 O 0.52433 0.68305 0.13114 0.0
O1306 O 0.51584 0.65491 0.13025 0.0
H1307 H 0.55312 0.71641 0.08648 0.0
H1308 H 0.46869 0.66667 0.16041 0.0
O1309 O 0.46368 0.65062 0.13144 0.0
H1310 H 0.51427 0.6296 0.18734 0.0
H1311 H 0.47393 0.58986 0.1404 0.0
H1312 H 0.5117 0.63087 0.10772 0.0
H1313 H 0.51265 0.63296 0.15525 0.0
H1314 H 0.47178 0.62171 0.14541 0.0
O1315 O 0.5027 0.70973 0.1458 0.0
H1316 H 0.53378 0.69443 0.10017 0.0
H1317 H 0.5039 0.73482 0.12409 0.0
H1318 H 0.51439 0.5991 0.10241 0.0
H1319 H 0.46971 0.66355 0.19257 0.0
H1320 H 0.49541 0.57836 0.11882 0.0
H1321 H 0.49266 0.64495 0.20624 0.0
O1322 O 0.4891 0.65655 0.10479 0.0
H1323 H 0.44282 0.72198 0.13136 0.0
H1324 H 0.49078 0.7109 0.08948 0.0
H1325 H 0.46402 0.72595 0.07939 0.0
H1326 H 0.43982 0.73162 0.10041 0.0
H1327 H 0.46976 0.70685 0.14087 0.0
H1328 H 0.523 0.75725 0.11077 0.0
H1329 H 0.54778 0.74808 0.09176 0.0
O1330 O 0.50284 0.68232 0.10099 0.0
C1331 C 0.52765 0.66666 0.13156 0.0
C1332 C 0.54234 0.72057 0.0947 0.0
C1333 C 0.52544 0.74349 0.10835 0.0
N1334 N 0.51766 0.71334 0.11281 0.0
C1335 C 0.53132 0.70819 0.10245 0.0
C1336 C 0.5147 0.73073 0.11589 0.0
C1337 C 0.53934 0.73834 0.09768 0.0
C1338 C 0.47864 0.65845 0.16626 0.0
N1339 N 0.49061 0.65001 0.15595 0.0
C1340 C 0.47918 0.65678 0.18448 0.0
C1341 C 0.49208 0.64636 0.19214 0.0
C1342 C 0.50421 0.63776 0.18155 0.0
C1343 C 0.50328 0.63976 0.16338 0.0
C1344 C 0.4823 0.59876 0.1332 0.0
C1345 C 0.50347 0.62192 0.11498 0.0
C1346 C 0.48111 0.61682 0.13595 0.0
N1347 N 0.49169 0.62813 0.12695 0.0
C1348 C 0.50502 0.60395 0.11189 0.0
C1349 C 0.49436 0.59232 0.12109 0.0
C1350 C 0.49622 0.66814 0.09504 0.0
C1351 C 0.4533 0.71963 0.12209 0.0
C1352 C 0.48029 0.71327 0.0987 0.0
C1353 C 0.46518 0.72183 0.09291 0.0
C1354 C 0.45161 0.72501 0.10472 0.0
N1355 N 0.48187 0.70808 0.11577 0.0
C1356 C 0.4686 0.71112 0.12741 0.0
Co1357 Co 0.51281 0.34151 0.12906 0.0
Co1358 Co 0.4967 0.29989 0.1246 0.0
O1359 O 0.51337 0.31659 0.13463 0.0
C1360 C 0.55104 0.33574 0.12169 0.0
O1361 O 0.54719 0.32455 0.1092 0.0
C1362 C 0.49463 0.29236 0.16281 0.0
O1363 O 0.49148 0.30907 0.16542 0.0
O1364 O 0.47635 0.31435 0.13255 0.0
O1365 O 0.48672 0.34134 0.12748 0.0
H1366 H 0.44358 0.28158 0.09024 0.0
H1367 H 0.53182 0.32912 0.16056 0.0
O1368 O 0.53895 0.34269 0.13085 0.0
H1369 H 0.4874 0.37051 0.18265 0.0
H1370 H 0.53208 0.40435 0.13501 0.0
H1371 H 0.49333 0.36336 0.10348 0.0
H1372 H 0.49008 0.36466 0.151 0.0
H1373 H 0.53201 0.3729 0.14238 0.0
O1374 O 0.49672 0.28657 0.14729 0.0
H1375 H 0.46483 0.30263 0.1025 0.0
H1376 H 0.49308 0.26103 0.12638 0.0
H1377 H 0.49287 0.39474 0.09581 0.0
H1378 H 0.52971 0.33471 0.19233 0.0
H1379 H 0.51236 0.41548 0.11162 0.0
H1380 H 0.50734 0.35551 0.20356 0.0
O1381 O 0.51423 0.33615 0.10352 0.0
H1382 H 0.55504 0.27002 0.13112 0.0
H1383 H 0.50632 0.28298 0.09068 0.0
H1384 H 0.53162 0.26588 0.08013 0.0
H1385 H 0.5562 0.25926 0.10043 0.0
H1386 H 0.52955 0.2872 0.1411 0.0
H1387 H 0.47206 0.23954 0.11449 0.0
H1388 H 0.44713 0.24978 0.09621 0.0
O1389 O 0.49659 0.31266 0.1016 0.0
C1390 C 0.47413 0.33082 0.13061 0.0
C1391 C 0.45442 0.27695 0.09813 0.0
C1392 C 0.47039 0.25336 0.11176 0.0
N1393 N 0.48025 0.28305 0.11502 0.0
C1394 C 0.46652 0.2888 0.10507 0.0
C1395 C 0.48223 0.26559 0.11849 0.0
C1396 C 0.45641 0.25911 0.10151 0.0
C1397 C 0.52214 0.33829 0.16534 0.0
N1398 N 0.51111 0.34657 0.15393 0.0
C1399 C 0.52097 0.34136 0.18335 0.0
C1400 C 0.5084 0.35301 0.18964 0.0
C1401 C 0.4972 0.36142 0.17792 0.0
C1402 C 0.49874 0.35801 0.16001 0.0
C1403 C 0.52351 0.39545 0.12804 0.0
C1404 C 0.50178 0.37231 0.11049 0.0
C1405 C 0.52344 0.37761 0.13213 0.0
N1406 N 0.51259 0.36631 0.12344 0.0
C1407 C 0.50149 0.39006 0.10606 0.0
C1408 C 0.51244 0.40169 0.11492 0.0
C1409 C 0.50513 0.32526 0.09464 0.0
C1410 C 0.54439 0.27278 0.12217 0.0
C1411 C 0.51698 0.2802 0.09958 0.0
C1412 C 0.53126 0.27048 0.09354 0.0
C1413 C 0.54504 0.26676 0.10494 0.0
N1414 N 0.51641 0.286 0.11652 0.0
C1415 C 0.5299 0.28246 0.12776 0.0
H1416 H 0.12706 0.44245 0.31568 0.0
H1417 H 0.12454 0.41277 0.32826 0.0
H1418 H 0.12473 0.43482 0.38025 0.0
H1419 H 0.12722 0.46401 0.36815 0.0
H1420 H 0.14741 0.3953 0.35552 0.0
H1421 H 0.0788 0.40465 0.37685 0.0
H1422 H 0.08873 0.41755 0.35963 0.0
H1423 H 0.0925 0.42301 0.38226 0.0
C1424 C 0.12671 0.44092 0.32979 0.0
C1425 C 0.12726 0.4557 0.34085 0.0
C1426 C 0.12522 0.42399 0.33693 0.0
C1427 C 0.12411 0.42169 0.35517 0.0
C1428 C 0.12523 0.43634 0.36614 0.0
H1429 H 0.14777 0.36184 0.43971 0.0
H1430 H 0.14742 0.37643 0.41148 0.0
C1431 C 0.12675 0.45308 0.35912 0.0
C1432 C 0.12182 0.40422 0.36333 0.0
H1433 H 0.09611 0.38423 0.39391 0.0
C1434 C 0.136 0.39254 0.36353 0.0
C1435 C 0.10678 0.40043 0.37347 0.0
C1436 C 0.09075 0.41199 0.37293 0.0
C1437 C 0.1362 0.3781 0.37498 0.0
C1438 C 0.12203 0.37557 0.38672 0.0
C1439 C 0.10711 0.38622 0.38513 0.0
C1440 C 0.12348 0.36415 0.40246 0.0
C1441 C 0.15193 0.36615 0.37488 0.0
C1442 C 0.11008 0.35233 0.407 0.0
C1443 C 0.11011 0.34403 0.42342 0.0
C1444 C 0.12345 0.34761 0.43563 0.0
C1445 C 0.13724 0.35881 0.43068 0.0
C1446 C 0.13719 0.36703 0.41437 0.0
H1447 H 0.15745 0.365 0.36146 0.0
H1448 H 0.16229 0.37179 0.38339 0.0
H1449 H 0.14861 0.35284 0.37975 0.0
H1450 H 0.09925 0.35003 0.3981 0.0
H1451 H 0.09929 0.33552 0.42684 0.0
H1452 H 0.63912 0.14721 0.44196 0.0
H1453 H 0.62416 0.14628 0.41389 0.0
H1454 H 0.65565 0.10202 0.39827 0.0
H1455 H 0.67053 0.10254 0.42683 0.0
H1456 H 0.6336 0.14802 0.37903 0.0
H1457 H 0.60611 0.08242 0.39591 0.0
H1458 H 0.61767 0.09552 0.4118 0.0
H1459 H 0.62955 0.08436 0.39483 0.0
C1460 C 0.64305 0.13733 0.43255 0.0
C1461 C 0.65581 0.12472 0.43681 0.0
C1462 C 0.63453 0.1369 0.41641 0.0
C1463 C 0.63855 0.12391 0.40406 0.0
C1464 C 0.6521 0.11197 0.40774 0.0
H1465 H 0.56149 0.1261 0.31567 0.0
H1466 H 0.59111 0.12408 0.32847 0.0
C1467 C 0.66065 0.11234 0.42403 0.0
C1468 C 0.62716 0.12217 0.38834 0.0
H1469 H 0.59322 0.09753 0.37274 0.0
C1470 C 0.62509 0.13677 0.37728 0.0
C1471 C 0.61602 0.10749 0.38613 0.0
C1472 C 0.61728 0.09156 0.39781 0.0
C1473 C 0.61133 0.13763 0.36504 0.0
C1474 C 0.59948 0.12348 0.36378 0.0
C1475 C 0.60243 0.10831 0.37374 0.0
C1476 C 0.58212 0.12551 0.35533 0.0
C1477 C 0.6086 0.15418 0.35461 0.0
C1478 C 0.56742 0.12714 0.36617 0.0
C1479 C 0.55071 0.12829 0.35901 0.0
C1480 C 0.54816 0.12784 0.34074 0.0
C1481 C 0.56297 0.12658 0.32978 0.0
C1482 C 0.57988 0.1254 0.33705 0.0
H1483 H 0.61913 0.16397 0.35695 0.0
H1484 H 0.60821 0.15103 0.34042 0.0
H1485 H 0.5958 0.16014 0.35814 0.0
H1486 H 0.56888 0.12732 0.3803 0.0
H1487 H 0.53975 0.12922 0.36797 0.0
H1488 H 0.85493 0.63859 0.44927 0.0
H1489 H 0.85408 0.62241 0.42185 0.0
H1490 H 0.89966 0.65041 0.40361 0.0
H1491 H 0.90084 0.6666 0.43143 0.0
H1492 H 0.85203 0.63126 0.38633 0.0
H1493 H 0.91547 0.59907 0.40308 0.0
H1494 H 0.90344 0.61194 0.41883 0.0
H1495 H 0.91541 0.62258 0.40159 0.0
C1496 C 0.86473 0.64149 0.43941 0.0
C1497 C 0.87816 0.6537 0.44269 0.0
C1498 C 0.86414 0.63228 0.42365 0.0
C1499 C 0.87694 0.63499 0.41077 0.0
C1500 C 0.8898 0.64791 0.4135 0.0
H1501 H 0.87028 0.5612 0.32029 0.0
H1502 H 0.87304 0.5897 0.33515 0.0
C1503 C 0.89041 0.6572 0.42936 0.0
C1504 C 0.87745 0.62302 0.39543 0.0
H1505 H 0.89954 0.58743 0.37972 0.0
C1506 C 0.86261 0.62193 0.38455 0.0
C1507 C 0.89122 0.61078 0.39325 0.0
C1508 C 0.90727 0.61097 0.40482 0.0
C1509 C 0.86074 0.60831 0.37227 0.0
C1510 C 0.87408 0.59557 0.37082 0.0
C1511 C 0.88938 0.5973 0.38087 0.0
C1512 C 0.8713 0.57888 0.3613 0.0
C1513 C 0.84403 0.60686 0.36183 0.0
C1514 C 0.86922 0.5635 0.37107 0.0
C1515 C 0.86763 0.54735 0.36274 0.0
C1516 C 0.86813 0.54613 0.34433 0.0
C1517 C 0.86974 0.56166 0.33446 0.0
C1518 C 0.87135 0.57794 0.34291 0.0
H1519 H 0.83461 0.61751 0.36496 0.0
H1520 H 0.84711 0.6074 0.34762 0.0
H1521 H 0.83766 0.59404 0.36445 0.0
H1522 H 0.86909 0.56396 0.38527 0.0
H1523 H 0.86642 0.53578 0.37085 0.0
H1524 H 0.33434 0.90324 0.42139 0.0
H1525 H 0.34875 0.90145 0.39267 0.0
H1526 H 0.37229 0.85228 0.40765 0.0
H1527 H 0.35778 0.85376 0.43591 0.0
H1528 H 0.38348 0.90197 0.38821 0.0
H1529 H 0.35885 0.84122 0.35821 0.0
H1530 H 0.34778 0.85165 0.37635 0.0
H1531 H 0.36581 0.83685 0.38019 0.0
C1532 C 0.34219 0.89181 0.41834 0.0
C1533 C 0.34496 0.87869 0.43099 0.0
C1534 C 0.35044 0.89082 0.40194 0.0
C1535 C 0.36142 0.8766 0.39785 0.0
C1536 C 0.36353 0.86315 0.41022 0.0
H1537 H 0.45499 0.84967 0.35481 0.0
H1538 H 0.42563 0.85233 0.36702 0.0
C1539 C 0.35535 0.86412 0.42652 0.0
C1540 C 0.37262 0.8767 0.38189 0.0
H1541 H 0.38913 0.84927 0.35058 0.0
C1542 C 0.38432 0.89071 0.37957 0.0
C1543 C 0.37371 0.86206 0.37053 0.0
C1544 C 0.3607 0.84721 0.37135 0.0
C1545 C 0.39807 0.88975 0.36737 0.0
C1546 C 0.40009 0.87441 0.35717 0.0
C1547 C 0.3876 0.86099 0.35848 0.0
C1548 C 0.41662 0.87092 0.34762 0.0
C1549 C 0.41121 0.90449 0.36644 0.0
C1550 C 0.42109 0.88002 0.33225 0.0
C1551 C 0.43797 0.87838 0.3251 0.0
C1552 C 0.45059 0.86784 0.33344 0.0
C1553 C 0.44566 0.85803 0.34822 0.0
C1554 C 0.42883 0.85948 0.35516 0.0
H1555 H 0.40813 0.91525 0.37576 0.0
H1556 H 0.42455 0.89945 0.36939 0.0
H1557 H 0.41145 0.90998 0.35297 0.0
H1558 H 0.41178 0.88888 0.32622 0.0
H1559 H 0.44142 0.88615 0.31375 0.0
H1560 H 0.13059 0.56203 0.69088 0.0
H1561 H 0.12782 0.592 0.67905 0.0
H1562 H 0.13101 0.57154 0.62651 0.0
H1563 H 0.13377 0.54207 0.63788 0.0
H1564 H 0.15184 0.61063 0.65157 0.0
H1565 H 0.08311 0.60014 0.63079 0.0
H1566 H 0.0933 0.5877 0.64821 0.0
H1567 H 0.09732 0.58207 0.62568 0.0
C1568 C 0.1309 0.56398 0.67682 0.0
C1569 C 0.13233 0.54956 0.66538 0.0
C1570 C 0.12928 0.58107 0.67011 0.0
C1571 C 0.12896 0.58388 0.65191 0.0
C1572 C 0.131 0.56961 0.64059 0.0
H1573 H 0.14969 0.64514 0.56765 0.0
H1574 H 0.15042 0.63034 0.59579 0.0
C1575 C 0.13264 0.55271 0.64719 0.0
C1576 C 0.12623 0.60144 0.64414 0.0
H1577 H 0.09967 0.62139 0.61427 0.0
C1578 C 0.14023 0.61333 0.64382 0.0
C1579 C 0.11097 0.6051 0.63429 0.0
C1580 C 0.09523 0.59316 0.63485 0.0
C1581 C 0.14 0.62793 0.63256 0.0
C1582 C 0.12557 0.6304 0.62113 0.0
C1583 C 0.11085 0.61947 0.62284 0.0
C1584 C 0.1265 0.64209 0.60556 0.0
C1585 C 0.15555 0.64011 0.63251 0.0
C1586 C 0.11279 0.65373 0.60149 0.0
C1587 C 0.11222 0.66214 0.58515 0.0
C1588 C 0.12525 0.65887 0.57253 0.0
C1589 C 0.1394 0.64794 0.57702 0.0
C1590 C 0.13996 0.63959 0.59327 0.0
H1591 H 0.16136 0.64112 0.64583 0.0
H1592 H 0.1658 0.63476 0.62368 0.0
H1593 H 0.15193 0.65343 0.62793 0.0
H1594 H 0.10216 0.65574 0.61069 0.0
H1595 H 0.10112 0.67045 0.58209 0.0
H1596 H 0.33318 0.1018 0.57394 0.0
H1597 H 0.34729 0.1026 0.60289 0.0
H1598 H 0.37739 0.14768 0.58687 0.0
H1599 H 0.36325 0.14724 0.55843 0.0
H1600 H 0.38112 0.09741 0.60832 0.0
H1601 H 0.36552 0.16213 0.63568 0.0
H1602 H 0.35313 0.15279 0.61779 0.0
H1603 H 0.373 0.16492 0.61362 0.0
C1604 C 0.34248 0.11213 0.57679 0.0
C1605 C 0.34717 0.12436 0.56382 0.0
C1606 C 0.35053 0.11258 0.59333 0.0
C1607 C 0.3632 0.1254 0.59722 0.0
C1608 C 0.36731 0.13799 0.58447 0.0
H1609 H 0.46246 0.12567 0.63204 0.0
H1610 H 0.43317 0.12328 0.62016 0.0
C1611 C 0.35934 0.13755 0.56805 0.0
C1612 C 0.37414 0.12433 0.61333 0.0
H1613 H 0.39513 0.15073 0.64279 0.0
C1614 C 0.38373 0.10891 0.61626 0.0
C1615 C 0.37743 0.13916 0.62402 0.0
C1616 C 0.36653 0.15559 0.62271 0.0
C1617 C 0.39775 0.10857 0.62814 0.0
C1618 C 0.40246 0.12409 0.6371 0.0
C1619 C 0.3917 0.13892 0.63567 0.0
C1620 C 0.42004 0.12599 0.64511 0.0
C1621 C 0.4082 0.09191 0.63014 0.0
C1622 C 0.42241 0.1289 0.66314 0.0
C1623 C 0.4394 0.13032 0.67014 0.0
C1624 C 0.45418 0.12903 0.65914 0.0
C1625 C 0.45153 0.12663 0.64103 0.0
C1626 C 0.43472 0.12516 0.63415 0.0
H1627 H 0.40003 0.0802 0.62728 0.0
H1628 H 0.41926 0.09205 0.62069 0.0
H1629 H 0.41367 0.09069 0.64357 0.0
H1630 H 0.41118 0.12977 0.67177 0.0
H1631 H 0.44096 0.13216 0.68413 0.0
H1632 H 0.87287 0.44359 0.68426 0.0
H1633 H 0.87481 0.41415 0.67118 0.0
H1634 H 0.87591 0.43714 0.6196 0.0
H1635 H 0.87397 0.46621 0.63224 0.0
H1636 H 0.8519 0.39776 0.64331 0.0
H1637 H 0.92119 0.40586 0.6235 0.0
H1638 H 0.91118 0.41878 0.64065 0.0
H1639 H 0.90784 0.42445 0.61801 0.0
C1640 C 0.87337 0.44234 0.67013 0.0
C1641 C 0.87335 0.45734 0.65935 0.0
C1642 C 0.87451 0.42553 0.66271 0.0
C1643 C 0.8758 0.42355 0.64446 0.0
C1644 C 0.87522 0.43842 0.63373 0.0
H1645 H 0.85434 0.36252 0.55943 0.0
H1646 H 0.85358 0.37778 0.58732 0.0
C1647 C 0.87404 0.45508 0.64105 0.0
C1648 C 0.87786 0.40615 0.63612 0.0
H1649 H 0.9041 0.38533 0.60659 0.0
C1650 C 0.86348 0.39473 0.63564 0.0
C1651 C 0.89309 0.40203 0.62643 0.0
C1652 C 0.90929 0.41334 0.62728 0.0
C1653 C 0.86336 0.38013 0.62439 0.0
C1654 C 0.87787 0.37716 0.61319 0.0
C1655 C 0.89288 0.38765 0.615 0.0
C1656 C 0.87683 0.3653 0.59777 0.0
C1657 C 0.84743 0.36845 0.62415 0.0
C1658 C 0.89017 0.35309 0.59421 0.0
C1659 C 0.89076 0.34439 0.57803 0.0
C1660 C 0.87813 0.34795 0.56508 0.0
C1661 C 0.86433 0.35949 0.56907 0.0
C1662 C 0.86374 0.36811 0.58516 0.0
H1663 H 0.8413 0.3678 0.63734 0.0
H1664 H 0.83757 0.374 0.61501 0.0
H1665 H 0.85073 0.35496 0.61983 0.0
H1666 H 0.90051 0.35083 0.60367 0.0
H1667 H 0.90158 0.33561 0.57535 0.0
H1668 H 0.54626 0.84931 0.64618 0.0
H1669 H 0.57556 0.85125 0.63364 0.0
H1670 H 0.59005 0.88914 0.67295 0.0
H1671 H 0.56058 0.88702 0.68581 0.0
H1672 H 0.59358 0.89956 0.63571 0.0
H1673 H 0.62587 0.8362 0.65011 0.0
H1674 H 0.60343 0.83416 0.64327 0.0
H1675 H 0.60846 0.84509 0.66352 0.0
C1676 C 0.55576 0.85776 0.65241 0.0
C1677 C 0.55107 0.86809 0.66689 0.0
C1678 C 0.57256 0.85877 0.64531 0.0
C1679 C 0.58501 0.87025 0.65243 0.0
C1680 C 0.58066 0.88008 0.66737 0.0
H1681 H 0.66929 0.90239 0.57931 0.0
H1682 H 0.65456 0.90052 0.60788 0.0
C1683 C 0.56385 0.87882 0.67472 0.0
C1684 C 0.60149 0.87344 0.64268 0.0
H1685 H 0.63604 0.85165 0.62452 0.0
C1686 C 0.60321 0.88932 0.63359 0.0
C1687 C 0.61393 0.86002 0.63996 0.0
C1688 C 0.61297 0.84294 0.64985 0.0
C1689 C 0.61613 0.89156 0.62065 0.0
C1690 C 0.62792 0.87766 0.61708 0.0
C1691 C 0.62701 0.8623 0.62721 0.0
C1692 C 0.63917 0.87763 0.60116 0.0
C1693 C 0.61603 0.90819 0.60993 0.0
C1694 C 0.63621 0.86484 0.58831 0.0
C1695 C 0.64475 0.86572 0.57219 0.0
C1696 C 0.65642 0.87949 0.56845 0.0
C1697 C 0.66027 0.89171 0.58172 0.0
C1698 C 0.65174 0.89074 0.59799 0.0
H1699 H 0.60419 0.91629 0.61244 0.0
H1700 H 0.62771 0.91616 0.6133 0.0
H1701 H 0.61658 0.90514 0.59571 0.0
H1702 H 0.62666 0.85455 0.59043 0.0
H1703 H 0.64161 0.85593 0.5624 0.0
H1704 H 0.35763 0.15222 0.45683 0.0
H1705 H 0.37013 0.15069 0.42751 0.0
H1706 H 0.33022 0.11373 0.41222 0.0
H1707 H 0.3174 0.11542 0.44176 0.0
H1708 H 0.36693 0.10279 0.40794 0.0
H1709 H 0.35395 0.16751 0.37792 0.0
H1710 H 0.36108 0.16883 0.40033 0.0
H1711 H 0.34053 0.15846 0.39524 0.0
C1712 C 0.35127 0.14404 0.44717 0.0
C1713 C 0.3366 0.13387 0.45163 0.0
C1714 C 0.35836 0.14328 0.43035 0.0
C1715 C 0.35102 0.13222 0.41765 0.0
C1716 C 0.33595 0.12249 0.4218 0.0
H1717 H 0.42398 0.10227 0.33239 0.0
H1718 H 0.39528 0.10402 0.34691 0.0
C1719 C 0.32864 0.1235 0.43864 0.0
C1720 C 0.36064 0.12937 0.40103 0.0
H1721 H 0.37955 0.15208 0.3675 0.0
C1722 C 0.36934 0.11334 0.39872 0.0
C1723 C 0.36372 0.14319 0.38911 0.0
C1724 C 0.3542 0.16043 0.39064 0.0
C1725 C 0.3823 0.11131 0.3858 0.0
C1726 C 0.38631 0.1256 0.37463 0.0
C1727 C 0.37652 0.14114 0.37606 0.0
C1728 C 0.40241 0.12577 0.36368 0.0
C1729 C 0.3926 0.09443 0.38523 0.0
C1730 C 0.41558 0.13797 0.36759 0.0
C1731 C 0.43179 0.13714 0.35923 0.0
C1732 C 0.43529 0.12403 0.34675 0.0
C1733 C 0.42175 0.11243 0.34203 0.0
C1734 C 0.4054 0.11333 0.35041 0.0
H1735 H 0.38962 0.08577 0.39656 0.0
H1736 H 0.38932 0.08719 0.37306 0.0
H1737 H 0.40689 0.09715 0.38515 0.0
H1738 H 0.4136 0.14773 0.37771 0.0
H1739 H 0.44181 0.14644 0.36306 0.0
H1740 H 0.87569 0.31546 0.43957 0.0
H1741 H 0.87787 0.32756 0.40969 0.0
H1742 H 0.87431 0.37987 0.43065 0.0
H1743 H 0.87214 0.36822 0.46008 0.0
H1744 H 0.85368 0.35359 0.39128 0.0
H1745 H 0.92129 0.37773 0.40148 0.0
H1746 H 0.91183 0.36027 0.41442 0.0
H1747 H 0.90695 0.38278 0.41946 0.0
C1748 C 0.8752 0.32952 0.43776 0.0
C1749 C 0.87383 0.34082 0.45231 0.0
C1750 C 0.87649 0.33639 0.42071 0.0
C1751 C 0.87654 0.35461 0.41806 0.0
C1752 C 0.87458 0.36579 0.43246 0.0
H1753 H 0.85176 0.43699 0.35553 0.0
H1754 H 0.85217 0.40891 0.37041 0.0
C1755 C 0.87326 0.35903 0.44933 0.0
C1756 C 0.87882 0.3625 0.40047 0.0
H1757 H 0.90391 0.39334 0.38013 0.0
C1758 C 0.86488 0.3619 0.38852 0.0
C1759 C 0.89358 0.37304 0.3967 0.0
C1760 C 0.90936 0.37339 0.40861 0.0
C1761 C 0.86459 0.37291 0.37374 0.0
C1762 C 0.87844 0.38502 0.37113 0.0
C1763 C 0.89316 0.38426 0.38215 0.0
C1764 C 0.87679 0.40033 0.35916 0.0
C1765 C 0.84913 0.37193 0.36148 0.0
C1766 C 0.89046 0.40502 0.34772 0.0
C1767 C 0.89038 0.42136 0.33928 0.0
C1768 C 0.8767 0.43333 0.34232 0.0
C1769 C 0.86255 0.42813 0.35292 0.0
C1770 C 0.86265 0.4119 0.36132 0.0
H1771 H 0.84412 0.35829 0.3606 0.0
H1772 H 0.83836 0.38021 0.36668 0.0
H1773 H 0.85256 0.37656 0.34811 0.0
H1774 H 0.90159 0.39639 0.34596 0.0
H1775 H 0.90149 0.42498 0.33123 0.0
H1776 H 0.55612 0.85411 0.36532 0.0
H1777 H 0.58404 0.85441 0.38062 0.0
H1778 H 0.60169 0.89717 0.34814 0.0
H1779 H 0.57332 0.89728 0.33288 0.0
H1780 H 0.61897 0.8511 0.37132 0.0
H1781 H 0.60428 0.91778 0.39738 0.0
H1782 H 0.58799 0.90497 0.38605 0.0
H1783 H 0.60534 0.91534 0.37398 0.0
C1784 C 0.56594 0.86353 0.36126 0.0
C1785 C 0.56233 0.87591 0.34808 0.0
C1786 C 0.58199 0.86359 0.36997 0.0
C1787 C 0.59487 0.87598 0.36574 0.0
C1788 C 0.5918 0.88768 0.35184 0.0
H1789 H 0.68436 0.8725 0.44129 0.0
H1790 H 0.67068 0.87395 0.41206 0.0
C1791 C 0.57562 0.88768 0.34308 0.0
C1792 C 0.61056 0.87738 0.37719 0.0
H1793 H 0.62714 0.9023 0.41045 0.0
C1794 C 0.62112 0.86247 0.37957 0.0
C1795 C 0.61327 0.89222 0.388 0.0
C1796 C 0.60211 0.90848 0.38639 0.0
C1797 C 0.63341 0.86154 0.39328 0.0
C1798 C 0.63524 0.87593 0.40475 0.0
C1799 C 0.6257 0.89132 0.40154 0.0
C1800 C 0.64411 0.8742 0.42194 0.0
C1801 C 0.64333 0.84473 0.39632 0.0
C1802 C 0.6337 0.87372 0.43703 0.0
C1803 C 0.64136 0.8729 0.45355 0.0
C1804 C 0.65971 0.87255 0.45548 0.0
C1805 C 0.6702 0.87265 0.44028 0.0
C1806 C 0.66243 0.8735 0.4236 0.0
H1807 H 0.6402 0.83459 0.38635 0.0
H1808 H 0.65763 0.84736 0.39595 0.0
H1809 H 0.64018 0.83945 0.40952 0.0
H1810 H 0.61954 0.87418 0.43603 0.0
H1811 H 0.63276 0.87286 0.46484 0.0
H1812 H 0.13453 0.63538 0.46838 0.0
H1813 H 0.13216 0.62243 0.43949 0.0
H1814 H 0.1253 0.67361 0.41662 0.0
H1815 H 0.12779 0.68701 0.44589 0.0
H1816 H 0.10092 0.6279 0.41709 0.0
H1817 H 0.16434 0.647 0.3863 0.0
H1818 H 0.16197 0.64604 0.40984 0.0
H1819 H 0.1514 0.66315 0.39773 0.0
C1820 C 0.13275 0.64406 0.4573 0.0
C1821 C 0.13135 0.66231 0.45956 0.0
C1822 C 0.13135 0.63655 0.44073 0.0
C1823 C 0.12853 0.64704 0.42595 0.0
C1824 C 0.12759 0.66532 0.42791 0.0
H1825 H 0.09907 0.5792 0.33674 0.0
H1826 H 0.10013 0.60677 0.35331 0.0
C1827 C 0.12903 0.67293 0.44462 0.0
C1828 C 0.12576 0.63828 0.40883 0.0
H1829 H 0.14762 0.6254 0.372 0.0
C1830 C 0.11088 0.62766 0.40695 0.0
C1831 C 0.13885 0.63799 0.39576 0.0
C1832 C 0.15511 0.6491 0.39736 0.0
C1833 C 0.10928 0.61582 0.39297 0.0
C1834 C 0.12283 0.61481 0.38033 0.0
C1835 C 0.1372 0.62628 0.38162 0.0
C1836 C 0.12368 0.60006 0.36765 0.0
C1837 C 0.09377 0.60351 0.39267 0.0
C1838 C 0.13708 0.58762 0.36946 0.0
C1839 C 0.13659 0.57201 0.35998 0.0
C1840 C 0.12265 0.56845 0.34843 0.0
C1841 C 0.10992 0.58148 0.34561 0.0
C1842 C 0.11045 0.5972 0.35515 0.0
H1843 H 0.08589 0.60427 0.40488 0.0
H1844 H 0.08511 0.60694 0.3815 0.0
H1845 H 0.0982 0.58977 0.39088 0.0
H1846 H 0.14746 0.58954 0.37897 0.0
H1847 H 0.14675 0.56238 0.36233 0.0
H1848 H 0.36939 0.86988 0.53459 0.0
H1849 H 0.38288 0.87198 0.56325 0.0
H1850 H 0.33203 0.87728 0.58726 0.0
H1851 H 0.31809 0.87508 0.55821 0.0
H1852 H 0.37732 0.90249 0.58672 0.0
H1853 H 0.35998 0.83775 0.61578 0.0
H1854 H 0.36038 0.84088 0.59231 0.0
H1855 H 0.34339 0.85081 0.60511 0.0
C1856 C 0.3609 0.87128 0.54587 0.0
C1857 C 0.34257 0.8723 0.54399 0.0
C1858 C 0.36871 0.87253 0.5623 0.0
C1859 C 0.35848 0.87482 0.57735 0.0
C1860 C 0.34014 0.87542 0.57577 0.0
H1861 H 0.42892 0.90115 0.66577 0.0
H1862 H 0.40097 0.90103 0.64976 0.0
C1863 C 0.33222 0.87414 0.55918 0.0
C1864 C 0.36755 0.8772 0.59436 0.0
H1865 H 0.38191 0.85416 0.6299 0.0
C1866 C 0.37801 0.89217 0.59648 0.0
C1867 C 0.36842 0.86365 0.60692 0.0
C1868 C 0.3575 0.84729 0.60506 0.0
C1869 C 0.39029 0.89341 0.61013 0.0
C1870 C 0.39193 0.87938 0.62217 0.0
C1871 C 0.38058 0.86493 0.62073 0.0
C1872 C 0.4072 0.87814 0.6342 0.0
C1873 C 0.40238 0.90907 0.61065 0.0
C1874 C 0.41956 0.86484 0.63142 0.0
C1875 C 0.43537 0.8648 0.64057 0.0
C1876 C 0.43925 0.87809 0.65275 0.0
C1877 C 0.42639 0.8908 0.65638 0.0
C1878 C 0.41046 0.89081 0.64718 0.0
H1879 H 0.40103 0.91748 0.59884 0.0
H1880 H 0.39927 0.91717 0.62232 0.0
H1881 H 0.41624 0.90479 0.61171 0.0
H1882 H 0.41734 0.8549 0.62152 0.0
H1883 H 0.44485 0.85466 0.63758 0.0
H1884 H 0.14999 0.4441 0.63854 0.0
H1885 H 0.15078 0.41643 0.6229 0.0
H1886 H 0.1082 0.39698 0.65459 0.0
H1887 H 0.1069 0.42516 0.6701 0.0
H1888 H 0.15575 0.38238 0.63166 0.0
H1889 H 0.08817 0.39235 0.60568 0.0
H1890 H 0.09976 0.40938 0.61724 0.0
H1891 H 0.09046 0.39129 0.62909 0.0
C1892 C 0.14083 0.43395 0.64235 0.0
C1893 C 0.12816 0.437 0.65539 0.0
C1894 C 0.14137 0.41805 0.63341 0.0
C1895 C 0.12934 0.40472 0.6373 0.0
C1896 C 0.11736 0.40723 0.65108 0.0
H1897 H 0.11928 0.31911 0.55925 0.0
H1898 H 0.11823 0.33212 0.58874 0.0
C1899 C 0.11672 0.42329 0.66003 0.0
C1900 C 0.12889 0.38893 0.62589 0.0
H1901 H 0.10486 0.36998 0.59317 0.0
C1902 C 0.14448 0.3794 0.62352 0.0
C1903 C 0.11417 0.38501 0.61525 0.0
C1904 C 0.0972 0.39507 0.61678 0.0
C1905 C 0.14611 0.36695 0.61007 0.0
C1906 C 0.13179 0.36392 0.59877 0.0
C1907 C 0.11578 0.37235 0.60196 0.0
C1908 C 0.13403 0.35463 0.58189 0.0
C1909 C 0.16341 0.35781 0.6074 0.0
C1910 C 0.14333 0.36293 0.56842 0.0
C1911 C 0.1437 0.35575 0.55163 0.0
C1912 C 0.13493 0.33998 0.54796 0.0
C1913 C 0.12626 0.33121 0.56169 0.0
C1914 C 0.12562 0.33863 0.57851 0.0
H1915 H 0.17156 0.35809 0.61946 0.0
H1916 H 0.16137 0.34397 0.60337 0.0
H1917 H 0.17076 0.36453 0.59679 0.0
H1918 H 0.14974 0.3754 0.57072 0.0
H1919 H 0.15052 0.36281 0.54142 0.0
H1920 H 0.55995 0.14795 0.63571 0.0
H1921 H 0.58814 0.14976 0.62105 0.0
H1922 H 0.60779 0.10749 0.65303 0.0
H1923 H 0.57917 0.10523 0.6676 0.0
H1924 H 0.62206 0.15551 0.63157 0.0
H1925 H 0.61442 0.0884 0.60371 0.0
H1926 H 0.59667 0.09948 0.61467 0.0
H1927 H 0.61435 0.09027 0.62718 0.0
C1928 C 0.57025 0.13908 0.63979 0.0
C1929 C 0.56717 0.12624 0.65266 0.0
C1930 C 0.58644 0.14021 0.63142 0.0
C1931 C 0.60001 0.12857 0.63569 0.0
C1932 C 0.59739 0.11638 0.64926 0.0
H1933 H 0.68633 0.11837 0.55913 0.0
H1934 H 0.673 0.11703 0.58846 0.0
C1935 C 0.58107 0.11519 0.65767 0.0
C1936 C 0.61621 0.12872 0.62487 0.0
H1937 H 0.63689 0.10582 0.59243 0.0
C1938 C 0.62556 0.14451 0.62329 0.0
C1939 C 0.62084 0.11434 0.61408 0.0
C1940 C 0.61103 0.09717 0.61483 0.0
C1941 C 0.63858 0.14666 0.61047 0.0
C1942 C 0.64231 0.13269 0.5989 0.0
C1943 C 0.634 0.11648 0.60136 0.0
C1944 C 0.6523 0.13545 0.58246 0.0
C1945 C 0.64769 0.16411 0.60885 0.0
C1946 C 0.64522 0.1464 0.56951 0.0
C1947 C 0.65262 0.14698 0.55282 0.0
C1948 C 0.66733 0.13672 0.54871 0.0
C1949 C 0.67507 0.12651 0.56196 0.0
C1950 C 0.66745 0.1257 0.57868 0.0
H1951 H 0.64766 0.17129 0.62151 0.0
H1952 H 0.66144 0.16247 0.60437 0.0
H1953 H 0.64066 0.17227 0.59907 0.0
H1954 H 0.63339 0.15383 0.57204 0.0
H1955 H 0.64643 0.15504 0.54296 0.0
H1956 H 0.8572 0.56516 0.64126 0.0
H1957 H 0.85646 0.5937 0.62714 0.0
H1958 H 0.9028 0.60924 0.65553 0.0
H1959 H 0.90391 0.58027 0.66956 0.0
H1960 H 0.85479 0.62814 0.63852 0.0
H1961 H 0.91798 0.61433 0.6045 0.0
H1962 H 0.90621 0.59757 0.61628 0.0
H1963 H 0.9182 0.61405 0.62805 0.0
C1964 C 0.86718 0.57465 0.6447 0.0
C1965 C 0.8808 0.5703 0.65635 0.0
C1966 C 0.86667 0.59104 0.63664 0.0
C1967 C 0.87973 0.60351 0.64002 0.0
C1968 C 0.89277 0.59968 0.65247 0.0
H1969 H 0.89263 0.68761 0.56191 0.0
H1970 H 0.89491 0.67457 0.59132 0.0
C1971 C 0.89332 0.58317 0.66057 0.0
C1972 C 0.88013 0.61977 0.6293 0.0
H1973 H 0.9018 0.6384 0.59485 0.0
C1974 C 0.86526 0.63063 0.62923 0.0
C1975 C 0.89381 0.62308 0.6172 0.0
C1976 C 0.90993 0.61164 0.61633 0.0
C1977 C 0.86322 0.64397 0.6167 0.0
C1978 C 0.87632 0.64641 0.60384 0.0
C1979 C 0.89179 0.6365 0.60475 0.0
C1980 C 0.87308 0.65683 0.58774 0.0
C1981 C 0.84672 0.65484 0.61687 0.0
C1982 C 0.85987 0.65143 0.57614 0.0
C1983 C 0.85868 0.6587 0.55942 0.0
C1984 C 0.87061 0.67158 0.55394 0.0
C1985 C 0.88314 0.67784 0.5659 0.0
C1986 C 0.8845 0.67036 0.58264 0.0
H1987 H 0.84115 0.65572 0.6303 0.0
H1988 H 0.8492 0.66829 0.61189 0.0
H1989 H 0.83677 0.64855 0.60834 0.0
H1990 H 0.85112 0.64081 0.57962 0.0
H1991 H 0.84887 0.6537 0.55049 0.0
H1992 H 0.36602 0.44213 0.14806 0.0
H1993 H 0.38132 0.41423 0.14803 0.0
H1994 H 0.34891 0.39621 0.10537 0.0
H1995 H 0.33365 0.42457 0.10498 0.0
H1996 H 0.37203 0.37945 0.15175 0.0
H1997 H 0.39809 0.39312 0.08484 0.0
H1998 H 0.38676 0.4096 0.09741 0.0
H1999 H 0.37469 0.39211 0.08728 0.0
C2000 C 0.36197 0.43224 0.13871 0.0
C2001 C 0.3488 0.43574 0.12629 0.0
C2002 C 0.37069 0.4162 0.13881 0.0
C2003 C 0.36648 0.40321 0.12653 0.0
C2004 C 0.3526 0.40618 0.11476 0.0
H2005 H 0.44207 0.31379 0.13176 0.0
H2006 H 0.41281 0.32738 0.12999 0.0
C2007 C 0.34384 0.42236 0.11462 0.0
C2008 C 0.3779 0.38747 0.12533 0.0
H2009 H 0.41111 0.37047 0.10064 0.0
C2010 C 0.38028 0.37713 0.1404 0.0
C2011 C 0.38869 0.38452 0.11053 0.0
C2012 C 0.38709 0.39544 0.0941 0.0
C2013 C 0.39398 0.36484 0.14152 0.0
C2014 C 0.40544 0.36278 0.12714 0.0
C2015 C 0.40221 0.37209 0.11161 0.0
C2016 C 0.42264 0.35396 0.12901 0.0
C2017 C 0.39702 0.35519 0.15848 0.0
C2018 C 0.43773 0.36439 0.12918 0.0
C2019 C 0.45426 0.35678 0.13017 0.0
C2020 C 0.45622 0.33845 0.13103 0.0
C2021 C 0.44104 0.32793 0.13123 0.0
C2022 C 0.42433 0.33566 0.1302 0.0
H2023 H 0.38711 0.35855 0.16861 0.0
H2024 H 0.39654 0.34085 0.15609 0.0
H2025 H 0.41025 0.35834 0.16366 0.0
H2026 H 0.43671 0.37853 0.12835 0.0
H2027 H 0.46552 0.3654 0.12996 0.0
H2028 H 0.44261 0.68737 0.88769 0.0
H2029 H 0.41282 0.67519 0.89005 0.0
H2030 H 0.42747 0.63282 0.8557 0.0
H2031 H 0.45697 0.64468 0.85344 0.0
H2032 H 0.39132 0.64954 0.85066 0.0
H2033 H 0.40765 0.62672 0.91821 0.0
H2034 H 0.4114 0.64923 0.9121 0.0
H2035 H 0.42474 0.63227 0.90283 0.0
C2036 C 0.43932 0.67569 0.88033 0.0
C2037 C 0.4522 0.66686 0.87053 0.0
C2038 C 0.42235 0.66873 0.88175 0.0
C2039 C 0.41804 0.65304 0.87315 0.0
C2040 C 0.43055 0.64493 0.86244 0.0
H2041 H 0.36114 0.56414 0.85618 0.0
H2042 H 0.37536 0.59255 0.85475 0.0
C2043 C 0.44745 0.6517 0.86122 0.0
C2044 C 0.40131 0.64377 0.8764 0.0
H2045 H 0.38375 0.6135 0.90423 0.0
C2046 C 0.38934 0.64202 0.86256 0.0
C2047 C 0.3987 0.63408 0.89198 0.0
C2048 C 0.41125 0.63554 0.9072 0.0
C2049 C 0.3755 0.62992 0.86344 0.0
C2050 C 0.37392 0.61897 0.87834 0.0
C2051 C 0.385 0.62181 0.89277 0.0
C2052 C 0.36302 0.60282 0.87815 0.0
C2053 C 0.36313 0.62852 0.84809 0.0
C2054 C 0.35135 0.59895 0.89188 0.0
C2055 C 0.34324 0.58247 0.89284 0.0
C2056 C 0.34688 0.56954 0.88021 0.0
C2057 C 0.35804 0.57375 0.86616 0.0
C2058 C 0.36606 0.59013 0.8652 0.0
H2059 H 0.36141 0.64145 0.84163 0.0
H2060 H 0.36875 0.61942 0.83823 0.0
H2061 H 0.35008 0.62352 0.85215 0.0
H2062 H 0.34895 0.60847 0.90212 0.0
H2063 H 0.33476 0.57962 0.90386 0.0
H2064 H 0.43966 0.36099 0.85401 0.0
H2065 H 0.41228 0.37723 0.8543 0.0
H2066 H 0.39502 0.34781 0.89937 0.0
H2067 H 0.42288 0.33168 0.8995 0.0
H2068 H 0.37689 0.37005 0.85294 0.0
H2069 H 0.39593 0.39778 0.91782 0.0
H2070 H 0.41093 0.38496 0.90486 0.0
H2071 H 0.39342 0.37442 0.91654 0.0
C2072 C 0.43 0.35775 0.86389 0.0
C2073 C 0.43364 0.34526 0.87697 0.0
C2074 C 0.41425 0.36701 0.86396 0.0
C2075 C 0.40172 0.36401 0.87705 0.0
C2076 C 0.40467 0.3506 0.88934 0.0
H2077 H 0.31573 0.44362 0.8754 0.0
H2078 H 0.32821 0.41387 0.87689 0.0
C2079 C 0.42055 0.34131 0.88934 0.0
C2080 C 0.38673 0.37636 0.87863 0.0
H2081 H 0.37291 0.41126 0.90299 0.0
C2082 C 0.37567 0.37879 0.86408 0.0
C2083 C 0.38523 0.38783 0.89315 0.0
C2084 C 0.39703 0.38628 0.90896 0.0
C2085 C 0.36403 0.39306 0.86318 0.0
C2086 C 0.36337 0.40508 0.87723 0.0
C2087 C 0.37344 0.40193 0.89229 0.0
C2088 C 0.35515 0.42257 0.87533 0.0
C2089 C 0.35351 0.39602 0.84672 0.0
C2090 C 0.36614 0.43717 0.87381 0.0
C2091 C 0.35916 0.45399 0.87297 0.0
C2092 C 0.34092 0.45671 0.87364 0.0
C2093 C 0.32981 0.442 0.87475 0.0
C2094 C 0.3369 0.42501 0.87562 0.0
H2095 H 0.35566 0.38555 0.83684 0.0
H2096 H 0.33935 0.39651 0.84998 0.0
H2097 H 0.35711 0.40883 0.84082 0.0
H2098 H 0.38025 0.43556 0.87351 0.0
H2099 H 0.36821 0.46488 0.87212 0.0
H2100 H 0.64072 0.43828 0.8509 0.0
H2101 H 0.62493 0.41067 0.85066 0.0
H2102 H 0.65582 0.39232 0.89431 0.0
H2103 H 0.67144 0.42045 0.89505 0.0
H2104 H 0.63214 0.37577 0.84774 0.0
H2105 H 0.60675 0.3915 0.91443 0.0
H2106 H 0.61905 0.40717 0.90177 0.0
H2107 H 0.63006 0.38917 0.91223 0.0
C2108 C 0.64437 0.42835 0.86037 0.0
C2109 C 0.6571 0.43176 0.87327 0.0
C2110 C 0.63537 0.41246 0.86012 0.0
C2111 C 0.63889 0.39953 0.8727 0.0
C2112 C 0.65259 0.40227 0.88472 0.0
H2113 H 0.55963 0.31331 0.86827 0.0
H2114 H 0.58939 0.32581 0.86963 0.0
C2115 C 0.6616 0.41831 0.88506 0.0
C2116 C 0.62676 0.38433 0.87409 0.0
H2117 H 0.59293 0.36906 0.89909 0.0
C2118 C 0.62384 0.37396 0.85913 0.0
C2119 C 0.61587 0.38204 0.88895 0.0
C2120 C 0.61793 0.39308 0.90524 0.0
C2121 C 0.60957 0.36231 0.85819 0.0
C2122 C 0.59811 0.36089 0.87265 0.0
C2123 C 0.60183 0.37019 0.88806 0.0
C2124 C 0.58055 0.35272 0.87102 0.0
C2125 C 0.60601 0.35267 0.84132 0.0
C2126 C 0.56584 0.36368 0.87126 0.0
C2127 C 0.54903 0.35669 0.87052 0.0
C2128 C 0.54639 0.33846 0.86951 0.0
C2129 C 0.56118 0.3274 0.86894 0.0
C2130 C 0.57817 0.3345 0.86972 0.0
H2131 H 0.61582 0.35575 0.83102 0.0
H2132 H 0.6062 0.33834 0.84377 0.0
H2133 H 0.59277 0.35611 0.83635 0.0
H2134 H 0.56738 0.37777 0.8722 0.0
H2135 H 0.53809 0.3657 0.87103 0.0
H2136 H 0.63358 0.53571 0.87183 0.0
H2137 H 0.62071 0.56457 0.87457 0.0
H2138 H 0.67201 0.58813 0.87261 0.0
H2139 H 0.68533 0.55886 0.86973 0.0
H2140 H 0.62924 0.58956 0.90256 0.0
H2141 H 0.64073 0.61479 0.83496 0.0
H2142 H 0.64094 0.59157 0.83953 0.0
H2143 H 0.65854 0.60513 0.84715 0.0
C2144 C 0.64228 0.54692 0.87182 0.0
C2145 C 0.66057 0.54486 0.8705 0.0
C2146 C 0.63483 0.56347 0.87346 0.0
C2147 C 0.64538 0.57846 0.87382 0.0
C2148 C 0.66364 0.57667 0.87226 0.0
H2149 H 0.57526 0.6672 0.90005 0.0
H2150 H 0.60366 0.65202 0.89926 0.0
C2151 C 0.6712 0.55996 0.8706 0.0
C2152 C 0.63674 0.5957 0.87612 0.0
H2153 H 0.62023 0.62978 0.85234 0.0
C2154 C 0.62761 0.5987 0.89179 0.0
C2155 C 0.6347 0.60749 0.862 0.0
C2156 C 0.64418 0.60471 0.84489 0.0
C2157 C 0.61532 0.61232 0.89325 0.0
C2158 C 0.61235 0.62343 0.87868 0.0
C2159 C 0.62257 0.62128 0.8635 0.0
C2160 C 0.59662 0.63488 0.87777 0.0
C2161 C 0.60457 0.61369 0.9098 0.0
C2162 C 0.5836 0.63092 0.86543 0.0
C2163 C 0.56754 0.6396 0.86575 0.0
C2164 C 0.56405 0.65248 0.87847 0.0
C2165 C 0.57747 0.65723 0.8902 0.0
C2166 C 0.59367 0.64851 0.88982 0.0
H2167 H 0.60692 0.60253 0.91886 0.0
H2168 H 0.60801 0.62596 0.91679 0.0
H2169 H 0.59037 0.61414 0.90663 0.0
H2170 H 0.58555 0.62049 0.85598 0.0
H2171 H 0.55764 0.63574 0.85634 0.0
H2172 H 0.67692 0.5817 0.13432 0.0
H2173 H 0.66113 0.60983 0.13607 0.0
H2174 H 0.61609 0.58601 0.11164 0.0
H2175 H 0.63156 0.5582 0.10987 0.0
H2176 H 0.62492 0.62147 0.09947 0.0
H2177 H 0.6194 0.61456 0.17205 0.0
H2178 H 0.64068 0.61341 0.16189 0.0
H2179 H 0.62515 0.59613 0.1584 0.0
C2180 C 0.66378 0.58262 0.12902 0.0
C2181 C 0.65542 0.56772 0.12211 0.0
C2182 C 0.65477 0.59864 0.13011 0.0
C2183 C 0.63739 0.59994 0.1241 0.0
C2184 C 0.62947 0.58531 0.11633 0.0
H2185 H 0.53893 0.63348 0.1383 0.0
H2186 H 0.56867 0.62234 0.13795 0.0
C2187 C 0.63833 0.56938 0.11541 0.0
C2188 C 0.62654 0.61579 0.12703 0.0
H2189 H 0.60006 0.63393 0.15819 0.0
C2190 C 0.61989 0.62469 0.11237 0.0
C2191 C 0.61995 0.61983 0.14388 0.0
C2192 C 0.62655 0.61052 0.16003 0.0
C2193 C 0.60586 0.63652 0.11395 0.0
C2194 C 0.59836 0.63949 0.13062 0.0
C2195 C 0.60594 0.63167 0.14545 0.0
C2196 C 0.5807 0.64737 0.13239 0.0
C2197 C 0.59811 0.64456 0.09763 0.0
C2198 C 0.57757 0.66531 0.12967 0.0
C2199 C 0.56037 0.67188 0.13001 0.0
C2200 C 0.54609 0.66054 0.13292 0.0
C2201 C 0.54949 0.64268 0.13607 0.0
C2202 C 0.56655 0.63623 0.13589 0.0
H2203 H 0.60528 0.64062 0.08559 0.0
H2204 H 0.58418 0.64057 0.09629 0.0
H2205 H 0.59846 0.65906 0.09869 0.0
H2206 H 0.58837 0.67412 0.12698 0.0
H2207 H 0.55823 0.68568 0.12747 0.0
H2208 H 0.31498 0.55659 0.11578 0.0
H2209 H 0.3279 0.58603 0.11309 0.0
H2210 H 0.36736 0.57212 0.15107 0.0
H2211 H 0.35464 0.54297 0.15375 0.0
H2212 H 0.35261 0.60835 0.15354 0.0
H2213 H 0.37707 0.58901 0.08739 0.0
H2214 H 0.35408 0.58681 0.09229 0.0
H2215 H 0.36966 0.57282 0.10297 0.0
C2216 C 0.32611 0.56002 0.12388 0.0
C2217 C 0.33396 0.54742 0.13482 0.0
C2218 C 0.33353 0.57677 0.12225 0.0
C2219 C 0.34871 0.58114 0.13173 0.0
C2220 C 0.35569 0.56899 0.1436 0.0
H2221 H 0.43871 0.63751 0.14842 0.0
H2222 H 0.4103 0.62324 0.1498 0.0
C2223 C 0.34845 0.55229 0.14506 0.0
C2224 C 0.35867 0.59744 0.12825 0.0
H2225 H 0.38986 0.61354 0.10053 0.0
C2226 C 0.36044 0.60978 0.14176 0.0
C2227 C 0.36879 0.59933 0.11283 0.0
C2228 C 0.36745 0.58632 0.09799 0.0
C2229 C 0.37284 0.62334 0.14071 0.0
C2230 C 0.38406 0.62428 0.12596 0.0
C2231 C 0.38132 0.61278 0.11186 0.0
C2232 C 0.40029 0.63507 0.12603 0.0
C2233 C 0.37422 0.63614 0.1557 0.0
C2234 C 0.4043 0.64645 0.1121 0.0
C2235 C 0.42076 0.65462 0.11119 0.0
C2236 C 0.43354 0.6513 0.12406 0.0
C2237 C 0.42922 0.64037 0.13825 0.0
C2238 C 0.41284 0.63231 0.13918 0.0
H2239 H 0.36126 0.63814 0.16203 0.0
H2240 H 0.38324 0.63076 0.16577 0.0
H2241 H 0.37933 0.64903 0.15129 0.0
H2242 H 0.39488 0.64863 0.1017 0.0
H2243 H 0.42371 0.66291 0.10005 0.0
H2244 H 0.63456 0.46288 0.13634 0.0
H2245 H 0.62218 0.43368 0.13454 0.0
H2246 H 0.67347 0.41211 0.12482 0.0
H2247 H 0.68626 0.44168 0.12673 0.0
H2248 H 0.62753 0.41201 0.10206 0.0
H2249 H 0.64834 0.38049 0.16458 0.0
H2250 H 0.64634 0.40402 0.16293 0.0
H2251 H 0.66378 0.393 0.15174 0.0
C2252 C 0.64338 0.45201 0.13412 0.0
C2253 C 0.66146 0.45473 0.13165 0.0
C2254 C 0.63622 0.43527 0.13306 0.0
C2255 C 0.64689 0.42078 0.12951 0.0
C2256 C 0.66504 0.42317 0.12767 0.0
H2257 H 0.57935 0.33163 0.09963 0.0
H2258 H 0.60696 0.34813 0.10059 0.0
C2259 C 0.67231 0.44006 0.12879 0.0
C2260 C 0.63838 0.40357 0.12664 0.0
H2261 H 0.62638 0.36626 0.14819 0.0
C2262 C 0.62759 0.40172 0.11188 0.0
C2263 C 0.63849 0.39033 0.13955 0.0
C2264 C 0.64982 0.3919 0.15566 0.0
C2265 C 0.61593 0.3876 0.11026 0.0
C2266 C 0.6153 0.37476 0.12366 0.0
C2267 C 0.62697 0.37603 0.13788 0.0
C2268 C 0.6007 0.36191 0.12459 0.0
C2269 C 0.60339 0.38736 0.09494 0.0
C2270 C 0.58855 0.36335 0.13829 0.0
C2271 C 0.57293 0.35387 0.13787 0.0
C2272 C 0.56907 0.34273 0.12369 0.0
C2273 C 0.58186 0.3402 0.11066 0.0
C2274 C 0.5976 0.3497 0.11114 0.0
H2275 H 0.60384 0.39972 0.08725 0.0
H2276 H 0.60687 0.37641 0.08604 0.0
H2277 H 0.58974 0.38529 0.09953 0.0
H2278 H 0.59066 0.37261 0.14885 0.0
H2279 H 0.5635 0.35598 0.14827 0.0
H2280 H 0.0779 0.36042 0.48653 0.0
H2281 H 0.04608 0.36496 0.48798 0.0
H2282 H 0.03993 0.31448 0.51257 0.0
H2283 H 0.07143 0.30983 0.51132 0.0
H2284 H 0.01929 0.34407 0.4732 0.0
H2285 H 0.01286 0.3474 0.5454 0.0
H2286 H 0.03362 0.34997 0.53431 0.0
H2287 H 0.02477 0.32845 0.53815 0.0
C2288 C 0.06979 0.35031 0.49231 0.0
C2289 C 0.07731 0.33478 0.49885 0.0
C2290 C 0.05161 0.35294 0.49313 0.0
C2291 C 0.04069 0.34019 0.50067 0.0
C2292 C 0.04814 0.32466 0.50706 0.0
H2293 H 0.93417 0.31099 0.48816 0.0
H2294 H 0.96571 0.31561 0.48731 0.0
C2295 C 0.06621 0.32199 0.5062 0.0
C2296 C 0.02139 0.34258 0.5013 0.0
H2297 H 0.98646 0.34146 0.52929 0.0
C2298 C 0.01211 0.34378 0.48547 0.0
C2299 C 0.01205 0.34244 0.51732 0.0
C2300 C 0.02134 0.34218 0.53477 0.0
C2301 C 0.9937 0.34386 0.4852 0.0
C2302 C 0.98436 0.3425 0.50117 0.0
C2303 C 0.99364 0.3423 0.51704 0.0
C2304 C 0.96506 0.34009 0.50159 0.0
C2305 C 0.98441 0.34516 0.46779 0.0
C2306 C 0.95419 0.3521 0.51032 0.0
C2307 C 0.93601 0.34947 0.51092 0.0
C2308 C 0.92842 0.33466 0.50294 0.0
C2309 C 0.93945 0.32258 0.4944 0.0
C2310 C 0.95754 0.32526 0.49377 0.0
H2311 H 0.99287 0.35134 0.45768 0.0
H2312 H 0.981 0.33179 0.4632 0.0
H2313 H 0.97211 0.35285 0.46896 0.0
H2314 H 0.95976 0.36356 0.51658 0.0
H2315 H 0.92795 0.35902 0.51763 0.0
H2316 H 0.68959 0.07454 0.52133 0.0
H2317 H 0.68664 0.04279 0.522 0.0
H2318 H 0.64863 0.04525 0.48022 0.0
H2319 H 0.65105 0.07734 0.47991 0.0
H2320 H 0.63948 0.021 0.50454 0.0
H2321 H 0.70897 0.01138 0.48631 0.0
H2322 H 0.70682 0.02412 0.50592 0.0
H2323 H 0.69853 0.03255 0.48548 0.0
C2324 C 0.68054 0.06839 0.51229 0.0
C2325 C 0.67071 0.07848 0.5004 0.0
C2326 C 0.67894 0.05019 0.51264 0.0
C2327 C 0.6678 0.04156 0.50083 0.0
C2328 C 0.65744 0.05161 0.48936 0.0
H2329 H 0.68273 0.93124 0.47837 0.0
H2330 H 0.67982 0.96298 0.47688 0.0
C2331 C 0.65884 0.06994 0.48918 0.0
C2332 C 0.66736 0.02208 0.5003 0.0
H2333 H 0.69382 0.9862 0.49684 0.0
C2334 C 0.65132 0.01336 0.50272 0.0
C2335 C 0.68276 0.01209 0.4976 0.0
C2336 C 0.7002 0.02052 0.49349 0.0
C2337 C 0.65036 0.99494 0.50292 0.0
C2338 C 0.66594 0.98498 0.50115 0.0
C2339 C 0.68188 0.99376 0.49841 0.0
C2340 C 0.66617 0.96546 0.50164 0.0
C2341 C 0.63262 0.98639 0.50467 0.0
C2342 C 0.65932 0.95611 0.51598 0.0
C2343 C 0.66071 0.9378 0.51672 0.0
C2344 C 0.66936 0.92856 0.50333 0.0
C2345 C 0.6761 0.93795 0.48897 0.0
C2346 C 0.67443 0.95613 0.4881 0.0
H2347 H 0.62195 0.99532 0.50037 0.0
H2348 H 0.63185 0.97414 0.49686 0.0
H2349 H 0.63027 0.98309 0.51864 0.0
H2350 H 0.65332 0.96298 0.52684 0.0
H2351 H 0.65552 0.93095 0.52802 0.0
H2352 H 0.93318 0.69756 0.51318 0.0
H2353 H 0.96467 0.69284 0.51445 0.0
H2354 H 0.95783 0.6401 0.49545 0.0
H2355 H 0.92601 0.64469 0.49399 0.0
H2356 H 0.98345 0.66709 0.53371 0.0
H2357 H 0.9946 0.66196 0.46178 0.0
H2358 H 0.97466 0.67089 0.47087 0.0
H2359 H 0.97833 0.64766 0.4711 0.0
C2360 C 0.93825 0.68493 0.50919 0.0
C2361 C 0.92695 0.67153 0.50338 0.0
C2362 C 0.95632 0.68225 0.51 0.0
C2363 C 0.96362 0.66618 0.50493 0.0
C2364 C 0.95248 0.65269 0.49921 0.0
H2365 H 0.07626 0.64668 0.52462 0.0
H2366 H 0.04439 0.64249 0.52372 0.0
C2367 C 0.93429 0.65533 0.49843 0.0
C2368 C 0.98293 0.66386 0.5057 0.0
H2369 H 0.01942 0.66054 0.47999 0.0
C2370 C 0.99133 0.66542 0.52201 0.0
C2371 C 0.99316 0.66183 0.49038 0.0
C2372 C 0.98483 0.6606 0.47249 0.0
C2373 C 0.00971 0.66549 0.52336 0.0
C2374 C 0.01994 0.66378 0.508 0.0
C2375 C 0.01153 0.66174 0.49175 0.0
C2376 C 0.03931 0.66574 0.50831 0.0
C2377 C 0.01803 0.66823 0.54109 0.0
C2378 C 0.04704 0.68002 0.49972 0.0
C2379 C 0.06516 0.68245 0.50018 0.0
C2380 C 0.07606 0.6706 0.50921 0.0
C2381 C 0.06829 0.65613 0.51764 0.0
C2382 C 0.05007 0.65373 0.51718 0.0
H2383 H 0.00832 0.67236 0.55112 0.0
H2384 H 0.02412 0.65579 0.54552 0.0
H2385 H 0.02851 0.6783 0.54031 0.0
H2386 H 0.03899 0.68945 0.49279 0.0
H2387 H 0.07059 0.69371 0.49345 0.0
H2388 H 0.30676 0.07093 0.49115 0.0
H2389 H 0.31109 0.03939 0.48974 0.0
H2390 H 0.36365 0.04543 0.5096 0.0
H2391 H 0.35942 0.07726 0.51124 0.0
H2392 H 0.33653 0.02043 0.47076 0.0
H2393 H 0.3413 0.00869 0.54261 0.0
H2394 H 0.33285 0.02888 0.53361 0.0
H2395 H 0.35601 0.02474 0.53357 0.0
C2396 C 0.31926 0.06566 0.49531 0.0
C2397 C 0.33271 0.07674 0.50143 0.0
C2398 C 0.32172 0.04757 0.49442 0.0
C2399 C 0.33763 0.04004 0.49968 0.0
C2400 C 0.35117 0.05096 0.5057 0.0
H2401 H 0.35687 0.92761 0.47908 0.0
H2402 H 0.36096 0.95947 0.48012 0.0
C2403 C 0.34874 0.06916 0.50658 0.0
C2404 C 0.33975 0.02072 0.49878 0.0
H2405 H 0.34299 0.98402 0.52421 0.0
C2406 C 0.33816 0.01245 0.48241 0.0
C2407 C 0.34173 0.01036 0.51403 0.0
C2408 C 0.34295 0.01853 0.532 0.0
C2409 C 0.33803 0.9941 0.48092 0.0
C2410 C 0.33975 0.98374 0.4962 0.0
C2411 C 0.3418 0.99201 0.51252 0.0
C2412 C 0.33781 0.96438 0.49574 0.0
C2413 C 0.33524 0.98593 0.46313 0.0
C2414 C 0.32363 0.95656 0.50441 0.0
C2415 C 0.32126 0.93844 0.50387 0.0
C2416 C 0.33308 0.92764 0.4947 0.0
C2417 C 0.34744 0.9355 0.48616 0.0
C2418 C 0.34978 0.95372 0.4867 0.0
H2419 H 0.33101 0.99572 0.45321 0.0
H2420 H 0.34769 0.97997 0.45858 0.0
H2421 H 0.32523 0.97539 0.46384 0.0
H2422 H 0.31423 0.96454 0.51146 0.0
H2423 H 0.31009 0.93293 0.51068 0.0
H2424 H 0.4908 0.9301 0.30582 0.0
H2425 H 0.48997 0.96165 0.31021 0.0
H2426 H 0.5103 0.9552 0.36253 0.0
H2427 H 0.51133 0.92334 0.35826 0.0
H2428 H 0.47167 0.98101 0.33607 0.0
H2429 H 0.54384 0.99122 0.33951 0.0
H2430 H 0.53426 0.97128 0.33112 0.0
H2431 H 0.53471 0.97529 0.35429 0.0
C2432 C 0.49516 0.93527 0.3183 0.0
C2433 C 0.50124 0.92408 0.33166 0.0
C2434 C 0.49461 0.95338 0.32078 0.0
C2435 C 0.50019 0.9608 0.33663 0.0
C2436 C 0.50614 0.94975 0.3501 0.0
H2437 H 0.48239 0.07342 0.35691 0.0
H2438 H 0.4829 0.04151 0.36065 0.0
C2439 C 0.50668 0.93154 0.34765 0.0
C2440 C 0.49974 0.98013 0.33875 0.0
H2441 H 0.526 0.01628 0.34151 0.0
C2442 C 0.48352 0.98874 0.33748 0.0
C2443 C 0.51524 0.99016 0.34042 0.0
C2444 C 0.53305 0.98161 0.3413 0.0
C2445 C 0.48241 0.00712 0.3374 0.0
C2446 C 0.49793 0.01715 0.33883 0.0
C2447 C 0.51411 0.00854 0.34053 0.0
C2448 C 0.49782 0.03653 0.33706 0.0
C2449 C 0.46474 0.01567 0.335 0.0
C2450 C 0.50628 0.04433 0.32274 0.0
C2451 C 0.50604 0.06249 0.32056 0.0
C2452 C 0.49739 0.07334 0.33273 0.0
C2453 C 0.48908 0.06549 0.34722 0.0
C2454 C 0.48931 0.04725 0.34937 0.0
H2455 H 0.45454 0.00611 0.33093 0.0
H2456 H 0.46056 0.02167 0.34757 0.0
H2457 H 0.46547 0.02624 0.32502 0.0
H2458 H 0.51293 0.03631 0.31309 0.0
H2459 H 0.51266 0.06798 0.30927 0.0
H2460 H 0.92825 0.51298 0.3072 0.0
H2461 H 0.95994 0.5142 0.31066 0.0
H2462 H 0.95604 0.48506 0.35892 0.0
H2463 H 0.92415 0.48347 0.35545 0.0
H2464 H 0.97969 0.52864 0.33742 0.0
H2465 H 0.99237 0.45717 0.33106 0.0
H2466 H 0.97163 0.46694 0.32526 0.0
H2467 H 0.97705 0.46326 0.34787 0.0
C2468 C 0.93404 0.50671 0.31853 0.0
C2469 C 0.92356 0.49798 0.33097 0.0
C2470 C 0.95221 0.50749 0.32052 0.0
C2471 C 0.96039 0.49958 0.33494 0.0
C2472 C 0.95003 0.491 0.34752 0.0
H2473 H 0.07239 0.51913 0.35694 0.0
H2474 H 0.04045 0.5176 0.36015 0.0
C2475 C 0.93179 0.49016 0.34553 0.0
C2476 C 0.97977 0.50044 0.33665 0.0
H2477 H 0.01682 0.47531 0.33625 0.0
C2478 C 0.98783 0.51698 0.3373 0.0
C2479 C 0.99035 0.48522 0.33635 0.0
C2480 C 0.98248 0.46713 0.33495 0.0
C2481 C 0.00617 0.51874 0.33731 0.0
C2482 C 0.01674 0.50351 0.33695 0.0
C2483 C 0.00868 0.48696 0.33665 0.0
C2484 C 0.03613 0.50444 0.3354 0.0
C2485 C 0.01406 0.53686 0.33697 0.0
C2486 C 0.04433 0.49728 0.3206 0.0
C2487 C 0.0625 0.49804 0.31877 0.0
C2488 C 0.07299 0.50597 0.33173 0.0
C2489 C 0.06475 0.51307 0.34663 0.0
C2490 C 0.04648 0.51226 0.34847 0.0
H2491 H 0.0042 0.54704 0.33361 0.0
H2492 H 0.01947 0.53998 0.3501 0.0
H2493 H 0.02494 0.53757 0.32733 0.0
H2494 H 0.03662 0.49117 0.31036 0.0
H2495 H 0.0683 0.49234 0.30713 0.0
H2496 H 0.52318 0.92922 0.68754 0.0
H2497 H 0.52351 0.96098 0.68476 0.0
H2498 H 0.48051 0.9584 0.64815 0.0
H2499 H 0.48057 0.92627 0.65037 0.0
H2500 H 0.50405 0.98294 0.63836 0.0
H2501 H 0.48854 0.99197 0.70855 0.0
H2502 H 0.50818 0.97943 0.70564 0.0
H2503 H 0.48753 0.97084 0.69804 0.0
C2504 C 0.51381 0.93535 0.67884 0.0
C2505 C 0.50168 0.92522 0.66935 0.0
C2506 C 0.51395 0.95356 0.67734 0.0
C2507 C 0.50169 0.96215 0.66666 0.0
C2508 C 0.48999 0.95207 0.65661 0.0
H2509 H 0.4796 0.07243 0.68316 0.0
H2510 H 0.47814 0.04067 0.68043 0.0
C2511 C 0.49003 0.93373 0.65788 0.0
C2512 C 0.50099 0.98163 0.66638 0.0
H2513 H 0.49855 0.0173 0.69324 0.0
C2514 C 0.50269 0.99048 0.65033 0.0
C2515 C 0.49888 0.9915 0.68196 0.0
C2516 C 0.49548 0.98294 0.69948 0.0
C2517 C 0.5028 0.00891 0.64949 0.0
C2518 C 0.50169 0.01875 0.66521 0.0
C2519 C 0.49962 0.00984 0.68119 0.0
C2520 C 0.50219 0.03827 0.66556 0.0
C2521 C 0.50372 0.01759 0.63175 0.0
C2522 C 0.51616 0.04766 0.65804 0.0
C2523 C 0.51687 0.06597 0.65933 0.0
C2524 C 0.50385 0.07518 0.66855 0.0
C2525 C 0.48992 0.06575 0.67607 0.0
C2526 C 0.48906 0.04755 0.6745 0.0
H2527 H 0.4989 0.00874 0.62124 0.0
H2528 H 0.4959 0.02985 0.63143 0.0
H2529 H 0.51757 0.02087 0.62876 0.0
H2530 H 0.52674 0.04083 0.65151 0.0
H2531 H 0.52784 0.07286 0.65351 0.0
H2532 H 0.92965 0.52084 0.6459 0.0
H2533 H 0.96153 0.51893 0.64249 0.0
H2534 H 0.96502 0.48955 0.69063 0.0
H2535 H 0.93335 0.49117 0.69409 0.0
H2536 H 0.98774 0.53092 0.66474 0.0
H2537 H 0.99261 0.45902 0.65645 0.0
H2538 H 0.97213 0.47072 0.65444 0.0
H2539 H 0.98061 0.46513 0.67573 0.0
C2540 C 0.93718 0.51393 0.65574 0.0
C2541 C 0.92885 0.50613 0.67025 0.0
C2542 C 0.95541 0.51284 0.65376 0.0
C2543 C 0.96562 0.50381 0.66613 0.0
C2544 C 0.95737 0.49622 0.68069 0.0
H2545 H 0.07275 0.51253 0.69629 0.0
H2546 H 0.04117 0.51397 0.69216 0.0
C2547 C 0.93922 0.49729 0.68271 0.0
C2548 C 0.98497 0.50285 0.66431 0.0
H2549 H 0.01926 0.47405 0.66379 0.0
C2550 C 0.99463 0.5185 0.66431 0.0
C2551 C 0.99396 0.48664 0.66345 0.0
C2552 C 0.9843 0.46943 0.66233 0.0
C2553 C 0.01304 0.51834 0.66435 0.0
C2554 C 0.02202 0.50211 0.66466 0.0
C2555 C 0.01237 0.48648 0.66377 0.0
C2556 C 0.04132 0.5011 0.66691 0.0
C2557 C 0.02272 0.53558 0.6642 0.0
C2558 C 0.05192 0.49289 0.6543 0.0
C2559 C 0.07011 0.49191 0.65665 0.0
C2560 C 0.07801 0.49901 0.67175 0.0
C2561 C 0.06723 0.50697 0.68445 0.0
C2562 C 0.04913 0.50794 0.68207 0.0
H2563 H 0.01451 0.54626 0.65866 0.0
H2564 H 0.02617 0.53924 0.67785 0.0
H2565 H 0.03502 0.53465 0.65648 0.0
H2566 H 0.04612 0.48738 0.64257 0.0
H2567 H 0.07797 0.48568 0.64661 0.0
H2568 H 0.35721 0.52129 0.92972 0.0
H2569 H 0.3613 0.51944 0.96156 0.0
H2570 H 0.31416 0.48862 0.9659 0.0
H2571 H 0.30997 0.49027 0.93432 0.0
H2572 H 0.33819 0.53067 0.98831 0.0
H2573 H 0.35062 0.4593 0.99271 0.0
H2574 H 0.35214 0.47129 0.97235 0.0
H2575 H 0.33112 0.46457 0.98064 0.0
C2576 C 0.34774 0.51407 0.93744 0.0
C2577 C 0.33328 0.5059 0.92937 0.0
C2578 C 0.35011 0.51302 0.95563 0.0
C2579 C 0.33821 0.50363 0.96605 0.0
C2580 C 0.32373 0.49561 0.95808 0.0
H2581 H 0.30658 0.50872 0.07244 0.0
H2582 H 0.31127 0.51081 0.04099 0.0
C2583 C 0.32129 0.49669 0.93997 0.0
C2584 C 0.34036 0.5027 0.98538 0.0
H2585 H 0.34271 0.47377 0.01949 0.0
C2586 C 0.33943 0.51826 0.99512 0.0
C2587 C 0.34224 0.48652 0.99426 0.0
C2588 C 0.34427 0.46948 0.98446 0.0
C2589 C 0.33938 0.51798 0.01354 0.0
C2590 C 0.3401 0.50171 0.02241 0.0
C2591 C 0.34199 0.48622 0.01267 0.0
C2592 C 0.33763 0.50043 0.04166 0.0
C2593 C 0.33829 0.5351 0.02335 0.0
C2594 C 0.35076 0.49345 0.05252 0.0
C2595 C 0.34813 0.49218 0.07067 0.0
C2596 C 0.33222 0.49768 0.07824 0.0
C2597 C 0.31904 0.50441 0.06719 0.0
C2598 C 0.32172 0.50573 0.04915 0.0
H2599 H 0.34294 0.54624 0.0152 0.0
H2600 H 0.32443 0.53767 0.02694 0.0
H2601 H 0.34615 0.53464 0.0356 0.0
H2602 H 0.36309 0.48913 0.04696 0.0
H2603 H 0.35856 0.48691 0.07874 0.0
H2604 H 0.52021 0.31081 0.92799 0.0
H2605 H 0.52143 0.31255 0.95982 0.0
H2606 H 0.47665 0.34704 0.95985 0.0
H2607 H 0.47571 0.34588 0.92773 0.0
H2608 H 0.50085 0.35771 0.98325 0.0
H2609 H 0.48926 0.28672 0.99222 0.0
H2610 H 0.50816 0.29086 0.9789 0.0
H2611 H 0.48678 0.29736 0.97127 0.0
C2612 C 0.51058 0.31878 0.93471 0.0
C2613 C 0.49772 0.32805 0.92528 0.0
C2614 C 0.51125 0.31968 0.95296 0.0
C2615 C 0.49886 0.32954 0.9623 0.0
C2616 C 0.48628 0.33922 0.95294 0.0
H2617 H 0.48013 0.31198 0.07289 0.0
H2618 H 0.47821 0.31455 0.04116 0.0
C2619 C 0.48573 0.33853 0.93459 0.0
C2620 C 0.49904 0.32959 0.98181 0.0
H2621 H 0.49902 0.30243 0.01736 0.0
C2622 C 0.50032 0.34564 0.99074 0.0
C2623 C 0.49807 0.31386 0.99161 0.0
C2624 C 0.4953 0.29626 0.98302 0.0
C2625 C 0.50099 0.34636 0.00916 0.0
C2626 C 0.50088 0.33056 0.01891 0.0
C2627 C 0.49933 0.31455 0.00995 0.0
C2628 C 0.50174 0.33015 0.03842 0.0
C2629 C 0.5014 0.36407 0.01794 0.0
C2630 C 0.5156 0.33813 0.04761 0.0
C2631 C 0.51659 0.3369 0.06592 0.0
C2632 C 0.50396 0.32733 0.07534 0.0
C2633 C 0.49015 0.31936 0.06608 0.0
C2634 C 0.48902 0.32083 0.04789 0.0
H2635 H 0.49609 0.37447 0.00925 0.0
H2636 H 0.49375 0.364 0.03032 0.0
H2637 H 0.51518 0.36752 0.02107 0.0
H2638 H 0.52586 0.34499 0.04062 0.0
H2639 H 0.52747 0.34306 0.07265 0.0
H2640 H 0.64894 0.47874 0.9245 0.0
H2641 H 0.64608 0.4799 0.95648 0.0
H2642 H 0.69379 0.50996 0.95978 0.0
H2643 H 0.69674 0.50906 0.92802 0.0
H2644 H 0.66944 0.46816 0.98266 0.0
H2645 H 0.65853 0.53981 0.98732 0.0
H2646 H 0.65656 0.52792 0.96696 0.0
H2647 H 0.6778 0.53408 0.97511 0.0
C2648 C 0.65884 0.4856 0.93202 0.0
C2649 C 0.67304 0.49387 0.92361 0.0
C2650 C 0.65716 0.48625 0.9503 0.0
C2651 C 0.66955 0.49529 0.96047 0.0
C2652 C 0.68387 0.50325 0.95216 0.0
H2653 H 0.6972 0.48858 0.06928 0.0
H2654 H 0.69461 0.48632 0.03753 0.0
C2655 C 0.68558 0.5026 0.93396 0.0
C2656 C 0.66782 0.49618 0.97983 0.0
H2657 H 0.6656 0.52501 0.014 0.0
C2658 C 0.66842 0.48057 0.98952 0.0
C2659 C 0.66624 0.51236 0.98875 0.0
C2660 C 0.66457 0.52949 0.97901 0.0
C2661 C 0.6682 0.48076 0.00794 0.0
C2662 C 0.66758 0.49701 0.01687 0.0
C2663 C 0.66626 0.51257 0.00715 0.0
C2664 C 0.6689 0.49819 0.03625 0.0
C2665 C 0.66863 0.46356 0.01768 0.0
C2666 C 0.65548 0.50603 0.04609 0.0
C2667 C 0.65694 0.50748 0.06433 0.0
C2668 C 0.67196 0.50123 0.07306 0.0
C2669 C 0.68542 0.4935 0.06308 0.0
C2670 C 0.68392 0.49206 0.04489 0.0
H2671 H 0.66398 0.45257 0.00933 0.0
H2672 H 0.68232 0.46066 0.02165 0.0
H2673 H 0.66043 0.46411 0.02968 0.0
H2674 H 0.64382 0.51096 0.03965 0.0
H2675 H 0.64631 0.5135 0.07155 0.0
H2676 H 0.51353 0.64148 0.92586 0.0
H2677 H 0.5119 0.63631 0.95758 0.0
H2678 H 0.48948 0.68764 0.96485 0.0
H2679 H 0.49096 0.69294 0.93346 0.0
H2680 H 0.52749 0.65636 0.98502 0.0
H2681 H 0.45515 0.65507 0.9909 0.0
H2682 H 0.46632 0.65241 0.97019 0.0
H2683 H 0.46316 0.67392 0.97931 0.0
C2684 C 0.50821 0.65165 0.9342 0.0
C2685 C 0.50234 0.66761 0.92702 0.0
C2686 C 0.50728 0.64866 0.95232 0.0
C2687 C 0.50028 0.66147 0.96352 0.0
C2688 C 0.49458 0.67742 0.95641 0.0
H2689 H 0.51225 0.6887 0.07045 0.0
H2690 H 0.51349 0.68432 0.0389 0.0
C2691 C 0.49556 0.68046 0.93841 0.0
C2692 C 0.49946 0.65866 0.98276 0.0
H2693 H 0.47126 0.6598 0.01751 0.0
C2694 C 0.51519 0.65683 0.99211 0.0
C2695 C 0.48338 0.65904 0.992 0.0
C2696 C 0.46602 0.66004 0.98258 0.0
C2697 C 0.51532 0.65636 0.01053 0.0
C2698 C 0.49932 0.65794 0.01979 0.0
C2699 C 0.48353 0.65877 0.01041 0.0
C2700 C 0.49883 0.66007 0.03913 0.0
C2701 C 0.53261 0.65447 0.01992 0.0
C2702 C 0.48981 0.64806 0.04978 0.0
C2703 C 0.48901 0.65054 0.06797 0.0
C2704 C 0.49704 0.66519 0.0758 0.0
C2705 C 0.50594 0.67722 0.06498 0.0
C2706 C 0.50679 0.67469 0.04689 0.0
H2707 H 0.54266 0.64827 0.0114 0.0
H2708 H 0.53747 0.66765 0.02368 0.0
H2709 H 0.53117 0.64653 0.03203 0.0
H2710 H 0.48344 0.63677 0.04401 0.0
H2711 H 0.48202 0.64103 0.07586 0.0
H2712 H 0.1673 0.26787 0.52767 0.0
H2713 H 0.19145 0.2468 0.52688 0.0
H2714 H 0.21514 0.27582 0.48442 0.0
H2715 H 0.19183 0.29775 0.48647 0.0
H2716 H 0.20038 0.22506 0.50521 0.0
H2717 H 0.25792 0.26834 0.51088 0.0
H2718 H 0.23598 0.27638 0.51411 0.0
H2719 H 0.24508 0.27472 0.49232 0.0
C2720 C 0.17792 0.26988 0.51846 0.0
C2721 C 0.17791 0.28447 0.5073 0.0
C2722 C 0.19169 0.2578 0.51792 0.0
C2723 C 0.20547 0.25975 0.5058 0.0
C2724 C 0.20521 0.27427 0.49441 0.0
H2725 H 0.26504 0.16699 0.47517 0.0
H2726 H 0.24397 0.19105 0.47742 0.0
C2727 C 0.19177 0.28673 0.49544 0.0
C2728 C 0.21936 0.24599 0.50439 0.0
H2729 H 0.26341 0.23953 0.49946 0.0
C2730 C 0.21418 0.2283 0.50422 0.0
C2731 C 0.23749 0.24997 0.50337 0.0
C2732 C 0.24443 0.26838 0.50539 0.0
C2733 C 0.22642 0.21463 0.50297 0.0
C2734 C 0.24441 0.21865 0.50057 0.0
C2735 C 0.24965 0.23632 0.50095 0.0
C2736 C 0.25799 0.20478 0.49798 0.0
C2737 C 0.21984 0.19606 0.5049 0.0
C2738 C 0.27365 0.20505 0.50775 0.0
C2739 C 0.28614 0.19174 0.50576 0.0
C2740 C 0.283 0.17772 0.4943 0.0
C2741 C 0.26761 0.1776 0.48425 0.0
C2742 C 0.25546 0.19123 0.48573 0.0
H2743 H 0.20768 0.19558 0.5129 0.0
H2744 H 0.21659 0.19072 0.49178 0.0
H2745 H 0.22975 0.18747 0.51119 0.0
H2746 H 0.27608 0.21534 0.51721 0.0
H2747 H 0.29792 0.19205 0.51369 0.0
H2748 H 0.74318 0.16331 0.49465 0.0
H2749 H 0.76373 0.1877 0.49192 0.0
H2750 H 0.72487 0.22304 0.5127 0.0
H2751 H 0.70406 0.19865 0.51543 0.0
H2752 H 0.75796 0.22129 0.47259 0.0
H2753 H 0.77051 0.22885 0.54412 0.0
H2754 H 0.76182 0.20887 0.53487 0.0
H2755 H 0.74804 0.22779 0.53697 0.0
C2756 C 0.73895 0.17625 0.49868 0.0
C2757 C 0.72198 0.17899 0.50537 0.0
C2758 C 0.75072 0.19018 0.49705 0.0
C2759 C 0.74586 0.20713 0.50221 0.0
C2760 C 0.72891 0.21001 0.50878 0.0
H2761 H 0.80829 0.30224 0.48313 0.0
H2762 H 0.78374 0.28158 0.48555 0.0
C2763 C 0.71704 0.19607 0.5103 0.0
C2764 C 0.75868 0.22166 0.50077 0.0
H2765 H 0.78572 0.24779 0.52508 0.0
C2766 C 0.76392 0.22723 0.48404 0.0
C2767 C 0.7665 0.22924 0.51576 0.0
C2768 C 0.76158 0.22339 0.53399 0.0
C2769 C 0.77693 0.2401 0.48191 0.0
C2770 C 0.78487 0.24756 0.4969 0.0
C2771 C 0.77951 0.24211 0.51363 0.0
C2772 C 0.79955 0.26023 0.49545 0.0
C2773 C 0.78253 0.24526 0.46367 0.0
C2774 C 0.81649 0.2551 0.50035 0.0
C2775 C 0.83052 0.26678 0.4989 0.0
C2776 C 0.82786 0.28394 0.49265 0.0
C2777 C 0.8108 0.28911 0.48792 0.0
C2778 C 0.79677 0.27733 0.48926 0.0
H2779 H 0.77678 0.23659 0.45349 0.0
H2780 H 0.77827 0.25891 0.461 0.0
H2781 H 0.79704 0.24486 0.46254 0.0
H2782 H 0.81889 0.24196 0.50519 0.0
H2783 H 0.84344 0.26236 0.50277 0.0
H2784 H 0.84323 0.74689 0.50643 0.0
H2785 H 0.8188 0.76744 0.50431 0.0
H2786 H 0.78217 0.72497 0.51106 0.0
H2787 H 0.80663 0.70417 0.51315 0.0
H2788 H 0.77424 0.74893 0.48264 0.0
H2789 H 0.78702 0.78362 0.54524 0.0
H2790 H 0.80582 0.7817 0.53121 0.0
H2791 H 0.7961 0.76231 0.54039 0.0
C2792 C 0.83 0.74187 0.50754 0.0
C2793 C 0.82691 0.72386 0.51008 0.0
C2794 C 0.81604 0.75367 0.5064 0.0
C2795 C 0.79868 0.74778 0.50777 0.0
C2796 C 0.79549 0.7298 0.51008 0.0
H2797 H 0.70013 0.80696 0.49629 0.0
H2798 H 0.72143 0.78314 0.49967 0.0
C2799 C 0.80948 0.71795 0.51133 0.0
C2800 C 0.78396 0.76046 0.50647 0.0
H2801 H 0.76696 0.79716 0.5256 0.0
C2802 C 0.77249 0.75938 0.49211 0.0
C2803 C 0.78173 0.77407 0.51884 0.0
C2804 C 0.79321 0.77547 0.53489 0.0
C2805 C 0.75929 0.77198 0.48943 0.0
C2806 C 0.7573 0.78582 0.50163 0.0
C2807 C 0.76852 0.78661 0.51621 0.0
C2808 C 0.74419 0.80007 0.49922 0.0
C2809 C 0.74808 0.77076 0.47319 0.0
C2810 C 0.74983 0.81755 0.49818 0.0
C2811 C 0.73771 0.83117 0.49641 0.0
C2812 C 0.71962 0.82765 0.49565 0.0
C2813 C 0.71397 0.81013 0.49666 0.0
C2814 C 0.72614 0.79648 0.49851 0.0
H2815 H 0.75401 0.76204 0.46315 0.0
H2816 H 0.73508 0.7653 0.47675 0.0
H2817 H 0.746 0.7839 0.4673 0.0
H2818 H 0.76367 0.82067 0.49874 0.0
H2819 H 0.74257 0.84449 0.49569 0.0
H2820 H 0.16026 0.74428 0.49992 0.0
H2821 H 0.18453 0.76502 0.50167 0.0
H2822 H 0.22146 0.72234 0.49895 0.0
H2823 H 0.19718 0.70141 0.4969 0.0
H2824 H 0.21026 0.76732 0.52684 0.0
H2825 H 0.23996 0.75554 0.4614 0.0
H2826 H 0.21834 0.74781 0.4671 0.0
H2827 H 0.23742 0.73634 0.47477 0.0
C2828 C 0.17353 0.73925 0.49956 0.0
C2829 C 0.17674 0.72114 0.49816 0.0
C2830 C 0.18741 0.75116 0.5006 0.0
C2831 C 0.20484 0.7453 0.50022 0.0
C2832 C 0.20814 0.72723 0.49889 0.0
H2833 H 0.30251 0.80629 0.50671 0.0
H2834 H 0.28127 0.78213 0.50596 0.0
C2835 C 0.19422 0.71526 0.4978 0.0
C2836 C 0.21942 0.75818 0.50177 0.0
H2837 H 0.25484 0.77518 0.48019 0.0
C2838 C 0.22002 0.76901 0.51664 0.0
C2839 C 0.23224 0.76033 0.48851 0.0
C2840 C 0.23195 0.74951 0.47196 0.0
C2841 C 0.23294 0.78198 0.51856 0.0
C2842 C 0.2455 0.7844 0.50514 0.0
C2843 C 0.2452 0.7733 0.49046 0.0
C2844 C 0.25845 0.79895 0.50572 0.0
C2845 C 0.23307 0.79298 0.53499 0.0
C2846 C 0.25269 0.81641 0.50562 0.0
C2847 C 0.26473 0.8302 0.50602 0.0
C2848 C 0.28287 0.82686 0.50649 0.0
C2849 C 0.28864 0.80933 0.50647 0.0
C2850 C 0.27653 0.79551 0.506 0.0
H2851 H 0.22592 0.78646 0.54588 0.0
H2852 H 0.24669 0.79574 0.53933 0.0
H2853 H 0.2265 0.80567 0.53229 0.0
H2854 H 0.23881 0.81938 0.50507 0.0
H2855 H 0.25979 0.8435 0.50591 0.0
H2856 H 0.49802 0.15908 0.26182 0.0
H2857 H 0.49568 0.18365 0.24142 0.0
H2858 H 0.51601 0.21861 0.28084 0.0
H2859 H 0.51831 0.19405 0.30152 0.0
H2860 H 0.47622 0.2175 0.24776 0.0
H2861 H 0.54778 0.22463 0.23508 0.0
H2862 H 0.5384 0.20449 0.24327 0.0
H2863 H 0.54057 0.22304 0.25751 0.0
C2864 C 0.50205 0.17197 0.26621 0.0
C2865 C 0.50845 0.17456 0.28332 0.0
C2866 C 0.50064 0.186 0.25452 0.0
C2867 C 0.50576 0.2029 0.25959 0.0
C2868 C 0.51211 0.20562 0.27664 0.0
H2869 H 0.48754 0.29863 0.19759 0.0
H2870 H 0.49013 0.27798 0.22215 0.0
C2871 C 0.51339 0.19158 0.28844 0.0
C2872 C 0.5044 0.21758 0.24689 0.0
H2873 H 0.52882 0.24361 0.21983 0.0
C2874 C 0.4877 0.22337 0.24178 0.0
C2875 C 0.51942 0.22506 0.23903 0.0
C2876 C 0.53761 0.21901 0.24385 0.0
C2877 C 0.48563 0.23635 0.22886 0.0
C2878 C 0.50064 0.24368 0.22085 0.0
C2879 C 0.51735 0.23802 0.22609 0.0
C2880 C 0.49921 0.25639 0.20619 0.0
C2881 C 0.46741 0.24176 0.2234 0.0
C2882 C 0.5036 0.25112 0.18914 0.0
C2883 C 0.50203 0.26279 0.17511 0.0
C2884 C 0.49619 0.28008 0.17785 0.0
C2885 C 0.49201 0.28541 0.19501 0.0
C2886 C 0.49346 0.27363 0.20905 0.0
H2887 H 0.45715 0.23332 0.22935 0.0
H2888 H 0.46503 0.2555 0.22752 0.0
H2889 H 0.46613 0.24121 0.20891 0.0
H2890 H 0.50809 0.23788 0.18667 0.0
H2891 H 0.50546 0.25825 0.16211 0.0
H2892 H 0.83195 0.52953 0.26807 0.0
H2893 H 0.80783 0.52913 0.24697 0.0
H2894 H 0.78332 0.48717 0.276 0.0
H2895 H 0.80667 0.48875 0.29792 0.0
H2896 H 0.79867 0.50737 0.22524 0.0
H2897 H 0.74099 0.5144 0.26817 0.0
H2898 H 0.76296 0.5173 0.27629 0.0
H2899 H 0.7535 0.49567 0.27468 0.0
C2900 C 0.82117 0.5205 0.27009 0.0
C2901 C 0.82101 0.50933 0.28469 0.0
C2902 C 0.8074 0.5202 0.25799 0.0
C2903 C 0.79341 0.50832 0.2599 0.0
C2904 C 0.79344 0.49697 0.27446 0.0
H2905 H 0.73381 0.47788 0.16714 0.0
H2906 H 0.75461 0.47997 0.19141 0.0
C2907 C 0.80691 0.49774 0.28693 0.0
C2908 C 0.77956 0.5071 0.24605 0.0
H2909 H 0.73542 0.50313 0.23931 0.0
C2910 C 0.78483 0.50669 0.2284 0.0
C2911 C 0.76138 0.50649 0.24992 0.0
C2912 C 0.75439 0.5087 0.26829 0.0
C2913 C 0.77264 0.50557 0.21465 0.0
C2914 C 0.75457 0.50361 0.21857 0.0
C2915 C 0.74924 0.50427 0.2362 0.0
C2916 C 0.74104 0.50117 0.20459 0.0
C2917 C 0.77938 0.50713 0.1961 0.0
C2918 C 0.72567 0.51139 0.20447 0.0
C2919 C 0.71331 0.50957 0.19099 0.0
C2920 C 0.71628 0.49778 0.17719 0.0
C2921 C 0.73135 0.48724 0.17753 0.0
C2922 C 0.74337 0.48861 0.1913 0.0
H2923 H 0.79175 0.5148 0.19561 0.0
H2924 H 0.78231 0.49387 0.19092 0.0
H2925 H 0.76968 0.51358 0.18738 0.0
H2926 H 0.7234 0.52109 0.21458 0.0
H2927 H 0.7018 0.51789 0.19099 0.0
H2928 H 0.49409 0.73827 0.16032 0.0
H2929 H 0.49181 0.75903 0.18457 0.0
H2930 H 0.51123 0.7198 0.22027 0.0
H2931 H 0.51351 0.69879 0.19603 0.0
H2932 H 0.47208 0.75432 0.21771 0.0
H2933 H 0.54386 0.7642 0.22657 0.0
H2934 H 0.53467 0.75554 0.20655 0.0
H2935 H 0.53597 0.74198 0.2257 0.0
C2936 C 0.49792 0.734 0.1733 0.0
C2937 C 0.50409 0.71686 0.17619 0.0
C2938 C 0.49655 0.7459 0.18716 0.0
C2939 C 0.50147 0.74099 0.20418 0.0
C2940 C 0.50752 0.72388 0.20719 0.0
H2941 H 0.48232 0.80446 0.29861 0.0
H2942 H 0.48443 0.77975 0.27812 0.0
C2943 C 0.50878 0.71189 0.19333 0.0
C2944 C 0.50026 0.75392 0.21865 0.0
H2945 H 0.52507 0.78002 0.24527 0.0
C2946 C 0.48364 0.75983 0.22388 0.0
C2947 C 0.51538 0.76117 0.22653 0.0
C2948 C 0.53353 0.75555 0.22106 0.0
C2949 C 0.48175 0.77294 0.23669 0.0
C2950 C 0.49688 0.78028 0.24446 0.0
C2951 C 0.5135 0.77426 0.23935 0.0
C2952 C 0.49575 0.79503 0.25709 0.0
C2953 C 0.46364 0.77927 0.24144 0.0
C2954 C 0.50159 0.81172 0.25212 0.0
C2955 C 0.50033 0.82584 0.26371 0.0
C2956 C 0.49333 0.82353 0.28062 0.0
C2957 C 0.4877 0.80671 0.28567 0.0
C2958 C 0.48886 0.79259 0.27398 0.0
H2959 H 0.45345 0.77404 0.23244 0.0
H2960 H 0.46044 0.77499 0.25496 0.0
H2961 H 0.46312 0.79381 0.24115 0.0
H2962 H 0.50698 0.81386 0.23915 0.0
H2963 H 0.50489 0.83857 0.25939 0.0
H2964 H 0.15993 0.50529 0.26242 0.0
H2965 H 0.18464 0.50705 0.24218 0.0
H2966 H 0.21924 0.48753 0.28234 0.0
H2967 H 0.19451 0.48576 0.30286 0.0
H2968 H 0.21779 0.52648 0.24744 0.0
H2969 H 0.22624 0.45456 0.23828 0.0
H2970 H 0.20611 0.46396 0.24644 0.0
H2971 H 0.22497 0.46267 0.2604 0.0
C2972 C 0.17277 0.50132 0.26701 0.0
C2973 C 0.1752 0.49528 0.28428 0.0
C2974 C 0.18689 0.50239 0.2554 0.0
C2975 C 0.20373 0.49731 0.26071 0.0
C2976 C 0.2063 0.49136 0.27794 0.0
H2977 H 0.29895 0.51549 0.19798 0.0
H2978 H 0.27834 0.51353 0.2226 0.0
C2979 C 0.19216 0.49039 0.28965 0.0
C2980 C 0.21848 0.4983 0.24807 0.0
H2981 H 0.24518 0.47307 0.22244 0.0
C2982 C 0.22393 0.51483 0.2421 0.0
C2983 C 0.22632 0.48305 0.24103 0.0
C2984 C 0.22062 0.465 0.24672 0.0
C2985 C 0.23689 0.51651 0.22911 0.0
C2986 C 0.24461 0.50126 0.22195 0.0
C2987 C 0.23931 0.48473 0.22806 0.0
C2988 C 0.25736 0.50219 0.20728 0.0
C2989 C 0.24184 0.53453 0.22269 0.0
C2990 C 0.25245 0.49627 0.19059 0.0
C2991 C 0.26412 0.49744 0.17652 0.0
C2992 C 0.28103 0.50443 0.17887 0.0
C2993 C 0.28602 0.51011 0.1957 0.0
C2994 C 0.27426 0.50904 0.20977 0.0
H2995 H 0.23288 0.54482 0.22775 0.0
H2996 H 0.25535 0.53766 0.22708 0.0
H2997 H 0.2417 0.53494 0.20814 0.0
H2998 H 0.23949 0.49091 0.18841 0.0
H2999 H 0.25985 0.49285 0.16378 0.0
H3000 H 0.49303 0.70066 0.80709 0.0
H3001 H 0.4965 0.72125 0.78264 0.0
H3002 H 0.50178 0.76393 0.81929 0.0
H3003 H 0.49864 0.74353 0.8437 0.0
H3004 H 0.47703 0.75024 0.77311 0.0
H3005 H 0.54496 0.77014 0.78897 0.0
H3006 H 0.53465 0.75126 0.79881 0.0
H3007 H 0.53034 0.7729 0.80716 0.0
C3008 C 0.49493 0.71443 0.80994 0.0
C3009 C 0.49566 0.72042 0.82737 0.0
C3010 C 0.49693 0.72618 0.79595 0.0
C3011 C 0.49977 0.74408 0.79913 0.0
C3012 C 0.50008 0.75012 0.81651 0.0
H3013 H 0.50609 0.84137 0.74403 0.0
H3014 H 0.50412 0.81703 0.7647 0.0
C3015 C 0.49816 0.73842 0.83046 0.0
C3016 C 0.5021 0.75661 0.78439 0.0
H3017 H 0.5294 0.78854 0.76886 0.0
C3018 C 0.48857 0.75846 0.77202 0.0
C3019 C 0.51723 0.76726 0.78291 0.0
C3020 C 0.5327 0.76519 0.79506 0.0
C3021 C 0.48944 0.77121 0.75873 0.0
C3022 C 0.50426 0.78228 0.75771 0.0
C3023 C 0.518 0.7801 0.76974 0.0
C3024 C 0.5054 0.79683 0.74487 0.0
C3025 C 0.47422 0.77323 0.74628 0.0
C3026 C 0.50694 0.79354 0.72683 0.0
C3027 C 0.50816 0.80748 0.71491 0.0
C3028 C 0.50783 0.82493 0.72085 0.0
C3029 C 0.50634 0.82811 0.73896 0.0
C3030 C 0.50524 0.81421 0.75082 0.0
H3031 H 0.4626 0.76555 0.75052 0.0
H3032 H 0.47042 0.78723 0.74513 0.0
H3033 H 0.47817 0.76861 0.73307 0.0
H3034 H 0.5073 0.78021 0.72198 0.0
H3035 H 0.50927 0.80457 0.70106 0.0
H3036 H 0.30236 0.48735 0.80843 0.0
H3037 H 0.28197 0.48998 0.78367 0.0
H3038 H 0.24239 0.51053 0.81831 0.0
H3039 H 0.26251 0.50787 0.84308 0.0
H3040 H 0.24642 0.47413 0.78126 0.0
H3041 H 0.24644 0.5468 0.77684 0.0
H3042 H 0.26378 0.53463 0.78745 0.0
H3043 H 0.24325 0.53796 0.79846 0.0
C3044 C 0.28932 0.49245 0.81078 0.0
C3045 C 0.28408 0.49738 0.82776 0.0
C3046 C 0.2777 0.49394 0.79662 0.0
C3047 C 0.26074 0.50063 0.79914 0.0
C3048 C 0.25549 0.50554 0.81605 0.0
H3049 H 0.164 0.49669 0.74243 0.0
H3050 H 0.18851 0.49414 0.76286 0.0
C3051 C 0.267 0.50392 0.83021 0.0
C3052 C 0.24829 0.5021 0.78426 0.0
H3053 H 0.22446 0.53176 0.7606 0.0
C3054 C 0.24174 0.48672 0.77661 0.0
C3055 C 0.24231 0.51855 0.77813 0.0
C3056 C 0.24938 0.53547 0.78551 0.0
C3057 C 0.22886 0.48735 0.76344 0.0
C3058 C 0.22237 0.50378 0.75782 0.0
C3059 C 0.2294 0.51918 0.76499 0.0
C3060 C 0.20767 0.50519 0.74514 0.0
C3061 C 0.22215 0.47044 0.75571 0.0
C3062 C 0.21026 0.51247 0.72844 0.0
C3063 C 0.19624 0.5139 0.71663 0.0
C3064 C 0.17933 0.5083 0.72144 0.0
C3065 C 0.17682 0.50116 0.73827 0.0
C3066 C 0.19084 0.4996 0.74996 0.0
H3067 H 0.23112 0.4593 0.75847 0.0
H3068 H 0.20917 0.46736 0.76151 0.0
H3069 H 0.22044 0.47167 0.74131 0.0
H3070 H 0.22314 0.51694 0.72452 0.0
H3071 H 0.19863 0.51947 0.7038 0.0
H3072 H 0.48381 0.19678 0.69794 0.0
H3073 H 0.48626 0.22144 0.71848 0.0
H3074 H 0.50843 0.18699 0.75736 0.0
H3075 H 0.50596 0.16233 0.73711 0.0
H3076 H 0.471 0.22301 0.75445 0.0
H3077 H 0.54351 0.22948 0.75298 0.0
H3078 H 0.53127 0.21878 0.73575 0.0
H3079 H 0.53536 0.20757 0.75603 0.0
C3080 C 0.48924 0.19446 0.71085 0.0
C3081 C 0.49468 0.17756 0.71587 0.0
C3082 C 0.49062 0.20856 0.72256 0.0
C3083 C 0.49769 0.20606 0.73936 0.0
C3084 C 0.50313 0.18924 0.74438 0.0
H3085 H 0.49439 0.2607 0.83716 0.0
H3086 H 0.49172 0.2408 0.81224 0.0
C3087 C 0.50162 0.17514 0.73279 0.0
C3088 C 0.49901 0.22084 0.75195 0.0
H3089 H 0.5285 0.24488 0.77558 0.0
C3090 C 0.48355 0.22794 0.75895 0.0
C3091 C 0.5154 0.22732 0.75769 0.0
C3092 C 0.53237 0.22054 0.75015 0.0
C3093 C 0.48409 0.24088 0.77205 0.0
C3094 C 0.5005 0.24683 0.77831 0.0
C3095 C 0.51594 0.24023 0.77082 0.0
C3096 C 0.50188 0.25922 0.79326 0.0
C3097 C 0.46712 0.248 0.77926 0.0
C3098 C 0.50868 0.27615 0.79089 0.0
C3099 C 0.51017 0.28765 0.80514 0.0
C3100 C 0.50513 0.28231 0.82206 0.0
C3101 C 0.49843 0.26527 0.82434 0.0
C3102 C 0.4968 0.25388 0.81009 0.0
H3103 H 0.45588 0.24513 0.77046 0.0
H3104 H 0.46447 0.24184 0.79217 0.0
H3105 H 0.468 0.26239 0.78125 0.0
H3106 H 0.51276 0.28047 0.778 0.0
H3107 H 0.5154 0.30066 0.80292 0.0
H3108 H 0.73317 0.52815 0.83074 0.0
H3109 H 0.75435 0.52805 0.80668 0.0
H3110 H 0.72786 0.48355 0.78379 0.0
H3111 H 0.70577 0.48483 0.80701 0.0
H3112 H 0.77731 0.50731 0.79849 0.0
H3113 H 0.73438 0.50931 0.74041 0.0
H3114 H 0.72595 0.51263 0.7622 0.0
H3115 H 0.72891 0.49076 0.75366 0.0
C3116 C 0.7317 0.51864 0.8203 0.0
C3117 C 0.71777 0.50666 0.82053 0.0
C3118 C 0.74385 0.51849 0.80658 0.0
C3119 C 0.74268 0.50597 0.79307 0.0
C3120 C 0.72879 0.49382 0.79351 0.0
H3121 H 0.83746 0.47877 0.73497 0.0
H3122 H 0.81312 0.48031 0.75575 0.0
C3123 C 0.71623 0.49443 0.80689 0.0
C3124 C 0.75666 0.50498 0.77933 0.0
H3125 H 0.76386 0.4995 0.73545 0.0
C3126 C 0.77427 0.50586 0.78468 0.0
C3127 C 0.75294 0.50335 0.76119 0.0
C3128 C 0.73451 0.50417 0.75404 0.0
C3129 C 0.78813 0.50506 0.7726 0.0
C3130 C 0.78444 0.50209 0.75463 0.0
C3131 C 0.76684 0.50143 0.74921 0.0
C3132 C 0.7986 0.49997 0.74124 0.0
C3133 C 0.80651 0.50805 0.77933 0.0
C3134 C 0.79807 0.50946 0.72542 0.0
C3135 C 0.81161 0.50791 0.71312 0.0
C3136 C 0.82612 0.49714 0.71657 0.0
C3137 C 0.8265 0.48735 0.73213 0.0
C3138 C 0.81268 0.48842 0.74412 0.0
H3139 H 0.80646 0.51627 0.79135 0.0
H3140 H 0.81249 0.49528 0.78285 0.0
H3141 H 0.81487 0.5146 0.76939 0.0
H3142 H 0.78736 0.51838 0.72273 0.0
H3143 H 0.81105 0.51563 0.70121 0.0
loop_
_geom_bond_atom_site_label_1
_geom_bond_atom_site_label_2
_geom_bond_distance
_geom_bond_site_symmetry_2
_ccdc_geom_bond_type
Co0 O2 2.143 . S
Co0 O8 2.074 . S
Co0 O11 2.093 . S
Co0 O24 2.097 . S
Co0 N41 2.151 . S
Co0 N49 2.214 . S
Co1 O2 2.160 . S
Co1 O7 2.058 . S
Co1 O17 2.057 . S
Co1 O32 2.037 . S
Co1 N36 2.145 . S
Co1 N57 2.257 . S
O2 Co0 2.143 . S
O2 Co1 2.160 . S
C3 O4 1.278 . S
C3 O11 1.224 . S
O4 C3 1.278 . S
C5 O6 1.245 . S
C5 O17 1.232 . S
O6 C5 1.245 . S
O7 Co1 2.058 . S
O7 C33 1.269 . S
O8 Co0 2.074 . S
O8 C33 1.257 . S
H9 C34 0.930 . S
H10 C40 0.930 . S
O11 Co0 2.093 . S
O11 C3 1.224 . S
H12 C44 0.929 . S
H13 C46 0.930 . S
H14 C47 0.930 . S
H15 C45 0.929 . S
H16 C48 0.928 . S
O17 Co1 2.057 . S
O17 C5 1.232 . S
H18 C37 0.929 . S
H19 C38 0.929 . S
H20 C50 0.931 . S
H21 C42 0.929 . S
H22 C51 0.930 . S
H23 C43 0.931 . S
O24 Co0 2.097 . S
O24 C52 1.214 . S
H25 C53 0.929 . S
H26 C54 0.929 . S
H27 C55 0.930 . S
H28 C56 0.929 . S
H29 C58 0.930 . S
H30 C35 0.930 . S
H31 C39 0.930 . S
O32 Co1 2.037 . S
O32 C52 1.234 . S
C33 O7 1.269 . S
C33 O8 1.257 . S
C34 H9 0.930 . S
C34 C37 1.388 . S
C34 C39 1.418 . S
C35 H30 0.930 . S
C35 C38 1.404 . S
C35 C39 1.353 . S
N36 Co1 2.145 . S
N36 C37 1.397 . S
N36 C38 1.334 . S
C37 H18 0.929 . S
C37 C34 1.388 . S
C37 N36 1.397 . S
C38 H19 0.929 . S
C38 C35 1.404 . S
C38 N36 1.334 . S
C39 H31 0.930 . S
C39 C34 1.418 . S
C39 C35 1.353 . S
C40 H10 0.930 . S
C40 N41 1.330 . S
C40 C42 1.446 . S
N41 Co0 2.151 . S
N41 C40 1.330 . S
N41 C45 1.418 . S
C42 H21 0.929 . S
C42 C40 1.446 . S
C42 C43 1.332 . S
C43 H23 0.931 . S
C43 C42 1.332 . S
C43 C44 1.267 . S
C44 H12 0.929 . S
C44 C43 1.267 . S
C44 C45 1.251 . S
C45 H15 0.929 . S
C45 N41 1.418 . S
C45 C44 1.251 . S
C46 H13 0.930 . S
C46 C48 1.406 . S
C46 C51 1.261 . S
C47 H14 0.930 . S
C47 N49 1.325 . S
C47 C50 1.357 . S
C48 H16 0.928 . S
C48 C46 1.406 . S
C48 N49 1.261 . S
N49 Co0 2.214 . S
N49 C47 1.325 . S
N49 C48 1.261 . S
C50 H20 0.931 . S
C50 C47 1.357 . S
C50 C51 1.312 . S
C51 H22 0.930 . S
C51 C46 1.261 . S
C51 C50 1.312 . S
C52 O24 1.214 . S
C52 O32 1.234 . S
C53 H25 0.929 . S
C53 C56 1.391 . S
C53 C58 1.391 . S
C54 H26 0.929 . S
C54 C55 1.390 . S
C54 N57 1.391 . S
C55 H27 0.930 . S
C55 C54 1.390 . S
C55 C56 1.392 . S
C56 H28 0.929 . S
C56 C53 1.391 . S
C56 C55 1.392 . S
N57 Co1 2.257 . S
N57 C54 1.391 . S
N57 C58 1.388 . S
C58 H29 0.930 . S
C58 C53 1.391 . S
C58 N57 1.388 . S
Co59 O61 2.143 . S
Co59 O67 2.074 . S
Co59 O70 2.093 . S
Co59 O83 2.097 . S
Co59 N100 2.151 . S
Co59 N108 2.214 . S
Co60 O61 2.160 . S
Co60 O66 2.058 . S
Co60 O76 2.057 . S
Co60 O91 2.037 . S
Co60 N95 2.145 . S
Co60 N116 2.257 . S
O61 Co59 2.143 . S
O61 Co60 2.160 . S
C62 O63 1.278 . S
C62 O70 1.224 . S
O63 C62 1.278 . S
C64 O65 1.245 . S
C64 O76 1.232 . S
O65 C64 1.245 . S
O66 Co60 2.058 . S
O66 C92 1.269 . S
O67 Co59 2.074 . S
O67 C92 1.257 . S
H68 C93 0.930 . S
H69 C99 0.930 . S
O70 Co59 2.093 . S
O70 C62 1.224 . S
H71 C103 0.929 . S
H72 C105 0.930 . S
H73 C106 0.930 . S
H74 C104 0.929 . S
H75 C107 0.928 . S
O76 Co60 2.057 . S
O76 C64 1.232 . S
H77 C96 0.929 . S
H78 C97 0.929 . S
H79 C109 0.931 . S
H80 C101 0.929 . S
H81 C110 0.930 . S
H82 C102 0.931 . S
O83 Co59 2.097 . S
O83 C111 1.214 . S
H84 C112 0.929 . S
H85 C113 0.929 . S
H86 C114 0.930 . S
H87 C115 0.929 . S
H88 C117 0.930 . S
H89 C94 0.930 . S
H90 C98 0.930 . S
O91 Co60 2.037 . S
O91 C111 1.234 . S
C92 O66 1.269 . S
C92 O67 1.257 . S
C93 H68 0.930 . S
C93 C96 1.388 . S
C93 C98 1.418 . S
C94 H89 0.930 . S
C94 C97 1.404 . S
C94 C98 1.353 . S
N95 Co60 2.145 . S
N95 C96 1.397 . S
N95 C97 1.334 . S
C96 H77 0.929 . S
C96 C93 1.388 . S
C96 N95 1.397 . S
C97 H78 0.929 . S
C97 C94 1.404 . S
C97 N95 1.334 . S
C98 H90 0.930 . S
C98 C93 1.418 . S
C98 C94 1.353 . S
C99 H69 0.930 . S
C99 N100 1.330 . S
C99 C101 1.446 . S
N100 Co59 2.151 . S
N100 C99 1.330 . S
N100 C104 1.418 . S
C101 H80 0.929 . S
C101 C99 1.446 . S
C101 C102 1.332 . S
C102 H82 0.931 . S
C102 C101 1.332 . S
C102 C103 1.267 . S
C103 H71 0.929 . S
C103 C102 1.267 . S
C103 C104 1.251 . S
C104 H74 0.929 . S
C104 N100 1.418 . S
C104 C103 1.251 . S
C105 H72 0.930 . S
C105 C107 1.406 . S
C105 C110 1.261 . S
C106 H73 0.930 . S
C106 N108 1.325 . S
C106 C109 1.357 . S
C107 H75 0.928 . S
C107 C105 1.406 . S
C107 N108 1.261 . S
N108 Co59 2.214 . S
N108 C106 1.325 . S
N108 C107 1.261 . S
C109 H79 0.931 . S
C109 C106 1.357 . S
C109 C110 1.312 . S
C110 H81 0.930 . S
C110 C105 1.261 . S
C110 C109 1.312 . S
C111 O83 1.214 . S
C111 O91 1.234 . S
C112 H84 0.929 . S
C112 C115 1.391 . S
C112 C117 1.391 . S
C113 H85 0.929 . S
C113 C114 1.390 . S
C113 N116 1.391 . S
C114 H86 0.930 . S
C114 C113 1.390 . S
C114 C115 1.392 . S
C115 H87 0.929 . S
C115 C112 1.391 . S
C115 C114 1.392 . S
N116 Co60 2.257 . S
N116 C113 1.391 . S
N116 C117 1.388 . S
C117 H88 0.930 . S
C117 C112 1.391 . S
C117 N116 1.388 . S
Co118 O120 2.143 . S
Co118 O126 2.074 . S
Co118 O129 2.093 . S
Co118 O142 2.097 . S
Co118 N159 2.151 . S
Co118 N167 2.214 . S
Co119 O120 2.160 . S
Co119 O125 2.058 . S
Co119 O135 2.057 . S
Co119 O150 2.037 . S
Co119 N154 2.145 . S
Co119 N175 2.257 . S
O120 Co118 2.143 . S
O120 Co119 2.160 . S
C121 O122 1.278 . S
C121 O129 1.224 . S
O122 C121 1.278 . S
C123 O124 1.245 . S
C123 O135 1.232 . S
O124 C123 1.245 . S
O125 Co119 2.058 . S
O125 C151 1.269 . S
O126 Co118 2.074 . S
O126 C151 1.257 . S
H127 C152 0.930 . S
H128 C158 0.930 . S
O129 Co118 2.093 . S
O129 C121 1.224 . S
H130 C162 0.929 . S
H131 C164 0.930 . S
H132 C165 0.930 . S
H133 C163 0.929 . S
H134 C166 0.928 . S
O135 Co119 2.057 . S
O135 C123 1.232 . S
H136 C155 0.929 . S
H137 C156 0.929 . S
H138 C168 0.931 . S
H139 C160 0.929 . S
H140 C169 0.930 . S
H141 C161 0.931 . S
O142 Co118 2.097 . S
O142 C170 1.214 . S
H143 C171 0.929 . S
H144 C172 0.929 . S
H145 C173 0.930 . S
H146 C174 0.929 . S
H147 C176 0.930 . S
H148 C153 0.930 . S
H149 C157 0.930 . S
O150 Co119 2.037 . S
O150 C170 1.234 . S
C151 O125 1.269 . S
C151 O126 1.257 . S
C152 H127 0.930 . S
C152 C155 1.388 . S
C152 C157 1.418 . S
C153 H148 0.930 . S
C153 C156 1.404 . S
C153 C157 1.353 . S
N154 Co119 2.145 . S
N154 C155 1.397 . S
N154 C156 1.334 . S
C155 H136 0.929 . S
C155 C152 1.388 . S
C155 N154 1.397 . S
C156 H137 0.929 . S
C156 C153 1.404 . S
C156 N154 1.334 . S
C157 H149 0.930 . S
C157 C152 1.418 . S
C157 C153 1.353 . S
C158 H128 0.930 . S
C158 N159 1.330 . S
C158 C160 1.446 . S
N159 Co118 2.151 . S
N159 C158 1.330 . S
N159 C163 1.418 . S
C160 H139 0.929 . S
C160 C158 1.446 . S
C160 C161 1.332 . S
C161 H141 0.931 . S
C161 C160 1.332 . S
C161 C162 1.267 . S
C162 H130 0.929 . S
C162 C161 1.267 . S
C162 C163 1.251 . S
C163 H133 0.929 . S
C163 N159 1.418 . S
C163 C162 1.251 . S
C164 H131 0.930 . S
C164 C166 1.406 . S
C164 C169 1.261 . S
C165 H132 0.930 . S
C165 N167 1.325 . S
C165 C168 1.357 . S
C166 H134 0.928 . S
C166 C164 1.406 . S
C166 N167 1.261 . S
N167 Co118 2.214 . S
N167 C165 1.325 . S
N167 C166 1.261 . S
C168 H138 0.931 . S
C168 C165 1.357 . S
C168 C169 1.312 . S
C169 H140 0.930 . S
C169 C164 1.261 . S
C169 C168 1.312 . S
C170 O142 1.214 . S
C170 O150 1.234 . S
C171 H143 0.929 . S
C171 C174 1.391 . S
C171 C176 1.391 . S
C172 H144 0.929 . S
C172 C173 1.390 . S
C172 N175 1.391 . S
C173 H145 0.930 . S
C173 C172 1.390 . S
C173 C174 1.392 . S
C174 H146 0.929 . S
C174 C171 1.391 . S
C174 C173 1.392 . S
N175 Co119 2.257 . S
N175 C172 1.391 . S
N175 C176 1.388 . S
C176 H147 0.930 . S
C176 C171 1.391 . S
C176 N175 1.388 . S
Co177 O179 2.143 . S
Co177 O185 2.074 . S
Co177 O188 2.093 . S
Co177 O201 2.097 . S
Co177 N218 2.151 . S
Co177 N226 2.214 . S
Co178 O179 2.160 . S
Co178 O184 2.058 . S
Co178 O194 2.057 . S
Co178 O209 2.037 . S
Co178 N213 2.145 . S
Co178 N234 2.257 . S
O179 Co177 2.143 . S
O179 Co178 2.160 . S
C180 O181 1.278 . S
C180 O188 1.224 . S
O181 C180 1.278 . S
C182 O183 1.245 . S
C182 O194 1.232 . S
O183 C182 1.245 . S
O184 Co178 2.058 . S
O184 C210 1.269 . S
O185 Co177 2.074 . S
O185 C210 1.257 . S
H186 C211 0.930 . S
H187 C217 0.930 . S
O188 Co177 2.093 . S
O188 C180 1.224 . S
H189 C221 0.929 . S
H190 C223 0.930 . S
H191 C224 0.930 . S
H192 C222 0.929 . S
H193 C225 0.928 . S
O194 Co178 2.057 . S
O194 C182 1.232 . S
H195 C214 0.929 . S
H196 C215 0.929 . S
H197 C227 0.931 . S
H198 C219 0.929 . S
H199 C228 0.930 . S
H200 C220 0.931 . S
O201 Co177 2.097 . S
O201 C229 1.214 . S
H202 C230 0.929 . S
H203 C231 0.929 . S
H204 C232 0.930 . S
H205 C233 0.929 . S
H206 C235 0.930 . S
H207 C212 0.930 . S
H208 C216 0.930 . S
O209 Co178 2.037 . S
O209 C229 1.234 . S
C210 O184 1.269 . S
C210 O185 1.257 . S
C211 H186 0.930 . S
C211 C214 1.388 . S
C211 C216 1.418 . S
C212 H207 0.930 . S
C212 C215 1.404 . S
C212 C216 1.353 . S
N213 Co178 2.145 . S
N213 C214 1.397 . S
N213 C215 1.334 . S
C214 H195 0.929 . S
C214 C211 1.388 . S
C214 N213 1.397 . S
C215 H196 0.929 . S
C215 C212 1.404 . S
C215 N213 1.334 . S
C216 H208 0.930 . S
C216 C211 1.418 . S
C216 C212 1.353 . S
C217 H187 0.930 . S
C217 N218 1.330 . S
C217 C219 1.446 . S
N218 Co177 2.151 . S
N218 C217 1.330 . S
N218 C222 1.418 . S
C219 H198 0.929 . S
C219 C217 1.446 . S
C219 C220 1.332 . S
C220 H200 0.931 . S
C220 C219 1.332 . S
C220 C221 1.267 . S
C221 H189 0.929 . S
C221 C220 1.267 . S
C221 C222 1.251 . S
C222 H192 0.929 . S
C222 N218 1.418 . S
C222 C221 1.251 . S
C223 H190 0.930 . S
C223 C225 1.406 . S
C223 C228 1.261 . S
C224 H191 0.930 . S
C224 N226 1.325 . S
C224 C227 1.357 . S
C225 H193 0.928 . S
C225 C223 1.406 . S
C225 N226 1.261 . S
N226 Co177 2.214 . S
N226 C224 1.325 . S
N226 C225 1.261 . S
C227 H197 0.931 . S
C227 C224 1.357 . S
C227 C228 1.312 . S
C228 H199 0.930 . S
C228 C223 1.261 . S
C228 C227 1.312 . S
C229 O201 1.214 . S
C229 O209 1.234 . S
C230 H202 0.929 . S
C230 C233 1.391 . S
C230 C235 1.391 . S
C231 H203 0.929 . S
C231 C232 1.390 . S
C231 N234 1.391 . S
C232 H204 0.930 . S
C232 C231 1.390 . S
C232 C233 1.392 . S
C233 H205 0.929 . S
C233 C230 1.391 . S
C233 C232 1.392 . S
N234 Co178 2.257 . S
N234 C231 1.391 . S
N234 C235 1.388 . S
C235 H206 0.930 . S
C235 C230 1.391 . S
C235 N234 1.388 . S
Co236 O238 2.143 . S
Co236 O244 2.074 . S
Co236 O247 2.093 . S
Co236 O260 2.097 . S
Co236 N277 2.151 . S
Co236 N285 2.214 . S
Co237 O238 2.160 . S
Co237 O243 2.058 . S
Co237 O253 2.057 . S
Co237 O268 2.037 . S
Co237 N272 2.145 . S
Co237 N293 2.257 . S
O238 Co236 2.143 . S
O238 Co237 2.160 . S
C239 O240 1.278 . S
C239 O247 1.224 . S
O240 C239 1.278 . S
C241 O242 1.245 . S
C241 O253 1.232 . S
O242 C241 1.245 . S
O243 Co237 2.058 . S
O243 C269 1.269 . S
O244 Co236 2.074 . S
O244 C269 1.257 . S
H245 C270 0.930 . S
H246 C276 0.930 . S
O247 Co236 2.093 . S
O247 C239 1.224 . S
H248 C280 0.929 . S
H249 C282 0.930 . S
H250 C283 0.930 . S
H251 C281 0.929 . S
H252 C284 0.928 . S
O253 Co237 2.057 . S
O253 C241 1.232 . S
H254 C273 0.929 . S
H255 C274 0.929 . S
H256 C286 0.931 . S
H257 C278 0.929 . S
H258 C287 0.930 . S
H259 C279 0.931 . S
O260 Co236 2.097 . S
O260 C288 1.214 . S
H261 C289 0.929 . S
H262 C290 0.929 . S
H263 C291 0.930 . S
H264 C292 0.929 . S
H265 C294 0.930 . S
H266 C271 0.930 . S
H267 C275 0.930 . S
O268 Co237 2.037 . S
O268 C288 1.234 . S
C269 O243 1.269 . S
C269 O244 1.257 . S
C270 H245 0.930 . S
C270 C273 1.388 . S
C270 C275 1.418 . S
C271 H266 0.930 . S
C271 C274 1.404 . S
C271 C275 1.353 . S
N272 Co237 2.145 . S
N272 C273 1.397 . S
N272 C274 1.334 . S
C273 H254 0.929 . S
C273 C270 1.388 . S
C273 N272 1.397 . S
C274 H255 0.929 . S
C274 C271 1.404 . S
C274 N272 1.334 . S
C275 H267 0.930 . S
C275 C270 1.418 . S
C275 C271 1.353 . S
C276 H246 0.930 . S
C276 N277 1.330 . S
C276 C278 1.446 . S
N277 Co236 2.151 . S
N277 C276 1.330 . S
N277 C281 1.418 . S
C278 H257 0.929 . S
C278 C276 1.446 . S
C278 C279 1.332 . S
C279 H259 0.931 . S
C279 C278 1.332 . S
C279 C280 1.267 . S
C280 H248 0.929 . S
C280 C279 1.267 . S
C280 C281 1.251 . S
C281 H251 0.929 . S
C281 N277 1.418 . S
C281 C280 1.251 . S
C282 H249 0.930 . S
C282 C284 1.406 . S
C282 C287 1.261 . S
C283 H250 0.930 . S
C283 N285 1.325 . S
C283 C286 1.357 . S
C284 H252 0.928 . S
C284 C282 1.406 . S
C284 N285 1.261 . S
N285 Co236 2.214 . S
N285 C283 1.325 . S
N285 C284 1.261 . S
C286 H256 0.931 . S
C286 C283 1.357 . S
C286 C287 1.312 . S
C287 H258 0.930 . S
C287 C282 1.261 . S
C287 C286 1.312 . S
C288 O260 1.214 . S
C288 O268 1.234 . S
C289 H261 0.929 . S
C289 C292 1.391 . S
C289 C294 1.391 . S
C290 H262 0.929 . S
C290 C291 1.390 . S
C290 N293 1.391 . S
C291 H263 0.930 . S
C291 C290 1.390 . S
C291 C292 1.392 . S
C292 H264 0.929 . S
C292 C289 1.391 . S
C292 C291 1.392 . S
N293 Co237 2.257 . S
N293 C290 1.391 . S
N293 C294 1.388 . S
C294 H265 0.930 . S
C294 C289 1.391 . S
C294 N293 1.388 . S
Co295 O297 2.143 . S
Co295 O303 2.074 . S
Co295 O306 2.093 . S
Co295 O319 2.097 . S
Co295 N336 2.151 . S
Co295 N344 2.214 . S
Co296 O297 2.160 . S
Co296 O302 2.058 . S
Co296 O312 2.057 . S
Co296 O327 2.037 . S
Co296 N331 2.145 . S
Co296 N352 2.257 . S
O297 Co295 2.143 . S
O297 Co296 2.160 . S
C298 O299 1.278 . S
C298 O306 1.224 . S
O299 C298 1.278 . S
C300 O301 1.245 . S
C300 O312 1.232 . S
O301 C300 1.245 . S
O302 Co296 2.058 . S
O302 C328 1.269 . S
O303 Co295 2.074 . S
O303 C328 1.257 . S
H304 C329 0.930 . S
H305 C335 0.930 . S
O306 Co295 2.093 . S
O306 C298 1.224 . S
H307 C339 0.929 . S
H308 C341 0.930 . S
H309 C342 0.930 . S
H310 C340 0.929 . S
H311 C343 0.928 . S
O312 Co296 2.057 . S
O312 C300 1.232 . S
H313 C332 0.929 . S
H314 C333 0.929 . S
H315 C345 0.931 . S
H316 C337 0.929 . S
H317 C346 0.930 . S
H318 C338 0.931 . S
O319 Co295 2.097 . S
O319 C347 1.214 . S
H320 C348 0.929 . S
H321 C349 0.929 . S
H322 C350 0.930 . S
H323 C351 0.929 . S
H324 C353 0.930 . S
H325 C330 0.930 . S
H326 C334 0.930 . S
O327 Co296 2.037 . S
O327 C347 1.234 . S
C328 O302 1.269 . S
C328 O303 1.257 . S
C329 H304 0.930 . S
C329 C332 1.388 . S
C329 C334 1.418 . S
C330 H325 0.930 . S
C330 C333 1.404 . S
C330 C334 1.353 . S
N331 Co296 2.145 . S
N331 C332 1.397 . S
N331 C333 1.334 . S
C332 H313 0.929 . S
C332 C329 1.388 . S
C332 N331 1.397 . S
C333 H314 0.929 . S
C333 C330 1.404 . S
C333 N331 1.334 . S
C334 H326 0.930 . S
C334 C329 1.418 . S
C334 C330 1.353 . S
C335 H305 0.930 . S
C335 N336 1.330 . S
C335 C337 1.446 . S
N336 Co295 2.151 . S
N336 C335 1.330 . S
N336 C340 1.418 . S
C337 H316 0.929 . S
C337 C335 1.446 . S
C337 C338 1.332 . S
C338 H318 0.931 . S
C338 C337 1.332 . S
C338 C339 1.267 . S
C339 H307 0.929 . S
C339 C338 1.267 . S
C339 C340 1.251 . S
C340 H310 0.929 . S
C340 N336 1.418 . S
C340 C339 1.251 . S
C341 H308 0.930 . S
C341 C343 1.406 . S
C341 C346 1.261 . S
C342 H309 0.930 . S
C342 N344 1.325 . S
C342 C345 1.357 . S
C343 H311 0.928 . S
C343 C341 1.406 . S
C343 N344 1.261 . S
N344 Co295 2.214 . S
N344 C342 1.325 . S
N344 C343 1.261 . S
C345 H315 0.931 . S
C345 C342 1.357 . S
C345 C346 1.312 . S
C346 H317 0.930 . S
C346 C341 1.261 . S
C346 C345 1.312 . S
C347 O319 1.214 . S
C347 O327 1.234 . S
C348 H320 0.929 . S
C348 C351 1.391 . S
C348 C353 1.391 . S
C349 H321 0.929 . S
C349 C350 1.390 . S
C349 N352 1.391 . S
C350 H322 0.930 . S
C350 C349 1.390 . S
C350 C351 1.392 . S
C351 H323 0.929 . S
C351 C348 1.391 . S
C351 C350 1.392 . S
N352 Co296 2.257 . S
N352 C349 1.391 . S
N352 C353 1.388 . S
C353 H324 0.930 . S
C353 C348 1.391 . S
C353 N352 1.388 . S
Co354 O356 2.143 . S
Co354 O362 2.074 . S
Co354 O365 2.093 . S
Co354 O378 2.097 . S
Co354 N395 2.151 . S
Co354 N403 2.214 . S
Co355 O356 2.160 . S
Co355 O361 2.058 . S
Co355 O371 2.057 . S
Co355 O386 2.037 . S
Co355 N390 2.145 . S
Co355 N411 2.257 . S
O356 Co354 2.143 . S
O356 Co355 2.160 . S
C357 O358 1.278 . S
C357 O365 1.224 . S
O358 C357 1.278 . S
C359 O360 1.245 . S
C359 O371 1.232 . S
O360 C359 1.245 . S
O361 Co355 2.058 . S
O361 C387 1.269 . S
O362 Co354 2.074 . S
O362 C387 1.257 . S
H363 C388 0.930 . S
H364 C394 0.930 . S
O365 Co354 2.093 . S
O365 C357 1.224 . S
H366 C398 0.929 . S
H367 C400 0.930 . S
H368 C401 0.930 . S
H369 C399 0.929 . S
H370 C402 0.928 . S
O371 Co355 2.057 . S
O371 C359 1.232 . S
H372 C391 0.929 . S
H373 C392 0.929 . S
H374 C404 0.931 . S
H375 C396 0.929 . S
H376 C405 0.930 . S
H377 C397 0.931 . S
O378 Co354 2.097 . S
O378 C406 1.214 . S
H379 C407 0.929 . S
H380 C408 0.929 . S
H381 C409 0.930 . S
H382 C410 0.929 . S
H383 C412 0.930 . S
H384 C389 0.930 . S
H385 C393 0.930 . S
O386 Co355 2.037 . S
O386 C406 1.234 . S
C387 O361 1.269 . S
C387 O362 1.257 . S
C388 H363 0.930 . S
C388 C391 1.388 . S
C388 C393 1.418 . S
C389 H384 0.930 . S
C389 C392 1.404 . S
C389 C393 1.353 . S
N390 Co355 2.145 . S
N390 C391 1.397 . S
N390 C392 1.334 . S
C391 H372 0.929 . S
C391 C388 1.388 . S
C391 N390 1.397 . S
C392 H373 0.929 . S
C392 C389 1.404 . S
C392 N390 1.334 . S
C393 H385 0.930 . S
C393 C388 1.418 . S
C393 C389 1.353 . S
C394 H364 0.930 . S
C394 N395 1.330 . S
C394 C396 1.446 . S
N395 Co354 2.151 . S
N395 C394 1.330 . S
N395 C399 1.418 . S
C396 H375 0.929 . S
C396 C394 1.446 . S
C396 C397 1.332 . S
C397 H377 0.931 . S
C397 C396 1.332 . S
C397 C398 1.267 . S
C398 H366 0.929 . S
C398 C397 1.267 . S
C398 C399 1.251 . S
C399 H369 0.929 . S
C399 N395 1.418 . S
C399 C398 1.251 . S
C400 H367 0.930 . S
C400 C402 1.406 . S
C400 C405 1.261 . S
C401 H368 0.930 . S
C401 N403 1.325 . S
C401 C404 1.357 . S
C402 H370 0.928 . S
C402 C400 1.406 . S
C402 N403 1.261 . S
N403 Co354 2.214 . S
N403 C401 1.325 . S
N403 C402 1.261 . S
C404 H374 0.931 . S
C404 C401 1.357 . S
C404 C405 1.312 . S
C405 H376 0.930 . S
C405 C400 1.261 . S
C405 C404 1.312 . S
C406 O378 1.214 . S
C406 O386 1.234 . S
C407 H379 0.929 . S
C407 C410 1.391 . S
C407 C412 1.391 . S
C408 H380 0.929 . S
C408 C409 1.390 . S
C408 N411 1.391 . S
C409 H381 0.930 . S
C409 C408 1.390 . S
C409 C410 1.392 . S
C410 H382 0.929 . S
C410 C407 1.391 . S
C410 C409 1.392 . S
N411 Co355 2.257 . S
N411 C408 1.391 . S
N411 C412 1.388 . S
C412 H383 0.930 . S
C412 C407 1.391 . S
C412 N411 1.388 . S
Co413 O415 2.143 . S
Co413 O421 2.074 . S
Co413 O424 2.093 . S
Co413 O437 2.097 . S
Co413 N454 2.151 . S
Co413 N462 2.214 . S
Co414 O415 2.160 . S
Co414 O420 2.058 . S
Co414 O430 2.057 . S
Co414 O445 2.037 . S
Co414 N449 2.145 . S
Co414 N470 2.257 . S
O415 Co413 2.143 . S
O415 Co414 2.160 . S
C416 O417 1.278 . S
C416 O424 1.224 . S
O417 C416 1.278 . S
C418 O419 1.245 . S
C418 O430 1.232 . S
O419 C418 1.245 . S
O420 Co414 2.058 . S
O420 C446 1.269 . S
O421 Co413 2.074 . S
O421 C446 1.257 . S
H422 C447 0.930 . S
H423 C453 0.930 . S
O424 Co413 2.093 . S
O424 C416 1.224 . S
H425 C457 0.929 . S
H426 C459 0.930 . S
H427 C460 0.930 . S
H428 C458 0.929 . S
H429 C461 0.928 . S
O430 Co414 2.057 . S
O430 C418 1.232 . S
H431 C450 0.929 . S
H432 C451 0.929 . S
H433 C463 0.931 . S
H434 C455 0.929 . S
H435 C464 0.930 . S
H436 C456 0.931 . S
O437 Co413 2.097 . S
O437 C465 1.214 . S
H438 C466 0.929 . S
H439 C467 0.929 . S
H440 C468 0.930 . S
H441 C469 0.929 . S
H442 C471 0.930 . S
H443 C448 0.930 . S
H444 C452 0.930 . S
O445 Co414 2.037 . S
O445 C465 1.234 . S
C446 O420 1.269 . S
C446 O421 1.257 . S
C447 H422 0.930 . S
C447 C450 1.388 . S
C447 C452 1.418 . S
C448 H443 0.930 . S
C448 C451 1.404 . S
C448 C452 1.353 . S
N449 Co414 2.145 . S
N449 C450 1.397 . S
N449 C451 1.334 . S
C450 H431 0.929 . S
C450 C447 1.388 . S
C450 N449 1.397 . S
C451 H432 0.929 . S
C451 C448 1.404 . S
C451 N449 1.334 . S
C452 H444 0.930 . S
C452 C447 1.418 . S
C452 C448 1.353 . S
C453 H423 0.930 . S
C453 N454 1.330 . S
C453 C455 1.446 . S
N454 Co413 2.151 . S
N454 C453 1.330 . S
N454 C458 1.418 . S
C455 H434 0.929 . S
C455 C453 1.446 . S
C455 C456 1.332 . S
C456 H436 0.931 . S
C456 C455 1.332 . S
C456 C457 1.267 . S
C457 H425 0.929 . S
C457 C456 1.267 . S
C457 C458 1.251 . S
C458 H428 0.929 . S
C458 N454 1.418 . S
C458 C457 1.251 . S
C459 H426 0.930 . S
C459 C461 1.406 . S
C459 C464 1.261 . S
C460 H427 0.930 . S
C460 N462 1.325 . S
C460 C463 1.357 . S
C461 H429 0.928 . S
C461 C459 1.406 . S
C461 N462 1.261 . S
N462 Co413 2.214 . S
N462 C460 1.325 . S
N462 C461 1.261 . S
C463 H433 0.931 . S
C463 C460 1.357 . S
C463 C464 1.312 . S
C464 H435 0.930 . S
C464 C459 1.261 . S
C464 C463 1.312 . S
C465 O437 1.214 . S
C465 O445 1.234 . S
C466 H438 0.929 . S
C466 C469 1.391 . S
C466 C471 1.391 . S
C467 H439 0.929 . S
C467 C468 1.390 . S
C467 N470 1.391 . S
C468 H440 0.930 . S
C468 C467 1.390 . S
C468 C469 1.392 . S
C469 H441 0.929 . S
C469 C466 1.391 . S
C469 C468 1.392 . S
N470 Co414 2.257 . S
N470 C467 1.391 . S
N470 C471 1.388 . S
C471 H442 0.930 . S
C471 C466 1.391 . S
C471 N470 1.388 . S
Co472 O474 2.143 . S
Co472 O480 2.074 . S
Co472 O483 2.093 . S
Co472 O496 2.097 . S
Co472 N513 2.151 . S
Co472 N521 2.214 . S
Co473 O474 2.160 . S
Co473 O479 2.058 . S
Co473 O489 2.057 . S
Co473 O504 2.037 . S
Co473 N508 2.145 . S
Co473 N529 2.257 . S
O474 Co472 2.143 . S
O474 Co473 2.160 . S
C475 O476 1.278 . S
C475 O483 1.224 . S
O476 C475 1.278 . S
C477 O478 1.245 . S
C477 O489 1.232 . S
O478 C477 1.245 . S
O479 Co473 2.058 . S
O479 C505 1.269 . S
O480 Co472 2.074 . S
O480 C505 1.257 . S
H481 C506 0.930 . S
H482 C512 0.930 . S
O483 Co472 2.093 . S
O483 C475 1.224 . S
H484 C516 0.929 . S
H485 C518 0.930 . S
H486 C519 0.930 . S
H487 C517 0.929 . S
H488 C520 0.928 . S
O489 Co473 2.057 . S
O489 C477 1.232 . S
H490 C509 0.929 . S
H491 C510 0.929 . S
H492 C522 0.931 . S
H493 C514 0.929 . S
H494 C523 0.930 . S
H495 C515 0.931 . S
O496 Co472 2.097 . S
O496 C524 1.214 . S
H497 C525 0.929 . S
H498 C526 0.929 . S
H499 C527 0.930 . S
H500 C528 0.929 . S
H501 C530 0.930 . S
H502 C507 0.930 . S
H503 C511 0.930 . S
O504 Co473 2.037 . S
O504 C524 1.234 . S
C505 O479 1.269 . S
C505 O480 1.257 . S
C506 H481 0.930 . S
C506 C509 1.388 . S
C506 C511 1.418 . S
C507 H502 0.930 . S
C507 C510 1.404 . S
C507 C511 1.353 . S
N508 Co473 2.145 . S
N508 C509 1.397 . S
N508 C510 1.334 . S
C509 H490 0.929 . S
C509 C506 1.388 . S
C509 N508 1.397 . S
C510 H491 0.929 . S
C510 C507 1.404 . S
C510 N508 1.334 . S
C511 H503 0.930 . S
C511 C506 1.418 . S
C511 C507 1.353 . S
C512 H482 0.930 . S
C512 N513 1.330 . S
C512 C514 1.446 . S
N513 Co472 2.151 . S
N513 C512 1.330 . S
N513 C517 1.418 . S
C514 H493 0.929 . S
C514 C512 1.446 . S
C514 C515 1.332 . S
C515 H495 0.931 . S
C515 C514 1.332 . S
C515 C516 1.267 . S
C516 H484 0.929 . S
C516 C515 1.267 . S
C516 C517 1.251 . S
C517 H487 0.929 . S
C517 N513 1.418 . S
C517 C516 1.251 . S
C518 H485 0.930 . S
C518 C520 1.406 . S
C518 C523 1.261 . S
C519 H486 0.930 . S
C519 N521 1.325 . S
C519 C522 1.357 . S
C520 H488 0.928 . S
C520 C518 1.406 . S
C520 N521 1.261 . S
N521 Co472 2.214 . S
N521 C519 1.325 . S
N521 C520 1.261 . S
C522 H492 0.931 . S
C522 C519 1.357 . S
C522 C523 1.312 . S
C523 H494 0.930 . S
C523 C518 1.261 . S
C523 C522 1.312 . S
C524 O496 1.214 . S
C524 O504 1.234 . S
C525 H497 0.929 . S
C525 C528 1.391 . S
C525 C530 1.391 . S
C526 H498 0.929 . S
C526 C527 1.390 . S
C526 N529 1.391 . S
C527 H499 0.930 . S
C527 C526 1.390 . S
C527 C528 1.392 . S
C528 H500 0.929 . S
C528 C525 1.391 . S
C528 C527 1.392 . S
N529 Co473 2.257 . S
N529 C526 1.391 . S
N529 C530 1.388 . S
C530 H501 0.930 . S
C530 C525 1.391 . S
C530 N529 1.388 . S
Co531 O533 2.143 . S
Co531 O539 2.074 . S
Co531 O542 2.093 . S
Co531 O555 2.097 . S
Co531 N572 2.151 . S
Co531 N580 2.214 . S
Co532 O533 2.160 . S
Co532 O538 2.058 . S
Co532 O548 2.057 . S
Co532 O563 2.037 . S
Co532 N567 2.145 . S
Co532 N588 2.257 . S
O533 Co531 2.143 . S
O533 Co532 2.160 . S
C534 O535 1.278 . S
C534 O542 1.224 . S
O535 C534 1.278 . S
C536 O537 1.245 . S
C536 O548 1.232 . S
O537 C536 1.245 . S
O538 Co532 2.058 . S
O538 C564 1.269 . S
O539 Co531 2.074 . S
O539 C564 1.257 . S
H540 C565 0.930 . S
H541 C571 0.930 . S
O542 Co531 2.093 . S
O542 C534 1.224 . S
H543 C575 0.929 . S
H544 C577 0.930 . S
H545 C578 0.930 . S
H546 C576 0.929 . S
H547 C579 0.928 . S
O548 Co532 2.057 . S
O548 C536 1.232 . S
H549 C568 0.929 . S
H550 C569 0.929 . S
H551 C581 0.931 . S
H552 C573 0.929 . S
H553 C582 0.930 . S
H554 C574 0.931 . S
O555 Co531 2.097 . S
O555 C583 1.214 . S
H556 C584 0.929 . S
H557 C585 0.929 . S
H558 C586 0.930 . S
H559 C587 0.929 . S
H560 C589 0.930 . S
H561 C566 0.930 . S
H562 C570 0.930 . S
O563 Co532 2.037 . S
O563 C583 1.234 . S
C564 O538 1.269 . S
C564 O539 1.257 . S
C565 H540 0.930 . S
C565 C568 1.388 . S
C565 C570 1.418 . S
C566 H561 0.930 . S
C566 C569 1.404 . S
C566 C570 1.353 . S
N567 Co532 2.145 . S
N567 C568 1.397 . S
N567 C569 1.334 . S
C568 H549 0.929 . S
C568 C565 1.388 . S
C568 N567 1.397 . S
C569 H550 0.929 . S
C569 C566 1.404 . S
C569 N567 1.334 . S
C570 H562 0.930 . S
C570 C565 1.418 . S
C570 C566 1.353 . S
C571 H541 0.930 . S
C571 N572 1.330 . S
C571 C573 1.446 . S
N572 Co531 2.151 . S
N572 C571 1.330 . S
N572 C576 1.418 . S
C573 H552 0.929 . S
C573 C571 1.446 . S
C573 C574 1.332 . S
C574 H554 0.931 . S
C574 C573 1.332 . S
C574 C575 1.267 . S
C575 H543 0.929 . S
C575 C574 1.267 . S
C575 C576 1.251 . S
C576 H546 0.929 . S
C576 N572 1.418 . S
C576 C575 1.251 . S
C577 H544 0.930 . S
C577 C579 1.406 . S
C577 C582 1.261 . S
C578 H545 0.930 . S
C578 N580 1.325 . S
C578 C581 1.357 . S
C579 H547 0.928 . S
C579 C577 1.406 . S
C579 N580 1.261 . S
N580 Co531 2.214 . S
N580 C578 1.325 . S
N580 C579 1.261 . S
C581 H551 0.931 . S
C581 C578 1.357 . S
C581 C582 1.312 . S
C582 H553 0.930 . S
C582 C577 1.261 . S
C582 C581 1.312 . S
C583 O555 1.214 . S
C583 O563 1.234 . S
C584 H556 0.929 . S
C584 C587 1.391 . S
C584 C589 1.391 . S
C585 H557 0.929 . S
C585 C586 1.390 . S
C585 N588 1.391 . S
C586 H558 0.930 . S
C586 C585 1.390 . S
C586 C587 1.392 . S
C587 H559 0.929 . S
C587 C584 1.391 . S
C587 C586 1.392 . S
N588 Co532 2.257 . S
N588 C585 1.391 . S
N588 C589 1.388 . S
C589 H560 0.930 . S
C589 C584 1.391 . S
C589 N588 1.388 . S
Co590 O592 2.143 . S
Co590 O598 2.074 . S
Co590 O601 2.093 . S
Co590 O614 2.097 . S
Co590 N631 2.151 . S
Co590 N639 2.214 . S
Co591 O592 2.160 . S
Co591 O597 2.058 . S
Co591 O607 2.057 . S
Co591 O622 2.037 . S
Co591 N626 2.145 . S
Co591 N647 2.257 . S
O592 Co590 2.143 . S
O592 Co591 2.160 . S
C593 O594 1.278 . S
C593 O601 1.224 . S
O594 C593 1.278 . S
C595 O596 1.245 . S
C595 O607 1.232 . S
O596 C595 1.245 . S
O597 Co591 2.058 . S
O597 C623 1.269 . S
O598 Co590 2.074 . S
O598 C623 1.257 . S
H599 C624 0.930 . S
H600 C630 0.930 . S
O601 Co590 2.093 . S
O601 C593 1.224 . S
H602 C634 0.929 . S
H603 C636 0.930 . S
H604 C637 0.930 . S
H605 C635 0.929 . S
H606 C638 0.928 . S
O607 Co591 2.057 . S
O607 C595 1.232 . S
H608 C627 0.929 . S
H609 C628 0.929 . S
H610 C640 0.931 . S
H611 C632 0.929 . S
H612 C641 0.930 . S
H613 C633 0.931 . S
O614 Co590 2.097 . S
O614 C642 1.214 . S
H615 C643 0.929 . S
H616 C644 0.929 . S
H617 C645 0.930 . S
H618 C646 0.929 . S
H619 C648 0.930 . S
H620 C625 0.930 . S
H621 C629 0.930 . S
O622 Co591 2.037 . S
O622 C642 1.234 . S
C623 O597 1.269 . S
C623 O598 1.257 . S
C624 H599 0.930 . S
C624 C627 1.388 . S
C624 C629 1.418 . S
C625 H620 0.930 . S
C625 C628 1.404 . S
C625 C629 1.353 . S
N626 Co591 2.145 . S
N626 C627 1.397 . S
N626 C628 1.334 . S
C627 H608 0.929 . S
C627 C624 1.388 . S
C627 N626 1.397 . S
C628 H609 0.929 . S
C628 C625 1.404 . S
C628 N626 1.334 . S
C629 H621 0.930 . S
C629 C624 1.418 . S
C629 C625 1.353 . S
C630 H600 0.930 . S
C630 N631 1.330 . S
C630 C632 1.446 . S
N631 Co590 2.151 . S
N631 C630 1.330 . S
N631 C635 1.418 . S
C632 H611 0.929 . S
C632 C630 1.446 . S
C632 C633 1.332 . S
C633 H613 0.931 . S
C633 C632 1.332 . S
C633 C634 1.267 . S
C634 H602 0.929 . S
C634 C633 1.267 . S
C634 C635 1.251 . S
C635 H605 0.929 . S
C635 N631 1.418 . S
C635 C634 1.251 . S
C636 H603 0.930 . S
C636 C638 1.406 . S
C636 C641 1.261 . S
C637 H604 0.930 . S
C637 N639 1.325 . S
C637 C640 1.357 . S
C638 H606 0.928 . S
C638 C636 1.406 . S
C638 N639 1.261 . S
N639 Co590 2.214 . S
N639 C637 1.325 . S
N639 C638 1.261 . S
C640 H610 0.931 . S
C640 C637 1.357 . S
C640 C641 1.312 . S
C641 H612 0.930 . S
C641 C636 1.261 . S
C641 C640 1.312 . S
C642 O614 1.214 . S
C642 O622 1.234 . S
C643 H615 0.929 . S
C643 C646 1.391 . S
C643 C648 1.391 . S
C644 H616 0.929 . S
C644 C645 1.390 . S
C644 N647 1.391 . S
C645 H617 0.930 . S
C645 C644 1.390 . S
C645 C646 1.392 . S
C646 H618 0.929 . S
C646 C643 1.391 . S
C646 C645 1.392 . S
N647 Co591 2.257 . S
N647 C644 1.391 . S
N647 C648 1.388 . S
C648 H619 0.930 . S
C648 C643 1.391 . S
C648 N647 1.388 . S
Co649 O651 2.143 . S
Co649 O657 2.074 . S
Co649 O660 2.093 . S
Co649 O673 2.097 . S
Co649 N690 2.151 . S
Co649 N698 2.214 . S
Co650 O651 2.160 . S
Co650 O656 2.058 . S
Co650 O666 2.057 . S
Co650 O681 2.037 . S
Co650 N685 2.145 . S
Co650 N706 2.257 . S
O651 Co649 2.143 . S
O651 Co650 2.160 . S
C652 O653 1.278 . S
C652 O660 1.224 . S
O653 C652 1.278 . S
C654 O655 1.245 . S
C654 O666 1.232 . S
O655 C654 1.245 . S
O656 Co650 2.058 . S
O656 C682 1.269 . S
O657 Co649 2.074 . S
O657 C682 1.257 . S
H658 C683 0.930 . S
H659 C689 0.930 . S
O660 Co649 2.093 . S
O660 C652 1.224 . S
H661 C693 0.929 . S
H662 C695 0.930 . S
H663 C696 0.930 . S
H664 C694 0.929 . S
H665 C697 0.928 . S
O666 Co650 2.057 . S
O666 C654 1.232 . S
H667 C686 0.929 . S
H668 C687 0.929 . S
H669 C699 0.931 . S
H670 C691 0.929 . S
H671 C700 0.930 . S
H672 C692 0.931 . S
O673 Co649 2.097 . S
O673 C701 1.214 . S
H674 C702 0.929 . S
H675 C703 0.929 . S
H676 C704 0.930 . S
H677 C705 0.929 . S
H678 C707 0.930 . S
H679 C684 0.930 . S
H680 C688 0.930 . S
O681 Co650 2.037 . S
O681 C701 1.234 . S
C682 O656 1.269 . S
C682 O657 1.257 . S
C683 H658 0.930 . S
C683 C686 1.388 . S
C683 C688 1.418 . S
C684 H679 0.930 . S
C684 C687 1.404 . S
C684 C688 1.353 . S
N685 Co650 2.145 . S
N685 C686 1.397 . S
N685 C687 1.334 . S
C686 H667 0.929 . S
C686 C683 1.388 . S
C686 N685 1.397 . S
C687 H668 0.929 . S
C687 C684 1.404 . S
C687 N685 1.334 . S
C688 H680 0.930 . S
C688 C683 1.418 . S
C688 C684 1.353 . S
C689 H659 0.930 . S
C689 N690 1.330 . S
C689 C691 1.446 . S
N690 Co649 2.151 . S
N690 C689 1.330 . S
N690 C694 1.418 . S
C691 H670 0.929 . S
C691 C689 1.446 . S
C691 C692 1.332 . S
C692 H672 0.931 . S
C692 C691 1.332 . S
C692 C693 1.267 . S
C693 H661 0.929 . S
C693 C692 1.267 . S
C693 C694 1.251 . S
C694 H664 0.929 . S
C694 N690 1.418 . S
C694 C693 1.251 . S
C695 H662 0.930 . S
C695 C697 1.406 . S
C695 C700 1.261 . S
C696 H663 0.930 . S
C696 N698 1.325 . S
C696 C699 1.357 . S
C697 H665 0.928 . S
C697 C695 1.406 . S
C697 N698 1.261 . S
N698 Co649 2.214 . S
N698 C696 1.325 . S
N698 C697 1.261 . S
C699 H669 0.931 . S
C699 C696 1.357 . S
C699 C700 1.312 . S
C700 H671 0.930 . S
C700 C695 1.261 . S
C700 C699 1.312 . S
C701 O673 1.214 . S
C701 O681 1.234 . S
C702 H674 0.929 . S
C702 C705 1.391 . S
C702 C707 1.391 . S
C703 H675 0.929 . S
C703 C704 1.390 . S
C703 N706 1.391 . S
C704 H676 0.930 . S
C704 C703 1.390 . S
C704 C705 1.392 . S
C705 H677 0.929 . S
C705 C702 1.391 . S
C705 C704 1.392 . S
N706 Co650 2.257 . S
N706 C703 1.391 . S
N706 C707 1.388 . S
C707 H678 0.930 . S
C707 C702 1.391 . S
C707 N706 1.388 . S
Co708 O710 2.143 . S
Co708 O716 2.074 . S
Co708 O719 2.093 . S
Co708 O732 2.097 . S
Co708 N749 2.151 . S
Co708 N757 2.214 . S
Co709 O710 2.160 . S
Co709 O715 2.058 . S
Co709 O725 2.057 . S
Co709 O740 2.037 . S
Co709 N744 2.145 . S
Co709 N765 2.257 . S
O710 Co708 2.143 . S
O710 Co709 2.160 . S
C711 O712 1.278 . S
C711 O719 1.224 . S
O712 C711 1.278 . S
C713 O714 1.245 . S
C713 O725 1.232 . S
O714 C713 1.245 . S
O715 Co709 2.058 . S
O715 C741 1.269 . S
O716 Co708 2.074 . S
O716 C741 1.257 . S
H717 C742 0.930 . S
H718 C748 0.930 . S
O719 Co708 2.093 . S
O719 C711 1.224 . S
H720 C752 0.929 . S
H721 C754 0.930 . S
H722 C755 0.930 . S
H723 C753 0.929 . S
H724 C756 0.928 . S
O725 Co709 2.057 . S
O725 C713 1.232 . S
H726 C745 0.929 . S
H727 C746 0.929 . S
H728 C758 0.931 . S
H729 C750 0.929 . S
H730 C759 0.930 . S
H731 C751 0.931 . S
O732 Co708 2.097 . S
O732 C760 1.214 . S
H733 C761 0.929 . S
H734 C762 0.929 . S
H735 C763 0.930 . S
H736 C764 0.929 . S
H737 C766 0.930 . S
H738 C743 0.930 . S
H739 C747 0.930 . S
O740 Co709 2.037 . S
O740 C760 1.234 . S
C741 O715 1.269 . S
C741 O716 1.257 . S
C742 H717 0.930 . S
C742 C745 1.388 . S
C742 C747 1.418 . S
C743 H738 0.930 . S
C743 C746 1.404 . S
C743 C747 1.353 . S
N744 Co709 2.145 . S
N744 C745 1.397 . S
N744 C746 1.334 . S
C745 H726 0.929 . S
C745 C742 1.388 . S
C745 N744 1.397 . S
C746 H727 0.929 . S
C746 C743 1.404 . S
C746 N744 1.334 . S
C747 H739 0.930 . S
C747 C742 1.418 . S
C747 C743 1.353 . S
C748 H718 0.930 . S
C748 N749 1.330 . S
C748 C750 1.446 . S
N749 Co708 2.151 . S
N749 C748 1.330 . S
N749 C753 1.418 . S
C750 H729 0.929 . S
C750 C748 1.446 . S
C750 C751 1.332 . S
C751 H731 0.931 . S
C751 C750 1.332 . S
C751 C752 1.267 . S
C752 H720 0.929 . S
C752 C751 1.267 . S
C752 C753 1.251 . S
C753 H723 0.929 . S
C753 N749 1.418 . S
C753 C752 1.251 . S
C754 H721 0.930 . S
C754 C756 1.406 . S
C754 C759 1.261 . S
C755 H722 0.930 . S
C755 N757 1.325 . S
C755 C758 1.357 . S
C756 H724 0.928 . S
C756 C754 1.406 . S
C756 N757 1.261 . S
N757 Co708 2.214 . S
N757 C755 1.325 . S
N757 C756 1.261 . S
C758 H728 0.931 . S
C758 C755 1.357 . S
C758 C759 1.312 . S
C759 H730 0.930 . S
C759 C754 1.261 . S
C759 C758 1.312 . S
C760 O732 1.214 . S
C760 O740 1.234 . S
C761 H733 0.929 . S
C761 C764 1.391 . S
C761 C766 1.391 . S
C762 H734 0.929 . S
C762 C763 1.390 . S
C762 N765 1.391 . S
C763 H735 0.930 . S
C763 C762 1.390 . S
C763 C764 1.392 . S
C764 H736 0.929 . S
C764 C761 1.391 . S
C764 C763 1.392 . S
N765 Co709 2.257 . S
N765 C762 1.391 . S
N765 C766 1.388 . S
C766 H737 0.930 . S
C766 C761 1.391 . S
C766 N765 1.388 . S
Co767 O769 2.143 . S
Co767 O775 2.074 . S
Co767 O778 2.093 . S
Co767 O791 2.097 . S
Co767 N808 2.151 . S
Co767 N816 2.214 . S
Co768 O769 2.160 . S
Co768 O774 2.058 . S
Co768 O784 2.057 . S
Co768 O799 2.037 . S
Co768 N803 2.145 . S
Co768 N824 2.257 . S
O769 Co767 2.143 . S
O769 Co768 2.160 . S
C770 O771 1.278 . S
C770 O778 1.224 . S
O771 C770 1.278 . S
C772 O773 1.245 . S
C772 O784 1.232 . S
O773 C772 1.245 . S
O774 Co768 2.058 . S
O774 C800 1.269 . S
O775 Co767 2.074 . S
O775 C800 1.257 . S
H776 C801 0.930 . S
H777 C807 0.930 . S
O778 Co767 2.093 . S
O778 C770 1.224 . S
H779 C811 0.929 . S
H780 C813 0.930 . S
H781 C814 0.930 . S
H782 C812 0.929 . S
H783 C815 0.928 . S
O784 Co768 2.057 . S
O784 C772 1.232 . S
H785 C804 0.929 . S
H786 C805 0.929 . S
H787 C817 0.931 . S
H788 C809 0.929 . S
H789 C818 0.930 . S
H790 C810 0.931 . S
O791 Co767 2.097 . S
O791 C819 1.214 . S
H792 C820 0.929 . S
H793 C821 0.929 . S
H794 C822 0.930 . S
H795 C823 0.929 . S
H796 C825 0.930 . S
H797 C802 0.930 . S
H798 C806 0.930 . S
O799 Co768 2.037 . S
O799 C819 1.234 . S
C800 O774 1.269 . S
C800 O775 1.257 . S
C801 H776 0.930 . S
C801 C804 1.388 . S
C801 C806 1.418 . S
C802 H797 0.930 . S
C802 C805 1.404 . S
C802 C806 1.353 . S
N803 Co768 2.145 . S
N803 C804 1.397 . S
N803 C805 1.334 . S
C804 H785 0.929 . S
C804 C801 1.388 . S
C804 N803 1.397 . S
C805 H786 0.929 . S
C805 C802 1.404 . S
C805 N803 1.334 . S
C806 H798 0.930 . S
C806 C801 1.418 . S
C806 C802 1.353 . S
C807 H777 0.930 . S
C807 N808 1.330 . S
C807 C809 1.446 . S
N808 Co767 2.151 . S
N808 C807 1.330 . S
N808 C812 1.418 . S
C809 H788 0.929 . S
C809 C807 1.446 . S
C809 C810 1.332 . S
C810 H790 0.931 . S
C810 C809 1.332 . S
C810 C811 1.267 . S
C811 H779 0.929 . S
C811 C810 1.267 . S
C811 C812 1.251 . S
C812 H782 0.929 . S
C812 N808 1.418 . S
C812 C811 1.251 . S
C813 H780 0.930 . S
C813 C815 1.406 . S
C813 C818 1.261 . S
C814 H781 0.930 . S
C814 N816 1.325 . S
C814 C817 1.357 . S
C815 H783 0.928 . S
C815 C813 1.406 . S
C815 N816 1.261 . S
N816 Co767 2.214 . S
N816 C814 1.325 . S
N816 C815 1.261 . S
C817 H787 0.931 . S
C817 C814 1.357 . S
C817 C818 1.312 . S
C818 H789 0.930 . S
C818 C813 1.261 . S
C818 C817 1.312 . S
C819 O791 1.214 . S
C819 O799 1.234 . S
C820 H792 0.929 . S
C820 C823 1.391 . S
C820 C825 1.391 . S
C821 H793 0.929 . S
C821 C822 1.390 . S
C821 N824 1.391 . S
C822 H794 0.930 . S
C822 C821 1.390 . S
C822 C823 1.392 . S
C823 H795 0.929 . S
C823 C820 1.391 . S
C823 C822 1.392 . S
N824 Co768 2.257 . S
N824 C821 1.391 . S
N824 C825 1.388 . S
C825 H796 0.930 . S
C825 C820 1.391 . S
C825 N824 1.388 . S
Co826 O828 2.143 . S
Co826 O834 2.074 . S
Co826 O837 2.093 . S
Co826 O850 2.097 . S
Co826 N867 2.151 . S
Co826 N875 2.214 . S
Co827 O828 2.160 . S
Co827 O833 2.058 . S
Co827 O843 2.057 . S
Co827 O858 2.037 . S
Co827 N862 2.145 . S
Co827 N883 2.257 . S
O828 Co826 2.143 . S
O828 Co827 2.160 . S
C829 O830 1.278 . S
C829 O837 1.224 . S
O830 C829 1.278 . S
C831 O832 1.245 . S
C831 O843 1.232 . S
O832 C831 1.245 . S
O833 Co827 2.058 . S
O833 C859 1.269 . S
O834 Co826 2.074 . S
O834 C859 1.257 . S
H835 C860 0.930 . S
H836 C866 0.930 . S
O837 Co826 2.093 . S
O837 C829 1.224 . S
H838 C870 0.929 . S
H839 C872 0.930 . S
H840 C873 0.930 . S
H841 C871 0.929 . S
H842 C874 0.928 . S
O843 Co827 2.057 . S
O843 C831 1.232 . S
H844 C863 0.929 . S
H845 C864 0.929 . S
H846 C876 0.931 . S
H847 C868 0.929 . S
H848 C877 0.930 . S
H849 C869 0.931 . S
O850 Co826 2.097 . S
O850 C878 1.214 . S
H851 C879 0.929 . S
H852 C880 0.929 . S
H853 C881 0.930 . S
H854 C882 0.929 . S
H855 C884 0.930 . S
H856 C861 0.930 . S
H857 C865 0.930 . S
O858 Co827 2.037 . S
O858 C878 1.234 . S
C859 O833 1.269 . S
C859 O834 1.257 . S
C860 H835 0.930 . S
C860 C863 1.388 . S
C860 C865 1.418 . S
C861 H856 0.930 . S
C861 C864 1.404 . S
C861 C865 1.353 . S
N862 Co827 2.145 . S
N862 C863 1.397 . S
N862 C864 1.334 . S
C863 H844 0.929 . S
C863 C860 1.388 . S
C863 N862 1.397 . S
C864 H845 0.929 . S
C864 C861 1.404 . S
C864 N862 1.334 . S
C865 H857 0.930 . S
C865 C860 1.418 . S
C865 C861 1.353 . S
C866 H836 0.930 . S
C866 N867 1.330 . S
C866 C868 1.446 . S
N867 Co826 2.151 . S
N867 C866 1.330 . S
N867 C871 1.418 . S
C868 H847 0.929 . S
C868 C866 1.446 . S
C868 C869 1.332 . S
C869 H849 0.931 . S
C869 C868 1.332 . S
C869 C870 1.267 . S
C870 H838 0.929 . S
C870 C869 1.267 . S
C870 C871 1.251 . S
C871 H841 0.929 . S
C871 N867 1.418 . S
C871 C870 1.251 . S
C872 H839 0.930 . S
C872 C874 1.406 . S
C872 C877 1.261 . S
C873 H840 0.930 . S
C873 N875 1.325 . S
C873 C876 1.357 . S
C874 H842 0.928 . S
C874 C872 1.406 . S
C874 N875 1.261 . S
N875 Co826 2.214 . S
N875 C873 1.325 . S
N875 C874 1.261 . S
C876 H846 0.931 . S
C876 C873 1.357 . S
C876 C877 1.312 . S
C877 H848 0.930 . S
C877 C872 1.261 . S
C877 C876 1.312 . S
C878 O850 1.214 . S
C878 O858 1.234 . S
C879 H851 0.929 . S
C879 C882 1.391 . S
C879 C884 1.391 . S
C880 H852 0.929 . S
C880 C881 1.390 . S
C880 N883 1.391 . S
C881 H853 0.930 . S
C881 C880 1.390 . S
C881 C882 1.392 . S
C882 H854 0.929 . S
C882 C879 1.391 . S
C882 C881 1.392 . S
N883 Co827 2.257 . S
N883 C880 1.391 . S
N883 C884 1.388 . S
C884 H855 0.930 . S
C884 C879 1.391 . S
C884 N883 1.388 . S
Co885 O887 2.143 . S
Co885 O893 2.074 . S
Co885 O896 2.093 . S
Co885 O909 2.097 . S
Co885 N926 2.151 . S
Co885 N934 2.214 . S
Co886 O887 2.160 . S
Co886 O892 2.058 . S
Co886 O902 2.057 . S
Co886 O917 2.037 . S
Co886 N921 2.145 . S
Co886 N942 2.257 . S
O887 Co885 2.143 . S
O887 Co886 2.160 . S
C888 O889 1.278 . S
C888 O896 1.224 . S
O889 C888 1.278 . S
C890 O891 1.245 . S
C890 O902 1.232 . S
O891 C890 1.245 . S
O892 Co886 2.058 . S
O892 C918 1.269 . S
O893 Co885 2.074 . S
O893 C918 1.257 . S
H894 C919 0.930 . S
H895 C925 0.930 . S
O896 Co885 2.093 . S
O896 C888 1.224 . S
H897 C929 0.929 . S
H898 C931 0.930 . S
H899 C932 0.930 . S
H900 C930 0.929 . S
H901 C933 0.928 . S
O902 Co886 2.057 . S
O902 C890 1.232 . S
H903 C922 0.929 . S
H904 C923 0.929 . S
H905 C935 0.931 . S
H906 C927 0.929 . S
H907 C936 0.930 . S
H908 C928 0.931 . S
O909 Co885 2.097 . S
O909 C937 1.214 . S
H910 C938 0.929 . S
H911 C939 0.929 . S
H912 C940 0.930 . S
H913 C941 0.929 . S
H914 C943 0.930 . S
H915 C920 0.930 . S
H916 C924 0.930 . S
O917 Co886 2.037 . S
O917 C937 1.234 . S
C918 O892 1.269 . S
C918 O893 1.257 . S
C919 H894 0.930 . S
C919 C922 1.388 . S
C919 C924 1.418 . S
C920 H915 0.930 . S
C920 C923 1.404 . S
C920 C924 1.353 . S
N921 Co886 2.145 . S
N921 C922 1.397 . S
N921 C923 1.334 . S
C922 H903 0.929 . S
C922 C919 1.388 . S
C922 N921 1.397 . S
C923 H904 0.929 . S
C923 C920 1.404 . S
C923 N921 1.334 . S
C924 H916 0.930 . S
C924 C919 1.418 . S
C924 C920 1.353 . S
C925 H895 0.930 . S
C925 N926 1.330 . S
C925 C927 1.446 . S
N926 Co885 2.151 . S
N926 C925 1.330 . S
N926 C930 1.418 . S
C927 H906 0.929 . S
C927 C925 1.446 . S
C927 C928 1.332 . S
C928 H908 0.931 . S
C928 C927 1.332 . S
C928 C929 1.267 . S
C929 H897 0.929 . S
C929 C928 1.267 . S
C929 C930 1.251 . S
C930 H900 0.929 . S
C930 N926 1.418 . S
C930 C929 1.251 . S
C931 H898 0.930 . S
C931 C933 1.406 . S
C931 C936 1.261 . S
C932 H899 0.930 . S
C932 N934 1.325 . S
C932 C935 1.357 . S
C933 H901 0.928 . S
C933 C931 1.406 . S
C933 N934 1.261 . S
N934 Co885 2.214 . S
N934 C932 1.325 . S
N934 C933 1.261 . S
C935 H905 0.931 . S
C935 C932 1.357 . S
C935 C936 1.312 . S
C936 H907 0.930 . S
C936 C931 1.261 . S
C936 C935 1.312 . S
C937 O909 1.214 . S
C937 O917 1.234 . S
C938 H910 0.929 . S
C938 C941 1.391 . S
C938 C943 1.391 . S
C939 H911 0.929 . S
C939 C940 1.390 . S
C939 N942 1.391 . S
C940 H912 0.930 . S
C940 C939 1.390 . S
C940 C941 1.392 . S
C941 H913 0.929 . S
C941 C938 1.391 . S
C941 C940 1.392 . S
N942 Co886 2.257 . S
N942 C939 1.391 . S
N942 C943 1.388 . S
C943 H914 0.930 . S
C943 C938 1.391 . S
C943 N942 1.388 . S
Co944 O946 2.143 . S
Co944 O952 2.074 . S
Co944 O955 2.093 . S
Co944 O968 2.097 . S
Co944 N985 2.151 . S
Co944 N993 2.214 . S
Co945 O946 2.160 . S
Co945 O951 2.058 . S
Co945 O961 2.057 . S
Co945 O976 2.037 . S
Co945 N980 2.145 . S
Co945 N1001 2.257 . S
O946 Co944 2.143 . S
O946 Co945 2.160 . S
C947 O948 1.278 . S
C947 O955 1.224 . S
O948 C947 1.278 . S
C949 O950 1.245 . S
C949 O961 1.232 . S
O950 C949 1.245 . S
O951 Co945 2.058 . S
O951 C977 1.269 . S
O952 Co944 2.074 . S
O952 C977 1.257 . S
H953 C978 0.930 . S
H954 C984 0.930 . S
O955 Co944 2.093 . S
O955 C947 1.224 . S
H956 C988 0.929 . S
H957 C990 0.930 . S
H958 C991 0.930 . S
H959 C989 0.929 . S
H960 C992 0.928 . S
O961 Co945 2.057 . S
O961 C949 1.232 . S
H962 C981 0.929 . S
H963 C982 0.929 . S
H964 C994 0.931 . S
H965 C986 0.929 . S
H966 C995 0.930 . S
H967 C987 0.931 . S
O968 Co944 2.097 . S
O968 C996 1.214 . S
H969 C997 0.929 . S
H970 C998 0.929 . S
H971 C999 0.930 . S
H972 C1000 0.929 . S
H973 C1002 0.930 . S
H974 C979 0.930 . S
H975 C983 0.930 . S
O976 Co945 2.037 . S
O976 C996 1.234 . S
C977 O951 1.269 . S
C977 O952 1.257 . S
C978 H953 0.930 . S
C978 C981 1.388 . S
C978 C983 1.418 . S
C979 H974 0.930 . S
C979 C982 1.404 . S
C979 C983 1.353 . S
N980 Co945 2.145 . S
N980 C981 1.397 . S
N980 C982 1.334 . S
C981 H962 0.929 . S
C981 C978 1.388 . S
C981 N980 1.397 . S
C982 H963 0.929 . S
C982 C979 1.404 . S
C982 N980 1.334 . S
C983 H975 0.930 . S
C983 C978 1.418 . S
C983 C979 1.353 . S
C984 H954 0.930 . S
C984 N985 1.330 . S
C984 C986 1.446 . S
N985 Co944 2.151 . S
N985 C984 1.330 . S
N985 C989 1.418 . S
C986 H965 0.929 . S
C986 C984 1.446 . S
C986 C987 1.332 . S
C987 H967 0.931 . S
C987 C986 1.332 . S
C987 C988 1.267 . S
C988 H956 0.929 . S
C988 C987 1.267 . S
C988 C989 1.251 . S
C989 H959 0.929 . S
C989 N985 1.418 . S
C989 C988 1.251 . S
C990 H957 0.930 . S
C990 C992 1.406 . S
C990 C995 1.261 . S
C991 H958 0.930 . S
C991 N993 1.325 . S
C991 C994 1.357 . S
C992 H960 0.928 . S
C992 C990 1.406 . S
C992 N993 1.261 . S
N993 Co944 2.214 . S
N993 C991 1.325 . S
N993 C992 1.261 . S
C994 H964 0.931 . S
C994 C991 1.357 . S
C994 C995 1.312 . S
C995 H966 0.930 . S
C995 C990 1.261 . S
C995 C994 1.312 . S
C996 O968 1.214 . S
C996 O976 1.234 . S
C997 H969 0.929 . S
C997 C1000 1.391 . S
C997 C1002 1.391 . S
C998 H970 0.929 . S
C998 C999 1.390 . S
C998 N1001 1.391 . S
C999 H971 0.930 . S
C999 C998 1.390 . S
C999 C1000 1.392 . S
C1000 H972 0.929 . S
C1000 C997 1.391 . S
C1000 C999 1.392 . S
N1001 Co945 2.257 . S
N1001 C998 1.391 . S
N1001 C1002 1.388 . S
C1002 H973 0.930 . S
C1002 C997 1.391 . S
C1002 N1001 1.388 . S
Co1003 O1005 2.143 . S
Co1003 O1011 2.074 . S
Co1003 O1014 2.093 . S
Co1003 O1027 2.097 . S
Co1003 N1044 2.151 . S
Co1003 N1052 2.214 . S
Co1004 O1005 2.160 . S
Co1004 O1010 2.058 . S
Co1004 O1020 2.057 . S
Co1004 O1035 2.037 . S
Co1004 N1039 2.145 . S
Co1004 N1060 2.257 . S
O1005 Co1003 2.143 . S
O1005 Co1004 2.160 . S
C1006 O1007 1.278 . S
C1006 O1014 1.224 . S
O1007 C1006 1.278 . S
C1008 O1009 1.245 . S
C1008 O1020 1.232 . S
O1009 C1008 1.245 . S
O1010 Co1004 2.058 . S
O1010 C1036 1.269 . S
O1011 Co1003 2.074 . S
O1011 C1036 1.257 . S
H1012 C1037 0.930 . S
H1013 C1043 0.930 . S
O1014 Co1003 2.093 . S
O1014 C1006 1.224 . S
H1015 C1047 0.929 . S
H1016 C1049 0.930 . S
H1017 C1050 0.930 . S
H1018 C1048 0.929 . S
H1019 C1051 0.928 . S
O1020 Co1004 2.057 . S
O1020 C1008 1.232 . S
H1021 C1040 0.929 . S
H1022 C1041 0.929 . S
H1023 C1053 0.931 . S
H1024 C1045 0.929 . S
H1025 C1054 0.930 . S
H1026 C1046 0.931 . S
O1027 Co1003 2.097 . S
O1027 C1055 1.214 . S
H1028 C1056 0.929 . S
H1029 C1057 0.929 . S
H1030 C1058 0.930 . S
H1031 C1059 0.929 . S
H1032 C1061 0.930 . S
H1033 C1038 0.930 . S
H1034 C1042 0.930 . S
O1035 Co1004 2.037 . S
O1035 C1055 1.234 . S
C1036 O1010 1.269 . S
C1036 O1011 1.257 . S
C1037 H1012 0.930 . S
C1037 C1040 1.388 . S
C1037 C1042 1.418 . S
C1038 H1033 0.930 . S
C1038 C1041 1.404 . S
C1038 C1042 1.353 . S
N1039 Co1004 2.145 . S
N1039 C1040 1.397 . S
N1039 C1041 1.334 . S
C1040 H1021 0.929 . S
C1040 C1037 1.388 . S
C1040 N1039 1.397 . S
C1041 H1022 0.929 . S
C1041 C1038 1.404 . S
C1041 N1039 1.334 . S
C1042 H1034 0.930 . S
C1042 C1037 1.418 . S
C1042 C1038 1.353 . S
C1043 H1013 0.930 . S
C1043 N1044 1.330 . S
C1043 C1045 1.446 . S
N1044 Co1003 2.151 . S
N1044 C1043 1.330 . S
N1044 C1048 1.418 . S
C1045 H1024 0.929 . S
C1045 C1043 1.446 . S
C1045 C1046 1.332 . S
C1046 H1026 0.931 . S
C1046 C1045 1.332 . S
C1046 C1047 1.267 . S
C1047 H1015 0.929 . S
C1047 C1046 1.267 . S
C1047 C1048 1.251 . S
C1048 H1018 0.929 . S
C1048 N1044 1.418 . S
C1048 C1047 1.251 . S
C1049 H1016 0.930 . S
C1049 C1051 1.406 . S
C1049 C1054 1.261 . S
C1050 H1017 0.930 . S
C1050 N1052 1.325 . S
C1050 C1053 1.357 . S
C1051 H1019 0.928 . S
C1051 C1049 1.406 . S
C1051 N1052 1.261 . S
N1052 Co1003 2.214 . S
N1052 C1050 1.325 . S
N1052 C1051 1.261 . S
C1053 H1023 0.931 . S
C1053 C1050 1.357 . S
C1053 C1054 1.312 . S
C1054 H1025 0.930 . S
C1054 C1049 1.261 . S
C1054 C1053 1.312 . S
C1055 O1027 1.214 . S
C1055 O1035 1.234 . S
C1056 H1028 0.929 . S
C1056 C1059 1.391 . S
C1056 C1061 1.391 . S
C1057 H1029 0.929 . S
C1057 C1058 1.390 . S
C1057 N1060 1.391 . S
C1058 H1030 0.930 . S
C1058 C1057 1.390 . S
C1058 C1059 1.392 . S
C1059 H1031 0.929 . S
C1059 C1056 1.391 . S
C1059 C1058 1.392 . S
N1060 Co1004 2.257 . S
N1060 C1057 1.391 . S
N1060 C1061 1.388 . S
C1061 H1032 0.930 . S
C1061 C1056 1.391 . S
C1061 N1060 1.388 . S
Co1062 O1064 2.143 . S
Co1062 O1070 2.074 . S
Co1062 O1073 2.093 . S
Co1062 O1086 2.097 . S
Co1062 N1103 2.151 . S
Co1062 N1111 2.214 . S
Co1063 O1064 2.160 . S
Co1063 O1069 2.058 . S
Co1063 O1079 2.057 . S
Co1063 O1094 2.037 . S
Co1063 N1098 2.145 . S
Co1063 N1119 2.257 . S
O1064 Co1062 2.143 . S
O1064 Co1063 2.160 . S
C1065 O1066 1.278 . S
C1065 O1073 1.224 . S
O1066 C1065 1.278 . S
C1067 O1068 1.245 . S
C1067 O1079 1.232 . S
O1068 C1067 1.245 . S
O1069 Co1063 2.058 . S
O1069 C1095 1.269 . S
O1070 Co1062 2.074 . S
O1070 C1095 1.257 . S
H1071 C1096 0.930 . S
H1072 C1102 0.930 . S
O1073 Co1062 2.093 . S
O1073 C1065 1.224 . S
H1074 C1106 0.929 . S
H1075 C1108 0.930 . S
H1076 C1109 0.930 . S
H1077 C1107 0.929 . S
H1078 C1110 0.928 . S
O1079 Co1063 2.057 . S
O1079 C1067 1.232 . S
H1080 C1099 0.929 . S
H1081 C1100 0.929 . S
H1082 C1112 0.931 . S
H1083 C1104 0.929 . S
H1084 C1113 0.930 . S
H1085 C1105 0.931 . S
O1086 Co1062 2.097 . S
O1086 C1114 1.214 . S
H1087 C1115 0.929 . S
H1088 C1116 0.929 . S
H1089 C1117 0.930 . S
H1090 C1118 0.929 . S
H1091 C1120 0.930 . S
H1092 C1097 0.930 . S
H1093 C1101 0.930 . S
O1094 Co1063 2.037 . S
O1094 C1114 1.234 . S
C1095 O1069 1.269 . S
C1095 O1070 1.257 . S
C1096 H1071 0.930 . S
C1096 C1099 1.388 . S
C1096 C1101 1.418 . S
C1097 H1092 0.930 . S
C1097 C1100 1.404 . S
C1097 C1101 1.353 . S
N1098 Co1063 2.145 . S
N1098 C1099 1.397 . S
N1098 C1100 1.334 . S
C1099 H1080 0.929 . S
C1099 C1096 1.388 . S
C1099 N1098 1.397 . S
C1100 H1081 0.929 . S
C1100 C1097 1.404 . S
C1100 N1098 1.334 . S
C1101 H1093 0.930 . S
C1101 C1096 1.418 . S
C1101 C1097 1.353 . S
C1102 H1072 0.930 . S
C1102 N1103 1.330 . S
C1102 C1104 1.446 . S
N1103 Co1062 2.151 . S
N1103 C1102 1.330 . S
N1103 C1107 1.418 . S
C1104 H1083 0.929 . S
C1104 C1102 1.446 . S
C1104 C1105 1.332 . S
C1105 H1085 0.931 . S
C1105 C1104 1.332 . S
C1105 C1106 1.267 . S
C1106 H1074 0.929 . S
C1106 C1105 1.267 . S
C1106 C1107 1.251 . S
C1107 H1077 0.929 . S
C1107 N1103 1.418 . S
C1107 C1106 1.251 . S
C1108 H1075 0.930 . S
C1108 C1110 1.406 . S
C1108 C1113 1.261 . S
C1109 H1076 0.930 . S
C1109 N1111 1.325 . S
C1109 C1112 1.357 . S
C1110 H1078 0.928 . S
C1110 C1108 1.406 . S
C1110 N1111 1.261 . S
N1111 Co1062 2.214 . S
N1111 C1109 1.325 . S
N1111 C1110 1.261 . S
C1112 H1082 0.931 . S
C1112 C1109 1.357 . S
C1112 C1113 1.312 . S
C1113 H1084 0.930 . S
C1113 C1108 1.261 . S
C1113 C1112 1.312 . S
C1114 O1086 1.214 . S
C1114 O1094 1.234 . S
C1115 H1087 0.929 . S
C1115 C1118 1.391 . S
C1115 C1120 1.391 . S
C1116 H1088 0.929 . S
C1116 C1117 1.390 . S
C1116 N1119 1.391 . S
C1117 H1089 0.930 . S
C1117 C1116 1.390 . S
C1117 C1118 1.392 . S
C1118 H1090 0.929 . S
C1118 C1115 1.391 . S
C1118 C1117 1.392 . S
N1119 Co1063 2.257 . S
N1119 C1116 1.391 . S
N1119 C1120 1.388 . S
C1120 H1091 0.930 . S
C1120 C1115 1.391 . S
C1120 N1119 1.388 . S
Co1121 O1123 2.143 . S
Co1121 O1129 2.074 . S
Co1121 O1132 2.093 . S
Co1121 O1145 2.097 . S
Co1121 N1162 2.151 . S
Co1121 N1170 2.214 . S
Co1122 O1123 2.160 . S
Co1122 O1128 2.058 . S
Co1122 O1138 2.057 . S
Co1122 O1153 2.037 . S
Co1122 N1157 2.145 . S
Co1122 N1178 2.257 . S
O1123 Co1121 2.143 . S
O1123 Co1122 2.160 . S
C1124 O1125 1.278 . S
C1124 O1132 1.224 . S
O1125 C1124 1.278 . S
C1126 O1127 1.245 . S
C1126 O1138 1.232 . S
O1127 C1126 1.245 . S
O1128 Co1122 2.058 . S
O1128 C1154 1.269 . S
O1129 Co1121 2.074 . S
O1129 C1154 1.257 . S
H1130 C1155 0.930 . S
H1131 C1161 0.930 . S
O1132 Co1121 2.093 . S
O1132 C1124 1.224 . S
H1133 C1165 0.929 . S
H1134 C1167 0.930 . S
H1135 C1168 0.930 . S
H1136 C1166 0.929 . S
H1137 C1169 0.928 . S
O1138 Co1122 2.057 . S
O1138 C1126 1.232 . S
H1139 C1158 0.929 . S
H1140 C1159 0.929 . S
H1141 C1171 0.931 . S
H1142 C1163 0.929 . S
H1143 C1172 0.930 . S
H1144 C1164 0.931 . S
O1145 Co1121 2.097 . S
O1145 C1173 1.214 . S
H1146 C1174 0.929 . S
H1147 C1175 0.929 . S
H1148 C1176 0.930 . S
H1149 C1177 0.929 . S
H1150 C1179 0.930 . S
H1151 C1156 0.930 . S
H1152 C1160 0.930 . S
O1153 Co1122 2.037 . S
O1153 C1173 1.234 . S
C1154 O1128 1.269 . S
C1154 O1129 1.257 . S
C1155 H1130 0.930 . S
C1155 C1158 1.388 . S
C1155 C1160 1.418 . S
C1156 H1151 0.930 . S
C1156 C1159 1.404 . S
C1156 C1160 1.353 . S
N1157 Co1122 2.145 . S
N1157 C1158 1.397 . S
N1157 C1159 1.334 . S
C1158 H1139 0.929 . S
C1158 C1155 1.388 . S
C1158 N1157 1.397 . S
C1159 H1140 0.929 . S
C1159 C1156 1.404 . S
C1159 N1157 1.334 . S
C1160 H1152 0.930 . S
C1160 C1155 1.418 . S
C1160 C1156 1.353 . S
C1161 H1131 0.930 . S
C1161 N1162 1.330 . S
C1161 C1163 1.446 . S
N1162 Co1121 2.151 . S
N1162 C1161 1.330 . S
N1162 C1166 1.418 . S
C1163 H1142 0.929 . S
C1163 C1161 1.446 . S
C1163 C1164 1.332 . S
C1164 H1144 0.931 . S
C1164 C1163 1.332 . S
C1164 C1165 1.267 . S
C1165 H1133 0.929 . S
C1165 C1164 1.267 . S
C1165 C1166 1.251 . S
C1166 H1136 0.929 . S
C1166 N1162 1.418 . S
C1166 C1165 1.251 . S
C1167 H1134 0.930 . S
C1167 C1169 1.406 . S
C1167 C1172 1.261 . S
C1168 H1135 0.930 . S
C1168 N1170 1.325 . S
C1168 C1171 1.357 . S
C1169 H1137 0.928 . S
C1169 C1167 1.406 . S
C1169 N1170 1.261 . S
N1170 Co1121 2.214 . S
N1170 C1168 1.325 . S
N1170 C1169 1.261 . S
C1171 H1141 0.931 . S
C1171 C1168 1.357 . S
C1171 C1172 1.312 . S
C1172 H1143 0.930 . S
C1172 C1167 1.261 . S
C1172 C1171 1.312 . S
C1173 O1145 1.214 . S
C1173 O1153 1.234 . S
C1174 H1146 0.929 . S
C1174 C1177 1.391 . S
C1174 C1179 1.391 . S
C1175 H1147 0.929 . S
C1175 C1176 1.390 . S
C1175 N1178 1.391 . S
C1176 H1148 0.930 . S
C1176 C1175 1.390 . S
C1176 C1177 1.392 . S
C1177 H1149 0.929 . S
C1177 C1174 1.391 . S
C1177 C1176 1.392 . S
N1178 Co1122 2.257 . S
N1178 C1175 1.391 . S
N1178 C1179 1.388 . S
C1179 H1150 0.930 . S
C1179 C1174 1.391 . S
C1179 N1178 1.388 . S
Co1180 O1182 2.143 . S
Co1180 O1188 2.074 . S
Co1180 O1191 2.093 . S
Co1180 O1204 2.097 . S
Co1180 N1221 2.151 . S
Co1180 N1229 2.214 . S
Co1181 O1182 2.160 . S
Co1181 O1187 2.058 . S
Co1181 O1197 2.057 . S
Co1181 O1212 2.037 . S
Co1181 N1216 2.145 . S
Co1181 N1237 2.257 . S
O1182 Co1180 2.143 . S
O1182 Co1181 2.160 . S
C1183 O1184 1.278 . S
C1183 O1191 1.224 . S
O1184 C1183 1.278 . S
C1185 O1186 1.245 . S
C1185 O1197 1.232 . S
O1186 C1185 1.245 . S
O1187 Co1181 2.058 . S
O1187 C1213 1.269 . S
O1188 Co1180 2.074 . S
O1188 C1213 1.257 . S
H1189 C1214 0.930 . S
H1190 C1220 0.930 . S
O1191 Co1180 2.093 . S
O1191 C1183 1.224 . S
H1192 C1224 0.929 . S
H1193 C1226 0.930 . S
H1194 C1227 0.930 . S
H1195 C1225 0.929 . S
H1196 C1228 0.928 . S
O1197 Co1181 2.057 . S
O1197 C1185 1.232 . S
H1198 C1217 0.929 . S
H1199 C1218 0.929 . S
H1200 C1230 0.931 . S
H1201 C1222 0.929 . S
H1202 C1231 0.930 . S
H1203 C1223 0.931 . S
O1204 Co1180 2.097 . S
O1204 C1232 1.214 . S
H1205 C1233 0.929 . S
H1206 C1234 0.929 . S
H1207 C1235 0.930 . S
H1208 C1236 0.929 . S
H1209 C1238 0.930 . S
H1210 C1215 0.930 . S
H1211 C1219 0.930 . S
O1212 Co1181 2.037 . S
O1212 C1232 1.234 . S
C1213 O1187 1.269 . S
C1213 O1188 1.257 . S
C1214 H1189 0.930 . S
C1214 C1217 1.388 . S
C1214 C1219 1.418 . S
C1215 H1210 0.930 . S
C1215 C1218 1.404 . S
C1215 C1219 1.353 . S
N1216 Co1181 2.145 . S
N1216 C1217 1.397 . S
N1216 C1218 1.334 . S
C1217 H1198 0.929 . S
C1217 C1214 1.388 . S
C1217 N1216 1.397 . S
C1218 H1199 0.929 . S
C1218 C1215 1.404 . S
C1218 N1216 1.334 . S
C1219 H1211 0.930 . S
C1219 C1214 1.418 . S
C1219 C1215 1.353 . S
C1220 H1190 0.930 . S
C1220 N1221 1.330 . S
C1220 C1222 1.446 . S
N1221 Co1180 2.151 . S
N1221 C1220 1.330 . S
N1221 C1225 1.418 . S
C1222 H1201 0.929 . S
C1222 C1220 1.446 . S
C1222 C1223 1.332 . S
C1223 H1203 0.931 . S
C1223 C1222 1.332 . S
C1223 C1224 1.267 . S
C1224 H1192 0.929 . S
C1224 C1223 1.267 . S
C1224 C1225 1.251 . S
C1225 H1195 0.929 . S
C1225 N1221 1.418 . S
C1225 C1224 1.251 . S
C1226 H1193 0.930 . S
C1226 C1228 1.406 . S
C1226 C1231 1.261 . S
C1227 H1194 0.930 . S
C1227 N1229 1.325 . S
C1227 C1230 1.357 . S
C1228 H1196 0.928 . S
C1228 C1226 1.406 . S
C1228 N1229 1.261 . S
N1229 Co1180 2.214 . S
N1229 C1227 1.325 . S
N1229 C1228 1.261 . S
C1230 H1200 0.931 . S
C1230 C1227 1.357 . S
C1230 C1231 1.312 . S
C1231 H1202 0.930 . S
C1231 C1226 1.261 . S
C1231 C1230 1.312 . S
C1232 O1204 1.214 . S
C1232 O1212 1.234 . S
C1233 H1205 0.929 . S
C1233 C1236 1.391 . S
C1233 C1238 1.391 . S
C1234 H1206 0.929 . S
C1234 C1235 1.390 . S
C1234 N1237 1.391 . S
C1235 H1207 0.930 . S
C1235 C1234 1.390 . S
C1235 C1236 1.392 . S
C1236 H1208 0.929 . S
C1236 C1233 1.391 . S
C1236 C1235 1.392 . S
N1237 Co1181 2.257 . S
N1237 C1234 1.391 . S
N1237 C1238 1.388 . S
C1238 H1209 0.930 . S
C1238 C1233 1.391 . S
C1238 N1237 1.388 . S
Co1239 O1241 2.143 . S
Co1239 O1247 2.074 . S
Co1239 O1250 2.093 . S
Co1239 O1263 2.097 . S
Co1239 N1280 2.151 . S
Co1239 N1288 2.214 . S
Co1240 O1241 2.160 . S
Co1240 O1246 2.058 . S
Co1240 O1256 2.057 . S
Co1240 O1271 2.037 . S
Co1240 N1275 2.145 . S
Co1240 N1296 2.257 . S
O1241 Co1239 2.143 . S
O1241 Co1240 2.160 . S
C1242 O1243 1.278 . S
C1242 O1250 1.224 . S
O1243 C1242 1.278 . S
C1244 O1245 1.245 . S
C1244 O1256 1.232 . S
O1245 C1244 1.245 . S
O1246 Co1240 2.058 . S
O1246 C1272 1.269 . S
O1247 Co1239 2.074 . S
O1247 C1272 1.257 . S
H1248 C1273 0.930 . S
H1249 C1279 0.930 . S
O1250 Co1239 2.093 . S
O1250 C1242 1.224 . S
H1251 C1283 0.929 . S
H1252 C1285 0.930 . S
H1253 C1286 0.930 . S
H1254 C1284 0.929 . S
H1255 C1287 0.928 . S
O1256 Co1240 2.057 . S
O1256 C1244 1.232 . S
H1257 C1276 0.929 . S
H1258 C1277 0.929 . S
H1259 C1289 0.931 . S
H1260 C1281 0.929 . S
H1261 C1290 0.930 . S
H1262 C1282 0.931 . S
O1263 Co1239 2.097 . S
O1263 C1291 1.214 . S
H1264 C1292 0.929 . S
H1265 C1293 0.929 . S
H1266 C1294 0.930 . S
H1267 C1295 0.929 . S
H1268 C1297 0.930 . S
H1269 C1274 0.930 . S
H1270 C1278 0.930 . S
O1271 Co1240 2.037 . S
O1271 C1291 1.234 . S
C1272 O1246 1.269 . S
C1272 O1247 1.257 . S
C1273 H1248 0.930 . S
C1273 C1276 1.388 . S
C1273 C1278 1.418 . S
C1274 H1269 0.930 . S
C1274 C1277 1.404 . S
C1274 C1278 1.353 . S
N1275 Co1240 2.145 . S
N1275 C1276 1.397 . S
N1275 C1277 1.334 . S
C1276 H1257 0.929 . S
C1276 C1273 1.388 . S
C1276 N1275 1.397 . S
C1277 H1258 0.929 . S
C1277 C1274 1.404 . S
C1277 N1275 1.334 . S
C1278 H1270 0.930 . S
C1278 C1273 1.418 . S
C1278 C1274 1.353 . S
C1279 H1249 0.930 . S
C1279 N1280 1.330 . S
C1279 C1281 1.446 . S
N1280 Co1239 2.151 . S
N1280 C1279 1.330 . S
N1280 C1284 1.418 . S
C1281 H1260 0.929 . S
C1281 C1279 1.446 . S
C1281 C1282 1.332 . S
C1282 H1262 0.931 . S
C1282 C1281 1.332 . S
C1282 C1283 1.267 . S
C1283 H1251 0.929 . S
C1283 C1282 1.267 . S
C1283 C1284 1.251 . S
C1284 H1254 0.929 . S
C1284 N1280 1.418 . S
C1284 C1283 1.251 . S
C1285 H1252 0.930 . S
C1285 C1287 1.406 . S
C1285 C1290 1.261 . S
C1286 H1253 0.930 . S
C1286 N1288 1.325 . S
C1286 C1289 1.357 . S
C1287 H1255 0.928 . S
C1287 C1285 1.406 . S
C1287 N1288 1.261 . S
N1288 Co1239 2.214 . S
N1288 C1286 1.325 . S
N1288 C1287 1.261 . S
C1289 H1259 0.931 . S
C1289 C1286 1.357 . S
C1289 C1290 1.312 . S
C1290 H1261 0.930 . S
C1290 C1285 1.261 . S
C1290 C1289 1.312 . S
C1291 O1263 1.214 . S
C1291 O1271 1.234 . S
C1292 H1264 0.929 . S
C1292 C1295 1.391 . S
C1292 C1297 1.391 . S
C1293 H1265 0.929 . S
C1293 C1294 1.390 . S
C1293 N1296 1.391 . S
C1294 H1266 0.930 . S
C1294 C1293 1.390 . S
C1294 C1295 1.392 . S
C1295 H1267 0.929 . S
C1295 C1292 1.391 . S
C1295 C1294 1.392 . S
N1296 Co1240 2.257 . S
N1296 C1293 1.391 . S
N1296 C1297 1.388 . S
C1297 H1268 0.930 . S
C1297 C1292 1.391 . S
C1297 N1296 1.388 . S
Co1298 O1300 2.143 . S
Co1298 O1306 2.074 . S
Co1298 O1309 2.093 . S
Co1298 O1322 2.097 . S
Co1298 N1339 2.151 . S
Co1298 N1347 2.214 . S
Co1299 O1300 2.160 . S
Co1299 O1305 2.058 . S
Co1299 O1315 2.057 . S
Co1299 O1330 2.037 . S
Co1299 N1334 2.145 . S
Co1299 N1355 2.257 . S
O1300 Co1298 2.143 . S
O1300 Co1299 2.160 . S
C1301 O1302 1.278 . S
C1301 O1309 1.224 . S
O1302 C1301 1.278 . S
C1303 O1304 1.245 . S
C1303 O1315 1.232 . S
O1304 C1303 1.245 . S
O1305 Co1299 2.058 . S
O1305 C1331 1.269 . S
O1306 Co1298 2.074 . S
O1306 C1331 1.257 . S
H1307 C1332 0.930 . S
H1308 C1338 0.930 . S
O1309 Co1298 2.093 . S
O1309 C1301 1.224 . S
H1310 C1342 0.929 . S
H1311 C1344 0.930 . S
H1312 C1345 0.930 . S
H1313 C1343 0.929 . S
H1314 C1346 0.928 . S
O1315 Co1299 2.057 . S
O1315 C1303 1.232 . S
H1316 C1335 0.929 . S
H1317 C1336 0.929 . S
H1318 C1348 0.931 . S
H1319 C1340 0.929 . S
H1320 C1349 0.930 . S
H1321 C1341 0.931 . S
O1322 Co1298 2.097 . S
O1322 C1350 1.214 . S
H1323 C1351 0.929 . S
H1324 C1352 0.929 . S
H1325 C1353 0.930 . S
H1326 C1354 0.929 . S
H1327 C1356 0.930 . S
H1328 C1333 0.930 . S
H1329 C1337 0.930 . S
O1330 Co1299 2.037 . S
O1330 C1350 1.234 . S
C1331 O1305 1.269 . S
C1331 O1306 1.257 . S
C1332 H1307 0.930 . S
C1332 C1335 1.388 . S
C1332 C1337 1.418 . S
C1333 H1328 0.930 . S
C1333 C1336 1.404 . S
C1333 C1337 1.353 . S
N1334 Co1299 2.145 . S
N1334 C1335 1.397 . S
N1334 C1336 1.334 . S
C1335 H1316 0.929 . S
C1335 C1332 1.388 . S
C1335 N1334 1.397 . S
C1336 H1317 0.929 . S
C1336 C1333 1.404 . S
C1336 N1334 1.334 . S
C1337 H1329 0.930 . S
C1337 C1332 1.418 . S
C1337 C1333 1.353 . S
C1338 H1308 0.930 . S
C1338 N1339 1.330 . S
C1338 C1340 1.446 . S
N1339 Co1298 2.151 . S
N1339 C1338 1.330 . S
N1339 C1343 1.418 . S
C1340 H1319 0.929 . S
C1340 C1338 1.446 . S
C1340 C1341 1.332 . S
C1341 H1321 0.931 . S
C1341 C1340 1.332 . S
C1341 C1342 1.267 . S
C1342 H1310 0.929 . S
C1342 C1341 1.267 . S
C1342 C1343 1.251 . S
C1343 H1313 0.929 . S
C1343 N1339 1.418 . S
C1343 C1342 1.251 . S
C1344 H1311 0.930 . S
C1344 C1346 1.406 . S
C1344 C1349 1.261 . S
C1345 H1312 0.930 . S
C1345 N1347 1.325 . S
C1345 C1348 1.357 . S
C1346 H1314 0.928 . S
C1346 C1344 1.406 . S
C1346 N1347 1.261 . S
N1347 Co1298 2.214 . S
N1347 C1345 1.325 . S
N1347 C1346 1.261 . S
C1348 H1318 0.931 . S
C1348 C1345 1.357 . S
C1348 C1349 1.312 . S
C1349 H1320 0.930 . S
C1349 C1344 1.261 . S
C1349 C1348 1.312 . S
C1350 O1322 1.214 . S
C1350 O1330 1.234 . S
C1351 H1323 0.929 . S
C1351 C1354 1.391 . S
C1351 C1356 1.391 . S
C1352 H1324 0.929 . S
C1352 C1353 1.390 . S
C1352 N1355 1.391 . S
C1353 H1325 0.930 . S
C1353 C1352 1.390 . S
C1353 C1354 1.392 . S
C1354 H1326 0.929 . S
C1354 C1351 1.391 . S
C1354 C1353 1.392 . S
N1355 Co1299 2.257 . S
N1355 C1352 1.391 . S
N1355 C1356 1.388 . S
C1356 H1327 0.930 . S
C1356 C1351 1.391 . S
C1356 N1355 1.388 . S
Co1357 O1359 2.143 . S
Co1357 O1365 2.074 . S
Co1357 O1368 2.093 . S
Co1357 O1381 2.097 . S
Co1357 N1398 2.151 . S
Co1357 N1406 2.214 . S
Co1358 O1359 2.160 . S
Co1358 O1364 2.058 . S
Co1358 O1374 2.057 . S
Co1358 O1389 2.037 . S
Co1358 N1393 2.145 . S
Co1358 N1414 2.257 . S
O1359 Co1357 2.143 . S
O1359 Co1358 2.160 . S
C1360 O1361 1.278 . S
C1360 O1368 1.224 . S
O1361 C1360 1.278 . S
C1362 O1363 1.245 . S
C1362 O1374 1.232 . S
O1363 C1362 1.245 . S
O1364 Co1358 2.058 . S
O1364 C1390 1.269 . S
O1365 Co1357 2.074 . S
O1365 C1390 1.257 . S
H1366 C1391 0.930 . S
H1367 C1397 0.930 . S
O1368 Co1357 2.093 . S
O1368 C1360 1.224 . S
H1369 C1401 0.929 . S
H1370 C1403 0.930 . S
H1371 C1404 0.930 . S
H1372 C1402 0.929 . S
H1373 C1405 0.928 . S
O1374 Co1358 2.057 . S
O1374 C1362 1.232 . S
H1375 C1394 0.929 . S
H1376 C1395 0.929 . S
H1377 C1407 0.931 . S
H1378 C1399 0.929 . S
H1379 C1408 0.930 . S
H1380 C1400 0.931 . S
O1381 Co1357 2.097 . S
O1381 C1409 1.214 . S
H1382 C1410 0.929 . S
H1383 C1411 0.929 . S
H1384 C1412 0.930 . S
H1385 C1413 0.929 . S
H1386 C1415 0.930 . S
H1387 C1392 0.930 . S
H1388 C1396 0.930 . S
O1389 Co1358 2.037 . S
O1389 C1409 1.234 . S
C1390 O1364 1.269 . S
C1390 O1365 1.257 . S
C1391 H1366 0.930 . S
C1391 C1394 1.388 . S
C1391 C1396 1.418 . S
C1392 H1387 0.930 . S
C1392 C1395 1.404 . S
C1392 C1396 1.353 . S
N1393 Co1358 2.145 . S
N1393 C1394 1.397 . S
N1393 C1395 1.334 . S
C1394 H1375 0.929 . S
C1394 C1391 1.388 . S
C1394 N1393 1.397 . S
C1395 H1376 0.929 . S
C1395 C1392 1.404 . S
C1395 N1393 1.334 . S
C1396 H1388 0.930 . S
C1396 C1391 1.418 . S
C1396 C1392 1.353 . S
C1397 H1367 0.930 . S
C1397 N1398 1.330 . S
C1397 C1399 1.446 . S
N1398 Co1357 2.151 . S
N1398 C1397 1.330 . S
N1398 C1402 1.418 . S
C1399 H1378 0.929 . S
C1399 C1397 1.446 . S
C1399 C1400 1.332 . S
C1400 H1380 0.931 . S
C1400 C1399 1.332 . S
C1400 C1401 1.267 . S
C1401 H1369 0.929 . S
C1401 C1400 1.267 . S
C1401 C1402 1.251 . S
C1402 H1372 0.929 . S
C1402 N1398 1.418 . S
C1402 C1401 1.251 . S
C1403 H1370 0.930 . S
C1403 C1405 1.406 . S
C1403 C1408 1.261 . S
C1404 H1371 0.930 . S
C1404 N1406 1.325 . S
C1404 C1407 1.357 . S
C1405 H1373 0.928 . S
C1405 C1403 1.406 . S
C1405 N1406 1.261 . S
N1406 Co1357 2.214 . S
N1406 C1404 1.325 . S
N1406 C1405 1.261 . S
C1407 H1377 0.931 . S
C1407 C1404 1.357 . S
C1407 C1408 1.312 . S
C1408 H1379 0.930 . S
C1408 C1403 1.261 . S
C1408 C1407 1.312 . S
C1409 O1381 1.214 . S
C1409 O1389 1.234 . S
C1410 H1382 0.929 . S
C1410 C1413 1.391 . S
C1410 C1415 1.391 . S
C1411 H1383 0.929 . S
C1411 C1412 1.390 . S
C1411 N1414 1.391 . S
C1412 H1384 0.930 . S
C1412 C1411 1.390 . S
C1412 C1413 1.392 . S
C1413 H1385 0.929 . S
C1413 C1410 1.391 . S
C1413 C1412 1.392 . S
N1414 Co1358 2.257 . S
N1414 C1411 1.391 . S
N1414 C1415 1.388 . S
C1415 H1386 0.930 . S
C1415 C1410 1.391 . S
C1415 N1414 1.388 . S
H1416 C1424 0.929 . S
H1417 C1426 0.930 . S
H1418 C1428 0.930 . S
H1419 C1431 0.929 . S
H1420 C1434 0.930 . S
H1421 C1436 0.960 . S
H1422 C1436 0.960 . S
H1423 C1436 0.960 . S
C1424 H1416 0.929 . S
C1424 C1425 1.377 . S
C1424 C1426 1.384 . S
C1425 C1424 1.377 . S
C1425 C1431 1.390 . S
C1426 H1417 0.930 . S
C1426 C1424 1.384 . S
C1426 C1427 1.372 . S
C1427 C1426 1.372 . S
C1427 C1428 1.400 . S
C1427 C1432 1.490 . S
C1428 H1418 0.930 . S
C1428 C1427 1.400 . S
C1428 C1431 1.386 . S
H1429 C1445 0.930 . S
H1430 C1446 0.931 . S
C1431 H1419 0.929 . S
C1431 C1425 1.390 . S
C1431 C1428 1.386 . S
C1432 C1427 1.490 . S
C1432 C1434 1.395 . S
C1432 C1435 1.403 . S
H1433 C1439 0.930 . S
C1434 H1420 0.930 . S
C1434 C1432 1.395 . S
C1434 C1437 1.403 . S
C1435 C1432 1.403 . S
C1435 C1436 1.524 . S
C1435 C1439 1.400 . S
C1436 H1421 0.960 . S
C1436 H1422 0.960 . S
C1436 H1423 0.960 . S
C1436 C1435 1.524 . S
C1437 C1434 1.403 . S
C1437 C1438 1.392 . S
C1437 C1441 1.495 . S
C1438 C1437 1.392 . S
C1438 C1439 1.385 . S
C1438 C1440 1.478 . S
C1439 H1433 0.930 . S
C1439 C1435 1.400 . S
C1439 C1438 1.385 . S
C1440 C1438 1.478 . S
C1440 C1442 1.381 . S
C1440 C1446 1.383 . S
C1441 C1437 1.495 . S
C1441 H1447 0.959 . S
C1441 H1448 0.961 . S
C1441 H1449 0.960 . S
C1442 C1440 1.381 . S
C1442 C1443 1.394 . S
C1442 H1450 0.930 . S
C1443 C1442 1.394 . S
C1443 C1444 1.383 . S
C1443 H1451 0.929 . S
C1444 C1443 1.383 . S
C1444 C1445 1.377 . S
C1445 H1429 0.930 . S
C1445 C1444 1.377 . S
C1445 C1446 1.379 . S
C1446 H1430 0.931 . S
C1446 C1440 1.383 . S
C1446 C1445 1.379 . S
H1447 C1441 0.959 . S
H1448 C1441 0.961 . S
H1449 C1441 0.960 . S
H1450 C1442 0.930 . S
H1451 C1443 0.929 . S
H1452 C1460 0.929 . S
H1453 C1462 0.930 . S
H1454 C1464 0.930 . S
H1455 C1467 0.929 . S
H1456 C1470 0.930 . S
H1457 C1472 0.960 . S
H1458 C1472 0.960 . S
H1459 C1472 0.960 . S
C1460 H1452 0.929 . S
C1460 C1461 1.377 . S
C1460 C1462 1.384 . S
C1461 C1460 1.377 . S
C1461 C1467 1.390 . S
C1462 H1453 0.930 . S
C1462 C1460 1.384 . S
C1462 C1463 1.372 . S
C1463 C1462 1.372 . S
C1463 C1464 1.400 . S
C1463 C1468 1.490 . S
C1464 H1454 0.930 . S
C1464 C1463 1.400 . S
C1464 C1467 1.386 . S
H1465 C1481 0.930 . S
H1466 C1482 0.931 . S
C1467 H1455 0.929 . S
C1467 C1461 1.390 . S
C1467 C1464 1.386 . S
C1468 C1463 1.490 . S
C1468 C1470 1.395 . S
C1468 C1471 1.403 . S
H1469 C1475 0.930 . S
C1470 H1456 0.930 . S
C1470 C1468 1.395 . S
C1470 C1473 1.403 . S
C1471 C1468 1.403 . S
C1471 C1472 1.524 . S
C1471 C1475 1.400 . S
C1472 H1457 0.960 . S
C1472 H1458 0.960 . S
C1472 H1459 0.960 . S
C1472 C1471 1.524 . S
C1473 C1470 1.403 . S
C1473 C1474 1.392 . S
C1473 C1477 1.495 . S
C1474 C1473 1.392 . S
C1474 C1475 1.385 . S
C1474 C1476 1.478 . S
C1475 H1469 0.930 . S
C1475 C1471 1.400 . S
C1475 C1474 1.385 . S
C1476 C1474 1.478 . S
C1476 C1478 1.381 . S
C1476 C1482 1.383 . S
C1477 C1473 1.495 . S
C1477 H1483 0.959 . S
C1477 H1484 0.961 . S
C1477 H1485 0.960 . S
C1478 C1476 1.381 . S
C1478 C1479 1.394 . S
C1478 H1486 0.930 . S
C1479 C1478 1.394 . S
C1479 C1480 1.383 . S
C1479 H1487 0.929 . S
C1480 C1479 1.383 . S
C1480 C1481 1.377 . S
C1481 H1465 0.930 . S
C1481 C1480 1.377 . S
C1481 C1482 1.379 . S
C1482 H1466 0.931 . S
C1482 C1476 1.383 . S
C1482 C1481 1.379 . S
H1483 C1477 0.959 . S
H1484 C1477 0.961 . S
H1485 C1477 0.960 . S
H1486 C1478 0.930 . S
H1487 C1479 0.929 . S
H1488 C1496 0.929 . S
H1489 C1498 0.930 . S
H1490 C1500 0.930 . S
H1491 C1503 0.929 . S
H1492 C1506 0.930 . S
H1493 C1508 0.960 . S
H1494 C1508 0.960 . S
H1495 C1508 0.960 . S
C1496 H1488 0.929 . S
C1496 C1497 1.377 . S
C1496 C1498 1.384 . S
C1497 C1496 1.377 . S
C1497 C1503 1.390 . S
C1498 H1489 0.930 . S
C1498 C1496 1.384 . S
C1498 C1499 1.372 . S
C1499 C1498 1.372 . S
C1499 C1500 1.400 . S
C1499 C1504 1.490 . S
C1500 H1490 0.930 . S
C1500 C1499 1.400 . S
C1500 C1503 1.386 . S
H1501 C1517 0.930 . S
H1502 C1518 0.931 . S
C1503 H1491 0.929 . S
C1503 C1497 1.390 . S
C1503 C1500 1.386 . S
C1504 C1499 1.490 . S
C1504 C1506 1.395 . S
C1504 C1507 1.403 . S
H1505 C1511 0.930 . S
C1506 H1492 0.930 . S
C1506 C1504 1.395 . S
C1506 C1509 1.403 . S
C1507 C1504 1.403 . S
C1507 C1508 1.524 . S
C1507 C1511 1.400 . S
C1508 H1493 0.960 . S
C1508 H1494 0.960 . S
C1508 H1495 0.960 . S
C1508 C1507 1.524 . S
C1509 C1506 1.403 . S
C1509 C1510 1.392 . S
C1509 C1513 1.495 . S
C1510 C1509 1.392 . S
C1510 C1511 1.385 . S
C1510 C1512 1.478 . S
C1511 H1505 0.930 . S
C1511 C1507 1.400 . S
C1511 C1510 1.385 . S
C1512 C1510 1.478 . S
C1512 C1514 1.381 . S
C1512 C1518 1.383 . S
C1513 C1509 1.495 . S
C1513 H1519 0.959 . S
C1513 H1520 0.961 . S
C1513 H1521 0.960 . S
C1514 C1512 1.381 . S
C1514 C1515 1.394 . S
C1514 H1522 0.930 . S
C1515 C1514 1.394 . S
C1515 C1516 1.383 . S
C1515 H1523 0.929 . S
C1516 C1515 1.383 . S
C1516 C1517 1.377 . S
C1517 H1501 0.930 . S
C1517 C1516 1.377 . S
C1517 C1518 1.379 . S
C1518 H1502 0.931 . S
C1518 C1512 1.383 . S
C1518 C1517 1.379 . S
H1519 C1513 0.959 . S
H1520 C1513 0.961 . S
H1521 C1513 0.960 . S
H1522 C1514 0.930 . S
H1523 C1515 0.929 . S
H1524 C1532 0.929 . S
H1525 C1534 0.930 . S
H1526 C1536 0.930 . S
H1527 C1539 0.929 . S
H1528 C1542 0.930 . S
H1529 C1544 0.960 . S
H1530 C1544 0.960 . S
H1531 C1544 0.960 . S
C1532 H1524 0.929 . S
C1532 C1533 1.377 . S
C1532 C1534 1.384 . S
C1533 C1532 1.377 . S
C1533 C1539 1.390 . S
C1534 H1525 0.930 . S
C1534 C1532 1.384 . S
C1534 C1535 1.372 . S
C1535 C1534 1.372 . S
C1535 C1536 1.400 . S
C1535 C1540 1.490 . S
C1536 H1526 0.930 . S
C1536 C1535 1.400 . S
C1536 C1539 1.386 . S
H1537 C1553 0.930 . S
H1538 C1554 0.931 . S
C1539 H1527 0.929 . S
C1539 C1533 1.390 . S
C1539 C1536 1.386 . S
C1540 C1535 1.490 . S
C1540 C1542 1.395 . S
C1540 C1543 1.403 . S
H1541 C1547 0.930 . S
C1542 H1528 0.930 . S
C1542 C1540 1.395 . S
C1542 C1545 1.403 . S
C1543 C1540 1.403 . S
C1543 C1544 1.524 . S
C1543 C1547 1.400 . S
C1544 H1529 0.960 . S
C1544 H1530 0.960 . S
C1544 H1531 0.960 . S
C1544 C1543 1.524 . S
C1545 C1542 1.403 . S
C1545 C1546 1.392 . S
C1545 C1549 1.495 . S
C1546 C1545 1.392 . S
C1546 C1547 1.385 . S
C1546 C1548 1.478 . S
C1547 H1541 0.930 . S
C1547 C1543 1.400 . S
C1547 C1546 1.385 . S
C1548 C1546 1.478 . S
C1548 C1550 1.381 . S
C1548 C1554 1.383 . S
C1549 C1545 1.495 . S
C1549 H1555 0.959 . S
C1549 H1556 0.961 . S
C1549 H1557 0.960 . S
C1550 C1548 1.381 . S
C1550 C1551 1.394 . S
C1550 H1558 0.930 . S
C1551 C1550 1.394 . S
C1551 C1552 1.383 . S
C1551 H1559 0.929 . S
C1552 C1551 1.383 . S
C1552 C1553 1.377 . S
C1553 H1537 0.930 . S
C1553 C1552 1.377 . S
C1553 C1554 1.379 . S
C1554 H1538 0.931 . S
C1554 C1548 1.383 . S
C1554 C1553 1.379 . S
H1555 C1549 0.959 . S
H1556 C1549 0.961 . S
H1557 C1549 0.960 . S
H1558 C1550 0.930 . S
H1559 C1551 0.929 . S
H1560 C1568 0.929 . S
H1561 C1570 0.930 . S
H1562 C1572 0.930 . S
H1563 C1575 0.929 . S
H1564 C1578 0.930 . S
H1565 C1580 0.960 . S
H1566 C1580 0.960 . S
H1567 C1580 0.960 . S
C1568 H1560 0.929 . S
C1568 C1569 1.377 . S
C1568 C1570 1.384 . S
C1569 C1568 1.377 . S
C1569 C1575 1.390 . S
C1570 H1561 0.930 . S
C1570 C1568 1.384 . S
C1570 C1571 1.372 . S
C1571 C1570 1.372 . S
C1571 C1572 1.400 . S
C1571 C1576 1.490 . S
C1572 H1562 0.930 . S
C1572 C1571 1.400 . S
C1572 C1575 1.386 . S
H1573 C1589 0.930 . S
H1574 C1590 0.931 . S
C1575 H1563 0.929 . S
C1575 C1569 1.390 . S
C1575 C1572 1.386 . S
C1576 C1571 1.490 . S
C1576 C1578 1.395 . S
C1576 C1579 1.403 . S
H1577 C1583 0.930 . S
C1578 H1564 0.930 . S
C1578 C1576 1.395 . S
C1578 C1581 1.403 . S
C1579 C1576 1.403 . S
C1579 C1580 1.524 . S
C1579 C1583 1.400 . S
C1580 H1565 0.960 . S
C1580 H1566 0.960 . S
C1580 H1567 0.960 . S
C1580 C1579 1.524 . S
C1581 C1578 1.403 . S
C1581 C1582 1.392 . S
C1581 C1585 1.495 . S
C1582 C1581 1.392 . S
C1582 C1583 1.385 . S
C1582 C1584 1.478 . S
C1583 H1577 0.930 . S
C1583 C1579 1.400 . S
C1583 C1582 1.385 . S
C1584 C1582 1.478 . S
C1584 C1586 1.381 . S
C1584 C1590 1.383 . S
C1585 C1581 1.495 . S
C1585 H1591 0.959 . S
C1585 H1592 0.961 . S
C1585 H1593 0.960 . S
C1586 C1584 1.381 . S
C1586 C1587 1.394 . S
C1586 H1594 0.930 . S
C1587 C1586 1.394 . S
C1587 C1588 1.383 . S
C1587 H1595 0.929 . S
C1588 C1587 1.383 . S
C1588 C1589 1.377 . S
C1589 H1573 0.930 . S
C1589 C1588 1.377 . S
C1589 C1590 1.379 . S
C1590 H1574 0.931 . S
C1590 C1584 1.383 . S
C1590 C1589 1.379 . S
H1591 C1585 0.959 . S
H1592 C1585 0.961 . S
H1593 C1585 0.960 . S
H1594 C1586 0.930 . S
H1595 C1587 0.929 . S
H1596 C1604 0.929 . S
H1597 C1606 0.930 . S
H1598 C1608 0.930 . S
H1599 C1611 0.929 . S
H1600 C1614 0.930 . S
H1601 C1616 0.960 . S
H1602 C1616 0.960 . S
H1603 C1616 0.960 . S
C1604 H1596 0.929 . S
C1604 C1605 1.377 . S
C1604 C1606 1.384 . S
C1605 C1604 1.377 . S
C1605 C1611 1.390 . S
C1606 H1597 0.930 . S
C1606 C1604 1.384 . S
C1606 C1607 1.372 . S
C1607 C1606 1.372 . S
C1607 C1608 1.400 . S
C1607 C1612 1.490 . S
C1608 H1598 0.930 . S
C1608 C1607 1.400 . S
C1608 C1611 1.386 . S
H1609 C1625 0.930 . S
H1610 C1626 0.931 . S
C1611 H1599 0.929 . S
C1611 C1605 1.390 . S
C1611 C1608 1.386 . S
C1612 C1607 1.490 . S
C1612 C1614 1.395 . S
C1612 C1615 1.403 . S
H1613 C1619 0.930 . S
C1614 H1600 0.930 . S
C1614 C1612 1.395 . S
C1614 C1617 1.403 . S
C1615 C1612 1.403 . S
C1615 C1616 1.524 . S
C1615 C1619 1.400 . S
C1616 H1601 0.960 . S
C1616 H1602 0.960 . S
C1616 H1603 0.960 . S
C1616 C1615 1.524 . S
C1617 C1614 1.403 . S
C1617 C1618 1.392 . S
C1617 C1621 1.495 . S
C1618 C1617 1.392 . S
C1618 C1619 1.385 . S
C1618 C1620 1.478 . S
C1619 H1613 0.930 . S
C1619 C1615 1.400 . S
C1619 C1618 1.385 . S
C1620 C1618 1.478 . S
C1620 C1622 1.381 . S
C1620 C1626 1.383 . S
C1621 C1617 1.495 . S
C1621 H1627 0.959 . S
C1621 H1628 0.961 . S
C1621 H1629 0.960 . S
C1622 C1620 1.381 . S
C1622 C1623 1.394 . S
C1622 H1630 0.930 . S
C1623 C1622 1.394 . S
C1623 C1624 1.383 . S
C1623 H1631 0.929 . S
C1624 C1623 1.383 . S
C1624 C1625 1.377 . S
C1625 H1609 0.930 . S
C1625 C1624 1.377 . S
C1625 C1626 1.379 . S
C1626 H1610 0.931 . S
C1626 C1620 1.383 . S
C1626 C1625 1.379 . S
H1627 C1621 0.959 . S
H1628 C1621 0.961 . S
H1629 C1621 0.960 . S
H1630 C1622 0.930 . S
H1631 C1623 0.929 . S
H1632 C1640 0.929 . S
H1633 C1642 0.930 . S
H1634 C1644 0.930 . S
H1635 C1647 0.929 . S
H1636 C1650 0.930 . S
H1637 C1652 0.960 . S
H1638 C1652 0.960 . S
H1639 C1652 0.960 . S
C1640 H1632 0.929 . S
C1640 C1641 1.377 . S
C1640 C1642 1.384 . S
C1641 C1640 1.377 . S
C1641 C1647 1.390 . S
C1642 H1633 0.930 . S
C1642 C1640 1.384 . S
C1642 C1643 1.372 . S
C1643 C1642 1.372 . S
C1643 C1644 1.400 . S
C1643 C1648 1.490 . S
C1644 H1634 0.930 . S
C1644 C1643 1.400 . S
C1644 C1647 1.386 . S
H1645 C1661 0.930 . S
H1646 C1662 0.931 . S
C1647 H1635 0.929 . S
C1647 C1641 1.390 . S
C1647 C1644 1.386 . S
C1648 C1643 1.490 . S
C1648 C1650 1.395 . S
C1648 C1651 1.403 . S
H1649 C1655 0.930 . S
C1650 H1636 0.930 . S
C1650 C1648 1.395 . S
C1650 C1653 1.403 . S
C1651 C1648 1.403 . S
C1651 C1652 1.524 . S
C1651 C1655 1.400 . S
C1652 H1637 0.960 . S
C1652 H1638 0.960 . S
C1652 H1639 0.960 . S
C1652 C1651 1.524 . S
C1653 C1650 1.403 . S
C1653 C1654 1.392 . S
C1653 C1657 1.495 . S
C1654 C1653 1.392 . S
C1654 C1655 1.385 . S
C1654 C1656 1.478 . S
C1655 H1649 0.930 . S
C1655 C1651 1.400 . S
C1655 C1654 1.385 . S
C1656 C1654 1.478 . S
C1656 C1658 1.381 . S
C1656 C1662 1.383 . S
C1657 C1653 1.495 . S
C1657 H1663 0.959 . S
C1657 H1664 0.961 . S
C1657 H1665 0.960 . S
C1658 C1656 1.381 . S
C1658 C1659 1.394 . S
C1658 H1666 0.930 . S
C1659 C1658 1.394 . S
C1659 C1660 1.383 . S
C1659 H1667 0.929 . S
C1660 C1659 1.383 . S
C1660 C1661 1.377 . S
C1661 H1645 0.930 . S
C1661 C1660 1.377 . S
C1661 C1662 1.379 . S
C1662 H1646 0.931 . S
C1662 C1656 1.383 . S
C1662 C1661 1.379 . S
H1663 C1657 0.959 . S
H1664 C1657 0.961 . S
H1665 C1657 0.960 . S
H1666 C1658 0.930 . S
H1667 C1659 0.929 . S
H1668 C1676 0.929 . S
H1669 C1678 0.930 . S
H1670 C1680 0.930 . S
H1671 C1683 0.929 . S
H1672 C1686 0.930 . S
H1673 C1688 0.960 . S
H1674 C1688 0.960 . S
H1675 C1688 0.960 . S
C1676 H1668 0.929 . S
C1676 C1677 1.377 . S
C1676 C1678 1.384 . S
C1677 C1676 1.377 . S
C1677 C1683 1.390 . S
C1678 H1669 0.930 . S
C1678 C1676 1.384 . S
C1678 C1679 1.372 . S
C1679 C1678 1.372 . S
C1679 C1680 1.400 . S
C1679 C1684 1.490 . S
C1680 H1670 0.930 . S
C1680 C1679 1.400 . S
C1680 C1683 1.386 . S
H1681 C1697 0.930 . S
H1682 C1698 0.931 . S
C1683 H1671 0.929 . S
C1683 C1677 1.390 . S
C1683 C1680 1.386 . S
C1684 C1679 1.490 . S
C1684 C1686 1.395 . S
C1684 C1687 1.403 . S
H1685 C1691 0.930 . S
C1686 H1672 0.930 . S
C1686 C1684 1.395 . S
C1686 C1689 1.403 . S
C1687 C1684 1.403 . S
C1687 C1688 1.524 . S
C1687 C1691 1.400 . S
C1688 H1673 0.960 . S
C1688 H1674 0.960 . S
C1688 H1675 0.960 . S
C1688 C1687 1.524 . S
C1689 C1686 1.403 . S
C1689 C1690 1.392 . S
C1689 C1693 1.495 . S
C1690 C1689 1.392 . S
C1690 C1691 1.385 . S
C1690 C1692 1.478 . S
C1691 H1685 0.930 . S
C1691 C1687 1.400 . S
C1691 C1690 1.385 . S
C1692 C1690 1.478 . S
C1692 C1694 1.381 . S
C1692 C1698 1.383 . S
C1693 C1689 1.495 . S
C1693 H1699 0.959 . S
C1693 H1700 0.961 . S
C1693 H1701 0.960 . S
C1694 C1692 1.381 . S
C1694 C1695 1.394 . S
C1694 H1702 0.930 . S
C1695 C1694 1.394 . S
C1695 C1696 1.383 . S
C1695 H1703 0.929 . S
C1696 C1695 1.383 . S
C1696 C1697 1.377 . S
C1697 H1681 0.930 . S
C1697 C1696 1.377 . S
C1697 C1698 1.379 . S
C1698 H1682 0.931 . S
C1698 C1692 1.383 . S
C1698 C1697 1.379 . S
H1699 C1693 0.959 . S
H1700 C1693 0.961 . S
H1701 C1693 0.960 . S
H1702 C1694 0.930 . S
H1703 C1695 0.929 . S
H1704 C1712 0.929 . S
H1705 C1714 0.930 . S
H1706 C1716 0.930 . S
H1707 C1719 0.929 . S
H1708 C1722 0.930 . S
H1709 C1724 0.960 . S
H1710 C1724 0.960 . S
H1711 C1724 0.960 . S
C1712 H1704 0.929 . S
C1712 C1713 1.377 . S
C1712 C1714 1.384 . S
C1713 C1712 1.377 . S
C1713 C1719 1.390 . S
C1714 H1705 0.930 . S
C1714 C1712 1.384 . S
C1714 C1715 1.372 . S
C1715 C1714 1.372 . S
C1715 C1716 1.400 . S
C1715 C1720 1.490 . S
C1716 H1706 0.930 . S
C1716 C1715 1.400 . S
C1716 C1719 1.386 . S
H1717 C1733 0.930 . S
H1718 C1734 0.931 . S
C1719 H1707 0.929 . S
C1719 C1713 1.390 . S
C1719 C1716 1.386 . S
C1720 C1715 1.490 . S
C1720 C1722 1.395 . S
C1720 C1723 1.403 . S
H1721 C1727 0.930 . S
C1722 H1708 0.930 . S
C1722 C1720 1.395 . S
C1722 C1725 1.403 . S
C1723 C1720 1.403 . S
C1723 C1724 1.524 . S
C1723 C1727 1.400 . S
C1724 H1709 0.960 . S
C1724 H1710 0.960 . S
C1724 H1711 0.960 . S
C1724 C1723 1.524 . S
C1725 C1722 1.403 . S
C1725 C1726 1.392 . S
C1725 C1729 1.495 . S
C1726 C1725 1.392 . S
C1726 C1727 1.385 . S
C1726 C1728 1.478 . S
C1727 H1721 0.930 . S
C1727 C1723 1.400 . S
C1727 C1726 1.385 . S
C1728 C1726 1.478 . S
C1728 C1730 1.381 . S
C1728 C1734 1.383 . S
C1729 C1725 1.495 . S
C1729 H1735 0.959 . S
C1729 H1736 0.961 . S
C1729 H1737 0.960 . S
C1730 C1728 1.381 . S
C1730 C1731 1.394 . S
C1730 H1738 0.930 . S
C1731 C1730 1.394 . S
C1731 C1732 1.383 . S
C1731 H1739 0.929 . S
C1732 C1731 1.383 . S
C1732 C1733 1.377 . S
C1733 H1717 0.930 . S
C1733 C1732 1.377 . S
C1733 C1734 1.379 . S
C1734 H1718 0.931 . S
C1734 C1728 1.383 . S
C1734 C1733 1.379 . S
H1735 C1729 0.959 . S
H1736 C1729 0.961 . S
H1737 C1729 0.960 . S
H1738 C1730 0.930 . S
H1739 C1731 0.929 . S
H1740 C1748 0.929 . S
H1741 C1750 0.930 . S
H1742 C1752 0.930 . S
H1743 C1755 0.929 . S
H1744 C1758 0.930 . S
H1745 C1760 0.960 . S
H1746 C1760 0.960 . S
H1747 C1760 0.960 . S
C1748 H1740 0.929 . S
C1748 C1749 1.377 . S
C1748 C1750 1.384 . S
C1749 C1748 1.377 . S
C1749 C1755 1.390 . S
C1750 H1741 0.930 . S
C1750 C1748 1.384 . S
C1750 C1751 1.372 . S
C1751 C1750 1.372 . S
C1751 C1752 1.400 . S
C1751 C1756 1.490 . S
C1752 H1742 0.930 . S
C1752 C1751 1.400 . S
C1752 C1755 1.386 . S
H1753 C1769 0.930 . S
H1754 C1770 0.931 . S
C1755 H1743 0.929 . S
C1755 C1749 1.390 . S
C1755 C1752 1.386 . S
C1756 C1751 1.490 . S
C1756 C1758 1.395 . S
C1756 C1759 1.403 . S
H1757 C1763 0.930 . S
C1758 H1744 0.930 . S
C1758 C1756 1.395 . S
C1758 C1761 1.403 . S
C1759 C1756 1.403 . S
C1759 C1760 1.524 . S
C1759 C1763 1.400 . S
C1760 H1745 0.960 . S
C1760 H1746 0.960 . S
C1760 H1747 0.960 . S
C1760 C1759 1.524 . S
C1761 C1758 1.403 . S
C1761 C1762 1.392 . S
C1761 C1765 1.495 . S
C1762 C1761 1.392 . S
C1762 C1763 1.385 . S
C1762 C1764 1.478 . S
C1763 H1757 0.930 . S
C1763 C1759 1.400 . S
C1763 C1762 1.385 . S
C1764 C1762 1.478 . S
C1764 C1766 1.381 . S
C1764 C1770 1.383 . S
C1765 C1761 1.495 . S
C1765 H1771 0.959 . S
C1765 H1772 0.961 . S
C1765 H1773 0.960 . S
C1766 C1764 1.381 . S
C1766 C1767 1.394 . S
C1766 H1774 0.930 . S
C1767 C1766 1.394 . S
C1767 C1768 1.383 . S
C1767 H1775 0.929 . S
C1768 C1767 1.383 . S
C1768 C1769 1.377 . S
C1769 H1753 0.930 . S
C1769 C1768 1.377 . S
C1769 C1770 1.379 . S
C1770 H1754 0.931 . S
C1770 C1764 1.383 . S
C1770 C1769 1.379 . S
H1771 C1765 0.959 . S
H1772 C1765 0.961 . S
H1773 C1765 0.960 . S
H1774 C1766 0.930 . S
H1775 C1767 0.929 . S
H1776 C1784 0.929 . S
H1777 C1786 0.930 . S
H1778 C1788 0.930 . S
H1779 C1791 0.929 . S
H1780 C1794 0.930 . S
H1781 C1796 0.960 . S
H1782 C1796 0.960 . S
H1783 C1796 0.960 . S
C1784 H1776 0.929 . S
C1784 C1785 1.377 . S
C1784 C1786 1.384 . S
C1785 C1784 1.377 . S
C1785 C1791 1.390 . S
C1786 H1777 0.930 . S
C1786 C1784 1.384 . S
C1786 C1787 1.372 . S
C1787 C1786 1.372 . S
C1787 C1788 1.400 . S
C1787 C1792 1.490 . S
C1788 H1778 0.930 . S
C1788 C1787 1.400 . S
C1788 C1791 1.386 . S
H1789 C1805 0.930 . S
H1790 C1806 0.931 . S
C1791 H1779 0.929 . S
C1791 C1785 1.390 . S
C1791 C1788 1.386 . S
C1792 C1787 1.490 . S
C1792 C1794 1.395 . S
C1792 C1795 1.403 . S
H1793 C1799 0.930 . S
C1794 H1780 0.930 . S
C1794 C1792 1.395 . S
C1794 C1797 1.403 . S
C1795 C1792 1.403 . S
C1795 C1796 1.524 . S
C1795 C1799 1.400 . S
C1796 H1781 0.960 . S
C1796 H1782 0.960 . S
C1796 H1783 0.960 . S
C1796 C1795 1.524 . S
C1797 C1794 1.403 . S
C1797 C1798 1.392 . S
C1797 C1801 1.495 . S
C1798 C1797 1.392 . S
C1798 C1799 1.385 . S
C1798 C1800 1.478 . S
C1799 H1793 0.930 . S
C1799 C1795 1.400 . S
C1799 C1798 1.385 . S
C1800 C1798 1.478 . S
C1800 C1802 1.381 . S
C1800 C1806 1.383 . S
C1801 C1797 1.495 . S
C1801 H1807 0.959 . S
C1801 H1808 0.961 . S
C1801 H1809 0.960 . S
C1802 C1800 1.381 . S
C1802 C1803 1.394 . S
C1802 H1810 0.930 . S
C1803 C1802 1.394 . S
C1803 C1804 1.383 . S
C1803 H1811 0.929 . S
C1804 C1803 1.383 . S
C1804 C1805 1.377 . S
C1805 H1789 0.930 . S
C1805 C1804 1.377 . S
C1805 C1806 1.379 . S
C1806 H1790 0.931 . S
C1806 C1800 1.383 . S
C1806 C1805 1.379 . S
H1807 C1801 0.959 . S
H1808 C1801 0.961 . S
H1809 C1801 0.960 . S
H1810 C1802 0.930 . S
H1811 C1803 0.929 . S
H1812 C1820 0.929 . S
H1813 C1822 0.930 . S
H1814 C1824 0.930 . S
H1815 C1827 0.929 . S
H1816 C1830 0.930 . S
H1817 C1832 0.960 . S
H1818 C1832 0.960 . S
H1819 C1832 0.960 . S
C1820 H1812 0.929 . S
C1820 C1821 1.377 . S
C1820 C1822 1.384 . S
C1821 C1820 1.377 . S
C1821 C1827 1.390 . S
C1822 H1813 0.930 . S
C1822 C1820 1.384 . S
C1822 C1823 1.372 . S
C1823 C1822 1.372 . S
C1823 C1824 1.400 . S
C1823 C1828 1.490 . S
C1824 H1814 0.930 . S
C1824 C1823 1.400 . S
C1824 C1827 1.386 . S
H1825 C1841 0.930 . S
H1826 C1842 0.931 . S
C1827 H1815 0.929 . S
C1827 C1821 1.390 . S
C1827 C1824 1.386 . S
C1828 C1823 1.490 . S
C1828 C1830 1.395 . S
C1828 C1831 1.403 . S
H1829 C1835 0.930 . S
C1830 H1816 0.930 . S
C1830 C1828 1.395 . S
C1830 C1833 1.403 . S
C1831 C1828 1.403 . S
C1831 C1832 1.524 . S
C1831 C1835 1.400 . S
C1832 H1817 0.960 . S
C1832 H1818 0.960 . S
C1832 H1819 0.960 . S
C1832 C1831 1.524 . S
C1833 C1830 1.403 . S
C1833 C1834 1.392 . S
C1833 C1837 1.495 . S
C1834 C1833 1.392 . S
C1834 C1835 1.385 . S
C1834 C1836 1.478 . S
C1835 H1829 0.930 . S
C1835 C1831 1.400 . S
C1835 C1834 1.385 . S
C1836 C1834 1.478 . S
C1836 C1838 1.381 . S
C1836 C1842 1.383 . S
C1837 C1833 1.495 . S
C1837 H1843 0.959 . S
C1837 H1844 0.961 . S
C1837 H1845 0.960 . S
C1838 C1836 1.381 . S
C1838 C1839 1.394 . S
C1838 H1846 0.930 . S
C1839 C1838 1.394 . S
C1839 C1840 1.383 . S
C1839 H1847 0.929 . S
C1840 C1839 1.383 . S
C1840 C1841 1.377 . S
C1841 H1825 0.930 . S
C1841 C1840 1.377 . S
C1841 C1842 1.379 . S
C1842 H1826 0.931 . S
C1842 C1836 1.383 . S
C1842 C1841 1.379 . S
H1843 C1837 0.959 . S
H1844 C1837 0.961 . S
H1845 C1837 0.960 . S
H1846 C1838 0.930 . S
H1847 C1839 0.929 . S
H1848 C1856 0.929 . S
H1849 C1858 0.930 . S
H1850 C1860 0.930 . S
H1851 C1863 0.929 . S
H1852 C1866 0.930 . S
H1853 C1868 0.960 . S
H1854 C1868 0.960 . S
H1855 C1868 0.960 . S
C1856 H1848 0.929 . S
C1856 C1857 1.377 . S
C1856 C1858 1.384 . S
C1857 C1856 1.377 . S
C1857 C1863 1.390 . S
C1858 H1849 0.930 . S
C1858 C1856 1.384 . S
C1858 C1859 1.372 . S
C1859 C1858 1.372 . S
C1859 C1860 1.400 . S
C1859 C1864 1.490 . S
C1860 H1850 0.930 . S
C1860 C1859 1.400 . S
C1860 C1863 1.386 . S
H1861 C1877 0.930 . S
H1862 C1878 0.931 . S
C1863 H1851 0.929 . S
C1863 C1857 1.390 . S
C1863 C1860 1.386 . S
C1864 C1859 1.490 . S
C1864 C1866 1.395 . S
C1864 C1867 1.403 . S
H1865 C1871 0.930 . S
C1866 H1852 0.930 . S
C1866 C1864 1.395 . S
C1866 C1869 1.403 . S
C1867 C1864 1.403 . S
C1867 C1868 1.524 . S
C1867 C1871 1.400 . S
C1868 H1853 0.960 . S
C1868 H1854 0.960 . S
C1868 H1855 0.960 . S
C1868 C1867 1.524 . S
C1869 C1866 1.403 . S
C1869 C1870 1.392 . S
C1869 C1873 1.495 . S
C1870 C1869 1.392 . S
C1870 C1871 1.385 . S
C1870 C1872 1.478 . S
C1871 H1865 0.930 . S
C1871 C1867 1.400 . S
C1871 C1870 1.385 . S
C1872 C1870 1.478 . S
C1872 C1874 1.381 . S
C1872 C1878 1.383 . S
C1873 C1869 1.495 . S
C1873 H1879 0.959 . S
C1873 H1880 0.961 . S
C1873 H1881 0.960 . S
C1874 C1872 1.381 . S
C1874 C1875 1.394 . S
C1874 H1882 0.930 . S
C1875 C1874 1.394 . S
C1875 C1876 1.383 . S
C1875 H1883 0.929 . S
C1876 C1875 1.383 . S
C1876 C1877 1.377 . S
C1877 H1861 0.930 . S
C1877 C1876 1.377 . S
C1877 C1878 1.379 . S
C1878 H1862 0.931 . S
C1878 C1872 1.383 . S
C1878 C1877 1.379 . S
H1879 C1873 0.959 . S
H1880 C1873 0.961 . S
H1881 C1873 0.960 . S
H1882 C1874 0.930 . S
H1883 C1875 0.929 . S
H1884 C1892 0.929 . S
H1885 C1894 0.930 . S
H1886 C1896 0.930 . S
H1887 C1899 0.929 . S
H1888 C1902 0.930 . S
H1889 C1904 0.960 . S
H1890 C1904 0.960 . S
H1891 C1904 0.960 . S
C1892 H1884 0.929 . S
C1892 C1893 1.377 . S
C1892 C1894 1.384 . S
C1893 C1892 1.377 . S
C1893 C1899 1.390 . S
C1894 H1885 0.930 . S
C1894 C1892 1.384 . S
C1894 C1895 1.372 . S
C1895 C1894 1.372 . S
C1895 C1896 1.400 . S
C1895 C1900 1.490 . S
C1896 H1886 0.930 . S
C1896 C1895 1.400 . S
C1896 C1899 1.386 . S
H1897 C1913 0.930 . S
H1898 C1914 0.931 . S
C1899 H1887 0.929 . S
C1899 C1893 1.390 . S
C1899 C1896 1.386 . S
C1900 C1895 1.490 . S
C1900 C1902 1.395 . S
C1900 C1903 1.403 . S
H1901 C1907 0.930 . S
C1902 H1888 0.930 . S
C1902 C1900 1.395 . S
C1902 C1905 1.403 . S
C1903 C1900 1.403 . S
C1903 C1904 1.524 . S
C1903 C1907 1.400 . S
C1904 H1889 0.960 . S
C1904 H1890 0.960 . S
C1904 H1891 0.960 . S
C1904 C1903 1.524 . S
C1905 C1902 1.403 . S
C1905 C1906 1.392 . S
C1905 C1909 1.495 . S
C1906 C1905 1.392 . S
C1906 C1907 1.385 . S
C1906 C1908 1.478 . S
C1907 H1901 0.930 . S
C1907 C1903 1.400 . S
C1907 C1906 1.385 . S
C1908 C1906 1.478 . S
C1908 C1910 1.381 . S
C1908 C1914 1.383 . S
C1909 C1905 1.495 . S
C1909 H1915 0.959 . S
C1909 H1916 0.961 . S
C1909 H1917 0.960 . S
C1910 C1908 1.381 . S
C1910 C1911 1.394 . S
C1910 H1918 0.930 . S
C1911 C1910 1.394 . S
C1911 C1912 1.383 . S
C1911 H1919 0.929 . S
C1912 C1911 1.383 . S
C1912 C1913 1.377 . S
C1913 H1897 0.930 . S
C1913 C1912 1.377 . S
C1913 C1914 1.379 . S
C1914 H1898 0.931 . S
C1914 C1908 1.383 . S
C1914 C1913 1.379 . S
H1915 C1909 0.959 . S
H1916 C1909 0.961 . S
H1917 C1909 0.960 . S
H1918 C1910 0.930 . S
H1919 C1911 0.929 . S
H1920 C1928 0.929 . S
H1921 C1930 0.930 . S
H1922 C1932 0.930 . S
H1923 C1935 0.929 . S
H1924 C1938 0.930 . S
H1925 C1940 0.960 . S
H1926 C1940 0.960 . S
H1927 C1940 0.960 . S
C1928 H1920 0.929 . S
C1928 C1929 1.377 . S
C1928 C1930 1.384 . S
C1929 C1928 1.377 . S
C1929 C1935 1.390 . S
C1930 H1921 0.930 . S
C1930 C1928 1.384 . S
C1930 C1931 1.372 . S
C1931 C1930 1.372 . S
C1931 C1932 1.400 . S
C1931 C1936 1.490 . S
C1932 H1922 0.930 . S
C1932 C1931 1.400 . S
C1932 C1935 1.386 . S
H1933 C1949 0.930 . S
H1934 C1950 0.931 . S
C1935 H1923 0.929 . S
C1935 C1929 1.390 . S
C1935 C1932 1.386 . S
C1936 C1931 1.490 . S
C1936 C1938 1.395 . S
C1936 C1939 1.403 . S
H1937 C1943 0.930 . S
C1938 H1924 0.930 . S
C1938 C1936 1.395 . S
C1938 C1941 1.403 . S
C1939 C1936 1.403 . S
C1939 C1940 1.524 . S
C1939 C1943 1.400 . S
C1940 H1925 0.960 . S
C1940 H1926 0.960 . S
C1940 H1927 0.960 . S
C1940 C1939 1.524 . S
C1941 C1938 1.403 . S
C1941 C1942 1.392 . S
C1941 C1945 1.495 . S
C1942 C1941 1.392 . S
C1942 C1943 1.385 . S
C1942 C1944 1.478 . S
C1943 H1937 0.930 . S
C1943 C1939 1.400 . S
C1943 C1942 1.385 . S
C1944 C1942 1.478 . S
C1944 C1946 1.381 . S
C1944 C1950 1.383 . S
C1945 C1941 1.495 . S
C1945 H1951 0.959 . S
C1945 H1952 0.961 . S
C1945 H1953 0.960 . S
C1946 C1944 1.381 . S
C1946 C1947 1.394 . S
C1946 H1954 0.930 . S
C1947 C1946 1.394 . S
C1947 C1948 1.383 . S
C1947 H1955 0.929 . S
C1948 C1947 1.383 . S
C1948 C1949 1.377 . S
C1949 H1933 0.930 . S
C1949 C1948 1.377 . S
C1949 C1950 1.379 . S
C1950 H1934 0.931 . S
C1950 C1944 1.383 . S
C1950 C1949 1.379 . S
H1951 C1945 0.959 . S
H1952 C1945 0.961 . S
H1953 C1945 0.960 . S
H1954 C1946 0.930 . S
H1955 C1947 0.929 . S
H1956 C1964 0.929 . S
H1957 C1966 0.930 . S
H1958 C1968 0.930 . S
H1959 C1971 0.929 . S
H1960 C1974 0.930 . S
H1961 C1976 0.960 . S
H1962 C1976 0.960 . S
H1963 C1976 0.960 . S
C1964 H1956 0.929 . S
C1964 C1965 1.377 . S
C1964 C1966 1.384 . S
C1965 C1964 1.377 . S
C1965 C1971 1.390 . S
C1966 H1957 0.930 . S
C1966 C1964 1.384 . S
C1966 C1967 1.372 . S
C1967 C1966 1.372 . S
C1967 C1968 1.400 . S
C1967 C1972 1.490 . S
C1968 H1958 0.930 . S
C1968 C1967 1.400 . S
C1968 C1971 1.386 . S
H1969 C1985 0.930 . S
H1970 C1986 0.931 . S
C1971 H1959 0.929 . S
C1971 C1965 1.390 . S
C1971 C1968 1.386 . S
C1972 C1967 1.490 . S
C1972 C1974 1.395 . S
C1972 C1975 1.403 . S
H1973 C1979 0.930 . S
C1974 H1960 0.930 . S
C1974 C1972 1.395 . S
C1974 C1977 1.403 . S
C1975 C1972 1.403 . S
C1975 C1976 1.524 . S
C1975 C1979 1.400 . S
C1976 H1961 0.960 . S
C1976 H1962 0.960 . S
C1976 H1963 0.960 . S
C1976 C1975 1.524 . S
C1977 C1974 1.403 . S
C1977 C1978 1.392 . S
C1977 C1981 1.495 . S
C1978 C1977 1.392 . S
C1978 C1979 1.385 . S
C1978 C1980 1.478 . S
C1979 H1973 0.930 . S
C1979 C1975 1.400 . S
C1979 C1978 1.385 . S
C1980 C1978 1.478 . S
C1980 C1982 1.381 . S
C1980 C1986 1.383 . S
C1981 C1977 1.495 . S
C1981 H1987 0.959 . S
C1981 H1988 0.961 . S
C1981 H1989 0.960 . S
C1982 C1980 1.381 . S
C1982 C1983 1.394 . S
C1982 H1990 0.930 . S
C1983 C1982 1.394 . S
C1983 C1984 1.383 . S
C1983 H1991 0.929 . S
C1984 C1983 1.383 . S
C1984 C1985 1.377 . S
C1985 H1969 0.930 . S
C1985 C1984 1.377 . S
C1985 C1986 1.379 . S
C1986 H1970 0.931 . S
C1986 C1980 1.383 . S
C1986 C1985 1.379 . S
H1987 C1981 0.959 . S
H1988 C1981 0.961 . S
H1989 C1981 0.960 . S
H1990 C1982 0.930 . S
H1991 C1983 0.929 . S
H1992 C2000 0.929 . S
H1993 C2002 0.930 . S
H1994 C2004 0.930 . S
H1995 C2007 0.929 . S
H1996 C2010 0.930 . S
H1997 C2012 0.960 . S
H1998 C2012 0.960 . S
H1999 C2012 0.960 . S
C2000 H1992 0.929 . S
C2000 C2001 1.377 . S
C2000 C2002 1.384 . S
C2001 C2000 1.377 . S
C2001 C2007 1.390 . S
C2002 H1993 0.930 . S
C2002 C2000 1.384 . S
C2002 C2003 1.372 . S
C2003 C2002 1.372 . S
C2003 C2004 1.400 . S
C2003 C2008 1.490 . S
C2004 H1994 0.930 . S
C2004 C2003 1.400 . S
C2004 C2007 1.386 . S
H2005 C2021 0.930 . S
H2006 C2022 0.931 . S
C2007 H1995 0.929 . S
C2007 C2001 1.390 . S
C2007 C2004 1.386 . S
C2008 C2003 1.490 . S
C2008 C2010 1.395 . S
C2008 C2011 1.403 . S
H2009 C2015 0.930 . S
C2010 H1996 0.930 . S
C2010 C2008 1.395 . S
C2010 C2013 1.403 . S
C2011 C2008 1.403 . S
C2011 C2012 1.524 . S
C2011 C2015 1.400 . S
C2012 H1997 0.960 . S
C2012 H1998 0.960 . S
C2012 H1999 0.960 . S
C2012 C2011 1.524 . S
C2013 C2010 1.403 . S
C2013 C2014 1.392 . S
C2013 C2017 1.495 . S
C2014 C2013 1.392 . S
C2014 C2015 1.385 . S
C2014 C2016 1.478 . S
C2015 H2009 0.930 . S
C2015 C2011 1.400 . S
C2015 C2014 1.385 . S
C2016 C2014 1.478 . S
C2016 C2018 1.381 . S
C2016 C2022 1.383 . S
C2017 C2013 1.495 . S
C2017 H2023 0.959 . S
C2017 H2024 0.961 . S
C2017 H2025 0.960 . S
C2018 C2016 1.381 . S
C2018 C2019 1.394 . S
C2018 H2026 0.930 . S
C2019 C2018 1.394 . S
C2019 C2020 1.383 . S
C2019 H2027 0.929 . S
C2020 C2019 1.383 . S
C2020 C2021 1.377 . S
C2021 H2005 0.930 . S
C2021 C2020 1.377 . S
C2021 C2022 1.379 . S
C2022 H2006 0.931 . S
C2022 C2016 1.383 . S
C2022 C2021 1.379 . S
H2023 C2017 0.959 . S
H2024 C2017 0.961 . S
H2025 C2017 0.960 . S
H2026 C2018 0.930 . S
H2027 C2019 0.929 . S
H2028 C2036 0.929 . S
H2029 C2038 0.930 . S
H2030 C2040 0.930 . S
H2031 C2043 0.929 . S
H2032 C2046 0.930 . S
H2033 C2048 0.960 . S
H2034 C2048 0.960 . S
H2035 C2048 0.960 . S
C2036 H2028 0.929 . S
C2036 C2037 1.377 . S
C2036 C2038 1.384 . S
C2037 C2036 1.377 . S
C2037 C2043 1.390 . S
C2038 H2029 0.930 . S
C2038 C2036 1.384 . S
C2038 C2039 1.372 . S
C2039 C2038 1.372 . S
C2039 C2040 1.400 . S
C2039 C2044 1.490 . S
C2040 H2030 0.930 . S
C2040 C2039 1.400 . S
C2040 C2043 1.386 . S
H2041 C2057 0.930 . S
H2042 C2058 0.931 . S
C2043 H2031 0.929 . S
C2043 C2037 1.390 . S
C2043 C2040 1.386 . S
C2044 C2039 1.490 . S
C2044 C2046 1.395 . S
C2044 C2047 1.403 . S
H2045 C2051 0.930 . S
C2046 H2032 0.930 . S
C2046 C2044 1.395 . S
C2046 C2049 1.403 . S
C2047 C2044 1.403 . S
C2047 C2048 1.524 . S
C2047 C2051 1.400 . S
C2048 H2033 0.960 . S
C2048 H2034 0.960 . S
C2048 H2035 0.960 . S
C2048 C2047 1.524 . S
C2049 C2046 1.403 . S
C2049 C2050 1.392 . S
C2049 C2053 1.495 . S
C2050 C2049 1.392 . S
C2050 C2051 1.385 . S
C2050 C2052 1.478 . S
C2051 H2045 0.930 . S
C2051 C2047 1.400 . S
C2051 C2050 1.385 . S
C2052 C2050 1.478 . S
C2052 C2054 1.381 . S
C2052 C2058 1.383 . S
C2053 C2049 1.495 . S
C2053 H2059 0.959 . S
C2053 H2060 0.961 . S
C2053 H2061 0.960 . S
C2054 C2052 1.381 . S
C2054 C2055 1.394 . S
C2054 H2062 0.930 . S
C2055 C2054 1.394 . S
C2055 C2056 1.383 . S
C2055 H2063 0.929 . S
C2056 C2055 1.383 . S
C2056 C2057 1.377 . S
C2057 H2041 0.930 . S
C2057 C2056 1.377 . S
C2057 C2058 1.379 . S
C2058 H2042 0.931 . S
C2058 C2052 1.383 . S
C2058 C2057 1.379 . S
H2059 C2053 0.959 . S
H2060 C2053 0.961 . S
H2061 C2053 0.960 . S
H2062 C2054 0.930 . S
H2063 C2055 0.929 . S
H2064 C2072 0.929 . S
H2065 C2074 0.930 . S
H2066 C2076 0.930 . S
H2067 C2079 0.929 . S
H2068 C2082 0.930 . S
H2069 C2084 0.960 . S
H2070 C2084 0.960 . S
H2071 C2084 0.960 . S
C2072 H2064 0.929 . S
C2072 C2073 1.377 . S
C2072 C2074 1.384 . S
C2073 C2072 1.377 . S
C2073 C2079 1.390 . S
C2074 H2065 0.930 . S
C2074 C2072 1.384 . S
C2074 C2075 1.372 . S
C2075 C2074 1.372 . S
C2075 C2076 1.400 . S
C2075 C2080 1.490 . S
C2076 H2066 0.930 . S
C2076 C2075 1.400 . S
C2076 C2079 1.386 . S
H2077 C2093 0.930 . S
H2078 C2094 0.931 . S
C2079 H2067 0.929 . S
C2079 C2073 1.390 . S
C2079 C2076 1.386 . S
C2080 C2075 1.490 . S
C2080 C2082 1.395 . S
C2080 C2083 1.403 . S
H2081 C2087 0.930 . S
C2082 H2068 0.930 . S
C2082 C2080 1.395 . S
C2082 C2085 1.403 . S
C2083 C2080 1.403 . S
C2083 C2084 1.524 . S
C2083 C2087 1.400 . S
C2084 H2069 0.960 . S
C2084 H2070 0.960 . S
C2084 H2071 0.960 . S
C2084 C2083 1.524 . S
C2085 C2082 1.403 . S
C2085 C2086 1.392 . S
C2085 C2089 1.495 . S
C2086 C2085 1.392 . S
C2086 C2087 1.385 . S
C2086 C2088 1.478 . S
C2087 H2081 0.930 . S
C2087 C2083 1.400 . S
C2087 C2086 1.385 . S
C2088 C2086 1.478 . S
C2088 C2090 1.381 . S
C2088 C2094 1.383 . S
C2089 C2085 1.495 . S
C2089 H2095 0.959 . S
C2089 H2096 0.961 . S
C2089 H2097 0.960 . S
C2090 C2088 1.381 . S
C2090 C2091 1.394 . S
C2090 H2098 0.930 . S
C2091 C2090 1.394 . S
C2091 C2092 1.383 . S
C2091 H2099 0.929 . S
C2092 C2091 1.383 . S
C2092 C2093 1.377 . S
C2093 H2077 0.930 . S
C2093 C2092 1.377 . S
C2093 C2094 1.379 . S
C2094 H2078 0.931 . S
C2094 C2088 1.383 . S
C2094 C2093 1.379 . S
H2095 C2089 0.959 . S
H2096 C2089 0.961 . S
H2097 C2089 0.960 . S
H2098 C2090 0.930 . S
H2099 C2091 0.929 . S
H2100 C2108 0.929 . S
H2101 C2110 0.930 . S
H2102 C2112 0.930 . S
H2103 C2115 0.929 . S
H2104 C2118 0.930 . S
H2105 C2120 0.960 . S
H2106 C2120 0.960 . S
H2107 C2120 0.960 . S
C2108 H2100 0.929 . S
C2108 C2109 1.377 . S
C2108 C2110 1.384 . S
C2109 C2108 1.377 . S
C2109 C2115 1.390 . S
C2110 H2101 0.930 . S
C2110 C2108 1.384 . S
C2110 C2111 1.372 . S
C2111 C2110 1.372 . S
C2111 C2112 1.400 . S
C2111 C2116 1.490 . S
C2112 H2102 0.930 . S
C2112 C2111 1.400 . S
C2112 C2115 1.386 . S
H2113 C2129 0.930 . S
H2114 C2130 0.931 . S
C2115 H2103 0.929 . S
C2115 C2109 1.390 . S
C2115 C2112 1.386 . S
C2116 C2111 1.490 . S
C2116 C2118 1.395 . S
C2116 C2119 1.403 . S
H2117 C2123 0.930 . S
C2118 H2104 0.930 . S
C2118 C2116 1.395 . S
C2118 C2121 1.403 . S
C2119 C2116 1.403 . S
C2119 C2120 1.524 . S
C2119 C2123 1.400 . S
C2120 H2105 0.960 . S
C2120 H2106 0.960 . S
C2120 H2107 0.960 . S
C2120 C2119 1.524 . S
C2121 C2118 1.403 . S
C2121 C2122 1.392 . S
C2121 C2125 1.495 . S
C2122 C2121 1.392 . S
C2122 C2123 1.385 . S
C2122 C2124 1.478 . S
C2123 H2117 0.930 . S
C2123 C2119 1.400 . S
C2123 C2122 1.385 . S
C2124 C2122 1.478 . S
C2124 C2126 1.381 . S
C2124 C2130 1.383 . S
C2125 C2121 1.495 . S
C2125 H2131 0.959 . S
C2125 H2132 0.961 . S
C2125 H2133 0.960 . S
C2126 C2124 1.381 . S
C2126 C2127 1.394 . S
C2126 H2134 0.930 . S
C2127 C2126 1.394 . S
C2127 C2128 1.383 . S
C2127 H2135 0.929 . S
C2128 C2127 1.383 . S
C2128 C2129 1.377 . S
C2129 H2113 0.930 . S
C2129 C2128 1.377 . S
C2129 C2130 1.379 . S
C2130 H2114 0.931 . S
C2130 C2124 1.383 . S
C2130 C2129 1.379 . S
H2131 C2125 0.959 . S
H2132 C2125 0.961 . S
H2133 C2125 0.960 . S
H2134 C2126 0.930 . S
H2135 C2127 0.929 . S
H2136 C2144 0.929 . S
H2137 C2146 0.930 . S
H2138 C2148 0.930 . S
H2139 C2151 0.929 . S
H2140 C2154 0.930 . S
H2141 C2156 0.960 . S
H2142 C2156 0.960 . S
H2143 C2156 0.960 . S
C2144 H2136 0.929 . S
C2144 C2145 1.377 . S
C2144 C2146 1.384 . S
C2145 C2144 1.377 . S
C2145 C2151 1.390 . S
C2146 H2137 0.930 . S
C2146 C2144 1.384 . S
C2146 C2147 1.372 . S
C2147 C2146 1.372 . S
C2147 C2148 1.400 . S
C2147 C2152 1.490 . S
C2148 H2138 0.930 . S
C2148 C2147 1.400 . S
C2148 C2151 1.386 . S
H2149 C2165 0.930 . S
H2150 C2166 0.931 . S
C2151 H2139 0.929 . S
C2151 C2145 1.390 . S
C2151 C2148 1.386 . S
C2152 C2147 1.490 . S
C2152 C2154 1.395 . S
C2152 C2155 1.403 . S
H2153 C2159 0.930 . S
C2154 H2140 0.930 . S
C2154 C2152 1.395 . S
C2154 C2157 1.403 . S
C2155 C2152 1.403 . S
C2155 C2156 1.524 . S
C2155 C2159 1.400 . S
C2156 H2141 0.960 . S
C2156 H2142 0.960 . S
C2156 H2143 0.960 . S
C2156 C2155 1.524 . S
C2157 C2154 1.403 . S
C2157 C2158 1.392 . S
C2157 C2161 1.495 . S
C2158 C2157 1.392 . S
C2158 C2159 1.385 . S
C2158 C2160 1.478 . S
C2159 H2153 0.930 . S
C2159 C2155 1.400 . S
C2159 C2158 1.385 . S
C2160 C2158 1.478 . S
C2160 C2162 1.381 . S
C2160 C2166 1.383 . S
C2161 C2157 1.495 . S
C2161 H2167 0.959 . S
C2161 H2168 0.961 . S
C2161 H2169 0.960 . S
C2162 C2160 1.381 . S
C2162 C2163 1.394 . S
C2162 H2170 0.930 . S
C2163 C2162 1.394 . S
C2163 C2164 1.383 . S
C2163 H2171 0.929 . S
C2164 C2163 1.383 . S
C2164 C2165 1.377 . S
C2165 H2149 0.930 . S
C2165 C2164 1.377 . S
C2165 C2166 1.379 . S
C2166 H2150 0.931 . S
C2166 C2160 1.383 . S
C2166 C2165 1.379 . S
H2167 C2161 0.959 . S
H2168 C2161 0.961 . S
H2169 C2161 0.960 . S
H2170 C2162 0.930 . S
H2171 C2163 0.929 . S
H2172 C2180 0.929 . S
H2173 C2182 0.930 . S
H2174 C2184 0.930 . S
H2175 C2187 0.929 . S
H2176 C2190 0.930 . S
H2177 C2192 0.960 . S
H2178 C2192 0.960 . S
H2179 C2192 0.960 . S
C2180 H2172 0.929 . S
C2180 C2181 1.377 . S
C2180 C2182 1.384 . S
C2181 C2180 1.377 . S
C2181 C2187 1.390 . S
C2182 H2173 0.930 . S
C2182 C2180 1.384 . S
C2182 C2183 1.372 . S
C2183 C2182 1.372 . S
C2183 C2184 1.400 . S
C2183 C2188 1.490 . S
C2184 H2174 0.930 . S
C2184 C2183 1.400 . S
C2184 C2187 1.386 . S
H2185 C2201 0.930 . S
H2186 C2202 0.931 . S
C2187 H2175 0.929 . S
C2187 C2181 1.390 . S
C2187 C2184 1.386 . S
C2188 C2183 1.490 . S
C2188 C2190 1.395 . S
C2188 C2191 1.403 . S
H2189 C2195 0.930 . S
C2190 H2176 0.930 . S
C2190 C2188 1.395 . S
C2190 C2193 1.403 . S
C2191 C2188 1.403 . S
C2191 C2192 1.524 . S
C2191 C2195 1.400 . S
C2192 H2177 0.960 . S
C2192 H2178 0.960 . S
C2192 H2179 0.960 . S
C2192 C2191 1.524 . S
C2193 C2190 1.403 . S
C2193 C2194 1.392 . S
C2193 C2197 1.495 . S
C2194 C2193 1.392 . S
C2194 C2195 1.385 . S
C2194 C2196 1.478 . S
C2195 H2189 0.930 . S
C2195 C2191 1.400 . S
C2195 C2194 1.385 . S
C2196 C2194 1.478 . S
C2196 C2198 1.381 . S
C2196 C2202 1.383 . S
C2197 C2193 1.495 . S
C2197 H2203 0.959 . S
C2197 H2204 0.961 . S
C2197 H2205 0.960 . S
C2198 C2196 1.381 . S
C2198 C2199 1.394 . S
C2198 H2206 0.930 . S
C2199 C2198 1.394 . S
C2199 C2200 1.383 . S
C2199 H2207 0.929 . S
C2200 C2199 1.383 . S
C2200 C2201 1.377 . S
C2201 H2185 0.930 . S
C2201 C2200 1.377 . S
C2201 C2202 1.379 . S
C2202 H2186 0.931 . S
C2202 C2196 1.383 . S
C2202 C2201 1.379 . S
H2203 C2197 0.959 . S
H2204 C2197 0.961 . S
H2205 C2197 0.960 . S
H2206 C2198 0.930 . S
H2207 C2199 0.929 . S
H2208 C2216 0.929 . S
H2209 C2218 0.930 . S
H2210 C2220 0.930 . S
H2211 C2223 0.929 . S
H2212 C2226 0.930 . S
H2213 C2228 0.960 . S
H2214 C2228 0.960 . S
H2215 C2228 0.960 . S
C2216 H2208 0.929 . S
C2216 C2217 1.377 . S
C2216 C2218 1.384 . S
C2217 C2216 1.377 . S
C2217 C2223 1.390 . S
C2218 H2209 0.930 . S
C2218 C2216 1.384 . S
C2218 C2219 1.372 . S
C2219 C2218 1.372 . S
C2219 C2220 1.400 . S
C2219 C2224 1.490 . S
C2220 H2210 0.930 . S
C2220 C2219 1.400 . S
C2220 C2223 1.386 . S
H2221 C2237 0.930 . S
H2222 C2238 0.931 . S
C2223 H2211 0.929 . S
C2223 C2217 1.390 . S
C2223 C2220 1.386 . S
C2224 C2219 1.490 . S
C2224 C2226 1.395 . S
C2224 C2227 1.403 . S
H2225 C2231 0.930 . S
C2226 H2212 0.930 . S
C2226 C2224 1.395 . S
C2226 C2229 1.403 . S
C2227 C2224 1.403 . S
C2227 C2228 1.524 . S
C2227 C2231 1.400 . S
C2228 H2213 0.960 . S
C2228 H2214 0.960 . S
C2228 H2215 0.960 . S
C2228 C2227 1.524 . S
C2229 C2226 1.403 . S
C2229 C2230 1.392 . S
C2229 C2233 1.495 . S
C2230 C2229 1.392 . S
C2230 C2231 1.385 . S
C2230 C2232 1.478 . S
C2231 H2225 0.930 . S
C2231 C2227 1.400 . S
C2231 C2230 1.385 . S
C2232 C2230 1.478 . S
C2232 C2234 1.381 . S
C2232 C2238 1.383 . S
C2233 C2229 1.495 . S
C2233 H2239 0.959 . S
C2233 H2240 0.961 . S
C2233 H2241 0.960 . S
C2234 C2232 1.381 . S
C2234 C2235 1.394 . S
C2234 H2242 0.930 . S
C2235 C2234 1.394 . S
C2235 C2236 1.383 . S
C2235 H2243 0.929 . S
C2236 C2235 1.383 . S
C2236 C2237 1.377 . S
C2237 H2221 0.930 . S
C2237 C2236 1.377 . S
C2237 C2238 1.379 . S
C2238 H2222 0.931 . S
C2238 C2232 1.383 . S
C2238 C2237 1.379 . S
H2239 C2233 0.959 . S
H2240 C2233 0.961 . S
H2241 C2233 0.960 . S
H2242 C2234 0.930 . S
H2243 C2235 0.929 . S
H2244 C2252 0.929 . S
H2245 C2254 0.930 . S
H2246 C2256 0.930 . S
H2247 C2259 0.929 . S
H2248 C2262 0.930 . S
H2249 C2264 0.960 . S
H2250 C2264 0.960 . S
H2251 C2264 0.960 . S
C2252 H2244 0.929 . S
C2252 C2253 1.377 . S
C2252 C2254 1.384 . S
C2253 C2252 1.377 . S
C2253 C2259 1.390 . S
C2254 H2245 0.930 . S
C2254 C2252 1.384 . S
C2254 C2255 1.372 . S
C2255 C2254 1.372 . S
C2255 C2256 1.400 . S
C2255 C2260 1.490 . S
C2256 H2246 0.930 . S
C2256 C2255 1.400 . S
C2256 C2259 1.386 . S
H2257 C2273 0.930 . S
H2258 C2274 0.931 . S
C2259 H2247 0.929 . S
C2259 C2253 1.390 . S
C2259 C2256 1.386 . S
C2260 C2255 1.490 . S
C2260 C2262 1.395 . S
C2260 C2263 1.403 . S
H2261 C2267 0.930 . S
C2262 H2248 0.930 . S
C2262 C2260 1.395 . S
C2262 C2265 1.403 . S
C2263 C2260 1.403 . S
C2263 C2264 1.524 . S
C2263 C2267 1.400 . S
C2264 H2249 0.960 . S
C2264 H2250 0.960 . S
C2264 H2251 0.960 . S
C2264 C2263 1.524 . S
C2265 C2262 1.403 . S
C2265 C2266 1.392 . S
C2265 C2269 1.495 . S
C2266 C2265 1.392 . S
C2266 C2267 1.385 . S
C2266 C2268 1.478 . S
C2267 H2261 0.930 . S
C2267 C2263 1.400 . S
C2267 C2266 1.385 . S
C2268 C2266 1.478 . S
C2268 C2270 1.381 . S
C2268 C2274 1.383 . S
C2269 C2265 1.495 . S
C2269 H2275 0.959 . S
C2269 H2276 0.961 . S
C2269 H2277 0.960 . S
C2270 C2268 1.381 . S
C2270 C2271 1.394 . S
C2270 H2278 0.930 . S
C2271 C2270 1.394 . S
C2271 C2272 1.383 . S
C2271 H2279 0.929 . S
C2272 C2271 1.383 . S
C2272 C2273 1.377 . S
C2273 H2257 0.930 . S
C2273 C2272 1.377 . S
C2273 C2274 1.379 . S
C2274 H2258 0.931 . S
C2274 C2268 1.383 . S
C2274 C2273 1.379 . S
H2275 C2269 0.959 . S
H2276 C2269 0.961 . S
H2277 C2269 0.960 . S
H2278 C2270 0.930 . S
H2279 C2271 0.929 . S
H2280 C2288 0.929 . S
H2281 C2290 0.930 . S
H2282 C2292 0.930 . S
H2283 C2295 0.929 . S
H2284 C2298 0.930 . S
H2285 C2300 0.960 . S
H2286 C2300 0.960 . S
H2287 C2300 0.960 . S
C2288 H2280 0.929 . S
C2288 C2289 1.377 . S
C2288 C2290 1.384 . S
C2289 C2288 1.377 . S
C2289 C2295 1.390 . S
C2290 H2281 0.930 . S
C2290 C2288 1.384 . S
C2290 C2291 1.372 . S
C2291 C2290 1.372 . S
C2291 C2292 1.400 . S
C2291 C2296 1.490 . S
C2292 H2282 0.930 . S
C2292 C2291 1.400 . S
C2292 C2295 1.386 . S
H2293 C2309 0.930 . S
H2294 C2310 0.931 . S
C2295 H2283 0.929 . S
C2295 C2289 1.390 . S
C2295 C2292 1.386 . S
C2296 C2291 1.490 . S
C2296 C2298 1.395 . S
C2296 C2299 1.403 . S
H2297 C2303 0.930 . S
C2298 H2284 0.930 . S
C2298 C2296 1.395 . S
C2298 C2301 1.403 1_455 S
C2299 C2296 1.403 . S
C2299 C2300 1.524 . S
C2299 C2303 1.400 1_455 S
C2300 H2285 0.960 . S
C2300 H2286 0.960 . S
C2300 H2287 0.960 . S
C2300 C2299 1.524 . S
C2301 C2298 1.403 1_655 S
C2301 C2302 1.392 . S
C2301 C2305 1.495 . S
C2302 C2301 1.392 . S
C2302 C2303 1.385 . S
C2302 C2304 1.478 . S
C2303 H2297 0.930 . S
C2303 C2299 1.400 1_655 S
C2303 C2302 1.385 . S
C2304 C2302 1.478 . S
C2304 C2306 1.381 . S
C2304 C2310 1.383 . S
C2305 C2301 1.495 . S
C2305 H2311 0.959 . S
C2305 H2312 0.961 . S
C2305 H2313 0.960 . S
C2306 C2304 1.381 . S
C2306 C2307 1.394 . S
C2306 H2314 0.930 . S
C2307 C2306 1.394 . S
C2307 C2308 1.383 . S
C2307 H2315 0.929 . S
C2308 C2307 1.383 . S
C2308 C2309 1.377 . S
C2309 H2293 0.930 . S
C2309 C2308 1.377 . S
C2309 C2310 1.379 . S
C2310 H2294 0.931 . S
C2310 C2304 1.383 . S
C2310 C2309 1.379 . S
H2311 C2305 0.959 . S
H2312 C2305 0.961 . S
H2313 C2305 0.960 . S
H2314 C2306 0.930 . S
H2315 C2307 0.929 . S
H2316 C2324 0.929 . S
H2317 C2326 0.930 . S
H2318 C2328 0.930 . S
H2319 C2331 0.929 . S
H2320 C2334 0.930 . S
H2321 C2336 0.960 . S
H2322 C2336 0.960 . S
H2323 C2336 0.960 . S
C2324 H2316 0.929 . S
C2324 C2325 1.377 . S
C2324 C2326 1.384 . S
C2325 C2324 1.377 . S
C2325 C2331 1.390 . S
C2326 H2317 0.930 . S
C2326 C2324 1.384 . S
C2326 C2327 1.372 . S
C2327 C2326 1.372 . S
C2327 C2328 1.400 . S
C2327 C2332 1.490 . S
C2328 H2318 0.930 . S
C2328 C2327 1.400 . S
C2328 C2331 1.386 . S
H2329 C2345 0.930 . S
H2330 C2346 0.931 . S
C2331 H2319 0.929 . S
C2331 C2325 1.390 . S
C2331 C2328 1.386 . S
C2332 C2327 1.490 . S
C2332 C2334 1.395 . S
C2332 C2335 1.403 . S
H2333 C2339 0.930 . S
C2334 H2320 0.930 . S
C2334 C2332 1.395 . S
C2334 C2337 1.403 1_545 S
C2335 C2332 1.403 . S
C2335 C2336 1.524 . S
C2335 C2339 1.400 1_545 S
C2336 H2321 0.960 . S
C2336 H2322 0.960 . S
C2336 H2323 0.960 . S
C2336 C2335 1.524 . S
C2337 C2334 1.403 1_565 S
C2337 C2338 1.392 . S
C2337 C2341 1.495 . S
C2338 C2337 1.392 . S
C2338 C2339 1.385 . S
C2338 C2340 1.478 . S
C2339 H2333 0.930 . S
C2339 C2335 1.400 1_565 S
C2339 C2338 1.385 . S
C2340 C2338 1.478 . S
C2340 C2342 1.381 . S
C2340 C2346 1.383 . S
C2341 C2337 1.495 . S
C2341 H2347 0.959 . S
C2341 H2348 0.961 . S
C2341 H2349 0.960 . S
C2342 C2340 1.381 . S
C2342 C2343 1.394 . S
C2342 H2350 0.930 . S
C2343 C2342 1.394 . S
C2343 C2344 1.383 . S
C2343 H2351 0.929 . S
C2344 C2343 1.383 . S
C2344 C2345 1.377 . S
C2345 H2329 0.930 . S
C2345 C2344 1.377 . S
C2345 C2346 1.379 . S
C2346 H2330 0.931 . S
C2346 C2340 1.383 . S
C2346 C2345 1.379 . S
H2347 C2341 0.959 . S
H2348 C2341 0.961 . S
H2349 C2341 0.960 . S
H2350 C2342 0.930 . S
H2351 C2343 0.929 . S
H2352 C2360 0.929 . S
H2353 C2362 0.930 . S
H2354 C2364 0.930 . S
H2355 C2367 0.929 . S
H2356 C2370 0.930 . S
H2357 C2372 0.960 . S
H2358 C2372 0.960 . S
H2359 C2372 0.960 . S
C2360 H2352 0.929 . S
C2360 C2361 1.377 . S
C2360 C2362 1.384 . S
C2361 C2360 1.377 . S
C2361 C2367 1.390 . S
C2362 H2353 0.930 . S
C2362 C2360 1.384 . S
C2362 C2363 1.372 . S
C2363 C2362 1.372 . S
C2363 C2364 1.400 . S
C2363 C2368 1.490 . S
C2364 H2354 0.930 . S
C2364 C2363 1.400 . S
C2364 C2367 1.386 . S
H2365 C2381 0.930 . S
H2366 C2382 0.931 . S
C2367 H2355 0.929 . S
C2367 C2361 1.390 . S
C2367 C2364 1.386 . S
C2368 C2363 1.490 . S
C2368 C2370 1.395 . S
C2368 C2371 1.403 . S
H2369 C2375 0.930 . S
C2370 H2356 0.930 . S
C2370 C2368 1.395 . S
C2370 C2373 1.403 1_655 S
C2371 C2368 1.403 . S
C2371 C2372 1.524 . S
C2371 C2375 1.400 1_655 S
C2372 H2357 0.960 . S
C2372 H2358 0.960 . S
C2372 H2359 0.960 . S
C2372 C2371 1.524 . S
C2373 C2370 1.403 1_455 S
C2373 C2374 1.392 . S
C2373 C2377 1.495 . S
C2374 C2373 1.392 . S
C2374 C2375 1.385 . S
C2374 C2376 1.478 . S
C2375 H2369 0.930 . S
C2375 C2371 1.400 1_455 S
C2375 C2374 1.385 . S
C2376 C2374 1.478 . S
C2376 C2378 1.381 . S
C2376 C2382 1.383 . S
C2377 C2373 1.495 . S
C2377 H2383 0.959 . S
C2377 H2384 0.961 . S
C2377 H2385 0.960 . S
C2378 C2376 1.381 . S
C2378 C2379 1.394 . S
C2378 H2386 0.930 . S
C2379 C2378 1.394 . S
C2379 C2380 1.383 . S
C2379 H2387 0.929 . S
C2380 C2379 1.383 . S
C2380 C2381 1.377 . S
C2381 H2365 0.930 . S
C2381 C2380 1.377 . S
C2381 C2382 1.379 . S
C2382 H2366 0.931 . S
C2382 C2376 1.383 . S
C2382 C2381 1.379 . S
H2383 C2377 0.959 . S
H2384 C2377 0.961 . S
H2385 C2377 0.960 . S
H2386 C2378 0.930 . S
H2387 C2379 0.929 . S
H2388 C2396 0.929 . S
H2389 C2398 0.930 . S
H2390 C2400 0.930 . S
H2391 C2403 0.929 . S
H2392 C2406 0.930 . S
H2393 C2408 0.960 . S
H2394 C2408 0.960 . S
H2395 C2408 0.960 . S
C2396 H2388 0.929 . S
C2396 C2397 1.377 . S
C2396 C2398 1.384 . S
C2397 C2396 1.377 . S
C2397 C2403 1.390 . S
C2398 H2389 0.930 . S
C2398 C2396 1.384 . S
C2398 C2399 1.372 . S
C2399 C2398 1.372 . S
C2399 C2400 1.400 . S
C2399 C2404 1.490 . S
C2400 H2390 0.930 . S
C2400 C2399 1.400 . S
C2400 C2403 1.386 . S
H2401 C2417 0.930 . S
H2402 C2418 0.931 . S
C2403 H2391 0.929 . S
C2403 C2397 1.390 . S
C2403 C2400 1.386 . S
C2404 C2399 1.490 . S
C2404 C2406 1.395 . S
C2404 C2407 1.403 . S
H2405 C2411 0.930 . S
C2406 H2392 0.930 . S
C2406 C2404 1.395 . S
C2406 C2409 1.403 1_545 S
C2407 C2404 1.403 . S
C2407 C2408 1.524 . S
C2407 C2411 1.400 1_545 S
C2408 H2393 0.960 . S
C2408 H2394 0.960 . S
C2408 H2395 0.960 . S
C2408 C2407 1.524 . S
C2409 C2406 1.403 1_565 S
C2409 C2410 1.392 . S
C2409 C2413 1.495 . S
C2410 C2409 1.392 . S
C2410 C2411 1.385 . S
C2410 C2412 1.478 . S
C2411 H2405 0.930 . S
C2411 C2407 1.400 1_565 S
C2411 C2410 1.385 . S
C2412 C2410 1.478 . S
C2412 C2414 1.381 . S
C2412 C2418 1.383 . S
C2413 C2409 1.495 . S
C2413 H2419 0.959 . S
C2413 H2420 0.961 . S
C2413 H2421 0.960 . S
C2414 C2412 1.381 . S
C2414 C2415 1.394 . S
C2414 H2422 0.930 . S
C2415 C2414 1.394 . S
C2415 C2416 1.383 . S
C2415 H2423 0.929 . S
C2416 C2415 1.383 . S
C2416 C2417 1.377 . S
C2417 H2401 0.930 . S
C2417 C2416 1.377 . S
C2417 C2418 1.379 . S
C2418 H2402 0.931 . S
C2418 C2412 1.383 . S
C2418 C2417 1.379 . S
H2419 C2413 0.959 . S
H2420 C2413 0.961 . S
H2421 C2413 0.960 . S
H2422 C2414 0.930 . S
H2423 C2415 0.929 . S
H2424 C2432 0.929 . S
H2425 C2434 0.930 . S
H2426 C2436 0.930 . S
H2427 C2439 0.929 . S
H2428 C2442 0.930 . S
H2429 C2444 0.960 . S
H2430 C2444 0.960 . S
H2431 C2444 0.960 . S
C2432 H2424 0.929 . S
C2432 C2433 1.377 . S
C2432 C2434 1.384 . S
C2433 C2432 1.377 . S
C2433 C2439 1.390 . S
C2434 H2425 0.930 . S
C2434 C2432 1.384 . S
C2434 C2435 1.372 . S
C2435 C2434 1.372 . S
C2435 C2436 1.400 . S
C2435 C2440 1.490 . S
C2436 H2426 0.930 . S
C2436 C2435 1.400 . S
C2436 C2439 1.386 . S
H2437 C2453 0.930 . S
H2438 C2454 0.931 . S
C2439 H2427 0.929 . S
C2439 C2433 1.390 . S
C2439 C2436 1.386 . S
C2440 C2435 1.490 . S
C2440 C2442 1.395 . S
C2440 C2443 1.403 . S
H2441 C2447 0.930 . S
C2442 H2428 0.930 . S
C2442 C2440 1.395 . S
C2442 C2445 1.403 1_565 S
C2443 C2440 1.403 . S
C2443 C2444 1.524 . S
C2443 C2447 1.400 1_565 S
C2444 H2429 0.960 . S
C2444 H2430 0.960 . S
C2444 H2431 0.960 . S
C2444 C2443 1.524 . S
C2445 C2442 1.403 1_545 S
C2445 C2446 1.392 . S
C2445 C2449 1.495 . S
C2446 C2445 1.392 . S
C2446 C2447 1.385 . S
C2446 C2448 1.478 . S
C2447 H2441 0.930 . S
C2447 C2443 1.400 1_545 S
C2447 C2446 1.385 . S
C2448 C2446 1.478 . S
C2448 C2450 1.381 . S
C2448 C2454 1.383 . S
C2449 C2445 1.495 . S
C2449 H2455 0.959 . S
C2449 H2456 0.961 . S
C2449 H2457 0.960 . S
C2450 C2448 1.381 . S
C2450 C2451 1.394 . S
C2450 H2458 0.930 . S
C2451 C2450 1.394 . S
C2451 C2452 1.383 . S
C2451 H2459 0.929 . S
C2452 C2451 1.383 . S
C2452 C2453 1.377 . S
C2453 H2437 0.930 . S
C2453 C2452 1.377 . S
C2453 C2454 1.379 . S
C2454 H2438 0.931 . S
C2454 C2448 1.383 . S
C2454 C2453 1.379 . S
H2455 C2449 0.959 . S
H2456 C2449 0.961 . S
H2457 C2449 0.960 . S
H2458 C2450 0.930 . S
H2459 C2451 0.929 . S
H2460 C2468 0.929 . S
H2461 C2470 0.930 . S
H2462 C2472 0.930 . S
H2463 C2475 0.929 . S
H2464 C2478 0.930 . S
H2465 C2480 0.960 . S
H2466 C2480 0.960 . S
H2467 C2480 0.960 . S
C2468 H2460 0.929 . S
C2468 C2469 1.377 . S
C2468 C2470 1.384 . S
C2469 C2468 1.377 . S
C2469 C2475 1.390 . S
C2470 H2461 0.930 . S
C2470 C2468 1.384 . S
C2470 C2471 1.372 . S
C2471 C2470 1.372 . S
C2471 C2472 1.400 . S
C2471 C2476 1.490 . S
C2472 H2462 0.930 . S
C2472 C2471 1.400 . S
C2472 C2475 1.386 . S
H2473 C2489 0.930 . S
H2474 C2490 0.931 . S
C2475 H2463 0.929 . S
C2475 C2469 1.390 . S
C2475 C2472 1.386 . S
C2476 C2471 1.490 . S
C2476 C2478 1.395 . S
C2476 C2479 1.403 . S
H2477 C2483 0.930 . S
C2478 H2464 0.930 . S
C2478 C2476 1.395 . S
C2478 C2481 1.403 1_655 S
C2479 C2476 1.403 . S
C2479 C2480 1.524 . S
C2479 C2483 1.400 1_655 S
C2480 H2465 0.960 . S
C2480 H2466 0.960 . S
C2480 H2467 0.960 . S
C2480 C2479 1.524 . S
C2481 C2478 1.403 1_455 S
C2481 C2482 1.392 . S
C2481 C2485 1.495 . S
C2482 C2481 1.392 . S
C2482 C2483 1.385 . S
C2482 C2484 1.478 . S
C2483 H2477 0.930 . S
C2483 C2479 1.400 1_455 S
C2483 C2482 1.385 . S
C2484 C2482 1.478 . S
C2484 C2486 1.381 . S
C2484 C2490 1.383 . S
C2485 C2481 1.495 . S
C2485 H2491 0.959 . S
C2485 H2492 0.961 . S
C2485 H2493 0.960 . S
C2486 C2484 1.381 . S
C2486 C2487 1.394 . S
C2486 H2494 0.930 . S
C2487 C2486 1.394 . S
C2487 C2488 1.383 . S
C2487 H2495 0.929 . S
C2488 C2487 1.383 . S
C2488 C2489 1.377 . S
C2489 H2473 0.930 . S
C2489 C2488 1.377 . S
C2489 C2490 1.379 . S
C2490 H2474 0.931 . S
C2490 C2484 1.383 . S
C2490 C2489 1.379 . S
H2491 C2485 0.959 . S
H2492 C2485 0.961 . S
H2493 C2485 0.960 . S
H2494 C2486 0.930 . S
H2495 C2487 0.929 . S
H2496 C2504 0.929 . S
H2497 C2506 0.930 . S
H2498 C2508 0.930 . S
H2499 C2511 0.929 . S
H2500 C2514 0.930 . S
H2501 C2516 0.960 . S
H2502 C2516 0.960 . S
H2503 C2516 0.960 . S
C2504 H2496 0.929 . S
C2504 C2505 1.377 . S
C2504 C2506 1.384 . S
C2505 C2504 1.377 . S
C2505 C2511 1.390 . S
C2506 H2497 0.930 . S
C2506 C2504 1.384 . S
C2506 C2507 1.372 . S
C2507 C2506 1.372 . S
C2507 C2508 1.400 . S
C2507 C2512 1.490 . S
C2508 H2498 0.930 . S
C2508 C2507 1.400 . S
C2508 C2511 1.386 . S
H2509 C2525 0.930 . S
H2510 C2526 0.931 . S
C2511 H2499 0.929 . S
C2511 C2505 1.390 . S
C2511 C2508 1.386 . S
C2512 C2507 1.490 . S
C2512 C2514 1.395 . S
C2512 C2515 1.403 . S
H2513 C2519 0.930 . S
C2514 H2500 0.930 . S
C2514 C2512 1.395 . S
C2514 C2517 1.403 1_565 S
C2515 C2512 1.403 . S
C2515 C2516 1.524 . S
C2515 C2519 1.400 1_565 S
C2516 H2501 0.960 . S
C2516 H2502 0.960 . S
C2516 H2503 0.960 . S
C2516 C2515 1.524 . S
C2517 C2514 1.403 1_545 S
C2517 C2518 1.392 . S
C2517 C2521 1.495 . S
C2518 C2517 1.392 . S
C2518 C2519 1.385 . S
C2518 C2520 1.478 . S
C2519 H2513 0.930 . S
C2519 C2515 1.400 1_545 S
C2519 C2518 1.385 . S
C2520 C2518 1.478 . S
C2520 C2522 1.381 . S
C2520 C2526 1.383 . S
C2521 C2517 1.495 . S
C2521 H2527 0.959 . S
C2521 H2528 0.961 . S
C2521 H2529 0.960 . S
C2522 C2520 1.381 . S
C2522 C2523 1.394 . S
C2522 H2530 0.930 . S
C2523 C2522 1.394 . S
C2523 C2524 1.383 . S
C2523 H2531 0.929 . S
C2524 C2523 1.383 . S
C2524 C2525 1.377 . S
C2525 H2509 0.930 . S
C2525 C2524 1.377 . S
C2525 C2526 1.379 . S
C2526 H2510 0.931 . S
C2526 C2520 1.383 . S
C2526 C2525 1.379 . S
H2527 C2521 0.959 . S
H2528 C2521 0.961 . S
H2529 C2521 0.960 . S
H2530 C2522 0.930 . S
H2531 C2523 0.929 . S
H2532 C2540 0.929 . S
H2533 C2542 0.930 . S
H2534 C2544 0.930 . S
H2535 C2547 0.929 . S
H2536 C2550 0.930 . S
H2537 C2552 0.960 . S
H2538 C2552 0.960 . S
H2539 C2552 0.960 . S
C2540 H2532 0.929 . S
C2540 C2541 1.377 . S
C2540 C2542 1.384 . S
C2541 C2540 1.377 . S
C2541 C2547 1.390 . S
C2542 H2533 0.930 . S
C2542 C2540 1.384 . S
C2542 C2543 1.372 . S
C2543 C2542 1.372 . S
C2543 C2544 1.400 . S
C2543 C2548 1.490 . S
C2544 H2534 0.930 . S
C2544 C2543 1.400 . S
C2544 C2547 1.386 . S
H2545 C2561 0.930 . S
H2546 C2562 0.931 . S
C2547 H2535 0.929 . S
C2547 C2541 1.390 . S
C2547 C2544 1.386 . S
C2548 C2543 1.490 . S
C2548 C2550 1.395 . S
C2548 C2551 1.403 . S
H2549 C2555 0.930 . S
C2550 H2536 0.930 . S
C2550 C2548 1.395 . S
C2550 C2553 1.403 1_655 S
C2551 C2548 1.403 . S
C2551 C2552 1.524 . S
C2551 C2555 1.400 1_655 S
C2552 H2537 0.960 . S
C2552 H2538 0.960 . S
C2552 H2539 0.960 . S
C2552 C2551 1.524 . S
C2553 C2550 1.403 1_455 S
C2553 C2554 1.392 . S
C2553 C2557 1.495 . S
C2554 C2553 1.392 . S
C2554 C2555 1.385 . S
C2554 C2556 1.478 . S
C2555 H2549 0.930 . S
C2555 C2551 1.400 1_455 S
C2555 C2554 1.385 . S
C2556 C2554 1.478 . S
C2556 C2558 1.381 . S
C2556 C2562 1.383 . S
C2557 C2553 1.495 . S
C2557 H2563 0.959 . S
C2557 H2564 0.961 . S
C2557 H2565 0.960 . S
C2558 C2556 1.381 . S
C2558 C2559 1.394 . S
C2558 H2566 0.930 . S
C2559 C2558 1.394 . S
C2559 C2560 1.383 . S
C2559 H2567 0.929 . S
C2560 C2559 1.383 . S
C2560 C2561 1.377 . S
C2561 H2545 0.930 . S
C2561 C2560 1.377 . S
C2561 C2562 1.379 . S
C2562 H2546 0.931 . S
C2562 C2556 1.383 . S
C2562 C2561 1.379 . S
H2563 C2557 0.959 . S
H2564 C2557 0.961 . S
H2565 C2557 0.960 . S
H2566 C2558 0.930 . S
H2567 C2559 0.929 . S
H2568 C2576 0.929 . S
H2569 C2578 0.930 . S
H2570 C2580 0.930 . S
H2571 C2583 0.929 . S
H2572 C2586 0.930 . S
H2573 C2588 0.960 . S
H2574 C2588 0.960 . S
H2575 C2588 0.960 . S
C2576 H2568 0.929 . S
C2576 C2577 1.377 . S
C2576 C2578 1.384 . S
C2577 C2576 1.377 . S
C2577 C2583 1.390 . S
C2578 H2569 0.930 . S
C2578 C2576 1.384 . S
C2578 C2579 1.372 . S
C2579 C2578 1.372 . S
C2579 C2580 1.400 . S
C2579 C2584 1.490 . S
C2580 H2570 0.930 . S
C2580 C2579 1.400 . S
C2580 C2583 1.386 . S
H2581 C2597 0.930 . S
H2582 C2598 0.931 . S
C2583 H2571 0.929 . S
C2583 C2577 1.390 . S
C2583 C2580 1.386 . S
C2584 C2579 1.490 . S
C2584 C2586 1.395 . S
C2584 C2587 1.403 . S
H2585 C2591 0.930 . S
C2586 H2572 0.930 . S
C2586 C2584 1.395 . S
C2586 C2589 1.403 1_556 S
C2587 C2584 1.403 . S
C2587 C2588 1.524 . S
C2587 C2591 1.400 1_556 S
C2588 H2573 0.960 . S
C2588 H2574 0.960 . S
C2588 H2575 0.960 . S
C2588 C2587 1.524 . S
C2589 C2586 1.403 1_554 S
C2589 C2590 1.392 . S
C2589 C2593 1.495 . S
C2590 C2589 1.392 . S
C2590 C2591 1.385 . S
C2590 C2592 1.478 . S
C2591 H2585 0.930 . S
C2591 C2587 1.400 1_554 S
C2591 C2590 1.385 . S
C2592 C2590 1.478 . S
C2592 C2594 1.381 . S
C2592 C2598 1.383 . S
C2593 C2589 1.495 . S
C2593 H2599 0.959 . S
C2593 H2600 0.961 . S
C2593 H2601 0.960 . S
C2594 C2592 1.381 . S
C2594 C2595 1.394 . S
C2594 H2602 0.930 . S
C2595 C2594 1.394 . S
C2595 C2596 1.383 . S
C2595 H2603 0.929 . S
C2596 C2595 1.383 . S
C2596 C2597 1.377 . S
C2597 H2581 0.930 . S
C2597 C2596 1.377 . S
C2597 C2598 1.379 . S
C2598 H2582 0.931 . S
C2598 C2592 1.383 . S
C2598 C2597 1.379 . S
H2599 C2593 0.959 . S
H2600 C2593 0.961 . S
H2601 C2593 0.960 . S
H2602 C2594 0.930 . S
H2603 C2595 0.929 . S
H2604 C2612 0.929 . S
H2605 C2614 0.930 . S
H2606 C2616 0.930 . S
H2607 C2619 0.929 . S
H2608 C2622 0.930 . S
H2609 C2624 0.960 . S
H2610 C2624 0.960 . S
H2611 C2624 0.960 . S
C2612 H2604 0.929 . S
C2612 C2613 1.377 . S
C2612 C2614 1.384 . S
C2613 C2612 1.377 . S
C2613 C2619 1.390 . S
C2614 H2605 0.930 . S
C2614 C2612 1.384 . S
C2614 C2615 1.372 . S
C2615 C2614 1.372 . S
C2615 C2616 1.400 . S
C2615 C2620 1.490 . S
C2616 H2606 0.930 . S
C2616 C2615 1.400 . S
C2616 C2619 1.386 . S
H2617 C2633 0.930 . S
H2618 C2634 0.931 . S
C2619 H2607 0.929 . S
C2619 C2613 1.390 . S
C2619 C2616 1.386 . S
C2620 C2615 1.490 . S
C2620 C2622 1.395 . S
C2620 C2623 1.403 . S
H2621 C2627 0.930 . S
C2622 H2608 0.930 . S
C2622 C2620 1.395 . S
C2622 C2625 1.403 1_556 S
C2623 C2620 1.403 . S
C2623 C2624 1.524 . S
C2623 C2627 1.400 1_556 S
C2624 H2609 0.960 . S
C2624 H2610 0.960 . S
C2624 H2611 0.960 . S
C2624 C2623 1.524 . S
C2625 C2622 1.403 1_554 S
C2625 C2626 1.392 . S
C2625 C2629 1.495 . S
C2626 C2625 1.392 . S
C2626 C2627 1.385 . S
C2626 C2628 1.478 . S
C2627 H2621 0.930 . S
C2627 C2623 1.400 1_554 S
C2627 C2626 1.385 . S
C2628 C2626 1.478 . S
C2628 C2630 1.381 . S
C2628 C2634 1.383 . S
C2629 C2625 1.495 . S
C2629 H2635 0.959 . S
C2629 H2636 0.961 . S
C2629 H2637 0.960 . S
C2630 C2628 1.381 . S
C2630 C2631 1.394 . S
C2630 H2638 0.930 . S
C2631 C2630 1.394 . S
C2631 C2632 1.383 . S
C2631 H2639 0.929 . S
C2632 C2631 1.383 . S
C2632 C2633 1.377 . S
C2633 H2617 0.930 . S
C2633 C2632 1.377 . S
C2633 C2634 1.379 . S
C2634 H2618 0.931 . S
C2634 C2628 1.383 . S
C2634 C2633 1.379 . S
H2635 C2629 0.959 . S
H2636 C2629 0.961 . S
H2637 C2629 0.960 . S
H2638 C2630 0.930 . S
H2639 C2631 0.929 . S
H2640 C2648 0.929 . S
H2641 C2650 0.930 . S
H2642 C2652 0.930 . S
H2643 C2655 0.929 . S
H2644 C2658 0.930 . S
H2645 C2660 0.960 . S
H2646 C2660 0.960 . S
H2647 C2660 0.960 . S
C2648 H2640 0.929 . S
C2648 C2649 1.377 . S
C2648 C2650 1.384 . S
C2649 C2648 1.377 . S
C2649 C2655 1.390 . S
C2650 H2641 0.930 . S
C2650 C2648 1.384 . S
C2650 C2651 1.372 . S
C2651 C2650 1.372 . S
C2651 C2652 1.400 . S
C2651 C2656 1.490 . S
C2652 H2642 0.930 . S
C2652 C2651 1.400 . S
C2652 C2655 1.386 . S
H2653 C2669 0.930 . S
H2654 C2670 0.931 . S
C2655 H2643 0.929 . S
C2655 C2649 1.390 . S
C2655 C2652 1.386 . S
C2656 C2651 1.490 . S
C2656 C2658 1.395 . S
C2656 C2659 1.403 . S
H2657 C2663 0.930 . S
C2658 H2644 0.930 . S
C2658 C2656 1.395 . S
C2658 C2661 1.403 1_556 S
C2659 C2656 1.403 . S
C2659 C2660 1.524 . S
C2659 C2663 1.400 1_556 S
C2660 H2645 0.960 . S
C2660 H2646 0.960 . S
C2660 H2647 0.960 . S
C2660 C2659 1.524 . S
C2661 C2658 1.403 1_554 S
C2661 C2662 1.392 . S
C2661 C2665 1.495 . S
C2662 C2661 1.392 . S
C2662 C2663 1.385 . S
C2662 C2664 1.478 . S
C2663 H2657 0.930 . S
C2663 C2659 1.400 1_554 S
C2663 C2662 1.385 . S
C2664 C2662 1.478 . S
C2664 C2666 1.381 . S
C2664 C2670 1.383 . S
C2665 C2661 1.495 . S
C2665 H2671 0.959 . S
C2665 H2672 0.961 . S
C2665 H2673 0.960 . S
C2666 C2664 1.381 . S
C2666 C2667 1.394 . S
C2666 H2674 0.930 . S
C2667 C2666 1.394 . S
C2667 C2668 1.383 . S
C2667 H2675 0.929 . S
C2668 C2667 1.383 . S
C2668 C2669 1.377 . S
C2669 H2653 0.930 . S
C2669 C2668 1.377 . S
C2669 C2670 1.379 . S
C2670 H2654 0.931 . S
C2670 C2664 1.383 . S
C2670 C2669 1.379 . S
H2671 C2665 0.959 . S
H2672 C2665 0.961 . S
H2673 C2665 0.960 . S
H2674 C2666 0.930 . S
H2675 C2667 0.929 . S
H2676 C2684 0.929 . S
H2677 C2686 0.930 . S
H2678 C2688 0.930 . S
H2679 C2691 0.929 . S
H2680 C2694 0.930 . S
H2681 C2696 0.960 . S
H2682 C2696 0.960 . S
H2683 C2696 0.960 . S
C2684 H2676 0.929 . S
C2684 C2685 1.377 . S
C2684 C2686 1.384 . S
C2685 C2684 1.377 . S
C2685 C2691 1.390 . S
C2686 H2677 0.930 . S
C2686 C2684 1.384 . S
C2686 C2687 1.372 . S
C2687 C2686 1.372 . S
C2687 C2688 1.400 . S
C2687 C2692 1.490 . S
C2688 H2678 0.930 . S
C2688 C2687 1.400 . S
C2688 C2691 1.386 . S
H2689 C2705 0.930 . S
H2690 C2706 0.931 . S
C2691 H2679 0.929 . S
C2691 C2685 1.390 . S
C2691 C2688 1.386 . S
C2692 C2687 1.490 . S
C2692 C2694 1.395 . S
C2692 C2695 1.403 . S
H2693 C2699 0.930 . S
C2694 H2680 0.930 . S
C2694 C2692 1.395 . S
C2694 C2697 1.403 1_556 S
C2695 C2692 1.403 . S
C2695 C2696 1.524 . S
C2695 C2699 1.400 1_556 S
C2696 H2681 0.960 . S
C2696 H2682 0.960 . S
C2696 H2683 0.960 . S
C2696 C2695 1.524 . S
C2697 C2694 1.403 1_554 S
C2697 C2698 1.392 . S
C2697 C2701 1.495 . S
C2698 C2697 1.392 . S
C2698 C2699 1.385 . S
C2698 C2700 1.478 . S
C2699 H2693 0.930 . S
C2699 C2695 1.400 1_554 S
C2699 C2698 1.385 . S
C2700 C2698 1.478 . S
C2700 C2702 1.381 . S
C2700 C2706 1.383 . S
C2701 C2697 1.495 . S
C2701 H2707 0.959 . S
C2701 H2708 0.961 . S
C2701 H2709 0.960 . S
C2702 C2700 1.381 . S
C2702 C2703 1.394 . S
C2702 H2710 0.930 . S
C2703 C2702 1.394 . S
C2703 C2704 1.383 . S
C2703 H2711 0.929 . S
C2704 C2703 1.383 . S
C2704 C2705 1.377 . S
C2705 H2689 0.930 . S
C2705 C2704 1.377 . S
C2705 C2706 1.379 . S
C2706 H2690 0.931 . S
C2706 C2700 1.383 . S
C2706 C2705 1.379 . S
H2707 C2701 0.959 . S
H2708 C2701 0.961 . S
H2709 C2701 0.960 . S
H2710 C2702 0.930 . S
H2711 C2703 0.929 . S
H2712 C2720 0.929 . S
H2713 C2722 0.930 . S
H2714 C2724 0.930 . S
H2715 C2727 0.929 . S
H2716 C2730 0.930 . S
H2717 C2732 0.960 . S
H2718 C2732 0.960 . S
H2719 C2732 0.960 . S
C2720 H2712 0.929 . S
C2720 C2721 1.377 . S
C2720 C2722 1.384 . S
C2721 C2720 1.377 . S
C2721 C2727 1.390 . S
C2722 H2713 0.930 . S
C2722 C2720 1.384 . S
C2722 C2723 1.372 . S
C2723 C2722 1.372 . S
C2723 C2724 1.400 . S
C2723 C2728 1.490 . S
C2724 H2714 0.930 . S
C2724 C2723 1.400 . S
C2724 C2727 1.386 . S
H2725 C2741 0.930 . S
H2726 C2742 0.931 . S
C2727 H2715 0.929 . S
C2727 C2721 1.390 . S
C2727 C2724 1.386 . S
C2728 C2723 1.490 . S
C2728 C2730 1.395 . S
C2728 C2731 1.403 . S
H2729 C2735 0.930 . S
C2730 H2716 0.930 . S
C2730 C2728 1.395 . S
C2730 C2733 1.403 . S
C2731 C2728 1.403 . S
C2731 C2732 1.524 . S
C2731 C2735 1.400 . S
C2732 H2717 0.960 . S
C2732 H2718 0.960 . S
C2732 H2719 0.960 . S
C2732 C2731 1.524 . S
C2733 C2730 1.403 . S
C2733 C2734 1.392 . S
C2733 C2737 1.495 . S
C2734 C2733 1.392 . S
C2734 C2735 1.385 . S
C2734 C2736 1.478 . S
C2735 H2729 0.930 . S
C2735 C2731 1.400 . S
C2735 C2734 1.385 . S
C2736 C2734 1.478 . S
C2736 C2738 1.381 . S
C2736 C2742 1.383 . S
C2737 C2733 1.495 . S
C2737 H2743 0.959 . S
C2737 H2744 0.961 . S
C2737 H2745 0.960 . S
C2738 C2736 1.381 . S
C2738 C2739 1.394 . S
C2738 H2746 0.930 . S
C2739 C2738 1.394 . S
C2739 C2740 1.383 . S
C2739 H2747 0.929 . S
C2740 C2739 1.383 . S
C2740 C2741 1.377 . S
C2741 H2725 0.930 . S
C2741 C2740 1.377 . S
C2741 C2742 1.379 . S
C2742 H2726 0.931 . S
C2742 C2736 1.383 . S
C2742 C2741 1.379 . S
H2743 C2737 0.959 . S
H2744 C2737 0.961 . S
H2745 C2737 0.960 . S
H2746 C2738 0.930 . S
H2747 C2739 0.929 . S
H2748 C2756 0.929 . S
H2749 C2758 0.930 . S
H2750 C2760 0.930 . S
H2751 C2763 0.929 . S
H2752 C2766 0.930 . S
H2753 C2768 0.960 . S
H2754 C2768 0.960 . S
H2755 C2768 0.960 . S
C2756 H2748 0.929 . S
C2756 C2757 1.377 . S
C2756 C2758 1.384 . S
C2757 C2756 1.377 . S
C2757 C2763 1.390 . S
C2758 H2749 0.930 . S
C2758 C2756 1.384 . S
C2758 C2759 1.372 . S
C2759 C2758 1.372 . S
C2759 C2760 1.400 . S
C2759 C2764 1.490 . S
C2760 H2750 0.930 . S
C2760 C2759 1.400 . S
C2760 C2763 1.386 . S
H2761 C2777 0.930 . S
H2762 C2778 0.931 . S
C2763 H2751 0.929 . S
C2763 C2757 1.390 . S
C2763 C2760 1.386 . S
C2764 C2759 1.490 . S
C2764 C2766 1.395 . S
C2764 C2767 1.403 . S
H2765 C2771 0.930 . S
C2766 H2752 0.930 . S
C2766 C2764 1.395 . S
C2766 C2769 1.403 . S
C2767 C2764 1.403 . S
C2767 C2768 1.524 . S
C2767 C2771 1.400 . S
C2768 H2753 0.960 . S
C2768 H2754 0.960 . S
C2768 H2755 0.960 . S
C2768 C2767 1.524 . S
C2769 C2766 1.403 . S
C2769 C2770 1.392 . S
C2769 C2773 1.495 . S
C2770 C2769 1.392 . S
C2770 C2771 1.385 . S
C2770 C2772 1.478 . S
C2771 H2765 0.930 . S
C2771 C2767 1.400 . S
C2771 C2770 1.385 . S
C2772 C2770 1.478 . S
C2772 C2774 1.381 . S
C2772 C2778 1.383 . S
C2773 C2769 1.495 . S
C2773 H2779 0.959 . S
C2773 H2780 0.961 . S
C2773 H2781 0.960 . S
C2774 C2772 1.381 . S
C2774 C2775 1.394 . S
C2774 H2782 0.930 . S
C2775 C2774 1.394 . S
C2775 C2776 1.383 . S
C2775 H2783 0.929 . S
C2776 C2775 1.383 . S
C2776 C2777 1.377 . S
C2777 H2761 0.930 . S
C2777 C2776 1.377 . S
C2777 C2778 1.379 . S
C2778 H2762 0.931 . S
C2778 C2772 1.383 . S
C2778 C2777 1.379 . S
H2779 C2773 0.959 . S
H2780 C2773 0.961 . S
H2781 C2773 0.960 . S
H2782 C2774 0.930 . S
H2783 C2775 0.929 . S
H2784 C2792 0.929 . S
H2785 C2794 0.930 . S
H2786 C2796 0.930 . S
H2787 C2799 0.929 . S
H2788 C2802 0.930 . S
H2789 C2804 0.960 . S
H2790 C2804 0.960 . S
H2791 C2804 0.960 . S
C2792 H2784 0.929 . S
C2792 C2793 1.377 . S
C2792 C2794 1.384 . S
C2793 C2792 1.377 . S
C2793 C2799 1.390 . S
C2794 H2785 0.930 . S
C2794 C2792 1.384 . S
C2794 C2795 1.372 . S
C2795 C2794 1.372 . S
C2795 C2796 1.400 . S
C2795 C2800 1.490 . S
C2796 H2786 0.930 . S
C2796 C2795 1.400 . S
C2796 C2799 1.386 . S
H2797 C2813 0.930 . S
H2798 C2814 0.931 . S
C2799 H2787 0.929 . S
C2799 C2793 1.390 . S
C2799 C2796 1.386 . S
C2800 C2795 1.490 . S
C2800 C2802 1.395 . S
C2800 C2803 1.403 . S
H2801 C2807 0.930 . S
C2802 H2788 0.930 . S
C2802 C2800 1.395 . S
C2802 C2805 1.403 . S
C2803 C2800 1.403 . S
C2803 C2804 1.524 . S
C2803 C2807 1.400 . S
C2804 H2789 0.960 . S
C2804 H2790 0.960 . S
C2804 H2791 0.960 . S
C2804 C2803 1.524 . S
C2805 C2802 1.403 . S
C2805 C2806 1.392 . S
C2805 C2809 1.495 . S
C2806 C2805 1.392 . S
C2806 C2807 1.385 . S
C2806 C2808 1.478 . S
C2807 H2801 0.930 . S
C2807 C2803 1.400 . S
C2807 C2806 1.385 . S
C2808 C2806 1.478 . S
C2808 C2810 1.381 . S
C2808 C2814 1.383 . S
C2809 C2805 1.495 . S
C2809 H2815 0.959 . S
C2809 H2816 0.961 . S
C2809 H2817 0.960 . S
C2810 C2808 1.381 . S
C2810 C2811 1.394 . S
C2810 H2818 0.930 . S
C2811 C2810 1.394 . S
C2811 C2812 1.383 . S
C2811 H2819 0.929 . S
C2812 C2811 1.383 . S
C2812 C2813 1.377 . S
C2813 H2797 0.930 . S
C2813 C2812 1.377 . S
C2813 C2814 1.379 . S
C2814 H2798 0.931 . S
C2814 C2808 1.383 . S
C2814 C2813 1.379 . S
H2815 C2809 0.959 . S
H2816 C2809 0.961 . S
H2817 C2809 0.960 . S
H2818 C2810 0.930 . S
H2819 C2811 0.929 . S
H2820 C2828 0.929 . S
H2821 C2830 0.930 . S
H2822 C2832 0.930 . S
H2823 C2835 0.929 . S
H2824 C2838 0.930 . S
H2825 C2840 0.960 . S
H2826 C2840 0.960 . S
H2827 C2840 0.960 . S
C2828 H2820 0.929 . S
C2828 C2829 1.377 . S
C2828 C2830 1.384 . S
C2829 C2828 1.377 . S
C2829 C2835 1.390 . S
C2830 H2821 0.930 . S
C2830 C2828 1.384 . S
C2830 C2831 1.372 . S
C2831 C2830 1.372 . S
C2831 C2832 1.400 . S
C2831 C2836 1.490 . S
C2832 H2822 0.930 . S
C2832 C2831 1.400 . S
C2832 C2835 1.386 . S
H2833 C2849 0.930 . S
H2834 C2850 0.931 . S
C2835 H2823 0.929 . S
C2835 C2829 1.390 . S
C2835 C2832 1.386 . S
C2836 C2831 1.490 . S
C2836 C2838 1.395 . S
C2836 C2839 1.403 . S
H2837 C2843 0.930 . S
C2838 H2824 0.930 . S
C2838 C2836 1.395 . S
C2838 C2841 1.403 . S
C2839 C2836 1.403 . S
C2839 C2840 1.524 . S
C2839 C2843 1.400 . S
C2840 H2825 0.960 . S
C2840 H2826 0.960 . S
C2840 H2827 0.960 . S
C2840 C2839 1.524 . S
C2841 C2838 1.403 . S
C2841 C2842 1.392 . S
C2841 C2845 1.495 . S
C2842 C2841 1.392 . S
C2842 C2843 1.385 . S
C2842 C2844 1.478 . S
C2843 H2837 0.930 . S
C2843 C2839 1.400 . S
C2843 C2842 1.385 . S
C2844 C2842 1.478 . S
C2844 C2846 1.381 . S
C2844 C2850 1.383 . S
C2845 C2841 1.495 . S
C2845 H2851 0.959 . S
C2845 H2852 0.961 . S
C2845 H2853 0.960 . S
C2846 C2844 1.381 . S
C2846 C2847 1.394 . S
C2846 H2854 0.930 . S
C2847 C2846 1.394 . S
C2847 C2848 1.383 . S
C2847 H2855 0.929 . S
C2848 C2847 1.383 . S
C2848 C2849 1.377 . S
C2849 H2833 0.930 . S
C2849 C2848 1.377 . S
C2849 C2850 1.379 . S
C2850 H2834 0.931 . S
C2850 C2844 1.383 . S
C2850 C2849 1.379 . S
H2851 C2845 0.959 . S
H2852 C2845 0.961 . S
H2853 C2845 0.960 . S
H2854 C2846 0.930 . S
H2855 C2847 0.929 . S
H2856 C2864 0.929 . S
H2857 C2866 0.930 . S
H2858 C2868 0.930 . S
H2859 C2871 0.929 . S
H2860 C2874 0.930 . S
H2861 C2876 0.960 . S
H2862 C2876 0.960 . S
H2863 C2876 0.960 . S
C2864 H2856 0.929 . S
C2864 C2865 1.377 . S
C2864 C2866 1.384 . S
C2865 C2864 1.377 . S
C2865 C2871 1.390 . S
C2866 H2857 0.930 . S
C2866 C2864 1.384 . S
C2866 C2867 1.372 . S
C2867 C2866 1.372 . S
C2867 C2868 1.400 . S
C2867 C2872 1.490 . S
C2868 H2858 0.930 . S
C2868 C2867 1.400 . S
C2868 C2871 1.386 . S
H2869 C2885 0.930 . S
H2870 C2886 0.931 . S
C2871 H2859 0.929 . S
C2871 C2865 1.390 . S
C2871 C2868 1.386 . S
C2872 C2867 1.490 . S
C2872 C2874 1.395 . S
C2872 C2875 1.403 . S
H2873 C2879 0.930 . S
C2874 H2860 0.930 . S
C2874 C2872 1.395 . S
C2874 C2877 1.403 . S
C2875 C2872 1.403 . S
C2875 C2876 1.524 . S
C2875 C2879 1.400 . S
C2876 H2861 0.960 . S
C2876 H2862 0.960 . S
C2876 H2863 0.960 . S
C2876 C2875 1.524 . S
C2877 C2874 1.403 . S
C2877 C2878 1.392 . S
C2877 C2881 1.495 . S
C2878 C2877 1.392 . S
C2878 C2879 1.385 . S
C2878 C2880 1.478 . S
C2879 H2873 0.930 . S
C2879 C2875 1.400 . S
C2879 C2878 1.385 . S
C2880 C2878 1.478 . S
C2880 C2882 1.381 . S
C2880 C2886 1.383 . S
C2881 C2877 1.495 . S
C2881 H2887 0.959 . S
C2881 H2888 0.961 . S
C2881 H2889 0.960 . S
C2882 C2880 1.381 . S
C2882 C2883 1.394 . S
C2882 H2890 0.930 . S
C2883 C2882 1.394 . S
C2883 C2884 1.383 . S
C2883 H2891 0.929 . S
C2884 C2883 1.383 . S
C2884 C2885 1.377 . S
C2885 H2869 0.930 . S
C2885 C2884 1.377 . S
C2885 C2886 1.379 . S
C2886 H2870 0.931 . S
C2886 C2880 1.383 . S
C2886 C2885 1.379 . S
H2887 C2881 0.959 . S
H2888 C2881 0.961 . S
H2889 C2881 0.960 . S
H2890 C2882 0.930 . S
H2891 C2883 0.929 . S
H2892 C2900 0.929 . S
H2893 C2902 0.930 . S
H2894 C2904 0.930 . S
H2895 C2907 0.929 . S
H2896 C2910 0.930 . S
H2897 C2912 0.960 . S
H2898 C2912 0.960 . S
H2899 C2912 0.960 . S
C2900 H2892 0.929 . S
C2900 C2901 1.377 . S
C2900 C2902 1.384 . S
C2901 C2900 1.377 . S
C2901 C2907 1.390 . S
C2902 H2893 0.930 . S
C2902 C2900 1.384 . S
C2902 C2903 1.372 . S
C2903 C2902 1.372 . S
C2903 C2904 1.400 . S
C2903 C2908 1.490 . S
C2904 H2894 0.930 . S
C2904 C2903 1.400 . S
C2904 C2907 1.386 . S
H2905 C2921 0.930 . S
H2906 C2922 0.931 . S
C2907 H2895 0.929 . S
C2907 C2901 1.390 . S
C2907 C2904 1.386 . S
C2908 C2903 1.490 . S
C2908 C2910 1.395 . S
C2908 C2911 1.403 . S
H2909 C2915 0.930 . S
C2910 H2896 0.930 . S
C2910 C2908 1.395 . S
C2910 C2913 1.403 . S
C2911 C2908 1.403 . S
C2911 C2912 1.524 . S
C2911 C2915 1.400 . S
C2912 H2897 0.960 . S
C2912 H2898 0.960 . S
C2912 H2899 0.960 . S
C2912 C2911 1.524 . S
C2913 C2910 1.403 . S
C2913 C2914 1.392 . S
C2913 C2917 1.495 . S
C2914 C2913 1.392 . S
C2914 C2915 1.385 . S
C2914 C2916 1.478 . S
C2915 H2909 0.930 . S
C2915 C2911 1.400 . S
C2915 C2914 1.385 . S
C2916 C2914 1.478 . S
C2916 C2918 1.381 . S
C2916 C2922 1.383 . S
C2917 C2913 1.495 . S
C2917 H2923 0.959 . S
C2917 H2924 0.961 . S
C2917 H2925 0.960 . S
C2918 C2916 1.381 . S
C2918 C2919 1.394 . S
C2918 H2926 0.930 . S
C2919 C2918 1.394 . S
C2919 C2920 1.383 . S
C2919 H2927 0.929 . S
C2920 C2919 1.383 . S
C2920 C2921 1.377 . S
C2921 H2905 0.930 . S
C2921 C2920 1.377 . S
C2921 C2922 1.379 . S
C2922 H2906 0.931 . S
C2922 C2916 1.383 . S
C2922 C2921 1.379 . S
H2923 C2917 0.959 . S
H2924 C2917 0.961 . S
H2925 C2917 0.960 . S
H2926 C2918 0.930 . S
H2927 C2919 0.929 . S
H2928 C2936 0.929 . S
H2929 C2938 0.930 . S
H2930 C2940 0.930 . S
H2931 C2943 0.929 . S
H2932 C2946 0.930 . S
H2933 C2948 0.960 . S
H2934 C2948 0.960 . S
H2935 C2948 0.960 . S
C2936 H2928 0.929 . S
C2936 C2937 1.377 . S
C2936 C2938 1.384 . S
C2937 C2936 1.377 . S
C2937 C2943 1.390 . S
C2938 H2929 0.930 . S
C2938 C2936 1.384 . S
C2938 C2939 1.372 . S
C2939 C2938 1.372 . S
C2939 C2940 1.400 . S
C2939 C2944 1.490 . S
C2940 H2930 0.930 . S
C2940 C2939 1.400 . S
C2940 C2943 1.386 . S
H2941 C2957 0.930 . S
H2942 C2958 0.931 . S
C2943 H2931 0.929 . S
C2943 C2937 1.390 . S
C2943 C2940 1.386 . S
C2944 C2939 1.490 . S
C2944 C2946 1.395 . S
C2944 C2947 1.403 . S
H2945 C2951 0.930 . S
C2946 H2932 0.930 . S
C2946 C2944 1.395 . S
C2946 C2949 1.403 . S
C2947 C2944 1.403 . S
C2947 C2948 1.524 . S
C2947 C2951 1.400 . S
C2948 H2933 0.960 . S
C2948 H2934 0.960 . S
C2948 H2935 0.960 . S
C2948 C2947 1.524 . S
C2949 C2946 1.403 . S
C2949 C2950 1.392 . S
C2949 C2953 1.495 . S
C2950 C2949 1.392 . S
C2950 C2951 1.385 . S
C2950 C2952 1.478 . S
C2951 H2945 0.930 . S
C2951 C2947 1.400 . S
C2951 C2950 1.385 . S
C2952 C2950 1.478 . S
C2952 C2954 1.381 . S
C2952 C2958 1.383 . S
C2953 C2949 1.495 . S
C2953 H2959 0.959 . S
C2953 H2960 0.961 . S
C2953 H2961 0.960 . S
C2954 C2952 1.381 . S
C2954 C2955 1.394 . S
C2954 H2962 0.930 . S
C2955 C2954 1.394 . S
C2955 C2956 1.383 . S
C2955 H2963 0.929 . S
C2956 C2955 1.383 . S
C2956 C2957 1.377 . S
C2957 H2941 0.930 . S
C2957 C2956 1.377 . S
C2957 C2958 1.379 . S
C2958 H2942 0.931 . S
C2958 C2952 1.383 . S
C2958 C2957 1.379 . S
H2959 C2953 0.959 . S
H2960 C2953 0.961 . S
H2961 C2953 0.960 . S
H2962 C2954 0.930 . S
H2963 C2955 0.929 . S
H2964 C2972 0.929 . S
H2965 C2974 0.930 . S
H2966 C2976 0.930 . S
H2967 C2979 0.929 . S
H2968 C2982 0.930 . S
H2969 C2984 0.960 . S
H2970 C2984 0.960 . S
H2971 C2984 0.960 . S
C2972 H2964 0.929 . S
C2972 C2973 1.377 . S
C2972 C2974 1.384 . S
C2973 C2972 1.377 . S
C2973 C2979 1.390 . S
C2974 H2965 0.930 . S
C2974 C2972 1.384 . S
C2974 C2975 1.372 . S
C2975 C2974 1.372 . S
C2975 C2976 1.400 . S
C2975 C2980 1.490 . S
C2976 H2966 0.930 . S
C2976 C2975 1.400 . S
C2976 C2979 1.386 . S
H2977 C2993 0.930 . S
H2978 C2994 0.931 . S
C2979 H2967 0.929 . S
C2979 C2973 1.390 . S
C2979 C2976 1.386 . S
C2980 C2975 1.490 . S
C2980 C2982 1.395 . S
C2980 C2983 1.403 . S
H2981 C2987 0.930 . S
C2982 H2968 0.930 . S
C2982 C2980 1.395 . S
C2982 C2985 1.403 . S
C2983 C2980 1.403 . S
C2983 C2984 1.524 . S
C2983 C2987 1.400 . S
C2984 H2969 0.960 . S
C2984 H2970 0.960 . S
C2984 H2971 0.960 . S
C2984 C2983 1.524 . S
C2985 C2982 1.403 . S
C2985 C2986 1.392 . S
C2985 C2989 1.495 . S
C2986 C2985 1.392 . S
C2986 C2987 1.385 . S
C2986 C2988 1.478 . S
C2987 H2981 0.930 . S
C2987 C2983 1.400 . S
C2987 C2986 1.385 . S
C2988 C2986 1.478 . S
C2988 C2990 1.381 . S
C2988 C2994 1.383 . S
C2989 C2985 1.495 . S
C2989 H2995 0.959 . S
C2989 H2996 0.961 . S
C2989 H2997 0.960 . S
C2990 C2988 1.381 . S
C2990 C2991 1.394 . S
C2990 H2998 0.930 . S
C2991 C2990 1.394 . S
C2991 C2992 1.383 . S
C2991 H2999 0.929 . S
C2992 C2991 1.383 . S
C2992 C2993 1.377 . S
C2993 H2977 0.930 . S
C2993 C2992 1.377 . S
C2993 C2994 1.379 . S
C2994 H2978 0.931 . S
C2994 C2988 1.383 . S
C2994 C2993 1.379 . S
H2995 C2989 0.959 . S
H2996 C2989 0.961 . S
H2997 C2989 0.960 . S
H2998 C2990 0.930 . S
H2999 C2991 0.929 . S
H3000 C3008 0.929 . S
H3001 C3010 0.930 . S
H3002 C3012 0.930 . S
H3003 C3015 0.929 . S
H3004 C3018 0.930 . S
H3005 C3020 0.960 . S
H3006 C3020 0.960 . S
H3007 C3020 0.960 . S
C3008 H3000 0.929 . S
C3008 C3009 1.377 . S
C3008 C3010 1.384 . S
C3009 C3008 1.377 . S
C3009 C3015 1.390 . S
C3010 H3001 0.930 . S
C3010 C3008 1.384 . S
C3010 C3011 1.372 . S
C3011 C3010 1.372 . S
C3011 C3012 1.400 . S
C3011 C3016 1.490 . S
C3012 H3002 0.930 . S
C3012 C3011 1.400 . S
C3012 C3015 1.386 . S
H3013 C3029 0.930 . S
H3014 C3030 0.931 . S
C3015 H3003 0.929 . S
C3015 C3009 1.390 . S
C3015 C3012 1.386 . S
C3016 C3011 1.490 . S
C3016 C3018 1.395 . S
C3016 C3019 1.403 . S
H3017 C3023 0.930 . S
C3018 H3004 0.930 . S
C3018 C3016 1.395 . S
C3018 C3021 1.403 . S
C3019 C3016 1.403 . S
C3019 C3020 1.524 . S
C3019 C3023 1.400 . S
C3020 H3005 0.960 . S
C3020 H3006 0.960 . S
C3020 H3007 0.960 . S
C3020 C3019 1.524 . S
C3021 C3018 1.403 . S
C3021 C3022 1.392 . S
C3021 C3025 1.495 . S
C3022 C3021 1.392 . S
C3022 C3023 1.385 . S
C3022 C3024 1.478 . S
C3023 H3017 0.930 . S
C3023 C3019 1.400 . S
C3023 C3022 1.385 . S
C3024 C3022 1.478 . S
C3024 C3026 1.381 . S
C3024 C3030 1.383 . S
C3025 C3021 1.495 . S
C3025 H3031 0.959 . S
C3025 H3032 0.961 . S
C3025 H3033 0.960 . S
C3026 C3024 1.381 . S
C3026 C3027 1.394 . S
C3026 H3034 0.930 . S
C3027 C3026 1.394 . S
C3027 C3028 1.383 . S
C3027 H3035 0.929 . S
C3028 C3027 1.383 . S
C3028 C3029 1.377 . S
C3029 H3013 0.930 . S
C3029 C3028 1.377 . S
C3029 C3030 1.379 . S
C3030 H3014 0.931 . S
C3030 C3024 1.383 . S
C3030 C3029 1.379 . S
H3031 C3025 0.959 . S
H3032 C3025 0.961 . S
H3033 C3025 0.960 . S
H3034 C3026 0.930 . S
H3035 C3027 0.929 . S
H3036 C3044 0.929 . S
H3037 C3046 0.930 . S
H3038 C3048 0.930 . S
H3039 C3051 0.929 . S
H3040 C3054 0.930 . S
H3041 C3056 0.960 . S
H3042 C3056 0.960 . S
H3043 C3056 0.960 . S
C3044 H3036 0.929 . S
C3044 C3045 1.377 . S
C3044 C3046 1.384 . S
C3045 C3044 1.377 . S
C3045 C3051 1.390 . S
C3046 H3037 0.930 . S
C3046 C3044 1.384 . S
C3046 C3047 1.372 . S
C3047 C3046 1.372 . S
C3047 C3048 1.400 . S
C3047 C3052 1.490 . S
C3048 H3038 0.930 . S
C3048 C3047 1.400 . S
C3048 C3051 1.386 . S
H3049 C3065 0.930 . S
H3050 C3066 0.931 . S
C3051 H3039 0.929 . S
C3051 C3045 1.390 . S
C3051 C3048 1.386 . S
C3052 C3047 1.490 . S
C3052 C3054 1.395 . S
C3052 C3055 1.403 . S
H3053 C3059 0.930 . S
C3054 H3040 0.930 . S
C3054 C3052 1.395 . S
C3054 C3057 1.403 . S
C3055 C3052 1.403 . S
C3055 C3056 1.524 . S
C3055 C3059 1.400 . S
C3056 H3041 0.960 . S
C3056 H3042 0.960 . S
C3056 H3043 0.960 . S
C3056 C3055 1.524 . S
C3057 C3054 1.403 . S
C3057 C3058 1.392 . S
C3057 C3061 1.495 . S
C3058 C3057 1.392 . S
C3058 C3059 1.385 . S
C3058 C3060 1.478 . S
C3059 H3053 0.930 . S
C3059 C3055 1.400 . S
C3059 C3058 1.385 . S
C3060 C3058 1.478 . S
C3060 C3062 1.381 . S
C3060 C3066 1.383 . S
C3061 C3057 1.495 . S
C3061 H3067 0.959 . S
C3061 H3068 0.961 . S
C3061 H3069 0.960 . S
C3062 C3060 1.381 . S
C3062 C3063 1.394 . S
C3062 H3070 0.930 . S
C3063 C3062 1.394 . S
C3063 C3064 1.383 . S
C3063 H3071 0.929 . S
C3064 C3063 1.383 . S
C3064 C3065 1.377 . S
C3065 H3049 0.930 . S
C3065 C3064 1.377 . S
C3065 C3066 1.379 . S
C3066 H3050 0.931 . S
C3066 C3060 1.383 . S
C3066 C3065 1.379 . S
H3067 C3061 0.959 . S
H3068 C3061 0.961 . S
H3069 C3061 0.960 . S
H3070 C3062 0.930 . S
H3071 C3063 0.929 . S
H3072 C3080 0.929 . S
H3073 C3082 0.930 . S
H3074 C3084 0.930 . S
H3075 C3087 0.929 . S
H3076 C3090 0.930 . S
H3077 C3092 0.960 . S
H3078 C3092 0.960 . S
H3079 C3092 0.960 . S
C3080 H3072 0.929 . S
C3080 C3081 1.377 . S
C3080 C3082 1.384 . S
C3081 C3080 1.377 . S
C3081 C3087 1.390 . S
C3082 H3073 0.930 . S
C3082 C3080 1.384 . S
C3082 C3083 1.372 . S
C3083 C3082 1.372 . S
C3083 C3084 1.400 . S
C3083 C3088 1.490 . S
C3084 H3074 0.930 . S
C3084 C3083 1.400 . S
C3084 C3087 1.386 . S
H3085 C3101 0.930 . S
H3086 C3102 0.931 . S
C3087 H3075 0.929 . S
C3087 C3081 1.390 . S
C3087 C3084 1.386 . S
C3088 C3083 1.490 . S
C3088 C3090 1.395 . S
C3088 C3091 1.403 . S
H3089 C3095 0.930 . S
C3090 H3076 0.930 . S
C3090 C3088 1.395 . S
C3090 C3093 1.403 . S
C3091 C3088 1.403 . S
C3091 C3092 1.524 . S
C3091 C3095 1.400 . S
C3092 H3077 0.960 . S
C3092 H3078 0.960 . S
C3092 H3079 0.960 . S
C3092 C3091 1.524 . S
C3093 C3090 1.403 . S
C3093 C3094 1.392 . S
C3093 C3097 1.495 . S
C3094 C3093 1.392 . S
C3094 C3095 1.385 . S
C3094 C3096 1.478 . S
C3095 H3089 0.930 . S
C3095 C3091 1.400 . S
C3095 C3094 1.385 . S
C3096 C3094 1.478 . S
C3096 C3098 1.381 . S
C3096 C3102 1.383 . S
C3097 C3093 1.495 . S
C3097 H3103 0.959 . S
C3097 H3104 0.961 . S
C3097 H3105 0.960 . S
C3098 C3096 1.381 . S
C3098 C3099 1.394 . S
C3098 H3106 0.930 . S
C3099 C3098 1.394 . S
C3099 C3100 1.383 . S
C3099 H3107 0.929 . S
C3100 C3099 1.383 . S
C3100 C3101 1.377 . S
C3101 H3085 0.930 . S
C3101 C3100 1.377 . S
C3101 C3102 1.379 . S
C3102 H3086 0.931 . S
C3102 C3096 1.383 . S
C3102 C3101 1.379 . S
H3103 C3097 0.959 . S
H3104 C3097 0.961 . S
H3105 C3097 0.960 . S
H3106 C3098 0.930 . S
H3107 C3099 0.929 . S
H3108 C3116 0.929 . S
H3109 C3118 0.930 . S
H3110 C3120 0.930 . S
H3111 C3123 0.929 . S
H3112 C3126 0.930 . S
H3113 C3128 0.960 . S
H3114 C3128 0.960 . S
H3115 C3128 0.960 . S
C3116 H3108 0.929 . S
C3116 C3117 1.377 . S
C3116 C3118 1.384 . S
C3117 C3116 1.377 . S
C3117 C3123 1.390 . S
C3118 H3109 0.930 . S
C3118 C3116 1.384 . S
C3118 C3119 1.372 . S
C3119 C3118 1.372 . S
C3119 C3120 1.400 . S
C3119 C3124 1.490 . S
C3120 H3110 0.930 . S
C3120 C3119 1.400 . S
C3120 C3123 1.386 . S
H3121 C3137 0.930 . S
H3122 C3138 0.931 . S
C3123 H3111 0.929 . S
C3123 C3117 1.390 . S
C3123 C3120 1.386 . S
C3124 C3119 1.490 . S
C3124 C3126 1.395 . S
C3124 C3127 1.403 . S
H3125 C3131 0.930 . S
C3126 H3112 0.930 . S
C3126 C3124 1.395 . S
C3126 C3129 1.403 . S
C3127 C3124 1.403 . S
C3127 C3128 1.524 . S
C3127 C3131 1.400 . S
C3128 H3113 0.960 . S
C3128 H3114 0.960 . S
C3128 H3115 0.960 . S
C3128 C3127 1.524 . S
C3129 C3126 1.403 . S
C3129 C3130 1.392 . S
C3129 C3133 1.495 . S
C3130 C3129 1.392 . S
C3130 C3131 1.385 . S
C3130 C3132 1.478 . S
C3131 H3125 0.930 . S
C3131 C3127 1.400 . S
C3131 C3130 1.385 . S
C3132 C3130 1.478 . S
C3132 C3134 1.381 . S
C3132 C3138 1.383 . S
C3133 C3129 1.495 . S
C3133 H3139 0.959 . S
C3133 H3140 0.961 . S
C3133 H3141 0.960 . S
C3134 C3132 1.381 . S
C3134 C3135 1.394 . S
C3134 H3142 0.930 . S
C3135 C3134 1.394 . S
C3135 C3136 1.383 . S
C3135 H3143 0.929 . S
C3136 C3135 1.383 . S
C3136 C3137 1.377 . S
C3137 H3121 0.930 . S
C3137 C3136 1.377 . S
C3137 C3138 1.379 . S
C3138 H3122 0.931 . S
C3138 C3132 1.383 . S
C3138 C3137 1.379 . S
H3139 C3133 0.959 . S
H3140 C3133 0.961 . S
H3141 C3133 0.960 . S
H3142 C3134 0.930 . S
H3143 C3135 0.929 . S
C1425 C682 1.497 . S
C1444 C3 1.430 . S
C1461 C62 1.439 . S
C1480 C505 1.476 . S
C1497 C121 1.437 . S
C1516 C564 1.479 . S
C1533 C180 1.445 . S
C1552 C623 1.477 . S
C1569 C800 1.497 . S
C1588 C239 1.442 . S
C1605 C298 1.443 . S
C1624 C859 1.506 . S
C1641 C918 1.496 . S
C1660 C357 1.464 . S
C1677 C741 1.493 . S
C1696 C416 1.410 . S
C1713 C328 1.491 . S
C1732 C475 1.423 . S
C1749 C387 1.494 . S
C1768 C534 1.468 . S
C1785 C593 1.436 . S
C1804 C446 1.485 . S
C1821 C269 1.496 . S
C1840 C652 1.411 . S
C1857 C210 1.494 . S
C1876 C711 1.408 . S
C1893 C770 1.435 . S
C1912 C33 1.493 . S
C1929 C829 1.435 . S
C1948 C92 1.494 . S
C1965 C888 1.435 . S
C1984 C151 1.497 . S
C2001 C947 1.442 . S
C2020 C1390 1.474 . S
C2037 C1213 1.493 . S
C2056 C1006 1.468 . S
C2073 C1065 1.442 . S
C2092 C1036 1.474 . S
C2109 C1124 1.440 . S
C2128 C1095 1.475 . S
C2145 C1154 1.490 . S
C2164 C1183 1.441 . S
C2181 C1242 1.439 . S
C2200 C1331 1.507 . S
C2217 C977 1.493 . S
C2236 C1301 1.468 . S
C2253 C1272 1.493 . S
C2272 C1360 1.408 . S
C2289 C52 1.686 . S
C2308 C406 1.684 . S
C2325 C111 1.686 . S
C2344 C465 1.681 . S
C2361 C170 1.686 . S
C2380 C288 1.680 . S
C2397 C347 1.686 . S
C2416 C229 1.681 . S
C2433 C642 1.686 . S
C2452 C524 1.680 . S
C2469 C583 1.686 . S
C2488 C701 1.680 . S
C2505 C760 1.686 . S
C2524 C878 1.681 . S
C2541 C937 1.686 . S
C2560 C819 1.684 . S
C2577 C1055 1.686 . S
C2596 C996 1.684 . S
C2613 C1114 1.686 . S
C2632 C1409 1.681 . S
C2649 C1173 1.686 . S
C2668 C1291 1.684 . S
C2685 C1232 1.686 . S
C2704 C1350 1.683 . S
C2721 C5 1.026 . S
C2740 C300 1.021 . S
C2757 C64 1.026 . S
C2776 C359 1.014 . S
C2793 C123 1.028 . S
C2812 C418 1.021 . S
C2829 C241 1.025 . S
C2848 C182 1.013 . S
C2865 C477 1.026 . S
C2884 C1362 1.013 . S
C2901 C536 1.027 . S
C2920 C1244 1.030 . S
C2937 C1303 1.025 . S
C2956 C595 1.012 . S
C2973 C654 1.027 . S
C2992 C949 1.015 . S
C3009 C1185 1.031 . S
C3028 C713 1.038 . S
C3045 C1008 1.029 . S
C3064 C772 1.035 . S
C3081 C831 1.030 . S
C3100 C1067 1.040 . S
C3117 C1126 1.026 . S
C3136 C890 1.021 . S
