# Generated by pormake.
# Topology kag, (6)-cn, num edge types: 1
# Building blocks:
#     Node 0, Type 0, BuildingBlock: BETFAJ_clean_sbu_0, # of connection points: 6
#     Node 1, Type 0, BuildingBlock: BETFAJ_clean_sbu_0, # of connection points: 6
#     Node 2, Type 0, BuildingBlock: BETFAJ_clean_sbu_0, # of connection points: 6
#     Edge 3, Type (0, 0), BuildingBlock: XUDNAN_clean_linker_2, # of connection points: 2
#     Edge 4, Type (0, 0), BuildingBlock: XUDNAN_clean_linker_2, # of connection points: 2
#     Edge 5, Type (0, 0), BuildingBlock: XUDNAN_clean_linker_2, # of connection points: 2
#     Edge 6, Type (0, 0), BuildingBlock: XUDNAN_clean_linker_2, # of connection points: 2
#     Edge 7, Type (0, 0), BuildingBlock: XUDNAN_clean_linker_2, # of connection points: 2
#     Edge 8, Type (0, 0), BuildingBlock: XUDNAN_clean_linker_2, # of connection points: 2
#     Edge 9, Type (0, 0), BuildingBlock: XUDNAN_clean_linker_2, # of connection points: 2
#     Edge 10, Type (0, 0), BuildingBlock: XUDNAN_clean_linker_2, # of connection points: 2
#     Edge 11, Type (0, 0), BuildingBlock: XUDNAN_clean_linker_2, # of connection points: 2
# Relax obj value: 0.076
# Max RMSD: 0.198
# Mean RMSD: 0.103
data_MOF--net-kag--node1-BETFAJ_clean_sbu_0--edge1-XUDNAN_clean_linker_2
_symmetry_space_group_name_H-M    P1
_symmetry_Int_Tables_number       1
_symmetry_cell_setting            triclinic
loop_
_symmetry_equiv_pos_as_xyz
'x, y, z'
_cell_length_a     31.170721
_cell_length_b     42.076523
_cell_length_c     14.554934
_cell_angle_alpha  95.767058
_cell_angle_beta   90.284817
_cell_angle_gamma 95.22365
loop_
_atom_site_label
_atom_site_type_symbol
_atom_site_fract_x
_atom_site_fract_y
_atom_site_fract_z
_atom_type_partial_charge
Sm0 Sm 0.06235 0.47666 0.0124 0.0
Sm1 Sm 0.07293 0.55521 0.99275 0.0
C2 C 1.0445 0.42032 0.07459 0.0
C3 C 1.01308 0.39236 0.05028 0.0
C4 C 0.98999 0.37825 0.12043 0.0
C5 C 0.95855 0.3527 0.09865 0.0
C6 C 0.94969 0.34063 1.00608 0.0
C7 C 0.97306 0.35484 0.93593 0.0
C8 C 1.00427 0.38055 0.95776 0.0
C9 C 0.06349 0.49213 0.82923 0.0
C10 C 0.97661 0.51491 0.97261 0.0
C11 C 0.08958 0.61113 0.92676 0.0
C12 C 0.11572 0.64108 0.95779 0.0
C13 C 0.12043 0.666 0.90061 0.0
C14 C 0.14545 0.69455 0.93 0.0
C15 C 0.16599 0.6986 0.01725 0.0
C16 C 0.16142 0.67334 0.0739 0.0
C17 C 0.13657 0.64479 0.0443 0.0
C18 C 0.06867 0.54329 0.17751 0.0
C19 C 0.15918 0.51676 0.02794 0.0
O20 O 1.02821 0.44639 0.11024 0.0
O21 O 0.0753 0.42585 0.01536 0.0
O22 O 0.06646 0.50954 0.90419 0.0
O23 O 1.06005 0.46255 0.84938 0.0
O24 O 0.99149 0.48953 1.00502 0.0
O25 O 1.00193 0.54042 0.95332 0.0
O26 O 0.11132 0.58635 0.9035 0.0
O27 O 1.05552 0.60424 0.9763 0.0
O28 O 0.06764 0.52278 0.1075 0.0
O29 O 0.07187 0.57172 0.14897 0.0
O30 O 0.14259 0.54231 1.00125 0.0
O31 O 0.13555 0.48986 0.04299 0.0
H32 H 0.99594 0.38728 0.19217 0.0
H33 H 0.94073 0.34274 0.15438 0.0
H34 H 0.96756 0.34592 0.86405 0.0
H35 H 1.02134 0.39124 0.9022 0.0
H36 H 0.10462 0.66341 0.83346 0.0
H37 H 0.14805 0.71367 0.8852 0.0
H38 H 0.17734 0.67555 0.14086 0.0
H39 H 0.13359 0.6256 0.08889 0.0
Sm40 Sm 0.61836 0.02361 0.02867 0.0
Sm41 Sm 0.51706 1.00494 0.05073 0.0
C42 C 0.69783 0.04758 0.99701 0.0
C43 C 0.72006 0.07778 0.97292 0.0
C44 C 0.6972 0.10171 0.94045 0.0
C45 C 0.71856 0.13156 0.92684 0.0
C46 C 0.76293 0.13801 0.9466 0.0
C47 C 0.78577 0.11346 0.97622 0.0
C48 C 0.76448 0.08366 0.98938 0.0
C49 C 0.59212 1.00784 0.2001 0.0
C50 C 0.55083 0.08072 0.05289 0.0
C51 C 0.44388 0.98455 0.12562 0.0
C52 C 0.41291 0.95568 0.12185 0.0
C53 C 0.40905 0.93846 0.19958 0.0
C54 C 0.38036 0.911 0.19891 0.0
C55 C 0.35434 0.90026 0.12076 0.0
C56 C 0.35825 0.91747 0.04265 0.0
C57 C 0.38729 0.94494 0.04314 0.0
C58 C 0.53807 1.00784 0.86616 0.0
C59 C 0.58254 0.9484 0.99571 0.0
O60 O 0.67316 0.03075 0.93333 0.0
O61 O 0.68079 0.04877 0.07905 0.0
O62 O 0.57222 0.02461 0.14949 0.0
O63 O 0.62681 0.9991 0.15973 0.0
O64 O 0.58924 0.07232 0.0265 0.0
O65 O 0.51926 0.0597 0.0749 0.0
O66 O 0.48191 0.98148 0.16042 0.0
O67 O 0.4454 1.00191 0.0554 0.0
O68 O 0.56184 1.01249 0.93668 0.0
O69 O 0.49886 1.00033 0.89203 0.0
O70 O 0.54626 0.95619 0.03543 0.0
O71 O 0.61335 0.97017 0.97449 0.0
H72 H 0.66277 0.09758 0.92778 0.0
H73 H 0.7001 0.14988 0.90371 0.0
H74 H 0.82011 0.11736 0.99017 0.0
H75 H 0.78257 0.0654 0.0145 0.0
H76 H 0.42845 0.94621 0.26115 0.0
H77 H 0.37884 0.89806 0.25963 0.0
H78 H 0.33838 0.91004 0.98167 0.0
H79 H 0.38951 0.95774 0.98215 0.0
Sm80 Sm 0.57461 0.55039 1.00363 0.0
Sm81 Sm 0.56166 0.47811 1.00146 0.0
C82 C 0.5751 0.61194 0.98124 0.0
C83 C 0.57541 0.64656 0.97076 0.0
C84 C 0.57482 0.65745 0.88271 0.0
C85 C 0.57772 0.69038 0.87311 0.0
C86 C 0.58055 0.71302 0.95142 0.0
C87 C 0.57999 0.702 0.03949 0.0
C88 C 0.57778 0.66913 0.04902 0.0
C89 C 0.57878 0.52738 0.17453 0.0
C90 C 0.47556 0.51591 0.02263 0.0
C91 C 0.55968 0.41644 0.02328 0.0
C92 C 0.55615 0.38144 0.03052 0.0
C93 C 0.57988 0.36809 0.09698 0.0
C94 C 0.57548 0.33483 0.1031 0.0
C95 C 0.54672 0.31454 0.04389 0.0
C96 C 0.52339 0.32801 0.97713 0.0
C97 C 0.52819 0.36099 0.97025 0.0
C98 C 0.54839 0.49957 0.83345 0.0
C99 C 0.65966 0.51338 0.97238 0.0
O100 O 0.55766 0.58947 0.92002 0.0
O101 O 0.5921 0.60163 0.05366 0.0
O102 O 0.55238 0.51774 0.11048 0.0
O103 O 0.60458 0.5511 0.15116 0.0
O104 O 0.50034 0.54088 0.99851 0.0
O105 O 0.4921 0.48917 0.03978 0.0
O106 O 0.57183 0.43847 0.09091 0.0
O107 O 0.54957 0.42741 0.94599 0.0
O108 O 0.57934 0.51053 0.88779 0.0
O109 O 0.52464 0.47675 0.86694 0.0
O110 O 0.63709 0.48842 1.00313 0.0
O111 O 0.64092 0.53887 0.95405 0.0
H112 H 0.57309 0.64054 0.82125 0.0
H113 H 0.57778 0.69816 0.80439 0.0
H114 H 0.58246 0.71886 0.10105 0.0
H115 H 0.5782 0.66137 0.11775 0.0
H116 H 0.60173 0.38332 0.14413 0.0
H117 H 0.59372 0.32509 0.15546 0.0
H118 H 0.50133 0.31296 0.92996 0.0
H119 H 0.50945 0.37055 0.91831 0.0
H120 H 0.06949 0.45796 0.65548 0.0
H121 H 1.05279 0.55251 0.79153 0.0
H122 H 1.05085 0.57391 0.6407 0.0
H123 H 0.13849 0.48486 0.47356 0.0
H124 H 0.11535 0.45543 0.38421 0.0
H125 H 0.11467 0.44658 0.50282 0.0
H126 H 1.03189 0.434 0.49228 0.0
H127 H 1.03233 0.44287 0.37363 0.0
H128 H 0.999 0.46368 0.45597 0.0
H129 H 1.05176 0.58597 0.4799 0.0
H130 H 1.05609 0.5891 0.31345 0.0
H131 H 0.0719 0.48717 0.26955 0.0
C132 C 0.06533 0.48313 0.65308 0.0
C133 C 1.06181 0.50372 0.73588 0.0
C134 C 1.05634 0.53644 0.72977 0.0
C135 C 1.05489 0.54879 0.6441 0.0
C136 C 1.0588 0.52815 0.56414 0.0
C137 C 0.06388 0.49601 0.56707 0.0
C138 C 0.06788 0.47961 0.46918 0.0
C139 C 0.11171 0.4658 0.45673 0.0
C140 C 1.03055 0.45349 0.44644 0.0
C141 C 0.06458 0.50769 0.41143 0.0
C142 C 1.05917 0.53527 0.46872 0.0
C143 C 1.05586 0.56455 0.43429 0.0
C144 C 1.05842 0.56601 0.33901 0.0
C145 C 0.06426 0.53843 0.27749 0.0
C146 C 0.06711 0.50865 0.31437 0.0
H147 H 0.52128 0.99789 0.31207 0.0
H148 H 0.65888 0.02536 0.31823 0.0
H149 H 0.65874 0.03023 0.48823 0.0
H150 H 0.49372 0.04823 0.51767 0.0
H151 H 0.45494 0.01834 0.55721 0.0
H152 H 0.4648 0.01896 0.43547 0.0
H153 H 0.48245 0.95981 0.42472 0.0
H154 H 0.47272 0.95895 0.54639 0.0
H155 H 0.52357 0.94853 0.49941 0.0
H156 H 0.64472 0.03214 0.6553 0.0
H157 H 0.61806 0.02786 0.8127 0.0
H158 H 0.49028 0.99558 0.70352 0.0
C159 C 0.55117 1.00518 0.34927 0.0
C160 C 0.59008 1.01137 0.30198 0.0
C161 C 0.62875 0.02043 0.35316 0.0
C162 C 0.62899 0.02337 0.44973 0.0
C163 C 0.59035 0.01674 0.49442 0.0
C164 C 0.55215 1.00756 0.44635 0.0
C165 C 0.51578 1.00007 0.51228 0.0
C166 C 0.48021 0.02276 0.50523 0.0
C167 C 0.49757 0.96474 0.49463 0.0
C168 C 0.53962 1.00665 0.60461 0.0
C169 C 0.58251 0.01649 0.5921 0.0
C170 C 0.61128 0.02421 0.66603 0.0
C171 C 0.59596 0.02154 0.75532 0.0
C172 C 0.55251 1.01093 0.77048 0.0
C173 C 0.52382 1.00359 0.69397 0.0
H174 H 0.60448 0.53598 0.72805 0.0
H175 H 0.48605 0.47248 0.71503 0.0
H176 H 0.48333 0.47252 0.54705 0.0
H177 H 0.57181 0.58325 0.54206 0.0
H178 H 0.62535 0.58823 0.49625 0.0
H179 H 0.61807 0.58431 0.61751 0.0
H180 H 0.66518 0.53649 0.60449 0.0
H181 H 0.67212 0.53996 0.48296 0.0
H182 H 0.65062 0.5024 0.52146 0.0
H183 H 0.49542 0.47447 0.38382 0.0
H184 H 0.51561 0.48536 0.22705 0.0
H185 H 0.62381 0.55095 0.33654 0.0
C186 C 0.57778 0.52252 0.68958 0.0
C187 C 0.54574 0.50391 0.73445 0.0
C188 C 0.51118 0.48665 0.68218 0.0
C189 C 0.50932 0.48643 0.58656 0.0
C190 C 0.54188 0.50403 0.54394 0.0
C191 C 0.575 0.52237 0.59304 0.0
C192 C 0.60517 0.53937 0.52797 0.0
C193 C 0.60508 0.57596 0.54709 0.0
C194 C 0.65099 0.52892 0.53465 0.0
C195 C 0.584 0.52709 0.43517 0.0
C196 C 0.54781 0.5065 0.44704 0.0
C197 C 0.52326 0.49096 0.37326 0.0
C198 C 0.53516 0.49726 0.28435 0.0
C199 C 0.57097 0.51929 0.26962 0.0
C200 C 0.59614 0.53415 0.346 0.0
H201 H 0.21786 0.46994 1.01088 0.0
H202 H 0.20814 0.57182 0.08134 0.0
H203 H 0.28673 0.58096 0.09633 0.0
H204 H 0.3122 0.46425 0.16517 0.0
H205 H 0.33682 0.43656 0.08363 0.0
H206 H 0.27901 0.43675 0.08565 0.0
H207 H 0.27839 0.44527 0.91203 0.0
H208 H 0.33615 0.44526 0.90957 0.0
H209 H 0.3109 0.47881 0.87281 0.0
H210 H 0.36495 0.58104 0.09131 0.0
H211 H 0.44105 0.57166 0.07159 0.0
H212 H 0.40495 0.46967 1.00701 0.0
C213 C 0.23237 0.494 0.0312 0.0
C214 C 0.20661 0.52017 0.04469 0.0
C215 C 0.22695 0.55139 0.06982 0.0
C216 C 0.2717 0.55688 0.07897 0.0
C217 C 0.29622 0.53095 0.06307 0.0
C218 C 0.27762 0.50005 0.0403 0.0
C219 C 0.31245 0.47702 0.02281 0.0
C220 C 0.30997 0.45217 0.09354 0.0
C221 C 0.30927 0.46063 0.92339 0.0
C222 C 0.35316 0.50003 0.03756 0.0
C223 C 0.3426 0.53096 0.06109 0.0
C224 C 0.37375 0.5569 0.0739 0.0
C225 C 0.41699 0.5513 0.062 0.0
C226 C 0.42915 0.51995 0.0379 0.0
C227 C 0.39671 0.49385 0.02657 0.0
H228 H 0.82325 0.17082 0.06643 0.0
H229 H 0.75277 0.17883 0.81308 0.0
H230 H 0.79076 0.23261 0.80332 0.0
H231 H 0.82536 0.25386 0.15807 0.0
H232 H 0.87902 0.25512 0.20582 0.0
H233 H 0.84481 0.21802 0.19462 0.0
H234 H 0.90327 0.19014 0.09888 0.0
H235 H 0.9377 0.22709 0.11007 0.0
H236 H 0.92388 0.20704 0.99709 0.0
H237 H 0.83842 0.28511 0.81985 0.0
H238 H 0.89166 0.33162 0.86047 0.0
H239 H 0.93262 0.28732 0.09911 0.0
C240 C 0.81596 0.1837 1.00837 0.0
C241 C 0.78516 0.17049 0.94021 0.0
C242 C 0.77597 0.18855 0.86654 0.0
C243 C 0.79749 0.21905 0.86025 0.0
C244 C 0.82798 0.23117 0.92831 0.0
C245 C 0.83712 0.21402 1.00097 0.0
C246 C 0.87178 0.23199 0.06424 0.0
C247 C 0.85418 0.24023 0.16143 0.0
C248 C 0.9115 0.21293 0.06771 0.0
C249 C 0.88131 0.26177 0.01509 0.0
C250 C 0.85552 0.26102 0.93726 0.0
C251 C 0.85882 0.28589 0.88056 0.0
C252 C 0.88941 0.31211 0.90387 0.0
C253 C 0.91655 0.31318 0.98289 0.0
C254 C 0.91208 0.28758 0.03904 0.0
H255 H 0.53807 0.89732 0.06694 0.0
H256 H 0.64076 0.92117 0.87829 0.0
H257 H 0.64999 0.86349 0.84305 0.0
H258 H 0.58744 0.8335 0.15909 0.0
H259 H 0.53736 0.80916 0.16926 0.0
H260 H 0.53794 0.85218 0.17699 0.0
H261 H 0.48127 0.84711 0.04431 0.0
H262 H 0.48053 0.80406 0.03598 0.0
H263 H 0.49201 0.825 0.93553 0.0
H264 H 0.64721 0.80292 0.82692 0.0
H265 H 0.63606 0.74453 0.83896 0.0
H266 H 0.53701 0.76052 0.04229 0.0
C267 C 0.5624 0.89047 0.01783 0.0
C268 C 0.58859 0.91384 0.97501 0.0
C269 C 0.62037 0.90377 0.91208 0.0
C270 C 0.62574 0.87104 0.89137 0.0
C271 C 0.59932 0.84866 0.93471 0.0
C272 C 0.56851 0.85798 0.9972 0.0
C273 C 0.54521 0.82927 0.0366 0.0
C274 C 0.55244 0.83115 0.14171 0.0
C275 C 0.4969 0.82619 0.01158 0.0
C276 C 0.56776 0.80229 0.98662 0.0
C277 C 0.59856 0.81395 0.92745 0.0
C278 C 0.62323 0.79355 0.87312 0.0
C279 C 0.61652 0.76042 0.88005 0.0
C280 C 0.58572 0.748 0.94155 0.0
C281 C 0.56102 0.76934 0.99521 0.0
H282 H 0.90771 0.47878 0.04508 0.0
H283 H 0.93872 0.55225 0.86021 0.0
H284 H 0.86169 0.55628 0.83422 0.0
H285 H 0.81019 0.44072 0.91705 0.0
H286 H 0.78076 0.43345 0.0203 0.0
H287 H 0.83868 0.43407 0.02049 0.0
H288 H 0.84365 0.47775 0.15959 0.0
H289 H 0.78582 0.47729 0.1598 0.0
H290 H 0.81868 0.51438 0.15125 0.0
H291 H 0.7831 0.55522 0.83269 0.0
H292 H 0.70528 0.55001 0.85789 0.0
H293 H 0.72075 0.47747 0.04498 0.0
C294 C 0.89819 0.49536 0.99817 0.0
C295 C 0.92956 0.51521 0.95472 0.0
C296 C 0.91564 0.53689 0.89481 0.0
C297 C 0.87181 0.53928 0.87911 0.0
C298 C 0.84184 0.51985 0.92366 0.0
C299 C 0.85412 0.49826 0.98197 0.0
C300 C 0.81462 0.48148 0.02411 0.0
C301 C 0.81085 0.44528 0.99367 0.0
C302 C 0.81577 0.48814 0.12997 0.0
C303 C 0.77854 0.49762 0.98171 0.0
C304 C 0.79538 0.51939 0.92332 0.0
C305 C 0.76945 0.53815 0.87784 0.0
C306 C 0.72512 0.53504 0.89308 0.0
C307 C 0.70661 0.51339 0.95368 0.0
C308 C 0.73377 0.49401 0.99762 0.0
H309 H 0.2242 0.73476 0.91986 0.0
H310 H 0.16502 0.73175 0.18857 0.0
H311 H 0.20667 0.78288 0.2437 0.0
H312 H 0.32958 0.76777 1.00359 0.0
H313 H 0.33896 0.79262 0.91047 0.0
H314 H 0.30459 0.75569 0.89205 0.0
H315 H 0.24279 0.78676 0.83694 0.0
H316 H 0.27694 0.82379 0.85542 0.0
H317 H 0.22543 0.82 0.91096 0.0
H318 H 0.2532 0.83466 0.26873 0.0
H319 H 0.30346 0.88314 0.26401 0.0
H320 H 0.33398 0.85214 0.98004 0.0
C321 C 0.21983 0.74497 0.99011 0.0
C322 C 0.19137 0.72926 0.05 0.0
C323 C 0.18699 0.74318 0.14184 0.0
C324 C 0.21031 0.77229 0.17362 0.0
C325 C 0.23799 0.78715 0.11281 0.0
C326 C 0.24303 0.77396 0.02314 0.0
C327 C 0.27523 0.79476 0.9723 0.0
C328 C 0.31441 0.77662 0.9429 0.0
C329 C 0.2538 0.80705 0.88898 0.0
C330 C 0.28729 0.82178 0.04733 0.0
C331 C 0.26535 0.81691 0.1277 0.0
C332 C 0.27081 0.83864 0.2064 0.0
C333 C 0.29967 0.86603 0.20315 0.0
C334 C 0.323 0.87143 0.1219 0.0
C335 C 0.31642 0.84894 0.04294 0.0
H336 H 0.60742 0.27102 0.05353 0.0
H337 H 0.46966 0.27903 0.05264 0.0
H338 H 0.45622 0.2206 0.05916 0.0
H339 H 0.60339 0.19758 0.90703 0.0
H340 H 0.64572 0.18127 0.96687 0.0
H341 H 0.64524 0.22404 0.96797 0.0
H342 H 0.64701 0.23005 0.14671 0.0
H343 H 0.64798 0.18726 0.14586 0.0
H344 H 0.60675 0.2074 0.20825 0.0
H345 H 0.45727 0.16161 0.06363 0.0
H346 H 0.47251 0.10511 0.06059 0.0
H347 H 0.60974 0.13405 0.05272 0.0
C348 C 0.5745 0.26045 0.05603 0.0
C349 C 0.53953 0.27955 0.05278 0.0
C350 C 0.49687 0.26482 0.05457 0.0
C351 C 0.48892 0.23168 0.05865 0.0
C352 C 0.52398 0.21345 0.06055 0.0
C353 C 0.56594 0.22721 0.05914 0.0
C354 C 0.5976 0.20178 0.0578 0.0
C355 C 0.62456 0.20116 0.96961 0.0
C356 C 0.62654 0.20693 0.14485 0.0
C357 C 0.56682 0.17164 0.05797 0.0
C358 C 0.52455 0.17906 0.06057 0.0
C359 C 0.49025 0.15548 0.06173 0.0
C360 C 0.49929 0.1234 0.06015 0.0
C361 C 0.54231 0.115 0.05644 0.0
C362 C 0.57648 0.1396 0.05524 0.0
loop_
_geom_bond_atom_site_label_1
_geom_bond_atom_site_label_2
_geom_bond_distance
_geom_bond_site_symmetry_2
_ccdc_geom_bond_type
Sm0 C2 2.846 . S
Sm0 O20 2.543 1_556 S
Sm0 O21 2.450 . S
Sm0 O22 2.681 1_655 S
Sm0 O23 2.464 . S
Sm0 O24 2.396 . S
Sm0 O28 2.386 1_556 S
Sm0 O31 2.408 1_655 S
Sm1 C11 2.846 . S
Sm1 O22 2.386 1_554 S
Sm1 O25 2.408 1_455 S
Sm1 O26 2.543 1_554 S
Sm1 O27 2.450 . S
Sm1 O28 2.681 1_455 S
Sm1 O29 2.464 . S
Sm1 O30 2.396 . S
C2 Sm0 2.846 . S
C2 C3 1.506 . S
C2 O20 1.261 1_556 S
C2 O21 1.242 . S
C3 C2 1.506 . S
C3 C4 1.358 1_556 S
C3 C8 1.382 . S
C4 C3 1.358 1_554 S
C4 C5 1.385 . S
C4 H32 0.930 . S
C5 C4 1.385 . S
C5 C6 1.395 1_554 S
C5 H33 0.929 . S
C6 C5 1.395 1_556 S
C6 C7 1.335 . S
C7 C6 1.335 . S
C7 C8 1.398 . S
C7 H34 0.930 . S
C8 C3 1.382 . S
C8 C7 1.398 . S
C8 H35 0.929 . S
C9 O22 1.271 . S
C9 O23 1.251 1_455 S
C10 O24 1.252 . S
C10 O25 1.272 1_556 S
C11 Sm1 2.846 . S
C11 C12 1.506 . S
C11 O26 1.261 1_554 S
C11 O27 1.242 . S
C12 C11 1.506 . S
C12 C13 1.358 1_554 S
C12 C17 1.382 . S
C13 C12 1.358 1_556 S
C13 C14 1.385 . S
C13 H36 0.930 . S
C14 C13 1.385 . S
C14 C15 1.395 1_556 S
C14 H37 0.929 . S
C15 C14 1.395 1_554 S
C15 C16 1.335 . S
C16 C15 1.335 . S
C16 C17 1.398 . S
C16 H38 0.930 . S
C17 C12 1.382 . S
C17 C16 1.398 . S
C17 H39 0.929 . S
C18 O28 1.271 1_455 S
C18 O29 1.251 . S
C19 O30 1.252 . S
C19 O31 1.272 1_554 S
O20 Sm0 2.543 1_554 S
O20 C2 1.261 1_554 S
O21 Sm0 2.450 . S
O21 C2 1.242 . S
O22 Sm0 2.681 1_455 S
O22 Sm1 2.386 1_556 S
O22 C9 1.271 . S
O23 Sm0 2.464 . S
O23 C9 1.251 1_655 S
O24 Sm0 2.396 . S
O24 C10 1.252 . S
O25 Sm1 2.408 1_655 S
O25 C10 1.272 1_554 S
O26 Sm1 2.543 1_556 S
O26 C11 1.261 1_556 S
O27 Sm1 2.450 . S
O27 C11 1.242 . S
O28 Sm0 2.386 1_554 S
O28 Sm1 2.681 1_655 S
O28 C18 1.271 1_655 S
O29 Sm1 2.464 . S
O29 C18 1.251 . S
O30 Sm1 2.396 . S
O30 C19 1.252 . S
O31 Sm0 2.408 1_455 S
O31 C19 1.272 1_556 S
H32 C4 0.930 . S
H33 C5 0.929 . S
H34 C7 0.930 . S
H35 C8 0.929 . S
H36 C13 0.930 . S
H37 C14 0.929 . S
H38 C16 0.930 . S
H39 C17 0.929 . S
Sm40 C42 2.846 . S
Sm40 O60 2.543 1_554 S
Sm40 O61 2.450 . S
Sm40 O62 2.681 1_545 S
Sm40 O63 2.464 . S
Sm40 O64 2.396 . S
Sm40 O68 2.386 1_554 S
Sm40 O71 2.408 1_545 S
Sm41 C51 2.846 . S
Sm41 O62 2.386 1_556 S
Sm41 O65 2.408 1_565 S
Sm41 O66 2.543 1_556 S
Sm41 O67 2.450 . S
Sm41 O68 2.681 1_565 S
Sm41 O69 2.464 . S
Sm41 O70 2.396 . S
C42 Sm40 2.846 . S
C42 C43 1.506 1_554 S
C42 O60 1.261 1_554 S
C42 O61 1.242 . S
C43 C42 1.506 1_556 S
C43 C44 1.358 . S
C43 C48 1.382 1_556 S
C44 C43 1.358 . S
C44 C45 1.385 . S
C44 H72 0.930 . S
C45 C44 1.385 . S
C45 C46 1.395 . S
C45 H73 0.929 . S
C46 C45 1.395 . S
C46 C47 1.335 1_556 S
C47 C46 1.335 1_554 S
C47 C48 1.398 . S
C47 H74 0.930 . S
C48 C43 1.382 1_554 S
C48 C47 1.398 . S
C48 H75 0.929 . S
C49 O62 1.271 1_545 S
C49 O63 1.251 . S
C50 O64 1.252 . S
C50 O65 1.272 1_554 S
C51 Sm41 2.846 . S
C51 C52 1.506 1_556 S
C51 O66 1.261 1_556 S
C51 O67 1.242 . S
C52 C51 1.506 1_554 S
C52 C53 1.358 . S
C52 C57 1.382 1_554 S
C53 C52 1.358 . S
C53 C54 1.385 . S
C53 H76 0.930 . S
C54 C53 1.385 . S
C54 C55 1.395 . S
C54 H77 0.929 . S
C55 C54 1.395 . S
C55 C56 1.335 1_554 S
C56 C55 1.335 1_556 S
C56 C57 1.398 . S
C56 H78 0.930 . S
C57 C52 1.382 1_556 S
C57 C56 1.398 . S
C57 H79 0.929 . S
C58 O68 1.271 1_565 S
C58 O69 1.251 . S
C59 O70 1.252 . S
C59 O71 1.272 1_556 S
O60 Sm40 2.543 1_556 S
O60 C42 1.261 1_556 S
O61 Sm40 2.450 . S
O61 C42 1.242 . S
O62 Sm40 2.681 1_565 S
O62 Sm41 2.386 1_554 S
O62 C49 1.271 1_565 S
O63 Sm40 2.464 . S
O63 C49 1.251 . S
O64 Sm40 2.396 . S
O64 C50 1.252 . S
O65 Sm41 2.408 1_545 S
O65 C50 1.272 1_556 S
O66 Sm41 2.543 1_554 S
O66 C51 1.261 1_554 S
O67 Sm41 2.450 . S
O67 C51 1.242 . S
O68 Sm40 2.386 1_556 S
O68 Sm41 2.681 1_545 S
O68 C58 1.271 1_545 S
O69 Sm41 2.464 . S
O69 C58 1.251 . S
O70 Sm41 2.396 . S
O70 C59 1.252 . S
O71 Sm40 2.408 1_565 S
O71 C59 1.272 1_554 S
H72 C44 0.930 . S
H73 C45 0.929 . S
H74 C47 0.930 . S
H75 C48 0.929 . S
H76 C53 0.930 . S
H77 C54 0.929 . S
H78 C56 0.930 . S
H79 C57 0.929 . S
Sm80 C82 2.846 . S
Sm80 O100 2.543 1_554 S
Sm80 O101 2.450 . S
Sm80 O102 2.681 . S
Sm80 O103 2.464 . S
Sm80 O104 2.396 . S
Sm80 O108 2.386 1_554 S
Sm80 O111 2.408 . S
Sm81 C91 2.846 . S
Sm81 O102 2.386 1_556 S
Sm81 O105 2.408 . S
Sm81 O106 2.543 1_556 S
Sm81 O107 2.450 . S
Sm81 O108 2.681 . S
Sm81 O109 2.464 . S
Sm81 O110 2.396 . S
C82 Sm80 2.846 . S
C82 C83 1.506 . S
C82 O100 1.261 1_554 S
C82 O101 1.242 . S
C83 C82 1.506 . S
C83 C84 1.358 1_554 S
C83 C88 1.382 . S
C84 C83 1.358 1_556 S
C84 C85 1.385 . S
C84 H112 0.930 . S
C85 C84 1.385 . S
C85 C86 1.395 1_556 S
C85 H113 0.929 . S
C86 C85 1.395 1_554 S
C86 C87 1.335 . S
C87 C86 1.335 . S
C87 C88 1.398 . S
C87 H114 0.930 . S
C88 C83 1.382 . S
C88 C87 1.398 . S
C88 H115 0.929 . S
C89 O102 1.271 . S
C89 O103 1.251 . S
C90 O104 1.252 . S
C90 O105 1.272 1_554 S
C91 Sm81 2.846 . S
C91 C92 1.506 . S
C91 O106 1.261 1_556 S
C91 O107 1.242 . S
C92 C91 1.506 . S
C92 C93 1.358 1_556 S
C92 C97 1.382 . S
C93 C92 1.358 1_554 S
C93 C94 1.385 . S
C93 H116 0.930 . S
C94 C93 1.385 . S
C94 C95 1.387 1_554 S
C94 H117 0.929 . S
C95 C94 1.387 1_556 S
C95 C96 1.344 . S
C96 C95 1.344 . S
C96 C97 1.398 . S
C96 H118 0.930 . S
C97 C92 1.382 . S
C97 C96 1.398 . S
C97 H119 0.929 . S
C98 O108 1.271 . S
C98 O109 1.251 . S
C99 O110 1.252 . S
C99 O111 1.272 1_556 S
O100 Sm80 2.543 1_556 S
O100 C82 1.261 1_556 S
O101 Sm80 2.450 . S
O101 C82 1.242 . S
O102 Sm80 2.681 . S
O102 Sm81 2.386 1_554 S
O102 C89 1.271 . S
O103 Sm80 2.464 . S
O103 C89 1.251 . S
O104 Sm80 2.396 . S
O104 C90 1.252 . S
O105 Sm81 2.408 . S
O105 C90 1.272 1_556 S
O106 Sm81 2.543 1_554 S
O106 C91 1.261 1_554 S
O107 Sm81 2.450 . S
O107 C91 1.242 . S
O108 Sm80 2.386 1_556 S
O108 Sm81 2.681 . S
O108 C98 1.271 . S
O109 Sm81 2.464 . S
O109 C98 1.251 . S
O110 Sm81 2.396 . S
O110 C99 1.252 . S
O111 Sm80 2.408 . S
O111 C99 1.272 1_554 S
H112 C84 0.930 . S
H113 C85 0.929 . S
H114 C87 0.930 . S
H115 C88 0.929 . S
H116 C93 0.930 . S
H117 C94 0.929 . S
H118 C96 0.930 . S
H119 C97 0.929 . S
H120 C132 0.930 . S
H121 C134 0.930 . S
H122 C135 0.930 . S
H123 C139 0.959 . S
H124 C139 0.959 . S
H125 C139 0.961 . S
H126 C140 0.960 . S
H127 C140 0.961 . S
H128 C140 0.959 . S
H129 C143 0.929 . S
H130 C144 0.931 . S
H131 C146 0.932 . S
C132 H120 0.930 . S
C132 C133 1.399 . S
C132 C137 1.399 . S
C133 C132 1.399 . S
C133 C134 1.376 1_455 S
C134 H121 0.930 . S
C134 C133 1.376 1_655 S
C134 C135 1.388 . S
C135 H122 0.930 . S
C135 C134 1.388 . S
C135 C136 1.390 . S
C136 C135 1.390 . S
C136 C137 1.393 1_655 S
C136 C142 1.465 . S
C137 C132 1.399 . S
C137 C136 1.393 1_455 S
C137 C138 1.516 1_455 S
C138 C137 1.516 1_655 S
C138 C139 1.502 1_655 S
C138 C140 1.561 . S
C138 C141 1.524 . S
C139 H123 0.959 . S
C139 H124 0.959 . S
C139 H125 0.961 . S
C139 C138 1.502 1_455 S
C140 H126 0.960 . S
C140 H127 0.961 . S
C140 H128 0.959 . S
C140 C138 1.561 . S
C141 C138 1.524 . S
C141 C142 1.401 . S
C141 C146 1.387 1_655 S
C142 C136 1.465 . S
C142 C141 1.401 . S
C142 C143 1.399 . S
C143 H129 0.929 . S
C143 C142 1.399 . S
C143 C144 1.385 . S
C144 H130 0.931 . S
C144 C143 1.385 . S
C144 C145 1.390 . S
C145 C144 1.390 . S
C145 C146 1.386 1_655 S
C146 H131 0.932 . S
C146 C141 1.387 1_455 S
C146 C145 1.386 1_455 S
H147 C159 0.930 . S
H148 C161 0.930 . S
H149 C162 0.930 . S
H150 C166 0.959 . S
H151 C166 0.959 . S
H152 C166 0.961 . S
H153 C167 0.960 . S
H154 C167 0.961 . S
H155 C167 0.959 . S
H156 C170 0.929 . S
H157 C171 0.931 . S
H158 C173 0.930 . S
C159 H147 0.930 . S
C159 C160 1.399 1_565 S
C159 C164 1.399 . S
C160 C159 1.399 1_545 S
C160 C161 1.376 . S
C161 H148 0.930 . S
C161 C160 1.376 . S
C161 C162 1.388 . S
C162 H149 0.930 . S
C162 C161 1.388 . S
C162 C163 1.390 . S
C163 C162 1.390 . S
C163 C164 1.394 1_545 S
C163 C169 1.465 . S
C164 C159 1.399 . S
C164 C163 1.394 1_565 S
C164 C165 1.516 . S
C165 C164 1.516 . S
C165 C166 1.502 . S
C165 C167 1.561 . S
C165 C168 1.526 . S
C166 H150 0.959 . S
C166 H151 0.959 . S
C166 H152 0.961 . S
C166 C165 1.502 . S
C167 H153 0.960 . S
C167 H154 0.961 . S
C167 H155 0.959 . S
C167 C165 1.561 . S
C168 C165 1.526 . S
C168 C169 1.396 1_565 S
C168 C173 1.390 . S
C169 C163 1.465 . S
C169 C168 1.396 1_545 S
C169 C170 1.399 . S
C170 H156 0.929 . S
C170 C169 1.399 . S
C170 C171 1.385 . S
C171 H157 0.931 . S
C171 C170 1.385 . S
C171 C172 1.389 . S
C172 C171 1.389 . S
C172 C173 1.387 1_545 S
C173 H158 0.930 . S
C173 C168 1.390 . S
C173 C172 1.387 1_565 S
H174 C186 0.930 . S
H175 C188 0.930 . S
H176 C189 0.930 . S
H177 C193 0.959 . S
H178 C193 0.959 . S
H179 C193 0.961 . S
H180 C194 0.960 . S
H181 C194 0.961 . S
H182 C194 0.959 . S
H183 C197 0.929 . S
H184 C198 0.931 . S
H185 C200 0.930 . S
C186 H174 0.930 . S
C186 C187 1.399 . S
C186 C191 1.399 . S
C187 C186 1.399 . S
C187 C188 1.376 . S
C188 H175 0.930 . S
C188 C187 1.376 . S
C188 C189 1.388 . S
C189 H176 0.930 . S
C189 C188 1.388 . S
C189 C190 1.390 . S
C190 C189 1.390 . S
C190 C191 1.394 . S
C190 C196 1.465 . S
C191 C186 1.399 . S
C191 C190 1.394 . S
C191 C192 1.516 . S
C192 C191 1.516 . S
C192 C193 1.502 . S
C192 C194 1.561 . S
C192 C195 1.526 . S
C193 H177 0.959 . S
C193 H178 0.959 . S
C193 H179 0.961 . S
C193 C192 1.502 . S
C194 H180 0.960 . S
C194 H181 0.961 . S
C194 H182 0.959 . S
C194 C192 1.561 . S
C195 C192 1.526 . S
C195 C196 1.396 . S
C195 C200 1.390 . S
C196 C190 1.465 . S
C196 C195 1.396 . S
C196 C197 1.399 . S
C197 H183 0.929 . S
C197 C196 1.399 . S
C197 C198 1.385 . S
C198 H184 0.931 . S
C198 C197 1.385 . S
C198 C199 1.389 . S
C199 C198 1.389 . S
C199 C200 1.387 . S
C200 H185 0.930 . S
C200 C195 1.390 . S
C200 C199 1.387 . S
H201 C213 0.930 . S
H202 C215 0.930 . S
H203 C216 0.930 . S
H204 C220 0.959 . S
H205 C220 0.959 . S
H206 C220 0.961 . S
H207 C221 0.960 . S
H208 C221 0.961 . S
H209 C221 0.959 . S
H210 C224 0.929 . S
H211 C225 0.931 . S
H212 C227 0.930 . S
C213 H201 0.930 . S
C213 C214 1.402 . S
C213 C218 1.399 . S
C214 C213 1.402 . S
C214 C215 1.373 1_556 S
C215 H202 0.930 . S
C215 C214 1.373 1_554 S
C215 C216 1.388 . S
C216 H203 0.930 . S
C216 C215 1.388 . S
C216 C217 1.390 . S
C217 C216 1.390 . S
C217 C218 1.394 1_554 S
C217 C223 1.465 . S
C218 C213 1.399 . S
C218 C217 1.394 1_556 S
C218 C219 1.516 . S
C219 C218 1.516 . S
C219 C220 1.502 . S
C219 C221 1.561 . S
C219 C222 1.526 . S
C220 H204 0.959 . S
C220 H205 0.959 . S
C220 H206 0.961 . S
C220 C219 1.502 . S
C221 H207 0.960 . S
C221 H208 0.961 . S
C221 H209 0.959 . S
C221 C219 1.561 . S
C222 C219 1.526 . S
C222 C223 1.396 1_556 S
C222 C227 1.390 . S
C223 C217 1.465 . S
C223 C222 1.396 1_554 S
C223 C224 1.399 . S
C224 H210 0.929 . S
C224 C223 1.399 . S
C224 C225 1.385 . S
C225 H211 0.931 . S
C225 C224 1.385 . S
C225 C226 1.398 . S
C226 C225 1.398 . S
C226 C227 1.380 1_554 S
C227 H212 0.930 . S
C227 C222 1.390 . S
C227 C226 1.380 1_556 S
H228 C240 0.930 . S
H229 C242 0.930 . S
H230 C243 0.930 . S
H231 C247 0.959 . S
H232 C247 0.959 . S
H233 C247 0.961 . S
H234 C248 0.960 . S
H235 C248 0.961 . S
H236 C248 0.959 . S
H237 C251 0.929 . S
H238 C252 0.931 . S
H239 C254 0.930 . S
C240 H228 0.930 . S
C240 C241 1.399 1_554 S
C240 C245 1.399 . S
C241 C240 1.399 1_556 S
C241 C242 1.376 . S
C242 H229 0.930 . S
C242 C241 1.376 . S
C242 C243 1.388 . S
C243 H230 0.930 . S
C243 C242 1.388 . S
C243 C244 1.390 . S
C244 C243 1.390 . S
C244 C245 1.394 1_556 S
C244 C250 1.465 . S
C245 C240 1.399 . S
C245 C244 1.394 1_554 S
C245 C246 1.516 . S
C246 C245 1.516 . S
C246 C247 1.502 . S
C246 C248 1.561 . S
C246 C249 1.526 . S
C247 H231 0.959 . S
C247 H232 0.959 . S
C247 H233 0.961 . S
C247 C246 1.502 . S
C248 H234 0.960 . S
C248 H235 0.961 . S
C248 H236 0.959 . S
C248 C246 1.561 . S
C249 C246 1.526 . S
C249 C250 1.396 1_554 S
C249 C254 1.390 . S
C250 C244 1.465 . S
C250 C249 1.396 1_556 S
C250 C251 1.399 . S
C251 H237 0.929 . S
C251 C250 1.399 . S
C251 C252 1.385 . S
C252 H238 0.931 . S
C252 C251 1.385 . S
C252 C253 1.389 . S
C253 C252 1.389 . S
C253 C254 1.387 1_556 S
C254 H239 0.930 . S
C254 C249 1.390 . S
C254 C253 1.387 1_554 S
H255 C267 0.930 . S
H256 C269 0.930 . S
H257 C270 0.930 . S
H258 C274 0.959 . S
H259 C274 0.959 . S
H260 C274 0.961 . S
H261 C275 0.960 . S
H262 C275 0.961 . S
H263 C275 0.959 . S
H264 C278 0.929 . S
H265 C279 0.931 . S
H266 C281 0.930 . S
C267 H255 0.930 . S
C267 C268 1.399 1_554 S
C267 C272 1.399 . S
C268 C267 1.399 1_556 S
C268 C269 1.376 . S
C269 H256 0.930 . S
C269 C268 1.376 . S
C269 C270 1.388 . S
C270 H257 0.930 . S
C270 C269 1.388 . S
C270 C271 1.390 . S
C271 C270 1.390 . S
C271 C272 1.394 1_556 S
C271 C277 1.465 . S
C272 C267 1.399 . S
C272 C271 1.394 1_554 S
C272 C273 1.516 . S
C273 C272 1.516 . S
C273 C274 1.502 . S
C273 C275 1.561 . S
C273 C276 1.526 . S
C274 H258 0.959 . S
C274 H259 0.959 . S
C274 H260 0.961 . S
C274 C273 1.502 . S
C275 H261 0.960 . S
C275 H262 0.961 . S
C275 H263 0.959 . S
C275 C273 1.561 . S
C276 C273 1.526 . S
C276 C277 1.396 1_554 S
C276 C281 1.390 . S
C277 C271 1.465 . S
C277 C276 1.396 1_556 S
C277 C278 1.399 . S
C278 H264 0.929 . S
C278 C277 1.399 . S
C278 C279 1.385 . S
C279 H265 0.931 . S
C279 C278 1.385 . S
C279 C280 1.389 . S
C280 C279 1.389 . S
C280 C281 1.387 1_556 S
C281 H266 0.930 . S
C281 C276 1.390 . S
C281 C280 1.387 1_554 S
H282 C294 0.930 . S
H283 C296 0.930 . S
H284 C297 0.930 . S
H285 C301 0.959 . S
H286 C301 0.959 . S
H287 C301 0.961 . S
H288 C302 0.960 . S
H289 C302 0.961 . S
H290 C302 0.959 . S
H291 C305 0.929 . S
H292 C306 0.931 . S
H293 C308 0.930 . S
C294 H282 0.930 . S
C294 C295 1.399 1_554 S
C294 C299 1.399 . S
C295 C294 1.399 1_556 S
C295 C296 1.376 . S
C296 H283 0.930 . S
C296 C295 1.376 . S
C296 C297 1.388 . S
C297 H284 0.930 . S
C297 C296 1.388 . S
C297 C298 1.390 . S
C298 C297 1.390 . S
C298 C299 1.394 1_556 S
C298 C304 1.465 . S
C299 C294 1.399 . S
C299 C298 1.394 1_554 S
C299 C300 1.516 . S
C300 C299 1.516 . S
C300 C301 1.502 . S
C300 C302 1.561 . S
C300 C303 1.526 . S
C301 H285 0.959 . S
C301 H286 0.959 . S
C301 H287 0.961 . S
C301 C300 1.502 . S
C302 H288 0.960 . S
C302 H289 0.961 . S
C302 H290 0.959 . S
C302 C300 1.561 . S
C303 C300 1.526 . S
C303 C304 1.396 1_554 S
C303 C308 1.390 . S
C304 C298 1.465 . S
C304 C303 1.396 1_556 S
C304 C305 1.399 . S
C305 H291 0.929 . S
C305 C304 1.399 . S
C305 C306 1.385 . S
C306 H292 0.931 . S
C306 C305 1.385 . S
C306 C307 1.389 . S
C307 C306 1.389 . S
C307 C308 1.387 1_556 S
C308 H293 0.930 . S
C308 C303 1.390 . S
C308 C307 1.387 1_554 S
H309 C321 0.930 . S
H310 C323 0.930 . S
H311 C324 0.930 . S
H312 C328 0.959 . S
H313 C328 0.959 . S
H314 C328 0.961 . S
H315 C329 0.960 . S
H316 C329 0.961 . S
H317 C329 0.959 . S
H318 C332 0.929 . S
H319 C333 0.931 . S
H320 C335 0.930 . S
C321 H309 0.930 . S
C321 C322 1.399 1_556 S
C321 C326 1.399 . S
C322 C321 1.399 1_554 S
C322 C323 1.376 . S
C323 H310 0.930 . S
C323 C322 1.376 . S
C323 C324 1.388 . S
C324 H311 0.930 . S
C324 C323 1.388 . S
C324 C325 1.390 . S
C325 C324 1.390 . S
C325 C326 1.394 1_554 S
C325 C331 1.465 . S
C326 C321 1.399 . S
C326 C325 1.394 1_556 S
C326 C327 1.516 . S
C327 C326 1.516 . S
C327 C328 1.502 . S
C327 C329 1.561 . S
C327 C330 1.526 . S
C328 H312 0.959 . S
C328 H313 0.959 . S
C328 H314 0.961 . S
C328 C327 1.502 . S
C329 H315 0.960 . S
C329 H316 0.961 . S
C329 H317 0.959 . S
C329 C327 1.561 . S
C330 C327 1.526 . S
C330 C331 1.396 1_556 S
C330 C335 1.390 . S
C331 C325 1.465 . S
C331 C330 1.396 1_554 S
C331 C332 1.399 . S
C332 H318 0.929 . S
C332 C331 1.399 . S
C332 C333 1.385 . S
C333 H319 0.931 . S
C333 C332 1.385 . S
C333 C334 1.389 . S
C334 C333 1.389 . S
C334 C335 1.387 1_554 S
C335 H320 0.930 . S
C335 C330 1.390 . S
C335 C334 1.387 1_556 S
H336 C348 0.930 . S
H337 C350 0.930 . S
H338 C351 0.930 . S
H339 C355 0.959 . S
H340 C355 0.959 . S
H341 C355 0.961 . S
H342 C356 0.960 . S
H343 C356 0.961 . S
H344 C356 0.959 . S
H345 C359 0.929 . S
H346 C360 0.931 . S
H347 C362 0.930 . S
C348 H336 0.930 . S
C348 C349 1.399 1_554 S
C348 C353 1.399 . S
C349 C348 1.399 1_556 S
C349 C350 1.376 . S
C350 H337 0.930 . S
C350 C349 1.376 . S
C350 C351 1.388 . S
C351 H338 0.930 . S
C351 C350 1.388 . S
C351 C352 1.390 . S
C352 C351 1.390 . S
C352 C353 1.394 1_556 S
C352 C358 1.465 . S
C353 C348 1.399 . S
C353 C352 1.394 1_554 S
C353 C354 1.516 . S
C354 C353 1.516 . S
C354 C355 1.502 . S
C354 C356 1.561 . S
C354 C357 1.526 . S
C355 H339 0.959 . S
C355 H340 0.959 . S
C355 H341 0.961 . S
C355 C354 1.502 . S
C356 H342 0.960 . S
C356 H343 0.961 . S
C356 H344 0.959 . S
C356 C354 1.561 . S
C357 C354 1.526 . S
C357 C358 1.396 1_554 S
C357 C362 1.390 . S
C358 C352 1.465 . S
C358 C357 1.396 1_556 S
C358 C359 1.399 . S
C359 H345 0.929 . S
C359 C358 1.399 . S
C359 C360 1.385 . S
C360 H346 0.931 . S
C360 C359 1.385 . S
C360 C361 1.389 . S
C361 C360 1.389 . S
C361 C362 1.387 1_556 S
C362 H347 0.930 . S
C362 C357 1.390 . S
C362 C361 1.387 1_554 S
C133 C9 1.476 . S
C145 C18 1.416 1_655 S
C160 C49 1.408 . S
C172 C58 1.478 1_545 S
C187 C98 1.424 . S
C199 C89 1.482 . S
C214 C19 2.603 1_556 S
C226 C90 2.565 . S
C241 C46 0.902 . S
C253 C6 0.881 . S
C268 C59 2.016 . S
C280 C86 2.001 1_556 S
C295 C10 2.598 . S
C307 C99 2.544 . S
C322 C15 0.859 . S
C334 C55 0.907 . S
C349 C95 1.957 . S
C361 C50 2.051 1_556 S
