# Generated by pormake.
# Topology snl, (6)-cn, num edge types: 1
# Building blocks:
#     Node 0, Type 0, BuildingBlock: BETDAH_clean_sbu_0, # of connection points: 6
#     Node 1, Type 0, BuildingBlock: BETDAH_clean_sbu_0, # of connection points: 6
#     Node 2, Type 0, BuildingBlock: BETDAH_clean_sbu_0, # of connection points: 6
#     Node 3, Type 0, BuildingBlock: BETDAH_clean_sbu_0, # of connection points: 6
#     Node 4, Type 0, BuildingBlock: BETDAH_clean_sbu_0, # of connection points: 6
#     Node 5, Type 0, BuildingBlock: BETDAH_clean_sbu_0, # of connection points: 6
#     Node 6, Type 0, BuildingBlock: BETDAH_clean_sbu_0, # of connection points: 6
#     Node 7, Type 0, BuildingBlock: BETDAH_clean_sbu_0, # of connection points: 6
#     Node 8, Type 0, BuildingBlock: BETDAH_clean_sbu_0, # of connection points: 6
#     Node 9, Type 0, BuildingBlock: BETDAH_clean_sbu_0, # of connection points: 6
#     Node 10, Type 0, BuildingBlock: BETDAH_clean_sbu_0, # of connection points: 6
#     Node 11, Type 0, BuildingBlock: BETDAH_clean_sbu_0, # of connection points: 6
#     Node 12, Type 0, BuildingBlock: BETDAH_clean_sbu_0, # of connection points: 6
#     Node 13, Type 0, BuildingBlock: BETDAH_clean_sbu_0, # of connection points: 6
#     Node 14, Type 0, BuildingBlock: BETDAH_clean_sbu_0, # of connection points: 6
#     Node 15, Type 0, BuildingBlock: BETDAH_clean_sbu_0, # of connection points: 6
#     Edge 16, Type (0, 0), BuildingBlock: EZIPEK_clean_linker_0, # of connection points: 2
#     Edge 17, Type (0, 0), BuildingBlock: EZIPEK_clean_linker_0, # of connection points: 2
#     Edge 18, Type (0, 0), BuildingBlock: EZIPEK_clean_linker_0, # of connection points: 2
#     Edge 19, Type (0, 0), BuildingBlock: EZIPEK_clean_linker_0, # of connection points: 2
#     Edge 20, Type (0, 0), BuildingBlock: EZIPEK_clean_linker_0, # of connection points: 2
#     Edge 21, Type (0, 0), BuildingBlock: EZIPEK_clean_linker_0, # of connection points: 2
#     Edge 22, Type (0, 0), BuildingBlock: EZIPEK_clean_linker_0, # of connection points: 2
#     Edge 23, Type (0, 0), BuildingBlock: EZIPEK_clean_linker_0, # of connection points: 2
#     Edge 24, Type (0, 0), BuildingBlock: EZIPEK_clean_linker_0, # of connection points: 2
#     Edge 25, Type (0, 0), BuildingBlock: EZIPEK_clean_linker_0, # of connection points: 2
#     Edge 26, Type (0, 0), BuildingBlock: EZIPEK_clean_linker_0, # of connection points: 2
#     Edge 27, Type (0, 0), BuildingBlock: EZIPEK_clean_linker_0, # of connection points: 2
#     Edge 28, Type (0, 0), BuildingBlock: EZIPEK_clean_linker_0, # of connection points: 2
#     Edge 29, Type (0, 0), BuildingBlock: EZIPEK_clean_linker_0, # of connection points: 2
#     Edge 30, Type (0, 0), BuildingBlock: EZIPEK_clean_linker_0, # of connection points: 2
#     Edge 31, Type (0, 0), BuildingBlock: EZIPEK_clean_linker_0, # of connection points: 2
#     Edge 32, Type (0, 0), BuildingBlock: EZIPEK_clean_linker_0, # of connection points: 2
#     Edge 33, Type (0, 0), BuildingBlock: EZIPEK_clean_linker_0, # of connection points: 2
#     Edge 34, Type (0, 0), BuildingBlock: EZIPEK_clean_linker_0, # of connection points: 2
#     Edge 35, Type (0, 0), BuildingBlock: EZIPEK_clean_linker_0, # of connection points: 2
#     Edge 36, Type (0, 0), BuildingBlock: EZIPEK_clean_linker_0, # of connection points: 2
#     Edge 37, Type (0, 0), BuildingBlock: EZIPEK_clean_linker_0, # of connection points: 2
#     Edge 38, Type (0, 0), BuildingBlock: EZIPEK_clean_linker_0, # of connection points: 2
#     Edge 39, Type (0, 0), BuildingBlock: EZIPEK_clean_linker_0, # of connection points: 2
#     Edge 40, Type (0, 0), BuildingBlock: EZIPEK_clean_linker_0, # of connection points: 2
#     Edge 41, Type (0, 0), BuildingBlock: EZIPEK_clean_linker_0, # of connection points: 2
#     Edge 42, Type (0, 0), BuildingBlock: EZIPEK_clean_linker_0, # of connection points: 2
#     Edge 43, Type (0, 0), BuildingBlock: EZIPEK_clean_linker_0, # of connection points: 2
#     Edge 44, Type (0, 0), BuildingBlock: EZIPEK_clean_linker_0, # of connection points: 2
#     Edge 45, Type (0, 0), BuildingBlock: EZIPEK_clean_linker_0, # of connection points: 2
#     Edge 46, Type (0, 0), BuildingBlock: EZIPEK_clean_linker_0, # of connection points: 2
#     Edge 47, Type (0, 0), BuildingBlock: EZIPEK_clean_linker_0, # of connection points: 2
#     Edge 48, Type (0, 0), BuildingBlock: EZIPEK_clean_linker_0, # of connection points: 2
#     Edge 49, Type (0, 0), BuildingBlock: EZIPEK_clean_linker_0, # of connection points: 2
#     Edge 50, Type (0, 0), BuildingBlock: EZIPEK_clean_linker_0, # of connection points: 2
#     Edge 51, Type (0, 0), BuildingBlock: EZIPEK_clean_linker_0, # of connection points: 2
#     Edge 52, Type (0, 0), BuildingBlock: EZIPEK_clean_linker_0, # of connection points: 2
#     Edge 53, Type (0, 0), BuildingBlock: EZIPEK_clean_linker_0, # of connection points: 2
#     Edge 54, Type (0, 0), BuildingBlock: EZIPEK_clean_linker_0, # of connection points: 2
#     Edge 55, Type (0, 0), BuildingBlock: EZIPEK_clean_linker_0, # of connection points: 2
#     Edge 56, Type (0, 0), BuildingBlock: EZIPEK_clean_linker_0, # of connection points: 2
#     Edge 57, Type (0, 0), BuildingBlock: EZIPEK_clean_linker_0, # of connection points: 2
#     Edge 58, Type (0, 0), BuildingBlock: EZIPEK_clean_linker_0, # of connection points: 2
#     Edge 59, Type (0, 0), BuildingBlock: EZIPEK_clean_linker_0, # of connection points: 2
#     Edge 60, Type (0, 0), BuildingBlock: EZIPEK_clean_linker_0, # of connection points: 2
#     Edge 61, Type (0, 0), BuildingBlock: EZIPEK_clean_linker_0, # of connection points: 2
#     Edge 62, Type (0, 0), BuildingBlock: EZIPEK_clean_linker_0, # of connection points: 2
#     Edge 63, Type (0, 0), BuildingBlock: EZIPEK_clean_linker_0, # of connection points: 2
# Relax obj value: 0.203
# Max RMSD: 0.280
# Mean RMSD: 0.249
data_MOF--net-snl--node1-BETDAH_clean_sbu_0--edge1-EZIPEK_clean_linker_0
_symmetry_space_group_name_H-M    P1
_symmetry_Int_Tables_number       1
_symmetry_cell_setting            triclinic
loop_
_symmetry_equiv_pos_as_xyz
'x, y, z'
_cell_length_a     41.093138
_cell_length_b     41.342892
_cell_length_c     21.644318
_cell_angle_alpha  100.74001
_cell_angle_beta   91.575651
_cell_angle_gamma 89.938806
loop_
_atom_site_label
_atom_site_type_symbol
_atom_site_fract_x
_atom_site_fract_y
_atom_site_fract_z
_atom_type_partial_charge
Ho0 Ho 0.15021 0.626 0.09954 0.0
Ho1 Ho 0.12235 0.61756 0.22005 0.0
C2 C 0.07142 0.62916 0.11383 0.0
C3 C 0.17624 0.6183 0.98986 0.0
C4 C 0.16855 0.62343 0.92491 0.0
C5 C 0.13939 0.61157 0.89291 0.0
C6 C 0.13416 0.61362 0.82945 0.0
C7 C 0.15784 0.62764 0.7968 0.0
C8 C 0.18653 0.64033 0.82916 0.0
C9 C 0.19186 0.63812 0.89253 0.0
C10 C 0.13013 0.68457 0.16689 0.0
C11 C 0.20043 0.62001 0.21868 0.0
C12 C 0.10439 0.61613 0.3338 0.0
C13 C 0.1165 0.61907 0.39995 0.0
C14 C 0.13171 0.64781 0.43342 0.0
C15 C 0.14038 0.65039 0.49745 0.0
C16 C 0.13389 0.62437 0.529 0.0
C17 C 0.1193 0.59553 0.49526 0.0
C18 C 0.11067 0.59295 0.43153 0.0
C19 C 0.12385 0.56219 0.12698 0.0
O20 O 0.09533 0.61956 0.07414 0.0
O21 O 0.07776 0.63534 0.17498 0.0
O22 O 0.18126 0.64439 0.03368 0.0
O23 O 0.15962 0.59543 1.00973 0.0
O24 O 0.12606 0.67469 0.10679 0.0
O25 O 0.14464 0.66185 0.18975 0.0
O26 O 0.17464 0.61713 0.25193 0.0
O27 O 0.19751 0.62427 0.15912 0.0
O28 O 0.11354 0.59019 0.29406 0.0
O29 O 0.10308 0.6426 0.30867 0.0
O30 O 0.09939 0.57048 0.16301 0.0
O31 O 0.1458 0.58337 0.14327 0.0
H32 H 0.12092 0.60009 0.91645 0.0
H33 H 0.11183 0.60375 0.80546 0.0
H34 H 0.20508 0.65131 0.80494 0.0
H35 H 0.21458 0.64726 0.91591 0.0
H36 H 0.13647 0.66841 0.41051 0.0
H37 H 0.1517 0.67283 0.52264 0.0
H38 H 0.1141 0.57517 0.5186 0.0
H39 H 0.09879 0.57063 0.40707 0.0
Ho40 Ho 0.6556 0.88903 0.44036 0.0
Ho41 Ho 0.62835 0.89754 0.31673 0.0
C42 C 0.57662 0.88654 0.41438 0.0
C43 C 0.6817 0.8979 0.5529 0.0
C44 C 0.67445 0.89423 0.61802 0.0
C45 C 0.67971 0.92132 0.66712 0.0
C46 C 0.67369 0.91893 0.72944 0.0
C47 C 0.66237 0.88933 0.74405 0.0
C48 C 0.65703 0.86211 0.69515 0.0
C49 C 0.66301 0.86452 0.63254 0.0
C50 C 0.6331 0.83091 0.37394 0.0
C51 C 0.70584 0.89026 0.32365 0.0
C52 C 0.61093 0.89937 0.20111 0.0
C53 C 0.62251 0.89274 0.13553 0.0
C54 C 0.60309 0.87358 0.08801 0.0
C55 C 0.61082 0.87072 0.02456 0.0
C56 C 0.63804 0.88717 1.00731 0.0
C57 C 0.65821 0.90536 0.05477 0.0
C58 C 0.65058 0.90809 0.11833 0.0
C59 C 0.62908 0.95341 0.4107 0.0
O60 O 0.60049 0.89579 0.45728 0.0
O61 O 0.5833 0.87929 0.35439 0.0
O62 O 0.68602 0.87129 0.51049 0.0
O63 O 0.66521 0.92048 0.53067 0.0
O64 O 0.63016 0.84118 0.43377 0.0
O65 O 0.64842 0.85268 0.35069 0.0
O66 O 0.68013 0.89337 0.28799 0.0
O67 O 0.70296 0.88811 0.38413 0.0
O68 O 0.62419 0.9241 0.24005 0.0
O69 O 0.60503 0.87422 0.22803 0.0
O70 O 0.60596 0.94525 0.36919 0.0
O71 O 0.65113 0.9322 0.39783 0.0
H72 H 0.68857 0.94446 0.65722 0.0
H73 H 0.67787 0.94022 0.76638 0.0
H74 H 0.64816 0.83909 0.70548 0.0
H75 H 0.65867 0.84324 0.5957 0.0
H76 H 0.58122 0.86172 0.09983 0.0
H77 H 0.59494 0.85657 0.98872 0.0
H78 H 0.67933 0.91823 0.04249 0.0
H79 H 0.66606 0.92309 0.15372 0.0
Ho80 Ho 0.36278 0.38045 0.57333 0.0
Ho81 Ho 0.38616 0.4078 0.70348 0.0
C82 C 0.43921 0.38555 0.60665 0.0
C83 C 0.33878 0.37472 0.45844 0.0
C84 C 0.34809 0.37879 0.39388 0.0
C85 C 0.36559 0.40647 0.38318 0.0
C86 C 0.37146 0.41099 0.32146 0.0
C87 C 0.35991 0.38804 0.26895 0.0
C88 C 0.34286 0.36023 0.27975 0.0
C89 C 0.33703 0.35569 0.34132 0.0
C90 C 0.38037 0.33135 0.63705 0.0
C91 C 0.31019 0.39153 0.68819 0.0
C92 C 0.40227 0.4236 0.82297 0.0
C93 C 0.39439 0.41711 0.88652 0.0
C94 C 0.36339 0.40657 0.90098 0.0
C95 C 0.35695 0.40154 0.96223 0.0
C96 C 0.38131 0.407 1.01027 0.0
C97 C 0.41222 0.41742 0.99546 0.0
C98 C 0.41864 0.42237 0.93448 0.0
C99 C 0.38596 0.45191 0.61967 0.0
O100 O 0.41704 0.39168 0.56446 0.0
O101 O 0.42929 0.38069 0.66123 0.0
O102 O 0.35123 0.3502 0.48123 0.0
O103 O 0.33691 0.40129 0.50144 0.0
O104 O 0.38593 0.33172 0.57836 0.0
O105 O 0.36557 0.35791 0.65985 0.0
O106 O 0.33427 0.40373 0.72635 0.0
O107 O 0.31472 0.38008 0.62694 0.0
O108 O 0.38108 0.43981 0.79447 0.0
O109 O 0.41597 0.39986 0.78395 0.0
O110 O 0.40803 0.4509 0.66323 0.0
O111 O 0.36488 0.43076 0.62601 0.0
H112 H 0.37435 0.42487 0.42245 0.0
H113 H 0.38472 0.43262 0.31464 0.0
H114 H 0.3337 0.34214 0.24035 0.0
H115 H 0.32328 0.33431 0.34788 0.0
H116 H 0.34419 0.40231 0.86507 0.0
H117 H 0.33292 0.39343 0.97222 0.0
H118 H 0.43144 0.4218 0.03132 0.0
H119 H 0.4427 0.43055 0.9248 0.0
Ho120 Ho 0.88597 0.11419 0.85034 0.0
Ho121 Ho 0.86815 0.14393 0.98028 0.0
C122 C 0.88036 0.19417 0.89074 0.0
C123 C 0.88424 0.08554 0.73204 0.0
C124 C 0.88362 0.09455 0.6679 0.0
C125 C 0.85403 0.10208 0.63916 0.0
C126 C 0.85298 0.10825 0.57742 0.0
C127 C 0.88143 0.10699 0.54243 0.0
C128 C 0.91104 0.09962 0.57091 0.0
C129 C 0.9121 0.09335 0.63271 0.0
C130 C 0.93939 0.13841 0.92029 0.0
C131 C 0.87987 0.06645 0.95721 0.0
C132 C 0.86321 0.16158 0.1019 0.0
C133 C 0.86836 0.1492 0.16232 0.0
C134 C 0.89385 0.16215 0.20454 0.0
C135 C 0.89688 0.15385 0.26454 0.0
C136 C 0.87438 0.13253 0.28427 0.0
C137 C 0.84934 0.11889 0.24173 0.0
C138 C 0.84633 0.12712 0.18159 0.0
C139 C 0.81763 0.13858 0.8911 0.0
O140 O 0.87532 0.16832 0.84437 0.0
O141 O 0.88528 0.18956 0.94885 0.0
O142 O 0.91109 0.09034 0.76644 0.0
O143 O 0.85848 0.09272 0.76589 0.0
O144 O 0.93302 0.14175 0.86274 0.0
O145 O 0.91567 0.12321 0.93969 0.0
O146 O 0.86619 0.09183 0.99219 0.0
O147 O 0.89063 0.06893 0.90024 0.0
O148 O 0.83927 0.14905 0.06397 0.0
O149 O 0.88891 0.16742 0.07121 0.0
O150 O 0.82165 0.16285 0.93808 0.0
O151 O 0.83961 0.11788 0.89678 0.0
H152 H 0.83145 0.10282 0.66405 0.0
H153 H 0.82984 0.11382 0.5567 0.0
H154 H 0.93333 0.09847 0.54505 0.0
H155 H 0.93523 0.08718 0.65268 0.0
H156 H 0.91102 0.17949 0.19179 0.0
H157 H 0.91639 0.16474 0.29631 0.0
H158 H 0.83166 0.10239 0.25564 0.0
H159 H 0.82625 0.11676 0.15081 0.0
Ho160 Ho 0.14767 0.3828 0.95991 0.0
Ho161 Ho 0.12121 0.39311 0.83486 0.0
C162 C 0.07045 0.38553 0.94266 0.0
C163 C 0.17392 0.3859 0.07195 0.0
C164 C 0.16401 0.38634 0.13817 0.0
C165 C 0.15345 0.41552 0.17695 0.0
C166 C 0.14626 0.41607 0.24029 0.0
C167 C 0.14962 0.38755 0.26657 0.0
C168 C 0.16004 0.35841 0.22803 0.0
C169 C 0.16722 0.35783 0.16474 0.0
C170 C 0.12766 0.32587 0.88526 0.0
C171 C 0.19637 0.38612 0.84035 0.0
C172 C 0.09411 0.3937 0.72466 0.0
C173 C 0.10407 0.39282 0.6587 0.0
C174 C 0.13181 0.37562 0.6339 0.0
C175 C 0.14003 0.37466 0.57085 0.0
C176 C 0.12079 0.39099 0.53148 0.0
C177 C 0.09334 0.40848 0.55664 0.0
C178 C 0.08509 0.40935 0.61944 0.0
C179 C 0.13726 0.44898 0.92193 0.0
O180 O 0.09482 0.39136 0.98461 0.0
O181 O 0.07551 0.38157 0.88165 0.0
O182 O 0.16977 0.35848 0.03133 0.0
O183 O 0.16718 0.41171 0.04707 0.0
O184 O 0.12198 0.3348 0.94453 0.0
O185 O 0.14327 0.34895 0.86699 0.0
O186 O 0.17081 0.38191 0.80252 0.0
O187 O 0.19354 0.39028 0.9029 0.0
O188 O 0.10156 0.42024 0.76545 0.0
O189 O 0.09839 0.36703 0.74816 0.0
O190 O 0.14249 0.44543 0.86221 0.0
O191 O 0.1228 0.4237 0.93064 0.0
H192 H 0.15107 0.4381 0.15866 0.0
H193 H 0.13832 0.43886 0.26903 0.0
H194 H 0.16291 0.33613 0.24717 0.0
H195 H 0.17573 0.33507 0.13674 0.0
H196 H 0.147 0.36279 0.6631 0.0
H197 H 0.16132 0.36103 0.55264 0.0
H198 H 0.07814 0.42128 0.5274 0.0
H199 H 0.06366 0.42283 0.63733 0.0
Ho200 Ho 0.88323 0.90672 0.19825 0.0
Ho201 Ho 0.86289 0.87214 0.06165 0.0
C202 C 0.87941 0.82493 0.15962 0.0
C203 C 0.87333 0.93 0.31651 0.0
C204 C 0.8763 0.92034 0.37957 0.0
C205 C 0.85794 0.89402 0.39394 0.0
C206 C 0.85808 0.8875 0.4553 0.0
C207 C 0.87651 0.90707 0.50388 0.0
C208 C 0.8954 0.93289 0.48949 0.0
C209 C 0.89518 0.93953 0.42809 0.0
C210 C 0.93901 0.88795 0.13943 0.0
C211 C 0.87803 0.95091 0.0854 0.0
C212 C 0.8575 0.85192 0.9406 0.0
C213 C 0.86122 0.86364 0.87991 0.0
C214 C 0.8918 0.87197 0.85926 0.0
C215 C 0.89483 0.88041 0.79966 0.0
C216 C 0.86745 0.88045 0.75921 0.0
C217 C 0.8369 0.87258 0.78007 0.0
C218 C 0.83383 0.86426 0.83962 0.0
C219 C 0.81461 0.88089 0.14855 0.0
O220 O 0.88293 0.85178 0.20445 0.0
O221 O 0.87355 0.82688 0.10005 0.0
O222 O 0.89991 0.9359 0.28836 0.0
O223 O 0.85143 0.91442 0.27713 0.0
O224 O 0.93729 0.90286 0.19753 0.0
O225 O 0.91027 0.88307 0.11453 0.0
O226 O 0.86726 0.92413 0.04759 0.0
O227 O 0.88489 0.95086 0.14639 0.0
O228 O 0.83327 0.86396 0.97559 0.0
O229 O 0.88381 0.84805 0.97409 0.0
O230 O 0.81578 0.85664 0.10085 0.0
O231 O 0.83774 0.90048 0.14301 0.0
H232 H 0.84279 0.87888 0.35818 0.0
H233 H 0.8433 0.86748 0.46516 0.0
H234 H 0.9098 0.94834 0.52613 0.0
H235 H 0.90921 0.9602 0.41884 0.0
H236 H 0.91347 0.87159 0.88873 0.0
H237 H 0.91865 0.88642 0.78466 0.0
H238 H 0.81544 0.8724 0.74979 0.0
H239 H 0.81002 0.85766 0.85374 0.0
Ho240 Ho 0.38308 0.6014 0.35617 0.0
Ho241 Ho 0.36463 0.63341 0.48363 0.0
C242 C 0.37737 0.68319 0.39464 0.0
C243 C 0.38619 0.58135 0.23468 0.0
C244 C 0.38154 0.592 0.17265 0.0
C245 C 0.35035 0.59414 0.14487 0.0
C246 C 0.34674 0.60049 0.0834 0.0
C247 C 0.37418 0.60474 0.04821 0.0
C248 C 0.40525 0.60317 0.0762 0.0
C249 C 0.40888 0.59678 0.13748 0.0
C250 C 0.43637 0.61311 0.43518 0.0
C251 C 0.37838 0.55519 0.46215 0.0
C252 C 0.35543 0.65271 0.60364 0.0
C253 C 0.36001 0.64191 0.66554 0.0
C254 C 0.38237 0.65868 0.71077 0.0
C255 C 0.38478 0.65136 0.77153 0.0
C256 C 0.3647 0.62723 0.7889 0.0
C257 C 0.3427 0.60999 0.74359 0.0
C258 C 0.34037 0.61721 0.68263 0.0
C259 C 0.31411 0.62519 0.39381 0.0
O260 O 0.37557 0.65635 0.34925 0.0
O261 O 0.37843 0.6802 0.45411 0.0
O262 O 0.41084 0.5937 0.27071 0.0
O263 O 0.36053 0.57775 0.26718 0.0
O264 O 0.43082 0.58647 0.39395 0.0
O265 O 0.41214 0.6323 0.43369 0.0
O266 O 0.37831 0.58331 0.50216 0.0
O267 O 0.37689 0.55496 0.40029 0.0
O268 O 0.33341 0.63759 0.56387 0.0
O269 O 0.38142 0.65996 0.57536 0.0
O270 O 0.31786 0.65004 0.4396 0.0
O271 O 0.33626 0.60477 0.40121 0.0
H272 H 0.32871 0.59021 0.17002 0.0
H273 H 0.32252 0.60155 0.06285 0.0
H274 H 0.42677 0.60632 0.0501 0.0
H275 H 0.43323 0.5948 0.15684 0.0
H276 H 0.39756 0.67809 0.69958 0.0
H277 H 0.40191 0.66502 0.80553 0.0
H278 H 0.32693 0.59129 0.75577 0.0
H279 H 0.3227 0.60388 0.6494 0.0
Ho280 Ho 0.65253 0.12961 0.59563 0.0
Ho281 Ho 0.62476 0.12269 0.71813 0.0
C282 C 0.57369 0.13296 0.61067 0.0
C283 C 0.6795 0.1208 0.48665 0.0
C284 C 0.67414 0.12594 0.42118 0.0
C285 C 0.70132 0.12831 0.3844 0.0
C286 C 0.69744 0.12999 0.32062 0.0
C287 C 0.66626 0.12938 0.29221 0.0
C288 C 0.63889 0.12791 0.32924 0.0
C289 C 0.64279 0.12616 0.39332 0.0
C290 C 0.63139 0.18834 0.65967 0.0
C291 C 0.70266 0.12698 0.71721 0.0
C292 C 0.60739 0.12298 0.83306 0.0
C293 C 0.62078 0.12517 0.89835 0.0
C294 C 0.63492 0.15401 0.933 0.0
C295 C 0.64638 0.15524 0.99524 0.0
C296 C 0.64591 0.12704 0.02414 0.0
C297 C 0.62827 0.09957 0.99047 0.0
C298 C 0.61674 0.09837 0.92862 0.0
C299 C 0.62625 0.0661 0.6268 0.0
O300 O 0.59768 0.12338 0.57109 0.0
O301 O 0.57981 0.13934 0.67197 0.0
O302 O 0.68482 0.1468 0.53049 0.0
O303 O 0.66098 0.09893 0.50528 0.0
O304 O 0.62698 0.17716 0.60001 0.0
O305 O 0.6463 0.16641 0.68417 0.0
O306 O 0.677 0.12314 0.75008 0.0
O307 O 0.69966 0.13037 0.65709 0.0
O308 O 0.61447 0.09641 0.79295 0.0
O309 O 0.60745 0.14931 0.80748 0.0
O310 O 0.60287 0.07427 0.66553 0.0
O311 O 0.64788 0.08789 0.64125 0.0
H312 H 0.72569 0.12801 0.4047 0.0
H313 H 0.71886 0.13103 0.29296 0.0
H314 H 0.61462 0.12733 0.30822 0.0
H315 H 0.62143 0.12424 0.42069 0.0
H316 H 0.63655 0.17596 0.91261 0.0
H317 H 0.65437 0.17902 1.01993 0.0
H318 H 0.62247 0.07872 1.01174 0.0
H319 H 0.60404 0.07643 0.90467 0.0
Ho320 Ho 0.88008 0.40049 0.82835 0.0
Ho321 Ho 0.85404 0.39167 0.95001 0.0
C322 C 0.80352 0.39161 0.82933 0.0
C323 C 0.89717 0.40259 0.71458 0.0
C324 C 0.88561 0.39514 0.64789 0.0
C325 C 0.9047 0.3751 0.60334 0.0
C326 C 0.89715 0.37153 0.53894 0.0
C327 C 0.87048 0.38818 0.51785 0.0
C328 C 0.85054 0.40717 0.56229 0.0
C329 C 0.85798 0.41059 0.62678 0.0
C330 C 0.87717 0.45659 0.92117 0.0
C331 C 0.93213 0.39162 0.92993 0.0
C332 C 0.82828 0.39945 0.05981 0.0
C333 C 0.83566 0.39552 0.12536 0.0
C334 C 0.83143 0.4227 0.17411 0.0
C335 C 0.83732 0.42 0.23685 0.0
C336 C 0.84748 0.39 0.25217 0.0
C337 C 0.85184 0.36271 0.20365 0.0
C338 C 0.84597 0.36542 0.14061 0.0
C339 C 0.87726 0.33395 0.88575 0.0
O340 O 0.82878 0.39424 0.79511 0.0
O341 O 0.80659 0.39024 0.89026 0.0
O342 O 0.88326 0.42692 0.7517 0.0
O343 O 0.90393 0.37784 0.74258 0.0
O344 O 0.90067 0.44944 0.88279 0.0
O345 O 0.85617 0.43424 0.90625 0.0
O346 O 0.9088 0.40138 0.97091 0.0
O347 O 0.92494 0.38277 0.86986 0.0
O348 O 0.82409 0.37294 1.01657 0.0
O349 O 0.84454 0.42248 0.03983 0.0
O350 O 0.8813 0.3451 0.94548 0.0
O351 O 0.86105 0.35517 0.86119 0.0
H352 H 0.92624 0.36315 0.61824 0.0
H353 H 0.91281 0.35678 0.5054 0.0
H354 H 0.82984 0.42018 0.54693 0.0
H355 H 0.84274 0.42623 0.65983 0.0
H356 H 0.82342 0.44612 0.16359 0.0
H357 H 0.83393 0.44133 0.27358 0.0
H358 H 0.85981 0.3394 0.21463 0.0
H359 H 0.84946 0.34406 0.10402 0.0
Ho360 Ho 0.3817 0.12397 0.69816 0.0
Ho361 Ho 0.35386 0.13718 0.58089 0.0
C362 C 0.30457 0.13177 0.69751 0.0
C363 C 0.39885 0.11854 0.81261 0.0
C364 C 0.38731 0.12465 0.87864 0.0
C365 C 0.40395 0.1475 0.92509 0.0
C366 C 0.39625 0.15091 0.98877 0.0
C367 C 0.37187 0.13133 1.00772 0.0
C368 C 0.35457 0.10907 0.96134 0.0
C369 C 0.36216 0.10575 0.89753 0.0
C370 C 0.37846 0.07067 0.5978 0.0
C371 C 0.4338 0.13751 0.60486 0.0
C372 C 0.32739 0.13215 0.46866 0.0
C373 C 0.33589 0.13401 0.40271 0.0
C374 C 0.3379 0.10472 0.35775 0.0
C375 C 0.34394 0.10549 0.29463 0.0
C376 C 0.348 0.13557 0.27454 0.0
C377 C 0.34616 0.16496 0.31917 0.0
C378 C 0.34005 0.16422 0.38259 0.0
C379 C 0.37689 0.19403 0.65112 0.0
O380 O 0.3306 0.12586 0.72967 0.0
O381 O 0.30691 0.13789 0.63916 0.0
O382 O 0.38486 0.09501 0.77185 0.0
O383 O 0.40596 0.14408 0.7877 0.0
O384 O 0.40317 0.07756 0.6366 0.0
O385 O 0.35694 0.09163 0.61595 0.0
O386 O 0.40935 0.13145 0.56234 0.0
O387 O 0.42773 0.14189 0.66488 0.0
O388 O 0.32668 0.15916 0.51121 0.0
O389 O 0.3397 0.10749 0.4912 0.0
O390 O 0.38125 0.18395 0.59165 0.0
O391 O 0.36149 0.17157 0.67276 0.0
H392 H 0.42365 0.16215 0.91235 0.0
H393 H 0.40997 0.16821 0.02357 0.0
H394 H 0.33568 0.09368 0.97474 0.0
H395 H 0.3489 0.08775 0.86329 0.0
H396 H 0.33444 0.08104 0.3713 0.0
H397 H 0.34524 0.08252 0.26122 0.0
H398 H 0.34925 0.18847 0.3048 0.0
H399 H 0.33835 0.18727 0.41562 0.0
Ho400 Ho 0.64384 0.6471 0.47643 0.0
Ho401 Ho 0.62947 0.61036 0.33664 0.0
C402 C 0.63812 0.5669 0.44773 0.0
C403 C 0.64685 0.66718 0.59745 0.0
C404 C 0.64293 0.65467 0.65711 0.0
C405 C 0.61257 0.64438 0.67542 0.0
C406 C 0.60938 0.635 0.73415 0.0
C407 C 0.63641 0.63579 0.7757 0.0
C408 C 0.66678 0.64544 0.75699 0.0
C409 C 0.66998 0.65483 0.69849 0.0
C410 C 0.69624 0.637 0.39837 0.0
C411 C 0.63175 0.69203 0.37253 0.0
C412 C 0.63992 0.58772 0.21861 0.0
C413 C 0.63458 0.59635 0.1552 0.0
C414 C 0.65013 0.62389 0.13903 0.0
C415 C 0.64832 0.62963 0.07725 0.0
C416 C 0.63085 0.60813 0.03005 0.0
C417 C 0.61457 0.58111 0.04623 0.0
C418 C 0.6166 0.57517 0.10808 0.0
C419 C 0.57164 0.62506 0.39662 0.0
O420 O 0.63748 0.59476 0.48921 0.0
O421 O 0.63794 0.56632 0.38573 0.0
O422 O 0.67198 0.65634 0.56396 0.0
O423 O 0.6208 0.67018 0.56252 0.0
O424 O 0.69129 0.66302 0.44087 0.0
O425 O 0.67257 0.61755 0.40045 0.0
O426 O 0.63316 0.66482 0.32857 0.0
O427 O 0.63162 0.6912 0.43347 0.0
O428 O 0.61489 0.57863 0.24774 0.0
O429 O 0.66024 0.60644 0.25694 0.0
O430 O 0.574 0.6099 0.33876 0.0
O431 O 0.60039 0.63168 0.41794 0.0
H432 H 0.5912 0.64402 0.64489 0.0
H433 H 0.58572 0.62762 0.74763 0.0
H434 H 0.68794 0.64625 0.78823 0.0
H435 H 0.69362 0.66281 0.686 0.0
H436 H 0.66443 0.64068 0.17371 0.0
H437 H 0.66103 0.65064 0.06597 0.0
H438 H 0.6009 0.56422 1.01063 0.0
H439 H 0.60473 0.55356 0.11875 0.0
Ho440 Ho 0.14667 0.86698 0.06171 0.0
Ho441 Ho 0.13351 0.90471 0.19807 0.0
C442 C 0.13805 0.94665 0.08223 0.0
C443 C 0.14836 0.84614 0.9407 0.0
C444 C 0.1455 0.85882 0.88044 0.0
C445 C 0.11745 0.87509 0.86319 0.0
C446 C 0.11489 0.88478 0.80421 0.0
C447 C 0.14026 0.87843 0.76123 0.0
C448 C 0.16845 0.8628 0.77896 0.0
C449 C 0.17099 0.85308 0.83769 0.0
C450 C 0.19977 0.87775 0.14425 0.0
C451 C 0.13496 0.82259 0.16464 0.0
C452 C 0.14572 0.92677 0.31725 0.0
C453 C 0.13937 0.91886 0.38058 0.0
C454 C 0.14887 0.88843 0.39584 0.0
C455 C 0.14702 0.8828 0.45766 0.0
C456 C 0.13547 0.90729 0.50597 0.0
C457 C 0.12499 0.93733 0.49058 0.0
C458 C 0.12712 0.94311 0.42871 0.0
C459 C 0.07478 0.88681 0.14071 0.0
O460 O 0.14149 0.91827 0.04365 0.0
O461 O 0.13649 0.94843 0.14479 0.0
O462 O 0.17422 0.85507 0.97637 0.0
O463 O 0.12215 0.84523 0.97358 0.0
O464 O 0.19421 0.85154 0.10184 0.0
O465 O 0.17644 0.89741 0.13904 0.0
O466 O 0.13647 0.85021 0.20783 0.0
O467 O 0.13502 0.82288 0.10357 0.0
O468 O 0.12195 0.93815 0.28574 0.0
O469 O 0.16405 0.90604 0.28072 0.0
O470 O 0.07878 0.90291 0.19777 0.0
O471 O 0.1027 0.88081 0.11703 0.0
H472 H 0.09734 0.87998 0.89485 0.0
H473 H 0.09294 0.89689 0.79176 0.0
H474 H 0.18835 0.85765 0.74683 0.0
H475 H 0.19284 0.84054 0.84939 0.0
H476 H 0.15859 0.86914 0.36038 0.0
H477 H 0.15518 0.85942 0.46807 0.0
H478 H 0.1159 0.95661 0.52683 0.0
H479 H 0.11999 0.9669 0.41883 0.0
Ho480 Ho 0.88398 0.62236 0.22663 0.0
Ho481 Ho 0.85223 0.62692 0.10642 0.0
C482 C 0.80539 0.62642 0.22319 0.0
C483 C 0.90377 0.62581 0.34289 0.0
C484 C 0.89155 0.62509 0.40677 0.0
C485 C 0.88108 0.65408 0.44612 0.0
C486 C 0.87336 0.65397 0.50879 0.0
C487 C 0.87609 0.62496 0.53345 0.0
C488 C 0.88574 0.59584 0.49404 0.0
C489 C 0.8935 0.59592 0.43144 0.0
C490 C 0.87549 0.56323 0.14462 0.0
C491 C 0.93321 0.62896 0.12183 0.0
C492 C 0.83277 0.61738 0.98888 0.0
C493 C 0.84251 0.62133 0.92506 0.0
C494 C 0.86695 0.60172 0.89256 0.0
C495 C 0.87306 0.60322 0.82971 0.0
C496 C 0.85484 0.62423 0.79815 0.0
C497 C 0.83094 0.64429 0.83081 0.0
C498 C 0.82478 0.64277 0.89353 0.0
C499 C 0.86247 0.68766 0.17896 0.0
O500 O 0.83249 0.63237 0.25728 0.0
O501 O 0.80651 0.61957 0.16077 0.0
O502 O 0.90241 0.59846 0.30143 0.0
O503 O 0.89699 0.65157 0.31787 0.0
O504 O 0.90188 0.57282 0.17693 0.0
O505 O 0.85501 0.58622 0.15707 0.0
O506 O 0.9072 0.62359 0.08274 0.0
O507 O 0.9297 0.6339 0.18303 0.0
O508 O 0.82647 0.64398 0.02958 0.0
O509 O 0.84787 0.5953 1.01486 0.0
O510 O 0.8363 0.6782 0.14587 0.0
O511 O 0.8821 0.66356 0.17267 0.0
H512 H 0.87965 0.67708 0.42908 0.0
H513 H 0.866 0.6767 0.53853 0.0
H514 H 0.88807 0.57323 0.51225 0.0
H515 H 0.90191 0.57329 0.40286 0.0
H516 H 0.88086 0.58468 0.9151 0.0
H517 H 0.8916 0.58755 0.80528 0.0
H518 H 0.81662 0.66064 0.80729 0.0
H519 H 0.80553 0.65782 0.91698 0.0
Ho520 Ho 0.15158 0.13703 0.97092 0.0
Ho521 Ho 0.13131 0.10677 0.83866 0.0
C522 C 0.13859 0.05881 0.94558 0.0
C523 C 0.16303 0.15436 0.09167 0.0
C524 C 0.15711 0.14371 0.15293 0.0
C525 C 0.12553 0.14026 0.17486 0.0
C526 C 0.12095 0.13263 0.23485 0.0
C527 C 0.14777 0.12836 0.27445 0.0
C528 C 0.17925 0.13128 0.25214 0.0
C529 C 0.18383 0.13888 0.1923 0.0
C530 C 0.1999 0.13333 0.88112 0.0
C531 C 0.13491 0.18669 0.88235 0.0
C532 C 0.13215 0.0806 0.71922 0.0
C533 C 0.13084 0.09059 0.6561 0.0
C534 C 0.1517 0.11517 0.64201 0.0
C535 C 0.15317 0.12144 0.58045 0.0
C536 C 0.13378 0.10347 0.53126 0.0
C537 C 0.11233 0.07953 0.54555 0.0
C538 C 0.111 0.07309 0.60709 0.0
C539 C 0.07939 0.13227 0.90797 0.0
O540 O 0.14391 0.08596 0.98688 0.0
O541 O 0.13367 0.05993 0.88439 0.0
O542 O 0.1829 0.13649 0.05326 0.0
O543 O 0.1384 0.16529 0.06174 0.0
O544 O 0.19689 0.15675 0.92934 0.0
O545 O 0.17846 0.11224 0.88667 0.0
O546 O 0.14045 0.16139 0.83577 0.0
O547 O 0.13146 0.18173 0.94014 0.0
O548 O 0.10573 0.08251 0.7522 0.0
O549 O 0.15804 0.08963 0.75453 0.0
O550 O 0.08362 0.13326 0.84919 0.0
O551 O 0.10335 0.11671 0.92777 0.0
H552 H 0.10435 0.14389 0.1461 0.0
H553 H 0.09643 0.13049 0.25077 0.0
H554 H 0.20035 0.12815 0.28153 0.0
H555 H 0.20844 0.14157 0.17717 0.0
H556 H 0.16752 0.12908 0.67826 0.0
H557 H 0.16987 0.14006 0.57096 0.0
H558 H 0.09705 0.06534 0.5087 0.0
H559 H 0.09497 0.05379 0.61607 0.0
Ho560 Ho 0.64876 0.3732 0.55013 0.0
Ho561 Ho 0.63441 0.40773 0.68085 0.0
C562 C 0.64033 0.45225 0.57372 0.0
C563 C 0.6544 0.3524 0.42957 0.0
C564 C 0.65127 0.36393 0.36816 0.0
C565 C 0.62472 0.35343 0.32676 0.0
C566 C 0.62302 0.36117 0.26628 0.0
C567 C 0.64792 0.37945 0.24551 0.0
C568 C 0.6742 0.3905 0.28698 0.0
C569 C 0.67591 0.3828 0.34755 0.0
C570 C 0.70033 0.38127 0.63649 0.0
C571 C 0.63515 0.32582 0.64367 0.0
C572 C 0.63526 0.42924 0.8022 0.0
C573 C 0.63754 0.41804 0.86397 0.0
C574 C 0.6677 0.41034 0.89024 0.0
C575 C 0.6698 0.40335 0.95136 0.0
C576 C 0.64187 0.40401 0.9877 0.0
C577 C 0.61172 0.41118 0.96128 0.0
C578 C 0.6096 0.4182 0.90031 0.0
C579 C 0.58032 0.39869 0.60366 0.0
O580 O 0.63754 0.42418 0.53356 0.0
O581 O 0.64344 0.45268 0.63538 0.0
O582 O 0.67867 0.36373 0.46773 0.0
O583 O 0.62775 0.34947 0.45977 0.0
O584 O 0.69588 0.35585 0.59205 0.0
O585 O 0.67857 0.40183 0.62904 0.0
O586 O 0.63963 0.35269 0.68826 0.0
O587 O 0.63199 0.32851 0.58413 0.0
O588 O 0.60866 0.42225 0.76797 0.0
O589 O 0.66113 0.42709 0.76786 0.0
O590 O 0.58783 0.42531 0.64371 0.0
O591 O 0.60312 0.37802 0.60553 0.0
H592 H 0.60555 0.33852 0.34063 0.0
H593 H 0.60255 0.35232 0.23515 0.0
H594 H 0.69373 0.40457 0.27198 0.0
H595 H 0.69692 0.39105 0.37764 0.0
H596 H 0.68982 0.41035 0.86415 0.0
H597 H 0.69333 0.39791 0.97073 0.0
H598 H 0.58986 0.41187 0.98834 0.0
H599 H 0.58609 0.4245 0.88208 0.0
Ho600 Ho 0.3822 0.88906 0.33033 0.0
Ho601 Ho 0.35996 0.87876 0.45186 0.0
C602 C 0.30765 0.88059 0.33057 0.0
C603 C 0.40828 0.89086 0.22265 0.0
C604 C 0.39838 0.88958 0.1559 0.0
C605 C 0.37023 0.87267 0.12891 0.0
C606 C 0.36227 0.87101 0.06483 0.0
C607 C 0.38222 0.88634 0.0269 0.0
C608 C 0.41002 0.90361 0.05426 0.0
C609 C 0.41801 0.90518 0.11808 0.0
C610 C 0.36621 0.94547 0.41494 0.0
C611 C 0.43718 0.88285 0.43523 0.0
C612 C 0.33488 0.8809 0.56196 0.0
C613 C 0.34453 0.88051 0.62875 0.0
C614 C 0.35709 0.9089 0.66863 0.0
C615 C 0.36335 0.90912 0.73275 0.0
C616 C 0.35707 0.88107 0.75854 0.0
C617 C 0.34481 0.85264 0.71893 0.0
C618 C 0.33853 0.85239 0.65479 0.0
C619 C 0.38005 0.82155 0.38146 0.0
O620 O 0.33267 0.87601 0.29416 0.0
O621 O 0.31207 0.88541 0.39335 0.0
O622 O 0.39998 0.91704 0.26252 0.0
O623 O 0.40479 0.86398 0.24538 0.0
O624 O 0.35883 0.94012 0.35526 0.0
O625 O 0.38241 0.92129 0.42561 0.0
O626 O 0.41397 0.88823 0.47747 0.0
O627 O 0.42978 0.87828 0.37476 0.0
O628 O 0.33813 0.85378 0.52074 0.0
O629 O 0.34268 0.90681 0.53915 0.0
O630 O 0.38733 0.832 0.44029 0.0
O631 O 0.36295 0.84348 0.36087 0.0
H632 H 0.35461 0.86056 0.15717 0.0
H633 H 0.3407 0.85758 0.04469 0.0
H634 H 0.42572 0.91561 0.02595 0.0
H635 H 0.43977 0.91838 0.13786 0.0
H636 H 0.36159 0.93119 0.65064 0.0
H637 H 0.37275 0.93133 0.76249 0.0
H638 H 0.3397 0.83077 0.73788 0.0
H639 H 0.3284 0.83032 0.62573 0.0
C640 C 0.1292 0.64937 0.70821 0.0
C641 C 0.15289 0.6282 0.72821 0.0
C642 C 0.16767 0.6089 0.61809 0.0
C643 C 0.14154 0.62722 0.59781 0.0
N644 N 0.09435 0.66138 0.62312 0.0
N645 N 0.19147 0.58407 0.70174 0.0
C646 C 0.12151 0.64662 0.64279 0.0
C647 C 0.17137 0.60702 0.683 0.0
N648 N 0.11465 0.67274 0.75172 0.0
N649 N 0.1894 0.59386 0.57537 0.0
H650 H 0.1947 0.58168 0.74863 0.0
H651 H 0.2028 0.56556 0.67046 0.0
H652 H 0.18744 0.59475 0.52755 0.0
H653 H 0.21089 0.58307 0.58798 0.0
H654 H 0.09979 0.69119 0.73982 0.0
H655 H 0.11972 0.67555 0.79992 0.0
H656 H 0.07676 0.67263 0.65358 0.0
H657 H 0.08793 0.66013 0.57578 0.0
C658 C 0.67077 0.86912 0.90959 0.0
C659 C 0.64419 0.88705 0.93944 0.0
C660 C 0.62735 0.90261 0.83906 0.0
C661 C 0.65559 0.88734 0.81075 0.0
N662 N 0.70681 0.86008 0.82099 0.0
N663 N 0.60046 0.92568 0.93556 0.0
C664 C 0.67803 0.87163 0.84655 0.0
C665 C 0.62332 0.90508 0.90492 0.0
N666 N 0.6885 0.84894 0.94089 0.0
N667 N 0.60393 0.91409 0.80264 0.0
H668 H 0.5969 0.9285 0.98379 0.0
H669 H 0.587 0.94221 0.9144 0.0
H670 H 0.60606 0.91282 0.75432 0.0
H671 H 0.58121 0.92219 0.81909 0.0
H672 H 0.70593 0.83256 0.91966 0.0
H673 H 0.68394 0.84656 0.98702 0.0
H674 H 0.72579 0.85181 0.8468 0.0
H675 H 0.7128 0.86112 0.77487 0.0
C676 C 0.38727 0.37244 0.16358 0.0
C677 C 0.36536 0.39308 0.2026 0.0
C678 C 0.3552 0.42413 0.11682 0.0
C679 C 0.37489 0.4017 0.07609 0.0
N680 N 0.40511 0.351 0.05777 0.0
N681 N 0.32417 0.43515 0.2124 0.0
C682 C 0.38964 0.37486 0.09876 0.0
C683 C 0.34814 0.418 0.17805 0.0
N684 N 0.40675 0.35122 0.18904 0.0
N685 N 0.34415 0.45203 0.09792 0.0
H686 H 0.31826 0.43142 0.25711 0.0
H687 H 0.30828 0.451 0.19457 0.0
H688 H 0.34868 0.45737 0.05371 0.0
H689 H 0.33287 0.47118 0.12777 0.0
H690 H 0.42572 0.33814 0.16516 0.0
H691 H 0.4059 0.34886 0.23612 0.0
H692 H 0.4133 0.32903 0.06957 0.0
H693 H 0.40717 0.35175 1.01013 0.0
C694 C 0.87371 0.14573 0.46499 0.0
C695 C 0.88006 0.11345 0.47607 0.0
C696 C 0.88551 0.09418 0.36172 0.0
C697 C 0.87623 0.12576 0.35039 0.0
N698 N 0.85557 0.17994 0.39108 0.0
N699 N 0.8866 0.05565 0.43394 0.0
C700 C 0.8687 0.15108 0.40207 0.0
C701 C 0.88449 0.0873 0.42406 0.0
N702 N 0.87351 0.17159 0.51459 0.0
N703 N 0.89635 0.07103 0.3132 0.0
H704 H 0.88586 0.04961 0.47857 0.0
H705 H 0.88625 0.03517 0.39769 0.0
H706 H 0.89766 0.07523 0.26729 0.0
H707 H 0.90669 0.04879 0.3193 0.0
H708 H 0.87261 0.1961 0.50929 0.0
H709 H 0.87724 0.16878 0.56116 0.0
H710 H 0.84622 0.19787 0.42634 0.0
H711 H 0.85121 0.18474 0.34596 0.0
C712 C 0.16435 0.4041 0.38282 0.0
C713 C 0.14247 0.38822 0.3346 0.0
C714 C 0.10876 0.37084 0.41519 0.0
C715 C 0.12884 0.38945 0.46357 0.0
N716 N 0.1731 0.42791 0.49339 0.0
N717 N 0.09111 0.36077 0.30526 0.0
C718 C 0.15597 0.40717 0.44733 0.0
C719 C 0.11392 0.37274 0.35095 0.0
N720 N 0.19367 0.41537 0.36704 0.0
N721 N 0.08536 0.35045 0.4305 0.0
H722 H 0.09397 0.36167 0.25787 0.0
H723 H 0.06818 0.35255 0.31485 0.0
H724 H 0.08098 0.34821 0.47676 0.0
H725 H 0.0723 0.33358 0.39728 0.0
H726 H 0.21219 0.42386 0.39984 0.0
H727 H 0.20064 0.41364 0.32057 0.0
H728 H 0.19077 0.44427 0.48417 0.0
H729 H 0.1678 0.43079 0.54095 0.0
C730 C 0.85882 0.91796 0.68002 0.0
C731 C 0.87074 0.88782 0.69425 0.0
C732 C 0.88993 0.87228 0.58585 0.0
C733 C 0.87525 0.90091 0.57004 0.0
N734 N 0.84121 0.94853 0.5997 0.0
N735 N 0.89291 0.83381 0.65791 0.0
C736 C 0.85854 0.92315 0.61659 0.0
C737 C 0.88508 0.86432 0.64637 0.0
N738 N 0.84846 0.94201 0.72749 0.0
N739 N 0.90935 0.85315 0.54358 0.0
H740 H 0.88971 0.82697 0.70136 0.0
H741 H 0.89995 0.81437 0.62307 0.0
H742 H 0.91357 0.85823 0.49904 0.0
H743 H 0.92357 0.83402 0.55453 0.0
H744 H 0.84304 0.96588 0.72162 0.0
H745 H 0.84781 0.93891 0.77416 0.0
H746 H 0.82559 0.96338 0.6297 0.0
H747 H 0.8402 0.9531 0.5539 0.0
C748 C 0.35444 0.645 0.90523 0.0
C749 C 0.3661 0.62087 0.85516 0.0
C750 C 0.37888 0.58455 0.93081 0.0
C751 C 0.37058 0.61009 0.98151 0.0
N752 N 0.35487 0.66649 1.01759 0.0
N753 N 0.39374 0.56941 0.82139 0.0
C754 C 0.35949 0.64083 0.96883 0.0
C755 C 0.37943 0.59105 0.86827 0.0
N756 N 0.3375 0.67146 0.89192 0.0
N757 N 0.38533 0.55371 0.94218 0.0
H758 H 0.39467 0.57327 0.77521 0.0
H759 H 0.40705 0.54904 0.82922 0.0
H760 H 0.38506 0.54797 0.9871 0.0
H761 H 0.38807 0.53318 0.9067 0.0
H762 H 0.32535 0.68802 0.92567 0.0
H763 H 0.33302 0.67525 0.84614 0.0
H764 H 0.35041 0.69049 1.01141 0.0
H765 H 0.35819 0.66442 0.06464 0.0
C766 C 0.67095 0.1555 0.13239 0.0
C767 C 0.65988 0.12664 0.09073 0.0
C768 C 0.65985 0.09791 0.18082 0.0
C769 C 0.663 0.12857 0.22289 0.0
N770 N 0.67105 0.18737 0.23809 0.0
N771 N 0.6704 0.06847 0.07604 0.0
C772 C 0.66833 0.15763 0.19846 0.0
C773 C 0.66169 0.0969 0.11484 0.0
N774 N 0.69011 0.17756 0.11059 0.0
N775 N 0.65502 0.06965 0.20352 0.0
H776 H 0.67723 0.06826 0.02984 0.0
H777 H 0.67523 0.04656 0.09173 0.0
H778 H 0.65474 0.06903 0.25145 0.0
H779 H 0.649 0.04728 0.17449 0.0
H780 H 0.70098 0.19778 0.13982 0.0
H781 H 0.69984 0.17204 0.06582 0.0
H782 H 0.67208 0.20952 0.22169 0.0
H783 H 0.66956 0.18999 0.28683 0.0
C784 C 0.83096 0.37262 0.35272 0.0
C785 C 0.85405 0.3877 0.31933 0.0
C786 C 0.88649 0.40498 0.41683 0.0
C787 C 0.86484 0.38764 0.44922 0.0
N788 N 0.81939 0.35053 0.44621 0.0
N789 N 0.90669 0.41296 0.3165 0.0
C790 C 0.83787 0.37017 0.4166 0.0
C791 C 0.88271 0.40229 0.35053 0.0
N792 N 0.80193 0.36167 0.32404 0.0
N793 N 0.90985 0.42519 0.4498 0.0
H794 H 0.90476 0.41147 0.26789 0.0
H795 H 0.92961 0.42053 0.33542 0.0
H796 H 0.91324 0.42821 0.49846 0.0
H797 H 0.92394 0.44125 0.42985 0.0
H798 H 0.78259 0.35392 0.34784 0.0
H799 H 0.79617 0.36268 0.2772 0.0
H800 H 0.80154 0.33448 0.42319 0.0
H801 H 0.8237 0.34822 0.49291 0.0
C802 C 0.32959 0.14564 0.16681 0.0
C803 C 0.35438 0.13591 0.20665 0.0
C804 C 0.38926 0.12054 0.11514 0.0
C805 C 0.36569 0.13299 0.07638 0.0
N806 N 0.31556 0.16231 0.06757 0.0
N807 N 0.41001 0.11966 0.22088 0.0
C808 C 0.33642 0.14693 0.10291 0.0
C809 C 0.38487 0.12497 0.18135 0.0
N810 N 0.2991 0.15248 0.18934 0.0
N811 N 0.4153 0.10324 0.08838 0.0
H812 H 0.4078 0.12276 0.26953 0.0
H813 H 0.43378 0.11512 0.20624 0.0
H814 H 0.41925 0.09908 0.04016 0.0
H815 H 0.43134 0.09044 0.11303 0.0
H816 H 0.27905 0.15607 0.16095 0.0
H817 H 0.29317 0.15191 0.23566 0.0
H818 H 0.29562 0.17602 0.08598 0.0
H819 H 0.31972 0.16373 1.02082 0.0
C820 C 0.64736 0.59235 0.91639 0.0
C821 C 0.63032 0.61386 0.96358 0.0
C822 C 0.61804 0.65026 0.88807 0.0
C823 C 0.63299 0.62755 0.83978 0.0
N824 N 0.65644 0.57404 0.80495 0.0
N825 N 0.59395 0.65976 0.99097 0.0
C826 C 0.64599 0.59767 0.85309 0.0
C827 C 0.61402 0.64178 0.94834 0.0
N828 N 0.66612 0.56771 0.93248 0.0
N829 N 0.60884 0.68054 0.87721 0.0
H830 H 0.59015 0.65412 0.03523 0.0
H831 H 0.57878 0.67829 0.98041 0.0
H832 H 0.61128 0.68772 0.83386 0.0
H833 H 0.60132 0.69953 0.91251 0.0
H834 H 0.68193 0.55357 0.90173 0.0
H835 H 0.6681 0.56316 0.97822 0.0
H836 H 0.66293 0.55038 0.81051 0.0
H837 H 0.65585 0.57712 0.75816 0.0
C838 C 0.15675 0.91918 0.61951 0.0
C839 C 0.13514 0.90147 0.57269 0.0
C840 C 0.11745 0.86803 0.64904 0.0
C841 C 0.13728 0.88731 0.69695 0.0
N842 N 0.171 0.9353 0.73071 0.0
N843 N 0.09024 0.86346 0.54673 0.0
C844 C 0.15547 0.91414 0.68298 0.0
C845 C 0.11412 0.87717 0.58867 0.0
N846 N 0.17964 0.9397 0.60287 0.0
N847 N 0.10273 0.84016 0.66036 0.0
H848 H 0.08678 0.8698 0.50257 0.0
H849 H 0.07201 0.8482 0.55781 0.0
H850 H 0.10437 0.83271 0.7038 0.0
H851 H 0.09113 0.823 0.62538 0.0
H852 H 0.19835 0.95047 0.63321 0.0
H853 H 0.18179 0.94375 0.55703 0.0
H854 H 0.18171 0.9573 0.72484 0.0
H855 H 0.17065 0.93234 0.77752 0.0
C856 C 0.88811 0.6405 0.71248 0.0
C857 C 0.86018 0.62465 0.73028 0.0
C858 C 0.84101 0.61205 0.61968 0.0
C859 C 0.87032 0.6253 0.60141 0.0
N860 N 0.9241 0.6476 0.62897 0.0
N861 N 0.81241 0.5909 0.70048 0.0
C862 C 0.89452 0.63831 0.64746 0.0
C863 C 0.83723 0.60922 0.68373 0.0
N864 N 0.908 0.65852 0.75778 0.0
N865 N 0.81644 0.60297 0.57603 0.0
H866 H 0.80882 0.58824 0.7468 0.0
H867 H 0.79698 0.57612 0.66807 0.0
H868 H 0.81846 0.60446 0.52869 0.0
H869 H 0.79317 0.59654 0.58743 0.0
H870 H 0.92665 0.67365 0.74794 0.0
H871 H 0.9042 0.66056 0.8058 0.0
H872 H 0.94401 0.65374 0.65971 0.0
H873 H 0.92968 0.64662 0.58193 0.0
C874 C 0.1502 0.08509 0.41746 0.0
C875 C 0.13641 0.10942 0.46477 0.0
C876 C 0.13193 0.14686 0.38836 0.0
C877 C 0.1431 0.12157 0.3398 0.0
N878 N 0.15746 0.06463 0.30593 0.0
N879 N 0.1086 0.16128 0.49174 0.0
C880 C 0.15067 0.09009 0.35381 0.0
C881 C 0.12571 0.1397 0.44913 0.0
N882 N 0.16412 0.05771 0.43373 0.0
N883 N 0.12841 0.17817 0.37722 0.0
H884 H 0.10331 0.15684 0.53628 0.0
H885 H 0.0971 0.18207 0.48098 0.0
H886 H 0.13274 0.18447 0.3337 0.0
H887 H 0.12397 0.19842 0.41241 0.0
H888 H 0.17767 0.04085 0.40302 0.0
H889 H 0.16464 0.05326 0.47961 0.0
H890 H 0.15969 0.0403 0.31191 0.0
H891 H 0.158 0.06731 0.25898 0.0
C892 C 0.65334 0.36005 0.12822 0.0
C893 C 0.64697 0.386 0.17949 0.0
C894 C 0.64091 0.42443 0.10553 0.0
C895 C 0.64414 0.39784 0.05392 0.0
N896 N 0.64857 0.33945 1.01569 0.0
N897 N 0.63014 0.44194 0.21655 0.0
C898 C 0.64908 0.36539 0.0652 0.0
C899 C 0.63955 0.41797 0.168 0.0
N900 N 0.6645 0.33053 0.13978 0.0
N901 N 0.64016 0.45602 0.09498 0.0
H902 H 0.62901 0.43821 0.2628 0.0
H903 H 0.62094 0.46463 0.21038 0.0
H904 H 0.64112 0.46173 0.05011 0.0
H905 H 0.64137 0.47668 0.13081 0.0
H906 H 0.67301 0.31186 0.10491 0.0
H907 H 0.66796 0.32565 0.18508 0.0
H908 H 0.64831 0.31494 1.02103 0.0
H909 H 0.64567 0.34234 0.969 0.0
C910 C 0.34875 0.90236 0.93744 0.0
C911 C 0.37467 0.88385 0.95807 0.0
C912 C 0.39019 0.86508 0.84819 0.0
C913 C 0.3629 0.88166 0.82734 0.0
N914 N 0.31286 0.91126 0.85123 0.0
N915 N 0.41629 0.84274 0.93295 0.0
C916 C 0.3412 0.89893 0.87179 0.0
C917 C 0.39431 0.86379 0.91332 0.0
N918 N 0.33209 0.92416 0.98047 0.0
N919 N 0.41283 0.8515 0.80601 0.0
H920 H 0.41989 0.84098 0.98011 0.0
H921 H 0.42886 0.82496 0.90226 0.0
H922 H 0.41063 0.85181 0.75799 0.0
H923 H 0.43507 0.84235 0.81912 0.0
H924 H 0.31546 0.94105 0.96816 0.0
H925 H 0.33676 0.92725 0.02883 0.0
H926 H 0.29435 0.92091 0.88105 0.0
H927 H 0.30654 0.90932 0.80367 0.0
C928 C 0.16413 0.73554 0.1685 0.0
C929 C 0.13606 0.72085 0.1887 0.0
C930 C 0.10955 0.77535 0.20902 0.0
C931 C 0.13674 0.78941 0.18436 0.0
N932 N 0.19408 0.78577 0.16644 0.0
N933 N 0.0874 0.72841 0.24799 0.0
C934 C 0.16535 0.77031 0.17212 0.0
C935 C 0.11046 0.7414 0.21553 0.0
N936 N 0.18921 0.71615 0.14347 0.0
N937 N 0.08253 0.79405 0.22413 0.0
H938 H 0.08833 0.70391 0.25387 0.0
H939 H 0.06931 0.7423 0.27316 0.0
H940 H 0.08193 0.81915 0.22285 0.0
H941 H 0.0605 0.78449 0.23538 0.0
H942 H 0.2083 0.72477 0.12021 0.0
H943 H 0.19016 0.69096 0.1435 0.0
H944 H 0.21649 0.77388 0.16255 0.0
H945 H 0.19569 0.8113 0.17429 0.0
C946 C 0.52737 0.86542 0.46599 0.0
C947 C 0.54108 0.88805 0.43139 0.0
C948 C 0.48744 0.91439 0.42968 0.0
C949 C 0.47262 0.88826 0.45193 0.0
N950 N 0.47815 0.83754 0.48989 0.0
N951 N 0.52962 0.92879 0.36561 0.0
C952 C 0.49255 0.86352 0.47063 0.0
C953 C 0.51991 0.91114 0.40927 0.0
N954 N 0.54733 0.84515 0.49265 0.0
N955 N 0.46997 0.94211 0.42619 0.0
H956 H 0.55212 0.92613 0.34495 0.0
H957 H 0.51375 0.94342 0.34444 0.0
H958 H 0.44621 0.9451 0.44209 0.0
H959 H 0.48034 0.96319 0.41483 0.0
H960 H 0.53913 0.83013 0.52269 0.0
H961 H 0.57251 0.8451 0.48818 0.0
H962 H 0.49077 0.81669 0.49739 0.0
H963 H 0.45305 0.83642 0.4955 0.0
C964 C 0.39736 0.28601 0.69705 0.0
C965 C 0.37455 0.29853 0.65677 0.0
C966 C 0.34562 0.24499 0.63976 0.0
C967 C 0.37162 0.23074 0.66995 0.0
N968 N 0.42155 0.23787 0.73078 0.0
N969 N 0.32698 0.28906 0.58779 0.0
C970 C 0.39704 0.25153 0.70053 0.0
C971 C 0.34841 0.27787 0.62838 0.0
N972 N 0.41947 0.30711 0.73147 0.0
N973 N 0.31819 0.22672 0.62124 0.0
H974 H 0.32686 0.3133 0.58061 0.0
H975 H 0.31028 0.27398 0.55886 0.0
H976 H 0.31565 0.20265 0.62849 0.0
H977 H 0.29694 0.23631 0.60464 0.0
H978 H 0.43533 0.30059 0.76536 0.0
H979 H 0.4201 0.33211 0.72944 0.0
H980 H 0.4429 0.25021 0.74819 0.0
H981 H 0.42077 0.21334 0.73638 0.0
C982 C 0.99417 0.16634 0.94734 0.0
C983 C 0.975 0.13716 0.9406 0.0
C984 C 0.02554 0.10434 0.92477 0.0
C985 C 0.04479 0.13349 0.93133 0.0
N986 N 0.04767 0.19222 0.96449 0.0
N987 N 0.97436 0.07913 0.94391 0.0
C988 C 0.02908 0.16446 0.9479 0.0
C989 C 0.99133 0.10646 0.93664 0.0
N990 N 0.97886 0.19597 0.9511 0.0
N991 N 0.03932 0.07453 0.90271 0.0
H992 H 0.94995 0.07987 0.95533 0.0
H993 H 0.98541 0.05674 0.94665 0.0
H994 H 0.06387 0.07195 0.89254 0.0
H995 H 0.02594 0.05285 0.88939 0.0
H996 H 0.99081 0.21773 0.94768 0.0
H997 H 0.95368 0.19845 0.95502 0.0
H998 H 0.03822 0.21534 0.98234 0.0
H999 H 0.07299 0.19142 0.96627 0.0
C1000 C 0.16092 0.27723 0.89665 0.0
C1001 C 0.13489 0.29011 0.86488 0.0
C1002 C 0.11345 0.23364 0.83053 0.0
C1003 C 0.13613 0.22185 0.87226 0.0
N1004 N 0.17855 0.23562 0.95378 0.0
N1005 N 0.08572 0.2812 0.80185 0.0
C1006 C 0.15914 0.24448 0.90746 0.0
C1007 C 0.1112 0.26837 0.83101 0.0
N1008 N 0.1872 0.29672 0.91826 0.0
N1009 N 0.0934 0.21196 0.79196 0.0
H1010 H 0.0845 0.30617 0.79947 0.0
H1011 H 0.06536 0.2676 0.78262 0.0
H1012 H 0.09288 0.18686 0.79285 0.0
H1013 H 0.0787 0.2185 0.75636 0.0
H1014 H 0.20858 0.28767 0.93561 0.0
H1015 H 0.18894 0.32116 0.91284 0.0
H1016 H 0.19219 0.25251 0.986 0.0
H1017 H 0.17937 0.21216 0.96408 0.0
C1018 C 0.02444 0.85208 0.11573 0.0
C1019 C 0.04138 0.88115 0.11034 0.0
C1020 C 0.9885 0.9065 0.09065 0.0
C1021 C 0.97171 0.88046 0.11062 0.0
N1022 N 0.97506 0.82979 0.15028 0.0
N1023 N 0.03902 0.93744 0.0959 0.0
C1024 C 0.98999 0.85317 0.12397 0.0
C1025 C 0.02325 0.90853 0.09711 0.0
N1026 N 0.04152 0.8238 0.11573 0.0
N1027 N 0.971 0.93026 0.06873 0.0
H1028 H 0.06423 0.93988 0.1016 0.0
H1029 H 0.02705 0.95945 0.09353 0.0
H1030 H 0.94561 0.92956 0.06563 0.0
H1031 H 0.98152 0.94856 0.04869 0.0
H1032 H 0.03048 0.80113 0.11532 0.0
H1033 H 0.06663 0.82283 0.10942 0.0
H1034 H 0.98765 0.81112 0.16708 0.0
H1035 H 0.95038 0.8308 0.16015 0.0
C1036 C 0.39925 0.72954 0.34283 0.0
C1037 C 0.37535 0.71767 0.37987 0.0
C1038 C 0.34796 0.77175 0.39127 0.0
C1039 C 0.37443 0.78506 0.36375 0.0
N1040 N 0.42612 0.77721 0.31458 0.0
N1041 N 0.32946 0.73113 0.44864 0.0
C1042 C 0.4001 0.76392 0.33899 0.0
C1043 C 0.35033 0.73972 0.4063 0.0
N1044 N 0.42187 0.70835 0.31315 0.0
N1045 N 0.32051 0.79013 0.40468 0.0
H1046 H 0.32877 0.70811 0.46089 0.0
H1047 H 0.3142 0.74789 0.47576 0.0
H1048 H 0.31819 0.81404 0.39642 0.0
H1049 H 0.2989 0.78049 0.41789 0.0
H1050 H 0.43776 0.71449 0.28047 0.0
H1051 H 0.4237 0.68388 0.31851 0.0
H1052 H 0.44768 0.76459 0.30277 0.0
H1053 H 0.42647 0.8017 0.30866 0.0
C1054 C 0.522 0.16721 0.61479 0.0
C1055 C 0.53893 0.13798 0.58853 0.0
C1056 C 0.48625 0.11045 0.55861 0.0
C1057 C 0.46914 0.13902 0.58756 0.0
N1058 N 0.47088 0.19739 0.62567 0.0
N1059 N 0.53589 0.08875 0.50906 0.0
C1060 C 0.48718 0.16834 0.61003 0.0
C1061 C 0.5207 0.11188 0.55161 0.0
N1062 N 0.53941 0.19404 0.64412 0.0
N1063 N 0.47033 0.0811 0.54235 0.0
H1064 H 0.56069 0.08976 0.50092 0.0
H1065 H 0.52317 0.07084 0.4772 0.0
H1066 H 0.4458 0.07861 0.55071 0.0
H1067 H 0.48223 0.0589 0.52689 0.0
H1068 H 0.52913 0.21461 0.67175 0.0
H1069 H 0.5646 0.19528 0.6409 0.0
H1070 H 0.48223 0.22026 0.63799 0.0
H1071 H 0.44567 0.19883 0.6202 0.0
C1072 C 0.85282 0.25058 0.91141 0.0
C1073 C 0.87706 0.2293 0.87967 0.0
C1074 C 0.89819 0.27701 0.83799 0.0
C1075 C 0.87303 0.29724 0.86773 0.0
N1076 N 0.8208 0.30011 0.91545 0.0
N1077 N 0.92001 0.22187 0.80448 0.0
C1078 C 0.84839 0.28271 0.89795 0.0
C1079 C 0.89858 0.24232 0.83959 0.0
N1080 N 0.83482 0.24122 0.95725 0.0
N1081 N 0.92251 0.2913 0.81062 0.0
H1082 H 0.9224 0.19708 0.8072 0.0
H1083 H 0.93404 0.22898 0.76993 0.0
H1084 H 0.92179 0.31605 0.80641 0.0
H1085 H 0.94376 0.2792 0.79466 0.0
H1086 H 0.81991 0.25735 0.98659 0.0
H1087 H 0.83693 0.21864 0.97098 0.0
H1088 H 0.80034 0.28966 0.93146 0.0
H1089 H 0.81712 0.32398 0.90763 0.0
C1090 C 0.60657 0.77565 0.33286 0.0
C1091 C 0.63546 0.79426 0.35217 0.0
C1092 C 0.66381 0.74286 0.36298 0.0
C1093 C 0.63386 0.72541 0.35406 0.0
N1094 N 0.57918 0.72204 0.31191 0.0
N1095 N 0.69159 0.79551 0.38854 0.0
C1096 C 0.6059 0.7409 0.3331 0.0
C1097 C 0.66427 0.7777 0.36672 0.0
N1098 N 0.57945 0.79172 0.31683 0.0
N1099 N 0.69207 0.72574 0.36536 0.0
H1100 H 0.69337 0.82084 0.39089 0.0
H1101 H 0.71186 0.78556 0.40797 0.0
H1102 H 0.69226 0.70014 0.35848 0.0
H1103 H 0.71514 0.73621 0.36603 0.0
H1104 H 0.55648 0.78111 0.3081 0.0
H1105 H 0.58008 0.81642 0.31259 0.0
H1106 H 0.55798 0.73079 0.29366 0.0
H1107 H 0.57924 0.69653 0.30832 0.0
C1108 C 0.88723 0.73156 0.12763 0.0
C1109 C 0.87352 0.72244 0.1814 0.0
C1110 C 0.86709 0.78126 0.22791 0.0
C1111 C 0.88167 0.79046 0.17424 0.0
N1112 N 0.916 0.7728 0.08496 0.0
N1113 N 0.85811 0.73818 0.28888 0.0
C1114 C 0.89509 0.7651 0.12814 0.0
C1115 C 0.86618 0.74723 0.23368 0.0
N1116 N 0.89136 0.70852 0.07427 0.0
N1117 N 0.8521 0.80422 0.27146 0.0
H1118 H 0.85717 0.71358 0.29394 0.0
H1119 H 0.85559 0.75489 0.33087 0.0
H1120 H 0.85125 0.82916 0.27007 0.0
H1121 H 0.83777 0.79816 0.30661 0.0
H1122 H 0.89726 0.71463 0.03132 0.0
H1123 H 0.88645 0.68357 0.07118 0.0
H1124 H 0.92918 0.75509 0.0552 0.0
H1125 H 0.92302 0.79677 0.0832 0.0
C1126 C 0.66319 0.23672 0.64302 0.0
C1127 C 0.63848 0.22456 0.67657 0.0
C1128 C 0.61634 0.281 0.70301 0.0
C1129 C 0.63732 0.29148 0.65879 0.0
N1130 N 0.67848 0.2757 0.5797 0.0
N1131 N 0.59275 0.23493 0.74333 0.0
C1132 C 0.66018 0.26839 0.62711 0.0
C1133 C 0.61566 0.24684 0.70885 0.0
N1134 N 0.68971 0.21757 0.62554 0.0
N1135 N 0.59632 0.30328 0.73776 0.0
H1136 H 0.59325 0.21063 0.75045 0.0
H1137 H 0.57294 0.24841 0.76286 0.0
H1138 H 0.59424 0.32758 0.73156 0.0
H1139 H 0.5828 0.29821 0.77479 0.0
H1140 H 0.71036 0.22624 0.60683 0.0
H1141 H 0.69247 0.19418 0.63639 0.0
H1142 H 0.69158 0.25802 0.54974 0.0
H1143 H 0.67926 0.29855 0.56671 0.0
C1144 C 0.98786 0.41647 0.92543 0.0
C1145 C 0.96752 0.39362 0.94819 0.0
C1146 C 0.01699 0.36694 0.98165 0.0
C1147 C 0.0362 0.39133 0.96179 0.0
N1148 N 0.0386 0.44625 0.94165 0.0
N1149 N 0.96313 0.35044 1.00886 0.0
C1150 C 0.02098 0.41862 0.94367 0.0
C1151 C 0.98221 0.37016 0.98079 0.0
N1152 N 0.97683 0.43437 0.88222 0.0
N1153 N 0.03182 0.34023 0.99849 0.0
H1154 H 0.93781 0.35196 1.00799 0.0
H1155 H 0.97247 0.33458 0.03702 0.0
H1156 H 0.05713 0.33818 1.00112 0.0
H1157 H 0.01916 0.31976 1.00697 0.0
H1158 H 0.99211 0.44902 0.86119 0.0
H1159 H 0.95378 0.43167 0.86146 0.0
H1160 H 0.02793 0.46789 0.93273 0.0
H1161 H 0.0629 0.44831 0.95698 0.0
C1162 C 0.49376 0.59903 0.46566 0.0
C1163 C 0.47166 0.62324 0.4509 0.0
C1164 C 0.5184 0.65499 0.42359 0.0
C1165 C 0.53979 0.62884 0.43062 0.0
N1166 N 0.54989 0.58125 0.47656 0.0
N1167 N 0.46522 0.68026 0.44257 0.0
C1168 C 0.52804 0.60259 0.45787 0.0
C1169 C 0.48465 0.65321 0.43825 0.0
N1170 N 0.48158 0.57228 0.48616 0.0
N1171 N 0.53046 0.68136 0.40187 0.0
H1172 H 0.44203 0.68088 0.46066 0.0
H1173 H 0.47336 0.7033 0.43676 0.0
H1174 H 0.5554 0.68455 0.3974 0.0
H1175 H 0.51603 0.69938 0.38725 0.0
H1176 H 0.49507 0.55152 0.49079 0.0
H1177 H 0.45727 0.57092 0.49828 0.0
H1178 H 0.54392 0.56249 0.50028 0.0
H1179 H 0.57482 0.58434 0.47278 0.0
C1180 C 0.49494 0.3984 0.65591 0.0
C1181 C 0.47558 0.38863 0.59989 0.0
C1182 C 0.52678 0.38401 0.54107 0.0
C1183 C 0.54511 0.38901 0.59869 0.0
N1184 N 0.54465 0.38763 0.70939 0.0
N1185 N 0.47511 0.36622 0.48807 0.0
C1186 C 0.52845 0.39147 0.65542 0.0
C1187 C 0.49201 0.37976 0.54176 0.0
N1188 N 0.48222 0.41668 0.70882 0.0
N1189 N 0.54236 0.38372 0.48616 0.0
H1190 H 0.45023 0.36141 0.48688 0.0
H1191 H 0.48642 0.35691 0.446 0.0
H1192 H 0.56765 0.38568 0.48466 0.0
H1193 H 0.53006 0.38354 0.44336 0.0
H1194 H 0.49645 0.42559 0.74906 0.0
H1195 H 0.45916 0.42716 0.70929 0.0
H1196 H 0.53275 0.38763 0.75138 0.0
H1197 H 0.5689 0.38019 0.70945 0.0
C1198 C 0.01949 0.66251 0.1234 0.0
C1199 C 0.03644 0.6343 0.09283 0.0
C1200 C 0.98385 0.60647 0.06186 0.0
C1201 C 0.96718 0.63289 0.09951 0.0
N1202 N 0.96777 0.69 0.14914 0.0
N1203 N 0.03301 0.5891 1.0053 0.0
C1204 C 0.98469 0.66228 0.12468 0.0
C1205 C 0.01816 0.60915 0.05327 0.0
N1206 N 0.03706 0.68966 0.15063 0.0
N1207 N 0.96754 0.57805 0.03723 0.0
H1208 H 0.05737 0.59216 0.99542 0.0
H1209 H 0.02029 0.57229 0.97132 0.0
H1210 H 0.94256 0.57525 0.04188 0.0
H1211 H 0.97927 0.55671 1.01565 0.0
H1212 H 0.0275 0.71005 0.17995 0.0
H1213 H 0.0618 0.69162 0.1425 0.0
H1214 H 0.97825 0.71302 0.16505 0.0
H1215 H 0.94242 0.69048 0.14923 0.0
C1216 C 0.10197 0.52372 0.02783 0.0
C1217 C 0.12686 0.53227 0.07505 0.0
C1218 C 0.1612 0.48815 1.01638 0.0
C1219 C 0.13656 0.48086 0.96857 0.0
N1220 N 0.08846 0.49899 0.91975 0.0
N1221 N 0.17686 0.51658 0.12177 0.0
C1222 C 0.10849 0.50084 0.97167 0.0
C1223 C 0.1559 0.51312 0.07081 0.0
N1224 N 0.07117 0.53535 0.03786 0.0
N1225 N 0.19015 0.47184 1.0085 0.0
H1226 H 0.17201 0.53208 0.16427 0.0
H1227 H 0.19706 0.50175 0.12492 0.0
H1228 H 0.19441 0.45359 0.96939 0.0
H1229 H 0.21067 0.47789 0.03756 0.0
H1230 H 0.05138 0.52578 1.00907 0.0
H1231 H 0.06454 0.55169 0.07798 0.0
H1232 H 0.06964 0.51563 0.91686 0.0
H1233 H 0.0925 0.48267 0.87777 0.0
C1234 C 0.75485 0.91633 0.28231 0.0
C1235 C 0.73822 0.88746 0.29097 0.0
C1236 C 0.77635 0.85464 0.21782 0.0
C1237 C 0.78975 0.88375 0.20112 0.0
N1238 N 0.78673 0.94314 0.21349 0.0
N1239 N 0.73072 0.82899 0.25944 0.0
C1240 C 0.77791 0.91487 0.23291 0.0
C1241 C 0.74842 0.85662 0.2567 0.0
N1242 N 0.74837 0.94542 0.32132 0.0
N1243 N 0.79091 0.82488 0.1988 0.0
H1244 H 0.71097 0.82915 0.2887 0.0
H1245 H 0.73412 0.80652 0.22936 0.0
H1246 H 0.81223 0.82195 0.17374 0.0
H1247 H 0.78421 0.8036 0.21464 0.0
H1248 H 0.76181 0.96687 0.32227 0.0
H1249 H 0.73166 0.94711 0.35721 0.0
H1250 H 0.77627 0.96593 0.23026 0.0
H1251 H 0.80195 0.94367 0.17612 0.0
C1252 C 0.35452 0.49567 0.5714 0.0
C1253 C 0.38349 0.47681 0.57489 0.0
C1254 C 0.40695 0.50474 0.49283 0.0
C1255 C 0.37845 0.52415 0.49125 0.0
N1256 N 0.3225 0.53273 0.51837 0.0
N1257 N 0.43888 0.4664 0.54262 0.0
C1258 C 0.35155 0.5179 0.52752 0.0
C1259 C 0.41005 0.48211 0.53624 0.0
N1260 N 0.33071 0.49452 0.61388 0.0
N1261 N 0.43082 0.5074 0.45135 0.0
H1262 H 0.44221 0.4496 0.57242 0.0
H1263 H 0.46035 0.47139 0.52181 0.0
H1264 H 0.42898 0.52336 0.4194 0.0
H1265 H 0.45111 0.49224 0.44459 0.0
H1266 H 0.31074 0.51018 0.61932 0.0
H1267 H 0.33229 0.48014 0.64854 0.0
H1268 H 0.30071 0.52696 0.53722 0.0
H1269 H 0.31949 0.54868 0.48653 0.0
C1270 C 0.77839 0.16273 0.81646 0.0
C1271 C 0.78978 0.13493 0.84156 0.0
C1272 C 0.74902 0.10084 0.77104 0.0
C1273 C 0.7353 0.12928 0.75241 0.0
N1274 N 0.73425 0.18834 0.76631 0.0
N1275 N 0.78052 0.07804 0.8491 0.0
C1276 C 0.74938 0.16045 0.77743 0.0
C1277 C 0.77386 0.10401 0.81996 0.0
N1278 N 0.7959 0.1913 0.82769 0.0
N1279 N 0.73826 0.0705 0.74171 0.0
H1280 H 0.7967 0.07938 0.88731 0.0
H1281 H 0.76733 0.05609 0.84008 0.0
H1282 H 0.71995 0.06748 0.70688 0.0
H1283 H 0.7495 0.04861 0.74746 0.0
H1284 H 0.79109 0.21103 0.80516 0.0
H1285 H 0.81728 0.19404 0.8545 0.0
H1286 H 0.74073 0.21191 0.78965 0.0
H1287 H 0.71347 0.18781 0.73745 0.0
C1288 C 0.84542 0.52617 0.05046 0.0
C1289 C 0.87298 0.53282 0.09241 0.0
C1290 C 0.90321 0.48949 0.02323 0.0
C1291 C 0.8765 0.48395 0.97889 0.0
N1292 N 0.82401 0.50184 0.94628 0.0
N1293 N 0.91994 0.50738 0.13201 0.0
C1294 C 0.84796 0.50342 0.99186 0.0
C1295 C 0.89964 0.51076 0.08253 0.0
N1296 N 0.81595 0.53919 0.0689 0.0
N1297 N 0.93263 0.47522 1.00905 0.0
H1298 H 0.91528 0.51835 0.17826 0.0
H1299 H 0.93804 0.48953 0.12914 0.0
H1300 H 0.93688 0.4594 0.9673 0.0
H1301 H 0.95376 0.48184 0.03621 0.0
H1302 H 0.79427 0.53325 0.04333 0.0
H1303 H 0.8123 0.55207 0.11413 0.0
H1304 H 0.80444 0.51801 0.94929 0.0
H1305 H 0.82545 0.48666 0.90223 0.0
C1306 C 0.23846 0.1024 0.79661 0.0
C1307 C 0.22411 0.1325 0.82732 0.0
C1308 C 0.26009 0.16224 0.76483 0.0
C1309 C 0.27274 0.13218 0.73199 0.0
N1310 N 0.26886 0.07327 0.70795 0.0
N1311 N 0.21685 0.1905 0.82592 0.0
C1312 C 0.26006 0.10222 0.74508 0.0
C1313 C 0.23372 0.16219 0.80709 0.0
N1314 N 0.23354 0.07411 0.81919 0.0
N1315 N 0.27415 0.19122 0.75778 0.0
H1316 H 0.19711 0.19166 0.85468 0.0
H1317 H 0.22007 0.21178 0.80746 0.0
H1318 H 0.29245 0.19241 0.72584 0.0
H1319 H 0.2693 0.21373 0.7866 0.0
H1320 H 0.24599 0.05233 0.80338 0.0
H1321 H 0.21968 0.073 0.85825 0.0
H1322 H 0.25821 0.05068 0.71009 0.0
H1323 H 0.28454 0.07245 0.67053 0.0
C1324 C 0.6663 0.53192 0.5179 0.0
C1325 C 0.64017 0.53574 0.47499 0.0
C1326 C 0.61218 0.48848 0.50595 0.0
C1327 C 0.63912 0.48338 0.54601 0.0
N1328 N 0.69369 0.49811 0.5839 0.0
N1329 N 0.59043 0.51432 0.42142 0.0
C1330 C 0.66657 0.50474 0.55064 0.0
C1331 C 0.61388 0.51288 0.46682 0.0
N1332 N 0.69116 0.55444 0.52732 0.0
N1333 N 0.58414 0.47093 0.50762 0.0
H1334 H 0.59016 0.53226 0.39341 0.0
H1335 H 0.57264 0.49629 0.40796 0.0
H1336 H 0.5816 0.45375 0.53683 0.0
H1337 H 0.56238 0.47557 0.48515 0.0
H1338 H 0.70837 0.5563 0.56401 0.0
H1339 H 0.69397 0.57229 0.49957 0.0
H1340 H 0.71607 0.50972 0.58287 0.0
H1341 H 0.6944 0.47941 0.61002 0.0
C1342 C 0.25806 0.90949 0.29124 0.0
C1343 C 0.27495 0.87986 0.29592 0.0
C1344 C 0.2493 0.85402 0.19462 0.0
C1345 C 0.22795 0.88121 0.19389 0.0
N1346 N 0.2168 0.93812 0.23891 0.0
N1347 N 0.28014 0.82176 0.25788 0.0
C1348 C 0.23352 0.90989 0.2419 0.0
C1349 C 0.26787 0.85144 0.24998 0.0
N1350 N 0.26689 0.9377 0.33184 0.0
N1351 N 0.25516 0.8323 0.14035 0.0
H1352 H 0.29406 0.81907 0.29761 0.0
H1353 H 0.27355 0.79969 0.22833 0.0
H1354 H 0.24775 0.83649 0.09615 0.0
H1355 H 0.27212 0.81336 0.13803 0.0
H1356 H 0.25888 0.9611 0.32774 0.0
H1357 H 0.28359 0.93775 0.36904 0.0
H1358 H 0.21592 0.95814 0.27592 0.0
H1359 H 0.20344 0.94164 0.19927 0.0
C1360 C 0.59912 0.99144 0.49896 0.0
C1361 C 0.6285 0.98203 0.46671 0.0
C1362 C 0.65709 0.02381 0.54651 0.0
C1363 C 0.62699 0.03663 0.57237 0.0
N1364 N 0.56797 0.03448 0.56072 0.0
N1365 N 0.68459 0.99613 0.45384 0.0
C1366 C 0.59768 0.02099 0.54508 0.0
C1367 C 0.65722 1.00022 0.4888 0.0
N1368 N 0.57245 0.97149 0.48815 0.0
N1369 N 0.6858 0.03243 0.57844 0.0
H1370 H 0.68548 0.98054 0.41017 0.0
H1371 H 0.70511 0.01112 0.46481 0.0
H1372 H 0.68699 0.04676 0.62325 0.0
H1373 H 0.70794 0.02158 0.56429 0.0
H1374 H 0.55202 0.97459 0.51614 0.0
H1375 H 0.57217 0.94974 0.45604 0.0
H1376 H 0.54639 0.02563 0.5372 0.0
H1377 H 0.56452 0.05669 0.59104 0.0
C1378 C 0.23895 0.41773 0.79458 0.0
C1379 C 0.22821 0.38726 0.80841 0.0
C1380 C 0.26962 0.35857 0.73769 0.0
C1381 C 0.27851 0.38871 0.71985 0.0
N1382 N 0.26861 0.4464 0.72491 0.0
N1383 N 0.22967 0.32798 0.78445 0.0
C1384 C 0.26222 0.41812 0.74663 0.0
C1385 C 0.24252 0.35749 0.77736 0.0
N1386 N 0.22696 0.44642 0.82778 0.0
N1387 N 0.28802 0.33115 0.71916 0.0
H1388 H 0.21073 0.32616 0.81469 0.0
H1389 H 0.23631 0.30553 0.75738 0.0
H1390 H 0.30767 0.33099 0.68984 0.0
H1391 H 0.28534 0.30945 0.73645 0.0
H1392 H 0.23578 0.46965 0.8248 0.0
H1393 H 0.20988 0.44685 0.86262 0.0
H1394 H 0.25569 0.46818 0.73766 0.0
H1395 H 0.28508 0.44721 0.68935 0.0
C1396 C 0.88882 0.97665 0.98804 0.0
C1397 C 0.8828 0.98107 0.0543 0.0
C1398 C 0.88727 0.04071 0.05555 0.0
C1399 C 0.88441 0.03621 0.98826 0.0
N1400 N 0.87718 0.99661 0.89146 0.0
N1401 N 0.86977 0.02088 0.14746 0.0
C1402 C 0.88371 1.00325 0.95467 0.0
C1403 C 0.88023 0.01412 0.08717 0.0
N1404 N 0.90126 0.94773 0.9568 0.0
N1405 N 0.89837 0.0699 0.08986 0.0
H1406 H 0.8619 1.0029 0.17149 0.0
H1407 H 0.86512 0.04485 0.17053 0.0
H1408 H 0.90762 0.08864 0.069 0.0
H1409 H 0.90272 0.07343 0.13837 0.0
H1410 H 0.90823 0.94457 0.91009 0.0
H1411 H 0.90908 0.92885 0.97936 0.0
H1412 H 0.87377 0.97267 0.86659 0.0
H1413 H 0.87178 0.01472 0.86526 0.0
C1414 C 0.24785 0.59115 0.26427 0.0
C1415 C 0.23319 0.62077 0.25294 0.0
C1416 C 0.27621 0.65169 0.3207 0.0
C1417 C 0.28771 0.62257 0.34119 0.0
N1418 N 0.28016 0.56398 0.33511 0.0
N1419 N 0.23155 0.67989 0.27789 0.0
C1420 C 0.27259 0.59202 0.31309 0.0
C1421 C 0.24688 0.65116 0.28335 0.0
N1422 N 0.23835 0.56204 0.22759 0.0
N1423 N 0.29436 0.67975 0.33335 0.0
H1424 H 0.21083 0.68074 0.2493 0.0
H1425 H 0.23802 0.70256 0.30532 0.0
H1426 H 0.31723 0.68026 0.35446 0.0
H1427 H 0.28896 0.7008 0.31506 0.0
H1428 H 0.24994 0.53974 0.22881 0.0
H1429 H 0.22115 0.56107 0.19098 0.0
H1430 H 0.26749 0.54191 0.3211 0.0
H1431 H 0.2969 0.56327 0.37174 0.0
C1432 C 0.34604 0.98571 0.51022 0.0
C1433 C 0.36692 0.97876 0.45807 0.0
C1434 C 0.38912 0.03482 0.48917 0.0
C1435 C 0.37347 0.03934 0.54832 0.0
N1436 N 0.33763 0.01651 0.6157 0.0
N1437 N 0.41128 0.99667 0.40192 0.0
C1438 C 0.352 0.01401 0.55888 0.0
C1439 C 0.38942 1.00325 0.44901 0.0
N1440 N 0.31937 0.9663 0.51165 0.0
N1441 N 0.40104 0.0612 0.4678 0.0
H1442 H 0.41173 0.97442 0.37004 0.0
H1443 H 0.4306 0.01243 0.39797 0.0
H1444 H 0.39752 0.08488 0.49171 0.0
H1445 H 0.40993 0.05989 0.42276 0.0
H1446 H 0.30147 0.97175 0.54514 0.0
H1447 H 0.31364 0.94654 0.47544 0.0
H1448 H 0.32445 0.99733 0.62828 0.0
H1449 H 0.34106 0.03676 0.65205 0.0
C1450 C 0.75236 0.6026 0.25796 0.0
C1451 C 0.77392 0.62965 0.25915 0.0
C1452 C 0.74868 0.65797 0.35662 0.0
C1453 C 0.72512 0.63228 0.35376 0.0
N1454 N 0.7145 0.57451 0.3146 0.0
N1455 N 0.78542 0.68673 0.29968 0.0
C1456 C 0.72942 0.60306 0.30745 0.0
C1457 C 0.76966 0.65839 0.30536 0.0
N1458 N 0.75338 0.57656 0.20899 0.0
N1459 N 0.75413 0.68008 0.41127 0.0
H1460 H 0.80013 0.68823 0.26177 0.0
H1461 H 0.78074 0.70942 0.32813 0.0
H1462 H 0.74469 0.6772 0.45402 0.0
H1463 H 0.77256 0.69777 0.41699 0.0
H1464 H 0.73607 0.55779 0.2006 0.0
H1465 H 0.76972 0.57545 0.17286 0.0
H1466 H 0.71847 0.55178 0.28599 0.0
H1467 H 0.70166 0.57232 0.35431 0.0
C1468 C 0.11398 1.00352 0.96336 0.0
C1469 C 0.13962 0.02718 0.9731 0.0
C1470 C 0.16086 1.00148 0.06184 0.0
C1471 C 0.1363 0.97669 0.05013 0.0
N1472 N 0.0922 0.95158 0.98107 0.0
N1473 N 0.19257 0.04186 1.02053 0.0
C1474 C 0.11376 0.97703 0.99828 0.0
C1475 C 0.16438 0.02418 1.01946 0.0
N1476 N 0.08898 1.00675 0.92219 0.0
N1477 N 0.18135 1.00334 0.11316 0.0
H1478 H 0.19706 0.05687 0.98787 0.0
H1479 H 0.21293 0.03873 0.04847 0.0
H1480 H 0.18089 0.98653 0.14343 0.0
H1481 H 0.19703 0.02314 0.12868 0.0
H1482 H 0.06708 0.99386 0.92001 0.0
H1483 H 0.08951 0.02344 0.89184 0.0
H1484 H 0.0787 0.94769 0.9389 0.0
H1485 H 0.08903 0.93299 1.00682 0.0
C1486 C 0.73395 0.35557 0.7176 0.0
C1487 C 0.72433 0.38393 0.69237 0.0
C1488 C 0.75799 0.41766 0.77712 0.0
C1489 C 0.77142 0.38896 0.79439 0.0
N1490 N 0.77492 0.32993 0.77514 0.0
N1491 N 0.73371 0.44176 0.69336 0.0
C1492 C 0.76002 0.35776 0.76315 0.0
C1493 C 0.73778 0.41505 0.72149 0.0
N1494 N 0.71748 0.32662 0.70053 0.0
N1495 N 0.76519 0.4476 0.81341 0.0
H1496 H 0.72241 0.44021 0.64935 0.0
H1497 H 0.74519 0.46431 0.70953 0.0
H1498 H 0.77985 0.44991 0.85417 0.0
H1499 H 0.75395 0.46936 0.80687 0.0
H1500 H 0.72113 0.30639 0.72227 0.0
H1501 H 0.69759 0.32408 0.67002 0.0
H1502 H 0.77075 0.30667 0.74787 0.0
H1503 H 0.79311 0.33048 0.80984 0.0
loop_
_geom_bond_atom_site_label_1
_geom_bond_atom_site_label_2
_geom_bond_distance
_geom_bond_site_symmetry_2
_ccdc_geom_bond_type
Ho0 C3 2.811 1_554 S
Ho0 O20 2.322 . S
Ho0 O22 2.378 1_554 S
Ho0 O23 2.524 1_554 S
Ho0 O24 2.381 . S
Ho0 O25 2.669 . S
Ho0 O27 2.346 . S
Ho0 O31 2.305 . S
Ho1 C12 2.811 . S
Ho1 O21 2.346 . S
Ho1 O25 2.305 . S
Ho1 O26 2.322 . S
Ho1 O28 2.378 . S
Ho1 O29 2.524 . S
Ho1 O30 2.381 . S
Ho1 O31 2.669 . S
C2 O20 1.259 . S
C2 O21 1.268 . S
C3 Ho0 2.811 1_556 S
C3 C4 1.488 . S
C3 O22 1.215 . S
C3 O23 1.289 . S
C4 C3 1.488 . S
C4 C5 1.348 . S
C4 C9 1.413 . S
C5 C4 1.348 . S
C5 C6 1.442 . S
C5 H32 0.930 . S
C6 C5 1.442 . S
C6 C7 1.381 . S
C6 H33 0.931 . S
C7 C6 1.381 . S
C7 C8 1.321 . S
C8 C7 1.321 . S
C8 C9 1.403 . S
C8 H34 0.934 . S
C9 C4 1.413 . S
C9 C8 1.403 . S
C9 H35 0.930 . S
C10 O24 1.275 . S
C10 O25 1.256 . S
C11 O26 1.259 . S
C11 O27 1.268 . S
C12 Ho1 2.811 . S
C12 C13 1.488 . S
C12 O28 1.215 . S
C12 O29 1.289 . S
C13 C12 1.488 . S
C13 C14 1.348 . S
C13 C18 1.413 . S
C14 C13 1.348 . S
C14 C15 1.442 . S
C14 H36 0.930 . S
C15 C14 1.442 . S
C15 C16 1.381 . S
C15 H37 0.931 . S
C16 C15 1.381 . S
C16 C17 1.321 . S
C17 C16 1.321 . S
C17 C18 1.403 . S
C17 H38 0.934 . S
C18 C13 1.413 . S
C18 C17 1.403 . S
C18 H39 0.930 . S
C19 O30 1.275 . S
C19 O31 1.256 . S
O20 Ho0 2.322 . S
O20 C2 1.259 . S
O21 Ho1 2.346 . S
O21 C2 1.268 . S
O22 Ho0 2.378 1_556 S
O22 C3 1.215 . S
O23 Ho0 2.524 1_556 S
O23 C3 1.289 . S
O24 Ho0 2.381 . S
O24 C10 1.275 . S
O25 Ho0 2.669 . S
O25 Ho1 2.305 . S
O25 C10 1.256 . S
O26 Ho1 2.322 . S
O26 C11 1.259 . S
O27 Ho0 2.346 . S
O27 C11 1.268 . S
O28 Ho1 2.378 . S
O28 C12 1.215 . S
O29 Ho1 2.524 . S
O29 C12 1.289 . S
O30 Ho1 2.381 . S
O30 C19 1.275 . S
O31 Ho0 2.305 . S
O31 Ho1 2.669 . S
O31 C19 1.256 . S
H32 C5 0.930 . S
H33 C6 0.931 . S
H34 C8 0.934 . S
H35 C9 0.930 . S
H36 C14 0.930 . S
H37 C15 0.931 . S
H38 C17 0.934 . S
H39 C18 0.930 . S
Ho40 C43 2.811 . S
Ho40 O60 2.322 . S
Ho40 O62 2.378 . S
Ho40 O63 2.524 . S
Ho40 O64 2.381 . S
Ho40 O65 2.669 . S
Ho40 O67 2.346 . S
Ho40 O71 2.305 . S
Ho41 C52 2.811 . S
Ho41 O61 2.346 . S
Ho41 O65 2.305 . S
Ho41 O66 2.322 . S
Ho41 O68 2.378 . S
Ho41 O69 2.524 . S
Ho41 O70 2.381 . S
Ho41 O71 2.669 . S
C42 O60 1.259 . S
C42 O61 1.268 . S
C43 Ho40 2.811 . S
C43 C44 1.488 . S
C43 O62 1.215 . S
C43 O63 1.289 . S
C44 C43 1.488 . S
C44 C45 1.348 . S
C44 C49 1.413 . S
C45 C44 1.348 . S
C45 C46 1.442 . S
C45 H72 0.930 . S
C46 C45 1.442 . S
C46 C47 1.381 . S
C46 H73 0.931 . S
C47 C46 1.381 . S
C47 C48 1.321 . S
C48 C47 1.321 . S
C48 C49 1.403 . S
C48 H74 0.934 . S
C49 C44 1.413 . S
C49 C48 1.403 . S
C49 H75 0.930 . S
C50 O64 1.275 . S
C50 O65 1.256 . S
C51 O66 1.259 . S
C51 O67 1.268 . S
C52 Ho41 2.811 . S
C52 C53 1.488 . S
C52 O68 1.215 . S
C52 O69 1.289 . S
C53 C52 1.488 . S
C53 C54 1.348 . S
C53 C58 1.413 . S
C54 C53 1.348 . S
C54 C55 1.442 . S
C54 H76 0.930 . S
C55 C54 1.442 . S
C55 C56 1.381 1_554 S
C55 H77 0.931 . S
C56 C55 1.381 1_556 S
C56 C57 1.321 1_556 S
C57 C56 1.321 1_554 S
C57 C58 1.403 . S
C57 H78 0.934 . S
C58 C53 1.413 . S
C58 C57 1.403 . S
C58 H79 0.930 . S
C59 O70 1.275 . S
C59 O71 1.256 . S
O60 Ho40 2.322 . S
O60 C42 1.259 . S
O61 Ho41 2.346 . S
O61 C42 1.268 . S
O62 Ho40 2.378 . S
O62 C43 1.215 . S
O63 Ho40 2.524 . S
O63 C43 1.289 . S
O64 Ho40 2.381 . S
O64 C50 1.275 . S
O65 Ho40 2.669 . S
O65 Ho41 2.305 . S
O65 C50 1.256 . S
O66 Ho41 2.322 . S
O66 C51 1.259 . S
O67 Ho40 2.346 . S
O67 C51 1.268 . S
O68 Ho41 2.378 . S
O68 C52 1.215 . S
O69 Ho41 2.524 . S
O69 C52 1.289 . S
O70 Ho41 2.381 . S
O70 C59 1.275 . S
O71 Ho40 2.305 . S
O71 Ho41 2.669 . S
O71 C59 1.256 . S
H72 C45 0.930 . S
H73 C46 0.931 . S
H74 C48 0.934 . S
H75 C49 0.930 . S
H76 C54 0.930 . S
H77 C55 0.931 . S
H78 C57 0.934 . S
H79 C58 0.930 . S
Ho80 C83 2.811 . S
Ho80 O100 2.322 . S
Ho80 O102 2.378 . S
Ho80 O103 2.524 . S
Ho80 O104 2.381 . S
Ho80 O105 2.669 . S
Ho80 O107 2.346 . S
Ho80 O111 2.305 . S
Ho81 C92 2.811 . S
Ho81 O101 2.346 . S
Ho81 O105 2.305 . S
Ho81 O106 2.322 . S
Ho81 O108 2.378 . S
Ho81 O109 2.524 . S
Ho81 O110 2.381 . S
Ho81 O111 2.669 . S
C82 O100 1.259 . S
C82 O101 1.268 . S
C83 Ho80 2.811 . S
C83 C84 1.488 . S
C83 O102 1.215 . S
C83 O103 1.289 . S
C84 C83 1.488 . S
C84 C85 1.348 . S
C84 C89 1.413 . S
C85 C84 1.348 . S
C85 C86 1.442 . S
C85 H112 0.930 . S
C86 C85 1.442 . S
C86 C87 1.381 . S
C86 H113 0.931 . S
C87 C86 1.381 . S
C87 C88 1.321 . S
C88 C87 1.321 . S
C88 C89 1.403 . S
C88 H114 0.934 . S
C89 C84 1.413 . S
C89 C88 1.403 . S
C89 H115 0.930 . S
C90 O104 1.275 . S
C90 O105 1.256 . S
C91 O106 1.259 . S
C91 O107 1.268 . S
C92 Ho81 2.811 . S
C92 C93 1.488 . S
C92 O108 1.215 . S
C92 O109 1.289 . S
C93 C92 1.488 . S
C93 C94 1.348 . S
C93 C98 1.413 . S
C94 C93 1.348 . S
C94 C95 1.442 . S
C94 H116 0.930 . S
C95 C94 1.442 . S
C95 C96 1.381 1_556 S
C95 H117 0.931 . S
C96 C95 1.381 1_554 S
C96 C97 1.321 1_554 S
C97 C96 1.321 1_556 S
C97 C98 1.403 . S
C97 H118 0.934 1_556 S
C98 C93 1.413 . S
C98 C97 1.403 . S
C98 H119 0.930 . S
C99 O110 1.275 . S
C99 O111 1.256 . S
O100 Ho80 2.322 . S
O100 C82 1.259 . S
O101 Ho81 2.346 . S
O101 C82 1.268 . S
O102 Ho80 2.378 . S
O102 C83 1.215 . S
O103 Ho80 2.524 . S
O103 C83 1.289 . S
O104 Ho80 2.381 . S
O104 C90 1.275 . S
O105 Ho80 2.669 . S
O105 Ho81 2.305 . S
O105 C90 1.256 . S
O106 Ho81 2.322 . S
O106 C91 1.259 . S
O107 Ho80 2.346 . S
O107 C91 1.268 . S
O108 Ho81 2.378 . S
O108 C92 1.215 . S
O109 Ho81 2.524 . S
O109 C92 1.289 . S
O110 Ho81 2.381 . S
O110 C99 1.275 . S
O111 Ho80 2.305 . S
O111 Ho81 2.669 . S
O111 C99 1.256 . S
H112 C85 0.930 . S
H113 C86 0.931 . S
H114 C88 0.934 . S
H115 C89 0.930 . S
H116 C94 0.930 . S
H117 C95 0.931 . S
H118 C97 0.934 1_554 S
H119 C98 0.930 . S
Ho120 C123 2.811 . S
Ho120 O140 2.322 . S
Ho120 O142 2.378 . S
Ho120 O143 2.524 . S
Ho120 O144 2.381 . S
Ho120 O145 2.669 . S
Ho120 O147 2.346 . S
Ho120 O151 2.305 . S
Ho121 C132 2.811 1_556 S
Ho121 O141 2.346 . S
Ho121 O145 2.305 . S
Ho121 O146 2.322 . S
Ho121 O148 2.378 1_556 S
Ho121 O149 2.524 1_556 S
Ho121 O150 2.381 . S
Ho121 O151 2.669 . S
C122 O140 1.259 . S
C122 O141 1.268 . S
C123 Ho120 2.811 . S
C123 C124 1.488 . S
C123 O142 1.215 . S
C123 O143 1.289 . S
C124 C123 1.488 . S
C124 C125 1.348 . S
C124 C129 1.413 . S
C125 C124 1.348 . S
C125 C126 1.442 . S
C125 H152 0.930 . S
C126 C125 1.442 . S
C126 C127 1.381 . S
C126 H153 0.931 . S
C127 C126 1.381 . S
C127 C128 1.321 . S
C128 C127 1.321 . S
C128 C129 1.403 . S
C128 H154 0.934 . S
C129 C124 1.413 . S
C129 C128 1.403 . S
C129 H155 0.930 . S
C130 O144 1.275 . S
C130 O145 1.256 . S
C131 O146 1.259 . S
C131 O147 1.268 . S
C132 Ho121 2.811 1_554 S
C132 C133 1.488 . S
C132 O148 1.215 . S
C132 O149 1.289 . S
C133 C132 1.488 . S
C133 C134 1.348 . S
C133 C138 1.413 . S
C134 C133 1.348 . S
C134 C135 1.442 . S
C134 H156 0.930 . S
C135 C134 1.442 . S
C135 C136 1.381 . S
C135 H157 0.931 . S
C136 C135 1.381 . S
C136 C137 1.321 . S
C137 C136 1.321 . S
C137 C138 1.403 . S
C137 H158 0.934 . S
C138 C133 1.413 . S
C138 C137 1.403 . S
C138 H159 0.930 . S
C139 O150 1.275 . S
C139 O151 1.256 . S
O140 Ho120 2.322 . S
O140 C122 1.259 . S
O141 Ho121 2.346 . S
O141 C122 1.268 . S
O142 Ho120 2.378 . S
O142 C123 1.215 . S
O143 Ho120 2.524 . S
O143 C123 1.289 . S
O144 Ho120 2.381 . S
O144 C130 1.275 . S
O145 Ho120 2.669 . S
O145 Ho121 2.305 . S
O145 C130 1.256 . S
O146 Ho121 2.322 . S
O146 C131 1.259 . S
O147 Ho120 2.346 . S
O147 C131 1.268 . S
O148 Ho121 2.378 1_554 S
O148 C132 1.215 . S
O149 Ho121 2.524 1_554 S
O149 C132 1.289 . S
O150 Ho121 2.381 . S
O150 C139 1.275 . S
O151 Ho120 2.305 . S
O151 Ho121 2.669 . S
O151 C139 1.256 . S
H152 C125 0.930 . S
H153 C126 0.931 . S
H154 C128 0.934 . S
H155 C129 0.930 . S
H156 C134 0.930 . S
H157 C135 0.931 . S
H158 C137 0.934 . S
H159 C138 0.930 . S
Ho160 C163 2.811 1_556 S
Ho160 O180 2.322 . S
Ho160 O182 2.378 1_556 S
Ho160 O183 2.524 1_556 S
Ho160 O184 2.381 . S
Ho160 O185 2.669 . S
Ho160 O187 2.346 . S
Ho160 O191 2.305 . S
Ho161 C172 2.811 . S
Ho161 O181 2.346 . S
Ho161 O185 2.305 . S
Ho161 O186 2.322 . S
Ho161 O188 2.378 . S
Ho161 O189 2.524 . S
Ho161 O190 2.381 . S
Ho161 O191 2.669 . S
C162 O180 1.259 . S
C162 O181 1.268 . S
C163 Ho160 2.811 1_554 S
C163 C164 1.488 . S
C163 O182 1.215 . S
C163 O183 1.289 . S
C164 C163 1.488 . S
C164 C165 1.348 . S
C164 C169 1.413 . S
C165 C164 1.348 . S
C165 C166 1.442 . S
C165 H192 0.930 . S
C166 C165 1.442 . S
C166 C167 1.381 . S
C166 H193 0.931 . S
C167 C166 1.381 . S
C167 C168 1.321 . S
C168 C167 1.321 . S
C168 C169 1.403 . S
C168 H194 0.934 . S
C169 C164 1.413 . S
C169 C168 1.403 . S
C169 H195 0.930 . S
C170 O184 1.275 . S
C170 O185 1.256 . S
C171 O186 1.259 . S
C171 O187 1.268 . S
C172 Ho161 2.811 . S
C172 C173 1.488 . S
C172 O188 1.215 . S
C172 O189 1.289 . S
C173 C172 1.488 . S
C173 C174 1.348 . S
C173 C178 1.413 . S
C174 C173 1.348 . S
C174 C175 1.442 . S
C174 H196 0.930 . S
C175 C174 1.442 . S
C175 C176 1.381 . S
C175 H197 0.931 . S
C176 C175 1.381 . S
C176 C177 1.321 . S
C177 C176 1.321 . S
C177 C178 1.403 . S
C177 H198 0.934 . S
C178 C173 1.413 . S
C178 C177 1.403 . S
C178 H199 0.930 . S
C179 O190 1.275 . S
C179 O191 1.256 . S
O180 Ho160 2.322 . S
O180 C162 1.259 . S
O181 Ho161 2.346 . S
O181 C162 1.268 . S
O182 Ho160 2.378 1_554 S
O182 C163 1.215 . S
O183 Ho160 2.524 1_554 S
O183 C163 1.289 . S
O184 Ho160 2.381 . S
O184 C170 1.275 . S
O185 Ho160 2.669 . S
O185 Ho161 2.305 . S
O185 C170 1.256 . S
O186 Ho161 2.322 . S
O186 C171 1.259 . S
O187 Ho160 2.346 . S
O187 C171 1.268 . S
O188 Ho161 2.378 . S
O188 C172 1.215 . S
O189 Ho161 2.524 . S
O189 C172 1.289 . S
O190 Ho161 2.381 . S
O190 C179 1.275 . S
O191 Ho160 2.305 . S
O191 Ho161 2.669 . S
O191 C179 1.256 . S
H192 C165 0.930 . S
H193 C166 0.931 . S
H194 C168 0.934 . S
H195 C169 0.930 . S
H196 C174 0.930 . S
H197 C175 0.931 . S
H198 C177 0.934 . S
H199 C178 0.930 . S
Ho200 C203 2.811 . S
Ho200 O220 2.322 . S
Ho200 O222 2.378 . S
Ho200 O223 2.524 . S
Ho200 O224 2.381 . S
Ho200 O225 2.669 . S
Ho200 O227 2.346 . S
Ho200 O231 2.305 . S
Ho201 C212 2.811 1_554 S
Ho201 O221 2.346 . S
Ho201 O225 2.305 . S
Ho201 O226 2.322 . S
Ho201 O228 2.378 1_554 S
Ho201 O229 2.524 1_554 S
Ho201 O230 2.381 . S
Ho201 O231 2.669 . S
C202 O220 1.259 . S
C202 O221 1.268 . S
C203 Ho200 2.811 . S
C203 C204 1.488 . S
C203 O222 1.215 . S
C203 O223 1.289 . S
C204 C203 1.488 . S
C204 C205 1.348 . S
C204 C209 1.413 . S
C205 C204 1.348 . S
C205 C206 1.442 . S
C205 H232 0.930 . S
C206 C205 1.442 . S
C206 C207 1.381 . S
C206 H233 0.931 . S
C207 C206 1.381 . S
C207 C208 1.321 . S
C208 C207 1.321 . S
C208 C209 1.403 . S
C208 H234 0.934 . S
C209 C204 1.413 . S
C209 C208 1.403 . S
C209 H235 0.930 . S
C210 O224 1.275 . S
C210 O225 1.256 . S
C211 O226 1.259 . S
C211 O227 1.268 . S
C212 Ho201 2.811 1_556 S
C212 C213 1.488 . S
C212 O228 1.215 . S
C212 O229 1.289 . S
C213 C212 1.488 . S
C213 C214 1.348 . S
C213 C218 1.413 . S
C214 C213 1.348 . S
C214 C215 1.442 . S
C214 H236 0.930 . S
C215 C214 1.442 . S
C215 C216 1.381 . S
C215 H237 0.931 . S
C216 C215 1.381 . S
C216 C217 1.321 . S
C217 C216 1.321 . S
C217 C218 1.403 . S
C217 H238 0.934 . S
C218 C213 1.413 . S
C218 C217 1.403 . S
C218 H239 0.930 . S
C219 O230 1.275 . S
C219 O231 1.256 . S
O220 Ho200 2.322 . S
O220 C202 1.259 . S
O221 Ho201 2.346 . S
O221 C202 1.268 . S
O222 Ho200 2.378 . S
O222 C203 1.215 . S
O223 Ho200 2.524 . S
O223 C203 1.289 . S
O224 Ho200 2.381 . S
O224 C210 1.275 . S
O225 Ho200 2.669 . S
O225 Ho201 2.305 . S
O225 C210 1.256 . S
O226 Ho201 2.322 . S
O226 C211 1.259 . S
O227 Ho200 2.346 . S
O227 C211 1.268 . S
O228 Ho201 2.378 1_556 S
O228 C212 1.215 . S
O229 Ho201 2.524 1_556 S
O229 C212 1.289 . S
O230 Ho201 2.381 . S
O230 C219 1.275 . S
O231 Ho200 2.305 . S
O231 Ho201 2.669 . S
O231 C219 1.256 . S
H232 C205 0.930 . S
H233 C206 0.931 . S
H234 C208 0.934 . S
H235 C209 0.930 . S
H236 C214 0.930 . S
H237 C215 0.931 . S
H238 C217 0.934 . S
H239 C218 0.930 . S
Ho240 C243 2.811 . S
Ho240 O260 2.322 . S
Ho240 O262 2.378 . S
Ho240 O263 2.524 . S
Ho240 O264 2.381 . S
Ho240 O265 2.669 . S
Ho240 O267 2.346 . S
Ho240 O271 2.305 . S
Ho241 C252 2.811 . S
Ho241 O261 2.346 . S
Ho241 O265 2.305 . S
Ho241 O266 2.322 . S
Ho241 O268 2.378 . S
Ho241 O269 2.524 . S
Ho241 O270 2.381 . S
Ho241 O271 2.669 . S
C242 O260 1.259 . S
C242 O261 1.268 . S
C243 Ho240 2.811 . S
C243 C244 1.488 . S
C243 O262 1.215 . S
C243 O263 1.289 . S
C244 C243 1.488 . S
C244 C245 1.348 . S
C244 C249 1.413 . S
C245 C244 1.348 . S
C245 C246 1.442 . S
C245 H272 0.930 . S
C246 C245 1.442 . S
C246 C247 1.381 . S
C246 H273 0.931 . S
C247 C246 1.381 . S
C247 C248 1.321 . S
C248 C247 1.321 . S
C248 C249 1.403 . S
C248 H274 0.934 . S
C249 C244 1.413 . S
C249 C248 1.403 . S
C249 H275 0.930 . S
C250 O264 1.275 . S
C250 O265 1.256 . S
C251 O266 1.259 . S
C251 O267 1.268 . S
C252 Ho241 2.811 . S
C252 C253 1.488 . S
C252 O268 1.215 . S
C252 O269 1.289 . S
C253 C252 1.488 . S
C253 C254 1.348 . S
C253 C258 1.413 . S
C254 C253 1.348 . S
C254 C255 1.442 . S
C254 H276 0.930 . S
C255 C254 1.442 . S
C255 C256 1.381 . S
C255 H277 0.931 . S
C256 C255 1.381 . S
C256 C257 1.321 . S
C257 C256 1.321 . S
C257 C258 1.403 . S
C257 H278 0.934 . S
C258 C253 1.413 . S
C258 C257 1.403 . S
C258 H279 0.930 . S
C259 O270 1.275 . S
C259 O271 1.256 . S
O260 Ho240 2.322 . S
O260 C242 1.259 . S
O261 Ho241 2.346 . S
O261 C242 1.268 . S
O262 Ho240 2.378 . S
O262 C243 1.215 . S
O263 Ho240 2.524 . S
O263 C243 1.289 . S
O264 Ho240 2.381 . S
O264 C250 1.275 . S
O265 Ho240 2.669 . S
O265 Ho241 2.305 . S
O265 C250 1.256 . S
O266 Ho241 2.322 . S
O266 C251 1.259 . S
O267 Ho240 2.346 . S
O267 C251 1.268 . S
O268 Ho241 2.378 . S
O268 C252 1.215 . S
O269 Ho241 2.524 . S
O269 C252 1.289 . S
O270 Ho241 2.381 . S
O270 C259 1.275 . S
O271 Ho240 2.305 . S
O271 Ho241 2.669 . S
O271 C259 1.256 . S
H272 C245 0.930 . S
H273 C246 0.931 . S
H274 C248 0.934 . S
H275 C249 0.930 . S
H276 C254 0.930 . S
H277 C255 0.931 . S
H278 C257 0.934 . S
H279 C258 0.930 . S
Ho280 C283 2.811 . S
Ho280 O300 2.322 . S
Ho280 O302 2.378 . S
Ho280 O303 2.524 . S
Ho280 O304 2.381 . S
Ho280 O305 2.669 . S
Ho280 O307 2.346 . S
Ho280 O311 2.305 . S
Ho281 C292 2.811 . S
Ho281 O301 2.346 . S
Ho281 O305 2.305 . S
Ho281 O306 2.322 . S
Ho281 O308 2.378 . S
Ho281 O309 2.524 . S
Ho281 O310 2.381 . S
Ho281 O311 2.669 . S
C282 O300 1.259 . S
C282 O301 1.268 . S
C283 Ho280 2.811 . S
C283 C284 1.488 . S
C283 O302 1.215 . S
C283 O303 1.289 . S
C284 C283 1.488 . S
C284 C285 1.348 . S
C284 C289 1.413 . S
C285 C284 1.348 . S
C285 C286 1.442 . S
C285 H312 0.930 . S
C286 C285 1.442 . S
C286 C287 1.381 . S
C286 H313 0.931 . S
C287 C286 1.381 . S
C287 C288 1.321 . S
C288 C287 1.321 . S
C288 C289 1.403 . S
C288 H314 0.934 . S
C289 C284 1.413 . S
C289 C288 1.403 . S
C289 H315 0.930 . S
C290 O304 1.275 . S
C290 O305 1.256 . S
C291 O306 1.259 . S
C291 O307 1.268 . S
C292 Ho281 2.811 . S
C292 C293 1.488 . S
C292 O308 1.215 . S
C292 O309 1.289 . S
C293 C292 1.488 . S
C293 C294 1.348 . S
C293 C298 1.413 . S
C294 C293 1.348 . S
C294 C295 1.442 . S
C294 H316 0.930 . S
C295 C294 1.442 . S
C295 C296 1.381 . S
C295 H317 0.931 . S
C296 C295 1.381 . S
C296 C297 1.321 . S
C297 C296 1.321 . S
C297 C298 1.403 . S
C297 H318 0.934 . S
C298 C293 1.413 . S
C298 C297 1.403 . S
C298 H319 0.930 . S
C299 O310 1.275 . S
C299 O311 1.256 . S
O300 Ho280 2.322 . S
O300 C282 1.259 . S
O301 Ho281 2.346 . S
O301 C282 1.268 . S
O302 Ho280 2.378 . S
O302 C283 1.215 . S
O303 Ho280 2.524 . S
O303 C283 1.289 . S
O304 Ho280 2.381 . S
O304 C290 1.275 . S
O305 Ho280 2.669 . S
O305 Ho281 2.305 . S
O305 C290 1.256 . S
O306 Ho281 2.322 . S
O306 C291 1.259 . S
O307 Ho280 2.346 . S
O307 C291 1.268 . S
O308 Ho281 2.378 . S
O308 C292 1.215 . S
O309 Ho281 2.524 . S
O309 C292 1.289 . S
O310 Ho281 2.381 . S
O310 C299 1.275 . S
O311 Ho280 2.305 . S
O311 Ho281 2.669 . S
O311 C299 1.256 . S
H312 C285 0.930 . S
H313 C286 0.931 . S
H314 C288 0.934 . S
H315 C289 0.930 . S
H316 C294 0.930 . S
H317 C295 0.931 . S
H318 C297 0.934 . S
H319 C298 0.930 . S
Ho320 C323 2.811 . S
Ho320 O340 2.322 . S
Ho320 O342 2.378 . S
Ho320 O343 2.524 . S
Ho320 O344 2.381 . S
Ho320 O345 2.669 . S
Ho320 O347 2.346 . S
Ho320 O351 2.305 . S
Ho321 C332 2.811 1_556 S
Ho321 O341 2.346 . S
Ho321 O345 2.305 . S
Ho321 O346 2.322 . S
Ho321 O348 2.378 1_556 S
Ho321 O349 2.524 1_556 S
Ho321 O350 2.381 . S
Ho321 O351 2.669 . S
C322 O340 1.259 . S
C322 O341 1.268 . S
C323 Ho320 2.811 . S
C323 C324 1.488 . S
C323 O342 1.215 . S
C323 O343 1.289 . S
C324 C323 1.488 . S
C324 C325 1.348 . S
C324 C329 1.413 . S
C325 C324 1.348 . S
C325 C326 1.442 . S
C325 H352 0.930 . S
C326 C325 1.442 . S
C326 C327 1.381 . S
C326 H353 0.931 . S
C327 C326 1.381 . S
C327 C328 1.321 . S
C328 C327 1.321 . S
C328 C329 1.403 . S
C328 H354 0.934 . S
C329 C324 1.413 . S
C329 C328 1.403 . S
C329 H355 0.930 . S
C330 O344 1.275 . S
C330 O345 1.256 . S
C331 O346 1.259 . S
C331 O347 1.268 . S
C332 Ho321 2.811 1_554 S
C332 C333 1.488 . S
C332 O348 1.215 . S
C332 O349 1.289 . S
C333 C332 1.488 . S
C333 C334 1.348 . S
C333 C338 1.413 . S
C334 C333 1.348 . S
C334 C335 1.442 . S
C334 H356 0.930 . S
C335 C334 1.442 . S
C335 C336 1.381 . S
C335 H357 0.931 . S
C336 C335 1.381 . S
C336 C337 1.321 . S
C337 C336 1.321 . S
C337 C338 1.403 . S
C337 H358 0.934 . S
C338 C333 1.413 . S
C338 C337 1.403 . S
C338 H359 0.930 . S
C339 O350 1.275 . S
C339 O351 1.256 . S
O340 Ho320 2.322 . S
O340 C322 1.259 . S
O341 Ho321 2.346 . S
O341 C322 1.268 . S
O342 Ho320 2.378 . S
O342 C323 1.215 . S
O343 Ho320 2.524 . S
O343 C323 1.289 . S
O344 Ho320 2.381 . S
O344 C330 1.275 . S
O345 Ho320 2.669 . S
O345 Ho321 2.305 . S
O345 C330 1.256 . S
O346 Ho321 2.322 . S
O346 C331 1.259 . S
O347 Ho320 2.346 . S
O347 C331 1.268 . S
O348 Ho321 2.378 1_554 S
O348 C332 1.215 . S
O349 Ho321 2.524 1_554 S
O349 C332 1.289 . S
O350 Ho321 2.381 . S
O350 C339 1.275 . S
O351 Ho320 2.305 . S
O351 Ho321 2.669 . S
O351 C339 1.256 . S
H352 C325 0.930 . S
H353 C326 0.931 . S
H354 C328 0.934 . S
H355 C329 0.930 . S
H356 C334 0.930 . S
H357 C335 0.931 . S
H358 C337 0.934 . S
H359 C338 0.930 . S
Ho360 C363 2.811 . S
Ho360 O380 2.322 . S
Ho360 O382 2.378 . S
Ho360 O383 2.524 . S
Ho360 O384 2.381 . S
Ho360 O385 2.669 . S
Ho360 O387 2.346 . S
Ho360 O391 2.305 . S
Ho361 C372 2.811 . S
Ho361 O381 2.346 . S
Ho361 O385 2.305 . S
Ho361 O386 2.322 . S
Ho361 O388 2.378 . S
Ho361 O389 2.524 . S
Ho361 O390 2.381 . S
Ho361 O391 2.669 . S
C362 O380 1.259 . S
C362 O381 1.268 . S
C363 Ho360 2.811 . S
C363 C364 1.488 . S
C363 O382 1.215 . S
C363 O383 1.289 . S
C364 C363 1.488 . S
C364 C365 1.348 . S
C364 C369 1.413 . S
C365 C364 1.348 . S
C365 C366 1.442 . S
C365 H392 0.930 . S
C366 C365 1.442 . S
C366 C367 1.381 . S
C366 H393 0.931 . S
C367 C366 1.381 . S
C367 C368 1.321 . S
C368 C367 1.321 . S
C368 C369 1.403 . S
C368 H394 0.934 . S
C369 C364 1.413 . S
C369 C368 1.403 . S
C369 H395 0.930 . S
C370 O384 1.275 . S
C370 O385 1.256 . S
C371 O386 1.259 . S
C371 O387 1.268 . S
C372 Ho361 2.811 . S
C372 C373 1.488 . S
C372 O388 1.215 . S
C372 O389 1.289 . S
C373 C372 1.488 . S
C373 C374 1.348 . S
C373 C378 1.413 . S
C374 C373 1.348 . S
C374 C375 1.442 . S
C374 H396 0.930 . S
C375 C374 1.442 . S
C375 C376 1.381 . S
C375 H397 0.931 . S
C376 C375 1.381 . S
C376 C377 1.321 . S
C377 C376 1.321 . S
C377 C378 1.403 . S
C377 H398 0.934 . S
C378 C373 1.413 . S
C378 C377 1.403 . S
C378 H399 0.930 . S
C379 O390 1.275 . S
C379 O391 1.256 . S
O380 Ho360 2.322 . S
O380 C362 1.259 . S
O381 Ho361 2.346 . S
O381 C362 1.268 . S
O382 Ho360 2.378 . S
O382 C363 1.215 . S
O383 Ho360 2.524 . S
O383 C363 1.289 . S
O384 Ho360 2.381 . S
O384 C370 1.275 . S
O385 Ho360 2.669 . S
O385 Ho361 2.305 . S
O385 C370 1.256 . S
O386 Ho361 2.322 . S
O386 C371 1.259 . S
O387 Ho360 2.346 . S
O387 C371 1.268 . S
O388 Ho361 2.378 . S
O388 C372 1.215 . S
O389 Ho361 2.524 . S
O389 C372 1.289 . S
O390 Ho361 2.381 . S
O390 C379 1.275 . S
O391 Ho360 2.305 . S
O391 Ho361 2.669 . S
O391 C379 1.256 . S
H392 C365 0.930 . S
H393 C366 0.931 . S
H394 C368 0.934 . S
H395 C369 0.930 . S
H396 C374 0.930 . S
H397 C375 0.931 . S
H398 C377 0.934 . S
H399 C378 0.930 . S
Ho400 C403 2.811 . S
Ho400 O420 2.322 . S
Ho400 O422 2.378 . S
Ho400 O423 2.524 . S
Ho400 O424 2.381 . S
Ho400 O425 2.669 . S
Ho400 O427 2.346 . S
Ho400 O431 2.305 . S
Ho401 C412 2.811 . S
Ho401 O421 2.346 . S
Ho401 O425 2.305 . S
Ho401 O426 2.322 . S
Ho401 O428 2.378 . S
Ho401 O429 2.524 . S
Ho401 O430 2.381 . S
Ho401 O431 2.669 . S
C402 O420 1.259 . S
C402 O421 1.268 . S
C403 Ho400 2.811 . S
C403 C404 1.488 . S
C403 O422 1.215 . S
C403 O423 1.289 . S
C404 C403 1.488 . S
C404 C405 1.348 . S
C404 C409 1.413 . S
C405 C404 1.348 . S
C405 C406 1.442 . S
C405 H432 0.930 . S
C406 C405 1.442 . S
C406 C407 1.381 . S
C406 H433 0.931 . S
C407 C406 1.381 . S
C407 C408 1.321 . S
C408 C407 1.321 . S
C408 C409 1.403 . S
C408 H434 0.934 . S
C409 C404 1.413 . S
C409 C408 1.403 . S
C409 H435 0.930 . S
C410 O424 1.275 . S
C410 O425 1.256 . S
C411 O426 1.259 . S
C411 O427 1.268 . S
C412 Ho401 2.811 . S
C412 C413 1.488 . S
C412 O428 1.215 . S
C412 O429 1.289 . S
C413 C412 1.488 . S
C413 C414 1.348 . S
C413 C418 1.413 . S
C414 C413 1.348 . S
C414 C415 1.442 . S
C414 H436 0.930 . S
C415 C414 1.442 . S
C415 C416 1.381 . S
C415 H437 0.931 . S
C416 C415 1.381 . S
C416 C417 1.321 . S
C417 C416 1.321 . S
C417 C418 1.403 . S
C417 H438 0.934 1_554 S
C418 C413 1.413 . S
C418 C417 1.403 . S
C418 H439 0.930 . S
C419 O430 1.275 . S
C419 O431 1.256 . S
O420 Ho400 2.322 . S
O420 C402 1.259 . S
O421 Ho401 2.346 . S
O421 C402 1.268 . S
O422 Ho400 2.378 . S
O422 C403 1.215 . S
O423 Ho400 2.524 . S
O423 C403 1.289 . S
O424 Ho400 2.381 . S
O424 C410 1.275 . S
O425 Ho400 2.669 . S
O425 Ho401 2.305 . S
O425 C410 1.256 . S
O426 Ho401 2.322 . S
O426 C411 1.259 . S
O427 Ho400 2.346 . S
O427 C411 1.268 . S
O428 Ho401 2.378 . S
O428 C412 1.215 . S
O429 Ho401 2.524 . S
O429 C412 1.289 . S
O430 Ho401 2.381 . S
O430 C419 1.275 . S
O431 Ho400 2.305 . S
O431 Ho401 2.669 . S
O431 C419 1.256 . S
H432 C405 0.930 . S
H433 C406 0.931 . S
H434 C408 0.934 . S
H435 C409 0.930 . S
H436 C414 0.930 . S
H437 C415 0.931 . S
H438 C417 0.934 1_556 S
H439 C418 0.930 . S
Ho440 C443 2.811 1_554 S
Ho440 O460 2.322 . S
Ho440 O462 2.378 1_554 S
Ho440 O463 2.524 1_554 S
Ho440 O464 2.381 . S
Ho440 O465 2.669 . S
Ho440 O467 2.346 . S
Ho440 O471 2.305 . S
Ho441 C452 2.811 . S
Ho441 O461 2.346 . S
Ho441 O465 2.305 . S
Ho441 O466 2.322 . S
Ho441 O468 2.378 . S
Ho441 O469 2.524 . S
Ho441 O470 2.381 . S
Ho441 O471 2.669 . S
C442 O460 1.259 . S
C442 O461 1.268 . S
C443 Ho440 2.811 1_556 S
C443 C444 1.488 . S
C443 O462 1.215 . S
C443 O463 1.289 . S
C444 C443 1.488 . S
C444 C445 1.348 . S
C444 C449 1.413 . S
C445 C444 1.348 . S
C445 C446 1.442 . S
C445 H472 0.930 . S
C446 C445 1.442 . S
C446 C447 1.381 . S
C446 H473 0.931 . S
C447 C446 1.381 . S
C447 C448 1.321 . S
C448 C447 1.321 . S
C448 C449 1.403 . S
C448 H474 0.934 . S
C449 C444 1.413 . S
C449 C448 1.403 . S
C449 H475 0.930 . S
C450 O464 1.275 . S
C450 O465 1.256 . S
C451 O466 1.259 . S
C451 O467 1.268 . S
C452 Ho441 2.811 . S
C452 C453 1.488 . S
C452 O468 1.215 . S
C452 O469 1.289 . S
C453 C452 1.488 . S
C453 C454 1.348 . S
C453 C458 1.413 . S
C454 C453 1.348 . S
C454 C455 1.442 . S
C454 H476 0.930 . S
C455 C454 1.442 . S
C455 C456 1.381 . S
C455 H477 0.931 . S
C456 C455 1.381 . S
C456 C457 1.321 . S
C457 C456 1.321 . S
C457 C458 1.403 . S
C457 H478 0.934 . S
C458 C453 1.413 . S
C458 C457 1.403 . S
C458 H479 0.930 . S
C459 O470 1.275 . S
C459 O471 1.256 . S
O460 Ho440 2.322 . S
O460 C442 1.259 . S
O461 Ho441 2.346 . S
O461 C442 1.268 . S
O462 Ho440 2.378 1_556 S
O462 C443 1.215 . S
O463 Ho440 2.524 1_556 S
O463 C443 1.289 . S
O464 Ho440 2.381 . S
O464 C450 1.275 . S
O465 Ho440 2.669 . S
O465 Ho441 2.305 . S
O465 C450 1.256 . S
O466 Ho441 2.322 . S
O466 C451 1.259 . S
O467 Ho440 2.346 . S
O467 C451 1.268 . S
O468 Ho441 2.378 . S
O468 C452 1.215 . S
O469 Ho441 2.524 . S
O469 C452 1.289 . S
O470 Ho441 2.381 . S
O470 C459 1.275 . S
O471 Ho440 2.305 . S
O471 Ho441 2.669 . S
O471 C459 1.256 . S
H472 C445 0.930 . S
H473 C446 0.931 . S
H474 C448 0.934 . S
H475 C449 0.930 . S
H476 C454 0.930 . S
H477 C455 0.931 . S
H478 C457 0.934 . S
H479 C458 0.930 . S
Ho480 C483 2.811 . S
Ho480 O500 2.322 . S
Ho480 O502 2.378 . S
Ho480 O503 2.524 . S
Ho480 O504 2.381 . S
Ho480 O505 2.669 . S
Ho480 O507 2.346 . S
Ho480 O511 2.305 . S
Ho481 C492 2.811 1_554 S
Ho481 O501 2.346 . S
Ho481 O505 2.305 . S
Ho481 O506 2.322 . S
Ho481 O508 2.378 1_554 S
Ho481 O509 2.524 1_554 S
Ho481 O510 2.381 . S
Ho481 O511 2.669 . S
C482 O500 1.259 . S
C482 O501 1.268 . S
C483 Ho480 2.811 . S
C483 C484 1.488 . S
C483 O502 1.215 . S
C483 O503 1.289 . S
C484 C483 1.488 . S
C484 C485 1.348 . S
C484 C489 1.413 . S
C485 C484 1.348 . S
C485 C486 1.442 . S
C485 H512 0.930 . S
C486 C485 1.442 . S
C486 C487 1.381 . S
C486 H513 0.931 . S
C487 C486 1.381 . S
C487 C488 1.321 . S
C488 C487 1.321 . S
C488 C489 1.403 . S
C488 H514 0.934 . S
C489 C484 1.413 . S
C489 C488 1.403 . S
C489 H515 0.930 . S
C490 O504 1.275 . S
C490 O505 1.256 . S
C491 O506 1.259 . S
C491 O507 1.268 . S
C492 Ho481 2.811 1_556 S
C492 C493 1.488 . S
C492 O508 1.215 . S
C492 O509 1.289 . S
C493 C492 1.488 . S
C493 C494 1.348 . S
C493 C498 1.413 . S
C494 C493 1.348 . S
C494 C495 1.442 . S
C494 H516 0.930 . S
C495 C494 1.442 . S
C495 C496 1.381 . S
C495 H517 0.931 . S
C496 C495 1.381 . S
C496 C497 1.321 . S
C497 C496 1.321 . S
C497 C498 1.403 . S
C497 H518 0.934 . S
C498 C493 1.413 . S
C498 C497 1.403 . S
C498 H519 0.930 . S
C499 O510 1.275 . S
C499 O511 1.256 . S
O500 Ho480 2.322 . S
O500 C482 1.259 . S
O501 Ho481 2.346 . S
O501 C482 1.268 . S
O502 Ho480 2.378 . S
O502 C483 1.215 . S
O503 Ho480 2.524 . S
O503 C483 1.289 . S
O504 Ho480 2.381 . S
O504 C490 1.275 . S
O505 Ho480 2.669 . S
O505 Ho481 2.305 . S
O505 C490 1.256 . S
O506 Ho481 2.322 . S
O506 C491 1.259 . S
O507 Ho480 2.346 . S
O507 C491 1.268 . S
O508 Ho481 2.378 1_556 S
O508 C492 1.215 . S
O509 Ho481 2.524 1_556 S
O509 C492 1.289 . S
O510 Ho481 2.381 . S
O510 C499 1.275 . S
O511 Ho480 2.305 . S
O511 Ho481 2.669 . S
O511 C499 1.256 . S
H512 C485 0.930 . S
H513 C486 0.931 . S
H514 C488 0.934 . S
H515 C489 0.930 . S
H516 C494 0.930 . S
H517 C495 0.931 . S
H518 C497 0.934 . S
H519 C498 0.930 . S
Ho520 C523 2.811 1_556 S
Ho520 O540 2.322 . S
Ho520 O542 2.378 1_556 S
Ho520 O543 2.524 1_556 S
Ho520 O544 2.381 . S
Ho520 O545 2.669 . S
Ho520 O547 2.346 . S
Ho520 O551 2.305 . S
Ho521 C532 2.811 . S
Ho521 O541 2.346 . S
Ho521 O545 2.305 . S
Ho521 O546 2.322 . S
Ho521 O548 2.378 . S
Ho521 O549 2.524 . S
Ho521 O550 2.381 . S
Ho521 O551 2.669 . S
C522 O540 1.259 . S
C522 O541 1.268 . S
C523 Ho520 2.811 1_554 S
C523 C524 1.488 . S
C523 O542 1.215 . S
C523 O543 1.289 . S
C524 C523 1.488 . S
C524 C525 1.348 . S
C524 C529 1.413 . S
C525 C524 1.348 . S
C525 C526 1.442 . S
C525 H552 0.930 . S
C526 C525 1.442 . S
C526 C527 1.381 . S
C526 H553 0.931 . S
C527 C526 1.381 . S
C527 C528 1.321 . S
C528 C527 1.321 . S
C528 C529 1.403 . S
C528 H554 0.934 . S
C529 C524 1.413 . S
C529 C528 1.403 . S
C529 H555 0.930 . S
C530 O544 1.275 . S
C530 O545 1.256 . S
C531 O546 1.259 . S
C531 O547 1.268 . S
C532 Ho521 2.811 . S
C532 C533 1.488 . S
C532 O548 1.215 . S
C532 O549 1.289 . S
C533 C532 1.488 . S
C533 C534 1.348 . S
C533 C538 1.413 . S
C534 C533 1.348 . S
C534 C535 1.442 . S
C534 H556 0.930 . S
C535 C534 1.442 . S
C535 C536 1.381 . S
C535 H557 0.931 . S
C536 C535 1.381 . S
C536 C537 1.321 . S
C537 C536 1.321 . S
C537 C538 1.403 . S
C537 H558 0.934 . S
C538 C533 1.413 . S
C538 C537 1.403 . S
C538 H559 0.930 . S
C539 O550 1.275 . S
C539 O551 1.256 . S
O540 Ho520 2.322 . S
O540 C522 1.259 . S
O541 Ho521 2.346 . S
O541 C522 1.268 . S
O542 Ho520 2.378 1_554 S
O542 C523 1.215 . S
O543 Ho520 2.524 1_554 S
O543 C523 1.289 . S
O544 Ho520 2.381 . S
O544 C530 1.275 . S
O545 Ho520 2.669 . S
O545 Ho521 2.305 . S
O545 C530 1.256 . S
O546 Ho521 2.322 . S
O546 C531 1.259 . S
O547 Ho520 2.346 . S
O547 C531 1.268 . S
O548 Ho521 2.378 . S
O548 C532 1.215 . S
O549 Ho521 2.524 . S
O549 C532 1.289 . S
O550 Ho521 2.381 . S
O550 C539 1.275 . S
O551 Ho520 2.305 . S
O551 Ho521 2.669 . S
O551 C539 1.256 . S
H552 C525 0.930 . S
H553 C526 0.931 . S
H554 C528 0.934 . S
H555 C529 0.930 . S
H556 C534 0.930 . S
H557 C535 0.931 . S
H558 C537 0.934 . S
H559 C538 0.930 . S
Ho560 C563 2.811 . S
Ho560 O580 2.322 . S
Ho560 O582 2.378 . S
Ho560 O583 2.524 . S
Ho560 O584 2.381 . S
Ho560 O585 2.669 . S
Ho560 O587 2.346 . S
Ho560 O591 2.305 . S
Ho561 C572 2.811 . S
Ho561 O581 2.346 . S
Ho561 O585 2.305 . S
Ho561 O586 2.322 . S
Ho561 O588 2.378 . S
Ho561 O589 2.524 . S
Ho561 O590 2.381 . S
Ho561 O591 2.669 . S
C562 O580 1.259 . S
C562 O581 1.268 . S
C563 Ho560 2.811 . S
C563 C564 1.488 . S
C563 O582 1.215 . S
C563 O583 1.289 . S
C564 C563 1.488 . S
C564 C565 1.348 . S
C564 C569 1.413 . S
C565 C564 1.348 . S
C565 C566 1.442 . S
C565 H592 0.930 . S
C566 C565 1.442 . S
C566 C567 1.381 . S
C566 H593 0.931 . S
C567 C566 1.381 . S
C567 C568 1.321 . S
C568 C567 1.321 . S
C568 C569 1.403 . S
C568 H594 0.934 . S
C569 C564 1.413 . S
C569 C568 1.403 . S
C569 H595 0.930 . S
C570 O584 1.275 . S
C570 O585 1.256 . S
C571 O586 1.259 . S
C571 O587 1.268 . S
C572 Ho561 2.811 . S
C572 C573 1.488 . S
C572 O588 1.215 . S
C572 O589 1.289 . S
C573 C572 1.488 . S
C573 C574 1.348 . S
C573 C578 1.413 . S
C574 C573 1.348 . S
C574 C575 1.442 . S
C574 H596 0.930 . S
C575 C574 1.442 . S
C575 C576 1.381 . S
C575 H597 0.931 . S
C576 C575 1.381 . S
C576 C577 1.321 . S
C577 C576 1.321 . S
C577 C578 1.403 . S
C577 H598 0.934 . S
C578 C573 1.413 . S
C578 C577 1.403 . S
C578 H599 0.930 . S
C579 O590 1.275 . S
C579 O591 1.256 . S
O580 Ho560 2.322 . S
O580 C562 1.259 . S
O581 Ho561 2.346 . S
O581 C562 1.268 . S
O582 Ho560 2.378 . S
O582 C563 1.215 . S
O583 Ho560 2.524 . S
O583 C563 1.289 . S
O584 Ho560 2.381 . S
O584 C570 1.275 . S
O585 Ho560 2.669 . S
O585 Ho561 2.305 . S
O585 C570 1.256 . S
O586 Ho561 2.322 . S
O586 C571 1.259 . S
O587 Ho560 2.346 . S
O587 C571 1.268 . S
O588 Ho561 2.378 . S
O588 C572 1.215 . S
O589 Ho561 2.524 . S
O589 C572 1.289 . S
O590 Ho561 2.381 . S
O590 C579 1.275 . S
O591 Ho560 2.305 . S
O591 Ho561 2.669 . S
O591 C579 1.256 . S
H592 C565 0.930 . S
H593 C566 0.931 . S
H594 C568 0.934 . S
H595 C569 0.930 . S
H596 C574 0.930 . S
H597 C575 0.931 . S
H598 C577 0.934 . S
H599 C578 0.930 . S
Ho600 C603 2.811 . S
Ho600 O620 2.322 . S
Ho600 O622 2.378 . S
Ho600 O623 2.524 . S
Ho600 O624 2.381 . S
Ho600 O625 2.669 . S
Ho600 O627 2.346 . S
Ho600 O631 2.305 . S
Ho601 C612 2.811 . S
Ho601 O621 2.346 . S
Ho601 O625 2.305 . S
Ho601 O626 2.322 . S
Ho601 O628 2.378 . S
Ho601 O629 2.524 . S
Ho601 O630 2.381 . S
Ho601 O631 2.669 . S
C602 O620 1.259 . S
C602 O621 1.268 . S
C603 Ho600 2.811 . S
C603 C604 1.488 . S
C603 O622 1.215 . S
C603 O623 1.289 . S
C604 C603 1.488 . S
C604 C605 1.348 . S
C604 C609 1.413 . S
C605 C604 1.348 . S
C605 C606 1.442 . S
C605 H632 0.930 . S
C606 C605 1.442 . S
C606 C607 1.381 1_554 S
C606 H633 0.931 . S
C607 C606 1.381 1_556 S
C607 C608 1.321 1_556 S
C608 C607 1.321 1_554 S
C608 C609 1.403 . S
C608 H634 0.934 . S
C609 C604 1.413 . S
C609 C608 1.403 . S
C609 H635 0.930 . S
C610 O624 1.275 . S
C610 O625 1.256 . S
C611 O626 1.259 . S
C611 O627 1.268 . S
C612 Ho601 2.811 . S
C612 C613 1.488 . S
C612 O628 1.215 . S
C612 O629 1.289 . S
C613 C612 1.488 . S
C613 C614 1.348 . S
C613 C618 1.413 . S
C614 C613 1.348 . S
C614 C615 1.442 . S
C614 H636 0.930 . S
C615 C614 1.442 . S
C615 C616 1.381 . S
C615 H637 0.931 . S
C616 C615 1.381 . S
C616 C617 1.321 . S
C617 C616 1.321 . S
C617 C618 1.403 . S
C617 H638 0.934 . S
C618 C613 1.413 . S
C618 C617 1.403 . S
C618 H639 0.930 . S
C619 O630 1.275 . S
C619 O631 1.256 . S
O620 Ho600 2.322 . S
O620 C602 1.259 . S
O621 Ho601 2.346 . S
O621 C602 1.268 . S
O622 Ho600 2.378 . S
O622 C603 1.215 . S
O623 Ho600 2.524 . S
O623 C603 1.289 . S
O624 Ho600 2.381 . S
O624 C610 1.275 . S
O625 Ho600 2.669 . S
O625 Ho601 2.305 . S
O625 C610 1.256 . S
O626 Ho601 2.322 . S
O626 C611 1.259 . S
O627 Ho600 2.346 . S
O627 C611 1.268 . S
O628 Ho601 2.378 . S
O628 C612 1.215 . S
O629 Ho601 2.524 . S
O629 C612 1.289 . S
O630 Ho601 2.381 . S
O630 C619 1.275 . S
O631 Ho600 2.305 . S
O631 Ho601 2.669 . S
O631 C619 1.256 . S
H632 C605 0.930 . S
H633 C606 0.931 . S
H634 C608 0.934 . S
H635 C609 0.930 . S
H636 C614 0.930 . S
H637 C615 0.931 . S
H638 C617 0.934 . S
H639 C618 0.930 . S
C640 C641 1.363 . S
C640 C646 1.379 . S
C640 N648 1.356 . S
C641 C640 1.363 . S
C641 C647 1.363 . S
C642 C643 1.363 . S
C642 C647 1.379 . S
C642 N649 1.356 . S
C643 C642 1.363 . S
C643 C646 1.363 . S
N644 C646 1.356 . S
N644 H656 0.984 . S
N644 H657 0.985 . S
N645 C647 1.356 . S
N645 H650 0.984 . S
N645 H651 0.985 . S
C646 C640 1.379 . S
C646 C643 1.363 . S
C646 N644 1.356 . S
C647 C641 1.363 . S
C647 C642 1.379 . S
C647 N645 1.356 . S
N648 C640 1.356 . S
N648 H654 0.984 . S
N648 H655 0.984 . S
N649 C642 1.356 . S
N649 H652 0.984 . S
N649 H653 0.985 . S
H650 N645 0.984 . S
H651 N645 0.985 . S
H652 N649 0.984 . S
H653 N649 0.985 . S
H654 N648 0.984 . S
H655 N648 0.984 . S
H656 N644 0.984 . S
H657 N644 0.985 . S
C658 C659 1.363 . S
C658 C664 1.379 . S
C658 N666 1.356 . S
C659 C658 1.363 . S
C659 C665 1.363 . S
C660 C661 1.363 . S
C660 C665 1.379 . S
C660 N667 1.356 . S
C661 C660 1.363 . S
C661 C664 1.363 . S
N662 C664 1.356 . S
N662 H674 0.984 . S
N662 H675 0.985 . S
N663 C665 1.356 . S
N663 H668 0.984 1_556 S
N663 H669 0.985 . S
C664 C658 1.379 . S
C664 C661 1.363 . S
C664 N662 1.356 . S
C665 C659 1.363 . S
C665 C660 1.379 . S
C665 N663 1.356 . S
N666 C658 1.356 . S
N666 H672 0.984 . S
N666 H673 0.984 . S
N667 C660 1.356 . S
N667 H670 0.984 . S
N667 H671 0.985 . S
H668 N663 0.984 1_554 S
H669 N663 0.985 . S
H670 N667 0.984 . S
H671 N667 0.985 . S
H672 N666 0.984 . S
H673 N666 0.984 . S
H674 N662 0.984 . S
H675 N662 0.985 . S
C676 C677 1.363 . S
C676 C682 1.379 . S
C676 N684 1.356 . S
C677 C676 1.363 . S
C677 C683 1.363 . S
C678 C679 1.363 . S
C678 C683 1.379 . S
C678 N685 1.356 . S
C679 C678 1.363 . S
C679 C682 1.363 . S
N680 C682 1.356 . S
N680 H692 0.984 1_554 S
N680 H693 0.985 1_554 S
N681 C683 1.356 . S
N681 H686 0.984 . S
N681 H687 0.985 . S
C682 C676 1.379 . S
C682 C679 1.363 . S
C682 N680 1.356 . S
C683 C677 1.363 . S
C683 C678 1.379 . S
C683 N681 1.356 . S
N684 C676 1.356 . S
N684 H690 0.984 . S
N684 H691 0.984 . S
N685 C678 1.356 . S
N685 H688 0.984 . S
N685 H689 0.985 . S
H686 N681 0.984 . S
H687 N681 0.985 . S
H688 N685 0.984 . S
H689 N685 0.985 . S
H690 N684 0.984 . S
H691 N684 0.984 . S
H692 N680 0.984 1_556 S
H693 N680 0.985 1_556 S
C694 C695 1.363 . S
C694 C700 1.379 . S
C694 N702 1.356 . S
C695 C694 1.363 . S
C695 C701 1.363 . S
C696 C697 1.363 . S
C696 C701 1.379 . S
C696 N703 1.356 . S
C697 C696 1.363 . S
C697 C700 1.363 . S
N698 C700 1.356 . S
N698 H710 0.984 . S
N698 H711 0.985 . S
N699 C701 1.356 . S
N699 H704 0.984 . S
N699 H705 0.985 . S
C700 C694 1.379 . S
C700 C697 1.363 . S
C700 N698 1.356 . S
C701 C695 1.363 . S
C701 C696 1.379 . S
C701 N699 1.356 . S
N702 C694 1.356 . S
N702 H708 0.984 . S
N702 H709 0.984 . S
N703 C696 1.356 . S
N703 H706 0.984 . S
N703 H707 0.985 . S
H704 N699 0.984 . S
H705 N699 0.985 . S
H706 N703 0.984 . S
H707 N703 0.985 . S
H708 N702 0.984 . S
H709 N702 0.984 . S
H710 N698 0.984 . S
H711 N698 0.985 . S
C712 C713 1.363 . S
C712 C718 1.379 . S
C712 N720 1.356 . S
C713 C712 1.363 . S
C713 C719 1.363 . S
C714 C715 1.363 . S
C714 C719 1.379 . S
C714 N721 1.356 . S
C715 C714 1.363 . S
C715 C718 1.363 . S
N716 C718 1.356 . S
N716 H728 0.984 . S
N716 H729 0.985 . S
N717 C719 1.356 . S
N717 H722 0.984 . S
N717 H723 0.985 . S
C718 C712 1.379 . S
C718 C715 1.363 . S
C718 N716 1.356 . S
C719 C713 1.363 . S
C719 C714 1.379 . S
C719 N717 1.356 . S
N720 C712 1.356 . S
N720 H726 0.984 . S
N720 H727 0.984 . S
N721 C714 1.356 . S
N721 H724 0.984 . S
N721 H725 0.985 . S
H722 N717 0.984 . S
H723 N717 0.985 . S
H724 N721 0.984 . S
H725 N721 0.985 . S
H726 N720 0.984 . S
H727 N720 0.984 . S
H728 N716 0.984 . S
H729 N716 0.985 . S
C730 C731 1.363 . S
C730 C736 1.379 . S
C730 N738 1.356 . S
C731 C730 1.363 . S
C731 C737 1.363 . S
C732 C733 1.363 . S
C732 C737 1.379 . S
C732 N739 1.356 . S
C733 C732 1.363 . S
C733 C736 1.363 . S
N734 C736 1.356 . S
N734 H746 0.984 . S
N734 H747 0.985 . S
N735 C737 1.356 . S
N735 H740 0.984 . S
N735 H741 0.985 . S
C736 C730 1.379 . S
C736 C733 1.363 . S
C736 N734 1.356 . S
C737 C731 1.363 . S
C737 C732 1.379 . S
C737 N735 1.356 . S
N738 C730 1.356 . S
N738 H744 0.984 . S
N738 H745 0.984 . S
N739 C732 1.356 . S
N739 H742 0.984 . S
N739 H743 0.985 . S
H740 N735 0.984 . S
H741 N735 0.985 . S
H742 N739 0.984 . S
H743 N739 0.985 . S
H744 N738 0.984 . S
H745 N738 0.984 . S
H746 N734 0.984 . S
H747 N734 0.985 . S
C748 C749 1.363 . S
C748 C754 1.379 . S
C748 N756 1.356 . S
C749 C748 1.363 . S
C749 C755 1.363 . S
C750 C751 1.363 . S
C750 C755 1.379 . S
C750 N757 1.356 . S
C751 C750 1.363 . S
C751 C754 1.363 . S
N752 C754 1.356 . S
N752 H764 0.984 . S
N752 H765 0.985 1_556 S
N753 C755 1.356 . S
N753 H758 0.984 . S
N753 H759 0.985 . S
C754 C748 1.379 . S
C754 C751 1.363 . S
C754 N752 1.356 . S
C755 C749 1.363 . S
C755 C750 1.379 . S
C755 N753 1.356 . S
N756 C748 1.356 . S
N756 H762 0.984 . S
N756 H763 0.984 . S
N757 C750 1.356 . S
N757 H760 0.984 1_556 S
N757 H761 0.985 . S
H758 N753 0.984 . S
H759 N753 0.985 . S
H760 N757 0.984 1_554 S
H761 N757 0.985 . S
H762 N756 0.984 . S
H763 N756 0.984 . S
H764 N752 0.984 . S
H765 N752 0.985 1_554 S
C766 C767 1.363 . S
C766 C772 1.379 . S
C766 N774 1.356 . S
C767 C766 1.363 . S
C767 C773 1.363 . S
C768 C769 1.363 . S
C768 C773 1.379 . S
C768 N775 1.356 . S
C769 C768 1.363 . S
C769 C772 1.363 . S
N770 C772 1.356 . S
N770 H782 0.984 . S
N770 H783 0.985 . S
N771 C773 1.356 1_556 S
N771 H776 0.984 . S
N771 H777 0.985 . S
C772 C766 1.379 . S
C772 C769 1.363 . S
C772 N770 1.356 . S
C773 C767 1.363 . S
C773 C768 1.379 . S
C773 N771 1.356 1_554 S
N774 C766 1.356 . S
N774 H780 0.984 . S
N774 H781 0.984 . S
N775 C768 1.356 . S
N775 H778 0.984 . S
N775 H779 0.985 . S
H776 N771 0.984 . S
H777 N771 0.985 . S
H778 N775 0.984 . S
H779 N775 0.985 . S
H780 N774 0.984 . S
H781 N774 0.984 . S
H782 N770 0.984 . S
H783 N770 0.985 . S
C784 C785 1.363 . S
C784 C790 1.379 . S
C784 N792 1.356 . S
C785 C784 1.363 . S
C785 C791 1.363 . S
C786 C787 1.363 . S
C786 C791 1.379 . S
C786 N793 1.356 . S
C787 C786 1.363 . S
C787 C790 1.363 . S
N788 C790 1.356 . S
N788 H800 0.984 . S
N788 H801 0.985 . S
N789 C791 1.356 . S
N789 H794 0.984 . S
N789 H795 0.985 . S
C790 C784 1.379 . S
C790 C787 1.363 . S
C790 N788 1.356 . S
C791 C785 1.363 . S
C791 C786 1.379 . S
C791 N789 1.356 . S
N792 C784 1.356 . S
N792 H798 0.984 . S
N792 H799 0.984 . S
N793 C786 1.356 . S
N793 H796 0.984 . S
N793 H797 0.985 . S
H794 N789 0.984 . S
H795 N789 0.985 . S
H796 N793 0.984 . S
H797 N793 0.985 . S
H798 N792 0.984 . S
H799 N792 0.984 . S
H800 N788 0.984 . S
H801 N788 0.985 . S
C802 C803 1.363 . S
C802 C808 1.379 . S
C802 N810 1.356 . S
C803 C802 1.363 . S
C803 C809 1.363 . S
C804 C805 1.363 . S
C804 C809 1.379 . S
C804 N811 1.356 1_554 S
C805 C804 1.363 . S
C805 C808 1.363 . S
N806 C808 1.356 . S
N806 H818 0.984 . S
N806 H819 0.985 . S
N807 C809 1.356 . S
N807 H812 0.984 . S
N807 H813 0.985 . S
C808 C802 1.379 . S
C808 C805 1.363 . S
C808 N806 1.356 . S
C809 C803 1.363 . S
C809 C804 1.379 . S
C809 N807 1.356 . S
N810 C802 1.356 . S
N810 H816 0.984 . S
N810 H817 0.984 . S
N811 C804 1.356 1_556 S
N811 H814 0.984 . S
N811 H815 0.985 . S
H812 N807 0.984 . S
H813 N807 0.985 . S
H814 N811 0.984 . S
H815 N811 0.985 . S
H816 N810 0.984 . S
H817 N810 0.984 . S
H818 N806 0.984 . S
H819 N806 0.985 . S
C820 C821 1.363 . S
C820 C826 1.379 . S
C820 N828 1.356 . S
C821 C820 1.363 . S
C821 C827 1.363 . S
C822 C823 1.363 . S
C822 C827 1.379 . S
C822 N829 1.356 . S
C823 C822 1.363 . S
C823 C826 1.363 . S
N824 C826 1.356 . S
N824 H836 0.984 . S
N824 H837 0.985 . S
N825 C827 1.356 . S
N825 H830 0.984 . S
N825 H831 0.985 . S
C826 C820 1.379 . S
C826 C823 1.363 . S
C826 N824 1.356 . S
C827 C821 1.363 . S
C827 C822 1.379 . S
C827 N825 1.356 . S
N828 C820 1.356 . S
N828 H834 0.984 . S
N828 H835 0.984 1_556 S
N829 C822 1.356 . S
N829 H832 0.984 . S
N829 H833 0.985 . S
H830 N825 0.984 . S
H831 N825 0.985 . S
H832 N829 0.984 . S
H833 N829 0.985 . S
H834 N828 0.984 . S
H835 N828 0.984 1_554 S
H836 N824 0.984 . S
H837 N824 0.985 . S
C838 C839 1.363 . S
C838 C844 1.379 . S
C838 N846 1.356 . S
C839 C838 1.363 . S
C839 C845 1.363 . S
C840 C841 1.363 . S
C840 C845 1.379 . S
C840 N847 1.356 . S
C841 C840 1.363 . S
C841 C844 1.363 . S
N842 C844 1.356 . S
N842 H854 0.984 . S
N842 H855 0.985 . S
N843 C845 1.356 . S
N843 H848 0.984 . S
N843 H849 0.985 . S
C844 C838 1.379 . S
C844 C841 1.363 . S
C844 N842 1.356 . S
C845 C839 1.363 . S
C845 C840 1.379 . S
C845 N843 1.356 . S
N846 C838 1.356 . S
N846 H852 0.984 . S
N846 H853 0.984 . S
N847 C840 1.356 . S
N847 H850 0.984 . S
N847 H851 0.985 . S
H848 N843 0.984 . S
H849 N843 0.985 . S
H850 N847 0.984 . S
H851 N847 0.985 . S
H852 N846 0.984 . S
H853 N846 0.984 . S
H854 N842 0.984 . S
H855 N842 0.985 . S
C856 C857 1.363 . S
C856 C862 1.379 . S
C856 N864 1.356 . S
C857 C856 1.363 . S
C857 C863 1.363 . S
C858 C859 1.363 . S
C858 C863 1.379 . S
C858 N865 1.356 . S
C859 C858 1.363 . S
C859 C862 1.363 . S
N860 C862 1.356 . S
N860 H872 0.984 . S
N860 H873 0.985 . S
N861 C863 1.356 . S
N861 H866 0.984 . S
N861 H867 0.985 . S
C862 C856 1.379 . S
C862 C859 1.363 . S
C862 N860 1.356 . S
C863 C857 1.363 . S
C863 C858 1.379 . S
C863 N861 1.356 . S
N864 C856 1.356 . S
N864 H870 0.984 . S
N864 H871 0.984 . S
N865 C858 1.356 . S
N865 H868 0.984 . S
N865 H869 0.985 . S
H866 N861 0.984 . S
H867 N861 0.985 . S
H868 N865 0.984 . S
H869 N865 0.985 . S
H870 N864 0.984 . S
H871 N864 0.984 . S
H872 N860 0.984 . S
H873 N860 0.985 . S
C874 C875 1.363 . S
C874 C880 1.379 . S
C874 N882 1.356 . S
C875 C874 1.363 . S
C875 C881 1.363 . S
C876 C877 1.363 . S
C876 C881 1.379 . S
C876 N883 1.356 . S
C877 C876 1.363 . S
C877 C880 1.363 . S
N878 C880 1.356 . S
N878 H890 0.984 . S
N878 H891 0.985 . S
N879 C881 1.356 . S
N879 H884 0.984 . S
N879 H885 0.985 . S
C880 C874 1.379 . S
C880 C877 1.363 . S
C880 N878 1.356 . S
C881 C875 1.363 . S
C881 C876 1.379 . S
C881 N879 1.356 . S
N882 C874 1.356 . S
N882 H888 0.984 . S
N882 H889 0.984 . S
N883 C876 1.356 . S
N883 H886 0.984 . S
N883 H887 0.985 . S
H884 N879 0.984 . S
H885 N879 0.985 . S
H886 N883 0.984 . S
H887 N883 0.985 . S
H888 N882 0.984 . S
H889 N882 0.984 . S
H890 N878 0.984 . S
H891 N878 0.985 . S
C892 C893 1.363 . S
C892 C898 1.379 . S
C892 N900 1.356 . S
C893 C892 1.363 . S
C893 C899 1.363 . S
C894 C895 1.363 . S
C894 C899 1.379 . S
C894 N901 1.356 . S
C895 C894 1.363 . S
C895 C898 1.363 . S
N896 C898 1.356 . S
N896 H908 0.984 . S
N896 H909 0.985 1_554 S
N897 C899 1.356 . S
N897 H902 0.984 . S
N897 H903 0.985 . S
C898 C892 1.379 . S
C898 C895 1.363 . S
C898 N896 1.356 . S
C899 C893 1.363 . S
C899 C894 1.379 . S
C899 N897 1.356 . S
N900 C892 1.356 . S
N900 H906 0.984 . S
N900 H907 0.984 . S
N901 C894 1.356 . S
N901 H904 0.984 1_554 S
N901 H905 0.985 . S
H902 N897 0.984 . S
H903 N897 0.985 . S
H904 N901 0.984 1_556 S
H905 N901 0.985 . S
H906 N900 0.984 . S
H907 N900 0.984 . S
H908 N896 0.984 . S
H909 N896 0.985 1_556 S
C910 C911 1.363 . S
C910 C916 1.379 . S
C910 N918 1.356 . S
C911 C910 1.363 . S
C911 C917 1.363 . S
C912 C913 1.363 . S
C912 C917 1.379 . S
C912 N919 1.356 . S
C913 C912 1.363 . S
C913 C916 1.363 . S
N914 C916 1.356 . S
N914 H926 0.984 . S
N914 H927 0.985 . S
N915 C917 1.356 . S
N915 H920 0.984 . S
N915 H921 0.985 . S
C916 C910 1.379 . S
C916 C913 1.363 . S
C916 N914 1.356 . S
C917 C911 1.363 . S
C917 C912 1.379 . S
C917 N915 1.356 . S
N918 C910 1.356 . S
N918 H924 0.984 . S
N918 H925 0.984 . S
N919 C912 1.356 . S
N919 H922 0.984 . S
N919 H923 0.985 . S
H920 N915 0.984 . S
H921 N915 0.985 . S
H922 N919 0.984 . S
H923 N919 0.985 . S
H924 N918 0.984 . S
H925 N918 0.984 . S
H926 N914 0.984 . S
H927 N914 0.985 . S
C928 C929 1.363 . S
C928 C934 1.379 . S
C928 N936 1.356 . S
C929 C928 1.363 . S
C929 C935 1.363 . S
C930 C931 1.363 . S
C930 C935 1.379 . S
C930 N937 1.356 . S
C931 C930 1.363 . S
C931 C934 1.363 . S
N932 C934 1.356 . S
N932 H944 0.984 . S
N932 H945 0.985 . S
N933 C935 1.356 . S
N933 H938 0.984 . S
N933 H939 0.985 . S
C934 C928 1.379 . S
C934 C931 1.363 . S
C934 N932 1.356 . S
C935 C929 1.363 . S
C935 C930 1.379 . S
C935 N933 1.356 . S
N936 C928 1.356 . S
N936 H942 0.984 . S
N936 H943 0.984 . S
N937 C930 1.356 . S
N937 H940 0.984 . S
N937 H941 0.985 . S
H938 N933 0.984 . S
H939 N933 0.985 . S
H940 N937 0.984 . S
H941 N937 0.985 . S
H942 N936 0.984 . S
H943 N936 0.984 . S
H944 N932 0.984 . S
H945 N932 0.985 . S
C946 C947 1.363 . S
C946 C952 1.379 . S
C946 N954 1.356 . S
C947 C946 1.363 . S
C947 C953 1.363 . S
C948 C949 1.363 . S
C948 C953 1.379 . S
C948 N955 1.356 . S
C949 C948 1.363 . S
C949 C952 1.363 . S
N950 C952 1.356 . S
N950 H962 0.984 . S
N950 H963 0.985 . S
N951 C953 1.356 . S
N951 H956 0.984 . S
N951 H957 0.985 . S
C952 C946 1.379 . S
C952 C949 1.363 . S
C952 N950 1.356 . S
C953 C947 1.363 . S
C953 C948 1.379 . S
C953 N951 1.356 . S
N954 C946 1.356 . S
N954 H960 0.984 . S
N954 H961 0.984 . S
N955 C948 1.356 . S
N955 H958 0.984 . S
N955 H959 0.985 . S
H956 N951 0.984 . S
H957 N951 0.985 . S
H958 N955 0.984 . S
H959 N955 0.985 . S
H960 N954 0.984 . S
H961 N954 0.984 . S
H962 N950 0.984 . S
H963 N950 0.985 . S
C964 C965 1.363 . S
C964 C970 1.379 . S
C964 N972 1.356 . S
C965 C964 1.363 . S
C965 C971 1.363 . S
C966 C967 1.363 . S
C966 C971 1.379 . S
C966 N973 1.356 . S
C967 C966 1.363 . S
C967 C970 1.363 . S
N968 C970 1.356 . S
N968 H980 0.984 . S
N968 H981 0.985 . S
N969 C971 1.356 . S
N969 H974 0.984 . S
N969 H975 0.985 . S
C970 C964 1.379 . S
C970 C967 1.363 . S
C970 N968 1.356 . S
C971 C965 1.363 . S
C971 C966 1.379 . S
C971 N969 1.356 . S
N972 C964 1.356 . S
N972 H978 0.984 . S
N972 H979 0.984 . S
N973 C966 1.356 . S
N973 H976 0.984 . S
N973 H977 0.985 . S
H974 N969 0.984 . S
H975 N969 0.985 . S
H976 N973 0.984 . S
H977 N973 0.985 . S
H978 N972 0.984 . S
H979 N972 0.984 . S
H980 N968 0.984 . S
H981 N968 0.985 . S
C982 C983 1.363 . S
C982 C988 1.379 1_655 S
C982 N990 1.356 . S
C983 C982 1.363 . S
C983 C989 1.363 . S
C984 C985 1.363 . S
C984 C989 1.379 1_455 S
C984 N991 1.356 . S
C985 C984 1.363 . S
C985 C988 1.363 . S
N986 C988 1.356 . S
N986 H998 0.984 1_556 S
N986 H999 0.985 . S
N987 C989 1.356 . S
N987 H992 0.984 . S
N987 H993 0.985 . S
C988 C982 1.379 1_455 S
C988 C985 1.363 . S
C988 N986 1.356 . S
C989 C983 1.363 . S
C989 C984 1.379 1_655 S
C989 N987 1.356 . S
N990 C982 1.356 . S
N990 H996 0.984 1_556 S
N990 H997 0.984 . S
N991 C984 1.356 . S
N991 H994 0.984 . S
N991 H995 0.985 . S
H992 N987 0.984 . S
H993 N987 0.985 . S
H994 N991 0.984 . S
H995 N991 0.985 . S
H996 N990 0.984 1_554 S
H997 N990 0.984 . S
H998 N986 0.984 1_554 S
H999 N986 0.985 . S
C1000 C1001 1.363 . S
C1000 C1006 1.379 . S
C1000 N1008 1.356 . S
C1001 C1000 1.363 . S
C1001 C1007 1.363 . S
C1002 C1003 1.363 . S
C1002 C1007 1.379 . S
C1002 N1009 1.356 . S
C1003 C1002 1.363 . S
C1003 C1006 1.363 . S
N1004 C1006 1.356 . S
N1004 H1016 0.984 . S
N1004 H1017 0.985 . S
N1005 C1007 1.356 . S
N1005 H1010 0.984 . S
N1005 H1011 0.985 . S
C1006 C1000 1.379 . S
C1006 C1003 1.363 . S
C1006 N1004 1.356 . S
C1007 C1001 1.363 . S
C1007 C1002 1.379 . S
C1007 N1005 1.356 . S
N1008 C1000 1.356 . S
N1008 H1014 0.984 . S
N1008 H1015 0.984 . S
N1009 C1002 1.356 . S
N1009 H1012 0.984 . S
N1009 H1013 0.985 . S
H1010 N1005 0.984 . S
H1011 N1005 0.985 . S
H1012 N1009 0.984 . S
H1013 N1009 0.985 . S
H1014 N1008 0.984 . S
H1015 N1008 0.984 . S
H1016 N1004 0.984 . S
H1017 N1004 0.985 . S
C1018 C1019 1.363 . S
C1018 C1024 1.379 1_455 S
C1018 N1026 1.356 . S
C1019 C1018 1.363 . S
C1019 C1025 1.363 . S
C1020 C1021 1.363 . S
C1020 C1025 1.379 1_655 S
C1020 N1027 1.356 . S
C1021 C1020 1.363 . S
C1021 C1024 1.363 . S
N1022 C1024 1.356 . S
N1022 H1034 0.984 . S
N1022 H1035 0.985 . S
N1023 C1025 1.356 . S
N1023 H1028 0.984 . S
N1023 H1029 0.985 . S
C1024 C1018 1.379 1_655 S
C1024 C1021 1.363 . S
C1024 N1022 1.356 . S
C1025 C1019 1.363 . S
C1025 C1020 1.379 1_455 S
C1025 N1023 1.356 . S
N1026 C1018 1.356 . S
N1026 H1032 0.984 . S
N1026 H1033 0.984 . S
N1027 C1020 1.356 . S
N1027 H1030 0.984 . S
N1027 H1031 0.985 . S
H1028 N1023 0.984 . S
H1029 N1023 0.985 . S
H1030 N1027 0.984 . S
H1031 N1027 0.985 . S
H1032 N1026 0.984 . S
H1033 N1026 0.984 . S
H1034 N1022 0.984 . S
H1035 N1022 0.985 . S
C1036 C1037 1.363 . S
C1036 C1042 1.379 . S
C1036 N1044 1.356 . S
C1037 C1036 1.363 . S
C1037 C1043 1.363 . S
C1038 C1039 1.363 . S
C1038 C1043 1.379 . S
C1038 N1045 1.356 . S
C1039 C1038 1.363 . S
C1039 C1042 1.363 . S
N1040 C1042 1.356 . S
N1040 H1052 0.984 . S
N1040 H1053 0.985 . S
N1041 C1043 1.356 . S
N1041 H1046 0.984 . S
N1041 H1047 0.985 . S
C1042 C1036 1.379 . S
C1042 C1039 1.363 . S
C1042 N1040 1.356 . S
C1043 C1037 1.363 . S
C1043 C1038 1.379 . S
C1043 N1041 1.356 . S
N1044 C1036 1.356 . S
N1044 H1050 0.984 . S
N1044 H1051 0.984 . S
N1045 C1038 1.356 . S
N1045 H1048 0.984 . S
N1045 H1049 0.985 . S
H1046 N1041 0.984 . S
H1047 N1041 0.985 . S
H1048 N1045 0.984 . S
H1049 N1045 0.985 . S
H1050 N1044 0.984 . S
H1051 N1044 0.984 . S
H1052 N1040 0.984 . S
H1053 N1040 0.985 . S
C1054 C1055 1.363 . S
C1054 C1060 1.379 . S
C1054 N1062 1.356 . S
C1055 C1054 1.363 . S
C1055 C1061 1.363 . S
C1056 C1057 1.363 . S
C1056 C1061 1.379 . S
C1056 N1063 1.356 . S
C1057 C1056 1.363 . S
C1057 C1060 1.363 . S
N1058 C1060 1.356 . S
N1058 H1070 0.984 . S
N1058 H1071 0.985 . S
N1059 C1061 1.356 . S
N1059 H1064 0.984 . S
N1059 H1065 0.985 . S
C1060 C1054 1.379 . S
C1060 C1057 1.363 . S
C1060 N1058 1.356 . S
C1061 C1055 1.363 . S
C1061 C1056 1.379 . S
C1061 N1059 1.356 . S
N1062 C1054 1.356 . S
N1062 H1068 0.984 . S
N1062 H1069 0.984 . S
N1063 C1056 1.356 . S
N1063 H1066 0.984 . S
N1063 H1067 0.985 . S
H1064 N1059 0.984 . S
H1065 N1059 0.985 . S
H1066 N1063 0.984 . S
H1067 N1063 0.985 . S
H1068 N1062 0.984 . S
H1069 N1062 0.984 . S
H1070 N1058 0.984 . S
H1071 N1058 0.985 . S
C1072 C1073 1.363 . S
C1072 C1078 1.379 . S
C1072 N1080 1.356 . S
C1073 C1072 1.363 . S
C1073 C1079 1.363 . S
C1074 C1075 1.363 . S
C1074 C1079 1.379 . S
C1074 N1081 1.356 . S
C1075 C1074 1.363 . S
C1075 C1078 1.363 . S
N1076 C1078 1.356 . S
N1076 H1088 0.984 . S
N1076 H1089 0.985 . S
N1077 C1079 1.356 . S
N1077 H1082 0.984 . S
N1077 H1083 0.985 . S
C1078 C1072 1.379 . S
C1078 C1075 1.363 . S
C1078 N1076 1.356 . S
C1079 C1073 1.363 . S
C1079 C1074 1.379 . S
C1079 N1077 1.356 . S
N1080 C1072 1.356 . S
N1080 H1086 0.984 . S
N1080 H1087 0.984 . S
N1081 C1074 1.356 . S
N1081 H1084 0.984 . S
N1081 H1085 0.985 . S
H1082 N1077 0.984 . S
H1083 N1077 0.985 . S
H1084 N1081 0.984 . S
H1085 N1081 0.985 . S
H1086 N1080 0.984 . S
H1087 N1080 0.984 . S
H1088 N1076 0.984 . S
H1089 N1076 0.985 . S
C1090 C1091 1.363 . S
C1090 C1096 1.379 . S
C1090 N1098 1.356 . S
C1091 C1090 1.363 . S
C1091 C1097 1.363 . S
C1092 C1093 1.363 . S
C1092 C1097 1.379 . S
C1092 N1099 1.356 . S
C1093 C1092 1.363 . S
C1093 C1096 1.363 . S
N1094 C1096 1.356 . S
N1094 H1106 0.984 . S
N1094 H1107 0.985 . S
N1095 C1097 1.356 . S
N1095 H1100 0.984 . S
N1095 H1101 0.985 . S
C1096 C1090 1.379 . S
C1096 C1093 1.363 . S
C1096 N1094 1.356 . S
C1097 C1091 1.363 . S
C1097 C1092 1.379 . S
C1097 N1095 1.356 . S
N1098 C1090 1.356 . S
N1098 H1104 0.984 . S
N1098 H1105 0.984 . S
N1099 C1092 1.356 . S
N1099 H1102 0.984 . S
N1099 H1103 0.985 . S
H1100 N1095 0.984 . S
H1101 N1095 0.985 . S
H1102 N1099 0.984 . S
H1103 N1099 0.985 . S
H1104 N1098 0.984 . S
H1105 N1098 0.984 . S
H1106 N1094 0.984 . S
H1107 N1094 0.985 . S
C1108 C1109 1.363 . S
C1108 C1114 1.379 . S
C1108 N1116 1.356 . S
C1109 C1108 1.363 . S
C1109 C1115 1.363 . S
C1110 C1111 1.363 . S
C1110 C1115 1.379 . S
C1110 N1117 1.356 . S
C1111 C1110 1.363 . S
C1111 C1114 1.363 . S
N1112 C1114 1.356 . S
N1112 H1124 0.984 . S
N1112 H1125 0.985 . S
N1113 C1115 1.356 . S
N1113 H1118 0.984 . S
N1113 H1119 0.985 . S
C1114 C1108 1.379 . S
C1114 C1111 1.363 . S
C1114 N1112 1.356 . S
C1115 C1109 1.363 . S
C1115 C1110 1.379 . S
C1115 N1113 1.356 . S
N1116 C1108 1.356 . S
N1116 H1122 0.984 . S
N1116 H1123 0.984 . S
N1117 C1110 1.356 . S
N1117 H1120 0.984 . S
N1117 H1121 0.985 . S
H1118 N1113 0.984 . S
H1119 N1113 0.985 . S
H1120 N1117 0.984 . S
H1121 N1117 0.985 . S
H1122 N1116 0.984 . S
H1123 N1116 0.984 . S
H1124 N1112 0.984 . S
H1125 N1112 0.985 . S
C1126 C1127 1.363 . S
C1126 C1132 1.379 . S
C1126 N1134 1.356 . S
C1127 C1126 1.363 . S
C1127 C1133 1.363 . S
C1128 C1129 1.363 . S
C1128 C1133 1.379 . S
C1128 N1135 1.356 . S
C1129 C1128 1.363 . S
C1129 C1132 1.363 . S
N1130 C1132 1.356 . S
N1130 H1142 0.984 . S
N1130 H1143 0.985 . S
N1131 C1133 1.356 . S
N1131 H1136 0.984 . S
N1131 H1137 0.985 . S
C1132 C1126 1.379 . S
C1132 C1129 1.363 . S
C1132 N1130 1.356 . S
C1133 C1127 1.363 . S
C1133 C1128 1.379 . S
C1133 N1131 1.356 . S
N1134 C1126 1.356 . S
N1134 H1140 0.984 . S
N1134 H1141 0.984 . S
N1135 C1128 1.356 . S
N1135 H1138 0.984 . S
N1135 H1139 0.985 . S
H1136 N1131 0.984 . S
H1137 N1131 0.985 . S
H1138 N1135 0.984 . S
H1139 N1135 0.985 . S
H1140 N1134 0.984 . S
H1141 N1134 0.984 . S
H1142 N1130 0.984 . S
H1143 N1130 0.985 . S
C1144 C1145 1.363 . S
C1144 C1150 1.379 1_655 S
C1144 N1152 1.356 . S
C1145 C1144 1.363 . S
C1145 C1151 1.363 . S
C1146 C1147 1.363 . S
C1146 C1151 1.379 1_455 S
C1146 N1153 1.356 . S
C1147 C1146 1.363 . S
C1147 C1150 1.363 . S
N1148 C1150 1.356 . S
N1148 H1160 0.984 . S
N1148 H1161 0.985 . S
N1149 C1151 1.356 . S
N1149 H1154 0.984 . S
N1149 H1155 0.985 . S
C1150 C1144 1.379 1_455 S
C1150 C1147 1.363 . S
C1150 N1148 1.356 . S
C1151 C1145 1.363 . S
C1151 C1146 1.379 1_655 S
C1151 N1149 1.356 . S
N1152 C1144 1.356 . S
N1152 H1158 0.984 . S
N1152 H1159 0.984 . S
N1153 C1146 1.356 . S
N1153 H1156 0.984 . S
N1153 H1157 0.985 1_556 S
H1154 N1149 0.984 . S
H1155 N1149 0.985 . S
H1156 N1153 0.984 . S
H1157 N1153 0.985 1_554 S
H1158 N1152 0.984 . S
H1159 N1152 0.984 . S
H1160 N1148 0.984 . S
H1161 N1148 0.985 . S
C1162 C1163 1.363 . S
C1162 C1168 1.379 . S
C1162 N1170 1.356 . S
C1163 C1162 1.363 . S
C1163 C1169 1.363 . S
C1164 C1165 1.363 . S
C1164 C1169 1.379 . S
C1164 N1171 1.356 . S
C1165 C1164 1.363 . S
C1165 C1168 1.363 . S
N1166 C1168 1.356 . S
N1166 H1178 0.984 . S
N1166 H1179 0.985 . S
N1167 C1169 1.356 . S
N1167 H1172 0.984 . S
N1167 H1173 0.985 . S
C1168 C1162 1.379 . S
C1168 C1165 1.363 . S
C1168 N1166 1.356 . S
C1169 C1163 1.363 . S
C1169 C1164 1.379 . S
C1169 N1167 1.356 . S
N1170 C1162 1.356 . S
N1170 H1176 0.984 . S
N1170 H1177 0.984 . S
N1171 C1164 1.356 . S
N1171 H1174 0.984 . S
N1171 H1175 0.985 . S
H1172 N1167 0.984 . S
H1173 N1167 0.985 . S
H1174 N1171 0.984 . S
H1175 N1171 0.985 . S
H1176 N1170 0.984 . S
H1177 N1170 0.984 . S
H1178 N1166 0.984 . S
H1179 N1166 0.985 . S
C1180 C1181 1.363 . S
C1180 C1186 1.379 . S
C1180 N1188 1.356 . S
C1181 C1180 1.363 . S
C1181 C1187 1.363 . S
C1182 C1183 1.363 . S
C1182 C1187 1.379 . S
C1182 N1189 1.356 . S
C1183 C1182 1.363 . S
C1183 C1186 1.363 . S
N1184 C1186 1.356 . S
N1184 H1196 0.984 . S
N1184 H1197 0.985 . S
N1185 C1187 1.356 . S
N1185 H1190 0.984 . S
N1185 H1191 0.985 . S
C1186 C1180 1.379 . S
C1186 C1183 1.363 . S
C1186 N1184 1.356 . S
C1187 C1181 1.363 . S
C1187 C1182 1.379 . S
C1187 N1185 1.356 . S
N1188 C1180 1.356 . S
N1188 H1194 0.984 . S
N1188 H1195 0.984 . S
N1189 C1182 1.356 . S
N1189 H1192 0.984 . S
N1189 H1193 0.985 . S
H1190 N1185 0.984 . S
H1191 N1185 0.985 . S
H1192 N1189 0.984 . S
H1193 N1189 0.985 . S
H1194 N1188 0.984 . S
H1195 N1188 0.984 . S
H1196 N1184 0.984 . S
H1197 N1184 0.985 . S
C1198 C1199 1.363 . S
C1198 C1204 1.379 1_455 S
C1198 N1206 1.356 . S
C1199 C1198 1.363 . S
C1199 C1205 1.363 . S
C1200 C1201 1.363 . S
C1200 C1205 1.379 1_655 S
C1200 N1207 1.356 1_554 S
C1201 C1200 1.363 . S
C1201 C1204 1.363 . S
N1202 C1204 1.356 . S
N1202 H1214 0.984 . S
N1202 H1215 0.985 . S
N1203 C1205 1.356 1_556 S
N1203 H1208 0.985 . S
N1203 H1209 0.985 . S
C1204 C1198 1.379 1_655 S
C1204 C1201 1.363 . S
C1204 N1202 1.356 . S
C1205 C1199 1.363 . S
C1205 C1200 1.379 1_455 S
C1205 N1203 1.356 1_554 S
N1206 C1198 1.356 . S
N1206 H1212 0.984 . S
N1206 H1213 0.984 . S
N1207 C1200 1.356 1_556 S
N1207 H1210 0.984 . S
N1207 H1211 0.985 . S
H1208 N1203 0.985 . S
H1209 N1203 0.985 . S
H1210 N1207 0.984 . S
H1211 N1207 0.985 . S
H1212 N1206 0.984 . S
H1213 N1206 0.984 . S
H1214 N1202 0.984 . S
H1215 N1202 0.985 . S
C1216 C1217 1.363 . S
C1216 C1222 1.379 1_554 S
C1216 N1224 1.356 . S
C1217 C1216 1.363 . S
C1217 C1223 1.363 . S
C1218 C1219 1.363 1_554 S
C1218 C1223 1.379 . S
C1218 N1225 1.356 . S
C1219 C1218 1.363 1_556 S
C1219 C1222 1.363 . S
N1220 C1222 1.356 . S
N1220 H1232 0.984 . S
N1220 H1233 0.985 . S
N1221 C1223 1.356 . S
N1221 H1226 0.984 . S
N1221 H1227 0.985 . S
C1222 C1216 1.379 1_556 S
C1222 C1219 1.363 . S
C1222 N1220 1.356 . S
C1223 C1217 1.363 . S
C1223 C1218 1.379 . S
C1223 N1221 1.356 . S
N1224 C1216 1.356 . S
N1224 H1230 0.984 . S
N1224 H1231 0.984 . S
N1225 C1218 1.356 . S
N1225 H1228 0.984 1_554 S
N1225 H1229 0.985 . S
H1226 N1221 0.984 . S
H1227 N1221 0.985 . S
H1228 N1225 0.984 1_556 S
H1229 N1225 0.985 . S
H1230 N1224 0.984 . S
H1231 N1224 0.984 . S
H1232 N1220 0.984 . S
H1233 N1220 0.985 . S
C1234 C1235 1.363 . S
C1234 C1240 1.379 . S
C1234 N1242 1.356 . S
C1235 C1234 1.363 . S
C1235 C1241 1.363 . S
C1236 C1237 1.363 . S
C1236 C1241 1.379 . S
C1236 N1243 1.356 . S
C1237 C1236 1.363 . S
C1237 C1240 1.363 . S
N1238 C1240 1.356 . S
N1238 H1250 0.984 . S
N1238 H1251 0.985 . S
N1239 C1241 1.356 . S
N1239 H1244 0.984 . S
N1239 H1245 0.985 . S
C1240 C1234 1.379 . S
C1240 C1237 1.363 . S
C1240 N1238 1.356 . S
C1241 C1235 1.363 . S
C1241 C1236 1.379 . S
C1241 N1239 1.356 . S
N1242 C1234 1.356 . S
N1242 H1248 0.984 . S
N1242 H1249 0.984 . S
N1243 C1236 1.356 . S
N1243 H1246 0.984 . S
N1243 H1247 0.985 . S
H1244 N1239 0.984 . S
H1245 N1239 0.985 . S
H1246 N1243 0.984 . S
H1247 N1243 0.985 . S
H1248 N1242 0.984 . S
H1249 N1242 0.984 . S
H1250 N1238 0.984 . S
H1251 N1238 0.985 . S
C1252 C1253 1.363 . S
C1252 C1258 1.379 . S
C1252 N1260 1.356 . S
C1253 C1252 1.363 . S
C1253 C1259 1.363 . S
C1254 C1255 1.363 . S
C1254 C1259 1.379 . S
C1254 N1261 1.356 . S
C1255 C1254 1.363 . S
C1255 C1258 1.363 . S
N1256 C1258 1.356 . S
N1256 H1268 0.984 . S
N1256 H1269 0.985 . S
N1257 C1259 1.356 . S
N1257 H1262 0.984 . S
N1257 H1263 0.985 . S
C1258 C1252 1.379 . S
C1258 C1255 1.363 . S
C1258 N1256 1.356 . S
C1259 C1253 1.363 . S
C1259 C1254 1.379 . S
C1259 N1257 1.356 . S
N1260 C1252 1.356 . S
N1260 H1266 0.984 . S
N1260 H1267 0.984 . S
N1261 C1254 1.356 . S
N1261 H1264 0.984 . S
N1261 H1265 0.985 . S
H1262 N1257 0.984 . S
H1263 N1257 0.985 . S
H1264 N1261 0.984 . S
H1265 N1261 0.985 . S
H1266 N1260 0.984 . S
H1267 N1260 0.984 . S
H1268 N1256 0.984 . S
H1269 N1256 0.985 . S
C1270 C1271 1.363 . S
C1270 C1276 1.379 . S
C1270 N1278 1.356 . S
C1271 C1270 1.363 . S
C1271 C1277 1.363 . S
C1272 C1273 1.363 . S
C1272 C1277 1.379 . S
C1272 N1279 1.356 . S
C1273 C1272 1.363 . S
C1273 C1276 1.363 . S
N1274 C1276 1.356 . S
N1274 H1286 0.984 . S
N1274 H1287 0.985 . S
N1275 C1277 1.356 . S
N1275 H1280 0.984 . S
N1275 H1281 0.985 . S
C1276 C1270 1.379 . S
C1276 C1273 1.363 . S
C1276 N1274 1.356 . S
C1277 C1271 1.363 . S
C1277 C1272 1.379 . S
C1277 N1275 1.356 . S
N1278 C1270 1.356 . S
N1278 H1284 0.984 . S
N1278 H1285 0.984 . S
N1279 C1272 1.356 . S
N1279 H1282 0.984 . S
N1279 H1283 0.985 . S
H1280 N1275 0.984 . S
H1281 N1275 0.985 . S
H1282 N1279 0.984 . S
H1283 N1279 0.985 . S
H1284 N1278 0.984 . S
H1285 N1278 0.984 . S
H1286 N1274 0.984 . S
H1287 N1274 0.985 . S
C1288 C1289 1.363 1_556 S
C1288 C1294 1.379 . S
C1288 N1296 1.356 1_556 S
C1289 C1288 1.363 1_554 S
C1289 C1295 1.363 . S
C1290 C1291 1.363 1_554 S
C1290 C1295 1.379 . S
C1290 N1297 1.356 1_554 S
C1291 C1290 1.363 1_556 S
C1291 C1294 1.363 . S
N1292 C1294 1.356 . S
N1292 H1304 0.984 . S
N1292 H1305 0.985 . S
N1293 C1295 1.356 . S
N1293 H1298 0.984 . S
N1293 H1299 0.985 . S
C1294 C1288 1.379 . S
C1294 C1291 1.363 . S
C1294 N1292 1.356 . S
C1295 C1289 1.363 . S
C1295 C1290 1.379 . S
C1295 N1293 1.356 . S
N1296 C1288 1.356 1_554 S
N1296 H1302 0.984 1_554 S
N1296 H1303 0.984 . S
N1297 C1290 1.356 1_556 S
N1297 H1300 0.984 . S
N1297 H1301 0.985 1_556 S
H1298 N1293 0.984 . S
H1299 N1293 0.985 . S
H1300 N1297 0.984 . S
H1301 N1297 0.985 1_554 S
H1302 N1296 0.984 1_556 S
H1303 N1296 0.984 . S
H1304 N1292 0.984 . S
H1305 N1292 0.985 . S
C1306 C1307 1.363 . S
C1306 C1312 1.379 . S
C1306 N1314 1.356 . S
C1307 C1306 1.363 . S
C1307 C1313 1.363 . S
C1308 C1309 1.363 . S
C1308 C1313 1.379 . S
C1308 N1315 1.356 . S
C1309 C1308 1.363 . S
C1309 C1312 1.363 . S
N1310 C1312 1.356 . S
N1310 H1322 0.984 . S
N1310 H1323 0.985 . S
N1311 C1313 1.356 . S
N1311 H1316 0.984 . S
N1311 H1317 0.985 . S
C1312 C1306 1.379 . S
C1312 C1309 1.363 . S
C1312 N1310 1.356 . S
C1313 C1307 1.363 . S
C1313 C1308 1.379 . S
C1313 N1311 1.356 . S
N1314 C1306 1.356 . S
N1314 H1320 0.984 . S
N1314 H1321 0.984 . S
N1315 C1308 1.356 . S
N1315 H1318 0.984 . S
N1315 H1319 0.985 . S
H1316 N1311 0.984 . S
H1317 N1311 0.985 . S
H1318 N1315 0.984 . S
H1319 N1315 0.985 . S
H1320 N1314 0.984 . S
H1321 N1314 0.984 . S
H1322 N1310 0.984 . S
H1323 N1310 0.985 . S
C1324 C1325 1.363 . S
C1324 C1330 1.379 . S
C1324 N1332 1.356 . S
C1325 C1324 1.363 . S
C1325 C1331 1.363 . S
C1326 C1327 1.363 . S
C1326 C1331 1.379 . S
C1326 N1333 1.356 . S
C1327 C1326 1.363 . S
C1327 C1330 1.363 . S
N1328 C1330 1.356 . S
N1328 H1340 0.984 . S
N1328 H1341 0.985 . S
N1329 C1331 1.356 . S
N1329 H1334 0.984 . S
N1329 H1335 0.985 . S
C1330 C1324 1.379 . S
C1330 C1327 1.363 . S
C1330 N1328 1.356 . S
C1331 C1325 1.363 . S
C1331 C1326 1.379 . S
C1331 N1329 1.356 . S
N1332 C1324 1.356 . S
N1332 H1338 0.984 . S
N1332 H1339 0.984 . S
N1333 C1326 1.356 . S
N1333 H1336 0.984 . S
N1333 H1337 0.985 . S
H1334 N1329 0.984 . S
H1335 N1329 0.985 . S
H1336 N1333 0.984 . S
H1337 N1333 0.985 . S
H1338 N1332 0.984 . S
H1339 N1332 0.984 . S
H1340 N1328 0.984 . S
H1341 N1328 0.985 . S
C1342 C1343 1.363 . S
C1342 C1348 1.379 . S
C1342 N1350 1.356 . S
C1343 C1342 1.363 . S
C1343 C1349 1.363 . S
C1344 C1345 1.363 . S
C1344 C1349 1.379 . S
C1344 N1351 1.356 . S
C1345 C1344 1.363 . S
C1345 C1348 1.363 . S
N1346 C1348 1.356 . S
N1346 H1358 0.984 . S
N1346 H1359 0.985 . S
N1347 C1349 1.356 . S
N1347 H1352 0.984 . S
N1347 H1353 0.985 . S
C1348 C1342 1.379 . S
C1348 C1345 1.363 . S
C1348 N1346 1.356 . S
C1349 C1343 1.363 . S
C1349 C1344 1.379 . S
C1349 N1347 1.356 . S
N1350 C1342 1.356 . S
N1350 H1356 0.984 . S
N1350 H1357 0.984 . S
N1351 C1344 1.356 . S
N1351 H1354 0.984 . S
N1351 H1355 0.985 . S
H1352 N1347 0.984 . S
H1353 N1347 0.985 . S
H1354 N1351 0.984 . S
H1355 N1351 0.985 . S
H1356 N1350 0.984 . S
H1357 N1350 0.984 . S
H1358 N1346 0.984 . S
H1359 N1346 0.985 . S
C1360 C1361 1.363 . S
C1360 C1366 1.379 . S
C1360 N1368 1.356 . S
C1361 C1360 1.363 . S
C1361 C1367 1.363 1_565 S
C1362 C1363 1.363 . S
C1362 C1367 1.379 . S
C1362 N1369 1.356 . S
C1363 C1362 1.363 . S
C1363 C1366 1.363 1_545 S
N1364 C1366 1.356 1_545 S
N1364 H1376 0.984 1_545 S
N1364 H1377 0.985 . S
N1365 C1367 1.356 1_565 S
N1365 H1370 0.984 . S
N1365 H1371 0.985 1_565 S
C1366 C1360 1.379 . S
C1366 C1363 1.363 1_565 S
C1366 N1364 1.356 1_565 S
C1367 C1361 1.363 1_545 S
C1367 C1362 1.379 . S
C1367 N1365 1.356 1_545 S
N1368 C1360 1.356 . S
N1368 H1374 0.984 . S
N1368 H1375 0.984 . S
N1369 C1362 1.356 . S
N1369 H1372 0.984 . S
N1369 H1373 0.985 . S
H1370 N1365 0.984 . S
H1371 N1365 0.985 1_545 S
H1372 N1369 0.984 . S
H1373 N1369 0.985 . S
H1374 N1368 0.984 . S
H1375 N1368 0.984 . S
H1376 N1364 0.984 1_565 S
H1377 N1364 0.985 . S
C1378 C1379 1.363 . S
C1378 C1384 1.379 . S
C1378 N1386 1.356 . S
C1379 C1378 1.363 . S
C1379 C1385 1.363 . S
C1380 C1381 1.363 . S
C1380 C1385 1.379 . S
C1380 N1387 1.356 . S
C1381 C1380 1.363 . S
C1381 C1384 1.363 . S
N1382 C1384 1.356 . S
N1382 H1394 0.984 . S
N1382 H1395 0.985 . S
N1383 C1385 1.356 . S
N1383 H1388 0.984 . S
N1383 H1389 0.985 . S
C1384 C1378 1.379 . S
C1384 C1381 1.363 . S
C1384 N1382 1.356 . S
C1385 C1379 1.363 . S
C1385 C1380 1.379 . S
C1385 N1383 1.356 . S
N1386 C1378 1.356 . S
N1386 H1392 0.984 . S
N1386 H1393 0.984 . S
N1387 C1380 1.356 . S
N1387 H1390 0.984 . S
N1387 H1391 0.985 . S
H1388 N1383 0.984 . S
H1389 N1383 0.985 . S
H1390 N1387 0.984 . S
H1391 N1387 0.985 . S
H1392 N1386 0.984 . S
H1393 N1386 0.984 . S
H1394 N1382 0.984 . S
H1395 N1382 0.985 . S
C1396 C1397 1.363 1_556 S
C1396 C1402 1.379 . S
C1396 N1404 1.356 . S
C1397 C1396 1.363 1_554 S
C1397 C1403 1.363 1_565 S
C1398 C1399 1.363 1_554 S
C1398 C1403 1.379 . S
C1398 N1405 1.356 . S
C1399 C1398 1.363 1_556 S
C1399 C1402 1.363 1_545 S
N1400 C1402 1.356 . S
N1400 H1412 0.984 . S
N1400 H1413 0.985 1_565 S
N1401 C1403 1.356 . S
N1401 H1406 0.984 1_545 S
N1401 H1407 0.985 . S
C1402 C1396 1.379 . S
C1402 C1399 1.363 1_565 S
C1402 N1400 1.356 . S
C1403 C1397 1.363 1_545 S
C1403 C1398 1.379 . S
C1403 N1401 1.356 . S
N1404 C1396 1.356 . S
N1404 H1410 0.984 . S
N1404 H1411 0.984 1_556 S
N1405 C1398 1.356 . S
N1405 H1408 0.984 1_554 S
N1405 H1409 0.985 . S
H1406 N1401 0.984 1_565 S
H1407 N1401 0.985 . S
H1408 N1405 0.984 1_556 S
H1409 N1405 0.985 . S
H1410 N1404 0.984 . S
H1411 N1404 0.984 1_554 S
H1412 N1400 0.984 . S
H1413 N1400 0.985 1_545 S
C1414 C1415 1.363 . S
C1414 C1420 1.379 . S
C1414 N1422 1.356 . S
C1415 C1414 1.363 . S
C1415 C1421 1.363 . S
C1416 C1417 1.363 . S
C1416 C1421 1.379 . S
C1416 N1423 1.356 . S
C1417 C1416 1.363 . S
C1417 C1420 1.363 . S
N1418 C1420 1.356 . S
N1418 H1430 0.984 . S
N1418 H1431 0.985 . S
N1419 C1421 1.356 . S
N1419 H1424 0.984 . S
N1419 H1425 0.985 . S
C1420 C1414 1.379 . S
C1420 C1417 1.363 . S
C1420 N1418 1.356 . S
C1421 C1415 1.363 . S
C1421 C1416 1.379 . S
C1421 N1419 1.356 . S
N1422 C1414 1.356 . S
N1422 H1428 0.984 . S
N1422 H1429 0.984 . S
N1423 C1416 1.356 . S
N1423 H1426 0.984 . S
N1423 H1427 0.985 . S
H1424 N1419 0.984 . S
H1425 N1419 0.985 . S
H1426 N1423 0.984 . S
H1427 N1423 0.985 . S
H1428 N1422 0.984 . S
H1429 N1422 0.984 . S
H1430 N1418 0.984 . S
H1431 N1418 0.985 . S
C1432 C1433 1.363 . S
C1432 C1438 1.353 1_565 S
C1432 N1440 1.356 . S
C1433 C1432 1.363 . S
C1433 C1439 1.335 1_565 S
C1434 C1435 1.363 . S
C1434 C1439 1.401 . S
C1434 N1441 1.356 . S
C1435 C1434 1.363 . S
C1435 C1438 1.397 . S
N1436 C1438 1.360 . S
N1436 H1448 0.984 1_545 S
N1436 H1449 0.985 . S
N1437 C1439 1.354 1_565 S
N1437 H1442 0.984 . S
N1437 H1443 0.985 1_565 S
C1438 C1432 1.353 1_545 S
C1438 C1435 1.397 . S
C1438 N1436 1.360 . S
C1439 C1433 1.335 1_545 S
C1439 C1434 1.401 . S
C1439 N1437 1.354 1_545 S
N1440 C1432 1.356 . S
N1440 H1446 0.984 . S
N1440 H1447 0.984 . S
N1441 C1434 1.356 . S
N1441 H1444 0.984 . S
N1441 H1445 0.985 . S
H1442 N1437 0.984 . S
H1443 N1437 0.985 1_545 S
H1444 N1441 0.984 . S
H1445 N1441 0.985 . S
H1446 N1440 0.984 . S
H1447 N1440 0.984 . S
H1448 N1436 0.984 1_565 S
H1449 N1436 0.985 . S
C1450 C1451 1.363 . S
C1450 C1456 1.379 . S
C1450 N1458 1.356 . S
C1451 C1450 1.363 . S
C1451 C1457 1.363 . S
C1452 C1453 1.363 . S
C1452 C1457 1.379 . S
C1452 N1459 1.356 . S
C1453 C1452 1.363 . S
C1453 C1456 1.363 . S
N1454 C1456 1.356 . S
N1454 H1466 0.984 . S
N1454 H1467 0.985 . S
N1455 C1457 1.356 . S
N1455 H1460 0.984 . S
N1455 H1461 0.985 . S
C1456 C1450 1.379 . S
C1456 C1453 1.363 . S
C1456 N1454 1.356 . S
C1457 C1451 1.363 . S
C1457 C1452 1.379 . S
C1457 N1455 1.356 . S
N1458 C1450 1.356 . S
N1458 H1464 0.984 . S
N1458 H1465 0.984 . S
N1459 C1452 1.356 . S
N1459 H1462 0.984 . S
N1459 H1463 0.985 . S
H1460 N1455 0.984 . S
H1461 N1455 0.985 . S
H1462 N1459 0.984 . S
H1463 N1459 0.985 . S
H1464 N1458 0.984 . S
H1465 N1458 0.984 . S
H1466 N1454 0.984 . S
H1467 N1454 0.985 . S
C1468 C1469 1.363 1_565 S
C1468 C1474 1.379 . S
C1468 N1476 1.356 . S
C1469 C1468 1.363 1_545 S
C1469 C1475 1.363 1_556 S
C1470 C1471 1.363 1_545 S
C1470 C1475 1.379 . S
C1470 N1477 1.356 . S
C1471 C1470 1.363 1_565 S
C1471 C1474 1.363 1_554 S
N1472 C1474 1.355 1_554 S
N1472 H1484 0.983 1_554 S
N1472 H1485 0.988 . S
N1473 C1475 1.353 1_556 S
N1473 H1478 0.994 . S
N1473 H1479 0.979 1_556 S
C1474 C1468 1.379 . S
C1474 C1471 1.363 1_556 S
C1474 N1472 1.355 1_556 S
C1475 C1469 1.363 1_554 S
C1475 C1470 1.379 . S
C1475 N1473 1.353 1_554 S
N1476 C1468 1.356 . S
N1476 H1482 0.984 . S
N1476 H1483 0.984 1_565 S
N1477 C1470 1.356 . S
N1477 H1480 0.984 1_545 S
N1477 H1481 0.985 . S
H1478 N1473 0.994 . S
H1479 N1473 0.979 1_554 S
H1480 N1477 0.984 1_565 S
H1481 N1477 0.985 . S
H1482 N1476 0.984 . S
H1483 N1476 0.984 1_545 S
H1484 N1472 0.983 1_556 S
H1485 N1472 0.988 . S
C1486 C1487 1.363 . S
C1486 C1492 1.379 . S
C1486 N1494 1.356 . S
C1487 C1486 1.363 . S
C1487 C1493 1.363 . S
C1488 C1489 1.363 . S
C1488 C1493 1.379 . S
C1488 N1495 1.356 . S
C1489 C1488 1.363 . S
C1489 C1492 1.363 . S
N1490 C1492 1.356 . S
N1490 H1502 0.984 . S
N1490 H1503 0.985 . S
N1491 C1493 1.356 . S
N1491 H1496 0.984 . S
N1491 H1497 0.985 . S
C1492 C1486 1.379 . S
C1492 C1489 1.363 . S
C1492 N1490 1.356 . S
C1493 C1487 1.363 . S
C1493 C1488 1.379 . S
C1493 N1491 1.356 . S
N1494 C1486 1.356 . S
N1494 H1500 0.984 . S
N1494 H1501 0.984 . S
N1495 C1488 1.356 . S
N1495 H1498 0.984 . S
N1495 H1499 0.985 . S
H1496 N1491 0.984 . S
H1497 N1491 0.985 . S
H1498 N1495 0.984 . S
H1499 N1495 0.985 . S
H1500 N1494 0.984 . S
H1501 N1494 0.984 . S
H1502 N1490 0.984 . S
H1503 N1490 0.985 . S
C641 C7 1.903 . S
C643 C16 1.903 . S
C659 C56 1.831 . S
C661 C47 1.831 . S
C677 C87 1.993 . S
C679 C96 1.993 . S
C695 C127 1.587 . S
C697 C136 1.587 . S
C713 C167 1.827 . S
C715 C176 1.827 . S
C731 C216 1.613 . S
C733 C207 1.613 . S
C749 C256 1.545 . S
C751 C247 1.545 1_556 S
C767 C296 1.910 1_554 S
C769 C287 1.910 . S
C785 C336 1.801 . S
C787 C327 1.801 . S
C803 C376 1.786 . S
C805 C367 1.786 1_554 S
C821 C416 1.738 1_556 S
C823 C407 1.738 . S
C839 C456 1.539 . S
C841 C447 1.539 . S
C857 C496 1.879 . S
C859 C487 1.879 . S
C875 C536 1.725 . S
C877 C527 1.725 . S
C893 C567 1.594 . S
C895 C576 1.594 1_554 S
C911 C607 2.024 . S
C913 C616 2.024 . S
C929 C10 1.646 . S
C931 C451 1.709 . S
C947 C42 1.739 . S
C949 C611 1.711 . S
C965 C90 1.644 . S
C967 C379 1.585 . S
C983 C130 1.725 . S
C985 C539 1.729 . S
C1001 C170 1.729 . S
C1003 C531 1.703 . S
C1019 C459 1.695 . S
C1021 C210 1.706 . S
C1037 C242 1.690 . S
C1039 C619 1.591 . S
C1055 C282 1.822 . S
C1057 C371 1.814 . S
C1073 C122 1.722 . S
C1075 C339 1.690 . S
C1091 C50 1.654 . S
C1093 C411 1.706 . S
C1109 C499 1.692 . S
C1111 C202 1.740 . S
C1127 C290 1.589 . S
C1129 C571 1.658 . S
C1145 C331 1.835 . S
C1147 C162 1.797 . S
C1163 C250 1.705 . S
C1165 C419 1.792 . S
C1181 C82 1.840 . S
C1183 C579 1.856 . S
C1199 C2 1.754 . S
C1201 C491 1.753 . S
C1217 C19 1.521 . S
C1219 C179 1.516 . S
C1235 C51 1.840 . S
C1237 C219 1.844 . S
C1253 C99 2.133 . S
C1255 C251 2.134 . S
C1271 C139 1.824 . S
C1273 C291 1.819 . S
C1289 C490 1.632 . S
C1291 C330 1.635 . S
C1307 C530 2.077 . S
C1309 C362 2.070 . S
C1325 C402 1.875 . S
C1327 C562 1.880 . S
C1343 C602 1.705 . S
C1345 C450 1.711 . S
C1361 C59 1.517 . S
C1363 C299 1.520 . S
C1379 C171 1.810 . S
C1381 C91 1.832 . S
C1397 C211 2.066 . S
C1399 C131 2.063 . S
C1415 C11 1.827 . S
C1417 C259 1.832 . S
C1433 C610 1.446 . S
C1435 C370 1.440 . S
C1451 C482 1.820 . S
C1453 C410 1.827 . S
C1469 C522 2.078 . S
C1471 C442 2.077 . S
C1487 C570 1.916 . S
C1489 C322 1.914 . S
