# Generated by pormake.
# Topology pts-e, (5)-cn, num edge types: 1
# Building blocks:
#     Node 0, Type 0, BuildingBlock: XOMCOT_clean_sbu_0, # of connection points: 5
#     Node 1, Type 0, BuildingBlock: XOMCOT_clean_sbu_0, # of connection points: 5
#     Node 2, Type 0, BuildingBlock: XOMCOT_clean_sbu_0, # of connection points: 5
#     Node 3, Type 0, BuildingBlock: XOMCOT_clean_sbu_0, # of connection points: 5
#     Node 4, Type 0, BuildingBlock: XOMCOT_clean_sbu_0, # of connection points: 5
#     Node 5, Type 0, BuildingBlock: XOMCOT_clean_sbu_0, # of connection points: 5
#     Node 6, Type 0, BuildingBlock: XOMCOT_clean_sbu_0, # of connection points: 5
#     Node 7, Type 0, BuildingBlock: XOMCOT_clean_sbu_0, # of connection points: 5
#     Edge 8, Type (0, 0), None
#     Edge 9, Type (0, 0), None
#     Edge 10, Type (0, 0), None
#     Edge 11, Type (0, 0), None
#     Edge 12, Type (0, 0), None
#     Edge 13, Type (0, 0), None
#     Edge 14, Type (0, 0), None
#     Edge 15, Type (0, 0), None
#     Edge 16, Type (0, 0), None
#     Edge 17, Type (0, 0), None
#     Edge 18, Type (0, 0), None
#     Edge 19, Type (0, 0), None
#     Edge 20, Type (0, 0), None
#     Edge 21, Type (0, 0), None
#     Edge 22, Type (0, 0), None
#     Edge 23, Type (0, 0), None
#     Edge 24, Type (0, 0), None
#     Edge 25, Type (0, 0), None
#     Edge 26, Type (0, 0), None
#     Edge 27, Type (0, 0), None
# Relax obj value: 0.607
# Max RMSD: 0.262
# Mean RMSD: 0.262
data_MOF--net-pts-e--node1-XOMCOT_clean_sbu_0--edge1-none
_symmetry_space_group_name_H-M    P1
_symmetry_Int_Tables_number       1
_symmetry_cell_setting            triclinic
loop_
_symmetry_equiv_pos_as_xyz
'x, y, z'
_cell_length_a     18.386798
_cell_length_b     18.422436
_cell_length_c     21.165567
_cell_angle_alpha  89.986756
_cell_angle_beta   90.025732
_cell_angle_gamma 90.041959
loop_
_atom_site_label
_atom_site_type_symbol
_atom_site_fract_x
_atom_site_fract_y
_atom_site_fract_z
_atom_type_partial_charge
Co0 Co 0.25511 0.96556 0.17992 0.0
C1 C 0.41479 0.97802 0.1803 0.0
C2 C 0.37926 0.90826 0.25493 0.0
C3 C 0.44925 0.93079 0.26796 0.0
N4 N 0.35589 0.94 0.20099 0.0
N5 N 0.47073 0.97486 0.22102 0.0
H6 H 0.4144 0.01566 0.14122 0.0
H7 H 0.34672 0.87605 0.2862 0.0
C8 C 0.20256 0.85208 0.28405 0.0
O9 O 0.22914 0.88955 0.33153 0.0
N10 N 0.15685 0.99752 0.15725 0.0
C11 C 0.14097 0.06533 0.13628 0.0
C12 C 0.06746 0.07199 0.12739 0.0
C13 C 0.09169 0.96378 0.16125 0.0
N14 N 0.03706 0.00906 0.14428 0.0
C15 C 0.29336 0.08781 0.25054 0.0
C16 C 0.15659 0.09424 0.30143 0.0
C17 C 0.19114 0.15857 0.28226 0.0
C18 C 0.26317 0.15582 0.26262 0.0
C19 C 0.18692 0.02853 0.28568 0.0
N20 N 0.25076 0.02681 0.25341 0.0
H21 H 0.34507 0.08688 0.22682 0.0
H22 H 0.15066 0.98265 0.28609 0.0
H23 H 0.17973 0.10878 0.12977 0.0
H24 H 0.08392 0.90891 0.1782 0.0
O25 O 0.29007 0.03937 0.12214 0.0
O26 O 0.26575 0.92603 0.09494 0.0
O27 O 0.21199 0.87403 0.22617 0.0
C28 C 0.28394 0.99172 0.07772 0.0
H29 H 0.47984 0.92005 0.31065 0.0
H30 H 0.03829 0.11961 0.11144 0.0
H31 H 0.10091 0.0941 0.31764 0.0
H32 H 0.29239 0.20471 0.24975 0.0
Co33 Co 0.04504 0.26406 0.69202 0.0
C34 C 0.03096 0.4209 0.67947 0.0
C35 C 0.1252 0.39635 0.73477 0.0
C36 C 0.10695 0.46838 0.74415 0.0
N37 N 0.07584 0.36547 0.69582 0.0
N38 N 0.04782 0.48296 0.70902 0.0
H39 H 0.98147 0.41505 0.65256 0.0
H40 H 0.16865 0.36839 0.7584 0.0
C41 C 0.17247 0.22727 0.79148 0.0
O42 O 0.15202 0.27305 0.8356 0.0
N43 N 0.00709 0.16634 0.6871 0.0
C44 C 0.93517 0.15128 0.68373 0.0
C45 C 0.92565 0.07888 0.67123 0.0
C46 C 0.04088 0.10302 0.67476 0.0
N47 N 0.99187 0.04923 0.66568 0.0
C48 C 0.92551 0.31517 0.76309 0.0
C49 C 0.94797 0.22949 0.86638 0.0
C50 C 0.87721 0.23994 0.84425 0.0
C51 C 0.86624 0.29487 0.80006 0.0
C52 C 0.00235 0.23804 0.82174 0.0
N53 N 0.99003 0.2786 0.76894 0.0
H54 H 0.91456 0.34883 0.72271 0.0
H55 H 0.04617 0.19996 0.82439 0.0
H56 H 0.8921 0.19074 0.68866 0.0
H57 H 0.09926 0.09674 0.67132 0.0
O58 O 0.96869 0.28968 0.63176 0.0
O59 O 0.07977 0.25553 0.60563 0.0
O60 O 0.13815 0.22383 0.73787 0.0
C61 C 0.01442 0.2735 0.5876 0.0
H62 H 0.1319 0.50558 0.77729 0.0
H63 H 0.87451 0.05055 0.66534 0.0
H64 H 0.95762 0.19097 0.90394 0.0
H65 H 0.81196 0.30941 0.78467 0.0
Co66 Co 0.74472 0.03663 0.18591 0.0
C67 C 0.58499 0.02673 0.18269 0.0
C68 C 0.62042 0.08623 0.26379 0.0
C69 C 0.55037 0.0624 0.27437 0.0
N70 N 0.64392 0.06165 0.20715 0.0
N71 N 0.52899 0.02463 0.22344 0.0
H72 H 0.58551 0.99424 0.14028 0.0
H73 H 0.65325 0.11306 0.29848 0.0
C74 C 0.79731 0.14486 0.29441 0.0
O75 O 0.77246 0.10415 0.34053 0.0
N76 N 0.84299 0.00533 0.16277 0.0
C77 C 0.85834 0.93769 0.14129 0.0
C78 C 0.93139 0.93147 0.13006 0.0
C79 C 0.90802 0.03964 0.16447 0.0
N80 N 0.96213 0.99466 0.14565 0.0
C81 C 0.70388 0.91177 0.25216 0.0
C82 C 0.84092 0.89985 0.30189 0.0
C83 C 0.80428 0.83705 0.28178 0.0
C84 C 0.73225 0.84254 0.26246 0.0
C85 C 0.81186 0.96697 0.28887 0.0
N86 N 0.7479 0.97161 0.25703 0.0
H87 H 0.65226 0.915 0.22837 0.0
H88 H 0.849 0.01219 0.29061 0.0
H89 H 0.81939 0.89423 0.13563 0.0
H90 H 0.91604 0.09478 0.18065 0.0
O91 O 0.7101 0.96588 0.1248 0.0
O92 O 0.73559 0.08047 0.10274 0.0
O93 O 0.78759 0.1258 0.23579 0.0
C94 C 0.71788 0.01582 0.08244 0.0
H95 H 0.51986 0.0673 0.31789 0.0
H96 H 0.96009 0.88415 0.11287 0.0
H97 H 0.89706 0.89804 0.31665 0.0
H98 H 0.70167 0.79494 0.24836 0.0
Co99 Co 0.97607 0.75615 0.68255 0.0
C100 C 0.99002 0.59707 0.67786 0.0
C101 C 0.94206 0.63064 0.76503 0.0
C102 C 0.96893 0.5613 0.77264 0.0
N103 N 0.95707 0.65479 0.70604 0.0
N104 N 0.99925 0.54118 0.7178 0.0
H105 H 0.01558 0.59816 0.63199 0.0
H106 H 0.92097 0.66292 0.80281 0.0
C107 C 0.8679 0.80831 0.79139 0.0
O108 O 0.90704 0.78204 0.83791 0.0
N109 N 0.00061 0.85545 0.65734 0.0
C110 C 0.06387 0.87579 0.62944 0.0
C111 C 0.06694 0.95003 0.62553 0.0
C112 C 0.96595 0.91841 0.66993 0.0
N113 N 0.00619 0.97609 0.65192 0.0
C114 C 0.10435 0.72393 0.74603 0.0
C115 C 0.11048 0.86435 0.78816 0.0
C116 C 0.17417 0.83088 0.76586 0.0
C117 C 0.17221 0.75743 0.7506 0.0
C118 C 0.04489 0.82923 0.78255 0.0
N119 N 0.04224 0.76427 0.75247 0.0
H120 H 0.10243 0.67069 0.72498 0.0
H121 H 0.99722 0.8624 0.78796 0.0
H122 H 0.10741 0.83979 0.61571 0.0
H123 H 0.9152 0.92257 0.69526 0.0
O124 O 0.04746 0.72389 0.62124 0.0
O125 O 0.93102 0.74254 0.60016 0.0
O126 O 0.88655 0.79673 0.73298 0.0
C127 C 0.9963 0.72754 0.57948 0.0
H128 H 0.97136 0.53055 0.81617 0.0
H129 H 0.11135 0.98238 0.60725 0.0
H130 H 0.10928 0.92082 0.80189 0.0
H131 H 0.22089 0.72882 0.73617 0.0
Co132 Co 0.26782 0.04525 0.90759 0.0
C133 C 0.42558 0.03159 0.91448 0.0
C134 C 0.39818 0.12473 0.85904 0.0
C135 C 0.4697 0.10622 0.84691 0.0
N136 N 0.36919 0.07596 0.8996 0.0
N137 N 0.48596 0.0477 0.88207 0.0
H138 H 0.42138 0.98286 0.94252 0.0
H139 H 0.36933 0.16834 0.83661 0.0
C140 C 0.2281 0.17062 0.80795 0.0
O141 O 0.27168 0.14761 0.76307 0.0
N142 N 0.16963 0.00749 0.91664 0.0
C143 C 0.15478 0.93571 0.92095 0.0
C144 C 0.0821 0.92596 0.93302 0.0
C145 C 0.10555 0.04101 0.92782 0.0
N146 N 0.05167 0.99187 0.93718 0.0
C147 C 0.31662 0.92596 0.83524 0.0
C148 C 0.22513 0.94637 0.73539 0.0
C149 C 0.2393 0.8759 0.75639 0.0
C150 C 0.29598 0.86626 0.7991 0.0
C151 C 0.23436 0.00072 0.77981 0.0
N152 N 0.27837 0.98961 0.83067 0.0
H153 H 0.35269 0.91586 0.8742 0.0
H154 H 0.19538 0.04393 0.7787 0.0
H155 H 0.19443 0.89281 0.91601 0.0
H156 H 0.09858 0.0993 0.92946 0.0
O157 O 0.29709 0.96922 0.96645 0.0
O158 O 0.26463 0.08002 0.99435 0.0
O159 O 0.22591 0.13807 0.86245 0.0
C160 C 0.28466 0.01493 1.01135 0.0
H161 H 0.5054 0.13088 0.81238 0.0
H162 H 0.05395 0.8748 0.93895 0.0
H163 H 0.18459 0.95509 0.69937 0.0
H164 H 0.31263 0.81244 0.81382 0.0
Co165 Co 0.96666 0.25279 0.41604 0.0
C166 C 0.98056 0.40998 0.42522 0.0
C167 C 0.89649 0.38297 0.35951 0.0
C168 C 0.9185 0.45359 0.34838 0.0
N169 N 0.93744 0.35416 0.40626 0.0
N170 N 0.97131 0.46957 0.38995 0.0
H171 H 0.02485 0.40551 0.45843 0.0
H172 H 0.85712 0.35405 0.33184 0.0
C173 C 0.84652 0.2075 0.31131 0.0
O174 O 0.86866 0.25061 0.26576 0.0
N175 N 0.00181 0.15436 0.42635 0.0
C176 C 0.07178 0.13605 0.43804 0.0
C177 C 0.07719 0.06179 0.44259 0.0
C178 C 0.96516 0.09097 0.42453 0.0
N179 N 0.01036 0.03418 0.43371 0.0
C180 C 0.09131 0.30063 0.35073 0.0
C181 C 0.07693 0.21075 0.24952 0.0
C182 C 0.14617 0.22377 0.2743 0.0
C183 C 0.15365 0.27882 0.31867 0.0
C184 C 0.01935 0.22033 0.29056 0.0
N185 N 0.02742 0.26332 0.34227 0.0
H186 H 0.09866 0.33714 0.38983 0.0
H187 H 0.97576 0.18212 0.28658 0.0
H188 H 0.11646 0.174 0.44171 0.0
H189 H 0.90742 0.08622 0.4158 0.0
O190 O 0.03984 0.28138 0.4773 0.0
O191 O 0.92763 0.25041 0.5022 0.0
O192 O 0.8765 0.21005 0.36699 0.0
C193 C 0.99237 0.27024 0.52092 0.0
H194 H 0.90092 0.48848 0.31018 0.0
H195 H 0.12616 0.03064 0.45079 0.0
H196 H 0.07011 0.17106 0.21288 0.0
H197 H 0.20662 0.29431 0.33662 0.0
Co198 Co 0.75767 0.97433 0.91369 0.0
C199 C 0.59794 0.98634 0.91411 0.0
C200 C 0.63583 0.94553 0.82564 0.0
C201 C 0.5671 0.97355 0.81689 0.0
N202 N 0.6572 0.95564 0.88629 0.0
N203 N 0.54434 -0.00048 0.87255 0.0
H204 H 0.59657 0.00802 0.96142 0.0
H205 H 0.67 0.92825 0.78771 0.0
C206 C 0.81263 0.8661 0.80689 0.0
O207 O 0.78955 0.9071 0.76038 0.0
N208 N 0.85651 0.99834 0.94263 0.0
C209 C 0.87584 0.0619 0.97042 0.0
C210 C 0.95024 0.0662 0.97477 0.0
C211 C 0.92045 0.96447 0.93102 0.0
N212 N 0.97768 0.00564 0.94924 0.0
C213 C 0.72783 0.10108 0.84771 0.0
C214 C 0.87186 0.1095 0.81567 0.0
C215 C 0.83519 0.17272 0.83507 0.0
C216 C 0.76048 0.16936 0.8452 0.0
C217 C 0.83689 0.04355 0.81766 0.0
N218 N 0.76965 0.03973 0.84371 0.0
H219 H 0.6729 0.09831 0.86533 0.0
H220 H 0.8705 0.99605 0.81291 0.0
H221 H 0.83906 0.1051 0.98332 0.0
H222 H 0.9256 0.91377 0.9058 0.0
O223 O 0.72226 0.04669 0.97274 0.0
O224 O 0.73904 0.93089 0.99615 0.0
O225 O 0.79973 0.88414 0.86522 0.0
C226 C 0.72266 0.9964 1.01526 0.0
H227 H 0.5388 0.97999 0.77239 0.0
H228 H 0.98175 0.11121 0.99294 0.0
H229 H 0.92939 0.10916 0.80519 0.0
H230 H 0.72956 0.21749 0.85702 0.0
Co231 Co 0.03411 0.74221 0.4062 0.0
C232 C 0.02447 0.58522 0.42161 0.0
C233 C 0.08865 0.61159 0.34077 0.0
C234 C 0.06302 0.54162 0.33387 0.0
N235 N 0.06242 0.64069 0.39484 0.0
N236 N 0.02248 0.52612 0.38473 0.0
H237 H 0.99029 0.5899 0.4628 0.0
H238 H 0.11746 0.64061 0.30492 0.0
C239 C 0.1516 0.79019 0.29874 0.0
O240 O 0.12805 0.75047 0.25148 0.0
N241 N 0.99962 0.84059 0.41832 0.0
C242 C 0.93032 0.85831 0.43312 0.0
C243 C 0.92539 0.93212 0.44123 0.0
C244 C 0.03655 0.90389 0.4186 0.0
N245 N 0.99193 0.96012 0.43181 0.0
C246 C 0.90653 0.69432 0.34604 0.0
C247 C 0.91532 0.78321 0.24371 0.0
C248 C 0.84748 0.77099 0.27158 0.0
C249 C 0.84242 0.71628 0.31664 0.0
C250 C 0.97525 0.7739 0.28239 0.0
N251 N 0.96972 0.73177 0.33487 0.0
H252 H 0.90199 0.65733 0.38526 0.0
H253 H 0.01913 0.81135 0.27609 0.0
H254 H 0.88577 0.82023 0.43695 0.0
H255 H 0.09413 0.9089 0.40914 0.0
O256 O 0.96405 0.71376 0.47053 0.0
O257 O 0.07773 0.7449 0.4902 0.0
O258 O 0.12217 0.78531 0.35453 0.0
C259 C 0.01403 0.72596 0.51192 0.0
H260 H 0.06861 0.50724 0.29269 0.0
H261 H 0.87696 0.96273 0.45268 0.0
H262 H 0.92006 0.82186 0.20601 0.0
H263 H 0.7905 0.70103 0.33686 0.0
loop_
_geom_bond_atom_site_label_1
_geom_bond_atom_site_label_2
_geom_bond_distance
_geom_bond_site_symmetry_2
_ccdc_geom_bond_type
Co0 N4 2.148 . S
Co0 N10 2.128 . S
Co0 N20 2.194 1_565 S
Co0 O25 2.351 1_565 S
Co0 O26 2.155 . S
Co0 O27 2.096 . S
C1 N4 1.301 1_545 S
C1 N5 1.328 1_545 S
C1 H6 0.930 . S
C2 C3 1.333 . S
C2 N4 1.317 . S
C2 H7 0.930 . S
C3 C2 1.333 . S
C3 N5 1.350 . S
C3 H29 0.931 . S
N4 Co0 2.148 . S
N4 C1 1.301 1_565 S
N4 C2 1.317 . S
N5 C1 1.328 1_565 S
N5 C3 1.350 . S
H6 C1 0.930 . S
H7 C2 0.930 . S
C8 O9 1.224 . S
C8 O27 1.247 . S
O9 C8 1.224 . S
N10 Co0 2.128 . S
N10 C11 1.355 1_565 S
N10 C13 1.311 . S
C11 N10 1.355 1_545 S
C11 C12 1.363 . S
C11 H23 0.929 . S
C12 C11 1.363 . S
C12 N14 1.375 1_545 S
C12 H30 0.931 . S
C13 N10 1.311 . S
C13 N14 1.347 . S
C13 H24 0.929 . S
N14 C12 1.375 1_565 S
N14 C13 1.347 . S
C15 C18 1.365 . S
C15 N20 1.328 . S
C15 H21 0.929 . S
C16 C17 1.362 . S
C16 C19 1.378 . S
C16 H31 0.929 . S
C17 C16 1.362 . S
C17 C18 1.366 . S
C18 C15 1.365 . S
C18 C17 1.366 . S
C18 H32 0.930 . S
C19 C16 1.378 . S
C19 N20 1.315 . S
C19 H22 0.930 . S
N20 Co0 2.194 1_545 S
N20 C15 1.328 . S
N20 C19 1.315 . S
H21 C15 0.929 . S
H22 C19 0.930 . S
H23 C11 0.929 . S
H24 C13 0.929 . S
O25 Co0 2.351 1_545 S
O25 C28 1.244 1_545 S
O26 Co0 2.155 . S
O26 C28 1.240 . S
O27 Co0 2.096 . S
O27 C8 1.247 . S
C28 O25 1.244 1_565 S
C28 O26 1.240 . S
H29 C3 0.931 . S
H30 C12 0.931 . S
H31 C16 0.929 . S
H32 C18 0.930 . S
Co33 N37 2.148 . S
Co33 N43 2.128 . S
Co33 N53 2.194 1_455 S
Co33 O58 2.351 1_455 S
Co33 O59 2.155 . S
Co33 O60 2.096 . S
C34 N37 1.301 . S
C34 N38 1.328 . S
C34 H39 0.930 1_455 S
C35 C36 1.333 . S
C35 N37 1.317 . S
C35 H40 0.930 . S
C36 C35 1.333 . S
C36 N38 1.350 . S
C36 H62 0.931 . S
N37 Co33 2.148 . S
N37 C34 1.301 . S
N37 C35 1.317 . S
N38 C34 1.328 . S
N38 C36 1.350 . S
H39 C34 0.930 1_655 S
H40 C35 0.930 . S
C41 O42 1.224 . S
C41 O60 1.247 . S
O42 C41 1.224 . S
N43 Co33 2.128 . S
N43 C44 1.355 1_455 S
N43 C46 1.311 . S
C44 N43 1.355 1_655 S
C44 C45 1.363 . S
C44 H56 0.929 . S
C45 C44 1.363 . S
C45 N47 1.375 1_655 S
C45 H63 0.932 . S
C46 N43 1.311 . S
C46 N47 1.347 . S
C46 H57 0.929 . S
N47 C45 1.375 1_455 S
N47 C46 1.347 . S
C48 C51 1.365 . S
C48 N53 1.328 . S
C48 H54 0.929 . S
C49 C50 1.362 . S
C49 C52 1.378 . S
C49 H64 0.929 . S
C50 C49 1.362 . S
C50 C51 1.366 . S
C51 C48 1.365 . S
C51 C50 1.366 . S
C51 H65 0.930 . S
C52 C49 1.378 . S
C52 N53 1.315 . S
C52 H55 0.930 . S
N53 Co33 2.194 1_655 S
N53 C48 1.328 . S
N53 C52 1.315 . S
H54 C48 0.929 . S
H55 C52 0.930 . S
H56 C44 0.929 . S
H57 C46 0.929 . S
O58 Co33 2.351 1_655 S
O58 C61 1.244 1_655 S
O59 Co33 2.155 . S
O59 C61 1.240 . S
O60 Co33 2.096 . S
O60 C41 1.247 . S
C61 O58 1.244 1_455 S
C61 O59 1.240 . S
H62 C36 0.931 . S
H63 C45 0.932 . S
H64 C49 0.929 . S
H65 C51 0.930 . S
Co66 N70 2.148 . S
Co66 N76 2.128 . S
Co66 N86 2.194 1_545 S
Co66 O91 2.351 1_545 S
Co66 O92 2.155 . S
Co66 O93 2.096 . S
C67 N70 1.301 . S
C67 N71 1.328 . S
C67 H72 0.930 1_545 S
C68 C69 1.333 . S
C68 N70 1.317 . S
C68 H73 0.930 . S
C69 C68 1.333 . S
C69 N71 1.350 . S
C69 H95 0.931 . S
N70 Co66 2.148 . S
N70 C67 1.301 . S
N70 C68 1.317 . S
N71 C67 1.328 . S
N71 C69 1.350 . S
H72 C67 0.930 1_565 S
H73 C68 0.930 . S
C74 O75 1.224 . S
C74 O93 1.247 . S
O75 C74 1.224 . S
N76 Co66 2.128 . S
N76 C77 1.355 1_545 S
N76 C79 1.311 . S
C77 N76 1.355 1_565 S
C77 C78 1.363 . S
C77 H89 0.929 . S
C78 C77 1.363 . S
C78 N80 1.375 1_565 S
C78 H96 0.931 1_655 S
C79 N76 1.311 . S
C79 N80 1.347 . S
C79 H90 0.929 . S
N80 C78 1.375 1_545 S
N80 C79 1.347 . S
C81 C84 1.365 . S
C81 N86 1.328 . S
C81 H87 0.929 . S
C82 C83 1.362 . S
C82 C85 1.378 . S
C82 H97 0.929 . S
C83 C82 1.362 . S
C83 C84 1.366 . S
C84 C81 1.365 . S
C84 C83 1.366 . S
C84 H98 0.930 . S
C85 C82 1.378 . S
C85 N86 1.315 . S
C85 H88 0.930 . S
N86 Co66 2.194 1_565 S
N86 C81 1.328 . S
N86 C85 1.315 . S
H87 C81 0.929 . S
H88 C85 0.930 . S
H89 C77 0.929 . S
H90 C79 0.929 . S
O91 Co66 2.351 1_565 S
O91 C94 1.244 1_565 S
O92 Co66 2.155 . S
O92 C94 1.240 . S
O93 Co66 2.096 . S
O93 C74 1.247 . S
C94 O91 1.244 1_545 S
C94 O92 1.240 . S
H95 C69 0.931 . S
H96 C78 0.931 1_455 S
H97 C82 0.929 . S
H98 C84 0.930 . S
Co99 N103 2.148 . S
Co99 N109 2.128 . S
Co99 N119 2.194 1_655 S
Co99 O124 2.351 1_655 S
Co99 O125 2.155 . S
Co99 O126 2.096 . S
C100 N103 1.301 1_455 S
C100 N104 1.328 1_455 S
C100 H105 0.930 . S
C101 C102 1.333 . S
C101 N103 1.317 . S
C101 H106 0.930 . S
C102 C101 1.333 . S
C102 N104 1.350 . S
C102 H128 0.931 . S
N103 Co99 2.148 . S
N103 C100 1.301 1_655 S
N103 C101 1.317 . S
N104 C100 1.328 1_655 S
N104 C102 1.350 . S
H105 C100 0.930 . S
H106 C101 0.930 . S
C107 O108 1.224 . S
C107 O126 1.247 . S
O108 C107 1.224 . S
N109 Co99 2.128 . S
N109 C110 1.355 1_655 S
N109 C112 1.311 . S
C110 N109 1.355 1_455 S
C110 C111 1.363 . S
C110 H122 0.929 . S
C111 C110 1.363 . S
C111 N113 1.375 1_455 S
C111 H129 0.931 1_565 S
C112 N109 1.311 . S
C112 N113 1.347 . S
C112 H123 0.929 . S
N113 C111 1.375 1_655 S
N113 C112 1.347 . S
C114 C117 1.365 . S
C114 N119 1.328 . S
C114 H120 0.929 . S
C115 C116 1.362 . S
C115 C118 1.378 . S
C115 H130 0.929 . S
C116 C115 1.362 . S
C116 C117 1.366 . S
C117 C114 1.365 . S
C117 C116 1.366 . S
C117 H131 0.930 . S
C118 C115 1.378 . S
C118 N119 1.315 . S
C118 H121 0.930 . S
N119 Co99 2.194 1_455 S
N119 C114 1.328 . S
N119 C118 1.315 . S
H120 C114 0.929 . S
H121 C118 0.930 . S
H122 C110 0.929 . S
H123 C112 0.929 . S
O124 Co99 2.351 1_455 S
O124 C127 1.244 1_455 S
O125 Co99 2.155 . S
O125 C127 1.240 . S
O126 Co99 2.096 . S
O126 C107 1.247 . S
C127 O124 1.244 1_655 S
C127 O125 1.240 . S
H128 C102 0.931 . S
H129 C111 0.931 1_545 S
H130 C115 0.929 . S
H131 C117 0.930 . S
Co132 N136 2.148 . S
Co132 N142 2.128 . S
Co132 N152 2.194 1_545 S
Co132 O157 2.351 1_545 S
Co132 O158 2.155 . S
Co132 O159 2.096 . S
C133 N136 1.301 . S
C133 N137 1.328 . S
C133 H138 0.930 1_545 S
C134 C135 1.333 . S
C134 N136 1.317 . S
C134 H139 0.930 . S
C135 C134 1.333 . S
C135 N137 1.350 . S
C135 H161 0.931 . S
N136 Co132 2.148 . S
N136 C133 1.301 . S
N136 C134 1.317 . S
N137 C133 1.328 . S
N137 C135 1.350 . S
H138 C133 0.930 1_565 S
H139 C134 0.930 . S
C140 O141 1.224 . S
C140 O159 1.247 . S
O141 C140 1.224 . S
N142 Co132 2.128 . S
N142 C143 1.355 1_545 S
N142 C145 1.311 . S
C143 N142 1.355 1_565 S
C143 C144 1.363 . S
C143 H155 0.929 . S
C144 C143 1.363 . S
C144 N146 1.375 1_565 S
C144 H162 0.932 . S
C145 N142 1.311 . S
C145 N146 1.347 . S
C145 H156 0.929 . S
N146 C144 1.375 1_545 S
N146 C145 1.347 . S
C147 C150 1.365 . S
C147 N152 1.328 . S
C147 H153 0.929 . S
C148 C149 1.362 . S
C148 C151 1.378 . S
C148 H163 0.929 . S
C149 C148 1.362 . S
C149 C150 1.366 . S
C150 C147 1.365 . S
C150 C149 1.366 . S
C150 H164 0.930 . S
C151 C148 1.378 . S
C151 N152 1.315 . S
C151 H154 0.930 . S
N152 Co132 2.194 1_565 S
N152 C147 1.328 . S
N152 C151 1.315 . S
H153 C147 0.929 . S
H154 C151 0.930 . S
H155 C143 0.929 . S
H156 C145 0.929 . S
O157 Co132 2.351 1_565 S
O157 C160 1.244 1_565 S
O158 Co132 2.155 . S
O158 C160 1.240 . S
O159 Co132 2.096 . S
O159 C140 1.247 . S
C160 O157 1.244 1_545 S
C160 O158 1.240 . S
H161 C135 0.931 . S
H162 C144 0.932 . S
H163 C148 0.929 . S
H164 C150 0.930 . S
Co165 N169 2.148 . S
Co165 N175 2.128 . S
Co165 N185 2.194 1_655 S
Co165 O190 2.351 1_655 S
Co165 O191 2.155 . S
Co165 O192 2.096 . S
C166 N169 1.301 1_455 S
C166 N170 1.328 1_455 S
C166 H171 0.930 . S
C167 C168 1.333 . S
C167 N169 1.317 . S
C167 H172 0.930 . S
C168 C167 1.333 . S
C168 N170 1.350 . S
C168 H194 0.931 . S
N169 Co165 2.148 . S
N169 C166 1.301 1_655 S
N169 C167 1.317 . S
N170 C166 1.328 1_655 S
N170 C168 1.350 . S
H171 C166 0.930 . S
H172 C167 0.930 . S
C173 O174 1.224 . S
C173 O192 1.247 . S
O174 C173 1.224 . S
N175 Co165 2.128 . S
N175 C176 1.355 1_655 S
N175 C178 1.311 . S
C176 N175 1.355 1_455 S
C176 C177 1.363 . S
C176 H188 0.929 . S
C177 C176 1.363 . S
C177 N179 1.375 1_455 S
C177 H195 0.931 . S
C178 N175 1.311 . S
C178 N179 1.347 . S
C178 H189 0.929 . S
N179 C177 1.375 1_655 S
N179 C178 1.347 . S
C180 C183 1.365 . S
C180 N185 1.328 . S
C180 H186 0.929 . S
C181 C182 1.362 . S
C181 C184 1.378 . S
C181 H196 0.929 . S
C182 C181 1.362 . S
C182 C183 1.366 . S
C183 C180 1.365 . S
C183 C182 1.366 . S
C183 H197 0.930 . S
C184 C181 1.378 . S
C184 N185 1.315 . S
C184 H187 0.930 . S
N185 Co165 2.194 1_455 S
N185 C180 1.328 . S
N185 C184 1.315 . S
H186 C180 0.929 . S
H187 C184 0.930 . S
H188 C176 0.929 . S
H189 C178 0.929 . S
O190 Co165 2.351 1_455 S
O190 C193 1.244 1_455 S
O191 Co165 2.155 . S
O191 C193 1.240 . S
O192 Co165 2.096 . S
O192 C173 1.247 . S
C193 O190 1.244 1_655 S
C193 O191 1.240 . S
H194 C168 0.931 . S
H195 C177 0.931 . S
H196 C181 0.929 . S
H197 C183 0.930 . S
Co198 N202 2.148 . S
Co198 N208 2.128 . S
Co198 N218 2.194 1_565 S
Co198 O223 2.351 1_565 S
Co198 O224 2.155 . S
Co198 O225 2.096 . S
C199 N202 1.301 1_545 S
C199 N203 1.328 1_545 S
C199 H204 0.930 . S
C200 C201 1.333 . S
C200 N202 1.317 . S
C200 H205 0.930 . S
C201 C200 1.333 . S
C201 N203 1.350 . S
C201 H227 0.931 . S
N202 Co198 2.148 . S
N202 C199 1.301 1_565 S
N202 C200 1.317 . S
N203 C199 1.328 1_565 S
N203 C201 1.350 . S
H204 C199 0.930 . S
H205 C200 0.930 . S
C206 O207 1.224 . S
C206 O225 1.247 . S
O207 C206 1.224 . S
N208 Co198 2.128 . S
N208 C209 1.355 1_565 S
N208 C211 1.311 . S
C209 N208 1.355 1_545 S
C209 C210 1.363 . S
C209 H221 0.929 . S
C210 C209 1.363 . S
C210 N212 1.375 1_545 S
C210 H228 0.931 1_655 S
C211 N208 1.311 . S
C211 N212 1.347 . S
C211 H222 0.929 . S
N212 C210 1.375 1_565 S
N212 C211 1.347 . S
C213 C216 1.365 . S
C213 N218 1.328 . S
C213 H219 0.929 . S
C214 C215 1.362 . S
C214 C217 1.378 . S
C214 H229 0.929 . S
C215 C214 1.362 . S
C215 C216 1.366 . S
C216 C213 1.365 . S
C216 C215 1.366 . S
C216 H230 0.930 . S
C217 C214 1.378 . S
C217 N218 1.315 . S
C217 H220 0.930 . S
N218 Co198 2.194 1_545 S
N218 C213 1.328 . S
N218 C217 1.315 . S
H219 C213 0.929 . S
H220 C217 0.930 . S
H221 C209 0.929 . S
H222 C211 0.929 . S
O223 Co198 2.351 1_545 S
O223 C226 1.244 1_545 S
O224 Co198 2.155 . S
O224 C226 1.240 . S
O225 Co198 2.096 . S
O225 C206 1.247 . S
C226 O223 1.244 1_565 S
C226 O224 1.240 . S
H227 C201 0.931 . S
H228 C210 0.931 1_455 S
H229 C214 0.929 . S
H230 C216 0.930 . S
Co231 N235 2.148 . S
Co231 N241 2.128 . S
Co231 N251 2.194 1_455 S
Co231 O256 2.351 1_455 S
Co231 O257 2.155 . S
Co231 O258 2.096 . S
C232 N235 1.301 . S
C232 N236 1.328 . S
C232 H237 0.930 1_455 S
C233 C234 1.333 . S
C233 N235 1.317 . S
C233 H238 0.930 . S
C234 C233 1.333 . S
C234 N236 1.350 . S
C234 H260 0.931 . S
N235 Co231 2.148 . S
N235 C232 1.301 . S
N235 C233 1.317 . S
N236 C232 1.328 . S
N236 C234 1.350 . S
H237 C232 0.930 1_655 S
H238 C233 0.930 . S
C239 O240 1.224 . S
C239 O258 1.247 . S
O240 C239 1.224 . S
N241 Co231 2.128 . S
N241 C242 1.355 1_455 S
N241 C244 1.311 . S
C242 N241 1.355 1_655 S
C242 C243 1.363 . S
C242 H254 0.929 . S
C243 C242 1.363 . S
C243 N245 1.375 1_655 S
C243 H261 0.931 1_565 S
C244 N241 1.311 . S
C244 N245 1.347 . S
C244 H255 0.929 . S
N245 C243 1.375 1_455 S
N245 C244 1.347 . S
C246 C249 1.365 . S
C246 N251 1.328 . S
C246 H252 0.929 . S
C247 C248 1.362 . S
C247 C250 1.378 . S
C247 H262 0.929 . S
C248 C247 1.362 . S
C248 C249 1.366 . S
C249 C246 1.365 . S
C249 C248 1.366 . S
C249 H263 0.930 . S
C250 C247 1.378 . S
C250 N251 1.315 . S
C250 H253 0.930 . S
N251 Co231 2.194 1_655 S
N251 C246 1.328 . S
N251 C250 1.315 . S
H252 C246 0.929 . S
H253 C250 0.930 . S
H254 C242 0.929 . S
H255 C244 0.929 . S
O256 Co231 2.351 1_655 S
O256 C259 1.244 1_655 S
O257 Co231 2.155 . S
O257 C259 1.240 . S
O258 Co231 2.096 . S
O258 C239 1.247 . S
C259 O256 1.244 1_455 S
C259 O257 1.240 . S
H260 C234 0.931 . S
H261 C243 0.931 1_545 S
H262 C247 0.929 . S
H263 C249 0.930 . S
C28 C160 1.861 1_564 S
C193 C61 1.861 1_655 S
C94 C226 1.861 1_544 S
C259 C127 1.861 1_455 S
C182 C17 0.867 . S
C215 C50 0.867 . S
C83 C248 0.867 . S
C149 C116 0.867 . S
C107 C206 2.054 . S
C8 C239 2.054 . S
C41 C140 2.054 . S
C74 C173 2.054 . S
N14 N80 1.174 1_465 S
N47 N113 1.174 1_445 S
N212 N146 1.174 1_665 S
N245 N179 1.174 1_465 S
N5 N71 1.449 1_565 S
N104 N38 1.449 1_655 S
N137 N203 1.449 1_545 S
N170 N236 1.449 1_655 S
