# Generated by pormake.
# Topology lcy-e, (6)-cn, num edge types: 1
# Building blocks:
#     Node 0, Type 0, BuildingBlock: CUKXOW_clean_sbu_0, # of connection points: 6
#     Node 1, Type 0, BuildingBlock: CUKXOW_clean_sbu_0, # of connection points: 6
#     Node 2, Type 0, BuildingBlock: CUKXOW_clean_sbu_0, # of connection points: 6
#     Node 3, Type 0, BuildingBlock: CUKXOW_clean_sbu_0, # of connection points: 6
#     Node 4, Type 0, BuildingBlock: CUKXOW_clean_sbu_0, # of connection points: 6
#     Node 5, Type 0, BuildingBlock: CUKXOW_clean_sbu_0, # of connection points: 6
#     Node 6, Type 0, BuildingBlock: CUKXOW_clean_sbu_0, # of connection points: 6
#     Node 7, Type 0, BuildingBlock: CUKXOW_clean_sbu_0, # of connection points: 6
#     Node 8, Type 0, BuildingBlock: CUKXOW_clean_sbu_0, # of connection points: 6
#     Node 9, Type 0, BuildingBlock: CUKXOW_clean_sbu_0, # of connection points: 6
#     Node 10, Type 0, BuildingBlock: CUKXOW_clean_sbu_0, # of connection points: 6
#     Node 11, Type 0, BuildingBlock: CUKXOW_clean_sbu_0, # of connection points: 6
#     Edge 12, Type (0, 0), BuildingBlock: XUDNAN_clean_linker_2, # of connection points: 2
#     Edge 13, Type (0, 0), BuildingBlock: XUDNAN_clean_linker_2, # of connection points: 2
#     Edge 14, Type (0, 0), BuildingBlock: XUDNAN_clean_linker_2, # of connection points: 2
#     Edge 15, Type (0, 0), BuildingBlock: XUDNAN_clean_linker_2, # of connection points: 2
#     Edge 16, Type (0, 0), BuildingBlock: XUDNAN_clean_linker_2, # of connection points: 2
#     Edge 17, Type (0, 0), BuildingBlock: XUDNAN_clean_linker_2, # of connection points: 2
#     Edge 18, Type (0, 0), BuildingBlock: XUDNAN_clean_linker_2, # of connection points: 2
#     Edge 19, Type (0, 0), BuildingBlock: XUDNAN_clean_linker_2, # of connection points: 2
#     Edge 20, Type (0, 0), BuildingBlock: XUDNAN_clean_linker_2, # of connection points: 2
#     Edge 21, Type (0, 0), BuildingBlock: XUDNAN_clean_linker_2, # of connection points: 2
#     Edge 22, Type (0, 0), BuildingBlock: XUDNAN_clean_linker_2, # of connection points: 2
#     Edge 23, Type (0, 0), BuildingBlock: XUDNAN_clean_linker_2, # of connection points: 2
#     Edge 24, Type (0, 0), BuildingBlock: XUDNAN_clean_linker_2, # of connection points: 2
#     Edge 25, Type (0, 0), BuildingBlock: XUDNAN_clean_linker_2, # of connection points: 2
#     Edge 26, Type (0, 0), BuildingBlock: XUDNAN_clean_linker_2, # of connection points: 2
#     Edge 27, Type (0, 0), BuildingBlock: XUDNAN_clean_linker_2, # of connection points: 2
#     Edge 28, Type (0, 0), BuildingBlock: XUDNAN_clean_linker_2, # of connection points: 2
#     Edge 29, Type (0, 0), BuildingBlock: XUDNAN_clean_linker_2, # of connection points: 2
#     Edge 30, Type (0, 0), BuildingBlock: XUDNAN_clean_linker_2, # of connection points: 2
#     Edge 31, Type (0, 0), BuildingBlock: XUDNAN_clean_linker_2, # of connection points: 2
#     Edge 32, Type (0, 0), BuildingBlock: XUDNAN_clean_linker_2, # of connection points: 2
#     Edge 33, Type (0, 0), BuildingBlock: XUDNAN_clean_linker_2, # of connection points: 2
#     Edge 34, Type (0, 0), BuildingBlock: XUDNAN_clean_linker_2, # of connection points: 2
#     Edge 35, Type (0, 0), BuildingBlock: XUDNAN_clean_linker_2, # of connection points: 2
#     Edge 36, Type (0, 0), BuildingBlock: XUDNAN_clean_linker_2, # of connection points: 2
#     Edge 37, Type (0, 0), BuildingBlock: XUDNAN_clean_linker_2, # of connection points: 2
#     Edge 38, Type (0, 0), BuildingBlock: XUDNAN_clean_linker_2, # of connection points: 2
#     Edge 39, Type (0, 0), BuildingBlock: XUDNAN_clean_linker_2, # of connection points: 2
#     Edge 40, Type (0, 0), BuildingBlock: XUDNAN_clean_linker_2, # of connection points: 2
#     Edge 41, Type (0, 0), BuildingBlock: XUDNAN_clean_linker_2, # of connection points: 2
#     Edge 42, Type (0, 0), BuildingBlock: XUDNAN_clean_linker_2, # of connection points: 2
#     Edge 43, Type (0, 0), BuildingBlock: XUDNAN_clean_linker_2, # of connection points: 2
#     Edge 44, Type (0, 0), BuildingBlock: XUDNAN_clean_linker_2, # of connection points: 2
#     Edge 45, Type (0, 0), BuildingBlock: XUDNAN_clean_linker_2, # of connection points: 2
#     Edge 46, Type (0, 0), BuildingBlock: XUDNAN_clean_linker_2, # of connection points: 2
#     Edge 47, Type (0, 0), BuildingBlock: XUDNAN_clean_linker_2, # of connection points: 2
# Relax obj value: 0.161
# Max RMSD: 0.260
# Mean RMSD: 0.229
data_MOF--net-lcy-e--node1-CUKXOW_clean_sbu_0--edge1-XUDNAN_clean_linker_2
_symmetry_space_group_name_H-M    P1
_symmetry_Int_Tables_number       1
_symmetry_cell_setting            triclinic
loop_
_symmetry_equiv_pos_as_xyz
'x, y, z'
_cell_length_a     34.709374
_cell_length_b     37.57497
_cell_length_c     37.764241
_cell_angle_alpha  90.160271
_cell_angle_beta   91.402456
_cell_angle_gamma 88.69922
loop_
_atom_site_label
_atom_site_type_symbol
_atom_site_fract_x
_atom_site_fract_y
_atom_site_fract_z
_atom_type_partial_charge
Tb0 Tb 0.1689 0.18943 0.42605 0.0
C1 C 0.09575 0.14123 0.42146 0.0
Tb2 Tb 0.09627 0.20955 0.46936 0.0
O3 O 0.17789 0.14154 0.45799 0.0
O4 O 0.15199 0.18738 0.47912 0.0
O5 O 0.12527 0.15358 0.4035 0.0
C6 C 0.04856 0.2166 0.52276 0.0
O7 O 0.08425 0.15592 0.45148 0.0
C8 C 0.09359 0.22527 0.40199 0.0
C9 C 0.16596 0.2624 0.47075 0.0
O10 O 0.07094 0.18917 0.5171 0.0
O11 O 0.0529 0.24028 0.49816 0.0
O12 O 0.06258 0.21939 0.4196 0.0
O13 O 0.12197 0.22529 0.42289 0.0
O14 O 0.13264 0.25387 0.48484 0.0
O15 O 0.18364 0.24231 0.44658 0.0
C16 C 0.23102 0.18679 0.38613 0.0
O17 O 0.23129 0.18752 0.42048 0.0
O18 O 0.19554 0.18745 0.37401 0.0
C19 C 0.16095 0.15543 0.48511 0.0
Tb20 Tb 0.11598 0.92718 0.71281 0.0
C21 C 0.15098 0.84951 0.70618 0.0
Tb22 Tb 0.08503 0.87083 0.76085 0.0
O23 O 0.17118 0.92733 0.74032 0.0
O24 O 0.12097 0.91569 0.76797 0.0
O25 O 0.14658 0.88116 0.69053 0.0
C26 C 0.08094 0.82538 0.81457 0.0
O27 O 0.13197 0.84102 0.73513 0.0
C28 C 0.04869 0.8786 0.69908 0.0
C29 C 0.04151 0.94346 0.75853 0.0
O30 O 0.05595 0.82828 0.78853 0.0
O31 O 0.10811 0.84785 0.81016 0.0
O32 O 0.03177 0.867 0.72704 0.0
O33 O 0.08372 0.88142 0.70651 0.0
O34 O 0.05108 0.91615 0.77928 0.0
O35 O 0.06011 0.94969 0.72897 0.0
C36 C 0.12359 0.98189 0.66988 0.0
O37 O 0.11771 0.94944 0.6595 0.0
O38 O 0.12601 0.98324 0.7041 0.0
C39 C 0.15755 0.91608 0.76977 0.0
Tb40 Tb 0.44763 0.81733 0.96572 0.0
C41 C 0.36487 0.84181 0.93353 0.0
Tb42 Tb 0.37383 0.78565 0.99381 0.0
O43 O 0.45875 0.76912 0.93376 0.0
O44 O 0.40439 0.7834 0.94588 0.0
O45 O 0.40143 0.8512 0.93973 0.0
C46 C 0.31881 0.73956 1.00451 0.0
O47 O 0.35031 0.81306 0.94782 0.0
C48 C 0.39271 0.84724 0.02105 0.0
C49 C 0.45182 0.7673 0.03516 0.0
O50 O 0.31781 0.7726 0.01477 0.0
O51 O 0.35096 0.73243 0.98887 0.0
O52 O 0.35742 0.83616 0.01998 0.0
O53 O 0.41482 0.82246 1.01128 0.0
O54 O 0.41642 0.75681 0.02717 0.0
O55 O 0.46788 0.7935 0.01703 0.0
C56 C 0.50751 0.85739 0.94838 0.0
O57 O 0.50946 0.82418 0.95763 0.0
O58 O 0.47166 0.86807 0.94845 0.0
C59 C 0.42325 0.7592 0.93076 0.0
Tb60 Tb 0.46248 0.13876 0.14855 0.0
C61 C 0.43003 0.21748 0.14819 0.0
Tb62 Tb 0.50255 0.19496 0.19713 0.0
O63 O 0.40933 0.14419 0.1771 0.0
O64 O 0.46225 0.15357 0.20292 0.0
O65 O 0.43412 0.18758 0.12942 0.0
C66 C 0.5189 0.23299 0.25559 0.0
O67 O 0.45089 0.22417 0.17748 0.0
C68 C 0.53709 0.18137 0.13657 0.0
C69 C 0.53491 0.11619 0.19805 0.0
O70 O 0.51231 0.2465 0.22419 0.0
O71 O 0.51649 0.19878 0.25355 0.0
O72 O 0.55436 0.1965 0.1635 0.0
O73 O 0.5019 0.1799 0.14341 0.0
O74 O 0.53303 0.14705 0.21494 0.0
O75 O 0.51238 0.10839 0.17033 0.0
C76 C 0.44094 0.08814 0.10303 0.0
O77 O 0.43522 0.08816 0.13679 0.0
O78 O 0.45905 0.11669 0.09464 0.0
C79 C 0.42605 0.15552 0.20593 0.0
Tb80 Tb 0.62144 0.35503 0.5631 0.0
C81 C 0.70572 0.35812 0.59428 0.0
Tb82 Tb 0.68307 0.30687 0.53077 0.0
O83 O 0.62423 0.32635 0.6127 0.0
O84 O 0.6363 0.29953 0.56536 0.0
O85 O 0.67343 0.37696 0.5872 0.0
C86 C 0.72569 0.24855 0.51678 0.0
O87 O 0.71337 0.32703 0.57847 0.0
C88 C 0.67053 0.36968 0.50016 0.0
C89 C 0.60192 0.31038 0.49281 0.0
O90 O 0.73856 0.2809 0.5171 0.0
O91 O 0.68969 0.24942 0.52488 0.0
O92 O 0.68312 0.34177 0.48308 0.0
O93 O 0.66983 0.36198 0.5323 0.0
O94 O 0.63511 0.29272 0.49633 0.0
O95 O 0.59106 0.33588 0.51512 0.0
C96 C 0.56566 0.40269 0.57672 0.0
O97 O 0.57494 0.37533 0.59612 0.0
O98 O 0.58808 0.40355 0.54977 0.0
C99 C 0.63701 0.29692 0.59895 0.0
Tb100 Tb 0.92871 0.42734 0.84224 0.0
C101 C 0.89245 0.35173 0.84236 0.0
Tb102 Tb 0.96038 0.37103 0.79185 0.0
O103 O 0.87397 0.42832 0.81285 0.0
O104 O 0.92524 0.41727 0.78678 0.0
O105 O 0.90022 0.37987 0.86279 0.0
C106 C 0.96666 0.32429 0.73934 0.0
O107 O 0.90869 0.34658 0.81129 0.0
C108 C 0.99822 0.37767 0.85192 0.0
C109 C 1.00201 0.44322 0.7938 0.0
O110 O 0.97518 0.3177 0.77236 0.0
O111 O 0.95533 0.35722 0.73588 0.0
O112 O 0.01435 0.3667 0.82305 0.0
O113 O 0.96241 0.38025 0.84703 0.0
O114 O 0.99497 0.41435 0.77479 0.0
O115 O 0.98177 0.45193 0.82237 0.0
C116 C 0.91062 0.48158 0.88582 0.0
O117 O 0.89666 0.47619 0.85428 0.0
O118 O 0.93538 0.45599 0.8935 0.0
C119 C 0.88904 0.41828 0.78339 0.0
Tb120 Tb 0.85502 0.70241 0.12021 0.0
C121 C 0.93395 0.65685 0.12947 0.0
Tb122 Tb 0.92561 0.72415 0.0817 0.0
O123 O 0.82901 0.68443 0.06997 0.0
O124 O 0.88809 0.68067 0.07837 0.0
O125 O 0.89953 0.66507 0.14262 0.0
C126 C 0.97355 0.73619 0.02941 0.0
O127 O 0.94743 0.67362 0.10173 0.0
C128 C 0.92139 0.74796 0.14678 0.0
C129 C 0.84975 0.77348 0.07571 0.0
O130 O 0.98118 0.74168 0.06278 0.0
O131 O 0.93893 0.72431 0.02554 0.0
O132 O 0.95376 0.74221 0.13094 0.0
O133 O 0.89398 0.7444 0.12477 0.0
O134 O 0.88287 0.76357 0.06128 0.0
O135 O 0.83538 0.75568 0.10265 0.0
C136 C 0.803 0.68486 0.16799 0.0
O137 O 0.79901 0.68123 0.13397 0.0
O138 O 0.83625 0.69861 0.17519 0.0
C139 C 0.86161 0.67601 0.05573 0.0
Tb140 Tb 0.55361 0.66725 0.35371 0.0
C141 C 0.56602 0.58909 0.38619 0.0
Tb142 Tb 0.50954 0.60573 0.3218 0.0
O143 O 0.50015 0.68996 0.37347 0.0
O144 O 0.50605 0.63562 0.37041 0.0
O145 O 0.57998 0.62194 0.38394 0.0
C146 C 0.45113 0.56367 0.30323 0.0
O147 O 0.53444 0.57938 0.36842 0.0
C148 C 0.58093 0.6104 0.30129 0.0
C149 C 0.51133 0.67739 0.27757 0.0
O150 O 0.48735 0.5542 0.30432 0.0
O151 O 0.44778 0.5969 0.31248 0.0
O152 O 0.56152 0.58134 0.29781 0.0
O153 O 0.55794 0.6351 0.30907 0.0
O154 O 0.49193 0.64796 0.28355 0.0
O155 O 0.54025 0.68668 0.29939 0.0
C156 C 0.59721 0.72278 0.37331 0.0
O157 O 0.5609 0.72368 0.36491 0.0
O158 O 0.60956 0.68982 0.37161 0.0
C159 C 0.48277 0.66049 0.3786 0.0
Tb160 Tb 0.16548 0.40321 0.15436 0.0
C161 C 0.13515 0.41441 0.07735 0.0
Tb162 Tb 0.19047 0.46734 0.11566 0.0
O163 O 0.10756 0.42365 0.1633 0.0
O164 O 0.15198 0.45905 0.15798 0.0
O165 O 0.14787 0.39014 0.1004 0.0
C166 C 0.19627 0.52868 0.08133 0.0
O167 O 0.14437 0.44825 0.08068 0.0
C168 C 0.23835 0.41206 0.11426 0.0
C169 C 0.22687 0.45456 0.1905 0.0
O170 O 0.21119 0.4985 0.07125 0.0
O171 O 0.17883 0.52435 0.11078 0.0
O172 O 0.24965 0.44475 0.1147 0.0
O173 O 0.20225 0.41179 0.11211 0.0
O174 O 0.21729 0.47904 0.16654 0.0
O175 O 0.21252 0.422 0.18943 0.0
C176 C 0.15523 0.34076 0.18564 0.0
O177 O 0.18502 0.36063 0.1905 0.0
O178 O 0.13165 0.35607 0.16324 0.0
C179 C 0.11573 0.45659 0.15893 0.0
Tb180 Tb 0.72122 0.09671 0.85498 0.0
C181 C 0.68401 0.10274 0.9303 0.0
Tb182 Tb 0.76094 0.05717 0.92035 0.0
O183 O 0.67142 0.06246 0.85674 0.0
O184 O 0.7252 0.04408 0.87562 0.0
O185 O 0.68849 0.11943 0.89944 0.0
C186 C 0.7779 1.00372 0.96562 0.0
O187 O 0.70536 0.07462 0.94062 0.0
C188 C 0.78828 0.12072 0.90564 0.0
C189 C 0.80301 0.05522 0.84822 0.0
O190 O 0.76725 0.03588 0.97485 0.0
O191 O 0.77928 1.00226 0.93144 0.0
O192 O 0.80692 0.09782 0.92601 0.0
O193 O 0.7553 0.10882 0.89983 0.0
O194 O 0.7982 0.0393 0.87889 0.0
O195 O 0.77913 0.0809 0.83591 0.0
C196 C 0.70249 0.13203 0.79477 0.0
O197 O 0.71184 0.0985 0.79738 0.0
O198 O 0.70308 0.14596 0.82641 0.0
C199 C 0.68977 0.037 0.87359 0.0
Tb200 Tb 0.85295 0.93779 0.42402 0.0
C201 C 0.85668 0.89693 0.35061 0.0
Tb202 Tb 0.8081 0.96747 0.36052 0.0
O203 O 0.80016 0.91677 0.44666 0.0
O204 O 0.8039 0.92235 0.39305 0.0
O205 O 0.87489 0.90346 0.38134 0.0
C206 C 0.75021 0.98884 0.31704 0.0
O207 O 0.82485 0.91495 0.34056 0.0
C208 C 0.88059 0.98662 0.36448 0.0
C209 C 0.81021 1.0125 0.43184 0.0
O210 O 0.78497 0.98074 0.30742 0.0
O211 O 0.74806 0.98488 0.35101 0.0
O212 O 0.86031 0.98534 0.33517 0.0
O213 O 0.85839 0.98206 0.38988 0.0
O214 O 0.79084 1.00566 0.40191 0.0
O215 O 0.83946 0.99168 0.44298 0.0
C216 C 0.90371 0.91771 0.47507 0.0
O217 O 0.86697 0.92236 0.47874 0.0
O218 O 0.91205 0.92388 0.44231 0.0
C219 C 0.7808 0.91565 0.41697 0.0
Tb220 Tb 0.29991 0.5942 0.66498 0.0
C221 C 0.32075 0.6065 0.5827 0.0
Tb222 Tb 0.25752 0.55206 0.6048 0.0
O223 O 0.33665 0.54662 0.67745 0.0
O224 O 0.31265 0.55408 0.62847 0.0
O225 O 0.32311 0.61861 0.61624 0.0
C226 C 0.24246 0.49519 0.5647 0.0
O227 O 0.29896 0.57932 0.57285 0.0
C228 C 0.23183 0.61662 0.61647 0.0
C229 C 0.23055 0.54452 0.68429 0.0
O230 O 0.27548 0.50278 0.57909 0.0
O231 O 0.21719 0.51998 0.57257 0.0
O232 O 0.22776 0.60069 0.58582 0.0
O233 O 0.24534 0.59492 0.63917 0.0
O234 O 0.23373 0.52897 0.65278 0.0
O235 O 0.25029 0.57343 0.6929 0.0
C236 C 0.32721 0.63897 0.71458 0.0
O237 O 0.32727 0.60457 0.71673 0.0
O238 O 0.31197 0.64847 0.68406 0.0
C239 C 0.33182 0.53199 0.64657 0.0
H240 H 0.13235 0.31906 0.50602 0.0
H241 H 0.23949 0.28328 0.45897 0.0
H242 H 0.26899 0.34024 0.47534 0.0
H243 H 0.13751 0.41106 0.47797 0.0
H244 H 0.11747 0.42884 0.51808 0.0
H245 H 0.10429 0.38524 0.50268 0.0
H246 H 0.12632 0.35812 0.56301 0.0
H247 H 0.13935 0.40163 0.57869 0.0
H248 H 0.17457 0.36563 0.57973 0.0
H249 H 0.28806 0.39923 0.4991 0.0
H250 H 0.29537 0.45766 0.52813 0.0
H251 H 0.17529 0.45761 0.5573 0.0
C252 C 0.16205 0.32314 0.49923 0.0
C253 C 0.18364 0.29654 0.48127 0.0
C254 C 0.22231 0.30317 0.47264 0.0
C255 C 0.23934 0.33548 0.48181 0.0
C256 C 0.21725 0.36113 0.4993 0.0
C257 C 0.17943 0.35548 0.50784 0.0
C258 C 0.16223 0.3876 0.52679 0.0
C259 C 0.12837 0.40416 0.50508 0.0
C260 C 0.1499 0.37764 0.56428 0.0
C261 C 0.19651 0.41197 0.52796 0.0
C262 C 0.22793 0.39601 0.51196 0.0
C263 C 0.26357 0.4122 0.51129 0.0
C264 C 0.26742 0.44536 0.52781 0.0
C265 C 0.23576 0.46224 0.54439 0.0
C266 C 0.19967 0.44558 0.54405 0.0
H267 H 0.85361 1.00038 0.86417 0.0
H268 H 0.83125 0.08415 0.78688 0.0
H269 H 0.89052 0.06545 0.75574 0.0
H270 H 0.95571 1.00814 0.86967 0.0
H271 H 0.96471 0.96093 0.87431 0.0
H272 H 0.92043 0.98066 0.88979 0.0
H273 H 0.88114 0.93709 0.85072 0.0
H274 H 0.92525 0.91705 0.83524 0.0
H275 H 0.88973 0.93452 0.80388 0.0
H276 H 0.95347 0.03712 0.73363 0.0
H277 H 1.01235 1.00142 0.72159 0.0
H278 H 0.9924 0.93684 0.81424 0.0
C279 C 0.86089 0.01495 0.84066 0.0
C280 C 0.83755 0.04388 0.82803 0.0
C281 C 0.84847 0.06189 0.79706 0.0
C282 C 0.88217 0.05149 0.77927 0.0
C283 C 0.9046 0.02302 0.79276 0.0
C284 C 0.8942 1.00498 0.82272 0.0
C285 C 0.92289 0.97528 0.83207 0.0
C286 C 0.94207 0.98166 0.86862 0.0
C287 C 0.90359 0.93883 0.83036 0.0
C288 C 0.95132 0.97928 0.80269 0.0
C289 C 0.94038 1.00695 0.78026 0.0
C290 C 0.9622 0.01545 0.75108 0.0
C291 C 0.99572 0.99499 0.74451 0.0
C292 C 1.00728 0.96626 0.767 0.0
C293 C 0.98467 0.95864 0.79657 0.0
H294 H 0.32122 0.66958 0.98713 0.0
H295 H 0.25049 0.75078 0.03743 0.0
H296 H 0.20407 0.70503 0.05387 0.0
H297 H 0.24035 0.61106 0.95605 0.0
H298 H 0.26871 0.57134 0.96572 0.0
H299 H 0.29198 0.61123 0.9519 0.0
H300 H 0.33595 0.60873 1.00837 0.0
H301 H 0.31284 0.56908 0.02239 0.0
H302 H 0.31428 0.60735 0.05124 0.0
H303 H 0.1723 0.65031 0.07343 0.0
H304 H 0.15738 0.59037 0.09496 0.0
H305 H 0.24806 0.5446 0.0312 0.0
C306 C 0.29538 0.67781 1.00074 0.0
C307 C 0.28912 0.71348 1.01103 0.0
C308 C 0.25551 0.72343 0.0293 0.0
C309 C 0.22896 0.69772 0.03851 0.0
C310 C 0.23647 0.66245 0.02884 0.0
C311 C 0.26874 0.6525 1.01012 0.0
C312 C 0.27269 0.6125 1.00667 0.0
C313 C 0.26815 0.60085 0.96777 0.0
C314 C 0.3112 0.59863 0.02317 0.0
C315 C 0.23876 0.60137 0.02802 0.0
C316 C 0.2178 0.63059 0.03999 0.0
C317 C 0.18783 0.62721 0.0635 0.0
C318 C 0.17966 0.59316 0.07571 0.0
C319 C 0.20141 0.56317 0.0644 0.0
C320 C 0.23054 0.56717 0.03955 0.0
H321 H 0.56392 0.10652 0.26529 0.0
H322 H 0.57425 0.06789 0.15753 0.0
H323 H 0.62958 0.02912 0.17651 0.0
H324 H 0.66248 0.11005 0.28723 0.0
H325 H 0.65811 0.09464 0.33208 0.0
H326 H 0.61825 0.11783 0.31039 0.0
H327 H 0.57397 0.06485 0.32252 0.0
H328 H 0.61365 0.04157 0.34453 0.0
H329 H 0.58814 0.02077 0.30814 0.0
H330 H 0.68835 0.99993 0.20632 0.0
H331 H 0.74116 0.97704 0.24602 0.0
H332 H 0.68881 0.03097 0.33497 0.0
C333 C 0.57754 0.08954 0.2458 0.0
C334 C 0.56493 0.09013 0.20996 0.0
C335 C 0.58331 0.06753 0.18519 0.0
C336 C 0.61484 0.0456 0.19569 0.0
C337 C 0.62702 0.04611 0.23117 0.0
C338 C 0.60843 0.06698 0.25598 0.0
C339 C 0.62713 0.06274 0.29242 0.0
C340 C 0.6424 0.09843 0.30633 0.0
C341 C 0.59905 0.04651 0.31843 0.0
C342 C 0.65978 0.03689 0.28414 0.0
C343 C 0.65946 0.02782 0.24861 0.0
C344 C 0.68844 1.00628 0.23429 0.0
C345 C 0.71835 0.99354 0.25693 0.0
C346 C 0.71858 1.00192 0.29346 0.0
C347 C 0.6888 0.02365 0.3072 0.0
H348 H 0.69503 0.1908 0.48472 0.0
H349 H 0.8031 0.23243 0.52473 0.0
H350 H 0.83623 0.17526 0.50944 0.0
H351 H 0.7087 0.10057 0.51219 0.0
H352 H 0.68721 0.08198 0.47254 0.0
H353 H 0.67219 0.12557 0.48751 0.0
H354 H 0.68853 0.15225 0.42665 0.0
H355 H 0.70328 0.1087 0.41136 0.0
H356 H 0.7361 0.1451 0.40947 0.0
H357 H 0.85613 0.11188 0.4926 0.0
H358 H 0.8637 0.05109 0.4683 0.0
H359 H 0.74345 0.05336 0.43412 0.0
C360 C 0.7257 0.18783 0.49027 0.0
C361 C 0.74661 0.21571 0.50623 0.0
C362 C 0.78672 0.21126 0.51255 0.0
C363 C 0.80562 0.17888 0.5041 0.0
C364 C 0.78401 0.1517 0.48866 0.0
C365 C 0.74506 0.15619 0.48113 0.0
C366 C 0.72869 0.1237 0.46282 0.0
C367 C 0.69735 0.10697 0.48511 0.0
C368 C 0.71325 0.133 0.42535 0.0
C369 C 0.7644 0.09986 0.46156 0.0
C370 C 0.79588 0.11628 0.47708 0.0
C371 C 0.83174 0.09897 0.48014 0.0
C372 C 0.83568 0.06433 0.46645 0.0
C373 C 0.80417 0.04751 0.44929 0.0
C374 C 0.76807 0.06559 0.44697 0.0
H375 H 0.04482 0.43549 0.73413 0.0
H376 H 0.03604 0.49909 0.82986 0.0
H377 H 0.09476 0.53106 0.81349 0.0
H378 H 0.14715 0.4253 0.73578 0.0
H379 H 0.15102 0.42801 0.68836 0.0
H380 H 0.10798 0.4111 0.70727 0.0
H381 H 0.0665 0.45829 0.67283 0.0
H382 H 0.10937 0.47508 0.65354 0.0
H383 H 0.07767 0.50473 0.67737 0.0
H384 H 0.15601 0.5555 0.78605 0.0
H385 H 0.21114 0.57168 0.74954 0.0
H386 H 0.17909 0.49076 0.67272 0.0
C387 C 0.05492 0.45627 0.75173 0.0
C388 C 0.0355 0.46477 0.78335 0.0
C389 C 0.05008 0.4922 0.8054 0.0
C390 C 0.08357 0.51038 0.79637 0.0
C391 C 0.10222 0.50086 0.76521 0.0
C392 C 0.08815 0.47452 0.74319 0.0
C393 C 0.11322 0.46902 0.71123 0.0
C394 C 0.13089 0.43111 0.71065 0.0
C395 C 0.09032 0.47729 0.67671 0.0
C396 C 0.14376 0.49642 0.71851 0.0
C397 C 0.13708 0.51452 0.74978 0.0
C398 C 0.1614 0.54139 0.76158 0.0
C399 C 0.19281 0.55032 0.74066 0.0
C400 C 0.1998 0.53247 0.70819 0.0
C401 C 0.17497 0.50487 0.69742 0.0
H402 H 0.81502 0.94165 0.9488 0.0
H403 H 0.75739 0.99537 0.03504 0.0
H404 H 0.76669 0.94117 0.07211 0.0
H405 H 0.77836 0.85466 0.96252 0.0
H406 H 0.82283 0.83182 0.95188 0.0
H407 H 0.81107 0.8745 0.93234 0.0
H408 H 0.87559 0.89936 0.95651 0.0
H409 H 0.88775 0.85667 0.97579 0.0
H410 H 0.88729 0.89604 1.00318 0.0
H411 H 0.78072 0.87928 0.09877 0.0
H412 H 0.80432 0.81865 0.11493 0.0
H413 H 0.85577 0.80735 1.01187 0.0
C414 C 0.80446 0.94206 0.97556 0.0
C415 C 0.78539 0.97264 0.98911 0.0
C416 C 0.77219 0.97225 0.02425 0.0
C417 C 0.77718 0.94152 0.04537 0.0
C418 C 0.79581 0.9116 0.03102 0.0
C419 C 0.80974 0.91193 0.99705 0.0
C420 C 0.8299 0.87695 0.9881 0.0
C421 C 0.8093 0.85839 0.95686 0.0
C422 C 0.87267 0.8826 0.98046 0.0
C423 C 0.82521 0.85671 0.02231 0.0
C424 C 0.80501 0.87689 0.04663 0.0
C425 C 0.79668 0.8634 0.07992 0.0
C426 C 0.80998 0.8288 0.08879 0.0
C427 C 0.83186 0.80818 0.06467 0.0
C428 C 0.83919 0.82242 0.03093 0.0
H429 H 0.37886 0.58422 0.27989 0.0
H430 H 0.45162 0.49108 0.30109 0.0
H431 H 0.39866 0.4522 0.28099 0.0
H432 H 0.28638 0.54632 0.30353 0.0
H433 H 0.2604 0.56834 0.26761 0.0
H434 H 0.30234 0.58851 0.28744 0.0
H435 H 0.33355 0.59173 0.2259 0.0
H436 H 0.29166 0.57184 0.20592 0.0
H437 H 0.33867 0.55172 0.19982 0.0
H438 H 0.33841 0.42362 0.25583 0.0
H439 H 0.27897 0.40818 0.22224 0.0
H440 H 0.24719 0.52027 0.21478 0.0
C441 C 0.38334 0.55561 0.28085 0.0
C442 C 0.41906 0.54053 0.29239 0.0
C443 C 0.42431 0.50307 0.29247 0.0
C444 C 0.39436 0.48081 0.28129 0.0
C445 C 0.35946 0.49649 0.26979 0.0
C446 C 0.35399 0.53308 0.26916 0.0
C447 C 0.31519 0.54338 0.25252 0.0
C448 C 0.28956 0.56278 0.27939 0.0
C449 C 0.32008 0.56599 0.21906 0.0
C450 C 0.29987 0.50694 0.24344 0.0
C451 C 0.32546 0.48017 0.2542 0.0
C452 C 0.31801 0.44437 0.24759 0.0
C453 C 0.28403 0.43581 0.22872 0.0
C454 C 0.2583 0.46299 0.21618 0.0
C455 C 0.26614 0.4989 0.2243 0.0
H456 H 0.55193 0.20525 0.31536 0.0
H457 H 0.50408 0.30363 0.27159 0.0
H458 H 0.51473 0.33337 0.32985 0.0
H459 H 0.5145 0.21369 0.40288 0.0
H460 H 0.55743 0.19534 0.42433 0.0
H461 H 0.54452 0.1819 0.37986 0.0
H462 H 0.61125 0.20082 0.35811 0.0
H463 H 0.62457 0.21377 0.40257 0.0
H464 H 0.62722 0.24538 0.36694 0.0
H465 H 0.53019 0.35151 0.39439 0.0
H466 H 0.55694 0.35871 0.45538 0.0
H467 H 0.5975 0.24875 0.45449 0.0
C468 C 0.54364 0.23309 0.31801 0.0
C469 C 0.527 0.2522 0.28912 0.0
C470 C 0.51695 0.28862 0.29346 0.0
C471 C 0.52265 0.30556 0.32649 0.0
C472 C 0.53879 0.28573 0.35466 0.0
C473 C 0.5497 0.2504 0.35043 0.0
C474 C 0.56844 0.23528 0.38392 0.0
C475 C 0.5448 0.20475 0.39861 0.0
C476 C 0.61035 0.22312 0.3775 0.0
C477 C 0.56663 0.26762 0.40783 0.0
C478 C 0.54883 0.29635 0.39081 0.0
C479 C 0.54413 0.32914 0.40785 0.0
C480 C 0.55907 0.3329 0.44264 0.0
C481 C 0.57906 0.30423 0.45976 0.0
C482 C 0.58215 0.27108 0.4422 0.0
H483 H 1.0059 0.27526 0.54086 0.0
H484 H 0.04403 0.17093 0.5781 0.0
H485 H 0.01735 0.18422 0.63676 0.0
H486 H 0.03292 0.32089 0.61351 0.0
H487 H 0.9929 0.35229 0.61409 0.0
H488 H 1.00682 0.33211 0.57305 0.0
H489 H 0.93763 0.30864 0.56282 0.0
H490 H 0.92342 0.32952 0.60367 0.0
H491 H 0.916 0.28267 0.59682 0.0
H492 H 0.99832 0.21263 0.69342 0.0
H493 H 0.9854 0.25348 0.74346 0.0
H494 H 0.95847 0.33885 0.66927 0.0
C495 C 1.00729 0.2548 0.56102 0.0
C496 C 0.02669 0.22209 0.55514 0.0
C497 C 0.0289 0.1961 0.58218 0.0
C498 C 0.01376 0.20336 0.61551 0.0
C499 C 0.99609 0.2365 0.62104 0.0
C500 C 0.9922 0.26163 0.59437 0.0
C501 C 0.97611 0.29659 0.60821 0.0
C502 C 1.00386 0.32724 0.60185 0.0
C503 C 0.9359 0.30482 0.59191 0.0
C504 C 0.9738 0.28786 0.64712 0.0
C505 C 0.98476 0.25289 0.65394 0.0
C506 C 0.9887 0.23978 0.68837 0.0
C507 C 0.98157 0.26314 0.71658 0.0
C508 C 0.97085 0.29906 0.70997 0.0
C509 C 0.96615 0.3113 0.67488 0.0
H510 H 0.01891 0.7865 0.83205 0.0
H511 H 0.13135 0.81931 0.87058 0.0
H512 H 0.11907 0.79278 0.92887 0.0
H513 H 0.97016 0.80922 0.90638 0.0
H514 H 0.93753 0.77257 0.90543 0.0
H515 H 0.95771 0.78785 0.86498 0.0
H516 H 0.98484 0.72438 0.85218 0.0
H517 H 0.96432 0.70874 0.89252 0.0
H518 H 0.01507 0.70204 0.88506 0.0
H519 H 0.09066 0.77166 0.98497 0.0
H520 H 0.04902 0.7549 0.03425 0.0
H521 H 0.9554 0.73543 0.95906 0.0
C522 C 0.04139 0.78699 0.85244 0.0
C523 C 0.07615 0.80457 0.84695 0.0
C524 C 0.10466 0.80558 0.87433 0.0
C525 C 0.09795 0.79059 0.90747 0.0
C526 C 0.06273 0.77453 0.91255 0.0
C527 C 0.03508 0.77224 0.88566 0.0
C528 C 0.99821 0.75685 0.89892 0.0
C529 C 0.96391 0.7832 0.89361 0.0
C530 C 0.99015 0.72086 0.88111 0.0
C531 C 1.00889 0.75223 0.93771 0.0
C532 C 0.04636 0.76217 0.945 0.0
C533 C 0.06157 0.76307 0.97951 0.0
C534 C 0.03773 0.75372 1.00729 0.0
C535 C 0.99928 0.74373 1.00023 0.0
C536 C 0.98494 0.74249 0.96502 0.0
H537 H 0.45795 0.66555 0.22269 0.0
H538 H 0.55529 0.73085 0.25228 0.0
H539 H 0.55294 0.75803 0.19302 0.0
H540 H 0.48429 0.64974 0.13231 0.0
H541 H 0.43563 0.65285 0.11461 0.0
H542 H 0.44451 0.63818 0.15952 0.0
H543 H 0.39868 0.68797 0.18245 0.0
H544 H 0.3893 0.70249 0.13759 0.0
H545 H 0.40669 0.73356 0.17039 0.0
H546 H 0.5413 0.77759 0.12952 0.0
H547 H 0.51709 0.79195 0.06906 0.0
H548 H 0.42644 0.71531 0.08028 0.0
C549 C 0.47857 0.68578 0.21686 0.0
C550 C 0.50681 0.69592 0.24255 0.0
C551 C 0.53324 0.72251 0.23345 0.0
C552 C 0.5323 0.73808 0.19963 0.0
C553 C 0.50461 0.72713 0.17484 0.0
C554 C 0.47788 0.70191 0.18312 0.0
C555 C 0.45059 0.69553 0.15171 0.0
C556 C 0.45397 0.65677 0.13878 0.0
C557 C 0.40884 0.70549 0.1611 0.0
C558 C 0.46613 0.7211 0.12462 0.0
C559 C 0.49754 0.73882 0.13841 0.0
C560 C 0.51667 0.76388 0.11849 0.0
C561 C 0.50281 0.77174 0.08397 0.0
C562 C 0.46986 0.75482 0.06951 0.0
C563 C 0.45181 0.72872 0.0902 0.0
H564 H 0.15487 0.25333 0.37198 0.0
H565 H 0.03909 0.21789 0.34808 0.0
H566 H 0.04664 0.23524 0.28508 0.0
H567 H 0.14822 0.32966 0.32149 0.0
H568 H 0.19789 0.32779 0.3086 0.0
H569 H 0.18435 0.3081 0.34962 0.0
H570 H 0.21516 0.24843 0.32983 0.0
H571 H 0.22786 0.26705 0.28791 0.0
H572 H 0.19881 0.22789 0.28907 0.0
H573 H 0.06549 0.26229 0.2267 0.0
H574 H 0.0909 0.30069 0.18002 0.0
H575 H 0.19436 0.31704 0.24403 0.0
C576 C 0.1313 0.24844 0.35339 0.0
C577 C 0.09654 0.23399 0.36445 0.0
C578 C 0.06598 0.22887 0.33974 0.0
C579 C 0.0702 0.23835 0.30406 0.0
C580 C 0.10511 0.25272 0.29405 0.0
C581 C 0.13496 0.25788 0.31822 0.0
C582 C 0.16794 0.27723 0.30235 0.0
C583 C 0.17497 0.31279 0.32164 0.0
C584 C 0.20466 0.25373 0.30229 0.0
C585 C 0.1519 0.28293 0.26537 0.0
C586 C 0.11586 0.26825 0.26081 0.0
C587 C 0.09393 0.27328 0.22978 0.0
C588 C 0.10862 0.29501 0.20343 0.0
C589 C 0.14465 0.31143 0.20859 0.0
C590 C 0.16711 0.30415 0.23924 0.0
H591 H 0.97204 0.88314 0.67663 0.0
H592 H 0.08926 0.88283 0.63916 0.0
H593 H 0.06494 0.89114 0.57804 0.0
H594 H 0.93 0.8361 0.60098 0.0
H595 H 0.88594 0.86245 0.60019 0.0
H596 H 0.91229 0.85541 0.64137 0.0
H597 H 0.91545 0.92361 0.65089 0.0
H598 H 0.88908 0.93084 0.60977 0.0
H599 H 0.9353 0.95092 0.61698 0.0
H600 H 0.02875 0.90057 0.52099 0.0
H601 H 0.98202 0.91155 0.47147 0.0
H602 H 0.88794 0.90613 0.54469 0.0
C603 C 0.99242 0.88454 0.65545 0.0
C604 C 0.03253 0.8824 0.66266 0.0
C605 C 0.05841 0.88467 0.63434 0.0
C606 C 0.0449 0.88924 0.59942 0.0
C607 C 1.00532 0.89152 0.59308 0.0
C608 C 0.97935 0.88931 0.62018 0.0
C609 C 0.93828 0.8936 0.60587 0.0
C610 C 0.91528 0.85988 0.6125 0.0
C611 C 0.91836 0.92672 0.62183 0.0
C612 C 0.94541 0.89855 0.56669 0.0
C613 C 0.98431 0.89715 0.55992 0.0
C614 C 0.99816 0.90156 0.52587 0.0
C615 C 0.97147 0.90771 0.49792 0.0
C616 C 0.93151 0.90946 0.50427 0.0
C617 C 0.91839 0.90468 0.53908 0.0
H618 H 0.3549 0.62045 0.78078 0.0
H619 H 0.3312 0.71154 0.71279 0.0
H620 H 0.35254 0.75173 0.76114 0.0
H621 H 0.32427 0.66117 0.86246 0.0
H622 H 0.3618 0.63999 0.88927 0.0
H623 H 0.34413 0.61844 0.84961 0.0
H624 H 0.41356 0.61426 0.82604 0.0
H625 H 0.43145 0.63577 0.86563 0.0
H626 H 0.44119 0.65412 0.8228 0.0
H627 H 0.37604 0.78182 0.81666 0.0
H628 H 0.40184 0.80025 0.87515 0.0
H629 H 0.41195 0.68983 0.90776 0.0
C630 C 0.35428 0.64888 0.77608 0.0
C631 C 0.34107 0.66302 0.74311 0.0
C632 C 0.3408 0.70027 0.73793 0.0
C633 C 0.35296 0.72323 0.76522 0.0
C634 C 0.36564 0.70847 0.79746 0.0
C635 C 0.36655 0.67215 0.80301 0.0
C636 C 0.3819 0.66319 0.84007 0.0
C637 C 0.35119 0.6446 0.86162 0.0
C638 C 0.41924 0.64049 0.83853 0.0
C639 C 0.38966 0.70016 0.85451 0.0
C640 C 0.37984 0.72583 0.82943 0.0
C641 C 0.38394 0.76195 0.83639 0.0
C642 C 0.39855 0.77214 0.8697 0.0
C643 C 0.40891 0.74645 0.89585 0.0
C644 C 0.40446 0.70995 0.88815 0.0
H645 H 0.59248 0.2102 0.09355 0.0
H646 H 0.52639 0.11552 0.10917 0.0
H647 H 0.55157 0.08945 0.05484 0.0
H648 H 0.58479 0.21263 0.99703 0.0
H649 H 0.63402 0.22509 0.99083 0.0
H650 H 0.60969 0.23813 0.03062 0.0
H651 H 0.66386 0.20778 0.0689 0.0
H652 H 0.68857 0.19512 0.02924 0.0
H653 H 0.67652 0.16169 0.06101 0.0
H654 H 0.58201 0.07281 0.99949 0.0
H655 H 0.62556 0.06247 0.94982 0.0
H656 H 0.67556 0.16584 0.96771 0.0
C657 C 0.58318 0.18409 0.08527 0.0
C658 C 0.55569 0.16555 0.10493 0.0
C659 C 0.54517 0.13117 0.09373 0.0
C660 C 0.55966 0.11593 0.06288 0.0
C661 C 0.58511 0.13527 0.04322 0.0
C662 C 0.5976 0.16828 0.05412 0.0
C663 C 0.62742 0.18187 0.02875 0.0
C664 C 0.61311 0.21649 1.01074 0.0
C665 C 0.66641 0.18691 0.04813 0.0
C666 C 0.62949 0.15123 1.00222 0.0
C667 C 0.60435 0.12491 1.01115 0.0
C668 C 0.60164 0.0933 0.992 0.0
C669 C 0.62623 0.08776 0.96364 0.0
C670 C 0.65304 0.11368 0.95439 0.0
C671 C 0.65432 0.14616 0.97353 0.0
H672 H 0.65575 0.29897 0.66883 0.0
H673 H 0.64846 0.22609 0.57986 0.0
H674 H 0.66675 0.17588 0.6201 0.0
H675 H 0.73779 0.25457 0.71455 0.0
H676 H 0.7192 0.26437 0.75772 0.0
H677 H 0.70839 0.29404 0.72122 0.0
H678 H 0.63534 0.28794 0.73206 0.0
H679 H 0.64591 0.25797 0.76828 0.0
H680 H 0.61474 0.24432 0.73209 0.0
H681 H 0.68233 0.13335 0.67184 0.0
H682 H 0.6954 0.10267 0.72889 0.0
H683 H 0.69152 0.20413 0.78377 0.0
C684 C 0.6583 0.27247 0.65764 0.0
C685 C 0.65076 0.26639 0.62113 0.0
C686 C 0.65453 0.23139 0.6076 0.0
C687 C 0.66472 0.20276 0.63036 0.0
C688 C 0.67129 0.20972 0.66644 0.0
C689 C 0.66854 0.24387 0.67984 0.0
C690 C 0.67612 0.24454 0.71959 0.0
C691 C 0.71253 0.26562 0.72881 0.0
C692 C 0.64093 0.25957 0.73914 0.0
C693 C 0.68248 0.20521 0.72692 0.0
C694 C 0.67997 0.18556 0.6959 0.0
C695 C 0.68448 0.14859 0.69614 0.0
C696 C 0.6918 0.13138 0.72873 0.0
C697 C 0.69428 0.15097 0.76081 0.0
C698 C 0.68958 0.18841 0.75974 0.0
H699 H 0.13197 0.44416 1.01135 0.0
H700 H 0.08648 0.35882 0.07401 0.0
H701 H 0.04689 0.33955 0.02246 0.0
H702 H 0.0458 0.46539 0.96066 0.0
H703 H 0.07066 0.47312 0.92013 0.0
H704 H 0.09467 0.48072 0.9622 0.0
H705 H 0.15034 0.43766 0.9443 0.0
H706 H 0.12639 0.42986 0.90222 0.0
H707 H 0.13953 0.39288 0.93068 0.0
H708 H 1.00955 0.33203 0.96571 0.0
H709 H 0.98083 0.33333 0.90501 0.0
H710 H 0.05505 0.41972 0.8776 0.0
C711 C 0.11353 0.42153 1.01417 0.0
C712 C 0.1119 0.40304 0.04654 0.0
C713 C 0.08802 0.37322 0.04929 0.0
C714 C 0.06543 0.36217 0.02026 0.0
C715 C 0.0677 0.3809 0.98865 0.0
C716 C 0.09146 0.40965 0.98524 0.0
C717 C 0.08941 0.42441 0.94796 0.0
C718 C 0.07422 0.4632 0.94775 0.0
C719 C 0.12876 0.42098 0.93025 0.0
C720 C 0.06048 0.39966 0.93106 0.0
C721 C 0.04799 0.37504 0.95515 0.0
C722 C 0.01954 0.35074 0.94643 0.0
C723 C 1.00346 0.35164 0.91209 0.0
C724 C 0.01656 0.37611 0.88701 0.0
C725 C 0.04546 0.40026 0.8964 0.0
H726 H 0.81963 0.86682 0.2934 0.0
H727 H 0.92817 0.86418 0.35305 0.0
H728 H 0.95533 0.822 0.30939 0.0
H729 H 0.82276 0.77218 0.26584 0.0
H730 H 0.80129 0.78203 0.22296 0.0
H731 H 0.78938 0.80937 0.26062 0.0
H732 H 0.81012 0.86543 0.2267 0.0
H733 H 0.82223 0.83829 0.18908 0.0
H734 H 0.85789 0.86667 0.20908 0.0
H735 H 0.97265 0.78517 0.25576 0.0
H736 H 0.97762 0.75428 0.19798 0.0
H737 H 0.85717 0.77958 0.17468 0.0
C738 C 0.84894 0.85699 0.29765 0.0
C739 C 0.8718 0.86884 0.3267 0.0
C740 C 0.91003 0.85533 0.33117 0.0
C741 C 0.92572 0.83139 0.30646 0.0
C742 C 0.90263 0.82083 0.27773 0.0
C743 C 0.86487 0.83285 0.27349 0.0
C744 C 0.84658 0.81857 0.23963 0.0
C745 C 0.81302 0.79408 0.24776 0.0
C746 C 0.83345 0.84906 0.21466 0.0
C747 C 0.88033 0.79761 0.22487 0.0
C748 C 0.91234 0.79905 0.2473 0.0
C749 C 0.9476 0.78342 0.23827 0.0
C750 C 0.9502 0.76606 0.20541 0.0
C751 C 0.91776 0.76444 0.18209 0.0
C752 C 0.88232 0.78005 0.19221 0.0
H753 H 0.3571 0.57056 0.52946 0.0
H754 H 0.33953 0.67645 0.57294 0.0
H755 H 0.37627 0.70144 0.52357 0.0
H756 H 0.45563 0.58417 0.50283 0.0
H757 H 0.45098 0.55693 0.46366 0.0
H758 H 0.4226 0.54782 0.50176 0.0
H759 H 0.36041 0.55276 0.46269 0.0
H760 H 0.38852 0.56232 0.42451 0.0
H761 H 0.35048 0.59274 0.43747 0.0
H762 H 0.41117 0.71489 0.46739 0.0
H763 H 0.45061 0.71609 0.41425 0.0
H764 H 0.45118 0.60063 0.40945 0.0
C765 C 0.36106 0.59903 0.52866 0.0
C766 C 0.34516 0.6217 0.55494 0.0
C767 C 0.35147 0.65868 0.5532 0.0
C768 C 0.37208 0.67305 0.52512 0.0
C769 C 0.38686 0.64998 0.49938 0.0
C770 C 0.38235 0.61366 0.50134 0.0
C771 C 0.40271 0.59454 0.47124 0.0
C772 C 0.43489 0.56938 0.48574 0.0
C773 C 0.37379 0.5744 0.44759 0.0
C774 C 0.41914 0.62584 0.45169 0.0
C775 C 0.40903 0.65755 0.46816 0.0
C776 C 0.41964 0.6902 0.45463 0.0
C777 C 0.442 0.69054 0.4242 0.0
C778 C 0.45444 0.65844 0.40764 0.0
C779 C 0.44229 0.62562 0.42143 0.0
H780 H 0.23484 0.17799 0.31452 0.0
H781 H 0.30565 0.19171 0.40949 0.0
H782 H 0.36436 0.18857 0.37361 0.0
H783 H 0.29578 0.11625 0.27195 0.0
H784 H 0.28676 0.13395 0.22813 0.0
H785 H 0.25065 0.13891 0.26127 0.0
H786 H 0.24937 0.20649 0.25072 0.0
H787 H 0.28694 0.20301 0.21891 0.0
H788 H 0.29278 0.23146 0.25709 0.0
H789 H 0.41567 0.18056 0.32702 0.0
H790 H 0.45431 0.16824 0.27373 0.0
H791 H 0.34899 0.16305 0.21001 0.0
C792 C 0.26266 0.18101 0.32762 0.0
C793 C 0.26583 0.18548 0.36459 0.0
C794 C 0.30272 0.18839 0.38106 0.0
C795 C 0.33617 0.18678 0.36092 0.0
C796 C 0.33209 0.18254 0.32437 0.0
C797 C 0.2962 0.1799 0.30788 0.0
C798 C 0.29958 0.17436 0.26843 0.0
C799 C 0.28218 0.13875 0.25678 0.0
C800 C 0.28109 0.20573 0.24761 0.0
C801 C 0.34291 0.17362 0.2654 0.0
C802 C 0.36134 0.17852 0.2978 0.0
C803 C 0.40151 0.1772 0.30142 0.0
C804 C 0.42327 0.17039 0.27108 0.0
C805 C 0.40462 0.16513 0.23784 0.0
C806 C 0.36405 0.16719 0.2351 0.0
H807 H 0.15025 0.08455 0.48976 0.0
H808 H 0.14819 0.1826 0.5506 0.0
H809 H 0.13346 0.14872 0.60455 0.0
H810 H 0.07124 0.04237 0.53745 0.0
H811 H 0.09351 0.99872 0.53417 0.0
H812 H 0.10057 0.03128 0.5001 0.0
H813 H 0.17467 0.02374 0.50921 0.0
H814 H 0.16784 0.99148 0.54345 0.0
H815 H 0.19594 0.03032 0.55271 0.0
H816 H 0.12664 0.10392 0.65211 0.0
H817 H 0.12347 0.05104 0.69048 0.0
H818 H 0.12702 0.98243 0.59794 0.0
C819 C 0.1464 0.09878 0.51447 0.0
C820 C 0.15049 0.13587 0.51654 0.0
C821 C 0.14506 0.15401 0.5489 0.0
C822 C 0.13664 0.13508 0.57948 0.0
C823 C 0.13328 0.0983 0.57674 0.0
C824 C 0.13743 0.08038 0.54499 0.0
C825 C 0.13348 0.0407 0.54939 0.0
C826 C 0.09757 0.02749 0.52908 0.0
C827 C 0.17017 0.02039 0.53803 0.0
C828 C 0.12843 0.03893 0.58893 0.0
C829 C 0.12805 0.07247 0.60413 0.0
C830 C 0.12622 0.07754 0.64055 0.0
C831 C 0.1247 0.04744 0.66206 0.0
C832 C 0.12498 1.01297 0.64691 0.0
C833 C 0.12649 1.00864 0.60997 0.0
H834 H 0.18603 0.8546 0.79859 0.0
H835 H 0.18851 0.96923 0.80883 0.0
H836 H 0.24397 0.96364 0.85125 0.0
H837 H 0.2141 0.83324 0.89135 0.0
H838 H 0.24311 0.79515 0.87854 0.0
H839 H 0.20149 0.80843 0.85197 0.0
H840 H 0.24399 0.81212 0.79697 0.0
H841 H 0.28611 0.79952 0.82317 0.0
H842 H 0.28538 0.84028 0.7981 0.0
H843 H 0.30361 0.94502 0.88864 0.0
H844 H 0.35623 0.91438 0.92358 0.0
H845 H 0.31399 0.81249 0.8875 0.0
C846 C 0.19712 0.87835 0.81114 0.0
C847 C 0.18218 0.91228 0.80178 0.0
C848 C 0.19884 0.94299 0.81688 0.0
C849 C 0.2306 0.94005 0.84059 0.0
C850 C 0.24552 0.90617 0.84859 0.0
C851 C 0.22887 0.87583 0.83473 0.0
C852 C 0.25121 0.84263 0.84623 0.0
C853 C 0.22598 0.81845 0.86836 0.0
C854 C 0.26763 0.82247 0.81421 0.0
C855 C 0.28302 0.85899 0.8686 0.0
C856 C 0.27963 0.89565 0.86952 0.0
C857 C 0.30636 0.91627 0.88828 0.0
C858 C 0.3364 0.89879 0.90768 0.0
C859 C 0.33909 0.86122 0.90818 0.0
C860 C 0.31252 0.84133 0.8877 0.0
H861 H 0.37936 0.04436 0.09941 0.0
H862 H 0.49268 0.06051 0.05764 0.0
H863 H 0.49165 1.00078 0.03006 0.0
H864 H 0.38863 0.95598 0.12058 0.0
H865 H 0.34135 0.94269 0.1057 0.0
H866 H 0.34904 0.9879 0.11948 0.0
H867 H 0.32241 1.01118 0.05898 0.0
H868 H 0.31381 0.96601 0.04522 0.0
H869 H 0.3428 0.99425 0.01866 0.0
H870 H 0.48428 0.93551 0.02034 0.0
H871 H 0.46409 0.87338 1.01345 0.0
H872 H 0.35025 0.9024 0.04981 0.0
C873 C 0.40332 0.03561 0.08347 0.0
C874 C 0.43619 0.05668 0.08046 0.0
C875 C 0.46725 0.04467 0.05979 0.0
C876 C 0.46695 1.01077 0.0443 0.0
C877 C 0.4347 0.98998 0.04878 0.0
C878 C 0.40275 1.00241 0.06656 0.0
C879 C 0.37178 0.9746 0.06728 0.0
C880 C 0.36216 0.96472 0.10553 0.0
C881 C 0.33556 0.98727 0.04627 0.0
C882 C 0.39211 0.94403 0.04866 0.0
C883 C 0.42865 0.95337 0.03883 0.0
C884 C 0.45503 0.92838 0.02601 0.0
C885 C 0.44325 0.89323 0.02188 0.0
C886 C 0.40498 0.88375 0.0288 0.0
C887 C 0.3792 0.90937 0.04286 0.0
H888 H 0.87576 0.36022 0.74137 0.0
H889 H 0.85039 0.47306 0.7523 0.0
H890 H 0.80473 0.47043 0.70115 0.0
H891 H 0.86575 0.35549 0.64264 0.0
H892 H 0.84274 0.313 0.64363 0.0
H893 H 0.87747 0.32447 0.6778 0.0
H894 H 0.82729 0.31254 0.72571 0.0
H895 H 0.79227 0.30116 0.69185 0.0
H896 H 0.7812 0.33564 0.72352 0.0
H897 H 0.75743 0.45492 0.65437 0.0
H898 H 0.71117 0.42783 0.61263 0.0
H899 H 0.7656 0.32408 0.63116 0.0
C900 C 0.86162 0.3845 0.73196 0.0
C901 C 0.86713 0.41711 0.74979 0.0
C902 C 0.84691 0.44811 0.73823 0.0
C903 C 0.82099 0.44682 0.70933 0.0
C904 C 0.81547 0.41419 0.69258 0.0
C905 C 0.83525 0.38354 0.70324 0.0
C906 C 0.82121 0.35142 0.68256 0.0
C907 C 0.85372 0.33514 0.66033 0.0
C908 C 0.80451 0.32356 0.7074 0.0
C909 C 0.78989 0.36877 0.65924 0.0
C910 C 0.7874 0.40502 0.66541 0.0
C911 C 0.75937 0.42666 0.64889 0.0
C912 C 0.73304 0.41093 0.62539 0.0
C913 C 0.73482 0.37386 0.61853 0.0
C914 C 0.76389 0.35257 0.6355 0.0
H915 H 0.94644 0.50902 0.9466 0.0
H916 H 0.84737 0.52332 0.87526 0.0
H917 H 0.82565 0.57531 0.90971 0.0
H918 H 0.89855 0.53496 0.02719 0.0
H919 H 0.939 0.55866 0.04554 0.0
H920 H 0.94697 0.52194 0.01564 0.0
H921 H 0.98564 0.56281 0.97512 0.0
H922 H 0.97752 0.59965 1.00489 0.0
H923 H 0.96359 0.60365 0.95875 0.0
H924 H 0.8128 0.62433 0.95224 0.0
H925 H 0.81065 0.6688 1.0006 0.0
H926 H 0.91935 0.6264 0.04332 0.0
C927 C 0.92012 0.52307 0.93848 0.0
C928 C 0.89846 0.512 0.90832 0.0
C929 C 0.86441 0.53127 0.89825 0.0
C930 C 0.85179 0.5609 0.91763 0.0
C931 C 0.87372 0.5714 0.94697 0.0
C932 C 0.90726 0.55331 0.95741 0.0
C933 C 0.92542 0.57089 0.98987 0.0
C934 C 0.92759 0.54507 0.02143 0.0
C935 C 0.96542 0.58509 0.98165 0.0
C936 C 0.89656 0.60122 0.99608 0.0
C937 C 0.86695 0.60085 0.97101 0.0
C938 C 0.836 0.62516 0.97187 0.0
C939 C 0.83499 0.65032 0.99936 0.0
C940 C 0.86492 0.65127 0.02537 0.0
C941 C 0.89635 0.62665 0.02341 0.0
H942 H 0.73446 0.65222 0.15506 0.0
H943 H 0.80774 0.69305 0.2398 0.0
H944 H 0.76056 0.67421 0.28374 0.0
H945 H 0.6446 0.67935 0.19239 0.0
H946 H 0.61945 0.64051 0.17728 0.0
H947 H 0.65953 0.65634 0.1529 0.0
H948 H 0.69305 0.59415 0.15844 0.0
H949 H 0.65319 0.57826 0.18316 0.0
H950 H 0.70149 0.57492 0.2017 0.0
H951 H 0.70421 0.65335 0.31801 0.0
H952 H 0.64195 0.63295 0.34014 0.0
H953 H 0.60588 0.60439 0.23346 0.0
C954 C 0.74059 0.65706 0.18289 0.0
C955 C 0.77473 0.67395 0.19417 0.0
C956 C 0.78178 0.68002 0.23072 0.0
C957 C 0.75521 0.66935 0.25581 0.0
C958 C 0.72189 0.65255 0.24386 0.0
C959 C 0.71444 0.64649 0.20826 0.0
C960 C 0.67595 0.62884 0.20232 0.0
C961 C 0.64826 0.65269 0.17991 0.0
C962 C 0.68126 0.59184 0.18541 0.0
C963 C 0.66277 0.62605 0.24013 0.0
C964 C 0.68973 0.63988 0.26368 0.0
C965 C 0.68314 0.64209 0.29988 0.0
C966 C 0.64779 0.63048 0.31222 0.0
C967 C 0.61978 0.61663 0.28853 0.0
C968 C 0.6275 0.61391 0.25214 0.0
H969 H 0.63016 0.38873 0.43873 0.0
H970 H 0.6887 0.43229 0.53118 0.0
H971 H 0.67062 0.49326 0.51154 0.0
H972 H 0.65082 0.45949 0.37619 0.0
H973 H 0.60359 0.45891 0.35529 0.0
H974 H 0.62405 0.41892 0.37497 0.0
H975 H 0.56397 0.4135 0.41341 0.0
H976 H 0.54332 0.4537 0.39446 0.0
H977 H 0.5499 0.44992 0.44182 0.0
H978 H 0.64648 0.55029 0.48113 0.0
H979 H 0.61347 0.59771 0.44529 0.0
H980 H 0.56561 0.51696 0.37583 0.0
C981 C 0.6398 0.41121 0.45433 0.0
C982 C 0.66166 0.40589 0.48603 0.0
C983 C 0.67246 0.43585 0.50653 0.0
C984 C 0.66229 0.47061 0.49559 0.0
C985 C 0.64048 0.47513 0.46438 0.0
C986 C 0.62894 0.44622 0.44424 0.0
C987 C 0.60322 0.45835 0.41326 0.0
C988 C 0.62152 0.44833 0.37783 0.0
C989 C 0.5627 0.44296 0.41592 0.0
C990 C 0.6024 0.49845 0.41898 0.0
C991 C 0.62448 0.50768 0.44832 0.0
C992 C 0.62887 0.5433 0.45823 0.0
C993 C 0.61007 0.57011 0.43772 0.0
C994 C 0.58652 0.56119 0.40804 0.0
C995 C 0.58286 0.52477 0.39872 0.0
H996 H 0.31069 0.40321 0.14468 0.0
H997 H 0.22149 0.34806 0.08549 0.0
H998 H 0.26208 0.2932 0.08583 0.0
H999 H 0.39364 0.36007 0.10531 0.0
H1000 H 0.42103 0.35677 0.14639 0.0
H1001 H 0.38597 0.39241 0.13994 0.0
H1002 H 0.35169 0.37379 0.1969 0.0
H1003 H 0.38666 0.33813 0.20362 0.0
H1004 H 0.33599 0.32865 0.20132 0.0
H1005 H 0.31244 0.24504 0.09117 0.0
H1006 H 0.36681 0.20419 0.10636 0.0
H1007 H 0.42213 0.28853 0.16622 0.0
C1008 C 0.30006 0.37962 0.13148 0.0
C1009 C 0.26334 0.37983 0.11451 0.0
C1010 C 0.24972 0.34837 0.09837 0.0
C1011 C 0.27257 0.31716 0.09836 0.0
C1012 C 0.30869 0.31769 0.11523 0.0
C1013 C 0.32221 0.34788 0.13198 0.0
C1014 C 0.36111 0.34045 0.15003 0.0
C1015 C 0.39228 0.36382 0.13447 0.0
C1016 C 0.3587 0.34555 0.19036 0.0
C1017 C 0.3675 0.30153 0.14038 0.0
C1018 C 0.33703 0.28915 0.11997 0.0
C1019 C 0.33642 0.25435 0.10724 0.0
C1020 C 0.36759 0.23138 0.11587 0.0
C1021 C 0.39881 0.2431 0.13743 0.0
C1022 C 0.39867 0.27874 0.14976 0.0
H1023 H 0.89605 0.30935 0.90237 0.0
H1024 H 0.83196 0.32886 0.80409 0.0
H1025 H 0.79843 0.27236 0.81101 0.0
H1026 H 0.91194 0.21868 0.88966 0.0
H1027 H 0.90568 0.20469 0.93473 0.0
H1028 H 0.9213 0.24907 0.92573 0.0
H1029 H 0.86412 0.27589 0.96035 0.0
H1030 H 0.84877 0.23156 0.97021 0.0
H1031 H 0.8157 0.26288 0.94889 0.0
H1032 H 0.78057 0.21076 0.82208 0.0
H1033 H 0.76928 0.15017 0.84302 0.0
H1034 H 0.83943 0.16887 0.93703 0.0
C1035 C 0.87359 0.30238 0.88335 0.0
C1036 C 0.86579 0.32385 0.85309 0.0
C1037 C 0.83764 0.31315 0.82778 0.0
C1038 C 0.81872 0.28095 0.83133 0.0
C1039 C 0.82815 0.25959 0.86047 0.0
C1040 C 0.85415 0.27 0.88658 0.0
C1041 C 0.85996 0.24067 0.91421 0.0
C1042 C 0.90223 0.22751 0.91619 0.0
C1043 C 0.84631 0.25352 0.95058 0.0
C1044 C 0.83384 0.21206 0.89898 0.0
C1045 C 0.81616 0.22379 0.86781 0.0
C1046 C 0.79295 0.20184 0.84719 0.0
C1047 C 0.78618 0.16756 0.85945 0.0
C1048 C 0.80151 0.15543 0.89229 0.0
C1049 C 0.82666 0.17766 0.91203 0.0
H1050 H 0.11608 0.52546 0.13445 0.0
H1051 H 0.04932 0.45258 0.19513 0.0
H1052 H 0.99724 0.49811 0.1995 0.0
H1053 H 0.08366 0.60951 0.17926 0.0
H1054 H 0.08378 0.63321 0.13782 0.0
H1055 H 0.11708 0.59641 0.1457 0.0
H1056 H 0.09038 0.56686 0.08713 0.0
H1057 H 0.05681 0.60362 0.08099 0.0
H1058 H 0.0395 0.55883 0.08286 0.0
H1059 H 0.95003 0.5503 0.19295 0.0
H1060 H 0.91147 0.6036 0.17416 0.0
H1061 H 1.00925 0.64097 0.11637 0.0
C1062 C 0.09129 0.51952 0.14962 0.0
C1063 C 0.08726 0.48576 0.16493 0.0
C1064 C 0.05325 0.47848 0.18341 0.0
C1065 C 0.02351 0.5042 0.18613 0.0
C1066 C 0.02809 0.53708 0.17005 0.0
C1067 C 0.06119 0.54479 0.15217 0.0
C1068 C 0.05762 0.58078 0.1344 0.0
C1069 C 0.08729 0.60651 0.15022 0.0
C1070 C 0.0613 0.5773 0.09397 0.0
C1071 C 0.01707 0.5917 0.14435 0.0
C1072 C 1.00061 0.56648 0.16537 0.0
C1073 C 0.96276 0.5704 0.17675 0.0
C1074 C 0.94108 0.60074 0.166 0.0
C1075 C 0.95724 0.62641 0.14375 0.0
C1076 C 0.99592 0.62185 0.13333 0.0
H1077 H 0.77754 0.84407 0.43025 0.0
H1078 H 0.71083 0.93386 0.38817 0.0
H1079 H 0.65657 0.89413 0.37402 0.0
H1080 H 0.74668 0.78175 0.36373 0.0
H1081 H 0.74543 0.74429 0.39337 0.0
H1082 H 0.77811 0.77994 0.40244 0.0
H1083 H 0.74925 0.78871 0.46452 0.0
H1084 H 0.71655 0.75298 0.45572 0.0
H1085 H 0.69804 0.79628 0.46832 0.0
H1086 H 0.60985 0.84535 0.36501 0.0
H1087 H 0.57406 0.78998 0.35777 0.0
H1088 H 0.67178 0.72945 0.40181 0.0
C1089 C 0.75118 0.85529 0.41858 0.0
C1090 C 0.74781 0.8921 0.41084 0.0
C1091 C 0.71358 0.90585 0.39463 0.0
C1092 C 0.68272 0.88346 0.38654 0.0
C1093 C 0.68685 0.84726 0.39436 0.0
C1094 C 0.72028 0.83311 0.40975 0.0
C1095 C 0.71775 0.79291 0.41367 0.0
C1096 C 0.74884 0.77359 0.392 0.0
C1097 C 0.72056 0.78209 0.45289 0.0
C1098 C 0.67764 0.78669 0.39812 0.0
C1099 C 0.66034 0.81859 0.38756 0.0
C1100 C 0.62314 0.82023 0.37307 0.0
C1101 C 0.60301 0.78854 0.36915 0.0
C1102 C 0.62008 0.75532 0.37916 0.0
C1103 C 0.65804 0.7544 0.3938 0.0
H1104 H 0.52626 0.41412 0.63762 0.0
H1105 H 0.52687 0.44096 0.52596 0.0
H1106 H 0.46425 0.47284 0.53165 0.0
H1107 H 0.42493 0.40117 0.64502 0.0
H1108 H 0.42127 0.42214 0.68783 0.0
H1109 H 0.46587 0.40067 0.67535 0.0
H1110 H 0.5025 0.45898 0.68736 0.0
H1111 H 0.45815 0.48042 0.70049 0.0
H1112 H 0.48596 0.49954 0.66594 0.0
H1113 H 0.40075 0.49769 0.54813 0.0
H1114 H 0.34511 0.52556 0.57628 0.0
H1115 H 0.38689 0.48797 0.67915 0.0
C1116 C 0.51322 0.42699 0.61451 0.0
C1117 C 0.53098 0.42508 0.58129 0.0
C1118 C 0.51357 0.44233 0.5516 0.0
C1119 C 0.47794 0.46016 0.55452 0.0
C1120 C 0.46067 0.46086 0.58745 0.0
C1121 C 0.47806 0.44562 0.61716 0.0
C1122 C 0.45414 0.45218 0.64975 0.0
C1123 C 0.44077 0.41693 0.6654 0.0
C1124 C 0.47652 0.4741 0.67752 0.0
C1125 C 0.42051 0.47344 0.63362 0.0
C1126 C 0.42467 0.47731 0.59752 0.0
C1127 C 0.39733 0.49516 0.57641 0.0
C1128 C 0.36554 0.51075 0.59277 0.0
C1129 C 0.36156 0.50912 0.63002 0.0
C1130 C 0.3891 0.48957 0.65064 0.0
H1131 H 0.22213 0.64881 0.68054 0.0
H1132 H 0.22438 0.67008 0.56785 0.0
H1133 H 0.21149 0.73411 0.5795 0.0
H1134 H 0.14346 0.70612 0.69774 0.0
H1135 H 0.16117 0.7203 0.74065 0.0
H1136 H 0.17512 0.67722 0.72376 0.0
H1137 H 0.24767 0.69293 0.73134 0.0
H1138 H 0.23311 0.73562 0.74909 0.0
H1139 H 0.2643 0.73335 0.71173 0.0
H1140 H 0.19575 0.79527 0.60339 0.0
H1141 H 0.17132 0.84742 0.63657 0.0
H1142 H 0.17654 0.78547 0.73351 0.0
C1143 C 0.22038 0.66708 0.65839 0.0
C1144 C 0.2244 0.65476 0.62331 0.0
C1145 C 0.22131 0.67916 0.5949 0.0
C1146 C 0.21431 0.71554 0.6013 0.0
C1147 C 0.21029 0.7269 0.63625 0.0
C1148 C 0.21289 0.70333 0.6643 0.0
C1149 C 0.20401 0.72174 0.699 0.0
C1150 C 0.16885 0.70538 0.71628 0.0
C1151 C 0.23939 0.72081 0.7243 0.0
C1152 C 0.19517 0.7592 0.686 0.0
C1153 C 0.19979 0.76182 0.64986 0.0
C1154 C 0.19227 0.79358 0.63173 0.0
C1155 C 0.1786 0.82315 0.65087 0.0
C1156 C 0.17204 0.82057 0.68765 0.0
C1157 C 0.18134 0.78834 0.70544 0.0
H1158 H 0.50684 0.92779 0.92937 0.0
H1159 H 0.58354 0.83703 0.9494 0.0
H1160 H 0.63959 0.87373 0.93574 0.0
H1161 H 0.55574 0.96155 0.8559 0.0
H1162 H 0.54767 1.0077 0.86728 0.0
H1163 H 0.51414 0.97485 0.88083 0.0
H1164 H 0.52334 0.99483 0.9463 0.0
H1165 H 0.55683 0.02782 0.93276 0.0
H1166 H 0.57121 0.99543 0.96588 0.0
H1167 H 0.68756 0.92067 0.91813 0.0
H1168 H 0.72205 0.97272 0.89536 0.0
H1169 H 0.61357 0.03174 0.88605 0.0
C1170 C 0.53546 0.91573 0.93102 0.0
C1171 C 0.54091 0.87958 0.94038 0.0
C1172 C 0.57876 0.86469 0.94223 0.0
C1173 C 0.61078 0.88537 0.93464 0.0
C1174 C 0.60448 0.92095 0.92533 0.0
C1175 C 0.5677 0.93598 0.92348 0.0
C1176 C 0.56853 0.97441 0.9116 0.0
C1177 C 0.54514 0.97993 0.87684 0.0
C1178 C 0.55412 0.9996 0.94088 0.0
C1179 C 0.61131 0.97838 0.90614 0.0
C1180 C 0.63177 0.94752 0.91474 0.0
C1181 C 0.67178 0.94501 0.91149 0.0
C1182 C 0.69122 0.97471 0.89874 0.0
C1183 C 0.67053 1.00621 0.88915 0.0
C1184 C 0.63015 1.00794 0.89314 0.0
H1185 H 0.91746 1.01221 0.42429 0.0
H1186 H 0.92967 0.99899 0.31101 0.0
H1187 H 0.99078 0.03154 0.31413 0.0
H1188 H 0.94797 0.0995 0.42837 0.0
H1189 H 0.97353 0.09552 0.47035 0.0
H1190 H 0.93385 0.06698 0.46028 0.0
H1191 H 0.97757 1.01124 0.47193 0.0
H1192 H 0.01739 0.03968 0.48252 0.0
H1193 H 0.02211 1.00604 0.44871 0.0
H1194 H 0.0475 0.07068 0.32873 0.0
H1195 H 0.09348 0.11426 0.35348 0.0
H1196 H 0.04391 0.10187 0.45701 0.0
C1197 C 0.93347 0.0155 0.40031 0.0
C1198 C 0.91897 1.00296 0.36741 0.0
C1199 C 0.94037 1.00832 0.33649 0.0
C1200 C 0.97517 0.02667 0.33803 0.0
C1201 C 0.98835 0.03943 0.37073 0.0
C1202 C 0.96821 0.03393 0.40137 0.0
C1203 C 0.98691 0.05277 0.43264 0.0
C1204 C 0.9589 0.08033 0.44883 0.0
C1205 C 1.00188 0.02582 0.4606 0.0
C1206 C 0.01992 0.0706 0.41462 0.0
C1207 C 0.0207 0.06218 0.37903 0.0
C1208 C 0.04747 0.07709 0.35669 0.0
C1209 C 0.07358 0.10176 0.37096 0.0
C1210 C 0.07242 0.11155 0.40715 0.0
C1211 C 0.04569 0.09502 0.42922 0.0
loop_
_geom_bond_atom_site_label_1
_geom_bond_atom_site_label_2
_geom_bond_distance
_geom_bond_site_symmetry_2
_ccdc_geom_bond_type
Tb0 O3 2.453 . S
Tb0 O4 2.596 . S
Tb0 O5 2.374 . S
Tb0 O13 2.343 . S
Tb0 O15 2.353 . S
Tb0 O17 2.427 . S
Tb0 O18 2.513 . S
C1 O5 1.251 . S
C1 O7 1.263 . S
Tb2 O4 2.343 . S
Tb2 O7 2.353 . S
Tb2 O10 2.427 . S
Tb2 O11 2.513 . S
Tb2 O12 2.453 . S
Tb2 O13 2.596 . S
Tb2 O14 2.374 . S
O3 Tb0 2.453 . S
O3 C19 1.245 . S
O4 Tb0 2.596 . S
O4 Tb2 2.343 . S
O4 C19 1.259 . S
O5 Tb0 2.374 . S
O5 C1 1.251 . S
C6 O10 1.275 . S
C6 O11 1.246 . S
O7 C1 1.263 . S
O7 Tb2 2.353 . S
C8 O12 1.245 . S
C8 O13 1.259 . S
C9 O14 1.250 . S
C9 O15 1.263 . S
O10 Tb2 2.427 . S
O10 C6 1.275 . S
O11 Tb2 2.513 . S
O11 C6 1.246 . S
O12 Tb2 2.453 . S
O12 C8 1.245 . S
O13 Tb0 2.343 . S
O13 Tb2 2.596 . S
O13 C8 1.259 . S
O14 Tb2 2.374 . S
O14 C9 1.250 . S
O15 Tb0 2.353 . S
O15 C9 1.263 . S
C16 O17 1.275 . S
C16 O18 1.246 . S
O17 Tb0 2.427 . S
O17 C16 1.275 . S
O18 Tb0 2.513 . S
O18 C16 1.246 . S
C19 O3 1.245 . S
C19 O4 1.259 . S
Tb20 O23 2.453 . S
Tb20 O24 2.596 . S
Tb20 O25 2.374 . S
Tb20 O33 2.343 . S
Tb20 O35 2.353 . S
Tb20 O37 2.427 . S
Tb20 O38 2.513 . S
C21 O25 1.251 . S
C21 O27 1.263 . S
Tb22 O24 2.343 . S
Tb22 O27 2.353 . S
Tb22 O30 2.427 . S
Tb22 O31 2.513 . S
Tb22 O32 2.453 . S
Tb22 O33 2.596 . S
Tb22 O34 2.374 . S
O23 Tb20 2.453 . S
O23 C39 1.245 . S
O24 Tb20 2.596 . S
O24 Tb22 2.343 . S
O24 C39 1.259 . S
O25 Tb20 2.374 . S
O25 C21 1.251 . S
C26 O30 1.275 . S
C26 O31 1.246 . S
O27 C21 1.263 . S
O27 Tb22 2.353 . S
C28 O32 1.245 . S
C28 O33 1.259 . S
C29 O34 1.250 . S
C29 O35 1.263 . S
O30 Tb22 2.427 . S
O30 C26 1.275 . S
O31 Tb22 2.513 . S
O31 C26 1.246 . S
O32 Tb22 2.453 . S
O32 C28 1.245 . S
O33 Tb20 2.343 . S
O33 Tb22 2.596 . S
O33 C28 1.259 . S
O34 Tb22 2.374 . S
O34 C29 1.250 . S
O35 Tb20 2.353 . S
O35 C29 1.263 . S
C36 O37 1.275 . S
C36 O38 1.246 . S
O37 Tb20 2.427 . S
O37 C36 1.275 . S
O38 Tb20 2.513 . S
O38 C36 1.246 . S
C39 O23 1.245 . S
C39 O24 1.259 . S
Tb40 O43 2.453 . S
Tb40 O44 2.596 . S
Tb40 O45 2.374 . S
Tb40 O53 2.343 . S
Tb40 O55 2.353 . S
Tb40 O57 2.427 . S
Tb40 O58 2.513 . S
C41 O45 1.251 . S
C41 O47 1.263 . S
Tb42 O44 2.343 . S
Tb42 O47 2.353 . S
Tb42 O50 2.427 . S
Tb42 O51 2.513 . S
Tb42 O52 2.453 1_556 S
Tb42 O53 2.596 . S
Tb42 O54 2.374 1_556 S
O43 Tb40 2.453 . S
O43 C59 1.245 . S
O44 Tb40 2.596 . S
O44 Tb42 2.343 . S
O44 C59 1.259 . S
O45 Tb40 2.374 . S
O45 C41 1.251 . S
C46 O50 1.275 . S
C46 O51 1.246 . S
O47 C41 1.263 . S
O47 Tb42 2.353 . S
C48 O52 1.244 1_556 S
C48 O53 1.261 . S
C49 O54 1.250 . S
C49 O55 1.263 1_554 S
O50 Tb42 2.427 . S
O50 C46 1.275 . S
O51 Tb42 2.513 . S
O51 C46 1.246 . S
O52 Tb42 2.453 1_554 S
O52 C48 1.244 1_554 S
O53 Tb40 2.343 . S
O53 Tb42 2.596 . S
O53 C48 1.261 . S
O54 Tb42 2.374 1_554 S
O54 C49 1.250 . S
O55 Tb40 2.353 . S
O55 C49 1.263 1_556 S
C56 O57 1.275 . S
C56 O58 1.246 . S
O57 Tb40 2.427 . S
O57 C56 1.275 . S
O58 Tb40 2.513 . S
O58 C56 1.246 . S
C59 O43 1.245 . S
C59 O44 1.259 . S
Tb60 O63 2.453 . S
Tb60 O64 2.596 . S
Tb60 O65 2.374 . S
Tb60 O73 2.343 . S
Tb60 O75 2.353 . S
Tb60 O77 2.427 . S
Tb60 O78 2.513 . S
C61 O65 1.251 . S
C61 O67 1.263 . S
Tb62 O64 2.343 . S
Tb62 O67 2.353 . S
Tb62 O70 2.427 . S
Tb62 O71 2.513 . S
Tb62 O72 2.453 . S
Tb62 O73 2.596 . S
Tb62 O74 2.374 . S
O63 Tb60 2.453 . S
O63 C79 1.245 . S
O64 Tb60 2.596 . S
O64 Tb62 2.343 . S
O64 C79 1.259 . S
O65 Tb60 2.374 . S
O65 C61 1.251 . S
C66 O70 1.275 . S
C66 O71 1.246 . S
O67 C61 1.263 . S
O67 Tb62 2.353 . S
C68 O72 1.245 . S
C68 O73 1.259 . S
C69 O74 1.250 . S
C69 O75 1.263 . S
O70 Tb62 2.427 . S
O70 C66 1.275 . S
O71 Tb62 2.513 . S
O71 C66 1.246 . S
O72 Tb62 2.453 . S
O72 C68 1.245 . S
O73 Tb60 2.343 . S
O73 Tb62 2.596 . S
O73 C68 1.259 . S
O74 Tb62 2.374 . S
O74 C69 1.250 . S
O75 Tb60 2.353 . S
O75 C69 1.263 . S
C76 O77 1.275 . S
C76 O78 1.246 . S
O77 Tb60 2.427 . S
O77 C76 1.275 . S
O78 Tb60 2.513 . S
O78 C76 1.246 . S
C79 O63 1.245 . S
C79 O64 1.259 . S
Tb80 O83 2.453 . S
Tb80 O84 2.596 . S
Tb80 O85 2.374 . S
Tb80 O93 2.343 . S
Tb80 O95 2.353 . S
Tb80 O97 2.427 . S
Tb80 O98 2.513 . S
C81 O85 1.251 . S
C81 O87 1.263 . S
Tb82 O84 2.343 . S
Tb82 O87 2.353 . S
Tb82 O90 2.427 . S
Tb82 O91 2.513 . S
Tb82 O92 2.453 . S
Tb82 O93 2.596 . S
Tb82 O94 2.374 . S
O83 Tb80 2.453 . S
O83 C99 1.245 . S
O84 Tb80 2.596 . S
O84 Tb82 2.343 . S
O84 C99 1.259 . S
O85 Tb80 2.374 . S
O85 C81 1.251 . S
C86 O90 1.275 . S
C86 O91 1.246 . S
O87 C81 1.263 . S
O87 Tb82 2.353 . S
C88 O92 1.245 . S
C88 O93 1.259 . S
C89 O94 1.250 . S
C89 O95 1.263 . S
O90 Tb82 2.427 . S
O90 C86 1.275 . S
O91 Tb82 2.513 . S
O91 C86 1.246 . S
O92 Tb82 2.453 . S
O92 C88 1.245 . S
O93 Tb80 2.343 . S
O93 Tb82 2.596 . S
O93 C88 1.259 . S
O94 Tb82 2.374 . S
O94 C89 1.250 . S
O95 Tb80 2.353 . S
O95 C89 1.263 . S
C96 O97 1.275 . S
C96 O98 1.246 . S
O97 Tb80 2.427 . S
O97 C96 1.275 . S
O98 Tb80 2.513 . S
O98 C96 1.246 . S
C99 O83 1.245 . S
C99 O84 1.259 . S
Tb100 O103 2.453 . S
Tb100 O104 2.596 . S
Tb100 O105 2.374 . S
Tb100 O113 2.343 . S
Tb100 O115 2.353 . S
Tb100 O117 2.427 . S
Tb100 O118 2.513 . S
C101 O105 1.251 . S
C101 O107 1.263 . S
Tb102 O104 2.343 . S
Tb102 O107 2.353 . S
Tb102 O110 2.427 . S
Tb102 O111 2.513 . S
Tb102 O112 2.453 1_655 S
Tb102 O113 2.596 . S
Tb102 O114 2.374 . S
O103 Tb100 2.453 . S
O103 C119 1.245 . S
O104 Tb100 2.596 . S
O104 Tb102 2.343 . S
O104 C119 1.259 . S
O105 Tb100 2.374 . S
O105 C101 1.251 . S
C106 O110 1.275 . S
C106 O111 1.246 . S
O107 C101 1.263 . S
O107 Tb102 2.353 . S
C108 O112 1.245 1_655 S
C108 O113 1.259 . S
C109 O114 1.250 . S
C109 O115 1.263 . S
O110 Tb102 2.427 . S
O110 C106 1.275 . S
O111 Tb102 2.513 . S
O111 C106 1.246 . S
O112 Tb102 2.453 1_455 S
O112 C108 1.245 1_455 S
O113 Tb100 2.343 . S
O113 Tb102 2.596 . S
O113 C108 1.259 . S
O114 Tb102 2.374 . S
O114 C109 1.250 . S
O115 Tb100 2.353 . S
O115 C109 1.263 . S
C116 O117 1.275 . S
C116 O118 1.246 . S
O117 Tb100 2.427 . S
O117 C116 1.275 . S
O118 Tb100 2.513 . S
O118 C116 1.246 . S
C119 O103 1.245 . S
C119 O104 1.259 . S
Tb120 O123 2.453 . S
Tb120 O124 2.596 . S
Tb120 O125 2.374 . S
Tb120 O133 2.343 . S
Tb120 O135 2.353 . S
Tb120 O137 2.427 . S
Tb120 O138 2.513 . S
C121 O125 1.251 . S
C121 O127 1.263 . S
Tb122 O124 2.343 . S
Tb122 O127 2.353 . S
Tb122 O130 2.427 . S
Tb122 O131 2.513 . S
Tb122 O132 2.453 . S
Tb122 O133 2.596 . S
Tb122 O134 2.374 . S
O123 Tb120 2.453 . S
O123 C139 1.245 . S
O124 Tb120 2.596 . S
O124 Tb122 2.343 . S
O124 C139 1.259 . S
O125 Tb120 2.374 . S
O125 C121 1.251 . S
C126 O130 1.275 . S
C126 O131 1.246 . S
O127 C121 1.263 . S
O127 Tb122 2.353 . S
C128 O132 1.245 . S
C128 O133 1.259 . S
C129 O134 1.250 . S
C129 O135 1.263 . S
O130 Tb122 2.427 . S
O130 C126 1.275 . S
O131 Tb122 2.513 . S
O131 C126 1.246 . S
O132 Tb122 2.453 . S
O132 C128 1.245 . S
O133 Tb120 2.343 . S
O133 Tb122 2.596 . S
O133 C128 1.259 . S
O134 Tb122 2.374 . S
O134 C129 1.250 . S
O135 Tb120 2.353 . S
O135 C129 1.263 . S
C136 O137 1.275 . S
C136 O138 1.246 . S
O137 Tb120 2.427 . S
O137 C136 1.275 . S
O138 Tb120 2.513 . S
O138 C136 1.246 . S
C139 O123 1.245 . S
C139 O124 1.259 . S
Tb140 O143 2.453 . S
Tb140 O144 2.596 . S
Tb140 O145 2.374 . S
Tb140 O153 2.343 . S
Tb140 O155 2.353 . S
Tb140 O157 2.427 . S
Tb140 O158 2.513 . S
C141 O145 1.251 . S
C141 O147 1.263 . S
Tb142 O144 2.343 . S
Tb142 O147 2.353 . S
Tb142 O150 2.427 . S
Tb142 O151 2.513 . S
Tb142 O152 2.453 . S
Tb142 O153 2.596 . S
Tb142 O154 2.374 . S
O143 Tb140 2.453 . S
O143 C159 1.245 . S
O144 Tb140 2.596 . S
O144 Tb142 2.343 . S
O144 C159 1.259 . S
O145 Tb140 2.374 . S
O145 C141 1.251 . S
C146 O150 1.275 . S
C146 O151 1.246 . S
O147 C141 1.263 . S
O147 Tb142 2.353 . S
C148 O152 1.245 . S
C148 O153 1.259 . S
C149 O154 1.250 . S
C149 O155 1.263 . S
O150 Tb142 2.427 . S
O150 C146 1.275 . S
O151 Tb142 2.513 . S
O151 C146 1.246 . S
O152 Tb142 2.453 . S
O152 C148 1.245 . S
O153 Tb140 2.343 . S
O153 Tb142 2.596 . S
O153 C148 1.259 . S
O154 Tb142 2.374 . S
O154 C149 1.250 . S
O155 Tb140 2.353 . S
O155 C149 1.263 . S
C156 O157 1.275 . S
C156 O158 1.246 . S
O157 Tb140 2.427 . S
O157 C156 1.275 . S
O158 Tb140 2.513 . S
O158 C156 1.246 . S
C159 O143 1.245 . S
C159 O144 1.259 . S
Tb160 O163 2.453 . S
Tb160 O164 2.596 . S
Tb160 O165 2.374 . S
Tb160 O173 2.343 . S
Tb160 O175 2.353 . S
Tb160 O177 2.427 . S
Tb160 O178 2.513 . S
C161 O165 1.251 . S
C161 O167 1.263 . S
Tb162 O164 2.343 . S
Tb162 O167 2.353 . S
Tb162 O170 2.427 . S
Tb162 O171 2.513 . S
Tb162 O172 2.453 . S
Tb162 O173 2.596 . S
Tb162 O174 2.374 . S
O163 Tb160 2.453 . S
O163 C179 1.245 . S
O164 Tb160 2.596 . S
O164 Tb162 2.343 . S
O164 C179 1.259 . S
O165 Tb160 2.374 . S
O165 C161 1.251 . S
C166 O170 1.275 . S
C166 O171 1.246 . S
O167 C161 1.263 . S
O167 Tb162 2.353 . S
C168 O172 1.245 . S
C168 O173 1.259 . S
C169 O174 1.250 . S
C169 O175 1.263 . S
O170 Tb162 2.427 . S
O170 C166 1.275 . S
O171 Tb162 2.513 . S
O171 C166 1.246 . S
O172 Tb162 2.453 . S
O172 C168 1.245 . S
O173 Tb160 2.343 . S
O173 Tb162 2.596 . S
O173 C168 1.259 . S
O174 Tb162 2.374 . S
O174 C169 1.250 . S
O175 Tb160 2.353 . S
O175 C169 1.263 . S
C176 O177 1.275 . S
C176 O178 1.246 . S
O177 Tb160 2.427 . S
O177 C176 1.275 . S
O178 Tb160 2.513 . S
O178 C176 1.246 . S
C179 O163 1.245 . S
C179 O164 1.259 . S
Tb180 O183 2.453 . S
Tb180 O184 2.596 . S
Tb180 O185 2.374 . S
Tb180 O193 2.343 . S
Tb180 O195 2.353 . S
Tb180 O197 2.427 . S
Tb180 O198 2.513 . S
C181 O185 1.251 . S
C181 O187 1.263 . S
Tb182 O184 2.343 . S
Tb182 O187 2.353 . S
Tb182 O190 2.427 . S
Tb182 O191 2.513 1_545 S
Tb182 O192 2.453 . S
Tb182 O193 2.596 . S
Tb182 O194 2.374 . S
O183 Tb180 2.453 . S
O183 C199 1.242 1_545 S
O184 Tb180 2.596 . S
O184 Tb182 2.343 . S
O184 C199 1.244 1_545 S
O185 Tb180 2.374 . S
O185 C181 1.251 . S
C186 O190 1.275 1_565 S
C186 O191 1.246 . S
O187 C181 1.263 . S
O187 Tb182 2.353 . S
C188 O192 1.245 . S
C188 O193 1.259 . S
C189 O194 1.250 . S
C189 O195 1.263 . S
O190 Tb182 2.427 . S
O190 C186 1.275 1_545 S
O191 Tb182 2.513 1_565 S
O191 C186 1.246 . S
O192 Tb182 2.453 . S
O192 C188 1.245 . S
O193 Tb180 2.343 . S
O193 Tb182 2.596 . S
O193 C188 1.259 . S
O194 Tb182 2.374 . S
O194 C189 1.250 . S
O195 Tb180 2.353 . S
O195 C189 1.263 . S
C196 O197 1.275 . S
C196 O198 1.246 . S
O197 Tb180 2.427 . S
O197 C196 1.275 . S
O198 Tb180 2.513 . S
O198 C196 1.246 . S
C199 O183 1.242 1_565 S
C199 O184 1.244 1_565 S
Tb200 O203 2.453 . S
Tb200 O204 2.596 . S
Tb200 O205 2.374 . S
Tb200 O213 2.343 . S
Tb200 O215 2.353 . S
Tb200 O217 2.427 . S
Tb200 O218 2.513 . S
C201 O205 1.251 . S
C201 O207 1.263 . S
Tb202 O204 2.343 . S
Tb202 O207 2.353 . S
Tb202 O210 2.427 . S
Tb202 O211 2.513 . S
Tb202 O212 2.453 1_565 S
Tb202 O213 2.596 . S
Tb202 O214 2.374 1_565 S
O203 Tb200 2.453 . S
O203 C219 1.245 . S
O204 Tb200 2.596 . S
O204 Tb202 2.343 . S
O204 C219 1.259 . S
O205 Tb200 2.374 . S
O205 C201 1.251 . S
C206 O210 1.275 . S
C206 O211 1.246 . S
O207 C201 1.263 . S
O207 Tb202 2.353 . S
C208 O212 1.245 1_565 S
C208 O213 1.259 . S
C209 O214 1.250 1_565 S
C209 O215 1.263 . S
O210 Tb202 2.427 . S
O210 C206 1.275 . S
O211 Tb202 2.513 . S
O211 C206 1.246 . S
O212 Tb202 2.453 1_545 S
O212 C208 1.245 1_545 S
O213 Tb200 2.343 . S
O213 Tb202 2.596 . S
O213 C208 1.259 . S
O214 Tb202 2.374 1_545 S
O214 C209 1.250 1_545 S
O215 Tb200 2.353 . S
O215 C209 1.263 . S
C216 O217 1.275 . S
C216 O218 1.246 . S
O217 Tb200 2.427 . S
O217 C216 1.275 . S
O218 Tb200 2.513 . S
O218 C216 1.246 . S
C219 O203 1.245 . S
C219 O204 1.259 . S
Tb220 O223 2.453 . S
Tb220 O224 2.596 . S
Tb220 O225 2.374 . S
Tb220 O233 2.343 . S
Tb220 O235 2.353 . S
Tb220 O237 2.427 . S
Tb220 O238 2.513 . S
C221 O225 1.251 . S
C221 O227 1.263 . S
Tb222 O224 2.343 . S
Tb222 O227 2.353 . S
Tb222 O230 2.427 . S
Tb222 O231 2.513 . S
Tb222 O232 2.453 . S
Tb222 O233 2.596 . S
Tb222 O234 2.374 . S
O223 Tb220 2.453 . S
O223 C239 1.245 . S
O224 Tb220 2.596 . S
O224 Tb222 2.343 . S
O224 C239 1.259 . S
O225 Tb220 2.374 . S
O225 C221 1.251 . S
C226 O230 1.275 . S
C226 O231 1.246 . S
O227 C221 1.263 . S
O227 Tb222 2.353 . S
C228 O232 1.245 . S
C228 O233 1.259 . S
C229 O234 1.250 . S
C229 O235 1.263 . S
O230 Tb222 2.427 . S
O230 C226 1.275 . S
O231 Tb222 2.513 . S
O231 C226 1.246 . S
O232 Tb222 2.453 . S
O232 C228 1.245 . S
O233 Tb220 2.343 . S
O233 Tb222 2.596 . S
O233 C228 1.259 . S
O234 Tb222 2.374 . S
O234 C229 1.250 . S
O235 Tb220 2.353 . S
O235 C229 1.263 . S
C236 O237 1.275 . S
C236 O238 1.246 . S
O237 Tb220 2.427 . S
O237 C236 1.275 . S
O238 Tb220 2.513 . S
O238 C236 1.246 . S
C239 O223 1.245 . S
C239 O224 1.259 . S
H240 C252 0.930 . S
H241 C254 0.930 . S
H242 C255 0.930 . S
H243 C259 0.959 . S
H244 C259 0.959 . S
H245 C259 0.961 . S
H246 C260 0.960 . S
H247 C260 0.961 . S
H248 C260 0.959 . S
H249 C263 0.929 . S
H250 C264 0.931 . S
H251 C266 0.930 . S
C252 H240 0.930 . S
C252 C253 1.399 . S
C252 C257 1.399 . S
C253 C252 1.399 . S
C253 C254 1.376 . S
C254 H241 0.930 . S
C254 C253 1.376 . S
C254 C255 1.388 . S
C255 H242 0.930 . S
C255 C254 1.388 . S
C255 C256 1.390 . S
C256 C255 1.390 . S
C256 C257 1.394 . S
C256 C262 1.465 . S
C257 C252 1.399 . S
C257 C256 1.394 . S
C257 C258 1.516 . S
C258 C257 1.516 . S
C258 C259 1.502 . S
C258 C260 1.561 . S
C258 C261 1.526 . S
C259 H243 0.959 . S
C259 H244 0.959 . S
C259 H245 0.961 . S
C259 C258 1.502 . S
C260 H246 0.960 . S
C260 H247 0.961 . S
C260 H248 0.959 . S
C260 C258 1.561 . S
C261 C258 1.526 . S
C261 C262 1.396 . S
C261 C266 1.390 . S
C262 C256 1.465 . S
C262 C261 1.396 . S
C262 C263 1.399 . S
C263 H249 0.929 . S
C263 C262 1.399 . S
C263 C264 1.385 . S
C264 H250 0.931 . S
C264 C263 1.385 . S
C264 C265 1.389 . S
C265 C264 1.389 . S
C265 C266 1.387 . S
C266 H251 0.930 . S
C266 C261 1.390 . S
C266 C265 1.387 . S
H267 C279 0.930 . S
H268 C281 0.930 . S
H269 C282 0.930 . S
H270 C286 0.985 . S
H271 C286 0.959 . S
H272 C286 0.961 . S
H273 C287 0.960 . S
H274 C287 0.961 . S
H275 C287 0.959 . S
H276 C290 0.929 . S
H277 C291 0.931 . S
H278 C293 0.930 . S
C279 H267 0.930 . S
C279 C280 1.399 . S
C279 C284 1.399 . S
C280 C279 1.399 . S
C280 C281 1.376 1_545 S
C281 H268 0.930 . S
C281 C280 1.376 1_565 S
C281 C282 1.388 . S
C282 H269 0.930 . S
C282 C281 1.388 . S
C282 C283 1.390 . S
C283 C282 1.390 . S
C283 C284 1.394 1_565 S
C283 C289 1.465 . S
C284 C279 1.399 . S
C284 C283 1.394 1_545 S
C284 C285 1.516 . S
C285 C284 1.516 . S
C285 C286 1.502 . S
C285 C287 1.561 . S
C285 C288 1.526 1_545 S
C286 H270 0.985 . S
C286 H271 0.959 . S
C286 H272 0.961 . S
C286 C285 1.502 . S
C287 H273 0.960 . S
C287 H274 0.961 . S
C287 H275 0.959 . S
C287 C285 1.561 . S
C288 C285 1.526 1_565 S
C288 C289 1.396 . S
C288 C293 1.390 . S
C289 C283 1.465 . S
C289 C288 1.396 . S
C289 C290 1.399 . S
C290 H276 0.929 . S
C290 C289 1.399 . S
C290 C291 1.385 . S
C291 H277 0.931 . S
C291 C290 1.385 . S
C291 C292 1.389 . S
C292 C291 1.389 . S
C292 C293 1.387 . S
C293 H278 0.930 . S
C293 C288 1.390 . S
C293 C292 1.387 . S
H294 C306 0.930 . S
H295 C308 0.930 . S
H296 C309 0.930 . S
H297 C313 0.959 . S
H298 C313 0.959 . S
H299 C313 0.961 . S
H300 C314 0.960 . S
H301 C314 0.961 . S
H302 C314 0.959 1_554 S
H303 C317 0.929 . S
H304 C318 0.931 . S
H305 C320 0.930 1_556 S
C306 H294 0.930 . S
C306 C307 1.399 . S
C306 C311 1.399 . S
C307 C306 1.399 . S
C307 C308 1.376 1_556 S
C308 H295 0.930 . S
C308 C307 1.376 1_554 S
C308 C309 1.388 . S
C309 H296 0.930 . S
C309 C308 1.388 . S
C309 C310 1.390 . S
C310 C309 1.390 . S
C310 C311 1.394 1_554 S
C310 C316 1.465 . S
C311 C306 1.399 . S
C311 C310 1.394 1_556 S
C311 C312 1.516 . S
C312 C311 1.516 . S
C312 C313 1.502 . S
C312 C314 1.561 . S
C312 C315 1.526 1_556 S
C313 H297 0.959 . S
C313 H298 0.959 . S
C313 H299 0.961 . S
C313 C312 1.502 . S
C314 H300 0.960 . S
C314 H301 0.961 . S
C314 H302 0.959 1_556 S
C314 C312 1.561 . S
C315 C312 1.526 1_554 S
C315 C316 1.396 . S
C315 C320 1.390 . S
C316 C310 1.465 . S
C316 C315 1.396 . S
C316 C317 1.399 . S
C317 H303 0.929 . S
C317 C316 1.399 . S
C317 C318 1.385 . S
C318 H304 0.931 . S
C318 C317 1.385 . S
C318 C319 1.389 . S
C319 C318 1.389 . S
C319 C320 1.387 . S
C320 H305 0.930 1_554 S
C320 C315 1.390 . S
C320 C319 1.387 . S
H321 C333 0.930 . S
H322 C335 0.930 . S
H323 C336 0.930 1_565 S
H324 C340 0.959 . S
H325 C340 0.959 . S
H326 C340 0.961 . S
H327 C341 0.960 . S
H328 C341 0.961 . S
H329 C341 0.959 . S
H330 C344 0.929 . S
H331 C345 0.931 . S
H332 C347 0.930 . S
C333 H321 0.930 . S
C333 C334 1.399 . S
C333 C338 1.399 . S
C334 C333 1.399 . S
C334 C335 1.376 . S
C335 H322 0.930 . S
C335 C334 1.376 . S
C335 C336 1.388 . S
C336 H323 0.930 1_545 S
C336 C335 1.388 . S
C336 C337 1.390 . S
C337 C336 1.390 . S
C337 C338 1.394 . S
C337 C343 1.465 . S
C338 C333 1.399 . S
C338 C337 1.394 . S
C338 C339 1.516 . S
C339 C338 1.516 . S
C339 C340 1.502 . S
C339 C341 1.561 . S
C339 C342 1.526 . S
C340 H324 0.959 . S
C340 H325 0.959 . S
C340 H326 0.961 . S
C340 C339 1.502 . S
C341 H327 0.960 . S
C341 H328 0.961 . S
C341 H329 0.959 . S
C341 C339 1.561 . S
C342 C339 1.526 . S
C342 C343 1.396 . S
C342 C347 1.390 . S
C343 C337 1.465 . S
C343 C342 1.396 . S
C343 C344 1.399 1_545 S
C344 H330 0.929 . S
C344 C343 1.399 1_565 S
C344 C345 1.385 . S
C345 H331 0.931 . S
C345 C344 1.385 . S
C345 C346 1.389 . S
C346 C345 1.389 . S
C346 C347 1.387 1_565 S
C347 H332 0.930 . S
C347 C342 1.390 . S
C347 C346 1.387 1_545 S
H348 C360 0.930 . S
H349 C362 0.930 . S
H350 C363 0.930 . S
H351 C367 0.959 . S
H352 C367 0.959 . S
H353 C367 0.961 . S
H354 C368 0.960 . S
H355 C368 0.961 . S
H356 C368 0.959 . S
H357 C371 0.929 . S
H358 C372 0.931 . S
H359 C374 0.930 . S
C360 H348 0.930 . S
C360 C361 1.399 . S
C360 C365 1.399 . S
C361 C360 1.399 . S
C361 C362 1.376 . S
C362 H349 0.930 . S
C362 C361 1.376 . S
C362 C363 1.388 . S
C363 H350 0.930 . S
C363 C362 1.388 . S
C363 C364 1.390 . S
C364 C363 1.390 . S
C364 C365 1.394 . S
C364 C370 1.465 . S
C365 C360 1.399 . S
C365 C364 1.394 . S
C365 C366 1.516 . S
C366 C365 1.516 . S
C366 C367 1.502 . S
C366 C368 1.561 . S
C366 C369 1.526 . S
C367 H351 0.959 . S
C367 H352 0.959 . S
C367 H353 0.961 . S
C367 C366 1.502 . S
C368 H354 0.960 . S
C368 H355 0.961 . S
C368 H356 0.959 . S
C368 C366 1.561 . S
C369 C366 1.526 . S
C369 C370 1.396 . S
C369 C374 1.390 . S
C370 C364 1.465 . S
C370 C369 1.396 . S
C370 C371 1.399 . S
C371 H357 0.929 . S
C371 C370 1.399 . S
C371 C372 1.385 . S
C372 H358 0.931 . S
C372 C371 1.385 . S
C372 C373 1.389 . S
C373 C372 1.389 . S
C373 C374 1.387 . S
C374 H359 0.930 . S
C374 C369 1.390 . S
C374 C373 1.387 . S
H375 C387 0.930 . S
H376 C389 0.930 1_655 S
H377 C390 0.930 . S
H378 C394 0.959 . S
H379 C394 0.959 . S
H380 C394 0.961 . S
H381 C395 0.960 . S
H382 C395 0.961 . S
H383 C395 0.959 . S
H384 C398 0.929 . S
H385 C399 0.931 . S
H386 C401 0.930 . S
C387 H375 0.930 . S
C387 C388 1.399 . S
C387 C392 1.399 . S
C388 C387 1.399 . S
C388 C389 1.376 . S
C389 H376 0.930 1_455 S
C389 C388 1.376 . S
C389 C390 1.388 . S
C390 H377 0.930 . S
C390 C389 1.388 . S
C390 C391 1.390 . S
C391 C390 1.390 . S
C391 C392 1.394 . S
C391 C397 1.465 . S
C392 C387 1.399 . S
C392 C391 1.394 . S
C392 C393 1.516 . S
C393 C392 1.516 . S
C393 C394 1.502 . S
C393 C395 1.561 . S
C393 C396 1.526 . S
C394 H378 0.959 . S
C394 H379 0.959 . S
C394 H380 0.961 . S
C394 C393 1.502 . S
C395 H381 0.960 . S
C395 H382 0.961 . S
C395 H383 0.959 . S
C395 C393 1.561 . S
C396 C393 1.526 . S
C396 C397 1.396 . S
C396 C401 1.390 . S
C397 C391 1.465 . S
C397 C396 1.396 . S
C397 C398 1.399 . S
C398 H384 0.929 . S
C398 C397 1.399 . S
C398 C399 1.385 . S
C399 H385 0.931 . S
C399 C398 1.385 . S
C399 C400 1.389 . S
C400 C399 1.389 . S
C400 C401 1.387 . S
C401 H386 0.930 . S
C401 C396 1.390 . S
C401 C400 1.387 . S
H402 C414 0.930 . S
H403 C416 0.930 . S
H404 C417 0.930 . S
H405 C421 0.959 . S
H406 C421 0.959 . S
H407 C421 0.961 . S
H408 C422 0.960 . S
H409 C422 0.961 . S
H410 C422 0.959 . S
H411 C425 0.929 . S
H412 C426 0.931 . S
H413 C428 0.930 1_556 S
C414 H402 0.930 . S
C414 C415 1.399 . S
C414 C419 1.399 . S
C415 C414 1.399 . S
C415 C416 1.376 1_556 S
C416 H403 0.930 . S
C416 C415 1.376 1_554 S
C416 C417 1.388 . S
C417 H404 0.930 . S
C417 C416 1.388 . S
C417 C418 1.390 . S
C418 C417 1.390 . S
C418 C419 1.394 1_554 S
C418 C424 1.465 . S
C419 C414 1.399 . S
C419 C418 1.394 1_556 S
C419 C420 1.516 . S
C420 C419 1.516 . S
C420 C421 1.502 . S
C420 C422 1.561 . S
C420 C423 1.526 1_556 S
C421 H405 0.959 . S
C421 H406 0.959 . S
C421 H407 0.961 . S
C421 C420 1.502 . S
C422 H408 0.960 . S
C422 H409 0.961 . S
C422 H410 0.959 . S
C422 C420 1.561 . S
C423 C420 1.526 1_554 S
C423 C424 1.396 . S
C423 C428 1.390 . S
C424 C418 1.465 . S
C424 C423 1.396 . S
C424 C425 1.399 . S
C425 H411 0.929 . S
C425 C424 1.399 . S
C425 C426 1.385 . S
C426 H412 0.931 . S
C426 C425 1.385 . S
C426 C427 1.389 . S
C427 C426 1.389 . S
C427 C428 1.387 . S
C428 H413 0.930 1_554 S
C428 C423 1.390 . S
C428 C427 1.387 . S
H429 C441 0.930 . S
H430 C443 0.930 . S
H431 C444 0.930 . S
H432 C448 0.959 . S
H433 C448 0.959 . S
H434 C448 0.961 . S
H435 C449 0.960 . S
H436 C449 0.961 . S
H437 C449 0.959 . S
H438 C452 0.929 . S
H439 C453 0.931 . S
H440 C455 0.930 . S
C441 H429 0.930 . S
C441 C442 1.399 . S
C441 C446 1.399 . S
C442 C441 1.399 . S
C442 C443 1.376 . S
C443 H430 0.930 . S
C443 C442 1.376 . S
C443 C444 1.388 . S
C444 H431 0.930 . S
C444 C443 1.388 . S
C444 C445 1.390 . S
C445 C444 1.390 . S
C445 C446 1.394 . S
C445 C451 1.465 . S
C446 C441 1.399 . S
C446 C445 1.394 . S
C446 C447 1.516 . S
C447 C446 1.516 . S
C447 C448 1.502 . S
C447 C449 1.561 . S
C447 C450 1.526 . S
C448 H432 0.959 . S
C448 H433 0.959 . S
C448 H434 0.961 . S
C448 C447 1.502 . S
C449 H435 0.960 . S
C449 H436 0.961 . S
C449 H437 0.959 . S
C449 C447 1.561 . S
C450 C447 1.526 . S
C450 C451 1.396 . S
C450 C455 1.390 . S
C451 C445 1.465 . S
C451 C450 1.396 . S
C451 C452 1.399 . S
C452 H438 0.929 . S
C452 C451 1.399 . S
C452 C453 1.385 . S
C453 H439 0.931 . S
C453 C452 1.385 . S
C453 C454 1.389 . S
C454 C453 1.389 . S
C454 C455 1.387 . S
C455 H440 0.930 . S
C455 C450 1.390 . S
C455 C454 1.387 . S
H456 C468 0.930 . S
H457 C470 0.930 . S
H458 C471 0.930 . S
H459 C475 0.959 . S
H460 C475 0.959 . S
H461 C475 0.961 . S
H462 C476 0.960 . S
H463 C476 0.961 . S
H464 C476 0.959 . S
H465 C479 0.929 . S
H466 C480 0.931 . S
H467 C482 0.930 . S
C468 H456 0.930 . S
C468 C469 1.399 . S
C468 C473 1.399 . S
C469 C468 1.399 . S
C469 C470 1.376 . S
C470 H457 0.930 . S
C470 C469 1.376 . S
C470 C471 1.388 . S
C471 H458 0.930 . S
C471 C470 1.388 . S
C471 C472 1.390 . S
C472 C471 1.390 . S
C472 C473 1.394 . S
C472 C478 1.465 . S
C473 C468 1.399 . S
C473 C472 1.394 . S
C473 C474 1.516 . S
C474 C473 1.516 . S
C474 C475 1.502 . S
C474 C476 1.561 . S
C474 C477 1.526 . S
C475 H459 0.959 . S
C475 H460 0.959 . S
C475 H461 0.961 . S
C475 C474 1.502 . S
C476 H462 0.960 . S
C476 H463 0.961 . S
C476 H464 0.959 . S
C476 C474 1.561 . S
C477 C474 1.526 . S
C477 C478 1.396 . S
C477 C482 1.390 . S
C478 C472 1.465 . S
C478 C477 1.396 . S
C478 C479 1.399 . S
C479 H465 0.929 . S
C479 C478 1.399 . S
C479 C480 1.385 . S
C480 H466 0.931 . S
C480 C479 1.385 . S
C480 C481 1.389 . S
C481 C480 1.389 . S
C481 C482 1.387 . S
C482 H467 0.930 . S
C482 C477 1.390 . S
C482 C481 1.387 . S
H483 C495 0.930 . S
H484 C497 0.930 . S
H485 C498 0.930 . S
H486 C502 0.959 . S
H487 C502 0.959 . S
H488 C502 0.961 . S
H489 C503 0.960 . S
H490 C503 0.961 . S
H491 C503 0.959 1_655 S
H492 C506 0.929 . S
H493 C507 0.931 . S
H494 C509 0.930 1_455 S
C495 H483 0.930 . S
C495 C496 1.399 . S
C495 C500 1.399 . S
C496 C495 1.399 . S
C496 C497 1.376 . S
C497 H484 0.930 . S
C497 C496 1.376 . S
C497 C498 1.388 1_455 S
C498 H485 0.930 . S
C498 C497 1.388 1_655 S
C498 C499 1.387 1_655 S
C499 C498 1.387 1_455 S
C499 C500 1.403 . S
C499 C505 1.460 1_455 S
C500 C495 1.399 . S
C500 C499 1.403 . S
C500 C501 1.516 . S
C501 C500 1.516 . S
C501 C502 1.502 . S
C501 C503 1.561 . S
C501 C504 1.526 . S
C502 H486 0.959 . S
C502 H487 0.959 . S
C502 H488 0.961 . S
C502 C501 1.502 . S
C503 H489 0.960 . S
C503 H490 0.961 . S
C503 H491 0.959 1_455 S
C503 C501 1.561 . S
C504 C501 1.526 . S
C504 C505 1.396 1_455 S
C504 C509 1.390 1_455 S
C505 C499 1.460 1_655 S
C505 C504 1.396 1_655 S
C505 C506 1.399 . S
C506 H492 0.929 . S
C506 C505 1.399 . S
C506 C507 1.385 . S
C507 H493 0.931 . S
C507 C506 1.385 . S
C507 C508 1.389 . S
C508 C507 1.389 . S
C508 C509 1.387 . S
C509 H494 0.930 1_655 S
C509 C504 1.390 1_655 S
C509 C508 1.387 . S
H510 C522 0.930 1_655 S
H511 C524 0.930 . S
H512 C525 0.930 . S
H513 C529 0.959 . S
H514 C529 0.959 . S
H515 C529 0.961 . S
H516 C530 0.960 . S
H517 C530 0.961 . S
H518 C530 0.959 1_455 S
H519 C533 0.929 . S
H520 C534 0.931 1_554 S
H521 C536 0.930 . S
C522 H510 0.930 1_455 S
C522 C523 1.399 . S
C522 C527 1.399 . S
C523 C522 1.399 . S
C523 C524 1.376 . S
C524 H511 0.930 . S
C524 C523 1.376 . S
C524 C525 1.388 . S
C525 H512 0.930 . S
C525 C524 1.388 . S
C525 C526 1.390 . S
C526 C525 1.390 . S
C526 C527 1.394 . S
C526 C532 1.465 . S
C527 C522 1.399 . S
C527 C526 1.394 . S
C527 C528 1.516 1_455 S
C528 C527 1.516 1_655 S
C528 C529 1.502 . S
C528 C530 1.561 . S
C528 C531 1.526 . S
C529 H513 0.959 . S
C529 H514 0.959 . S
C529 H515 0.961 . S
C529 C528 1.502 . S
C530 H516 0.960 . S
C530 H517 0.961 . S
C530 H518 0.959 1_655 S
C530 C528 1.561 . S
C531 C528 1.526 . S
C531 C532 1.396 1_655 S
C531 C536 1.390 . S
C532 C526 1.465 . S
C532 C531 1.396 1_455 S
C532 C533 1.399 . S
C533 H519 0.929 . S
C533 C532 1.399 . S
C533 C534 1.385 . S
C534 H520 0.931 1_556 S
C534 C533 1.385 . S
C534 C535 1.389 1_455 S
C535 C534 1.389 1_655 S
C535 C536 1.387 . S
C536 H521 0.930 . S
C536 C531 1.390 . S
C536 C535 1.387 . S
H537 C549 0.930 . S
H538 C551 0.930 . S
H539 C552 0.930 . S
H540 C556 0.959 . S
H541 C556 0.959 . S
H542 C556 0.961 . S
H543 C557 0.960 . S
H544 C557 0.961 . S
H545 C557 0.959 . S
H546 C560 0.929 . S
H547 C561 0.931 . S
H548 C563 0.930 . S
C549 H537 0.930 . S
C549 C550 1.399 . S
C549 C554 1.399 . S
C550 C549 1.399 . S
C550 C551 1.376 . S
C551 H538 0.930 . S
C551 C550 1.376 . S
C551 C552 1.388 . S
C552 H539 0.930 . S
C552 C551 1.388 . S
C552 C553 1.390 . S
C553 C552 1.390 . S
C553 C554 1.394 . S
C553 C559 1.465 . S
C554 C549 1.399 . S
C554 C553 1.394 . S
C554 C555 1.516 . S
C555 C554 1.516 . S
C555 C556 1.502 . S
C555 C557 1.561 . S
C555 C558 1.526 . S
C556 H540 0.959 . S
C556 H541 0.959 . S
C556 H542 0.961 . S
C556 C555 1.502 . S
C557 H543 0.960 . S
C557 H544 0.961 . S
C557 H545 0.959 . S
C557 C555 1.561 . S
C558 C555 1.526 . S
C558 C559 1.396 . S
C558 C563 1.390 . S
C559 C553 1.465 . S
C559 C558 1.396 . S
C559 C560 1.399 . S
C560 H546 0.929 . S
C560 C559 1.399 . S
C560 C561 1.385 . S
C561 H547 0.931 . S
C561 C560 1.385 . S
C561 C562 1.389 . S
C562 C561 1.389 . S
C562 C563 1.387 . S
C563 H548 0.930 . S
C563 C558 1.390 . S
C563 C562 1.387 . S
H564 C576 0.930 . S
H565 C578 0.930 . S
H566 C579 0.930 . S
H567 C583 0.959 . S
H568 C583 0.959 . S
H569 C583 0.961 . S
H570 C584 0.960 . S
H571 C584 0.961 . S
H572 C584 0.959 . S
H573 C587 0.929 . S
H574 C588 0.931 . S
H575 C590 0.930 . S
C576 H564 0.930 . S
C576 C577 1.399 . S
C576 C581 1.399 . S
C577 C576 1.399 . S
C577 C578 1.376 . S
C578 H565 0.930 . S
C578 C577 1.376 . S
C578 C579 1.388 . S
C579 H566 0.930 . S
C579 C578 1.388 . S
C579 C580 1.390 . S
C580 C579 1.390 . S
C580 C581 1.394 . S
C580 C586 1.465 . S
C581 C576 1.399 . S
C581 C580 1.394 . S
C581 C582 1.516 . S
C582 C581 1.516 . S
C582 C583 1.502 . S
C582 C584 1.561 . S
C582 C585 1.526 . S
C583 H567 0.959 . S
C583 H568 0.959 . S
C583 H569 0.961 . S
C583 C582 1.502 . S
C584 H570 0.960 . S
C584 H571 0.961 . S
C584 H572 0.959 . S
C584 C582 1.561 . S
C585 C582 1.526 . S
C585 C586 1.396 . S
C585 C590 1.390 . S
C586 C580 1.465 . S
C586 C585 1.396 . S
C586 C587 1.399 . S
C587 H573 0.929 . S
C587 C586 1.399 . S
C587 C588 1.385 . S
C588 H574 0.931 . S
C588 C587 1.385 . S
C588 C589 1.389 . S
C589 C588 1.389 . S
C589 C590 1.387 . S
C590 H575 0.930 . S
C590 C585 1.390 . S
C590 C589 1.387 . S
H591 C603 0.930 . S
H592 C605 0.930 . S
H593 C606 0.932 . S
H594 C610 0.959 . S
H595 C610 0.959 . S
H596 C610 0.961 . S
H597 C611 0.960 . S
H598 C611 0.961 . S
H599 C611 0.959 1_455 S
H600 C614 0.929 . S
H601 C615 0.931 . S
H602 C617 0.930 . S
C603 H591 0.930 . S
C603 C604 1.399 1_655 S
C603 C608 1.399 . S
C604 C603 1.399 1_455 S
C604 C605 1.376 . S
C605 H592 0.930 . S
C605 C604 1.376 . S
C605 C606 1.388 1_455 S
C606 H593 0.932 . S
C606 C605 1.388 1_655 S
C606 C607 1.390 . S
C607 C606 1.390 . S
C607 C608 1.394 . S
C607 C613 1.465 . S
C608 C603 1.399 . S
C608 C607 1.394 . S
C608 C609 1.516 . S
C609 C608 1.516 . S
C609 C610 1.502 . S
C609 C611 1.561 . S
C609 C612 1.526 . S
C610 H594 0.959 . S
C610 H595 0.959 . S
C610 H596 0.961 . S
C610 C609 1.502 . S
C611 H597 0.960 . S
C611 H598 0.961 . S
C611 H599 0.959 1_655 S
C611 C609 1.561 . S
C612 C609 1.526 . S
C612 C613 1.396 . S
C612 C617 1.390 . S
C613 C607 1.465 . S
C613 C612 1.396 . S
C613 C614 1.399 . S
C614 H600 0.929 . S
C614 C613 1.399 . S
C614 C615 1.385 . S
C615 H601 0.931 . S
C615 C614 1.385 . S
C615 C616 1.389 . S
C616 C615 1.389 . S
C616 C617 1.387 . S
C617 H602 0.930 . S
C617 C612 1.390 . S
C617 C616 1.387 . S
H618 C630 0.930 . S
H619 C632 0.930 . S
H620 C633 0.930 . S
H621 C637 0.959 . S
H622 C637 0.959 . S
H623 C637 0.961 . S
H624 C638 0.960 . S
H625 C638 0.961 . S
H626 C638 0.959 . S
H627 C641 0.929 . S
H628 C642 0.931 . S
H629 C644 0.930 . S
C630 H618 0.930 . S
C630 C631 1.399 . S
C630 C635 1.399 . S
C631 C630 1.399 . S
C631 C632 1.376 . S
C632 H619 0.930 . S
C632 C631 1.376 . S
C632 C633 1.388 . S
C633 H620 0.930 . S
C633 C632 1.388 . S
C633 C634 1.390 . S
C634 C633 1.390 . S
C634 C635 1.394 . S
C634 C640 1.465 . S
C635 C630 1.399 . S
C635 C634 1.394 . S
C635 C636 1.516 . S
C636 C635 1.516 . S
C636 C637 1.502 . S
C636 C638 1.561 . S
C636 C639 1.526 . S
C637 H621 0.959 . S
C637 H622 0.959 . S
C637 H623 0.961 . S
C637 C636 1.502 . S
C638 H624 0.960 . S
C638 H625 0.961 . S
C638 H626 0.959 . S
C638 C636 1.561 . S
C639 C636 1.526 . S
C639 C640 1.396 . S
C639 C644 1.390 . S
C640 C634 1.465 . S
C640 C639 1.396 . S
C640 C641 1.399 . S
C641 H627 0.929 . S
C641 C640 1.399 . S
C641 C642 1.385 . S
C642 H628 0.931 . S
C642 C641 1.385 . S
C642 C643 1.389 . S
C643 C642 1.389 . S
C643 C644 1.387 . S
C644 H629 0.930 . S
C644 C639 1.390 . S
C644 C643 1.387 . S
H645 C657 0.930 . S
H646 C659 0.930 . S
H647 C660 0.930 . S
H648 C664 0.959 . S
H649 C664 0.959 . S
H650 C664 0.961 . S
H651 C665 0.960 . S
H652 C665 0.961 1_556 S
H653 C665 0.959 . S
H654 C668 0.929 . S
H655 C669 0.931 . S
H656 C671 0.930 . S
C657 H645 0.930 . S
C657 C658 1.399 . S
C657 C662 1.399 . S
C658 C657 1.399 . S
C658 C659 1.376 . S
C659 H646 0.930 . S
C659 C658 1.376 . S
C659 C660 1.388 . S
C660 H647 0.930 . S
C660 C659 1.388 . S
C660 C661 1.390 . S
C661 C660 1.390 . S
C661 C662 1.394 . S
C661 C667 1.465 . S
C662 C657 1.399 . S
C662 C661 1.394 . S
C662 C663 1.516 . S
C663 C662 1.516 . S
C663 C664 1.502 1_554 S
C663 C665 1.561 . S
C663 C666 1.526 1_554 S
C664 H648 0.959 . S
C664 H649 0.959 . S
C664 H650 0.961 . S
C664 C663 1.502 1_556 S
C665 H651 0.960 . S
C665 H652 0.961 1_554 S
C665 H653 0.959 . S
C665 C663 1.561 . S
C666 C663 1.526 1_556 S
C666 C667 1.396 1_556 S
C666 C671 1.390 . S
C667 C661 1.465 . S
C667 C666 1.396 1_554 S
C667 C668 1.399 . S
C668 H654 0.929 . S
C668 C667 1.399 . S
C668 C669 1.385 1_554 S
C669 H655 0.931 . S
C669 C668 1.385 1_556 S
C669 C670 1.389 . S
C670 C669 1.389 . S
C670 C671 1.387 . S
C671 H656 0.930 . S
C671 C666 1.390 . S
C671 C670 1.387 . S
H672 C684 0.930 . S
H673 C686 0.930 . S
H674 C687 0.930 . S
H675 C691 0.959 . S
H676 C691 0.959 . S
H677 C691 0.961 . S
H678 C692 0.960 . S
H679 C692 0.961 . S
H680 C692 0.959 . S
H681 C695 0.929 . S
H682 C696 0.931 . S
H683 C698 0.930 . S
C684 H672 0.930 . S
C684 C685 1.399 . S
C684 C689 1.399 . S
C685 C684 1.399 . S
C685 C686 1.376 . S
C686 H673 0.930 . S
C686 C685 1.376 . S
C686 C687 1.388 . S
C687 H674 0.930 . S
C687 C686 1.388 . S
C687 C688 1.390 . S
C688 C687 1.390 . S
C688 C689 1.394 . S
C688 C694 1.465 . S
C689 C684 1.399 . S
C689 C688 1.394 . S
C689 C690 1.516 . S
C690 C689 1.516 . S
C690 C691 1.502 . S
C690 C692 1.561 . S
C690 C693 1.526 . S
C691 H675 0.959 . S
C691 H676 0.959 . S
C691 H677 0.961 . S
C691 C690 1.502 . S
C692 H678 0.960 . S
C692 H679 0.961 . S
C692 H680 0.959 . S
C692 C690 1.561 . S
C693 C690 1.526 . S
C693 C694 1.396 . S
C693 C698 1.390 . S
C694 C688 1.465 . S
C694 C693 1.396 . S
C694 C695 1.399 . S
C695 H681 0.929 . S
C695 C694 1.399 . S
C695 C696 1.385 . S
C696 H682 0.931 . S
C696 C695 1.385 . S
C696 C697 1.389 . S
C697 C696 1.389 . S
C697 C698 1.387 . S
C698 H683 0.930 . S
C698 C693 1.390 . S
C698 C697 1.387 . S
H699 C711 0.930 . S
H700 C713 0.930 . S
H701 C714 0.930 . S
H702 C718 0.959 . S
H703 C718 0.959 . S
H704 C718 0.961 . S
H705 C719 0.960 . S
H706 C719 0.961 . S
H707 C719 0.959 . S
H708 C722 0.929 . S
H709 C723 0.931 1_655 S
H710 C725 0.930 . S
C711 H699 0.930 . S
C711 C712 1.399 . S
C711 C716 1.399 1_554 S
C712 C711 1.399 . S
C712 C713 1.376 . S
C713 H700 0.930 . S
C713 C712 1.376 . S
C713 C714 1.388 . S
C714 H701 0.930 . S
C714 C713 1.388 . S
C714 C715 1.390 1_554 S
C715 C714 1.390 1_556 S
C715 C716 1.394 . S
C715 C721 1.465 . S
C716 C711 1.399 1_556 S
C716 C715 1.394 . S
C716 C717 1.516 . S
C717 C716 1.516 . S
C717 C718 1.502 . S
C717 C719 1.561 . S
C717 C720 1.526 . S
C718 H702 0.959 . S
C718 H703 0.959 . S
C718 H704 0.961 . S
C718 C717 1.502 . S
C719 H705 0.960 . S
C719 H706 0.961 . S
C719 H707 0.959 . S
C719 C717 1.561 . S
C720 C717 1.526 . S
C720 C721 1.396 . S
C720 C725 1.390 . S
C721 C715 1.465 . S
C721 C720 1.396 . S
C721 C722 1.399 . S
C722 H708 0.929 . S
C722 C721 1.399 . S
C722 C723 1.385 . S
C723 H709 0.931 1_455 S
C723 C722 1.385 . S
C723 C724 1.389 . S
C724 C723 1.389 . S
C724 C725 1.387 . S
C725 H710 0.930 . S
C725 C720 1.390 . S
C725 C724 1.387 . S
H726 C738 0.930 . S
H727 C740 0.930 . S
H728 C741 0.930 . S
H729 C745 0.959 . S
H730 C745 0.959 . S
H731 C745 0.961 . S
H732 C746 0.960 . S
H733 C746 0.961 . S
H734 C746 0.959 . S
H735 C749 0.929 . S
H736 C750 0.931 . S
H737 C752 0.930 . S
C738 H726 0.930 . S
C738 C739 1.399 . S
C738 C743 1.399 . S
C739 C738 1.399 . S
C739 C740 1.376 . S
C740 H727 0.930 . S
C740 C739 1.376 . S
C740 C741 1.388 . S
C741 H728 0.930 . S
C741 C740 1.388 . S
C741 C742 1.390 . S
C742 C741 1.390 . S
C742 C743 1.394 . S
C742 C748 1.465 . S
C743 C738 1.399 . S
C743 C742 1.394 . S
C743 C744 1.516 . S
C744 C743 1.516 . S
C744 C745 1.502 . S
C744 C746 1.561 . S
C744 C747 1.526 . S
C745 H729 0.959 . S
C745 H730 0.959 . S
C745 H731 0.961 . S
C745 C744 1.502 . S
C746 H732 0.960 . S
C746 H733 0.961 . S
C746 H734 0.959 . S
C746 C744 1.561 . S
C747 C744 1.526 . S
C747 C748 1.396 . S
C747 C752 1.390 . S
C748 C742 1.465 . S
C748 C747 1.396 . S
C748 C749 1.399 . S
C749 H735 0.929 . S
C749 C748 1.399 . S
C749 C750 1.385 . S
C750 H736 0.931 . S
C750 C749 1.385 . S
C750 C751 1.389 . S
C751 C750 1.389 . S
C751 C752 1.387 . S
C752 H737 0.930 . S
C752 C747 1.390 . S
C752 C751 1.387 . S
H753 C765 0.930 . S
H754 C767 0.930 . S
H755 C768 0.930 . S
H756 C772 0.959 . S
H757 C772 0.959 . S
H758 C772 0.961 . S
H759 C773 0.960 . S
H760 C773 0.961 . S
H761 C773 0.959 . S
H762 C776 0.929 . S
H763 C777 0.931 . S
H764 C779 0.930 . S
C765 H753 0.930 . S
C765 C766 1.399 . S
C765 C770 1.399 . S
C766 C765 1.399 . S
C766 C767 1.376 . S
C767 H754 0.930 . S
C767 C766 1.376 . S
C767 C768 1.388 . S
C768 H755 0.930 . S
C768 C767 1.388 . S
C768 C769 1.390 . S
C769 C768 1.390 . S
C769 C770 1.394 . S
C769 C775 1.465 . S
C770 C765 1.399 . S
C770 C769 1.394 . S
C770 C771 1.516 . S
C771 C770 1.516 . S
C771 C772 1.502 . S
C771 C773 1.561 . S
C771 C774 1.526 . S
C772 H756 0.959 . S
C772 H757 0.959 . S
C772 H758 0.961 . S
C772 C771 1.502 . S
C773 H759 0.960 . S
C773 H760 0.961 . S
C773 H761 0.959 . S
C773 C771 1.561 . S
C774 C771 1.526 . S
C774 C775 1.396 . S
C774 C779 1.390 . S
C775 C769 1.465 . S
C775 C774 1.396 . S
C775 C776 1.399 . S
C776 H762 0.929 . S
C776 C775 1.399 . S
C776 C777 1.385 . S
C777 H763 0.931 . S
C777 C776 1.385 . S
C777 C778 1.389 . S
C778 C777 1.389 . S
C778 C779 1.387 . S
C779 H764 0.930 . S
C779 C774 1.390 . S
C779 C778 1.387 . S
H780 C792 0.930 . S
H781 C794 0.930 . S
H782 C795 0.930 . S
H783 C799 0.959 . S
H784 C799 0.959 . S
H785 C799 0.961 . S
H786 C800 0.960 . S
H787 C800 0.961 . S
H788 C800 0.959 . S
H789 C803 0.929 . S
H790 C804 0.931 . S
H791 C806 0.930 . S
C792 H780 0.930 . S
C792 C793 1.399 . S
C792 C797 1.399 . S
C793 C792 1.399 . S
C793 C794 1.376 . S
C794 H781 0.930 . S
C794 C793 1.376 . S
C794 C795 1.388 . S
C795 H782 0.930 . S
C795 C794 1.388 . S
C795 C796 1.390 . S
C796 C795 1.390 . S
C796 C797 1.394 . S
C796 C802 1.465 . S
C797 C792 1.399 . S
C797 C796 1.394 . S
C797 C798 1.516 . S
C798 C797 1.516 . S
C798 C799 1.502 . S
C798 C800 1.561 . S
C798 C801 1.526 . S
C799 H783 0.959 . S
C799 H784 0.959 . S
C799 H785 0.961 . S
C799 C798 1.502 . S
C800 H786 0.960 . S
C800 H787 0.961 . S
C800 H788 0.959 . S
C800 C798 1.561 . S
C801 C798 1.526 . S
C801 C802 1.396 . S
C801 C806 1.390 . S
C802 C796 1.465 . S
C802 C801 1.396 . S
C802 C803 1.399 . S
C803 H789 0.929 . S
C803 C802 1.399 . S
C803 C804 1.385 . S
C804 H790 0.931 . S
C804 C803 1.385 . S
C804 C805 1.389 . S
C805 C804 1.389 . S
C805 C806 1.387 . S
C806 H791 0.930 . S
C806 C801 1.390 . S
C806 C805 1.387 . S
H807 C819 0.930 . S
H808 C821 0.930 . S
H809 C822 0.930 . S
H810 C826 0.959 . S
H811 C826 0.959 . S
H812 C826 0.961 . S
H813 C827 0.960 . S
H814 C827 0.961 . S
H815 C827 0.959 . S
H816 C830 0.929 . S
H817 C831 0.931 . S
H818 C833 0.930 . S
C819 H807 0.930 . S
C819 C820 1.399 . S
C819 C824 1.399 . S
C820 C819 1.399 . S
C820 C821 1.376 . S
C821 H808 0.930 . S
C821 C820 1.376 . S
C821 C822 1.388 . S
C822 H809 0.930 . S
C822 C821 1.388 . S
C822 C823 1.390 . S
C823 C822 1.390 . S
C823 C824 1.394 . S
C823 C829 1.465 . S
C824 C819 1.399 . S
C824 C823 1.394 . S
C824 C825 1.516 . S
C825 C824 1.516 . S
C825 C826 1.502 . S
C825 C827 1.561 . S
C825 C828 1.526 . S
C826 H810 0.959 . S
C826 H811 0.959 . S
C826 H812 0.961 . S
C826 C825 1.502 . S
C827 H813 0.960 . S
C827 H814 0.961 . S
C827 H815 0.959 . S
C827 C825 1.561 . S
C828 C825 1.526 . S
C828 C829 1.396 . S
C828 C833 1.390 1_545 S
C829 C823 1.465 . S
C829 C828 1.396 . S
C829 C830 1.399 . S
C830 H816 0.929 . S
C830 C829 1.399 . S
C830 C831 1.385 1_545 S
C831 H817 0.931 . S
C831 C830 1.385 1_565 S
C831 C832 1.389 . S
C832 C831 1.389 . S
C832 C833 1.387 . S
C833 H818 0.930 . S
C833 C828 1.390 1_565 S
C833 C832 1.387 . S
H834 C846 0.930 . S
H835 C848 0.930 . S
H836 C849 0.930 . S
H837 C853 0.959 . S
H838 C853 0.959 . S
H839 C853 0.961 . S
H840 C854 0.960 . S
H841 C854 0.961 . S
H842 C854 0.959 . S
H843 C857 0.929 . S
H844 C858 0.931 . S
H845 C860 0.930 . S
C846 H834 0.930 . S
C846 C847 1.399 . S
C846 C851 1.399 . S
C847 C846 1.399 . S
C847 C848 1.376 . S
C848 H835 0.930 . S
C848 C847 1.376 . S
C848 C849 1.388 . S
C849 H836 0.930 . S
C849 C848 1.388 . S
C849 C850 1.390 . S
C850 C849 1.390 . S
C850 C851 1.394 . S
C850 C856 1.465 . S
C851 C846 1.399 . S
C851 C850 1.394 . S
C851 C852 1.516 . S
C852 C851 1.516 . S
C852 C853 1.502 . S
C852 C854 1.561 . S
C852 C855 1.526 . S
C853 H837 0.959 . S
C853 H838 0.959 . S
C853 H839 0.961 . S
C853 C852 1.502 . S
C854 H840 0.960 . S
C854 H841 0.961 . S
C854 H842 0.959 . S
C854 C852 1.561 . S
C855 C852 1.526 . S
C855 C856 1.396 . S
C855 C860 1.390 . S
C856 C850 1.465 . S
C856 C855 1.396 . S
C856 C857 1.399 . S
C857 H843 0.929 . S
C857 C856 1.399 . S
C857 C858 1.385 . S
C858 H844 0.931 . S
C858 C857 1.385 . S
C858 C859 1.389 . S
C859 C858 1.389 . S
C859 C860 1.387 . S
C860 H845 0.930 . S
C860 C855 1.390 . S
C860 C859 1.387 . S
H861 C873 0.930 . S
H862 C875 0.930 . S
H863 C876 0.930 . S
H864 C880 0.959 . S
H865 C880 0.959 1_556 S
H866 C880 0.961 1_545 S
H867 C881 0.960 1_545 S
H868 C881 0.961 . S
H869 C881 0.959 . S
H870 C884 0.929 . S
H871 C885 0.931 . S
H872 C887 0.930 1_556 S
C873 H861 0.930 . S
C873 C874 1.399 . S
C873 C878 1.399 1_545 S
C874 C873 1.399 . S
C874 C875 1.376 . S
C875 H862 0.930 . S
C875 C874 1.376 . S
C875 C876 1.388 1_545 S
C876 H863 0.930 . S
C876 C875 1.388 1_565 S
C876 C877 1.390 . S
C877 C876 1.390 . S
C877 C878 1.394 . S
C877 C883 1.465 . S
C878 C873 1.399 1_565 S
C878 C877 1.394 . S
C878 C879 1.516 . S
C879 C878 1.516 . S
C879 C880 1.502 . S
C879 C881 1.561 1_554 S
C879 C882 1.526 . S
C880 H864 0.959 . S
C880 H865 0.959 1_554 S
C880 H866 0.961 1_565 S
C880 C879 1.502 . S
C881 H867 0.960 1_565 S
C881 H868 0.961 . S
C881 H869 0.959 . S
C881 C879 1.561 1_556 S
C882 C879 1.526 . S
C882 C883 1.396 . S
C882 C887 1.390 . S
C883 C877 1.465 . S
C883 C882 1.396 . S
C883 C884 1.399 . S
C884 H870 0.929 . S
C884 C883 1.399 . S
C884 C885 1.385 . S
C885 H871 0.931 . S
C885 C884 1.385 . S
C885 C886 1.389 . S
C886 C885 1.389 . S
C886 C887 1.387 . S
C887 H872 0.930 1_554 S
C887 C882 1.390 . S
C887 C886 1.387 . S
H888 C900 0.930 . S
H889 C902 0.930 . S
H890 C903 0.930 . S
H891 C907 0.959 . S
H892 C907 0.959 . S
H893 C907 0.961 . S
H894 C908 0.960 . S
H895 C908 0.961 . S
H896 C908 0.959 . S
H897 C911 0.929 . S
H898 C912 0.931 . S
H899 C914 0.930 . S
C900 H888 0.930 . S
C900 C901 1.399 . S
C900 C905 1.399 . S
C901 C900 1.399 . S
C901 C902 1.376 . S
C902 H889 0.930 . S
C902 C901 1.376 . S
C902 C903 1.388 . S
C903 H890 0.930 . S
C903 C902 1.388 . S
C903 C904 1.390 . S
C904 C903 1.390 . S
C904 C905 1.394 . S
C904 C910 1.465 . S
C905 C900 1.399 . S
C905 C904 1.394 . S
C905 C906 1.516 . S
C906 C905 1.516 . S
C906 C907 1.502 . S
C906 C908 1.561 . S
C906 C909 1.526 . S
C907 H891 0.959 . S
C907 H892 0.959 . S
C907 H893 0.961 . S
C907 C906 1.502 . S
C908 H894 0.960 . S
C908 H895 0.961 . S
C908 H896 0.959 . S
C908 C906 1.561 . S
C909 C906 1.526 . S
C909 C910 1.396 . S
C909 C914 1.390 . S
C910 C904 1.465 . S
C910 C909 1.396 . S
C910 C911 1.399 . S
C911 H897 0.929 . S
C911 C910 1.399 . S
C911 C912 1.385 . S
C912 H898 0.931 . S
C912 C911 1.385 . S
C912 C913 1.389 . S
C913 C912 1.389 . S
C913 C914 1.387 . S
C914 H899 0.930 . S
C914 C909 1.390 . S
C914 C913 1.387 . S
H915 C927 0.930 . S
H916 C929 0.930 . S
H917 C930 0.930 . S
H918 C934 0.959 . S
H919 C934 0.959 1_554 S
H920 C934 0.961 . S
H921 C935 0.960 . S
H922 C935 0.961 . S
H923 C935 0.959 . S
H924 C938 0.929 . S
H925 C939 0.931 . S
H926 C941 0.930 . S
C927 H915 0.930 . S
C927 C928 1.399 . S
C927 C932 1.399 . S
C928 C927 1.399 . S
C928 C929 1.376 . S
C929 H916 0.930 . S
C929 C928 1.376 . S
C929 C930 1.388 . S
C930 H917 0.930 . S
C930 C929 1.388 . S
C930 C931 1.390 . S
C931 C930 1.390 . S
C931 C932 1.394 . S
C931 C937 1.465 . S
C932 C927 1.399 . S
C932 C931 1.394 . S
C932 C933 1.516 . S
C933 C932 1.516 . S
C933 C934 1.502 . S
C933 C935 1.561 1_556 S
C933 C936 1.526 . S
C934 H918 0.959 . S
C934 H919 0.959 1_556 S
C934 H920 0.961 . S
C934 C933 1.502 . S
C935 H921 0.960 . S
C935 H922 0.961 . S
C935 H923 0.959 . S
C935 C933 1.561 1_554 S
C936 C933 1.526 . S
C936 C937 1.396 . S
C936 C941 1.390 1_556 S
C937 C931 1.465 . S
C937 C936 1.396 . S
C937 C938 1.399 . S
C938 H924 0.929 . S
C938 C937 1.399 . S
C938 C939 1.385 . S
C939 H925 0.931 . S
C939 C938 1.385 . S
C939 C940 1.389 . S
C940 C939 1.389 . S
C940 C941 1.387 1_556 S
C941 H926 0.930 . S
C941 C936 1.390 1_554 S
C941 C940 1.387 1_554 S
H942 C954 0.930 . S
H943 C956 0.930 . S
H944 C957 0.930 . S
H945 C961 0.959 . S
H946 C961 0.959 . S
H947 C961 0.961 . S
H948 C962 0.960 . S
H949 C962 0.961 . S
H950 C962 0.959 . S
H951 C965 0.929 . S
H952 C966 0.931 . S
H953 C968 0.930 . S
C954 H942 0.930 . S
C954 C955 1.399 . S
C954 C959 1.399 . S
C955 C954 1.399 . S
C955 C956 1.376 . S
C956 H943 0.930 . S
C956 C955 1.376 . S
C956 C957 1.388 . S
C957 H944 0.930 . S
C957 C956 1.388 . S
C957 C958 1.390 . S
C958 C957 1.390 . S
C958 C959 1.394 . S
C958 C964 1.465 . S
C959 C954 1.399 . S
C959 C958 1.394 . S
C959 C960 1.516 . S
C960 C959 1.516 . S
C960 C961 1.502 . S
C960 C962 1.561 . S
C960 C963 1.526 . S
C961 H945 0.959 . S
C961 H946 0.959 . S
C961 H947 0.961 . S
C961 C960 1.502 . S
C962 H948 0.960 . S
C962 H949 0.961 . S
C962 H950 0.959 . S
C962 C960 1.561 . S
C963 C960 1.526 . S
C963 C964 1.396 . S
C963 C968 1.390 . S
C964 C958 1.465 . S
C964 C963 1.396 . S
C964 C965 1.399 . S
C965 H951 0.929 . S
C965 C964 1.399 . S
C965 C966 1.385 . S
C966 H952 0.931 . S
C966 C965 1.385 . S
C966 C967 1.389 . S
C967 C966 1.389 . S
C967 C968 1.387 . S
C968 H953 0.930 . S
C968 C963 1.390 . S
C968 C967 1.387 . S
H969 C981 0.930 . S
H970 C983 0.930 . S
H971 C984 0.930 . S
H972 C988 0.959 . S
H973 C988 0.959 . S
H974 C988 0.961 . S
H975 C989 0.960 . S
H976 C989 0.961 . S
H977 C989 0.959 . S
H978 C992 0.929 . S
H979 C993 0.931 . S
H980 C995 0.930 . S
C981 H969 0.930 . S
C981 C982 1.399 . S
C981 C986 1.399 . S
C982 C981 1.399 . S
C982 C983 1.376 . S
C983 H970 0.930 . S
C983 C982 1.376 . S
C983 C984 1.388 . S
C984 H971 0.930 . S
C984 C983 1.388 . S
C984 C985 1.390 . S
C985 C984 1.390 . S
C985 C986 1.394 . S
C985 C991 1.465 . S
C986 C981 1.399 . S
C986 C985 1.394 . S
C986 C987 1.516 . S
C987 C986 1.516 . S
C987 C988 1.502 . S
C987 C989 1.561 . S
C987 C990 1.526 . S
C988 H972 0.959 . S
C988 H973 0.959 . S
C988 H974 0.961 . S
C988 C987 1.502 . S
C989 H975 0.960 . S
C989 H976 0.961 . S
C989 H977 0.959 . S
C989 C987 1.561 . S
C990 C987 1.526 . S
C990 C991 1.396 . S
C990 C995 1.390 . S
C991 C985 1.465 . S
C991 C990 1.396 . S
C991 C992 1.399 . S
C992 H978 0.929 . S
C992 C991 1.399 . S
C992 C993 1.385 . S
C993 H979 0.931 . S
C993 C992 1.385 . S
C993 C994 1.389 . S
C994 C993 1.389 . S
C994 C995 1.387 . S
C995 H980 0.930 . S
C995 C990 1.390 . S
C995 C994 1.387 . S
H996 C1008 0.930 . S
H997 C1010 0.930 . S
H998 C1011 0.930 . S
H999 C1015 0.959 . S
H1000 C1015 0.959 . S
H1001 C1015 0.961 . S
H1002 C1016 0.960 . S
H1003 C1016 0.961 . S
H1004 C1016 0.959 . S
H1005 C1019 0.929 . S
H1006 C1020 0.931 . S
H1007 C1022 0.930 . S
C1008 H996 0.930 . S
C1008 C1009 1.399 . S
C1008 C1013 1.399 . S
C1009 C1008 1.399 . S
C1009 C1010 1.376 . S
C1010 H997 0.930 . S
C1010 C1009 1.376 . S
C1010 C1011 1.388 . S
C1011 H998 0.930 . S
C1011 C1010 1.388 . S
C1011 C1012 1.390 . S
C1012 C1011 1.390 . S
C1012 C1013 1.394 . S
C1012 C1018 1.465 . S
C1013 C1008 1.399 . S
C1013 C1012 1.394 . S
C1013 C1014 1.516 . S
C1014 C1013 1.516 . S
C1014 C1015 1.502 . S
C1014 C1016 1.561 . S
C1014 C1017 1.526 . S
C1015 H999 0.959 . S
C1015 H1000 0.959 . S
C1015 H1001 0.961 . S
C1015 C1014 1.502 . S
C1016 H1002 0.960 . S
C1016 H1003 0.961 . S
C1016 H1004 0.959 . S
C1016 C1014 1.561 . S
C1017 C1014 1.526 . S
C1017 C1018 1.396 . S
C1017 C1022 1.390 . S
C1018 C1012 1.465 . S
C1018 C1017 1.396 . S
C1018 C1019 1.399 . S
C1019 H1005 0.929 . S
C1019 C1018 1.399 . S
C1019 C1020 1.385 . S
C1020 H1006 0.931 . S
C1020 C1019 1.385 . S
C1020 C1021 1.389 . S
C1021 C1020 1.389 . S
C1021 C1022 1.387 . S
C1022 H1007 0.930 . S
C1022 C1017 1.390 . S
C1022 C1021 1.387 . S
H1023 C1035 0.930 . S
H1024 C1037 0.930 . S
H1025 C1038 0.930 . S
H1026 C1042 0.959 . S
H1027 C1042 0.959 . S
H1028 C1042 0.961 . S
H1029 C1043 0.960 . S
H1030 C1043 0.961 . S
H1031 C1043 0.959 . S
H1032 C1046 0.929 . S
H1033 C1047 0.931 . S
H1034 C1049 0.930 . S
C1035 H1023 0.930 . S
C1035 C1036 1.399 . S
C1035 C1040 1.399 . S
C1036 C1035 1.399 . S
C1036 C1037 1.376 . S
C1037 H1024 0.930 . S
C1037 C1036 1.376 . S
C1037 C1038 1.388 . S
C1038 H1025 0.930 . S
C1038 C1037 1.388 . S
C1038 C1039 1.390 . S
C1039 C1038 1.390 . S
C1039 C1040 1.394 . S
C1039 C1045 1.465 . S
C1040 C1035 1.399 . S
C1040 C1039 1.394 . S
C1040 C1041 1.516 . S
C1041 C1040 1.516 . S
C1041 C1042 1.502 . S
C1041 C1043 1.561 . S
C1041 C1044 1.526 . S
C1042 H1026 0.959 . S
C1042 H1027 0.959 . S
C1042 H1028 0.961 . S
C1042 C1041 1.502 . S
C1043 H1029 0.960 . S
C1043 H1030 0.961 . S
C1043 H1031 0.959 . S
C1043 C1041 1.561 . S
C1044 C1041 1.526 . S
C1044 C1045 1.396 . S
C1044 C1049 1.390 . S
C1045 C1039 1.465 . S
C1045 C1044 1.396 . S
C1045 C1046 1.399 . S
C1046 H1032 0.929 . S
C1046 C1045 1.399 . S
C1046 C1047 1.385 . S
C1047 H1033 0.931 . S
C1047 C1046 1.385 . S
C1047 C1048 1.389 . S
C1048 C1047 1.389 . S
C1048 C1049 1.387 . S
C1049 H1034 0.930 . S
C1049 C1044 1.390 . S
C1049 C1048 1.387 . S
H1050 C1062 0.930 . S
H1051 C1064 0.930 . S
H1052 C1065 0.930 . S
H1053 C1069 0.959 1_655 S
H1054 C1069 0.959 1_655 S
H1055 C1069 0.961 . S
H1056 C1070 0.960 . S
H1057 C1070 0.961 . S
H1058 C1070 0.959 . S
H1059 C1073 0.929 . S
H1060 C1074 0.931 . S
H1061 C1076 0.930 . S
C1062 H1050 0.930 . S
C1062 C1063 1.399 . S
C1062 C1067 1.399 . S
C1063 C1062 1.399 . S
C1063 C1064 1.376 . S
C1064 H1051 0.930 . S
C1064 C1063 1.376 . S
C1064 C1065 1.388 . S
C1065 H1052 0.930 . S
C1065 C1064 1.388 . S
C1065 C1066 1.390 . S
C1066 C1065 1.390 . S
C1066 C1067 1.394 . S
C1066 C1072 1.465 . S
C1067 C1062 1.399 . S
C1067 C1066 1.394 . S
C1067 C1068 1.516 . S
C1068 C1067 1.516 . S
C1068 C1069 1.502 . S
C1068 C1070 1.561 . S
C1068 C1071 1.526 . S
C1069 H1053 0.959 1_455 S
C1069 H1054 0.959 1_455 S
C1069 H1055 0.961 . S
C1069 C1068 1.502 . S
C1070 H1056 0.960 . S
C1070 H1057 0.961 . S
C1070 H1058 0.959 . S
C1070 C1068 1.561 . S
C1071 C1068 1.526 . S
C1071 C1072 1.396 . S
C1071 C1076 1.390 1_455 S
C1072 C1066 1.465 . S
C1072 C1071 1.396 . S
C1072 C1073 1.399 . S
C1073 H1059 0.929 . S
C1073 C1072 1.399 . S
C1073 C1074 1.385 1_455 S
C1074 H1060 0.931 . S
C1074 C1073 1.385 1_655 S
C1074 C1075 1.389 . S
C1075 C1074 1.389 . S
C1075 C1076 1.387 . S
C1076 H1061 0.930 . S
C1076 C1071 1.390 1_655 S
C1076 C1075 1.387 . S
H1077 C1089 0.930 . S
H1078 C1091 0.930 . S
H1079 C1092 0.930 . S
H1080 C1096 0.959 . S
H1081 C1096 0.959 . S
H1082 C1096 0.961 . S
H1083 C1097 0.960 . S
H1084 C1097 0.961 . S
H1085 C1097 0.959 . S
H1086 C1100 0.929 . S
H1087 C1101 0.931 . S
H1088 C1103 0.930 . S
C1089 H1077 0.930 . S
C1089 C1090 1.399 . S
C1089 C1094 1.399 . S
C1090 C1089 1.399 . S
C1090 C1091 1.376 . S
C1091 H1078 0.930 . S
C1091 C1090 1.376 . S
C1091 C1092 1.388 . S
C1092 H1079 0.930 . S
C1092 C1091 1.388 . S
C1092 C1093 1.390 . S
C1093 C1092 1.390 . S
C1093 C1094 1.394 . S
C1093 C1099 1.465 . S
C1094 C1089 1.399 . S
C1094 C1093 1.394 . S
C1094 C1095 1.516 . S
C1095 C1094 1.516 . S
C1095 C1096 1.502 . S
C1095 C1097 1.561 . S
C1095 C1098 1.526 . S
C1096 H1080 0.959 . S
C1096 H1081 0.959 . S
C1096 H1082 0.961 . S
C1096 C1095 1.502 . S
C1097 H1083 0.960 . S
C1097 H1084 0.961 . S
C1097 H1085 0.959 . S
C1097 C1095 1.561 . S
C1098 C1095 1.526 . S
C1098 C1099 1.396 . S
C1098 C1103 1.390 . S
C1099 C1093 1.465 . S
C1099 C1098 1.396 . S
C1099 C1100 1.399 . S
C1100 H1086 0.929 . S
C1100 C1099 1.399 . S
C1100 C1101 1.385 . S
C1101 H1087 0.931 . S
C1101 C1100 1.385 . S
C1101 C1102 1.389 . S
C1102 C1101 1.389 . S
C1102 C1103 1.387 . S
C1103 H1088 0.930 . S
C1103 C1098 1.390 . S
C1103 C1102 1.387 . S
H1104 C1116 0.930 . S
H1105 C1118 0.930 . S
H1106 C1119 0.930 . S
H1107 C1123 0.959 . S
H1108 C1123 0.959 . S
H1109 C1123 0.961 . S
H1110 C1124 0.960 . S
H1111 C1124 0.961 . S
H1112 C1124 0.959 . S
H1113 C1127 0.929 . S
H1114 C1128 0.931 . S
H1115 C1130 0.930 . S
C1116 H1104 0.930 . S
C1116 C1117 1.399 . S
C1116 C1121 1.399 . S
C1117 C1116 1.399 . S
C1117 C1118 1.376 . S
C1118 H1105 0.930 . S
C1118 C1117 1.376 . S
C1118 C1119 1.388 . S
C1119 H1106 0.930 . S
C1119 C1118 1.388 . S
C1119 C1120 1.390 . S
C1120 C1119 1.390 . S
C1120 C1121 1.394 . S
C1120 C1126 1.465 . S
C1121 C1116 1.399 . S
C1121 C1120 1.394 . S
C1121 C1122 1.516 . S
C1122 C1121 1.516 . S
C1122 C1123 1.502 . S
C1122 C1124 1.561 . S
C1122 C1125 1.526 . S
C1123 H1107 0.959 . S
C1123 H1108 0.959 . S
C1123 H1109 0.961 . S
C1123 C1122 1.502 . S
C1124 H1110 0.960 . S
C1124 H1111 0.961 . S
C1124 H1112 0.959 . S
C1124 C1122 1.561 . S
C1125 C1122 1.526 . S
C1125 C1126 1.396 . S
C1125 C1130 1.390 . S
C1126 C1120 1.465 . S
C1126 C1125 1.396 . S
C1126 C1127 1.399 . S
C1127 H1113 0.929 . S
C1127 C1126 1.399 . S
C1127 C1128 1.385 . S
C1128 H1114 0.931 . S
C1128 C1127 1.385 . S
C1128 C1129 1.389 . S
C1129 C1128 1.389 . S
C1129 C1130 1.387 . S
C1130 H1115 0.930 . S
C1130 C1125 1.390 . S
C1130 C1129 1.387 . S
H1131 C1143 0.930 . S
H1132 C1145 0.930 . S
H1133 C1146 0.930 . S
H1134 C1150 0.959 . S
H1135 C1150 0.959 . S
H1136 C1150 0.961 . S
H1137 C1151 0.960 . S
H1138 C1151 0.961 . S
H1139 C1151 0.959 . S
H1140 C1154 0.929 . S
H1141 C1155 0.931 . S
H1142 C1157 0.930 . S
C1143 H1131 0.930 . S
C1143 C1144 1.399 . S
C1143 C1148 1.399 . S
C1144 C1143 1.399 . S
C1144 C1145 1.376 . S
C1145 H1132 0.930 . S
C1145 C1144 1.376 . S
C1145 C1146 1.388 . S
C1146 H1133 0.930 . S
C1146 C1145 1.388 . S
C1146 C1147 1.390 . S
C1147 C1146 1.390 . S
C1147 C1148 1.394 . S
C1147 C1153 1.465 . S
C1148 C1143 1.399 . S
C1148 C1147 1.394 . S
C1148 C1149 1.516 . S
C1149 C1148 1.516 . S
C1149 C1150 1.502 . S
C1149 C1151 1.561 . S
C1149 C1152 1.526 . S
C1150 H1134 0.959 . S
C1150 H1135 0.959 . S
C1150 H1136 0.961 . S
C1150 C1149 1.502 . S
C1151 H1137 0.960 . S
C1151 H1138 0.961 . S
C1151 H1139 0.959 . S
C1151 C1149 1.561 . S
C1152 C1149 1.526 . S
C1152 C1153 1.396 . S
C1152 C1157 1.390 . S
C1153 C1147 1.465 . S
C1153 C1152 1.396 . S
C1153 C1154 1.399 . S
C1154 H1140 0.929 . S
C1154 C1153 1.399 . S
C1154 C1155 1.385 . S
C1155 H1141 0.931 . S
C1155 C1154 1.385 . S
C1155 C1156 1.389 . S
C1156 C1155 1.389 . S
C1156 C1157 1.387 . S
C1157 H1142 0.930 . S
C1157 C1152 1.390 . S
C1157 C1156 1.387 . S
H1158 C1170 0.930 . S
H1159 C1172 0.930 . S
H1160 C1173 0.930 . S
H1161 C1177 0.959 . S
H1162 C1177 0.959 1_545 S
H1163 C1177 0.961 . S
H1164 C1178 0.960 . S
H1165 C1178 0.961 1_545 S
H1166 C1178 0.959 . S
H1167 C1181 0.929 . S
H1168 C1182 0.931 . S
H1169 C1184 0.930 1_545 S
C1170 H1158 0.930 . S
C1170 C1171 1.399 . S
C1170 C1175 1.399 . S
C1171 C1170 1.399 . S
C1171 C1172 1.376 . S
C1172 H1159 0.930 . S
C1172 C1171 1.376 . S
C1172 C1173 1.388 . S
C1173 H1160 0.930 . S
C1173 C1172 1.388 . S
C1173 C1174 1.390 . S
C1174 C1173 1.390 . S
C1174 C1175 1.394 . S
C1174 C1180 1.465 . S
C1175 C1170 1.399 . S
C1175 C1174 1.394 . S
C1175 C1176 1.516 . S
C1176 C1175 1.516 . S
C1176 C1177 1.502 . S
C1176 C1178 1.561 . S
C1176 C1179 1.526 . S
C1177 H1161 0.959 . S
C1177 H1162 0.959 1_565 S
C1177 H1163 0.961 . S
C1177 C1176 1.502 . S
C1178 H1164 0.960 . S
C1178 H1165 0.961 1_565 S
C1178 H1166 0.959 . S
C1178 C1176 1.561 . S
C1179 C1176 1.526 . S
C1179 C1180 1.396 . S
C1179 C1184 1.390 . S
C1180 C1174 1.465 . S
C1180 C1179 1.396 . S
C1180 C1181 1.399 . S
C1181 H1167 0.929 . S
C1181 C1180 1.399 . S
C1181 C1182 1.385 . S
C1182 H1168 0.931 . S
C1182 C1181 1.385 . S
C1182 C1183 1.389 . S
C1183 C1182 1.389 . S
C1183 C1184 1.387 . S
C1184 H1169 0.930 1_565 S
C1184 C1179 1.390 . S
C1184 C1183 1.387 . S
H1185 C1197 0.930 . S
H1186 C1199 0.930 . S
H1187 C1200 0.930 . S
H1188 C1204 0.959 . S
H1189 C1204 0.959 . S
H1190 C1204 0.961 . S
H1191 C1205 0.960 1_665 S
H1192 C1205 0.961 . S
H1193 C1205 0.959 . S
H1194 C1208 0.929 . S
H1195 C1209 0.931 . S
H1196 C1211 0.930 . S
C1197 H1185 0.930 . S
C1197 C1198 1.399 . S
C1197 C1202 1.399 . S
C1198 C1197 1.399 . S
C1198 C1199 1.376 . S
C1199 H1186 0.930 . S
C1199 C1198 1.376 . S
C1199 C1200 1.388 . S
C1200 H1187 0.930 . S
C1200 C1199 1.388 . S
C1200 C1201 1.390 . S
C1201 C1200 1.390 . S
C1201 C1202 1.394 . S
C1201 C1207 1.456 1_655 S
C1202 C1197 1.399 . S
C1202 C1201 1.394 . S
C1202 C1203 1.516 . S
C1203 C1202 1.516 . S
C1203 C1204 1.502 . S
C1203 C1205 1.561 1_655 S
C1203 C1206 1.526 1_655 S
C1204 H1188 0.959 . S
C1204 H1189 0.959 . S
C1204 H1190 0.961 . S
C1204 C1203 1.502 . S
C1205 H1191 0.960 1_445 S
C1205 H1192 0.961 . S
C1205 H1193 0.959 . S
C1205 C1203 1.561 1_455 S
C1206 C1203 1.526 1_455 S
C1206 C1207 1.399 . S
C1206 C1211 1.390 . S
C1207 C1201 1.456 1_455 S
C1207 C1206 1.399 . S
C1207 C1208 1.405 . S
C1208 H1194 0.929 . S
C1208 C1207 1.405 . S
C1208 C1209 1.385 . S
C1209 H1195 0.931 . S
C1209 C1208 1.385 . S
C1209 C1210 1.389 . S
C1210 C1209 1.389 . S
C1210 C1211 1.387 . S
C1211 H1196 0.930 . S
C1211 C1206 1.390 . S
C1211 C1210 1.387 . S
C253 C9 1.532 . S
C265 C226 1.554 . S
C280 C189 1.670 . S
C292 C29 1.655 1_655 S
C307 C46 1.165 . S
C319 C166 1.188 . S
C334 C69 1.462 . S
C346 C206 1.435 . S
C361 C86 1.505 . S
C373 C209 1.560 1_545 S
C388 C109 1.603 1_455 S
C400 C229 1.629 . S
C415 C186 1.561 . S
C427 C129 1.586 . S
C442 C146 1.355 . S
C454 C169 1.417 . S
C469 C66 1.509 . S
C481 C89 1.544 . S
C496 C6 1.265 . S
C508 C106 1.283 . S
C523 C26 1.264 . S
C535 C126 1.212 1_556 S
C550 C149 1.942 . S
C562 C49 1.907 . S
C577 C8 1.362 . S
C589 C176 1.366 . S
C604 C28 1.354 . S
C616 C216 1.369 . S
C631 C236 1.810 . S
C643 C59 1.731 . S
C658 C68 1.684 . S
C670 C181 1.721 . S
C685 C99 1.685 . S
C697 C196 1.730 . S
C712 C161 1.593 . S
C724 C108 1.500 1_455 S
C739 C201 1.542 . S
C751 C128 1.490 . S
C766 C221 1.810 . S
C778 C159 1.701 . S
C793 C16 1.269 . S
C805 C79 1.213 . S
C820 C19 1.382 . S
C832 C36 1.382 . S
C847 C39 1.121 . S
C859 C41 1.231 . S
C874 C76 1.340 . S
C886 C48 1.416 1_554 S
C901 C119 1.567 . S
C913 C81 1.699 . S
C928 C116 1.825 . S
C940 C139 1.784 1_556 S
C955 C136 1.673 . S
C967 C148 1.686 . S
C982 C88 2.015 . S
C994 C141 2.038 . S
C1009 C168 1.521 . S
C1021 C61 1.615 . S
C1036 C101 1.770 . S
C1048 C188 1.739 . S
C1063 C179 1.342 . S
C1075 C121 1.370 . S
C1090 C219 1.496 . S
C1102 C156 1.518 . S
C1117 C96 1.503 . S
C1129 C239 1.414 . S
C1144 C228 1.612 . S
C1156 C21 1.634 . S
C1171 C56 1.550 . S
C1183 C199 1.588 . S
C1198 C208 1.396 1_545 S
C1210 C1 1.474 . S
