# Generated by pormake.
# Topology gsi, (4)-cn, num edge types: 1
# Building blocks:
#     Node 0, Type 0, BuildingBlock: CEKHIL_clean_sbu_0, # of connection points: 4
#     Node 1, Type 0, BuildingBlock: CEKHIL_clean_sbu_0, # of connection points: 4
#     Node 2, Type 0, BuildingBlock: CEKHIL_clean_sbu_0, # of connection points: 4
#     Node 3, Type 0, BuildingBlock: CEKHIL_clean_sbu_0, # of connection points: 4
#     Node 4, Type 0, BuildingBlock: CEKHIL_clean_sbu_0, # of connection points: 4
#     Node 5, Type 0, BuildingBlock: CEKHIL_clean_sbu_0, # of connection points: 4
#     Node 6, Type 0, BuildingBlock: CEKHIL_clean_sbu_0, # of connection points: 4
#     Node 7, Type 0, BuildingBlock: CEKHIL_clean_sbu_0, # of connection points: 4
#     Node 8, Type 0, BuildingBlock: CEKHIL_clean_sbu_0, # of connection points: 4
#     Node 9, Type 0, BuildingBlock: CEKHIL_clean_sbu_0, # of connection points: 4
#     Node 10, Type 0, BuildingBlock: CEKHIL_clean_sbu_0, # of connection points: 4
#     Node 11, Type 0, BuildingBlock: CEKHIL_clean_sbu_0, # of connection points: 4
#     Node 12, Type 0, BuildingBlock: CEKHIL_clean_sbu_0, # of connection points: 4
#     Node 13, Type 0, BuildingBlock: CEKHIL_clean_sbu_0, # of connection points: 4
#     Node 14, Type 0, BuildingBlock: CEKHIL_clean_sbu_0, # of connection points: 4
#     Node 15, Type 0, BuildingBlock: CEKHIL_clean_sbu_0, # of connection points: 4
#     Edge 16, Type (0, 0), BuildingBlock: EZIPEK_clean_linker_0, # of connection points: 2
#     Edge 17, Type (0, 0), BuildingBlock: EZIPEK_clean_linker_0, # of connection points: 2
#     Edge 18, Type (0, 0), BuildingBlock: EZIPEK_clean_linker_0, # of connection points: 2
#     Edge 19, Type (0, 0), BuildingBlock: EZIPEK_clean_linker_0, # of connection points: 2
#     Edge 20, Type (0, 0), BuildingBlock: EZIPEK_clean_linker_0, # of connection points: 2
#     Edge 21, Type (0, 0), BuildingBlock: EZIPEK_clean_linker_0, # of connection points: 2
#     Edge 22, Type (0, 0), BuildingBlock: EZIPEK_clean_linker_0, # of connection points: 2
#     Edge 23, Type (0, 0), BuildingBlock: EZIPEK_clean_linker_0, # of connection points: 2
#     Edge 24, Type (0, 0), BuildingBlock: EZIPEK_clean_linker_0, # of connection points: 2
#     Edge 25, Type (0, 0), BuildingBlock: EZIPEK_clean_linker_0, # of connection points: 2
#     Edge 26, Type (0, 0), BuildingBlock: EZIPEK_clean_linker_0, # of connection points: 2
#     Edge 27, Type (0, 0), BuildingBlock: EZIPEK_clean_linker_0, # of connection points: 2
#     Edge 28, Type (0, 0), BuildingBlock: EZIPEK_clean_linker_0, # of connection points: 2
#     Edge 29, Type (0, 0), BuildingBlock: EZIPEK_clean_linker_0, # of connection points: 2
#     Edge 30, Type (0, 0), BuildingBlock: EZIPEK_clean_linker_0, # of connection points: 2
#     Edge 31, Type (0, 0), BuildingBlock: EZIPEK_clean_linker_0, # of connection points: 2
#     Edge 32, Type (0, 0), BuildingBlock: EZIPEK_clean_linker_0, # of connection points: 2
#     Edge 33, Type (0, 0), BuildingBlock: EZIPEK_clean_linker_0, # of connection points: 2
#     Edge 34, Type (0, 0), BuildingBlock: EZIPEK_clean_linker_0, # of connection points: 2
#     Edge 35, Type (0, 0), BuildingBlock: EZIPEK_clean_linker_0, # of connection points: 2
#     Edge 36, Type (0, 0), BuildingBlock: EZIPEK_clean_linker_0, # of connection points: 2
#     Edge 37, Type (0, 0), BuildingBlock: EZIPEK_clean_linker_0, # of connection points: 2
#     Edge 38, Type (0, 0), BuildingBlock: EZIPEK_clean_linker_0, # of connection points: 2
#     Edge 39, Type (0, 0), BuildingBlock: EZIPEK_clean_linker_0, # of connection points: 2
#     Edge 40, Type (0, 0), BuildingBlock: EZIPEK_clean_linker_0, # of connection points: 2
#     Edge 41, Type (0, 0), BuildingBlock: EZIPEK_clean_linker_0, # of connection points: 2
#     Edge 42, Type (0, 0), BuildingBlock: EZIPEK_clean_linker_0, # of connection points: 2
#     Edge 43, Type (0, 0), BuildingBlock: EZIPEK_clean_linker_0, # of connection points: 2
#     Edge 44, Type (0, 0), BuildingBlock: EZIPEK_clean_linker_0, # of connection points: 2
#     Edge 45, Type (0, 0), BuildingBlock: EZIPEK_clean_linker_0, # of connection points: 2
#     Edge 46, Type (0, 0), BuildingBlock: EZIPEK_clean_linker_0, # of connection points: 2
#     Edge 47, Type (0, 0), BuildingBlock: EZIPEK_clean_linker_0, # of connection points: 2
# Relax obj value: 0.144
# Max RMSD: 0.208
# Mean RMSD: 0.126
data_MOF--net-gsi--node1-CEKHIL_clean_sbu_0--edge1-EZIPEK_clean_linker_0
_symmetry_space_group_name_H-M    P1
_symmetry_Int_Tables_number       1
_symmetry_cell_setting            triclinic
loop_
_symmetry_equiv_pos_as_xyz
'x, y, z'
_cell_length_a     28.427208
_cell_length_b     31.910988
_cell_length_c     29.872165
_cell_angle_alpha  91.392567
_cell_angle_beta   93.288119
_cell_angle_gamma 97.625818
loop_
_atom_site_label
_atom_site_type_symbol
_atom_site_fract_x
_atom_site_fract_y
_atom_site_fract_z
_atom_type_partial_charge
Co0 Co 0.15554 0.14391 0.1258 0.0
O1 O 0.19364 0.10191 0.14972 0.0
O2 O 0.1237 0.11009 0.17197 0.0
C3 C 0.17266 0.13006 0.05269 0.0
O4 O 0.10234 0.18143 0.10995 0.0
Co5 Co 0.19384 0.22065 0.07249 0.0
O6 O 0.12904 0.23787 0.07058 0.0
C7 C 0.22004 0.21769 0.1688 0.0
C8 C 0.16009 0.08942 0.17594 0.0
C9 C 0.09594 0.21637 0.09046 0.0
O10 O 0.1854 0.1878 0.17276 0.0
O11 O 0.23396 0.22947 0.13052 0.0
O12 O 0.13859 0.10669 0.07145 0.0
O13 O 0.19471 0.16038 0.07812 0.0
Co14 Co 0.86319 0.36652 0.13848 0.0
O15 O 0.82938 0.40953 0.16521 0.0
O16 O 0.90451 0.40317 0.18186 0.0
C17 C 0.83162 0.37527 0.0674 0.0
O18 O 0.91388 0.32812 0.11998 0.0
Co19 Co 0.81898 0.28566 0.08679 0.0
O20 O 0.88321 0.27122 0.07725 0.0
C21 C 0.8063 0.29656 0.18395 0.0
C22 C 0.8684 0.42284 0.18903 0.0
C23 C 0.91867 0.29367 0.09754 0.0
O24 O 0.84023 0.32766 0.1867 0.0
O25 O 0.79127 0.27725 0.14676 0.0
O26 O 0.86946 0.39973 0.08373 0.0
O27 O 0.81522 0.34601 0.09352 0.0
Co28 Co 0.17604 0.88738 0.34096 0.0
O29 O 0.21027 0.94013 0.32075 0.0
O30 O 0.13432 0.91968 0.30552 0.0
C31 C 0.21293 0.89359 0.41196 0.0
O32 O 0.12574 0.8365 0.35439 0.0
Co33 Co 0.22272 0.81118 0.37899 0.0
O34 O 0.15763 0.78331 0.38741 0.0
C35 C 0.22127 0.83018 0.28174 0.0
C36 C 0.17096 0.94766 0.29998 0.0
C37 C 0.12184 0.79918 0.37114 0.0
O38 O 0.1912 0.85667 0.28512 0.0
O39 O 0.24046 0.81303 0.3152 0.0
O40 O 0.1763 0.91323 0.40247 0.0
O41 O 0.22538 0.8718 0.37926 0.0
Co42 Co 0.87452 0.6353 0.34412 0.0
O43 O 0.93184 0.65887 0.31566 0.0
O44 O 0.91831 0.67117 0.38622 0.0
C45 C 0.8724 0.56837 0.31262 0.0
O46 O 0.82084 0.61979 0.38772 0.0
Co47 Co 0.78066 0.59562 0.29383 0.0
O48 O 0.75296 0.58768 0.35303 0.0
C49 C 0.81194 0.68774 0.29313 0.0
C50 C 0.94604 0.67884 0.35346 0.0
C51 C 0.77656 0.60367 0.38827 0.0
O52 O 0.84377 0.68525 0.32484 0.0
O53 O 0.78653 0.65563 0.27363 0.0
O54 O 0.89863 0.57989 0.34923 0.0
O55 O 0.84911 0.59704 0.29652 0.0
Co56 Co 0.36497 0.86319 0.6434 0.0
O57 O 0.33117 0.9057 0.67107 0.0
O58 O 0.40633 0.89929 0.68732 0.0
C59 C 0.33308 0.87351 0.57275 0.0
O60 O 0.41559 0.82509 0.62381 0.0
Co61 Co 0.32056 0.78344 0.5898 0.0
O62 O 0.3847 0.76897 0.57998 0.0
C63 C 0.30855 0.79199 0.6874 0.0
C64 C 0.37022 0.91886 0.69486 0.0
C65 C 0.42024 0.79097 0.60065 0.0
O66 O 0.34227 0.82328 0.69088 0.0
O67 O 0.29327 0.77368 0.64975 0.0
O68 O 0.37105 0.89754 0.58944 0.0
O69 O 0.31683 0.84361 0.59819 0.0
Co70 Co 0.87657 0.86657 0.89327 0.0
O71 O 0.89664 0.81498 0.91836 0.0
O72 O 0.93955 0.85766 0.87527 0.0
C73 C 0.84707 0.88953 0.95874 0.0
O74 O 0.87268 0.92255 0.85944 0.0
Co75 Co 0.7753 0.89047 0.88658 0.0
O76 O 0.80019 0.94314 0.85737 0.0
C77 C 0.80082 0.82308 0.82607 0.0
C78 C 0.93564 0.82312 0.89758 0.0
C79 C 0.84337 0.94859 0.84735 0.0
O80 O 0.84505 0.83184 0.83951 0.0
O81 O 0.76791 0.84114 0.84278 0.0
O82 O 0.89231 0.89704 0.95208 0.0
O83 O 0.82162 0.86837 0.9267 0.0
Co84 Co 0.1409 0.66518 0.88905 0.0
O85 O 0.12264 0.71596 0.918 0.0
O86 O 0.07827 0.67668 0.86611 0.0
C87 C 0.16927 0.63822 0.95414 0.0
O88 O 0.14383 0.61082 0.85014 0.0
Co89 Co 0.24233 0.63854 0.89257 0.0
O90 O 0.21512 0.58755 0.85649 0.0
C91 C 0.21798 0.70678 0.83269 0.0
C92 C 0.08308 0.70962 0.89322 0.0
C93 C 0.17251 0.58419 0.84003 0.0
O94 O 0.1739 0.70103 0.84219 0.0
O95 O 0.24971 0.68669 0.85102 0.0
O96 O 0.12389 0.6323 0.94267 0.0
O97 O 0.19515 0.66036 0.92723 0.0
Co98 Co 0.85185 0.14121 0.67491 0.0
O99 O 0.78978 0.11465 0.64987 0.0
O100 O 0.84566 0.14753 0.61026 0.0
C101 C 0.86606 0.08697 0.72182 0.0
O102 O 0.91938 0.17435 0.68604 0.0
Co103 Co 0.87015 0.16655 0.77495 0.0
O104 O 0.93058 0.19876 0.75761 0.0
C105 C 0.81031 0.21357 0.71736 0.0
C106 C 0.80213 0.12912 0.61134 0.0
C107 C 0.94346 0.19796 0.71752 0.0
O108 O 0.82413 0.19523 0.68294 0.0
O109 O 0.82109 0.20407 0.75764 0.0
O110 O 0.87575 0.08588 0.6797 0.0
O111 O 0.84648 0.11944 0.73364 0.0
Co112 Co 0.18753 0.38873 0.67482 0.0
O113 O 0.24395 0.41977 0.65034 0.0
O114 O 0.19307 0.37222 0.61209 0.0
C115 C 0.16413 0.4463 0.71117 0.0
O116 O 0.12627 0.34829 0.68652 0.0
Co117 Co 0.17281 0.38297 0.77717 0.0
O118 O 0.11149 0.3475 0.75967 0.0
C119 C 0.23706 0.33053 0.73379 0.0
C120 C 0.23244 0.39817 0.61298 0.0
C121 C 0.10137 0.33407 0.7193 0.0
O122 O 0.22549 0.34308 0.69464 0.0
O123 O 0.22307 0.34505 0.77032 0.0
O124 O 0.15295 0.43862 0.66857 0.0
O125 O 0.19007 0.42062 0.72949 0.0
Co126 Co 0.64395 0.17141 0.39058 0.0
O127 O 0.62396 0.22204 0.418 0.0
O128 O 0.58014 0.18012 0.36787 0.0
C129 C 0.67477 0.14673 0.45609 0.0
O130 O 0.64923 0.1159 0.35422 0.0
Co131 Co 0.74898 0.15302 0.39452 0.0
O132 O 0.72524 0.10367 0.35472 0.0
C133 C 0.71829 0.21654 0.33276 0.0
C134 C 0.58424 0.21395 0.39371 0.0
C135 C 0.6817 0.09412 0.34137 0.0
O136 O 0.67435 0.20709 0.34189 0.0
O137 O 0.75238 0.20041 0.3525 0.0
O138 O 0.62928 0.13929 0.44543 0.0
O139 O 0.69889 0.16994 0.42877 0.0
Co140 Co 0.65976 0.64193 0.62573 0.0
O141 O 0.69793 0.59956 0.64898 0.0
O142 O 0.62558 0.6056 0.66836 0.0
C143 C 0.67878 0.63155 0.55256 0.0
O144 O 0.60602 0.67972 0.61124 0.0
Co145 Co 0.69543 0.7214 0.57688 0.0
O146 O 0.63008 0.73645 0.57155 0.0
C147 C 0.71697 0.71786 0.67484 0.0
C148 C 0.66264 0.58595 0.67287 0.0
C149 C 0.59787 0.71422 0.59166 0.0
O150 O 0.68929 0.68252 0.6757 0.0
O151 O 0.72566 0.73699 0.63844 0.0
O152 O 0.64418 0.60742 0.56966 0.0
O153 O 0.7004 0.66115 0.57938 0.0
Co154 Co 0.67202 0.38451 0.83582 0.0
O155 O 0.70844 0.43515 0.81315 0.0
O156 O 0.63111 0.41808 0.80123 0.0
C157 C 0.71065 0.39136 0.906 0.0
O158 O 0.61993 0.33568 0.85129 0.0
Co159 Co 0.71542 0.30721 0.87506 0.0
O160 O 0.64986 0.28209 0.88547 0.0
C161 C 0.71223 0.3237 0.77704 0.0
C162 C 0.66891 0.44409 0.79403 0.0
C163 C 0.61474 0.29877 0.86901 0.0
O164 O 0.68402 0.35178 0.78029 0.0
O165 O 0.73097 0.30635 0.81062 0.0
O166 O 0.67496 0.41214 0.89658 0.0
O167 O 0.7213 0.36798 0.87368 0.0
Co168 Co 0.36889 0.13252 0.84556 0.0
O169 O 0.42452 0.15781 0.81571 0.0
O170 O 0.41127 0.17149 0.88603 0.0
C171 C 0.37074 0.06511 0.81645 0.0
O172 O 0.31699 0.11537 0.89026 0.0
Co173 Co 0.27678 0.08772 0.79648 0.0
O174 O 0.24794 0.08556 0.85557 0.0
C175 C 0.30645 0.17867 0.78841 0.0
C176 C 0.43844 0.17904 0.85284 0.0
C177 C 0.27246 0.1002 0.89085 0.0
O178 O 0.33345 0.17944 0.82453 0.0
O179 O 0.28848 0.14417 0.76765 0.0
O180 O 0.39712 0.07902 0.85228 0.0
O181 O 0.34541 0.09195 0.79961 0.0
Co182 Co 0.37489 0.36801 0.38964 0.0
O183 O 0.3964 0.31738 0.41547 0.0
O184 O 0.43891 0.36097 0.37288 0.0
C185 C 0.34319 0.39024 0.45438 0.0
O186 O 0.36829 0.42332 0.35542 0.0
Co187 Co 0.27051 0.38541 0.38148 0.0
O188 O 0.29336 0.43874 0.35204 0.0
C189 C 0.30252 0.32077 0.32201 0.0
C190 C 0.43561 0.32641 0.39524 0.0
C191 C 0.33657 0.44683 0.34229 0.0
O192 O 0.34626 0.33304 0.335 0.0
O193 O 0.26738 0.33509 0.33914 0.0
O194 O 0.38846 0.39906 0.4484 0.0
O195 O 0.31919 0.36791 0.42225 0.0
Co196 Co 0.34832 0.64167 0.17242 0.0
O197 O 0.28506 0.61545 0.15011 0.0
O198 O 0.33896 0.6474 0.10781 0.0
C199 C 0.36362 0.58733 0.21875 0.0
O200 O 0.41646 0.67428 0.18048 0.0
Co201 Co 0.3727 0.66682 0.27199 0.0
O202 O 0.4317 0.69907 0.25167 0.0
C203 C 0.31115 0.71496 0.21727 0.0
C204 C 0.29585 0.62863 0.11072 0.0
C205 C 0.44217 0.69808 0.21085 0.0
O206 O 0.32223 0.69619 0.18187 0.0
O207 O 0.32407 0.70535 0.25699 0.0
O208 O 0.3712 0.58583 0.17614 0.0
O209 O 0.3455 0.62027 0.23148 0.0
Co210 Co 0.68644 0.889 0.17598 0.0
O211 O 0.74779 0.91498 0.15562 0.0
O212 O 0.694 0.87359 0.1134 0.0
C213 C 0.67122 0.94915 0.21484 0.0
O214 O 0.62017 0.85426 0.18211 0.0
Co215 Co 0.66392 0.88196 0.27769 0.0
O216 O 0.60744 0.84224 0.25484 0.0
C217 C 0.7343 0.83659 0.23884 0.0
C218 C 0.73572 0.89595 0.11685 0.0
C219 C 0.59635 0.83509 0.21315 0.0
O220 O 0.71631 0.83921 0.19856 0.0
O221 O 0.72735 0.86201 0.27079 0.0
O222 O 0.66149 0.94502 0.17156 0.0
O223 O 0.6888 0.91771 0.23133 0.0
C224 C 0.2551 0.22258 0.24985 0.0
C225 C 0.24316 0.24244 0.20925 0.0
C226 C 0.28687 0.30916 0.24004 0.0
C227 C 0.29101 0.29149 0.2826 0.0
N228 N 0.27613 0.23177 0.32983 0.0
N229 N 0.2362 0.30874 0.17284 0.0
C230 C 0.27421 0.24823 0.2881 0.0
C231 C 0.25608 0.2869 0.20614 0.0
N232 N 0.25024 0.17955 0.25159 0.0
N233 N 0.31209 0.34735 0.23198 0.0
H234 H 0.20888 0.29493 0.15025 0.0
H235 H 0.24218 0.34165 0.17167 0.0
H236 H 0.33636 0.36362 0.25597 0.0
H237 H 0.31278 0.36011 0.20017 0.0
H238 H 0.26256 0.16366 0.27902 0.0
H239 H 0.23828 0.15973 0.22404 0.0
H240 H 0.25948 0.20176 0.33685 0.0
H241 H 0.29233 0.24923 0.3579 0.0
C242 C 0.80465 0.28399 0.2677 0.0
C243 C 0.78072 0.28366 0.22465 0.0
C244 C 0.709 0.24554 0.25429 0.0
C245 C 0.73274 0.24706 0.29755 0.0
N246 N 0.79467 0.28495 0.34745 0.0
N247 N 0.70379 0.2817 0.18454 0.0
C248 C 0.77761 0.27251 0.30489 0.0
C249 C 0.73079 0.27008 0.22026 0.0
N250 N 0.85307 0.29194 0.27329 0.0
N251 N 0.6675 0.21937 0.24423 0.0
H252 H 0.71755 0.30284 0.16096 0.0
H253 H 0.66681 0.2749 0.18193 0.0
H254 H 0.64991 0.19998 0.26714 0.0
H255 H 0.65248 0.21455 0.21153 0.0
H256 H 0.8714 0.28901 0.30406 0.0
H257 H 0.8753 0.29632 0.24683 0.0
H258 H 0.82581 0.30595 0.35413 0.0
H259 H 0.77464 0.27814 0.37524 0.0
C260 C 0.2349 0.74521 0.20575 0.0
C261 C 0.28517 0.75162 0.21233 0.0
C262 C 0.28357 0.82612 0.23081 0.0
C263 C 0.23489 0.81617 0.23778 0.0
N264 N 0.16089 0.77255 0.22047 0.0
N265 N 0.35859 0.79891 0.22399 0.0
C266 C 0.20924 0.77809 0.2197 0.0
C267 C 0.31002 0.79275 0.22128 0.0
N268 N 0.21228 0.70734 0.1885 0.0
N269 N 0.30442 0.86691 0.23772 0.0
H270 H 0.3786 0.77461 0.21741 0.0
H271 H 0.37907 0.82736 0.23424 0.0
H272 H 0.2844 0.89056 0.24676 0.0
H273 H 0.33956 0.87755 0.23143 0.0
H274 H 0.17578 0.70096 0.18119 0.0
H275 H 0.2308 0.6828 0.17891 0.0
H276 H 0.13915 0.74437 0.21168 0.0
H277 H 0.14271 0.79722 0.23055 0.0
C278 C 0.76657 0.74649 0.30859 0.0
C279 C 0.79919 0.72946 0.28197 0.0
C280 C 0.79481 0.78639 0.22901 0.0
C281 C 0.75646 0.79905 0.252 0.0
N282 N 0.69798 0.78297 0.30749 0.0
N283 N 0.84288 0.7305 0.21514 0.0
C284 C 0.74021 0.77697 0.29023 0.0
C285 C 0.81292 0.74858 0.24153 0.0
N286 N 0.76047 0.73349 0.35137 0.0
N287 N 0.81514 0.81121 0.19682 0.0
H288 H 0.8586 0.70407 0.22472 0.0
H289 H 0.85002 0.74033 0.18294 0.0
H290 H 0.8038 0.83987 0.18813 0.0
H291 H 0.84583 0.80537 0.18169 0.0
H292 H 0.74007 0.748 0.37347 0.0
H293 H 0.77967 0.71132 0.3663 0.0
H294 H 0.68273 0.76432 0.33241 0.0
H295 H 0.67521 0.80278 0.2935 0.0
C296 C 0.30782 0.77444 0.77 0.0
C297 C 0.28329 0.77767 0.72777 0.0
C298 C 0.21096 0.73947 0.75606 0.0
C299 C 0.23509 0.73769 0.79878 0.0
N300 N 0.29961 0.76961 0.84983 0.0
N301 N 0.20642 0.77982 0.68905 0.0
C302 C 0.28121 0.76083 0.80689 0.0
C303 C 0.23314 0.76556 0.72347 0.0
N304 N 0.35634 0.78128 0.77478 0.0
N305 N 0.16868 0.71478 0.745 0.0
H306 H 0.22076 0.80173 0.66646 0.0
H307 H 0.16936 0.77419 0.68672 0.0
H308 H 0.15126 0.69376 0.76659 0.0
H309 H 0.15304 0.71244 0.71244 0.0
H310 H 0.37518 0.77551 0.80447 0.0
H311 H 0.37799 0.78793 0.74823 0.0
H312 H 0.3317 0.78907 0.85737 0.0
H313 H 0.28001 0.76158 0.87761 0.0
C314 C 0.71819 0.74013 0.75766 0.0
C315 C 0.74181 0.73765 0.71718 0.0
C316 C 0.80833 0.78843 0.74958 0.0
C317 C 0.78542 0.78972 0.79047 0.0
N318 N 0.72819 0.75352 0.83788 0.0
N319 N 0.81761 0.74617 0.68326 0.0
C320 C 0.74349 0.76114 0.79595 0.0
C321 C 0.7896 0.75754 0.71592 0.0
N322 N 0.67108 0.72509 0.75949 0.0
N323 N 0.84608 0.8178 0.74129 0.0
H324 H 0.8062 0.72163 0.65981 0.0
H325 H 0.85376 0.75739 0.68313 0.0
H326 H 0.86033 0.84212 0.76391 0.0
H327 H 0.86038 0.82031 0.70995 0.0
H328 H 0.65177 0.73057 0.78718 0.0
H329 H 0.64992 0.71087 0.73235 0.0
H330 H 0.70008 0.73027 0.84392 0.0
H331 H 0.74721 0.76674 0.8669 0.0
C332 C 0.70347 0.27047 0.71632 0.0
C333 C 0.72637 0.31002 0.73321 0.0
C334 C 0.8038 0.29078 0.71817 0.0
C335 C 0.78188 0.24847 0.71054 0.0
N336 N 0.71191 0.20045 0.68624 0.0
N337 N 0.7922 0.36435 0.7309 0.0
C338 C 0.73179 0.23925 0.70336 0.0
C339 C 0.77454 0.32255 0.72592 0.0
N340 N 0.65525 0.2621 0.71737 0.0
N341 N 0.85222 0.29973 0.72118 0.0
H342 H 0.77001 0.38691 0.73827 0.0
H343 H 0.82685 0.37664 0.72447 0.0
H344 H 0.87416 0.27664 0.71566 0.0
H345 H 0.87055 0.32934 0.73056 0.0
H346 H 0.63562 0.23266 0.7097 0.0
H347 H 0.63516 0.28563 0.72685 0.0
H348 H 0.67569 0.1922 0.67839 0.0
H349 H 0.73249 0.1773 0.67695 0.0
C350 C 0.23 0.25291 0.73273 0.0
C351 C 0.2599 0.29195 0.73736 0.0
C352 C 0.32451 0.25558 0.76805 0.0
C353 C 0.29137 0.21839 0.77155 0.0
N354 N 0.20859 0.18712 0.76844 0.0
N355 N 0.33527 0.33192 0.76138 0.0
C356 C 0.243 0.21834 0.75668 0.0
C357 C 0.30721 0.29379 0.75563 0.0
N358 N 0.18863 0.24893 0.70647 0.0
N359 N 0.3722 0.25416 0.77469 0.0
H360 H 0.32419 0.35996 0.75012 0.0
H361 H 0.36827 0.33584 0.77915 0.0
H362 H 0.38634 0.22634 0.78139 0.0
H363 H 0.39787 0.27963 0.76905 0.0
H364 H 0.16777 0.21983 0.69945 0.0
H365 H 0.17758 0.27378 0.68841 0.0
H366 H 0.17244 0.18801 0.76111 0.0
H367 H 0.2153 0.16349 0.7905 0.0
C368 C 0.12585 1.00307 0.26191 0.0
C369 C 0.16856 0.98477 0.26925 0.0
C370 C 0.20768 0.04006 0.22228 0.0
C371 C 0.16311 0.05336 0.20832 0.0
N372 N 0.0773 0.03391 0.20633 0.0
N373 N 0.24627 0.97963 0.24176 0.0
C374 C 0.12139 0.03106 0.22569 0.0
C375 C 0.2084 1.00143 0.24526 0.0
N376 N 0.08971 0.99514 0.28998 0.0
N377 N 0.24984 0.06428 0.21555 0.0
H378 H 0.24674 0.94933 0.25354 0.0
H379 H 0.27412 0.98922 0.22145 0.0
H380 H 0.25265 0.09424 0.20244 0.0
H381 H 0.28232 0.05673 0.22877 0.0
H382 H 0.05949 1.01045 0.28747 0.0
H383 H 0.09262 0.97797 0.319 0.0
H384 H 0.0467 0.01581 0.2165 0.0
H385 H 0.07177 0.04878 0.17624 0.0
C386 C 0.85939 0.45287 0.26723 0.0
C387 C 0.87192 0.4594 0.22219 0.0
C388 C 0.89469 0.53524 0.24074 0.0
C389 C 0.87699 0.52972 0.28415 0.0
N390 N 0.83943 0.4837 0.33802 0.0
N391 N 0.89652 0.50748 0.16452 0.0
C392 C 0.85889 0.48852 0.29739 0.0
C393 C 0.88829 0.50079 0.2086 0.0
N394 N 0.84854 0.41249 0.2813 0.0
N395 N 0.91938 0.57324 0.23071 0.0
H396 H 0.8934 0.48305 0.14024 0.0
H397 H 0.9028 0.53745 0.15126 0.0
H398 H 0.92614 0.59873 0.25369 0.0
H399 H 0.93739 0.57825 0.20153 0.0
H400 H 0.84385 0.405 0.31461 0.0
H401 H 0.84747 0.38598 0.25994 0.0
H402 H 0.82079 0.45551 0.34796 0.0
H403 H 0.83956 0.50887 0.36102 0.0
C404 C 0.22567 0.1445 0.93827 0.0
C405 C 0.24615 0.10651 0.93233 0.0
C406 C 0.21502 0.08166 1.00401 0.0
C407 C 0.19263 0.11885 0.00888 0.0
N408 N 0.16899 0.18146 0.97618 0.0
N409 N 0.25357 0.03594 0.95541 0.0
C410 C 0.19589 0.14904 0.97465 0.0
C411 C 0.23861 0.07414 0.96393 0.0
N412 N 0.23541 0.17675 0.90946 0.0
N413 N 0.21608 0.05452 0.03863 0.0
H414 H 0.27231 0.03003 0.9274 0.0
H415 H 0.24457 1.00931 0.97419 0.0
H416 H 0.19908 0.05836 0.06814 0.0
H417 H 0.23655 0.02979 0.03954 0.0
H418 H 0.2264 0.20698 0.91471 0.0
H419 H 0.2557 0.17436 0.88174 0.0
H420 H 0.16568 0.20234 0.95032 0.0
H421 H 0.14606 0.18494 1.00164 0.0
C422 C 0.82127 0.3925 0.98481 0.0
C423 C 0.80166 0.3859 0.02707 0.0
C424 C 0.7212 0.38692 0.99107 0.0
C425 C 0.741 0.39518 0.9492 0.0
N426 N 0.81103 0.41816 0.90959 0.0
N427 N 0.73429 0.39076 0.07195 0.0
C428 C 0.79145 0.40181 0.94721 0.0
C429 C 0.75199 0.38731 0.03065 0.0
N430 N 0.86779 0.38786 0.97981 0.0
N431 N 0.67318 0.37661 0.99305 0.0
H432 H 0.75576 0.39378 0.10163 0.0
H433 H 0.69936 0.39575 0.07644 0.0
H434 H 0.64944 0.3759 0.96505 0.0
H435 H 0.65736 0.36539 0.02183 0.0
H436 H 0.88257 0.38751 0.94871 0.0
H437 H 0.89064 0.3807 1.00625 0.0
H438 H 0.84739 0.42732 0.90759 0.0
H439 H 0.79052 0.42702 0.88221 0.0
C440 C 0.25312 0.88563 0.53644 0.0
C441 C 0.30299 0.88515 0.53292 0.0
C442 C 0.29306 0.90472 0.45414 0.0
C443 C 0.24259 0.89697 0.45557 0.0
N444 N 0.17461 0.87528 0.4982 0.0
N445 N 0.3695 0.89026 0.48586 0.0
C446 C 0.22256 0.88647 0.49685 0.0
C447 C 0.32282 0.89405 0.49114 0.0
N448 N 0.235 0.88712 0.57775 0.0
N449 N 0.31267 0.9233 0.41759 0.0
H450 H 0.39231 0.88192 0.51173 0.0
H451 H 0.38447 0.89169 0.45481 0.0
H452 H 0.29212 0.93313 0.39076 0.0
H453 H 0.34896 0.93324 0.41621 0.0
H454 H 0.19983 0.89128 0.58232 0.0
H455 H 0.25624 0.88943 0.60755 0.0
H456 H 0.15874 0.86247 0.52629 0.0
H457 H 0.15105 0.8756 0.4702 0.0
C458 C 0.73269 0.59089 0.50807 0.0
C459 C 0.69977 0.62089 0.5091 0.0
C460 C 0.71331 0.63569 0.42974 0.0
C461 C 0.74981 0.60883 0.43 0.0
N462 N 0.7965 0.56303 0.47061 0.0
N463 N 0.66226 0.67504 0.47239 0.0
C464 C 0.76013 0.58711 0.46961 0.0
C465 C 0.69101 0.64402 0.47024 0.0
N466 N 0.73709 0.56532 0.54369 0.0
N467 N 0.69943 0.65316 0.39061 0.0
H468 H 0.64351 0.68048 0.50049 0.0
H469 H 0.65919 0.69709 0.44763 0.0
H470 H 0.7162 0.65053 0.3608 0.0
H471 H 0.66926 0.66831 0.38677 0.0
H472 H 0.75655 0.53991 0.54372 0.0
H473 H 0.71793 0.56725 0.57219 0.0
H474 H 0.80991 0.55034 0.49967 0.0
H475 H 0.81538 0.55765 0.44258 0.0
C476 C 0.98938 0.26443 0.13678 0.0
C477 C 0.96629 0.27712 0.09669 0.0
C478 C 0.02382 0.24393 0.05283 0.0
C479 C 0.04934 0.23449 0.09294 0.0
N480 N 0.06097 0.24379 0.1734 0.0
N481 N 0.9673 0.28537 0.01687 0.0
C482 C 0.03328 0.24691 0.135 0.0
C483 C 0.98525 0.26861 0.05483 0.0
N484 N 0.96838 0.26725 0.17657 0.0
N485 N 0.03533 0.22791 0.01266 0.0
H486 H 0.93994 0.30416 0.01717 0.0
H487 H 0.98248 0.28422 0.98603 0.0
H488 H 0.06244 0.2091 0.00996 0.0
H489 H 0.01521 0.22973 0.9827 0.0
H490 H 0.98033 0.25392 0.20588 0.0
H491 H 0.93662 0.27977 0.17961 0.0
H492 H 0.0541 0.25681 0.20428 0.0
H493 H 0.09318 0.2315 0.17384 0.0
C494 C 0.99012 0.75182 0.37684 0.0
C495 C 0.99073 0.71027 0.35822 0.0
C496 C 0.07419 0.73087 0.34107 0.0
C497 C 0.07551 0.77013 0.36517 0.0
N498 N 0.03571 0.81558 0.41122 0.0
N499 N 0.03714 0.65821 0.33053 0.0
C500 C 0.03368 0.77998 0.38447 0.0
C501 C 0.03382 0.69929 0.34243 0.0
N502 N 0.94774 0.76538 0.38512 0.0
N503 N 0.11084 0.7242 0.31523 0.0
H504 H 1.00923 0.63373 0.33261 0.0
H505 H 0.0691 0.64768 0.32322 0.0
H506 H 0.14033 0.74686 0.31186 0.0
H507 H 0.10955 0.69813 0.29329 0.0
H508 H 0.9447 0.79656 0.39433 0.0
H509 H 0.915 0.74676 0.37833 0.0
H510 H 1.00783 0.82209 0.43027 0.0
H511 H 0.06673 0.83687 0.41727 0.0
C512 C 0.52479 0.74093 0.55489 0.0
C513 C 0.55069 0.73137 0.59473 0.0
C514 C 0.49098 0.76111 0.63918 0.0
C515 C 0.46774 0.77419 0.59937 0.0
N516 N 0.46828 0.78275 0.51955 0.0
N517 N 0.56282 0.74045 0.67516 0.0
C518 C 0.48636 0.76574 0.55731 0.0
C519 C 0.53487 0.74361 0.63698 0.0
N520 N 0.53588 0.72496 0.51455 0.0
N521 N 0.47021 0.7636 0.67912 0.0
H522 H 0.59505 0.7283 0.67516 0.0
H523 H 0.55617 0.75332 0.70618 0.0
H524 H 0.43844 0.77603 0.68246 0.0
H525 H 0.48234 0.75003 0.70822 0.0
H526 H 0.51551 0.7269 0.48476 0.0
H527 H 0.56282 0.70602 0.5116 0.0
H528 H 0.48323 0.78165 0.4886 0.0
H529 H 0.4411 0.80172 0.52014 0.0
C530 C 0.84022 1.00963 0.73893 0.0
C531 C 0.8667 0.04958 0.75198 0.0
C532 C 0.88198 0.02235 0.82782 0.0
C533 C 0.85703 0.98217 0.81402 0.0
N534 N 0.8225 0.93479 0.75341 0.0
N535 N 0.92084 0.0909 0.80612 0.0
C536 C 0.83959 0.97502 0.76853 0.0
C537 C 0.88998 0.05496 0.79571 0.0
N538 N 0.81266 1.00525 0.69961 0.0
N539 N 0.89671 0.02979 0.87195 0.0
H540 H 0.92824 0.11464 0.78317 0.0
H541 H 0.94234 0.09546 0.8357 0.0
H542 H 0.89277 1.00627 0.89565 0.0
H543 H 0.91019 0.05961 0.88555 0.0
H544 H 0.78832 0.97854 0.69092 0.0
H545 H 0.81044 0.02963 0.67737 0.0
H546 H 0.81421 0.92657 0.71965 0.0
H547 H 0.82097 0.90882 0.77408 0.0
C548 C 0.17935 0.55955 0.76043 0.0
C549 C 0.15913 0.55207 0.80243 0.0
C550 C 0.12687 0.48 0.77512 0.0
C551 C 0.15456 0.48495 0.73701 0.0
N552 N 0.20828 0.52972 0.69339 0.0
N553 N 0.11333 0.50519 0.85028 0.0
C554 C 0.18039 0.52509 0.72919 0.0
C555 C 0.13221 0.51241 0.80972 0.0
N556 N 0.19749 0.59985 0.75043 0.0
N557 N 0.09462 0.44456 0.77748 0.0
H558 H 0.11536 0.52872 0.87547 0.0
H559 H 0.09794 0.47555 0.85979 0.0
H560 H 0.08841 0.42203 0.75118 0.0
H561 H 0.07068 0.43985 0.80255 0.0
H562 H 0.20858 0.60838 0.71891 0.0
H563 H 0.19726 0.62562 0.77256 0.0
H564 H 0.23272 0.5564 0.68899 0.0
H565 H 0.20902 0.5058 0.66916 0.0
C566 C 0.78034 0.93382 0.05437 0.0
C567 C 0.76913 0.89664 0.07926 0.0
C568 C 0.82035 0.85977 0.03193 0.0
C569 C 0.82648 0.89494 1.00358 0.0
N570 N 0.81079 0.96506 0.98622 0.0
N571 N 0.77576 0.82282 0.08939 0.0
C572 C 0.80639 0.93205 0.01465 0.0
C573 C 0.78855 0.85929 0.0674 0.0
N574 N 0.7658 0.97078 0.06855 0.0
N575 N 0.84589 0.82697 0.02543 0.0
H576 H 0.75435 0.8213 0.11662 0.0
H577 H 0.78374 0.79336 0.07894 0.0
H578 H 0.86976 0.82658 1.00027 0.0
H579 H 0.84715 0.80229 0.04744 0.0
H580 H 0.77659 0.99996 0.05495 0.0
H581 H 0.7452 0.97279 0.09612 0.0
H582 H 0.79265 0.99117 0.98896 0.0
H583 H 0.83113 0.96528 0.9582 0.0
C584 C 0.21145 0.59284 1.0074 0.0
C585 C 0.19054 0.63018 0.99948 0.0
C586 C 0.23849 0.66595 0.06366 0.0
C587 C 0.25872 0.62835 0.07285 0.0
N588 N 0.25794 0.55364 0.05849 0.0
N589 N 0.17381 0.69748 0.02739 0.0
C590 C 0.24281 0.59089 0.04645 0.0
C591 C 0.20061 0.66502 0.03026 0.0
N592 N 0.20267 0.55993 0.97668 0.0
N593 N 0.25679 0.70328 0.08525 0.0
H594 H 0.1455 0.69727 1.00354 0.0
H595 H 0.17615 0.722 0.05141 0.0
H596 H 0.2853 0.70594 0.1089 0.0
H597 H 0.24685 0.73241 0.07656 0.0
H598 H 0.22077 0.53363 0.97738 0.0
H599 H 0.17835 0.56002 0.94914 0.0
H600 H 0.24438 0.5245 0.0433 0.0
H601 H 0.28191 0.55156 0.08588 0.0
C602 C 0.71384 0.17375 0.52963 0.0
C603 C 0.69772 0.1384 0.50071 0.0
C604 C 0.74409 0.09468 0.54855 0.0
C605 C 0.76598 0.1317 0.57306 0.0
N606 N 0.77539 0.20813 0.58205 0.0
N607 N 0.69797 0.06504 0.48104 0.0
C608 C 0.75176 0.17166 0.56233 0.0
C609 C 0.71256 0.0986 0.51002 0.0
N610 N 0.69225 0.20944 0.52608 0.0
N611 N 0.7538 0.0559 0.56178 0.0
H612 H 0.67351 0.06681 0.45396 0.0
H613 H 0.71154 0.03634 0.48257 0.0
H614 H 0.77815 0.05212 0.58838 0.0
H615 H 0.73571 0.02749 0.54828 0.0
H616 H 0.69877 0.23486 0.54914 0.0
H617 H 0.66384 0.21158 0.5029 0.0
H618 H 0.7699 0.23818 0.57185 0.0
H619 H 0.80383 0.20888 0.60554 0.0
C620 C 0.25128 0.42047 0.5341 0.0
C621 C 0.26429 0.40062 0.57418 0.0
C622 C 0.3328 0.37752 0.53744 0.0
C623 C 0.32057 0.39848 0.49773 0.0
N624 N 0.27531 0.44843 0.46264 0.0
N625 N 0.32268 0.36714 0.61687 0.0
C626 C 0.28177 0.4224 0.49742 0.0
C627 C 0.30692 0.38162 0.57678 0.0
N628 N 0.20943 0.4372 0.53085 0.0
N629 N 0.36726 0.35146 0.53688 0.0
H630 H 0.30394 0.36773 0.64581 0.0
H631 H 0.35605 0.3575 0.62242 0.0
H632 H 0.38722 0.34771 0.50925 0.0
H633 H 0.37381 0.33112 0.56254 0.0
H634 H 0.19498 0.44763 0.50099 0.0
H635 H 0.18755 0.43834 0.5576 0.0
H636 H 0.25044 0.46962 0.46169 0.0
H637 H 0.29866 0.4521 0.43694 0.0
C638 C 0.02645 0.7492 0.9362 0.0
C639 C 0.04554 0.73896 0.89486 0.0
C640 C 0.98831 0.77934 0.85537 0.0
C641 C 0.97292 0.79345 0.897 0.0
N642 N 0.98392 0.79712 0.97771 0.0
N643 N 0.05079 0.75226 0.816 0.0
C644 C 0.99377 0.77975 0.93762 0.0
C645 C 0.0281 0.75623 0.8547 0.0
N646 N 0.03783 0.72842 0.97393 0.0
N647 N 0.9636 0.78625 0.81622 0.0
H648 H 0.08084 0.73692 0.81418 0.0
H649 H 0.04289 0.768 0.78693 0.0
H650 H 0.93337 0.80155 0.81507 0.0
H651 H 0.97001 0.77285 0.78539 0.0
H652 H 0.02127 0.73113 1.00388 0.0
H653 H 0.06043 0.70523 0.97418 0.0
H654 H 1.00186 0.79195 1.00804 0.0
H655 H 0.961 0.81989 0.98024 0.0
C656 C 0.06724 0.25905 0.73699 0.0
C657 C 0.0634 0.29621 0.71186 0.0
C658 C 0.98375 0.26373 0.68124 0.0
C659 C 0.98723 0.22757 0.70777 0.0
N660 N 0.0366 0.18581 0.75037 0.0
N661 N 0.0214 0.33076 0.65426 0.0
C662 C 0.03041 0.22386 0.7324 0.0
C663 C 0.02292 0.29727 0.68174 0.0
N664 N 0.10583 0.25748 0.76614 0.0
N665 N 0.94194 0.26717 0.65753 0.0
H666 H 0.0472 0.35727 0.65611 0.0
H667 H 0.99602 0.33152 0.62788 0.0
H668 H 0.91347 0.2429 0.65467 0.0
H669 H 0.93421 0.29464 0.64232 0.0
H670 H 0.10737 0.23463 0.79027 0.0
H671 H 0.1361 0.27986 0.76766 0.0
H672 H 0.06879 0.17894 0.76476 0.0
H673 H 1.0105 0.15946 0.74676 0.0
C674 C 0.52736 0.25408 0.43553 0.0
C675 C 0.54605 0.24269 0.39438 0.0
C676 C 0.48876 0.28234 0.35389 0.0
C677 C 0.47357 0.29738 0.39522 0.0
N678 N 0.48493 0.30295 0.47582 0.0
N679 N 0.55076 0.25388 0.31507 0.0
C680 C 0.49463 0.28463 0.43618 0.0
C681 C 0.52838 0.25897 0.35375 0.0
N682 N 0.53927 0.23446 0.4739 0.0
N683 N 0.46403 0.28863 0.31457 0.0
H684 H 0.58059 0.23821 0.31354 0.0
H685 H 0.54281 0.26895 0.28558 0.0
H686 H 0.43412 0.30435 0.31303 0.0
H687 H 0.47015 0.27447 0.28404 0.0
H688 H 0.523 0.23794 0.50388 0.0
H689 H 0.56216 0.21148 0.47481 0.0
H690 H 0.50295 0.29851 0.50633 0.0
H691 H 0.46205 0.32582 0.47769 0.0
C692 C 0.64191 0.50861 0.69038 0.0
C693 C 0.66452 0.54971 0.70392 0.0
C694 C 0.68674 0.52252 0.77791 0.0
C695 C 0.66743 0.48068 0.76309 0.0
N696 N 0.63536 0.43303 0.70154 0.0
N697 N 0.71393 0.59499 0.75847 0.0
C698 C 0.64713 0.47354 0.71837 0.0
C699 C 0.68872 0.55633 0.74703 0.0
N700 N 0.6151 0.503 0.65069 0.0
N701 N 0.70106 0.53042 0.82212 0.0
H702 H 0.71465 0.62081 0.73764 0.0
H703 H 0.73681 0.60073 0.78707 0.0
H704 H 0.69927 0.5069 0.84584 0.0
H705 H 0.7107 0.5607 0.83625 0.0
H706 H 0.59305 0.47507 0.64134 0.0
H707 H 0.61211 0.52733 0.62842 0.0
H708 H 0.62535 0.42562 0.66791 0.0
H709 H 0.6401 0.40647 0.72005 0.0
C710 C 0.36092 0.98505 0.80293 0.0
C711 C 0.37739 0.02639 0.78897 0.0
C712 C 0.38899 0.99705 0.71368 0.0
C713 C 0.37389 0.95559 0.72786 0.0
N714 N 0.35283 0.90891 0.78779 0.0
N715 N 0.41805 0.07017 0.73475 0.0
C716 C 0.36221 0.94924 0.77316 0.0
C717 C 0.39464 0.03182 0.74538 0.0
N718 N 0.3422 0.98021 0.84389 0.0
N719 N 0.39664 1.00347 0.66944 0.0
H720 H 0.42422 0.09589 0.75744 0.0
H721 H 0.43566 0.07533 0.70536 0.0
H722 H 0.39417 0.97883 0.64546 0.0
H723 H 0.40187 0.03332 0.65578 0.0
H724 H 0.32464 0.95178 0.85442 0.0
H725 H 0.34195 1.00553 0.86662 0.0
H726 H 0.34875 0.90169 0.82125 0.0
H727 H 0.35247 0.88229 0.76673 0.0
C728 C 0.48238 0.25261 0.87429 0.0
C729 C 0.48298 0.21067 0.85673 0.0
C730 C 0.56645 0.2307 0.83944 0.0
C731 C 0.56794 0.27035 0.86282 0.0
N732 N 0.52802 0.31712 0.90708 0.0
N733 N 0.52951 0.15794 0.83071 0.0
C734 C 0.52601 0.28085 0.88143 0.0
C735 C 0.52608 0.19928 0.84142 0.0
N736 N 0.43998 0.2663 0.88215 0.0
N737 N 0.60301 0.22346 0.81374 0.0
H738 H 0.50171 0.13349 0.83344 0.0
H739 H 0.56151 0.14728 0.82385 0.0
H740 H 0.63248 0.246 0.80985 0.0
H741 H 0.60159 0.19699 0.79233 0.0
H742 H 0.43685 0.29765 0.89052 0.0
H743 H 0.40731 0.24742 0.87589 0.0
H744 H 0.50005 0.32429 0.92565 0.0
H745 H 0.55907 0.33846 0.91261 0.0
C746 C 0.32545 0.51415 0.23813 0.0
C747 C 0.36146 0.5491 0.24772 0.0
C748 C 0.38279 0.51708 0.31971 0.0
C749 C 0.34807 0.48128 0.30909 0.0
N750 N 0.29303 0.44228 0.25349 0.0
N751 N 0.42914 0.58105 0.29427 0.0
C752 C 0.32152 0.47889 0.26688 0.0
C753 C 0.39158 0.54963 0.28756 0.0
N754 N 0.29293 0.51545 0.2028 0.0
N755 N 0.40569 0.52104 0.36138 0.0
H756 H 0.4362 0.60514 0.27161 0.0
H757 H 0.45539 0.58147 0.32009 0.0
H758 H 0.40012 0.49807 0.38546 0.0
H759 H 0.42755 0.54822 0.37335 0.0
H760 H 0.262 0.494 0.19776 0.0
H761 H 0.29454 0.53986 0.18023 0.0
H762 H 0.27781 0.43644 0.22101 0.0
H763 H 0.2878 0.41598 0.27345 0.0
C764 C 0.69793 0.02202 0.31771 0.0
C765 C 0.67034 0.05534 0.31043 0.0
C766 C 0.63674 0.01699 0.23998 0.0
C767 C 0.6713 0.98854 0.24425 0.0
N768 N 0.74735 0.97855 0.28082 0.0
N769 N 0.61794 0.08728 0.25851 0.0
C770 C 0.70553 0.99524 0.28129 0.0
C771 C 0.64062 0.05363 0.2699 0.0
N772 N 0.71732 0.01578 0.3595 0.0
N773 N 0.59973 1.00892 0.20853 0.0
H774 H 0.62035 0.11479 0.27839 0.0
H775 H 0.60003 0.08916 0.22734 0.0
H776 H 0.5953 0.98248 0.18681 0.0
H777 H 0.5713 0.02648 0.20691 0.0
H778 H 0.7354 0.99004 0.36639 0.0
H779 H 0.71021 0.03316 0.38778 0.0
H780 H 0.7741 0.98503 0.3064 0.0
H781 H 0.75823 0.96393 0.2523 0.0
C782 C 0.51377 0.80232 0.18149 0.0
C783 C 0.55927 0.79765 0.20121 0.0
C784 C 0.53048 0.72337 0.21717 0.0
C785 C 0.4845 0.72827 0.19875 0.0
N786 N 0.43636 0.76822 0.15153 0.0
N787 N 0.61471 0.75008 0.22358 0.0
C788 C 0.47757 0.76635 0.17677 0.0
C789 C 0.56873 0.75691 0.21455 0.0
N790 N 0.50436 0.8415 0.16939 0.0
N791 N 0.53735 0.68689 0.23811 0.0
H792 H 0.64345 0.77343 0.21983 0.0
H793 H 0.62468 0.72046 0.22996 0.0
H794 H 0.51102 0.66075 0.23789 0.0
H795 H 0.56823 0.68325 0.25728 0.0
H796 H 0.47045 0.84826 0.15985 0.0
H797 H 0.53032 0.86797 0.17155 0.0
H798 H 0.43071 0.79354 0.1315 0.0
H799 H 0.40923 0.74279 0.14758 0.0
loop_
_geom_bond_atom_site_label_1
_geom_bond_atom_site_label_2
_geom_bond_distance
_geom_bond_site_symmetry_2
_ccdc_geom_bond_type
Co0 O1 2.216 . S
Co0 O2 2.091 . S
Co0 O4 2.004 . S
Co0 O10 2.021 . S
Co0 O12 2.137 . S
Co0 O13 2.244 . S
O1 Co0 2.216 . S
O1 C8 1.247 . S
O2 Co0 2.091 . S
O2 C8 1.261 . S
C3 O12 1.247 . S
C3 O13 1.272 . S
O4 Co0 2.004 . S
O4 C9 1.259 . S
Co5 O6 2.061 . S
Co5 O11 2.052 . S
Co5 O13 2.135 . S
O6 Co5 2.061 . S
O6 C9 1.235 . S
C7 O10 1.238 . S
C7 O11 1.241 . S
C8 O1 1.247 . S
C8 O2 1.261 . S
C9 O4 1.259 . S
C9 O6 1.235 . S
O10 Co0 2.021 . S
O10 C7 1.238 . S
O11 Co5 2.052 . S
O11 C7 1.241 . S
O12 Co0 2.137 . S
O12 C3 1.247 . S
O13 Co0 2.244 . S
O13 C3 1.272 . S
O13 Co5 2.135 . S
Co14 O15 2.216 . S
Co14 O16 2.091 . S
Co14 O18 2.004 . S
Co14 O24 2.021 . S
Co14 O26 2.137 . S
Co14 O27 2.244 . S
O15 Co14 2.216 . S
O15 C22 1.247 . S
O16 Co14 2.091 . S
O16 C22 1.261 . S
C17 O26 1.247 . S
C17 O27 1.272 . S
O18 Co14 2.004 . S
O18 C23 1.259 . S
Co19 O20 2.061 . S
Co19 O25 2.052 . S
Co19 O27 2.135 . S
O20 Co19 2.061 . S
O20 C23 1.235 . S
C21 O24 1.238 . S
C21 O25 1.241 . S
C22 O15 1.247 . S
C22 O16 1.261 . S
C23 O18 1.259 . S
C23 O20 1.235 . S
O24 Co14 2.021 . S
O24 C21 1.238 . S
O25 Co19 2.052 . S
O25 C21 1.241 . S
O26 Co14 2.137 . S
O26 C17 1.247 . S
O27 Co14 2.244 . S
O27 C17 1.272 . S
O27 Co19 2.135 . S
Co28 O29 2.216 . S
Co28 O30 2.091 . S
Co28 O32 2.004 . S
Co28 O38 2.021 . S
Co28 O40 2.137 . S
Co28 O41 2.244 . S
O29 Co28 2.216 . S
O29 C36 1.247 . S
O30 Co28 2.091 . S
O30 C36 1.261 . S
C31 O40 1.247 . S
C31 O41 1.272 . S
O32 Co28 2.004 . S
O32 C37 1.259 . S
Co33 O34 2.061 . S
Co33 O39 2.052 . S
Co33 O41 2.135 . S
O34 Co33 2.061 . S
O34 C37 1.235 . S
C35 O38 1.238 . S
C35 O39 1.241 . S
C36 O29 1.247 . S
C36 O30 1.261 . S
C37 O32 1.259 . S
C37 O34 1.235 . S
O38 Co28 2.021 . S
O38 C35 1.238 . S
O39 Co33 2.052 . S
O39 C35 1.241 . S
O40 Co28 2.137 . S
O40 C31 1.247 . S
O41 Co28 2.244 . S
O41 C31 1.272 . S
O41 Co33 2.135 . S
Co42 O43 2.216 . S
Co42 O44 2.091 . S
Co42 O46 2.004 . S
Co42 O52 2.021 . S
Co42 O54 2.137 . S
Co42 O55 2.244 . S
O43 Co42 2.216 . S
O43 C50 1.247 . S
O44 Co42 2.091 . S
O44 C50 1.261 . S
C45 O54 1.247 . S
C45 O55 1.272 . S
O46 Co42 2.004 . S
O46 C51 1.259 . S
Co47 O48 2.061 . S
Co47 O53 2.052 . S
Co47 O55 2.135 . S
O48 Co47 2.061 . S
O48 C51 1.235 . S
C49 O52 1.238 . S
C49 O53 1.241 . S
C50 O43 1.247 . S
C50 O44 1.261 . S
C51 O46 1.259 . S
C51 O48 1.235 . S
O52 Co42 2.021 . S
O52 C49 1.238 . S
O53 Co47 2.052 . S
O53 C49 1.241 . S
O54 Co42 2.137 . S
O54 C45 1.247 . S
O55 Co42 2.244 . S
O55 C45 1.272 . S
O55 Co47 2.135 . S
Co56 O57 2.216 . S
Co56 O58 2.091 . S
Co56 O60 2.004 . S
Co56 O66 2.021 . S
Co56 O68 2.137 . S
Co56 O69 2.244 . S
O57 Co56 2.216 . S
O57 C64 1.247 . S
O58 Co56 2.091 . S
O58 C64 1.261 . S
C59 O68 1.247 . S
C59 O69 1.272 . S
O60 Co56 2.004 . S
O60 C65 1.259 . S
Co61 O62 2.061 . S
Co61 O67 2.052 . S
Co61 O69 2.135 . S
O62 Co61 2.061 . S
O62 C65 1.235 . S
C63 O66 1.238 . S
C63 O67 1.241 . S
C64 O57 1.247 . S
C64 O58 1.261 . S
C65 O60 1.259 . S
C65 O62 1.235 . S
O66 Co56 2.021 . S
O66 C63 1.238 . S
O67 Co61 2.052 . S
O67 C63 1.241 . S
O68 Co56 2.137 . S
O68 C59 1.247 . S
O69 Co56 2.244 . S
O69 C59 1.272 . S
O69 Co61 2.135 . S
Co70 O71 2.216 . S
Co70 O72 2.091 . S
Co70 O74 2.004 . S
Co70 O80 2.021 . S
Co70 O82 2.137 . S
Co70 O83 2.244 . S
O71 Co70 2.216 . S
O71 C78 1.247 . S
O72 Co70 2.091 . S
O72 C78 1.261 . S
C73 O82 1.247 . S
C73 O83 1.272 . S
O74 Co70 2.004 . S
O74 C79 1.259 . S
Co75 O76 2.061 . S
Co75 O81 2.052 . S
Co75 O83 2.135 . S
O76 Co75 2.061 . S
O76 C79 1.235 . S
C77 O80 1.238 . S
C77 O81 1.241 . S
C78 O71 1.247 . S
C78 O72 1.261 . S
C79 O74 1.259 . S
C79 O76 1.235 . S
O80 Co70 2.021 . S
O80 C77 1.238 . S
O81 Co75 2.052 . S
O81 C77 1.241 . S
O82 Co70 2.137 . S
O82 C73 1.247 . S
O83 Co70 2.244 . S
O83 C73 1.272 . S
O83 Co75 2.135 . S
Co84 O85 2.216 . S
Co84 O86 2.091 . S
Co84 O88 2.004 . S
Co84 O94 2.021 . S
Co84 O96 2.137 . S
Co84 O97 2.244 . S
O85 Co84 2.216 . S
O85 C92 1.247 . S
O86 Co84 2.091 . S
O86 C92 1.261 . S
C87 O96 1.247 . S
C87 O97 1.272 . S
O88 Co84 2.004 . S
O88 C93 1.259 . S
Co89 O90 2.061 . S
Co89 O95 2.052 . S
Co89 O97 2.135 . S
O90 Co89 2.061 . S
O90 C93 1.235 . S
C91 O94 1.238 . S
C91 O95 1.241 . S
C92 O85 1.247 . S
C92 O86 1.261 . S
C93 O88 1.259 . S
C93 O90 1.235 . S
O94 Co84 2.021 . S
O94 C91 1.238 . S
O95 Co89 2.052 . S
O95 C91 1.241 . S
O96 Co84 2.137 . S
O96 C87 1.247 . S
O97 Co84 2.244 . S
O97 C87 1.272 . S
O97 Co89 2.135 . S
Co98 O99 2.216 . S
Co98 O100 2.091 . S
Co98 O102 2.004 . S
Co98 O108 2.021 . S
Co98 O110 2.137 . S
Co98 O111 2.244 . S
O99 Co98 2.216 . S
O99 C106 1.247 . S
O100 Co98 2.091 . S
O100 C106 1.261 . S
C101 O110 1.247 . S
C101 O111 1.272 . S
O102 Co98 2.004 . S
O102 C107 1.259 . S
Co103 O104 2.061 . S
Co103 O109 2.052 . S
Co103 O111 2.135 . S
O104 Co103 2.061 . S
O104 C107 1.235 . S
C105 O108 1.238 . S
C105 O109 1.241 . S
C106 O99 1.247 . S
C106 O100 1.261 . S
C107 O102 1.259 . S
C107 O104 1.235 . S
O108 Co98 2.021 . S
O108 C105 1.238 . S
O109 Co103 2.052 . S
O109 C105 1.241 . S
O110 Co98 2.137 . S
O110 C101 1.247 . S
O111 Co98 2.244 . S
O111 C101 1.272 . S
O111 Co103 2.135 . S
Co112 O113 2.216 . S
Co112 O114 2.091 . S
Co112 O116 2.004 . S
Co112 O122 2.021 . S
Co112 O124 2.137 . S
Co112 O125 2.244 . S
O113 Co112 2.216 . S
O113 C120 1.247 . S
O114 Co112 2.091 . S
O114 C120 1.261 . S
C115 O124 1.247 . S
C115 O125 1.272 . S
O116 Co112 2.004 . S
O116 C121 1.259 . S
Co117 O118 2.061 . S
Co117 O123 2.052 . S
Co117 O125 2.135 . S
O118 Co117 2.061 . S
O118 C121 1.235 . S
C119 O122 1.238 . S
C119 O123 1.241 . S
C120 O113 1.247 . S
C120 O114 1.261 . S
C121 O116 1.259 . S
C121 O118 1.235 . S
O122 Co112 2.021 . S
O122 C119 1.238 . S
O123 Co117 2.052 . S
O123 C119 1.241 . S
O124 Co112 2.137 . S
O124 C115 1.247 . S
O125 Co112 2.244 . S
O125 C115 1.272 . S
O125 Co117 2.135 . S
Co126 O127 2.216 . S
Co126 O128 2.091 . S
Co126 O130 2.004 . S
Co126 O136 2.021 . S
Co126 O138 2.137 . S
Co126 O139 2.244 . S
O127 Co126 2.216 . S
O127 C134 1.247 . S
O128 Co126 2.091 . S
O128 C134 1.261 . S
C129 O138 1.247 . S
C129 O139 1.272 . S
O130 Co126 2.004 . S
O130 C135 1.259 . S
Co131 O132 2.061 . S
Co131 O137 2.052 . S
Co131 O139 2.135 . S
O132 Co131 2.061 . S
O132 C135 1.235 . S
C133 O136 1.238 . S
C133 O137 1.241 . S
C134 O127 1.247 . S
C134 O128 1.261 . S
C135 O130 1.259 . S
C135 O132 1.235 . S
O136 Co126 2.021 . S
O136 C133 1.238 . S
O137 Co131 2.052 . S
O137 C133 1.241 . S
O138 Co126 2.137 . S
O138 C129 1.247 . S
O139 Co126 2.244 . S
O139 C129 1.272 . S
O139 Co131 2.135 . S
Co140 O141 2.216 . S
Co140 O142 2.091 . S
Co140 O144 2.004 . S
Co140 O150 2.021 . S
Co140 O152 2.137 . S
Co140 O153 2.244 . S
O141 Co140 2.216 . S
O141 C148 1.247 . S
O142 Co140 2.091 . S
O142 C148 1.261 . S
C143 O152 1.247 . S
C143 O153 1.272 . S
O144 Co140 2.004 . S
O144 C149 1.259 . S
Co145 O146 2.061 . S
Co145 O151 2.052 . S
Co145 O153 2.135 . S
O146 Co145 2.061 . S
O146 C149 1.235 . S
C147 O150 1.238 . S
C147 O151 1.241 . S
C148 O141 1.247 . S
C148 O142 1.261 . S
C149 O144 1.259 . S
C149 O146 1.235 . S
O150 Co140 2.021 . S
O150 C147 1.238 . S
O151 Co145 2.052 . S
O151 C147 1.241 . S
O152 Co140 2.137 . S
O152 C143 1.247 . S
O153 Co140 2.244 . S
O153 C143 1.272 . S
O153 Co145 2.135 . S
Co154 O155 2.216 . S
Co154 O156 2.091 . S
Co154 O158 2.004 . S
Co154 O164 2.021 . S
Co154 O166 2.137 . S
Co154 O167 2.244 . S
O155 Co154 2.216 . S
O155 C162 1.247 . S
O156 Co154 2.091 . S
O156 C162 1.261 . S
C157 O166 1.247 . S
C157 O167 1.272 . S
O158 Co154 2.004 . S
O158 C163 1.259 . S
Co159 O160 2.061 . S
Co159 O165 2.052 . S
Co159 O167 2.135 . S
O160 Co159 2.061 . S
O160 C163 1.235 . S
C161 O164 1.238 . S
C161 O165 1.241 . S
C162 O155 1.247 . S
C162 O156 1.261 . S
C163 O158 1.259 . S
C163 O160 1.235 . S
O164 Co154 2.021 . S
O164 C161 1.238 . S
O165 Co159 2.052 . S
O165 C161 1.241 . S
O166 Co154 2.137 . S
O166 C157 1.247 . S
O167 Co154 2.244 . S
O167 C157 1.272 . S
O167 Co159 2.135 . S
Co168 O169 2.216 . S
Co168 O170 2.091 . S
Co168 O172 2.004 . S
Co168 O178 2.021 . S
Co168 O180 2.137 . S
Co168 O181 2.244 . S
O169 Co168 2.216 . S
O169 C176 1.247 . S
O170 Co168 2.091 . S
O170 C176 1.261 . S
C171 O180 1.247 . S
C171 O181 1.272 . S
O172 Co168 2.004 . S
O172 C177 1.259 . S
Co173 O174 2.061 . S
Co173 O179 2.052 . S
Co173 O181 2.135 . S
O174 Co173 2.061 . S
O174 C177 1.235 . S
C175 O178 1.238 . S
C175 O179 1.241 . S
C176 O169 1.247 . S
C176 O170 1.261 . S
C177 O172 1.259 . S
C177 O174 1.235 . S
O178 Co168 2.021 . S
O178 C175 1.238 . S
O179 Co173 2.052 . S
O179 C175 1.241 . S
O180 Co168 2.137 . S
O180 C171 1.247 . S
O181 Co168 2.244 . S
O181 C171 1.272 . S
O181 Co173 2.135 . S
Co182 O183 2.216 . S
Co182 O184 2.091 . S
Co182 O186 2.004 . S
Co182 O192 2.021 . S
Co182 O194 2.137 . S
Co182 O195 2.244 . S
O183 Co182 2.216 . S
O183 C190 1.247 . S
O184 Co182 2.091 . S
O184 C190 1.261 . S
C185 O194 1.247 . S
C185 O195 1.272 . S
O186 Co182 2.004 . S
O186 C191 1.259 . S
Co187 O188 2.061 . S
Co187 O193 2.052 . S
Co187 O195 2.135 . S
O188 Co187 2.061 . S
O188 C191 1.235 . S
C189 O192 1.238 . S
C189 O193 1.241 . S
C190 O183 1.247 . S
C190 O184 1.261 . S
C191 O186 1.259 . S
C191 O188 1.235 . S
O192 Co182 2.021 . S
O192 C189 1.238 . S
O193 Co187 2.052 . S
O193 C189 1.241 . S
O194 Co182 2.137 . S
O194 C185 1.247 . S
O195 Co182 2.244 . S
O195 C185 1.272 . S
O195 Co187 2.135 . S
Co196 O197 2.216 . S
Co196 O198 2.091 . S
Co196 O200 2.004 . S
Co196 O206 2.021 . S
Co196 O208 2.137 . S
Co196 O209 2.244 . S
O197 Co196 2.216 . S
O197 C204 1.247 . S
O198 Co196 2.091 . S
O198 C204 1.261 . S
C199 O208 1.247 . S
C199 O209 1.272 . S
O200 Co196 2.004 . S
O200 C205 1.259 . S
Co201 O202 2.061 . S
Co201 O207 2.052 . S
Co201 O209 2.135 . S
O202 Co201 2.061 . S
O202 C205 1.235 . S
C203 O206 1.238 . S
C203 O207 1.241 . S
C204 O197 1.247 . S
C204 O198 1.261 . S
C205 O200 1.259 . S
C205 O202 1.235 . S
O206 Co196 2.021 . S
O206 C203 1.238 . S
O207 Co201 2.052 . S
O207 C203 1.241 . S
O208 Co196 2.137 . S
O208 C199 1.247 . S
O209 Co196 2.244 . S
O209 C199 1.272 . S
O209 Co201 2.135 . S
Co210 O211 2.216 . S
Co210 O212 2.091 . S
Co210 O214 2.004 . S
Co210 O220 2.021 . S
Co210 O222 2.137 . S
Co210 O223 2.244 . S
O211 Co210 2.216 . S
O211 C218 1.247 . S
O212 Co210 2.091 . S
O212 C218 1.261 . S
C213 O222 1.247 . S
C213 O223 1.272 . S
O214 Co210 2.004 . S
O214 C219 1.259 . S
Co215 O216 2.061 . S
Co215 O221 2.052 . S
Co215 O223 2.135 . S
O216 Co215 2.061 . S
O216 C219 1.235 . S
C217 O220 1.238 . S
C217 O221 1.241 . S
C218 O211 1.247 . S
C218 O212 1.261 . S
C219 O214 1.259 . S
C219 O216 1.235 . S
O220 Co210 2.021 . S
O220 C217 1.238 . S
O221 Co215 2.052 . S
O221 C217 1.241 . S
O222 Co210 2.137 . S
O222 C213 1.247 . S
O223 Co210 2.244 . S
O223 C213 1.272 . S
O223 Co215 2.135 . S
C224 C225 1.363 . S
C224 C230 1.379 . S
C224 N232 1.356 . S
C225 C224 1.363 . S
C225 C231 1.363 . S
C226 C227 1.363 . S
C226 C231 1.379 . S
C226 N233 1.356 . S
C227 C226 1.363 . S
C227 C230 1.363 . S
N228 C230 1.356 . S
N228 H240 0.984 . S
N228 H241 0.985 . S
N229 C231 1.356 . S
N229 H234 0.984 . S
N229 H235 0.985 . S
C230 C224 1.379 . S
C230 C227 1.363 . S
C230 N228 1.356 . S
C231 C225 1.363 . S
C231 C226 1.379 . S
C231 N229 1.356 . S
N232 C224 1.356 . S
N232 H238 0.984 . S
N232 H239 0.984 . S
N233 C226 1.356 . S
N233 H236 0.984 . S
N233 H237 0.985 . S
H234 N229 0.984 . S
H235 N229 0.985 . S
H236 N233 0.984 . S
H237 N233 0.985 . S
H238 N232 0.984 . S
H239 N232 0.984 . S
H240 N228 0.984 . S
H241 N228 0.985 . S
C242 C243 1.363 . S
C242 C248 1.379 . S
C242 N250 1.356 . S
C243 C242 1.363 . S
C243 C249 1.363 . S
C244 C245 1.363 . S
C244 C249 1.379 . S
C244 N251 1.356 . S
C245 C244 1.363 . S
C245 C248 1.363 . S
N246 C248 1.356 . S
N246 H258 0.984 . S
N246 H259 0.985 . S
N247 C249 1.356 . S
N247 H252 0.984 . S
N247 H253 0.985 . S
C248 C242 1.379 . S
C248 C245 1.363 . S
C248 N246 1.356 . S
C249 C243 1.363 . S
C249 C244 1.379 . S
C249 N247 1.356 . S
N250 C242 1.356 . S
N250 H256 0.984 . S
N250 H257 0.984 . S
N251 C244 1.356 . S
N251 H254 0.984 . S
N251 H255 0.985 . S
H252 N247 0.984 . S
H253 N247 0.985 . S
H254 N251 0.984 . S
H255 N251 0.985 . S
H256 N250 0.984 . S
H257 N250 0.984 . S
H258 N246 0.984 . S
H259 N246 0.985 . S
C260 C261 1.363 . S
C260 C266 1.379 . S
C260 N268 1.356 . S
C261 C260 1.363 . S
C261 C267 1.363 . S
C262 C263 1.363 . S
C262 C267 1.379 . S
C262 N269 1.356 . S
C263 C262 1.363 . S
C263 C266 1.363 . S
N264 C266 1.356 . S
N264 H276 0.984 . S
N264 H277 0.985 . S
N265 C267 1.356 . S
N265 H270 0.984 . S
N265 H271 0.985 . S
C266 C260 1.379 . S
C266 C263 1.363 . S
C266 N264 1.356 . S
C267 C261 1.363 . S
C267 C262 1.379 . S
C267 N265 1.356 . S
N268 C260 1.356 . S
N268 H274 0.984 . S
N268 H275 0.984 . S
N269 C262 1.356 . S
N269 H272 0.984 . S
N269 H273 0.985 . S
H270 N265 0.984 . S
H271 N265 0.985 . S
H272 N269 0.984 . S
H273 N269 0.985 . S
H274 N268 0.984 . S
H275 N268 0.984 . S
H276 N264 0.984 . S
H277 N264 0.985 . S
C278 C279 1.363 . S
C278 C284 1.379 . S
C278 N286 1.356 . S
C279 C278 1.363 . S
C279 C285 1.363 . S
C280 C281 1.363 . S
C280 C285 1.379 . S
C280 N287 1.356 . S
C281 C280 1.363 . S
C281 C284 1.363 . S
N282 C284 1.356 . S
N282 H294 0.984 . S
N282 H295 0.985 . S
N283 C285 1.356 . S
N283 H288 0.984 . S
N283 H289 0.985 . S
C284 C278 1.379 . S
C284 C281 1.363 . S
C284 N282 1.356 . S
C285 C279 1.363 . S
C285 C280 1.379 . S
C285 N283 1.356 . S
N286 C278 1.356 . S
N286 H292 0.984 . S
N286 H293 0.984 . S
N287 C280 1.356 . S
N287 H290 0.984 . S
N287 H291 0.985 . S
H288 N283 0.984 . S
H289 N283 0.985 . S
H290 N287 0.984 . S
H291 N287 0.985 . S
H292 N286 0.984 . S
H293 N286 0.984 . S
H294 N282 0.984 . S
H295 N282 0.985 . S
C296 C297 1.363 . S
C296 C302 1.379 . S
C296 N304 1.356 . S
C297 C296 1.363 . S
C297 C303 1.363 . S
C298 C299 1.363 . S
C298 C303 1.379 . S
C298 N305 1.356 . S
C299 C298 1.363 . S
C299 C302 1.363 . S
N300 C302 1.356 . S
N300 H312 0.984 . S
N300 H313 0.985 . S
N301 C303 1.356 . S
N301 H306 0.984 . S
N301 H307 0.985 . S
C302 C296 1.379 . S
C302 C299 1.363 . S
C302 N300 1.356 . S
C303 C297 1.363 . S
C303 C298 1.379 . S
C303 N301 1.356 . S
N304 C296 1.356 . S
N304 H310 0.984 . S
N304 H311 0.984 . S
N305 C298 1.356 . S
N305 H308 0.984 . S
N305 H309 0.985 . S
H306 N301 0.984 . S
H307 N301 0.985 . S
H308 N305 0.984 . S
H309 N305 0.985 . S
H310 N304 0.984 . S
H311 N304 0.984 . S
H312 N300 0.984 . S
H313 N300 0.985 . S
C314 C315 1.363 . S
C314 C320 1.379 . S
C314 N322 1.356 . S
C315 C314 1.363 . S
C315 C321 1.363 . S
C316 C317 1.363 . S
C316 C321 1.379 . S
C316 N323 1.356 . S
C317 C316 1.363 . S
C317 C320 1.363 . S
N318 C320 1.356 . S
N318 H330 0.984 . S
N318 H331 0.985 . S
N319 C321 1.356 . S
N319 H324 0.984 . S
N319 H325 0.985 . S
C320 C314 1.379 . S
C320 C317 1.363 . S
C320 N318 1.356 . S
C321 C315 1.363 . S
C321 C316 1.379 . S
C321 N319 1.356 . S
N322 C314 1.356 . S
N322 H328 0.984 . S
N322 H329 0.984 . S
N323 C316 1.356 . S
N323 H326 0.984 . S
N323 H327 0.985 . S
H324 N319 0.984 . S
H325 N319 0.985 . S
H326 N323 0.984 . S
H327 N323 0.985 . S
H328 N322 0.984 . S
H329 N322 0.984 . S
H330 N318 0.984 . S
H331 N318 0.985 . S
C332 C333 1.363 . S
C332 C338 1.379 . S
C332 N340 1.356 . S
C333 C332 1.363 . S
C333 C339 1.363 . S
C334 C335 1.363 . S
C334 C339 1.379 . S
C334 N341 1.356 . S
C335 C334 1.363 . S
C335 C338 1.363 . S
N336 C338 1.356 . S
N336 H348 0.984 . S
N336 H349 0.985 . S
N337 C339 1.356 . S
N337 H342 0.984 . S
N337 H343 0.985 . S
C338 C332 1.379 . S
C338 C335 1.363 . S
C338 N336 1.356 . S
C339 C333 1.363 . S
C339 C334 1.379 . S
C339 N337 1.356 . S
N340 C332 1.356 . S
N340 H346 0.984 . S
N340 H347 0.984 . S
N341 C334 1.356 . S
N341 H344 0.984 . S
N341 H345 0.985 . S
H342 N337 0.984 . S
H343 N337 0.985 . S
H344 N341 0.984 . S
H345 N341 0.985 . S
H346 N340 0.984 . S
H347 N340 0.984 . S
H348 N336 0.984 . S
H349 N336 0.985 . S
C350 C351 1.363 . S
C350 C356 1.379 . S
C350 N358 1.356 . S
C351 C350 1.363 . S
C351 C357 1.363 . S
C352 C353 1.363 . S
C352 C357 1.379 . S
C352 N359 1.356 . S
C353 C352 1.363 . S
C353 C356 1.363 . S
N354 C356 1.356 . S
N354 H366 0.984 . S
N354 H367 0.985 . S
N355 C357 1.356 . S
N355 H360 0.984 . S
N355 H361 0.985 . S
C356 C350 1.379 . S
C356 C353 1.363 . S
C356 N354 1.356 . S
C357 C351 1.363 . S
C357 C352 1.379 . S
C357 N355 1.356 . S
N358 C350 1.356 . S
N358 H364 0.984 . S
N358 H365 0.984 . S
N359 C352 1.356 . S
N359 H362 0.984 . S
N359 H363 0.985 . S
H360 N355 0.984 . S
H361 N355 0.985 . S
H362 N359 0.984 . S
H363 N359 0.985 . S
H364 N358 0.984 . S
H365 N358 0.984 . S
H366 N354 0.984 . S
H367 N354 0.985 . S
C368 C369 1.363 . S
C368 C374 1.379 1_565 S
C368 N376 1.356 . S
C369 C368 1.363 . S
C369 C375 1.363 . S
C370 C371 1.363 . S
C370 C375 1.379 1_545 S
C370 N377 1.356 . S
C371 C370 1.363 . S
C371 C374 1.363 . S
N372 C374 1.356 . S
N372 H384 0.984 . S
N372 H385 0.985 . S
N373 C375 1.356 . S
N373 H378 0.984 . S
N373 H379 0.985 . S
C374 C368 1.379 1_545 S
C374 C371 1.363 . S
C374 N372 1.356 . S
C375 C369 1.363 . S
C375 C370 1.379 1_565 S
C375 N373 1.356 . S
N376 C368 1.356 . S
N376 H382 0.984 . S
N376 H383 0.984 . S
N377 C370 1.356 . S
N377 H380 0.984 . S
N377 H381 0.985 . S
H378 N373 0.984 . S
H379 N373 0.985 . S
H380 N377 0.984 . S
H381 N377 0.985 . S
H382 N376 0.984 . S
H383 N376 0.984 . S
H384 N372 0.984 . S
H385 N372 0.985 . S
C386 C387 1.363 . S
C386 C392 1.379 . S
C386 N394 1.356 . S
C387 C386 1.363 . S
C387 C393 1.363 . S
C388 C389 1.363 . S
C388 C393 1.379 . S
C388 N395 1.356 . S
C389 C388 1.363 . S
C389 C392 1.363 . S
N390 C392 1.356 . S
N390 H402 0.984 . S
N390 H403 0.985 . S
N391 C393 1.356 . S
N391 H396 0.984 . S
N391 H397 0.985 . S
C392 C386 1.379 . S
C392 C389 1.363 . S
C392 N390 1.356 . S
C393 C387 1.363 . S
C393 C388 1.379 . S
C393 N391 1.356 . S
N394 C386 1.356 . S
N394 H400 0.984 . S
N394 H401 0.984 . S
N395 C388 1.356 . S
N395 H398 0.984 . S
N395 H399 0.985 . S
H396 N391 0.984 . S
H397 N391 0.985 . S
H398 N395 0.984 . S
H399 N395 0.985 . S
H400 N394 0.984 . S
H401 N394 0.984 . S
H402 N390 0.984 . S
H403 N390 0.985 . S
C404 C405 1.363 . S
C404 C410 1.379 . S
C404 N412 1.356 . S
C405 C404 1.363 . S
C405 C411 1.363 . S
C406 C407 1.363 1_556 S
C406 C411 1.379 . S
C406 N413 1.356 1_556 S
C407 C406 1.363 1_554 S
C407 C410 1.363 1_554 S
N408 C410 1.356 1_554 S
N408 H420 0.984 . S
N408 H421 0.985 . S
N409 C411 1.356 . S
N409 H414 0.984 . S
N409 H415 0.985 . S
C410 C404 1.379 . S
C410 C407 1.363 1_556 S
C410 N408 1.356 1_556 S
C411 C405 1.363 . S
C411 C406 1.379 . S
C411 N409 1.356 . S
N412 C404 1.356 . S
N412 H418 0.984 . S
N412 H419 0.984 . S
N413 C406 1.356 1_554 S
N413 H416 0.984 . S
N413 H417 0.985 . S
H414 N409 0.984 . S
H415 N409 0.985 . S
H416 N413 0.984 . S
H417 N413 0.985 . S
H418 N412 0.984 . S
H419 N412 0.984 . S
H420 N408 0.984 . S
H421 N408 0.985 . S
C422 C423 1.363 1_556 S
C422 C428 1.379 . S
C422 N430 1.356 . S
C423 C422 1.363 1_554 S
C423 C429 1.363 . S
C424 C425 1.363 . S
C424 C429 1.379 1_556 S
C424 N431 1.356 . S
C425 C424 1.363 . S
C425 C428 1.363 . S
N426 C428 1.356 . S
N426 H438 0.984 . S
N426 H439 0.985 . S
N427 C429 1.356 . S
N427 H432 0.984 . S
N427 H433 0.985 . S
C428 C422 1.379 . S
C428 C425 1.363 . S
C428 N426 1.356 . S
C429 C423 1.363 . S
C429 C424 1.379 1_554 S
C429 N427 1.356 . S
N430 C422 1.356 . S
N430 H436 0.984 . S
N430 H437 0.984 1_556 S
N431 C424 1.356 . S
N431 H434 0.984 . S
N431 H435 0.985 . S
H432 N427 0.984 . S
H433 N427 0.985 . S
H434 N431 0.984 . S
H435 N431 0.985 . S
H436 N430 0.984 . S
H437 N430 0.984 1_554 S
H438 N426 0.984 . S
H439 N426 0.985 . S
C440 C441 1.363 . S
C440 C446 1.379 . S
C440 N448 1.356 . S
C441 C440 1.363 . S
C441 C447 1.363 . S
C442 C443 1.363 . S
C442 C447 1.379 . S
C442 N449 1.356 . S
C443 C442 1.363 . S
C443 C446 1.363 . S
N444 C446 1.356 . S
N444 H456 0.984 . S
N444 H457 0.985 . S
N445 C447 1.356 . S
N445 H450 0.984 . S
N445 H451 0.985 . S
C446 C440 1.379 . S
C446 C443 1.363 . S
C446 N444 1.356 . S
C447 C441 1.363 . S
C447 C442 1.379 . S
C447 N445 1.356 . S
N448 C440 1.356 . S
N448 H454 0.984 . S
N448 H455 0.984 . S
N449 C442 1.356 . S
N449 H452 0.984 . S
N449 H453 0.985 . S
H450 N445 0.984 . S
H451 N445 0.985 . S
H452 N449 0.984 . S
H453 N449 0.985 . S
H454 N448 0.984 . S
H455 N448 0.984 . S
H456 N444 0.984 . S
H457 N444 0.985 . S
C458 C459 1.363 . S
C458 C464 1.379 . S
C458 N466 1.356 . S
C459 C458 1.363 . S
C459 C465 1.363 . S
C460 C461 1.363 . S
C460 C465 1.379 . S
C460 N467 1.356 . S
C461 C460 1.363 . S
C461 C464 1.363 . S
N462 C464 1.356 . S
N462 H474 0.984 . S
N462 H475 0.985 . S
N463 C465 1.356 . S
N463 H468 0.984 . S
N463 H469 0.985 . S
C464 C458 1.379 . S
C464 C461 1.363 . S
C464 N462 1.356 . S
C465 C459 1.363 . S
C465 C460 1.379 . S
C465 N463 1.356 . S
N466 C458 1.356 . S
N466 H472 0.984 . S
N466 H473 0.984 . S
N467 C460 1.356 . S
N467 H470 0.984 . S
N467 H471 0.985 . S
H468 N463 0.984 . S
H469 N463 0.985 . S
H470 N467 0.984 . S
H471 N467 0.985 . S
H472 N466 0.984 . S
H473 N466 0.984 . S
H474 N462 0.984 . S
H475 N462 0.985 . S
C476 C477 1.375 . S
C476 C482 1.367 1_655 S
C476 N484 1.361 . S
C477 C476 1.375 . S
C477 C483 1.363 . S
C478 C479 1.363 1_655 S
C478 C483 1.379 . S
C478 N485 1.356 . S
C479 C478 1.363 1_455 S
C479 C482 1.363 . S
N480 C482 1.356 . S
N480 H492 0.984 . S
N480 H493 0.985 . S
N481 C483 1.356 . S
N481 H486 0.984 . S
N481 H487 0.985 . S
C482 C476 1.367 1_455 S
C482 C479 1.363 . S
C482 N480 1.356 . S
C483 C477 1.363 . S
C483 C478 1.379 . S
C483 N481 1.356 . S
N484 C476 1.361 . S
N484 H490 0.984 1_655 S
N484 H491 0.984 . S
N485 C478 1.356 . S
N485 H488 0.984 1_655 S
N485 H489 0.985 . S
H486 N481 0.984 . S
H487 N481 0.985 . S
H488 N485 0.984 1_455 S
H489 N485 0.985 . S
H490 N484 0.984 1_455 S
H491 N484 0.984 . S
H492 N480 0.984 . S
H493 N480 0.985 . S
C494 C495 1.363 . S
C494 C500 1.379 1_655 S
C494 N502 1.356 . S
C495 C494 1.363 . S
C495 C501 1.363 1_655 S
C496 C497 1.363 . S
C496 C501 1.379 . S
C496 N503 1.356 . S
C497 C496 1.363 . S
C497 C500 1.363 . S
N498 C500 1.356 . S
N498 H510 0.984 . S
N498 H511 0.985 . S
N499 C501 1.356 1_655 S
N499 H504 0.984 . S
N499 H505 0.985 1_655 S
C500 C494 1.379 1_455 S
C500 C497 1.363 . S
C500 N498 1.356 . S
C501 C495 1.363 1_455 S
C501 C496 1.379 . S
C501 N499 1.356 1_455 S
N502 C494 1.356 . S
N502 H508 0.984 . S
N502 H509 0.984 . S
N503 C496 1.356 . S
N503 H506 0.984 . S
N503 H507 0.985 . S
H504 N499 0.984 . S
H505 N499 0.985 1_455 S
H506 N503 0.984 . S
H507 N503 0.985 . S
H508 N502 0.984 . S
H509 N502 0.984 . S
H510 N498 0.984 . S
H511 N498 0.985 . S
C512 C513 1.363 . S
C512 C518 1.379 . S
C512 N520 1.356 . S
C513 C512 1.363 . S
C513 C519 1.363 . S
C514 C515 1.363 . S
C514 C519 1.379 . S
C514 N521 1.356 . S
C515 C514 1.363 . S
C515 C518 1.363 . S
N516 C518 1.356 . S
N516 H528 0.984 . S
N516 H529 0.985 . S
N517 C519 1.356 . S
N517 H522 0.984 . S
N517 H523 0.985 . S
C518 C512 1.379 . S
C518 C515 1.363 . S
C518 N516 1.356 . S
C519 C513 1.363 . S
C519 C514 1.379 . S
C519 N517 1.356 . S
N520 C512 1.356 . S
N520 H526 0.984 . S
N520 H527 0.984 . S
N521 C514 1.356 . S
N521 H524 0.984 . S
N521 H525 0.985 . S
H522 N517 0.984 . S
H523 N517 0.985 . S
H524 N521 0.984 . S
H525 N521 0.985 . S
H526 N520 0.984 . S
H527 N520 0.984 . S
H528 N516 0.984 . S
H529 N516 0.985 . S
C530 C531 1.363 . S
C530 C536 1.379 1_545 S
C530 N538 1.356 . S
C531 C530 1.363 . S
C531 C537 1.363 . S
C532 C533 1.363 1_545 S
C532 C537 1.379 . S
C532 N539 1.356 . S
C533 C532 1.363 1_565 S
C533 C536 1.363 . S
N534 C536 1.356 . S
N534 H546 0.984 . S
N534 H547 0.985 . S
N535 C537 1.356 . S
N535 H540 0.984 . S
N535 H541 0.985 . S
C536 C530 1.379 1_565 S
C536 C533 1.363 . S
C536 N534 1.356 . S
C537 C531 1.363 . S
C537 C532 1.379 . S
C537 N535 1.356 . S
N538 C530 1.356 . S
N538 H544 0.984 1_545 S
N538 H545 0.984 . S
N539 C532 1.356 . S
N539 H542 0.984 1_545 S
N539 H543 0.985 . S
H540 N535 0.984 . S
H541 N535 0.985 . S
H542 N539 0.984 1_565 S
H543 N539 0.985 . S
H544 N538 0.984 1_565 S
H545 N538 0.984 . S
H546 N534 0.984 . S
H547 N534 0.985 . S
C548 C549 1.363 . S
C548 C554 1.379 . S
C548 N556 1.356 . S
C549 C548 1.363 . S
C549 C555 1.363 . S
C550 C551 1.363 . S
C550 C555 1.379 . S
C550 N557 1.356 . S
C551 C550 1.363 . S
C551 C554 1.363 . S
N552 C554 1.356 . S
N552 H564 0.984 . S
N552 H565 0.985 . S
N553 C555 1.356 . S
N553 H558 0.984 . S
N553 H559 0.985 . S
C554 C548 1.379 . S
C554 C551 1.363 . S
C554 N552 1.356 . S
C555 C549 1.363 . S
C555 C550 1.379 . S
C555 N553 1.356 . S
N556 C548 1.356 . S
N556 H562 0.984 . S
N556 H563 0.984 . S
N557 C550 1.356 . S
N557 H560 0.984 . S
N557 H561 0.985 . S
H558 N553 0.984 . S
H559 N553 0.985 . S
H560 N557 0.984 . S
H561 N557 0.985 . S
H562 N556 0.984 . S
H563 N556 0.984 . S
H564 N552 0.984 . S
H565 N552 0.985 . S
C566 C567 1.363 . S
C566 C572 1.379 1_554 S
C566 N574 1.356 . S
C567 C566 1.363 . S
C567 C573 1.363 . S
C568 C569 1.363 1_554 S
C568 C573 1.379 . S
C568 N575 1.356 . S
C569 C568 1.363 1_556 S
C569 C572 1.363 . S
N570 C572 1.356 . S
N570 H582 0.984 . S
N570 H583 0.985 . S
N571 C573 1.356 . S
N571 H576 0.984 . S
N571 H577 0.985 . S
C572 C566 1.379 1_556 S
C572 C569 1.363 . S
C572 N570 1.356 . S
C573 C567 1.363 . S
C573 C568 1.379 . S
C573 N571 1.356 . S
N574 C566 1.356 . S
N574 H580 0.984 . S
N574 H581 0.984 . S
N575 C568 1.356 . S
N575 H578 0.984 1_554 S
N575 H579 0.985 . S
H576 N571 0.984 . S
H577 N571 0.985 . S
H578 N575 0.984 1_556 S
H579 N575 0.985 . S
H580 N574 0.984 . S
H581 N574 0.984 . S
H582 N570 0.984 . S
H583 N570 0.985 . S
C584 C585 1.363 . S
C584 C590 1.379 1_556 S
C584 N592 1.356 . S
C585 C584 1.363 . S
C585 C591 1.363 . S
C586 C587 1.363 . S
C586 C591 1.379 1_554 S
C586 N593 1.356 . S
C587 C586 1.363 . S
C587 C590 1.363 . S
N588 C590 1.356 . S
N588 H600 0.984 . S
N588 H601 0.985 . S
N589 C591 1.356 . S
N589 H594 0.984 . S
N589 H595 0.985 . S
C590 C584 1.379 1_554 S
C590 C587 1.363 . S
C590 N588 1.356 . S
C591 C585 1.363 . S
C591 C586 1.379 1_556 S
C591 N589 1.356 . S
N592 C584 1.356 . S
N592 H598 0.984 . S
N592 H599 0.984 . S
N593 C586 1.356 . S
N593 H596 0.984 . S
N593 H597 0.985 . S
H594 N589 0.984 . S
H595 N589 0.985 . S
H596 N593 0.984 . S
H597 N593 0.985 . S
H598 N592 0.984 . S
H599 N592 0.984 . S
H600 N588 0.984 . S
H601 N588 0.985 . S
C602 C603 1.363 . S
C602 C608 1.379 . S
C602 N610 1.356 . S
C603 C602 1.363 . S
C603 C609 1.363 . S
C604 C605 1.363 . S
C604 C609 1.379 . S
C604 N611 1.356 . S
C605 C604 1.363 . S
C605 C608 1.363 . S
N606 C608 1.356 . S
N606 H618 0.984 . S
N606 H619 0.985 . S
N607 C609 1.356 . S
N607 H612 0.984 . S
N607 H613 0.985 . S
C608 C602 1.379 . S
C608 C605 1.363 . S
C608 N606 1.356 . S
C609 C603 1.363 . S
C609 C604 1.379 . S
C609 N607 1.356 . S
N610 C602 1.356 . S
N610 H616 0.984 . S
N610 H617 0.984 . S
N611 C604 1.356 . S
N611 H614 0.984 . S
N611 H615 0.985 . S
H612 N607 0.984 . S
H613 N607 0.985 . S
H614 N611 0.984 . S
H615 N611 0.985 . S
H616 N610 0.984 . S
H617 N610 0.984 . S
H618 N606 0.984 . S
H619 N606 0.985 . S
C620 C621 1.363 . S
C620 C626 1.379 . S
C620 N628 1.356 . S
C621 C620 1.363 . S
C621 C627 1.363 . S
C622 C623 1.363 . S
C622 C627 1.379 . S
C622 N629 1.356 . S
C623 C622 1.363 . S
C623 C626 1.363 . S
N624 C626 1.356 . S
N624 H636 0.984 . S
N624 H637 0.985 . S
N625 C627 1.356 . S
N625 H630 0.984 . S
N625 H631 0.985 . S
C626 C620 1.379 . S
C626 C623 1.363 . S
C626 N624 1.356 . S
C627 C621 1.363 . S
C627 C622 1.379 . S
C627 N625 1.356 . S
N628 C620 1.356 . S
N628 H634 0.984 . S
N628 H635 0.984 . S
N629 C622 1.356 . S
N629 H632 0.984 . S
N629 H633 0.985 . S
H630 N625 0.984 . S
H631 N625 0.985 . S
H632 N629 0.984 . S
H633 N629 0.985 . S
H634 N628 0.984 . S
H635 N628 0.984 . S
H636 N624 0.984 . S
H637 N624 0.985 . S
C638 C639 1.363 . S
C638 C644 1.379 1_455 S
C638 N646 1.356 . S
C639 C638 1.363 . S
C639 C645 1.363 . S
C640 C641 1.363 . S
C640 C645 1.379 1_655 S
C640 N647 1.356 . S
C641 C640 1.363 . S
C641 C644 1.363 . S
N642 C644 1.356 . S
N642 H654 0.984 . S
N642 H655 0.985 . S
N643 C645 1.356 . S
N643 H648 0.984 . S
N643 H649 0.985 . S
C644 C638 1.379 1_655 S
C644 C641 1.363 . S
C644 N642 1.356 . S
C645 C639 1.363 . S
C645 C640 1.379 1_455 S
C645 N643 1.356 . S
N646 C638 1.356 . S
N646 H652 0.984 . S
N646 H653 0.984 . S
N647 C640 1.356 . S
N647 H650 0.984 . S
N647 H651 0.985 . S
H648 N643 0.984 . S
H649 N643 0.985 . S
H650 N647 0.984 . S
H651 N647 0.985 . S
H652 N646 0.984 . S
H653 N646 0.984 . S
H654 N642 0.984 . S
H655 N642 0.985 . S
C656 C657 1.363 . S
C656 C662 1.379 1_455 S
C656 N664 1.356 . S
C657 C656 1.363 . S
C657 C663 1.363 . S
C658 C659 1.363 . S
C658 C663 1.379 1_655 S
C658 N665 1.356 . S
C659 C658 1.363 . S
C659 C662 1.363 . S
N660 C662 1.356 . S
N660 H672 0.984 . S
N660 H673 0.985 . S
N661 C663 1.356 . S
N661 H666 0.984 . S
N661 H667 0.985 . S
C662 C656 1.379 1_655 S
C662 C659 1.363 . S
C662 N660 1.356 . S
C663 C657 1.363 . S
C663 C658 1.379 1_455 S
C663 N661 1.356 . S
N664 C656 1.356 . S
N664 H670 0.984 . S
N664 H671 0.984 . S
N665 C658 1.356 . S
N665 H668 0.984 . S
N665 H669 0.985 . S
H666 N661 0.984 . S
H667 N661 0.985 . S
H668 N665 0.984 . S
H669 N665 0.985 . S
H670 N664 0.984 . S
H671 N664 0.984 . S
H672 N660 0.984 . S
H673 N660 0.985 . S
C674 C675 1.363 . S
C674 C680 1.379 . S
C674 N682 1.356 . S
C675 C674 1.363 . S
C675 C681 1.363 . S
C676 C677 1.363 . S
C676 C681 1.379 . S
C676 N683 1.356 . S
C677 C676 1.363 . S
C677 C680 1.363 . S
N678 C680 1.356 . S
N678 H690 0.984 . S
N678 H691 0.985 . S
N679 C681 1.356 . S
N679 H684 0.984 . S
N679 H685 0.985 . S
C680 C674 1.379 . S
C680 C677 1.363 . S
C680 N678 1.356 . S
C681 C675 1.363 . S
C681 C676 1.379 . S
C681 N679 1.356 . S
N682 C674 1.356 . S
N682 H688 0.984 . S
N682 H689 0.984 . S
N683 C676 1.356 . S
N683 H686 0.984 . S
N683 H687 0.985 . S
H684 N679 0.984 . S
H685 N679 0.985 . S
H686 N683 0.984 . S
H687 N683 0.985 . S
H688 N682 0.984 . S
H689 N682 0.984 . S
H690 N678 0.984 . S
H691 N678 0.985 . S
C692 C693 1.363 . S
C692 C698 1.379 . S
C692 N700 1.356 . S
C693 C692 1.363 . S
C693 C699 1.363 . S
C694 C695 1.363 . S
C694 C699 1.379 . S
C694 N701 1.356 . S
C695 C694 1.363 . S
C695 C698 1.363 . S
N696 C698 1.356 . S
N696 H708 0.984 . S
N696 H709 0.985 . S
N697 C699 1.356 . S
N697 H702 0.984 . S
N697 H703 0.985 . S
C698 C692 1.379 . S
C698 C695 1.363 . S
C698 N696 1.356 . S
C699 C693 1.363 . S
C699 C694 1.379 . S
C699 N697 1.356 . S
N700 C692 1.356 . S
N700 H706 0.984 . S
N700 H707 0.984 . S
N701 C694 1.356 . S
N701 H704 0.984 . S
N701 H705 0.985 . S
H702 N697 0.984 . S
H703 N697 0.985 . S
H704 N701 0.984 . S
H705 N701 0.985 . S
H706 N700 0.984 . S
H707 N700 0.984 . S
H708 N696 0.984 . S
H709 N696 0.985 . S
C710 C711 1.363 1_565 S
C710 C716 1.379 . S
C710 N718 1.356 . S
C711 C710 1.363 1_545 S
C711 C717 1.363 . S
C712 C713 1.363 1_545 S
C712 C717 1.379 . S
C712 N719 1.356 1_545 S
C713 C712 1.363 1_565 S
C713 C716 1.363 . S
N714 C716 1.356 . S
N714 H726 0.984 . S
N714 H727 0.985 . S
N715 C717 1.356 . S
N715 H720 0.984 . S
N715 H721 0.985 . S
C716 C710 1.379 . S
C716 C713 1.363 . S
C716 N714 1.356 . S
C717 C711 1.363 . S
C717 C712 1.379 . S
C717 N715 1.356 . S
N718 C710 1.356 . S
N718 H724 0.984 . S
N718 H725 0.984 1_565 S
N719 C712 1.356 1_565 S
N719 H722 0.984 . S
N719 H723 0.985 1_565 S
H720 N715 0.984 . S
H721 N715 0.985 . S
H722 N719 0.984 . S
H723 N719 0.985 1_545 S
H724 N718 0.984 . S
H725 N718 0.984 1_545 S
H726 N714 0.984 . S
H727 N714 0.985 . S
C728 C729 1.363 . S
C728 C734 1.379 . S
C728 N736 1.356 . S
C729 C728 1.363 . S
C729 C735 1.363 . S
C730 C731 1.363 . S
C730 C735 1.379 . S
C730 N737 1.356 . S
C731 C730 1.363 . S
C731 C734 1.363 . S
N732 C734 1.356 . S
N732 H744 0.984 . S
N732 H745 0.985 . S
N733 C735 1.356 . S
N733 H738 0.984 . S
N733 H739 0.985 . S
C734 C728 1.379 . S
C734 C731 1.363 . S
C734 N732 1.356 . S
C735 C729 1.363 . S
C735 C730 1.379 . S
C735 N733 1.356 . S
N736 C728 1.356 . S
N736 H742 0.984 . S
N736 H743 0.984 . S
N737 C730 1.356 . S
N737 H740 0.984 . S
N737 H741 0.985 . S
H738 N733 0.984 . S
H739 N733 0.985 . S
H740 N737 0.984 . S
H741 N737 0.985 . S
H742 N736 0.984 . S
H743 N736 0.984 . S
H744 N732 0.984 . S
H745 N732 0.985 . S
C746 C747 1.363 . S
C746 C752 1.379 . S
C746 N754 1.356 . S
C747 C746 1.363 . S
C747 C753 1.363 . S
C748 C749 1.363 . S
C748 C753 1.379 . S
C748 N755 1.356 . S
C749 C748 1.363 . S
C749 C752 1.363 . S
N750 C752 1.356 . S
N750 H762 0.984 . S
N750 H763 0.985 . S
N751 C753 1.356 . S
N751 H756 0.984 . S
N751 H757 0.985 . S
C752 C746 1.379 . S
C752 C749 1.363 . S
C752 N750 1.356 . S
C753 C747 1.363 . S
C753 C748 1.379 . S
C753 N751 1.356 . S
N754 C746 1.356 . S
N754 H760 0.984 . S
N754 H761 0.984 . S
N755 C748 1.356 . S
N755 H758 0.984 . S
N755 H759 0.985 . S
H756 N751 0.984 . S
H757 N751 0.985 . S
H758 N755 0.984 . S
H759 N755 0.985 . S
H760 N754 0.984 . S
H761 N754 0.984 . S
H762 N750 0.984 . S
H763 N750 0.985 . S
C764 C765 1.363 1_565 S
C764 C770 1.379 . S
C764 N772 1.356 . S
C765 C764 1.363 1_545 S
C765 C771 1.363 . S
C766 C767 1.384 . S
C766 C771 1.361 1_565 S
C766 N773 1.360 . S
C767 C766 1.384 . S
C767 C770 1.363 . S
N768 C770 1.356 . S
N768 H780 0.984 . S
N768 H781 0.985 . S
N769 C771 1.356 . S
N769 H774 0.984 . S
N769 H775 0.985 . S
C770 C764 1.379 . S
C770 C767 1.363 . S
C770 N768 1.356 . S
C771 C765 1.363 . S
C771 C766 1.361 1_545 S
C771 N769 1.356 . S
N772 C764 1.356 . S
N772 H778 0.984 . S
N772 H779 0.984 1_565 S
N773 C766 1.360 . S
N773 H776 0.984 . S
N773 H777 0.985 1_565 S
H774 N769 0.984 . S
H775 N769 0.985 . S
H776 N773 0.984 . S
H777 N773 0.985 1_545 S
H778 N772 0.984 . S
H779 N772 0.984 1_545 S
H780 N768 0.984 . S
H781 N768 0.985 . S
C782 C783 1.363 . S
C782 C788 1.379 . S
C782 N790 1.356 . S
C783 C782 1.363 . S
C783 C789 1.363 . S
C784 C785 1.363 . S
C784 C789 1.379 . S
C784 N791 1.356 . S
C785 C784 1.363 . S
C785 C788 1.363 . S
N786 C788 1.356 . S
N786 H798 0.984 . S
N786 H799 0.985 . S
N787 C789 1.356 . S
N787 H792 0.984 . S
N787 H793 0.985 . S
C788 C782 1.379 . S
C788 C785 1.363 . S
C788 N786 1.356 . S
C789 C783 1.363 . S
C789 C784 1.379 . S
C789 N787 1.356 . S
N790 C782 1.356 . S
N790 H796 0.984 . S
N790 H797 0.984 . S
N791 C784 1.356 . S
N791 H794 0.984 . S
N791 H795 0.985 . S
H792 N787 0.984 . S
H793 N787 0.985 . S
H794 N791 0.984 . S
H795 N791 0.985 . S
H796 N790 0.984 . S
H797 N790 0.984 . S
H798 N786 0.984 . S
H799 N786 0.985 . S
C225 C7 1.371 . S
C227 C189 1.396 . S
C243 C21 1.445 . S
C245 C133 1.448 . S
C261 C203 0.792 . S
C263 C35 0.778 . S
C279 C49 0.967 . S
C281 C217 0.948 . S
C297 C63 1.445 . S
C299 C91 1.448 . S
C315 C147 1.371 . S
C317 C77 1.396 . S
C333 C161 0.778 . S
C335 C105 0.792 . S
C351 C119 0.948 . S
C353 C175 0.967 . S
C369 C36 1.553 . S
C371 C8 1.585 . S
C387 C22 1.614 . S
C389 C45 1.606 . S
C405 C177 1.531 . S
C407 C3 1.540 . S
C423 C17 1.614 . S
C425 C157 1.603 . S
C441 C59 1.614 . S
C443 C31 1.603 . S
C459 C143 1.540 . S
C461 C51 1.531 . S
C477 C23 1.847 . S
C479 C9 1.843 . S
C495 C50 1.538 . S
C497 C37 1.542 . S
C513 C149 1.843 . S
C515 C65 1.847 . S
C531 C101 1.785 . S
C533 C79 1.769 . S
C549 C93 1.519 . S
C551 C115 1.547 . S
C567 C218 1.780 . S
C569 C73 1.784 . S
C585 C87 1.460 . S
C587 C204 1.449 . S
C603 C129 1.460 . S
C605 C106 1.449 . S
C621 C120 1.780 . S
C623 C185 1.784 . S
C639 C92 1.557 . S
C641 C78 1.550 . S
C657 C121 1.640 . S
C659 C107 1.641 . S
C675 C134 1.557 . S
C677 C190 1.550 . S
C693 C148 1.585 . S
C695 C162 1.553 . S
C711 C171 1.606 . S
C713 C64 1.614 . S
C729 C176 1.538 . S
C731 C163 1.542 . S
C747 C199 1.785 . S
C749 C191 1.769 . S
C765 C135 1.519 . S
C767 C213 1.547 . S
C783 C219 1.640 . S
C785 C205 1.641 . S
