# Generated by pormake.
# Topology neb, (4)-cn, num edge types: 1
# Building blocks:
#     Node 0, Type 0, BuildingBlock: CEKHIL_clean_sbu_0, # of connection points: 4
#     Node 1, Type 0, BuildingBlock: CEKHIL_clean_sbu_0, # of connection points: 4
#     Node 2, Type 0, BuildingBlock: CEKHIL_clean_sbu_0, # of connection points: 4
#     Node 3, Type 0, BuildingBlock: CEKHIL_clean_sbu_0, # of connection points: 4
#     Node 4, Type 0, BuildingBlock: CEKHIL_clean_sbu_0, # of connection points: 4
#     Node 5, Type 0, BuildingBlock: CEKHIL_clean_sbu_0, # of connection points: 4
#     Node 6, Type 0, BuildingBlock: CEKHIL_clean_sbu_0, # of connection points: 4
#     Node 7, Type 0, BuildingBlock: CEKHIL_clean_sbu_0, # of connection points: 4
#     Node 8, Type 0, BuildingBlock: CEKHIL_clean_sbu_0, # of connection points: 4
#     Node 9, Type 0, BuildingBlock: CEKHIL_clean_sbu_0, # of connection points: 4
#     Node 10, Type 0, BuildingBlock: CEKHIL_clean_sbu_0, # of connection points: 4
#     Node 11, Type 0, BuildingBlock: CEKHIL_clean_sbu_0, # of connection points: 4
#     Node 12, Type 0, BuildingBlock: CEKHIL_clean_sbu_0, # of connection points: 4
#     Node 13, Type 0, BuildingBlock: CEKHIL_clean_sbu_0, # of connection points: 4
#     Node 14, Type 0, BuildingBlock: CEKHIL_clean_sbu_0, # of connection points: 4
#     Node 15, Type 0, BuildingBlock: CEKHIL_clean_sbu_0, # of connection points: 4
#     Edge 16, Type (0, 0), BuildingBlock: XUDNAN_clean_linker_2, # of connection points: 2
#     Edge 17, Type (0, 0), BuildingBlock: XUDNAN_clean_linker_2, # of connection points: 2
#     Edge 18, Type (0, 0), BuildingBlock: XUDNAN_clean_linker_2, # of connection points: 2
#     Edge 19, Type (0, 0), BuildingBlock: XUDNAN_clean_linker_2, # of connection points: 2
#     Edge 20, Type (0, 0), BuildingBlock: XUDNAN_clean_linker_2, # of connection points: 2
#     Edge 21, Type (0, 0), BuildingBlock: XUDNAN_clean_linker_2, # of connection points: 2
#     Edge 22, Type (0, 0), BuildingBlock: XUDNAN_clean_linker_2, # of connection points: 2
#     Edge 23, Type (0, 0), BuildingBlock: XUDNAN_clean_linker_2, # of connection points: 2
#     Edge 24, Type (0, 0), BuildingBlock: XUDNAN_clean_linker_2, # of connection points: 2
#     Edge 25, Type (0, 0), BuildingBlock: XUDNAN_clean_linker_2, # of connection points: 2
#     Edge 26, Type (0, 0), BuildingBlock: XUDNAN_clean_linker_2, # of connection points: 2
#     Edge 27, Type (0, 0), BuildingBlock: XUDNAN_clean_linker_2, # of connection points: 2
#     Edge 28, Type (0, 0), BuildingBlock: XUDNAN_clean_linker_2, # of connection points: 2
#     Edge 29, Type (0, 0), BuildingBlock: XUDNAN_clean_linker_2, # of connection points: 2
#     Edge 30, Type (0, 0), BuildingBlock: XUDNAN_clean_linker_2, # of connection points: 2
#     Edge 31, Type (0, 0), BuildingBlock: XUDNAN_clean_linker_2, # of connection points: 2
#     Edge 32, Type (0, 0), BuildingBlock: XUDNAN_clean_linker_2, # of connection points: 2
#     Edge 33, Type (0, 0), BuildingBlock: XUDNAN_clean_linker_2, # of connection points: 2
#     Edge 34, Type (0, 0), BuildingBlock: XUDNAN_clean_linker_2, # of connection points: 2
#     Edge 35, Type (0, 0), BuildingBlock: XUDNAN_clean_linker_2, # of connection points: 2
#     Edge 36, Type (0, 0), BuildingBlock: XUDNAN_clean_linker_2, # of connection points: 2
#     Edge 37, Type (0, 0), BuildingBlock: XUDNAN_clean_linker_2, # of connection points: 2
#     Edge 38, Type (0, 0), BuildingBlock: XUDNAN_clean_linker_2, # of connection points: 2
#     Edge 39, Type (0, 0), BuildingBlock: XUDNAN_clean_linker_2, # of connection points: 2
#     Edge 40, Type (0, 0), BuildingBlock: XUDNAN_clean_linker_2, # of connection points: 2
#     Edge 41, Type (0, 0), BuildingBlock: XUDNAN_clean_linker_2, # of connection points: 2
#     Edge 42, Type (0, 0), BuildingBlock: XUDNAN_clean_linker_2, # of connection points: 2
#     Edge 43, Type (0, 0), BuildingBlock: XUDNAN_clean_linker_2, # of connection points: 2
#     Edge 44, Type (0, 0), BuildingBlock: XUDNAN_clean_linker_2, # of connection points: 2
#     Edge 45, Type (0, 0), BuildingBlock: XUDNAN_clean_linker_2, # of connection points: 2
#     Edge 46, Type (0, 0), BuildingBlock: XUDNAN_clean_linker_2, # of connection points: 2
#     Edge 47, Type (0, 0), BuildingBlock: XUDNAN_clean_linker_2, # of connection points: 2
# Relax obj value: 0.002
# Max RMSD: 0.027
# Mean RMSD: 0.027
data_MOF--net-neb--node1-CEKHIL_clean_sbu_0--edge1-XUDNAN_clean_linker_2
_symmetry_space_group_name_H-M    P1
_symmetry_Int_Tables_number       1
_symmetry_cell_setting            triclinic
loop_
_symmetry_equiv_pos_as_xyz
'x, y, z'
_cell_length_a     41.260375
_cell_length_b     22.524191
_cell_length_c     75.377427
_cell_angle_alpha  89.985838
_cell_angle_beta   92.676618
_cell_angle_gamma 90.006297
loop_
_atom_site_label
_atom_site_type_symbol
_atom_site_fract_x
_atom_site_fract_y
_atom_site_fract_z
_atom_type_partial_charge
Co0 Co 0.12394 0.10203 0.45848 0.0
O1 O 0.11556 0.05422 0.47884 0.0
O2 O 0.07687 0.09245 0.46137 0.0
C3 C 0.16099 0.1611 0.47314 0.0
O4 O 0.12526 0.1562 0.43629 0.0
Co5 Co 0.19226 0.09318 0.44455 0.0
O6 O 0.17805 0.16246 0.43018 0.0
C7 C 0.14586 0.99944 0.43458 0.0
C8 C 0.08484 0.06108 0.47546 0.0
C9 C 0.14855 0.17781 0.4273 0.0
O10 O 0.12461 0.02833 0.44313 0.0
O11 O 0.17543 0.0162 0.43409 0.0
O12 O 0.1301 0.17144 0.47335 0.0
O13 O 0.16866 0.11176 0.46552 0.0
Co14 Co 0.13298 0.12453 0.81481 0.0
O15 O 0.15007 0.07882 0.79551 0.0
O16 O 0.18012 0.12353 0.81645 0.0
C17 C 0.09729 0.17784 0.79733 0.0
O18 O 0.12487 0.17861 0.83625 0.0
Co19 Co 0.06238 0.1127 0.82473 0.0
O20 O 0.07122 0.1832 0.83973 0.0
C21 C 0.10849 0.0216 0.83765 0.0
C22 C 0.17885 0.09245 0.80188 0.0
C23 C 0.10002 0.20009 0.84386 0.0
O24 O 0.13108 0.05042 0.83009 0.0
O25 O 0.07875 0.03785 0.83668 0.0
O26 O 0.1276 0.19277 0.79933 0.0
O27 O 0.08961 0.1282 0.80483 0.0
Co28 Co 0.86465 0.90224 0.56609 0.0
O29 O 0.88275 0.95403 0.54845 0.0
O30 O 0.9117 0.89783 0.56716 0.0
C31 C 0.82597 0.86306 0.5469 0.0
O32 O 0.85524 0.8406 0.58551 0.0
Co33 Co 0.7924 0.91067 0.57607 0.0
O34 O 0.80147 0.83559 0.58893 0.0
C35 C 0.84024 1.00041 0.58982 0.0
C36 C 0.91113 0.93474 0.55385 0.0
C37 C 0.83022 0.81704 0.59249 0.0
O38 O 0.86443 0.97024 0.58416 0.0
O39 O 0.81061 0.98589 0.58635 0.0
O40 O 0.85526 0.84169 0.54746 0.0
O41 O 0.8218 0.90787 0.55709 0.0
Co42 Co 0.88235 0.89647 0.20641 0.0
O43 O 0.86778 0.9538 0.22385 0.0
O44 O 0.83573 0.89889 0.2063 0.0
C45 C 0.92111 0.85511 0.22506 0.0
O46 O 0.88531 0.83065 0.18785 0.0
Co47 Co 0.95089 0.88196 0.19252 0.0
O48 O 0.93556 0.80897 0.18004 0.0
C49 C 0.90878 0.98253 0.17981 0.0
C50 C 0.8384 0.93761 0.21902 0.0
C51 C 0.90519 0.79911 0.17913 0.0
O52 O 0.88383 0.96062 0.18729 0.0
O53 O 0.93719 0.95987 0.18182 0.0
O54 O 0.89101 0.83844 0.22574 0.0
O55 O 0.9266 0.89572 0.21355 0.0
Co56 Co 0.1327 0.62189 0.95495 0.0
O57 O 0.12555 0.57526 0.97568 0.0
O58 O 0.08589 0.61364 0.95894 0.0
C59 C 0.17116 0.68048 0.96867 0.0
O60 O 0.13261 0.67529 0.93257 0.0
Co61 Co 0.20008 0.61236 0.93959 0.0
O62 O 0.18483 0.68112 0.92526 0.0
C63 C 0.15265 0.51872 0.93076 0.0
C64 C 0.09473 0.58332 0.9731 0.0
C65 C 0.1552 0.6965 0.92301 0.0
O66 O 0.13195 0.54761 0.93972 0.0
O67 O 0.18214 0.53545 0.92972 0.0
O68 O 0.14048 0.69182 0.96954 0.0
O69 O 0.17782 0.6308 0.96098 0.0
Co70 Co 0.12631 0.60585 0.31847 0.0
O71 O 0.14311 0.56186 0.29869 0.0
O72 O 0.17342 0.6058 0.31968 0.0
C73 C 0.08971 0.66029 0.30201 0.0
O74 O 0.11865 0.65842 0.34027 0.0
Co75 Co 0.05577 0.59218 0.32896 0.0
O76 O 0.06504 0.66266 0.34395 0.0
C77 C 0.10294 0.50153 0.34114 0.0
C78 C 0.17196 0.57594 0.30488 0.0
C79 C 0.09388 0.67961 0.348 0.0
O80 O 0.12519 0.53086 0.33343 0.0
O81 O 0.07312 0.51734 0.34046 0.0
O82 O 0.1201 0.67514 0.3035 0.0
O83 O 0.0826 0.60968 0.30908 0.0
Co84 Co 0.8836 0.40005 0.06552 0.0
O85 O 0.89649 0.45667 0.04757 0.0
O86 O 0.92996 0.41227 0.06702 0.0
C87 C 0.85094 0.3451 0.04689 0.0
O88 O 0.88136 0.33693 0.08501 0.0
Co89 Co 0.81371 0.38091 0.07692 0.0
O90 O 0.83031 0.31027 0.0902 0.0
C91 C 0.85139 0.48437 0.09104 0.0
C92 C 0.9262 0.4474 0.0534 0.0
C93 C 0.8608 0.30376 0.09278 0.0
O94 O 0.87685 0.46593 0.08339 0.0
O95 O 0.82372 0.45884 0.08895 0.0
O96 O 0.88217 0.33766 0.04769 0.0
O97 O 0.84035 0.38803 0.05646 0.0
Co98 Co 0.87951 0.40536 0.70772 0.0
O99 O 0.87342 0.46059 0.72684 0.0
O100 O 0.83408 0.40723 0.71408 0.0
C101 C 0.92432 0.36192 0.72076 0.0
O102 O 0.87661 0.34209 0.68814 0.0
Co103 Co 0.94071 0.40697 0.68585 0.0
O104 O 0.92512 0.32936 0.67633 0.0
C105 C 0.88968 0.49674 0.67823 0.0
C106 C 0.84304 0.44559 0.72626 0.0
C107 C 0.89565 0.31426 0.67784 0.0
O108 O 0.87167 0.47076 0.68946 0.0
O109 O 0.91885 0.48039 0.67572 0.0
O110 O 0.89544 0.34552 0.72487 0.0
O111 O 0.92527 0.40602 0.70979 0.0
Co112 Co 0.63644 0.10443 0.95783 0.0
O113 O 0.6275 0.04102 0.97405 0.0
O114 O 0.59002 0.10024 0.96207 0.0
C115 C 0.6793 0.14144 0.97451 0.0
O116 O 0.63676 0.17658 0.9412 0.0
Co117 Co 0.70331 0.11419 0.9402 0.0
O118 O 0.68654 0.19082 0.93081 0.0
C119 C 0.65352 0.02899 0.92595 0.0
C120 C 0.59731 0.05718 0.97307 0.0
C121 C 0.65702 0.20621 0.93206 0.0
O122 O 0.63203 0.04813 0.93655 0.0
O123 O 0.68313 0.04618 0.9268 0.0
O124 O 0.64983 0.1558 0.97807 0.0
O125 O 0.68166 0.10294 0.96202 0.0
Co126 Co 0.62548 0.10342 0.31443 0.0
O127 O 0.63368 0.05454 0.2943 0.0
O128 O 0.67223 0.0997 0.31031 0.0
C129 C 0.58367 0.15321 0.30018 0.0
O130 O 0.62478 0.15947 0.33613 0.0
Co131 Co 0.55688 0.09486 0.33045 0.0
O132 O 0.57323 0.16247 0.34495 0.0
C133 C 0.60474 0.99825 0.33649 0.0
C134 C 0.66424 0.06631 0.29667 0.0
C135 C 0.60276 0.17932 0.3463 0.0
O136 O 0.62781 0.03062 0.33061 0.0
O137 O 0.57488 0.01396 0.33561 0.0
O138 O 0.6134 0.17019 0.29825 0.0
O139 O 0.58083 0.10602 0.30953 0.0
Co140 Co 0.37945 0.90402 0.06628 0.0
O141 O 0.39492 0.95832 0.04819 0.0
O142 O 0.42608 0.90327 0.06614 0.0
C143 C 0.33978 0.86322 0.04809 0.0
O144 O 0.37581 0.84051 0.08547 0.0
Co145 Co 0.3112 0.89402 0.08071 0.0
O146 O 0.32563 0.82156 0.09385 0.0
C147 C 0.35422 0.99526 0.09157 0.0
C148 C 0.424 0.94013 0.05292 0.0
C149 C 0.35589 0.81064 0.09464 0.0
O150 O 0.37905 0.97042 0.08474 0.0
O151 O 0.32547 0.97392 0.08979 0.0
O152 O 0.36956 0.84461 0.04751 0.0
O153 O 0.33507 0.90503 0.05935 0.0
Co154 Co 0.38521 0.90689 0.707 0.0
O155 O 0.38045 0.96387 0.72575 0.0
O156 O 0.33953 0.92848 0.70916 0.0
C157 C 0.41783 0.84505 0.72354 0.0
O158 O 0.38112 0.8452 0.68689 0.0
Co159 Co 0.45274 0.88131 0.69253 0.0
O160 O 0.43092 0.81237 0.68085 0.0
C161 C 0.417 0.98953 0.68069 0.0
C162 C 0.34938 0.96164 0.72252 0.0
C163 C 0.40013 0.80951 0.67884 0.0
O164 O 0.39207 0.97287 0.68916 0.0
O165 O 0.44399 0.96132 0.68153 0.0
O166 O 0.38653 0.84278 0.72434 0.0
O167 O 0.42868 0.88733 0.71384 0.0
Co168 Co 0.62429 0.60303 0.45431 0.0
O169 O 0.60908 0.55807 0.47444 0.0
O170 O 0.57753 0.59779 0.45318 0.0
C171 C 0.65942 0.66133 0.47032 0.0
O172 O 0.62869 0.65483 0.43223 0.0
Co173 Co 0.69341 0.60404 0.44167 0.0
O174 O 0.6807 0.67586 0.42777 0.0
C175 C 0.65042 0.50418 0.43103 0.0
C176 C 0.57982 0.56883 0.46809 0.0
C177 C 0.6506 0.68397 0.42425 0.0
O178 O 0.62769 0.52829 0.43971 0.0
O179 O 0.67888 0.52655 0.43039 0.0
O180 O 0.6286 0.67305 0.46902 0.0
O181 O 0.66829 0.61235 0.46287 0.0
Co182 Co 0.62519 0.60755 0.81736 0.0
O183 O 0.64242 0.54724 0.80175 0.0
O184 O 0.67188 0.61225 0.81732 0.0
C185 C 0.58489 0.63872 0.79799 0.0
O186 O 0.61832 0.67863 0.83364 0.0
Co187 Co 0.55521 0.61213 0.83072 0.0
O188 O 0.56703 0.68945 0.84183 0.0
C189 C 0.60382 0.53041 0.8479 0.0
C190 C 0.67092 0.56954 0.80575 0.0
C191 C 0.59636 0.70691 0.84183 0.0
O192 O 0.62685 0.55086 0.83855 0.0
O193 O 0.57412 0.5461 0.84551 0.0
O194 O 0.61439 0.65776 0.79655 0.0
O195 O 0.58109 0.59975 0.81025 0.0
Co196 Co 0.37154 0.40236 0.56537 0.0
O197 O 0.37698 0.45974 0.54673 0.0
O198 O 0.41741 0.41269 0.56076 0.0
C199 C 0.33047 0.35363 0.55021 0.0
O200 O 0.37581 0.33809 0.58468 0.0
Co201 Co 0.30686 0.38655 0.58424 0.0
O202 O 0.32737 0.31541 0.59533 0.0
C203 C 0.34849 0.49177 0.59204 0.0
C204 C 0.40792 0.44955 0.54828 0.0
C205 C 0.35776 0.30657 0.59461 0.0
O206 O 0.37238 0.46836 0.58397 0.0
O207 O 0.32018 0.46843 0.59195 0.0
O208 O 0.3605 0.34131 0.54721 0.0
O209 O 0.32652 0.39514 0.56165 0.0
Co210 Co 0.37974 0.40902 0.20807 0.0
O211 O 0.3736 0.46615 0.22661 0.0
O212 O 0.33355 0.42744 0.21012 0.0
C213 C 0.41338 0.35045 0.22523 0.0
O214 O 0.37726 0.34639 0.18812 0.0
Co215 Co 0.44779 0.38707 0.19408 0.0
O216 O 0.42776 0.31623 0.18256 0.0
C217 C 0.41029 0.49316 0.18183 0.0
C218 C 0.34263 0.46154 0.2234 0.0
C219 C 0.39709 0.31153 0.18032 0.0
O220 O 0.3854 0.47508 0.19007 0.0
O221 O 0.43774 0.46647 0.18296 0.0
O222 O 0.38212 0.34578 0.22565 0.0
O223 O 0.42359 0.3928 0.21534 0.0
H224 H 0.3276 0.2585 0.52628 0.0
H225 H 0.26882 0.39357 0.55053 0.0
H226 H 0.22136 0.36103 0.53241 0.0
H227 H 0.2892 0.26616 0.48217 0.0
H228 H 0.28972 0.18725 0.47822 0.0
H229 H 0.32031 0.22069 0.49286 0.0
H230 H 0.3053 0.14933 0.51812 0.0
H231 H 0.27488 0.11529 0.50351 0.0
H232 H 0.2638 0.14535 0.52454 0.0
H233 H 0.18094 0.31946 0.51143 0.0
H234 H 0.14631 0.26108 0.49079 0.0
H235 H 0.22775 0.14596 0.48024 0.0
C236 C 0.30467 0.28087 0.52778 0.0
C237 C 0.30211 0.32892 0.53982 0.0
C238 C 0.2716 0.35679 0.54147 0.0
C239 C 0.24439 0.33884 0.53115 0.0
C240 C 0.24771 0.29226 0.51929 0.0
C241 C 0.27676 0.26272 0.51768 0.0
C242 C 0.27263 0.21238 0.50423 0.0
C243 C 0.29426 0.22223 0.48843 0.0
C244 C 0.27956 0.15201 0.51313 0.0
C245 C 0.23682 0.21882 0.49861 0.0
C246 C 0.22335 0.26589 0.50741 0.0
C247 C 0.19105 0.28211 0.50455 0.0
C248 C 0.17157 0.24853 0.49272 0.0
C249 C 0.18411 0.19849 0.48393 0.0
C250 C 0.21742 0.18389 0.48675 0.0
H251 H 0.91689 0.00792 0.52457 0.0
H252 H 0.9729 0.89593 0.56151 0.0
H253 H 0.02192 0.91511 0.54493 0.0
H254 H 0.95678 0.96419 0.4852 0.0
H255 H 0.9563 0.03717 0.47537 0.0
H256 H 0.92527 0.01618 0.49021 0.0
H257 H 0.93931 0.10717 0.51008 0.0
H258 H 0.97021 0.1287 0.49523 0.0
H259 H 0.98051 0.11785 0.5185 0.0
H260 H 0.06426 0.94295 0.5243 0.0
H261 H 0.09929 0.98285 0.50184 0.0
H262 H 0.01767 0.0797 0.47752 0.0
C263 C 0.93954 0.98785 0.52925 0.0
C264 C 0.94096 0.95036 0.54444 0.0
C265 C 0.97109 0.92483 0.55002 0.0
C266 C 0.9991 0.93534 0.54063 0.0
C267 C 0.99679 0.97169 0.52565 0.0
C268 C 0.96793 0.99806 0.52001 0.0
C269 C 0.9725 0.03548 0.50344 0.0
C270 C 0.95145 0.01183 0.48762 0.0
C271 C 0.9652 0.1012 0.50703 0.0
C272 C 0.00843 0.02579 0.50064 0.0
C273 C 0.02169 0.98854 0.51364 0.0
C274 C 0.0542 0.97236 0.51411 0.0
C275 C 0.07393 0.99544 0.50119 0.0
C276 C 0.06146 0.03477 0.48782 0.0
C277 C 0.02801 0.04965 0.48746 0.0
H278 H 0.28225 0.95065 0.72422 0.0
H279 H 0.36627 0.0388 0.74905 0.0
H280 H 0.33209 0.08026 0.77184 0.0
H281 H 0.22411 0.07028 0.73272 0.0
H282 H 0.19158 0.01973 0.73711 0.0
H283 H 0.22234 0.99848 0.72215 0.0
H284 H 0.23434 0.90413 0.74095 0.0
H285 H 0.20387 0.92542 0.75608 0.0
H286 H 0.24486 0.91143 0.76433 0.0
H287 H 0.28999 0.10811 0.79309 0.0
H288 H 0.2413 0.12721 0.81004 0.0
H289 H 0.1834 0.02376 0.7717 0.0
C290 C 0.2933 0.97947 0.73428 0.0
C291 C 0.32708 0.9914 0.73475 0.0
C292 C 0.34056 0.02885 0.74831 0.0
C293 C 0.32132 0.05262 0.7614 0.0
C294 C 0.2884 0.03901 0.76084 0.0
C295 C 0.2743 1.00393 0.74755 0.0
C296 C 0.23824 0.99612 0.75027 0.0
C297 C 0.21786 0.02275 0.73463 0.0
C298 C 0.22985 0.93036 0.75308 0.0
C299 C 0.2345 0.03184 0.7672 0.0
C300 C 0.26384 0.05593 0.77308 0.0
C301 C 0.26682 0.0898 0.78856 0.0
C302 C 0.23901 0.10021 0.79816 0.0
C303 C 0.20845 0.07711 0.79226 0.0
C304 C 0.20636 0.04212 0.77659 0.0
H305 H 0.03069 0.16396 0.79088 0.0
H306 H 0.11352 0.26801 0.77561 0.0
H307 H 0.07873 0.32229 0.75383 0.0
H308 H 0.99123 0.15286 0.74711 0.0
H309 H 0.95072 0.16146 0.75471 0.0
H310 H 0.98199 0.12915 0.76915 0.0
H311 H 0.9713 0.20804 0.79318 0.0
H312 H 0.93985 0.24027 0.77886 0.0
H313 H 0.97289 0.28572 0.78751 0.0
H314 H 0.0361 0.36436 0.73323 0.0
H315 H 0.98656 0.39804 0.71668 0.0
H316 H 0.92971 0.27095 0.74542 0.0
C317 C 0.04141 0.19823 0.78296 0.0
C318 C 0.07496 0.21142 0.78496 0.0
C319 C 0.08798 0.2569 0.77439 0.0
C320 C 0.06842 0.28798 0.76189 0.0
C321 C 0.03564 0.27368 0.7601 0.0
C322 C 0.02201 0.23046 0.77044 0.0
C323 C 0.98575 0.22559 0.76607 0.0
C324 C 0.97691 0.16357 0.75883 0.0
C325 C 0.9663 0.24082 0.78237 0.0
C326 C 0.98133 0.2727 0.75169 0.0
C327 C 0.01057 0.29938 0.74839 0.0
C328 C 0.01299 0.34399 0.73572 0.0
C329 C 0.98469 0.36273 0.72634 0.0
C330 C 0.9542 0.33732 0.72973 0.0
C331 C 0.95265 0.29122 0.74249 0.0
H332 H 0.8224 0.76001 0.52618 0.0
H333 H 0.76721 0.91438 0.54165 0.0
H334 H 0.72076 0.88089 0.52287 0.0
H335 H 0.79 0.75339 0.48029 0.0
H336 H 0.78777 0.6735 0.47959 0.0
H337 H 0.81795 0.70953 0.49392 0.0
H338 H 0.79705 0.65278 0.52098 0.0
H339 H 0.76692 0.61641 0.50674 0.0
H340 H 0.75475 0.65756 0.52582 0.0
H341 H 0.68015 0.83303 0.50309 0.0
H342 H 0.64546 0.76905 0.48392 0.0
H343 H 0.72431 0.64227 0.48063 0.0
C344 C 0.80054 0.78666 0.52553 0.0
C345 C 0.79859 0.83999 0.53542 0.0
C346 C 0.76945 0.87341 0.53429 0.0
C347 C 0.74284 0.8549 0.52358 0.0
C348 C 0.74543 0.80255 0.51402 0.0
C349 C 0.77331 0.76846 0.51489 0.0
C350 C 0.76868 0.71296 0.5035 0.0
C351 C 0.79252 0.71233 0.48843 0.0
C352 C 0.77205 0.65659 0.51495 0.0
C353 C 0.73389 0.72148 0.49627 0.0
C354 C 0.72126 0.77384 0.50251 0.0
C355 C 0.68969 0.79187 0.49808 0.0
C356 C 0.67015 0.75509 0.48716 0.0
C357 C 0.68206 0.70056 0.48075 0.0
C358 C 0.71456 0.68384 0.48524 0.0
H359 H 0.73218 0.07781 0.2965 0.0
H360 H 0.64867 0.00442 0.26678 0.0
H361 H 0.68395 0.96899 0.24388 0.0
H362 H 0.77605 0.1249 0.25802 0.0
H363 H 0.8155 0.10399 0.26724 0.0
H364 H 0.78402 0.12559 0.28174 0.0
H365 H 0.79051 0.02602 0.29868 0.0
H366 H 0.82212 0.0043 0.28431 0.0
H367 H 0.78723 0.95717 0.28653 0.0
H368 H 0.72644 0.94133 0.22395 0.0
H369 H 0.77574 0.91674 0.20852 0.0
H370 H 0.83441 1.00415 0.25015 0.0
C371 C 0.72143 0.05423 0.28518 0.0
C372 C 0.68743 0.0442 0.28355 0.0
C373 C 0.67446 0.01293 0.2685 0.0
C374 C 0.69433 0.9926 0.25529 0.0
C375 C 0.72745 1.00337 0.25716 0.0
C376 C 0.74118 0.03293 0.27171 0.0
C377 C 0.7779 0.03668 0.2703 0.0
C378 C 0.78902 0.10167 0.26926 0.0
C379 C 0.79548 1.0041 0.28588 0.0
C380 C 0.78233 0.00446 0.25277 0.0
C381 C 0.75268 0.98622 0.24548 0.0
C382 C 0.74987 0.95529 0.2295 0.0
C383 C 0.77813 0.94156 0.22081 0.0
C384 C 0.80909 0.95841 0.22804 0.0
C385 C 0.81113 0.99098 0.2442 0.0
H386 H 0.92599 0.75029 0.24507 0.0
H387 H 0.97725 0.91249 0.23267 0.0
H388 H 0.02327 0.88177 0.25222 0.0
H389 H 0.956 0.73899 0.29168 0.0
H390 H 0.96086 0.65949 0.29115 0.0
H391 H 0.93024 0.69473 0.27692 0.0
H392 H 0.95441 0.6457 0.24943 0.0
H393 H 0.98503 0.61023 0.26358 0.0
H394 H 0.99675 0.65632 0.2454 0.0
H395 H 0.06411 0.8355 0.27207 0.0
H396 H 0.10017 0.77197 0.29054 0.0
H397 H 0.02572 0.63552 0.29057 0.0
C398 C 0.94683 0.77935 0.24664 0.0
C399 C 0.94789 0.83399 0.23733 0.0
C400 C 0.97578 0.87043 0.23955 0.0
C401 C 1.0021 0.85354 0.25073 0.0
C402 C 1.00053 0.79965 0.25961 0.0
C403 C 0.97388 0.76263 0.2577 0.0
C404 C 0.97983 0.70562 0.26828 0.0
C405 C 0.95527 0.69936 0.28287 0.0
C406 C 0.97896 0.65125 0.25593 0.0
C407 C 0.01396 0.71669 0.27623 0.0
C408 C 0.02503 0.77164 0.27108 0.0
C409 C 0.05577 0.79236 0.27624 0.0
C410 C 0.07613 0.75575 0.28675 0.0
C411 C 0.06591 0.69863 0.29203 0.0
C412 C 0.03416 0.67909 0.28685 0.0
H413 H 0.33468 0.7614 0.02676 0.0
H414 H 0.28335 0.92115 0.04147 0.0
H415 H 0.23774 0.89419 0.02113 0.0
H416 H 0.30591 0.75863 0.97997 0.0
H417 H 0.30075 0.6792 0.97913 0.0
H418 H 0.33109 0.71148 0.99418 0.0
H419 H 0.30594 0.65778 0.02062 0.0
H420 H 0.27569 0.62505 1.00564 0.0
H421 H 0.26346 0.6678 0.0244 0.0
H422 H 0.19753 0.85234 0.99997 0.0
H423 H 0.16149 0.7917 0.98055 0.0
H424 H 0.23542 0.65471 0.97921 0.0
C425 C 0.31388 0.79067 0.02558 0.0
C426 C 0.31277 0.84363 0.03571 0.0
C427 C 0.28492 0.88038 0.03394 0.0
C428 C 0.25883 0.86566 0.02231 0.0
C429 C 0.26057 0.81361 0.01252 0.0
C430 C 0.28704 0.77609 0.01408 0.0
C431 C 0.28125 0.72115 1.00255 0.0
C432 C 0.30624 0.71741 0.9881 0.0
C433 C 0.2816 0.6646 0.01399 0.0
C434 C 0.24738 0.73389 0.99448 0.0
C435 C 0.23636 0.78801 1.00035 0.0
C436 C 0.20582 0.80985 0.99525 0.0
C437 C 0.1855 0.77496 0.98418 0.0
C438 C 0.19553 0.71842 0.97833 0.0
C439 C 0.2272 0.69801 0.98331 0.0
H440 H 0.02633 0.58568 0.9732 0.0
H441 H 0.11266 0.5304 1.00416 0.0
H442 H 0.07904 0.4955 0.02784 0.0
H443 H 0.98048 0.6348 0.01078 0.0
H444 H 0.94209 0.6064 1.00212 0.0
H445 H 0.97252 0.62915 0.98712 0.0
H446 H 0.97044 0.52547 0.9723 0.0
H447 H 0.93986 0.50259 0.98718 0.0
H448 H 0.97669 0.46013 0.98585 0.0
H449 H 0.03783 0.46652 0.04851 0.0
H450 H 0.9896 0.43816 0.06448 0.0
H451 H 0.92764 0.50794 0.02119 0.0
C452 C 0.03804 0.5662 0.98496 0.0
C453 C 0.07237 0.56117 0.98668 0.0
C454 C 0.08659 0.53506 1.00233 0.0
C455 C 0.06767 0.51509 0.01601 0.0
C456 C 0.03422 0.52093 0.01403 0.0
C457 C 0.01927 0.54524 0.99892 0.0
C458 C 0.98251 0.5441 1.00036 0.0
C459 C 0.96858 0.60739 1.00007 0.0
C460 C 0.96643 0.50578 0.98554 0.0
C461 C 0.97951 0.51527 0.01854 0.0
C462 C 0.00982 0.5029 0.02614 0.0
C463 C 0.01389 0.47593 0.04272 0.0
C464 C 0.98626 0.46005 0.05173 0.0
C465 C 0.95473 0.47082 0.04419 0.0
C466 C 0.95138 0.49952 0.0274 0.0
H467 H 0.27589 0.4443 0.22572 0.0
H468 H 0.35797 0.54093 0.24953 0.0
H469 H 0.32355 0.57891 0.2727 0.0
H470 H 0.21461 0.55844 0.23493 0.0
H471 H 0.18382 0.50476 0.23972 0.0
H472 H 0.21449 0.48667 0.22435 0.0
H473 H 0.22996 0.39346 0.24298 0.0
H474 H 0.19961 0.41164 0.25851 0.0
H475 H 0.24124 0.40158 0.26625 0.0
H476 H 0.2819 0.60171 0.29457 0.0
H477 H 0.23365 0.61577 0.31223 0.0
H478 H 0.17694 0.50792 0.2745 0.0
C479 C 0.28641 0.4743 0.23562 0.0
C480 C 0.31978 0.48954 0.2357 0.0
C481 C 0.3326 0.52842 0.24908 0.0
C482 C 0.31323 0.55024 0.26239 0.0
C483 C 0.2808 0.5333 0.26224 0.0
C484 C 0.26723 0.49694 0.24911 0.0
C485 C 0.23159 0.48562 0.2523 0.0
C486 C 0.20984 0.51036 0.23691 0.0
C487 C 0.22524 0.41912 0.25518 0.0
C488 C 0.22752 0.52079 0.2693 0.0
C489 C 0.25635 0.5476 0.27481 0.0
C490 C 0.25909 0.58133 0.29032 0.0
C491 C 0.23154 0.58883 0.30034 0.0
C492 C 0.20141 0.5631 0.29482 0.0
C493 C 0.19957 0.52828 0.2791 0.0
H494 H 0.68306 0.22744 1.0009 0.0
H495 H 0.74198 0.11327 0.96897 0.0
H496 H 0.79141 0.15222 0.98429 0.0
H497 H 0.73792 0.35356 1.00165 0.0
H498 H 0.73066 0.37356 0.02428 0.0
H499 H 0.69942 0.33685 0.01087 0.0
H500 H 0.69616 0.25429 0.03464 0.0
H501 H 0.72751 0.2906 0.04808 0.0
H502 H 0.73239 0.21423 0.04159 0.0
H503 H 0.83444 0.2009 1.00308 0.0
H504 H 0.86923 0.26064 0.02361 0.0
H505 H 0.78383 0.34598 0.04352 0.0
C506 C 0.70639 0.21083 0.99713 0.0
C507 C 0.70859 0.16719 0.98372 0.0
C508 C 0.73958 0.14665 0.97917 0.0
C509 C 0.76788 0.16842 0.98782 0.0
C510 C 0.76495 0.21099 1.00102 0.0
C511 C 0.73511 0.23237 1.00564 0.0
C512 C 0.73915 0.27865 0.02026 0.0
C513 C 0.72601 0.33925 0.01388 0.0
C514 C 0.72283 0.2582 0.03714 0.0
C515 C 0.77588 0.27972 0.02305 0.0
C516 C 0.79013 0.24002 0.01183 0.0
C517 C 0.82361 0.2323 0.01191 0.0
C518 C 0.84318 0.26641 0.02367 0.0
C519 C 0.82933 0.30807 0.03517 0.0
C520 C 0.79515 0.31456 0.03487 0.0
H521 H 0.67643 0.49459 0.77669 0.0
H522 H 0.73283 0.60544 0.81377 0.0
H523 H 0.78191 0.58518 0.79747 0.0
H524 H 0.74016 0.38338 0.77046 0.0
H525 H 0.72983 0.3736 0.74714 0.0
H526 H 0.69896 0.39456 0.76209 0.0
H527 H 0.68501 0.48645 0.74256 0.0
H528 H 0.716 0.46604 0.72764 0.0
H529 H 0.71659 0.53857 0.73775 0.0
H530 H 0.82435 0.55797 0.77673 0.0
H531 H 0.85895 0.52035 0.75358 0.0
H532 H 0.77683 0.42478 0.72936 0.0
C533 C 0.69922 0.51383 0.78152 0.0
C534 C 0.70067 0.55156 0.79662 0.0
C535 C 0.73095 0.57638 0.80232 0.0
C536 C 0.75905 0.56522 0.79311 0.0
C537 C 0.75673 0.52892 0.77815 0.0
C538 C 0.72774 0.50307 0.77242 0.0
C539 C 0.73223 0.46643 0.75571 0.0
C540 C 0.72486 0.40058 0.75906 0.0
C541 C 0.71121 0.49085 0.73999 0.0
C542 C 0.76818 0.47617 0.75296 0.0
C543 C 0.78164 0.51256 0.7661 0.0
C544 C 0.81415 0.52913 0.76643 0.0
C545 C 0.83363 0.50755 0.75313 0.0
C546 C 0.82079 0.46943 0.73958 0.0
C547 C 0.78746 0.45376 0.73951 0.0
H548 H 0.53156 0.08341 0.97649 0.0
H549 H 0.61001 0.972 0.99786 0.0
H550 H 0.57451 0.93356 0.0204 0.0
H551 H 0.49787 0.12018 0.0182 0.0
H552 H 0.45605 0.11601 1.01026 0.0
H553 H 0.48704 0.13517 0.99518 0.0
H554 H 0.46886 0.04856 0.97447 0.0
H555 H 0.43761 0.02949 0.98939 0.0
H556 H 0.4668 0.97441 0.98335 0.0
H557 H 0.53284 0.91063 0.04168 0.0
H558 H 0.48459 0.89568 0.05896 0.0
H559 H 0.43011 0.01692 0.02405 0.0
C560 C 0.54108 0.05043 0.9858 0.0
C561 C 0.57378 0.03093 0.98533 0.0
C562 C 0.58522 0.98784 0.99782 0.0
C563 C 0.56523 0.96573 0.01079 0.0
C564 C 0.53352 0.9865 0.01114 0.0
C565 C 0.52117 0.02715 0.99887 0.0
C566 C 0.48582 0.04094 1.00234 0.0
C567 C 0.48145 0.10701 1.00676 0.0
C568 C 0.46345 0.02223 0.98644 0.0
C569 C 0.48055 1.00201 0.01851 0.0
C570 C 0.50865 0.97158 0.02334 0.0
C571 C 0.51058 0.93381 0.03795 0.0
C572 C 0.48293 0.92583 0.04776 0.0
C573 C 0.45334 0.95493 0.04294 0.0
C574 C 0.45229 0.994 0.02812 0.0
H575 H 0.48056 0.35466 0.22947 0.0
H576 H 0.39543 0.26429 0.24794 0.0
H577 H 0.4299 0.20801 0.26943 0.0
H578 H 0.5345 0.22624 0.23326 0.0
H579 H 0.56943 0.26916 0.24069 0.0
H580 H 0.53822 0.30258 0.22646 0.0
H581 H 0.53172 0.38635 0.24954 0.0
H582 H 0.56267 0.35283 0.26393 0.0
H583 H 0.52306 0.36737 0.27207 0.0
H584 H 0.47204 0.16377 0.28941 0.0
H585 H 0.52091 0.12662 0.30553 0.0
H586 H 0.5807 0.2424 0.27455 0.0
C587 C 0.46928 0.32268 0.23796 0.0
C588 C 0.43521 0.31404 0.23703 0.0
C589 C 0.42139 0.27182 0.24837 0.0
C590 C 0.44076 0.23968 0.26069 0.0
C591 C 0.47405 0.24989 0.26152 0.0
C592 C 0.48841 0.28974 0.25038 0.0
C593 C 0.52499 0.29115 0.25406 0.0
C594 C 0.54284 0.27107 0.23764 0.0
C595 C 0.53626 0.35312 0.26027 0.0
C596 C 0.52876 0.24599 0.26903 0.0
C597 C 0.4989 0.22327 0.27309 0.0
C598 C 0.49561 0.18101 0.28633 0.0
C599 C 0.52362 0.1603 0.29546 0.0
C600 C 0.55473 0.18152 0.29135 0.0
C601 C 0.55727 0.2256 0.27807 0.0
H602 H 0.48446 0.85044 0.72929 0.0
H603 H 0.39943 0.74792 0.74192 0.0
H604 H 0.4335 0.6832 0.76138 0.0
H605 H 0.54146 0.72499 0.72944 0.0
H606 H 0.57449 0.76724 0.73957 0.0
H607 H 0.54384 0.80391 0.72572 0.0
H608 H 0.53268 0.8763 0.75142 0.0
H609 H 0.56313 0.83965 0.76538 0.0
H610 H 0.52233 0.84688 0.77267 0.0
H611 H 0.47526 0.63303 0.78054 0.0
H612 H 0.52316 0.59745 0.79799 0.0
H613 H 0.58255 0.73087 0.77347 0.0
C614 C 0.47315 0.81384 0.73597 0.0
C615 C 0.43925 0.80413 0.73405 0.0
C616 C 0.4253 0.75623 0.74317 0.0
C617 C 0.44445 0.71916 0.75426 0.0
C618 C 0.47761 0.73042 0.75611 0.0
C619 C 0.492 0.77629 0.7472 0.0
C620 C 0.52813 0.77938 0.75209 0.0
C621 C 0.54816 0.7682 0.73573 0.0
C622 C 0.53708 0.8391 0.76091 0.0
C623 C 0.53161 0.72848 0.76528 0.0
C624 C 0.50207 0.70097 0.7673 0.0
C625 C 0.49858 0.65389 0.77899 0.0
C626 C 0.526 0.63411 0.78889 0.0
C627 C 0.55667 0.66122 0.78709 0.0
C628 C 0.55948 0.70904 0.77506 0.0
H629 H 0.47484 0.43541 0.54664 0.0
H630 H 0.39154 0.52132 0.52029 0.0
H631 H 0.42627 0.55855 0.49713 0.0
H632 H 0.53302 0.55295 0.53726 0.0
H633 H 0.56583 0.50214 0.53369 0.0
H634 H 0.53463 0.48236 0.54856 0.0
H635 H 0.52332 0.38596 0.53063 0.0
H636 H 0.5543 0.40567 0.51562 0.0
H637 H 0.51358 0.3906 0.5071 0.0
H638 H 0.46863 0.58302 0.476 0.0
H639 H 0.51754 0.60086 0.45932 0.0
H640 H 0.57528 0.50316 0.49915 0.0
C641 C 0.46402 0.46253 0.53608 0.0
C642 C 0.4303 0.47533 0.53535 0.0
C643 C 0.41717 0.51084 0.52125 0.0
C644 C 0.43673 0.53215 0.50794 0.0
C645 C 0.4696 0.51809 0.50887 0.0
C646 C 0.48337 0.48475 0.52264 0.0
C647 C 0.5196 0.47682 0.52035 0.0
C648 C 0.53944 0.50527 0.53589 0.0
C649 C 0.5282 0.41083 0.5183 0.0
C650 C 0.52383 0.51064 0.50312 0.0
C651 C 0.49452 0.53359 0.49673 0.0
C652 C 0.49178 0.5656 0.48092 0.0
C653 C 0.51978 0.5753 0.47148 0.0
C654 C 0.55038 0.55355 0.47786 0.0
C655 C 0.55229 0.52043 0.49389 0.0
H656 H 0.14693 0.75265 0.35703 0.0
H657 H 0.05022 0.7056 0.37275 0.0
H658 H 0.05471 0.77786 0.39702 0.0
H659 H 0.18214 0.77748 0.40197 0.0
H660 H 0.20592 0.84063 0.39573 0.0
H661 H 0.19631 0.78299 0.37976 0.0
H662 H 0.17076 0.86104 0.3581 0.0
H663 H 0.18036 0.91887 0.37399 0.0
H664 H 0.13914 0.90901 0.36551 0.0
H665 H 0.06788 0.85615 0.41902 0.0
H666 H 0.08888 0.93924 0.43731 0.0
H667 H 0.17728 0.93937 0.40814 0.0
C668 C 0.12687 0.75725 0.36568 0.0
C669 C 0.0982 0.72309 0.36286 0.0
C670 C 0.07238 0.73113 0.37444 0.0
C671 C 0.07471 0.77204 0.38839 0.0
C672 C 0.10299 0.80517 0.39074 0.0
C673 C 0.12865 0.79863 0.37975 0.0
C674 C 0.1557 0.84205 0.38502 0.0
C675 C 0.18687 0.80879 0.39097 0.0
C676 C 0.16184 0.8853 0.36975 0.0
C677 C 0.14101 0.87384 0.40056 0.0
C678 C 0.11064 0.8514 0.4036 0.0
C679 C 0.0917 0.87403 0.41684 0.0
C680 C 0.1039 0.9214 0.42717 0.0
C681 C 0.13482 0.94606 0.42429 0.0
C682 C 0.15373 0.92128 0.41086 0.0
H683 H 0.09909 0.26261 0.421 0.0
H684 H 0.18465 0.18585 0.39849 0.0
H685 H 0.18072 0.25716 0.37405 0.0
H686 H 0.05617 0.29543 0.37768 0.0
H687 H 0.03987 0.36489 0.38511 0.0
H688 H 0.04771 0.30545 0.40074 0.0
H689 H 0.08402 0.37561 0.42027 0.0
H690 H 0.07642 0.43511 0.40465 0.0
H691 H 0.11751 0.41318 0.4106 0.0
H692 H 0.17158 0.34042 0.35336 0.0
H693 H 0.15447 0.42877 0.33602 0.0
H694 H 0.07333 0.4528 0.36998 0.0
C695 C 0.11657 0.2603 0.41075 0.0
C696 C 0.14235 0.21857 0.41188 0.0
C697 C 0.16491 0.2176 0.3982 0.0
C698 C 0.16289 0.25792 0.38413 0.0
C699 C 0.13799 0.29933 0.38361 0.0
C700 C 0.11494 0.30078 0.39637 0.0
C701 C 0.09127 0.35161 0.39256 0.0
C702 C 0.0567 0.32792 0.3888 0.0
C703 C 0.09238 0.39653 0.40794 0.0
C704 C 0.10501 0.3783 0.3759 0.0
C705 C 0.13206 0.34731 0.37109 0.0
C706 C 0.15014 0.3647 0.3568 0.0
C707 C 0.14032 0.41512 0.34706 0.0
C708 C 0.11241 0.44745 0.35147 0.0
C709 C 0.09446 0.42842 0.36607 0.0
H710 H 0.15312 0.27264 0.85312 0.0
H711 H 0.05602 0.22658 0.86842 0.0
H712 H 0.06046 0.2986 0.89278 0.0
H713 H 0.18792 0.29658 0.89811 0.0
H714 H 0.21199 0.35951 0.892 0.0
H715 H 0.20229 0.30217 0.87594 0.0
H716 H 0.17718 0.38076 0.85431 0.0
H717 H 0.18687 0.4383 0.87028 0.0
H718 H 0.14567 0.42903 0.8617 0.0
H719 H 0.07379 0.37685 0.91499 0.0
H720 H 0.09513 0.45958 0.9334 0.0
H721 H 0.18368 0.45818 0.90438 0.0
C722 C 0.13295 0.27742 0.86169 0.0
C723 C 0.1042 0.24362 0.85872 0.0
C724 C 0.07826 0.25187 0.87021 0.0
C725 C 0.08054 0.29264 0.88421 0.0
C726 C 0.10892 0.32543 0.8867 0.0
C727 C 0.13469 0.31866 0.87579 0.0
C728 C 0.16185 0.36165 0.88117 0.0
C729 C 0.19285 0.32795 0.88716 0.0
C730 C 0.16826 0.405 0.86596 0.0
C731 C 0.14714 0.39343 0.8967 0.0
C732 C 0.11664 0.37146 0.89965 0.0
C733 C 0.09773 0.39434 0.91288 0.0
C734 C 0.11011 0.44147 0.92328 0.0
C735 C 0.14118 0.46558 0.92047 0.0
C736 C 0.16001 0.44054 0.90706 0.0
H737 H 0.10717 0.78473 0.91817 0.0
H738 H 0.18733 0.69959 0.89276 0.0
H739 H 0.18229 0.77041 0.86819 0.0
H740 H 0.06007 0.82053 0.87611 0.0
H741 H 0.04666 0.89152 0.88402 0.0
H742 H 0.05461 0.83158 0.89947 0.0
H743 H 0.09485 0.89852 0.91767 0.0
H744 H 0.08719 0.95846 0.90222 0.0
H745 H 0.12809 0.93274 0.9068 0.0
H746 H 0.1734 0.85445 0.84784 0.0
H747 H 0.15712 0.94437 0.83105 0.0
H748 H 0.08067 0.97619 0.86755 0.0
C749 C 0.12314 0.78044 0.90725 0.0
C750 C 0.14784 0.73656 0.90757 0.0
C751 C 0.16849 0.73302 0.89305 0.0
C752 C 0.16581 0.77304 0.87892 0.0
C753 C 0.14212 0.81669 0.8792 0.0
C754 C 0.12078 0.82055 0.89279 0.0
C755 C 0.09822 0.87352 0.88972 0.0
C756 C 0.06278 0.85305 0.88718 0.0
C757 C 0.10234 0.91846 0.90501 0.0
C758 C 0.1107 0.8987 0.87253 0.0
C759 C 0.13615 0.86508 0.86684 0.0
C760 C 0.15314 0.88074 0.85197 0.0
C761 C 0.14382 0.93208 0.84255 0.0
C762 C 0.11745 0.96699 0.84783 0.0
C763 C 0.10057 0.94975 0.863 0.0
H764 H 0.92807 0.22407 0.66097 0.0
H765 H 0.8323 0.29952 0.66696 0.0
H766 H 0.80963 0.23022 0.6444 0.0
H767 H 0.92128 0.19837 0.61416 0.0
H768 H 0.94185 0.12775 0.61479 0.0
H769 H 0.95137 0.18258 0.63164 0.0
H770 H 0.93821 0.1071 0.65618 0.0
H771 H 0.92909 0.05179 0.63942 0.0
H772 H 0.89937 0.0703 0.6553 0.0
H773 H 0.79774 0.16014 0.6201 0.0
H774 H 0.7943 0.08052 0.59822 0.0
H775 H 0.89677 0.04126 0.60835 0.0
C776 C 0.90228 0.22557 0.65763 0.0
C777 C 0.88195 0.26754 0.66575 0.0
C778 C 0.84833 0.26777 0.66107 0.0
C779 C 0.83525 0.22882 0.64815 0.0
C780 C 0.85596 0.18907 0.64018 0.0
C781 C 0.88859 0.18598 0.64493 0.0
C782 C 0.90495 0.1372 0.63453 0.0
C783 C 0.93144 0.16304 0.6231 0.0
C784 C 0.91871 0.08872 0.64711 0.0
C785 C 0.87638 0.11411 0.62302 0.0
C786 C 0.8486 0.14558 0.62648 0.0
C787 C 0.81917 0.13451 0.61747 0.0
C788 C 0.8176 0.08882 0.60497 0.0
C789 C 0.84516 0.05336 0.60159 0.0
C790 C 0.87522 0.06713 0.61058 0.0
H791 H 0.9199 0.56586 0.6534 0.0
H792 H 0.82742 0.53983 0.67764 0.0
H793 H 0.80321 0.61798 0.65838 0.0
H794 H 0.91339 0.72628 0.64878 0.0
H795 H 0.93223 0.7281 0.62769 0.0
H796 H 0.94278 0.67051 0.64352 0.0
H797 H 0.92758 0.59069 0.61987 0.0
H798 H 0.91684 0.64798 0.60399 0.0
H799 H 0.8877 0.59154 0.60903 0.0
H800 H 0.78819 0.69561 0.63609 0.0
H801 H 0.78341 0.77224 0.61308 0.0
H802 H 0.88572 0.75207 0.603 0.0
C803 C 0.89461 0.57672 0.65476 0.0
C804 C 0.87564 0.54625 0.66714 0.0
C805 C 0.8426 0.56221 0.66837 0.0
C806 C 0.82854 0.60658 0.65744 0.0
C807 C 0.84779 0.63511 0.64533 0.0
C808 C 0.88014 0.62126 0.64397 0.0
C809 C 0.89524 0.65905 0.62977 0.0
C810 C 0.92253 0.69832 0.63793 0.0
C811 C 0.90757 0.61997 0.61478 0.0
C812 C 0.86622 0.69613 0.62332 0.0
C813 C 0.83915 0.68111 0.63249 0.0
C814 C 0.80925 0.70794 0.62887 0.0
C815 C 0.80683 0.75154 0.61565 0.0
C816 C 0.83417 0.76876 0.60606 0.0
C817 C 0.86434 0.74033 0.61003 0.0
H818 H 0.90665 0.54354 0.10431 0.0
H819 H 0.8016 0.54058 0.10676 0.0
H820 H 0.80455 0.61879 0.12942 0.0
H821 H 0.92393 0.56609 0.1508 0.0
H822 H 0.95749 0.61596 0.14803 0.0
H823 H 0.94768 0.5606 0.13139 0.0
H824 H 0.94252 0.6423 0.10725 0.0
H825 H 0.9526 0.69788 0.1238 0.0
H826 H 0.91557 0.70412 0.11026 0.0
H827 H 0.81812 0.69419 0.15253 0.0
H828 H 0.84153 0.76731 0.17367 0.0
H829 H 0.93805 0.72464 0.15671 0.0
C830 C 0.88423 0.5598 0.10946 0.0
C831 C 0.85387 0.53542 0.10364 0.0
C832 C 0.8252 0.55798 0.1109 0.0
C833 C 0.82658 0.60256 0.12385 0.0
C834 C 0.85677 0.62473 0.1295 0.0
C835 C 0.88512 0.60468 0.12249 0.0
C836 C 0.91435 0.63637 0.13111 0.0
C837 C 0.93721 0.5921 0.14092 0.0
C838 C 0.93232 0.67231 0.11728 0.0
C839 C 0.89789 0.67693 0.14408 0.0
C840 C 0.86468 0.66917 0.1429 0.0
C841 C 0.8441 0.70093 0.15353 0.0
C842 C 0.85773 0.74238 0.16557 0.0
C843 C 0.89172 0.75215 0.16694 0.0
C844 C 0.91202 0.71842 0.15606 0.0
H845 H 0.85311 0.03906 0.16497 0.0
H846 H 0.9586 0.04656 0.1673 0.0
H847 H 0.95694 0.1276 0.14583 0.0
H848 H 0.84174 0.06869 0.11848 0.0
H849 H 0.80686 0.1161 0.12031 0.0
H850 H 0.8153 0.05907 0.13664 0.0
H851 H 0.81546 0.13763 0.16171 0.0
H852 H 0.80679 0.19487 0.14546 0.0
H853 H 0.84173 0.20135 0.1606 0.0
H854 H 0.94556 0.20395 0.12324 0.0
H855 H 0.92415 0.27728 0.10159 0.0
H856 H 0.82579 0.22596 0.11322 0.0
C857 C 0.87579 0.05825 0.1611 0.0
C858 C 0.90596 0.03548 0.16789 0.0
C859 C 0.93506 0.06213 0.16235 0.0
C860 C 0.9345 0.10859 0.15008 0.0
C861 C 0.90467 0.12903 0.14341 0.0
C862 C 0.87575 0.10551 0.14877 0.0
C863 C 0.8472 0.13666 0.13922 0.0
C864 C 0.82656 0.09248 0.128 0.0
C865 C 0.82657 0.16958 0.15254 0.0
C866 C 0.86482 0.18013 0.12752 0.0
C867 C 0.89796 0.17473 0.13027 0.0
C868 C 0.91962 0.20903 0.12102 0.0
C869 C 0.90715 0.25059 0.10869 0.0
C870 C 0.87324 0.25786 0.10562 0.0
C871 C 0.85183 0.22175 0.1152 0.0
H872 H 0.57209 0.75143 0.87276 0.0
H873 H 0.6428 0.78551 0.83311 0.0
H874 H 0.661 0.87513 0.84944 0.0
H875 H 0.55259 0.90741 0.88258 0.0
H876 H 0.55021 0.89493 0.90611 0.0
H877 H 0.54024 0.83592 0.89064 0.0
H878 H 0.58264 0.76789 0.90685 0.0
H879 H 0.5927 0.8266 0.92236 0.0
H880 H 0.62404 0.79286 0.90988 0.0
H881 H 0.67305 0.95736 0.86978 0.0
H882 H 0.6818 0.02664 0.89448 0.0
H883 H 0.60533 0.94081 0.92286 0.0
C884 C 0.59103 0.77845 0.86742 0.0
C885 C 0.60587 0.76187 0.85155 0.0
C886 C 0.6311 0.79739 0.84519 0.0
C887 C 0.64149 0.84853 0.85433 0.0
C888 C 0.62666 0.86339 0.86995 0.0
C889 C 0.60218 0.82943 0.87661 0.0
C890 C 0.59227 0.85371 0.89444 0.0
C891 C 0.55671 0.87421 0.89337 0.0
C892 C 0.59828 0.80751 0.90926 0.0
C893 C 0.61529 0.90624 0.89678 0.0
C894 C 0.6345 0.91089 0.88228 0.0
C895 C 0.65821 0.95421 0.88121 0.0
C896 C 0.66305 0.99326 0.89543 0.0
C897 C 0.64451 0.98901 0.91079 0.0
C898 C 0.61976 0.94546 0.91131 0.0
H899 H 0.6822 0.2541 0.90211 0.0
H900 H 0.60593 0.27852 0.93922 0.0
H901 H 0.58703 0.36744 0.92255 0.0
H902 H 0.69962 0.40972 0.89425 0.0
H903 H 0.70533 0.39979 0.87087 0.0
H904 H 0.71417 0.33976 0.88616 0.0
H905 H 0.67492 0.27118 0.86784 0.0
H906 H 0.66609 0.33087 0.85247 0.0
H907 H 0.63354 0.2944 0.86332 0.0
H908 H 0.576 0.45161 0.90207 0.0
H909 H 0.57018 0.52339 0.8777 0.0
H910 H 0.65255 0.44471 0.8526 0.0
C911 C 0.66172 0.27855 0.90684 0.0
C912 C 0.64567 0.25969 0.92211 0.0
C913 C 0.61857 0.29213 0.92762 0.0
C914 C 0.60779 0.34282 0.91827 0.0
C915 C 0.62416 0.36015 0.90334 0.0
C916 C 0.65034 0.32882 0.89751 0.0
C917 C 0.66233 0.35527 0.88043 0.0
C918 C 0.69745 0.37745 0.8831 0.0
C919 C 0.65901 0.31025 0.86511 0.0
C920 C 0.63882 0.40662 0.87759 0.0
C921 C 0.61723 0.40847 0.8911 0.0
C922 C 0.5927 0.45054 0.89142 0.0
C923 C 0.58959 0.49107 0.87742 0.0
C924 C 0.61076 0.48956 0.8631 0.0
C925 C 0.63616 0.44731 0.86338 0.0
H926 H 0.64749 0.27328 0.34919 0.0
H927 H 0.57634 0.1753 0.3782 0.0
H928 H 0.58351 0.24409 0.40322 0.0
H929 H 0.70078 0.3125 0.38879 0.0
H930 H 0.70941 0.38587 0.3807 0.0
H931 H 0.70111 0.32616 0.36523 0.0
H932 H 0.65498 0.38817 0.34991 0.0
H933 H 0.66303 0.44787 0.36538 0.0
H934 H 0.62289 0.41647 0.36297 0.0
H935 H 0.59324 0.32679 0.42387 0.0
H936 H 0.60826 0.41813 0.44025 0.0
H937 H 0.67492 0.46451 0.39957 0.0
C938 C 0.63402 0.26581 0.36097 0.0
C939 C 0.61122 0.21885 0.36164 0.0
C940 C 0.59369 0.21113 0.37723 0.0
C941 C 0.59765 0.2499 0.39161 0.0
C942 C 0.61942 0.29654 0.39042 0.0
C943 C 0.63762 0.30472 0.37565 0.0
C944 C 0.65822 0.36061 0.37783 0.0
C945 C 0.69454 0.34536 0.37816 0.0
C946 C 0.64923 0.40595 0.36315 0.0
C947 C 0.64822 0.38246 0.39591 0.0
C948 C 0.62576 0.34456 0.40283 0.0
C949 C 0.61122 0.35646 0.41876 0.0
C950 C 0.61979 0.40858 0.42795 0.0
C951 C 0.64299 0.4481 0.42133 0.0
C952 C 0.65759 0.43449 0.40514 0.0
H953 H 0.68224 0.78311 0.41191 0.0
H954 H 0.59575 0.67536 0.40299 0.0
H955 H 0.57875 0.73849 0.37755 0.0
H956 H 0.64233 0.92209 0.40259 0.0
H957 H 0.67625 0.95514 0.39203 0.0
H958 H 0.68314 0.89892 0.40877 0.0
H959 H 0.71531 0.83685 0.38664 0.0
H960 H 0.70815 0.89264 0.36976 0.0
H961 H 0.69636 0.81674 0.36545 0.0
H962 H 0.57036 0.81205 0.35363 0.0
H963 H 0.56679 0.90077 0.33468 0.0
H964 H 0.65711 0.96661 0.35913 0.0
C965 C 0.65986 0.77268 0.40449 0.0
C966 C 0.6404 0.72396 0.40937 0.0
C967 C 0.611 0.71239 0.39956 0.0
C968 C 0.60127 0.74772 0.38498 0.0
C969 C 0.62099 0.79502 0.38044 0.0
C970 C 0.6494 0.80837 0.39002 0.0
C971 C 0.6646 0.86481 0.38302 0.0
C972 C 0.66669 0.91309 0.39746 0.0
C973 C 0.6981 0.85197 0.37579 0.0
C974 C 0.64011 0.88116 0.36811 0.0
C975 C 0.61552 0.83943 0.36676 0.0
C976 C 0.58946 0.84498 0.35452 0.0
C977 C 0.58771 0.89557 0.34379 0.0
C978 C 0.6117 0.94056 0.34537 0.0
C979 C 0.63876 0.93247 0.35738 0.0
H980 H 0.43004 0.21818 0.16577 0.0
H981 H 0.3358 0.30446 0.16457 0.0
H982 H 0.3165 0.23632 0.14068 0.0
H983 H 0.43371 0.19292 0.11894 0.0
H984 H 0.45253 0.12092 0.12121 0.0
H985 H 0.45929 0.17594 0.13833 0.0
H986 H 0.43881 0.10275 0.16182 0.0
H987 H 0.4324 0.04725 0.14482 0.0
H988 H 0.39947 0.06874 0.15834 0.0
H989 H 0.30788 0.16193 0.11648 0.0
H990 H 0.30778 0.07841 0.09559 0.0
H991 H 0.40728 0.03669 0.11245 0.0
C992 C 0.40526 0.22268 0.16056 0.0
C993 C 0.38444 0.26709 0.16709 0.0
C994 C 0.35218 0.27091 0.15992 0.0
C995 C 0.34107 0.2326 0.14624 0.0
C996 C 0.36241 0.19032 0.13992 0.0
C997 C 0.39368 0.18447 0.14699 0.0
C998 C 0.41133 0.13408 0.13806 0.0
C999 C 0.44097 0.15738 0.12857 0.0
C1000 C 0.42107 0.08532 0.15156 0.0
C1001 C 0.38508 0.11253 0.12479 0.0
C1002 C 0.35721 0.14618 0.12608 0.0
C1003 C 0.32948 0.13513 0.11544 0.0
C1004 C 0.32975 0.08742 0.10357 0.0
C1005 C 0.35749 0.05054 0.10236 0.0
C1006 C 0.38583 0.06423 0.1129 0.0
H1007 H 0.35453 0.54968 0.16805 0.0
H1008 H 0.45982 0.55512 0.16787 0.0
H1009 H 0.45668 0.63561 0.14593 0.0
H1010 H 0.34031 0.57543 0.12152 0.0
H1011 H 0.3053 0.62219 0.12378 0.0
H1012 H 0.31514 0.56624 0.14024 0.0
H1013 H 0.31635 0.64609 0.16496 0.0
H1014 H 0.30623 0.70225 0.14859 0.0
H1015 H 0.34202 0.71034 0.16304 0.0
H1016 H 0.44312 0.71158 0.12311 0.0
H1017 H 0.41973 0.7838 0.10172 0.0
H1018 H 0.32278 0.73293 0.11614 0.0
C1019 C 0.37692 0.56839 0.16358 0.0
C1020 C 0.40745 0.54563 0.16978 0.0
C1021 C 0.43611 0.5712 0.16338 0.0
C1022 C 0.43463 0.61713 0.15086 0.0
C1023 C 0.40432 0.63759 0.14477 0.0
C1024 C 0.37592 0.61461 0.15095 0.0
C1025 C 0.34658 0.64465 0.14184 0.0
C1026 C 0.3256 0.59942 0.13122 0.0
C1027 C 0.32662 0.67781 0.15542 0.0
C1028 C 0.36307 0.68771 0.12957 0.0
C1029 C 0.39638 0.6825 0.13151 0.0
C1030 C 0.41706 0.71639 0.12152 0.0
C1031 C 0.40343 0.75729 0.10933 0.0
C1032 C 0.36932 0.76451 0.10715 0.0
C1033 C 0.34892 0.7288 0.11744 0.0
H1034 H 0.43146 0.71647 0.66317 0.0
H1035 H 0.33766 0.80351 0.66459 0.0
H1036 H 0.316 0.73532 0.64128 0.0
H1037 H 0.43048 0.69062 0.61611 0.0
H1038 H 0.44937 0.61859 0.61799 0.0
H1039 H 0.45787 0.67405 0.63479 0.0
H1040 H 0.43975 0.60158 0.6591 0.0
H1041 H 0.4316 0.54566 0.64241 0.0
H1042 H 0.40018 0.56771 0.65688 0.0
H1043 H 0.30467 0.65947 0.6177 0.0
H1044 H 0.30236 0.57458 0.59721 0.0
H1045 H 0.40336 0.53436 0.61089 0.0
C1046 C 0.40632 0.72125 0.65863 0.0
C1047 C 0.38629 0.76577 0.66574 0.0
C1048 C 0.35349 0.76989 0.65946 0.0
C1049 C 0.34102 0.73155 0.64612 0.0
C1050 C 0.36158 0.68902 0.63923 0.0
C1051 C 0.39341 0.68311 0.6454 0.0
C1052 C 0.41004 0.63243 0.63606 0.0
C1053 C 0.43863 0.65531 0.62562 0.0
C1054 C 0.42103 0.58397 0.64941 0.0
C1055 C 0.38253 0.61072 0.62364 0.0
C1056 C 0.35492 0.64446 0.62567 0.0
C1057 C 0.32611 0.63274 0.61603 0.0
C1058 C 0.3251 0.58432 0.60439 0.0
C1059 C 0.35268 0.54765 0.6024 0.0
C1060 C 0.38203 0.56193 0.61191 0.0
H1061 H 0.32751 0.23074 0.61733 0.0
H1062 H 0.42243 0.27757 0.59895 0.0
H1063 H 0.44763 0.20421 0.61966 0.0
H1064 H 0.35199 0.21046 0.66326 0.0
H1065 H 0.32541 0.1482 0.66641 0.0
H1066 H 0.31458 0.20399 0.65005 0.0
H1067 H 0.30919 0.12311 0.62567 0.0
H1068 H 0.31973 0.06704 0.64197 0.0
H1069 H 0.34277 0.07379 0.62233 0.0
H1070 H 0.46264 0.12657 0.64251 0.0
H1071 H 0.46643 0.04674 0.66478 0.0
H1072 H 0.36168 0.04973 0.66852 0.0
C1073 C 0.3536 0.22559 0.61757 0.0
C1074 C 0.37294 0.26026 0.60643 0.0
C1075 C 0.407 0.25171 0.60726 0.0
C1076 C 0.42159 0.21022 0.61904 0.0
C1077 C 0.40183 0.17744 0.62994 0.0
C1078 C 0.36856 0.18437 0.62924 0.0
C1079 C 0.35283 0.14312 0.64227 0.0
C1080 C 0.33516 0.17858 0.65633 0.0
C1081 C 0.32977 0.09916 0.63247 0.0
C1082 C 0.38249 0.1118 0.65041 0.0
C1083 C 0.41048 0.1325 0.64312 0.0
C1084 C 0.44087 0.11002 0.6483 0.0
C1085 C 0.44274 0.06456 0.66101 0.0
C1086 C 0.41438 0.04163 0.66851 0.0
C1087 C 0.38389 0.06638 0.66322 0.0
loop_
_geom_bond_atom_site_label_1
_geom_bond_atom_site_label_2
_geom_bond_distance
_geom_bond_site_symmetry_2
_ccdc_geom_bond_type
Co0 O1 2.216 . S
Co0 O2 2.091 . S
Co0 O4 2.004 . S
Co0 O10 2.021 . S
Co0 O12 2.137 . S
Co0 O13 2.244 . S
O1 Co0 2.216 . S
O1 C8 1.247 . S
O2 Co0 2.091 . S
O2 C8 1.261 . S
C3 O12 1.247 . S
C3 O13 1.272 . S
O4 Co0 2.004 . S
O4 C9 1.259 . S
Co5 O6 2.061 . S
Co5 O11 2.052 . S
Co5 O13 2.135 . S
O6 Co5 2.061 . S
O6 C9 1.235 . S
C7 O10 1.238 . S
C7 O11 1.241 . S
C8 O1 1.247 . S
C8 O2 1.261 . S
C9 O4 1.259 . S
C9 O6 1.235 . S
O10 Co0 2.021 . S
O10 C7 1.238 . S
O11 Co5 2.052 . S
O11 C7 1.241 . S
O12 Co0 2.137 . S
O12 C3 1.247 . S
O13 Co0 2.244 . S
O13 C3 1.272 . S
O13 Co5 2.135 . S
Co14 O15 2.216 . S
Co14 O16 2.091 . S
Co14 O18 2.004 . S
Co14 O24 2.021 . S
Co14 O26 2.137 . S
Co14 O27 2.244 . S
O15 Co14 2.216 . S
O15 C22 1.247 . S
O16 Co14 2.091 . S
O16 C22 1.261 . S
C17 O26 1.247 . S
C17 O27 1.272 . S
O18 Co14 2.004 . S
O18 C23 1.259 . S
Co19 O20 2.061 . S
Co19 O25 2.052 . S
Co19 O27 2.135 . S
O20 Co19 2.061 . S
O20 C23 1.235 . S
C21 O24 1.238 . S
C21 O25 1.241 . S
C22 O15 1.247 . S
C22 O16 1.261 . S
C23 O18 1.259 . S
C23 O20 1.235 . S
O24 Co14 2.021 . S
O24 C21 1.238 . S
O25 Co19 2.052 . S
O25 C21 1.241 . S
O26 Co14 2.137 . S
O26 C17 1.247 . S
O27 Co14 2.244 . S
O27 C17 1.272 . S
O27 Co19 2.135 . S
Co28 O29 2.216 . S
Co28 O30 2.091 . S
Co28 O32 2.004 . S
Co28 O38 2.021 . S
Co28 O40 2.137 . S
Co28 O41 2.244 . S
O29 Co28 2.216 . S
O29 C36 1.247 . S
O30 Co28 2.091 . S
O30 C36 1.261 . S
C31 O40 1.247 . S
C31 O41 1.272 . S
O32 Co28 2.004 . S
O32 C37 1.259 . S
Co33 O34 2.061 . S
Co33 O39 2.052 . S
Co33 O41 2.135 . S
O34 Co33 2.061 . S
O34 C37 1.235 . S
C35 O38 1.238 . S
C35 O39 1.241 . S
C36 O29 1.247 . S
C36 O30 1.261 . S
C37 O32 1.259 . S
C37 O34 1.235 . S
O38 Co28 2.021 . S
O38 C35 1.238 . S
O39 Co33 2.052 . S
O39 C35 1.241 . S
O40 Co28 2.137 . S
O40 C31 1.247 . S
O41 Co28 2.244 . S
O41 C31 1.272 . S
O41 Co33 2.135 . S
Co42 O43 2.216 . S
Co42 O44 2.091 . S
Co42 O46 2.004 . S
Co42 O52 2.021 . S
Co42 O54 2.137 . S
Co42 O55 2.244 . S
O43 Co42 2.216 . S
O43 C50 1.247 . S
O44 Co42 2.091 . S
O44 C50 1.261 . S
C45 O54 1.247 . S
C45 O55 1.272 . S
O46 Co42 2.004 . S
O46 C51 1.259 . S
Co47 O48 2.061 . S
Co47 O53 2.052 . S
Co47 O55 2.135 . S
O48 Co47 2.061 . S
O48 C51 1.235 . S
C49 O52 1.238 . S
C49 O53 1.241 . S
C50 O43 1.247 . S
C50 O44 1.261 . S
C51 O46 1.259 . S
C51 O48 1.235 . S
O52 Co42 2.021 . S
O52 C49 1.238 . S
O53 Co47 2.052 . S
O53 C49 1.241 . S
O54 Co42 2.137 . S
O54 C45 1.247 . S
O55 Co42 2.244 . S
O55 C45 1.272 . S
O55 Co47 2.135 . S
Co56 O57 2.216 . S
Co56 O58 2.091 . S
Co56 O60 2.004 . S
Co56 O66 2.021 . S
Co56 O68 2.137 . S
Co56 O69 2.244 . S
O57 Co56 2.216 . S
O57 C64 1.247 . S
O58 Co56 2.091 . S
O58 C64 1.261 . S
C59 O68 1.247 . S
C59 O69 1.272 . S
O60 Co56 2.004 . S
O60 C65 1.259 . S
Co61 O62 2.061 . S
Co61 O67 2.052 . S
Co61 O69 2.135 . S
O62 Co61 2.061 . S
O62 C65 1.235 . S
C63 O66 1.238 . S
C63 O67 1.241 . S
C64 O57 1.247 . S
C64 O58 1.261 . S
C65 O60 1.259 . S
C65 O62 1.235 . S
O66 Co56 2.021 . S
O66 C63 1.238 . S
O67 Co61 2.052 . S
O67 C63 1.241 . S
O68 Co56 2.137 . S
O68 C59 1.247 . S
O69 Co56 2.244 . S
O69 C59 1.272 . S
O69 Co61 2.135 . S
Co70 O71 2.216 . S
Co70 O72 2.091 . S
Co70 O74 2.004 . S
Co70 O80 2.021 . S
Co70 O82 2.137 . S
Co70 O83 2.244 . S
O71 Co70 2.216 . S
O71 C78 1.247 . S
O72 Co70 2.091 . S
O72 C78 1.261 . S
C73 O82 1.247 . S
C73 O83 1.272 . S
O74 Co70 2.004 . S
O74 C79 1.259 . S
Co75 O76 2.061 . S
Co75 O81 2.052 . S
Co75 O83 2.135 . S
O76 Co75 2.061 . S
O76 C79 1.235 . S
C77 O80 1.238 . S
C77 O81 1.241 . S
C78 O71 1.247 . S
C78 O72 1.261 . S
C79 O74 1.259 . S
C79 O76 1.235 . S
O80 Co70 2.021 . S
O80 C77 1.238 . S
O81 Co75 2.052 . S
O81 C77 1.241 . S
O82 Co70 2.137 . S
O82 C73 1.247 . S
O83 Co70 2.244 . S
O83 C73 1.272 . S
O83 Co75 2.135 . S
Co84 O85 2.216 . S
Co84 O86 2.091 . S
Co84 O88 2.004 . S
Co84 O94 2.021 . S
Co84 O96 2.137 . S
Co84 O97 2.244 . S
O85 Co84 2.216 . S
O85 C92 1.247 . S
O86 Co84 2.091 . S
O86 C92 1.261 . S
C87 O96 1.247 . S
C87 O97 1.272 . S
O88 Co84 2.004 . S
O88 C93 1.259 . S
Co89 O90 2.061 . S
Co89 O95 2.052 . S
Co89 O97 2.135 . S
O90 Co89 2.061 . S
O90 C93 1.235 . S
C91 O94 1.238 . S
C91 O95 1.241 . S
C92 O85 1.247 . S
C92 O86 1.261 . S
C93 O88 1.259 . S
C93 O90 1.235 . S
O94 Co84 2.021 . S
O94 C91 1.238 . S
O95 Co89 2.052 . S
O95 C91 1.241 . S
O96 Co84 2.137 . S
O96 C87 1.247 . S
O97 Co84 2.244 . S
O97 C87 1.272 . S
O97 Co89 2.135 . S
Co98 O99 2.216 . S
Co98 O100 2.091 . S
Co98 O102 2.004 . S
Co98 O108 2.021 . S
Co98 O110 2.137 . S
Co98 O111 2.244 . S
O99 Co98 2.216 . S
O99 C106 1.247 . S
O100 Co98 2.091 . S
O100 C106 1.261 . S
C101 O110 1.247 . S
C101 O111 1.272 . S
O102 Co98 2.004 . S
O102 C107 1.259 . S
Co103 O104 2.061 . S
Co103 O109 2.052 . S
Co103 O111 2.135 . S
O104 Co103 2.061 . S
O104 C107 1.235 . S
C105 O108 1.238 . S
C105 O109 1.241 . S
C106 O99 1.247 . S
C106 O100 1.261 . S
C107 O102 1.259 . S
C107 O104 1.235 . S
O108 Co98 2.021 . S
O108 C105 1.238 . S
O109 Co103 2.052 . S
O109 C105 1.241 . S
O110 Co98 2.137 . S
O110 C101 1.247 . S
O111 Co98 2.244 . S
O111 C101 1.272 . S
O111 Co103 2.135 . S
Co112 O113 2.216 . S
Co112 O114 2.091 . S
Co112 O116 2.004 . S
Co112 O122 2.021 . S
Co112 O124 2.137 . S
Co112 O125 2.244 . S
O113 Co112 2.216 . S
O113 C120 1.247 . S
O114 Co112 2.091 . S
O114 C120 1.261 . S
C115 O124 1.247 . S
C115 O125 1.272 . S
O116 Co112 2.004 . S
O116 C121 1.259 . S
Co117 O118 2.061 . S
Co117 O123 2.052 . S
Co117 O125 2.135 . S
O118 Co117 2.061 . S
O118 C121 1.235 . S
C119 O122 1.238 . S
C119 O123 1.241 . S
C120 O113 1.247 . S
C120 O114 1.261 . S
C121 O116 1.259 . S
C121 O118 1.235 . S
O122 Co112 2.021 . S
O122 C119 1.238 . S
O123 Co117 2.052 . S
O123 C119 1.241 . S
O124 Co112 2.137 . S
O124 C115 1.247 . S
O125 Co112 2.244 . S
O125 C115 1.272 . S
O125 Co117 2.135 . S
Co126 O127 2.216 . S
Co126 O128 2.091 . S
Co126 O130 2.004 . S
Co126 O136 2.021 . S
Co126 O138 2.137 . S
Co126 O139 2.244 . S
O127 Co126 2.216 . S
O127 C134 1.247 . S
O128 Co126 2.091 . S
O128 C134 1.261 . S
C129 O138 1.247 . S
C129 O139 1.272 . S
O130 Co126 2.004 . S
O130 C135 1.259 . S
Co131 O132 2.061 . S
Co131 O137 2.052 . S
Co131 O139 2.135 . S
O132 Co131 2.061 . S
O132 C135 1.235 . S
C133 O136 1.238 . S
C133 O137 1.241 . S
C134 O127 1.247 . S
C134 O128 1.261 . S
C135 O130 1.259 . S
C135 O132 1.235 . S
O136 Co126 2.021 . S
O136 C133 1.238 . S
O137 Co131 2.052 . S
O137 C133 1.241 . S
O138 Co126 2.137 . S
O138 C129 1.247 . S
O139 Co126 2.244 . S
O139 C129 1.272 . S
O139 Co131 2.135 . S
Co140 O141 2.216 . S
Co140 O142 2.091 . S
Co140 O144 2.004 . S
Co140 O150 2.021 . S
Co140 O152 2.137 . S
Co140 O153 2.244 . S
O141 Co140 2.216 . S
O141 C148 1.247 . S
O142 Co140 2.091 . S
O142 C148 1.261 . S
C143 O152 1.247 . S
C143 O153 1.272 . S
O144 Co140 2.004 . S
O144 C149 1.259 . S
Co145 O146 2.061 . S
Co145 O151 2.052 . S
Co145 O153 2.135 . S
O146 Co145 2.061 . S
O146 C149 1.235 . S
C147 O150 1.238 . S
C147 O151 1.241 . S
C148 O141 1.247 . S
C148 O142 1.261 . S
C149 O144 1.259 . S
C149 O146 1.235 . S
O150 Co140 2.021 . S
O150 C147 1.238 . S
O151 Co145 2.052 . S
O151 C147 1.241 . S
O152 Co140 2.137 . S
O152 C143 1.247 . S
O153 Co140 2.244 . S
O153 C143 1.272 . S
O153 Co145 2.135 . S
Co154 O155 2.216 . S
Co154 O156 2.091 . S
Co154 O158 2.004 . S
Co154 O164 2.021 . S
Co154 O166 2.137 . S
Co154 O167 2.244 . S
O155 Co154 2.216 . S
O155 C162 1.247 . S
O156 Co154 2.091 . S
O156 C162 1.261 . S
C157 O166 1.247 . S
C157 O167 1.272 . S
O158 Co154 2.004 . S
O158 C163 1.259 . S
Co159 O160 2.061 . S
Co159 O165 2.052 . S
Co159 O167 2.135 . S
O160 Co159 2.061 . S
O160 C163 1.235 . S
C161 O164 1.238 . S
C161 O165 1.241 . S
C162 O155 1.247 . S
C162 O156 1.261 . S
C163 O158 1.259 . S
C163 O160 1.235 . S
O164 Co154 2.021 . S
O164 C161 1.238 . S
O165 Co159 2.052 . S
O165 C161 1.241 . S
O166 Co154 2.137 . S
O166 C157 1.247 . S
O167 Co154 2.244 . S
O167 C157 1.272 . S
O167 Co159 2.135 . S
Co168 O169 2.216 . S
Co168 O170 2.091 . S
Co168 O172 2.004 . S
Co168 O178 2.021 . S
Co168 O180 2.137 . S
Co168 O181 2.244 . S
O169 Co168 2.216 . S
O169 C176 1.247 . S
O170 Co168 2.091 . S
O170 C176 1.261 . S
C171 O180 1.247 . S
C171 O181 1.272 . S
O172 Co168 2.004 . S
O172 C177 1.259 . S
Co173 O174 2.061 . S
Co173 O179 2.052 . S
Co173 O181 2.135 . S
O174 Co173 2.061 . S
O174 C177 1.235 . S
C175 O178 1.238 . S
C175 O179 1.241 . S
C176 O169 1.247 . S
C176 O170 1.261 . S
C177 O172 1.259 . S
C177 O174 1.235 . S
O178 Co168 2.021 . S
O178 C175 1.238 . S
O179 Co173 2.052 . S
O179 C175 1.241 . S
O180 Co168 2.137 . S
O180 C171 1.247 . S
O181 Co168 2.244 . S
O181 C171 1.272 . S
O181 Co173 2.135 . S
Co182 O183 2.216 . S
Co182 O184 2.091 . S
Co182 O186 2.004 . S
Co182 O192 2.021 . S
Co182 O194 2.137 . S
Co182 O195 2.244 . S
O183 Co182 2.216 . S
O183 C190 1.247 . S
O184 Co182 2.091 . S
O184 C190 1.261 . S
C185 O194 1.247 . S
C185 O195 1.272 . S
O186 Co182 2.004 . S
O186 C191 1.259 . S
Co187 O188 2.061 . S
Co187 O193 2.052 . S
Co187 O195 2.135 . S
O188 Co187 2.061 . S
O188 C191 1.235 . S
C189 O192 1.238 . S
C189 O193 1.241 . S
C190 O183 1.247 . S
C190 O184 1.261 . S
C191 O186 1.259 . S
C191 O188 1.235 . S
O192 Co182 2.021 . S
O192 C189 1.238 . S
O193 Co187 2.052 . S
O193 C189 1.241 . S
O194 Co182 2.137 . S
O194 C185 1.247 . S
O195 Co182 2.244 . S
O195 C185 1.272 . S
O195 Co187 2.135 . S
Co196 O197 2.216 . S
Co196 O198 2.091 . S
Co196 O200 2.004 . S
Co196 O206 2.021 . S
Co196 O208 2.137 . S
Co196 O209 2.244 . S
O197 Co196 2.216 . S
O197 C204 1.247 . S
O198 Co196 2.091 . S
O198 C204 1.261 . S
C199 O208 1.247 . S
C199 O209 1.272 . S
O200 Co196 2.004 . S
O200 C205 1.259 . S
Co201 O202 2.061 . S
Co201 O207 2.052 . S
Co201 O209 2.135 . S
O202 Co201 2.061 . S
O202 C205 1.235 . S
C203 O206 1.238 . S
C203 O207 1.241 . S
C204 O197 1.247 . S
C204 O198 1.261 . S
C205 O200 1.259 . S
C205 O202 1.235 . S
O206 Co196 2.021 . S
O206 C203 1.238 . S
O207 Co201 2.052 . S
O207 C203 1.241 . S
O208 Co196 2.137 . S
O208 C199 1.247 . S
O209 Co196 2.244 . S
O209 C199 1.272 . S
O209 Co201 2.135 . S
Co210 O211 2.216 . S
Co210 O212 2.091 . S
Co210 O214 2.004 . S
Co210 O220 2.021 . S
Co210 O222 2.137 . S
Co210 O223 2.244 . S
O211 Co210 2.216 . S
O211 C218 1.247 . S
O212 Co210 2.091 . S
O212 C218 1.261 . S
C213 O222 1.247 . S
C213 O223 1.272 . S
O214 Co210 2.004 . S
O214 C219 1.259 . S
Co215 O216 2.061 . S
Co215 O221 2.052 . S
Co215 O223 2.135 . S
O216 Co215 2.061 . S
O216 C219 1.235 . S
C217 O220 1.238 . S
C217 O221 1.241 . S
C218 O211 1.247 . S
C218 O212 1.261 . S
C219 O214 1.259 . S
C219 O216 1.235 . S
O220 Co210 2.021 . S
O220 C217 1.238 . S
O221 Co215 2.052 . S
O221 C217 1.241 . S
O222 Co210 2.137 . S
O222 C213 1.247 . S
O223 Co210 2.244 . S
O223 C213 1.272 . S
O223 Co215 2.135 . S
H224 C236 0.930 . S
H225 C238 0.930 . S
H226 C239 0.930 . S
H227 C243 0.959 . S
H228 C243 0.959 . S
H229 C243 0.961 . S
H230 C244 0.960 . S
H231 C244 0.961 . S
H232 C244 0.959 . S
H233 C247 0.929 . S
H234 C248 0.931 . S
H235 C250 0.930 . S
C236 H224 0.930 . S
C236 C237 1.399 . S
C236 C241 1.399 . S
C237 C236 1.399 . S
C237 C238 1.376 . S
C238 H225 0.930 . S
C238 C237 1.376 . S
C238 C239 1.388 . S
C239 H226 0.930 . S
C239 C238 1.388 . S
C239 C240 1.390 . S
C240 C239 1.390 . S
C240 C241 1.394 . S
C240 C246 1.465 . S
C241 C236 1.399 . S
C241 C240 1.394 . S
C241 C242 1.516 . S
C242 C241 1.516 . S
C242 C243 1.502 . S
C242 C244 1.561 . S
C242 C245 1.526 . S
C243 H227 0.959 . S
C243 H228 0.959 . S
C243 H229 0.961 . S
C243 C242 1.502 . S
C244 H230 0.960 . S
C244 H231 0.961 . S
C244 H232 0.959 . S
C244 C242 1.561 . S
C245 C242 1.526 . S
C245 C246 1.396 . S
C245 C250 1.390 . S
C246 C240 1.465 . S
C246 C245 1.396 . S
C246 C247 1.399 . S
C247 H233 0.929 . S
C247 C246 1.399 . S
C247 C248 1.385 . S
C248 H234 0.931 . S
C248 C247 1.385 . S
C248 C249 1.389 . S
C249 C248 1.389 . S
C249 C250 1.387 . S
C250 H235 0.930 . S
C250 C245 1.390 . S
C250 C249 1.387 . S
H251 C263 0.930 1_545 S
H252 C265 0.930 . S
H253 C266 0.930 1_455 S
H254 C270 0.959 . S
H255 C270 0.959 . S
H256 C270 0.961 . S
H257 C271 0.960 1_655 S
H258 C271 0.961 . S
H259 C271 0.959 . S
H260 C274 0.929 . S
H261 C275 0.931 . S
H262 C277 0.930 . S
C263 H251 0.930 1_565 S
C263 C264 1.399 . S
C263 C268 1.399 1_565 S
C264 C263 1.399 . S
C264 C265 1.376 . S
C265 H252 0.930 . S
C265 C264 1.376 . S
C265 C266 1.388 . S
C266 H253 0.930 1_655 S
C266 C265 1.388 . S
C266 C267 1.390 . S
C267 C266 1.390 . S
C267 C268 1.394 1_565 S
C267 C273 1.465 1_655 S
C268 C263 1.399 1_545 S
C268 C267 1.394 1_545 S
C268 C269 1.516 . S
C269 C268 1.516 . S
C269 C270 1.502 . S
C269 C271 1.561 1_655 S
C269 C272 1.526 1_655 S
C270 H254 0.959 . S
C270 H255 0.959 . S
C270 H256 0.961 . S
C270 C269 1.502 . S
C271 H257 0.960 1_455 S
C271 H258 0.961 . S
C271 H259 0.959 . S
C271 C269 1.561 1_455 S
C272 C269 1.526 1_455 S
C272 C273 1.396 1_545 S
C272 C277 1.390 . S
C273 C267 1.465 1_455 S
C273 C272 1.396 1_565 S
C273 C274 1.399 . S
C274 H260 0.929 . S
C274 C273 1.399 . S
C274 C275 1.385 . S
C275 H261 0.931 . S
C275 C274 1.385 . S
C275 C276 1.389 1_565 S
C276 C275 1.389 1_545 S
C276 C277 1.387 . S
C277 H262 0.930 . S
C277 C272 1.390 . S
C277 C276 1.387 . S
H278 C290 0.930 1_545 S
H279 C292 0.930 . S
H280 C293 0.930 . S
H281 C297 0.959 . S
H282 C297 0.959 . S
H283 C297 0.961 . S
H284 C298 0.960 . S
H285 C298 0.961 . S
H286 C298 0.959 . S
H287 C301 0.929 . S
H288 C302 0.931 1_565 S
H289 C304 0.930 . S
C290 H278 0.930 1_565 S
C290 C291 1.399 . S
C290 C295 1.399 . S
C291 C290 1.399 . S
C291 C292 1.376 . S
C292 H279 0.930 . S
C292 C291 1.376 . S
C292 C293 1.388 . S
C293 H280 0.930 . S
C293 C292 1.388 . S
C293 C294 1.390 . S
C294 C293 1.390 . S
C294 C295 1.394 . S
C294 C300 1.465 . S
C295 C290 1.399 . S
C295 C294 1.394 . S
C295 C296 1.516 1_565 S
C296 C295 1.516 1_545 S
C296 C297 1.502 . S
C296 C298 1.561 . S
C296 C299 1.526 . S
C297 H281 0.959 . S
C297 H282 0.959 . S
C297 H283 0.961 . S
C297 C296 1.502 . S
C298 H284 0.960 . S
C298 H285 0.961 . S
C298 H286 0.959 . S
C298 C296 1.561 . S
C299 C296 1.526 . S
C299 C300 1.396 1_545 S
C299 C304 1.390 . S
C300 C294 1.465 . S
C300 C299 1.396 1_565 S
C300 C301 1.399 . S
C301 H287 0.929 . S
C301 C300 1.399 . S
C301 C302 1.385 1_565 S
C302 H288 0.931 1_545 S
C302 C301 1.385 1_545 S
C302 C303 1.389 . S
C303 C302 1.389 . S
C303 C304 1.387 . S
C304 H289 0.930 . S
C304 C299 1.390 . S
C304 C303 1.387 . S
H305 C317 0.930 . S
H306 C319 0.930 . S
H307 C320 0.930 . S
H308 C324 0.959 . S
H309 C324 0.959 . S
H310 C324 0.961 . S
H311 C325 0.960 . S
H312 C325 0.961 . S
H313 C325 0.959 . S
H314 C328 0.929 . S
H315 C329 0.931 . S
H316 C331 0.930 . S
C317 H305 0.930 . S
C317 C318 1.399 . S
C317 C322 1.399 . S
C318 C317 1.399 . S
C318 C319 1.376 . S
C319 H306 0.930 . S
C319 C318 1.376 . S
C319 C320 1.388 . S
C320 H307 0.930 . S
C320 C319 1.388 . S
C320 C321 1.390 . S
C321 C320 1.390 . S
C321 C322 1.394 . S
C321 C327 1.455 1_455 S
C322 C317 1.399 . S
C322 C321 1.394 . S
C322 C323 1.516 1_455 S
C323 C322 1.516 1_655 S
C323 C324 1.502 . S
C323 C325 1.561 . S
C323 C326 1.526 . S
C324 H308 0.959 . S
C324 H309 0.959 . S
C324 H310 0.961 . S
C324 C323 1.502 . S
C325 H311 0.960 . S
C325 H312 0.961 . S
C325 H313 0.959 . S
C325 C323 1.561 . S
C326 C323 1.526 . S
C326 C327 1.409 . S
C326 C331 1.390 . S
C327 C321 1.455 1_655 S
C327 C326 1.409 . S
C327 C328 1.397 1_655 S
C328 H314 0.929 . S
C328 C327 1.397 1_455 S
C328 C329 1.385 1_455 S
C329 H315 0.931 . S
C329 C328 1.385 1_655 S
C329 C330 1.389 . S
C330 C329 1.389 . S
C330 C331 1.387 . S
C331 H316 0.930 . S
C331 C326 1.390 . S
C331 C330 1.387 . S
H332 C344 0.930 . S
H333 C346 0.930 . S
H334 C347 0.930 . S
H335 C351 0.959 . S
H336 C351 0.959 . S
H337 C351 0.961 . S
H338 C352 0.960 . S
H339 C352 0.961 . S
H340 C352 0.959 . S
H341 C355 0.929 . S
H342 C356 0.931 . S
H343 C358 0.930 . S
C344 H332 0.930 . S
C344 C345 1.399 . S
C344 C349 1.399 . S
C345 C344 1.399 . S
C345 C346 1.376 . S
C346 H333 0.930 . S
C346 C345 1.376 . S
C346 C347 1.388 . S
C347 H334 0.930 . S
C347 C346 1.388 . S
C347 C348 1.390 . S
C348 C347 1.390 . S
C348 C349 1.394 . S
C348 C354 1.465 . S
C349 C344 1.399 . S
C349 C348 1.394 . S
C349 C350 1.516 . S
C350 C349 1.516 . S
C350 C351 1.502 . S
C350 C352 1.561 . S
C350 C353 1.526 . S
C351 H335 0.959 . S
C351 H336 0.959 . S
C351 H337 0.961 . S
C351 C350 1.502 . S
C352 H338 0.960 . S
C352 H339 0.961 . S
C352 H340 0.959 . S
C352 C350 1.561 . S
C353 C350 1.526 . S
C353 C354 1.396 . S
C353 C358 1.390 . S
C354 C348 1.465 . S
C354 C353 1.396 . S
C354 C355 1.399 . S
C355 H341 0.929 . S
C355 C354 1.399 . S
C355 C356 1.385 . S
C356 H342 0.931 . S
C356 C355 1.385 . S
C356 C357 1.389 . S
C357 C356 1.389 . S
C357 C358 1.387 . S
C358 H343 0.930 . S
C358 C353 1.390 . S
C358 C357 1.387 . S
H359 C371 0.930 . S
H360 C373 0.930 . S
H361 C374 0.930 . S
H362 C378 0.959 . S
H363 C378 0.959 . S
H364 C378 0.961 . S
H365 C379 0.960 . S
H366 C379 0.961 . S
H367 C379 0.959 . S
H368 C382 0.929 . S
H369 C383 0.931 . S
H370 C385 0.930 . S
C371 H359 0.930 . S
C371 C372 1.399 . S
C371 C376 1.399 . S
C372 C371 1.399 . S
C372 C373 1.376 . S
C373 H360 0.930 . S
C373 C372 1.376 . S
C373 C374 1.388 . S
C374 H361 0.930 . S
C374 C373 1.388 . S
C374 C375 1.390 . S
C375 C374 1.390 . S
C375 C376 1.394 . S
C375 C381 1.465 1_545 S
C376 C371 1.399 . S
C376 C375 1.394 . S
C376 C377 1.516 1_545 S
C377 C376 1.516 1_565 S
C377 C378 1.502 1_565 S
C377 C379 1.561 . S
C377 C380 1.526 . S
C378 H362 0.959 . S
C378 H363 0.959 . S
C378 H364 0.961 . S
C378 C377 1.502 1_545 S
C379 H365 0.960 . S
C379 H366 0.961 . S
C379 H367 0.959 . S
C379 C377 1.561 . S
C380 C377 1.526 . S
C380 C381 1.396 . S
C380 C385 1.390 . S
C381 C375 1.465 1_565 S
C381 C380 1.396 . S
C381 C382 1.399 . S
C382 H368 0.929 . S
C382 C381 1.399 . S
C382 C383 1.385 . S
C383 H369 0.931 . S
C383 C382 1.385 . S
C383 C384 1.389 . S
C384 C383 1.389 . S
C384 C385 1.387 . S
C385 H370 0.930 . S
C385 C380 1.390 . S
C385 C384 1.387 . S
H386 C398 0.930 . S
H387 C400 0.930 . S
H388 C401 0.930 . S
H389 C405 0.959 . S
H390 C405 0.959 1_455 S
H391 C405 0.961 . S
H392 C406 0.960 . S
H393 C406 0.961 . S
H394 C406 0.959 . S
H395 C409 0.929 . S
H396 C410 0.931 . S
H397 C412 0.930 . S
C398 H386 0.930 . S
C398 C399 1.399 . S
C398 C403 1.399 . S
C399 C398 1.399 . S
C399 C400 1.376 . S
C400 H387 0.930 . S
C400 C399 1.376 . S
C400 C401 1.388 . S
C401 H388 0.930 . S
C401 C400 1.388 . S
C401 C402 1.390 . S
C402 C401 1.390 . S
C402 C403 1.394 . S
C402 C408 1.465 1_655 S
C403 C398 1.399 . S
C403 C402 1.394 . S
C403 C404 1.516 1_655 S
C404 C403 1.516 1_455 S
C404 C405 1.502 1_455 S
C404 C406 1.561 . S
C404 C407 1.526 . S
C405 H389 0.959 . S
C405 H390 0.959 1_655 S
C405 H391 0.961 . S
C405 C404 1.502 1_655 S
C406 H392 0.960 . S
C406 H393 0.961 . S
C406 H394 0.959 . S
C406 C404 1.561 . S
C407 C404 1.526 . S
C407 C408 1.396 . S
C407 C412 1.390 . S
C408 C402 1.465 1_455 S
C408 C407 1.396 . S
C408 C409 1.399 . S
C409 H395 0.929 . S
C409 C408 1.399 . S
C409 C410 1.385 . S
C410 H396 0.931 . S
C410 C409 1.385 . S
C410 C411 1.389 . S
C411 C410 1.389 . S
C411 C412 1.387 . S
C412 H397 0.930 . S
C412 C407 1.390 . S
C412 C411 1.387 . S
H413 C425 0.930 . S
H414 C427 0.930 . S
H415 C428 0.930 . S
H416 C432 0.959 . S
H417 C432 0.959 . S
H418 C432 0.961 . S
H419 C433 0.960 . S
H420 C433 0.961 . S
H421 C433 0.959 . S
H422 C436 0.929 . S
H423 C437 0.931 . S
H424 C439 0.930 . S
C425 H413 0.930 . S
C425 C426 1.399 . S
C425 C430 1.399 . S
C426 C425 1.399 . S
C426 C427 1.376 . S
C427 H414 0.930 . S
C427 C426 1.376 . S
C427 C428 1.388 . S
C428 H415 0.930 . S
C428 C427 1.388 . S
C428 C429 1.390 . S
C429 C428 1.390 . S
C429 C430 1.394 . S
C429 C435 1.465 1_554 S
C430 C425 1.399 . S
C430 C429 1.394 . S
C430 C431 1.516 . S
C431 C430 1.516 . S
C431 C432 1.502 1_554 S
C431 C433 1.561 . S
C431 C434 1.526 1_554 S
C432 H416 0.959 . S
C432 H417 0.959 . S
C432 H418 0.961 . S
C432 C431 1.502 1_556 S
C433 H419 0.960 . S
C433 H420 0.961 . S
C433 H421 0.959 . S
C433 C431 1.561 . S
C434 C431 1.526 1_556 S
C434 C435 1.396 . S
C434 C439 1.390 . S
C435 C429 1.465 1_556 S
C435 C434 1.396 . S
C435 C436 1.399 . S
C436 H422 0.929 . S
C436 C435 1.399 . S
C436 C437 1.385 . S
C437 H423 0.931 . S
C437 C436 1.385 . S
C437 C438 1.389 . S
C438 C437 1.389 . S
C438 C439 1.387 . S
C439 H424 0.930 . S
C439 C434 1.390 . S
C439 C438 1.387 . S
H440 C452 0.930 . S
H441 C454 0.930 . S
H442 C455 0.930 . S
H443 C459 0.959 . S
H444 C459 0.959 . S
H445 C459 0.961 . S
H446 C460 0.960 . S
H447 C460 0.961 . S
H448 C460 0.959 . S
H449 C463 0.929 . S
H450 C464 0.931 . S
H451 C466 0.930 . S
C452 H440 0.930 . S
C452 C453 1.399 . S
C452 C457 1.399 . S
C453 C452 1.399 . S
C453 C454 1.376 . S
C454 H441 0.930 . S
C454 C453 1.376 . S
C454 C455 1.388 1_556 S
C455 H442 0.930 . S
C455 C454 1.388 1_554 S
C455 C456 1.400 . S
C456 C455 1.400 . S
C456 C457 1.336 1_554 S
C456 C462 1.510 . S
C457 C452 1.399 . S
C457 C456 1.336 1_556 S
C457 C458 1.516 1_455 S
C458 C457 1.516 1_655 S
C458 C459 1.502 . S
C458 C460 1.561 . S
C458 C461 1.526 1_556 S
C459 H443 0.959 . S
C459 H444 0.959 . S
C459 H445 0.961 . S
C459 C458 1.502 . S
C460 H446 0.960 . S
C460 H447 0.961 . S
C460 H448 0.959 . S
C460 C458 1.561 . S
C461 C458 1.526 1_554 S
C461 C462 1.393 1_655 S
C461 C466 1.390 . S
C462 C456 1.510 . S
C462 C461 1.393 1_455 S
C462 C463 1.399 . S
C463 H449 0.929 . S
C463 C462 1.399 . S
C463 C464 1.385 1_455 S
C464 H450 0.931 . S
C464 C463 1.385 1_655 S
C464 C465 1.389 . S
C465 C464 1.389 . S
C465 C466 1.387 . S
C466 H451 0.930 . S
C466 C461 1.390 . S
C466 C465 1.387 . S
H467 C479 0.930 . S
H468 C481 0.930 . S
H469 C482 0.930 . S
H470 C486 0.959 . S
H471 C486 0.959 . S
H472 C486 0.961 . S
H473 C487 0.960 . S
H474 C487 0.961 . S
H475 C487 0.959 . S
H476 C490 0.929 . S
H477 C491 0.931 . S
H478 C493 0.930 . S
C479 H467 0.930 . S
C479 C480 1.399 . S
C479 C484 1.399 . S
C480 C479 1.399 . S
C480 C481 1.376 . S
C481 H468 0.930 . S
C481 C480 1.376 . S
C481 C482 1.388 . S
C482 H469 0.930 . S
C482 C481 1.388 . S
C482 C483 1.390 . S
C483 C482 1.390 . S
C483 C484 1.394 . S
C483 C489 1.465 . S
C484 C479 1.399 . S
C484 C483 1.394 . S
C484 C485 1.516 . S
C485 C484 1.516 . S
C485 C486 1.502 . S
C485 C487 1.561 . S
C485 C488 1.526 . S
C486 H470 0.959 . S
C486 H471 0.959 . S
C486 H472 0.961 . S
C486 C485 1.502 . S
C487 H473 0.960 . S
C487 H474 0.961 . S
C487 H475 0.959 . S
C487 C485 1.561 . S
C488 C485 1.526 . S
C488 C489 1.396 . S
C488 C493 1.390 . S
C489 C483 1.465 . S
C489 C488 1.396 . S
C489 C490 1.399 . S
C490 H476 0.929 . S
C490 C489 1.399 . S
C490 C491 1.385 . S
C491 H477 0.931 . S
C491 C490 1.385 . S
C491 C492 1.389 . S
C492 C491 1.389 . S
C492 C493 1.387 . S
C493 H478 0.930 . S
C493 C488 1.390 . S
C493 C492 1.387 . S
H494 C506 0.930 . S
H495 C508 0.930 . S
H496 C509 0.930 . S
H497 C513 0.959 . S
H498 C513 0.959 . S
H499 C513 0.961 . S
H500 C514 0.960 . S
H501 C514 0.961 . S
H502 C514 0.959 . S
H503 C517 0.929 . S
H504 C518 0.931 . S
H505 C520 0.930 . S
C506 H494 0.930 . S
C506 C507 1.399 . S
C506 C511 1.399 . S
C507 C506 1.399 . S
C507 C508 1.376 . S
C508 H495 0.930 . S
C508 C507 1.376 . S
C508 C509 1.388 . S
C509 H496 0.930 . S
C509 C508 1.388 . S
C509 C510 1.390 . S
C510 C509 1.390 . S
C510 C511 1.394 . S
C510 C516 1.487 . S
C511 C506 1.399 . S
C511 C510 1.394 . S
C511 C512 1.516 1_556 S
C512 C511 1.516 1_554 S
C512 C513 1.502 . S
C512 C514 1.561 . S
C512 C515 1.526 . S
C513 H497 0.959 . S
C513 H498 0.959 . S
C513 H499 0.961 . S
C513 C512 1.502 . S
C514 H500 0.960 . S
C514 H501 0.961 . S
C514 H502 0.959 . S
C514 C512 1.561 . S
C515 C512 1.526 . S
C515 C516 1.367 1_554 S
C515 C520 1.390 . S
C516 C510 1.487 . S
C516 C515 1.367 1_556 S
C516 C517 1.403 . S
C517 H503 0.929 . S
C517 C516 1.403 . S
C517 C518 1.385 1_556 S
C518 H504 0.931 . S
C518 C517 1.385 1_554 S
C518 C519 1.389 . S
C519 C518 1.389 . S
C519 C520 1.387 . S
C520 H505 0.930 . S
C520 C515 1.390 . S
C520 C519 1.387 . S
H521 C533 0.930 . S
H522 C535 0.930 . S
H523 C536 0.930 . S
H524 C540 0.959 . S
H525 C540 0.959 . S
H526 C540 0.961 . S
H527 C541 0.960 . S
H528 C541 0.961 . S
H529 C541 0.959 . S
H530 C544 0.929 . S
H531 C545 0.931 . S
H532 C547 0.930 . S
C533 H521 0.930 . S
C533 C534 1.399 . S
C533 C538 1.399 . S
C534 C533 1.399 . S
C534 C535 1.376 . S
C535 H522 0.930 . S
C535 C534 1.376 . S
C535 C536 1.388 . S
C536 H523 0.930 . S
C536 C535 1.388 . S
C536 C537 1.390 . S
C537 C536 1.390 . S
C537 C538 1.394 . S
C537 C543 1.465 . S
C538 C533 1.399 . S
C538 C537 1.394 . S
C538 C539 1.516 . S
C539 C538 1.516 . S
C539 C540 1.502 . S
C539 C541 1.561 . S
C539 C542 1.526 . S
C540 H524 0.959 . S
C540 H525 0.959 . S
C540 H526 0.961 . S
C540 C539 1.502 . S
C541 H527 0.960 . S
C541 H528 0.961 . S
C541 H529 0.959 . S
C541 C539 1.561 . S
C542 C539 1.526 . S
C542 C543 1.396 . S
C542 C547 1.390 . S
C543 C537 1.465 . S
C543 C542 1.396 . S
C543 C544 1.399 . S
C544 H530 0.929 . S
C544 C543 1.399 . S
C544 C545 1.385 . S
C545 H531 0.931 . S
C545 C544 1.385 . S
C545 C546 1.389 . S
C546 C545 1.389 . S
C546 C547 1.387 . S
C547 H532 0.930 . S
C547 C542 1.390 . S
C547 C546 1.387 . S
H548 C560 0.930 . S
H549 C562 0.927 1_565 S
H550 C563 0.930 . S
H551 C567 0.959 . S
H552 C567 0.959 . S
H553 C567 0.961 . S
H554 C568 0.960 1_556 S
H555 C568 0.961 . S
H556 C568 0.959 1_556 S
H557 C571 0.894 1_556 S
H558 C572 0.931 . S
H559 C574 0.930 1_545 S
C560 H548 0.930 . S
C560 C561 1.399 . S
C560 C565 1.399 . S
C561 C560 1.399 . S
C561 C562 1.384 . S
C562 H549 0.927 1_545 S
C562 C561 1.384 . S
C562 C563 1.384 1_545 S
C563 H550 0.930 . S
C563 C562 1.384 1_565 S
C563 C564 1.390 . S
C564 C563 1.390 . S
C564 C565 1.394 1_565 S
C564 C570 1.454 1_556 S
C565 C560 1.399 . S
C565 C564 1.394 1_545 S
C565 C566 1.516 1_556 S
C566 C565 1.516 1_554 S
C566 C567 1.502 . S
C566 C568 1.561 . S
C566 C569 1.526 . S
C567 H551 0.959 . S
C567 H552 0.959 . S
C567 H553 0.961 . S
C567 C566 1.502 . S
C568 H554 0.960 1_554 S
C568 H555 0.961 . S
C568 H556 0.959 1_554 S
C568 C566 1.561 . S
C569 C566 1.526 . S
C569 C570 1.408 1_545 S
C569 C574 1.390 1_545 S
C570 C564 1.454 1_554 S
C570 C569 1.408 1_565 S
C570 C571 1.398 . S
C571 H557 0.894 1_554 S
C571 C570 1.398 . S
C571 C572 1.425 . S
C572 H558 0.931 . S
C572 C571 1.425 . S
C572 C573 1.389 . S
C573 C572 1.389 . S
C573 C574 1.387 . S
C574 H559 0.930 1_565 S
C574 C569 1.390 1_565 S
C574 C573 1.387 . S
H575 C587 0.930 . S
H576 C589 0.930 . S
H577 C590 0.930 . S
H578 C594 0.959 . S
H579 C594 0.959 . S
H580 C594 0.961 . S
H581 C595 0.960 . S
H582 C595 0.961 . S
H583 C595 0.959 . S
H584 C598 0.929 . S
H585 C599 0.931 . S
H586 C601 0.930 . S
C587 H575 0.930 . S
C587 C588 1.399 . S
C587 C592 1.399 . S
C588 C587 1.399 . S
C588 C589 1.376 . S
C589 H576 0.930 . S
C589 C588 1.376 . S
C589 C590 1.388 . S
C590 H577 0.930 . S
C590 C589 1.388 . S
C590 C591 1.390 . S
C591 C590 1.390 . S
C591 C592 1.394 . S
C591 C597 1.465 . S
C592 C587 1.399 . S
C592 C591 1.394 . S
C592 C593 1.516 . S
C593 C592 1.516 . S
C593 C594 1.502 . S
C593 C595 1.561 . S
C593 C596 1.526 . S
C594 H578 0.959 . S
C594 H579 0.959 . S
C594 H580 0.961 . S
C594 C593 1.502 . S
C595 H581 0.960 . S
C595 H582 0.961 . S
C595 H583 0.959 . S
C595 C593 1.561 . S
C596 C593 1.526 . S
C596 C597 1.396 . S
C596 C601 1.390 . S
C597 C591 1.465 . S
C597 C596 1.396 . S
C597 C598 1.399 . S
C598 H584 0.929 . S
C598 C597 1.399 . S
C598 C599 1.385 . S
C599 H585 0.931 . S
C599 C598 1.385 . S
C599 C600 1.389 . S
C600 C599 1.389 . S
C600 C601 1.387 . S
C601 H586 0.930 . S
C601 C596 1.390 . S
C601 C600 1.387 . S
H602 C614 0.930 . S
H603 C616 0.930 . S
H604 C617 0.930 . S
H605 C621 0.959 . S
H606 C621 0.959 . S
H607 C621 0.961 . S
H608 C622 0.960 . S
H609 C622 0.961 . S
H610 C622 0.959 . S
H611 C625 0.929 . S
H612 C626 0.931 . S
H613 C628 0.930 . S
C614 H602 0.930 . S
C614 C615 1.399 . S
C614 C619 1.399 . S
C615 C614 1.399 . S
C615 C616 1.376 . S
C616 H603 0.930 . S
C616 C615 1.376 . S
C616 C617 1.388 . S
C617 H604 0.930 . S
C617 C616 1.388 . S
C617 C618 1.390 . S
C618 C617 1.390 . S
C618 C619 1.394 . S
C618 C624 1.465 . S
C619 C614 1.399 . S
C619 C618 1.394 . S
C619 C620 1.516 . S
C620 C619 1.516 . S
C620 C621 1.502 . S
C620 C622 1.561 . S
C620 C623 1.526 . S
C621 H605 0.959 . S
C621 H606 0.959 . S
C621 H607 0.961 . S
C621 C620 1.502 . S
C622 H608 0.960 . S
C622 H609 0.961 . S
C622 H610 0.959 . S
C622 C620 1.561 . S
C623 C620 1.526 . S
C623 C624 1.396 . S
C623 C628 1.390 . S
C624 C618 1.465 . S
C624 C623 1.396 . S
C624 C625 1.399 . S
C625 H611 0.929 . S
C625 C624 1.399 . S
C625 C626 1.385 . S
C626 H612 0.931 . S
C626 C625 1.385 . S
C626 C627 1.389 . S
C627 C626 1.389 . S
C627 C628 1.387 . S
C628 H613 0.930 . S
C628 C623 1.390 . S
C628 C627 1.387 . S
H629 C641 0.930 . S
H630 C643 0.930 . S
H631 C644 0.930 . S
H632 C648 0.959 . S
H633 C648 0.959 . S
H634 C648 0.961 . S
H635 C649 0.960 . S
H636 C649 0.961 . S
H637 C649 0.959 . S
H638 C652 0.929 . S
H639 C653 0.931 . S
H640 C655 0.930 . S
C641 H629 0.930 . S
C641 C642 1.399 . S
C641 C646 1.399 . S
C642 C641 1.399 . S
C642 C643 1.376 . S
C643 H630 0.930 . S
C643 C642 1.376 . S
C643 C644 1.388 . S
C644 H631 0.930 . S
C644 C643 1.388 . S
C644 C645 1.390 . S
C645 C644 1.390 . S
C645 C646 1.394 . S
C645 C651 1.465 . S
C646 C641 1.399 . S
C646 C645 1.394 . S
C646 C647 1.516 . S
C647 C646 1.516 . S
C647 C648 1.502 . S
C647 C649 1.561 . S
C647 C650 1.526 . S
C648 H632 0.959 . S
C648 H633 0.959 . S
C648 H634 0.961 . S
C648 C647 1.502 . S
C649 H635 0.960 . S
C649 H636 0.961 . S
C649 H637 0.959 . S
C649 C647 1.561 . S
C650 C647 1.526 . S
C650 C651 1.396 . S
C650 C655 1.390 . S
C651 C645 1.465 . S
C651 C650 1.396 . S
C651 C652 1.399 . S
C652 H638 0.929 . S
C652 C651 1.399 . S
C652 C653 1.385 . S
C653 H639 0.931 . S
C653 C652 1.385 . S
C653 C654 1.389 . S
C654 C653 1.389 . S
C654 C655 1.387 . S
C655 H640 0.930 . S
C655 C650 1.390 . S
C655 C654 1.387 . S
H656 C668 0.930 . S
H657 C670 0.930 . S
H658 C671 0.930 . S
H659 C675 0.959 . S
H660 C675 0.959 . S
H661 C675 0.961 . S
H662 C676 0.960 . S
H663 C676 0.961 . S
H664 C676 0.959 . S
H665 C679 0.929 . S
H666 C680 0.931 . S
H667 C682 0.930 1_545 S
C668 H656 0.930 . S
C668 C669 1.399 . S
C668 C673 1.399 . S
C669 C668 1.399 . S
C669 C670 1.376 . S
C670 H657 0.930 . S
C670 C669 1.376 . S
C670 C671 1.388 . S
C671 H658 0.930 . S
C671 C670 1.388 . S
C671 C672 1.390 . S
C672 C671 1.390 . S
C672 C673 1.394 . S
C672 C678 1.465 . S
C673 C668 1.399 . S
C673 C672 1.394 . S
C673 C674 1.516 . S
C674 C673 1.516 . S
C674 C675 1.502 . S
C674 C676 1.561 . S
C674 C677 1.526 . S
C675 H659 0.959 . S
C675 H660 0.959 . S
C675 H661 0.961 . S
C675 C674 1.502 . S
C676 H662 0.960 . S
C676 H663 0.961 . S
C676 H664 0.959 . S
C676 C674 1.561 . S
C677 C674 1.526 . S
C677 C678 1.396 . S
C677 C682 1.390 . S
C678 C672 1.465 . S
C678 C677 1.396 . S
C678 C679 1.399 . S
C679 H665 0.929 . S
C679 C678 1.399 . S
C679 C680 1.385 . S
C680 H666 0.931 . S
C680 C679 1.385 . S
C680 C681 1.389 . S
C681 C680 1.389 . S
C681 C682 1.387 . S
C682 H667 0.930 1_565 S
C682 C677 1.390 . S
C682 C681 1.387 . S
H683 C695 0.930 . S
H684 C697 0.930 . S
H685 C698 0.930 . S
H686 C702 0.959 . S
H687 C702 0.959 . S
H688 C702 0.961 . S
H689 C703 0.960 . S
H690 C703 0.961 . S
H691 C703 0.959 . S
H692 C706 0.929 . S
H693 C707 0.931 . S
H694 C709 0.930 . S
C695 H683 0.930 . S
C695 C696 1.399 . S
C695 C700 1.399 . S
C696 C695 1.399 . S
C696 C697 1.376 . S
C697 H684 0.930 . S
C697 C696 1.376 . S
C697 C698 1.388 . S
C698 H685 0.930 . S
C698 C697 1.388 . S
C698 C699 1.390 . S
C699 C698 1.390 . S
C699 C700 1.394 . S
C699 C705 1.465 . S
C700 C695 1.399 . S
C700 C699 1.394 . S
C700 C701 1.516 . S
C701 C700 1.516 . S
C701 C702 1.502 . S
C701 C703 1.561 . S
C701 C704 1.526 . S
C702 H686 0.959 . S
C702 H687 0.959 . S
C702 H688 0.961 . S
C702 C701 1.502 . S
C703 H689 0.960 . S
C703 H690 0.961 . S
C703 H691 0.959 . S
C703 C701 1.561 . S
C704 C701 1.526 . S
C704 C705 1.396 . S
C704 C709 1.390 . S
C705 C699 1.465 . S
C705 C704 1.396 . S
C705 C706 1.399 . S
C706 H692 0.929 . S
C706 C705 1.399 . S
C706 C707 1.385 . S
C707 H693 0.931 . S
C707 C706 1.385 . S
C707 C708 1.389 . S
C708 C707 1.389 . S
C708 C709 1.387 . S
C709 H694 0.930 . S
C709 C704 1.390 . S
C709 C708 1.387 . S
H710 C722 0.930 . S
H711 C724 0.930 . S
H712 C725 0.930 . S
H713 C729 0.959 . S
H714 C729 0.959 . S
H715 C729 0.961 . S
H716 C730 0.960 . S
H717 C730 0.961 . S
H718 C730 0.959 . S
H719 C733 0.929 . S
H720 C734 0.931 . S
H721 C736 0.930 . S
C722 H710 0.930 . S
C722 C723 1.399 . S
C722 C727 1.399 . S
C723 C722 1.399 . S
C723 C724 1.376 . S
C724 H711 0.930 . S
C724 C723 1.376 . S
C724 C725 1.388 . S
C725 H712 0.930 . S
C725 C724 1.388 . S
C725 C726 1.390 . S
C726 C725 1.390 . S
C726 C727 1.394 . S
C726 C732 1.465 . S
C727 C722 1.399 . S
C727 C726 1.394 . S
C727 C728 1.516 . S
C728 C727 1.516 . S
C728 C729 1.502 . S
C728 C730 1.561 . S
C728 C731 1.526 . S
C729 H713 0.959 . S
C729 H714 0.959 . S
C729 H715 0.961 . S
C729 C728 1.502 . S
C730 H716 0.960 . S
C730 H717 0.961 . S
C730 H718 0.959 . S
C730 C728 1.561 . S
C731 C728 1.526 . S
C731 C732 1.396 . S
C731 C736 1.390 . S
C732 C726 1.465 . S
C732 C731 1.396 . S
C732 C733 1.399 . S
C733 H719 0.929 . S
C733 C732 1.399 . S
C733 C734 1.385 . S
C734 H720 0.931 . S
C734 C733 1.385 . S
C734 C735 1.389 . S
C735 C734 1.389 . S
C735 C736 1.387 . S
C736 H721 0.930 . S
C736 C731 1.390 . S
C736 C735 1.387 . S
H737 C749 0.930 . S
H738 C751 0.930 . S
H739 C752 0.930 . S
H740 C756 0.959 . S
H741 C756 0.959 . S
H742 C756 0.961 . S
H743 C757 0.960 . S
H744 C757 0.961 1_545 S
H745 C757 0.959 . S
H746 C760 0.929 . S
H747 C761 0.931 . S
H748 C763 0.930 1_545 S
C749 H737 0.930 . S
C749 C750 1.399 . S
C749 C754 1.399 . S
C750 C749 1.399 . S
C750 C751 1.376 . S
C751 H738 0.930 . S
C751 C750 1.376 . S
C751 C752 1.388 . S
C752 H739 0.930 . S
C752 C751 1.388 . S
C752 C753 1.390 . S
C753 C752 1.390 . S
C753 C754 1.394 . S
C753 C759 1.465 . S
C754 C749 1.399 . S
C754 C753 1.394 . S
C754 C755 1.516 . S
C755 C754 1.516 . S
C755 C756 1.502 . S
C755 C757 1.561 . S
C755 C758 1.526 . S
C756 H740 0.959 . S
C756 H741 0.959 . S
C756 H742 0.961 . S
C756 C755 1.502 . S
C757 H743 0.960 . S
C757 H744 0.961 1_565 S
C757 H745 0.959 . S
C757 C755 1.561 . S
C758 C755 1.526 . S
C758 C759 1.396 . S
C758 C763 1.390 . S
C759 C753 1.465 . S
C759 C758 1.396 . S
C759 C760 1.399 . S
C760 H746 0.929 . S
C760 C759 1.399 . S
C760 C761 1.385 . S
C761 H747 0.931 . S
C761 C760 1.385 . S
C761 C762 1.389 . S
C762 C761 1.389 . S
C762 C763 1.387 . S
C763 H748 0.930 1_565 S
C763 C758 1.390 . S
C763 C762 1.387 . S
H764 C776 0.930 . S
H765 C778 0.930 . S
H766 C779 0.930 . S
H767 C783 0.959 . S
H768 C783 0.959 . S
H769 C783 0.961 . S
H770 C784 0.960 . S
H771 C784 0.961 1_565 S
H772 C784 0.959 . S
H773 C787 0.929 . S
H774 C788 0.931 . S
H775 C790 0.930 1_565 S
C776 H764 0.930 . S
C776 C777 1.399 . S
C776 C781 1.399 . S
C777 C776 1.399 . S
C777 C778 1.376 . S
C778 H765 0.930 . S
C778 C777 1.376 . S
C778 C779 1.388 . S
C779 H766 0.930 . S
C779 C778 1.388 . S
C779 C780 1.390 . S
C780 C779 1.390 . S
C780 C781 1.394 . S
C780 C786 1.465 . S
C781 C776 1.399 . S
C781 C780 1.394 . S
C781 C782 1.516 . S
C782 C781 1.516 . S
C782 C783 1.502 . S
C782 C784 1.561 . S
C782 C785 1.526 . S
C783 H767 0.959 . S
C783 H768 0.959 . S
C783 H769 0.961 . S
C783 C782 1.502 . S
C784 H770 0.960 . S
C784 H771 0.961 1_545 S
C784 H772 0.959 . S
C784 C782 1.561 . S
C785 C782 1.526 . S
C785 C786 1.396 . S
C785 C790 1.390 . S
C786 C780 1.465 . S
C786 C785 1.396 . S
C786 C787 1.399 . S
C787 H773 0.929 . S
C787 C786 1.399 . S
C787 C788 1.385 . S
C788 H774 0.931 . S
C788 C787 1.385 . S
C788 C789 1.389 . S
C789 C788 1.389 . S
C789 C790 1.387 . S
C790 H775 0.930 1_545 S
C790 C785 1.390 . S
C790 C789 1.387 . S
H791 C803 0.930 . S
H792 C805 0.930 . S
H793 C806 0.930 . S
H794 C810 0.959 . S
H795 C810 0.959 . S
H796 C810 0.961 . S
H797 C811 0.960 . S
H798 C811 0.961 . S
H799 C811 0.959 . S
H800 C814 0.929 . S
H801 C815 0.931 . S
H802 C817 0.930 . S
C803 H791 0.930 . S
C803 C804 1.399 . S
C803 C808 1.399 . S
C804 C803 1.399 . S
C804 C805 1.376 . S
C805 H792 0.930 . S
C805 C804 1.376 . S
C805 C806 1.388 . S
C806 H793 0.930 . S
C806 C805 1.388 . S
C806 C807 1.390 . S
C807 C806 1.390 . S
C807 C808 1.394 . S
C807 C813 1.465 . S
C808 C803 1.399 . S
C808 C807 1.394 . S
C808 C809 1.516 . S
C809 C808 1.516 . S
C809 C810 1.502 . S
C809 C811 1.561 . S
C809 C812 1.526 . S
C810 H794 0.959 . S
C810 H795 0.959 . S
C810 H796 0.961 . S
C810 C809 1.502 . S
C811 H797 0.960 . S
C811 H798 0.961 . S
C811 H799 0.959 . S
C811 C809 1.561 . S
C812 C809 1.526 . S
C812 C813 1.396 . S
C812 C817 1.390 . S
C813 C807 1.465 . S
C813 C812 1.396 . S
C813 C814 1.399 . S
C814 H800 0.929 . S
C814 C813 1.399 . S
C814 C815 1.385 . S
C815 H801 0.931 . S
C815 C814 1.385 . S
C815 C816 1.389 . S
C816 C815 1.389 . S
C816 C817 1.387 . S
C817 H802 0.930 . S
C817 C812 1.390 . S
C817 C816 1.387 . S
H818 C830 0.930 . S
H819 C832 0.930 . S
H820 C833 0.930 . S
H821 C837 0.959 . S
H822 C837 0.959 . S
H823 C837 0.961 . S
H824 C838 0.960 . S
H825 C838 0.961 . S
H826 C838 0.959 . S
H827 C841 0.929 . S
H828 C842 0.931 . S
H829 C844 0.930 . S
C830 H818 0.930 . S
C830 C831 1.399 . S
C830 C835 1.399 . S
C831 C830 1.399 . S
C831 C832 1.376 . S
C832 H819 0.930 . S
C832 C831 1.376 . S
C832 C833 1.388 . S
C833 H820 0.930 . S
C833 C832 1.388 . S
C833 C834 1.390 . S
C834 C833 1.390 . S
C834 C835 1.394 . S
C834 C840 1.465 . S
C835 C830 1.399 . S
C835 C834 1.394 . S
C835 C836 1.516 . S
C836 C835 1.516 . S
C836 C837 1.502 . S
C836 C838 1.561 . S
C836 C839 1.526 . S
C837 H821 0.959 . S
C837 H822 0.959 . S
C837 H823 0.961 . S
C837 C836 1.502 . S
C838 H824 0.960 . S
C838 H825 0.961 . S
C838 H826 0.959 . S
C838 C836 1.561 . S
C839 C836 1.526 . S
C839 C840 1.396 . S
C839 C844 1.390 . S
C840 C834 1.465 . S
C840 C839 1.396 . S
C840 C841 1.399 . S
C841 H827 0.929 . S
C841 C840 1.399 . S
C841 C842 1.385 . S
C842 H828 0.931 . S
C842 C841 1.385 . S
C842 C843 1.389 . S
C843 C842 1.389 . S
C843 C844 1.387 . S
C844 H829 0.930 . S
C844 C839 1.390 . S
C844 C843 1.387 . S
H845 C857 0.930 . S
H846 C859 0.930 . S
H847 C860 0.930 1_565 S
H848 C864 0.959 . S
H849 C864 0.959 . S
H850 C864 0.961 . S
H851 C865 0.960 . S
H852 C865 0.961 . S
H853 C865 0.959 . S
H854 C868 0.929 . S
H855 C869 0.931 . S
H856 C871 0.930 . S
C857 H845 0.930 . S
C857 C858 1.399 1_545 S
C857 C862 1.399 . S
C858 C857 1.399 1_565 S
C858 C859 1.376 . S
C859 H846 0.930 . S
C859 C858 1.376 . S
C859 C860 1.388 1_565 S
C860 H847 0.930 1_545 S
C860 C859 1.388 1_545 S
C860 C861 1.390 . S
C861 C860 1.390 . S
C861 C862 1.394 . S
C861 C867 1.465 . S
C862 C857 1.399 . S
C862 C861 1.394 . S
C862 C863 1.516 . S
C863 C862 1.516 . S
C863 C864 1.502 . S
C863 C865 1.561 . S
C863 C866 1.526 . S
C864 H848 0.959 . S
C864 H849 0.959 . S
C864 H850 0.961 . S
C864 C863 1.502 . S
C865 H851 0.960 . S
C865 H852 0.961 . S
C865 H853 0.959 . S
C865 C863 1.561 . S
C866 C863 1.526 . S
C866 C867 1.396 . S
C866 C871 1.390 . S
C867 C861 1.465 . S
C867 C866 1.396 . S
C867 C868 1.399 . S
C868 H854 0.929 . S
C868 C867 1.399 . S
C868 C869 1.385 . S
C869 H855 0.931 . S
C869 C868 1.385 . S
C869 C870 1.389 . S
C870 C869 1.389 . S
C870 C871 1.387 . S
C871 H856 0.930 . S
C871 C866 1.390 . S
C871 C870 1.387 . S
H872 C884 0.930 . S
H873 C886 0.930 . S
H874 C887 0.930 . S
H875 C891 0.959 . S
H876 C891 0.959 . S
H877 C891 0.961 . S
H878 C892 0.960 . S
H879 C892 0.961 . S
H880 C892 0.959 . S
H881 C895 0.929 . S
H882 C896 0.931 . S
H883 C898 0.930 . S
C884 H872 0.930 . S
C884 C885 1.399 . S
C884 C889 1.399 . S
C885 C884 1.399 . S
C885 C886 1.376 . S
C886 H873 0.930 . S
C886 C885 1.376 . S
C886 C887 1.388 . S
C887 H874 0.930 . S
C887 C886 1.388 . S
C887 C888 1.390 . S
C888 C887 1.390 . S
C888 C889 1.394 . S
C888 C894 1.465 . S
C889 C884 1.399 . S
C889 C888 1.394 . S
C889 C890 1.516 . S
C890 C889 1.516 . S
C890 C891 1.502 . S
C890 C892 1.561 . S
C890 C893 1.526 . S
C891 H875 0.959 . S
C891 H876 0.959 . S
C891 H877 0.961 . S
C891 C890 1.502 . S
C892 H878 0.960 . S
C892 H879 0.961 . S
C892 H880 0.959 . S
C892 C890 1.561 . S
C893 C890 1.526 . S
C893 C894 1.396 . S
C893 C898 1.390 . S
C894 C888 1.465 . S
C894 C893 1.396 . S
C894 C895 1.399 . S
C895 H881 0.929 . S
C895 C894 1.399 . S
C895 C896 1.385 1_565 S
C896 H882 0.931 . S
C896 C895 1.385 1_545 S
C896 C897 1.389 . S
C897 C896 1.389 . S
C897 C898 1.387 1_545 S
C898 H883 0.930 . S
C898 C893 1.390 . S
C898 C897 1.387 1_565 S
H899 C911 0.930 . S
H900 C913 0.930 . S
H901 C914 0.930 . S
H902 C918 0.959 . S
H903 C918 0.959 . S
H904 C918 0.961 . S
H905 C919 0.960 . S
H906 C919 0.961 . S
H907 C919 0.959 . S
H908 C922 0.929 . S
H909 C923 0.931 . S
H910 C925 0.930 . S
C911 H899 0.930 . S
C911 C912 1.399 . S
C911 C916 1.399 . S
C912 C911 1.399 . S
C912 C913 1.376 . S
C913 H900 0.930 . S
C913 C912 1.376 . S
C913 C914 1.388 . S
C914 H901 0.930 . S
C914 C913 1.388 . S
C914 C915 1.390 . S
C915 C914 1.390 . S
C915 C916 1.394 . S
C915 C921 1.465 . S
C916 C911 1.399 . S
C916 C915 1.394 . S
C916 C917 1.516 . S
C917 C916 1.516 . S
C917 C918 1.502 . S
C917 C919 1.561 . S
C917 C920 1.526 . S
C918 H902 0.959 . S
C918 H903 0.959 . S
C918 H904 0.961 . S
C918 C917 1.502 . S
C919 H905 0.960 . S
C919 H906 0.961 . S
C919 H907 0.959 . S
C919 C917 1.561 . S
C920 C917 1.526 . S
C920 C921 1.396 . S
C920 C925 1.390 . S
C921 C915 1.465 . S
C921 C920 1.396 . S
C921 C922 1.399 . S
C922 H908 0.929 . S
C922 C921 1.399 . S
C922 C923 1.385 . S
C923 H909 0.931 . S
C923 C922 1.385 . S
C923 C924 1.389 . S
C924 C923 1.389 . S
C924 C925 1.387 . S
C925 H910 0.930 . S
C925 C920 1.390 . S
C925 C924 1.387 . S
H926 C938 0.930 . S
H927 C940 0.930 . S
H928 C941 0.930 . S
H929 C945 0.959 . S
H930 C945 0.959 . S
H931 C945 0.961 . S
H932 C946 0.960 . S
H933 C946 0.961 . S
H934 C946 0.959 . S
H935 C949 0.929 . S
H936 C950 0.931 . S
H937 C952 0.930 . S
C938 H926 0.930 . S
C938 C939 1.399 . S
C938 C943 1.399 . S
C939 C938 1.399 . S
C939 C940 1.376 . S
C940 H927 0.930 . S
C940 C939 1.376 . S
C940 C941 1.388 . S
C941 H928 0.930 . S
C941 C940 1.388 . S
C941 C942 1.390 . S
C942 C941 1.390 . S
C942 C943 1.394 . S
C942 C948 1.465 . S
C943 C938 1.399 . S
C943 C942 1.394 . S
C943 C944 1.516 . S
C944 C943 1.516 . S
C944 C945 1.502 . S
C944 C946 1.561 . S
C944 C947 1.526 . S
C945 H929 0.959 . S
C945 H930 0.959 . S
C945 H931 0.961 . S
C945 C944 1.502 . S
C946 H932 0.960 . S
C946 H933 0.961 . S
C946 H934 0.959 . S
C946 C944 1.561 . S
C947 C944 1.526 . S
C947 C948 1.396 . S
C947 C952 1.390 . S
C948 C942 1.465 . S
C948 C947 1.396 . S
C948 C949 1.399 . S
C949 H935 0.929 . S
C949 C948 1.399 . S
C949 C950 1.385 . S
C950 H936 0.931 . S
C950 C949 1.385 . S
C950 C951 1.389 . S
C951 C950 1.389 . S
C951 C952 1.387 . S
C952 H937 0.930 . S
C952 C947 1.390 . S
C952 C951 1.387 . S
H953 C965 0.930 . S
H954 C967 0.930 . S
H955 C968 0.930 . S
H956 C972 0.959 . S
H957 C972 0.959 1_545 S
H958 C972 0.961 . S
H959 C973 0.960 . S
H960 C973 0.961 . S
H961 C973 0.959 . S
H962 C976 0.929 . S
H963 C977 0.931 . S
H964 C979 0.930 1_545 S
C965 H953 0.930 . S
C965 C966 1.399 . S
C965 C970 1.399 . S
C966 C965 1.399 . S
C966 C967 1.376 . S
C967 H954 0.930 . S
C967 C966 1.376 . S
C967 C968 1.388 . S
C968 H955 0.930 . S
C968 C967 1.388 . S
C968 C969 1.390 . S
C969 C968 1.390 . S
C969 C970 1.394 . S
C969 C975 1.465 . S
C970 C965 1.399 . S
C970 C969 1.394 . S
C970 C971 1.516 . S
C971 C970 1.516 . S
C971 C972 1.502 . S
C971 C973 1.561 . S
C971 C974 1.526 . S
C972 H956 0.959 . S
C972 H957 0.959 1_565 S
C972 H958 0.961 . S
C972 C971 1.502 . S
C973 H959 0.960 . S
C973 H960 0.961 . S
C973 H961 0.959 . S
C973 C971 1.561 . S
C974 C971 1.526 . S
C974 C975 1.396 . S
C974 C979 1.390 . S
C975 C969 1.465 . S
C975 C974 1.396 . S
C975 C976 1.399 . S
C976 H962 0.929 . S
C976 C975 1.399 . S
C976 C977 1.385 . S
C977 H963 0.931 . S
C977 C976 1.385 . S
C977 C978 1.389 . S
C978 C977 1.389 . S
C978 C979 1.387 . S
C979 H964 0.930 1_565 S
C979 C974 1.390 . S
C979 C978 1.387 . S
H980 C992 0.930 . S
H981 C994 0.930 . S
H982 C995 0.930 . S
H983 C999 0.959 . S
H984 C999 0.959 . S
H985 C999 0.961 . S
H986 C1000 0.960 . S
H987 C1000 0.961 . S
H988 C1000 0.959 . S
H989 C1003 0.929 . S
H990 C1004 0.931 . S
H991 C1006 0.930 1_565 S
C992 H980 0.930 . S
C992 C993 1.399 . S
C992 C997 1.399 . S
C993 C992 1.399 . S
C993 C994 1.376 . S
C994 H981 0.930 . S
C994 C993 1.376 . S
C994 C995 1.388 . S
C995 H982 0.930 . S
C995 C994 1.388 . S
C995 C996 1.390 . S
C996 C995 1.390 . S
C996 C997 1.394 . S
C996 C1002 1.465 . S
C997 C992 1.399 . S
C997 C996 1.394 . S
C997 C998 1.516 . S
C998 C997 1.516 . S
C998 C999 1.502 . S
C998 C1000 1.561 . S
C998 C1001 1.526 . S
C999 H983 0.959 . S
C999 H984 0.959 . S
C999 H985 0.961 . S
C999 C998 1.502 . S
C1000 H986 0.960 . S
C1000 H987 0.961 . S
C1000 H988 0.959 . S
C1000 C998 1.561 . S
C1001 C998 1.526 . S
C1001 C1002 1.396 . S
C1001 C1006 1.390 . S
C1002 C996 1.465 . S
C1002 C1001 1.396 . S
C1002 C1003 1.399 . S
C1003 H989 0.929 . S
C1003 C1002 1.399 . S
C1003 C1004 1.385 . S
C1004 H990 0.931 . S
C1004 C1003 1.385 . S
C1004 C1005 1.389 . S
C1005 C1004 1.389 . S
C1005 C1006 1.387 . S
C1006 H991 0.930 1_545 S
C1006 C1001 1.390 . S
C1006 C1005 1.387 . S
H1007 C1019 0.930 . S
H1008 C1021 0.930 . S
H1009 C1022 0.930 . S
H1010 C1026 0.959 . S
H1011 C1026 0.959 . S
H1012 C1026 0.961 . S
H1013 C1027 0.960 . S
H1014 C1027 0.961 . S
H1015 C1027 0.959 . S
H1016 C1030 0.929 . S
H1017 C1031 0.931 . S
H1018 C1033 0.930 . S
C1019 H1007 0.930 . S
C1019 C1020 1.399 . S
C1019 C1024 1.399 . S
C1020 C1019 1.399 . S
C1020 C1021 1.376 . S
C1021 H1008 0.930 . S
C1021 C1020 1.376 . S
C1021 C1022 1.388 . S
C1022 H1009 0.930 . S
C1022 C1021 1.388 . S
C1022 C1023 1.390 . S
C1023 C1022 1.390 . S
C1023 C1024 1.394 . S
C1023 C1029 1.465 . S
C1024 C1019 1.399 . S
C1024 C1023 1.394 . S
C1024 C1025 1.516 . S
C1025 C1024 1.516 . S
C1025 C1026 1.502 . S
C1025 C1027 1.561 . S
C1025 C1028 1.526 . S
C1026 H1010 0.959 . S
C1026 H1011 0.959 . S
C1026 H1012 0.961 . S
C1026 C1025 1.502 . S
C1027 H1013 0.960 . S
C1027 H1014 0.961 . S
C1027 H1015 0.959 . S
C1027 C1025 1.561 . S
C1028 C1025 1.526 . S
C1028 C1029 1.396 . S
C1028 C1033 1.390 . S
C1029 C1023 1.465 . S
C1029 C1028 1.396 . S
C1029 C1030 1.399 . S
C1030 H1016 0.929 . S
C1030 C1029 1.399 . S
C1030 C1031 1.385 . S
C1031 H1017 0.931 . S
C1031 C1030 1.385 . S
C1031 C1032 1.389 . S
C1032 C1031 1.389 . S
C1032 C1033 1.387 . S
C1033 H1018 0.930 . S
C1033 C1028 1.390 . S
C1033 C1032 1.387 . S
H1034 C1046 0.930 . S
H1035 C1048 0.930 . S
H1036 C1049 0.930 . S
H1037 C1053 0.959 . S
H1038 C1053 0.959 . S
H1039 C1053 0.961 . S
H1040 C1054 0.960 . S
H1041 C1054 0.961 . S
H1042 C1054 0.959 . S
H1043 C1057 0.929 . S
H1044 C1058 0.931 . S
H1045 C1060 0.930 . S
C1046 H1034 0.930 . S
C1046 C1047 1.399 . S
C1046 C1051 1.399 . S
C1047 C1046 1.399 . S
C1047 C1048 1.376 . S
C1048 H1035 0.930 . S
C1048 C1047 1.376 . S
C1048 C1049 1.388 . S
C1049 H1036 0.930 . S
C1049 C1048 1.388 . S
C1049 C1050 1.390 . S
C1050 C1049 1.390 . S
C1050 C1051 1.394 . S
C1050 C1056 1.465 . S
C1051 C1046 1.399 . S
C1051 C1050 1.394 . S
C1051 C1052 1.516 . S
C1052 C1051 1.516 . S
C1052 C1053 1.502 . S
C1052 C1054 1.561 . S
C1052 C1055 1.526 . S
C1053 H1037 0.959 . S
C1053 H1038 0.959 . S
C1053 H1039 0.961 . S
C1053 C1052 1.502 . S
C1054 H1040 0.960 . S
C1054 H1041 0.961 . S
C1054 H1042 0.959 . S
C1054 C1052 1.561 . S
C1055 C1052 1.526 . S
C1055 C1056 1.396 . S
C1055 C1060 1.390 . S
C1056 C1050 1.465 . S
C1056 C1055 1.396 . S
C1056 C1057 1.399 . S
C1057 H1043 0.929 . S
C1057 C1056 1.399 . S
C1057 C1058 1.385 . S
C1058 H1044 0.931 . S
C1058 C1057 1.385 . S
C1058 C1059 1.389 . S
C1059 C1058 1.389 . S
C1059 C1060 1.387 . S
C1060 H1045 0.930 . S
C1060 C1055 1.390 . S
C1060 C1059 1.387 . S
H1061 C1073 0.930 . S
H1062 C1075 0.930 . S
H1063 C1076 0.930 . S
H1064 C1080 0.959 . S
H1065 C1080 0.959 . S
H1066 C1080 0.961 . S
H1067 C1081 0.960 . S
H1068 C1081 0.961 . S
H1069 C1081 0.959 . S
H1070 C1084 0.929 1_565 S
H1071 C1085 0.931 . S
H1072 C1087 0.930 . S
C1073 H1061 0.930 . S
C1073 C1074 1.399 . S
C1073 C1078 1.399 . S
C1074 C1073 1.399 . S
C1074 C1075 1.376 . S
C1075 H1062 0.930 . S
C1075 C1074 1.376 . S
C1075 C1076 1.388 . S
C1076 H1063 0.930 . S
C1076 C1075 1.388 . S
C1076 C1077 1.390 . S
C1077 C1076 1.390 . S
C1077 C1078 1.394 . S
C1077 C1083 1.465 . S
C1078 C1073 1.399 . S
C1078 C1077 1.394 . S
C1078 C1079 1.516 . S
C1079 C1078 1.516 . S
C1079 C1080 1.502 . S
C1079 C1081 1.561 . S
C1079 C1082 1.526 . S
C1080 H1064 0.959 . S
C1080 H1065 0.959 . S
C1080 H1066 0.961 . S
C1080 C1079 1.502 . S
C1081 H1067 0.960 . S
C1081 H1068 0.961 . S
C1081 H1069 0.959 . S
C1081 C1079 1.561 . S
C1082 C1079 1.526 . S
C1082 C1083 1.396 . S
C1082 C1087 1.390 . S
C1083 C1077 1.465 . S
C1083 C1082 1.396 . S
C1083 C1084 1.399 . S
C1084 H1070 0.929 1_545 S
C1084 C1083 1.399 . S
C1084 C1085 1.385 1_545 S
C1085 H1071 0.931 . S
C1085 C1084 1.385 1_565 S
C1085 C1086 1.389 . S
C1086 C1085 1.389 . S
C1086 C1087 1.387 1_565 S
C1087 H1072 0.930 . S
C1087 C1082 1.390 . S
C1087 C1086 1.387 1_545 S
C237 C199 1.497 . S
C249 C3 1.476 . S
C264 C36 1.489 . S
C276 C8 1.493 . S
C291 C162 1.487 . S
C303 C22 1.494 . S
C318 C17 1.476 . S
C330 C101 1.496 . S
C345 C31 1.493 . S
C357 C171 1.483 . S
C372 C134 1.490 . S
C384 C50 1.492 . S
C399 C45 1.492 . S
C411 C73 1.484 . S
C426 C143 1.498 . S
C438 C59 1.477 . S
C453 C64 1.489 . S
C465 C92 1.493 . S
C480 C218 1.488 . S
C492 C78 1.492 . S
C507 C115 1.491 . S
C519 C87 1.486 . S
C534 C190 1.488 . S
C546 C106 1.492 . S
C561 C120 1.493 . S
C573 C148 1.487 . S
C588 C213 1.475 . S
C600 C129 1.497 . S
C615 C157 1.476 . S
C627 C185 1.497 . S
C642 C204 1.492 . S
C654 C176 1.488 . S
C669 C79 1.397 . S
C681 C7 1.441 1_565 S
C696 C9 1.398 . S
C708 C77 1.440 . S
C723 C23 1.399 . S
C735 C63 1.439 . S
C750 C65 1.398 . S
C762 C21 1.440 1_565 S
C777 C107 1.434 . S
C789 C35 1.416 1_545 S
C804 C105 1.438 . S
C816 C37 1.397 . S
C831 C91 1.385 . S
C843 C51 1.437 . S
C858 C49 1.386 . S
C870 C93 1.434 . S
C885 C191 1.444 . S
C897 C119 1.386 . S
C912 C121 1.436 . S
C924 C189 1.393 . S
C939 C135 1.402 . S
C951 C175 1.437 . S
C966 C177 1.415 . S
C978 C133 1.422 1_565 S
C993 C219 1.444 . S
C1005 C147 1.398 1_545 S
C1020 C217 1.429 . S
C1032 C149 1.423 . S
C1047 C163 1.442 . S
C1059 C203 1.401 . S
C1074 C205 1.423 . S
C1086 C161 1.393 . S
