# Generated by pormake.
# Topology whh, (6)-cn, num edge types: 1
# Building blocks:
#     Node 0, Type 0, BuildingBlock: OJICUG_clean_sbu_0, # of connection points: 6
#     Node 1, Type 0, BuildingBlock: OJICUG_clean_sbu_0, # of connection points: 6
#     Node 2, Type 0, BuildingBlock: OJICUG_clean_sbu_0, # of connection points: 6
#     Node 3, Type 0, BuildingBlock: OJICUG_clean_sbu_0, # of connection points: 6
#     Node 4, Type 0, BuildingBlock: OJICUG_clean_sbu_0, # of connection points: 6
#     Node 5, Type 0, BuildingBlock: OJICUG_clean_sbu_0, # of connection points: 6
#     Node 6, Type 0, BuildingBlock: OJICUG_clean_sbu_0, # of connection points: 6
#     Node 7, Type 0, BuildingBlock: OJICUG_clean_sbu_0, # of connection points: 6
#     Node 8, Type 0, BuildingBlock: OJICUG_clean_sbu_0, # of connection points: 6
#     Node 9, Type 0, BuildingBlock: OJICUG_clean_sbu_0, # of connection points: 6
#     Node 10, Type 0, BuildingBlock: OJICUG_clean_sbu_0, # of connection points: 6
#     Node 11, Type 0, BuildingBlock: OJICUG_clean_sbu_0, # of connection points: 6
#     Node 12, Type 0, BuildingBlock: OJICUG_clean_sbu_0, # of connection points: 6
#     Node 13, Type 0, BuildingBlock: OJICUG_clean_sbu_0, # of connection points: 6
#     Node 14, Type 0, BuildingBlock: OJICUG_clean_sbu_0, # of connection points: 6
#     Node 15, Type 0, BuildingBlock: OJICUG_clean_sbu_0, # of connection points: 6
#     Edge 16, Type (0, 0), BuildingBlock: EZIPEK_clean_linker_0, # of connection points: 2
#     Edge 17, Type (0, 0), BuildingBlock: EZIPEK_clean_linker_0, # of connection points: 2
#     Edge 18, Type (0, 0), BuildingBlock: EZIPEK_clean_linker_0, # of connection points: 2
#     Edge 19, Type (0, 0), BuildingBlock: EZIPEK_clean_linker_0, # of connection points: 2
#     Edge 20, Type (0, 0), BuildingBlock: EZIPEK_clean_linker_0, # of connection points: 2
#     Edge 21, Type (0, 0), BuildingBlock: EZIPEK_clean_linker_0, # of connection points: 2
#     Edge 22, Type (0, 0), BuildingBlock: EZIPEK_clean_linker_0, # of connection points: 2
#     Edge 23, Type (0, 0), BuildingBlock: EZIPEK_clean_linker_0, # of connection points: 2
#     Edge 24, Type (0, 0), BuildingBlock: EZIPEK_clean_linker_0, # of connection points: 2
#     Edge 25, Type (0, 0), BuildingBlock: EZIPEK_clean_linker_0, # of connection points: 2
#     Edge 26, Type (0, 0), BuildingBlock: EZIPEK_clean_linker_0, # of connection points: 2
#     Edge 27, Type (0, 0), BuildingBlock: EZIPEK_clean_linker_0, # of connection points: 2
#     Edge 28, Type (0, 0), BuildingBlock: EZIPEK_clean_linker_0, # of connection points: 2
#     Edge 29, Type (0, 0), BuildingBlock: EZIPEK_clean_linker_0, # of connection points: 2
#     Edge 30, Type (0, 0), BuildingBlock: EZIPEK_clean_linker_0, # of connection points: 2
#     Edge 31, Type (0, 0), BuildingBlock: EZIPEK_clean_linker_0, # of connection points: 2
#     Edge 32, Type (0, 0), BuildingBlock: EZIPEK_clean_linker_0, # of connection points: 2
#     Edge 33, Type (0, 0), BuildingBlock: EZIPEK_clean_linker_0, # of connection points: 2
#     Edge 34, Type (0, 0), BuildingBlock: EZIPEK_clean_linker_0, # of connection points: 2
#     Edge 35, Type (0, 0), BuildingBlock: EZIPEK_clean_linker_0, # of connection points: 2
#     Edge 36, Type (0, 0), BuildingBlock: EZIPEK_clean_linker_0, # of connection points: 2
#     Edge 37, Type (0, 0), BuildingBlock: EZIPEK_clean_linker_0, # of connection points: 2
#     Edge 38, Type (0, 0), BuildingBlock: EZIPEK_clean_linker_0, # of connection points: 2
#     Edge 39, Type (0, 0), BuildingBlock: EZIPEK_clean_linker_0, # of connection points: 2
#     Edge 40, Type (0, 0), BuildingBlock: EZIPEK_clean_linker_0, # of connection points: 2
#     Edge 41, Type (0, 0), BuildingBlock: EZIPEK_clean_linker_0, # of connection points: 2
#     Edge 42, Type (0, 0), BuildingBlock: EZIPEK_clean_linker_0, # of connection points: 2
#     Edge 43, Type (0, 0), BuildingBlock: EZIPEK_clean_linker_0, # of connection points: 2
#     Edge 44, Type (0, 0), BuildingBlock: EZIPEK_clean_linker_0, # of connection points: 2
#     Edge 45, Type (0, 0), BuildingBlock: EZIPEK_clean_linker_0, # of connection points: 2
#     Edge 46, Type (0, 0), BuildingBlock: EZIPEK_clean_linker_0, # of connection points: 2
#     Edge 47, Type (0, 0), BuildingBlock: EZIPEK_clean_linker_0, # of connection points: 2
#     Edge 48, Type (0, 0), BuildingBlock: EZIPEK_clean_linker_0, # of connection points: 2
#     Edge 49, Type (0, 0), BuildingBlock: EZIPEK_clean_linker_0, # of connection points: 2
#     Edge 50, Type (0, 0), BuildingBlock: EZIPEK_clean_linker_0, # of connection points: 2
#     Edge 51, Type (0, 0), BuildingBlock: EZIPEK_clean_linker_0, # of connection points: 2
#     Edge 52, Type (0, 0), BuildingBlock: EZIPEK_clean_linker_0, # of connection points: 2
#     Edge 53, Type (0, 0), BuildingBlock: EZIPEK_clean_linker_0, # of connection points: 2
#     Edge 54, Type (0, 0), BuildingBlock: EZIPEK_clean_linker_0, # of connection points: 2
#     Edge 55, Type (0, 0), BuildingBlock: EZIPEK_clean_linker_0, # of connection points: 2
#     Edge 56, Type (0, 0), BuildingBlock: EZIPEK_clean_linker_0, # of connection points: 2
#     Edge 57, Type (0, 0), BuildingBlock: EZIPEK_clean_linker_0, # of connection points: 2
#     Edge 58, Type (0, 0), BuildingBlock: EZIPEK_clean_linker_0, # of connection points: 2
#     Edge 59, Type (0, 0), BuildingBlock: EZIPEK_clean_linker_0, # of connection points: 2
#     Edge 60, Type (0, 0), BuildingBlock: EZIPEK_clean_linker_0, # of connection points: 2
#     Edge 61, Type (0, 0), BuildingBlock: EZIPEK_clean_linker_0, # of connection points: 2
#     Edge 62, Type (0, 0), BuildingBlock: EZIPEK_clean_linker_0, # of connection points: 2
#     Edge 63, Type (0, 0), BuildingBlock: EZIPEK_clean_linker_0, # of connection points: 2
# Relax obj value: 0.385
# Max RMSD: 0.252
# Mean RMSD: 0.252
data_MOF--net-whh--node1-OJICUG_clean_sbu_0--edge1-EZIPEK_clean_linker_0
_symmetry_space_group_name_H-M    P1
_symmetry_Int_Tables_number       1
_symmetry_cell_setting            triclinic
loop_
_symmetry_equiv_pos_as_xyz
'x, y, z'
_cell_length_a     26.695946
_cell_length_b     26.620507
_cell_length_c     33.291524
_cell_angle_alpha  89.852081
_cell_angle_beta   89.623536
_cell_angle_gamma 89.642276
loop_
_atom_site_label
_atom_site_type_symbol
_atom_site_fract_x
_atom_site_fract_y
_atom_site_fract_z
_atom_type_partial_charge
Sc0 Sc 0.05416 0.67631 0.04962 0.0
Sc1 Sc 0.12123 0.60935 0.11991 0.0
Sc2 Sc 0.03281 0.69576 0.15073 0.0
O3 O 0.07028 0.66165 0.10749 0.0
C4 C 0.00827 0.77512 0.08782 0.0
C5 C 0.16736 0.69569 0.0605 0.0
C6 C 0.14153 0.69399 0.18559 0.0
C7 C 0.0795 0.56864 0.0391 0.0
C8 C 0.95625 0.641 0.09042 0.0
C9 C 0.0432 0.58545 0.18929 0.0
O10 O 0.01035 0.74327 0.05986 0.0
O11 O 0.17118 0.65299 0.07906 0.0
O12 O 0.1008 0.71801 0.17923 0.0
O13 O 0.09139 0.61145 0.0266 0.0
O14 O 0.96496 0.66778 0.12175 0.0
O15 O 0.07365 0.56821 0.16291 0.0
O16 O 0.98601 0.63651 0.06026 0.0
O17 O 0.08692 0.56001 0.07591 0.0
O18 O 0.03094 0.63152 0.18954 0.0
O19 O 0.12559 0.71305 0.04709 0.0
O20 O 0.03105 0.76746 0.12038 0.0
O21 O 0.15333 0.65287 0.16822 0.0
Sc22 Sc 0.83836 0.05279 0.05142 0.0
Sc23 Sc 0.89999 0.12226 0.12359 0.0
Sc24 Sc 0.82995 0.01761 0.1522 0.0
O25 O 0.85456 0.06478 0.10985 0.0
C26 C 0.74237 1.00318 0.09156 0.0
C27 C 0.81633 0.16741 0.0623 0.0
C28 C 0.81557 0.12623 0.19143 0.0
C29 C 0.94677 0.08424 0.04328 0.0
C30 C 0.87513 0.94625 0.08235 0.0
C31 C 0.93884 0.04088 0.18674 0.0
O32 O 0.7693 0.01393 0.06142 0.0
O33 O 0.85707 0.1711 0.0825 0.0
O34 O 0.80452 0.07985 0.18811 0.0
O35 O 0.90329 0.09101 0.02996 0.0
O36 O 0.85659 0.95501 0.11715 0.0
O37 O 0.94529 0.08121 0.16688 0.0
O38 O 0.87736 0.98028 0.05495 0.0
O39 O 0.95428 0.09343 0.08004 0.0
O40 O 0.89965 0.01462 0.18378 0.0
O41 O 0.80023 0.12496 0.05005 0.0
O42 O 0.756 0.01106 0.12738 0.0
O43 O 0.84917 0.14825 0.17044 0.0
Sc44 Sc 0.46072 0.84397 0.05556 0.0
Sc45 Sc 0.38902 0.91105 0.12183 0.0
Sc46 Sc 0.49118 0.84009 0.15604 0.0
O47 O 0.44727 0.86466 0.11236 0.0
C48 C 0.516 0.75308 0.09781 0.0
C49 C 0.34862 0.82166 0.06715 0.0
C50 C 0.38024 0.82708 0.19081 0.0
C51 C 0.42965 0.95005 0.04111 0.0
C52 C 0.5604 0.8898 0.08674 0.0
C53 C 0.46334 0.94926 0.19004 0.0
O54 O 0.50779 0.78045 0.06759 0.0
O55 O 0.34535 0.86823 0.07693 0.0
O56 O 0.42667 0.81505 0.18955 0.0
O57 O 0.41867 0.90587 0.03158 0.0
O58 O 0.55471 0.86888 0.12134 0.0
O59 O 0.42579 0.95672 0.16731 0.0
O60 O 0.52838 0.88764 0.05824 0.0
O61 O 0.42122 0.96275 0.07732 0.0
O62 O 0.48989 0.90966 0.18829 0.0
O63 O 0.39171 0.8015 0.06081 0.0
O64 O 0.49921 0.7648 0.13221 0.0
O65 O 0.36017 0.86103 0.16867 0.0
Sc66 Sc 0.68611 0.4742 0.05564 0.0
Sc67 Sc 0.61384 0.40238 0.12041 0.0
Sc68 Sc 0.68309 0.50424 0.15711 0.0
O69 O 0.66122 0.46072 0.11177 0.0
C70 C 0.77726 0.52219 0.10152 0.0
C71 C 0.70477 0.35903 0.0697 0.0
C72 C 0.69605 0.39213 0.18895 0.0
C73 C 0.57761 0.44976 0.04138 0.0
C74 C 0.64477 0.57952 0.08774 0.0
C75 C 0.57206 0.47868 0.18678 0.0
O76 O 0.7549 0.50955 0.06995 0.0
O77 O 0.6579 0.35668 0.07796 0.0
O78 O 0.70784 0.43856 0.18879 0.0
O79 O 0.6218 0.44069 0.03 0.0
O80 O 0.65706 0.56865 0.12389 0.0
O81 O 0.56574 0.44118 0.16375 0.0
O82 O 0.64934 0.54807 0.0586 0.0
O83 O 0.56349 0.43298 0.07527 0.0
O84 O 0.61244 0.50318 0.1875 0.0
O85 O 0.72327 0.40097 0.05825 0.0
O86 O 0.75848 0.51641 0.13621 0.0
O87 O 0.66191 0.37298 0.1672 0.0
Sc88 Sc 0.01153 0.82498 0.34533 0.0
Sc89 Sc 0.11595 0.89306 0.37534 0.0
Sc90 Sc 0.04203 0.83483 0.44569 0.0
O91 O 0.05614 0.85038 0.38767 0.0
C92 C 0.94256 0.88024 0.41216 0.0
C93 C 0.04255 0.93009 0.30602 0.0
C94 C 0.07554 0.94148 0.45215 0.0
C95 C 0.12342 0.80477 0.31248 0.0
C96 C 0.98606 0.74214 0.40742 0.0
C97 C 0.15281 0.8062 0.43123 0.0
O98 O 0.94815 0.85673 0.37873 0.0
O99 O 0.08264 0.93503 0.32605 0.0
O100 O 0.08473 0.89791 0.46519 0.0
O101 O 0.07619 0.79635 0.31282 0.0
O102 O 0.99421 0.77135 0.43647 0.0
O103 O 0.15637 0.85291 0.42266 0.0
O104 O 1.0029 0.75144 0.37251 0.0
O105 O 0.14475 0.83781 0.33402 0.0
O106 O 0.11062 0.78961 0.44416 0.0
O107 O 0.01307 0.89338 0.31095 0.0
O108 O 0.97501 0.88034 0.44044 0.0
O109 O 0.08396 0.9493 0.41516 0.0
Sc110 Sc 0.66711 0.04958 0.45048 0.0
Sc111 Sc 0.60495 0.12357 0.38271 0.0
Sc112 Sc 0.66741 0.01459 0.35064 0.0
O113 O 0.64703 0.06203 0.39352 0.0
C114 C 0.75813 0.99382 0.40788 0.0
C115 C 0.69143 0.16135 0.43843 0.0
C116 C 0.69011 0.12534 0.31609 0.0
C117 C 0.55955 0.08409 0.46069 0.0
C118 C 0.61799 0.94881 0.42164 0.0
C119 C 0.56255 0.05019 0.31543 0.0
O120 O 0.73336 1.00542 0.43904 0.0
O121 O 0.64486 0.16471 0.43017 0.0
O122 O 0.69549 0.07745 0.3159 0.0
O123 O 0.60377 0.092 0.47229 0.0
O124 O 0.63702 0.9533 0.38632 0.0
O125 O 0.56102 0.0918 0.33407 0.0
O126 O 0.62264 0.98156 0.44957 0.0
O127 O 0.54973 0.09337 0.42416 0.0
O128 O 0.59714 0.01814 0.32047 0.0
O129 O 0.7106 0.11803 0.44489 0.0
O130 O 0.74202 1.0021 0.37279 0.0
O131 O 0.66003 0.14927 0.33932 0.0
Sc132 Sc 0.48594 0.68281 0.34788 0.0
Sc133 Sc 0.38159 0.61087 0.37675 0.0
Sc134 Sc 0.45397 0.66893 0.44883 0.0
O135 O 0.44014 0.65568 0.39031 0.0
C136 C 0.55508 0.6253 0.41172 0.0
C137 C 0.45555 0.57886 0.30583 0.0
C138 C 0.42861 0.5605 0.45168 0.0
C139 C 0.37541 0.70319 0.31484 0.0
C140 C 0.50454 0.76697 0.41264 0.0
C141 C 0.33976 0.69027 0.44248 0.0
O142 O 0.54972 0.64918 0.37849 0.0
O143 O 0.4175 0.56998 0.32778 0.0
O144 O 0.41695 0.60231 0.46666 0.0
O145 O 0.42196 0.71385 0.31737 0.0
O146 O 0.49259 0.73899 0.44187 0.0
O147 O 0.33591 0.6491 0.4227 0.0
O148 O 0.49818 0.75414 0.37643 0.0
O149 O 0.35424 0.66728 0.33419 0.0
O150 O 0.38248 0.70763 0.45249 0.0
O151 O 0.4822 0.61766 0.31034 0.0
O152 O 0.52345 0.62748 0.44084 0.0
O153 O 0.41237 0.55181 0.41662 0.0
Sc154 Sc 0.82083 0.49333 0.35013 0.0
Sc155 Sc 0.89956 0.3941 0.378 0.0
Sc156 Sc 0.83011 0.45998 0.45099 0.0
O157 O 0.84952 0.44876 0.39264 0.0
C158 C 0.86009 0.56841 0.41917 0.0
C159 C 0.93236 0.47751 0.3147 0.0
C160 C 0.94075 0.43686 0.45881 0.0
C161 C 0.81584 0.38527 0.31068 0.0
C162 C 0.72974 0.49945 0.41141 0.0
C163 C 0.81628 0.34397 0.43737 0.0
O164 O 0.84522 0.55837 0.38356 0.0
O165 O 0.9447 0.44096 0.33743 0.0
O166 O 0.89796 0.43119 0.47385 0.0
O167 O 0.7978 0.42915 0.31642 0.0
O168 O 0.75687 0.48959 0.44118 0.0
O169 O 0.85602 0.34147 0.41542 0.0
O170 O 0.74705 0.49817 0.37591 0.0
O171 O 0.85387 0.36755 0.329 0.0
O172 O 0.80052 0.385 0.45292 0.0
O173 O 0.88869 0.49643 0.3159 0.0
O174 O 0.86036 0.5355 0.44729 0.0
O175 O 0.95038 0.42117 0.42366 0.0
Sc176 Sc 0.99538 0.33414 0.84536 0.0
Sc177 Sc 0.89012 0.40441 0.87458 0.0
Sc178 Sc 0.96167 0.34311 0.94678 0.0
O179 O 0.9487 0.35934 0.88827 0.0
C180 C 0.01028 0.24544 0.90703 0.0
C181 C 0.88633 0.31883 0.80827 0.0
C182 C 0.84696 0.321 0.93671 0.0
C183 C 0.96905 0.44249 0.80901 0.0
C184 C 0.06773 0.37845 0.91354 0.0
C185 C 0.92971 0.45349 0.95401 0.0
O186 O 1.00477 0.26007 0.87101 0.0
O187 O 0.86429 0.35279 0.829 0.0
O188 O 0.88953 0.30657 0.94994 0.0
O189 O 0.99628 0.40361 0.81239 0.0
O190 O 0.03478 0.37952 0.9418 0.0
O191 O 0.91845 0.45958 0.91732 0.0
O192 O 0.05824 0.36128 0.87863 0.0
O193 O 0.92913 0.44908 0.82942 0.0
O194 O 0.92679 0.41013 0.96914 0.0
O195 O 0.9328 0.30785 0.81118 0.0
O196 O 0.99778 0.27212 0.93685 0.0
O197 O 0.84184 0.36167 0.91627 0.0
Sc198 Sc 0.17195 0.96297 0.95188 0.0
Sc199 Sc 0.11171 0.89667 0.87788 0.0
Sc200 Sc 0.18589 0.99848 0.85138 0.0
O201 O 0.15828 0.95216 0.89291 0.0
C202 C 0.1292 0.06543 0.9188 0.0
C203 C 0.06372 0.93378 0.95757 0.0
C204 C 0.08039 0.97664 0.81073 0.0
C205 C 0.19394 0.84929 0.93997 0.0
C206 C 0.26885 0.01553 0.91598 0.0
C207 C 0.20095 0.88984 0.81391 0.0
O208 O 0.13072 0.03287 0.94721 0.0
O209 O 0.05699 0.92632 0.92051 0.0
O210 O 0.12229 0.99815 0.81293 0.0
O211 O 0.21077 0.89155 0.95201 0.0
O212 O 0.25689 0.00812 0.87986 0.0
O213 O 0.16345 0.87039 0.83209 0.0
O214 O 0.24059 1.00428 0.94519 0.0
O215 O 0.15296 0.84634 0.91977 0.0
O216 O 0.21567 0.93506 0.81889 0.0
O217 O 0.10644 0.92393 0.97131 0.0
O218 O 0.15145 0.0604 0.88467 0.0
O219 O 0.06869 0.94017 0.83375 0.0
Sc220 Sc 0.51702 0.17334 0.84338 0.0
Sc221 Sc 0.62291 0.10789 0.87796 0.0
Sc222 Sc 0.55112 0.17643 0.9435 0.0
O223 O 0.56334 0.15318 0.88713 0.0
C224 C 0.49536 0.26552 0.89847 0.0
C225 C 0.62799 0.18918 0.80772 0.0
C226 C 0.66365 0.19789 0.93173 0.0
C227 C 0.54809 0.06406 0.81206 0.0
C228 C 0.44935 0.13001 0.91581 0.0
C229 C 0.58168 0.06959 0.95866 0.0
O230 O 0.50698 0.24999 0.86365 0.0
O231 O 0.65027 0.15844 0.83137 0.0
O232 O 0.62063 0.21822 0.93754 0.0
O233 O 0.51815 0.101 0.81494 0.0
O234 O 0.48237 0.13398 0.94339 0.0
O235 O 0.59121 0.0564 0.9227 0.0
O236 O 0.45449 0.14721 0.87998 0.0
O237 O 0.58837 0.06092 0.8322 0.0
O238 O 0.59201 0.11405 0.96818 0.0
O239 O 0.58067 0.19745 0.80796 0.0
O240 O 0.50651 0.24112 0.92976 0.0
O241 O 0.66677 0.15123 0.92231 0.0
Sc242 Sc 0.33273 0.51855 0.8414 0.0
Sc243 Sc 0.40151 0.62229 0.87227 0.0
Sc244 Sc 0.33769 0.55046 0.94157 0.0
O245 O 0.35723 0.56345 0.88419 0.0
C246 C 0.24442 0.50042 0.89941 0.0
C247 C 0.31951 0.63007 0.8056 0.0
C248 C 0.31299 0.6632 0.92618 0.0
C249 C 0.44176 0.54309 0.80736 0.0
C250 C 0.37661 0.4461 0.91149 0.0
C251 C 0.44653 0.58378 0.9515 0.0
O252 O 0.25698 0.51622 0.8649 0.0
O253 O 0.35087 0.65158 0.82828 0.0
O254 O 0.29604 0.6212 0.93914 0.0
O255 O 0.40422 0.51458 0.81166 0.0
O256 O 0.37835 0.48007 0.93861 0.0
O257 O 0.45426 0.59198 0.91455 0.0
O258 O 0.35664 0.45386 0.87698 0.0
O259 O 0.44607 0.58458 0.82599 0.0
O260 O 0.40236 0.58787 0.96515 0.0
O261 O 0.31056 0.58293 0.80597 0.0
O262 O 0.272 0.50719 0.92957 0.0
O263 O 0.35948 0.66641 0.91689 0.0
Sc264 Sc 0.96755 0.17221 0.54563 0.0
Sc265 Sc 0.89601 0.1125 0.6176 0.0
Sc266 Sc 0.99937 0.18394 0.64459 0.0
O267 O 0.95478 0.15581 0.60357 0.0
C268 C 0.07201 0.13601 0.57553 0.0
C269 C 0.93123 0.06414 0.53848 0.0
C270 C 0.97568 0.07675 0.68303 0.0
C271 C 0.85617 0.19999 0.56294 0.0
C272 C 0.01812 0.26765 0.58382 0.0
C273 C 0.88936 0.19824 0.68255 0.0
O274 O 0.03749 0.12989 0.54926 0.0
O275 O 0.92508 0.05704 0.57587 0.0
O276 O 1.00382 0.11428 0.67668 0.0
O277 O 0.89802 0.21579 0.54877 0.0
O278 O 0.99938 0.25809 0.61797 0.0
O279 O 0.86771 0.16559 0.66098 0.0
O280 O 0.01362 0.23713 0.55511 0.0
O281 O 0.85225 0.15348 0.57243 0.0
O282 O 0.93615 0.20777 0.68071 0.0
O283 O 0.92602 0.10824 0.52485 0.0
O284 O 0.06368 0.15876 0.60896 0.0
O285 O 0.93396 0.07083 0.66528 0.0
Sc286 Sc 0.34545 0.96146 0.55178 0.0
Sc287 Sc 0.40629 0.88872 0.62099 0.0
Sc288 Sc 0.34161 0.99736 0.65126 0.0
O289 O 0.36391 0.94963 0.60916 0.0
C290 C 0.39319 0.06208 0.58044 0.0
C291 C 0.45207 0.92541 0.54229 0.0
C292 C 0.44694 0.9639 0.68787 0.0
C293 C 0.31951 0.85017 0.56442 0.0
C294 C 0.25409 0.01979 0.5919 0.0
C295 C 0.32125 0.88734 0.68752 0.0
O296 O 0.39075 0.02848 0.55299 0.0
O297 O 0.4616 0.91753 0.57903 0.0
O298 O 0.41137 0.99503 0.68299 0.0
O299 O 0.30095 0.89366 0.55726 0.0
O300 O 0.26691 0.00811 0.62735 0.0
O301 O 0.35228 0.86367 0.66506 0.0
O302 O 0.28107 0.00876 0.56182 0.0
O303 O 0.36551 0.84601 0.57478 0.0
O304 O 0.31396 0.93494 0.68647 0.0
O305 O 0.40789 0.91715 0.5309 0.0
O306 O 0.37225 0.05839 0.61516 0.0
O307 O 0.45 0.92268 0.66872 0.0
Sc308 Sc 0.55612 0.34147 0.54577 0.0
Sc309 Sc 0.62601 0.40111 0.61794 0.0
Sc310 Sc 0.52092 0.33204 0.64666 0.0
O311 O 0.56819 0.35641 0.60437 0.0
C312 C 0.45375 0.38477 0.57907 0.0
C313 C 0.58539 0.45012 0.53944 0.0
C314 C 0.54908 0.43753 0.68593 0.0
C315 C 0.66957 0.31881 0.55445 0.0
C316 C 0.50506 0.24518 0.58452 0.0
C317 C 0.63038 0.31338 0.68293 0.0
O318 O 0.48655 0.38341 0.55082 0.0
O319 O 0.5947 0.45744 0.57634 0.0
O320 O 0.52085 0.40002 0.68107 0.0
O321 O 0.62698 0.30184 0.54388 0.0
O322 O 0.51186 0.25908 0.62041 0.0
O323 O 0.6527 0.34713 0.66214 0.0
O324 O 0.51642 0.27226 0.55458 0.0
O325 O 0.67321 0.36032 0.5739 0.0
O326 O 0.58361 0.30372 0.68057 0.0
O327 O 0.59455 0.407 0.5257 0.0
O328 O 0.45875 0.36277 0.61305 0.0
O329 O 0.58907 0.4437 0.66561 0.0
Sc330 Sc 0.17851 0.5511 0.54769 0.0
Sc331 Sc 0.11286 0.62341 0.61816 0.0
Sc332 Sc 0.17985 0.51588 0.64838 0.0
O333 O 0.15779 0.56345 0.6054 0.0
C334 C 0.14037 0.44443 0.57719 0.0
C335 C 0.06983 0.57945 0.54017 0.0
C336 C 0.07242 0.54555 0.6842 0.0
C337 C 0.19832 0.66595 0.55853 0.0
C338 C 0.27209 0.50071 0.58975 0.0
C339 C 0.1961 0.62595 0.68483 0.0
O340 O 0.14307 0.47774 0.54947 0.0
O341 O 0.0589 0.5959 0.57491 0.0
O342 O 0.10983 0.51655 0.68008 0.0
O343 O 0.21463 0.62309 0.5474 0.0
O344 O 0.25452 0.50463 0.62508 0.0
O345 O 0.16395 0.64871 0.66319 0.0
O346 O 0.24846 0.51512 0.55908 0.0
O347 O 0.15585 0.67099 0.57639 0.0
O348 O 0.20565 0.57884 0.68307 0.0
O349 O 0.11298 0.58671 0.5261 0.0
O350 O 0.15331 0.45336 0.61345 0.0
O351 O 0.06761 0.58617 0.66428 0.0
C352 C 0.82225 0.59891 0.07743 0.0
C353 C 0.824 0.55117 0.09704 0.0
C354 C 0.91356 0.56143 0.10978 0.0
C355 C 0.91121 0.60949 0.09115 0.0
N356 N 0.86764 0.67097 0.05136 0.0
N357 N 0.86935 0.48703 0.13306 0.0
C358 C 0.86677 0.62735 0.07324 0.0
C359 C 0.86919 0.53242 0.11362 0.0
N360 N 0.77741 0.61842 0.06495 0.0
N361 N 0.95887 0.54293 0.1221 0.0
H362 H 0.83841 0.46331 0.13383 0.0
H363 H 0.89931 0.47293 0.14948 0.0
H364 H 0.99221 0.56239 0.11786 0.0
H365 H 0.96466 0.50736 0.13418 0.0
H366 H 0.77234 0.65525 0.05522 0.0
H367 H 0.74374 0.59915 0.06687 0.0
H368 H 0.83837 0.68339 0.03334 0.0
H369 H 0.89936 0.69351 0.04885 0.0
C370 C 0.97005 0.84708 0.04878 0.0
C371 C 0.97137 0.8172 0.08433 0.0
C372 C 0.89407 0.85867 0.10747 0.0
C373 C 0.89952 0.89539 0.07682 0.0
N374 N 0.92107 0.9036 0.007 0.0
N375 N 0.93083 0.79213 0.14677 0.0
C376 C 0.93135 0.88387 0.04389 0.0
C377 C 0.93236 0.82232 0.1135 0.0
N378 N 0.00673 0.84151 0.02029 0.0
N379 N 0.84942 0.85482 0.1276 0.0
H380 H 0.95296 0.76026 0.15063 0.0
H381 H 0.90829 0.80001 0.17167 0.0
H382 H 0.81806 0.87611 0.11972 0.0
H383 H 0.84099 0.82592 0.14762 0.0
H384 H 0.00861 0.86285 0.99422 0.0
H385 H 0.03778 0.81805 0.02394 0.0
H386 H 0.93851 0.89127 0.98079 0.0
H387 H 0.8894 0.92557 0.00154 0.0
C388 C 0.65287 0.89497 0.07572 0.0
C389 C 0.60623 0.9198 0.08055 0.0
C390 C 0.64867 1.00058 0.08946 0.0
C391 C 0.69529 0.97569 0.08469 0.0
N392 N 0.74212 0.90205 0.06397 0.0
N393 N 0.55833 0.99671 0.08386 0.0
C394 C 0.69748 0.92376 0.07473 0.0
C395 C 0.60375 0.97291 0.0844 0.0
N396 N 0.65454 0.84368 0.07326 0.0
N397 N 0.64751 0.05027 0.09988 0.0
H398 H 0.52462 0.97739 0.0825 0.0
H399 H 0.55376 0.03549 0.08408 0.0
H400 H 0.67977 0.07196 0.10222 0.0
H401 H 0.61519 0.06958 0.10846 0.0
H402 H 0.68747 0.82267 0.07508 0.0
H403 H 0.62242 0.82165 0.07151 0.0
H404 H 0.74538 0.8659 0.05237 0.0
H405 H 0.77583 0.92145 0.06353 0.0
C406 C 0.54737 0.67736 0.05954 0.0
C407 C 0.55197 0.71037 0.0929 0.0
C408 C 0.63097 0.66839 0.111 0.0
C409 C 0.62147 0.63068 0.08195 0.0
N410 N 0.58995 0.61901 0.01501 0.0
N411 N 0.60278 0.74208 0.14722 0.0
C412 C 0.58539 0.64072 0.05193 0.0
C413 C 0.59522 0.70738 0.11767 0.0
N414 N 0.50575 0.67978 0.03588 0.0
N415 N 0.67669 0.66935 0.12932 0.0
H416 H 0.58307 0.77582 0.14934 0.0
H417 H 0.62827 0.73718 0.17043 0.0
H418 H 0.70537 0.64424 0.12188 0.0
H419 H 0.68869 0.69793 0.14813 0.0
H420 H 0.49988 0.65643 0.01143 0.0
H421 H 0.47483 0.70249 0.04244 0.0
H422 H 0.56843 0.62993 0.99052 0.0
H423 H 0.62048 0.59676 0.00677 0.0
C424 C 0.85418 0.89304 0.43555 0.0
C425 C 0.89738 0.91228 0.41628 0.0
C426 C 0.85113 0.9888 0.3974 0.0
C427 C 0.80657 0.96694 0.4126 0.0
N428 N 0.7637 0.89533 0.44096 0.0
N429 N 0.93793 0.97687 0.37733 0.0
C430 C 0.80759 0.91849 0.43078 0.0
C431 C 0.89617 0.95987 0.39689 0.0
N432 N 0.85773 0.85026 0.45819 0.0
N433 N 0.85042 0.03759 0.38435 0.0
H434 H 0.97248 0.9584 0.37856 0.0
H435 H 0.93784 0.00791 0.35834 0.0
H436 H 0.81831 0.06009 0.38542 0.0
H437 H 0.88201 0.05728 0.37515 0.0
H438 H 0.82884 0.83706 0.47645 0.0
H439 H 0.89114 0.83013 0.46138 0.0
H440 H 0.76151 0.85804 0.45028 0.0
H441 H 0.72865 0.91183 0.43666 0.0
C442 C 0.59942 0.86323 0.44931 0.0
C443 C 0.58343 0.90605 0.42766 0.0
C444 C 0.50885 0.86063 0.40511 0.0
C445 C 0.52943 0.81559 0.42095 0.0
N446 N 0.59783 0.77262 0.4542 0.0
N447 N 0.52247 0.94743 0.3858 0.0
C448 C 0.57526 0.81654 0.44265 0.0
C449 C 0.53773 0.90536 0.40603 0.0
N450 N 0.63797 0.86711 0.47587 0.0
N451 N 0.46125 0.86071 0.39009 0.0
H452 H 0.54009 0.98208 0.38883 0.0
H453 H 0.49354 0.9476 0.36504 0.0
H454 H 0.43863 0.82889 0.39026 0.0
H455 H 0.44238 0.8929 0.38064 0.0
H456 H 0.6484 0.83828 0.49536 0.0
H457 H 0.65616 0.90096 0.48127 0.0
H458 H 0.63377 0.77079 0.4661 0.0
H459 H 0.58289 0.73734 0.44846 0.0
C460 C 0.60398 0.55193 0.38318 0.0
C461 C 0.59691 0.58804 0.41446 0.0
C462 C 0.66461 0.54776 0.45232 0.0
C463 C 0.67778 0.51925 0.41773 0.0
N464 N 0.64671 0.47651 0.35991 0.0
N465 N 0.62423 0.62288 0.47755 0.0
C466 C 0.64366 0.51643 0.38566 0.0
C467 C 0.62784 0.58629 0.44894 0.0
N468 N 0.57233 0.55106 0.35123 0.0
N469 N 0.68373 0.53556 0.48904 0.0
H470 H 0.59899 0.6528 0.47584 0.0
H471 H 0.64978 0.62634 0.5009 0.0
H472 H 0.7041 0.50273 0.49417 0.0
H473 H 0.6721 0.55285 0.51558 0.0
H474 H 0.5801 0.53271 0.32431 0.0
H475 H 0.53741 0.56813 0.35222 0.0
H476 H 0.62075 0.46895 0.33759 0.0
H477 H 0.67246 0.44728 0.36405 0.0
C478 C 0.95561 0.66745 0.44784 0.0
C479 C 0.95022 0.69994 0.41396 0.0
C480 C 0.87135 0.65793 0.39719 0.0
C481 C 0.88245 0.61968 0.42545 0.0
N482 N 0.91722 0.60437 0.49107 0.0
N483 N 0.89843 0.73046 0.35937 0.0
C484 C 0.91919 0.62923 0.45513 0.0
C485 C 0.90669 0.69653 0.38956 0.0
N486 N 0.99621 0.67234 0.47235 0.0
N487 N 0.82465 0.65965 0.38057 0.0
H488 H 0.91828 0.76373 0.35605 0.0
H489 H 0.87233 0.725 0.33672 0.0
H490 H 0.79638 0.63492 0.38936 0.0
H491 H 0.81174 0.68876 0.36238 0.0
H492 H 1.00274 0.65054 0.4977 0.0
H493 H 0.0261 0.69611 0.46597 0.0
H494 H 0.94153 0.61042 0.51479 0.0
H495 H 0.88661 0.58284 0.49979 0.0
C496 C 0.15669 0.38847 0.88995 0.0
C497 C 0.1189 0.40111 0.91842 0.0
C498 C 0.16724 0.47491 0.9382 0.0
C499 C 0.19999 0.46732 0.90475 0.0
N500 N 0.22765 0.41387 0.84977 0.0
N501 N 0.10661 0.43771 0.98381 0.0
C502 C 0.19528 0.42324 0.88092 0.0
C503 C 0.12922 0.43897 0.94696 0.0
N504 N 0.15839 0.34083 0.87467 0.0
N505 N 0.17129 0.51747 0.9608 0.0
H506 H 0.08355 0.40845 0.99304 0.0
H507 H 0.11741 0.4604 0.00757 0.0
H508 H 0.19528 0.54689 0.95342 0.0
H509 H 0.14813 0.52572 0.9851 0.0
H510 H 0.18768 0.32698 0.85704 0.0
H511 H 0.13374 0.31289 0.88415 0.0
H512 H 0.22077 0.38717 0.8277 0.0
H513 H 0.26074 0.43335 0.84479 0.0
C514 C 0.08465 0.19886 0.93482 0.0
C515 C 0.03745 0.19758 0.91492 0.0
C516 C 0.04643 0.10652 0.90564 0.0
C517 C 0.09472 0.10886 0.92313 0.0
N518 N 0.15331 0.15194 0.96485 0.0
N519 N 0.97118 0.15102 0.88385 0.0
C520 C 0.11174 0.15344 0.9411 0.0
C521 C 0.01749 0.15142 0.90126 0.0
N522 N 0.10528 0.24384 0.94531 0.0
N523 N 0.0286 0.06096 0.89357 0.0
H524 H 0.94838 0.18288 0.88204 0.0
H525 H 0.95465 0.11971 0.8711 0.0
H526 H 0.04874 0.0276 0.89728 0.0
H527 H 0.99455 0.05535 0.87943 0.0
H528 H 0.14202 0.24776 0.95502 0.0
H529 H 0.08733 0.27829 0.94146 0.0
H530 H 0.16518 0.18193 0.98229 0.0
H531 H 0.17327 0.11882 0.97028 0.0
C532 C 0.36108 0.01943 0.92751 0.0
C533 C 0.31466 0.04467 0.92364 0.0
C534 C 0.35702 0.12613 0.92667 0.0
C535 C 0.40363 0.10079 0.92424 0.0
N536 N 0.45095 0.0237 0.91895 0.0
N537 N 0.26714 0.12177 0.9179 0.0
C538 C 0.40603 0.04748 0.92443 0.0
C539 C 0.31217 0.09804 0.92326 0.0
N540 N 0.362 0.96867 0.93375 0.0
N541 N 0.35587 0.17697 0.93241 0.0
H542 H 0.23343 0.10245 0.91619 0.0
H543 H 0.26332 0.16017 0.91273 0.0
H544 H 0.38837 0.19832 0.93497 0.0
H545 H 0.32321 0.19737 0.9381 0.0
H546 H 0.39431 0.94851 0.94071 0.0
H547 H 0.32947 0.94724 0.93527 0.0
H548 H 0.45453 0.98517 0.91461 0.0
H549 H 0.48465 0.04291 0.91591 0.0
C550 C 0.41486 0.31303 0.88653 0.0
C551 C 0.46357 0.31121 0.90367 0.0
C552 C 0.44482 0.38883 0.94115 0.0
C553 C 0.40076 0.39549 0.91791 0.0
N554 N 0.33269 0.3527 0.88657 0.0
N555 N 0.52539 0.34674 0.9475 0.0
C556 C 0.38255 0.35422 0.89559 0.0
C557 C 0.47842 0.34874 0.93139 0.0
N558 N 0.39909 0.27528 0.86195 0.0
N559 N 0.45267 0.41774 0.97433 0.0
H560 H 0.5525 0.32054 0.93872 0.0
H561 H 0.53897 0.37273 0.96777 0.0
H562 H 0.42639 0.44301 0.98566 0.0
H563 H 0.48109 0.41084 0.99484 0.0
H564 H 0.36722 0.27782 0.84421 0.0
H565 H 0.41863 0.24171 0.85786 0.0
H566 H 0.31507 0.32228 0.87328 0.0
H567 H 0.30754 0.37983 0.89721 0.0
C568 C 0.13327 0.07102 0.54557 0.0
C569 C 0.12369 0.11334 0.57022 0.0
C570 C 0.20496 0.09997 0.6033 0.0
C571 C 0.2088 0.05179 0.58497 0.0
N572 N 0.1759 0.99093 0.53852 0.0
N573 N 0.16402 0.18166 0.60357 0.0
C574 C 0.17306 0.03745 0.5557 0.0
C575 C 0.16352 0.13179 0.59396 0.0
N576 N 0.10868 0.06589 0.51012 0.0
N577 N 0.24106 0.11579 0.62925 0.0
H578 H 0.13765 0.20676 0.59191 0.0
H579 H 0.1934 0.19942 0.61807 0.0
H580 H 0.27497 0.09703 0.63343 0.0
H581 H 0.23673 0.14688 0.64788 0.0
H582 H 0.11976 0.03993 0.48845 0.0
H583 H 0.08409 0.09301 0.49909 0.0
H584 H 0.14938 0.9776 0.51852 0.0
H585 H 0.20253 0.96398 0.54661 0.0
C586 C 0.50148 0.15204 0.59398 0.0
C587 C 0.48019 0.19637 0.57759 0.0
C588 C 0.4088 0.14794 0.55259 0.0
C589 C 0.42636 0.10569 0.57419 0.0
N590 N 0.48866 0.06621 0.61591 0.0
N591 N 0.41033 0.23837 0.54558 0.0
C592 C 0.47273 0.10728 0.59479 0.0
C593 C 0.43335 0.19478 0.55737 0.0
N594 N 0.54958 0.15268 0.60796 0.0
N595 N 0.3682 0.14346 0.52811 0.0
H596 H 0.42571 0.27375 0.55002 0.0
H597 H 0.37385 0.24003 0.53476 0.0
H598 H 0.34874 0.10985 0.5249 0.0
H599 H 0.35661 0.17156 0.50837 0.0
H600 H 0.56889 0.12093 0.61779 0.0
H601 H 0.5721 0.18454 0.60655 0.0
H602 H 0.5181 0.06732 0.63614 0.0
H603 H 0.47093 0.03145 0.6145 0.0
C604 C 0.36382 0.49148 0.60333 0.0
C605 C 0.32043 0.4743 0.58355 0.0
C606 C 0.3694 0.40676 0.5515 0.0
C607 C 0.41064 0.41957 0.5756 0.0
N608 N 0.44923 0.47451 0.62356 0.0
N609 N 0.27962 0.41079 0.54351 0.0
C610 C 0.40841 0.46214 0.60125 0.0
C611 C 0.32263 0.43102 0.55842 0.0
N612 N 0.36286 0.53682 0.62265 0.0
N613 N 0.3748 0.37127 0.5222 0.0
H614 H 0.24409 0.42574 0.54894 0.0
H615 H 0.27845 0.37622 0.52898 0.0
H616 H 0.40865 0.35276 0.5166 0.0
H617 H 0.34738 0.36382 0.50096 0.0
H618 H 0.3942 0.5537 0.63506 0.0
H619 H 0.33128 0.56005 0.62337 0.0
H620 H 0.44782 0.49984 0.64726 0.0
H621 H 0.48438 0.45812 0.61898 0.0
C622 C 0.08349 0.38272 0.53889 0.0
C623 C 0.11907 0.39312 0.56937 0.0
C624 C 0.09425 0.31639 0.60514 0.0
C625 C 0.05303 0.31073 0.57855 0.0
N626 N 0.01376 0.33424 0.51563 0.0
N627 N 0.17598 0.35297 0.61508 0.0
C628 C 0.04971 0.34218 0.54395 0.0
C629 C 0.12972 0.3548 0.59772 0.0
N630 N 0.0818 0.40873 0.50369 0.0
N631 N 0.10042 0.28502 0.63734 0.0
H632 H 0.20437 0.37794 0.60708 0.0
H633 H 0.18835 0.32328 0.63297 0.0
H634 H 0.08052 0.25199 0.64171 0.0
H635 H 0.125 0.29271 0.66069 0.0
H636 H 0.10768 0.43569 0.4947 0.0
H637 H 0.10768 0.43569 0.4947 0.0
H638 H 0.0115 0.35544 0.48928 0.0
H639 H 0.98472 0.30861 0.51913 0.0
C640 C 0.15692 0.68822 0.25803 0.0
C641 C 0.17006 0.71023 0.22078 0.0
C642 C 0.17812 0.79233 0.2516 0.0
C643 C 0.15454 0.77245 0.28641 0.0
N644 N 0.14122 0.70111 0.3293 0.0
N645 N 0.21698 0.77353 0.18707 0.0
C646 C 0.1513 0.71986 0.29195 0.0
C647 C 0.18949 0.75911 0.21959 0.0
N648 N 0.14531 0.63839 0.25971 0.0
N649 N 0.18538 0.84282 0.24766 0.0
H650 H 0.22393 0.74875 0.16335 0.0
H651 H 0.23711 0.80687 0.18628 0.0
H652 H 0.17797 0.86813 0.27079 0.0
H653 H 0.19714 0.85968 0.22098 0.0
H654 H 0.12947 0.62092 0.2847 0.0
H655 H 0.15131 0.61455 0.23531 0.0
H656 H 0.14093 0.66298 0.33625 0.0
H657 H 0.13728 0.72471 0.35411 0.0
C658 C 0.77432 0.15427 0.29475 0.0
C659 C 0.72211 0.15354 0.28782 0.0
C660 C 0.73553 0.16306 0.21582 0.0
C661 C 0.78724 0.1545 0.22217 0.0
N662 N 0.8581 0.1602 0.26578 0.0
N663 N 0.65347 0.178 0.2458 0.0
C664 C 0.80746 0.15719 0.26125 0.0
C665 C 0.70287 0.16563 0.24957 0.0
N666 N 0.79149 0.14928 0.33312 0.0
N667 N 0.71772 0.16479 0.17749 0.0
H668 H 0.62956 0.18004 0.27068 0.0
H669 H 0.63741 0.19013 0.21904 0.0
H670 H 0.74174 0.16499 0.15259 0.0
H671 H 0.6798 0.16451 0.17043 0.0
H672 H 0.82905 0.14502 0.34058 0.0
H673 H 0.76714 0.14912 0.35782 0.0
H674 H 0.8759 0.1637 0.29332 0.0
H675 H 0.88212 0.16319 0.24106 0.0
C676 C 0.34061 0.74784 0.21397 0.0
C677 C 0.34942 0.7995 0.22054 0.0
C678 C 0.34475 0.78698 0.29307 0.0
C679 C 0.34628 0.73448 0.28639 0.0
N680 N 0.32596 0.66533 0.24343 0.0
N681 N 0.34038 0.87083 0.26376 0.0
C682 C 0.33664 0.71508 0.24768 0.0
C683 C 0.34405 0.82 0.25944 0.0
N684 N 0.33937 0.73034 0.17547 0.0
N685 N 0.34756 0.8045 0.3315 0.0
H686 H 0.33894 0.89466 0.23887 0.0
H687 H 0.33462 0.88884 0.29111 0.0
H688 H 0.34618 0.78024 0.3562 0.0
H689 H 0.35184 0.84215 0.33892 0.0
H690 H 0.33786 0.69251 0.16786 0.0
H691 H 0.34027 0.75471 0.15083 0.0
H692 H 0.31643 0.64874 0.2163 0.0
H693 H 0.32288 0.64132 0.26811 0.0
C694 C 0.77802 0.35697 0.2071 0.0
C695 C 0.72603 0.35953 0.21521 0.0
C696 C 0.74131 0.34219 0.28574 0.0
C697 C 0.79177 0.35548 0.27922 0.0
N698 N 0.86182 0.36513 0.23426 0.0
N699 N 0.65651 0.34434 0.25965 0.0
C700 C 0.8117 0.35769 0.23983 0.0
C701 C 0.70705 0.34703 0.2536 0.0
N702 N 0.79429 0.35687 0.16816 0.0
N703 N 0.72658 0.32748 0.32316 0.0
H704 H 0.63126 0.34639 0.2359 0.0
H705 H 0.63968 0.341 0.28781 0.0
H706 H 0.75233 0.3241 0.34651 0.0
H707 H 0.69078 0.31468 0.32977 0.0
H708 H 0.83164 0.35277 0.15958 0.0
H709 H 0.76906 0.35702 0.14432 0.0
H710 H 0.87832 0.37269 0.2065 0.0
H711 H 0.88695 0.36442 0.25813 0.0
C712 C 0.85197 0.27816 0.70699 0.0
C713 C 0.86 0.22609 0.71274 0.0
C714 C 0.85667 0.23601 0.78519 0.0
C715 C 0.85765 0.28869 0.77942 0.0
N716 N 0.835 0.35915 0.7381 0.0
N717 N 0.84878 0.15359 0.7548 0.0
C718 C 0.84733 0.30953 0.74127 0.0
C719 C 0.85429 0.20432 0.75117 0.0
N720 N 0.85202 0.29736 0.66892 0.0
N721 N 0.86226 0.21687 0.82295 0.0
H722 H 0.84734 0.13018 0.72975 0.0
H723 H 0.84149 0.13552 0.78197 0.0
H724 H 0.86237 0.24013 0.84811 0.0
H725 H 0.86837 0.17896 0.82908 0.0
H726 H 0.85163 0.33562 0.66239 0.0
H727 H 0.85351 0.27414 0.6437 0.0
H728 H 0.82472 0.37644 0.71129 0.0
H729 H 0.83069 0.38185 0.7634 0.0
C730 C 0.23865 0.85719 0.71077 0.0
C731 C 0.29094 0.85903 0.71669 0.0
C732 C 0.28001 0.85167 0.78902 0.0
C733 C 0.22818 0.86019 0.78344 0.0
N734 N 0.1559 0.85132 0.74133 0.0
N735 N 0.36143 0.83727 0.75772 0.0
C736 C 0.20662 0.85535 0.74492 0.0
C737 C 0.31165 0.84844 0.75472 0.0
N738 N 0.22033 0.86047 0.67262 0.0
N739 N 0.29872 0.85034 0.82709 0.0
H740 H 0.38461 0.8349 0.73242 0.0
H741 H 0.37875 0.82667 0.78436 0.0
H742 H 0.27525 0.85067 0.85232 0.0
H743 H 0.33677 0.84987 0.83366 0.0
H744 H 0.18255 0.86432 0.66575 0.0
H745 H 0.244 0.85974 0.6475 0.0
H746 H 0.13758 0.84601 0.71421 0.0
H747 H 0.13231 0.84904 0.76631 0.0
C748 C 0.66768 0.19941 0.74065 0.0
C749 C 0.65759 0.2195 0.77905 0.0
C750 C 0.66411 0.30449 0.75178 0.0
C751 C 0.65856 0.28395 0.71294 0.0
N752 N 0.66373 0.21312 0.66855 0.0
N753 N 0.65661 0.28998 0.82379 0.0
C754 C 0.66454 0.23167 0.70673 0.0
C755 C 0.66058 0.27189 0.78554 0.0
N756 N 0.67907 0.14966 0.73703 0.0
N757 N 0.67059 0.355 0.75603 0.0
H758 H 0.65608 0.26603 0.8487 0.0
H759 H 0.65299 0.32791 0.83079 0.0
H760 H 0.67303 0.37898 0.73126 0.0
H761 H 0.67738 0.37243 0.78338 0.0
H762 H 0.68939 0.13274 0.71003 0.0
H763 H 0.68294 0.12668 0.76229 0.0
H764 H 0.66183 0.17498 0.66194 0.0
H765 H 0.66351 0.23674 0.64344 0.0
C766 C 0.20629 0.66693 0.75095 0.0
C767 C 0.22637 0.6553 0.71267 0.0
C768 C 0.31095 0.66512 0.73797 0.0
C769 C 0.29101 0.66046 0.77696 0.0
N770 N 0.22215 0.66952 0.82282 0.0
N771 N 0.29654 0.65134 0.66715 0.0
C772 C 0.23923 0.66703 0.78416 0.0
C773 C 0.27846 0.6586 0.70512 0.0
N774 N 0.15607 0.67526 0.75537 0.0
N775 N 0.36089 0.67363 0.73294 0.0
H776 H 0.27273 0.64811 0.64256 0.0
H777 H 0.33442 0.64667 0.66043 0.0
H778 H 0.38422 0.67918 0.75757 0.0
H779 H 0.37773 0.67999 0.7051 0.0
H780 H 0.13911 0.68583 0.78231 0.0
H781 H 0.13181 0.67505 0.73094 0.0
H782 H 0.18446 0.6694 0.831 0.0
H783 H 0.24693 0.67126 0.8469 0.0
C784 C 0.21032 0.77785 0.07619 0.0
C785 C 0.2127 0.72913 0.0587 0.0
C786 C 0.30096 0.7451 0.04002 0.0
C787 C 0.30086 0.79079 0.06261 0.0
N788 N 0.25499 0.8424 0.11097 0.0
N789 N 0.26229 0.66426 0.02715 0.0
C790 C 0.25525 0.80541 0.0825 0.0
C791 C 0.25891 0.71188 0.04216 0.0
N792 N 0.1656 0.7971 0.08957 0.0
N793 N 0.33975 0.73465 0.01433 0.0
H794 H 0.23128 0.64117 0.02338 0.0
H795 H 0.29624 0.64663 0.02045 0.0
H796 H 0.36494 0.76179 0.00449 0.0
H797 H 0.34342 0.70142 0.9983 0.0
H798 H 0.16 0.83529 0.09491 0.0
H799 H 0.13332 0.77606 0.09388 0.0
H800 H 0.22327 0.85375 0.12693 0.0
H801 H 0.28693 0.85678 0.12398 0.0
C802 C 0.81156 0.26104 0.0476 0.0
C803 C 0.78608 0.21518 0.05563 0.0
C804 C 0.71355 0.2638 0.07987 0.0
C805 C 0.73606 0.31029 0.06848 0.0
N806 N 0.81357 0.35214 0.05061 0.0
N807 N 0.70534 0.17561 0.06601 0.0
C808 C 0.78713 0.30864 0.05467 0.0
C809 C 0.73473 0.21741 0.06697 0.0
N810 N 0.85978 0.25862 0.03355 0.0
N811 N 0.67511 0.26289 0.10715 0.0
H812 H 0.71718 0.14096 0.05522 0.0
H813 H 0.66672 0.17724 0.07084 0.0
H814 H 0.66488 0.29395 0.12426 0.0
H815 H 0.65975 0.22971 0.11826 0.0
H816 H 0.88384 0.28901 0.03115 0.0
H817 H 0.87586 0.22513 0.02333 0.0
H818 H 0.84638 0.35562 0.03387 0.0
H819 H 0.80507 0.38438 0.06693 0.0
C820 C 0.24525 0.69515 0.45127 0.0
C821 C 0.29208 0.72044 0.44933 0.0
C822 C 0.24842 0.79694 0.42806 0.0
C823 C 0.20051 0.77406 0.43317 0.0
N824 N 0.15635 0.69479 0.43597 0.0
N825 N 0.33221 0.80164 0.45368 0.0
C826 C 0.19957 0.7212 0.44139 0.0
C827 C 0.29185 0.7732 0.44358 0.0
N828 N 0.2446 0.64649 0.46447 0.0
N829 N 0.25418 0.83867 0.40456 0.0
H830 H 0.36233 0.78772 0.47002 0.0
H831 H 0.33163 0.84078 0.45194 0.0
H832 H 0.22682 0.85113 0.38468 0.0
H833 H 0.28904 0.85472 0.39883 0.0
H834 H 0.21241 0.62529 0.46855 0.0
H835 H 0.27652 0.62874 0.47579 0.0
H836 H 0.15354 0.65604 0.43874 0.0
H837 H 0.12427 0.71 0.42315 0.0
C838 C 0.73229 0.30057 0.43052 0.0
C839 C 0.7839 0.29794 0.44117 0.0
C840 C 0.77235 0.20811 0.45755 0.0
C841 C 0.72309 0.20889 0.44079 0.0
N842 N 0.66485 0.25665 0.39921 0.0
N843 N 0.85443 0.24672 0.46116 0.0
C844 C 0.70507 0.25541 0.42449 0.0
C845 C 0.80453 0.25067 0.45276 0.0
N846 N 0.70942 0.34571 0.42293 0.0
N847 N 0.78769 0.16829 0.48045 0.0
H848 H 0.87789 0.27767 0.46376 0.0
H849 H 0.87315 0.21244 0.46375 0.0
H850 H 0.76282 0.14318 0.49371 0.0
H851 H 0.82369 0.16402 0.49161 0.0
H852 H 0.67056 0.34989 0.42274 0.0
H853 H 0.72809 0.37931 0.41796 0.0
H854 H 0.6499 0.28945 0.38703 0.0
H855 H 0.65134 0.22537 0.38439 0.0
C856 C 0.75762 0.21237 0.91859 0.0
C857 C 0.71155 0.22845 0.93669 0.0
C858 C 0.75474 0.30718 0.95556 0.0
C859 C 0.80169 0.28747 0.94206 0.0
N860 N 0.84744 0.21155 0.92316 0.0
N861 N 0.67303 0.28718 0.98325 0.0
C862 C 0.80317 0.23679 0.9284 0.0
C863 C 0.71194 0.27487 0.95826 0.0
N864 N 0.75844 0.17707 0.88887 0.0
N865 N 0.75112 0.3562 0.96726 0.0
H866 H 0.64646 0.26126 0.99283 0.0
H867 H 0.67074 0.32076 -0.00101 0.0
H868 H 0.78217 0.37937 0.97041 0.0
H869 H 0.71694 0.37435 0.97216 0.0
H870 H 0.79105 0.16707 0.87339 0.0
H871 H 0.72656 0.16379 0.8749 0.0
H872 H 0.84872 0.17309 0.91721 0.0
H873 H 0.8826 0.22669 0.92795 0.0
C874 C 0.22778 0.70913 0.93601 0.0
C875 C 0.28068 0.71096 0.92855 0.0
C876 C 0.27777 0.80232 0.94043 0.0
C877 C 0.22491 0.80158 0.94541 0.0
N878 N 0.15275 0.75177 0.96099 0.0
N879 N 0.34545 0.76628 0.90249 0.0
C880 C 0.20086 0.75406 0.94691 0.0
C881 C 0.30287 0.75942 0.92474 0.0
N882 N 0.20202 0.66604 0.92817 0.0
N883 N 0.30519 0.84278 0.95212 0.0
H884 H 0.35929 0.73948 0.88253 0.0
H885 H 0.36108 0.80162 0.89769 0.0
H886 H 0.29042 0.87193 0.96929 0.0
H887 H 0.34425 0.84286 0.95106 0.0
H888 H 0.16325 0.6631 0.93007 0.0
H889 H 0.21801 0.63525 0.91365 0.0
H890 H 0.13367 0.71841 0.96626 0.0
H891 H 0.13392 0.78334 0.97211 0.0
C892 C 0.76108 0.2119 0.57015 0.0
C893 C 0.80899 0.23329 0.56208 0.0
C894 C 0.76425 0.31254 0.54408 0.0
C895 C 0.71709 0.28796 0.54778 0.0
N896 N 0.6759 0.20682 0.54782 0.0
N897 N 0.85497 0.30971 0.54821 0.0
C898 C 0.71711 0.23539 0.55521 0.0
C899 C 0.81023 0.28531 0.5508 0.0
N900 N 0.75618 0.1717 0.5954 0.0
N901 N 0.7649 0.36243 0.53433 0.0
H902 H 0.88665 0.29799 0.56379 0.0
H903 H 0.86018 0.3431 0.53247 0.0
H904 H 0.73359 0.38093 0.52269 0.0
H905 H 0.79602 0.38545 0.53708 0.0
H906 H 0.72142 0.15683 0.6033 0.0
H907 H 0.78484 0.15948 0.61416 0.0
H908 H 0.67636 0.16781 0.55096 0.0
H909 H 0.6447 0.21995 0.53243 0.0
C910 C 0.30499 0.75642 0.57678 0.0
C911 C 0.28822 0.8028 0.55975 0.0
C912 C 0.21008 0.75891 0.54109 0.0
C913 C 0.23098 0.71177 0.5531 0.0
N914 N 0.30896 0.66714 0.56819 0.0
N915 N 0.22725 0.84252 0.51585 0.0
C916 C 0.28193 0.71079 0.56558 0.0
C917 C 0.24125 0.80264 0.53922 0.0
N918 N 0.33978 0.7552 0.6067 0.0
N919 N 0.16116 0.76174 0.52953 0.0
H920 H 0.25212 0.86982 0.50591 0.0
H921 H 0.19313 0.84494 0.50111 0.0
H922 H 0.13949 0.73015 0.52381 0.0
H923 H 0.1418 0.79565 0.52669 0.0
H924 H 0.35084 0.72202 0.62086 0.0
H925 H 0.35113 0.78681 0.62226 0.0
H926 H 0.34732 0.66707 0.57407 0.0
H927 H 0.29605 0.63185 0.56045 0.0
C928 C 0.96921 0.48206 0.01825 0.0
C929 C 0.95785 0.49264 0.9776 0.0
C930 C 0.02913 0.55088 0.97508 0.0
C931 C 0.04279 0.53719 0.01527 0.0
N932 N 0.03526 0.47242 0.06635 0.0
N933 N 0.96359 0.55438 0.92495 0.0
C934 C 0.0153 0.49817 0.03466 0.0
C935 C 0.98393 0.53206 0.95807 0.0
N936 N 0.93493 0.45765 0.04169 0.0
N937 N 0.06109 0.57829 0.95157 0.0
H938 H 0.92761 0.54615 0.91508 0.0
H939 H 0.97852 0.58622 0.91127 0.0
H940 H 0.0967 0.58897 0.9605 0.0
H941 H 0.05544 0.58439 0.92102 0.0
H942 H 0.93974 0.45169 0.07237 0.0
H943 H 0.89905 0.44945 0.03135 0.0
H944 H 0.01778 0.44155 0.07954 0.0
H945 H 0.07256 0.47575 0.07484 0.0
C946 C 0.98723 0.99162 0.96313 0.0
C947 C 0.02837 0.96683 0.98175 0.0
C948 C 0.02355 0.02746 0.03747 0.0
C949 C 0.9827 0.05236 0.01886 0.0
N950 N 0.9401 0.0692 0.95661 0.0
N951 N 0.06806 0.94903 0.04538 0.0
C952 C 0.96871 0.03756 0.97947 0.0
C953 C 0.04152 0.98122 0.02149 0.0
N954 N 0.96341 0.96975 0.93153 0.0
N955 N 0.04801 0.04965 0.06855 0.0
H956 H 0.07691 0.91241 0.03677 0.0
H957 H 0.07452 0.95587 0.07572 0.0
H958 H 0.04088 0.08663 0.07717 0.0
H959 H 0.08046 0.03464 0.08117 0.0
H960 H 0.93078 0.98418 0.91888 0.0
H961 H 0.97125 0.93326 0.92209 0.0
H962 H 0.92901 0.06138 0.92742 0.0
H963 H 0.93323 0.1064 0.96492 0.0
C964 C 0.54508 0.98569 0.97832 0.0
C965 C 0.54714 0.03821 0.98473 0.0
C966 C 0.46652 0.03363 0.02132 0.0
C967 C 0.46441 0.9811 0.01497 0.0
N968 N 0.49322 0.91246 0.9723 0.0
N969 N 0.51907 0.10624 0.02812 0.0
C970 C 0.50132 0.95833 0.98936 0.0
C971 C 0.5104 0.06085 0.01047 0.0
N972 N 0.58652 0.96122 0.96385 0.0
N973 N 0.42518 0.05822 0.03584 0.0
H974 H 0.55385 0.12356 0.02795 0.0
H975 H 0.49481 0.12233 0.04914 0.0
H976 H 0.39146 0.03981 0.04157 0.0
H977 H 0.42227 0.09725 0.03693 0.0
H978 H 0.58963 0.92221 0.9628 0.0
H979 H 0.62021 0.9797 0.95817 0.0
H980 H 0.51735 0.89659 0.95108 0.0
H981 H 0.45915 0.89392 0.97337 0.0
C982 C 0.51421 0.52134 0.04044 0.0
C983 C 0.54663 0.48794 0.01899 0.0
C984 C 0.52928 0.53748 0.95833 0.0
C985 C 0.48666 0.55984 0.97702 0.0
N986 N 0.44239 0.57648 0.03967 0.0
N987 N 0.58052 0.46331 0.95368 0.0
C988 C 0.47972 0.55218 0.0191 0.0
C989 C 0.55291 0.49564 0.97683 0.0
N990 N 0.51983 0.52822 0.0808 0.0
N991 N 0.55006 0.55822 0.92461 0.0
H992 H 0.5985 0.43138 0.96453 0.0
H993 H 0.58105 0.4656 0.92239 0.0
H994 H 0.53994 0.59376 0.91415 0.0
H995 H 0.58306 0.5446 0.9116 0.0
H996 H 0.49978 0.55515 0.09699 0.0
H997 H 0.54969 0.51334 0.09692 0.0
H998 H 0.43055 0.56517 0.06819 0.0
H999 H 0.42418 0.60847 0.02895 0.0
C1000 C 0.9729 0.03844 0.47332 0.0
C1001 C 0.95797 0.02563 0.51294 0.0
C1002 C 0.02369 0.96107 0.51498 0.0
C1003 C 0.0407 0.9755 0.4758 0.0
N1004 N 0.04175 0.04257 0.4264 0.0
N1005 N 0.9535 0.95847 0.56121 0.0
C1006 C 0.01793 0.01804 0.45707 0.0
C1007 C 0.97867 0.98205 0.5308 0.0
N1008 N 0.94261 0.06815 0.45032 0.0
N1009 N 0.0524 0.93079 0.5389 0.0
H1010 H 0.91746 0.96938 0.56998 0.0
H1011 H 0.96474 0.92401 0.57316 0.0
H1012 H 0.0886 0.9194 0.53142 0.0
H1013 H 0.04344 0.92329 0.56883 0.0
H1014 H 0.95009 0.07619 0.42025 0.0
H1015 H 0.90663 0.07856 0.45969 0.0
H1016 H 0.02831 0.07589 0.41387 0.0
H1017 H 0.07875 0.03501 0.41823 0.0
C1018 C 0.46646 0.98043 0.48104 0.0
C1019 C 0.48472 0.96 0.51771 0.0
C1020 C 0.54498 0.02887 0.52171 0.0
C1021 C 0.52676 0.04936 0.48504 0.0
N1022 N 0.45564 0.05549 0.44101 0.0
N1023 N 0.55601 0.95369 0.5615 0.0
C1024 C 0.48327 0.02826 0.4678 0.0
C1025 C 0.52827 0.98101 0.53484 0.0
N1026 N 0.43585 0.9526 0.45723 0.0
N1027 N 0.57545 0.05667 0.54566 0.0
H1028 H 0.54857 0.91601 0.56763 0.0
H1029 H 0.59033 0.96572 0.57255 0.0
H1030 H 0.58249 0.09454 0.54007 0.0
H1031 H 0.58701 0.04475 0.57397 0.0
H1032 H 0.42417 0.96444 0.42893 0.0
H1033 H 0.42878 0.91475 0.46291 0.0
H1034 H 0.4214 0.04339 0.42985 0.0
H1035 H 0.46294 0.09319 0.43491 0.0
C1036 C 0.52124 0.52146 0.53332 0.0
C1037 C 0.55294 0.48558 0.51454 0.0
C1038 C 0.50556 0.4994 0.45124 0.0
C1039 C 0.46876 0.52878 0.47257 0.0
N1040 N 0.43693 0.55387 0.53778 0.0
N1041 N 0.58168 0.44832 0.45274 0.0
C1042 C 0.47535 0.53551 0.51473 0.0
C1043 C 0.54637 0.47637 0.47266 0.0
N1044 N 0.53584 0.54457 0.56781 0.0
N1045 N 0.50371 0.49545 0.41038 0.0
H1046 H 0.61748 0.44225 0.46424 0.0
H1047 H 0.57664 0.43173 0.42485 0.0
H1048 H 0.48105 0.51716 0.3922 0.0
H1049 H 0.52758 0.47343 0.39301 0.0
H1050 H 0.51533 0.57354 0.58119 0.0
H1051 H 0.57201 0.54106 0.57904 0.0
H1052 H 0.43968 0.55869 0.56869 0.0
H1053 H 0.40051 0.55798 0.52702 0.0
C1054 C 0.01465 0.50288 0.54118 0.0
C1055 C 0.03648 0.54331 0.51923 0.0
C1056 C 0.99627 0.51294 0.45763 0.0
C1057 C 0.97553 0.47175 0.47939 0.0
N1058 N 0.96274 0.43098 0.54443 0.0
N1059 N 0.05687 0.57952 0.45415 0.0
C1060 C 0.98339 0.46814 0.52157 0.0
C1061 C 0.03034 0.54579 0.47676 0.0
N1062 N 0.0266 0.49443 0.58057 0.0
N1063 N 0.97944 0.52445 0.41989 0.0
H1064 H 0.07708 0.6092 0.466 0.0
H1065 H 0.0604 0.57679 0.42303 0.0
H1066 H 0.95093 0.50529 0.40547 0.0
H1067 H 0.98877 0.55735 0.40466 0.0
H1068 H 0.01109 0.4653 0.59752 0.0
H1069 H 0.05472 0.51329 0.59573 0.0
H1070 H 0.94055 0.40199 0.53362 0.0
H1071 H 0.94055 0.40199 0.53362 0.0
C1072 C 0.9592 0.55381 0.27711 0.0
C1073 C 0.96878 0.50276 0.28638 0.0
C1074 C 0.0363 0.50572 0.23514 0.0
C1075 C 0.01736 0.5527 0.22041 0.0
N1076 N 0.94243 0.60554 0.22021 0.0
N1077 N 0.01375 0.42688 0.26714 0.0
C1078 C 0.97329 0.57213 0.23918 0.0
C1079 C 0.00672 0.47746 0.2635 0.0
N1080 N 0.93633 0.58508 0.30408 0.0
N1081 N 0.08249 0.48848 0.22389 0.0
H1082 H 0.99253 0.40437 0.28622 0.0
H1083 H 0.03776 0.40677 0.24819 0.0
H1084 H 0.10693 0.50863 0.20564 0.0
H1085 H 0.0987 0.45652 0.23666 0.0
H1086 H 0.93044 0.62315 0.29794 0.0
H1087 H 0.92951 0.57436 0.3338 0.0
H1088 H 0.90919 0.61841 0.23343 0.0
H1089 H 0.9458 0.61384 0.1897 0.0
C1090 C 0.02821 0.94637 0.23315 0.0
C1091 C 0.03054 0.96564 0.27278 0.0
C1092 C 0.99003 0.04395 0.25024 0.0
C1093 C 0.97924 0.02055 0.21297 0.0
N1094 N 0.99228 0.95252 0.16641 0.0
N1095 N 0.02089 0.03472 0.31868 0.0
C1096 C 1.00038 0.97289 0.20349 0.0
C1097 C 0.01454 0.01556 0.28101 0.0
N1098 N 0.05341 0.90291 0.22407 0.0
N1099 N 0.97579 0.09276 0.25629 0.0
H1100 H 0.03983 0.01529 0.34121 0.0
H1101 H 0.00646 0.06897 0.32841 0.0
H1102 H 0.95789 0.11407 0.23433 0.0
H1103 H 0.9843 0.11354 0.2817 0.0
H1104 H 0.05675 0.88822 0.19525 0.0
H1105 H 0.07495 0.88354 0.24518 0.0
H1106 H 1.00078 0.91553 0.15883 0.0
H1107 H 0.97553 0.97269 0.14309 0.0
C1108 C 0.55173 0.03883 0.24235 0.0
C1109 C 0.52906 0.04093 0.2808 0.0
C1110 C 0.45391 1.00063 0.2537 0.0
C1111 C 0.48107 0.9892 0.21791 0.0
N1112 N 0.5568 0.99665 0.17848 0.0
N1113 N 0.45742 0.02824 0.32349 0.0
C1114 C 0.52991 0.00901 0.21206 0.0
C1115 C 0.47927 0.02402 0.28644 0.0
N1116 N 0.5948 0.06495 0.23517 0.0
N1117 N 0.40452 0.98807 0.25663 0.0
H1118 H 0.47479 0.04676 0.34718 0.0
H1119 H 0.42342 0.01194 0.33135 0.0
H1120 H 0.38541 0.97099 0.23321 0.0
H1121 H 0.38147 0.998 0.28068 0.0
H1122 H 0.61085 0.06911 0.20676 0.0
H1123 H 0.61173 0.08661 0.25725 0.0
H1124 H 0.59479 1.00416 0.1748 0.0
H1125 H 0.5417 0.97553 0.15539 0.0
C1126 C 0.48486 0.49489 0.27717 0.0
C1127 C 0.46943 0.54558 0.27138 0.0
C1128 C 0.51237 0.54793 0.20625 0.0
C1129 C 0.53037 0.49808 0.21257 0.0
N1130 N 0.526 0.42041 0.24984 0.0
N1131 N 0.45194 0.61226 0.22474 0.0
C1132 C 0.51353 0.47012 0.24649 0.0
C1133 C 0.47762 0.56917 0.23383 0.0
N1134 N 0.47423 0.47133 0.31263 0.0
N1135 N 0.5305 0.57627 0.17515 0.0
H1136 H 0.42574 0.62812 0.24446 0.0
H1137 H 0.45251 0.629 0.19641 0.0
H1138 H 0.55556 0.56252 0.15374 0.0
H1139 H 0.52351 0.61463 0.17212 0.0
H1140 H 0.49036 0.43746 0.32159 0.0
H1141 H 0.44933 0.48627 0.33363 0.0
H1142 H 0.51143 0.39658 0.27173 0.0
H1143 H 0.54864 0.4018 0.22898 0.0
C1144 C 0.05483 0.53547 0.75788 0.0
C1145 C 0.03716 0.53315 0.71768 0.0
C1146 C 0.96642 0.48125 0.73985 0.0
C1147 C 0.98578 0.48115 0.77952 0.0
N1148 N 0.03983 0.51771 0.82873 0.0
N1149 N 0.96993 0.51617 0.6722 0.0
C1150 C 0.02716 0.51172 0.7893 0.0
C1151 C 0.9906 0.51032 0.70934 0.0
N1152 N 0.09924 0.55876 0.76557 0.0
N1153 N 0.92659 0.45139 0.73099 0.0
H1154 H 0.9868 0.53786 0.64984 0.0
H1155 H 0.93437 0.50364 0.66468 0.0
H1156 H 0.90725 0.43124 0.75298 0.0
H1157 H 0.9141 0.4447 0.70196 0.0
H1158 H 0.11764 0.55693 0.793 0.0
H1159 H 0.11892 0.57872 0.74365 0.0
H1160 H 0.06702 0.54253 0.83864 0.0
H1161 H 0.01994 0.50067 0.85213 0.0
C1162 C 1.00407 0.99394 0.7143 0.0
C1163 C 0.98932 0.04498 0.71819 0.0
C1164 C 0.03079 0.04989 0.78299 0.0
C1165 C 0.04406 0.99795 0.78095 0.0
N1166 N 0.03556 0.91833 0.74692 0.0
N1167 N 0.97259 0.1145 0.76239 0.0
C1168 C 0.02747 0.96901 0.74758 0.0
C1169 C 0.99695 0.07019 0.75483 0.0
N1170 N 0.9984 0.97031 0.67827 0.0
N1171 N 0.05291 0.08142 0.80974 0.0
H1172 H 0.94748 0.13049 0.7421 0.0
H1173 H 0.97329 0.13217 0.79031 0.0
H1174 H 0.07933 0.07003 0.83059 0.0
H1175 H 0.04832 0.12034 0.80876 0.0
H1176 H 0.01362 0.93512 0.67181 0.0
H1177 H 0.98069 0.9874 0.65391 0.0
H1178 H 0.02051 0.89476 0.72527 0.0
H1179 H 0.05433 0.8992 0.76968 0.0
C1180 C 0.46476 0.97122 0.76147 0.0
C1181 C 0.48219 0.97461 0.72115 0.0
C1182 C 0.55366 0.02469 0.74315 0.0
C1183 C 0.53435 0.02397 0.783 0.0
N1184 N 0.48372 0.98215 0.83215 0.0
N1185 N 0.55109 0.98919 0.6759 0.0
C1186 C 0.49381 0.99227 0.79278 0.0
C1187 C 0.52955 0.99603 0.71278 0.0
N1188 N 0.41951 0.94961 0.76959 0.0
N1189 N 0.59322 0.05488 0.73398 0.0
H1190 H 0.53383 0.96849 0.65335 0.0
H1191 H 0.58737 1.00048 0.66879 0.0
H1192 H 0.61244 0.07455 0.756 0.0
H1193 H 0.60537 0.06203 0.70474 0.0
H1194 H 0.402 0.95106 0.79761 0.0
H1195 H 0.39825 0.93219 0.74753 0.0
H1196 H 0.45694 0.95638 0.84168 0.0
H1197 H 0.50666 0.9956 0.85494 0.0
C1198 C 0.50841 0.48054 0.79009 0.0
C1199 C 0.48223 0.52515 0.77983 0.0
C1200 C 0.51853 0.52161 0.71173 0.0
C1201 C 0.53578 0.47208 0.71966 0.0
N1202 N 0.55157 0.4053 0.7671 0.0
N1203 N 0.46243 0.58949 0.73141 0.0
C1204 C 0.53265 0.45215 0.75931 0.0
C1205 C 0.48826 0.54674 0.74104 0.0
N1206 N 0.50997 0.46564 0.82942 0.0
N1207 N 0.53039 0.54423 0.67609 0.0
H1208 H 0.44146 0.60953 0.75251 0.0
H1209 H 0.45965 0.60365 0.70233 0.0
H1210 H 0.55151 0.52637 0.65386 0.0
H1211 H 0.52274 0.58181 0.66978 0.0
H1212 H 0.53151 0.4357 0.83988 0.0
H1213 H 0.4929 0.48631 0.85242 0.0
H1214 H 0.54539 0.38573 0.79375 0.0
H1215 H 0.57234 0.38496 0.74599 0.0
loop_
_geom_bond_atom_site_label_1
_geom_bond_atom_site_label_2
_geom_bond_distance
_geom_bond_site_symmetry_2
_ccdc_geom_bond_type
Sc0 O3 2.025 . S
Sc0 O10 2.105 . S
Sc0 O13 2.105 . S
Sc0 O16 2.105 1_455 S
Sc0 O19 2.105 . S
Sc1 O3 2.025 . S
Sc1 O11 2.105 . S
Sc1 O15 2.105 . S
Sc1 O17 2.105 . S
Sc1 O21 2.105 . S
Sc2 O3 2.025 1_655 S
Sc2 O12 2.105 1_655 S
Sc2 O14 2.105 . S
Sc2 O18 2.105 . S
Sc2 O20 2.105 . S
O3 Sc0 2.025 . S
O3 Sc1 2.025 . S
O3 Sc2 2.025 1_455 S
C4 O10 1.268 1_655 S
C4 O20 1.268 . S
C5 O11 1.268 . S
C5 O19 1.268 . S
C6 O12 1.268 . S
C6 O21 1.268 . S
C7 O13 1.268 . S
C7 O17 1.268 . S
C8 O14 1.268 . S
C8 O16 1.268 . S
C9 O15 1.268 . S
C9 O18 1.268 1_455 S
O10 Sc0 2.105 . S
O10 C4 1.268 1_455 S
O11 Sc1 2.105 . S
O11 C5 1.268 . S
O12 Sc2 2.105 1_455 S
O12 C6 1.268 . S
O13 Sc0 2.105 . S
O13 C7 1.268 . S
O14 Sc2 2.105 . S
O14 C8 1.268 . S
O15 Sc1 2.105 . S
O15 C9 1.268 . S
O16 Sc0 2.105 1_655 S
O16 C8 1.268 . S
O17 Sc1 2.105 . S
O17 C7 1.268 . S
O18 Sc2 2.105 . S
O18 C9 1.268 1_655 S
O19 Sc0 2.105 . S
O19 C5 1.268 . S
O20 Sc2 2.105 . S
O20 C4 1.268 . S
O21 Sc1 2.105 . S
O21 C6 1.268 . S
Sc22 O25 2.025 . S
Sc22 O32 2.105 . S
Sc22 O35 2.105 . S
Sc22 O38 2.105 1_545 S
Sc22 O41 2.105 . S
Sc23 O25 2.025 . S
Sc23 O33 2.105 . S
Sc23 O37 2.105 . S
Sc23 O39 2.105 . S
Sc23 O43 2.105 . S
Sc24 O25 2.025 1_565 S
Sc24 O34 2.105 1_565 S
Sc24 O36 2.105 . S
Sc24 O40 2.105 . S
Sc24 O42 2.105 . S
O25 Sc22 2.025 . S
O25 Sc23 2.025 . S
O25 Sc24 2.025 1_545 S
C26 O32 1.268 1_565 S
C26 O42 1.268 . S
C27 O33 1.268 . S
C27 O41 1.268 . S
C28 O34 1.268 . S
C28 O43 1.268 . S
C29 O35 1.268 . S
C29 O39 1.268 . S
C30 O36 1.268 . S
C30 O38 1.268 . S
C31 O37 1.268 . S
C31 O40 1.268 1_545 S
O32 Sc22 2.105 . S
O32 C26 1.268 1_545 S
O33 Sc23 2.105 . S
O33 C27 1.268 . S
O34 Sc24 2.105 1_545 S
O34 C28 1.268 . S
O35 Sc22 2.105 . S
O35 C29 1.268 . S
O36 Sc24 2.105 . S
O36 C30 1.268 . S
O37 Sc23 2.105 . S
O37 C31 1.268 . S
O38 Sc22 2.105 1_565 S
O38 C30 1.268 . S
O39 Sc23 2.105 . S
O39 C29 1.268 . S
O40 Sc24 2.105 . S
O40 C31 1.268 1_565 S
O41 Sc22 2.105 . S
O41 C27 1.268 . S
O42 Sc24 2.105 . S
O42 C26 1.268 . S
O43 Sc23 2.105 . S
O43 C28 1.268 . S
Sc44 O47 2.025 . S
Sc44 O54 2.105 . S
Sc44 O57 2.105 . S
Sc44 O60 2.105 . S
Sc44 O63 2.105 . S
Sc45 O47 2.025 . S
Sc45 O55 2.105 . S
Sc45 O59 2.105 . S
Sc45 O61 2.105 . S
Sc45 O65 2.105 . S
Sc46 O47 2.025 . S
Sc46 O56 2.105 . S
Sc46 O58 2.105 . S
Sc46 O62 2.105 . S
Sc46 O64 2.105 . S
O47 Sc44 2.025 . S
O47 Sc45 2.025 . S
O47 Sc46 2.025 . S
C48 O54 1.268 . S
C48 O64 1.268 . S
C49 O55 1.268 . S
C49 O63 1.268 . S
C50 O56 1.268 . S
C50 O65 1.268 . S
C51 O57 1.268 . S
C51 O61 1.268 . S
C52 O58 1.268 . S
C52 O60 1.268 . S
C53 O59 1.268 . S
C53 O62 1.268 . S
O54 Sc44 2.105 . S
O54 C48 1.268 . S
O55 Sc45 2.105 . S
O55 C49 1.268 . S
O56 Sc46 2.105 . S
O56 C50 1.268 . S
O57 Sc44 2.105 . S
O57 C51 1.268 . S
O58 Sc46 2.105 . S
O58 C52 1.268 . S
O59 Sc45 2.105 . S
O59 C53 1.268 . S
O60 Sc44 2.105 . S
O60 C52 1.268 . S
O61 Sc45 2.105 . S
O61 C51 1.268 . S
O62 Sc46 2.105 . S
O62 C53 1.268 . S
O63 Sc44 2.105 . S
O63 C49 1.268 . S
O64 Sc46 2.105 . S
O64 C48 1.268 . S
O65 Sc45 2.105 . S
O65 C50 1.268 . S
Sc66 O69 2.025 . S
Sc66 O76 2.105 . S
Sc66 O79 2.105 . S
Sc66 O82 2.105 . S
Sc66 O85 2.105 . S
Sc67 O69 2.025 . S
Sc67 O77 2.105 . S
Sc67 O81 2.105 . S
Sc67 O83 2.105 . S
Sc67 O87 2.105 . S
Sc68 O69 2.025 . S
Sc68 O78 2.105 . S
Sc68 O80 2.105 . S
Sc68 O84 2.105 . S
Sc68 O86 2.105 . S
O69 Sc66 2.025 . S
O69 Sc67 2.025 . S
O69 Sc68 2.025 . S
C70 O76 1.268 . S
C70 O86 1.268 . S
C71 O77 1.268 . S
C71 O85 1.268 . S
C72 O78 1.268 . S
C72 O87 1.268 . S
C73 O79 1.268 . S
C73 O83 1.268 . S
C74 O80 1.268 . S
C74 O82 1.268 . S
C75 O81 1.268 . S
C75 O84 1.268 . S
O76 Sc66 2.105 . S
O76 C70 1.268 . S
O77 Sc67 2.105 . S
O77 C71 1.268 . S
O78 Sc68 2.105 . S
O78 C72 1.268 . S
O79 Sc66 2.105 . S
O79 C73 1.268 . S
O80 Sc68 2.105 . S
O80 C74 1.268 . S
O81 Sc67 2.105 . S
O81 C75 1.268 . S
O82 Sc66 2.105 . S
O82 C74 1.268 . S
O83 Sc67 2.105 . S
O83 C73 1.268 . S
O84 Sc68 2.105 . S
O84 C75 1.268 . S
O85 Sc66 2.105 . S
O85 C71 1.268 . S
O86 Sc68 2.105 . S
O86 C70 1.268 . S
O87 Sc67 2.105 . S
O87 C72 1.268 . S
Sc88 O91 2.025 1_655 S
Sc88 O98 2.105 . S
Sc88 O101 2.105 1_655 S
Sc88 O104 2.105 . S
Sc88 O107 2.105 . S
Sc89 O91 2.025 . S
Sc89 O99 2.105 . S
Sc89 O103 2.105 . S
Sc89 O105 2.105 . S
Sc89 O109 2.105 . S
Sc90 O91 2.025 . S
Sc90 O100 2.105 . S
Sc90 O102 2.105 . S
Sc90 O106 2.105 . S
Sc90 O108 2.105 1_455 S
O91 Sc88 2.025 1_455 S
O91 Sc89 2.025 . S
O91 Sc90 2.025 . S
C92 O98 1.268 . S
C92 O108 1.268 . S
C93 O99 1.268 . S
C93 O107 1.268 1_455 S
C94 O100 1.268 . S
C94 O109 1.268 . S
C95 O101 1.268 . S
C95 O105 1.268 . S
C96 O102 1.268 1_655 S
C96 O104 1.268 . S
C97 O103 1.268 . S
C97 O106 1.268 . S
O98 Sc88 2.105 . S
O98 C92 1.268 . S
O99 Sc89 2.105 . S
O99 C93 1.268 . S
O100 Sc90 2.105 . S
O100 C94 1.268 . S
O101 Sc88 2.105 1_455 S
O101 C95 1.268 . S
O102 Sc90 2.105 . S
O102 C96 1.268 1_455 S
O103 Sc89 2.105 . S
O103 C97 1.268 . S
O104 Sc88 2.105 . S
O104 C96 1.268 . S
O105 Sc89 2.105 . S
O105 C95 1.268 . S
O106 Sc90 2.105 . S
O106 C97 1.268 . S
O107 Sc88 2.105 . S
O107 C93 1.268 1_655 S
O108 Sc90 2.105 1_655 S
O108 C92 1.268 . S
O109 Sc89 2.105 . S
O109 C94 1.268 . S
Sc110 O113 2.025 . S
Sc110 O120 2.105 . S
Sc110 O123 2.105 . S
Sc110 O126 2.105 1_545 S
Sc110 O129 2.105 . S
Sc111 O113 2.025 . S
Sc111 O121 2.105 . S
Sc111 O125 2.105 . S
Sc111 O127 2.105 . S
Sc111 O131 2.105 . S
Sc112 O113 2.025 1_565 S
Sc112 O122 2.105 1_565 S
Sc112 O124 2.105 . S
Sc112 O128 2.105 . S
Sc112 O130 2.105 . S
O113 Sc110 2.025 . S
O113 Sc111 2.025 . S
O113 Sc112 2.025 1_545 S
C114 O120 1.268 1_565 S
C114 O130 1.268 . S
C115 O121 1.268 . S
C115 O129 1.268 . S
C116 O122 1.268 . S
C116 O131 1.268 . S
C117 O123 1.268 . S
C117 O127 1.268 . S
C118 O124 1.268 . S
C118 O126 1.268 . S
C119 O125 1.268 . S
C119 O128 1.268 1_545 S
O120 Sc110 2.105 . S
O120 C114 1.268 1_545 S
O121 Sc111 2.105 . S
O121 C115 1.268 . S
O122 Sc112 2.105 1_545 S
O122 C116 1.268 . S
O123 Sc110 2.105 . S
O123 C117 1.268 . S
O124 Sc112 2.105 . S
O124 C118 1.268 . S
O125 Sc111 2.105 . S
O125 C119 1.268 . S
O126 Sc110 2.105 1_565 S
O126 C118 1.268 . S
O127 Sc111 2.105 . S
O127 C117 1.268 . S
O128 Sc112 2.105 . S
O128 C119 1.268 1_565 S
O129 Sc110 2.105 . S
O129 C115 1.268 . S
O130 Sc112 2.105 . S
O130 C114 1.268 . S
O131 Sc111 2.105 . S
O131 C116 1.268 . S
Sc132 O135 2.025 . S
Sc132 O142 2.105 . S
Sc132 O145 2.105 . S
Sc132 O148 2.105 . S
Sc132 O151 2.105 . S
Sc133 O135 2.025 . S
Sc133 O143 2.105 . S
Sc133 O147 2.105 . S
Sc133 O149 2.105 . S
Sc133 O153 2.105 . S
Sc134 O135 2.025 . S
Sc134 O144 2.105 . S
Sc134 O146 2.105 . S
Sc134 O150 2.105 . S
Sc134 O152 2.105 . S
O135 Sc132 2.025 . S
O135 Sc133 2.025 . S
O135 Sc134 2.025 . S
C136 O142 1.268 . S
C136 O152 1.268 . S
C137 O143 1.268 . S
C137 O151 1.268 . S
C138 O144 1.268 . S
C138 O153 1.268 . S
C139 O145 1.268 . S
C139 O149 1.268 . S
C140 O146 1.268 . S
C140 O148 1.268 . S
C141 O147 1.268 . S
C141 O150 1.268 . S
O142 Sc132 2.105 . S
O142 C136 1.268 . S
O143 Sc133 2.105 . S
O143 C137 1.268 . S
O144 Sc134 2.105 . S
O144 C138 1.268 . S
O145 Sc132 2.105 . S
O145 C139 1.268 . S
O146 Sc134 2.105 . S
O146 C140 1.268 . S
O147 Sc133 2.105 . S
O147 C141 1.268 . S
O148 Sc132 2.105 . S
O148 C140 1.268 . S
O149 Sc133 2.105 . S
O149 C139 1.268 . S
O150 Sc134 2.105 . S
O150 C141 1.268 . S
O151 Sc132 2.105 . S
O151 C137 1.268 . S
O152 Sc134 2.105 . S
O152 C136 1.268 . S
O153 Sc133 2.105 . S
O153 C138 1.268 . S
Sc154 O157 2.025 . S
Sc154 O164 2.105 . S
Sc154 O167 2.105 . S
Sc154 O170 2.105 . S
Sc154 O173 2.105 . S
Sc155 O157 2.025 . S
Sc155 O165 2.105 . S
Sc155 O169 2.105 . S
Sc155 O171 2.105 . S
Sc155 O175 2.105 . S
Sc156 O157 2.025 . S
Sc156 O166 2.105 . S
Sc156 O168 2.105 . S
Sc156 O172 2.105 . S
Sc156 O174 2.105 . S
O157 Sc154 2.025 . S
O157 Sc155 2.025 . S
O157 Sc156 2.025 . S
C158 O164 1.268 . S
C158 O174 1.268 . S
C159 O165 1.268 . S
C159 O173 1.268 . S
C160 O166 1.268 . S
C160 O175 1.268 . S
C161 O167 1.268 . S
C161 O171 1.268 . S
C162 O168 1.268 . S
C162 O170 1.268 . S
C163 O169 1.268 . S
C163 O172 1.268 . S
O164 Sc154 2.105 . S
O164 C158 1.268 . S
O165 Sc155 2.105 . S
O165 C159 1.268 . S
O166 Sc156 2.105 . S
O166 C160 1.268 . S
O167 Sc154 2.105 . S
O167 C161 1.268 . S
O168 Sc156 2.105 . S
O168 C162 1.268 . S
O169 Sc155 2.105 . S
O169 C163 1.268 . S
O170 Sc154 2.105 . S
O170 C162 1.268 . S
O171 Sc155 2.105 . S
O171 C161 1.268 . S
O172 Sc156 2.105 . S
O172 C163 1.268 . S
O173 Sc154 2.105 . S
O173 C159 1.268 . S
O174 Sc156 2.105 . S
O174 C158 1.268 . S
O175 Sc155 2.105 . S
O175 C160 1.268 . S
Sc176 O179 2.025 1_455 S
Sc176 O186 2.105 . S
Sc176 O189 2.105 . S
Sc176 O192 2.105 . S
Sc176 O195 2.105 1_455 S
Sc177 O179 2.025 . S
Sc177 O187 2.105 . S
Sc177 O191 2.105 . S
Sc177 O193 2.105 . S
Sc177 O197 2.105 . S
Sc178 O179 2.025 . S
Sc178 O188 2.105 . S
Sc178 O190 2.105 1_655 S
Sc178 O194 2.105 . S
Sc178 O196 2.105 . S
O179 Sc176 2.025 1_655 S
O179 Sc177 2.025 . S
O179 Sc178 2.025 . S
C180 O186 1.268 . S
C180 O196 1.268 1_455 S
C181 O187 1.268 . S
C181 O195 1.268 . S
C182 O188 1.268 . S
C182 O197 1.268 . S
C183 O189 1.268 1_655 S
C183 O193 1.268 . S
C184 O190 1.268 . S
C184 O192 1.268 . S
C185 O191 1.268 . S
C185 O194 1.268 . S
O186 Sc176 2.105 . S
O186 C180 1.268 . S
O187 Sc177 2.105 . S
O187 C181 1.268 . S
O188 Sc178 2.105 . S
O188 C182 1.268 . S
O189 Sc176 2.105 . S
O189 C183 1.268 1_455 S
O190 Sc178 2.105 1_455 S
O190 C184 1.268 . S
O191 Sc177 2.105 . S
O191 C185 1.268 . S
O192 Sc176 2.105 . S
O192 C184 1.268 . S
O193 Sc177 2.105 . S
O193 C183 1.268 . S
O194 Sc178 2.105 . S
O194 C185 1.268 . S
O195 Sc176 2.105 1_655 S
O195 C181 1.268 . S
O196 Sc178 2.105 . S
O196 C180 1.268 1_655 S
O197 Sc177 2.105 . S
O197 C182 1.268 . S
Sc198 O201 2.025 . S
Sc198 O208 2.105 1_565 S
Sc198 O211 2.105 . S
Sc198 O214 2.105 . S
Sc198 O217 2.105 . S
Sc199 O201 2.025 . S
Sc199 O209 2.105 . S
Sc199 O213 2.105 . S
Sc199 O215 2.105 . S
Sc199 O219 2.105 . S
Sc200 O201 2.025 1_545 S
Sc200 O210 2.105 . S
Sc200 O212 2.105 . S
Sc200 O216 2.105 1_545 S
Sc200 O218 2.105 . S
O201 Sc198 2.025 . S
O201 Sc199 2.025 . S
O201 Sc200 2.025 1_565 S
C202 O208 1.268 . S
C202 O218 1.268 . S
C203 O209 1.268 . S
C203 O217 1.268 . S
C204 O210 1.268 1_565 S
C204 O219 1.268 . S
C205 O211 1.268 . S
C205 O215 1.268 . S
C206 O212 1.268 . S
C206 O214 1.268 1_545 S
C207 O213 1.268 . S
C207 O216 1.268 . S
O208 Sc198 2.105 1_545 S
O208 C202 1.268 . S
O209 Sc199 2.105 . S
O209 C203 1.268 . S
O210 Sc200 2.105 . S
O210 C204 1.268 1_545 S
O211 Sc198 2.105 . S
O211 C205 1.268 . S
O212 Sc200 2.105 . S
O212 C206 1.268 . S
O213 Sc199 2.105 . S
O213 C207 1.268 . S
O214 Sc198 2.105 . S
O214 C206 1.268 1_565 S
O215 Sc199 2.105 . S
O215 C205 1.268 . S
O216 Sc200 2.105 1_565 S
O216 C207 1.268 . S
O217 Sc198 2.105 . S
O217 C203 1.268 . S
O218 Sc200 2.105 . S
O218 C202 1.268 . S
O219 Sc199 2.105 . S
O219 C204 1.268 . S
Sc220 O223 2.025 . S
Sc220 O230 2.105 . S
Sc220 O233 2.105 . S
Sc220 O236 2.105 . S
Sc220 O239 2.105 . S
Sc221 O223 2.025 . S
Sc221 O231 2.105 . S
Sc221 O235 2.105 . S
Sc221 O237 2.105 . S
Sc221 O241 2.105 . S
Sc222 O223 2.025 . S
Sc222 O232 2.105 . S
Sc222 O234 2.105 . S
Sc222 O238 2.105 . S
Sc222 O240 2.105 . S
O223 Sc220 2.025 . S
O223 Sc221 2.025 . S
O223 Sc222 2.025 . S
C224 O230 1.268 . S
C224 O240 1.268 . S
C225 O231 1.268 . S
C225 O239 1.268 . S
C226 O232 1.268 . S
C226 O241 1.268 . S
C227 O233 1.268 . S
C227 O237 1.268 . S
C228 O234 1.268 . S
C228 O236 1.268 . S
C229 O235 1.268 . S
C229 O238 1.268 . S
O230 Sc220 2.105 . S
O230 C224 1.268 . S
O231 Sc221 2.105 . S
O231 C225 1.268 . S
O232 Sc222 2.105 . S
O232 C226 1.268 . S
O233 Sc220 2.105 . S
O233 C227 1.268 . S
O234 Sc222 2.105 . S
O234 C228 1.268 . S
O235 Sc221 2.105 . S
O235 C229 1.268 . S
O236 Sc220 2.105 . S
O236 C228 1.268 . S
O237 Sc221 2.105 . S
O237 C227 1.268 . S
O238 Sc222 2.105 . S
O238 C229 1.268 . S
O239 Sc220 2.105 . S
O239 C225 1.268 . S
O240 Sc222 2.105 . S
O240 C224 1.268 . S
O241 Sc221 2.105 . S
O241 C226 1.268 . S
Sc242 O245 2.025 . S
Sc242 O252 2.105 . S
Sc242 O255 2.105 . S
Sc242 O258 2.105 . S
Sc242 O261 2.105 . S
Sc243 O245 2.025 . S
Sc243 O253 2.105 . S
Sc243 O257 2.105 . S
Sc243 O259 2.105 . S
Sc243 O263 2.105 . S
Sc244 O245 2.025 . S
Sc244 O254 2.105 . S
Sc244 O256 2.105 . S
Sc244 O260 2.105 . S
Sc244 O262 2.105 . S
O245 Sc242 2.025 . S
O245 Sc243 2.025 . S
O245 Sc244 2.025 . S
C246 O252 1.268 . S
C246 O262 1.268 . S
C247 O253 1.268 . S
C247 O261 1.268 . S
C248 O254 1.268 . S
C248 O263 1.268 . S
C249 O255 1.268 . S
C249 O259 1.268 . S
C250 O256 1.268 . S
C250 O258 1.268 . S
C251 O257 1.268 . S
C251 O260 1.268 . S
O252 Sc242 2.105 . S
O252 C246 1.268 . S
O253 Sc243 2.105 . S
O253 C247 1.268 . S
O254 Sc244 2.105 . S
O254 C248 1.268 . S
O255 Sc242 2.105 . S
O255 C249 1.268 . S
O256 Sc244 2.105 . S
O256 C250 1.268 . S
O257 Sc243 2.105 . S
O257 C251 1.268 . S
O258 Sc242 2.105 . S
O258 C250 1.268 . S
O259 Sc243 2.105 . S
O259 C249 1.268 . S
O260 Sc244 2.105 . S
O260 C251 1.268 . S
O261 Sc242 2.105 . S
O261 C247 1.268 . S
O262 Sc244 2.105 . S
O262 C246 1.268 . S
O263 Sc243 2.105 . S
O263 C248 1.268 . S
Sc264 O267 2.025 . S
Sc264 O274 2.105 1_655 S
Sc264 O277 2.105 . S
Sc264 O280 2.105 . S
Sc264 O283 2.105 . S
Sc265 O267 2.025 . S
Sc265 O275 2.105 . S
Sc265 O279 2.105 . S
Sc265 O281 2.105 . S
Sc265 O285 2.105 . S
Sc266 O267 2.025 1_455 S
Sc266 O276 2.105 . S
Sc266 O278 2.105 . S
Sc266 O282 2.105 1_455 S
Sc266 O284 2.105 . S
O267 Sc264 2.025 . S
O267 Sc265 2.025 . S
O267 Sc266 2.025 1_655 S
C268 O274 1.268 . S
C268 O284 1.268 . S
C269 O275 1.268 . S
C269 O283 1.268 . S
C270 O276 1.268 1_655 S
C270 O285 1.268 . S
C271 O277 1.268 . S
C271 O281 1.268 . S
C272 O278 1.268 . S
C272 O280 1.268 1_455 S
C273 O279 1.268 . S
C273 O282 1.268 . S
O274 Sc264 2.105 1_455 S
O274 C268 1.268 . S
O275 Sc265 2.105 . S
O275 C269 1.268 . S
O276 Sc266 2.105 . S
O276 C270 1.268 1_455 S
O277 Sc264 2.105 . S
O277 C271 1.268 . S
O278 Sc266 2.105 . S
O278 C272 1.268 . S
O279 Sc265 2.105 . S
O279 C273 1.268 . S
O280 Sc264 2.105 . S
O280 C272 1.268 1_655 S
O281 Sc265 2.105 . S
O281 C271 1.268 . S
O282 Sc266 2.105 1_655 S
O282 C273 1.268 . S
O283 Sc264 2.105 . S
O283 C269 1.268 . S
O284 Sc266 2.105 . S
O284 C268 1.268 . S
O285 Sc265 2.105 . S
O285 C270 1.268 . S
Sc286 O289 2.025 . S
Sc286 O296 2.105 1_565 S
Sc286 O299 2.105 . S
Sc286 O302 2.105 . S
Sc286 O305 2.105 . S
Sc287 O289 2.025 . S
Sc287 O297 2.105 . S
Sc287 O301 2.105 . S
Sc287 O303 2.105 . S
Sc287 O307 2.105 . S
Sc288 O289 2.025 1_545 S
Sc288 O298 2.105 . S
Sc288 O300 2.105 . S
Sc288 O304 2.105 1_545 S
Sc288 O306 2.105 . S
O289 Sc286 2.025 . S
O289 Sc287 2.025 . S
O289 Sc288 2.025 1_565 S
C290 O296 1.268 . S
C290 O306 1.268 . S
C291 O297 1.268 . S
C291 O305 1.268 . S
C292 O298 1.268 1_565 S
C292 O307 1.268 . S
C293 O299 1.268 . S
C293 O303 1.268 . S
C294 O300 1.268 . S
C294 O302 1.268 1_545 S
C295 O301 1.268 . S
C295 O304 1.268 . S
O296 Sc286 2.105 1_545 S
O296 C290 1.268 . S
O297 Sc287 2.105 . S
O297 C291 1.268 . S
O298 Sc288 2.105 . S
O298 C292 1.268 1_545 S
O299 Sc286 2.105 . S
O299 C293 1.268 . S
O300 Sc288 2.105 . S
O300 C294 1.268 . S
O301 Sc287 2.105 . S
O301 C295 1.268 . S
O302 Sc286 2.105 . S
O302 C294 1.268 1_565 S
O303 Sc287 2.105 . S
O303 C293 1.268 . S
O304 Sc288 2.105 1_565 S
O304 C295 1.268 . S
O305 Sc286 2.105 . S
O305 C291 1.268 . S
O306 Sc288 2.105 . S
O306 C290 1.268 . S
O307 Sc287 2.105 . S
O307 C292 1.268 . S
Sc308 O311 2.025 . S
Sc308 O318 2.105 . S
Sc308 O321 2.105 . S
Sc308 O324 2.105 . S
Sc308 O327 2.105 . S
Sc309 O311 2.025 . S
Sc309 O319 2.105 . S
Sc309 O323 2.105 . S
Sc309 O325 2.105 . S
Sc309 O329 2.105 . S
Sc310 O311 2.025 . S
Sc310 O320 2.105 . S
Sc310 O322 2.105 . S
Sc310 O326 2.105 . S
Sc310 O328 2.105 . S
O311 Sc308 2.025 . S
O311 Sc309 2.025 . S
O311 Sc310 2.025 . S
C312 O318 1.268 . S
C312 O328 1.268 . S
C313 O319 1.268 . S
C313 O327 1.268 . S
C314 O320 1.268 . S
C314 O329 1.268 . S
C315 O321 1.268 . S
C315 O325 1.268 . S
C316 O322 1.268 . S
C316 O324 1.268 . S
C317 O323 1.268 . S
C317 O326 1.268 . S
O318 Sc308 2.105 . S
O318 C312 1.268 . S
O319 Sc309 2.105 . S
O319 C313 1.268 . S
O320 Sc310 2.105 . S
O320 C314 1.268 . S
O321 Sc308 2.105 . S
O321 C315 1.268 . S
O322 Sc310 2.105 . S
O322 C316 1.268 . S
O323 Sc309 2.105 . S
O323 C317 1.268 . S
O324 Sc308 2.105 . S
O324 C316 1.268 . S
O325 Sc309 2.105 . S
O325 C315 1.268 . S
O326 Sc310 2.105 . S
O326 C317 1.268 . S
O327 Sc308 2.105 . S
O327 C313 1.268 . S
O328 Sc310 2.105 . S
O328 C312 1.268 . S
O329 Sc309 2.105 . S
O329 C314 1.268 . S
Sc330 O333 2.025 . S
Sc330 O340 2.105 . S
Sc330 O343 2.105 . S
Sc330 O346 2.105 . S
Sc330 O349 2.105 . S
Sc331 O333 2.025 . S
Sc331 O341 2.105 . S
Sc331 O345 2.105 . S
Sc331 O347 2.105 . S
Sc331 O351 2.105 . S
Sc332 O333 2.025 . S
Sc332 O342 2.105 . S
Sc332 O344 2.105 . S
Sc332 O348 2.105 . S
Sc332 O350 2.105 . S
O333 Sc330 2.025 . S
O333 Sc331 2.025 . S
O333 Sc332 2.025 . S
C334 O340 1.268 . S
C334 O350 1.268 . S
C335 O341 1.268 . S
C335 O349 1.268 . S
C336 O342 1.268 . S
C336 O351 1.268 . S
C337 O343 1.268 . S
C337 O347 1.268 . S
C338 O344 1.268 . S
C338 O346 1.268 . S
C339 O345 1.268 . S
C339 O348 1.268 . S
O340 Sc330 2.105 . S
O340 C334 1.268 . S
O341 Sc331 2.105 . S
O341 C335 1.268 . S
O342 Sc332 2.105 . S
O342 C336 1.268 . S
O343 Sc330 2.105 . S
O343 C337 1.268 . S
O344 Sc332 2.105 . S
O344 C338 1.268 . S
O345 Sc331 2.105 . S
O345 C339 1.268 . S
O346 Sc330 2.105 . S
O346 C338 1.268 . S
O347 Sc331 2.105 . S
O347 C337 1.268 . S
O348 Sc332 2.105 . S
O348 C339 1.268 . S
O349 Sc330 2.105 . S
O349 C335 1.268 . S
O350 Sc332 2.105 . S
O350 C334 1.268 . S
O351 Sc331 2.105 . S
O351 C336 1.268 . S
C352 C353 1.363 . S
C352 C358 1.379 . S
C352 N360 1.356 . S
C353 C352 1.363 . S
C353 C359 1.363 . S
C354 C355 1.363 . S
C354 C359 1.379 . S
C354 N361 1.356 . S
C355 C354 1.363 . S
C355 C358 1.363 . S
N356 C358 1.356 . S
N356 H368 0.984 . S
N356 H369 0.985 . S
N357 C359 1.356 . S
N357 H362 0.984 . S
N357 H363 0.985 . S
C358 C352 1.379 . S
C358 C355 1.363 . S
C358 N356 1.356 . S
C359 C353 1.363 . S
C359 C354 1.379 . S
C359 N357 1.356 . S
N360 C352 1.356 . S
N360 H366 0.984 . S
N360 H367 0.984 . S
N361 C354 1.356 . S
N361 H364 0.984 . S
N361 H365 0.985 . S
H362 N357 0.984 . S
H363 N357 0.985 . S
H364 N361 0.984 . S
H365 N361 0.985 . S
H366 N360 0.984 . S
H367 N360 0.984 . S
H368 N356 0.984 . S
H369 N356 0.985 . S
C370 C371 1.363 . S
C370 C376 1.379 . S
C370 N378 1.356 1_655 S
C371 C370 1.363 . S
C371 C377 1.363 . S
C372 C373 1.363 . S
C372 C377 1.379 . S
C372 N379 1.356 . S
C373 C372 1.363 . S
C373 C376 1.363 . S
N374 C376 1.356 . S
N374 H386 0.984 1_554 S
N374 H387 0.985 . S
N375 C377 1.356 . S
N375 H380 0.984 . S
N375 H381 0.985 . S
C376 C370 1.379 . S
C376 C373 1.363 . S
C376 N374 1.356 . S
C377 C371 1.363 . S
C377 C372 1.379 . S
C377 N375 1.356 . S
N378 C370 1.356 1_455 S
N378 H384 0.984 1_554 S
N378 H385 0.984 . S
N379 C372 1.356 . S
N379 H382 0.984 . S
N379 H383 0.985 . S
H380 N375 0.984 . S
H381 N375 0.985 . S
H382 N379 0.984 . S
H383 N379 0.985 . S
H384 N378 0.984 1_556 S
H385 N378 0.984 . S
H386 N374 0.984 1_556 S
H387 N374 0.985 . S
C388 C389 1.363 . S
C388 C394 1.379 . S
C388 N396 1.356 . S
C389 C388 1.363 . S
C389 C395 1.363 . S
C390 C391 1.363 . S
C390 C395 1.379 . S
C390 N397 1.356 1_565 S
C391 C390 1.363 . S
C391 C394 1.363 . S
N392 C394 1.356 . S
N392 H404 0.984 . S
N392 H405 0.985 . S
N393 C395 1.356 . S
N393 H398 0.984 . S
N393 H399 0.985 . S
C394 C388 1.379 . S
C394 C391 1.363 . S
C394 N392 1.356 . S
C395 C389 1.363 . S
C395 C390 1.379 . S
C395 N393 1.356 . S
N396 C388 1.356 . S
N396 H402 0.984 . S
N396 H403 0.984 . S
N397 C390 1.356 1_545 S
N397 H400 0.984 . S
N397 H401 0.985 . S
H398 N393 0.984 . S
H399 N393 0.985 . S
H400 N397 0.984 . S
H401 N397 0.985 . S
H402 N396 0.984 . S
H403 N396 0.984 . S
H404 N392 0.984 . S
H405 N392 0.985 . S
C406 C407 1.363 . S
C406 C412 1.379 . S
C406 N414 1.356 . S
C407 C406 1.363 . S
C407 C413 1.363 . S
C408 C409 1.363 . S
C408 C413 1.379 . S
C408 N415 1.356 . S
C409 C408 1.363 . S
C409 C412 1.363 . S
N410 C412 1.356 . S
N410 H422 0.984 1_554 S
N410 H423 0.985 . S
N411 C413 1.356 . S
N411 H416 0.984 . S
N411 H417 0.985 . S
C412 C406 1.379 . S
C412 C409 1.363 . S
C412 N410 1.356 . S
C413 C407 1.363 . S
C413 C408 1.379 . S
C413 N411 1.356 . S
N414 C406 1.356 . S
N414 H420 0.984 . S
N414 H421 0.984 . S
N415 C408 1.356 . S
N415 H418 0.984 . S
N415 H419 0.985 . S
H416 N411 0.984 . S
H417 N411 0.985 . S
H418 N415 0.984 . S
H419 N415 0.985 . S
H420 N414 0.984 . S
H421 N414 0.984 . S
H422 N410 0.984 1_556 S
H423 N410 0.985 . S
C424 C425 1.363 . S
C424 C430 1.379 . S
C424 N432 1.356 . S
C425 C424 1.363 . S
C425 C431 1.363 . S
C426 C427 1.363 . S
C426 C431 1.379 . S
C426 N433 1.363 . S
C427 C426 1.363 . S
C427 C430 1.363 . S
N428 C430 1.356 . S
N428 H440 0.984 . S
N428 H441 0.985 . S
N429 C431 1.356 . S
N429 H434 0.984 . S
N429 H435 0.985 . S
C430 C424 1.379 . S
C430 C427 1.363 . S
C430 N428 1.356 . S
C431 C425 1.363 . S
C431 C426 1.379 . S
C431 N429 1.356 . S
N432 C424 1.356 . S
N432 H438 0.984 . S
N432 H439 0.984 . S
N433 C426 1.363 . S
N433 H436 0.979 1_565 S
N433 H437 0.983 1_565 S
H434 N429 0.984 . S
H435 N429 0.985 . S
H436 N433 0.979 1_545 S
H437 N433 0.983 1_545 S
H438 N432 0.984 . S
H439 N432 0.984 . S
H440 N428 0.984 . S
H441 N428 0.985 . S
C442 C443 1.363 . S
C442 C448 1.379 . S
C442 N450 1.356 . S
C443 C442 1.363 . S
C443 C449 1.363 . S
C444 C445 1.363 . S
C444 C449 1.379 . S
C444 N451 1.356 . S
C445 C444 1.363 . S
C445 C448 1.363 . S
N446 C448 1.356 . S
N446 H458 0.984 . S
N446 H459 0.985 . S
N447 C449 1.356 . S
N447 H452 0.984 . S
N447 H453 0.985 . S
C448 C442 1.379 . S
C448 C445 1.363 . S
C448 N446 1.356 . S
C449 C443 1.363 . S
C449 C444 1.379 . S
C449 N447 1.356 . S
N450 C442 1.356 . S
N450 H456 0.984 . S
N450 H457 0.984 . S
N451 C444 1.356 . S
N451 H454 0.984 . S
N451 H455 0.985 . S
H452 N447 0.984 . S
H453 N447 0.985 . S
H454 N451 0.984 . S
H455 N451 0.985 . S
H456 N450 0.984 . S
H457 N450 0.984 . S
H458 N446 0.984 . S
H459 N446 0.985 . S
C460 C461 1.363 . S
C460 C466 1.379 . S
C460 N468 1.356 . S
C461 C460 1.363 . S
C461 C467 1.363 . S
C462 C463 1.363 . S
C462 C467 1.379 . S
C462 N469 1.356 . S
C463 C462 1.363 . S
C463 C466 1.363 . S
N464 C466 1.356 . S
N464 H476 0.984 . S
N464 H477 0.985 . S
N465 C467 1.356 . S
N465 H470 0.984 . S
N465 H471 0.985 . S
C466 C460 1.379 . S
C466 C463 1.363 . S
C466 N464 1.356 . S
C467 C461 1.363 . S
C467 C462 1.379 . S
C467 N465 1.356 . S
N468 C460 1.356 . S
N468 H474 0.984 . S
N468 H475 0.984 . S
N469 C462 1.356 . S
N469 H472 0.984 . S
N469 H473 0.985 . S
H470 N465 0.984 . S
H471 N465 0.985 . S
H472 N469 0.984 . S
H473 N469 0.985 . S
H474 N468 0.984 . S
H475 N468 0.984 . S
H476 N464 0.984 . S
H477 N464 0.985 . S
C478 C479 1.363 . S
C478 C484 1.379 . S
C478 N486 1.356 1_655 S
C479 C478 1.363 . S
C479 C485 1.363 . S
C480 C481 1.363 . S
C480 C485 1.379 . S
C480 N487 1.356 . S
C481 C480 1.363 . S
C481 C484 1.363 . S
N482 C484 1.356 . S
N482 H494 0.984 . S
N482 H495 0.985 . S
N483 C485 1.356 . S
N483 H488 0.984 . S
N483 H489 0.985 . S
C484 C478 1.379 . S
C484 C481 1.363 . S
C484 N482 1.356 . S
C485 C479 1.363 . S
C485 C480 1.379 . S
C485 N483 1.356 . S
N486 C478 1.356 1_455 S
N486 H492 0.984 . S
N486 H493 0.984 . S
N487 C480 1.356 . S
N487 H490 0.984 . S
N487 H491 0.985 . S
H488 N483 0.984 . S
H489 N483 0.985 . S
H490 N487 0.984 . S
H491 N487 0.985 . S
H492 N486 0.984 . S
H493 N486 0.984 . S
H494 N482 0.984 . S
H495 N482 0.985 . S
C496 C497 1.363 . S
C496 C502 1.379 . S
C496 N504 1.356 . S
C497 C496 1.363 . S
C497 C503 1.363 . S
C498 C499 1.363 . S
C498 C503 1.379 . S
C498 N505 1.356 . S
C499 C498 1.363 . S
C499 C502 1.363 . S
N500 C502 1.356 . S
N500 H512 0.984 . S
N500 H513 0.985 . S
N501 C503 1.356 . S
N501 H506 0.984 . S
N501 H507 0.985 1_556 S
C502 C496 1.379 . S
C502 C499 1.363 . S
C502 N500 1.356 . S
C503 C497 1.363 . S
C503 C498 1.379 . S
C503 N501 1.356 . S
N504 C496 1.356 . S
N504 H510 0.984 . S
N504 H511 0.984 . S
N505 C498 1.356 . S
N505 H508 0.984 . S
N505 H509 0.985 . S
H506 N501 0.984 . S
H507 N501 0.985 1_554 S
H508 N505 0.984 . S
H509 N505 0.985 . S
H510 N504 0.984 . S
H511 N504 0.984 . S
H512 N500 0.984 . S
H513 N500 0.985 . S
C514 C515 1.363 . S
C514 C520 1.379 . S
C514 N522 1.356 . S
C515 C514 1.363 . S
C515 C521 1.363 . S
C516 C517 1.363 . S
C516 C521 1.379 . S
C516 N523 1.356 . S
C517 C516 1.363 . S
C517 C520 1.363 . S
N518 C520 1.356 . S
N518 H530 0.984 1_556 S
N518 H531 0.985 . S
N519 C521 1.356 1_655 S
N519 H524 0.984 . S
N519 H525 0.985 . S
C520 C514 1.379 . S
C520 C517 1.363 . S
C520 N518 1.356 . S
C521 C515 1.363 . S
C521 C516 1.379 . S
C521 N519 1.356 1_455 S
N522 C514 1.356 . S
N522 H528 0.984 . S
N522 H529 0.984 . S
N523 C516 1.356 . S
N523 H526 0.984 . S
N523 H527 0.985 . S
H524 N519 0.984 . S
H525 N519 0.985 . S
H526 N523 0.984 . S
H527 N523 0.985 . S
H528 N522 0.984 . S
H529 N522 0.984 . S
H530 N518 0.984 1_554 S
H531 N518 0.985 . S
C532 C533 1.363 . S
C532 C538 1.379 . S
C532 N540 1.356 . S
C533 C532 1.363 . S
C533 C539 1.363 . S
C534 C535 1.363 . S
C534 C539 1.379 . S
C534 N541 1.356 . S
C535 C534 1.363 . S
C535 C538 1.363 . S
N536 C538 1.356 . S
N536 H548 0.984 . S
N536 H549 0.985 . S
N537 C539 1.356 . S
N537 H542 0.984 . S
N537 H543 0.985 1_556 S
C538 C532 1.379 . S
C538 C535 1.363 . S
C538 N536 1.356 . S
C539 C533 1.363 . S
C539 C534 1.379 . S
C539 N537 1.356 . S
N540 C532 1.356 . S
N540 H546 0.984 . S
N540 H547 0.984 1_545 S
N541 C534 1.356 . S
N541 H544 0.984 . S
N541 H545 0.985 1_556 S
H542 N537 0.984 . S
H543 N537 0.985 1_554 S
H544 N541 0.984 . S
H545 N541 0.985 1_554 S
H546 N540 0.984 . S
H547 N540 0.984 1_565 S
H548 N536 0.984 . S
H549 N536 0.985 . S
C550 C551 1.363 . S
C550 C556 1.379 . S
C550 N558 1.356 . S
C551 C550 1.363 . S
C551 C557 1.363 . S
C552 C553 1.363 . S
C552 C557 1.379 . S
C552 N559 1.356 . S
C553 C552 1.363 . S
C553 C556 1.363 . S
N554 C556 1.356 . S
N554 H566 0.984 . S
N554 H567 0.985 . S
N555 C557 1.356 . S
N555 H560 0.984 . S
N555 H561 0.985 . S
C556 C550 1.379 . S
C556 C553 1.363 . S
C556 N554 1.356 . S
C557 C551 1.363 . S
C557 C552 1.379 . S
C557 N555 1.356 . S
N558 C550 1.356 . S
N558 H564 0.984 . S
N558 H565 0.984 . S
N559 C552 1.356 . S
N559 H562 0.984 . S
N559 H563 0.985 . S
H560 N555 0.984 . S
H561 N555 0.985 . S
H562 N559 0.984 . S
H563 N559 0.985 . S
H564 N558 0.984 . S
H565 N558 0.984 . S
H566 N554 0.984 . S
H567 N554 0.985 . S
C568 C569 1.363 . S
C568 C574 1.379 . S
C568 N576 1.356 . S
C569 C568 1.363 . S
C569 C575 1.363 . S
C570 C571 1.363 . S
C570 C575 1.379 . S
C570 N577 1.356 . S
C571 C570 1.363 . S
C571 C574 1.363 . S
N572 C574 1.356 1_565 S
N572 H584 0.984 . S
N572 H585 0.985 . S
N573 C575 1.356 . S
N573 H578 0.984 . S
N573 H579 0.985 . S
C574 C568 1.379 . S
C574 C571 1.363 . S
C574 N572 1.356 1_545 S
C575 C569 1.363 . S
C575 C570 1.379 . S
C575 N573 1.356 . S
N576 C568 1.356 . S
N576 H582 0.984 . S
N576 H583 0.984 . S
N577 C570 1.356 . S
N577 H580 0.984 . S
N577 H581 0.985 . S
H578 N573 0.984 . S
H579 N573 0.985 . S
H580 N577 0.984 . S
H581 N577 0.985 . S
H582 N576 0.984 . S
H583 N576 0.984 . S
H584 N572 0.984 . S
H585 N572 0.985 . S
C586 C587 1.363 . S
C586 C592 1.379 . S
C586 N594 1.356 . S
C587 C586 1.363 . S
C587 C593 1.363 . S
C588 C589 1.363 . S
C588 C593 1.379 . S
C588 N595 1.356 . S
C589 C588 1.363 . S
C589 C592 1.363 . S
N590 C592 1.356 . S
N590 H602 0.984 . S
N590 H603 0.985 . S
N591 C593 1.356 . S
N591 H596 0.984 . S
N591 H597 0.985 . S
C592 C586 1.379 . S
C592 C589 1.363 . S
C592 N590 1.356 . S
C593 C587 1.363 . S
C593 C588 1.379 . S
C593 N591 1.356 . S
N594 C586 1.356 . S
N594 H600 0.984 . S
N594 H601 0.984 . S
N595 C588 1.356 . S
N595 H598 0.984 . S
N595 H599 0.985 . S
H596 N591 0.984 . S
H597 N591 0.985 . S
H598 N595 0.984 . S
H599 N595 0.985 . S
H600 N594 0.984 . S
H601 N594 0.984 . S
H602 N590 0.984 . S
H603 N590 0.985 . S
C604 C605 1.363 . S
C604 C610 1.379 . S
C604 N612 1.356 . S
C605 C604 1.363 . S
C605 C611 1.363 . S
C606 C607 1.363 . S
C606 C611 1.379 . S
C606 N613 1.356 . S
C607 C606 1.363 . S
C607 C610 1.363 . S
N608 C610 1.356 . S
N608 H620 0.984 . S
N608 H621 0.985 . S
N609 C611 1.356 . S
N609 H614 0.984 . S
N609 H615 0.985 . S
C610 C604 1.379 . S
C610 C607 1.363 . S
C610 N608 1.356 . S
C611 C605 1.363 . S
C611 C606 1.379 . S
C611 N609 1.356 . S
N612 C604 1.356 . S
N612 H618 0.984 . S
N612 H619 0.984 . S
N613 C606 1.356 . S
N613 H616 0.984 . S
N613 H617 0.985 . S
H614 N609 0.984 . S
H615 N609 0.985 . S
H616 N613 0.984 . S
H617 N613 0.985 . S
H618 N612 0.984 . S
H619 N612 0.984 . S
H620 N608 0.984 . S
H621 N608 0.985 . S
C622 C623 1.363 . S
C622 C628 1.379 . S
C622 N630 1.356 . S
C623 C622 1.363 . S
C623 C629 1.363 . S
C624 C625 1.363 . S
C624 C629 1.379 . S
C624 N631 1.356 . S
C625 C624 1.363 . S
C625 C628 1.363 . S
N626 C628 1.356 1_655 S
N626 H638 0.984 . S
N626 H639 0.985 . S
N627 C629 1.356 . S
N627 H632 0.984 . S
N627 H633 0.985 . S
C628 C622 1.379 . S
C628 C625 1.363 . S
C628 N626 1.356 1_455 S
C629 C623 1.363 . S
C629 C624 1.379 . S
C629 N627 1.356 . S
N630 C622 1.356 . S
N630 H636 0.984 . S
N630 H637 0.984 . S
N631 C624 1.356 . S
N631 H634 0.984 . S
N631 H635 0.985 . S
H632 N627 0.984 . S
H633 N627 0.985 . S
H634 N631 0.984 . S
H635 N631 0.985 . S
H636 N630 0.984 . S
H637 N630 0.984 . S
H638 N626 0.984 . S
H639 N626 0.985 . S
C640 C641 1.363 . S
C640 C646 1.379 . S
C640 N648 1.356 . S
C641 C640 1.363 . S
C641 C647 1.363 . S
C642 C643 1.363 . S
C642 C647 1.379 . S
C642 N649 1.356 . S
C643 C642 1.363 . S
C643 C646 1.363 . S
N644 C646 1.356 . S
N644 H656 0.984 . S
N644 H657 0.985 . S
N645 C647 1.356 . S
N645 H650 0.984 . S
N645 H651 0.985 . S
C646 C640 1.379 . S
C646 C643 1.363 . S
C646 N644 1.356 . S
C647 C641 1.363 . S
C647 C642 1.379 . S
C647 N645 1.356 . S
N648 C640 1.356 . S
N648 H654 0.984 . S
N648 H655 0.984 . S
N649 C642 1.356 . S
N649 H652 0.984 . S
N649 H653 0.985 . S
H650 N645 0.984 . S
H651 N645 0.985 . S
H652 N649 0.984 . S
H653 N649 0.985 . S
H654 N648 0.984 . S
H655 N648 0.984 . S
H656 N644 0.984 . S
H657 N644 0.985 . S
C658 C659 1.363 . S
C658 C664 1.379 . S
C658 N666 1.356 . S
C659 C658 1.363 . S
C659 C665 1.363 . S
C660 C661 1.363 . S
C660 C665 1.379 . S
C660 N667 1.356 . S
C661 C660 1.363 . S
C661 C664 1.363 . S
N662 C664 1.356 . S
N662 H674 0.984 1_545 S
N662 H675 0.985 . S
N663 C665 1.356 . S
N663 H668 0.984 . S
N663 H669 0.985 . S
C664 C658 1.379 . S
C664 C661 1.363 . S
C664 N662 1.356 . S
C665 C659 1.363 . S
C665 C660 1.379 . S
C665 N663 1.356 . S
N666 C658 1.356 . S
N666 H672 0.984 1_545 S
N666 H673 0.984 . S
N667 C660 1.356 . S
N667 H670 0.984 . S
N667 H671 0.985 . S
H668 N663 0.984 . S
H669 N663 0.985 . S
H670 N667 0.984 . S
H671 N667 0.985 . S
H672 N666 0.984 1_565 S
H673 N666 0.984 . S
H674 N662 0.984 1_565 S
H675 N662 0.985 . S
C676 C677 1.363 . S
C676 C682 1.379 . S
C676 N684 1.356 . S
C677 C676 1.363 . S
C677 C683 1.363 . S
C678 C679 1.363 . S
C678 C683 1.379 . S
C678 N685 1.356 . S
C679 C678 1.363 . S
C679 C682 1.363 . S
N680 C682 1.356 . S
N680 H692 0.984 . S
N680 H693 0.985 . S
N681 C683 1.356 . S
N681 H686 0.984 . S
N681 H687 0.985 . S
C682 C676 1.379 . S
C682 C679 1.363 . S
C682 N680 1.356 . S
C683 C677 1.363 . S
C683 C678 1.379 . S
C683 N681 1.356 . S
N684 C676 1.356 . S
N684 H690 0.984 . S
N684 H691 0.984 . S
N685 C678 1.356 . S
N685 H688 0.984 . S
N685 H689 0.985 . S
H686 N681 0.984 . S
H687 N681 0.985 . S
H688 N685 0.984 . S
H689 N685 0.985 . S
H690 N684 0.984 . S
H691 N684 0.984 . S
H692 N680 0.984 . S
H693 N680 0.985 . S
C694 C695 1.363 . S
C694 C700 1.379 . S
C694 N702 1.356 . S
C695 C694 1.363 . S
C695 C701 1.363 . S
C696 C697 1.363 . S
C696 C701 1.379 . S
C696 N703 1.356 . S
C697 C696 1.363 . S
C697 C700 1.363 . S
N698 C700 1.356 . S
N698 H710 0.984 . S
N698 H711 0.985 . S
N699 C701 1.356 . S
N699 H704 0.984 . S
N699 H705 0.985 . S
C700 C694 1.379 . S
C700 C697 1.363 . S
C700 N698 1.356 . S
C701 C695 1.363 . S
C701 C696 1.379 . S
C701 N699 1.356 . S
N702 C694 1.356 . S
N702 H708 0.984 . S
N702 H709 0.984 . S
N703 C696 1.356 . S
N703 H706 0.984 . S
N703 H707 0.985 . S
H704 N699 0.984 . S
H705 N699 0.985 . S
H706 N703 0.984 . S
H707 N703 0.985 . S
H708 N702 0.984 . S
H709 N702 0.984 . S
H710 N698 0.984 . S
H711 N698 0.985 . S
C712 C713 1.363 . S
C712 C718 1.379 . S
C712 N720 1.356 . S
C713 C712 1.363 . S
C713 C719 1.363 . S
C714 C715 1.363 . S
C714 C719 1.379 . S
C714 N721 1.356 . S
C715 C714 1.363 . S
C715 C718 1.363 . S
N716 C718 1.356 . S
N716 H728 0.984 . S
N716 H729 0.985 . S
N717 C719 1.356 . S
N717 H722 0.984 . S
N717 H723 0.985 . S
C718 C712 1.379 . S
C718 C715 1.363 . S
C718 N716 1.356 . S
C719 C713 1.363 . S
C719 C714 1.379 . S
C719 N717 1.356 . S
N720 C712 1.356 . S
N720 H726 0.984 . S
N720 H727 0.984 . S
N721 C714 1.356 . S
N721 H724 0.984 . S
N721 H725 0.985 . S
H722 N717 0.984 . S
H723 N717 0.985 . S
H724 N721 0.984 . S
H725 N721 0.985 . S
H726 N720 0.984 . S
H727 N720 0.984 . S
H728 N716 0.984 . S
H729 N716 0.985 . S
C730 C731 1.363 . S
C730 C736 1.379 . S
C730 N738 1.356 . S
C731 C730 1.363 . S
C731 C737 1.363 . S
C732 C733 1.363 . S
C732 C737 1.379 . S
C732 N739 1.356 . S
C733 C732 1.363 . S
C733 C736 1.363 . S
N734 C736 1.356 . S
N734 H746 0.984 . S
N734 H747 0.985 . S
N735 C737 1.356 . S
N735 H740 0.984 . S
N735 H741 0.985 1_565 S
C736 C730 1.379 . S
C736 C733 1.363 . S
C736 N734 1.356 . S
C737 C731 1.363 . S
C737 C732 1.379 . S
C737 N735 1.356 . S
N738 C730 1.356 . S
N738 H744 0.984 . S
N738 H745 0.984 . S
N739 C732 1.356 . S
N739 H742 0.984 . S
N739 H743 0.985 1_565 S
H740 N735 0.984 . S
H741 N735 0.985 1_545 S
H742 N739 0.984 . S
H743 N739 0.985 1_545 S
H744 N738 0.984 . S
H745 N738 0.984 . S
H746 N734 0.984 . S
H747 N734 0.985 . S
C748 C749 1.363 . S
C748 C754 1.379 . S
C748 N756 1.356 . S
C749 C748 1.363 . S
C749 C755 1.363 . S
C750 C751 1.363 . S
C750 C755 1.379 . S
C750 N757 1.356 . S
C751 C750 1.363 . S
C751 C754 1.363 . S
N752 C754 1.356 . S
N752 H764 0.984 . S
N752 H765 0.985 . S
N753 C755 1.356 . S
N753 H758 0.984 . S
N753 H759 0.985 . S
C754 C748 1.379 . S
C754 C751 1.363 . S
C754 N752 1.356 . S
C755 C749 1.363 . S
C755 C750 1.379 . S
C755 N753 1.356 . S
N756 C748 1.356 . S
N756 H762 0.984 . S
N756 H763 0.984 . S
N757 C750 1.356 . S
N757 H760 0.984 . S
N757 H761 0.985 . S
H758 N753 0.984 . S
H759 N753 0.985 . S
H760 N757 0.984 . S
H761 N757 0.985 . S
H762 N756 0.984 . S
H763 N756 0.984 . S
H764 N752 0.984 . S
H765 N752 0.985 . S
C766 C767 1.363 . S
C766 C772 1.379 . S
C766 N774 1.356 . S
C767 C766 1.363 . S
C767 C773 1.363 . S
C768 C769 1.363 . S
C768 C773 1.379 . S
C768 N775 1.356 . S
C769 C768 1.363 . S
C769 C772 1.363 . S
N770 C772 1.356 . S
N770 H782 0.984 . S
N770 H783 0.985 . S
N771 C773 1.356 . S
N771 H776 0.984 . S
N771 H777 0.985 . S
C772 C766 1.379 . S
C772 C769 1.363 . S
C772 N770 1.356 . S
C773 C767 1.363 . S
C773 C768 1.379 . S
C773 N771 1.356 . S
N774 C766 1.356 . S
N774 H780 0.984 . S
N774 H781 0.984 . S
N775 C768 1.356 . S
N775 H778 0.984 . S
N775 H779 0.985 . S
H776 N771 0.984 . S
H777 N771 0.985 . S
H778 N775 0.984 . S
H779 N775 0.985 . S
H780 N774 0.984 . S
H781 N774 0.984 . S
H782 N770 0.984 . S
H783 N770 0.985 . S
C784 C785 1.363 . S
C784 C790 1.379 . S
C784 N792 1.356 . S
C785 C784 1.363 . S
C785 C791 1.363 . S
C786 C787 1.363 . S
C786 C791 1.379 . S
C786 N793 1.356 . S
C787 C786 1.363 . S
C787 C790 1.363 . S
N788 C790 1.356 . S
N788 H800 0.984 . S
N788 H801 0.985 . S
N789 C791 1.356 . S
N789 H794 0.984 . S
N789 H795 0.985 1_554 S
C790 C784 1.379 . S
C790 C787 1.363 . S
C790 N788 1.356 . S
C791 C785 1.363 . S
C791 C786 1.379 . S
C791 N789 1.356 . S
N792 C784 1.356 . S
N792 H798 0.984 . S
N792 H799 0.984 . S
N793 C786 1.356 . S
N793 H796 0.984 . S
N793 H797 0.985 1_554 S
H794 N789 0.984 . S
H795 N789 0.985 1_556 S
H796 N793 0.984 . S
H797 N793 0.985 1_556 S
H798 N792 0.984 . S
H799 N792 0.984 . S
H800 N788 0.984 . S
H801 N788 0.985 . S
C802 C803 1.363 . S
C802 C808 1.379 . S
C802 N810 1.356 . S
C803 C802 1.363 . S
C803 C809 1.363 . S
C804 C805 1.363 . S
C804 C809 1.379 . S
C804 N811 1.356 . S
C805 C804 1.363 . S
C805 C808 1.363 . S
N806 C808 1.356 . S
N806 H818 0.984 1_554 S
N806 H819 0.985 . S
N807 C809 1.356 . S
N807 H812 0.984 . S
N807 H813 0.985 . S
C808 C802 1.379 . S
C808 C805 1.363 . S
C808 N806 1.356 . S
C809 C803 1.363 . S
C809 C804 1.379 . S
C809 N807 1.356 . S
N810 C802 1.356 . S
N810 H816 0.984 1_554 S
N810 H817 0.984 . S
N811 C804 1.356 . S
N811 H814 0.984 . S
N811 H815 0.985 . S
H812 N807 0.984 . S
H813 N807 0.985 . S
H814 N811 0.984 . S
H815 N811 0.985 . S
H816 N810 0.984 1_556 S
H817 N810 0.984 . S
H818 N806 0.984 1_556 S
H819 N806 0.985 . S
C820 C821 1.363 . S
C820 C826 1.379 . S
C820 N828 1.356 . S
C821 C820 1.363 . S
C821 C827 1.363 . S
C822 C823 1.363 . S
C822 C827 1.379 . S
C822 N829 1.356 . S
C823 C822 1.363 . S
C823 C826 1.363 . S
N824 C826 1.356 . S
N824 H836 0.984 . S
N824 H837 0.985 . S
N825 C827 1.356 . S
N825 H830 0.984 . S
N825 H831 0.985 . S
C826 C820 1.379 . S
C826 C823 1.363 . S
C826 N824 1.356 . S
C827 C821 1.363 . S
C827 C822 1.379 . S
C827 N825 1.356 . S
N828 C820 1.356 . S
N828 H834 0.984 . S
N828 H835 0.984 . S
N829 C822 1.356 . S
N829 H832 0.984 . S
N829 H833 0.985 . S
H830 N825 0.984 . S
H831 N825 0.985 . S
H832 N829 0.984 . S
H833 N829 0.985 . S
H834 N828 0.984 . S
H835 N828 0.984 . S
H836 N824 0.984 . S
H837 N824 0.985 . S
C838 C839 1.363 . S
C838 C844 1.379 . S
C838 N846 1.356 . S
C839 C838 1.363 . S
C839 C845 1.363 . S
C840 C841 1.363 . S
C840 C845 1.379 . S
C840 N847 1.356 . S
C841 C840 1.363 . S
C841 C844 1.363 . S
N842 C844 1.356 . S
N842 H854 0.984 . S
N842 H855 0.985 . S
N843 C845 1.356 . S
N843 H848 0.984 . S
N843 H849 0.985 . S
C844 C838 1.379 . S
C844 C841 1.363 . S
C844 N842 1.356 . S
C845 C839 1.363 . S
C845 C840 1.379 . S
C845 N843 1.356 . S
N846 C838 1.356 . S
N846 H852 0.984 . S
N846 H853 0.984 . S
N847 C840 1.356 . S
N847 H850 0.984 . S
N847 H851 0.985 . S
H848 N843 0.984 . S
H849 N843 0.985 . S
H850 N847 0.984 . S
H851 N847 0.985 . S
H852 N846 0.984 . S
H853 N846 0.984 . S
H854 N842 0.984 . S
H855 N842 0.985 . S
C856 C857 1.363 . S
C856 C862 1.379 . S
C856 N864 1.356 . S
C857 C856 1.363 . S
C857 C863 1.363 . S
C858 C859 1.363 . S
C858 C863 1.379 . S
C858 N865 1.356 . S
C859 C858 1.363 . S
C859 C862 1.363 . S
N860 C862 1.356 . S
N860 H872 0.984 . S
N860 H873 0.985 . S
N861 C863 1.356 . S
N861 H866 0.984 . S
N861 H867 0.985 1_556 S
C862 C856 1.379 . S
C862 C859 1.363 . S
C862 N860 1.356 . S
C863 C857 1.363 . S
C863 C858 1.379 . S
C863 N861 1.356 . S
N864 C856 1.356 . S
N864 H870 0.984 . S
N864 H871 0.984 . S
N865 C858 1.356 . S
N865 H868 0.984 . S
N865 H869 0.985 1_556 S
H866 N861 0.984 . S
H867 N861 0.985 1_554 S
H868 N865 0.984 . S
H869 N865 0.985 1_554 S
H870 N864 0.984 . S
H871 N864 0.984 . S
H872 N860 0.984 . S
H873 N860 0.985 . S
C874 C875 1.363 . S
C874 C880 1.379 . S
C874 N882 1.356 . S
C875 C874 1.363 . S
C875 C881 1.363 . S
C876 C877 1.363 . S
C876 C881 1.379 . S
C876 N883 1.356 . S
C877 C876 1.363 . S
C877 C880 1.363 . S
N878 C880 1.356 . S
N878 H890 0.984 1_556 S
N878 H891 0.985 . S
N879 C881 1.356 . S
N879 H884 0.984 . S
N879 H885 0.985 . S
C880 C874 1.379 . S
C880 C877 1.363 . S
C880 N878 1.356 . S
C881 C875 1.363 . S
C881 C876 1.379 . S
C881 N879 1.356 . S
N882 C874 1.356 . S
N882 H888 0.984 1_556 S
N882 H889 0.984 . S
N883 C876 1.356 . S
N883 H886 0.984 . S
N883 H887 0.985 . S
H884 N879 0.984 . S
H885 N879 0.985 . S
H886 N883 0.984 . S
H887 N883 0.985 . S
H888 N882 0.984 1_554 S
H889 N882 0.984 . S
H890 N878 0.984 1_554 S
H891 N878 0.985 . S
C892 C893 1.363 . S
C892 C898 1.379 . S
C892 N900 1.356 . S
C893 C892 1.363 . S
C893 C899 1.363 . S
C894 C895 1.363 . S
C894 C899 1.379 . S
C894 N901 1.356 . S
C895 C894 1.363 . S
C895 C898 1.363 . S
N896 C898 1.356 . S
N896 H908 0.984 . S
N896 H909 0.985 . S
N897 C899 1.356 . S
N897 H902 0.984 . S
N897 H903 0.985 . S
C898 C892 1.379 . S
C898 C895 1.363 . S
C898 N896 1.356 . S
C899 C893 1.363 . S
C899 C894 1.379 . S
C899 N897 1.356 . S
N900 C892 1.356 . S
N900 H906 0.984 . S
N900 H907 0.984 . S
N901 C894 1.356 . S
N901 H904 0.984 . S
N901 H905 0.985 . S
H902 N897 0.984 . S
H903 N897 0.985 . S
H904 N901 0.984 . S
H905 N901 0.985 . S
H906 N900 0.984 . S
H907 N900 0.984 . S
H908 N896 0.984 . S
H909 N896 0.985 . S
C910 C911 1.363 . S
C910 C916 1.379 . S
C910 N918 1.356 . S
C911 C910 1.363 . S
C911 C917 1.363 . S
C912 C913 1.363 . S
C912 C917 1.379 . S
C912 N919 1.356 . S
C913 C912 1.363 . S
C913 C916 1.363 . S
N914 C916 1.356 . S
N914 H926 0.984 . S
N914 H927 0.985 . S
N915 C917 1.356 . S
N915 H920 0.984 . S
N915 H921 0.985 . S
C916 C910 1.379 . S
C916 C913 1.363 . S
C916 N914 1.356 . S
C917 C911 1.363 . S
C917 C912 1.379 . S
C917 N915 1.356 . S
N918 C910 1.356 . S
N918 H924 0.984 . S
N918 H925 0.984 . S
N919 C912 1.356 . S
N919 H922 0.984 . S
N919 H923 0.985 . S
H920 N915 0.984 . S
H921 N915 0.985 . S
H922 N919 0.984 . S
H923 N919 0.985 . S
H924 N918 0.984 . S
H925 N918 0.984 . S
H926 N914 0.984 . S
H927 N914 0.985 . S
C928 C929 1.363 . S
C928 C934 1.379 1_656 S
C928 N936 1.356 . S
C929 C928 1.363 . S
C929 C935 1.363 . S
C930 C931 1.363 . S
C930 C935 1.379 1_454 S
C930 N937 1.356 . S
C931 C930 1.363 . S
C931 C934 1.363 . S
N932 C934 1.356 . S
N932 H944 0.984 . S
N932 H945 0.985 . S
N933 C935 1.356 . S
N933 H938 0.984 . S
N933 H939 0.985 . S
C934 C928 1.379 1_454 S
C934 C931 1.363 . S
C934 N932 1.356 . S
C935 C929 1.363 . S
C935 C930 1.379 1_656 S
C935 N933 1.356 . S
N936 C928 1.356 . S
N936 H942 0.984 . S
N936 H943 0.984 . S
N937 C930 1.356 . S
N937 H940 0.984 . S
N937 H941 0.985 . S
H938 N933 0.984 . S
H939 N933 0.985 . S
H940 N937 0.984 . S
H941 N937 0.985 . S
H942 N936 0.984 . S
H943 N936 0.984 . S
H944 N932 0.984 . S
H945 N932 0.985 . S
C946 C947 1.363 1_655 S
C946 C952 1.379 1_565 S
C946 N954 1.356 . S
C947 C946 1.363 1_455 S
C947 C953 1.363 1_556 S
C948 C949 1.363 1_455 S
C948 C953 1.379 1_545 S
C948 N955 1.356 . S
C949 C948 1.363 1_655 S
C949 C952 1.363 1_554 S
N950 C952 1.356 . S
N950 H962 0.984 . S
N950 H963 0.985 1_556 S
N951 C953 1.356 . S
N951 H956 0.984 1_554 S
N951 H957 0.985 . S
C952 C946 1.379 1_545 S
C952 C949 1.363 1_556 S
C952 N950 1.356 . S
C953 C947 1.363 1_554 S
C953 C948 1.379 1_565 S
C953 N951 1.356 . S
N954 C946 1.356 . S
N954 H960 0.984 1_565 S
N954 H961 0.984 . S
N955 C948 1.356 . S
N955 H958 0.984 . S
N955 H959 0.985 1_545 S
H956 N951 0.984 1_556 S
H957 N951 0.985 . S
H958 N955 0.984 . S
H959 N955 0.985 1_565 S
H960 N954 0.984 1_545 S
H961 N954 0.984 . S
H962 N950 0.984 . S
H963 N950 0.985 1_554 S
C964 C965 1.363 1_565 S
C964 C970 1.379 . S
C964 N972 1.356 . S
C965 C964 1.363 1_545 S
C965 C971 1.363 1_556 S
C966 C967 1.363 1_545 S
C966 C971 1.379 . S
C966 N973 1.356 . S
C967 C966 1.363 1_565 S
C967 C970 1.363 1_554 S
N968 C970 1.356 . S
N968 H980 0.984 . S
N968 H981 0.985 1_556 S
N969 C971 1.356 . S
N969 H974 0.984 1_554 S
N969 H975 0.985 . S
C970 C964 1.379 . S
C970 C967 1.363 1_556 S
C970 N968 1.356 . S
C971 C965 1.363 1_554 S
C971 C966 1.379 . S
C971 N969 1.356 . S
N972 C964 1.356 . S
N972 H978 0.984 . S
N972 H979 0.984 . S
N973 C966 1.356 . S
N973 H976 0.984 . S
N973 H977 0.985 . S
H974 N969 0.984 1_556 S
H975 N969 0.985 . S
H976 N973 0.984 . S
H977 N973 0.985 . S
H978 N972 0.984 . S
H979 N972 0.984 . S
H980 N968 0.984 . S
H981 N968 0.985 1_554 S
C982 C983 1.363 . S
C982 C988 1.379 . S
C982 N990 1.356 . S
C983 C982 1.363 . S
C983 C989 1.363 1_554 S
C984 C985 1.363 . S
C984 C989 1.379 . S
C984 N991 1.356 . S
C985 C984 1.363 . S
C985 C988 1.363 1_556 S
N986 C988 1.356 . S
N986 H998 0.984 . S
N986 H999 0.985 1_554 S
N987 C989 1.356 . S
N987 H992 0.984 1_556 S
N987 H993 0.985 . S
C988 C982 1.379 . S
C988 C985 1.363 1_554 S
C988 N986 1.356 . S
C989 C983 1.363 1_556 S
C989 C984 1.379 . S
C989 N987 1.356 . S
N990 C982 1.356 . S
N990 H996 0.984 . S
N990 H997 0.984 . S
N991 C984 1.356 . S
N991 H994 0.984 . S
N991 H995 0.985 . S
H992 N987 0.984 1_554 S
H993 N987 0.985 . S
H994 N991 0.984 . S
H995 N991 0.985 . S
H996 N990 0.984 . S
H997 N990 0.984 . S
H998 N986 0.984 . S
H999 N986 0.985 1_556 S
C1000 C1001 1.363 . S
C1000 C1006 1.379 1_655 S
C1000 N1008 1.356 . S
C1001 C1000 1.363 . S
C1001 C1007 1.363 1_545 S
C1002 C1003 1.363 . S
C1002 C1007 1.379 1_455 S
C1002 N1009 1.356 . S
C1003 C1002 1.363 . S
C1003 C1006 1.363 1_565 S
N1004 C1006 1.356 . S
N1004 H1016 0.984 . S
N1004 H1017 0.985 . S
N1005 C1007 1.356 . S
N1005 H1010 0.984 . S
N1005 H1011 0.985 . S
C1006 C1000 1.379 1_455 S
C1006 C1003 1.363 1_545 S
C1006 N1004 1.356 . S
C1007 C1001 1.363 1_565 S
C1007 C1002 1.379 1_655 S
C1007 N1005 1.356 . S
N1008 C1000 1.356 . S
N1008 H1014 0.984 . S
N1008 H1015 0.984 . S
N1009 C1002 1.356 . S
N1009 H1012 0.984 . S
N1009 H1013 0.985 . S
H1010 N1005 0.984 . S
H1011 N1005 0.985 . S
H1012 N1009 0.984 . S
H1013 N1009 0.985 . S
H1014 N1008 0.984 . S
H1015 N1008 0.984 . S
H1016 N1004 0.984 . S
H1017 N1004 0.985 . S
C1018 C1019 1.363 . S
C1018 C1024 1.379 . S
C1018 N1026 1.356 . S
C1019 C1018 1.363 . S
C1019 C1025 1.363 1_565 S
C1020 C1021 1.363 . S
C1020 C1025 1.379 . S
C1020 N1027 1.356 . S
C1021 C1020 1.363 . S
C1021 C1024 1.363 1_545 S
N1022 C1024 1.356 1_545 S
N1022 H1034 0.984 1_545 S
N1022 H1035 0.985 . S
N1023 C1025 1.356 1_565 S
N1023 H1028 0.984 . S
N1023 H1029 0.985 1_565 S
C1024 C1018 1.379 . S
C1024 C1021 1.363 1_565 S
C1024 N1022 1.356 1_565 S
C1025 C1019 1.363 1_545 S
C1025 C1020 1.379 . S
C1025 N1023 1.356 1_545 S
N1026 C1018 1.356 . S
N1026 H1032 0.984 . S
N1026 H1033 0.984 . S
N1027 C1020 1.356 . S
N1027 H1030 0.984 . S
N1027 H1031 0.985 . S
H1028 N1023 0.984 . S
H1029 N1023 0.985 1_545 S
H1030 N1027 0.984 . S
H1031 N1027 0.985 . S
H1032 N1026 0.984 . S
H1033 N1026 0.984 . S
H1034 N1022 0.984 1_565 S
H1035 N1022 0.985 . S
C1036 C1037 1.363 . S
C1036 C1042 1.379 . S
C1036 N1044 1.356 . S
C1037 C1036 1.363 . S
C1037 C1043 1.363 . S
C1038 C1039 1.363 . S
C1038 C1043 1.379 . S
C1038 N1045 1.356 . S
C1039 C1038 1.363 . S
C1039 C1042 1.363 . S
N1040 C1042 1.356 . S
N1040 H1052 0.984 . S
N1040 H1053 0.985 . S
N1041 C1043 1.356 . S
N1041 H1046 0.984 . S
N1041 H1047 0.985 . S
C1042 C1036 1.379 . S
C1042 C1039 1.363 . S
C1042 N1040 1.356 . S
C1043 C1037 1.363 . S
C1043 C1038 1.379 . S
C1043 N1041 1.356 . S
N1044 C1036 1.356 . S
N1044 H1050 0.984 . S
N1044 H1051 0.984 . S
N1045 C1038 1.356 . S
N1045 H1048 0.984 . S
N1045 H1049 0.985 . S
H1046 N1041 0.984 . S
H1047 N1041 0.985 . S
H1048 N1045 0.984 . S
H1049 N1045 0.985 . S
H1050 N1044 0.984 . S
H1051 N1044 0.984 . S
H1052 N1040 0.984 . S
H1053 N1040 0.985 . S
C1054 C1055 1.363 . S
C1054 C1060 1.379 . S
C1054 N1062 1.356 . S
C1055 C1054 1.363 . S
C1055 C1061 1.363 1_455 S
C1056 C1057 1.363 . S
C1056 C1061 1.379 . S
C1056 N1063 1.356 . S
C1057 C1056 1.363 . S
C1057 C1060 1.363 1_655 S
N1058 C1060 1.356 . S
N1058 H1070 0.984 . S
N1058 H1071 0.985 1_455 S
N1059 C1061 1.356 . S
N1059 H1064 0.984 1_655 S
N1059 H1065 0.985 . S
C1060 C1054 1.379 . S
C1060 C1057 1.363 1_455 S
C1060 N1058 1.356 . S
C1061 C1055 1.363 1_655 S
C1061 C1056 1.379 . S
C1061 N1059 1.356 . S
N1062 C1054 1.356 . S
N1062 H1068 0.984 . S
N1062 H1069 0.984 . S
N1063 C1056 1.356 . S
N1063 H1066 0.984 . S
N1063 H1067 0.985 . S
H1064 N1059 0.984 1_455 S
H1065 N1059 0.985 . S
H1066 N1063 0.984 . S
H1067 N1063 0.985 . S
H1068 N1062 0.984 . S
H1069 N1062 0.984 . S
H1070 N1058 0.984 . S
H1071 N1058 0.985 1_655 S
C1072 C1073 1.363 . S
C1072 C1078 1.379 . S
C1072 N1080 1.356 . S
C1073 C1072 1.363 . S
C1073 C1079 1.363 . S
C1074 C1075 1.363 1_455 S
C1074 C1079 1.379 1_455 S
C1074 N1081 1.356 . S
C1075 C1074 1.363 1_655 S
C1075 C1078 1.363 . S
N1076 C1078 1.356 . S
N1076 H1088 0.984 . S
N1076 H1089 0.985 . S
N1077 C1079 1.356 1_455 S
N1077 H1082 0.984 1_455 S
N1077 H1083 0.985 . S
C1078 C1072 1.379 . S
C1078 C1075 1.363 . S
C1078 N1076 1.356 . S
C1079 C1073 1.363 . S
C1079 C1074 1.379 1_655 S
C1079 N1077 1.356 1_655 S
N1080 C1072 1.356 . S
N1080 H1086 0.984 . S
N1080 H1087 0.984 . S
N1081 C1074 1.356 . S
N1081 H1084 0.984 . S
N1081 H1085 0.985 . S
H1082 N1077 0.984 1_655 S
H1083 N1077 0.985 . S
H1084 N1081 0.984 . S
H1085 N1081 0.985 . S
H1086 N1080 0.984 . S
H1087 N1080 0.984 . S
H1088 N1076 0.984 . S
H1089 N1076 0.985 . S
C1090 C1091 1.363 1_455 S
C1090 C1096 1.379 1_455 S
C1090 N1098 1.356 . S
C1091 C1090 1.363 1_655 S
C1091 C1097 1.363 . S
C1092 C1093 1.363 1_545 S
C1092 C1097 1.379 1_545 S
C1092 N1099 1.356 . S
C1093 C1092 1.363 1_565 S
C1093 C1096 1.363 . S
N1094 C1096 1.356 1_455 S
N1094 H1106 0.984 . S
N1094 H1107 0.985 1_455 S
N1095 C1097 1.356 1_545 S
N1095 H1100 0.984 1_545 S
N1095 H1101 0.985 . S
C1096 C1090 1.379 1_655 S
C1096 C1093 1.363 . S
C1096 N1094 1.356 1_655 S
C1097 C1091 1.363 . S
C1097 C1092 1.379 1_565 S
C1097 N1095 1.356 1_565 S
N1098 C1090 1.356 . S
N1098 H1104 0.984 . S
N1098 H1105 0.984 . S
N1099 C1092 1.356 . S
N1099 H1102 0.984 . S
N1099 H1103 0.985 . S
H1100 N1095 0.984 1_565 S
H1101 N1095 0.985 . S
H1102 N1099 0.984 . S
H1103 N1099 0.985 . S
H1104 N1098 0.984 . S
H1105 N1098 0.984 . S
H1106 N1094 0.984 . S
H1107 N1094 0.985 1_655 S
C1108 C1109 1.363 . S
C1108 C1114 1.379 . S
C1108 N1116 1.356 . S
C1109 C1108 1.363 . S
C1109 C1115 1.363 1_565 S
C1110 C1111 1.363 . S
C1110 C1115 1.379 1_565 S
C1110 N1117 1.358 . S
C1111 C1110 1.363 . S
C1111 C1114 1.363 . S
N1112 C1114 1.356 . S
N1112 H1124 0.984 . S
N1112 H1125 0.985 . S
N1113 C1115 1.356 . S
N1113 H1118 0.984 . S
N1113 H1119 0.985 . S
C1114 C1108 1.379 . S
C1114 C1111 1.363 . S
C1114 N1112 1.356 . S
C1115 C1109 1.363 1_545 S
C1115 C1110 1.379 1_545 S
C1115 N1113 1.356 . S
N1116 C1108 1.356 . S
N1116 H1122 0.984 . S
N1116 H1123 0.984 . S
N1117 C1110 1.358 . S
N1117 H1120 0.989 . S
N1117 H1121 0.979 1_565 S
H1118 N1113 0.984 . S
H1119 N1113 0.985 . S
H1120 N1117 0.989 . S
H1121 N1117 0.979 1_545 S
H1122 N1116 0.984 . S
H1123 N1116 0.984 . S
H1124 N1112 0.984 . S
H1125 N1112 0.985 . S
C1126 C1127 1.363 . S
C1126 C1132 1.379 . S
C1126 N1134 1.356 . S
C1127 C1126 1.363 . S
C1127 C1133 1.363 . S
C1128 C1129 1.363 . S
C1128 C1133 1.379 . S
C1128 N1135 1.356 . S
C1129 C1128 1.363 . S
C1129 C1132 1.363 . S
N1130 C1132 1.356 . S
N1130 H1142 0.984 . S
N1130 H1143 0.985 . S
N1131 C1133 1.356 . S
N1131 H1136 0.984 . S
N1131 H1137 0.985 . S
C1132 C1126 1.379 . S
C1132 C1129 1.363 . S
C1132 N1130 1.356 . S
C1133 C1127 1.363 . S
C1133 C1128 1.379 . S
C1133 N1131 1.356 . S
N1134 C1126 1.356 . S
N1134 H1140 0.984 . S
N1134 H1141 0.984 . S
N1135 C1128 1.356 . S
N1135 H1138 0.984 . S
N1135 H1139 0.985 . S
H1136 N1131 0.984 . S
H1137 N1131 0.985 . S
H1138 N1135 0.984 . S
H1139 N1135 0.985 . S
H1140 N1134 0.984 . S
H1141 N1134 0.984 . S
H1142 N1130 0.984 . S
H1143 N1130 0.985 . S
C1144 C1145 1.363 . S
C1144 C1150 1.379 . S
C1144 N1152 1.356 . S
C1145 C1144 1.363 . S
C1145 C1151 1.363 . S
C1146 C1147 1.363 1_655 S
C1146 C1151 1.379 1_655 S
C1146 N1153 1.356 . S
C1147 C1146 1.363 1_455 S
C1147 C1150 1.363 . S
N1148 C1150 1.356 . S
N1148 H1160 0.984 . S
N1148 H1161 0.985 . S
N1149 C1151 1.356 1_655 S
N1149 H1154 0.984 1_655 S
N1149 H1155 0.985 . S
C1150 C1144 1.379 . S
C1150 C1147 1.363 . S
C1150 N1148 1.356 . S
C1151 C1145 1.363 . S
C1151 C1146 1.379 1_455 S
C1151 N1149 1.356 1_455 S
N1152 C1144 1.356 . S
N1152 H1158 0.984 . S
N1152 H1159 0.984 . S
N1153 C1146 1.356 . S
N1153 H1156 0.984 . S
N1153 H1157 0.985 . S
H1154 N1149 0.984 1_455 S
H1155 N1149 0.985 . S
H1156 N1153 0.984 . S
H1157 N1153 0.985 . S
H1158 N1152 0.984 . S
H1159 N1152 0.984 . S
H1160 N1148 0.984 . S
H1161 N1148 0.985 . S
C1162 C1163 1.363 1_665 S
C1162 C1168 1.379 1_655 S
C1162 N1170 1.356 . S
C1163 C1162 1.363 1_445 S
C1163 C1169 1.363 . S
C1164 C1165 1.363 . S
C1164 C1169 1.379 . S
C1164 N1171 1.356 . S
C1165 C1164 1.363 . S
C1165 C1168 1.363 1_545 S
N1166 C1168 1.356 1_655 S
N1166 H1178 0.984 . S
N1166 H1179 0.985 1_655 S
N1167 C1169 1.356 . S
N1167 H1172 0.984 . S
N1167 H1173 0.985 . S
C1168 C1162 1.379 1_455 S
C1168 C1165 1.363 1_565 S
C1168 N1166 1.356 1_455 S
C1169 C1163 1.363 . S
C1169 C1164 1.379 . S
C1169 N1167 1.356 . S
N1170 C1162 1.356 . S
N1170 H1176 0.984 . S
N1170 H1177 0.994 . S
N1171 C1164 1.356 . S
N1171 H1174 0.984 . S
N1171 H1175 0.985 . S
H1172 N1167 0.984 . S
H1173 N1167 0.985 . S
H1174 N1171 0.984 . S
H1175 N1171 0.985 . S
H1176 N1170 0.984 . S
H1177 N1170 0.994 . S
H1178 N1166 0.984 . S
H1179 N1166 0.985 1_455 S
C1180 C1181 1.363 1_565 S
C1180 C1186 1.384 . S
C1180 N1188 1.356 . S
C1181 C1180 1.363 1_545 S
C1181 C1187 1.363 . S
C1182 C1183 1.363 . S
C1182 C1187 1.379 . S
C1182 N1189 1.356 . S
C1183 C1182 1.363 . S
C1183 C1186 1.348 1_545 S
N1184 C1186 1.362 . S
N1184 H1196 0.984 . S
N1184 H1197 0.985 1_565 S
N1185 C1187 1.356 . S
N1185 H1190 0.984 . S
N1185 H1191 0.985 . S
C1186 C1180 1.384 . S
C1186 C1183 1.348 1_565 S
C1186 N1184 1.362 . S
C1187 C1181 1.363 . S
C1187 C1182 1.379 . S
C1187 N1185 1.356 . S
N1188 C1180 1.356 . S
N1188 H1194 0.984 . S
N1188 H1195 0.984 . S
N1189 C1182 1.356 . S
N1189 H1192 0.984 . S
N1189 H1193 0.985 . S
H1190 N1185 0.984 . S
H1191 N1185 0.985 . S
H1192 N1189 0.984 . S
H1193 N1189 0.985 . S
H1194 N1188 0.984 . S
H1195 N1188 0.984 . S
H1196 N1184 0.984 . S
H1197 N1184 0.985 1_545 S
C1198 C1199 1.363 . S
C1198 C1204 1.379 . S
C1198 N1206 1.356 . S
C1199 C1198 1.363 . S
C1199 C1205 1.363 . S
C1200 C1201 1.363 . S
C1200 C1205 1.379 . S
C1200 N1207 1.356 . S
C1201 C1200 1.363 . S
C1201 C1204 1.363 . S
N1202 C1204 1.356 . S
N1202 H1214 0.984 . S
N1202 H1215 0.985 . S
N1203 C1205 1.356 . S
N1203 H1208 0.984 . S
N1203 H1209 0.985 . S
C1204 C1198 1.379 . S
C1204 C1201 1.363 . S
C1204 N1202 1.356 . S
C1205 C1199 1.363 . S
C1205 C1200 1.379 . S
C1205 N1203 1.356 . S
N1206 C1198 1.356 . S
N1206 H1212 0.984 . S
N1206 H1213 0.984 . S
N1207 C1200 1.356 . S
N1207 H1210 0.984 . S
N1207 H1211 0.985 . S
H1208 N1203 0.984 . S
H1209 N1203 0.985 . S
H1210 N1207 0.984 . S
H1211 N1207 0.985 . S
H1212 N1206 0.984 . S
H1213 N1206 0.984 . S
H1214 N1202 0.984 . S
H1215 N1202 0.985 . S
C353 C70 1.354 . S
C355 C8 1.408 . S
C371 C4 1.354 . S
C373 C30 1.408 . S
C389 C52 1.408 . S
C391 C26 1.354 . S
C407 C48 1.354 . S
C409 C74 1.408 . S
C425 C92 1.408 . S
C427 C114 1.354 . S
C443 C118 1.408 . S
C445 C140 1.354 . S
C461 C136 1.408 . S
C463 C162 1.354 . S
C479 C96 1.354 . S
C481 C158 1.408 . S
C497 C184 1.408 . S
C499 C246 1.354 . S
C515 C180 1.354 . S
C517 C202 1.408 . S
C533 C206 1.354 . S
C535 C228 1.408 . S
C551 C224 1.354 . S
C553 C250 1.408 . S
C569 C268 1.408 . S
C571 C294 1.354 . S
C587 C316 1.354 . S
C589 C290 1.408 . S
C605 C338 1.354 . S
C607 C312 1.408 . S
C623 C334 1.408 . S
C625 C272 1.354 . S
C641 C6 0.843 . S
C643 C95 0.843 . S
C659 C116 0.843 . S
C661 C28 0.843 . S
C677 C50 0.843 . S
C679 C139 0.843 . S
C695 C72 0.843 . S
C697 C161 0.843 . S
C713 C273 0.843 . S
C715 C181 0.843 . S
C731 C295 0.843 . S
C733 C207 0.843 . S
C749 C225 0.843 . S
C751 C317 0.843 . S
C767 C339 0.843 . S
C769 C247 0.843 . S
C785 C5 1.951 . S
C787 C49 1.951 . S
C803 C27 1.951 . S
C805 C71 1.951 . S
C821 C141 1.951 . S
C823 C97 1.951 . S
C839 C163 1.951 . S
C841 C115 1.951 . S
C857 C226 1.951 . S
C859 C182 1.951 . S
C875 C248 1.951 . S
C877 C205 1.951 . S
C893 C271 1.951 . S
C895 C315 1.951 . S
C911 C293 1.951 . S
C913 C337 1.951 . S
C929 C185 1.853 . S
C931 C7 1.853 . S
C947 C203 1.853 . S
C949 C29 1.853 . S
C965 C229 1.853 . S
C967 C51 1.853 . S
C983 C73 1.853 . S
C985 C251 1.853 . S
C1001 C269 1.853 . S
C1003 C94 1.853 . S
C1019 C291 1.853 . S
C1021 C117 1.853 . S
C1037 C313 1.853 . S
C1039 C138 1.853 . S
C1055 C335 1.853 . S
C1057 C160 1.853 . S
C1073 C159 1.352 . S
C1075 C9 1.352 1_655 S
C1091 C93 1.352 1_655 S
C1093 C31 1.352 1_565 S
C1109 C119 1.352 1_565 S
C1111 C53 1.352 . S
C1127 C137 1.352 . S
C1129 C75 1.352 . S
C1145 C336 1.352 . S
C1147 C183 1.352 1_455 S
C1163 C270 1.352 1_455 S
C1165 C204 1.352 1_545 S
C1181 C292 1.352 1_545 S
C1183 C227 1.352 . S
C1199 C249 1.352 . S
C1201 C314 1.352 . S
