# Generated by pormake.
# Topology sma, (6)-cn, num edge types: 1
# Building blocks:
#     Node 0, Type 0, BuildingBlock: HISSIN_clean_sbu_0, # of connection points: 6
#     Node 1, Type 0, BuildingBlock: HISSIN_clean_sbu_0, # of connection points: 6
#     Node 2, Type 0, BuildingBlock: HISSIN_clean_sbu_0, # of connection points: 6
#     Edge 3, Type (0, 0), BuildingBlock: TEMPAE_clean_linker_10, # of connection points: 2
#     Edge 4, Type (0, 0), BuildingBlock: TEMPAE_clean_linker_10, # of connection points: 2
#     Edge 5, Type (0, 0), BuildingBlock: TEMPAE_clean_linker_10, # of connection points: 2
#     Edge 6, Type (0, 0), BuildingBlock: TEMPAE_clean_linker_10, # of connection points: 2
#     Edge 7, Type (0, 0), BuildingBlock: TEMPAE_clean_linker_10, # of connection points: 2
#     Edge 8, Type (0, 0), BuildingBlock: TEMPAE_clean_linker_10, # of connection points: 2
#     Edge 9, Type (0, 0), BuildingBlock: TEMPAE_clean_linker_10, # of connection points: 2
#     Edge 10, Type (0, 0), BuildingBlock: TEMPAE_clean_linker_10, # of connection points: 2
#     Edge 11, Type (0, 0), BuildingBlock: TEMPAE_clean_linker_10, # of connection points: 2
# Relax obj value: 0.071
# Max RMSD: 0.178
# Mean RMSD: 0.174
data_MOF--net-sma--node1-HISSIN_clean_sbu_0--edge1-TEMPAE_clean_linker_10
_symmetry_space_group_name_H-M    P1
_symmetry_Int_Tables_number       1
_symmetry_cell_setting            triclinic
loop_
_symmetry_equiv_pos_as_xyz
'x, y, z'
_cell_length_a     40.685902
_cell_length_b     40.59986
_cell_length_c     14.189605
_cell_angle_alpha  91.645792
_cell_angle_beta   92.139864
_cell_angle_gamma 120.17997
loop_
_atom_site_label
_atom_site_type_symbol
_atom_site_fract_x
_atom_site_fract_y
_atom_site_fract_z
_atom_type_partial_charge
Eu0 Eu 1.02703 0.48055 0.08764 0.0
Eu1 Eu 0.08125 0.57743 0.0777 0.0
C2 C 0.07043 0.53329 0.25901 0.0
C3 C 0.94776 0.37927 0.14752 0.0
C4 C 0.93312 0.38792 0.22657 0.0
C5 C 0.89339 0.31469 0.13813 0.0
C6 C 0.89885 0.35997 0.26142 0.0
C7 C 0.92756 0.34254 0.1036 0.0
C8 C 0.87857 0.32295 0.21762 0.0
C9 C 0.98427 0.40745 0.11032 0.0
O10 O 0.12264 0.55686 0.05404 0.0
O11 O 0.08823 0.49285 0.08824 0.0
C12 C 0.12008 0.52353 0.06625 0.0
O13 O 0.05264 0.49224 0.94911 0.0
O14 O 0.09822 0.63308 0.14488 0.0
O15 O 0.12 0.62966 0.00976 0.0
O16 O 0.05796 0.55089 0.93265 0.0
C17 C 0.06016 0.52157 0.89931 0.0
O18 O 0.98692 0.50046 0.03939 0.0
O19 O 1.02058 0.56272 0.09945 0.0
O20 O 0.09646 0.55943 0.21045 0.0
O21 O 0.98243 0.42378 0.0339 0.0
O22 O 1.01147 0.43113 0.17137 0.0
O23 O 1.03553 0.51319 0.22305 0.0
C24 C 0.16079 0.68305 0.1164 0.0
C25 C 0.19222 0.6957 0.05997 0.0
C26 C 0.20178 0.73215 0.23746 0.0
C27 C 0.22798 0.7262 0.09198 0.0
C28 C 0.16604 0.70176 0.20541 0.0
C29 C 0.2332 0.74489 0.18106 0.0
C30 C 0.1223 0.65191 0.08132 0.0
C31 C 0.98883 0.5329 0.06361 0.0
H32 H 0.9482 0.41616 0.26149 0.0
H33 H 0.87893 0.28642 0.10346 0.0
H34 H 0.88808 0.36742 0.32214 0.0
H35 H 0.93845 0.33524 0.04279 0.0
H36 H 0.18918 0.68223 -0.00931 0.0
H37 H 0.20459 0.74624 0.30574 0.0
H38 H 0.25163 0.73504 0.04703 0.0
H39 H 0.14236 0.69321 0.25015 0.0
Eu40 Eu 0.58047 1.01079 0.43594 0.0
Eu41 Eu 0.53862 0.06542 0.41547 0.0
C42 C 0.57136 0.05333 0.60404 0.0
C43 C 0.60066 0.92981 0.50063 0.0
C44 C 0.57744 0.9142 0.57674 0.0
C45 C 0.60984 0.87507 0.49184 0.0
C46 C 0.57064 0.87927 0.61044 0.0
C47 C 0.61663 0.90989 0.45845 0.0
C48 C 0.58683 0.85927 0.56841 0.0
C49 C 0.60966 0.96709 0.46497 0.0
O50 O 0.60137 0.10777 0.40776 0.0
O51 O 0.63003 0.07193 0.44271 0.0
C52 C 0.63183 0.10456 0.42386 0.0
O53 O 0.59688 0.03918 0.30076 0.0
O54 O 0.49991 0.0822 0.47271 0.0
O55 O 0.5258 0.10438 0.34073 0.0
O56 O 0.54377 0.04445 0.27253 0.0
C57 C 0.57577 0.04752 0.2462 0.0
O58 O 0.52071 0.9718 0.37499 0.0
O59 O 0.4921 1.00427 0.43134 0.0
O60 O 0.57078 0.07943 0.55415 0.0
O61 O 0.59219 0.96657 0.38532 0.0
O62 O 0.61305 0.99345 0.52626 0.0
O63 O 0.55688 1.01855 0.5679 0.0
C64 C 0.51206 0.14385 0.43818 0.0
C65 C 0.48859 0.15699 0.40126 0.0
C66 C 0.54674 0.20237 0.5379 0.0
C67 C 0.49398 0.19247 0.43248 0.0
C68 C 0.54136 0.16684 0.50637 0.0
C69 C 0.52302 0.2156 0.50153 0.0
C70 C 0.50483 0.10574 0.40655 0.0
C71 C 0.49003 0.97316 0.39394 0.0
H72 H 0.5647 0.92903 0.61031 0.0
H73 H 0.62328 0.86088 0.45863 0.0
H74 H 0.55248 0.86777 0.66887 0.0
H75 H 0.63479 0.92151 0.39997 0.0
H76 H 0.46574 0.13958 0.34886 0.0
H77 H 0.56964 0.2196 0.59028 0.0
H78 H 0.47488 0.20145 0.40379 0.0
H79 H 0.55987 0.1572 0.53556 0.0
Eu80 Eu 0.50351 0.5153 0.74223 0.0
Eu81 Eu 0.60029 0.55784 0.77096 0.0
C82 C 0.54999 0.54391 0.93505 0.0
C83 C 0.39908 0.48738 0.7739 0.0
C84 C 0.38716 0.47666 0.86551 0.0
C85 C 0.35138 0.50659 0.75425 0.0
C86 C 0.35777 0.48088 0.901 0.0
C87 C 0.38077 0.50233 0.71868 0.0
C88 C 0.33936 0.49576 0.84577 0.0
C89 C 0.42915 0.48137 0.73447 0.0
O90 O 0.57991 0.49944 0.7039 0.0
O91 O 0.51838 0.46856 0.75042 0.0
C92 C 0.54786 0.46795 0.71701 0.0
O93 O 0.52738 0.52479 0.59974 0.0
O94 O 0.6509 0.58782 0.86811 0.0
O95 O 0.65615 0.57284 0.72339 0.0
O96 O 0.58716 0.57661 0.63673 0.0
C97 C 0.55734 0.55688 0.57817 0.0
O98 O 0.52391 0.57841 0.74188 0.0
O99 O 0.58875 0.60701 0.78366 0.0
O100 O 0.56988 0.53031 0.89815 0.0
O101 O 0.45003 0.50451 0.67126 0.0
O102 O 0.44913 0.47328 0.79374 0.0
O103 O 0.5231 0.54447 0.88406 0.0
C104 C 0.70147 0.57565 0.8402 0.0
C105 C 0.70829 0.55031 0.78619 0.0
C106 C 0.75263 0.58562 0.95336 0.0
C107 C 0.73734 0.54319 0.81482 0.0
C108 C 0.72373 0.59293 0.92444 0.0
C109 C 0.76016 0.5611 0.89817 0.0
C110 C 0.67347 0.58658 0.80666 0.0
C111 C 0.55771 0.60887 0.76292 0.0
H112 H 0.40022 0.46457 0.90978 0.0
H113 H 0.33818 0.51856 0.71005 0.0
H114 H 0.34893 0.47168 -0.02884 0.0
H115 H 0.38901 0.51056 0.64759 0.0
H116 H 0.69168 0.53646 0.72088 0.0
H117 H 0.76991 0.60017 0.01742 0.0
H118 H 0.74211 0.52379 0.77133 0.0
H119 H 0.71935 0.61284 -0.03302 0.0
C120 C 0.15308 0.48519 0.05576 0.0
C121 C 0.15372 0.5198 0.04547 0.0
C122 C 0.1835 0.48063 0.02813 0.0
C123 C 0.21525 0.51129 -0.01129 0.0
C124 C 0.21644 0.54651 -0.01989 0.0
C125 C 0.18582 0.55036 0.00876 0.0
C126 C 0.18127 0.4427 0.03914 0.0
C127 C 0.24961 0.57988 0.93804 0.0
C128 C 0.30901 0.51187 -0.02269 0.0
C129 C 0.30741 0.49941 0.88296 0.0
C130 C 0.27904 0.51534 0.0131 0.0
C131 C 0.24666 0.50628 0.95316 0.0
C132 C 0.24479 0.49356 0.85805 0.0
C133 C 0.27506 0.49019 0.82426 0.0
C134 C 0.28223 0.52912 0.11481 0.0
C135 C 0.21079 0.48357 0.79178 0.0
H136 H 0.12852 0.46137 0.08395 0.0
H137 H 0.18676 0.57724 -3e-05 0.0
H138 H 0.18036 0.42966 -0.0314 0.0
H139 H 0.20706 0.44682 0.07954 0.0
H140 H 0.15572 0.42242 0.07584 0.0
H141 H 0.24701 0.60585 0.94004 0.0
H142 H 0.27671 0.58671 -0.02339 0.0
H143 H 0.25146 0.57228 0.86346 0.0
H144 H 0.33402 0.51951 0.02302 0.0
H145 H 0.27318 0.4799 0.75181 0.0
H146 H 0.25729 0.50816 0.15205 0.0
H147 H 0.28212 0.5564 0.118 0.0
H148 H 0.30861 0.53365 0.15317 0.0
H149 H 0.18465 0.4602 0.81998 0.0
H150 H 0.21379 0.47439 0.71966 0.0
H151 H 0.20677 0.50855 0.78663 0.0
C152 C 0.67363 0.17466 0.40313 0.0
C153 C 0.66969 0.13842 0.40997 0.0
C154 C 0.70805 0.20608 0.37857 0.0
C155 C 0.73931 0.20119 0.35965 0.0
C156 C 0.73595 0.16501 0.36956 0.0
C157 C 0.70127 0.13414 0.39491 0.0
C158 C 0.71051 0.24421 0.36958 0.0
C159 C 0.76848 0.15849 0.3495 0.0
C160 C 0.81163 0.26759 0.19227 0.0
C161 C 0.84235 0.29276 0.25472 0.0
C162 C 0.77795 0.23791 0.22558 0.0
C163 C 0.77468 0.23324 0.32396 0.0
C164 C 0.8053 0.25884 0.38756 0.0
C165 C 0.83873 0.28827 0.35223 0.0
C166 C 0.74594 0.21132 0.15531 0.0
C167 C 0.80295 0.25477 0.49288 0.0
H168 H 0.6495 0.17838 0.41502 0.0
H169 H 0.69854 0.10627 0.39924 0.0
H170 H 0.73584 0.26684 0.41149 0.0
H171 H 0.71395 0.25192 0.29475 0.0
H172 H 0.68475 0.24404 0.39359 0.0
H173 H 0.76235 0.12954 0.36725 0.0
H174 H 0.77416 0.16198 0.27348 0.0
H175 H 0.79486 0.17998 0.39023 0.0
H176 H 0.81387 0.27117 0.11695 0.0
H177 H 0.86242 0.30724 0.40101 0.0
H178 H 0.71969 0.21205 0.16964 0.0
H179 H 0.73947 0.18155 0.16286 0.0
H180 H 0.75291 0.21883 0.08115 0.0
H181 H 0.77764 0.25546 0.51675 0.0
H182 H 0.82873 0.27766 0.53308 0.0
H183 H 0.79942 0.22675 0.51045 0.0
C184 C 0.58128 0.81734 0.70177 0.0
C185 C 0.58034 0.82235 0.60437 0.0
C186 C 0.57702 0.7833 0.73614 0.0
C187 C 0.57171 0.75348 0.67168 0.0
C188 C 0.57014 0.75813 0.57335 0.0
C189 C 0.57438 0.79237 0.54102 0.0
C190 C 0.57885 0.77948 0.84143 0.0
C191 C 0.5644 0.72703 0.50209 0.0
C192 C 0.59764 0.67928 0.74303 0.0
C193 C 0.56167 0.64705 0.75243 0.0
C194 C 0.6014 0.71441 0.71979 0.0
C195 C 0.56844 0.7176 0.70635 0.0
C196 C 0.53221 0.68567 0.7201 0.0
C197 C 0.52925 0.6508 0.74255 0.0
C198 C 0.64056 0.74765 0.70536 0.0
C199 C 0.49639 0.68791 0.70745 0.0
H200 H 0.58629 0.84043 0.75134 0.0
H201 H 0.57295 0.79564 0.4657 0.0
H202 H 0.55286 0.75352 0.86167 0.0
H203 H 0.60354 0.77611 0.862 0.0
H204 H 0.58164 0.80461 0.88221 0.0
H205 H 0.56342 0.73491 0.42814 0.0
H206 H 0.58788 0.72078 0.51168 0.0
H207 H 0.53744 0.70034 0.51336 0.0
H208 H 0.62289 0.67676 0.74986 0.0
H209 H 0.50132 0.62618 0.75012 0.0
H210 H 0.64548 0.77334 0.74749 0.0
H211 H 0.64266 0.75464 0.62999 0.0
H212 H 0.6635 0.74148 0.72541 0.0
H213 H 0.49929 0.71273 0.74981 0.0
H214 H 0.47082 0.66165 0.72849 0.0
H215 H 0.49177 0.6922 0.63231 0.0
C216 C 0.79954 0.54974 0.01965 0.0
C217 C 0.79263 0.55542 0.92554 0.0
C218 C 0.83069 0.54532 0.04643 0.0
C219 C 0.85575 0.54693 -0.02233 0.0
C220 C 0.84884 0.55255 0.88254 0.0
C221 C 0.81735 0.55659 0.85764 0.0
C222 C 0.83682 0.53898 0.14835 0.0
C223 C 0.875 0.55475 0.80713 0.0
C224 C 0.95678 0.57199 0.05452 0.0
C225 C 0.9543 0.53624 0.04723 0.0
C226 C 0.92484 0.5758 0.03339 0.0
C227 C 0.88941 0.54306 0.00498 0.0
C228 C 0.88648 0.50679 -0.00029 0.0
C229 C 0.91893 0.50383 0.02049 0.0
C230 C 0.92924 0.61503 0.03937 0.0
C231 C 0.84918 0.47112 -0.02948 0.0
H232 H 0.78036 0.54844 0.07232 0.0
H233 H 0.81253 0.56151 0.78506 0.0
H234 H 0.83707 0.51188 0.15329 0.0
H235 H 0.86494 0.56229 0.17763 0.0
H236 H 0.81441 0.53782 0.1929 0.0
H237 H 0.86558 0.55904 0.73637 0.0
H238 H 0.90431 0.57866 0.82561 0.0
H239 H 0.87638 0.52815 0.80297 0.0
H240 H 0.98393 0.59725 0.07476 0.0
H241 H 0.91656 0.47603 0.01502 0.0
H242 H 0.90855 0.61549 0.08737 0.0
H243 H 0.92289 0.6222 -0.03134 0.0
H244 H 0.95841 0.63748 0.06521 0.0
H245 H 0.82661 0.46853 0.01647 0.0
H246 H 0.85117 0.44488 -0.0257 0.0
H247 H 0.8401 0.47291 0.89707 0.0
C248 C 0.44921 0.90491 0.33319 0.0
C249 C 0.45202 0.93887 0.36934 0.0
C250 C 0.41374 0.87289 0.30471 0.0
C251 C 0.38009 0.87474 0.31218 0.0
C252 C 0.3826 0.90868 0.3499 0.0
C253 C 0.41847 0.94028 0.37813 0.0
C254 C 0.41234 0.83724 0.26524 0.0
C255 C 0.34742 0.91183 0.35901 0.0
C256 C 0.29313 0.80619 0.15272 0.0
C257 C 0.27105 0.77796 0.21451 0.0
C258 C 0.32854 0.83782 0.18363 0.0
C259 C 0.34237 0.8414 0.2787 0.0
C260 C 0.32029 0.81298 0.34139 0.0
C261 C 0.28495 0.78167 0.30862 0.0
C262 C 0.35109 0.86753 0.11455 0.0
C263 C 0.33409 0.81556 0.44307 0.0
H264 H 0.47483 0.90334 0.32616 0.0
H265 H 0.42021 0.96632 0.40569 0.0
H266 H 0.39332 0.81248 0.30614 0.0
H267 H 0.40031 0.83086 0.19114 0.0
H268 H 0.44093 0.83997 0.26676 0.0
H269 H 0.35406 0.93985 0.39181 0.0
H270 H 0.33301 0.90795 0.28824 0.0
H271 H 0.32695 0.8889 0.40236 0.0
H272 H 0.28243 0.80389 0.0803 0.0
H273 H 0.26833 0.7598 0.3566 0.0
H274 H 0.37938 0.87009 0.10845 0.0
H275 H 0.35614 0.89582 0.14067 0.0
H276 H 0.33637 0.86062 0.04311 0.0
H277 H 0.36167 0.81616 0.4463 0.0
H278 H 0.31346 0.79124 0.48297 0.0
H279 H 0.3391 0.84251 0.47874 0.0
C280 C 0.50951 0.3966 0.68862 0.0
C281 C 0.54484 0.43062 0.69181 0.0
C282 C 0.50611 0.36144 0.66043 0.0
C283 C 0.53883 0.36012 0.63536 0.0
C284 C 0.57468 0.39421 0.64031 0.0
C285 C 0.57723 0.42899 0.6681 0.0
C286 C 0.46733 0.32579 0.65577 0.0
C287 C 0.61033 0.39407 0.61494 0.0
C288 C 0.53537 0.26443 0.6324 0.0
C289 C 0.52808 0.25309 0.53587 0.0
C290 C 0.53904 0.29917 0.66579 0.0
C291 C 0.53539 0.32327 0.60121 0.0
C292 C 0.52837 0.31216 0.50365 0.0
C293 C 0.52483 0.2773 0.47225 0.0
C294 C 0.5465 0.30992 0.77033 0.0
C295 C 0.52448 0.33707 0.43231 0.0
H296 H 0.48428 0.39745 0.70649 0.0
H297 H 0.60473 0.45499 0.67077 0.0
H298 H 0.45935 0.31345 0.58206 0.0
H299 H 0.46803 0.30397 0.69977 0.0
H300 H 0.44488 0.33139 0.68024 0.0
H301 H 0.63624 0.42274 0.62598 0.0
H302 H 0.61421 0.37378 0.65806 0.0
H303 H 0.60758 0.38423 0.53979 0.0
H304 H 0.53746 0.24575 0.68228 0.0
H305 H 0.51977 0.26911 0.39743 0.0
H306 H 0.52294 0.31302 0.79763 0.0
H307 H 0.57305 0.33792 0.78325 0.0
H308 H 0.54923 0.28839 0.81115 0.0
H309 H 0.50073 0.34179 0.44947 0.0
H310 H 0.51903 0.32436 0.35901 0.0
H311 H 0.55084 0.36545 0.43534 0.0
C312 C 0.09134 0.50004 0.78683 0.0
C313 C 0.07612 0.52347 0.80838 0.0
C314 C 0.10432 0.49954 0.69766 0.0
C315 C 0.10103 0.52237 0.62943 0.0
C316 C 0.08986 0.54929 0.65458 0.0
C317 C 0.07746 0.54943 0.74445 0.0
C318 C 0.11859 0.47252 0.67514 0.0
C319 C 0.08728 0.57537 0.58434 0.0
C320 C 0.11948 0.54239 0.38242 0.0
C321 C 0.08146 0.52257 0.34645 0.0
C322 C 0.12875 0.53682 0.47388 0.0
C323 C 0.09901 0.512 0.5291 0.0
C324 C 0.06226 0.48681 0.48671 0.0
C325 C 0.05381 0.49266 0.39512 0.0
C326 C 0.16897 0.56158 0.51525 0.0
C327 C 1.03013 0.45829 0.54249 0.0
H328 H 0.09226 0.48133 0.83859 0.0
H329 H 0.06698 0.56848 0.76284 0.0
H330 H 0.0942 0.4441 0.65163 0.0
H331 H 0.13887 0.48274 0.61821 0.0
H332 H 0.13265 0.46865 0.73894 0.0
H333 H 0.08064 0.59622 0.61801 0.0
H334 H 0.11453 0.59154 0.54979 0.0
H335 H 0.06458 0.55822 0.52858 0.0
H336 H 0.1415 0.56404 0.34222 0.0
H337 H 1.02484 0.47579 0.36492 0.0
H338 H 0.17509 0.54852 0.57609 0.0
H339 H 0.1732 0.58969 0.54009 0.0
H340 H 0.18975 0.56673 0.46086 0.0
H341 H 1.03969 0.4422 0.58634 0.0
H342 H 1.00519 0.43758 0.49583 0.0
H343 H 1.0207 0.4736 0.59054 0.0
C344 C 0.56584 0.06578 0.08833 0.0
C345 C 0.59019 0.0637 0.15643 0.0
C346 C 0.57822 0.0776 -0.00099 0.0
C347 C 0.61583 0.0873 -0.0215 0.0
C348 C 0.642 0.09019 0.05071 0.0
C349 C 0.62871 0.07796 0.13956 0.0
C350 C 0.54964 0.0757 0.92446 0.0
C351 C 0.6831 0.1038 0.03246 0.0
C352 C 0.5943 0.03685 0.74858 0.0
C353 C 0.59329 0.06453 0.69444 0.0
C354 C 0.6094 0.04607 0.84147 0.0
C355 C 0.623 0.08364 0.87962 0.0
C356 C 0.62881 0.113 0.81994 0.0
C357 C 0.61322 0.10298 0.72729 0.0
C358 C 0.60459 1.01415 0.90231 0.0
C359 C 0.6462 0.1539 0.8568 0.0
H360 H 0.5365 0.05617 0.103 0.0
H361 H 0.64818 0.0785 0.1947 0.0
H362 H 0.5617 0.10273 0.88773 0.0
H363 H 0.54252 0.05223 0.87101 0.0
H364 H 0.52275 0.07051 0.95475 0.0
H365 H 0.69994 0.10527 0.09756 0.0
H366 H 0.68496 0.08454 -0.02137 0.0
H367 H 0.69633 0.13255 0.0038 0.0
H368 H 0.58074 1.00744 0.7212 0.0
H369 H 0.61459 0.12495 0.68317 0.0
H370 H 0.57972 1.0056 0.94588 0.0
H371 H 0.63005 1.02353 0.95086 0.0
H372 H 0.59965 0.98863 0.8591 0.0
H373 H 0.6232 0.15974 0.87446 0.0
H374 H 0.66274 0.17365 0.80194 0.0
H375 H 0.6651 0.16009 0.92121 0.0
C376 C 0.5296 0.54938 0.41605 0.0
C377 C 0.55781 0.57186 0.48589 0.0
C378 C 0.53296 0.56093 0.32394 0.0
C379 C 0.56552 0.59572 0.30255 0.0
C380 C 0.59093 0.62103 0.37531 0.0
C381 C 0.58692 0.60862 0.46693 0.0
C382 C 0.50391 0.53375 0.2484 0.0
C383 C 0.62423 0.65956 0.35639 0.0
C384 C 0.58844 0.56295 0.08642 0.0
C385 C 0.56338 0.56669 0.02389 0.0
C386 C 0.59589 0.57949 0.17776 0.0
C387 C 0.57717 0.59937 0.2054 0.0
C388 C 0.55817 0.60941 0.13738 0.0
C389 C 0.55084 0.59229 0.0467 0.0
C390 C 0.61878 0.5706 0.24798 0.0
C391 C 0.541 0.63358 0.16325 0.0
H392 H 0.50618 0.52168 0.43178 0.0
H393 H 0.6077 0.62709 0.52243 0.0
H394 H 0.49353 0.54894 0.20356 0.0
H395 H 0.51718 0.52172 0.2023 0.0
H396 H 0.4789 0.50964 0.27875 0.0
H397 H 0.6278 0.68109 0.41211 0.0
H398 H 0.65073 0.65804 0.35935 0.0
H399 H 0.62092 0.66943 0.28645 0.0
H400 H 0.59976 0.54475 0.06672 0.0
H401 H 0.53347 0.5973 -0.00414 0.0
H402 H 0.59924 0.54834 0.29436 0.0
H403 H 0.63837 0.59636 0.29335 0.0
H404 H 0.63581 0.55996 0.21247 0.0
H405 H 0.51112 0.61483 0.18174 0.0
H406 H 0.54059 0.65009 0.10257 0.0
H407 H 0.55691 0.65361 0.22484 0.0
loop_
_geom_bond_atom_site_label_1
_geom_bond_atom_site_label_2
_geom_bond_distance
_geom_bond_site_symmetry_2
_ccdc_geom_bond_type
Eu0 C9 2.828 . S
Eu0 O11 2.392 1_655 S
Eu0 O13 2.418 1_554 S
Eu0 O18 2.373 . S
Eu0 O21 2.488 . S
Eu0 O22 2.471 . S
Eu0 O23 2.349 1_655 S
Eu1 O10 2.373 . S
Eu1 O14 2.488 . S
Eu1 O15 2.471 . S
Eu1 O16 2.349 . S
Eu1 O19 2.392 1_455 S
Eu1 O20 2.418 . S
Eu1 C30 2.828 . S
C2 O20 1.244 . S
C2 O23 1.265 . S
C3 C4 1.379 . S
C3 C7 1.373 . S
C3 C9 1.505 . S
C4 C3 1.379 . S
C4 C6 1.369 . S
C4 H32 0.930 . S
C5 C7 1.383 . S
C5 C8 1.382 . S
C5 H33 0.930 . S
C6 C4 1.369 . S
C6 C8 1.392 . S
C6 H34 0.930 . S
C7 C3 1.373 . S
C7 C5 1.383 . S
C7 H35 0.931 . S
C8 C5 1.382 . S
C8 C6 1.392 . S
C9 Eu0 2.828 . S
C9 C3 1.505 . S
C9 O21 1.249 . S
C9 O22 1.244 . S
O10 Eu1 2.373 . S
O10 C12 1.258 . S
O11 Eu0 2.392 1_455 S
O11 C12 1.242 . S
C12 O10 1.258 . S
C12 O11 1.242 . S
O13 Eu0 2.418 1_556 S
O13 C17 1.244 1_655 S
O14 Eu1 2.488 . S
O14 C30 1.249 . S
O15 Eu1 2.471 . S
O15 C30 1.244 . S
O16 Eu1 2.349 . S
O16 C17 1.265 1_554 S
C17 O13 1.244 1_455 S
C17 O16 1.265 1_556 S
O18 Eu0 2.373 . S
O18 C31 1.258 . S
O19 Eu1 2.392 1_655 S
O19 C31 1.242 . S
O20 Eu1 2.418 . S
O20 C2 1.244 . S
O21 Eu0 2.488 . S
O21 C9 1.249 . S
O22 Eu0 2.471 . S
O22 C9 1.244 . S
O23 Eu0 2.349 1_455 S
O23 C2 1.265 . S
C24 C25 1.379 . S
C24 C28 1.373 . S
C24 C30 1.505 . S
C25 C24 1.379 . S
C25 C27 1.369 . S
C25 H36 0.930 . S
C26 C28 1.383 . S
C26 C29 1.382 . S
C26 H37 0.930 . S
C27 C25 1.369 . S
C27 C29 1.392 . S
C27 H38 0.930 . S
C28 C24 1.373 . S
C28 C26 1.383 . S
C28 H39 0.931 . S
C29 C26 1.382 . S
C29 C27 1.392 . S
C30 Eu1 2.828 . S
C30 O14 1.249 . S
C30 O15 1.244 . S
C30 C24 1.505 . S
C31 O18 1.258 . S
C31 O19 1.242 . S
H32 C4 0.930 . S
H33 C5 0.930 . S
H34 C6 0.930 . S
H35 C7 0.931 . S
H36 C25 0.930 . S
H37 C26 0.930 . S
H38 C27 0.930 . S
H39 C28 0.931 . S
Eu40 C49 2.828 . S
Eu40 O51 2.392 1_565 S
Eu40 O53 2.418 . S
Eu40 O58 2.373 . S
Eu40 O61 2.488 . S
Eu40 O62 2.471 . S
Eu40 O63 2.349 1_565 S
Eu41 O50 2.373 . S
Eu41 O54 2.488 . S
Eu41 O55 2.471 . S
Eu41 O56 2.349 . S
Eu41 O59 2.392 1_545 S
Eu41 O60 2.418 . S
Eu41 C70 2.828 . S
C42 O60 1.244 . S
C42 O63 1.265 . S
C43 C44 1.379 . S
C43 C47 1.373 . S
C43 C49 1.505 . S
C44 C43 1.379 . S
C44 C46 1.369 . S
C44 H72 0.930 . S
C45 C47 1.383 . S
C45 C48 1.382 . S
C45 H73 0.930 . S
C46 C44 1.369 . S
C46 C48 1.392 . S
C46 H74 0.930 . S
C47 C43 1.373 . S
C47 C45 1.383 . S
C47 H75 0.931 . S
C48 C45 1.382 . S
C48 C46 1.392 . S
C49 Eu40 2.828 . S
C49 C43 1.505 . S
C49 O61 1.249 . S
C49 O62 1.244 . S
O50 Eu41 2.373 . S
O50 C52 1.258 . S
O51 Eu40 2.392 1_545 S
O51 C52 1.242 . S
C52 O50 1.258 . S
C52 O51 1.242 . S
O53 Eu40 2.418 . S
O53 C57 1.244 1_565 S
O54 Eu41 2.488 . S
O54 C70 1.249 . S
O55 Eu41 2.471 . S
O55 C70 1.244 . S
O56 Eu41 2.349 . S
O56 C57 1.265 . S
C57 O53 1.244 1_545 S
C57 O56 1.265 . S
O58 Eu40 2.373 . S
O58 C71 1.258 . S
O59 Eu41 2.392 1_565 S
O59 C71 1.242 . S
O60 Eu41 2.418 . S
O60 C42 1.244 . S
O61 Eu40 2.488 . S
O61 C49 1.249 . S
O62 Eu40 2.471 . S
O62 C49 1.244 . S
O63 Eu40 2.349 1_545 S
O63 C42 1.265 . S
C64 C65 1.379 . S
C64 C68 1.373 . S
C64 C70 1.505 . S
C65 C64 1.379 . S
C65 C67 1.369 . S
C65 H76 0.930 . S
C66 C68 1.383 . S
C66 C69 1.382 . S
C66 H77 0.930 . S
C67 C65 1.369 . S
C67 C69 1.392 . S
C67 H78 0.930 . S
C68 C64 1.373 . S
C68 C66 1.383 . S
C68 H79 0.931 . S
C69 C66 1.382 . S
C69 C67 1.392 . S
C70 Eu41 2.828 . S
C70 O54 1.249 . S
C70 O55 1.244 . S
C70 C64 1.505 . S
C71 O58 1.258 . S
C71 O59 1.242 . S
H72 C44 0.930 . S
H73 C45 0.930 . S
H74 C46 0.930 . S
H75 C47 0.931 . S
H76 C65 0.930 . S
H77 C66 0.930 . S
H78 C67 0.930 . S
H79 C68 0.931 . S
Eu80 C89 2.828 . S
Eu80 O91 2.392 . S
Eu80 O93 2.418 . S
Eu80 O98 2.373 . S
Eu80 O101 2.488 . S
Eu80 O102 2.471 . S
Eu80 O103 2.349 . S
Eu81 O90 2.373 . S
Eu81 O94 2.488 . S
Eu81 O95 2.471 . S
Eu81 O96 2.349 . S
Eu81 O99 2.392 . S
Eu81 O100 2.418 1_556 S
Eu81 C110 2.828 . S
C82 O100 1.244 . S
C82 O103 1.265 1_554 S
C83 C84 1.379 . S
C83 C87 1.373 . S
C83 C89 1.505 . S
C84 C83 1.379 . S
C84 C86 1.369 . S
C84 H112 0.930 . S
C85 C87 1.383 . S
C85 C88 1.382 . S
C85 H113 0.930 . S
C86 C84 1.369 . S
C86 C88 1.392 . S
C86 H114 0.930 1_556 S
C87 C83 1.373 . S
C87 C85 1.383 . S
C87 H115 0.931 . S
C88 C85 1.382 . S
C88 C86 1.392 . S
C89 Eu80 2.828 . S
C89 C83 1.505 . S
C89 O101 1.249 . S
C89 O102 1.244 . S
O90 Eu81 2.373 . S
O90 C92 1.258 . S
O91 Eu80 2.392 . S
O91 C92 1.242 . S
C92 O90 1.258 . S
C92 O91 1.242 . S
O93 Eu80 2.418 . S
O93 C97 1.244 . S
O94 Eu81 2.488 . S
O94 C110 1.249 . S
O95 Eu81 2.471 . S
O95 C110 1.244 . S
O96 Eu81 2.349 . S
O96 C97 1.265 . S
C97 O93 1.244 . S
C97 O96 1.265 . S
O98 Eu80 2.373 . S
O98 C111 1.258 . S
O99 Eu81 2.392 . S
O99 C111 1.242 . S
O100 Eu81 2.418 1_554 S
O100 C82 1.244 . S
O101 Eu80 2.488 . S
O101 C89 1.249 . S
O102 Eu80 2.471 . S
O102 C89 1.244 . S
O103 Eu80 2.349 . S
O103 C82 1.265 1_556 S
C104 C105 1.379 . S
C104 C108 1.373 . S
C104 C110 1.505 . S
C105 C104 1.379 . S
C105 C107 1.369 . S
C105 H116 0.930 . S
C106 C108 1.383 . S
C106 C109 1.382 . S
C106 H117 0.930 . S
C107 C105 1.369 . S
C107 C109 1.392 . S
C107 H118 0.930 . S
C108 C104 1.373 . S
C108 C106 1.383 . S
C108 H119 0.931 . S
C109 C106 1.382 . S
C109 C107 1.392 . S
C110 Eu81 2.828 . S
C110 O94 1.249 . S
C110 O95 1.244 . S
C110 C104 1.505 . S
C111 O98 1.258 . S
C111 O99 1.242 . S
H112 C84 0.930 . S
H113 C85 0.930 . S
H114 C86 0.930 1_554 S
H115 C87 0.931 . S
H116 C105 0.930 . S
H117 C106 0.930 . S
H118 C107 0.930 . S
H119 C108 0.931 . S
C120 C121 1.391 . S
C120 C122 1.394 . S
C120 H136 0.931 . S
C121 C120 1.391 . S
C121 C125 1.376 . S
C122 C120 1.394 . S
C122 C123 1.369 . S
C122 C126 1.531 . S
C123 C122 1.369 . S
C123 C124 1.410 1_554 S
C123 C131 1.502 1_554 S
C124 C123 1.410 1_556 S
C124 C125 1.392 1_556 S
C124 C127 1.511 . S
C125 C121 1.376 . S
C125 C124 1.392 1_554 S
C125 H137 0.929 1_554 S
C126 C122 1.531 . S
C126 H138 0.960 . S
C126 H139 0.962 . S
C126 H140 0.960 . S
C127 C124 1.511 . S
C127 H141 0.961 . S
C127 H142 0.961 . S
C127 H143 0.961 . S
C128 C129 1.370 . S
C128 C130 1.363 . S
C128 H144 0.931 . S
C129 C128 1.370 . S
C129 C133 1.408 . S
C130 C128 1.363 . S
C130 C131 1.371 . S
C130 C134 1.524 1_556 S
C131 C123 1.502 1_556 S
C131 C130 1.371 . S
C131 C132 1.403 . S
C132 C131 1.403 . S
C132 C133 1.404 . S
C132 C135 1.539 . S
C133 C129 1.408 . S
C133 C132 1.404 . S
C133 H145 0.930 . S
C134 C130 1.524 1_554 S
C134 H146 0.956 . S
C134 H147 0.961 . S
C134 H148 0.961 . S
C135 C132 1.539 . S
C135 H149 0.958 1_556 S
C135 H150 0.961 . S
C135 H151 0.960 . S
H136 C120 0.931 . S
H137 C125 0.929 1_556 S
H138 C126 0.960 . S
H139 C126 0.962 . S
H140 C126 0.960 . S
H141 C127 0.961 . S
H142 C127 0.961 . S
H143 C127 0.961 . S
H144 C128 0.931 . S
H145 C133 0.930 . S
H146 C134 0.956 . S
H147 C134 0.961 . S
H148 C134 0.961 . S
H149 C135 0.958 1_554 S
H150 C135 0.961 . S
H151 C135 0.960 . S
C152 C153 1.391 . S
C152 C154 1.394 . S
C152 H168 0.931 . S
C153 C152 1.391 . S
C153 C157 1.376 . S
C154 C152 1.394 . S
C154 C155 1.369 . S
C154 C158 1.531 . S
C155 C154 1.369 . S
C155 C156 1.410 . S
C155 C163 1.503 . S
C156 C155 1.410 . S
C156 C157 1.392 . S
C156 C159 1.511 . S
C157 C153 1.376 . S
C157 C156 1.392 . S
C157 H169 0.929 . S
C158 C154 1.531 . S
C158 H170 0.960 . S
C158 H171 0.962 . S
C158 H172 0.960 . S
C159 C156 1.511 . S
C159 H173 0.961 . S
C159 H174 0.961 . S
C159 H175 0.961 . S
C160 C161 1.370 . S
C160 C162 1.363 . S
C160 H176 0.931 . S
C161 C160 1.370 . S
C161 C165 1.408 . S
C162 C160 1.363 . S
C162 C163 1.370 . S
C162 C166 1.524 . S
C163 C155 1.503 . S
C163 C162 1.370 . S
C163 C164 1.403 . S
C164 C163 1.403 . S
C164 C165 1.404 . S
C164 C167 1.539 . S
C165 C161 1.408 . S
C165 C164 1.404 . S
C165 H177 0.930 . S
C166 C162 1.524 . S
C166 H178 0.956 . S
C166 H179 0.961 . S
C166 H180 0.961 . S
C167 C164 1.539 . S
C167 H181 0.958 . S
C167 H182 0.961 . S
C167 H183 0.960 . S
H168 C152 0.931 . S
H169 C157 0.929 . S
H170 C158 0.960 . S
H171 C158 0.962 . S
H172 C158 0.960 . S
H173 C159 0.961 . S
H174 C159 0.961 . S
H175 C159 0.961 . S
H176 C160 0.931 . S
H177 C165 0.930 . S
H178 C166 0.956 . S
H179 C166 0.961 . S
H180 C166 0.961 . S
H181 C167 0.958 . S
H182 C167 0.961 . S
H183 C167 0.960 . S
C184 C185 1.391 . S
C184 C186 1.394 . S
C184 H200 0.931 . S
C185 C184 1.391 . S
C185 C189 1.376 . S
C186 C184 1.394 . S
C186 C187 1.369 . S
C186 C190 1.531 . S
C187 C186 1.369 . S
C187 C188 1.410 . S
C187 C195 1.503 . S
C188 C187 1.410 . S
C188 C189 1.392 . S
C188 C191 1.511 . S
C189 C185 1.376 . S
C189 C188 1.392 . S
C189 H201 0.929 . S
C190 C186 1.531 . S
C190 H202 0.960 . S
C190 H203 0.962 . S
C190 H204 0.960 . S
C191 C188 1.511 . S
C191 H205 0.961 . S
C191 H206 0.961 . S
C191 H207 0.961 . S
C192 C193 1.370 . S
C192 C194 1.363 . S
C192 H208 0.931 . S
C193 C192 1.370 . S
C193 C197 1.408 . S
C194 C192 1.363 . S
C194 C195 1.370 . S
C194 C198 1.524 . S
C195 C187 1.503 . S
C195 C194 1.370 . S
C195 C196 1.403 . S
C196 C195 1.403 . S
C196 C197 1.404 . S
C196 C199 1.539 . S
C197 C193 1.408 . S
C197 C196 1.404 . S
C197 H209 0.930 . S
C198 C194 1.524 . S
C198 H210 0.956 . S
C198 H211 0.961 . S
C198 H212 0.961 . S
C199 C196 1.539 . S
C199 H213 0.958 . S
C199 H214 0.961 . S
C199 H215 0.960 . S
H200 C184 0.931 . S
H201 C189 0.929 . S
H202 C190 0.960 . S
H203 C190 0.962 . S
H204 C190 0.960 . S
H205 C191 0.961 . S
H206 C191 0.961 . S
H207 C191 0.961 . S
H208 C192 0.931 . S
H209 C197 0.930 . S
H210 C198 0.956 . S
H211 C198 0.961 . S
H212 C198 0.961 . S
H213 C199 0.958 . S
H214 C199 0.961 . S
H215 C199 0.960 . S
C216 C217 1.391 . S
C216 C218 1.394 . S
C216 H232 0.931 . S
C217 C216 1.391 . S
C217 C221 1.376 . S
C218 C216 1.394 . S
C218 C219 1.369 . S
C218 C222 1.531 1_556 S
C219 C218 1.369 . S
C219 C220 1.410 . S
C219 C227 1.500 1_556 S
C220 C219 1.410 . S
C220 C221 1.392 . S
C220 C223 1.511 . S
C221 C217 1.376 . S
C221 C220 1.392 . S
C221 H233 0.929 . S
C222 C218 1.531 1_554 S
C222 H234 0.960 . S
C222 H235 0.962 . S
C222 H236 0.960 . S
C223 C220 1.511 . S
C223 H237 0.961 . S
C223 H238 0.961 . S
C223 H239 0.961 . S
C224 C225 1.370 . S
C224 C226 1.363 . S
C224 H240 0.931 . S
C225 C224 1.370 . S
C225 C229 1.408 . S
C226 C224 1.363 . S
C226 C227 1.372 . S
C226 C230 1.524 . S
C227 C219 1.500 1_554 S
C227 C226 1.372 . S
C227 C228 1.404 . S
C228 C227 1.404 . S
C228 C229 1.404 . S
C228 C231 1.539 1_554 S
C229 C225 1.408 . S
C229 C228 1.404 . S
C229 H241 0.930 . S
C230 C226 1.524 . S
C230 H242 0.956 . S
C230 H243 0.961 1_554 S
C230 H244 0.961 . S
C231 C228 1.539 1_556 S
C231 H245 0.958 1_556 S
C231 H246 0.961 . S
C231 H247 0.960 . S
H232 C216 0.931 . S
H233 C221 0.929 . S
H234 C222 0.960 . S
H235 C222 0.962 . S
H236 C222 0.960 . S
H237 C223 0.961 . S
H238 C223 0.961 . S
H239 C223 0.961 . S
H240 C224 0.931 . S
H241 C229 0.930 . S
H242 C230 0.956 . S
H243 C230 0.961 1_556 S
H244 C230 0.961 . S
H245 C231 0.958 1_554 S
H246 C231 0.961 . S
H247 C231 0.960 . S
C248 C249 1.391 . S
C248 C250 1.394 . S
C248 H264 0.931 . S
C249 C248 1.391 . S
C249 C253 1.376 . S
C250 C248 1.394 . S
C250 C251 1.369 . S
C250 C254 1.531 . S
C251 C250 1.369 . S
C251 C252 1.410 . S
C251 C259 1.503 . S
C252 C251 1.410 . S
C252 C253 1.392 . S
C252 C255 1.511 . S
C253 C249 1.376 . S
C253 C252 1.392 . S
C253 H265 0.929 . S
C254 C250 1.531 . S
C254 H266 0.960 . S
C254 H267 0.962 . S
C254 H268 0.960 . S
C255 C252 1.511 . S
C255 H269 0.961 . S
C255 H270 0.961 . S
C255 H271 0.961 . S
C256 C257 1.370 . S
C256 C258 1.363 . S
C256 H272 0.931 . S
C257 C256 1.370 . S
C257 C261 1.408 . S
C258 C256 1.363 . S
C258 C259 1.370 . S
C258 C262 1.524 . S
C259 C251 1.503 . S
C259 C258 1.370 . S
C259 C260 1.403 . S
C260 C259 1.403 . S
C260 C261 1.404 . S
C260 C263 1.539 . S
C261 C257 1.408 . S
C261 C260 1.404 . S
C261 H273 0.930 . S
C262 C258 1.524 . S
C262 H274 0.956 . S
C262 H275 0.961 . S
C262 H276 0.961 . S
C263 C260 1.539 . S
C263 H277 0.958 . S
C263 H278 0.961 . S
C263 H279 0.960 . S
H264 C248 0.931 . S
H265 C253 0.929 . S
H266 C254 0.960 . S
H267 C254 0.962 . S
H268 C254 0.960 . S
H269 C255 0.961 . S
H270 C255 0.961 . S
H271 C255 0.961 . S
H272 C256 0.931 . S
H273 C261 0.930 . S
H274 C262 0.956 . S
H275 C262 0.961 . S
H276 C262 0.961 . S
H277 C263 0.958 . S
H278 C263 0.961 . S
H279 C263 0.960 . S
C280 C281 1.391 . S
C280 C282 1.394 . S
C280 H296 0.931 . S
C281 C280 1.391 . S
C281 C285 1.376 . S
C282 C280 1.394 . S
C282 C283 1.369 . S
C282 C286 1.531 . S
C283 C282 1.369 . S
C283 C284 1.410 . S
C283 C291 1.503 . S
C284 C283 1.410 . S
C284 C285 1.392 . S
C284 C287 1.511 . S
C285 C281 1.376 . S
C285 C284 1.392 . S
C285 H297 0.929 . S
C286 C282 1.531 . S
C286 H298 0.960 . S
C286 H299 0.962 . S
C286 H300 0.960 . S
C287 C284 1.511 . S
C287 H301 0.961 . S
C287 H302 0.961 . S
C287 H303 0.961 . S
C288 C289 1.370 . S
C288 C290 1.363 . S
C288 H304 0.931 . S
C289 C288 1.370 . S
C289 C293 1.408 . S
C290 C288 1.363 . S
C290 C291 1.370 . S
C290 C294 1.524 . S
C291 C283 1.503 . S
C291 C290 1.370 . S
C291 C292 1.403 . S
C292 C291 1.403 . S
C292 C293 1.404 . S
C292 C295 1.539 . S
C293 C289 1.408 . S
C293 C292 1.404 . S
C293 H305 0.930 . S
C294 C290 1.524 . S
C294 H306 0.956 . S
C294 H307 0.961 . S
C294 H308 0.961 . S
C295 C292 1.539 . S
C295 H309 0.958 . S
C295 H310 0.961 . S
C295 H311 0.960 . S
H296 C280 0.931 . S
H297 C285 0.929 . S
H298 C286 0.960 . S
H299 C286 0.962 . S
H300 C286 0.960 . S
H301 C287 0.961 . S
H302 C287 0.961 . S
H303 C287 0.961 . S
H304 C288 0.931 . S
H305 C293 0.930 . S
H306 C294 0.956 . S
H307 C294 0.961 . S
H308 C294 0.961 . S
H309 C295 0.958 . S
H310 C295 0.961 . S
H311 C295 0.960 . S
C312 C313 1.391 . S
C312 C314 1.394 . S
C312 H328 0.931 . S
C313 C312 1.391 . S
C313 C317 1.376 . S
C314 C312 1.394 . S
C314 C315 1.369 . S
C314 C318 1.531 . S
C315 C314 1.369 . S
C315 C316 1.410 1_455 S
C315 C323 1.503 . S
C316 C315 1.410 1_655 S
C316 C317 1.392 1_655 S
C316 C319 1.511 . S
C317 C313 1.376 . S
C317 C316 1.392 1_455 S
C317 H329 0.929 1_455 S
C318 C314 1.531 . S
C318 H330 0.960 . S
C318 H331 0.962 . S
C318 H332 0.960 . S
C319 C316 1.511 . S
C319 H333 0.961 . S
C319 H334 0.961 . S
C319 H335 0.961 . S
C320 C321 1.370 . S
C320 C322 1.363 . S
C320 H336 0.931 . S
C321 C320 1.370 . S
C321 C325 1.408 1_455 S
C322 C320 1.363 . S
C322 C323 1.370 . S
C322 C326 1.524 . S
C323 C315 1.503 . S
C323 C322 1.370 . S
C323 C324 1.403 1_455 S
C324 C323 1.403 1_655 S
C324 C325 1.404 . S
C324 C327 1.539 . S
C325 C321 1.408 1_655 S
C325 C324 1.404 . S
C325 H337 0.930 . S
C326 C322 1.524 . S
C326 H338 0.956 . S
C326 H339 0.961 . S
C326 H340 0.961 . S
C327 C324 1.539 . S
C327 H341 0.958 . S
C327 H342 0.961 . S
C327 H343 0.960 . S
H328 C312 0.931 . S
H329 C317 0.929 1_655 S
H330 C318 0.960 . S
H331 C318 0.962 . S
H332 C318 0.960 . S
H333 C319 0.961 . S
H334 C319 0.961 . S
H335 C319 0.961 . S
H336 C320 0.931 . S
H337 C325 0.930 . S
H338 C326 0.956 . S
H339 C326 0.961 . S
H340 C326 0.961 . S
H341 C327 0.958 . S
H342 C327 0.961 . S
H343 C327 0.960 . S
C344 C345 1.391 . S
C344 C346 1.394 . S
C344 H360 0.931 . S
C345 C344 1.391 . S
C345 C349 1.376 . S
C346 C344 1.394 . S
C346 C347 1.369 . S
C346 C350 1.531 . S
C347 C346 1.369 . S
C347 C348 1.410 . S
C347 C355 1.503 1_554 S
C348 C347 1.410 . S
C348 C349 1.392 . S
C348 C351 1.511 1_545 S
C349 C345 1.376 . S
C349 C348 1.392 . S
C349 H361 0.929 1_545 S
C350 C346 1.531 . S
C350 H362 0.960 1_554 S
C350 H363 0.962 . S
C350 H364 0.960 . S
C351 C348 1.511 1_565 S
C351 H365 0.961 . S
C351 H366 0.961 1_554 S
C351 H367 0.961 1_565 S
C352 C353 1.370 1_565 S
C352 C354 1.363 . S
C352 H368 0.931 . S
C353 C352 1.370 1_545 S
C353 C357 1.408 . S
C354 C352 1.363 . S
C354 C355 1.370 1_565 S
C354 C358 1.524 . S
C355 C347 1.503 1_556 S
C355 C354 1.370 1_545 S
C355 C356 1.403 . S
C356 C355 1.403 . S
C356 C357 1.404 . S
C356 C359 1.539 . S
C357 C353 1.408 . S
C357 C356 1.404 . S
C357 H369 0.930 . S
C358 C354 1.524 . S
C358 H370 0.956 . S
C358 H371 0.961 . S
C358 H372 0.961 . S
C359 C356 1.539 . S
C359 H373 0.958 . S
C359 H374 0.961 . S
C359 H375 0.960 1_556 S
H360 C344 0.931 . S
H361 C349 0.929 1_565 S
H362 C350 0.960 1_556 S
H363 C350 0.962 . S
H364 C350 0.960 . S
H365 C351 0.961 . S
H366 C351 0.961 1_556 S
H367 C351 0.961 1_545 S
H368 C352 0.931 . S
H369 C357 0.930 . S
H370 C358 0.956 . S
H371 C358 0.961 . S
H372 C358 0.961 . S
H373 C359 0.958 . S
H374 C359 0.961 . S
H375 C359 0.960 1_554 S
C376 C377 1.391 . S
C376 C378 1.394 . S
C376 H392 0.931 . S
C377 C376 1.391 . S
C377 C381 1.376 . S
C378 C376 1.394 . S
C378 C379 1.369 . S
C378 C382 1.531 . S
C379 C378 1.369 . S
C379 C380 1.410 . S
C379 C387 1.503 . S
C380 C379 1.410 . S
C380 C381 1.392 . S
C380 C383 1.511 . S
C381 C377 1.376 . S
C381 C380 1.392 . S
C381 H393 0.929 . S
C382 C378 1.531 . S
C382 H394 0.960 . S
C382 H395 0.962 . S
C382 H396 0.960 . S
C383 C380 1.511 . S
C383 H397 0.961 . S
C383 H398 0.961 . S
C383 H399 0.961 . S
C384 C385 1.370 . S
C384 C386 1.363 . S
C384 H400 0.931 . S
C385 C384 1.370 . S
C385 C389 1.408 . S
C386 C384 1.363 . S
C386 C387 1.370 . S
C386 C390 1.524 . S
C387 C379 1.503 . S
C387 C386 1.370 . S
C387 C388 1.403 . S
C388 C387 1.403 . S
C388 C389 1.404 . S
C388 C391 1.539 . S
C389 C385 1.408 . S
C389 C388 1.404 . S
C389 H401 0.930 . S
C390 C386 1.524 . S
C390 H402 0.956 . S
C390 H403 0.961 . S
C390 H404 0.961 . S
C391 C388 1.539 . S
C391 H405 0.958 . S
C391 H406 0.961 . S
C391 H407 0.960 . S
H392 C376 0.931 . S
H393 C381 0.929 . S
H394 C382 0.960 . S
H395 C382 0.962 . S
H396 C382 0.960 . S
H397 C383 0.961 . S
H398 C383 0.961 . S
H399 C383 0.961 . S
H400 C384 0.931 . S
H401 C389 0.930 . S
H402 C390 0.956 . S
H403 C390 0.961 . S
H404 C390 0.961 . S
H405 C391 0.958 . S
H406 C391 0.961 . S
H407 C391 0.960 . S
C121 C12 1.972 . S
C129 C88 1.985 . S
C153 C52 2.079 . S
C161 C8 2.077 . S
C185 C48 1.958 . S
C193 C111 1.969 . S
C217 C109 2.038 . S
C225 C31 2.079 . S
C249 C71 1.998 . S
C257 C29 1.927 . S
C281 C92 2.090 . S
C289 C69 2.065 . S
C313 C17 0.468 . S
C321 C2 0.553 . S
C345 C57 0.546 . S
C353 C42 0.550 . S
C377 C97 0.612 . S
C385 C82 0.506 . S
