# Generated by pormake.
# Topology snz, (6)-cn, num edge types: 1
# Building blocks:
#     Node 0, Type 0, BuildingBlock: INOVEN_clean_sbu_0, # of connection points: 6
#     Node 1, Type 0, BuildingBlock: INOVEN_clean_sbu_0, # of connection points: 6
#     Node 2, Type 0, BuildingBlock: INOVEN_clean_sbu_0, # of connection points: 6
#     Node 3, Type 0, BuildingBlock: INOVEN_clean_sbu_0, # of connection points: 6
#     Node 4, Type 0, BuildingBlock: INOVEN_clean_sbu_0, # of connection points: 6
#     Node 5, Type 0, BuildingBlock: INOVEN_clean_sbu_0, # of connection points: 6
#     Node 6, Type 0, BuildingBlock: INOVEN_clean_sbu_0, # of connection points: 6
#     Node 7, Type 0, BuildingBlock: INOVEN_clean_sbu_0, # of connection points: 6
#     Node 8, Type 0, BuildingBlock: INOVEN_clean_sbu_0, # of connection points: 6
#     Edge 9, Type (0, 0), BuildingBlock: EZIPEK_clean_linker_0, # of connection points: 2
#     Edge 10, Type (0, 0), BuildingBlock: EZIPEK_clean_linker_0, # of connection points: 2
#     Edge 11, Type (0, 0), BuildingBlock: EZIPEK_clean_linker_0, # of connection points: 2
#     Edge 12, Type (0, 0), BuildingBlock: EZIPEK_clean_linker_0, # of connection points: 2
#     Edge 13, Type (0, 0), BuildingBlock: EZIPEK_clean_linker_0, # of connection points: 2
#     Edge 14, Type (0, 0), BuildingBlock: EZIPEK_clean_linker_0, # of connection points: 2
#     Edge 15, Type (0, 0), BuildingBlock: EZIPEK_clean_linker_0, # of connection points: 2
#     Edge 16, Type (0, 0), BuildingBlock: EZIPEK_clean_linker_0, # of connection points: 2
#     Edge 17, Type (0, 0), BuildingBlock: EZIPEK_clean_linker_0, # of connection points: 2
#     Edge 18, Type (0, 0), BuildingBlock: EZIPEK_clean_linker_0, # of connection points: 2
#     Edge 19, Type (0, 0), BuildingBlock: EZIPEK_clean_linker_0, # of connection points: 2
#     Edge 20, Type (0, 0), BuildingBlock: EZIPEK_clean_linker_0, # of connection points: 2
#     Edge 21, Type (0, 0), BuildingBlock: EZIPEK_clean_linker_0, # of connection points: 2
#     Edge 22, Type (0, 0), BuildingBlock: EZIPEK_clean_linker_0, # of connection points: 2
#     Edge 23, Type (0, 0), BuildingBlock: EZIPEK_clean_linker_0, # of connection points: 2
#     Edge 24, Type (0, 0), BuildingBlock: EZIPEK_clean_linker_0, # of connection points: 2
#     Edge 25, Type (0, 0), BuildingBlock: EZIPEK_clean_linker_0, # of connection points: 2
#     Edge 26, Type (0, 0), BuildingBlock: EZIPEK_clean_linker_0, # of connection points: 2
#     Edge 27, Type (0, 0), BuildingBlock: EZIPEK_clean_linker_0, # of connection points: 2
#     Edge 28, Type (0, 0), BuildingBlock: EZIPEK_clean_linker_0, # of connection points: 2
#     Edge 29, Type (0, 0), BuildingBlock: EZIPEK_clean_linker_0, # of connection points: 2
#     Edge 30, Type (0, 0), BuildingBlock: EZIPEK_clean_linker_0, # of connection points: 2
#     Edge 31, Type (0, 0), BuildingBlock: EZIPEK_clean_linker_0, # of connection points: 2
#     Edge 32, Type (0, 0), BuildingBlock: EZIPEK_clean_linker_0, # of connection points: 2
#     Edge 33, Type (0, 0), BuildingBlock: EZIPEK_clean_linker_0, # of connection points: 2
#     Edge 34, Type (0, 0), BuildingBlock: EZIPEK_clean_linker_0, # of connection points: 2
#     Edge 35, Type (0, 0), BuildingBlock: EZIPEK_clean_linker_0, # of connection points: 2
# Relax obj value: 0.587
# Max RMSD: 0.280
# Mean RMSD: 0.185
data_MOF--net-snz--node1-INOVEN_clean_sbu_0--edge1-EZIPEK_clean_linker_0
_symmetry_space_group_name_H-M    P1
_symmetry_Int_Tables_number       1
_symmetry_cell_setting            triclinic
loop_
_symmetry_equiv_pos_as_xyz
'x, y, z'
_cell_length_a     54.210102
_cell_length_b     41.645994
_cell_length_c     12.826799
_cell_angle_alpha  96.746665
_cell_angle_beta   98.074299
_cell_angle_gamma 121.63454
loop_
_atom_site_label
_atom_site_type_symbol
_atom_site_fract_x
_atom_site_fract_y
_atom_site_fract_z
_atom_type_partial_charge
Gd0 Gd 0.13646 0.49257 0.20295 0.0
Gd1 Gd 0.10744 0.50254 0.20148 0.0
C2 C 0.07533 0.41416 0.12386 0.0
C3 C 0.17611 0.47401 0.21062 0.0
C4 C 0.18905 0.45698 0.27963 0.0
C5 C 0.22019 0.47586 0.31577 0.0
C6 C 0.17084 0.4199 0.30013 0.0
C7 C 0.21455 0.42044 0.38505 0.0
C8 C 0.1834 0.40195 0.35185 0.0
C9 C 0.23276 0.45789 0.36768 0.0
C10 C 0.13298 0.4949 0.95412 0.0
C11 C 0.16495 0.58248 0.2564 0.0
C12 C 0.06868 0.52104 0.21649 0.0
C13 C 0.05354 0.53748 0.16099 0.0
C14 C 0.04263 0.55506 0.22299 0.0
C15 C 0.05157 0.5386 1.05111 0.0
C16 C 1.02756 0.5743 1.06695 0.0
C17 C 0.03855 0.5568 1.00429 0.0
C18 C 1.02988 0.57334 0.17674 0.0
C19 C 0.11197 0.5003 0.45009 0.0
O20 O 0.1012 0.4281 0.18914 0.0
O21 O 0.07153 0.4412 0.10092 0.0
O22 O 0.18316 0.50917 0.24558 0.0
O23 O 0.14821 0.45126 0.16007 0.0
O24 O 0.12118 0.49975 1.03345 0.0
O25 O 0.12107 0.49979 1.0346 0.0
O26 O 0.13867 0.56512 0.19196 0.0
O27 O 0.17047 0.5577 0.28984 0.0
O28 O 0.09731 0.54469 0.25481 0.0
O29 O 0.06115 0.48608 0.17466 0.0
O30 O 0.12335 0.49486 0.36962 0.0
O31 O 0.12339 0.49484 0.36898 0.0
H32 H 0.23492 0.50419 0.30091 0.0
H33 H 0.14677 0.40415 0.27355 0.0
H34 H 0.16875 0.37312 0.36387 0.0
H35 H 0.25681 0.47289 0.3921 0.0
H36 H 0.04433 0.55507 0.30818 0.0
H37 H 0.06028 0.5258 1.00213 0.0
H38 H 0.03726 0.55752 0.91963 0.0
H39 H 1.02179 0.5867 0.22693 0.0
Gd40 Gd 0.65123 0.51418 1.06034 0.0
Gd41 Gd 0.61713 0.51373 1.04275 0.0
C42 C 0.66597 0.59968 0.12365 0.0
C43 C 0.7035 0.5228 0.09124 0.0
C44 C 0.73127 0.54029 1.05026 0.0
C45 C 0.75245 0.53157 0.08416 0.0
C46 C 0.73827 0.56776 0.98591 0.0
C47 C 0.7872 0.57733 0.99152 0.0
C48 C 0.76589 0.58592 0.95638 0.0
C49 C 0.78003 0.5499 1.0557 0.0
C50 C 0.6444 0.52734 0.3109 0.0
C51 C 0.59467 0.42718 0.98909 0.0
C52 C 0.56664 0.50743 1.01437 0.0
C53 C 0.54358 0.49188 1.0767 0.0
C54 C 0.53364 0.51465 0.11786 0.0
C55 C 0.53241 0.45514 0.10038 0.0
C56 C 0.5017 0.46426 0.20352 0.0
C57 C 0.5116 0.44146 0.16324 0.0
C58 C 0.51273 0.50088 0.18082 0.0
C59 C 0.62442 0.49996 0.7927 0.0
O60 O 0.67566 0.58092 1.07248 0.0
O61 O 0.63988 0.57599 0.14076 0.0
O62 O 0.69825 0.54683 0.14091 0.0
O63 O 0.67905 0.49195 1.03047 0.0
O64 O 0.63171 0.50302 0.21393 0.0
O65 O 0.63224 0.50374 0.21218 0.0
O66 O 0.58773 0.44913 1.0388 0.0
O67 O 0.6215 0.44789 0.96977 0.0
O68 O 0.57048 0.48237 0.96106 0.0
O69 O 0.59181 0.53971 1.06413 0.0
O70 O 0.63721 0.52435 0.88978 0.0
O71 O 0.63672 0.5237 0.8911 0.0
H72 H 0.74783 0.51087 0.13456 0.0
H73 H 0.72256 0.57546 0.95948 0.0
H74 H 0.7707 0.60683 0.90659 0.0
H75 H 0.79587 0.54258 0.08377 0.0
H76 H 0.54222 0.54317 0.10193 0.0
H77 H 0.53958 0.43678 1.07077 0.0
H78 H 0.50329 0.41319 0.18092 0.0
H79 H 0.50527 0.51877 0.21234 0.0
Gd80 Gd 0.59957 0.054 0.88191 0.0
Gd81 Gd 0.6413 0.09736 0.91494 0.0
C82 C 0.5923 0.12146 0.90399 0.0
C83 C 0.54432 0.99739 0.83813 0.0
C84 C 0.52491 0.97963 0.91171 0.0
C85 C 0.50403 0.93955 0.88847 0.0
C86 C 0.52605 1.00318 1.00319 0.0
C87 C 0.48409 0.94732 1.04092 0.0
C88 C 0.50548 0.98724 1.06599 0.0
C89 C 0.48385 0.9234 0.95333 0.0
C90 C 0.61812 0.05904 0.64401 0.0
C91 C 0.63768 0.02014 0.91945 0.0
C92 C 0.69936 0.14036 0.92071 0.0
C93 C 0.72902 0.14236 0.93525 0.0
C94 C 0.75696 0.17725 0.9832 0.0
C95 C 0.73035 0.11171 0.88073 0.0
C96 C 0.78575 0.15136 0.91674 0.0
C97 C 0.75781 0.11616 0.87121 0.0
C98 C 0.78455 0.18148 0.97532 0.0
C99 C 0.6229 0.09107 0.15418 0.0
O100 O 0.58134 0.08935 0.937 0.0
O101 O 0.61898 0.13339 0.88304 0.0
O102 O 0.56579 0.99169 0.83555 0.0
O103 O 0.55303 0.03317 0.84071 0.0
O104 O 0.6155 0.07735 0.72998 0.0
O105 O 0.61535 0.07665 0.73187 0.0
O106 O 0.65292 0.05203 0.88699 0.0
O107 O 0.61169 1.01201 0.92933 0.0
O108 O 0.68825 0.14722 0.99905 0.0
O109 O 0.67817 0.1133 0.84106 0.0
O110 O 0.6263 0.07359 1.06841 0.0
O111 O 0.62641 0.07445 1.06627 0.0
H112 H 0.50297 0.92092 0.81918 0.0
H113 H 0.54232 0.03415 1.02483 0.0
H114 H 0.50611 1.00604 0.13387 0.0
H115 H 0.46757 0.89243 0.93384 0.0
H116 H 0.75754 0.20204 1.02368 0.0
H117 H 0.70988 0.0843 0.84059 0.0
H118 H 0.75709 0.092 0.82544 0.0
H119 H 0.80515 0.2091 1.01258 0.0
Gd120 Gd 0.79411 0.85365 0.31602 0.0
Gd121 Gd 0.76486 0.86469 0.30512 0.0
C122 C 0.73638 0.77419 0.25716 0.0
C123 C 0.83368 0.83608 0.31228 0.0
C124 C 0.85028 0.82236 0.37258 0.0
C125 C 0.87465 0.82524 0.33803 0.0
C126 C 0.83968 0.80138 0.45206 0.0
C127 C 0.877 0.78523 0.45773 0.0
C128 C 0.85304 0.78308 0.49465 0.0
C129 C 0.88783 0.80674 0.37981 0.0
C130 C 0.79348 0.87732 0.07968 0.0
C131 C 0.82666 0.94245 0.39059 0.0
C132 C 0.72591 0.88464 0.29149 0.0
C133 C 0.71329 0.90306 0.22829 0.0
C134 C 0.70295 0.92331 0.28282 0.0
C135 C 0.71164 0.90172 0.11702 0.0
C136 C 0.68922 0.94011 0.11725 0.0
C137 C 0.69972 0.92001 1.06218 0.0
C138 C 0.69109 0.94146 0.22836 0.0
C139 C 0.78607 0.87739 0.56748 0.0
O140 O 0.76216 0.79119 0.32532 0.0
O141 O 0.73148 0.79901 0.21901 0.0
O142 O 0.80502 0.81142 0.28002 0.0
O143 O 0.84093 0.87154 0.34404 0.0
O144 O 0.7765 0.85403 0.13811 0.0
O145 O 0.77693 0.85439 0.14019 0.0
O146 O 0.8019 0.92872 0.31862 0.0
O147 O 0.82888 0.91506 0.42021 0.0
O148 O 0.75354 0.90694 0.3458 0.0
O149 O 0.71926 0.85016 0.24984 0.0
O150 O 0.77407 0.85137 0.47392 0.0
O151 O 0.77417 0.85198 0.47165 0.0
H152 H 0.88285 0.84068 0.27558 0.0
H153 H 0.82055 0.7982 0.47864 0.0
H154 H 0.84438 0.76664 0.55483 0.0
H155 H 0.90628 0.80879 0.35042 0.0
H156 H 0.70409 0.92516 0.36851 0.0
H157 H 0.71962 0.88668 1.07264 0.0
H158 H 0.69876 0.91858 0.97675 0.0
H159 H 0.68337 0.95672 0.27336 0.0
Gd160 Gd 0.2843 0.84155 0.47272 0.0
Gd161 Gd 0.25024 0.84131 0.45645 0.0
C162 C 0.30669 0.92792 0.53769 0.0
C163 C 0.33364 0.84475 0.49272 0.0
C164 C 0.35541 0.85894 0.42554 0.0
C165 C 0.3738 0.84498 0.41924 0.0
C166 C 0.3577 0.88636 0.36614 0.0
C167 C 0.3975 0.88699 0.29954 0.0
C168 C 0.37893 0.90075 0.30503 0.0
C169 C 0.39465 0.85877 0.35598 0.0
C170 C 0.27705 0.85555 0.72295 0.0
C171 C 0.23471 0.7562 0.3939 0.0
C172 C 0.19789 0.83247 0.42501 0.0
C173 C 0.1701 0.81481 0.46579 0.0
C174 C 0.14604 0.81607 0.41445 0.0
C175 C 0.16628 0.79477 0.54957 0.0
C176 C 0.11495 0.77819 0.52975 0.0
C177 C 0.13901 0.77678 0.58148 0.0
C178 C 0.11885 0.79796 0.44569 0.0
C179 C 0.25784 0.82866 0.2059 0.0
O180 O 0.31448 0.90671 0.4893 0.0
O181 O 0.27908 0.90692 0.54958 0.0
O182 O 0.30774 0.81315 0.44624 0.0
O183 O 0.3313 0.8711 0.5469 0.0
O184 O 0.26468 0.83081 0.62655 0.0
O185 O 0.26522 0.83157 0.62509 0.0
O186 O 0.2259 0.77512 0.4492 0.0
O187 O 0.25998 0.77948 0.37088 0.0
O188 O 0.2032 0.80853 0.37509 0.0
O189 O 0.2223 0.86322 0.48646 0.0
O190 O 0.27003 0.85301 0.30299 0.0
O191 O 0.26947 0.85223 0.30462 0.0
H192 H 0.37202 0.82345 0.46314 0.0
H193 H 0.34319 0.8968 0.36688 0.0
H194 H 0.38069 0.92227 0.26102 0.0
H195 H 0.40871 0.84767 0.35149 0.0
H196 H 0.1482 0.83088 0.34896 0.0
H197 H 0.18428 0.79286 0.58979 0.0
H198 H 0.13665 0.76174 0.64653 0.0
H199 H 0.10077 0.7995 0.40436 0.0
Gd200 Gd 0.26245 0.26343 0.59415 0.0
Gd201 Gd 0.30165 0.30461 0.62508 0.0
C202 C 0.26538 0.33778 0.56695 0.0
C203 C 0.20295 0.21741 0.55112 0.0
C204 C 0.17563 0.21367 0.58662 0.0
C205 C 0.14735 0.17836 0.55201 0.0
C206 C 0.17583 0.2458 0.63931 0.0
C207 C 0.12074 0.20707 0.62118 0.0
C208 C 0.14917 0.24248 0.6571 0.0
C209 C 0.12072 0.17516 0.56833 0.0
C210 C 0.27497 0.28511 0.35769 0.0
C211 C 0.31155 0.24 0.64211 0.0
C212 C 0.3553 0.36522 0.66874 0.0
C213 C 0.37587 0.38015 0.59786 0.0
C214 C 0.40002 0.41882 0.62526 0.0
C215 C 0.37165 0.3554 0.50282 0.0
C216 C 0.41654 0.40745 0.4669 0.0
C217 C 0.39208 0.36888 0.4383 0.0
C218 C 0.42025 0.43249 0.55978 0.0
C219 C 0.2894 0.28013 0.85819 0.0
O220 O 0.25326 0.31157 0.62239 0.0
O221 O 0.28757 0.33905 0.53704 0.0
O222 O 0.22076 0.20986 0.60692 0.0
O223 O 0.2183 0.24684 0.5105 0.0
O224 O 0.2816 0.27082 0.4376 0.0
O225 O 0.28111 0.27123 0.44008 0.0
O226 O 0.32405 0.27197 0.60945 0.0
O227 O 0.2839 0.22833 0.65245 0.0
O228 O 0.34895 0.33199 0.68795 0.0
O229 O 0.3318 0.36685 0.64636 0.0
O230 O 0.28215 0.29446 0.77996 0.0
O231 O 0.2826 0.29415 0.7781 0.0
H232 H 0.1456 0.15303 0.50882 0.0
H233 H 0.19663 0.27393 0.66538 0.0
H234 H 0.15078 0.26801 0.69808 0.0
H235 H 0.09977 0.14735 0.5384 0.0
H236 H 0.40334 0.43828 0.69758 0.0
H237 H 0.35279 0.32553 0.47937 0.0
H238 H 0.38887 0.34938 0.36622 0.0
H239 H 0.43897 0.46243 0.58195 0.0
Gd240 Gd 0.45582 0.18468 0.69506 0.0
Gd241 Gd 0.44392 0.16729 0.83841 0.0
C242 C 0.4027 0.19608 0.75032 0.0
C243 C 0.44932 0.19898 0.5113 0.0
C244 C 0.44994 0.23224 0.48214 0.0
C245 C 0.47705 0.26877 0.50638 0.0
C246 C 0.42572 0.2263 0.40582 0.0
C247 C 0.46259 0.27421 0.33045 0.0
C248 C 0.43227 0.2512 0.33393 0.0
C249 C 0.48082 0.29334 0.43592 0.0
C250 C 0.49969 0.25453 0.8405 0.0
C251 C 0.49866 0.16071 0.78442 0.0
C252 C 0.44739 0.14545 1.01586 0.0
C253 C 0.47358 0.15042 0.08486 0.0
C254 C 0.47039 0.12756 0.16059 0.0
C255 C 0.50227 0.18335 0.09371 0.0
C256 C 0.51223 0.18598 0.27959 0.0
C257 C 0.52391 0.19687 0.18941 0.0
C258 C 0.49247 0.14527 0.25854 0.0
C259 C 0.40008 0.10054 0.68746 0.0
O260 O 0.41937 0.19923 0.68158 0.0
O261 O 0.40896 0.18418 0.83544 0.0
O262 O 0.47461 0.20494 0.56135 0.0
O263 O 0.42637 0.1751 0.54584 0.0
O264 O 0.50349 0.23685 0.76104 0.0
O265 O 0.47227 0.23254 0.84605 0.0
O266 O 0.48907 0.17117 0.8615 0.0
O267 O 0.48451 0.15827 0.68868 0.0
O268 O 0.43802 0.12238 0.92221 0.0
O269 O 0.44816 0.17709 1.01014 0.0
O270 O 0.39546 0.12079 0.75683 0.0
O271 O 0.42812 0.12034 0.6902 0.0
H272 H 0.49621 0.27575 0.56684 0.0
H273 H 0.4036 0.20023 0.39093 0.0
H274 H 0.41475 0.24445 0.26604 0.0
H275 H 0.50259 0.31981 0.44952 0.0
H276 H 0.44984 0.09982 0.15201 0.0
H277 H 0.50665 0.20213 1.039 0.0
H278 H 0.54485 0.22409 0.19808 0.0
H279 H 0.48924 0.13031 0.32387 0.0
Gd280 Gd 0.95479 0.15792 0.81746 0.0
Gd281 Gd 0.95011 0.19856 0.70261 0.0
C282 C 0.89914 0.16888 0.83076 0.0
C283 C 0.95939 0.11626 0.94361 0.0
C284 C 0.93914 0.08396 0.98609 0.0
C285 C 0.95149 0.07614 1.07483 0.0
C286 C 0.90961 0.07361 0.97241 0.0
C287 C 0.91746 0.08144 0.16419 0.0
C288 C 0.89741 0.06882 1.06265 0.0
C289 C 0.93813 0.07064 0.16229 0.0
C290 C 0.91784 0.10779 0.62151 0.0
C291 C 1.00692 0.19019 0.69969 0.0
C292 C 0.94495 0.23857 0.57103 0.0
C293 C 0.95744 0.2558 0.48502 0.0
C294 C 0.93896 0.25778 0.40225 0.0
C295 C 0.98287 0.25773 0.46717 0.0
C296 C 0.96026 0.23844 0.27584 0.0
C297 C 0.98515 0.25099 0.36168 0.0
C298 C 0.94163 0.25129 0.29669 0.0
C299 C 0.98486 0.24818 0.89963 0.0
O300 O 0.9175 0.16098 0.88496 0.0
O301 O 0.90581 0.18083 0.74263 0.0
O302 O 0.95728 0.10887 0.84065 0.0
O303 O 0.96122 0.14847 0.97718 0.0
O304 O 0.94304 0.11353 0.66607 0.0
O305 O 0.91597 0.13412 0.67381 0.0
O306 O 0.98645 0.19255 0.63609 0.0
O307 O 1.00166 0.18348 0.79388 0.0
O308 O 0.96266 0.25394 0.66683 0.0
O309 O 0.93002 0.20083 0.54858 0.0
O310 O 0.95937 0.24127 0.85282 0.0
O311 O 0.98797 0.22266 0.84943 0.0
H312 H 0.97332 0.08061 0.08419 0.0
H313 H 0.89858 0.07626 0.90064 0.0
H314 H 0.87672 0.06743 1.05538 0.0
H315 H 0.94937 0.06853 0.23484 0.0
H316 H 0.92013 0.2588 0.41656 0.0
H317 H 0.99817 0.25815 0.53186 0.0
H318 H 1.00287 0.24696 0.35169 0.0
H319 H 0.92569 0.24992 0.23289 0.0
Gd320 Gd 0.93678 0.64363 0.68535 0.0
Gd321 Gd 0.96306 0.71114 0.83303 0.0
C322 C 1.00169 0.7073 0.66734 0.0
C323 C 0.90393 0.57891 0.54229 0.0
C324 C 0.91345 0.56809 0.44965 0.0
C325 C 0.90206 0.57119 0.34844 0.0
C326 C 0.94267 0.57654 0.47158 0.0
C327 C 0.95286 0.61529 0.33893 0.0
C328 C 0.96271 0.60126 0.41737 0.0
C329 C 0.92215 0.59564 0.29278 0.0
C330 C 0.97553 0.64648 0.84891 0.0
C331 C 0.90137 0.6476 0.86222 0.0
C332 C 0.99854 0.77824 0.96463 0.0
C333 C 1.00378 0.78928 0.08095 0.0
C334 C 1.03265 0.80437 0.14282 0.0
C335 C 0.97918 0.76822 0.12421 0.0
C336 C 1.01055 0.76022 0.25681 0.0
C337 C 0.98235 0.75235 0.20922 0.0
C338 C 0.03607 0.79012 0.23313 0.0
C339 C 0.92526 0.70842 0.66627 0.0
O340 O 0.97665 0.67514 0.61139 0.0
O341 O 1.00209 0.72379 0.76146 0.0
O342 O 0.91798 0.58182 0.63777 0.0
O343 O 0.90176 0.60858 0.53955 0.0
O344 O 0.97329 0.63628 0.74762 0.0
O345 O 0.95737 0.65634 0.86247 0.0
O346 O 0.92792 0.67604 0.92189 0.0
O347 O 0.89895 0.63478 0.76037 0.0
O348 O 0.97222 0.76688 0.90859 0.0
O349 O 1.00642 0.75448 0.9354 0.0
O350 O 0.92607 0.71729 0.76664 0.0
O351 O 0.94386 0.69914 0.65654 0.0
H352 H 0.87916 0.56307 0.32659 0.0
H353 H 0.95171 0.57176 0.54461 0.0
H354 H 0.98624 0.61369 0.44718 0.0
H355 H 0.9141 0.60499 0.22853 0.0
H356 H 0.052 0.82159 0.11141 0.0
H357 H 0.95671 0.75732 0.0801 0.0
H358 H 0.96217 0.73042 0.22871 0.0
H359 H 0.05812 0.79851 0.27444 0.0
C360 C 0.142 0.4883 0.75284 0.0
C361 C 0.12628 0.49661 0.82465 0.0
C362 C 0.10283 0.50653 0.651 0.0
C363 C 0.11857 0.49827 0.57922 0.0
N364 N 0.15047 0.47468 0.57287 0.0
N365 N 0.09471 0.52068 0.83106 0.0
C366 C 0.13752 0.48766 0.63435 0.0
C367 C 0.1074 0.5073 0.7695 0.0
N368 N 0.16311 0.48241 0.79992 0.0
N369 N 0.08166 0.51232 0.60398 0.0
H370 H 0.09663 0.52117 0.91299 0.0
H371 H 0.08451 0.53449 0.80411 0.0
H372 H 0.0781 0.51411 0.52346 0.0
H373 H 0.06582 0.51224 0.64148 0.0
H374 H 0.17895 0.48243 0.76255 0.0
H375 H 0.16658 0.48053 0.88038 0.0
H376 H 0.1607 0.4609 0.59965 0.0
H377 H 0.14889 0.47469 0.49123 0.0
C378 C 0.65075 0.54536 0.64316 0.0
C379 C 0.63124 0.50874 0.6709 0.0
C380 C 0.61827 0.48147 0.45991 0.0
C381 C 0.63795 0.51817 0.43265 0.0
N382 N 0.67838 0.58358 0.5191 0.0
N383 N 0.5935 0.44198 0.58701 0.0
C384 C 0.65521 0.54928 0.53097 0.0
C385 C 0.61462 0.47731 0.57298 0.0
N386 N 0.6649 0.57791 0.72383 0.0
N387 N 0.60385 0.44905 0.37837 0.0
H388 H 0.59178 0.43601 0.66299 0.0
H389 H 0.57657 0.41929 0.5246 0.0
H390 H 0.60433 0.45003 0.29818 0.0
H391 H 0.59324 0.42097 0.39021 0.0
H392 H 0.67504 0.60581 0.71063 0.0
H393 H 0.66458 0.57689 0.80395 0.0
H394 H 0.69452 0.60617 0.58343 0.0
H395 H 0.68368 0.588 0.44497 0.0
C396 C 0.62528 0.04777 0.43738 0.0
C397 C 0.6199 0.06943 0.52 0.0
C398 C 0.61575 0.1021 0.3612 0.0
C399 C 0.62126 0.08059 0.27851 0.0
N400 N 0.63663 0.03592 0.26178 0.0
N401 N 0.60473 0.11428 0.53722 0.0
C402 C 0.62721 0.05416 0.32425 0.0
C403 C 0.61396 0.09585 0.47443 0.0
N404 N 0.6274 0.01853 0.46566 0.0
N405 N 0.61346 0.13123 0.33299 0.0
H406 H 0.60472 0.11318 0.61758 0.0
H407 H 0.59497 0.12833 0.50809 0.0
H408 H 0.61289 0.13608 0.25503 0.0
H409 H 0.61452 0.15261 0.38805 0.0
H410 H 0.62635 0.99714 0.41066 0.0
H411 H 0.62782 0.01361 0.54356 0.0
H412 H 0.64607 0.02151 0.29083 0.0
H413 H 0.63733 0.03783 0.18215 0.0
C414 C 0.76434 0.83842 0.73593 0.0
C415 C 0.78571 0.87095 0.69499 0.0
C416 C 0.80697 0.90492 0.90067 0.0
C417 C 0.78748 0.8721 0.94384 0.0
N418 N 0.74822 0.80447 0.88432 0.0
N419 N 0.83173 0.93333 0.7588 0.0
C420 C 0.76642 0.83813 0.85537 0.0
C421 C 0.80786 0.90322 0.7843 0.0
N422 N 0.74084 0.80753 0.66059 0.0
N423 N 0.82497 0.93998 0.97241 0.0
H424 H 0.83406 0.93439 0.67974 0.0
H425 H 0.85087 0.95519 0.81621 0.0
H426 H 0.82632 0.94362 1.05527 0.0
H427 H 0.83628 0.96617 0.94886 0.0
H428 H 0.72249 0.78463 0.67933 0.0
H429 H 0.73884 0.80641 0.5781 0.0
H430 H 0.7352 0.77755 0.83049 0.0
H431 H 0.74765 0.80351 0.96456 0.0
C432 C 0.25474 0.80978 0.87545 0.0
C433 C 0.27055 0.84675 0.84481 0.0
C434 C 0.28046 0.87476 1.05328 0.0
C435 C 0.26471 0.83777 0.08416 0.0
N436 N 0.23365 0.76942 1.00519 0.0
N437 N 0.30305 0.91505 0.9243 0.0
C438 C 0.25131 0.80568 0.98864 0.0
C439 C 0.28434 0.8789 0.94028 0.0
N440 N 0.24418 0.77739 0.79746 0.0
N441 N 0.29072 0.90709 0.13095 0.0
H442 H 0.30574 0.92049 0.84802 0.0
H443 H 0.31776 0.93929 0.98671 0.0
H444 H 0.28955 0.9063 0.21084 0.0
H445 H 0.2981 0.93424 0.11507 0.0
H446 H 0.2369 0.75021 0.81283 0.0
H447 H 0.24476 0.77802 0.71721 0.0
H448 H 0.21838 0.74508 0.94376 0.0
H449 H 0.23319 0.76406 0.08215 0.0
C450 C 0.29077 0.25982 1.05394 0.0
C451 C 0.28458 0.28199 0.98573 0.0
C452 C 0.27704 0.30826 0.16548 0.0
C453 C 0.28051 0.2835 0.23087 0.0
N454 N 0.28704 0.23062 0.21339 0.0
N455 N 0.26676 0.32408 0.99097 0.0
C456 C 0.28649 0.25818 0.16748 0.0
C457 C 0.27625 0.30504 1.04648 0.0
N458 N 0.30169 0.23977 1.01022 0.0
N459 N 0.27593 0.33755 0.21954 0.0
H460 H 0.26665 0.32403 0.90984 0.0
H461 H 0.25641 0.33683 1.02228 0.0
H462 H 0.2775 0.34243 0.30246 0.0
H463 H 0.27696 0.35963 0.18567 0.0
H464 H 0.3112 0.22808 1.0553 0.0
H465 H 0.30322 0.23712 0.92995 0.0
H466 H 0.28702 0.20771 0.17088 0.0
H467 H 0.28493 0.22882 0.29224 0.0
C468 C 0.45686 0.2124 0.24466 0.0
C469 C 0.47432 0.25334 0.26906 0.0
C470 C 0.5188 0.25131 0.32281 0.0
C471 C 0.50029 0.21057 0.31482 0.0
N472 N 0.45036 0.15889 0.31821 0.0
N473 N 0.52253 0.30939 0.28227 0.0
C474 C 0.46882 0.19302 0.2913 0.0
C475 C 0.50572 0.27179 0.28988 0.0
N476 N 0.42838 0.19237 0.18295 0.0
N477 N 0.54877 0.26999 0.36393 0.0
H478 H 0.51243 0.32379 0.25846 0.0
H479 H 0.54555 0.32501 0.29227 0.0
H480 H 0.55815 0.25522 0.39165 0.0
H481 H 0.5637 0.29981 0.3778 0.0
H482 H 0.41485 0.16218 0.1626 0.0
H483 H 0.4202 0.20633 0.14178 0.0
H484 H 0.42732 0.1458 0.30392 0.0
H485 H 0.45862 0.14756 0.37065 0.0
C486 C 0.9665 0.18724 0.1936 0.0
C487 C 0.94696 0.1994 0.20187 0.0
C488 C 0.90864 0.13406 0.2151 0.0
C489 C 0.92938 0.12305 0.21723 0.0
N490 N 0.98234 0.14955 0.27097 0.0
N491 N 0.89496 0.17592 0.14939 0.0
C492 C 0.9597 0.15244 0.2234 0.0
C493 C 0.91651 0.17043 0.19268 0.0
N494 N 0.99276 0.21086 0.16695 0.0
N495 N 0.88128 0.1092 0.2325 0.0
H496 H 0.90001 0.19851 0.11047 0.0
H497 H 0.87223 0.15519 0.13648 0.0
H498 H 0.87557 0.08261 0.25015 0.0
H499 H 0.86581 0.11655 0.23914 0.0
H500 H 1.0076 0.2027 0.15602 0.0
H501 H 0.99805 0.23717 0.14829 0.0
H502 H 1.00477 0.17139 0.2817 0.0
H503 H 0.97869 0.12886 0.31594 0.0
C504 C 0.97101 0.68562 0.38635 0.0
C505 C 0.97347 0.65581 0.33224 0.0
C506 C 1.01491 0.70394 0.26733 0.0
C507 C 1.011 0.73267 0.31809 0.0
N508 N 0.99455 0.75429 0.4564 0.0
N509 N 1.00243 0.63805 0.24428 0.0
C510 C 0.99318 0.72451 0.39258 0.0
C511 C 0.99729 0.66556 0.2816 0.0
N512 N 0.94669 0.67723 0.42554 0.0
N513 N 1.03341 0.71236 0.1985 0.0
H514 H 0.98831 0.6089 0.24461 0.0
H515 H 1.02175 0.64469 0.21968 0.0
H516 H 0.04812 0.7403 0.19048 0.0
H517 H 0.03411 0.6915 0.14849 0.0
H518 H 0.94167 0.69764 0.44749 0.0
H519 H 0.93045 0.64971 0.43023 0.0
H520 H 0.98221 0.75051 0.51446 0.0
H521 H 1.01011 0.78313 0.45608 0.0
C522 C 0.23409 0.34488 0.41514 0.0
C523 C 0.25161 0.35866 0.52339 0.0
C524 C 0.24273 0.41148 0.5447 0.0
C525 C 0.2279 0.39975 0.43322 0.0
N526 N 0.21508 0.35955 0.25771 0.0
N527 N 0.27533 0.40802 0.6881 0.0
C528 C 0.22518 0.36763 0.36732 0.0
C529 C 0.25667 0.39284 0.5873 0.0
N530 N 0.22482 0.30909 0.35843 0.0
N531 N 0.24264 0.43962 0.61086 0.0
H532 H 0.28513 0.39463 0.72236 0.0
H533 H 0.28271 0.43504 0.73452 0.0
H534 H 0.23276 0.45374 0.58281 0.0
H535 H 0.2502 0.44684 0.69461 0.0
H536 H 0.20931 0.29552 0.2841 0.0
H537 H 0.23063 0.29151 0.39008 0.0
H538 H 0.21597 0.33949 0.20432 0.0
H539 H 0.20854 0.37553 0.21921 0.0
C540 C 0.68773 0.66441 0.26417 0.0
C541 C 0.6829 0.64467 0.15662 0.0
C542 C 0.71305 0.71001 0.11454 0.0
C543 C 0.71611 0.7295 0.21952 0.0
N544 N 0.70242 0.72382 0.38962 0.0
N545 N 0.68613 0.65058 0.97389 0.0
C546 C 0.70231 0.70612 0.29271 0.0
C547 C 0.69435 0.66817 0.08063 0.0
N548 N 0.67949 0.64348 0.34144 0.0
N549 N 0.7292 0.73145 1.04795 0.0
H550 H 0.67153 0.62076 0.94589 0.0
H551 H 0.69097 0.66559 0.91237 0.0
H552 H 0.74337 0.76151 1.0706 0.0
H553 H 0.73077 0.71942 0.97528 0.0
H554 H 0.68568 0.65586 0.42371 0.0
H555 H 0.6683 0.61347 0.32422 0.0
H556 H 0.69025 0.7089 0.44282 0.0
H557 H 0.71271 0.75372 0.41276 0.0
C558 C 0.47139 0.93397 0.21797 0.0
C559 C 0.46178 0.93086 0.1064 0.0
C560 C 0.40982 0.8948 0.11946 0.0
C561 C 0.41967 0.90186 0.23307 0.0
N562 N 0.46013 0.93574 0.3935 0.0
N563 N 0.42234 0.91634 0.9565 0.0
C564 C 0.45058 0.92362 0.28344 0.0
C565 C 0.4311 0.91352 1.05843 0.0
N566 N 0.50016 0.94572 0.26081 0.0
N567 N 0.38029 0.8694 1.06936 0.0
H568 H 0.43732 0.93079 0.90988 0.0
H569 H 0.40057 0.90774 0.92262 0.0
H570 H 0.36401 0.85428 0.11094 0.0
H571 H 0.37242 0.86048 0.98558 0.0
H572 H 0.50752 0.94497 0.33947 0.0
H573 H 0.51595 0.95257 0.21477 0.0
H574 H 0.4825 0.95518 0.43338 0.0
H575 H 0.44557 0.92947 0.44446 0.0
C576 C 0.57104 0.16562 0.93388 0.0
C577 C 0.57116 0.13568 0.86703 0.0
C578 C 0.52336 0.12097 0.74716 0.0
C579 C 0.52454 0.15303 0.80897 0.0
N580 N 0.55543 0.21106 0.95078 0.0
N581 N 0.54856 0.08911 0.6971 0.0
C582 C 0.55003 0.17657 0.89968 0.0
C583 C 0.54765 0.1149 0.76997 0.0
N584 N 0.59069 0.18338 1.03263 0.0
N585 N 0.49799 0.0943 0.66985 0.0
H586 H 0.56513 0.08338 0.71065 0.0
H587 H 0.53469 0.07626 0.61952 0.0
H588 H 0.47967 0.09652 0.65229 0.0
H589 H 0.49385 0.068 0.63063 0.0
H590 H 0.58964 0.20174 0.09181 0.0
H591 H 0.60667 0.17732 1.05802 0.0
H592 H 0.57457 0.23125 1.01077 0.0
H593 H 0.54247 0.22153 0.92457 0.0
C594 C 1.00428 0.30838 1.04909 0.0
C595 C 1.00985 0.28959 0.96352 0.0
C596 C 0.05956 0.3514 0.99157 0.0
C597 C 0.053 0.37086 1.07119 0.0
N598 N 1.01711 0.36823 0.16663 0.0
N599 N 0.04076 0.29846 0.83687 0.0
C600 C 1.02471 0.34934 0.09686 0.0
C601 C 0.03713 0.3124 0.93128 0.0
N602 N 0.9795 0.28671 0.08684 0.0
N603 N 0.08726 0.37048 0.97093 0.0
H604 H 1.0245 0.27182 0.78611 0.0
H605 H 0.05833 0.31504 0.80212 0.0
H606 H 0.10324 0.39972 1.00446 0.0
H607 H 0.09502 0.35668 0.92583 0.0
H608 H 0.97513 0.29722 0.15454 0.0
H609 H 0.96431 0.25705 1.05582 0.0
H610 H 0.99575 0.3562 0.17944 0.0
H611 H 1.03184 0.39719 0.2071 0.0
C612 C 0.86535 0.6539 0.95843 0.0
C613 C 0.87334 0.63018 0.90377 0.0
C614 C 0.82336 0.57274 0.89456 0.0
C615 C 0.81672 0.59596 0.95954 0.0
N616 N 0.8344 0.6581 1.07165 0.0
N617 N 0.86136 0.56551 0.83902 0.0
C618 C 0.8386 0.6364 0.99673 0.0
C619 C 0.8527 0.58916 0.87737 0.0
N620 N 0.88223 0.69309 0.96878 0.0
N621 N 0.80129 0.53515 0.84555 0.0
H622 H 0.88259 0.57592 0.8266 0.0
H623 H 0.84854 0.53558 0.8301 0.0
H624 H 0.7794 0.52222 0.85375 0.0
H625 H 0.8039 0.51798 0.78814 0.0
H626 H 0.87562 0.71121 0.99704 0.0
H627 H 0.90136 0.70723 0.93957 0.0
H628 H 0.85098 0.68668 0.1106 0.0
H629 H 0.81543 0.64648 0.10258 0.0
C630 C 1.02012 0.64948 0.94591 0.0
C631 C 0.98886 0.63267 0.92685 0.0
C632 C 0.98285 0.57764 1.00145 0.0
C633 C 1.01411 0.59437 1.0188 0.0
N634 N 0.06323 0.65008 1.03181 0.0
N635 N 0.93996 0.5801 0.93087 0.0
C636 C 1.03294 0.63134 0.99748 0.0
C637 C 0.97015 0.59692 0.95532 0.0
N638 N 0.03753 0.68246 0.91153 0.0
N639 N 0.9654 0.54333 1.02998 0.0
H640 H 0.93007 0.59393 0.90151 0.0
H641 H 0.92432 0.55217 0.93653 0.0
H642 H 0.97343 0.52698 1.05592 0.0
H643 H 0.9432 0.5313 1.03208 0.0
H644 H 0.0595 0.69318 0.90775 0.0
H645 H 1.02953 0.6984 0.88204 0.0
H646 H 0.07819 0.67889 1.03085 0.0
H647 H 0.07351 0.63791 1.07014 0.0
C648 C 0.54941 0.36628 0.85056 0.0
C649 C 0.57137 0.38236 0.95065 0.0
C650 C 0.54406 0.31531 0.98712 0.0
C651 C 0.52197 0.29944 0.88722 0.0
N652 N 0.49972 0.31474 0.74341 0.0
N653 N 0.5852 0.37197 0.12355 0.0
C654 C 0.52383 0.32642 0.82427 0.0
C655 C 0.56731 0.35663 1.02133 0.0
N656 N 0.55282 0.38938 0.77947 0.0
N657 N 0.54277 0.29065 1.05034 0.0
H658 H 0.60265 0.40106 0.14953 0.0
H659 H 0.58186 0.35667 0.18431 0.0
H660 H 0.52473 0.26205 1.0329 0.0
H661 H 0.55954 0.29802 0.11721 0.0
H662 H 0.54046 0.37886 0.69954 0.0
H663 H 0.56947 0.41885 0.79911 0.0
H664 H 0.49777 0.33328 0.70015 0.0
H665 H 0.48026 0.28712 0.72752 0.0
C666 C 0.84991 0.13313 0.90121 0.0
C667 C 0.8714 0.16562 0.86485 0.0
C668 C 0.83582 0.18724 0.85522 0.0
C669 C 0.81565 0.15668 0.90052 0.0
N670 N 0.8086 0.10567 0.98954 0.0
N671 N 0.88668 0.22939 0.83851 0.0
C672 C 0.82418 0.13107 0.92945 0.0
C673 C 0.86475 0.19421 0.85085 0.0
N674 N 0.85335 0.10321 0.9067 0.0
N675 N 0.82698 0.20894 0.81099 0.0
H676 H 0.90841 0.23687 0.84178 0.0
H677 H 0.88435 0.2527 0.839 0.0
H678 H 0.80593 0.20404 0.80763 0.0
H679 H 0.83925 0.22888 0.76704 0.0
H680 H 0.83667 0.0765 0.91698 0.0
H681 H 0.87221 0.10429 0.89425 0.0
H682 H 0.81545 0.08929 1.02368 0.0
H683 H 0.79068 0.10408 1.01542 0.0
C684 C 0.63661 0.95837 0.93329 0.0
C685 C 0.65149 0.99938 0.965 0.0
C686 C 0.6927 1.00148 0.08503 0.0
C687 C 0.67663 0.96036 1.06056 0.0
N688 N 0.63091 0.89938 0.97327 0.0
N689 N 0.69076 0.0585 0.09287 0.0
C690 C 0.64794 0.93875 0.98764 0.0
C691 C 0.67883 0.02055 1.04642 0.0
N692 N 0.61204 0.93812 0.84861 0.0
N693 N 0.72163 0.02261 0.14394 0.0
H694 H 0.68098 0.07343 1.07199 0.0
H695 H 0.70862 0.0741 0.16056 0.0
H696 H 0.73256 1.00989 0.1736 0.0
H697 H 0.73565 0.05251 0.15446 0.0
H698 H 0.60196 0.90894 0.81356 0.0
H699 H 0.60327 0.95135 0.80693 0.0
H700 H 0.60858 0.88216 0.93147 0.0
H701 H 0.63838 0.88407 1.01062 0.0
C702 C 0.2162 0.68875 0.43648 0.0
C703 C 0.21734 0.71155 0.3601 0.0
C704 C 0.18906 0.6506 0.216 0.0
C705 C 0.18521 0.62719 0.29318 0.0
N706 N 0.19124 0.62557 0.48211 0.0
N707 N 0.19818 0.71154 0.17981 0.0
C708 C 0.19794 0.6468 0.40488 0.0
C709 C 0.20199 0.69162 0.25058 0.0
N710 N 0.23305 0.70719 0.53974 0.0
N711 N 0.1812 0.6339 0.10848 0.0
H712 H 0.20561 0.7406 0.20395 0.0
H713 H 0.18489 0.6984 0.10132 0.0
H714 H 0.1727 0.60468 0.07983 0.0
H715 H 0.18611 0.64978 1.04883 0.0
H716 H 0.23594 0.69287 0.59684 0.0
H717 H 0.2462 0.73729 0.56554 0.0
H718 H 0.19679 0.63786 0.56421 0.0
H719 H 0.1777 0.59544 0.46384 0.0
C720 C 0.48927 0.44881 0.37872 0.0
C721 C 0.47989 0.44974 0.27088 0.0
C722 C 0.42963 0.4258 0.29443 0.0
C723 C 0.43831 0.42172 0.39905 0.0
N724 N 0.47444 0.42182 0.53309 0.0
N725 N 0.4402 0.43208 0.11816 0.0
C726 C 0.46762 0.43111 0.43924 0.0
C727 C 0.44976 0.43618 0.22626 0.0
N728 N 0.51892 0.4657 0.42404 0.0
N729 N 0.40258 0.42109 0.26165 0.0
H730 H 0.45438 0.43953 1.0655 0.0
H731 H 0.41779 0.41814 0.07906 0.0
H732 H 0.38727 0.41391 0.30984 0.0
H733 H 0.39641 0.42765 0.19067 0.0
H734 H 0.52736 0.46951 0.50582 0.0
H735 H 0.5355 0.47891 0.382 0.0
H736 H 0.49448 0.42417 0.56005 0.0
H737 H 0.45903 0.40839 0.57924 0.0
C738 C 0.88635 0.70462 0.52556 0.0
C739 C 0.91582 0.72648 0.59093 0.0
C740 C 0.92015 0.7869 0.56827 0.0
C741 C 0.89086 0.76497 0.50036 0.0
N742 N 0.84869 0.70321 0.39465 0.0
N743 N 0.96295 0.78763 0.65858 0.0
C744 C 0.87476 0.72385 0.47288 0.0
C745 C 0.93348 0.76741 0.60616 0.0
N746 N 0.86897 0.66561 0.51788 0.0
N747 N 0.93456 0.8262 0.60173 0.0
H748 H 0.97304 0.77422 0.69 0.0
H749 H 0.97793 0.81692 0.66271 0.0
H750 H 0.9254 0.84153 0.57751 0.0
H751 H 0.95454 0.8434 0.66042 0.0
H752 H 0.84612 0.64866 0.48335 0.0
H753 H 0.87719 0.65049 0.5518 0.0
H754 H 0.8375 0.67355 0.36329 0.0
H755 H 0.83958 0.71628 0.35403 0.0
C756 C 0.34646 0.04174 0.58971 0.0
C757 C 0.37668 0.05609 0.64289 0.0
C758 C 0.3589 0.98699 0.6437 0.0
C759 C 0.32961 0.97247 0.58098 0.0
N760 N 0.29752 0.98774 0.48223 0.0
N761 N 0.41141 0.03917 0.70877 0.0
C762 C 0.32399 1.00046 0.55153 0.0
C763 C 0.38277 0.02767 0.66527 0.0
N764 N 0.33891 0.06774 0.57547 0.0
N765 N 0.36353 0.96211 0.69007 0.0
H766 H 0.42917 0.06797 0.73326 0.0
H767 H 0.41803 0.01989 0.7133 0.0
H768 H 0.34646 0.9334 0.68349 0.0
H769 H 0.38303 0.97078 0.74563 0.0
H770 H 0.31698 0.06002 0.55145 0.0
H771 H 0.35451 0.09748 0.59371 0.0
H772 H 0.29307 1.00587 0.44616 0.0
H773 H 0.28072 0.95844 0.45397 0.0
C774 C 0.04314 0.16711 0.69595 0.0
C775 C 0.03506 0.19347 0.66982 0.0
C776 C 0.0815 0.22624 0.60003 0.0
C777 C 0.09131 0.20294 0.63898 0.0
N778 N 0.08257 0.15592 0.74654 0.0
N779 N 0.05115 0.25301 0.61249 0.0
C780 C 0.07232 0.1747 0.693 0.0
C781 C 0.05554 0.22427 0.6258 0.0
N782 N 1.02234 0.13336 0.71912 0.0
N783 N 0.09615 0.24938 0.53371 0.0
H784 H 1.03287 0.25267 0.62947 0.0
H785 H 0.06692 0.27866 0.59407 0.0
H786 H 0.11433 0.25095 0.51022 0.0
H787 H 0.0884 0.26381 0.4932 0.0
H788 H 1.02562 0.1112 0.72782 0.0
H789 H 1.00052 0.12546 0.71643 0.0
H790 H 0.07128 0.13806 0.7966 0.0
H791 H 0.10386 0.16151 0.75081 0.0
C792 C 0.35592 0.18888 0.62345 0.0
C793 C 0.37709 0.20443 0.72708 0.0
C794 C 0.35312 0.24062 0.77799 0.0
C795 C 0.33098 0.22328 0.67727 0.0
N796 N 0.31025 0.17692 0.50886 0.0
N797 N 0.39197 0.24265 0.90747 0.0
C798 C 0.33228 0.19632 0.60196 0.0
C799 C 0.37418 0.22919 0.80544 0.0
N800 N 0.35842 0.16696 0.54305 0.0
N801 N 0.35521 0.27003 0.84681 0.0
H802 H 0.40906 0.2383 0.929 0.0
H803 H 0.38865 0.25613 0.97263 0.0
H804 H 0.34029 0.27851 0.83209 0.0
H805 H 0.37275 0.28781 0.91437 0.0
H806 H 0.34747 0.15963 0.46225 0.0
H807 H 0.37263 0.15743 0.55564 0.0
H808 H 0.30707 0.15376 0.45436 0.0
H809 H 0.29336 0.18196 0.49064 0.0
C810 C 0.8451 1.00249 0.5407 0.0
C811 C 0.84877 0.98581 0.44524 0.0
C812 C 0.89481 0.05057 0.45787 0.0
C813 C 0.89185 0.06707 0.55552 0.0
N814 N 0.8657 0.05534 0.69793 0.0
N815 N 0.8746 0.99646 0.30279 0.0
C816 C 0.86716 0.04211 0.59817 0.0
C817 C 0.87305 1.01063 0.40153 0.0
N818 N 0.8196 0.98078 0.5746 0.0
N819 N 0.91953 0.07283 0.42098 0.0
H820 H 0.85957 0.96773 0.26076 0.0
H821 H 0.88933 0.01352 0.25902 0.0
H822 H 0.93417 0.10267 0.45101 0.0
H823 H 0.92673 0.06093 0.36719 0.0
H824 H 0.81337 0.99184 0.63518 0.0
H825 H 0.80321 0.95211 0.53579 0.0
H826 H 0.85156 0.03762 0.74227 0.0
H827 H 0.88022 0.0839 0.74016 0.0
C828 C 0.04859 0.76626 0.63876 0.0
C829 C 1.03041 0.7253 0.62925 0.0
C830 C 0.06667 0.71911 0.54676 0.0
C831 C 0.0859 0.75996 0.56466 0.0
N832 N 0.09743 0.82287 0.64613 0.0
N833 N 1.02849 0.66561 0.60567 0.0
C834 C 0.07744 0.78363 0.61578 0.0
C835 C 0.0411 0.70247 0.59134 0.0
N836 N 0.0381 0.78878 0.66666 0.0
N837 N 0.07229 0.69582 0.4847 0.0
H838 H 1.01067 0.65259 0.64183 0.0
H839 H 0.03764 0.64936 0.59123 0.0
H840 H 0.09067 0.7067 0.45036 0.0
H841 H 0.05715 0.66593 0.45905 0.0
H842 H 0.04853 0.81762 0.66134 0.0
H843 H 1.01732 0.77792 0.6837 0.0
H844 H 0.09408 0.84147 0.69449 0.0
H845 H 0.11874 0.83668 0.63173 0.0
loop_
_geom_bond_atom_site_label_1
_geom_bond_atom_site_label_2
_geom_bond_distance
_geom_bond_site_symmetry_2
_ccdc_geom_bond_type
Gd0 C3 2.818 . S
Gd0 O20 2.377 . S
Gd0 O22 2.448 . S
Gd0 O23 2.506 . S
Gd0 O24 2.435 1_554 S
Gd0 O25 2.717 1_554 S
Gd0 O27 2.395 . S
Gd0 O31 2.327 . S
Gd1 C12 2.818 1_455 S
Gd1 O21 2.395 1_455 S
Gd1 O25 2.327 1_554 S
Gd1 O26 2.377 . S
Gd1 O28 2.448 1_455 S
Gd1 O29 2.506 1_554 S
Gd1 O30 2.435 . S
Gd1 O31 2.717 . S
C2 O20 1.240 . S
C2 O21 1.240 1_455 S
C3 Gd0 2.818 . S
C3 C4 1.510 . S
C3 O22 1.249 . S
C3 O23 1.252 . S
C4 C3 1.510 . S
C4 C5 1.404 . S
C4 C6 1.352 . S
C5 C4 1.404 . S
C5 C9 1.389 . S
C5 H32 0.930 . S
C6 C4 1.352 . S
C6 C8 1.374 . S
C6 H33 0.931 . S
C7 C8 1.359 . S
C7 C9 1.364 . S
C8 C6 1.374 . S
C8 C7 1.359 . S
C8 H34 0.931 . S
C9 C5 1.389 . S
C9 C7 1.364 . S
C9 H35 0.931 . S
C10 O24 1.256 . S
C10 O25 1.257 . S
C11 O26 1.240 . S
C11 O27 1.240 . S
C12 Gd1 2.818 1_655 S
C12 C13 1.510 1_554 S
C12 O28 1.249 . S
C12 O29 1.252 1_654 S
C13 C12 1.510 1_556 S
C13 C14 1.404 1_556 S
C13 C15 1.352 . S
C14 C13 1.404 1_554 S
C14 C18 1.389 . S
C14 H36 0.930 . S
C15 C13 1.352 . S
C15 C17 1.374 . S
C15 H37 0.931 1_655 S
C16 C17 1.359 . S
C16 C18 1.364 1_556 S
C17 C15 1.374 . S
C17 C16 1.359 . S
C17 H38 0.931 . S
C18 C14 1.389 . S
C18 C16 1.364 1_554 S
C18 H39 0.931 . S
C19 O30 1.256 . S
C19 O31 1.257 . S
O20 Gd0 2.377 . S
O20 C2 1.240 . S
O21 Gd1 2.395 1_655 S
O21 C2 1.240 1_655 S
O22 Gd0 2.448 . S
O22 C3 1.249 . S
O23 Gd0 2.506 . S
O23 C3 1.252 . S
O24 Gd0 2.435 1_556 S
O24 C10 1.256 . S
O25 Gd0 2.717 1_556 S
O25 Gd1 2.327 1_556 S
O25 C10 1.257 . S
O26 Gd1 2.377 . S
O26 C11 1.240 . S
O27 Gd0 2.395 . S
O27 C11 1.240 . S
O28 Gd1 2.448 1_655 S
O28 C12 1.249 . S
O29 Gd1 2.506 1_556 S
O29 C12 1.252 1_456 S
O30 Gd1 2.435 . S
O30 C19 1.256 . S
O31 Gd0 2.327 . S
O31 Gd1 2.717 . S
O31 C19 1.257 . S
H32 C5 0.930 . S
H33 C6 0.931 . S
H34 C8 0.931 . S
H35 C9 0.931 . S
H36 C14 0.930 . S
H37 C15 0.931 1_455 S
H38 C17 0.931 . S
H39 C18 0.931 . S
Gd40 C43 2.818 . S
Gd40 O60 2.377 . S
Gd40 O62 2.448 . S
Gd40 O63 2.506 . S
Gd40 O64 2.435 . S
Gd40 O65 2.717 . S
Gd40 O67 2.395 . S
Gd40 O71 2.327 . S
Gd41 C52 2.818 . S
Gd41 O61 2.395 . S
Gd41 O65 2.327 . S
Gd41 O66 2.377 . S
Gd41 O68 2.448 . S
Gd41 O69 2.506 . S
Gd41 O70 2.435 1_554 S
Gd41 O71 2.717 . S
C42 O60 1.240 . S
C42 O61 1.240 . S
C43 Gd40 2.818 . S
C43 C44 1.510 . S
C43 O62 1.249 . S
C43 O63 1.252 . S
C44 C43 1.510 . S
C44 C45 1.404 . S
C44 C46 1.352 . S
C45 C44 1.404 . S
C45 C49 1.389 . S
C45 H72 0.930 . S
C46 C44 1.352 . S
C46 C48 1.374 . S
C46 H73 0.931 . S
C47 C48 1.359 . S
C47 C49 1.364 . S
C48 C46 1.374 . S
C48 C47 1.359 . S
C48 H74 0.931 . S
C49 C45 1.389 . S
C49 C47 1.364 . S
C49 H75 0.931 . S
C50 O64 1.256 . S
C50 O65 1.257 . S
C51 O66 1.240 . S
C51 O67 1.240 . S
C52 Gd41 2.818 . S
C52 C53 1.510 . S
C52 O68 1.249 . S
C52 O69 1.252 . S
C53 C52 1.510 . S
C53 C54 1.404 . S
C53 C55 1.352 . S
C54 C53 1.404 . S
C54 C58 1.389 . S
C54 H76 0.930 . S
C55 C53 1.352 . S
C55 C57 1.374 . S
C55 H77 0.931 . S
C56 C57 1.359 . S
C56 C58 1.364 . S
C57 C55 1.374 . S
C57 C56 1.359 . S
C57 H78 0.931 . S
C58 C54 1.389 . S
C58 C56 1.364 . S
C58 H79 0.931 . S
C59 O70 1.256 . S
C59 O71 1.257 1_556 S
O60 Gd40 2.377 . S
O60 C42 1.240 . S
O61 Gd41 2.395 . S
O61 C42 1.240 . S
O62 Gd40 2.448 . S
O62 C43 1.249 . S
O63 Gd40 2.506 . S
O63 C43 1.252 . S
O64 Gd40 2.435 . S
O64 C50 1.256 . S
O65 Gd40 2.717 . S
O65 Gd41 2.327 . S
O65 C50 1.257 . S
O66 Gd41 2.377 . S
O66 C51 1.240 . S
O67 Gd40 2.395 . S
O67 C51 1.240 . S
O68 Gd41 2.448 . S
O68 C52 1.249 . S
O69 Gd41 2.506 . S
O69 C52 1.252 . S
O70 Gd41 2.435 1_556 S
O70 C59 1.256 . S
O71 Gd40 2.327 . S
O71 Gd41 2.717 . S
O71 C59 1.257 1_554 S
H72 C45 0.930 . S
H73 C46 0.931 . S
H74 C48 0.931 . S
H75 C49 0.931 . S
H76 C54 0.930 . S
H77 C55 0.931 . S
H78 C57 0.931 . S
H79 C58 0.931 . S
Gd80 C83 2.818 . S
Gd80 O100 2.377 . S
Gd80 O102 2.448 . S
Gd80 O103 2.506 . S
Gd80 O104 2.435 1_554 S
Gd80 O105 2.717 . S
Gd80 O107 2.395 . S
Gd80 O111 2.327 . S
Gd81 C92 2.818 . S
Gd81 O101 2.395 . S
Gd81 O105 2.327 . S
Gd81 O106 2.377 . S
Gd81 O108 2.448 . S
Gd81 O109 2.506 . S
Gd81 O110 2.435 . S
Gd81 O111 2.717 . S
C82 O100 1.240 . S
C82 O101 1.240 . S
C83 Gd80 2.818 . S
C83 C84 1.510 . S
C83 O102 1.249 . S
C83 O103 1.252 . S
C84 C83 1.510 . S
C84 C85 1.404 . S
C84 C86 1.352 . S
C85 C84 1.404 . S
C85 C89 1.389 . S
C85 H112 0.930 1_554 S
C86 C84 1.352 . S
C86 C88 1.374 . S
C86 H113 0.931 . S
C87 C88 1.359 . S
C87 C89 1.364 . S
C88 C86 1.374 . S
C88 C87 1.359 . S
C88 H114 0.931 . S
C89 C85 1.389 . S
C89 C87 1.364 . S
C89 H115 0.931 1_544 S
C90 O104 1.256 . S
C90 O105 1.257 1_556 S
C91 O106 1.240 . S
C91 O107 1.240 . S
C92 Gd81 2.818 . S
C92 C93 1.510 . S
C92 O108 1.249 . S
C92 O109 1.252 . S
C93 C92 1.510 . S
C93 C94 1.404 . S
C93 C95 1.352 . S
C94 C93 1.404 . S
C94 C98 1.389 . S
C94 H116 0.930 . S
C95 C93 1.352 . S
C95 C97 1.374 . S
C95 H117 0.931 . S
C96 C97 1.359 . S
C96 C98 1.364 . S
C97 C95 1.374 . S
C97 C96 1.359 . S
C97 H118 0.931 . S
C98 C94 1.389 . S
C98 C96 1.364 . S
C98 H119 0.931 . S
C99 O110 1.256 . S
C99 O111 1.257 . S
O100 Gd80 2.377 . S
O100 C82 1.240 . S
O101 Gd81 2.395 . S
O101 C82 1.240 . S
O102 Gd80 2.448 . S
O102 C83 1.249 . S
O103 Gd80 2.506 . S
O103 C83 1.252 . S
O104 Gd80 2.435 1_556 S
O104 C90 1.256 . S
O105 Gd80 2.717 . S
O105 Gd81 2.327 . S
O105 C90 1.257 1_554 S
O106 Gd81 2.377 . S
O106 C91 1.240 . S
O107 Gd80 2.395 . S
O107 C91 1.240 . S
O108 Gd81 2.448 . S
O108 C92 1.249 . S
O109 Gd81 2.506 . S
O109 C92 1.252 . S
O110 Gd81 2.435 . S
O110 C99 1.256 . S
O111 Gd80 2.327 . S
O111 Gd81 2.717 . S
O111 C99 1.257 . S
H112 C85 0.930 1_556 S
H113 C86 0.931 . S
H114 C88 0.931 . S
H115 C89 0.931 1_566 S
H116 C94 0.930 . S
H117 C95 0.931 . S
H118 C97 0.931 . S
H119 C98 0.931 . S
Gd120 C123 2.818 . S
Gd120 O140 2.377 . S
Gd120 O142 2.448 . S
Gd120 O143 2.506 . S
Gd120 O144 2.435 . S
Gd120 O145 2.717 . S
Gd120 O147 2.395 . S
Gd120 O151 2.327 . S
Gd121 C132 2.818 . S
Gd121 O141 2.395 . S
Gd121 O145 2.327 . S
Gd121 O146 2.377 . S
Gd121 O148 2.448 . S
Gd121 O149 2.506 . S
Gd121 O150 2.435 . S
Gd121 O151 2.717 . S
C122 O140 1.240 . S
C122 O141 1.240 . S
C123 Gd120 2.818 . S
C123 C124 1.510 . S
C123 O142 1.249 . S
C123 O143 1.252 . S
C124 C123 1.510 . S
C124 C125 1.404 . S
C124 C126 1.352 . S
C125 C124 1.404 . S
C125 C129 1.389 . S
C125 H152 0.930 . S
C126 C124 1.352 . S
C126 C128 1.374 . S
C126 H153 0.931 . S
C127 C128 1.359 . S
C127 C129 1.364 . S
C128 C126 1.374 . S
C128 C127 1.359 . S
C128 H154 0.931 . S
C129 C125 1.389 . S
C129 C127 1.364 . S
C129 H155 0.931 . S
C130 O144 1.256 . S
C130 O145 1.257 . S
C131 O146 1.240 . S
C131 O147 1.240 . S
C132 Gd121 2.818 . S
C132 C133 1.510 . S
C132 O148 1.249 . S
C132 O149 1.252 . S
C133 C132 1.510 . S
C133 C134 1.404 . S
C133 C135 1.352 . S
C134 C133 1.404 . S
C134 C138 1.389 . S
C134 H156 0.930 . S
C135 C133 1.352 . S
C135 C137 1.374 1_565 S
C135 H157 0.931 . S
C136 C137 1.359 . S
C136 C138 1.364 1_545 S
C137 C135 1.374 1_545 S
C137 C136 1.359 . S
C137 H158 0.931 . S
C138 C134 1.389 . S
C138 C136 1.364 1_565 S
C138 H159 0.931 . S
C139 O150 1.256 . S
C139 O151 1.257 . S
O140 Gd120 2.377 . S
O140 C122 1.240 . S
O141 Gd121 2.395 . S
O141 C122 1.240 . S
O142 Gd120 2.448 . S
O142 C123 1.249 . S
O143 Gd120 2.506 . S
O143 C123 1.252 . S
O144 Gd120 2.435 . S
O144 C130 1.256 . S
O145 Gd120 2.717 . S
O145 Gd121 2.327 . S
O145 C130 1.257 . S
O146 Gd121 2.377 . S
O146 C131 1.240 . S
O147 Gd120 2.395 . S
O147 C131 1.240 . S
O148 Gd121 2.448 . S
O148 C132 1.249 . S
O149 Gd121 2.506 . S
O149 C132 1.252 . S
O150 Gd121 2.435 . S
O150 C139 1.256 . S
O151 Gd120 2.327 . S
O151 Gd121 2.717 . S
O151 C139 1.257 . S
H152 C125 0.930 . S
H153 C126 0.931 . S
H154 C128 0.931 . S
H155 C129 0.931 . S
H156 C134 0.930 . S
H157 C135 0.931 . S
H158 C137 0.931 . S
H159 C138 0.931 . S
Gd160 C163 2.818 . S
Gd160 O180 2.377 . S
Gd160 O182 2.448 . S
Gd160 O183 2.506 . S
Gd160 O184 2.435 . S
Gd160 O185 2.717 . S
Gd160 O187 2.395 . S
Gd160 O191 2.327 . S
Gd161 C172 2.818 . S
Gd161 O181 2.395 . S
Gd161 O185 2.327 . S
Gd161 O186 2.377 . S
Gd161 O188 2.448 . S
Gd161 O189 2.506 . S
Gd161 O190 2.435 . S
Gd161 O191 2.717 . S
C162 O180 1.240 . S
C162 O181 1.240 . S
C163 Gd160 2.818 . S
C163 C164 1.510 . S
C163 O182 1.249 . S
C163 O183 1.252 . S
C164 C163 1.510 . S
C164 C165 1.404 . S
C164 C166 1.352 . S
C165 C164 1.404 . S
C165 C169 1.389 . S
C165 H192 0.930 . S
C166 C164 1.352 . S
C166 C168 1.374 . S
C166 H193 0.931 . S
C167 C168 1.359 . S
C167 C169 1.364 . S
C168 C166 1.374 . S
C168 C167 1.359 . S
C168 H194 0.931 . S
C169 C165 1.389 . S
C169 C167 1.364 . S
C169 H195 0.931 . S
C170 O184 1.256 . S
C170 O185 1.257 . S
C171 O186 1.240 . S
C171 O187 1.240 . S
C172 Gd161 2.818 . S
C172 C173 1.510 . S
C172 O188 1.249 . S
C172 O189 1.252 . S
C173 C172 1.510 . S
C173 C174 1.404 . S
C173 C175 1.352 . S
C174 C173 1.404 . S
C174 C178 1.389 . S
C174 H196 0.930 . S
C175 C173 1.352 . S
C175 C177 1.374 . S
C175 H197 0.931 . S
C176 C177 1.359 . S
C176 C178 1.364 . S
C177 C175 1.374 . S
C177 C176 1.359 . S
C177 H198 0.931 . S
C178 C174 1.389 . S
C178 C176 1.364 . S
C178 H199 0.931 . S
C179 O190 1.256 . S
C179 O191 1.257 . S
O180 Gd160 2.377 . S
O180 C162 1.240 . S
O181 Gd161 2.395 . S
O181 C162 1.240 . S
O182 Gd160 2.448 . S
O182 C163 1.249 . S
O183 Gd160 2.506 . S
O183 C163 1.252 . S
O184 Gd160 2.435 . S
O184 C170 1.256 . S
O185 Gd160 2.717 . S
O185 Gd161 2.327 . S
O185 C170 1.257 . S
O186 Gd161 2.377 . S
O186 C171 1.240 . S
O187 Gd160 2.395 . S
O187 C171 1.240 . S
O188 Gd161 2.448 . S
O188 C172 1.249 . S
O189 Gd161 2.506 . S
O189 C172 1.252 . S
O190 Gd161 2.435 . S
O190 C179 1.256 . S
O191 Gd160 2.327 . S
O191 Gd161 2.717 . S
O191 C179 1.257 . S
H192 C165 0.930 . S
H193 C166 0.931 . S
H194 C168 0.931 . S
H195 C169 0.931 . S
H196 C174 0.930 . S
H197 C175 0.931 . S
H198 C177 0.931 . S
H199 C178 0.931 . S
Gd200 C203 2.818 . S
Gd200 O220 2.377 . S
Gd200 O222 2.448 . S
Gd200 O223 2.506 . S
Gd200 O224 2.435 . S
Gd200 O225 2.717 . S
Gd200 O227 2.395 . S
Gd200 O231 2.327 . S
Gd201 C212 2.818 . S
Gd201 O221 2.395 . S
Gd201 O225 2.327 . S
Gd201 O226 2.377 . S
Gd201 O228 2.448 . S
Gd201 O229 2.506 . S
Gd201 O230 2.435 . S
Gd201 O231 2.717 . S
C202 O220 1.240 . S
C202 O221 1.240 . S
C203 Gd200 2.818 . S
C203 C204 1.510 . S
C203 O222 1.249 . S
C203 O223 1.252 . S
C204 C203 1.510 . S
C204 C205 1.404 . S
C204 C206 1.352 . S
C205 C204 1.404 . S
C205 C209 1.389 . S
C205 H232 0.930 . S
C206 C204 1.352 . S
C206 C208 1.374 . S
C206 H233 0.931 . S
C207 C208 1.359 . S
C207 C209 1.364 . S
C208 C206 1.374 . S
C208 C207 1.359 . S
C208 H234 0.931 . S
C209 C205 1.389 . S
C209 C207 1.364 . S
C209 H235 0.931 . S
C210 O224 1.256 . S
C210 O225 1.257 . S
C211 O226 1.240 . S
C211 O227 1.240 . S
C212 Gd201 2.818 . S
C212 C213 1.510 . S
C212 O228 1.249 . S
C212 O229 1.252 . S
C213 C212 1.510 . S
C213 C214 1.404 . S
C213 C215 1.352 . S
C214 C213 1.404 . S
C214 C218 1.389 . S
C214 H236 0.930 . S
C215 C213 1.352 . S
C215 C217 1.374 . S
C215 H237 0.931 . S
C216 C217 1.359 . S
C216 C218 1.364 . S
C217 C215 1.374 . S
C217 C216 1.359 . S
C217 H238 0.931 . S
C218 C214 1.389 . S
C218 C216 1.364 . S
C218 H239 0.931 . S
C219 O230 1.256 . S
C219 O231 1.257 . S
O220 Gd200 2.377 . S
O220 C202 1.240 . S
O221 Gd201 2.395 . S
O221 C202 1.240 . S
O222 Gd200 2.448 . S
O222 C203 1.249 . S
O223 Gd200 2.506 . S
O223 C203 1.252 . S
O224 Gd200 2.435 . S
O224 C210 1.256 . S
O225 Gd200 2.717 . S
O225 Gd201 2.327 . S
O225 C210 1.257 . S
O226 Gd201 2.377 . S
O226 C211 1.240 . S
O227 Gd200 2.395 . S
O227 C211 1.240 . S
O228 Gd201 2.448 . S
O228 C212 1.249 . S
O229 Gd201 2.506 . S
O229 C212 1.252 . S
O230 Gd201 2.435 . S
O230 C219 1.256 . S
O231 Gd200 2.327 . S
O231 Gd201 2.717 . S
O231 C219 1.257 . S
H232 C205 0.930 . S
H233 C206 0.931 . S
H234 C208 0.931 . S
H235 C209 0.931 . S
H236 C214 0.930 . S
H237 C215 0.931 . S
H238 C217 0.931 . S
H239 C218 0.931 . S
Gd240 C243 2.818 . S
Gd240 O260 2.377 . S
Gd240 O262 2.448 . S
Gd240 O263 2.506 . S
Gd240 O264 2.435 . S
Gd240 O265 2.717 . S
Gd240 O267 2.395 . S
Gd240 O271 2.327 . S
Gd241 C252 2.818 . S
Gd241 O261 2.395 . S
Gd241 O265 2.327 . S
Gd241 O266 2.377 . S
Gd241 O268 2.448 . S
Gd241 O269 2.506 . S
Gd241 O270 2.435 . S
Gd241 O271 2.717 . S
C242 O260 1.240 . S
C242 O261 1.240 . S
C243 Gd240 2.818 . S
C243 C244 1.510 . S
C243 O262 1.249 . S
C243 O263 1.252 . S
C244 C243 1.510 . S
C244 C245 1.404 . S
C244 C246 1.352 . S
C245 C244 1.404 . S
C245 C249 1.389 . S
C245 H272 0.930 . S
C246 C244 1.352 . S
C246 C248 1.374 . S
C246 H273 0.931 . S
C247 C248 1.359 . S
C247 C249 1.364 . S
C248 C246 1.374 . S
C248 C247 1.359 . S
C248 H274 0.931 . S
C249 C245 1.389 . S
C249 C247 1.364 . S
C249 H275 0.931 . S
C250 O264 1.256 . S
C250 O265 1.257 . S
C251 O266 1.240 . S
C251 O267 1.240 . S
C252 Gd241 2.818 . S
C252 C253 1.510 1_556 S
C252 O268 1.249 . S
C252 O269 1.252 . S
C253 C252 1.510 1_554 S
C253 C254 1.404 . S
C253 C255 1.352 . S
C254 C253 1.404 . S
C254 C258 1.389 . S
C254 H276 0.930 . S
C255 C253 1.352 . S
C255 C257 1.374 . S
C255 H277 0.931 . S
C256 C257 1.359 . S
C256 C258 1.364 . S
C257 C255 1.374 . S
C257 C256 1.359 . S
C257 H278 0.931 . S
C258 C254 1.389 . S
C258 C256 1.364 . S
C258 H279 0.931 . S
C259 O270 1.256 . S
C259 O271 1.257 . S
O260 Gd240 2.377 . S
O260 C242 1.240 . S
O261 Gd241 2.395 . S
O261 C242 1.240 . S
O262 Gd240 2.448 . S
O262 C243 1.249 . S
O263 Gd240 2.506 . S
O263 C243 1.252 . S
O264 Gd240 2.435 . S
O264 C250 1.256 . S
O265 Gd240 2.717 . S
O265 Gd241 2.327 . S
O265 C250 1.257 . S
O266 Gd241 2.377 . S
O266 C251 1.240 . S
O267 Gd240 2.395 . S
O267 C251 1.240 . S
O268 Gd241 2.448 . S
O268 C252 1.249 . S
O269 Gd241 2.506 . S
O269 C252 1.252 . S
O270 Gd241 2.435 . S
O270 C259 1.256 . S
O271 Gd240 2.327 . S
O271 Gd241 2.717 . S
O271 C259 1.257 . S
H272 C245 0.930 . S
H273 C246 0.931 . S
H274 C248 0.931 . S
H275 C249 0.931 . S
H276 C254 0.930 . S
H277 C255 0.931 . S
H278 C257 0.931 . S
H279 C258 0.931 . S
Gd280 C283 2.818 . S
Gd280 O300 2.377 . S
Gd280 O302 2.448 . S
Gd280 O303 2.506 . S
Gd280 O304 2.435 . S
Gd280 O305 2.717 . S
Gd280 O307 2.395 . S
Gd280 O311 2.327 . S
Gd281 C292 2.818 . S
Gd281 O301 2.395 . S
Gd281 O305 2.327 . S
Gd281 O306 2.377 . S
Gd281 O308 2.448 . S
Gd281 O309 2.506 . S
Gd281 O310 2.435 . S
Gd281 O311 2.717 . S
C282 O300 1.240 . S
C282 O301 1.240 . S
C283 Gd280 2.818 . S
C283 C284 1.510 1_556 S
C283 O302 1.249 . S
C283 O303 1.252 . S
C284 C283 1.510 1_554 S
C284 C285 1.404 . S
C284 C286 1.352 . S
C285 C284 1.404 . S
C285 C289 1.389 . S
C285 H312 0.930 . S
C286 C284 1.352 . S
C286 C288 1.374 . S
C286 H313 0.931 . S
C287 C288 1.359 . S
C287 C289 1.364 . S
C288 C286 1.374 . S
C288 C287 1.359 . S
C288 H314 0.931 . S
C289 C285 1.389 . S
C289 C287 1.364 . S
C289 H315 0.931 . S
C290 O304 1.256 . S
C290 O305 1.257 . S
C291 O306 1.240 . S
C291 O307 1.240 . S
C292 Gd281 2.818 . S
C292 C293 1.510 . S
C292 O308 1.249 . S
C292 O309 1.252 . S
C293 C292 1.510 . S
C293 C294 1.404 . S
C293 C295 1.352 . S
C294 C293 1.404 . S
C294 C298 1.389 . S
C294 H316 0.930 . S
C295 C293 1.352 . S
C295 C297 1.374 . S
C295 H317 0.931 . S
C296 C297 1.359 . S
C296 C298 1.364 . S
C297 C295 1.374 . S
C297 C296 1.359 . S
C297 H318 0.931 . S
C298 C294 1.389 . S
C298 C296 1.364 . S
C298 H319 0.931 . S
C299 O310 1.256 . S
C299 O311 1.257 . S
O300 Gd280 2.377 . S
O300 C282 1.240 . S
O301 Gd281 2.395 . S
O301 C282 1.240 . S
O302 Gd280 2.448 . S
O302 C283 1.249 . S
O303 Gd280 2.506 . S
O303 C283 1.252 . S
O304 Gd280 2.435 . S
O304 C290 1.256 . S
O305 Gd280 2.717 . S
O305 Gd281 2.327 . S
O305 C290 1.257 . S
O306 Gd281 2.377 . S
O306 C291 1.240 . S
O307 Gd280 2.395 . S
O307 C291 1.240 . S
O308 Gd281 2.448 . S
O308 C292 1.249 . S
O309 Gd281 2.506 . S
O309 C292 1.252 . S
O310 Gd281 2.435 . S
O310 C299 1.256 . S
O311 Gd280 2.327 . S
O311 Gd281 2.717 . S
O311 C299 1.257 . S
H312 C285 0.930 . S
H313 C286 0.931 . S
H314 C288 0.931 . S
H315 C289 0.931 . S
H316 C294 0.930 . S
H317 C295 0.931 . S
H318 C297 0.931 . S
H319 C298 0.931 . S
Gd320 C323 2.818 . S
Gd320 O340 2.377 . S
Gd320 O342 2.448 . S
Gd320 O343 2.506 . S
Gd320 O344 2.435 . S
Gd320 O345 2.717 . S
Gd320 O347 2.395 . S
Gd320 O351 2.327 . S
Gd321 C332 2.818 . S
Gd321 O341 2.395 . S
Gd321 O345 2.327 . S
Gd321 O346 2.377 . S
Gd321 O348 2.448 . S
Gd321 O349 2.506 . S
Gd321 O350 2.435 . S
Gd321 O351 2.717 . S
C322 O340 1.240 . S
C322 O341 1.240 . S
C323 Gd320 2.818 . S
C323 C324 1.510 . S
C323 O342 1.249 . S
C323 O343 1.252 . S
C324 C323 1.510 . S
C324 C325 1.404 . S
C324 C326 1.352 . S
C325 C324 1.404 . S
C325 C329 1.389 . S
C325 H352 0.930 . S
C326 C324 1.352 . S
C326 C328 1.374 . S
C326 H353 0.931 . S
C327 C328 1.359 . S
C327 C329 1.364 . S
C328 C326 1.374 . S
C328 C327 1.359 . S
C328 H354 0.931 . S
C329 C325 1.389 . S
C329 C327 1.364 . S
C329 H355 0.931 . S
C330 O344 1.256 . S
C330 O345 1.257 . S
C331 O346 1.240 . S
C331 O347 1.240 . S
C332 Gd321 2.818 . S
C332 C333 1.510 1_556 S
C332 O348 1.249 . S
C332 O349 1.252 . S
C333 C332 1.510 1_554 S
C333 C334 1.404 . S
C333 C335 1.352 . S
C334 C333 1.404 . S
C334 C338 1.389 . S
C334 H356 0.930 . S
C335 C333 1.352 . S
C335 C337 1.374 . S
C335 H357 0.931 . S
C336 C337 1.359 . S
C336 C338 1.364 . S
C337 C335 1.374 . S
C337 C336 1.359 . S
C337 H358 0.931 . S
C338 C334 1.389 . S
C338 C336 1.364 . S
C338 H359 0.931 . S
C339 O350 1.256 . S
C339 O351 1.257 . S
O340 Gd320 2.377 . S
O340 C322 1.240 . S
O341 Gd321 2.395 . S
O341 C322 1.240 . S
O342 Gd320 2.448 . S
O342 C323 1.249 . S
O343 Gd320 2.506 . S
O343 C323 1.252 . S
O344 Gd320 2.435 . S
O344 C330 1.256 . S
O345 Gd320 2.717 . S
O345 Gd321 2.327 . S
O345 C330 1.257 . S
O346 Gd321 2.377 . S
O346 C331 1.240 . S
O347 Gd320 2.395 . S
O347 C331 1.240 . S
O348 Gd321 2.448 . S
O348 C332 1.249 . S
O349 Gd321 2.506 . S
O349 C332 1.252 . S
O350 Gd321 2.435 . S
O350 C339 1.256 . S
O351 Gd320 2.327 . S
O351 Gd321 2.717 . S
O351 C339 1.257 . S
H352 C325 0.930 . S
H353 C326 0.931 . S
H354 C328 0.931 . S
H355 C329 0.931 . S
H356 C334 0.930 . S
H357 C335 0.931 . S
H358 C337 0.931 . S
H359 C338 0.931 . S
C360 C361 1.363 . S
C360 C366 1.379 . S
C360 N368 1.356 . S
C361 C360 1.363 . S
C361 C367 1.363 . S
C362 C363 1.363 . S
C362 C367 1.379 . S
C362 N369 1.356 . S
C363 C362 1.363 . S
C363 C366 1.363 . S
N364 C366 1.356 . S
N364 H376 0.984 . S
N364 H377 0.985 . S
N365 C367 1.356 . S
N365 H370 0.984 . S
N365 H371 0.985 . S
C366 C360 1.379 . S
C366 C363 1.363 . S
C366 N364 1.356 . S
C367 C361 1.363 . S
C367 C362 1.379 . S
C367 N365 1.356 . S
N368 C360 1.356 . S
N368 H374 0.984 . S
N368 H375 0.984 . S
N369 C362 1.356 . S
N369 H372 0.984 . S
N369 H373 0.985 . S
H370 N365 0.984 . S
H371 N365 0.985 . S
H372 N369 0.984 . S
H373 N369 0.985 . S
H374 N368 0.984 . S
H375 N368 0.984 . S
H376 N364 0.984 . S
H377 N364 0.985 . S
C378 C379 1.363 . S
C378 C384 1.379 . S
C378 N386 1.356 . S
C379 C378 1.363 . S
C379 C385 1.363 . S
C380 C381 1.363 . S
C380 C385 1.379 . S
C380 N387 1.356 . S
C381 C380 1.363 . S
C381 C384 1.363 . S
N382 C384 1.356 . S
N382 H394 0.984 . S
N382 H395 0.985 . S
N383 C385 1.356 . S
N383 H388 0.984 . S
N383 H389 0.985 . S
C384 C378 1.379 . S
C384 C381 1.363 . S
C384 N382 1.356 . S
C385 C379 1.363 . S
C385 C380 1.379 . S
C385 N383 1.356 . S
N386 C378 1.356 . S
N386 H392 0.984 . S
N386 H393 0.984 . S
N387 C380 1.356 . S
N387 H390 0.984 . S
N387 H391 0.985 . S
H388 N383 0.984 . S
H389 N383 0.985 . S
H390 N387 0.984 . S
H391 N387 0.985 . S
H392 N386 0.984 . S
H393 N386 0.984 . S
H394 N382 0.984 . S
H395 N382 0.985 . S
C396 C397 1.363 . S
C396 C402 1.379 . S
C396 N404 1.356 . S
C397 C396 1.363 . S
C397 C403 1.363 . S
C398 C399 1.363 . S
C398 C403 1.379 . S
C398 N405 1.356 . S
C399 C398 1.363 . S
C399 C402 1.363 . S
N400 C402 1.356 . S
N400 H412 0.984 . S
N400 H413 0.985 . S
N401 C403 1.356 . S
N401 H406 0.984 . S
N401 H407 0.985 . S
C402 C396 1.379 . S
C402 C399 1.363 . S
C402 N400 1.356 . S
C403 C397 1.363 . S
C403 C398 1.379 . S
C403 N401 1.356 . S
N404 C396 1.356 . S
N404 H410 0.984 . S
N404 H411 0.984 . S
N405 C398 1.356 . S
N405 H408 0.984 . S
N405 H409 0.985 . S
H406 N401 0.984 . S
H407 N401 0.985 . S
H408 N405 0.984 . S
H409 N405 0.985 . S
H410 N404 0.984 . S
H411 N404 0.984 . S
H412 N400 0.984 . S
H413 N400 0.985 . S
C414 C415 1.363 . S
C414 C420 1.379 . S
C414 N422 1.356 . S
C415 C414 1.363 . S
C415 C421 1.363 . S
C416 C417 1.363 . S
C416 C421 1.379 . S
C416 N423 1.356 . S
C417 C416 1.363 . S
C417 C420 1.363 . S
N418 C420 1.356 . S
N418 H430 0.984 . S
N418 H431 0.985 . S
N419 C421 1.356 . S
N419 H424 0.984 . S
N419 H425 0.985 . S
C420 C414 1.379 . S
C420 C417 1.363 . S
C420 N418 1.356 . S
C421 C415 1.363 . S
C421 C416 1.379 . S
C421 N419 1.356 . S
N422 C414 1.356 . S
N422 H428 0.984 . S
N422 H429 0.984 . S
N423 C416 1.356 . S
N423 H426 0.984 1_556 S
N423 H427 0.985 . S
H424 N419 0.984 . S
H425 N419 0.985 . S
H426 N423 0.984 1_554 S
H427 N423 0.985 . S
H428 N422 0.984 . S
H429 N422 0.984 . S
H430 N418 0.984 . S
H431 N418 0.985 . S
C432 C433 1.363 . S
C432 C438 1.379 . S
C432 N440 1.356 . S
C433 C432 1.363 . S
C433 C439 1.363 . S
C434 C435 1.363 . S
C434 C439 1.379 . S
C434 N441 1.356 . S
C435 C434 1.363 . S
C435 C438 1.363 . S
N436 C438 1.356 . S
N436 H448 0.984 . S
N436 H449 0.985 . S
N437 C439 1.356 . S
N437 H442 0.984 . S
N437 H443 0.985 . S
C438 C432 1.379 . S
C438 C435 1.363 . S
C438 N436 1.356 . S
C439 C433 1.363 . S
C439 C434 1.379 . S
C439 N437 1.356 . S
N440 C432 1.356 . S
N440 H446 0.984 . S
N440 H447 0.984 . S
N441 C434 1.356 . S
N441 H444 0.984 . S
N441 H445 0.985 . S
H442 N437 0.984 . S
H443 N437 0.985 . S
H444 N441 0.984 . S
H445 N441 0.985 . S
H446 N440 0.984 . S
H447 N440 0.984 . S
H448 N436 0.984 . S
H449 N436 0.985 . S
C450 C451 1.363 . S
C450 C456 1.379 . S
C450 N458 1.356 . S
C451 C450 1.363 . S
C451 C457 1.363 . S
C452 C453 1.363 . S
C452 C457 1.379 . S
C452 N459 1.356 . S
C453 C452 1.363 . S
C453 C456 1.363 . S
N454 C456 1.356 . S
N454 H466 0.984 . S
N454 H467 0.985 . S
N455 C457 1.356 . S
N455 H460 0.984 . S
N455 H461 0.985 . S
C456 C450 1.379 . S
C456 C453 1.363 . S
C456 N454 1.356 . S
C457 C451 1.363 . S
C457 C452 1.379 . S
C457 N455 1.356 . S
N458 C450 1.356 . S
N458 H464 0.984 . S
N458 H465 0.984 . S
N459 C452 1.356 . S
N459 H462 0.984 . S
N459 H463 0.985 . S
H460 N455 0.984 . S
H461 N455 0.985 . S
H462 N459 0.984 . S
H463 N459 0.985 . S
H464 N458 0.984 . S
H465 N458 0.984 . S
H466 N454 0.984 . S
H467 N454 0.985 . S
C468 C469 1.363 . S
C468 C474 1.379 . S
C468 N476 1.356 . S
C469 C468 1.363 . S
C469 C475 1.363 . S
C470 C471 1.363 . S
C470 C475 1.379 . S
C470 N477 1.356 . S
C471 C470 1.363 . S
C471 C474 1.363 . S
N472 C474 1.356 . S
N472 H484 0.984 . S
N472 H485 0.985 . S
N473 C475 1.356 . S
N473 H478 0.984 . S
N473 H479 0.985 . S
C474 C468 1.379 . S
C474 C471 1.363 . S
C474 N472 1.356 . S
C475 C469 1.363 . S
C475 C470 1.379 . S
C475 N473 1.356 . S
N476 C468 1.356 . S
N476 H482 0.984 . S
N476 H483 0.984 . S
N477 C470 1.356 . S
N477 H480 0.984 . S
N477 H481 0.985 . S
H478 N473 0.984 . S
H479 N473 0.985 . S
H480 N477 0.984 . S
H481 N477 0.985 . S
H482 N476 0.984 . S
H483 N476 0.984 . S
H484 N472 0.984 . S
H485 N472 0.985 . S
C486 C487 1.363 . S
C486 C492 1.379 . S
C486 N494 1.356 . S
C487 C486 1.363 . S
C487 C493 1.363 . S
C488 C489 1.363 . S
C488 C493 1.379 . S
C488 N495 1.356 . S
C489 C488 1.363 . S
C489 C492 1.363 . S
N490 C492 1.356 . S
N490 H502 0.984 . S
N490 H503 0.985 . S
N491 C493 1.356 . S
N491 H496 0.984 . S
N491 H497 0.985 . S
C492 C486 1.379 . S
C492 C489 1.363 . S
C492 N490 1.356 . S
C493 C487 1.363 . S
C493 C488 1.379 . S
C493 N491 1.356 . S
N494 C486 1.356 . S
N494 H500 0.984 . S
N494 H501 0.984 . S
N495 C488 1.356 . S
N495 H498 0.984 . S
N495 H499 0.985 . S
H496 N491 0.984 . S
H497 N491 0.985 . S
H498 N495 0.984 . S
H499 N495 0.985 . S
H500 N494 0.984 . S
H501 N494 0.984 . S
H502 N490 0.984 . S
H503 N490 0.985 . S
C504 C505 1.363 . S
C504 C510 1.379 . S
C504 N512 1.356 . S
C505 C504 1.363 . S
C505 C511 1.363 . S
C506 C507 1.363 . S
C506 C511 1.379 . S
C506 N513 1.356 . S
C507 C506 1.363 . S
C507 C510 1.363 . S
N508 C510 1.356 . S
N508 H520 0.984 . S
N508 H521 0.985 . S
N509 C511 1.356 . S
N509 H514 0.984 . S
N509 H515 0.985 . S
C510 C504 1.379 . S
C510 C507 1.363 . S
C510 N508 1.356 . S
C511 C505 1.363 . S
C511 C506 1.379 . S
C511 N509 1.356 . S
N512 C504 1.356 . S
N512 H518 0.984 . S
N512 H519 0.984 . S
N513 C506 1.356 . S
N513 H516 0.984 . S
N513 H517 0.985 . S
H514 N509 0.984 . S
H515 N509 0.985 . S
H516 N513 0.984 . S
H517 N513 0.985 . S
H518 N512 0.984 . S
H519 N512 0.984 . S
H520 N508 0.984 . S
H521 N508 0.985 . S
C522 C523 1.363 . S
C522 C528 1.379 . S
C522 N530 1.356 . S
C523 C522 1.363 . S
C523 C529 1.363 . S
C524 C525 1.363 . S
C524 C529 1.379 . S
C524 N531 1.356 . S
C525 C524 1.363 . S
C525 C528 1.363 . S
N526 C528 1.356 . S
N526 H538 0.984 1_554 S
N526 H539 0.985 . S
N527 C529 1.356 . S
N527 H532 0.984 . S
N527 H533 0.985 . S
C528 C522 1.379 . S
C528 C525 1.363 . S
C528 N526 1.356 . S
C529 C523 1.363 . S
C529 C524 1.379 . S
C529 N527 1.356 . S
N530 C522 1.356 . S
N530 H536 0.984 1_554 S
N530 H537 0.984 . S
N531 C524 1.356 . S
N531 H534 0.984 . S
N531 H535 0.985 . S
H532 N527 0.984 . S
H533 N527 0.985 . S
H534 N531 0.984 . S
H535 N531 0.985 . S
H536 N530 0.984 1_556 S
H537 N530 0.984 . S
H538 N526 0.984 1_556 S
H539 N526 0.985 . S
C540 C541 1.363 . S
C540 C546 1.379 . S
C540 N548 1.356 . S
C541 C540 1.363 . S
C541 C547 1.363 . S
C542 C543 1.363 . S
C542 C547 1.379 . S
C542 N549 1.356 . S
C543 C542 1.363 . S
C543 C546 1.363 . S
N544 C546 1.356 . S
N544 H556 0.984 . S
N544 H557 0.985 . S
N545 C547 1.356 . S
N545 H550 0.984 . S
N545 H551 0.985 . S
C546 C540 1.379 . S
C546 C543 1.363 . S
C546 N544 1.356 . S
C547 C541 1.363 . S
C547 C542 1.379 . S
C547 N545 1.356 . S
N548 C540 1.356 . S
N548 H554 0.984 . S
N548 H555 0.984 . S
N549 C542 1.356 . S
N549 H552 0.984 . S
N549 H553 0.985 . S
H550 N545 0.984 . S
H551 N545 0.985 . S
H552 N549 0.984 . S
H553 N549 0.985 . S
H554 N548 0.984 . S
H555 N548 0.984 . S
H556 N544 0.984 . S
H557 N544 0.985 . S
C558 C559 1.363 . S
C558 C564 1.379 1_545 S
C558 N566 1.356 . S
C559 C558 1.363 . S
C559 C565 1.363 1_545 S
C560 C561 1.363 . S
C560 C565 1.379 . S
C560 N567 1.356 . S
C561 C560 1.363 . S
C561 C564 1.363 . S
N562 C564 1.356 . S
N562 H574 0.984 . S
N562 H575 0.985 . S
N563 C565 1.355 1_545 S
N563 H568 0.985 1_554 S
N563 H569 0.985 1_544 S
C564 C558 1.379 1_565 S
C564 C561 1.363 . S
C564 N562 1.356 . S
C565 C559 1.363 1_565 S
C565 C560 1.379 . S
C565 N563 1.355 1_565 S
N566 C558 1.356 . S
N566 H572 0.984 . S
N566 H573 0.984 . S
N567 C560 1.356 . S
N567 H570 0.984 . S
N567 H571 0.985 . S
H568 N563 0.985 1_556 S
H569 N563 0.985 1_566 S
H570 N567 0.984 . S
H571 N567 0.985 . S
H572 N566 0.984 . S
H573 N566 0.984 . S
H574 N562 0.984 . S
H575 N562 0.985 . S
C576 C577 1.363 . S
C576 C582 1.379 1_554 S
C576 N584 1.356 . S
C577 C576 1.363 . S
C577 C583 1.363 1_554 S
C578 C579 1.363 . S
C578 C583 1.379 . S
C578 N585 1.356 . S
C579 C578 1.363 . S
C579 C582 1.363 . S
N580 C582 1.356 . S
N580 H592 0.984 1_556 S
N580 H593 0.985 . S
N581 C583 1.356 . S
N581 H586 0.984 1_556 S
N581 H587 0.985 . S
C582 C576 1.379 1_556 S
C582 C579 1.363 . S
C582 N580 1.356 . S
C583 C577 1.363 1_556 S
C583 C578 1.379 . S
C583 N581 1.356 . S
N584 C576 1.356 . S
N584 H590 0.984 . S
N584 H591 0.984 . S
N585 C578 1.356 . S
N585 H588 0.984 . S
N585 H589 0.985 . S
H586 N581 0.984 1_554 S
H587 N581 0.985 . S
H588 N585 0.984 . S
H589 N585 0.985 . S
H590 N584 0.984 . S
H591 N584 0.984 . S
H592 N580 0.984 1_554 S
H593 N580 0.985 . S
C594 C595 1.363 . S
C594 C600 1.379 . S
C594 N602 1.356 . S
C595 C594 1.363 . S
C595 C601 1.363 . S
C596 C597 1.363 1_455 S
C596 C601 1.379 1_455 S
C596 N603 1.356 . S
C597 C596 1.363 1_655 S
C597 C600 1.363 . S
N598 C600 1.356 1_554 S
N598 H610 0.984 . S
N598 H611 0.985 . S
N599 C601 1.356 . S
N599 H604 0.984 . S
N599 H605 0.985 1_655 S
C600 C594 1.379 . S
C600 C597 1.363 . S
C600 N598 1.356 1_556 S
C601 C595 1.363 . S
C601 C596 1.379 1_655 S
C601 N599 1.356 . S
N602 C594 1.356 . S
N602 H608 0.984 . S
N602 H609 0.984 . S
N603 C596 1.356 . S
N603 H606 0.984 . S
N603 H607 0.985 . S
H604 N599 0.984 . S
H605 N599 0.985 1_455 S
H606 N603 0.984 . S
H607 N603 0.985 . S
H608 N602 0.984 . S
H609 N602 0.984 . S
H610 N598 0.984 . S
H611 N598 0.985 . S
C612 C613 1.363 . S
C612 C618 1.379 1_556 S
C612 N620 1.356 . S
C613 C612 1.363 . S
C613 C619 1.363 . S
C614 C615 1.363 1_556 S
C614 C619 1.379 . S
C614 N621 1.356 . S
C615 C614 1.363 1_554 S
C615 C618 1.363 . S
N616 C618 1.356 . S
N616 H628 0.984 . S
N616 H629 0.985 . S
N617 C619 1.356 . S
N617 H622 0.984 . S
N617 H623 0.985 . S
C618 C612 1.379 1_554 S
C618 C615 1.363 . S
C618 N616 1.356 . S
C619 C613 1.363 . S
C619 C614 1.379 . S
C619 N617 1.356 . S
N620 C612 1.356 . S
N620 H626 0.984 . S
N620 H627 0.984 . S
N621 C614 1.356 . S
N621 H624 0.984 1_556 S
N621 H625 0.985 . S
H622 N617 0.984 . S
H623 N617 0.985 . S
H624 N621 0.984 1_554 S
H625 N621 0.985 . S
H626 N620 0.984 . S
H627 N620 0.984 . S
H628 N616 0.984 . S
H629 N616 0.985 . S
C630 C631 1.363 . S
C630 C636 1.379 . S
C630 N638 1.356 . S
C631 C630 1.363 . S
C631 C637 1.363 . S
C632 C633 1.363 . S
C632 C637 1.379 . S
C632 N639 1.356 . S
C633 C632 1.363 . S
C633 C636 1.363 . S
N634 C636 1.356 1_455 S
N634 H646 0.984 . S
N634 H647 0.985 1_556 S
N635 C637 1.356 . S
N635 H640 0.984 . S
N635 H641 0.985 . S
C636 C630 1.379 . S
C636 C633 1.363 . S
C636 N634 1.356 1_655 S
C637 C631 1.363 . S
C637 C632 1.379 . S
C637 N635 1.356 . S
N638 C630 1.356 . S
N638 H644 0.984 . S
N638 H645 0.984 . S
N639 C632 1.356 . S
N639 H642 0.984 1_556 S
N639 H643 0.985 . S
H640 N635 0.984 . S
H641 N635 0.985 . S
H642 N639 0.984 1_554 S
H643 N639 0.985 . S
H644 N638 0.984 . S
H645 N638 0.984 . S
H646 N634 0.984 . S
H647 N634 0.985 1_554 S
C648 C649 1.363 . S
C648 C654 1.379 . S
C648 N656 1.356 . S
C649 C648 1.363 . S
C649 C655 1.363 . S
C650 C651 1.363 . S
C650 C655 1.379 . S
C650 N657 1.356 . S
C651 C650 1.363 . S
C651 C654 1.363 . S
N652 C654 1.356 . S
N652 H664 0.984 . S
N652 H665 0.985 . S
N653 C655 1.356 1_554 S
N653 H658 0.984 . S
N653 H659 0.985 . S
C654 C648 1.379 . S
C654 C651 1.363 . S
C654 N652 1.356 . S
C655 C649 1.363 . S
C655 C650 1.379 . S
C655 N653 1.356 1_556 S
N656 C648 1.356 . S
N656 H662 0.984 . S
N656 H663 0.984 . S
N657 C650 1.356 . S
N657 H660 0.984 . S
N657 H661 0.985 . S
H658 N653 0.984 . S
H659 N653 0.985 . S
H660 N657 0.984 . S
H661 N657 0.985 . S
H662 N656 0.984 . S
H663 N656 0.984 . S
H664 N652 0.984 . S
H665 N652 0.985 . S
C666 C667 1.363 . S
C666 C672 1.379 1_556 S
C666 N674 1.356 . S
C667 C666 1.363 . S
C667 C673 1.363 . S
C668 C669 1.363 . S
C668 C673 1.379 1_554 S
C668 N675 1.356 . S
C669 C668 1.363 . S
C669 C672 1.363 . S
N670 C672 1.356 . S
N670 H682 0.984 . S
N670 H683 0.985 . S
N671 C673 1.356 . S
N671 H676 0.984 . S
N671 H677 0.985 . S
C672 C666 1.379 1_554 S
C672 C669 1.363 . S
C672 N670 1.356 . S
C673 C667 1.363 . S
C673 C668 1.379 1_556 S
C673 N671 1.356 . S
N674 C666 1.356 . S
N674 H680 0.984 . S
N674 H681 0.984 . S
N675 C668 1.356 . S
N675 H678 0.984 . S
N675 H679 0.985 . S
H676 N671 0.984 . S
H677 N671 0.985 . S
H678 N675 0.984 . S
H679 N675 0.985 . S
H680 N674 0.984 . S
H681 N674 0.984 . S
H682 N670 0.984 . S
H683 N670 0.985 . S
C684 C685 1.363 . S
C684 C690 1.379 . S
C684 N692 1.356 . S
C685 C684 1.363 . S
C685 C691 1.363 . S
C686 C687 1.363 . S
C686 C691 1.379 . S
C686 N693 1.356 . S
C687 C686 1.363 . S
C687 C690 1.363 . S
N688 C690 1.356 1_565 S
N688 H700 0.984 . S
N688 H701 0.985 . S
N689 C691 1.356 . S
N689 H694 0.984 . S
N689 H695 0.985 . S
C690 C684 1.379 . S
C690 C687 1.363 . S
C690 N688 1.356 1_545 S
C691 C685 1.363 . S
C691 C686 1.379 . S
C691 N689 1.356 . S
N692 C684 1.356 . S
N692 H698 0.984 . S
N692 H699 0.984 . S
N693 C686 1.356 . S
N693 H696 0.984 . S
N693 H697 0.985 . S
H694 N689 0.984 . S
H695 N689 0.985 . S
H696 N693 0.984 . S
H697 N693 0.985 . S
H698 N692 0.984 . S
H699 N692 0.984 . S
H700 N688 0.984 . S
H701 N688 0.985 . S
C702 C703 1.363 . S
C702 C708 1.379 . S
C702 N710 1.356 . S
C703 C702 1.363 . S
C703 C709 1.363 . S
C704 C705 1.363 . S
C704 C709 1.379 . S
C704 N711 1.356 . S
C705 C704 1.363 . S
C705 C708 1.363 . S
N706 C708 1.356 . S
N706 H718 0.984 . S
N706 H719 0.985 . S
N707 C709 1.356 . S
N707 H712 0.984 . S
N707 H713 0.985 1_554 S
C708 C702 1.379 . S
C708 C705 1.363 . S
C708 N706 1.356 . S
C709 C703 1.363 . S
C709 C704 1.379 . S
C709 N707 1.356 . S
N710 C702 1.356 . S
N710 H716 0.984 . S
N710 H717 0.984 . S
N711 C704 1.356 . S
N711 H714 0.984 . S
N711 H715 0.985 1_554 S
H712 N707 0.984 . S
H713 N707 0.985 1_556 S
H714 N711 0.984 . S
H715 N711 0.985 1_556 S
H716 N710 0.984 . S
H717 N710 0.984 . S
H718 N706 0.984 . S
H719 N706 0.985 . S
C720 C721 1.363 . S
C720 C726 1.379 . S
C720 N728 1.356 . S
C721 C720 1.363 . S
C721 C727 1.363 . S
C722 C723 1.363 . S
C722 C727 1.379 . S
C722 N729 1.356 . S
C723 C722 1.363 . S
C723 C726 1.363 . S
N724 C726 1.356 . S
N724 H736 0.984 . S
N724 H737 0.985 . S
N725 C727 1.356 . S
N725 H730 0.984 1_554 S
N725 H731 0.985 1_554 S
C726 C720 1.379 . S
C726 C723 1.363 . S
C726 N724 1.356 . S
C727 C721 1.363 . S
C727 C722 1.379 . S
C727 N725 1.356 . S
N728 C720 1.356 . S
N728 H734 0.984 . S
N728 H735 0.984 . S
N729 C722 1.356 . S
N729 H732 0.984 . S
N729 H733 0.985 . S
H730 N725 0.984 1_556 S
H731 N725 0.985 1_556 S
H732 N729 0.984 . S
H733 N729 0.985 . S
H734 N728 0.984 . S
H735 N728 0.984 . S
H736 N724 0.984 . S
H737 N724 0.985 . S
C738 C739 1.363 . S
C738 C744 1.379 . S
C738 N746 1.356 . S
C739 C738 1.363 . S
C739 C745 1.363 . S
C740 C741 1.363 . S
C740 C745 1.379 . S
C740 N747 1.356 . S
C741 C740 1.363 . S
C741 C744 1.363 . S
N742 C744 1.356 . S
N742 H754 0.984 . S
N742 H755 0.985 . S
N743 C745 1.356 . S
N743 H748 0.984 . S
N743 H749 0.985 . S
C744 C738 1.379 . S
C744 C741 1.363 . S
C744 N742 1.356 . S
C745 C739 1.363 . S
C745 C740 1.379 . S
C745 N743 1.356 . S
N746 C738 1.356 . S
N746 H752 0.984 . S
N746 H753 0.984 . S
N747 C740 1.356 . S
N747 H750 0.984 . S
N747 H751 0.985 . S
H748 N743 0.984 . S
H749 N743 0.985 . S
H750 N747 0.984 . S
H751 N747 0.985 . S
H752 N746 0.984 . S
H753 N746 0.984 . S
H754 N742 0.984 . S
H755 N742 0.985 . S
C756 C757 1.363 . S
C756 C762 1.379 . S
C756 N764 1.356 . S
C757 C756 1.363 . S
C757 C763 1.363 . S
C758 C759 1.363 . S
C758 C763 1.379 1_565 S
C758 N765 1.356 . S
C759 C758 1.363 . S
C759 C762 1.363 1_565 S
N760 C762 1.356 . S
N760 H772 0.984 . S
N760 H773 0.985 1_545 S
N761 C763 1.356 . S
N761 H766 0.984 . S
N761 H767 0.985 1_545 S
C762 C756 1.379 . S
C762 C759 1.363 1_545 S
C762 N760 1.356 . S
C763 C757 1.363 . S
C763 C758 1.379 1_545 S
C763 N761 1.356 . S
N764 C756 1.356 . S
N764 H770 0.984 . S
N764 H771 0.984 . S
N765 C758 1.356 . S
N765 H768 0.984 . S
N765 H769 0.985 . S
H766 N761 0.984 . S
H767 N761 0.985 1_565 S
H768 N765 0.984 . S
H769 N765 0.985 . S
H770 N764 0.984 . S
H771 N764 0.984 . S
H772 N760 0.984 . S
H773 N760 0.985 1_565 S
C774 C775 1.363 . S
C774 C780 1.379 . S
C774 N782 1.356 . S
C775 C774 1.363 . S
C775 C781 1.363 . S
C776 C777 1.363 . S
C776 C781 1.379 . S
C776 N783 1.356 . S
C777 C776 1.363 . S
C777 C780 1.363 . S
N778 C780 1.356 1_455 S
N778 H790 0.984 . S
N778 H791 0.985 . S
N779 C781 1.356 . S
N779 H784 0.984 . S
N779 H785 0.985 . S
C780 C774 1.379 . S
C780 C777 1.363 . S
C780 N778 1.356 1_655 S
C781 C775 1.363 . S
C781 C776 1.379 . S
C781 N779 1.356 . S
N782 C774 1.356 . S
N782 H788 0.984 . S
N782 H789 0.984 . S
N783 C776 1.356 . S
N783 H786 0.955 1_655 S
N783 H787 0.985 . S
H784 N779 0.984 . S
H785 N779 0.985 . S
H786 N783 0.955 1_455 S
H787 N783 0.985 . S
H788 N782 0.984 . S
H789 N782 0.984 . S
H790 N778 0.984 . S
H791 N778 0.985 . S
C792 C793 1.363 . S
C792 C798 1.379 . S
C792 N800 1.356 . S
C793 C792 1.363 . S
C793 C799 1.363 . S
C794 C795 1.363 . S
C794 C799 1.379 . S
C794 N801 1.356 . S
C795 C794 1.363 . S
C795 C798 1.363 . S
N796 C798 1.356 . S
N796 H808 0.984 . S
N796 H809 0.985 . S
N797 C799 1.356 . S
N797 H802 0.984 . S
N797 H803 0.985 . S
C798 C792 1.379 . S
C798 C795 1.363 . S
C798 N796 1.356 . S
C799 C793 1.363 . S
C799 C794 1.379 . S
C799 N797 1.356 . S
N800 C792 1.356 . S
N800 H806 0.984 . S
N800 H807 0.984 . S
N801 C794 1.356 . S
N801 H804 0.984 . S
N801 H805 0.985 . S
H802 N797 0.984 . S
H803 N797 0.985 . S
H804 N801 0.984 . S
H805 N801 0.985 . S
H806 N800 0.984 . S
H807 N800 0.984 . S
H808 N796 0.984 . S
H809 N796 0.985 . S
C810 C811 1.363 . S
C810 C816 1.379 1_565 S
C810 N818 1.356 . S
C811 C810 1.363 . S
C811 C817 1.363 1_565 S
C812 C813 1.363 . S
C812 C817 1.379 . S
C812 N819 1.356 . S
C813 C812 1.363 . S
C813 C816 1.363 . S
N814 C816 1.356 . S
N814 H826 0.984 . S
N814 H827 0.985 . S
N815 C817 1.356 . S
N815 H820 0.984 1_545 S
N815 H821 0.985 . S
C816 C810 1.379 1_545 S
C816 C813 1.363 . S
C816 N814 1.356 . S
C817 C811 1.363 1_545 S
C817 C812 1.379 . S
C817 N815 1.356 . S
N818 C810 1.356 . S
N818 H824 0.984 . S
N818 H825 0.984 . S
N819 C812 1.356 . S
N819 H822 0.984 . S
N819 H823 0.985 . S
H820 N815 0.984 1_565 S
H821 N815 0.985 . S
H822 N819 0.984 . S
H823 N819 0.985 . S
H824 N818 0.984 . S
H825 N818 0.984 . S
H826 N814 0.984 . S
H827 N814 0.985 . S
C828 C829 1.363 . S
C828 C834 1.379 . S
C828 N836 1.356 . S
C829 C828 1.363 . S
C829 C835 1.363 . S
C830 C831 1.363 1_455 S
C830 C835 1.379 1_455 S
C830 N837 1.356 . S
C831 C830 1.363 1_655 S
C831 C834 1.363 . S
N832 C834 1.356 . S
N832 H844 0.984 . S
N832 H845 0.985 . S
N833 C835 1.356 1_455 S
N833 H838 0.984 1_455 S
N833 H839 0.985 . S
C834 C828 1.379 . S
C834 C831 1.363 . S
C834 N832 1.356 . S
C835 C829 1.363 . S
C835 C830 1.379 1_655 S
C835 N833 1.356 1_655 S
N836 C828 1.356 . S
N836 H842 0.984 . S
N836 H843 0.984 . S
N837 C830 1.356 . S
N837 H840 0.984 . S
N837 H841 0.985 . S
H838 N833 0.984 1_655 S
H839 N833 0.985 . S
H840 N837 0.984 . S
H841 N837 0.985 . S
H842 N836 0.984 . S
H843 N836 0.984 . S
H844 N832 0.984 . S
H845 N832 0.985 . S
C361 C10 3.637 . S
C363 C19 3.637 . S
C379 C59 3.730 . S
C381 C50 3.730 . S
C397 C90 3.774 . S
C399 C99 3.774 . S
C415 C139 3.637 . S
C417 C130 3.637 1_556 S
C433 C170 3.730 . S
C435 C179 3.730 1_556 S
C451 C219 3.774 . S
C453 C210 3.774 1_556 S
C469 C247 0.315 . S
C471 C256 0.315 . S
C487 C296 0.270 . S
C489 C287 0.270 . S
C505 C327 0.626 . S
C507 C336 0.626 . S
C523 C202 1.619 . S
C525 C7 1.632 . S
C541 C42 2.665 . S
C543 C122 2.703 . S
C559 C87 1.192 . S
C561 C167 1.207 . S
C577 C82 3.094 . S
C579 C251 3.257 . S
C595 C299 1.403 . S
C597 C2 1.298 1_656 S
C613 C331 2.201 . S
C615 C47 1.973 . S
C631 C330 1.170 . S
C633 C16 1.049 . S
C649 C51 2.385 1_556 S
C651 C250 2.462 . S
C667 C282 3.123 . S
C669 C96 2.848 . S
C685 C91 1.619 . S
C687 C136 1.632 . S
C703 C171 2.666 . S
C705 C11 2.703 . S
C721 C56 1.206 . S
C723 C216 1.192 . S
C739 C339 1.170 . S
C741 C127 1.049 . S
C757 C259 2.462 . S
C759 C162 2.385 . S
C775 C291 3.123 . S
C777 C207 2.848 1_655 S
C793 C242 3.257 . S
C795 C211 3.094 . S
C811 C131 1.298 . S
C813 C290 1.402 . S
C829 C322 2.201 . S
C831 C176 1.973 1_655 S
