# Generated by pormake.
# Topology wkc, (5)-cn, num edge types: 1
# Building blocks:
#     Node 0, Type 0, BuildingBlock: XOMCOT_clean_sbu_0, # of connection points: 5
#     Node 1, Type 0, BuildingBlock: XOMCOT_clean_sbu_0, # of connection points: 5
#     Node 2, Type 0, BuildingBlock: XOMCOT_clean_sbu_0, # of connection points: 5
#     Node 3, Type 0, BuildingBlock: XOMCOT_clean_sbu_0, # of connection points: 5
#     Node 4, Type 0, BuildingBlock: XOMCOT_clean_sbu_0, # of connection points: 5
#     Node 5, Type 0, BuildingBlock: XOMCOT_clean_sbu_0, # of connection points: 5
#     Node 6, Type 0, BuildingBlock: XOMCOT_clean_sbu_0, # of connection points: 5
#     Node 7, Type 0, BuildingBlock: XOMCOT_clean_sbu_0, # of connection points: 5
#     Node 8, Type 0, BuildingBlock: XOMCOT_clean_sbu_0, # of connection points: 5
#     Node 9, Type 0, BuildingBlock: XOMCOT_clean_sbu_0, # of connection points: 5
#     Node 10, Type 0, BuildingBlock: XOMCOT_clean_sbu_0, # of connection points: 5
#     Node 11, Type 0, BuildingBlock: XOMCOT_clean_sbu_0, # of connection points: 5
#     Edge 12, Type (0, 0), BuildingBlock: AJUNOK_clean_linker_0, # of connection points: 2
#     Edge 13, Type (0, 0), BuildingBlock: AJUNOK_clean_linker_0, # of connection points: 2
#     Edge 14, Type (0, 0), BuildingBlock: AJUNOK_clean_linker_0, # of connection points: 2
#     Edge 15, Type (0, 0), BuildingBlock: AJUNOK_clean_linker_0, # of connection points: 2
#     Edge 16, Type (0, 0), BuildingBlock: AJUNOK_clean_linker_0, # of connection points: 2
#     Edge 17, Type (0, 0), BuildingBlock: AJUNOK_clean_linker_0, # of connection points: 2
#     Edge 18, Type (0, 0), BuildingBlock: AJUNOK_clean_linker_0, # of connection points: 2
#     Edge 19, Type (0, 0), BuildingBlock: AJUNOK_clean_linker_0, # of connection points: 2
#     Edge 20, Type (0, 0), BuildingBlock: AJUNOK_clean_linker_0, # of connection points: 2
#     Edge 21, Type (0, 0), BuildingBlock: AJUNOK_clean_linker_0, # of connection points: 2
#     Edge 22, Type (0, 0), BuildingBlock: AJUNOK_clean_linker_0, # of connection points: 2
#     Edge 23, Type (0, 0), BuildingBlock: AJUNOK_clean_linker_0, # of connection points: 2
#     Edge 24, Type (0, 0), BuildingBlock: AJUNOK_clean_linker_0, # of connection points: 2
#     Edge 25, Type (0, 0), BuildingBlock: AJUNOK_clean_linker_0, # of connection points: 2
#     Edge 26, Type (0, 0), BuildingBlock: AJUNOK_clean_linker_0, # of connection points: 2
#     Edge 27, Type (0, 0), BuildingBlock: AJUNOK_clean_linker_0, # of connection points: 2
#     Edge 28, Type (0, 0), BuildingBlock: AJUNOK_clean_linker_0, # of connection points: 2
#     Edge 29, Type (0, 0), BuildingBlock: AJUNOK_clean_linker_0, # of connection points: 2
#     Edge 30, Type (0, 0), BuildingBlock: AJUNOK_clean_linker_0, # of connection points: 2
#     Edge 31, Type (0, 0), BuildingBlock: AJUNOK_clean_linker_0, # of connection points: 2
#     Edge 32, Type (0, 0), BuildingBlock: AJUNOK_clean_linker_0, # of connection points: 2
#     Edge 33, Type (0, 0), BuildingBlock: AJUNOK_clean_linker_0, # of connection points: 2
#     Edge 34, Type (0, 0), BuildingBlock: AJUNOK_clean_linker_0, # of connection points: 2
#     Edge 35, Type (0, 0), BuildingBlock: AJUNOK_clean_linker_0, # of connection points: 2
#     Edge 36, Type (0, 0), BuildingBlock: AJUNOK_clean_linker_0, # of connection points: 2
#     Edge 37, Type (0, 0), BuildingBlock: AJUNOK_clean_linker_0, # of connection points: 2
#     Edge 38, Type (0, 0), BuildingBlock: AJUNOK_clean_linker_0, # of connection points: 2
#     Edge 39, Type (0, 0), BuildingBlock: AJUNOK_clean_linker_0, # of connection points: 2
#     Edge 40, Type (0, 0), BuildingBlock: AJUNOK_clean_linker_0, # of connection points: 2
#     Edge 41, Type (0, 0), BuildingBlock: AJUNOK_clean_linker_0, # of connection points: 2
# Relax obj value: 0.260
# Max RMSD: 0.214
# Mean RMSD: 0.214
data_MOF--net-wkc--node1-XOMCOT_clean_sbu_0--edge1-AJUNOK_clean_linker_0
_symmetry_space_group_name_H-M    P1
_symmetry_Int_Tables_number       1
_symmetry_cell_setting            triclinic
loop_
_symmetry_equiv_pos_as_xyz
'x, y, z'
_cell_length_a     28.919149
_cell_length_b     28.803249
_cell_length_c     35.046325
_cell_angle_alpha  89.882499
_cell_angle_beta   90.062233
_cell_angle_gamma 120.04896
loop_
_atom_site_label
_atom_site_type_symbol
_atom_site_fract_x
_atom_site_fract_y
_atom_site_fract_z
_atom_type_partial_charge
Co0 Co 0.3201 0.4627 0.98623 0.0
C1 C 0.34171 0.39241 0.93939 0.0
C2 C 0.26808 0.38633 0.92127 0.0
C3 C 0.27848 0.35303 0.89867 0.0
N4 N 0.30793 0.4107 0.94683 0.0
N5 N 0.32501 0.35714 0.91023 0.0
H6 H 0.37827 0.40497 0.95516 0.0
H7 H 0.23384 0.3919 0.91936 0.0
C8 C 0.21746 0.42958 0.02632 0.0
O9 O 0.24633 0.44566 0.05756 0.0
N10 N 0.33528 0.51675 0.02544 0.0
C11 C 0.36803 0.52948 0.05598 0.0
C12 C 0.37043 0.57253 0.07442 0.0
C13 C 0.31895 0.55343 0.02565 0.0
N14 N 0.33996 0.58782 0.05528 0.0
C15 C 0.36911 0.42177 0.03724 0.0
C16 C 0.27591 0.33233 0.06089 0.0
C17 C 0.3236 0.34659 0.08 0.0
C18 C 0.37112 0.39012 0.06653 0.0
C19 C 0.27605 0.36492 0.03137 0.0
N20 N 0.32127 0.41228 0.0229 0.0
H21 H 0.40603 0.45566 0.02752 0.0
H22 H 0.23951 0.35215 0.01587 0.0
H23 H 0.39043 0.51072 0.06448 0.0
H24 H 0.29348 0.55581 0.004 0.0
O25 O 0.39457 0.50075 0.97244 0.0
O26 O 0.33334 0.51661 0.94763 0.0
O27 O 0.23976 0.4318 0.9941 0.0
C28 C 0.38308 0.52827 0.94885 0.0
H29 H 0.25294 0.32675 0.87637 0.0
H30 H 0.39364 0.59179 0.09972 0.0
H31 H 0.23888 0.29702 0.06915 0.0
H32 H 0.40915 0.40124 0.07977 0.0
Co33 Co 0.89068 0.30483 0.15566 0.0
C34 C 0.98282 0.32541 0.10888 0.0
C35 C 0.91047 0.26275 0.08441 0.0
C36 C 0.952 0.27602 0.05912 0.0
N37 N 0.93008 0.29381 0.11558 0.0
N38 N 0.99762 0.31565 0.07456 0.0
H39 H 1.0094 0.3566 0.12828 0.0
H40 H 0.86855 0.23494 0.07938 0.0
C41 C 0.83041 0.2024 0.19816 0.0
O42 O 0.84571 0.23361 0.22835 0.0
N43 N 0.85035 0.31754 0.19477 0.0
C44 C 0.86716 0.35691 0.22112 0.0
C45 C 0.82354 0.35318 0.23959 0.0
C46 C 0.79642 0.29182 0.19684 0.0
N47 N 0.77911 0.31239 0.22424 0.0
C48 C 0.97556 0.35584 0.21063 0.0
C49 C 0.97644 0.26389 0.23211 0.0
C50 C 1.0003 0.30893 0.2557 0.0
C51 C 1.00309 0.35647 0.24344 0.0
C52 C 0.9499 0.26552 0.19922 0.0
N53 N 0.94362 0.3088 0.19216 0.0
H54 H 0.97777 0.39256 0.20125 0.0
H55 H 0.93095 0.23044 0.18122 0.0
H56 H 0.90752 0.38857 0.22565 0.0
H57 H 0.77053 0.25893 0.17832 0.0
O58 O 0.92473 0.3795 0.14149 0.0
O59 O 0.84786 0.31607 0.11776 0.0
O60 O 0.84424 0.22372 0.16474 0.0
C61 C 0.88435 0.36672 0.11908 0.0
H62 H 0.94794 0.25996 0.03066 0.0
H63 H 0.82432 0.38036 0.26121 0.0
H64 H 0.97564 0.22714 0.24009 0.0
H65 H 1.0236 0.39279 0.26027 0.0
Co66 Co 0.61175 0.86526 0.31582 0.0
C67 C 0.69074 0.96033 0.27171 0.0
C68 C 0.66656 0.88767 0.24099 0.0
C69 C 0.69871 0.93061 0.21751 0.0
N70 N 0.66208 0.90637 0.27528 0.0
N71 N 0.71363 0.97629 0.23699 0.0
H72 H 0.6928 0.98805 0.29304 0.0
H73 H 0.6465 0.84573 0.2332 0.0
C74 C 0.68697 0.82073 0.3146 0.0
O75 O 0.7246 0.86659 0.30075 0.0
N76 N 0.56048 0.82536 0.35559 0.0
C77 C 0.54926 0.84724 0.38564 0.0
C78 C 0.5059 0.80784 0.40461 0.0
C79 C 0.52325 0.77262 0.35657 0.0
N80 N 0.48947 0.76107 0.38637 0.0
C81 C 0.6629 0.95976 0.3628 0.0
C82 C 0.71027 0.92245 0.41326 0.0
C83 C 0.71034 0.96978 0.422 0.0
C84 C 0.68739 0.98913 0.39573 0.0
C85 C 0.68338 0.89324 0.38104 0.0
N86 N 0.66064 0.91202 0.35558 0.0
H87 H 0.64207 0.97363 0.34472 0.0
H88 H 0.67782 0.85376 0.37908 0.0
H89 H 0.56893 0.88944 0.39225 0.0
H90 H 0.51874 0.74424 0.33462 0.0
O91 O 0.57365 0.90315 0.30508 0.0
O92 O 0.557 0.82717 0.2777 0.0
O93 O 0.64003 0.81353 0.32009 0.0
C94 C 0.54499 0.86488 0.28121 0.0
H95 H 0.70976 0.92825 0.18839 0.0
H96 H 0.48604 0.81353 0.42883 0.0
H97 H 0.72844 0.90633 0.43213 0.0
H98 H 0.68554 1.02508 0.40153 0.0
Co99 Co 0.76627 0.59938 0.4819 0.0
C100 C 0.74677 0.66405 0.4253 0.0
C101 C 0.83048 0.69191 0.43035 0.0
C102 C 0.82334 0.72425 0.40473 0.0
N103 N 0.78233 0.65416 0.44336 0.0
N104 N 0.77052 0.70682 0.40153 0.0
H105 H 0.7042 0.63979 0.42933 0.0
H106 H 0.86835 0.69651 0.43922 0.0
C107 C 0.8662 0.62985 0.52521 0.0
O108 O 0.83595 0.61419 0.55582 0.0
N109 N 0.74895 0.54311 0.51954 0.0
C110 C 0.71216 0.52477 0.54775 0.0
C111 C 0.71321 0.48307 0.5661 0.0
C112 C 0.7704 0.51084 0.52047 0.0
N113 N 0.7498 0.47438 0.54892 0.0
C114 C 0.71527 0.63608 0.53426 0.0
C115 C 0.80741 0.72397 0.56097 0.0
C116 C 0.75925 0.70732 0.58017 0.0
C117 C 0.71228 0.66469 0.56522 0.0
C118 C 0.80829 0.69443 0.52974 0.0
N119 N 0.76353 0.64767 0.51955 0.0
H120 H 0.67875 0.603 0.52329 0.0
H121 H 0.84546 0.70855 0.51468 0.0
H122 H 0.685 0.53881 0.55445 0.0
H123 H 0.80132 0.5149 0.50109 0.0
O124 O 0.69247 0.56253 0.46641 0.0
O125 O 0.75426 0.54707 0.44236 0.0
O126 O 0.84577 0.62856 0.49233 0.0
C127 C 0.70447 0.53536 0.443 0.0
H128 H 0.85496 0.75881 0.39031 0.0
H129 H 0.68783 0.45979 0.58959 0.0
H130 H 0.84404 0.75874 0.57044 0.0
H131 H 0.67389 0.65197 0.57842 0.0
Co132 Co 0.20421 0.76806 0.6501 0.0
C133 C 0.1055 0.73249 0.60543 0.0
C134 C 0.1733 0.79804 0.57828 0.0
C135 C 0.1295 0.78091 0.55469 0.0
N136 N 0.15807 0.76764 0.61002 0.0
N137 N 0.08689 0.73932 0.57161 0.0
H138 H 0.08168 0.7026 0.62657 0.0
H139 H 0.21376 0.82933 0.57221 0.0
C140 C 0.29164 0.88069 0.65397 0.0
O141 O 0.32382 0.862 0.64657 0.0
N142 N 0.25072 0.76937 0.69082 0.0
C143 C 0.25788 0.79473 0.72455 0.0
C144 C 0.29917 0.79475 0.74389 0.0
C145 C 0.28826 0.75449 0.69018 0.0
N146 N 0.31818 0.76948 0.72228 0.0
C147 C 0.13033 0.71582 0.70963 0.0
C148 C 0.11712 0.80087 0.73089 0.0
C149 C 0.09771 0.75572 0.75476 0.0
C150 C 0.10215 0.71186 0.7426 0.0
C151 C 0.1438 0.8025 0.69713 0.0
N152 N 0.15291 0.76158 0.68831 0.0
H153 H 0.13705 0.68319 0.70281 0.0
H154 H 0.15934 0.83771 0.67933 0.0
H155 H 0.23655 0.8146 0.73378 0.0
H156 H 0.29598 0.73616 0.666 0.0
O157 O 0.17677 0.69295 0.64173 0.0
O158 O 0.24709 0.75687 0.61164 0.0
O159 O 0.24125 0.84878 0.65309 0.0
C160 C 0.21384 0.70565 0.61654 0.0
H161 H 0.12944 0.7969 0.52672 0.0
H162 H 0.31508 0.81331 0.77126 0.0
H163 H 0.11424 0.83558 0.73901 0.0
H164 H 0.08627 0.67552 0.7595 0.0
Co165 Co 0.47257 0.18172 0.81974 0.0
C166 C 0.40577 0.09487 0.76665 0.0
C167 C 0.3982 0.16415 0.75592 0.0
C168 C 0.36892 0.12552 0.72884 0.0
N169 N 0.4211 0.14466 0.77959 0.0
N170 N 0.37388 0.08202 0.73564 0.0
H171 H 0.41871 0.06893 0.77925 0.0
H172 H 0.40399 0.20423 0.75731 0.0
C173 C 0.43346 0.24133 0.86619 0.0
O174 O 0.44915 0.2237 0.89522 0.0
N175 N 0.52623 0.21948 0.85912 0.0
C176 C 0.54364 0.20015 0.88747 0.0
C177 C 0.58308 0.24236 0.90753 0.0
C178 C 0.55708 0.27343 0.8617 0.0
N179 N 0.59115 0.28826 0.89146 0.0
C180 C 0.43838 0.09067 0.86925 0.0
C181 C 0.3474 0.08836 0.89586 0.0
C182 C 0.36694 0.05919 0.91523 0.0
C183 C 0.4112 0.05803 0.90025 0.0
C184 C 0.37574 0.11994 0.86459 0.0
N185 N 0.42429 0.12593 0.85502 0.0
H186 H 0.4729 0.08998 0.85833 0.0
H187 H 0.35993 0.14168 0.8495 0.0
H188 H 0.53093 0.15883 0.89311 0.0
H189 H 0.55452 0.30124 0.84219 0.0
O190 O 0.5127 0.14881 0.8027 0.0
O191 O 0.52581 0.22715 0.78203 0.0
O192 O 0.43887 0.22805 0.83211 0.0
C193 C 0.53977 0.19055 0.78119 0.0
H194 H 0.34776 0.13016 0.70499 0.0
H195 H 0.6058 0.23955 0.9311 0.0
H196 H 0.31161 0.08795 0.90546 0.0
H197 H 0.42658 0.03458 0.91363 0.0
Co198 Co 0.62199 0.77262 0.83194 0.0
C199 C 0.69916 0.75908 0.88147 0.0
C200 C 0.66707 0.80311 0.90893 0.0
C201 C 0.69563 0.79223 0.93553 0.0
N202 N 0.66912 0.78231 0.87488 0.0
N203 N 0.71573 0.76468 0.91805 0.0
H204 H 0.70703 0.73616 0.86101 0.0
H205 H 0.64406 0.82259 0.91451 0.0
C206 C 0.69733 0.89122 0.83354 0.0
O207 O 0.7342 0.88031 0.8448 0.0
N208 N 0.57331 0.76097 0.79039 0.0
C209 C 0.56565 0.73072 0.75913 0.0
C210 C 0.52323 0.72687 0.73884 0.0
C211 C 0.5349 0.77445 0.78901 0.0
N212 N 0.50337 0.75364 0.75793 0.0
C213 C 0.68278 0.73649 0.78897 0.0
C214 C 0.71791 0.8161 0.73412 0.0
C215 C 0.72555 0.77251 0.72823 0.0
C216 C 0.70897 0.733 0.75656 0.0
C217 C 0.69137 0.81789 0.76665 0.0
N218 N 0.67442 0.77876 0.79408 0.0
H219 H 0.66468 0.70239 0.80791 0.0
H220 H 0.67959 0.84786 0.76707 0.0
H221 H 0.58816 0.71128 0.75198 0.0
H222 H 0.52861 0.79679 0.8112 0.0
O223 O 0.58553 0.69619 0.84079 0.0
O224 O 0.56381 0.75215 0.86775 0.0
O225 O 0.64923 0.85275 0.82908 0.0
C226 C 0.5543 0.70321 0.86378 0.0
H227 H 0.70059 0.80294 0.96545 0.0
H228 H 0.508 0.70554 0.71225 0.0
H229 H 0.72857 0.84646 0.71226 0.0
H230 H 0.71188 0.69733 0.7522 0.0
Co231 Co 0.87947 0.60716 0.00284 0.0
C232 C 0.96491 0.66783 0.06017 0.0
C233 C 0.90193 0.68564 0.06555 0.0
C234 C 0.93998 0.71388 0.0929 0.0
N235 N 0.9187 0.65862 0.04361 0.0
N236 N 0.98019 0.70299 0.08961 0.0
H237 H 0.98508 0.64659 0.05192 0.0
H238 H 0.86403 0.68421 0.06279 0.0
C239 C 0.84693 0.68857 0.98781 0.0
O240 O 0.89798 0.72422 0.9908 0.0
N241 N 0.84057 0.55398 0.96407 0.0
C242 C 0.86255 0.53725 0.93744 0.0
C243 C 0.82235 0.49551 0.91756 0.0
C244 C 0.78731 0.52148 0.96068 0.0
N245 N 0.77516 0.48539 0.93231 0.0
C246 C 0.9814 0.67919 0.9662 0.0
C247 C 0.93634 0.68604 0.89831 0.0
C248 C 0.99204 0.71196 0.90109 0.0
C249 C 1.01454 0.70909 0.93595 0.0
C250 C 0.90491 0.65845 0.92951 0.0
N251 N 0.92716 0.65468 0.96302 0.0
H252 H 0.99974 0.67419 0.99129 0.0
H253 H 0.86203 0.63798 0.92605 0.0
H254 H 0.90499 0.5534 0.93352 0.0
H255 H 0.75835 0.52334 0.97919 0.0
O256 O 0.91642 0.56896 0.015 0.0
O257 O 0.84026 0.55287 0.04156 0.0
O258 O 0.83065 0.63887 0.99475 0.0
C259 C 0.8778 0.54048 0.03862 0.0
H260 H 0.93749 0.74021 0.11368 0.0
H261 H 0.8274 0.47244 0.89527 0.0
H262 H 0.9166 0.68442 0.87168 0.0
H263 H 0.05741 0.72782 0.93935 0.0
Co264 Co 0.29935 0.86563 0.17135 0.0
C265 C 0.31608 0.9534 0.22504 0.0
C266 C 0.25941 0.87554 0.24629 0.0
C267 C 0.26852 0.91288 0.27418 0.0
N268 N 0.28838 0.90093 0.21505 0.0
N269 N 0.30463 0.96179 0.26094 0.0
H270 H 0.34511 0.98486 0.20713 0.0
H271 H 0.23475 0.83249 0.24909 0.0
C272 C 0.18 0.81873 0.1726 0.0
O273 O 0.1879 0.86518 0.18492 0.0
N274 N 0.31196 0.83062 0.1287 0.0
C275 C 0.34322 0.85552 0.09824 0.0
C276 C 0.34844 0.81856 0.07686 0.0
C277 C 0.29894 0.77868 0.12558 0.0
N278 N 0.32088 0.77047 0.09411 0.0
C279 C 0.33617 0.96443 0.12962 0.0
C280 C 0.25814 0.92049 0.07396 0.0
C281 C 0.30372 0.96982 0.06703 0.0
C282 C 0.3419 0.99328 0.09601 0.0
C283 C 0.25454 0.89267 0.10725 0.0
N284 N 0.29353 0.91388 0.13465 0.0
H285 H 0.36944 0.98029 0.1491 0.0
H286 H 0.22361 0.85152 0.1078 0.0
H287 H 0.36354 0.89816 0.09289 0.0
H288 H 0.2772 0.74853 0.14713 0.0
O289 O 0.37552 0.90552 0.18111 0.0
O290 O 0.31901 0.82613 0.20605 0.0
O291 O 0.21999 0.81179 0.1675 0.0
C292 C 0.3679 0.86551 0.20272 0.0
H293 H 0.25158 0.90448 0.3026 0.0
H294 H 0.37323 0.82688 0.05178 0.0
H295 H 0.22801 0.90095 0.05204 0.0
H296 H 0.37829 0.03111 0.09125 0.0
Co297 Co 0.46262 0.28555 0.33256 0.0
C298 C 0.38602 0.30567 0.37682 0.0
C299 C 0.41091 0.25852 0.4085 0.0
C300 C 0.38031 0.27104 0.43207 0.0
N301 N 0.41419 0.27993 0.37358 0.0
N302 N 0.36446 0.30036 0.41181 0.0
H303 H 0.38329 0.3306 0.35522 0.0
H304 H 0.43115 0.23703 0.41671 0.0
C305 C 0.38476 0.16739 0.33629 0.0
O306 O 0.34802 0.17949 0.34544 0.0
N307 N 0.51191 0.29302 0.29262 0.0
C308 C 0.52205 0.32293 0.26078 0.0
C309 C 0.56202 0.32155 0.24071 0.0
C310 C 0.54662 0.27464 0.29191 0.0
N311 N 0.57735 0.29111 0.26017 0.0
C312 C 0.40554 0.32161 0.28517 0.0
C313 C 0.36746 0.23776 0.23384 0.0
C314 C 0.35968 0.28096 0.22635 0.0
C315 C 0.37833 0.32293 0.25271 0.0
C316 C 0.39469 0.23795 0.26667 0.0
N317 N 0.41227 0.2788 0.29269 0.0
H318 H 0.42528 0.35741 0.30228 0.0
H319 H 0.40595 0.20767 0.26869 0.0
H320 H 0.5033 0.34606 0.25334 0.0
H321 H 0.5505 0.25128 0.31462 0.0
O322 O 0.50072 0.36244 0.33868 0.0
O323 O 0.51944 0.30688 0.36983 0.0
O324 O 0.43339 0.20505 0.33271 0.0
C325 C 0.53065 0.35598 0.36331 0.0
H326 H 0.3711 0.26017 0.46182 0.0
H327 H 0.58072 0.34401 0.21498 0.0
H328 H 0.35579 0.20583 0.2132 0.0
H329 H 0.37593 0.35859 0.24675 0.0
Co330 Co 0.19666 0.45485 0.5009 0.0
C331 C 0.11428 0.38218 0.5556 0.0
C332 C 0.19196 0.39556 0.57079 0.0
C333 C 0.15598 0.36456 0.59873 0.0
N334 N 0.16569 0.40632 0.54372 0.0
N335 N 0.10695 0.35584 0.58909 0.0
H336 H 0.08305 0.38459 0.54027 0.0
H337 H 0.23459 0.41091 0.57094 0.0
C338 C 0.25486 0.41501 0.45345 0.0
O339 O 0.23684 0.43042 0.42454 0.0
N340 N 0.2282 0.50583 0.45886 0.0
C341 C 0.20418 0.52228 0.43345 0.0
C342 C 0.24255 0.56399 0.41237 0.0
C343 C 0.2812 0.5391 0.45322 0.0
N344 N 0.29089 0.57446 0.42471 0.0
C345 C 0.10092 0.41237 0.45574 0.0
C346 C 0.10377 0.32354 0.42934 0.0
C347 C 0.07189 0.34015 0.41047 0.0
C348 C 0.06769 0.38281 0.42568 0.0
C349 C 0.13542 0.35386 0.45994 0.0
N350 N 0.13909 0.40181 0.4689 0.0
H351 H 0.09829 0.44597 0.46663 0.0
H352 H 0.15936 0.34036 0.47465 0.0
H353 H 0.16218 0.50819 0.43131 0.0
H354 H 0.31187 0.53915 0.47098 0.0
O355 O 0.16262 0.49371 0.51832 0.0
O356 O 0.24393 0.51258 0.53529 0.0
O357 O 0.24413 0.42278 0.4877 0.0
C358 C 0.20604 0.52454 0.53714 0.0
H359 H 0.16588 0.35152 0.6249 0.0
H360 H 0.23548 0.58662 0.39074 0.0
H361 H 0.10599 0.28908 0.4195 0.0
H362 H 1.04206 0.39582 0.4127 0.0
Co363 Co 0.78598 0.19537 0.66806 0.0
C364 C 0.7654 0.10613 0.72232 0.0
C365 C 0.82539 0.18317 0.74258 0.0
C366 C 0.8156 0.14561 0.77055 0.0
N367 N 0.79463 0.15843 0.71193 0.0
N368 N 0.77747 0.0972 0.75793 0.0
H369 H 0.7353 0.07511 0.70482 0.0
H370 H 0.85207 0.22599 0.74484 0.0
C371 C 0.90269 0.23122 0.66686 0.0
O372 O 0.8882 0.18186 0.67701 0.0
N373 N 0.77584 0.23212 0.6255 0.0
C374 C 0.74356 0.2087 0.59529 0.0
C375 C 0.74231 0.24764 0.57343 0.0
C376 C 0.79306 0.28498 0.622 0.0
N377 N 0.77344 0.29554 0.59016 0.0
C378 C 0.74283 0.09506 0.62854 0.0
C379 C 0.81985 0.13029 0.5722 0.0
C380 C 0.77374 0.08016 0.56806 0.0
C381 C 0.73522 0.06239 0.59707 0.0
C382 C 0.82486 0.16253 0.60326 0.0
N383 N 0.78724 0.14468 0.63163 0.0
H384 H 0.71001 0.08241 0.64812 0.0
H385 H 0.85663 0.20361 0.60203 0.0
H386 H 0.72024 0.16601 0.59038 0.0
H387 H 0.8175 0.31466 0.64307 0.0
O388 O 0.71023 0.15926 0.67777 0.0
O389 O 0.76888 0.23722 0.70304 0.0
O390 O 0.86673 0.24469 0.66353 0.0
C391 C 0.71922 0.1992 0.69968 0.0
H392 H 0.83388 0.15359 0.79852 0.0
H393 H 0.71742 0.24077 0.54859 0.0
H394 H 0.85023 0.14629 0.5502 0.0
H395 H 0.6974 1.0255 0.59426 0.0
C396 C 0.40512 0.28712 0.91317 0.0
C397 C 0.4057 0.27204 0.87498 0.0
C398 C 0.37828 0.31399 0.9241 0.0
C399 C 0.35062 0.32763 0.89751 0.0
H400 H 0.42549 0.27796 0.93532 0.0
H401 H 0.37881 0.32365 0.95398 0.0
S402 S 0.34003 0.2988 0.79363 0.0
N403 N 0.37606 0.27322 0.81021 0.0
N404 N 0.32604 0.32484 0.8308 0.0
C405 C 0.35067 0.31311 0.85909 0.0
C406 C 0.37823 0.28534 0.84782 0.0
C407 C 0.13842 0.42692 0.05594 0.0
C408 C 0.15878 0.40342 0.03097 0.0
C409 C 0.08533 0.39887 0.06852 0.0
C410 C 0.05033 0.3454 0.05745 0.0
H411 H 0.16441 0.46693 0.06694 0.0
H412 H 0.07214 0.4191 0.08788 0.0
S413 S 0.08393 0.26621 0.99094 0.0
N414 N 0.13948 0.32489 0.99364 0.0
N415 N 1.04012 0.27084 0.01851 0.0
C416 C 0.06967 0.3221 0.03109 0.0
C417 C 0.12377 0.35139 0.01761 0.0
C418 C 0.80687 0.12503 0.24146 0.0
C419 C 0.80308 0.14338 0.20489 0.0
C420 C 0.77906 0.07057 0.25097 0.0
C421 C 0.74587 0.03143 0.22449 0.0
H422 H 0.83127 0.15306 0.26344 0.0
H423 H 0.78316 0.05901 0.27964 0.0
S424 S 0.72327 0.05732 0.12424 0.0
N425 N 0.76502 0.11753 0.14138 0.0
N426 N 0.71183 1.0146 0.15943 0.0
C427 C 0.74288 0.04866 0.1873 0.0
C428 C 0.77165 0.10468 0.17749 0.0
C429 C 0.77271 0.76134 0.34575 0.0
C430 C 0.74583 0.73028 0.37809 0.0
C431 C 0.75205 0.78808 0.32425 0.0
C432 C 0.70297 0.78434 0.33356 0.0
H433 H 0.81068 0.76589 0.33715 0.0
H434 H 0.77549 0.81298 0.30059 0.0
S435 S 0.61475 0.70657 0.4144 0.0
N436 N 0.66644 0.69732 0.41797 0.0
N437 N 0.62634 0.74453 0.3763 0.0
C438 C 0.67411 0.75119 0.3646 0.0
C439 C 0.6958 0.72501 0.38715 0.0
C440 C 1.01295 0.7344 0.53235 0.0
C441 C 1.03306 0.70928 0.55651 0.0
C442 C 0.95959 0.70724 0.51966 0.0
C443 C 0.92438 0.65412 0.53091 0.0
H444 H 1.03795 0.77608 0.52444 0.0
H445 H 0.94509 0.72888 0.50279 0.0
S446 S 0.9581 0.56726 0.58866 0.0
N447 N 1.01434 0.62542 0.58675 0.0
N448 N 0.91386 0.57568 0.5644 0.0
C449 C 0.94438 0.62771 0.55337 0.0
C450 C 0.99873 0.65492 0.56581 0.0
C451 C 0.36529 0.96125 0.6869 0.0
C452 C 0.3135 0.93518 0.67109 0.0
C453 C 0.38476 1.00925 0.70753 0.0
C454 C 0.35357 0.03368 0.71301 0.0
H455 H 0.39062 0.94365 0.68443 0.0
H456 H 0.42462 1.02733 0.71942 0.0
S457 S 0.21623 0.98347 0.6763 0.0
N458 N 0.23224 0.93909 0.66116 0.0
N459 N 0.26866 1.02874 0.70028 0.0
C460 C 0.30234 1.009 0.69652 0.0
C461 C 0.28237 0.95995 0.67557 0.0
C462 C 0.76135 0.69184 0.98435 0.0
C463 C 0.81162 0.7055 0.96915 0.0
C464 C 0.73013 0.7117 0.96781 0.0
C465 C 0.74753 0.74431 0.93492 0.0
H466 H 0.74683 0.66701 0.00968 0.0
H467 H 0.69202 0.70125 0.98053 0.0
S468 S 0.87458 0.78956 0.88328 0.0
N469 N 0.87673 0.75334 0.91908 0.0
N470 N 0.81701 0.7881 0.88745 0.0
C471 C 0.79682 0.75687 0.91902 0.0
C472 C 0.82914 0.73812 0.93629 0.0
C473 C 0.08138 0.78179 0.16661 0.0
C474 C 0.12739 0.78089 0.155 0.0
C475 C 1.03323 0.75419 0.14627 0.0
C476 C 1.02893 0.72551 0.1125 0.0
H477 H 0.08287 0.80521 0.19122 0.0
H478 H 0.99959 0.75681 0.15694 0.0
S479 S 0.13835 0.70834 0.07117 0.0
N480 N 0.16496 0.74513 0.10959 0.0
N481 N 0.07652 0.69689 0.0696 0.0
C482 C 0.0746 0.72273 0.1014 0.0
C483 C 0.12317 0.74944 0.12304 0.0
C484 C 0.31368 0.07179 0.32422 0.0
C485 C 0.36742 0.11281 0.32054 0.0
C486 C 0.29391 1.02244 0.30532 0.0
C487 C 0.32679 1.012 0.28152 0.0
H488 H 0.28605 0.07821 0.34113 0.0
H489 H 0.25204 0.99277 0.3084 0.0
S490 S 0.47165 0.10324 0.26473 0.0
N491 N 0.45414 0.13762 0.293 0.0
N492 N 0.41681 0.045 0.2577 0.0
C493 C 0.38102 0.05166 0.2786 0.0
C494 C 0.40138 0.10187 0.29811 0.0
C495 C 0.31718 0.37961 0.46969 0.0
C496 C 0.27965 0.3815 0.445 0.0
C497 C 0.34367 0.35141 0.4595 0.0
C498 C 0.33337 0.32415 0.42437 0.0
H499 H 0.32745 0.40149 0.49635 0.0
H500 H 0.37376 0.35255 0.47851 0.0
S501 S 0.23262 0.30918 0.35259 0.0
N502 N 0.22941 0.34801 0.38578 0.0
N503 N 0.27898 0.29581 0.36718 0.0
C504 C 0.29399 0.32342 0.40058 0.0
C505 C 0.2672 0.35183 0.41076 0.0
C506 C 0.9695 0.31237 0.62923 0.0
C507 C 0.95745 0.26604 0.65054 0.0
C508 C 1.01836 0.34167 0.6096 0.0
C509 C 0.05753 0.32617 0.61048 0.0
H510 H 0.9404 0.32543 0.62679 0.0
H511 H 1.02543 0.37674 0.59349 0.0
S512 S 0.04657 0.20845 0.6623 0.0
N513 N 0.9901 0.20713 0.67195 0.0
N514 N 0.08055 0.26114 0.63449 0.0
C515 C 0.04643 0.28056 0.63221 0.0
C516 C 0.99689 0.25087 0.65231 0.0
C517 C 0.76827 0.98673 0.82111 0.0
C518 C 0.71456 0.94563 0.81735 0.0
C519 C 0.78801 0.03613 0.80223 0.0
C520 C 0.75515 0.04679 0.77847 0.0
H521 H 0.79593 0.98036 0.83808 0.0
H522 H 0.8299 0.0657 0.80534 0.0
S523 S 0.61025 0.95537 0.76166 0.0
N524 N 0.62787 0.92079 0.78977 0.0
N525 N 0.66501 1.01375 0.75471 0.0
C526 C 0.7009 1.00702 0.77549 0.0
C527 C 0.68061 0.9566 0.79488 0.0
C528 C 0.27981 0.6747 0.07652 0.0
C529 C 0.32528 0.72417 0.08524 0.0
C530 C 0.28471 0.63029 0.06558 0.0
C531 C 0.33513 0.63408 0.06379 0.0
H532 H 0.24057 0.67074 0.07765 0.0
H533 H 0.24902 0.59258 0.05922 0.0
S534 S 0.4659 0.75497 0.08417 0.0
N535 N 0.42171 0.77433 0.09155 0.0
N536 N 0.43106 0.69146 0.07115 0.0
C537 C 0.38062 0.68343 0.07258 0.0
C538 C 0.37564 0.72834 0.0833 0.0
C539 C 0.71111 0.30168 0.27129 0.0
C540 C 0.72508 0.29849 0.23329 0.0
C541 C 0.66115 0.29562 0.28036 0.0
C542 C 0.62365 0.28671 0.25167 0.0
H543 H 0.73973 0.31056 0.29401 0.0
H544 H 0.65302 0.30098 0.30968 0.0
S545 S 0.63837 0.27014 0.14833 0.0
N546 N 0.69576 0.28235 0.16714 0.0
N547 N 0.60169 0.27027 0.18436 0.0
C548 C 0.63592 0.28051 0.2139 0.0
C549 C 0.68665 0.28649 0.20465 0.0
C550 C 0.39317 0.71565 0.39904 0.0
C551 C 0.43972 0.71268 0.39346 0.0
C552 C 0.34481 0.67024 0.40886 0.0
C553 C 0.34123 0.62014 0.41403 0.0
H554 H 0.39434 0.75365 0.39594 0.0
H555 H 0.31012 0.67459 0.41328 0.0
S556 S 0.45141 0.59082 0.40203 0.0
N557 N 0.47932 0.65571 0.39291 0.0
N558 N 0.38807 0.56982 0.41202 0.0
C559 C 0.38736 0.61639 0.40827 0.0
C560 C 0.43667 0.66276 0.39765 0.0
C561 C 0.76275 0.41967 0.59737 0.0
C562 C 0.76236 0.43337 0.55882 0.0
C563 C 0.76954 0.37639 0.60766 0.0
C564 C 0.77567 0.34497 0.5797 0.0
H565 H 0.75662 0.44196 0.61969 0.0
H566 H 0.76731 0.36582 0.63753 0.0
S567 S 0.78137 0.36623 0.47505 0.0
N568 N 0.77133 0.41354 0.49276 0.0
N569 N 0.78486 0.33269 0.51217 0.0
C570 C 0.77775 0.35967 0.5412 0.0
C571 C 0.771 0.40381 0.53073 0.0
C572 C 0.40957 0.80762 0.74782 0.0
C573 C 0.36451 0.7649 0.7304 0.0
C574 C 0.45477 0.80369 0.7566 0.0
C575 C 0.45654 0.75685 0.74839 0.0
H576 H 0.41008 0.84461 0.75431 0.0
H577 H 0.48884 0.83776 0.76955 0.0
S578 S 0.3469 0.63205 0.7057 0.0
N579 N 0.32328 0.67367 0.70678 0.0
N580 N 0.40768 0.66557 0.72384 0.0
C581 C 0.41135 0.71355 0.73138 0.0
C582 C 0.3655 0.71778 0.72222 0.0
C583 C 0.71198 0.42509 0.88388 0.0
C584 C 0.72405 0.4403 0.92238 0.0
C585 C 0.66656 0.37664 0.87367 0.0
C586 C 0.63221 0.34141 0.90172 0.0
H587 H 0.73892 0.45014 0.86161 0.0
H588 H 0.65985 0.36526 0.84387 0.0
S589 S 0.64318 0.36419 0.00614 0.0
N590 N 0.69587 0.41767 0.98841 0.0
N591 N 0.61051 0.32656 0.96913 0.0
C592 C 0.6423 0.35725 0.94011 0.0
C593 C 0.68819 0.40679 0.9505 0.0
C594 C 0.36906 0.28516 0.15575 0.0
C595 C 0.3418 0.28746 0.18828 0.0
C596 C 0.36052 0.30124 0.12002 0.0
C597 C 0.32405 0.31954 0.11563 0.0
H598 H 0.39961 0.27404 0.15831 0.0
H599 H 0.38429 0.30162 0.09601 0.0
S600 S 0.23893 0.32808 0.19119 0.0
N601 N 0.27403 0.30533 0.21341 0.0
N602 N 0.25782 0.33565 0.14606 0.0
C603 C 0.29409 0.31881 0.14743 0.0
C604 C 0.30312 0.30285 0.18387 0.0
C605 C 0.08449 0.32489 0.34238 0.0
C606 C 0.04952 0.31923 0.37232 0.0
C607 C 0.06765 0.31828 0.30422 0.0
C608 C 1.01526 0.30514 0.29517 0.0
H609 H 0.12608 0.33823 0.34829 0.0
H610 H 0.09635 0.32622 0.28172 0.0
S611 S 0.90676 0.2793 0.36296 0.0
N612 N 0.95908 0.29495 0.39037 0.0
N613 N 0.92731 0.28196 0.31862 0.0
C614 C 0.97903 0.29571 0.32483 0.0
C615 C 0.99619 0.30285 0.36351 0.0
C616 C 0.75886 0.05292 0.46151 0.0
C617 C 0.73026 0.99664 0.4595 0.0
C618 C 0.77414 0.07938 0.49662 0.0
C619 C 0.76232 0.05072 0.53127 0.0
H620 H 0.76872 0.07689 0.43576 0.0
H621 H 0.79374 0.12275 0.49648 0.0
S622 S 0.69084 0.90265 0.54185 0.0
N623 N 0.69076 0.91286 0.49552 0.0
N624 N 0.72358 0.96286 0.56119 0.0
C625 C 0.73574 0.99442 0.52964 0.0
C626 C 0.71888 0.96734 0.4939 0.0
C627 C 0.7205 0.7491 0.6219 0.0
C628 C 0.75762 0.73179 0.61675 0.0
C629 C 0.71245 0.76475 0.65786 0.0
C630 C 0.74091 0.76319 0.69 0.0
H631 H 0.69633 0.74891 0.59819 0.0
H632 H 0.68184 0.7757 0.66083 0.0
S633 S 0.84485 0.72391 0.6911 0.0
N634 N 0.8249 0.71624 0.6462 0.0
N635 N 0.80969 0.7459 0.71401 0.0
C636 C 0.77959 0.74792 0.68497 0.0
C637 C 0.78809 0.73232 0.64823 0.0
C638 C 0.09162 0.73298 0.82381 0.0
C639 C 0.07603 0.75415 0.7934 0.0
C640 C 0.06649 0.72265 0.85927 0.0
C641 C 1.0254 0.73414 0.86622 0.0
H642 H 0.12214 0.72213 0.81972 0.0
H643 H 0.07745 0.70257 0.88055 0.0
S644 S 0.97673 0.79955 0.7984 0.0
N645 N 1.02091 0.7917 0.77366 0.0
N646 N 0.97613 0.7759 0.84147 0.0
C647 C 1.0129 0.76008 0.83717 0.0
C648 C 1.03775 0.76944 0.80056 0.0
C649 C 0.32866 0.04413 0.01973 0.0
C650 C 0.31562 0.99114 0.02764 0.0
C651 C 0.34251 0.06501 0.98263 0.0
C652 C 0.3445 0.03377 0.95249 0.0
H653 H 0.3287 0.06965 0.04241 0.0
H654 H 0.35379 0.10654 0.97779 0.0
S655 S 0.31349 0.89262 0.95844 0.0
N656 N 0.30528 0.90778 0.00237 0.0
N657 N 0.33089 0.94705 0.93276 0.0
C658 C 0.33063 0.9805 0.95996 0.0
C659 C 0.31632 0.95919 -0.00247 0.0
C660 C 0.42304 0.61752 0.91604 0.0
C661 C 0.42531 0.57119 0.92534 0.0
C662 C 0.46514 0.66035 0.89631 0.0
C663 C 0.51029 0.65771 0.88447 0.0
H664 H 0.38923 0.62132 0.92497 0.0
H665 H 0.46217 0.69563 0.89013 0.0
S666 S 0.53432 0.54413 0.90054 0.0
N667 N 0.47579 0.52471 0.9206 0.0
N668 N 0.5541 0.60441 0.8829 0.0
C669 C 0.51236 0.61104 0.89288 0.0
C670 C 0.47008 0.56799 0.9135 0.0
C671 C 0.92601 0.4979 0.06791 0.0
C672 C 0.87725 0.49574 0.06004 0.0
C673 C 0.92758 0.4557 0.08667 0.0
C674 C 0.88042 0.40895 0.09753 0.0
H675 H 0.96349 0.53279 0.0598 0.0
H676 H 0.9662 0.45963 0.0925 0.0
S677 S 0.74233 0.38287 0.08341 0.0
N678 N 0.78048 0.44305 0.06476 0.0
N679 N 0.78343 0.36298 0.09929 0.0
C680 C 0.83128 0.40588 0.08957 0.0
C681 C 0.8297 0.44952 0.07111 0.0
C682 C 0.49884 0.91188 0.25492 0.0
C683 C 0.50018 0.86404 0.25998 0.0
C684 C 0.45627 0.91218 0.23584 0.0
C685 C 0.41285 0.86444 0.222 0.0
H686 H 0.53107 0.94952 0.26563 0.0
H687 H 0.45687 0.9499 0.23257 0.0
S688 S 0.39734 0.72874 0.22691 0.0
N689 N 0.45477 0.76787 0.24852 0.0
N690 N 0.37426 0.76837 0.21357 0.0
C691 C 0.41367 0.8164 0.2267 0.0
C692 C 0.4575 0.81622 0.24542 0.0
C693 C 0.62049 0.40009 0.39511 0.0
C694 C 0.57546 0.40251 0.38257 0.0
C695 C 0.66349 0.44418 0.41317 0.0
C696 C 0.66225 0.49164 0.42003 0.0
H697 H 0.62266 0.36399 0.39079 0.0
H698 H 0.69705 0.44044 0.42293 0.0
S699 S 0.55393 0.51859 0.39248 0.0
N700 N 0.53294 0.45683 0.37762 0.0
N701 N 0.61277 0.53879 0.41231 0.0
C702 C 0.61763 0.49461 0.40741 0.0
C703 C 0.57448 0.45028 0.38846 0.0
C704 C 0.16437 0.57109 0.56949 0.0
C705 C 0.21121 0.57161 0.55812 0.0
C706 C 0.16632 0.61519 0.58765 0.0
C707 C 0.21514 0.66232 0.59472 0.0
H708 H 0.12556 0.53604 0.56454 0.0
H709 H 0.12892 0.61229 0.59613 0.0
S710 S 0.34957 0.68508 0.57021 0.0
N711 N 0.30826 0.62351 0.55509 0.0
N712 N 0.31174 0.70721 0.58887 0.0
C713 C 0.26248 0.66399 0.58318 0.0
C714 C 0.26056 0.61837 0.56511 0.0
C715 C 0.62777 0.15049 0.72743 0.0
C716 C 0.67441 0.19962 0.71993 0.0
C717 C 0.5843 0.14843 0.74652 0.0
C718 C 0.58507 0.19546 0.75829 0.0
H719 H 0.62507 0.11299 0.71908 0.0
H720 H 0.54974 0.10947 0.75222 0.0
S721 S 0.69678 0.33457 0.74451 0.0
N722 N 0.71851 0.29672 0.72518 0.0
N723 N 0.63605 0.29286 0.76059 0.0
C724 C 0.63092 0.24505 0.75032 0.0
C725 C 0.67583 0.24713 0.73136 0.0
loop_
_geom_bond_atom_site_label_1
_geom_bond_atom_site_label_2
_geom_bond_distance
_geom_bond_site_symmetry_2
_ccdc_geom_bond_type
Co0 N4 2.148 . S
Co0 N10 2.128 1_556 S
Co0 N20 2.194 1_556 S
Co0 O25 2.351 . S
Co0 O26 2.155 . S
Co0 O27 2.096 . S
C1 N4 1.301 . S
C1 N5 1.328 . S
C1 H6 0.930 . S
C2 C3 1.333 . S
C2 N4 1.317 . S
C2 H7 0.930 . S
C3 C2 1.333 . S
C3 N5 1.350 . S
C3 H29 0.931 . S
N4 Co0 2.148 . S
N4 C1 1.301 . S
N4 C2 1.317 . S
N5 C1 1.328 . S
N5 C3 1.350 . S
H6 C1 0.930 . S
H7 C2 0.930 . S
C8 O9 1.224 . S
C8 O27 1.247 1_554 S
O9 C8 1.224 . S
N10 Co0 2.128 1_554 S
N10 C11 1.355 . S
N10 C13 1.311 . S
C11 N10 1.355 . S
C11 C12 1.363 . S
C11 H23 0.929 . S
C12 C11 1.363 . S
C12 N14 1.375 . S
C12 H30 0.931 . S
C13 N10 1.311 . S
C13 N14 1.347 . S
C13 H24 0.929 . S
N14 C12 1.375 . S
N14 C13 1.347 . S
C15 C18 1.365 . S
C15 N20 1.328 . S
C15 H21 0.929 . S
C16 C17 1.362 . S
C16 C19 1.378 . S
C16 H31 0.929 . S
C17 C16 1.362 . S
C17 C18 1.366 . S
C18 C15 1.365 . S
C18 C17 1.366 . S
C18 H32 0.930 . S
C19 C16 1.378 . S
C19 N20 1.315 . S
C19 H22 0.930 . S
N20 Co0 2.194 1_554 S
N20 C15 1.328 . S
N20 C19 1.315 . S
H21 C15 0.929 . S
H22 C19 0.930 . S
H23 C11 0.929 . S
H24 C13 0.929 . S
O25 Co0 2.351 . S
O25 C28 1.244 . S
O26 Co0 2.155 . S
O26 C28 1.240 . S
O27 Co0 2.096 . S
O27 C8 1.247 1_556 S
C28 O25 1.244 . S
C28 O26 1.240 . S
H29 C3 0.931 . S
H30 C12 0.931 . S
H31 C16 0.929 . S
H32 C18 0.930 . S
Co33 N37 2.148 . S
Co33 N43 2.128 . S
Co33 N53 2.194 . S
Co33 O58 2.351 . S
Co33 O59 2.155 . S
Co33 O60 2.096 . S
C34 N37 1.301 . S
C34 N38 1.328 . S
C34 H39 0.930 . S
C35 C36 1.333 . S
C35 N37 1.317 . S
C35 H40 0.930 . S
C36 C35 1.333 . S
C36 N38 1.350 . S
C36 H62 0.931 . S
N37 Co33 2.148 . S
N37 C34 1.301 . S
N37 C35 1.317 . S
N38 C34 1.328 . S
N38 C36 1.350 . S
H39 C34 0.930 . S
H40 C35 0.930 . S
C41 O42 1.224 . S
C41 O60 1.247 . S
O42 C41 1.224 . S
N43 Co33 2.128 . S
N43 C44 1.355 . S
N43 C46 1.311 . S
C44 N43 1.355 . S
C44 C45 1.363 . S
C44 H56 0.929 . S
C45 C44 1.363 . S
C45 N47 1.375 . S
C45 H63 0.931 . S
C46 N43 1.311 . S
C46 N47 1.347 . S
C46 H57 0.929 . S
N47 C45 1.375 . S
N47 C46 1.347 . S
C48 C51 1.365 . S
C48 N53 1.328 . S
C48 H54 0.929 . S
C49 C50 1.362 . S
C49 C52 1.378 . S
C49 H64 0.929 . S
C50 C49 1.362 . S
C50 C51 1.366 . S
C51 C48 1.365 . S
C51 C50 1.366 . S
C51 H65 0.930 . S
C52 C49 1.378 . S
C52 N53 1.315 . S
C52 H55 0.930 . S
N53 Co33 2.194 . S
N53 C48 1.328 . S
N53 C52 1.315 . S
H54 C48 0.929 . S
H55 C52 0.930 . S
H56 C44 0.929 . S
H57 C46 0.929 . S
O58 Co33 2.351 . S
O58 C61 1.244 . S
O59 Co33 2.155 . S
O59 C61 1.240 . S
O60 Co33 2.096 . S
O60 C41 1.247 . S
C61 O58 1.244 . S
C61 O59 1.240 . S
H62 C36 0.931 . S
H63 C45 0.931 . S
H64 C49 0.929 . S
H65 C51 0.930 . S
Co66 N70 2.148 . S
Co66 N76 2.128 . S
Co66 N86 2.194 . S
Co66 O91 2.351 . S
Co66 O92 2.155 . S
Co66 O93 2.096 . S
C67 N70 1.301 . S
C67 N71 1.328 . S
C67 H72 0.930 . S
C68 C69 1.333 . S
C68 N70 1.317 . S
C68 H73 0.930 . S
C69 C68 1.333 . S
C69 N71 1.350 . S
C69 H95 0.931 . S
N70 Co66 2.148 . S
N70 C67 1.301 . S
N70 C68 1.317 . S
N71 C67 1.328 . S
N71 C69 1.350 . S
H72 C67 0.930 . S
H73 C68 0.930 . S
C74 O75 1.224 . S
C74 O93 1.247 . S
O75 C74 1.224 . S
N76 Co66 2.128 . S
N76 C77 1.355 . S
N76 C79 1.311 . S
C77 N76 1.355 . S
C77 C78 1.363 . S
C77 H89 0.929 . S
C78 C77 1.363 . S
C78 N80 1.375 . S
C78 H96 0.931 . S
C79 N76 1.311 . S
C79 N80 1.347 . S
C79 H90 0.929 . S
N80 C78 1.375 . S
N80 C79 1.347 . S
C81 C84 1.365 . S
C81 N86 1.328 . S
C81 H87 0.929 . S
C82 C83 1.362 . S
C82 C85 1.378 . S
C82 H97 0.929 . S
C83 C82 1.362 . S
C83 C84 1.366 . S
C84 C81 1.365 . S
C84 C83 1.366 . S
C84 H98 0.930 . S
C85 C82 1.378 . S
C85 N86 1.315 . S
C85 H88 0.930 . S
N86 Co66 2.194 . S
N86 C81 1.328 . S
N86 C85 1.315 . S
H87 C81 0.929 . S
H88 C85 0.930 . S
H89 C77 0.929 . S
H90 C79 0.929 . S
O91 Co66 2.351 . S
O91 C94 1.244 . S
O92 Co66 2.155 . S
O92 C94 1.240 . S
O93 Co66 2.096 . S
O93 C74 1.247 . S
C94 O91 1.244 . S
C94 O92 1.240 . S
H95 C69 0.931 . S
H96 C78 0.931 . S
H97 C82 0.929 . S
H98 C84 0.930 . S
Co99 N103 2.148 . S
Co99 N109 2.128 . S
Co99 N119 2.194 . S
Co99 O124 2.351 . S
Co99 O125 2.155 . S
Co99 O126 2.096 . S
C100 N103 1.301 . S
C100 N104 1.328 . S
C100 H105 0.930 . S
C101 C102 1.333 . S
C101 N103 1.317 . S
C101 H106 0.930 . S
C102 C101 1.333 . S
C102 N104 1.350 . S
C102 H128 0.931 . S
N103 Co99 2.148 . S
N103 C100 1.301 . S
N103 C101 1.317 . S
N104 C100 1.328 . S
N104 C102 1.350 . S
H105 C100 0.930 . S
H106 C101 0.930 . S
C107 O108 1.224 . S
C107 O126 1.247 . S
O108 C107 1.224 . S
N109 Co99 2.128 . S
N109 C110 1.355 . S
N109 C112 1.311 . S
C110 N109 1.355 . S
C110 C111 1.363 . S
C110 H122 0.929 . S
C111 C110 1.363 . S
C111 N113 1.375 . S
C111 H129 0.931 . S
C112 N109 1.311 . S
C112 N113 1.347 . S
C112 H123 0.929 . S
N113 C111 1.375 . S
N113 C112 1.347 . S
C114 C117 1.365 . S
C114 N119 1.328 . S
C114 H120 0.929 . S
C115 C116 1.362 . S
C115 C118 1.378 . S
C115 H130 0.929 . S
C116 C115 1.362 . S
C116 C117 1.366 . S
C117 C114 1.365 . S
C117 C116 1.366 . S
C117 H131 0.930 . S
C118 C115 1.378 . S
C118 N119 1.315 . S
C118 H121 0.930 . S
N119 Co99 2.194 . S
N119 C114 1.328 . S
N119 C118 1.315 . S
H120 C114 0.929 . S
H121 C118 0.930 . S
H122 C110 0.929 . S
H123 C112 0.929 . S
O124 Co99 2.351 . S
O124 C127 1.244 . S
O125 Co99 2.155 . S
O125 C127 1.240 . S
O126 Co99 2.096 . S
O126 C107 1.247 . S
C127 O124 1.244 . S
C127 O125 1.240 . S
H128 C102 0.931 . S
H129 C111 0.931 . S
H130 C115 0.929 . S
H131 C117 0.930 . S
Co132 N136 2.148 . S
Co132 N142 2.128 . S
Co132 N152 2.194 . S
Co132 O157 2.351 . S
Co132 O158 2.155 . S
Co132 O159 2.096 . S
C133 N136 1.301 . S
C133 N137 1.328 . S
C133 H138 0.930 . S
C134 C135 1.333 . S
C134 N136 1.317 . S
C134 H139 0.930 . S
C135 C134 1.333 . S
C135 N137 1.350 . S
C135 H161 0.931 . S
N136 Co132 2.148 . S
N136 C133 1.301 . S
N136 C134 1.317 . S
N137 C133 1.328 . S
N137 C135 1.350 . S
H138 C133 0.930 . S
H139 C134 0.930 . S
C140 O141 1.224 . S
C140 O159 1.247 . S
O141 C140 1.224 . S
N142 Co132 2.128 . S
N142 C143 1.355 . S
N142 C145 1.311 . S
C143 N142 1.355 . S
C143 C144 1.363 . S
C143 H155 0.929 . S
C144 C143 1.363 . S
C144 N146 1.375 . S
C144 H162 0.931 . S
C145 N142 1.311 . S
C145 N146 1.347 . S
C145 H156 0.929 . S
N146 C144 1.375 . S
N146 C145 1.347 . S
C147 C150 1.365 . S
C147 N152 1.328 . S
C147 H153 0.929 . S
C148 C149 1.362 . S
C148 C151 1.378 . S
C148 H163 0.929 . S
C149 C148 1.362 . S
C149 C150 1.366 . S
C150 C147 1.365 . S
C150 C149 1.366 . S
C150 H164 0.930 . S
C151 C148 1.378 . S
C151 N152 1.315 . S
C151 H154 0.930 . S
N152 Co132 2.194 . S
N152 C147 1.328 . S
N152 C151 1.315 . S
H153 C147 0.929 . S
H154 C151 0.930 . S
H155 C143 0.929 . S
H156 C145 0.929 . S
O157 Co132 2.351 . S
O157 C160 1.244 . S
O158 Co132 2.155 . S
O158 C160 1.240 . S
O159 Co132 2.096 . S
O159 C140 1.247 . S
C160 O157 1.244 . S
C160 O158 1.240 . S
H161 C135 0.931 . S
H162 C144 0.931 . S
H163 C148 0.929 . S
H164 C150 0.930 . S
Co165 N169 2.148 . S
Co165 N175 2.128 . S
Co165 N185 2.194 . S
Co165 O190 2.351 . S
Co165 O191 2.155 . S
Co165 O192 2.096 . S
C166 N169 1.301 . S
C166 N170 1.328 . S
C166 H171 0.930 . S
C167 C168 1.333 . S
C167 N169 1.317 . S
C167 H172 0.930 . S
C168 C167 1.333 . S
C168 N170 1.350 . S
C168 H194 0.931 . S
N169 Co165 2.148 . S
N169 C166 1.301 . S
N169 C167 1.317 . S
N170 C166 1.328 . S
N170 C168 1.350 . S
H171 C166 0.930 . S
H172 C167 0.930 . S
C173 O174 1.224 . S
C173 O192 1.247 . S
O174 C173 1.224 . S
N175 Co165 2.128 . S
N175 C176 1.355 . S
N175 C178 1.311 . S
C176 N175 1.355 . S
C176 C177 1.363 . S
C176 H188 0.929 . S
C177 C176 1.363 . S
C177 N179 1.375 . S
C177 H195 0.931 . S
C178 N175 1.311 . S
C178 N179 1.347 . S
C178 H189 0.929 . S
N179 C177 1.375 . S
N179 C178 1.347 . S
C180 C183 1.365 . S
C180 N185 1.328 . S
C180 H186 0.929 . S
C181 C182 1.362 . S
C181 C184 1.378 . S
C181 H196 0.929 . S
C182 C181 1.362 . S
C182 C183 1.366 . S
C183 C180 1.365 . S
C183 C182 1.366 . S
C183 H197 0.930 . S
C184 C181 1.378 . S
C184 N185 1.315 . S
C184 H187 0.930 . S
N185 Co165 2.194 . S
N185 C180 1.328 . S
N185 C184 1.315 . S
H186 C180 0.929 . S
H187 C184 0.930 . S
H188 C176 0.929 . S
H189 C178 0.929 . S
O190 Co165 2.351 . S
O190 C193 1.244 . S
O191 Co165 2.155 . S
O191 C193 1.240 . S
O192 Co165 2.096 . S
O192 C173 1.247 . S
C193 O190 1.244 . S
C193 O191 1.240 . S
H194 C168 0.931 . S
H195 C177 0.931 . S
H196 C181 0.929 . S
H197 C183 0.930 . S
Co198 N202 2.148 . S
Co198 N208 2.128 . S
Co198 N218 2.194 . S
Co198 O223 2.351 . S
Co198 O224 2.155 . S
Co198 O225 2.096 . S
C199 N202 1.301 . S
C199 N203 1.328 . S
C199 H204 0.930 . S
C200 C201 1.333 . S
C200 N202 1.317 . S
C200 H205 0.930 . S
C201 C200 1.333 . S
C201 N203 1.350 . S
C201 H227 0.931 . S
N202 Co198 2.148 . S
N202 C199 1.301 . S
N202 C200 1.317 . S
N203 C199 1.328 . S
N203 C201 1.350 . S
H204 C199 0.930 . S
H205 C200 0.930 . S
C206 O207 1.224 . S
C206 O225 1.247 . S
O207 C206 1.224 . S
N208 Co198 2.128 . S
N208 C209 1.355 . S
N208 C211 1.311 . S
C209 N208 1.355 . S
C209 C210 1.363 . S
C209 H221 0.929 . S
C210 C209 1.363 . S
C210 N212 1.375 . S
C210 H228 0.931 . S
C211 N208 1.311 . S
C211 N212 1.347 . S
C211 H222 0.929 . S
N212 C210 1.375 . S
N212 C211 1.347 . S
C213 C216 1.365 . S
C213 N218 1.328 . S
C213 H219 0.929 . S
C214 C215 1.362 . S
C214 C217 1.378 . S
C214 H229 0.929 . S
C215 C214 1.362 . S
C215 C216 1.366 . S
C216 C213 1.365 . S
C216 C215 1.366 . S
C216 H230 0.930 . S
C217 C214 1.378 . S
C217 N218 1.315 . S
C217 H220 0.930 . S
N218 Co198 2.194 . S
N218 C213 1.328 . S
N218 C217 1.315 . S
H219 C213 0.929 . S
H220 C217 0.930 . S
H221 C209 0.929 . S
H222 C211 0.929 . S
O223 Co198 2.351 . S
O223 C226 1.244 . S
O224 Co198 2.155 . S
O224 C226 1.240 . S
O225 Co198 2.096 . S
O225 C206 1.247 . S
C226 O223 1.244 . S
C226 O224 1.240 . S
H227 C201 0.931 . S
H228 C210 0.931 . S
H229 C214 0.929 . S
H230 C216 0.930 . S
Co231 N235 2.148 . S
Co231 N241 2.128 1_554 S
Co231 N251 2.194 1_554 S
Co231 O256 2.351 . S
Co231 O257 2.155 . S
Co231 O258 2.096 . S
C232 N235 1.301 . S
C232 N236 1.328 . S
C232 H237 0.930 . S
C233 C234 1.333 . S
C233 N235 1.317 . S
C233 H238 0.930 . S
C234 C233 1.333 . S
C234 N236 1.350 . S
C234 H260 0.931 . S
N235 Co231 2.148 . S
N235 C232 1.301 . S
N235 C233 1.317 . S
N236 C232 1.328 . S
N236 C234 1.350 . S
H237 C232 0.930 . S
H238 C233 0.930 . S
C239 O240 1.224 . S
C239 O258 1.247 1_556 S
O240 C239 1.224 . S
N241 Co231 2.128 1_556 S
N241 C242 1.355 . S
N241 C244 1.311 . S
C242 N241 1.355 . S
C242 C243 1.363 . S
C242 H254 0.929 . S
C243 C242 1.363 . S
C243 N245 1.375 . S
C243 H261 0.931 . S
C244 N241 1.311 . S
C244 N245 1.347 . S
C244 H255 0.929 . S
N245 C243 1.375 . S
N245 C244 1.347 . S
C246 C249 1.365 . S
C246 N251 1.328 . S
C246 H252 0.929 . S
C247 C248 1.362 . S
C247 C250 1.378 . S
C247 H262 0.929 . S
C248 C247 1.362 . S
C248 C249 1.366 . S
C249 C246 1.365 . S
C249 C248 1.366 . S
C249 H263 0.930 . S
C250 C247 1.378 . S
C250 N251 1.315 . S
C250 H253 0.930 . S
N251 Co231 2.194 1_556 S
N251 C246 1.328 . S
N251 C250 1.315 . S
H252 C246 0.929 . S
H253 C250 0.930 . S
H254 C242 0.929 . S
H255 C244 0.929 . S
O256 Co231 2.351 . S
O256 C259 1.244 . S
O257 Co231 2.155 . S
O257 C259 1.240 . S
O258 Co231 2.096 . S
O258 C239 1.247 1_554 S
C259 O256 1.244 . S
C259 O257 1.240 . S
H260 C234 0.931 . S
H261 C243 0.931 . S
H262 C247 0.929 . S
H263 C249 0.930 . S
Co264 N268 2.148 . S
Co264 N274 2.128 . S
Co264 N284 2.194 . S
Co264 O289 2.351 . S
Co264 O290 2.155 . S
Co264 O291 2.096 . S
C265 N268 1.301 . S
C265 N269 1.328 . S
C265 H270 0.930 . S
C266 C267 1.333 . S
C266 N268 1.317 . S
C266 H271 0.930 . S
C267 C266 1.333 . S
C267 N269 1.350 . S
C267 H293 0.931 . S
N268 Co264 2.148 . S
N268 C265 1.301 . S
N268 C266 1.317 . S
N269 C265 1.328 . S
N269 C267 1.350 . S
H270 C265 0.930 . S
H271 C266 0.930 . S
C272 O273 1.224 . S
C272 O291 1.247 . S
O273 C272 1.224 . S
N274 Co264 2.128 . S
N274 C275 1.355 . S
N274 C277 1.311 . S
C275 N274 1.355 . S
C275 C276 1.363 . S
C275 H287 0.929 . S
C276 C275 1.363 . S
C276 N278 1.375 . S
C276 H294 0.931 . S
C277 N274 1.311 . S
C277 N278 1.347 . S
C277 H288 0.929 . S
N278 C276 1.375 . S
N278 C277 1.347 . S
C279 C282 1.365 . S
C279 N284 1.328 . S
C279 H285 0.929 . S
C280 C281 1.362 . S
C280 C283 1.378 . S
C280 H295 0.929 . S
C281 C280 1.362 . S
C281 C282 1.366 . S
C282 C279 1.365 . S
C282 C281 1.366 . S
C282 H296 0.930 . S
C283 C280 1.378 . S
C283 N284 1.315 . S
C283 H286 0.930 . S
N284 Co264 2.194 . S
N284 C279 1.328 . S
N284 C283 1.315 . S
H285 C279 0.929 . S
H286 C283 0.930 . S
H287 C275 0.929 . S
H288 C277 0.929 . S
O289 Co264 2.351 . S
O289 C292 1.244 . S
O290 Co264 2.155 . S
O290 C292 1.240 . S
O291 Co264 2.096 . S
O291 C272 1.247 . S
C292 O289 1.244 . S
C292 O290 1.240 . S
H293 C267 0.931 . S
H294 C276 0.931 . S
H295 C280 0.929 . S
H296 C282 0.930 . S
Co297 N301 2.148 . S
Co297 N307 2.128 . S
Co297 N317 2.194 . S
Co297 O322 2.351 . S
Co297 O323 2.155 . S
Co297 O324 2.096 . S
C298 N301 1.301 . S
C298 N302 1.328 . S
C298 H303 0.930 . S
C299 C300 1.333 . S
C299 N301 1.317 . S
C299 H304 0.930 . S
C300 C299 1.333 . S
C300 N302 1.350 . S
C300 H326 0.931 . S
N301 Co297 2.148 . S
N301 C298 1.301 . S
N301 C299 1.317 . S
N302 C298 1.328 . S
N302 C300 1.350 . S
H303 C298 0.930 . S
H304 C299 0.930 . S
C305 O306 1.224 . S
C305 O324 1.247 . S
O306 C305 1.224 . S
N307 Co297 2.128 . S
N307 C308 1.355 . S
N307 C310 1.311 . S
C308 N307 1.355 . S
C308 C309 1.363 . S
C308 H320 0.929 . S
C309 C308 1.363 . S
C309 N311 1.375 . S
C309 H327 0.931 . S
C310 N307 1.311 . S
C310 N311 1.347 . S
C310 H321 0.929 . S
N311 C309 1.375 . S
N311 C310 1.347 . S
C312 C315 1.365 . S
C312 N317 1.328 . S
C312 H318 0.929 . S
C313 C314 1.362 . S
C313 C316 1.378 . S
C313 H328 0.929 . S
C314 C313 1.362 . S
C314 C315 1.366 . S
C315 C312 1.365 . S
C315 C314 1.366 . S
C315 H329 0.930 . S
C316 C313 1.378 . S
C316 N317 1.315 . S
C316 H319 0.930 . S
N317 Co297 2.194 . S
N317 C312 1.328 . S
N317 C316 1.315 . S
H318 C312 0.929 . S
H319 C316 0.930 . S
H320 C308 0.929 . S
H321 C310 0.929 . S
O322 Co297 2.351 . S
O322 C325 1.244 . S
O323 Co297 2.155 . S
O323 C325 1.240 . S
O324 Co297 2.096 . S
O324 C305 1.247 . S
C325 O322 1.244 . S
C325 O323 1.240 . S
H326 C300 0.931 . S
H327 C309 0.931 . S
H328 C313 0.929 . S
H329 C315 0.930 . S
Co330 N334 2.148 . S
Co330 N340 2.128 . S
Co330 N350 2.194 . S
Co330 O355 2.351 . S
Co330 O356 2.155 . S
Co330 O357 2.096 . S
C331 N334 1.301 . S
C331 N335 1.328 . S
C331 H336 0.930 . S
C332 C333 1.333 . S
C332 N334 1.317 . S
C332 H337 0.930 . S
C333 C332 1.333 . S
C333 N335 1.350 . S
C333 H359 0.931 . S
N334 Co330 2.148 . S
N334 C331 1.301 . S
N334 C332 1.317 . S
N335 C331 1.328 . S
N335 C333 1.350 . S
H336 C331 0.930 . S
H337 C332 0.930 . S
C338 O339 1.224 . S
C338 O357 1.247 . S
O339 C338 1.224 . S
N340 Co330 2.128 . S
N340 C341 1.355 . S
N340 C343 1.311 . S
C341 N340 1.355 . S
C341 C342 1.363 . S
C341 H353 0.929 . S
C342 C341 1.363 . S
C342 N344 1.375 . S
C342 H360 0.931 . S
C343 N340 1.311 . S
C343 N344 1.347 . S
C343 H354 0.929 . S
N344 C342 1.375 . S
N344 C343 1.347 . S
C345 C348 1.365 . S
C345 N350 1.328 . S
C345 H351 0.929 . S
C346 C347 1.362 . S
C346 C349 1.378 . S
C346 H361 0.929 . S
C347 C346 1.362 . S
C347 C348 1.366 . S
C348 C345 1.365 . S
C348 C347 1.366 . S
C348 H362 0.930 . S
C349 C346 1.378 . S
C349 N350 1.315 . S
C349 H352 0.930 . S
N350 Co330 2.194 . S
N350 C345 1.328 . S
N350 C349 1.315 . S
H351 C345 0.929 . S
H352 C349 0.930 . S
H353 C341 0.929 . S
H354 C343 0.929 . S
O355 Co330 2.351 . S
O355 C358 1.244 . S
O356 Co330 2.155 . S
O356 C358 1.240 . S
O357 Co330 2.096 . S
O357 C338 1.247 . S
C358 O355 1.244 . S
C358 O356 1.240 . S
H359 C333 0.931 . S
H360 C342 0.931 . S
H361 C346 0.929 . S
H362 C348 0.930 . S
Co363 N367 2.148 . S
Co363 N373 2.128 . S
Co363 N383 2.194 . S
Co363 O388 2.351 . S
Co363 O389 2.155 . S
Co363 O390 2.096 . S
C364 N367 1.301 . S
C364 N368 1.328 . S
C364 H369 0.930 . S
C365 C366 1.333 . S
C365 N367 1.317 . S
C365 H370 0.930 . S
C366 C365 1.333 . S
C366 N368 1.350 . S
C366 H392 0.931 . S
N367 Co363 2.148 . S
N367 C364 1.301 . S
N367 C365 1.317 . S
N368 C364 1.328 . S
N368 C366 1.350 . S
H369 C364 0.930 . S
H370 C365 0.930 . S
C371 O372 1.224 . S
C371 O390 1.247 . S
O372 C371 1.224 . S
N373 Co363 2.128 . S
N373 C374 1.355 . S
N373 C376 1.311 . S
C374 N373 1.355 . S
C374 C375 1.363 . S
C374 H386 0.929 . S
C375 C374 1.363 . S
C375 N377 1.375 . S
C375 H393 0.931 . S
C376 N373 1.311 . S
C376 N377 1.347 . S
C376 H387 0.929 . S
N377 C375 1.375 . S
N377 C376 1.347 . S
C378 C381 1.365 . S
C378 N383 1.328 . S
C378 H384 0.929 . S
C379 C380 1.362 . S
C379 C382 1.378 . S
C379 H394 0.929 . S
C380 C379 1.362 . S
C380 C381 1.366 . S
C381 C378 1.365 . S
C381 C380 1.366 . S
C381 H395 0.930 . S
C382 C379 1.378 . S
C382 N383 1.315 . S
C382 H385 0.930 . S
N383 Co363 2.194 . S
N383 C378 1.328 . S
N383 C382 1.315 . S
H384 C378 0.929 . S
H385 C382 0.930 . S
H386 C374 0.929 . S
H387 C376 0.929 . S
O388 Co363 2.351 . S
O388 C391 1.244 . S
O389 Co363 2.155 . S
O389 C391 1.240 . S
O390 Co363 2.096 . S
O390 C371 1.247 . S
C391 O388 1.244 . S
C391 O389 1.240 . S
H392 C366 0.931 . S
H393 C375 0.931 . S
H394 C379 0.929 . S
H395 C381 0.930 . S
C396 C397 1.369 . S
C396 C398 1.419 . S
C396 H400 0.930 . S
C397 C396 1.369 . S
C397 C406 1.429 . S
C398 C396 1.419 . S
C398 C399 1.363 . S
C398 H401 0.929 . S
C399 C398 1.363 . S
C399 C405 1.428 . S
H400 C396 0.930 . S
H401 C398 0.929 . S
S402 N403 1.613 . S
S402 N404 1.610 . S
N403 S402 1.613 . S
N403 C406 1.350 . S
N404 S402 1.610 . S
N404 C405 1.351 . S
C405 C399 1.428 . S
C405 N404 1.351 . S
C405 C406 1.434 . S
C406 C397 1.429 . S
C406 N403 1.350 . S
C406 C405 1.434 . S
C407 C408 1.369 . S
C407 C409 1.419 . S
C407 H411 0.930 . S
C408 C407 1.369 . S
C408 C417 1.429 . S
C409 C407 1.419 . S
C409 C410 1.363 . S
C409 H412 0.929 . S
C410 C409 1.363 . S
C410 C416 1.428 . S
H411 C407 0.930 . S
H412 C409 0.929 . S
S413 N414 1.613 . S
S413 N415 1.610 . S
N414 S413 1.613 . S
N414 C417 1.350 . S
N415 S413 1.610 . S
N415 C416 1.351 . S
C416 C410 1.428 . S
C416 N415 1.351 . S
C416 C417 1.434 . S
C417 C408 1.429 . S
C417 N414 1.350 . S
C417 C416 1.434 . S
C418 C419 1.369 . S
C418 C420 1.419 . S
C418 H422 0.930 . S
C419 C418 1.369 . S
C419 C428 1.429 . S
C420 C418 1.419 . S
C420 C421 1.363 . S
C420 H423 0.929 . S
C421 C420 1.363 . S
C421 C427 1.428 . S
H422 C418 0.930 . S
H423 C420 0.929 . S
S424 N425 1.613 . S
S424 N426 1.610 . S
N425 S424 1.613 . S
N425 C428 1.350 . S
N426 S424 1.610 . S
N426 C427 1.351 . S
C427 C421 1.428 . S
C427 N426 1.351 . S
C427 C428 1.434 . S
C428 C419 1.429 . S
C428 N425 1.350 . S
C428 C427 1.434 . S
C429 C430 1.369 . S
C429 C431 1.419 . S
C429 H433 0.930 . S
C430 C429 1.369 . S
C430 C439 1.429 . S
C431 C429 1.419 . S
C431 C432 1.363 . S
C431 H434 0.929 . S
C432 C431 1.363 . S
C432 C438 1.428 . S
H433 C429 0.930 . S
H434 C431 0.929 . S
S435 N436 1.613 . S
S435 N437 1.610 . S
N436 S435 1.613 . S
N436 C439 1.350 . S
N437 S435 1.610 . S
N437 C438 1.351 . S
C438 C432 1.428 . S
C438 N437 1.351 . S
C438 C439 1.434 . S
C439 C430 1.429 . S
C439 N436 1.350 . S
C439 C438 1.434 . S
C440 C441 1.369 . S
C440 C442 1.419 . S
C440 H444 0.930 . S
C441 C440 1.369 . S
C441 C450 1.429 . S
C442 C440 1.419 . S
C442 C443 1.363 . S
C442 H445 0.929 . S
C443 C442 1.363 . S
C443 C449 1.428 . S
H444 C440 0.930 . S
H445 C442 0.929 . S
S446 N447 1.613 1_655 S
S446 N448 1.610 . S
N447 S446 1.613 1_455 S
N447 C450 1.350 1_455 S
N448 S446 1.610 . S
N448 C449 1.351 . S
C449 C443 1.428 . S
C449 N448 1.351 . S
C449 C450 1.434 . S
C450 C441 1.429 . S
C450 N447 1.350 1_655 S
C450 C449 1.434 . S
C451 C452 1.369 . S
C451 C453 1.419 . S
C451 H455 0.930 . S
C452 C451 1.369 . S
C452 C461 1.429 . S
C453 C451 1.419 . S
C453 C454 1.363 . S
C453 H456 0.929 1_565 S
C454 C453 1.363 . S
C454 C460 1.428 . S
H455 C451 0.930 . S
H456 C453 0.929 1_545 S
S457 N458 1.613 . S
S457 N459 1.610 . S
N458 S457 1.613 . S
N458 C461 1.350 . S
N459 S457 1.610 . S
N459 C460 1.351 . S
C460 C454 1.428 . S
C460 N459 1.351 . S
C460 C461 1.434 . S
C461 C452 1.429 . S
C461 N458 1.350 . S
C461 C460 1.434 . S
C462 C463 1.369 . S
C462 C464 1.419 . S
C462 H466 0.930 1_556 S
C463 C462 1.369 . S
C463 C472 1.429 . S
C464 C462 1.419 . S
C464 C465 1.363 . S
C464 H467 0.929 . S
C465 C464 1.363 . S
C465 C471 1.428 . S
H466 C462 0.930 1_554 S
H467 C464 0.929 . S
S468 N469 1.613 . S
S468 N470 1.610 . S
N469 S468 1.613 . S
N469 C472 1.350 . S
N470 S468 1.610 . S
N470 C471 1.351 . S
C471 C465 1.428 . S
C471 N470 1.351 . S
C471 C472 1.434 . S
C472 C463 1.429 . S
C472 N469 1.350 . S
C472 C471 1.434 . S
C473 C474 1.369 . S
C473 C475 1.419 . S
C473 H477 0.930 . S
C474 C473 1.369 . S
C474 C483 1.429 . S
C475 C473 1.419 . S
C475 C476 1.363 . S
C475 H478 0.929 1_455 S
C476 C475 1.363 . S
C476 C482 1.428 . S
H477 C473 0.930 . S
H478 C475 0.929 1_655 S
S479 N480 1.613 . S
S479 N481 1.610 . S
N480 S479 1.613 . S
N480 C483 1.350 . S
N481 S479 1.610 . S
N481 C482 1.351 . S
C482 C476 1.428 . S
C482 N481 1.351 . S
C482 C483 1.434 . S
C483 C474 1.429 . S
C483 N480 1.350 . S
C483 C482 1.434 . S
C484 C485 1.369 . S
C484 C486 1.419 . S
C484 H488 0.930 . S
C485 C484 1.369 . S
C485 C494 1.429 . S
C486 C484 1.419 . S
C486 C487 1.363 . S
C486 H489 0.929 1_545 S
C487 C486 1.363 . S
C487 C493 1.428 . S
H488 C484 0.930 . S
H489 C486 0.929 1_565 S
S490 N491 1.613 . S
S490 N492 1.610 . S
N491 S490 1.613 . S
N491 C494 1.350 . S
N492 S490 1.610 . S
N492 C493 1.351 . S
C493 C487 1.428 . S
C493 N492 1.351 . S
C493 C494 1.434 . S
C494 C485 1.429 . S
C494 N491 1.350 . S
C494 C493 1.434 . S
C495 C496 1.369 . S
C495 C497 1.419 . S
C495 H499 0.930 . S
C496 C495 1.369 . S
C496 C505 1.429 . S
C497 C495 1.419 . S
C497 C498 1.363 . S
C497 H500 0.929 . S
C498 C497 1.363 . S
C498 C504 1.428 . S
H499 C495 0.930 . S
H500 C497 0.929 . S
S501 N502 1.613 . S
S501 N503 1.610 . S
N502 S501 1.613 . S
N502 C505 1.350 . S
N503 S501 1.610 . S
N503 C504 1.351 . S
C504 C498 1.428 . S
C504 N503 1.351 . S
C504 C505 1.434 . S
C505 C496 1.429 . S
C505 N502 1.350 . S
C505 C504 1.434 . S
C506 C507 1.369 . S
C506 C508 1.419 . S
C506 H510 0.930 . S
C507 C506 1.369 . S
C507 C516 1.429 . S
C508 C506 1.419 . S
C508 C509 1.363 . S
C508 H511 0.929 1_655 S
C509 C508 1.363 . S
C509 C515 1.428 . S
H510 C506 0.930 . S
H511 C508 0.929 1_455 S
S512 N513 1.613 . S
S512 N514 1.610 . S
N513 S512 1.613 . S
N513 C516 1.350 . S
N514 S512 1.610 . S
N514 C515 1.351 . S
C515 C509 1.428 . S
C515 N514 1.351 . S
C515 C516 1.434 . S
C516 C507 1.429 . S
C516 N513 1.350 . S
C516 C515 1.434 . S
C517 C518 1.369 . S
C517 C519 1.419 . S
C517 H521 0.930 . S
C518 C517 1.369 . S
C518 C527 1.429 . S
C519 C517 1.419 . S
C519 C520 1.363 . S
C519 H522 0.929 1_565 S
C520 C519 1.363 . S
C520 C526 1.428 . S
H521 C517 0.930 . S
H522 C519 0.929 1_545 S
S523 N524 1.613 . S
S523 N525 1.610 . S
N524 S523 1.613 . S
N524 C527 1.350 . S
N525 S523 1.610 . S
N525 C526 1.351 . S
C526 C520 1.428 . S
C526 N525 1.351 . S
C526 C527 1.434 . S
C527 C518 1.429 . S
C527 N524 1.350 . S
C527 C526 1.434 . S
C528 C529 1.369 . S
C528 C530 1.419 . S
C528 H532 0.930 . S
C529 C528 1.369 . S
C529 C538 1.429 . S
C530 C528 1.419 . S
C530 C531 1.363 . S
C530 H533 0.929 . S
C531 C530 1.363 . S
C531 C537 1.428 . S
H532 C528 0.930 . S
H533 C530 0.929 . S
S534 N535 1.613 . S
S534 N536 1.610 . S
N535 S534 1.613 . S
N535 C538 1.350 . S
N536 S534 1.610 . S
N536 C537 1.351 . S
C537 C531 1.428 . S
C537 N536 1.351 . S
C537 C538 1.434 . S
C538 C529 1.429 . S
C538 N535 1.350 . S
C538 C537 1.434 . S
C539 C540 1.369 . S
C539 C541 1.419 . S
C539 H543 0.930 . S
C540 C539 1.369 . S
C540 C549 1.429 . S
C541 C539 1.419 . S
C541 C542 1.363 . S
C541 H544 0.929 . S
C542 C541 1.363 . S
C542 C548 1.428 . S
H543 C539 0.930 . S
H544 C541 0.929 . S
S545 N546 1.613 . S
S545 N547 1.610 . S
N546 S545 1.613 . S
N546 C549 1.350 . S
N547 S545 1.610 . S
N547 C548 1.351 . S
C548 C542 1.428 . S
C548 N547 1.351 . S
C548 C549 1.434 . S
C549 C540 1.429 . S
C549 N546 1.350 . S
C549 C548 1.434 . S
C550 C551 1.369 . S
C550 C552 1.419 . S
C550 H554 0.930 . S
C551 C550 1.369 . S
C551 C560 1.429 . S
C552 C550 1.419 . S
C552 C553 1.363 . S
C552 H555 0.929 . S
C553 C552 1.363 . S
C553 C559 1.428 . S
H554 C550 0.930 . S
H555 C552 0.929 . S
S556 N557 1.613 . S
S556 N558 1.610 . S
N557 S556 1.613 . S
N557 C560 1.350 . S
N558 S556 1.610 . S
N558 C559 1.351 . S
C559 C553 1.428 . S
C559 N558 1.351 . S
C559 C560 1.434 . S
C560 C551 1.429 . S
C560 N557 1.350 . S
C560 C559 1.434 . S
C561 C562 1.369 . S
C561 C563 1.419 . S
C561 H565 0.930 . S
C562 C561 1.369 . S
C562 C571 1.429 . S
C563 C561 1.419 . S
C563 C564 1.363 . S
C563 H566 0.929 . S
C564 C563 1.363 . S
C564 C570 1.428 . S
H565 C561 0.930 . S
H566 C563 0.929 . S
S567 N568 1.613 . S
S567 N569 1.610 . S
N568 S567 1.613 . S
N568 C571 1.350 . S
N569 S567 1.610 . S
N569 C570 1.351 . S
C570 C564 1.428 . S
C570 N569 1.351 . S
C570 C571 1.434 . S
C571 C562 1.429 . S
C571 N568 1.350 . S
C571 C570 1.434 . S
C572 C573 1.369 . S
C572 C574 1.419 . S
C572 H576 0.930 . S
C573 C572 1.369 . S
C573 C582 1.429 . S
C574 C572 1.419 . S
C574 C575 1.363 . S
C574 H577 0.929 . S
C575 C574 1.363 . S
C575 C581 1.428 . S
H576 C572 0.930 . S
H577 C574 0.929 . S
S578 N579 1.613 . S
S578 N580 1.610 . S
N579 S578 1.613 . S
N579 C582 1.350 . S
N580 S578 1.610 . S
N580 C581 1.351 . S
C581 C575 1.428 . S
C581 N580 1.351 . S
C581 C582 1.434 . S
C582 C573 1.429 . S
C582 N579 1.350 . S
C582 C581 1.434 . S
C583 C584 1.369 . S
C583 C585 1.419 . S
C583 H587 0.930 . S
C584 C583 1.369 . S
C584 C593 1.429 . S
C585 C583 1.419 . S
C585 C586 1.363 . S
C585 H588 0.929 . S
C586 C585 1.363 . S
C586 C592 1.428 . S
H587 C583 0.930 . S
H588 C585 0.929 . S
S589 N590 1.613 1_554 S
S589 N591 1.610 1_554 S
N590 S589 1.613 1_556 S
N590 C593 1.350 . S
N591 S589 1.610 1_556 S
N591 C592 1.351 . S
C592 C586 1.428 . S
C592 N591 1.351 . S
C592 C593 1.434 . S
C593 C584 1.429 . S
C593 N590 1.350 . S
C593 C592 1.434 . S
C594 C595 1.369 . S
C594 C596 1.419 . S
C594 H598 0.930 . S
C595 C594 1.369 . S
C595 C604 1.429 . S
C596 C594 1.419 . S
C596 C597 1.363 . S
C596 H599 0.929 . S
C597 C596 1.363 . S
C597 C603 1.428 . S
H598 C594 0.930 . S
H599 C596 0.929 . S
S600 N601 1.613 . S
S600 N602 1.610 . S
N601 S600 1.613 . S
N601 C604 1.350 . S
N602 S600 1.610 . S
N602 C603 1.351 . S
C603 C597 1.428 . S
C603 N602 1.351 . S
C603 C604 1.434 . S
C604 C595 1.429 . S
C604 N601 1.350 . S
C604 C603 1.434 . S
C605 C606 1.369 . S
C605 C607 1.419 . S
C605 H609 0.930 . S
C606 C605 1.369 . S
C606 C615 1.429 1_455 S
C607 C605 1.419 . S
C607 C608 1.363 1_455 S
C607 H610 0.929 . S
C608 C607 1.363 1_655 S
C608 C614 1.428 . S
H609 C605 0.930 . S
H610 C607 0.929 . S
S611 N612 1.613 . S
S611 N613 1.610 . S
N612 S611 1.613 . S
N612 C615 1.350 . S
N613 S611 1.610 . S
N613 C614 1.351 . S
C614 C608 1.428 . S
C614 N613 1.351 . S
C614 C615 1.434 . S
C615 C606 1.429 1_655 S
C615 N612 1.350 . S
C615 C614 1.434 . S
C616 C617 1.369 1_545 S
C616 C618 1.419 . S
C616 H620 0.930 . S
C617 C616 1.369 1_565 S
C617 C626 1.429 . S
C618 C616 1.419 . S
C618 C619 1.363 . S
C618 H621 0.929 . S
C619 C618 1.363 . S
C619 C625 1.428 1_545 S
H620 C616 0.930 . S
H621 C618 0.929 . S
S622 N623 1.613 . S
S622 N624 1.610 . S
N623 S622 1.613 . S
N623 C626 1.350 . S
N624 S622 1.610 . S
N624 C625 1.351 . S
C625 C619 1.428 1_565 S
C625 N624 1.351 . S
C625 C626 1.434 . S
C626 C617 1.429 . S
C626 N623 1.350 . S
C626 C625 1.434 . S
C627 C628 1.369 . S
C627 C629 1.419 . S
C627 H631 0.930 . S
C628 C627 1.369 . S
C628 C637 1.429 . S
C629 C627 1.419 . S
C629 C630 1.363 . S
C629 H632 0.929 . S
C630 C629 1.363 . S
C630 C636 1.428 . S
H631 C627 0.930 . S
H632 C629 0.929 . S
S633 N634 1.613 . S
S633 N635 1.610 . S
N634 S633 1.613 . S
N634 C637 1.350 . S
N635 S633 1.610 . S
N635 C636 1.351 . S
C636 C630 1.428 . S
C636 N635 1.351 . S
C636 C637 1.434 . S
C637 C628 1.429 . S
C637 N634 1.350 . S
C637 C636 1.434 . S
C638 C639 1.369 . S
C638 C640 1.419 . S
C638 H642 0.930 . S
C639 C638 1.369 . S
C639 C648 1.429 1_455 S
C640 C638 1.419 . S
C640 C641 1.363 1_455 S
C640 H643 0.929 . S
C641 C640 1.363 1_655 S
C641 C647 1.428 . S
H642 C638 0.930 . S
H643 C640 0.929 . S
S644 N645 1.613 . S
S644 N646 1.610 . S
N645 S644 1.613 . S
N645 C648 1.350 . S
N646 S644 1.610 . S
N646 C647 1.351 . S
C647 C641 1.428 . S
C647 N646 1.351 . S
C647 C648 1.434 . S
C648 C639 1.429 1_655 S
C648 N645 1.350 . S
C648 C647 1.434 . S
C649 C650 1.369 1_545 S
C649 C651 1.419 1_554 S
C649 H653 0.930 . S
C650 C649 1.369 1_565 S
C650 C659 1.429 . S
C651 C649 1.419 1_556 S
C651 C652 1.363 . S
C651 H654 0.929 . S
C652 C651 1.363 . S
C652 C658 1.428 1_545 S
H653 C649 0.930 . S
H654 C651 0.929 . S
S655 N656 1.613 1_556 S
S655 N657 1.610 . S
N656 S655 1.613 1_554 S
N656 C659 1.350 . S
N657 S655 1.610 . S
N657 C658 1.351 . S
C658 C652 1.428 1_565 S
C658 N657 1.351 . S
C658 C659 1.434 1_556 S
C659 C650 1.429 . S
C659 N656 1.350 . S
C659 C658 1.434 1_554 S
C660 C661 1.369 . S
C660 C662 1.419 . S
C660 H664 0.930 . S
C661 C660 1.369 . S
C661 C670 1.429 . S
C662 C660 1.419 . S
C662 C663 1.363 . S
C662 H665 0.929 . S
C663 C662 1.363 . S
C663 C669 1.428 . S
H664 C660 0.930 . S
H665 C662 0.929 . S
S666 N667 1.613 . S
S666 N668 1.610 . S
N667 S666 1.613 . S
N667 C670 1.350 . S
N668 S666 1.610 . S
N668 C669 1.351 . S
C669 C663 1.428 . S
C669 N668 1.351 . S
C669 C670 1.434 . S
C670 C661 1.429 . S
C670 N667 1.350 . S
C670 C669 1.434 . S
C671 C672 1.369 . S
C671 C673 1.419 . S
C671 H675 0.930 . S
C672 C671 1.369 . S
C672 C681 1.429 . S
C673 C671 1.419 . S
C673 C674 1.363 . S
C673 H676 0.929 . S
C674 C673 1.363 . S
C674 C680 1.428 . S
H675 C671 0.930 . S
H676 C673 0.929 . S
S677 N678 1.613 . S
S677 N679 1.610 . S
N678 S677 1.613 . S
N678 C681 1.350 . S
N679 S677 1.610 . S
N679 C680 1.351 . S
C680 C674 1.428 . S
C680 N679 1.351 . S
C680 C681 1.434 . S
C681 C672 1.429 . S
C681 N678 1.350 . S
C681 C680 1.434 . S
C682 C683 1.369 . S
C682 C684 1.419 . S
C682 H686 0.930 . S
C683 C682 1.369 . S
C683 C692 1.429 . S
C684 C682 1.419 . S
C684 C685 1.363 . S
C684 H687 0.929 . S
C685 C684 1.363 . S
C685 C691 1.428 . S
H686 C682 0.930 . S
H687 C684 0.929 . S
S688 N689 1.613 . S
S688 N690 1.610 . S
N689 S688 1.613 . S
N689 C692 1.350 . S
N690 S688 1.610 . S
N690 C691 1.351 . S
C691 C685 1.428 . S
C691 N690 1.351 . S
C691 C692 1.434 . S
C692 C683 1.429 . S
C692 N689 1.350 . S
C692 C691 1.434 . S
C693 C694 1.369 . S
C693 C695 1.419 . S
C693 H697 0.930 . S
C694 C693 1.369 . S
C694 C703 1.429 . S
C695 C693 1.419 . S
C695 C696 1.363 . S
C695 H698 0.929 . S
C696 C695 1.363 . S
C696 C702 1.428 . S
H697 C693 0.930 . S
H698 C695 0.929 . S
S699 N700 1.613 . S
S699 N701 1.610 . S
N700 S699 1.613 . S
N700 C703 1.350 . S
N701 S699 1.610 . S
N701 C702 1.351 . S
C702 C696 1.428 . S
C702 N701 1.351 . S
C702 C703 1.434 . S
C703 C694 1.429 . S
C703 N700 1.350 . S
C703 C702 1.434 . S
C704 C705 1.369 . S
C704 C706 1.419 . S
C704 H708 0.930 . S
C705 C704 1.369 . S
C705 C714 1.429 . S
C706 C704 1.419 . S
C706 C707 1.363 . S
C706 H709 0.929 . S
C707 C706 1.363 . S
C707 C713 1.428 . S
H708 C704 0.930 . S
H709 C706 0.929 . S
S710 N711 1.613 . S
S710 N712 1.610 . S
N711 S710 1.613 . S
N711 C714 1.350 . S
N712 S710 1.610 . S
N712 C713 1.351 . S
C713 C707 1.428 . S
C713 N712 1.351 . S
C713 C714 1.434 . S
C714 C705 1.429 . S
C714 N711 1.350 . S
C714 C713 1.434 . S
C715 C716 1.369 . S
C715 C717 1.419 . S
C715 H719 0.930 . S
C716 C715 1.369 . S
C716 C725 1.429 . S
C717 C715 1.419 . S
C717 C718 1.363 . S
C717 H720 0.929 . S
C718 C717 1.363 . S
C718 C724 1.428 . S
H719 C715 0.930 . S
H720 C717 0.929 . S
S721 N722 1.613 . S
S721 N723 1.610 . S
N722 S721 1.613 . S
N722 C725 1.350 . S
N723 S721 1.610 . S
N723 C724 1.351 . S
C724 C718 1.428 . S
C724 N723 1.351 . S
C724 C725 1.434 . S
C725 C716 1.429 . S
C725 N722 1.350 . S
C725 C724 1.434 . S
C397 C173 1.738 . S
C399 N5 1.837 . S
C408 C8 1.735 . S
C410 N38 1.838 1_455 S
C419 C41 1.736 . S
C421 N71 1.838 1_545 S
C430 N104 1.838 . S
C432 C74 1.733 . S
C441 N137 1.837 1_655 S
C443 C107 1.738 . S
C452 C140 1.730 . S
C454 N170 1.839 1_565 S
C463 C239 1.729 . S
C465 N203 1.839 . S
C474 C272 1.730 . S
C476 N236 1.839 1_455 S
C485 C305 1.729 . S
C487 N269 1.839 1_545 S
C496 C338 1.730 . S
C498 N302 1.839 . S
C507 C371 1.729 . S
C509 N335 1.839 1_655 S
C518 C206 1.729 . S
C520 N368 1.839 1_565 S
C529 N278 1.311 . S
C531 N14 1.310 . S
C540 N47 1.314 . S
C542 N311 1.316 . S
C551 N80 1.318 . S
C553 N344 1.317 . S
C562 N113 1.312 . S
C564 N377 1.315 . S
C573 N146 1.311 . S
C575 N212 1.310 . S
C584 N245 1.309 . S
C586 N179 1.313 . S
C595 C314 1.182 . S
C597 C17 1.180 . S
C606 C347 1.181 . S
C608 C50 1.180 . S
C617 C83 1.183 . S
C619 C380 1.183 . S
C628 C116 1.180 . S
C630 C215 1.182 . S
C639 C149 1.180 . S
C641 C248 1.180 . S
C650 C281 1.182 . S
C652 C182 1.183 . S
C661 C28 1.276 . S
C663 C226 1.282 . S
C672 C259 1.286 . S
C674 C61 1.273 . S
C683 C94 1.286 . S
C685 C292 1.274 . S
C694 C325 1.274 . S
C696 C127 1.284 . S
C705 C358 1.286 . S
C707 C160 1.274 . S
C716 C391 1.272 . S
C718 C193 1.284 . S
