# Generated by pormake.
# Topology noo, (5)-cn, num edge types: 1
# Building blocks:
#     Node 0, Type 0, BuildingBlock: XOMCOT_clean_sbu_0, # of connection points: 5
#     Node 1, Type 0, BuildingBlock: XOMCOT_clean_sbu_0, # of connection points: 5
#     Node 2, Type 0, BuildingBlock: XOMCOT_clean_sbu_0, # of connection points: 5
#     Node 3, Type 0, BuildingBlock: XOMCOT_clean_sbu_0, # of connection points: 5
#     Node 4, Type 0, BuildingBlock: XOMCOT_clean_sbu_0, # of connection points: 5
#     Node 5, Type 0, BuildingBlock: XOMCOT_clean_sbu_0, # of connection points: 5
#     Node 6, Type 0, BuildingBlock: XOMCOT_clean_sbu_0, # of connection points: 5
#     Node 7, Type 0, BuildingBlock: XOMCOT_clean_sbu_0, # of connection points: 5
#     Edge 8, Type (0, 0), BuildingBlock: TEMPAE_clean_linker_10, # of connection points: 2
#     Edge 9, Type (0, 0), BuildingBlock: TEMPAE_clean_linker_10, # of connection points: 2
#     Edge 10, Type (0, 0), BuildingBlock: TEMPAE_clean_linker_10, # of connection points: 2
#     Edge 11, Type (0, 0), BuildingBlock: TEMPAE_clean_linker_10, # of connection points: 2
#     Edge 12, Type (0, 0), BuildingBlock: TEMPAE_clean_linker_10, # of connection points: 2
#     Edge 13, Type (0, 0), BuildingBlock: TEMPAE_clean_linker_10, # of connection points: 2
#     Edge 14, Type (0, 0), BuildingBlock: TEMPAE_clean_linker_10, # of connection points: 2
#     Edge 15, Type (0, 0), BuildingBlock: TEMPAE_clean_linker_10, # of connection points: 2
#     Edge 16, Type (0, 0), BuildingBlock: TEMPAE_clean_linker_10, # of connection points: 2
#     Edge 17, Type (0, 0), BuildingBlock: TEMPAE_clean_linker_10, # of connection points: 2
#     Edge 18, Type (0, 0), BuildingBlock: TEMPAE_clean_linker_10, # of connection points: 2
#     Edge 19, Type (0, 0), BuildingBlock: TEMPAE_clean_linker_10, # of connection points: 2
#     Edge 20, Type (0, 0), BuildingBlock: TEMPAE_clean_linker_10, # of connection points: 2
#     Edge 21, Type (0, 0), BuildingBlock: TEMPAE_clean_linker_10, # of connection points: 2
#     Edge 22, Type (0, 0), BuildingBlock: TEMPAE_clean_linker_10, # of connection points: 2
#     Edge 23, Type (0, 0), BuildingBlock: TEMPAE_clean_linker_10, # of connection points: 2
#     Edge 24, Type (0, 0), BuildingBlock: TEMPAE_clean_linker_10, # of connection points: 2
#     Edge 25, Type (0, 0), BuildingBlock: TEMPAE_clean_linker_10, # of connection points: 2
#     Edge 26, Type (0, 0), BuildingBlock: TEMPAE_clean_linker_10, # of connection points: 2
#     Edge 27, Type (0, 0), BuildingBlock: TEMPAE_clean_linker_10, # of connection points: 2
# Relax obj value: 0.061
# Max RMSD: 0.110
# Mean RMSD: 0.110
data_MOF--net-noo--node1-XOMCOT_clean_sbu_0--edge1-TEMPAE_clean_linker_10
_symmetry_space_group_name_H-M    P1
_symmetry_Int_Tables_number       1
_symmetry_cell_setting            triclinic
loop_
_symmetry_equiv_pos_as_xyz
'x, y, z'
_cell_length_a     39.960264
_cell_length_b     39.974245
_cell_length_c     30.353061
_cell_angle_alpha  90.049497
_cell_angle_beta   89.924828
_cell_angle_gamma 89.99464
loop_
_atom_site_label
_atom_site_type_symbol
_atom_site_fract_x
_atom_site_fract_y
_atom_site_fract_z
_atom_type_partial_charge
Co0 Co 0.43435 0.22022 0.04704 0.0
C1 C 0.46224 0.15087 0.05549 0.0
C2 C 0.49261 0.18777 0.08765 0.0
C3 C 0.50674 0.15674 0.09436 0.0
N4 N 0.46477 0.1842 0.06314 0.0
N5 N 0.48768 0.1335 0.0741 0.0
H6 H 0.44177 0.13931 0.03799 0.0
H7 H 0.50173 0.21131 0.10045 0.0
C8 C 0.48103 0.27593 0.01226 0.0
O9 O 0.45796 0.28829 0.98616 0.0
N10 N 0.40295 0.25591 0.03122 0.0
C11 C 0.37518 0.2509 0.00691 0.0
C12 C 0.35847 0.28053 1.0019 0.0
C13 C 0.40179 0.2889 0.04236 0.0
N14 N 0.3752 0.30468 0.02361 0.0
C15 C 0.40734 0.17739 0.98042 0.0
C16 C 0.44365 0.20006 0.90917 0.0
C17 C 0.41756 0.17715 0.90187 0.0
C18 C 0.40018 0.16509 0.93856 0.0
C19 C 0.45022 0.21171 0.95207 0.0
N20 N 0.43108 0.20156 0.98703 0.0
H21 H 0.39267 0.16789 0.00739 0.0
H22 H 0.47056 0.22891 0.95637 0.0
H23 H 0.36692 0.22718 0.99405 0.0
H24 H 0.42044 0.30123 0.06246 0.0
O25 O 0.39749 0.19624 0.07422 0.0
O26 O 0.43037 0.23186 0.10913 0.0
O27 O 0.47537 0.24907 0.0341 0.0
C28 C 0.40558 0.21083 0.11085 0.0
H29 H 0.52941 0.15173 0.11268 0.0
H30 H 0.33534 0.28397 0.98392 0.0
H31 H 0.45828 0.20963 0.88191 0.0
H32 H 0.38068 0.14646 0.93501 0.0
Co33 Co 0.79794 0.43344 0.05931 0.0
C34 C 0.86648 0.46293 0.05987 0.0
C35 C 0.82935 0.49803 0.08174 0.0
C36 C 0.86032 0.51302 0.08406 0.0
N37 N 0.83313 0.46665 0.06645 0.0
N38 N 0.88387 0.49097 0.07056 0.0
H39 H 0.87775 0.43984 0.04861 0.0
H40 H 0.80577 0.5092 0.09125 0.0
C41 C 0.74514 0.48063 0.0178 0.0
O42 O 0.74201 0.4625 0.98191 0.0
N43 N 0.76258 0.39927 0.05279 0.0
C44 C 0.76787 0.36587 0.05466 0.0
C45 C 0.73836 0.34918 0.04798 0.0
C46 C 0.72888 0.4021 0.04689 0.0
N47 N 0.71378 0.37179 0.04291 0.0
C48 C 0.82217 0.39743 0.98483 0.0
C49 C 0.826 0.44974 0.92572 0.0
C50 C 0.83709 0.4179 0.91259 0.0
C51 C 0.83509 0.39171 0.94287 0.0
C52 C 0.81371 0.45458 0.96882 0.0
N53 N 0.81088 0.42825 0.9974 0.0
H54 H 0.82267 0.37703 0.00781 0.0
H55 H 0.80732 0.47958 0.97943 0.0
H56 H 0.79158 0.35386 0.06093 0.0
H57 H 0.71543 0.42547 0.0456 0.0
O58 O 0.82798 0.40046 0.08447 0.0
O59 O 0.79234 0.43136 0.12282 0.0
O60 O 0.76498 0.4714 0.04852 0.0
C61 C 0.8156 0.40856 0.12263 0.0
H62 H 0.86496 0.53838 0.09492 0.0
H63 H 0.73507 0.32229 0.04755 0.0
H64 H 0.8279 0.47083 0.90349 0.0
H65 H 0.84388 0.36689 0.9343 0.0
Co66 Co 0.58669 0.79762 0.05153 0.0
C67 C 0.55838 0.8672 0.05881 0.0
C68 C 0.52962 0.83072 0.09403 0.0
C69 C 0.51499 0.86159 0.09977 0.0
N70 N 0.55674 0.83406 0.06813 0.0
N71 N 0.5329 0.88477 0.07744 0.0
H72 H 0.57782 0.87829 0.03905 0.0
H73 H 0.52127 0.8074 0.10837 0.0
C74 C 0.53907 0.74132 0.02127 0.0
O75 O 0.56196 0.72712 0.99645 0.0
N76 N 0.61736 0.76134 0.03516 0.0
C77 C 0.64316 0.76499 0.00691 0.0
C78 C 0.66078 0.73569 1.00439 0.0
C79 C 0.62035 0.72943 0.05042 0.0
N80 N 0.6467 0.71312 0.03165 0.0
C81 C 0.61176 0.84055 0.98347 0.0
C82 C 0.57601 0.81537 0.91324 0.0
C83 C 0.59997 0.84037 0.90526 0.0
C84 C 0.61749 0.85323 0.94133 0.0
C85 C 0.5706 0.80362 0.95638 0.0
N86 N 0.58904 0.81555 0.99099 0.0
H87 H 0.62654 0.85061 0.00999 0.0
H88 H 0.55168 0.78495 0.96117 0.0
H89 H 0.64953 0.78758 0.98949 0.0
H90 H 0.60381 0.71853 0.07475 0.0
O91 O 0.62429 0.82157 0.07726 0.0
O92 O 0.59156 0.78668 0.11365 0.0
O93 O 0.54511 0.76916 0.04064 0.0
C94 C 0.61646 0.80761 0.11445 0.0
H95 H 0.4931 0.86638 0.11977 0.0
H96 H 0.68233 0.73131 0.98353 0.0
H97 H 0.56145 0.80506 0.8864 0.0
H98 H 0.63643 0.87233 0.93696 0.0
Co99 Co 0.22087 0.58485 0.04481 0.0
C100 C 0.151 0.55824 0.05628 0.0
C101 C 0.18832 0.525 0.08175 0.0
C102 C 0.15732 0.5106 0.08768 0.0
N103 N 0.18453 0.55476 0.0616 0.0
N104 N 0.1337 0.53143 0.07159 0.0
H105 H 0.1393 0.58012 0.0424 0.0
H106 H 0.21205 0.51439 0.09155 0.0
C107 C 0.27852 0.53861 0.01605 0.0
O108 O 0.29494 0.56338 0.99771 0.0
N109 N 0.25694 0.61587 0.02805 0.0
C110 C 0.25514 0.63787 0.99445 0.0
C111 C 0.28394 0.65627 0.99259 0.0
C112 C 0.28717 0.62223 0.04712 0.0
N113 N 0.30436 0.64674 0.02558 0.0
C114 C 0.17632 0.60944 0.97876 0.0
C115 C 0.20357 0.5774 0.90659 0.0
C116 C 0.17821 0.60122 0.89983 0.0
C117 C 0.16403 0.6165 0.93687 0.0
C118 C 0.2152 0.57086 0.94947 0.0
N119 N 0.20217 0.5875 0.98501 0.0
H120 H 0.16566 0.62301 0.00602 0.0
H121 H 0.23534 0.5533 0.95334 0.0
H122 H 0.23438 0.64095 0.97225 0.0
H123 H 0.29644 0.60903 0.07573 0.0
O124 O 0.19736 0.62223 0.07141 0.0
O125 O 0.23256 0.58912 0.10674 0.0
O126 O 0.24906 0.54333 0.03165 0.0
C127 C 0.21176 0.61414 0.10817 0.0
H128 H 0.15274 0.48631 0.10217 0.0
H129 H 0.28956 0.67493 0.96785 0.0
H130 H 0.21524 0.56488 0.87889 0.0
H131 H 0.14393 0.63449 0.93354 0.0
Co132 Co 0.93516 0.29908 0.46845 0.0
C133 C 0.96381 0.36774 0.4547 0.0
C134 C 0.99756 0.32909 0.43436 0.0
C135 C 0.01254 0.35963 0.42704 0.0
N136 N 0.96717 0.33402 0.45249 0.0
N137 N 0.99135 0.38408 0.43989 0.0
H138 H 0.94132 0.38026 0.4653 0.0
H139 H 1.00801 0.30498 0.42609 0.0
C140 C 0.98029 0.23918 0.49592 0.0
O141 O 0.95605 0.223 0.51582 0.0
N142 N 0.90225 0.26471 0.48397 0.0
C143 C 0.87658 0.26984 0.51199 0.0
C144 C 0.85818 0.24104 0.5157 0.0
C145 C 0.89798 0.2328 0.46932 0.0
N146 N 0.87178 0.21735 0.48956 0.0
C147 C 0.91528 0.34512 0.53605 0.0
C148 C 0.94041 0.31128 0.60791 0.0
C149 C 0.92175 0.34056 0.61501 0.0
C150 C 0.90966 0.35773 0.57829 0.0
C151 C 0.9463 0.29989 0.5647 0.0
N152 N 0.93344 0.31655 0.52915 0.0
H153 H 0.90341 0.35786 0.50908 0.0
H154 H 0.96028 0.27721 0.56054 0.0
H155 H 0.87121 0.29309 0.52868 0.0
H156 H 0.9145 0.22077 0.44586 0.0
O157 O 0.89953 0.32565 0.44326 0.0
O158 O 0.9296 0.28864 0.4062 0.0
O159 O 0.97531 0.26854 0.48021 0.0
C160 C 0.90639 0.3115 0.40583 0.0
H161 H 0.03729 0.36332 0.41341 0.0
H162 H 0.8362 0.23794 0.53615 0.0
H163 H 0.95014 0.29718 0.63552 0.0
H164 H 0.89454 0.38004 0.58223 0.0
Co165 Co 0.72142 0.93423 0.4582 0.0
C166 C 0.65178 0.96119 0.4465 0.0
C167 C 0.68949 0.99477 0.42277 0.0
C168 C 0.65862 1.00925 0.41639 0.0
N169 N 0.68537 0.96479 0.44221 0.0
N170 N 0.63474 0.98818 0.43131 0.0
H171 H 0.63991 0.93902 0.45934 0.0
H172 H 0.71333 1.00537 0.41341 0.0
C173 C 0.77842 0.98137 0.48955 0.0
O174 O 0.79428 0.95754 0.51067 0.0
N175 N 0.75702 0.90269 0.47391 0.0
C176 C 0.75205 0.87599 0.50021 0.0
C177 C 0.78133 0.85853 0.50446 0.0
C178 C 0.78952 0.90001 0.46078 0.0
N179 N 0.80526 0.87373 0.48039 0.0
C180 C 0.67639 0.90979 0.52446 0.0
C181 C 0.70463 0.94027 0.59699 0.0
C182 C 0.67775 0.91816 0.60349 0.0
C183 C 0.66341 0.90329 0.5663 0.0
C184 C 0.71669 0.94649 0.55421 0.0
N185 N 0.703 0.93086 0.51836 0.0
H186 H 0.66551 0.8966 0.49705 0.0
H187 H 0.73728 0.96347 0.55073 0.0
H188 H 0.72854 0.86909 0.51512 0.0
H189 H 0.80163 0.91754 0.43876 0.0
O190 O 0.69747 0.89731 0.43099 0.0
O191 O 0.73291 0.93045 0.39606 0.0
O192 O 0.7499 0.9756 0.47174 0.0
C193 C 0.71193 0.9056 0.39428 0.0
H194 H 0.65433 0.03367 0.40218 0.0
H195 H 0.78458 0.83597 0.52367 0.0
H196 H 0.71631 0.95265 0.62474 0.0
H197 H 0.64297 0.88565 0.56953 0.0
Co198 Co 0.08608 0.72057 0.45126 0.0
C199 C 0.05945 0.65095 0.44233 0.0
C200 C 0.02563 0.6877 0.41666 0.0
C201 C 0.01143 0.65654 0.41165 0.0
N202 N 0.05561 0.68431 0.43631 0.0
N203 N 0.03266 0.63328 0.42781 0.0
H204 H 0.08163 0.63972 0.45615 0.0
H205 H 0.01482 0.71123 0.40645 0.0
C206 C 0.03944 0.77694 0.48499 0.0
O207 O 0.06293 0.79078 0.50907 0.0
N208 N 0.11767 0.75634 0.46611 0.0
C209 C 0.14565 0.75121 0.48992 0.0
C210 C 0.16252 0.78076 0.49477 0.0
C211 C 0.1189 0.78931 0.45495 0.0
N212 N 0.14564 0.80502 0.47349 0.0
C213 C 0.11324 0.67777 0.51776 0.0
C214 C 0.07841 0.7018 0.58957 0.0
C215 C 0.10381 0.67807 0.59648 0.0
C216 C 0.12055 0.66547 0.55957 0.0
C217 C 0.07175 0.71353 0.54675 0.0
N218 N 0.08999 0.70244 0.51142 0.0
H219 H 0.12745 0.66786 0.49057 0.0
H220 H 0.05213 0.73159 0.54282 0.0
H221 H 0.15389 0.72746 0.50266 0.0
H222 H 0.10011 0.80173 0.43519 0.0
O223 O 0.12275 0.69651 0.4237 0.0
O224 O 0.08932 0.7317 0.38896 0.0
O225 O 0.04498 0.7493 0.46481 0.0
C226 C 0.11425 0.71081 0.38706 0.0
H227 H 0.98705 0.6516 0.39764 0.0
H228 H 0.18577 0.78408 0.51251 0.0
H229 H 0.06441 0.71194 0.61708 0.0
H230 H 0.13962 0.64638 0.5629 0.0
Co231 Co 0.2988 0.08509 0.45307 0.0
C232 C 0.36826 0.05779 0.44253 0.0
C233 C 0.33079 0.02452 0.41741 0.0
C234 C 0.3617 1.00989 0.4118 0.0
N235 N 0.33475 0.05441 0.43716 0.0
N236 N 0.38543 0.03076 0.42761 0.0
H237 H 0.37994 0.0798 0.45617 0.0
H238 H 0.30703 0.01404 0.40752 0.0
C239 C 0.24201 0.03867 0.48598 0.0
O240 O 0.22799 0.06216 0.50995 0.0
N241 N 0.26327 0.11673 0.46885 0.0
C242 C 0.26825 0.14377 0.4946 0.0
C243 C 0.23864 0.16047 0.5002 0.0
C244 C 0.2304 0.11845 0.45729 0.0
N245 N 0.21457 0.14446 0.47742 0.0
C246 C 0.34282 0.11078 0.51919 0.0
C247 C 0.3171 0.07775 0.59139 0.0
C248 C 0.34185 0.1022 0.59806 0.0
C249 C 0.3553 0.11797 0.56095 0.0
C250 C 0.30529 0.07111 0.54861 0.0
N251 N 0.3173 0.08843 0.51307 0.0
H252 H 0.35323 0.12445 0.49188 0.0
H253 H 0.28629 0.05238 0.5449 0.0
H254 H 0.29188 0.15131 0.50851 0.0
H255 H 0.21807 0.10031 0.43638 0.0
O256 O 0.32293 0.12181 0.42593 0.0
O257 O 0.28735 0.08887 0.39097 0.0
O258 O 0.2699 0.04411 0.46632 0.0
C259 C 0.30843 0.11364 0.38928 0.0
H260 H 0.36611 0.98545 0.39761 0.0
H261 H 0.23507 0.18287 0.51973 0.0
H262 H 0.30617 0.06458 0.61905 0.0
H263 H 0.37514 0.13628 0.56409 0.0
C264 C 0.55012 0.94306 0.05819 0.0
C265 C 0.52608 0.92055 0.07469 0.0
C266 C 0.54379 0.97776 0.05609 0.0
C267 C 0.51283 0.99068 0.07132 0.0
C268 C 0.48838 0.96825 0.08765 0.0
C269 C 0.49514 0.93369 0.08879 0.0
C270 C 0.57048 1.00068 0.038 0.0
C271 C 0.4551 0.98081 0.10455 0.0
C272 C 0.50917 0.08181 0.10906 0.0
C273 C 0.49338 0.09768 0.07343 0.0
C274 C 0.51558 0.04718 0.10876 0.0
C275 C 0.50636 0.0277 0.07168 0.0
C276 C 0.49044 0.04355 0.03552 0.0
C277 C 0.48394 0.07823 0.03696 0.0
C278 C 0.53205 0.03139 0.14837 0.0
C279 C 0.4805 0.0239 0.99513 0.0
H280 H 0.57418 0.93382 0.04733 0.0
H281 H 0.47588 0.91706 0.10083 0.0
H282 H 0.56007 0.01622 0.01102 0.0
H283 H 0.57909 0.01802 0.0642 0.0
H284 H 0.59247 0.9867 0.02519 0.0
H285 H 0.43857 0.96019 0.11587 0.0
H286 H 0.45916 0.9983 0.13245 0.0
H287 H 0.44197 0.99495 0.07833 0.0
H288 H 0.51613 0.09646 0.13764 0.0
H289 H 0.47208 0.0903 0.00912 0.0
H290 H 0.55574 0.01903 0.1384 0.0
H291 H 0.51551 0.01176 0.1623 0.0
H292 H 0.53767 0.04994 0.17461 0.0
H293 H 0.50282 0.01149 0.98074 0.0
H294 H 0.46881 0.03993 0.96953 0.0
H295 H 0.46255 1.00391 1.00431 0.0
C296 C 0.93462 0.52145 0.09564 0.0
C297 C 0.91988 0.49632 0.0696 0.0
C298 C 0.96933 0.52739 0.09493 0.0
C299 C 0.99033 0.50761 0.06779 0.0
C300 C 0.97579 0.4821 0.04151 0.0
C301 C 0.94086 0.4768 0.04267 0.0
C302 C 0.98358 0.55482 0.12357 0.0
C303 C 0.99719 0.46031 0.01222 0.0
C304 C 0.07724 0.54217 0.03987 0.0
C305 C 0.09776 0.52568 0.07055 0.0
C306 C 0.04244 0.53629 0.03823 0.0
C307 C 0.02752 0.51325 0.06786 0.0
C308 C 0.04806 0.49645 0.09875 0.0
C309 C 0.0827 0.50291 0.09982 0.0
C310 C 0.02156 0.55488 1.00485 0.0
C311 C 0.03338 0.47176 0.13107 0.0
H312 H 0.9191 0.53638 0.11727 0.0
H313 H 0.92999 0.45756 0.02206 0.0
H314 H 1.00142 0.54403 0.14766 0.0
H315 H 0.99772 0.57291 0.10305 0.0
H316 H 0.96386 0.56861 0.14195 0.0
H317 H 0.98216 0.44173 0.99352 0.0
H318 H 0.01123 0.47605 0.98846 0.0
H319 H 0.01591 0.44672 0.03239 0.0
H320 H 0.08839 0.55943 0.01665 0.0
H321 H 0.09792 0.49031 0.12415 0.0
H322 H 1.00242 0.57024 0.022 0.0
H323 H 1.00804 0.53685 0.98353 0.0
H324 H 0.0369 0.57155 0.98364 0.0
H325 H 0.01509 0.48459 0.15281 0.0
H326 H 0.05281 0.45985 0.15198 0.0
H327 H 0.01963 0.45185 0.11314 0.0
C328 C 0.02159 0.43349 0.40998 0.0
C329 C 0.99711 0.41997 0.43815 0.0
C330 C 0.02804 0.4681 0.40862 0.0
C331 C 1.00941 0.49014 0.43576 0.0
C332 C 0.98453 0.47681 0.46409 0.0
C333 C 0.97878 0.44203 0.46506 0.0
C334 C 0.05482 0.48111 0.37795 0.0
C335 C 0.96393 0.49935 0.49342 0.0
C336 C 0.04478 0.57723 0.45973 0.0
C337 C 0.02734 0.59733 0.42949 0.0
C338 C 0.03925 0.54243 0.46214 0.0
C339 C 0.01554 0.52714 0.43383 0.0
C340 C 0.9979 0.54721 0.40324 0.0
C341 C 1.0041 0.58184 0.4013 0.0
C342 C 0.05876 0.52201 0.4951 0.0
C343 C 0.97239 0.53207 0.37243 0.0
H344 H 0.03566 0.41707 0.3885 0.0
H345 H 0.96016 0.43213 0.48744 0.0
H346 H 0.04363 0.49854 0.35368 0.0
H347 H 0.07376 0.49542 0.3969 0.0
H348 H 0.06771 0.4607 0.35977 0.0
H349 H 0.94551 0.48519 0.51353 0.0
H350 H 0.98056 0.51356 0.5159 0.0
H351 H 0.95023 0.51789 0.4731 0.0
H352 H 0.06246 0.5887 0.4821 0.0
H353 H 0.99079 0.59672 0.37727 0.0
H354 H 0.07312 0.50218 0.47781 0.0
H355 H 0.04132 0.50936 0.51815 0.0
H356 H 0.07648 0.53752 0.51454 0.0
H357 H 0.98453 0.51307 0.35108 0.0
H358 H 0.96031 0.55112 0.3511 0.0
H359 H 0.95267 0.51908 0.39167 0.0
C360 C 0.58445 0.01764 0.40275 0.0
C361 C 0.59878 0.99379 0.43112 0.0
C362 C 0.54984 0.02413 0.40289 0.0
C363 C 0.52856 1.00614 0.43172 0.0
C364 C 0.54266 0.98186 0.46021 0.0
C365 C 0.57749 0.97608 0.4597 0.0
C366 C 0.53601 0.05029 0.37198 0.0
C367 C 0.52092 0.96191 0.49127 0.0
C368 C 0.44218 0.04263 0.45773 0.0
C369 C 0.42136 0.02492 0.42858 0.0
C370 C 0.47696 0.03673 0.45926 0.0
C371 C 0.49151 0.01231 0.43124 0.0
C372 C 0.4707 0.99428 0.4019 0.0
C373 C 0.43611 1.0009 0.40074 0.0
C374 C 0.4982 0.05673 0.49082 0.0
C375 C 0.48501 0.96798 0.37148 0.0
H376 H 0.60023 0.03118 0.37993 0.0
H377 H 0.58801 0.95792 0.48219 0.0
H378 H 0.51799 0.03861 0.34884 0.0
H379 H 0.52215 0.06958 0.39094 0.0
H380 H 0.55594 0.06282 0.3525 0.0
H381 H 0.53563 0.94392 0.51131 0.0
H382 H 0.50731 0.97902 0.51383 0.0
H383 H 0.50184 0.94782 0.4723 0.0
H384 H 0.43133 0.0609 0.47985 0.0
H385 H 0.42073 0.98734 0.37752 0.0
H386 H 0.51759 0.07079 0.47231 0.0
H387 H 0.51144 0.03967 0.51374 0.0
H388 H 0.48318 0.07476 0.51048 0.0
H389 H 0.50339 0.97956 0.34871 0.0
H390 H 0.46539 0.95536 0.3516 0.0
H391 H 0.49856 0.94877 0.39088 0.0
C392 C 0.27653 0.47701 0.03448 0.0
C393 C 0.2945 0.5048 0.01887 0.0
C394 C 0.29157 0.44519 0.03785 0.0
C395 C 0.32552 0.44079 0.02543 0.0
C396 C 0.34394 0.46883 0.01029 0.0
C397 C 0.32826 0.50033 0.00711 0.0
C398 C 0.27083 0.41607 0.05389 0.0
C399 C 0.38013 0.46544 0.99668 0.0
C400 C 0.37007 0.35998 0.06109 0.0
C401 C 0.36601 0.33979 0.02364 0.0
C402 C 0.35756 0.39311 0.0621 0.0
C403 C 0.34081 0.40641 0.02472 0.0
C404 C 0.33785 0.38643 0.98641 0.0
C405 C 0.35047 0.35364 0.98636 0.0
C406 C 0.36143 0.41356 0.10356 0.0
C407 C 0.3206 0.3994 0.94559 0.0
H408 H 0.25051 0.47999 0.04373 0.0
H409 H 0.3426 0.52155 0.99538 0.0
H410 H 0.26818 0.39735 0.02711 0.0
H411 H 0.28357 0.40349 0.08179 0.0
H412 H 0.24544 0.42388 0.06474 0.0
H413 H 0.39164 0.48994 0.98839 0.0
H414 H 0.39482 0.45369 0.02352 0.0
H415 H 0.38205 0.44882 0.96749 0.0
H416 H 0.38191 0.34949 0.09003 0.0
H417 H 0.34784 0.33853 0.95693 0.0
H418 H 0.3364 0.419 0.11771 0.0
H419 H 0.37336 0.43793 0.09588 0.0
H420 H 0.37668 0.40049 0.12882 0.0
H421 H 0.2941 0.40536 0.95324 0.0
H422 H 0.32117 0.38107 0.91807 0.0
H423 H 0.33267 0.42289 0.93436 0.0
C424 C 0.53825 0.28158 0.04645 0.0
C425 C 0.51443 0.29274 0.01578 0.0
C426 C 0.56965 0.2973 0.05064 0.0
C427 C 0.57788 0.32486 0.02331 0.0
C428 C 0.55388 0.33646 0.99252 0.0
C429 C 0.52251 0.32041 0.98924 0.0
C430 C 0.59426 0.28406 0.08408 0.0
C431 C 0.56158 0.3655 0.96242 0.0
C432 C 0.65301 0.37868 0.05799 0.0
C433 C 0.67911 0.36361 0.03428 0.0
C434 C 0.61974 0.36698 0.05405 0.0
C435 C 0.61233 0.33996 0.02518 0.0
C436 C 0.63849 0.32592 0.99962 0.0
C437 C 0.67141 0.3377 1.00475 0.0
C438 C 0.59278 0.38253 0.08222 0.0
C439 C 0.63196 0.29759 0.96784 0.0
H440 H 0.53238 0.26047 0.06743 0.0
H441 H 0.5044 0.32943 0.96552 0.0
H442 H 0.61681 0.27434 0.06699 0.0
H443 H 0.60255 0.30455 0.1062 0.0
H444 H 0.58348 0.26366 0.10448 0.0
H445 H 0.53985 0.37246 0.94155 0.0
H446 H 0.56919 0.38764 0.98205 0.0
H447 H 0.58292 0.35899 0.94061 0.0
H448 H 0.6589 0.39847 0.08112 0.0
H449 H 0.69149 0.32619 0.98609 0.0
H450 H 0.58354 0.36384 0.10636 0.0
H451 H 0.57116 0.39003 0.06158 0.0
H452 H 0.60193 0.4048 0.10052 0.0
H453 H 0.62399 0.27501 0.98632 0.0
H454 H 0.65444 0.29115 0.948 0.0
H455 H 0.61131 0.30427 0.94509 0.0
C456 C 0.69243 0.67144 0.03104 0.0
C457 C 0.65835 0.67894 0.03718 0.0
C458 C 0.70418 0.63832 0.02999 0.0
C459 C 0.68152 0.61147 0.03592 0.0
C460 C 0.64727 0.61876 0.04422 0.0
C461 C 0.63606 0.65238 0.04467 0.0
C462 C 0.74089 0.63209 0.02121 0.0
C463 C 0.62231 0.59101 0.05145 0.0
C464 C 0.71088 0.52822 0.98669 0.0
C465 C 0.7261 0.51267 0.02298 0.0
C466 C 0.69513 0.55969 0.99078 0.0
C467 C 0.69404 0.57604 0.03231 0.0
C468 C 0.70809 0.55976 0.06941 0.0
C469 C 0.72411 0.52856 0.06426 0.0
C470 C 0.68092 0.57614 0.95017 0.0
C471 C 0.70722 0.57583 0.11441 0.0
H472 H 0.71006 0.69168 0.02626 0.0
H473 H 0.60973 0.65781 0.04926 0.0
H474 H 0.75193 0.61722 0.04838 0.0
H475 H 0.74386 0.61732 0.99048 0.0
H476 H 0.75535 0.65568 0.0178 0.0
H477 H 0.59726 0.60069 0.06097 0.0
H478 H 0.6197 0.5761 0.02081 0.0
H479 H 0.63131 0.57381 0.07755 0.0
H480 H 0.71222 0.51631 0.95465 0.0
H481 H 0.73544 0.51677 0.09271 0.0
H482 H 0.69551 0.59901 0.94243 0.0
H483 H 0.65468 0.584 0.95616 0.0
H484 H 0.68153 0.55933 0.92102 0.0
H485 H 0.72361 0.59823 0.11465 0.0
H486 H 0.7158 0.55851 0.14068 0.0
H487 H 0.68149 0.58436 0.12237 0.0
C488 C 0.36322 0.6406 0.0522 0.0
C489 C 0.33782 0.65997 0.03293 0.0
C490 C 0.39661 0.65239 0.05426 0.0
C491 C 0.40499 0.68406 0.03606 0.0
C492 C 0.37921 0.70405 0.018 0.0
C493 C 0.34617 0.69206 0.01731 0.0
C494 C 0.42309 0.63061 0.07495 0.0
C495 C 0.38665 0.73782 0.9979 0.0
C496 C 0.48497 0.73273 0.06245 0.0
C497 C 0.50531 0.72557 0.02584 0.0
C498 C 0.45308 0.71806 0.06738 0.0
C499 C 0.44059 0.69629 0.03435 0.0
C500 C 0.46118 0.68872 0.99753 0.0
C501 C 0.49334 0.70306 0.99402 0.0
C502 C 0.43251 0.72631 0.1077 0.0
C503 C 0.44877 0.66635 0.96094 0.0
H504 H 0.35726 0.61585 0.06438 0.0
H505 H 0.32682 0.70784 1.0036 0.0
H506 H 0.44087 0.62196 0.04927 0.0
H507 H 0.43767 0.64516 0.09945 0.0
H508 H 0.4122 0.60833 0.09148 0.0
H509 H 0.36382 0.75029 0.98504 0.0
H510 H 0.39837 0.75447 0.0227 0.0
H511 H 0.40476 0.73491 0.9704 0.0
H512 H 0.49411 0.74967 0.0876 0.0
H513 H 0.50879 0.69732 0.96562 0.0
H514 H 0.42325 0.70299 0.12334 0.0
H515 H 0.41029 0.7412 0.09806 0.0
H516 H 0.44699 0.74079 0.13244 0.0
H517 H 0.44057 0.64193 0.97449 0.0
H518 H 0.46819 0.66179 0.93542 0.0
H519 H 0.42669 0.67801 0.94496 0.0
C520 C 0.77494 0.04295 0.4712 0.0
C521 C 0.79347 0.01565 0.48715 0.0
C522 C 0.78896 0.07529 0.46866 0.0
C523 C 0.82247 0.08075 0.48226 0.0
C524 C 0.84149 0.0532 0.49769 0.0
C525 C 0.8268 0.02116 0.50007 0.0
C526 C 0.76757 0.10382 0.45236 0.0
C527 C 0.87726 0.05768 0.51247 0.0
C528 C 0.86585 0.16301 0.44957 0.0
C529 C 0.86111 0.1826 0.48751 0.0
C530 C 0.85375 0.12975 0.44735 0.0
C531 C 0.83659 0.11564 0.48392 0.0
C532 C 0.83247 0.13511 0.52251 0.0
C533 C 0.84483 0.168 0.52386 0.0
C534 C 0.8589 0.10987 0.40564 0.0
C535 C 0.81464 0.1213 0.56247 0.0
H536 H 0.74921 0.03922 0.46124 0.0
H537 H 0.84157 1.00035 0.51208 0.0
H538 H 0.76366 0.12216 0.47934 0.0
H539 H 0.78046 0.11713 0.42514 0.0
H540 H 0.74272 0.09522 0.44048 0.0
H541 H 0.88943 0.03351 0.52078 0.0
H542 H 0.89207 0.07016 0.48627 0.0
H543 H 0.87804 0.07409 0.54195 0.0
H544 H 0.87832 0.17389 0.42132 0.0
H545 H 0.84176 0.18234 0.55385 0.0
H546 H 0.83428 0.1033 0.39113 0.0
H547 H 0.87194 0.08605 0.41316 0.0
H548 H 0.87371 0.12383 0.38071 0.0
H549 H 0.78866 0.11417 0.55363 0.0
H550 H 0.81362 0.13956 0.59006 0.0
H551 H 0.82744 0.09835 0.57418 0.0
C552 C 1.001 0.82637 0.49577 0.0
C553 C 1.00576 0.79316 0.48185 0.0
C554 C 0.96948 0.8421 0.49266 0.0
C555 C 0.9417 0.8242 0.47565 0.0
C556 C 0.94646 0.79082 0.46101 0.0
C557 C 0.97831 0.77582 0.46411 0.0
C558 C 0.96577 0.87774 0.5084 0.0
C559 C 0.91763 0.77055 0.44317 0.0
C560 C 0.85427 0.84724 0.5158 0.0
C561 C 0.84027 0.86387 0.47939 0.0
C562 C 0.8871 0.83472 0.51502 0.0
C563 C 0.90716 0.83913 0.47702 0.0
C564 C 0.89376 0.85697 0.44058 0.0
C565 C 0.86049 0.86913 0.44217 0.0
C566 C 0.90009 0.81609 0.55479 0.0
C567 C 0.91436 0.86257 0.39958 0.0
H568 H 0.02199 0.84023 0.50908 0.0
H569 H 0.98152 0.7502 0.45329 0.0
H570 H 0.95387 0.89324 0.48247 0.0
H571 H 0.94914 0.8785 0.53768 0.0
H572 H 0.99018 0.88915 0.51737 0.0
H573 H 0.92573 0.7457 0.43069 0.0
H574 H 0.89873 0.76668 0.4695 0.0
H575 H 0.90513 0.78428 0.41604 0.0
H576 H 0.83939 0.8438 0.54527 0.0
H577 H 0.85004 0.88191 0.41391 0.0
H578 H 0.92319 0.8282 0.56724 0.0
H579 H 0.90672 0.79009 0.54541 0.0
H580 H 0.8815 0.81514 0.58202 0.0
H581 H 0.93853 0.87453 0.40821 0.0
H582 H 0.9012 0.87854 0.37517 0.0
H583 H 0.92021 0.83816 0.38394 0.0
C584 C 0.19223 1.00055 0.49556 0.0
C585 C 0.22559 1.00516 0.48214 0.0
C586 C 0.17627 0.96922 0.49159 0.0
C587 C 0.19407 0.94152 0.47414 0.0
C588 C 0.22761 0.94613 0.46003 0.0
C589 C 0.24286 0.97778 0.46406 0.0
C590 C 0.14049 0.96562 0.50686 0.0
C591 C 0.24776 0.91735 0.44171 0.0
C592 C 0.17082 0.85356 0.51129 0.0
C593 C 0.15455 0.8402 0.47419 0.0
C594 C 0.18308 0.88647 0.51184 0.0
C595 C 0.17887 0.90714 0.47444 0.0
C596 C 0.16125 0.89438 0.43739 0.0
C597 C 0.14924 0.86106 0.43771 0.0
C598 C 0.2014 0.89879 0.55224 0.0
C599 C 0.15594 0.91563 0.39697 0.0
H600 H 0.17843 0.02152 0.50913 0.0
H601 H 0.2686 0.98087 0.45365 0.0
H602 H 0.12504 0.95425 0.48046 0.0
H603 H 0.1394 0.94859 0.53567 0.0
H604 H 0.12924 0.98999 0.5164 0.0
H605 H 0.27278 0.92538 0.42972 0.0
H606 H 0.25127 0.89809 0.4676 0.0
H607 H 0.23411 0.90535 0.4141 0.0
H608 H 0.17434 0.83799 0.54009 0.0
H609 H 0.13675 0.85101 0.40895 0.0
H610 H 0.18948 0.92194 0.56492 0.0
H611 H 0.22761 0.90512 0.54349 0.0
H612 H 0.20177 0.87992 0.57909 0.0
H613 H 0.14429 0.93983 0.40624 0.0
H614 H 0.13982 0.90303 0.37221 0.0
H615 H 0.18045 0.92135 0.38151 0.0
C616 C 0.01837 0.18892 0.50024 0.0
C617 C 0.01402 0.22319 0.49159 0.0
C618 C 0.04986 0.17335 0.49549 0.0
C619 C 0.07795 0.19241 0.48188 0.0
C620 C 0.07364 0.22692 0.47268 0.0
C621 C 0.0419 0.24182 0.4777 0.0
C622 C 0.05318 0.13656 0.50577 0.0
C623 C 0.1028 0.24836 0.45843 0.0
C624 C 0.16551 0.16636 0.51756 0.0
C625 C 0.17933 0.15305 0.47872 0.0
C626 C 0.13251 0.17837 0.51916 0.0
C627 C 0.11232 0.17712 0.48092 0.0
C628 C 0.12559 0.16253 0.44191 0.0
C629 C 0.15892 0.15053 0.4413 0.0
C630 C 0.11958 0.19329 0.56165 0.0
C631 C 0.10494 0.16057 0.40044 0.0
H632 H 0.99708 0.1741 0.51067 0.0
H633 H 0.03912 0.2683 0.47132 0.0
H634 H 0.06478 0.12323 0.47755 0.0
H635 H 0.06993 0.13313 0.53454 0.0
H636 H 0.02867 0.12474 0.51328 0.0
H637 H 0.09501 0.27422 0.4498 0.0
H638 H 0.12151 0.24971 0.48535 0.0
H639 H 0.11541 0.237 0.42946 0.0
H640 H 0.18083 0.16775 0.54692 0.0
H641 H 0.1694 0.14035 0.4112 0.0
H642 H 0.09608 0.18067 0.57175 0.0
H643 H 0.11368 0.22015 0.55669 0.0
H644 H 0.13795 0.19115 0.58895 0.0
H645 H 0.0806 0.14828 0.40736 0.0
H646 H 0.11791 0.14656 0.3738 0.0
H647 H 0.09942 0.1862 0.38848 0.0
C648 C 0.35474 0.19608 0.15468 0.0
C649 C 0.38939 0.2012 0.15276 0.0
C650 C 0.33939 0.18405 0.1933 0.0
C651 C 0.35938 0.17541 0.23012 0.0
C652 C 0.39448 0.1806 0.22819 0.0
C653 C 0.40896 0.19409 0.18983 0.0
C654 C 0.30182 0.18021 0.19448 0.0
C655 C 0.41692 0.17062 0.26593 0.0
C656 C 0.32318 0.16446 0.34557 0.0
C657 C 0.31808 0.12982 0.34739 0.0
C658 C 0.3352 0.17984 0.30697 0.0
C659 C 0.34386 0.15986 0.27005 0.0
C660 C 0.33869 0.12478 0.27189 0.0
C661 C 0.32521 0.11028 0.31024 0.0
C662 C 0.33901 0.21739 0.30589 0.0
C663 C 0.3487 0.10236 0.23404 0.0
H664 H 0.33964 0.20156 0.12592 0.0
H665 H 0.43585 0.1975 0.18801 0.0
H666 H 0.29513 0.15333 0.19645 0.0
H667 H 0.29146 0.19258 0.22427 0.0
H668 H 0.28964 0.19106 0.16488 0.0
H669 H 0.44371 0.17598 0.25908 0.0
H670 H 0.40951 0.18406 0.29637 0.0
H671 H 0.41414 0.14345 0.27254 0.0
H672 H 0.31769 0.17955 0.37439 0.0
H673 H 0.32182 0.0834 0.31198 0.0
H674 H 0.3266 0.22774 0.27619 0.0
H675 H 0.36589 0.2241 0.30382 0.0
H676 H 0.32817 0.22955 0.33558 0.0
H677 H 0.33522 0.10976 0.20367 0.0
H678 H 0.34337 0.07557 0.24082 0.0
H679 H 0.37586 0.10518 0.22733 0.0
C680 C 0.86196 0.38514 0.16816 0.0
C681 C 0.82794 0.39293 0.16368 0.0
C682 C 0.87445 0.37119 0.20736 0.0
C683 C 0.85214 0.36357 0.2423 0.0
C684 C 0.81755 0.37055 0.23733 0.0
C685 C 0.80597 0.38579 0.19841 0.0
C686 C 0.91164 0.36547 0.21179 0.0
C687 C 0.79275 0.36185 0.27308 0.0
C688 C 0.88398 0.30238 0.32944 0.0
C689 C 0.89141 0.324 0.36443 0.0
C690 C 0.87024 0.31475 0.28992 0.0
C691 C 0.86523 0.34968 0.28467 0.0
C692 C 0.87331 0.37156 0.31983 0.0
C693 C 0.88565 0.35838 0.3595 0.0
C694 C 0.86093 0.29046 0.25387 0.0
C695 C 0.86969 0.409 0.31523 0.0
H696 H 0.879 0.39092 0.14139 0.0
H697 H 0.7796 0.39153 0.19478 0.0
H698 H 0.92137 0.3797 0.24045 0.0
H699 H 0.91677 0.33863 0.21804 0.0
H700 H 0.92566 0.37327 0.18189 0.0
H701 H 0.76649 0.36649 0.26279 0.0
H702 H 0.79538 0.33512 0.28233 0.0
H703 H 0.79794 0.37691 0.303 0.0
H704 H 0.88839 0.27579 0.33329 0.0
H705 H 0.89189 0.3752 0.38632 0.0
H706 H 0.87646 0.29516 0.22422 0.0
H707 H 0.83441 0.29421 0.24423 0.0
H708 H 0.8644 0.26401 0.26409 0.0
H709 H 0.88446 0.41789 0.28654 0.0
H710 H 0.87822 0.42263 0.34508 0.0
H711 H 0.84316 0.41559 0.30897 0.0
C712 C 0.69754 0.85484 0.34981 0.0
C713 C 0.70235 0.88952 0.35216 0.0
C714 C 0.68596 0.83959 0.31085 0.0
C715 C 0.6774 0.85968 0.27405 0.0
C716 C 0.68221 0.89481 0.27646 0.0
C717 C 0.69529 0.90919 0.31515 0.0
C718 C 0.68254 0.80201 0.30925 0.0
C719 C 0.67223 0.91738 0.23885 0.0
C720 C 0.66716 0.82374 0.15809 0.0
C721 C 0.63259 0.81805 0.15616 0.0
C722 C 0.68229 0.83594 0.19681 0.0
C723 C 0.66214 0.84423 0.23376 0.0
C724 C 0.62712 0.83863 0.23172 0.0
C725 C 0.6129 0.82496 0.1933 0.0
C726 C 0.7198 0.84018 0.19807 0.0
C727 C 0.60445 0.84827 0.26949 0.0
H728 H 0.703 0.83962 0.37847 0.0
H729 H 0.69846 0.93609 0.31723 0.0
H730 H 0.65574 0.79504 0.30704 0.0
H731 H 0.69516 0.79198 0.27943 0.0
H732 H 0.69342 0.78978 0.3388 0.0
H733 H 0.6773 0.94417 0.24602 0.0
H734 H 0.68594 0.91029 0.20847 0.0
H735 H 0.64513 0.91438 0.23194 0.0
H736 H 0.68239 0.81842 0.12934 0.0
H737 H 0.58607 0.82113 0.19155 0.0
H738 H 0.73022 0.82765 0.22765 0.0
H739 H 0.72621 0.8671 0.20054 0.0
H740 H 0.73216 0.82972 0.16828 0.0
H741 H 0.61171 0.83453 0.29972 0.0
H742 H 0.57771 0.84294 0.26239 0.0
H743 H 0.60717 0.87537 0.27664 0.0
C744 C 0.16508 0.69649 0.34292 0.0
C745 C 0.13038 0.70126 0.34503 0.0
C746 C 0.18046 0.68466 0.30419 0.0
C747 C 0.16046 0.67586 0.26741 0.0
C748 C 0.12532 0.68072 0.26952 0.0
C749 C 0.1108 0.69402 0.30801 0.0
C750 C 0.21806 0.68118 0.30283 0.0
C751 C 0.10288 0.67056 0.23184 0.0
C752 C 0.19658 0.66501 0.15181 0.0
C753 C 0.202 0.63041 0.15002 0.0
C754 C 0.18447 0.68036 0.19043 0.0
C755 C 0.17604 0.66039 0.2274 0.0
C756 C 0.18152 0.62535 0.22559 0.0
C757 C 0.19508 0.6109 0.18723 0.0
C758 C 0.18034 0.71788 0.19149 0.0
C759 C 0.17177 0.60291 0.26349 0.0
H760 H 0.1802 0.70209 0.37163 0.0
H761 H 0.08389 0.69719 0.30996 0.0
H762 H 0.225 0.65436 0.30084 0.0
H763 H 0.22822 0.69361 0.27299 0.0
H764 H 0.2302 0.69219 0.33238 0.0
H765 H 0.07607 0.67572 0.23878 0.0
H766 H 0.11014 0.68405 0.20139 0.0
H767 H 0.10586 0.64341 0.22517 0.0
H768 H 0.20191 0.68008 0.12296 0.0
H769 H 0.19871 0.58404 0.18554 0.0
H770 H 0.19271 0.72839 0.22114 0.0
H771 H 0.1534 0.72437 0.19363 0.0
H772 H 0.19102 0.73007 0.16175 0.0
H773 H 0.18529 0.61045 0.29379 0.0
H774 H 0.17727 0.57616 0.25669 0.0
H775 H 0.1446 0.60556 0.27033 0.0
C776 C 0.6129 0.82998 0.82511 0.0
C777 C 0.60778 0.8526 0.85986 0.0
C778 C 0.62356 0.84108 0.78331 0.0
C779 C 0.62893 0.87569 0.77581 0.0
C780 C 0.62282 0.8987 0.81042 0.0
C781 C 0.61248 0.8869 0.85192 0.0
C782 C 0.62993 0.81564 0.74749 0.0
C783 C 0.62774 0.93581 0.80383 0.0
C784 C 0.68776 0.90188 0.6826 0.0
C785 C 0.66528 0.9094 0.64852 0.0
C786 C 0.6763 0.89099 0.72411 0.0
C787 C 0.64146 0.88779 0.73205 0.0
C788 C 0.61864 0.89606 0.69808 0.0
C789 C 0.63079 0.90661 0.65682 0.0
C790 C 0.70154 0.88228 0.75924 0.0
C791 C 0.58133 0.89347 0.70518 0.0
H792 H 0.6097 0.80344 0.83104 0.0
H793 H 0.60824 0.9046 0.87842 0.0
H794 H 0.61482 0.82171 0.71793 0.0
H795 H 0.65664 0.81649 0.7375 0.0
H796 H 0.62382 0.78977 0.75816 0.0
H797 H 0.62068 0.95054 0.83347 0.0
H798 H 0.65433 0.94104 0.79587 0.0
H799 H 0.61255 0.9446 0.77554 0.0
H800 H 0.71443 0.90353 0.6764 0.0
H801 H 0.6132 0.9127 0.63088 0.0
H802 H 0.69868 0.85565 0.76882 0.0
H803 H 0.697 0.89757 0.78917 0.0
H804 H 0.7277 0.88643 0.7481 0.0
H805 H 0.57445 0.86725 0.71298 0.0
H806 H 0.56687 0.9016 0.67584 0.0
H807 H 0.57374 0.90907 0.73375 0.0
C808 C 0.14792 0.66315 0.65187 0.0
C809 C 0.11386 0.66688 0.64152 0.0
C810 C 0.15827 0.65167 0.69339 0.0
C811 C 0.13402 0.64368 0.72575 0.0
C812 C 0.09957 0.64757 0.71574 0.0
C813 C 0.0899 0.65923 0.67382 0.0
C814 C 0.19524 0.64831 0.70271 0.0
C815 C 0.07294 0.63937 0.74933 0.0
C816 C 0.16163 0.58802 0.82141 0.0
C817 C 0.16735 0.61163 0.85481 0.0
C818 C 0.15036 0.598 0.77943 0.0
C819 C 0.14492 0.6324 0.77048 0.0
C820 C 0.15096 0.6563 0.80397 0.0
C821 C 0.16208 0.64566 0.84553 0.0
C822 C 0.14424 0.57173 0.74463 0.0
C823 C 0.14593 0.69323 0.79583 0.0
H824 H 0.16668 0.66957 0.62747 0.0
H825 H 0.06356 0.66177 0.66606 0.0
H826 H 0.20229 0.66479 0.73063 0.0
H827 H 0.20114 0.62226 0.71256 0.0
H828 H 0.2109 0.65497 0.67375 0.0
H829 H 0.04727 0.6432 0.73627 0.0
H830 H 0.0755 0.61296 0.76004 0.0
H831 H 0.0762 0.65528 0.77898 0.0
H832 H 0.16542 0.5617 0.82834 0.0
H833 H 0.16702 0.66417 0.87081 0.0
H834 H 0.1606 0.5764 0.71573 0.0
H835 H 0.11797 0.5732 0.73299 0.0
H836 H 0.14907 0.54602 0.75693 0.0
H837 H 0.16261 0.7017 0.76881 0.0
H838 H 0.15116 0.70857 0.82557 0.0
H839 H 0.11981 0.69803 0.7852 0.0
C840 C 0.35898 0.08859 0.67614 0.0
C841 C 0.35313 0.11237 0.64305 0.0
C842 C 0.37045 0.09832 0.71814 0.0
C843 C 0.3761 0.13265 0.72738 0.0
C844 C 0.37004 0.15673 0.69418 0.0
C845 C 0.3586 0.14634 0.65264 0.0
C846 C 0.3765 0.07188 0.75269 0.0
C847 C 0.37537 0.19359 0.70262 0.0
C848 C 0.37336 0.163 0.8462 0.0
C849 C 0.40746 0.16624 0.85668 0.0
C850 C 0.36292 0.15177 0.80459 0.0
C851 C 0.3871 0.14367 0.77218 0.0
C852 C 0.42158 0.14716 0.78226 0.0
C853 C 0.43135 0.15845 0.82434 0.0
C854 C 0.32592 0.14876 0.79525 0.0
C855 C 0.44814 0.13892 0.74856 0.0
H856 H 0.35509 0.06231 0.66901 0.0
H857 H 0.35354 0.16501 0.62765 0.0
H858 H 0.4028 0.07314 0.76426 0.0
H859 H 0.36021 0.07654 0.78168 0.0
H860 H 0.37149 0.04625 0.74017 0.0
H861 H 0.37034 0.20906 0.67297 0.0
H862 H 0.35868 0.20212 0.72961 0.0
H863 H 0.40149 0.19814 0.71341 0.0
H864 H 0.35463 0.16959 0.87058 0.0
H865 H 0.45772 0.16062 0.83215 0.0
H866 H 0.31982 0.12281 0.78506 0.0
H867 H 0.31897 0.16546 0.76756 0.0
H868 H 0.31031 0.15535 0.8243 0.0
H869 H 0.44544 0.11256 0.73766 0.0
H870 H 0.47384 0.14257 0.76161 0.0
H871 H 0.44493 0.15494 0.71903 0.0
C872 C 0.89691 0.33119 0.69003 0.0
C873 C 0.91297 0.35253 0.66009 0.0
C874 C 0.88511 0.34318 0.73085 0.0
C875 C 0.8901 0.37721 0.74249 0.0
C876 C 0.90724 0.39858 0.71285 0.0
C877 C 0.91808 0.3861 0.67186 0.0
C878 C 0.86652 0.31963 0.76105 0.0
C879 C 0.91388 0.43473 0.72427 0.0
C880 C 0.83273 0.41542 0.83009 0.0
C881 C 0.85183 0.41138 0.86837 0.0
C882 C 0.84498 0.40477 0.7888 0.0
C883 C 0.87737 0.39035 0.78565 0.0
C884 C 0.89722 0.38756 0.82411 0.0
C885 C 0.88408 0.39774 0.86498 0.0
C886 C 0.82276 0.40776 0.74883 0.0
C887 C 0.9321 0.37309 0.82228 0.0
H888 H 0.89247 0.30536 0.68079 0.0
H889 H 0.93053 0.40266 0.6488 0.0
H890 H 0.87939 0.3181 0.79333 0.0
H891 H 0.84093 0.32934 0.7673 0.0
H892 H 0.8645 0.294 0.7471 0.0
H893 H 0.92878 0.44768 0.69849 0.0
H894 H 0.88984 0.44823 0.72854 0.0
H895 H 0.92752 0.43637 0.75601 0.0
H896 H 0.80765 0.42557 0.83276 0.0
H897 H 0.89888 0.39459 0.89461 0.0
H898 H 0.81741 0.38249 0.73543 0.0
H899 H 0.83569 0.42208 0.72256 0.0
H900 H 0.79863 0.42031 0.75648 0.0
H901 H 0.9309 0.34639 0.81245 0.0
H902 H 0.94517 0.37485 0.85448 0.0
H903 H 0.94723 0.38633 0.79705 0.0
loop_
_geom_bond_atom_site_label_1
_geom_bond_atom_site_label_2
_geom_bond_distance
_geom_bond_site_symmetry_2
_ccdc_geom_bond_type
Co0 N4 2.148 . S
Co0 N10 2.128 . S
Co0 N20 2.194 1_554 S
Co0 O25 2.351 . S
Co0 O26 2.155 . S
Co0 O27 2.096 . S
C1 N4 1.301 . S
C1 N5 1.328 . S
C1 H6 0.930 . S
C2 C3 1.333 . S
C2 N4 1.317 . S
C2 H7 0.930 . S
C3 C2 1.333 . S
C3 N5 1.350 . S
C3 H29 0.931 . S
N4 Co0 2.148 . S
N4 C1 1.301 . S
N4 C2 1.317 . S
N5 C1 1.328 . S
N5 C3 1.350 . S
H6 C1 0.930 . S
H7 C2 0.930 . S
C8 O9 1.224 1_554 S
C8 O27 1.247 . S
O9 C8 1.224 1_556 S
N10 Co0 2.128 . S
N10 C11 1.355 . S
N10 C13 1.311 . S
C11 N10 1.355 . S
C11 C12 1.363 . S
C11 H23 0.929 . S
C12 C11 1.363 . S
C12 N14 1.375 . S
C12 H30 0.931 . S
C13 N10 1.311 . S
C13 N14 1.347 . S
C13 H24 0.929 . S
N14 C12 1.375 . S
N14 C13 1.347 . S
C15 C18 1.365 . S
C15 N20 1.328 . S
C15 H21 0.929 1_556 S
C16 C17 1.362 . S
C16 C19 1.378 . S
C16 H31 0.929 . S
C17 C16 1.362 . S
C17 C18 1.366 . S
C18 C15 1.365 . S
C18 C17 1.366 . S
C18 H32 0.930 . S
C19 C16 1.378 . S
C19 N20 1.315 . S
C19 H22 0.930 . S
N20 Co0 2.194 1_556 S
N20 C15 1.328 . S
N20 C19 1.315 . S
H21 C15 0.929 1_554 S
H22 C19 0.930 . S
H23 C11 0.929 . S
H24 C13 0.929 . S
O25 Co0 2.351 . S
O25 C28 1.244 . S
O26 Co0 2.155 . S
O26 C28 1.240 . S
O27 Co0 2.096 . S
O27 C8 1.247 . S
C28 O25 1.244 . S
C28 O26 1.240 . S
H29 C3 0.931 . S
H30 C12 0.931 . S
H31 C16 0.929 . S
H32 C18 0.930 . S
Co33 N37 2.148 . S
Co33 N43 2.128 . S
Co33 N53 2.194 1_554 S
Co33 O58 2.351 . S
Co33 O59 2.155 . S
Co33 O60 2.096 . S
C34 N37 1.301 . S
C34 N38 1.328 . S
C34 H39 0.930 . S
C35 C36 1.333 . S
C35 N37 1.317 . S
C35 H40 0.930 . S
C36 C35 1.333 . S
C36 N38 1.350 . S
C36 H62 0.931 . S
N37 Co33 2.148 . S
N37 C34 1.301 . S
N37 C35 1.317 . S
N38 C34 1.328 . S
N38 C36 1.350 . S
H39 C34 0.930 . S
H40 C35 0.930 . S
C41 O42 1.224 1_554 S
C41 O60 1.247 . S
O42 C41 1.224 1_556 S
N43 Co33 2.128 . S
N43 C44 1.355 . S
N43 C46 1.311 . S
C44 N43 1.355 . S
C44 C45 1.363 . S
C44 H56 0.929 . S
C45 C44 1.363 . S
C45 N47 1.375 . S
C45 H63 0.931 . S
C46 N43 1.311 . S
C46 N47 1.347 . S
C46 H57 0.929 . S
N47 C45 1.375 . S
N47 C46 1.347 . S
C48 C51 1.365 . S
C48 N53 1.328 . S
C48 H54 0.929 1_556 S
C49 C50 1.362 . S
C49 C52 1.378 . S
C49 H64 0.929 . S
C50 C49 1.362 . S
C50 C51 1.366 . S
C51 C48 1.365 . S
C51 C50 1.366 . S
C51 H65 0.930 . S
C52 C49 1.378 . S
C52 N53 1.315 . S
C52 H55 0.930 . S
N53 Co33 2.194 1_556 S
N53 C48 1.328 . S
N53 C52 1.315 . S
H54 C48 0.929 1_554 S
H55 C52 0.930 . S
H56 C44 0.929 . S
H57 C46 0.929 . S
O58 Co33 2.351 . S
O58 C61 1.244 . S
O59 Co33 2.155 . S
O59 C61 1.240 . S
O60 Co33 2.096 . S
O60 C41 1.247 . S
C61 O58 1.244 . S
C61 O59 1.240 . S
H62 C36 0.931 . S
H63 C45 0.931 . S
H64 C49 0.929 . S
H65 C51 0.930 . S
Co66 N70 2.148 . S
Co66 N76 2.128 . S
Co66 N86 2.194 1_554 S
Co66 O91 2.351 . S
Co66 O92 2.155 . S
Co66 O93 2.096 . S
C67 N70 1.301 . S
C67 N71 1.328 . S
C67 H72 0.930 . S
C68 C69 1.333 . S
C68 N70 1.317 . S
C68 H73 0.930 . S
C69 C68 1.333 . S
C69 N71 1.350 . S
C69 H95 0.931 . S
N70 Co66 2.148 . S
N70 C67 1.301 . S
N70 C68 1.317 . S
N71 C67 1.328 . S
N71 C69 1.350 . S
H72 C67 0.930 . S
H73 C68 0.930 . S
C74 O75 1.224 1_554 S
C74 O93 1.247 . S
O75 C74 1.224 1_556 S
N76 Co66 2.128 . S
N76 C77 1.355 . S
N76 C79 1.311 . S
C77 N76 1.355 . S
C77 C78 1.363 . S
C77 H89 0.929 . S
C78 C77 1.363 . S
C78 N80 1.375 . S
C78 H96 0.931 . S
C79 N76 1.311 . S
C79 N80 1.347 . S
C79 H90 0.929 . S
N80 C78 1.375 . S
N80 C79 1.347 . S
C81 C84 1.365 . S
C81 N86 1.328 . S
C81 H87 0.929 1_556 S
C82 C83 1.362 . S
C82 C85 1.378 . S
C82 H97 0.929 . S
C83 C82 1.362 . S
C83 C84 1.366 . S
C84 C81 1.365 . S
C84 C83 1.366 . S
C84 H98 0.930 . S
C85 C82 1.378 . S
C85 N86 1.315 . S
C85 H88 0.930 . S
N86 Co66 2.194 1_556 S
N86 C81 1.328 . S
N86 C85 1.315 . S
H87 C81 0.929 1_554 S
H88 C85 0.930 . S
H89 C77 0.929 . S
H90 C79 0.929 . S
O91 Co66 2.351 . S
O91 C94 1.244 . S
O92 Co66 2.155 . S
O92 C94 1.240 . S
O93 Co66 2.096 . S
O93 C74 1.247 . S
C94 O91 1.244 . S
C94 O92 1.240 . S
H95 C69 0.931 . S
H96 C78 0.931 . S
H97 C82 0.929 . S
H98 C84 0.930 . S
Co99 N103 2.148 . S
Co99 N109 2.128 . S
Co99 N119 2.194 1_554 S
Co99 O124 2.351 . S
Co99 O125 2.155 . S
Co99 O126 2.096 . S
C100 N103 1.301 . S
C100 N104 1.328 . S
C100 H105 0.930 . S
C101 C102 1.333 . S
C101 N103 1.317 . S
C101 H106 0.930 . S
C102 C101 1.333 . S
C102 N104 1.350 . S
C102 H128 0.931 . S
N103 Co99 2.148 . S
N103 C100 1.301 . S
N103 C101 1.317 . S
N104 C100 1.328 . S
N104 C102 1.350 . S
H105 C100 0.930 . S
H106 C101 0.930 . S
C107 O108 1.224 1_554 S
C107 O126 1.247 . S
O108 C107 1.224 1_556 S
N109 Co99 2.128 . S
N109 C110 1.355 . S
N109 C112 1.311 . S
C110 N109 1.355 . S
C110 C111 1.363 . S
C110 H122 0.929 . S
C111 C110 1.363 . S
C111 N113 1.375 . S
C111 H129 0.931 . S
C112 N109 1.311 . S
C112 N113 1.347 . S
C112 H123 0.929 . S
N113 C111 1.375 . S
N113 C112 1.347 . S
C114 C117 1.365 . S
C114 N119 1.328 . S
C114 H120 0.929 1_556 S
C115 C116 1.362 . S
C115 C118 1.378 . S
C115 H130 0.929 . S
C116 C115 1.362 . S
C116 C117 1.366 . S
C117 C114 1.365 . S
C117 C116 1.366 . S
C117 H131 0.930 . S
C118 C115 1.378 . S
C118 N119 1.315 . S
C118 H121 0.930 . S
N119 Co99 2.194 1_556 S
N119 C114 1.328 . S
N119 C118 1.315 . S
H120 C114 0.929 1_554 S
H121 C118 0.930 . S
H122 C110 0.929 . S
H123 C112 0.929 . S
O124 Co99 2.351 . S
O124 C127 1.244 . S
O125 Co99 2.155 . S
O125 C127 1.240 . S
O126 Co99 2.096 . S
O126 C107 1.247 . S
C127 O124 1.244 . S
C127 O125 1.240 . S
H128 C102 0.931 . S
H129 C111 0.931 . S
H130 C115 0.929 . S
H131 C117 0.930 . S
Co132 N136 2.148 . S
Co132 N142 2.128 . S
Co132 N152 2.194 . S
Co132 O157 2.351 . S
Co132 O158 2.155 . S
Co132 O159 2.096 . S
C133 N136 1.301 . S
C133 N137 1.328 . S
C133 H138 0.930 . S
C134 C135 1.332 1_655 S
C134 N136 1.317 . S
C134 H139 0.930 1_655 S
C135 C134 1.332 1_455 S
C135 N137 1.348 1_455 S
C135 H161 0.934 . S
N136 Co132 2.148 . S
N136 C133 1.301 . S
N136 C134 1.317 . S
N137 C133 1.328 . S
N137 C135 1.348 1_655 S
H138 C133 0.930 . S
H139 C134 0.930 1_455 S
C140 O141 1.224 . S
C140 O159 1.247 . S
O141 C140 1.224 . S
N142 Co132 2.128 . S
N142 C143 1.355 . S
N142 C145 1.311 . S
C143 N142 1.355 . S
C143 C144 1.363 . S
C143 H155 0.929 . S
C144 C143 1.363 . S
C144 N146 1.375 . S
C144 H162 0.931 . S
C145 N142 1.311 . S
C145 N146 1.347 . S
C145 H156 0.929 . S
N146 C144 1.375 . S
N146 C145 1.347 . S
C147 C150 1.365 . S
C147 N152 1.328 . S
C147 H153 0.929 . S
C148 C149 1.362 . S
C148 C151 1.378 . S
C148 H163 0.929 . S
C149 C148 1.362 . S
C149 C150 1.366 . S
C150 C147 1.365 . S
C150 C149 1.366 . S
C150 H164 0.930 . S
C151 C148 1.378 . S
C151 N152 1.315 . S
C151 H154 0.930 . S
N152 Co132 2.194 . S
N152 C147 1.328 . S
N152 C151 1.315 . S
H153 C147 0.929 . S
H154 C151 0.930 . S
H155 C143 0.929 . S
H156 C145 0.929 . S
O157 Co132 2.351 . S
O157 C160 1.244 . S
O158 Co132 2.155 . S
O158 C160 1.240 . S
O159 Co132 2.096 . S
O159 C140 1.247 . S
C160 O157 1.244 . S
C160 O158 1.240 . S
H161 C135 0.934 . S
H162 C144 0.931 . S
H163 C148 0.929 . S
H164 C150 0.930 . S
Co165 N169 2.148 . S
Co165 N175 2.128 . S
Co165 N185 2.194 . S
Co165 O190 2.351 . S
Co165 O191 2.155 . S
Co165 O192 2.096 . S
C166 N169 1.301 . S
C166 N170 1.328 . S
C166 H171 0.930 . S
C167 C168 1.332 1_565 S
C167 N169 1.317 . S
C167 H172 0.930 1_565 S
C168 C167 1.332 1_545 S
C168 N170 1.348 1_545 S
C168 H194 0.934 . S
N169 Co165 2.148 . S
N169 C166 1.301 . S
N169 C167 1.317 . S
N170 C166 1.328 . S
N170 C168 1.348 1_565 S
H171 C166 0.930 . S
H172 C167 0.930 1_545 S
C173 O174 1.224 . S
C173 O192 1.247 . S
O174 C173 1.224 . S
N175 Co165 2.128 . S
N175 C176 1.355 . S
N175 C178 1.311 . S
C176 N175 1.355 . S
C176 C177 1.363 . S
C176 H188 0.929 . S
C177 C176 1.363 . S
C177 N179 1.375 . S
C177 H195 0.931 . S
C178 N175 1.311 . S
C178 N179 1.347 . S
C178 H189 0.929 . S
N179 C177 1.375 . S
N179 C178 1.347 . S
C180 C183 1.365 . S
C180 N185 1.328 . S
C180 H186 0.929 . S
C181 C182 1.362 . S
C181 C184 1.378 . S
C181 H196 0.929 . S
C182 C181 1.362 . S
C182 C183 1.366 . S
C183 C180 1.365 . S
C183 C182 1.366 . S
C183 H197 0.930 . S
C184 C181 1.378 . S
C184 N185 1.315 . S
C184 H187 0.930 . S
N185 Co165 2.194 . S
N185 C180 1.328 . S
N185 C184 1.315 . S
H186 C180 0.929 . S
H187 C184 0.930 . S
H188 C176 0.929 . S
H189 C178 0.929 . S
O190 Co165 2.351 . S
O190 C193 1.244 . S
O191 Co165 2.155 . S
O191 C193 1.240 . S
O192 Co165 2.096 . S
O192 C173 1.247 . S
C193 O190 1.244 . S
C193 O191 1.240 . S
H194 C168 0.934 . S
H195 C177 0.931 . S
H196 C181 0.929 . S
H197 C183 0.930 . S
Co198 N202 2.148 . S
Co198 N208 2.128 . S
Co198 N218 2.194 . S
Co198 O223 2.351 . S
Co198 O224 2.155 . S
Co198 O225 2.096 . S
C199 N202 1.301 . S
C199 N203 1.328 . S
C199 H204 0.930 . S
C200 C201 1.332 1_455 S
C200 N202 1.317 . S
C200 H205 0.930 1_455 S
C201 C200 1.332 1_655 S
C201 N203 1.348 1_655 S
C201 H227 0.934 . S
N202 Co198 2.148 . S
N202 C199 1.301 . S
N202 C200 1.317 . S
N203 C199 1.328 . S
N203 C201 1.348 1_455 S
H204 C199 0.930 . S
H205 C200 0.930 1_655 S
C206 O207 1.224 . S
C206 O225 1.247 . S
O207 C206 1.224 . S
N208 Co198 2.128 . S
N208 C209 1.355 . S
N208 C211 1.311 . S
C209 N208 1.355 . S
C209 C210 1.363 . S
C209 H221 0.929 . S
C210 C209 1.363 . S
C210 N212 1.375 . S
C210 H228 0.931 . S
C211 N208 1.311 . S
C211 N212 1.347 . S
C211 H222 0.929 . S
N212 C210 1.375 . S
N212 C211 1.347 . S
C213 C216 1.365 . S
C213 N218 1.328 . S
C213 H219 0.929 . S
C214 C215 1.362 . S
C214 C217 1.378 . S
C214 H229 0.929 . S
C215 C214 1.362 . S
C215 C216 1.366 . S
C216 C213 1.365 . S
C216 C215 1.366 . S
C216 H230 0.930 . S
C217 C214 1.378 . S
C217 N218 1.315 . S
C217 H220 0.930 . S
N218 Co198 2.194 . S
N218 C213 1.328 . S
N218 C217 1.315 . S
H219 C213 0.929 . S
H220 C217 0.930 . S
H221 C209 0.929 . S
H222 C211 0.929 . S
O223 Co198 2.351 . S
O223 C226 1.244 . S
O224 Co198 2.155 . S
O224 C226 1.240 . S
O225 Co198 2.096 . S
O225 C206 1.247 . S
C226 O223 1.244 . S
C226 O224 1.240 . S
H227 C201 0.934 . S
H228 C210 0.931 . S
H229 C214 0.929 . S
H230 C216 0.930 . S
Co231 N235 2.148 . S
Co231 N241 2.128 . S
Co231 N251 2.194 . S
Co231 O256 2.351 . S
Co231 O257 2.155 . S
Co231 O258 2.096 . S
C232 N235 1.301 . S
C232 N236 1.328 . S
C232 H237 0.930 . S
C233 C234 1.332 1_545 S
C233 N235 1.317 . S
C233 H238 0.930 1_545 S
C234 C233 1.332 1_565 S
C234 N236 1.348 1_565 S
C234 H260 0.934 . S
N235 Co231 2.148 . S
N235 C232 1.301 . S
N235 C233 1.317 . S
N236 C232 1.328 . S
N236 C234 1.348 1_545 S
H237 C232 0.930 . S
H238 C233 0.930 1_565 S
C239 O240 1.224 . S
C239 O258 1.247 . S
O240 C239 1.224 . S
N241 Co231 2.128 . S
N241 C242 1.355 . S
N241 C244 1.311 . S
C242 N241 1.355 . S
C242 C243 1.363 . S
C242 H254 0.929 . S
C243 C242 1.363 . S
C243 N245 1.375 . S
C243 H261 0.931 . S
C244 N241 1.311 . S
C244 N245 1.347 . S
C244 H255 0.929 . S
N245 C243 1.375 . S
N245 C244 1.347 . S
C246 C249 1.365 . S
C246 N251 1.328 . S
C246 H252 0.929 . S
C247 C248 1.362 . S
C247 C250 1.378 . S
C247 H262 0.929 . S
C248 C247 1.362 . S
C248 C249 1.366 . S
C249 C246 1.365 . S
C249 C248 1.366 . S
C249 H263 0.930 . S
C250 C247 1.378 . S
C250 N251 1.315 . S
C250 H253 0.930 . S
N251 Co231 2.194 . S
N251 C246 1.328 . S
N251 C250 1.315 . S
H252 C246 0.929 . S
H253 C250 0.930 . S
H254 C242 0.929 . S
H255 C244 0.929 . S
O256 Co231 2.351 . S
O256 C259 1.244 . S
O257 Co231 2.155 . S
O257 C259 1.240 . S
O258 Co231 2.096 . S
O258 C239 1.247 . S
C259 O256 1.244 . S
C259 O257 1.240 . S
H260 C234 0.934 . S
H261 C243 0.931 . S
H262 C247 0.929 . S
H263 C249 0.930 . S
C264 C265 1.391 . S
C264 C266 1.394 . S
C264 H280 0.931 . S
C265 C264 1.391 . S
C265 C269 1.376 . S
C266 C264 1.394 . S
C266 C267 1.369 . S
C266 C270 1.531 . S
C267 C266 1.369 . S
C267 C268 1.410 . S
C267 C275 1.503 1_565 S
C268 C267 1.410 . S
C268 C269 1.392 . S
C268 C271 1.511 . S
C269 C265 1.376 . S
C269 C268 1.392 . S
C269 H281 0.929 . S
C270 C266 1.531 . S
C270 H282 0.960 1_565 S
C270 H283 0.962 1_565 S
C270 H284 0.960 . S
C271 C268 1.511 . S
C271 H285 0.961 . S
C271 H286 0.961 . S
C271 H287 0.961 . S
C272 C273 1.370 . S
C272 C274 1.363 . S
C272 H288 0.931 . S
C273 C272 1.370 . S
C273 C277 1.408 . S
C274 C272 1.363 . S
C274 C275 1.370 . S
C274 C278 1.524 . S
C275 C267 1.503 1_545 S
C275 C274 1.370 . S
C275 C276 1.406 . S
C276 C275 1.406 . S
C276 C277 1.404 . S
C276 C279 1.536 1_554 S
C277 C273 1.408 . S
C277 C276 1.404 . S
C277 H289 0.930 1_554 S
C278 C274 1.524 . S
C278 H290 0.956 . S
C278 H291 0.961 1_545 S
C278 H292 0.961 . S
C279 C276 1.536 1_556 S
C279 H293 0.958 . S
C279 H294 0.961 . S
C279 H295 0.960 1_545 S
H280 C264 0.931 . S
H281 C269 0.929 . S
H282 C270 0.960 1_545 S
H283 C270 0.962 1_545 S
H284 C270 0.960 . S
H285 C271 0.961 . S
H286 C271 0.961 . S
H287 C271 0.961 . S
H288 C272 0.931 . S
H289 C277 0.930 1_556 S
H290 C278 0.956 . S
H291 C278 0.961 1_565 S
H292 C278 0.961 . S
H293 C279 0.958 . S
H294 C279 0.961 . S
H295 C279 0.960 1_565 S
C296 C297 1.391 . S
C296 C298 1.394 . S
C296 H312 0.931 . S
C297 C296 1.391 . S
C297 C301 1.376 . S
C298 C296 1.394 . S
C298 C299 1.369 . S
C298 C302 1.531 . S
C299 C298 1.369 . S
C299 C300 1.410 . S
C299 C307 1.503 1_655 S
C300 C299 1.410 . S
C300 C301 1.392 . S
C300 C303 1.511 . S
C301 C297 1.376 . S
C301 C300 1.392 . S
C301 H313 0.929 . S
C302 C298 1.531 . S
C302 H314 0.960 . S
C302 H315 0.962 . S
C302 H316 0.960 . S
C303 C300 1.511 . S
C303 H317 0.961 1_554 S
C303 H318 0.961 1_654 S
C303 H319 0.961 1_655 S
C304 C305 1.370 . S
C304 C306 1.363 . S
C304 H320 0.931 1_554 S
C305 C304 1.370 . S
C305 C309 1.408 . S
C306 C304 1.363 . S
C306 C307 1.370 . S
C306 C310 1.524 1_554 S
C307 C299 1.503 1_455 S
C307 C306 1.370 . S
C307 C308 1.403 . S
C308 C307 1.403 . S
C308 C309 1.404 . S
C308 C311 1.539 . S
C309 C305 1.408 . S
C309 C308 1.404 . S
C309 H321 0.930 . S
C310 C306 1.524 1_556 S
C310 H322 0.956 1_456 S
C310 H323 0.961 1_455 S
C310 H324 0.961 . S
C311 C308 1.539 . S
C311 H325 0.958 . S
C311 H326 0.961 . S
C311 H327 0.960 . S
H312 C296 0.931 . S
H313 C301 0.929 . S
H314 C302 0.960 . S
H315 C302 0.962 . S
H316 C302 0.960 . S
H317 C303 0.961 1_556 S
H318 C303 0.961 1_456 S
H319 C303 0.961 1_455 S
H320 C304 0.931 1_556 S
H321 C309 0.930 . S
H322 C310 0.956 1_654 S
H323 C310 0.961 1_655 S
H324 C310 0.961 . S
H325 C311 0.958 . S
H326 C311 0.961 . S
H327 C311 0.960 . S
C328 C329 1.391 1_455 S
C328 C330 1.394 . S
C328 H344 0.931 . S
C329 C328 1.391 1_655 S
C329 C333 1.376 . S
C330 C328 1.394 . S
C330 C331 1.369 1_455 S
C330 C334 1.531 . S
C331 C330 1.369 1_655 S
C331 C332 1.410 . S
C331 C339 1.494 1_655 S
C332 C331 1.410 . S
C332 C333 1.392 . S
C332 C335 1.511 . S
C333 C329 1.376 . S
C333 C332 1.392 . S
C333 H345 0.929 . S
C334 C330 1.531 . S
C334 H346 0.960 . S
C334 H347 0.962 . S
C334 H348 0.960 . S
C335 C332 1.511 . S
C335 H349 0.961 . S
C335 H350 0.961 . S
C335 H351 0.961 . S
C336 C337 1.370 . S
C336 C338 1.363 . S
C336 H352 0.931 . S
C337 C336 1.370 . S
C337 C341 1.408 1_455 S
C338 C336 1.363 . S
C338 C339 1.394 . S
C338 C342 1.524 . S
C339 C331 1.494 1_455 S
C339 C338 1.394 . S
C339 C340 1.389 1_455 S
C340 C339 1.389 1_655 S
C340 C341 1.404 . S
C340 C343 1.539 . S
C341 C337 1.408 1_655 S
C341 C340 1.404 . S
C341 H353 0.930 . S
C342 C338 1.524 . S
C342 H354 0.956 . S
C342 H355 0.961 . S
C342 H356 0.961 . S
C343 C340 1.539 . S
C343 H357 0.958 . S
C343 H358 0.961 . S
C343 H359 0.960 . S
H344 C328 0.931 . S
H345 C333 0.929 . S
H346 C334 0.960 . S
H347 C334 0.962 . S
H348 C334 0.960 . S
H349 C335 0.961 . S
H350 C335 0.961 . S
H351 C335 0.961 . S
H352 C336 0.931 . S
H353 C341 0.930 . S
H354 C342 0.956 . S
H355 C342 0.961 . S
H356 C342 0.961 . S
H357 C343 0.958 . S
H358 C343 0.961 . S
H359 C343 0.960 . S
C360 C361 1.391 . S
C360 C362 1.394 . S
C360 H376 0.931 . S
C361 C360 1.391 . S
C361 C365 1.376 . S
C362 C360 1.394 . S
C362 C363 1.369 . S
C362 C366 1.531 1_565 S
C363 C362 1.369 . S
C363 C364 1.410 . S
C363 C371 1.508 . S
C364 C363 1.410 . S
C364 C365 1.392 . S
C364 C367 1.511 . S
C365 C361 1.376 . S
C365 C364 1.392 . S
C365 H377 0.929 . S
C366 C362 1.531 1_545 S
C366 H378 0.960 . S
C366 H379 0.962 . S
C366 H380 0.960 . S
C367 C364 1.511 . S
C367 H381 0.961 . S
C367 H382 0.961 . S
C367 H383 0.961 . S
C368 C369 1.370 . S
C368 C370 1.363 . S
C368 H384 0.931 . S
C369 C368 1.370 . S
C369 C373 1.408 1_545 S
C370 C368 1.363 . S
C370 C371 1.355 1_545 S
C370 C374 1.524 . S
C371 C363 1.508 . S
C371 C370 1.355 1_565 S
C371 C372 1.413 . S
C372 C371 1.413 . S
C372 C373 1.404 . S
C372 C375 1.539 . S
C373 C369 1.408 1_565 S
C373 C372 1.404 . S
C373 H385 0.930 . S
C374 C370 1.524 . S
C374 H386 0.956 . S
C374 H387 0.961 . S
C374 H388 0.961 . S
C375 C372 1.539 . S
C375 H389 0.958 . S
C375 H390 0.961 . S
C375 H391 0.960 . S
H376 C360 0.931 . S
H377 C365 0.929 . S
H378 C366 0.960 . S
H379 C366 0.962 . S
H380 C366 0.960 . S
H381 C367 0.961 . S
H382 C367 0.961 . S
H383 C367 0.961 . S
H384 C368 0.931 . S
H385 C373 0.930 . S
H386 C374 0.956 . S
H387 C374 0.961 . S
H388 C374 0.961 . S
H389 C375 0.958 . S
H390 C375 0.961 . S
H391 C375 0.960 . S
C392 C393 1.391 . S
C392 C394 1.394 . S
C392 H408 0.931 . S
C393 C392 1.391 . S
C393 C397 1.376 . S
C394 C392 1.394 . S
C394 C395 1.369 . S
C394 C398 1.531 . S
C395 C394 1.369 . S
C395 C396 1.410 . S
C395 C403 1.503 . S
C396 C395 1.410 . S
C396 C397 1.392 . S
C396 C399 1.511 1_554 S
C397 C393 1.376 . S
C397 C396 1.392 . S
C397 H409 0.929 . S
C398 C394 1.531 . S
C398 H410 0.960 . S
C398 H411 0.962 . S
C398 H412 0.960 . S
C399 C396 1.511 1_556 S
C399 H413 0.956 1_556 S
C399 H414 0.961 1_556 S
C399 H415 0.961 . S
C400 C401 1.370 . S
C400 C402 1.363 . S
C400 H416 0.931 . S
C401 C400 1.370 . S
C401 C405 1.408 1_554 S
C402 C400 1.363 . S
C402 C403 1.370 . S
C402 C406 1.524 . S
C403 C395 1.503 . S
C403 C402 1.370 . S
C403 C404 1.403 1_554 S
C404 C403 1.403 1_556 S
C404 C405 1.404 . S
C404 C407 1.539 . S
C405 C401 1.408 1_556 S
C405 C404 1.404 . S
C405 H417 0.930 . S
C406 C402 1.524 . S
C406 H418 0.956 . S
C406 H419 0.961 . S
C406 H420 0.961 . S
C407 C404 1.539 . S
C407 H421 0.958 . S
C407 H422 0.961 . S
C407 H423 0.960 . S
H408 C392 0.931 . S
H409 C397 0.929 . S
H410 C398 0.960 . S
H411 C398 0.962 . S
H412 C398 0.960 . S
H413 C399 0.956 1_554 S
H414 C399 0.961 1_554 S
H415 C399 0.961 . S
H416 C400 0.931 . S
H417 C405 0.930 . S
H418 C406 0.956 . S
H419 C406 0.961 . S
H420 C406 0.961 . S
H421 C407 0.958 . S
H422 C407 0.961 . S
H423 C407 0.960 . S
C424 C425 1.391 . S
C424 C426 1.394 . S
C424 H440 0.931 . S
C425 C424 1.391 . S
C425 C429 1.376 . S
C426 C424 1.394 . S
C426 C427 1.369 . S
C426 C430 1.531 . S
C427 C426 1.369 . S
C427 C428 1.410 . S
C427 C435 1.503 . S
C428 C427 1.410 . S
C428 C429 1.392 . S
C428 C431 1.511 . S
C429 C425 1.376 . S
C429 C428 1.392 . S
C429 H441 0.929 . S
C430 C426 1.531 . S
C430 H442 0.960 1_554 S
C430 H443 0.962 . S
C430 H444 0.960 1_554 S
C431 C428 1.511 . S
C431 H445 0.961 . S
C431 H446 0.961 . S
C431 H447 0.961 . S
C432 C433 1.370 . S
C432 C434 1.363 . S
C432 H448 0.931 . S
C433 C432 1.370 . S
C433 C437 1.408 1_554 S
C434 C432 1.363 . S
C434 C435 1.370 . S
C434 C438 1.524 . S
C435 C427 1.503 . S
C435 C434 1.370 . S
C435 C436 1.403 1_554 S
C436 C435 1.403 1_556 S
C436 C437 1.404 . S
C436 C439 1.539 . S
C437 C433 1.408 1_556 S
C437 C436 1.404 . S
C437 H449 0.930 . S
C438 C434 1.524 . S
C438 H450 0.956 . S
C438 H451 0.961 . S
C438 H452 0.961 . S
C439 C436 1.539 . S
C439 H453 0.958 . S
C439 H454 0.961 . S
C439 H455 0.960 . S
H440 C424 0.931 . S
H441 C429 0.929 . S
H442 C430 0.960 1_556 S
H443 C430 0.962 . S
H444 C430 0.960 1_556 S
H445 C431 0.961 . S
H446 C431 0.961 . S
H447 C431 0.961 . S
H448 C432 0.931 . S
H449 C437 0.930 . S
H450 C438 0.956 . S
H451 C438 0.961 . S
H452 C438 0.961 . S
H453 C439 0.958 . S
H454 C439 0.961 . S
H455 C439 0.960 . S
C456 C457 1.391 . S
C456 C458 1.394 . S
C456 H472 0.931 . S
C457 C456 1.391 . S
C457 C461 1.376 . S
C458 C456 1.394 . S
C458 C459 1.369 . S
C458 C462 1.531 . S
C459 C458 1.369 . S
C459 C460 1.410 . S
C459 C467 1.503 . S
C460 C459 1.410 . S
C460 C461 1.392 . S
C460 C463 1.511 . S
C461 C457 1.376 . S
C461 C460 1.392 . S
C461 H473 0.929 . S
C462 C458 1.531 . S
C462 H474 0.960 . S
C462 H475 0.962 . S
C462 H476 0.960 . S
C463 C460 1.511 . S
C463 H477 0.963 . S
C463 H478 0.961 . S
C463 H479 0.961 . S
C464 C465 1.357 1_556 S
C464 C466 1.362 1_556 S
C464 H480 0.946 . S
C465 C464 1.357 1_554 S
C465 C469 1.408 . S
C466 C464 1.362 1_554 S
C466 C467 1.370 . S
C466 C470 1.524 1_554 S
C467 C459 1.503 . S
C467 C466 1.370 . S
C467 C468 1.403 . S
C468 C467 1.403 . S
C468 C469 1.404 . S
C468 C471 1.539 . S
C469 C465 1.408 . S
C469 C468 1.404 . S
C469 H481 0.930 . S
C470 C466 1.524 1_556 S
C470 H482 0.956 . S
C470 H483 0.961 . S
C470 H484 0.961 . S
C471 C468 1.539 . S
C471 H485 0.958 . S
C471 H486 0.961 . S
C471 H487 0.960 . S
H472 C456 0.931 . S
H473 C461 0.929 . S
H474 C462 0.960 . S
H475 C462 0.962 . S
H476 C462 0.960 . S
H477 C463 0.963 . S
H478 C463 0.961 . S
H479 C463 0.961 . S
H480 C464 0.946 . S
H481 C469 0.930 . S
H482 C470 0.956 . S
H483 C470 0.961 . S
H484 C470 0.961 . S
H485 C471 0.958 . S
H486 C471 0.961 . S
H487 C471 0.960 . S
C488 C489 1.391 . S
C488 C490 1.394 . S
C488 H504 0.931 . S
C489 C488 1.391 . S
C489 C493 1.376 . S
C490 C488 1.394 . S
C490 C491 1.369 . S
C490 C494 1.531 . S
C491 C490 1.369 . S
C491 C492 1.410 . S
C491 C499 1.503 . S
C492 C491 1.410 . S
C492 C493 1.392 . S
C492 C495 1.511 . S
C493 C489 1.376 . S
C493 C492 1.392 . S
C493 H505 0.929 . S
C494 C490 1.531 . S
C494 H506 0.960 . S
C494 H507 0.962 . S
C494 H508 0.960 . S
C495 C492 1.511 . S
C495 H509 0.961 . S
C495 H510 0.961 . S
C495 H511 0.961 1_554 S
C496 C497 1.370 . S
C496 C498 1.363 . S
C496 H512 0.931 . S
C497 C496 1.370 . S
C497 C501 1.408 1_554 S
C498 C496 1.363 . S
C498 C499 1.370 . S
C498 C502 1.524 . S
C499 C491 1.503 . S
C499 C498 1.370 . S
C499 C500 1.403 1_554 S
C500 C499 1.403 1_556 S
C500 C501 1.404 . S
C500 C503 1.539 . S
C501 C497 1.408 1_556 S
C501 C500 1.404 . S
C501 H513 0.930 . S
C502 C498 1.524 . S
C502 H514 0.956 . S
C502 H515 0.961 . S
C502 H516 0.961 . S
C503 C500 1.539 . S
C503 H517 0.958 . S
C503 H518 0.961 . S
C503 H519 0.960 . S
H504 C488 0.931 . S
H505 C493 0.929 . S
H506 C494 0.960 . S
H507 C494 0.962 . S
H508 C494 0.960 . S
H509 C495 0.961 . S
H510 C495 0.961 . S
H511 C495 0.961 1_556 S
H512 C496 0.931 . S
H513 C501 0.930 . S
H514 C502 0.956 . S
H515 C502 0.961 . S
H516 C502 0.961 . S
H517 C503 0.958 . S
H518 C503 0.961 . S
H519 C503 0.960 . S
C520 C521 1.391 . S
C520 C522 1.394 . S
C520 H536 0.931 . S
C521 C520 1.391 . S
C521 C525 1.376 . S
C522 C520 1.394 . S
C522 C523 1.369 . S
C522 C526 1.531 . S
C523 C522 1.369 . S
C523 C524 1.410 . S
C523 C531 1.503 . S
C524 C523 1.410 . S
C524 C525 1.392 . S
C524 C527 1.511 . S
C525 C521 1.376 . S
C525 C524 1.392 . S
C525 H537 0.929 1_545 S
C526 C522 1.531 . S
C526 H538 0.960 . S
C526 H539 0.962 . S
C526 H540 0.960 . S
C527 C524 1.511 . S
C527 H541 0.961 . S
C527 H542 0.961 . S
C527 H543 0.961 . S
C528 C529 1.370 . S
C528 C530 1.363 . S
C528 H544 0.931 . S
C529 C528 1.370 . S
C529 C533 1.408 . S
C530 C528 1.363 . S
C530 C531 1.370 . S
C530 C534 1.524 . S
C531 C523 1.503 . S
C531 C530 1.370 . S
C531 C532 1.403 . S
C532 C531 1.403 . S
C532 C533 1.404 . S
C532 C535 1.539 . S
C533 C529 1.408 . S
C533 C532 1.404 . S
C533 H545 0.930 . S
C534 C530 1.524 . S
C534 H546 0.956 . S
C534 H547 0.961 . S
C534 H548 0.961 . S
C535 C532 1.539 . S
C535 H549 0.958 . S
C535 H550 0.961 . S
C535 H551 0.960 . S
H536 C520 0.931 . S
H537 C525 0.929 1_565 S
H538 C526 0.960 . S
H539 C526 0.962 . S
H540 C526 0.960 . S
H541 C527 0.961 . S
H542 C527 0.961 . S
H543 C527 0.961 . S
H544 C528 0.931 . S
H545 C533 0.930 . S
H546 C534 0.956 . S
H547 C534 0.961 . S
H548 C534 0.961 . S
H549 C535 0.958 . S
H550 C535 0.961 . S
H551 C535 0.960 . S
C552 C553 1.391 . S
C552 C554 1.394 . S
C552 H568 0.931 1_655 S
C553 C552 1.391 . S
C553 C557 1.376 . S
C554 C552 1.394 . S
C554 C555 1.369 . S
C554 C558 1.531 . S
C555 C554 1.369 . S
C555 C556 1.410 . S
C555 C563 1.503 . S
C556 C555 1.410 . S
C556 C557 1.392 . S
C556 C559 1.511 . S
C557 C553 1.376 . S
C557 C556 1.392 . S
C557 H569 0.929 . S
C558 C554 1.531 . S
C558 H570 0.960 . S
C558 H571 0.962 . S
C558 H572 0.960 . S
C559 C556 1.511 . S
C559 H573 0.961 . S
C559 H574 0.961 . S
C559 H575 0.961 . S
C560 C561 1.370 . S
C560 C562 1.363 . S
C560 H576 0.931 . S
C561 C560 1.370 . S
C561 C565 1.408 . S
C562 C560 1.363 . S
C562 C563 1.370 . S
C562 C566 1.524 . S
C563 C555 1.503 . S
C563 C562 1.370 . S
C563 C564 1.403 . S
C564 C563 1.403 . S
C564 C565 1.404 . S
C564 C567 1.539 . S
C565 C561 1.408 . S
C565 C564 1.404 . S
C565 H577 0.930 . S
C566 C562 1.524 . S
C566 H578 0.956 . S
C566 H579 0.961 . S
C566 H580 0.961 . S
C567 C564 1.539 . S
C567 H581 0.958 . S
C567 H582 0.961 . S
C567 H583 0.960 . S
H568 C552 0.931 1_455 S
H569 C557 0.929 . S
H570 C558 0.960 . S
H571 C558 0.962 . S
H572 C558 0.960 . S
H573 C559 0.961 . S
H574 C559 0.961 . S
H575 C559 0.961 . S
H576 C560 0.931 . S
H577 C565 0.930 . S
H578 C566 0.956 . S
H579 C566 0.961 . S
H580 C566 0.961 . S
H581 C567 0.958 . S
H582 C567 0.961 . S
H583 C567 0.960 . S
C584 C585 1.391 . S
C584 C586 1.394 . S
C584 H600 0.931 1_565 S
C585 C584 1.391 . S
C585 C589 1.376 . S
C586 C584 1.394 . S
C586 C587 1.369 . S
C586 C590 1.531 . S
C587 C586 1.369 . S
C587 C588 1.410 . S
C587 C595 1.503 . S
C588 C587 1.410 . S
C588 C589 1.392 . S
C588 C591 1.511 . S
C589 C585 1.376 . S
C589 C588 1.392 . S
C589 H601 0.929 . S
C590 C586 1.531 . S
C590 H602 0.960 . S
C590 H603 0.962 . S
C590 H604 0.960 . S
C591 C588 1.511 . S
C591 H605 0.961 . S
C591 H606 0.961 . S
C591 H607 0.961 . S
C592 C593 1.370 . S
C592 C594 1.363 . S
C592 H608 0.931 . S
C593 C592 1.370 . S
C593 C597 1.408 . S
C594 C592 1.363 . S
C594 C595 1.370 . S
C594 C598 1.524 . S
C595 C587 1.503 . S
C595 C594 1.370 . S
C595 C596 1.403 . S
C596 C595 1.403 . S
C596 C597 1.404 . S
C596 C599 1.539 . S
C597 C593 1.408 . S
C597 C596 1.404 . S
C597 H609 0.930 . S
C598 C594 1.524 . S
C598 H610 0.956 . S
C598 H611 0.961 . S
C598 H612 0.961 . S
C599 C596 1.539 . S
C599 H613 0.958 . S
C599 H614 0.961 . S
C599 H615 0.960 . S
H600 C584 0.931 1_545 S
H601 C589 0.929 . S
H602 C590 0.960 . S
H603 C590 0.962 . S
H604 C590 0.960 . S
H605 C591 0.961 . S
H606 C591 0.961 . S
H607 C591 0.961 . S
H608 C592 0.931 . S
H609 C597 0.930 . S
H610 C598 0.956 . S
H611 C598 0.961 . S
H612 C598 0.961 . S
H613 C599 0.958 . S
H614 C599 0.961 . S
H615 C599 0.960 . S
C616 C617 1.391 . S
C616 C618 1.394 . S
C616 H632 0.931 1_455 S
C617 C616 1.391 . S
C617 C621 1.376 . S
C618 C616 1.394 . S
C618 C619 1.369 . S
C618 C622 1.531 . S
C619 C618 1.369 . S
C619 C620 1.410 . S
C619 C627 1.503 . S
C620 C619 1.410 . S
C620 C621 1.392 . S
C620 C623 1.511 . S
C621 C617 1.376 . S
C621 C620 1.392 . S
C621 H633 0.929 . S
C622 C618 1.531 . S
C622 H634 0.960 . S
C622 H635 0.962 . S
C622 H636 0.960 . S
C623 C620 1.511 . S
C623 H637 0.961 . S
C623 H638 0.961 . S
C623 H639 0.961 . S
C624 C625 1.370 . S
C624 C626 1.363 . S
C624 H640 0.931 . S
C625 C624 1.370 . S
C625 C629 1.408 . S
C626 C624 1.363 . S
C626 C627 1.370 . S
C626 C630 1.524 . S
C627 C619 1.503 . S
C627 C626 1.370 . S
C627 C628 1.403 . S
C628 C627 1.403 . S
C628 C629 1.404 . S
C628 C631 1.539 . S
C629 C625 1.408 . S
C629 C628 1.404 . S
C629 H641 0.930 . S
C630 C626 1.524 . S
C630 H642 0.956 . S
C630 H643 0.961 . S
C630 H644 0.961 . S
C631 C628 1.539 . S
C631 H645 0.958 . S
C631 H646 0.961 . S
C631 H647 0.960 . S
H632 C616 0.931 1_655 S
H633 C621 0.929 . S
H634 C622 0.960 . S
H635 C622 0.962 . S
H636 C622 0.960 . S
H637 C623 0.961 . S
H638 C623 0.961 . S
H639 C623 0.961 . S
H640 C624 0.931 . S
H641 C629 0.930 . S
H642 C630 0.956 . S
H643 C630 0.961 . S
H644 C630 0.961 . S
H645 C631 0.958 . S
H646 C631 0.961 . S
H647 C631 0.960 . S
C648 C649 1.391 . S
C648 C650 1.394 . S
C648 H664 0.931 . S
C649 C648 1.391 . S
C649 C653 1.376 . S
C650 C648 1.394 . S
C650 C651 1.369 . S
C650 C654 1.531 . S
C651 C650 1.369 . S
C651 C652 1.410 . S
C651 C659 1.503 . S
C652 C651 1.410 . S
C652 C653 1.392 . S
C652 C655 1.511 . S
C653 C649 1.376 . S
C653 C652 1.392 . S
C653 H665 0.929 . S
C654 C650 1.531 . S
C654 H666 0.960 . S
C654 H667 0.962 . S
C654 H668 0.960 . S
C655 C652 1.511 . S
C655 H669 0.961 . S
C655 H670 0.961 . S
C655 H671 0.961 . S
C656 C657 1.370 . S
C656 C658 1.363 . S
C656 H672 0.931 . S
C657 C656 1.370 . S
C657 C661 1.408 . S
C658 C656 1.363 . S
C658 C659 1.370 . S
C658 C662 1.524 . S
C659 C651 1.503 . S
C659 C658 1.370 . S
C659 C660 1.403 . S
C660 C659 1.403 . S
C660 C661 1.404 . S
C660 C663 1.539 . S
C661 C657 1.408 . S
C661 C660 1.404 . S
C661 H673 0.930 . S
C662 C658 1.524 . S
C662 H674 0.956 . S
C662 H675 0.961 . S
C662 H676 0.961 . S
C663 C660 1.539 . S
C663 H677 0.958 . S
C663 H678 0.961 . S
C663 H679 0.960 . S
H664 C648 0.931 . S
H665 C653 0.929 . S
H666 C654 0.960 . S
H667 C654 0.962 . S
H668 C654 0.960 . S
H669 C655 0.961 . S
H670 C655 0.961 . S
H671 C655 0.961 . S
H672 C656 0.931 . S
H673 C661 0.930 . S
H674 C662 0.956 . S
H675 C662 0.961 . S
H676 C662 0.961 . S
H677 C663 0.958 . S
H678 C663 0.961 . S
H679 C663 0.960 . S
C680 C681 1.391 . S
C680 C682 1.394 . S
C680 H696 0.931 . S
C681 C680 1.391 . S
C681 C685 1.376 . S
C682 C680 1.394 . S
C682 C683 1.369 . S
C682 C686 1.531 . S
C683 C682 1.369 . S
C683 C684 1.410 . S
C683 C691 1.503 . S
C684 C683 1.410 . S
C684 C685 1.392 . S
C684 C687 1.511 . S
C685 C681 1.376 . S
C685 C684 1.392 . S
C685 H697 0.929 . S
C686 C682 1.531 . S
C686 H698 0.960 . S
C686 H699 0.962 . S
C686 H700 0.960 . S
C687 C684 1.511 . S
C687 H701 0.961 . S
C687 H702 0.961 . S
C687 H703 0.961 . S
C688 C689 1.370 . S
C688 C690 1.363 . S
C688 H704 0.931 . S
C689 C688 1.370 . S
C689 C693 1.408 . S
C690 C688 1.363 . S
C690 C691 1.370 . S
C690 C694 1.524 . S
C691 C683 1.503 . S
C691 C690 1.370 . S
C691 C692 1.403 . S
C692 C691 1.403 . S
C692 C693 1.404 . S
C692 C695 1.539 . S
C693 C689 1.408 . S
C693 C692 1.404 . S
C693 H705 0.930 . S
C694 C690 1.524 . S
C694 H706 0.956 . S
C694 H707 0.961 . S
C694 H708 0.961 . S
C695 C692 1.539 . S
C695 H709 0.958 . S
C695 H710 0.961 . S
C695 H711 0.960 . S
H696 C680 0.931 . S
H697 C685 0.929 . S
H698 C686 0.960 . S
H699 C686 0.962 . S
H700 C686 0.960 . S
H701 C687 0.961 . S
H702 C687 0.961 . S
H703 C687 0.961 . S
H704 C688 0.931 . S
H705 C693 0.930 . S
H706 C694 0.956 . S
H707 C694 0.961 . S
H708 C694 0.961 . S
H709 C695 0.958 . S
H710 C695 0.961 . S
H711 C695 0.960 . S
C712 C713 1.391 . S
C712 C714 1.394 . S
C712 H728 0.931 . S
C713 C712 1.391 . S
C713 C717 1.376 . S
C714 C712 1.394 . S
C714 C715 1.369 . S
C714 C718 1.531 . S
C715 C714 1.369 . S
C715 C716 1.410 . S
C715 C723 1.503 . S
C716 C715 1.410 . S
C716 C717 1.392 . S
C716 C719 1.511 . S
C717 C713 1.376 . S
C717 C716 1.392 . S
C717 H729 0.929 . S
C718 C714 1.531 . S
C718 H730 0.960 . S
C718 H731 0.962 . S
C718 H732 0.960 . S
C719 C716 1.511 . S
C719 H733 0.961 . S
C719 H734 0.961 . S
C719 H735 0.961 . S
C720 C721 1.370 . S
C720 C722 1.363 . S
C720 H736 0.931 . S
C721 C720 1.370 . S
C721 C725 1.408 . S
C722 C720 1.363 . S
C722 C723 1.370 . S
C722 C726 1.524 . S
C723 C715 1.503 . S
C723 C722 1.370 . S
C723 C724 1.403 . S
C724 C723 1.403 . S
C724 C725 1.404 . S
C724 C727 1.539 . S
C725 C721 1.408 . S
C725 C724 1.404 . S
C725 H737 0.930 . S
C726 C722 1.524 . S
C726 H738 0.956 . S
C726 H739 0.961 . S
C726 H740 0.961 . S
C727 C724 1.539 . S
C727 H741 0.958 . S
C727 H742 0.961 . S
C727 H743 0.960 . S
H728 C712 0.931 . S
H729 C717 0.929 . S
H730 C718 0.960 . S
H731 C718 0.962 . S
H732 C718 0.960 . S
H733 C719 0.961 . S
H734 C719 0.961 . S
H735 C719 0.961 . S
H736 C720 0.931 . S
H737 C725 0.930 . S
H738 C726 0.956 . S
H739 C726 0.961 . S
H740 C726 0.961 . S
H741 C727 0.958 . S
H742 C727 0.961 . S
H743 C727 0.960 . S
C744 C745 1.391 . S
C744 C746 1.394 . S
C744 H760 0.931 . S
C745 C744 1.391 . S
C745 C749 1.376 . S
C746 C744 1.394 . S
C746 C747 1.369 . S
C746 C750 1.531 . S
C747 C746 1.369 . S
C747 C748 1.410 . S
C747 C755 1.503 . S
C748 C747 1.410 . S
C748 C749 1.392 . S
C748 C751 1.511 . S
C749 C745 1.376 . S
C749 C748 1.392 . S
C749 H761 0.929 . S
C750 C746 1.531 . S
C750 H762 0.960 . S
C750 H763 0.962 . S
C750 H764 0.960 . S
C751 C748 1.511 . S
C751 H765 0.961 . S
C751 H766 0.961 . S
C751 H767 0.961 . S
C752 C753 1.370 . S
C752 C754 1.363 . S
C752 H768 0.931 . S
C753 C752 1.370 . S
C753 C757 1.408 . S
C754 C752 1.363 . S
C754 C755 1.370 . S
C754 C758 1.524 . S
C755 C747 1.503 . S
C755 C754 1.370 . S
C755 C756 1.403 . S
C756 C755 1.403 . S
C756 C757 1.404 . S
C756 C759 1.539 . S
C757 C753 1.408 . S
C757 C756 1.404 . S
C757 H769 0.930 . S
C758 C754 1.524 . S
C758 H770 0.956 . S
C758 H771 0.961 . S
C758 H772 0.961 . S
C759 C756 1.539 . S
C759 H773 0.958 . S
C759 H774 0.961 . S
C759 H775 0.960 . S
H760 C744 0.931 . S
H761 C749 0.929 . S
H762 C750 0.960 . S
H763 C750 0.962 . S
H764 C750 0.960 . S
H765 C751 0.961 . S
H766 C751 0.961 . S
H767 C751 0.961 . S
H768 C752 0.931 . S
H769 C757 0.930 . S
H770 C758 0.956 . S
H771 C758 0.961 . S
H772 C758 0.961 . S
H773 C759 0.958 . S
H774 C759 0.961 . S
H775 C759 0.960 . S
C776 C777 1.391 . S
C776 C778 1.394 . S
C776 H792 0.931 . S
C777 C776 1.391 . S
C777 C781 1.376 . S
C778 C776 1.394 . S
C778 C779 1.369 . S
C778 C782 1.531 . S
C779 C778 1.369 . S
C779 C780 1.410 . S
C779 C787 1.503 . S
C780 C779 1.410 . S
C780 C781 1.392 . S
C780 C783 1.511 . S
C781 C777 1.376 . S
C781 C780 1.392 . S
C781 H793 0.929 . S
C782 C778 1.531 . S
C782 H794 0.960 . S
C782 H795 0.962 . S
C782 H796 0.960 . S
C783 C780 1.511 . S
C783 H797 0.961 . S
C783 H798 0.961 . S
C783 H799 0.961 . S
C784 C785 1.370 . S
C784 C786 1.363 . S
C784 H800 0.931 . S
C785 C784 1.370 . S
C785 C789 1.408 . S
C786 C784 1.363 . S
C786 C787 1.370 . S
C786 C790 1.524 . S
C787 C779 1.503 . S
C787 C786 1.370 . S
C787 C788 1.403 . S
C788 C787 1.403 . S
C788 C789 1.404 . S
C788 C791 1.539 . S
C789 C785 1.408 . S
C789 C788 1.404 . S
C789 H801 0.930 . S
C790 C786 1.524 . S
C790 H802 0.956 . S
C790 H803 0.961 . S
C790 H804 0.961 . S
C791 C788 1.539 . S
C791 H805 0.958 . S
C791 H806 0.961 . S
C791 H807 0.960 . S
H792 C776 0.931 . S
H793 C781 0.929 . S
H794 C782 0.960 . S
H795 C782 0.962 . S
H796 C782 0.960 . S
H797 C783 0.961 . S
H798 C783 0.961 . S
H799 C783 0.961 . S
H800 C784 0.931 . S
H801 C789 0.930 . S
H802 C790 0.956 . S
H803 C790 0.961 . S
H804 C790 0.961 . S
H805 C791 0.958 . S
H806 C791 0.961 . S
H807 C791 0.960 . S
C808 C809 1.391 . S
C808 C810 1.394 . S
C808 H824 0.931 . S
C809 C808 1.391 . S
C809 C813 1.376 . S
C810 C808 1.394 . S
C810 C811 1.369 . S
C810 C814 1.531 . S
C811 C810 1.369 . S
C811 C812 1.410 . S
C811 C819 1.503 . S
C812 C811 1.410 . S
C812 C813 1.392 . S
C812 C815 1.511 . S
C813 C809 1.376 . S
C813 C812 1.392 . S
C813 H825 0.929 . S
C814 C810 1.531 . S
C814 H826 0.960 . S
C814 H827 0.962 . S
C814 H828 0.960 . S
C815 C812 1.511 . S
C815 H829 0.961 . S
C815 H830 0.961 . S
C815 H831 0.961 . S
C816 C817 1.370 . S
C816 C818 1.363 . S
C816 H832 0.931 . S
C817 C816 1.370 . S
C817 C821 1.408 . S
C818 C816 1.363 . S
C818 C819 1.370 . S
C818 C822 1.524 . S
C819 C811 1.503 . S
C819 C818 1.370 . S
C819 C820 1.403 . S
C820 C819 1.403 . S
C820 C821 1.404 . S
C820 C823 1.539 . S
C821 C817 1.408 . S
C821 C820 1.404 . S
C821 H833 0.930 . S
C822 C818 1.524 . S
C822 H834 0.956 . S
C822 H835 0.961 . S
C822 H836 0.961 . S
C823 C820 1.539 . S
C823 H837 0.958 . S
C823 H838 0.961 . S
C823 H839 0.960 . S
H824 C808 0.931 . S
H825 C813 0.929 . S
H826 C814 0.960 . S
H827 C814 0.962 . S
H828 C814 0.960 . S
H829 C815 0.961 . S
H830 C815 0.961 . S
H831 C815 0.961 . S
H832 C816 0.931 . S
H833 C821 0.930 . S
H834 C822 0.956 . S
H835 C822 0.961 . S
H836 C822 0.961 . S
H837 C823 0.958 . S
H838 C823 0.961 . S
H839 C823 0.960 . S
C840 C841 1.391 . S
C840 C842 1.394 . S
C840 H856 0.931 . S
C841 C840 1.391 . S
C841 C845 1.376 . S
C842 C840 1.394 . S
C842 C843 1.369 . S
C842 C846 1.531 . S
C843 C842 1.369 . S
C843 C844 1.410 . S
C843 C851 1.503 . S
C844 C843 1.410 . S
C844 C845 1.392 . S
C844 C847 1.511 . S
C845 C841 1.376 . S
C845 C844 1.392 . S
C845 H857 0.929 . S
C846 C842 1.531 . S
C846 H858 0.960 . S
C846 H859 0.962 . S
C846 H860 0.960 . S
C847 C844 1.511 . S
C847 H861 0.961 . S
C847 H862 0.961 . S
C847 H863 0.961 . S
C848 C849 1.370 . S
C848 C850 1.363 . S
C848 H864 0.931 . S
C849 C848 1.370 . S
C849 C853 1.408 . S
C850 C848 1.363 . S
C850 C851 1.370 . S
C850 C854 1.524 . S
C851 C843 1.503 . S
C851 C850 1.370 . S
C851 C852 1.403 . S
C852 C851 1.403 . S
C852 C853 1.404 . S
C852 C855 1.539 . S
C853 C849 1.408 . S
C853 C852 1.404 . S
C853 H865 0.930 . S
C854 C850 1.524 . S
C854 H866 0.956 . S
C854 H867 0.961 . S
C854 H868 0.961 . S
C855 C852 1.539 . S
C855 H869 0.958 . S
C855 H870 0.961 . S
C855 H871 0.960 . S
H856 C840 0.931 . S
H857 C845 0.929 . S
H858 C846 0.960 . S
H859 C846 0.962 . S
H860 C846 0.960 . S
H861 C847 0.961 . S
H862 C847 0.961 . S
H863 C847 0.961 . S
H864 C848 0.931 . S
H865 C853 0.930 . S
H866 C854 0.956 . S
H867 C854 0.961 . S
H868 C854 0.961 . S
H869 C855 0.958 . S
H870 C855 0.961 . S
H871 C855 0.960 . S
C872 C873 1.391 . S
C872 C874 1.394 . S
C872 H888 0.931 . S
C873 C872 1.391 . S
C873 C877 1.376 . S
C874 C872 1.394 . S
C874 C875 1.369 . S
C874 C878 1.531 . S
C875 C874 1.369 . S
C875 C876 1.410 . S
C875 C883 1.503 . S
C876 C875 1.410 . S
C876 C877 1.392 . S
C876 C879 1.511 . S
C877 C873 1.376 . S
C877 C876 1.392 . S
C877 H889 0.929 . S
C878 C874 1.531 . S
C878 H890 0.960 . S
C878 H891 0.962 . S
C878 H892 0.960 . S
C879 C876 1.511 . S
C879 H893 0.961 . S
C879 H894 0.961 . S
C879 H895 0.961 . S
C880 C881 1.370 . S
C880 C882 1.363 . S
C880 H896 0.931 . S
C881 C880 1.370 . S
C881 C885 1.408 . S
C882 C880 1.363 . S
C882 C883 1.370 . S
C882 C886 1.524 . S
C883 C875 1.503 . S
C883 C882 1.370 . S
C883 C884 1.403 . S
C884 C883 1.403 . S
C884 C885 1.404 . S
C884 C887 1.539 . S
C885 C881 1.408 . S
C885 C884 1.404 . S
C885 H897 0.930 . S
C886 C882 1.524 . S
C886 H898 0.956 . S
C886 H899 0.961 . S
C886 H900 0.961 . S
C887 C884 1.539 . S
C887 H901 0.958 . S
C887 H902 0.961 . S
C887 H903 0.960 . S
H888 C872 0.931 . S
H889 C877 0.929 . S
H890 C878 0.960 . S
H891 C878 0.962 . S
H892 C878 0.960 . S
H893 C879 0.961 . S
H894 C879 0.961 . S
H895 C879 0.961 . S
H896 C880 0.931 . S
H897 C885 0.930 . S
H898 C886 0.956 . S
H899 C886 0.961 . S
H900 C886 0.961 . S
H901 C887 0.958 . S
H902 C887 0.961 . S
H903 C887 0.960 . S
C265 N71 1.531 . S
C273 N5 1.538 . S
C297 N38 1.544 . S
C305 N104 1.535 . S
C329 N137 1.545 . S
C337 N203 1.535 . S
C361 N170 1.547 . S
C369 N236 1.533 . S
C393 C107 1.591 . S
C401 N14 1.536 . S
C425 C8 1.593 . S
C433 N47 1.543 . S
C457 N80 1.545 . S
C465 C41 1.602 . S
C489 N113 1.535 . S
C497 C74 1.598 . S
C521 C173 1.593 1_545 S
C529 N146 1.544 . S
C553 C206 1.599 1_655 S
C561 N179 1.537 . S
C585 C239 1.596 1_565 S
C593 N212 1.527 . S
C617 C140 1.599 1_455 S
C625 N245 1.535 . S
C649 C28 1.362 . S
C657 C259 1.362 . S
C681 C61 1.351 . S
C689 C160 1.366 . S
C713 C193 1.365 . S
C721 C94 1.360 . S
C745 C226 1.363 . S
C753 C127 1.361 . S
C777 C83 1.436 . S
C785 C182 1.447 . S
C809 C215 1.453 . S
C817 C116 1.456 . S
C841 C248 1.445 . S
C849 C17 1.450 . S
C873 C149 1.442 . S
C881 C50 1.451 . S
