# Generated by pormake.
# Topology acs-a, (4)-cn, num edge types: 1
# Building blocks:
#     Node 0, Type 0, BuildingBlock: QUQFOY_clean_sbu_1, # of connection points: 4
#     Node 1, Type 0, BuildingBlock: QUQFOY_clean_sbu_1, # of connection points: 4
#     Node 2, Type 0, BuildingBlock: QUQFOY_clean_sbu_1, # of connection points: 4
#     Node 3, Type 0, BuildingBlock: QUQFOY_clean_sbu_1, # of connection points: 4
#     Node 4, Type 0, BuildingBlock: QUQFOY_clean_sbu_1, # of connection points: 4
#     Node 5, Type 0, BuildingBlock: QUQFOY_clean_sbu_1, # of connection points: 4
#     Node 6, Type 0, BuildingBlock: QUQFOY_clean_sbu_1, # of connection points: 4
#     Node 7, Type 0, BuildingBlock: QUQFOY_clean_sbu_1, # of connection points: 4
#     Node 8, Type 0, BuildingBlock: QUQFOY_clean_sbu_1, # of connection points: 4
#     Node 9, Type 0, BuildingBlock: QUQFOY_clean_sbu_1, # of connection points: 4
#     Node 10, Type 0, BuildingBlock: QUQFOY_clean_sbu_1, # of connection points: 4
#     Node 11, Type 0, BuildingBlock: QUQFOY_clean_sbu_1, # of connection points: 4
#     Edge 12, Type (0, 0), BuildingBlock: UVAHIK_clean_linker_0, # of connection points: 2
#     Edge 13, Type (0, 0), BuildingBlock: UVAHIK_clean_linker_0, # of connection points: 2
#     Edge 14, Type (0, 0), BuildingBlock: UVAHIK_clean_linker_0, # of connection points: 2
#     Edge 15, Type (0, 0), BuildingBlock: UVAHIK_clean_linker_0, # of connection points: 2
#     Edge 16, Type (0, 0), BuildingBlock: UVAHIK_clean_linker_0, # of connection points: 2
#     Edge 17, Type (0, 0), BuildingBlock: UVAHIK_clean_linker_0, # of connection points: 2
#     Edge 18, Type (0, 0), BuildingBlock: UVAHIK_clean_linker_0, # of connection points: 2
#     Edge 19, Type (0, 0), BuildingBlock: UVAHIK_clean_linker_0, # of connection points: 2
#     Edge 20, Type (0, 0), BuildingBlock: UVAHIK_clean_linker_0, # of connection points: 2
#     Edge 21, Type (0, 0), BuildingBlock: UVAHIK_clean_linker_0, # of connection points: 2
#     Edge 22, Type (0, 0), BuildingBlock: UVAHIK_clean_linker_0, # of connection points: 2
#     Edge 23, Type (0, 0), BuildingBlock: UVAHIK_clean_linker_0, # of connection points: 2
#     Edge 24, Type (0, 0), BuildingBlock: UVAHIK_clean_linker_0, # of connection points: 2
#     Edge 25, Type (0, 0), BuildingBlock: UVAHIK_clean_linker_0, # of connection points: 2
#     Edge 26, Type (0, 0), BuildingBlock: UVAHIK_clean_linker_0, # of connection points: 2
#     Edge 27, Type (0, 0), BuildingBlock: UVAHIK_clean_linker_0, # of connection points: 2
#     Edge 28, Type (0, 0), BuildingBlock: UVAHIK_clean_linker_0, # of connection points: 2
#     Edge 29, Type (0, 0), BuildingBlock: UVAHIK_clean_linker_0, # of connection points: 2
#     Edge 30, Type (0, 0), BuildingBlock: UVAHIK_clean_linker_0, # of connection points: 2
#     Edge 31, Type (0, 0), BuildingBlock: UVAHIK_clean_linker_0, # of connection points: 2
#     Edge 32, Type (0, 0), BuildingBlock: UVAHIK_clean_linker_0, # of connection points: 2
#     Edge 33, Type (0, 0), BuildingBlock: UVAHIK_clean_linker_0, # of connection points: 2
#     Edge 34, Type (0, 0), BuildingBlock: UVAHIK_clean_linker_0, # of connection points: 2
#     Edge 35, Type (0, 0), BuildingBlock: UVAHIK_clean_linker_0, # of connection points: 2
# Relax obj value: 0.485
# Max RMSD: 0.257
# Mean RMSD: 0.239
data_MOF--net-acs-a--node1-QUQFOY_clean_sbu_1--edge1-UVAHIK_clean_linker_0
_symmetry_space_group_name_H-M    P1
_symmetry_Int_Tables_number       1
_symmetry_cell_setting            triclinic
loop_
_symmetry_equiv_pos_as_xyz
'x, y, z'
_cell_length_a     60.070186
_cell_length_b     60.094259
_cell_length_c     65.812204
_cell_angle_alpha  90.042142
_cell_angle_beta   90.006359
_cell_angle_gamma 115.78854
loop_
_atom_site_label
_atom_site_type_symbol
_atom_site_fract_x
_atom_site_fract_y
_atom_site_fract_z
_atom_type_partial_charge
O0 O 0.56351 0.15688 0.0982 0.0
Cd1 Cd 0.57497 0.1293 0.09797 0.0
Cd2 Cd 0.56619 0.12775 0.1376 0.0
O3 O 0.5495 0.15017 0.12957 0.0
O4 O 0.57094 0.11735 0.06956 0.0
O5 O 0.54967 0.09421 0.09541 0.0
C6 C 0.55414 0.09661 0.07611 0.0
C7 C 0.54691 0.09775 0.16243 0.0
C8 C 0.55229 0.16145 0.11277 0.0
C9 C 0.61919 0.14527 0.12405 0.0
O10 O 0.6045 0.14348 0.13853 0.0
O11 O 0.61087 0.13878 0.1062 0.0
O12 O 0.5567 0.121 0.16657 0.0
O13 O 0.54752 0.09121 0.14382 0.0
O14 O 0.3664 0.52544 0.58276 0.0
Cd15 Cd 0.40289 0.54085 0.57438 0.0
Cd16 Cd 0.41153 0.54675 0.61605 0.0
O17 O 0.37321 0.5313 0.61573 0.0
O18 O 0.40454 0.53079 0.54597 0.0
O19 O 0.4217 0.52041 0.57188 0.0
C20 C 0.41753 0.51997 0.55257 0.0
C21 C 0.42946 0.53899 0.64516 0.0
C22 C 0.35831 0.52389 0.60079 0.0
C23 C 0.43168 0.5923 0.5888 0.0
O24 O 0.43078 0.58279 0.60618 0.0
O25 O 0.42093 0.57872 0.57373 0.0
O26 O 0.41877 0.55341 0.64542 0.0
O27 O 0.4295 0.52798 0.62834 0.0
O28 O 0.85396 0.42266 0.11836 0.0
Cd29 Cd 0.87138 0.40123 0.12719 0.0
Cd30 Cd 0.86528 0.38963 0.08688 0.0
O31 O 0.8453 0.41003 0.08672 0.0
O32 O 0.87734 0.41135 0.15607 0.0
O33 O 0.90777 0.41672 0.1349 0.0
C34 C 0.90066 0.41933 0.15287 0.0
C35 C 0.89792 0.40238 0.06431 0.0
C36 C 0.84394 0.42299 0.10146 0.0
C37 C 0.84346 0.34717 0.11517 0.0
O38 O 0.84809 0.35374 0.09672 0.0
O39 O 0.85071 0.36325 0.12928 0.0
O40 O 0.87543 0.3898 0.05827 0.0
O41 O 0.90199 0.40688 0.08351 0.0
O42 O 0.42681 0.83138 0.58856 0.0
Cd43 Cd 0.41553 0.85901 0.59212 0.0
Cd44 Cd 0.42687 0.85744 0.63015 0.0
O45 O 0.44504 0.83804 0.61842 0.0
O46 O 0.41846 0.87489 0.56529 0.0
O47 O 0.44191 0.89366 0.59188 0.0
C48 C 0.43636 0.89414 0.57295 0.0
C49 C 0.44638 0.88748 0.65486 0.0
C50 C 0.44052 0.82728 0.60126 0.0
C51 C 0.37332 0.83991 0.62026 0.0
O52 O 0.38884 0.839 0.63296 0.0
O53 O 0.38054 0.84979 0.60298 0.0
O54 O 0.43911 0.86431 0.65851 0.0
O55 O 0.44316 0.89392 0.6368 0.0
O56 O 0.62518 0.4615 0.08117 0.0
Cd57 Cd 0.58712 0.44668 0.08113 0.0
Cd58 Cd 0.59322 0.45343 0.12081 0.0
O59 O 0.63004 0.47258 0.11335 0.0
O60 O 0.57771 0.4498 0.05279 0.0
O61 O 0.56958 0.4683 0.07898 0.0
C62 C 0.56827 0.46391 0.05967 0.0
C63 C 0.57557 0.47006 0.14413 0.0
C64 C 0.63926 0.47195 0.09611 0.0
C65 C 0.56818 0.40107 0.10608 0.0
O66 O 0.57876 0.41529 0.12093 0.0
O67 O 0.5679 0.41001 0.08866 0.0
O68 O 0.59171 0.46252 0.14958 0.0
O69 O 0.56965 0.46879 0.12517 0.0
O70 O 0.14002 0.56879 0.62986 0.0
Cd71 Cd 0.11984 0.58883 0.63409 0.0
Cd72 Cd 0.12409 0.59195 0.59317 0.0
O73 O 0.14205 0.56988 0.5965 0.0
O74 O 0.11243 0.58247 0.66336 0.0
O75 O 0.08304 0.57149 0.64006 0.0
C76 C 0.0893 0.57184 0.65886 0.0
C77 C 0.09214 0.57932 0.56983 0.0
C78 C 0.14699 0.56286 0.61337 0.0
C79 C 0.1471 0.63959 0.61615 0.0
O80 O 0.1438 0.62901 0.59895 0.0
O81 O 0.1383 0.62697 0.63215 0.0
O82 O 0.11491 0.58872 0.56407 0.0
O83 O 0.08742 0.57745 0.58908 0.0
O84 O 0.84167 0.42002 0.40133 0.0
Cd85 Cd 0.86939 0.4108 0.41012 0.0
Cd86 Cd 0.87223 0.4032 0.36975 0.0
O87 O 0.84706 0.41821 0.36833 0.0
O88 O 0.87924 0.42432 0.43782 0.0
O89 O 0.90417 0.43737 0.41113 0.0
C90 C 0.90046 0.4388 0.43033 0.0
C91 C 0.90108 0.41367 0.34341 0.0
C92 C 0.8362 0.42284 0.38318 0.0
C93 C 0.85731 0.35929 0.39815 0.0
O94 O 0.86023 0.36731 0.38002 0.0
O95 O 0.86099 0.37402 0.41293 0.0
O96 O 0.87822 0.39853 0.34082 0.0
O97 O 0.90784 0.42355 0.36113 0.0
O98 O 0.34906 0.863 0.90663 0.0
Cd99 Cd 0.38615 0.87618 0.91275 0.0
Cd100 Cd 0.38909 0.87218 0.87168 0.0
O101 O 0.35096 0.85779 0.87361 0.0
O102 O 0.38999 0.88915 0.94082 0.0
O103 O 0.40874 0.91244 0.9143 0.0
C104 C 0.40492 0.9104 0.93368 0.0
C105 C 0.40895 0.89767 0.84434 0.0
C106 C 0.33836 0.85598 0.88958 0.0
C107 C 0.40875 0.84373 0.89847 0.0
O108 O 0.40589 0.85029 0.88071 0.0
O109 O 0.40139 0.85147 0.9138 0.0
O110 O 0.40971 0.90724 0.86204 0.0
O111 O 0.39628 0.8742 0.84221 0.0
O112 O 0.59163 0.41588 0.35167 0.0
Cd113 Cd 0.5537 0.40251 0.35431 0.0
Cd114 Cd 0.56487 0.41482 0.39187 0.0
O115 O 0.59998 0.43563 0.38091 0.0
O116 O 0.54096 0.40084 0.32623 0.0
O117 O 0.53893 0.42642 0.34961 0.0
C118 C 0.53503 0.41833 0.33115 0.0
C119 C 0.54481 0.432 0.41203 0.0
C120 C 0.60726 0.43066 0.36413 0.0
C121 C 0.54095 0.36096 0.38269 0.0
O122 O 0.55441 0.37748 0.39518 0.0
O123 O 0.53542 0.36721 0.36568 0.0
O124 O 0.56291 0.4282 0.41906 0.0
O125 O 0.53846 0.42656 0.39325 0.0
O126 O 0.14629 0.58125 0.90632 0.0
Cd127 Cd 0.11796 0.59109 0.91127 0.0
Cd128 Cd 0.11467 0.58981 0.87115 0.0
O129 O 0.13785 0.57265 0.87386 0.0
O130 O 0.10477 0.57987 0.93884 0.0
O131 O 0.0837 0.56384 0.91051 0.0
C132 C 0.08503 0.56389 0.93012 0.0
C133 C 0.08514 0.57652 0.84531 0.0
C134 C 0.15006 0.57274 0.88967 0.0
C135 C 0.13148 0.63935 0.89235 0.0
O136 O 0.12948 0.62753 0.87592 0.0
O137 O 0.12584 0.62785 0.90912 0.0
O138 O 0.10831 0.58916 0.84162 0.0
O139 O 0.0784 0.57037 0.86388 0.0
O140 O 0.64222 0.13576 0.41375 0.0
Cd141 Cd 0.60417 0.11921 0.41195 0.0
Cd142 Cd 0.61294 0.123 0.3716 0.0
O143 O 0.64918 0.13595 0.38088 0.0
O144 O 0.59322 0.10927 0.44021 0.0
O145 O 0.58511 0.08242 0.41501 0.0
C146 C 0.58294 0.08672 0.43397 0.0
C147 C 0.59866 0.09332 0.34598 0.0
C148 C 0.65722 0.14057 0.39899 0.0
C149 C 0.58605 0.15072 0.38804 0.0
O150 O 0.59681 0.14714 0.37264 0.0
O151 O 0.58616 0.1405 0.40488 0.0
O152 O 0.59141 0.08729 0.36449 0.0
O153 O 0.61416 0.11584 0.34235 0.0
O154 O 0.39232 0.57301 0.86546 0.0
Cd155 Cd 0.43045 0.58825 0.86566 0.0
Cd156 Cd 0.42343 0.57783 0.90483 0.0
O157 O 0.38676 0.55904 0.89689 0.0
O158 O 0.44738 0.56676 0.85804 0.0
O159 O 0.43997 0.5911 0.8366 0.0
C160 C 0.44868 0.57526 0.83984 0.0
C161 C 0.44188 0.5587 0.92473 0.0
C162 C 0.37795 0.56107 0.87982 0.0
C163 C 0.44746 0.6314 0.89377 0.0
O164 O 0.43741 0.61564 0.90775 0.0
O165 O 0.44831 0.62423 0.87575 0.0
O166 O 0.42659 0.56623 0.93236 0.0
O167 O 0.4463 0.56152 0.90545 0.0
C168 C 0.60139 0.0807 0.31049 0.0
C169 C 0.58844 0.07582 0.32893 0.0
C170 C 0.59015 0.06753 0.29301 0.0
C171 C 0.56432 0.03675 0.25696 0.0
H172 H 0.50356 0.04353 0.24971 0.0
C173 C 0.53923 0.05715 0.17834 0.0
C174 C 0.53743 0.07967 0.17911 0.0
C175 C 0.53613 0.04318 0.19607 0.0
C176 C 0.52029 0.04109 0.25148 0.0
H177 H 0.55425 0.05201 0.34401 0.0
H178 H 0.53429 0.02901 0.31318 0.0
H179 H 0.51902 0.04334 0.28382 0.0
H180 H 0.52827 0.10386 0.19822 0.0
H181 H 0.52287 0.07982 0.22885 0.0
H182 H 0.56705 0.03729 0.22462 0.0
C183 C 0.55319 0.04308 0.3123 0.0
C184 C 0.52906 0.04073 0.27109 0.0
C185 C 0.56463 0.05617 0.32994 0.0
C186 C 0.53 0.08667 0.19726 0.0
C187 C 0.52665 0.07267 0.21482 0.0
C188 C 0.55567 0.03734 0.23736 0.0
C189 C 0.56555 0.04927 0.29349 0.0
C190 C 0.55209 0.04037 0.27397 0.0
C191 C 0.53089 0.05142 0.21471 0.0
C192 C 0.5345 0.04134 0.23443 0.0
H193 H 0.61985 0.09562 0.3093 0.0
H194 H 0.60019 0.0731 0.27882 0.0
H195 H 0.58182 0.03579 0.25872 0.0
H196 H 0.5449 0.05133 0.16449 0.0
H197 H 0.53929 0.02677 0.19545 0.0
C198 C 0.45505 0.55755 0.67545 0.0
C199 C 0.44199 0.53645 0.6636 0.0
C200 C 0.46442 0.55559 0.69434 0.0
C201 C 0.48861 0.54817 0.73204 0.0
H202 H 0.43421 0.50855 0.76747 0.0
C203 C 0.45477 0.54181 0.82136 0.0
C204 C 0.45863 0.56657 0.82272 0.0
C205 C 0.46005 0.53278 0.80322 0.0
C206 C 0.44992 0.51915 0.75786 0.0
H207 H 0.42913 0.49682 0.66167 0.0
H208 H 0.44485 0.49315 0.69553 0.0
H209 H 0.43022 0.50146 0.73088 0.0
H210 H 0.47278 0.60172 0.80706 0.0
H211 H 0.48245 0.58629 0.7758 0.0
H212 H 0.50749 0.56727 0.75886 0.0
C213 C 0.44821 0.51126 0.68987 0.0
C214 C 0.44763 0.51507 0.73687 0.0
C215 C 0.4393 0.51334 0.67058 0.0
C216 C 0.46955 0.58254 0.80636 0.0
C217 C 0.47528 0.5737 0.7885 0.0
C218 C 0.4909 0.55225 0.75299 0.0
C219 C 0.46052 0.53239 0.70204 0.0
C220 C 0.46634 0.53062 0.72371 0.0
C221 C 0.46982 0.54857 0.78645 0.0
C222 C 0.47096 0.53883 0.76595 0.0
H223 H 0.4574 0.57558 0.67034 0.0
H224 H 0.47342 0.57215 0.70345 0.0
H225 H 0.50346 0.56017 0.72223 0.0
H226 H 0.44624 0.52913 0.83378 0.0
H227 H 0.45562 0.51333 0.80202 0.0
C228 C 0.91133 0.44226 0.1854 0.0
C229 C 0.91811 0.43062 0.16974 0.0
C230 C 0.92514 0.44938 0.2032 0.0
C231 C 0.95902 0.42622 0.23484 0.0
H232 H 0.95507 0.47549 0.27082 0.0
C233 C 0.91296 0.40218 0.3104 0.0
C234 C 0.91841 0.41943 0.3262 0.0
C235 C 0.92671 0.40835 0.29254 0.0
C236 C 0.95714 0.46199 0.26107 0.0
H237 H 0.94562 0.41884 0.15966 0.0
H238 H 0.96976 0.43087 0.1913 0.0
H239 H 0.95569 0.48139 0.23424 0.0
H240 H 0.94356 0.45611 0.33639 0.0
H241 H 0.96754 0.46727 0.30467 0.0
H242 H 0.95909 0.40616 0.26166 0.0
C243 C 0.95376 0.4346 0.18967 0.0
C244 C 0.95726 0.46527 0.24005 0.0
C245 C 0.94002 0.42777 0.17159 0.0
C246 C 0.93896 0.44251 0.32436 0.0
C247 C 0.95263 0.44888 0.30624 0.0
C248 C 0.95916 0.42306 0.25586 0.0
C249 C 0.94597 0.44476 0.20592 0.0
C250 C 0.95613 0.44645 0.22677 0.0
C251 C 0.94615 0.43206 0.28991 0.0
C252 C 0.95615 0.43992 0.26912 0.0
H253 H 0.89463 0.44489 0.18427 0.0
H254 H 0.91828 0.45678 0.21542 0.0
H255 H 0.95841 0.41145 0.22508 0.0
H256 H 0.89737 0.38415 0.31149 0.0
H257 H 0.92086 0.39502 0.28026 0.0
C258 C 0.43709 0.90305 0.81557 0.0
C259 C 0.42342 0.91236 0.82709 0.0
C260 C 0.4488 0.91483 0.79778 0.0
C261 C 0.43778 0.94475 0.75557 0.0
H262 H 0.50016 0.94664 0.73788 0.0
C263 C 0.45146 0.92639 0.67247 0.0
C264 C 0.45619 0.90548 0.67159 0.0
C265 C 0.45576 0.94009 0.6905 0.0
C266 C 0.48289 0.94667 0.74255 0.0
H267 H 0.41172 0.94161 0.82965 0.0
H268 H 0.43145 0.96185 0.79756 0.0
H269 H 0.49192 0.94757 0.77412 0.0
H270 H 0.47129 0.88388 0.68792 0.0
H271 H 0.47906 0.9077 0.71905 0.0
H272 H 0.42769 0.94132 0.72417 0.0
C273 C 0.43356 0.94575 0.80271 0.0
C274 C 0.47822 0.94729 0.76328 0.0
C275 C 0.42232 0.93424 0.82096 0.0
C276 C 0.46735 0.89984 0.68826 0.0
C277 C 0.472 0.91369 0.70606 0.0
C278 C 0.4424 0.94399 0.73481 0.0
C279 C 0.44663 0.9359 0.79085 0.0
C280 C 0.455 0.94469 0.76997 0.0
C281 C 0.46529 0.93331 0.70771 0.0
C282 C 0.46433 0.94323 0.7282 0.0
H283 H 0.43819 0.88622 0.82007 0.0
H284 H 0.45834 0.90654 0.7888 0.0
H285 H 0.4197 0.94265 0.76032 0.0
H286 H 0.44279 0.93106 0.65979 0.0
H287 H 0.45049 0.95516 0.69132 0.0
C288 C 0.53418 0.45595 0.31581 0.0
C289 C 0.52665 0.43031 0.31533 0.0
C290 C 0.53189 0.46823 0.29843 0.0
C291 C 0.5494 0.48355 0.25474 0.0
H292 H 0.49629 0.4609 0.21521 0.0
C293 C 0.57506 0.49808 0.17167 0.0
C294 C 0.56241 0.47693 0.15981 0.0
C295 C 0.56508 0.50093 0.19014 0.0
C296 C 0.51139 0.46748 0.226 0.0
H297 H 0.50846 0.39704 0.29732 0.0
H298 H 0.50383 0.41832 0.26725 0.0
H299 H 0.48729 0.44844 0.25072 0.0
H300 H 0.52909 0.44289 0.15699 0.0
H301 H 0.51225 0.44683 0.18954 0.0
H302 H 0.57403 0.50018 0.23024 0.0
C303 C 0.5117 0.42902 0.28087 0.0
C304 C 0.50612 0.46054 0.24639 0.0
C305 C 0.5145 0.41685 0.29802 0.0
C306 C 0.53894 0.45953 0.16585 0.0
C307 C 0.52928 0.46195 0.18458 0.0
C308 C 0.55478 0.48998 0.23436 0.0
C309 C 0.52147 0.45492 0.28057 0.0
C310 C 0.52527 0.46766 0.26074 0.0
C311 C 0.54281 0.48208 0.19751 0.0
C312 C 0.53603 0.481 0.21949 0.0
H313 H 0.5437 0.46675 0.32896 0.0
H314 H 0.53962 0.48822 0.29854 0.0
H315 H 0.56457 0.48912 0.26546 0.0
H316 H 0.59329 0.51168 0.16722 0.0
H317 H 0.5757 0.51715 0.19922 0.0
C318 C 0.07774 0.54921 0.69137 0.0
C319 C 0.07109 0.56006 0.67508 0.0
C320 C 0.06274 0.54116 0.70846 0.0
C321 C 0.02517 0.56136 0.73791 0.0
H322 H 0.02983 0.51292 0.77438 0.0
C323 C 0.07251 0.5868 0.81227 0.0
C324 C 0.06729 0.57018 0.82847 0.0
C325 C 0.05812 0.58017 0.79476 0.0
C326 C 0.02746 0.52612 0.76447 0.0
H327 H 0.04281 0.56963 0.66312 0.0
H328 H 0.01661 0.55622 0.69365 0.0
H329 H 0.03037 0.50712 0.73783 0.0
H330 H 0.04208 0.53415 0.83979 0.0
H331 H 0.01709 0.52198 0.80852 0.0
H332 H 0.02406 0.58125 0.76457 0.0
C333 C 0.03336 0.55366 0.69299 0.0
C334 C 0.02798 0.52288 0.74348 0.0
C335 C 0.0483 0.56133 0.67558 0.0
C336 C 0.04643 0.54724 0.82741 0.0
C337 C 0.03219 0.54033 0.80958 0.0
C338 C 0.02443 0.56449 0.7589 0.0
C339 C 0.04083 0.54412 0.70984 0.0
C340 C 0.02909 0.54159 0.7301 0.0
C341 C 0.03833 0.55654 0.79287 0.0
C342 C 0.02782 0.54802 0.77233 0.0
H343 H 0.09514 0.54781 0.69125 0.0
H344 H 0.06937 0.53433 0.72121 0.0
H345 H 0.0257 0.576 0.72805 0.0
H346 H 0.08837 0.60471 0.81281 0.0
H347 H 0.06374 0.593 0.78214 0.0
C348 C 0.54486 0.08002 0.04076 0.0
C349 C 0.53965 0.07676 0.06166 0.0
C350 C 0.53015 0.06219 0.02682 0.0
C351 C 0.48535 -0.00314 0.02228 0.0
H352 H 0.46598 0.0189 0.97279 0.0
C353 C 0.43764 0.95317 0.94067 0.0
C354 C 0.41825 0.93121 0.94765 0.0
C355 C 0.45183 0.97167 0.95442 0.0
C356 C 0.47143 0.01249 0.98645 0.0
H357 H 0.51525 0.05203 0.08439 0.0
H358 H 0.48944 0.02087 0.05999 0.0
H359 H 0.49258 0.04932 0.99734 0.0
H360 H 0.39773 0.9119 0.97435 0.0
H361 H 0.4222 0.94423 0.9982 0.0
H362 H 0.46427 0.96005 0.01141 0.0
C363 C 0.50503 0.03716 0.05442 0.0
C364 C 0.48667 0.02988 0.00049 0.0
C365 C 0.51977 0.05503 0.06839 0.0
C366 C 0.4127 0.92852 0.9685 0.0
C367 C 0.42682 0.94697 0.9822 0.0
C368 C 0.47013 0.97949 0.00825 0.0
C369 C 0.50992 0.0407 0.03347 0.0
C370 C 0.49379 0.02224 0.01855 0.0
C371 C 0.44684 0.96851 0.97538 0.0
C372 C 0.46296 0.98711 0.99021 0.0
H373 H 0.56012 0.09653 0.03508 0.0
H374 H 0.53464 0.06524 0.01081 0.0
H375 H 0.49083 0.99041 0.0359 0.0
H376 H 0.44237 0.95574 0.92468 0.0
H377 H 0.46724 0.98804 0.94873 0.0
C378 C 0.43592 0.4907 0.54459 0.0
C379 C 0.42826 0.50852 0.53816 0.0
C380 C 0.44676 0.4806 0.53081 0.0
C381 C 0.45733 0.47648 0.47508 0.0
H382 H 0.50952 0.46052 0.49448 0.0
C383 C 0.5062 0.43535 0.42173 0.0
C384 C 0.53114 0.44131 0.42548 0.0
C385 C 0.49272 0.44246 0.43544 0.0
C386 C 0.49525 0.46522 0.48868 0.0
H387 H 0.4261 0.53 0.51243 0.0
H388 H 0.44603 0.51353 0.48876 0.0
H389 H 0.488 0.47499 0.51829 0.0
H390 H 0.56191 0.46016 0.44595 0.0
H391 H 0.53898 0.4739 0.46921 0.0
H392 H 0.46573 0.46839 0.44527 0.0
C393 C 0.44287 0.50642 0.50413 0.0
C394 C 0.48248 0.47307 0.50248 0.0
C395 C 0.43158 0.51606 0.51777 0.0
C396 C 0.54261 0.45515 0.44281 0.0
C397 C 0.52933 0.46277 0.45626 0.0
C398 C 0.47046 0.46917 0.46121 0.0
C399 C 0.45065 0.48855 0.51042 0.0
C400 C 0.46343 0.47896 0.49587 0.0
C401 C 0.50407 0.45619 0.45297 0.0
C402 C 0.48971 0.46355 0.46779 0.0
H403 H 0.43341 0.48445 0.56022 0.0
H404 H 0.45202 0.46654 0.53618 0.0
H405 H 0.44244 0.48031 0.46939 0.0
H406 H 0.49686 0.42445 0.40856 0.0
H407 H 0.47325 0.43664 0.43248 0.0
C408 C 0.06083 0.55142 0.96215 0.0
C409 C 0.06515 0.54546 0.94242 0.0
C410 C 0.04329 0.53353 0.97452 0.0
C411 C 0.9909 0.47024 0.97342 0.0
H412 H 0.00136 0.47692 0.03163 0.0
C413 C 0.91256 0.41772 0.0295 0.0
C414 C 0.91803 0.41319 0.04935 0.0
C415 C 0.9315 0.43076 0.01585 0.0
C416 C -0.00173 0.4743 0.01542 0.0
H417 H 0.05484 0.51626 0.92003 0.0
H418 H 0.02515 0.48452 0.94192 0.0
H419 H 0.03253 0.50527 0.00916 0.0
H420 H 0.94744 0.41723 0.07019 0.0
H421 H 0.98067 0.43868 0.04596 0.0
H422 H 0.95735 0.4383 0.97965 0.0
C423 C 0.03449 0.50319 0.94772 0.0
C424 C 0.01601 0.49106 0.00246 0.0
C425 C 0.05156 0.52134 0.93515 0.0
C426 C 0.94277 0.42073 0.055 0.0
C427 C 0.96179 0.43323 0.04113 0.0
C428 C 0.97347 0.45305 0.98637 0.0
C429 C 0.03022 0.509 0.96766 0.0
C430 C 0.01225 0.48974 0.9813 0.0
C431 C 0.95644 0.43906 0.02153 0.0
C432 C 0.97654 0.45525 0.0076 0.0
H433 H 0.07099 0.56999 0.96803 0.0
H434 H 0.04005 0.53905 0.98946 0.0
H435 H 0.98716 0.46854 0.95726 0.0
H436 H 0.89363 0.4123 0.02479 0.0
H437 H 0.92644 0.43521 0.00115 0.0
C438 C 0.56057 0.07241 0.46668 0.0
C439 C 0.56863 0.0667 0.44823 0.0
C440 C 0.54673 0.05376 0.48028 0.0
C441 C 0.50853 0.98611 0.48363 0.0
H442 H 0.51645 -0.00012 0.54143 0.0
C443 C 0.44132 0.91868 0.54137 0.0
C444 C 0.45098 0.91546 0.55996 0.0
C445 C 0.45586 0.93755 0.52815 0.0
C446 C 0.51417 0.99555 0.52537 0.0
H447 H 0.56884 0.03708 0.42958 0.0
H448 H 0.5454 0.00439 0.45374 0.0
H449 H 0.54264 0.03096 0.51756 0.0
H450 H 0.48326 0.92949 0.57947 0.0
H451 H 0.50901 0.96189 0.55613 0.0
H452 H 0.4809 0.95025 0.49148 0.0
C453 C 0.54919 0.02325 0.45747 0.0
C454 C 0.52897 0.01357 0.51162 0.0
C455 C 0.56273 0.04195 0.44367 0.0
C456 C 0.47528 0.93172 0.5653 0.0
C457 C 0.49 0.95034 0.55191 0.0
C458 C 0.494 0.96793 0.4974 0.0
C459 C 0.54096 0.02894 0.47594 0.0
C460 C 0.52612 0.00921 0.49056 0.0
C461 C 0.48055 0.95333 0.53306 0.0
C462 C 0.49643 0.97252 0.51844 0.0
H463 H 0.56459 0.09132 0.47051 0.0
H464 H 0.54023 0.05885 0.49406 0.0
H465 H 0.50561 0.98214 0.46754 0.0
H466 H 0.42255 0.9065 0.53695 0.0
H467 H 0.44772 0.93967 0.51404 0.0
C468 C 0.47019 0.53843 0.92987 0.0
C469 C 0.45455 0.54802 0.93802 0.0
C470 C 0.48282 0.52927 0.94272 0.0
C471 C 0.50588 0.53439 0.99495 0.0
H472 H 0.507 0.47149 0.98401 0.0
C473 C 0.54271 0.48683 0.05324 0.0
C474 C 0.55615 0.47446 0.04572 0.0
C475 C 0.53073 0.49614 0.03989 0.0
C476 C 0.50717 0.48926 0.98714 0.0
H477 H 0.43969 0.55534 0.96597 0.0
H478 H 0.4617 0.53943 0.98827 0.0
H479 H 0.48547 0.48705 0.96071 0.0
H480 H 0.56804 0.46258 0.01833 0.0
H481 H 0.54767 0.47927 0.9951 0.0
H482 H 0.52774 0.53681 0.02124 0.0
C483 C 0.46435 0.53914 0.972 0.0
C484 C 0.4948 0.49812 0.9738 0.0
C485 C 0.45161 0.54809 0.9592 0.0
C486 C 0.55766 0.47187 0.02461 0.0
C487 C 0.54585 0.4813 0.01128 0.0
C488 C 0.51839 0.52563 0.00821 0.0
C489 C 0.48017 0.52977 0.96391 0.0
C490 C 0.49391 0.52069 0.97766 0.0
C491 C 0.5321 0.4934 0.01875 0.0
C492 C 0.51908 0.5029 0.00452 0.0
H493 H 0.47284 0.53817 0.91361 0.0
H494 H 0.49502 0.52226 0.9361 0.0
H495 H 0.50577 0.55204 0.99813 0.0
H496 H 0.54113 0.48901 0.06944 0.0
H497 H 0.52003 0.50508 0.04616 0.0
C498 C 0.92041 0.45058 0.46418 0.0
C499 C 0.91983 0.45635 0.44362 0.0
C500 C 0.9384 0.46711 0.47708 0.0
C501 C -0.00097 0.52283 0.47669 0.0
H502 H 0.98455 0.52099 0.53421 0.0
C503 C 0.07656 0.56196 0.53567 0.0
C504 C 0.07218 0.56991 0.55464 0.0
C505 C 0.05753 0.55158 0.52154 0.0
C506 C 0.98893 0.52228 0.51818 0.0
H507 H 0.93711 0.484 0.42036 0.0
H508 H 0.96784 0.51366 0.44312 0.0
H509 H 0.95183 0.49741 0.51073 0.0
H510 H 0.04487 0.57438 0.57349 0.0
H511 H 0.01179 0.55755 0.54836 0.0
H512 H 0.03579 0.54887 0.484 0.0
C513 C 0.95505 0.49598 0.44922 0.0
C514 C 0.97015 0.50822 0.50467 0.0
C515 C 0.93739 0.47907 0.43616 0.0
C516 C 0.04861 0.56812 0.55901 0.0
C517 C 0.02965 0.55831 0.54462 0.0
C518 C 0.01765 0.53744 0.49014 0.0
C519 C 0.95584 0.49018 0.46988 0.0
C520 C 0.97512 0.50759 0.48383 0.0
C521 C 0.03372 0.54947 0.52581 0.0
C522 C 0.01309 0.53672 0.51117 0.0
H523 H 0.90718 0.43303 0.47024 0.0
H524 H 0.93875 0.4615 0.49265 0.0
H525 H 0.00375 0.5229 0.46082 0.0
H526 H 0.09455 0.56294 0.53199 0.0
H527 H 0.06142 0.54448 0.50755 0.0
C528 C 0.55361 0.19855 0.09477 0.0
C529 C 0.54443 0.18149 0.11075 0.0
C530 C 0.54892 0.21932 0.09415 0.0
C531 C 0.53161 0.25917 0.09179 0.0
H532 H 0.53576 0.29151 0.14357 0.0
C533 C 0.54043 0.35814 0.09461 0.0
C534 C 0.5576 0.374 0.10868 0.0
C535 C 0.53231 0.33259 0.09591 0.0
C536 C 0.53469 0.28282 0.12895 0.0
H537 H 0.52173 0.17194 0.1379 0.0
H538 H 0.51277 0.20779 0.13644 0.0
H539 H 0.53387 0.25037 0.1428 0.0
H540 H 0.57913 0.37555 0.13552 0.0
H541 H 0.56598 0.33127 0.13729 0.0
H542 H 0.53455 0.29235 0.07787 0.0
C543 C 0.52429 0.20556 0.12473 0.0
C544 C 0.53316 0.25895 0.12851 0.0
C545 C 0.52929 0.18492 0.1255 0.0
C546 C 0.5658 0.36378 0.1245 0.0
C547 C 0.55806 0.33828 0.12559 0.0
C548 C 0.53359 0.28319 0.09222 0.0
C549 C 0.5346 0.22338 0.10933 0.0
C550 C 0.53232 0.24708 0.1099 0.0
C551 C 0.54157 0.32235 0.11107 0.0
C552 C 0.53585 0.29561 0.11079 0.0
H553 H 0.56542 0.19652 0.0832 0.0
H554 H 0.55757 0.23275 0.08224 0.0
H555 H 0.53037 0.25042 0.07718 0.0
H556 H 0.53354 0.36551 0.08239 0.0
H557 H 0.51915 0.32092 0.08476 0.0
C558 C 0.3157 0.51289 0.58763 0.0
C559 C 0.33158 0.5161 0.6042 0.0
C560 C 0.29158 0.50994 0.59076 0.0
C561 C 0.25729 0.52781 0.62825 0.0
H562 H 0.20248 0.49369 0.59141 0.0
C563 C 0.16956 0.54298 0.63261 0.0
C564 C 0.16233 0.54914 0.61393 0.0
C565 C 0.1863 0.53258 0.63322 0.0
C566 C 0.21762 0.50326 0.60185 0.0
H567 H 0.33386 0.51649 0.63711 0.0
H568 H 0.29159 0.51082 0.64257 0.0
H569 H 0.23904 0.48576 0.58961 0.0
H570 H 0.16596 0.54786 0.58119 0.0
H571 H 0.19533 0.52994 0.58228 0.0
H572 H 0.23631 0.54587 0.64007 0.0
C573 C 0.29801 0.51127 0.62713 0.0
C574 C 0.23855 0.49875 0.60081 0.0
C575 C 0.32221 0.5144 0.624 0.0
C576 C 0.17122 0.54346 0.59584 0.0
C577 C 0.18792 0.533 0.59646 0.0
C578 C 0.23637 0.53222 0.62934 0.0
C579 C 0.28273 0.50994 0.61053 0.0
C580 C 0.25891 0.51148 0.61365 0.0
C581 C 0.19612 0.52803 0.61517 0.0
C582 C 0.21657 0.52049 0.61581 0.0
H583 H 0.32227 0.51402 0.57216 0.0
H584 H 0.28044 0.50918 0.5776 0.0
H585 H 0.27274 0.53829 0.63814 0.0
H586 H 0.16291 0.54691 0.64684 0.0
H587 H 0.19203 0.52865 0.64786 0.0
C588 C 0.81766 0.30335 0.10451 0.0
C589 C 0.8276 0.32093 0.12012 0.0
C590 C 0.79976 0.27951 0.10882 0.0
C591 C 0.75035 0.24916 0.14544 0.0
H592 H 0.73949 0.19057 0.11423 0.0
C593 C 0.6559 0.1657 0.14698 0.0
C594 C 0.64624 0.15732 0.12752 0.0
C595 C 0.68116 0.18062 0.14963 0.0
C596 C 0.7423 0.20675 0.12313 0.0
H597 H 0.82798 0.32659 0.15272 0.0
H598 H 0.79682 0.2849 0.16022 0.0
H599 H 0.77947 0.2268 0.11244 0.0
H600 H 0.65584 0.15645 0.09583 0.0
H601 H 0.69962 0.18281 0.10036 0.0
H602 H 0.71295 0.22981 0.15531 0.0
C603 C 0.80259 0.28973 0.14461 0.0
C604 C 0.76518 0.22747 0.12211 0.0
C605 C 0.82049 0.3136 0.1403 0.0
C606 C 0.66262 0.16271 0.11102 0.0
C607 C 0.68784 0.1777 0.11365 0.0
C608 C 0.72751 0.22851 0.14642 0.0
C609 C 0.79142 0.27269 0.12884 0.0
C610 C 0.76917 0.24919 0.13274 0.0
C611 C 0.69728 0.18755 0.13286 0.0
C612 C 0.72292 0.20735 0.13476 0.0
H613 H 0.82282 0.30831 0.08881 0.0
H614 H 0.79141 0.26694 0.09628 0.0
H615 H 0.75263 0.26566 0.15362 0.0
H616 H 0.64382 0.16163 0.16007 0.0
H617 H 0.68793 0.18753 0.1647 0.0
C618 C 0.46463 0.80382 0.61093 0.0
C619 C 0.44957 0.80848 0.59684 0.0
C620 C 0.47046 0.78393 0.60817 0.0
C621 C 0.46829 0.73587 0.57155 0.0
H622 H 0.45452 0.69532 0.61994 0.0
C623 C 0.43769 0.63072 0.57001 0.0
C624 C 0.44324 0.61951 0.58674 0.0
C625 C 0.44515 0.65623 0.56975 0.0
C626 C 0.45905 0.70658 0.60635 0.0
H627 H 0.43018 0.79683 0.56811 0.0
H628 H 0.44004 0.76189 0.56347 0.0
H629 H 0.45578 0.73608 0.62208 0.0
H630 H 0.46289 0.62648 0.61545 0.0
H631 H 0.47647 0.67101 0.61475 0.0
H632 H 0.4708 0.70587 0.55572 0.0
C633 C 0.44752 0.77375 0.57657 0.0
C634 C 0.45973 0.73002 0.60759 0.0
C635 C 0.44172 0.7937 0.57931 0.0
C636 C 0.45799 0.63453 0.60248 0.0
C637 C 0.46567 0.66004 0.60212 0.0
C638 C 0.46769 0.71237 0.57031 0.0
C639 C 0.46132 0.76821 0.59129 0.0
C640 C 0.46385 0.74475 0.59015 0.0
C641 C 0.45853 0.67108 0.58614 0.0
C642 C 0.46254 0.69725 0.58764 0.0
H643 H 0.47125 0.81503 0.62449 0.0
H644 H 0.48149 0.78038 0.6196 0.0
H645 H 0.47178 0.74692 0.55788 0.0
H646 H 0.42637 0.61966 0.55763 0.0
H647 H 0.43916 0.66404 0.55727 0.0
C648 C 0.67604 0.47418 0.07678 0.0
C649 C 0.66625 0.48013 0.09424 0.0
C650 C 0.70033 0.47687 0.07666 0.0
C651 C 0.74468 0.4743 0.11341 0.0
H652 H 0.78585 0.48433 0.06573 0.0
C653 C 0.82841 0.45238 0.1155 0.0
C654 C 0.82958 0.4376 0.09935 0.0
C655 C 0.81303 0.46431 0.11431 0.0
C656 C 0.77455 0.48151 0.07917 0.0
H657 H 0.6751 0.49605 0.12446 0.0
H658 H 0.71764 0.50121 0.12408 0.0
H659 H 0.75084 0.49482 0.06449 0.0
H660 H 0.81643 0.42477 0.06887 0.0
H661 H 0.78927 0.44521 0.06697 0.0
H662 H 0.76764 0.46015 0.12788 0.0
C663 C 0.70631 0.49378 0.1107 0.0
C664 C 0.75453 0.48753 0.07848 0.0
C665 C 0.68196 0.49095 0.11087 0.0
C666 C 0.8159 0.43594 0.08162 0.0
C667 C 0.80046 0.44783 0.08046 0.0
C668 C 0.76465 0.46834 0.11411 0.0
C669 C 0.7154 0.48573 0.09395 0.0
C670 C 0.73899 0.4834 0.09544 0.0
C671 C 0.79843 0.46168 0.09698 0.0
C672 C 0.77945 0.47129 0.09686 0.0
H673 H 0.66449 0.46591 0.06366 0.0
H674 H 0.70664 0.47036 0.06353 0.0
H675 H 0.73288 0.47041 0.12665 0.0
H676 H 0.83892 0.45429 0.1293 0.0
H677 H 0.81216 0.47516 0.12718 0.0
C678 C 0.16524 0.67932 0.63591 0.0
C679 C 0.16331 0.6664 0.61769 0.0
C680 C 0.18305 0.7038 0.63803 0.0
C681 C 0.23401 0.74563 0.64388 0.0
H682 H 0.2627 0.7872 0.59699 0.0
C683 C 0.33747 0.80757 0.63847 0.0
C684 C 0.34662 0.8274 0.62477 0.0
C685 C 0.31205 0.79317 0.64045 0.0
C686 C 0.25482 0.77633 0.61048 0.0
H687 H 0.1777 0.66944 0.58706 0.0
H688 H 0.20916 0.7113 0.59095 0.0
H689 H 0.22194 0.75324 0.59442 0.0
H690 H 0.33646 0.84914 0.60372 0.0
H691 H 0.29204 0.82484 0.60793 0.0
H692 H 0.26659 0.76915 0.66011 0.0
C693 C 0.19665 0.70308 0.60352 0.0
C694 C 0.23147 0.75644 0.60887 0.0
C695 C 0.17865 0.67884 0.60132 0.0
C696 C 0.32987 0.83369 0.61418 0.0
C697 C 0.3044 0.81962 0.61651 0.0
C698 C 0.25711 0.76589 0.64564 0.0
C699 C 0.19955 0.71574 0.62207 0.0
C700 C 0.22134 0.74003 0.6252 0.0
C701 C 0.29513 0.79858 0.62909 0.0
C702 C 0.26842 0.78074 0.62867 0.0
H703 H 0.15346 0.67031 0.64874 0.0
H704 H 0.18432 0.71309 0.65239 0.0
H705 H 0.22692 0.73356 0.65688 0.0
H706 H 0.34994 0.80223 0.64679 0.0
H707 H 0.30589 0.77697 0.65004 0.0
C708 C 0.81429 0.44042 0.36044 0.0
C709 C 0.81646 0.43077 0.37938 0.0
C710 C 0.79503 0.44707 0.35679 0.0
C711 C 0.74491 0.45713 0.38331 0.0
H712 H 0.7135 0.44133 0.33044 0.0
C713 C 0.64225 0.42567 0.34774 0.0
C714 C 0.634 0.43928 0.3605 0.0
C715 C 0.66721 0.43064 0.34727 0.0
C716 C 0.72192 0.44574 0.34534 0.0
H717 H 0.80023 0.42058 0.40936 0.0
H718 H 0.76619 0.43098 0.4028 0.0
H719 H 0.75159 0.4375 0.33607 0.0
H720 H 0.64567 0.47027 0.38129 0.0
H721 H 0.68945 0.4799 0.37966 0.0
H722 H 0.71426 0.46326 0.39315 0.0
C723 C 0.77972 0.43436 0.3909 0.0
C724 C 0.7441 0.44393 0.3485 0.0
C725 C 0.79918 0.42815 0.39465 0.0
C726 C 0.65147 0.45926 0.37152 0.0
C727 C 0.67656 0.4646 0.37071 0.0
C728 C 0.72252 0.45844 0.38029 0.0
C729 C 0.77728 0.44383 0.3719 0.0
C730 C 0.75553 0.44893 0.36771 0.0
C731 C 0.68464 0.4497 0.35924 0.0
C732 C 0.71033 0.45211 0.36141 0.0
H733 H 0.82748 0.44286 0.34843 0.0
H734 H 0.79404 0.45467 0.3421 0.0
H735 H 0.75349 0.46185 0.39815 0.0
H736 H 0.62921 0.41007 0.33912 0.0
H737 H 0.67245 0.41848 0.33844 0.0
C738 C 0.29711 0.84119 0.90653 0.0
C739 C 0.31103 0.84304 0.88889 0.0
C740 C 0.27196 0.82509 0.90718 0.0
C741 C 0.23012 0.77387 0.90936 0.0
H742 H 0.18398 0.75552 0.8643 0.0
C743 C 0.15351 0.67944 0.87399 0.0
C744 C 0.14301 0.66669 0.89203 0.0
C745 C 0.16821 0.70491 0.87425 0.0
C746 C 0.19663 0.76044 0.87705 0.0
H747 H 0.30893 0.83112 0.85754 0.0
H748 H 0.26515 0.80276 0.85878 0.0
H749 H 0.22143 0.79456 0.86319 0.0
H750 H 0.13771 0.67105 0.92413 0.0
H751 H 0.16294 0.71566 0.9245 0.0
H752 H 0.20644 0.73933 0.92272 0.0
C753 C 0.27362 0.81386 0.87208 0.0
C754 C 0.21803 0.78281 0.87641 0.0
C755 C 0.29879 0.83002 0.8714 0.0
C756 C 0.14585 0.68027 0.91002 0.0
C757 C 0.1604 0.70583 0.91024 0.0
C758 C 0.20888 0.75151 0.90994 0.0
C759 C 0.26019 0.81047 0.89024 0.0
C760 C 0.23538 0.78938 0.89229 0.0
C761 C 0.17258 0.71829 0.89252 0.0
C762 C 0.19227 0.74411 0.8935 0.0
H763 H 0.30587 0.85125 0.92019 0.0
H764 H 0.26198 0.82322 0.92127 0.0
H765 H 0.24325 0.77815 0.92172 0.0
H766 H 0.15159 0.66958 0.85982 0.0
H767 H 0.17743 0.71375 0.86033 0.0
C768 C 0.58017 0.18515 0.37121 0.0
C769 C 0.57393 0.16745 0.38673 0.0
C770 C 0.57018 0.20225 0.37102 0.0
C771 C 0.54035 0.23168 0.36907 0.0
H772 H 0.53453 0.25851 0.42131 0.0
C773 C 0.5197 0.31615 0.37313 0.0
C774 C 0.53491 0.33471 0.38659 0.0
C775 C 0.5179 0.29221 0.37454 0.0
C776 C 0.53608 0.25128 0.40658 0.0
H777 H 0.5513 0.15285 0.41357 0.0
H778 H 0.5332 0.18205 0.41285 0.0
H779 H 0.54503 0.22385 0.41996 0.0
H780 H 0.55877 0.34225 0.41297 0.0
H781 H 0.55626 0.30099 0.41508 0.0
H782 H 0.53327 0.26029 0.35567 0.0
C783 C 0.54643 0.18335 0.4012 0.0
C784 C 0.54177 0.2311 0.40579 0.0
C785 C 0.55672 0.16651 0.40156 0.0
C786 C 0.54689 0.32841 0.40234 0.0
C787 C 0.54533 0.30459 0.4036 0.0
C788 C 0.53499 0.25207 0.36985 0.0
C789 C 0.55342 0.20179 0.38618 0.0
C790 C 0.54456 0.22139 0.38701 0.0
C791 C 0.53148 0.28639 0.38931 0.0
C792 C 0.53339 0.26252 0.38862 0.0
H793 H 0.59346 0.18639 0.35962 0.0
H794 H 0.57635 0.21639 0.35939 0.0
H795 H 0.54181 0.22439 0.35434 0.0
H796 H 0.51 0.32034 0.36095 0.0
H797 H 0.50657 0.2785 0.36358 0.0
C798 C 0.18785 0.5707 0.90348 0.0
C799 C 0.16937 0.56378 0.88853 0.0
C800 C 0.20704 0.56364 0.90185 0.0
C801 C 0.23952 0.54315 0.86365 0.0
H802 H 0.27345 0.53691 0.91182 0.0
C803 C 0.33453 0.53522 0.89143 0.0
C804 C 0.35095 0.55206 0.87748 0.0
C805 C 0.30941 0.52975 0.89108 0.0
C806 C 0.26401 0.538 0.89812 0.0
H807 H 0.15588 0.54311 0.86059 0.0
H808 H 0.1889 0.52997 0.8581 0.0
H809 H 0.23434 0.5391 0.91526 0.0
H810 H 0.35373 0.57537 0.85155 0.0
H811 H 0.31044 0.5668 0.85146 0.0
H812 H 0.26887 0.54133 0.84647 0.0
C813 C 0.18904 0.54152 0.87078 0.0
C814 C 0.2417 0.53976 0.90014 0.0
C815 C 0.17003 0.54894 0.87225 0.0
C816 C 0.34154 0.56226 0.86249 0.0
C817 C 0.31655 0.55717 0.86237 0.0
C818 C 0.26162 0.54092 0.8616 0.0
C819 C 0.20804 0.5491 0.8854 0.0
C820 C 0.22963 0.54331 0.883 0.0
C821 C 0.30025 0.54139 0.87702 0.0
C822 C 0.27465 0.53925 0.87885 0.0
H823 H 0.18795 0.58226 0.91615 0.0
H824 H 0.22154 0.57035 0.91319 0.0
H825 H 0.23088 0.54591 0.85006 0.0
H826 H 0.34122 0.52683 0.90302 0.0
H827 H 0.29734 0.517 0.90226 0.0
C828 C 0.69336 0.16047 0.42254 0.0
C829 C 0.68414 0.15411 0.40268 0.0
C830 C 0.71806 0.17704 0.42581 0.0
C831 C 0.75999 0.22829 0.4257 0.0
H832 H 0.81437 0.2388 0.38926 0.0
C833 C 0.83972 0.31567 0.38555 0.0
C834 C 0.84706 0.33237 0.40192 0.0
C835 C 0.82601 0.29038 0.38895 0.0
C836 C 0.79942 0.23605 0.39966 0.0
H837 H 0.69417 0.15845 0.37075 0.0
H838 H 0.7369 0.18766 0.37639 0.0
H839 H 0.77796 0.19888 0.38949 0.0
H840 H 0.84786 0.33537 0.4348 0.0
H841 H 0.82413 0.29117 0.44072 0.0
H842 H 0.78063 0.26569 0.43511 0.0
C843 C 0.72524 0.17974 0.38951 0.0
C844 C 0.77858 0.2132 0.39979 0.0
C845 C 0.70061 0.16309 0.38625 0.0
C846 C 0.84218 0.32303 0.42183 0.0
C847 C 0.82852 0.29771 0.42524 0.0
C848 C 0.78077 0.25105 0.42559 0.0
C849 C 0.734 0.18767 0.40927 0.0
C850 C 0.75822 0.20942 0.41224 0.0
C851 C 0.81943 0.28123 0.4088 0.0
C852 C 0.8003 0.25553 0.41199 0.0
H853 H 0.68125 0.1536 0.43556 0.0
H854 H 0.72437 0.18242 0.44124 0.0
H855 H 0.74457 0.22622 0.43531 0.0
H856 H 0.84332 0.3222 0.37001 0.0
H857 H 0.81916 0.27828 0.37592 0.0
C858 C 0.45343 0.66603 0.91766 0.0
C859 C 0.45512 0.65795 0.89791 0.0
C860 C 0.45585 0.68995 0.92094 0.0
C861 C 0.43831 0.72995 0.91939 0.0
H862 H 0.47852 0.78747 0.88714 0.0
C863 C 0.42906 0.81853 0.88421 0.0
C864 C 0.42023 0.82655 0.90115 0.0
C865 C 0.43866 0.8013 0.88648 0.0
C866 C 0.46719 0.77155 0.89627 0.0
H867 H 0.46274 0.66933 0.86639 0.0
H868 H 0.46649 0.71076 0.87205 0.0
H869 H 0.48732 0.75142 0.88679 0.0
H870 H 0.41542 0.82338 0.93387 0.0
H871 H 0.43219 0.79321 0.93779 0.0
H872 H 0.41767 0.74966 0.92833 0.0
C873 C 0.46351 0.69877 0.88506 0.0
C874 C 0.47223 0.75093 0.89608 0.0
C875 C 0.46121 0.67491 0.88179 0.0
C876 C 0.42191 0.81747 0.92049 0.0
C877 C 0.43146 0.80015 0.92274 0.0
C878 C 0.43333 0.75057 0.91962 0.0
C879 C 0.45992 0.70626 0.90455 0.0
C880 C 0.45742 0.72963 0.90722 0.0
C881 C 0.43963 0.79163 0.90572 0.0
C882 C 0.44728 0.77133 0.90764 0.0
H883 H 0.44906 0.65352 0.93046 0.0
H884 H 0.45353 0.69533 0.93621 0.0
H885 H 0.42625 0.71376 0.92789 0.0
H886 H 0.42813 0.8252 0.8691 0.0
H887 H 0.44448 0.79486 0.87302 0.0
loop_
_geom_bond_atom_site_label_1
_geom_bond_atom_site_label_2
_geom_bond_distance
_geom_bond_site_symmetry_2
_ccdc_geom_bond_type
O0 Cd1 2.223 . S
O0 C8 1.315 . S
Cd1 O0 2.223 . S
Cd1 O4 2.297 . S
Cd1 O5 2.439 . S
Cd1 O11 2.240 . S
Cd2 O3 2.240 . S
Cd2 O10 2.223 . S
Cd2 O12 2.297 . S
Cd2 O13 2.439 . S
O3 Cd2 2.240 . S
O3 C8 1.279 . S
O4 Cd1 2.297 . S
O4 C6 1.247 . S
O5 Cd1 2.439 . S
O5 C6 1.208 . S
C6 O4 1.247 . S
C6 O5 1.208 . S
C7 O12 1.247 . S
C7 O13 1.208 . S
C8 O0 1.315 . S
C8 O3 1.279 . S
C9 O10 1.315 . S
C9 O11 1.279 . S
O10 Cd2 2.223 . S
O10 C9 1.315 . S
O11 Cd1 2.240 . S
O11 C9 1.279 . S
O12 Cd2 2.297 . S
O12 C7 1.247 . S
O13 Cd2 2.439 . S
O13 C7 1.208 . S
O14 Cd15 2.223 . S
O14 C22 1.315 . S
Cd15 O14 2.223 . S
Cd15 O18 2.297 . S
Cd15 O19 2.439 . S
Cd15 O25 2.240 . S
Cd16 O17 2.240 . S
Cd16 O24 2.223 . S
Cd16 O26 2.297 . S
Cd16 O27 2.439 . S
O17 Cd16 2.240 . S
O17 C22 1.279 . S
O18 Cd15 2.297 . S
O18 C20 1.247 . S
O19 Cd15 2.439 . S
O19 C20 1.208 . S
C20 O18 1.247 . S
C20 O19 1.208 . S
C21 O26 1.247 . S
C21 O27 1.208 . S
C22 O14 1.315 . S
C22 O17 1.279 . S
C23 O24 1.315 . S
C23 O25 1.279 . S
O24 Cd16 2.223 . S
O24 C23 1.315 . S
O25 Cd15 2.240 . S
O25 C23 1.279 . S
O26 Cd16 2.297 . S
O26 C21 1.247 . S
O27 Cd16 2.439 . S
O27 C21 1.208 . S
O28 Cd29 2.223 . S
O28 C36 1.315 . S
Cd29 O28 2.223 . S
Cd29 O32 2.297 . S
Cd29 O33 2.439 . S
Cd29 O39 2.240 . S
Cd30 O31 2.240 . S
Cd30 O38 2.223 . S
Cd30 O40 2.297 . S
Cd30 O41 2.439 . S
O31 Cd30 2.240 . S
O31 C36 1.279 . S
O32 Cd29 2.297 . S
O32 C34 1.247 . S
O33 Cd29 2.439 . S
O33 C34 1.208 . S
C34 O32 1.247 . S
C34 O33 1.208 . S
C35 O40 1.247 . S
C35 O41 1.208 . S
C36 O28 1.315 . S
C36 O31 1.279 . S
C37 O38 1.315 . S
C37 O39 1.279 . S
O38 Cd30 2.223 . S
O38 C37 1.315 . S
O39 Cd29 2.240 . S
O39 C37 1.279 . S
O40 Cd30 2.297 . S
O40 C35 1.247 . S
O41 Cd30 2.439 . S
O41 C35 1.208 . S
O42 Cd43 2.223 . S
O42 C50 1.315 . S
Cd43 O42 2.223 . S
Cd43 O46 2.297 . S
Cd43 O47 2.439 . S
Cd43 O53 2.240 . S
Cd44 O45 2.240 . S
Cd44 O52 2.223 . S
Cd44 O54 2.297 . S
Cd44 O55 2.439 . S
O45 Cd44 2.240 . S
O45 C50 1.279 . S
O46 Cd43 2.297 . S
O46 C48 1.247 . S
O47 Cd43 2.439 . S
O47 C48 1.208 . S
C48 O46 1.247 . S
C48 O47 1.208 . S
C49 O54 1.247 . S
C49 O55 1.208 . S
C50 O42 1.315 . S
C50 O45 1.279 . S
C51 O52 1.315 . S
C51 O53 1.279 . S
O52 Cd44 2.223 . S
O52 C51 1.315 . S
O53 Cd43 2.240 . S
O53 C51 1.279 . S
O54 Cd44 2.297 . S
O54 C49 1.247 . S
O55 Cd44 2.439 . S
O55 C49 1.208 . S
O56 Cd57 2.223 . S
O56 C64 1.315 . S
Cd57 O56 2.223 . S
Cd57 O60 2.297 . S
Cd57 O61 2.439 . S
Cd57 O67 2.240 . S
Cd58 O59 2.240 . S
Cd58 O66 2.223 . S
Cd58 O68 2.297 . S
Cd58 O69 2.439 . S
O59 Cd58 2.240 . S
O59 C64 1.279 . S
O60 Cd57 2.297 . S
O60 C62 1.247 . S
O61 Cd57 2.439 . S
O61 C62 1.208 . S
C62 O60 1.247 . S
C62 O61 1.208 . S
C63 O68 1.247 . S
C63 O69 1.208 . S
C64 O56 1.315 . S
C64 O59 1.279 . S
C65 O66 1.315 . S
C65 O67 1.279 . S
O66 Cd58 2.223 . S
O66 C65 1.315 . S
O67 Cd57 2.240 . S
O67 C65 1.279 . S
O68 Cd58 2.297 . S
O68 C63 1.247 . S
O69 Cd58 2.439 . S
O69 C63 1.208 . S
O70 Cd71 2.223 . S
O70 C78 1.315 . S
Cd71 O70 2.223 . S
Cd71 O74 2.297 . S
Cd71 O75 2.439 . S
Cd71 O81 2.240 . S
Cd72 O73 2.240 . S
Cd72 O80 2.223 . S
Cd72 O82 2.297 . S
Cd72 O83 2.439 . S
O73 Cd72 2.240 . S
O73 C78 1.279 . S
O74 Cd71 2.297 . S
O74 C76 1.247 . S
O75 Cd71 2.439 . S
O75 C76 1.208 . S
C76 O74 1.247 . S
C76 O75 1.208 . S
C77 O82 1.247 . S
C77 O83 1.208 . S
C78 O70 1.315 . S
C78 O73 1.279 . S
C79 O80 1.315 . S
C79 O81 1.279 . S
O80 Cd72 2.223 . S
O80 C79 1.315 . S
O81 Cd71 2.240 . S
O81 C79 1.279 . S
O82 Cd72 2.297 . S
O82 C77 1.247 . S
O83 Cd72 2.439 . S
O83 C77 1.208 . S
O84 Cd85 2.223 . S
O84 C92 1.315 . S
Cd85 O84 2.223 . S
Cd85 O88 2.297 . S
Cd85 O89 2.439 . S
Cd85 O95 2.240 . S
Cd86 O87 2.240 . S
Cd86 O94 2.223 . S
Cd86 O96 2.297 . S
Cd86 O97 2.439 . S
O87 Cd86 2.240 . S
O87 C92 1.279 . S
O88 Cd85 2.297 . S
O88 C90 1.247 . S
O89 Cd85 2.439 . S
O89 C90 1.208 . S
C90 O88 1.247 . S
C90 O89 1.208 . S
C91 O96 1.247 . S
C91 O97 1.208 . S
C92 O84 1.315 . S
C92 O87 1.279 . S
C93 O94 1.315 . S
C93 O95 1.279 . S
O94 Cd86 2.223 . S
O94 C93 1.315 . S
O95 Cd85 2.240 . S
O95 C93 1.279 . S
O96 Cd86 2.297 . S
O96 C91 1.247 . S
O97 Cd86 2.439 . S
O97 C91 1.208 . S
O98 Cd99 2.223 . S
O98 C106 1.315 . S
Cd99 O98 2.223 . S
Cd99 O102 2.297 . S
Cd99 O103 2.439 . S
Cd99 O109 2.240 . S
Cd100 O101 2.240 . S
Cd100 O108 2.223 . S
Cd100 O110 2.297 . S
Cd100 O111 2.439 . S
O101 Cd100 2.240 . S
O101 C106 1.279 . S
O102 Cd99 2.297 . S
O102 C104 1.247 . S
O103 Cd99 2.439 . S
O103 C104 1.208 . S
C104 O102 1.247 . S
C104 O103 1.208 . S
C105 O110 1.247 . S
C105 O111 1.208 . S
C106 O98 1.315 . S
C106 O101 1.279 . S
C107 O108 1.315 . S
C107 O109 1.279 . S
O108 Cd100 2.223 . S
O108 C107 1.315 . S
O109 Cd99 2.240 . S
O109 C107 1.279 . S
O110 Cd100 2.297 . S
O110 C105 1.247 . S
O111 Cd100 2.439 . S
O111 C105 1.208 . S
O112 Cd113 2.223 . S
O112 C120 1.315 . S
Cd113 O112 2.223 . S
Cd113 O116 2.297 . S
Cd113 O117 2.439 . S
Cd113 O123 2.240 . S
Cd114 O115 2.240 . S
Cd114 O122 2.223 . S
Cd114 O124 2.297 . S
Cd114 O125 2.439 . S
O115 Cd114 2.240 . S
O115 C120 1.279 . S
O116 Cd113 2.297 . S
O116 C118 1.247 . S
O117 Cd113 2.439 . S
O117 C118 1.208 . S
C118 O116 1.247 . S
C118 O117 1.208 . S
C119 O124 1.247 . S
C119 O125 1.208 . S
C120 O112 1.315 . S
C120 O115 1.279 . S
C121 O122 1.315 . S
C121 O123 1.279 . S
O122 Cd114 2.223 . S
O122 C121 1.315 . S
O123 Cd113 2.240 . S
O123 C121 1.279 . S
O124 Cd114 2.297 . S
O124 C119 1.247 . S
O125 Cd114 2.439 . S
O125 C119 1.208 . S
O126 Cd127 2.223 . S
O126 C134 1.315 . S
Cd127 O126 2.223 . S
Cd127 O130 2.297 . S
Cd127 O131 2.439 . S
Cd127 O137 2.240 . S
Cd128 O129 2.240 . S
Cd128 O136 2.223 . S
Cd128 O138 2.297 . S
Cd128 O139 2.439 . S
O129 Cd128 2.240 . S
O129 C134 1.279 . S
O130 Cd127 2.297 . S
O130 C132 1.247 . S
O131 Cd127 2.439 . S
O131 C132 1.208 . S
C132 O130 1.247 . S
C132 O131 1.208 . S
C133 O138 1.247 . S
C133 O139 1.208 . S
C134 O126 1.315 . S
C134 O129 1.279 . S
C135 O136 1.315 . S
C135 O137 1.279 . S
O136 Cd128 2.223 . S
O136 C135 1.315 . S
O137 Cd127 2.240 . S
O137 C135 1.279 . S
O138 Cd128 2.297 . S
O138 C133 1.247 . S
O139 Cd128 2.439 . S
O139 C133 1.208 . S
O140 Cd141 2.223 . S
O140 C148 1.315 . S
Cd141 O140 2.223 . S
Cd141 O144 2.297 . S
Cd141 O145 2.439 . S
Cd141 O151 2.240 . S
Cd142 O143 2.240 . S
Cd142 O150 2.223 . S
Cd142 O152 2.297 . S
Cd142 O153 2.439 . S
O143 Cd142 2.240 . S
O143 C148 1.279 . S
O144 Cd141 2.297 . S
O144 C146 1.247 . S
O145 Cd141 2.439 . S
O145 C146 1.208 . S
C146 O144 1.247 . S
C146 O145 1.208 . S
C147 O152 1.247 . S
C147 O153 1.208 . S
C148 O140 1.315 . S
C148 O143 1.279 . S
C149 O150 1.315 . S
C149 O151 1.279 . S
O150 Cd142 2.223 . S
O150 C149 1.315 . S
O151 Cd141 2.240 . S
O151 C149 1.279 . S
O152 Cd142 2.297 . S
O152 C147 1.247 . S
O153 Cd142 2.439 . S
O153 C147 1.208 . S
O154 Cd155 2.223 . S
O154 C162 1.315 . S
Cd155 O154 2.223 . S
Cd155 O158 2.297 . S
Cd155 O159 2.439 . S
Cd155 O165 2.240 . S
Cd156 O157 2.240 . S
Cd156 O164 2.223 . S
Cd156 O166 2.297 . S
Cd156 O167 2.439 . S
O157 Cd156 2.240 . S
O157 C162 1.279 . S
O158 Cd155 2.297 . S
O158 C160 1.247 . S
O159 Cd155 2.439 . S
O159 C160 1.208 . S
C160 O158 1.247 . S
C160 O159 1.208 . S
C161 O166 1.247 . S
C161 O167 1.208 . S
C162 O154 1.315 . S
C162 O157 1.279 . S
C163 O164 1.315 . S
C163 O165 1.279 . S
O164 Cd156 2.223 . S
O164 C163 1.315 . S
O165 Cd155 2.240 . S
O165 C163 1.279 . S
O166 Cd156 2.297 . S
O166 C161 1.247 . S
O167 Cd156 2.439 . S
O167 C161 1.208 . S
C168 C169 1.349 . S
C168 C170 1.327 . S
C168 H193 0.950 . S
C169 C168 1.349 . S
C169 C185 1.349 . S
C170 C168 1.327 . S
C170 C189 1.429 . S
C170 H194 0.950 . S
C171 C188 1.574 . S
C171 C190 1.368 . S
C171 H195 0.949 . S
H172 C176 0.949 . S
C173 C174 1.349 . S
C173 C175 1.327 . S
C173 H196 0.950 . S
C174 C173 1.349 . S
C174 C186 1.349 . S
C175 C173 1.327 . S
C175 C191 1.429 . S
C175 H197 0.950 . S
C176 H172 0.949 . S
C176 C184 1.574 . S
C176 C192 1.368 . S
H177 C185 0.950 . S
H178 C183 0.950 . S
H179 C184 0.949 . S
H180 C186 0.950 . S
H181 C187 0.950 . S
H182 C188 0.949 . S
C183 H178 0.950 . S
C183 C185 1.327 . S
C183 C189 1.429 . S
C184 C176 1.574 . S
C184 H179 0.949 . S
C184 C190 1.368 . S
C185 C169 1.349 . S
C185 H177 0.950 . S
C185 C183 1.327 . S
C186 C174 1.349 . S
C186 H180 0.950 . S
C186 C187 1.327 . S
C187 H181 0.950 . S
C187 C186 1.327 . S
C187 C191 1.429 . S
C188 C171 1.574 . S
C188 H182 0.949 . S
C188 C192 1.368 . S
C189 C170 1.429 . S
C189 C183 1.429 . S
C189 C190 1.523 . S
C190 C171 1.368 . S
C190 C184 1.368 . S
C190 C189 1.523 . S
C191 C175 1.429 . S
C191 C187 1.429 . S
C191 C192 1.523 . S
C192 C176 1.368 . S
C192 C188 1.368 . S
C192 C191 1.523 . S
H193 C168 0.950 . S
H194 C170 0.950 . S
H195 C171 0.949 . S
H196 C173 0.950 . S
H197 C175 0.950 . S
C198 C199 1.349 . S
C198 C200 1.327 . S
C198 H223 0.950 . S
C199 C198 1.349 . S
C199 C215 1.349 . S
C200 C198 1.327 . S
C200 C219 1.429 . S
C200 H224 0.950 . S
C201 C218 1.574 . S
C201 C220 1.368 . S
C201 H225 0.949 . S
H202 C206 0.949 . S
C203 C204 1.349 . S
C203 C205 1.327 . S
C203 H226 0.950 . S
C204 C203 1.349 . S
C204 C216 1.349 . S
C205 C203 1.327 . S
C205 C221 1.429 . S
C205 H227 0.950 . S
C206 H202 0.949 . S
C206 C214 1.574 . S
C206 C222 1.368 . S
H207 C215 0.950 . S
H208 C213 0.950 . S
H209 C214 0.949 . S
H210 C216 0.950 . S
H211 C217 0.950 . S
H212 C218 0.949 . S
C213 H208 0.950 . S
C213 C215 1.327 . S
C213 C219 1.429 . S
C214 C206 1.574 . S
C214 H209 0.949 . S
C214 C220 1.368 . S
C215 C199 1.349 . S
C215 H207 0.950 . S
C215 C213 1.327 . S
C216 C204 1.349 . S
C216 H210 0.950 . S
C216 C217 1.327 . S
C217 H211 0.950 . S
C217 C216 1.327 . S
C217 C221 1.429 . S
C218 C201 1.574 . S
C218 H212 0.949 . S
C218 C222 1.368 . S
C219 C200 1.429 . S
C219 C213 1.429 . S
C219 C220 1.523 . S
C220 C201 1.368 . S
C220 C214 1.368 . S
C220 C219 1.523 . S
C221 C205 1.429 . S
C221 C217 1.429 . S
C221 C222 1.523 . S
C222 C206 1.368 . S
C222 C218 1.368 . S
C222 C221 1.523 . S
H223 C198 0.950 . S
H224 C200 0.950 . S
H225 C201 0.949 . S
H226 C203 0.950 . S
H227 C205 0.950 . S
C228 C229 1.349 . S
C228 C230 1.327 . S
C228 H253 0.950 . S
C229 C228 1.349 . S
C229 C245 1.349 . S
C230 C228 1.327 . S
C230 C249 1.429 . S
C230 H254 0.950 . S
C231 C248 1.574 . S
C231 C250 1.368 . S
C231 H255 0.949 . S
H232 C236 0.949 . S
C233 C234 1.349 . S
C233 C235 1.327 . S
C233 H256 0.950 . S
C234 C233 1.349 . S
C234 C246 1.349 . S
C235 C233 1.327 . S
C235 C251 1.429 . S
C235 H257 0.950 . S
C236 H232 0.949 . S
C236 C244 1.574 . S
C236 C252 1.368 . S
H237 C245 0.950 . S
H238 C243 0.950 . S
H239 C244 0.949 . S
H240 C246 0.950 . S
H241 C247 0.950 . S
H242 C248 0.949 . S
C243 H238 0.950 . S
C243 C245 1.327 . S
C243 C249 1.429 . S
C244 C236 1.574 . S
C244 H239 0.949 . S
C244 C250 1.368 . S
C245 C229 1.349 . S
C245 H237 0.950 . S
C245 C243 1.327 . S
C246 C234 1.349 . S
C246 H240 0.950 . S
C246 C247 1.327 . S
C247 H241 0.950 . S
C247 C246 1.327 . S
C247 C251 1.429 . S
C248 C231 1.574 . S
C248 H242 0.949 . S
C248 C252 1.368 . S
C249 C230 1.429 . S
C249 C243 1.429 . S
C249 C250 1.523 . S
C250 C231 1.368 . S
C250 C244 1.368 . S
C250 C249 1.523 . S
C251 C235 1.429 . S
C251 C247 1.429 . S
C251 C252 1.523 . S
C252 C236 1.368 . S
C252 C248 1.368 . S
C252 C251 1.523 . S
H253 C228 0.950 . S
H254 C230 0.950 . S
H255 C231 0.949 . S
H256 C233 0.950 . S
H257 C235 0.950 . S
C258 C259 1.349 . S
C258 C260 1.327 . S
C258 H283 0.950 . S
C259 C258 1.349 . S
C259 C275 1.349 . S
C260 C258 1.327 . S
C260 C279 1.429 . S
C260 H284 0.950 . S
C261 C278 1.574 . S
C261 C280 1.368 . S
C261 H285 0.949 . S
H262 C266 0.949 . S
C263 C264 1.349 . S
C263 C265 1.327 . S
C263 H286 0.950 . S
C264 C263 1.349 . S
C264 C276 1.349 . S
C265 C263 1.327 . S
C265 C281 1.429 . S
C265 H287 0.950 . S
C266 H262 0.949 . S
C266 C274 1.574 . S
C266 C282 1.368 . S
H267 C275 0.950 . S
H268 C273 0.950 . S
H269 C274 0.949 . S
H270 C276 0.950 . S
H271 C277 0.950 . S
H272 C278 0.949 . S
C273 H268 0.950 . S
C273 C275 1.327 . S
C273 C279 1.429 . S
C274 C266 1.574 . S
C274 H269 0.949 . S
C274 C280 1.368 . S
C275 C259 1.349 . S
C275 H267 0.950 . S
C275 C273 1.327 . S
C276 C264 1.349 . S
C276 H270 0.950 . S
C276 C277 1.327 . S
C277 H271 0.950 . S
C277 C276 1.327 . S
C277 C281 1.429 . S
C278 C261 1.574 . S
C278 H272 0.949 . S
C278 C282 1.368 . S
C279 C260 1.429 . S
C279 C273 1.429 . S
C279 C280 1.523 . S
C280 C261 1.368 . S
C280 C274 1.368 . S
C280 C279 1.523 . S
C281 C265 1.429 . S
C281 C277 1.429 . S
C281 C282 1.523 . S
C282 C266 1.368 . S
C282 C278 1.368 . S
C282 C281 1.523 . S
H283 C258 0.950 . S
H284 C260 0.950 . S
H285 C261 0.949 . S
H286 C263 0.950 . S
H287 C265 0.950 . S
C288 C289 1.349 . S
C288 C290 1.327 . S
C288 H313 0.950 . S
C289 C288 1.349 . S
C289 C305 1.349 . S
C290 C288 1.327 . S
C290 C309 1.429 . S
C290 H314 0.950 . S
C291 C308 1.574 . S
C291 C310 1.368 . S
C291 H315 0.949 . S
H292 C296 0.949 . S
C293 C294 1.349 . S
C293 C295 1.327 . S
C293 H316 0.950 . S
C294 C293 1.349 . S
C294 C306 1.349 . S
C295 C293 1.327 . S
C295 C311 1.429 . S
C295 H317 0.950 . S
C296 H292 0.949 . S
C296 C304 1.574 . S
C296 C312 1.368 . S
H297 C305 0.950 . S
H298 C303 0.950 . S
H299 C304 0.949 . S
H300 C306 0.950 . S
H301 C307 0.950 . S
H302 C308 0.949 . S
C303 H298 0.950 . S
C303 C305 1.327 . S
C303 C309 1.429 . S
C304 C296 1.574 . S
C304 H299 0.949 . S
C304 C310 1.368 . S
C305 C289 1.349 . S
C305 H297 0.950 . S
C305 C303 1.327 . S
C306 C294 1.349 . S
C306 H300 0.950 . S
C306 C307 1.327 . S
C307 H301 0.950 . S
C307 C306 1.327 . S
C307 C311 1.429 . S
C308 C291 1.574 . S
C308 H302 0.949 . S
C308 C312 1.368 . S
C309 C290 1.429 . S
C309 C303 1.429 . S
C309 C310 1.523 . S
C310 C291 1.368 . S
C310 C304 1.368 . S
C310 C309 1.523 . S
C311 C295 1.429 . S
C311 C307 1.429 . S
C311 C312 1.523 . S
C312 C296 1.368 . S
C312 C308 1.368 . S
C312 C311 1.523 . S
H313 C288 0.950 . S
H314 C290 0.950 . S
H315 C291 0.949 . S
H316 C293 0.950 . S
H317 C295 0.950 . S
C318 C319 1.349 . S
C318 C320 1.327 . S
C318 H343 0.950 . S
C319 C318 1.349 . S
C319 C335 1.349 . S
C320 C318 1.327 . S
C320 C339 1.429 . S
C320 H344 0.950 . S
C321 C338 1.574 . S
C321 C340 1.368 . S
C321 H345 0.949 . S
H322 C326 0.949 . S
C323 C324 1.349 . S
C323 C325 1.327 . S
C323 H346 0.950 . S
C324 C323 1.349 . S
C324 C336 1.349 . S
C325 C323 1.327 . S
C325 C341 1.429 . S
C325 H347 0.950 . S
C326 H322 0.949 . S
C326 C334 1.574 . S
C326 C342 1.368 . S
H327 C335 0.950 . S
H328 C333 0.950 . S
H329 C334 0.949 . S
H330 C336 0.950 . S
H331 C337 0.950 . S
H332 C338 0.949 . S
C333 H328 0.950 . S
C333 C335 1.327 . S
C333 C339 1.429 . S
C334 C326 1.574 . S
C334 H329 0.949 . S
C334 C340 1.368 . S
C335 C319 1.349 . S
C335 H327 0.950 . S
C335 C333 1.327 . S
C336 C324 1.349 . S
C336 H330 0.950 . S
C336 C337 1.327 . S
C337 H331 0.950 . S
C337 C336 1.327 . S
C337 C341 1.429 . S
C338 C321 1.574 . S
C338 H332 0.949 . S
C338 C342 1.368 . S
C339 C320 1.429 . S
C339 C333 1.429 . S
C339 C340 1.523 . S
C340 C321 1.368 . S
C340 C334 1.368 . S
C340 C339 1.523 . S
C341 C325 1.429 . S
C341 C337 1.429 . S
C341 C342 1.523 . S
C342 C326 1.368 . S
C342 C338 1.368 . S
C342 C341 1.523 . S
H343 C318 0.950 . S
H344 C320 0.950 . S
H345 C321 0.949 . S
H346 C323 0.950 . S
H347 C325 0.950 . S
C348 C349 1.349 . S
C348 C350 1.327 . S
C348 H373 0.950 . S
C349 C348 1.349 . S
C349 C365 1.349 . S
C350 C348 1.327 . S
C350 C369 1.429 . S
C350 H374 0.950 . S
C351 C368 1.574 1_544 S
C351 C370 1.368 . S
C351 H375 0.949 . S
H352 C356 0.979 1_565 S
C353 C354 1.349 . S
C353 C355 1.327 . S
C353 H376 0.950 . S
C354 C353 1.349 . S
C354 C366 1.349 . S
C355 C353 1.327 . S
C355 C371 1.429 . S
C355 H377 0.950 . S
C356 H352 0.979 1_545 S
C356 C364 1.604 1_556 S
C356 C372 1.321 1_545 S
H357 C365 0.950 . S
H358 C363 0.950 . S
H359 C364 0.949 . S
H360 C366 0.950 . S
H361 C367 0.950 . S
H362 C368 0.949 . S
C363 H358 0.950 . S
C363 C365 1.327 . S
C363 C369 1.429 . S
C364 C356 1.604 1_554 S
C364 H359 0.949 . S
C364 C370 1.368 . S
C365 C349 1.349 . S
C365 H357 0.950 . S
C365 C363 1.327 . S
C366 C354 1.349 . S
C366 H360 0.950 . S
C366 C367 1.327 . S
C367 H361 0.950 . S
C367 C366 1.327 . S
C367 C371 1.429 . S
C368 C351 1.574 1_566 S
C368 H362 0.949 . S
C368 C372 1.368 . S
C369 C350 1.429 . S
C369 C363 1.429 . S
C369 C370 1.523 . S
C370 C351 1.368 . S
C370 C364 1.368 . S
C370 C369 1.523 . S
C371 C355 1.429 . S
C371 C367 1.429 . S
C371 C372 1.523 . S
C372 C356 1.321 1_565 S
C372 C368 1.368 . S
C372 C371 1.523 . S
H373 C348 0.950 . S
H374 C350 0.950 . S
H375 C351 0.949 . S
H376 C353 0.950 . S
H377 C355 0.950 . S
C378 C379 1.349 . S
C378 C380 1.327 . S
C378 H403 0.950 . S
C379 C378 1.349 . S
C379 C395 1.349 . S
C380 C378 1.327 . S
C380 C399 1.429 . S
C380 H404 0.950 . S
C381 C398 1.574 . S
C381 C400 1.368 . S
C381 H405 0.949 . S
H382 C386 0.949 . S
C383 C384 1.349 . S
C383 C385 1.327 . S
C383 H406 0.950 . S
C384 C383 1.349 . S
C384 C396 1.349 . S
C385 C383 1.327 . S
C385 C401 1.429 . S
C385 H407 0.950 . S
C386 H382 0.949 . S
C386 C394 1.574 . S
C386 C402 1.368 . S
H387 C395 0.950 . S
H388 C393 0.950 . S
H389 C394 0.949 . S
H390 C396 0.950 . S
H391 C397 0.950 . S
H392 C398 0.949 . S
C393 H388 0.950 . S
C393 C395 1.327 . S
C393 C399 1.429 . S
C394 C386 1.574 . S
C394 H389 0.949 . S
C394 C400 1.368 . S
C395 C379 1.349 . S
C395 H387 0.950 . S
C395 C393 1.327 . S
C396 C384 1.349 . S
C396 H390 0.950 . S
C396 C397 1.327 . S
C397 H391 0.950 . S
C397 C396 1.327 . S
C397 C401 1.429 . S
C398 C381 1.574 . S
C398 H392 0.949 . S
C398 C402 1.368 . S
C399 C380 1.429 . S
C399 C393 1.429 . S
C399 C400 1.523 . S
C400 C381 1.368 . S
C400 C394 1.368 . S
C400 C399 1.523 . S
C401 C385 1.429 . S
C401 C397 1.429 . S
C401 C402 1.523 . S
C402 C386 1.368 . S
C402 C398 1.368 . S
C402 C401 1.523 . S
H403 C378 0.950 . S
H404 C380 0.950 . S
H405 C381 0.949 . S
H406 C383 0.950 . S
H407 C385 0.950 . S
C408 C409 1.349 . S
C408 C410 1.327 . S
C408 H433 0.950 . S
C409 C408 1.349 . S
C409 C425 1.349 . S
C410 C408 1.327 . S
C410 C429 1.429 . S
C410 H434 0.950 . S
C411 C428 1.574 1_455 S
C411 C430 1.368 . S
C411 H435 0.949 . S
H412 C416 0.949 . S
C413 C414 1.349 . S
C413 C415 1.327 . S
C413 H436 0.950 . S
C414 C413 1.349 . S
C414 C426 1.349 . S
C415 C413 1.327 . S
C415 C431 1.429 . S
C415 H437 0.950 . S
C416 H412 0.949 . S
C416 C424 1.574 1_655 S
C416 C432 1.368 . S
H417 C425 0.950 . S
H418 C423 0.950 . S
H419 C424 0.949 . S
H420 C426 0.950 . S
H421 C427 0.950 . S
H422 C428 0.949 . S
C423 H418 0.950 . S
C423 C425 1.327 . S
C423 C429 1.429 . S
C424 C416 1.574 1_455 S
C424 H419 0.949 . S
C424 C430 1.368 1_554 S
C425 C409 1.349 . S
C425 H417 0.950 . S
C425 C423 1.327 . S
C426 C414 1.349 . S
C426 H420 0.950 . S
C426 C427 1.327 . S
C427 H421 0.950 . S
C427 C426 1.327 . S
C427 C431 1.429 . S
C428 C411 1.574 1_655 S
C428 H422 0.949 . S
C428 C432 1.368 1_556 S
C429 C410 1.429 . S
C429 C423 1.429 . S
C429 C430 1.523 . S
C430 C411 1.368 . S
C430 C424 1.368 1_556 S
C430 C429 1.523 . S
C431 C415 1.429 . S
C431 C427 1.429 . S
C431 C432 1.523 . S
C432 C416 1.368 . S
C432 C428 1.368 1_554 S
C432 C431 1.523 . S
H433 C408 0.950 . S
H434 C410 0.950 . S
H435 C411 0.949 . S
H436 C413 0.950 . S
H437 C415 0.950 . S
C438 C439 1.349 . S
C438 C440 1.327 . S
C438 H463 0.950 . S
C439 C438 1.349 . S
C439 C455 1.349 . S
C440 C438 1.327 . S
C440 C459 1.429 . S
C440 H464 0.950 . S
C441 C458 1.574 . S
C441 C460 1.368 1_565 S
C441 H465 0.949 . S
H442 C446 0.951 . S
C443 C444 1.349 . S
C443 C445 1.327 . S
C443 H466 0.950 . S
C444 C443 1.349 . S
C444 C456 1.349 . S
C445 C443 1.327 . S
C445 C461 1.429 . S
C445 H467 0.950 . S
C446 H442 0.951 . S
C446 C454 1.576 . S
C446 C462 1.364 1_545 S
H447 C455 0.950 . S
H448 C453 0.950 . S
H449 C454 0.949 . S
H450 C456 0.950 . S
H451 C457 0.950 . S
H452 C458 0.949 . S
C453 H448 0.950 . S
C453 C455 1.327 . S
C453 C459 1.429 . S
C454 C446 1.576 . S
C454 H449 0.949 . S
C454 C460 1.368 . S
C455 C439 1.349 . S
C455 H447 0.950 . S
C455 C453 1.327 . S
C456 C444 1.349 . S
C456 H450 0.950 . S
C456 C457 1.327 . S
C457 H451 0.950 . S
C457 C456 1.327 . S
C457 C461 1.429 . S
C458 C441 1.574 . S
C458 H452 0.949 . S
C458 C462 1.368 . S
C459 C440 1.429 . S
C459 C453 1.429 . S
C459 C460 1.523 . S
C460 C441 1.368 1_545 S
C460 C454 1.368 . S
C460 C459 1.523 . S
C461 C445 1.429 . S
C461 C457 1.429 . S
C461 C462 1.523 . S
C462 C446 1.364 1_565 S
C462 C458 1.368 . S
C462 C461 1.523 . S
H463 C438 0.950 . S
H464 C440 0.950 . S
H465 C441 0.949 . S
H466 C443 0.950 . S
H467 C445 0.950 . S
C468 C469 1.349 . S
C468 C470 1.327 . S
C468 H493 0.950 . S
C469 C468 1.349 . S
C469 C485 1.349 . S
C470 C468 1.327 . S
C470 C489 1.429 . S
C470 H494 0.950 . S
C471 C488 1.574 . S
C471 C490 1.368 1_554 S
C471 H495 0.949 . S
H472 C476 0.949 . S
C473 C474 1.349 . S
C473 C475 1.327 . S
C473 H496 0.950 . S
C474 C473 1.349 . S
C474 C486 1.349 . S
C475 C473 1.327 . S
C475 C491 1.429 . S
C475 H497 0.950 . S
C476 H472 0.949 . S
C476 C484 1.574 . S
C476 C492 1.368 1_556 S
H477 C485 0.950 . S
H478 C483 0.950 . S
H479 C484 0.949 . S
H480 C486 0.950 . S
H481 C487 0.950 . S
H482 C488 0.949 . S
C483 H478 0.950 . S
C483 C485 1.327 . S
C483 C489 1.429 . S
C484 C476 1.574 . S
C484 H479 0.949 . S
C484 C490 1.368 . S
C485 C469 1.349 . S
C485 H477 0.950 . S
C485 C483 1.327 . S
C486 C474 1.349 . S
C486 H480 0.950 . S
C486 C487 1.327 . S
C487 H481 0.950 . S
C487 C486 1.327 . S
C487 C491 1.429 . S
C488 C471 1.574 . S
C488 H482 0.949 . S
C488 C492 1.368 . S
C489 C470 1.429 . S
C489 C483 1.429 . S
C489 C490 1.523 . S
C490 C471 1.368 1_556 S
C490 C484 1.368 . S
C490 C489 1.523 . S
C491 C475 1.429 . S
C491 C487 1.429 . S
C491 C492 1.523 . S
C492 C476 1.368 1_554 S
C492 C488 1.368 . S
C492 C491 1.523 . S
H493 C468 0.950 . S
H494 C470 0.950 . S
H495 C471 0.949 . S
H496 C473 0.950 . S
H497 C475 0.950 . S
C498 C499 1.349 . S
C498 C500 1.327 . S
C498 H523 0.950 . S
C499 C498 1.349 . S
C499 C515 1.349 . S
C500 C498 1.327 . S
C500 C519 1.429 . S
C500 H524 0.950 . S
C501 C518 1.574 1_655 S
C501 C520 1.368 . S
C501 H525 0.949 . S
H502 C506 0.949 . S
C503 C504 1.349 . S
C503 C505 1.327 . S
C503 H526 0.950 . S
C504 C503 1.349 . S
C504 C516 1.349 . S
C505 C503 1.327 . S
C505 C521 1.429 . S
C505 H527 0.950 . S
C506 H502 0.949 . S
C506 C514 1.574 1_455 S
C506 C522 1.368 . S
H507 C515 0.950 . S
H508 C513 0.950 . S
H509 C514 0.949 . S
H510 C516 0.950 . S
H511 C517 0.950 . S
H512 C518 0.949 . S
C513 H508 0.950 . S
C513 C515 1.327 . S
C513 C519 1.429 . S
C514 C506 1.574 1_655 S
C514 H509 0.949 . S
C514 C520 1.368 . S
C515 C499 1.349 . S
C515 H507 0.950 . S
C515 C513 1.327 . S
C516 C504 1.349 . S
C516 H510 0.950 . S
C516 C517 1.327 . S
C517 H511 0.950 . S
C517 C516 1.327 . S
C517 C521 1.429 . S
C518 C501 1.574 1_455 S
C518 H512 0.949 . S
C518 C522 1.368 . S
C519 C500 1.429 . S
C519 C513 1.429 . S
C519 C520 1.523 . S
C520 C501 1.368 . S
C520 C514 1.368 . S
C520 C519 1.523 . S
C521 C505 1.429 . S
C521 C517 1.429 . S
C521 C522 1.523 . S
C522 C506 1.368 . S
C522 C518 1.368 . S
C522 C521 1.523 . S
H523 C498 0.950 . S
H524 C500 0.950 . S
H525 C501 0.949 . S
H526 C503 0.950 . S
H527 C505 0.950 . S
C528 C529 1.349 . S
C528 C530 1.327 . S
C528 H553 0.950 . S
C529 C528 1.349 . S
C529 C545 1.349 . S
C530 C528 1.327 . S
C530 C549 1.429 . S
C530 H554 0.950 . S
C531 C548 1.574 . S
C531 C550 1.368 . S
C531 H555 0.949 . S
H532 C536 0.949 . S
C533 C534 1.349 . S
C533 C535 1.327 . S
C533 H556 0.950 . S
C534 C533 1.349 . S
C534 C546 1.349 . S
C535 C533 1.327 . S
C535 C551 1.429 . S
C535 H557 0.950 . S
C536 H532 0.949 . S
C536 C544 1.574 . S
C536 C552 1.368 . S
H537 C545 0.950 . S
H538 C543 0.950 . S
H539 C544 0.949 . S
H540 C546 0.950 . S
H541 C547 0.950 . S
H542 C548 0.949 . S
C543 H538 0.950 . S
C543 C545 1.327 . S
C543 C549 1.429 . S
C544 C536 1.574 . S
C544 H539 0.949 . S
C544 C550 1.368 . S
C545 C529 1.349 . S
C545 H537 0.950 . S
C545 C543 1.327 . S
C546 C534 1.349 . S
C546 H540 0.950 . S
C546 C547 1.327 . S
C547 H541 0.950 . S
C547 C546 1.327 . S
C547 C551 1.429 . S
C548 C531 1.574 . S
C548 H542 0.949 . S
C548 C552 1.368 . S
C549 C530 1.429 . S
C549 C543 1.429 . S
C549 C550 1.523 . S
C550 C531 1.368 . S
C550 C544 1.368 . S
C550 C549 1.523 . S
C551 C535 1.429 . S
C551 C547 1.429 . S
C551 C552 1.523 . S
C552 C536 1.368 . S
C552 C548 1.368 . S
C552 C551 1.523 . S
H553 C528 0.950 . S
H554 C530 0.950 . S
H555 C531 0.949 . S
H556 C533 0.950 . S
H557 C535 0.950 . S
C558 C559 1.349 . S
C558 C560 1.327 . S
C558 H583 0.950 . S
C559 C558 1.349 . S
C559 C575 1.349 . S
C560 C558 1.327 . S
C560 C579 1.429 . S
C560 H584 0.950 . S
C561 C578 1.574 . S
C561 C580 1.368 . S
C561 H585 0.949 . S
H562 C566 0.949 . S
C563 C564 1.349 . S
C563 C565 1.327 . S
C563 H586 0.950 . S
C564 C563 1.349 . S
C564 C576 1.349 . S
C565 C563 1.327 . S
C565 C581 1.429 . S
C565 H587 0.950 . S
C566 H562 0.949 . S
C566 C574 1.574 . S
C566 C582 1.368 . S
H567 C575 0.950 . S
H568 C573 0.950 . S
H569 C574 0.949 . S
H570 C576 0.950 . S
H571 C577 0.950 . S
H572 C578 0.949 . S
C573 H568 0.950 . S
C573 C575 1.327 . S
C573 C579 1.429 . S
C574 C566 1.574 . S
C574 H569 0.949 . S
C574 C580 1.368 . S
C575 C559 1.349 . S
C575 H567 0.950 . S
C575 C573 1.327 . S
C576 C564 1.349 . S
C576 H570 0.950 . S
C576 C577 1.327 . S
C577 H571 0.950 . S
C577 C576 1.327 . S
C577 C581 1.429 . S
C578 C561 1.574 . S
C578 H572 0.949 . S
C578 C582 1.368 . S
C579 C560 1.429 . S
C579 C573 1.429 . S
C579 C580 1.523 . S
C580 C561 1.368 . S
C580 C574 1.368 . S
C580 C579 1.523 . S
C581 C565 1.429 . S
C581 C577 1.429 . S
C581 C582 1.523 . S
C582 C566 1.368 . S
C582 C578 1.368 . S
C582 C581 1.523 . S
H583 C558 0.950 . S
H584 C560 0.950 . S
H585 C561 0.949 . S
H586 C563 0.950 . S
H587 C565 0.950 . S
C588 C589 1.349 . S
C588 C590 1.327 . S
C588 H613 0.950 . S
C589 C588 1.349 . S
C589 C605 1.349 . S
C590 C588 1.327 . S
C590 C609 1.429 . S
C590 H614 0.950 . S
C591 C608 1.574 . S
C591 C610 1.368 . S
C591 H615 0.949 . S
H592 C596 0.949 . S
C593 C594 1.349 . S
C593 C595 1.327 . S
C593 H616 0.950 . S
C594 C593 1.349 . S
C594 C606 1.349 . S
C595 C593 1.327 . S
C595 C611 1.429 . S
C595 H617 0.950 . S
C596 H592 0.949 . S
C596 C604 1.574 . S
C596 C612 1.368 . S
H597 C605 0.950 . S
H598 C603 0.950 . S
H599 C604 0.949 . S
H600 C606 0.950 . S
H601 C607 0.950 . S
H602 C608 0.949 . S
C603 H598 0.950 . S
C603 C605 1.327 . S
C603 C609 1.429 . S
C604 C596 1.574 . S
C604 H599 0.949 . S
C604 C610 1.368 . S
C605 C589 1.349 . S
C605 H597 0.950 . S
C605 C603 1.327 . S
C606 C594 1.349 . S
C606 H600 0.950 . S
C606 C607 1.327 . S
C607 H601 0.950 . S
C607 C606 1.327 . S
C607 C611 1.429 . S
C608 C591 1.574 . S
C608 H602 0.949 . S
C608 C612 1.368 . S
C609 C590 1.429 . S
C609 C603 1.429 . S
C609 C610 1.523 . S
C610 C591 1.368 . S
C610 C604 1.368 . S
C610 C609 1.523 . S
C611 C595 1.429 . S
C611 C607 1.429 . S
C611 C612 1.523 . S
C612 C596 1.368 . S
C612 C608 1.368 . S
C612 C611 1.523 . S
H613 C588 0.950 . S
H614 C590 0.950 . S
H615 C591 0.949 . S
H616 C593 0.950 . S
H617 C595 0.950 . S
C618 C619 1.349 . S
C618 C620 1.327 . S
C618 H643 0.950 . S
C619 C618 1.349 . S
C619 C635 1.349 . S
C620 C618 1.327 . S
C620 C639 1.429 . S
C620 H644 0.950 . S
C621 C638 1.574 . S
C621 C640 1.368 . S
C621 H645 0.949 . S
H622 C626 0.949 . S
C623 C624 1.349 . S
C623 C625 1.327 . S
C623 H646 0.950 . S
C624 C623 1.349 . S
C624 C636 1.349 . S
C625 C623 1.327 . S
C625 C641 1.429 . S
C625 H647 0.950 . S
C626 H622 0.949 . S
C626 C634 1.574 . S
C626 C642 1.368 . S
H627 C635 0.950 . S
H628 C633 0.950 . S
H629 C634 0.949 . S
H630 C636 0.950 . S
H631 C637 0.950 . S
H632 C638 0.949 . S
C633 H628 0.950 . S
C633 C635 1.327 . S
C633 C639 1.429 . S
C634 C626 1.574 . S
C634 H629 0.949 . S
C634 C640 1.368 . S
C635 C619 1.349 . S
C635 H627 0.950 . S
C635 C633 1.327 . S
C636 C624 1.349 . S
C636 H630 0.950 . S
C636 C637 1.327 . S
C637 H631 0.950 . S
C637 C636 1.327 . S
C637 C641 1.429 . S
C638 C621 1.574 . S
C638 H632 0.949 . S
C638 C642 1.368 . S
C639 C620 1.429 . S
C639 C633 1.429 . S
C639 C640 1.523 . S
C640 C621 1.368 . S
C640 C634 1.368 . S
C640 C639 1.523 . S
C641 C625 1.429 . S
C641 C637 1.429 . S
C641 C642 1.523 . S
C642 C626 1.368 . S
C642 C638 1.368 . S
C642 C641 1.523 . S
H643 C618 0.950 . S
H644 C620 0.950 . S
H645 C621 0.949 . S
H646 C623 0.950 . S
H647 C625 0.950 . S
C648 C649 1.349 . S
C648 C650 1.327 . S
C648 H673 0.950 . S
C649 C648 1.349 . S
C649 C665 1.349 . S
C650 C648 1.327 . S
C650 C669 1.429 . S
C650 H674 0.950 . S
C651 C668 1.574 . S
C651 C670 1.368 . S
C651 H675 0.949 . S
H652 C656 0.949 . S
C653 C654 1.349 . S
C653 C655 1.327 . S
C653 H676 0.950 . S
C654 C653 1.349 . S
C654 C666 1.349 . S
C655 C653 1.327 . S
C655 C671 1.429 . S
C655 H677 0.950 . S
C656 H652 0.949 . S
C656 C664 1.574 . S
C656 C672 1.368 . S
H657 C665 0.950 . S
H658 C663 0.950 . S
H659 C664 0.949 . S
H660 C666 0.950 . S
H661 C667 0.950 . S
H662 C668 0.949 . S
C663 H658 0.950 . S
C663 C665 1.327 . S
C663 C669 1.429 . S
C664 C656 1.574 . S
C664 H659 0.949 . S
C664 C670 1.368 . S
C665 C649 1.349 . S
C665 H657 0.950 . S
C665 C663 1.327 . S
C666 C654 1.349 . S
C666 H660 0.950 . S
C666 C667 1.327 . S
C667 H661 0.950 . S
C667 C666 1.327 . S
C667 C671 1.429 . S
C668 C651 1.574 . S
C668 H662 0.949 . S
C668 C672 1.368 . S
C669 C650 1.429 . S
C669 C663 1.429 . S
C669 C670 1.523 . S
C670 C651 1.368 . S
C670 C664 1.368 . S
C670 C669 1.523 . S
C671 C655 1.429 . S
C671 C667 1.429 . S
C671 C672 1.523 . S
C672 C656 1.368 . S
C672 C668 1.368 . S
C672 C671 1.523 . S
H673 C648 0.950 . S
H674 C650 0.950 . S
H675 C651 0.949 . S
H676 C653 0.950 . S
H677 C655 0.950 . S
C678 C679 1.349 . S
C678 C680 1.327 . S
C678 H703 0.950 . S
C679 C678 1.349 . S
C679 C695 1.349 . S
C680 C678 1.327 . S
C680 C699 1.429 . S
C680 H704 0.950 . S
C681 C698 1.574 . S
C681 C700 1.368 . S
C681 H705 0.949 . S
H682 C686 0.949 . S
C683 C684 1.349 . S
C683 C685 1.327 . S
C683 H706 0.950 . S
C684 C683 1.349 . S
C684 C696 1.349 . S
C685 C683 1.327 . S
C685 C701 1.429 . S
C685 H707 0.950 . S
C686 H682 0.949 . S
C686 C694 1.574 . S
C686 C702 1.368 . S
H687 C695 0.950 . S
H688 C693 0.950 . S
H689 C694 0.949 . S
H690 C696 0.950 . S
H691 C697 0.950 . S
H692 C698 0.949 . S
C693 H688 0.950 . S
C693 C695 1.327 . S
C693 C699 1.429 . S
C694 C686 1.574 . S
C694 H689 0.949 . S
C694 C700 1.368 . S
C695 C679 1.349 . S
C695 H687 0.950 . S
C695 C693 1.327 . S
C696 C684 1.349 . S
C696 H690 0.950 . S
C696 C697 1.327 . S
C697 H691 0.950 . S
C697 C696 1.327 . S
C697 C701 1.429 . S
C698 C681 1.574 . S
C698 H692 0.949 . S
C698 C702 1.368 . S
C699 C680 1.429 . S
C699 C693 1.429 . S
C699 C700 1.523 . S
C700 C681 1.368 . S
C700 C694 1.368 . S
C700 C699 1.523 . S
C701 C685 1.429 . S
C701 C697 1.429 . S
C701 C702 1.523 . S
C702 C686 1.368 . S
C702 C698 1.368 . S
C702 C701 1.523 . S
H703 C678 0.950 . S
H704 C680 0.950 . S
H705 C681 0.949 . S
H706 C683 0.950 . S
H707 C685 0.950 . S
C708 C709 1.349 . S
C708 C710 1.327 . S
C708 H733 0.950 . S
C709 C708 1.349 . S
C709 C725 1.349 . S
C710 C708 1.327 . S
C710 C729 1.429 . S
C710 H734 0.950 . S
C711 C728 1.574 . S
C711 C730 1.368 . S
C711 H735 0.949 . S
H712 C716 0.949 . S
C713 C714 1.349 . S
C713 C715 1.327 . S
C713 H736 0.950 . S
C714 C713 1.349 . S
C714 C726 1.349 . S
C715 C713 1.327 . S
C715 C731 1.429 . S
C715 H737 0.950 . S
C716 H712 0.949 . S
C716 C724 1.574 . S
C716 C732 1.368 . S
H717 C725 0.950 . S
H718 C723 0.950 . S
H719 C724 0.949 . S
H720 C726 0.950 . S
H721 C727 0.950 . S
H722 C728 0.949 . S
C723 H718 0.950 . S
C723 C725 1.327 . S
C723 C729 1.429 . S
C724 C716 1.574 . S
C724 H719 0.949 . S
C724 C730 1.368 . S
C725 C709 1.349 . S
C725 H717 0.950 . S
C725 C723 1.327 . S
C726 C714 1.349 . S
C726 H720 0.950 . S
C726 C727 1.327 . S
C727 H721 0.950 . S
C727 C726 1.327 . S
C727 C731 1.429 . S
C728 C711 1.574 . S
C728 H722 0.949 . S
C728 C732 1.368 . S
C729 C710 1.429 . S
C729 C723 1.429 . S
C729 C730 1.523 . S
C730 C711 1.368 . S
C730 C724 1.368 . S
C730 C729 1.523 . S
C731 C715 1.429 . S
C731 C727 1.429 . S
C731 C732 1.523 . S
C732 C716 1.368 . S
C732 C728 1.368 . S
C732 C731 1.523 . S
H733 C708 0.950 . S
H734 C710 0.950 . S
H735 C711 0.949 . S
H736 C713 0.950 . S
H737 C715 0.950 . S
C738 C739 1.349 . S
C738 C740 1.327 . S
C738 H763 0.950 . S
C739 C738 1.349 . S
C739 C755 1.349 . S
C740 C738 1.327 . S
C740 C759 1.429 . S
C740 H764 0.950 . S
C741 C758 1.574 . S
C741 C760 1.368 . S
C741 H765 0.949 . S
H742 C746 0.949 . S
C743 C744 1.349 . S
C743 C745 1.327 . S
C743 H766 0.950 . S
C744 C743 1.349 . S
C744 C756 1.349 . S
C745 C743 1.327 . S
C745 C761 1.429 . S
C745 H767 0.950 . S
C746 H742 0.949 . S
C746 C754 1.574 . S
C746 C762 1.368 . S
H747 C755 0.950 . S
H748 C753 0.950 . S
H749 C754 0.949 . S
H750 C756 0.950 . S
H751 C757 0.950 . S
H752 C758 0.949 . S
C753 H748 0.950 . S
C753 C755 1.327 . S
C753 C759 1.429 . S
C754 C746 1.574 . S
C754 H749 0.949 . S
C754 C760 1.368 . S
C755 C739 1.349 . S
C755 H747 0.950 . S
C755 C753 1.327 . S
C756 C744 1.349 . S
C756 H750 0.950 . S
C756 C757 1.327 . S
C757 H751 0.950 . S
C757 C756 1.327 . S
C757 C761 1.429 . S
C758 C741 1.574 . S
C758 H752 0.949 . S
C758 C762 1.368 . S
C759 C740 1.429 . S
C759 C753 1.429 . S
C759 C760 1.523 . S
C760 C741 1.368 . S
C760 C754 1.368 . S
C760 C759 1.523 . S
C761 C745 1.429 . S
C761 C757 1.429 . S
C761 C762 1.523 . S
C762 C746 1.368 . S
C762 C758 1.368 . S
C762 C761 1.523 . S
H763 C738 0.950 . S
H764 C740 0.950 . S
H765 C741 0.949 . S
H766 C743 0.950 . S
H767 C745 0.950 . S
C768 C769 1.349 . S
C768 C770 1.327 . S
C768 H793 0.950 . S
C769 C768 1.349 . S
C769 C785 1.349 . S
C770 C768 1.327 . S
C770 C789 1.429 . S
C770 H794 0.950 . S
C771 C788 1.574 . S
C771 C790 1.368 . S
C771 H795 0.949 . S
H772 C776 0.949 . S
C773 C774 1.349 . S
C773 C775 1.327 . S
C773 H796 0.950 . S
C774 C773 1.349 . S
C774 C786 1.349 . S
C775 C773 1.327 . S
C775 C791 1.429 . S
C775 H797 0.950 . S
C776 H772 0.949 . S
C776 C784 1.574 . S
C776 C792 1.368 . S
H777 C785 0.950 . S
H778 C783 0.950 . S
H779 C784 0.949 . S
H780 C786 0.950 . S
H781 C787 0.950 . S
H782 C788 0.949 . S
C783 H778 0.950 . S
C783 C785 1.327 . S
C783 C789 1.429 . S
C784 C776 1.574 . S
C784 H779 0.949 . S
C784 C790 1.368 . S
C785 C769 1.349 . S
C785 H777 0.950 . S
C785 C783 1.327 . S
C786 C774 1.349 . S
C786 H780 0.950 . S
C786 C787 1.327 . S
C787 H781 0.950 . S
C787 C786 1.327 . S
C787 C791 1.429 . S
C788 C771 1.574 . S
C788 H782 0.949 . S
C788 C792 1.368 . S
C789 C770 1.429 . S
C789 C783 1.429 . S
C789 C790 1.523 . S
C790 C771 1.368 . S
C790 C784 1.368 . S
C790 C789 1.523 . S
C791 C775 1.429 . S
C791 C787 1.429 . S
C791 C792 1.523 . S
C792 C776 1.368 . S
C792 C788 1.368 . S
C792 C791 1.523 . S
H793 C768 0.950 . S
H794 C770 0.950 . S
H795 C771 0.949 . S
H796 C773 0.950 . S
H797 C775 0.950 . S
C798 C799 1.349 . S
C798 C800 1.327 . S
C798 H823 0.950 . S
C799 C798 1.349 . S
C799 C815 1.349 . S
C800 C798 1.327 . S
C800 C819 1.429 . S
C800 H824 0.950 . S
C801 C818 1.574 . S
C801 C820 1.368 . S
C801 H825 0.949 . S
H802 C806 0.949 . S
C803 C804 1.349 . S
C803 C805 1.327 . S
C803 H826 0.950 . S
C804 C803 1.349 . S
C804 C816 1.349 . S
C805 C803 1.327 . S
C805 C821 1.429 . S
C805 H827 0.950 . S
C806 H802 0.949 . S
C806 C814 1.574 . S
C806 C822 1.368 . S
H807 C815 0.950 . S
H808 C813 0.950 . S
H809 C814 0.949 . S
H810 C816 0.950 . S
H811 C817 0.950 . S
H812 C818 0.949 . S
C813 H808 0.950 . S
C813 C815 1.327 . S
C813 C819 1.429 . S
C814 C806 1.574 . S
C814 H809 0.949 . S
C814 C820 1.368 . S
C815 C799 1.349 . S
C815 H807 0.950 . S
C815 C813 1.327 . S
C816 C804 1.349 . S
C816 H810 0.950 . S
C816 C817 1.327 . S
C817 H811 0.950 . S
C817 C816 1.327 . S
C817 C821 1.429 . S
C818 C801 1.574 . S
C818 H812 0.949 . S
C818 C822 1.368 . S
C819 C800 1.429 . S
C819 C813 1.429 . S
C819 C820 1.523 . S
C820 C801 1.368 . S
C820 C814 1.368 . S
C820 C819 1.523 . S
C821 C805 1.429 . S
C821 C817 1.429 . S
C821 C822 1.523 . S
C822 C806 1.368 . S
C822 C818 1.368 . S
C822 C821 1.523 . S
H823 C798 0.950 . S
H824 C800 0.950 . S
H825 C801 0.949 . S
H826 C803 0.950 . S
H827 C805 0.950 . S
C828 C829 1.349 . S
C828 C830 1.327 . S
C828 H853 0.950 . S
C829 C828 1.349 . S
C829 C845 1.349 . S
C830 C828 1.327 . S
C830 C849 1.429 . S
C830 H854 0.950 . S
C831 C848 1.574 . S
C831 C850 1.368 . S
C831 H855 0.949 . S
H832 C836 0.949 . S
C833 C834 1.349 . S
C833 C835 1.327 . S
C833 H856 0.950 . S
C834 C833 1.349 . S
C834 C846 1.349 . S
C835 C833 1.327 . S
C835 C851 1.429 . S
C835 H857 0.950 . S
C836 H832 0.949 . S
C836 C844 1.574 . S
C836 C852 1.368 . S
H837 C845 0.950 . S
H838 C843 0.950 . S
H839 C844 0.949 . S
H840 C846 0.950 . S
H841 C847 0.950 . S
H842 C848 0.949 . S
C843 H838 0.950 . S
C843 C845 1.327 . S
C843 C849 1.429 . S
C844 C836 1.574 . S
C844 H839 0.949 . S
C844 C850 1.368 . S
C845 C829 1.349 . S
C845 H837 0.950 . S
C845 C843 1.327 . S
C846 C834 1.349 . S
C846 H840 0.950 . S
C846 C847 1.327 . S
C847 H841 0.950 . S
C847 C846 1.327 . S
C847 C851 1.429 . S
C848 C831 1.574 . S
C848 H842 0.949 . S
C848 C852 1.368 . S
C849 C830 1.429 . S
C849 C843 1.429 . S
C849 C850 1.523 . S
C850 C831 1.368 . S
C850 C844 1.368 . S
C850 C849 1.523 . S
C851 C835 1.429 . S
C851 C847 1.429 . S
C851 C852 1.523 . S
C852 C836 1.368 . S
C852 C848 1.368 . S
C852 C851 1.523 . S
H853 C828 0.950 . S
H854 C830 0.950 . S
H855 C831 0.949 . S
H856 C833 0.950 . S
H857 C835 0.950 . S
C858 C859 1.349 . S
C858 C860 1.327 . S
C858 H883 0.950 . S
C859 C858 1.349 . S
C859 C875 1.349 . S
C860 C858 1.327 . S
C860 C879 1.429 . S
C860 H884 0.950 . S
C861 C878 1.574 . S
C861 C880 1.368 . S
C861 H885 0.949 . S
H862 C866 0.949 . S
C863 C864 1.349 . S
C863 C865 1.327 . S
C863 H886 0.950 . S
C864 C863 1.349 . S
C864 C876 1.349 . S
C865 C863 1.327 . S
C865 C881 1.429 . S
C865 H887 0.950 . S
C866 H862 0.949 . S
C866 C874 1.574 . S
C866 C882 1.368 . S
H867 C875 0.950 . S
H868 C873 0.950 . S
H869 C874 0.949 . S
H870 C876 0.950 . S
H871 C877 0.950 . S
H872 C878 0.949 . S
C873 H868 0.950 . S
C873 C875 1.327 . S
C873 C879 1.429 . S
C874 C866 1.574 . S
C874 H869 0.949 . S
C874 C880 1.368 . S
C875 C859 1.349 . S
C875 H867 0.950 . S
C875 C873 1.327 . S
C876 C864 1.349 . S
C876 H870 0.950 . S
C876 C877 1.327 . S
C877 H871 0.950 . S
C877 C876 1.327 . S
C877 C881 1.429 . S
C878 C861 1.574 . S
C878 H872 0.949 . S
C878 C882 1.368 . S
C879 C860 1.429 . S
C879 C873 1.429 . S
C879 C880 1.523 . S
C880 C861 1.368 . S
C880 C874 1.368 . S
C880 C879 1.523 . S
C881 C865 1.429 . S
C881 C877 1.429 . S
C881 C882 1.523 . S
C882 C866 1.368 . S
C882 C878 1.368 . S
C882 C881 1.523 . S
H883 C858 0.950 . S
H884 C860 0.950 . S
H885 C861 0.949 . S
H886 C863 0.950 . S
H887 C865 0.950 . S
C169 C147 1.413 . S
C174 C7 1.402 . S
C199 C21 1.307 . S
C204 C160 1.308 . S
C229 C34 1.413 . S
C234 C91 1.402 . S
C259 C105 1.413 . S
C264 C49 1.402 . S
C289 C118 1.308 . S
C294 C63 1.308 . S
C319 C76 1.413 . S
C324 C133 1.402 . S
C349 C6 0.784 . S
C354 C104 0.780 . S
C379 C20 0.723 . S
C384 C119 0.723 . S
C409 C132 0.784 . S
C414 C35 0.780 . S
C439 C146 0.780 . S
C444 C48 0.784 . S
C469 C161 0.724 . S
C474 C62 0.724 . S
C499 C90 0.784 . S
C504 C77 0.780 . S
C529 C8 1.009 . S
C534 C65 1.011 . S
C559 C22 1.111 . S
C564 C78 1.128 . S
C589 C37 0.983 . S
C594 C9 0.993 . S
C619 C50 1.010 . S
C624 C23 1.012 . S
C649 C64 1.112 . S
C654 C36 1.129 . S
C679 C79 0.983 . S
C684 C51 0.992 . S
C709 C92 1.009 . S
C714 C120 1.011 . S
C739 C106 0.983 . S
C744 C135 0.993 . S
C769 C149 1.128 . S
C774 C121 1.112 . S
C799 C134 1.010 . S
C804 C162 1.012 . S
C829 C148 0.983 . S
C834 C93 0.992 . S
C859 C163 1.112 . S
C864 C107 1.128 . S
