# Generated by pormake.
# Topology yfw, (5)-cn, num edge types: 1
# Building blocks:
#     Node 0, Type 0, BuildingBlock: BEQFEK_clean_sbu_0, # of connection points: 5
#     Node 1, Type 0, BuildingBlock: BEQFEK_clean_sbu_0, # of connection points: 5
#     Node 2, Type 0, BuildingBlock: BEQFEK_clean_sbu_0, # of connection points: 5
#     Node 3, Type 0, BuildingBlock: BEQFEK_clean_sbu_0, # of connection points: 5
#     Node 4, Type 0, BuildingBlock: BEQFEK_clean_sbu_0, # of connection points: 5
#     Node 5, Type 0, BuildingBlock: BEQFEK_clean_sbu_0, # of connection points: 5
#     Node 6, Type 0, BuildingBlock: BEQFEK_clean_sbu_0, # of connection points: 5
#     Node 7, Type 0, BuildingBlock: BEQFEK_clean_sbu_0, # of connection points: 5
#     Node 8, Type 0, BuildingBlock: BEQFEK_clean_sbu_0, # of connection points: 5
#     Node 9, Type 0, BuildingBlock: BEQFEK_clean_sbu_0, # of connection points: 5
#     Node 10, Type 0, BuildingBlock: BEQFEK_clean_sbu_0, # of connection points: 5
#     Node 11, Type 0, BuildingBlock: BEQFEK_clean_sbu_0, # of connection points: 5
#     Node 12, Type 0, BuildingBlock: BEQFEK_clean_sbu_0, # of connection points: 5
#     Node 13, Type 0, BuildingBlock: BEQFEK_clean_sbu_0, # of connection points: 5
#     Node 14, Type 0, BuildingBlock: BEQFEK_clean_sbu_0, # of connection points: 5
#     Node 15, Type 0, BuildingBlock: BEQFEK_clean_sbu_0, # of connection points: 5
#     Edge 16, Type (0, 0), BuildingBlock: CIFDUS_clean_linker_0, # of connection points: 2
#     Edge 17, Type (0, 0), BuildingBlock: CIFDUS_clean_linker_0, # of connection points: 2
#     Edge 18, Type (0, 0), BuildingBlock: CIFDUS_clean_linker_0, # of connection points: 2
#     Edge 19, Type (0, 0), BuildingBlock: CIFDUS_clean_linker_0, # of connection points: 2
#     Edge 20, Type (0, 0), BuildingBlock: CIFDUS_clean_linker_0, # of connection points: 2
#     Edge 21, Type (0, 0), BuildingBlock: CIFDUS_clean_linker_0, # of connection points: 2
#     Edge 22, Type (0, 0), BuildingBlock: CIFDUS_clean_linker_0, # of connection points: 2
#     Edge 23, Type (0, 0), BuildingBlock: CIFDUS_clean_linker_0, # of connection points: 2
#     Edge 24, Type (0, 0), BuildingBlock: CIFDUS_clean_linker_0, # of connection points: 2
#     Edge 25, Type (0, 0), BuildingBlock: CIFDUS_clean_linker_0, # of connection points: 2
#     Edge 26, Type (0, 0), BuildingBlock: CIFDUS_clean_linker_0, # of connection points: 2
#     Edge 27, Type (0, 0), BuildingBlock: CIFDUS_clean_linker_0, # of connection points: 2
#     Edge 28, Type (0, 0), BuildingBlock: CIFDUS_clean_linker_0, # of connection points: 2
#     Edge 29, Type (0, 0), BuildingBlock: CIFDUS_clean_linker_0, # of connection points: 2
#     Edge 30, Type (0, 0), BuildingBlock: CIFDUS_clean_linker_0, # of connection points: 2
#     Edge 31, Type (0, 0), BuildingBlock: CIFDUS_clean_linker_0, # of connection points: 2
#     Edge 32, Type (0, 0), BuildingBlock: CIFDUS_clean_linker_0, # of connection points: 2
#     Edge 33, Type (0, 0), BuildingBlock: CIFDUS_clean_linker_0, # of connection points: 2
#     Edge 34, Type (0, 0), BuildingBlock: CIFDUS_clean_linker_0, # of connection points: 2
#     Edge 35, Type (0, 0), BuildingBlock: CIFDUS_clean_linker_0, # of connection points: 2
#     Edge 36, Type (0, 0), BuildingBlock: CIFDUS_clean_linker_0, # of connection points: 2
#     Edge 37, Type (0, 0), BuildingBlock: CIFDUS_clean_linker_0, # of connection points: 2
#     Edge 38, Type (0, 0), BuildingBlock: CIFDUS_clean_linker_0, # of connection points: 2
#     Edge 39, Type (0, 0), BuildingBlock: CIFDUS_clean_linker_0, # of connection points: 2
#     Edge 40, Type (0, 0), BuildingBlock: CIFDUS_clean_linker_0, # of connection points: 2
#     Edge 41, Type (0, 0), BuildingBlock: CIFDUS_clean_linker_0, # of connection points: 2
#     Edge 42, Type (0, 0), BuildingBlock: CIFDUS_clean_linker_0, # of connection points: 2
#     Edge 43, Type (0, 0), BuildingBlock: CIFDUS_clean_linker_0, # of connection points: 2
#     Edge 44, Type (0, 0), BuildingBlock: CIFDUS_clean_linker_0, # of connection points: 2
#     Edge 45, Type (0, 0), BuildingBlock: CIFDUS_clean_linker_0, # of connection points: 2
#     Edge 46, Type (0, 0), BuildingBlock: CIFDUS_clean_linker_0, # of connection points: 2
#     Edge 47, Type (0, 0), BuildingBlock: CIFDUS_clean_linker_0, # of connection points: 2
#     Edge 48, Type (0, 0), BuildingBlock: CIFDUS_clean_linker_0, # of connection points: 2
#     Edge 49, Type (0, 0), BuildingBlock: CIFDUS_clean_linker_0, # of connection points: 2
#     Edge 50, Type (0, 0), BuildingBlock: CIFDUS_clean_linker_0, # of connection points: 2
#     Edge 51, Type (0, 0), BuildingBlock: CIFDUS_clean_linker_0, # of connection points: 2
#     Edge 52, Type (0, 0), BuildingBlock: CIFDUS_clean_linker_0, # of connection points: 2
#     Edge 53, Type (0, 0), BuildingBlock: CIFDUS_clean_linker_0, # of connection points: 2
#     Edge 54, Type (0, 0), BuildingBlock: CIFDUS_clean_linker_0, # of connection points: 2
#     Edge 55, Type (0, 0), BuildingBlock: CIFDUS_clean_linker_0, # of connection points: 2
# Relax obj value: 0.072
# Max RMSD: 0.122
# Mean RMSD: 0.122
data_MOF--net-yfw--node1-BEQFEK_clean_sbu_0--edge1-CIFDUS_clean_linker_0
_symmetry_space_group_name_H-M    P1
_symmetry_Int_Tables_number       1
_symmetry_cell_setting            triclinic
loop_
_symmetry_equiv_pos_as_xyz
'x, y, z'
_cell_length_a     49.684034
_cell_length_b     49.680853
_cell_length_c     24.640302
_cell_angle_alpha  90.020968
_cell_angle_beta   90.007015
_cell_angle_gamma 89.932719
loop_
_atom_site_label
_atom_site_type_symbol
_atom_site_fract_x
_atom_site_fract_y
_atom_site_fract_z
_atom_type_partial_charge
Co0 Co 0.12264 0.06017 0.01376 0.0
Co1 Co 0.18329 0.07942 0.00934 0.0
C2 C 0.13925 0.11768 0.03921 0.0
O3 O 0.12206 0.0988 0.03325 0.0
O4 O 0.16441 0.1138 0.03087 0.0
C5 C 0.06472 0.05466 0.98624 0.0
O6 O 0.06563 0.07858 0.96361 0.0
C7 C 0.23748 0.10141 0.97388 0.0
C8 C 0.26167 0.06515 0.9917 0.0
C9 C 0.26347 0.09068 0.96947 0.0
N10 N 0.22136 0.08265 -0.00337 0.0
N11 N 0.23619 0.06126 0.00758 0.0
C12 C 0.22815 0.12898 0.95829 0.0
H13 H 0.20936 0.1342 0.98025 0.0
H14 H 0.22393 0.12959 0.91412 0.0
H15 H 0.24401 0.14405 0.96739 0.0
C16 C 0.13489 0.04352 0.90198 0.0
N17 N 0.14206 0.05486 0.94938 0.0
N18 N 0.16709 0.06339 0.9462 0.0
C19 C 0.17651 0.05789 0.89589 0.0
C20 C 0.15633 0.0453 0.86631 0.0
C21 C 0.10859 0.02963 0.89227 0.0
H22 H 0.10296 0.01764 0.92843 0.0
H23 H 0.09276 0.04496 0.88494 0.0
H24 H 0.10959 0.01599 0.85667 0.0
O25 O 0.1391 0.03998 0.07293 0.0
O26 O 0.18119 0.05453 0.07324 0.0
H27 H 0.21933 0.05405 0.89817 0.0
H28 H 0.20607 0.06156 0.8316 0.0
C29 C 0.20381 0.06555 0.87565 0.0
H30 H 0.20707 0.08726 0.883 0.0
H31 H 0.22867 0.04355 0.02448 0.0
O32 O 0.08578 0.04497 0.00809 0.0
C33 C 0.16259 0.03996 0.09314 0.0
Co34 Co 0.93819 0.61401 0.2457 0.0
Co35 Co 0.92775 0.67647 0.24965 0.0
C36 C 0.88602 0.63656 0.28624 0.0
O37 O 0.90108 0.61647 0.27495 0.0
O38 O 0.89373 0.66069 0.27772 0.0
C39 C 0.95016 0.5595 0.27238 0.0
O40 O 0.9386 0.56603 0.31851 0.0
C41 C 0.90365 0.72787 0.21494 0.0
C42 C 0.93683 0.75605 0.23305 0.0
C43 C 0.91163 0.75452 0.2091 0.0
N44 N 0.92352 0.71432 0.2401 0.0
N45 N 0.943 0.73142 0.25189 0.0
C46 C 0.87915 0.71471 0.19168 0.0
H47 H 0.8822 0.69264 0.18817 0.0
H48 H 0.87429 0.72331 0.15127 0.0
H49 H 0.86181 0.71845 0.21906 0.0
C50 C 0.95023 0.62634 0.13209 0.0
N51 N 0.94192 0.63402 0.18163 0.0
N52 N 0.9382 0.66024 0.1824 0.0
C53 C 0.94419 0.67014 0.13279 0.0
C54 C 0.95182 0.64894 0.0993 0.0
C55 C 0.95937 0.59833 0.11898 0.0
H56 H 0.97571 0.59252 0.14736 0.0
H57 H 0.94239 0.58416 0.12504 0.0
H58 H 0.96705 0.59643 0.07696 0.0
O59 O 0.96315 0.62735 0.30061 0.0
O60 O 0.956 0.67132 0.30628 0.0
H61 H 0.95428 0.71144 0.14732 0.0
H62 H 0.95046 0.70315 0.07625 0.0
C63 C 0.94272 0.6993 0.11767 0.0
H64 H 0.92146 0.70588 0.11865 0.0
H65 H 0.96112 0.72597 0.27031 0.0
O66 O 0.95027 0.57644 0.23378 0.0
C67 C 0.96828 0.65012 0.32152 0.0
Co68 Co 0.3776 0.4502 0.5535 0.0
Co69 Co 0.31739 0.43262 0.52909 0.0
C70 C 0.35792 0.3924 0.56426 0.0
O71 O 0.37575 0.41086 0.56682 0.0
O72 O 0.33393 0.39722 0.54828 0.0
C73 C 0.4359 0.46007 0.53327 0.0
O74 O 0.43422 0.44495 0.48967 0.0
C75 C 0.26687 0.41273 0.47516 0.0
C76 C 0.24071 0.44758 0.49352 0.0
C77 C 0.2415 0.42365 0.46478 0.0
N78 N 0.2805 0.43005 0.50716 0.0
N79 N 0.26441 0.45043 0.51885 0.0
C80 C 0.27893 0.38782 0.45118 0.0
H81 H 0.30114 0.38787 0.4561 0.0
H82 H 0.27359 0.38617 0.40756 0.0
H83 H 0.2707 0.36997 0.47249 0.0
C84 C 0.3705 0.47585 0.44525 0.0
N85 N 0.36186 0.46012 0.48627 0.0
N86 N 0.33758 0.45113 0.47464 0.0
C87 C 0.33058 0.45999 0.42483 0.0
C88 C 0.3511 0.47602 0.40481 0.0
C89 C 0.39521 0.49303 0.44719 0.0
H90 H 0.40012 0.49843 0.48968 0.0
H91 H 0.41232 0.48189 0.42903 0.0
H92 H 0.39225 0.51177 0.42339 0.0
O93 O 0.35779 0.46692 0.61231 0.0
O94 O 0.31547 0.45492 0.59647 0.0
H95 H 0.28787 0.46213 0.41481 0.0
H96 H 0.30604 0.45742 0.35206 0.0
C97 C 0.30539 0.45207 0.39568 0.0
H98 H 0.30283 0.43004 0.39858 0.0
H99 H 0.27012 0.46706 0.542 0.0
O100 O 0.4152 0.46376 0.56272 0.0
C101 C 0.33304 0.46713 0.62472 0.0
Co102 Co 0.56337 0.88505 0.77782 0.0
Co103 Co 0.58072 0.82349 0.77923 0.0
C104 C 0.61994 0.86977 0.80033 0.0
O105 O 0.6022 0.88787 0.79175 0.0
O106 O 0.6143 0.84471 0.79672 0.0
C107 C 0.5513 0.94278 0.74917 0.0
O108 O 0.57352 0.94407 0.72046 0.0
C109 C 0.60251 0.77352 0.72821 0.0
C110 C 0.5822 0.74301 0.77882 0.0
C111 C 0.59798 0.74598 0.7329 0.0
N112 N 0.58937 0.78613 0.76886 0.0
N113 N 0.57792 0.76763 0.79965 0.0
C114 C 0.61675 0.78776 0.68314 0.0
H115 H 0.61138 0.80946 0.68274 0.0
H116 H 0.61183 0.77835 0.6435 0.0
H117 H 0.63878 0.78585 0.6894 0.0
C118 C 0.54333 0.86877 0.66937 0.0
N119 N 0.5564 0.86328 0.71593 0.0
N120 N 0.56144 0.83726 0.71827 0.0
C121 C 0.55012 0.8252 0.67479 0.0
C122 C 0.5387 0.84479 0.64189 0.0
C123 C 0.53662 0.89665 0.6508 0.0
H124 H 0.55441 0.90967 0.6566 0.0
H125 H 0.53111 0.89729 0.60724 0.0
H126 H 0.5198 0.90474 0.67555 0.0
O127 O 0.54702 0.86871 0.84345 0.0
O128 O 0.5568 0.82504 0.84278 0.0
H129 H 0.52702 0.79096 0.64791 0.0
H130 H 0.56279 0.78679 0.64473 0.0
C131 C 0.54619 0.79543 0.66918 0.0
H132 H 0.54575 0.78569 0.70957 0.0
H133 H 0.56581 0.77189 0.83315 0.0
O134 O 0.54496 0.92109 0.77342 0.0
C135 C 0.5453 0.84529 0.86407 0.0
Co136 Co 0.88221 0.06011 0.50256 0.0
Co137 Co 0.82034 0.07303 0.51167 0.0
C138 C 0.86153 0.11353 0.54364 0.0
O139 O 0.88067 0.09713 0.5335 0.0
O140 O 0.83698 0.10744 0.53514 0.0
C141 C 0.93835 0.05276 0.5214 0.0
O142 O 0.93319 0.0672 0.56487 0.0
C143 C 0.76637 0.09538 0.48541 0.0
C144 C 0.74098 0.0608 0.50881 0.0
C145 C 0.73992 0.08604 0.48494 0.0
N146 N 0.78215 0.0761 0.50703 0.0
N147 N 0.76672 0.05575 0.52177 0.0
C148 C 0.77665 0.1221 0.46653 0.0
H149 H 0.79484 0.12787 0.48977 0.0
H150 H 0.78232 0.12079 0.42309 0.0
H151 H 0.76099 0.13787 0.47137 0.0
C152 C 0.86588 0.04439 0.39252 0.0
N153 N 0.86039 0.05602 0.44058 0.0
N154 N 0.83441 0.06094 0.44391 0.0
C155 C 0.82252 0.05268 0.39754 0.0
C156 C 0.84204 0.04188 0.36358 0.0
C157 C 0.8927 0.03238 0.37879 0.0
H158 H 0.8986 0.018 0.41113 0.0
H159 H 0.90805 0.04856 0.3776 0.0
H160 H 0.89253 0.02159 0.33944 0.0
O161 O 0.87013 0.03483 0.5579 0.0
O162 O 0.82709 0.0455 0.56893 0.0
H163 H 0.78206 0.04136 0.41645 0.0
H164 H 0.78786 0.04732 0.34499 0.0
C165 C 0.79292 0.05406 0.38665 0.0
H166 H 0.78599 0.07508 0.39118 0.0
H167 H 0.77393 0.03793 0.53886 0.0
O168 O 0.91971 0.04877 0.48706 0.0
C169 C 0.84767 0.03155 0.58151 0.0
Co170 Co 0.93889 0.37666 0.7664 0.0
Co171 Co 0.92266 0.31498 0.76478 0.0
C172 C 0.88157 0.35684 0.78895 0.0
O173 O 0.89927 0.37542 0.78432 0.0
O174 O 0.88752 0.33219 0.78068 0.0
C175 C 0.949 0.43279 0.72549 0.0
O176 O 0.93464 0.42751 0.68204 0.0
C177 C 0.90175 0.2605 0.73287 0.0
C178 C 0.93738 0.23622 0.75498 0.0
C179 C 0.91229 0.23443 0.73069 0.0
N180 N 0.92027 0.27675 0.75586 0.0
N181 N 0.94123 0.26191 0.76974 0.0
C182 C 0.87461 0.26995 0.7146 0.0
H183 H 0.86852 0.28817 0.73747 0.0
H184 H 0.87538 0.27524 0.67091 0.0
H185 H 0.85937 0.2539 0.72047 0.0
C186 C 0.96314 0.36043 0.65971 0.0
N187 N 0.94788 0.35558 0.70404 0.0
N188 N 0.93974 0.33033 0.70254 0.0
C189 C 0.94872 0.31879 0.65632 0.0
C190 C 0.96386 0.3374 0.62791 0.0
C191 C 0.97998 0.38504 0.65139 0.0
H192 H 0.98529 0.39424 0.6909 0.0
H193 H 0.96866 0.39972 0.62634 0.0
H194 H 0.99879 0.37997 0.6293 0.0
O195 O 0.95864 0.36205 0.82872 0.0
O196 O 0.94579 0.31934 0.83012 0.0
H197 H 0.95418 0.2763 0.66441 0.0
H198 H 0.94787 0.28716 0.59575 0.0
C199 C 0.94261 0.2906 0.63894 0.0
H200 H 0.92087 0.28667 0.64413 0.0
H201 H 0.95866 0.26954 0.78761 0.0
O202 O 0.95199 0.41488 0.76192 0.0
C203 C 0.95914 0.3388 0.85011 0.0
Co204 Co 0.62072 0.44344 0.02644 0.0
Co205 Co 0.68101 0.42283 0.02125 0.0
C206 C 0.63329 0.38562 0.0434 0.0
O207 O 0.61634 0.40486 0.0399 0.0
O208 O 0.65856 0.38948 0.03632 0.0
C209 C 0.56232 0.45829 0.03103 0.0
O210 O 0.55633 0.43386 0.04745 0.0
C211 C 0.73068 0.40254 0.96513 0.0
C212 C 0.76152 0.42054 0.01845 0.0
C213 C 0.75833 0.40668 0.97012 0.0
N214 N 0.71828 0.41411 0.00801 0.0
N215 N 0.737 0.42421 0.04016 0.0
C216 C 0.71616 0.39006 0.91831 0.0
H217 H 0.69459 0.39589 0.91862 0.0
H218 H 0.72569 0.396 0.87939 0.0
H219 H 0.71754 0.36784 0.92179 0.0
C220 C 0.63393 0.46343 0.91952 0.0
N221 N 0.64086 0.44915 0.96351 0.0
N222 N 0.66683 0.44399 0.96255 0.0
C223 C 0.67756 0.45655 0.91886 0.0
C224 C 0.65695 0.46914 0.89017 0.0
C225 C 0.60557 0.47114 0.90587 0.0
H226 H 0.59158 0.45492 0.91856 0.0
H227 H 0.60317 0.47465 0.86166 0.0
H228 H 0.60015 0.48984 0.92793 0.0
O229 O 0.63879 0.45983 0.08916 0.0
O230 O 0.6808 0.44472 0.08871 0.0
H231 H 0.71116 0.48011 0.8908 0.0
H232 H 0.71418 0.44458 0.88027 0.0
C233 C 0.70708 0.46013 0.90917 0.0
H234 H 0.71844 0.45838 0.94768 0.0
H235 H 0.73299 0.43496 0.07563 0.0
O236 O 0.58664 0.46428 0.02081 0.0
C237 C 0.66214 0.45873 0.11001 0.0
Co238 Co 0.5682 0.11515 0.25853 0.0
Co239 Co 0.57867 0.17752 0.26021 0.0
C240 C 0.62042 0.13662 0.29588 0.0
O241 O 0.60492 0.11668 0.28723 0.0
O242 O 0.61326 0.16079 0.28579 0.0
C243 C 0.55457 0.06163 0.28822 0.0
O244 O 0.56691 0.06813 0.33352 0.0
C245 C 0.60213 0.22615 0.21181 0.0
C246 C 0.57566 0.25796 0.24467 0.0
C247 C 0.59687 0.25356 0.20922 0.0
N248 N 0.58467 0.2149 0.24683 0.0
N249 N 0.56918 0.2341 0.26694 0.0
C250 C 0.62139 0.21043 0.17757 0.0
H251 H 0.61626 0.1887 0.17817 0.0
H252 H 0.62121 0.21808 0.13523 0.0
H253 H 0.64204 0.21298 0.19394 0.0
C254 C 0.55314 0.12675 0.14706 0.0
N255 N 0.56424 0.13465 0.19406 0.0
N256 N 0.56544 0.16105 0.19558 0.0
C257 C 0.5539 0.17093 0.15011 0.0
C258 C 0.54562 0.14944 0.11783 0.0
C259 C 0.54887 0.09787 0.13195 0.0
H260 H 0.53046 0.09027 0.15227 0.0
H261 H 0.56619 0.08559 0.14601 0.0
H262 H 0.54661 0.09552 0.08739 0.0
O263 O 0.5441 0.12993 0.31376 0.0
O264 O 0.55148 0.17388 0.31944 0.0
H265 H 0.54231 0.20953 0.18168 0.0
H266 H 0.52944 0.20254 0.11483 0.0
C267 C 0.547 0.20001 0.14213 0.0
H268 H 0.56451 0.2105 0.12392 0.0
H269 H 0.55344 0.23075 0.29414 0.0
O270 O 0.55466 0.0781 0.24887 0.0
C271 C 0.53924 0.15271 0.33501 0.0
Co272 Co 0.62427 0.56756 0.52652 0.0
Co273 Co 0.68686 0.57914 0.5218 0.0
C274 C 0.64669 0.62235 0.55193 0.0
O275 O 0.6269 0.60624 0.54582 0.0
O276 O 0.67091 0.61474 0.54323 0.0
C277 C 0.5718 0.54572 0.55403 0.0
O278 O 0.58134 0.54534 0.60375 0.0
C279 C 0.73935 0.59725 0.47697 0.0
C280 C 0.76576 0.56578 0.51144 0.0
C281 C 0.76553 0.58716 0.47536 0.0
N282 N 0.72482 0.58179 0.51096 0.0
N283 N 0.74097 0.56356 0.53249 0.0
C284 C 0.72757 0.61948 0.44354 0.0
H285 H 0.70525 0.6182 0.44331 0.0
H286 H 0.73543 0.61873 0.40141 0.0
H287 H 0.73347 0.63908 0.46151 0.0
C288 C 0.63525 0.54825 0.41572 0.0
N289 N 0.64364 0.5598 0.46213 0.0
N290 N 0.66977 0.56401 0.45947 0.0
C291 C 0.67888 0.5547 0.41123 0.0
C292 C 0.65722 0.54476 0.38183 0.0
C293 C 0.60713 0.53854 0.40635 0.0
H294 H 0.60155 0.52433 0.43917 0.0
H295 H 0.5931 0.55592 0.40793 0.0
H296 H 0.60488 0.52806 0.36691 0.0
O297 O 0.63887 0.54667 0.58793 0.0
O298 O 0.68294 0.55391 0.58333 0.0
H299 H 0.72083 0.54813 0.42695 0.0
H300 H 0.71135 0.54261 0.35724 0.0
C301 C 0.7077 0.5552 0.39354 0.0
H302 H 0.71322 0.57605 0.38272 0.0
H303 H 0.73471 0.54852 0.55918 0.0
O304 O 0.58605 0.55584 0.51629 0.0
C305 C 0.66266 0.54285 0.60531 0.0
Co306 Co 0.44255 0.12325 0.76006 0.0
Co307 Co 0.42686 0.18527 0.75882 0.0
C308 C 0.3866 0.14339 0.78955 0.0
O309 O 0.40387 0.12459 0.78265 0.0
O310 O 0.39228 0.16803 0.78045 0.0
C311 C 0.45065 0.06746 0.71819 0.0
O312 O 0.43282 0.07276 0.68028 0.0
C313 C 0.40444 0.23967 0.72938 0.0
C314 C 0.44022 0.26424 0.74878 0.0
C315 C 0.41441 0.2659 0.72786 0.0
N316 N 0.42386 0.22342 0.74933 0.0
N317 N 0.44499 0.23841 0.76125 0.0
C318 C 0.37698 0.2302 0.71345 0.0
H319 H 0.37188 0.21131 0.73503 0.0
H320 H 0.37657 0.22609 0.66922 0.0
H321 H 0.3617 0.24588 0.72261 0.0
C322 C 0.46371 0.13888 0.65077 0.0
N323 N 0.44969 0.14413 0.69652 0.0
N324 N 0.44152 0.16939 0.69513 0.0
C325 C 0.44923 0.18056 0.64774 0.0
C326 C 0.46361 0.16169 0.6183 0.0
C327 C 0.48027 0.1141 0.6416 0.0
H328 H 0.48742 0.10586 0.68079 0.0
H329 H 0.4679 0.0988 0.62044 0.0
H330 H 0.49799 0.11855 0.61568 0.0
O331 O 0.463 0.1379 0.8208 0.0
O332 O 0.45299 0.18147 0.8199 0.0
H333 H 0.45538 0.22302 0.65427 0.0
H334 H 0.44673 0.21188 0.58676 0.0
C335 C 0.44287 0.20875 0.63064 0.0
H336 H 0.42139 0.21301 0.63866 0.0
H337 H 0.46301 0.23085 0.77682 0.0
O338 O 0.45617 0.0853 0.75351 0.0
C339 C 0.46549 0.16147 0.83997 0.0
Co340 Co 0.88742 0.94016 -0.00179 0.0
Co341 Co 0.82712 0.92169 0.01266 0.0
C342 C 0.87351 0.8845 0.03598 0.0
O343 O 0.89056 0.90247 0.02262 0.0
O344 O 0.84823 0.88899 0.03366 0.0
C345 C 0.94337 0.94996 0.01182 0.0
O346 O 0.94034 0.93215 0.05074 0.0
C347 C 0.77725 0.89393 0.97947 0.0
C348 C 0.74665 0.92239 0.01022 0.0
C349 C 0.74985 0.89952 0.97863 0.0
N350 N 0.78964 0.91308 0.009 0.0
N351 N 0.77111 0.92952 0.02856 0.0
C352 C 0.7918 0.87296 0.9472 0.0
H353 H 0.81344 0.87816 0.94325 0.0
H354 H 0.78258 0.87071 0.90642 0.0
H355 H 0.7901 0.85334 0.96842 0.0
C356 C 0.86773 0.95519 0.89065 0.0
N357 N 0.86399 0.94322 0.93893 0.0
N358 N 0.83851 0.93647 0.94442 0.0
C359 C 0.8251 0.94437 0.8994 0.0
C360 C 0.84322 0.95627 0.8639 0.0
C361 C 0.89357 0.96841 0.87432 0.0
H362 H 0.89904 0.98374 0.90514 0.0
H363 H 0.90986 0.95312 0.87344 0.0
H364 H 0.89218 0.97837 0.83419 0.0
O365 O 0.87376 0.96237 0.05768 0.0
O366 O 0.83153 0.9493 0.07083 0.0
H367 H 0.78451 0.94939 0.9271 0.0
H368 H 0.78826 0.95236 0.85447 0.0
C369 C 0.79537 0.9416 0.89112 0.0
H370 H 0.7904 0.92009 0.88563 0.0
H371 H 0.77535 0.94671 0.05136 0.0
O372 O 0.9234 0.95556 0.98164 0.0
C373 C 0.85155 0.96415 0.08296 0.0
Co374 Co 0.0646 0.38345 0.26407 0.0
Co375 Co 0.07767 0.32128 0.26503 0.0
C376 C 0.1189 0.36322 0.29638 0.0
O377 O 0.10284 0.3827 0.28652 0.0
O378 O 0.1117 0.33878 0.2898 0.0
C379 C 0.05833 0.44184 0.23584 0.0
O380 O 0.08137 0.44157 0.20969 0.0
C381 C 0.10448 0.27201 0.22455 0.0
C382 C 0.07353 0.2414 0.24241 0.0
C383 C 0.09815 0.24501 0.21696 0.0
N384 N 0.08424 0.28379 0.25221 0.0
N385 N 0.06614 0.2652 0.26379 0.0
C386 C 0.12762 0.2871 0.20047 0.0
H387 H 0.12298 0.30893 0.19821 0.0
H388 H 0.13244 0.27926 0.15941 0.0
H389 H 0.14559 0.28428 0.22661 0.0
C390 C 0.04803 0.37083 0.15208 0.0
N391 N 0.05878 0.36361 0.20005 0.0
N392 N 0.0641 0.33762 0.19962 0.0
C393 C 0.05702 0.32757 0.15062 0.0
C394 C 0.04683 0.34835 0.11893 0.0
C395 C 0.03644 0.39806 0.14044 0.0
H396 H 0.0243 0.40493 0.17553 0.0
H397 H 0.05309 0.41254 0.13383 0.0
H398 H 0.02333 0.39793 0.10404 0.0
O399 O 0.04288 0.36815 0.32199 0.0
O400 O 0.0506 0.32424 0.3256 0.0
H401 H 0.05008 0.28556 0.16393 0.0
H402 H 0.05203 0.29477 0.09308 0.0
C403 C 0.06025 0.29876 0.13407 0.0
H404 H 0.08192 0.29367 0.13326 0.0
H405 H 0.04803 0.26908 0.2838 0.0
O406 O 0.04994 0.42055 0.25874 0.0
C407 C 0.03857 0.34524 0.34292 0.0
Co408 Co 0.37569 0.57095 0.03812 0.0
Co409 Co 0.3144 0.58784 0.03576 0.0
C410 C 0.36061 0.62787 0.05192 0.0
O411 O 0.37904 0.61009 0.0473 0.0
O412 O 0.33568 0.62178 0.04767 0.0
C413 C 0.43454 0.55686 0.02822 0.0
O414 O 0.44095 0.58217 0.01979 0.0
C415 C 0.26801 0.61018 0.9768 0.0
C416 C 0.23416 0.59033 0.01883 0.0
C417 C 0.24032 0.60648 0.97472 0.0
N418 N 0.27773 0.59646 0.01965 0.0
N419 N 0.2573 0.5851 0.0452 0.0
C420 C 0.28536 0.62367 0.93535 0.0
H421 H 0.30667 0.61733 0.93996 0.0
H422 H 0.27811 0.61896 0.8938 0.0
H423 H 0.28415 0.64579 0.94111 0.0
C424 C 0.36104 0.54675 0.9346 0.0
N425 N 0.35474 0.56211 0.97756 0.0
N426 N 0.32865 0.56656 0.9782 0.0
C427 C 0.31731 0.55307 0.93643 0.0
C428 C 0.33752 0.54015 0.90747 0.0
C429 C 0.38918 0.53866 0.92014 0.0
H430 H 0.40319 0.55546 0.929 0.0
H431 H 0.39082 0.53328 0.87656 0.0
H432 H 0.39519 0.52104 0.94504 0.0
O433 O 0.3587 0.5567 0.10382 0.0
O434 O 0.31529 0.56701 0.10449 0.0
H435 H 0.28318 0.5303 0.90742 0.0
H436 H 0.27972 0.56623 0.90361 0.0
C437 C 0.28765 0.54948 0.92867 0.0
H438 H 0.27724 0.54947 0.9684 0.0
H439 H 0.25933 0.57252 0.07885 0.0
O440 O 0.41007 0.55044 0.03546 0.0
C441 C 0.3357 0.55586 0.12625 0.0
Co442 Co 0.43538 0.88957 0.27992 0.0
Co443 Co 0.42674 0.82706 0.27783 0.0
C444 C 0.3807 0.86809 0.2852 0.0
O445 O 0.39619 0.88838 0.28027 0.0
O446 O 0.3899 0.84402 0.28572 0.0
C447 C 0.44183 0.94837 0.25904 0.0
O448 O 0.41808 0.9491 0.23561 0.0
C449 C 0.411 0.77706 0.22219 0.0
C450 C 0.43369 0.74689 0.26965 0.0
C451 C 0.41751 0.74987 0.22422 0.0
N452 N 0.42314 0.78949 0.26406 0.0
N453 N 0.43629 0.77126 0.29273 0.0
C454 C 0.39596 0.79157 0.17846 0.0
H455 H 0.40067 0.8134 0.17934 0.0
H456 H 0.40096 0.78301 0.13807 0.0
H457 H 0.37404 0.78904 0.1853 0.0
C458 C 0.4635 0.87757 0.17793 0.0
N459 N 0.44921 0.86961 0.22133 0.0
N460 N 0.44763 0.84321 0.22179 0.0
C461 C 0.46224 0.83342 0.17995 0.0
C462 C 0.47265 0.85493 0.15055 0.0
C463 C 0.46655 0.90638 0.16123 0.0
H464 H 0.44724 0.91707 0.16756 0.0
H465 H 0.47215 0.90827 0.11785 0.0
H466 H 0.48221 0.91608 0.18666 0.0
O467 O 0.44805 0.87544 0.35042 0.0
O468 O 0.44577 0.83084 0.34765 0.0
H469 H 0.48828 0.8017 0.15092 0.0
H470 H 0.45282 0.79495 0.14611 0.0
C471 C 0.46862 0.80425 0.17172 0.0
H472 H 0.46937 0.79367 0.21125 0.0
H473 H 0.44803 0.77564 0.32671 0.0
O474 O 0.45067 0.92634 0.27815 0.0
C475 C 0.45183 0.85253 0.37205 0.0
Co476 Co 0.11861 0.94279 0.51584 0.0
Co477 Co 0.17795 0.92107 0.50985 0.0
C478 C 0.1324 0.88517 0.54257 0.0
O479 O 0.11551 0.90433 0.53661 0.0
O480 O 0.15742 0.88856 0.53313 0.0
C481 C 0.06153 0.95067 0.48866 0.0
O482 O 0.0625 0.92712 0.46447 0.0
C483 C 0.22526 0.89166 0.46706 0.0
C484 C 0.25723 0.92122 0.48513 0.0
C485 C 0.25234 0.89703 0.45911 0.0
N486 N 0.21455 0.91211 0.49573 0.0
N487 N 0.23394 0.92931 0.50755 0.0
C488 C 0.20932 0.86914 0.44286 0.0
H489 H 0.18754 0.87416 0.44248 0.0
H490 H 0.21639 0.86474 0.40104 0.0
H491 H 0.21239 0.85076 0.46767 0.0
C492 C 0.13089 0.95885 0.40306 0.0
N493 N 0.13767 0.94688 0.45012 0.0
N494 N 0.16253 0.93778 0.44676 0.0
C495 C 0.17228 0.94371 0.39689 0.0
C496 C 0.15245 0.95703 0.36762 0.0
C497 C 0.10506 0.9737 0.39369 0.0
H498 H 0.09988 0.98576 0.43007 0.0
H499 H 0.08873 0.95897 0.38621 0.0
H500 H 0.10646 0.98741 0.35828 0.0
O501 O 0.13713 0.96233 0.57398 0.0
O502 O 0.17894 0.94679 0.57197 0.0
H503 H 0.21516 0.94436 0.40512 0.0
H504 H 0.2037 0.94392 0.33558 0.0
C505 C 0.19976 0.93625 0.37704 0.0
H506 H 0.20156 0.91407 0.37596 0.0
H507 H 0.23095 0.94741 0.5282 0.0
O508 O 0.0825 0.95982 0.51168 0.0
C509 C 0.161 0.962 0.59249 0.0
Co510 Co 0.05735 0.61493 0.74826 0.0
Co511 Co 0.07972 0.67474 0.74974 0.0
C512 C 0.11517 0.6285 0.77861 0.0
O513 O 0.09591 0.61185 0.77116 0.0
O514 O 0.1121 0.65363 0.76987 0.0
C515 C 0.04707 0.56003 0.70591 0.0
O516 O 0.06721 0.56407 0.67236 0.0
C517 C 0.10707 0.72505 0.71358 0.0
C518 C 0.07743 0.75498 0.74253 0.0
C519 C 0.1007 0.75235 0.71201 0.0
N520 N 0.08786 0.71223 0.74225 0.0
N521 N 0.0707 0.73041 0.76062 0.0
C522 C 0.12923 0.71095 0.68385 0.0
H523 H 0.12505 0.68904 0.68099 0.0
H524 H 0.13177 0.71961 0.64265 0.0
H525 H 0.14836 0.71383 0.70635 0.0
C526 C 0.03898 0.63277 0.6391 0.0
N527 N 0.05294 0.63673 0.68538 0.0
N528 N 0.06252 0.66149 0.68556 0.0
C529 C 0.05515 0.67382 0.63898 0.0
C530 C 0.0402 0.65598 0.60813 0.0
C531 C 0.02181 0.60868 0.62769 0.0
H532 H 0.03445 0.59258 0.60973 0.0
H533 H 0.00552 0.61355 0.59846 0.0
H534 H 0.01261 0.60121 0.66574 0.0
O535 O 0.03746 0.63156 0.80845 0.0
O536 O 0.05453 0.6728 0.81204 0.0
H537 H 0.05425 0.71609 0.65584 0.0
H538 H 0.05349 0.70816 0.5844 0.0
C539 C 0.06196 0.70222 0.62423 0.0
H540 H 0.08405 0.70424 0.62156 0.0
H541 H 0.05345 0.72584 0.78293 0.0
O542 O 0.04068 0.57835 0.73964 0.0
C543 C 0.03879 0.65474 0.83017 0.0
H544 H 0.95169 0.99749 0.95899 0.0
H545 H 0.99198 0.93733 0.05596 0.0
H546 H 0.03301 0.96426 0.05573 0.0
H547 H 0.05694 0.00538 0.03102 0.0
H548 H 0.01673 0.06653 0.93646 0.0
H549 H 0.97612 0.03874 0.933 0.0
C550 C 0.96954 0.99015 0.97959 0.0
C551 C 0.96877 0.96539 0.00743 0.0
C552 C 0.99299 0.00602 0.9802 0.0
C553 C 0.992 0.95631 0.03433 0.0
C554 C 0.01547 0.97172 0.03431 0.0
C555 C 0.03933 0.01271 0.00957 0.0
C556 C 0.0399 0.0381 0.98419 0.0
C557 C 0.01608 0.99673 0.00796 0.0
C558 C 0.01685 0.04715 0.95657 0.0
C559 C 0.99363 0.03123 0.95446 0.0
H560 H 0.99262 0.54993 0.20545 0.0
H561 H 0.94484 0.5137 0.33204 0.0
H562 H 0.97408 0.47409 0.33146 0.0
H563 H 0.01381 0.45046 0.2971 0.0
H564 H 0.06312 0.48737 0.17365 0.0
H565 H 0.03279 0.52622 0.17132 0.0
C566 C 0.98841 0.53321 0.23242 0.0
C567 C 0.96644 0.53463 0.26846 0.0
C568 C 0.00576 0.51083 0.23291 0.0
C569 C 0.96155 0.51304 0.30384 0.0
C570 C 0.97831 0.49044 0.30364 0.0
C571 C 0.01799 0.46698 0.26961 0.0
C572 C 0.04075 0.46598 0.23559 0.0
C573 C 1.00061 0.48926 0.26877 0.0
C574 C 0.04586 0.48767 0.20049 0.0
C575 C 0.02845 0.50983 0.19896 0.0
H576 H 0.53501 0.52529 0.62487 0.0
H577 H 0.55117 0.534 0.45367 0.0
H578 H 0.51155 0.50707 0.4322 0.0
H579 H 0.4724 0.48037 0.46199 0.0
H580 H 0.45469 0.47417 0.63281 0.0
H581 H 0.49483 0.50053 0.65445 0.0
C582 C 0.52982 0.52143 0.58283 0.0
C583 C 0.54628 0.53152 0.54103 0.0
C584 C 0.50679 0.50612 0.57068 0.0
C585 C 0.53903 0.52646 0.48677 0.0
C586 C 0.51636 0.51095 0.47439 0.0
C587 C 0.47752 0.48461 0.50393 0.0
C588 C 0.46085 0.47506 0.5458 0.0
C589 C 0.50022 0.50046 0.516 0.0
C590 C 0.46732 0.48121 0.59992 0.0
C591 C 0.49022 0.49632 0.6123 0.0
H592 H 0.52725 0.96889 0.66551 0.0
H593 H 0.53373 0.96808 0.8398 0.0
H594 H 0.50301 0.00661 0.84602 0.0
H595 H 0.47465 0.04087 0.80156 0.0
H596 H 0.46481 0.03912 0.62775 0.0
H597 H 0.4961 1.00115 0.62146 0.0
C598 C 0.52195 0.97733 0.7047 0.0
C599 C 0.53298 0.96613 0.75214 0.0
C600 C 0.5035 0.99884 0.70797 0.0
C601 C 0.52558 0.97665 0.80284 0.0
C602 C 0.50801 0.9986 0.80636 0.0
C603 C 0.47923 0.03203 0.76238 0.0
C604 C 0.46747 0.04283 0.71519 0.0
C605 C 0.49686 0.00988 0.7592 0.0
C606 C 0.47342 0.03105 0.66472 0.0
C607 C 0.49146 0.00945 0.66106 0.0
H608 H 0.05209 0.99749 0.5424 0.0
H609 H 0.01535 0.94145 0.43088 0.0
H610 H 0.97474 0.96926 0.42797 0.0
H611 H 0.94918 0.00876 0.45932 0.0
H612 H 0.98538 0.06355 0.57396 0.0
H613 H 0.02686 0.03709 0.57284 0.0
C614 C 0.03524 0.99133 0.51734 0.0
C615 C 0.03677 0.96734 0.48703 0.0
C616 C 0.0119 0.00727 0.51622 0.0
C617 C 0.01469 0.95971 0.45487 0.0
C618 C 0.99148 0.97566 0.45305 0.0
C619 C 0.96626 0.0151 0.48356 0.0
C620 C 0.96423 0.03817 0.51657 0.0
C621 C 0.98982 0.99941 0.48376 0.0
C622 C 0.98643 0.0459 0.54823 0.0
C623 C 0.01012 0.03073 0.54772 0.0
H624 H 0.97727 0.45763 0.64561 0.0
H625 H 0.95674 0.46363 0.81508 0.0
H626 H 0.98476 0.50392 0.82392 0.0
H627 H 0.0159 0.53695 0.7838 0.0
H628 H 0.03971 0.52855 0.61634 0.0
H629 H 0.00992 0.48968 0.60636 0.0
C630 C 0.97873 0.46801 0.68423 0.0
C631 C 0.96466 0.45802 0.72946 0.0
C632 C 0.99573 0.49055 0.68946 0.0
C633 C 0.96725 0.47114 0.77967 0.0
C634 C 0.98332 0.4941 0.78474 0.0
C635 C 0.01457 0.52658 0.74515 0.0
C636 C 0.02999 0.53566 0.70087 0.0
C637 C 0.99781 0.50389 0.74002 0.0
C638 C 0.02823 0.52186 0.65118 0.0
C639 C 0.01108 0.49971 0.64536 0.0
H640 H 0.50806 0.45318 0.0459 0.0
H641 H 0.56945 0.51133 0.00599 0.0
H642 H 0.53565 0.54679 0.00125 0.0
H643 H 0.48863 0.56174 0.00991 0.0
H644 H 0.42722 0.50344 0.04893 0.0
H645 H 0.46094 0.4679 0.05243 0.0
C646 C 0.51405 0.47358 0.03604 0.0
C647 C 0.54131 0.47947 0.02649 0.0
C648 C 0.49446 0.49402 0.03331 0.0
C649 C 0.54863 0.50609 0.01356 0.0
C650 C 0.5293 0.52648 0.0109 0.0
C651 C 0.48261 0.54127 0.01915 0.0
C652 C 0.45539 0.53542 0.02936 0.0
C653 C 0.50215 0.52074 0.02096 0.0
C654 C 0.44801 0.50867 0.04101 0.0
C655 C 0.4673 0.48823 0.04304 0.0
H656 H 0.48726 0.95534 0.31804 0.0
H657 H 0.43704 0.99449 0.1988 0.0
H658 H 0.46859 0.03224 0.19473 0.0
H659 H 0.51036 0.05407 0.22541 0.0
H660 H 0.55916 0.01578 0.34805 0.0
H661 H 0.52835 0.97742 0.34985 0.0
C662 C 0.48315 0.97214 0.29116 0.0
C663 C 0.45983 0.97208 0.2587 0.0
C664 C 0.50125 0.99375 0.2893 0.0
C665 C 0.45475 0.9941 0.22443 0.0
C666 C 0.47286 0.01561 0.22187 0.0
C667 C 0.51442 0.03717 0.25205 0.0
C668 C 0.53716 0.03758 0.28616 0.0
C669 C 0.49622 0.01558 0.25398 0.0
C670 C 0.54186 0.01583 0.32126 0.0
C671 C 0.52422 0.99397 0.32243 0.0
H672 H 0.18891 0.99156 0.32383 0.0
H673 H 0.11777 0.94559 0.28645 0.0
H674 H 0.1158 0.96585 0.19614 0.0
H675 H 0.13235 0.99882 0.13086 0.0
H676 H 0.20368 0.04502 0.16683 0.0
H677 H 0.208 0.02198 0.25424 0.0
C678 C 0.17336 0.98565 0.29532 0.0
C679 C 0.15347 0.96722 0.31138 0.0
C680 C 0.17237 0.99743 0.24351 0.0
C681 C 0.13317 0.95988 0.27472 0.0
C682 C 0.13205 0.97143 0.22323 0.0
C683 C 0.149 0.00373 0.15757 0.0
C684 C 0.16747 0.02384 0.14266 0.0
C685 C 0.15123 0.9906 0.20765 0.0
C686 C 0.18914 0.02965 0.1774 0.0
C687 C 0.19155 0.01658 0.22749 0.0
H688 H 0.04584 0.62679 0.5171 0.0
H689 H 0.00449 0.69571 0.58277 0.0
H690 H 0.98072 0.70221 0.49659 0.0
H691 H 0.96932 0.68599 0.4049 0.0
H692 H 0.00922 0.61539 0.34182 0.0
H693 H 0.03619 0.61197 0.4242 0.0
C694 C 0.03173 0.6433 0.51214 0.0
C695 C 0.02693 0.66086 0.55555 0.0
C696 C 0.01794 0.64659 0.46301 0.0
C697 C 0.00865 0.68219 0.54929 0.0
C698 C 0.99502 0.68582 0.50023 0.0
C699 C 0.98431 0.67022 0.40884 0.0
C700 C 0.98725 0.65096 0.3675 0.0
C701 C 0.99925 0.66791 0.45701 0.0
C702 C 0.00651 0.63039 0.37329 0.0
C703 C 0.02188 0.62835 0.42041 0.0
H704 H 0.35143 0.45483 0.72283 0.0
H705 H 0.29834 0.50918 0.6387 0.0
H706 H 0.29306 0.53617 0.72176 0.0
H707 H 0.30828 0.54674 0.8152 0.0
H708 H 0.36002 0.49065 0.89882 0.0
H709 H 0.36117 0.46167 0.81901 0.0
C710 C 0.33829 0.47231 0.72324 0.0
C711 C 0.32542 0.48034 0.67542 0.0
C712 C 0.33549 0.48748 0.77062 0.0
C713 C 0.30831 0.50279 0.67563 0.0
C714 C 0.30548 0.51823 0.72283 0.0
C715 C 0.31934 0.52791 0.81605 0.0
C716 C 0.33473 0.52113 0.8619 0.0
C717 C 0.31965 0.51117 0.77013 0.0
C718 C 0.3488 0.49664 0.86311 0.0
C719 C 0.34932 0.47999 0.81773 0.0
H720 H 0.46828 0.8227 0.06157 0.0
H721 H 0.51711 0.88539 0.13199 0.0
H722 H 0.54341 0.88845 0.04869 0.0
H723 H 0.5514 0.87453 0.95458 0.0
H724 H 0.50654 0.80837 0.8871 0.0
H725 H 0.48001 0.80493 0.97092 0.0
C726 C 0.485 0.83664 0.05898 0.0
C727 C 0.49033 0.85428 0.10225 0.0
C728 C 0.50063 0.83768 0.01154 0.0
C729 C 0.51207 0.87223 0.09846 0.0
C730 C 0.52723 0.87387 0.05104 0.0
C731 C 0.53584 0.85933 0.95853 0.0
C732 C 0.53047 0.84198 0.91504 0.0
C733 C 0.52139 0.85702 0.00706 0.0
C734 C 0.51076 0.82197 0.9204 0.0
C735 C 0.49565 0.82005 0.96812 0.0
H736 H 0.81572 0.03412 0.6705 0.0
H737 H 0.87716 0.98594 0.59362 0.0
H738 H 0.87915 0.95656 0.67292 0.0
H739 H 0.8662 0.94689 0.767 0.0
H740 H 0.80817 0.99758 0.84728 0.0
H741 H 0.80165 0.02347 0.76374 0.0
C742 C 0.82917 0.0169 0.67087 0.0
C743 C 0.84628 0.01216 0.62654 0.0
C744 C 0.83087 1.00066 0.71729 0.0
C745 C 0.8639 0.99002 0.62757 0.0
C746 C 0.86507 0.97325 0.67283 0.0
C747 C 0.85196 0.96347 0.76574 0.0
C748 C 0.83749 0.9703 0.81254 0.0
C749 C 0.84912 0.97876 0.71836 0.0
C750 C 0.81917 0.9918 0.81114 0.0
C751 C 0.81561 0.00668 0.76362 0.0
H752 H 0.00257 0.36715 0.88317 0.0
H753 H 0.95093 0.30125 0.92928 0.0
H754 H 0.97452 0.29735 0.01611 0.0
H755 H 0.00765 0.31511 0.08154 0.0
H756 H 0.06046 0.37955 0.03329 0.0
H757 H 0.03847 0.38179 0.94458 0.0
C758 C 0.99659 0.35183 0.91212 0.0
C759 C 0.97487 0.33473 0.90023 0.0
C760 C 0.01035 0.34956 0.96155 0.0
C761 C 0.96759 0.31468 0.93764 0.0
C762 C 0.98099 0.3125 0.98732 0.0
C763 C 0.01471 0.32915 0.051 0.0
C764 C 0.03557 0.34714 0.06354 0.0
C765 C 0.00213 0.33011 3e-05 0.0
C766 C 0.04431 0.36561 0.02427 0.0
C767 C 0.03176 0.3669 0.97372 0.0
H768 H 0.68644 0.50217 0.34525 0.0
H769 H 0.62729 0.56084 0.29619 0.0
H770 H 0.62417 0.53981 0.20663 0.0
H771 H 0.63698 0.50379 0.14401 0.0
H772 H 0.69812 0.44651 0.19031 0.0
H773 H 0.70247 0.46846 0.27894 0.0
C774 C 0.67335 0.51064 0.31441 0.0
C775 C 0.65714 0.53298 0.32685 0.0
C776 C 0.67209 0.49876 0.26279 0.0
C777 C 0.63982 0.54353 0.28724 0.0
C778 C 0.63808 0.53158 0.23617 0.0
C779 C 0.65138 0.49622 0.1734 0.0
C780 C 0.66701 0.47345 0.16105 0.0
C781 C 0.6539 0.50902 0.22377 0.0
C782 C 0.68589 0.46406 0.19903 0.0
C783 C 0.68827 0.4765 0.24972 0.0
H784 H 0.53657 0.18975 0.41663 0.0
H785 H 0.49958 0.1169 0.35704 0.0
H786 H 0.47209 0.11394 0.4386 0.0
H787 H 0.46066 0.13021 0.5296 0.0
H788 H 0.49851 0.20185 0.59158 0.0
H789 H 0.52342 0.20728 0.5065 0.0
C790 C 0.52215 0.17352 0.42117 0.0
C791 C 0.52021 0.15354 0.381 0.0
C792 C 0.50673 0.17158 0.46884 0.0
C793 C 0.50159 0.13247 0.38758 0.0
C794 C 0.48589 0.13069 0.43426 0.0
C795 C 0.47434 0.14701 0.5242 0.0
C796 C 0.47782 0.16562 0.56632 0.0
C797 C 0.48872 0.14978 0.47562 0.0
C798 C 0.4954 0.18744 0.55919 0.0
C799 C 0.50968 0.19048 0.51074 0.0
H800 H 0.68479 0.46145 0.79616 0.0
H801 H 0.63384 0.5183 0.87973 0.0
H802 H 0.63057 0.54573 0.79813 0.0
H803 H 0.63998 0.55225 0.70159 0.0
H804 H 0.69444 0.49865 0.61901 0.0
H805 H 0.69887 0.47122 0.7016 0.0
C806 C 0.67339 0.48008 0.79655 0.0
C807 C 0.65884 0.48744 0.84312 0.0
C808 C 0.67207 0.49613 0.74965 0.0
C809 C 0.64438 0.51175 0.84359 0.0
C810 C 0.64261 0.52752 0.79711 0.0
C811 C 0.65283 0.53456 0.70197 0.0
C812 C 0.66649 0.52698 0.65473 0.0
C813 C 0.65584 0.51958 0.74963 0.0
C814 C 0.68361 0.50452 0.65531 0.0
C815 C 0.68612 0.48894 0.70235 0.0
H816 H 0.54927 0.18128 0.02784 0.0
H817 H 0.50014 0.12017 0.10293 0.0
H818 H 0.47153 0.11829 0.02306 0.0
H819 H 0.46103 0.13297 0.93101 0.0
H820 H 0.50595 0.19762 0.85819 0.0
H821 H 0.53535 0.19979 0.93846 0.0
C822 C 0.53214 0.16778 0.02671 0.0
C823 C 0.52742 0.15016 0.07033 0.0
C824 C 0.51499 0.16758 0.9813 0.0
C825 C 0.50496 0.13303 0.06887 0.0
C826 C 0.48835 0.13217 0.0235 0.0
C827 C 0.47721 0.14761 0.93302 0.0
C828 C 0.48173 0.16489 0.88912 0.0
C829 C 0.49338 0.14908 0.97931 0.0
C830 C 0.50231 0.18414 0.89195 0.0
C831 C 0.51909 0.18527 0.93758 0.0
H832 H 0.86716 0.04993 0.26811 0.0
H833 H 0.80806 0.99982 0.34627 0.0
H834 H 0.80347 0.97279 0.26369 0.0
H835 H 0.81896 0.96142 0.17153 0.0
H836 H 0.88069 0.00981 0.09646 0.0
H837 H 0.88162 0.03946 0.17528 0.0
C838 C 0.8532 0.03316 0.26668 0.0
C839 C 0.83791 0.02682 0.31267 0.0
C840 C 0.85128 0.01733 0.21976 0.0
C841 C 0.8198 0.00516 0.31084 0.0
C842 C 0.81731 0.98964 0.26385 0.0
C843 C 0.83231 0.97868 0.17221 0.0
C844 C 0.84978 0.98337 0.12844 0.0
C845 C 0.83327 0.99528 0.21832 0.0
C846 C 0.86718 0.00567 0.12994 0.0
C847 C 0.86775 0.02264 0.17495 0.0
H848 H 0.03765 0.309 0.42678 0.0
H849 H 0.99781 0.37975 0.36415 0.0
H850 H 0.97084 0.38312 0.44618 0.0
H851 H 0.96041 0.36793 0.53818 0.0
H852 H 1.00006 0.29788 0.60303 0.0
H853 H 0.02518 0.29218 0.51807 0.0
C854 C 0.02273 0.32482 0.43083 0.0
C855 C 0.01989 0.34416 0.38958 0.0
C856 C 0.00745 0.32698 0.47881 0.0
C857 C 1.00059 0.36471 0.39552 0.0
C858 C 0.98515 0.36674 0.44248 0.0
C859 C 0.97455 0.35144 0.53349 0.0
C860 C 0.97853 0.3334 0.57638 0.0
C861 C 0.98883 0.34837 0.48482 0.0
C862 C 0.99666 0.31191 0.57009 0.0
C863 C 0.01102 0.3087 0.52166 0.0
H864 H 0.37353 0.52502 0.17452 0.0
H865 H 0.29293 0.5557 0.19706 0.0
H866 H 0.29086 0.53421 0.28643 0.0
H867 H 0.31253 0.50733 0.35862 0.0
H868 H 0.39241 0.47573 0.33314 0.0
H869 H 0.39452 0.49773 0.24461 0.0
C870 C 0.35544 0.52708 0.19881 0.0
C871 C 0.33343 0.54204 0.17917 0.0
C872 C 0.35442 0.51477 0.24976 0.0
C873 C 0.31012 0.54425 0.21117 0.0
C874 C 0.30898 0.53207 0.2623 0.0
C875 C 0.33025 0.50513 0.33331 0.0
C876 C 0.35227 0.48994 0.35199 0.0
C877 C 0.33107 0.51737 0.28204 0.0
C878 C 0.37536 0.48756 0.31961 0.0
C879 C 0.37648 0.49994 0.26895 0.0
H880 H 0.49278 0.82117 0.40766 0.0
H881 H 0.43646 0.88227 0.45826 0.0
H882 H 0.45679 0.88327 0.54864 0.0
H883 H 0.49178 0.86823 0.6116 0.0
H884 H 0.55219 0.81198 0.55738 0.0
H885 H 0.52872 0.80684 0.47071 0.0
C886 C 0.4849 0.83443 0.43885 0.0
C887 C 0.4632 0.85153 0.42694 0.0
C888 C 0.49741 0.8357 0.48989 0.0
C889 C 0.45324 0.86899 0.46695 0.0
C890 C 0.46482 0.86956 0.51845 0.0
C891 C 0.50001 0.85515 0.58051 0.0
C892 C 0.52383 0.84079 0.59049 0.0
C893 C 0.48718 0.85333 0.53004 0.0
C894 C 0.53377 0.82316 0.55065 0.0
C895 C 0.52048 0.82037 0.50098 0.0
H896 H 0.13229 0.00412 0.63105 0.0
H897 H 0.2035 0.95683 0.66278 0.0
H898 H 0.20989 0.9804 0.74908 0.0
H899 H 0.19237 0.01126 0.81965 0.0
H900 H 0.12107 0.05799 0.78685 0.0
H901 H 0.11753 0.03782 0.69667 0.0
C902 C 0.14937 0.9991 0.65657 0.0
C903 C 0.16716 0.97849 0.64091 0.0
C904 C 0.15277 0.01251 0.70608 0.0
C905 C 0.18944 0.97255 0.67401 0.0
C906 C 0.19304 0.98593 0.72346 0.0
C907 C 0.17645 0.01735 0.79213 0.0
C908 C 0.15687 0.03583 0.80957 0.0
C909 C 0.17445 0.00549 0.7405 0.0
C910 C 0.13618 0.04356 0.7741 0.0
C911 C 0.13415 0.03205 0.7227 0.0
H912 H 0.99313 0.67933 0.06278 0.0
H913 H 0.93447 0.62071 0.01188 0.0
H914 H 0.95549 0.61824 0.92212 0.0
H915 H 0.99248 0.63049 0.86095 0.0
H916 H 0.04993 0.69079 0.91046 0.0
H917 H 0.02699 0.6955 -0.00232 0.0
C918 C 0.98461 0.66655 0.03148 0.0
C919 C 0.96244 0.65014 0.04351 0.0
C920 C 0.9966 0.66551 0.98004 0.0
C921 C 0.95171 0.63334 0.00322 0.0
C922 C 0.96369 0.63194 0.95209 0.0
C923 C 0.99981 0.64484 0.89068 0.0
C924 C 0.02301 0.66002 0.8797 0.0
C925 C 0.98647 0.64755 0.94047 0.0
C926 C 0.03209 0.67885 0.91809 0.0
C927 C 0.01908 0.68147 0.96803 0.0
H928 H 0.07376 0.21187 0.14641 0.0
H929 H 0.15207 0.23296 0.20813 0.0
H930 H 0.17259 0.19697 0.15366 0.0
H931 H 0.16737 0.15691 0.09395 0.0
H932 H 0.08823 0.13681 0.03382 0.0
H933 H 0.06908 0.17512 0.08153 0.0
C934 C 0.09536 0.20865 0.14776 0.0
C935 C 0.11136 0.22486 0.18145 0.0
C936 C 0.10688 0.18806 0.11651 0.0
C937 C 0.13935 0.2208 0.18223 0.0
C938 C 0.15104 0.20015 0.15127 0.0
C939 C 0.14604 0.16126 0.09048 0.0
C940 C 0.12926 0.14377 0.06073 0.0
C941 C 0.13492 0.18332 0.11886 0.0
C942 C 0.10162 0.14969 0.05684 0.0
C943 C 0.09057 0.17159 0.08424 0.0
H944 H 0.86545 0.58867 0.31878 0.0
H945 H 0.84875 0.67398 0.31941 0.0
H946 H 0.8093 0.66643 0.37664 0.0
H947 H 0.78146 0.63575 0.43219 0.0
H948 H 0.7992 0.55065 0.43086 0.0
H949 H 0.83655 0.55815 0.36912 0.0
C950 C 0.85306 0.60565 0.33079 0.0
C951 C 0.86022 0.63185 0.31497 0.0
C952 C 0.83072 0.60127 0.36434 0.0
C953 C 0.84381 0.65355 0.33107 0.0
C954 C 0.82127 0.64929 0.36403 0.0
C955 C 0.79316 0.61883 0.41757 0.0
C956 C 0.78743 0.59269 0.43612 0.0
C957 C 0.8148 0.62325 0.38176 0.0
C958 C 0.80329 0.57105 0.41773 0.0
C959 C 0.82461 0.57525 0.38212 0.0
H960 H 0.38894 0.38365 0.65111 0.0
H961 H 0.34087 0.34209 0.53214 0.0
H962 H 0.35286 0.29867 0.57379 0.0
H963 H 0.37909 0.27286 0.64201 0.0
H964 H 0.42427 0.31612 0.76378 0.0
H965 H 0.41128 0.35866 0.72286 0.0
C966 C 0.38119 0.36507 0.63404 0.0
C967 C 0.36457 0.36592 0.588 0.0
C968 C 0.38752 0.34056 0.65893 0.0
C969 C 0.35399 0.34181 0.56727 0.0
C970 C 0.36079 0.31707 0.59115 0.0
C971 C 0.38542 0.29152 0.66065 0.0
C972 C 0.40255 0.29116 0.7063 0.0
C973 C 0.37769 0.31619 0.63696 0.0
C974 C 0.41118 0.31573 0.72862 0.0
C975 C 0.40381 0.34013 0.70521 0.0
H976 H 0.6591 0.83862 0.84767 0.0
H977 H 0.64044 0.92056 0.80236 0.0
H978 H 0.67969 0.93652 0.85169 0.0
H979 H 0.7168 0.92798 0.9144 0.0
H980 H 0.7366 0.84668 0.96021 0.0
H981 H 0.69951 0.82964 0.90386 0.0
C982 C 0.6639 0.8599 0.84771 0.0
C983 C 0.64654 0.87835 0.82176 0.0
C984 C 0.68649 0.86911 0.87688 0.0
C985 C 0.65318 0.90588 0.8223 0.0
C986 C 0.67562 0.9151 0.85071 0.0
C987 C 0.71302 0.90651 0.91186 0.0
C988 C 0.72905 0.88858 0.94183 0.0
C989 C 0.69191 0.89701 0.87938 0.0
C990 C 0.7244 0.86081 0.93748 0.0
C991 C 0.70319 0.85112 0.9054 0.0
H992 H 0.87761 0.22934 0.64307 0.0
H993 H 0.92564 0.18319 0.75592 0.0
H994 H 0.91539 0.1422 0.70627 0.0
H995 H 0.89396 0.1194 0.62967 0.0
H996 H 0.84202 0.16391 0.52224 0.0
H997 H 0.85229 0.2057 0.57146 0.0
C998 C 0.88511 0.21036 0.65822 0.0
C999 C 0.90221 0.20958 0.70386 0.0
C1000 C 0.87875 0.18657 0.6299 0.0
C1001 C 0.91248 0.18456 0.72097 0.0
C1002 C 0.90669 0.16102 0.69255 0.0
C1003 C 0.88503 0.13833 0.61695 0.0
C1004 C 0.86777 0.13887 0.57193 0.0
C1005 C 0.89019 0.16185 0.64657 0.0
C1006 C 0.85565 0.16323 0.55653 0.0
C1007 C 0.86146 0.18702 0.58474 0.0
H1008 H 0.86503 0.40439 0.83265 0.0
H1009 H 0.83721 0.32411 0.79651 0.0
H1010 H 0.79532 0.333 0.84538 0.0
H1011 H 0.76838 0.36224 0.90642 0.0
H1012 H 0.79797 0.44156 0.94507 0.0
H1013 H 0.83714 0.43435 0.88748 0.0
C1014 C 0.84967 0.38894 0.83456 0.0
C1015 C 0.85447 0.36357 0.81104 0.0
C1016 C 0.82591 0.39391 0.86392 0.0
C1017 C 0.83422 0.34381 0.81435 0.0
C1018 C 0.81023 0.34884 0.84252 0.0
C1019 C 0.78315 0.37808 0.90131 0.0
C1020 C 0.78026 0.40238 0.93012 0.0
C1021 C 0.8061 0.37361 0.86868 0.0
C1022 C 0.79983 0.42256 0.92376 0.0
C1023 C 0.82225 0.4185 0.89071 0.0
H1024 H 0.56981 0.29022 0.15055 0.0
H1025 H 0.65013 0.26288 0.18667 0.0
H1026 H 0.66896 0.29994 0.13299 0.0
H1027 H 0.66224 0.34269 0.08286 0.0
H1028 H 0.58121 0.36899 0.04719 0.0
H1029 H 0.56311 0.32964 0.09283 0.0
C1030 C 0.59145 0.29228 0.14625 0.0
C1031 C 0.60858 0.27404 0.17266 0.0
C1032 C 0.60201 0.31351 0.11543 0.0
C1033 C 0.63655 0.27662 0.16633 0.0
C1034 C 0.6473 0.29789 0.1359 0.0
C1035 C 0.64065 0.33953 0.08413 0.0
C1036 C 0.62317 0.35908 0.06217 0.0
C1037 C 0.6302 0.3168 0.1111 0.0
C1038 C 0.59522 0.35455 0.06421 0.0
C1039 C 0.58477 0.33204 0.09048 0.0
H1040 H 0.62524 0.10871 0.38769 0.0
H1041 H 0.6713 0.15416 0.27154 0.0
H1042 H 0.71293 0.14371 0.32144 0.0
H1043 H 0.7359 0.11895 0.39489 0.0
H1044 H 0.68847 0.07697 0.51492 0.0
H1045 H 0.64748 0.08869 0.46633 0.0
C1046 C 0.64445 0.11633 0.37344 0.0
C1047 C 0.64553 0.13167 0.32575 0.0
C1048 C 0.66788 0.11092 0.40301 0.0
C1049 C 0.67024 0.14206 0.30805 0.0
C1050 C 0.69393 0.13611 0.33656 0.0
C1051 C 0.71667 0.11321 0.4118 0.0
C1052 C 0.71541 0.09731 0.4591 0.0
C1053 C 0.69299 0.12033 0.38393 0.0
C1054 C 0.6901 0.08919 0.47866 0.0
C1055 C 0.66661 0.09582 0.45087 0.0
H1056 H 0.64464 0.73343 0.67843 0.0
H1057 H 0.56172 0.70972 0.698 0.0
H1058 H 0.56881 0.67111 0.63883 0.0
H1059 H 0.599 0.6421 0.58786 0.0
H1060 H 0.68279 0.66335 0.57097 0.0
H1061 H 0.67485 0.70499 0.62173 0.0
C1062 C 0.62812 0.72 0.66892 0.0
C1063 C 0.60273 0.72433 0.69271 0.0
C1064 C 0.63249 0.69731 0.63551 0.0
C1065 C 0.58152 0.70663 0.68062 0.0
C1066 C 0.58553 0.68457 0.64668 0.0
C1067 C 0.61555 0.65593 0.59449 0.0
C1068 C 0.64149 0.6494 0.57574 0.0
C1069 C 0.61102 0.6794 0.62484 0.0
C1070 C 0.66259 0.66774 0.585 0.0
C1071 C 0.6581 0.69155 0.61425 0.0
H1072 H 0.37924 0.10927 0.87245 0.0
H1073 H 0.33639 0.16388 0.76771 0.0
H1074 H 0.2941 0.15346 0.81508 0.0
H1075 H 0.26943 0.12746 0.88505 0.0
H1076 H 0.31438 0.07641 0.99447 0.0
H1077 H 0.35568 0.08689 0.94653 0.0
C1078 C 0.36058 0.11871 0.8597 0.0
C1079 C 0.36072 0.13679 0.81597 0.0
C1080 C 0.33676 0.11344 0.88832 0.0
C1081 C 0.33661 0.14958 0.80088 0.0
C1082 C 0.31251 0.1437 0.82811 0.0
C1083 C 0.28824 0.11922 0.89958 0.0
C1084 C 0.28852 0.10116 0.94378 0.0
C1085 C 0.31232 0.12562 0.87204 0.0
C1086 C 0.31333 0.09022 0.96053 0.0
C1087 C 0.33708 0.09614 0.93305 0.0
H1088 H 0.84511 0.84572 0.0903 0.0
H1089 H 0.92504 0.86587 0.03454 0.0
H1090 H 0.94337 0.82701 0.08187 0.0
H1091 H 0.93742 0.78902 0.14337 0.0
H1092 H 0.85818 0.76855 0.20124 0.0
H1093 H 0.83884 0.80569 0.14857 0.0
C1094 C 0.86647 0.8414 0.08788 0.0
C1095 C 0.88366 0.85888 0.05912 0.0
C1096 C 0.87705 0.81908 0.1159 0.0
C1097 C 0.91132 0.85294 0.05658 0.0
C1098 C 0.92189 0.83072 0.08377 0.0
C1099 C 0.91589 0.79268 0.14444 0.0
C1100 C 0.89924 0.77611 0.17609 0.0
C1101 C 0.90504 0.81402 0.11438 0.0
C1102 C 0.87137 0.78084 0.17663 0.0
C1103 C 0.86035 0.80216 0.14676 0.0
H1104 H 0.2245 0.37253 0.43768 0.0
H1105 H 0.21099 0.4567 0.40348 0.0
H1106 H 0.17349 0.44531 0.34458 0.0
H1107 H 0.14244 0.4121 0.30807 0.0
H1108 H 0.15497 0.32772 0.34136 0.0
H1109 H 0.19532 0.33852 0.39381 0.0
C1110 C 0.21377 0.3883 0.41639 0.0
C1111 C 0.22057 0.41544 0.42523 0.0
C1112 C 0.19195 0.38162 0.38241 0.0
C1113 C 0.20601 0.43565 0.39803 0.0
C1114 C 0.18457 0.42919 0.36409 0.0
C1115 C 0.15411 0.39598 0.32623 0.0
C1116 C 0.14544 0.36918 0.32122 0.0
C1117 C 0.17702 0.40232 0.35686 0.0
C1118 C 0.16107 0.34858 0.34466 0.0
C1119 C 0.18411 0.35474 0.37494 0.0
H1120 H 0.37051 0.73989 0.1697 0.0
H1121 H 0.45178 0.71107 0.1907 0.0
H1122 H 0.44232 0.67258 0.13241 0.0
H1123 H 0.41009 0.64501 0.08309 0.0
H1124 H 0.32793 0.67203 0.06528 0.0
H1125 H 0.33886 0.71373 0.11313 0.0
C1126 C 0.38628 0.72553 0.16044 0.0
C1127 C 0.41181 0.72832 0.18443 0.0
C1128 C 0.38055 0.70309 0.12752 0.0
C1129 C 0.4319 0.70921 0.17306 0.0
C1130 C 0.42654 0.68724 0.13961 0.0
C1131 C 0.39461 0.66017 0.08868 0.0
C1132 C 0.36815 0.65519 0.07099 0.0
C1133 C 0.40079 0.68365 0.11768 0.0
C1134 C 0.34845 0.6752 0.0787 0.0
C1135 C 0.35464 0.69902 0.10636 0.0
H1136 H 0.2758 0.92059 0.37401 0.0
H1137 H 0.27085 0.84515 0.45927 0.0
H1138 H 0.30831 0.82722 0.40487 0.0
H1139 H 0.34653 0.836 0.34288 0.0
H1140 H 0.3513 0.91247 0.26026 0.0
H1141 H 0.3094 0.92682 0.30267 0.0
C1142 C 0.28271 0.90006 0.3799 0.0
C1143 C 0.27113 0.88425 0.42079 0.0
C1144 C 0.30419 0.89017 0.34902 0.0
C1145 C 0.27972 0.8576 0.42794 0.0
C1146 C 0.30114 0.84746 0.39704 0.0
C1147 C 0.33796 0.85546 0.33293 0.0
C1148 C 0.35222 0.87331 0.29909 0.0
C1149 C 0.31414 0.86393 0.35875 0.0
C1150 C 0.34089 0.8985 0.28667 0.0
C1151 C 0.31699 0.90679 0.31111 0.0
H1152 H 0.16251 0.84354 0.58336 0.0
H1153 H 0.08048 0.86871 0.55423 0.0
H1154 H 0.06391 0.82922 0.60196 0.0
H1155 H 0.07236 0.78937 0.65696 0.0
H1156 H 0.15378 0.76377 0.68874 0.0
H1157 H 0.17095 0.80146 0.63455 0.0
C1158 C 0.14101 0.8402 0.5868 0.0
C1159 C 0.1228 0.85928 0.56551 0.0
C1160 C 0.1315 0.81748 0.61509 0.0
C1161 C 0.095 0.85457 0.57047 0.0
C1162 C 0.08546 0.83198 0.5979 0.0
C1163 C 0.0939 0.79199 0.65201 0.0
C1164 C 0.11178 0.77388 0.67695 0.0
C1165 C 0.10349 0.81367 0.6213 0.0
C1166 C 0.13959 0.77729 0.66951 0.0
C1167 C 0.14939 0.79893 0.6388 0.0
H1168 H 0.20258 0.57498 0.92865 0.0
H1169 H 0.23519 0.65529 0.92402 0.0
H1170 H 0.20093 0.66856 0.85761 0.0
H1171 H 0.15936 0.65817 0.80717 0.0
H1172 H 0.12716 0.57745 0.81228 0.0
H1173 H 0.16388 0.56344 0.87137 0.0
C1174 C 0.20225 0.59535 0.91279 0.0
C1175 C 0.22122 0.6142 0.93134 0.0
C1176 C 0.18259 0.60275 0.87468 0.0
C1177 C 0.22089 0.6404 0.91003 0.0
C1178 C 0.20122 0.648 0.87228 0.0
C1179 C 0.16057 0.63739 0.82041 0.0
C1180 C 0.14021 0.61902 0.80565 0.0
C1181 C 0.18166 0.62945 0.85505 0.0
C1182 C 0.14235 0.59213 0.82306 0.0
C1183 C 0.16331 0.58408 0.8572 0.0
loop_
_geom_bond_atom_site_label_1
_geom_bond_atom_site_label_2
_geom_bond_distance
_geom_bond_site_symmetry_2
_ccdc_geom_bond_type
Co0 O3 1.970 . S
Co0 N17 1.989 1_554 S
Co0 O25 1.967 . S
Co0 O32 1.920 . S
Co1 O4 1.966 . S
Co1 N10 2.025 . S
Co1 N18 1.993 1_554 S
Co1 O26 1.941 . S
C2 O3 1.258 . S
C2 O4 1.263 . S
O3 Co0 1.970 . S
O3 C2 1.258 . S
O4 Co1 1.966 . S
O4 C2 1.263 . S
C5 O6 1.235 1_554 S
C5 O32 1.289 . S
O6 C5 1.235 1_556 S
C7 C9 1.400 . S
C7 N10 1.346 1_556 S
C7 C12 1.501 . S
C8 C9 1.387 . S
C8 N11 1.341 . S
C9 C7 1.400 . S
C9 C8 1.387 . S
N10 Co1 2.025 . S
N10 C7 1.346 1_554 S
N10 N11 1.363 1_554 S
N11 C8 1.341 . S
N11 N10 1.363 1_556 S
N11 H31 0.856 1_556 S
C12 C7 1.501 . S
C12 H13 0.961 1_556 S
C12 H14 0.961 . S
C12 H15 0.960 1_556 S
H13 C12 0.961 1_554 S
H14 C12 0.961 . S
H15 C12 0.960 1_554 S
C16 N17 1.342 . S
C16 C20 1.401 . S
C16 C21 1.499 . S
N17 Co0 1.989 1_556 S
N17 C16 1.342 . S
N17 N18 1.388 . S
N18 Co1 1.993 1_556 S
N18 N17 1.388 . S
N18 C19 1.346 . S
C19 N18 1.346 . S
C19 C20 1.396 . S
C19 C29 1.510 . S
C20 C16 1.401 . S
C20 C19 1.396 . S
C21 C16 1.499 . S
C21 H22 0.959 . S
C21 H23 0.960 . S
C21 H24 0.961 1_545 S
H22 C21 0.959 . S
H23 C21 0.960 . S
H24 C21 0.961 1_565 S
O25 Co0 1.967 . S
O25 C33 1.258 . S
O26 Co1 1.941 . S
O26 C33 1.266 . S
H27 C29 0.959 . S
H28 C29 0.961 . S
C29 C19 1.510 . S
C29 H27 0.959 . S
C29 H28 0.961 . S
C29 H30 0.960 . S
H30 C29 0.960 . S
H31 N11 0.856 1_554 S
O32 Co0 1.920 . S
O32 C5 1.289 . S
C33 O25 1.258 . S
C33 O26 1.266 . S
Co34 O37 1.970 . S
Co34 N51 1.989 . S
Co34 O59 1.967 . S
Co34 O66 1.920 . S
Co35 O38 1.966 . S
Co35 N44 2.022 . S
Co35 N52 1.993 . S
Co35 O60 1.941 . S
C36 O37 1.258 . S
C36 O38 1.263 . S
O37 Co34 1.970 . S
O37 C36 1.258 . S
O38 Co35 1.966 . S
O38 C36 1.263 . S
C39 O40 1.235 . S
C39 O66 1.289 . S
O40 C39 1.235 . S
C41 C43 1.400 . S
C41 N44 1.351 . S
C41 C46 1.501 . S
C42 C43 1.387 . S
C42 N45 1.341 . S
C43 C41 1.400 . S
C43 C42 1.387 . S
N44 Co35 2.022 . S
N44 C41 1.351 . S
N44 N45 1.365 . S
N45 C42 1.341 . S
N45 N44 1.365 . S
N45 H65 0.862 . S
C46 C41 1.501 . S
C46 H47 0.961 . S
C46 H48 0.961 . S
C46 H49 0.960 . S
H47 C46 0.961 . S
H48 C46 0.961 . S
H49 C46 0.960 . S
C50 N51 1.342 . S
C50 C54 1.401 . S
C50 C55 1.499 . S
N51 Co34 1.989 . S
N51 C50 1.342 . S
N51 N52 1.388 . S
N52 Co35 1.993 . S
N52 N51 1.388 . S
N52 C53 1.346 . S
C53 N52 1.346 . S
C53 C54 1.396 . S
C53 C63 1.510 . S
C54 C50 1.401 . S
C54 C53 1.396 . S
C55 C50 1.499 . S
C55 H56 0.959 . S
C55 H57 0.960 . S
C55 H58 0.961 1_655 S
H56 C55 0.959 . S
H57 C55 0.960 . S
H58 C55 0.961 1_455 S
O59 Co34 1.967 . S
O59 C67 1.258 . S
O60 Co35 1.941 . S
O60 C67 1.266 . S
H61 C63 0.959 . S
H62 C63 0.961 . S
C63 C53 1.510 . S
C63 H61 0.959 . S
C63 H62 0.961 . S
C63 H64 0.960 . S
H64 C63 0.960 . S
H65 N45 0.862 . S
O66 Co34 1.920 . S
O66 C39 1.289 . S
C67 O59 1.258 . S
C67 O60 1.266 . S
Co68 O71 1.970 . S
Co68 N85 1.989 . S
Co68 O93 1.967 . S
Co68 O100 1.920 . S
Co69 O72 1.966 . S
Co69 N78 2.022 . S
Co69 N86 1.993 . S
Co69 O94 1.941 . S
C70 O71 1.258 . S
C70 O72 1.263 . S
O71 Co68 1.970 . S
O71 C70 1.258 . S
O72 Co69 1.966 . S
O72 C70 1.263 . S
C73 O74 1.235 . S
C73 O100 1.289 . S
O74 C73 1.235 . S
C75 C77 1.400 . S
C75 N78 1.351 . S
C75 C80 1.501 . S
C76 C77 1.387 . S
C76 N79 1.341 . S
C77 C75 1.400 . S
C77 C76 1.387 . S
N78 Co69 2.022 . S
N78 C75 1.351 . S
N78 N79 1.365 . S
N79 C76 1.341 . S
N79 N78 1.365 . S
N79 H99 0.862 . S
C80 C75 1.501 . S
C80 H81 0.961 . S
C80 H82 0.961 . S
C80 H83 0.960 . S
H81 C80 0.961 . S
H82 C80 0.961 . S
H83 C80 0.960 . S
C84 N85 1.342 . S
C84 C88 1.401 . S
C84 C89 1.499 . S
N85 Co68 1.989 . S
N85 C84 1.342 . S
N85 N86 1.388 . S
N86 Co69 1.993 . S
N86 N85 1.388 . S
N86 C87 1.346 . S
C87 N86 1.346 . S
C87 C88 1.396 . S
C87 C97 1.510 . S
C88 C84 1.401 . S
C88 C87 1.396 . S
C89 C84 1.499 . S
C89 H90 0.959 . S
C89 H91 0.960 . S
C89 H92 0.961 . S
H90 C89 0.959 . S
H91 C89 0.960 . S
H92 C89 0.961 . S
O93 Co68 1.967 . S
O93 C101 1.258 . S
O94 Co69 1.941 . S
O94 C101 1.266 . S
H95 C97 0.959 . S
H96 C97 0.961 . S
C97 C87 1.510 . S
C97 H95 0.959 . S
C97 H96 0.961 . S
C97 H98 0.960 . S
H98 C97 0.960 . S
H99 N79 0.862 . S
O100 Co68 1.920 . S
O100 C73 1.289 . S
C101 O93 1.258 . S
C101 O94 1.266 . S
Co102 O105 1.970 . S
Co102 N119 1.989 . S
Co102 O127 1.967 . S
Co102 O134 1.920 . S
Co103 O106 1.966 . S
Co103 N112 2.022 . S
Co103 N120 1.993 . S
Co103 O128 1.941 . S
C104 O105 1.258 . S
C104 O106 1.263 . S
O105 Co102 1.970 . S
O105 C104 1.258 . S
O106 Co103 1.966 . S
O106 C104 1.263 . S
C107 O108 1.235 . S
C107 O134 1.289 . S
O108 C107 1.235 . S
C109 C111 1.400 . S
C109 N112 1.351 . S
C109 C114 1.501 . S
C110 C111 1.387 . S
C110 N113 1.341 . S
C111 C109 1.400 . S
C111 C110 1.387 . S
N112 Co103 2.022 . S
N112 C109 1.351 . S
N112 N113 1.365 . S
N113 C110 1.341 . S
N113 N112 1.365 . S
N113 H133 0.862 . S
C114 C109 1.501 . S
C114 H115 0.961 . S
C114 H116 0.961 . S
C114 H117 0.960 . S
H115 C114 0.961 . S
H116 C114 0.961 . S
H117 C114 0.960 . S
C118 N119 1.342 . S
C118 C122 1.401 . S
C118 C123 1.499 . S
N119 Co102 1.989 . S
N119 C118 1.342 . S
N119 N120 1.388 . S
N120 Co103 1.993 . S
N120 N119 1.388 . S
N120 C121 1.346 . S
C121 N120 1.346 . S
C121 C122 1.396 . S
C121 C131 1.510 . S
C122 C118 1.401 . S
C122 C121 1.396 . S
C123 C118 1.499 . S
C123 H124 0.959 . S
C123 H125 0.960 . S
C123 H126 0.961 . S
H124 C123 0.959 . S
H125 C123 0.960 . S
H126 C123 0.961 . S
O127 Co102 1.967 . S
O127 C135 1.258 . S
O128 Co103 1.941 . S
O128 C135 1.266 . S
H129 C131 0.959 . S
H130 C131 0.961 . S
C131 C121 1.510 . S
C131 H129 0.959 . S
C131 H130 0.961 . S
C131 H132 0.960 . S
H132 C131 0.960 . S
H133 N113 0.862 . S
O134 Co102 1.920 . S
O134 C107 1.289 . S
C135 O127 1.258 . S
C135 O128 1.266 . S
Co136 O139 1.970 . S
Co136 N153 1.989 . S
Co136 O161 1.967 . S
Co136 O168 1.920 . S
Co137 O140 1.966 . S
Co137 N146 2.022 . S
Co137 N154 1.993 . S
Co137 O162 1.941 . S
C138 O139 1.258 . S
C138 O140 1.263 . S
O139 Co136 1.970 . S
O139 C138 1.258 . S
O140 Co137 1.966 . S
O140 C138 1.263 . S
C141 O142 1.235 . S
C141 O168 1.289 . S
O142 C141 1.235 . S
C143 C145 1.400 . S
C143 N146 1.351 . S
C143 C148 1.501 . S
C144 C145 1.387 . S
C144 N147 1.341 . S
C145 C143 1.400 . S
C145 C144 1.387 . S
N146 Co137 2.022 . S
N146 C143 1.351 . S
N146 N147 1.365 . S
N147 C144 1.341 . S
N147 N146 1.365 . S
N147 H167 0.862 . S
C148 C143 1.501 . S
C148 H149 0.961 . S
C148 H150 0.961 . S
C148 H151 0.960 . S
H149 C148 0.961 . S
H150 C148 0.961 . S
H151 C148 0.960 . S
C152 N153 1.342 . S
C152 C156 1.401 . S
C152 C157 1.499 . S
N153 Co136 1.989 . S
N153 C152 1.342 . S
N153 N154 1.388 . S
N154 Co137 1.993 . S
N154 N153 1.388 . S
N154 C155 1.346 . S
C155 N154 1.346 . S
C155 C156 1.396 . S
C155 C165 1.510 . S
C156 C152 1.401 . S
C156 C155 1.396 . S
C157 C152 1.499 . S
C157 H158 0.959 . S
C157 H159 0.960 . S
C157 H160 0.961 1_545 S
H158 C157 0.959 . S
H159 C157 0.960 . S
H160 C157 0.961 1_565 S
O161 Co136 1.967 . S
O161 C169 1.258 . S
O162 Co137 1.941 . S
O162 C169 1.266 . S
H163 C165 0.959 . S
H164 C165 0.961 . S
C165 C155 1.510 . S
C165 H163 0.959 . S
C165 H164 0.961 . S
C165 H166 0.960 . S
H166 C165 0.960 . S
H167 N147 0.862 . S
O168 Co136 1.920 . S
O168 C141 1.289 . S
C169 O161 1.258 . S
C169 O162 1.266 . S
Co170 O173 1.970 . S
Co170 N187 1.989 . S
Co170 O195 1.967 . S
Co170 O202 1.920 . S
Co171 O174 1.966 . S
Co171 N180 2.022 . S
Co171 N188 1.993 . S
Co171 O196 1.941 . S
C172 O173 1.258 . S
C172 O174 1.263 . S
O173 Co170 1.970 . S
O173 C172 1.258 . S
O174 Co171 1.966 . S
O174 C172 1.263 . S
C175 O176 1.235 . S
C175 O202 1.289 . S
O176 C175 1.235 . S
C177 C179 1.400 . S
C177 N180 1.351 . S
C177 C182 1.501 . S
C178 C179 1.387 . S
C178 N181 1.341 . S
C179 C177 1.400 . S
C179 C178 1.387 . S
N180 Co171 2.022 . S
N180 C177 1.351 . S
N180 N181 1.365 . S
N181 C178 1.341 . S
N181 N180 1.365 . S
N181 H201 0.862 . S
C182 C177 1.501 . S
C182 H183 0.961 . S
C182 H184 0.961 . S
C182 H185 0.960 . S
H183 C182 0.961 . S
H184 C182 0.961 . S
H185 C182 0.960 . S
C186 N187 1.342 . S
C186 C190 1.401 . S
C186 C191 1.499 . S
N187 Co170 1.989 . S
N187 C186 1.342 . S
N187 N188 1.388 . S
N188 Co171 1.993 . S
N188 N187 1.388 . S
N188 C189 1.346 . S
C189 N188 1.346 . S
C189 C190 1.396 . S
C189 C199 1.510 . S
C190 C186 1.401 . S
C190 C189 1.396 . S
C191 C186 1.499 . S
C191 H192 0.959 . S
C191 H193 0.960 . S
C191 H194 0.961 1_655 S
H192 C191 0.959 . S
H193 C191 0.960 . S
H194 C191 0.961 1_455 S
O195 Co170 1.967 . S
O195 C203 1.258 . S
O196 Co171 1.941 . S
O196 C203 1.266 . S
H197 C199 0.959 . S
H198 C199 0.961 . S
C199 C189 1.510 . S
C199 H197 0.959 . S
C199 H198 0.961 . S
C199 H200 0.960 . S
H200 C199 0.960 . S
H201 N181 0.862 . S
O202 Co170 1.920 . S
O202 C175 1.289 . S
C203 O195 1.258 . S
C203 O196 1.266 . S
Co204 O207 1.970 . S
Co204 N221 1.989 1_554 S
Co204 O229 1.967 . S
Co204 O236 1.920 . S
Co205 O208 1.966 . S
Co205 N214 2.025 . S
Co205 N222 1.993 1_554 S
Co205 O230 1.941 . S
C206 O207 1.258 . S
C206 O208 1.263 . S
O207 Co204 1.970 . S
O207 C206 1.258 . S
O208 Co205 1.966 . S
O208 C206 1.263 . S
C209 O210 1.235 1_554 S
C209 O236 1.289 . S
O210 C209 1.235 1_556 S
C211 C213 1.400 . S
C211 N214 1.346 1_556 S
C211 C216 1.501 . S
C212 C213 1.387 . S
C212 N215 1.341 . S
C213 C211 1.400 . S
C213 C212 1.387 . S
N214 Co205 2.025 . S
N214 C211 1.346 1_554 S
N214 N215 1.363 1_554 S
N215 C212 1.341 . S
N215 N214 1.363 1_556 S
N215 H235 0.856 1_556 S
C216 C211 1.501 . S
C216 H217 0.961 1_556 S
C216 H218 0.961 . S
C216 H219 0.960 1_556 S
H217 C216 0.961 1_554 S
H218 C216 0.961 . S
H219 C216 0.960 1_554 S
C220 N221 1.342 . S
C220 C224 1.401 . S
C220 C225 1.499 . S
N221 Co204 1.989 1_556 S
N221 C220 1.342 . S
N221 N222 1.388 . S
N222 Co205 1.993 1_556 S
N222 N221 1.388 . S
N222 C223 1.346 . S
C223 N222 1.346 . S
C223 C224 1.396 . S
C223 C233 1.510 . S
C224 C220 1.401 . S
C224 C223 1.396 . S
C225 C220 1.499 . S
C225 H226 0.959 . S
C225 H227 0.960 . S
C225 H228 0.961 . S
H226 C225 0.959 . S
H227 C225 0.960 . S
H228 C225 0.961 . S
O229 Co204 1.967 . S
O229 C237 1.258 . S
O230 Co205 1.941 . S
O230 C237 1.266 . S
H231 C233 0.959 . S
H232 C233 0.961 . S
C233 C223 1.510 . S
C233 H231 0.959 . S
C233 H232 0.961 . S
C233 H234 0.960 . S
H234 C233 0.960 . S
H235 N215 0.856 1_554 S
O236 Co204 1.920 . S
O236 C209 1.289 . S
C237 O229 1.258 . S
C237 O230 1.266 . S
Co238 O241 1.970 . S
Co238 N255 1.989 . S
Co238 O263 1.967 . S
Co238 O270 1.920 . S
Co239 O242 1.966 . S
Co239 N248 2.022 . S
Co239 N256 1.993 . S
Co239 O264 1.941 . S
C240 O241 1.258 . S
C240 O242 1.263 . S
O241 Co238 1.970 . S
O241 C240 1.258 . S
O242 Co239 1.966 . S
O242 C240 1.263 . S
C243 O244 1.235 . S
C243 O270 1.289 . S
O244 C243 1.235 . S
C245 C247 1.400 . S
C245 N248 1.351 . S
C245 C250 1.501 . S
C246 C247 1.387 . S
C246 N249 1.341 . S
C247 C245 1.400 . S
C247 C246 1.387 . S
N248 Co239 2.022 . S
N248 C245 1.351 . S
N248 N249 1.365 . S
N249 C246 1.341 . S
N249 N248 1.365 . S
N249 H269 0.862 . S
C250 C245 1.501 . S
C250 H251 0.961 . S
C250 H252 0.961 . S
C250 H253 0.960 . S
H251 C250 0.961 . S
H252 C250 0.961 . S
H253 C250 0.960 . S
C254 N255 1.342 . S
C254 C258 1.401 . S
C254 C259 1.499 . S
N255 Co238 1.989 . S
N255 C254 1.342 . S
N255 N256 1.388 . S
N256 Co239 1.993 . S
N256 N255 1.388 . S
N256 C257 1.346 . S
C257 N256 1.346 . S
C257 C258 1.396 . S
C257 C267 1.510 . S
C258 C254 1.401 . S
C258 C257 1.396 . S
C259 C254 1.499 . S
C259 H260 0.959 . S
C259 H261 0.960 . S
C259 H262 0.961 . S
H260 C259 0.959 . S
H261 C259 0.960 . S
H262 C259 0.961 . S
O263 Co238 1.967 . S
O263 C271 1.258 . S
O264 Co239 1.941 . S
O264 C271 1.266 . S
H265 C267 0.959 . S
H266 C267 0.961 . S
C267 C257 1.510 . S
C267 H265 0.959 . S
C267 H266 0.961 . S
C267 H268 0.960 . S
H268 C267 0.960 . S
H269 N249 0.862 . S
O270 Co238 1.920 . S
O270 C243 1.289 . S
C271 O263 1.258 . S
C271 O264 1.266 . S
Co272 O275 1.970 . S
Co272 N289 1.989 . S
Co272 O297 1.967 . S
Co272 O304 1.920 . S
Co273 O276 1.966 . S
Co273 N282 2.022 . S
Co273 N290 1.993 . S
Co273 O298 1.941 . S
C274 O275 1.258 . S
C274 O276 1.263 . S
O275 Co272 1.970 . S
O275 C274 1.258 . S
O276 Co273 1.966 . S
O276 C274 1.263 . S
C277 O278 1.235 . S
C277 O304 1.289 . S
O278 C277 1.235 . S
C279 C281 1.400 . S
C279 N282 1.351 . S
C279 C284 1.501 . S
C280 C281 1.387 . S
C280 N283 1.341 . S
C281 C279 1.400 . S
C281 C280 1.387 . S
N282 Co273 2.022 . S
N282 C279 1.351 . S
N282 N283 1.365 . S
N283 C280 1.341 . S
N283 N282 1.365 . S
N283 H303 0.862 . S
C284 C279 1.501 . S
C284 H285 0.961 . S
C284 H286 0.961 . S
C284 H287 0.960 . S
H285 C284 0.961 . S
H286 C284 0.961 . S
H287 C284 0.960 . S
C288 N289 1.342 . S
C288 C292 1.401 . S
C288 C293 1.499 . S
N289 Co272 1.989 . S
N289 C288 1.342 . S
N289 N290 1.388 . S
N290 Co273 1.993 . S
N290 N289 1.388 . S
N290 C291 1.346 . S
C291 N290 1.346 . S
C291 C292 1.396 . S
C291 C301 1.510 . S
C292 C288 1.401 . S
C292 C291 1.396 . S
C293 C288 1.499 . S
C293 H294 0.959 . S
C293 H295 0.960 . S
C293 H296 0.961 . S
H294 C293 0.959 . S
H295 C293 0.960 . S
H296 C293 0.961 . S
O297 Co272 1.967 . S
O297 C305 1.258 . S
O298 Co273 1.941 . S
O298 C305 1.266 . S
H299 C301 0.959 . S
H300 C301 0.961 . S
C301 C291 1.510 . S
C301 H299 0.959 . S
C301 H300 0.961 . S
C301 H302 0.960 . S
H302 C301 0.960 . S
H303 N283 0.862 . S
O304 Co272 1.920 . S
O304 C277 1.289 . S
C305 O297 1.258 . S
C305 O298 1.266 . S
Co306 O309 1.970 . S
Co306 N323 1.989 . S
Co306 O331 1.967 . S
Co306 O338 1.920 . S
Co307 O310 1.966 . S
Co307 N316 2.022 . S
Co307 N324 1.993 . S
Co307 O332 1.941 . S
C308 O309 1.258 . S
C308 O310 1.263 . S
O309 Co306 1.970 . S
O309 C308 1.258 . S
O310 Co307 1.966 . S
O310 C308 1.263 . S
C311 O312 1.235 . S
C311 O338 1.289 . S
O312 C311 1.235 . S
C313 C315 1.400 . S
C313 N316 1.351 . S
C313 C318 1.501 . S
C314 C315 1.387 . S
C314 N317 1.341 . S
C315 C313 1.400 . S
C315 C314 1.387 . S
N316 Co307 2.022 . S
N316 C313 1.351 . S
N316 N317 1.365 . S
N317 C314 1.341 . S
N317 N316 1.365 . S
N317 H337 0.862 . S
C318 C313 1.501 . S
C318 H319 0.961 . S
C318 H320 0.961 . S
C318 H321 0.960 . S
H319 C318 0.961 . S
H320 C318 0.961 . S
H321 C318 0.960 . S
C322 N323 1.342 . S
C322 C326 1.401 . S
C322 C327 1.499 . S
N323 Co306 1.989 . S
N323 C322 1.342 . S
N323 N324 1.388 . S
N324 Co307 1.993 . S
N324 N323 1.388 . S
N324 C325 1.346 . S
C325 N324 1.346 . S
C325 C326 1.396 . S
C325 C335 1.510 . S
C326 C322 1.401 . S
C326 C325 1.396 . S
C327 C322 1.499 . S
C327 H328 0.959 . S
C327 H329 0.960 . S
C327 H330 0.961 . S
H328 C327 0.959 . S
H329 C327 0.960 . S
H330 C327 0.961 . S
O331 Co306 1.967 . S
O331 C339 1.258 . S
O332 Co307 1.941 . S
O332 C339 1.266 . S
H333 C335 0.959 . S
H334 C335 0.961 . S
C335 C325 1.510 . S
C335 H333 0.959 . S
C335 H334 0.961 . S
C335 H336 0.960 . S
H336 C335 0.960 . S
H337 N317 0.862 . S
O338 Co306 1.920 . S
O338 C311 1.289 . S
C339 O331 1.258 . S
C339 O332 1.266 . S
Co340 O343 1.970 . S
Co340 N357 1.989 1_554 S
Co340 O365 1.967 . S
Co340 O372 1.920 . S
Co341 O344 1.966 . S
Co341 N350 2.025 . S
Co341 N358 1.993 1_554 S
Co341 O366 1.941 . S
C342 O343 1.258 . S
C342 O344 1.263 . S
O343 Co340 1.970 . S
O343 C342 1.258 . S
O344 Co341 1.966 . S
O344 C342 1.263 . S
C345 O346 1.235 1_554 S
C345 O372 1.289 . S
O346 C345 1.235 1_556 S
C347 C349 1.400 . S
C347 N350 1.346 1_556 S
C347 C352 1.501 . S
C348 C349 1.387 . S
C348 N351 1.341 . S
C349 C347 1.400 . S
C349 C348 1.387 . S
N350 Co341 2.025 . S
N350 C347 1.346 1_554 S
N350 N351 1.363 1_554 S
N351 C348 1.341 . S
N351 N350 1.363 1_556 S
N351 H371 0.856 1_556 S
C352 C347 1.501 . S
C352 H353 0.961 1_556 S
C352 H354 0.961 . S
C352 H355 0.960 1_556 S
H353 C352 0.961 1_554 S
H354 C352 0.961 . S
H355 C352 0.960 1_554 S
C356 N357 1.342 . S
C356 C360 1.401 . S
C356 C361 1.499 . S
N357 Co340 1.989 1_556 S
N357 C356 1.342 . S
N357 N358 1.388 . S
N358 Co341 1.993 1_556 S
N358 N357 1.388 . S
N358 C359 1.346 . S
C359 N358 1.346 . S
C359 C360 1.396 . S
C359 C369 1.510 . S
C360 C356 1.401 . S
C360 C359 1.396 . S
C361 C356 1.499 . S
C361 H362 0.959 . S
C361 H363 0.960 . S
C361 H364 0.961 1_565 S
H362 C361 0.959 . S
H363 C361 0.960 . S
H364 C361 0.961 1_545 S
O365 Co340 1.967 . S
O365 C373 1.258 . S
O366 Co341 1.941 . S
O366 C373 1.266 . S
H367 C369 0.959 . S
H368 C369 0.961 . S
C369 C359 1.510 . S
C369 H367 0.959 . S
C369 H368 0.961 . S
C369 H370 0.960 . S
H370 C369 0.960 . S
H371 N351 0.856 1_554 S
O372 Co340 1.920 . S
O372 C345 1.289 . S
C373 O365 1.258 . S
C373 O366 1.266 . S
Co374 O377 1.970 . S
Co374 N391 1.989 . S
Co374 O399 1.967 . S
Co374 O406 1.920 . S
Co375 O378 1.966 . S
Co375 N384 2.022 . S
Co375 N392 1.993 . S
Co375 O400 1.941 . S
C376 O377 1.258 . S
C376 O378 1.263 . S
O377 Co374 1.970 . S
O377 C376 1.258 . S
O378 Co375 1.966 . S
O378 C376 1.263 . S
C379 O380 1.235 . S
C379 O406 1.289 . S
O380 C379 1.235 . S
C381 C383 1.400 . S
C381 N384 1.351 . S
C381 C386 1.501 . S
C382 C383 1.387 . S
C382 N385 1.341 . S
C383 C381 1.400 . S
C383 C382 1.387 . S
N384 Co375 2.022 . S
N384 C381 1.351 . S
N384 N385 1.365 . S
N385 C382 1.341 . S
N385 N384 1.365 . S
N385 H405 0.862 . S
C386 C381 1.501 . S
C386 H387 0.961 . S
C386 H388 0.961 . S
C386 H389 0.960 . S
H387 C386 0.961 . S
H388 C386 0.961 . S
H389 C386 0.960 . S
C390 N391 1.342 . S
C390 C394 1.401 . S
C390 C395 1.499 . S
N391 Co374 1.989 . S
N391 C390 1.342 . S
N391 N392 1.388 . S
N392 Co375 1.993 . S
N392 N391 1.388 . S
N392 C393 1.346 . S
C393 N392 1.346 . S
C393 C394 1.396 . S
C393 C403 1.510 . S
C394 C390 1.401 . S
C394 C393 1.396 . S
C395 C390 1.499 . S
C395 H396 0.959 . S
C395 H397 0.960 . S
C395 H398 0.961 1_455 S
H396 C395 0.959 . S
H397 C395 0.960 . S
H398 C395 0.961 1_655 S
O399 Co374 1.967 . S
O399 C407 1.258 . S
O400 Co375 1.941 . S
O400 C407 1.266 . S
H401 C403 0.959 . S
H402 C403 0.961 . S
C403 C393 1.510 . S
C403 H401 0.959 . S
C403 H402 0.961 . S
C403 H404 0.960 . S
H404 C403 0.960 . S
H405 N385 0.862 . S
O406 Co374 1.920 . S
O406 C379 1.289 . S
C407 O399 1.258 . S
C407 O400 1.266 . S
Co408 O411 1.970 . S
Co408 N425 1.989 1_554 S
Co408 O433 1.967 . S
Co408 O440 1.920 . S
Co409 O412 1.966 . S
Co409 N418 2.025 . S
Co409 N426 1.993 1_554 S
Co409 O434 1.941 . S
C410 O411 1.258 . S
C410 O412 1.263 . S
O411 Co408 1.970 . S
O411 C410 1.258 . S
O412 Co409 1.966 . S
O412 C410 1.263 . S
C413 O414 1.235 1_554 S
C413 O440 1.289 . S
O414 C413 1.235 1_556 S
C415 C417 1.400 . S
C415 N418 1.346 1_556 S
C415 C420 1.501 . S
C416 C417 1.387 . S
C416 N419 1.341 . S
C417 C415 1.400 . S
C417 C416 1.387 . S
N418 Co409 2.025 . S
N418 C415 1.346 1_554 S
N418 N419 1.363 1_554 S
N419 C416 1.341 . S
N419 N418 1.363 1_556 S
N419 H439 0.856 1_556 S
C420 C415 1.501 . S
C420 H421 0.961 1_556 S
C420 H422 0.961 . S
C420 H423 0.960 1_556 S
H421 C420 0.961 1_554 S
H422 C420 0.961 . S
H423 C420 0.960 1_554 S
C424 N425 1.342 . S
C424 C428 1.401 . S
C424 C429 1.499 . S
N425 Co408 1.989 1_556 S
N425 C424 1.342 . S
N425 N426 1.388 . S
N426 Co409 1.993 1_556 S
N426 N425 1.388 . S
N426 C427 1.346 . S
C427 N426 1.346 . S
C427 C428 1.396 . S
C427 C437 1.510 . S
C428 C424 1.401 . S
C428 C427 1.396 . S
C429 C424 1.499 . S
C429 H430 0.959 . S
C429 H431 0.960 . S
C429 H432 0.961 . S
H430 C429 0.959 . S
H431 C429 0.960 . S
H432 C429 0.961 . S
O433 Co408 1.967 . S
O433 C441 1.258 . S
O434 Co409 1.941 . S
O434 C441 1.266 . S
H435 C437 0.959 . S
H436 C437 0.961 . S
C437 C427 1.510 . S
C437 H435 0.959 . S
C437 H436 0.961 . S
C437 H438 0.960 . S
H438 C437 0.960 . S
H439 N419 0.856 1_554 S
O440 Co408 1.920 . S
O440 C413 1.289 . S
C441 O433 1.258 . S
C441 O434 1.266 . S
Co442 O445 1.970 . S
Co442 N459 1.989 . S
Co442 O467 1.967 . S
Co442 O474 1.920 . S
Co443 O446 1.966 . S
Co443 N452 2.022 . S
Co443 N460 1.993 . S
Co443 O468 1.941 . S
C444 O445 1.258 . S
C444 O446 1.263 . S
O445 Co442 1.970 . S
O445 C444 1.258 . S
O446 Co443 1.966 . S
O446 C444 1.263 . S
C447 O448 1.235 . S
C447 O474 1.289 . S
O448 C447 1.235 . S
C449 C451 1.400 . S
C449 N452 1.351 . S
C449 C454 1.501 . S
C450 C451 1.387 . S
C450 N453 1.341 . S
C451 C449 1.400 . S
C451 C450 1.387 . S
N452 Co443 2.022 . S
N452 C449 1.351 . S
N452 N453 1.365 . S
N453 C450 1.341 . S
N453 N452 1.365 . S
N453 H473 0.862 . S
C454 C449 1.501 . S
C454 H455 0.961 . S
C454 H456 0.961 . S
C454 H457 0.960 . S
H455 C454 0.961 . S
H456 C454 0.961 . S
H457 C454 0.960 . S
C458 N459 1.342 . S
C458 C462 1.401 . S
C458 C463 1.499 . S
N459 Co442 1.989 . S
N459 C458 1.342 . S
N459 N460 1.388 . S
N460 Co443 1.993 . S
N460 N459 1.388 . S
N460 C461 1.346 . S
C461 N460 1.346 . S
C461 C462 1.396 . S
C461 C471 1.510 . S
C462 C458 1.401 . S
C462 C461 1.396 . S
C463 C458 1.499 . S
C463 H464 0.959 . S
C463 H465 0.960 . S
C463 H466 0.961 . S
H464 C463 0.959 . S
H465 C463 0.960 . S
H466 C463 0.961 . S
O467 Co442 1.967 . S
O467 C475 1.258 . S
O468 Co443 1.941 . S
O468 C475 1.266 . S
H469 C471 0.959 . S
H470 C471 0.961 . S
C471 C461 1.510 . S
C471 H469 0.959 . S
C471 H470 0.961 . S
C471 H472 0.960 . S
H472 C471 0.960 . S
H473 N453 0.862 . S
O474 Co442 1.920 . S
O474 C447 1.289 . S
C475 O467 1.258 . S
C475 O468 1.266 . S
Co476 O479 1.970 . S
Co476 N493 1.989 . S
Co476 O501 1.967 . S
Co476 O508 1.920 . S
Co477 O480 1.966 . S
Co477 N486 2.022 . S
Co477 N494 1.993 . S
Co477 O502 1.941 . S
C478 O479 1.258 . S
C478 O480 1.263 . S
O479 Co476 1.970 . S
O479 C478 1.258 . S
O480 Co477 1.966 . S
O480 C478 1.263 . S
C481 O482 1.235 . S
C481 O508 1.289 . S
O482 C481 1.235 . S
C483 C485 1.400 . S
C483 N486 1.351 . S
C483 C488 1.501 . S
C484 C485 1.387 . S
C484 N487 1.341 . S
C485 C483 1.400 . S
C485 C484 1.387 . S
N486 Co477 2.022 . S
N486 C483 1.351 . S
N486 N487 1.365 . S
N487 C484 1.341 . S
N487 N486 1.365 . S
N487 H507 0.862 . S
C488 C483 1.501 . S
C488 H489 0.961 . S
C488 H490 0.961 . S
C488 H491 0.960 . S
H489 C488 0.961 . S
H490 C488 0.961 . S
H491 C488 0.960 . S
C492 N493 1.342 . S
C492 C496 1.401 . S
C492 C497 1.499 . S
N493 Co476 1.989 . S
N493 C492 1.342 . S
N493 N494 1.388 . S
N494 Co477 1.993 . S
N494 N493 1.388 . S
N494 C495 1.346 . S
C495 N494 1.346 . S
C495 C496 1.396 . S
C495 C505 1.510 . S
C496 C492 1.401 . S
C496 C495 1.396 . S
C497 C492 1.499 . S
C497 H498 0.959 . S
C497 H499 0.960 . S
C497 H500 0.961 1_565 S
H498 C497 0.959 . S
H499 C497 0.960 . S
H500 C497 0.961 1_545 S
O501 Co476 1.967 . S
O501 C509 1.258 . S
O502 Co477 1.941 . S
O502 C509 1.266 . S
H503 C505 0.959 . S
H504 C505 0.961 . S
C505 C495 1.510 . S
C505 H503 0.959 . S
C505 H504 0.961 . S
C505 H506 0.960 . S
H506 C505 0.960 . S
H507 N487 0.862 . S
O508 Co476 1.920 . S
O508 C481 1.289 . S
C509 O501 1.258 . S
C509 O502 1.266 . S
Co510 O513 1.970 . S
Co510 N527 1.989 . S
Co510 O535 1.967 . S
Co510 O542 1.920 . S
Co511 O514 1.966 . S
Co511 N520 2.022 . S
Co511 N528 1.993 . S
Co511 O536 1.941 . S
C512 O513 1.258 . S
C512 O514 1.263 . S
O513 Co510 1.970 . S
O513 C512 1.258 . S
O514 Co511 1.966 . S
O514 C512 1.263 . S
C515 O516 1.235 . S
C515 O542 1.289 . S
O516 C515 1.235 . S
C517 C519 1.400 . S
C517 N520 1.351 . S
C517 C522 1.501 . S
C518 C519 1.387 . S
C518 N521 1.341 . S
C519 C517 1.400 . S
C519 C518 1.387 . S
N520 Co511 2.022 . S
N520 C517 1.351 . S
N520 N521 1.365 . S
N521 C518 1.341 . S
N521 N520 1.365 . S
N521 H541 0.862 . S
C522 C517 1.501 . S
C522 H523 0.961 . S
C522 H524 0.961 . S
C522 H525 0.960 . S
H523 C522 0.961 . S
H524 C522 0.961 . S
H525 C522 0.960 . S
C526 N527 1.342 . S
C526 C530 1.401 . S
C526 C531 1.499 . S
N527 Co510 1.989 . S
N527 C526 1.342 . S
N527 N528 1.388 . S
N528 Co511 1.993 . S
N528 N527 1.388 . S
N528 C529 1.346 . S
C529 N528 1.346 . S
C529 C530 1.396 . S
C529 C539 1.510 . S
C530 C526 1.401 . S
C530 C529 1.396 . S
C531 C526 1.499 . S
C531 H532 0.959 . S
C531 H533 0.960 . S
C531 H534 0.961 1_455 S
H532 C531 0.959 . S
H533 C531 0.960 . S
H534 C531 0.961 1_655 S
O535 Co510 1.967 . S
O535 C543 1.258 . S
O536 Co511 1.941 . S
O536 C543 1.266 . S
H537 C539 0.959 . S
H538 C539 0.961 . S
C539 C529 1.510 . S
C539 H537 0.959 . S
C539 H538 0.961 . S
C539 H540 0.960 . S
H540 C539 0.960 . S
H541 N521 0.862 . S
O542 Co510 1.920 . S
O542 C515 1.289 . S
C543 O535 1.258 . S
C543 O536 1.266 . S
H544 C550 0.937 . S
H545 C553 0.930 1_556 S
H546 C554 0.930 1_556 S
H547 C555 0.937 . S
H548 C558 0.930 . S
H549 C559 0.930 . S
C550 H544 0.937 . S
C550 C551 1.344 1_545 S
C550 C552 1.418 . S
C551 C550 1.344 1_565 S
C551 C553 1.419 . S
C552 C550 1.418 . S
C552 C557 1.425 1_645 S
C552 C559 1.409 . S
C553 H545 0.930 1_554 S
C553 C551 1.419 . S
C553 C554 1.362 1_655 S
C554 H546 0.930 1_554 S
C554 C553 1.362 1_455 S
C554 C557 1.409 . S
C555 H547 0.937 . S
C555 C556 1.344 1_565 S
C555 C557 1.418 . S
C556 C555 1.344 1_545 S
C556 C558 1.419 . S
C557 C552 1.425 1_465 S
C557 C554 1.409 . S
C557 C555 1.418 . S
C558 H548 0.930 . S
C558 C556 1.419 . S
C558 C559 1.362 1_455 S
C559 H549 0.930 . S
C559 C552 1.409 . S
C559 C558 1.362 1_655 S
H560 C566 0.923 1_455 S
H561 C569 0.930 . S
H562 C570 0.930 . S
H563 C571 0.923 1_655 S
H564 C574 0.930 . S
H565 C575 0.930 . S
C566 H560 0.923 1_655 S
C566 C567 1.364 . S
C566 C568 1.411 1_655 S
C567 C566 1.364 . S
C567 C569 1.419 . S
C568 C566 1.411 1_455 S
C568 C573 1.425 1_455 S
C568 C575 1.409 . S
C569 H561 0.930 . S
C569 C567 1.419 . S
C569 C570 1.362 . S
C570 H562 0.930 . S
C570 C569 1.362 . S
C570 C573 1.409 . S
C571 H563 0.923 1_455 S
C571 C572 1.364 . S
C571 C573 1.411 1_455 S
C572 C571 1.364 . S
C572 C574 1.419 . S
C573 C568 1.425 1_655 S
C573 C570 1.409 . S
C573 C571 1.411 1_655 S
C574 H564 0.930 . S
C574 C572 1.419 . S
C574 C575 1.362 . S
C575 H565 0.930 . S
C575 C568 1.409 . S
C575 C574 1.362 . S
H576 C582 0.930 . S
H577 C585 0.930 . S
H578 C586 0.930 . S
H579 C587 0.930 . S
H580 C590 0.930 . S
H581 C591 0.930 . S
C582 H576 0.930 . S
C582 C583 1.355 . S
C582 C584 1.415 . S
C583 C582 1.355 . S
C583 C585 1.419 . S
C584 C582 1.415 . S
C584 C589 1.425 . S
C584 C591 1.409 . S
C585 H577 0.930 . S
C585 C583 1.419 . S
C585 C586 1.362 . S
C586 H578 0.930 . S
C586 C585 1.362 . S
C586 C589 1.409 . S
C587 H579 0.930 . S
C587 C588 1.355 . S
C587 C589 1.415 . S
C588 C587 1.355 . S
C588 C590 1.419 . S
C589 C584 1.425 . S
C589 C586 1.409 . S
C589 C587 1.415 . S
C590 H580 0.930 . S
C590 C588 1.419 . S
C590 C591 1.362 . S
C591 H581 0.930 . S
C591 C584 1.409 . S
C591 C590 1.362 . S
H592 C598 0.930 . S
H593 C601 0.930 . S
H594 C602 0.930 . S
H595 C603 0.930 . S
H596 C606 0.930 . S
H597 C607 0.930 . S
C598 H592 0.930 . S
C598 C599 1.355 . S
C598 C600 1.415 . S
C599 C598 1.355 . S
C599 C601 1.419 . S
C600 C598 1.415 . S
C600 C605 1.425 1_565 S
C600 C607 1.409 1_565 S
C601 H593 0.930 . S
C601 C599 1.419 . S
C601 C602 1.362 . S
C602 H594 0.930 . S
C602 C601 1.362 . S
C602 C605 1.409 1_565 S
C603 H595 0.930 . S
C603 C604 1.355 . S
C603 C605 1.415 . S
C604 C603 1.355 . S
C604 C606 1.419 . S
C605 C600 1.425 1_545 S
C605 C602 1.409 1_545 S
C605 C603 1.415 . S
C606 H596 0.930 . S
C606 C604 1.419 . S
C606 C607 1.362 . S
C607 H597 0.930 . S
C607 C600 1.409 1_545 S
C607 C606 1.362 . S
H608 C614 0.930 1_545 S
H609 C617 0.930 . S
H610 C618 0.947 . S
H611 C619 0.930 1_565 S
H612 C622 0.930 . S
H613 C623 0.947 . S
C614 H608 0.930 1_565 S
C614 C615 1.355 . S
C614 C616 1.415 1_565 S
C615 C614 1.355 . S
C615 C617 1.419 . S
C616 C614 1.415 1_545 S
C616 C621 1.425 1_445 S
C616 C623 1.417 . S
C617 H609 0.930 . S
C617 C615 1.419 . S
C617 C618 1.338 1_455 S
C618 H610 0.947 . S
C618 C617 1.338 1_655 S
C618 C621 1.417 . S
C619 H611 0.930 1_545 S
C619 C620 1.355 . S
C619 C621 1.415 1_545 S
C620 C619 1.355 . S
C620 C622 1.419 . S
C621 C616 1.425 1_665 S
C621 C618 1.417 . S
C621 C619 1.415 1_565 S
C622 H612 0.930 . S
C622 C620 1.419 . S
C622 C623 1.338 1_655 S
C623 H613 0.947 . S
C623 C616 1.417 . S
C623 C622 1.338 1_455 S
H624 C630 0.930 . S
H625 C633 0.930 . S
H626 C634 0.930 . S
H627 C635 0.930 . S
H628 C638 0.930 . S
H629 C639 0.930 . S
C630 H624 0.930 . S
C630 C631 1.355 . S
C630 C632 1.415 . S
C631 C630 1.355 . S
C631 C633 1.419 . S
C632 C630 1.415 . S
C632 C637 1.425 1_655 S
C632 C639 1.409 1_655 S
C633 H625 0.930 . S
C633 C631 1.419 . S
C633 C634 1.362 . S
C634 H626 0.930 . S
C634 C633 1.362 . S
C634 C637 1.409 1_655 S
C635 H627 0.930 . S
C635 C636 1.355 . S
C635 C637 1.415 . S
C636 C635 1.355 . S
C636 C638 1.419 . S
C637 C632 1.425 1_455 S
C637 C634 1.409 1_455 S
C637 C635 1.415 . S
C638 H628 0.930 . S
C638 C636 1.419 . S
C638 C639 1.362 . S
C639 H629 0.930 . S
C639 C632 1.409 1_455 S
C639 C638 1.362 . S
H640 C646 0.930 . S
H641 C649 0.929 1_556 S
H642 C650 0.930 1_556 S
H643 C651 0.930 . S
H644 C654 0.930 . S
H645 C655 0.930 . S
C646 H640 0.930 . S
C646 C647 1.355 . S
C646 C648 1.415 . S
C647 C646 1.355 . S
C647 C649 1.419 . S
C648 C646 1.415 . S
C648 C653 1.425 . S
C648 C655 1.409 . S
C649 H641 0.929 1_554 S
C649 C647 1.419 . S
C649 C650 1.362 . S
C650 H642 0.930 1_554 S
C650 C649 1.362 . S
C650 C653 1.409 . S
C651 H643 0.930 . S
C651 C652 1.355 . S
C651 C653 1.415 . S
C652 C651 1.355 . S
C652 C654 1.419 . S
C653 C648 1.425 . S
C653 C650 1.409 . S
C653 C651 1.415 . S
C654 H644 0.930 . S
C654 C652 1.419 . S
C654 C655 1.362 . S
C655 H645 0.930 . S
C655 C648 1.409 . S
C655 C654 1.362 . S
H656 C662 0.930 . S
H657 C665 0.930 . S
H658 C666 0.930 . S
H659 C667 0.930 . S
H660 C670 0.930 . S
H661 C671 0.930 . S
C662 H656 0.930 . S
C662 C663 1.355 . S
C662 C664 1.415 . S
C663 C662 1.355 . S
C663 C665 1.419 . S
C664 C662 1.415 . S
C664 C669 1.425 1_565 S
C664 C671 1.409 . S
C665 H657 0.930 . S
C665 C663 1.419 . S
C665 C666 1.362 1_565 S
C666 H658 0.930 . S
C666 C665 1.362 1_545 S
C666 C669 1.409 . S
C667 H659 0.930 . S
C667 C668 1.355 . S
C667 C669 1.415 . S
C668 C667 1.355 . S
C668 C670 1.419 . S
C669 C664 1.425 1_545 S
C669 C666 1.409 . S
C669 C667 1.415 . S
C670 H660 0.930 . S
C670 C668 1.419 . S
C670 C671 1.362 1_545 S
C671 H661 0.930 . S
C671 C664 1.409 . S
C671 C670 1.362 1_565 S
H672 C678 0.931 . S
H673 C681 0.930 . S
H674 C682 0.930 . S
H675 C683 0.930 . S
H676 C686 0.930 . S
H677 C687 0.930 . S
C678 H672 0.931 . S
C678 C679 1.350 1_545 S
C678 C680 1.418 . S
C679 C678 1.350 1_565 S
C679 C681 1.419 . S
C680 C678 1.418 . S
C680 C685 1.425 . S
C680 C687 1.409 . S
C681 H673 0.930 . S
C681 C679 1.419 . S
C681 C682 1.362 . S
C682 H674 0.930 . S
C682 C681 1.362 . S
C682 C685 1.409 1_565 S
C683 H675 0.930 . S
C683 C684 1.355 . S
C683 C685 1.415 . S
C684 C683 1.355 . S
C684 C686 1.419 . S
C685 C680 1.425 . S
C685 C682 1.409 1_545 S
C685 C683 1.415 . S
C686 H676 0.930 . S
C686 C684 1.419 . S
C686 C687 1.362 . S
C687 H677 0.930 . S
C687 C680 1.409 . S
C687 C686 1.362 . S
H688 C694 0.930 . S
H689 C697 0.930 . S
H690 C698 0.930 . S
H691 C699 0.930 . S
H692 C702 0.930 . S
H693 C703 0.930 . S
C694 H688 0.930 . S
C694 C695 1.355 . S
C694 C696 1.415 . S
C695 C694 1.355 . S
C695 C697 1.419 1_455 S
C696 C694 1.415 . S
C696 C701 1.425 1_455 S
C696 C703 1.409 . S
C697 H689 0.930 . S
C697 C695 1.419 1_655 S
C697 C698 1.362 . S
C698 H690 0.930 . S
C698 C697 1.362 . S
C698 C701 1.409 . S
C699 H691 0.930 . S
C699 C700 1.355 . S
C699 C701 1.415 . S
C700 C699 1.355 . S
C700 C702 1.419 1_655 S
C701 C696 1.425 1_655 S
C701 C698 1.409 . S
C701 C699 1.415 . S
C702 H692 0.930 . S
C702 C700 1.419 1_455 S
C702 C703 1.362 . S
C703 H693 0.930 . S
C703 C696 1.409 . S
C703 C702 1.362 . S
H704 C710 0.930 . S
H705 C713 0.930 . S
H706 C714 0.930 . S
H707 C715 0.930 . S
H708 C718 0.930 . S
H709 C719 0.930 . S
C710 H704 0.930 . S
C710 C711 1.355 . S
C710 C712 1.415 . S
C711 C710 1.355 . S
C711 C713 1.419 . S
C712 C710 1.415 . S
C712 C717 1.425 . S
C712 C719 1.409 . S
C713 H705 0.930 . S
C713 C711 1.419 . S
C713 C714 1.362 . S
C714 H706 0.930 . S
C714 C713 1.362 . S
C714 C717 1.409 . S
C715 H707 0.930 . S
C715 C716 1.355 . S
C715 C717 1.415 . S
C716 C715 1.355 . S
C716 C718 1.419 . S
C717 C712 1.425 . S
C717 C714 1.409 . S
C717 C715 1.415 . S
C718 H708 0.930 . S
C718 C716 1.419 . S
C718 C719 1.362 . S
C719 H709 0.930 . S
C719 C712 1.409 . S
C719 C718 1.362 . S
H720 C726 0.930 . S
H721 C729 0.930 . S
H722 C730 0.930 . S
H723 C731 0.930 . S
H724 C734 0.930 . S
H725 C735 0.930 . S
C726 H720 0.930 . S
C726 C727 1.355 . S
C726 C728 1.415 1_554 S
C727 C726 1.355 . S
C727 C729 1.419 . S
C728 C726 1.415 1_556 S
C728 C733 1.425 . S
C728 C735 1.409 . S
C729 H721 0.930 . S
C729 C727 1.419 . S
C729 C730 1.362 . S
C730 H722 0.930 . S
C730 C729 1.362 . S
C730 C733 1.409 1_554 S
C731 H723 0.930 . S
C731 C732 1.355 . S
C731 C733 1.415 . S
C732 C731 1.355 . S
C732 C734 1.419 . S
C733 C728 1.425 . S
C733 C730 1.409 1_556 S
C733 C731 1.415 . S
C734 H724 0.930 . S
C734 C732 1.419 . S
C734 C735 1.362 . S
C735 H725 0.930 . S
C735 C728 1.409 . S
C735 C734 1.362 . S
H736 C742 0.930 . S
H737 C745 0.930 . S
H738 C746 0.930 . S
H739 C747 0.930 . S
H740 C750 0.930 . S
H741 C751 0.930 . S
C742 H736 0.930 . S
C742 C743 1.355 . S
C742 C744 1.415 . S
C743 C742 1.355 . S
C743 C745 1.419 1_545 S
C744 C742 1.415 . S
C744 C749 1.425 1_545 S
C744 C751 1.409 . S
C745 H737 0.930 . S
C745 C743 1.419 1_565 S
C745 C746 1.362 . S
C746 H738 0.930 . S
C746 C745 1.362 . S
C746 C749 1.409 . S
C747 H739 0.930 . S
C747 C748 1.355 . S
C747 C749 1.415 . S
C748 C747 1.355 . S
C748 C750 1.419 1_565 S
C749 C744 1.425 1_565 S
C749 C746 1.409 . S
C749 C747 1.415 . S
C750 H740 0.930 . S
C750 C748 1.419 1_545 S
C750 C751 1.362 . S
C751 H741 0.930 . S
C751 C744 1.409 . S
C751 C750 1.362 . S
H752 C758 0.930 1_455 S
H753 C761 0.930 . S
H754 C762 0.930 1_554 S
H755 C763 0.930 . S
H756 C766 0.930 . S
H757 C767 0.930 1_556 S
C758 H752 0.930 1_655 S
C758 C759 1.355 . S
C758 C760 1.415 1_655 S
C759 C758 1.355 . S
C759 C761 1.419 . S
C760 C758 1.415 1_455 S
C760 C765 1.425 1_456 S
C760 C767 1.409 1_556 S
C761 H753 0.930 . S
C761 C759 1.419 . S
C761 C762 1.362 . S
C762 H754 0.930 1_556 S
C762 C761 1.362 . S
C762 C765 1.409 1_556 S
C763 H755 0.930 . S
C763 C764 1.355 1_655 S
C763 C765 1.415 . S
C764 C763 1.355 1_455 S
C764 C766 1.419 . S
C765 C760 1.425 1_654 S
C765 C762 1.409 1_554 S
C765 C763 1.415 . S
C766 H756 0.930 . S
C766 C764 1.419 . S
C766 C767 1.362 . S
C767 H757 0.930 1_554 S
C767 C760 1.409 1_554 S
C767 C766 1.362 . S
H768 C774 0.930 . S
H769 C777 0.930 . S
H770 C778 0.930 . S
H771 C779 0.930 . S
H772 C782 0.930 . S
H773 C783 0.930 . S
C774 H768 0.930 . S
C774 C775 1.355 . S
C774 C776 1.415 . S
C775 C774 1.355 . S
C775 C777 1.419 . S
C776 C774 1.415 . S
C776 C781 1.425 . S
C776 C783 1.409 . S
C777 H769 0.930 . S
C777 C775 1.419 . S
C777 C778 1.362 . S
C778 H770 0.930 . S
C778 C777 1.362 . S
C778 C781 1.409 . S
C779 H771 0.930 . S
C779 C780 1.355 . S
C779 C781 1.415 . S
C780 C779 1.355 . S
C780 C782 1.419 . S
C781 C776 1.425 . S
C781 C778 1.409 . S
C781 C779 1.415 . S
C782 H772 0.930 . S
C782 C780 1.419 . S
C782 C783 1.362 . S
C783 H773 0.930 . S
C783 C776 1.409 . S
C783 C782 1.362 . S
H784 C790 0.930 . S
H785 C793 0.930 . S
H786 C794 0.930 . S
H787 C795 0.930 . S
H788 C798 0.930 . S
H789 C799 0.930 . S
C790 H784 0.930 . S
C790 C791 1.355 . S
C790 C792 1.415 . S
C791 C790 1.355 . S
C791 C793 1.419 . S
C792 C790 1.415 . S
C792 C797 1.425 . S
C792 C799 1.409 . S
C793 H785 0.930 . S
C793 C791 1.419 . S
C793 C794 1.362 . S
C794 H786 0.930 . S
C794 C793 1.362 . S
C794 C797 1.409 . S
C795 H787 0.930 . S
C795 C796 1.355 . S
C795 C797 1.415 . S
C796 C795 1.355 . S
C796 C798 1.419 . S
C797 C792 1.425 . S
C797 C794 1.409 . S
C797 C795 1.415 . S
C798 H788 0.930 . S
C798 C796 1.419 . S
C798 C799 1.362 . S
C799 H789 0.930 . S
C799 C792 1.409 . S
C799 C798 1.362 . S
H800 C806 0.930 . S
H801 C809 0.930 . S
H802 C810 0.930 . S
H803 C811 0.930 . S
H804 C814 0.930 . S
H805 C815 0.930 . S
C806 H800 0.930 . S
C806 C807 1.355 . S
C806 C808 1.415 . S
C807 C806 1.355 . S
C807 C809 1.419 . S
C808 C806 1.415 . S
C808 C813 1.425 . S
C808 C815 1.409 . S
C809 H801 0.930 . S
C809 C807 1.419 . S
C809 C810 1.362 . S
C810 H802 0.930 . S
C810 C809 1.362 . S
C810 C813 1.409 . S
C811 H803 0.930 . S
C811 C812 1.355 . S
C811 C813 1.415 . S
C812 C811 1.355 . S
C812 C814 1.419 . S
C813 C808 1.425 . S
C813 C810 1.409 . S
C813 C811 1.415 . S
C814 H804 0.930 . S
C814 C812 1.419 . S
C814 C815 1.362 . S
C815 H805 0.930 . S
C815 C808 1.409 . S
C815 C814 1.362 . S
H816 C822 0.930 . S
H817 C825 0.930 . S
H818 C826 0.930 . S
H819 C827 0.930 . S
H820 C830 0.930 . S
H821 C831 0.930 . S
C822 H816 0.930 . S
C822 C823 1.355 . S
C822 C824 1.415 1_554 S
C823 C822 1.355 . S
C823 C825 1.419 . S
C824 C822 1.415 1_556 S
C824 C829 1.425 . S
C824 C831 1.409 . S
C825 H817 0.930 . S
C825 C823 1.419 . S
C825 C826 1.362 . S
C826 H818 0.930 . S
C826 C825 1.362 . S
C826 C829 1.409 1_554 S
C827 H819 0.930 . S
C827 C828 1.355 . S
C827 C829 1.415 . S
C828 C827 1.355 . S
C828 C830 1.419 . S
C829 C824 1.425 . S
C829 C826 1.409 1_556 S
C829 C827 1.415 . S
C830 H820 0.930 . S
C830 C828 1.419 . S
C830 C831 1.362 . S
C831 H821 0.930 . S
C831 C824 1.409 . S
C831 C830 1.362 . S
H832 C838 0.930 . S
H833 C841 0.930 . S
H834 C842 0.930 . S
H835 C843 0.930 . S
H836 C846 0.930 . S
H837 C847 0.930 . S
C838 H832 0.930 . S
C838 C839 1.355 . S
C838 C840 1.415 . S
C839 C838 1.355 . S
C839 C841 1.419 1_545 S
C840 C838 1.415 . S
C840 C845 1.425 1_545 S
C840 C847 1.409 . S
C841 H833 0.930 . S
C841 C839 1.419 1_565 S
C841 C842 1.362 . S
C842 H834 0.930 . S
C842 C841 1.362 . S
C842 C845 1.409 . S
C843 H835 0.930 . S
C843 C844 1.355 . S
C843 C845 1.415 . S
C844 C843 1.355 . S
C844 C846 1.419 . S
C845 C840 1.425 1_565 S
C845 C842 1.409 . S
C845 C843 1.415 . S
C846 H836 0.930 . S
C846 C844 1.419 . S
C846 C847 1.362 1_565 S
C847 H837 0.930 . S
C847 C840 1.409 . S
C847 C846 1.362 1_545 S
H848 C854 0.930 . S
H849 C857 0.930 . S
H850 C858 0.930 . S
H851 C859 0.930 . S
H852 C862 0.930 . S
H853 C863 0.930 . S
C854 H848 0.930 . S
C854 C855 1.355 . S
C854 C856 1.415 . S
C855 C854 1.355 . S
C855 C857 1.419 1_455 S
C856 C854 1.415 . S
C856 C861 1.425 1_455 S
C856 C863 1.409 . S
C857 H849 0.930 . S
C857 C855 1.419 1_655 S
C857 C858 1.362 . S
C858 H850 0.930 . S
C858 C857 1.362 . S
C858 C861 1.409 . S
C859 H851 0.930 . S
C859 C860 1.355 . S
C859 C861 1.415 . S
C860 C859 1.355 . S
C860 C862 1.419 1_655 S
C861 C856 1.425 1_655 S
C861 C858 1.409 . S
C861 C859 1.415 . S
C862 H852 0.930 . S
C862 C860 1.419 1_455 S
C862 C863 1.362 . S
C863 H853 0.930 . S
C863 C856 1.409 . S
C863 C862 1.362 . S
H864 C870 0.930 . S
H865 C873 0.930 . S
H866 C874 0.930 . S
H867 C875 0.930 . S
H868 C878 0.930 . S
H869 C879 0.930 . S
C870 H864 0.930 . S
C870 C871 1.355 . S
C870 C872 1.415 . S
C871 C870 1.355 . S
C871 C873 1.419 . S
C872 C870 1.415 . S
C872 C877 1.425 . S
C872 C879 1.409 . S
C873 H865 0.930 . S
C873 C871 1.419 . S
C873 C874 1.362 . S
C874 H866 0.930 . S
C874 C873 1.362 . S
C874 C877 1.409 . S
C875 H867 0.930 . S
C875 C876 1.355 . S
C875 C877 1.415 . S
C876 C875 1.355 . S
C876 C878 1.419 . S
C877 C872 1.425 . S
C877 C874 1.409 . S
C877 C875 1.415 . S
C878 H868 0.930 . S
C878 C876 1.419 . S
C878 C879 1.362 . S
C879 H869 0.930 . S
C879 C872 1.409 . S
C879 C878 1.362 . S
H880 C886 0.930 . S
H881 C889 0.930 . S
H882 C890 0.930 . S
H883 C891 0.930 . S
H884 C894 0.930 . S
H885 C895 0.930 . S
C886 H880 0.930 . S
C886 C887 1.355 . S
C886 C888 1.415 . S
C887 C886 1.355 . S
C887 C889 1.419 . S
C888 C886 1.415 . S
C888 C893 1.425 . S
C888 C895 1.409 . S
C889 H881 0.930 . S
C889 C887 1.419 . S
C889 C890 1.362 . S
C890 H882 0.930 . S
C890 C889 1.362 . S
C890 C893 1.409 . S
C891 H883 0.930 . S
C891 C892 1.355 . S
C891 C893 1.415 . S
C892 C891 1.355 . S
C892 C894 1.419 . S
C893 C888 1.425 . S
C893 C890 1.409 . S
C893 C891 1.415 . S
C894 H884 0.930 . S
C894 C892 1.419 . S
C894 C895 1.362 . S
C895 H885 0.930 . S
C895 C888 1.409 . S
C895 C894 1.362 . S
H896 C902 0.930 . S
H897 C905 0.930 . S
H898 C906 0.930 . S
H899 C907 0.930 . S
H900 C910 0.930 . S
H901 C911 0.930 . S
C902 H896 0.930 . S
C902 C903 1.355 . S
C902 C904 1.415 . S
C903 C902 1.355 . S
C903 C905 1.419 . S
C904 C902 1.415 . S
C904 C909 1.425 . S
C904 C911 1.409 . S
C905 H897 0.930 . S
C905 C903 1.419 . S
C905 C906 1.362 . S
C906 H898 0.930 . S
C906 C905 1.362 . S
C906 C909 1.409 . S
C907 H899 0.930 . S
C907 C908 1.355 . S
C907 C909 1.415 1_545 S
C908 C907 1.355 . S
C908 C910 1.419 . S
C909 C904 1.425 . S
C909 C906 1.409 . S
C909 C907 1.415 1_565 S
C910 H900 0.930 . S
C910 C908 1.419 . S
C910 C911 1.362 1_545 S
C911 H901 0.930 . S
C911 C904 1.409 . S
C911 C910 1.362 1_565 S
H912 C918 0.930 . S
H913 C921 0.930 . S
H914 C922 0.930 . S
H915 C923 0.930 1_655 S
H916 C926 0.930 . S
H917 C927 0.930 1_554 S
C918 H912 0.930 . S
C918 C919 1.355 1_455 S
C918 C920 1.415 . S
C919 C918 1.355 1_655 S
C919 C921 1.419 . S
C920 C918 1.415 . S
C920 C925 1.425 1_454 S
C920 C927 1.409 1_554 S
C921 H913 0.930 . S
C921 C919 1.419 . S
C921 C922 1.362 1_554 S
C922 H914 0.930 . S
C922 C921 1.362 1_556 S
C922 C925 1.409 . S
C923 H915 0.930 1_455 S
C923 C924 1.355 . S
C923 C925 1.415 1_455 S
C924 C923 1.355 . S
C924 C926 1.419 . S
C925 C920 1.425 1_656 S
C925 C922 1.409 . S
C925 C923 1.415 1_655 S
C926 H916 0.930 . S
C926 C924 1.419 . S
C926 C927 1.362 . S
C927 H917 0.930 1_556 S
C927 C920 1.409 1_556 S
C927 C926 1.362 . S
H928 C934 0.930 . S
H929 C937 0.930 . S
H930 C938 0.930 . S
H931 C939 0.930 . S
H932 C942 0.930 . S
H933 C943 0.930 . S
C934 H928 0.930 . S
C934 C935 1.355 . S
C934 C936 1.415 . S
C935 C934 1.355 . S
C935 C937 1.419 . S
C936 C934 1.415 . S
C936 C941 1.425 . S
C936 C943 1.409 . S
C937 H929 0.930 . S
C937 C935 1.419 . S
C937 C938 1.362 . S
C938 H930 0.930 . S
C938 C937 1.362 . S
C938 C941 1.409 . S
C939 H931 0.930 . S
C939 C940 1.355 . S
C939 C941 1.415 . S
C940 C939 1.355 . S
C940 C942 1.419 . S
C941 C936 1.425 . S
C941 C938 1.409 . S
C941 C939 1.415 . S
C942 H932 0.930 . S
C942 C940 1.419 . S
C942 C943 1.362 . S
C943 H933 0.930 . S
C943 C936 1.409 . S
C943 C942 1.362 . S
H944 C950 0.930 . S
H945 C953 0.930 . S
H946 C954 0.930 . S
H947 C955 0.930 . S
H948 C958 0.930 . S
H949 C959 0.930 . S
C950 H944 0.930 . S
C950 C951 1.355 . S
C950 C952 1.415 . S
C951 C950 1.355 . S
C951 C953 1.419 . S
C952 C950 1.415 . S
C952 C957 1.425 . S
C952 C959 1.409 . S
C953 H945 0.930 . S
C953 C951 1.419 . S
C953 C954 1.362 . S
C954 H946 0.930 . S
C954 C953 1.362 . S
C954 C957 1.409 . S
C955 H947 0.930 . S
C955 C956 1.355 . S
C955 C957 1.415 . S
C956 C955 1.355 . S
C956 C958 1.419 . S
C957 C952 1.425 . S
C957 C954 1.409 . S
C957 C955 1.415 . S
C958 H948 0.930 . S
C958 C956 1.419 . S
C958 C959 1.362 . S
C959 H949 0.930 . S
C959 C952 1.409 . S
C959 C958 1.362 . S
H960 C966 0.930 . S
H961 C969 0.930 . S
H962 C970 0.930 . S
H963 C971 0.930 . S
H964 C974 0.930 . S
H965 C975 0.930 . S
C966 H960 0.930 . S
C966 C967 1.355 . S
C966 C968 1.415 . S
C967 C966 1.355 . S
C967 C969 1.419 . S
C968 C966 1.415 . S
C968 C973 1.425 . S
C968 C975 1.409 . S
C969 H961 0.930 . S
C969 C967 1.419 . S
C969 C970 1.362 . S
C970 H962 0.930 . S
C970 C969 1.362 . S
C970 C973 1.409 . S
C971 H963 0.930 . S
C971 C972 1.355 . S
C971 C973 1.415 . S
C972 C971 1.355 . S
C972 C974 1.419 . S
C973 C968 1.425 . S
C973 C970 1.409 . S
C973 C971 1.415 . S
C974 H964 0.930 . S
C974 C972 1.419 . S
C974 C975 1.362 . S
C975 H965 0.930 . S
C975 C968 1.409 . S
C975 C974 1.362 . S
H976 C982 0.930 . S
H977 C985 0.930 . S
H978 C986 0.930 . S
H979 C987 0.930 . S
H980 C990 0.930 . S
H981 C991 0.930 . S
C982 H976 0.930 . S
C982 C983 1.355 . S
C982 C984 1.415 . S
C983 C982 1.355 . S
C983 C985 1.419 . S
C984 C982 1.415 . S
C984 C989 1.425 . S
C984 C991 1.409 . S
C985 H977 0.930 . S
C985 C983 1.419 . S
C985 C986 1.362 . S
C986 H978 0.930 . S
C986 C985 1.362 . S
C986 C989 1.409 . S
C987 H979 0.930 . S
C987 C988 1.355 . S
C987 C989 1.415 . S
C988 C987 1.355 . S
C988 C990 1.419 . S
C989 C984 1.425 . S
C989 C986 1.409 . S
C989 C987 1.415 . S
C990 H980 0.930 . S
C990 C988 1.419 . S
C990 C991 1.362 . S
C991 H981 0.930 . S
C991 C984 1.409 . S
C991 C990 1.362 . S
H992 C998 0.930 . S
H993 C1001 0.930 . S
H994 C1002 0.930 . S
H995 C1003 0.930 . S
H996 C1006 0.930 . S
H997 C1007 0.930 . S
C998 H992 0.930 . S
C998 C999 1.355 . S
C998 C1000 1.415 . S
C999 C998 1.355 . S
C999 C1001 1.419 . S
C1000 C998 1.415 . S
C1000 C1005 1.425 . S
C1000 C1007 1.409 . S
C1001 H993 0.930 . S
C1001 C999 1.419 . S
C1001 C1002 1.362 . S
C1002 H994 0.930 . S
C1002 C1001 1.362 . S
C1002 C1005 1.409 . S
C1003 H995 0.930 . S
C1003 C1004 1.355 . S
C1003 C1005 1.415 . S
C1004 C1003 1.355 . S
C1004 C1006 1.419 . S
C1005 C1000 1.425 . S
C1005 C1002 1.409 . S
C1005 C1003 1.415 . S
C1006 H996 0.930 . S
C1006 C1004 1.419 . S
C1006 C1007 1.362 . S
C1007 H997 0.930 . S
C1007 C1000 1.409 . S
C1007 C1006 1.362 . S
H1008 C1014 0.930 . S
H1009 C1017 0.930 . S
H1010 C1018 0.930 . S
H1011 C1019 0.930 . S
H1012 C1022 0.930 . S
H1013 C1023 0.930 . S
C1014 H1008 0.930 . S
C1014 C1015 1.355 . S
C1014 C1016 1.415 . S
C1015 C1014 1.355 . S
C1015 C1017 1.419 . S
C1016 C1014 1.415 . S
C1016 C1021 1.425 . S
C1016 C1023 1.409 . S
C1017 H1009 0.930 . S
C1017 C1015 1.419 . S
C1017 C1018 1.362 . S
C1018 H1010 0.930 . S
C1018 C1017 1.362 . S
C1018 C1021 1.409 . S
C1019 H1011 0.930 . S
C1019 C1020 1.355 . S
C1019 C1021 1.415 . S
C1020 C1019 1.355 . S
C1020 C1022 1.419 . S
C1021 C1016 1.425 . S
C1021 C1018 1.409 . S
C1021 C1019 1.415 . S
C1022 H1012 0.930 . S
C1022 C1020 1.419 . S
C1022 C1023 1.362 . S
C1023 H1013 0.930 . S
C1023 C1016 1.409 . S
C1023 C1022 1.362 . S
H1024 C1030 0.930 . S
H1025 C1033 0.930 . S
H1026 C1034 0.930 . S
H1027 C1035 0.930 . S
H1028 C1038 0.930 . S
H1029 C1039 0.930 . S
C1030 H1024 0.930 . S
C1030 C1031 1.355 . S
C1030 C1032 1.415 . S
C1031 C1030 1.355 . S
C1031 C1033 1.419 . S
C1032 C1030 1.415 . S
C1032 C1037 1.425 . S
C1032 C1039 1.409 . S
C1033 H1025 0.930 . S
C1033 C1031 1.419 . S
C1033 C1034 1.362 . S
C1034 H1026 0.930 . S
C1034 C1033 1.362 . S
C1034 C1037 1.409 . S
C1035 H1027 0.930 . S
C1035 C1036 1.355 . S
C1035 C1037 1.415 . S
C1036 C1035 1.355 . S
C1036 C1038 1.419 . S
C1037 C1032 1.425 . S
C1037 C1034 1.409 . S
C1037 C1035 1.415 . S
C1038 H1028 0.930 . S
C1038 C1036 1.419 . S
C1038 C1039 1.362 . S
C1039 H1029 0.930 . S
C1039 C1032 1.409 . S
C1039 C1038 1.362 . S
H1040 C1046 0.930 . S
H1041 C1049 0.930 . S
H1042 C1050 0.930 . S
H1043 C1051 0.930 . S
H1044 C1054 0.930 . S
H1045 C1055 0.930 . S
C1046 H1040 0.930 . S
C1046 C1047 1.355 . S
C1046 C1048 1.415 . S
C1047 C1046 1.355 . S
C1047 C1049 1.419 . S
C1048 C1046 1.415 . S
C1048 C1053 1.425 . S
C1048 C1055 1.409 . S
C1049 H1041 0.930 . S
C1049 C1047 1.419 . S
C1049 C1050 1.362 . S
C1050 H1042 0.930 . S
C1050 C1049 1.362 . S
C1050 C1053 1.409 . S
C1051 H1043 0.930 . S
C1051 C1052 1.355 . S
C1051 C1053 1.415 . S
C1052 C1051 1.355 . S
C1052 C1054 1.419 . S
C1053 C1048 1.425 . S
C1053 C1050 1.409 . S
C1053 C1051 1.415 . S
C1054 H1044 0.930 . S
C1054 C1052 1.419 . S
C1054 C1055 1.362 . S
C1055 H1045 0.930 . S
C1055 C1048 1.409 . S
C1055 C1054 1.362 . S
H1056 C1062 0.930 . S
H1057 C1065 0.930 . S
H1058 C1066 0.930 . S
H1059 C1067 0.930 . S
H1060 C1070 0.930 . S
H1061 C1071 0.930 . S
C1062 H1056 0.930 . S
C1062 C1063 1.355 . S
C1062 C1064 1.415 . S
C1063 C1062 1.355 . S
C1063 C1065 1.419 . S
C1064 C1062 1.415 . S
C1064 C1069 1.425 . S
C1064 C1071 1.409 . S
C1065 H1057 0.930 . S
C1065 C1063 1.419 . S
C1065 C1066 1.362 . S
C1066 H1058 0.930 . S
C1066 C1065 1.362 . S
C1066 C1069 1.409 . S
C1067 H1059 0.930 . S
C1067 C1068 1.355 . S
C1067 C1069 1.415 . S
C1068 C1067 1.355 . S
C1068 C1070 1.419 . S
C1069 C1064 1.425 . S
C1069 C1066 1.409 . S
C1069 C1067 1.415 . S
C1070 H1060 0.930 . S
C1070 C1068 1.419 . S
C1070 C1071 1.362 . S
C1071 H1061 0.930 . S
C1071 C1064 1.409 . S
C1071 C1070 1.362 . S
H1072 C1078 0.930 . S
H1073 C1081 0.930 . S
H1074 C1082 0.930 . S
H1075 C1083 0.930 . S
H1076 C1086 0.930 1_554 S
H1077 C1087 0.930 . S
C1078 H1072 0.930 . S
C1078 C1079 1.355 . S
C1078 C1080 1.415 . S
C1079 C1078 1.355 . S
C1079 C1081 1.419 . S
C1080 C1078 1.415 . S
C1080 C1085 1.425 . S
C1080 C1087 1.409 . S
C1081 H1073 0.930 . S
C1081 C1079 1.419 . S
C1081 C1082 1.362 . S
C1082 H1074 0.930 . S
C1082 C1081 1.362 . S
C1082 C1085 1.409 . S
C1083 H1075 0.930 . S
C1083 C1084 1.355 . S
C1083 C1085 1.415 . S
C1084 C1083 1.355 . S
C1084 C1086 1.419 . S
C1085 C1080 1.425 . S
C1085 C1082 1.409 . S
C1085 C1083 1.415 . S
C1086 H1076 0.930 1_556 S
C1086 C1084 1.419 . S
C1086 C1087 1.362 . S
C1087 H1077 0.930 . S
C1087 C1080 1.409 . S
C1087 C1086 1.362 . S
H1088 C1094 0.930 . S
H1089 C1097 0.930 . S
H1090 C1098 0.930 . S
H1091 C1099 0.930 . S
H1092 C1102 0.930 . S
H1093 C1103 0.930 . S
C1094 H1088 0.930 . S
C1094 C1095 1.355 . S
C1094 C1096 1.415 . S
C1095 C1094 1.355 . S
C1095 C1097 1.419 . S
C1096 C1094 1.415 . S
C1096 C1101 1.425 . S
C1096 C1103 1.409 . S
C1097 H1089 0.930 . S
C1097 C1095 1.419 . S
C1097 C1098 1.362 . S
C1098 H1090 0.930 . S
C1098 C1097 1.362 . S
C1098 C1101 1.409 . S
C1099 H1091 0.930 . S
C1099 C1100 1.355 . S
C1099 C1101 1.415 . S
C1100 C1099 1.355 . S
C1100 C1102 1.419 . S
C1101 C1096 1.425 . S
C1101 C1098 1.409 . S
C1101 C1099 1.415 . S
C1102 H1092 0.930 . S
C1102 C1100 1.419 . S
C1102 C1103 1.362 . S
C1103 H1093 0.930 . S
C1103 C1096 1.409 . S
C1103 C1102 1.362 . S
H1104 C1110 0.930 . S
H1105 C1113 0.930 . S
H1106 C1114 0.930 . S
H1107 C1115 0.930 . S
H1108 C1118 0.930 . S
H1109 C1119 0.930 . S
C1110 H1104 0.930 . S
C1110 C1111 1.355 . S
C1110 C1112 1.415 . S
C1111 C1110 1.355 . S
C1111 C1113 1.419 . S
C1112 C1110 1.415 . S
C1112 C1117 1.425 . S
C1112 C1119 1.409 . S
C1113 H1105 0.930 . S
C1113 C1111 1.419 . S
C1113 C1114 1.362 . S
C1114 H1106 0.930 . S
C1114 C1113 1.362 . S
C1114 C1117 1.409 . S
C1115 H1107 0.930 . S
C1115 C1116 1.355 . S
C1115 C1117 1.415 . S
C1116 C1115 1.355 . S
C1116 C1118 1.419 . S
C1117 C1112 1.425 . S
C1117 C1114 1.409 . S
C1117 C1115 1.415 . S
C1118 H1108 0.930 . S
C1118 C1116 1.419 . S
C1118 C1119 1.362 . S
C1119 H1109 0.930 . S
C1119 C1112 1.409 . S
C1119 C1118 1.362 . S
H1120 C1126 0.930 . S
H1121 C1129 0.930 . S
H1122 C1130 0.930 . S
H1123 C1131 0.930 . S
H1124 C1134 0.930 . S
H1125 C1135 0.930 . S
C1126 H1120 0.930 . S
C1126 C1127 1.355 . S
C1126 C1128 1.415 . S
C1127 C1126 1.355 . S
C1127 C1129 1.419 . S
C1128 C1126 1.415 . S
C1128 C1133 1.425 . S
C1128 C1135 1.409 . S
C1129 H1121 0.930 . S
C1129 C1127 1.419 . S
C1129 C1130 1.362 . S
C1130 H1122 0.930 . S
C1130 C1129 1.362 . S
C1130 C1133 1.409 . S
C1131 H1123 0.930 . S
C1131 C1132 1.355 . S
C1131 C1133 1.415 . S
C1132 C1131 1.355 . S
C1132 C1134 1.419 . S
C1133 C1128 1.425 . S
C1133 C1130 1.409 . S
C1133 C1131 1.415 . S
C1134 H1124 0.930 . S
C1134 C1132 1.419 . S
C1134 C1135 1.362 . S
C1135 H1125 0.930 . S
C1135 C1128 1.409 . S
C1135 C1134 1.362 . S
H1136 C1142 0.930 . S
H1137 C1145 0.930 . S
H1138 C1146 0.930 . S
H1139 C1147 0.930 . S
H1140 C1150 0.930 . S
H1141 C1151 0.930 . S
C1142 H1136 0.930 . S
C1142 C1143 1.355 . S
C1142 C1144 1.415 . S
C1143 C1142 1.355 . S
C1143 C1145 1.419 . S
C1144 C1142 1.415 . S
C1144 C1149 1.425 . S
C1144 C1151 1.409 . S
C1145 H1137 0.930 . S
C1145 C1143 1.419 . S
C1145 C1146 1.362 . S
C1146 H1138 0.930 . S
C1146 C1145 1.362 . S
C1146 C1149 1.409 . S
C1147 H1139 0.930 . S
C1147 C1148 1.355 . S
C1147 C1149 1.415 . S
C1148 C1147 1.355 . S
C1148 C1150 1.419 . S
C1149 C1144 1.425 . S
C1149 C1146 1.409 . S
C1149 C1147 1.415 . S
C1150 H1140 0.930 . S
C1150 C1148 1.419 . S
C1150 C1151 1.362 . S
C1151 H1141 0.930 . S
C1151 C1144 1.409 . S
C1151 C1150 1.362 . S
H1152 C1158 0.930 . S
H1153 C1161 0.930 . S
H1154 C1162 0.930 . S
H1155 C1163 0.930 . S
H1156 C1166 0.930 . S
H1157 C1167 0.930 . S
C1158 H1152 0.930 . S
C1158 C1159 1.355 . S
C1158 C1160 1.415 . S
C1159 C1158 1.355 . S
C1159 C1161 1.419 . S
C1160 C1158 1.415 . S
C1160 C1165 1.425 . S
C1160 C1167 1.409 . S
C1161 H1153 0.930 . S
C1161 C1159 1.419 . S
C1161 C1162 1.362 . S
C1162 H1154 0.930 . S
C1162 C1161 1.362 . S
C1162 C1165 1.409 . S
C1163 H1155 0.930 . S
C1163 C1164 1.355 . S
C1163 C1165 1.415 . S
C1164 C1163 1.355 . S
C1164 C1166 1.419 . S
C1165 C1160 1.425 . S
C1165 C1162 1.409 . S
C1165 C1163 1.415 . S
C1166 H1156 0.930 . S
C1166 C1164 1.419 . S
C1166 C1167 1.362 . S
C1167 H1157 0.930 . S
C1167 C1160 1.409 . S
C1167 C1166 1.362 . S
H1168 C1174 0.930 . S
H1169 C1177 0.930 . S
H1170 C1178 0.930 . S
H1171 C1179 0.930 . S
H1172 C1182 0.930 . S
H1173 C1183 0.930 . S
C1174 H1168 0.930 . S
C1174 C1175 1.355 . S
C1174 C1176 1.415 . S
C1175 C1174 1.355 . S
C1175 C1177 1.419 . S
C1176 C1174 1.415 . S
C1176 C1181 1.425 . S
C1176 C1183 1.409 . S
C1177 H1169 0.930 . S
C1177 C1175 1.419 . S
C1177 C1178 1.362 . S
C1178 H1170 0.930 . S
C1178 C1177 1.362 . S
C1178 C1181 1.409 . S
C1179 H1171 0.930 . S
C1179 C1180 1.355 . S
C1179 C1181 1.415 . S
C1180 C1179 1.355 . S
C1180 C1182 1.419 . S
C1181 C1176 1.425 . S
C1181 C1178 1.409 . S
C1181 C1179 1.415 . S
C1182 H1172 0.930 . S
C1182 C1180 1.419 . S
C1182 C1183 1.362 . S
C1183 H1173 0.930 . S
C1183 C1176 1.409 . S
C1183 C1182 1.362 . S
C551 C345 1.706 . S
C556 C5 1.717 . S
C567 C39 1.710 . S
C572 C379 1.713 . S
C583 C277 1.712 . S
C588 C73 1.705 . S
C599 C107 1.722 . S
C604 C311 1.698 . S
C615 C481 1.707 . S
C620 C141 1.715 . S
C631 C175 1.721 . S
C636 C515 1.698 . S
C647 C209 1.703 . S
C652 C413 1.714 . S
C663 C447 1.711 . S
C668 C243 1.712 . S
C679 C496 1.113 . S
C684 C33 1.135 . S
C695 C530 1.143 . S
C700 C67 1.138 . S
C711 C101 1.144 . S
C716 C428 1.131 . S
C727 C462 1.139 . S
C732 C135 1.142 . S
C743 C169 1.122 . S
C748 C360 1.144 . S
C759 C203 1.125 . S
C764 C394 1.101 . S
C775 C292 1.103 . S
C780 C237 1.094 . S
C791 C271 1.131 . S
C796 C326 1.144 . S
C807 C224 1.142 . S
C812 C305 1.141 . S
C823 C258 1.144 . S
C828 C339 1.134 . S
C839 C156 1.135 . S
C844 C373 1.107 . S
C855 C407 1.144 . S
C860 C190 1.132 . S
C871 C441 1.123 . S
C876 C88 1.097 . S
C887 C475 1.096 . S
C892 C122 1.104 . S
C903 C509 1.142 . S
C908 C20 1.123 . S
C919 C54 1.096 . S
C924 C543 1.103 . S
C935 C383 1.551 . S
C940 C2 1.616 . S
C951 C36 1.616 . S
C956 C281 1.512 . S
C967 C70 1.620 . S
C972 C315 1.521 . S
C983 C104 1.611 . S
C988 C349 1.577 . S
C999 C179 1.549 . S
C1004 C138 1.617 . S
C1015 C172 1.611 . S
C1020 C213 1.522 . S
C1031 C247 1.573 . S
C1036 C206 1.611 . S
C1047 C240 1.616 . S
C1052 C145 1.512 . S
C1063 C111 1.513 . S
C1068 C274 1.615 . S
C1079 C308 1.617 . S
C1084 C9 1.554 . S
C1095 C342 1.608 . S
C1100 C43 1.581 . S
C1111 C77 1.538 . S
C1116 C376 1.606 . S
C1127 C451 1.514 . S
C1132 C410 1.618 . S
C1143 C485 1.543 . S
C1148 C444 1.618 . S
C1159 C478 1.617 . S
C1164 C519 1.551 . S
C1175 C417 1.536 . S
C1180 C512 1.608 . S
