# Generated by pormake.
# Topology ukk, (4)-cn, num edge types: 1
# Building blocks:
#     Node 0, Type 0, BuildingBlock: GALJAG_clean_sbu_0, # of connection points: 4
#     Node 1, Type 0, BuildingBlock: GALJAG_clean_sbu_0, # of connection points: 4
#     Node 2, Type 0, BuildingBlock: GALJAG_clean_sbu_0, # of connection points: 4
#     Node 3, Type 0, BuildingBlock: GALJAG_clean_sbu_0, # of connection points: 4
#     Node 4, Type 0, BuildingBlock: GALJAG_clean_sbu_0, # of connection points: 4
#     Node 5, Type 0, BuildingBlock: GALJAG_clean_sbu_0, # of connection points: 4
#     Node 6, Type 0, BuildingBlock: GALJAG_clean_sbu_0, # of connection points: 4
#     Node 7, Type 0, BuildingBlock: GALJAG_clean_sbu_0, # of connection points: 4
#     Node 8, Type 0, BuildingBlock: GALJAG_clean_sbu_0, # of connection points: 4
#     Node 9, Type 0, BuildingBlock: GALJAG_clean_sbu_0, # of connection points: 4
#     Node 10, Type 0, BuildingBlock: GALJAG_clean_sbu_0, # of connection points: 4
#     Node 11, Type 0, BuildingBlock: GALJAG_clean_sbu_0, # of connection points: 4
#     Node 12, Type 0, BuildingBlock: GALJAG_clean_sbu_0, # of connection points: 4
#     Node 13, Type 0, BuildingBlock: GALJAG_clean_sbu_0, # of connection points: 4
#     Node 14, Type 0, BuildingBlock: GALJAG_clean_sbu_0, # of connection points: 4
#     Node 15, Type 0, BuildingBlock: GALJAG_clean_sbu_0, # of connection points: 4
#     Edge 16, Type (0, 0), BuildingBlock: XUDNAN_clean_linker_2, # of connection points: 2
#     Edge 17, Type (0, 0), BuildingBlock: XUDNAN_clean_linker_2, # of connection points: 2
#     Edge 18, Type (0, 0), BuildingBlock: XUDNAN_clean_linker_2, # of connection points: 2
#     Edge 19, Type (0, 0), BuildingBlock: XUDNAN_clean_linker_2, # of connection points: 2
#     Edge 20, Type (0, 0), BuildingBlock: XUDNAN_clean_linker_2, # of connection points: 2
#     Edge 21, Type (0, 0), BuildingBlock: XUDNAN_clean_linker_2, # of connection points: 2
#     Edge 22, Type (0, 0), BuildingBlock: XUDNAN_clean_linker_2, # of connection points: 2
#     Edge 23, Type (0, 0), BuildingBlock: XUDNAN_clean_linker_2, # of connection points: 2
#     Edge 24, Type (0, 0), BuildingBlock: XUDNAN_clean_linker_2, # of connection points: 2
#     Edge 25, Type (0, 0), BuildingBlock: XUDNAN_clean_linker_2, # of connection points: 2
#     Edge 26, Type (0, 0), BuildingBlock: XUDNAN_clean_linker_2, # of connection points: 2
#     Edge 27, Type (0, 0), BuildingBlock: XUDNAN_clean_linker_2, # of connection points: 2
#     Edge 28, Type (0, 0), BuildingBlock: XUDNAN_clean_linker_2, # of connection points: 2
#     Edge 29, Type (0, 0), BuildingBlock: XUDNAN_clean_linker_2, # of connection points: 2
#     Edge 30, Type (0, 0), BuildingBlock: XUDNAN_clean_linker_2, # of connection points: 2
#     Edge 31, Type (0, 0), BuildingBlock: XUDNAN_clean_linker_2, # of connection points: 2
#     Edge 32, Type (0, 0), BuildingBlock: XUDNAN_clean_linker_2, # of connection points: 2
#     Edge 33, Type (0, 0), BuildingBlock: XUDNAN_clean_linker_2, # of connection points: 2
#     Edge 34, Type (0, 0), BuildingBlock: XUDNAN_clean_linker_2, # of connection points: 2
#     Edge 35, Type (0, 0), BuildingBlock: XUDNAN_clean_linker_2, # of connection points: 2
#     Edge 36, Type (0, 0), BuildingBlock: XUDNAN_clean_linker_2, # of connection points: 2
#     Edge 37, Type (0, 0), BuildingBlock: XUDNAN_clean_linker_2, # of connection points: 2
#     Edge 38, Type (0, 0), BuildingBlock: XUDNAN_clean_linker_2, # of connection points: 2
#     Edge 39, Type (0, 0), BuildingBlock: XUDNAN_clean_linker_2, # of connection points: 2
#     Edge 40, Type (0, 0), BuildingBlock: XUDNAN_clean_linker_2, # of connection points: 2
#     Edge 41, Type (0, 0), BuildingBlock: XUDNAN_clean_linker_2, # of connection points: 2
#     Edge 42, Type (0, 0), BuildingBlock: XUDNAN_clean_linker_2, # of connection points: 2
#     Edge 43, Type (0, 0), BuildingBlock: XUDNAN_clean_linker_2, # of connection points: 2
#     Edge 44, Type (0, 0), BuildingBlock: XUDNAN_clean_linker_2, # of connection points: 2
#     Edge 45, Type (0, 0), BuildingBlock: XUDNAN_clean_linker_2, # of connection points: 2
#     Edge 46, Type (0, 0), BuildingBlock: XUDNAN_clean_linker_2, # of connection points: 2
#     Edge 47, Type (0, 0), BuildingBlock: XUDNAN_clean_linker_2, # of connection points: 2
# Relax obj value: 0.105
# Max RMSD: 0.246
# Mean RMSD: 0.246
data_MOF--net-ukk--node1-GALJAG_clean_sbu_0--edge1-XUDNAN_clean_linker_2
_symmetry_space_group_name_H-M    P1
_symmetry_Int_Tables_number       1
_symmetry_cell_setting            triclinic
loop_
_symmetry_equiv_pos_as_xyz
'x, y, z'
_cell_length_a     53.560192
_cell_length_b     53.580365
_cell_length_c     18.488238
_cell_angle_alpha  89.991449
_cell_angle_beta   90.011499
_cell_angle_gamma 90.055197
loop_
_atom_site_label
_atom_site_type_symbol
_atom_site_fract_x
_atom_site_fract_y
_atom_site_fract_z
_atom_type_partial_charge
In0 In 0.35025 0.11141 0.16826 0.0
O1 O 0.33275 0.10191 0.0591 0.0
O2 O 0.30983 0.10112 0.15378 0.0
C3 C 0.39895 0.12172 0.15137 0.0
C4 C 0.33562 0.15868 0.18911 0.0
C5 C 0.35443 0.06922 0.24556 0.0
O6 O 0.38615 0.11292 0.0996 0.0
O7 O 0.38719 0.12461 0.20989 0.0
O8 O 0.34815 0.08962 0.27504 0.0
O9 O 0.3586 0.07044 0.1784 0.0
C10 C 0.31125 0.09839 0.08604 0.0
O11 O 0.33541 0.14289 0.24024 0.0
O12 O 0.3428 0.15034 0.12878 0.0
In13 In 0.10901 0.6484 0.89092 0.0
O14 O 0.08941 0.65881 0.99557 0.0
O15 O 0.10262 0.68807 0.92631 0.0
C16 C 0.11246 0.59864 0.87999 0.0
C17 C 0.1576 0.65801 0.91223 0.0
C18 C 0.07322 0.65476 0.79132 0.0
O19 O 0.10454 0.60875 0.93755 0.0
O20 O 0.11833 0.6136 0.83017 0.0
O21 O 0.09599 0.65859 0.77595 0.0
O22 O 0.06898 0.64822 0.85575 0.0
C23 C 0.09174 0.68208 0.98456 0.0
O24 O 0.14709 0.66294 0.85238 0.0
O25 O 0.14357 0.64855 0.95972 0.0
In26 In 0.63899 0.88529 0.11767 0.0
O27 O 0.6595 0.85597 0.18537 0.0
O28 O 0.64456 0.8453 0.08309 0.0
C29 C 0.64078 0.92789 0.19439 0.0
C30 C 0.66914 0.898 0.00851 0.0
C31 C 0.58978 0.8759 0.1246 0.0
O32 O 0.64761 0.9073 0.22141 0.0
O33 O 0.63336 0.92674 0.12974 0.0
O34 O 0.60018 0.88171 0.06555 0.0
O35 O 0.60417 0.8751 0.17852 0.0
C36 C 0.65623 0.8388 0.13927 0.0
O37 O 0.64579 0.89575 0.00019 0.0
O38 O 0.67704 0.89396 0.07182 0.0
In39 In 0.88698 0.35708 0.83765 0.0
O40 O 0.85044 0.34411 0.78384 0.0
O41 O 0.85268 0.34633 0.89916 0.0
C42 C 0.92553 0.36301 0.74751 0.0
C43 C 0.90683 0.31854 0.90827 0.0
C44 C 0.87997 0.40594 0.85703 0.0
O45 O 0.90509 0.35371 0.7251 0.0
O46 O 0.92601 0.36866 0.81386 0.0
O47 O 0.88752 0.39225 0.90847 0.0
O48 O 0.87538 0.3948 0.79832 0.0
C49 C 0.83971 0.34098 0.8444 0.0
O50 O 0.90359 0.33954 0.93857 0.0
O51 O 0.90044 0.31739 0.8425 0.0
In52 In 0.36375 0.38489 0.15398 0.0
O53 O 0.34824 0.3481 0.10968 0.0
O54 O 0.34956 0.3535 0.22405 0.0
C55 C 0.36829 0.41471 0.03721 0.0
C56 C 0.33186 0.41055 0.23783 0.0
C57 C 0.41187 0.37331 0.17658 0.0
O58 O 0.35265 0.39699 0.03845 0.0
O59 O 0.38135 0.41679 0.09349 0.0
O60 O 0.40199 0.39245 0.20448 0.0
O61 O 0.39752 0.36007 0.13845 0.0
C62 C 0.344 0.33925 0.17211 0.0
O63 O 0.35386 0.40556 0.25817 0.0
O64 O 0.32649 0.40327 0.17485 0.0
In65 In 0.38546 0.62832 0.87447 0.0
O66 O 0.35505 0.63855 0.95725 0.0
O67 O 0.34593 0.6391 0.84544 0.0
C68 C 0.42133 0.63424 0.97524 0.0
C69 C 0.399 0.66149 0.77249 0.0
C70 C 0.38404 0.57861 0.84395 0.0
O71 O 0.39987 0.62607 0.99167 0.0
O72 O 0.42411 0.63976 0.90942 0.0
O73 O 0.4022 0.58902 0.87473 0.0
O74 O 0.36696 0.59338 0.82549 0.0
C75 C 0.33861 0.64236 0.90941 0.0
O76 O 0.40022 0.63821 0.76165 0.0
O77 O 0.39112 0.66769 0.83416 0.0
In78 In 0.63924 0.61128 0.15318 0.0
O79 O 0.65515 0.64621 0.0987 0.0
O80 O 0.6482 0.64675 0.21267 0.0
C81 C 0.63858 0.57224 0.0626 0.0
C82 C 0.67468 0.59329 0.24069 0.0
C83 C 0.58992 0.62052 0.1581 0.0
O84 O 0.64577 0.59356 0.04114 0.0
O85 O 0.63181 0.5712 0.12787 0.0
O86 O 0.60101 0.60978 0.21002 0.0
O87 O 0.60376 0.62652 0.10571 0.0
C88 C 0.6559 0.65836 0.15757 0.0
O89 O 0.65206 0.59487 0.26063 0.0
O90 O 0.67908 0.60064 0.17695 0.0
In91 In 0.61189 0.35293 0.87952 0.0
O92 O 0.64532 0.3346 0.93483 0.0
O93 O 0.64924 0.34643 0.82542 0.0
C94 C 0.57614 0.35443 0.98077 0.0
C95 C 0.59073 0.31979 0.78934 0.0
C96 C 0.62095 0.40211 0.88117 0.0
O97 O 0.59544 0.34103 0.98816 0.0
O98 O 0.57498 0.36677 0.92262 0.0
O99 O 0.61054 0.39189 0.82709 0.0
O100 O 0.62687 0.38744 0.93176 0.0
C101 C 0.65933 0.33657 0.88004 0.0
O102 O 0.59763 0.3411 0.76728 0.0
O103 O 0.59423 0.31579 0.85569 0.0
In104 In 0.86093 0.6128 0.60054 0.0
O105 O 0.84484 0.59461 0.49876 0.0
O106 O 0.82274 0.59598 0.59546 0.0
C107 C 0.9087 0.62733 0.59658 0.0
C108 C 0.84154 0.65812 0.58261 0.0
C109 C 0.86817 0.57632 0.69622 0.0
O110 O 0.89951 0.61413 0.54597 0.0
O111 O 0.89367 0.63302 0.64663 0.0
O112 O 0.85596 0.59579 0.71322 0.0
O113 O 0.87646 0.5758 0.63212 0.0
C114 C 0.8242 0.58969 0.5297 0.0
O115 O 0.84317 0.6483 0.64502 0.0
O116 O 0.84954 0.64496 0.53087 0.0
In117 In 0.6124 0.15041 0.35408 0.0
O118 O 0.6469 0.1675 0.29921 0.0
O119 O 0.64837 0.15837 0.41174 0.0
C120 C 0.5719 0.15228 0.26936 0.0
C121 C 0.59496 0.18324 0.45015 0.0
C122 C 0.62107 0.10102 0.35091 0.0
O123 O 0.59316 0.15838 0.24478 0.0
O124 O 0.57159 0.14539 0.33456 0.0
O125 O 0.61427 0.11186 0.40846 0.0
O126 O 0.62349 0.11511 0.29673 0.0
C127 C 0.65948 0.16722 0.35736 0.0
O128 O 0.59569 0.16001 0.46345 0.0
O129 O 0.60295 0.18965 0.38845 0.0
In130 In 0.14533 0.39242 0.59848 0.0
O131 O 0.15875 0.35672 0.65433 0.0
O132 O 0.15526 0.35728 0.53906 0.0
C133 C 0.14015 0.43108 0.68801 0.0
C134 C 0.18476 0.41216 0.53135 0.0
C135 C 0.09615 0.38541 0.58415 0.0
O136 O 0.14732 0.40997 0.71141 0.0
O137 O 0.13594 0.4322 0.62076 0.0
O138 O 0.10917 0.39256 0.53064 0.0
O139 O 0.10813 0.38126 0.64166 0.0
C140 C 0.16104 0.34507 0.59497 0.0
O141 O 0.16418 0.40882 0.49852 0.0
O142 O 0.18508 0.40555 0.59701 0.0
In143 In 0.38109 0.84537 0.38694 0.0
O144 O 0.3447 0.83063 0.33821 0.0
O145 O 0.34698 0.83732 0.4524 0.0
C146 C 0.42031 0.84816 0.29929 0.0
C147 C 0.39927 0.80618 0.45796 0.0
C148 C 0.37341 0.89467 0.39212 0.0
O149 O 0.39912 0.84135 0.27528 0.0
O150 O 0.4211 0.85353 0.3659 0.0
O151 O 0.38252 0.8831 0.44597 0.0
O152 O 0.36795 0.8812 0.33829 0.0
C153 C 0.33401 0.82991 0.39954 0.0
O154 O 0.39676 0.82727 0.48875 0.0
O155 O 0.39285 0.80533 0.39213 0.0
In156 In 0.84689 0.88687 0.58891 0.0
O157 O 0.82782 0.89739 0.69475 0.0
O158 O 0.80582 0.89477 0.59855 0.0
C159 C 0.89612 0.88412 0.61262 0.0
C160 C 0.8364 0.83864 0.5655 0.0
C161 C 0.84893 0.92854 0.50984 0.0
O162 O 0.88092 0.88568 0.66488 0.0
O163 O 0.88637 0.88357 0.55056 0.0
O164 O 0.84469 0.90753 0.48077 0.0
O165 O 0.85173 0.92818 0.57771 0.0
C166 C 0.80647 0.89916 0.6656 0.0
O167 O 0.83524 0.8546 0.5151 0.0
O168 O 0.84296 0.84714 0.62618 0.0
In169 In 0.88686 0.14916 0.34454 0.0
O170 O 0.90021 0.15657 0.22967 0.0
O171 O 0.89702 0.18734 0.30253 0.0
C172 C 0.87802 0.09987 0.34926 0.0
C173 C 0.83996 0.16623 0.35874 0.0
C174 C 0.92784 0.15025 0.42818 0.0
O175 O 0.88358 0.11069 0.29063 0.0
O176 O 0.87698 0.11392 0.40386 0.0
O177 O 0.9068 0.1571 0.45218 0.0
O178 O 0.92791 0.14323 0.36306 0.0
C179 C 0.90261 0.17981 0.23985 0.0
O180 O 0.85631 0.16974 0.40713 0.0
O181 O 0.84743 0.15435 0.30401 0.0
In182 In 0.14657 0.1171 0.62246 0.0
O183 O 0.15279 0.10555 0.7396 0.0
O184 O 0.18459 0.11003 0.67108 0.0
C185 C 0.09709 0.12477 0.6109 0.0
C186 C 0.16252 0.16421 0.60456 0.0
C187 C 0.15055 0.07503 0.54423 0.0
O188 O 0.10714 0.11996 0.67123 0.0
O189 O 0.11192 0.12539 0.55803 0.0
O190 O 0.15576 0.09612 0.51736 0.0
O191 O 0.14368 0.07542 0.60946 0.0
C192 C 0.17631 0.10471 0.73319 0.0
O193 O 0.16734 0.14731 0.5588 0.0
O194 O 0.14994 0.15715 0.65846 0.0
In195 In 0.10947 0.85515 0.40526 0.0
O196 O 0.13946 0.83542 0.47199 0.0
O197 O 0.14662 0.84329 0.36067 0.0
C198 C 0.06968 0.86355 0.48909 0.0
C199 C 0.08922 0.82082 0.31779 0.0
C200 C 0.12439 0.90287 0.39812 0.0
O201 O 0.08807 0.85092 0.51192 0.0
O202 O 0.07169 0.87156 0.42506 0.0
O203 O 0.11424 0.89224 0.34431 0.0
O204 O 0.127 0.8893 0.45342 0.0
C205 C 0.15456 0.83424 0.41931 0.0
O206 O 0.09738 0.84139 0.29347 0.0
O207 O 0.09104 0.81806 0.38537 0.0
H208 H 0.36525 0.92225 0.27202 0.0
H209 H 0.37512 0.9289 0.50403 0.0
H210 H 0.37008 0.97491 0.49403 0.0
H211 H 0.40022 0.97617 0.22504 0.0
H212 H 0.38033 0.98409 0.14983 0.0
H213 H 0.38357 0.95202 0.17716 0.0
H214 H 0.33553 0.94849 0.19174 0.0
H215 H 0.33213 0.98057 0.1645 0.0
H216 H 0.31936 0.97021 0.24957 0.0
H217 H 0.36327 0.02088 0.45566 0.0
H218 H 0.35827 0.06157 0.39274 0.0
H219 H 0.35514 0.02295 0.18687 0.0
C220 C 0.36617 0.93329 0.32104 0.0
C221 C 0.37034 0.92205 0.38894 0.0
C222 C 0.37184 0.93721 0.4515 0.0
C223 C 0.36895 0.9633 0.44627 0.0
C224 C 0.36484 0.97376 0.37805 0.0
C225 C 0.36368 0.95911 0.31663 0.0
C226 C 0.36012 0.97454 0.24915 0.0
C227 C 0.38239 0.97153 0.19728 0.0
C228 C 0.33531 0.96807 0.21156 0.0
C229 C 0.35941 0.00033 0.28176 0.0
C230 C 0.3619 -0.00032 0.35618 0.0
C231 C 0.36141 0.02152 0.39741 0.0
C232 C 0.35852 0.04451 0.36137 0.0
C233 C 0.35649 0.04535 0.28503 0.0
C234 C 0.35686 0.02293 0.24525 0.0
H235 H 0.02632 0.67007 0.81823 0.0
H236 H 0.07359 0.64113 0.64796 0.0
H237 H 0.03627 0.63513 0.56991 0.0
H238 H 0.97917 0.62871 0.80106 0.0
H239 H 0.95407 0.65022 0.819 0.0
H240 H 0.98462 0.65621 0.85503 0.0
H241 H 0.98539 0.69959 0.79287 0.0
H242 H 0.95458 0.69388 0.75724 0.0
H243 H 0.97979 0.70185 0.69693 0.0
H244 H 0.99233 0.62551 0.5205 0.0
H245 H 0.94726 0.61647 0.50192 0.0
H246 H 0.93038 0.65373 0.70426 0.0
C247 C 0.02888 0.66326 0.76355 0.0
C248 C 0.05266 0.65619 0.73862 0.0
C249 C 0.05545 0.64702 0.66733 0.0
C250 C 0.03436 0.64347 0.62293 0.0
C251 C 0.01087 0.64975 0.65039 0.0
C252 C 0.00822 0.66001 0.71865 0.0
C253 C 0.98112 0.66352 0.73854 0.0
C254 C 0.97437 0.64878 0.80743 0.0
C255 C 0.97486 0.69137 0.74685 0.0
C256 C 0.96877 0.65256 0.67243 0.0
C257 C 0.98604 0.64484 0.62161 0.0
C258 C 0.97867 0.63205 0.55922 0.0
C259 C 0.95308 0.62693 0.54913 0.0
C260 C 0.93532 0.63454 0.60136 0.0
C261 C 0.94341 0.64791 0.66278 0.0
H262 H 0.63879 0.97431 0.13693 0.0
H263 H 0.64234 0.93509 0.3418 0.0
H264 H 0.63871 0.97549 0.40681 0.0
H265 H 0.67498 0.0284 0.19313 0.0
H266 H 0.65648 0.04953 0.13948 0.0
H267 H 0.6604 0.01763 0.11095 0.0
H268 H 0.6123 0.01218 0.10663 0.0
H269 H 0.60823 0.04397 0.1356 0.0
H270 H 0.59406 0.01894 0.1862 0.0
H271 H 0.63144 0.02079 0.44797 0.0
H272 H 0.62429 0.06638 0.46095 0.0
H273 H 0.62731 0.07442 0.22767 0.0
C274 C 0.63901 0.97419 0.19552 0.0
C275 C 0.64074 0.95167 0.23452 0.0
C276 C 0.64111 0.95225 0.31107 0.0
C277 C 0.63899 0.97506 0.34829 0.0
C278 C 0.63689 0.99699 0.30792 0.0
C279 C 0.63724 0.99665 0.23314 0.0
C280 C 0.63454 0.0225 0.2017 0.0
C281 C 0.658 0.02995 0.1588 0.0
C282 C 0.61087 0.0245 0.1548 0.0
C283 C 0.63214 0.03754 0.27031 0.0
C284 C 0.63347 0.02265 0.33125 0.0
C285 C 0.63067 0.03262 0.40057 0.0
C286 C 0.62655 0.05846 0.40747 0.0
C287 C 0.62543 0.07389 0.34537 0.0
C288 C 0.62834 0.06317 0.27625 0.0
H289 H 0.0665 0.39935 0.69295 0.0
H290 H 0.06435 0.36816 0.47702 0.0
H291 H 0.01846 0.36151 0.48948 0.0
H292 H 0.02608 0.35847 0.77406 0.0
H293 H 0.01161 0.38127 0.83212 0.0
H294 H 0.04311 0.38592 0.80158 0.0
H295 H 0.03096 0.42897 0.74786 0.0
H296 H 0.99937 0.42456 0.77888 0.0
H297 H 0.00537 0.43102 0.6848 0.0
H298 H 0.973 0.35401 0.53515 0.0
H299 H 0.93366 0.34868 0.60518 0.0
H300 H 0.9679 0.3864 0.78752 0.0
C301 C 0.0563 0.3915 0.64772 0.0
C302 C 0.06873 0.38413 0.58425 0.0
C303 C 0.05492 0.37403 0.52595 0.0
C304 C 0.02896 0.37017 0.53276 0.0
C305 C 0.01731 0.37706 0.59749 0.0
C306 C 0.03066 0.38794 0.65326 0.0
C307 C 0.01461 0.39285 0.71861 0.0
C308 C 0.02444 0.37878 0.78547 0.0
C309 C 0.01245 0.42102 0.73336 0.0
C310 C 0.99021 0.38217 0.69251 0.0
C311 C 0.99179 0.37327 0.62247 0.0
C312 C 0.97155 0.36129 0.58958 0.0
C313 C 0.94932 0.35829 0.62965 0.0
C314 C 0.94776 0.36711 0.70171 0.0
C315 C 0.96841 0.37947 0.73251 0.0
H316 H 0.40616 0.44716 0.01419 0.0
H317 H 0.33351 0.42548 0.93224 0.0
H318 H 0.3332 0.46283 0.85312 0.0
H319 H 0.3938 0.50783 0.03468 0.0
H320 H 0.42406 0.51957 0.00873 0.0
H321 H 0.42121 0.48861 0.04475 0.0
H322 H 0.44249 0.47043 0.93048 0.0
H323 H 0.44563 0.50151 0.89409 0.0
H324 H 0.43007 0.47761 0.84227 0.0
H325 H 0.3372 0.50655 0.80331 0.0
H326 H 0.34539 0.55158 0.78584 0.0
H327 H 0.41579 0.54396 0.89942 0.0
C328 C 0.39057 0.4498 0.97766 0.0
C329 C 0.3699 0.43347 0.97895 0.0
C330 C 0.34967 0.43765 0.9313 0.0
C331 C 0.34936 0.45881 0.88626 0.0
C332 C 0.36963 0.47524 0.88878 0.0
C333 C 0.39006 0.47067 0.93254 0.0
C334 C 0.40808 0.49242 0.93266 0.0
C335 C 0.41198 0.50271 0.00974 0.0
C336 C 0.43304 0.48505 0.89777 0.0
C337 C 0.39394 0.51064 0.88564 0.0
C338 C 0.37203 0.5003 0.85954 0.0
C339 C 0.3546 0.5146 0.82179 0.0
C340 C 0.35939 0.54018 0.81219 0.0
C341 C 0.38133 0.55118 0.84074 0.0
C342 C 0.3991 0.53598 0.87572 0.0
H343 H 0.46639 0.65571 0.95164 0.0
H344 H 0.42467 0.61373 0.11163 0.0
H345 H 0.46301 0.60983 0.18615 0.0
H346 H 0.51867 0.61954 0.9545 0.0
H347 H 0.54065 0.64468 0.94223 0.0
H348 H 0.50931 0.64777 0.90887 0.0
H349 H 0.50358 0.6884 0.98315 0.0
H350 H 0.53508 0.68556 0.01644 0.0
H351 H 0.50945 0.68811 0.07917 0.0
H352 H 0.50773 0.6058 0.23405 0.0
H353 H 0.55362 0.60252 0.25037 0.0
H354 H 0.56467 0.64717 0.05736 0.0
C355 C 0.4651 0.64626 0.00331 0.0
C356 C 0.44259 0.6351 0.02611 0.0
C357 C 0.44173 0.62263 0.09358 0.0
C358 C 0.46341 0.62032 0.13614 0.0
C359 C 0.4856 0.63086 0.11068 0.0
C360 C 0.48641 0.64384 0.04606 0.0
C361 C 0.51272 0.65152 0.02675 0.0
C362 C 0.52079 0.64019 0.95382 0.0
C363 C 0.51535 0.6801 0.02639 0.0
C364 C 0.52683 0.64006 0.08911 0.0
C365 C 0.51099 0.6285 0.13774 0.0
C366 C 0.52023 0.61518 0.19693 0.0
C367 C 0.54629 0.61339 0.2058 0.0
C368 C 0.56265 0.62463 0.15524 0.0
C369 C 0.55265 0.6385 0.09724 0.0
H370 H 0.63001 0.42677 0.00539 0.0
H371 H 0.61955 0.43872 0.77544 0.0
H372 H 0.62539 0.48438 0.79389 0.0
H373 H 0.5955 0.47928 0.062 0.0
H374 H 0.6153 0.48535 0.13887 0.0
H375 H 0.61201 0.45403 0.10511 0.0
H376 H 0.66009 0.45084 0.09043 0.0
H377 H 0.66353 0.48221 0.12398 0.0
H378 H 0.67639 0.47387 0.0372 0.0
H379 H 0.63247 0.52956 0.84152 0.0
H380 H 0.63641 0.56867 0.91338 0.0
H381 H 0.63988 0.52481 0.11012 0.0
C382 C 0.62922 0.43888 0.95852 0.0
C383 C 0.62463 0.42927 0.88887 0.0
C384 C 0.62319 0.44581 0.82927 0.0
C385 C 0.62655 0.47168 0.83929 0.0
C386 C 0.63105 0.48053 0.90923 0.0
C387 C 0.63213 0.46447 0.96769 0.0
C388 C 0.63565 0.47821 0.03805 0.0
C389 C 0.61329 0.47397 0.08896 0.0
C390 C 0.66039 0.47084 0.07452 0.0
C391 C 0.63644 0.50467 0.0106 0.0
C392 C 0.63407 0.50587 0.93622 0.0
C393 C 0.63429 0.52874 0.89977 0.0
C394 C 0.63662 0.55081 0.94077 0.0
C395 C 0.63829 0.54966 0.01711 0.0
C396 C 0.63845 0.52627 0.05181 0.0
H397 H 0.44778 0.40467 0.1303 0.0
H398 H 0.43557 0.33068 0.21696 0.0
H399 H 0.47999 0.32022 0.19497 0.0
H400 H 0.48059 0.38455 0.98548 0.0
H401 H 0.50186 0.41056 0.97972 0.0
H402 H 0.47167 0.4147 0.02017 0.0
H403 H 0.49227 0.43112 0.13771 0.0
H404 H 0.52266 0.42727 0.09731 0.0
H405 H 0.51565 0.41254 0.1826 0.0
H406 H 0.52398 0.31619 0.14942 0.0
H407 H 0.56213 0.3173 0.07374 0.0
H408 H 0.54367 0.3924 0.00515 0.0
C409 C 0.45491 0.38674 0.14781 0.0
C410 C 0.43881 0.36871 0.17767 0.0
C411 C 0.44804 0.34485 0.19593 0.0
C412 C 0.47318 0.33883 0.18369 0.0
C413 C 0.48856 0.35676 0.15184 0.0
C414 C 0.4797 0.38022 0.1337 0.0
C415 C 0.49845 0.39449 0.08847 0.0
C416 C 0.48748 0.40146 0.01409 0.0
C417 C 0.50781 0.41773 0.12897 0.0
C418 C 0.51882 0.3751 0.0817 0.0
C419 C 0.51318 0.35378 0.12054 0.0
C420 C 0.52873 0.3329 0.11953 0.0
C421 C 0.55032 0.33367 0.07653 0.0
C422 C 0.55567 0.35491 0.03382 0.0
C423 C 0.53996 0.37597 0.03756 0.0
H424 H 0.90245 0.43607 0.7625 0.0
H425 H 0.85701 0.43682 0.95598 0.0
H426 H 0.85279 0.48299 0.94565 0.0
H427 H 0.93446 0.49708 0.79583 0.0
H428 H 0.93466 0.5041 0.70049 0.0
H429 H 0.93665 0.47217 0.73063 0.0
H430 H 0.89813 0.46098 0.65196 0.0
H431 H 0.8959 0.49278 0.62206 0.0
H432 H 0.86943 0.478 0.66445 0.0
H433 H 0.84864 0.52833 0.90057 0.0
H434 H 0.84656 0.56766 0.82966 0.0
H435 H 0.89659 0.53571 0.67037 0.0
C436 C 0.89211 0.4461 0.80365 0.0
C437 C 0.88001 0.43326 0.85987 0.0
C438 C 0.86655 0.44665 0.91288 0.0
C439 C 0.86409 0.47276 0.90728 0.0
C440 C 0.87577 0.48492 0.8495 0.0
C441 C 0.88994 0.47193 0.79954 0.0
C442 C 0.89935 0.48858 0.73974 0.0
C443 C 0.92798 0.4906 0.74184 0.0
C444 C 0.89013 0.47955 0.66522 0.0
C445 C 0.88723 0.51284 0.76131 0.0
C446 C 0.87392 0.51066 0.82511 0.0
C447 C 0.85946 0.53035 0.85148 0.0
C448 C 0.85835 0.55258 0.81093 0.0
C449 C 0.87147 0.5547 0.74474 0.0
C450 C 0.88649 0.53475 0.72104 0.0
H451 H 0.52673 0.16458 0.32004 0.0
H452 H 0.56459 0.13984 0.12608 0.0
H453 H 0.52347 0.13289 0.06663 0.0
H454 H 0.48114 0.12093 0.32147 0.0
H455 H 0.45663 0.141 0.3542 0.0
H456 H 0.4886 0.14796 0.37543 0.0
H457 H 0.484 0.19208 0.31934 0.0
H458 H 0.45178 0.18542 0.29882 0.0
H459 H 0.47269 0.19528 0.22797 0.0
H460 H 0.4773 0.12279 0.03712 0.0
H461 H 0.43188 0.1131 0.0386 0.0
H462 H 0.42632 0.14538 0.25303 0.0
C463 C 0.52636 0.15839 0.26424 0.0
C464 C 0.54861 0.1528 0.22728 0.0
C465 C 0.54759 0.14454 0.15469 0.0
C466 C 0.52435 0.14047 0.12082 0.0
C467 C 0.50257 0.14526 0.16015 0.0
C468 C 0.50355 0.15455 0.22993 0.0
C469 C 0.47797 0.15655 0.26341 0.0
C470 C 0.47599 0.14065 0.33266 0.0
C471 C 0.47121 0.18397 0.27822 0.0
C472 C 0.46235 0.14588 0.20307 0.0
C473 C 0.4766 0.13969 0.14337 0.0
C474 C 0.46597 0.128 0.08317 0.0
C475 C 0.44023 0.12248 0.08449 0.0
C476 C 0.42564 0.12847 0.14594 0.0
C477 C 0.43693 0.1406 0.20513 0.0
H478 H 0.11861 0.57497 0.75268 0.0
H479 H 0.11221 0.56116 0.98303 0.0
H480 H 0.1192 0.51587 0.96115 0.0
H481 H 0.08671 0.51978 0.69386 0.0
H482 H 0.10663 0.51592 0.61609 0.0
H483 H 0.10089 0.54663 0.65175 0.0
H484 H 0.14861 0.55375 0.66475 0.0
H485 H 0.1545 0.52298 0.62969 0.0
H486 H 0.16696 0.53192 0.71648 0.0
H487 H 0.12879 0.47164 0.91067 0.0
H488 H 0.13683 0.4336 0.83714 0.0
H489 H 0.13559 0.47865 0.64233 0.0
C490 C 0.1186 0.56249 0.79877 0.0
C491 C 0.11501 0.57149 0.86956 0.0
C492 C 0.1149 0.55452 0.92827 0.0
C493 C 0.11894 0.52885 0.91631 0.0
C494 C 0.1228 0.52067 0.84541 0.0
C495 C 0.12238 0.53711 0.78779 0.0
C496 C 0.12671 0.52413 0.71662 0.0
C497 C 0.10387 0.52677 0.66667 0.0
C498 C 0.15062 0.53377 0.67976 0.0
C499 C 0.12981 0.49768 0.74269 0.0
C500 C 0.12768 0.49583 0.81702 0.0
C501 C 0.13035 0.47295 0.85243 0.0
C502 C 0.135 0.45149 0.81045 0.0
C503 C 0.13669 0.45324 0.73418 0.0
C504 C 0.1342 0.47667 0.70051 0.0
H505 H 0.46758 0.84832 0.34856 0.0
H506 H 0.42436 0.85159 0.15051 0.0
H507 H 0.46356 0.85753 0.08033 0.0
H508 H 0.51049 0.89498 0.30621 0.0
H509 H 0.53653 0.87959 0.34885 0.0
H510 H 0.50534 0.87397 0.38093 0.0
H511 H 0.51124 0.82636 0.36181 0.0
H512 H 0.54257 0.83182 0.33008 0.0
H513 H 0.52073 0.81489 0.27438 0.0
H514 H 0.50841 0.8663 0.03459 0.0
H515 H 0.55365 0.87492 0.01793 0.0
H516 H 0.56531 0.86478 0.24824 0.0
C517 C 0.46629 0.85008 0.2903 0.0
C518 C 0.44305 0.84965 0.25476 0.0
C519 C 0.44211 0.85182 0.17852 0.0
C520 C 0.46423 0.85524 0.13846 0.0
C521 C 0.48692 0.85606 0.17575 0.0
C522 C 0.48796 0.85324 0.25002 0.0
C523 C 0.51423 0.85531 0.2785 0.0
C524 C 0.51678 0.87727 0.33172 0.0
C525 C 0.52269 0.83062 0.31321 0.0
C526 C 0.52798 0.86032 0.20897 0.0
C527 C 0.51213 0.86064 0.14994 0.0
C528 C 0.52095 0.86583 0.08045 0.0
C529 C 0.5466 0.87076 0.07149 0.0
C530 C 0.56291 0.87046 0.1318 0.0
C531 C 0.55335 0.86504 0.20098 0.0
H532 H 0.85429 0.9749 0.56562 0.0
H533 H 0.84955 0.93506 0.36183 0.0
H534 H 0.85615 0.97491 0.29581 0.0
H535 H 0.82233 0.03043 0.50878 0.0
H536 H 0.8421 0.0506 0.56181 0.0
H537 H 0.83638 0.01906 0.59104 0.0
H538 H 0.8841 0.01086 0.59485 0.0
H539 H 0.88997 0.04232 0.56528 0.0
H540 H 0.90259 0.01643 0.51499 0.0
H541 H 0.86502 0.01986 0.25357 0.0
H542 H 0.87358 0.06519 0.2397 0.0
H543 H 0.87173 0.07366 0.47299 0.0
C544 C 0.85447 0.97448 0.50705 0.0
C545 C 0.85141 0.95197 0.46869 0.0
C546 C 0.85179 0.95222 0.39212 0.0
C547 C 0.85557 0.97471 0.35431 0.0
C548 C 0.85882 0.99661 0.39416 0.0
C549 C 0.85814 0.99656 0.4689 0.0
C550 C 0.86235 0.02224 0.49988 0.0
C551 C 0.83942 0.0311 0.54288 0.0
C552 C 0.88617 0.02299 0.54647 0.0
C553 C 0.86556 0.03693 0.43099 0.0
C554 C 0.86358 0.02198 0.37033 0.0
C555 C 0.86646 0.03172 0.30077 0.0
C556 C 0.87136 0.0574 0.29338 0.0
C557 C 0.87319 0.07287 0.35526 0.0
C558 C 0.87026 0.06236 0.42459 0.0
H559 H 0.97517 0.14711 0.37827 0.0
H560 H 0.93224 0.15136 0.57669 0.0
H561 H 0.97125 0.14624 0.6479 0.0
H562 H 0.01692 0.10062 0.43286 0.0
H563 H 0.04343 0.11392 0.38677 0.0
H564 H 0.01242 0.11939 0.35297 0.0
H565 H 0.01968 0.16721 0.35983 0.0
H566 H 0.05084 0.16189 0.39306 0.0
H567 H 0.02952 0.18104 0.44404 0.0
H568 H 0.01558 0.13759 0.69595 0.0
H569 H 0.06063 0.12894 0.7157 0.0
H570 H 0.07283 0.13148 0.48387 0.0
C571 C 0.97395 0.14721 0.43676 0.0
C572 C 0.95078 0.14955 0.47217 0.0
C573 C 0.94992 0.1497 0.5487 0.0
C574 C 0.97194 0.14673 0.58942 0.0
C575 C 0.99451 0.14397 0.55249 0.0
C576 C 0.99558 0.14452 0.47779 0.0
C577 C 0.02183 0.14086 0.45028 0.0
C578 C 0.02375 0.1173 0.40296 0.0
C579 C 0.031 0.16414 0.40941 0.0
C580 C 0.03546 0.13762 0.52102 0.0
C581 C 0.01956 0.13948 0.57965 0.0
C582 C 0.02819 0.13634 0.65036 0.0
C583 C 0.05373 0.13136 0.66109 0.0
C584 C 0.07017 0.12962 0.60134 0.0
C585 C 0.06078 0.13282 0.53074 0.0
H586 H 0.14124 0.92877 0.51386 0.0
H587 H 0.12285 0.93723 0.28673 0.0
H588 H 0.13222 0.98255 0.29524 0.0
H589 H 0.11192 0.98262 0.572 0.0
H590 H 0.13458 0.98976 0.64108 0.0
H591 H 0.12972 0.95795 0.61367 0.0
H592 H 0.17686 0.95368 0.58405 0.0
H593 H 0.18188 0.98557 0.61145 0.0
H594 H 0.19129 0.97546 0.52256 0.0
H595 H 0.14114 0.0279 0.33299 0.0
H596 H 0.14571 0.06836 0.39733 0.0
H597 H 0.15616 0.02868 0.59933 0.0
C598 C 0.13961 0.94 0.46536 0.0
C599 C 0.13151 0.9295 0.39948 0.0
C600 C 0.1292 0.94494 0.33767 0.0
C601 C 0.13455 0.97063 0.34201 0.0
C602 C 0.14217 0.98044 0.40848 0.0
C603 C 0.14462 0.96547 0.46897 0.0
C604 C 0.15088 0.98046 0.53565 0.0
C605 C 0.13056 0.97753 0.59398 0.0
C606 C 0.17677 0.97337 0.56513 0.0
C607 C 0.15098 0.0064 0.50399 0.0
C608 C 0.14643 0.00615 0.43036 0.0
C609 C 0.1449 0.02824 0.39049 0.0
C610 C 0.14759 0.05109 0.42729 0.0
C611 C 0.15124 0.0515 0.5031 0.0
C612 C 0.15338 0.02886 0.54129 0.0
H613 H 0.92951 0.9043 0.52176 0.0
H614 H 0.92382 0.86177 0.72025 0.0
H615 H 0.96985 0.85551 0.71953 0.0
H616 H 0.97176 0.86772 0.43646 0.0
H617 H 0.98876 0.89268 0.39343 0.0
H618 H 0.95652 0.89694 0.41679 0.0
H619 H 0.96786 0.93618 0.49217 0.0
H620 H 0.00025 0.93218 0.46842 0.0
H621 H 0.99119 0.93394 0.56217 0.0
H622 H 0.01582 0.84879 0.68433 0.0
H623 H 0.05667 0.8441 0.62223 0.0
H624 H 0.03066 0.89249 0.45002 0.0
C625 C 0.93806 0.89419 0.56607 0.0
C626 C 0.92338 0.88346 0.62097 0.0
C627 C 0.93498 0.87029 0.67809 0.0
C628 C 0.96103 0.86665 0.67794 0.0
C629 C 0.97497 0.87685 0.62124 0.0
C630 C 0.96379 0.89077 0.56718 0.0
C631 C 0.98217 0.89836 0.50943 0.0
C632 C 0.97433 0.88831 0.43468 0.0
C633 C 0.98557 0.92686 0.50801 0.0
C634 C 0.00528 0.88551 0.53714 0.0
C635 C 0.00105 0.87341 0.60208 0.0
C636 C 0.01943 0.85864 0.6343 0.0
C637 C 0.04252 0.85602 0.59868 0.0
C638 C 0.04678 0.86798 0.53149 0.0
C639 C 0.02805 0.88325 0.50157 0.0
H640 H 0.34177 0.30081 0.07464 0.0
H641 H 0.32771 0.3194 0.29929 0.0
H642 H 0.3187 0.27515 0.32555 0.0
H643 H 0.29479 0.24915 0.06034 0.0
H644 H 0.31517 0.23086 0.00377 0.0
H645 H 0.31643 0.26446 0.00021 0.0
H646 H 0.36384 0.26304 0.02815 0.0
H647 H 0.36271 0.22954 0.0322 0.0
H648 H 0.37457 0.24703 0.1081 0.0
H649 H 0.31676 0.22837 0.33095 0.0
H650 H 0.32186 0.18281 0.31405 0.0
H651 H 0.33714 0.19495 0.08627 0.0
C652 C 0.33605 0.29565 0.1288 0.0
C653 C 0.33528 0.31349 0.18481 0.0
C654 C 0.32832 0.30599 0.25549 0.0
C655 C 0.32308 0.28092 0.27091 0.0
C656 C 0.32476 0.26361 0.21498 0.0
C657 C 0.33089 0.27067 0.14517 0.0
C658 C 0.33379 0.24817 0.09648 0.0
C659 C 0.31385 0.24817 0.03667 0.0
C660 C 0.3603 0.24688 0.0644 0.0
C661 C 0.32927 0.22739 0.15035 0.0
C662 C 0.32373 0.23661 0.2182 0.0
C663 C 0.32064 0.2209 0.27776 0.0
C664 C 0.3236 0.19508 0.26777 0.0
C665 C 0.32976 0.18538 0.19889 0.0
C666 C 0.33215 0.20178 0.13946 0.0
H667 H 0.19539 0.66192 0.81261 0.0
H668 H 0.18045 0.66066 0.04313 0.0
H669 H 0.22568 0.66089 0.06814 0.0
H670 H 0.24433 0.61981 0.81753 0.0
H671 H 0.26292 0.63463 0.74851 0.0
H672 H 0.22955 0.63836 0.74834 0.0
H673 H 0.23469 0.68646 0.75067 0.0
H674 H 0.26816 0.68288 0.75032 0.0
H675 H 0.25326 0.70077 0.82068 0.0
H676 H 0.27225 0.65664 0.0683 0.0
H677 H 0.31682 0.64816 0.04273 0.0
H678 H 0.30136 0.65144 0.8125 0.0
C679 C 0.2017 0.66244 0.86825 0.0
C680 C 0.18451 0.66148 0.92594 0.0
C681 C 0.19338 0.66148 0.99814 0.0
C682 C 0.21902 0.66169 0.01292 0.0
C683 C 0.23557 0.66189 0.9549 0.0
C684 C 0.2273 0.66239 0.88397 0.0
C685 C 0.24891 0.66023 0.83161 0.0
C686 C 0.24626 0.63687 0.78371 0.0
C687 C 0.2514 0.68401 0.78562 0.0
C688 C 0.27045 0.65771 0.88416 0.0
C689 C 0.26244 0.65906 0.95502 0.0
C690 C 0.27883 0.65589 0.013 0.0
C691 C 0.30406 0.65103 0.99805 0.0
C692 C 0.31252 0.6492 0.92578 0.0
C693 C 0.29548 0.65291 0.86838 0.0
H694 H 0.653 0.80034 0.04335 0.0
H695 H 0.67588 0.81821 0.26246 0.0
H696 H 0.68377 0.77344 0.28576 0.0
H697 H 0.61952 0.74764 0.08433 0.0
H698 H 0.62825 0.73009 0.00511 0.0
H699 H 0.62815 0.76362 0.0022 0.0
H700 H 0.67445 0.76363 0.96145 0.0
H701 H 0.67467 0.72999 0.96393 0.0
H702 H 0.69742 0.74744 0.01506 0.0
H703 H 0.68289 0.72686 0.29058 0.0
H704 H 0.67469 0.6818 0.27578 0.0
H705 H 0.65377 0.69414 0.05209 0.0
C706 C 0.66025 0.79491 0.09573 0.0
C707 C 0.66389 0.81269 0.15117 0.0
C708 C 0.67311 0.80487 0.21919 0.0
C709 C 0.67768 0.77951 0.23279 0.0
C710 C 0.67326 0.76237 0.17745 0.0
C711 C 0.66502 0.76976 0.10997 0.0
C712 C 0.65976 0.74754 0.06166 0.0
C713 C 0.63229 0.74722 0.03693 0.0
C714 C 0.67765 0.74713 0.99668 0.0
C715 C 0.66528 0.7264 0.11348 0.0
C716 C 0.6733 0.73537 0.17976 0.0
C717 C 0.6772 0.71959 0.23851 0.0
C718 C 0.6724 0.69407 0.22968 0.0
C719 C 0.6639 0.68459 0.16256 0.0
C720 C 0.66086 0.70088 0.10335 0.0
H721 H 0.6939 0.34516 0.77433 0.0
H722 H 0.68499 0.31314 0.98841 0.0
H723 H 0.73042 0.30552 0.99433 0.0
H724 H 0.74625 0.30412 0.71368 0.0
H725 H 0.7614 0.3294 0.66656 0.0
H726 H 0.72785 0.32881 0.6744 0.0
H727 H 0.72871 0.37287 0.73213 0.0
H728 H 0.76217 0.37358 0.7247 0.0
H729 H 0.74755 0.37824 0.81146 0.0
H730 H 0.77656 0.30657 0.98419 0.0
H731 H 0.82071 0.31624 0.9593 0.0
H732 H 0.80026 0.34721 0.75084 0.0
C733 C 0.70143 0.33596 0.8217 0.0
C734 C 0.68596 0.32957 0.88082 0.0
C735 C 0.69652 0.31804 0.94243 0.0
C736 C 0.72227 0.31356 0.94612 0.0
C737 C 0.7371 0.32059 0.88754 0.0
C738 C 0.72709 0.33142 0.82629 0.0
C739 C 0.74736 0.33938 0.77386 0.0
C740 C 0.7456 0.32454 0.70292 0.0
C741 C 0.74638 0.36769 0.75976 0.0
C742 C 0.77042 0.3322 0.81644 0.0
C743 C 0.764 0.32108 0.88143 0.0
C744 C 0.78184 0.31479 0.93295 0.0
C745 C 0.80684 0.32045 0.91842 0.0
C746 C 0.8138 0.33224 0.8529 0.0
C747 C 0.79544 0.33765 0.80053 0.0
H748 H 0.83937 0.69631 0.68053 0.0
H749 H 0.82583 0.67806 0.45539 0.0
H750 H 0.81806 0.72249 0.42873 0.0
H751 H 0.79404 0.74962 0.69315 0.0
H752 H 0.81492 0.76722 0.75016 0.0
H753 H 0.81488 0.7336 0.75403 0.0
H754 H 0.86241 0.73337 0.72765 0.0
H755 H 0.86256 0.76688 0.72288 0.0
H756 H 0.874 0.74879 0.6477 0.0
H757 H 0.81748 0.76913 0.42302 0.0
H758 H 0.82347 0.81458 0.43987 0.0
H759 H 0.83801 0.80227 0.66803 0.0
C760 C 0.83391 0.70161 0.62626 0.0
C761 C 0.83298 0.68385 0.57013 0.0
C762 C 0.82652 0.69147 0.4992 0.0
C763 C 0.822 0.71663 0.48357 0.0
C764 C 0.82397 0.73389 0.53953 0.0
C765 C 0.82957 0.72671 0.60961 0.0
C766 C 0.83317 0.74914 0.65815 0.0
C767 C 0.81304 0.74994 0.71737 0.0
C768 C 0.8596 0.74956 0.69097 0.0
C769 C 0.82962 0.76997 0.60389 0.0
C770 C 0.82395 0.76085 0.53599 0.0
C771 C 0.82147 0.77655 0.47621 0.0
C772 C 0.825 0.80228 0.48615 0.0
C773 C 0.83113 0.81188 0.55517 0.0
C774 C 0.83313 0.79549 0.61469 0.0
H775 H 0.80273 0.16126 0.2591 0.0
H776 H 0.81778 0.18806 0.47626 0.0
H777 H 0.77283 0.19687 0.49275 0.0
H778 H 0.7509 0.2056 0.21714 0.0
H779 H 0.7338 0.18212 0.16784 0.0
H780 H 0.76745 0.18138 0.16944 0.0
H781 H 0.76617 0.13601 0.2179 0.0
H782 H 0.73262 0.13661 0.21659 0.0
H783 H 0.74887 0.12925 0.29926 0.0
H784 H 0.72634 0.19671 0.4921 0.0
H785 H 0.68143 0.18849 0.4738 0.0
H786 H 0.69633 0.16327 0.25533 0.0
C787 C 0.79665 0.16953 0.30955 0.0
C788 C 0.81369 0.17406 0.36643 0.0
C789 C 0.80502 0.18459 0.43192 0.0
C790 C 0.77956 0.18971 0.44163 0.0
C791 C 0.76316 0.18449 0.38498 0.0
C792 C 0.77137 0.17485 0.31993 0.0
C793 C 0.74974 0.16895 0.26991 0.0
C794 C 0.75052 0.18551 0.20206 0.0
C795 C 0.74933 0.14106 0.24979 0.0
C796 C 0.72796 0.17578 0.31812 0.0
C797 C 0.73615 0.18496 0.38399 0.0
C798 C 0.71968 0.19014 0.44022 0.0
C799 C 0.69426 0.18534 0.42942 0.0
C800 C 0.68555 0.17564 0.36283 0.0
C801 C 0.70251 0.17139 0.30591 0.0
H802 H 0.15607 0.30848 0.69741 0.0
H803 H 0.18246 0.3224 0.47941 0.0
H804 H 0.19094 0.27747 0.4636 0.0
H805 H 0.19881 0.25521 0.74032 0.0
H806 H 0.17463 0.23868 0.7884 0.0
H807 H 0.17481 0.27232 0.78726 0.0
H808 H 0.12963 0.27228 0.73698 0.0
H809 H 0.12936 0.23873 0.73761 0.0
H810 H 0.12283 0.25536 0.65499 0.0
H811 H 0.19206 0.23086 0.46615 0.0
H812 H 0.1844 0.18583 0.48603 0.0
H813 H 0.15603 0.20218 0.70067 0.0
C814 C 0.16437 0.3021 0.64732 0.0
C815 C 0.16889 0.31881 0.5899 0.0
C816 C 0.179 0.3098 0.52415 0.0
C817 C 0.18398 0.28436 0.51478 0.0
C818 C 0.17867 0.26818 0.57164 0.0
C819 C 0.16911 0.27666 0.63671 0.0
C820 C 0.1624 0.25513 0.68601 0.0
C821 C 0.17864 0.25535 0.75455 0.0
C822 C 0.1344 0.2554 0.70495 0.0
C823 C 0.16891 0.23329 0.63762 0.0
C824 C 0.1787 0.24118 0.57241 0.0
C825 C 0.18474 0.22441 0.51741 0.0
C826 C 0.18031 0.19891 0.52907 0.0
C827 C 0.16968 0.19057 0.59482 0.0
C828 C 0.16434 0.208 0.65 0.0
H829 H 0.19 0.83312 0.31403 0.0
H830 H 0.17759 0.81574 0.54041 0.0
H831 H 0.22246 0.80605 0.55432 0.0
H832 H 0.24118 0.78646 0.28104 0.0
H833 H 0.25762 0.80788 0.22285 0.0
H834 H 0.224 0.8087 0.22744 0.0
H835 H 0.22579 0.85567 0.26053 0.0
H836 H 0.25929 0.85498 0.25653 0.0
H837 H 0.2439 0.86549 0.33769 0.0
H838 H 0.26878 0.80519 0.54852 0.0
H839 H 0.31337 0.81278 0.52383 0.0
H840 H 0.29591 0.83042 0.30058 0.0
C841 C 0.19657 0.82656 0.36605 0.0
C842 C 0.18037 0.82504 0.42617 0.0
C843 C 0.18971 0.81685 0.49364 0.0
C844 C 0.21512 0.81124 0.5019 0.0
C845 C 0.23077 0.8137 0.44198 0.0
C846 C 0.22182 0.82096 0.37515 0.0
C847 C 0.24283 0.82491 0.3215 0.0
C848 C 0.24131 0.80584 0.25955 0.0
C849 C 0.24295 0.85186 0.29242 0.0
C850 C 0.26513 0.81993 0.36953 0.0
C851 C 0.25772 0.81308 0.43849 0.0
C852 C 0.27483 0.80997 0.49441 0.0
C853 C 0.30007 0.81445 0.47994 0.0
C854 C 0.30796 0.82198 0.41017 0.0
C855 C 0.29036 0.82412 0.35387 0.0
H856 H 0.22723 0.10591 0.73321 0.0
H857 H 0.16329 0.09059 0.87043 0.0
H858 H 0.19165 0.08303 0.9737 0.0
H859 H 0.2701 0.06032 0.81598 0.0
H860 H 0.29664 0.08081 0.80713 0.0
H861 H 0.27149 0.0824 0.7425 0.0
H862 H 0.26627 0.12961 0.76912 0.0
H863 H 0.29135 0.12817 0.83368 0.0
H864 H 0.2612 0.13977 0.8609 0.0
H865 H 0.22649 0.08075 0.06352 0.0
H866 H 0.26526 0.08468 0.13467 0.0
H867 H 0.30655 0.10146 0.93864 0.0
C868 C 0.2192 0.10055 0.7847 0.0
C869 C 0.1931 0.09871 0.79395 0.0
C870 C 0.18326 0.09201 0.86228 0.0
C871 C 0.19922 0.0876 0.92107 0.0
C872 C 0.22488 0.08988 0.91032 0.0
C873 C 0.23482 0.09615 0.84381 0.0
C874 C 0.26291 0.0991 0.84769 0.0
C875 C 0.27606 0.07948 0.80052 0.0
C876 C 0.27088 0.12574 0.82663 0.0
C877 C 0.26718 0.09415 0.92729 0.0
C878 C 0.24503 0.08859 0.96224 0.0
C879 C 0.24399 0.08476 0.03664 0.0
C880 C 0.26609 0.08708 0.07655 0.0
C881 C 0.28889 0.09324 0.042 0.0
C882 C 0.28946 0.09637 0.96626 0.0
H883 H 0.09772 0.81451 0.173 0.0
H884 H 0.06236 0.78018 0.35914 0.0
H885 H 0.05396 0.74229 0.28746 0.0
H886 H 0.05733 0.78412 0.03047 0.0
H887 H 0.08357 0.78046 0.9704 0.0
H888 H 0.08239 0.8066 0.03172 0.0
H889 H 0.12553 0.79395 0.08354 0.0
H890 H 0.12674 0.76771 0.02313 0.0
H891 H 0.12979 0.76293 0.11924 0.0
H892 H 0.05536 0.70613 0.20299 0.0
H893 H 0.06561 0.6746 0.11001 0.0
H894 H 0.10016 0.73224 0.97881 0.0
C895 C 0.08739 0.79936 0.1977 0.0
C896 C 0.08048 0.80028 0.27124 0.0
C897 C 0.06768 0.77984 0.30263 0.0
C898 C 0.06276 0.75828 0.26232 0.0
C899 C 0.07066 0.75751 0.19064 0.0
C900 C 0.0825 0.77759 0.15828 0.0
C901 C 0.09158 0.77097 0.08317 0.0
C902 C 0.07789 0.78646 0.02553 0.0
C903 C 0.12009 0.77407 0.07698 0.0
C904 C 0.08396 0.74378 0.07971 0.0
C905 C 0.07158 0.73647 0.14174 0.0
C906 C 0.06457 0.71172 0.15348 0.0
C907 C 0.07056 0.69394 0.10061 0.0
C908 C 0.08353 0.70103 0.03721 0.0
C909 C 0.08991 0.72634 0.02633 0.0
H910 H 0.71996 0.8994 0.01293 0.0
H911 H 0.65682 0.90868 0.86827 0.0
H912 H 0.68582 0.91465 0.76571 0.0
H913 H 0.76241 0.94414 0.92198 0.0
H914 H 0.78933 0.92472 0.93771 0.0
H915 H 0.7637 0.92442 0.00089 0.0
H916 H 0.75986 0.87645 0.98613 0.0
H917 H 0.78536 0.87661 0.92288 0.0
H918 H 0.7557 0.86341 0.89703 0.0
H919 H 0.72121 0.91509 0.67805 0.0
H920 H 0.76056 0.90981 0.61057 0.0
H921 H 0.80068 0.90029 0.81266 0.0
C922 C 0.71223 0.90321 0.95993 0.0
C923 C 0.68619 0.9037 0.94834 0.0
C924 C 0.67674 0.90834 0.87816 0.0
C925 C 0.69305 0.91183 0.81975 0.0
C926 C 0.71866 0.91076 0.8328 0.0
C927 C 0.72821 0.90667 0.9012 0.0
C928 C 0.75637 0.90437 0.89988 0.0
C929 C 0.76867 0.92569 0.94264 0.0
C930 C 0.7648 0.87869 0.92812 0.0
C931 C 0.76112 0.90702 0.81965 0.0
C932 C 0.73915 0.91099 0.78205 0.0
C933 C 0.73857 0.91236 0.70691 0.0
C934 C 0.76099 0.90926 0.66912 0.0
C935 C 0.78361 0.90476 0.70658 0.0
C936 C 0.7837 0.90406 0.7828 0.0
H937 H 0.90527 0.23044 0.2486 0.0
H938 H 0.91645 0.16848 0.1011 0.0
H939 H 0.92545 0.19826 0.00229 0.0
H940 H 0.87234 0.26724 0.13107 0.0
H941 H 0.88518 0.29658 0.161 0.0
H942 H 0.8839 0.27056 0.22217 0.0
H943 H 0.93161 0.27413 0.2438 0.0
H944 H 0.93303 0.30025 0.18244 0.0
H945 H 0.95263 0.2734 0.16768 0.0
H946 H 0.92738 0.23433 0.91718 0.0
H947 H 0.92116 0.2739 0.85129 0.0
H948 H 0.90899 0.31236 0.05467 0.0
C949 C 0.91022 0.22312 0.19593 0.0
C950 C 0.91029 0.19721 0.18235 0.0
C951 C 0.91641 0.1883 0.11254 0.0
C952 C 0.92167 0.20506 0.05629 0.0
C953 C 0.92092 0.23056 0.07114 0.0
C954 C 0.91545 0.23955 0.13938 0.0
C955 C 0.91323 0.2677 0.13965 0.0
C956 C 0.88712 0.27599 0.16492 0.0
C957 C 0.93386 0.27956 0.18615 0.0
C958 C 0.91724 0.2731 0.06024 0.0
C959 C 0.92208 0.25148 0.02185 0.0
C960 C 0.92412 0.25145 0.94677 0.0
C961 C 0.9205 0.27398 0.90984 0.0
C962 C 0.91479 0.29614 0.9481 0.0
C963 C 0.91385 0.29578 0.02428 0.0
H964 H 0.19459 0.41397 0.38615 0.0
H965 H 0.22669 0.42987 0.59649 0.0
H966 H 0.26723 0.43895 0.53918 0.0
H967 H 0.24343 0.3806 0.32275 0.0
H968 H 0.24205 0.39122 0.23031 0.0
H969 H 0.21437 0.39152 0.28504 0.0
H970 H 0.20867 0.43876 0.2597 0.0
H971 H 0.23641 0.43859 0.20444 0.0
H972 H 0.23386 0.46008 0.27906 0.0
H973 H 0.3055 0.43868 0.46355 0.0
H974 H 0.33854 0.42894 0.37469 0.0
H975 H 0.28189 0.41365 0.21292 0.0
C976 C 0.20993 0.42028 0.41965 0.0
C977 C 0.20753 0.4214 0.49551 0.0
C978 C 0.22816 0.42899 0.53811 0.0
C979 C 0.25123 0.43433 0.50603 0.0
C980 C 0.25331 0.43215 0.43124 0.0
C981 C 0.23317 0.42551 0.38841 0.0
C982 C 0.24113 0.42131 0.31081 0.0
C983 C 0.23489 0.39459 0.28584 0.0
C984 C 0.22931 0.44086 0.26054 0.0
C985 C 0.26902 0.42529 0.31761 0.0
C986 C 0.27563 0.43204 0.38716 0.0
C987 C 0.30055 0.43404 0.40841 0.0
C988 C 0.31919 0.42842 0.35771 0.0
C989 C 0.31275 0.42078 0.28691 0.0
C990 C 0.28737 0.41996 0.26626 0.0
H991 H 0.39811 0.79744 0.60371 0.0
H992 H 0.41668 0.76326 0.39807 0.0
H993 H 0.42357 0.72293 0.45933 0.0
H994 H 0.44142 0.75928 0.71867 0.0
H995 H 0.41893 0.75752 0.791 0.0
H996 H 0.41981 0.78457 0.73306 0.0
H997 H 0.37295 0.7783 0.70313 0.0
H998 H 0.37196 0.75116 0.76023 0.0
H999 H 0.3626 0.74882 0.66682 0.0
H1000 H 0.423 0.68536 0.53961 0.0
H1001 H 0.41537 0.65345 0.63388 0.0
H1002 H 0.39656 0.71203 0.78645 0.0
C1003 C 0.40446 0.78166 0.57212 0.0
C1004 C 0.4071 0.78343 0.49644 0.0
C1005 C 0.41468 0.76224 0.45631 0.0
C1006 C 0.41871 0.73929 0.4906 0.0
C1007 C 0.41511 0.73788 0.56505 0.0
C1008 C 0.40832 0.75853 0.60548 0.0
C1009 C 0.40311 0.75146 0.68326 0.0
C1010 C 0.42195 0.76395 0.73452 0.0
C1011 C 0.37605 0.7578 0.70455 0.0
C1012 C 0.40719 0.72354 0.67957 0.0
C1013 C 0.41446 0.71609 0.61124 0.0
C1014 C 0.41773 0.69098 0.59369 0.0
C1015 C 0.41327 0.673 0.64738 0.0
C1016 C 0.40546 0.68029 0.71733 0.0
C1017 C 0.40274 0.7059 0.73359 0.0
H1018 H 0.72478 0.59673 0.21697 0.0
H1019 H 0.67017 0.5717 0.37439 0.0
H1020 H 0.7043 0.56112 0.45908 0.0
H1021 H 0.7751 0.55108 0.26359 0.0
H1022 H 0.79921 0.57416 0.25081 0.0
H1023 H 0.77092 0.57566 0.19811 0.0
H1024 H 0.7635 0.621 0.24199 0.0
H1025 H 0.79171 0.61966 0.29444 0.0
H1026 H 0.76257 0.62738 0.33771 0.0
H1027 H 0.74336 0.55867 0.53158 0.0
H1028 H 0.78414 0.56645 0.58923 0.0
H1029 H 0.81367 0.5932 0.3851 0.0
C1030 C 0.72003 0.5884 0.26854 0.0
C1031 C 0.69488 0.58482 0.28907 0.0
C1032 C 0.68935 0.57445 0.35758 0.0
C1033 C 0.70861 0.56825 0.40576 0.0
C1034 C 0.73323 0.57246 0.38436 0.0
C1035 C 0.739 0.58228 0.31732 0.0
C1036 C 0.76668 0.58771 0.31058 0.0
C1037 C 0.77868 0.57116 0.25231 0.0
C1038 C 0.77137 0.61558 0.29533 0.0
C1039 C 0.77547 0.58038 0.38544 0.0
C1040 C 0.75595 0.57116 0.42662 0.0
C1041 C 0.75888 0.56538 0.49952 0.0
C1042 C 0.78209 0.56989 0.53179 0.0
C1043 C 0.80205 0.58016 0.49128 0.0
C1044 C 0.79891 0.58471 0.4167 0.0
H1045 H 0.60166 0.23366 0.44519 0.0
H1046 H 0.57009 0.17449 0.57679 0.0
H1047 H 0.55914 0.20536 0.67084 0.0
H1048 H 0.63107 0.26429 0.58451 0.0
H1049 H 0.62591 0.29543 0.55079 0.0
H1050 H 0.6272 0.26962 0.48887 0.0
H1051 H 0.58351 0.28142 0.43926 0.0
H1052 H 0.58206 0.30732 0.50136 0.0
H1053 H 0.55756 0.28423 0.5008 0.0
H1054 H 0.55659 0.24109 0.75582 0.0
H1055 H 0.56453 0.27869 0.82904 0.0
H1056 H 0.59811 0.31499 0.64326 0.0
C1057 C 0.59185 0.22732 0.493 0.0
C1058 C 0.5865 0.20176 0.50368 0.0
C1059 C 0.57423 0.19402 0.56758 0.0
C1060 C 0.5678 0.21144 0.62098 0.0
C1061 C 0.57375 0.23647 0.6094 0.0
C1062 C 0.5855 0.24442 0.547 0.0
C1063 C 0.59244 0.2718 0.55141 0.0
C1064 C 0.62083 0.27548 0.54347 0.0
C1065 C 0.57802 0.2871 0.49484 0.0
C1066 C 0.58366 0.27779 0.62727 0.0
C1067 C 0.57248 0.25725 0.65913 0.0
C1068 C 0.56488 0.25742 0.73109 0.0
C1069 C 0.56951 0.27885 0.77224 0.0
C1070 C 0.58172 0.29975 0.74145 0.0
C1071 C 0.58819 0.29948 0.66751 0.0
loop_
_geom_bond_atom_site_label_1
_geom_bond_atom_site_label_2
_geom_bond_distance
_geom_bond_site_symmetry_2
_ccdc_geom_bond_type
In0 O1 2.294 . S
In0 O2 2.326 . S
In0 O6 2.266 . S
In0 O7 2.326 . S
In0 O8 2.266 . S
In0 O9 2.326 . S
In0 O11 2.294 . S
In0 O12 2.326 . S
O1 In0 2.294 . S
O1 C10 1.240 . S
O2 In0 2.326 . S
O2 C10 1.252 . S
C3 O6 1.252 . S
C3 O7 1.260 . S
C4 O11 1.240 . S
C4 O12 1.252 . S
C5 O8 1.252 . S
C5 O9 1.260 . S
O6 In0 2.266 . S
O6 C3 1.252 . S
O7 In0 2.326 . S
O7 C3 1.260 . S
O8 In0 2.266 . S
O8 C5 1.252 . S
O9 In0 2.326 . S
O9 C5 1.260 . S
C10 O1 1.240 . S
C10 O2 1.252 . S
O11 In0 2.294 . S
O11 C4 1.240 . S
O12 In0 2.326 . S
O12 C4 1.252 . S
In13 O14 2.294 . S
In13 O15 2.326 . S
In13 O19 2.266 . S
In13 O20 2.326 . S
In13 O21 2.266 . S
In13 O22 2.326 . S
In13 O24 2.294 . S
In13 O25 2.326 . S
O14 In13 2.294 . S
O14 C23 1.240 . S
O15 In13 2.326 . S
O15 C23 1.252 . S
C16 O19 1.252 . S
C16 O20 1.260 . S
C17 O24 1.240 . S
C17 O25 1.252 . S
C18 O21 1.252 . S
C18 O22 1.260 . S
O19 In13 2.266 . S
O19 C16 1.252 . S
O20 In13 2.326 . S
O20 C16 1.260 . S
O21 In13 2.266 . S
O21 C18 1.252 . S
O22 In13 2.326 . S
O22 C18 1.260 . S
C23 O14 1.240 . S
C23 O15 1.252 . S
O24 In13 2.294 . S
O24 C17 1.240 . S
O25 In13 2.326 . S
O25 C17 1.252 . S
In26 O27 2.294 . S
In26 O28 2.326 . S
In26 O32 2.266 . S
In26 O33 2.326 . S
In26 O34 2.266 . S
In26 O35 2.326 . S
In26 O37 2.294 . S
In26 O38 2.326 . S
O27 In26 2.294 . S
O27 C36 1.240 . S
O28 In26 2.326 . S
O28 C36 1.252 . S
C29 O32 1.252 . S
C29 O33 1.260 . S
C30 O37 1.240 . S
C30 O38 1.252 . S
C31 O34 1.252 . S
C31 O35 1.260 . S
O32 In26 2.266 . S
O32 C29 1.252 . S
O33 In26 2.326 . S
O33 C29 1.260 . S
O34 In26 2.266 . S
O34 C31 1.252 . S
O35 In26 2.326 . S
O35 C31 1.260 . S
C36 O27 1.240 . S
C36 O28 1.252 . S
O37 In26 2.294 . S
O37 C30 1.240 . S
O38 In26 2.326 . S
O38 C30 1.252 . S
In39 O40 2.294 . S
In39 O41 2.326 . S
In39 O45 2.266 . S
In39 O46 2.326 . S
In39 O47 2.266 . S
In39 O48 2.326 . S
In39 O50 2.294 . S
In39 O51 2.326 . S
O40 In39 2.294 . S
O40 C49 1.240 . S
O41 In39 2.326 . S
O41 C49 1.252 . S
C42 O45 1.252 . S
C42 O46 1.260 . S
C43 O50 1.240 . S
C43 O51 1.252 . S
C44 O47 1.252 . S
C44 O48 1.260 . S
O45 In39 2.266 . S
O45 C42 1.252 . S
O46 In39 2.326 . S
O46 C42 1.260 . S
O47 In39 2.266 . S
O47 C44 1.252 . S
O48 In39 2.326 . S
O48 C44 1.260 . S
C49 O40 1.240 . S
C49 O41 1.252 . S
O50 In39 2.294 . S
O50 C43 1.240 . S
O51 In39 2.326 . S
O51 C43 1.252 . S
In52 O53 2.294 . S
In52 O54 2.326 . S
In52 O58 2.266 1_554 S
In52 O59 2.326 . S
In52 O60 2.266 . S
In52 O61 2.326 . S
In52 O63 2.294 . S
In52 O64 2.326 . S
O53 In52 2.294 . S
O53 C62 1.240 . S
O54 In52 2.326 . S
O54 C62 1.252 . S
C55 O58 1.252 1_554 S
C55 O59 1.260 . S
C56 O63 1.240 . S
C56 O64 1.252 . S
C57 O60 1.252 . S
C57 O61 1.260 . S
O58 In52 2.266 1_556 S
O58 C55 1.252 1_556 S
O59 In52 2.326 . S
O59 C55 1.260 . S
O60 In52 2.266 . S
O60 C57 1.252 . S
O61 In52 2.326 . S
O61 C57 1.260 . S
C62 O53 1.240 . S
C62 O54 1.252 . S
O63 In52 2.294 . S
O63 C56 1.240 . S
O64 In52 2.326 . S
O64 C56 1.252 . S
In65 O66 2.294 . S
In65 O67 2.326 . S
In65 O71 2.266 1_556 S
In65 O72 2.326 . S
In65 O73 2.266 . S
In65 O74 2.326 . S
In65 O76 2.294 . S
In65 O77 2.326 . S
O66 In65 2.294 . S
O66 C75 1.240 . S
O67 In65 2.326 . S
O67 C75 1.252 . S
C68 O71 1.252 1_556 S
C68 O72 1.260 . S
C69 O76 1.240 . S
C69 O77 1.252 . S
C70 O73 1.252 . S
C70 O74 1.260 . S
O71 In65 2.266 1_554 S
O71 C68 1.252 1_554 S
O72 In65 2.326 . S
O72 C68 1.260 . S
O73 In65 2.266 . S
O73 C70 1.252 . S
O74 In65 2.326 . S
O74 C70 1.260 . S
C75 O66 1.240 . S
C75 O67 1.252 . S
O76 In65 2.294 . S
O76 C69 1.240 . S
O77 In65 2.326 . S
O77 C69 1.252 . S
In78 O79 2.294 . S
In78 O80 2.326 . S
In78 O84 2.266 1_554 S
In78 O85 2.326 . S
In78 O86 2.266 . S
In78 O87 2.326 . S
In78 O89 2.294 . S
In78 O90 2.326 . S
O79 In78 2.294 . S
O79 C88 1.240 . S
O80 In78 2.326 . S
O80 C88 1.252 . S
C81 O84 1.252 1_554 S
C81 O85 1.260 . S
C82 O89 1.240 . S
C82 O90 1.252 . S
C83 O86 1.252 . S
C83 O87 1.260 . S
O84 In78 2.266 1_556 S
O84 C81 1.252 1_556 S
O85 In78 2.326 . S
O85 C81 1.260 . S
O86 In78 2.266 . S
O86 C83 1.252 . S
O87 In78 2.326 . S
O87 C83 1.260 . S
C88 O79 1.240 . S
C88 O80 1.252 . S
O89 In78 2.294 . S
O89 C82 1.240 . S
O90 In78 2.326 . S
O90 C82 1.252 . S
In91 O92 2.294 . S
In91 O93 2.326 . S
In91 O97 2.266 1_556 S
In91 O98 2.326 . S
In91 O99 2.266 . S
In91 O100 2.326 . S
In91 O102 2.294 . S
In91 O103 2.326 . S
O92 In91 2.294 . S
O92 C101 1.240 . S
O93 In91 2.326 . S
O93 C101 1.252 . S
C94 O97 1.252 1_556 S
C94 O98 1.260 . S
C95 O102 1.240 . S
C95 O103 1.252 . S
C96 O99 1.252 . S
C96 O100 1.260 . S
O97 In91 2.266 1_554 S
O97 C94 1.252 1_554 S
O98 In91 2.326 . S
O98 C94 1.260 . S
O99 In91 2.266 . S
O99 C96 1.252 . S
O100 In91 2.326 . S
O100 C96 1.260 . S
C101 O92 1.240 . S
C101 O93 1.252 . S
O102 In91 2.294 . S
O102 C95 1.240 . S
O103 In91 2.326 . S
O103 C95 1.252 . S
In104 O105 2.294 . S
In104 O106 2.326 . S
In104 O110 2.266 . S
In104 O111 2.326 . S
In104 O112 2.266 . S
In104 O113 2.326 . S
In104 O115 2.294 . S
In104 O116 2.326 . S
O105 In104 2.294 . S
O105 C114 1.240 . S
O106 In104 2.326 . S
O106 C114 1.252 . S
C107 O110 1.252 . S
C107 O111 1.260 . S
C108 O115 1.240 . S
C108 O116 1.252 . S
C109 O112 1.252 . S
C109 O113 1.260 . S
O110 In104 2.266 . S
O110 C107 1.252 . S
O111 In104 2.326 . S
O111 C107 1.260 . S
O112 In104 2.266 . S
O112 C109 1.252 . S
O113 In104 2.326 . S
O113 C109 1.260 . S
C114 O105 1.240 . S
C114 O106 1.252 . S
O115 In104 2.294 . S
O115 C108 1.240 . S
O116 In104 2.326 . S
O116 C108 1.252 . S
In117 O118 2.294 . S
In117 O119 2.326 . S
In117 O123 2.266 . S
In117 O124 2.326 . S
In117 O125 2.266 . S
In117 O126 2.326 . S
In117 O128 2.294 . S
In117 O129 2.326 . S
O118 In117 2.294 . S
O118 C127 1.240 . S
O119 In117 2.326 . S
O119 C127 1.252 . S
C120 O123 1.252 . S
C120 O124 1.260 . S
C121 O128 1.240 . S
C121 O129 1.252 . S
C122 O125 1.252 . S
C122 O126 1.260 . S
O123 In117 2.266 . S
O123 C120 1.252 . S
O124 In117 2.326 . S
O124 C120 1.260 . S
O125 In117 2.266 . S
O125 C122 1.252 . S
O126 In117 2.326 . S
O126 C122 1.260 . S
C127 O118 1.240 . S
C127 O119 1.252 . S
O128 In117 2.294 . S
O128 C121 1.240 . S
O129 In117 2.326 . S
O129 C121 1.252 . S
In130 O131 2.294 . S
In130 O132 2.326 . S
In130 O136 2.266 . S
In130 O137 2.326 . S
In130 O138 2.266 . S
In130 O139 2.326 . S
In130 O141 2.294 . S
In130 O142 2.326 . S
O131 In130 2.294 . S
O131 C140 1.240 . S
O132 In130 2.326 . S
O132 C140 1.252 . S
C133 O136 1.252 . S
C133 O137 1.260 . S
C134 O141 1.240 . S
C134 O142 1.252 . S
C135 O138 1.252 . S
C135 O139 1.260 . S
O136 In130 2.266 . S
O136 C133 1.252 . S
O137 In130 2.326 . S
O137 C133 1.260 . S
O138 In130 2.266 . S
O138 C135 1.252 . S
O139 In130 2.326 . S
O139 C135 1.260 . S
C140 O131 1.240 . S
C140 O132 1.252 . S
O141 In130 2.294 . S
O141 C134 1.240 . S
O142 In130 2.326 . S
O142 C134 1.252 . S
In143 O144 2.294 . S
In143 O145 2.326 . S
In143 O149 2.266 . S
In143 O150 2.326 . S
In143 O151 2.266 . S
In143 O152 2.326 . S
In143 O154 2.294 . S
In143 O155 2.326 . S
O144 In143 2.294 . S
O144 C153 1.240 . S
O145 In143 2.326 . S
O145 C153 1.252 . S
C146 O149 1.252 . S
C146 O150 1.260 . S
C147 O154 1.240 . S
C147 O155 1.252 . S
C148 O151 1.252 . S
C148 O152 1.260 . S
O149 In143 2.266 . S
O149 C146 1.252 . S
O150 In143 2.326 . S
O150 C146 1.260 . S
O151 In143 2.266 . S
O151 C148 1.252 . S
O152 In143 2.326 . S
O152 C148 1.260 . S
C153 O144 1.240 . S
C153 O145 1.252 . S
O154 In143 2.294 . S
O154 C147 1.240 . S
O155 In143 2.326 . S
O155 C147 1.252 . S
In156 O157 2.294 . S
In156 O158 2.326 . S
In156 O162 2.266 . S
In156 O163 2.326 . S
In156 O164 2.266 . S
In156 O165 2.326 . S
In156 O167 2.294 . S
In156 O168 2.326 . S
O157 In156 2.294 . S
O157 C166 1.240 . S
O158 In156 2.326 . S
O158 C166 1.252 . S
C159 O162 1.252 . S
C159 O163 1.260 . S
C160 O167 1.240 . S
C160 O168 1.252 . S
C161 O164 1.252 . S
C161 O165 1.260 . S
O162 In156 2.266 . S
O162 C159 1.252 . S
O163 In156 2.326 . S
O163 C159 1.260 . S
O164 In156 2.266 . S
O164 C161 1.252 . S
O165 In156 2.326 . S
O165 C161 1.260 . S
C166 O157 1.240 . S
C166 O158 1.252 . S
O167 In156 2.294 . S
O167 C160 1.240 . S
O168 In156 2.326 . S
O168 C160 1.252 . S
In169 O170 2.294 . S
In169 O171 2.326 . S
In169 O175 2.266 . S
In169 O176 2.326 . S
In169 O177 2.266 . S
In169 O178 2.326 . S
In169 O180 2.294 . S
In169 O181 2.326 . S
O170 In169 2.294 . S
O170 C179 1.240 . S
O171 In169 2.326 . S
O171 C179 1.252 . S
C172 O175 1.252 . S
C172 O176 1.260 . S
C173 O180 1.240 . S
C173 O181 1.252 . S
C174 O177 1.252 . S
C174 O178 1.260 . S
O175 In169 2.266 . S
O175 C172 1.252 . S
O176 In169 2.326 . S
O176 C172 1.260 . S
O177 In169 2.266 . S
O177 C174 1.252 . S
O178 In169 2.326 . S
O178 C174 1.260 . S
C179 O170 1.240 . S
C179 O171 1.252 . S
O180 In169 2.294 . S
O180 C173 1.240 . S
O181 In169 2.326 . S
O181 C173 1.252 . S
In182 O183 2.294 . S
In182 O184 2.326 . S
In182 O188 2.266 . S
In182 O189 2.326 . S
In182 O190 2.266 . S
In182 O191 2.326 . S
In182 O193 2.294 . S
In182 O194 2.326 . S
O183 In182 2.294 . S
O183 C192 1.240 . S
O184 In182 2.326 . S
O184 C192 1.252 . S
C185 O188 1.252 . S
C185 O189 1.260 . S
C186 O193 1.240 . S
C186 O194 1.252 . S
C187 O190 1.252 . S
C187 O191 1.260 . S
O188 In182 2.266 . S
O188 C185 1.252 . S
O189 In182 2.326 . S
O189 C185 1.260 . S
O190 In182 2.266 . S
O190 C187 1.252 . S
O191 In182 2.326 . S
O191 C187 1.260 . S
C192 O183 1.240 . S
C192 O184 1.252 . S
O193 In182 2.294 . S
O193 C186 1.240 . S
O194 In182 2.326 . S
O194 C186 1.252 . S
In195 O196 2.294 . S
In195 O197 2.326 . S
In195 O201 2.266 . S
In195 O202 2.326 . S
In195 O203 2.266 . S
In195 O204 2.326 . S
In195 O206 2.294 . S
In195 O207 2.326 . S
O196 In195 2.294 . S
O196 C205 1.240 . S
O197 In195 2.326 . S
O197 C205 1.252 . S
C198 O201 1.252 . S
C198 O202 1.260 . S
C199 O206 1.240 . S
C199 O207 1.252 . S
C200 O203 1.252 . S
C200 O204 1.260 . S
O201 In195 2.266 . S
O201 C198 1.252 . S
O202 In195 2.326 . S
O202 C198 1.260 . S
O203 In195 2.266 . S
O203 C200 1.252 . S
O204 In195 2.326 . S
O204 C200 1.260 . S
C205 O196 1.240 . S
C205 O197 1.252 . S
O206 In195 2.294 . S
O206 C199 1.240 . S
O207 In195 2.326 . S
O207 C199 1.252 . S
H208 C220 0.930 . S
H209 C222 0.930 . S
H210 C223 0.930 . S
H211 C227 0.959 . S
H212 C227 0.984 . S
H213 C227 0.961 . S
H214 C228 0.960 . S
H215 C228 0.961 . S
H216 C228 0.959 . S
H217 C231 0.929 . S
H218 C232 0.931 . S
H219 C234 0.930 . S
C220 H208 0.930 . S
C220 C221 1.399 . S
C220 C225 1.399 . S
C221 C220 1.399 . S
C221 C222 1.376 . S
C222 H209 0.930 . S
C222 C221 1.376 . S
C222 C223 1.388 . S
C223 H210 0.930 . S
C223 C222 1.388 . S
C223 C224 1.390 . S
C224 C223 1.390 . S
C224 C225 1.394 . S
C224 C230 1.465 1_565 S
C225 C220 1.399 . S
C225 C224 1.394 . S
C225 C226 1.516 . S
C226 C225 1.516 . S
C226 C227 1.502 . S
C226 C228 1.561 . S
C226 C229 1.526 1_565 S
C227 H211 0.959 . S
C227 H212 0.984 . S
C227 H213 0.961 . S
C227 C226 1.502 . S
C228 H214 0.960 . S
C228 H215 0.961 . S
C228 H216 0.959 . S
C228 C226 1.561 . S
C229 C226 1.526 1_545 S
C229 C230 1.396 . S
C229 C234 1.390 . S
C230 C224 1.465 1_545 S
C230 C229 1.396 . S
C230 C231 1.399 . S
C231 H217 0.929 . S
C231 C230 1.399 . S
C231 C232 1.385 . S
C232 H218 0.931 . S
C232 C231 1.385 . S
C232 C233 1.389 . S
C233 C232 1.389 . S
C233 C234 1.387 . S
C234 H219 0.930 . S
C234 C229 1.390 . S
C234 C233 1.387 . S
H235 C247 0.930 . S
H236 C249 0.930 . S
H237 C250 0.930 . S
H238 C254 0.959 . S
H239 C254 0.959 . S
H240 C254 0.961 . S
H241 C255 0.960 1_455 S
H242 C255 0.961 . S
H243 C255 0.959 . S
H244 C258 0.929 . S
H245 C259 0.931 . S
H246 C261 0.930 . S
C247 H235 0.930 . S
C247 C248 1.399 . S
C247 C252 1.399 . S
C248 C247 1.399 . S
C248 C249 1.376 . S
C249 H236 0.930 . S
C249 C248 1.376 . S
C249 C250 1.388 . S
C250 H237 0.930 . S
C250 C249 1.388 . S
C250 C251 1.390 . S
C251 C250 1.390 . S
C251 C252 1.394 . S
C251 C257 1.465 1_455 S
C252 C247 1.399 . S
C252 C251 1.394 . S
C252 C253 1.516 1_455 S
C253 C252 1.516 1_655 S
C253 C254 1.502 . S
C253 C255 1.561 . S
C253 C256 1.526 . S
C254 H238 0.959 . S
C254 H239 0.959 . S
C254 H240 0.961 . S
C254 C253 1.502 . S
C255 H241 0.960 1_655 S
C255 H242 0.961 . S
C255 H243 0.959 . S
C255 C253 1.561 . S
C256 C253 1.526 . S
C256 C257 1.396 . S
C256 C261 1.390 . S
C257 C251 1.465 1_655 S
C257 C256 1.396 . S
C257 C258 1.399 . S
C258 H244 0.929 . S
C258 C257 1.399 . S
C258 C259 1.385 . S
C259 H245 0.931 . S
C259 C258 1.385 . S
C259 C260 1.389 . S
C260 C259 1.389 . S
C260 C261 1.387 . S
C261 H246 0.930 . S
C261 C256 1.390 . S
C261 C260 1.387 . S
H262 C274 0.930 . S
H263 C276 0.930 . S
H264 C277 0.930 . S
H265 C281 0.959 . S
H266 C281 0.959 . S
H267 C281 0.961 . S
H268 C282 0.960 . S
H269 C282 0.961 . S
H270 C282 0.959 . S
H271 C285 0.929 . S
H272 C286 0.931 . S
H273 C288 0.930 . S
C274 H262 0.930 . S
C274 C275 1.399 . S
C274 C279 1.399 . S
C275 C274 1.399 . S
C275 C276 1.376 . S
C276 H263 0.930 . S
C276 C275 1.376 . S
C276 C277 1.388 . S
C277 H264 0.930 . S
C277 C276 1.388 . S
C277 C278 1.390 . S
C278 C277 1.390 . S
C278 C279 1.394 . S
C278 C284 1.465 1_565 S
C279 C274 1.399 . S
C279 C278 1.394 . S
C279 C280 1.516 1_565 S
C280 C279 1.516 1_545 S
C280 C281 1.502 . S
C280 C282 1.561 . S
C280 C283 1.526 . S
C281 H265 0.959 . S
C281 H266 0.959 . S
C281 H267 0.961 . S
C281 C280 1.502 . S
C282 H268 0.960 . S
C282 H269 0.961 . S
C282 H270 0.959 . S
C282 C280 1.561 . S
C283 C280 1.526 . S
C283 C284 1.396 . S
C283 C288 1.390 . S
C284 C278 1.465 1_545 S
C284 C283 1.396 . S
C284 C285 1.399 . S
C285 H271 0.929 . S
C285 C284 1.399 . S
C285 C286 1.385 . S
C286 H272 0.931 . S
C286 C285 1.385 . S
C286 C287 1.389 . S
C287 C286 1.389 . S
C287 C288 1.387 . S
C288 H273 0.930 . S
C288 C283 1.390 . S
C288 C287 1.387 . S
H289 C301 0.930 . S
H290 C303 0.930 . S
H291 C304 0.930 . S
H292 C308 0.959 . S
H293 C308 0.959 . S
H294 C308 0.961 1_455 S
H295 C309 0.960 . S
H296 C309 0.961 1_655 S
H297 C309 0.959 . S
H298 C312 0.929 . S
H299 C313 0.931 . S
H300 C315 0.930 . S
C301 H289 0.930 . S
C301 C302 1.399 . S
C301 C306 1.399 . S
C302 C301 1.399 . S
C302 C303 1.376 . S
C303 H290 0.930 . S
C303 C302 1.376 . S
C303 C304 1.388 . S
C304 H291 0.930 . S
C304 C303 1.388 . S
C304 C305 1.390 . S
C305 C304 1.390 . S
C305 C306 1.394 . S
C305 C311 1.465 1_455 S
C306 C301 1.399 . S
C306 C305 1.394 . S
C306 C307 1.516 . S
C307 C306 1.516 . S
C307 C308 1.502 1_455 S
C307 C309 1.561 . S
C307 C310 1.526 1_455 S
C308 H292 0.959 . S
C308 H293 0.959 . S
C308 H294 0.961 1_655 S
C308 C307 1.502 1_655 S
C309 H295 0.960 . S
C309 H296 0.961 1_455 S
C309 H297 0.959 . S
C309 C307 1.561 . S
C310 C307 1.526 1_655 S
C310 C311 1.396 . S
C310 C315 1.390 . S
C311 C305 1.465 1_655 S
C311 C310 1.396 . S
C311 C312 1.399 . S
C312 H298 0.929 . S
C312 C311 1.399 . S
C312 C313 1.385 . S
C313 H299 0.931 . S
C313 C312 1.385 . S
C313 C314 1.389 . S
C314 C313 1.389 . S
C314 C315 1.387 . S
C315 H300 0.930 . S
C315 C310 1.390 . S
C315 C314 1.387 . S
H316 C328 0.930 . S
H317 C330 0.930 . S
H318 C331 0.930 . S
H319 C335 0.959 . S
H320 C335 0.959 . S
H321 C335 0.961 . S
H322 C336 0.960 . S
H323 C336 0.961 . S
H324 C336 0.959 . S
H325 C339 0.929 . S
H326 C340 0.931 . S
H327 C342 0.930 . S
C328 H316 0.930 . S
C328 C329 1.399 1_556 S
C328 C333 1.399 . S
C329 C328 1.399 1_554 S
C329 C330 1.376 . S
C330 H317 0.930 . S
C330 C329 1.376 . S
C330 C331 1.388 . S
C331 H318 0.930 . S
C331 C330 1.388 . S
C331 C332 1.390 . S
C332 C331 1.390 . S
C332 C333 1.394 1_554 S
C332 C338 1.465 1_554 S
C333 C328 1.399 . S
C333 C332 1.394 1_556 S
C333 C334 1.516 . S
C334 C333 1.516 . S
C334 C335 1.502 . S
C334 C336 1.561 . S
C334 C337 1.526 . S
C335 H319 0.959 . S
C335 H320 0.959 . S
C335 H321 0.961 . S
C335 C334 1.502 . S
C336 H322 0.960 . S
C336 H323 0.961 . S
C336 H324 0.959 . S
C336 C334 1.561 . S
C337 C334 1.526 . S
C337 C338 1.396 . S
C337 C342 1.390 . S
C338 C332 1.465 1_556 S
C338 C337 1.396 . S
C338 C339 1.399 1_556 S
C339 H325 0.929 . S
C339 C338 1.399 1_554 S
C339 C340 1.385 . S
C340 H326 0.931 . S
C340 C339 1.385 . S
C340 C341 1.389 1_554 S
C341 C340 1.389 1_556 S
C341 C342 1.387 . S
C342 H327 0.930 . S
C342 C337 1.390 . S
C342 C341 1.387 . S
H343 C355 0.930 . S
H344 C357 0.930 . S
H345 C358 0.930 . S
H346 C362 0.959 . S
H347 C362 0.959 . S
H348 C362 0.961 . S
H349 C363 0.960 . S
H350 C363 0.961 . S
H351 C363 0.959 . S
H352 C366 0.929 . S
H353 C367 0.931 . S
H354 C369 0.930 . S
C355 H343 0.930 . S
C355 C356 1.399 1_556 S
C355 C360 1.399 1_556 S
C356 C355 1.399 1_554 S
C356 C357 1.376 . S
C357 H344 0.930 . S
C357 C356 1.376 . S
C357 C358 1.388 . S
C358 H345 0.930 . S
C358 C357 1.388 . S
C358 C359 1.390 . S
C359 C358 1.390 . S
C359 C360 1.394 . S
C359 C365 1.465 . S
C360 C355 1.399 1_554 S
C360 C359 1.394 . S
C360 C361 1.516 . S
C361 C360 1.516 . S
C361 C362 1.502 1_554 S
C361 C363 1.561 . S
C361 C364 1.526 . S
C362 H346 0.959 . S
C362 H347 0.959 . S
C362 H348 0.961 . S
C362 C361 1.502 1_556 S
C363 H349 0.960 . S
C363 H350 0.961 . S
C363 H351 0.959 . S
C363 C361 1.561 . S
C364 C361 1.526 . S
C364 C365 1.396 . S
C364 C369 1.390 . S
C365 C359 1.465 . S
C365 C364 1.396 . S
C365 C366 1.399 . S
C366 H352 0.929 . S
C366 C365 1.399 . S
C366 C367 1.385 . S
C367 H353 0.931 . S
C367 C366 1.385 . S
C367 C368 1.389 . S
C368 C367 1.389 . S
C368 C369 1.387 . S
C369 H354 0.930 . S
C369 C364 1.390 . S
C369 C368 1.387 . S
H370 C382 0.930 1_554 S
H371 C384 0.930 . S
H372 C385 0.930 . S
H373 C389 0.959 . S
H374 C389 0.959 . S
H375 C389 0.961 . S
H376 C390 0.960 . S
H377 C390 0.961 . S
H378 C390 0.959 . S
H379 C393 0.929 . S
H380 C394 0.931 . S
H381 C396 0.930 . S
C382 H370 0.930 1_556 S
C382 C383 1.399 . S
C382 C387 1.399 . S
C383 C382 1.399 . S
C383 C384 1.376 . S
C384 H371 0.930 . S
C384 C383 1.376 . S
C384 C385 1.388 . S
C385 H372 0.930 . S
C385 C384 1.388 . S
C385 C386 1.390 . S
C386 C385 1.390 . S
C386 C387 1.394 . S
C386 C392 1.465 . S
C387 C382 1.399 . S
C387 C386 1.394 . S
C387 C388 1.516 1_556 S
C388 C387 1.516 1_554 S
C388 C389 1.502 . S
C388 C390 1.561 . S
C388 C391 1.526 . S
C389 H373 0.959 . S
C389 H374 0.959 . S
C389 H375 0.961 . S
C389 C388 1.502 . S
C390 H376 0.960 . S
C390 H377 0.961 . S
C390 H378 0.959 . S
C390 C388 1.561 . S
C391 C388 1.526 . S
C391 C392 1.396 1_554 S
C391 C396 1.390 . S
C392 C386 1.465 . S
C392 C391 1.396 1_556 S
C392 C393 1.399 . S
C393 H379 0.929 . S
C393 C392 1.399 . S
C393 C394 1.385 . S
C394 H380 0.931 . S
C394 C393 1.385 . S
C394 C395 1.389 . S
C395 C394 1.389 . S
C395 C396 1.387 1_556 S
C396 H381 0.930 . S
C396 C391 1.390 . S
C396 C395 1.387 1_554 S
H397 C409 0.930 . S
H398 C411 0.930 1_556 S
H399 C412 0.930 . S
H400 C416 0.959 . S
H401 C416 0.959 . S
H402 C416 0.961 . S
H403 C417 0.960 . S
H404 C417 0.961 . S
H405 C417 0.959 . S
H406 C420 0.929 . S
H407 C421 0.931 . S
H408 C423 0.930 . S
C409 H397 0.930 . S
C409 C410 1.399 . S
C409 C414 1.399 . S
C410 C409 1.399 . S
C410 C411 1.376 . S
C411 H398 0.930 1_554 S
C411 C410 1.376 . S
C411 C412 1.388 1_554 S
C412 H399 0.930 . S
C412 C411 1.388 1_556 S
C412 C413 1.390 1_556 S
C413 C412 1.390 1_554 S
C413 C414 1.394 . S
C413 C419 1.469 . S
C414 C409 1.399 . S
C414 C413 1.394 . S
C414 C415 1.516 . S
C415 C414 1.516 . S
C415 C416 1.502 . S
C415 C417 1.561 . S
C415 C418 1.526 . S
C416 H400 0.959 . S
C416 H401 0.959 . S
C416 H402 0.961 . S
C416 C415 1.502 . S
C417 H403 0.960 . S
C417 H404 0.961 . S
C417 H405 0.959 . S
C417 C415 1.561 . S
C418 C415 1.526 . S
C418 C419 1.408 . S
C418 C423 1.390 . S
C419 C413 1.469 . S
C419 C418 1.408 . S
C419 C420 1.386 1_554 S
C420 H406 0.929 . S
C420 C419 1.386 1_556 S
C420 C421 1.385 . S
C421 H407 0.931 . S
C421 C420 1.385 . S
C421 C422 1.389 . S
C422 C421 1.389 . S
C422 C423 1.387 1_556 S
C423 H408 0.930 . S
C423 C418 1.390 . S
C423 C422 1.387 1_554 S
H424 C436 0.930 . S
H425 C438 0.930 . S
H426 C439 0.930 . S
H427 C443 0.959 . S
H428 C443 0.959 . S
H429 C443 0.961 . S
H430 C444 0.960 . S
H431 C444 0.961 . S
H432 C444 0.959 . S
H433 C447 0.929 . S
H434 C448 0.931 . S
H435 C450 0.930 . S
C436 H424 0.930 . S
C436 C437 1.399 . S
C436 C441 1.399 . S
C437 C436 1.399 . S
C437 C438 1.376 . S
C438 H425 0.930 . S
C438 C437 1.376 . S
C438 C439 1.388 . S
C439 H426 0.930 . S
C439 C438 1.388 . S
C439 C440 1.390 . S
C440 C439 1.390 . S
C440 C441 1.394 . S
C440 C446 1.465 . S
C441 C436 1.399 . S
C441 C440 1.394 . S
C441 C442 1.516 . S
C442 C441 1.516 . S
C442 C443 1.502 . S
C442 C444 1.561 . S
C442 C445 1.526 . S
C443 H427 0.959 . S
C443 H428 0.959 . S
C443 H429 0.961 . S
C443 C442 1.502 . S
C444 H430 0.960 . S
C444 H431 0.961 . S
C444 H432 0.959 . S
C444 C442 1.561 . S
C445 C442 1.526 . S
C445 C446 1.396 . S
C445 C450 1.390 . S
C446 C440 1.465 . S
C446 C445 1.396 . S
C446 C447 1.399 . S
C447 H433 0.929 . S
C447 C446 1.399 . S
C447 C448 1.385 . S
C448 H434 0.931 . S
C448 C447 1.385 . S
C448 C449 1.389 . S
C449 C448 1.389 . S
C449 C450 1.387 . S
C450 H435 0.930 . S
C450 C445 1.390 . S
C450 C449 1.387 . S
H451 C463 0.930 . S
H452 C465 0.930 . S
H453 C466 0.930 . S
H454 C470 0.959 . S
H455 C470 0.959 . S
H456 C470 0.961 . S
H457 C471 0.960 . S
H458 C471 0.961 . S
H459 C471 0.959 . S
H460 C474 0.929 . S
H461 C475 0.931 . S
H462 C477 0.930 . S
C463 H451 0.930 . S
C463 C464 1.399 . S
C463 C468 1.399 . S
C464 C463 1.399 . S
C464 C465 1.376 . S
C465 H452 0.930 . S
C465 C464 1.376 . S
C465 C466 1.388 . S
C466 H453 0.930 . S
C466 C465 1.388 . S
C466 C467 1.390 . S
C467 C466 1.390 . S
C467 C468 1.394 . S
C467 C473 1.465 . S
C468 C463 1.399 . S
C468 C467 1.394 . S
C468 C469 1.516 . S
C469 C468 1.516 . S
C469 C470 1.502 . S
C469 C471 1.561 . S
C469 C472 1.526 . S
C470 H454 0.959 . S
C470 H455 0.959 . S
C470 H456 0.961 . S
C470 C469 1.502 . S
C471 H457 0.960 . S
C471 H458 0.961 . S
C471 H459 0.959 . S
C471 C469 1.561 . S
C472 C469 1.526 . S
C472 C473 1.396 . S
C472 C477 1.390 . S
C473 C467 1.465 . S
C473 C472 1.396 . S
C473 C474 1.399 . S
C474 H460 0.929 . S
C474 C473 1.399 . S
C474 C475 1.385 . S
C475 H461 0.931 . S
C475 C474 1.385 . S
C475 C476 1.389 . S
C476 C475 1.389 . S
C476 C477 1.387 . S
C477 H462 0.930 . S
C477 C472 1.390 . S
C477 C476 1.387 . S
H478 C490 0.930 . S
H479 C492 0.930 . S
H480 C493 0.930 . S
H481 C497 0.959 . S
H482 C497 0.959 . S
H483 C497 0.961 . S
H484 C498 0.960 . S
H485 C498 0.961 . S
H486 C498 0.959 . S
H487 C501 0.929 . S
H488 C502 0.931 . S
H489 C504 0.930 . S
C490 H478 0.930 . S
C490 C491 1.399 . S
C490 C495 1.399 . S
C491 C490 1.399 . S
C491 C492 1.376 . S
C492 H479 0.930 . S
C492 C491 1.376 . S
C492 C493 1.388 . S
C493 H480 0.930 . S
C493 C492 1.388 . S
C493 C494 1.390 . S
C494 C493 1.390 . S
C494 C495 1.394 . S
C494 C500 1.465 . S
C495 C490 1.399 . S
C495 C494 1.394 . S
C495 C496 1.516 . S
C496 C495 1.516 . S
C496 C497 1.502 . S
C496 C498 1.561 . S
C496 C499 1.526 . S
C497 H481 0.959 . S
C497 H482 0.959 . S
C497 H483 0.961 . S
C497 C496 1.502 . S
C498 H484 0.960 . S
C498 H485 0.961 . S
C498 H486 0.959 . S
C498 C496 1.561 . S
C499 C496 1.526 . S
C499 C500 1.396 . S
C499 C504 1.390 . S
C500 C494 1.465 . S
C500 C499 1.396 . S
C500 C501 1.399 . S
C501 H487 0.929 . S
C501 C500 1.399 . S
C501 C502 1.385 . S
C502 H488 0.931 . S
C502 C501 1.385 . S
C502 C503 1.389 . S
C503 C502 1.389 . S
C503 C504 1.387 . S
C504 H489 0.930 . S
C504 C499 1.390 . S
C504 C503 1.387 . S
H505 C517 0.930 . S
H506 C519 0.930 . S
H507 C520 0.930 . S
H508 C524 0.959 . S
H509 C524 0.959 . S
H510 C524 0.961 . S
H511 C525 0.960 . S
H512 C525 0.961 . S
H513 C525 0.959 . S
H514 C528 0.929 . S
H515 C529 0.931 . S
H516 C531 0.930 . S
C517 H505 0.930 . S
C517 C518 1.399 . S
C517 C522 1.399 . S
C518 C517 1.399 . S
C518 C519 1.376 . S
C519 H506 0.930 . S
C519 C518 1.376 . S
C519 C520 1.388 . S
C520 H507 0.930 . S
C520 C519 1.388 . S
C520 C521 1.390 . S
C521 C520 1.390 . S
C521 C522 1.394 . S
C521 C527 1.465 . S
C522 C517 1.399 . S
C522 C521 1.394 . S
C522 C523 1.516 . S
C523 C522 1.516 . S
C523 C524 1.502 . S
C523 C525 1.561 . S
C523 C526 1.526 . S
C524 H508 0.959 . S
C524 H509 0.959 . S
C524 H510 0.961 . S
C524 C523 1.502 . S
C525 H511 0.960 . S
C525 H512 0.961 . S
C525 H513 0.959 . S
C525 C523 1.561 . S
C526 C523 1.526 . S
C526 C527 1.396 . S
C526 C531 1.390 . S
C527 C521 1.465 . S
C527 C526 1.396 . S
C527 C528 1.399 . S
C528 H514 0.929 . S
C528 C527 1.399 . S
C528 C529 1.385 . S
C529 H515 0.931 . S
C529 C528 1.385 . S
C529 C530 1.389 . S
C530 C529 1.389 . S
C530 C531 1.387 . S
C531 H516 0.930 . S
C531 C526 1.390 . S
C531 C530 1.387 . S
H532 C544 0.930 . S
H533 C546 0.930 . S
H534 C547 0.930 . S
H535 C551 0.959 . S
H536 C551 0.959 1_545 S
H537 C551 0.961 . S
H538 C552 0.960 1_565 S
H539 C552 0.961 . S
H540 C552 0.959 . S
H541 C555 0.929 . S
H542 C556 0.931 . S
H543 C558 0.930 . S
C544 H532 0.930 . S
C544 C545 1.399 . S
C544 C549 1.399 . S
C545 C544 1.399 . S
C545 C546 1.376 . S
C546 H533 0.930 . S
C546 C545 1.376 . S
C546 C547 1.388 . S
C547 H534 0.930 . S
C547 C546 1.388 . S
C547 C548 1.390 . S
C548 C547 1.390 . S
C548 C549 1.394 . S
C548 C554 1.465 1_565 S
C549 C544 1.399 . S
C549 C548 1.394 . S
C549 C550 1.516 1_565 S
C550 C549 1.516 1_545 S
C550 C551 1.502 1_545 S
C550 C552 1.561 . S
C550 C553 1.526 . S
C551 H535 0.959 . S
C551 H536 0.959 1_565 S
C551 H537 0.961 . S
C551 C550 1.502 1_565 S
C552 H538 0.960 1_545 S
C552 H539 0.961 . S
C552 H540 0.959 . S
C552 C550 1.561 . S
C553 C550 1.526 . S
C553 C554 1.396 . S
C553 C558 1.390 . S
C554 C548 1.465 1_545 S
C554 C553 1.396 . S
C554 C555 1.399 . S
C555 H541 0.929 . S
C555 C554 1.399 . S
C555 C556 1.385 . S
C556 H542 0.931 . S
C556 C555 1.385 . S
C556 C557 1.389 . S
C557 C556 1.389 . S
C557 C558 1.387 . S
C558 H543 0.930 . S
C558 C553 1.390 . S
C558 C557 1.387 . S
H559 C571 0.930 . S
H560 C573 0.930 . S
H561 C574 0.930 . S
H562 C578 0.959 . S
H563 C578 0.959 . S
H564 C578 0.961 . S
H565 C579 0.960 . S
H566 C579 0.961 . S
H567 C579 0.959 . S
H568 C582 0.929 . S
H569 C583 0.931 . S
H570 C585 0.930 . S
C571 H559 0.930 . S
C571 C572 1.399 . S
C571 C576 1.399 . S
C572 C571 1.399 . S
C572 C573 1.376 . S
C573 H560 0.930 . S
C573 C572 1.376 . S
C573 C574 1.388 . S
C574 H561 0.930 . S
C574 C573 1.388 . S
C574 C575 1.390 . S
C575 C574 1.390 . S
C575 C576 1.394 . S
C575 C581 1.465 1_655 S
C576 C571 1.399 . S
C576 C575 1.394 . S
C576 C577 1.516 1_655 S
C577 C576 1.516 1_455 S
C577 C578 1.502 . S
C577 C579 1.561 . S
C577 C580 1.526 . S
C578 H562 0.959 . S
C578 H563 0.959 . S
C578 H564 0.961 . S
C578 C577 1.502 . S
C579 H565 0.960 . S
C579 H566 0.961 . S
C579 H567 0.959 . S
C579 C577 1.561 . S
C580 C577 1.526 . S
C580 C581 1.396 . S
C580 C585 1.390 . S
C581 C575 1.465 1_455 S
C581 C580 1.396 . S
C581 C582 1.399 . S
C582 H568 0.929 . S
C582 C581 1.399 . S
C582 C583 1.385 . S
C583 H569 0.931 . S
C583 C582 1.385 . S
C583 C584 1.389 . S
C584 C583 1.389 . S
C584 C585 1.387 . S
C585 H570 0.930 . S
C585 C580 1.390 . S
C585 C584 1.387 . S
H586 C598 0.930 . S
H587 C600 0.930 . S
H588 C601 0.930 . S
H589 C605 0.959 . S
H590 C605 0.959 1_545 S
H591 C605 0.961 . S
H592 C606 0.960 1_565 S
H593 C606 0.961 . S
H594 C606 0.959 . S
H595 C609 0.929 . S
H596 C610 0.931 . S
H597 C612 0.930 . S
C598 H586 0.930 . S
C598 C599 1.399 . S
C598 C603 1.399 . S
C599 C598 1.399 . S
C599 C600 1.376 . S
C600 H587 0.930 . S
C600 C599 1.376 . S
C600 C601 1.388 . S
C601 H588 0.930 . S
C601 C600 1.388 . S
C601 C602 1.390 . S
C602 C601 1.390 . S
C602 C603 1.394 . S
C602 C608 1.465 1_565 S
C603 C598 1.399 . S
C603 C602 1.394 . S
C603 C604 1.516 . S
C604 C603 1.516 . S
C604 C605 1.502 . S
C604 C606 1.561 1_565 S
C604 C607 1.526 1_565 S
C605 H589 0.959 . S
C605 H590 0.959 1_565 S
C605 H591 0.961 . S
C605 C604 1.502 . S
C606 H592 0.960 1_545 S
C606 H593 0.961 . S
C606 H594 0.959 . S
C606 C604 1.561 1_545 S
C607 C604 1.526 1_545 S
C607 C608 1.396 . S
C607 C612 1.390 . S
C608 C602 1.465 1_545 S
C608 C607 1.396 . S
C608 C609 1.399 . S
C609 H595 0.929 . S
C609 C608 1.399 . S
C609 C610 1.385 . S
C610 H596 0.931 . S
C610 C609 1.385 . S
C610 C611 1.389 . S
C611 C610 1.389 . S
C611 C612 1.387 . S
C612 H597 0.930 . S
C612 C607 1.390 . S
C612 C611 1.387 . S
H613 C625 0.930 . S
H614 C627 0.930 . S
H615 C628 0.930 . S
H616 C632 0.959 . S
H617 C632 0.959 . S
H618 C632 0.961 1_655 S
H619 C633 0.960 1_655 S
H620 C633 0.961 . S
H621 C633 0.959 . S
H622 C636 0.929 . S
H623 C637 0.931 . S
H624 C639 0.930 . S
C625 H613 0.930 . S
C625 C626 1.399 . S
C625 C630 1.399 . S
C626 C625 1.399 . S
C626 C627 1.376 . S
C627 H614 0.930 . S
C627 C626 1.376 . S
C627 C628 1.388 . S
C628 H615 0.930 . S
C628 C627 1.388 . S
C628 C629 1.390 . S
C629 C628 1.390 . S
C629 C630 1.394 . S
C629 C635 1.465 1_655 S
C630 C625 1.399 . S
C630 C629 1.394 . S
C630 C631 1.506 1_655 S
C631 C630 1.506 1_455 S
C631 C632 1.504 . S
C631 C633 1.563 . S
C631 C634 1.532 . S
C632 H616 0.959 . S
C632 H617 0.959 . S
C632 H618 0.961 1_455 S
C632 C631 1.504 . S
C633 H619 0.960 1_455 S
C633 H620 0.961 . S
C633 H621 0.959 . S
C633 C631 1.563 . S
C634 C631 1.532 . S
C634 C635 1.396 . S
C634 C639 1.390 . S
C635 C629 1.465 1_455 S
C635 C634 1.396 . S
C635 C636 1.399 . S
C636 H622 0.929 . S
C636 C635 1.399 . S
C636 C637 1.385 . S
C637 H623 0.931 . S
C637 C636 1.385 . S
C637 C638 1.389 . S
C638 C637 1.389 . S
C638 C639 1.387 . S
C639 H624 0.930 . S
C639 C634 1.390 . S
C639 C638 1.387 . S
H640 C652 0.930 1_556 S
H641 C654 0.930 . S
H642 C655 0.930 . S
H643 C659 0.959 . S
H644 C659 0.959 1_556 S
H645 C659 0.961 1_556 S
H646 C660 0.960 . S
H647 C660 0.961 . S
H648 C660 0.959 1_554 S
H649 C663 0.929 . S
H650 C664 0.931 . S
H651 C666 0.930 . S
C652 H640 0.930 1_554 S
C652 C653 1.399 . S
C652 C657 1.399 . S
C653 C652 1.399 . S
C653 C654 1.376 . S
C654 H641 0.930 . S
C654 C653 1.376 . S
C654 C655 1.388 . S
C655 H642 0.930 . S
C655 C654 1.388 . S
C655 C656 1.390 . S
C656 C655 1.390 . S
C656 C657 1.394 . S
C656 C662 1.465 . S
C657 C652 1.399 . S
C657 C656 1.394 . S
C657 C658 1.516 . S
C658 C657 1.516 . S
C658 C659 1.502 . S
C658 C660 1.561 1_554 S
C658 C661 1.526 . S
C659 H643 0.959 . S
C659 H644 0.959 1_554 S
C659 H645 0.961 1_554 S
C659 C658 1.502 . S
C660 H646 0.960 . S
C660 H647 0.961 . S
C660 H648 0.959 1_556 S
C660 C658 1.561 1_556 S
C661 C658 1.526 . S
C661 C662 1.396 . S
C661 C666 1.390 . S
C662 C656 1.465 . S
C662 C661 1.396 . S
C662 C663 1.399 . S
C663 H649 0.929 . S
C663 C662 1.399 . S
C663 C664 1.385 . S
C664 H650 0.931 . S
C664 C663 1.385 . S
C664 C665 1.389 . S
C665 C664 1.389 . S
C665 C666 1.387 . S
C666 H651 0.930 . S
C666 C661 1.390 . S
C666 C665 1.387 . S
H667 C679 0.930 . S
H668 C681 0.930 . S
H669 C682 0.930 . S
H670 C686 0.959 . S
H671 C686 0.959 . S
H672 C686 0.961 . S
H673 C687 0.960 . S
H674 C687 0.961 . S
H675 C687 0.959 . S
H676 C690 0.929 . S
H677 C691 0.931 . S
H678 C693 0.930 . S
C679 H667 0.930 . S
C679 C680 1.399 . S
C679 C684 1.399 . S
C680 C679 1.399 . S
C680 C681 1.376 . S
C681 H668 0.930 . S
C681 C680 1.376 . S
C681 C682 1.388 . S
C682 H669 0.930 . S
C682 C681 1.388 . S
C682 C683 1.390 . S
C683 C682 1.390 . S
C683 C684 1.394 . S
C683 C689 1.465 . S
C684 C679 1.399 . S
C684 C683 1.394 . S
C684 C685 1.516 . S
C685 C684 1.516 . S
C685 C686 1.502 . S
C685 C687 1.561 . S
C685 C688 1.526 . S
C686 H670 0.959 . S
C686 H671 0.959 . S
C686 H672 0.961 . S
C686 C685 1.502 . S
C687 H673 0.960 . S
C687 H674 0.961 . S
C687 H675 0.959 . S
C687 C685 1.561 . S
C688 C685 1.526 . S
C688 C689 1.396 . S
C688 C693 1.390 . S
C689 C683 1.465 . S
C689 C688 1.396 . S
C689 C690 1.399 . S
C690 H676 0.929 . S
C690 C689 1.399 . S
C690 C691 1.385 . S
C691 H677 0.931 . S
C691 C690 1.385 . S
C691 C692 1.389 . S
C692 C691 1.389 . S
C692 C693 1.387 . S
C693 H678 0.930 . S
C693 C688 1.390 . S
C693 C692 1.387 . S
H694 C706 0.930 . S
H695 C708 0.930 . S
H696 C709 0.930 . S
H697 C713 0.959 1_554 S
H698 C713 0.959 . S
H699 C713 0.961 . S
H700 C714 0.960 1_556 S
H701 C714 0.961 1_556 S
H702 C714 0.959 . S
H703 C717 0.929 . S
H704 C718 0.931 . S
H705 C720 0.930 1_556 S
C706 H694 0.930 . S
C706 C707 1.399 . S
C706 C711 1.399 . S
C707 C706 1.399 . S
C707 C708 1.376 . S
C708 H695 0.930 . S
C708 C707 1.376 . S
C708 C709 1.388 . S
C709 H696 0.930 . S
C709 C708 1.388 . S
C709 C710 1.390 . S
C710 C709 1.390 . S
C710 C711 1.394 . S
C710 C716 1.465 . S
C711 C706 1.399 . S
C711 C710 1.394 . S
C711 C712 1.516 . S
C712 C711 1.516 . S
C712 C713 1.502 1_554 S
C712 C714 1.561 . S
C712 C715 1.526 . S
C713 H697 0.959 1_556 S
C713 H698 0.959 . S
C713 H699 0.961 . S
C713 C712 1.502 1_556 S
C714 H700 0.960 1_554 S
C714 H701 0.961 1_554 S
C714 H702 0.959 . S
C714 C712 1.561 . S
C715 C712 1.526 . S
C715 C716 1.396 . S
C715 C720 1.390 . S
C716 C710 1.465 . S
C716 C715 1.396 . S
C716 C717 1.399 . S
C717 H703 0.929 . S
C717 C716 1.399 . S
C717 C718 1.385 . S
C718 H704 0.931 . S
C718 C717 1.385 . S
C718 C719 1.389 . S
C719 C718 1.389 . S
C719 C720 1.387 . S
C720 H705 0.930 1_554 S
C720 C715 1.390 . S
C720 C719 1.387 . S
H721 C733 0.930 . S
H722 C735 0.930 1_554 S
H723 C736 0.930 . S
H724 C740 0.959 . S
H725 C740 0.959 . S
H726 C740 0.961 . S
H727 C741 0.960 . S
H728 C741 0.961 . S
H729 C741 0.959 . S
H730 C744 0.929 . S
H731 C745 0.931 . S
H732 C747 0.930 . S
C733 H721 0.930 . S
C733 C734 1.399 . S
C733 C738 1.399 . S
C734 C733 1.399 . S
C734 C735 1.376 . S
C735 H722 0.930 1_556 S
C735 C734 1.376 . S
C735 C736 1.388 . S
C736 H723 0.930 . S
C736 C735 1.388 . S
C736 C737 1.390 . S
C737 C736 1.390 . S
C737 C738 1.394 . S
C737 C743 1.465 . S
C738 C733 1.399 . S
C738 C737 1.394 . S
C738 C739 1.516 . S
C739 C738 1.516 . S
C739 C740 1.502 . S
C739 C741 1.561 . S
C739 C742 1.526 . S
C740 H724 0.959 . S
C740 H725 0.959 . S
C740 H726 0.961 . S
C740 C739 1.502 . S
C741 H727 0.960 . S
C741 H728 0.961 . S
C741 H729 0.959 . S
C741 C739 1.561 . S
C742 C739 1.526 . S
C742 C743 1.396 . S
C742 C747 1.390 . S
C743 C737 1.465 . S
C743 C742 1.396 . S
C743 C744 1.399 . S
C744 H730 0.929 . S
C744 C743 1.399 . S
C744 C745 1.385 . S
C745 H731 0.931 . S
C745 C744 1.385 . S
C745 C746 1.389 . S
C746 C745 1.389 . S
C746 C747 1.387 . S
C747 H732 0.930 . S
C747 C742 1.390 . S
C747 C746 1.387 . S
H748 C760 0.930 . S
H749 C762 0.930 . S
H750 C763 0.930 . S
H751 C767 0.959 . S
H752 C767 0.959 . S
H753 C767 0.961 . S
H754 C768 0.960 . S
H755 C768 0.961 . S
H756 C768 0.959 . S
H757 C771 0.929 . S
H758 C772 0.931 . S
H759 C774 0.930 . S
C760 H748 0.930 . S
C760 C761 1.399 . S
C760 C765 1.399 . S
C761 C760 1.399 . S
C761 C762 1.376 . S
C762 H749 0.930 . S
C762 C761 1.376 . S
C762 C763 1.388 . S
C763 H750 0.930 . S
C763 C762 1.388 . S
C763 C764 1.390 . S
C764 C763 1.390 . S
C764 C765 1.394 . S
C764 C770 1.465 . S
C765 C760 1.399 . S
C765 C764 1.394 . S
C765 C766 1.516 . S
C766 C765 1.516 . S
C766 C767 1.502 . S
C766 C768 1.561 . S
C766 C769 1.526 . S
C767 H751 0.959 . S
C767 H752 0.959 . S
C767 H753 0.961 . S
C767 C766 1.502 . S
C768 H754 0.960 . S
C768 H755 0.961 . S
C768 H756 0.959 . S
C768 C766 1.561 . S
C769 C766 1.526 . S
C769 C770 1.396 . S
C769 C774 1.390 . S
C770 C764 1.465 . S
C770 C769 1.396 . S
C770 C771 1.399 . S
C771 H757 0.929 . S
C771 C770 1.399 . S
C771 C772 1.385 . S
C772 H758 0.931 . S
C772 C771 1.385 . S
C772 C773 1.389 . S
C773 C772 1.389 . S
C773 C774 1.387 . S
C774 H759 0.930 . S
C774 C769 1.390 . S
C774 C773 1.387 . S
H775 C787 0.930 . S
H776 C789 0.930 . S
H777 C790 0.930 . S
H778 C794 0.959 . S
H779 C794 0.959 . S
H780 C794 0.961 . S
H781 C795 0.960 . S
H782 C795 0.961 . S
H783 C795 0.959 . S
H784 C798 0.929 . S
H785 C799 0.931 . S
H786 C801 0.930 . S
C787 H775 0.930 . S
C787 C788 1.399 . S
C787 C792 1.399 . S
C788 C787 1.399 . S
C788 C789 1.376 . S
C789 H776 0.930 . S
C789 C788 1.376 . S
C789 C790 1.388 . S
C790 H777 0.930 . S
C790 C789 1.388 . S
C790 C791 1.390 . S
C791 C790 1.390 . S
C791 C792 1.394 . S
C791 C797 1.465 . S
C792 C787 1.399 . S
C792 C791 1.394 . S
C792 C793 1.516 . S
C793 C792 1.516 . S
C793 C794 1.502 . S
C793 C795 1.561 . S
C793 C796 1.526 . S
C794 H778 0.959 . S
C794 H779 0.959 . S
C794 H780 0.961 . S
C794 C793 1.502 . S
C795 H781 0.960 . S
C795 H782 0.961 . S
C795 H783 0.959 . S
C795 C793 1.561 . S
C796 C793 1.526 . S
C796 C797 1.396 . S
C796 C801 1.390 . S
C797 C791 1.465 . S
C797 C796 1.396 . S
C797 C798 1.399 . S
C798 H784 0.929 . S
C798 C797 1.399 . S
C798 C799 1.385 . S
C799 H785 0.931 . S
C799 C798 1.385 . S
C799 C800 1.389 . S
C800 C799 1.389 . S
C800 C801 1.387 . S
C801 H786 0.930 . S
C801 C796 1.390 . S
C801 C800 1.387 . S
H802 C814 0.930 . S
H803 C816 0.930 . S
H804 C817 0.930 . S
H805 C821 0.959 . S
H806 C821 0.959 . S
H807 C821 0.961 . S
H808 C822 0.960 . S
H809 C822 0.961 . S
H810 C822 0.959 . S
H811 C825 0.929 . S
H812 C826 0.931 . S
H813 C828 0.930 . S
C814 H802 0.930 . S
C814 C815 1.399 . S
C814 C819 1.399 . S
C815 C814 1.399 . S
C815 C816 1.376 . S
C816 H803 0.930 . S
C816 C815 1.376 . S
C816 C817 1.388 . S
C817 H804 0.930 . S
C817 C816 1.388 . S
C817 C818 1.390 . S
C818 C817 1.390 . S
C818 C819 1.394 . S
C818 C824 1.465 . S
C819 C814 1.399 . S
C819 C818 1.394 . S
C819 C820 1.516 . S
C820 C819 1.516 . S
C820 C821 1.502 . S
C820 C822 1.561 . S
C820 C823 1.526 . S
C821 H805 0.959 . S
C821 H806 0.959 . S
C821 H807 0.961 . S
C821 C820 1.502 . S
C822 H808 0.960 . S
C822 H809 0.961 . S
C822 H810 0.959 . S
C822 C820 1.561 . S
C823 C820 1.526 . S
C823 C824 1.396 . S
C823 C828 1.390 . S
C824 C818 1.465 . S
C824 C823 1.396 . S
C824 C825 1.399 . S
C825 H811 0.929 . S
C825 C824 1.399 . S
C825 C826 1.385 . S
C826 H812 0.931 . S
C826 C825 1.385 . S
C826 C827 1.389 . S
C827 C826 1.389 . S
C827 C828 1.387 . S
C828 H813 0.930 . S
C828 C823 1.390 . S
C828 C827 1.387 . S
H829 C841 0.930 . S
H830 C843 0.930 . S
H831 C844 0.930 . S
H832 C848 0.959 . S
H833 C848 0.959 . S
H834 C848 0.961 . S
H835 C849 0.960 . S
H836 C849 0.961 . S
H837 C849 0.959 . S
H838 C852 0.929 . S
H839 C853 0.931 . S
H840 C855 0.930 . S
C841 H829 0.930 . S
C841 C842 1.399 . S
C841 C846 1.399 . S
C842 C841 1.399 . S
C842 C843 1.376 . S
C843 H830 0.930 . S
C843 C842 1.376 . S
C843 C844 1.388 . S
C844 H831 0.930 . S
C844 C843 1.388 . S
C844 C845 1.390 . S
C845 C844 1.390 . S
C845 C846 1.394 . S
C845 C851 1.465 . S
C846 C841 1.399 . S
C846 C845 1.394 . S
C846 C847 1.516 . S
C847 C846 1.516 . S
C847 C848 1.502 . S
C847 C849 1.561 . S
C847 C850 1.526 . S
C848 H832 0.959 . S
C848 H833 0.959 . S
C848 H834 0.961 . S
C848 C847 1.502 . S
C849 H835 0.960 . S
C849 H836 0.961 . S
C849 H837 0.959 . S
C849 C847 1.561 . S
C850 C847 1.526 . S
C850 C851 1.396 . S
C850 C855 1.390 . S
C851 C845 1.465 . S
C851 C850 1.396 . S
C851 C852 1.399 . S
C852 H838 0.929 . S
C852 C851 1.399 . S
C852 C853 1.385 . S
C853 H839 0.931 . S
C853 C852 1.385 . S
C853 C854 1.389 . S
C854 C853 1.389 . S
C854 C855 1.387 . S
C855 H840 0.930 . S
C855 C850 1.390 . S
C855 C854 1.387 . S
H856 C868 0.930 . S
H857 C870 0.930 . S
H858 C871 0.930 . S
H859 C875 0.959 . S
H860 C875 0.959 . S
H861 C875 0.961 . S
H862 C876 0.960 . S
H863 C876 0.961 . S
H864 C876 0.959 . S
H865 C879 0.929 . S
H866 C880 0.928 1_554 S
H867 C882 0.930 . S
C868 H856 0.930 . S
C868 C869 1.399 . S
C868 C873 1.399 . S
C869 C868 1.399 . S
C869 C870 1.376 . S
C870 H857 0.930 . S
C870 C869 1.376 . S
C870 C871 1.388 . S
C871 H858 0.930 . S
C871 C870 1.388 . S
C871 C872 1.390 . S
C872 C871 1.390 . S
C872 C873 1.394 . S
C872 C878 1.465 . S
C873 C868 1.399 . S
C873 C872 1.394 . S
C873 C874 1.516 . S
C874 C873 1.516 . S
C874 C875 1.502 . S
C874 C876 1.561 . S
C874 C877 1.526 . S
C875 H859 0.959 . S
C875 H860 0.959 . S
C875 H861 0.961 . S
C875 C874 1.502 . S
C876 H862 0.960 . S
C876 H863 0.961 . S
C876 H864 0.959 . S
C876 C874 1.561 . S
C877 C874 1.526 . S
C877 C878 1.396 . S
C877 C882 1.390 . S
C878 C872 1.465 . S
C878 C877 1.396 . S
C878 C879 1.399 . S
C879 H865 0.929 . S
C879 C878 1.399 . S
C879 C880 1.385 . S
C880 H866 0.928 1_556 S
C880 C879 1.385 . S
C880 C881 1.389 . S
C881 C880 1.389 . S
C881 C882 1.387 . S
C882 H867 0.930 . S
C882 C877 1.390 . S
C882 C881 1.387 . S
H883 C895 0.930 . S
H884 C897 0.930 . S
H885 C898 0.930 . S
H886 C902 0.959 . S
H887 C902 0.959 1_556 S
H888 C902 0.961 . S
H889 C903 0.960 . S
H890 C903 0.961 1_556 S
H891 C903 0.959 . S
H892 C906 0.929 . S
H893 C907 0.931 . S
H894 C909 0.930 1_556 S
C895 H883 0.930 . S
C895 C896 1.399 . S
C895 C900 1.399 . S
C896 C895 1.399 . S
C896 C897 1.376 . S
C897 H884 0.930 . S
C897 C896 1.376 . S
C897 C898 1.388 . S
C898 H885 0.930 . S
C898 C897 1.388 . S
C898 C899 1.390 . S
C899 C898 1.390 . S
C899 C900 1.394 . S
C899 C905 1.465 . S
C900 C895 1.399 . S
C900 C899 1.394 . S
C900 C901 1.516 . S
C901 C900 1.516 . S
C901 C902 1.502 . S
C901 C903 1.561 . S
C901 C904 1.526 . S
C902 H886 0.959 . S
C902 H887 0.959 1_554 S
C902 H888 0.961 . S
C902 C901 1.502 . S
C903 H889 0.960 . S
C903 H890 0.961 1_554 S
C903 H891 0.959 . S
C903 C901 1.561 . S
C904 C901 1.526 . S
C904 C905 1.396 . S
C904 C909 1.390 . S
C905 C899 1.465 . S
C905 C904 1.396 . S
C905 C906 1.399 . S
C906 H892 0.929 . S
C906 C905 1.399 . S
C906 C907 1.385 . S
C907 H893 0.931 . S
C907 C906 1.385 . S
C907 C908 1.389 . S
C908 C907 1.389 . S
C908 C909 1.387 . S
C909 H894 0.930 1_554 S
C909 C904 1.390 . S
C909 C908 1.387 . S
H910 C922 0.930 . S
H911 C924 0.930 . S
H912 C925 0.930 . S
H913 C929 0.959 . S
H914 C929 0.959 . S
H915 C929 0.961 . S
H916 C930 0.960 . S
H917 C930 0.961 . S
H918 C930 0.959 . S
H919 C933 0.929 . S
H920 C934 0.931 . S
H921 C936 0.930 . S
C922 H910 0.930 . S
C922 C923 1.399 . S
C922 C927 1.399 . S
C923 C922 1.399 . S
C923 C924 1.376 . S
C924 H911 0.930 . S
C924 C923 1.376 . S
C924 C925 1.388 . S
C925 H912 0.930 . S
C925 C924 1.388 . S
C925 C926 1.390 . S
C926 C925 1.390 . S
C926 C927 1.394 . S
C926 C932 1.465 . S
C927 C922 1.399 . S
C927 C926 1.394 . S
C927 C928 1.516 . S
C928 C927 1.516 . S
C928 C929 1.502 . S
C928 C930 1.561 . S
C928 C931 1.526 . S
C929 H913 0.959 . S
C929 H914 0.959 . S
C929 H915 0.961 . S
C929 C928 1.502 . S
C930 H916 0.960 . S
C930 H917 0.961 . S
C930 H918 0.959 . S
C930 C928 1.561 . S
C931 C928 1.526 . S
C931 C932 1.396 . S
C931 C936 1.390 . S
C932 C926 1.465 . S
C932 C931 1.396 . S
C932 C933 1.399 . S
C933 H919 0.929 . S
C933 C932 1.399 . S
C933 C934 1.385 . S
C934 H920 0.931 . S
C934 C933 1.385 . S
C934 C935 1.389 . S
C935 C934 1.389 . S
C935 C936 1.387 . S
C936 H921 0.930 . S
C936 C931 1.390 . S
C936 C935 1.387 . S
H937 C949 0.930 . S
H938 C951 0.930 . S
H939 C952 0.930 . S
H940 C956 0.959 . S
H941 C956 0.959 . S
H942 C956 0.961 . S
H943 C957 0.960 . S
H944 C957 0.961 . S
H945 C957 0.959 . S
H946 C960 0.929 . S
H947 C961 0.931 . S
H948 C963 0.930 . S
C949 H937 0.930 . S
C949 C950 1.399 . S
C949 C954 1.399 . S
C950 C949 1.399 . S
C950 C951 1.376 . S
C951 H938 0.930 . S
C951 C950 1.376 . S
C951 C952 1.388 . S
C952 H939 0.930 . S
C952 C951 1.388 . S
C952 C953 1.390 . S
C953 C952 1.390 . S
C953 C954 1.394 . S
C953 C959 1.465 . S
C954 C949 1.399 . S
C954 C953 1.394 . S
C954 C955 1.516 . S
C955 C954 1.516 . S
C955 C956 1.502 . S
C955 C957 1.561 . S
C955 C958 1.526 . S
C956 H940 0.959 . S
C956 H941 0.959 . S
C956 H942 0.961 . S
C956 C955 1.502 . S
C957 H943 0.960 . S
C957 H944 0.961 . S
C957 H945 0.959 . S
C957 C955 1.561 . S
C958 C955 1.526 . S
C958 C959 1.396 . S
C958 C963 1.390 . S
C959 C953 1.465 . S
C959 C958 1.396 . S
C959 C960 1.399 . S
C960 H946 0.929 . S
C960 C959 1.399 . S
C960 C961 1.385 1_554 S
C961 H947 0.931 . S
C961 C960 1.385 1_556 S
C961 C962 1.389 1_556 S
C962 C961 1.389 1_554 S
C962 C963 1.387 . S
C963 H948 0.930 . S
C963 C958 1.390 . S
C963 C962 1.387 . S
H964 C976 0.930 . S
H965 C978 0.930 . S
H966 C979 0.930 . S
H967 C983 0.959 . S
H968 C983 0.959 . S
H969 C983 0.961 . S
H970 C984 0.960 . S
H971 C984 0.961 . S
H972 C984 0.959 . S
H973 C987 0.929 . S
H974 C988 0.931 . S
H975 C990 0.930 . S
C976 H964 0.930 . S
C976 C977 1.399 . S
C976 C981 1.399 . S
C977 C976 1.399 . S
C977 C978 1.376 . S
C978 H965 0.930 . S
C978 C977 1.376 . S
C978 C979 1.388 . S
C979 H966 0.930 . S
C979 C978 1.388 . S
C979 C980 1.390 . S
C980 C979 1.390 . S
C980 C981 1.394 . S
C980 C986 1.465 . S
C981 C976 1.399 . S
C981 C980 1.394 . S
C981 C982 1.516 . S
C982 C981 1.516 . S
C982 C983 1.502 . S
C982 C984 1.561 . S
C982 C985 1.526 . S
C983 H967 0.959 . S
C983 H968 0.959 . S
C983 H969 0.961 . S
C983 C982 1.502 . S
C984 H970 0.960 . S
C984 H971 0.961 . S
C984 H972 0.959 . S
C984 C982 1.561 . S
C985 C982 1.526 . S
C985 C986 1.396 . S
C985 C990 1.390 . S
C986 C980 1.465 . S
C986 C985 1.396 . S
C986 C987 1.399 . S
C987 H973 0.929 . S
C987 C986 1.399 . S
C987 C988 1.385 . S
C988 H974 0.931 . S
C988 C987 1.385 . S
C988 C989 1.389 . S
C989 C988 1.389 . S
C989 C990 1.387 . S
C990 H975 0.930 . S
C990 C985 1.390 . S
C990 C989 1.387 . S
H991 C1003 0.930 . S
H992 C1005 0.930 . S
H993 C1006 0.930 . S
H994 C1010 0.959 . S
H995 C1010 0.959 . S
H996 C1010 0.961 . S
H997 C1011 0.960 . S
H998 C1011 0.961 . S
H999 C1011 0.959 . S
H1000 C1014 0.929 . S
H1001 C1015 0.931 . S
H1002 C1017 0.930 . S
C1003 H991 0.930 . S
C1003 C1004 1.399 . S
C1003 C1008 1.399 . S
C1004 C1003 1.399 . S
C1004 C1005 1.376 . S
C1005 H992 0.930 . S
C1005 C1004 1.376 . S
C1005 C1006 1.388 . S
C1006 H993 0.930 . S
C1006 C1005 1.388 . S
C1006 C1007 1.390 . S
C1007 C1006 1.390 . S
C1007 C1008 1.394 . S
C1007 C1013 1.465 . S
C1008 C1003 1.399 . S
C1008 C1007 1.394 . S
C1008 C1009 1.516 . S
C1009 C1008 1.516 . S
C1009 C1010 1.502 . S
C1009 C1011 1.561 . S
C1009 C1012 1.526 . S
C1010 H994 0.959 . S
C1010 H995 0.959 . S
C1010 H996 0.961 . S
C1010 C1009 1.502 . S
C1011 H997 0.960 . S
C1011 H998 0.961 . S
C1011 H999 0.959 . S
C1011 C1009 1.561 . S
C1012 C1009 1.526 . S
C1012 C1013 1.396 . S
C1012 C1017 1.390 . S
C1013 C1007 1.465 . S
C1013 C1012 1.396 . S
C1013 C1014 1.399 . S
C1014 H1000 0.929 . S
C1014 C1013 1.399 . S
C1014 C1015 1.385 . S
C1015 H1001 0.931 . S
C1015 C1014 1.385 . S
C1015 C1016 1.389 . S
C1016 C1015 1.389 . S
C1016 C1017 1.387 . S
C1017 H1002 0.930 . S
C1017 C1012 1.390 . S
C1017 C1016 1.387 . S
H1018 C1030 0.930 . S
H1019 C1032 0.930 . S
H1020 C1033 0.930 . S
H1021 C1037 0.959 . S
H1022 C1037 0.959 . S
H1023 C1037 0.961 . S
H1024 C1038 0.960 . S
H1025 C1038 0.961 . S
H1026 C1038 0.959 . S
H1027 C1041 0.929 . S
H1028 C1042 0.931 . S
H1029 C1044 0.930 . S
C1030 H1018 0.930 . S
C1030 C1031 1.399 . S
C1030 C1035 1.399 . S
C1031 C1030 1.399 . S
C1031 C1032 1.376 . S
C1032 H1019 0.930 . S
C1032 C1031 1.376 . S
C1032 C1033 1.388 . S
C1033 H1020 0.930 . S
C1033 C1032 1.388 . S
C1033 C1034 1.390 . S
C1034 C1033 1.390 . S
C1034 C1035 1.394 . S
C1034 C1040 1.465 . S
C1035 C1030 1.399 . S
C1035 C1034 1.394 . S
C1035 C1036 1.516 . S
C1036 C1035 1.516 . S
C1036 C1037 1.502 . S
C1036 C1038 1.561 . S
C1036 C1039 1.526 . S
C1037 H1021 0.959 . S
C1037 H1022 0.959 . S
C1037 H1023 0.961 . S
C1037 C1036 1.502 . S
C1038 H1024 0.960 . S
C1038 H1025 0.961 . S
C1038 H1026 0.959 . S
C1038 C1036 1.561 . S
C1039 C1036 1.526 . S
C1039 C1040 1.396 . S
C1039 C1044 1.390 . S
C1040 C1034 1.465 . S
C1040 C1039 1.396 . S
C1040 C1041 1.399 . S
C1041 H1027 0.929 . S
C1041 C1040 1.399 . S
C1041 C1042 1.385 . S
C1042 H1028 0.931 . S
C1042 C1041 1.385 . S
C1042 C1043 1.389 . S
C1043 C1042 1.389 . S
C1043 C1044 1.387 . S
C1044 H1029 0.930 . S
C1044 C1039 1.390 . S
C1044 C1043 1.387 . S
H1045 C1057 0.930 . S
H1046 C1059 0.930 . S
H1047 C1060 0.930 . S
H1048 C1064 0.959 . S
H1049 C1064 0.959 . S
H1050 C1064 0.961 . S
H1051 C1065 0.960 . S
H1052 C1065 0.961 . S
H1053 C1065 0.959 . S
H1054 C1068 0.929 . S
H1055 C1069 0.931 . S
H1056 C1071 0.930 . S
C1057 H1045 0.930 . S
C1057 C1058 1.399 . S
C1057 C1062 1.399 . S
C1058 C1057 1.399 . S
C1058 C1059 1.376 . S
C1059 H1046 0.930 . S
C1059 C1058 1.376 . S
C1059 C1060 1.388 . S
C1060 H1047 0.930 . S
C1060 C1059 1.388 . S
C1060 C1061 1.390 . S
C1061 C1060 1.390 . S
C1061 C1062 1.394 . S
C1061 C1067 1.465 . S
C1062 C1057 1.399 . S
C1062 C1061 1.394 . S
C1062 C1063 1.516 . S
C1063 C1062 1.516 . S
C1063 C1064 1.502 . S
C1063 C1065 1.561 . S
C1063 C1066 1.526 . S
C1064 H1048 0.959 . S
C1064 H1049 0.959 . S
C1064 H1050 0.961 . S
C1064 C1063 1.502 . S
C1065 H1051 0.960 . S
C1065 H1052 0.961 . S
C1065 H1053 0.959 . S
C1065 C1063 1.561 . S
C1066 C1063 1.526 . S
C1066 C1067 1.396 . S
C1066 C1071 1.390 . S
C1067 C1061 1.465 . S
C1067 C1066 1.396 . S
C1067 C1068 1.399 . S
C1068 H1054 0.929 . S
C1068 C1067 1.399 . S
C1068 C1069 1.385 . S
C1069 H1055 0.931 . S
C1069 C1068 1.385 . S
C1069 C1070 1.389 . S
C1070 C1069 1.389 . S
C1070 C1071 1.387 . S
C1071 H1056 0.930 . S
C1071 C1066 1.390 . S
C1071 C1070 1.387 . S
C221 C148 1.387 . S
C233 C5 1.399 . S
C248 C18 1.347 . S
C260 C107 1.407 . S
C275 C29 1.362 . S
C287 C122 1.410 . S
C302 C135 1.368 . S
C314 C42 1.352 . S
C329 C55 1.363 . S
C341 C70 1.372 . S
C356 C68 1.377 1_554 S
C368 C83 1.411 . S
C383 C96 1.378 . S
C395 C81 1.402 1_556 S
C410 C57 1.367 . S
C422 C94 1.360 . S
C437 C44 1.391 . S
C449 C109 1.336 . S
C464 C120 1.339 . S
C476 C3 1.402 . S
C491 C16 1.384 . S
C503 C133 1.401 . S
C518 C146 1.341 . S
C530 C31 1.403 . S
C545 C161 1.363 . S
C557 C172 1.372 . S
C572 C174 1.386 . S
C584 C185 1.410 . S
C599 C200 1.398 . S
C611 C187 1.333 . S
C626 C159 1.368 . S
C638 C198 1.377 . S
C653 C62 1.087 . S
C665 C4 1.171 . S
C680 C17 1.088 . S
C692 C75 1.138 . S
C707 C36 1.188 . S
C719 C88 1.093 . S
C734 C101 1.188 . S
C746 C49 1.120 . S
C761 C108 1.088 . S
C773 C160 1.168 . S
C788 C173 1.188 . S
C800 C127 1.128 . S
C815 C140 1.095 . S
C827 C186 1.187 . S
C842 C205 1.185 . S
C854 C153 1.138 . S
C869 C192 1.572 . S
C881 C10 1.562 1_556 S
C896 C199 1.542 . S
C908 C23 1.577 1_554 S
C923 C30 1.574 1_556 S
C935 C166 1.558 . S
C950 C179 1.569 . S
C962 C43 1.556 1_554 S
C977 C134 1.545 . S
C989 C56 1.560 . S
C1004 C147 1.544 . S
C1016 C69 1.571 . S
C1031 C82 1.576 . S
C1043 C114 1.554 . S
C1058 C121 1.572 . S
C1070 C95 1.552 . S
