# Generated by pormake.
# Topology qtz-e, (6)-cn, num edge types: 1
# Building blocks:
#     Node 0, Type 0, BuildingBlock: KUMBOL_clean_sbu_1, # of connection points: 6
#     Node 1, Type 0, BuildingBlock: KUMBOL_clean_sbu_1, # of connection points: 6
#     Node 2, Type 0, BuildingBlock: KUMBOL_clean_sbu_1, # of connection points: 6
#     Node 3, Type 0, BuildingBlock: KUMBOL_clean_sbu_1, # of connection points: 6
#     Node 4, Type 0, BuildingBlock: KUMBOL_clean_sbu_1, # of connection points: 6
#     Node 5, Type 0, BuildingBlock: KUMBOL_clean_sbu_1, # of connection points: 6
#     Edge 6, Type (0, 0), None
#     Edge 7, Type (0, 0), None
#     Edge 8, Type (0, 0), None
#     Edge 9, Type (0, 0), None
#     Edge 10, Type (0, 0), None
#     Edge 11, Type (0, 0), None
#     Edge 12, Type (0, 0), None
#     Edge 13, Type (0, 0), None
#     Edge 14, Type (0, 0), None
#     Edge 15, Type (0, 0), None
#     Edge 16, Type (0, 0), None
#     Edge 17, Type (0, 0), None
#     Edge 18, Type (0, 0), None
#     Edge 19, Type (0, 0), None
#     Edge 20, Type (0, 0), None
#     Edge 21, Type (0, 0), None
#     Edge 22, Type (0, 0), None
#     Edge 23, Type (0, 0), None
# Relax obj value: 0.166
# Max RMSD: 0.231
# Mean RMSD: 0.231
data_MOF--net-qtz-e--node1-KUMBOL_clean_sbu_1--edge1-none
_symmetry_space_group_name_H-M    P1
_symmetry_Int_Tables_number       1
_symmetry_cell_setting            triclinic
loop_
_symmetry_equiv_pos_as_xyz
'x, y, z'
_cell_length_a     14.112649
_cell_length_b     13.704269
_cell_length_c     29.972255
_cell_angle_alpha  89.862266
_cell_angle_beta   91.213219
_cell_angle_gamma 118.50999
loop_
_atom_site_label
_atom_site_type_symbol
_atom_site_fract_x
_atom_site_fract_y
_atom_site_fract_z
_atom_type_partial_charge
C0 C 0.50111 0.80644 0.04262 0.0
C1 C 0.52959 0.89708 0.9723 0.0
C2 C 0.46482 0.81226 0.00099 0.0
C3 C 0.62288 0.98838 0.98976 0.0
C4 C 0.59309 0.89648 0.06083 0.0
C5 C 0.65254 0.98994 0.03448 0.0
N6 N 0.44976 0.70941 0.06434 0.0
C7 C 0.48781 0.69463 0.1043 0.0
C8 C 0.62463 0.88522 0.10374 0.0
C9 C 0.57245 0.78486 0.12525 0.0
Gd10 Gd 0.12971 0.23184 0.98557 0.0
Gd11 Gd 0.28281 0.5837 0.03596 0.0
N12 N 0.3667 0.73265 0.98806 0.0
C13 C 0.49812 0.88501 0.92712 0.0
C14 C 0.3275 0.73456 0.94666 0.0
C15 C 0.39457 0.80593 0.91449 0.0
H16 H 0.24509 0.68321 0.9392 0.0
H17 H 0.36554 0.80581 0.88096 0.0
H18 H 0.21129 -0.0024 0.06985 0.0
H19 H 0.44824 0.61707 0.1218 0.0
H20 H 0.12009 0.79737 0.0939 0.0
H21 H 0.54788 0.94241 0.90231 0.0
H22 H 0.67387 0.057 0.96908 0.0
H23 H 0.89646 0.14668 0.90872 0.0
H24 H 0.69375 0.94941 0.11992 0.0
H25 H 0.59827 0.77731 0.15785 0.0
H26 H 0.74381 0.74689 0.0667 0.0
H27 H 0.72558 0.0598 0.0466 0.0
H28 H 0.63857 0.82138 0.9307 0.0
H29 H 0.71508 -0.00119 0.88775 0.0
N30 N 0.93071 0.03891 0.94858 0.0
C31 C 0.89451 0.92273 0.96615 0.0
C32 C 0.86672 0.06403 0.92203 0.0
C33 C 0.72054 0.88515 0.93651 0.0
C34 C 0.76295 0.98301 0.91229 0.0
C35 C 0.78297 0.86887 0.96937 0.0
H36 H 0.65315 0.77768 0.01189 0.0
N37 N 0.07667 0.96702 0.02838 0.0
C38 C 0.97109 0.88724 0.00925 0.0
C39 C 0.97007 0.77556 0.06881 0.0
C40 C 0.91079 0.81534 0.04203 0.0
C41 C 0.13095 0.93962 0.05911 0.0
C42 C 0.07934 0.83487 0.07573 0.0
O43 O 0.26368 0.49394 0.96733 0.0
O44 O 0.09399 0.3511 0.95066 0.0
O45 O 0.27237 0.29735 0.93523 0.0
O46 O 0.10459 0.22436 0.91623 0.0
O47 O 0.14227 0.56123 -0.00492 0.0
O48 O 0.03082 0.36362 0.0003 0.0
O49 O 0.1931 0.35578 0.0518 0.0
O50 O 0.26965 0.49004 0.09936 0.0
O51 O 0.16524 0.54267 0.0904 0.0
O52 O 0.25211 0.70875 0.06489 0.0
O53 O 0.3434 0.36369 0.99247 0.0
O54 O 0.42244 0.54684 0.02472 0.0
C55 C 0.18116 0.4416 0.93877 0.0
C56 C 0.04525 0.47878 -0.00215 0.0
C57 C 0.20939 0.22295 0.85517 0.0
C58 C 0.28495 0.23008 0.77883 0.0
C59 C 0.09342 0.15248 0.79035 0.0
C60 C 0.10684 0.1628 0.83506 0.0
C61 C 0.18054 0.18897 0.76387 0.0
C62 C 0.30259 0.25389 0.82667 0.0
C63 C 0.20193 0.26054 0.90226 0.0
C64 C 0.79697 0.78835 0.04159 0.0
C65 C 0.73864 0.81167 0.00807 0.0
H66 H 0.94737 0.69121 0.07513 0.0
C67 C 0.20947 0.38521 0.0963 0.0
C68 C 0.43541 0.46867 0.00378 0.0
C69 C 0.26114 0.68978 0.14452 0.0
C70 C 0.29246 0.69329 0.2266 0.0
C71 C 0.42336 0.8327 0.18109 0.0
C72 C 0.35959 0.7868 0.14341 0.0
C73 C 0.39241 0.78552 0.2218 0.0
C74 C 0.22621 0.64047 0.18755 0.0
C75 C 0.20424 0.64775 0.09972 0.0
H76 H 0.01385 0.1092 0.77568 0.0
H77 H 0.03312 0.13025 0.85313 0.0
H78 H 0.16426 0.16984 0.73046 0.0
H79 H 0.3836 0.2968 0.84075 0.0
H80 H 0.49707 0.90714 0.17875 0.0
H81 H 0.39103 0.82761 0.11245 0.0
H82 H 0.44622 0.82441 0.25 0.0
H83 H 0.149 0.56695 0.19084 0.0
C84 C 0.67156 0.53752 0.38601 0.0
C85 C 0.56547 0.57394 0.33173 0.0
C86 C 0.60394 0.50402 0.34924 0.0
C87 C 0.58309 0.66931 0.35553 0.0
C88 C 0.69112 0.63377 0.41028 0.0
C89 C 0.64311 0.69754 0.39572 0.0
N90 N 0.71927 0.47623 0.39802 0.0
C91 C 0.78758 0.5055 0.43364 0.0
C92 C 0.76435 0.66663 0.44636 0.0
C93 C 0.81488 0.60347 0.45724 0.0
Gd94 Gd 0.81489 0.14205 0.30781 0.0
Gd95 Gd 0.6557 0.30283 0.36492 0.0
N96 N 0.58395 0.4082 0.3283 0.0
C97 C 0.5198 0.55171 0.28884 0.0
C98 C 0.53752 0.38627 0.28651 0.0
C99 C 0.5151 0.46346 0.26476 0.0
H100 H 0.52454 0.31209 0.26907 0.0
H101 H 0.48923 0.45267 0.2301 0.0
H102 H 0.0365 0.22372 0.37406 0.0
H103 H 0.81505 0.44845 0.44418 0.0
H104 H 0.13283 0.12646 0.40944 0.0
H105 H 0.49049 0.60393 0.27352 0.0
H106 H 0.55524 0.7248 0.34198 0.0
H107 H 0.63626 0.93448 0.24262 0.0
H108 H 0.78466 0.74168 0.46501 0.0
H109 H 0.87353 0.62952 0.48388 0.0
H110 H 0.93231 0.75766 0.38345 0.0
H111 H 0.6586 0.77295 0.41328 0.0
H112 H 0.70842 0.66748 0.25378 0.0
H113 H 0.59275 0.74233 0.22404 0.0
N114 N 0.758 0.95645 0.29002 0.0
C115 C 0.79701 0.90256 0.31622 0.0
C116 C 0.68127 0.89901 0.25816 0.0
C117 C 0.718 0.74615 0.26588 0.0
C118 C 0.65818 0.79175 0.24658 0.0
C119 C 0.78015 0.79618 0.30379 0.0
H120 H 0.81309 0.66122 0.31994 0.0
N121 N 0.90173 0.07029 0.35572 0.0
C122 C 0.8648 0.95834 0.35204 0.0
C123 C 0.00247 0.96957 0.40367 0.0
C124 C 0.9139 0.90537 0.37673 0.0
C125 C -0.00222 0.13449 0.3772 0.0
C126 C 0.05077 0.08329 0.3994 0.0
O127 O 0.69815 0.35391 0.29008 0.0
O128 O 0.7178 0.21829 0.30335 0.0
O129 O 0.94996 0.27216 0.26907 0.0
O130 O 0.84443 0.1189 0.23791 0.0
O131 O 0.52867 0.12598 0.33643 0.0
O132 O 0.62174 0.03209 0.31079 0.0
O133 O 0.7382 0.06676 0.37293 0.0
O134 O 0.75292 0.226 0.39877 0.0
O135 O 0.64419 0.25796 0.43544 0.0
O136 O 0.51675 0.27901 0.40402 0.0
O137 O 0.92813 0.32336 0.3386 0.0
O138 O 0.83458 0.42529 0.35159 0.0
C139 C 0.72458 0.28602 0.27244 0.0
C140 C 0.52896 0.03302 0.32172 0.0
C141 C 0.0146 0.22959 0.19954 0.0
C142 C 0.16202 0.32059 0.14147 0.0
C143 C 0.12235 0.1465 0.17665 0.0
C144 C 0.03215 0.13826 0.19683 0.0
C145 C 0.19445 0.24412 0.15545 0.0
C146 C 0.07443 0.31913 0.16779 0.0
C147 C 0.92506 0.2178 0.23127 0.0
C148 C 0.8921 0.79725 0.36586 0.0
C149 C 0.82598 0.74311 0.32917 0.0
H150 H 0.04414 0.93308 0.42221 0.0
C151 C 0.71911 0.11835 0.40536 0.0
C152 C 0.92457 0.42092 0.34243 0.0
C153 C 0.5562 0.3264 0.48307 0.0
C154 C 0.56743 0.35839 0.56516 0.0
C155 C 0.58147 0.50067 0.51403 0.0
C156 C 0.55616 0.42749 0.47813 0.0
C157 C 0.58186 0.46458 0.55722 0.0
C158 C 0.56367 0.29214 0.5275 0.0
C159 C 0.55577 0.2629 0.44189 0.0
H160 H 0.13411 0.0749 0.1779 0.0
H161 H 0.97685 0.05965 0.21125 0.0
H162 H 0.27142 0.25522 0.14589 0.0
H163 H 0.04904 0.38107 0.16177 0.0
H164 H 0.59276 0.58362 0.5088 0.0
H165 H 0.538 0.4507 0.44623 0.0
H166 H 0.58949 0.51898 0.58455 0.0
H167 H 0.56389 0.214 0.53268 0.0
C168 C 0.2095 0.77479 0.73964 0.0
C169 C 0.04774 0.68597 0.69452 0.0
C170 C 0.15493 0.71108 0.70323 0.0
C171 C -0.01123 0.69579 0.72914 0.0
C172 C 0.15434 0.79714 0.7726 0.0
C173 C 0.04139 0.74308 0.76992 0.0
N174 N 0.31685 0.81336 0.74326 0.0
C175 C 0.37834 0.89306 0.7741 0.0
C176 C 0.21502 0.87596 0.80565 0.0
C177 C 0.32809 0.92879 0.80495 0.0
Gd178 Gd 0.65335 0.8506 0.63423 0.0
Gd179 Gd 0.37165 0.69808 0.70918 0.0
N180 N 0.20793 0.67772 0.67559 0.0
C181 C 0.00326 0.64855 0.65214 0.0
C182 C 0.16431 0.63969 0.6336 0.0
C183 C 0.06481 0.63096 0.62065 0.0
H184 H 0.2 0.61082 0.60936 0.0
H185 H 0.03137 0.59933 0.58774 0.0
H186 H 0.78229 0.13119 0.72402 0.0
H187 H 0.4644 0.92347 0.77669 0.0
H188 H 0.96521 0.24901 0.75408 0.0
H189 H 0.92103 0.62947 0.6441 0.0
H190 H 0.90441 0.67208 0.72389 0.0
H191 H 0.74837 0.65797 0.57022 0.0
H192 H 0.17514 0.89998 0.82986 0.0
H193 H 0.37609 0.99174 0.82945 0.0
H194 H 0.22271 0.2478 0.64691 0.0
H195 H -0.00391 0.754 0.79629 0.0
H196 H 0.0928 0.81455 0.56547 0.0
H197 H 0.91564 0.65715 0.55328 0.0
N198 N 0.82103 0.81939 0.59666 0.0
C199 C 0.92164 0.91284 0.60746 0.0
C200 C 0.82253 0.73162 0.5766 0.0
C201 C 0.02444 0.82509 0.57228 0.0
C202 C 0.92045 0.73339 0.56539 0.0
C203 C 0.03772 0.92238 0.5919 0.0
H204 H 0.22039 0.01483 0.60655 0.0
N205 N 0.83944 0.06943 0.67291 0.0
C206 C 0.93618 0.07054 0.6569 0.0
C207 C 0.05288 0.24557 0.69786 0.0
C208 C 0.05471 0.16841 0.66865 0.0
C209 C 0.85169 0.13992 0.70633 0.0
C210 C 0.9567 0.21741 0.7211 0.0
O211 O 0.35622 0.63449 0.64016 0.0
O212 O 0.47999 0.80031 0.61668 0.0
O213 O 0.58647 0.90344 0.57523 0.0
O214 O 0.65438 0.79506 0.56531 0.0
O215 O 0.40515 0.57105 0.67414 0.0
O216 O 0.5862 0.65836 0.65102 0.0
O217 O 0.62626 0.7396 0.70043 0.0
O218 O 0.53765 0.81088 0.73524 0.0
O219 O 0.25981 0.5549 0.7466 0.0
O220 O 0.41261 0.66062 0.77609 0.0
O221 O 0.58532 0.96589 0.6654 0.0
O222 O 0.39889 0.86051 0.67994 0.0
C223 C 0.40582 0.69929 0.60692 0.0
C224 C 0.49038 0.56691 0.65878 0.0
C225 C 0.68883 0.9313 0.50769 0.0
C226 C 0.73814 0.07749 0.4497 0.0
C227 C 0.86802 0.0242 0.47804 0.0
C228 C 0.78943 0.9373 0.50129 0.0
C229 C 0.84392 0.09913 0.45606 0.0
C230 C 0.65843 0.99481 0.47775 0.0
C231 C 0.62264 0.86018 0.54585 0.0
C232 C 0.16464 0.16322 0.64926 0.0
C233 C 0.15769 0.03667 0.60908 0.0
H234 H 0.12827 0.31416 0.7096 0.0
C235 C 0.60355 0.7697 0.73895 0.0
C236 C 0.48481 0.95502 0.67149 0.0
C237 C 0.26779 0.57084 0.82496 0.0
C238 C 0.18212 0.48787 0.89476 0.0
C239 C 0.15017 0.62682 0.86126 0.0
C240 C 0.2253 0.64204 0.82971 0.0
C241 C 0.11726 0.53795 0.88968 0.0
C242 C 0.25554 0.49943 0.86078 0.0
C243 C 0.32021 0.57421 0.78221 0.0
H244 H 0.94922 0.03579 0.47928 0.0
H245 H 0.81301 0.88283 0.51825 0.0
H246 H 0.90568 0.16883 0.43931 0.0
H247 H 0.57579 0.97962 0.47605 0.0
H248 H 0.12212 0.68712 0.86517 0.0
H249 H 0.2555 0.71163 0.81017 0.0
H250 H 0.05781 0.52491 0.91395 0.0
H251 H 0.3036 0.45744 0.86249 0.0
C252 C 0.5154 0.15681 0.04666 0.0
C253 C 0.44829 0.06382 0.97654 0.0
C254 C 0.52772 0.1522 0.00165 0.0
C255 C 0.36443 0.97516 -0.00146 0.0
C256 C 0.44937 0.06075 0.069 0.0
C257 C 0.37167 0.96934 0.04493 0.0
N258 N 0.57614 0.25104 0.06967 0.0
C259 C 0.56997 0.25777 0.11451 0.0
C260 C 0.46788 0.06184 0.11465 0.0
C261 C 0.52123 0.16137 0.13799 0.0
Gd262 Gd 0.86047 0.75471 0.97408 0.0
Gd263 Gd 0.72102 0.37655 0.03496 0.0
N264 N 0.62079 0.22754 0.98343 0.0
C265 C 0.45862 0.06541 0.93044 0.0
C266 C 0.63849 0.2141 0.93924 0.0
C267 C 0.55482 0.13971 0.91174 0.0
H268 H 0.71623 0.25912 0.92413 0.0
H269 H 0.56655 0.13286 0.87684 0.0
H270 H 0.81371 0.93459 0.08752 0.0
H271 H 0.61591 0.33398 0.13297 0.0
H272 H 0.89514 0.10546 0.12844 0.0
H273 H 0.39801 0.00128 0.90961 0.0
H274 H 0.3 0.90731 0.98011 0.0
H275 H 0.09332 0.8761 0.89326 0.0
H276 H 0.43338 0.98969 0.13343 0.0
H277 H 0.52174 0.16381 0.17385 0.0
H278 H 0.24584 0.21529 0.08159 0.0
H279 H 0.31338 0.89796 0.06183 0.0
H280 H 0.35846 0.17322 0.94289 0.0
H281 H 0.27519 0.0361 0.88104 0.0
N282 N 0.06232 0.95998 0.9451 0.0
C283 C 0.09893 0.0693 0.96991 0.0
C284 C 0.12381 0.95044 0.91336 0.0
C285 C 0.2746 0.11114 0.9438 0.0
C286 C 0.22812 0.03466 0.90902 0.0
C287 C 0.21125 0.11881 0.97733 0.0
H288 H 0.34046 0.19309 0.0256 0.0
N289 N 0.91458 0.00243 0.0315 0.0
C290 C 0.02154 0.08984 0.01575 0.0
C291 C 0.02589 0.17359 0.08362 0.0
C292 C 0.08335 0.15007 0.05163 0.0
C293 C 0.87697 0.00454 0.07273 0.0
C294 C 0.92997 0.09463 0.09862 0.0
O295 O 0.76052 0.40952 0.96418 0.0
O296 O 0.80391 0.57849 0.97884 0.0
O297 O 0.73328 0.70295 0.91864 0.0
O298 O 0.89733 0.76978 0.90246 0.0
O299 O 0.89683 0.49845 0.03295 0.0
O300 O 0.97414 0.64087 0.98218 0.0
O301 O 0.7867 0.60939 0.03499 0.0
O302 O 0.69149 0.47742 0.08296 0.0
O303 O 0.82699 0.42498 0.09433 0.0
O304 O 0.77088 0.26306 0.06392 0.0
O305 O 0.65033 0.61121 0.98636 0.0
O306 O 0.58699 0.42664 0.01838 0.0
C307 C 0.77002 0.50012 0.94841 0.0
C308 C 0.96216 0.53561 -0.00023 0.0
C309 C 0.78299 0.7949 0.84623 0.0
C310 C 0.68369 0.81029 0.77808 0.0
C311 C 0.8263 0.97381 0.81431 0.0
C312 C 0.85271 0.90856 0.84241 0.0
C313 C 0.74159 0.92533 0.78355 0.0
C314 C 0.69944 0.74366 0.81194 0.0
C315 C 0.80031 0.73529 0.88624 0.0
C316 C 0.19581 0.1771 0.05383 0.0
C317 C 0.25549 0.16505 0.0191 0.0
H318 H 0.01962 0.24888 0.08046 0.0
C319 C 0.7596 0.57983 0.07924 0.0
C320 C 0.56557 0.5041 2e-05 0.0
C321 C 0.78259 0.27424 0.14473 0.0
C322 C 0.72275 0.25649 0.22367 0.0
C323 C 0.6854 0.09593 0.17875 0.0
C324 C 0.74229 0.16051 0.14404 0.0
C325 C 0.66669 0.14229 0.2158 0.0
C326 C 0.77913 0.32588 0.18654 0.0
C327 C 0.81669 0.32654 0.09952 0.0
H328 H 0.86942 0.06319 0.81711 0.0
H329 H 0.92166 0.94851 0.86482 0.0
H330 H 0.72252 0.97814 0.76286 0.0
H331 H 0.64708 0.65493 0.81195 0.0
H332 H 0.65889 0.00942 0.17772 0.0
H333 H 0.74858 0.12049 0.11471 0.0
H334 H 0.61081 0.08672 0.23919 0.0
H335 H 0.81796 0.41512 0.19003 0.0
C336 C 0.15842 0.45849 0.43076 0.0
C337 C 0.24406 0.3432 0.42276 0.0
C338 C 0.22803 0.4321 0.40854 0.0
C339 C 0.18952 0.28246 0.45958 0.0
C340 C 0.08687 0.38202 0.46077 0.0
C341 C 0.10045 0.29087 0.47276 0.0
N342 N 0.1512 0.55023 0.4187 0.0
C343 C 0.07157 0.56827 0.43565 0.0
C344 C 0.00533 0.40006 0.47766 0.0
C345 C 0.00554 0.49922 0.46869 0.0
Gd346 Gd 0.13601 0.80088 0.29457 0.0
Gd347 Gd 0.29164 0.66632 0.37124 0.0
N348 N 0.2763 0.48981 0.37189 0.0
C349 C 0.30741 0.31308 0.39747 0.0
C350 C 0.31657 0.44544 0.34227 0.0
C351 C 0.33725 0.35932 0.35563 0.0
H352 H 0.33001 0.47411 0.30864 0.0
H353 H 0.37304 0.32555 0.33382 0.0
H354 H 0.97807 0.91351 0.29236 0.0
H355 H 0.06204 0.6387 0.42536 0.0
H356 H 0.9842 0.09402 0.28662 0.0
H357 H 0.32187 0.24528 0.40736 0.0
H358 H 0.20269 0.21589 0.47252 0.0
H359 H 0.18137 0.79798 0.18522 0.0
H360 H 0.94249 0.33975 0.498 0.0
H361 H 0.95422 0.52138 0.48728 0.0
H362 H 0.31471 0.3307 0.24707 0.0
H363 H 0.04141 0.22303 0.49055 0.0
H364 H 0.32331 0.12214 0.13818 0.0
H365 H 0.25194 0.92425 0.12646 0.0
N366 N 0.2322 0.92055 0.23656 0.0
C367 C 0.27512 0.03172 0.24416 0.0
C368 C 0.22208 0.88295 0.19401 0.0
C369 C 0.30509 0.06746 0.16654 0.0
C370 C 0.2557 0.95507 0.15906 0.0
C371 C 0.32518 0.10807 0.20974 0.0
H372 H 0.4078 0.28034 0.1915 0.0
N373 N 0.14338 0.9762 0.29569 0.0
C374 C 0.23124 0.06226 0.27823 0.0
C375 C 0.1537 0.18308 0.29076 0.0
C376 C 0.24039 0.17031 0.27749 0.0
C377 C 0.05259 0.98528 0.29536 0.0
C378 C 0.05633 0.08801 0.29214 0.0
O379 O 0.33073 0.64517 0.29973 0.0
O380 O 0.21351 0.69729 0.29824 0.0
O381 O 0.97418 0.75106 0.27059 0.0
O382 O 0.06434 0.69215 0.23431 0.0
O383 O 0.41904 0.82977 0.33764 0.0
O384 O 0.32649 0.91845 0.30598 0.0
O385 O 0.14166 0.87726 0.36626 0.0
O386 O 0.22224 0.78216 0.3756 0.0
O387 O 0.37276 0.76409 0.4312 0.0
O388 O 0.41986 0.65084 0.4039 0.0
O389 O 0.02847 0.63332 0.33527 0.0
O390 O 0.12207 0.53188 0.34594 0.0
C391 C 0.26557 0.662 0.27356 0.0
C392 C 0.41868 0.92062 0.32099 0.0
C393 C 0.92377 0.71697 0.19263 0.0
C394 C 0.80076 0.64416 0.12471 0.0
C395 C 0.80863 0.79393 0.16907 0.0
C396 C 0.8966 0.80281 0.19389 0.0
C397 C 0.75144 0.70253 0.14104 0.0
C398 C 0.88086 0.64083 0.15514 0.0
C399 C 0.97578 0.69899 0.23475 0.0
C400 C 0.31275 0.25092 0.24946 0.0
C401 C 0.36132 0.22047 0.21659 0.0
H402 H 0.15379 0.26202 0.28775 0.0
C403 C 0.20066 0.85508 0.3951 0.0
C404 C 0.0299 0.53458 0.33884 0.0
C405 C 0.41109 0.65422 0.48189 0.0
C406 C 0.39397 0.64735 0.56266 0.0
C407 C 0.36719 0.48442 0.52163 0.0
C408 C 0.39751 0.54642 0.48299 0.0
C409 C 0.3665 0.53503 0.56123 0.0
C410 C 0.4072 0.70434 0.52214 0.0
C411 C 0.42567 0.71006 0.43848 0.0
H412 H 0.78149 0.85463 0.17379 0.0
H413 H 0.93367 0.8694 0.21804 0.0
H414 H 0.67391 0.68283 0.12751 0.0
H415 H 0.91023 0.58224 0.14971 0.0
H416 H 0.35245 0.39938 0.52165 0.0
H417 H 0.41247 0.51057 0.45393 0.0
H418 H 0.34762 0.48649 0.59105 0.0
H419 H 0.41997 0.78858 0.52201 0.0
C420 C 0.81737 0.35602 0.75162 0.0
C421 C 0.93742 0.41588 0.69108 0.0
C422 C 0.83494 0.37952 0.70782 0.0
C423 C 0.02529 0.45655 0.72094 0.0
C424 C 0.90232 0.37802 0.78182 0.0
C425 C 0.00825 0.44145 0.76713 0.0
N426 N 0.71421 0.29093 0.76191 0.0
C427 C 0.68894 0.22822 0.79946 0.0
C428 C 0.87781 0.32118 0.82243 0.0
C429 C 0.77091 0.24153 0.8302 0.0
Gd430 Gd 0.30725 0.17153 0.62829 0.0
Gd431 Gd 0.59022 0.31577 0.71627 0.0
N432 N 0.74638 0.33326 0.68149 0.0
C433 C 0.94625 0.39563 0.64613 0.0
C434 C 0.75318 0.29968 0.6393 0.0
C435 C 0.8531 0.3395 0.61979 0.0
H436 H 0.6826 0.2442 0.6201 0.0
H437 H 0.85713 0.3268 0.58467 0.0
H438 H 0.21206 0.00957 0.74475 0.0
H439 H 0.60561 0.17029 0.80566 0.0
H440 H 0.04381 0.93296 0.78744 0.0
H441 H 0.0239 0.41768 0.63231 0.0
H442 H 0.10299 0.48197 0.7075 0.0
H443 H 0.18959 0.34747 0.56921 0.0
H444 H 0.94111 0.33121 0.84602 0.0
H445 H 0.75221 0.19068 0.85962 0.0
H446 H 0.75763 0.89235 0.69075 0.0
H447 H 0.07461 0.45641 0.78922 0.0
H448 H 0.84172 0.17235 0.55707 0.0
H449 H 0.01916 0.3468 0.56174 0.0
N450 N 0.12593 0.17587 0.57734 0.0
C451 C 0.0283 0.09 0.59551 0.0
C452 C 0.11806 0.26919 0.5691 0.0
C453 C 0.91526 0.16847 0.56385 0.0
C454 C 0.01661 0.26753 0.56536 0.0
C455 C 0.90757 0.06954 0.57964 0.0
H456 H 0.74063 0.00837 0.60668 0.0
N457 N 0.13621 0.00296 0.68386 0.0
C458 C 0.03451 0.98482 0.66472 0.0
C459 C 0.93341 0.88614 0.73153 0.0
C460 C 0.91885 0.90285 0.687 0.0
C461 C 0.1356 0.97817 0.72723 0.0
C462 C 0.03806 0.93458 0.75144 0.0
O463 O 0.62155 0.38683 0.64508 0.0
O464 O 0.48314 0.22726 0.6268 0.0
O465 O 0.38815 0.12601 0.57792 0.0
O466 O 0.27415 0.1734 0.55276 0.0
O467 O 0.55022 0.44262 0.6847 0.0
O468 O 0.39221 0.36825 0.63851 0.0
O469 O 0.33689 0.26695 0.69929 0.0
O470 O 0.42584 0.20024 0.74125 0.0
O471 O 0.65035 0.47703 0.74775 0.0
O472 O 0.56148 0.33084 0.78706 0.0
O473 O 0.37068 0.04775 0.6562 0.0
O474 O 0.54188 0.14039 0.69475 0.0
C475 C 0.55892 0.32181 0.61278 0.0
C476 C 0.47836 0.45301 0.65902 0.0
C477 C 0.28571 0.01675 0.51481 0.0
C478 C 0.22718 0.89186 0.44536 0.0
C479 C 0.2503 0.82554 0.51863 0.0
C480 C 0.2828 0.92666 0.53842 0.0
C481 C 0.22728 0.8109 0.47369 0.0
C482 C 0.25683 -0.00112 0.46695 0.0
C483 C 0.33164 0.12506 0.54273 0.0
C484 C 0.80217 0.89049 0.66327 0.0
C485 C 0.79545 0.97447 0.60746 0.0
H486 H 0.86523 0.84066 0.75184 0.0
C487 C 0.36002 0.24196 0.73987 0.0
C488 C 0.46461 0.0541 0.67322 0.0
C489 C 0.70782 0.48412 0.82308 0.0
C490 C 0.77994 0.51582 0.90008 0.0
C491 C 0.89848 0.5664 0.83836 0.0
C492 C 0.81343 0.53593 0.80877 0.0
C493 C 0.88321 0.56107 0.88352 0.0
C494 C 0.68985 0.47162 0.8697 0.0
C495 C 0.62173 0.438 0.78793 0.0
H496 H 0.24503 0.75722 0.53856 0.0
H497 H 0.30455 0.93169 0.57348 0.0
H498 H 0.21547 0.73463 0.46135 0.0
H499 H 0.26158 0.06686 0.44705 0.0
H500 H 0.97593 0.59063 0.82543 0.0
H501 H 0.83035 0.54422 0.77394 0.0
H502 H 0.95241 0.59395 0.90539 0.0
H503 H 0.60844 0.42915 0.88201 0.0
loop_
_geom_bond_atom_site_label_1
_geom_bond_atom_site_label_2
_geom_bond_distance
_geom_bond_site_symmetry_2
_ccdc_geom_bond_type
C0 C2 1.422 . S
C0 C4 1.415 . S
C0 N6 1.369 . S
C1 C2 1.421 1_556 S
C1 C3 1.417 1_565 S
C1 C13 1.422 . S
C2 C0 1.422 . S
C2 C1 1.421 1_554 S
C2 N12 1.359 . S
C3 C1 1.417 1_545 S
C3 C5 1.329 1_545 S
C3 H22 0.930 . S
C4 C0 1.415 . S
C4 C5 1.437 1_554 S
C4 C8 1.413 . S
C5 C3 1.329 1_565 S
C5 C4 1.437 1_556 S
C5 H27 0.929 1_565 S
N6 C0 1.369 . S
N6 C7 1.338 . S
N6 Gd11 2.622 . S
C7 N6 1.338 . S
C7 C9 1.378 . S
C7 H19 0.929 . S
C8 C4 1.413 . S
C8 C9 1.348 . S
C8 H24 0.931 . S
C9 C7 1.378 . S
C9 C8 1.348 . S
C9 H25 0.930 . S
Gd10 N30 2.622 1_455 S
Gd10 N37 2.570 1_556 S
Gd10 O44 2.353 . S
Gd10 O45 2.468 . S
Gd10 O46 2.427 . S
Gd10 O48 2.388 . S
Gd10 O49 2.386 1_556 S
Gd10 O53 2.307 1_556 S
Gd10 C63 2.805 . S
Gd11 N6 2.622 . S
Gd11 N12 2.570 . S
Gd11 O43 2.386 1_554 S
Gd11 O47 2.307 . S
Gd11 O50 2.353 . S
Gd11 O51 2.468 . S
Gd11 O52 2.427 . S
Gd11 O54 2.388 . S
Gd11 C75 2.805 . S
N12 C2 1.359 . S
N12 Gd11 2.570 . S
N12 C14 1.343 . S
C13 C1 1.422 . S
C13 C15 1.321 . S
C13 H21 0.931 . S
C14 N12 1.343 . S
C14 C15 1.390 1_554 S
C14 H16 0.931 . S
C15 C13 1.321 . S
C15 C14 1.390 1_556 S
C15 H17 0.930 . S
H16 C14 0.931 . S
H17 C15 0.930 . S
H18 C41 0.931 . S
H19 C7 0.929 . S
H20 C42 0.930 . S
H21 C13 0.931 . S
H22 C3 0.930 . S
H23 C32 0.929 . S
H24 C8 0.931 . S
H25 C9 0.930 . S
H26 C64 0.930 . S
H27 C5 0.929 1_545 S
H28 C33 0.931 . S
H29 C34 0.930 . S
N30 Gd10 2.622 1_655 S
N30 C31 1.369 1_546 S
N30 C32 1.338 . S
C31 N30 1.369 1_564 S
C31 C35 1.415 . S
C31 C38 1.422 . S
C32 H23 0.929 . S
C32 N30 1.338 . S
C32 C34 1.378 . S
C33 H28 0.931 . S
C33 C34 1.348 1_564 S
C33 C35 1.413 . S
C34 H29 0.930 . S
C34 C32 1.378 . S
C34 C33 1.348 1_546 S
C35 C31 1.415 . S
C35 C33 1.413 . S
C35 C65 1.437 . S
H36 C65 0.929 . S
N37 Gd10 2.570 1_554 S
N37 C38 1.359 1_445 S
N37 C41 1.343 . S
C38 C31 1.422 . S
C38 N37 1.359 1_665 S
C38 C40 1.421 . S
C39 C40 1.422 1_455 S
C39 C42 1.321 . S
C39 H66 0.931 . S
C40 C38 1.421 . S
C40 C39 1.422 1_655 S
C40 C64 1.417 . S
C41 H18 0.931 . S
C41 N37 1.343 . S
C41 C42 1.390 1_545 S
C42 H20 0.930 . S
C42 C39 1.321 . S
C42 C41 1.390 1_565 S
O43 Gd11 2.386 1_556 S
O43 C55 1.265 . S
O44 Gd10 2.353 . S
O44 C55 1.242 . S
O45 Gd10 2.468 . S
O45 C63 1.263 . S
O46 Gd10 2.427 . S
O46 C63 1.252 . S
O47 Gd11 2.307 . S
O47 C56 1.261 . S
O48 Gd10 2.388 . S
O48 C56 1.252 1_556 S
O49 Gd10 2.386 1_554 S
O49 C67 1.265 . S
O50 Gd11 2.353 . S
O50 C67 1.242 . S
O51 Gd11 2.468 . S
O51 C75 1.263 . S
O52 Gd11 2.427 . S
O52 C75 1.252 . S
O53 Gd10 2.307 1_554 S
O53 C68 1.261 . S
O54 Gd11 2.388 . S
O54 C68 1.252 . S
C55 O43 1.265 . S
C55 O44 1.242 . S
C56 O47 1.261 . S
C56 O48 1.252 1_554 S
C57 C60 1.394 . S
C57 C62 1.370 . S
C57 C63 1.500 . S
C58 C61 1.383 . S
C58 C62 1.395 . S
C59 C60 1.396 . S
C59 C61 1.365 . S
C59 H76 0.929 1_455 S
C60 C57 1.394 . S
C60 C59 1.396 . S
C60 H77 0.930 1_455 S
C61 C58 1.383 . S
C61 C59 1.365 . S
C61 H78 0.931 1_545 S
C62 C57 1.370 . S
C62 C58 1.395 . S
C62 H79 0.930 . S
C63 Gd10 2.805 . S
C63 O45 1.263 . S
C63 O46 1.252 . S
C63 C57 1.500 . S
C64 H26 0.930 . S
C64 C40 1.417 . S
C64 C65 1.329 . S
C65 C35 1.437 . S
C65 H36 0.929 . S
C65 C64 1.329 . S
H66 C39 0.931 . S
C67 O49 1.265 . S
C67 O50 1.242 . S
C68 O53 1.261 . S
C68 O54 1.252 . S
C69 C72 1.394 . S
C69 C74 1.370 . S
C69 C75 1.500 . S
C70 C73 1.383 . S
C70 C74 1.395 . S
C71 C72 1.396 . S
C71 C73 1.365 . S
C71 H80 0.929 . S
C72 C69 1.394 . S
C72 C71 1.396 . S
C72 H81 0.930 . S
C73 C70 1.383 . S
C73 C71 1.365 . S
C73 H82 0.931 . S
C74 C69 1.370 . S
C74 C70 1.395 . S
C74 H83 0.930 . S
C75 Gd11 2.805 . S
C75 O51 1.263 . S
C75 O52 1.252 . S
C75 C69 1.500 . S
H76 C59 0.929 1_655 S
H77 C60 0.930 1_655 S
H78 C61 0.931 1_565 S
H79 C62 0.930 . S
H80 C71 0.929 . S
H81 C72 0.930 . S
H82 C73 0.931 . S
H83 C74 0.930 . S
C84 C86 1.422 . S
C84 C88 1.415 . S
C84 N90 1.369 . S
C85 C86 1.421 . S
C85 C87 1.417 . S
C85 C97 1.422 . S
C86 C84 1.422 . S
C86 C85 1.421 . S
C86 N96 1.359 . S
C87 C85 1.417 . S
C87 C89 1.329 . S
C87 H106 0.930 . S
C88 C84 1.415 . S
C88 C89 1.437 . S
C88 C92 1.413 . S
C89 C87 1.329 . S
C89 C88 1.437 . S
C89 H111 0.929 . S
N90 C84 1.369 . S
N90 C91 1.338 . S
N90 Gd95 2.622 . S
C91 N90 1.338 . S
C91 C93 1.378 . S
C91 H103 0.929 . S
C92 C88 1.413 . S
C92 C93 1.348 . S
C92 H108 0.931 . S
C93 C91 1.378 . S
C93 C92 1.348 . S
C93 H109 0.930 . S
Gd94 N114 2.622 1_545 S
Gd94 N121 2.570 1_655 S
Gd94 O128 2.353 . S
Gd94 O129 2.468 1_655 S
Gd94 O130 2.427 . S
Gd94 O132 2.388 . S
Gd94 O133 2.386 . S
Gd94 O137 2.307 . S
Gd94 C147 2.805 . S
Gd95 N90 2.622 . S
Gd95 N96 2.570 . S
Gd95 O127 2.386 . S
Gd95 O131 2.307 . S
Gd95 O134 2.353 . S
Gd95 O135 2.468 . S
Gd95 O136 2.427 . S
Gd95 O138 2.388 . S
Gd95 C159 2.805 . S
N96 C86 1.359 . S
N96 Gd95 2.570 . S
N96 C98 1.343 . S
C97 C85 1.422 . S
C97 C99 1.321 . S
C97 H105 0.931 . S
C98 N96 1.343 . S
C98 C99 1.390 . S
C98 H100 0.931 . S
C99 C97 1.321 . S
C99 C98 1.390 . S
C99 H101 0.930 . S
H100 C98 0.931 . S
H101 C99 0.930 . S
H102 C125 0.931 . S
H103 C91 0.929 . S
H104 C126 0.930 . S
H105 C97 0.931 . S
H106 C87 0.930 . S
H107 C116 0.929 . S
H108 C92 0.931 . S
H109 C93 0.930 . S
H110 C148 0.930 . S
H111 C89 0.929 . S
H112 C117 0.931 . S
H113 C118 0.930 . S
N114 Gd94 2.622 1_565 S
N114 C115 1.369 . S
N114 C116 1.338 . S
C115 N114 1.369 . S
C115 C119 1.415 . S
C115 C122 1.422 1_655 S
C116 H107 0.929 . S
C116 N114 1.338 . S
C116 C118 1.378 . S
C117 H112 0.931 . S
C117 C118 1.348 . S
C117 C119 1.413 . S
C118 H113 0.930 . S
C118 C116 1.378 . S
C118 C117 1.348 . S
C119 C115 1.415 . S
C119 C117 1.413 . S
C119 C149 1.437 . S
H120 C149 0.929 . S
N121 Gd94 2.570 1_455 S
N121 C122 1.359 1_545 S
N121 C125 1.343 . S
C122 C115 1.422 1_455 S
C122 N121 1.359 1_565 S
C122 C124 1.421 . S
C123 C124 1.422 1_545 S
C123 C126 1.321 . S
C123 H150 0.931 . S
C124 C122 1.421 . S
C124 C123 1.422 1_565 S
C124 C148 1.417 . S
C125 H102 0.931 . S
C125 N121 1.343 . S
C125 C126 1.390 . S
C126 H104 0.930 . S
C126 C123 1.321 . S
C126 C125 1.390 . S
O127 Gd95 2.386 . S
O127 C139 1.265 . S
O128 Gd94 2.353 . S
O128 C139 1.242 . S
O129 Gd94 2.468 1_455 S
O129 C147 1.263 1_455 S
O130 Gd94 2.427 . S
O130 C147 1.252 . S
O131 Gd95 2.307 . S
O131 C140 1.261 . S
O132 Gd94 2.388 . S
O132 C140 1.252 . S
O133 Gd94 2.386 . S
O133 C151 1.265 . S
O134 Gd95 2.353 . S
O134 C151 1.242 . S
O135 Gd95 2.468 . S
O135 C159 1.263 . S
O136 Gd95 2.427 . S
O136 C159 1.252 . S
O137 Gd94 2.307 . S
O137 C152 1.261 1_655 S
O138 Gd95 2.388 . S
O138 C152 1.252 1_655 S
C139 O127 1.265 . S
C139 O128 1.242 . S
C140 O131 1.261 . S
C140 O132 1.252 . S
C141 C144 1.394 1_455 S
C141 C146 1.370 . S
C141 C147 1.500 1_455 S
C142 C145 1.383 . S
C142 C146 1.395 . S
C143 C144 1.396 1_455 S
C143 C145 1.365 . S
C143 H160 0.929 1_445 S
C144 C141 1.394 1_655 S
C144 C143 1.396 1_655 S
C144 H161 0.930 1_545 S
C145 C142 1.383 . S
C145 C143 1.365 . S
C145 H162 0.931 . S
C146 C141 1.370 . S
C146 C142 1.395 . S
C146 H163 0.930 . S
C147 Gd94 2.805 . S
C147 O129 1.263 1_655 S
C147 O130 1.252 . S
C147 C141 1.500 1_655 S
C148 H110 0.930 . S
C148 C124 1.417 . S
C148 C149 1.329 1_455 S
C149 C119 1.437 . S
C149 H120 0.929 . S
C149 C148 1.329 1_655 S
H150 C123 0.931 . S
C151 O133 1.265 . S
C151 O134 1.242 . S
C152 O137 1.261 1_455 S
C152 O138 1.252 1_455 S
C153 C156 1.394 . S
C153 C158 1.370 . S
C153 C159 1.500 . S
C154 C157 1.383 . S
C154 C158 1.395 . S
C155 C156 1.396 . S
C155 C157 1.365 . S
C155 H164 0.929 . S
C156 C153 1.394 . S
C156 C155 1.396 . S
C156 H165 0.930 . S
C157 C154 1.383 . S
C157 C155 1.365 . S
C157 H166 0.931 . S
C158 C153 1.370 . S
C158 C154 1.395 . S
C158 H167 0.930 . S
C159 Gd95 2.805 . S
C159 O135 1.263 . S
C159 O136 1.252 . S
C159 C153 1.500 . S
H160 C143 0.929 1_665 S
H161 C144 0.930 1_565 S
H162 C145 0.931 . S
H163 C146 0.930 . S
H164 C155 0.929 . S
H165 C156 0.930 . S
H166 C157 0.931 . S
H167 C158 0.930 . S
C168 C170 1.422 . S
C168 C172 1.415 . S
C168 N174 1.369 . S
C169 C170 1.421 . S
C169 C171 1.417 1_455 S
C169 C181 1.422 . S
C170 C168 1.422 . S
C170 C169 1.421 . S
C170 N180 1.359 . S
C171 C169 1.417 1_655 S
C171 C173 1.329 1_655 S
C171 H190 0.930 . S
C172 C168 1.415 . S
C172 C173 1.437 . S
C172 C176 1.413 . S
C173 C171 1.329 1_455 S
C173 C172 1.437 . S
C173 H195 0.929 1_455 S
N174 C168 1.369 . S
N174 C175 1.338 . S
N174 Gd179 2.622 . S
C175 N174 1.338 . S
C175 C177 1.378 . S
C175 H187 0.929 . S
C176 C172 1.413 . S
C176 C177 1.348 . S
C176 H192 0.931 . S
C177 C175 1.378 . S
C177 C176 1.348 . S
C177 H193 0.930 . S
Gd178 N198 2.622 . S
Gd178 N205 2.570 1_565 S
Gd178 O212 2.353 . S
Gd178 O213 2.468 1_565 S
Gd178 O214 2.427 . S
Gd178 O216 2.388 . S
Gd178 O217 2.386 . S
Gd178 O221 2.307 . S
Gd178 C231 2.805 . S
Gd179 N174 2.622 . S
Gd179 N180 2.570 . S
Gd179 O211 2.386 . S
Gd179 O215 2.307 . S
Gd179 O218 2.353 . S
Gd179 O219 2.468 . S
Gd179 O220 2.427 . S
Gd179 O222 2.388 . S
Gd179 C243 2.805 . S
N180 C170 1.359 . S
N180 Gd179 2.570 . S
N180 C182 1.343 . S
C181 C169 1.422 . S
C181 C183 1.321 . S
C181 H189 0.931 . S
C182 N180 1.343 . S
C182 C183 1.390 . S
C182 H184 0.931 . S
C183 C181 1.321 . S
C183 C182 1.390 . S
C183 H185 0.930 . S
H184 C182 0.931 . S
H185 C183 0.930 . S
H186 C209 0.931 . S
H187 C175 0.929 . S
H188 C210 0.930 . S
H189 C181 0.931 . S
H190 C171 0.930 . S
H191 C200 0.929 . S
H192 C176 0.931 . S
H193 C177 0.930 . S
H194 C232 0.930 . S
H195 C173 0.929 1_655 S
H196 C201 0.931 . S
H197 C202 0.930 . S
N198 Gd178 2.622 . S
N198 C199 1.369 1_655 S
N198 C200 1.338 . S
C199 N198 1.369 1_455 S
C199 C203 1.415 . S
C199 C206 1.422 1_565 S
C200 H191 0.929 . S
C200 N198 1.338 . S
C200 C202 1.378 . S
C201 H196 0.931 . S
C201 C202 1.348 1_455 S
C201 C203 1.413 . S
C202 H197 0.930 . S
C202 C200 1.378 . S
C202 C201 1.348 1_655 S
C203 C199 1.415 . S
C203 C201 1.413 . S
C203 C233 1.437 . S
H204 C233 0.929 . S
N205 Gd178 2.570 1_545 S
N205 C206 1.359 1_655 S
N205 C209 1.343 . S
C206 C199 1.422 1_545 S
C206 N205 1.359 1_455 S
C206 C208 1.421 . S
C207 C208 1.422 . S
C207 C210 1.321 . S
C207 H234 0.931 . S
C208 C206 1.421 . S
C208 C207 1.422 . S
C208 C232 1.417 . S
C209 H186 0.931 . S
C209 N205 1.343 . S
C209 C210 1.390 1_655 S
C210 H188 0.930 . S
C210 C207 1.321 . S
C210 C209 1.390 1_455 S
O211 Gd179 2.386 . S
O211 C223 1.265 . S
O212 Gd178 2.353 . S
O212 C223 1.242 . S
O213 Gd178 2.468 1_545 S
O213 C231 1.263 1_545 S
O214 Gd178 2.427 . S
O214 C231 1.252 . S
O215 Gd179 2.307 . S
O215 C224 1.261 . S
O216 Gd178 2.388 . S
O216 C224 1.252 . S
O217 Gd178 2.386 . S
O217 C235 1.265 . S
O218 Gd179 2.353 . S
O218 C235 1.242 . S
O219 Gd179 2.468 . S
O219 C243 1.263 . S
O220 Gd179 2.427 . S
O220 C243 1.252 . S
O221 Gd178 2.307 . S
O221 C236 1.261 1_565 S
O222 Gd179 2.388 . S
O222 C236 1.252 1_565 S
C223 O211 1.265 . S
C223 O212 1.242 . S
C224 O215 1.261 . S
C224 O216 1.252 . S
C225 C228 1.394 1_545 S
C225 C230 1.370 . S
C225 C231 1.500 1_545 S
C226 C229 1.383 . S
C226 C230 1.395 . S
C227 C228 1.396 1_545 S
C227 C229 1.365 . S
C227 H244 0.929 1_545 S
C228 C225 1.394 1_565 S
C228 C227 1.396 1_565 S
C228 H245 0.930 . S
C229 C226 1.383 . S
C229 C227 1.365 . S
C229 H246 0.931 1_655 S
C230 C225 1.370 . S
C230 C226 1.395 . S
C230 H247 0.930 . S
C231 Gd178 2.805 . S
C231 O213 1.263 1_565 S
C231 O214 1.252 . S
C231 C225 1.500 1_565 S
C232 H194 0.930 . S
C232 C208 1.417 . S
C232 C233 1.329 1_545 S
C233 C203 1.437 . S
C233 H204 0.929 . S
C233 C232 1.329 1_565 S
H234 C207 0.931 . S
C235 O217 1.265 . S
C235 O218 1.242 . S
C236 O221 1.261 1_545 S
C236 O222 1.252 1_545 S
C237 C240 1.394 . S
C237 C242 1.370 . S
C237 C243 1.500 . S
C238 C241 1.383 . S
C238 C242 1.395 . S
C239 C240 1.396 . S
C239 C241 1.365 . S
C239 H248 0.929 . S
C240 C237 1.394 . S
C240 C239 1.396 . S
C240 H249 0.930 . S
C241 C238 1.383 . S
C241 C239 1.365 . S
C241 H250 0.931 . S
C242 C237 1.370 . S
C242 C238 1.395 . S
C242 H251 0.930 . S
C243 Gd179 2.805 . S
C243 O219 1.263 . S
C243 O220 1.252 . S
C243 C237 1.500 . S
H244 C227 0.929 1_565 S
H245 C228 0.930 . S
H246 C229 0.931 1_455 S
H247 C230 0.930 . S
H248 C239 0.929 . S
H249 C240 0.930 . S
H250 C241 0.931 . S
H251 C242 0.930 . S
C252 C254 1.422 . S
C252 C256 1.415 . S
C252 N258 1.369 . S
C253 C254 1.421 1_556 S
C253 C255 1.417 1_545 S
C253 C265 1.422 . S
C254 C252 1.422 . S
C254 C253 1.421 1_554 S
C254 N264 1.359 . S
C255 C253 1.417 1_565 S
C255 C257 1.329 1_565 S
C255 H274 0.930 . S
C256 C252 1.415 . S
C256 C257 1.437 1_554 S
C256 C260 1.413 . S
C257 C255 1.329 1_545 S
C257 C256 1.437 1_556 S
C257 H279 0.929 1_545 S
N258 C252 1.369 . S
N258 C259 1.338 . S
N258 Gd263 2.622 . S
C259 N258 1.338 . S
C259 C261 1.378 . S
C259 H271 0.929 . S
C260 C256 1.413 . S
C260 C261 1.348 . S
C260 H276 0.931 . S
C261 C259 1.378 . S
C261 C260 1.348 . S
C261 H277 0.930 . S
Gd262 N282 2.622 1_655 S
Gd262 N289 2.570 1_556 S
Gd262 O296 2.353 . S
Gd262 O297 2.468 . S
Gd262 O298 2.427 . S
Gd262 O300 2.388 . S
Gd262 O301 2.386 1_556 S
Gd262 O305 2.307 1_556 S
Gd262 C315 2.805 . S
Gd263 N258 2.622 . S
Gd263 N264 2.570 . S
Gd263 O295 2.386 1_554 S
Gd263 O299 2.307 . S
Gd263 O302 2.353 . S
Gd263 O303 2.468 . S
Gd263 O304 2.427 . S
Gd263 O306 2.388 . S
Gd263 C327 2.805 . S
N264 C254 1.359 . S
N264 Gd263 2.570 . S
N264 C266 1.343 . S
C265 C253 1.422 . S
C265 C267 1.321 . S
C265 H273 0.931 . S
C266 N264 1.343 . S
C266 C267 1.390 1_554 S
C266 H268 0.931 . S
C267 C265 1.321 . S
C267 C266 1.390 1_556 S
C267 H269 0.930 . S
H268 C266 0.931 . S
H269 C267 0.930 . S
H270 C293 0.931 . S
H271 C259 0.929 . S
H272 C294 0.930 . S
H273 C265 0.931 . S
H274 C255 0.930 . S
H275 C284 0.929 . S
H276 C260 0.931 . S
H277 C261 0.930 . S
H278 C316 0.930 . S
H279 C257 0.929 1_565 S
H280 C285 0.931 . S
H281 C286 0.930 . S
N282 Gd262 2.622 1_455 S
N282 C283 1.369 1_566 S
N282 C284 1.338 . S
C283 N282 1.369 1_544 S
C283 C287 1.415 . S
C283 C290 1.422 . S
C284 H275 0.929 . S
C284 N282 1.338 . S
C284 C286 1.378 . S
C285 H280 0.931 . S
C285 C286 1.348 1_544 S
C285 C287 1.413 . S
C286 H281 0.930 . S
C286 C284 1.378 . S
C286 C285 1.348 1_566 S
C287 C283 1.415 . S
C287 C285 1.413 . S
C287 C317 1.437 . S
H288 C317 0.929 . S
N289 Gd262 2.570 1_554 S
N289 C290 1.359 1_665 S
N289 C293 1.343 . S
C290 C283 1.422 . S
C290 N289 1.359 1_445 S
C290 C292 1.421 . S
C291 C292 1.422 1_655 S
C291 C294 1.321 . S
C291 H318 0.931 . S
C292 C290 1.421 . S
C292 C291 1.422 1_455 S
C292 C316 1.417 . S
C293 H270 0.931 . S
C293 N289 1.343 . S
C293 C294 1.390 1_565 S
C294 H272 0.930 . S
C294 C291 1.321 . S
C294 C293 1.390 1_545 S
O295 Gd263 2.386 1_556 S
O295 C307 1.265 . S
O296 Gd262 2.353 . S
O296 C307 1.242 . S
O297 Gd262 2.468 . S
O297 C315 1.263 . S
O298 Gd262 2.427 . S
O298 C315 1.252 . S
O299 Gd263 2.307 . S
O299 C308 1.261 . S
O300 Gd262 2.388 . S
O300 C308 1.252 1_556 S
O301 Gd262 2.386 1_554 S
O301 C319 1.265 . S
O302 Gd263 2.353 . S
O302 C319 1.242 . S
O303 Gd263 2.468 . S
O303 C327 1.263 . S
O304 Gd263 2.427 . S
O304 C327 1.252 . S
O305 Gd262 2.307 1_554 S
O305 C320 1.261 . S
O306 Gd263 2.388 . S
O306 C320 1.252 . S
C307 O295 1.265 . S
C307 O296 1.242 . S
C308 O299 1.261 . S
C308 O300 1.252 1_554 S
C309 C312 1.394 . S
C309 C314 1.370 . S
C309 C315 1.500 . S
C310 C313 1.383 . S
C310 C314 1.395 . S
C311 C312 1.396 . S
C311 C313 1.365 . S
C311 H328 0.929 1_655 S
C312 C309 1.394 . S
C312 C311 1.396 . S
C312 H329 0.930 1_655 S
C313 C310 1.383 . S
C313 C311 1.365 . S
C313 H330 0.931 1_565 S
C314 C309 1.370 . S
C314 C310 1.395 . S
C314 H331 0.930 . S
C315 Gd262 2.805 . S
C315 O297 1.263 . S
C315 O298 1.252 . S
C315 C309 1.500 . S
C316 H278 0.930 . S
C316 C292 1.417 . S
C316 C317 1.329 . S
C317 C287 1.437 . S
C317 H288 0.929 . S
C317 C316 1.329 . S
H318 C291 0.931 . S
C319 O301 1.265 . S
C319 O302 1.242 . S
C320 O305 1.261 . S
C320 O306 1.252 . S
C321 C324 1.394 . S
C321 C326 1.370 . S
C321 C327 1.500 . S
C322 C325 1.383 . S
C322 C326 1.395 . S
C323 C324 1.396 . S
C323 C325 1.365 . S
C323 H332 0.929 . S
C324 C321 1.394 . S
C324 C323 1.396 . S
C324 H333 0.930 . S
C325 C322 1.383 . S
C325 C323 1.365 . S
C325 H334 0.931 . S
C326 C321 1.370 . S
C326 C322 1.395 . S
C326 H335 0.930 . S
C327 Gd263 2.805 . S
C327 O303 1.263 . S
C327 O304 1.252 . S
C327 C321 1.500 . S
H328 C311 0.929 1_455 S
H329 C312 0.930 1_455 S
H330 C313 0.931 1_545 S
H331 C314 0.930 . S
H332 C323 0.929 . S
H333 C324 0.930 . S
H334 C325 0.931 . S
H335 C326 0.930 . S
C336 C338 1.422 . S
C336 C340 1.415 . S
C336 N342 1.369 . S
C337 C338 1.421 . S
C337 C339 1.417 . S
C337 C349 1.422 . S
C338 C336 1.422 . S
C338 C337 1.421 . S
C338 N348 1.359 . S
C339 C337 1.417 . S
C339 C341 1.329 . S
C339 H358 0.930 . S
C340 C336 1.415 . S
C340 C341 1.437 . S
C340 C344 1.413 . S
C341 C339 1.329 . S
C341 C340 1.437 . S
C341 H363 0.929 . S
N342 C336 1.369 . S
N342 C343 1.338 . S
N342 Gd347 2.622 . S
C343 N342 1.338 . S
C343 C345 1.378 . S
C343 H355 0.929 . S
C344 C340 1.413 . S
C344 C345 1.348 . S
C344 H360 0.931 . S
C345 C343 1.378 . S
C345 C344 1.348 . S
C345 H361 0.930 . S
Gd346 N366 2.622 1_565 S
Gd346 N373 2.570 1_455 S
Gd346 O380 2.353 . S
Gd346 O381 2.468 1_455 S
Gd346 O382 2.427 . S
Gd346 O384 2.388 . S
Gd346 O385 2.386 . S
Gd346 O389 2.307 . S
Gd346 C399 2.805 . S
Gd347 N342 2.622 . S
Gd347 N348 2.570 . S
Gd347 O379 2.386 . S
Gd347 O383 2.307 . S
Gd347 O386 2.353 . S
Gd347 O387 2.468 . S
Gd347 O388 2.427 . S
Gd347 O390 2.388 . S
Gd347 C411 2.805 . S
N348 C338 1.359 . S
N348 Gd347 2.570 . S
N348 C350 1.343 . S
C349 C337 1.422 . S
C349 C351 1.321 . S
C349 H357 0.931 . S
C350 N348 1.343 . S
C350 C351 1.390 . S
C350 H352 0.931 . S
C351 C349 1.321 . S
C351 C350 1.390 . S
C351 H353 0.930 . S
H352 C350 0.931 . S
H353 C351 0.930 . S
H354 C377 0.931 . S
H355 C343 0.929 . S
H356 C378 0.930 . S
H357 C349 0.931 . S
H358 C339 0.930 . S
H359 C368 0.929 . S
H360 C344 0.931 . S
H361 C345 0.930 . S
H362 C400 0.930 . S
H363 C341 0.929 . S
H364 C369 0.931 . S
H365 C370 0.930 . S
N366 Gd346 2.622 1_545 S
N366 C367 1.369 . S
N366 C368 1.338 . S
C367 N366 1.369 . S
C367 C371 1.415 . S
C367 C374 1.422 1_455 S
C368 H359 0.929 . S
C368 N366 1.338 . S
C368 C370 1.378 . S
C369 H364 0.931 . S
C369 C370 1.348 . S
C369 C371 1.413 . S
C370 H365 0.930 . S
C370 C368 1.378 . S
C370 C369 1.348 . S
C371 C367 1.415 . S
C371 C369 1.413 . S
C371 C401 1.437 . S
H372 C401 0.929 . S
N373 Gd346 2.570 1_655 S
N373 C374 1.359 1_565 S
N373 C377 1.343 . S
C374 C367 1.422 1_655 S
C374 N373 1.359 1_545 S
C374 C376 1.421 . S
C375 C376 1.422 1_565 S
C375 C378 1.321 . S
C375 H402 0.931 . S
C376 C374 1.421 . S
C376 C375 1.422 1_545 S
C376 C400 1.417 . S
C377 H354 0.931 . S
C377 N373 1.343 . S
C377 C378 1.390 . S
C378 H356 0.930 . S
C378 C375 1.321 . S
C378 C377 1.390 . S
O379 Gd347 2.386 . S
O379 C391 1.265 . S
O380 Gd346 2.353 . S
O380 C391 1.242 . S
O381 Gd346 2.468 1_655 S
O381 C399 1.263 1_655 S
O382 Gd346 2.427 . S
O382 C399 1.252 . S
O383 Gd347 2.307 . S
O383 C392 1.261 . S
O384 Gd346 2.388 . S
O384 C392 1.252 . S
O385 Gd346 2.386 . S
O385 C403 1.265 . S
O386 Gd347 2.353 . S
O386 C403 1.242 . S
O387 Gd347 2.468 . S
O387 C411 1.263 . S
O388 Gd347 2.427 . S
O388 C411 1.252 . S
O389 Gd346 2.307 . S
O389 C404 1.261 1_455 S
O390 Gd347 2.388 . S
O390 C404 1.252 1_455 S
C391 O379 1.265 . S
C391 O380 1.242 . S
C392 O383 1.261 . S
C392 O384 1.252 . S
C393 C396 1.394 1_655 S
C393 C398 1.370 . S
C393 C399 1.500 1_655 S
C394 C397 1.383 . S
C394 C398 1.395 . S
C395 C396 1.396 1_655 S
C395 C397 1.365 . S
C395 H412 0.929 1_665 S
C396 C393 1.394 1_455 S
C396 C395 1.396 1_455 S
C396 H413 0.930 1_565 S
C397 C394 1.383 . S
C397 C395 1.365 . S
C397 H414 0.931 . S
C398 C393 1.370 . S
C398 C394 1.395 . S
C398 H415 0.930 . S
C399 Gd346 2.805 . S
C399 O381 1.263 1_455 S
C399 O382 1.252 . S
C399 C393 1.500 1_455 S
C400 H362 0.930 . S
C400 C376 1.417 . S
C400 C401 1.329 1_655 S
C401 C371 1.437 . S
C401 H372 0.929 . S
C401 C400 1.329 1_455 S
H402 C375 0.931 . S
C403 O385 1.265 . S
C403 O386 1.242 . S
C404 O389 1.261 1_655 S
C404 O390 1.252 1_655 S
C405 C408 1.394 . S
C405 C410 1.370 . S
C405 C411 1.500 . S
C406 C409 1.383 . S
C406 C410 1.395 . S
C407 C408 1.396 . S
C407 C409 1.365 . S
C407 H416 0.929 . S
C408 C405 1.394 . S
C408 C407 1.396 . S
C408 H417 0.930 . S
C409 C406 1.383 . S
C409 C407 1.365 . S
C409 H418 0.931 . S
C410 C405 1.370 . S
C410 C406 1.395 . S
C410 H419 0.930 . S
C411 Gd347 2.805 . S
C411 O387 1.263 . S
C411 O388 1.252 . S
C411 C405 1.500 . S
H412 C395 0.929 1_445 S
H413 C396 0.930 1_545 S
H414 C397 0.931 . S
H415 C398 0.930 . S
H416 C407 0.929 . S
H417 C408 0.930 . S
H418 C409 0.931 . S
H419 C410 0.930 . S
C420 C422 1.422 . S
C420 C424 1.415 . S
C420 N426 1.369 . S
C421 C422 1.421 . S
C421 C423 1.417 1_655 S
C421 C433 1.422 . S
C422 C420 1.422 . S
C422 C421 1.421 . S
C422 N432 1.359 . S
C423 C421 1.417 1_455 S
C423 C425 1.329 1_455 S
C423 H442 0.930 . S
C424 C420 1.415 . S
C424 C425 1.437 . S
C424 C428 1.413 . S
C425 C423 1.329 1_655 S
C425 C424 1.437 . S
C425 H447 0.929 1_655 S
N426 C420 1.369 . S
N426 C427 1.338 . S
N426 Gd431 2.622 . S
C427 N426 1.338 . S
C427 C429 1.378 . S
C427 H439 0.929 . S
C428 C424 1.413 . S
C428 C429 1.348 . S
C428 H444 0.931 . S
C429 C427 1.378 . S
C429 C428 1.348 . S
C429 H445 0.930 . S
Gd430 N450 2.622 . S
Gd430 N457 2.570 1_545 S
Gd430 O464 2.353 . S
Gd430 O465 2.468 1_545 S
Gd430 O466 2.427 . S
Gd430 O468 2.388 . S
Gd430 O469 2.386 . S
Gd430 O473 2.307 . S
Gd430 C483 2.805 . S
Gd431 N426 2.622 . S
Gd431 N432 2.570 . S
Gd431 O463 2.386 . S
Gd431 O467 2.307 . S
Gd431 O470 2.353 . S
Gd431 O471 2.468 . S
Gd431 O472 2.427 . S
Gd431 O474 2.388 . S
Gd431 C495 2.805 . S
N432 C422 1.359 . S
N432 Gd431 2.570 . S
N432 C434 1.343 . S
C433 C421 1.422 . S
C433 C435 1.321 . S
C433 H441 0.931 . S
C434 N432 1.343 . S
C434 C435 1.390 . S
C434 H436 0.931 . S
C435 C433 1.321 . S
C435 C434 1.390 . S
C435 H437 0.930 . S
H436 C434 0.931 . S
H437 C435 0.930 . S
H438 C461 0.931 . S
H439 C427 0.929 . S
H440 C462 0.930 . S
H441 C433 0.931 . S
H442 C423 0.930 . S
H443 C452 0.929 . S
H444 C428 0.931 . S
H445 C429 0.930 . S
H446 C484 0.930 . S
H447 C425 0.929 1_455 S
H448 C453 0.931 . S
H449 C454 0.930 . S
N450 Gd430 2.622 . S
N450 C451 1.369 1_455 S
N450 C452 1.338 . S
C451 N450 1.369 1_655 S
C451 C455 1.415 . S
C451 C458 1.422 1_545 S
C452 H443 0.929 . S
C452 N450 1.338 . S
C452 C454 1.378 . S
C453 H448 0.931 . S
C453 C454 1.348 1_655 S
C453 C455 1.413 . S
C454 H449 0.930 . S
C454 C452 1.378 . S
C454 C453 1.348 1_455 S
C455 C451 1.415 . S
C455 C453 1.413 . S
C455 C485 1.437 . S
H456 C485 0.929 . S
N457 Gd430 2.570 1_565 S
N457 C458 1.359 1_455 S
N457 C461 1.343 . S
C458 C451 1.422 1_565 S
C458 N457 1.359 1_655 S
C458 C460 1.421 . S
C459 C460 1.422 . S
C459 C462 1.321 . S
C459 H486 0.931 . S
C460 C458 1.421 . S
C460 C459 1.422 . S
C460 C484 1.417 . S
C461 H438 0.931 . S
C461 N457 1.343 . S
C461 C462 1.390 1_455 S
C462 H440 0.930 . S
C462 C459 1.321 . S
C462 C461 1.390 1_655 S
O463 Gd431 2.386 . S
O463 C475 1.265 . S
O464 Gd430 2.353 . S
O464 C475 1.242 . S
O465 Gd430 2.468 1_565 S
O465 C483 1.263 1_565 S
O466 Gd430 2.427 . S
O466 C483 1.252 . S
O467 Gd431 2.307 . S
O467 C476 1.261 . S
O468 Gd430 2.388 . S
O468 C476 1.252 . S
O469 Gd430 2.386 . S
O469 C487 1.265 . S
O470 Gd431 2.353 . S
O470 C487 1.242 . S
O471 Gd431 2.468 . S
O471 C495 1.263 . S
O472 Gd431 2.427 . S
O472 C495 1.252 . S
O473 Gd430 2.307 . S
O473 C488 1.261 1_545 S
O474 Gd431 2.388 . S
O474 C488 1.252 1_545 S
C475 O463 1.265 . S
C475 O464 1.242 . S
C476 O467 1.261 . S
C476 O468 1.252 . S
C477 C480 1.394 1_565 S
C477 C482 1.370 . S
C477 C483 1.500 1_565 S
C478 C481 1.383 . S
C478 C482 1.395 . S
C479 C480 1.396 1_565 S
C479 C481 1.365 . S
C479 H496 0.929 1_565 S
C480 C477 1.394 1_545 S
C480 C479 1.396 1_545 S
C480 H497 0.930 . S
C481 C478 1.383 . S
C481 C479 1.365 . S
C481 H498 0.931 1_455 S
C482 C477 1.370 . S
C482 C478 1.395 . S
C482 H499 0.930 . S
C483 Gd430 2.805 . S
C483 O465 1.263 1_545 S
C483 O466 1.252 . S
C483 C477 1.500 1_545 S
C484 H446 0.930 . S
C484 C460 1.417 . S
C484 C485 1.329 1_565 S
C485 C455 1.437 . S
C485 H456 0.929 . S
C485 C484 1.329 1_545 S
H486 C459 0.931 . S
C487 O469 1.265 . S
C487 O470 1.242 . S
C488 O473 1.261 1_565 S
C488 O474 1.252 1_565 S
C489 C492 1.394 . S
C489 C494 1.370 . S
C489 C495 1.500 . S
C490 C493 1.383 . S
C490 C494 1.395 . S
C491 C492 1.396 . S
C491 C493 1.365 . S
C491 H500 0.929 . S
C492 C489 1.394 . S
C492 C491 1.396 . S
C492 H501 0.930 . S
C493 C490 1.383 . S
C493 C491 1.365 . S
C493 H502 0.931 . S
C494 C489 1.370 . S
C494 C490 1.395 . S
C494 H503 0.930 . S
C495 Gd431 2.805 . S
C495 O471 1.263 . S
C495 O472 1.252 . S
C495 C489 1.500 . S
H496 C479 0.929 1_545 S
H497 C480 0.930 . S
H498 C481 0.931 1_655 S
H499 C482 0.930 . S
H500 C491 0.929 . S
H501 C492 0.930 . S
H502 C493 0.931 . S
H503 C494 0.930 . S
C391 C70 1.475 . S
C475 C154 1.474 . S
C55 C238 1.474 . S
C139 C322 1.474 . S
C223 C406 1.474 . S
C307 C490 1.474 . S
C68 C320 3.160 . S
C404 C152 3.160 1_655 S
C488 C236 3.159 1_565 S
C224 C476 2.815 . S
C56 C308 2.817 1_455 S
C392 C140 2.817 1_565 S
C487 C58 1.731 . S
C142 C67 1.730 . S
C226 C151 1.730 . S
C235 C310 1.731 . S
C394 C319 1.730 . S
C478 C403 1.730 . S
