# Generated by pormake.
# Topology lcy-e, (6)-cn, num edge types: 1
# Building blocks:
#     Node 0, Type 0, BuildingBlock: NUHQIS_clean_sbu_0, # of connection points: 6
#     Node 1, Type 0, BuildingBlock: NUHQIS_clean_sbu_0, # of connection points: 6
#     Node 2, Type 0, BuildingBlock: NUHQIS_clean_sbu_0, # of connection points: 6
#     Node 3, Type 0, BuildingBlock: NUHQIS_clean_sbu_0, # of connection points: 6
#     Node 4, Type 0, BuildingBlock: NUHQIS_clean_sbu_0, # of connection points: 6
#     Node 5, Type 0, BuildingBlock: NUHQIS_clean_sbu_0, # of connection points: 6
#     Node 6, Type 0, BuildingBlock: NUHQIS_clean_sbu_0, # of connection points: 6
#     Node 7, Type 0, BuildingBlock: NUHQIS_clean_sbu_0, # of connection points: 6
#     Node 8, Type 0, BuildingBlock: NUHQIS_clean_sbu_0, # of connection points: 6
#     Node 9, Type 0, BuildingBlock: NUHQIS_clean_sbu_0, # of connection points: 6
#     Node 10, Type 0, BuildingBlock: NUHQIS_clean_sbu_0, # of connection points: 6
#     Node 11, Type 0, BuildingBlock: NUHQIS_clean_sbu_0, # of connection points: 6
#     Edge 12, Type (0, 0), BuildingBlock: UVAHIK_clean_linker_0, # of connection points: 2
#     Edge 13, Type (0, 0), BuildingBlock: UVAHIK_clean_linker_0, # of connection points: 2
#     Edge 14, Type (0, 0), BuildingBlock: UVAHIK_clean_linker_0, # of connection points: 2
#     Edge 15, Type (0, 0), BuildingBlock: UVAHIK_clean_linker_0, # of connection points: 2
#     Edge 16, Type (0, 0), BuildingBlock: UVAHIK_clean_linker_0, # of connection points: 2
#     Edge 17, Type (0, 0), BuildingBlock: UVAHIK_clean_linker_0, # of connection points: 2
#     Edge 18, Type (0, 0), BuildingBlock: UVAHIK_clean_linker_0, # of connection points: 2
#     Edge 19, Type (0, 0), BuildingBlock: UVAHIK_clean_linker_0, # of connection points: 2
#     Edge 20, Type (0, 0), BuildingBlock: UVAHIK_clean_linker_0, # of connection points: 2
#     Edge 21, Type (0, 0), BuildingBlock: UVAHIK_clean_linker_0, # of connection points: 2
#     Edge 22, Type (0, 0), BuildingBlock: UVAHIK_clean_linker_0, # of connection points: 2
#     Edge 23, Type (0, 0), BuildingBlock: UVAHIK_clean_linker_0, # of connection points: 2
#     Edge 24, Type (0, 0), BuildingBlock: UVAHIK_clean_linker_0, # of connection points: 2
#     Edge 25, Type (0, 0), BuildingBlock: UVAHIK_clean_linker_0, # of connection points: 2
#     Edge 26, Type (0, 0), BuildingBlock: UVAHIK_clean_linker_0, # of connection points: 2
#     Edge 27, Type (0, 0), BuildingBlock: UVAHIK_clean_linker_0, # of connection points: 2
#     Edge 28, Type (0, 0), BuildingBlock: UVAHIK_clean_linker_0, # of connection points: 2
#     Edge 29, Type (0, 0), BuildingBlock: UVAHIK_clean_linker_0, # of connection points: 2
#     Edge 30, Type (0, 0), BuildingBlock: UVAHIK_clean_linker_0, # of connection points: 2
#     Edge 31, Type (0, 0), BuildingBlock: UVAHIK_clean_linker_0, # of connection points: 2
#     Edge 32, Type (0, 0), BuildingBlock: UVAHIK_clean_linker_0, # of connection points: 2
#     Edge 33, Type (0, 0), BuildingBlock: UVAHIK_clean_linker_0, # of connection points: 2
#     Edge 34, Type (0, 0), BuildingBlock: UVAHIK_clean_linker_0, # of connection points: 2
#     Edge 35, Type (0, 0), BuildingBlock: UVAHIK_clean_linker_0, # of connection points: 2
#     Edge 36, Type (0, 0), BuildingBlock: UVAHIK_clean_linker_0, # of connection points: 2
#     Edge 37, Type (0, 0), BuildingBlock: UVAHIK_clean_linker_0, # of connection points: 2
#     Edge 38, Type (0, 0), BuildingBlock: UVAHIK_clean_linker_0, # of connection points: 2
#     Edge 39, Type (0, 0), BuildingBlock: UVAHIK_clean_linker_0, # of connection points: 2
#     Edge 40, Type (0, 0), BuildingBlock: UVAHIK_clean_linker_0, # of connection points: 2
#     Edge 41, Type (0, 0), BuildingBlock: UVAHIK_clean_linker_0, # of connection points: 2
#     Edge 42, Type (0, 0), BuildingBlock: UVAHIK_clean_linker_0, # of connection points: 2
#     Edge 43, Type (0, 0), BuildingBlock: UVAHIK_clean_linker_0, # of connection points: 2
#     Edge 44, Type (0, 0), BuildingBlock: UVAHIK_clean_linker_0, # of connection points: 2
#     Edge 45, Type (0, 0), BuildingBlock: UVAHIK_clean_linker_0, # of connection points: 2
#     Edge 46, Type (0, 0), BuildingBlock: UVAHIK_clean_linker_0, # of connection points: 2
#     Edge 47, Type (0, 0), BuildingBlock: UVAHIK_clean_linker_0, # of connection points: 2
# Relax obj value: 0.179
# Max RMSD: 0.278
# Mean RMSD: 0.263
data_MOF--net-lcy-e--node1-NUHQIS_clean_sbu_0--edge1-UVAHIK_clean_linker_0
_symmetry_space_group_name_H-M    P1
_symmetry_Int_Tables_number       1
_symmetry_cell_setting            triclinic
loop_
_symmetry_equiv_pos_as_xyz
'x, y, z'
_cell_length_a     53.911561
_cell_length_b     57.885872
_cell_length_c     53.784522
_cell_angle_alpha  89.828272
_cell_angle_beta   89.762607
_cell_angle_gamma 88.947538
loop_
_atom_site_label
_atom_site_type_symbol
_atom_site_fract_x
_atom_site_fract_y
_atom_site_fract_z
_atom_type_partial_charge
Tb0 Tb 0.13178 0.2558 0.49777 0.0
Eu1 Eu 0.11209 0.29303 0.45442 0.0
C2 C 0.15758 0.25883 0.44634 0.0
C3 C 0.15049 0.30736 0.49713 0.0
C4 C 0.14116 0.20169 0.5351 0.0
C5 C 0.11951 0.16603 0.52663 0.0
C6 C 0.12556 0.18868 0.51992 0.0
C7 C 0.15089 0.19169 0.55677 0.0
C8 C 0.14485 0.16913 0.56351 0.0
C9 C 0.1289 0.15602 0.54867 0.0
C10 C 0.14569 0.22625 0.5299 0.0
O11 O 0.10828 0.28114 0.51617 0.0
O12 O 0.08247 0.29339 0.48456 0.0
O13 O 0.09506 0.25895 0.44578 0.0
O14 O 0.09793 0.24055 0.48364 0.0
C15 C 0.08723 0.29024 0.50838 0.0
O16 O 0.10246 0.3279 0.44112 0.0
O17 O 0.10112 0.29893 0.41593 0.0
O18 O 0.15088 0.28068 0.44484 0.0
O19 O 0.14618 0.24498 0.46177 0.0
O20 O 0.15653 0.28547 0.50129 0.0
O21 O 0.13214 0.31361 0.48256 0.0
C22 C 0.08874 0.24236 0.4611 0.0
O23 O 0.15842 0.23117 0.50997 0.0
O24 O 0.12644 0.23991 0.53237 0.0
C25 C 0.11263 0.33518 0.39863 0.0
C26 C 0.13437 0.36205 0.36035 0.0
C27 C 0.12136 0.37268 0.38014 0.0
C28 C 0.11056 0.3594 0.39896 0.0
C29 C 0.12588 0.32452 0.37906 0.0
C30 C 0.13657 0.33778 0.36017 0.0
C31 C 0.10004 0.32135 0.41809 0.0
H32 H 0.10739 0.15642 0.51462 0.0
H33 H 0.1177 0.1962 0.50318 0.0
H34 H 0.16268 0.20156 0.56888 0.0
H35 H 0.15209 0.16225 0.58081 0.0
H36 H 0.11957 0.39131 0.38117 0.0
H37 H 0.1004 0.36809 0.41375 0.0
H38 H 0.12777 0.30588 0.37809 0.0
H39 H 0.14609 0.32891 0.34511 0.0
Tb40 Tb 0.01643 0.90976 0.68961 0.0
Eu41 Eu 0.06681 0.92723 0.72968 0.0
C42 C 0.06574 0.87988 0.69177 0.0
C43 C 0.02445 0.8879 0.74445 0.0
C44 C 0.96486 0.91729 0.64361 0.0
C45 C 0.93783 0.90924 0.60878 0.0
C46 C 0.94898 0.90241 0.6311 0.0
C47 C 0.96981 0.93904 0.6332 0.0
C48 C 0.95852 0.94595 0.61092 0.0
C49 C 0.94216 0.93122 0.59855 0.0
C50 C 0.97527 0.91001 0.6678 0.0
O51 O 0.02599 0.93291 0.71696 0.0
O52 O 0.03809 0.95312 0.74601 0.0
O53 O 0.06568 0.9491 0.69465 0.0
O54 O 0.03824 0.93273 0.66611 0.0
C55 C 0.01889 0.94781 0.73327 0.0
O56 O 0.08583 0.93542 0.76408 0.0
O57 O 0.1068 0.93262 0.72965 0.0
O58 O 0.07497 0.89275 0.70993 0.0
O59 O 0.0446 0.88438 0.68012 0.0
O60 O 0.01096 0.89 0.72391 0.0
O61 O 0.04521 0.8991 0.74884 0.0
C62 C 0.05541 0.94774 0.67239 0.0
O63 O 0.9908 0.89233 0.66749 0.0
O64 O 0.98238 0.92642 0.68274 0.0
C65 C 0.1277 0.9234 0.767 0.0
C66 C 0.16554 0.90158 0.79496 0.0
C67 C 0.16756 0.92481 0.78758 0.0
C68 C 0.14879 0.9356 0.77376 0.0
C69 C 0.12572 0.90008 0.77377 0.0
C70 C 0.14454 0.88923 0.78765 0.0
C71 C 0.10772 0.93562 0.75367 0.0
H72 H 0.92577 0.89723 0.59955 0.0
H73 H 0.945 0.88553 0.63873 0.0
H74 H 0.98208 0.95085 0.64245 0.0
H75 H 0.96214 0.96306 0.60375 0.0
H76 H 0.18368 0.93469 0.7925 0.0
H77 H 0.15063 0.95359 0.76857 0.0
H78 H 0.1095 0.89042 0.76865 0.0
H79 H 0.14235 0.87137 0.79318 0.0
Tb80 Tb 0.38744 0.80742 0.99849 0.0
Eu81 Eu 0.40744 0.7711 0.95508 0.0
C82 C 0.36251 0.8059 0.94607 0.0
C83 C 0.36176 0.75831 0.99234 0.0
C84 C 0.38005 0.86171 0.035 0.0
C85 C 0.37245 0.89653 0.05912 0.0
C86 C 0.36614 0.87398 0.0528 0.0
C87 C 0.39985 0.87253 0.0229 0.0
C88 C 0.40627 0.89504 0.02931 0.0
C89 C 0.39292 0.90715 0.04782 0.0
C90 C 0.37507 0.83715 0.03077 0.0
O91 O 0.40362 0.77752 0.01673 0.0
O92 O 0.4334 0.76812 0.98797 0.0
O93 O 0.42309 0.80589 0.94673 0.0
O94 O 0.42359 0.81975 0.98636 0.0
C95 C 0.42486 0.76763 0.01087 0.0
O96 O 0.41851 0.73668 0.94188 0.0
O97 O 0.42147 0.76628 0.91743 0.0
O98 O 0.37013 0.78447 0.94307 0.0
O99 O 0.37241 0.81917 0.96299 0.0
O100 O 0.36127 0.77913 1.00235 0.0
O101 O 0.37783 0.75172 0.97522 0.0
C102 C 0.43152 0.82025 0.96327 0.0
O103 O 0.3614 0.83217 0.01162 0.0
O104 O 0.39431 0.82331 0.03259 0.0
C105 C 0.40927 0.73144 0.89947 0.0
C106 C 0.38472 0.70851 0.86081 0.0
C107 C 0.40876 0.70146 0.86804 0.0
C108 C 0.42096 0.7129 0.88719 0.0
C109 C 0.38515 0.73832 0.89257 0.0
C110 C 0.37303 0.72703 0.87333 0.0
C111 C 0.42231 0.74381 0.91917 0.0
H112 H 0.36196 0.90527 0.07363 0.0
H113 H 0.35088 0.86584 0.06239 0.0
H114 H 0.41078 0.86333 0.00904 0.0
H115 H 0.42195 0.90284 0.02008 0.0
H116 H 0.41829 0.68735 0.85861 0.0
H117 H 0.43957 0.70738 0.89229 0.0
H118 H 0.37576 0.75252 0.90198 0.0
H119 H 0.3544 0.73263 0.86842 0.0
Tb120 Tb 0.49635 0.14999 0.19485 0.0
Eu121 Eu 0.45537 0.13347 0.23685 0.0
C122 C 0.44591 0.17709 0.20107 0.0
C123 C 0.49257 0.17354 0.24788 0.0
C124 C 0.54079 0.15059 0.1413 0.0
C125 C 0.57377 0.15169 0.11051 0.0
C126 C 0.56096 0.16177 0.13046 0.0
C127 C 0.53352 0.12913 0.132 0.0
C128 C 0.54629 0.11904 0.11194 0.0
C129 C 0.56661 0.13021 0.101 0.0
C130 C 0.52757 0.16168 0.16215 0.0
O131 O 0.50903 0.11654 0.2081 0.0
O132 O 0.49298 0.11816 0.24746 0.0
O133 O 0.45844 0.1051 0.20878 0.0
O134 O 0.47082 0.12714 0.17569 0.0
C135 C 0.51007 0.11079 0.23166 0.0
O136 O 0.44446 0.12845 0.27566 0.0
O137 O 0.41931 0.11929 0.24607 0.0
O138 O 0.43575 0.1588 0.21114 0.0
O139 O 0.47 0.17843 0.19815 0.0
O140 O 0.50741 0.16524 0.23038 0.0
O141 O 0.46929 0.16759 0.24929 0.0
C142 C 0.46132 0.10808 0.18478 0.0
O143 O 0.50362 0.16423 0.15971 0.0
O144 O 0.53356 0.1544 0.18432 0.0
C145 C 0.40163 0.13427 0.28307 0.0
C146 C 0.36211 0.15685 0.30845 0.0
C147 C 0.37423 0.13739 0.31893 0.0
C148 C 0.39375 0.12622 0.30633 0.0
C149 C 0.38994 0.15388 0.27267 0.0
C150 C 0.37032 0.16501 0.28519 0.0
C151 C 0.42208 0.12217 0.26997 0.0
H152 H 0.58909 0.1609 0.1023 0.0
H153 H 0.56676 0.17838 0.13737 0.0
H154 H 0.518 0.12021 0.14025 0.0
H155 H 0.54047 0.10239 0.1052 0.0
H156 H 0.36878 0.13087 0.33699 0.0
H157 H 0.40271 0.11124 0.31476 0.0
H158 H 0.39586 0.16049 0.25477 0.0
H159 H 0.36131 0.17976 0.27641 0.0
Tb160 Tb 0.63196 0.30958 0.48306 0.0
Eu161 Eu 0.61139 0.27236 0.52434 0.0
C162 C 0.65843 0.30389 0.53401 0.0
C163 C 0.65427 0.25836 0.48675 0.0
C164 C 0.63623 0.36207 0.44267 0.0
C165 C 0.62977 0.38755 0.40718 0.0
C166 C 0.63782 0.36634 0.41706 0.0
C167 C 0.62588 0.37921 0.45824 0.0
C168 C 0.61804 0.40051 0.44841 0.0
C169 C 0.62016 0.40509 0.42277 0.0
C170 C 0.64635 0.34013 0.45286 0.0
O171 O 0.5969 0.29784 0.4686 0.0
O172 O 0.59598 0.26215 0.48705 0.0
O173 O 0.58154 0.29913 0.51904 0.0
O174 O 0.60697 0.32869 0.50829 0.0
C175 C 0.58976 0.27628 0.46884 0.0
O176 O 0.60253 0.23744 0.53618 0.0
O177 O 0.59554 0.2662 0.56115 0.0
O178 O 0.63792 0.29598 0.54381 0.0
O179 O 0.66151 0.30475 0.50985 0.0
O180 O 0.64769 0.27577 0.4721 0.0
O181 O 0.64726 0.25754 0.51011 0.0
C182 C 0.58569 0.32126 0.51702 0.0
O183 O 0.65163 0.33987 0.47648 0.0
O184 O 0.63555 0.32123 0.44604 0.0
C185 C 0.60856 0.23093 0.57927 0.0
C186 C 0.63119 0.20716 0.61926 0.0
C187 C 0.60842 0.21899 0.62262 0.0
C188 C 0.59717 0.2307 0.60276 0.0
C189 C 0.63146 0.21935 0.57592 0.0
C190 C 0.64259 0.20746 0.59571 0.0
C191 C 0.59663 0.24378 0.55875 0.0
H192 H 0.63121 0.39021 0.38729 0.0
H193 H 0.64558 0.35333 0.40468 0.0
H194 H 0.62427 0.37637 0.47809 0.0
H195 H 0.611 0.4136 0.46106 0.0
H196 H 0.59911 0.21887 0.6405 0.0
H197 H 0.57956 0.23961 0.60573 0.0
H198 H 0.64081 0.21953 0.55805 0.0
H199 H 0.66027 0.19869 0.59267 0.0
Tb200 Tb 0.96074 0.40258 0.74302 0.0
Eu201 Eu 1.00071 0.38546 0.79451 0.0
C202 C 0.95959 0.4315 0.79198 0.0
C203 C 0.01366 0.42619 0.75245 0.0
C204 C 0.91653 0.39397 0.69062 0.0
C205 C 0.87246 0.38657 0.69469 0.0
C206 C 0.89491 0.39331 0.70521 0.0
C207 C 0.91555 0.38749 0.6656 0.0
C208 C 0.89321 0.38067 0.65511 0.0
C209 C 0.87131 0.38027 0.66944 0.0
C210 C 0.94041 0.40087 0.7011 0.0
O211 O 0.98941 0.38078 0.75365 0.0
O212 O 0.01919 0.36082 0.7657 0.0
O213 O 0.96728 0.36227 0.79245 0.0
O214 O 0.93808 0.37967 0.76561 0.0
C215 C 0.00636 0.36646 0.74641 0.0
O216 O 0.03496 0.37777 0.81443 0.0
O217 O 1.00033 0.38095 0.83496 0.0
O218 O 0.97828 0.41902 0.80159 0.0
O219 O 0.94865 0.4271 0.77057 0.0
O220 O 0.9939 0.42342 0.73815 0.0
O221 O 0.01811 0.4149 0.77347 0.0
C222 C 0.94496 0.36387 0.78226 0.0
O223 O 0.94018 0.41938 0.71512 0.0
O224 O 0.9541 0.38408 0.71037 0.0
C225 C 0.03699 0.39244 0.85561 0.0
C226 C 0.0631 0.41571 0.89322 0.0
C227 C 0.04506 0.39939 0.89942 0.0
C228 C 0.03222 0.38782 0.88078 0.0
C229 C 0.05443 0.40928 0.84934 0.0
C230 C 0.06742 0.42072 0.86797 0.0
C231 C 0.02444 0.3788 0.83632 0.0
H232 H 0.85595 0.38663 0.70623 0.0
H233 H 0.89539 0.39807 0.72467 0.0
H234 H 0.93214 0.38764 0.65416 0.0
H235 H 0.89318 0.37547 0.63578 0.0
H236 H 0.04146 0.39499 0.91867 0.0
H237 H 0.01889 0.37489 0.88605 0.0
H238 H 0.05833 0.41336 0.83007 0.0
H239 H 0.08097 0.43341 0.86261 0.0
Tb240 Tb 0.90108 0.7779 0.01573 0.0
Eu241 Eu 0.87966 0.74124 0.9744 0.0
C242 C 0.92728 0.73016 0.00769 0.0
C243 C 0.92243 0.77588 0.96057 0.0
C244 C 0.9044 0.81675 0.07051 0.0
C245 C 0.90793 0.84284 0.10551 0.0
C246 C 0.91864 0.83133 0.08521 0.0
C247 C 0.87932 0.81356 0.0765 0.0
C248 C 0.86856 0.82507 0.09685 0.0
C249 C 0.88271 0.84002 0.11149 0.0
C250 C 0.9159 0.80513 0.04897 0.0
O251 O 0.86541 0.79186 0.00426 0.0
O252 O 0.8639 0.77675 0.96498 0.0
O253 O 0.85037 0.74587 1.00363 0.0
O254 O 0.87636 0.7546 0.03557 0.0
C255 C 0.85782 0.79296 0.98113 0.0
O256 O 0.8732 0.73 0.93625 0.0
O257 O 0.86028 0.70925 0.96709 0.0
O258 O 0.90642 0.72177 0.9994 0.0
O259 O 0.9304 0.7525 0.00944 0.0
O260 O 0.91575 0.78893 0.97961 0.0
O261 O 0.91529 0.7544 0.95869 0.0
C262 C 0.85487 0.7474 0.02747 0.0
O263 O 0.91792 0.7827 0.05043 0.0
O264 O 0.90798 0.81183 0.02721 0.0
C265 C 0.87226 0.68949 0.93069 0.0
C266 C 0.88853 0.64783 0.90817 0.0
C267 C 0.86355 0.65521 0.90658 0.0
C268 C 0.85553 0.67583 0.91772 0.0
C269 C 0.89721 0.68233 0.93239 0.0
C270 C 0.90529 0.66169 0.9212 0.0
C271 C 0.86315 0.71064 0.94306 0.0
H272 H 0.91947 0.8539 0.11659 0.0
H273 H 0.93805 0.83388 0.08093 0.0
H274 H 0.86804 0.80232 0.06531 0.0
H275 H 0.84906 0.82267 0.10077 0.0
H276 H 0.85003 0.64483 0.89711 0.0
H277 H 0.83616 0.68099 0.91643 0.0
H278 H 0.91037 0.69266 0.94246 0.0
H279 H 0.92469 0.65669 0.92258 0.0
Tb280 Tb 0.56494 0.64869 0.25474 0.0
Eu281 Eu 0.52181 0.66495 0.29494 0.0
C282 C 0.55875 0.62214 0.30532 0.0
C283 C 0.51185 0.62574 0.25638 0.0
C284 C 0.61822 0.64792 0.2104 0.0
C285 C 0.64802 0.64744 0.17651 0.0
C286 C 0.62905 0.63685 0.18985 0.0
C287 C 0.62652 0.66975 0.21755 0.0
C288 C 0.64562 0.68032 0.20428 0.0
C289 C 0.65651 0.66929 0.18355 0.0
C290 C 0.5982 0.6365 0.224 0.0
O291 O 0.55093 0.68159 0.24114 0.0
O292 O 0.51164 0.67958 0.25714 0.0
O293 O 0.54838 0.69405 0.29208 0.0
O294 O 0.58288 0.67371 0.27905 0.0
C295 C 0.52726 0.68703 0.24015 0.0
O296 O 0.48302 0.67087 0.30498 0.0
O297 O 0.51197 0.67964 0.33106 0.0
O298 O 0.54744 0.64016 0.31528 0.0
O299 O 0.5624 0.62057 0.28126 0.0
O300 O 0.52961 0.63432 0.24239 0.0
O301 O 0.51002 0.63081 0.28003 0.0
C302 C 0.57244 0.69238 0.28878 0.0
O303 O 0.6007 0.63517 0.24807 0.0
O304 O 0.5757 0.64261 0.21771 0.0
C305 C 0.47435 0.66654 0.3481 0.0
C306 C 0.44819 0.64666 0.38804 0.0
C307 C 0.46118 0.66724 0.39135 0.0
C308 C 0.47405 0.67713 0.37152 0.0
C309 C 0.46161 0.64582 0.34478 0.0
C310 C 0.44853 0.63604 0.36457 0.0
C311 C 0.4882 0.67735 0.32759 0.0
H312 H 0.65623 0.63838 0.16083 0.0
H313 H 0.62285 0.61999 0.18412 0.0
H314 H 0.6182 0.67861 0.23332 0.0
H315 H 0.6516 0.69726 0.20999 0.0
H316 H 0.46102 0.67593 0.40916 0.0
H317 H 0.48376 0.69311 0.37447 0.0
H318 H 0.46173 0.63715 0.32696 0.0
H319 H 0.43886 0.62005 0.36158 0.0
Tb320 Tb 0.23578 0.54147 0.12476 0.0
Eu321 Eu 0.27763 0.49476 0.10933 0.0
C322 C 0.2345 0.49583 0.15632 0.0
C323 C 0.28903 0.53564 0.15084 0.0
C324 C 0.18593 0.58622 0.11485 0.0
C325 C 0.15433 0.61658 0.11609 0.0
C326 C 0.17746 0.60777 0.12345 0.0
C327 C 0.17051 0.57307 0.09963 0.0
C328 C 0.14739 0.58192 0.09215 0.0
C329 C 0.13929 0.60403 0.09983 0.0
C330 C 0.21152 0.57868 0.12031 0.0
O331 O 0.26606 0.53367 0.10208 0.0
O332 O 0.29747 0.52086 0.084 0.0
O333 O 0.24634 0.49834 0.08132 0.0
O334 O 0.21448 0.51703 0.10306 0.0
C335 C 0.28427 0.53929 0.08789 0.0
O336 O 0.3123 0.47479 0.10759 0.0
O337 O 0.27754 0.45852 0.09846 0.0
O338 O 0.25258 0.48626 0.14263 0.0
O339 O 0.22509 0.51684 0.15271 0.0
O340 O 0.26965 0.54909 0.14514 0.0
O341 O 0.29305 0.51452 0.14206 0.0
C342 C 0.22271 0.50423 0.08434 0.0
O343 O 0.21538 0.56845 0.14178 0.0
O344 O 0.22348 0.56853 0.10198 0.0
C345 C 0.30914 0.43432 0.11581 0.0
C346 C 0.32631 0.39257 0.13768 0.0
C347 C 0.33864 0.41338 0.14201 0.0
C348 C 0.33018 0.43403 0.13118 0.0
C349 C 0.2965 0.41362 0.11194 0.0
C350 C 0.30492 0.393 0.12284 0.0
C351 C 0.30129 0.4555 0.10227 0.0
H352 H 0.14845 0.63345 0.12276 0.0
H353 H 0.18906 0.61811 0.1353 0.0
H354 H 0.1767 0.55632 0.09283 0.0
H355 H 0.13637 0.57186 0.07951 0.0
H356 H 0.35503 0.41366 0.15358 0.0
H357 H 0.34043 0.44963 0.13447 0.0
H358 H 0.28042 0.41325 0.09995 0.0
H359 H 0.29519 0.37723 0.11888 0.0
Tb360 Tb 0.7651 0.0596 0.86545 0.0
Eu361 Eu 0.72589 0.02039 0.84623 0.0
C362 C 0.71399 0.05377 0.89207 0.0
C363 C 0.7629 0.01009 0.89024 0.0
C364 C 0.80409 0.11241 0.86796 0.0
C365 C 0.83761 0.13983 0.86534 0.0
C366 C 0.82816 0.11898 0.87415 0.0
C367 C 0.78977 0.12673 0.85224 0.0
C368 C 0.79914 0.14768 0.84356 0.0
C369 C 0.82309 0.15467 0.85027 0.0
C370 C 0.79397 0.09113 0.87889 0.0
O371 O 0.77991 0.04704 0.83034 0.0
O372 O 0.7637 0.01071 0.83052 0.0
O373 O 0.72954 0.04621 0.81552 0.0
O374 O 0.73916 0.07697 0.84005 0.0
C375 C 0.78088 0.02527 0.82353 0.0
O376 O 0.71575 0.98434 0.84115 0.0
O377 O 0.6905 0.01183 0.82948 0.0
O378 O 0.70491 0.04492 0.87165 0.0
O379 O 0.738 0.05579 0.89506 0.0
O380 O 0.77733 0.02661 0.88199 0.0
O381 O 0.73966 0.00897 0.88345 0.0
C382 C 0.73093 0.06852 0.81902 0.0
O383 O 0.77019 0.09126 0.88334 0.0
O384 O 0.80158 0.07161 0.86927 0.0
C385 C 0.6729 0.97778 0.84539 0.0
C386 C 0.6329 0.95489 0.86819 0.0
C387 C 0.64457 0.94568 0.84683 0.0
C388 C 0.66433 0.95705 0.83554 0.0
C389 C 0.66166 0.98692 0.8669 0.0
C390 C 0.6418 0.97561 0.87816 0.0
C391 C 0.69355 0.98965 0.83313 0.0
H392 H 0.85631 0.14433 0.87047 0.0
H393 H 0.83958 0.10811 0.8861 0.0
H394 H 0.77115 0.12197 0.84708 0.0
H395 H 0.78733 0.15868 0.83217 0.0
H396 H 0.63855 0.92956 0.83889 0.0
H397 H 0.67293 0.94965 0.81907 0.0
H398 H 0.66812 1.00289 0.87486 0.0
H399 H 0.63315 0.98333 0.89441 0.0
Tb400 Tb 0.75379 1.00085 0.35215 0.0
Eu401 Eu 0.80236 0.03852 0.33017 0.0
C402 C 0.80381 1.0033 0.38148 0.0
C403 C 0.75853 0.05321 0.37182 0.0
C404 C 0.70683 0.95432 0.34806 0.0
C405 C 0.68055 0.92205 0.35871 0.0
C406 C 0.68878 0.94439 0.36334 0.0
C407 C 0.71695 0.94134 0.32831 0.0
C408 C 0.70863 0.91898 0.32359 0.0
C409 C 0.6901 0.90913 0.33857 0.0
C410 C 0.71435 0.97832 0.35281 0.0
O411 O 0.76191 0.0256 0.32572 0.0
O412 O 0.7731 0.05184 0.30212 0.0
O413 O 0.8014 1.00592 0.30705 0.0
O414 O 0.77821 0.97884 0.32929 0.0
C415 C 0.75433 0.03989 0.30897 0.0
O416 O 0.82002 0.0712 0.32135 0.0
O417 O 0.84209 0.03948 0.32248 0.0
O418 O 0.81236 0.0198 0.36657 0.0
O419 O 0.78236 0.99292 0.37867 0.0
O420 O 0.74623 0.03351 0.37167 0.0
O421 O 0.77925 0.05705 0.35929 0.0
C422 C 0.79347 0.9847 0.31097 0.0
O423 O 0.72801 0.98159 0.37255 0.0
O424 O 0.72193 0.99024 0.33355 0.0
C425 C 0.86169 0.07432 0.33424 0.0
C426 C 0.89929 0.09874 0.35884 0.0
C427 C 0.88635 0.10874 0.3387 0.0
C428 C 0.86786 0.09663 0.32651 0.0
C429 C 0.87419 0.06433 0.35461 0.0
C430 C 0.89285 0.07642 0.36677 0.0
C431 C 0.84227 0.06198 0.32064 0.0
H432 H 0.66663 0.91491 0.37096 0.0
H433 H 0.68086 0.95403 0.37878 0.0
H434 H 0.73099 0.94858 0.31628 0.0
H435 H 0.71628 0.90968 0.3078 0.0
H436 H 0.89038 0.12606 0.3324 0.0
H437 H 0.85835 0.10472 0.31097 0.0
H438 H 0.86969 0.04715 0.36104 0.0
H439 H 0.90252 0.06811 0.38207 0.0
Tb440 Tb 0.24703 0.56684 0.61586 0.0
Eu441 Eu 0.28911 0.5289 0.63574 0.0
C442 C 0.29848 0.56251 0.59002 0.0
C443 C 0.25248 0.51659 0.59261 0.0
C444 C 0.20495 0.61915 0.60991 0.0
C445 C 0.1821 0.65476 0.601 0.0
C446 C 0.19218 0.63357 0.59317 0.0
C447 C 0.2073 0.62606 0.63478 0.0
C448 C 0.19709 0.64729 0.6427 0.0
C449 C 0.18458 0.66202 0.6258 0.0
C450 C 0.21665 0.59762 0.60062 0.0
O451 O 0.23248 0.55396 0.65074 0.0
O452 O 0.25193 0.51834 0.65134 0.0
O453 O 0.28307 0.55425 0.66638 0.0
O454 O 0.27103 0.58491 0.64198 0.0
C455 C 0.23338 0.53222 0.6578 0.0
O456 O 0.30165 0.49348 0.64288 0.0
O457 O 0.32589 0.52186 0.65123 0.0
O458 O 0.308 0.55469 0.61087 0.0
O459 O 0.27444 0.56282 0.58652 0.0
O460 O 0.2371 0.53317 0.60022 0.0
O461 O 0.27592 0.51637 0.59896 0.0
C462 C 0.28001 0.57652 0.66298 0.0
O463 O 0.24055 0.59822 0.59713 0.0
O464 O 0.21005 0.57835 0.61113 0.0
C465 C 0.34512 0.48712 0.63692 0.0
C466 C 0.38588 0.46329 0.61491 0.0
C467 C 0.36142 0.4579 0.60841 0.0
C468 C 0.34126 0.4697 0.61924 0.0
C469 C 0.36955 0.49256 0.64336 0.0
C470 C 0.38972 0.48086 0.6324 0.0
C471 C 0.32402 0.49951 0.64902 0.0
H472 H 0.17228 0.66547 0.58758 0.0
H473 H 0.19022 0.62854 0.5739 0.0
H474 H 0.21731 0.61522 0.64794 0.0
H475 H 0.19949 0.65242 0.66187 0.0
H476 H 0.35784 0.44461 0.59482 0.0
H477 H 0.32268 0.46509 0.61378 0.0
H478 H 0.37307 0.5058 0.65703 0.0
H479 H 0.40831 0.48522 0.63803 0.0
C480 C 0.14897 0.34619 0.51631 0.0
C481 C 0.163 0.32626 0.51029 0.0
C482 C 0.16013 0.36538 0.52661 0.0
C483 C 0.21873 0.39546 0.52903 0.0
H484 H 0.18536 0.43064 0.58099 0.0
C485 C 0.25953 0.47807 0.57244 0.0
C486 C 0.24299 0.49599 0.57958 0.0
C487 C 0.25072 0.45708 0.56367 0.0
C488 C 0.19476 0.42122 0.56624 0.0
H489 H 0.19973 0.31056 0.51098 0.0
H490 H 0.21966 0.34467 0.52899 0.0
H491 H 0.1693 0.39336 0.56864 0.0
H492 H 0.20416 0.50616 0.58189 0.0
H493 H 0.18874 0.46967 0.56598 0.0
H494 H 0.24392 0.42356 0.52628 0.0
C495 C 0.19987 0.34522 0.52561 0.0
C496 C 0.18567 0.39974 0.55931 0.0
C497 C 0.18851 0.32569 0.51551 0.0
C498 C 0.21742 0.49276 0.5766 0.0
C499 C 0.20859 0.47172 0.56774 0.0
C500 C 0.22781 0.41704 0.53591 0.0
C501 C 0.18574 0.36533 0.53108 0.0
C502 C 0.19732 0.38675 0.54039 0.0
C503 C 0.22512 0.45342 0.56171 0.0
C504 C 0.21573 0.43034 0.55439 0.0
H505 H 0.1292 0.34712 0.51272 0.0
H506 H 0.14875 0.38061 0.53032 0.0
H507 H 0.22793 0.386 0.51418 0.0
H508 H 0.27938 0.47988 0.57448 0.0
H509 H 0.26401 0.4434 0.55939 0.0
C510 C 0.80519 0.99375 0.80159 0.0
C511 C 0.80279 0.01694 0.80909 0.0
C512 C 0.82706 0.98564 0.79012 0.0
C513 C 0.88554 1.00568 0.75985 0.0
H514 H 0.91121 0.94558 0.78026 0.0
C515 C 0.98835 0.97764 0.74794 0.0
C516 C 0.99319 0.95528 0.73895 0.0
C517 C 0.96412 0.98468 0.75406 0.0
C518 C 0.90415 0.96229 0.77416 0.0
H519 H 0.82143 0.04987 0.80983 0.0
H520 H 0.85938 0.03574 0.79051 0.0
H521 H 0.8704 0.95866 0.79475 0.0
H522 H 0.97685 0.92236 0.73052 0.0
H523 H 0.93448 0.9346 0.74114 0.0
H524 H 0.91977 0.00955 0.73998 0.0
C525 C 0.84432 0.02381 0.79295 0.0
C526 C 0.88068 0.96978 0.78237 0.0
C527 C 0.82249 0.03192 0.80423 0.0
C528 C 0.97351 0.93991 0.73665 0.0
C529 C 0.94931 0.94683 0.74306 0.0
C530 C 0.90909 0.99828 0.75187 0.0
C531 C 0.84708 1.0005 0.78599 0.0
C532 C 0.87117 0.99171 0.77559 0.0
C533 C 0.94434 0.96932 0.75178 0.0
C534 C 0.91877 0.97662 0.75915 0.0
H535 H 0.79039 0.98173 0.805 0.0
H536 H 0.82833 0.96766 0.78467 0.0
H537 H 0.87867 0.02245 0.75377 0.0
H538 H 0.0033 0.9897 0.75016 0.0
H539 H 0.96094 1.002 0.76109 0.0
C540 C 0.3462 0.73608 0.02871 0.0
C541 C 0.34608 0.74015 1.003 0.0
C542 C 0.33654 0.71564 0.03845 0.0
C543 C 0.32043 0.65606 0.0175 0.0
H544 H 0.3001 0.64975 0.08626 0.0
C545 C 0.30861 0.5658 0.06085 0.0
C546 C 0.2907 0.56282 0.07951 0.0
C547 C 0.31433 0.58792 0.05226 0.0
C548 C 0.30531 0.65109 0.06687 0.0
H549 H 0.33432 0.72708 0.96742 0.0
H550 H 0.31549 0.69249 0.98438 0.0
H551 H 0.30836 0.68775 0.0696 0.0
H552 H 0.26648 0.58079 0.10538 0.0
H553 H 0.27445 0.61912 0.08905 0.0
H554 H 0.31586 0.61971 0.01424 0.0
C555 C 0.32421 0.70423 0.99713 0.0
C556 C 0.31054 0.67305 0.05736 0.0
C557 C 0.33459 0.72429 0.98735 0.0
C558 C 0.27927 0.58244 0.09002 0.0
C559 C 0.28448 0.60456 0.08105 0.0
C560 C 0.3146 0.63425 0.02681 0.0
C561 C 0.32597 0.69905 0.02272 0.0
C562 C 0.31852 0.67589 0.03257 0.0
C563 C 0.30198 0.60769 0.06183 0.0
C564 C 0.30732 0.63129 0.05177 0.0
H565 H 0.3554 0.74787 0.0411 0.0
H566 H 0.33868 0.71242 0.05815 0.0
H567 H 0.32696 0.65713 0.99849 0.0
H568 H 0.31815 0.55098 0.05275 0.0
H569 H 0.32857 0.5894 0.03815 0.0
C570 C 0.5516 0.0925 0.22344 0.0
C571 C 0.53256 0.09813 0.24049 0.0
C572 C 0.5745 0.08401 0.23167 0.0
C573 C 0.60844 0.05549 0.28177 0.0
H574 H 0.66376 0.09134 0.25777 0.0
C575 C 0.70877 0.04081 0.31797 0.0
C576 C 0.72845 0.04425 0.30129 0.0
C577 C 0.68436 0.04624 0.31107 0.0
C578 C 0.64868 0.08081 0.26434 0.0
H579 H 0.52232 0.09786 0.27954 0.0
H580 H 0.56253 0.08243 0.29389 0.0
H581 H 0.62183 0.10164 0.24493 0.0
H582 H 0.73823 0.0558 0.26433 0.0
H583 H 0.69564 0.06438 0.25173 0.0
H584 H 0.6353 0.03419 0.30062 0.0
C585 C 0.55954 0.0849 0.27414 0.0
C586 C 0.6246 0.08687 0.25709 0.0
C587 C 0.53656 0.09371 0.26592 0.0
C588 C 0.72333 0.053 0.27752 0.0
C589 C 0.69891 0.0581 0.27043 0.0
C590 C 0.63266 0.04916 0.28875 0.0
C591 C 0.57892 0.08065 0.2571 0.0
C592 C 0.60426 0.07423 0.26561 0.0
C593 C 0.67906 0.05508 0.28722 0.0
C594 C 0.65315 0.0617 0.28003 0.0
H595 H 0.54924 0.0955 0.2037 0.0
H596 H 0.58903 0.08056 0.21812 0.0
H597 H 0.59305 0.04542 0.2885 0.0
H598 H 0.71228 0.03467 0.33665 0.0
H599 H 0.66975 0.04409 0.32471 0.0
C600 C 0.67857 0.23837 0.45261 0.0
C601 C 0.66755 0.23784 0.47633 0.0
C602 C 0.68928 0.21826 0.44235 0.0
C603 C 0.68495 0.15535 0.44396 0.0
H604 H 0.75133 0.15484 0.41613 0.0
C605 C 0.73193 0.07111 0.40584 0.0
C606 C 0.74784 0.07345 0.38527 0.0
C607 C 0.72243 0.09079 0.41812 0.0
C608 C 0.73259 0.15467 0.42342 0.0
H609 H 0.65927 0.21567 0.50788 0.0
H610 H 0.67751 0.18078 0.48978 0.0
H611 H 0.73427 0.19025 0.43422 0.0
H612 H 0.76525 0.09833 0.36079 0.0
H613 H 0.74815 0.13209 0.38124 0.0
H614 H 0.68278 0.12007 0.43246 0.0
C615 C 0.67798 0.19673 0.47921 0.0
C616 C 0.7229 0.17501 0.4339 0.0
C617 C 0.66771 0.21683 0.48962 0.0
C618 C 0.75352 0.0958 0.37694 0.0
C619 C 0.74377 0.11531 0.38884 0.0
C620 C 0.69446 0.13507 0.43307 0.0
C621 C 0.68872 0.19718 0.45542 0.0
C622 C 0.69899 0.17558 0.44424 0.0
C623 C 0.72832 0.11321 0.4098 0.0
C624 C 0.7184 0.13445 0.4225 0.0
H625 H 0.67869 0.25422 0.44186 0.0
H626 H 0.6974 0.21905 0.42392 0.0
H627 H 0.66637 0.15536 0.4517 0.0
H628 H 0.72718 0.05413 0.41268 0.0
H629 H 0.71076 0.0884 0.43431 0.0
C630 C 0.03602 0.44754 0.71854 0.0
C631 C 0.0335 0.4417 0.7438 0.0
C632 C 0.05698 0.45928 0.71015 0.0
C633 C 0.09904 0.49299 0.69953 0.0
H634 H 0.16164 0.47109 0.72708 0.0
C635 C 0.19142 0.53741 0.67735 0.0
C636 C 0.21176 0.52287 0.67135 0.0
C637 C 0.16971 0.52832 0.68732 0.0
C638 C 0.14434 0.47733 0.71913 0.0
H639 H 0.05019 0.44501 0.78028 0.0
H640 H 0.08632 0.46561 0.76571 0.0
H641 H 0.12296 0.45441 0.7415 0.0
H642 H 0.22543 0.48739 0.67195 0.0
H643 H 0.18752 0.47153 0.68945 0.0
H644 H 0.12054 0.5156 0.6768 0.0
C645 C 0.0725 0.46064 0.75228 0.0
C646 C 0.12214 0.46796 0.72758 0.0
C647 C 0.05168 0.44893 0.76063 0.0
C648 C 0.21018 0.4991 0.67644 0.0
C649 C 0.18845 0.49001 0.68649 0.0
C650 C 0.12128 0.50244 0.69114 0.0
C651 C 0.07575 0.46541 0.72687 0.0
C652 C 0.09923 0.47569 0.7179 0.0
C653 C 0.16781 0.50447 0.69162 0.0
C654 C 0.14418 0.49469 0.70083 0.0
H655 H 0.02243 0.44212 0.70509 0.0
H656 H 0.05899 0.46265 0.69043 0.0
H657 H 0.08171 0.49937 0.69179 0.0
H658 H 0.19196 0.55582 0.67377 0.0
H659 H 0.15431 0.53997 0.69149 0.0
C660 C 0.75712 0.97464 0.91592 0.0
C661 C 0.77326 0.99058 0.90497 0.0
C662 C 0.76628 0.95413 0.92631 0.0
C663 C 0.81959 0.91391 0.92135 0.0
H664 H 0.78926 0.88542 0.979 0.0
C665 C 0.84015 0.81869 0.94765 0.0
C666 C 0.84431 0.81415 0.97298 0.0
C667 C 0.83054 0.84018 0.93998 0.0
C668 C 0.79806 0.89317 0.96296 0.0
H669 H 0.81185 0.99801 0.89751 0.0
H670 H 0.82799 0.96218 0.91613 0.0
H671 H 0.7764 0.9243 0.96664 0.0
H672 H 0.84066 0.82834 0.0102 0.0
H673 H 0.82424 0.8656 0.99685 0.0
H674 H 0.84162 0.88294 0.91798 0.0
C675 C 0.80815 0.96546 0.91624 0.0
C676 C 0.79054 0.91541 0.95576 0.0
C677 C 0.79894 0.9861 0.90583 0.0
C678 C 0.83771 0.83119 0.99051 0.0
C679 C 0.82816 0.8526 0.98286 0.0
C680 C 0.82716 0.89167 0.92859 0.0
C681 C 0.79185 0.94901 0.92608 0.0
C682 C 0.80111 0.92602 0.93478 0.0
C683 C 0.82488 0.85754 0.95749 0.0
C684 C 0.81642 0.88099 0.94943 0.0
H685 H 0.73721 0.97757 0.91566 0.0
H686 H 0.75316 0.94181 0.9335 0.0
H687 H 0.82788 0.92142 0.9049 0.0
H688 H 0.84505 0.80596 0.93367 0.0
H689 H 0.82783 0.84329 0.9203 0.0
C690 C 0.47731 0.59746 0.25855 0.0
C691 C 0.49106 0.61348 0.24475 0.0
C692 C 0.45571 0.58809 0.24872 0.0
C693 C 0.40332 0.60233 0.21175 0.0
H694 H 0.39562 0.53722 0.19788 0.0
C695 C 0.31628 0.5685 0.16182 0.0
C696 C 0.3092 0.54556 0.16573 0.0
C697 C 0.33795 0.57683 0.17259 0.0
C698 C 0.39709 0.5554 0.20213 0.0
H699 H 0.493 0.63226 0.20988 0.0
H700 H 0.45471 0.61635 0.19304 0.0
H701 H 0.43486 0.55089 0.21408 0.0
H702 H 0.31842 0.5137 0.185 0.0
H703 H 0.35515 0.52854 0.20524 0.0
H704 H 0.36545 0.60701 0.20108 0.0
C705 C 0.46103 0.61076 0.21123 0.0
C706 C 0.41976 0.5632 0.21116 0.0
C707 C 0.483 0.61967 0.22077 0.0
C708 C 0.32351 0.53145 0.18162 0.0
C709 C 0.34482 0.53994 0.19293 0.0
C710 C 0.38043 0.5945 0.20331 0.0
C711 C 0.44711 0.59507 0.22523 0.0
C712 C 0.42312 0.58674 0.21581 0.0
C713 C 0.35282 0.56257 0.18804 0.0
C714 C 0.37697 0.5709 0.19814 0.0
H715 H 0.48303 0.5925 0.27713 0.0
H716 H 0.4452 0.57605 0.25984 0.0
H717 H 0.40545 0.62056 0.21551 0.0
H718 H 0.30584 0.57963 0.14927 0.0
H719 H 0.34347 0.59418 0.16789 0.0
C720 C 0.48599 0.19792 0.28562 0.0
C721 C 0.50241 0.18808 0.26804 0.0
C722 C 0.49498 0.20907 0.30659 0.0
C723 C 0.51885 0.21479 0.35689 0.0
H724 H 0.57372 0.25712 0.35562 0.0
C725 C 0.5698 0.24403 0.44562 0.0
C726 C 0.57641 0.26737 0.44694 0.0
C727 C 0.55984 0.23509 0.42377 0.0
C728 C 0.55826 0.24544 0.35624 0.0
H729 H 0.5412 0.18325 0.25817 0.0
H730 H 0.55695 0.20289 0.29497 0.0
H731 H 0.55858 0.241 0.31667 0.0
H732 H 0.57698 0.29978 0.42649 0.0
H733 H 0.55948 0.28419 0.38856 0.0
H734 H 0.51842 0.21925 0.39639 0.0
C735 C 0.53708 0.20191 0.2924 0.0
C736 C 0.54977 0.23605 0.33397 0.0
C737 C 0.52806 0.19066 0.27133 0.0
C738 C 0.57213 0.28171 0.42617 0.0
C739 C 0.5623 0.27275 0.40432 0.0
C740 C 0.52743 0.22405 0.37914 0.0
C741 C 0.5206 0.21072 0.31054 0.0
C742 C 0.52989 0.2207 0.33406 0.0
C743 C 0.55639 0.24927 0.40274 0.0
C744 C 0.54718 0.23952 0.37907 0.0
H745 H 0.4661 0.1965 0.28358 0.0
H746 H 0.48181 0.21611 0.31996 0.0
H747 H 0.5037 0.20277 0.35761 0.0
H748 H 0.57293 0.23248 0.46122 0.0
H749 H 0.55559 0.21689 0.42308 0.0
C750 C 0.05835 0.31963 0.52812 0.0
C751 C 0.06954 0.29754 0.52798 0.0
C752 C 0.04639 0.32787 0.54972 0.0
C753 C 0.02285 0.30919 0.61216 0.0
H754 H 0.04275 0.37006 0.63323 0.0
C755 C 0.0207 0.33715 0.71518 0.0
C756 C 0.01156 0.35943 0.72049 0.0
C757 C 0.02484 0.33031 0.69051 0.0
C758 C 0.03675 0.35314 0.62752 0.0
H759 H 0.07576 0.26628 0.54944 0.0
H760 H 0.05499 0.28034 0.58661 0.0
H761 H 0.05272 0.35692 0.59122 0.0
H762 H 1.00117 0.39252 0.7044 0.0
H763 H 0.00816 0.38064 0.66143 0.0
H764 H 0.00763 0.30513 0.64874 0.0
C765 C 0.05517 0.29143 0.57037 0.0
C766 C 0.04234 0.34565 0.60335 0.0
C767 C 0.0672 0.28337 0.54904 0.0
C768 C 0.00752 0.37502 0.70081 0.0
C769 C 0.01181 0.36829 0.67619 0.0
C770 C 0.01741 0.31662 0.63633 0.0
C771 C 0.04524 0.31403 0.57132 0.0
C772 C 0.03594 0.32337 0.59553 0.0
C773 C 0.02031 0.34578 0.6707 0.0
C774 C 0.02472 0.33851 0.64447 0.0
H775 H 0.06017 0.33097 0.51219 0.0
H776 H 0.03874 0.3453 0.54976 0.0
H777 H 0.01723 0.29209 0.60665 0.0
H778 H 0.02425 0.32489 0.73006 0.0
H779 H 0.03183 0.31297 0.68695 0.0
C780 C 0.0309 0.86702 0.78484 0.0
C781 C 0.01519 0.87306 0.76493 0.0
C782 C 0.02181 0.85519 0.80552 0.0
C783 C 0.99449 0.84531 0.8535 0.0
H784 H 0.94682 0.79629 0.8482 0.0
C785 C 0.94072 0.81 0.93857 0.0
C786 C 0.93626 0.78616 0.93945 0.0
C787 C 0.95138 0.82 0.91743 0.0
C788 C 0.9603 0.80981 0.85002 0.0
H789 H 0.97765 0.87067 0.75094 0.0
H790 H 0.96172 0.85008 0.78719 0.0
H791 H 0.96339 0.81392 0.81052 0.0
H792 H 0.94038 0.75402 0.919 0.0
H793 H 0.95926 0.77138 0.88244 0.0
H794 H 0.99169 0.84101 0.89295 0.0
C795 C 0.98118 0.85437 0.78665 0.0
C796 C 0.96957 0.82011 0.8284 0.0
C797 C 0.99032 0.8662 0.76585 0.0
C798 C 0.94342 0.77246 0.91898 0.0
C799 C 0.95408 0.78244 0.89788 0.0
C800 C 0.9852 0.83504 0.8751 0.0
C801 C 0.99673 0.8491 0.80694 0.0
C802 C 0.98682 0.83798 0.82986 0.0
C803 C 0.95786 0.80639 0.89667 0.0
C804 C 0.96799 0.81716 0.87365 0.0
H805 H 0.05025 0.87176 0.7847 0.0
H806 H 0.03446 0.85096 0.82052 0.0
H807 H 0.00748 0.85924 0.85536 0.0
H808 H 0.93533 0.82111 0.95391 0.0
H809 H 0.95382 0.83852 0.91708 0.0
C810 C 0.49241 0.69884 0.21195 0.0
C811 C 0.51785 0.69866 0.21747 0.0
C812 C 0.48405 0.70613 0.1886 0.0
C813 C 0.50146 0.73806 0.13166 0.0
H814 H 0.45242 0.69908 0.1012 0.0
C815 C 0.46434 0.75463 0.03187 0.0
C816 C 0.43832 0.75532 0.03084 0.0
C817 C 0.47637 0.74578 0.05304 0.0
C818 C 0.46612 0.71014 0.10946 0.0
H819 H 0.55432 0.7073 0.2033 0.0
H820 H 0.53967 0.72002 0.16266 0.0
H821 H 0.46799 0.68958 0.14251 0.0
H822 H 0.40452 0.74611 0.05021 0.0
H823 H 0.4253 0.73064 0.08667 0.0
H824 H 0.49921 0.75882 0.09864 0.0
C825 C 0.5262 0.71451 0.17634 0.0
C826 C 0.4749 0.7048 0.13319 0.0
C827 C 0.53458 0.70716 0.19964 0.0
C828 C 0.42463 0.74594 0.05058 0.0
C829 C 0.43655 0.73691 0.07142 0.0
C830 C 0.49262 0.74343 0.10787 0.0
C831 C 0.50093 0.71346 0.17032 0.0
C832 C 0.49232 0.71892 0.14475 0.0
C833 C 0.46251 0.73715 0.07317 0.0
C834 C 0.4745 0.72976 0.09673 0.0
H835 H 0.47903 0.6924 0.22523 0.0
H836 H 0.46438 0.70556 0.18467 0.0
H837 H 0.51486 0.74929 0.1401 0.0
H838 H 0.47527 0.76186 0.01691 0.0
H839 H 0.49643 0.74603 0.05385 0.0
C840 C 0.13267 0.39601 0.33079 0.0
C841 C 0.1452 0.37615 0.33978 0.0
C842 C 0.14258 0.40899 0.31125 0.0
C843 C 0.18601 0.40491 0.25811 0.0
H844 H 0.18424 0.47183 0.26101 0.0
C845 C 0.23585 0.46109 0.18464 0.0
C846 C 0.22427 0.48196 0.17723 0.0
C847 C 0.2264 0.44821 0.20451 0.0
C848 C 0.18461 0.45317 0.25969 0.0
H849 H 0.17842 0.35478 0.33531 0.0
H850 H 0.19547 0.37723 0.30105 0.0
H851 H 0.16742 0.44948 0.29544 0.0
H852 H 0.19331 0.5054 0.18492 0.0
H853 H 0.17661 0.48278 0.21909 0.0
H854 H 0.20287 0.40852 0.22225 0.0
C855 C 0.17781 0.3826 0.30901 0.0
C856 C 0.17499 0.44034 0.2795 0.0
C857 C 0.16798 0.3697 0.32867 0.0
C858 C 0.20288 0.48952 0.19015 0.0
C859 C 0.19335 0.47657 0.20991 0.0
C860 C 0.19549 0.41773 0.23821 0.0
C861 C 0.16522 0.4024 0.30004 0.0
C862 C 0.17558 0.41605 0.27898 0.0
C863 C 0.20501 0.45576 0.21745 0.0
C864 C 0.19493 0.44205 0.2387 0.0
H865 H 0.11489 0.40132 0.33851 0.0
H866 H 0.13223 0.42396 0.30458 0.0
H867 H 0.18644 0.38623 0.25694 0.0
H868 H 0.25244 0.45474 0.17528 0.0
H869 H 0.23615 0.43249 0.20995 0.0
C870 C 0.90436 0.93284 0.57131 0.0
C871 C 0.92917 0.93886 0.57543 0.0
C872 C 0.89208 0.93979 0.54966 0.0
C873 C 0.89259 0.98307 0.49947 0.0
H874 H 0.85167 0.93892 0.46534 0.0
C875 C 0.8435 1.00439 0.40604 0.0
C876 C 0.81932 0.99608 0.40303 0.0
C877 C 0.85798 0.99741 0.42638 0.0
C878 C 0.86278 0.95157 0.47477 0.0
H879 H 0.96046 0.95702 0.55974 0.0
H880 H 0.93882 0.96946 0.52204 0.0
H881 H 0.8748 0.9269 0.50209 0.0
H882 H 0.79141 0.97408 0.41948 0.0
H883 H 0.81636 0.96235 0.45491 0.0
H884 H 0.88021 0.00787 0.47238 0.0
C885 C 0.92891 0.95939 0.53573 0.0
C886 C 0.87609 0.94464 0.49582 0.0
C887 C 0.94128 0.95228 0.55737 0.0
C888 C 0.80999 0.98074 0.42097 0.0
C889 C 0.8244 0.97386 0.44129 0.0
C890 C 0.87914 0.99006 0.47844 0.0
C891 C 0.90421 0.95311 0.53159 0.0
C892 C 0.89097 0.96035 0.50856 0.0
C893 C 0.84862 0.98201 0.44424 0.0
C894 C 0.86386 0.97444 0.46596 0.0
H895 H 0.89422 0.92298 0.58501 0.0
H896 H 0.87291 0.93503 0.54723 0.0
H897 H 0.90372 0.99563 0.50901 0.0
H898 H 0.85136 0.01617 0.3926 0.0
H899 H 0.87664 1.00385 0.4279 0.0
C900 C 0.29802 0.58285 0.70502 0.0
C901 C 0.28755 0.5922 0.68322 0.0
C902 C 0.3058 0.59717 0.72411 0.0
C903 C 0.3258 0.65625 0.73717 0.0
H904 H 0.31719 0.63637 0.80557 0.0
C905 C 0.35892 0.70929 0.82201 0.0
C906 C 0.37182 0.69656 0.84033 0.0
C907 C 0.34674 0.698 0.80276 0.0
C908 C 0.31983 0.6421 0.78656 0.0
H909 H 0.27681 0.62409 0.66456 0.0
H910 H 0.29036 0.64928 0.69825 0.0
H911 H 0.29836 0.61455 0.77216 0.0
H912 H 0.38182 0.66206 0.85296 0.0
H913 H 0.36062 0.64235 0.81933 0.0
H914 H 0.34746 0.68376 0.75176 0.0
C915 C 0.29271 0.63075 0.70032 0.0
C916 C 0.30905 0.6296 0.7674 0.0
C917 C 0.28487 0.61633 0.68108 0.0
C918 C 0.37221 0.67233 0.83902 0.0
C919 C 0.35986 0.66105 0.81991 0.0
C920 C 0.33649 0.66885 0.75641 0.0
C921 C 0.30328 0.62128 0.72206 0.0
C922 C 0.31237 0.6362 0.74243 0.0
C923 C 0.34698 0.67376 0.80158 0.0
C924 C 0.33405 0.6616 0.78126 0.0
H925 H 0.30051 0.56436 0.70736 0.0
H926 H 0.31431 0.58927 0.74033 0.0
H927 H 0.32889 0.66169 0.71815 0.0
H928 H 0.35848 0.728 0.82243 0.0
H929 H 0.33688 0.70823 0.78895 0.0
C930 C 0.56775 0.10919 0.06005 0.0
C931 C 0.58041 0.11963 0.07975 0.0
C932 C 0.58083 0.1001 0.03965 0.0
C933 C 0.64355 0.08003 0.02 0.0
H934 H 0.6201 0.09345 0.95333 0.0
C935 C 0.70696 0.06987 0.93468 0.0
C936 C 0.69718 0.06035 0.91287 0.0
C937 C 0.69153 0.07555 0.95471 0.0
C938 C 0.62672 0.08927 0.97182 0.0
H939 H 0.61678 0.12811 0.09376 0.0
H940 H 0.6395 0.11261 0.05816 0.0
H941 H 0.59526 0.10578 0.98918 0.0
H942 H 0.66331 0.0495 0.89503 0.0
H943 H 0.63627 0.05946 0.93021 0.0
H944 H 0.67512 0.06382 1.00274 0.0
C945 C 0.61948 0.11129 0.05848 0.0
C946 C 0.61248 0.09633 0.99237 0.0
C947 C 0.60643 0.12042 0.07878 0.0
C948 C 0.67146 0.05686 0.91152 0.0
C949 C 0.65595 0.06262 0.93164 0.0
C950 C 0.65775 0.07301 0.99951 0.0
C951 C 0.60686 0.10112 0.03859 0.0
C952 C 0.62094 0.09212 0.01671 0.0
C953 C 0.66587 0.07188 0.95354 0.0
C954 C 0.64973 0.07788 0.97517 0.0
H955 H 0.54769 0.10846 0.06016 0.0
H956 H 0.57057 0.09222 0.02474 0.0
H957 H 0.65036 0.07608 0.03847 0.0
H958 H 0.72664 0.07293 0.93638 0.0
H959 H 0.69972 0.08306 0.9711 0.0
C960 C 0.64426 0.20404 0.66391 0.0
C961 C 0.64276 0.19417 0.64013 0.0
C962 C 0.65468 0.1915 0.68367 0.0
C963 C 0.66588 0.13214 0.70471 0.0
H964 H 0.71436 0.15839 0.74904 0.0
C965 C 0.7182 0.07536 0.77503 0.0
C966 C 0.72253 0.08423 0.79887 0.0
C967 C 0.70924 0.08965 0.75607 0.0
C968 C 0.70059 0.15091 0.73705 0.0
H969 H 0.65095 0.1635 0.61835 0.0
H970 H 0.66904 0.14157 0.65286 0.0
H971 H 0.69703 0.18186 0.7152 0.0
H972 H 0.72137 0.11525 0.82138 0.0
H973 H 0.70507 0.14023 0.7883 0.0
H974 H 0.66891 0.1014 0.72656 0.0
C975 C 0.66217 0.15899 0.65622 0.0
C976 C 0.69074 0.16433 0.71764 0.0
C977 C 0.65202 0.17159 0.63644 0.0
C978 C 0.71819 0.1079 0.8032 0.0
C979 C 0.70896 0.12222 0.7842 0.0
C980 C 0.67551 0.11882 0.72418 0.0
C981 C 0.66349 0.16876 0.68005 0.0
C982 C 0.6735 0.15497 0.70113 0.0
C983 C 0.70408 0.11318 0.76048 0.0
C984 C 0.69323 0.12791 0.74042 0.0
H985 H 0.63744 0.22148 0.66721 0.0
H986 H 0.65536 0.1994 0.70187 0.0
H987 H 0.65226 0.12462 0.69255 0.0
H988 H 0.72169 0.05728 0.77093 0.0
H989 H 0.70636 0.0822 0.73789 0.0
C990 C 0.17911 0.49894 0.06859 0.0
C991 C 0.20491 0.49626 0.0653 0.0
C992 C 0.16264 0.49078 0.05064 0.0
C993 C 0.16034 0.44985 0.99738 0.0
H994 H 0.10017 0.48378 0.98002 0.0
C995 C 0.10403 0.42815 0.91016 0.0
C996 C 0.07818 0.42659 0.91297 0.0
C997 C 0.11852 0.43716 0.92918 0.0
C998 C 0.11681 0.47403 0.98484 0.0
H999 H 0.2335 0.48348 0.04002 0.0
H1000 H 0.20508 0.4699 0.0088 0.0
H1001 H 0.12717 0.49855 0.01255 0.0
H1002 H 0.04721 0.4339 0.93773 0.0
H1003 H 0.07261 0.44979 0.97101 0.0
H1004 H 0.15026 0.4256 0.9694 0.0
C1005 C 0.19741 0.47766 0.02551 0.0
C1006 C 0.13226 0.48245 1.00353 0.0
C1007 C 0.21379 0.48563 0.04344 0.0
C1008 C 0.0671 0.43472 0.93509 0.0
C1009 C 0.08161 0.44397 0.95405 0.0
C1010 C 0.14505 0.44159 0.97862 0.0
C1011 C 0.1716 0.47986 0.02893 0.0
C1012 C 0.15438 0.47057 0.00987 0.0
C1013 C 0.10752 0.44501 0.95142 0.0
C1014 C 0.12323 0.45367 0.97195 0.0
H1015 H 0.1716 0.50706 0.08518 0.0
H1016 H 0.14289 0.49264 0.05401 0.0
H1017 H 0.17684 0.43988 1.00214 0.0
H1018 H 0.11317 0.42186 0.89346 0.0
H1019 H 0.13841 0.43795 0.92648 0.0
C1020 C 0.79129 0.94479 0.29193 0.0
C1021 C 0.8017 0.96691 0.29264 0.0
C1022 C 0.798 0.92913 0.27302 0.0
C1023 C 0.82294 0.929 0.20909 0.0
H1024 H 0.84131 0.86484 0.22077 0.0
C1025 C 0.87725 0.87635 0.13643 0.0
C1026 C 0.8712 0.85313 0.13252 0.0
C1027 C 0.86666 0.88883 0.15608 0.0
C1028 C 0.83588 0.88264 0.21715 0.0
H1029 H 0.82834 0.9893 0.27459 0.0
H1030 H 0.83981 0.96227 0.24217 0.0
H1031 H 0.82649 0.88885 0.25547 0.0
H1032 H 0.84926 0.8248 0.14643 0.0
H1033 H 0.83045 0.84679 0.18069 0.0
H1034 H 0.83242 0.9231 0.171 0.0
C1035 C 0.82612 0.95713 0.25581 0.0
C1036 C 0.82741 0.89636 0.23703 0.0
C1037 C 0.81955 0.97262 0.27457 0.0
C1038 C 0.85418 0.84271 0.14879 0.0
C1039 C 0.84359 0.85524 0.16857 0.0
C1040 C 0.8313 0.91535 0.18932 0.0
C1041 C 0.81513 0.93539 0.25447 0.0
C1042 C 0.82145 0.91986 0.23328 0.0
C1043 C 0.84964 0.87849 0.17237 0.0
C1044 C 0.83846 0.89216 0.19317 0.0
H1045 H 0.77755 0.93976 0.30555 0.0
H1046 H 0.78927 0.91244 0.27248 0.0
H1047 H 0.81794 0.94691 0.20549 0.0
H1048 H 0.89004 0.88502 0.12412 0.0
H1049 H 0.87205 0.90659 0.15863 0.0
C1050 C 0.30508 0.57467 0.54594 0.0
C1051 C 0.3149 0.57032 0.56969 0.0
C1052 C 0.32026 0.58235 0.52667 0.0
C1053 C 0.38598 0.58673 0.50693 0.0
H1054 H 0.35857 0.63214 0.461 0.0
C1055 C 0.44429 0.63488 0.4328 0.0
C1056 C 0.43391 0.63662 0.40892 0.0
C1057 C 0.43047 0.62614 0.45264 0.0
C1058 C 0.3664 0.61931 0.47356 0.0
H1059 H 0.34843 0.57053 0.59181 0.0
H1060 H 0.3749 0.58451 0.55824 0.0
H1061 H 0.33336 0.61861 0.49555 0.0
H1062 H 0.401 0.63054 0.38706 0.0
H1063 H 0.37681 0.61532 0.42175 0.0
H1064 H 0.41924 0.58788 0.48498 0.0
C1065 C 0.35551 0.58158 0.55441 0.0
C1066 C 0.35195 0.6115 0.49334 0.0
C1067 C 0.34032 0.57368 0.5737 0.0
C1068 C 0.40953 0.62925 0.40522 0.0
C1069 C 0.39563 0.62074 0.4251 0.0
C1070 C 0.40054 0.59473 0.48723 0.0
C1071 C 0.34561 0.58612 0.53068 0.0
C1072 C 0.36145 0.59494 0.51015 0.0
C1073 C 0.40591 0.61922 0.44903 0.0
C1074 C 0.39079 0.61095 0.47023 0.0
H1075 H 0.28563 0.57204 0.54212 0.0
H1076 H 0.31208 0.58517 0.50853 0.0
H1077 H 0.3938 0.57377 0.51933 0.0
H1078 H 0.46312 0.64028 0.43612 0.0
H1079 H 0.43881 0.62527 0.47092 0.0
C1080 C 0.1923 0.26405 0.41548 0.0
C1081 C 0.17792 0.24944 0.43045 0.0
C1082 C 0.21187 0.25499 0.40105 0.0
C1083 C 0.23533 0.20064 0.37287 0.0
H1084 H 0.29912 0.23047 0.37296 0.0
C1085 C 0.32337 0.15511 0.33464 0.0
C1086 C 0.34081 0.16832 0.3216 0.0
C1087 C 0.30335 0.16575 0.34694 0.0
C1088 C 0.28135 0.22208 0.37241 0.0
H1089 H 0.17279 0.21382 0.4418 0.0
H1090 H 0.20671 0.19815 0.4167 0.0
H1091 H 0.26426 0.2479 0.39567 0.0
H1092 H 0.35078 0.20329 0.31154 0.0
H1093 H 0.31547 0.22179 0.33239 0.0
H1094 H 0.25223 0.17487 0.3496 0.0
C1095 C 0.20281 0.21656 0.41596 0.0
C1096 C 0.26137 0.23208 0.38546 0.0
C1097 C 0.18342 0.2256 0.43047 0.0
C1098 C 0.33761 0.19251 0.32115 0.0
C1099 C 0.31749 0.20317 0.33339 0.0
C1100 C 0.25523 0.19072 0.35972 0.0
C1101 C 0.21732 0.23113 0.40112 0.0
C1102 C 0.23821 0.22132 0.38609 0.0
C1103 C 0.30007 0.18992 0.34643 0.0
C1104 C 0.2786 0.20114 0.35955 0.0
H1105 H 0.18857 0.28249 0.41502 0.0
H1106 H 0.22259 0.26664 0.38967 0.0
H1107 H 0.21761 0.19211 0.37262 0.0
H1108 H 0.325 0.13644 0.33516 0.0
H1109 H 0.29055 0.15498 0.35707 0.0
C1110 C 0.13876 0.11758 0.56873 0.0
C1111 C 0.12156 0.13239 0.55679 0.0
C1112 C 0.13147 0.09629 0.57837 0.0
C1113 C 0.08333 0.05167 0.57625 0.0
H1114 H 0.10556 0.03873 0.64337 0.0
C1115 C 0.04671 0.97533 0.63699 0.0
C1116 C 0.06344 0.96522 0.654 0.0
C1117 C 0.05367 0.99454 0.62271 0.0
C1118 C 0.09949 0.04177 0.62446 0.0
H1119 H 0.0832 0.13582 0.545 0.0
H1120 H 0.07061 0.09843 0.56156 0.0
H1121 H 0.11804 0.07406 0.62286 0.0
H1122 H 0.10107 0.96608 0.66792 0.0
H1123 H 0.11345 0.99865 0.64253 0.0
H1124 H 0.06486 0.01914 0.57789 0.0
C1125 C 0.08978 0.1034 0.56339 0.0
C1126 C 0.10662 0.06215 0.61272 0.0
C1127 C 0.09705 0.12483 0.55386 0.0
C1128 C 0.08763 0.97371 0.65526 0.0
C1129 C 0.09466 0.99257 0.64083 0.0
C1130 C 0.07631 0.03107 0.58797 0.0
C1131 C 0.10681 0.0891 0.57621 0.0
C1132 C 0.0988 0.06732 0.58843 0.0
C1133 C 0.07756 1.00381 0.62499 0.0
C1134 C 0.08449 0.02576 0.6122 0.0
H1135 H 0.15791 0.12252 0.57085 0.0
H1136 H 0.14517 0.08549 0.58772 0.0
H1137 H 0.07705 0.05514 0.55748 0.0
H1138 H 0.02789 0.96921 0.63572 0.0
H1139 H 0.03997 1.00273 0.61076 0.0
C1140 C 0.19563 0.903 0.83031 0.0
C1141 C 0.18507 0.8906 0.8107 0.0
C1142 C 0.2143 0.89302 0.84492 0.0
C1143 C 0.26227 0.8468 0.84472 0.0
H1144 H 0.26278 0.85789 0.9158 0.0
C1145 C 0.33219 0.80164 0.91121 0.0
C1146 C 0.34252 0.81532 0.92995 0.0
C1147 C 0.31284 0.8103 0.89647 0.0
C1148 C 0.26304 0.85483 0.89594 0.0
H1149 H 0.18581 0.85789 0.79116 0.0
H1150 H 0.21821 0.84025 0.81701 0.0
H1151 H 0.22885 0.87349 0.8907 0.0
H1152 H 0.34073 0.84893 0.94771 0.0
H1153 H 0.30713 0.86406 0.92187 0.0
H1154 H 0.29653 0.82815 0.85002 0.0
C1155 C 0.2122 0.85784 0.82086 0.0
C1156 C 0.24359 0.86375 0.88155 0.0
C1157 C 0.19346 0.86784 0.80622 0.0
C1158 C 0.33319 0.8379 0.93348 0.0
C1159 C 0.3138 0.84653 0.91878 0.0
C1160 C 0.28174 0.83783 0.85914 0.0
C1161 C 0.22287 0.87034 0.84035 0.0
C1162 C 0.24306 0.86 0.85575 0.0
C1163 C 0.30333 0.8328 0.90019 0.0
C1164 C 0.28243 0.84189 0.88488 0.0
H1165 H 0.18937 0.92045 0.83449 0.0
H1166 H 0.22229 0.90323 0.8596 0.0
H1167 H 0.2626 0.84385 0.82485 0.0
H1168 H 0.33889 0.78414 0.90801 0.0
H1169 H 0.30502 0.79921 0.88246 0.0
C1170 C 0.45597 0.09149 0.14188 0.0
C1171 C 0.45463 0.08899 0.16788 0.0
C1172 C 0.4502 0.07301 0.12627 0.0
C1173 C 0.44757 0.00962 0.12602 0.0
H1174 H 0.40295 0.0171 0.07007 0.0
C1175 C 0.42656 0.93373 0.06116 0.0
C1176 C 0.40127 0.93004 0.05664 0.0
C1177 C 0.4343 0.95436 0.07181 0.0
C1178 C 0.41547 0.01479 0.08562 0.0
H1179 H 0.44599 0.06509 0.19777 0.0
H1180 H 0.43615 0.0331 0.17066 0.0
H1181 H 0.4141 0.05087 0.09478 0.0
H1182 H 0.36443 0.94557 0.05869 0.0
H1183 H 0.37796 0.98162 0.07744 0.0
H1184 H 0.44864 0.9736 0.11733 0.0
C1185 C 0.44177 0.04925 0.16232 0.0
C1186 C 0.42199 0.03412 0.09961 0.0
C1187 C 0.44728 0.06769 0.17786 0.0
C1188 C 0.38401 0.94782 0.06215 0.0
C1189 C 0.39179 0.96854 0.07267 0.0
C1190 C 0.44126 0.9904 0.11194 0.0
C1191 C 0.44329 0.05163 0.13638 0.0
C1192 C 0.43779 0.03164 0.12021 0.0
C1193 C 0.41696 0.97183 0.07809 0.0
C1194 C 0.4249 0.99269 0.09177 0.0
H1195 H 0.4616 0.10766 0.13358 0.0
H1196 H 0.45162 0.07528 0.10632 0.0
H1197 H 0.45998 0.00722 0.14165 0.0
H1198 H 0.44031 0.92032 0.05734 0.0
H1199 H 0.45386 0.95648 0.07554 0.0
C1200 C 0.84171 0.38034 0.63348 0.0
C1201 C 0.84746 0.37344 0.65791 0.0
C1202 C 0.81976 0.37346 0.62224 0.0
C1203 C 0.77089 0.32944 0.62622 0.0
H1204 H 0.73697 0.37111 0.58054 0.0
C1205 C 0.67877 0.30728 0.57588 0.0
C1206 C 0.67866 0.31197 0.5502 0.0
C1207 C 0.69808 0.31509 0.59088 0.0
C1208 C 0.74628 0.35925 0.5932 0.0
H1209 H 0.83433 0.35395 0.68971 0.0
H1210 H 0.79562 0.34248 0.6703 0.0
H1211 H 0.77265 0.38453 0.60367 0.0
H1212 H 0.69867 0.32867 0.52022 0.0
H1213 H 0.73204 0.34233 0.54631 0.0
H1214 H 0.74431 0.30419 0.61562 0.0
C1215 C 0.80836 0.35293 0.6597 0.0
C1216 C 0.7668 0.36691 0.6064 0.0
C1217 C 0.83043 0.35975 0.67095 0.0
C1218 C 0.69816 0.32469 0.53991 0.0
C1219 C 0.71723 0.33269 0.55489 0.0
C1220 C 0.75019 0.32184 0.61313 0.0
C1221 C 0.80279 0.35964 0.63515 0.0
C1222 C 0.77969 0.35198 0.62272 0.0
C1223 C 0.71742 0.32801 0.58052 0.0
C1224 C 0.73798 0.33654 0.59612 0.0
H1225 H 0.85417 0.39115 0.62298 0.0
H1226 H 0.81634 0.3787 0.6032 0.0
H1227 H 0.78048 0.31738 0.63843 0.0
H1228 H 0.66403 0.29748 0.58437 0.0
H1229 H 0.69772 0.3113 0.61061 0.0
C1230 C 0.93314 0.46759 0.79527 0.0
C1231 C 0.95129 0.45266 0.80555 0.0
C1232 C 0.92657 0.48834 0.80701 0.0
C1233 C 0.92822 0.51913 0.86704 0.0
H1234 H 0.92102 0.57371 0.82554 0.0
C1235 C 0.91391 0.61079 0.90852 0.0
C1236 C 0.89687 0.62567 0.89646 0.0
C1237 C 0.92115 0.58971 0.89775 0.0
C1238 C 0.92266 0.55862 0.8374 0.0
H1239 H 0.97629 0.44781 0.83678 0.0
H1240 H 0.96476 0.48403 0.85721 0.0
H1241 H 0.93181 0.5367 0.80661 0.0
H1242 H 0.87453 0.63014 0.86327 0.0
H1243 H 0.88661 0.59327 0.84487 0.0
H1244 H 0.91884 0.54103 0.89783 0.0
C1245 C 0.95557 0.47956 0.84006 0.0
C1246 C 0.92887 0.53738 0.82653 0.0
C1247 C 0.96224 0.45881 0.82826 0.0
C1248 C 0.88744 0.61901 0.87326 0.0
C1249 C 0.89463 0.59795 0.86254 0.0
C1250 C 0.9219 0.5404 0.87793 0.0
C1251 C 0.93789 0.49472 0.82939 0.0
C1252 C 0.9316 0.51734 0.84118 0.0
C1253 C 0.91154 0.58298 0.87465 0.0
C1254 C 0.91892 0.56041 0.86323 0.0
H1255 H 0.92419 0.46349 0.77788 0.0
H1256 H 0.91259 0.49943 0.7985 0.0
H1257 H 0.92996 0.50399 0.87883 0.0
H1258 H 0.92137 0.61523 0.92651 0.0
H1259 H 0.93441 0.57875 0.9075 0.0
C1260 C 0.81262 0.73241 0.03662 0.0
C1261 C 0.83504 0.74131 0.04534 0.0
C1262 C 0.79357 0.727 0.05312 0.0
C1263 C 0.78068 0.71265 0.11852 0.0
H1264 H 0.71273 0.72622 0.09911 0.0
C1265 C 0.69626 0.69128 0.18128 0.0
C1266 C 0.67658 0.68046 0.16914 0.0
C1267 C 0.71562 0.70094 0.16757 0.0
C1268 C 0.7316 0.72222 0.10474 0.0
H1269 H 0.85498 0.75152 0.07838 0.0
H1270 H 0.82149 0.74207 0.10731 0.0
H1271 H 0.74675 0.73901 0.0728 0.0
H1272 H 0.66138 0.67192 0.13314 0.0
H1273 H 0.69516 0.68855 0.10926 0.0
H1274 H 0.76541 0.69558 0.15034 0.0
C1275 C 0.81883 0.73913 0.08763 0.0
C1276 C 0.75109 0.72952 0.08967 0.0
C1277 C 0.83799 0.74458 0.07106 0.0
C1278 C 0.67642 0.67991 0.14303 0.0
C1279 C 0.69565 0.68966 0.12935 0.0
C1280 C 0.76113 0.70537 0.13366 0.0
C1281 C 0.79636 0.73038 0.0788 0.0
C1282 C 0.77585 0.72443 0.0961 0.0
C1283 C 0.71555 0.70017 0.14144 0.0
C1284 C 0.73637 0.70969 0.12667 0.0
H1285 H 0.80971 0.72955 0.01696 0.0
H1286 H 0.7767 0.71987 0.04572 0.0
H1287 H 0.79953 0.7083 0.1239 0.0
H1288 H 0.69697 0.69184 0.2014 0.0
H1289 H 0.73062 0.70906 0.1774 0.0
C1290 C 0.59292 0.44107 0.42206 0.0
C1291 C 0.61326 0.4283 0.41248 0.0
C1292 C 0.58707 0.46315 0.41286 0.0
C1293 C 0.61441 0.51142 0.37651 0.0
H1294 H 0.54579 0.5309 0.36774 0.0
C1295 C 0.58442 0.58644 0.3124 0.0
C1296 C 0.56623 0.60219 0.32105 0.0
C1297 C 0.59056 0.56668 0.32612 0.0
C1298 C 0.56503 0.52581 0.37041 0.0
H1299 H 0.64343 0.42906 0.38564 0.0
H1300 H 0.63263 0.46687 0.36894 0.0
H1301 H 0.55533 0.49317 0.38615 0.0
H1302 H 0.54034 0.60967 0.35104 0.0
H1303 H 0.55087 0.57469 0.37497 0.0
H1304 H 0.62402 0.54373 0.3599 0.0
C1305 C 0.62146 0.4601 0.38397 0.0
C1306 C 0.57053 0.50419 0.38099 0.0
C1307 C 0.62742 0.43815 0.39329 0.0
C1308 C 0.55453 0.5979 0.34397 0.0
C1309 C 0.56042 0.57784 0.35757 0.0
C1310 C 0.60889 0.53287 0.36571 0.0
C1311 C 0.60134 0.47301 0.39374 0.0
C1312 C 0.59532 0.49656 0.38385 0.0
C1313 C 0.57843 0.562 0.34869 0.0
C1314 C 0.58416 0.54018 0.36225 0.0
H1315 H 0.58139 0.43398 0.43663 0.0
H1316 H 0.57156 0.4726 0.421 0.0
H1317 H 0.6337 0.50645 0.37898 0.0
H1318 H 0.59381 0.58928 0.29483 0.0
H1319 H 0.60434 0.55469 0.3187 0.0
C1320 C 0.36215 0.36557 0.14603 0.0
C1321 C 0.33654 0.37032 0.14738 0.0
C1322 C 0.37187 0.34434 0.15408 0.0
C1323 C 0.35494 0.28383 0.16598 0.0
H1324 H 0.41887 0.28192 0.19875 0.0
C1325 C 0.40515 0.19928 0.2011 0.0
C1326 C 0.43051 0.19777 0.19487 0.0
C1327 C 0.39156 0.2198 0.19677 0.0
C1328 C 0.40102 0.28217 0.18956 0.0
H1329 H 0.30106 0.35658 0.15864 0.0
H1330 H 0.31811 0.31942 0.17291 0.0
H1331 H 0.39913 0.31906 0.18941 0.0
H1332 H 0.46113 0.21636 0.1783 0.0
H1333 H 0.43757 0.25173 0.17088 0.0
H1334 H 0.35712 0.24675 0.16607 0.0
C1335 C 0.33061 0.33207 0.16529 0.0
C1336 C 0.38973 0.30345 0.18415 0.0
C1337 C 0.32086 0.35335 0.15716 0.0
C1338 C 0.44172 0.21691 0.18361 0.0
C1339 C 0.42826 0.23729 0.17945 0.0
C1340 C 0.36623 0.26245 0.17154 0.0
C1341 C 0.35624 0.32731 0.16379 0.0
C1342 C 0.36685 0.30458 0.17175 0.0
C1343 C 0.40318 0.23913 0.18634 0.0
C1344 C 0.38968 0.26146 0.18283 0.0
H1345 H 0.37468 0.37805 0.13811 0.0
H1346 H 0.39163 0.3411 0.15213 0.0
H1347 H 0.33736 0.28409 0.1563 0.0
H1348 H 0.39596 0.18486 0.2098 0.0
H1349 H 0.37221 0.22077 0.20223 0.0
C1350 C 0.93002 0.33402 0.81215 0.0
C1351 C 0.9271 0.34583 0.78944 0.0
C1352 C 0.91502 0.3154 0.81816 0.0
C1353 C 0.88014 0.26925 0.78955 0.0
H1354 H 0.85469 0.2604 0.85637 0.0
C1355 C 0.82733 0.18672 0.81859 0.0
C1356 C 0.83262 0.17761 0.84233 0.0
C1357 C 0.83615 0.20838 0.81143 0.0
C1358 C 0.86186 0.26245 0.83767 0.0
H1359 H 0.90568 0.34762 0.75542 0.0
H1360 H 0.87953 0.31469 0.76588 0.0
H1361 H 0.87424 0.29665 0.84531 0.0
H1362 H 0.8511 0.18455 0.87722 0.0
H1363 H 0.86716 0.22165 0.86448 0.0
H1364 H 0.86861 0.23475 0.78212 0.0
C1365 C 0.89348 0.32001 0.77901 0.0
C1366 C 0.87294 0.28331 0.83132 0.0
C1367 C 0.90831 0.33895 0.77312 0.0
C1368 C 0.84693 0.19076 0.85867 0.0
C1369 C 0.85583 0.21231 0.85148 0.0
C1370 C 0.86922 0.24826 0.79597 0.0
C1371 C 0.89687 0.3079 0.8015 0.0
C1372 C 0.88259 0.28681 0.80732 0.0
C1373 C 0.85052 0.22148 0.8278 0.0
C1374 C 0.86034 0.24443 0.82027 0.0
H1375 H 0.94424 0.33892 0.82519 0.0
H1376 H 0.91826 0.30633 0.83552 0.0
H1377 H 0.88763 0.27134 0.77098 0.0
H1378 H 0.81656 0.17703 0.80541 0.0
H1379 H 0.83151 0.21493 0.79312 0.0
C1380 C 0.11572 0.63806 0.08247 0.0
C1381 C 0.11615 0.61468 0.08962 0.0
C1382 C 0.0945 0.64811 0.072 0.0
C1383 C 0.02689 0.64191 0.06609 0.0
H1384 H 0.0357 0.68582 0.0123 0.0
C1385 C 0.94482 0.69046 0.01706 0.0
C1386 C 0.94808 0.71443 0.01472 0.0
C1387 C 0.96462 0.676 0.02444 0.0
C1388 C 0.03294 0.67362 0.02733 0.0
H1389 H 0.09436 0.5836 0.09158 0.0
H1390 H 0.05723 0.60116 0.07288 0.0
H1391 H 0.07154 0.66469 0.0287 0.0
H1392 H 0.97476 0.74191 0.01796 0.0
H1393 H 0.009 0.71682 0.03061 0.0
H1394 H 0.9882 0.65119 0.06478 0.0
C1395 C 0.07337 0.61171 0.07561 0.0
C1396 C 0.05347 0.66157 0.03679 0.0
C1397 C 0.0947 0.60161 0.08613 0.0
C1398 C 0.97154 0.72355 0.01958 0.0
C1399 C 0.99127 0.70914 0.02668 0.0
C1400 C 0.00626 0.65396 0.05653 0.0
C1401 C 0.07313 0.63505 0.06824 0.0
C1402 C 0.05081 0.646 0.05669 0.0
C1403 C 0.98806 0.68523 0.02925 0.0
C1404 C 0.0092 0.67035 0.03745 0.0
H1405 H 0.13199 0.64858 0.08453 0.0
H1406 H 0.09483 0.66622 0.06692 0.0
H1407 H 0.02423 0.63011 0.0815 0.0
H1408 H 0.92696 0.68291 0.01347 0.0
H1409 H 0.96166 0.65761 0.02619 0.0
C1410 C 0.65459 0.88174 0.33543 0.0
C1411 C 0.6801 0.88587 0.3328 0.0
C1412 C 0.64494 0.86015 0.32982 0.0
C1413 C 0.66202 0.79831 0.3211 0.0
H1414 H 0.59745 0.79698 0.28972 0.0
C1415 C 0.6129 0.7139 0.28857 0.0
C1416 C 0.58751 0.7129 0.29465 0.0
C1417 C 0.62613 0.73424 0.29261 0.0
C1418 C 0.61545 0.79704 0.2986 0.0
H1419 H 0.71547 0.87018 0.32238 0.0
H1420 H 0.69848 0.83256 0.31202 0.0
H1421 H 0.6168 0.83388 0.29738 0.0
H1422 H 0.5565 0.73233 0.31064 0.0
H1423 H 0.5794 0.76733 0.31754 0.0
H1424 H 0.66044 0.76124 0.32218 0.0
C1425 C 0.686 0.84605 0.31872 0.0
C1426 C 0.62654 0.81822 0.30308 0.0
C1427 C 0.69571 0.86772 0.3244 0.0
C1428 C 0.57594 0.73243 0.30546 0.0
C1429 C 0.58905 0.75263 0.30933 0.0
C1430 C 0.65092 0.77701 0.31647 0.0
C1431 C 0.66045 0.84204 0.32123 0.0
C1432 C 0.64973 0.81921 0.31486 0.0
C1433 C 0.61417 0.75396 0.30261 0.0
C1434 C 0.62726 0.77619 0.30563 0.0
H1435 H 0.64191 0.89532 0.34152 0.0
H1436 H 0.62524 0.85765 0.33238 0.0
H1437 H 0.67983 0.79841 0.33031 0.0
H1438 H 0.62239 0.69921 0.2802 0.0
H1439 H 0.6455 0.73477 0.28723 0.0
C1440 C 0.56972 0.36177 0.52566 0.0
C1441 C 0.56612 0.33776 0.5257 0.0
C1442 C 0.55128 0.37686 0.53503 0.0
C1443 C 0.49685 0.37704 0.57733 0.0
H1444 H 0.47795 0.43423 0.54419 0.0
C1445 C 0.40647 0.42602 0.60182 0.0
C1446 C 0.40728 0.45017 0.60403 0.0
C1447 C 0.42674 0.41351 0.59226 0.0
C1448 C 0.48323 0.41843 0.5538 0.0
H1449 H 0.53993 0.31093 0.53495 0.0
H1450 H 0.5081 0.33702 0.55085 0.0
H1451 H 0.51205 0.4104 0.52739 0.0
H1452 H 0.4299 0.48018 0.59743 0.0
H1453 H 0.46546 0.45825 0.58077 0.0
H1454 H 0.46798 0.38481 0.60354 0.0
C1455 C 0.52526 0.34426 0.54411 0.0
C1456 C 0.50277 0.40481 0.54421 0.0
C1457 C 0.54354 0.32928 0.5348 0.0
C1458 C 0.42879 0.46156 0.59616 0.0
C1459 C 0.44906 0.44903 0.58642 0.0
C1460 C 0.47736 0.39058 0.58685 0.0
C1461 C 0.52897 0.36821 0.54469 0.0
C1462 C 0.50953 0.38375 0.55565 0.0
C1463 C 0.44834 0.42483 0.58458 0.0
C1464 C 0.47004 0.41125 0.57501 0.0
H1465 H 0.58686 0.36888 0.51872 0.0
H1466 H 0.55473 0.39523 0.53525 0.0
H1467 H 0.50195 0.36121 0.58697 0.0
H1468 H 0.39029 0.41669 0.6079 0.0
H1469 H 0.42546 0.39491 0.5908 0.0
C1470 C 0.17696 0.70445 0.61823 0.0
C1471 C 0.17437 0.685 0.6337 0.0
C1472 C 0.1666 0.72586 0.62497 0.0
C1473 C 0.1407 0.75916 0.67857 0.0
H1474 H 0.11022 0.79626 0.62648 0.0
C1475 C 0.10209 0.85207 0.69637 0.0
C1476 C 0.07964 0.85837 0.68466 0.0
C1477 C 0.11451 0.83133 0.6903 0.0
C1478 C 0.11848 0.78609 0.64133 0.0
H1479 H 0.15904 0.67299 0.66863 0.0
H1480 H 0.14071 0.71034 0.68034 0.0
H1481 H 0.12969 0.75928 0.6162 0.0
H1482 H 0.05281 0.84751 0.65724 0.0
H1483 H 0.0742 0.81151 0.64698 0.0
H1484 H 0.12878 0.78575 0.7038 0.0
C1485 C 0.15108 0.7091 0.66309 0.0
C1486 C 0.12997 0.76495 0.63536 0.0
C1487 C 0.16156 0.68765 0.65637 0.0
C1488 C 0.07009 0.84343 0.6666 0.0
C1489 C 0.08247 0.82273 0.66058 0.0
C1490 C 0.12914 0.78033 0.68455 0.0
C1491 C 0.15325 0.72847 0.64736 0.0
C1492 C 0.14123 0.75115 0.65388 0.0
C1493 C 0.10483 0.81634 0.67237 0.0
C1494 C 0.11777 0.79405 0.66601 0.0
H1495 H 0.18714 0.70315 0.60087 0.0
H1496 H 0.16918 0.74044 0.61263 0.0
H1497 H 0.14938 0.74916 0.6933 0.0
H1498 H 0.11008 0.86307 0.71036 0.0
H1499 H 0.13183 0.82716 0.69954 0.0
C1500 C 0.45654 0.83953 0.9302 0.0
C1501 C 0.45077 0.83683 0.95555 0.0
C1502 C 0.47513 0.85449 0.92259 0.0
C1503 C 0.53218 0.88149 0.94349 0.0
H1504 H 0.52225 0.92022 0.88529 0.0
C1505 C 0.60852 0.94198 0.90575 0.0
C1506 C 0.61136 0.94305 0.87974 0.0
C1507 C 0.58829 0.93075 0.91645 0.0
C1508 C 0.52545 0.90936 0.90143 0.0
H1509 H 0.45995 0.84798 0.99281 0.0
H1510 H 0.49276 0.87407 0.97942 0.0
H1511 H 0.48796 0.89779 0.90152 0.0
H1512 H 0.59476 0.9334 0.84468 0.0
H1513 H 0.5601 0.9133 0.86325 0.0
H1514 H 0.56987 0.89256 0.94301 0.0
C1515 C 0.4828 0.8645 0.9655 0.0
C1516 C 0.50574 0.89657 0.91079 0.0
C1517 C 0.46394 0.84965 0.97314 0.0
C1518 C 0.59341 0.93268 0.86476 0.0
C1519 C 0.57327 0.92142 0.87544 0.0
C1520 C 0.55198 0.8942 0.93403 0.0
C1521 C 0.48859 0.86704 0.94012 0.0
C1522 C 0.50897 0.88221 0.93168 0.0
C1523 C 0.5704 0.92031 0.90143 0.0
C1524 C 0.54897 0.90802 0.91263 0.0
H1525 H 0.44678 0.82999 0.91611 0.0
H1526 H 0.47934 0.85583 0.90293 0.0
H1527 H 0.5353 0.87043 0.95949 0.0
H1528 H 0.6221 0.94957 0.91788 0.0
H1529 H 0.58659 0.93042 0.93652 0.0
C1530 C 0.93556 0.12529 0.357 0.0
C1531 C 0.91949 0.11161 0.3712 0.0
C1532 C 0.95374 0.13836 0.36844 0.0
C1533 C 0.99118 0.14424 0.42481 0.0
H1534 H 0.99659 0.20766 0.40234 0.0
C1535 C 0.05865 0.21027 0.46903 0.0
C1536 C 0.07021 0.22558 0.45245 0.0
C1537 C 0.04009 0.19553 0.46066 0.0
C1538 C 0.99558 0.18992 0.40866 0.0
H1539 H 0.91049 0.10058 0.40873 0.0
H1540 H 0.94268 0.12323 0.4287 0.0
H1541 H 0.96485 0.18332 0.38487 0.0
H1542 H 0.07213 0.23655 0.41386 0.0
H1543 H 0.04049 0.21073 0.39934 0.0
H1544 H 0.02233 0.15081 0.4483 0.0
C1545 C 0.94104 0.12377 0.40865 0.0
C1546 C 0.97731 0.17599 0.39867 0.0
C1547 C 0.92264 0.11078 0.39718 0.0
C1548 C 0.06339 0.22527 0.42726 0.0
C1549 C 0.04507 0.21052 0.41893 0.0
C1550 C 0.00968 0.15819 0.43473 0.0
C1551 C 0.95651 0.13798 0.3944 0.0
C1552 C 0.97512 0.15291 0.40633 0.0
C1553 C 0.03283 0.19576 0.43554 0.0
C1554 C 0.01234 0.18111 0.42644 0.0
H1555 H 0.93415 0.12591 0.33692 0.0
H1556 H 0.96572 0.14878 0.35692 0.0
H1557 H 0.98995 0.12648 0.43101 0.0
H1558 H 0.06351 0.21004 0.48855 0.0
H1559 H 0.03101 0.18442 0.47398 0.0
loop_
_geom_bond_atom_site_label_1
_geom_bond_atom_site_label_2
_geom_bond_distance
_geom_bond_site_symmetry_2
_ccdc_geom_bond_type
Tb0 C10 2.825 . S
Tb0 O11 2.347 . S
Tb0 O14 2.366 . S
Tb0 O19 2.418 . S
Tb0 O20 2.384 . S
Tb0 O23 2.479 . S
Tb0 O24 2.471 . S
Eu1 O12 2.418 . S
Eu1 O13 2.384 . S
Eu1 O16 2.479 . S
Eu1 O17 2.471 . S
Eu1 O18 2.347 . S
Eu1 O21 2.366 . S
Eu1 C31 2.825 . S
C2 O18 1.259 . S
C2 O19 1.265 . S
C3 O20 1.255 . S
C3 O21 1.265 . S
C4 C6 1.380 . S
C4 C7 1.374 . S
C4 C10 1.507 . S
C5 C6 1.384 . S
C5 C9 1.387 . S
C5 H32 0.930 . S
C6 C4 1.380 . S
C6 C5 1.384 . S
C6 H33 0.931 . S
C7 C4 1.374 . S
C7 C8 1.390 . S
C7 H34 0.930 . S
C8 C7 1.390 . S
C8 C9 1.391 . S
C8 H35 0.930 . S
C9 C5 1.387 . S
C9 C8 1.391 . S
C10 Tb0 2.825 . S
C10 C4 1.507 . S
C10 O23 1.238 . S
C10 O24 1.247 . S
O11 Tb0 2.347 . S
O11 C15 1.259 . S
O12 Eu1 2.418 . S
O12 C15 1.265 . S
O13 Eu1 2.384 . S
O13 C22 1.255 . S
O14 Tb0 2.366 . S
O14 C22 1.265 . S
C15 O11 1.259 . S
C15 O12 1.265 . S
O16 Eu1 2.479 . S
O16 C31 1.238 . S
O17 Eu1 2.471 . S
O17 C31 1.247 . S
O18 Eu1 2.347 . S
O18 C2 1.259 . S
O19 Tb0 2.418 . S
O19 C2 1.265 . S
O20 Tb0 2.384 . S
O20 C3 1.255 . S
O21 Eu1 2.366 . S
O21 C3 1.265 . S
C22 O13 1.255 . S
C22 O14 1.265 . S
O23 Tb0 2.479 . S
O23 C10 1.238 . S
O24 Tb0 2.471 . S
O24 C10 1.247 . S
C25 C28 1.380 . S
C25 C29 1.374 . S
C25 C31 1.507 . S
C26 C27 1.387 . S
C26 C30 1.391 . S
C27 C26 1.387 . S
C27 C28 1.384 . S
C27 H36 0.930 . S
C28 C25 1.380 . S
C28 C27 1.384 . S
C28 H37 0.931 . S
C29 C25 1.374 . S
C29 C30 1.390 . S
C29 H38 0.930 . S
C30 C26 1.391 . S
C30 C29 1.390 . S
C30 H39 0.930 . S
C31 Eu1 2.825 . S
C31 O16 1.238 . S
C31 O17 1.247 . S
C31 C25 1.507 . S
H32 C5 0.930 . S
H33 C6 0.931 . S
H34 C7 0.930 . S
H35 C8 0.930 . S
H36 C27 0.930 . S
H37 C28 0.931 . S
H38 C29 0.930 . S
H39 C30 0.930 . S
Tb40 C50 2.825 1_455 S
Tb40 O51 2.347 . S
Tb40 O54 2.366 . S
Tb40 O59 2.418 . S
Tb40 O60 2.384 . S
Tb40 O63 2.479 1_455 S
Tb40 O64 2.471 1_455 S
Eu41 O52 2.418 . S
Eu41 O53 2.384 . S
Eu41 O56 2.479 . S
Eu41 O57 2.471 . S
Eu41 O58 2.347 . S
Eu41 O61 2.366 . S
Eu41 C71 2.825 . S
C42 O58 1.259 . S
C42 O59 1.265 . S
C43 O60 1.255 . S
C43 O61 1.265 . S
C44 C46 1.380 . S
C44 C47 1.374 . S
C44 C50 1.507 . S
C45 C46 1.384 . S
C45 C49 1.387 . S
C45 H72 0.930 . S
C46 C44 1.380 . S
C46 C45 1.384 . S
C46 H73 0.931 . S
C47 C44 1.374 . S
C47 C48 1.390 . S
C47 H74 0.930 . S
C48 C47 1.390 . S
C48 C49 1.391 . S
C48 H75 0.930 . S
C49 C45 1.387 . S
C49 C48 1.391 . S
C50 Tb40 2.825 1_655 S
C50 C44 1.507 . S
C50 O63 1.238 . S
C50 O64 1.247 . S
O51 Tb40 2.347 . S
O51 C55 1.259 . S
O52 Eu41 2.418 . S
O52 C55 1.265 . S
O53 Eu41 2.384 . S
O53 C62 1.255 . S
O54 Tb40 2.366 . S
O54 C62 1.265 . S
C55 O51 1.259 . S
C55 O52 1.265 . S
O56 Eu41 2.479 . S
O56 C71 1.238 . S
O57 Eu41 2.471 . S
O57 C71 1.247 . S
O58 Eu41 2.347 . S
O58 C42 1.259 . S
O59 Tb40 2.418 . S
O59 C42 1.265 . S
O60 Tb40 2.384 . S
O60 C43 1.255 . S
O61 Eu41 2.366 . S
O61 C43 1.265 . S
C62 O53 1.255 . S
C62 O54 1.265 . S
O63 Tb40 2.479 1_655 S
O63 C50 1.238 . S
O64 Tb40 2.471 1_655 S
O64 C50 1.247 . S
C65 C68 1.380 . S
C65 C69 1.374 . S
C65 C71 1.507 . S
C66 C67 1.387 . S
C66 C70 1.391 . S
C67 C66 1.387 . S
C67 C68 1.384 . S
C67 H76 0.930 . S
C68 C65 1.380 . S
C68 C67 1.384 . S
C68 H77 0.931 . S
C69 C65 1.374 . S
C69 C70 1.390 . S
C69 H78 0.930 . S
C70 C66 1.391 . S
C70 C69 1.390 . S
C70 H79 0.930 . S
C71 Eu41 2.825 . S
C71 O56 1.238 . S
C71 O57 1.247 . S
C71 C65 1.507 . S
H72 C45 0.930 . S
H73 C46 0.931 . S
H74 C47 0.930 . S
H75 C48 0.930 . S
H76 C67 0.930 . S
H77 C68 0.931 . S
H78 C69 0.930 . S
H79 C70 0.930 . S
Tb80 C90 2.825 . S
Tb80 O91 2.347 . S
Tb80 O94 2.366 1_554 S
Tb80 O99 2.418 1_554 S
Tb80 O100 2.384 . S
Tb80 O103 2.479 . S
Tb80 O104 2.471 . S
Eu81 O92 2.418 . S
Eu81 O93 2.384 . S
Eu81 O96 2.479 . S
Eu81 O97 2.471 . S
Eu81 O98 2.347 . S
Eu81 O101 2.366 . S
Eu81 C111 2.825 . S
C82 O98 1.259 . S
C82 O99 1.265 . S
C83 O100 1.255 1_556 S
C83 O101 1.265 . S
C84 C86 1.380 . S
C84 C87 1.374 . S
C84 C90 1.507 . S
C85 C86 1.384 . S
C85 C89 1.387 . S
C85 H112 0.930 . S
C86 C84 1.380 . S
C86 C85 1.384 . S
C86 H113 0.931 . S
C87 C84 1.374 . S
C87 C88 1.390 . S
C87 H114 0.930 . S
C88 C87 1.390 . S
C88 C89 1.391 . S
C88 H115 0.930 . S
C89 C85 1.387 . S
C89 C88 1.391 . S
C90 Tb80 2.825 . S
C90 C84 1.507 . S
C90 O103 1.238 . S
C90 O104 1.247 . S
O91 Tb80 2.347 . S
O91 C95 1.259 . S
O92 Eu81 2.418 . S
O92 C95 1.265 1_556 S
O93 Eu81 2.384 . S
O93 C102 1.255 . S
O94 Tb80 2.366 1_556 S
O94 C102 1.265 . S
C95 O91 1.259 . S
C95 O92 1.265 1_554 S
O96 Eu81 2.479 . S
O96 C111 1.238 . S
O97 Eu81 2.471 . S
O97 C111 1.247 . S
O98 Eu81 2.347 . S
O98 C82 1.259 . S
O99 Tb80 2.418 1_556 S
O99 C82 1.265 . S
O100 Tb80 2.384 . S
O100 C83 1.255 1_554 S
O101 Eu81 2.366 . S
O101 C83 1.265 . S
C102 O93 1.255 . S
C102 O94 1.265 . S
O103 Tb80 2.479 . S
O103 C90 1.238 . S
O104 Tb80 2.471 . S
O104 C90 1.247 . S
C105 C108 1.380 . S
C105 C109 1.374 . S
C105 C111 1.507 . S
C106 C107 1.387 . S
C106 C110 1.391 . S
C107 C106 1.387 . S
C107 C108 1.384 . S
C107 H116 0.930 . S
C108 C105 1.380 . S
C108 C107 1.384 . S
C108 H117 0.931 . S
C109 C105 1.374 . S
C109 C110 1.390 . S
C109 H118 0.930 . S
C110 C106 1.391 . S
C110 C109 1.390 . S
C110 H119 0.930 . S
C111 Eu81 2.825 . S
C111 O96 1.238 . S
C111 O97 1.247 . S
C111 C105 1.507 . S
H112 C85 0.930 . S
H113 C86 0.931 . S
H114 C87 0.930 . S
H115 C88 0.930 . S
H116 C107 0.930 . S
H117 C108 0.931 . S
H118 C109 0.930 . S
H119 C110 0.930 . S
Tb120 C130 2.825 . S
Tb120 O131 2.347 . S
Tb120 O134 2.366 . S
Tb120 O139 2.418 . S
Tb120 O140 2.384 . S
Tb120 O143 2.479 . S
Tb120 O144 2.471 . S
Eu121 O132 2.418 . S
Eu121 O133 2.384 . S
Eu121 O136 2.479 . S
Eu121 O137 2.471 . S
Eu121 O138 2.347 . S
Eu121 O141 2.366 . S
Eu121 C151 2.825 . S
C122 O138 1.259 . S
C122 O139 1.265 . S
C123 O140 1.255 . S
C123 O141 1.265 . S
C124 C126 1.380 . S
C124 C127 1.374 . S
C124 C130 1.507 . S
C125 C126 1.384 . S
C125 C129 1.387 . S
C125 H152 0.930 . S
C126 C124 1.380 . S
C126 C125 1.384 . S
C126 H153 0.931 . S
C127 C124 1.374 . S
C127 C128 1.390 . S
C127 H154 0.930 . S
C128 C127 1.390 . S
C128 C129 1.391 . S
C128 H155 0.930 . S
C129 C125 1.387 . S
C129 C128 1.391 . S
C130 Tb120 2.825 . S
C130 C124 1.507 . S
C130 O143 1.238 . S
C130 O144 1.247 . S
O131 Tb120 2.347 . S
O131 C135 1.259 . S
O132 Eu121 2.418 . S
O132 C135 1.265 . S
O133 Eu121 2.384 . S
O133 C142 1.255 . S
O134 Tb120 2.366 . S
O134 C142 1.265 . S
C135 O131 1.259 . S
C135 O132 1.265 . S
O136 Eu121 2.479 . S
O136 C151 1.238 . S
O137 Eu121 2.471 . S
O137 C151 1.247 . S
O138 Eu121 2.347 . S
O138 C122 1.259 . S
O139 Tb120 2.418 . S
O139 C122 1.265 . S
O140 Tb120 2.384 . S
O140 C123 1.255 . S
O141 Eu121 2.366 . S
O141 C123 1.265 . S
C142 O133 1.255 . S
C142 O134 1.265 . S
O143 Tb120 2.479 . S
O143 C130 1.238 . S
O144 Tb120 2.471 . S
O144 C130 1.247 . S
C145 C148 1.380 . S
C145 C149 1.374 . S
C145 C151 1.507 . S
C146 C147 1.387 . S
C146 C150 1.391 . S
C147 C146 1.387 . S
C147 C148 1.384 . S
C147 H156 0.930 . S
C148 C145 1.380 . S
C148 C147 1.384 . S
C148 H157 0.931 . S
C149 C145 1.374 . S
C149 C150 1.390 . S
C149 H158 0.930 . S
C150 C146 1.391 . S
C150 C149 1.390 . S
C150 H159 0.930 . S
C151 Eu121 2.825 . S
C151 O136 1.238 . S
C151 O137 1.247 . S
C151 C145 1.507 . S
H152 C125 0.930 . S
H153 C126 0.931 . S
H154 C127 0.930 . S
H155 C128 0.930 . S
H156 C147 0.930 . S
H157 C148 0.931 . S
H158 C149 0.930 . S
H159 C150 0.930 . S
Tb160 C170 2.825 . S
Tb160 O171 2.347 . S
Tb160 O174 2.366 . S
Tb160 O179 2.418 . S
Tb160 O180 2.384 . S
Tb160 O183 2.479 . S
Tb160 O184 2.471 . S
Eu161 O172 2.418 . S
Eu161 O173 2.384 . S
Eu161 O176 2.479 . S
Eu161 O177 2.471 . S
Eu161 O178 2.347 . S
Eu161 O181 2.366 . S
Eu161 C191 2.825 . S
C162 O178 1.259 . S
C162 O179 1.265 . S
C163 O180 1.255 . S
C163 O181 1.265 . S
C164 C166 1.380 . S
C164 C167 1.374 . S
C164 C170 1.507 . S
C165 C166 1.384 . S
C165 C169 1.387 . S
C165 H192 0.930 . S
C166 C164 1.380 . S
C166 C165 1.384 . S
C166 H193 0.931 . S
C167 C164 1.374 . S
C167 C168 1.390 . S
C167 H194 0.930 . S
C168 C167 1.390 . S
C168 C169 1.391 . S
C168 H195 0.930 . S
C169 C165 1.387 . S
C169 C168 1.391 . S
C170 Tb160 2.825 . S
C170 C164 1.507 . S
C170 O183 1.238 . S
C170 O184 1.247 . S
O171 Tb160 2.347 . S
O171 C175 1.259 . S
O172 Eu161 2.418 . S
O172 C175 1.265 . S
O173 Eu161 2.384 . S
O173 C182 1.255 . S
O174 Tb160 2.366 . S
O174 C182 1.265 . S
C175 O171 1.259 . S
C175 O172 1.265 . S
O176 Eu161 2.479 . S
O176 C191 1.238 . S
O177 Eu161 2.471 . S
O177 C191 1.247 . S
O178 Eu161 2.347 . S
O178 C162 1.259 . S
O179 Tb160 2.418 . S
O179 C162 1.265 . S
O180 Tb160 2.384 . S
O180 C163 1.255 . S
O181 Eu161 2.366 . S
O181 C163 1.265 . S
C182 O173 1.255 . S
C182 O174 1.265 . S
O183 Tb160 2.479 . S
O183 C170 1.238 . S
O184 Tb160 2.471 . S
O184 C170 1.247 . S
C185 C188 1.380 . S
C185 C189 1.374 . S
C185 C191 1.507 . S
C186 C187 1.387 . S
C186 C190 1.391 . S
C187 C186 1.387 . S
C187 C188 1.384 . S
C187 H196 0.930 . S
C188 C185 1.380 . S
C188 C187 1.384 . S
C188 H197 0.931 . S
C189 C185 1.374 . S
C189 C190 1.390 . S
C189 H198 0.930 . S
C190 C186 1.391 . S
C190 C189 1.390 . S
C190 H199 0.930 . S
C191 Eu161 2.825 . S
C191 O176 1.238 . S
C191 O177 1.247 . S
C191 C185 1.507 . S
H192 C165 0.930 . S
H193 C166 0.931 . S
H194 C167 0.930 . S
H195 C168 0.930 . S
H196 C187 0.930 . S
H197 C188 0.931 . S
H198 C189 0.930 . S
H199 C190 0.930 . S
Tb200 C210 2.825 . S
Tb200 O211 2.347 . S
Tb200 O214 2.366 . S
Tb200 O219 2.418 . S
Tb200 O220 2.384 . S
Tb200 O223 2.479 . S
Tb200 O224 2.471 . S
Eu201 O212 2.418 1_655 S
Eu201 O213 2.384 . S
Eu201 O216 2.479 1_655 S
Eu201 O217 2.471 1_655 S
Eu201 O218 2.347 . S
Eu201 O221 2.366 1_655 S
Eu201 C231 2.825 1_655 S
C202 O218 1.259 . S
C202 O219 1.265 . S
C203 O220 1.255 1_455 S
C203 O221 1.265 . S
C204 C206 1.380 . S
C204 C207 1.374 . S
C204 C210 1.507 . S
C205 C206 1.384 . S
C205 C209 1.387 . S
C205 H232 0.930 . S
C206 C204 1.380 . S
C206 C205 1.384 . S
C206 H233 0.931 . S
C207 C204 1.374 . S
C207 C208 1.390 . S
C207 H234 0.930 . S
C208 C207 1.390 . S
C208 C209 1.391 . S
C208 H235 0.930 . S
C209 C205 1.387 . S
C209 C208 1.391 . S
C210 Tb200 2.825 . S
C210 C204 1.507 . S
C210 O223 1.238 . S
C210 O224 1.247 . S
O211 Tb200 2.347 . S
O211 C215 1.239 1_655 S
O212 Eu201 2.418 1_455 S
O212 C215 1.282 . S
O213 Eu201 2.384 . S
O213 C222 1.255 . S
O214 Tb200 2.366 . S
O214 C222 1.265 . S
C215 O211 1.239 1_455 S
C215 O212 1.282 . S
O216 Eu201 2.479 1_455 S
O216 C231 1.238 . S
O217 Eu201 2.471 1_455 S
O217 C231 1.247 . S
O218 Eu201 2.347 . S
O218 C202 1.259 . S
O219 Tb200 2.418 . S
O219 C202 1.265 . S
O220 Tb200 2.384 . S
O220 C203 1.255 1_655 S
O221 Eu201 2.366 1_455 S
O221 C203 1.265 . S
C222 O213 1.255 . S
C222 O214 1.265 . S
O223 Tb200 2.479 . S
O223 C210 1.238 . S
O224 Tb200 2.471 . S
O224 C210 1.247 . S
C225 C228 1.380 . S
C225 C229 1.374 . S
C225 C231 1.507 . S
C226 C227 1.387 . S
C226 C230 1.391 . S
C227 C226 1.387 . S
C227 C228 1.384 . S
C227 H236 0.930 . S
C228 C225 1.380 . S
C228 C227 1.384 . S
C228 H237 0.931 . S
C229 C225 1.374 . S
C229 C230 1.390 . S
C229 H238 0.930 . S
C230 C226 1.391 . S
C230 C229 1.390 . S
C230 H239 0.930 . S
C231 Eu201 2.825 1_455 S
C231 O216 1.238 . S
C231 O217 1.247 . S
C231 C225 1.507 . S
H232 C205 0.930 . S
H233 C206 0.931 . S
H234 C207 0.930 . S
H235 C208 0.930 . S
H236 C227 0.930 . S
H237 C228 0.931 . S
H238 C229 0.930 . S
H239 C230 0.930 . S
Tb240 C250 2.825 . S
Tb240 O251 2.347 1_554 S
Tb240 O254 2.366 . S
Tb240 O259 2.418 . S
Tb240 O260 2.384 1_554 S
Tb240 O263 2.479 . S
Tb240 O264 2.471 . S
Eu241 O252 2.418 . S
Eu241 O253 2.384 1_556 S
Eu241 O256 2.479 . S
Eu241 O257 2.471 . S
Eu241 O258 2.347 1_556 S
Eu241 O261 2.366 . S
Eu241 C271 2.825 . S
C242 O258 1.259 . S
C242 O259 1.265 . S
C243 O260 1.255 . S
C243 O261 1.265 . S
C244 C246 1.380 . S
C244 C247 1.374 . S
C244 C250 1.507 . S
C245 C246 1.384 . S
C245 C249 1.387 . S
C245 H272 0.930 . S
C246 C244 1.380 . S
C246 C245 1.384 . S
C246 H273 0.931 . S
C247 C244 1.374 . S
C247 C248 1.390 . S
C247 H274 0.930 . S
C248 C247 1.390 . S
C248 C249 1.391 . S
C248 H275 0.930 . S
C249 C245 1.387 . S
C249 C248 1.391 . S
C250 Tb240 2.825 . S
C250 C244 1.507 . S
C250 O263 1.238 . S
C250 O264 1.247 . S
O251 Tb240 2.347 1_556 S
O251 C255 1.259 . S
O252 Eu241 2.418 . S
O252 C255 1.265 . S
O253 Eu241 2.384 1_554 S
O253 C262 1.255 . S
O254 Tb240 2.366 . S
O254 C262 1.265 . S
C255 O251 1.259 . S
C255 O252 1.265 . S
O256 Eu241 2.479 . S
O256 C271 1.238 . S
O257 Eu241 2.471 . S
O257 C271 1.247 . S
O258 Eu241 2.347 1_554 S
O258 C242 1.259 . S
O259 Tb240 2.418 . S
O259 C242 1.265 . S
O260 Tb240 2.384 1_556 S
O260 C243 1.255 . S
O261 Eu241 2.366 . S
O261 C243 1.265 . S
C262 O253 1.255 . S
C262 O254 1.265 . S
O263 Tb240 2.479 . S
O263 C250 1.238 . S
O264 Tb240 2.471 . S
O264 C250 1.247 . S
C265 C268 1.380 . S
C265 C269 1.374 . S
C265 C271 1.507 . S
C266 C267 1.387 . S
C266 C270 1.391 . S
C267 C266 1.387 . S
C267 C268 1.384 . S
C267 H276 0.930 . S
C268 C265 1.380 . S
C268 C267 1.384 . S
C268 H277 0.931 . S
C269 C265 1.374 . S
C269 C270 1.390 . S
C269 H278 0.930 . S
C270 C266 1.391 . S
C270 C269 1.390 . S
C270 H279 0.930 . S
C271 Eu241 2.825 . S
C271 O256 1.238 . S
C271 O257 1.247 . S
C271 C265 1.507 . S
H272 C245 0.930 . S
H273 C246 0.931 . S
H274 C247 0.930 . S
H275 C248 0.930 . S
H276 C267 0.930 . S
H277 C268 0.931 . S
H278 C269 0.930 . S
H279 C270 0.930 . S
Tb280 C290 2.825 . S
Tb280 O291 2.347 . S
Tb280 O294 2.366 . S
Tb280 O299 2.418 . S
Tb280 O300 2.384 . S
Tb280 O303 2.479 . S
Tb280 O304 2.471 . S
Eu281 O292 2.418 . S
Eu281 O293 2.384 . S
Eu281 O296 2.479 . S
Eu281 O297 2.471 . S
Eu281 O298 2.347 . S
Eu281 O301 2.366 . S
Eu281 C311 2.825 . S
C282 O298 1.259 . S
C282 O299 1.265 . S
C283 O300 1.255 . S
C283 O301 1.265 . S
C284 C286 1.380 . S
C284 C287 1.374 . S
C284 C290 1.507 . S
C285 C286 1.384 . S
C285 C289 1.387 . S
C285 H312 0.930 . S
C286 C284 1.380 . S
C286 C285 1.384 . S
C286 H313 0.931 . S
C287 C284 1.374 . S
C287 C288 1.390 . S
C287 H314 0.930 . S
C288 C287 1.390 . S
C288 C289 1.391 . S
C288 H315 0.930 . S
C289 C285 1.387 . S
C289 C288 1.391 . S
C290 Tb280 2.825 . S
C290 C284 1.507 . S
C290 O303 1.238 . S
C290 O304 1.247 . S
O291 Tb280 2.347 . S
O291 C295 1.259 . S
O292 Eu281 2.418 . S
O292 C295 1.265 . S
O293 Eu281 2.384 . S
O293 C302 1.255 . S
O294 Tb280 2.366 . S
O294 C302 1.265 . S
C295 O291 1.259 . S
C295 O292 1.265 . S
O296 Eu281 2.479 . S
O296 C311 1.238 . S
O297 Eu281 2.471 . S
O297 C311 1.247 . S
O298 Eu281 2.347 . S
O298 C282 1.259 . S
O299 Tb280 2.418 . S
O299 C282 1.265 . S
O300 Tb280 2.384 . S
O300 C283 1.255 . S
O301 Eu281 2.366 . S
O301 C283 1.265 . S
C302 O293 1.255 . S
C302 O294 1.265 . S
O303 Tb280 2.479 . S
O303 C290 1.238 . S
O304 Tb280 2.471 . S
O304 C290 1.247 . S
C305 C308 1.380 . S
C305 C309 1.374 . S
C305 C311 1.507 . S
C306 C307 1.387 . S
C306 C310 1.391 . S
C307 C306 1.387 . S
C307 C308 1.384 . S
C307 H316 0.930 . S
C308 C305 1.380 . S
C308 C307 1.384 . S
C308 H317 0.931 . S
C309 C305 1.374 . S
C309 C310 1.390 . S
C309 H318 0.930 . S
C310 C306 1.391 . S
C310 C309 1.390 . S
C310 H319 0.930 . S
C311 Eu281 2.825 . S
C311 O296 1.238 . S
C311 O297 1.247 . S
C311 C305 1.507 . S
H312 C285 0.930 . S
H313 C286 0.931 . S
H314 C287 0.930 . S
H315 C288 0.930 . S
H316 C307 0.930 . S
H317 C308 0.931 . S
H318 C309 0.930 . S
H319 C310 0.930 . S
Tb320 C330 2.825 . S
Tb320 O331 2.347 . S
Tb320 O334 2.366 . S
Tb320 O339 2.418 . S
Tb320 O340 2.384 . S
Tb320 O343 2.479 . S
Tb320 O344 2.471 . S
Eu321 O332 2.418 . S
Eu321 O333 2.384 . S
Eu321 O336 2.479 . S
Eu321 O337 2.471 . S
Eu321 O338 2.347 . S
Eu321 O341 2.366 . S
Eu321 C351 2.825 . S
C322 O338 1.259 . S
C322 O339 1.265 . S
C323 O340 1.255 . S
C323 O341 1.265 . S
C324 C326 1.380 . S
C324 C327 1.374 . S
C324 C330 1.507 . S
C325 C326 1.384 . S
C325 C329 1.387 . S
C325 H352 0.930 . S
C326 C324 1.380 . S
C326 C325 1.384 . S
C326 H353 0.931 . S
C327 C324 1.374 . S
C327 C328 1.390 . S
C327 H354 0.930 . S
C328 C327 1.390 . S
C328 C329 1.391 . S
C328 H355 0.930 . S
C329 C325 1.387 . S
C329 C328 1.391 . S
C330 Tb320 2.825 . S
C330 C324 1.507 . S
C330 O343 1.238 . S
C330 O344 1.247 . S
O331 Tb320 2.347 . S
O331 C335 1.259 . S
O332 Eu321 2.418 . S
O332 C335 1.265 . S
O333 Eu321 2.384 . S
O333 C342 1.255 . S
O334 Tb320 2.366 . S
O334 C342 1.265 . S
C335 O331 1.259 . S
C335 O332 1.265 . S
O336 Eu321 2.479 . S
O336 C351 1.238 . S
O337 Eu321 2.471 . S
O337 C351 1.247 . S
O338 Eu321 2.347 . S
O338 C322 1.259 . S
O339 Tb320 2.418 . S
O339 C322 1.265 . S
O340 Tb320 2.384 . S
O340 C323 1.255 . S
O341 Eu321 2.366 . S
O341 C323 1.265 . S
C342 O333 1.255 . S
C342 O334 1.265 . S
O343 Tb320 2.479 . S
O343 C330 1.238 . S
O344 Tb320 2.471 . S
O344 C330 1.247 . S
C345 C348 1.380 . S
C345 C349 1.374 . S
C345 C351 1.507 . S
C346 C347 1.387 . S
C346 C350 1.391 . S
C347 C346 1.387 . S
C347 C348 1.384 . S
C347 H356 0.930 . S
C348 C345 1.380 . S
C348 C347 1.384 . S
C348 H357 0.931 . S
C349 C345 1.374 . S
C349 C350 1.390 . S
C349 H358 0.930 . S
C350 C346 1.391 . S
C350 C349 1.390 . S
C350 H359 0.930 . S
C351 Eu321 2.825 . S
C351 O336 1.238 . S
C351 O337 1.247 . S
C351 C345 1.507 . S
H352 C325 0.930 . S
H353 C326 0.931 . S
H354 C327 0.930 . S
H355 C328 0.930 . S
H356 C347 0.930 . S
H357 C348 0.931 . S
H358 C349 0.930 . S
H359 C350 0.930 . S
Tb360 C370 2.825 . S
Tb360 O371 2.347 . S
Tb360 O374 2.366 . S
Tb360 O379 2.418 . S
Tb360 O380 2.384 . S
Tb360 O383 2.479 . S
Tb360 O384 2.471 . S
Eu361 O372 2.418 1_545 S
Eu361 O373 2.384 . S
Eu361 O376 2.479 1_545 S
Eu361 O377 2.471 1_545 S
Eu361 O378 2.347 . S
Eu361 O381 2.366 1_545 S
Eu361 C391 2.825 1_545 S
C362 O378 1.259 . S
C362 O379 1.265 . S
C363 O380 1.255 1_565 S
C363 O381 1.265 . S
C364 C366 1.380 . S
C364 C367 1.374 . S
C364 C370 1.507 . S
C365 C366 1.384 . S
C365 C369 1.387 . S
C365 H392 0.930 . S
C366 C364 1.380 . S
C366 C365 1.384 . S
C366 H393 0.931 . S
C367 C364 1.374 . S
C367 C368 1.390 . S
C367 H394 0.930 . S
C368 C367 1.390 . S
C368 C369 1.391 . S
C368 H395 0.930 . S
C369 C365 1.387 . S
C369 C368 1.391 . S
C370 Tb360 2.825 . S
C370 C364 1.507 . S
C370 O383 1.238 . S
C370 O384 1.247 . S
O371 Tb360 2.347 . S
O371 C375 1.259 . S
O372 Eu361 2.418 1_565 S
O372 C375 1.265 1_565 S
O373 Eu361 2.384 . S
O373 C382 1.255 . S
O374 Tb360 2.366 . S
O374 C382 1.265 . S
C375 O371 1.259 . S
C375 O372 1.265 1_545 S
O376 Eu361 2.479 1_565 S
O376 C391 1.238 . S
O377 Eu361 2.471 1_565 S
O377 C391 1.247 . S
O378 Eu361 2.347 . S
O378 C362 1.259 . S
O379 Tb360 2.418 . S
O379 C362 1.265 . S
O380 Tb360 2.384 . S
O380 C363 1.255 1_545 S
O381 Eu361 2.366 1_565 S
O381 C363 1.265 . S
C382 O373 1.255 . S
C382 O374 1.265 . S
O383 Tb360 2.479 . S
O383 C370 1.238 . S
O384 Tb360 2.471 . S
O384 C370 1.247 . S
C385 C388 1.380 . S
C385 C389 1.374 . S
C385 C391 1.507 . S
C386 C387 1.387 . S
C386 C390 1.391 . S
C387 C386 1.387 . S
C387 C388 1.384 . S
C387 H396 0.930 . S
C388 C385 1.380 . S
C388 C387 1.384 . S
C388 H397 0.931 . S
C389 C385 1.374 . S
C389 C390 1.390 . S
C389 H398 0.930 . S
C390 C386 1.391 . S
C390 C389 1.390 . S
C390 H399 0.930 . S
C391 Eu361 2.825 1_565 S
C391 O376 1.238 . S
C391 O377 1.247 . S
C391 C385 1.507 . S
H392 C365 0.930 . S
H393 C366 0.931 . S
H394 C367 0.930 . S
H395 C368 0.930 . S
H396 C387 0.930 . S
H397 C388 0.931 . S
H398 C389 0.930 . S
H399 C390 0.930 . S
Tb400 C410 2.825 . S
Tb400 O411 2.347 1_565 S
Tb400 O414 2.366 . S
Tb400 O419 2.418 . S
Tb400 O420 2.384 1_565 S
Tb400 O423 2.479 . S
Tb400 O424 2.471 . S
Eu401 O412 2.418 . S
Eu401 O413 2.384 1_545 S
Eu401 O416 2.479 . S
Eu401 O417 2.471 . S
Eu401 O418 2.347 1_545 S
Eu401 O421 2.366 . S
Eu401 C431 2.825 . S
C402 O418 1.259 . S
C402 O419 1.265 . S
C403 O420 1.255 . S
C403 O421 1.265 . S
C404 C406 1.380 . S
C404 C407 1.374 . S
C404 C410 1.507 . S
C405 C406 1.384 . S
C405 C409 1.387 . S
C405 H432 0.930 . S
C406 C404 1.380 . S
C406 C405 1.384 . S
C406 H433 0.931 . S
C407 C404 1.374 . S
C407 C408 1.390 . S
C407 H434 0.930 . S
C408 C407 1.390 . S
C408 C409 1.391 . S
C408 H435 0.930 . S
C409 C405 1.387 . S
C409 C408 1.391 . S
C410 Tb400 2.825 . S
C410 C404 1.507 . S
C410 O423 1.238 . S
C410 O424 1.247 . S
O411 Tb400 2.347 1_545 S
O411 C415 1.259 . S
O412 Eu401 2.418 . S
O412 C415 1.265 . S
O413 Eu401 2.384 1_565 S
O413 C422 1.255 . S
O414 Tb400 2.366 . S
O414 C422 1.265 . S
C415 O411 1.259 . S
C415 O412 1.265 . S
O416 Eu401 2.479 . S
O416 C431 1.238 . S
O417 Eu401 2.471 . S
O417 C431 1.247 . S
O418 Eu401 2.347 1_565 S
O418 C402 1.259 . S
O419 Tb400 2.418 . S
O419 C402 1.265 . S
O420 Tb400 2.384 1_545 S
O420 C403 1.255 . S
O421 Eu401 2.366 . S
O421 C403 1.265 . S
C422 O413 1.255 . S
C422 O414 1.265 . S
O423 Tb400 2.479 . S
O423 C410 1.238 . S
O424 Tb400 2.471 . S
O424 C410 1.247 . S
C425 C428 1.380 . S
C425 C429 1.374 . S
C425 C431 1.507 . S
C426 C427 1.387 . S
C426 C430 1.391 . S
C427 C426 1.387 . S
C427 C428 1.384 . S
C427 H436 0.930 . S
C428 C425 1.380 . S
C428 C427 1.384 . S
C428 H437 0.931 . S
C429 C425 1.374 . S
C429 C430 1.390 . S
C429 H438 0.930 . S
C430 C426 1.391 . S
C430 C429 1.390 . S
C430 H439 0.930 . S
C431 Eu401 2.825 . S
C431 O416 1.238 . S
C431 O417 1.247 . S
C431 C425 1.507 . S
H432 C405 0.930 . S
H433 C406 0.931 . S
H434 C407 0.930 . S
H435 C408 0.930 . S
H436 C427 0.930 . S
H437 C428 0.931 . S
H438 C429 0.930 . S
H439 C430 0.930 . S
Tb440 C450 2.825 . S
Tb440 O451 2.347 . S
Tb440 O454 2.366 . S
Tb440 O459 2.418 . S
Tb440 O460 2.384 . S
Tb440 O463 2.479 . S
Tb440 O464 2.471 . S
Eu441 O452 2.418 . S
Eu441 O453 2.384 . S
Eu441 O456 2.479 . S
Eu441 O457 2.471 . S
Eu441 O458 2.347 . S
Eu441 O461 2.366 . S
Eu441 C471 2.825 . S
C442 O458 1.259 . S
C442 O459 1.265 . S
C443 O460 1.255 . S
C443 O461 1.265 . S
C444 C446 1.380 . S
C444 C447 1.374 . S
C444 C450 1.507 . S
C445 C446 1.384 . S
C445 C449 1.387 . S
C445 H472 0.930 . S
C446 C444 1.380 . S
C446 C445 1.384 . S
C446 H473 0.931 . S
C447 C444 1.374 . S
C447 C448 1.390 . S
C447 H474 0.930 . S
C448 C447 1.390 . S
C448 C449 1.391 . S
C448 H475 0.930 . S
C449 C445 1.387 . S
C449 C448 1.391 . S
C450 Tb440 2.825 . S
C450 C444 1.507 . S
C450 O463 1.238 . S
C450 O464 1.247 . S
O451 Tb440 2.347 . S
O451 C455 1.259 . S
O452 Eu441 2.418 . S
O452 C455 1.265 . S
O453 Eu441 2.384 . S
O453 C462 1.255 . S
O454 Tb440 2.366 . S
O454 C462 1.265 . S
C455 O451 1.259 . S
C455 O452 1.265 . S
O456 Eu441 2.479 . S
O456 C471 1.238 . S
O457 Eu441 2.471 . S
O457 C471 1.247 . S
O458 Eu441 2.347 . S
O458 C442 1.259 . S
O459 Tb440 2.418 . S
O459 C442 1.265 . S
O460 Tb440 2.384 . S
O460 C443 1.255 . S
O461 Eu441 2.366 . S
O461 C443 1.265 . S
C462 O453 1.255 . S
C462 O454 1.265 . S
O463 Tb440 2.479 . S
O463 C450 1.238 . S
O464 Tb440 2.471 . S
O464 C450 1.247 . S
C465 C468 1.380 . S
C465 C469 1.374 . S
C465 C471 1.507 . S
C466 C467 1.387 . S
C466 C470 1.391 . S
C467 C466 1.387 . S
C467 C468 1.384 . S
C467 H476 0.930 . S
C468 C465 1.380 . S
C468 C467 1.384 . S
C468 H477 0.931 . S
C469 C465 1.374 . S
C469 C470 1.390 . S
C469 H478 0.930 . S
C470 C466 1.391 . S
C470 C469 1.390 . S
C470 H479 0.930 . S
C471 Eu441 2.825 . S
C471 O456 1.238 . S
C471 O457 1.247 . S
C471 C465 1.507 . S
H472 C445 0.930 . S
H473 C446 0.931 . S
H474 C447 0.930 . S
H475 C448 0.930 . S
H476 C467 0.930 . S
H477 C468 0.931 . S
H478 C469 0.930 . S
H479 C470 0.930 . S
C480 C481 1.349 . S
C480 C482 1.327 . S
C480 H505 0.950 . S
C481 C480 1.349 . S
C481 C497 1.349 . S
C482 C480 1.327 . S
C482 C501 1.429 . S
C482 H506 0.950 . S
C483 C500 1.574 . S
C483 C502 1.368 . S
C483 H507 0.949 . S
H484 C488 0.949 . S
C485 C486 1.349 . S
C485 C487 1.327 . S
C485 H508 0.950 . S
C486 C485 1.349 . S
C486 C498 1.349 . S
C487 C485 1.327 . S
C487 C503 1.429 . S
C487 H509 0.950 . S
C488 H484 0.949 . S
C488 C496 1.574 . S
C488 C504 1.368 . S
H489 C497 0.950 . S
H490 C495 0.950 . S
H491 C496 0.949 . S
H492 C498 0.950 . S
H493 C499 0.950 . S
H494 C500 0.949 . S
C495 H490 0.950 . S
C495 C497 1.327 . S
C495 C501 1.429 . S
C496 C488 1.574 . S
C496 H491 0.949 . S
C496 C502 1.368 . S
C497 C481 1.349 . S
C497 H489 0.950 . S
C497 C495 1.327 . S
C498 C486 1.349 . S
C498 H492 0.950 . S
C498 C499 1.327 . S
C499 H493 0.950 . S
C499 C498 1.327 . S
C499 C503 1.429 . S
C500 C483 1.574 . S
C500 H494 0.949 . S
C500 C504 1.368 . S
C501 C482 1.429 . S
C501 C495 1.429 . S
C501 C502 1.523 . S
C502 C483 1.368 . S
C502 C496 1.368 . S
C502 C501 1.523 . S
C503 C487 1.429 . S
C503 C499 1.429 . S
C503 C504 1.523 . S
C504 C488 1.368 . S
C504 C500 1.368 . S
C504 C503 1.523 . S
H505 C480 0.950 . S
H506 C482 0.950 . S
H507 C483 0.949 . S
H508 C485 0.950 . S
H509 C487 0.950 . S
C510 C511 1.349 . S
C510 C512 1.327 . S
C510 H535 0.950 . S
C511 C510 1.349 . S
C511 C527 1.349 1_565 S
C512 C510 1.327 . S
C512 C531 1.429 . S
C512 H536 0.950 . S
C513 C530 1.574 . S
C513 C532 1.368 . S
C513 H537 0.949 1_565 S
H514 C518 0.949 . S
C515 C516 1.349 . S
C515 C517 1.327 . S
C515 H538 0.950 . S
C516 C515 1.349 . S
C516 C528 1.349 . S
C517 C515 1.327 . S
C517 C533 1.429 . S
C517 H539 0.950 . S
C518 H514 0.949 . S
C518 C526 1.574 . S
C518 C534 1.368 . S
H519 C527 0.950 . S
H520 C525 0.950 . S
H521 C526 0.949 . S
H522 C528 0.950 . S
H523 C529 0.950 . S
H524 C530 0.949 . S
C525 H520 0.950 . S
C525 C527 1.327 . S
C525 C531 1.429 1_545 S
C526 C518 1.574 . S
C526 H521 0.949 . S
C526 C532 1.368 . S
C527 C511 1.349 1_545 S
C527 H519 0.950 . S
C527 C525 1.327 . S
C528 C516 1.349 . S
C528 H522 0.950 . S
C528 C529 1.327 . S
C529 H523 0.950 . S
C529 C528 1.327 . S
C529 C533 1.429 . S
C530 C513 1.574 . S
C530 H524 0.949 . S
C530 C534 1.368 . S
C531 C512 1.429 . S
C531 C525 1.429 1_565 S
C531 C532 1.523 . S
C532 C513 1.368 . S
C532 C526 1.368 . S
C532 C531 1.523 . S
C533 C517 1.429 . S
C533 C529 1.429 . S
C533 C534 1.523 . S
C534 C518 1.368 . S
C534 C530 1.368 . S
C534 C533 1.523 . S
H535 C510 0.950 . S
H536 C512 0.950 . S
H537 C513 0.949 1_545 S
H538 C515 0.950 . S
H539 C517 0.950 . S
C540 C541 1.349 . S
C540 C542 1.327 . S
C540 H565 0.950 . S
C541 C540 1.349 . S
C541 C557 1.349 1_554 S
C542 C540 1.327 . S
C542 C561 1.429 . S
C542 H566 0.950 . S
C543 C560 1.574 . S
C543 C562 1.368 . S
C543 H567 0.949 1_554 S
H544 C548 0.949 . S
C545 C546 1.349 . S
C545 C547 1.327 . S
C545 H568 0.950 . S
C546 C545 1.349 . S
C546 C558 1.349 . S
C547 C545 1.327 . S
C547 C563 1.429 . S
C547 H569 0.950 . S
C548 H544 0.949 . S
C548 C556 1.574 . S
C548 C564 1.368 . S
H549 C557 0.950 . S
H550 C555 0.950 . S
H551 C556 0.949 . S
H552 C558 0.950 . S
H553 C559 0.950 . S
H554 C560 0.949 . S
C555 H550 0.950 . S
C555 C557 1.327 . S
C555 C561 1.429 1_556 S
C556 C548 1.574 . S
C556 H551 0.949 . S
C556 C562 1.368 . S
C557 C541 1.349 1_556 S
C557 H549 0.950 . S
C557 C555 1.327 . S
C558 C546 1.349 . S
C558 H552 0.950 . S
C558 C559 1.327 . S
C559 H553 0.950 . S
C559 C558 1.327 . S
C559 C563 1.429 . S
C560 C543 1.574 . S
C560 H554 0.949 . S
C560 C564 1.368 . S
C561 C542 1.429 . S
C561 C555 1.429 1_554 S
C561 C562 1.523 . S
C562 C543 1.368 . S
C562 C556 1.368 . S
C562 C561 1.523 . S
C563 C547 1.429 . S
C563 C559 1.429 . S
C563 C564 1.523 . S
C564 C548 1.368 . S
C564 C560 1.368 . S
C564 C563 1.523 . S
H565 C540 0.950 . S
H566 C542 0.950 . S
H567 C543 0.949 1_556 S
H568 C545 0.950 . S
H569 C547 0.950 . S
C570 C571 1.349 . S
C570 C572 1.327 . S
C570 H595 0.950 . S
C571 C570 1.349 . S
C571 C587 1.349 . S
C572 C570 1.327 . S
C572 C591 1.429 . S
C572 H596 0.950 . S
C573 C590 1.574 . S
C573 C592 1.368 . S
C573 H597 0.949 . S
H574 C578 0.949 . S
C575 C576 1.349 . S
C575 C577 1.327 . S
C575 H598 0.950 . S
C576 C575 1.349 . S
C576 C588 1.349 . S
C577 C575 1.327 . S
C577 C593 1.429 . S
C577 H599 0.950 . S
C578 H574 0.949 . S
C578 C586 1.574 . S
C578 C594 1.368 . S
H579 C587 0.950 . S
H580 C585 0.950 . S
H581 C586 0.949 . S
H582 C588 0.950 . S
H583 C589 0.950 . S
H584 C590 0.949 . S
C585 H580 0.950 . S
C585 C587 1.327 . S
C585 C591 1.429 . S
C586 C578 1.574 . S
C586 H581 0.949 . S
C586 C592 1.368 . S
C587 C571 1.349 . S
C587 H579 0.950 . S
C587 C585 1.327 . S
C588 C576 1.349 . S
C588 H582 0.950 . S
C588 C589 1.327 . S
C589 H583 0.950 . S
C589 C588 1.327 . S
C589 C593 1.429 . S
C590 C573 1.574 . S
C590 H584 0.949 . S
C590 C594 1.368 . S
C591 C572 1.429 . S
C591 C585 1.429 . S
C591 C592 1.523 . S
C592 C573 1.368 . S
C592 C586 1.368 . S
C592 C591 1.523 . S
C593 C577 1.429 . S
C593 C589 1.429 . S
C593 C594 1.523 . S
C594 C578 1.368 . S
C594 C590 1.368 . S
C594 C593 1.523 . S
H595 C570 0.950 . S
H596 C572 0.950 . S
H597 C573 0.949 . S
H598 C575 0.950 . S
H599 C577 0.950 . S
C600 C601 1.349 . S
C600 C602 1.327 . S
C600 H625 0.950 . S
C601 C600 1.349 . S
C601 C617 1.349 . S
C602 C600 1.327 . S
C602 C621 1.429 . S
C602 H626 0.950 . S
C603 C620 1.574 . S
C603 C622 1.368 . S
C603 H627 0.949 . S
H604 C608 0.949 . S
C605 C606 1.349 . S
C605 C607 1.327 . S
C605 H628 0.950 . S
C606 C605 1.349 . S
C606 C618 1.349 . S
C607 C605 1.327 . S
C607 C623 1.429 . S
C607 H629 0.950 . S
C608 H604 0.949 . S
C608 C616 1.574 . S
C608 C624 1.368 . S
H609 C617 0.950 . S
H610 C615 0.950 . S
H611 C616 0.949 . S
H612 C618 0.950 . S
H613 C619 0.950 . S
H614 C620 0.949 . S
C615 H610 0.950 . S
C615 C617 1.327 . S
C615 C621 1.429 . S
C616 C608 1.574 . S
C616 H611 0.949 . S
C616 C622 1.368 . S
C617 C601 1.349 . S
C617 H609 0.950 . S
C617 C615 1.327 . S
C618 C606 1.349 . S
C618 H612 0.950 . S
C618 C619 1.327 . S
C619 H613 0.950 . S
C619 C618 1.327 . S
C619 C623 1.429 . S
C620 C603 1.574 . S
C620 H614 0.949 . S
C620 C624 1.368 . S
C621 C602 1.429 . S
C621 C615 1.429 . S
C621 C622 1.523 . S
C622 C603 1.368 . S
C622 C616 1.368 . S
C622 C621 1.523 . S
C623 C607 1.429 . S
C623 C619 1.429 . S
C623 C624 1.523 . S
C624 C608 1.368 . S
C624 C620 1.368 . S
C624 C623 1.523 . S
H625 C600 0.950 . S
H626 C602 0.950 . S
H627 C603 0.949 . S
H628 C605 0.950 . S
H629 C607 0.950 . S
C630 C631 1.349 . S
C630 C632 1.327 . S
C630 H655 0.950 . S
C631 C630 1.349 . S
C631 C647 1.349 . S
C632 C630 1.327 . S
C632 C651 1.429 . S
C632 H656 0.950 . S
C633 C650 1.574 . S
C633 C652 1.368 . S
C633 H657 0.949 . S
H634 C638 0.949 . S
C635 C636 1.349 . S
C635 C637 1.327 . S
C635 H658 0.950 . S
C636 C635 1.349 . S
C636 C648 1.349 . S
C637 C635 1.327 . S
C637 C653 1.429 . S
C637 H659 0.950 . S
C638 H634 0.949 . S
C638 C646 1.574 . S
C638 C654 1.368 . S
H639 C647 0.950 . S
H640 C645 0.950 . S
H641 C646 0.949 . S
H642 C648 0.950 . S
H643 C649 0.950 . S
H644 C650 0.949 . S
C645 H640 0.950 . S
C645 C647 1.327 . S
C645 C651 1.429 . S
C646 C638 1.574 . S
C646 H641 0.949 . S
C646 C652 1.368 . S
C647 C631 1.349 . S
C647 H639 0.950 . S
C647 C645 1.327 . S
C648 C636 1.349 . S
C648 H642 0.950 . S
C648 C649 1.327 . S
C649 H643 0.950 . S
C649 C648 1.327 . S
C649 C653 1.429 . S
C650 C633 1.574 . S
C650 H644 0.949 . S
C650 C654 1.368 . S
C651 C632 1.429 . S
C651 C645 1.429 . S
C651 C652 1.523 . S
C652 C633 1.368 . S
C652 C646 1.368 . S
C652 C651 1.523 . S
C653 C637 1.429 . S
C653 C649 1.429 . S
C653 C654 1.523 . S
C654 C638 1.368 . S
C654 C650 1.368 . S
C654 C653 1.523 . S
H655 C630 0.950 . S
H656 C632 0.950 . S
H657 C633 0.949 . S
H658 C635 0.950 . S
H659 C637 0.950 . S
C660 C661 1.349 . S
C660 C662 1.327 . S
C660 H685 0.950 . S
C661 C660 1.349 . S
C661 C677 1.349 . S
C662 C660 1.327 . S
C662 C681 1.429 . S
C662 H686 0.950 . S
C663 C680 1.574 . S
C663 C682 1.368 . S
C663 H687 0.949 . S
H664 C668 0.949 . S
C665 C666 1.349 . S
C665 C667 1.327 . S
C665 H688 0.950 . S
C666 C665 1.349 . S
C666 C678 1.349 . S
C667 C665 1.327 . S
C667 C683 1.429 . S
C667 H689 0.950 . S
C668 H664 0.949 . S
C668 C676 1.574 . S
C668 C684 1.368 . S
H669 C677 0.950 . S
H670 C675 0.950 . S
H671 C676 0.949 . S
H672 C678 0.950 . S
H673 C679 0.950 . S
H674 C680 0.949 . S
C675 H670 0.950 . S
C675 C677 1.327 . S
C675 C681 1.429 . S
C676 C668 1.574 . S
C676 H671 0.949 . S
C676 C682 1.368 . S
C677 C661 1.349 . S
C677 H669 0.950 . S
C677 C675 1.327 . S
C678 C666 1.349 . S
C678 H672 0.950 . S
C678 C679 1.327 . S
C679 H673 0.950 . S
C679 C678 1.327 . S
C679 C683 1.429 . S
C680 C663 1.574 . S
C680 H674 0.949 . S
C680 C684 1.368 . S
C681 C662 1.429 . S
C681 C675 1.429 . S
C681 C682 1.523 . S
C682 C663 1.368 . S
C682 C676 1.368 . S
C682 C681 1.523 . S
C683 C667 1.429 . S
C683 C679 1.429 . S
C683 C684 1.523 . S
C684 C668 1.368 . S
C684 C680 1.368 . S
C684 C683 1.523 . S
H685 C660 0.950 . S
H686 C662 0.950 . S
H687 C663 0.949 . S
H688 C665 0.950 . S
H689 C667 0.950 . S
C690 C691 1.349 . S
C690 C692 1.327 . S
C690 H715 0.950 . S
C691 C690 1.349 . S
C691 C707 1.349 . S
C692 C690 1.327 . S
C692 C711 1.429 . S
C692 H716 0.950 . S
C693 C710 1.574 . S
C693 C712 1.368 . S
C693 H717 0.949 . S
H694 C698 0.949 . S
C695 C696 1.349 . S
C695 C697 1.327 . S
C695 H718 0.950 . S
C696 C695 1.349 . S
C696 C708 1.349 . S
C697 C695 1.327 . S
C697 C713 1.429 . S
C697 H719 0.950 . S
C698 H694 0.949 . S
C698 C706 1.574 . S
C698 C714 1.368 . S
H699 C707 0.950 . S
H700 C705 0.950 . S
H701 C706 0.949 . S
H702 C708 0.950 . S
H703 C709 0.950 . S
H704 C710 0.949 . S
C705 H700 0.950 . S
C705 C707 1.327 . S
C705 C711 1.429 . S
C706 C698 1.574 . S
C706 H701 0.949 . S
C706 C712 1.368 . S
C707 C691 1.349 . S
C707 H699 0.950 . S
C707 C705 1.327 . S
C708 C696 1.349 . S
C708 H702 0.950 . S
C708 C709 1.327 . S
C709 H703 0.950 . S
C709 C708 1.327 . S
C709 C713 1.429 . S
C710 C693 1.574 . S
C710 H704 0.949 . S
C710 C714 1.368 . S
C711 C692 1.429 . S
C711 C705 1.429 . S
C711 C712 1.523 . S
C712 C693 1.368 . S
C712 C706 1.368 . S
C712 C711 1.523 . S
C713 C697 1.429 . S
C713 C709 1.429 . S
C713 C714 1.523 . S
C714 C698 1.368 . S
C714 C710 1.368 . S
C714 C713 1.523 . S
H715 C690 0.950 . S
H716 C692 0.950 . S
H717 C693 0.949 . S
H718 C695 0.950 . S
H719 C697 0.950 . S
C720 C721 1.349 . S
C720 C722 1.327 . S
C720 H745 0.950 . S
C721 C720 1.349 . S
C721 C737 1.349 . S
C722 C720 1.327 . S
C722 C741 1.429 . S
C722 H746 0.950 . S
C723 C740 1.574 . S
C723 C742 1.368 . S
C723 H747 0.949 . S
H724 C728 0.949 . S
C725 C726 1.349 . S
C725 C727 1.327 . S
C725 H748 0.950 . S
C726 C725 1.349 . S
C726 C738 1.349 . S
C727 C725 1.327 . S
C727 C743 1.429 . S
C727 H749 0.950 . S
C728 H724 0.949 . S
C728 C736 1.574 . S
C728 C744 1.368 . S
H729 C737 0.950 . S
H730 C735 0.950 . S
H731 C736 0.949 . S
H732 C738 0.950 . S
H733 C739 0.950 . S
H734 C740 0.949 . S
C735 H730 0.950 . S
C735 C737 1.327 . S
C735 C741 1.429 . S
C736 C728 1.574 . S
C736 H731 0.949 . S
C736 C742 1.368 . S
C737 C721 1.349 . S
C737 H729 0.950 . S
C737 C735 1.327 . S
C738 C726 1.349 . S
C738 H732 0.950 . S
C738 C739 1.327 . S
C739 H733 0.950 . S
C739 C738 1.327 . S
C739 C743 1.429 . S
C740 C723 1.574 . S
C740 H734 0.949 . S
C740 C744 1.368 . S
C741 C722 1.429 . S
C741 C735 1.429 . S
C741 C742 1.523 . S
C742 C723 1.368 . S
C742 C736 1.368 . S
C742 C741 1.523 . S
C743 C727 1.429 . S
C743 C739 1.429 . S
C743 C744 1.523 . S
C744 C728 1.368 . S
C744 C740 1.368 . S
C744 C743 1.523 . S
H745 C720 0.950 . S
H746 C722 0.950 . S
H747 C723 0.949 . S
H748 C725 0.950 . S
H749 C727 0.950 . S
C750 C751 1.349 . S
C750 C752 1.327 . S
C750 H775 0.950 . S
C751 C750 1.349 . S
C751 C767 1.349 . S
C752 C750 1.327 . S
C752 C771 1.429 . S
C752 H776 0.950 . S
C753 C770 1.574 . S
C753 C772 1.368 . S
C753 H777 0.949 . S
H754 C758 0.949 . S
C755 C756 1.349 . S
C755 C757 1.327 . S
C755 H778 0.950 1_455 S
C756 C755 1.349 . S
C756 C768 1.349 . S
C757 C755 1.327 . S
C757 C773 1.429 . S
C757 H779 0.950 . S
C758 H754 0.949 . S
C758 C766 1.574 . S
C758 C774 1.368 . S
H759 C767 0.950 . S
H760 C765 0.950 . S
H761 C766 0.949 . S
H762 C768 0.950 . S
H763 C769 0.950 . S
H764 C770 0.949 . S
C765 H760 0.950 . S
C765 C767 1.327 . S
C765 C771 1.429 . S
C766 C758 1.574 . S
C766 H761 0.949 . S
C766 C772 1.368 . S
C767 C751 1.349 . S
C767 H759 0.950 . S
C767 C765 1.327 . S
C768 C756 1.349 . S
C768 H762 0.950 . S
C768 C769 1.327 . S
C769 H763 0.950 . S
C769 C768 1.327 . S
C769 C773 1.429 . S
C770 C753 1.574 . S
C770 H764 0.949 . S
C770 C774 1.368 . S
C771 C752 1.429 . S
C771 C765 1.429 . S
C771 C772 1.523 . S
C772 C753 1.368 . S
C772 C766 1.368 . S
C772 C771 1.523 . S
C773 C757 1.429 . S
C773 C769 1.429 . S
C773 C774 1.523 . S
C774 C758 1.368 . S
C774 C770 1.368 . S
C774 C773 1.523 . S
H775 C750 0.950 . S
H776 C752 0.950 . S
H777 C753 0.949 . S
H778 C755 0.950 1_655 S
H779 C757 0.950 . S
C780 C781 1.349 . S
C780 C782 1.327 . S
C780 H805 0.950 . S
C781 C780 1.349 . S
C781 C797 1.349 1_455 S
C782 C780 1.327 . S
C782 C801 1.429 1_455 S
C782 H806 0.950 . S
C783 C800 1.574 . S
C783 C802 1.368 . S
C783 H807 0.949 . S
H784 C788 0.949 . S
C785 C786 1.349 . S
C785 C787 1.327 . S
C785 H808 0.950 . S
C786 C785 1.349 . S
C786 C798 1.349 . S
C787 C785 1.327 . S
C787 C803 1.429 . S
C787 H809 0.950 . S
C788 H784 0.949 . S
C788 C796 1.574 . S
C788 C804 1.368 . S
H789 C797 0.950 . S
H790 C795 0.950 . S
H791 C796 0.965 . S
H792 C798 0.950 . S
H793 C799 0.950 . S
H794 C800 0.949 . S
C795 H790 0.950 . S
C795 C797 1.327 . S
C795 C801 1.429 . S
C796 C788 1.574 . S
C796 H791 0.965 . S
C796 C802 1.368 . S
C797 C781 1.349 1_655 S
C797 H789 0.950 . S
C797 C795 1.327 . S
C798 C786 1.349 . S
C798 H792 0.950 . S
C798 C799 1.327 . S
C799 H793 0.950 . S
C799 C798 1.327 . S
C799 C803 1.429 . S
C800 C783 1.574 . S
C800 H794 0.949 . S
C800 C804 1.368 . S
C801 C782 1.429 1_655 S
C801 C795 1.429 . S
C801 C802 1.523 . S
C802 C783 1.368 . S
C802 C796 1.368 . S
C802 C801 1.523 . S
C803 C787 1.429 . S
C803 C799 1.429 . S
C803 C804 1.523 . S
C804 C788 1.368 . S
C804 C800 1.368 . S
C804 C803 1.523 . S
H805 C780 0.950 . S
H806 C782 0.950 . S
H807 C783 0.949 . S
H808 C785 0.950 . S
H809 C787 0.950 . S
C810 C811 1.349 . S
C810 C812 1.327 . S
C810 H835 0.950 . S
C811 C810 1.349 . S
C811 C827 1.349 . S
C812 C810 1.327 . S
C812 C831 1.429 . S
C812 H836 0.950 . S
C813 C830 1.574 . S
C813 C832 1.368 . S
C813 H837 0.949 . S
H814 C818 0.949 . S
C815 C816 1.349 . S
C815 C817 1.327 . S
C815 H838 0.950 . S
C816 C815 1.349 . S
C816 C828 1.349 . S
C817 C815 1.327 . S
C817 C833 1.429 . S
C817 H839 0.950 . S
C818 H814 0.949 . S
C818 C826 1.574 . S
C818 C834 1.368 . S
H819 C827 0.950 . S
H820 C825 0.950 . S
H821 C826 0.949 . S
H822 C828 0.950 . S
H823 C829 0.950 . S
H824 C830 0.949 . S
C825 H820 0.950 . S
C825 C827 1.327 . S
C825 C831 1.429 . S
C826 C818 1.574 . S
C826 H821 0.949 . S
C826 C832 1.368 . S
C827 C811 1.349 . S
C827 H819 0.950 . S
C827 C825 1.327 . S
C828 C816 1.349 . S
C828 H822 0.950 . S
C828 C829 1.327 . S
C829 H823 0.950 . S
C829 C828 1.327 . S
C829 C833 1.429 . S
C830 C813 1.574 . S
C830 H824 0.949 . S
C830 C834 1.368 . S
C831 C812 1.429 . S
C831 C825 1.429 . S
C831 C832 1.523 . S
C832 C813 1.368 . S
C832 C826 1.368 . S
C832 C831 1.523 . S
C833 C817 1.429 . S
C833 C829 1.429 . S
C833 C834 1.523 . S
C834 C818 1.368 . S
C834 C830 1.368 . S
C834 C833 1.523 . S
H835 C810 0.950 . S
H836 C812 0.950 . S
H837 C813 0.949 . S
H838 C815 0.950 . S
H839 C817 0.950 . S
C840 C841 1.349 . S
C840 C842 1.327 . S
C840 H865 0.950 . S
C841 C840 1.349 . S
C841 C857 1.349 . S
C842 C840 1.327 . S
C842 C861 1.429 . S
C842 H866 0.950 . S
C843 C860 1.574 . S
C843 C862 1.368 . S
C843 H867 0.949 . S
H844 C848 0.949 . S
C845 C846 1.349 . S
C845 C847 1.327 . S
C845 H868 0.950 . S
C846 C845 1.349 . S
C846 C858 1.349 . S
C847 C845 1.327 . S
C847 C863 1.429 . S
C847 H869 0.950 . S
C848 H844 0.949 . S
C848 C856 1.574 . S
C848 C864 1.368 . S
H849 C857 0.950 . S
H850 C855 0.950 . S
H851 C856 0.949 . S
H852 C858 0.950 . S
H853 C859 0.950 . S
H854 C860 0.949 . S
C855 H850 0.950 . S
C855 C857 1.327 . S
C855 C861 1.429 . S
C856 C848 1.574 . S
C856 H851 0.949 . S
C856 C862 1.368 . S
C857 C841 1.349 . S
C857 H849 0.950 . S
C857 C855 1.327 . S
C858 C846 1.349 . S
C858 H852 0.950 . S
C858 C859 1.327 . S
C859 H853 0.950 . S
C859 C858 1.327 . S
C859 C863 1.429 . S
C860 C843 1.574 . S
C860 H854 0.949 . S
C860 C864 1.368 . S
C861 C842 1.429 . S
C861 C855 1.429 . S
C861 C862 1.523 . S
C862 C843 1.368 . S
C862 C856 1.368 . S
C862 C861 1.523 . S
C863 C847 1.429 . S
C863 C859 1.429 . S
C863 C864 1.523 . S
C864 C848 1.368 . S
C864 C860 1.368 . S
C864 C863 1.523 . S
H865 C840 0.950 . S
H866 C842 0.950 . S
H867 C843 0.949 . S
H868 C845 0.950 . S
H869 C847 0.950 . S
C870 C871 1.349 . S
C870 C872 1.327 . S
C870 H895 0.950 . S
C871 C870 1.349 . S
C871 C887 1.349 . S
C872 C870 1.327 . S
C872 C891 1.429 . S
C872 H896 0.950 . S
C873 C890 1.574 . S
C873 C892 1.368 . S
C873 H897 0.949 . S
H874 C878 0.949 . S
C875 C876 1.349 . S
C875 C877 1.327 . S
C875 H898 0.950 1_565 S
C876 C875 1.349 . S
C876 C888 1.349 . S
C877 C875 1.327 . S
C877 C893 1.429 . S
C877 H899 0.950 . S
C878 H874 0.949 . S
C878 C886 1.574 . S
C878 C894 1.368 . S
H879 C887 0.950 . S
H880 C885 0.950 . S
H881 C886 0.949 . S
H882 C888 0.950 . S
H883 C889 0.950 . S
H884 C890 0.949 . S
C885 H880 0.950 . S
C885 C887 1.327 . S
C885 C891 1.429 . S
C886 C878 1.574 . S
C886 H881 0.949 . S
C886 C892 1.368 . S
C887 C871 1.349 . S
C887 H879 0.950 . S
C887 C885 1.327 . S
C888 C876 1.349 . S
C888 H882 0.950 . S
C888 C889 1.327 . S
C889 H883 0.950 . S
C889 C888 1.327 . S
C889 C893 1.429 . S
C890 C873 1.574 . S
C890 H884 0.949 . S
C890 C894 1.368 . S
C891 C872 1.429 . S
C891 C885 1.429 . S
C891 C892 1.523 . S
C892 C873 1.368 . S
C892 C886 1.368 . S
C892 C891 1.523 . S
C893 C877 1.429 . S
C893 C889 1.429 . S
C893 C894 1.523 . S
C894 C878 1.368 . S
C894 C890 1.368 . S
C894 C893 1.523 . S
H895 C870 0.950 . S
H896 C872 0.950 . S
H897 C873 0.949 . S
H898 C875 0.950 1_545 S
H899 C877 0.950 . S
C900 C901 1.349 . S
C900 C902 1.327 . S
C900 H925 0.950 . S
C901 C900 1.349 . S
C901 C917 1.349 . S
C902 C900 1.327 . S
C902 C921 1.429 . S
C902 H926 0.950 . S
C903 C920 1.574 . S
C903 C922 1.368 . S
C903 H927 0.949 . S
H904 C908 0.949 . S
C905 C906 1.349 . S
C905 C907 1.327 . S
C905 H928 0.950 . S
C906 C905 1.349 . S
C906 C918 1.349 . S
C907 C905 1.327 . S
C907 C923 1.429 . S
C907 H929 0.950 . S
C908 H904 0.949 . S
C908 C916 1.574 . S
C908 C924 1.368 . S
H909 C917 0.950 . S
H910 C915 0.950 . S
H911 C916 0.949 . S
H912 C918 0.950 . S
H913 C919 0.950 . S
H914 C920 0.949 . S
C915 H910 0.950 . S
C915 C917 1.327 . S
C915 C921 1.429 . S
C916 C908 1.574 . S
C916 H911 0.949 . S
C916 C922 1.368 . S
C917 C901 1.349 . S
C917 H909 0.950 . S
C917 C915 1.327 . S
C918 C906 1.349 . S
C918 H912 0.950 . S
C918 C919 1.327 . S
C919 H913 0.950 . S
C919 C918 1.327 . S
C919 C923 1.429 . S
C920 C903 1.574 . S
C920 H914 0.949 . S
C920 C924 1.368 . S
C921 C902 1.429 . S
C921 C915 1.429 . S
C921 C922 1.523 . S
C922 C903 1.368 . S
C922 C916 1.368 . S
C922 C921 1.523 . S
C923 C907 1.429 . S
C923 C919 1.429 . S
C923 C924 1.523 . S
C924 C908 1.368 . S
C924 C920 1.368 . S
C924 C923 1.523 . S
H925 C900 0.950 . S
H926 C902 0.950 . S
H927 C903 0.949 . S
H928 C905 0.950 . S
H929 C907 0.950 . S
C930 C931 1.349 . S
C930 C932 1.327 . S
C930 H955 0.950 . S
C931 C930 1.349 . S
C931 C947 1.349 . S
C932 C930 1.327 . S
C932 C951 1.429 . S
C932 H956 0.950 . S
C933 C950 1.576 1_554 S
C933 C952 1.368 . S
C933 H957 0.948 . S
H934 C938 0.949 . S
C935 C936 1.349 . S
C935 C937 1.327 . S
C935 H958 0.950 . S
C936 C935 1.349 . S
C936 C948 1.349 . S
C937 C935 1.327 . S
C937 C953 1.429 . S
C937 H959 0.950 . S
C938 H934 0.949 . S
C938 C946 1.574 . S
C938 C954 1.368 . S
H939 C947 0.950 . S
H940 C945 0.950 . S
H941 C946 0.942 1_554 S
H942 C948 0.950 . S
H943 C949 0.950 . S
H944 C950 0.949 . S
C945 H940 0.950 . S
C945 C947 1.327 . S
C945 C951 1.429 . S
C946 C938 1.574 . S
C946 H941 0.942 1_556 S
C946 C952 1.368 1_556 S
C947 C931 1.349 . S
C947 H939 0.950 . S
C947 C945 1.327 . S
C948 C936 1.349 . S
C948 H942 0.950 . S
C948 C949 1.327 . S
C949 H943 0.950 . S
C949 C948 1.327 . S
C949 C953 1.429 . S
C950 C933 1.576 1_556 S
C950 H944 0.949 . S
C950 C954 1.368 . S
C951 C932 1.429 . S
C951 C945 1.429 . S
C951 C952 1.523 . S
C952 C933 1.368 . S
C952 C946 1.368 1_554 S
C952 C951 1.523 . S
C953 C937 1.429 . S
C953 C949 1.429 . S
C953 C954 1.523 . S
C954 C938 1.368 . S
C954 C950 1.368 . S
C954 C953 1.523 . S
H955 C930 0.950 . S
H956 C932 0.950 . S
H957 C933 0.948 . S
H958 C935 0.950 . S
H959 C937 0.950 . S
C960 C961 1.349 . S
C960 C962 1.327 . S
C960 H985 0.950 . S
C961 C960 1.349 . S
C961 C977 1.349 . S
C962 C960 1.327 . S
C962 C981 1.429 . S
C962 H986 0.950 . S
C963 C980 1.574 . S
C963 C982 1.368 . S
C963 H987 0.949 . S
H964 C968 0.949 . S
C965 C966 1.349 . S
C965 C967 1.327 . S
C965 H988 0.950 . S
C966 C965 1.349 . S
C966 C978 1.349 . S
C967 C965 1.327 . S
C967 C983 1.429 . S
C967 H989 0.950 . S
C968 H964 0.949 . S
C968 C976 1.574 . S
C968 C984 1.368 . S
H969 C977 0.950 . S
H970 C975 0.950 . S
H971 C976 0.949 . S
H972 C978 0.950 . S
H973 C979 0.950 . S
H974 C980 0.949 . S
C975 H970 0.950 . S
C975 C977 1.327 . S
C975 C981 1.429 . S
C976 C968 1.574 . S
C976 H971 0.949 . S
C976 C982 1.368 . S
C977 C961 1.349 . S
C977 H969 0.950 . S
C977 C975 1.327 . S
C978 C966 1.349 . S
C978 H972 0.950 . S
C978 C979 1.327 . S
C979 H973 0.950 . S
C979 C978 1.327 . S
C979 C983 1.429 . S
C980 C963 1.574 . S
C980 H974 0.949 . S
C980 C984 1.368 . S
C981 C962 1.429 . S
C981 C975 1.429 . S
C981 C982 1.523 . S
C982 C963 1.368 . S
C982 C976 1.368 . S
C982 C981 1.523 . S
C983 C967 1.429 . S
C983 C979 1.429 . S
C983 C984 1.523 . S
C984 C968 1.368 . S
C984 C980 1.368 . S
C984 C983 1.523 . S
H985 C960 0.950 . S
H986 C962 0.950 . S
H987 C963 0.949 . S
H988 C965 0.950 . S
H989 C967 0.950 . S
C990 C991 1.349 . S
C990 C992 1.327 . S
C990 H1015 0.950 . S
C991 C990 1.349 . S
C991 C1007 1.349 . S
C992 C990 1.327 . S
C992 C1011 1.429 1_554 S
C992 H1016 0.950 . S
C993 C1010 1.574 . S
C993 C1012 1.368 . S
C993 H1017 0.949 . S
H994 C998 0.949 . S
C995 C996 1.349 . S
C995 C997 1.327 . S
C995 H1018 0.950 . S
C996 C995 1.349 . S
C996 C1008 1.349 . S
C997 C995 1.327 . S
C997 C1013 1.429 . S
C997 H1019 0.950 . S
C998 H994 0.949 . S
C998 C1006 1.574 . S
C998 C1014 1.368 . S
H999 C1007 0.950 . S
H1000 C1005 0.950 . S
H1001 C1006 0.949 . S
H1002 C1008 0.950 . S
H1003 C1009 0.950 . S
H1004 C1010 0.949 . S
C1005 H1000 0.950 . S
C1005 C1007 1.327 1_556 S
C1005 C1011 1.429 . S
C1006 C998 1.574 . S
C1006 H1001 0.949 . S
C1006 C1012 1.368 . S
C1007 C991 1.349 . S
C1007 H999 0.950 . S
C1007 C1005 1.327 1_554 S
C1008 C996 1.349 . S
C1008 H1002 0.950 . S
C1008 C1009 1.327 . S
C1009 H1003 0.950 . S
C1009 C1008 1.327 . S
C1009 C1013 1.429 . S
C1010 C993 1.574 . S
C1010 H1004 0.949 . S
C1010 C1014 1.368 . S
C1011 C992 1.429 1_556 S
C1011 C1005 1.429 . S
C1011 C1012 1.523 . S
C1012 C993 1.368 . S
C1012 C1006 1.368 . S
C1012 C1011 1.523 . S
C1013 C997 1.429 . S
C1013 C1009 1.429 . S
C1013 C1014 1.523 . S
C1014 C998 1.368 . S
C1014 C1010 1.368 . S
C1014 C1013 1.523 . S
H1015 C990 0.950 . S
H1016 C992 0.950 . S
H1017 C993 0.949 . S
H1018 C995 0.950 . S
H1019 C997 0.950 . S
C1020 C1021 1.349 . S
C1020 C1022 1.327 . S
C1020 H1045 0.950 . S
C1021 C1020 1.349 . S
C1021 C1037 1.349 . S
C1022 C1020 1.327 . S
C1022 C1041 1.429 . S
C1022 H1046 0.950 . S
C1023 C1040 1.574 . S
C1023 C1042 1.368 . S
C1023 H1047 0.949 . S
H1024 C1028 0.949 . S
C1025 C1026 1.349 . S
C1025 C1027 1.327 . S
C1025 H1048 0.950 . S
C1026 C1025 1.349 . S
C1026 C1038 1.349 . S
C1027 C1025 1.327 . S
C1027 C1043 1.429 . S
C1027 H1049 0.950 . S
C1028 H1024 0.949 . S
C1028 C1036 1.574 . S
C1028 C1044 1.368 . S
H1029 C1037 0.950 . S
H1030 C1035 0.950 . S
H1031 C1036 0.949 . S
H1032 C1038 0.950 . S
H1033 C1039 0.950 . S
H1034 C1040 0.949 . S
C1035 H1030 0.950 . S
C1035 C1037 1.327 . S
C1035 C1041 1.429 . S
C1036 C1028 1.574 . S
C1036 H1031 0.949 . S
C1036 C1042 1.368 . S
C1037 C1021 1.349 . S
C1037 H1029 0.950 . S
C1037 C1035 1.327 . S
C1038 C1026 1.349 . S
C1038 H1032 0.950 . S
C1038 C1039 1.327 . S
C1039 H1033 0.950 . S
C1039 C1038 1.327 . S
C1039 C1043 1.429 . S
C1040 C1023 1.574 . S
C1040 H1034 0.949 . S
C1040 C1044 1.368 . S
C1041 C1022 1.429 . S
C1041 C1035 1.429 . S
C1041 C1042 1.523 . S
C1042 C1023 1.368 . S
C1042 C1036 1.368 . S
C1042 C1041 1.523 . S
C1043 C1027 1.429 . S
C1043 C1039 1.429 . S
C1043 C1044 1.523 . S
C1044 C1028 1.368 . S
C1044 C1040 1.368 . S
C1044 C1043 1.523 . S
H1045 C1020 0.950 . S
H1046 C1022 0.950 . S
H1047 C1023 0.949 . S
H1048 C1025 0.950 . S
H1049 C1027 0.950 . S
C1050 C1051 1.349 . S
C1050 C1052 1.327 . S
C1050 H1075 0.950 . S
C1051 C1050 1.349 . S
C1051 C1067 1.349 . S
C1052 C1050 1.327 . S
C1052 C1071 1.429 . S
C1052 H1076 0.950 . S
C1053 C1070 1.574 . S
C1053 C1072 1.368 . S
C1053 H1077 0.949 . S
H1054 C1058 0.949 . S
C1055 C1056 1.349 . S
C1055 C1057 1.327 . S
C1055 H1078 0.950 . S
C1056 C1055 1.349 . S
C1056 C1068 1.349 . S
C1057 C1055 1.327 . S
C1057 C1073 1.429 . S
C1057 H1079 0.950 . S
C1058 H1054 0.949 . S
C1058 C1066 1.574 . S
C1058 C1074 1.368 . S
H1059 C1067 0.950 . S
H1060 C1065 0.950 . S
H1061 C1066 0.949 . S
H1062 C1068 0.950 . S
H1063 C1069 0.950 . S
H1064 C1070 0.949 . S
C1065 H1060 0.950 . S
C1065 C1067 1.327 . S
C1065 C1071 1.429 . S
C1066 C1058 1.574 . S
C1066 H1061 0.949 . S
C1066 C1072 1.368 . S
C1067 C1051 1.349 . S
C1067 H1059 0.950 . S
C1067 C1065 1.327 . S
C1068 C1056 1.349 . S
C1068 H1062 0.950 . S
C1068 C1069 1.327 . S
C1069 H1063 0.950 . S
C1069 C1068 1.327 . S
C1069 C1073 1.429 . S
C1070 C1053 1.574 . S
C1070 H1064 0.949 . S
C1070 C1074 1.368 . S
C1071 C1052 1.429 . S
C1071 C1065 1.429 . S
C1071 C1072 1.523 . S
C1072 C1053 1.368 . S
C1072 C1066 1.368 . S
C1072 C1071 1.523 . S
C1073 C1057 1.429 . S
C1073 C1069 1.429 . S
C1073 C1074 1.523 . S
C1074 C1058 1.368 . S
C1074 C1070 1.368 . S
C1074 C1073 1.523 . S
H1075 C1050 0.950 . S
H1076 C1052 0.950 . S
H1077 C1053 0.949 . S
H1078 C1055 0.950 . S
H1079 C1057 0.950 . S
C1080 C1081 1.349 . S
C1080 C1082 1.327 . S
C1080 H1105 0.950 . S
C1081 C1080 1.349 . S
C1081 C1097 1.349 . S
C1082 C1080 1.327 . S
C1082 C1101 1.429 . S
C1082 H1106 0.950 . S
C1083 C1100 1.574 . S
C1083 C1102 1.368 . S
C1083 H1107 0.949 . S
H1084 C1088 0.949 . S
C1085 C1086 1.349 . S
C1085 C1087 1.327 . S
C1085 H1108 0.950 . S
C1086 C1085 1.349 . S
C1086 C1098 1.349 . S
C1087 C1085 1.327 . S
C1087 C1103 1.429 . S
C1087 H1109 0.950 . S
C1088 H1084 0.949 . S
C1088 C1096 1.574 . S
C1088 C1104 1.368 . S
H1089 C1097 0.950 . S
H1090 C1095 0.950 . S
H1091 C1096 0.949 . S
H1092 C1098 0.950 . S
H1093 C1099 0.950 . S
H1094 C1100 0.949 . S
C1095 H1090 0.950 . S
C1095 C1097 1.327 . S
C1095 C1101 1.429 . S
C1096 C1088 1.574 . S
C1096 H1091 0.949 . S
C1096 C1102 1.368 . S
C1097 C1081 1.349 . S
C1097 H1089 0.950 . S
C1097 C1095 1.327 . S
C1098 C1086 1.349 . S
C1098 H1092 0.950 . S
C1098 C1099 1.327 . S
C1099 H1093 0.950 . S
C1099 C1098 1.327 . S
C1099 C1103 1.429 . S
C1100 C1083 1.574 . S
C1100 H1094 0.949 . S
C1100 C1104 1.368 . S
C1101 C1082 1.429 . S
C1101 C1095 1.429 . S
C1101 C1102 1.523 . S
C1102 C1083 1.368 . S
C1102 C1096 1.368 . S
C1102 C1101 1.523 . S
C1103 C1087 1.429 . S
C1103 C1099 1.429 . S
C1103 C1104 1.523 . S
C1104 C1088 1.368 . S
C1104 C1100 1.368 . S
C1104 C1103 1.523 . S
H1105 C1080 0.950 . S
H1106 C1082 0.950 . S
H1107 C1083 0.949 . S
H1108 C1085 0.950 . S
H1109 C1087 0.950 . S
C1110 C1111 1.349 . S
C1110 C1112 1.327 . S
C1110 H1135 0.950 . S
C1111 C1110 1.349 . S
C1111 C1127 1.349 . S
C1112 C1110 1.327 . S
C1112 C1131 1.429 . S
C1112 H1136 0.950 . S
C1113 C1130 1.574 . S
C1113 C1132 1.368 . S
C1113 H1137 0.949 . S
H1114 C1118 0.949 . S
C1115 C1116 1.349 . S
C1115 C1117 1.327 . S
C1115 H1138 0.950 . S
C1116 C1115 1.349 . S
C1116 C1128 1.349 . S
C1117 C1115 1.327 . S
C1117 C1133 1.429 . S
C1117 H1139 0.950 . S
C1118 H1114 0.949 . S
C1118 C1126 1.574 . S
C1118 C1134 1.368 . S
H1119 C1127 0.950 . S
H1120 C1125 0.950 . S
H1121 C1126 0.949 . S
H1122 C1128 0.950 . S
H1123 C1129 0.950 1_545 S
H1124 C1130 0.949 . S
C1125 H1120 0.950 . S
C1125 C1127 1.327 . S
C1125 C1131 1.429 . S
C1126 C1118 1.574 . S
C1126 H1121 0.949 . S
C1126 C1132 1.368 . S
C1127 C1111 1.349 . S
C1127 H1119 0.950 . S
C1127 C1125 1.327 . S
C1128 C1116 1.349 . S
C1128 H1122 0.950 . S
C1128 C1129 1.327 . S
C1129 H1123 0.950 1_565 S
C1129 C1128 1.327 . S
C1129 C1133 1.429 . S
C1130 C1113 1.574 . S
C1130 H1124 0.949 . S
C1130 C1134 1.368 . S
C1131 C1112 1.429 . S
C1131 C1125 1.429 . S
C1131 C1132 1.523 . S
C1132 C1113 1.368 . S
C1132 C1126 1.368 . S
C1132 C1131 1.523 . S
C1133 C1117 1.429 . S
C1133 C1129 1.429 . S
C1133 C1134 1.523 1_565 S
C1134 C1118 1.368 . S
C1134 C1130 1.368 . S
C1134 C1133 1.523 1_545 S
H1135 C1110 0.950 . S
H1136 C1112 0.950 . S
H1137 C1113 0.949 . S
H1138 C1115 0.950 . S
H1139 C1117 0.950 . S
C1140 C1141 1.349 . S
C1140 C1142 1.327 . S
C1140 H1165 0.950 . S
C1141 C1140 1.349 . S
C1141 C1157 1.349 . S
C1142 C1140 1.327 . S
C1142 C1161 1.429 . S
C1142 H1166 0.950 . S
C1143 C1160 1.574 . S
C1143 C1162 1.368 . S
C1143 H1167 0.949 . S
H1144 C1148 0.949 . S
C1145 C1146 1.349 . S
C1145 C1147 1.327 . S
C1145 H1168 0.950 . S
C1146 C1145 1.349 . S
C1146 C1158 1.349 . S
C1147 C1145 1.327 . S
C1147 C1163 1.429 . S
C1147 H1169 0.950 . S
C1148 H1144 0.949 . S
C1148 C1156 1.574 . S
C1148 C1164 1.368 . S
H1149 C1157 0.950 . S
H1150 C1155 0.950 . S
H1151 C1156 0.949 . S
H1152 C1158 0.950 . S
H1153 C1159 0.950 . S
H1154 C1160 0.949 . S
C1155 H1150 0.950 . S
C1155 C1157 1.327 . S
C1155 C1161 1.429 . S
C1156 C1148 1.574 . S
C1156 H1151 0.949 . S
C1156 C1162 1.368 . S
C1157 C1141 1.349 . S
C1157 H1149 0.950 . S
C1157 C1155 1.327 . S
C1158 C1146 1.349 . S
C1158 H1152 0.950 . S
C1158 C1159 1.327 . S
C1159 H1153 0.950 . S
C1159 C1158 1.327 . S
C1159 C1163 1.429 . S
C1160 C1143 1.574 . S
C1160 H1154 0.949 . S
C1160 C1164 1.368 . S
C1161 C1142 1.429 . S
C1161 C1155 1.429 . S
C1161 C1162 1.523 . S
C1162 C1143 1.368 . S
C1162 C1156 1.368 . S
C1162 C1161 1.523 . S
C1163 C1147 1.429 . S
C1163 C1159 1.429 . S
C1163 C1164 1.523 . S
C1164 C1148 1.368 . S
C1164 C1160 1.368 . S
C1164 C1163 1.523 . S
H1165 C1140 0.950 . S
H1166 C1142 0.950 . S
H1167 C1143 0.949 . S
H1168 C1145 0.950 . S
H1169 C1147 0.950 . S
C1170 C1171 1.349 . S
C1170 C1172 1.327 . S
C1170 H1195 0.950 . S
C1171 C1170 1.349 . S
C1171 C1187 1.349 . S
C1172 C1170 1.327 . S
C1172 C1191 1.429 . S
C1172 H1196 0.950 . S
C1173 C1190 1.574 1_545 S
C1173 C1192 1.368 . S
C1173 H1197 0.949 . S
H1174 C1178 0.949 . S
C1175 C1176 1.349 . S
C1175 C1177 1.327 . S
C1175 H1198 0.950 . S
C1176 C1175 1.349 . S
C1176 C1188 1.349 . S
C1177 C1175 1.327 . S
C1177 C1193 1.429 . S
C1177 H1199 0.950 . S
C1178 H1174 0.949 . S
C1178 C1186 1.574 . S
C1178 C1194 1.368 1_545 S
H1179 C1187 0.950 . S
H1180 C1185 0.950 . S
H1181 C1186 0.949 . S
H1182 C1188 0.950 . S
H1183 C1189 0.950 . S
H1184 C1190 0.949 . S
C1185 H1180 0.950 . S
C1185 C1187 1.327 . S
C1185 C1191 1.429 . S
C1186 C1178 1.574 . S
C1186 H1181 0.949 . S
C1186 C1192 1.368 . S
C1187 C1171 1.349 . S
C1187 H1179 0.950 . S
C1187 C1185 1.327 . S
C1188 C1176 1.349 . S
C1188 H1182 0.950 . S
C1188 C1189 1.327 . S
C1189 H1183 0.950 . S
C1189 C1188 1.327 . S
C1189 C1193 1.429 . S
C1190 C1173 1.574 1_565 S
C1190 H1184 0.949 . S
C1190 C1194 1.368 . S
C1191 C1172 1.429 . S
C1191 C1185 1.429 . S
C1191 C1192 1.523 . S
C1192 C1173 1.368 . S
C1192 C1186 1.368 . S
C1192 C1191 1.523 . S
C1193 C1177 1.429 . S
C1193 C1189 1.429 . S
C1193 C1194 1.523 . S
C1194 C1178 1.368 1_565 S
C1194 C1190 1.368 . S
C1194 C1193 1.523 . S
H1195 C1170 0.950 . S
H1196 C1172 0.950 . S
H1197 C1173 0.949 . S
H1198 C1175 0.950 . S
H1199 C1177 0.950 . S
C1200 C1201 1.349 . S
C1200 C1202 1.327 . S
C1200 H1225 0.950 . S
C1201 C1200 1.349 . S
C1201 C1217 1.349 . S
C1202 C1200 1.327 . S
C1202 C1221 1.429 . S
C1202 H1226 0.950 . S
C1203 C1220 1.574 . S
C1203 C1222 1.368 . S
C1203 H1227 0.949 . S
H1204 C1208 0.949 . S
C1205 C1206 1.349 . S
C1205 C1207 1.327 . S
C1205 H1228 0.950 . S
C1206 C1205 1.349 . S
C1206 C1218 1.349 . S
C1207 C1205 1.327 . S
C1207 C1223 1.429 . S
C1207 H1229 0.950 . S
C1208 H1204 0.949 . S
C1208 C1216 1.574 . S
C1208 C1224 1.368 . S
H1209 C1217 0.950 . S
H1210 C1215 0.950 . S
H1211 C1216 0.949 . S
H1212 C1218 0.950 . S
H1213 C1219 0.950 . S
H1214 C1220 0.949 . S
C1215 H1210 0.950 . S
C1215 C1217 1.327 . S
C1215 C1221 1.429 . S
C1216 C1208 1.574 . S
C1216 H1211 0.949 . S
C1216 C1222 1.368 . S
C1217 C1201 1.349 . S
C1217 H1209 0.950 . S
C1217 C1215 1.327 . S
C1218 C1206 1.349 . S
C1218 H1212 0.950 . S
C1218 C1219 1.327 . S
C1219 H1213 0.950 . S
C1219 C1218 1.327 . S
C1219 C1223 1.429 . S
C1220 C1203 1.574 . S
C1220 H1214 0.949 . S
C1220 C1224 1.368 . S
C1221 C1202 1.429 . S
C1221 C1215 1.429 . S
C1221 C1222 1.523 . S
C1222 C1203 1.368 . S
C1222 C1216 1.368 . S
C1222 C1221 1.523 . S
C1223 C1207 1.429 . S
C1223 C1219 1.429 . S
C1223 C1224 1.523 . S
C1224 C1208 1.368 . S
C1224 C1220 1.368 . S
C1224 C1223 1.523 . S
H1225 C1200 0.950 . S
H1226 C1202 0.950 . S
H1227 C1203 0.949 . S
H1228 C1205 0.950 . S
H1229 C1207 0.950 . S
C1230 C1231 1.349 . S
C1230 C1232 1.327 . S
C1230 H1255 0.950 . S
C1231 C1230 1.349 . S
C1231 C1247 1.349 . S
C1232 C1230 1.327 . S
C1232 C1251 1.429 . S
C1232 H1256 0.950 . S
C1233 C1250 1.574 . S
C1233 C1252 1.368 . S
C1233 H1257 0.949 . S
H1234 C1238 0.949 . S
C1235 C1236 1.349 . S
C1235 C1237 1.327 . S
C1235 H1258 0.950 . S
C1236 C1235 1.349 . S
C1236 C1248 1.349 . S
C1237 C1235 1.327 . S
C1237 C1253 1.429 . S
C1237 H1259 0.950 . S
C1238 H1234 0.949 . S
C1238 C1246 1.574 . S
C1238 C1254 1.368 . S
H1239 C1247 0.950 . S
H1240 C1245 0.950 . S
H1241 C1246 0.949 . S
H1242 C1248 0.950 . S
H1243 C1249 0.950 . S
H1244 C1250 0.949 . S
C1245 H1240 0.950 . S
C1245 C1247 1.327 . S
C1245 C1251 1.429 . S
C1246 C1238 1.574 . S
C1246 H1241 0.949 . S
C1246 C1252 1.368 . S
C1247 C1231 1.349 . S
C1247 H1239 0.950 . S
C1247 C1245 1.327 . S
C1248 C1236 1.349 . S
C1248 H1242 0.950 . S
C1248 C1249 1.327 . S
C1249 H1243 0.950 . S
C1249 C1248 1.327 . S
C1249 C1253 1.429 . S
C1250 C1233 1.574 . S
C1250 H1244 0.949 . S
C1250 C1254 1.368 . S
C1251 C1232 1.429 . S
C1251 C1245 1.429 . S
C1251 C1252 1.523 . S
C1252 C1233 1.368 . S
C1252 C1246 1.368 . S
C1252 C1251 1.523 . S
C1253 C1237 1.429 . S
C1253 C1249 1.429 . S
C1253 C1254 1.523 . S
C1254 C1238 1.368 . S
C1254 C1250 1.368 . S
C1254 C1253 1.523 . S
H1255 C1230 0.950 . S
H1256 C1232 0.950 . S
H1257 C1233 0.949 . S
H1258 C1235 0.950 . S
H1259 C1237 0.950 . S
C1260 C1261 1.349 . S
C1260 C1262 1.327 . S
C1260 H1285 0.950 . S
C1261 C1260 1.349 . S
C1261 C1277 1.349 . S
C1262 C1260 1.327 . S
C1262 C1281 1.429 . S
C1262 H1286 0.950 . S
C1263 C1280 1.574 . S
C1263 C1282 1.368 . S
C1263 H1287 0.949 . S
H1264 C1268 0.949 . S
C1265 C1266 1.349 . S
C1265 C1267 1.327 . S
C1265 H1288 0.950 . S
C1266 C1265 1.349 . S
C1266 C1278 1.349 . S
C1267 C1265 1.327 . S
C1267 C1283 1.429 . S
C1267 H1289 0.950 . S
C1268 H1264 0.949 . S
C1268 C1276 1.574 . S
C1268 C1284 1.368 . S
H1269 C1277 0.950 . S
H1270 C1275 0.950 . S
H1271 C1276 0.949 . S
H1272 C1278 0.950 . S
H1273 C1279 0.950 . S
H1274 C1280 0.949 . S
C1275 H1270 0.950 . S
C1275 C1277 1.327 . S
C1275 C1281 1.429 . S
C1276 C1268 1.574 . S
C1276 H1271 0.949 . S
C1276 C1282 1.368 . S
C1277 C1261 1.349 . S
C1277 H1269 0.950 . S
C1277 C1275 1.327 . S
C1278 C1266 1.349 . S
C1278 H1272 0.950 . S
C1278 C1279 1.327 . S
C1279 H1273 0.950 . S
C1279 C1278 1.327 . S
C1279 C1283 1.429 . S
C1280 C1263 1.574 . S
C1280 H1274 0.949 . S
C1280 C1284 1.368 . S
C1281 C1262 1.429 . S
C1281 C1275 1.429 . S
C1281 C1282 1.523 . S
C1282 C1263 1.368 . S
C1282 C1276 1.368 . S
C1282 C1281 1.523 . S
C1283 C1267 1.429 . S
C1283 C1279 1.429 . S
C1283 C1284 1.523 . S
C1284 C1268 1.368 . S
C1284 C1280 1.368 . S
C1284 C1283 1.523 . S
H1285 C1260 0.950 . S
H1286 C1262 0.950 . S
H1287 C1263 0.949 . S
H1288 C1265 0.950 . S
H1289 C1267 0.950 . S
C1290 C1291 1.349 . S
C1290 C1292 1.327 . S
C1290 H1315 0.950 . S
C1291 C1290 1.349 . S
C1291 C1307 1.349 . S
C1292 C1290 1.327 . S
C1292 C1311 1.429 . S
C1292 H1316 0.950 . S
C1293 C1310 1.574 . S
C1293 C1312 1.368 . S
C1293 H1317 0.949 . S
H1294 C1298 0.949 . S
C1295 C1296 1.349 . S
C1295 C1297 1.327 . S
C1295 H1318 0.950 . S
C1296 C1295 1.349 . S
C1296 C1308 1.349 . S
C1297 C1295 1.327 . S
C1297 C1313 1.429 . S
C1297 H1319 0.950 . S
C1298 H1294 0.949 . S
C1298 C1306 1.574 . S
C1298 C1314 1.368 . S
H1299 C1307 0.950 . S
H1300 C1305 0.950 . S
H1301 C1306 0.949 . S
H1302 C1308 0.950 . S
H1303 C1309 0.950 . S
H1304 C1310 0.949 . S
C1305 H1300 0.950 . S
C1305 C1307 1.327 . S
C1305 C1311 1.429 . S
C1306 C1298 1.574 . S
C1306 H1301 0.949 . S
C1306 C1312 1.368 . S
C1307 C1291 1.349 . S
C1307 H1299 0.950 . S
C1307 C1305 1.327 . S
C1308 C1296 1.349 . S
C1308 H1302 0.950 . S
C1308 C1309 1.327 . S
C1309 H1303 0.950 . S
C1309 C1308 1.327 . S
C1309 C1313 1.429 . S
C1310 C1293 1.574 . S
C1310 H1304 0.949 . S
C1310 C1314 1.368 . S
C1311 C1292 1.429 . S
C1311 C1305 1.429 . S
C1311 C1312 1.523 . S
C1312 C1293 1.368 . S
C1312 C1306 1.368 . S
C1312 C1311 1.523 . S
C1313 C1297 1.429 . S
C1313 C1309 1.429 . S
C1313 C1314 1.523 . S
C1314 C1298 1.368 . S
C1314 C1310 1.368 . S
C1314 C1313 1.523 . S
H1315 C1290 0.950 . S
H1316 C1292 0.950 . S
H1317 C1293 0.949 . S
H1318 C1295 0.950 . S
H1319 C1297 0.950 . S
C1320 C1321 1.349 . S
C1320 C1322 1.327 . S
C1320 H1345 0.950 . S
C1321 C1320 1.349 . S
C1321 C1337 1.349 . S
C1322 C1320 1.327 . S
C1322 C1341 1.429 . S
C1322 H1346 0.950 . S
C1323 C1340 1.574 . S
C1323 C1342 1.368 . S
C1323 H1347 0.949 . S
H1324 C1328 0.949 . S
C1325 C1326 1.349 . S
C1325 C1327 1.327 . S
C1325 H1348 0.950 . S
C1326 C1325 1.349 . S
C1326 C1338 1.349 . S
C1327 C1325 1.327 . S
C1327 C1343 1.429 . S
C1327 H1349 0.950 . S
C1328 H1324 0.949 . S
C1328 C1336 1.574 . S
C1328 C1344 1.368 . S
H1329 C1337 0.950 . S
H1330 C1335 0.950 . S
H1331 C1336 0.949 . S
H1332 C1338 0.950 . S
H1333 C1339 0.950 . S
H1334 C1340 0.949 . S
C1335 H1330 0.950 . S
C1335 C1337 1.327 . S
C1335 C1341 1.429 . S
C1336 C1328 1.574 . S
C1336 H1331 0.949 . S
C1336 C1342 1.368 . S
C1337 C1321 1.349 . S
C1337 H1329 0.950 . S
C1337 C1335 1.327 . S
C1338 C1326 1.349 . S
C1338 H1332 0.950 . S
C1338 C1339 1.327 . S
C1339 H1333 0.950 . S
C1339 C1338 1.327 . S
C1339 C1343 1.429 . S
C1340 C1323 1.574 . S
C1340 H1334 0.949 . S
C1340 C1344 1.368 . S
C1341 C1322 1.429 . S
C1341 C1335 1.429 . S
C1341 C1342 1.523 . S
C1342 C1323 1.368 . S
C1342 C1336 1.368 . S
C1342 C1341 1.523 . S
C1343 C1327 1.429 . S
C1343 C1339 1.429 . S
C1343 C1344 1.523 . S
C1344 C1328 1.368 . S
C1344 C1340 1.368 . S
C1344 C1343 1.523 . S
H1345 C1320 0.950 . S
H1346 C1322 0.950 . S
H1347 C1323 0.949 . S
H1348 C1325 0.950 . S
H1349 C1327 0.950 . S
C1350 C1351 1.349 . S
C1350 C1352 1.327 . S
C1350 H1375 0.950 . S
C1351 C1350 1.349 . S
C1351 C1367 1.349 . S
C1352 C1350 1.327 . S
C1352 C1371 1.429 . S
C1352 H1376 0.950 . S
C1353 C1370 1.574 . S
C1353 C1372 1.368 . S
C1353 H1377 0.949 . S
H1354 C1358 0.949 . S
C1355 C1356 1.349 . S
C1355 C1357 1.327 . S
C1355 H1378 0.950 . S
C1356 C1355 1.349 . S
C1356 C1368 1.349 . S
C1357 C1355 1.327 . S
C1357 C1373 1.429 . S
C1357 H1379 0.950 . S
C1358 H1354 0.949 . S
C1358 C1366 1.574 . S
C1358 C1374 1.368 . S
H1359 C1367 0.950 . S
H1360 C1365 0.950 . S
H1361 C1366 0.949 . S
H1362 C1368 0.950 . S
H1363 C1369 0.950 . S
H1364 C1370 0.949 . S
C1365 H1360 0.950 . S
C1365 C1367 1.327 . S
C1365 C1371 1.429 . S
C1366 C1358 1.574 . S
C1366 H1361 0.949 . S
C1366 C1372 1.368 . S
C1367 C1351 1.349 . S
C1367 H1359 0.950 . S
C1367 C1365 1.327 . S
C1368 C1356 1.349 . S
C1368 H1362 0.950 . S
C1368 C1369 1.327 . S
C1369 H1363 0.950 . S
C1369 C1368 1.327 . S
C1369 C1373 1.429 . S
C1370 C1353 1.574 . S
C1370 H1364 0.949 . S
C1370 C1374 1.368 . S
C1371 C1352 1.429 . S
C1371 C1365 1.429 . S
C1371 C1372 1.523 . S
C1372 C1353 1.368 . S
C1372 C1366 1.368 . S
C1372 C1371 1.523 . S
C1373 C1357 1.429 . S
C1373 C1369 1.429 . S
C1373 C1374 1.523 . S
C1374 C1358 1.368 . S
C1374 C1370 1.368 . S
C1374 C1373 1.523 . S
H1375 C1350 0.950 . S
H1376 C1352 0.950 . S
H1377 C1353 0.949 . S
H1378 C1355 0.950 . S
H1379 C1357 0.950 . S
C1380 C1381 1.349 . S
C1380 C1382 1.327 . S
C1380 H1405 0.950 . S
C1381 C1380 1.349 . S
C1381 C1397 1.349 . S
C1382 C1380 1.327 . S
C1382 C1401 1.429 . S
C1382 H1406 0.950 . S
C1383 C1400 1.574 1_455 S
C1383 C1402 1.368 . S
C1383 H1407 0.949 . S
H1384 C1388 0.945 1_655 S
C1385 C1386 1.349 . S
C1385 C1387 1.327 . S
C1385 H1408 0.950 . S
C1386 C1385 1.349 . S
C1386 C1398 1.349 . S
C1387 C1385 1.327 . S
C1387 C1403 1.429 . S
C1387 H1409 0.950 . S
C1388 H1384 0.945 1_455 S
C1388 C1396 1.587 . S
C1388 C1404 1.360 1_455 S
H1389 C1397 0.950 . S
H1390 C1395 0.950 . S
H1391 C1396 0.949 . S
H1392 C1398 0.950 . S
H1393 C1399 0.950 . S
H1394 C1400 0.949 . S
C1395 H1390 0.950 . S
C1395 C1397 1.327 . S
C1395 C1401 1.429 . S
C1396 C1388 1.587 . S
C1396 H1391 0.949 . S
C1396 C1402 1.368 . S
C1397 C1381 1.349 . S
C1397 H1389 0.950 . S
C1397 C1395 1.327 . S
C1398 C1386 1.349 . S
C1398 H1392 0.950 . S
C1398 C1399 1.327 . S
C1399 H1393 0.950 . S
C1399 C1398 1.327 . S
C1399 C1403 1.429 . S
C1400 C1383 1.574 1_655 S
C1400 H1394 0.949 . S
C1400 C1404 1.368 . S
C1401 C1382 1.429 . S
C1401 C1395 1.429 . S
C1401 C1402 1.523 . S
C1402 C1383 1.368 . S
C1402 C1396 1.368 . S
C1402 C1401 1.523 . S
C1403 C1387 1.429 . S
C1403 C1399 1.429 . S
C1403 C1404 1.523 . S
C1404 C1388 1.360 1_655 S
C1404 C1400 1.368 . S
C1404 C1403 1.523 . S
H1405 C1380 0.950 . S
H1406 C1382 0.950 . S
H1407 C1383 0.949 . S
H1408 C1385 0.950 . S
H1409 C1387 0.950 . S
C1410 C1411 1.349 . S
C1410 C1412 1.327 . S
C1410 H1435 0.950 . S
C1411 C1410 1.349 . S
C1411 C1427 1.349 . S
C1412 C1410 1.327 . S
C1412 C1431 1.429 . S
C1412 H1436 0.950 . S
C1413 C1430 1.574 . S
C1413 C1432 1.368 . S
C1413 H1437 0.949 . S
H1414 C1418 0.949 . S
C1415 C1416 1.349 . S
C1415 C1417 1.327 . S
C1415 H1438 0.950 . S
C1416 C1415 1.349 . S
C1416 C1428 1.349 . S
C1417 C1415 1.327 . S
C1417 C1433 1.429 . S
C1417 H1439 0.950 . S
C1418 H1414 0.949 . S
C1418 C1426 1.574 . S
C1418 C1434 1.368 . S
H1419 C1427 0.950 . S
H1420 C1425 0.950 . S
H1421 C1426 0.949 . S
H1422 C1428 0.950 . S
H1423 C1429 0.950 . S
H1424 C1430 0.949 . S
C1425 H1420 0.950 . S
C1425 C1427 1.327 . S
C1425 C1431 1.429 . S
C1426 C1418 1.574 . S
C1426 H1421 0.949 . S
C1426 C1432 1.368 . S
C1427 C1411 1.349 . S
C1427 H1419 0.950 . S
C1427 C1425 1.327 . S
C1428 C1416 1.349 . S
C1428 H1422 0.950 . S
C1428 C1429 1.327 . S
C1429 H1423 0.950 . S
C1429 C1428 1.327 . S
C1429 C1433 1.429 . S
C1430 C1413 1.574 . S
C1430 H1424 0.949 . S
C1430 C1434 1.368 . S
C1431 C1412 1.429 . S
C1431 C1425 1.429 . S
C1431 C1432 1.523 . S
C1432 C1413 1.368 . S
C1432 C1426 1.368 . S
C1432 C1431 1.523 . S
C1433 C1417 1.429 . S
C1433 C1429 1.429 . S
C1433 C1434 1.523 . S
C1434 C1418 1.368 . S
C1434 C1430 1.368 . S
C1434 C1433 1.523 . S
H1435 C1410 0.950 . S
H1436 C1412 0.950 . S
H1437 C1413 0.949 . S
H1438 C1415 0.950 . S
H1439 C1417 0.950 . S
C1440 C1441 1.349 . S
C1440 C1442 1.327 . S
C1440 H1465 0.950 . S
C1441 C1440 1.349 . S
C1441 C1457 1.349 . S
C1442 C1440 1.327 . S
C1442 C1461 1.429 . S
C1442 H1466 0.950 . S
C1443 C1460 1.574 . S
C1443 C1462 1.368 . S
C1443 H1467 0.949 . S
H1444 C1448 0.949 . S
C1445 C1446 1.349 . S
C1445 C1447 1.327 . S
C1445 H1468 0.950 . S
C1446 C1445 1.349 . S
C1446 C1458 1.349 . S
C1447 C1445 1.327 . S
C1447 C1463 1.429 . S
C1447 H1469 0.950 . S
C1448 H1444 0.949 . S
C1448 C1456 1.574 . S
C1448 C1464 1.368 . S
H1449 C1457 0.950 . S
H1450 C1455 0.950 . S
H1451 C1456 0.949 . S
H1452 C1458 0.950 . S
H1453 C1459 0.950 . S
H1454 C1460 0.949 . S
C1455 H1450 0.950 . S
C1455 C1457 1.327 . S
C1455 C1461 1.429 . S
C1456 C1448 1.574 . S
C1456 H1451 0.949 . S
C1456 C1462 1.368 . S
C1457 C1441 1.349 . S
C1457 H1449 0.950 . S
C1457 C1455 1.327 . S
C1458 C1446 1.349 . S
C1458 H1452 0.950 . S
C1458 C1459 1.327 . S
C1459 H1453 0.950 . S
C1459 C1458 1.327 . S
C1459 C1463 1.429 . S
C1460 C1443 1.574 . S
C1460 H1454 0.949 . S
C1460 C1464 1.368 . S
C1461 C1442 1.429 . S
C1461 C1455 1.429 . S
C1461 C1462 1.523 . S
C1462 C1443 1.368 . S
C1462 C1456 1.368 . S
C1462 C1461 1.523 . S
C1463 C1447 1.429 . S
C1463 C1459 1.429 . S
C1463 C1464 1.523 . S
C1464 C1448 1.368 . S
C1464 C1460 1.368 . S
C1464 C1463 1.523 . S
H1465 C1440 0.950 . S
H1466 C1442 0.950 . S
H1467 C1443 0.949 . S
H1468 C1445 0.950 . S
H1469 C1447 0.950 . S
C1470 C1471 1.349 . S
C1470 C1472 1.327 . S
C1470 H1495 0.950 . S
C1471 C1470 1.349 . S
C1471 C1487 1.349 . S
C1472 C1470 1.327 . S
C1472 C1491 1.429 . S
C1472 H1496 0.950 . S
C1473 C1490 1.574 . S
C1473 C1492 1.368 . S
C1473 H1497 0.949 . S
H1474 C1478 0.949 . S
C1475 C1476 1.349 . S
C1475 C1477 1.327 . S
C1475 H1498 0.950 . S
C1476 C1475 1.349 . S
C1476 C1488 1.349 . S
C1477 C1475 1.327 . S
C1477 C1493 1.429 . S
C1477 H1499 0.950 . S
C1478 H1474 0.949 . S
C1478 C1486 1.574 . S
C1478 C1494 1.368 . S
H1479 C1487 0.950 . S
H1480 C1485 0.950 . S
H1481 C1486 0.949 . S
H1482 C1488 0.950 . S
H1483 C1489 0.950 . S
H1484 C1490 0.949 . S
C1485 H1480 0.950 . S
C1485 C1487 1.327 . S
C1485 C1491 1.429 . S
C1486 C1478 1.574 . S
C1486 H1481 0.949 . S
C1486 C1492 1.368 . S
C1487 C1471 1.349 . S
C1487 H1479 0.950 . S
C1487 C1485 1.327 . S
C1488 C1476 1.349 . S
C1488 H1482 0.950 . S
C1488 C1489 1.327 . S
C1489 H1483 0.950 . S
C1489 C1488 1.327 . S
C1489 C1493 1.429 . S
C1490 C1473 1.574 . S
C1490 H1484 0.949 . S
C1490 C1494 1.368 . S
C1491 C1472 1.429 . S
C1491 C1485 1.429 . S
C1491 C1492 1.523 . S
C1492 C1473 1.368 . S
C1492 C1486 1.368 . S
C1492 C1491 1.523 . S
C1493 C1477 1.429 . S
C1493 C1489 1.429 . S
C1493 C1494 1.523 . S
C1494 C1478 1.368 . S
C1494 C1490 1.368 . S
C1494 C1493 1.523 . S
H1495 C1470 0.950 . S
H1496 C1472 0.950 . S
H1497 C1473 0.949 . S
H1498 C1475 0.950 . S
H1499 C1477 0.950 . S
C1500 C1501 1.349 . S
C1500 C1502 1.327 . S
C1500 H1525 0.950 . S
C1501 C1500 1.349 . S
C1501 C1517 1.349 . S
C1502 C1500 1.327 . S
C1502 C1521 1.429 . S
C1502 H1526 0.950 . S
C1503 C1520 1.574 . S
C1503 C1522 1.368 . S
C1503 H1527 0.949 . S
H1504 C1508 0.949 . S
C1505 C1506 1.349 . S
C1505 C1507 1.327 . S
C1505 H1528 0.950 . S
C1506 C1505 1.349 . S
C1506 C1518 1.349 . S
C1507 C1505 1.327 . S
C1507 C1523 1.429 . S
C1507 H1529 0.950 . S
C1508 H1504 0.949 . S
C1508 C1516 1.574 . S
C1508 C1524 1.368 . S
H1509 C1517 0.950 . S
H1510 C1515 0.950 . S
H1511 C1516 0.949 . S
H1512 C1518 0.950 . S
H1513 C1519 0.950 . S
H1514 C1520 0.949 . S
C1515 H1510 0.950 . S
C1515 C1517 1.327 . S
C1515 C1521 1.429 . S
C1516 C1508 1.574 . S
C1516 H1511 0.949 . S
C1516 C1522 1.368 . S
C1517 C1501 1.349 . S
C1517 H1509 0.950 . S
C1517 C1515 1.327 . S
C1518 C1506 1.349 . S
C1518 H1512 0.950 . S
C1518 C1519 1.327 . S
C1519 H1513 0.950 . S
C1519 C1518 1.327 . S
C1519 C1523 1.429 . S
C1520 C1503 1.574 . S
C1520 H1514 0.949 . S
C1520 C1524 1.368 . S
C1521 C1502 1.429 . S
C1521 C1515 1.429 . S
C1521 C1522 1.523 . S
C1522 C1503 1.368 . S
C1522 C1516 1.368 . S
C1522 C1521 1.523 . S
C1523 C1507 1.429 . S
C1523 C1519 1.429 . S
C1523 C1524 1.523 . S
C1524 C1508 1.368 . S
C1524 C1520 1.368 . S
C1524 C1523 1.523 . S
H1525 C1500 0.950 . S
H1526 C1502 0.950 . S
H1527 C1503 0.949 . S
H1528 C1505 0.950 . S
H1529 C1507 0.950 . S
C1530 C1531 1.349 . S
C1530 C1532 1.327 . S
C1530 H1555 0.950 . S
C1531 C1530 1.349 . S
C1531 C1547 1.349 . S
C1532 C1530 1.327 . S
C1532 C1551 1.429 . S
C1532 H1556 0.950 . S
C1533 C1550 1.574 1_655 S
C1533 C1552 1.368 . S
C1533 H1557 0.949 . S
H1534 C1538 0.949 1_455 S
C1535 C1536 1.349 . S
C1535 C1537 1.327 . S
C1535 H1558 0.950 . S
C1536 C1535 1.349 . S
C1536 C1548 1.349 . S
C1537 C1535 1.327 . S
C1537 C1553 1.429 . S
C1537 H1559 0.950 . S
C1538 H1534 0.949 1_655 S
C1538 C1546 1.574 . S
C1538 C1554 1.368 1_655 S
H1539 C1547 0.950 . S
H1540 C1545 0.950 . S
H1541 C1546 0.949 . S
H1542 C1548 0.950 . S
H1543 C1549 0.950 . S
H1544 C1550 0.949 . S
C1545 H1540 0.950 . S
C1545 C1547 1.327 . S
C1545 C1551 1.429 . S
C1546 C1538 1.574 . S
C1546 H1541 0.949 . S
C1546 C1552 1.368 . S
C1547 C1531 1.349 . S
C1547 H1539 0.950 . S
C1547 C1545 1.327 . S
C1548 C1536 1.349 . S
C1548 H1542 0.950 . S
C1548 C1549 1.327 . S
C1549 H1543 0.950 . S
C1549 C1548 1.327 . S
C1549 C1553 1.429 . S
C1550 C1533 1.574 1_455 S
C1550 H1544 0.949 . S
C1550 C1554 1.368 . S
C1551 C1532 1.429 . S
C1551 C1545 1.429 . S
C1551 C1552 1.523 . S
C1552 C1533 1.368 . S
C1552 C1546 1.368 . S
C1552 C1551 1.523 . S
C1553 C1537 1.429 . S
C1553 C1549 1.429 . S
C1553 C1554 1.523 . S
C1554 C1538 1.368 1_455 S
C1554 C1550 1.368 . S
C1554 C1553 1.523 . S
H1555 C1530 0.950 . S
H1556 C1532 0.950 . S
H1557 C1533 0.949 . S
H1558 C1535 0.950 . S
H1559 C1537 0.950 . S
C481 C3 1.544 . S
C486 C443 1.536 . S
C511 C375 1.558 1_565 S
C516 C55 1.567 1_655 S
C541 C83 1.470 1_554 S
C546 C335 1.492 . S
C571 C135 1.653 . S
C576 C415 1.639 . S
C601 C163 2.021 . S
C606 C403 2.012 . S
C631 C203 1.333 . S
C636 C455 1.354 . S
C661 C363 2.013 . S
C666 C255 2.022 . S
C691 C283 1.555 . S
C696 C323 1.555 . S
C721 C123 1.288 . S
C726 C175 1.300 . S
C751 C15 1.391 . S
C756 C215 1.405 . S
C781 C43 1.779 . S
C786 C243 1.775 . S
C811 C295 1.582 . S
C816 C95 1.583 . S
C841 C26 1.616 . S
C846 C322 1.593 . S
C871 C49 0.725 . S
C876 C402 0.728 . S
C901 C462 2.245 . S
C906 C106 2.185 . S
C931 C129 1.314 . S
C936 C362 1.261 . S
C961 C186 1.373 . S
C966 C382 1.399 . S
C991 C342 2.015 . S
C996 C226 1.954 . S
C1021 C422 1.608 . S
C1026 C249 1.610 . S
C1051 C442 0.942 . S
C1056 C306 0.949 . S
C1081 C2 1.859 . S
C1086 C146 1.851 . S
C1111 C9 2.072 . S
C1116 C62 2.046 . S
C1141 C66 1.500 . S
C1146 C82 1.499 . S
C1171 C142 2.095 . S
C1176 C89 2.131 . S
C1201 C209 0.775 . S
C1206 C162 0.771 . S
C1231 C202 1.306 . S
C1236 C266 1.311 . S
C1261 C262 0.915 . S
C1266 C289 0.914 . S
C1291 C169 1.420 . S
C1296 C282 1.363 . S
C1321 C346 1.918 . S
C1326 C122 1.923 . S
C1351 C222 2.401 . S
C1356 C369 2.434 . S
C1381 C329 1.377 . S
C1386 C242 1.328 . S
C1411 C409 1.558 . S
C1416 C302 1.543 . S
C1441 C182 1.824 . S
C1446 C466 1.772 . S
C1471 C449 1.080 . S
C1476 C42 1.042 . S
C1501 C102 1.829 . S
C1506 C386 1.794 . S
C1531 C426 1.675 . S
C1536 C22 1.701 . S
