# Generated by pormake.
# Topology tfs, (6)-cn, num edge types: 1
# Building blocks:
#     Node 0, Type 0, BuildingBlock: NUHQIS_clean_sbu_0, # of connection points: 6
#     Node 1, Type 0, BuildingBlock: NUHQIS_clean_sbu_0, # of connection points: 6
#     Node 2, Type 0, BuildingBlock: NUHQIS_clean_sbu_0, # of connection points: 6
#     Node 3, Type 0, BuildingBlock: NUHQIS_clean_sbu_0, # of connection points: 6
#     Node 4, Type 0, BuildingBlock: NUHQIS_clean_sbu_0, # of connection points: 6
#     Node 5, Type 0, BuildingBlock: NUHQIS_clean_sbu_0, # of connection points: 6
#     Edge 6, Type (0, 0), BuildingBlock: FUNLAD_clean_linker_0, # of connection points: 2
#     Edge 7, Type (0, 0), BuildingBlock: FUNLAD_clean_linker_0, # of connection points: 2
#     Edge 8, Type (0, 0), BuildingBlock: FUNLAD_clean_linker_0, # of connection points: 2
#     Edge 9, Type (0, 0), BuildingBlock: FUNLAD_clean_linker_0, # of connection points: 2
#     Edge 10, Type (0, 0), BuildingBlock: FUNLAD_clean_linker_0, # of connection points: 2
#     Edge 11, Type (0, 0), BuildingBlock: FUNLAD_clean_linker_0, # of connection points: 2
#     Edge 12, Type (0, 0), BuildingBlock: FUNLAD_clean_linker_0, # of connection points: 2
#     Edge 13, Type (0, 0), BuildingBlock: FUNLAD_clean_linker_0, # of connection points: 2
#     Edge 14, Type (0, 0), BuildingBlock: FUNLAD_clean_linker_0, # of connection points: 2
#     Edge 15, Type (0, 0), BuildingBlock: FUNLAD_clean_linker_0, # of connection points: 2
#     Edge 16, Type (0, 0), BuildingBlock: FUNLAD_clean_linker_0, # of connection points: 2
#     Edge 17, Type (0, 0), BuildingBlock: FUNLAD_clean_linker_0, # of connection points: 2
#     Edge 18, Type (0, 0), BuildingBlock: FUNLAD_clean_linker_0, # of connection points: 2
#     Edge 19, Type (0, 0), BuildingBlock: FUNLAD_clean_linker_0, # of connection points: 2
#     Edge 20, Type (0, 0), BuildingBlock: FUNLAD_clean_linker_0, # of connection points: 2
#     Edge 21, Type (0, 0), BuildingBlock: FUNLAD_clean_linker_0, # of connection points: 2
#     Edge 22, Type (0, 0), BuildingBlock: FUNLAD_clean_linker_0, # of connection points: 2
#     Edge 23, Type (0, 0), BuildingBlock: FUNLAD_clean_linker_0, # of connection points: 2
# Relax obj value: 0.552
# Max RMSD: 0.406
# Mean RMSD: 0.346
data_MOF--net-tfs--node1-NUHQIS_clean_sbu_0--edge1-FUNLAD_clean_linker_0
_symmetry_space_group_name_H-M    P1
_symmetry_Int_Tables_number       1
_symmetry_cell_setting            triclinic
loop_
_symmetry_equiv_pos_as_xyz
'x, y, z'
_cell_length_a     60.429931
_cell_length_b     52.817805
_cell_length_c     15.10933
_cell_angle_alpha  86.496639
_cell_angle_beta   90.623663
_cell_angle_gamma 119.29964
loop_
_atom_site_label
_atom_site_type_symbol
_atom_site_fract_x
_atom_site_fract_y
_atom_site_fract_z
_atom_type_partial_charge
Tb0 Tb 0.17497 0.42642 0.06262 0.0
Eu1 Eu 0.16058 0.4767 0.06282 0.0
C2 C 0.15848 0.44916 0.89558 0.0
C3 C 0.21789 0.49246 0.02682 0.0
C4 C 0.17544 0.35829 0.10234 0.0
C5 C 0.16656 0.30852 0.12256 0.0
C6 C 0.17368 0.33351 0.06747 0.0
C7 C 0.16937 0.35784 0.19189 0.0
C8 C 0.16248 0.33299 0.24721 0.0
C9 C 0.16129 0.30819 0.21324 0.0
C10 C 0.18197 0.38398 0.04422 0.0
O11 O 0.18537 0.43995 0.19676 0.0
O12 O 0.16863 0.47074 0.20299 0.0
O13 O 0.12507 0.4332 0.08304 0.0
O14 O 0.14231 0.40836 0.15494 0.0
C15 C 0.1797 0.45694 0.24017 0.0
O16 O 0.15575 0.51026 0.12035 0.0
O17 O 0.13784 0.49317 -0.00445 0.0
O18 O 0.17161 0.47466 0.92575 0.0
O19 O 0.15224 0.42643 0.95001 0.0
O20 O 0.20898 0.46508 0.00871 0.0
O21 O 0.2031 0.50187 0.05715 0.0
C22 C 0.12283 0.41244 0.14036 0.0
O23 O 0.16244 0.38553 0.01356 0.0
O24 O 0.19921 0.40857 0.0733 0.0
C25 C 0.15129 0.54197 0.01877 0.0
C26 C 0.17193 0.60075 0.96938 0.0
C27 C 0.15566 0.58865 0.04386 0.0
C28 C 0.14531 0.55933 0.06823 0.0
C29 C 0.16711 0.55377 0.94277 0.0
C30 C 0.17725 0.58323 0.9175 0.0
C31 C 0.14286 0.51251 0.05352 0.0
H32 H 0.16533 0.28952 0.09434 0.0
H33 H 0.17777 0.33349 -0.00218 0.0
H34 H 0.17017 0.37679 0.21902 0.0
H35 H 0.15878 0.33351 0.31687 0.0
H36 H 0.15118 0.602 0.08368 0.0
H37 H 0.13325 0.55036 0.12727 0.0
H38 H 0.17207 0.54047 0.90465 0.0
H39 H 0.18972 0.59248 0.8596 0.0
Tb40 Tb 0.74986 0.23915 0.79411 0.0
Eu41 Eu 0.81188 0.27697 0.75699 0.0
C42 C 0.77286 0.24954 0.59762 0.0
C43 C 0.77957 0.20697 0.73695 0.0
C44 C 0.68406 0.20118 0.89217 0.0
C45 C 0.63968 0.17621 0.93363 0.0
C46 C 0.6593 0.17907 0.87967 0.0
C47 C 0.68956 0.21922 0.96296 0.0
C48 C 0.66981 0.21634 0.01729 0.0
C49 C 0.64477 0.19549 0.00042 0.0
C50 C 0.70342 0.20567 0.82767 0.0
O51 O 0.76815 0.25229 0.91925 0.0
O52 O 0.80393 0.25077 0.88724 0.0
O53 O 0.79884 0.31095 0.78252 0.0
O54 O 0.75534 0.28269 0.79793 0.0
C55 C 0.78568 0.24573 0.94307 0.0
O56 O 0.84965 0.28873 0.80764 0.0
O57 O 0.84602 0.30972 0.68496 0.0
O58 O 0.79652 0.26472 0.62197 0.0
O59 O 0.75327 0.24074 0.65154 0.0
O60 O 0.7631 0.20776 0.79067 0.0
O61 O 0.80009 0.23134 0.70897 0.0
C62 C 0.77594 0.30828 0.79384 0.0
O63 O 0.7121 0.22918 0.77515 0.0
O64 O 0.72136 0.20093 0.85766 0.0
C65 C 0.88331 0.30538 0.70055 0.0
C66 C 0.92711 0.30992 0.61729 0.0
C67 C 0.92874 0.32233 0.69875 0.0
C68 C 0.9071 0.32002 0.73978 0.0
C69 C 0.88121 0.29157 0.62194 0.0
C70 C 0.90285 0.29371 0.58098 0.0
C71 C 0.86154 0.30664 0.73961 0.0
H72 H 0.62034 0.16017 0.91971 0.0
H73 H 0.655 0.1649 0.82557 0.0
H74 H 0.7088 0.23621 0.97343 0.0
H75 H 0.67383 0.23148 0.06832 0.0
H76 H 0.9469 0.3351 0.72905 0.0
H77 H 0.90913 0.33068 0.80077 0.0
H78 H 0.86298 0.27979 0.59095 0.0
H79 H 0.90057 0.28312 0.5198 0.0
Tb80 Tb 0.61092 0.82673 0.28213 0.0
Eu81 Eu 0.56134 0.76203 0.22947 0.0
C82 C 0.60809 0.8022 0.09896 0.0
C83 C 0.55931 0.82192 0.19269 0.0
C84 C 0.66325 0.90484 0.36143 0.0
C85 C 0.68818 0.95767 0.33193 0.0
C86 C 0.67332 0.92958 0.30169 0.0
C87 C 0.66908 0.90884 0.45168 0.0
C88 C 0.6845 0.93686 0.48157 0.0
C89 C 0.69383 0.96169 0.42236 0.0
C90 C 0.64383 0.87586 0.33195 0.0
O91 O 0.58751 0.79993 0.3926 0.0
O92 O 0.54794 0.77917 0.33769 0.0
O93 O 0.58564 0.75113 0.32203 0.0
O94 O 0.62426 0.79403 0.31229 0.0
C95 C 0.56383 0.79363 0.39856 0.0
O96 O 0.52962 0.71847 0.26362 0.0
O97 O 0.54013 0.73353 0.12541 0.0
O98 O 0.59465 0.77583 0.13614 0.0
O99 O 0.61207 0.82511 0.14019 0.0
O100 O 0.58004 0.83639 0.2399 0.0
O101 O 0.55154 0.79525 0.17028 0.0
C102 C 0.61033 0.76553 0.33526 0.0
O103 O 0.64787 0.86337 0.26661 0.0
O104 O 0.62191 0.85997 0.372 0.0
C105 C 0.49649 0.69958 0.15802 0.0
C106 C 0.44516 0.66865 0.10717 0.0
C107 C 0.45331 0.66016 0.1854 0.0
C108 C 0.47865 0.67536 0.21025 0.0
C109 C 0.48824 0.70884 0.08136 0.0
C110 C 0.46281 0.69356 0.05635 0.0
C111 C 0.5237 0.71311 0.18072 0.0
H112 H 0.69501 0.97635 0.28476 0.0
H113 H 0.66875 0.9273 0.23208 0.0
H114 H 0.66124 0.89029 0.49953 0.0
H115 H 0.68837 0.93923 0.55163 0.0
H116 H 0.4401 0.64147 0.22718 0.0
H117 H 0.48443 0.66772 0.26951 0.0
H118 H 0.50151 0.72742 0.03941 0.0
H119 H 0.45718 0.70065 -0.00436 0.0
Tb120 Tb 0.74057 0.58436 0.69696 0.0
Eu121 Eu 0.67891 0.53279 0.74527 0.0
C122 C 0.71813 0.57599 0.88869 0.0
C123 C 0.72526 0.51681 0.76373 0.0
C124 C 0.80993 0.64594 0.62952 0.0
C125 C 0.85491 0.67809 0.65756 0.0
C126 C 0.83071 0.65593 0.68669 0.0
C127 C 0.81357 0.66008 0.54478 0.0
C128 C 0.83766 0.6822 0.5158 0.0
C129 C 0.85895 0.69063 0.57019 0.0
C130 C 0.78679 0.61741 0.65096 0.0
O131 O 0.71933 0.56177 0.58478 0.0
O132 O 0.69052 0.51578 0.63315 0.0
O133 O 0.6788 0.5733 0.67851 0.0
O134 O 0.72099 0.60967 0.66681 0.0
C135 C 0.70895 0.53368 0.579 0.0
O136 O 0.63954 0.50426 0.70845 0.0
O137 O 0.6492 0.50986 0.84729 0.0
O138 O 0.69797 0.55152 0.87102 0.0
O139 O 0.7341 0.59426 0.8275 0.0
O140 O 0.74201 0.54418 0.73912 0.0
O141 O 0.70061 0.50776 0.77101 0.0
C142 C 0.69643 0.60062 0.65717 0.0
O143 O 0.77899 0.60887 0.73298 0.0
O144 O 0.76804 0.60762 0.59604 0.0
C145 C 0.61113 0.46619 0.81426 0.0
C146 C 0.56703 0.41248 0.86365 0.0
C147 C 0.57208 0.42341 0.77447 0.0
C148 C 0.59373 0.44993 0.75025 0.0
C149 C 0.6067 0.45472 0.90298 0.0
C150 C 0.58498 0.42817 0.9273 0.0
C151 C 0.63131 0.49662 0.79068 0.0
H152 H 0.87072 0.6839 0.70153 0.0
H153 H 0.82866 0.6453 0.75208 0.0
H154 H 0.79812 0.65293 0.49863 0.0
H155 H 0.83981 0.69179 0.44886 0.0
H156 H 0.55904 0.41171 0.72318 0.0
H157 H 0.59635 0.45818 0.68156 0.0
H158 H 0.61948 0.46681 0.95444 0.0
H159 H 0.58175 0.42062 -0.00334 0.0
Tb160 Tb 0.20292 0.87157 0.13262 0.0
Eu161 Eu 0.26648 0.8851 0.12053 0.0
C162 C 0.24021 0.91033 0.97164 0.0
C163 C 0.2197 0.83786 0.01255 0.0
C164 C 0.13239 0.84973 0.19576 0.0
C165 C 0.08746 0.83531 0.1864 0.0
C166 C 0.11099 0.84405 0.14546 0.0
C167 C 0.12995 0.84733 0.28879 0.0
C168 C 0.10624 0.83858 0.33023 0.0
C169 C 0.08447 0.83177 0.27944 0.0
C170 C 0.15598 0.85594 0.14724 0.0
O171 O 0.21006 0.83952 0.20216 0.0
O172 O 0.2495 0.86426 0.25572 0.0
O173 O 0.26638 0.92482 0.16892 0.0
O174 O 0.22501 0.90391 0.22565 0.0
C175 C 0.22523 0.84595 0.26896 0.0
O176 O 0.30468 0.89937 0.17303 0.0
O177 O 0.29613 0.88311 0.04219 0.0
O178 O 0.2591 0.90601 -0.00221 0.0
O179 O 0.21931 0.90225 0.01887 0.0
O180 O 0.20631 0.85117 0.01815 0.0
O181 O 0.23902 0.84258 0.06385 0.0
C182 C 0.24863 0.92536 0.2181 0.0
O183 O 0.17365 0.88273 0.12864 0.0
O184 O 0.16534 0.83851 0.16173 0.0
C185 C 0.33358 0.88475 0.11011 0.0
C186 C 0.37642 0.87478 0.12028 0.0
C187 C 0.36584 0.87942 0.19658 0.0
C188 C 0.34491 0.8843 0.19161 0.0
C189 C 0.34415 0.88033 0.0335 0.0
C190 C 0.36514 0.87539 0.03842 0.0
C191 C 0.31338 0.89369 0.10249 0.0
H192 H 0.07146 0.83096 0.14464 0.0
H193 H 0.11231 0.8457 0.07364 0.0
H194 H 0.1461 0.85153 0.32932 0.0
H195 H 0.10479 0.83608 0.40193 0.0
H196 H 0.37408 0.87995 0.26085 0.0
H197 H 0.33793 0.88834 0.25187 0.0
H198 H 0.33643 0.88119 0.96904 0.0
H199 H 0.37236 0.87184 0.97788 0.0
Tb200 Tb 0.29938 0.15457 0.87837 0.0
Eu201 Eu 0.33643 0.11874 0.93346 0.0
C202 C 0.29033 0.11448 0.03645 0.0
C203 C 0.35625 0.18899 0.96124 0.0
C204 C 0.25589 0.17801 0.78224 0.0
C205 C 0.22334 0.19112 0.75252 0.0
C206 C 0.24535 0.19587 0.79584 0.0
C207 C 0.24342 0.15412 0.72982 0.0
C208 C 0.22141 0.14937 0.68624 0.0
C209 C 0.21163 0.16839 0.69508 0.0
C210 C 0.27977 0.18448 0.82378 0.0
O211 O 0.33159 0.15233 0.83793 0.0
O212 O 0.35922 0.14066 0.80659 0.0
O213 O 0.30718 0.09379 0.83136 0.0
O214 O 0.27995 0.11389 0.80954 0.0
C215 C 0.3472 0.15395 0.77698 0.0
O216 O 0.35228 0.08975 0.92924 0.0
O217 O 0.34136 0.09862 0.05586 0.0
O218 O 0.29604 0.10296 0.97327 0.0
O219 O 0.28655 0.13605 0.01132 0.0
O220 O 0.33602 0.18868 0.92411 0.0
O221 O 0.3586 0.16537 0.97829 0.0
C222 C 0.28744 0.09457 0.79421 0.0
O223 O 0.27749 0.17394 0.90591 0.0
O224 O 0.29589 0.18087 0.77617 0.0
C225 C 0.37849 0.09467 0.04994 0.0
C226 C 0.429 0.11441 0.09608 0.0
C227 C 0.41807 0.09451 0.03014 0.0
C228 C 0.39291 0.08455 0.00764 0.0
C229 C 0.38917 0.11376 0.11842 0.0
C230 C 0.41428 0.12348 0.14149 0.0
C231 C 0.35349 0.08762 0.01573 0.0
H232 H 0.2164 0.2063 0.76002 0.0
H233 H 0.2546 0.21404 0.83771 0.0
H234 H 0.25108 0.13969 0.72061 0.0
H235 H 0.21255 0.1315 0.6432 0.0
H236 H 0.42918 0.08716 -0.00521 0.0
H237 H 0.38502 0.06985 0.95474 0.0
H238 H 0.37853 0.12206 0.15202 0.0
H239 H 0.42252 0.13905 0.192 0.0
C240 C 0.17334 0.17382 0.66529 0.0
C241 C 0.19192 0.16757 0.63506 0.0
C242 C 0.15893 0.18023 0.60477 0.0
C243 C 0.16309 0.18066 0.51314 0.0
C244 C 0.17975 0.17144 0.48364 0.0
C245 C 0.19414 0.16507 0.54402 0.0
C246 C 0.15356 0.19441 0.44657 0.0
C247 C 0.14957 0.21643 0.46515 0.0
C248 C 0.15038 0.23751 0.39508 0.0
C249 C 0.13582 0.25122 0.40487 0.0
C250 C 0.13857 0.27355 0.34384 0.0
C251 C 0.15638 0.28285 0.27336 0.0
H252 H 0.18028 0.23732 0.31685 0.0
C253 C 0.17089 0.26901 0.26375 0.0
C254 C 0.16792 0.24656 0.32389 0.0
H255 H 0.18533 0.2763 0.21186 0.0
H256 H 0.17093 0.17529 0.7354 0.0
H257 H 0.1455 0.18614 0.62996 0.0
H258 H 0.1832 0.17147 0.41338 0.0
H259 H 0.20844 0.16052 0.51862 0.0
H260 H 0.15423 0.18995 0.3776 0.0
H261 H 0.14858 0.22144 0.53309 0.0
H262 H 0.12255 0.24489 0.4603 0.0
H263 H 0.12706 0.28379 0.35256 0.0
C264 C 0.09683 0.38139 0.27477 0.0
C265 C 0.09831 0.39495 0.19019 0.0
C266 C 0.0739 0.36789 0.32464 0.0
C267 C 0.05185 0.36724 0.28981 0.0
C268 C 0.0534 0.37999 0.20405 0.0
C269 C 0.07623 0.3938 0.15543 0.0
C270 C 1.02671 0.35382 0.33812 0.0
C271 C 1.0223 0.34465 0.42503 0.0
C272 C 0.99702 0.33342 0.47179 0.0
C273 C 0.99547 0.32847 0.5647 0.0
C274 C 0.97271 0.3198 0.61179 0.0
C275 C 0.95073 0.31594 0.56737 0.0
H276 H 0.97416 0.33068 0.35594 0.0
C277 C 0.95204 0.3198 0.47424 0.0
C278 C 0.97464 0.32814 0.42719 0.0
H279 H 0.93577 0.31738 0.43707 0.0
H280 H 0.11351 0.38183 0.30315 0.0
H281 H 0.07367 0.35811 0.38983 0.0
H282 H 0.03688 0.37977 0.17463 0.0
H283 H 0.07659 0.40386 0.0904 0.0
H284 H 1.01126 0.35283 0.29889 0.0
H285 H 0.03797 0.34662 0.46525 0.0
H286 H 1.01208 0.33184 0.60147 0.0
H287 H 0.97248 0.31643 0.68324 0.0
C288 C 0.78692 0.17207 0.64392 0.0
C289 C 0.77226 0.17742 0.70451 0.0
C290 C 0.77724 0.14432 0.60864 0.0
C291 C 0.75256 0.1215 0.63245 0.0
C292 C 0.73851 0.12689 0.6943 0.0
C293 C 0.74814 0.15396 0.73003 0.0
C294 C 0.73939 0.09246 0.59152 0.0
C295 C 0.75057 0.07854 0.55552 0.0
C296 C 0.73567 0.04858 0.52051 0.0
C297 C 0.74642 0.03015 0.52051 0.0
C298 C 0.73287 1.00197 0.48949 0.0
C299 C 0.70839 0.99166 0.45538 0.0
H300 H 0.7022 0.0516 0.48232 0.0
C301 C 0.69777 1.01016 0.4535 0.0
C302 C 0.71111 0.03811 0.48592 0.0
H303 H 0.67897 1.00286 0.42755 0.0
H304 H 0.80549 0.18942 0.62211 0.0
H305 H 0.78866 0.14117 0.56049 0.0
H306 H 0.71952 0.11006 0.71444 0.0
H307 H 0.73589 0.15656 0.77608 0.0
H308 H 0.71881 0.08104 0.59676 0.0
H309 H 0.77111 0.08846 0.55653 0.0
H310 H 0.76529 0.03742 0.54576 0.0
H311 H 0.74163 0.98831 0.49139 0.0
C312 C 0.66322 0.61725 0.62633 0.0
C313 C 0.68832 0.62206 0.61747 0.0
C314 C 0.65594 0.63729 0.58787 0.0
C315 C 0.67343 0.66288 0.53779 0.0
C316 C 0.69835 0.6673 0.52846 0.0
C317 C 0.70566 0.64757 0.56772 0.0
C318 C 0.66702 0.68534 0.49286 0.0
C319 C 0.64499 0.68631 0.50334 0.0
C320 C 0.63822 0.70864 0.45989 0.0
C321 C 0.61426 0.70553 0.48032 0.0
C322 C 0.60608 0.72444 0.4418 0.0
C323 C 0.6215 0.7479 0.38117 0.0
H324 H 0.67261 0.73598 0.381 0.0
C325 C 0.64583 0.75175 0.36144 0.0
C326 C 0.65402 0.73238 0.3997 0.0
H327 H 0.65825 0.76914 0.31427 0.0
H328 H 0.64911 0.59797 0.66363 0.0
H329 H 0.63648 0.63232 0.59708 0.0
H330 H 0.71247 0.68633 0.49024 0.0
H331 H 0.72504 0.65221 0.55768 0.0
H332 H 0.68169 0.70225 0.44965 0.0
H333 H 0.63055 0.66961 0.54769 0.0
H334 H 0.60139 0.68793 0.52616 0.0
H335 H 0.58727 0.72045 0.45957 0.0
C336 C 0.03725 0.79714 0.28168 0.0
C337 C 0.05846 0.81932 0.32172 0.0
C338 C 1.01293 0.7846 0.32052 0.0
C339 C 1.00873 0.79376 0.40149 0.0
C340 C 0.02993 0.81623 0.44116 0.0
C341 C 0.05441 0.82878 0.40211 0.0
C342 C 0.98303 0.77992 0.44794 0.0
C343 C 0.9613 0.75917 0.4135 0.0
C344 C 0.93542 0.74329 0.45765 0.0
C345 C 0.91548 0.72255 0.40911 0.0
C346 C 0.89098 0.70608 0.44548 0.0
C347 C 0.88528 0.70973 0.53213 0.0
H348 H 0.94453 0.76275 0.58518 0.0
C349 C 0.90513 0.73051 0.58156 0.0
C350 C 0.92991 0.74718 0.54478 0.0
H351 H 0.9015 0.73396 0.64857 0.0
H352 H 0.03945 0.78875 0.22073 0.0
H353 H 0.99783 0.76734 0.28642 0.0
H354 H 1.02761 0.82402 0.50319 0.0
H355 H 0.07013 0.84601 0.43475 0.0
H356 H 0.98227 0.78704 0.5131 0.0
H357 H 0.96205 0.75273 0.34756 0.0
H358 H 0.91889 0.71866 0.34232 0.0
H359 H 0.87659 0.68985 0.40582 0.0
C360 C 0.23699 0.95783 0.29431 0.0
C361 C 0.2554 0.95004 0.27377 0.0
C362 C 0.24164 0.97811 0.35718 0.0
C363 C 0.26487 0.99095 0.40143 0.0
C364 C 0.28362 0.98393 0.37805 0.0
C365 C 0.27903 0.96384 0.31439 0.0
C366 C 0.26961 1.00969 0.47704 0.0
C367 C 0.25493 0.02108 0.50036 0.0
C368 C 0.26005 0.03781 0.58085 0.0
C369 C 0.25561 0.06157 0.58125 0.0
C370 C 0.26284 0.07921 0.65365 0.0
C371 C 0.27439 0.0731 0.72688 0.0
H372 H 0.2722 1.01147 0.66098 0.0
C373 C 0.27681 0.0479 0.7291 0.0
C374 C 0.26966 0.03044 0.65722 0.0
H375 H 0.28516 0.04221 0.78528 0.0
H376 H 0.21861 0.94757 0.26349 0.0
H377 H 0.22651 0.9825 0.37311 0.0
H378 H 0.30166 0.99334 0.41121 0.0
H379 H 0.29345 0.958 0.30049 0.0
H380 H 0.28619 1.0142 0.51617 0.0
H381 H 0.23958 0.01931 0.45868 0.0
H382 H 0.24771 0.06732 0.52383 0.0
H383 H 0.26073 0.09847 0.64998 0.0
C384 C 0.1862 0.7887 0.98382 0.0
C385 C 0.20953 0.81294 0.95877 0.0
C386 C 0.17844 0.7627 0.94428 0.0
C387 C 0.19395 0.76098 0.87909 0.0
C388 C 0.21585 0.78609 0.84725 0.0
C389 C 0.22385 0.81207 0.88801 0.0
C390 C 0.19137 0.73261 0.86377 0.0
C391 C 0.19427 0.71768 0.93367 0.0
C392 C 0.19289 0.68924 0.93067 0.0
C393 C 0.20179 0.67957 0.00399 0.0
C394 C 0.19692 0.65102 0.01254 0.0
C395 C 0.18304 0.63184 0.94786 0.0
H396 H 0.17319 0.67713 0.80571 0.0
C397 C 0.17582 0.64186 0.87106 0.0
C398 C 0.18062 0.67051 0.86249 0.0
H399 H 0.16477 0.62699 0.82135 0.0
H400 H 0.17502 0.78926 0.03857 0.0
H401 H 0.16161 0.74332 0.97015 0.0
H402 H 0.22801 0.78491 0.7974 0.0
H403 H 0.24176 0.83095 0.86763 0.0
H404 H 0.18991 0.72584 0.79665 0.0
H405 H 0.19806 0.7271 -0.00195 0.0
H406 H 0.21133 0.69366 0.05718 0.0
H407 H 0.20251 0.64338 0.07235 0.0
C408 C 0.47361 0.13908 0.04172 0.0
C409 C 0.45618 0.12716 0.1131 0.0
C410 C 0.49942 0.15148 0.05685 0.0
C411 C 0.50819 0.15214 0.1437 0.0
C412 C 0.49079 0.13988 0.215 0.0
C413 C 0.46486 0.12779 0.19992 0.0
C414 C 0.53543 0.16388 0.15853 0.0
C415 C 0.5524 0.18822 0.11287 0.0
C416 C 0.57845 0.19432 0.09437 0.0
C417 C 0.58909 0.20745 0.01084 0.0
C418 C 0.61142 0.20883 0.98253 0.0
C419 C 0.62361 0.1975 0.03785 0.0
H420 H 0.58398 0.17479 0.21766 0.0
C421 C 0.6141 0.18606 0.12366 0.0
C422 C 0.59151 0.18448 0.15208 0.0
H423 H 0.62349 0.17729 0.16681 0.0
H424 H 0.46727 0.13896 0.97428 0.0
H425 H 0.5125 0.16005 0.00038 0.0
H426 H 0.49729 0.13985 0.28209 0.0
H427 H 0.45157 0.11855 0.25566 0.0
H428 H 0.54119 0.15041 0.19852 0.0
H429 H 0.54563 0.201 0.0739 0.0
H430 H 0.57931 0.21503 0.96512 0.0
H431 H 0.61866 0.21767 0.91588 0.0
C432 C 0.40665 0.62031 0.08676 0.0
C433 C 0.41853 0.65085 0.07805 0.0
C434 C 0.38124 0.60326 0.06479 0.0
C435 C 0.36701 0.6163 0.03236 0.0
C436 C 0.37908 0.64684 0.02155 0.0
C437 C 0.40457 0.66394 0.04372 0.0
C438 C 0.33921 0.59904 0.01628 0.0
C439 C 0.32678 0.57005 0.00698 0.0
C440 C 0.29858 0.55155 0.00388 0.0
C441 C 0.28848 0.52192 -0.01103 0.0
C442 C 0.26229 0.50294 -0.0064 0.0
C443 C 0.24544 0.51309 0.01355 0.0
H444 H 0.28821 0.58429 0.03433 0.0
C445 C 0.25539 0.54285 0.02599 0.0
C446 C 0.28161 0.56186 0.02137 0.0
H447 H 0.24297 0.55143 0.04139 0.0
H448 H 0.41695 0.60949 0.11162 0.0
H449 H 0.37282 0.57996 0.07649 0.0
H450 H 0.36862 0.65757 -0.00261 0.0
H451 H 0.41309 0.6874 0.03655 0.0
H452 H 0.32882 0.61095 0.01353 0.0
H453 H 0.33766 0.55879 0.00313 0.0
H454 H 0.30094 0.51319 0.97577 0.0
H455 H 0.25536 0.48014 0.98397 0.0
C456 C 0.71784 0.46476 0.79132 0.0
C457 C 0.73467 0.49488 0.77591 0.0
C458 C 0.72664 0.4443 0.79645 0.0
C459 C 0.75277 0.45311 0.78656 0.0
C460 C 0.76953 0.48327 0.77252 0.0
C461 C 0.76073 0.50366 0.76728 0.0
C462 C 0.76348 0.43211 0.788 0.0
C463 C 0.74978 0.40275 0.80598 0.0
C464 C 0.75905 0.38053 0.806 0.0
C465 C 0.74113 0.35131 0.8284 0.0
C466 C 0.74722 0.32891 0.82657 0.0
C467 C 0.77168 0.33426 0.80187 0.0
H468 H 0.79863 0.40859 0.76637 0.0
C469 C 0.79019 0.36369 0.78176 0.0
C470 C 0.78398 0.38651 0.78365 0.0
H471 H 0.80929 0.36904 0.76273 0.0
H472 H 0.69763 0.45681 0.79794 0.0
H473 H 0.71262 0.4216 0.80684 0.0
H474 H 0.78971 0.49125 0.76459 0.0
H475 H 0.77452 0.52647 0.75523 0.0
H476 H 0.78362 0.44152 0.77336 0.0
H477 H 0.72979 0.39366 0.8221 0.0
H478 H 0.72184 0.34547 0.84664 0.0
H479 H 0.73221 0.30698 0.84381 0.0
C480 C 0.41775 0.87805 0.06068 0.0
C481 C 0.39862 0.86878 0.12766 0.0
C482 C 0.4384 0.87246 0.07053 0.0
C483 C 0.44049 0.85729 0.14766 0.0
C484 C 0.42125 0.84789 0.21331 0.0
C485 C 0.40087 0.85344 0.20367 0.0
C486 C 0.46129 0.84941 0.16361 0.0
C487 C 0.48358 0.85975 0.11725 0.0
C488 C 0.50333 0.85048 0.13929 0.0
C489 C 0.52889 0.86814 0.11023 0.0
C490 C 0.54753 0.8598 0.12949 0.0
C491 C 0.54097 0.83317 0.17665 0.0
H492 H 0.47773 0.80891 0.20836 0.0
C493 C 0.51547 0.81543 0.20453 0.0
C494 C 0.49704 0.82387 0.18664 0.0
H495 H 0.50965 0.79464 0.24029 0.0
H496 H 0.417 0.88998 0.00092 0.0
H497 H 0.45246 0.87982 0.0174 0.0
H498 H 0.42186 0.83591 0.27325 0.0
H499 H 0.38655 0.84513 0.25614 0.0
H500 H 0.45808 0.83452 0.22085 0.0
H501 H 0.48804 0.87616 0.06333 0.0
H502 H 0.53451 0.88853 0.0724 0.0
H503 H 0.56684 0.87375 0.10538 0.0
C504 C 0.51986 0.37993 0.84868 0.0
C505 C 0.54267 0.38553 0.89007 0.0
C506 C 0.49704 0.35457 0.87163 0.0
C507 C 0.49626 0.33409 0.93762 0.0
C508 C 0.51901 0.3398 0.97951 0.0
C509 C 0.54187 0.36518 0.95643 0.0
C510 C 0.47263 0.3059 0.96089 0.0
C511 C 0.44888 0.30092 0.94302 0.0
C512 C 0.42503 0.27226 0.95866 0.0
C513 C 0.40209 0.27005 0.92855 0.0
C514 C 0.3795 0.24341 0.93447 0.0
C515 C 0.37912 0.21799 0.97061 0.0
H516 H 0.44133 0.24748 0.02453 0.0
C517 C 0.40178 0.22035 0.00463 0.0
C518 C 0.42443 0.2471 -0.00108 0.0
H519 H 0.40228 0.20132 0.0331 0.0
H520 H 0.51955 0.39523 0.79828 0.0
H521 H 0.48029 0.35098 0.83566 0.0
H522 H 0.51916 0.32442 0.03003 0.0
H523 H 0.55901 0.36853 -0.01061 0.0
H524 H 0.47529 0.28882 -0.00623 0.0
H525 H 0.44653 0.31866 0.91338 0.0
H526 H 0.40171 0.28888 0.89755 0.0
H527 H 0.36257 0.24265 0.90701 0.0
C528 C 0.12445 0.41909 0.79346 0.0
C529 C 0.14432 0.44636 0.81421 0.0
C530 C 0.11062 0.41648 0.71717 0.0
C531 C 0.11687 0.44102 0.65957 0.0
C532 C 0.1357 0.46852 0.68301 0.0
C533 C 0.14941 0.47118 0.75968 0.0
C534 C 0.10909 0.43762 0.5667 0.0
C535 C 0.1152 0.42049 0.52311 0.0
C536 C 0.13833 0.43295 0.46574 0.0
C537 C 0.14656 0.41415 0.43665 0.0
C538 C 0.16603 0.4241 0.37317 0.0
C539 C 0.17677 0.45277 0.33669 0.0
H540 H 0.1488 0.47883 0.46838 0.0
C541 C 0.17271 0.47292 0.38022 0.0
C542 C 0.15307 0.463 0.44282 0.0
H543 H 0.18165 0.49552 0.35536 0.0
H544 H 0.11979 0.39967 0.83532 0.0
H545 H 0.0961 0.39505 0.70039 0.0
H546 H 0.14106 0.48768 0.63886 0.0
H547 H 0.1644 0.49255 0.77493 0.0
H548 H 0.11091 0.45716 0.5317 0.0
H549 H 0.10933 0.39878 0.55258 0.0
H550 H 0.13663 0.39122 0.45774 0.0
H551 H 0.16954 0.40827 0.34309 0.0
C552 C 0.78564 0.22523 0.49086 0.0
C553 C 0.76808 0.23362 0.51712 0.0
C554 C 0.77913 0.20424 0.42955 0.0
C555 C 0.7551 0.19178 0.3906 0.0
C556 C 0.73757 0.20027 0.41702 0.0
C557 C 0.74393 0.22087 0.47991 0.0
C558 C 0.74883 0.17342 0.31365 0.0
C559 C 0.76717 0.17382 0.26277 0.0
C560 C 0.77131 0.18696 0.17079 0.0
C561 C 0.79638 0.20588 0.14066 0.0
C562 C 0.80121 0.2249 0.06586 0.0
C563 C 0.78103 0.22562 0.02123 0.0
H564 H 0.73161 0.17039 0.13834 0.0
C565 C 0.75601 0.2052 0.04734 0.0
C566 C 0.75117 0.1856 0.12001 0.0
H567 H 0.74006 0.20442 0.012 0.0
H568 H 0.80406 0.23372 0.52108 0.0
H569 H 0.79318 0.19814 0.41341 0.0
H570 H 0.71896 0.19126 0.38797 0.0
H571 H 0.7298 0.22636 0.50087 0.0
H572 H 0.73089 0.16847 0.28359 0.0
H573 H 0.7839 0.17521 0.29421 0.0
H574 H 0.81229 0.20724 0.17806 0.0
H575 H 0.82068 0.23982 0.04518 0.0
C576 C 0.62767 0.83405 0.9617 0.0
C577 C 0.61471 0.80592 0.00374 0.0
C578 C 0.6273 0.83793 0.86975 0.0
C579 C 0.6143 0.8137 0.81925 0.0
C580 C 0.60456 0.78563 0.85979 0.0
C581 C 0.60457 0.7817 0.95179 0.0
C582 C 0.60618 0.81657 0.72926 0.0
C583 C 0.59379 0.83163 0.71254 0.0
C584 C 0.57633 0.82391 0.63819 0.0
C585 C 0.58106 0.84401 0.56648 0.0
C586 C 0.5706 0.83388 0.48468 0.0
C587 C 0.55663 0.80375 0.4746 0.0
H588 H 0.55333 0.77905 0.68801 0.0
C589 C 0.54776 0.78456 0.54981 0.0
C590 C 0.55771 0.79466 0.63192 0.0
H591 H 0.53678 0.76131 0.54333 0.0
H592 H 0.63629 0.85314 -2e-05 0.0
H593 H 0.63546 0.85977 0.83887 0.0
H594 H 0.59461 0.76668 0.8213 0.0
H595 H 0.59473 0.75975 0.98205 0.0
H596 H 0.60477 0.80084 0.68299 0.0
H597 H 0.59412 0.84691 0.75824 0.0
H598 H 0.59502 0.86675 0.57075 0.0
H599 H 0.57703 0.84906 0.42686 0.0
C600 C 0.74434 0.53772 0.49019 0.0
C601 C 0.71816 0.52327 0.50891 0.0
C602 C 0.75322 0.5362 0.40742 0.0
C603 C 0.73577 0.52059 0.34305 0.0
C604 C 0.71025 0.50171 0.36808 0.0
C605 C 0.70134 0.50317 0.45137 0.0
C606 C 0.7413 0.53054 0.249 0.0
C607 C 0.75107 0.55913 0.22591 0.0
C608 C 0.74246 0.56843 0.14551 0.0
C609 C 0.75985 0.59003 0.08522 0.0
C610 C 0.75152 0.59539 0.00314 0.0
C611 C 0.7257 0.57933 0.98194 0.0
H612 H 0.70255 0.53961 0.17706 0.0
C613 C 0.70805 0.5608 0.04789 0.0
C614 C 0.71639 0.55528 0.12894 0.0
H615 H 0.68797 0.54867 0.03435 0.0
H616 H 0.75766 0.55248 0.53604 0.0
H617 H 0.77312 0.5502 0.39007 0.0
H618 H 0.6966 0.4891 0.31939 0.0
H619 H 0.68113 0.49139 0.46607 0.0
H620 H 0.7305 0.5148 0.2006 0.0
H621 H 0.76144 0.57555 0.27284 0.0
H622 H 0.77995 0.60115 0.09889 0.0
H623 H 0.76554 0.61009 0.95393 0.0
C624 C 0.19698 0.85354 0.368 0.0
C625 C 0.21426 0.84332 0.35707 0.0
C626 C 0.19071 0.85755 0.45242 0.0
C627 C 0.2009 0.85019 0.52681 0.0
C628 C 0.21574 0.83677 0.51614 0.0
C629 C 0.22294 0.83401 0.43144 0.0
C630 C 0.20019 0.86049 0.6142 0.0
C631 C 0.2073 0.88863 0.62314 0.0
C632 C 0.22008 0.90202 0.70452 0.0
C633 C 0.21074 0.91568 0.75743 0.0
C634 C 0.21985 0.92244 0.84324 0.0
C635 C 0.23854 0.91587 0.87568 0.0
H636 H 0.24868 0.88897 0.69149 0.0
C637 C 0.25017 0.90599 0.81726 0.0
C638 C 0.24084 0.89887 0.73273 0.0
H639 H 0.26452 0.90056 0.83959 0.0
H640 H 0.18976 0.86048 0.31133 0.0
H641 H 0.17903 0.86768 0.45937 0.0
H642 H 0.22359 0.83076 0.57324 0.0
H643 H 0.23602 0.82574 0.42409 0.0
H644 H 0.20055 0.84729 0.67186 0.0
H645 H 0.20802 0.90284 0.5668 0.0
H646 H 0.19511 0.91887 0.73545 0.0
H647 H 0.2107 0.93029 0.88666 0.0
C648 C 0.36436 0.16243 0.6247 0.0
C649 C 0.345 0.15906 0.68247 0.0
C650 C 0.35972 0.15882 0.53485 0.0
C651 C 0.33575 0.15206 0.50277 0.0
C652 C 0.31728 0.15149 0.5588 0.0
C653 C 0.32186 0.15479 0.64857 0.0
C654 C 0.32941 0.14502 0.41134 0.0
C655 C 0.33562 0.12744 0.37057 0.0
C656 C 0.3285 0.12233 0.27831 0.0
C657 C 0.33524 0.14671 0.22 0.0
C658 C 0.32188 0.14401 0.14337 0.0
C659 C 0.30299 0.11664 0.12022 0.0
H660 H 0.30492 0.07562 0.29942 0.0
C661 C 0.29786 0.09168 0.17408 0.0
C662 C 0.31042 0.09457 0.25422 0.0
H663 H 0.28357 0.07031 0.15585 0.0
H664 H 0.38249 0.16605 0.64975 0.0
H665 H 0.37447 0.16034 0.49113 0.0
H666 H 0.29874 0.14654 0.53426 0.0
H667 H 0.30651 0.15142 0.69156 0.0
H668 H 0.31795 0.15326 0.37773 0.0
H669 H 0.34457 0.1163 0.40527 0.0
H670 H 0.34926 0.16826 0.23797 0.0
H671 H 0.326 0.1635 0.10326 0.0
loop_
_geom_bond_atom_site_label_1
_geom_bond_atom_site_label_2
_geom_bond_distance
_geom_bond_site_symmetry_2
_ccdc_geom_bond_type
Tb0 C10 2.825 . S
Tb0 O11 2.347 . S
Tb0 O14 2.366 . S
Tb0 O19 2.418 1_554 S
Tb0 O20 2.384 1_554 S
Tb0 O23 2.479 1_554 S
Tb0 O24 2.471 . S
Eu1 O12 2.418 . S
Eu1 O13 2.384 . S
Eu1 O16 2.479 . S
Eu1 O17 2.471 1_554 S
Eu1 O18 2.347 1_554 S
Eu1 O21 2.366 1_554 S
Eu1 C31 2.825 1_554 S
C2 O18 1.259 . S
C2 O19 1.265 . S
C3 O20 1.255 . S
C3 O21 1.266 . S
C4 C6 1.380 . S
C4 C7 1.374 . S
C4 C10 1.507 . S
C5 C6 1.384 . S
C5 C9 1.387 . S
C5 H32 0.930 . S
C6 C4 1.380 . S
C6 C5 1.384 . S
C6 H33 0.931 1_554 S
C7 C4 1.374 . S
C7 C8 1.390 . S
C7 H34 0.930 . S
C8 C7 1.390 . S
C8 C9 1.391 . S
C8 H35 0.930 . S
C9 C5 1.387 . S
C9 C8 1.391 . S
C10 Tb0 2.825 . S
C10 C4 1.507 . S
C10 O23 1.238 1_554 S
C10 O24 1.247 . S
O11 Tb0 2.347 . S
O11 C15 1.259 . S
O12 Eu1 2.418 . S
O12 C15 1.265 . S
O13 Eu1 2.384 . S
O13 C22 1.255 . S
O14 Tb0 2.366 . S
O14 C22 1.265 . S
C15 O11 1.259 . S
C15 O12 1.265 . S
O16 Eu1 2.479 . S
O16 C31 1.238 1_554 S
O17 Eu1 2.471 1_556 S
O17 C31 1.247 . S
O18 Eu1 2.347 1_556 S
O18 C2 1.259 . S
O19 Tb0 2.418 1_556 S
O19 C2 1.265 . S
O20 Tb0 2.384 1_556 S
O20 C3 1.255 . S
O21 Eu1 2.366 1_556 S
O21 C3 1.266 . S
C22 O13 1.255 . S
C22 O14 1.265 . S
O23 Tb0 2.479 1_556 S
O23 C10 1.238 1_556 S
O24 Tb0 2.471 . S
O24 C10 1.247 . S
C25 C28 1.380 . S
C25 C29 1.374 . S
C25 C31 1.507 . S
C26 C27 1.387 . S
C26 C30 1.391 . S
C27 C26 1.387 . S
C27 C28 1.384 . S
C27 H36 0.930 . S
C28 C25 1.380 . S
C28 C27 1.384 . S
C28 H37 0.931 1_556 S
C29 C25 1.374 . S
C29 C30 1.390 . S
C29 H38 0.930 . S
C30 C26 1.391 . S
C30 C29 1.390 . S
C30 H39 0.930 . S
C31 Eu1 2.825 1_556 S
C31 O16 1.238 1_556 S
C31 O17 1.247 . S
C31 C25 1.507 . S
H32 C5 0.930 . S
H33 C6 0.931 1_556 S
H34 C7 0.930 . S
H35 C8 0.930 . S
H36 C27 0.930 . S
H37 C28 0.931 1_554 S
H38 C29 0.930 . S
H39 C30 0.930 . S
Tb40 C50 2.825 . S
Tb40 O51 2.347 1_556 S
Tb40 O54 2.366 . S
Tb40 O59 2.418 . S
Tb40 O60 2.384 . S
Tb40 O63 2.479 . S
Tb40 O64 2.471 1_556 S
Eu41 O52 2.418 1_556 S
Eu41 O53 2.384 . S
Eu41 O56 2.479 . S
Eu41 O57 2.471 . S
Eu41 O58 2.347 . S
Eu41 O61 2.366 . S
Eu41 C71 2.825 . S
C42 O58 1.259 . S
C42 O59 1.265 . S
C43 O60 1.255 . S
C43 O61 1.265 . S
C44 C46 1.380 1_554 S
C44 C47 1.374 . S
C44 C50 1.507 1_554 S
C45 C46 1.384 . S
C45 C49 1.387 1_556 S
C45 H72 0.930 . S
C46 C44 1.380 1_556 S
C46 C45 1.384 . S
C46 H73 0.931 . S
C47 C44 1.374 . S
C47 C48 1.390 . S
C47 H74 0.930 . S
C48 C47 1.390 . S
C48 C49 1.391 . S
C48 H75 0.930 . S
C49 C45 1.387 1_554 S
C49 C48 1.391 . S
C50 Tb40 2.825 . S
C50 C44 1.507 1_556 S
C50 O63 1.238 . S
C50 O64 1.247 1_556 S
O51 Tb40 2.347 1_554 S
O51 C55 1.259 . S
O52 Eu41 2.418 1_554 S
O52 C55 1.265 . S
O53 Eu41 2.384 . S
O53 C62 1.255 . S
O54 Tb40 2.366 . S
O54 C62 1.265 . S
C55 O51 1.259 . S
C55 O52 1.265 . S
O56 Eu41 2.479 . S
O56 C71 1.238 . S
O57 Eu41 2.471 . S
O57 C71 1.247 . S
O58 Eu41 2.347 . S
O58 C42 1.259 . S
O59 Tb40 2.418 . S
O59 C42 1.265 . S
O60 Tb40 2.384 . S
O60 C43 1.255 . S
O61 Eu41 2.366 . S
O61 C43 1.265 . S
C62 O53 1.255 . S
C62 O54 1.265 . S
O63 Tb40 2.479 . S
O63 C50 1.238 . S
O64 Tb40 2.471 1_554 S
O64 C50 1.247 1_554 S
C65 C68 1.380 . S
C65 C69 1.374 . S
C65 C71 1.507 . S
C66 C67 1.387 . S
C66 C70 1.391 . S
C67 C66 1.387 . S
C67 C68 1.384 . S
C67 H76 0.930 . S
C68 C65 1.380 . S
C68 C67 1.384 . S
C68 H77 0.931 . S
C69 C65 1.374 . S
C69 C70 1.390 . S
C69 H78 0.930 . S
C70 C66 1.391 . S
C70 C69 1.390 . S
C70 H79 0.930 . S
C71 Eu41 2.825 . S
C71 O56 1.238 . S
C71 O57 1.247 . S
C71 C65 1.507 . S
H72 C45 0.930 . S
H73 C46 0.931 . S
H74 C47 0.930 . S
H75 C48 0.930 . S
H76 C67 0.930 . S
H77 C68 0.931 . S
H78 C69 0.930 . S
H79 C70 0.930 . S
Tb80 C90 2.825 . S
Tb80 O91 2.347 . S
Tb80 O94 2.366 . S
Tb80 O99 2.418 1_554 S
Tb80 O100 2.384 . S
Tb80 O103 2.479 . S
Tb80 O104 2.471 . S
Eu81 O92 2.418 . S
Eu81 O93 2.384 . S
Eu81 O96 2.479 . S
Eu81 O97 2.471 . S
Eu81 O98 2.347 . S
Eu81 O101 2.366 . S
Eu81 C111 2.825 . S
C82 O98 1.259 1_556 S
C82 O99 1.265 . S
C83 O100 1.255 . S
C83 O101 1.265 . S
C84 C86 1.380 . S
C84 C87 1.374 . S
C84 C90 1.507 . S
C85 C86 1.384 . S
C85 C89 1.387 . S
C85 H112 0.930 . S
C86 C84 1.380 . S
C86 C85 1.384 . S
C86 H113 0.931 . S
C87 C84 1.374 . S
C87 C88 1.390 . S
C87 H114 0.930 . S
C88 C87 1.390 . S
C88 C89 1.391 . S
C88 H115 0.930 . S
C89 C85 1.387 . S
C89 C88 1.391 . S
C90 Tb80 2.825 . S
C90 C84 1.507 . S
C90 O103 1.238 . S
C90 O104 1.247 . S
O91 Tb80 2.347 . S
O91 C95 1.259 . S
O92 Eu81 2.418 . S
O92 C95 1.265 . S
O93 Eu81 2.384 . S
O93 C102 1.255 . S
O94 Tb80 2.366 . S
O94 C102 1.265 . S
C95 O91 1.259 . S
C95 O92 1.265 . S
O96 Eu81 2.479 . S
O96 C111 1.238 . S
O97 Eu81 2.471 . S
O97 C111 1.247 . S
O98 Eu81 2.347 . S
O98 C82 1.259 1_554 S
O99 Tb80 2.418 1_556 S
O99 C82 1.265 . S
O100 Tb80 2.384 . S
O100 C83 1.255 . S
O101 Eu81 2.366 . S
O101 C83 1.265 . S
C102 O93 1.255 . S
C102 O94 1.265 . S
O103 Tb80 2.479 . S
O103 C90 1.238 . S
O104 Tb80 2.471 . S
O104 C90 1.247 . S
C105 C108 1.380 . S
C105 C109 1.374 1_554 S
C105 C111 1.507 . S
C106 C107 1.387 1_556 S
C106 C110 1.391 . S
C107 C106 1.387 1_554 S
C107 C108 1.384 . S
C107 H116 0.930 . S
C108 C105 1.380 . S
C108 C107 1.384 . S
C108 H117 0.931 . S
C109 C105 1.374 1_556 S
C109 C110 1.390 . S
C109 H118 0.930 . S
C110 C106 1.391 . S
C110 C109 1.390 . S
C110 H119 0.930 . S
C111 Eu81 2.825 . S
C111 O96 1.238 . S
C111 O97 1.247 . S
C111 C105 1.507 . S
H112 C85 0.930 . S
H113 C86 0.931 . S
H114 C87 0.930 . S
H115 C88 0.930 . S
H116 C107 0.930 . S
H117 C108 0.931 . S
H118 C109 0.930 . S
H119 C110 0.930 . S
Tb120 C130 2.825 . S
Tb120 O131 2.347 . S
Tb120 O134 2.366 . S
Tb120 O139 2.418 1_556 S
Tb120 O140 2.384 . S
Tb120 O143 2.479 . S
Tb120 O144 2.471 . S
Eu121 O132 2.418 . S
Eu121 O133 2.384 . S
Eu121 O136 2.479 . S
Eu121 O137 2.471 1_556 S
Eu121 O138 2.347 . S
Eu121 O141 2.366 . S
Eu121 C151 2.825 . S
C122 O138 1.259 1_554 S
C122 O139 1.265 . S
C123 O140 1.255 . S
C123 O141 1.265 . S
C124 C126 1.380 . S
C124 C127 1.374 . S
C124 C130 1.507 . S
C125 C126 1.384 . S
C125 C129 1.387 . S
C125 H152 0.930 . S
C126 C124 1.380 . S
C126 C125 1.384 . S
C126 H153 0.931 . S
C127 C124 1.374 . S
C127 C128 1.390 . S
C127 H154 0.930 . S
C128 C127 1.390 . S
C128 C129 1.391 . S
C128 H155 0.930 . S
C129 C125 1.387 . S
C129 C128 1.391 . S
C130 Tb120 2.825 . S
C130 C124 1.507 . S
C130 O143 1.238 . S
C130 O144 1.247 . S
O131 Tb120 2.347 . S
O131 C135 1.259 . S
O132 Eu121 2.418 . S
O132 C135 1.265 . S
O133 Eu121 2.384 . S
O133 C142 1.255 . S
O134 Tb120 2.366 . S
O134 C142 1.265 . S
C135 O131 1.259 . S
C135 O132 1.265 . S
O136 Eu121 2.479 . S
O136 C151 1.238 . S
O137 Eu121 2.471 1_554 S
O137 C151 1.247 1_554 S
O138 Eu121 2.347 . S
O138 C122 1.259 1_556 S
O139 Tb120 2.418 1_554 S
O139 C122 1.265 . S
O140 Tb120 2.384 . S
O140 C123 1.255 . S
O141 Eu121 2.366 . S
O141 C123 1.265 . S
C142 O133 1.255 . S
C142 O134 1.265 . S
O143 Tb120 2.479 . S
O143 C130 1.238 . S
O144 Tb120 2.471 . S
O144 C130 1.247 . S
C145 C148 1.380 . S
C145 C149 1.374 1_556 S
C145 C151 1.507 . S
C146 C147 1.387 1_554 S
C146 C150 1.391 . S
C147 C146 1.387 1_556 S
C147 C148 1.384 . S
C147 H156 0.930 . S
C148 C145 1.380 . S
C148 C147 1.384 . S
C148 H157 0.931 . S
C149 C145 1.374 1_554 S
C149 C150 1.390 . S
C149 H158 0.930 . S
C150 C146 1.391 . S
C150 C149 1.390 . S
C150 H159 0.930 . S
C151 Eu121 2.825 . S
C151 O136 1.238 . S
C151 O137 1.247 1_556 S
C151 C145 1.507 . S
H152 C125 0.930 . S
H153 C126 0.931 . S
H154 C127 0.930 . S
H155 C128 0.930 . S
H156 C147 0.930 . S
H157 C148 0.931 . S
H158 C149 0.930 . S
H159 C150 0.930 . S
Tb160 C170 2.825 . S
Tb160 O171 2.347 . S
Tb160 O174 2.366 . S
Tb160 O179 2.418 1_554 S
Tb160 O180 2.384 . S
Tb160 O183 2.479 . S
Tb160 O184 2.471 . S
Eu161 O172 2.418 . S
Eu161 O173 2.384 . S
Eu161 O176 2.479 . S
Eu161 O177 2.471 1_554 S
Eu161 O178 2.347 1_554 S
Eu161 O181 2.366 . S
Eu161 C191 2.825 . S
C162 O178 1.259 . S
C162 O179 1.265 . S
C163 O180 1.255 . S
C163 O181 1.265 . S
C164 C166 1.380 . S
C164 C167 1.374 . S
C164 C170 1.507 . S
C165 C166 1.384 . S
C165 C169 1.387 . S
C165 H192 0.930 . S
C166 C164 1.380 . S
C166 C165 1.384 . S
C166 H193 0.931 . S
C167 C164 1.374 . S
C167 C168 1.390 . S
C167 H194 0.930 . S
C168 C167 1.390 . S
C168 C169 1.391 . S
C168 H195 0.930 . S
C169 C165 1.387 . S
C169 C168 1.391 . S
C170 Tb160 2.825 . S
C170 C164 1.507 . S
C170 O183 1.238 . S
C170 O184 1.247 . S
O171 Tb160 2.347 . S
O171 C175 1.259 . S
O172 Eu161 2.418 . S
O172 C175 1.265 . S
O173 Eu161 2.384 . S
O173 C182 1.255 . S
O174 Tb160 2.366 . S
O174 C182 1.265 . S
C175 O171 1.259 . S
C175 O172 1.265 . S
O176 Eu161 2.479 . S
O176 C191 1.238 . S
O177 Eu161 2.471 1_556 S
O177 C191 1.247 1_556 S
O178 Eu161 2.347 1_556 S
O178 C162 1.259 . S
O179 Tb160 2.418 1_556 S
O179 C162 1.265 . S
O180 Tb160 2.384 . S
O180 C163 1.255 . S
O181 Eu161 2.366 . S
O181 C163 1.265 . S
C182 O173 1.255 . S
C182 O174 1.265 . S
O183 Tb160 2.479 . S
O183 C170 1.238 . S
O184 Tb160 2.471 . S
O184 C170 1.247 . S
C185 C188 1.380 1_556 S
C185 C189 1.374 . S
C185 C191 1.507 1_556 S
C186 C187 1.387 1_556 S
C186 C190 1.391 . S
C187 C186 1.387 1_554 S
C187 C188 1.384 . S
C187 H196 0.930 . S
C188 C185 1.380 1_554 S
C188 C187 1.384 . S
C188 H197 0.931 . S
C189 C185 1.374 . S
C189 C190 1.390 . S
C189 H198 0.930 . S
C190 C186 1.391 . S
C190 C189 1.390 . S
C190 H199 0.930 . S
C191 Eu161 2.825 . S
C191 O176 1.238 . S
C191 O177 1.247 1_554 S
C191 C185 1.507 1_554 S
H192 C165 0.930 . S
H193 C166 0.931 . S
H194 C167 0.930 . S
H195 C168 0.930 . S
H196 C187 0.930 . S
H197 C188 0.931 . S
H198 C189 0.930 . S
H199 C190 0.930 . S
Tb200 C210 2.825 . S
Tb200 O211 2.347 . S
Tb200 O214 2.366 . S
Tb200 O219 2.418 1_556 S
Tb200 O220 2.384 . S
Tb200 O223 2.479 . S
Tb200 O224 2.471 . S
Eu201 O212 2.418 . S
Eu201 O213 2.384 . S
Eu201 O216 2.479 . S
Eu201 O217 2.471 1_556 S
Eu201 O218 2.347 1_556 S
Eu201 O221 2.366 . S
Eu201 C231 2.825 1_556 S
C202 O218 1.259 . S
C202 O219 1.265 . S
C203 O220 1.255 . S
C203 O221 1.265 . S
C204 C206 1.380 . S
C204 C207 1.374 . S
C204 C210 1.507 . S
C205 C206 1.384 . S
C205 C209 1.387 . S
C205 H232 0.930 . S
C206 C204 1.380 . S
C206 C205 1.384 . S
C206 H233 0.931 . S
C207 C204 1.374 . S
C207 C208 1.390 . S
C207 H234 0.930 . S
C208 C207 1.390 . S
C208 C209 1.391 . S
C208 H235 0.930 . S
C209 C205 1.387 . S
C209 C208 1.391 . S
C210 Tb200 2.825 . S
C210 C204 1.507 . S
C210 O223 1.238 . S
C210 O224 1.247 . S
O211 Tb200 2.347 . S
O211 C215 1.259 . S
O212 Eu201 2.418 . S
O212 C215 1.265 . S
O213 Eu201 2.384 . S
O213 C222 1.255 . S
O214 Tb200 2.366 . S
O214 C222 1.265 . S
C215 O211 1.259 . S
C215 O212 1.265 . S
O216 Eu201 2.479 . S
O216 C231 1.238 1_556 S
O217 Eu201 2.471 1_554 S
O217 C231 1.247 . S
O218 Eu201 2.347 1_554 S
O218 C202 1.259 . S
O219 Tb200 2.418 1_554 S
O219 C202 1.265 . S
O220 Tb200 2.384 . S
O220 C203 1.255 . S
O221 Eu201 2.366 . S
O221 C203 1.265 . S
C222 O213 1.255 . S
C222 O214 1.265 . S
O223 Tb200 2.479 . S
O223 C210 1.238 . S
O224 Tb200 2.471 . S
O224 C210 1.247 . S
C225 C228 1.380 1_554 S
C225 C229 1.374 . S
C225 C231 1.507 . S
C226 C227 1.387 . S
C226 C230 1.391 . S
C227 C226 1.387 . S
C227 C228 1.384 1_554 S
C227 H236 0.930 1_554 S
C228 C225 1.380 1_556 S
C228 C227 1.384 1_556 S
C228 H237 0.931 . S
C229 C225 1.374 . S
C229 C230 1.390 . S
C229 H238 0.930 . S
C230 C226 1.391 . S
C230 C229 1.390 . S
C230 H239 0.930 . S
C231 Eu201 2.825 1_554 S
C231 O216 1.238 1_554 S
C231 O217 1.247 . S
C231 C225 1.507 . S
H232 C205 0.930 . S
H233 C206 0.931 . S
H234 C207 0.930 . S
H235 C208 0.930 . S
H236 C227 0.930 1_556 S
H237 C228 0.931 . S
H238 C229 0.930 . S
H239 C230 0.930 . S
C240 C241 1.386 . S
C240 C242 1.383 . S
C240 H256 0.951 . S
C241 C240 1.386 . S
C241 C245 1.383 . S
C242 C240 1.383 . S
C242 C243 1.402 . S
C242 H257 0.951 . S
C243 C242 1.402 . S
C243 C244 1.375 . S
C243 C246 1.481 . S
C244 C243 1.375 . S
C244 C245 1.367 . S
C244 H258 0.951 . S
C245 C241 1.383 . S
C245 C244 1.367 . S
C245 H259 0.950 . S
C246 C243 1.481 . S
C246 C247 1.297 . S
C246 H260 0.950 . S
C247 C246 1.297 . S
C247 C248 1.479 . S
C247 H261 0.950 . S
C248 C247 1.479 . S
C248 C249 1.375 . S
C248 C254 1.404 . S
C249 C248 1.375 . S
C249 C250 1.369 . S
C249 H262 0.950 . S
C250 C249 1.369 . S
C250 C251 1.392 . S
C250 H263 0.951 . S
C251 C250 1.392 . S
C251 C253 1.384 . S
H252 C254 0.949 . S
C253 C251 1.384 . S
C253 C254 1.385 . S
C253 H255 0.950 . S
C254 C248 1.404 . S
C254 H252 0.949 . S
C254 C253 1.385 . S
H255 C253 0.950 . S
H256 C240 0.951 . S
H257 C242 0.951 . S
H258 C244 0.951 . S
H259 C245 0.950 . S
H260 C246 0.950 . S
H261 C247 0.950 . S
H262 C249 0.950 . S
H263 C250 0.951 . S
C264 C265 1.386 . S
C264 C266 1.383 . S
C264 H280 0.951 . S
C265 C264 1.386 . S
C265 C269 1.383 . S
C266 C264 1.383 . S
C266 C267 1.402 . S
C266 H281 0.951 . S
C267 C266 1.402 . S
C267 C268 1.375 . S
C267 C270 1.481 1_455 S
C268 C267 1.375 . S
C268 C269 1.367 . S
C268 H282 0.951 1_455 S
C269 C265 1.383 . S
C269 C268 1.367 . S
C269 H283 0.950 . S
C270 C267 1.481 1_655 S
C270 C271 1.297 . S
C270 H284 0.950 . S
C271 C270 1.297 . S
C271 C272 1.479 . S
C271 H285 0.950 1_655 S
C272 C271 1.479 . S
C272 C273 1.375 . S
C272 C278 1.404 . S
C273 C272 1.375 . S
C273 C274 1.369 . S
C273 H286 0.950 . S
C274 C273 1.369 . S
C274 C275 1.392 . S
C274 H287 0.951 . S
C275 C274 1.392 . S
C275 C277 1.384 . S
H276 C278 0.949 . S
C277 C275 1.384 . S
C277 C278 1.385 . S
C277 H279 0.950 . S
C278 C272 1.404 . S
C278 H276 0.949 . S
C278 C277 1.385 . S
H279 C277 0.950 . S
H280 C264 0.951 . S
H281 C266 0.951 . S
H282 C268 0.951 1_655 S
H283 C269 0.950 . S
H284 C270 0.950 . S
H285 C271 0.950 1_455 S
H286 C273 0.950 . S
H287 C274 0.951 . S
C288 C289 1.386 . S
C288 C290 1.383 . S
C288 H304 0.951 . S
C289 C288 1.386 . S
C289 C293 1.383 . S
C290 C288 1.383 . S
C290 C291 1.402 . S
C290 H305 0.951 . S
C291 C290 1.402 . S
C291 C292 1.375 . S
C291 C294 1.481 . S
C292 C291 1.375 . S
C292 C293 1.367 . S
C292 H306 0.951 . S
C293 C289 1.383 . S
C293 C292 1.367 . S
C293 H307 0.950 . S
C294 C291 1.481 . S
C294 C295 1.297 . S
C294 H308 0.950 . S
C295 C294 1.297 . S
C295 C296 1.479 . S
C295 H309 0.950 . S
C296 C295 1.479 . S
C296 C297 1.375 . S
C296 C302 1.404 1_545 S
C297 C296 1.375 . S
C297 C298 1.369 1_545 S
C297 H310 0.950 . S
C298 C297 1.369 1_565 S
C298 C299 1.392 . S
C298 H311 0.951 . S
C299 C298 1.392 . S
C299 C301 1.384 . S
H300 C302 0.949 . S
C301 C299 1.384 . S
C301 C302 1.385 . S
C301 H303 0.950 . S
C302 C296 1.404 1_565 S
C302 H300 0.949 . S
C302 C301 1.385 . S
H303 C301 0.950 . S
H304 C288 0.951 . S
H305 C290 0.951 . S
H306 C292 0.951 . S
H307 C293 0.950 . S
H308 C294 0.950 . S
H309 C295 0.950 . S
H310 C297 0.950 . S
H311 C298 0.951 . S
C312 C313 1.386 . S
C312 C314 1.383 . S
C312 H328 0.951 . S
C313 C312 1.386 . S
C313 C317 1.383 . S
C314 C312 1.383 . S
C314 C315 1.402 . S
C314 H329 0.951 . S
C315 C314 1.402 . S
C315 C316 1.375 . S
C315 C318 1.481 . S
C316 C315 1.375 . S
C316 C317 1.367 . S
C316 H330 0.951 . S
C317 C313 1.383 . S
C317 C316 1.367 . S
C317 H331 0.950 . S
C318 C315 1.481 . S
C318 C319 1.297 . S
C318 H332 0.950 . S
C319 C318 1.297 . S
C319 C320 1.479 . S
C319 H333 0.950 . S
C320 C319 1.479 . S
C320 C321 1.375 . S
C320 C326 1.404 . S
C321 C320 1.375 . S
C321 C322 1.369 . S
C321 H334 0.950 . S
C322 C321 1.369 . S
C322 C323 1.392 . S
C322 H335 0.951 . S
C323 C322 1.392 . S
C323 C325 1.384 . S
H324 C326 0.949 . S
C325 C323 1.384 . S
C325 C326 1.385 . S
C325 H327 0.950 . S
C326 C320 1.404 . S
C326 H324 0.949 . S
C326 C325 1.385 . S
H327 C325 0.950 . S
H328 C312 0.951 . S
H329 C314 0.951 . S
H330 C316 0.951 . S
H331 C317 0.950 . S
H332 C318 0.950 . S
H333 C319 0.950 . S
H334 C321 0.950 . S
H335 C322 0.951 . S
C336 C337 1.386 1_655 S
C336 C338 1.383 . S
C336 H352 0.951 . S
C337 C336 1.386 1_455 S
C337 C341 1.383 . S
C338 C336 1.383 . S
C338 C339 1.402 . S
C338 H353 0.951 . S
C339 C338 1.402 . S
C339 C340 1.375 . S
C339 C342 1.481 . S
C340 C339 1.375 . S
C340 C341 1.367 1_655 S
C340 H354 0.951 . S
C341 C337 1.383 . S
C341 C340 1.367 1_455 S
C341 H355 0.950 . S
C342 C339 1.481 . S
C342 C343 1.297 . S
C342 H356 0.950 . S
C343 C342 1.297 . S
C343 C344 1.479 . S
C343 H357 0.950 . S
C344 C343 1.479 . S
C344 C345 1.375 . S
C344 C350 1.404 . S
C345 C344 1.375 . S
C345 C346 1.369 . S
C345 H358 0.950 . S
C346 C345 1.369 . S
C346 C347 1.392 . S
C346 H359 0.951 . S
C347 C346 1.392 . S
C347 C349 1.384 . S
H348 C350 0.949 . S
C349 C347 1.384 . S
C349 C350 1.385 . S
C349 H351 0.950 . S
C350 C344 1.404 . S
C350 H348 0.949 . S
C350 C349 1.385 . S
H351 C349 0.950 . S
H352 C336 0.951 . S
H353 C338 0.951 . S
H354 C340 0.951 . S
H355 C341 0.950 . S
H356 C342 0.950 . S
H357 C343 0.950 . S
H358 C345 0.950 . S
H359 C346 0.951 . S
C360 C361 1.386 . S
C360 C362 1.383 . S
C360 H376 0.951 . S
C361 C360 1.386 . S
C361 C365 1.383 . S
C362 C360 1.383 . S
C362 C363 1.402 . S
C362 H377 0.951 . S
C363 C362 1.402 . S
C363 C364 1.375 . S
C363 C366 1.481 . S
C364 C363 1.375 . S
C364 C365 1.367 . S
C364 H378 0.951 . S
C365 C361 1.383 . S
C365 C364 1.367 . S
C365 H379 0.950 . S
C366 C363 1.481 . S
C366 C367 1.297 . S
C366 H380 0.950 . S
C367 C366 1.297 . S
C367 C368 1.479 . S
C367 H381 0.950 . S
C368 C367 1.479 . S
C368 C369 1.375 1_565 S
C368 C374 1.412 1_565 S
C369 C368 1.375 1_545 S
C369 C370 1.369 . S
C369 H382 0.950 . S
C370 C369 1.369 . S
C370 C371 1.392 . S
C370 H383 0.951 . S
C371 C370 1.392 . S
C371 C373 1.384 . S
H372 C374 0.927 1_565 S
C373 C371 1.384 . S
C373 C374 1.398 . S
C373 H375 0.950 . S
C374 C368 1.412 1_545 S
C374 H372 0.927 1_545 S
C374 C373 1.398 . S
H375 C373 0.950 . S
H376 C360 0.951 . S
H377 C362 0.951 . S
H378 C364 0.951 . S
H379 C365 0.950 . S
H380 C366 0.950 . S
H381 C367 0.950 . S
H382 C369 0.950 . S
H383 C370 0.951 . S
C384 C385 1.386 . S
C384 C386 1.383 . S
C384 H400 0.951 . S
C385 C384 1.386 . S
C385 C389 1.383 1_554 S
C386 C384 1.383 . S
C386 C387 1.402 1_554 S
C386 H401 0.951 . S
C387 C386 1.402 1_556 S
C387 C388 1.375 . S
C387 C390 1.481 . S
C388 C387 1.375 . S
C388 C389 1.367 . S
C388 H402 0.951 . S
C389 C385 1.383 1_556 S
C389 C388 1.367 . S
C389 H403 0.950 . S
C390 C387 1.481 . S
C390 C391 1.297 . S
C390 H404 0.950 . S
C391 C390 1.297 . S
C391 C392 1.479 . S
C391 H405 0.950 . S
C392 C391 1.479 . S
C392 C393 1.375 . S
C392 C398 1.404 . S
C393 C392 1.375 . S
C393 C394 1.369 . S
C393 H406 0.950 1_556 S
C394 C393 1.369 . S
C394 C395 1.392 . S
C394 H407 0.951 . S
C395 C394 1.392 . S
C395 C397 1.384 . S
H396 C398 0.949 . S
C397 C395 1.384 . S
C397 C398 1.385 . S
C397 H399 0.950 . S
C398 C392 1.404 . S
C398 H396 0.949 . S
C398 C397 1.385 . S
H399 C397 0.950 . S
H400 C384 0.951 . S
H401 C386 0.951 . S
H402 C388 0.951 . S
H403 C389 0.950 . S
H404 C390 0.950 . S
H405 C391 0.950 . S
H406 C393 0.950 1_554 S
H407 C394 0.951 . S
C408 C409 1.386 . S
C408 C410 1.383 . S
C408 H424 0.951 1_554 S
C409 C408 1.386 . S
C409 C413 1.383 . S
C410 C408 1.383 . S
C410 C411 1.402 . S
C410 H425 0.951 1_554 S
C411 C410 1.402 . S
C411 C412 1.375 . S
C411 C414 1.481 . S
C412 C411 1.375 . S
C412 C413 1.367 . S
C412 H426 0.951 . S
C413 C409 1.383 . S
C413 C412 1.367 . S
C413 H427 0.950 . S
C414 C411 1.481 . S
C414 C415 1.297 . S
C414 H428 0.950 . S
C415 C414 1.297 . S
C415 C416 1.479 . S
C415 H429 0.950 . S
C416 C415 1.479 . S
C416 C417 1.375 . S
C416 C422 1.404 . S
C417 C416 1.375 . S
C417 C418 1.369 . S
C417 H430 0.950 1_554 S
C418 C417 1.369 . S
C418 C419 1.392 . S
C418 H431 0.951 1_554 S
C419 C418 1.392 . S
C419 C421 1.384 . S
H420 C422 0.949 . S
C421 C419 1.384 . S
C421 C422 1.385 . S
C421 H423 0.950 . S
C422 C416 1.404 . S
C422 H420 0.949 . S
C422 C421 1.385 . S
H423 C421 0.950 . S
H424 C408 0.951 1_556 S
H425 C410 0.951 1_556 S
H426 C412 0.951 . S
H427 C413 0.950 . S
H428 C414 0.950 . S
H429 C415 0.950 . S
H430 C417 0.950 1_556 S
H431 C418 0.951 1_556 S
C432 C433 1.386 . S
C432 C434 1.383 . S
C432 H448 0.951 . S
C433 C432 1.386 . S
C433 C437 1.383 . S
C434 C432 1.383 . S
C434 C435 1.402 . S
C434 H449 0.951 . S
C435 C434 1.402 . S
C435 C436 1.375 . S
C435 C438 1.481 . S
C436 C435 1.375 . S
C436 C437 1.367 . S
C436 H450 0.951 . S
C437 C433 1.383 . S
C437 C436 1.367 . S
C437 H451 0.950 . S
C438 C435 1.481 . S
C438 C439 1.297 1_556 S
C438 H452 0.950 . S
C439 C438 1.297 1_554 S
C439 C440 1.479 . S
C439 H453 0.950 . S
C440 C439 1.479 . S
C440 C441 1.375 1_554 S
C440 C446 1.404 . S
C441 C440 1.375 1_556 S
C441 C442 1.369 . S
C441 H454 0.950 . S
C442 C441 1.369 . S
C442 C443 1.392 . S
C442 H455 0.951 . S
C443 C442 1.392 . S
C443 C445 1.383 1_556 S
H444 C446 0.949 . S
C445 C443 1.383 1_554 S
C445 C446 1.386 . S
C445 H447 0.951 . S
C446 C440 1.404 . S
C446 H444 0.949 . S
C446 C445 1.386 . S
H447 C445 0.951 . S
H448 C432 0.951 . S
H449 C434 0.951 . S
H450 C436 0.951 . S
H451 C437 0.950 . S
H452 C438 0.950 . S
H453 C439 0.950 . S
H454 C441 0.950 . S
H455 C442 0.951 . S
C456 C457 1.386 . S
C456 C458 1.383 . S
C456 H472 0.951 . S
C457 C456 1.386 . S
C457 C461 1.383 . S
C458 C456 1.383 . S
C458 C459 1.402 . S
C458 H473 0.951 . S
C459 C458 1.402 . S
C459 C460 1.375 . S
C459 C462 1.481 . S
C460 C459 1.375 . S
C460 C461 1.367 . S
C460 H474 0.951 . S
C461 C457 1.383 . S
C461 C460 1.367 . S
C461 H475 0.950 . S
C462 C459 1.481 . S
C462 C463 1.297 . S
C462 H476 0.950 . S
C463 C462 1.297 . S
C463 C464 1.479 . S
C463 H477 0.950 . S
C464 C463 1.479 . S
C464 C465 1.375 . S
C464 C470 1.404 . S
C465 C464 1.375 . S
C465 C466 1.369 . S
C465 H478 0.950 . S
C466 C465 1.369 . S
C466 C467 1.392 . S
C466 H479 0.951 . S
C467 C466 1.392 . S
C467 C469 1.384 . S
H468 C470 0.949 . S
C469 C467 1.384 . S
C469 C470 1.385 . S
C469 H471 0.950 . S
C470 C464 1.404 . S
C470 H468 0.949 . S
C470 C469 1.385 . S
H471 C469 0.950 . S
H472 C456 0.951 . S
H473 C458 0.951 . S
H474 C460 0.951 . S
H475 C461 0.950 . S
H476 C462 0.950 . S
H477 C463 0.950 . S
H478 C465 0.950 . S
H479 C466 0.951 . S
C480 C481 1.386 . S
C480 C482 1.383 . S
C480 H496 0.951 . S
C481 C480 1.386 . S
C481 C485 1.383 1_556 S
C482 C480 1.383 . S
C482 C483 1.402 1_556 S
C482 H497 0.951 . S
C483 C482 1.402 1_554 S
C483 C484 1.375 . S
C483 C486 1.481 . S
C484 C483 1.375 . S
C484 C485 1.367 . S
C484 H498 0.951 . S
C485 C481 1.383 1_554 S
C485 C484 1.367 . S
C485 H499 0.950 . S
C486 C483 1.481 . S
C486 C487 1.293 1_554 S
C486 H500 0.950 . S
C487 C486 1.293 1_556 S
C487 C488 1.477 1_556 S
C487 H501 0.958 . S
C488 C487 1.477 1_554 S
C488 C489 1.375 1_554 S
C488 C494 1.404 . S
C489 C488 1.375 1_556 S
C489 C490 1.369 . S
C489 H502 0.950 . S
C490 C489 1.369 . S
C490 C491 1.392 1_556 S
C490 H503 0.951 . S
C491 C490 1.392 1_554 S
C491 C493 1.384 . S
H492 C494 0.949 . S
C493 C491 1.384 . S
C493 C494 1.385 . S
C493 H495 0.950 . S
C494 C488 1.404 . S
C494 H492 0.949 . S
C494 C493 1.385 . S
H495 C493 0.950 . S
H496 C480 0.951 . S
H497 C482 0.951 . S
H498 C484 0.951 . S
H499 C485 0.950 . S
H500 C486 0.950 . S
H501 C487 0.958 . S
H502 C489 0.950 . S
H503 C490 0.951 . S
C504 C505 1.386 1_556 S
C504 C506 1.383 . S
C504 H520 0.951 . S
C505 C504 1.386 1_554 S
C505 C509 1.383 . S
C506 C504 1.383 . S
C506 C507 1.402 1_556 S
C506 H521 0.951 . S
C507 C506 1.402 1_554 S
C507 C508 1.375 . S
C507 C510 1.481 . S
C508 C507 1.375 . S
C508 C509 1.367 . S
C508 H522 0.951 . S
C509 C505 1.383 . S
C509 C508 1.367 . S
C509 H523 0.950 . S
C510 C507 1.481 . S
C510 C511 1.297 1_554 S
C510 H524 0.950 . S
C511 C510 1.297 1_556 S
C511 C512 1.479 . S
C511 H525 0.950 . S
C512 C511 1.479 . S
C512 C513 1.375 . S
C512 C518 1.404 1_556 S
C513 C512 1.375 . S
C513 C514 1.369 . S
C513 H526 0.950 . S
C514 C513 1.369 . S
C514 C515 1.392 . S
C514 H527 0.951 . S
C515 C514 1.392 . S
C515 C517 1.384 1_556 S
H516 C518 0.949 . S
C517 C515 1.384 1_554 S
C517 C518 1.385 . S
C517 H519 0.950 . S
C518 C512 1.404 1_554 S
C518 H516 0.949 . S
C518 C517 1.385 . S
H519 C517 0.950 . S
H520 C504 0.951 . S
H521 C506 0.951 . S
H522 C508 0.951 . S
H523 C509 0.950 . S
H524 C510 0.950 . S
H525 C511 0.950 . S
H526 C513 0.950 . S
H527 C514 0.951 . S
C528 C529 1.386 . S
C528 C530 1.383 . S
C528 H544 0.951 . S
C529 C528 1.386 . S
C529 C533 1.383 . S
C530 C528 1.383 . S
C530 C531 1.402 . S
C530 H545 0.951 . S
C531 C530 1.402 . S
C531 C532 1.375 . S
C531 C534 1.481 . S
C532 C531 1.375 . S
C532 C533 1.367 . S
C532 H546 0.951 . S
C533 C529 1.383 . S
C533 C532 1.367 . S
C533 H547 0.950 . S
C534 C531 1.481 . S
C534 C535 1.297 . S
C534 H548 0.950 . S
C535 C534 1.297 . S
C535 C536 1.479 . S
C535 H549 0.950 . S
C536 C535 1.479 . S
C536 C537 1.375 . S
C536 C542 1.404 . S
C537 C536 1.375 . S
C537 C538 1.369 . S
C537 H550 0.950 . S
C538 C537 1.369 . S
C538 C539 1.392 . S
C538 H551 0.951 . S
C539 C538 1.392 . S
C539 C541 1.384 . S
H540 C542 0.949 . S
C541 C539 1.384 . S
C541 C542 1.385 . S
C541 H543 0.950 . S
C542 C536 1.404 . S
C542 H540 0.949 . S
C542 C541 1.385 . S
H543 C541 0.950 . S
H544 C528 0.951 . S
H545 C530 0.951 . S
H546 C532 0.951 . S
H547 C533 0.950 . S
H548 C534 0.950 . S
H549 C535 0.950 . S
H550 C537 0.950 . S
H551 C538 0.951 . S
C552 C553 1.386 . S
C552 C554 1.383 . S
C552 H568 0.951 . S
C553 C552 1.386 . S
C553 C557 1.383 . S
C554 C552 1.383 . S
C554 C555 1.402 . S
C554 H569 0.951 . S
C555 C554 1.402 . S
C555 C556 1.375 . S
C555 C558 1.481 . S
C556 C555 1.375 . S
C556 C557 1.367 . S
C556 H570 0.951 . S
C557 C553 1.383 . S
C557 C556 1.367 . S
C557 H571 0.950 . S
C558 C555 1.481 . S
C558 C559 1.297 . S
C558 H572 0.950 . S
C559 C558 1.297 . S
C559 C560 1.479 . S
C559 H573 0.950 . S
C560 C559 1.479 . S
C560 C561 1.375 . S
C560 C566 1.404 . S
C561 C560 1.375 . S
C561 C562 1.369 . S
C561 H574 0.950 . S
C562 C561 1.369 . S
C562 C563 1.392 . S
C562 H575 0.951 . S
C563 C562 1.392 . S
C563 C565 1.384 . S
H564 C566 0.949 . S
C565 C563 1.384 . S
C565 C566 1.385 . S
C565 H567 0.950 . S
C566 C560 1.404 . S
C566 H564 0.949 . S
C566 C565 1.385 . S
H567 C565 0.950 . S
H568 C552 0.951 . S
H569 C554 0.951 . S
H570 C556 0.951 . S
H571 C557 0.950 . S
H572 C558 0.950 . S
H573 C559 0.950 . S
H574 C561 0.950 . S
H575 C562 0.951 . S
C576 C577 1.386 . S
C576 C578 1.383 . S
C576 H592 0.951 . S
C577 C576 1.386 . S
C577 C581 1.383 . S
C578 C576 1.383 . S
C578 C579 1.402 . S
C578 H593 0.951 . S
C579 C578 1.402 . S
C579 C580 1.375 . S
C579 C582 1.481 . S
C580 C579 1.375 . S
C580 C581 1.367 . S
C580 H594 0.951 . S
C581 C577 1.383 . S
C581 C580 1.367 . S
C581 H595 0.950 . S
C582 C579 1.481 . S
C582 C583 1.297 . S
C582 H596 0.950 . S
C583 C582 1.297 . S
C583 C584 1.479 . S
C583 H597 0.950 . S
C584 C583 1.479 . S
C584 C585 1.375 . S
C584 C590 1.404 . S
C585 C584 1.375 . S
C585 C586 1.369 . S
C585 H598 0.950 . S
C586 C585 1.369 . S
C586 C587 1.392 . S
C586 H599 0.951 . S
C587 C586 1.392 . S
C587 C589 1.384 . S
H588 C590 0.949 . S
C589 C587 1.384 . S
C589 C590 1.385 . S
C589 H591 0.950 . S
C590 C584 1.404 . S
C590 H588 0.949 . S
C590 C589 1.385 . S
H591 C589 0.950 . S
H592 C576 0.951 . S
H593 C578 0.951 . S
H594 C580 0.951 . S
H595 C581 0.950 . S
H596 C582 0.950 . S
H597 C583 0.950 . S
H598 C585 0.950 . S
H599 C586 0.951 . S
C600 C601 1.386 . S
C600 C602 1.383 . S
C600 H616 0.951 . S
C601 C600 1.386 . S
C601 C605 1.383 . S
C602 C600 1.383 . S
C602 C603 1.402 . S
C602 H617 0.951 . S
C603 C602 1.402 . S
C603 C604 1.375 . S
C603 C606 1.481 . S
C604 C603 1.375 . S
C604 C605 1.367 . S
C604 H618 0.951 . S
C605 C601 1.383 . S
C605 C604 1.367 . S
C605 H619 0.950 . S
C606 C603 1.481 . S
C606 C607 1.297 . S
C606 H620 0.950 . S
C607 C606 1.297 . S
C607 C608 1.479 . S
C607 H621 0.950 . S
C608 C607 1.479 . S
C608 C609 1.375 . S
C608 C614 1.404 . S
C609 C608 1.375 . S
C609 C610 1.369 . S
C609 H622 0.950 . S
C610 C609 1.369 . S
C610 C611 1.392 . S
C610 H623 0.951 . S
C611 C610 1.392 . S
C611 C613 1.384 . S
H612 C614 0.949 . S
C613 C611 1.384 . S
C613 C614 1.385 . S
C613 H615 0.950 . S
C614 C608 1.404 . S
C614 H612 0.949 . S
C614 C613 1.385 . S
H615 C613 0.950 . S
H616 C600 0.951 . S
H617 C602 0.951 . S
H618 C604 0.951 . S
H619 C605 0.950 . S
H620 C606 0.950 . S
H621 C607 0.950 . S
H622 C609 0.950 . S
H623 C610 0.951 . S
C624 C625 1.386 . S
C624 C626 1.383 . S
C624 H640 0.951 . S
C625 C624 1.386 . S
C625 C629 1.383 . S
C626 C624 1.383 . S
C626 C627 1.402 . S
C626 H641 0.951 . S
C627 C626 1.402 . S
C627 C628 1.375 . S
C627 C630 1.481 . S
C628 C627 1.375 . S
C628 C629 1.367 . S
C628 H642 0.951 . S
C629 C625 1.383 . S
C629 C628 1.367 . S
C629 H643 0.950 . S
C630 C627 1.481 . S
C630 C631 1.297 . S
C630 H644 0.950 . S
C631 C630 1.297 . S
C631 C632 1.479 . S
C631 H645 0.950 . S
C632 C631 1.479 . S
C632 C633 1.375 . S
C632 C638 1.404 . S
C633 C632 1.375 . S
C633 C634 1.369 . S
C633 H646 0.950 . S
C634 C633 1.369 . S
C634 C635 1.392 . S
C634 H647 0.951 . S
C635 C634 1.392 . S
C635 C637 1.384 . S
H636 C638 0.949 . S
C637 C635 1.384 . S
C637 C638 1.385 . S
C637 H639 0.950 . S
C638 C632 1.404 . S
C638 H636 0.949 . S
C638 C637 1.385 . S
H639 C637 0.950 . S
H640 C624 0.951 . S
H641 C626 0.951 . S
H642 C628 0.951 . S
H643 C629 0.950 . S
H644 C630 0.950 . S
H645 C631 0.950 . S
H646 C633 0.950 . S
H647 C634 0.951 . S
C648 C649 1.386 . S
C648 C650 1.383 . S
C648 H664 0.951 . S
C649 C648 1.386 . S
C649 C653 1.383 . S
C650 C648 1.383 . S
C650 C651 1.402 . S
C650 H665 0.951 . S
C651 C650 1.402 . S
C651 C652 1.375 . S
C651 C654 1.481 . S
C652 C651 1.375 . S
C652 C653 1.367 . S
C652 H666 0.951 . S
C653 C649 1.383 . S
C653 C652 1.367 . S
C653 H667 0.950 . S
C654 C651 1.481 . S
C654 C655 1.297 . S
C654 H668 0.950 . S
C655 C654 1.297 . S
C655 C656 1.479 . S
C655 H669 0.950 . S
C656 C655 1.479 . S
C656 C657 1.375 . S
C656 C662 1.404 . S
C657 C656 1.375 . S
C657 C658 1.369 . S
C657 H670 0.950 . S
C658 C657 1.369 . S
C658 C659 1.392 . S
C658 H671 0.951 . S
C659 C658 1.392 . S
C659 C661 1.384 . S
H660 C662 0.949 . S
C661 C659 1.384 . S
C661 C662 1.385 . S
C661 H663 0.950 . S
C662 C656 1.404 . S
C662 H660 0.949 . S
C662 C661 1.385 . S
H663 C661 0.950 . S
H664 C648 0.951 . S
H665 C650 0.951 . S
H666 C652 0.951 . S
H667 C653 0.950 . S
H668 C654 0.950 . S
H669 C655 0.950 . S
H670 C657 0.950 . S
H671 C658 0.951 . S
C241 C209 1.866 . S
C251 C9 1.982 . S
C265 C22 3.476 . S
C275 C66 3.273 . S
C289 C43 2.483 . S
C299 C89 2.274 . S
C313 C142 4.294 . S
C323 C102 4.210 . S
C337 C169 2.536 . S
C347 C129 2.603 . S
C361 C182 2.608 . S
C371 C222 2.589 . S
C385 C163 1.516 . S
C395 C26 1.438 . S
C409 C226 1.137 . S
C419 C49 1.148 . S
C433 C106 2.221 . S
C443 C3 2.213 . S
C457 C123 3.891 . S
C467 C62 3.903 . S
C481 C186 3.052 . S
C491 C83 3.116 . S
C505 C146 2.213 . S
C515 C203 2.264 . S
C529 C2 0.416 . S
C539 C15 0.171 . S
C553 C42 0.360 . S
C563 C55 0.563 . S
C577 C82 0.410 . S
C587 C95 0.185 . S
C601 C135 0.332 . S
C611 C122 0.252 . S
C625 C175 0.507 . S
C635 C162 0.293 . S
C649 C215 0.275 . S
C659 C202 0.502 . S
